# Generated by pormake.
# Topology why, (6)-cn, num edge types: 1
# Building blocks:
#     Node 0, Type 0, BuildingBlock: CIFDUS_clean_sbu_1, # of connection points: 6
#     Node 1, Type 0, BuildingBlock: CIFDUS_clean_sbu_1, # of connection points: 6
#     Node 2, Type 0, BuildingBlock: CIFDUS_clean_sbu_1, # of connection points: 6
#     Node 3, Type 0, BuildingBlock: CIFDUS_clean_sbu_1, # of connection points: 6
#     Node 4, Type 0, BuildingBlock: CIFDUS_clean_sbu_1, # of connection points: 6
#     Node 5, Type 0, BuildingBlock: CIFDUS_clean_sbu_1, # of connection points: 6
#     Node 6, Type 0, BuildingBlock: CIFDUS_clean_sbu_1, # of connection points: 6
#     Node 7, Type 0, BuildingBlock: CIFDUS_clean_sbu_1, # of connection points: 6
#     Node 8, Type 0, BuildingBlock: CIFDUS_clean_sbu_1, # of connection points: 6
#     Node 9, Type 0, BuildingBlock: CIFDUS_clean_sbu_1, # of connection points: 6
#     Node 10, Type 0, BuildingBlock: CIFDUS_clean_sbu_1, # of connection points: 6
#     Node 11, Type 0, BuildingBlock: CIFDUS_clean_sbu_1, # of connection points: 6
#     Node 12, Type 0, BuildingBlock: CIFDUS_clean_sbu_1, # of connection points: 6
#     Node 13, Type 0, BuildingBlock: CIFDUS_clean_sbu_1, # of connection points: 6
#     Node 14, Type 0, BuildingBlock: CIFDUS_clean_sbu_1, # of connection points: 6
#     Node 15, Type 0, BuildingBlock: CIFDUS_clean_sbu_1, # of connection points: 6
#     Edge 16, Type (0, 0), BuildingBlock: UVAHIK_clean_linker_0, # of connection points: 2
#     Edge 17, Type (0, 0), BuildingBlock: UVAHIK_clean_linker_0, # of connection points: 2
#     Edge 18, Type (0, 0), BuildingBlock: UVAHIK_clean_linker_0, # of connection points: 2
#     Edge 19, Type (0, 0), BuildingBlock: UVAHIK_clean_linker_0, # of connection points: 2
#     Edge 20, Type (0, 0), BuildingBlock: UVAHIK_clean_linker_0, # of connection points: 2
#     Edge 21, Type (0, 0), BuildingBlock: UVAHIK_clean_linker_0, # of connection points: 2
#     Edge 22, Type (0, 0), BuildingBlock: UVAHIK_clean_linker_0, # of connection points: 2
#     Edge 23, Type (0, 0), BuildingBlock: UVAHIK_clean_linker_0, # of connection points: 2
#     Edge 24, Type (0, 0), BuildingBlock: UVAHIK_clean_linker_0, # of connection points: 2
#     Edge 25, Type (0, 0), BuildingBlock: UVAHIK_clean_linker_0, # of connection points: 2
#     Edge 26, Type (0, 0), BuildingBlock: UVAHIK_clean_linker_0, # of connection points: 2
#     Edge 27, Type (0, 0), BuildingBlock: UVAHIK_clean_linker_0, # of connection points: 2
#     Edge 28, Type (0, 0), BuildingBlock: UVAHIK_clean_linker_0, # of connection points: 2
#     Edge 29, Type (0, 0), BuildingBlock: UVAHIK_clean_linker_0, # of connection points: 2
#     Edge 30, Type (0, 0), BuildingBlock: UVAHIK_clean_linker_0, # of connection points: 2
#     Edge 31, Type (0, 0), BuildingBlock: UVAHIK_clean_linker_0, # of connection points: 2
#     Edge 32, Type (0, 0), BuildingBlock: UVAHIK_clean_linker_0, # of connection points: 2
#     Edge 33, Type (0, 0), BuildingBlock: UVAHIK_clean_linker_0, # of connection points: 2
#     Edge 34, Type (0, 0), BuildingBlock: UVAHIK_clean_linker_0, # of connection points: 2
#     Edge 35, Type (0, 0), BuildingBlock: UVAHIK_clean_linker_0, # of connection points: 2
#     Edge 36, Type (0, 0), BuildingBlock: UVAHIK_clean_linker_0, # of connection points: 2
#     Edge 37, Type (0, 0), BuildingBlock: UVAHIK_clean_linker_0, # of connection points: 2
#     Edge 38, Type (0, 0), BuildingBlock: UVAHIK_clean_linker_0, # of connection points: 2
#     Edge 39, Type (0, 0), BuildingBlock: UVAHIK_clean_linker_0, # of connection points: 2
#     Edge 40, Type (0, 0), BuildingBlock: UVAHIK_clean_linker_0, # of connection points: 2
#     Edge 41, Type (0, 0), BuildingBlock: UVAHIK_clean_linker_0, # of connection points: 2
#     Edge 42, Type (0, 0), BuildingBlock: UVAHIK_clean_linker_0, # of connection points: 2
#     Edge 43, Type (0, 0), BuildingBlock: UVAHIK_clean_linker_0, # of connection points: 2
#     Edge 44, Type (0, 0), BuildingBlock: UVAHIK_clean_linker_0, # of connection points: 2
#     Edge 45, Type (0, 0), BuildingBlock: UVAHIK_clean_linker_0, # of connection points: 2
#     Edge 46, Type (0, 0), BuildingBlock: UVAHIK_clean_linker_0, # of connection points: 2
#     Edge 47, Type (0, 0), BuildingBlock: UVAHIK_clean_linker_0, # of connection points: 2
#     Edge 48, Type (0, 0), BuildingBlock: UVAHIK_clean_linker_0, # of connection points: 2
#     Edge 49, Type (0, 0), BuildingBlock: UVAHIK_clean_linker_0, # of connection points: 2
#     Edge 50, Type (0, 0), BuildingBlock: UVAHIK_clean_linker_0, # of connection points: 2
#     Edge 51, Type (0, 0), BuildingBlock: UVAHIK_clean_linker_0, # of connection points: 2
#     Edge 52, Type (0, 0), BuildingBlock: UVAHIK_clean_linker_0, # of connection points: 2
#     Edge 53, Type (0, 0), BuildingBlock: UVAHIK_clean_linker_0, # of connection points: 2
#     Edge 54, Type (0, 0), BuildingBlock: UVAHIK_clean_linker_0, # of connection points: 2
#     Edge 55, Type (0, 0), BuildingBlock: UVAHIK_clean_linker_0, # of connection points: 2
#     Edge 56, Type (0, 0), BuildingBlock: UVAHIK_clean_linker_0, # of connection points: 2
#     Edge 57, Type (0, 0), BuildingBlock: UVAHIK_clean_linker_0, # of connection points: 2
#     Edge 58, Type (0, 0), BuildingBlock: UVAHIK_clean_linker_0, # of connection points: 2
#     Edge 59, Type (0, 0), BuildingBlock: UVAHIK_clean_linker_0, # of connection points: 2
#     Edge 60, Type (0, 0), BuildingBlock: UVAHIK_clean_linker_0, # of connection points: 2
#     Edge 61, Type (0, 0), BuildingBlock: UVAHIK_clean_linker_0, # of connection points: 2
#     Edge 62, Type (0, 0), BuildingBlock: UVAHIK_clean_linker_0, # of connection points: 2
#     Edge 63, Type (0, 0), BuildingBlock: UVAHIK_clean_linker_0, # of connection points: 2
# Relax obj value: 0.192
# Max RMSD: 0.135
# Mean RMSD: 0.135
data_MOF--net-why--node1-CIFDUS_clean_sbu_1--edge1-UVAHIK_clean_linker_0
_symmetry_space_group_name_H-M    P1
_symmetry_Int_Tables_number       1
_symmetry_cell_setting            triclinic
loop_
_symmetry_equiv_pos_as_xyz
'x, y, z'
_cell_length_a     60.413284
_cell_length_b     60.293644
_cell_length_c     36.606304
_cell_angle_alpha  90.071729
_cell_angle_beta   89.999135
_cell_angle_gamma 90.049869
loop_
_atom_site_label
_atom_site_type_symbol
_atom_site_fract_x
_atom_site_fract_y
_atom_site_fract_z
_atom_type_partial_charge
O0 O 0.35369 0.2022 0.0481 0.0
Mn1 Mn 0.35207 0.17364 0.07909 0.0
O2 O 0.34596 0.19068 0.99105 0.0
Mn3 Mn 0.33884 0.16165 1.00302 0.0
O4 O 0.35172 0.14448 0.11044 0.0
O5 O 0.37616 0.18654 0.11016 0.0
Mn6 Mn 0.37011 0.18389 0.15674 0.0
O7 O 0.3274 0.1884 0.11169 0.0
O8 O 0.36853 0.15356 0.16352 0.0
O9 O 0.37772 0.1598 0.04748 0.0
O10 O 0.36159 0.1417 1.00189 0.0
O11 O 0.39753 0.19748 0.154 0.0
O12 O 0.3445 0.20006 0.16302 0.0
C13 C 0.30955 0.15382 0.02959 0.0
C14 C 0.35162 0.20564 0.01383 0.0
C15 C 0.36026 0.13933 0.14156 0.0
C16 C 0.39475 0.19549 0.11914 0.0
C17 C 0.32767 0.19916 0.1421 0.0
C18 C 0.37851 0.14601 0.02085 0.0
O19 O 0.32681 0.16149 0.04713 0.0
O20 O 0.31145 0.15125 0.99457 0.0
O21 O 0.535 0.60729 0.30566 0.0
Mn22 Mn 0.56645 0.60204 0.32916 0.0
O23 O 0.52826 0.57592 0.27977 0.0
Mn24 Mn 0.55651 0.57671 0.26113 0.0
O25 O 0.59838 0.60062 0.35315 0.0
O26 O 0.55818 0.6287 0.35967 0.0
Mn27 Mn 0.56602 0.6242 0.40539 0.0
O28 O 0.55342 0.58029 0.36877 0.0
O29 O 0.59633 0.62179 0.40402 0.0
O30 O 0.5781 0.62224 0.28738 0.0
O31 O 0.56638 0.60262 0.23795 0.0
O32 O 0.55324 0.65189 0.4045 0.0
O33 O 0.55113 0.59933 0.42156 0.0
C34 C 0.57781 0.55437 0.28818 0.0
C35 C 0.52161 0.59484 0.28837 0.0
C36 C 0.60728 0.61046 0.3809 0.0
C37 C 0.55105 0.64798 0.36992 0.0
C38 C 0.54819 0.58176 0.40282 0.0
C39 C 0.57516 0.61992 0.25261 0.0
O40 O 0.57595 0.57529 0.29705 0.0
O41 O 0.5676 0.54899 0.25839 0.0
O42 O 0.13818 0.79116 0.54352 0.0
Mn43 Mn 0.13882 0.81925 0.57721 0.0
O44 O 0.1581 0.79998 0.49432 0.0
Mn45 Mn 0.15513 0.82976 0.50208 0.0
O46 O 0.13795 0.84737 0.6108 0.0
O47 O 0.11516 0.80426 0.60751 0.0
Mn48 Mn 0.12237 0.80626 0.65409 0.0
O49 O 0.16441 0.80536 0.60868 0.0
O50 O 0.12364 0.83628 0.66461 0.0
O51 O 0.11299 0.83243 0.54603 0.0
O52 O 0.12784 0.84144 0.49195 0.0
O53 O 0.09559 0.79167 0.65286 0.0
O54 O 0.1488 0.79146 0.65963 0.0
C55 C 0.17964 0.84533 0.531 0.0
C56 C 0.14672 0.78624 0.51254 0.0
C57 C 0.13125 0.85129 0.64352 0.0
C58 C 0.09717 0.79439 0.61791 0.0
C59 C 0.16538 0.79445 0.6388 0.0
C60 C 0.11153 0.84024 0.51359 0.0
O61 O 0.16326 0.83507 0.54744 0.0
O62 O 0.17903 0.84671 0.49564 0.0
O63 O 0.95324 0.38641 0.79801 0.0
Mn64 Mn 0.9236 0.38859 0.82708 0.0
O65 O 0.94651 0.40062 0.74243 0.0
Mn66 Mn 0.91641 0.40362 0.74908 0.0
O67 O 0.8939 0.38996 0.85693 0.0
O68 O 0.93547 0.36469 0.85979 0.0
Mn69 Mn 0.93165 0.37171 0.90595 0.0
O70 O 0.93743 0.41361 0.86004 0.0
O71 O 0.90146 0.37466 0.9118 0.0
O72 O 0.90997 0.36314 0.79483 0.0
O73 O 0.89956 0.37869 0.74203 0.0
O74 O 0.9449 0.3441 0.9057 0.0
O75 O 0.94714 0.39764 0.91337 0.0
C76 C 0.90382 0.43075 0.7776 0.0
C77 C 0.9595 0.39228 0.76601 0.0
C78 C 0.88812 0.38354 0.88912 0.0
C79 C 0.94398 0.34619 0.87057 0.0
C80 C 0.9463 0.41426 0.892 0.0
C81 C 0.90016 0.36235 0.76376 0.0
O82 O 0.91185 0.41331 0.79402 0.0
O83 O 0.90375 0.43037 0.74221 0.0
O84 O 0.63881 0.78807 0.96597 0.0
Mn85 Mn 0.63987 0.81862 0.93729 0.0
O86 O 0.66429 0.791 0.00941 0.0
Mn87 Mn 0.65966 0.82086 0.01223 0.0
O88 O 0.63965 0.84919 0.90924 0.0
O89 O 0.6153 0.80671 0.90518 0.0
Mn90 Mn 0.62161 0.81303 0.85907 0.0
O91 O 0.66426 0.80567 0.9022 0.0
O92 O 0.62266 0.84357 0.85524 0.0
O93 O 0.61555 0.83049 0.9729 0.0
O94 O 0.63192 0.82887 0.02807 0.0
O95 O 0.59517 0.79789 0.85797 0.0
O96 O 0.64782 0.79874 0.84812 0.0
C97 C 0.68167 0.84111 0.985 0.0
C98 C 0.65023 0.77954 0.99209 0.0
C99 C 0.63191 0.8562 0.87856 0.0
C100 C 0.59752 0.79715 0.89309 0.0
C101 C 0.6645 0.7981 0.86932 0.0
C102 C 0.61509 0.83201 0.0079 0.0
O103 O 0.66481 0.83181 0.96856 0.0
O104 O 0.68321 0.83842 0.02006 0.0
O105 O 0.45358 0.3892 0.70902 0.0
Mn106 Mn 0.42258 0.38905 0.68448 0.0
O107 O 0.44502 0.39242 0.76789 0.0
Mn108 Mn 0.41664 0.40313 0.76146 0.0
O109 O 0.39131 0.38793 0.65868 0.0
O110 O 0.43447 0.36444 0.65278 0.0
Mn111 Mn 0.42578 0.36822 0.6074 0.0
O112 O 0.43402 0.4131 0.64738 0.0
O113 O 0.39543 0.36585 0.60945 0.0
O114 O 0.41086 0.36433 0.72065 0.0
O115 O 0.39511 0.38231 0.76734 0.0
O116 O 0.44319 0.34307 0.60728 0.0
O117 O 0.4367 0.39554 0.59305 0.0
C118 C 0.41383 0.43313 0.73258 0.0
C119 C 0.4589 0.38894 0.74269 0.0
C120 C 0.38338 0.3766 0.63182 0.0
C121 C 0.44475 0.34681 0.64198 0.0
C122 C 0.43869 0.41281 0.613 0.0
C123 C 0.39779 0.36483 0.7485 0.0
O124 O 0.41009 0.4139 0.71728 0.0
O125 O 0.41621 0.43267 0.76773 0.0
O126 O 0.85361 0.20737 0.45461 0.0
Mn127 Mn 0.85205 0.17558 0.43253 0.0
O128 O 0.85076 0.1995 0.51308 0.0
Mn129 Mn 0.83536 0.17357 0.50546 0.0
O130 O 0.8518 0.14412 0.40684 0.0
O131 O 0.87884 0.18495 0.40384 0.0
Mn132 Mn 0.87556 0.17839 0.35741 0.0
O133 O 0.83047 0.18818 0.39231 0.0
O134 O 0.87254 0.14802 0.3558 0.0
O135 O 0.87403 0.16291 0.4731 0.0
O136 O 0.85208 0.14965 0.5167 0.0
O137 O 0.90282 0.19209 0.36137 0.0
O138 O 0.85086 0.19368 0.34164 0.0
C139 C 0.80538 0.17027 0.47715 0.0
C140 C 0.85581 0.21271 0.48795 0.0
C141 C 0.86091 0.13634 0.37757 0.0
C142 C 0.89782 0.1935 0.39564 0.0
C143 C 0.83264 0.19496 0.3591 0.0
C144 C 0.87112 0.1514 0.50248 0.0
O145 O 0.82443 0.16522 0.46198 0.0
O146 O 0.80631 0.17834 0.50984 0.0
O147 O 0.03412 0.60448 0.20561 0.0
Mn148 Mn 0.06597 0.60181 0.18414 0.0
O149 O 0.0388 0.59684 0.2643 0.0
Mn150 Mn 0.06556 0.58282 0.25933 0.0
O151 O 0.09778 0.60075 0.15968 0.0
O152 O 0.05721 0.62809 0.15333 0.0
Mn153 Mn 0.0652 0.62378 0.10758 0.0
O154 O 0.05358 0.57971 0.14505 0.0
O155 O 0.09558 0.62163 0.10855 0.0
O156 O 0.07846 0.62361 0.22486 0.0
O157 O 0.08849 0.601 0.27064 0.0
O158 O 0.05084 0.65079 0.10858 0.0
O159 O 0.05109 0.59823 0.0918 0.0
C160 C 0.07044 0.55467 0.22478 0.0
C161 C 0.02714 0.60396 0.23839 0.0
C162 C 0.10652 0.61003 0.1313 0.0
C163 C 0.04858 0.6467 0.14306 0.0
C164 C 0.04845 0.58083 0.11105 0.0
C165 C 0.08819 0.62008 0.25584 0.0
O166 O 0.0753 0.57495 0.21526 0.0
O167 O 0.06215 0.55308 0.25717 0.0
O168 O 0.8536 0.70124 0.54784 0.0
Mn169 Mn 0.85114 0.67193 0.57795 0.0
O170 O 0.83705 0.69441 0.49418 0.0
Mn171 Mn 0.83547 0.66428 0.5007 0.0
O172 O 0.85008 0.64192 0.60731 0.0
O173 O 0.87507 0.68447 0.61064 0.0
Mn174 Mn 0.86867 0.67811 0.65653 0.0
O175 O 0.82638 0.68604 0.61079 0.0
O176 O 0.86942 0.64758 0.65906 0.0
O177 O 0.87656 0.65862 0.5456 0.0
O178 O 0.86125 0.64909 0.49209 0.0
O179 O 0.89447 0.69442 0.6579 0.0
O180 O 0.84158 0.69119 0.66647 0.0
C181 C 0.80905 0.65079 0.52907 0.0
C182 C 0.84733 0.70723 0.51589 0.0
C183 C 0.85942 0.63489 0.63667 0.0
C184 C 0.89244 0.69473 0.62272 0.0
C185 C 0.82548 0.69276 0.64413 0.0
C186 C 0.87764 0.6499 0.51367 0.0
O187 O 0.8263 0.6593 0.54563 0.0
O188 O 0.80943 0.65049 0.49366 0.0
O189 O 0.03772 0.10756 0.79999 0.0
Mn190 Mn 0.06814 0.103 0.8281 0.0
O191 O 0.03707 0.07855 0.76447 0.0
Mn192 Mn 0.06604 0.08453 0.75442 0.0
O193 O 0.09865 0.10062 0.85563 0.0
O194 O 0.05766 0.12716 0.86172 0.0
Mn195 Mn 0.06518 0.12118 0.9072 0.0
O196 O 0.05391 0.07896 0.86192 0.0
O197 O 0.09567 0.12097 0.90703 0.0
O198 O 0.08193 0.12676 0.79442 0.0
O199 O 0.07398 0.11276 0.73904 0.0
O200 O 0.04938 0.14742 0.90867 0.0
O201 O 0.05212 0.09419 0.91827 0.0
C202 C 0.08788 0.06193 0.77423 0.0
C203 C 0.02742 0.09531 0.77702 0.0
C204 C 0.10702 0.10992 0.8841 0.0
C205 C 0.04807 0.14484 0.87366 0.0
C206 C 0.04899 0.07817 0.89607 0.0
C207 C 0.08139 0.12812 0.75956 0.0
O208 O 0.08019 0.07789 0.79503 0.0
O209 O 0.08249 0.06168 0.73994 0.0
O210 O 0.63514 0.28547 0.05683 0.0
Mn211 Mn 0.63647 0.31723 0.0799 0.0
O212 O 0.63916 0.29368 0.99803 0.0
Mn213 Mn 0.64831 0.3223 0.0064 0.0
O214 O 0.63716 0.34906 0.10429 0.0
O215 O 0.61144 0.3079 0.11194 0.0
Mn216 Mn 0.61493 0.31662 0.15727 0.0
O217 O 0.65962 0.3054 0.11844 0.0
O218 O 0.61591 0.34726 0.15495 0.0
O219 O 0.61111 0.32831 0.04457 0.0
O220 O 0.62809 0.34413 0.9987 0.0
O221 O 0.5885 0.30084 0.15549 0.0
O222 O 0.64106 0.30332 0.17196 0.0
C223 C 0.67858 0.33146 0.0217 0.0
C224 C 0.63533 0.27986 0.02316 0.0
C225 C 0.62743 0.35813 0.13193 0.0
C226 C 0.59317 0.29853 0.12124 0.0
C227 C 0.65852 0.30053 0.15278 0.0
C228 C 0.61081 0.34126 0.017 0.0
O229 O 0.6637 0.32705 0.0474 0.0
O230 O 0.67419 0.32802 0.98745 0.0
O231 O 0.45261 0.88911 0.29879 0.0
Mn232 Mn 0.42208 0.89046 0.3273 0.0
O233 O 0.45002 0.91438 0.25544 0.0
Mn234 Mn 0.42037 0.90932 0.25367 0.0
O235 O 0.3916 0.89018 0.35568 0.0
O236 O 0.43466 0.86607 0.35903 0.0
Mn237 Mn 0.42702 0.87131 0.40483 0.0
O238 O 0.4352 0.91473 0.36205 0.0
O239 O 0.39663 0.86905 0.40557 0.0
O240 O 0.40931 0.86617 0.29279 0.0
O241 O 0.41101 0.88208 0.23752 0.0
O242 O 0.44403 0.84607 0.4061 0.0
O243 O 0.43861 0.89874 0.41742 0.0
C244 C 0.39975 0.93185 0.27672 0.0
C245 C 0.46145 0.90067 0.27321 0.0
C246 C 0.38415 0.87945 0.38349 0.0
C247 C 0.4449 0.84866 0.37105 0.0
C248 C 0.44064 0.91526 0.39598 0.0
C249 C 0.40652 0.86579 0.25813 0.0
O250 O 0.40841 0.9158 0.29637 0.0
O251 O 0.40375 0.93244 0.24191 0.0
O252 O 0.13521 0.28797 0.46096 0.0
Mn253 Mn 0.13888 0.3181 0.43348 0.0
O254 O 0.15062 0.29242 0.51627 0.0
Mn255 Mn 0.15373 0.32267 0.51208 0.0
O256 O 0.14149 0.34839 0.4056 0.0
O257 O 0.11465 0.3082 0.3998 0.0
Mn258 Mn 0.12206 0.31233 0.35387 0.0
O259 O 0.16327 0.30333 0.40023 0.0
O260 O 0.12748 0.34252 0.34921 0.0
O261 O 0.11395 0.33195 0.46579 0.0
O262 O 0.12875 0.33919 0.52063 0.0
O263 O 0.09348 0.30113 0.35366 0.0
O264 O 0.14611 0.29396 0.34767 0.0
C265 C 0.18107 0.33584 0.48527 0.0
C266 C 0.14135 0.28048 0.49211 0.0
C267 C 0.13596 0.35512 0.37351 0.0
C268 C 0.09573 0.30092 0.38878 0.0
C269 C 0.16269 0.29326 0.36915 0.0
C270 C 0.11286 0.34006 0.49807 0.0
O271 O 0.1637 0.32853 0.4677 0.0
O272 O 0.18043 0.33491 0.52063 0.0
O273 O 0.95414 0.89115 0.20893 0.0
Mn274 Mn 0.92337 0.891 0.18391 0.0
O275 O 0.94484 0.89328 0.26773 0.0
Mn276 Mn 0.91662 0.90447 0.26157 0.0
O277 O 0.8924 0.88975 0.15772 0.0
O278 O 0.93551 0.86703 0.15092 0.0
Mn279 Mn 0.92842 0.87285 0.10518 0.0
O280 O 0.93456 0.91596 0.14871 0.0
O281 O 0.89784 0.872 0.10418 0.0
O282 O 0.91255 0.86581 0.21971 0.0
O283 O 0.89521 0.88327 0.26526 0.0
O284 O 0.94393 0.84652 0.10421 0.0
O285 O 0.94114 0.89992 0.09409 0.0
C286 C 0.91415 0.93454 0.23204 0.0
C287 C 0.95894 0.89004 0.24276 0.0
C288 C 0.88523 0.88071 0.12811 0.0
C289 C 0.9445 0.84886 0.13932 0.0
C290 C 0.9414 0.9166 0.11548 0.0
C291 C 0.89979 0.86562 0.24791 0.0
O292 O 0.91053 0.91517 0.21733 0.0
O293 O 0.91644 0.93421 0.26717 0.0
O294 O 0.34978 0.70431 0.9613 0.0
Mn295 Mn 0.35069 0.67416 0.93447 0.0
O296 O 0.34978 0.6931 0.01883 0.0
Mn297 Mn 0.33713 0.66567 0.01025 0.0
O298 O 0.3527 0.64448 0.90414 0.0
O299 O 0.375 0.68783 0.90403 0.0
Mn300 Mn 0.36805 0.68548 0.85755 0.0
O301 O 0.32561 0.68604 0.89976 0.0
O302 O 0.36566 0.65532 0.84902 0.0
O303 O 0.37574 0.66246 0.97062 0.0
O304 O 0.35757 0.64364 0.01353 0.0
O305 O 0.39535 0.6991 0.85875 0.0
O306 O 0.34227 0.70123 0.85097 0.0
C307 C 0.3069 0.66367 0.98112 0.0
C308 C 0.35249 0.70801 0.99512 0.0
C309 C 0.35874 0.64036 0.87095 0.0
C310 C 0.39337 0.69698 0.89376 0.0
C311 C 0.32519 0.69759 0.8703 0.0
C312 C 0.37563 0.64919 0.99832 0.0
O313 O 0.32609 0.65988 0.96579 0.0
O314 O 0.30761 0.6668 0.01605 0.0
O315 O 0.53813 0.10243 0.71509 0.0
Mn316 Mn 0.56731 0.10235 0.68563 0.0
O317 O 0.55164 0.10614 0.77136 0.0
Mn318 Mn 0.57948 0.09408 0.76235 0.0
O319 O 0.59663 0.10297 0.65464 0.0
O320 O 0.55328 0.12469 0.6523 0.0
Mn321 Mn 0.55663 0.11706 0.60629 0.0
O322 O 0.55507 0.07569 0.65423 0.0
O323 O 0.58694 0.11559 0.59886 0.0
O324 O 0.57934 0.12961 0.71666 0.0
O325 O 0.60113 0.11511 0.75923 0.0
O326 O 0.54203 0.14407 0.60627 0.0
O327 O 0.5422 0.09028 0.6016 0.0
C328 C 0.57846 0.06218 0.73986 0.0
C329 C 0.53566 0.10662 0.74895 0.0
C330 C 0.60139 0.10871 0.62164 0.0
C331 C 0.54382 0.14268 0.6414 0.0
C332 C 0.54492 0.07407 0.62337 0.0
C333 C 0.59453 0.13176 0.74116 0.0
O334 O 0.58205 0.07973 0.71978 0.0
O335 O 0.57996 0.06522 0.77483 0.0
C336 C 0.41366 0.22199 0.07741 0.0
C337 C 0.41289 0.20105 0.09412 0.0
C338 C 0.43409 0.2312 0.06703 0.0
C339 C 0.48943 0.22959 0.10394 0.0
H340 H 0.50928 0.26308 0.01969 0.0
C341 C 0.57668 0.26275 0.10381 0.0
C342 C 0.57864 0.28553 0.09716 0.0
C343 C 0.55771 0.25126 0.09297 0.0
C344 C 0.50389 0.2538 0.0434 0.0
H345 H 0.43219 0.17258 0.11045 0.0
H346 H 0.46761 0.1883 0.09185 0.0
H347 H 0.47257 0.24513 0.01896 0.0
H348 H 0.56333 0.31395 0.07157 0.0
H349 H 0.5299 0.29384 0.05252 0.0
H350 H 0.51997 0.23854 0.12908 0.0
C351 C 0.45266 0.19773 0.0868 0.0
C352 C 0.48294 0.24357 0.04295 0.0
C353 C 0.43237 0.1886 0.09702 0.0
C354 C 0.56228 0.29625 0.07644 0.0
C355 C 0.54311 0.28475 0.06575 0.0
C356 C 0.51012 0.23978 0.10445 0.0
C357 C 0.45389 0.21959 0.0737 0.0
C358 C 0.4757 0.23104 0.07308 0.0
C359 C 0.54009 0.26243 0.07589 0.0
C360 C 0.51785 0.25171 0.07404 0.0
H361 H 0.39884 0.23204 0.07564 0.0
H362 H 0.43456 0.24809 0.057 0.0
H363 H 0.48403 0.2207 0.12807 0.0
H364 H 0.58897 0.25422 0.12014 0.0
H365 H 0.55615 0.23394 0.10041 0.0
C366 C 0.55403 0.68587 0.34625 0.0
C367 C 0.54259 0.66562 0.34592 0.0
C368 C 0.54325 0.70557 0.33728 0.0
C369 C 0.49571 0.73417 0.29842 0.0
H370 H 0.5012 0.77101 0.3849 0.0
C371 C 0.44568 0.81611 0.32905 0.0
C372 C 0.45715 0.83249 0.34876 0.0
C373 C 0.45608 0.79592 0.32029 0.0
C374 C 0.49973 0.76117 0.36025 0.0
H375 H 0.51133 0.64978 0.33352 0.0
H376 H 0.49238 0.68452 0.31683 0.0
H377 H 0.51907 0.73498 0.38315 0.0
H378 H 0.48863 0.84138 0.3727 0.0
H379 H 0.50701 0.80685 0.35628 0.0
H380 H 0.47635 0.76074 0.27553 0.0
C381 C 0.50978 0.68501 0.3239 0.0
C382 C 0.50989 0.74043 0.35936 0.0
C383 C 0.52066 0.66513 0.3331 0.0
C384 C 0.47957 0.82917 0.35687 0.0
C385 C 0.48995 0.8092 0.34802 0.0
C386 C 0.48554 0.75519 0.29921 0.0
C387 C 0.52073 0.70551 0.32785 0.0
C388 C 0.50838 0.72685 0.32828 0.0
C389 C 0.47803 0.79184 0.33141 0.0
C390 C 0.48785 0.76912 0.32993 0.0
H391 H 0.57079 0.68673 0.35672 0.0
H392 H 0.55212 0.72109 0.34034 0.0
H393 H 0.49418 0.72393 0.27422 0.0
H394 H 0.42818 0.81806 0.32347 0.0
H395 H 0.44641 0.78293 0.30748 0.0
C396 C 0.0587 0.8014 0.59948 0.0
C397 C 0.07804 0.78889 0.5946 0.0
C398 C 0.03797 0.79236 0.5913 0.0
C399 C 0.00642 0.7464 0.54876 0.0
H400 H 0.96981 0.75299 0.63506 0.0
C401 C 0.92496 0.69593 0.58032 0.0
C402 C 0.90868 0.70714 0.60061 0.0
C403 C 0.94496 0.70664 0.57128 0.0
C404 C 0.97954 0.75127 0.61037 0.0
H405 H 0.09106 0.75763 0.57521 0.0
H406 H 0.05465 0.74187 0.55984 0.0
H407 H 0.00588 0.77058 0.63294 0.0
H408 H 0.89975 0.7385 0.6251 0.0
H409 H 0.93383 0.75739 0.60816 0.0
H410 H 0.97981 0.72682 0.52643 0.0
C411 C 0.05556 0.75876 0.56987 0.0
C412 C 0.00033 0.76136 0.60922 0.0
C413 C 0.07642 0.76784 0.57831 0.0
C414 C 0.9119 0.7296 0.60897 0.0
C415 C 0.93164 0.74029 0.59981 0.0
C416 C 0.98537 0.73632 0.54982 0.0
C417 C 0.03606 0.77051 0.57818 0.0
C418 C 0.01397 0.75934 0.5783 0.0
C419 C 0.94895 0.72866 0.58261 0.0
C420 C 0.97153 0.73889 0.58053 0.0
H421 H 0.05945 0.81746 0.61279 0.0
H422 H 0.02331 0.80197 0.59758 0.0
H423 H 0.01662 0.74441 0.52465 0.0
H424 H 0.92307 0.67844 0.57431 0.0
H425 H 0.95787 0.69717 0.55795 0.0
C426 C 0.97173 0.32683 0.83151 0.0
C427 C 0.95047 0.32754 0.84701 0.0
C428 C 0.98139 0.30636 0.82231 0.0
C429 C 0.97982 0.251 0.85994 0.0
H430 H 0.01451 0.23117 0.77699 0.0
C431 C 0.01282 0.16325 0.85962 0.0
C432 C 0.03533 0.16065 0.85157 0.0
C433 C 0.00175 0.18269 0.8501 0.0
C434 C 0.00496 0.23656 0.8004 0.0
H435 H 0.92206 0.30794 0.86271 0.0
H436 H 0.93859 0.27244 0.84619 0.0
H437 H -0.00357 0.26778 0.77547 0.0
H438 H 0.06375 0.17559 0.82541 0.0
H439 H 0.04437 0.20993 0.80868 0.0
H440 H 0.98862 0.22055 0.8856 0.0
C441 C 0.9479 0.2875 0.84115 0.0
C442 C 0.99461 0.25747 0.79948 0.0
C443 C 0.93832 0.30783 0.85016 0.0
C444 C 0.04623 0.1771 0.83123 0.0
C445 C 0.03515 0.19679 0.82191 0.0
C446 C 0.99017 0.23037 0.86096 0.0
C447 C 0.96995 0.28643 0.82901 0.0
C448 C 0.9816 0.26468 0.82907 0.0
C449 C 0.01308 0.20024 0.83299 0.0
C450 C 0.00255 0.22262 0.83102 0.0
H451 H 0.98159 0.34181 0.82969 0.0
H452 H -0.00158 0.30603 0.81306 0.0
H453 H 0.97052 0.25637 0.88366 0.0
H454 H 0.00419 0.1509 0.87574 0.0
H455 H 0.9846 0.18452 0.85822 0.0
C456 C 0.56462 0.79637 0.93457 0.0
C457 C 0.58116 0.78496 0.91518 0.0
C458 C 0.54455 0.78572 0.94331 0.0
C459 C 0.51038 0.74126 0.90378 0.0
H460 H 0.47291 0.7472 0.98925 0.0
C461 C 0.43183 0.69038 0.9124 0.0
C462 C 0.41231 0.70256 0.91743 0.0
C463 C 0.45238 0.69958 0.92116 0.0
C464 C 0.48321 0.74549 0.9652 0.0
H465 H 0.59043 0.75338 0.89184 0.0
H466 H 0.55613 0.73464 0.90811 0.0
H467 H 0.50965 0.76503 0.98824 0.0
H468 H 0.39874 0.73334 0.93789 0.0
H469 H 0.43487 0.74942 0.95419 0.0
H470 H 0.48424 0.72204 0.88045 0.0
C471 C 0.55825 0.7518 0.91615 0.0
C472 C 0.50421 0.75569 0.96459 0.0
C473 C 0.57809 0.76241 0.90737 0.0
C474 C 0.41354 0.7234 0.93456 0.0
C475 C 0.43424 0.73266 0.94354 0.0
C476 C 0.48964 0.73109 0.90445 0.0
C477 C 0.54076 0.76359 0.93249 0.0
C478 C 0.51819 0.75339 0.93401 0.0
C479 C 0.45394 0.72129 0.93498 0.0
C480 C 0.47587 0.73275 0.93529 0.0
H481 H 0.5664 0.81394 0.94008 0.0
H482 H 0.53146 0.79529 0.95592 0.0
H483 H 0.52027 0.73976 0.87922 0.0
H484 H 0.43137 0.67448 0.89855 0.0
H485 H 0.4672 0.69024 0.91475 0.0
C486 C 0.47993 0.32868 0.65785 0.0
C487 C 0.45732 0.33135 0.66515 0.0
C488 C 0.49075 0.30897 0.66695 0.0
C489 C 0.48665 0.25425 0.71405 0.0
H490 H 0.52016 0.23494 0.62947 0.0
C491 C 0.51745 0.16334 0.68159 0.0
C492 C 0.53819 0.16194 0.66437 0.0
C493 C 0.50854 0.18414 0.69098 0.0
C494 C 0.51117 0.24015 0.65361 0.0
H495 H 0.4285 0.31611 0.68954 0.0
H496 H 0.44746 0.28153 0.70596 0.0
H497 H 0.5031 0.2713 0.62951 0.0
H498 H 0.56646 0.18074 0.64566 0.0
H499 H 0.55133 0.21676 0.66259 0.0
H500 H 0.4945 0.22244 0.73752 0.0
C501 C 0.45695 0.29478 0.69359 0.0
C502 C 0.50139 0.26109 0.65368 0.0
C503 C 0.44612 0.31468 0.68456 0.0
C504 C 0.5506 0.18136 0.65948 0.0
C505 C 0.54177 0.20201 0.6687 0.0
C506 C 0.49649 0.23307 0.71393 0.0
C507 C 0.4791 0.29126 0.68302 0.0
C508 C 0.48928 0.26865 0.68405 0.0
C509 C 0.52018 0.20378 0.68275 0.0
C510 C 0.50916 0.22594 0.68385 0.0
H511 H 0.48881 0.3411 0.64227 0.0
H512 H 0.50793 0.30705 0.65913 0.0
H513 H 0.47729 0.25948 0.73776 0.0
H514 H 0.50738 0.1486 0.68491 0.0
H515 H 0.49187 0.18494 0.70181 0.0
C516 C 0.914 0.22868 0.41649 0.0
C517 C 0.91259 0.20562 0.42063 0.0
C518 C 0.93344 0.23995 0.42566 0.0
C519 C 0.98921 0.23743 0.46776 0.0
H520 H 0.00546 0.27062 0.38114 0.0
C521 C 0.07759 0.27319 0.42982 0.0
C522 C 0.07721 0.29388 0.4122 0.0
C523 C 0.05766 0.26291 0.44039 0.0
C524 C 0.00111 0.26172 0.40581 0.0
H525 H 0.92957 0.17644 0.44034 0.0
H526 H 0.96361 0.19627 0.45724 0.0
H527 H 0.96982 0.25218 0.38376 0.0
H528 H 0.05627 0.32074 0.39413 0.0
H529 H 0.0218 0.30333 0.41332 0.0
H530 H 0.02104 0.24698 0.48937 0.0
C531 C 0.94966 0.20566 0.44701 0.0
C532 C 0.98062 0.25115 0.40733 0.0
C533 C 0.93011 0.19433 0.43766 0.0
C534 C 0.05698 0.30492 0.40811 0.0
C535 C 0.03724 0.2948 0.41869 0.0
C536 C 0.00992 0.24816 0.46625 0.0
C537 C 0.95197 0.22836 0.43896 0.0
C538 C 0.97417 0.23921 0.43851 0.0
C539 C 0.0372 0.27319 0.4331 0.0
C540 C 0.01587 0.26079 0.43544 0.0
H541 H 0.90091 0.23767 0.40273 0.0
H542 H 0.93459 0.25751 0.41964 0.0
H543 H 0.98479 0.22811 0.49196 0.0
H544 H 0.09299 0.26414 0.43244 0.0
H545 H 0.05819 0.24627 0.45146 0.0
C546 C 0.01288 0.66391 0.1589 0.0
C547 C 0.03561 0.66199 0.16601 0.0
C548 C 0.00153 0.68343 0.16751 0.0
C549 C 0.00479 0.73896 0.21288 0.0
H550 H 0.97003 0.75653 0.12873 0.0
C551 C 0.97282 0.82911 0.1773 0.0
C552 C 0.95147 0.82999 0.16215 0.0
C553 C 0.98227 0.80855 0.1868 0.0
C554 C 0.97941 0.75181 0.15272 0.0
H555 H 0.06403 0.67834 0.18971 0.0
H556 H 0.04417 0.71253 0.2053 0.0
H557 H 0.98745 0.72031 0.12968 0.0
H558 H 0.92288 0.81051 0.14679 0.0
H559 H 0.93905 0.77496 0.16361 0.0
H560 H -0.00299 0.77112 0.23522 0.0
C561 C 0.035 0.69888 0.19339 0.0
C562 C 0.98936 0.73093 0.15336 0.0
C563 C 0.04637 0.67922 0.18479 0.0
C564 C 0.9392 0.81032 0.1591 0.0
C565 C 0.94859 0.78992 0.16827 0.0
C566 C 0.99482 0.76007 0.21216 0.0
C567 C 0.01272 0.70166 0.18297 0.0
C568 C 0.00198 0.72403 0.18357 0.0
C569 C 0.97059 0.78865 0.1806 0.0
C570 C 0.98177 0.76659 0.1822 0.0
H571 H 0.00431 0.65104 0.14377 0.0
H572 H 0.98426 0.68476 0.15983 0.0
H573 H 0.01448 0.73424 0.2365 0.0
H574 H 0.98281 0.844 0.17902 0.0
H575 H -0.00074 0.80811 0.19621 0.0
C576 C 0.14349 0.12806 0.88484 0.0
C577 C 0.13089 0.10894 0.891 0.0
C578 C 0.16383 0.13092 0.90229 0.0
C579 C 0.19199 0.11215 0.98689 0.0
H580 H 0.23822 0.15123 0.95168 0.0
C581 C 0.27981 0.12891 0.04818 0.0
C582 C 0.2874 0.15084 0.04503 0.0
C583 C 0.25836 0.12331 0.03689 0.0
C584 C 0.22526 0.1405 0.962 0.0
H585 H 0.13001 0.07707 0.91793 0.0
H586 H 0.1662 0.08143 0.94723 0.0
H587 H 0.20897 0.13952 0.91027 0.0
H588 H 0.27758 0.18459 0.03359 0.0
H589 H 0.24016 0.17494 0.01416 0.0
H590 H 0.2092 0.11253 0.03832 0.0
C591 C 0.16019 0.09458 0.92975 0.0
C592 C 0.20848 0.13372 0.93824 0.0
C593 C 0.13969 0.09183 0.91243 0.0
C594 C 0.27207 0.16758 0.03672 0.0
C595 C 0.25078 0.162 0.02481 0.0
C596 C 0.2091 0.11859 0.01048 0.0
C597 C 0.17201 0.11466 0.92637 0.0
C598 C 0.19135 0.11974 0.95045 0.0
C599 C 0.24438 0.13965 0.02232 0.0
C600 C 0.22565 0.13316 0.99841 0.0
H601 H 0.13675 0.14161 0.86889 0.0
H602 H 0.17218 0.14668 0.899 0.0
H603 H 0.17896 0.1017 0.99764 0.0
H604 H 0.2914 0.11565 0.05395 0.0
H605 H 0.25377 0.10596 0.03543 0.0
C606 C 0.61483 0.39751 0.13218 0.0
C607 C 0.63106 0.38172 0.14072 0.0
C608 C 0.61491 0.41836 0.1493 0.0
C609 C 0.63328 0.444 0.23601 0.0
H610 H 0.61433 0.49878 0.19057 0.0
C611 C 0.59357 0.5195 0.30987 0.0
C612 C 0.59746 0.54065 0.29512 0.0
C613 C 0.60384 0.50073 0.29482 0.0
C614 C 0.61998 0.4837 0.20361 0.0
H615 H 0.66026 0.37527 0.17312 0.0
H616 H 0.66075 0.41171 0.20253 0.0
H617 H 0.61953 0.46562 0.15308 0.0
H618 H 0.6179 0.55904 0.25727 0.0
H619 H 0.63582 0.52646 0.23105 0.0
H620 H 0.63304 0.46198 0.28671 0.0
C621 C 0.64791 0.40814 0.18273 0.0
C622 C 0.62271 0.4646 0.18214 0.0
C623 C 0.64788 0.3874 0.16545 0.0
C624 C 0.61473 0.54301 0.26959 0.0
C625 C 0.62456 0.52425 0.25379 0.0
C626 C 0.63031 0.46303 0.25752 0.0
C627 C 0.63103 0.42366 0.17579 0.0
C628 C 0.6293 0.44444 0.19806 0.0
C629 C 0.61814 0.50284 0.26467 0.0
C630 C 0.62354 0.4831 0.24163 0.0
H631 H 0.60137 0.39326 0.11392 0.0
H632 H 0.60155 0.42977 0.14343 0.0
H633 H 0.63802 0.42872 0.2494 0.0
H634 H 0.58019 0.51708 0.32919 0.0
H635 H 0.59868 0.48448 0.30411 0.0
C636 C 0.35062 0.85749 0.39675 0.0
C637 C 0.36026 0.8784 0.39124 0.0
C638 C 0.33017 0.85553 0.4141 0.0
C639 C 0.28061 0.88482 0.44772 0.0
H640 H 0.28462 0.84228 0.52694 0.0
C641 C 0.20688 0.87406 0.54311 0.0
C642 C 0.20056 0.85186 0.54807 0.0
C643 C 0.22824 0.87927 0.53099 0.0
C644 C 0.28304 0.85411 0.50489 0.0
H645 H 0.35554 0.91378 0.39709 0.0
H646 H 0.31945 0.91043 0.42769 0.0
H647 H 0.31553 0.84677 0.48511 0.0
H648 H 0.21265 0.81824 0.55131 0.0
H649 H 0.24969 0.82699 0.53053 0.0
H650 H 0.24782 0.89161 0.46647 0.0
C651 C 0.32772 0.89554 0.41834 0.0
C652 C 0.3008 0.85666 0.48078 0.0
C653 C 0.34828 0.8975 0.40069 0.0
C654 C 0.21709 0.83554 0.5479 0.0
C655 C 0.23836 0.8406 0.53515 0.0
C656 C 0.26266 0.88206 0.47156 0.0
C657 C 0.31901 0.87446 0.42676 0.0
C658 C 0.29978 0.87194 0.45182 0.0
C659 C 0.24366 0.86231 0.52383 0.0
C660 C 0.26358 0.86662 0.50052 0.0
H661 H 0.35958 0.84254 0.38958 0.0
H662 H 0.32363 0.8391 0.41933 0.0
H663 H 0.27928 0.89663 0.42556 0.0
H664 H 0.19445 0.88701 0.54303 0.0
H665 H 0.23196 0.89634 0.5242 0.0
C666 C 0.88151 0.60127 0.64672 0.0
C667 C 0.86056 0.61104 0.64452 0.0
C668 C 0.88431 0.58083 0.6638 0.0
C669 C 0.85576 0.54442 0.73212 0.0
H670 H 0.90829 0.50886 0.71645 0.0
C671 C 0.87427 0.45687 0.79083 0.0
C672 C 0.89669 0.45133 0.79526 0.0
C673 C 0.86823 0.47836 0.78042 0.0
C674 C 0.89372 0.51884 0.72159 0.0
H675 H 0.82574 0.6067 0.65598 0.0
H676 H 0.83023 0.57017 0.68426 0.0
H677 H 0.89972 0.53846 0.67439 0.0
H678 H 0.92981 0.46464 0.79935 0.0
H679 H 0.9193 0.50232 0.78243 0.0
H680 H 0.84925 0.52335 0.77822 0.0
C681 C 0.84478 0.57857 0.674 0.0
C682 C 0.88872 0.53596 0.69734 0.0
C683 C 0.84205 0.59929 0.65712 0.0
C684 C 0.91238 0.46848 0.79628 0.0
C685 C 0.90642 0.48996 0.78568 0.0
C686 C 0.8605 0.52682 0.7559 0.0
C687 C 0.86613 0.56946 0.67905 0.0
C688 C 0.86991 0.54942 0.70255 0.0
C689 C 0.88457 0.49458 0.77476 0.0
C690 C 0.87977 0.51412 0.75129 0.0
H691 H 0.89602 0.61018 0.63732 0.0
H692 H 0.90107 0.57491 0.66708 0.0
H693 H 0.84126 0.55437 0.73768 0.0
H694 H 0.86187 0.44389 0.78952 0.0
H695 H 0.85122 0.48142 0.77253 0.0
C696 C 0.71845 0.83731 0.96016 0.0
C697 C 0.70058 0.85149 0.96683 0.0
C698 C 0.73972 0.84322 0.97177 0.0
C699 C 0.76464 0.885 0.03842 0.0
H700 H 0.81403 0.84437 0.03193 0.0
C701 C 0.85007 0.89866 0.10859 0.0
C702 C 0.8614 0.87971 0.12043 0.0
C703 C 0.82954 0.89658 0.09106 0.0
C704 C 0.80027 0.85579 0.03435 0.0
H705 H 0.69158 0.88499 0.98127 0.0
H706 H 0.72879 0.89666 0.99627 0.0
H707 H 0.78373 0.84052 0.99001 0.0
H708 H 0.85988 0.84403 0.12576 0.0
H709 H 0.82373 0.84038 0.09642 0.0
H710 H 0.78236 0.90071 0.08217 0.0
C711 C 0.7265 0.87984 0.98681 0.0
C712 C 0.78255 0.85361 0.01003 0.0
C713 C 0.70509 0.87353 0.97647 0.0
C714 C 0.85129 0.85887 0.11699 0.0
C715 C 0.83076 0.85678 0.09978 0.0
C716 C 0.78269 0.88749 0.0621 0.0
C717 C 0.74371 0.864 0.98859 0.0
C718 C 0.76411 0.86797 0.01171 0.0
C719 C 0.82012 0.8755 0.08509 0.0
C720 C 0.80059 0.87276 0.06064 0.0
H721 H 0.71545 0.82023 0.95228 0.0
H722 H 0.75211 0.83038 0.97069 0.0
H723 H 0.75097 0.89626 0.04228 0.0
H724 H 0.85782 0.91484 0.11038 0.0
H725 H 0.82182 0.91131 0.07997 0.0
C726 C 0.36177 0.59855 0.8773 0.0
C727 C 0.35807 0.61753 0.85583 0.0
C728 C 0.36503 0.57777 0.86047 0.0
C729 C 0.38497 0.55611 0.7721 0.0
H730 H 0.36181 0.49924 0.80291 0.0
C731 C 0.41839 0.47245 0.71895 0.0
C732 C 0.40431 0.45396 0.71926 0.0
C733 C 0.41068 0.49319 0.73042 0.0
C734 C 0.36815 0.51506 0.79359 0.0
H735 H 0.35267 0.62915 0.80042 0.0
H736 H 0.35805 0.59346 0.77173 0.0
H737 H 0.35204 0.53278 0.83716 0.0
H738 H 0.37047 0.4432 0.72702 0.0
H739 H 0.35669 0.47956 0.74557 0.0
H740 H 0.40083 0.53878 0.72843 0.0
C741 C 0.3592 0.59451 0.80122 0.0
C742 C 0.36282 0.53419 0.81363 0.0
C743 C 0.35601 0.61501 0.81779 0.0
C744 C 0.38163 0.45727 0.72586 0.0
C745 C 0.37389 0.47798 0.73766 0.0
C746 C 0.39024 0.5371 0.75213 0.0
C747 C 0.3646 0.5758 0.82206 0.0
C748 C 0.371 0.55498 0.80282 0.0
C749 C 0.38865 0.49584 0.74225 0.0
C750 C 0.38186 0.5163 0.76242 0.0
H751 H 0.36334 0.59997 0.90669 0.0
H752 H 0.36897 0.56355 0.87731 0.0
H753 H 0.3919 0.57181 0.7634 0.0
H754 H 0.43601 0.47027 0.71468 0.0
H755 H 0.42258 0.5065 0.73338 0.0
C756 C 0.62822 0.10381 0.5708 0.0
C757 C 0.6245 0.10749 0.60821 0.0
C758 C 0.6494 0.10551 0.55603 0.0
C759 C 0.70233 0.13382 0.57217 0.0
H760 H 0.72104 0.09922 0.4881 0.0
C761 C 0.7879 0.13564 0.49657 0.0
C762 C 0.78676 0.15465 0.47425 0.0
C763 C 0.76865 0.12595 0.51048 0.0
C764 C 0.71594 0.10895 0.51153 0.0
H765 H 0.64033 0.11475 0.65994 0.0
H766 H 0.67775 0.11775 0.63401 0.0
H767 H 0.68756 0.08858 0.52164 0.0
H768 H 0.76461 0.17713 0.44651 0.0
H769 H 0.73066 0.15904 0.46879 0.0
H770 H 0.73081 0.15418 0.56168 0.0
C771 C 0.66407 0.11373 0.61606 0.0
C772 C 0.69682 0.10294 0.53075 0.0
C773 C 0.64271 0.11183 0.631 0.0
C774 C 0.76594 0.16223 0.46285 0.0
C775 C 0.7466 0.15215 0.47611 0.0
C776 C 0.72142 0.13981 0.55289 0.0
C777 C 0.66757 0.11102 0.57819 0.0
C778 C 0.6895 0.11555 0.56091 0.0
C779 C 0.74791 0.13468 0.50141 0.0
C780 C 0.72811 0.12766 0.52208 0.0
H781 H 0.61456 0.10021 0.55255 0.0
H782 H 0.65129 0.10354 0.52679 0.0
H783 H 0.69716 0.14404 0.59496 0.0
H784 H 0.80373 0.13001 0.507 0.0
H785 H 0.77002 0.11274 0.53041 0.0
C786 C 0.15077 0.38443 0.33285 0.0
C787 C 0.13829 0.37868 0.36369 0.0
C788 C 0.14861 0.4054 0.31706 0.0
C789 C 0.12283 0.46152 0.32767 0.0
H790 H 0.11972 0.45813 0.22186 0.0
C791 C 0.10658 0.53853 0.23816 0.0
C792 C 0.08647 0.53669 0.21889 0.0
C793 C 0.11664 0.51974 0.25318 0.0
C794 C 0.12066 0.45934 0.25135 0.0
H795 H 0.11448 0.39043 0.40332 0.0
H796 H 0.11014 0.42701 0.37525 0.0
H797 H 0.13034 0.42548 0.25685 0.0
H798 H 0.06264 0.51355 0.19676 0.0
H799 H 0.08151 0.48043 0.21978 0.0
H800 H 0.11241 0.49538 0.32174 0.0
C801 C 0.12206 0.41561 0.36363 0.0
C802 C 0.12695 0.4407 0.27152 0.0
C803 C 0.12455 0.39468 0.37985 0.0
C804 C 0.0784 0.51544 0.21056 0.0
C805 C 0.08895 0.49653 0.22447 0.0
C806 C 0.11671 0.48026 0.30737 0.0
C807 C 0.13342 0.42091 0.33113 0.0
C808 C 0.12801 0.44143 0.30999 0.0
C809 C 0.10737 0.49865 0.24774 0.0
C810 C 0.11543 0.47928 0.269 0.0
H811 H 0.1614 0.37228 0.31989 0.0
H812 H 0.15816 0.40908 0.29277 0.0
H813 H 0.12345 0.46278 0.35716 0.0
H814 H 0.11281 0.55471 0.24607 0.0
H815 H 0.13088 0.52182 0.27085 0.0
C816 C 0.64195 0.63113 0.38897 0.0
C817 C 0.63138 0.61045 0.38688 0.0
C818 C 0.66195 0.63351 0.40754 0.0
C819 C 0.69455 0.60555 0.48082 0.0
H820 H 0.73453 0.65457 0.4624 0.0
C821 C 0.78243 0.62149 0.54176 0.0
C822 C 0.78834 0.64387 0.5465 0.0
C823 C 0.76099 0.61581 0.53053 0.0
C824 C 0.7233 0.641 0.46821 0.0
H825 H 0.63407 0.57569 0.40044 0.0
H826 H 0.66999 0.57942 0.43111 0.0
H827 H 0.70535 0.64641 0.41891 0.0
H828 H 0.77559 0.67725 0.55023 0.0
H829 H 0.73813 0.66741 0.53124 0.0
H830 H 0.71374 0.5996 0.52936 0.0
C831 C 0.66245 0.59405 0.41941 0.0
C832 C 0.7065 0.63625 0.44318 0.0
C833 C 0.64213 0.59174 0.40104 0.0
C834 C 0.77147 0.65986 0.54697 0.0
C835 C 0.75012 0.65428 0.53524 0.0
C836 C 0.71178 0.61002 0.5055 0.0
C837 C 0.67215 0.61518 0.42437 0.0
C838 C 0.69157 0.61867 0.44928 0.0
C839 C 0.74523 0.63247 0.52421 0.0
C840 C 0.72609 0.62803 0.49973 0.0
H841 H 0.63372 0.64589 0.37892 0.0
H842 H 0.66843 0.65013 0.41087 0.0
H843 H 0.6833 0.5921 0.48704 0.0
H844 H 0.79516 0.60885 0.54085 0.0
H845 H 0.75766 0.59883 0.52249 0.0
C846 C 0.08739 0.02437 0.7977 0.0
C847 C 0.10015 0.04276 0.78753 0.0
C848 C 0.09376 0.00306 0.78696 0.0
C849 C 0.12727 0.97809 0.71246 0.0
H850 H 0.1074 0.92322 0.75639 0.0
C851 C 0.12779 0.89271 0.6366 0.0
C852 C 0.13214 0.87404 0.65838 0.0
C853 C 0.12555 0.91372 0.65279 0.0
C854 C 0.11338 0.93835 0.74386 0.0
H855 H 0.13116 0.05327 0.76378 0.0
H856 H 0.14338 0.01599 0.74793 0.0
H857 H 0.10292 0.95769 0.78952 0.0
H858 H 0.1394 0.86287 0.71333 0.0
H859 H 0.13651 0.89922 0.74106 0.0
H860 H 0.13843 0.95841 0.66725 0.0
C861 C 0.12777 0.01795 0.76209 0.0
C862 C 0.11052 0.95823 0.76276 0.0
C863 C 0.12116 0.03927 0.7723 0.0
C864 C 0.1356 0.87691 0.69598 0.0
C865 C 0.13374 0.89776 0.71193 0.0
C866 C 0.13045 0.95808 0.69374 0.0
C867 C 0.11337 -0.00019 0.7668 0.0
C868 C 0.11752 0.97841 0.74749 0.0
C869 C 0.12793 0.91633 0.69089 0.0
C870 C 0.12375 0.93792 0.70942 0.0
H871 H 0.07091 0.02671 0.80881 0.0
H872 H 0.08217 0.98963 0.7913 0.0
H873 H 0.13223 0.99333 0.69914 0.0
H874 H 0.12505 0.8909 0.6075 0.0
H875 H 0.12112 0.92768 0.63572 0.0
C876 C 0.71836 0.33135 0.03876 0.0
C877 C 0.6994 0.34322 0.02848 0.0
C878 C 0.73939 0.33888 0.02809 0.0
C879 C 0.76931 0.3523 0.95793 0.0
H880 H 0.80277 0.40338 0.99104 0.0
C881 C 0.8469 0.38169 0.87941 0.0
C882 C 0.86513 0.38627 0.90195 0.0
C883 C 0.82566 0.37971 0.89472 0.0
C884 C 0.79371 0.389 0.98146 0.0
H885 H 0.68746 0.3726 1.0008 0.0
H886 H 0.72401 0.38586 0.98303 0.0
H887 H 0.76943 0.39211 0.02404 0.0
H888 H 0.87536 0.39438 0.95711 0.0
H889 H 0.83893 0.39072 0.9836 0.0
H890 H 0.79339 0.34897 0.91542 0.0
C891 C 0.72273 0.37105 0.99966 0.0
C892 C 0.7747 0.38258 1.00048 0.0
C893 C 0.70189 0.36362 0.01036 0.0
C894 C 0.86159 0.39057 0.93918 0.0
C895 C 0.84058 0.38864 0.95435 0.0
C896 C 0.7883 0.35872 0.9388 0.0
C897 C 0.74151 0.3583 0.00715 0.0
C898 C 0.76253 0.36407 0.98907 0.0
C899 C 0.82242 0.38243 0.93266 0.0
C900 C 0.8009 0.37705 0.95053 0.0
H901 H 0.71681 0.31527 0.05169 0.0
H902 H 0.75381 0.32886 0.03411 0.0
H903 H 0.75977 0.33826 0.94822 0.0
H904 H 0.84922 0.37834 0.85059 0.0
H905 H 0.81195 0.37535 0.87706 0.0
C906 C 0.39898 0.96909 0.3018 0.0
C907 C 0.38685 0.95032 0.29127 0.0
C908 C 0.39219 0.99019 0.29057 0.0
C909 C 0.36238 0.01269 0.2115 0.0
H910 H 0.37633 0.06926 0.25608 0.0
C911 C 0.34607 0.09992 0.14558 0.0
C912 C 0.3625 0.11587 0.15253 0.0
C913 C 0.34762 0.07876 0.16151 0.0
C914 C 0.37247 0.05356 0.24314 0.0
H915 H 0.35622 0.93902 0.26702 0.0
H916 H 0.34369 0.97584 0.24919 0.0
H917 H 0.37903 0.03555 0.29226 0.0
H918 H 0.39454 0.12151 0.17768 0.0
H919 H 0.39733 0.08494 0.20462 0.0
H920 H 0.35613 0.03088 0.16214 0.0
C921 C 0.35897 0.97433 0.26448 0.0
C922 C 0.37395 0.03425 0.26397 0.0
C923 C 0.36581 0.95329 0.27571 0.0
C924 C 0.38126 0.10978 0.17285 0.0
C925 C 0.38287 0.08883 0.18835 0.0
C926 C 0.36082 0.03208 0.19064 0.0
C927 C 0.37291 0.99275 0.26935 0.0
C928 C 0.36911 0.01354 0.24839 0.0
C929 C 0.36566 0.07341 0.18428 0.0
C930 C 0.36615 0.05269 0.20616 0.0
H931 H 0.4154 0.96723 0.31335 0.0
H932 H 0.40331 0.00402 0.29508 0.0
H933 H 0.35905 -0.00306 0.19832 0.0
H934 H 0.33159 0.10414 0.1296 0.0
H935 H 0.33422 0.06705 0.15758 0.0
C936 C 0.20657 0.36618 0.47266 0.0
C937 C 0.20173 0.34354 0.46872 0.0
C938 C 0.22781 0.37301 0.48306 0.0
C939 C 0.28454 0.35174 0.50717 0.0
H940 H 0.27869 0.39333 0.58764 0.0
C941 C 0.34974 0.3549 0.61867 0.0
C942 C 0.35943 0.37575 0.62467 0.0
C943 C 0.32964 0.3531 0.60021 0.0
C944 C 0.2806 0.38183 0.56511 0.0
H945 H 0.21589 0.31071 0.46648 0.0
H946 H 0.25272 0.32228 0.48431 0.0
H947 H 0.24754 0.38721 0.54643 0.0
H948 H 0.35504 0.41117 0.61886 0.0
H949 H 0.31941 0.40808 0.58667 0.0
H950 H 0.31726 0.34565 0.52709 0.0
C951 C 0.24042 0.33502 0.47981 0.0
C952 C 0.26284 0.37844 0.54111 0.0
C953 C 0.21925 0.32832 0.4689 0.0
C954 C 0.3477 0.39494 0.61494 0.0
C955 C 0.32745 0.39314 0.59629 0.0
C956 C 0.30212 0.35489 0.53143 0.0
C957 C 0.2445 0.35725 0.48977 0.0
C958 C 0.26444 0.3631 0.51203 0.0
C959 C 0.31888 0.37213 0.58713 0.0
C960 C 0.30023 0.3697 0.56097 0.0
H961 H 0.19329 0.37825 0.47294 0.0
H962 H 0.23053 0.3904 0.48902 0.0
H963 H 0.28665 0.3401 0.48489 0.0
H964 H 0.35853 0.33988 0.62595 0.0
H965 H 0.32314 0.33673 0.59433 0.0
C966 C 0.86444 0.09495 0.38391 0.0
C967 C 0.85655 0.11355 0.3649 0.0
C968 C 0.86651 0.07444 0.36581 0.0
C969 C 0.87842 0.05548 0.27333 0.0
H970 H 0.86369 -0.00368 0.30655 0.0
C971 C 0.91741 0.97415 0.21885 0.0
C972 C 0.90408 0.95507 0.21855 0.0
C973 C 0.90872 0.99451 0.23037 0.0
C974 C 0.86766 0.01279 0.2967 0.0
H975 H 0.84294 0.12507 0.31361 0.0
H976 H 0.84632 0.08957 0.28246 0.0
H977 H 0.8533 0.02851 0.34386 0.0
H978 H 0.87062 0.94291 0.22514 0.0
H979 H 0.85534 0.97845 0.2448 0.0
H980 H 0.89324 0.0399 0.22672 0.0
C981 C 0.85118 0.09068 0.3109 0.0
C982 C 0.86193 0.03114 0.31829 0.0
C983 C 0.84903 0.11093 0.32886 0.0
C984 C 0.88121 0.95742 0.22451 0.0
C985 C 0.87258 0.97765 0.23677 0.0
C986 C 0.88439 0.03718 0.25205 0.0
C987 C 0.86088 0.07251 0.32855 0.0
C988 C 0.86712 0.05269 0.30665 0.0
C989 C 0.88657 0.99602 0.24197 0.0
C990 C 0.87898 0.01562 0.26334 0.0
H991 H 0.8706 0.09668 0.41156 0.0
H992 H 0.87397 0.06062 0.38011 0.0
H993 H 0.88295 0.0719 0.26392 0.0
H994 H 0.93514 0.97272 0.21502 0.0
H995 H 0.91991 0.0084 0.2338 0.0
C996 C 0.14689 0.61856 0.13607 0.0
C997 C 0.12969 0.60589 0.12091 0.0
C998 C 0.16722 0.6205 0.11767 0.0
C999 C 0.18743 0.62066 0.02343 0.0
H1000 H 0.24618 0.6208 0.06584 0.0
C1001 C 0.26702 0.66406 0.96726 0.0
C1002 C 0.28673 0.65184 0.96993 0.0
C1003 C 0.24692 0.65489 0.97911 0.0
C1004 C 0.22986 0.6206 0.05358 0.0
H1005 H 0.12038 0.5846 0.07584 0.0
H1006 H 0.15579 0.58764 0.04414 0.0
H1007 H 0.21418 0.61125 0.10395 0.0
H1008 H 0.30049 0.61973 0.98325 0.0
H1009 H 0.2656 0.60389 1.00451 0.0
H1010 H 0.20306 0.63087 0.97346 0.0
C1011 C 0.15371 0.59613 0.07001 0.0
C1012 C 0.21157 0.61531 0.07546 0.0
C1013 C 0.13358 0.5941 0.08844 0.0
C1014 C 0.28548 0.62937 0.98006 0.0
C1015 C 0.26559 0.62045 0.99305 0.0
C1016 C 0.20567 0.62636 1.00177 0.0
C1017 C 0.17045 0.61006 0.08361 0.0
C1018 C 0.19014 0.61519 0.06059 0.0
C1019 C 0.24642 0.63354 0.99453 0.0
C1020 C 0.22707 0.62629 0.01657 0.0
H1021 H 0.14404 0.62831 0.1605 0.0
H1022 H 0.17979 0.63142 0.12877 0.0
H1023 H 0.17108 0.62105 0.01129 0.0
H1024 H 0.26757 0.68152 0.96031 0.0
H1025 H 0.23232 0.66529 0.97976 0.0
C1026 C 0.56658 0.02352 0.74067 0.0
C1027 C 0.58183 0.03922 0.7276 0.0
C1028 C 0.57368 0.00244 0.75122 0.0
C1029 C 0.61679 0.96037 0.75358 0.0
H1030 H 0.60578 0.9599 0.85801 0.0
C1031 C 0.64731 0.88731 0.84199 0.0
C1032 C 0.63276 0.87992 0.86926 0.0
C1033 C 0.64411 0.90794 0.8252 0.0
C1034 C 0.60878 0.95945 0.82887 0.0
H1035 H 0.61569 0.04415 0.71026 0.0
H1036 H 0.62796 0.00677 0.72713 0.0
H1037 H 0.59224 0.99049 0.82106 0.0
H1038 H 0.60395 0.8883 0.90128 0.0
H1039 H 0.59781 0.92386 0.87176 0.0
H1040 H 0.63241 0.92887 0.76082 0.0
C1041 C 0.61061 0.01098 0.72988 0.0
C1042 C 0.60105 0.97709 0.8077 0.0
C1043 C 0.6035 0.03226 0.71962 0.0
C1044 C 0.61566 0.89391 0.88085 0.0
C1045 C 0.61219 0.91435 0.86371 0.0
C1046 C 0.62413 0.94239 0.77467 0.0
C1047 C 0.59608 -0.00345 0.7482 0.0
C1048 C 0.60471 0.97761 0.76982 0.0
C1049 C 0.62588 0.92137 0.83467 0.0
C1050 C 0.62 0.9415 0.81265 0.0
H1051 H 0.54987 0.02855 0.74756 0.0
H1052 H 0.5621 0.99149 0.76484 0.0
H1053 H 0.61996 0.96049 0.72446 0.0
H1054 H 0.66047 0.87661 0.8323 0.0
H1055 H 0.65543 0.9129 0.8038 0.0
C1056 C 0.40162 0.11904 0.9875 0.0
C1057 C 0.39973 0.13987 1.00428 0.0
C1058 C 0.41694 0.11571 0.95958 0.0
C1059 C 0.46419 0.1407 0.90943 0.0
H1060 H 0.43833 0.10873 0.82773 0.0
C1061 C 0.5107 0.13474 0.77485 0.0
C1062 C 0.51402 0.11279 0.76353 0.0
C1063 C 0.49405 0.13975 0.7999 0.0
C1064 C 0.44573 0.11769 0.8503 0.0
H1065 H 0.41349 0.173 0.00755 0.0
H1066 H 0.44022 0.1673 0.9585 0.0
H1067 H 0.4174 0.11286 0.88428 0.0
H1068 H 0.50191 0.0791 0.76676 0.0
H1069 H 0.4725 0.0878 0.81045 0.0
H1070 H 0.49249 0.14557 0.87533 0.0
C1071 C 0.43007 0.15342 0.96701 0.0
C1072 C 0.43388 0.11989 0.88285 0.0
C1073 C 0.41491 0.15665 0.9954 0.0
C1074 C 0.4993 0.0962 0.77482 0.0
C1075 C 0.48258 0.1012 0.7999 0.0
C1076 C 0.47596 0.13863 0.8768 0.0
C1077 C 0.4304 0.13326 0.94755 0.0
C1078 C 0.44311 0.13113 0.913 0.0
C1079 C 0.48061 0.12281 0.81413 0.0
C1080 C 0.46695 0.12691 0.84705 0.0
H1081 H 0.38998 0.10592 0.99386 0.0
H1082 H 0.4173 0.09975 0.94596 0.0
H1083 H 0.47182 0.14936 0.9321 0.0
H1084 H 0.52202 0.14771 0.76646 0.0
H1085 H 0.49261 0.15661 0.8099 0.0
C1086 C 0.56851 0.64096 0.19549 0.0
C1087 C 0.58092 0.63824 0.22763 0.0
C1088 C 0.57422 0.6571 0.17005 0.0
C1089 C 0.60854 0.7074 0.15519 0.0
H1090 H 0.6044 0.68909 0.05365 0.0
C1091 C 0.65542 0.75122 0.04055 0.0
C1092 C 0.64292 0.75894 0.01064 0.0
C1093 C 0.6462 0.73685 0.06603 0.0
C1094 C 0.60534 0.69452 0.08183 0.0
H1095 H 0.60855 0.65084 0.2591 0.0
H1096 H 0.61917 0.67881 0.21372 0.0
H1097 H 0.59195 0.66408 0.10168 0.0
H1098 H 0.61147 0.75579 0.98248 0.0
H1099 H 0.59578 0.72921 0.02628 0.0
H1100 H 0.62287 0.73752 0.13497 0.0
C1101 C 0.60474 0.66863 0.20854 0.0
C1102 C 0.59819 0.68025 0.10945 0.0
C1103 C 0.59877 0.65257 0.23447 0.0
C1104 C 0.62162 0.75011 1.00499 0.0
C1105 C 0.61253 0.73516 0.03029 0.0
C1106 C 0.61595 0.72156 0.12753 0.0
C1107 C 0.59273 0.67078 0.17568 0.0
C1108 C 0.59983 0.68643 0.14651 0.0
C1109 C 0.62449 0.72917 0.06177 0.0
C1110 C 0.61464 0.71511 0.09064 0.0
H1111 H 0.55433 0.6305 0.18985 0.0
H1112 H 0.56416 0.65871 0.14571 0.0
H1113 H 0.60968 0.71288 0.18332 0.0
H1114 H 0.67193 0.7575 0.0458 0.0
H1115 H 0.65593 0.7321 0.08963 0.0
C1116 C 0.99482 0.90028 0.26931 0.0
C1117 C 0.98105 0.88378 0.25486 0.0
C1118 C 0.01093 0.89479 0.29503 0.0
C1119 C 0.03891 0.84882 0.34385 0.0
H1120 H 0.03086 0.88749 0.42767 0.0
C1121 C 0.07753 0.82793 0.48288 0.0
C1122 C 0.09005 0.84539 0.49761 0.0
C1123 C 0.06242 0.83204 0.4548 0.0
C1124 C 0.03337 0.8766 0.40448 0.0
H1125 H 0.97394 0.84863 0.25362 0.0
H1126 H 0.00234 0.83886 0.29819 0.0
H1127 H 0.01218 0.89597 0.37053 0.0
H1128 H 0.09604 0.8807 0.49654 0.0
H1129 H 0.06913 0.88813 0.44853 0.0
H1130 H 0.0602 0.82949 0.37802 0.0
C1131 C 0.00102 0.85597 0.28946 0.0
C1132 C 0.02285 0.88155 0.37163 0.0
C1133 C 0.98491 0.86149 0.26367 0.0
C1134 C 0.08602 0.86715 0.48622 0.0
C1135 C 0.07078 0.87131 0.45849 0.0
C1136 C 0.04952 0.84389 0.37679 0.0
C1137 C 0.01325 0.87275 0.30693 0.0
C1138 C 0.02561 0.86782 0.34089 0.0
C1139 C 0.0596 0.85368 0.44133 0.0
C1140 C 0.04691 0.8578 0.4074 0.0
H1141 H 0.99169 0.91761 0.26342 0.0
H1142 H 0.02041 0.908 0.30764 0.0
H1143 H 0.04129 0.83794 0.32061 0.0
H1144 H 0.08094 0.81092 0.49061 0.0
H1145 H 0.05384 0.81817 0.44232 0.0
C1146 C 0.88598 0.23463 0.51422 0.0
C1147 C 0.86457 0.2342 0.49936 0.0
C1148 C 0.89136 0.24995 0.54145 0.0
C1149 C 0.87128 0.29899 0.59312 0.0
H1150 H 0.89586 0.26775 0.67646 0.0
C1151 C 0.87155 0.34095 0.7314 0.0
C1152 C 0.89223 0.34128 0.74876 0.0
C1153 C 0.86721 0.32554 0.70391 0.0
C1154 C 0.88911 0.27673 0.65341 0.0
H1155 H 0.83275 0.25046 0.49825 0.0
H1156 H 0.84217 0.27765 0.54509 0.0
H1157 H 0.89312 0.24901 0.6175 0.0
H1158 H 0.92379 0.32468 0.75396 0.0
H1159 H 0.91637 0.29774 0.70557 0.0
H1160 H 0.86724 0.32668 0.62885 0.0
C1161 C 0.85488 0.26627 0.53594 0.0
C1162 C 0.88771 0.26609 0.61953 0.0
C1163 C 0.84951 0.25088 0.50877 0.0
C1164 C 0.90758 0.32446 0.74126 0.0
C1165 C 0.90337 0.30917 0.71331 0.0
C1166 C 0.87271 0.30962 0.62691 0.0
C1167 C 0.87536 0.26501 0.55414 0.0
C1168 C 0.8787 0.27709 0.58905 0.0
C1169 C 0.88367 0.3105 0.69287 0.0
C1170 C 0.88147 0.29857 0.65754 0.0
H1171 H 0.8977 0.2216 0.50774 0.0
H1172 H 0.90743 0.2489 0.55444 0.0
H1173 H 0.8644 0.30793 0.57014 0.0
H1174 H 0.85954 0.35391 0.73671 0.0
H1175 H 0.8516 0.32652 0.68945 0.0
C1176 C 0.58908 0.81926 0.05473 0.0
C1177 C 0.59411 0.83472 0.02732 0.0
C1178 C 0.57276 0.82378 0.0804 0.0
C1179 C 0.52662 0.86064 0.10517 0.0
H1180 H 0.54924 0.85274 0.20371 0.0
C1181 C 0.49049 0.90685 0.22663 0.0
C1182 C 0.48224 0.89365 0.2553 0.0
C1183 C 0.50404 0.89774 0.1999 0.0
C1184 C 0.54261 0.85471 0.1764 0.0
H1185 H 0.58523 0.86616 1.00317 0.0
H1186 H 0.55629 0.87429 0.0485 0.0
H1187 H 0.57098 0.83986 0.15158 0.0
H1188 H 0.48422 0.86128 0.28091 0.0
H1189 H 0.50945 0.8457 0.23493 0.0
H1190 H 0.49857 0.87616 0.13018 0.0
C1191 C 0.56496 0.85861 0.04995 0.0
C1192 C 0.55497 0.84734 0.14656 0.0
C1193 C 0.5814 0.854 0.024 0.0
C1194 C 0.49026 0.87188 0.25921 0.0
C1195 C 0.50441 0.86288 0.23267 0.0
C1196 C 0.51431 0.86809 0.13504 0.0
C1197 C 0.56123 0.84393 0.07928 0.0
C1198 C 0.54721 0.85046 0.11064 0.0
C1199 C 0.51038 0.87546 0.20187 0.0
C1200 C 0.52241 0.86551 0.17083 0.0
H1201 H 0.59871 0.80419 0.05756 0.0
H1202 H 0.5699 0.81198 0.1022 0.0
H1203 H 0.52016 0.863 0.07785 0.0
H1204 H 0.48487 0.92377 0.22294 0.0
H1205 H 0.50888 0.9079 0.17683 0.0
C1206 C 0.37 0.34421 0.78415 0.0
C1207 C 0.39026 0.34422 0.76549 0.0
C1208 C 0.36584 0.32847 0.81106 0.0
C1209 C 0.3862 0.27701 0.85425 0.0
H1210 H 0.36258 0.30454 0.94198 0.0
C1211 C 0.38088 0.22821 0.9862 0.0
C1212 C 0.35903 0.22667 0.99874 0.0
C1213 C 0.38682 0.24498 0.96199 0.0
C1214 C 0.36923 0.29672 0.91769 0.0
H1215 H 0.42131 0.32692 0.75771 0.0
H1216 H 0.41412 0.29931 0.80492 0.0
H1217 H 0.36693 0.32652 0.88649 0.0
H1218 H 0.32665 0.24187 0.99895 0.0
H1219 H 0.3371 0.27171 0.95692 0.0
H1220 H 0.38855 0.24723 0.88561 0.0
C1221 C 0.40135 0.31132 0.79867 0.0
C1222 C 0.3715 0.30916 0.88583 0.0
C1223 C 0.4054 0.32698 0.77139 0.0
C1224 C 0.34364 0.24307 0.98966 0.0
C1225 C 0.34964 0.26003 0.9657 0.0
C1226 C 0.38408 0.26463 0.88619 0.0
C1227 C 0.38203 0.31269 0.82002 0.0
C1228 C 0.3797 0.29933 0.85364 0.0
C1229 C 0.37093 0.26036 0.95021 0.0
C1230 C 0.37538 0.27433 0.91803 0.0
H1231 H 0.35811 0.35741 0.7799 0.0
H1232 H 0.35052 0.32949 0.82633 0.0
H1233 H 0.39246 0.26898 0.82987 0.0
H1234 H 0.39287 0.21547 0.99288 0.0
H1235 H 0.4034 0.24509 0.95069 0.0
C1236 C 0.01396 0.10101 0.71414 0.0
C1237 C 0.01133 0.10549 0.75168 0.0
C1238 C -3e-05 0.11019 0.68847 0.0
C1239 C 0.94427 0.13027 0.67665 0.0
H1240 H 0.96676 0.14647 0.58084 0.0
C1241 C 0.88699 0.15897 0.56279 0.0
C1242 C 0.88949 0.14903 0.52832 0.0
C1243 C 0.90288 0.15622 0.58964 0.0
C1244 C 0.9603 0.14184 0.60736 0.0
H1245 H 0.99246 0.12418 0.79144 0.0
H1246 H 0.96697 0.14016 0.74561 0.0
H1247 H 0.99256 0.14001 0.63106 0.0
H1248 H 0.91104 0.12946 0.49386 0.0
H1249 H 0.93936 0.12426 0.54181 0.0
H1250 H 0.91202 0.13187 0.65283 0.0
C1251 C 0.98013 0.12925 0.73667 0.0
C1252 C 0.97498 0.13832 0.63618 0.0
C1253 C 0.99457 0.12012 0.76282 0.0
C1254 C 0.90878 0.13707 0.52042 0.0
C1255 C 0.92486 0.13419 0.54771 0.0
C1256 C 0.92958 0.13394 0.6479 0.0
C1257 C 0.98279 0.12426 0.69922 0.0
C1258 C 0.96714 0.13203 0.67092 0.0
C1259 C 0.92172 0.14342 0.58278 0.0
C1260 C 0.93748 0.13948 0.6129 0.0
H1261 H 0.02709 0.09038 0.70416 0.0
H1262 H 0.00233 0.10569 0.66007 0.0
H1263 H 0.93777 0.12506 0.70285 0.0
H1264 H 0.87248 0.16881 0.56919 0.0
H1265 H 0.90031 0.16402 0.61598 0.0
C1266 C 0.13538 0.74642 0.50208 0.0
C1267 C 0.13673 0.76858 0.49073 0.0
C1268 C 0.12728 0.73034 0.4777 0.0
C1269 C 0.12617 0.72101 0.38055 0.0
H1270 H 0.07878 0.67876 0.39599 0.0
C1271 C 0.09589 0.66062 0.2677 0.0
C1272 C 0.09397 0.63868 0.28016 0.0
C1273 C 0.09906 0.6779 0.29286 0.0
C1274 C 0.09208 0.6905 0.3914 0.0
H1275 H 0.12844 0.79192 0.44766 0.0
H1276 H 0.11473 0.76415 0.40577 0.0
H1277 H 0.0888 0.70456 0.44503 0.0
H1278 H 0.09362 0.61782 0.32887 0.0
H1279 H 0.09914 0.64739 0.37144 0.0
H1280 H 0.12994 0.70676 0.32743 0.0
C1281 C 0.12041 0.75896 0.43252 0.0
C1282 C 0.09785 0.70502 0.41948 0.0
C1283 C 0.12837 0.77474 0.45643 0.0
C1284 C 0.09533 0.63441 0.31791 0.0
C1285 C 0.09811 0.65146 0.34267 0.0
C1286 C 0.12055 0.7064 0.35263 0.0
C1287 C 0.1205 0.73662 0.44237 0.0
C1288 C 0.11499 0.72026 0.41419 0.0
C1289 C 0.09985 0.67335 0.3306 0.0
C1290 C 0.10365 0.69085 0.35797 0.0
H1291 H 0.14133 0.7415 0.52878 0.0
H1292 H 0.1272 0.71305 0.48572 0.0
H1293 H 0.13946 0.73277 0.37605 0.0
H1294 H 0.09474 0.6644 0.23885 0.0
H1295 H 0.10051 0.69476 0.28297 0.0
C1296 C 0.91361 0.66053 0.48706 0.0
C1297 C 0.89898 0.64366 0.49781 0.0
C1298 C 0.92877 0.65674 0.45882 0.0
C1299 C 0.93102 0.62162 0.37709 0.0
H1300 H 0.98884 0.64791 0.36229 0.0
C1301 C 0.98981 0.59682 0.26111 0.0
C1302 C 0.00532 0.61232 0.24861 0.0
C1303 C 0.97452 0.60273 0.28795 0.0
C1304 C 0.97249 0.64084 0.36575 0.0
H1305 H 0.88991 0.60927 0.49054 0.0
H1306 H 0.91723 0.60216 0.44288 0.0
H1307 H 0.97033 0.65218 0.42119 0.0
H1308 H 0.01585 0.64658 0.2513 0.0
H1309 H 0.98848 0.65727 0.29735 0.0
H1310 H 0.9331 0.61021 0.32189 0.0
C1311 C 0.91661 0.6185 0.45518 0.0
C1312 C 0.96201 0.64311 0.39964 0.0
C1313 C 0.90128 0.62239 0.48292 0.0
C1314 C 0.00369 0.63447 0.26006 0.0
C1315 C 0.98838 0.64043 0.28702 0.0
C1316 C 0.94144 0.61939 0.3433 0.0
C1317 C 0.9295 0.63599 0.44122 0.0
C1318 C 0.94125 0.63329 0.40581 0.0
C1319 C 0.97455 0.62427 0.30277 0.0
C1320 C 0.96237 0.6288 0.33726 0.0
H1321 H 0.9117 0.67723 0.49762 0.0
H1322 H 0.93843 0.67058 0.44873 0.0
H1323 H 0.91473 0.61438 0.3805 0.0
H1324 H 0.99121 0.57953 0.25332 0.0
H1325 H 0.96422 0.58981 0.29949 0.0
C1326 C 0.11172 0.14594 0.72607 0.0
C1327 C 0.09053 0.14747 0.74129 0.0
C1328 C 0.11828 0.16078 0.69902 0.0
C1329 C 0.10267 0.2123 0.6501 0.0
H1330 H 0.13022 0.18246 0.56774 0.0
C1331 C 0.11166 0.256 0.51352 0.0
C1332 C 0.13402 0.25864 0.5042 0.0
C1333 C 0.10547 0.23989 0.53884 0.0
C1334 C 0.1225 0.19091 0.59055 0.0
H1335 H 0.05985 0.16587 0.74228 0.0
H1336 H 0.07119 0.192 0.69483 0.0
H1337 H 0.12294 0.16189 0.6239 0.0
H1338 H 0.16712 0.24567 0.5109 0.0
H1339 H 0.15614 0.21667 0.55397 0.0
H1340 H 0.10195 0.24122 0.61633 0.0
C1341 C 0.08295 0.17966 0.70397 0.0
C1342 C 0.11857 0.17929 0.62283 0.0
C1343 C 0.07646 0.16482 0.73118 0.0
C1344 C 0.14974 0.24353 0.51729 0.0
C1345 C 0.14348 0.22712 0.54207 0.0
C1346 C 0.10638 0.22383 0.61768 0.0
C1347 C 0.10356 0.17714 0.68649 0.0
C1348 C 0.10867 0.18989 0.653 0.0
C1349 C 0.12154 0.22609 0.5546 0.0
C1350 C 0.11628 0.21321 0.58766 0.0
H1351 H 0.1226 0.13235 0.73329 0.0
H1352 H 0.13442 0.15872 0.68659 0.0
H1353 H 0.09527 0.22098 0.67296 0.0
H1354 H 0.09942 0.26792 0.50446 0.0
H1355 H 0.08843 0.23926 0.54805 0.0
C1356 C 0.49349 0.40132 0.77127 0.0
C1357 C 0.48155 0.38426 0.75431 0.0
C1358 C 0.51003 0.3963 0.79646 0.0
C1359 C 0.54218 0.35132 0.84089 0.0
H1360 H 0.52983 0.38587 0.92812 0.0
C1361 C 0.57852 0.32867 0.98167 0.0
C1362 C 0.59015 0.34624 0.998 0.0
C1363 C 0.56432 0.33274 0.95231 0.0
C1364 C 0.53351 0.37617 0.90395 0.0
H1365 H 0.47857 0.34876 0.74739 0.0
H1366 H 0.50761 0.33983 0.79157 0.0
H1367 H 0.51063 0.39444 0.87147 0.0
H1368 H 0.59543 0.3817 0.99829 0.0
H1369 H 0.56962 0.38905 0.94837 0.0
H1370 H 0.56497 0.3329 0.87395 0.0
C1371 C 0.50442 0.35708 0.78526 0.0
C1372 C 0.52271 0.38118 0.87139 0.0
C1373 C 0.48792 0.36215 0.75978 0.0
C1374 C 0.58612 0.36803 0.98666 0.0
C1375 C 0.57157 0.37216 0.95788 0.0
C1376 C 0.55298 0.34625 0.87365 0.0
C1377 C 0.5146 0.37412 0.80551 0.0
C1378 C 0.52705 0.36898 0.83938 0.0
C1379 C 0.56128 0.35447 0.93945 0.0
C1380 C 0.54879 0.35873 0.90542 0.0
H1381 H 0.48856 0.41847 0.76774 0.0
H1382 H 0.518 0.40978 0.81101 0.0
H1383 H 0.54583 0.34163 0.8167 0.0
H1384 H 0.58196 0.31166 0.98936 0.0
H1385 H 0.55646 0.31885 0.9387 0.0
C1386 C 0.34777 0.74759 0.01185 0.0
C1387 C 0.3615 0.72904 0.0079 0.0
C1388 C 0.35375 0.7645 0.03612 0.0
C1389 C 0.38116 0.76645 0.12295 0.0
H1390 H 0.37678 0.83039 0.11639 0.0
C1391 C 0.40895 0.82688 0.23673 0.0
C1392 C 0.39685 0.84656 0.24013 0.0
C1393 C 0.40332 0.81161 0.20951 0.0
C1394 C 0.37772 0.81251 0.11873 0.0
H1395 H 0.39291 0.71424 0.02241 0.0
H1396 H 0.40348 0.74383 0.06442 0.0
H1397 H 0.37159 0.80785 0.0615 0.0
H1398 H 0.36877 0.86534 0.2205 0.0
H1399 H 0.35843 0.83841 0.17392 0.0
H1400 H 0.38687 0.77093 0.18015 0.0
C1401 C 0.38813 0.74533 0.04932 0.0
C1402 C 0.37493 0.79972 0.08728 0.0
C1403 C 0.3822 0.72857 0.02514 0.0
C1404 C 0.3781 0.85004 0.21838 0.0
C1405 C 0.37244 0.83484 0.19143 0.0
C1406 C 0.38377 0.77919 0.1544 0.0
C1407 C 0.37336 0.7627 0.05659 0.0
C1408 C 0.37681 0.77662 0.08916 0.0
C1409 C 0.38562 0.81603 0.18556 0.0
C1410 C 0.3821 0.80234 0.15259 0.0
H1411 H 0.33162 0.74799 0.999 0.0
H1412 H 0.34216 0.77783 0.04134 0.0
H1413 H 0.38218 0.74856 0.12514 0.0
H1414 H 0.42378 0.82426 0.25278 0.0
H1415 H 0.4138 0.79724 0.20551 0.0
C1416 C 0.07629 0.33114 0.52337 0.0
C1417 C 0.09168 0.34735 0.51285 0.0
C1418 C 0.06064 0.33594 0.55029 0.0
C1419 C 0.03458 0.38042 0.60377 0.0
H1420 H 0.04057 0.33992 0.68556 0.0
C1421 C 0.99491 0.40319 0.73801 0.0
C1422 C 0.98161 0.38651 0.75302 0.0
C1423 C 0.01123 0.39781 0.71262 0.0
C1424 C 0.03861 0.3513 0.66292 0.0
H1425 H 0.10197 0.38147 0.51929 0.0
H1426 H 0.07389 0.39027 0.56505 0.0
H1427 H 0.05896 0.33157 0.62769 0.0
H1428 H 0.97588 0.35115 0.75628 0.0
H1429 H 0.00404 0.34164 0.71123 0.0
H1430 H 0.01403 0.40002 0.63834 0.0
C1431 C 0.07397 0.37387 0.55295 0.0
C1432 C 0.04898 0.34644 0.62975 0.0
C1433 C 0.08989 0.36894 0.52662 0.0
C1434 C 0.98629 0.36422 0.74539 0.0
C1435 C 0.00234 0.35882 0.71938 0.0
C1436 C 0.02408 0.38519 0.63672 0.0
C1437 C 0.06005 0.35709 0.5664 0.0
C1438 C 0.04715 0.36105 0.60001 0.0
C1439 C 0.01396 0.37572 0.70108 0.0
C1440 C 0.02615 0.37082 0.66684 0.0
H1441 H 0.07781 0.31424 0.51353 0.0
H1442 H 0.04992 0.32281 0.56007 0.0
H1443 H 0.03288 0.39188 0.58118 0.0
H1444 H 0.9914 0.4205 0.74352 0.0
H1445 H 0.02046 0.41113 0.6999 0.0
C1446 C 0.88223 0.83001 0.26665 0.0
C1447 C 0.89915 0.84565 0.27016 0.0
C1448 C 0.87901 0.81432 0.29425 0.0
C1449 C 0.8921 0.80691 0.39326 0.0
H1450 H 0.86563 0.74928 0.37671 0.0
C1451 C 0.85381 0.74775 0.50368 0.0
C1452 C 0.85894 0.72537 0.49786 0.0
C1453 C 0.86144 0.76372 0.4788 0.0
C1454 C 0.87319 0.76531 0.38168 0.0
H1455 H 0.92689 0.85672 0.30293 0.0
H1456 H 0.92207 0.82892 0.34997 0.0
H1457 H 0.87467 0.77248 0.3248 0.0
H1458 H 0.87748 0.70207 0.46471 0.0
H1459 H 0.89055 0.72964 0.42169 0.0
H1460 H 0.89133 0.79895 0.4504 0.0
C1461 C 0.9107 0.82894 0.32712 0.0
C1462 C 0.87812 0.77875 0.35193 0.0
C1463 C 0.91375 0.8446 0.29984 0.0
C1464 C 0.87322 0.71933 0.46936 0.0
C1465 C 0.88058 0.73502 0.44467 0.0
C1466 C 0.88741 0.79327 0.42306 0.0
C1467 C 0.89272 0.8142 0.32553 0.0
C1468 C 0.88772 0.7997 0.35724 0.0
C1469 C 0.8739 0.75714 0.4481 0.0
C1470 C 0.87809 0.77231 0.4174 0.0
H1471 H 0.87081 0.83076 0.24388 0.0
H1472 H 0.865 0.80322 0.29194 0.0
H1473 H 0.89897 0.82317 0.39863 0.0
H1474 H 0.84287 0.75262 0.52571 0.0
H1475 H 0.85636 0.78083 0.48207 0.0
C1476 C 0.41427 0.63773 0.01582 0.0
C1477 C 0.39472 0.64933 0.02308 0.0
C1478 C 0.43036 0.63563 0.04329 0.0
C1479 C 0.44501 0.65529 0.13837 0.0
H1480 H 0.47119 0.59685 0.14452 0.0
C1481 C 0.48837 0.6176 0.26847 0.0
C1482 C 0.50761 0.6055 0.26041 0.0
C1483 C 0.4752 0.62591 0.2398 0.0
C1484 C 0.46409 0.61332 0.14314 0.0
H1485 H 0.37711 0.66915 0.06306 0.0
H1486 H 0.4043 0.66496 0.11068 0.0
H1487 H 0.4492 0.60642 0.09164 0.0
H1488 H 0.52868 0.59368 0.21644 0.0
H1489 H 0.50704 0.60918 0.16781 0.0
H1490 H 0.45959 0.66167 0.19091 0.0
C1491 C 0.40784 0.65771 0.08426 0.0
C1492 C 0.45165 0.61892 0.11251 0.0
C1493 C 0.39206 0.65993 0.05697 0.0
C1494 C 0.51402 0.60293 0.22375 0.0
C1495 C 0.50142 0.61159 0.19565 0.0
C1496 C 0.45733 0.64955 0.16936 0.0
C1497 C 0.42695 0.64501 0.0783 0.0
C1498 C 0.44189 0.63997 0.1096 0.0
C1499 C 0.48148 0.62243 0.20308 0.0
C1500 C 0.4671 0.62854 0.17188 0.0
H1501 H 0.41665 0.62955 0.98976 0.0
H1502 H 0.44513 0.62613 0.0374 0.0
H1503 H 0.438 0.67178 0.13702 0.0
H1504 H 0.48317 0.6199 0.29653 0.0
H1505 H 0.45985 0.63431 0.24622 0.0
C1506 C 0.64892 0.24709 0.99109 0.0
C1507 C 0.63179 0.25696 0.01119 0.0
C1508 C 0.64413 0.23158 0.96399 0.0
C1509 C 0.60213 0.19631 0.92045 0.0
H1510 H 0.62808 0.21904 0.83086 0.0
C1511 C 0.5785 0.16087 0.77998 0.0
C1512 C 0.59684 0.15299 0.76029 0.0
C1513 C 0.58149 0.17518 0.80959 0.0
C1514 C 0.62079 0.21248 0.85564 0.0
H1515 H 0.59658 0.25673 0.02188 0.0
H1516 H 0.58816 0.22879 0.97508 0.0
H1517 H 0.63652 0.23694 0.88906 0.0
H1518 H 0.63235 0.15495 0.75404 0.0
H1519 H 0.63755 0.1812 0.8044 0.0
H1520 H 0.5865 0.17173 0.88683 0.0
C1521 C 0.60527 0.23324 0.98007 0.0
C1522 C 0.62571 0.22259 0.88896 0.0
C1523 C 0.61009 0.24899 0.00717 0.0
C1524 C 0.61796 0.16122 0.76838 0.0
C1525 C 0.62091 0.17603 0.79741 0.0
C1526 C 0.59721 0.18615 0.88701 0.0
C1527 C 0.62212 0.22561 0.95668 0.0
C1528 C 0.61666 0.21446 0.92174 0.0
C1529 C 0.60284 0.18222 0.81941 0.0
C1530 C 0.60663 0.19407 0.85433 0.0
H1531 H 0.66572 0.25327 0.99338 0.0
H1532 H 0.65746 0.22565 0.94674 0.0
H1533 H 0.59495 0.18976 0.94531 0.0
H1534 H 0.56213 0.15424 0.77483 0.0
H1535 H 0.56728 0.17984 0.82593 0.0
C1536 C 0.31082 0.23206 0.17094 0.0
C1537 C 0.30791 0.21107 0.15504 0.0
C1538 C 0.29426 0.2414 0.1924 0.0
C1539 C 0.23601 0.23759 0.22165 0.0
H1540 H 0.25978 0.25878 0.31393 0.0
C1541 C 0.17805 0.26013 0.3388 0.0
C1542 C 0.18188 0.28064 0.35582 0.0
C1543 C 0.19422 0.25047 0.31688 0.0
C1544 C 0.25289 0.25312 0.28824 0.0
H1545 H 0.28484 0.1841 0.14639 0.0
H1546 H 0.25555 0.20047 0.1844 0.0
H1547 H 0.28485 0.24567 0.26643 0.0
H1548 H 0.20606 0.30643 0.36575 0.0
H1549 H 0.2346 0.28959 0.32693 0.0
H1550 H 0.20405 0.24517 0.24336 0.0
C1551 C 0.27071 0.20971 0.18013 0.0
C1552 C 0.26723 0.24565 0.26095 0.0
C1553 C 0.28737 0.20037 0.15826 0.0
C1554 C 0.20284 0.2905 0.35308 0.0
C1555 C 0.21908 0.28089 0.33072 0.0
C1556 C 0.22165 0.24512 0.24892 0.0
C1557 C 0.27447 0.22983 0.19878 0.0
C1558 C 0.25896 0.23788 0.22731 0.0
C1559 C 0.21452 0.26126 0.31111 0.0
C1560 C 0.22993 0.25292 0.28258 0.0
H1561 H 0.32649 0.2407 0.16848 0.0
H1562 H 0.29738 0.25722 0.20549 0.0
H1563 H 0.22917 0.23187 0.19595 0.0
H1564 H 0.162 0.25217 0.34078 0.0
H1565 H 0.19044 0.23501 0.30312 0.0
C1566 C 0.52456 0.54725 0.40535 0.0
C1567 C 0.53887 0.56242 0.42241 0.0
C1568 C 0.51396 0.53073 0.42601 0.0
C1569 C 0.49777 0.51894 0.52202 0.0
H1570 H 0.48615 0.45973 0.48565 0.0
C1571 C 0.46168 0.44774 0.61196 0.0
C1572 C 0.44715 0.43292 0.59454 0.0
C1573 C 0.47244 0.46433 0.5917 0.0
C1574 C 0.48904 0.4763 0.4961 0.0
H1575 H 0.55469 0.57113 0.47365 0.0
H1576 H 0.53691 0.54217 0.50909 0.0
H1577 H 0.50651 0.48593 0.4477 0.0
H1578 H 0.43104 0.425 0.5432 0.0
H1579 H 0.44916 0.45407 0.50845 0.0
H1580 H 0.48032 0.50928 0.57043 0.0
C1581 C 0.53305 0.54343 0.48028 0.0
C1582 C 0.50073 0.49131 0.47428 0.0
C1583 C 0.54335 0.55998 0.45987 0.0
C1584 C 0.44248 0.43593 0.55725 0.0
C1585 C 0.45301 0.45249 0.53723 0.0
C1586 C 0.4861 0.50391 0.54385 0.0
C1587 C 0.51772 0.52899 0.46395 0.0
C1588 C 0.50525 0.51284 0.48694 0.0
C1589 C 0.46868 0.46644 0.55382 0.0
C1590 C 0.48148 0.48244 0.5311 0.0
H1591 H 0.52082 0.54875 0.37652 0.0
H1592 H 0.50222 0.51988 0.41252 0.0
H1593 H 0.5006 0.53551 0.53246 0.0
H1594 H 0.46562 0.44575 0.64064 0.0
H1595 H 0.48441 0.47484 0.60536 0.0
C1596 C 0.19639 0.79976 0.6814 0.0
C1597 C 0.18674 0.7872 0.65335 0.0
C1598 C 0.21237 0.79037 0.70413 0.0
C1599 C 0.24972 0.74248 0.71701 0.0
H1600 H 0.23692 0.75195 0.8198 0.0
C1601 C 0.29471 0.69228 0.8265 0.0
C1602 C 0.30405 0.70482 0.85483 0.0
C1603 C 0.27864 0.70155 0.8038 0.0
C1604 C 0.24079 0.74926 0.79124 0.0
H1605 H 0.18667 0.75554 0.62561 0.0
H1606 H 0.21505 0.73906 0.66497 0.0
H1607 H 0.21503 0.77105 0.77348 0.0
H1608 H 0.30351 0.73629 0.88315 0.0
H1609 H 0.27507 0.7526 0.84372 0.0
H1610 H 0.27551 0.72074 0.73473 0.0
C1611 C 0.21042 0.75621 0.66932 0.0
C1612 C 0.22835 0.76028 0.76469 0.0
C1613 C 0.19432 0.76562 0.64663 0.0
C1614 C 0.29614 0.72625 0.86179 0.0
C1615 C 0.27997 0.73555 0.83912 0.0
C1616 C 0.26217 0.73148 0.74356 0.0
C1617 C 0.21886 0.76819 0.6993 0.0
C1618 C 0.23271 0.75704 0.72728 0.0
C1619 C 0.27177 0.72361 0.80892 0.0
C1620 C 0.25783 0.73471 0.78097 0.0
H1621 H 0.19043 0.81633 0.68734 0.0
H1622 H 0.21886 0.80014 0.72658 0.0
H1623 H 0.25358 0.73978 0.68846 0.0
H1624 H 0.30089 0.67582 0.82043 0.0
H1625 H 0.27233 0.6918 0.78121 0.0
C1626 C 0.02132 0.54959 0.10551 0.0
C1627 C 0.03983 0.56109 0.09225 0.0
C1628 C 0.01118 0.53326 0.08392 0.0
C1629 C 0.00658 0.51754 0.98626 0.0
H1630 H 0.97768 0.46502 0.02407 0.0
C1631 C 0.97296 0.4459 0.89556 0.0
C1632 C 0.95359 0.43543 0.90762 0.0
C1633 C 0.98259 0.46271 0.91675 0.0
C1634 C 0.98546 0.47978 0.01315 0.0
H1635 H 0.06355 0.56346 0.04814 0.0
H1636 H 0.04667 0.53434 0.01136 0.0
H1637 H -0.00249 0.48952 0.06579 0.0
H1638 H 0.92816 0.43496 0.94925 0.0
H1639 H 0.94451 0.46466 0.98561 0.0
H1640 H 0.9947 0.50764 0.93357 0.0
C1641 C 0.03922 0.53848 0.03739 0.0
C1642 C -0.00314 0.4938 0.03709 0.0
C1643 C 0.04902 0.55501 0.05854 0.0
C1644 C 0.94315 0.44291 0.93955 0.0
C1645 C 0.95264 0.45969 0.96053 0.0
C1646 C -0.00471 0.50347 0.96233 0.0
C1647 C 0.01967 0.52803 0.04907 0.0
C1648 C 0.00762 0.51283 0.02391 0.0
C1649 C 0.97291 0.46916 0.95017 0.0
C1650 C 0.98459 0.48445 0.9755 0.0
H1651 H 0.01398 0.5541 0.13148 0.0
H1652 H -0.00387 0.52556 0.09379 0.0
H1653 H 0.01423 0.53234 0.97522 0.0
H1654 H 0.98137 0.4401 0.87122 0.0
H1655 H -0.00175 0.46971 0.9081 0.0
C1656 C 0.69649 0.801 0.82749 0.0
C1657 C 0.68489 0.7888 0.85384 0.0
C1658 C 0.7124 0.79072 0.80553 0.0
C1659 C 0.72561 0.73541 0.76856 0.0
H1660 H 0.77878 0.7645 0.73368 0.0
C1661 C 0.79271 0.69023 0.68431 0.0
C1662 C 0.80497 0.70235 0.6587 0.0
C1663 C 0.77667 0.70069 0.70575 0.0
C1664 C 0.7638 0.75626 0.74262 0.0
H1665 H 0.68093 0.75658 0.87885 0.0
H1666 H 0.70915 0.73851 0.84098 0.0
H1667 H 0.75577 0.78277 0.77926 0.0
H1668 H 0.80987 0.73461 0.63427 0.0
H1669 H 0.78139 0.753 0.67114 0.0
H1670 H 0.73356 0.70894 0.73186 0.0
C1671 C 0.70593 0.75601 0.83704 0.0
C1672 C 0.75067 0.76671 0.769 0.0
C1673 C 0.69005 0.76637 0.85912 0.0
C1674 C 0.80027 0.72489 0.65346 0.0
C1675 C 0.78423 0.73543 0.67501 0.0
C1676 C 0.73871 0.72498 0.74212 0.0
C1677 C 0.71681 0.76792 0.80921 0.0
C1678 C 0.73142 0.7564 0.78238 0.0
C1679 C 0.77274 0.7236 0.70227 0.0
C1680 C 0.75801 0.73524 0.72882 0.0
H1681 H 0.69237 0.81822 0.82253 0.0
H1682 H 0.72024 0.80038 0.78423 0.0
H1683 H 0.71065 0.72717 0.7776 0.0
H1684 H 0.79642 0.6729 0.68918 0.0
H1685 H 0.76837 0.69104 0.72658 0.0
C1686 C 0.67838 0.29154 0.21066 0.0
C1687 C 0.67795 0.29104 0.1722 0.0
C1688 C 0.69516 0.28103 0.23014 0.0
C1689 C 0.75161 0.2585 0.22356 0.0
H1690 H 0.73389 0.22497 0.30922 0.0
C1691 C 0.8136 0.20374 0.30047 0.0
C1692 C 0.81339 0.2041 0.3389 0.0
C1693 C 0.79658 0.21342 0.28039 0.0
C1694 C 0.73916 0.23446 0.28566 0.0
H1695 H 0.69555 0.27976 0.12407 0.0
H1696 H 0.72514 0.26117 0.1584 0.0
H1697 H 0.70593 0.24385 0.2726 0.0
H1698 H 0.79453 0.21423 0.3864 0.0
H1699 H 0.76471 0.23169 0.3511 0.0
H1700 H 0.78483 0.2493 0.23673 0.0
C1701 C 0.71229 0.26981 0.17332 0.0
C1702 C 0.72313 0.24526 0.26458 0.0
C1703 C 0.69536 0.28044 0.15364 0.0
C1704 C 0.79521 0.21375 0.35684 0.0
C1705 C 0.77813 0.22368 0.33658 0.0
C1706 C 0.76764 0.24775 0.24468 0.0
C1707 C 0.71209 0.26963 0.21186 0.0
C1708 C 0.72917 0.25749 0.23335 0.0
C1709 C 0.77885 0.22397 0.29805 0.0
C1710 C 0.76164 0.23558 0.27601 0.0
H1711 H 0.66551 0.29989 0.22601 0.0
H1712 H 0.69481 0.28178 0.2597 0.0
H1713 H 0.75686 0.26802 0.20003 0.0
H1714 H 0.82708 0.196 0.28567 0.0
H1715 H 0.79739 0.21269 0.25086 0.0
C1716 C 0.05111 0.04748 0.94042 0.0
C1717 C 0.03977 0.0578 0.91171 0.0
C1718 C 0.04068 0.03135 0.96156 0.0
C1719 C 0.99094 0.99542 0.96858 0.0
H1720 H 0.00097 0.0027 0.07264 0.0
C1721 C 0.93838 0.94768 0.07192 0.0
C1722 C 0.94997 0.93735 0.10032 0.0
C1723 C 0.94857 0.96404 0.05088 0.0
C1724 C -0.0019 0.00033 0.04369 0.0
H1725 H 0.00916 0.05899 0.88121 0.0
H1726 H 0.99052 0.03095 0.91866 0.0
H1727 H 0.02121 0.02572 0.02944 0.0
H1728 H 0.98079 0.93626 0.13027 0.0
H1729 H -0.00106 0.9647 0.09313 0.0
H1730 H 0.96784 0.97001 0.98284 0.0
C1731 C 0.00763 0.03495 0.9245 0.0
C1732 C 0.00978 0.01345 0.01886 0.0
C1733 C 0.01825 0.05094 0.90299 0.0
C1734 C 0.97148 0.94437 0.10881 0.0
C1735 C 0.98182 0.96059 0.08746 0.0
C1736 C 0.97925 0.9823 0.99342 0.0
C1737 C 0.0185 0.02556 0.95484 0.0
C1738 C 0.00639 0.01112 0.98098 0.0
C1739 C 0.97073 0.97002 0.05741 0.0
C1740 C 0.98267 0.98461 0.03128 0.0
H1741 H 0.06777 0.05262 0.9475 0.0
H1742 H 0.04973 0.02401 0.98403 0.0
H1743 H 0.9881 0.99302 0.93963 0.0
H1744 H 0.92178 0.94232 0.06491 0.0
H1745 H 0.93937 0.97137 0.02856 0.0
C1746 C 0.51567 0.04556 0.61594 0.0
C1747 C 0.53749 0.05246 0.60971 0.0
C1748 C 0.50601 0.02946 0.59345 0.0
C1749 C 0.51056 0.00917 0.49897 0.0
H1750 H 0.46806 0.96515 0.53091 0.0
C1751 C 0.4712 0.94263 0.4036 0.0
C1752 C 0.44965 0.93566 0.41202 0.0
C1753 C 0.48187 0.95831 0.42578 0.0
C1754 C 0.47963 0.9776 0.52143 0.0
H1755 H 0.56672 0.04759 0.57657 0.0
H1756 H 0.55013 0.019 0.53782 0.0
H1757 H 0.48794 0.98705 0.57612 0.0
H1758 H 0.42165 0.94046 0.44793 0.0
H1759 H 0.43974 0.96854 0.48559 0.0
H1760 H 0.50212 -0.00023 0.44421 0.0
C1761 C 0.54035 0.02607 0.55973 0.0
C1762 C 0.49113 0.99006 0.54743 0.0
C1763 C 0.54998 0.04212 0.58226 0.0
C1764 C 0.43831 0.94568 0.44103 0.0
C1765 C 0.44878 0.96151 0.46282 0.0
C1766 C 0.49901 -0.00328 0.4729 0.0
C1767 C 0.51799 0.02021 0.56413 0.0
C1768 C 0.50667 0.00604 0.53656 0.0
C1769 C 0.47103 0.96725 0.45655 0.0
C1770 C 0.48327 0.98088 0.48383 0.0
H1771 H 0.5056 0.0538 0.63634 0.0
H1772 H 0.48871 0.02543 0.59744 0.0
H1773 H 0.52216 0.02164 0.48963 0.0
H1774 H 0.48031 0.93482 0.38159 0.0
H1775 H 0.49901 0.96231 0.42019 0.0
loop_
_geom_bond_atom_site_label_1
_geom_bond_atom_site_label_2
_geom_bond_distance
_geom_bond_site_symmetry_2
_ccdc_geom_bond_type
O0 Mn1 2.163 . S
O0 C14 1.244 . S
Mn1 O0 2.163 . S
Mn1 O4 2.160 . S
Mn1 O5 2.221 . S
Mn1 O7 2.163 . S
Mn1 O9 2.160 . S
Mn1 O19 2.221 . S
O2 Mn3 2.087 . S
O2 C14 1.256 1_556 S
Mn3 O2 2.087 . S
Mn3 O10 2.089 . S
Mn3 O19 2.290 1_556 S
Mn3 O20 2.251 . S
O4 Mn1 2.160 . S
O4 C15 1.239 . S
O5 Mn1 2.221 . S
O5 Mn6 2.290 . S
O5 C16 1.278 . S
Mn6 O5 2.290 . S
Mn6 O8 2.089 . S
Mn6 O11 2.251 . S
Mn6 O12 2.087 . S
O7 Mn1 2.163 . S
O7 C17 1.244 . S
O8 Mn6 2.089 . S
O8 C15 1.256 . S
O9 Mn1 2.160 . S
O9 C18 1.239 1_554 S
O10 Mn3 2.089 . S
O10 C18 1.256 . S
O11 Mn6 2.251 . S
O11 C16 1.241 . S
O12 Mn6 2.087 . S
O12 C17 1.256 . S
C13 O19 1.278 . S
C13 O20 1.241 1_554 S
C14 O0 1.244 . S
C14 O2 1.256 1_554 S
C15 O4 1.239 . S
C15 O8 1.256 . S
C16 O5 1.278 . S
C16 O11 1.241 . S
C17 O7 1.244 . S
C17 O12 1.256 . S
C18 O9 1.239 1_556 S
C18 O10 1.256 . S
O19 Mn1 2.221 . S
O19 Mn3 2.290 1_554 S
O19 C13 1.278 . S
O20 Mn3 2.251 . S
O20 C13 1.241 1_556 S
O21 Mn22 2.163 . S
O21 C35 1.244 . S
Mn22 O21 2.163 . S
Mn22 O25 2.160 . S
Mn22 O26 2.221 . S
Mn22 O28 2.163 . S
Mn22 O30 2.160 . S
Mn22 O40 2.221 . S
O23 Mn24 2.087 . S
O23 C35 1.256 . S
Mn24 O23 2.087 . S
Mn24 O31 2.089 . S
Mn24 O40 2.290 . S
Mn24 O41 2.251 . S
O25 Mn22 2.160 . S
O25 C36 1.239 . S
O26 Mn22 2.221 . S
O26 Mn27 2.290 . S
O26 C37 1.278 . S
Mn27 O26 2.290 . S
Mn27 O29 2.089 . S
Mn27 O32 2.251 . S
Mn27 O33 2.087 . S
O28 Mn22 2.163 . S
O28 C38 1.244 . S
O29 Mn27 2.089 . S
O29 C36 1.256 . S
O30 Mn22 2.160 . S
O30 C39 1.239 . S
O31 Mn24 2.089 . S
O31 C39 1.256 . S
O32 Mn27 2.251 . S
O32 C37 1.241 . S
O33 Mn27 2.087 . S
O33 C38 1.256 . S
C34 O40 1.278 . S
C34 O41 1.241 . S
C35 O21 1.244 . S
C35 O23 1.256 . S
C36 O25 1.239 . S
C36 O29 1.256 . S
C37 O26 1.278 . S
C37 O32 1.241 . S
C38 O28 1.244 . S
C38 O33 1.256 . S
C39 O30 1.239 . S
C39 O31 1.256 . S
O40 Mn22 2.221 . S
O40 Mn24 2.290 . S
O40 C34 1.278 . S
O41 Mn24 2.251 . S
O41 C34 1.241 . S
O42 Mn43 2.163 . S
O42 C56 1.244 . S
Mn43 O42 2.163 . S
Mn43 O46 2.160 . S
Mn43 O47 2.221 . S
Mn43 O49 2.163 . S
Mn43 O51 2.160 . S
Mn43 O61 2.221 . S
O44 Mn45 2.087 . S
O44 C56 1.256 . S
Mn45 O44 2.087 . S
Mn45 O52 2.089 . S
Mn45 O61 2.290 . S
Mn45 O62 2.251 . S
O46 Mn43 2.160 . S
O46 C57 1.239 . S
O47 Mn43 2.221 . S
O47 Mn48 2.290 . S
O47 C58 1.278 . S
Mn48 O47 2.290 . S
Mn48 O50 2.089 . S
Mn48 O53 2.251 . S
Mn48 O54 2.087 . S
O49 Mn43 2.163 . S
O49 C59 1.244 . S
O50 Mn48 2.089 . S
O50 C57 1.256 . S
O51 Mn43 2.160 . S
O51 C60 1.239 . S
O52 Mn45 2.089 . S
O52 C60 1.256 . S
O53 Mn48 2.251 . S
O53 C58 1.241 . S
O54 Mn48 2.087 . S
O54 C59 1.256 . S
C55 O61 1.278 . S
C55 O62 1.241 . S
C56 O42 1.244 . S
C56 O44 1.256 . S
C57 O46 1.239 . S
C57 O50 1.256 . S
C58 O47 1.278 . S
C58 O53 1.241 . S
C59 O49 1.244 . S
C59 O54 1.256 . S
C60 O51 1.239 . S
C60 O52 1.256 . S
O61 Mn43 2.221 . S
O61 Mn45 2.290 . S
O61 C55 1.278 . S
O62 Mn45 2.251 . S
O62 C55 1.241 . S
O63 Mn64 2.163 . S
O63 C77 1.244 . S
Mn64 O63 2.163 . S
Mn64 O67 2.160 . S
Mn64 O68 2.221 . S
Mn64 O70 2.163 . S
Mn64 O72 2.160 . S
Mn64 O82 2.221 . S
O65 Mn66 2.087 . S
O65 C77 1.256 . S
Mn66 O65 2.087 . S
Mn66 O73 2.089 . S
Mn66 O82 2.290 . S
Mn66 O83 2.251 . S
O67 Mn64 2.160 . S
O67 C78 1.239 . S
O68 Mn64 2.221 . S
O68 Mn69 2.290 . S
O68 C79 1.278 . S
Mn69 O68 2.290 . S
Mn69 O71 2.089 . S
Mn69 O74 2.251 . S
Mn69 O75 2.087 . S
O70 Mn64 2.163 . S
O70 C80 1.244 . S
O71 Mn69 2.089 . S
O71 C78 1.256 . S
O72 Mn64 2.160 . S
O72 C81 1.239 . S
O73 Mn66 2.089 . S
O73 C81 1.256 . S
O74 Mn69 2.251 . S
O74 C79 1.241 . S
O75 Mn69 2.087 . S
O75 C80 1.256 . S
C76 O82 1.278 . S
C76 O83 1.241 . S
C77 O63 1.244 . S
C77 O65 1.256 . S
C78 O67 1.239 . S
C78 O71 1.256 . S
C79 O68 1.278 . S
C79 O74 1.241 . S
C80 O70 1.244 . S
C80 O75 1.256 . S
C81 O72 1.239 . S
C81 O73 1.256 . S
O82 Mn64 2.221 . S
O82 Mn66 2.290 . S
O82 C76 1.278 . S
O83 Mn66 2.251 . S
O83 C76 1.241 . S
O84 Mn85 2.163 . S
O84 C98 1.244 . S
Mn85 O84 2.163 . S
Mn85 O88 2.160 . S
Mn85 O89 2.221 . S
Mn85 O91 2.163 . S
Mn85 O93 2.160 . S
Mn85 O103 2.221 . S
O86 Mn87 2.087 . S
O86 C98 1.256 1_554 S
Mn87 O86 2.087 . S
Mn87 O94 2.089 . S
Mn87 O103 2.290 1_554 S
Mn87 O104 2.251 . S
O88 Mn85 2.160 . S
O88 C99 1.239 . S
O89 Mn85 2.221 . S
O89 Mn90 2.290 . S
O89 C100 1.278 . S
Mn90 O89 2.290 . S
Mn90 O92 2.089 . S
Mn90 O95 2.251 . S
Mn90 O96 2.087 . S
O91 Mn85 2.163 . S
O91 C101 1.244 . S
O92 Mn90 2.089 . S
O92 C99 1.256 . S
O93 Mn85 2.160 . S
O93 C102 1.239 1_556 S
O94 Mn87 2.089 . S
O94 C102 1.256 . S
O95 Mn90 2.251 . S
O95 C100 1.241 . S
O96 Mn90 2.087 . S
O96 C101 1.256 . S
C97 O103 1.278 . S
C97 O104 1.241 1_556 S
C98 O84 1.244 . S
C98 O86 1.256 1_556 S
C99 O88 1.239 . S
C99 O92 1.256 . S
C100 O89 1.278 . S
C100 O95 1.241 . S
C101 O91 1.244 . S
C101 O96 1.256 . S
C102 O93 1.239 1_554 S
C102 O94 1.256 . S
O103 Mn85 2.221 . S
O103 Mn87 2.290 1_556 S
O103 C97 1.278 . S
O104 Mn87 2.251 . S
O104 C97 1.241 1_554 S
O105 Mn106 2.163 . S
O105 C119 1.244 . S
Mn106 O105 2.163 . S
Mn106 O109 2.160 . S
Mn106 O110 2.221 . S
Mn106 O112 2.163 . S
Mn106 O114 2.160 . S
Mn106 O124 2.221 . S
O107 Mn108 2.087 . S
O107 C119 1.256 . S
Mn108 O107 2.087 . S
Mn108 O115 2.089 . S
Mn108 O124 2.290 . S
Mn108 O125 2.251 . S
O109 Mn106 2.160 . S
O109 C120 1.239 . S
O110 Mn106 2.221 . S
O110 Mn111 2.290 . S
O110 C121 1.278 . S
Mn111 O110 2.290 . S
Mn111 O113 2.089 . S
Mn111 O116 2.251 . S
Mn111 O117 2.087 . S
O112 Mn106 2.163 . S
O112 C122 1.244 . S
O113 Mn111 2.089 . S
O113 C120 1.256 . S
O114 Mn106 2.160 . S
O114 C123 1.239 . S
O115 Mn108 2.089 . S
O115 C123 1.256 . S
O116 Mn111 2.251 . S
O116 C121 1.241 . S
O117 Mn111 2.087 . S
O117 C122 1.256 . S
C118 O124 1.278 . S
C118 O125 1.241 . S
C119 O105 1.244 . S
C119 O107 1.256 . S
C120 O109 1.239 . S
C120 O113 1.256 . S
C121 O110 1.278 . S
C121 O116 1.241 . S
C122 O112 1.244 . S
C122 O117 1.256 . S
C123 O114 1.239 . S
C123 O115 1.256 . S
O124 Mn106 2.221 . S
O124 Mn108 2.290 . S
O124 C118 1.278 . S
O125 Mn108 2.251 . S
O125 C118 1.241 . S
O126 Mn127 2.163 . S
O126 C140 1.244 . S
Mn127 O126 2.163 . S
Mn127 O130 2.160 . S
Mn127 O131 2.221 . S
Mn127 O133 2.163 . S
Mn127 O135 2.160 . S
Mn127 O145 2.221 . S
O128 Mn129 2.087 . S
O128 C140 1.256 . S
Mn129 O128 2.087 . S
Mn129 O136 2.089 . S
Mn129 O145 2.290 . S
Mn129 O146 2.251 . S
O130 Mn127 2.160 . S
O130 C141 1.239 . S
O131 Mn127 2.221 . S
O131 Mn132 2.290 . S
O131 C142 1.278 . S
Mn132 O131 2.290 . S
Mn132 O134 2.089 . S
Mn132 O137 2.251 . S
Mn132 O138 2.087 . S
O133 Mn127 2.163 . S
O133 C143 1.244 . S
O134 Mn132 2.089 . S
O134 C141 1.256 . S
O135 Mn127 2.160 . S
O135 C144 1.239 . S
O136 Mn129 2.089 . S
O136 C144 1.256 . S
O137 Mn132 2.251 . S
O137 C142 1.241 . S
O138 Mn132 2.087 . S
O138 C143 1.256 . S
C139 O145 1.278 . S
C139 O146 1.241 . S
C140 O126 1.244 . S
C140 O128 1.256 . S
C141 O130 1.239 . S
C141 O134 1.256 . S
C142 O131 1.278 . S
C142 O137 1.241 . S
C143 O133 1.244 . S
C143 O138 1.256 . S
C144 O135 1.239 . S
C144 O136 1.256 . S
O145 Mn127 2.221 . S
O145 Mn129 2.290 . S
O145 C139 1.278 . S
O146 Mn129 2.251 . S
O146 C139 1.241 . S
O147 Mn148 2.163 . S
O147 C161 1.244 . S
Mn148 O147 2.163 . S
Mn148 O151 2.160 . S
Mn148 O152 2.221 . S
Mn148 O154 2.163 . S
Mn148 O156 2.160 . S
Mn148 O166 2.221 . S
O149 Mn150 2.087 . S
O149 C161 1.256 . S
Mn150 O149 2.087 . S
Mn150 O157 2.089 . S
Mn150 O166 2.290 . S
Mn150 O167 2.251 . S
O151 Mn148 2.160 . S
O151 C162 1.239 . S
O152 Mn148 2.221 . S
O152 Mn153 2.290 . S
O152 C163 1.278 . S
Mn153 O152 2.290 . S
Mn153 O155 2.089 . S
Mn153 O158 2.251 . S
Mn153 O159 2.087 . S
O154 Mn148 2.163 . S
O154 C164 1.244 . S
O155 Mn153 2.089 . S
O155 C162 1.256 . S
O156 Mn148 2.160 . S
O156 C165 1.239 . S
O157 Mn150 2.089 . S
O157 C165 1.256 . S
O158 Mn153 2.251 . S
O158 C163 1.241 . S
O159 Mn153 2.087 . S
O159 C164 1.256 . S
C160 O166 1.278 . S
C160 O167 1.241 . S
C161 O147 1.244 . S
C161 O149 1.256 . S
C162 O151 1.239 . S
C162 O155 1.256 . S
C163 O152 1.278 . S
C163 O158 1.241 . S
C164 O154 1.244 . S
C164 O159 1.256 . S
C165 O156 1.239 . S
C165 O157 1.256 . S
O166 Mn148 2.221 . S
O166 Mn150 2.290 . S
O166 C160 1.278 . S
O167 Mn150 2.251 . S
O167 C160 1.241 . S
O168 Mn169 2.163 . S
O168 C182 1.244 . S
Mn169 O168 2.163 . S
Mn169 O172 2.160 . S
Mn169 O173 2.221 . S
Mn169 O175 2.163 . S
Mn169 O177 2.160 . S
Mn169 O187 2.221 . S
O170 Mn171 2.087 . S
O170 C182 1.256 . S
Mn171 O170 2.087 . S
Mn171 O178 2.089 . S
Mn171 O187 2.290 . S
Mn171 O188 2.251 . S
O172 Mn169 2.160 . S
O172 C183 1.239 . S
O173 Mn169 2.221 . S
O173 Mn174 2.290 . S
O173 C184 1.278 . S
Mn174 O173 2.290 . S
Mn174 O176 2.089 . S
Mn174 O179 2.251 . S
Mn174 O180 2.087 . S
O175 Mn169 2.163 . S
O175 C185 1.244 . S
O176 Mn174 2.089 . S
O176 C183 1.256 . S
O177 Mn169 2.160 . S
O177 C186 1.239 . S
O178 Mn171 2.089 . S
O178 C186 1.256 . S
O179 Mn174 2.251 . S
O179 C184 1.241 . S
O180 Mn174 2.087 . S
O180 C185 1.256 . S
C181 O187 1.278 . S
C181 O188 1.241 . S
C182 O168 1.244 . S
C182 O170 1.256 . S
C183 O172 1.239 . S
C183 O176 1.256 . S
C184 O173 1.278 . S
C184 O179 1.241 . S
C185 O175 1.244 . S
C185 O180 1.256 . S
C186 O177 1.239 . S
C186 O178 1.256 . S
O187 Mn169 2.221 . S
O187 Mn171 2.290 . S
O187 C181 1.278 . S
O188 Mn171 2.251 . S
O188 C181 1.241 . S
O189 Mn190 2.163 . S
O189 C203 1.244 . S
Mn190 O189 2.163 . S
Mn190 O193 2.160 . S
Mn190 O194 2.221 . S
Mn190 O196 2.163 . S
Mn190 O198 2.160 . S
Mn190 O208 2.221 . S
O191 Mn192 2.087 . S
O191 C203 1.256 . S
Mn192 O191 2.087 . S
Mn192 O199 2.089 . S
Mn192 O208 2.290 . S
Mn192 O209 2.251 . S
O193 Mn190 2.160 . S
O193 C204 1.239 . S
O194 Mn190 2.221 . S
O194 Mn195 2.290 . S
O194 C205 1.278 . S
Mn195 O194 2.290 . S
Mn195 O197 2.089 . S
Mn195 O200 2.251 . S
Mn195 O201 2.087 . S
O196 Mn190 2.163 . S
O196 C206 1.244 . S
O197 Mn195 2.089 . S
O197 C204 1.256 . S
O198 Mn190 2.160 . S
O198 C207 1.239 . S
O199 Mn192 2.089 . S
O199 C207 1.256 . S
O200 Mn195 2.251 . S
O200 C205 1.241 . S
O201 Mn195 2.087 . S
O201 C206 1.256 . S
C202 O208 1.278 . S
C202 O209 1.241 . S
C203 O189 1.244 . S
C203 O191 1.256 . S
C204 O193 1.239 . S
C204 O197 1.256 . S
C205 O194 1.278 . S
C205 O200 1.241 . S
C206 O196 1.244 . S
C206 O201 1.256 . S
C207 O198 1.239 . S
C207 O199 1.256 . S
O208 Mn190 2.221 . S
O208 Mn192 2.290 . S
O208 C202 1.278 . S
O209 Mn192 2.251 . S
O209 C202 1.241 . S
O210 Mn211 2.163 . S
O210 C224 1.244 . S
Mn211 O210 2.163 . S
Mn211 O214 2.160 . S
Mn211 O215 2.221 . S
Mn211 O217 2.163 . S
Mn211 O219 2.160 . S
Mn211 O229 2.221 . S
O212 Mn213 2.087 . S
O212 C224 1.256 1_556 S
Mn213 O212 2.087 . S
Mn213 O220 2.089 . S
Mn213 O229 2.290 1_556 S
Mn213 O230 2.251 . S
O214 Mn211 2.160 . S
O214 C225 1.239 . S
O215 Mn211 2.221 . S
O215 Mn216 2.290 . S
O215 C226 1.278 . S
Mn216 O215 2.290 . S
Mn216 O218 2.089 . S
Mn216 O221 2.251 . S
Mn216 O222 2.087 . S
O217 Mn211 2.163 . S
O217 C227 1.244 . S
O218 Mn216 2.089 . S
O218 C225 1.256 . S
O219 Mn211 2.160 . S
O219 C228 1.239 1_554 S
O220 Mn213 2.089 . S
O220 C228 1.256 . S
O221 Mn216 2.251 . S
O221 C226 1.241 . S
O222 Mn216 2.087 . S
O222 C227 1.256 . S
C223 O229 1.278 . S
C223 O230 1.241 1_554 S
C224 O210 1.244 . S
C224 O212 1.256 1_554 S
C225 O214 1.239 . S
C225 O218 1.256 . S
C226 O215 1.278 . S
C226 O221 1.241 . S
C227 O217 1.244 . S
C227 O222 1.256 . S
C228 O219 1.239 1_556 S
C228 O220 1.256 . S
O229 Mn211 2.221 . S
O229 Mn213 2.290 1_554 S
O229 C223 1.278 . S
O230 Mn213 2.251 . S
O230 C223 1.241 1_556 S
O231 Mn232 2.163 . S
O231 C245 1.244 . S
Mn232 O231 2.163 . S
Mn232 O235 2.160 . S
Mn232 O236 2.221 . S
Mn232 O238 2.163 . S
Mn232 O240 2.160 . S
Mn232 O250 2.221 . S
O233 Mn234 2.087 . S
O233 C245 1.256 . S
Mn234 O233 2.087 . S
Mn234 O241 2.089 . S
Mn234 O250 2.290 . S
Mn234 O251 2.251 . S
O235 Mn232 2.160 . S
O235 C246 1.239 . S
O236 Mn232 2.221 . S
O236 Mn237 2.290 . S
O236 C247 1.278 . S
Mn237 O236 2.290 . S
Mn237 O239 2.089 . S
Mn237 O242 2.251 . S
Mn237 O243 2.087 . S
O238 Mn232 2.163 . S
O238 C248 1.244 . S
O239 Mn237 2.089 . S
O239 C246 1.256 . S
O240 Mn232 2.160 . S
O240 C249 1.239 . S
O241 Mn234 2.089 . S
O241 C249 1.256 . S
O242 Mn237 2.251 . S
O242 C247 1.241 . S
O243 Mn237 2.087 . S
O243 C248 1.256 . S
C244 O250 1.278 . S
C244 O251 1.241 . S
C245 O231 1.244 . S
C245 O233 1.256 . S
C246 O235 1.239 . S
C246 O239 1.256 . S
C247 O236 1.278 . S
C247 O242 1.241 . S
C248 O238 1.244 . S
C248 O243 1.256 . S
C249 O240 1.239 . S
C249 O241 1.256 . S
O250 Mn232 2.221 . S
O250 Mn234 2.290 . S
O250 C244 1.278 . S
O251 Mn234 2.251 . S
O251 C244 1.241 . S
O252 Mn253 2.163 . S
O252 C266 1.244 . S
Mn253 O252 2.163 . S
Mn253 O256 2.160 . S
Mn253 O257 2.221 . S
Mn253 O259 2.163 . S
Mn253 O261 2.160 . S
Mn253 O271 2.221 . S
O254 Mn255 2.087 . S
O254 C266 1.256 . S
Mn255 O254 2.087 . S
Mn255 O262 2.089 . S
Mn255 O271 2.290 . S
Mn255 O272 2.251 . S
O256 Mn253 2.160 . S
O256 C267 1.239 . S
O257 Mn253 2.221 . S
O257 Mn258 2.290 . S
O257 C268 1.278 . S
Mn258 O257 2.290 . S
Mn258 O260 2.089 . S
Mn258 O263 2.251 . S
Mn258 O264 2.087 . S
O259 Mn253 2.163 . S
O259 C269 1.244 . S
O260 Mn258 2.089 . S
O260 C267 1.256 . S
O261 Mn253 2.160 . S
O261 C270 1.239 . S
O262 Mn255 2.089 . S
O262 C270 1.256 . S
O263 Mn258 2.251 . S
O263 C268 1.241 . S
O264 Mn258 2.087 . S
O264 C269 1.256 . S
C265 O271 1.278 . S
C265 O272 1.241 . S
C266 O252 1.244 . S
C266 O254 1.256 . S
C267 O256 1.239 . S
C267 O260 1.256 . S
C268 O257 1.278 . S
C268 O263 1.241 . S
C269 O259 1.244 . S
C269 O264 1.256 . S
C270 O261 1.239 . S
C270 O262 1.256 . S
O271 Mn253 2.221 . S
O271 Mn255 2.290 . S
O271 C265 1.278 . S
O272 Mn255 2.251 . S
O272 C265 1.241 . S
O273 Mn274 2.163 . S
O273 C287 1.244 . S
Mn274 O273 2.163 . S
Mn274 O277 2.160 . S
Mn274 O278 2.221 . S
Mn274 O280 2.163 . S
Mn274 O282 2.160 . S
Mn274 O292 2.221 . S
O275 Mn276 2.087 . S
O275 C287 1.256 . S
Mn276 O275 2.087 . S
Mn276 O283 2.089 . S
Mn276 O292 2.290 . S
Mn276 O293 2.251 . S
O277 Mn274 2.160 . S
O277 C288 1.239 . S
O278 Mn274 2.221 . S
O278 Mn279 2.290 . S
O278 C289 1.278 . S
Mn279 O278 2.290 . S
Mn279 O281 2.089 . S
Mn279 O284 2.251 . S
Mn279 O285 2.087 . S
O280 Mn274 2.163 . S
O280 C290 1.244 . S
O281 Mn279 2.089 . S
O281 C288 1.256 . S
O282 Mn274 2.160 . S
O282 C291 1.239 . S
O283 Mn276 2.089 . S
O283 C291 1.256 . S
O284 Mn279 2.251 . S
O284 C289 1.241 . S
O285 Mn279 2.087 . S
O285 C290 1.256 . S
C286 O292 1.278 . S
C286 O293 1.241 . S
C287 O273 1.244 . S
C287 O275 1.256 . S
C288 O277 1.239 . S
C288 O281 1.256 . S
C289 O278 1.278 . S
C289 O284 1.241 . S
C290 O280 1.244 . S
C290 O285 1.256 . S
C291 O282 1.239 . S
C291 O283 1.256 . S
O292 Mn274 2.221 . S
O292 Mn276 2.290 . S
O292 C286 1.278 . S
O293 Mn276 2.251 . S
O293 C286 1.241 . S
O294 Mn295 2.163 . S
O294 C308 1.244 . S
Mn295 O294 2.163 . S
Mn295 O298 2.160 . S
Mn295 O299 2.221 . S
Mn295 O301 2.163 . S
Mn295 O303 2.160 . S
Mn295 O313 2.221 . S
O296 Mn297 2.087 . S
O296 C308 1.256 1_554 S
Mn297 O296 2.087 . S
Mn297 O304 2.089 . S
Mn297 O313 2.290 1_554 S
Mn297 O314 2.251 . S
O298 Mn295 2.160 . S
O298 C309 1.239 . S
O299 Mn295 2.221 . S
O299 Mn300 2.290 . S
O299 C310 1.278 . S
Mn300 O299 2.290 . S
Mn300 O302 2.089 . S
Mn300 O305 2.251 . S
Mn300 O306 2.087 . S
O301 Mn295 2.163 . S
O301 C311 1.244 . S
O302 Mn300 2.089 . S
O302 C309 1.256 . S
O303 Mn295 2.160 . S
O303 C312 1.239 1_556 S
O304 Mn297 2.089 . S
O304 C312 1.256 . S
O305 Mn300 2.251 . S
O305 C310 1.241 . S
O306 Mn300 2.087 . S
O306 C311 1.256 . S
C307 O313 1.278 . S
C307 O314 1.241 1_556 S
C308 O294 1.244 . S
C308 O296 1.256 1_556 S
C309 O298 1.239 . S
C309 O302 1.256 . S
C310 O299 1.278 . S
C310 O305 1.241 . S
C311 O301 1.244 . S
C311 O306 1.256 . S
C312 O303 1.239 1_554 S
C312 O304 1.256 . S
O313 Mn295 2.221 . S
O313 Mn297 2.290 1_556 S
O313 C307 1.278 . S
O314 Mn297 2.251 . S
O314 C307 1.241 1_554 S
O315 Mn316 2.163 . S
O315 C329 1.244 . S
Mn316 O315 2.163 . S
Mn316 O319 2.160 . S
Mn316 O320 2.221 . S
Mn316 O322 2.163 . S
Mn316 O324 2.160 . S
Mn316 O334 2.221 . S
O317 Mn318 2.087 . S
O317 C329 1.256 . S
Mn318 O317 2.087 . S
Mn318 O325 2.089 . S
Mn318 O334 2.290 . S
Mn318 O335 2.251 . S
O319 Mn316 2.160 . S
O319 C330 1.239 . S
O320 Mn316 2.221 . S
O320 Mn321 2.290 . S
O320 C331 1.278 . S
Mn321 O320 2.290 . S
Mn321 O323 2.089 . S
Mn321 O326 2.251 . S
Mn321 O327 2.087 . S
O322 Mn316 2.163 . S
O322 C332 1.244 . S
O323 Mn321 2.089 . S
O323 C330 1.256 . S
O324 Mn316 2.160 . S
O324 C333 1.239 . S
O325 Mn318 2.089 . S
O325 C333 1.256 . S
O326 Mn321 2.251 . S
O326 C331 1.241 . S
O327 Mn321 2.087 . S
O327 C332 1.256 . S
C328 O334 1.278 . S
C328 O335 1.241 . S
C329 O315 1.244 . S
C329 O317 1.256 . S
C330 O319 1.239 . S
C330 O323 1.256 . S
C331 O320 1.278 . S
C331 O326 1.241 . S
C332 O322 1.244 . S
C332 O327 1.256 . S
C333 O324 1.239 . S
C333 O325 1.256 . S
O334 Mn316 2.221 . S
O334 Mn318 2.290 . S
O334 C328 1.278 . S
O335 Mn318 2.251 . S
O335 C328 1.241 . S
C336 C337 1.349 . S
C336 C338 1.327 . S
C336 H361 0.950 . S
C337 C336 1.349 . S
C337 C353 1.349 . S
C338 C336 1.327 . S
C338 C357 1.429 . S
C338 H362 0.950 . S
C339 C356 1.574 . S
C339 C358 1.368 . S
C339 H363 0.949 . S
H340 C344 0.949 . S
C341 C342 1.349 . S
C341 C343 1.327 . S
C341 H364 0.950 . S
C342 C341 1.349 . S
C342 C354 1.349 . S
C343 C341 1.327 . S
C343 C359 1.429 . S
C343 H365 0.950 . S
C344 H340 0.949 . S
C344 C352 1.574 . S
C344 C360 1.368 . S
H345 C353 0.950 . S
H346 C351 0.950 . S
H347 C352 0.949 . S
H348 C354 0.950 . S
H349 C355 0.950 . S
H350 C356 0.949 . S
C351 H346 0.950 . S
C351 C353 1.327 . S
C351 C357 1.429 . S
C352 C344 1.574 . S
C352 H347 0.949 . S
C352 C358 1.368 . S
C353 C337 1.349 . S
C353 H345 0.950 . S
C353 C351 1.327 . S
C354 C342 1.349 . S
C354 H348 0.950 . S
C354 C355 1.327 . S
C355 H349 0.950 . S
C355 C354 1.327 . S
C355 C359 1.429 . S
C356 C339 1.574 . S
C356 H350 0.949 . S
C356 C360 1.368 . S
C357 C338 1.429 . S
C357 C351 1.429 . S
C357 C358 1.523 . S
C358 C339 1.368 . S
C358 C352 1.368 . S
C358 C357 1.523 . S
C359 C343 1.429 . S
C359 C355 1.429 . S
C359 C360 1.523 . S
C360 C344 1.368 . S
C360 C356 1.368 . S
C360 C359 1.523 . S
H361 C336 0.950 . S
H362 C338 0.950 . S
H363 C339 0.949 . S
H364 C341 0.950 . S
H365 C343 0.950 . S
C366 C367 1.349 . S
C366 C368 1.327 . S
C366 H391 0.950 . S
C367 C366 1.349 . S
C367 C383 1.349 . S
C368 C366 1.327 . S
C368 C387 1.429 . S
C368 H392 0.950 . S
C369 C386 1.574 . S
C369 C388 1.368 . S
C369 H393 0.949 . S
H370 C374 0.949 . S
C371 C372 1.349 . S
C371 C373 1.327 . S
C371 H394 0.950 . S
C372 C371 1.349 . S
C372 C384 1.349 . S
C373 C371 1.327 . S
C373 C389 1.429 . S
C373 H395 0.950 . S
C374 H370 0.949 . S
C374 C382 1.574 . S
C374 C390 1.368 . S
H375 C383 0.950 . S
H376 C381 0.950 . S
H377 C382 0.949 . S
H378 C384 0.950 . S
H379 C385 0.950 . S
H380 C386 0.949 . S
C381 H376 0.950 . S
C381 C383 1.327 . S
C381 C387 1.429 . S
C382 C374 1.574 . S
C382 H377 0.949 . S
C382 C388 1.368 . S
C383 C367 1.349 . S
C383 H375 0.950 . S
C383 C381 1.327 . S
C384 C372 1.349 . S
C384 H378 0.950 . S
C384 C385 1.327 . S
C385 H379 0.950 . S
C385 C384 1.327 . S
C385 C389 1.429 . S
C386 C369 1.574 . S
C386 H380 0.949 . S
C386 C390 1.368 . S
C387 C368 1.429 . S
C387 C381 1.429 . S
C387 C388 1.523 . S
C388 C369 1.368 . S
C388 C382 1.368 . S
C388 C387 1.523 . S
C389 C373 1.429 . S
C389 C385 1.429 . S
C389 C390 1.523 . S
C390 C374 1.368 . S
C390 C386 1.368 . S
C390 C389 1.523 . S
H391 C366 0.950 . S
H392 C368 0.950 . S
H393 C369 0.949 . S
H394 C371 0.950 . S
H395 C373 0.950 . S
C396 C397 1.349 . S
C396 C398 1.327 . S
C396 H421 0.950 . S
C397 C396 1.349 . S
C397 C413 1.349 . S
C398 C396 1.327 . S
C398 C417 1.429 . S
C398 H422 0.950 . S
C399 C416 1.574 1_455 S
C399 C418 1.368 . S
C399 H423 0.949 . S
H400 C404 0.949 . S
C401 C402 1.349 . S
C401 C403 1.327 . S
C401 H424 0.950 . S
C402 C401 1.349 . S
C402 C414 1.349 . S
C403 C401 1.327 . S
C403 C419 1.429 . S
C403 H425 0.950 . S
C404 H400 0.949 . S
C404 C412 1.574 1_655 S
C404 C420 1.368 . S
H405 C413 0.950 . S
H406 C411 0.950 . S
H407 C412 0.949 . S
H408 C414 0.950 . S
H409 C415 0.950 . S
H410 C416 0.949 . S
C411 H406 0.950 . S
C411 C413 1.327 . S
C411 C417 1.429 . S
C412 C404 1.574 1_455 S
C412 H407 0.949 . S
C412 C418 1.368 . S
C413 C397 1.349 . S
C413 H405 0.950 . S
C413 C411 1.327 . S
C414 C402 1.349 . S
C414 H408 0.950 . S
C414 C415 1.327 . S
C415 H409 0.950 . S
C415 C414 1.327 . S
C415 C419 1.429 . S
C416 C399 1.574 1_655 S
C416 H410 0.949 . S
C416 C420 1.368 . S
C417 C398 1.429 . S
C417 C411 1.429 . S
C417 C418 1.523 . S
C418 C399 1.368 . S
C418 C412 1.368 . S
C418 C417 1.523 . S
C419 C403 1.429 . S
C419 C415 1.429 . S
C419 C420 1.523 . S
C420 C404 1.368 . S
C420 C416 1.368 . S
C420 C419 1.523 . S
H421 C396 0.950 . S
H422 C398 0.950 . S
H423 C399 0.949 . S
H424 C401 0.950 . S
H425 C403 0.950 . S
C426 C427 1.349 . S
C426 C428 1.327 . S
C426 H451 0.950 . S
C427 C426 1.349 . S
C427 C443 1.349 . S
C428 C426 1.327 . S
C428 C447 1.429 . S
C428 H452 0.950 . S
C429 C446 1.574 . S
C429 C448 1.368 . S
C429 H453 0.949 . S
H430 C434 0.949 . S
C431 C432 1.349 . S
C431 C433 1.327 . S
C431 H454 0.950 . S
C432 C431 1.349 . S
C432 C444 1.349 . S
C433 C431 1.327 . S
C433 C449 1.429 . S
C433 H455 0.950 . S
C434 H430 0.949 . S
C434 C442 1.574 . S
C434 C450 1.368 . S
H435 C443 0.950 . S
H436 C441 0.950 . S
H437 C442 0.949 . S
H438 C444 0.950 . S
H439 C445 0.950 . S
H440 C446 0.949 . S
C441 H436 0.950 . S
C441 C443 1.327 . S
C441 C447 1.429 . S
C442 C434 1.574 . S
C442 H437 0.949 . S
C442 C448 1.368 1_455 S
C443 C427 1.349 . S
C443 H435 0.950 . S
C443 C441 1.327 . S
C444 C432 1.349 . S
C444 H438 0.950 . S
C444 C445 1.327 . S
C445 H439 0.950 . S
C445 C444 1.327 . S
C445 C449 1.429 . S
C446 C429 1.574 . S
C446 H440 0.949 . S
C446 C450 1.368 1_655 S
C447 C428 1.429 . S
C447 C441 1.429 . S
C447 C448 1.523 . S
C448 C429 1.368 . S
C448 C442 1.368 1_655 S
C448 C447 1.523 . S
C449 C433 1.429 . S
C449 C445 1.429 . S
C449 C450 1.523 . S
C450 C434 1.368 . S
C450 C446 1.368 1_455 S
C450 C449 1.523 . S
H451 C426 0.950 . S
H452 C428 0.950 . S
H453 C429 0.949 . S
H454 C431 0.950 . S
H455 C433 0.950 . S
C456 C457 1.349 . S
C456 C458 1.327 . S
C456 H481 0.950 . S
C457 C456 1.349 . S
C457 C473 1.349 . S
C458 C456 1.327 . S
C458 C477 1.429 . S
C458 H482 0.950 . S
C459 C476 1.574 . S
C459 C478 1.368 . S
C459 H483 0.949 . S
H460 C464 0.949 . S
C461 C462 1.349 . S
C461 C463 1.327 . S
C461 H484 0.950 . S
C462 C461 1.349 . S
C462 C474 1.349 . S
C463 C461 1.327 . S
C463 C479 1.429 . S
C463 H485 0.950 . S
C464 H460 0.949 . S
C464 C472 1.574 . S
C464 C480 1.368 . S
H465 C473 0.950 . S
H466 C471 0.950 . S
H467 C472 0.949 . S
H468 C474 0.950 . S
H469 C475 0.950 . S
H470 C476 0.949 . S
C471 H466 0.950 . S
C471 C473 1.327 . S
C471 C477 1.429 . S
C472 C464 1.574 . S
C472 H467 0.949 . S
C472 C478 1.368 . S
C473 C457 1.349 . S
C473 H465 0.950 . S
C473 C471 1.327 . S
C474 C462 1.349 . S
C474 H468 0.950 . S
C474 C475 1.327 . S
C475 H469 0.950 . S
C475 C474 1.327 . S
C475 C479 1.429 . S
C476 C459 1.574 . S
C476 H470 0.949 . S
C476 C480 1.368 . S
C477 C458 1.429 . S
C477 C471 1.429 . S
C477 C478 1.523 . S
C478 C459 1.368 . S
C478 C472 1.368 . S
C478 C477 1.523 . S
C479 C463 1.429 . S
C479 C475 1.429 . S
C479 C480 1.523 . S
C480 C464 1.368 . S
C480 C476 1.368 . S
C480 C479 1.523 . S
H481 C456 0.950 . S
H482 C458 0.950 . S
H483 C459 0.949 . S
H484 C461 0.950 . S
H485 C463 0.950 . S
C486 C487 1.349 . S
C486 C488 1.327 . S
C486 H511 0.950 . S
C487 C486 1.349 . S
C487 C503 1.349 . S
C488 C486 1.327 . S
C488 C507 1.429 . S
C488 H512 0.950 . S
C489 C506 1.574 . S
C489 C508 1.368 . S
C489 H513 0.949 . S
H490 C494 0.949 . S
C491 C492 1.349 . S
C491 C493 1.327 . S
C491 H514 0.950 . S
C492 C491 1.349 . S
C492 C504 1.349 . S
C493 C491 1.327 . S
C493 C509 1.429 . S
C493 H515 0.950 . S
C494 H490 0.949 . S
C494 C502 1.574 . S
C494 C510 1.368 . S
H495 C503 0.950 . S
H496 C501 0.950 . S
H497 C502 0.949 . S
H498 C504 0.950 . S
H499 C505 0.950 . S
H500 C506 0.949 . S
C501 H496 0.950 . S
C501 C503 1.327 . S
C501 C507 1.429 . S
C502 C494 1.574 . S
C502 H497 0.949 . S
C502 C508 1.368 . S
C503 C487 1.349 . S
C503 H495 0.950 . S
C503 C501 1.327 . S
C504 C492 1.349 . S
C504 H498 0.950 . S
C504 C505 1.327 . S
C505 H499 0.950 . S
C505 C504 1.327 . S
C505 C509 1.429 . S
C506 C489 1.574 . S
C506 H500 0.949 . S
C506 C510 1.368 . S
C507 C488 1.429 . S
C507 C501 1.429 . S
C507 C508 1.523 . S
C508 C489 1.368 . S
C508 C502 1.368 . S
C508 C507 1.523 . S
C509 C493 1.429 . S
C509 C505 1.429 . S
C509 C510 1.523 . S
C510 C494 1.368 . S
C510 C506 1.368 . S
C510 C509 1.523 . S
H511 C486 0.950 . S
H512 C488 0.950 . S
H513 C489 0.949 . S
H514 C491 0.950 . S
H515 C493 0.950 . S
C516 C517 1.349 . S
C516 C518 1.327 . S
C516 H541 0.950 . S
C517 C516 1.349 . S
C517 C533 1.349 . S
C518 C516 1.327 . S
C518 C537 1.429 . S
C518 H542 0.950 . S
C519 C536 1.574 1_655 S
C519 C538 1.368 . S
C519 H543 0.949 . S
H520 C524 0.949 . S
C521 C522 1.349 . S
C521 C523 1.327 . S
C521 H544 0.950 . S
C522 C521 1.349 . S
C522 C534 1.349 . S
C523 C521 1.327 . S
C523 C539 1.429 . S
C523 H545 0.950 . S
C524 H520 0.949 . S
C524 C532 1.574 1_455 S
C524 C540 1.368 . S
H525 C533 0.950 . S
H526 C531 0.950 . S
H527 C532 0.949 . S
H528 C534 0.950 . S
H529 C535 0.950 . S
H530 C536 0.949 . S
C531 H526 0.950 . S
C531 C533 1.327 . S
C531 C537 1.429 . S
C532 C524 1.574 1_655 S
C532 H527 0.949 . S
C532 C538 1.368 . S
C533 C517 1.349 . S
C533 H525 0.950 . S
C533 C531 1.327 . S
C534 C522 1.349 . S
C534 H528 0.950 . S
C534 C535 1.327 . S
C535 H529 0.950 . S
C535 C534 1.327 . S
C535 C539 1.429 . S
C536 C519 1.574 1_455 S
C536 H530 0.949 . S
C536 C540 1.368 . S
C537 C518 1.429 . S
C537 C531 1.429 . S
C537 C538 1.523 . S
C538 C519 1.368 . S
C538 C532 1.368 . S
C538 C537 1.523 . S
C539 C523 1.429 . S
C539 C535 1.429 . S
C539 C540 1.523 . S
C540 C524 1.368 . S
C540 C536 1.368 . S
C540 C539 1.523 . S
H541 C516 0.950 . S
H542 C518 0.950 . S
H543 C519 0.949 . S
H544 C521 0.950 . S
H545 C523 0.950 . S
C546 C547 1.349 . S
C546 C548 1.327 . S
C546 H571 0.950 . S
C547 C546 1.349 . S
C547 C563 1.349 . S
C548 C546 1.327 . S
C548 C567 1.429 . S
C548 H572 0.950 . S
C549 C566 1.574 . S
C549 C568 1.368 . S
C549 H573 0.949 . S
H550 C554 0.949 . S
C551 C552 1.349 . S
C551 C553 1.327 . S
C551 H574 0.950 . S
C552 C551 1.349 . S
C552 C564 1.349 . S
C553 C551 1.327 . S
C553 C569 1.429 . S
C553 H575 0.950 . S
C554 H550 0.949 . S
C554 C562 1.574 . S
C554 C570 1.368 . S
H555 C563 0.950 . S
H556 C561 0.950 . S
H557 C562 0.949 . S
H558 C564 0.950 . S
H559 C565 0.950 . S
H560 C566 0.949 . S
C561 H556 0.950 . S
C561 C563 1.327 . S
C561 C567 1.429 . S
C562 C554 1.574 . S
C562 H557 0.949 . S
C562 C568 1.368 1_655 S
C563 C547 1.349 . S
C563 H555 0.950 . S
C563 C561 1.327 . S
C564 C552 1.349 . S
C564 H558 0.950 . S
C564 C565 1.327 . S
C565 H559 0.950 . S
C565 C564 1.327 . S
C565 C569 1.429 . S
C566 C549 1.574 . S
C566 H560 0.949 . S
C566 C570 1.368 1_455 S
C567 C548 1.429 . S
C567 C561 1.429 . S
C567 C568 1.523 . S
C568 C549 1.368 . S
C568 C562 1.368 1_455 S
C568 C567 1.523 . S
C569 C553 1.429 . S
C569 C565 1.429 . S
C569 C570 1.523 . S
C570 C554 1.368 . S
C570 C566 1.368 1_655 S
C570 C569 1.523 . S
H571 C546 0.950 . S
H572 C548 0.950 . S
H573 C549 0.949 . S
H574 C551 0.950 . S
H575 C553 0.950 . S
C576 C577 1.349 . S
C576 C578 1.327 . S
C576 H601 0.950 . S
C577 C576 1.349 . S
C577 C593 1.349 . S
C578 C576 1.327 . S
C578 C597 1.429 . S
C578 H602 0.950 . S
C579 C596 1.574 . S
C579 C598 1.368 . S
C579 H603 0.949 . S
H580 C584 0.949 . S
C581 C582 1.349 . S
C581 C583 1.327 . S
C581 H604 0.950 . S
C582 C581 1.349 . S
C582 C594 1.349 1_554 S
C583 C581 1.327 . S
C583 C599 1.429 1_554 S
C583 H605 0.950 . S
C584 H580 0.949 . S
C584 C592 1.574 . S
C584 C600 1.368 . S
H585 C593 0.950 . S
H586 C591 0.950 . S
H587 C592 0.949 . S
H588 C594 0.950 . S
H589 C595 0.950 . S
H590 C596 0.949 1_554 S
C591 H586 0.950 . S
C591 C593 1.327 . S
C591 C597 1.429 . S
C592 C584 1.574 . S
C592 H587 0.949 . S
C592 C598 1.368 . S
C593 C577 1.349 . S
C593 H585 0.950 . S
C593 C591 1.327 . S
C594 C582 1.349 1_556 S
C594 H588 0.950 . S
C594 C595 1.327 . S
C595 H589 0.950 . S
C595 C594 1.327 . S
C595 C599 1.429 . S
C596 C579 1.574 . S
C596 H590 0.949 1_556 S
C596 C600 1.368 . S
C597 C578 1.429 . S
C597 C591 1.429 . S
C597 C598 1.523 . S
C598 C579 1.368 . S
C598 C592 1.368 . S
C598 C597 1.523 . S
C599 C583 1.429 1_556 S
C599 C595 1.429 . S
C599 C600 1.523 . S
C600 C584 1.368 . S
C600 C596 1.368 . S
C600 C599 1.523 . S
H601 C576 0.950 . S
H602 C578 0.950 . S
H603 C579 0.949 . S
H604 C581 0.950 . S
H605 C583 0.950 . S
C606 C607 1.349 . S
C606 C608 1.327 . S
C606 H631 0.950 . S
C607 C606 1.349 . S
C607 C623 1.349 . S
C608 C606 1.327 . S
C608 C627 1.429 . S
C608 H632 0.950 . S
C609 C626 1.574 . S
C609 C628 1.368 . S
C609 H633 0.949 . S
H610 C614 0.949 . S
C611 C612 1.349 . S
C611 C613 1.327 . S
C611 H634 0.950 . S
C612 C611 1.349 . S
C612 C624 1.349 . S
C613 C611 1.327 . S
C613 C629 1.429 . S
C613 H635 0.950 . S
C614 H610 0.949 . S
C614 C622 1.574 . S
C614 C630 1.368 . S
H615 C623 0.950 . S
H616 C621 0.950 . S
H617 C622 0.949 . S
H618 C624 0.950 . S
H619 C625 0.950 . S
H620 C626 0.949 . S
C621 H616 0.950 . S
C621 C623 1.327 . S
C621 C627 1.429 . S
C622 C614 1.574 . S
C622 H617 0.949 . S
C622 C628 1.368 . S
C623 C607 1.349 . S
C623 H615 0.950 . S
C623 C621 1.327 . S
C624 C612 1.349 . S
C624 H618 0.950 . S
C624 C625 1.327 . S
C625 H619 0.950 . S
C625 C624 1.327 . S
C625 C629 1.429 . S
C626 C609 1.574 . S
C626 H620 0.949 . S
C626 C630 1.368 . S
C627 C608 1.429 . S
C627 C621 1.429 . S
C627 C628 1.523 . S
C628 C609 1.368 . S
C628 C622 1.368 . S
C628 C627 1.523 . S
C629 C613 1.429 . S
C629 C625 1.429 . S
C629 C630 1.523 . S
C630 C614 1.368 . S
C630 C626 1.368 . S
C630 C629 1.523 . S
H631 C606 0.950 . S
H632 C608 0.950 . S
H633 C609 0.949 . S
H634 C611 0.950 . S
H635 C613 0.950 . S
C636 C637 1.349 . S
C636 C638 1.327 . S
C636 H661 0.950 . S
C637 C636 1.349 . S
C637 C653 1.349 . S
C638 C636 1.327 . S
C638 C657 1.429 . S
C638 H662 0.950 . S
C639 C656 1.574 . S
C639 C658 1.368 . S
C639 H663 0.949 . S
H640 C644 0.949 . S
C641 C642 1.349 . S
C641 C643 1.327 . S
C641 H664 0.950 . S
C642 C641 1.349 . S
C642 C654 1.349 . S
C643 C641 1.327 . S
C643 C659 1.429 . S
C643 H665 0.950 . S
C644 H640 0.949 . S
C644 C652 1.574 . S
C644 C660 1.368 . S
H645 C653 0.950 . S
H646 C651 0.950 . S
H647 C652 0.949 . S
H648 C654 0.950 . S
H649 C655 0.950 . S
H650 C656 0.949 . S
C651 H646 0.950 . S
C651 C653 1.327 . S
C651 C657 1.429 . S
C652 C644 1.574 . S
C652 H647 0.949 . S
C652 C658 1.368 . S
C653 C637 1.349 . S
C653 H645 0.950 . S
C653 C651 1.327 . S
C654 C642 1.349 . S
C654 H648 0.950 . S
C654 C655 1.327 . S
C655 H649 0.950 . S
C655 C654 1.327 . S
C655 C659 1.429 . S
C656 C639 1.574 . S
C656 H650 0.949 . S
C656 C660 1.368 . S
C657 C638 1.429 . S
C657 C651 1.429 . S
C657 C658 1.523 . S
C658 C639 1.368 . S
C658 C652 1.368 . S
C658 C657 1.523 . S
C659 C643 1.429 . S
C659 C655 1.429 . S
C659 C660 1.523 . S
C660 C644 1.368 . S
C660 C656 1.368 . S
C660 C659 1.523 . S
H661 C636 0.950 . S
H662 C638 0.950 . S
H663 C639 0.949 . S
H664 C641 0.950 . S
H665 C643 0.950 . S
C666 C667 1.349 . S
C666 C668 1.327 . S
C666 H691 0.950 . S
C667 C666 1.349 . S
C667 C683 1.349 . S
C668 C666 1.327 . S
C668 C687 1.429 . S
C668 H692 0.950 . S
C669 C686 1.574 . S
C669 C688 1.368 . S
C669 H693 0.949 . S
H670 C674 0.949 . S
C671 C672 1.349 . S
C671 C673 1.327 . S
C671 H694 0.950 . S
C672 C671 1.349 . S
C672 C684 1.349 . S
C673 C671 1.327 . S
C673 C689 1.429 . S
C673 H695 0.950 . S
C674 H670 0.949 . S
C674 C682 1.574 . S
C674 C690 1.368 . S
H675 C683 0.950 . S
H676 C681 0.950 . S
H677 C682 0.949 . S
H678 C684 0.950 . S
H679 C685 0.950 . S
H680 C686 0.949 . S
C681 H676 0.950 . S
C681 C683 1.327 . S
C681 C687 1.429 . S
C682 C674 1.574 . S
C682 H677 0.949 . S
C682 C688 1.368 . S
C683 C667 1.349 . S
C683 H675 0.950 . S
C683 C681 1.327 . S
C684 C672 1.349 . S
C684 H678 0.950 . S
C684 C685 1.327 . S
C685 H679 0.950 . S
C685 C684 1.327 . S
C685 C689 1.429 . S
C686 C669 1.574 . S
C686 H680 0.949 . S
C686 C690 1.368 . S
C687 C668 1.429 . S
C687 C681 1.429 . S
C687 C688 1.523 . S
C688 C669 1.368 . S
C688 C682 1.368 . S
C688 C687 1.523 . S
C689 C673 1.429 . S
C689 C685 1.429 . S
C689 C690 1.523 . S
C690 C674 1.368 . S
C690 C686 1.368 . S
C690 C689 1.523 . S
H691 C666 0.950 . S
H692 C668 0.950 . S
H693 C669 0.949 . S
H694 C671 0.950 . S
H695 C673 0.950 . S
C696 C697 1.349 . S
C696 C698 1.327 . S
C696 H721 0.950 . S
C697 C696 1.349 . S
C697 C713 1.349 . S
C698 C696 1.327 . S
C698 C717 1.429 1_556 S
C698 H722 0.953 . S
C699 C716 1.574 . S
C699 C718 1.368 . S
C699 H723 0.949 . S
H700 C704 0.949 . S
C701 C702 1.349 . S
C701 C703 1.327 . S
C701 H724 0.950 . S
C702 C701 1.349 . S
C702 C714 1.349 . S
C703 C701 1.327 . S
C703 C719 1.429 . S
C703 H725 0.950 . S
C704 H700 0.949 . S
C704 C712 1.574 . S
C704 C720 1.368 . S
H705 C713 0.950 . S
H706 C711 0.950 . S
H707 C712 0.949 . S
H708 C714 0.950 . S
H709 C715 0.950 . S
H710 C716 0.949 . S
C711 H706 0.950 . S
C711 C713 1.327 1_554 S
C711 C717 1.429 . S
C712 C704 1.574 . S
C712 H707 0.949 . S
C712 C718 1.368 . S
C713 C697 1.349 . S
C713 H705 0.950 . S
C713 C711 1.327 1_556 S
C714 C702 1.349 . S
C714 H708 0.950 . S
C714 C715 1.327 . S
C715 H709 0.950 . S
C715 C714 1.327 . S
C715 C719 1.429 . S
C716 C699 1.574 . S
C716 H710 0.949 . S
C716 C720 1.368 . S
C717 C698 1.429 1_554 S
C717 C711 1.429 . S
C717 C718 1.523 . S
C718 C699 1.368 . S
C718 C712 1.368 . S
C718 C717 1.523 . S
C719 C703 1.429 . S
C719 C715 1.429 . S
C719 C720 1.523 . S
C720 C704 1.368 . S
C720 C716 1.368 . S
C720 C719 1.523 . S
H721 C696 0.950 . S
H722 C698 0.953 . S
H723 C699 0.949 . S
H724 C701 0.950 . S
H725 C703 0.950 . S
C726 C727 1.349 . S
C726 C728 1.327 . S
C726 H751 0.950 . S
C727 C726 1.349 . S
C727 C743 1.349 . S
C728 C726 1.327 . S
C728 C747 1.429 . S
C728 H752 0.950 . S
C729 C746 1.574 . S
C729 C748 1.368 . S
C729 H753 0.949 . S
H730 C734 0.949 . S
C731 C732 1.349 . S
C731 C733 1.327 . S
C731 H754 0.950 . S
C732 C731 1.349 . S
C732 C744 1.349 . S
C733 C731 1.327 . S
C733 C749 1.429 . S
C733 H755 0.950 . S
C734 H730 0.949 . S
C734 C742 1.574 . S
C734 C750 1.368 . S
H735 C743 0.950 . S
H736 C741 0.950 . S
H737 C742 0.949 . S
H738 C744 0.950 . S
H739 C745 0.950 . S
H740 C746 0.949 . S
C741 H736 0.950 . S
C741 C743 1.327 . S
C741 C747 1.429 . S
C742 C734 1.574 . S
C742 H737 0.949 . S
C742 C748 1.368 . S
C743 C727 1.349 . S
C743 H735 0.950 . S
C743 C741 1.327 . S
C744 C732 1.349 . S
C744 H738 0.950 . S
C744 C745 1.327 . S
C745 H739 0.950 . S
C745 C744 1.327 . S
C745 C749 1.429 . S
C746 C729 1.574 . S
C746 H740 0.949 . S
C746 C750 1.368 . S
C747 C728 1.429 . S
C747 C741 1.429 . S
C747 C748 1.523 . S
C748 C729 1.368 . S
C748 C742 1.368 . S
C748 C747 1.523 . S
C749 C733 1.429 . S
C749 C745 1.429 . S
C749 C750 1.523 . S
C750 C734 1.368 . S
C750 C746 1.368 . S
C750 C749 1.523 . S
H751 C726 0.950 . S
H752 C728 0.950 . S
H753 C729 0.949 . S
H754 C731 0.950 . S
H755 C733 0.950 . S
C756 C757 1.349 . S
C756 C758 1.327 . S
C756 H781 0.950 . S
C757 C756 1.349 . S
C757 C773 1.349 . S
C758 C756 1.327 . S
C758 C777 1.429 . S
C758 H782 0.950 . S
C759 C776 1.574 . S
C759 C778 1.368 . S
C759 H783 0.949 . S
H760 C764 0.949 . S
C761 C762 1.349 . S
C761 C763 1.327 . S
C761 H784 0.950 . S
C762 C761 1.349 . S
C762 C774 1.349 . S
C763 C761 1.327 . S
C763 C779 1.429 . S
C763 H785 0.950 . S
C764 H760 0.949 . S
C764 C772 1.574 . S
C764 C780 1.368 . S
H765 C773 0.950 . S
H766 C771 0.950 . S
H767 C772 0.949 . S
H768 C774 0.950 . S
H769 C775 0.950 . S
H770 C776 0.949 . S
C771 H766 0.950 . S
C771 C773 1.327 . S
C771 C777 1.429 . S
C772 C764 1.574 . S
C772 H767 0.949 . S
C772 C778 1.368 . S
C773 C757 1.349 . S
C773 H765 0.950 . S
C773 C771 1.327 . S
C774 C762 1.349 . S
C774 H768 0.950 . S
C774 C775 1.327 . S
C775 H769 0.950 . S
C775 C774 1.327 . S
C775 C779 1.429 . S
C776 C759 1.574 . S
C776 H770 0.949 . S
C776 C780 1.368 . S
C777 C758 1.429 . S
C777 C771 1.429 . S
C777 C778 1.523 . S
C778 C759 1.368 . S
C778 C772 1.368 . S
C778 C777 1.523 . S
C779 C763 1.429 . S
C779 C775 1.429 . S
C779 C780 1.523 . S
C780 C764 1.368 . S
C780 C776 1.368 . S
C780 C779 1.523 . S
H781 C756 0.950 . S
H782 C758 0.950 . S
H783 C759 0.949 . S
H784 C761 0.950 . S
H785 C763 0.950 . S
C786 C787 1.349 . S
C786 C788 1.327 . S
C786 H811 0.950 . S
C787 C786 1.349 . S
C787 C803 1.349 . S
C788 C786 1.327 . S
C788 C807 1.429 . S
C788 H812 0.950 . S
C789 C806 1.574 . S
C789 C808 1.368 . S
C789 H813 0.949 . S
H790 C794 0.949 . S
C791 C792 1.349 . S
C791 C793 1.327 . S
C791 H814 0.950 . S
C792 C791 1.349 . S
C792 C804 1.349 . S
C793 C791 1.327 . S
C793 C809 1.429 . S
C793 H815 0.950 . S
C794 H790 0.949 . S
C794 C802 1.574 . S
C794 C810 1.368 . S
H795 C803 0.950 . S
H796 C801 0.950 . S
H797 C802 0.949 . S
H798 C804 0.950 . S
H799 C805 0.950 . S
H800 C806 0.949 . S
C801 H796 0.950 . S
C801 C803 1.327 . S
C801 C807 1.429 . S
C802 C794 1.574 . S
C802 H797 0.949 . S
C802 C808 1.368 . S
C803 C787 1.349 . S
C803 H795 0.950 . S
C803 C801 1.327 . S
C804 C792 1.349 . S
C804 H798 0.950 . S
C804 C805 1.327 . S
C805 H799 0.950 . S
C805 C804 1.327 . S
C805 C809 1.429 . S
C806 C789 1.574 . S
C806 H800 0.949 . S
C806 C810 1.368 . S
C807 C788 1.429 . S
C807 C801 1.429 . S
C807 C808 1.523 . S
C808 C789 1.368 . S
C808 C802 1.368 . S
C808 C807 1.523 . S
C809 C793 1.429 . S
C809 C805 1.429 . S
C809 C810 1.523 . S
C810 C794 1.368 . S
C810 C806 1.368 . S
C810 C809 1.523 . S
H811 C786 0.950 . S
H812 C788 0.950 . S
H813 C789 0.949 . S
H814 C791 0.950 . S
H815 C793 0.950 . S
C816 C817 1.349 . S
C816 C818 1.327 . S
C816 H841 0.950 . S
C817 C816 1.349 . S
C817 C833 1.349 . S
C818 C816 1.327 . S
C818 C837 1.429 . S
C818 H842 0.950 . S
C819 C836 1.574 . S
C819 C838 1.368 . S
C819 H843 0.949 . S
H820 C824 0.949 . S
C821 C822 1.349 . S
C821 C823 1.327 . S
C821 H844 0.950 . S
C822 C821 1.349 . S
C822 C834 1.349 . S
C823 C821 1.327 . S
C823 C839 1.429 . S
C823 H845 0.950 . S
C824 H820 0.949 . S
C824 C832 1.574 . S
C824 C840 1.368 . S
H825 C833 0.950 . S
H826 C831 0.950 . S
H827 C832 0.949 . S
H828 C834 0.950 . S
H829 C835 0.950 . S
H830 C836 0.949 . S
C831 H826 0.950 . S
C831 C833 1.327 . S
C831 C837 1.429 . S
C832 C824 1.574 . S
C832 H827 0.949 . S
C832 C838 1.368 . S
C833 C817 1.349 . S
C833 H825 0.950 . S
C833 C831 1.327 . S
C834 C822 1.349 . S
C834 H828 0.950 . S
C834 C835 1.327 . S
C835 H829 0.950 . S
C835 C834 1.327 . S
C835 C839 1.429 . S
C836 C819 1.574 . S
C836 H830 0.949 . S
C836 C840 1.368 . S
C837 C818 1.429 . S
C837 C831 1.429 . S
C837 C838 1.523 . S
C838 C819 1.368 . S
C838 C832 1.368 . S
C838 C837 1.523 . S
C839 C823 1.429 . S
C839 C835 1.429 . S
C839 C840 1.523 . S
C840 C824 1.368 . S
C840 C836 1.368 . S
C840 C839 1.523 . S
H841 C816 0.950 . S
H842 C818 0.950 . S
H843 C819 0.949 . S
H844 C821 0.950 . S
H845 C823 0.950 . S
C846 C847 1.349 . S
C846 C848 1.327 . S
C846 H871 0.950 . S
C847 C846 1.349 . S
C847 C863 1.349 . S
C848 C846 1.327 . S
C848 C867 1.429 . S
C848 H872 0.950 1_545 S
C849 C866 1.574 . S
C849 C868 1.368 . S
C849 H873 0.910 1_565 S
H850 C854 0.949 . S
C851 C852 1.349 . S
C851 C853 1.327 . S
C851 H874 0.950 . S
C852 C851 1.349 . S
C852 C864 1.349 . S
C853 C851 1.327 . S
C853 C869 1.429 . S
C853 H875 0.950 . S
C854 H850 0.949 . S
C854 C862 1.574 . S
C854 C870 1.368 . S
H855 C863 0.950 . S
H856 C861 0.950 . S
H857 C862 0.949 . S
H858 C864 0.950 . S
H859 C865 0.950 . S
H860 C866 0.949 . S
C861 H856 0.950 . S
C861 C863 1.327 . S
C861 C867 1.429 . S
C862 C854 1.574 . S
C862 H857 0.949 . S
C862 C868 1.368 . S
C863 C847 1.349 . S
C863 H855 0.950 . S
C863 C861 1.327 . S
C864 C852 1.349 . S
C864 H858 0.950 . S
C864 C865 1.327 . S
C865 H859 0.950 . S
C865 C864 1.327 . S
C865 C869 1.429 . S
C866 C849 1.574 . S
C866 H860 0.949 . S
C866 C870 1.368 . S
C867 C848 1.429 . S
C867 C861 1.429 . S
C867 C868 1.523 1_545 S
C868 C849 1.368 . S
C868 C862 1.368 . S
C868 C867 1.523 1_565 S
C869 C853 1.429 . S
C869 C865 1.429 . S
C869 C870 1.523 . S
C870 C854 1.368 . S
C870 C866 1.368 . S
C870 C869 1.523 . S
H871 C846 0.950 . S
H872 C848 0.950 1_565 S
H873 C849 0.910 1_545 S
H874 C851 0.950 . S
H875 C853 0.950 . S
C876 C877 1.349 . S
C876 C878 1.327 . S
C876 H901 0.950 . S
C877 C876 1.349 . S
C877 C893 1.349 1_554 S
C878 C876 1.327 . S
C878 C897 1.429 1_554 S
C878 H902 0.950 . S
C879 C896 1.574 . S
C879 C898 1.368 . S
C879 H903 0.949 . S
H880 C884 0.949 . S
C881 C882 1.349 . S
C881 C883 1.327 . S
C881 H904 0.950 . S
C882 C881 1.349 . S
C882 C894 1.349 . S
C883 C881 1.327 . S
C883 C899 1.429 . S
C883 H905 0.950 . S
C884 H880 0.949 . S
C884 C892 1.574 . S
C884 C900 1.368 . S
H885 C893 0.950 . S
H886 C891 0.950 . S
H887 C892 0.949 1_554 S
H888 C894 0.950 . S
H889 C895 0.950 . S
H890 C896 0.949 . S
C891 H886 0.950 . S
C891 C893 1.327 . S
C891 C897 1.429 . S
C892 C884 1.574 . S
C892 H887 0.949 1_556 S
C892 C898 1.368 . S
C893 C877 1.349 1_556 S
C893 H885 0.950 . S
C893 C891 1.327 . S
C894 C882 1.349 . S
C894 H888 0.950 . S
C894 C895 1.327 . S
C895 H889 0.950 . S
C895 C894 1.327 . S
C895 C899 1.429 . S
C896 C879 1.574 . S
C896 H890 0.949 . S
C896 C900 1.368 . S
C897 C878 1.429 1_556 S
C897 C891 1.429 . S
C897 C898 1.523 . S
C898 C879 1.368 . S
C898 C892 1.368 . S
C898 C897 1.523 . S
C899 C883 1.429 . S
C899 C895 1.429 . S
C899 C900 1.523 . S
C900 C884 1.368 . S
C900 C896 1.368 . S
C900 C899 1.523 . S
H901 C876 0.950 . S
H902 C878 0.950 . S
H903 C879 0.949 . S
H904 C881 0.950 . S
H905 C883 0.950 . S
C906 C907 1.349 . S
C906 C908 1.327 . S
C906 H931 0.950 . S
C907 C906 1.349 . S
C907 C923 1.349 . S
C908 C906 1.327 . S
C908 C927 1.429 . S
C908 H932 0.950 1_565 S
C909 C926 1.574 . S
C909 C928 1.368 . S
C909 H933 0.938 1_545 S
H910 C914 0.949 . S
C911 C912 1.349 . S
C911 C913 1.327 . S
C911 H934 0.950 . S
C912 C911 1.349 . S
C912 C924 1.349 . S
C913 C911 1.327 . S
C913 C929 1.429 . S
C913 H935 0.950 . S
C914 H910 0.949 . S
C914 C922 1.574 . S
C914 C930 1.368 . S
H915 C923 0.950 . S
H916 C921 0.950 . S
H917 C922 0.949 . S
H918 C924 0.950 . S
H919 C925 0.950 . S
H920 C926 0.949 . S
C921 H916 0.950 . S
C921 C923 1.327 . S
C921 C927 1.429 . S
C922 C914 1.574 . S
C922 H917 0.949 . S
C922 C928 1.368 . S
C923 C907 1.349 . S
C923 H915 0.950 . S
C923 C921 1.327 . S
C924 C912 1.349 . S
C924 H918 0.950 . S
C924 C925 1.327 . S
C925 H919 0.950 . S
C925 C924 1.327 . S
C925 C929 1.429 . S
C926 C909 1.574 . S
C926 H920 0.949 . S
C926 C930 1.368 . S
C927 C908 1.429 . S
C927 C921 1.429 . S
C927 C928 1.523 1_565 S
C928 C909 1.368 . S
C928 C922 1.368 . S
C928 C927 1.523 1_545 S
C929 C913 1.429 . S
C929 C925 1.429 . S
C929 C930 1.523 . S
C930 C914 1.368 . S
C930 C926 1.368 . S
C930 C929 1.523 . S
H931 C906 0.950 . S
H932 C908 0.950 1_545 S
H933 C909 0.938 1_565 S
H934 C911 0.950 . S
H935 C913 0.950 . S
C936 C937 1.349 . S
C936 C938 1.327 . S
C936 H961 0.950 . S
C937 C936 1.349 . S
C937 C953 1.349 . S
C938 C936 1.327 . S
C938 C957 1.429 . S
C938 H962 0.950 . S
C939 C956 1.574 . S
C939 C958 1.368 . S
C939 H963 0.949 . S
H940 C944 0.949 . S
C941 C942 1.349 . S
C941 C943 1.327 . S
C941 H964 0.950 . S
C942 C941 1.349 . S
C942 C954 1.349 . S
C943 C941 1.327 . S
C943 C959 1.429 . S
C943 H965 0.950 . S
C944 H940 0.949 . S
C944 C952 1.574 . S
C944 C960 1.368 . S
H945 C953 0.950 . S
H946 C951 0.950 . S
H947 C952 0.949 . S
H948 C954 0.950 . S
H949 C955 0.950 . S
H950 C956 0.949 . S
C951 H946 0.950 . S
C951 C953 1.327 . S
C951 C957 1.429 . S
C952 C944 1.574 . S
C952 H947 0.949 . S
C952 C958 1.368 . S
C953 C937 1.349 . S
C953 H945 0.950 . S
C953 C951 1.327 . S
C954 C942 1.349 . S
C954 H948 0.950 . S
C954 C955 1.327 . S
C955 H949 0.950 . S
C955 C954 1.327 . S
C955 C959 1.429 . S
C956 C939 1.574 . S
C956 H950 0.949 . S
C956 C960 1.368 . S
C957 C938 1.429 . S
C957 C951 1.429 . S
C957 C958 1.523 . S
C958 C939 1.368 . S
C958 C952 1.368 . S
C958 C957 1.523 . S
C959 C943 1.429 . S
C959 C955 1.429 . S
C959 C960 1.523 . S
C960 C944 1.368 . S
C960 C956 1.368 . S
C960 C959 1.523 . S
H961 C936 0.950 . S
H962 C938 0.950 . S
H963 C939 0.949 . S
H964 C941 0.950 . S
H965 C943 0.950 . S
C966 C967 1.349 . S
C966 C968 1.327 . S
C966 H991 0.950 . S
C967 C966 1.349 . S
C967 C983 1.349 . S
C968 C966 1.327 . S
C968 C987 1.429 . S
C968 H992 0.950 . S
C969 C986 1.574 . S
C969 C988 1.368 . S
C969 H993 0.949 . S
H970 C974 0.910 1_565 S
C971 C972 1.349 . S
C971 C973 1.327 . S
C971 H994 0.950 . S
C972 C971 1.349 . S
C972 C984 1.349 . S
C973 C971 1.327 . S
C973 C989 1.429 . S
C973 H995 0.950 1_565 S
C974 H970 0.910 1_545 S
C974 C982 1.574 . S
C974 C990 1.368 . S
H975 C983 0.950 . S
H976 C981 0.950 . S
H977 C982 0.949 . S
H978 C984 0.950 . S
H979 C985 0.950 . S
H980 C986 0.949 . S
C981 H976 0.950 . S
C981 C983 1.327 . S
C981 C987 1.429 . S
C982 C974 1.574 . S
C982 H977 0.949 . S
C982 C988 1.368 . S
C983 C967 1.349 . S
C983 H975 0.950 . S
C983 C981 1.327 . S
C984 C972 1.349 . S
C984 H978 0.950 . S
C984 C985 1.327 . S
C985 H979 0.950 . S
C985 C984 1.327 . S
C985 C989 1.429 . S
C986 C969 1.574 . S
C986 H980 0.949 . S
C986 C990 1.368 . S
C987 C968 1.429 . S
C987 C981 1.429 . S
C987 C988 1.523 . S
C988 C969 1.368 . S
C988 C982 1.368 . S
C988 C987 1.523 . S
C989 C973 1.429 . S
C989 C985 1.429 . S
C989 C990 1.523 1_565 S
C990 C974 1.368 . S
C990 C986 1.368 . S
C990 C989 1.523 1_545 S
H991 C966 0.950 . S
H992 C968 0.950 . S
H993 C969 0.949 . S
H994 C971 0.950 . S
H995 C973 0.950 1_545 S
C996 C997 1.349 . S
C996 C998 1.327 . S
C996 H1021 0.950 . S
C997 C996 1.349 . S
C997 C1013 1.349 . S
C998 C996 1.327 . S
C998 C1017 1.429 . S
C998 H1022 0.950 . S
C999 C1016 1.574 . S
C999 C1018 1.368 . S
C999 H1023 0.949 . S
H1000 C1004 0.949 . S
C1001 C1002 1.349 . S
C1001 C1003 1.327 . S
C1001 H1024 0.950 . S
C1002 C1001 1.349 . S
C1002 C1014 1.349 1_556 S
C1003 C1001 1.327 . S
C1003 C1019 1.429 1_556 S
C1003 H1025 0.950 . S
C1004 H1000 0.949 . S
C1004 C1012 1.574 . S
C1004 C1020 1.368 . S
H1005 C1013 0.950 . S
H1006 C1011 0.950 . S
H1007 C1012 0.949 . S
H1008 C1014 0.950 . S
H1009 C1015 0.950 . S
H1010 C1016 0.949 1_556 S
C1011 H1006 0.950 . S
C1011 C1013 1.327 . S
C1011 C1017 1.429 . S
C1012 C1004 1.574 . S
C1012 H1007 0.949 . S
C1012 C1018 1.368 . S
C1013 C997 1.349 . S
C1013 H1005 0.950 . S
C1013 C1011 1.327 . S
C1014 C1002 1.349 1_554 S
C1014 H1008 0.950 . S
C1014 C1015 1.327 . S
C1015 H1009 0.950 . S
C1015 C1014 1.327 . S
C1015 C1019 1.429 . S
C1016 C999 1.574 . S
C1016 H1010 0.949 1_554 S
C1016 C1020 1.368 . S
C1017 C998 1.429 . S
C1017 C1011 1.429 . S
C1017 C1018 1.523 . S
C1018 C999 1.368 . S
C1018 C1012 1.368 . S
C1018 C1017 1.523 . S
C1019 C1003 1.429 1_554 S
C1019 C1015 1.429 . S
C1019 C1020 1.523 . S
C1020 C1004 1.368 . S
C1020 C1016 1.368 . S
C1020 C1019 1.523 . S
H1021 C996 0.950 . S
H1022 C998 0.950 . S
H1023 C999 0.949 . S
H1024 C1001 0.950 . S
H1025 C1003 0.950 . S
C1026 C1027 1.349 . S
C1026 C1028 1.327 . S
C1026 H1051 0.950 . S
C1027 C1026 1.349 . S
C1027 C1043 1.349 . S
C1028 C1026 1.327 . S
C1028 C1047 1.429 . S
C1028 H1052 0.950 . S
C1029 C1046 1.574 . S
C1029 C1048 1.368 . S
C1029 H1053 0.949 . S
H1030 C1034 0.949 . S
C1031 C1032 1.349 . S
C1031 C1033 1.327 . S
C1031 H1054 0.950 . S
C1032 C1031 1.349 . S
C1032 C1044 1.349 . S
C1033 C1031 1.327 . S
C1033 C1049 1.429 . S
C1033 H1055 0.950 . S
C1034 H1030 0.949 . S
C1034 C1042 1.574 . S
C1034 C1050 1.368 . S
H1035 C1043 0.950 . S
H1036 C1041 0.950 . S
H1037 C1042 0.949 . S
H1038 C1044 0.950 . S
H1039 C1045 0.950 . S
H1040 C1046 0.949 . S
C1041 H1036 0.950 . S
C1041 C1043 1.327 . S
C1041 C1047 1.429 . S
C1042 C1034 1.574 . S
C1042 H1037 0.949 . S
C1042 C1048 1.368 . S
C1043 C1027 1.349 . S
C1043 H1035 0.950 . S
C1043 C1041 1.327 . S
C1044 C1032 1.349 . S
C1044 H1038 0.950 . S
C1044 C1045 1.327 . S
C1045 H1039 0.950 . S
C1045 C1044 1.327 . S
C1045 C1049 1.429 . S
C1046 C1029 1.574 . S
C1046 H1040 0.949 . S
C1046 C1050 1.368 . S
C1047 C1028 1.429 . S
C1047 C1041 1.429 . S
C1047 C1048 1.523 1_545 S
C1048 C1029 1.368 . S
C1048 C1042 1.368 . S
C1048 C1047 1.523 1_565 S
C1049 C1033 1.429 . S
C1049 C1045 1.429 . S
C1049 C1050 1.523 . S
C1050 C1034 1.368 . S
C1050 C1046 1.368 . S
C1050 C1049 1.523 . S
H1051 C1026 0.950 . S
H1052 C1028 0.950 . S
H1053 C1029 0.949 . S
H1054 C1031 0.950 . S
H1055 C1033 0.950 . S
C1056 C1057 1.349 . S
C1056 C1058 1.327 . S
C1056 H1081 0.950 . S
C1057 C1056 1.349 . S
C1057 C1073 1.349 . S
C1058 C1056 1.327 . S
C1058 C1077 1.429 . S
C1058 H1082 0.950 . S
C1059 C1076 1.574 . S
C1059 C1078 1.368 . S
C1059 H1083 0.949 . S
H1060 C1064 0.949 . S
C1061 C1062 1.349 . S
C1061 C1063 1.327 . S
C1061 H1084 0.950 . S
C1062 C1061 1.349 . S
C1062 C1074 1.349 . S
C1063 C1061 1.327 . S
C1063 C1079 1.429 . S
C1063 H1085 0.950 . S
C1064 H1060 0.949 . S
C1064 C1072 1.574 . S
C1064 C1080 1.368 . S
H1065 C1073 0.950 . S
H1066 C1071 0.950 . S
H1067 C1072 0.949 . S
H1068 C1074 0.950 . S
H1069 C1075 0.950 . S
H1070 C1076 0.949 . S
C1071 H1066 0.950 . S
C1071 C1073 1.327 . S
C1071 C1077 1.429 . S
C1072 C1064 1.574 . S
C1072 H1067 0.949 . S
C1072 C1078 1.368 . S
C1073 C1057 1.349 . S
C1073 H1065 0.950 . S
C1073 C1071 1.327 . S
C1074 C1062 1.349 . S
C1074 H1068 0.950 . S
C1074 C1075 1.327 . S
C1075 H1069 0.950 . S
C1075 C1074 1.327 . S
C1075 C1079 1.429 . S
C1076 C1059 1.574 . S
C1076 H1070 0.949 . S
C1076 C1080 1.368 . S
C1077 C1058 1.429 . S
C1077 C1071 1.429 . S
C1077 C1078 1.523 . S
C1078 C1059 1.368 . S
C1078 C1072 1.368 . S
C1078 C1077 1.523 . S
C1079 C1063 1.429 . S
C1079 C1075 1.429 . S
C1079 C1080 1.523 . S
C1080 C1064 1.368 . S
C1080 C1076 1.368 . S
C1080 C1079 1.523 . S
H1081 C1056 0.950 . S
H1082 C1058 0.950 . S
H1083 C1059 0.949 . S
H1084 C1061 0.950 . S
H1085 C1063 0.950 . S
C1086 C1087 1.349 . S
C1086 C1088 1.327 . S
C1086 H1111 0.950 . S
C1087 C1086 1.349 . S
C1087 C1103 1.349 . S
C1088 C1086 1.327 . S
C1088 C1107 1.429 . S
C1088 H1112 0.950 . S
C1089 C1106 1.574 . S
C1089 C1108 1.368 . S
C1089 H1113 0.949 . S
H1090 C1094 0.949 . S
C1091 C1092 1.349 . S
C1091 C1093 1.327 . S
C1091 H1114 0.950 . S
C1092 C1091 1.349 . S
C1092 C1104 1.351 . S
C1093 C1091 1.327 . S
C1093 C1109 1.429 . S
C1093 H1115 0.950 . S
C1094 H1090 0.949 . S
C1094 C1102 1.574 . S
C1094 C1110 1.368 . S
H1095 C1103 0.950 . S
H1096 C1101 0.950 . S
H1097 C1102 0.949 . S
H1098 C1104 0.935 1_556 S
H1099 C1105 0.950 . S
H1100 C1106 0.949 . S
C1101 H1096 0.950 . S
C1101 C1103 1.327 . S
C1101 C1107 1.429 . S
C1102 C1094 1.574 . S
C1102 H1097 0.949 . S
C1102 C1108 1.368 . S
C1103 C1087 1.349 . S
C1103 H1095 0.950 . S
C1103 C1101 1.327 . S
C1104 C1092 1.351 . S
C1104 H1098 0.935 1_554 S
C1104 C1105 1.339 . S
C1105 H1099 0.950 . S
C1105 C1104 1.339 . S
C1105 C1109 1.429 . S
C1106 C1089 1.574 . S
C1106 H1100 0.949 . S
C1106 C1110 1.368 . S
C1107 C1088 1.429 . S
C1107 C1101 1.429 . S
C1107 C1108 1.523 . S
C1108 C1089 1.368 . S
C1108 C1102 1.368 . S
C1108 C1107 1.523 . S
C1109 C1093 1.429 . S
C1109 C1105 1.429 . S
C1109 C1110 1.523 . S
C1110 C1094 1.368 . S
C1110 C1106 1.368 . S
C1110 C1109 1.523 . S
H1111 C1086 0.950 . S
H1112 C1088 0.950 . S
H1113 C1089 0.949 . S
H1114 C1091 0.950 . S
H1115 C1093 0.950 . S
C1116 C1117 1.349 . S
C1116 C1118 1.327 . S
C1116 H1141 0.950 . S
C1117 C1116 1.349 . S
C1117 C1133 1.349 . S
C1118 C1116 1.327 . S
C1118 C1137 1.429 1_655 S
C1118 H1142 0.950 1_655 S
C1119 C1136 1.574 . S
C1119 C1138 1.368 . S
C1119 H1143 0.949 . S
H1120 C1124 0.949 . S
C1121 C1122 1.349 . S
C1121 C1123 1.327 . S
C1121 H1144 0.950 . S
C1122 C1121 1.349 . S
C1122 C1134 1.349 . S
C1123 C1121 1.327 . S
C1123 C1139 1.429 . S
C1123 H1145 0.950 . S
C1124 H1120 0.949 . S
C1124 C1132 1.574 . S
C1124 C1140 1.368 . S
H1125 C1133 0.950 . S
H1126 C1131 0.950 . S
H1127 C1132 0.949 . S
H1128 C1134 0.950 . S
H1129 C1135 0.950 . S
H1130 C1136 0.949 . S
C1131 H1126 0.950 . S
C1131 C1133 1.327 1_455 S
C1131 C1137 1.429 . S
C1132 C1124 1.574 . S
C1132 H1127 0.949 . S
C1132 C1138 1.368 . S
C1133 C1117 1.349 . S
C1133 H1125 0.950 . S
C1133 C1131 1.327 1_655 S
C1134 C1122 1.349 . S
C1134 H1128 0.950 . S
C1134 C1135 1.327 . S
C1135 H1129 0.950 . S
C1135 C1134 1.327 . S
C1135 C1139 1.429 . S
C1136 C1119 1.574 . S
C1136 H1130 0.949 . S
C1136 C1140 1.368 . S
C1137 C1118 1.429 1_455 S
C1137 C1131 1.429 . S
C1137 C1138 1.523 . S
C1138 C1119 1.368 . S
C1138 C1132 1.368 . S
C1138 C1137 1.523 . S
C1139 C1123 1.429 . S
C1139 C1135 1.429 . S
C1139 C1140 1.523 . S
C1140 C1124 1.368 . S
C1140 C1136 1.368 . S
C1140 C1139 1.523 . S
H1141 C1116 0.950 . S
H1142 C1118 0.950 1_455 S
H1143 C1119 0.949 . S
H1144 C1121 0.950 . S
H1145 C1123 0.950 . S
C1146 C1147 1.349 . S
C1146 C1148 1.327 . S
C1146 H1171 0.950 . S
C1147 C1146 1.349 . S
C1147 C1163 1.349 . S
C1148 C1146 1.327 . S
C1148 C1167 1.429 . S
C1148 H1172 0.950 . S
C1149 C1166 1.574 . S
C1149 C1168 1.368 . S
C1149 H1173 0.949 . S
H1150 C1154 0.949 . S
C1151 C1152 1.349 . S
C1151 C1153 1.327 . S
C1151 H1174 0.950 . S
C1152 C1151 1.349 . S
C1152 C1164 1.349 . S
C1153 C1151 1.327 . S
C1153 C1169 1.429 . S
C1153 H1175 0.950 . S
C1154 H1150 0.949 . S
C1154 C1162 1.574 . S
C1154 C1170 1.368 . S
H1155 C1163 0.950 . S
H1156 C1161 0.950 . S
H1157 C1162 0.949 . S
H1158 C1164 0.950 . S
H1159 C1165 0.950 . S
H1160 C1166 0.949 . S
C1161 H1156 0.950 . S
C1161 C1163 1.327 . S
C1161 C1167 1.429 . S
C1162 C1154 1.574 . S
C1162 H1157 0.949 . S
C1162 C1168 1.368 . S
C1163 C1147 1.349 . S
C1163 H1155 0.950 . S
C1163 C1161 1.327 . S
C1164 C1152 1.349 . S
C1164 H1158 0.950 . S
C1164 C1165 1.327 . S
C1165 H1159 0.950 . S
C1165 C1164 1.327 . S
C1165 C1169 1.429 . S
C1166 C1149 1.574 . S
C1166 H1160 0.949 . S
C1166 C1170 1.368 . S
C1167 C1148 1.429 . S
C1167 C1161 1.429 . S
C1167 C1168 1.523 . S
C1168 C1149 1.368 . S
C1168 C1162 1.368 . S
C1168 C1167 1.523 . S
C1169 C1153 1.429 . S
C1169 C1165 1.429 . S
C1169 C1170 1.523 . S
C1170 C1154 1.368 . S
C1170 C1166 1.368 . S
C1170 C1169 1.523 . S
H1171 C1146 0.950 . S
H1172 C1148 0.950 . S
H1173 C1149 0.949 . S
H1174 C1151 0.950 . S
H1175 C1153 0.950 . S
C1176 C1177 1.349 . S
C1176 C1178 1.327 . S
C1176 H1201 0.950 . S
C1177 C1176 1.349 . S
C1177 C1193 1.349 . S
C1178 C1176 1.327 . S
C1178 C1197 1.429 . S
C1178 H1202 0.950 . S
C1179 C1196 1.574 . S
C1179 C1198 1.368 . S
C1179 H1203 0.949 . S
H1180 C1184 0.949 . S
C1181 C1182 1.349 . S
C1181 C1183 1.327 . S
C1181 H1204 0.950 . S
C1182 C1181 1.349 . S
C1182 C1194 1.349 . S
C1183 C1181 1.327 . S
C1183 C1199 1.429 . S
C1183 H1205 0.950 . S
C1184 H1180 0.949 . S
C1184 C1192 1.574 . S
C1184 C1200 1.368 . S
H1185 C1193 0.950 1_556 S
H1186 C1191 0.950 . S
H1187 C1192 0.949 . S
H1188 C1194 0.950 . S
H1189 C1195 0.950 . S
H1190 C1196 0.949 . S
C1191 H1186 0.950 . S
C1191 C1193 1.327 . S
C1191 C1197 1.429 . S
C1192 C1184 1.574 . S
C1192 H1187 0.949 . S
C1192 C1198 1.368 . S
C1193 C1177 1.349 . S
C1193 H1185 0.950 1_554 S
C1193 C1191 1.327 . S
C1194 C1182 1.349 . S
C1194 H1188 0.950 . S
C1194 C1195 1.327 . S
C1195 H1189 0.950 . S
C1195 C1194 1.327 . S
C1195 C1199 1.429 . S
C1196 C1179 1.574 . S
C1196 H1190 0.949 . S
C1196 C1200 1.368 . S
C1197 C1178 1.429 . S
C1197 C1191 1.429 . S
C1197 C1198 1.523 . S
C1198 C1179 1.368 . S
C1198 C1192 1.368 . S
C1198 C1197 1.523 . S
C1199 C1183 1.429 . S
C1199 C1195 1.429 . S
C1199 C1200 1.523 . S
C1200 C1184 1.368 . S
C1200 C1196 1.368 . S
C1200 C1199 1.523 . S
H1201 C1176 0.950 . S
H1202 C1178 0.950 . S
H1203 C1179 0.949 . S
H1204 C1181 0.950 . S
H1205 C1183 0.950 . S
C1206 C1207 1.349 . S
C1206 C1208 1.327 . S
C1206 H1231 0.950 . S
C1207 C1206 1.349 . S
C1207 C1223 1.349 . S
C1208 C1206 1.327 . S
C1208 C1227 1.429 . S
C1208 H1232 0.950 . S
C1209 C1226 1.574 . S
C1209 C1228 1.368 . S
C1209 H1233 0.949 . S
H1210 C1214 0.949 . S
C1211 C1212 1.349 . S
C1211 C1213 1.327 . S
C1211 H1234 0.950 . S
C1212 C1211 1.349 . S
C1212 C1224 1.349 . S
C1213 C1211 1.327 . S
C1213 C1229 1.429 . S
C1213 H1235 0.950 . S
C1214 H1210 0.949 . S
C1214 C1222 1.574 . S
C1214 C1230 1.368 . S
H1215 C1223 0.950 . S
H1216 C1221 0.950 . S
H1217 C1222 0.949 . S
H1218 C1224 0.950 1_554 S
H1219 C1225 0.950 . S
H1220 C1226 0.949 . S
C1221 H1216 0.950 . S
C1221 C1223 1.327 . S
C1221 C1227 1.429 . S
C1222 C1214 1.574 . S
C1222 H1217 0.949 . S
C1222 C1228 1.368 . S
C1223 C1207 1.349 . S
C1223 H1215 0.950 . S
C1223 C1221 1.327 . S
C1224 C1212 1.349 . S
C1224 H1218 0.950 1_556 S
C1224 C1225 1.327 . S
C1225 H1219 0.950 . S
C1225 C1224 1.327 . S
C1225 C1229 1.429 . S
C1226 C1209 1.574 . S
C1226 H1220 0.949 . S
C1226 C1230 1.368 . S
C1227 C1208 1.429 . S
C1227 C1221 1.429 . S
C1227 C1228 1.523 . S
C1228 C1209 1.368 . S
C1228 C1222 1.368 . S
C1228 C1227 1.523 . S
C1229 C1213 1.429 . S
C1229 C1225 1.429 . S
C1229 C1230 1.523 . S
C1230 C1214 1.368 . S
C1230 C1226 1.368 . S
C1230 C1229 1.523 . S
H1231 C1206 0.950 . S
H1232 C1208 0.950 . S
H1233 C1209 0.949 . S
H1234 C1211 0.950 . S
H1235 C1213 0.950 . S
C1236 C1237 1.349 . S
C1236 C1238 1.327 . S
C1236 H1261 0.950 . S
C1237 C1236 1.349 . S
C1237 C1253 1.349 . S
C1238 C1236 1.327 . S
C1238 C1257 1.429 1_455 S
C1238 H1262 0.950 . S
C1239 C1256 1.574 . S
C1239 C1258 1.368 . S
C1239 H1263 0.949 . S
H1240 C1244 0.949 . S
C1241 C1242 1.349 . S
C1241 C1243 1.327 . S
C1241 H1264 0.950 . S
C1242 C1241 1.349 . S
C1242 C1254 1.349 . S
C1243 C1241 1.327 . S
C1243 C1259 1.429 . S
C1243 H1265 0.950 . S
C1244 H1240 0.949 . S
C1244 C1252 1.574 . S
C1244 C1260 1.368 . S
H1245 C1253 0.950 1_655 S
H1246 C1251 0.950 . S
H1247 C1252 0.949 . S
H1248 C1254 0.950 . S
H1249 C1255 0.950 . S
H1250 C1256 0.949 . S
C1251 H1246 0.950 . S
C1251 C1253 1.327 1_655 S
C1251 C1257 1.429 . S
C1252 C1244 1.574 . S
C1252 H1247 0.949 . S
C1252 C1258 1.368 . S
C1253 C1237 1.349 . S
C1253 H1245 0.950 1_455 S
C1253 C1251 1.327 1_455 S
C1254 C1242 1.349 . S
C1254 H1248 0.950 . S
C1254 C1255 1.327 . S
C1255 H1249 0.950 . S
C1255 C1254 1.327 . S
C1255 C1259 1.429 . S
C1256 C1239 1.574 . S
C1256 H1250 0.949 . S
C1256 C1260 1.368 . S
C1257 C1238 1.429 1_655 S
C1257 C1251 1.429 . S
C1257 C1258 1.523 . S
C1258 C1239 1.368 . S
C1258 C1252 1.368 . S
C1258 C1257 1.523 . S
C1259 C1243 1.429 . S
C1259 C1255 1.429 . S
C1259 C1260 1.523 . S
C1260 C1244 1.368 . S
C1260 C1256 1.368 . S
C1260 C1259 1.523 . S
H1261 C1236 0.950 . S
H1262 C1238 0.950 . S
H1263 C1239 0.949 . S
H1264 C1241 0.950 . S
H1265 C1243 0.950 . S
C1266 C1267 1.349 . S
C1266 C1268 1.327 . S
C1266 H1291 0.950 . S
C1267 C1266 1.349 . S
C1267 C1283 1.349 . S
C1268 C1266 1.327 . S
C1268 C1287 1.429 . S
C1268 H1292 0.950 . S
C1269 C1286 1.574 . S
C1269 C1288 1.368 . S
C1269 H1293 0.949 . S
H1270 C1274 0.949 . S
C1271 C1272 1.349 . S
C1271 C1273 1.327 . S
C1271 H1294 0.950 . S
C1272 C1271 1.349 . S
C1272 C1284 1.349 . S
C1273 C1271 1.327 . S
C1273 C1289 1.429 . S
C1273 H1295 0.950 . S
C1274 H1270 0.949 . S
C1274 C1282 1.574 . S
C1274 C1290 1.368 . S
H1275 C1283 0.950 . S
H1276 C1281 0.950 . S
H1277 C1282 0.949 . S
H1278 C1284 0.950 . S
H1279 C1285 0.950 . S
H1280 C1286 0.949 . S
C1281 H1276 0.950 . S
C1281 C1283 1.327 . S
C1281 C1287 1.429 . S
C1282 C1274 1.574 . S
C1282 H1277 0.949 . S
C1282 C1288 1.368 . S
C1283 C1267 1.349 . S
C1283 H1275 0.950 . S
C1283 C1281 1.327 . S
C1284 C1272 1.349 . S
C1284 H1278 0.950 . S
C1284 C1285 1.327 . S
C1285 H1279 0.950 . S
C1285 C1284 1.327 . S
C1285 C1289 1.429 . S
C1286 C1269 1.574 . S
C1286 H1280 0.949 . S
C1286 C1290 1.368 . S
C1287 C1268 1.429 . S
C1287 C1281 1.429 . S
C1287 C1288 1.523 . S
C1288 C1269 1.368 . S
C1288 C1282 1.368 . S
C1288 C1287 1.523 . S
C1289 C1273 1.429 . S
C1289 C1285 1.429 . S
C1289 C1290 1.523 . S
C1290 C1274 1.368 . S
C1290 C1286 1.368 . S
C1290 C1289 1.523 . S
H1291 C1266 0.950 . S
H1292 C1268 0.950 . S
H1293 C1269 0.949 . S
H1294 C1271 0.950 . S
H1295 C1273 0.950 . S
C1296 C1297 1.349 . S
C1296 C1298 1.327 . S
C1296 H1321 0.950 . S
C1297 C1296 1.349 . S
C1297 C1313 1.349 . S
C1298 C1296 1.327 . S
C1298 C1317 1.429 . S
C1298 H1322 0.950 . S
C1299 C1316 1.574 . S
C1299 C1318 1.368 . S
C1299 H1323 0.949 . S
H1300 C1304 0.949 . S
C1301 C1302 1.349 . S
C1301 C1303 1.327 1_455 S
C1301 H1324 0.950 . S
C1302 C1301 1.349 . S
C1302 C1314 1.349 . S
C1303 C1301 1.327 1_655 S
C1303 C1319 1.429 . S
C1303 H1325 0.950 . S
C1304 H1300 0.949 . S
C1304 C1312 1.574 . S
C1304 C1320 1.368 . S
H1305 C1313 0.950 . S
H1306 C1311 0.950 . S
H1307 C1312 0.949 . S
H1308 C1314 0.950 . S
H1309 C1315 0.950 . S
H1310 C1316 0.949 . S
C1311 H1306 0.950 . S
C1311 C1313 1.327 . S
C1311 C1317 1.429 . S
C1312 C1304 1.574 . S
C1312 H1307 0.949 . S
C1312 C1318 1.368 . S
C1313 C1297 1.349 . S
C1313 H1305 0.950 . S
C1313 C1311 1.327 . S
C1314 C1302 1.349 . S
C1314 H1308 0.950 . S
C1314 C1315 1.327 . S
C1315 H1309 0.950 . S
C1315 C1314 1.327 . S
C1315 C1319 1.429 1_455 S
C1316 C1299 1.574 . S
C1316 H1310 0.949 . S
C1316 C1320 1.368 . S
C1317 C1298 1.429 . S
C1317 C1311 1.429 . S
C1317 C1318 1.523 . S
C1318 C1299 1.368 . S
C1318 C1312 1.368 . S
C1318 C1317 1.523 . S
C1319 C1303 1.429 . S
C1319 C1315 1.429 1_655 S
C1319 C1320 1.523 . S
C1320 C1304 1.368 . S
C1320 C1316 1.368 . S
C1320 C1319 1.523 . S
H1321 C1296 0.950 . S
H1322 C1298 0.950 . S
H1323 C1299 0.949 . S
H1324 C1301 0.950 . S
H1325 C1303 0.950 . S
C1326 C1327 1.349 . S
C1326 C1328 1.327 . S
C1326 H1351 0.950 . S
C1327 C1326 1.349 . S
C1327 C1343 1.349 . S
C1328 C1326 1.327 . S
C1328 C1347 1.429 . S
C1328 H1352 0.950 . S
C1329 C1346 1.574 . S
C1329 C1348 1.368 . S
C1329 H1353 0.949 . S
H1330 C1334 0.949 . S
C1331 C1332 1.349 . S
C1331 C1333 1.327 . S
C1331 H1354 0.950 . S
C1332 C1331 1.349 . S
C1332 C1344 1.349 . S
C1333 C1331 1.327 . S
C1333 C1349 1.429 . S
C1333 H1355 0.950 . S
C1334 H1330 0.949 . S
C1334 C1342 1.574 . S
C1334 C1350 1.368 . S
H1335 C1343 0.950 . S
H1336 C1341 0.950 . S
H1337 C1342 0.949 . S
H1338 C1344 0.950 . S
H1339 C1345 0.950 . S
H1340 C1346 0.949 . S
C1341 H1336 0.950 . S
C1341 C1343 1.327 . S
C1341 C1347 1.429 . S
C1342 C1334 1.574 . S
C1342 H1337 0.949 . S
C1342 C1348 1.368 . S
C1343 C1327 1.349 . S
C1343 H1335 0.950 . S
C1343 C1341 1.327 . S
C1344 C1332 1.349 . S
C1344 H1338 0.950 . S
C1344 C1345 1.327 . S
C1345 H1339 0.950 . S
C1345 C1344 1.327 . S
C1345 C1349 1.429 . S
C1346 C1329 1.574 . S
C1346 H1340 0.949 . S
C1346 C1350 1.368 . S
C1347 C1328 1.429 . S
C1347 C1341 1.429 . S
C1347 C1348 1.523 . S
C1348 C1329 1.368 . S
C1348 C1342 1.368 . S
C1348 C1347 1.523 . S
C1349 C1333 1.429 . S
C1349 C1345 1.429 . S
C1349 C1350 1.523 . S
C1350 C1334 1.368 . S
C1350 C1346 1.368 . S
C1350 C1349 1.523 . S
H1351 C1326 0.950 . S
H1352 C1328 0.950 . S
H1353 C1329 0.949 . S
H1354 C1331 0.950 . S
H1355 C1333 0.950 . S
C1356 C1357 1.349 . S
C1356 C1358 1.327 . S
C1356 H1381 0.950 . S
C1357 C1356 1.349 . S
C1357 C1373 1.349 . S
C1358 C1356 1.327 . S
C1358 C1377 1.429 . S
C1358 H1382 0.950 . S
C1359 C1376 1.574 . S
C1359 C1378 1.368 . S
C1359 H1383 0.949 . S
H1360 C1364 0.949 . S
C1361 C1362 1.349 . S
C1361 C1363 1.327 . S
C1361 H1384 0.950 . S
C1362 C1361 1.349 . S
C1362 C1374 1.349 . S
C1363 C1361 1.327 . S
C1363 C1379 1.429 . S
C1363 H1385 0.950 . S
C1364 H1360 0.949 . S
C1364 C1372 1.574 . S
C1364 C1380 1.368 . S
H1365 C1373 0.950 . S
H1366 C1371 0.950 . S
H1367 C1372 0.949 . S
H1368 C1374 0.954 . S
H1369 C1375 0.950 . S
H1370 C1376 0.949 . S
C1371 H1366 0.950 . S
C1371 C1373 1.327 . S
C1371 C1377 1.429 . S
C1372 C1364 1.574 . S
C1372 H1367 0.949 . S
C1372 C1378 1.368 . S
C1373 C1357 1.349 . S
C1373 H1365 0.950 . S
C1373 C1371 1.327 . S
C1374 C1362 1.349 . S
C1374 H1368 0.954 . S
C1374 C1375 1.327 . S
C1375 H1369 0.950 . S
C1375 C1374 1.327 . S
C1375 C1379 1.429 . S
C1376 C1359 1.574 . S
C1376 H1370 0.949 . S
C1376 C1380 1.368 . S
C1377 C1358 1.429 . S
C1377 C1371 1.429 . S
C1377 C1378 1.523 . S
C1378 C1359 1.368 . S
C1378 C1372 1.368 . S
C1378 C1377 1.523 . S
C1379 C1363 1.429 . S
C1379 C1375 1.429 . S
C1379 C1380 1.523 . S
C1380 C1364 1.368 . S
C1380 C1376 1.368 . S
C1380 C1379 1.523 . S
H1381 C1356 0.950 . S
H1382 C1358 0.950 . S
H1383 C1359 0.949 . S
H1384 C1361 0.950 . S
H1385 C1363 0.950 . S
C1386 C1387 1.349 . S
C1386 C1388 1.327 . S
C1386 H1411 0.950 1_554 S
C1387 C1386 1.349 . S
C1387 C1403 1.349 . S
C1388 C1386 1.327 . S
C1388 C1407 1.429 . S
C1388 H1412 0.950 . S
C1389 C1406 1.574 . S
C1389 C1408 1.368 . S
C1389 H1413 0.949 . S
H1390 C1394 0.949 . S
C1391 C1392 1.349 . S
C1391 C1393 1.327 . S
C1391 H1414 0.950 . S
C1392 C1391 1.349 . S
C1392 C1404 1.349 . S
C1393 C1391 1.327 . S
C1393 C1409 1.429 . S
C1393 H1415 0.950 . S
C1394 H1390 0.949 . S
C1394 C1402 1.574 . S
C1394 C1410 1.368 . S
H1395 C1403 0.950 . S
H1396 C1401 0.950 . S
H1397 C1402 0.949 . S
H1398 C1404 0.950 . S
H1399 C1405 0.950 . S
H1400 C1406 0.949 . S
C1401 H1396 0.950 . S
C1401 C1403 1.327 . S
C1401 C1407 1.429 . S
C1402 C1394 1.574 . S
C1402 H1397 0.949 . S
C1402 C1408 1.368 . S
C1403 C1387 1.349 . S
C1403 H1395 0.950 . S
C1403 C1401 1.327 . S
C1404 C1392 1.349 . S
C1404 H1398 0.950 . S
C1404 C1405 1.327 . S
C1405 H1399 0.950 . S
C1405 C1404 1.327 . S
C1405 C1409 1.429 . S
C1406 C1389 1.574 . S
C1406 H1400 0.949 . S
C1406 C1410 1.368 . S
C1407 C1388 1.429 . S
C1407 C1401 1.429 . S
C1407 C1408 1.523 . S
C1408 C1389 1.368 . S
C1408 C1402 1.368 . S
C1408 C1407 1.523 . S
C1409 C1393 1.429 . S
C1409 C1405 1.429 . S
C1409 C1410 1.523 . S
C1410 C1394 1.368 . S
C1410 C1406 1.368 . S
C1410 C1409 1.523 . S
H1411 C1386 0.950 1_556 S
H1412 C1388 0.950 . S
H1413 C1389 0.949 . S
H1414 C1391 0.950 . S
H1415 C1393 0.950 . S
C1416 C1417 1.349 . S
C1416 C1418 1.327 . S
C1416 H1441 0.950 . S
C1417 C1416 1.349 . S
C1417 C1433 1.349 . S
C1418 C1416 1.327 . S
C1418 C1437 1.429 . S
C1418 H1442 0.950 . S
C1419 C1436 1.574 . S
C1419 C1438 1.368 . S
C1419 H1443 0.949 . S
H1420 C1424 0.949 . S
C1421 C1422 1.349 . S
C1421 C1423 1.329 1_655 S
C1421 H1444 0.950 . S
C1422 C1421 1.349 . S
C1422 C1434 1.349 . S
C1423 C1421 1.329 1_455 S
C1423 C1439 1.428 . S
C1423 H1445 0.949 . S
C1424 H1420 0.949 . S
C1424 C1432 1.574 . S
C1424 C1440 1.368 . S
H1425 C1433 0.950 . S
H1426 C1431 0.950 . S
H1427 C1432 0.949 . S
H1428 C1434 0.950 . S
H1429 C1435 0.959 . S
H1430 C1436 0.949 . S
C1431 H1426 0.950 . S
C1431 C1433 1.327 . S
C1431 C1437 1.429 . S
C1432 C1424 1.574 . S
C1432 H1427 0.949 . S
C1432 C1438 1.368 . S
C1433 C1417 1.349 . S
C1433 H1425 0.950 . S
C1433 C1431 1.327 . S
C1434 C1422 1.349 . S
C1434 H1428 0.950 . S
C1434 C1435 1.309 1_655 S
C1435 H1429 0.959 . S
C1435 C1434 1.309 1_455 S
C1435 C1439 1.438 . S
C1436 C1419 1.574 . S
C1436 H1430 0.949 . S
C1436 C1440 1.368 . S
C1437 C1418 1.429 . S
C1437 C1431 1.429 . S
C1437 C1438 1.523 . S
C1438 C1419 1.368 . S
C1438 C1432 1.368 . S
C1438 C1437 1.523 . S
C1439 C1423 1.428 . S
C1439 C1435 1.438 . S
C1439 C1440 1.523 . S
C1440 C1424 1.368 . S
C1440 C1436 1.368 . S
C1440 C1439 1.523 . S
H1441 C1416 0.950 . S
H1442 C1418 0.950 . S
H1443 C1419 0.949 . S
H1444 C1421 0.950 . S
H1445 C1423 0.949 . S
C1446 C1447 1.349 . S
C1446 C1448 1.327 . S
C1446 H1471 0.950 . S
C1447 C1446 1.349 . S
C1447 C1463 1.349 . S
C1448 C1446 1.327 . S
C1448 C1467 1.429 . S
C1448 H1472 0.950 . S
C1449 C1466 1.574 . S
C1449 C1468 1.368 . S
C1449 H1473 0.949 . S
H1450 C1454 0.949 . S
C1451 C1452 1.349 . S
C1451 C1453 1.327 . S
C1451 H1474 0.950 . S
C1452 C1451 1.349 . S
C1452 C1464 1.349 . S
C1453 C1451 1.327 . S
C1453 C1469 1.429 . S
C1453 H1475 0.950 . S
C1454 H1450 0.949 . S
C1454 C1462 1.574 . S
C1454 C1470 1.368 . S
H1455 C1463 0.950 . S
H1456 C1461 0.950 . S
H1457 C1462 0.949 . S
H1458 C1464 0.950 . S
H1459 C1465 0.950 . S
H1460 C1466 0.949 . S
C1461 H1456 0.950 . S
C1461 C1463 1.327 . S
C1461 C1467 1.429 . S
C1462 C1454 1.574 . S
C1462 H1457 0.949 . S
C1462 C1468 1.368 . S
C1463 C1447 1.349 . S
C1463 H1455 0.950 . S
C1463 C1461 1.327 . S
C1464 C1452 1.349 . S
C1464 H1458 0.950 . S
C1464 C1465 1.327 . S
C1465 H1459 0.950 . S
C1465 C1464 1.327 . S
C1465 C1469 1.429 . S
C1466 C1449 1.574 . S
C1466 H1460 0.949 . S
C1466 C1470 1.368 . S
C1467 C1448 1.429 . S
C1467 C1461 1.429 . S
C1467 C1468 1.523 . S
C1468 C1449 1.368 . S
C1468 C1462 1.368 . S
C1468 C1467 1.523 . S
C1469 C1453 1.429 . S
C1469 C1465 1.429 . S
C1469 C1470 1.523 . S
C1470 C1454 1.368 . S
C1470 C1466 1.368 . S
C1470 C1469 1.523 . S
H1471 C1446 0.950 . S
H1472 C1448 0.950 . S
H1473 C1449 0.949 . S
H1474 C1451 0.950 . S
H1475 C1453 0.950 . S
C1476 C1477 1.349 . S
C1476 C1478 1.327 . S
C1476 H1501 0.950 1_554 S
C1477 C1476 1.349 . S
C1477 C1493 1.349 . S
C1478 C1476 1.327 . S
C1478 C1497 1.429 . S
C1478 H1502 0.950 . S
C1479 C1496 1.574 . S
C1479 C1498 1.368 . S
C1479 H1503 0.949 . S
H1480 C1484 0.949 . S
C1481 C1482 1.349 . S
C1481 C1483 1.327 . S
C1481 H1504 0.950 . S
C1482 C1481 1.349 . S
C1482 C1494 1.349 . S
C1483 C1481 1.327 . S
C1483 C1499 1.429 . S
C1483 H1505 0.950 . S
C1484 H1480 0.949 . S
C1484 C1492 1.574 . S
C1484 C1500 1.368 . S
H1485 C1493 0.950 . S
H1486 C1491 0.950 . S
H1487 C1492 0.949 . S
H1488 C1494 0.950 . S
H1489 C1495 0.950 . S
H1490 C1496 0.949 . S
C1491 H1486 0.950 . S
C1491 C1493 1.327 . S
C1491 C1497 1.429 . S
C1492 C1484 1.574 . S
C1492 H1487 0.949 . S
C1492 C1498 1.368 . S
C1493 C1477 1.349 . S
C1493 H1485 0.950 . S
C1493 C1491 1.327 . S
C1494 C1482 1.349 . S
C1494 H1488 0.950 . S
C1494 C1495 1.327 . S
C1495 H1489 0.950 . S
C1495 C1494 1.327 . S
C1495 C1499 1.429 . S
C1496 C1479 1.574 . S
C1496 H1490 0.949 . S
C1496 C1500 1.368 . S
C1497 C1478 1.429 . S
C1497 C1491 1.429 . S
C1497 C1498 1.523 . S
C1498 C1479 1.368 . S
C1498 C1492 1.368 . S
C1498 C1497 1.523 . S
C1499 C1483 1.429 . S
C1499 C1495 1.429 . S
C1499 C1500 1.523 . S
C1500 C1484 1.368 . S
C1500 C1496 1.368 . S
C1500 C1499 1.523 . S
H1501 C1476 0.950 1_556 S
H1502 C1478 0.950 . S
H1503 C1479 0.949 . S
H1504 C1481 0.950 . S
H1505 C1483 0.950 . S
C1506 C1507 1.349 . S
C1506 C1508 1.327 . S
C1506 H1531 0.950 . S
C1507 C1506 1.349 . S
C1507 C1523 1.354 . S
C1508 C1506 1.327 . S
C1508 C1527 1.429 . S
C1508 H1532 0.950 . S
C1509 C1526 1.574 . S
C1509 C1528 1.368 . S
C1509 H1533 0.949 . S
H1510 C1514 0.949 . S
C1511 C1512 1.349 . S
C1511 C1513 1.327 . S
C1511 H1534 0.950 . S
C1512 C1511 1.349 . S
C1512 C1524 1.349 . S
C1513 C1511 1.327 . S
C1513 C1529 1.429 . S
C1513 H1535 0.950 . S
C1514 H1510 0.949 . S
C1514 C1522 1.574 . S
C1514 C1530 1.368 . S
H1515 C1523 0.923 1_554 S
H1516 C1521 0.950 . S
H1517 C1522 0.949 . S
H1518 C1524 0.950 . S
H1519 C1525 0.950 . S
H1520 C1526 0.949 . S
C1521 H1516 0.950 . S
C1521 C1523 1.350 . S
C1521 C1527 1.429 . S
C1522 C1514 1.574 . S
C1522 H1517 0.949 . S
C1522 C1528 1.368 . S
C1523 C1507 1.354 . S
C1523 H1515 0.923 1_556 S
C1523 C1521 1.350 . S
C1524 C1512 1.349 . S
C1524 H1518 0.950 . S
C1524 C1525 1.327 . S
C1525 H1519 0.950 . S
C1525 C1524 1.327 . S
C1525 C1529 1.429 . S
C1526 C1509 1.574 . S
C1526 H1520 0.949 . S
C1526 C1530 1.368 . S
C1527 C1508 1.429 . S
C1527 C1521 1.429 . S
C1527 C1528 1.523 . S
C1528 C1509 1.368 . S
C1528 C1522 1.368 . S
C1528 C1527 1.523 . S
C1529 C1513 1.429 . S
C1529 C1525 1.429 . S
C1529 C1530 1.523 . S
C1530 C1514 1.368 . S
C1530 C1526 1.368 . S
C1530 C1529 1.523 . S
H1531 C1506 0.950 . S
H1532 C1508 0.950 . S
H1533 C1509 0.949 . S
H1534 C1511 0.950 . S
H1535 C1513 0.950 . S
C1536 C1537 1.349 . S
C1536 C1538 1.327 . S
C1536 H1561 0.950 . S
C1537 C1536 1.349 . S
C1537 C1553 1.349 . S
C1538 C1536 1.327 . S
C1538 C1557 1.429 . S
C1538 H1562 0.950 . S
C1539 C1556 1.574 . S
C1539 C1558 1.368 . S
C1539 H1563 0.949 . S
H1540 C1544 0.949 . S
C1541 C1542 1.349 . S
C1541 C1543 1.327 . S
C1541 H1564 0.950 . S
C1542 C1541 1.349 . S
C1542 C1554 1.349 . S
C1543 C1541 1.327 . S
C1543 C1559 1.429 . S
C1543 H1565 0.950 . S
C1544 H1540 0.949 . S
C1544 C1552 1.574 . S
C1544 C1560 1.368 . S
H1545 C1553 0.950 . S
H1546 C1551 0.950 . S
H1547 C1552 0.949 . S
H1548 C1554 0.950 . S
H1549 C1555 0.950 . S
H1550 C1556 0.949 . S
C1551 H1546 0.950 . S
C1551 C1553 1.327 . S
C1551 C1557 1.429 . S
C1552 C1544 1.574 . S
C1552 H1547 0.949 . S
C1552 C1558 1.368 . S
C1553 C1537 1.349 . S
C1553 H1545 0.950 . S
C1553 C1551 1.327 . S
C1554 C1542 1.349 . S
C1554 H1548 0.950 . S
C1554 C1555 1.327 . S
C1555 H1549 0.950 . S
C1555 C1554 1.327 . S
C1555 C1559 1.429 . S
C1556 C1539 1.574 . S
C1556 H1550 0.949 . S
C1556 C1560 1.368 . S
C1557 C1538 1.429 . S
C1557 C1551 1.429 . S
C1557 C1558 1.523 . S
C1558 C1539 1.368 . S
C1558 C1552 1.368 . S
C1558 C1557 1.523 . S
C1559 C1543 1.429 . S
C1559 C1555 1.429 . S
C1559 C1560 1.523 . S
C1560 C1544 1.368 . S
C1560 C1556 1.368 . S
C1560 C1559 1.523 . S
H1561 C1536 0.950 . S
H1562 C1538 0.950 . S
H1563 C1539 0.949 . S
H1564 C1541 0.950 . S
H1565 C1543 0.950 . S
C1566 C1567 1.349 . S
C1566 C1568 1.327 . S
C1566 H1591 0.950 . S
C1567 C1566 1.349 . S
C1567 C1583 1.349 . S
C1568 C1566 1.327 . S
C1568 C1587 1.429 . S
C1568 H1592 0.950 . S
C1569 C1586 1.574 . S
C1569 C1588 1.368 . S
C1569 H1593 0.949 . S
H1570 C1574 0.949 . S
C1571 C1572 1.349 . S
C1571 C1573 1.327 . S
C1571 H1594 0.950 . S
C1572 C1571 1.349 . S
C1572 C1584 1.349 . S
C1573 C1571 1.327 . S
C1573 C1589 1.429 . S
C1573 H1595 0.950 . S
C1574 H1570 0.949 . S
C1574 C1582 1.574 . S
C1574 C1590 1.368 . S
H1575 C1583 0.950 . S
H1576 C1581 0.950 . S
H1577 C1582 0.949 . S
H1578 C1584 0.950 . S
H1579 C1585 0.950 . S
H1580 C1586 0.949 . S
C1581 H1576 0.950 . S
C1581 C1583 1.327 . S
C1581 C1587 1.429 . S
C1582 C1574 1.574 . S
C1582 H1577 0.949 . S
C1582 C1588 1.368 . S
C1583 C1567 1.349 . S
C1583 H1575 0.950 . S
C1583 C1581 1.327 . S
C1584 C1572 1.349 . S
C1584 H1578 0.950 . S
C1584 C1585 1.327 . S
C1585 H1579 0.950 . S
C1585 C1584 1.327 . S
C1585 C1589 1.429 . S
C1586 C1569 1.574 . S
C1586 H1580 0.949 . S
C1586 C1590 1.368 . S
C1587 C1568 1.429 . S
C1587 C1581 1.429 . S
C1587 C1588 1.523 . S
C1588 C1569 1.368 . S
C1588 C1582 1.368 . S
C1588 C1587 1.523 . S
C1589 C1573 1.429 . S
C1589 C1585 1.429 . S
C1589 C1590 1.523 . S
C1590 C1574 1.368 . S
C1590 C1586 1.368 . S
C1590 C1589 1.523 . S
H1591 C1566 0.950 . S
H1592 C1568 0.950 . S
H1593 C1569 0.949 . S
H1594 C1571 0.950 . S
H1595 C1573 0.950 . S
C1596 C1597 1.349 . S
C1596 C1598 1.327 . S
C1596 H1621 0.950 . S
C1597 C1596 1.349 . S
C1597 C1613 1.349 . S
C1598 C1596 1.327 . S
C1598 C1617 1.429 . S
C1598 H1622 0.950 . S
C1599 C1616 1.574 . S
C1599 C1618 1.368 . S
C1599 H1623 0.949 . S
H1600 C1604 0.949 . S
C1601 C1602 1.349 . S
C1601 C1603 1.327 . S
C1601 H1624 0.950 . S
C1602 C1601 1.349 . S
C1602 C1614 1.349 . S
C1603 C1601 1.327 . S
C1603 C1619 1.429 . S
C1603 H1625 0.950 . S
C1604 H1600 0.949 . S
C1604 C1612 1.574 . S
C1604 C1620 1.368 . S
H1605 C1613 0.950 . S
H1606 C1611 0.950 . S
H1607 C1612 0.949 . S
H1608 C1614 0.950 . S
H1609 C1615 0.950 . S
H1610 C1616 0.949 . S
C1611 H1606 0.950 . S
C1611 C1613 1.327 . S
C1611 C1617 1.429 . S
C1612 C1604 1.574 . S
C1612 H1607 0.949 . S
C1612 C1618 1.368 . S
C1613 C1597 1.349 . S
C1613 H1605 0.950 . S
C1613 C1611 1.327 . S
C1614 C1602 1.349 . S
C1614 H1608 0.950 . S
C1614 C1615 1.327 . S
C1615 H1609 0.950 . S
C1615 C1614 1.327 . S
C1615 C1619 1.429 . S
C1616 C1599 1.574 . S
C1616 H1610 0.949 . S
C1616 C1620 1.368 . S
C1617 C1598 1.429 . S
C1617 C1611 1.429 . S
C1617 C1618 1.523 . S
C1618 C1599 1.368 . S
C1618 C1612 1.368 . S
C1618 C1617 1.523 . S
C1619 C1603 1.429 . S
C1619 C1615 1.429 . S
C1619 C1620 1.523 . S
C1620 C1604 1.368 . S
C1620 C1616 1.368 . S
C1620 C1619 1.523 . S
H1621 C1596 0.950 . S
H1622 C1598 0.950 . S
H1623 C1599 0.949 . S
H1624 C1601 0.950 . S
H1625 C1603 0.950 . S
C1626 C1627 1.349 . S
C1626 C1628 1.327 . S
C1626 H1651 0.950 . S
C1627 C1626 1.349 . S
C1627 C1643 1.349 . S
C1628 C1626 1.327 . S
C1628 C1647 1.429 . S
C1628 H1652 0.950 . S
C1629 C1646 1.574 . S
C1629 C1648 1.368 1_556 S
C1629 H1653 0.949 . S
H1630 C1634 0.949 . S
C1631 C1632 1.349 . S
C1631 C1633 1.327 . S
C1631 H1654 0.950 . S
C1632 C1631 1.349 . S
C1632 C1644 1.349 . S
C1633 C1631 1.327 . S
C1633 C1649 1.429 . S
C1633 H1655 0.950 . S
C1634 H1630 0.949 . S
C1634 C1642 1.574 . S
C1634 C1650 1.368 1_554 S
H1635 C1643 0.950 . S
H1636 C1641 0.950 . S
H1637 C1642 0.949 . S
H1638 C1644 0.950 . S
H1639 C1645 0.950 . S
H1640 C1646 0.949 . S
C1641 H1636 0.950 . S
C1641 C1643 1.327 . S
C1641 C1647 1.429 . S
C1642 C1634 1.574 . S
C1642 H1637 0.949 . S
C1642 C1648 1.368 1_655 S
C1643 C1627 1.349 . S
C1643 H1635 0.950 . S
C1643 C1641 1.327 . S
C1644 C1632 1.349 . S
C1644 H1638 0.950 . S
C1644 C1645 1.327 . S
C1645 H1639 0.950 . S
C1645 C1644 1.327 . S
C1645 C1649 1.429 . S
C1646 C1629 1.574 . S
C1646 H1640 0.949 . S
C1646 C1650 1.368 1_455 S
C1647 C1628 1.429 . S
C1647 C1641 1.429 . S
C1647 C1648 1.523 . S
C1648 C1629 1.368 1_554 S
C1648 C1642 1.368 1_455 S
C1648 C1647 1.523 . S
C1649 C1633 1.429 . S
C1649 C1645 1.429 . S
C1649 C1650 1.523 . S
C1650 C1634 1.368 1_556 S
C1650 C1646 1.368 1_655 S
C1650 C1649 1.523 . S
H1651 C1626 0.950 . S
H1652 C1628 0.950 . S
H1653 C1629 0.949 . S
H1654 C1631 0.950 . S
H1655 C1633 0.950 . S
C1656 C1657 1.349 . S
C1656 C1658 1.327 . S
C1656 H1681 0.950 . S
C1657 C1656 1.349 . S
C1657 C1673 1.349 . S
C1658 C1656 1.327 . S
C1658 C1677 1.429 . S
C1658 H1682 0.950 . S
C1659 C1676 1.574 . S
C1659 C1678 1.368 . S
C1659 H1683 0.949 . S
H1660 C1664 0.949 . S
C1661 C1662 1.349 . S
C1661 C1663 1.327 . S
C1661 H1684 0.950 . S
C1662 C1661 1.349 . S
C1662 C1674 1.349 . S
C1663 C1661 1.327 . S
C1663 C1679 1.429 . S
C1663 H1685 0.950 . S
C1664 H1660 0.949 . S
C1664 C1672 1.574 . S
C1664 C1680 1.368 . S
H1665 C1673 0.950 . S
H1666 C1671 0.950 . S
H1667 C1672 0.949 . S
H1668 C1674 0.950 . S
H1669 C1675 0.950 . S
H1670 C1676 0.949 . S
C1671 H1666 0.950 . S
C1671 C1673 1.327 . S
C1671 C1677 1.429 . S
C1672 C1664 1.574 . S
C1672 H1667 0.949 . S
C1672 C1678 1.368 . S
C1673 C1657 1.349 . S
C1673 H1665 0.950 . S
C1673 C1671 1.327 . S
C1674 C1662 1.349 . S
C1674 H1668 0.950 . S
C1674 C1675 1.327 . S
C1675 H1669 0.950 . S
C1675 C1674 1.327 . S
C1675 C1679 1.429 . S
C1676 C1659 1.574 . S
C1676 H1670 0.949 . S
C1676 C1680 1.368 . S
C1677 C1658 1.429 . S
C1677 C1671 1.429 . S
C1677 C1678 1.523 . S
C1678 C1659 1.368 . S
C1678 C1672 1.368 . S
C1678 C1677 1.523 . S
C1679 C1663 1.429 . S
C1679 C1675 1.429 . S
C1679 C1680 1.523 . S
C1680 C1664 1.368 . S
C1680 C1676 1.368 . S
C1680 C1679 1.523 . S
H1681 C1656 0.950 . S
H1682 C1658 0.950 . S
H1683 C1659 0.949 . S
H1684 C1661 0.950 . S
H1685 C1663 0.950 . S
C1686 C1687 1.349 . S
C1686 C1688 1.327 . S
C1686 H1711 0.950 . S
C1687 C1686 1.349 . S
C1687 C1703 1.349 . S
C1688 C1686 1.327 . S
C1688 C1707 1.429 . S
C1688 H1712 0.950 . S
C1689 C1706 1.574 . S
C1689 C1708 1.368 . S
C1689 H1713 0.949 . S
H1690 C1694 0.949 . S
C1691 C1692 1.349 . S
C1691 C1693 1.327 . S
C1691 H1714 0.950 . S
C1692 C1691 1.349 . S
C1692 C1704 1.349 . S
C1693 C1691 1.327 . S
C1693 C1709 1.429 . S
C1693 H1715 0.950 . S
C1694 H1690 0.949 . S
C1694 C1702 1.574 . S
C1694 C1710 1.368 . S
H1695 C1703 0.950 . S
H1696 C1701 0.950 . S
H1697 C1702 0.949 . S
H1698 C1704 0.950 . S
H1699 C1705 0.950 . S
H1700 C1706 0.949 . S
C1701 H1696 0.950 . S
C1701 C1703 1.327 . S
C1701 C1707 1.429 . S
C1702 C1694 1.574 . S
C1702 H1697 0.949 . S
C1702 C1708 1.368 . S
C1703 C1687 1.349 . S
C1703 H1695 0.950 . S
C1703 C1701 1.327 . S
C1704 C1692 1.349 . S
C1704 H1698 0.950 . S
C1704 C1705 1.327 . S
C1705 H1699 0.950 . S
C1705 C1704 1.327 . S
C1705 C1709 1.429 . S
C1706 C1689 1.574 . S
C1706 H1700 0.949 . S
C1706 C1710 1.368 . S
C1707 C1688 1.429 . S
C1707 C1701 1.429 . S
C1707 C1708 1.523 . S
C1708 C1689 1.368 . S
C1708 C1702 1.368 . S
C1708 C1707 1.523 . S
C1709 C1693 1.429 . S
C1709 C1705 1.429 . S
C1709 C1710 1.523 . S
C1710 C1694 1.368 . S
C1710 C1706 1.368 . S
C1710 C1709 1.523 . S
H1711 C1686 0.950 . S
H1712 C1688 0.950 . S
H1713 C1689 0.949 . S
H1714 C1691 0.950 . S
H1715 C1693 0.950 . S
C1716 C1717 1.349 . S
C1716 C1718 1.327 . S
C1716 H1741 0.950 . S
C1717 C1716 1.349 . S
C1717 C1733 1.349 . S
C1718 C1716 1.327 . S
C1718 C1737 1.429 . S
C1718 H1742 0.950 . S
C1719 C1736 1.574 1_545 S
C1719 C1738 1.368 1_655 S
C1719 H1743 0.949 . S
H1720 C1724 0.949 . S
C1721 C1722 1.349 . S
C1721 C1723 1.327 . S
C1721 H1744 0.950 . S
C1722 C1721 1.349 . S
C1722 C1734 1.349 . S
C1723 C1721 1.327 . S
C1723 C1739 1.429 . S
C1723 H1745 0.950 . S
C1724 H1720 0.949 . S
C1724 C1732 1.574 1_565 S
C1724 C1740 1.368 1_455 S
H1725 C1733 0.950 . S
H1726 C1731 0.950 1_655 S
H1727 C1732 0.949 . S
H1728 C1734 0.950 . S
H1729 C1735 0.950 1_455 S
H1730 C1736 0.949 . S
C1731 H1726 0.950 1_455 S
C1731 C1733 1.327 . S
C1731 C1737 1.429 . S
C1732 C1724 1.574 1_545 S
C1732 H1727 0.949 . S
C1732 C1738 1.368 1_554 S
C1733 C1717 1.349 . S
C1733 H1725 0.950 . S
C1733 C1731 1.327 . S
C1734 C1722 1.349 . S
C1734 H1728 0.950 . S
C1734 C1735 1.327 . S
C1735 H1729 0.950 1_655 S
C1735 C1734 1.327 . S
C1735 C1739 1.429 . S
C1736 C1719 1.574 1_565 S
C1736 H1730 0.949 . S
C1736 C1740 1.368 1_556 S
C1737 C1718 1.429 . S
C1737 C1731 1.429 . S
C1737 C1738 1.523 . S
C1738 C1719 1.368 1_455 S
C1738 C1732 1.368 1_556 S
C1738 C1737 1.523 . S
C1739 C1723 1.429 . S
C1739 C1735 1.429 . S
C1739 C1740 1.523 . S
C1740 C1724 1.368 1_655 S
C1740 C1736 1.368 1_554 S
C1740 C1739 1.523 . S
H1741 C1716 0.950 . S
H1742 C1718 0.950 . S
H1743 C1719 0.949 . S
H1744 C1721 0.950 . S
H1745 C1723 0.950 . S
C1746 C1747 1.349 . S
C1746 C1748 1.327 . S
C1746 H1771 0.950 . S
C1747 C1746 1.349 . S
C1747 C1763 1.349 . S
C1748 C1746 1.327 . S
C1748 C1767 1.429 . S
C1748 H1772 0.950 . S
C1749 C1766 1.574 1_545 S
C1749 C1768 1.368 . S
C1749 H1773 0.949 . S
H1750 C1754 0.949 . S
C1751 C1752 1.349 . S
C1751 C1753 1.327 . S
C1751 H1774 0.950 . S
C1752 C1751 1.349 . S
C1752 C1764 1.349 . S
C1753 C1751 1.327 . S
C1753 C1769 1.429 . S
C1753 H1775 0.950 . S
C1754 H1750 0.949 . S
C1754 C1762 1.574 1_565 S
C1754 C1770 1.368 . S
H1755 C1763 0.950 . S
H1756 C1761 0.950 . S
H1757 C1762 0.949 . S
H1758 C1764 0.950 . S
H1759 C1765 0.950 . S
H1760 C1766 0.949 . S
C1761 H1756 0.950 . S
C1761 C1763 1.327 . S
C1761 C1767 1.429 . S
C1762 C1754 1.574 1_545 S
C1762 H1757 0.949 . S
C1762 C1768 1.368 . S
C1763 C1747 1.349 . S
C1763 H1755 0.950 . S
C1763 C1761 1.327 . S
C1764 C1752 1.349 . S
C1764 H1758 0.950 . S
C1764 C1765 1.327 . S
C1765 H1759 0.950 . S
C1765 C1764 1.327 . S
C1765 C1769 1.429 . S
C1766 C1749 1.574 1_565 S
C1766 H1760 0.949 . S
C1766 C1770 1.368 . S
C1767 C1748 1.429 . S
C1767 C1761 1.429 . S
C1767 C1768 1.523 . S
C1768 C1749 1.368 . S
C1768 C1762 1.368 . S
C1768 C1767 1.523 . S
C1769 C1753 1.429 . S
C1769 C1765 1.429 . S
C1769 C1770 1.523 . S
C1770 C1754 1.368 . S
C1770 C1766 1.368 . S
C1770 C1769 1.523 . S
H1771 C1746 0.950 . S
H1772 C1748 0.950 . S
H1773 C1749 0.949 . S
H1774 C1751 0.950 . S
H1775 C1753 0.950 . S
C337 C16 1.080 . S
C342 C226 1.080 . S
C367 C37 1.080 . S
C372 C247 1.080 . S
C397 C58 1.080 . S
C402 C184 1.080 . S
C427 C79 1.080 . S
C432 C205 1.080 . S
C457 C100 1.080 . S
C462 C310 1.080 . S
C487 C121 1.080 . S
C492 C331 1.080 . S
C517 C142 1.080 . S
C522 C268 1.080 . S
C547 C163 1.080 . S
C552 C289 1.080 . S
C577 C204 1.400 . S
C582 C13 1.189 . S
C607 C225 1.400 . S
C612 C34 1.189 . S
C637 C246 1.400 . S
C642 C55 1.189 . S
C667 C183 1.400 . S
C672 C76 1.189 . S
C697 C97 1.189 . S
C702 C288 1.400 . S
C727 C309 1.400 . S
C732 C118 1.189 . S
C757 C330 1.400 . S
C762 C139 1.189 . S
C787 C267 1.400 . S
C792 C160 1.189 . S
C817 C36 1.400 . S
C822 C181 1.189 . S
C847 C202 1.189 . S
C852 C57 1.400 . S
C877 C223 1.189 . S
C882 C78 1.400 . S
C907 C244 1.189 . S
C912 C15 1.400 . S
C937 C265 1.189 . S
C942 C120 1.400 . S
C967 C141 1.400 . S
C972 C286 1.189 . S
C997 C162 1.400 . S
C1002 C307 1.189 . S
C1027 C328 1.189 . S
C1032 C99 1.400 . S
C1057 C18 0.984 . S
C1062 C329 0.977 . S
C1087 C39 0.984 . S
C1092 C98 0.977 1_554 S
C1117 C287 0.977 . S
C1122 C60 0.984 . S
C1147 C140 0.977 . S
C1152 C81 0.984 . S
C1177 C102 0.984 . S
C1182 C245 0.977 . S
C1207 C123 0.984 . S
C1212 C14 0.977 1_556 S
C1237 C203 0.977 . S
C1242 C144 0.984 . S
C1267 C56 0.977 . S
C1272 C165 0.984 . S
C1297 C186 0.984 . S
C1302 C161 0.977 . S
C1327 C207 0.984 . S
C1332 C266 0.977 . S
C1357 C119 0.977 . S
C1362 C228 0.984 . S
C1387 C308 0.977 1_554 S
C1392 C249 0.984 . S
C1417 C270 0.984 . S
C1422 C77 0.977 . S
C1447 C291 0.984 . S
C1452 C182 0.977 . S
C1477 C312 0.984 . S
C1482 C35 0.977 . S
C1507 C224 0.977 1_556 S
C1512 C333 0.984 . S
C1537 C17 1.922 . S
C1542 C269 1.922 . S
C1567 C38 1.922 . S
C1572 C122 1.922 . S
C1597 C59 1.922 . S
C1602 C311 1.922 . S
C1627 C164 1.922 . S
C1632 C80 1.922 . S
C1657 C101 1.922 . S
C1662 C185 1.922 . S
C1687 C227 1.922 . S
C1692 C143 1.922 . S
C1717 C206 1.922 . S
C1722 C290 1.922 . S
C1747 C332 1.922 . S
C1752 C248 1.922 . S
