# Generated by pormake.
# Topology yfb, (5)-cn, num edge types: 1
# Building blocks:
#     Node 0, Type 0, BuildingBlock: XOMCOT_clean_sbu_1, # of connection points: 5
#     Node 1, Type 0, BuildingBlock: XOMCOT_clean_sbu_1, # of connection points: 5
#     Node 2, Type 0, BuildingBlock: XOMCOT_clean_sbu_1, # of connection points: 5
#     Node 3, Type 0, BuildingBlock: XOMCOT_clean_sbu_1, # of connection points: 5
#     Node 4, Type 0, BuildingBlock: XOMCOT_clean_sbu_1, # of connection points: 5
#     Node 5, Type 0, BuildingBlock: XOMCOT_clean_sbu_1, # of connection points: 5
#     Node 6, Type 0, BuildingBlock: XOMCOT_clean_sbu_1, # of connection points: 5
#     Node 7, Type 0, BuildingBlock: XOMCOT_clean_sbu_1, # of connection points: 5
#     Node 8, Type 0, BuildingBlock: XOMCOT_clean_sbu_1, # of connection points: 5
#     Node 9, Type 0, BuildingBlock: XOMCOT_clean_sbu_1, # of connection points: 5
#     Node 10, Type 0, BuildingBlock: XOMCOT_clean_sbu_1, # of connection points: 5
#     Node 11, Type 0, BuildingBlock: XOMCOT_clean_sbu_1, # of connection points: 5
#     Node 12, Type 0, BuildingBlock: XOMCOT_clean_sbu_1, # of connection points: 5
#     Node 13, Type 0, BuildingBlock: XOMCOT_clean_sbu_1, # of connection points: 5
#     Node 14, Type 0, BuildingBlock: XOMCOT_clean_sbu_1, # of connection points: 5
#     Node 15, Type 0, BuildingBlock: XOMCOT_clean_sbu_1, # of connection points: 5
#     Edge 16, Type (0, 0), BuildingBlock: XIVTED_clean_linker_0, # of connection points: 2
#     Edge 17, Type (0, 0), BuildingBlock: XIVTED_clean_linker_0, # of connection points: 2
#     Edge 18, Type (0, 0), BuildingBlock: XIVTED_clean_linker_0, # of connection points: 2
#     Edge 19, Type (0, 0), BuildingBlock: XIVTED_clean_linker_0, # of connection points: 2
#     Edge 20, Type (0, 0), BuildingBlock: XIVTED_clean_linker_0, # of connection points: 2
#     Edge 21, Type (0, 0), BuildingBlock: XIVTED_clean_linker_0, # of connection points: 2
#     Edge 22, Type (0, 0), BuildingBlock: XIVTED_clean_linker_0, # of connection points: 2
#     Edge 23, Type (0, 0), BuildingBlock: XIVTED_clean_linker_0, # of connection points: 2
#     Edge 24, Type (0, 0), BuildingBlock: XIVTED_clean_linker_0, # of connection points: 2
#     Edge 25, Type (0, 0), BuildingBlock: XIVTED_clean_linker_0, # of connection points: 2
#     Edge 26, Type (0, 0), BuildingBlock: XIVTED_clean_linker_0, # of connection points: 2
#     Edge 27, Type (0, 0), BuildingBlock: XIVTED_clean_linker_0, # of connection points: 2
#     Edge 28, Type (0, 0), BuildingBlock: XIVTED_clean_linker_0, # of connection points: 2
#     Edge 29, Type (0, 0), BuildingBlock: XIVTED_clean_linker_0, # of connection points: 2
#     Edge 30, Type (0, 0), BuildingBlock: XIVTED_clean_linker_0, # of connection points: 2
#     Edge 31, Type (0, 0), BuildingBlock: XIVTED_clean_linker_0, # of connection points: 2
#     Edge 32, Type (0, 0), BuildingBlock: XIVTED_clean_linker_0, # of connection points: 2
#     Edge 33, Type (0, 0), BuildingBlock: XIVTED_clean_linker_0, # of connection points: 2
#     Edge 34, Type (0, 0), BuildingBlock: XIVTED_clean_linker_0, # of connection points: 2
#     Edge 35, Type (0, 0), BuildingBlock: XIVTED_clean_linker_0, # of connection points: 2
#     Edge 36, Type (0, 0), BuildingBlock: XIVTED_clean_linker_0, # of connection points: 2
#     Edge 37, Type (0, 0), BuildingBlock: XIVTED_clean_linker_0, # of connection points: 2
#     Edge 38, Type (0, 0), BuildingBlock: XIVTED_clean_linker_0, # of connection points: 2
#     Edge 39, Type (0, 0), BuildingBlock: XIVTED_clean_linker_0, # of connection points: 2
#     Edge 40, Type (0, 0), BuildingBlock: XIVTED_clean_linker_0, # of connection points: 2
#     Edge 41, Type (0, 0), BuildingBlock: XIVTED_clean_linker_0, # of connection points: 2
#     Edge 42, Type (0, 0), BuildingBlock: XIVTED_clean_linker_0, # of connection points: 2
#     Edge 43, Type (0, 0), BuildingBlock: XIVTED_clean_linker_0, # of connection points: 2
#     Edge 44, Type (0, 0), BuildingBlock: XIVTED_clean_linker_0, # of connection points: 2
#     Edge 45, Type (0, 0), BuildingBlock: XIVTED_clean_linker_0, # of connection points: 2
#     Edge 46, Type (0, 0), BuildingBlock: XIVTED_clean_linker_0, # of connection points: 2
#     Edge 47, Type (0, 0), BuildingBlock: XIVTED_clean_linker_0, # of connection points: 2
#     Edge 48, Type (0, 0), BuildingBlock: XIVTED_clean_linker_0, # of connection points: 2
#     Edge 49, Type (0, 0), BuildingBlock: XIVTED_clean_linker_0, # of connection points: 2
#     Edge 50, Type (0, 0), BuildingBlock: XIVTED_clean_linker_0, # of connection points: 2
#     Edge 51, Type (0, 0), BuildingBlock: XIVTED_clean_linker_0, # of connection points: 2
#     Edge 52, Type (0, 0), BuildingBlock: XIVTED_clean_linker_0, # of connection points: 2
#     Edge 53, Type (0, 0), BuildingBlock: XIVTED_clean_linker_0, # of connection points: 2
#     Edge 54, Type (0, 0), BuildingBlock: XIVTED_clean_linker_0, # of connection points: 2
#     Edge 55, Type (0, 0), BuildingBlock: XIVTED_clean_linker_0, # of connection points: 2
# Relax obj value: 0.749
# Max RMSD: 0.274
# Mean RMSD: 0.274
data_MOF--net-yfb--node1-XOMCOT_clean_sbu_1--edge1-XIVTED_clean_linker_0
_symmetry_space_group_name_H-M    P1
_symmetry_Int_Tables_number       1
_symmetry_cell_setting            triclinic
loop_
_symmetry_equiv_pos_as_xyz
'x, y, z'
_cell_length_a     42.200035
_cell_length_b     42.172914
_cell_length_c     43.338869
_cell_angle_alpha  89.86158
_cell_angle_beta   90.153753
_cell_angle_gamma 90.252385
loop_
_atom_site_label
_atom_site_type_symbol
_atom_site_fract_x
_atom_site_fract_y
_atom_site_fract_z
_atom_type_partial_charge
C0 C 0.63676 0.01455 0.12586 0.0
C1 C 0.60958 1.00069 0.11414 0.0
N2 N 0.5909 0.02368 0.10259 0.0
N3 N 0.63586 0.04624 0.12123 0.0
C4 C 0.60683 0.05089 0.10853 0.0
H5 H 0.65721 1.00183 0.13426 0.0
Co6 Co 0.67203 0.07404 0.12367 0.0
C7 C 0.62708 0.12548 0.10361 0.0
O8 O 0.62337 0.11352 0.07587 0.0
N9 N 0.70759 0.10085 0.12692 0.0
C10 C 0.75512 0.12282 0.12089 0.0
C11 C 0.73738 0.0955 0.11719 0.0
C12 C 0.70815 0.13096 0.13752 0.0
N13 N 0.73653 0.14531 0.13346 0.0
O14 O 0.67129 0.07251 0.16803 0.0
H15 H 0.74522 0.07365 0.10671 0.0
H16 H 0.6876 0.1426 0.14684 0.0
O17 O 0.64454 0.11173 0.1237 0.0
C18 C 0.69125 0.05208 0.17773 0.0
O19 O 0.70442 0.03319 0.15745 0.0
N20 N 0.67633 0.07396 0.0798 0.0
C21 C 0.69965 0.06812 0.01954 0.0
C22 C 0.69755 0.09793 0.03374 0.0
C23 C 0.68596 0.10032 0.06381 0.0
C24 C 0.67685 0.04507 0.06565 0.0
C25 C 0.68744 0.04179 0.03539 0.0
H26 H 0.68669 0.12322 0.07493 0.0
H27 H 0.67152 0.02375 0.07827 0.0
H28 H 0.59724 0.07358 0.10313 0.0
H29 H 0.60526 0.97547 0.11216 0.0
H30 H 0.77953 0.126 0.11395 0.0
H31 H 0.70719 0.119 0.0229 0.0
H32 H 0.68822 0.01829 0.02543 0.0
C33 C 0.47153 0.6063 0.11944 0.0
C34 C 0.48698 0.58005 0.1076 0.0
N35 N 0.47623 0.5749 0.07872 0.0
N36 N 0.45185 0.61827 0.09773 0.0
C37 C 0.45497 0.59812 0.07373 0.0
H38 H 0.4733 0.61464 0.14293 0.0
Co39 Co 0.41871 0.64839 0.09687 0.0
C40 C 0.37854 0.5967 0.10196 0.0
O41 O 0.38595 0.59369 0.07273 0.0
N42 N 0.3842 0.67611 0.09448 0.0
C43 C 0.34636 0.70658 0.07469 0.0
C44 C 0.37423 0.69103 0.06867 0.0
C45 C 0.36155 0.68223 0.1157 0.0
N46 N 0.33829 0.70081 0.1042 0.0
O47 O 0.43033 0.66694 0.13686 0.0
H48 H 0.386 0.68983 0.04656 0.0
H49 H 0.36158 0.67246 0.13881 0.0
O50 O 0.39179 0.61854 0.11761 0.0
C51 C 0.4565 0.67804 0.14726 0.0
O52 O 0.48247 0.67507 0.13086 0.0
N53 N 0.44454 0.67879 0.07531 0.0
C54 C 0.46728 0.72599 0.03529 0.0
C55 C 0.4715 0.6938 0.02862 0.0
C56 C 0.4592 0.67074 0.04839 0.0
C57 C 0.44344 0.71005 0.08375 0.0
C58 C 0.4545 0.73391 0.06412 0.0
H59 H 0.45949 0.64681 0.04033 0.0
H60 H 0.43102 0.71713 0.10436 0.0
H61 H 0.44101 0.60011 0.05292 0.0
H62 H 0.5035 0.56504 0.1199 0.0
H63 H 0.33216 0.71962 0.05818 0.0
H64 H 0.48188 0.68633 1.00702 0.0
H65 H 0.45014 0.75831 0.07043 0.0
C66 C 0.85616 0.51675 0.09891 0.0
C67 C 0.88278 0.53209 0.08767 0.0
N68 N 0.90229 0.51027 0.07533 0.0
N69 N 0.85881 0.4854 0.09374 0.0
C70 C 0.88723 0.48229 0.0797 0.0
H71 H 0.8355 0.52793 0.10872 0.0
Co72 Co 0.82706 0.45432 0.09765 0.0
C73 C 0.85995 0.39401 0.08288 0.0
O74 O 0.83501 0.38398 0.06748 0.0
N75 N 0.79465 0.42277 0.10201 0.0
C76 C 0.74941 0.39529 0.10008 0.0
C77 C 0.76441 0.42298 0.09159 0.0
C78 C 0.79664 0.39526 0.11821 0.0
N79 N 0.7699 0.37762 0.11646 0.0
O80 O 0.82967 0.4557 0.14199 0.0
H81 H 0.75345 0.44184 0.07866 0.0
H82 H 0.81771 0.38786 0.13051 0.0
O83 O 0.85992 0.42129 0.09568 0.0
C84 C 0.80511 0.47029 0.15154 0.0
O85 O 0.78675 0.48411 0.13104 0.0
N86 N 0.82171 0.45554 0.05449 0.0
C87 C 0.79977 0.45494 0.99377 0.0
C88 C 0.82984 0.44276 1.00123 0.0
C89 C 0.84042 0.44332 0.0318 0.0
C90 C 0.79583 0.47289 0.04662 0.0
C91 C 0.78381 0.47215 0.01668 0.0
H92 H 0.86309 0.43302 0.03697 0.0
H93 H 0.783 0.48541 0.06435 0.0
H94 H 0.89584 0.46012 0.07089 0.0
H95 H 0.88681 0.55744 0.08769 0.0
H96 H 0.72561 0.38821 0.09363 0.0
H97 H 0.84442 0.43135 0.98406 0.0
H98 H 0.76099 0.48293 0.01256 0.0
C99 C 0.00956 0.87817 0.1392 0.0
C100 C 1.00067 0.90632 0.12533 0.0
N101 N 0.02215 0.91375 0.10346 0.0
N102 N 0.0367 0.86792 0.12637 0.0
C103 C 0.04389 0.89036 0.10498 0.0
H104 H 0.99611 0.86524 0.15632 0.0
Co105 Co 0.0564 0.82814 0.13088 0.0
C106 C 0.12421 0.84054 0.11374 0.0
O107 O 0.12678 0.81276 0.10031 0.0
N108 N 0.0764 0.78814 0.13544 0.0
C109 C 0.09549 0.73974 0.12761 0.0
C110 C 0.07093 0.76019 0.12123 0.0
C111 C 0.1032 0.7831 0.15194 0.0
N112 N 0.11636 0.75453 0.14635 0.0
O113 O 0.06045 0.83304 0.17497 0.0
H114 H 0.0517 0.75538 0.10546 0.0
H115 H 0.11465 0.80157 0.1652 0.0
O116 O 0.09773 0.84923 0.12522 0.0
C117 C 0.03931 0.81767 0.18994 0.0
O118 O 0.01414 0.80784 0.17476 0.0
N119 N 0.04995 0.8212 0.0884 0.0
C120 C 0.03686 0.79733 0.0298 0.0
C121 C 0.06286 0.81765 0.03476 0.0
C122 C 0.0687 0.82976 0.06412 0.0
C123 C 0.02233 0.80522 0.08318 0.0
C124 C 0.01536 0.79283 0.05408 0.0
H125 H 0.08875 0.84525 0.06698 0.0
H126 H 0.00675 0.80006 0.10236 0.0
H127 H 0.06421 0.88911 0.08997 0.0
H128 H 0.97906 0.91925 0.12976 0.0
H129 H 0.09911 0.71696 0.11674 0.0
H130 H 0.07998 0.82253 0.0168 0.0
H131 H 0.99434 0.77833 0.05119 0.0
C132 C 0.64129 0.51404 0.40864 0.0
C133 C 0.61343 0.52394 0.42204 0.0
N134 N 0.60277 0.50087 0.44104 0.0
N135 N 0.64828 0.48473 0.41889 0.0
C136 C 0.62413 0.47718 0.43817 0.0
H137 H 0.65661 0.52824 0.39414 0.0
Co138 Co 0.68759 0.46446 0.41516 0.0
C139 C 0.67658 0.39709 0.43183 0.0
O140 O 0.70338 0.39736 0.44737 0.0
N141 N 0.72757 0.44399 0.41111 0.0
C142 C 0.77518 0.42308 0.41935 0.0
C143 C 0.75511 0.44764 0.42664 0.0
C144 C 0.7325 0.41826 0.39309 0.0
N145 N 0.76058 0.40404 0.39874 0.0
O146 O 0.6838 0.46261 0.37091 0.0
H147 H 0.75985 0.46549 0.44384 0.0
H148 H 0.71432 0.40844 0.37826 0.0
O149 O 0.66646 0.42258 0.41906 0.0
C150 C 0.70275 0.48307 0.35927 0.0
O151 O 0.71527 0.50431 0.37787 0.0
N152 N 0.69332 0.46951 0.45794 0.0
C153 C 0.71618 0.48037 0.51731 0.0
C154 C 0.6942 0.45587 0.51156 0.0
C155 C 0.68238 0.45137 0.4818 0.0
C156 C 0.71037 0.49628 0.46396 0.0
C157 C 0.72212 0.50222 0.49351 0.0
H158 H 0.66558 0.43248 0.47814 0.0
H159 H 0.71691 0.51186 0.44514 0.0
H160 H 0.62313 0.4553 0.45112 0.0
H161 H 0.60319 0.54729 0.41959 0.0
H162 H 0.79753 0.41815 0.43065 0.0
H163 H 0.6878 0.43874 0.52911 0.0
H164 H 0.73745 0.52254 0.49702 0.0
C165 C 0.01537 0.62201 0.40236 0.0
C166 C 1.00202 0.5973 0.41871 0.0
N167 N 0.02393 0.5854 0.43827 0.0
N168 N 0.04567 0.62597 0.4113 0.0
C169 C 0.0503 0.60321 0.43311 0.0
H170 H 1.00349 0.6368 0.38554 0.0
Co171 Co 0.07163 0.65925 0.39677 0.0
C172 C 0.13136 0.6548 0.43112 0.0
O173 O 0.12895 0.68525 0.43714 0.0
N174 N 0.09842 0.69274 0.38145 0.0
C175 C 0.12203 0.73865 0.36973 0.0
C176 C 0.09437 0.72447 0.37964 0.0
C177 C 0.1284 0.68847 0.3709 0.0
N178 N 0.14378 0.71595 0.3647 0.0
O179 O 0.08092 0.63483 0.36046 0.0
H180 H 0.07313 0.73709 0.38558 0.0
H181 H 0.13911 0.66533 0.3689 0.0
O182 O 0.10901 0.64045 0.41672 0.0
C183 C 0.08278 0.64084 0.33159 0.0
O184 O 0.09201 0.61807 0.31309 0.0
N185 N 0.06038 0.68284 0.43221 0.0
C186 C 0.04534 0.72263 0.48148 0.0
C187 C 0.06216 0.69435 0.48634 0.0
C188 C 0.06842 0.67431 0.46162 0.0
C189 C 0.03998 0.70738 0.42773 0.0
C190 C 0.03257 0.72797 0.45191 0.0
H191 H 0.08104 0.65264 0.46623 0.0
H192 H 0.03017 0.71158 0.40501 0.0
H193 H 0.07246 0.60001 0.44528 0.0
H194 H 0.97762 0.58952 0.41698 0.0
H195 H 0.12606 0.76392 0.36789 0.0
H196 H 0.07203 0.68825 0.50861 0.0
H197 H 0.01773 0.74829 0.44719 0.0
C198 C 0.90242 0.04598 0.39346 0.0
C199 C 0.92937 0.03095 0.40446 0.0
N200 N 0.93386 0.03963 0.43405 0.0
N201 N 0.88935 0.06322 0.41637 0.0
C202 C 0.90956 0.05916 0.44032 0.0
H203 H 0.89442 0.04588 0.36976 0.0
Co204 Co 0.85807 0.09526 0.41886 0.0
C205 C 0.90753 0.13703 0.41895 0.0
O206 O 0.90758 0.1282 0.44801 0.0
N207 N 0.82921 0.12877 0.42314 0.0
C208 C 0.79742 0.16391 0.44532 0.0
C209 C 0.81279 0.13548 0.449 0.0
C210 C 0.82415 0.154 0.40437 0.0
N211 N 0.80482 0.17566 0.41737 0.0
O212 O 0.84023 0.08597 0.37772 0.0
H213 H 0.81305 0.12124 0.4698 0.0
H214 H 0.83544 0.15706 0.38217 0.0
O215 O 0.88747 0.12452 0.40068 0.0
C216 C 0.83048 0.05997 0.36573 0.0
O217 O 0.83465 0.0332 0.38077 0.0
N218 N 0.82841 0.06693 0.43816 0.0
C219 C 0.78186 0.04019 0.4763 0.0
C220 C 0.81408 0.03697 0.48337 0.0
C221 C 0.83679 0.05122 0.46453 0.0
C222 C 0.79726 0.06715 0.42921 0.0
C223 C 0.77369 0.05403 0.44791 0.0
H224 H 0.8606 0.05165 0.47301 0.0
H225 H 0.78988 0.08051 0.40916 0.0
H226 H 0.90703 0.07136 0.46204 0.0
H227 H 0.94537 0.0164 0.39117 0.0
H228 H 0.78356 0.17605 0.46261 0.0
H229 H 0.82169 0.02597 0.50472 0.0
H230 H 0.74919 0.0577 0.44144 0.0
C231 C 0.48785 0.87654 0.38171 0.0
C232 C 0.49819 0.90467 0.39443 0.0
N233 N 0.47684 0.91433 0.4155 0.0
N234 N 0.45991 0.86826 0.39443 0.0
C235 C 0.45374 0.8919 0.41475 0.0
H236 H 0.50078 0.86239 0.36532 0.0
Co237 Co 0.43828 0.82928 0.38993 0.0
C238 C 0.37085 0.84285 0.404 0.0
O239 O 0.36804 0.81529 0.41799 0.0
N240 N 0.4164 0.78993 0.38516 0.0
C241 C 0.39399 0.74285 0.39353 0.0
C242 C 0.41887 0.7626 0.40123 0.0
C243 C 0.39095 0.7852 0.36651 0.0
N244 N 0.37582 0.75741 0.37215 0.0
O245 O 0.43707 0.83349 0.34578 0.0
H246 H 0.43616 0.75789 0.41902 0.0
H247 H 0.38193 0.8034 0.35128 0.0
O248 O 0.39769 0.8519 0.39339 0.0
C249 C 0.45936 0.81688 0.33434 0.0
O250 O 0.48082 0.80535 0.35327 0.0
N251 N 0.44265 0.82285 0.43264 0.0
C252 C 0.45467 0.79911 0.4916 0.0
C253 C 0.4287 0.8192 0.48605 0.0
C254 C 0.42356 0.8315 0.45651 0.0
C255 C 0.47007 0.80698 0.43841 0.0
C256 C 0.47664 0.79495 0.4677 0.0
H257 H 0.40381 0.84717 0.45312 0.0
H258 H 0.486 0.8019 0.41956 0.0
H259 H 0.43309 0.89208 0.42943 0.0
H260 H 0.52062 0.91613 0.38957 0.0
H261 H 0.38836 0.72069 0.40494 0.0
H262 H 0.41131 0.82402 0.50371 0.0
H263 H 0.49789 0.78107 0.47102 0.0
C264 C 0.37697 1.00287 0.91459 0.0
C265 C 0.40386 0.01459 0.92889 0.0
N266 N 0.41252 0.99432 0.95152 0.0
N267 N 0.36861 0.97525 0.92802 0.0
C268 C 0.3908 0.9707 0.95024 0.0
H269 H 0.36414 0.01419 0.89601 0.0
Co270 Co 0.33306 0.94904 0.92126 0.0
C271 C 0.36038 0.88287 0.92708 0.0
O272 O 0.3334 0.86955 0.9349 0.0
N273 N 0.29741 0.92262 0.9145 0.0
C274 C 0.25229 0.89588 0.92019 0.0
C275 C 0.26973 0.92164 0.92998 0.0
C276 C 0.29519 0.89845 0.89408 0.0
N277 N 0.26871 0.88078 0.89806 0.0
O278 O 0.3375 0.95183 0.8772 0.0
H279 H 0.26326 0.93735 0.94855 0.0
H280 H 0.31426 0.89208 0.8787 0.0
O281 O 0.36216 0.91278 0.9226 0.0
C282 C 0.31833 0.97262 0.86676 0.0
O283 O 0.30474 0.99175 0.88657 0.0
N284 N 0.32575 0.94858 0.96397 0.0
C285 C 0.29714 0.95049 0.02178 0.0
C286 C 0.31725 0.92536 0.0137 0.0
C287 C 0.33165 0.92503 0.98479 0.0
C288 C 0.30959 0.97495 0.97272 0.0
C289 C 0.29518 0.97651 1.00161 0.0
H290 H 0.34626 0.90516 0.97923 0.0
H291 H 0.30586 0.99386 0.95622 0.0
H292 H 0.39025 0.95086 0.96603 0.0
H293 H 0.41583 0.03653 0.92307 0.0
H294 H 0.23055 0.88738 0.9306 0.0
H295 H 0.32004 0.90478 0.0284 0.0
H296 H 0.28093 0.997 1.00714 0.0
C297 C 0.50736 0.35875 0.90052 0.0
C298 C 0.49549 0.38668 0.91199 0.0
N299 N 0.5191 0.40248 0.92639 0.0
N300 N 0.53843 0.35679 0.90739 0.0
C301 C 0.54501 0.38411 0.92258 0.0
H302 H 0.49353 0.33994 0.89017 0.0
Co303 Co 0.562 0.31924 0.90579 0.0
C304 C 0.62874 0.33759 0.91599 0.0
O305 O 0.63176 0.31266 0.93401 0.0
N306 N 0.58523 0.28075 0.90363 0.0
C307 C 0.60804 0.23412 0.91253 0.0
C308 C 0.58317 0.2536 0.92012 0.0
C309 C 0.61025 0.27598 0.88471 0.0
N310 N 0.6256 0.24859 0.89068 0.0
O311 O 0.55971 0.31825 0.86147 0.0
H312 H 0.56587 0.24848 0.9377 0.0
H313 H 0.61859 0.29371 0.86855 0.0
O314 O 0.60179 0.34409 0.9039 0.0
C315 C 0.53852 0.29869 0.85234 0.0
O316 O 0.51923 0.28646 0.87299 0.0
N317 N 0.56178 0.31839 0.94941 0.0
C318 C 0.55868 0.30555 0.0125 0.0
C319 C 0.57813 0.33004 1.00128 0.0
C320 C 0.57922 0.33623 0.96964 0.0
C321 C 0.53915 0.2983 0.96038 0.0
C322 C 0.53768 0.29084 0.99169 0.0
H323 H 0.59479 0.35483 0.96181 0.0
H324 H 0.52365 0.28616 0.94431 0.0
H325 H 0.56796 0.38968 0.93224 0.0
H326 H 0.47077 0.39341 0.91198 0.0
H327 H 0.61411 0.21225 0.92419 0.0
H328 H 0.59349 0.3434 0.01656 0.0
H329 H 0.52178 0.27204 0.99885 0.0
C330 C 0.13346 0.52493 0.90917 0.0
C331 C 0.10545 0.51277 0.92067 0.0
N332 N 0.09163 0.5351 0.93826 0.0
N333 N 0.13739 0.55486 0.91939 0.0
C334 C 0.11134 0.56039 0.93677 0.0
H335 H 0.15046 0.5121 0.89548 0.0
Co336 Co 0.17366 0.5808 0.91688 0.0
C337 C 0.14926 0.64651 0.92538 0.0
O338 O 0.17517 0.65505 0.94011 0.0
N339 N 0.2101 0.60696 0.91415 0.0
C340 C 0.25433 0.63421 0.92355 0.0
C341 C 0.23652 0.60804 0.93176 0.0
C342 C 0.21344 0.63163 0.89435 0.0
N343 N 0.23936 0.64946 0.90041 0.0
O344 O 0.17384 0.57879 0.87257 0.0
H345 H 0.24181 0.59217 0.95063 0.0
H346 H 0.1955 0.63805 0.8776 0.0
O347 O 0.14579 0.61796 0.91606 0.0
C348 C 0.19371 0.5575 0.86482 0.0
O349 O 0.20521 0.53904 0.88656 0.0
N350 N 0.17627 0.5797 0.96011 0.0
C351 C 0.19157 0.56856 0.0219 0.0
C352 C 0.17068 0.59306 0.01367 0.0
C353 C 0.16298 0.59805 0.98255 0.0
C354 C 0.19432 0.55429 0.96797 0.0
C355 C 0.20253 0.54845 0.99851 0.0
H356 H 0.14645 0.61655 0.97696 0.0
H357 H 0.20375 0.5393 0.95002 0.0
H358 H 0.10788 0.5819 0.9498 0.0
H359 H 0.09653 0.48897 0.91706 0.0
H360 H 0.2752 0.64277 0.93553 0.0
H361 H 0.16091 0.60864 0.031 0.0
H362 H 0.21897 0.52943 1.0033 0.0
C363 C 0.98307 0.11292 0.9027 0.0
C364 C 0.99815 0.08704 0.91595 0.0
N365 N 0.9893 0.08489 0.94577 0.0
N366 N 0.96521 0.12747 0.92422 0.0
C367 C 0.96909 0.10923 0.94969 0.0
H368 H 0.98372 0.11922 0.87853 0.0
Co369 Co 0.9327 0.15843 0.92382 0.0
C370 C 0.89087 0.11138 0.93055 0.0
O371 O 0.8989 0.11783 0.95914 0.0
N372 N 0.89888 0.18697 0.92535 0.0
C373 C 0.86273 0.21992 0.94394 0.0
C374 C 0.8909 0.20483 0.9499 0.0
C375 C 0.87474 0.19086 0.90509 0.0
N376 N 0.85248 0.21092 0.91585 0.0
O377 O 0.94132 0.17258 0.88116 0.0
H378 H 0.90417 0.20589 0.97127 0.0
H379 H 0.87288 0.17824 0.88343 0.0
O380 O 0.90395 0.12692 0.90884 0.0
C381 C 0.96652 0.18245 0.86778 0.0
O382 O 0.99379 0.18072 0.88239 0.0
N383 N 0.96036 0.19026 0.94044 0.0
C384 C 0.98001 0.24052 0.97796 0.0
C385 C 0.98612 0.20908 0.98646 0.0
C386 C 0.97534 0.18439 0.96784 0.0
C387 C 0.95882 0.22077 0.92965 0.0
C388 C 0.96827 0.24624 0.94813 0.0
H389 H 0.97633 0.16102 0.97742 0.0
H390 H 0.94627 0.22608 0.90851 0.0
H391 H 0.95585 0.1129 0.97065 0.0
H392 H 0.0136 0.07063 0.9042 0.0
H393 H 0.84978 0.23479 0.95981 0.0
H394 H 0.99606 0.20342 1.00886 0.0
H395 H 0.96288 0.27002 0.94035 0.0
C396 C 0.38882 0.51484 0.6265 0.0
C397 C 0.4161 0.50358 0.61299 0.0
N398 N 0.43028 0.5276 0.5977 0.0
N399 N 0.38571 0.54597 0.62006 0.0
C400 C 0.41168 0.55309 0.60297 0.0
H401 H 0.37122 0.50054 0.63813 0.0
Co402 Co 0.34837 0.57001 0.62448 0.0
C403 C 0.36648 0.6363 0.61002 0.0
O404 O 0.33958 0.6397 0.59505 0.0
N405 N 0.31039 0.59399 0.62939 0.0
C406 C 0.26289 0.61633 0.62463 0.0
C407 C 0.28148 0.59107 0.61619 0.0
C408 C 0.30772 0.62011 0.64738 0.0
N409 N 0.27967 0.63509 0.64383 0.0
O410 O 0.3515 0.56948 0.66865 0.0
H411 H 0.27423 0.57264 0.60049 0.0
H412 H 0.32709 0.62914 0.66121 0.0
O413 O 0.37365 0.60953 0.62215 0.0
C414 C 0.33301 0.54784 0.67882 0.0
O415 O 0.32119 0.52745 0.65896 0.0
N416 N 0.34296 0.56789 0.58147 0.0
C417 C 0.32041 0.56524 0.52124 0.0
C418 C 0.34763 0.58312 0.52842 0.0
C419 C 0.35845 0.58431 0.55883 0.0
C420 C 0.32115 0.54547 0.57364 0.0
C421 C 0.30875 0.54431 0.54385 0.0
H422 H 0.37833 0.5995 0.56395 0.0
H423 H 0.31104 0.53053 0.59143 0.0
H424 H 0.41607 0.57616 0.59308 0.0
H425 H 0.42346 0.47903 0.61244 0.0
H426 H 0.23957 0.62145 0.6155 0.0
H427 H 0.35913 0.5979 0.5113 0.0
H428 H 0.28836 0.52926 0.53976 0.0
C429 C 0.98992 0.37221 0.62538 0.0
C430 C 1.00328 0.39893 0.61213 0.0
N431 N 0.98132 0.41326 0.59429 0.0
N432 N 0.95947 0.36958 0.61625 0.0
C433 C 0.95489 0.39522 0.59776 0.0
H434 H 1.00239 0.3547 0.63894 0.0
Co435 Co 0.9328 0.33342 0.61928 0.0
C436 C 0.86741 0.35905 0.61206 0.0
O437 O 0.85834 0.33396 0.59636 0.0
N438 N 0.90624 0.29693 0.62213 0.0
C439 C 0.88141 0.25144 0.61204 0.0
C440 C 0.9074 0.27002 0.60538 0.0
C441 C 0.8803 0.29301 0.64022 0.0
N442 N 0.86386 0.26626 0.63351 0.0
O443 O 0.93574 0.33269 0.66388 0.0
H444 H 0.92503 0.26461 0.58823 0.0
H445 H 0.87227 0.31081 0.65632 0.0
O446 O 0.89612 0.36176 0.6212 0.0
C447 C 0.95634 0.31234 0.67254 0.0
O448 O 0.9743 0.2994 0.65132 0.0
N449 N 0.93267 0.33147 0.57584 0.0
C450 C 0.94145 0.31791 0.51338 0.0
C451 C 0.91787 0.3392 0.52277 0.0
C452 C 0.91406 0.34598 0.55416 0.0
C453 C 0.95743 0.3132 0.56685 0.0
C454 C 0.96202 0.30572 0.53595 0.0
H455 H 0.89638 0.36303 0.56052 0.0
H456 H 0.97286 0.303 0.58417 0.0
H457 H 0.93293 0.39965 0.58569 0.0
H458 H 0.02795 0.40584 0.61381 0.0
H459 H 0.87475 0.22987 0.60014 0.0
H460 H 0.90213 0.35009 0.50611 0.0
H461 H 0.98049 0.28903 0.53023 0.0
C462 C 0.15027 0.99895 0.61396 0.0
C463 C 0.12481 0.014 0.60044 0.0
N464 N 0.10694 0.99214 0.58576 0.0
N465 N 0.14853 0.96761 0.60813 0.0
C466 C 0.1216 0.96426 0.59132 0.0
H467 H 0.16989 0.0106 0.62536 0.0
Co468 Co 0.18135 0.93792 0.61349 0.0
C469 C 0.15188 0.87509 0.60082 0.0
O470 O 0.17809 0.86627 0.58704 0.0
N471 N 0.21491 0.90846 0.6194 0.0
C472 C 0.26045 0.88201 0.61758 0.0
C473 C 0.24461 0.90865 0.60779 0.0
C474 C 0.21418 0.88228 0.63765 0.0
N475 N 0.24107 0.86511 0.63601 0.0
O476 O 0.17856 0.94062 0.65768 0.0
H477 H 0.25444 0.92651 0.59276 0.0
H478 H 0.1936 0.87517 0.65087 0.0
O479 O 0.14971 0.90307 0.61207 0.0
C480 C 0.19979 0.96019 0.66678 0.0
O481 O 0.21545 0.97647 0.64585 0.0
N482 N 0.1868 0.93789 0.57035 0.0
C483 C 0.20554 0.94081 0.50863 0.0
C484 C 0.17721 0.92547 0.51714 0.0
C485 C 0.16837 0.92408 0.54812 0.0
C486 C 0.21126 0.95711 0.56192 0.0
C487 C 0.22173 0.95814 0.53149 0.0
H488 H 0.14684 0.91165 0.55376 0.0
H489 H 0.22395 0.97034 0.57941 0.0
H490 H 0.11369 0.94204 0.58189 0.0
H491 H 0.12113 0.03937 0.59965 0.0
H492 H 0.28388 0.87486 0.61034 0.0
H493 H 0.16238 0.91361 0.50032 0.0
H494 H 0.2434 0.97097 0.5267 0.0
C495 C 0.50028 0.1331 0.59758 0.0
C496 C 0.48636 0.10716 0.58353 0.0
N497 N 0.50805 0.09315 0.56536 0.0
N498 N 0.53078 0.1355 0.58859 0.0
C499 C 0.53472 0.11067 0.56916 0.0
H500 H 0.48842 0.14972 0.6125 0.0
Co501 Co 0.56004 0.16857 0.59688 0.0
C502 C 0.623 0.13895 0.58583 0.0
O503 O 0.63409 0.16534 0.57375 0.0
N504 N 0.58941 0.20207 0.60568 0.0
C505 C 0.61525 0.24829 0.60669 0.0
C506 C 0.58864 0.23263 0.59628 0.0
C507 C 0.61587 0.20059 0.62356 0.0
N508 N 0.63277 0.22794 0.62345 0.0
O509 O 0.55621 0.16267 0.64062 0.0
H510 H 0.57032 0.24323 0.58236 0.0
H511 H 0.62334 0.17927 0.63541 0.0
O512 O 0.5943 0.13722 0.59502 0.0
C513 C 0.53652 0.1829 0.65099 0.0
O514 O 0.51971 0.19932 0.63107 0.0
N515 N 0.56163 0.17737 0.55426 0.0
C516 C 0.56732 0.20732 0.49725 0.0
C517 C 0.58194 0.17791 0.5027 0.0
C518 C 0.57882 0.16327 0.53148 0.0
C519 C 0.54233 0.20211 0.54717 0.0
C520 C 0.54537 0.21807 0.51913 0.0
H521 H 0.59134 0.14147 0.53542 0.0
H522 H 0.52684 0.21156 0.56471 0.0
H523 H 0.55664 0.10577 0.55746 0.0
H524 H 0.46177 0.10008 0.58552 0.0
H525 H 0.62189 0.2724 0.60093 0.0
H526 H 0.59736 0.1673 0.48573 0.0
H527 H 0.53274 0.24014 0.51619 0.0
H528 H 0.71515 1.00282 0.2103 0.0
H529 H 0.80414 0.11125 0.33542 0.0
H530 H 0.70081 0.10377 0.21568 0.0
H531 H 0.80865 0.00909 0.33293 0.0
H532 H 0.76646 0.1099 0.29209 0.0
H533 H 0.74798 0.00524 0.25658 0.0
C534 C 0.71842 0.02547 0.22166 0.0
C535 C 0.70502 0.05307 0.20923 0.0
C536 C 0.77575 0.08782 0.30105 0.0
C537 C 0.74364 0.05629 0.26202 0.0
C538 C 0.79749 0.08857 0.32562 0.0
C539 C 0.80979 0.06023 0.33784 0.0
C540 C 0.76631 0.05852 0.28849 0.0
C541 C 0.79995 0.03156 0.32436 0.0
C542 C 0.7374 0.0269 0.24802 0.0
C543 C 0.7103 0.08183 0.22477 0.0
N544 N 0.77892 0.03148 0.30054 0.0
N545 N 0.72953 0.08277 0.25018 0.0
H546 H 0.40698 0.80603 0.29744 0.0
H547 H 0.50785 0.70343 0.17696 0.0
H548 H 0.50864 0.7965 0.29986 0.0
H549 H 0.40563 0.70161 0.17965 0.0
H550 H 0.5081 0.74135 0.2193 0.0
H551 H 0.40554 0.7731 0.25067 0.0
C552 C 0.42903 0.79773 0.28771 0.0
C553 C 0.45799 0.80396 0.3026 0.0
C554 C 0.48556 0.73265 0.21074 0.0
C555 C 0.4565 0.7659 0.24956 0.0
C556 C 0.48541 0.71082 0.18658 0.0
C557 C 0.4567 0.69906 0.17476 0.0
C558 C 0.45677 0.7431 0.2233 0.0
C559 C 0.42837 0.70977 0.18817 0.0
C560 C 0.42818 0.77861 0.26124 0.0
C561 C 0.48579 0.79221 0.2892 0.0
N562 N 0.42911 0.73121 0.21168 0.0
N563 N 0.48434 0.77366 0.26366 0.0
H564 H 0.68206 0.4455 0.3108 0.0
H565 H 0.836 0.47937 0.20703 0.0
H566 H 0.75664 0.51043 0.33724 0.0
H567 H 0.74581 0.45301 0.16764 0.0
H568 H 0.81119 0.4798 0.25854 0.0
H569 H 0.70872 0.43804 0.26081 0.0
C570 C 0.70385 0.45825 0.3061 0.0
C571 C 0.71683 0.47894 0.32813 0.0
C572 C 0.79698 0.47361 0.23858 0.0
C573 C 0.74787 0.46978 0.27164 0.0
C574 C 0.81119 0.47314 0.20935 0.0
C575 C 0.79281 0.46642 0.18322 0.0
C576 C 0.76441 0.46669 0.24156 0.0
C577 C 0.76067 0.45867 0.18731 0.0
C578 C 0.71911 0.4539 0.27768 0.0
C579 C 0.74542 0.49456 0.3209 0.0
N580 N 0.74747 0.45901 0.21588 0.0
N581 N 0.76 0.48954 0.29345 0.0
H582 H 0.03246 0.68133 0.34032 0.0
H583 H 0.09767 0.80855 0.2175 0.0
H584 H 0.12125 0.67267 0.2923 0.0
H585 H 0.99798 0.79002 0.23044 0.0
H586 H 0.10958 0.7698 0.25812 0.0
H587 H 0.02262 0.73155 0.31246 0.0
C588 C 0.05002 0.69027 0.32428 0.0
C589 C 0.07756 0.67284 0.31832 0.0
C590 C 0.08508 0.77472 0.25243 0.0
C591 C 0.06683 0.7301 0.28698 0.0
C592 C 0.07824 0.79698 0.22932 0.0
C593 C 0.04677 0.80206 0.21994 0.0
C594 C 0.06028 0.75793 0.26677 0.0
C595 C 0.02261 0.78654 0.23655 0.0
C596 C 0.04443 0.7188 0.30842 0.0
C597 C 0.09959 0.68532 0.29729 0.0
N598 N 0.02985 0.76497 0.2589 0.0
N599 N 0.0938 0.71313 0.28243 0.0
H600 H 0.29335 0.02109 0.83371 0.0
H601 H 0.20946 0.91072 0.70728 0.0
H602 H 0.31143 0.92072 0.82847 0.0
H603 H 0.2196 0.01201 0.69796 0.0
H604 H 0.24063 0.91307 0.75548 0.0
H605 H 0.262 0.0176 0.78646 0.0
C606 C 0.29116 0.99836 0.82228 0.0
C607 C 0.30521 0.97121 0.835 0.0
C608 C 0.23565 0.93478 0.74302 0.0
C609 C 0.26829 0.96677 0.78122 0.0
C610 C 0.21743 0.93351 0.71587 0.0
C611 C 0.21164 0.9613 0.6989 0.0
C612 C 0.24775 0.96408 0.7533 0.0
C613 C 0.22331 0.99009 0.71051 0.0
C614 C 0.27304 0.99633 0.7954 0.0
C615 C 0.30128 0.94231 0.81933 0.0
N616 N 0.24073 0.99074 0.7369 0.0
N617 N 0.28286 0.94075 0.79342 0.0
H618 H 0.58897 0.29127 0.81266 0.0
H619 H 0.48605 0.20088 0.68487 0.0
H620 H 0.4889 0.27243 0.82166 0.0
H621 H 0.58763 0.19201 0.68956 0.0
H622 H 0.48688 0.22999 0.73351 0.0
H623 H 0.58934 0.25967 0.76492 0.0
C624 C 0.56699 0.28106 0.80427 0.0
C625 C 0.53879 0.28466 0.82102 0.0
C626 C 0.50901 0.22132 0.72424 0.0
C627 C 0.53915 0.24818 0.76691 0.0
C628 C 0.50849 0.20445 0.69661 0.0
C629 C 0.53673 0.19361 0.68345 0.0
C630 C 0.5381 0.22817 0.73862 0.0
C631 C 0.56526 0.19942 0.69928 0.0
C632 C 0.56731 0.26267 0.77731 0.0
C633 C 0.51114 0.27036 0.80944 0.0
N634 N 0.56529 0.2167 0.72589 0.0
N635 N 0.51201 0.25287 0.78318 0.0
H636 H 0.31047 0.49898 0.71287 0.0
H637 H 0.20737 0.60757 0.82579 0.0
H638 H 0.31876 0.60089 0.7133 0.0
H639 H 0.21788 0.50643 0.83581 0.0
H640 H 0.24408 0.60627 0.78167 0.0
H641 H 0.27457 0.50184 0.75669 0.0
C642 C 0.30523 0.52198 0.72267 0.0
C643 C 0.31782 0.54969 0.70953 0.0
C644 C 0.23804 0.58436 0.79338 0.0
C645 C 0.2756 0.55334 0.75927 0.0
C646 C 0.21672 0.58503 0.81822 0.0
C647 C 0.20942 0.55701 0.83433 0.0
C648 C 0.25184 0.55544 0.78457 0.0
C649 C 0.22277 0.52856 0.82398 0.0
C650 C 0.28445 0.52365 0.74754 0.0
C651 C 0.30988 0.5789 0.72294 0.0
N652 N 0.24328 0.52853 0.79991 0.0
N653 N 0.28894 0.58002 0.74688 0.0
H654 H 0.01516 0.20163 0.83048 0.0
H655 H 0.90803 0.30621 0.71531 0.0
H656 H 0.91346 0.20679 0.83873 0.0
H657 H 0.00697 0.28597 0.70125 0.0
H658 H 0.90965 0.27472 0.76334 0.0
H659 H 0.01254 0.23603 0.78523 0.0
C660 C 0.99219 0.20978 0.82266 0.0
C661 C 0.9645 0.20101 0.83847 0.0
C662 C 0.93105 0.2775 0.74987 0.0
C663 C 0.96131 0.24118 0.7865 0.0
C664 C 0.93023 0.29581 0.72267 0.0
C665 C 0.95746 0.29887 0.70429 0.0
C666 C 0.95937 0.2624 0.7588 0.0
C667 C 0.9854 0.28428 0.71465 0.0
C668 C 0.99071 0.2296 0.79679 0.0
C669 C 0.93544 0.21261 0.82716 0.0
N670 N 0.9856 0.26674 0.74101 0.0
N671 N 0.93461 0.23216 0.80198 0.0
H672 H 0.43932 0.94849 0.98797 0.0
H673 H 0.56544 0.06769 0.06313 0.0
H674 H 0.44496 0.0484 0.96644 0.0
H675 H 0.55312 0.97118 0.09484 0.0
H676 H 0.52184 0.06034 0.0275 0.0
H677 H 0.48134 0.95558 0.02621 0.0
C678 C 0.44914 0.97197 0.99123 0.0
C679 C 0.43817 0.9979 0.9737 0.0
C680 C 0.5285 0.04077 0.04235 0.0
C681 C 0.48694 0.00603 0.0176 0.0
C682 C 0.55348 0.045 0.06315 0.0
C683 C 0.56335 0.02007 0.0826 0.0
C684 C 0.51303 0.01133 0.04046 0.0
C685 C 0.54678 0.99109 0.08037 0.0
C686 C 0.47332 0.97594 0.01312 0.0
C687 C 0.45257 0.02756 0.97892 0.0
N688 N 0.52259 0.9875 0.05967 0.0
N689 N 0.47608 0.03075 1.00029 0.0
H690 H 0.47389 0.44798 0.92355 0.0
H691 H 0.53014 0.53912 0.07678 0.0
H692 H 0.55571 0.41882 0.97622 0.0
H693 H 0.43943 0.5516 0.03223 0.0
H694 H 0.54279 0.49777 0.03883 0.0
H695 H 0.46443 0.48992 0.96095 0.0
C696 C 0.48996 0.4504 0.94291 0.0
C697 C 0.5155 0.42951 0.94666 0.0
C698 C 0.52017 0.50971 0.03744 0.0
C699 C 0.50481 0.47792 0.98991 0.0
C700 C 0.51286 0.5332 0.0592 0.0
C701 C 0.48382 0.54938 0.05765 0.0
C702 C 0.49832 0.50239 0.01389 0.0
C703 C 0.46245 0.54066 0.03413 0.0
C704 C 0.48455 0.47444 0.96434 0.0
C705 C 0.53585 0.43438 0.97208 0.0
N706 N 0.47018 0.518 0.01329 0.0
N707 N 0.52998 0.45795 0.99278 0.0
H708 H 0.06797 0.48055 0.96299 0.0
H709 H 0.922 0.56497 0.04699 0.0
H710 H 0.05214 0.58146 0.95878 0.0
H711 H 0.94854 0.46739 0.0622 0.0
H712 H 0.96839 0.57164 0.01385 0.0
H713 H 0.02252 0.47518 0.99731 0.0
C714 C 0.05481 0.50159 0.96901 0.0
C715 C 0.06401 0.53152 0.95778 0.0
C716 C 0.96406 0.5488 0.02453 0.0
C717 C 0.0118 0.52554 0.99765 0.0
C718 C 0.93759 0.54498 0.04369 0.0
C719 C 0.93089 0.51544 0.05742 0.0
C720 C 0.98405 0.5229 0.01884 0.0
C721 C 0.9521 0.49044 0.05179 0.0
C722 C 0.02894 0.49853 0.9889 0.0
C723 C 0.04617 0.55796 0.96701 0.0
N724 N 0.97747 0.49471 0.0329 0.0
N725 N 0.02093 0.55434 0.98629 0.0
H726 H 0.98517 0.08991 1.00829 0.0
H727 H 0.04424 0.91335 0.04435 0.0
H728 H 0.01198 0.02477 0.93635 0.0
H729 H 0.99485 0.97163 0.11001 0.0
H730 H 0.03851 0.95543 1.00562 0.0
H731 H 0.99439 0.04862 0.04647 0.0
C732 C 0.99281 0.0669 1.00033 0.0
C733 C 0.99716 0.06092 0.96868 0.0
C734 C 0.02902 0.95904 0.02853 0.0
C735 C 0.00854 0.01321 0.01301 0.0
C736 C 0.03249 0.9351 0.05079 0.0
C737 C 0.02007 0.9389 0.08067 0.0
C738 C 0.01329 0.98724 0.03616 0.0
C739 C 1.0046 0.96749 0.08732 0.0
C740 C 0.99825 0.04328 0.02234 0.0
C741 C 0.00822 0.03068 0.96032 0.0
N742 N 1.00175 0.9905 0.06536 0.0
N743 N 0.01342 0.00798 0.9823 0.0
H744 H 0.44141 0.56454 0.547 0.0
H745 H 0.59443 0.46654 0.49416 0.0
H746 H 0.47802 0.4843 0.59749 0.0
H747 H 0.55229 0.54114 0.4396 0.0
H748 H 0.55279 0.47318 0.53248 0.0
H749 H 0.48314 0.5577 0.50871 0.0
C750 C 0.4584 0.5457 0.55035 0.0
C751 C 0.45608 0.52504 0.57579 0.0
C752 C 0.55259 0.48805 0.51208 0.0
C753 C 0.50398 0.51674 0.53136 0.0
C754 C 0.57635 0.48411 0.48991 0.0
C755 C 0.57716 0.50328 0.46328 0.0
C756 C 0.52933 0.51142 0.50787 0.0
C757 C 0.55308 0.52602 0.45976 0.0
C758 C 0.48214 0.54162 0.52821 0.0
C759 C 0.47862 0.50067 0.57825 0.0
N760 N 0.53032 0.52947 0.48174 0.0
N761 N 0.50154 0.49723 0.5564 0.0
H762 H 0.94735 0.42691 0.54208 0.0
H763 H 0.05789 0.57376 0.4911 0.0
H764 H 0.02771 0.45877 0.59564 0.0
H765 H 0.97863 0.53901 0.43772 0.0
H766 H 0.0476 0.5323 0.52961 0.0
H767 H 0.95806 0.46869 0.50451 0.0
C768 C 0.96706 0.4428 0.54627 0.0
C769 C 0.98654 0.43905 0.57244 0.0
C770 C 0.03247 0.53377 0.50944 0.0
C771 C 0.99935 0.48721 0.52865 0.0
C772 C 0.03847 0.5574 0.48725 0.0
C773 C 0.01909 0.56026 0.4609 0.0
C774 C 0.00689 0.51263 0.50542 0.0
C775 C 0.99402 0.53832 0.45768 0.0
C776 C 0.97335 0.46665 0.52451 0.0
C777 C 0.01213 0.46036 0.57585 0.0
N778 N 0.9887 0.51564 0.47955 0.0
N779 N 0.01776 0.48339 0.55431 0.0
H780 H 0.97056 0.98645 0.43465 0.0
H781 H 0.06721 0.04273 0.58515 0.0
H782 H 0.95736 0.07607 0.48053 0.0
H783 H 0.08706 0.95538 0.53739 0.0
H784 H 0.02571 0.05411 0.54748 0.0
H785 H 0.01279 0.97372 0.47189 0.0
C786 C 0.97658 1.00348 0.45239 0.0
C787 C 0.95997 0.0322 0.45458 0.0
C788 C 0.03908 0.03239 0.54523 0.0
C789 C 0.00807 0.01773 0.49745 0.0
C790 C 0.06291 0.0259 0.56679 0.0
C791 C 0.0809 0.99807 0.56463 0.0
C792 C 0.03298 0.01095 0.5211 0.0
C793 C 0.07371 0.97696 0.5404 0.0
C794 C 1.00056 0.99615 0.47376 0.0
C795 C 0.96878 0.05331 0.47822 0.0
N796 N 0.05044 0.98388 0.51959 0.0
N797 N 0.99203 0.04563 0.49863 0.0
H798 H 0.51456 0.96661 0.40873 0.0
H799 H 0.46397 0.0458 0.56943 0.0
H800 H 0.44661 0.92388 0.47064 0.0
H801 H 0.54044 0.08033 0.51248 0.0
H802 H 0.45516 1.00256 0.53264 0.0
H803 H 0.5221 0.00975 0.44535 0.0
C804 C 0.50121 0.96611 0.42999 0.0
C805 C 0.48002 0.94111 0.43641 0.0
C806 C 0.47391 0.01957 0.52824 0.0
C807 C 0.48842 0.99122 0.47874 0.0
C808 C 0.47889 0.04439 0.54922 0.0
C809 C 0.50307 0.06689 0.54426 0.0
C810 C 0.49305 0.0172 0.50184 0.0
C811 C 0.52182 0.06347 0.51767 0.0
C812 C 0.5055 0.99096 0.45095 0.0
C813 C 0.46303 0.94252 0.46432 0.0
N814 N 0.51635 0.03928 0.49754 0.0
N815 N 0.46765 0.96703 0.48439 0.0
H816 H 0.6144 0.30273 0.04549 0.0
H817 H 0.56502 0.13953 0.09719 0.0
H818 H 0.51563 0.27591 0.05139 0.0
H819 H 0.65491 0.18034 0.12315 0.0
H820 H 0.54296 0.19271 0.09244 0.0
H821 H 0.62654 0.26525 0.08598 0.0
C822 C 0.59492 0.28982 0.05586 0.0
C823 C 0.56403 0.29159 0.04372 0.0
C824 C 0.56721 0.19018 0.10028 0.0
C825 C 0.57832 0.24732 0.08962 0.0
C826 C 0.57975 0.1598 0.10296 0.0
C827 C 0.61177 0.15578 0.11033 0.0
C828 C 0.58731 0.21661 0.10373 0.0
C829 C 0.63005 0.18255 0.11752 0.0
C830 C 0.60203 0.26807 0.07907 0.0
C831 C 0.54009 0.27415 0.05869 0.0
N832 N 0.6178 0.21197 0.11317 0.0
N833 N 0.54789 0.25193 0.08011 0.0
H834 H 0.20881 0.51506 0.05454 0.0
H835 H 0.33498 0.62011 0.14249 0.0
H836 H 0.20764 0.61719 0.06115 0.0
H837 H 0.35459 0.53923 0.0853 0.0
H838 H 0.27828 0.60666 0.1406 0.0
H839 H 0.25036 0.51367 0.09393 0.0
C840 C 0.2165 0.53714 0.0649 0.0
C841 C 0.20591 0.56641 0.05326 0.0
C842 C 0.29524 0.59117 0.12962 0.0
C843 C 0.25248 0.56473 0.09899 0.0
C844 C 0.3275 0.59883 0.13061 0.0
C845 C 0.34903 0.5816 0.11275 0.0
C846 C 0.28503 0.56566 0.11135 0.0
C847 C 0.33845 0.55368 0.09856 0.0
C848 C 0.23999 0.53623 0.08758 0.0
C849 C 0.21561 0.59409 0.06869 0.0
N850 N 0.30701 0.54691 0.09758 0.0
N851 N 0.23902 0.59264 0.09022 0.0
H852 H 0.99184 0.30502 0.97244 0.0
H853 H 0.87026 0.33456 0.10378 0.0
H854 H 0.96278 0.23378 0.03853 0.0
H855 H 0.91489 0.41117 0.05417 0.0
H856 H 0.91231 0.29913 0.08699 0.0
H857 H 0.97288 0.34599 1.00766 0.0
C858 C 0.98224 0.29794 0.99457 0.0
C859 C 0.97824 0.26571 1.00198 0.0
C860 C 0.91353 0.32388 0.08038 0.0
C861 C 0.95649 0.31245 0.04236 0.0
C862 C 0.88952 0.34407 0.09009 0.0
C863 C 0.88924 0.37566 0.08033 0.0
C864 C 0.9367 0.33518 0.05977 0.0
C865 C 0.91447 0.38695 0.06236 0.0
C866 C 0.97154 0.32138 0.01476 0.0
C867 C 0.96639 0.25812 0.03142 0.0
N868 N 0.93686 0.36651 0.05198 0.0
N869 N 0.95535 0.28123 0.05014 0.0
H870 H 0.2359 0.97217 0.02554 0.0
H871 H 0.18658 0.82546 0.11259 0.0
H872 H 0.30571 0.91947 0.07751 0.0
H873 H 0.12332 0.90551 0.1109 0.0
H874 H 0.23104 0.86102 0.10291 0.0
H875 H 0.19506 0.95256 0.05997 0.0
C876 C 0.24304 0.95737 0.04474 0.0
C877 C 0.27445 0.94669 0.04783 0.0
C878 C 0.20758 0.87099 0.10543 0.0
C879 C 0.22715 0.92325 0.08673 0.0
C880 C 0.18216 0.85065 0.11082 0.0
C881 C 0.15128 0.86259 0.11241 0.0
C882 C 0.20195 0.90334 0.10039 0.0
C883 C 0.14684 0.89543 0.10976 0.0
C884 C 0.21946 0.94601 0.06436 0.0
C885 C 0.2817 0.92727 0.07328 0.0
N886 N 0.17187 0.91467 0.10302 0.0
N887 N 0.25808 0.91535 0.09116 0.0
H888 H 0.70086 0.33817 0.4359 0.0
H889 H 0.53569 0.25549 0.46583 0.0
H890 H 0.61231 0.38739 0.42354 0.0
H891 H 0.62725 0.21034 0.47298 0.0
H892 H 0.56099 0.3003 0.43959 0.0
H893 H 0.67248 0.2883 0.43836 0.0
C894 C 0.67533 0.33842 0.43335 0.0
C895 C 0.65888 0.36697 0.4298 0.0
C896 C 0.57528 0.28016 0.44632 0.0
C897 C 0.6258 0.30964 0.43373 0.0
C898 C 0.56091 0.25455 0.46149 0.0
C899 C 0.57938 0.22931 0.47286 0.0
C900 C 0.60826 0.28036 0.4423 0.0
C901 C 0.61171 0.22904 0.46516 0.0
C902 C 0.65904 0.30982 0.43476 0.0
C903 C 0.62581 0.36581 0.42647 0.0
N904 N 0.62509 0.25437 0.45094 0.0
N905 N 0.61019 0.33757 0.42921 0.0
H906 H 0.18833 0.68351 0.43792 0.0
H907 H 0.2778 0.52736 0.48852 0.0
H908 H 0.14444 0.59093 0.43457 0.0
H909 H 0.31656 0.62248 0.49116 0.0
H910 H 0.23353 0.54726 0.45773 0.0
H911 H 0.2392 0.65889 0.44698 0.0
C912 C 0.18939 0.65788 0.43934 0.0
C913 C 0.16203 0.63922 0.43626 0.0
C914 C 0.25222 0.56349 0.46454 0.0
C915 C 0.22053 0.61066 0.4469 0.0
C916 C 0.27751 0.55222 0.48229 0.0
C917 C 0.30051 0.5734 0.49389 0.0
C918 C 0.25021 0.59604 0.45813 0.0
C919 C 0.29951 0.60499 0.48349 0.0
C920 C 0.21859 0.64377 0.44421 0.0
C921 C 0.165 0.60612 0.43732 0.0
N922 N 0.27447 0.61536 0.4668 0.0
N923 N 0.19376 0.59281 0.44314 0.0
H924 H 0.96546 0.1561 0.43888 0.0
H925 H 0.89123 0.3052 0.47473 0.0
H926 H 0.88724 0.18536 0.38179 0.0
H927 H 0.99334 0.30019 0.47888 0.0
H928 H 0.89154 0.26792 0.43211 0.0
H929 H 0.98156 0.21132 0.44437 0.0
C930 C 0.95234 0.1742 0.42655 0.0
C931 C 0.92428 0.16653 0.41091 0.0
C932 C 0.91401 0.27579 0.4416 0.0
C933 C 0.94155 0.22972 0.41827 0.0
C934 C 0.91387 0.29725 0.46607 0.0
C935 C 0.94224 0.30481 0.48149 0.0
C936 C 0.94255 0.26124 0.43314 0.0
C937 C 0.97074 0.29374 0.46878 0.0
C938 C 0.96147 0.20579 0.4297 0.0
C939 C 0.90836 0.19066 0.39501 0.0
N940 N 0.97013 0.27158 0.4461 0.0
N941 N 0.91633 0.22149 0.40023 0.0
H942 H 0.36906 0.90781 0.40873 0.0
H943 H 0.19673 0.8896 0.46989 0.0
H944 H 0.30971 0.82502 0.39844 0.0
H945 H 0.24913 0.97784 0.47607 0.0
H946 H 0.23138 0.87276 0.4294 0.0
H947 H 0.32165 0.93929 0.42017 0.0
C948 C 0.34595 0.89654 0.40795 0.0
C949 C 0.34315 0.86375 0.40341 0.0
C950 C 0.23518 0.89604 0.43929 0.0
C951 C 0.28925 0.8992 0.4164 0.0
C952 C 0.21493 0.90603 0.46251 0.0
C953 C 0.22058 0.9348 0.47799 0.0
C954 C 0.26203 0.91428 0.43202 0.0
C955 C 0.24483 0.95459 0.46645 0.0
C956 C 0.31894 0.91443 0.4145 0.0
C957 C 0.31285 0.85016 0.40249 0.0
N958 N 0.26536 0.94351 0.44491 0.0
N959 N 0.28716 0.86783 0.40939 0.0
H960 H 0.45546 0.71827 0.97339 0.0
H961 H 0.41639 0.90011 0.95443 0.0
H962 H 0.4831 0.78976 0.03969 0.0
H963 H 0.36929 0.82239 0.90868 0.0
H964 H 0.45746 0.86336 0.97254 0.0
H965 H 0.44332 0.75961 0.93663 0.0
C966 C 0.46007 0.74254 0.98012 0.0
C967 C 0.46942 0.75034 1.01037 0.0
C968 C 0.43867 0.85462 0.95772 0.0
C969 C 0.45409 0.79808 0.96817 0.0
C970 C 0.41535 0.87555 0.94728 0.0
C971 C 0.38929 0.86397 0.93054 0.0
C972 C 0.43586 0.82217 0.9509 0.0
C973 C 0.38885 0.83203 0.92195 0.0
C974 C 0.45272 0.76627 0.95899 0.0
C975 C 0.47469 0.78255 0.01715 0.0
N976 N 0.41157 0.81215 0.93254 0.0
N977 N 0.4661 0.80532 0.99651 0.0
H978 H 0.80898 0.40091 0.95927 0.0
H979 H 0.63038 0.40223 0.90627 0.0
H980 H 0.75095 0.4852 0.96181 0.0
H981 H 0.69016 0.3203 0.9175 0.0
H982 H 0.67774 0.43638 0.91025 0.0
H983 H 0.77114 0.37667 0.925 0.0
C984 C 0.78882 0.41494 0.9522 0.0
C985 C 0.7827 0.44485 0.96511 0.0
C986 C 0.68046 0.41087 0.91092 0.0
C987 C 0.73796 0.4159 0.9266 0.0
C988 C 0.65352 0.39144 0.90863 0.0
C989 C 0.65645 0.35849 0.91198 0.0
C990 C 0.71027 0.397 0.91622 0.0
C991 C 0.68681 0.3456 0.91507 0.0
C992 C 0.76681 0.40067 0.9327 0.0
C993 C 0.75591 0.46135 0.95419 0.0
N994 N 0.71242 0.36486 0.9174 0.0
N995 N 0.73395 0.44625 0.93642 0.0
H996 H 0.01706 0.73544 0.0255 0.0
H997 H 0.08564 0.63285 0.92781 0.0
H998 H 0.05512 0.81186 0.97013 0.0
H999 H 0.15211 0.71062 0.92227 0.0
H1000 H 0.04363 0.67061 0.94065 0.0
H1001 H 0.03256 0.69815 0.98617 0.0
C1002 C 0.02748 0.74472 1.00453 0.0
C1003 C 0.03581 0.77693 1.00181 0.0
C1004 C 0.0673 0.67941 0.93605 0.0
C1005 C 0.05429 0.7338 0.95659 0.0
C1006 C 0.09119 0.65793 0.92851 0.0
C1007 C 0.12247 0.66868 0.92494 0.0
C1008 C 0.075 0.71164 0.93983 0.0
C1009 C 0.12839 0.70137 0.92568 0.0
C1010 C 0.03641 0.72316 0.98187 0.0
C1011 C 0.04949 0.78711 0.97393 0.0
N1012 N 0.10496 0.72168 0.93347 0.0
N1013 N 0.05936 0.76548 0.95291 0.0
H1014 H 0.7388 0.01824 1.00614 0.0
H1015 H 0.84074 0.12398 0.89271 0.0
H1016 H 0.70754 0.10821 0.96934 0.0
H1017 H 0.87594 0.05582 0.95818 0.0
H1018 H 0.78651 0.10433 0.90189 0.0
H1019 H 0.78143 0.01782 0.96891 0.0
C1020 C 0.74006 0.0375 0.98965 0.0
C1021 C 0.7198 0.06381 0.99165 0.0
C1022 C 0.80628 0.09292 0.91333 0.0
C1023 C 0.76971 0.0637 0.94938 0.0
C1024 C 0.83708 0.10406 0.90804 0.0
C1025 C 0.86233 0.09208 0.92548 0.0
C1026 C 0.80128 0.06916 0.9356 0.0
C1027 C 0.85683 0.06598 0.94472 0.0
C1028 C 0.76476 0.03728 0.96845 0.0
C1029 C 0.72324 0.08799 0.96947 0.0
N1030 N 0.82681 0.05568 0.94965 0.0
N1031 N 0.74826 0.08776 0.94973 0.0
H1032 H 0.47853 0.73879 0.49792 0.0
H1033 H 0.35459 0.6987 0.61717 0.0
H1034 H 0.43365 0.81296 0.55064 0.0
H1035 H 0.42989 0.63325 0.59729 0.0
H1036 H 0.38814 0.74239 0.60005 0.0
H1037 H 0.46829 0.70196 0.53955 0.0
C1038 C 0.46739 0.74783 0.51854 0.0
C1039 C 0.45607 0.77914 0.52005 0.0
C1040 C 0.39784 0.71866 0.60031 0.0
C1041 C 0.44321 0.73614 0.56768 0.0
C1042 C 0.37866 0.69371 0.61013 0.0
C1043 C 0.3895 0.66243 0.60836 0.0
C1044 C 0.42757 0.71208 0.58745 0.0
C1045 C 0.42072 0.6571 0.5989 0.0
C1046 C 0.46139 0.72649 0.54241 0.0
C1047 C 0.44158 0.78881 0.54764 0.0
N1048 N 0.43843 0.68165 0.58786 0.0
N1049 N 0.43473 0.76718 0.56997 0.0
H1050 H 0.77845 0.49917 0.52262 0.0
H1051 H 0.88145 0.42261 0.61393 0.0
H1052 H 0.70218 0.4582 0.57613 0.0
H1053 H 0.80332 0.35633 0.61521 0.0
H1054 H 0.84377 0.46587 0.60494 0.0
H1055 H 0.81584 0.48054 0.56047 0.0
C1056 C 0.76915 0.4874 0.54289 0.0
C1057 C 0.73688 0.47922 0.54526 0.0
C1058 C 0.8349 0.44191 0.60777 0.0
C1059 C 0.78038 0.45699 0.58883 0.0
C1060 C 0.85632 0.4173 0.6131 0.0
C1061 C 0.84541 0.38587 0.61435 0.0
C1062 C 0.80256 0.43476 0.60378 0.0
C1063 C 0.81268 0.38021 0.61352 0.0
C1064 C 0.79086 0.47663 0.56473 0.0
C1065 C 0.72693 0.46371 0.57234 0.0
N1066 N 0.79242 0.40439 0.60784 0.0
N1067 N 0.74872 0.45203 0.59246 0.0
H1068 H 0.04367 0.78753 0.47408 0.0
H1069 H 0.09157 0.8926 0.58431 0.0
H1070 H 0.04609 0.71544 0.54518 0.0
H1071 H 0.14878 0.81122 0.60645 0.0
H1072 H 0.05169 0.85724 0.56141 0.0
H1073 H 0.05663 0.82713 0.51262 0.0
C1074 C 0.04585 0.77992 0.49785 0.0
C1075 C 0.04467 0.74759 0.50592 0.0
C1076 C 0.07259 0.84718 0.57211 0.0
C1077 C 0.06036 0.79326 0.55022 0.0
C1078 C 0.09524 0.86729 0.58537 0.0
C1079 C 0.12374 0.85477 0.59671 0.0
C1080 C 0.07848 0.81447 0.57078 0.0
C1081 C 0.12726 0.82175 0.59754 0.0
C1082 C 0.05331 0.80277 0.51995 0.0
C1083 C 0.04818 0.73972 0.53735 0.0
N1084 N 0.10504 0.80271 0.5844 0.0
N1085 N 0.057 0.76221 0.55813 0.0
H1086 H 0.68194 0.13003 0.60847 0.0
H1087 H 0.71924 0.02101 0.47058 0.0
H1088 H 0.60856 0.08418 0.55546 0.0
H1089 H 0.78832 0.05112 0.53835 0.0
H1090 H 0.67723 0.03209 0.50769 0.0
H1091 H 0.71951 0.09025 0.59114 0.0
C1092 C 0.67361 0.11092 0.59387 0.0
C1093 C 0.64237 0.11038 0.58312 0.0
C1094 C 0.70168 0.03532 0.5147 0.0
C1095 C 0.68536 0.06564 0.56186 0.0
C1096 C 0.72571 0.02916 0.49343 0.0
C1097 C 0.75743 0.03618 0.50078 0.0
C1098 C 0.7095 0.04883 0.54336 0.0
C1099 C 0.76436 0.04563 0.53117 0.0
C1100 C 0.69502 0.08819 0.58385 0.0
C1101 C 0.63256 0.08529 0.56418 0.0
N1102 N 0.74058 0.05238 0.551 0.0
N1103 N 0.65425 0.06434 0.55337 0.0
H1104 H 0.71535 0.34887 0.13436 0.0
H1105 H 0.70479 0.18808 0.16899 0.0
H1106 H 0.81437 0.33137 0.11793 0.0
H1107 H 0.78416 0.17993 0.10684 0.0
H1108 H 0.71267 0.24526 0.17006 0.0
H1109 H 0.70721 0.29217 0.14325 0.0
C1110 C 0.73548 0.33311 0.13312 0.0
C1111 C 0.76561 0.34491 0.12552 0.0
C1112 C 0.7282 0.231 0.15597 0.0
C1113 C 0.75666 0.27981 0.13599 0.0
C1114 C 0.72379 0.19816 0.1554 0.0
C1115 C 0.74336 0.17881 0.13723 0.0
C1116 C 0.75246 0.24486 0.13832 0.0
C1117 C 0.76833 0.19357 0.12111 0.0
C1118 C 0.73091 0.30072 0.13851 0.0
C1119 C 0.79088 0.32338 0.12416 0.0
N1120 N 0.77205 0.22565 0.12194 0.0
N1121 N 0.78576 0.29184 0.12889 0.0
H1122 H 0.16638 0.79463 0.15609 0.0
H1123 H 0.29986 0.66286 0.13816 0.0
H1124 H 0.14277 0.69556 0.14515 0.0
H1125 H 0.30861 0.75728 0.10131 0.0
H1126 H 0.24588 0.67526 0.15549 0.0
H1127 H 0.22222 0.78159 0.15171 0.0
C1128 C 0.17273 0.77003 0.15333 0.0
C1129 C 0.14943 0.74627 0.15022 0.0
C1130 C 0.25984 0.69336 0.14401 0.0
C1131 C 0.21391 0.73124 0.14555 0.0
C1132 C 0.29062 0.68635 0.13432 0.0
C1133 C 0.30856 0.70904 0.11824 0.0
C1134 C 0.24731 0.72357 0.13822 0.0
C1135 C 0.29541 0.73913 0.11351 0.0
C1136 C 0.20479 0.76268 0.15067 0.0
C1137 C 0.15973 0.71477 0.14697 0.0
N1138 N 0.26561 0.74557 0.12349 0.0
N1139 N 0.19121 0.70817 0.1445 0.0
H1140 H 0.81904 0.37667 0.40057 0.0
H1141 H 0.74791 0.20438 0.41766 0.0
H1142 H 0.72047 0.35581 0.38245 0.0
H1143 H 0.84594 0.21927 0.39476 0.0
H1144 H 0.73739 0.2604 0.40617 0.0
H1145 H 0.83023 0.31971 0.39917 0.0
C1146 C 0.79979 0.36029 0.396 0.0
C1147 C 0.76862 0.37135 0.39227 0.0
C1148 C 0.76114 0.25131 0.40311 0.0
C1149 C 0.78127 0.30605 0.39088 0.0
C1150 C 0.76708 0.21943 0.40969 0.0
C1151 C 0.79776 0.20724 0.40678 0.0
C1152 C 0.78628 0.27136 0.39437 0.0
C1153 C 0.82195 0.22767 0.3967 0.0
C1154 C 0.80624 0.32777 0.39509 0.0
C1155 C 0.74482 0.34881 0.38576 0.0
N1156 N 0.81583 0.25887 0.39129 0.0
N1157 N 0.75153 0.31732 0.38588 0.0
H1158 H 0.3472 0.69932 0.37619 0.0
H1159 H 0.17401 0.76919 0.34355 0.0
H1160 H 0.32935 0.79638 0.34954 0.0
H1161 H 0.19155 0.67294 0.37308 0.0
H1162 H 0.2311 0.77799 0.34045 0.0
H1163 H 0.29081 0.68774 0.36985 0.0
C1164 C 0.33164 0.71822 0.36884 0.0
C1165 C 0.34344 0.74907 0.36395 0.0
C1166 C 0.2224 0.75488 0.34743 0.0
C1167 C 0.27838 0.73579 0.35643 0.0
C1168 C 0.18965 0.74982 0.34934 0.0
C1169 C 0.17745 0.72038 0.35915 0.0
C1170 C 0.24339 0.73037 0.35536 0.0
C1171 C 0.19936 0.6961 0.36556 0.0
C1172 C 0.29932 0.71152 0.36515 0.0
C1173 C 0.32183 0.77225 0.35373 0.0
N1174 N 0.2311 0.70173 0.36384 0.0
N1175 N 0.29046 0.76521 0.35065 0.0
H1176 H 0.21269 0.84939 0.89225 0.0
H1177 H 0.2956 0.68086 0.89729 0.0
H1178 H 0.31366 0.83723 0.88289 0.0
H1179 H 0.19516 0.69285 0.88303 0.0
H1180 H 0.30306 0.73795 0.88924 0.0
H1181 H 0.20563 0.79215 0.88576 0.0
C1182 C 0.23333 0.83478 0.88844 0.0
C1183 C 0.26381 0.84826 0.88856 0.0
C1184 C 0.27944 0.72798 0.88741 0.0
C1185 C 0.25601 0.78256 0.88145 0.0
C1186 C 0.27519 0.69541 0.89208 0.0
C1187 C 0.24473 0.68196 0.89104 0.0
C1188 C 0.25295 0.7474 0.88212 0.0
C1189 C 0.21912 0.70196 0.88393 0.0
C1190 C 0.22931 0.80209 0.88468 0.0
C1191 C 0.2897 0.82813 0.88308 0.0
N1192 N 0.22375 0.73366 0.8802 0.0
N1193 N 0.28525 0.7963 0.88028 0.0
H1194 H 0.82164 0.2668 0.91654 0.0
H1195 H 0.65447 0.19093 0.89204 0.0
H1196 H 0.81273 0.16982 0.88696 0.0
H1197 H 0.67194 0.28992 0.87275 0.0
H1198 H 0.71174 0.1816 0.89063 0.0
H1199 H 0.76628 0.27579 0.90172 0.0
C1200 C 0.80807 0.24753 0.90654 0.0
C1201 C 0.82165 0.21748 0.90308 0.0
C1202 C 0.70288 0.20525 0.88622 0.0
C1203 C 0.7583 0.22727 0.8867 0.0
C1204 C 0.67021 0.21062 0.88713 0.0
C1205 C 0.6582 0.24142 0.88332 0.0
C1206 C 0.7237 0.23095 0.88201 0.0
C1207 C 0.67984 0.26588 0.87634 0.0
C1208 C 0.77659 0.25264 0.89799 0.0
C1209 C 0.80316 0.19326 0.88994 0.0
N1210 N 0.71151 0.26026 0.87663 0.0
N1211 N 0.7722 0.19847 0.88277 0.0
H1212 H 0.22153 0.66319 0.64549 0.0
H1213 H 0.29687 0.8369 0.65039 0.0
H1214 H 0.32098 0.6821 0.66073 0.0
H1215 H 0.19639 0.81908 0.64382 0.0
H1216 H 0.30547 0.78034 0.65945 0.0
H1217 H 0.21101 0.71988 0.65023 0.0
C1218 C 0.24118 0.67909 0.65003 0.0
C1219 C 0.27235 0.66757 0.65196 0.0
C1220 C 0.28147 0.78881 0.65643 0.0
C1221 C 0.26036 0.73282 0.65751 0.0
C1222 C 0.27658 0.82113 0.65118 0.0
C1223 C 0.24591 0.83279 0.64606 0.0
C1224 C 0.25553 0.76779 0.65623 0.0
C1225 C 0.22043 0.81126 0.64776 0.0
C1226 C 0.2351 0.71154 0.65285 0.0
C1227 C 0.29661 0.68951 0.65871 0.0
N1228 N 0.22585 0.77979 0.65228 0.0
N1229 N 0.29016 0.72099 0.66078 0.0
H1230 H 0.83497 0.20848 0.63385 0.0
H1231 H 0.66149 0.28368 0.63868 0.0
H1232 H 0.81723 0.30787 0.64896 0.0
H1233 H 0.67891 0.18344 0.63012 0.0
H1234 H 0.71813 0.29236 0.64748 0.0
H1235 H 0.77801 0.1981 0.63752 0.0
C1236 C 0.81917 0.22809 0.63828 0.0
C1237 C 0.83109 0.25916 0.64077 0.0
C1238 C 0.70955 0.26839 0.64402 0.0
C1239 C 0.76554 0.24745 0.64485 0.0
C1240 C 0.67714 0.26343 0.63891 0.0
C1241 C 0.66527 0.23278 0.63329 0.0
C1242 C 0.73049 0.24258 0.6433 0.0
C1243 C 0.68679 0.20743 0.63439 0.0
C1244 C 0.7866 0.22214 0.64041 0.0
C1245 C 0.80937 0.28354 0.64694 0.0
N1246 N 0.7183 0.21293 0.63888 0.0
N1247 N 0.77773 0.27723 0.64837 0.0
loop_
_geom_bond_atom_site_label_1
_geom_bond_atom_site_label_2
_geom_bond_distance
_geom_bond_site_symmetry_2
_ccdc_geom_bond_type
C0 C1 1.351 . S
C0 N3 1.368 . S
C0 H5 0.931 . S
C1 C0 1.351 . S
C1 N2 1.373 . S
C1 H29 0.930 1_545 S
N2 C1 1.373 . S
N2 C4 1.340 . S
N3 C0 1.368 . S
N3 C4 1.321 . S
N3 Co6 2.135 . S
C4 N2 1.340 . S
C4 N3 1.321 . S
C4 H28 0.930 . S
H5 C0 0.931 . S
Co6 N3 2.135 . S
Co6 N9 2.121 . S
Co6 O14 2.055 . S
Co6 O17 2.039 . S
Co6 N20 2.140 . S
C7 O8 1.227 . S
C7 O17 1.265 . S
O8 C7 1.227 . S
N9 Co6 2.121 . S
N9 C11 1.375 . S
N9 C12 1.313 . S
C10 C11 1.338 . S
C10 N13 1.377 . S
C10 H30 0.930 . S
C11 N9 1.375 . S
C11 C10 1.338 . S
C11 H15 0.931 . S
C12 N9 1.313 . S
C12 N13 1.344 . S
C12 H16 0.930 . S
N13 C10 1.377 . S
N13 C12 1.344 . S
O14 Co6 2.055 . S
O14 C18 1.253 . S
H15 C11 0.931 . S
H16 C12 0.930 . S
O17 Co6 2.039 . S
O17 C7 1.265 . S
C18 O14 1.253 . S
C18 O19 1.227 . S
O19 C18 1.227 . S
N20 Co6 2.140 . S
N20 C23 1.346 . S
N20 C24 1.345 . S
C21 C22 1.387 . S
C21 C25 1.391 . S
C22 C21 1.387 . S
C22 C23 1.369 . S
C22 H31 0.929 . S
C23 N20 1.346 . S
C23 C22 1.369 . S
C23 H26 0.928 . S
C24 N20 1.345 . S
C24 C25 1.371 . S
C24 H27 0.931 . S
C25 C21 1.391 . S
C25 C24 1.371 . S
C25 H32 0.930 . S
H26 C23 0.928 . S
H27 C24 0.931 . S
H28 C4 0.930 . S
H29 C1 0.930 1_565 S
H30 C10 0.930 . S
H31 C22 0.929 . S
H32 C25 0.930 . S
C33 C34 1.351 . S
C33 N36 1.368 . S
C33 H38 0.931 . S
C34 C33 1.351 . S
C34 N35 1.373 . S
C34 H62 0.930 . S
N35 C34 1.373 . S
N35 C37 1.340 . S
N36 C33 1.368 . S
N36 C37 1.321 . S
N36 Co39 2.135 . S
C37 N35 1.340 . S
C37 N36 1.321 . S
C37 H61 0.930 . S
H38 C33 0.931 . S
Co39 N36 2.135 . S
Co39 N42 2.121 . S
Co39 O47 2.055 . S
Co39 O50 2.039 . S
Co39 N53 2.140 . S
C40 O41 1.227 . S
C40 O50 1.265 . S
O41 C40 1.227 . S
N42 Co39 2.121 . S
N42 C44 1.375 . S
N42 C45 1.313 . S
C43 C44 1.338 . S
C43 N46 1.377 . S
C43 H63 0.930 . S
C44 N42 1.375 . S
C44 C43 1.338 . S
C44 H48 0.931 . S
C45 N42 1.313 . S
C45 N46 1.344 . S
C45 H49 0.930 . S
N46 C43 1.377 . S
N46 C45 1.344 . S
O47 Co39 2.055 . S
O47 C51 1.253 . S
H48 C44 0.931 . S
H49 C45 0.930 . S
O50 Co39 2.039 . S
O50 C40 1.265 . S
C51 O47 1.253 . S
C51 O52 1.227 . S
O52 C51 1.227 . S
N53 Co39 2.140 . S
N53 C56 1.346 . S
N53 C57 1.345 . S
C54 C55 1.387 . S
C54 C58 1.391 . S
C55 C54 1.387 . S
C55 C56 1.369 . S
C55 H64 0.929 . S
C56 N53 1.346 . S
C56 C55 1.369 . S
C56 H59 0.928 . S
C57 N53 1.345 . S
C57 C58 1.371 . S
C57 H60 0.931 . S
C58 C54 1.391 . S
C58 C57 1.371 . S
C58 H65 0.930 . S
H59 C56 0.928 . S
H60 C57 0.931 . S
H61 C37 0.930 . S
H62 C34 0.930 . S
H63 C43 0.930 . S
H64 C55 0.929 . S
H65 C58 0.930 . S
C66 C67 1.351 . S
C66 N69 1.368 . S
C66 H71 0.931 . S
C67 C66 1.351 . S
C67 N68 1.373 . S
C67 H95 0.930 . S
N68 C67 1.373 . S
N68 C70 1.340 . S
N69 C66 1.368 . S
N69 C70 1.321 . S
N69 Co72 2.135 . S
C70 N68 1.340 . S
C70 N69 1.321 . S
C70 H94 0.930 . S
H71 C66 0.931 . S
Co72 N69 2.135 . S
Co72 N75 2.121 . S
Co72 O80 2.055 . S
Co72 O83 2.039 . S
Co72 N86 2.140 . S
C73 O74 1.227 . S
C73 O83 1.265 . S
O74 C73 1.227 . S
N75 Co72 2.121 . S
N75 C77 1.375 . S
N75 C78 1.313 . S
C76 C77 1.338 . S
C76 N79 1.377 . S
C76 H96 0.930 . S
C77 N75 1.375 . S
C77 C76 1.338 . S
C77 H81 0.931 . S
C78 N75 1.313 . S
C78 N79 1.344 . S
C78 H82 0.930 . S
N79 C76 1.377 . S
N79 C78 1.344 . S
O80 Co72 2.055 . S
O80 C84 1.253 . S
H81 C77 0.931 . S
H82 C78 0.930 . S
O83 Co72 2.039 . S
O83 C73 1.265 . S
C84 O80 1.253 . S
C84 O85 1.227 . S
O85 C84 1.227 . S
N86 Co72 2.140 . S
N86 C89 1.346 . S
N86 C90 1.345 . S
C87 C88 1.387 . S
C87 C91 1.391 . S
C88 C87 1.387 . S
C88 C89 1.369 . S
C88 H97 0.929 . S
C89 N86 1.346 . S
C89 C88 1.369 . S
C89 H92 0.928 . S
C90 N86 1.345 . S
C90 C91 1.371 . S
C90 H93 0.931 . S
C91 C87 1.391 . S
C91 C90 1.371 . S
C91 H98 0.930 . S
H92 C89 0.928 . S
H93 C90 0.931 . S
H94 C70 0.930 . S
H95 C67 0.930 . S
H96 C76 0.930 . S
H97 C88 0.929 . S
H98 C91 0.930 . S
C99 C100 1.351 . S
C99 N102 1.368 . S
C99 H104 0.931 . S
C100 C99 1.351 . S
C100 N101 1.373 . S
C100 H128 0.930 1_455 S
N101 C100 1.373 . S
N101 C103 1.340 . S
N102 C99 1.368 . S
N102 C103 1.321 . S
N102 Co105 2.135 . S
C103 N101 1.340 . S
C103 N102 1.321 . S
C103 H127 0.930 . S
H104 C99 0.931 . S
Co105 N102 2.135 . S
Co105 N108 2.121 . S
Co105 O113 2.055 . S
Co105 O116 2.039 . S
Co105 N119 2.140 . S
C106 O107 1.227 . S
C106 O116 1.265 . S
O107 C106 1.227 . S
N108 Co105 2.121 . S
N108 C110 1.375 . S
N108 C111 1.313 . S
C109 C110 1.338 . S
C109 N112 1.377 . S
C109 H129 0.930 . S
C110 N108 1.375 . S
C110 C109 1.338 . S
C110 H114 0.931 . S
C111 N108 1.313 . S
C111 N112 1.344 . S
C111 H115 0.930 . S
N112 C109 1.377 . S
N112 C111 1.344 . S
O113 Co105 2.055 . S
O113 C117 1.253 . S
H114 C110 0.931 . S
H115 C111 0.930 . S
O116 Co105 2.039 . S
O116 C106 1.265 . S
C117 O113 1.253 . S
C117 O118 1.227 . S
O118 C117 1.227 . S
N119 Co105 2.140 . S
N119 C122 1.346 . S
N119 C123 1.345 . S
C120 C121 1.387 . S
C120 C124 1.391 . S
C121 C120 1.387 . S
C121 C122 1.369 . S
C121 H130 0.929 . S
C122 N119 1.346 . S
C122 C121 1.369 . S
C122 H125 0.928 . S
C123 N119 1.345 . S
C123 C124 1.371 . S
C123 H126 0.931 . S
C124 C120 1.391 . S
C124 C123 1.371 . S
C124 H131 0.930 . S
H125 C122 0.928 . S
H126 C123 0.931 . S
H127 C103 0.930 . S
H128 C100 0.930 1_655 S
H129 C109 0.930 . S
H130 C121 0.929 . S
H131 C124 0.930 . S
C132 C133 1.351 . S
C132 N135 1.368 . S
C132 H137 0.931 . S
C133 C132 1.351 . S
C133 N134 1.373 . S
C133 H161 0.930 . S
N134 C133 1.373 . S
N134 C136 1.340 . S
N135 C132 1.368 . S
N135 C136 1.321 . S
N135 Co138 2.135 . S
C136 N134 1.340 . S
C136 N135 1.321 . S
C136 H160 0.930 . S
H137 C132 0.931 . S
Co138 N135 2.135 . S
Co138 N141 2.121 . S
Co138 O146 2.055 . S
Co138 O149 2.039 . S
Co138 N152 2.140 . S
C139 O140 1.227 . S
C139 O149 1.265 . S
O140 C139 1.227 . S
N141 Co138 2.121 . S
N141 C143 1.375 . S
N141 C144 1.313 . S
C142 C143 1.338 . S
C142 N145 1.377 . S
C142 H162 0.930 . S
C143 N141 1.375 . S
C143 C142 1.338 . S
C143 H147 0.931 . S
C144 N141 1.313 . S
C144 N145 1.344 . S
C144 H148 0.930 . S
N145 C142 1.377 . S
N145 C144 1.344 . S
O146 Co138 2.055 . S
O146 C150 1.253 . S
H147 C143 0.931 . S
H148 C144 0.930 . S
O149 Co138 2.039 . S
O149 C139 1.265 . S
C150 O146 1.253 . S
C150 O151 1.227 . S
O151 C150 1.227 . S
N152 Co138 2.140 . S
N152 C155 1.346 . S
N152 C156 1.345 . S
C153 C154 1.387 . S
C153 C157 1.391 . S
C154 C153 1.387 . S
C154 C155 1.369 . S
C154 H163 0.929 . S
C155 N152 1.346 . S
C155 C154 1.369 . S
C155 H158 0.928 . S
C156 N152 1.345 . S
C156 C157 1.371 . S
C156 H159 0.931 . S
C157 C153 1.391 . S
C157 C156 1.371 . S
C157 H164 0.930 . S
H158 C155 0.928 . S
H159 C156 0.931 . S
H160 C136 0.930 . S
H161 C133 0.930 . S
H162 C142 0.930 . S
H163 C154 0.929 . S
H164 C157 0.930 . S
C165 C166 1.351 . S
C165 N168 1.368 . S
C165 H170 0.931 . S
C166 C165 1.351 . S
C166 N167 1.373 . S
C166 H194 0.930 1_455 S
N167 C166 1.373 . S
N167 C169 1.340 . S
N168 C165 1.368 . S
N168 C169 1.321 . S
N168 Co171 2.135 . S
C169 N167 1.340 . S
C169 N168 1.321 . S
C169 H193 0.930 . S
H170 C165 0.931 . S
Co171 N168 2.135 . S
Co171 N174 2.121 . S
Co171 O179 2.055 . S
Co171 O182 2.039 . S
Co171 N185 2.140 . S
C172 O173 1.227 . S
C172 O182 1.265 . S
O173 C172 1.227 . S
N174 Co171 2.121 . S
N174 C176 1.375 . S
N174 C177 1.313 . S
C175 C176 1.338 . S
C175 N178 1.377 . S
C175 H195 0.930 . S
C176 N174 1.375 . S
C176 C175 1.338 . S
C176 H180 0.931 . S
C177 N174 1.313 . S
C177 N178 1.344 . S
C177 H181 0.930 . S
N178 C175 1.377 . S
N178 C177 1.344 . S
O179 Co171 2.055 . S
O179 C183 1.253 . S
H180 C176 0.931 . S
H181 C177 0.930 . S
O182 Co171 2.039 . S
O182 C172 1.265 . S
C183 O179 1.253 . S
C183 O184 1.227 . S
O184 C183 1.227 . S
N185 Co171 2.140 . S
N185 C188 1.346 . S
N185 C189 1.345 . S
C186 C187 1.387 . S
C186 C190 1.391 . S
C187 C186 1.387 . S
C187 C188 1.369 . S
C187 H196 0.929 . S
C188 N185 1.346 . S
C188 C187 1.369 . S
C188 H191 0.928 . S
C189 N185 1.345 . S
C189 C190 1.371 . S
C189 H192 0.931 . S
C190 C186 1.391 . S
C190 C189 1.371 . S
C190 H197 0.930 . S
H191 C188 0.928 . S
H192 C189 0.931 . S
H193 C169 0.930 . S
H194 C166 0.930 1_655 S
H195 C175 0.930 . S
H196 C187 0.929 . S
H197 C190 0.930 . S
C198 C199 1.351 . S
C198 N201 1.368 . S
C198 H203 0.931 . S
C199 C198 1.351 . S
C199 N200 1.373 . S
C199 H227 0.930 1_545 S
N200 C199 1.373 . S
N200 C202 1.340 . S
N201 C198 1.368 . S
N201 C202 1.321 . S
N201 Co204 2.135 . S
C202 N200 1.340 . S
C202 N201 1.321 . S
C202 H226 0.930 . S
H203 C198 0.931 . S
Co204 N201 2.135 . S
Co204 N207 2.121 . S
Co204 O212 2.055 . S
Co204 O215 2.039 . S
Co204 N218 2.140 . S
C205 O206 1.227 . S
C205 O215 1.265 . S
O206 C205 1.227 . S
N207 Co204 2.121 . S
N207 C209 1.375 . S
N207 C210 1.313 . S
C208 C209 1.338 . S
C208 N211 1.377 . S
C208 H228 0.930 . S
C209 N207 1.375 . S
C209 C208 1.338 . S
C209 H213 0.931 . S
C210 N207 1.313 . S
C210 N211 1.344 . S
C210 H214 0.930 . S
N211 C208 1.377 . S
N211 C210 1.344 . S
O212 Co204 2.055 . S
O212 C216 1.253 . S
H213 C209 0.931 . S
H214 C210 0.930 . S
O215 Co204 2.039 . S
O215 C205 1.265 . S
C216 O212 1.253 . S
C216 O217 1.227 . S
O217 C216 1.227 . S
N218 Co204 2.140 . S
N218 C221 1.346 . S
N218 C222 1.345 . S
C219 C220 1.387 . S
C219 C223 1.391 . S
C220 C219 1.387 . S
C220 C221 1.369 . S
C220 H229 0.929 . S
C221 N218 1.346 . S
C221 C220 1.369 . S
C221 H224 0.928 . S
C222 N218 1.345 . S
C222 C223 1.371 . S
C222 H225 0.931 . S
C223 C219 1.391 . S
C223 C222 1.371 . S
C223 H230 0.930 . S
H224 C221 0.928 . S
H225 C222 0.931 . S
H226 C202 0.930 . S
H227 C199 0.930 1_565 S
H228 C208 0.930 . S
H229 C220 0.929 . S
H230 C223 0.930 . S
C231 C232 1.351 . S
C231 N234 1.368 . S
C231 H236 0.931 . S
C232 C231 1.351 . S
C232 N233 1.373 . S
C232 H260 0.930 . S
N233 C232 1.373 . S
N233 C235 1.340 . S
N234 C231 1.368 . S
N234 C235 1.321 . S
N234 Co237 2.135 . S
C235 N233 1.340 . S
C235 N234 1.321 . S
C235 H259 0.930 . S
H236 C231 0.931 . S
Co237 N234 2.135 . S
Co237 N240 2.121 . S
Co237 O245 2.055 . S
Co237 O248 2.039 . S
Co237 N251 2.140 . S
C238 O239 1.227 . S
C238 O248 1.265 . S
O239 C238 1.227 . S
N240 Co237 2.121 . S
N240 C242 1.375 . S
N240 C243 1.313 . S
C241 C242 1.338 . S
C241 N244 1.377 . S
C241 H261 0.930 . S
C242 N240 1.375 . S
C242 C241 1.338 . S
C242 H246 0.931 . S
C243 N240 1.313 . S
C243 N244 1.344 . S
C243 H247 0.930 . S
N244 C241 1.377 . S
N244 C243 1.344 . S
O245 Co237 2.055 . S
O245 C249 1.253 . S
H246 C242 0.931 . S
H247 C243 0.930 . S
O248 Co237 2.039 . S
O248 C238 1.265 . S
C249 O245 1.253 . S
C249 O250 1.227 . S
O250 C249 1.227 . S
N251 Co237 2.140 . S
N251 C254 1.346 . S
N251 C255 1.345 . S
C252 C253 1.387 . S
C252 C256 1.391 . S
C253 C252 1.387 . S
C253 C254 1.369 . S
C253 H262 0.929 . S
C254 N251 1.346 . S
C254 C253 1.369 . S
C254 H257 0.928 . S
C255 N251 1.345 . S
C255 C256 1.371 . S
C255 H258 0.931 . S
C256 C252 1.391 . S
C256 C255 1.371 . S
C256 H263 0.930 . S
H257 C254 0.928 . S
H258 C255 0.931 . S
H259 C235 0.930 . S
H260 C232 0.930 . S
H261 C241 0.930 . S
H262 C253 0.929 . S
H263 C256 0.930 . S
C264 C265 1.351 . S
C264 N267 1.368 . S
C264 H269 0.931 . S
C265 C264 1.351 . S
C265 N266 1.373 . S
C265 H293 0.930 1_565 S
N266 C265 1.373 . S
N266 C268 1.340 . S
N267 C264 1.368 . S
N267 C268 1.321 . S
N267 Co270 2.135 . S
C268 N266 1.340 . S
C268 N267 1.321 . S
C268 H292 0.930 . S
H269 C264 0.931 . S
Co270 N267 2.135 . S
Co270 N273 2.121 . S
Co270 O278 2.055 . S
Co270 O281 2.039 . S
Co270 N284 2.140 . S
C271 O272 1.227 . S
C271 O281 1.265 . S
O272 C271 1.227 . S
N273 Co270 2.121 . S
N273 C275 1.375 . S
N273 C276 1.313 . S
C274 C275 1.338 . S
C274 N277 1.377 . S
C274 H294 0.930 . S
C275 N273 1.375 . S
C275 C274 1.338 . S
C275 H279 0.931 . S
C276 N273 1.313 . S
C276 N277 1.344 . S
C276 H280 0.930 . S
N277 C274 1.377 . S
N277 C276 1.344 . S
O278 Co270 2.055 . S
O278 C282 1.253 . S
H279 C275 0.931 . S
H280 C276 0.930 . S
O281 Co270 2.039 . S
O281 C271 1.265 . S
C282 O278 1.253 . S
C282 O283 1.227 . S
O283 C282 1.227 . S
N284 Co270 2.140 . S
N284 C287 1.346 . S
N284 C288 1.345 . S
C285 C286 1.387 . S
C285 C289 1.391 . S
C286 C285 1.387 . S
C286 C287 1.369 . S
C286 H295 0.929 . S
C287 N284 1.346 . S
C287 C286 1.369 . S
C287 H290 0.928 . S
C288 N284 1.345 . S
C288 C289 1.371 . S
C288 H291 0.931 . S
C289 C285 1.391 . S
C289 C288 1.371 . S
C289 H296 0.930 . S
H290 C287 0.928 . S
H291 C288 0.931 . S
H292 C268 0.930 . S
H293 C265 0.930 1_545 S
H294 C274 0.930 . S
H295 C286 0.929 . S
H296 C289 0.930 . S
C297 C298 1.351 . S
C297 N300 1.368 . S
C297 H302 0.931 . S
C298 C297 1.351 . S
C298 N299 1.373 . S
C298 H326 0.930 . S
N299 C298 1.373 . S
N299 C301 1.340 . S
N300 C297 1.368 . S
N300 C301 1.321 . S
N300 Co303 2.135 . S
C301 N299 1.340 . S
C301 N300 1.321 . S
C301 H325 0.930 . S
H302 C297 0.931 . S
Co303 N300 2.135 . S
Co303 N306 2.121 . S
Co303 O311 2.055 . S
Co303 O314 2.039 . S
Co303 N317 2.140 . S
C304 O305 1.227 . S
C304 O314 1.265 . S
O305 C304 1.227 . S
N306 Co303 2.121 . S
N306 C308 1.375 . S
N306 C309 1.313 . S
C307 C308 1.338 . S
C307 N310 1.377 . S
C307 H327 0.930 . S
C308 N306 1.375 . S
C308 C307 1.338 . S
C308 H312 0.931 . S
C309 N306 1.313 . S
C309 N310 1.344 . S
C309 H313 0.930 . S
N310 C307 1.377 . S
N310 C309 1.344 . S
O311 Co303 2.055 . S
O311 C315 1.253 . S
H312 C308 0.931 . S
H313 C309 0.930 . S
O314 Co303 2.039 . S
O314 C304 1.265 . S
C315 O311 1.253 . S
C315 O316 1.227 . S
O316 C315 1.227 . S
N317 Co303 2.140 . S
N317 C320 1.346 . S
N317 C321 1.345 . S
C318 C319 1.387 . S
C318 C322 1.391 . S
C319 C318 1.387 . S
C319 C320 1.369 . S
C319 H328 0.929 . S
C320 N317 1.346 . S
C320 C319 1.369 . S
C320 H323 0.928 . S
C321 N317 1.345 . S
C321 C322 1.371 . S
C321 H324 0.931 . S
C322 C318 1.391 . S
C322 C321 1.371 . S
C322 H329 0.930 . S
H323 C320 0.928 . S
H324 C321 0.931 . S
H325 C301 0.930 . S
H326 C298 0.930 . S
H327 C307 0.930 . S
H328 C319 0.929 . S
H329 C322 0.930 . S
C330 C331 1.351 . S
C330 N333 1.368 . S
C330 H335 0.931 . S
C331 C330 1.351 . S
C331 N332 1.373 . S
C331 H359 0.930 . S
N332 C331 1.373 . S
N332 C334 1.340 . S
N333 C330 1.368 . S
N333 C334 1.321 . S
N333 Co336 2.135 . S
C334 N332 1.340 . S
C334 N333 1.321 . S
C334 H358 0.930 . S
H335 C330 0.931 . S
Co336 N333 2.135 . S
Co336 N339 2.121 . S
Co336 O344 2.055 . S
Co336 O347 2.039 . S
Co336 N350 2.140 . S
C337 O338 1.227 . S
C337 O347 1.265 . S
O338 C337 1.227 . S
N339 Co336 2.121 . S
N339 C341 1.375 . S
N339 C342 1.313 . S
C340 C341 1.338 . S
C340 N343 1.377 . S
C340 H360 0.930 . S
C341 N339 1.375 . S
C341 C340 1.338 . S
C341 H345 0.931 . S
C342 N339 1.313 . S
C342 N343 1.344 . S
C342 H346 0.930 . S
N343 C340 1.377 . S
N343 C342 1.344 . S
O344 Co336 2.055 . S
O344 C348 1.253 . S
H345 C341 0.931 . S
H346 C342 0.930 . S
O347 Co336 2.039 . S
O347 C337 1.265 . S
C348 O344 1.253 . S
C348 O349 1.227 . S
O349 C348 1.227 . S
N350 Co336 2.140 . S
N350 C353 1.346 . S
N350 C354 1.345 . S
C351 C352 1.387 . S
C351 C355 1.391 . S
C352 C351 1.387 . S
C352 C353 1.369 . S
C352 H361 0.929 . S
C353 N350 1.346 . S
C353 C352 1.369 . S
C353 H356 0.928 . S
C354 N350 1.345 . S
C354 C355 1.371 . S
C354 H357 0.931 . S
C355 C351 1.391 . S
C355 C354 1.371 . S
C355 H362 0.930 . S
H356 C353 0.928 . S
H357 C354 0.931 . S
H358 C334 0.930 . S
H359 C331 0.930 . S
H360 C340 0.930 . S
H361 C352 0.929 . S
H362 C355 0.930 . S
C363 C364 1.351 . S
C363 N366 1.368 . S
C363 H368 0.931 . S
C364 C363 1.351 . S
C364 N365 1.373 . S
C364 H392 0.930 1_655 S
N365 C364 1.373 . S
N365 C367 1.340 . S
N366 C363 1.368 . S
N366 C367 1.321 . S
N366 Co369 2.135 . S
C367 N365 1.340 . S
C367 N366 1.321 . S
C367 H391 0.930 . S
H368 C363 0.931 . S
Co369 N366 2.135 . S
Co369 N372 2.121 . S
Co369 O377 2.055 . S
Co369 O380 2.039 . S
Co369 N383 2.140 . S
C370 O371 1.227 . S
C370 O380 1.265 . S
O371 C370 1.227 . S
N372 Co369 2.121 . S
N372 C374 1.375 . S
N372 C375 1.313 . S
C373 C374 1.338 . S
C373 N376 1.377 . S
C373 H393 0.930 . S
C374 N372 1.375 . S
C374 C373 1.338 . S
C374 H378 0.931 . S
C375 N372 1.313 . S
C375 N376 1.344 . S
C375 H379 0.930 . S
N376 C373 1.377 . S
N376 C375 1.344 . S
O377 Co369 2.055 . S
O377 C381 1.253 . S
H378 C374 0.931 . S
H379 C375 0.930 . S
O380 Co369 2.039 . S
O380 C370 1.265 . S
C381 O377 1.253 . S
C381 O382 1.227 . S
O382 C381 1.227 . S
N383 Co369 2.140 . S
N383 C386 1.346 . S
N383 C387 1.345 . S
C384 C385 1.387 . S
C384 C388 1.391 . S
C385 C384 1.387 . S
C385 C386 1.369 . S
C385 H394 0.929 . S
C386 N383 1.346 . S
C386 C385 1.369 . S
C386 H389 0.928 . S
C387 N383 1.345 . S
C387 C388 1.371 . S
C387 H390 0.931 . S
C388 C384 1.391 . S
C388 C387 1.371 . S
C388 H395 0.930 . S
H389 C386 0.928 . S
H390 C387 0.931 . S
H391 C367 0.930 . S
H392 C364 0.930 1_455 S
H393 C373 0.930 . S
H394 C385 0.929 . S
H395 C388 0.930 . S
C396 C397 1.351 . S
C396 N399 1.368 . S
C396 H401 0.931 . S
C397 C396 1.351 . S
C397 N398 1.373 . S
C397 H425 0.930 . S
N398 C397 1.373 . S
N398 C400 1.340 . S
N399 C396 1.368 . S
N399 C400 1.321 . S
N399 Co402 2.135 . S
C400 N398 1.340 . S
C400 N399 1.321 . S
C400 H424 0.930 . S
H401 C396 0.931 . S
Co402 N399 2.135 . S
Co402 N405 2.121 . S
Co402 O410 2.055 . S
Co402 O413 2.039 . S
Co402 N416 2.140 . S
C403 O404 1.227 . S
C403 O413 1.265 . S
O404 C403 1.227 . S
N405 Co402 2.121 . S
N405 C407 1.375 . S
N405 C408 1.313 . S
C406 C407 1.338 . S
C406 N409 1.377 . S
C406 H426 0.930 . S
C407 N405 1.375 . S
C407 C406 1.338 . S
C407 H411 0.931 . S
C408 N405 1.313 . S
C408 N409 1.344 . S
C408 H412 0.930 . S
N409 C406 1.377 . S
N409 C408 1.344 . S
O410 Co402 2.055 . S
O410 C414 1.253 . S
H411 C407 0.931 . S
H412 C408 0.930 . S
O413 Co402 2.039 . S
O413 C403 1.265 . S
C414 O410 1.253 . S
C414 O415 1.227 . S
O415 C414 1.227 . S
N416 Co402 2.140 . S
N416 C419 1.346 . S
N416 C420 1.345 . S
C417 C418 1.387 . S
C417 C421 1.391 . S
C418 C417 1.387 . S
C418 C419 1.369 . S
C418 H427 0.929 . S
C419 N416 1.346 . S
C419 C418 1.369 . S
C419 H422 0.928 . S
C420 N416 1.345 . S
C420 C421 1.371 . S
C420 H423 0.931 . S
C421 C417 1.391 . S
C421 C420 1.371 . S
C421 H428 0.930 . S
H422 C419 0.928 . S
H423 C420 0.931 . S
H424 C400 0.930 . S
H425 C397 0.930 . S
H426 C406 0.930 . S
H427 C418 0.929 . S
H428 C421 0.930 . S
C429 C430 1.351 . S
C429 N432 1.368 . S
C429 H434 0.931 . S
C430 C429 1.351 . S
C430 N431 1.373 . S
C430 H458 0.930 1_655 S
N431 C430 1.373 . S
N431 C433 1.340 . S
N432 C429 1.368 . S
N432 C433 1.321 . S
N432 Co435 2.135 . S
C433 N431 1.340 . S
C433 N432 1.321 . S
C433 H457 0.930 . S
H434 C429 0.931 . S
Co435 N432 2.135 . S
Co435 N438 2.121 . S
Co435 O443 2.055 . S
Co435 O446 2.039 . S
Co435 N449 2.140 . S
C436 O437 1.227 . S
C436 O446 1.265 . S
O437 C436 1.227 . S
N438 Co435 2.121 . S
N438 C440 1.375 . S
N438 C441 1.313 . S
C439 C440 1.338 . S
C439 N442 1.377 . S
C439 H459 0.930 . S
C440 N438 1.375 . S
C440 C439 1.338 . S
C440 H444 0.931 . S
C441 N438 1.313 . S
C441 N442 1.344 . S
C441 H445 0.930 . S
N442 C439 1.377 . S
N442 C441 1.344 . S
O443 Co435 2.055 . S
O443 C447 1.253 . S
H444 C440 0.931 . S
H445 C441 0.930 . S
O446 Co435 2.039 . S
O446 C436 1.265 . S
C447 O443 1.253 . S
C447 O448 1.227 . S
O448 C447 1.227 . S
N449 Co435 2.140 . S
N449 C452 1.346 . S
N449 C453 1.345 . S
C450 C451 1.387 . S
C450 C454 1.391 . S
C451 C450 1.387 . S
C451 C452 1.369 . S
C451 H460 0.929 . S
C452 N449 1.346 . S
C452 C451 1.369 . S
C452 H455 0.928 . S
C453 N449 1.345 . S
C453 C454 1.371 . S
C453 H456 0.931 . S
C454 C450 1.391 . S
C454 C453 1.371 . S
C454 H461 0.930 . S
H455 C452 0.928 . S
H456 C453 0.931 . S
H457 C433 0.930 . S
H458 C430 0.930 1_455 S
H459 C439 0.930 . S
H460 C451 0.929 . S
H461 C454 0.930 . S
C462 C463 1.351 . S
C462 N465 1.368 . S
C462 H467 0.931 . S
C463 C462 1.351 . S
C463 N464 1.373 . S
C463 H491 0.930 1_565 S
N464 C463 1.373 . S
N464 C466 1.340 . S
N465 C462 1.368 . S
N465 C466 1.321 . S
N465 Co468 2.135 . S
C466 N464 1.340 . S
C466 N465 1.321 . S
C466 H490 0.930 . S
H467 C462 0.931 . S
Co468 N465 2.135 . S
Co468 N471 2.121 . S
Co468 O476 2.055 . S
Co468 O479 2.039 . S
Co468 N482 2.140 . S
C469 O470 1.227 . S
C469 O479 1.265 . S
O470 C469 1.227 . S
N471 Co468 2.121 . S
N471 C473 1.375 . S
N471 C474 1.313 . S
C472 C473 1.338 . S
C472 N475 1.377 . S
C472 H492 0.930 . S
C473 N471 1.375 . S
C473 C472 1.338 . S
C473 H477 0.931 . S
C474 N471 1.313 . S
C474 N475 1.344 . S
C474 H478 0.930 . S
N475 C472 1.377 . S
N475 C474 1.344 . S
O476 Co468 2.055 . S
O476 C480 1.253 . S
H477 C473 0.931 . S
H478 C474 0.930 . S
O479 Co468 2.039 . S
O479 C469 1.265 . S
C480 O476 1.253 . S
C480 O481 1.227 . S
O481 C480 1.227 . S
N482 Co468 2.140 . S
N482 C485 1.346 . S
N482 C486 1.345 . S
C483 C484 1.387 . S
C483 C487 1.391 . S
C484 C483 1.387 . S
C484 C485 1.369 . S
C484 H493 0.929 . S
C485 N482 1.346 . S
C485 C484 1.369 . S
C485 H488 0.928 . S
C486 N482 1.345 . S
C486 C487 1.371 . S
C486 H489 0.931 . S
C487 C483 1.391 . S
C487 C486 1.371 . S
C487 H494 0.930 . S
H488 C485 0.928 . S
H489 C486 0.931 . S
H490 C466 0.930 . S
H491 C463 0.930 1_545 S
H492 C472 0.930 . S
H493 C484 0.929 . S
H494 C487 0.930 . S
C495 C496 1.351 . S
C495 N498 1.368 . S
C495 H500 0.931 . S
C496 C495 1.351 . S
C496 N497 1.373 . S
C496 H524 0.930 . S
N497 C496 1.373 . S
N497 C499 1.340 . S
N498 C495 1.368 . S
N498 C499 1.321 . S
N498 Co501 2.135 . S
C499 N497 1.340 . S
C499 N498 1.321 . S
C499 H523 0.930 . S
H500 C495 0.931 . S
Co501 N498 2.135 . S
Co501 N504 2.121 . S
Co501 O509 2.055 . S
Co501 O512 2.039 . S
Co501 N515 2.140 . S
C502 O503 1.227 . S
C502 O512 1.265 . S
O503 C502 1.227 . S
N504 Co501 2.121 . S
N504 C506 1.375 . S
N504 C507 1.313 . S
C505 C506 1.338 . S
C505 N508 1.377 . S
C505 H525 0.930 . S
C506 N504 1.375 . S
C506 C505 1.338 . S
C506 H510 0.931 . S
C507 N504 1.313 . S
C507 N508 1.344 . S
C507 H511 0.930 . S
N508 C505 1.377 . S
N508 C507 1.344 . S
O509 Co501 2.055 . S
O509 C513 1.253 . S
H510 C506 0.931 . S
H511 C507 0.930 . S
O512 Co501 2.039 . S
O512 C502 1.265 . S
C513 O509 1.253 . S
C513 O514 1.227 . S
O514 C513 1.227 . S
N515 Co501 2.140 . S
N515 C518 1.346 . S
N515 C519 1.345 . S
C516 C517 1.387 . S
C516 C520 1.391 . S
C517 C516 1.387 . S
C517 C518 1.369 . S
C517 H526 0.929 . S
C518 N515 1.346 . S
C518 C517 1.369 . S
C518 H521 0.928 . S
C519 N515 1.345 . S
C519 C520 1.371 . S
C519 H522 0.931 . S
C520 C516 1.391 . S
C520 C519 1.371 . S
C520 H527 0.930 . S
H521 C518 0.928 . S
H522 C519 0.931 . S
H523 C499 0.930 . S
H524 C496 0.930 . S
H525 C505 0.930 . S
H526 C517 0.929 . S
H527 C520 0.930 . S
H528 C534 0.930 . S
H529 C538 0.930 . S
H530 C543 0.929 . S
H531 C541 0.929 . S
H532 C536 0.929 . S
H533 C542 0.929 . S
C534 H528 0.930 . S
C534 C535 1.367 . S
C534 C542 1.378 . S
C535 C534 1.367 . S
C535 C543 1.433 . S
C536 H532 0.929 . S
C536 C538 1.378 . S
C536 C540 1.350 . S
C537 C540 1.463 . S
C537 C542 1.350 . S
C537 N545 1.427 . S
C538 H529 0.930 . S
C538 C536 1.378 . S
C538 C539 1.367 . S
C539 C538 1.367 . S
C539 C541 1.433 . S
C540 C536 1.350 . S
C540 C537 1.463 . S
C540 N544 1.427 . S
C541 H531 0.929 . S
C541 C539 1.433 . S
C541 N544 1.384 . S
C542 H533 0.929 . S
C542 C534 1.378 . S
C542 C537 1.350 . S
C543 H530 0.929 . S
C543 C535 1.433 . S
C543 N545 1.384 . S
N544 C540 1.427 . S
N544 C541 1.384 . S
N545 C537 1.427 . S
N545 C543 1.384 . S
H546 C552 0.930 . S
H547 C556 0.930 . S
H548 C561 0.929 . S
H549 C559 0.929 . S
H550 C554 0.929 . S
H551 C560 0.929 . S
C552 H546 0.930 . S
C552 C553 1.367 . S
C552 C560 1.378 . S
C553 C552 1.367 . S
C553 C561 1.433 . S
C554 H550 0.929 . S
C554 C556 1.378 . S
C554 C558 1.350 . S
C555 C558 1.463 . S
C555 C560 1.350 . S
C555 N563 1.427 . S
C556 H547 0.930 . S
C556 C554 1.378 . S
C556 C557 1.367 . S
C557 C556 1.367 . S
C557 C559 1.433 . S
C558 C554 1.350 . S
C558 C555 1.463 . S
C558 N562 1.427 . S
C559 H549 0.929 . S
C559 C557 1.433 . S
C559 N562 1.384 . S
C560 H551 0.929 . S
C560 C552 1.378 . S
C560 C555 1.350 . S
C561 H548 0.929 . S
C561 C553 1.433 . S
C561 N563 1.384 . S
N562 C558 1.427 . S
N562 C559 1.384 . S
N563 C555 1.427 . S
N563 C561 1.384 . S
H564 C570 0.930 . S
H565 C574 0.930 . S
H566 C579 0.929 . S
H567 C577 0.929 . S
H568 C572 0.929 . S
H569 C578 0.929 . S
C570 H564 0.930 . S
C570 C571 1.367 . S
C570 C578 1.378 . S
C571 C570 1.367 . S
C571 C579 1.433 . S
C572 H568 0.929 . S
C572 C574 1.378 . S
C572 C576 1.350 . S
C573 C576 1.463 . S
C573 C578 1.350 . S
C573 N581 1.427 . S
C574 H565 0.930 . S
C574 C572 1.378 . S
C574 C575 1.367 . S
C575 C574 1.367 . S
C575 C577 1.433 . S
C576 C572 1.350 . S
C576 C573 1.463 . S
C576 N580 1.427 . S
C577 H567 0.929 . S
C577 C575 1.433 . S
C577 N580 1.384 . S
C578 H569 0.929 . S
C578 C570 1.378 . S
C578 C573 1.350 . S
C579 H566 0.929 . S
C579 C571 1.433 . S
C579 N581 1.384 . S
N580 C576 1.427 . S
N580 C577 1.384 . S
N581 C573 1.427 . S
N581 C579 1.384 . S
H582 C588 0.930 . S
H583 C592 0.930 . S
H584 C597 0.929 . S
H585 C595 0.929 . S
H586 C590 0.929 . S
H587 C596 0.929 . S
C588 H582 0.930 . S
C588 C589 1.367 . S
C588 C596 1.378 . S
C589 C588 1.367 . S
C589 C597 1.433 . S
C590 H586 0.929 . S
C590 C592 1.378 . S
C590 C594 1.350 . S
C591 C594 1.463 . S
C591 C596 1.350 . S
C591 N599 1.427 . S
C592 H583 0.930 . S
C592 C590 1.378 . S
C592 C593 1.367 . S
C593 C592 1.367 . S
C593 C595 1.433 . S
C594 C590 1.350 . S
C594 C591 1.463 . S
C594 N598 1.427 . S
C595 H585 0.929 . S
C595 C593 1.433 . S
C595 N598 1.384 . S
C596 H587 0.929 . S
C596 C588 1.378 . S
C596 C591 1.350 . S
C597 H584 0.929 . S
C597 C589 1.433 . S
C597 N599 1.384 . S
N598 C594 1.427 . S
N598 C595 1.384 . S
N599 C591 1.427 . S
N599 C597 1.384 . S
H600 C606 0.930 . S
H601 C610 0.930 . S
H602 C615 0.929 . S
H603 C613 0.929 . S
H604 C608 0.929 . S
H605 C614 0.929 . S
C606 H600 0.930 . S
C606 C607 1.367 . S
C606 C614 1.378 . S
C607 C606 1.367 . S
C607 C615 1.433 . S
C608 H604 0.929 . S
C608 C610 1.378 . S
C608 C612 1.350 . S
C609 C612 1.463 . S
C609 C614 1.350 . S
C609 N617 1.427 . S
C610 H601 0.930 . S
C610 C608 1.378 . S
C610 C611 1.367 . S
C611 C610 1.367 . S
C611 C613 1.433 . S
C612 C608 1.350 . S
C612 C609 1.463 . S
C612 N616 1.427 . S
C613 H603 0.929 . S
C613 C611 1.433 . S
C613 N616 1.384 . S
C614 H605 0.929 . S
C614 C606 1.378 . S
C614 C609 1.350 . S
C615 H602 0.929 . S
C615 C607 1.433 . S
C615 N617 1.384 . S
N616 C612 1.427 . S
N616 C613 1.384 . S
N617 C609 1.427 . S
N617 C615 1.384 . S
H618 C624 0.930 . S
H619 C628 0.930 . S
H620 C633 0.929 . S
H621 C631 0.929 . S
H622 C626 0.929 . S
H623 C632 0.929 . S
C624 H618 0.930 . S
C624 C625 1.367 . S
C624 C632 1.378 . S
C625 C624 1.367 . S
C625 C633 1.433 . S
C626 H622 0.929 . S
C626 C628 1.378 . S
C626 C630 1.350 . S
C627 C630 1.463 . S
C627 C632 1.350 . S
C627 N635 1.427 . S
C628 H619 0.930 . S
C628 C626 1.378 . S
C628 C629 1.367 . S
C629 C628 1.367 . S
C629 C631 1.433 . S
C630 C626 1.350 . S
C630 C627 1.463 . S
C630 N634 1.427 . S
C631 H621 0.929 . S
C631 C629 1.433 . S
C631 N634 1.384 . S
C632 H623 0.929 . S
C632 C624 1.378 . S
C632 C627 1.350 . S
C633 H620 0.929 . S
C633 C625 1.433 . S
C633 N635 1.384 . S
N634 C630 1.427 . S
N634 C631 1.384 . S
N635 C627 1.427 . S
N635 C633 1.384 . S
H636 C642 0.930 . S
H637 C646 0.930 . S
H638 C651 0.929 . S
H639 C649 0.929 . S
H640 C644 0.929 . S
H641 C650 0.929 . S
C642 H636 0.930 . S
C642 C643 1.367 . S
C642 C650 1.378 . S
C643 C642 1.367 . S
C643 C651 1.433 . S
C644 H640 0.929 . S
C644 C646 1.378 . S
C644 C648 1.350 . S
C645 C648 1.463 . S
C645 C650 1.350 . S
C645 N653 1.427 . S
C646 H637 0.930 . S
C646 C644 1.378 . S
C646 C647 1.367 . S
C647 C646 1.367 . S
C647 C649 1.433 . S
C648 C644 1.350 . S
C648 C645 1.463 . S
C648 N652 1.427 . S
C649 H639 0.929 . S
C649 C647 1.433 . S
C649 N652 1.384 . S
C650 H641 0.929 . S
C650 C642 1.378 . S
C650 C645 1.350 . S
C651 H638 0.929 . S
C651 C643 1.433 . S
C651 N653 1.384 . S
N652 C648 1.427 . S
N652 C649 1.384 . S
N653 C645 1.427 . S
N653 C651 1.384 . S
H654 C660 0.930 . S
H655 C664 0.930 . S
H656 C669 0.929 . S
H657 C667 0.929 . S
H658 C662 0.929 . S
H659 C668 0.929 . S
C660 H654 0.930 . S
C660 C661 1.367 . S
C660 C668 1.378 . S
C661 C660 1.367 . S
C661 C669 1.433 . S
C662 H658 0.929 . S
C662 C664 1.378 . S
C662 C666 1.350 . S
C663 C666 1.463 . S
C663 C668 1.350 . S
C663 N671 1.427 . S
C664 H655 0.930 . S
C664 C662 1.378 . S
C664 C665 1.367 . S
C665 C664 1.367 . S
C665 C667 1.433 . S
C666 C662 1.350 . S
C666 C663 1.463 . S
C666 N670 1.427 . S
C667 H657 0.929 . S
C667 C665 1.433 . S
C667 N670 1.384 . S
C668 H659 0.929 . S
C668 C660 1.378 . S
C668 C663 1.350 . S
C669 H656 0.929 . S
C669 C661 1.433 . S
C669 N671 1.384 . S
N670 C666 1.427 . S
N670 C667 1.384 . S
N671 C663 1.427 . S
N671 C669 1.384 . S
H672 C678 0.930 . S
H673 C682 0.930 . S
H674 C687 0.929 . S
H675 C685 0.929 . S
H676 C680 0.936 . S
H677 C686 0.936 . S
C678 H672 0.930 . S
C678 C679 1.367 . S
C678 C686 1.373 1_556 S
C679 C678 1.367 . S
C679 C687 1.433 1_565 S
C680 H676 0.936 . S
C680 C682 1.373 1_556 S
C680 C684 1.347 1_556 S
C681 C684 1.463 1_566 S
C681 C686 1.347 1_556 S
C681 N689 1.427 1_565 S
C682 H673 0.930 . S
C682 C680 1.373 1_554 S
C682 C683 1.367 . S
C683 C682 1.367 . S
C683 C685 1.433 1_545 S
C684 C680 1.347 1_554 S
C684 C681 1.463 1_544 S
C684 N688 1.427 1_545 S
C685 H675 0.929 . S
C685 C683 1.433 1_565 S
C685 N688 1.384 . S
C686 H677 0.936 . S
C686 C678 1.373 1_554 S
C686 C681 1.347 1_554 S
C687 H674 0.929 . S
C687 C679 1.433 1_545 S
C687 N689 1.384 . S
N688 C684 1.427 1_565 S
N688 C685 1.384 . S
N689 C681 1.427 1_545 S
N689 C687 1.384 . S
H690 C696 0.930 . S
H691 C700 0.930 . S
H692 C705 0.929 . S
H693 C703 0.929 . S
H694 C698 0.935 . S
H695 C704 0.935 . S
C696 H690 0.930 . S
C696 C697 1.367 . S
C696 C704 1.378 . S
C697 C696 1.367 . S
C697 C705 1.433 . S
C698 H694 0.935 . S
C698 C700 1.378 . S
C698 C702 1.350 . S
C699 C702 1.463 1_556 S
C699 C704 1.350 . S
C699 N707 1.427 . S
C700 H691 0.930 . S
C700 C698 1.378 . S
C700 C701 1.367 . S
C701 C700 1.367 . S
C701 C703 1.433 . S
C702 C698 1.350 . S
C702 C699 1.463 1_554 S
C702 N706 1.427 . S
C703 H693 0.929 . S
C703 C701 1.433 . S
C703 N706 1.384 . S
C704 H695 0.935 . S
C704 C696 1.378 . S
C704 C699 1.350 . S
C705 H692 0.929 . S
C705 C697 1.433 . S
C705 N707 1.384 . S
N706 C702 1.427 . S
N706 C703 1.384 . S
N707 C699 1.427 . S
N707 C705 1.384 . S
H708 C714 0.930 . S
H709 C718 0.930 . S
H710 C723 0.929 . S
H711 C721 0.929 . S
H712 C716 0.929 1_556 S
H713 C722 0.929 1_554 S
C714 H708 0.930 . S
C714 C715 1.367 . S
C714 C722 1.378 . S
C715 C714 1.367 . S
C715 C723 1.433 . S
C716 H712 0.929 1_554 S
C716 C718 1.378 . S
C716 C720 1.350 . S
C717 C720 1.463 1_456 S
C717 C722 1.350 . S
C717 N725 1.427 . S
C718 H709 0.930 . S
C718 C716 1.378 . S
C718 C719 1.367 . S
C719 C718 1.367 . S
C719 C721 1.433 . S
C720 C716 1.350 . S
C720 C717 1.463 1_654 S
C720 N724 1.427 . S
C721 H711 0.929 . S
C721 C719 1.433 . S
C721 N724 1.384 . S
C722 H713 0.929 1_556 S
C722 C714 1.378 . S
C722 C717 1.350 . S
C723 H710 0.929 . S
C723 C715 1.433 . S
C723 N725 1.384 . S
N724 C720 1.427 . S
N724 C721 1.384 . S
N725 C717 1.427 . S
N725 C723 1.384 . S
H726 C732 0.930 . S
H727 C736 0.930 . S
H728 C741 0.929 . S
H729 C739 0.929 . S
H730 C734 0.961 . S
H731 C740 0.961 . S
C732 H726 0.930 . S
C732 C733 1.367 . S
C732 C740 1.357 1_556 S
C733 C732 1.367 . S
C733 C741 1.433 . S
C734 H730 0.961 . S
C734 C736 1.357 1_556 S
C734 C738 1.339 1_556 S
C735 C738 1.463 1_646 S
C735 C740 1.339 1_556 S
C735 N743 1.427 . S
C736 H727 0.930 . S
C736 C734 1.357 1_554 S
C736 C737 1.367 . S
C737 C736 1.367 . S
C737 C739 1.433 . S
C738 C734 1.339 1_554 S
C738 C735 1.463 1_464 S
C738 N742 1.427 . S
C739 H729 0.929 . S
C739 C737 1.433 . S
C739 N742 1.384 . S
C740 H731 0.961 . S
C740 C732 1.357 1_554 S
C740 C735 1.339 1_554 S
C741 H728 0.929 . S
C741 C733 1.433 . S
C741 N743 1.384 . S
N742 C738 1.427 . S
N742 C739 1.384 . S
N743 C735 1.427 . S
N743 C741 1.384 . S
H744 C750 0.930 . S
H745 C754 0.930 . S
H746 C759 0.929 . S
H747 C757 0.929 . S
H748 C752 0.929 . S
H749 C758 0.929 . S
C750 H744 0.930 . S
C750 C751 1.367 . S
C750 C758 1.378 . S
C751 C750 1.367 . S
C751 C759 1.433 . S
C752 H748 0.929 . S
C752 C754 1.378 . S
C752 C756 1.350 . S
C753 C756 1.463 . S
C753 C758 1.350 . S
C753 N761 1.427 . S
C754 H745 0.930 . S
C754 C752 1.378 . S
C754 C755 1.367 . S
C755 C754 1.367 . S
C755 C757 1.433 . S
C756 C752 1.350 . S
C756 C753 1.463 . S
C756 N760 1.427 . S
C757 H747 0.929 . S
C757 C755 1.433 . S
C757 N760 1.384 . S
C758 H749 0.929 . S
C758 C750 1.378 . S
C758 C753 1.350 . S
C759 H746 0.929 . S
C759 C751 1.433 . S
C759 N761 1.384 . S
N760 C756 1.427 . S
N760 C757 1.384 . S
N761 C753 1.427 . S
N761 C759 1.384 . S
H762 C768 0.930 . S
H763 C772 0.930 . S
H764 C777 0.929 . S
H765 C775 0.929 . S
H766 C770 0.929 . S
H767 C776 0.929 . S
C768 H762 0.930 . S
C768 C769 1.367 . S
C768 C776 1.378 . S
C769 C768 1.367 . S
C769 C777 1.433 1_655 S
C770 H766 0.929 . S
C770 C772 1.378 . S
C770 C774 1.350 . S
C771 C774 1.463 1_655 S
C771 C776 1.350 . S
C771 N779 1.427 1_655 S
C772 H763 0.930 . S
C772 C770 1.378 . S
C772 C773 1.367 . S
C773 C772 1.367 . S
C773 C775 1.433 1_455 S
C774 C770 1.350 . S
C774 C771 1.463 1_455 S
C774 N778 1.427 1_455 S
C775 H765 0.929 . S
C775 C773 1.433 1_655 S
C775 N778 1.384 . S
C776 H767 0.929 . S
C776 C768 1.378 . S
C776 C771 1.350 . S
C777 H764 0.929 . S
C777 C769 1.433 1_455 S
C777 N779 1.384 . S
N778 C774 1.427 1_655 S
N778 C775 1.384 . S
N779 C771 1.427 1_455 S
N779 C777 1.384 . S
H780 C786 0.930 . S
H781 C790 0.930 . S
H782 C795 0.929 . S
H783 C793 0.929 . S
H784 C788 0.929 . S
H785 C794 0.929 . S
C786 H780 0.930 . S
C786 C787 1.367 1_565 S
C786 C794 1.378 . S
C787 C786 1.367 1_545 S
C787 C795 1.433 . S
C788 H784 0.929 . S
C788 C790 1.378 . S
C788 C792 1.344 1_545 S
C789 C792 1.462 1_645 S
C789 C794 1.344 1_545 S
C789 N797 1.434 . S
C790 H781 0.930 . S
C790 C788 1.378 . S
C790 C791 1.367 1_545 S
C791 C790 1.367 1_565 S
C791 C793 1.433 . S
C792 C788 1.344 1_565 S
C792 C789 1.462 1_465 S
C792 N796 1.434 . S
C793 H783 0.929 . S
C793 C791 1.433 . S
C793 N796 1.384 . S
C794 H785 0.929 . S
C794 C786 1.378 . S
C794 C789 1.344 1_565 S
C795 H782 0.929 . S
C795 C787 1.433 . S
C795 N797 1.384 . S
N796 C792 1.434 . S
N796 C793 1.384 . S
N797 C789 1.434 . S
N797 C795 1.384 . S
H798 C804 0.930 . S
H799 C808 0.930 . S
H800 C813 0.929 . S
H801 C811 0.929 . S
H802 C806 0.929 1_565 S
H803 C812 0.929 1_545 S
C804 H798 0.930 . S
C804 C805 1.367 . S
C804 C812 1.378 . S
C805 C804 1.367 . S
C805 C813 1.433 . S
C806 H802 0.929 1_545 S
C806 C808 1.378 . S
C806 C810 1.350 . S
C807 C810 1.463 1_565 S
C807 C812 1.350 . S
C807 N815 1.427 . S
C808 H799 0.930 . S
C808 C806 1.378 . S
C808 C809 1.367 . S
C809 C808 1.367 . S
C809 C811 1.433 . S
C810 C806 1.350 . S
C810 C807 1.463 1_545 S
C810 N814 1.427 . S
C811 H801 0.929 . S
C811 C809 1.433 . S
C811 N814 1.384 . S
C812 H803 0.929 1_565 S
C812 C804 1.378 . S
C812 C807 1.350 . S
C813 H800 0.929 . S
C813 C805 1.433 . S
C813 N815 1.384 . S
N814 C810 1.427 . S
N814 C811 1.384 . S
N815 C807 1.427 . S
N815 C813 1.384 . S
H816 C822 0.930 . S
H817 C826 0.930 . S
H818 C831 0.929 . S
H819 C829 0.929 . S
H820 C824 0.929 . S
H821 C830 0.929 . S
C822 H816 0.930 . S
C822 C823 1.367 . S
C822 C830 1.378 . S
C823 C822 1.367 . S
C823 C831 1.433 . S
C824 H820 0.929 . S
C824 C826 1.378 . S
C824 C828 1.350 . S
C825 C828 1.463 . S
C825 C830 1.350 1_554 S
C825 N833 1.427 . S
C826 H817 0.930 . S
C826 C824 1.378 . S
C826 C827 1.367 . S
C827 C826 1.367 . S
C827 C829 1.433 . S
C828 C824 1.350 . S
C828 C825 1.463 . S
C828 N832 1.427 . S
C829 H819 0.929 . S
C829 C827 1.433 . S
C829 N832 1.384 . S
C830 H821 0.929 . S
C830 C822 1.378 . S
C830 C825 1.350 1_556 S
C831 H818 0.929 . S
C831 C823 1.433 . S
C831 N833 1.384 1_556 S
N832 C828 1.427 . S
N832 C829 1.384 . S
N833 C825 1.427 . S
N833 C831 1.384 1_554 S
H834 C840 0.930 . S
H835 C844 0.930 . S
H836 C849 0.929 . S
H837 C847 0.929 . S
H838 C842 0.929 . S
H839 C848 0.929 . S
C840 H834 0.930 . S
C840 C841 1.367 . S
C840 C848 1.378 1_556 S
C841 C840 1.367 . S
C841 C849 1.433 . S
C842 H838 0.929 . S
C842 C844 1.378 . S
C842 C846 1.350 . S
C843 C846 1.463 . S
C843 C848 1.350 . S
C843 N851 1.427 1_554 S
C844 H835 0.930 . S
C844 C842 1.378 . S
C844 C845 1.367 . S
C845 C844 1.367 . S
C845 C847 1.433 . S
C846 C842 1.350 . S
C846 C843 1.463 . S
C846 N850 1.427 . S
C847 H837 0.929 . S
C847 C845 1.433 . S
C847 N850 1.384 . S
C848 H839 0.929 . S
C848 C840 1.378 1_554 S
C848 C843 1.350 . S
C849 H836 0.929 . S
C849 C841 1.433 . S
C849 N851 1.384 . S
N850 C846 1.427 . S
N850 C847 1.384 . S
N851 C843 1.427 1_556 S
N851 C849 1.384 . S
H852 C858 0.930 . S
H853 C862 0.930 . S
H854 C867 0.935 . S
H855 C865 0.929 . S
H856 C860 0.929 . S
H857 C866 0.929 . S
C858 H852 0.930 . S
C858 C859 1.367 . S
C858 C866 1.378 . S
C859 C858 1.367 . S
C859 C867 1.433 . S
C860 H856 0.929 . S
C860 C862 1.378 . S
C860 C864 1.350 . S
C861 C864 1.463 . S
C861 C866 1.350 1_554 S
C861 N869 1.427 . S
C862 H853 0.930 . S
C862 C860 1.378 . S
C862 C863 1.367 . S
C863 C862 1.367 . S
C863 C865 1.433 . S
C864 C860 1.350 . S
C864 C861 1.463 . S
C864 N868 1.427 . S
C865 H855 0.929 . S
C865 C863 1.433 . S
C865 N868 1.384 . S
C866 H857 0.929 . S
C866 C858 1.378 . S
C866 C861 1.350 1_556 S
C867 H854 0.935 . S
C867 C859 1.433 . S
C867 N869 1.384 1_556 S
N868 C864 1.427 . S
N868 C865 1.384 . S
N869 C861 1.427 . S
N869 C867 1.384 1_554 S
H870 C876 0.930 . S
H871 C880 0.930 . S
H872 C885 0.935 . S
H873 C883 0.929 . S
H874 C878 0.929 . S
H875 C884 0.929 . S
C876 H870 0.930 . S
C876 C877 1.367 . S
C876 C884 1.378 . S
C877 C876 1.367 . S
C877 C885 1.417 1_556 S
C878 H874 0.929 . S
C878 C880 1.378 . S
C878 C882 1.350 . S
C879 C882 1.463 . S
C879 C884 1.350 1_554 S
C879 N887 1.427 . S
C880 H871 0.930 . S
C880 C878 1.378 . S
C880 C881 1.367 . S
C881 C880 1.367 . S
C881 C883 1.433 . S
C882 C878 1.350 . S
C882 C879 1.463 . S
C882 N886 1.427 . S
C883 H873 0.929 . S
C883 C881 1.433 . S
C883 N886 1.384 . S
C884 H875 0.929 . S
C884 C876 1.378 . S
C884 C879 1.350 1_556 S
C885 H872 0.935 . S
C885 C877 1.417 1_554 S
C885 N887 1.394 . S
N886 C882 1.427 . S
N886 C883 1.384 . S
N887 C879 1.427 . S
N887 C885 1.394 . S
H888 C894 0.930 . S
H889 C898 0.930 . S
H890 C903 0.929 . S
H891 C901 0.929 . S
H892 C896 0.929 . S
H893 C902 0.929 . S
C894 H888 0.930 . S
C894 C895 1.367 . S
C894 C902 1.378 . S
C895 C894 1.367 . S
C895 C903 1.433 . S
C896 H892 0.929 . S
C896 C898 1.378 . S
C896 C900 1.350 . S
C897 C900 1.463 . S
C897 C902 1.350 . S
C897 N905 1.427 . S
C898 H889 0.930 . S
C898 C896 1.378 . S
C898 C899 1.367 . S
C899 C898 1.367 . S
C899 C901 1.433 . S
C900 C896 1.350 . S
C900 C897 1.463 . S
C900 N904 1.427 . S
C901 H891 0.929 . S
C901 C899 1.433 . S
C901 N904 1.384 . S
C902 H893 0.929 . S
C902 C894 1.378 . S
C902 C897 1.350 . S
C903 H890 0.929 . S
C903 C895 1.433 . S
C903 N905 1.384 . S
N904 C900 1.427 . S
N904 C901 1.384 . S
N905 C897 1.427 . S
N905 C903 1.384 . S
H906 C912 0.930 . S
H907 C916 0.930 . S
H908 C921 0.929 . S
H909 C919 0.929 . S
H910 C914 0.929 . S
H911 C920 0.929 . S
C912 H906 0.930 . S
C912 C913 1.367 . S
C912 C920 1.378 . S
C913 C912 1.367 . S
C913 C921 1.433 . S
C914 H910 0.929 . S
C914 C916 1.378 . S
C914 C918 1.350 . S
C915 C918 1.463 . S
C915 C920 1.350 . S
C915 N923 1.427 . S
C916 H907 0.930 . S
C916 C914 1.378 . S
C916 C917 1.367 . S
C917 C916 1.367 . S
C917 C919 1.433 . S
C918 C914 1.350 . S
C918 C915 1.463 . S
C918 N922 1.427 . S
C919 H909 0.929 . S
C919 C917 1.433 . S
C919 N922 1.384 . S
C920 H911 0.929 . S
C920 C912 1.378 . S
C920 C915 1.350 . S
C921 H908 0.929 . S
C921 C913 1.433 . S
C921 N923 1.384 . S
N922 C918 1.427 . S
N922 C919 1.384 . S
N923 C915 1.427 . S
N923 C921 1.384 . S
H924 C930 0.930 . S
H925 C934 0.930 . S
H926 C939 0.929 . S
H927 C937 0.929 . S
H928 C932 0.929 . S
H929 C938 0.929 . S
C930 H924 0.930 . S
C930 C931 1.367 . S
C930 C938 1.378 . S
C931 C930 1.367 . S
C931 C939 1.433 . S
C932 H928 0.929 . S
C932 C934 1.378 . S
C932 C936 1.350 . S
C933 C936 1.463 . S
C933 C938 1.350 . S
C933 N941 1.427 . S
C934 H925 0.930 . S
C934 C932 1.378 . S
C934 C935 1.367 . S
C935 C934 1.367 . S
C935 C937 1.433 . S
C936 C932 1.350 . S
C936 C933 1.463 . S
C936 N940 1.427 . S
C937 H927 0.929 . S
C937 C935 1.433 . S
C937 N940 1.384 . S
C938 H929 0.929 . S
C938 C930 1.378 . S
C938 C933 1.350 . S
C939 H926 0.929 . S
C939 C931 1.433 . S
C939 N941 1.384 . S
N940 C936 1.427 . S
N940 C937 1.384 . S
N941 C933 1.427 . S
N941 C939 1.384 . S
H942 C948 0.930 . S
H943 C952 0.930 . S
H944 C957 0.929 . S
H945 C955 0.929 . S
H946 C950 0.929 . S
H947 C956 0.929 . S
C948 H942 0.930 . S
C948 C949 1.367 . S
C948 C956 1.378 . S
C949 C948 1.367 . S
C949 C957 1.433 . S
C950 H946 0.929 . S
C950 C952 1.378 . S
C950 C954 1.350 . S
C951 C954 1.463 . S
C951 C956 1.350 . S
C951 N959 1.427 . S
C952 H943 0.930 . S
C952 C950 1.378 . S
C952 C953 1.367 . S
C953 C952 1.367 . S
C953 C955 1.433 . S
C954 C950 1.350 . S
C954 C951 1.463 . S
C954 N958 1.427 . S
C955 H945 0.929 . S
C955 C953 1.433 . S
C955 N958 1.384 . S
C956 H947 0.929 . S
C956 C948 1.378 . S
C956 C951 1.350 . S
C957 H944 0.929 . S
C957 C949 1.433 . S
C957 N959 1.384 . S
N958 C954 1.427 . S
N958 C955 1.384 . S
N959 C951 1.427 . S
N959 C957 1.384 . S
H960 C966 0.930 . S
H961 C970 0.930 . S
H962 C975 0.929 . S
H963 C973 0.929 . S
H964 C968 0.929 . S
H965 C974 0.929 . S
C966 H960 0.930 . S
C966 C967 1.367 . S
C966 C974 1.378 1_554 S
C967 C966 1.367 . S
C967 C975 1.433 . S
C968 H964 0.929 . S
C968 C970 1.378 . S
C968 C972 1.350 . S
C969 C972 1.463 . S
C969 C974 1.350 . S
C969 N977 1.427 1_556 S
C970 H961 0.930 . S
C970 C968 1.378 . S
C970 C971 1.367 . S
C971 C970 1.367 . S
C971 C973 1.433 . S
C972 C968 1.350 . S
C972 C969 1.463 . S
C972 N976 1.427 . S
C973 H963 0.929 . S
C973 C971 1.433 . S
C973 N976 1.384 . S
C974 H965 0.929 . S
C974 C966 1.378 1_556 S
C974 C969 1.350 . S
C975 H962 0.929 . S
C975 C967 1.433 . S
C975 N977 1.384 . S
N976 C972 1.427 . S
N976 C973 1.384 . S
N977 C969 1.427 1_554 S
N977 C975 1.384 . S
H978 C984 0.930 . S
H979 C988 0.930 . S
H980 C993 0.929 . S
H981 C991 0.929 . S
H982 C986 0.929 . S
H983 C992 0.929 . S
C984 H978 0.930 . S
C984 C985 1.367 . S
C984 C992 1.378 . S
C985 C984 1.367 . S
C985 C993 1.433 . S
C986 H982 0.929 . S
C986 C988 1.378 . S
C986 C990 1.350 . S
C987 C990 1.463 . S
C987 C992 1.350 1_556 S
C987 N995 1.427 . S
C988 H979 0.930 . S
C988 C986 1.378 . S
C988 C989 1.367 . S
C989 C988 1.367 . S
C989 C991 1.433 . S
C990 C986 1.350 . S
C990 C987 1.463 . S
C990 N994 1.427 . S
C991 H981 0.929 . S
C991 C989 1.433 . S
C991 N994 1.384 . S
C992 H983 0.929 . S
C992 C984 1.378 . S
C992 C987 1.350 1_554 S
C993 H980 0.929 . S
C993 C985 1.433 . S
C993 N995 1.384 1_554 S
N994 C990 1.427 . S
N994 C991 1.384 . S
N995 C987 1.427 . S
N995 C993 1.384 1_556 S
H996 C1002 0.930 . S
H997 C1006 0.930 . S
H998 C1011 0.930 . S
H999 C1009 0.929 . S
H1000 C1004 0.929 . S
H1001 C1010 0.929 . S
C1002 H996 0.930 . S
C1002 C1003 1.367 . S
C1002 C1010 1.378 . S
C1003 C1002 1.367 . S
C1003 C1011 1.433 . S
C1004 H1000 0.929 . S
C1004 C1006 1.378 . S
C1004 C1008 1.350 . S
C1005 C1008 1.463 . S
C1005 C1010 1.350 1_556 S
C1005 N1013 1.427 . S
C1006 H997 0.930 . S
C1006 C1004 1.378 . S
C1006 C1007 1.367 . S
C1007 C1006 1.367 . S
C1007 C1009 1.433 . S
C1008 C1004 1.350 . S
C1008 C1005 1.463 . S
C1008 N1012 1.427 . S
C1009 H999 0.929 . S
C1009 C1007 1.433 . S
C1009 N1012 1.384 . S
C1010 H1001 0.929 . S
C1010 C1002 1.378 . S
C1010 C1005 1.350 1_554 S
C1011 H998 0.930 . S
C1011 C1003 1.433 . S
C1011 N1013 1.384 1_554 S
N1012 C1008 1.427 . S
N1012 C1009 1.384 . S
N1013 C1005 1.427 . S
N1013 C1011 1.384 1_556 S
H1014 C1020 0.930 . S
H1015 C1024 0.930 . S
H1016 C1029 0.933 . S
H1017 C1027 0.929 . S
H1018 C1022 0.929 . S
H1019 C1028 0.929 . S
C1020 H1014 0.930 . S
C1020 C1021 1.367 . S
C1020 C1028 1.378 . S
C1021 C1020 1.367 . S
C1021 C1029 1.424 1_554 S
C1022 H1018 0.929 . S
C1022 C1024 1.378 . S
C1022 C1026 1.350 . S
C1023 C1026 1.463 . S
C1023 C1028 1.350 1_556 S
C1023 N1031 1.427 . S
C1024 H1015 0.930 . S
C1024 C1022 1.378 . S
C1024 C1025 1.367 . S
C1025 C1024 1.367 . S
C1025 C1027 1.433 . S
C1026 C1022 1.350 . S
C1026 C1023 1.463 . S
C1026 N1030 1.427 . S
C1027 H1017 0.929 . S
C1027 C1025 1.433 . S
C1027 N1030 1.384 . S
C1028 H1019 0.929 . S
C1028 C1020 1.378 . S
C1028 C1023 1.350 1_554 S
C1029 H1016 0.933 . S
C1029 C1021 1.424 1_556 S
C1029 N1031 1.390 . S
N1030 C1026 1.427 . S
N1030 C1027 1.384 . S
N1031 C1023 1.427 . S
N1031 C1029 1.390 . S
H1032 C1038 0.930 . S
H1033 C1042 0.930 . S
H1034 C1047 0.929 . S
H1035 C1045 0.929 . S
H1036 C1040 0.929 . S
H1037 C1046 0.929 . S
C1038 H1032 0.930 . S
C1038 C1039 1.367 . S
C1038 C1046 1.378 . S
C1039 C1038 1.367 . S
C1039 C1047 1.433 . S
C1040 H1036 0.929 . S
C1040 C1042 1.378 . S
C1040 C1044 1.350 . S
C1041 C1044 1.463 . S
C1041 C1046 1.350 . S
C1041 N1049 1.427 . S
C1042 H1033 0.930 . S
C1042 C1040 1.378 . S
C1042 C1043 1.367 . S
C1043 C1042 1.367 . S
C1043 C1045 1.433 . S
C1044 C1040 1.350 . S
C1044 C1041 1.463 . S
C1044 N1048 1.427 . S
C1045 H1035 0.929 . S
C1045 C1043 1.433 . S
C1045 N1048 1.384 . S
C1046 H1037 0.929 . S
C1046 C1038 1.378 . S
C1046 C1041 1.350 . S
C1047 H1034 0.929 . S
C1047 C1039 1.433 . S
C1047 N1049 1.384 . S
N1048 C1044 1.427 . S
N1048 C1045 1.384 . S
N1049 C1041 1.427 . S
N1049 C1047 1.384 . S
H1050 C1056 0.930 . S
H1051 C1060 0.930 . S
H1052 C1065 0.929 . S
H1053 C1063 0.929 . S
H1054 C1058 0.929 . S
H1055 C1064 0.929 . S
C1056 H1050 0.930 . S
C1056 C1057 1.367 . S
C1056 C1064 1.378 . S
C1057 C1056 1.367 . S
C1057 C1065 1.433 . S
C1058 H1054 0.929 . S
C1058 C1060 1.378 . S
C1058 C1062 1.350 . S
C1059 C1062 1.463 . S
C1059 C1064 1.350 . S
C1059 N1067 1.427 . S
C1060 H1051 0.930 . S
C1060 C1058 1.378 . S
C1060 C1061 1.367 . S
C1061 C1060 1.367 . S
C1061 C1063 1.433 . S
C1062 C1058 1.350 . S
C1062 C1059 1.463 . S
C1062 N1066 1.427 . S
C1063 H1053 0.929 . S
C1063 C1061 1.433 . S
C1063 N1066 1.384 . S
C1064 H1055 0.929 . S
C1064 C1056 1.378 . S
C1064 C1059 1.350 . S
C1065 H1052 0.929 . S
C1065 C1057 1.433 . S
C1065 N1067 1.384 . S
N1066 C1062 1.427 . S
N1066 C1063 1.384 . S
N1067 C1059 1.427 . S
N1067 C1065 1.384 . S
H1068 C1074 0.930 . S
H1069 C1078 0.930 . S
H1070 C1083 0.929 . S
H1071 C1081 0.929 . S
H1072 C1076 0.929 . S
H1073 C1082 0.929 . S
C1074 H1068 0.930 . S
C1074 C1075 1.367 . S
C1074 C1082 1.378 . S
C1075 C1074 1.367 . S
C1075 C1083 1.433 . S
C1076 H1072 0.929 . S
C1076 C1078 1.378 . S
C1076 C1080 1.350 . S
C1077 C1080 1.463 . S
C1077 C1082 1.350 . S
C1077 N1085 1.427 . S
C1078 H1069 0.930 . S
C1078 C1076 1.378 . S
C1078 C1079 1.367 . S
C1079 C1078 1.367 . S
C1079 C1081 1.433 . S
C1080 C1076 1.350 . S
C1080 C1077 1.463 . S
C1080 N1084 1.427 . S
C1081 H1071 0.929 . S
C1081 C1079 1.433 . S
C1081 N1084 1.384 . S
C1082 H1073 0.929 . S
C1082 C1074 1.378 . S
C1082 C1077 1.350 . S
C1083 H1070 0.929 . S
C1083 C1075 1.433 . S
C1083 N1085 1.384 . S
N1084 C1080 1.427 . S
N1084 C1081 1.384 . S
N1085 C1077 1.427 . S
N1085 C1083 1.384 . S
H1086 C1092 0.930 . S
H1087 C1096 0.930 . S
H1088 C1101 0.929 . S
H1089 C1099 0.929 . S
H1090 C1094 0.929 . S
H1091 C1100 0.929 . S
C1092 H1086 0.930 . S
C1092 C1093 1.367 . S
C1092 C1100 1.378 . S
C1093 C1092 1.367 . S
C1093 C1101 1.433 . S
C1094 H1090 0.929 . S
C1094 C1096 1.378 . S
C1094 C1098 1.350 . S
C1095 C1098 1.463 . S
C1095 C1100 1.350 . S
C1095 N1103 1.427 . S
C1096 H1087 0.930 . S
C1096 C1094 1.378 . S
C1096 C1097 1.367 . S
C1097 C1096 1.367 . S
C1097 C1099 1.433 . S
C1098 C1094 1.350 . S
C1098 C1095 1.463 . S
C1098 N1102 1.427 . S
C1099 H1089 0.929 . S
C1099 C1097 1.433 . S
C1099 N1102 1.384 . S
C1100 H1091 0.929 . S
C1100 C1092 1.378 . S
C1100 C1095 1.350 . S
C1101 H1088 0.929 . S
C1101 C1093 1.433 . S
C1101 N1103 1.384 . S
N1102 C1098 1.427 . S
N1102 C1099 1.384 . S
N1103 C1095 1.427 . S
N1103 C1101 1.384 . S
H1104 C1110 0.930 . S
H1105 C1114 0.930 . S
H1106 C1119 0.929 . S
H1107 C1117 0.929 . S
H1108 C1112 0.929 . S
H1109 C1118 0.929 . S
C1110 H1104 0.930 . S
C1110 C1111 1.367 . S
C1110 C1118 1.378 . S
C1111 C1110 1.367 . S
C1111 C1119 1.433 . S
C1112 H1108 0.929 . S
C1112 C1114 1.378 . S
C1112 C1116 1.350 . S
C1113 C1116 1.463 . S
C1113 C1118 1.350 . S
C1113 N1121 1.427 . S
C1114 H1105 0.930 . S
C1114 C1112 1.378 . S
C1114 C1115 1.367 . S
C1115 C1114 1.367 . S
C1115 C1117 1.433 . S
C1116 C1112 1.350 . S
C1116 C1113 1.463 . S
C1116 N1120 1.427 . S
C1117 H1107 0.929 . S
C1117 C1115 1.433 . S
C1117 N1120 1.384 . S
C1118 H1109 0.929 . S
C1118 C1110 1.378 . S
C1118 C1113 1.350 . S
C1119 H1106 0.929 . S
C1119 C1111 1.433 . S
C1119 N1121 1.384 . S
N1120 C1116 1.427 . S
N1120 C1117 1.384 . S
N1121 C1113 1.427 . S
N1121 C1119 1.384 . S
H1122 C1128 0.930 . S
H1123 C1132 0.930 . S
H1124 C1137 0.929 . S
H1125 C1135 0.929 . S
H1126 C1130 0.929 . S
H1127 C1136 0.929 . S
C1128 H1122 0.930 . S
C1128 C1129 1.367 . S
C1128 C1136 1.378 . S
C1129 C1128 1.367 . S
C1129 C1137 1.433 . S
C1130 H1126 0.929 . S
C1130 C1132 1.378 . S
C1130 C1134 1.350 . S
C1131 C1134 1.463 . S
C1131 C1136 1.350 . S
C1131 N1139 1.427 . S
C1132 H1123 0.930 . S
C1132 C1130 1.378 . S
C1132 C1133 1.367 . S
C1133 C1132 1.367 . S
C1133 C1135 1.433 . S
C1134 C1130 1.350 . S
C1134 C1131 1.463 . S
C1134 N1138 1.427 . S
C1135 H1125 0.929 . S
C1135 C1133 1.433 . S
C1135 N1138 1.384 . S
C1136 H1127 0.929 . S
C1136 C1128 1.378 . S
C1136 C1131 1.350 . S
C1137 H1124 0.929 . S
C1137 C1129 1.433 . S
C1137 N1139 1.384 . S
N1138 C1134 1.427 . S
N1138 C1135 1.384 . S
N1139 C1131 1.427 . S
N1139 C1137 1.384 . S
H1140 C1146 0.930 . S
H1141 C1150 0.930 . S
H1142 C1155 0.929 . S
H1143 C1153 0.929 . S
H1144 C1148 0.929 . S
H1145 C1154 0.929 . S
C1146 H1140 0.930 . S
C1146 C1147 1.367 . S
C1146 C1154 1.378 . S
C1147 C1146 1.367 . S
C1147 C1155 1.433 . S
C1148 H1144 0.929 . S
C1148 C1150 1.378 . S
C1148 C1152 1.350 . S
C1149 C1152 1.463 . S
C1149 C1154 1.350 . S
C1149 N1157 1.427 . S
C1150 H1141 0.930 . S
C1150 C1148 1.378 . S
C1150 C1151 1.367 . S
C1151 C1150 1.367 . S
C1151 C1153 1.433 . S
C1152 C1148 1.350 . S
C1152 C1149 1.463 . S
C1152 N1156 1.427 . S
C1153 H1143 0.929 . S
C1153 C1151 1.433 . S
C1153 N1156 1.384 . S
C1154 H1145 0.929 . S
C1154 C1146 1.378 . S
C1154 C1149 1.350 . S
C1155 H1142 0.929 . S
C1155 C1147 1.433 . S
C1155 N1157 1.384 . S
N1156 C1152 1.427 . S
N1156 C1153 1.384 . S
N1157 C1149 1.427 . S
N1157 C1155 1.384 . S
H1158 C1164 0.930 . S
H1159 C1168 0.930 . S
H1160 C1173 0.929 . S
H1161 C1171 0.929 . S
H1162 C1166 0.929 . S
H1163 C1172 0.929 . S
C1164 H1158 0.930 . S
C1164 C1165 1.367 . S
C1164 C1172 1.378 . S
C1165 C1164 1.367 . S
C1165 C1173 1.433 . S
C1166 H1162 0.929 . S
C1166 C1168 1.378 . S
C1166 C1170 1.350 . S
C1167 C1170 1.463 . S
C1167 C1172 1.350 . S
C1167 N1175 1.427 . S
C1168 H1159 0.930 . S
C1168 C1166 1.378 . S
C1168 C1169 1.367 . S
C1169 C1168 1.367 . S
C1169 C1171 1.433 . S
C1170 C1166 1.350 . S
C1170 C1167 1.463 . S
C1170 N1174 1.427 . S
C1171 H1161 0.929 . S
C1171 C1169 1.433 . S
C1171 N1174 1.384 . S
C1172 H1163 0.929 . S
C1172 C1164 1.378 . S
C1172 C1167 1.350 . S
C1173 H1160 0.929 . S
C1173 C1165 1.433 . S
C1173 N1175 1.384 . S
N1174 C1170 1.427 . S
N1174 C1171 1.384 . S
N1175 C1167 1.427 . S
N1175 C1173 1.384 . S
H1176 C1182 0.930 . S
H1177 C1186 0.930 . S
H1178 C1191 0.929 . S
H1179 C1189 0.929 . S
H1180 C1184 0.929 . S
H1181 C1190 0.929 . S
C1182 H1176 0.930 . S
C1182 C1183 1.367 . S
C1182 C1190 1.378 . S
C1183 C1182 1.367 . S
C1183 C1191 1.433 . S
C1184 H1180 0.929 . S
C1184 C1186 1.378 . S
C1184 C1188 1.350 . S
C1185 C1188 1.463 . S
C1185 C1190 1.350 . S
C1185 N1193 1.427 . S
C1186 H1177 0.930 . S
C1186 C1184 1.378 . S
C1186 C1187 1.367 . S
C1187 C1186 1.367 . S
C1187 C1189 1.433 . S
C1188 C1184 1.350 . S
C1188 C1185 1.463 . S
C1188 N1192 1.427 . S
C1189 H1179 0.929 . S
C1189 C1187 1.433 . S
C1189 N1192 1.384 . S
C1190 H1181 0.929 . S
C1190 C1182 1.378 . S
C1190 C1185 1.350 . S
C1191 H1178 0.929 . S
C1191 C1183 1.433 . S
C1191 N1193 1.384 . S
N1192 C1188 1.427 . S
N1192 C1189 1.384 . S
N1193 C1185 1.427 . S
N1193 C1191 1.384 . S
H1194 C1200 0.930 . S
H1195 C1204 0.930 . S
H1196 C1209 0.929 . S
H1197 C1207 0.929 . S
H1198 C1202 0.929 . S
H1199 C1208 0.929 . S
C1200 H1194 0.930 . S
C1200 C1201 1.367 . S
C1200 C1208 1.378 . S
C1201 C1200 1.367 . S
C1201 C1209 1.433 . S
C1202 H1198 0.929 . S
C1202 C1204 1.378 . S
C1202 C1206 1.350 . S
C1203 C1206 1.463 . S
C1203 C1208 1.350 . S
C1203 N1211 1.427 . S
C1204 H1195 0.930 . S
C1204 C1202 1.378 . S
C1204 C1205 1.367 . S
C1205 C1204 1.367 . S
C1205 C1207 1.433 . S
C1206 C1202 1.350 . S
C1206 C1203 1.463 . S
C1206 N1210 1.427 . S
C1207 H1197 0.929 . S
C1207 C1205 1.433 . S
C1207 N1210 1.384 . S
C1208 H1199 0.929 . S
C1208 C1200 1.378 . S
C1208 C1203 1.350 . S
C1209 H1196 0.929 . S
C1209 C1201 1.433 . S
C1209 N1211 1.384 . S
N1210 C1206 1.427 . S
N1210 C1207 1.384 . S
N1211 C1203 1.427 . S
N1211 C1209 1.384 . S
H1212 C1218 0.930 . S
H1213 C1222 0.930 . S
H1214 C1227 0.929 . S
H1215 C1225 0.929 . S
H1216 C1220 0.929 . S
H1217 C1226 0.929 . S
C1218 H1212 0.930 . S
C1218 C1219 1.367 . S
C1218 C1226 1.378 . S
C1219 C1218 1.367 . S
C1219 C1227 1.433 . S
C1220 H1216 0.929 . S
C1220 C1222 1.378 . S
C1220 C1224 1.350 . S
C1221 C1224 1.463 . S
C1221 C1226 1.350 . S
C1221 N1229 1.427 . S
C1222 H1213 0.930 . S
C1222 C1220 1.378 . S
C1222 C1223 1.367 . S
C1223 C1222 1.367 . S
C1223 C1225 1.433 . S
C1224 C1220 1.350 . S
C1224 C1221 1.463 . S
C1224 N1228 1.427 . S
C1225 H1215 0.929 . S
C1225 C1223 1.433 . S
C1225 N1228 1.384 . S
C1226 H1217 0.929 . S
C1226 C1218 1.378 . S
C1226 C1221 1.350 . S
C1227 H1214 0.929 . S
C1227 C1219 1.433 . S
C1227 N1229 1.384 . S
N1228 C1224 1.427 . S
N1228 C1225 1.384 . S
N1229 C1221 1.427 . S
N1229 C1227 1.384 . S
H1230 C1236 0.930 . S
H1231 C1240 0.930 . S
H1232 C1245 0.929 . S
H1233 C1243 0.929 . S
H1234 C1238 0.929 . S
H1235 C1244 0.929 . S
C1236 H1230 0.930 . S
C1236 C1237 1.367 . S
C1236 C1244 1.378 . S
C1237 C1236 1.367 . S
C1237 C1245 1.433 . S
C1238 H1234 0.929 . S
C1238 C1240 1.378 . S
C1238 C1242 1.350 . S
C1239 C1242 1.463 . S
C1239 C1244 1.350 . S
C1239 N1247 1.427 . S
C1240 H1231 0.930 . S
C1240 C1238 1.378 . S
C1240 C1241 1.367 . S
C1241 C1240 1.367 . S
C1241 C1243 1.433 . S
C1242 C1238 1.350 . S
C1242 C1239 1.463 . S
C1242 N1246 1.427 . S
C1243 H1233 0.929 . S
C1243 C1241 1.433 . S
C1243 N1246 1.384 . S
C1244 H1235 0.929 . S
C1244 C1236 1.378 . S
C1244 C1239 1.350 . S
C1245 H1232 0.929 . S
C1245 C1237 1.433 . S
C1245 N1247 1.384 . S
N1246 C1242 1.427 . S
N1246 C1243 1.384 . S
N1247 C1239 1.427 . S
N1247 C1245 1.384 . S
C535 C18 1.651 . S
C539 C216 1.645 . S
C553 C249 1.653 . S
C557 C51 1.659 . S
C571 C150 1.663 . S
C575 C84 1.660 . S
C589 C183 1.651 . S
C593 C117 1.645 . S
C607 C282 1.647 . S
C611 C480 1.644 . S
C625 C315 1.653 . S
C629 C513 1.659 . S
C643 C414 1.660 . S
C647 C348 1.655 . S
C661 C381 1.650 . S
C665 C447 1.645 . S
C679 N266 2.264 . S
C683 N2 2.264 . S
C697 N299 2.268 . S
C701 N35 2.268 . S
C715 N332 2.267 . S
C719 N68 2.267 . S
C733 N365 2.265 . S
C737 N101 2.265 . S
C751 N398 2.262 . S
C755 N134 2.262 . S
C769 N431 2.262 . S
C773 N167 2.262 . S
C787 N200 2.268 . S
C791 N464 2.268 . S
C805 N233 2.265 . S
C809 N497 2.265 . S
C823 C318 0.646 . S
C827 C7 0.659 . S
C841 C351 0.682 . S
C845 C40 0.631 . S
C859 C384 0.673 . S
C863 C73 0.647 . S
C877 C285 0.662 . S
C881 C106 0.654 . S
C895 C139 0.632 . S
C899 C516 0.684 . S
C913 C172 0.631 . S
C917 C417 0.682 . S
C931 C205 0.633 . S
C935 C450 0.672 . S
C949 C238 0.655 . S
C953 C483 0.644 . S
C967 C54 0.653 . S
C971 C271 0.645 . S
C985 C87 0.644 . S
C989 C304 0.658 . S
C1003 C120 0.647 . S
C1007 C337 0.659 . S
C1021 C21 0.654 . S
C1025 C370 0.657 . S
C1039 C252 0.668 . S
C1043 C403 0.650 . S
C1057 C153 0.647 . S
C1061 C436 0.659 . S
C1075 C186 0.646 . S
C1079 C469 0.659 . S
C1093 C502 0.640 . S
C1097 C219 0.680 . S
C1111 N79 0.571 . S
C1115 N13 0.613 . S
C1129 N112 0.570 . S
C1133 N46 0.611 . S
C1147 N145 0.624 . S
C1151 N211 0.590 . S
C1165 N244 0.591 . S
C1169 N178 0.624 . S
C1183 N277 0.585 . S
C1187 N343 0.624 . S
C1201 N376 0.622 . S
C1205 N310 0.598 . S
C1219 N409 0.597 . S
C1223 N475 0.622 . S
C1237 N442 0.586 . S
C1241 N508 0.624 . S
