# Generated by pormake.
# Topology ukw, (4)-cn, num edge types: 1
# Building blocks:
#     Node 0, Type 0, BuildingBlock: QUQFOY_clean_sbu_1, # of connection points: 4
#     Node 1, Type 0, BuildingBlock: QUQFOY_clean_sbu_1, # of connection points: 4
#     Node 2, Type 0, BuildingBlock: QUQFOY_clean_sbu_1, # of connection points: 4
#     Node 3, Type 0, BuildingBlock: QUQFOY_clean_sbu_1, # of connection points: 4
#     Node 4, Type 0, BuildingBlock: QUQFOY_clean_sbu_1, # of connection points: 4
#     Node 5, Type 0, BuildingBlock: QUQFOY_clean_sbu_1, # of connection points: 4
#     Node 6, Type 0, BuildingBlock: QUQFOY_clean_sbu_1, # of connection points: 4
#     Node 7, Type 0, BuildingBlock: QUQFOY_clean_sbu_1, # of connection points: 4
#     Node 8, Type 0, BuildingBlock: QUQFOY_clean_sbu_1, # of connection points: 4
#     Node 9, Type 0, BuildingBlock: QUQFOY_clean_sbu_1, # of connection points: 4
#     Node 10, Type 0, BuildingBlock: QUQFOY_clean_sbu_1, # of connection points: 4
#     Node 11, Type 0, BuildingBlock: QUQFOY_clean_sbu_1, # of connection points: 4
#     Node 12, Type 0, BuildingBlock: QUQFOY_clean_sbu_1, # of connection points: 4
#     Node 13, Type 0, BuildingBlock: QUQFOY_clean_sbu_1, # of connection points: 4
#     Node 14, Type 0, BuildingBlock: QUQFOY_clean_sbu_1, # of connection points: 4
#     Node 15, Type 0, BuildingBlock: QUQFOY_clean_sbu_1, # of connection points: 4
#     Node 16, Type 0, BuildingBlock: QUQFOY_clean_sbu_1, # of connection points: 4
#     Node 17, Type 0, BuildingBlock: QUQFOY_clean_sbu_1, # of connection points: 4
#     Node 18, Type 0, BuildingBlock: QUQFOY_clean_sbu_1, # of connection points: 4
#     Node 19, Type 0, BuildingBlock: QUQFOY_clean_sbu_1, # of connection points: 4
#     Node 20, Type 0, BuildingBlock: QUQFOY_clean_sbu_1, # of connection points: 4
#     Node 21, Type 0, BuildingBlock: QUQFOY_clean_sbu_1, # of connection points: 4
#     Node 22, Type 0, BuildingBlock: QUQFOY_clean_sbu_1, # of connection points: 4
#     Node 23, Type 0, BuildingBlock: QUQFOY_clean_sbu_1, # of connection points: 4
#     Node 24, Type 0, BuildingBlock: QUQFOY_clean_sbu_1, # of connection points: 4
#     Node 25, Type 0, BuildingBlock: QUQFOY_clean_sbu_1, # of connection points: 4
#     Node 26, Type 0, BuildingBlock: QUQFOY_clean_sbu_1, # of connection points: 4
#     Node 27, Type 0, BuildingBlock: QUQFOY_clean_sbu_1, # of connection points: 4
#     Node 28, Type 0, BuildingBlock: QUQFOY_clean_sbu_1, # of connection points: 4
#     Node 29, Type 0, BuildingBlock: QUQFOY_clean_sbu_1, # of connection points: 4
#     Node 30, Type 0, BuildingBlock: QUQFOY_clean_sbu_1, # of connection points: 4
#     Node 31, Type 0, BuildingBlock: QUQFOY_clean_sbu_1, # of connection points: 4
#     Node 32, Type 0, BuildingBlock: QUQFOY_clean_sbu_1, # of connection points: 4
#     Node 33, Type 0, BuildingBlock: QUQFOY_clean_sbu_1, # of connection points: 4
#     Node 34, Type 0, BuildingBlock: QUQFOY_clean_sbu_1, # of connection points: 4
#     Node 35, Type 0, BuildingBlock: QUQFOY_clean_sbu_1, # of connection points: 4
#     Node 36, Type 0, BuildingBlock: QUQFOY_clean_sbu_1, # of connection points: 4
#     Node 37, Type 0, BuildingBlock: QUQFOY_clean_sbu_1, # of connection points: 4
#     Node 38, Type 0, BuildingBlock: QUQFOY_clean_sbu_1, # of connection points: 4
#     Node 39, Type 0, BuildingBlock: QUQFOY_clean_sbu_1, # of connection points: 4
#     Node 40, Type 0, BuildingBlock: QUQFOY_clean_sbu_1, # of connection points: 4
#     Node 41, Type 0, BuildingBlock: QUQFOY_clean_sbu_1, # of connection points: 4
#     Node 42, Type 0, BuildingBlock: QUQFOY_clean_sbu_1, # of connection points: 4
#     Node 43, Type 0, BuildingBlock: QUQFOY_clean_sbu_1, # of connection points: 4
#     Node 44, Type 0, BuildingBlock: QUQFOY_clean_sbu_1, # of connection points: 4
#     Node 45, Type 0, BuildingBlock: QUQFOY_clean_sbu_1, # of connection points: 4
#     Node 46, Type 0, BuildingBlock: QUQFOY_clean_sbu_1, # of connection points: 4
#     Node 47, Type 0, BuildingBlock: QUQFOY_clean_sbu_1, # of connection points: 4
#     Node 48, Type 0, BuildingBlock: QUQFOY_clean_sbu_1, # of connection points: 4
#     Node 49, Type 0, BuildingBlock: QUQFOY_clean_sbu_1, # of connection points: 4
#     Node 50, Type 0, BuildingBlock: QUQFOY_clean_sbu_1, # of connection points: 4
#     Node 51, Type 0, BuildingBlock: QUQFOY_clean_sbu_1, # of connection points: 4
#     Node 52, Type 0, BuildingBlock: QUQFOY_clean_sbu_1, # of connection points: 4
#     Node 53, Type 0, BuildingBlock: QUQFOY_clean_sbu_1, # of connection points: 4
#     Node 54, Type 0, BuildingBlock: QUQFOY_clean_sbu_1, # of connection points: 4
#     Node 55, Type 0, BuildingBlock: QUQFOY_clean_sbu_1, # of connection points: 4
#     Node 56, Type 0, BuildingBlock: QUQFOY_clean_sbu_1, # of connection points: 4
#     Node 57, Type 0, BuildingBlock: QUQFOY_clean_sbu_1, # of connection points: 4
#     Node 58, Type 0, BuildingBlock: QUQFOY_clean_sbu_1, # of connection points: 4
#     Node 59, Type 0, BuildingBlock: QUQFOY_clean_sbu_1, # of connection points: 4
#     Node 60, Type 0, BuildingBlock: QUQFOY_clean_sbu_1, # of connection points: 4
#     Node 61, Type 0, BuildingBlock: QUQFOY_clean_sbu_1, # of connection points: 4
#     Node 62, Type 0, BuildingBlock: QUQFOY_clean_sbu_1, # of connection points: 4
#     Node 63, Type 0, BuildingBlock: QUQFOY_clean_sbu_1, # of connection points: 4
#     Node 64, Type 0, BuildingBlock: QUQFOY_clean_sbu_1, # of connection points: 4
#     Node 65, Type 0, BuildingBlock: QUQFOY_clean_sbu_1, # of connection points: 4
#     Node 66, Type 0, BuildingBlock: QUQFOY_clean_sbu_1, # of connection points: 4
#     Node 67, Type 0, BuildingBlock: QUQFOY_clean_sbu_1, # of connection points: 4
#     Node 68, Type 0, BuildingBlock: QUQFOY_clean_sbu_1, # of connection points: 4
#     Node 69, Type 0, BuildingBlock: QUQFOY_clean_sbu_1, # of connection points: 4
#     Node 70, Type 0, BuildingBlock: QUQFOY_clean_sbu_1, # of connection points: 4
#     Node 71, Type 0, BuildingBlock: QUQFOY_clean_sbu_1, # of connection points: 4
#     Node 72, Type 0, BuildingBlock: QUQFOY_clean_sbu_1, # of connection points: 4
#     Node 73, Type 0, BuildingBlock: QUQFOY_clean_sbu_1, # of connection points: 4
#     Node 74, Type 0, BuildingBlock: QUQFOY_clean_sbu_1, # of connection points: 4
#     Node 75, Type 0, BuildingBlock: QUQFOY_clean_sbu_1, # of connection points: 4
#     Node 76, Type 0, BuildingBlock: QUQFOY_clean_sbu_1, # of connection points: 4
#     Node 77, Type 0, BuildingBlock: QUQFOY_clean_sbu_1, # of connection points: 4
#     Node 78, Type 0, BuildingBlock: QUQFOY_clean_sbu_1, # of connection points: 4
#     Node 79, Type 0, BuildingBlock: QUQFOY_clean_sbu_1, # of connection points: 4
#     Node 80, Type 0, BuildingBlock: QUQFOY_clean_sbu_1, # of connection points: 4
#     Node 81, Type 0, BuildingBlock: QUQFOY_clean_sbu_1, # of connection points: 4
#     Node 82, Type 0, BuildingBlock: QUQFOY_clean_sbu_1, # of connection points: 4
#     Node 83, Type 0, BuildingBlock: QUQFOY_clean_sbu_1, # of connection points: 4
#     Node 84, Type 0, BuildingBlock: QUQFOY_clean_sbu_1, # of connection points: 4
#     Node 85, Type 0, BuildingBlock: QUQFOY_clean_sbu_1, # of connection points: 4
#     Node 86, Type 0, BuildingBlock: QUQFOY_clean_sbu_1, # of connection points: 4
#     Node 87, Type 0, BuildingBlock: QUQFOY_clean_sbu_1, # of connection points: 4
#     Node 88, Type 0, BuildingBlock: QUQFOY_clean_sbu_1, # of connection points: 4
#     Node 89, Type 0, BuildingBlock: QUQFOY_clean_sbu_1, # of connection points: 4
#     Node 90, Type 0, BuildingBlock: QUQFOY_clean_sbu_1, # of connection points: 4
#     Node 91, Type 0, BuildingBlock: QUQFOY_clean_sbu_1, # of connection points: 4
#     Node 92, Type 0, BuildingBlock: QUQFOY_clean_sbu_1, # of connection points: 4
#     Node 93, Type 0, BuildingBlock: QUQFOY_clean_sbu_1, # of connection points: 4
#     Node 94, Type 0, BuildingBlock: QUQFOY_clean_sbu_1, # of connection points: 4
#     Node 95, Type 0, BuildingBlock: QUQFOY_clean_sbu_1, # of connection points: 4
#     Edge 96, Type (0, 0), BuildingBlock: XIVTED_clean_linker_0, # of connection points: 2
#     Edge 97, Type (0, 0), BuildingBlock: XIVTED_clean_linker_0, # of connection points: 2
#     Edge 98, Type (0, 0), BuildingBlock: XIVTED_clean_linker_0, # of connection points: 2
#     Edge 99, Type (0, 0), BuildingBlock: XIVTED_clean_linker_0, # of connection points: 2
#     Edge 100, Type (0, 0), BuildingBlock: XIVTED_clean_linker_0, # of connection points: 2
#     Edge 101, Type (0, 0), BuildingBlock: XIVTED_clean_linker_0, # of connection points: 2
#     Edge 102, Type (0, 0), BuildingBlock: XIVTED_clean_linker_0, # of connection points: 2
#     Edge 103, Type (0, 0), BuildingBlock: XIVTED_clean_linker_0, # of connection points: 2
#     Edge 104, Type (0, 0), BuildingBlock: XIVTED_clean_linker_0, # of connection points: 2
#     Edge 105, Type (0, 0), BuildingBlock: XIVTED_clean_linker_0, # of connection points: 2
#     Edge 106, Type (0, 0), BuildingBlock: XIVTED_clean_linker_0, # of connection points: 2
#     Edge 107, Type (0, 0), BuildingBlock: XIVTED_clean_linker_0, # of connection points: 2
#     Edge 108, Type (0, 0), BuildingBlock: XIVTED_clean_linker_0, # of connection points: 2
#     Edge 109, Type (0, 0), BuildingBlock: XIVTED_clean_linker_0, # of connection points: 2
#     Edge 110, Type (0, 0), BuildingBlock: XIVTED_clean_linker_0, # of connection points: 2
#     Edge 111, Type (0, 0), BuildingBlock: XIVTED_clean_linker_0, # of connection points: 2
#     Edge 112, Type (0, 0), BuildingBlock: XIVTED_clean_linker_0, # of connection points: 2
#     Edge 113, Type (0, 0), BuildingBlock: XIVTED_clean_linker_0, # of connection points: 2
#     Edge 114, Type (0, 0), BuildingBlock: XIVTED_clean_linker_0, # of connection points: 2
#     Edge 115, Type (0, 0), BuildingBlock: XIVTED_clean_linker_0, # of connection points: 2
#     Edge 116, Type (0, 0), BuildingBlock: XIVTED_clean_linker_0, # of connection points: 2
#     Edge 117, Type (0, 0), BuildingBlock: XIVTED_clean_linker_0, # of connection points: 2
#     Edge 118, Type (0, 0), BuildingBlock: XIVTED_clean_linker_0, # of connection points: 2
#     Edge 119, Type (0, 0), BuildingBlock: XIVTED_clean_linker_0, # of connection points: 2
#     Edge 120, Type (0, 0), BuildingBlock: XIVTED_clean_linker_0, # of connection points: 2
#     Edge 121, Type (0, 0), BuildingBlock: XIVTED_clean_linker_0, # of connection points: 2
#     Edge 122, Type (0, 0), BuildingBlock: XIVTED_clean_linker_0, # of connection points: 2
#     Edge 123, Type (0, 0), BuildingBlock: XIVTED_clean_linker_0, # of connection points: 2
#     Edge 124, Type (0, 0), BuildingBlock: XIVTED_clean_linker_0, # of connection points: 2
#     Edge 125, Type (0, 0), BuildingBlock: XIVTED_clean_linker_0, # of connection points: 2
#     Edge 126, Type (0, 0), BuildingBlock: XIVTED_clean_linker_0, # of connection points: 2
#     Edge 127, Type (0, 0), BuildingBlock: XIVTED_clean_linker_0, # of connection points: 2
#     Edge 128, Type (0, 0), BuildingBlock: XIVTED_clean_linker_0, # of connection points: 2
#     Edge 129, Type (0, 0), BuildingBlock: XIVTED_clean_linker_0, # of connection points: 2
#     Edge 130, Type (0, 0), BuildingBlock: XIVTED_clean_linker_0, # of connection points: 2
#     Edge 131, Type (0, 0), BuildingBlock: XIVTED_clean_linker_0, # of connection points: 2
#     Edge 132, Type (0, 0), BuildingBlock: XIVTED_clean_linker_0, # of connection points: 2
#     Edge 133, Type (0, 0), BuildingBlock: XIVTED_clean_linker_0, # of connection points: 2
#     Edge 134, Type (0, 0), BuildingBlock: XIVTED_clean_linker_0, # of connection points: 2
#     Edge 135, Type (0, 0), BuildingBlock: XIVTED_clean_linker_0, # of connection points: 2
#     Edge 136, Type (0, 0), BuildingBlock: XIVTED_clean_linker_0, # of connection points: 2
#     Edge 137, Type (0, 0), BuildingBlock: XIVTED_clean_linker_0, # of connection points: 2
#     Edge 138, Type (0, 0), BuildingBlock: XIVTED_clean_linker_0, # of connection points: 2
#     Edge 139, Type (0, 0), BuildingBlock: XIVTED_clean_linker_0, # of connection points: 2
#     Edge 140, Type (0, 0), BuildingBlock: XIVTED_clean_linker_0, # of connection points: 2
#     Edge 141, Type (0, 0), BuildingBlock: XIVTED_clean_linker_0, # of connection points: 2
#     Edge 142, Type (0, 0), BuildingBlock: XIVTED_clean_linker_0, # of connection points: 2
#     Edge 143, Type (0, 0), BuildingBlock: XIVTED_clean_linker_0, # of connection points: 2
#     Edge 144, Type (0, 0), BuildingBlock: XIVTED_clean_linker_0, # of connection points: 2
#     Edge 145, Type (0, 0), BuildingBlock: XIVTED_clean_linker_0, # of connection points: 2
#     Edge 146, Type (0, 0), BuildingBlock: XIVTED_clean_linker_0, # of connection points: 2
#     Edge 147, Type (0, 0), BuildingBlock: XIVTED_clean_linker_0, # of connection points: 2
#     Edge 148, Type (0, 0), BuildingBlock: XIVTED_clean_linker_0, # of connection points: 2
#     Edge 149, Type (0, 0), BuildingBlock: XIVTED_clean_linker_0, # of connection points: 2
#     Edge 150, Type (0, 0), BuildingBlock: XIVTED_clean_linker_0, # of connection points: 2
#     Edge 151, Type (0, 0), BuildingBlock: XIVTED_clean_linker_0, # of connection points: 2
#     Edge 152, Type (0, 0), BuildingBlock: XIVTED_clean_linker_0, # of connection points: 2
#     Edge 153, Type (0, 0), BuildingBlock: XIVTED_clean_linker_0, # of connection points: 2
#     Edge 154, Type (0, 0), BuildingBlock: XIVTED_clean_linker_0, # of connection points: 2
#     Edge 155, Type (0, 0), BuildingBlock: XIVTED_clean_linker_0, # of connection points: 2
#     Edge 156, Type (0, 0), BuildingBlock: XIVTED_clean_linker_0, # of connection points: 2
#     Edge 157, Type (0, 0), BuildingBlock: XIVTED_clean_linker_0, # of connection points: 2
#     Edge 158, Type (0, 0), BuildingBlock: XIVTED_clean_linker_0, # of connection points: 2
#     Edge 159, Type (0, 0), BuildingBlock: XIVTED_clean_linker_0, # of connection points: 2
#     Edge 160, Type (0, 0), BuildingBlock: XIVTED_clean_linker_0, # of connection points: 2
#     Edge 161, Type (0, 0), BuildingBlock: XIVTED_clean_linker_0, # of connection points: 2
#     Edge 162, Type (0, 0), BuildingBlock: XIVTED_clean_linker_0, # of connection points: 2
#     Edge 163, Type (0, 0), BuildingBlock: XIVTED_clean_linker_0, # of connection points: 2
#     Edge 164, Type (0, 0), BuildingBlock: XIVTED_clean_linker_0, # of connection points: 2
#     Edge 165, Type (0, 0), BuildingBlock: XIVTED_clean_linker_0, # of connection points: 2
#     Edge 166, Type (0, 0), BuildingBlock: XIVTED_clean_linker_0, # of connection points: 2
#     Edge 167, Type (0, 0), BuildingBlock: XIVTED_clean_linker_0, # of connection points: 2
#     Edge 168, Type (0, 0), BuildingBlock: XIVTED_clean_linker_0, # of connection points: 2
#     Edge 169, Type (0, 0), BuildingBlock: XIVTED_clean_linker_0, # of connection points: 2
#     Edge 170, Type (0, 0), BuildingBlock: XIVTED_clean_linker_0, # of connection points: 2
#     Edge 171, Type (0, 0), BuildingBlock: XIVTED_clean_linker_0, # of connection points: 2
#     Edge 172, Type (0, 0), BuildingBlock: XIVTED_clean_linker_0, # of connection points: 2
#     Edge 173, Type (0, 0), BuildingBlock: XIVTED_clean_linker_0, # of connection points: 2
#     Edge 174, Type (0, 0), BuildingBlock: XIVTED_clean_linker_0, # of connection points: 2
#     Edge 175, Type (0, 0), BuildingBlock: XIVTED_clean_linker_0, # of connection points: 2
#     Edge 176, Type (0, 0), BuildingBlock: XIVTED_clean_linker_0, # of connection points: 2
#     Edge 177, Type (0, 0), BuildingBlock: XIVTED_clean_linker_0, # of connection points: 2
#     Edge 178, Type (0, 0), BuildingBlock: XIVTED_clean_linker_0, # of connection points: 2
#     Edge 179, Type (0, 0), BuildingBlock: XIVTED_clean_linker_0, # of connection points: 2
#     Edge 180, Type (0, 0), BuildingBlock: XIVTED_clean_linker_0, # of connection points: 2
#     Edge 181, Type (0, 0), BuildingBlock: XIVTED_clean_linker_0, # of connection points: 2
#     Edge 182, Type (0, 0), BuildingBlock: XIVTED_clean_linker_0, # of connection points: 2
#     Edge 183, Type (0, 0), BuildingBlock: XIVTED_clean_linker_0, # of connection points: 2
#     Edge 184, Type (0, 0), BuildingBlock: XIVTED_clean_linker_0, # of connection points: 2
#     Edge 185, Type (0, 0), BuildingBlock: XIVTED_clean_linker_0, # of connection points: 2
#     Edge 186, Type (0, 0), BuildingBlock: XIVTED_clean_linker_0, # of connection points: 2
#     Edge 187, Type (0, 0), BuildingBlock: XIVTED_clean_linker_0, # of connection points: 2
#     Edge 188, Type (0, 0), BuildingBlock: XIVTED_clean_linker_0, # of connection points: 2
#     Edge 189, Type (0, 0), BuildingBlock: XIVTED_clean_linker_0, # of connection points: 2
#     Edge 190, Type (0, 0), BuildingBlock: XIVTED_clean_linker_0, # of connection points: 2
#     Edge 191, Type (0, 0), BuildingBlock: XIVTED_clean_linker_0, # of connection points: 2
#     Edge 192, Type (0, 0), BuildingBlock: XIVTED_clean_linker_0, # of connection points: 2
#     Edge 193, Type (0, 0), BuildingBlock: XIVTED_clean_linker_0, # of connection points: 2
#     Edge 194, Type (0, 0), BuildingBlock: XIVTED_clean_linker_0, # of connection points: 2
#     Edge 195, Type (0, 0), BuildingBlock: XIVTED_clean_linker_0, # of connection points: 2
#     Edge 196, Type (0, 0), BuildingBlock: XIVTED_clean_linker_0, # of connection points: 2
#     Edge 197, Type (0, 0), BuildingBlock: XIVTED_clean_linker_0, # of connection points: 2
#     Edge 198, Type (0, 0), BuildingBlock: XIVTED_clean_linker_0, # of connection points: 2
#     Edge 199, Type (0, 0), BuildingBlock: XIVTED_clean_linker_0, # of connection points: 2
#     Edge 200, Type (0, 0), BuildingBlock: XIVTED_clean_linker_0, # of connection points: 2
#     Edge 201, Type (0, 0), BuildingBlock: XIVTED_clean_linker_0, # of connection points: 2
#     Edge 202, Type (0, 0), BuildingBlock: XIVTED_clean_linker_0, # of connection points: 2
#     Edge 203, Type (0, 0), BuildingBlock: XIVTED_clean_linker_0, # of connection points: 2
#     Edge 204, Type (0, 0), BuildingBlock: XIVTED_clean_linker_0, # of connection points: 2
#     Edge 205, Type (0, 0), BuildingBlock: XIVTED_clean_linker_0, # of connection points: 2
#     Edge 206, Type (0, 0), BuildingBlock: XIVTED_clean_linker_0, # of connection points: 2
#     Edge 207, Type (0, 0), BuildingBlock: XIVTED_clean_linker_0, # of connection points: 2
#     Edge 208, Type (0, 0), BuildingBlock: XIVTED_clean_linker_0, # of connection points: 2
#     Edge 209, Type (0, 0), BuildingBlock: XIVTED_clean_linker_0, # of connection points: 2
#     Edge 210, Type (0, 0), BuildingBlock: XIVTED_clean_linker_0, # of connection points: 2
#     Edge 211, Type (0, 0), BuildingBlock: XIVTED_clean_linker_0, # of connection points: 2
#     Edge 212, Type (0, 0), BuildingBlock: XIVTED_clean_linker_0, # of connection points: 2
#     Edge 213, Type (0, 0), BuildingBlock: XIVTED_clean_linker_0, # of connection points: 2
#     Edge 214, Type (0, 0), BuildingBlock: XIVTED_clean_linker_0, # of connection points: 2
#     Edge 215, Type (0, 0), BuildingBlock: XIVTED_clean_linker_0, # of connection points: 2
#     Edge 216, Type (0, 0), BuildingBlock: XIVTED_clean_linker_0, # of connection points: 2
#     Edge 217, Type (0, 0), BuildingBlock: XIVTED_clean_linker_0, # of connection points: 2
#     Edge 218, Type (0, 0), BuildingBlock: XIVTED_clean_linker_0, # of connection points: 2
#     Edge 219, Type (0, 0), BuildingBlock: XIVTED_clean_linker_0, # of connection points: 2
#     Edge 220, Type (0, 0), BuildingBlock: XIVTED_clean_linker_0, # of connection points: 2
#     Edge 221, Type (0, 0), BuildingBlock: XIVTED_clean_linker_0, # of connection points: 2
#     Edge 222, Type (0, 0), BuildingBlock: XIVTED_clean_linker_0, # of connection points: 2
#     Edge 223, Type (0, 0), BuildingBlock: XIVTED_clean_linker_0, # of connection points: 2
#     Edge 224, Type (0, 0), BuildingBlock: XIVTED_clean_linker_0, # of connection points: 2
#     Edge 225, Type (0, 0), BuildingBlock: XIVTED_clean_linker_0, # of connection points: 2
#     Edge 226, Type (0, 0), BuildingBlock: XIVTED_clean_linker_0, # of connection points: 2
#     Edge 227, Type (0, 0), BuildingBlock: XIVTED_clean_linker_0, # of connection points: 2
#     Edge 228, Type (0, 0), BuildingBlock: XIVTED_clean_linker_0, # of connection points: 2
#     Edge 229, Type (0, 0), BuildingBlock: XIVTED_clean_linker_0, # of connection points: 2
#     Edge 230, Type (0, 0), BuildingBlock: XIVTED_clean_linker_0, # of connection points: 2
#     Edge 231, Type (0, 0), BuildingBlock: XIVTED_clean_linker_0, # of connection points: 2
#     Edge 232, Type (0, 0), BuildingBlock: XIVTED_clean_linker_0, # of connection points: 2
#     Edge 233, Type (0, 0), BuildingBlock: XIVTED_clean_linker_0, # of connection points: 2
#     Edge 234, Type (0, 0), BuildingBlock: XIVTED_clean_linker_0, # of connection points: 2
#     Edge 235, Type (0, 0), BuildingBlock: XIVTED_clean_linker_0, # of connection points: 2
#     Edge 236, Type (0, 0), BuildingBlock: XIVTED_clean_linker_0, # of connection points: 2
#     Edge 237, Type (0, 0), BuildingBlock: XIVTED_clean_linker_0, # of connection points: 2
#     Edge 238, Type (0, 0), BuildingBlock: XIVTED_clean_linker_0, # of connection points: 2
#     Edge 239, Type (0, 0), BuildingBlock: XIVTED_clean_linker_0, # of connection points: 2
#     Edge 240, Type (0, 0), BuildingBlock: XIVTED_clean_linker_0, # of connection points: 2
#     Edge 241, Type (0, 0), BuildingBlock: XIVTED_clean_linker_0, # of connection points: 2
#     Edge 242, Type (0, 0), BuildingBlock: XIVTED_clean_linker_0, # of connection points: 2
#     Edge 243, Type (0, 0), BuildingBlock: XIVTED_clean_linker_0, # of connection points: 2
#     Edge 244, Type (0, 0), BuildingBlock: XIVTED_clean_linker_0, # of connection points: 2
#     Edge 245, Type (0, 0), BuildingBlock: XIVTED_clean_linker_0, # of connection points: 2
#     Edge 246, Type (0, 0), BuildingBlock: XIVTED_clean_linker_0, # of connection points: 2
#     Edge 247, Type (0, 0), BuildingBlock: XIVTED_clean_linker_0, # of connection points: 2
#     Edge 248, Type (0, 0), BuildingBlock: XIVTED_clean_linker_0, # of connection points: 2
#     Edge 249, Type (0, 0), BuildingBlock: XIVTED_clean_linker_0, # of connection points: 2
#     Edge 250, Type (0, 0), BuildingBlock: XIVTED_clean_linker_0, # of connection points: 2
#     Edge 251, Type (0, 0), BuildingBlock: XIVTED_clean_linker_0, # of connection points: 2
#     Edge 252, Type (0, 0), BuildingBlock: XIVTED_clean_linker_0, # of connection points: 2
#     Edge 253, Type (0, 0), BuildingBlock: XIVTED_clean_linker_0, # of connection points: 2
#     Edge 254, Type (0, 0), BuildingBlock: XIVTED_clean_linker_0, # of connection points: 2
#     Edge 255, Type (0, 0), BuildingBlock: XIVTED_clean_linker_0, # of connection points: 2
#     Edge 256, Type (0, 0), BuildingBlock: XIVTED_clean_linker_0, # of connection points: 2
#     Edge 257, Type (0, 0), BuildingBlock: XIVTED_clean_linker_0, # of connection points: 2
#     Edge 258, Type (0, 0), BuildingBlock: XIVTED_clean_linker_0, # of connection points: 2
#     Edge 259, Type (0, 0), BuildingBlock: XIVTED_clean_linker_0, # of connection points: 2
#     Edge 260, Type (0, 0), BuildingBlock: XIVTED_clean_linker_0, # of connection points: 2
#     Edge 261, Type (0, 0), BuildingBlock: XIVTED_clean_linker_0, # of connection points: 2
#     Edge 262, Type (0, 0), BuildingBlock: XIVTED_clean_linker_0, # of connection points: 2
#     Edge 263, Type (0, 0), BuildingBlock: XIVTED_clean_linker_0, # of connection points: 2
#     Edge 264, Type (0, 0), BuildingBlock: XIVTED_clean_linker_0, # of connection points: 2
#     Edge 265, Type (0, 0), BuildingBlock: XIVTED_clean_linker_0, # of connection points: 2
#     Edge 266, Type (0, 0), BuildingBlock: XIVTED_clean_linker_0, # of connection points: 2
#     Edge 267, Type (0, 0), BuildingBlock: XIVTED_clean_linker_0, # of connection points: 2
#     Edge 268, Type (0, 0), BuildingBlock: XIVTED_clean_linker_0, # of connection points: 2
#     Edge 269, Type (0, 0), BuildingBlock: XIVTED_clean_linker_0, # of connection points: 2
#     Edge 270, Type (0, 0), BuildingBlock: XIVTED_clean_linker_0, # of connection points: 2
#     Edge 271, Type (0, 0), BuildingBlock: XIVTED_clean_linker_0, # of connection points: 2
#     Edge 272, Type (0, 0), BuildingBlock: XIVTED_clean_linker_0, # of connection points: 2
#     Edge 273, Type (0, 0), BuildingBlock: XIVTED_clean_linker_0, # of connection points: 2
#     Edge 274, Type (0, 0), BuildingBlock: XIVTED_clean_linker_0, # of connection points: 2
#     Edge 275, Type (0, 0), BuildingBlock: XIVTED_clean_linker_0, # of connection points: 2
#     Edge 276, Type (0, 0), BuildingBlock: XIVTED_clean_linker_0, # of connection points: 2
#     Edge 277, Type (0, 0), BuildingBlock: XIVTED_clean_linker_0, # of connection points: 2
#     Edge 278, Type (0, 0), BuildingBlock: XIVTED_clean_linker_0, # of connection points: 2
#     Edge 279, Type (0, 0), BuildingBlock: XIVTED_clean_linker_0, # of connection points: 2
#     Edge 280, Type (0, 0), BuildingBlock: XIVTED_clean_linker_0, # of connection points: 2
#     Edge 281, Type (0, 0), BuildingBlock: XIVTED_clean_linker_0, # of connection points: 2
#     Edge 282, Type (0, 0), BuildingBlock: XIVTED_clean_linker_0, # of connection points: 2
#     Edge 283, Type (0, 0), BuildingBlock: XIVTED_clean_linker_0, # of connection points: 2
#     Edge 284, Type (0, 0), BuildingBlock: XIVTED_clean_linker_0, # of connection points: 2
#     Edge 285, Type (0, 0), BuildingBlock: XIVTED_clean_linker_0, # of connection points: 2
#     Edge 286, Type (0, 0), BuildingBlock: XIVTED_clean_linker_0, # of connection points: 2
#     Edge 287, Type (0, 0), BuildingBlock: XIVTED_clean_linker_0, # of connection points: 2
# Relax obj value: 0.102
# Max RMSD: 0.127
# Mean RMSD: 0.127
data_MOF--net-ukw--node1-QUQFOY_clean_sbu_1--edge1-XIVTED_clean_linker_0
_symmetry_space_group_name_H-M    P1
_symmetry_Int_Tables_number       1
_symmetry_cell_setting            triclinic
loop_
_symmetry_equiv_pos_as_xyz
'x, y, z'
_cell_length_a     77.355485
_cell_length_b     77.34941
_cell_length_c     77.32885
_cell_angle_alpha  90.001604
_cell_angle_beta   89.994808
_cell_angle_gamma 90.006362
loop_
_atom_site_label
_atom_site_type_symbol
_atom_site_fract_x
_atom_site_fract_y
_atom_site_fract_z
_atom_type_partial_charge
O0 O 0.99998 0.09042 0.35544 0.0
Cd1 Cd 0.02083 0.10625 0.3506 0.0
Cd2 Cd 0.03687 0.07824 0.36135 0.0
O3 O 0.01372 0.06546 0.35698 0.0
O4 O 0.01093 0.12463 0.33539 0.0
O5 O 0.02923 0.10472 0.32608 0.0
C6 C 0.01873 0.11723 0.32263 0.0
C7 C 0.06355 0.07377 0.3479 0.0
C8 C 0.99967 0.07401 0.35631 0.0
C9 C 0.03669 0.1086 0.38514 0.0
O10 O 0.0376 0.09224 0.38392 0.0
O11 O 0.03256 0.11767 0.37203 0.0
O12 O 0.05826 0.06356 0.36004 0.0
O13 O 0.05316 0.08578 0.34273 0.0
O14 O 0.15976 0.75031 0.60648 0.0
Cd15 Cd 0.14412 0.77116 0.60125 0.0
Cd16 Cd 0.17224 0.78722 0.6113 0.0
O17 O 0.1848 0.76396 0.60689 0.0
O18 O 0.12569 0.76114 0.58619 0.0
O19 O 0.14583 0.77902 0.57656 0.0
C20 C 0.13326 0.76854 0.57329 0.0
C21 C 0.17722 0.81386 0.59792 0.0
C22 C 0.17618 0.74993 0.60685 0.0
C23 C 0.14222 0.78759 0.6355 0.0
O24 O 0.15857 0.78828 0.63407 0.0
O25 O 0.13296 0.78343 0.62252 0.0
O26 O 0.18736 0.80827 0.60998 0.0
O27 O 0.16495 0.80376 0.59276 0.0
O28 O 0.50313 0.91239 0.85328 0.0
Cd29 Cd 0.48256 0.89618 0.84846 0.0
Cd30 Cd 0.46591 0.92386 0.85845 0.0
O31 O 0.48878 0.93704 0.85382 0.0
O32 O 0.49266 0.87786 0.83334 0.0
O33 O 0.47414 0.89754 0.82395 0.0
C34 C 0.48477 0.88512 0.82056 0.0
C35 C 0.43901 0.92811 0.84534 0.0
C36 C 0.50305 0.92882 0.85364 0.0
C37 C 0.46653 0.89405 0.88285 0.0
O38 O 0.46541 0.91037 0.88133 0.0
O39 O 0.47083 0.88482 0.86991 0.0
O40 O 0.44452 0.9385 0.85722 0.0
O41 O 0.4493 0.91601 0.84018 0.0
O42 O 0.34151 0.25459 0.10457 0.0
Cd43 Cd 0.35766 0.23393 0.10004 0.0
Cd44 Cd 0.32984 0.21754 0.11051 0.0
O45 O 0.31675 0.24045 0.10571 0.0
O46 O 0.37626 0.24383 0.08508 0.0
O47 O 0.35651 0.22548 0.07551 0.0
C48 C 0.3691 0.23594 0.07225 0.0
C49 C 0.32636 0.19064 0.09718 0.0
C50 C 0.32509 0.25464 0.10515 0.0
C51 C 0.35973 0.21833 0.13472 0.0
O52 O 0.3434 0.21727 0.13332 0.0
O53 O 0.36891 0.2224 0.12166 0.0
O54 O 0.31571 0.19578 0.109 0.0
O55 O 0.33823 0.20129 0.09222 0.0
O56 O 1.00143 0.91343 0.15062 0.0
Cd57 Cd 0.02192 0.89708 0.15536 0.0
Cd58 Cd 0.03871 0.92467 0.14531 0.0
O59 O 0.01594 0.93798 0.15002 0.0
O60 O 0.01171 0.87848 0.17007 0.0
O61 O 0.03006 0.89806 0.18001 0.0
C62 C 0.0195 0.8855 0.18304 0.0
C63 C 0.06559 0.92831 0.15859 0.0
C64 C 1.00162 0.92986 0.15026 0.0
C65 C 0.03794 0.89496 0.1209 0.0
O66 O 0.0391 0.91128 0.12237 0.0
O67 O 0.03364 0.88577 0.13387 0.0
O68 O 0.06034 0.93893 0.14678 0.0
O69 O 0.05505 0.91636 0.16359 0.0
O70 O 0.34498 0.7506 0.39777 0.0
Cd71 Cd 0.3606 0.77148 0.40302 0.0
Cd72 Cd 0.33241 0.7875 0.39286 0.0
O73 O 0.3199 0.76418 0.39707 0.0
O74 O 0.3789 0.76158 0.41834 0.0
O75 O 0.35868 0.77958 0.4276 0.0
C76 C 0.37121 0.76913 0.43109 0.0
C77 C 0.32748 0.81398 0.40654 0.0
C78 C 0.32857 0.75018 0.39722 0.0
C79 C 0.3626 0.78787 0.36879 0.0
O80 O 0.34625 0.78863 0.3702 0.0
O81 O 0.37185 0.78366 0.38176 0.0
O82 O 0.31735 0.8086 0.39437 0.0
O83 O 0.3397 0.80378 0.41158 0.0
O84 O 0.50486 0.09222 0.64949 0.0
Cd85 Cd 0.48444 0.10869 0.65399 0.0
Cd86 Cd 0.46764 0.08106 0.64381 0.0
O87 O 0.49033 0.06768 0.64867 0.0
O88 O 0.49468 0.12705 0.66898 0.0
O89 O 0.47586 0.10771 0.67848 0.0
C90 C 0.48661 0.12003 0.68179 0.0
C91 C 0.44072 0.07741 0.65699 0.0
C92 C 0.50465 0.07579 0.64909 0.0
C93 C 0.46881 0.11083 0.61939 0.0
O94 O 0.46748 0.09453 0.62092 0.0
O95 O 0.47309 0.12005 0.63235 0.0
O96 O 0.44598 0.06684 0.64514 0.0
O97 O 0.45125 0.08934 0.66204 0.0
O98 O 0.16264 0.25361 0.8996 0.0
Cd99 Cd 0.14614 0.23326 0.90436 0.0
Cd100 Cd 0.17378 0.21636 0.89415 0.0
O101 O 0.18719 0.23911 0.89869 0.0
O102 O 0.12787 0.24372 0.91934 0.0
O103 O 0.1472 0.22496 0.92894 0.0
C104 C 0.13494 0.2358 0.93221 0.0
C105 C 0.17729 0.18957 0.90766 0.0
C106 C 0.17906 0.25342 0.89907 0.0
C107 C 0.14387 0.21724 0.86988 0.0
O108 O 0.16018 0.21596 0.87135 0.0
O109 O 0.1347 0.22164 0.88285 0.0
O110 O 0.18786 0.1946 0.89571 0.0
O111 O 0.16548 0.20027 0.91263 0.0
O112 O 0.3545 1.00104 0.09219 0.0
Cd113 Cd 0.34975 0.02155 0.10849 0.0
Cd114 Cd 0.36014 0.03826 0.08085 0.0
O115 O 0.35549 0.01543 0.06757 0.0
O116 O 0.33471 0.01145 0.12691 0.0
O117 O 0.32521 0.02991 0.10723 0.0
C118 C 0.32191 0.01934 0.11971 0.0
C119 C 0.34677 0.06513 0.07731 0.0
C120 C 0.35506 1.00115 0.07576 0.0
C121 C 0.38428 0.03739 0.11082 0.0
O122 O 0.38291 0.03857 0.09449 0.0
O123 O 0.37123 0.03315 0.11994 0.0
O124 O 0.35867 0.06003 0.06673 0.0
O125 O 0.34176 0.05447 0.08915 0.0
O126 O 0.25325 0.10612 0.34433 0.0
Cd127 Cd 0.23367 0.10125 0.36145 0.0
Cd128 Cd 0.21439 0.1079 0.3335 0.0
O129 O 0.23785 0.10606 0.32025 0.0
O130 O 0.24428 0.08652 0.37976 0.0
O131 O 0.22551 0.07673 0.36045 0.0
C132 C 0.23637 0.0736 0.37274 0.0
C133 C 0.18879 0.09268 0.32822 0.0
C134 C 0.25243 0.1065 0.32793 0.0
C135 C 0.21309 0.13341 0.36299 0.0
O136 O 0.21008 0.13031 0.34713 0.0
O137 O 0.22138 0.12257 0.37219 0.0
O138 O 0.19361 0.10514 0.31819 0.0
O139 O 0.19929 0.08794 0.34031 0.0
O140 O 0.14909 0.00448 0.59658 0.0
Cd141 Cd 0.15388 0.9848 0.61362 0.0
Cd142 Cd 0.14696 0.96558 0.58567 0.0
O143 O 0.14885 0.98909 0.5725 0.0
O144 O 0.16901 0.99506 0.63181 0.0
O145 O 0.17823 0.97618 0.61231 0.0
C146 C 0.1817 0.98692 0.62462 0.0
C147 C 0.16157 0.93975 0.57976 0.0
C148 C 0.14857 0.00367 0.58018 0.0
C149 C 0.12164 0.96439 0.61536 0.0
O150 O 0.12467 0.96134 0.5995 0.0
O151 O 0.13252 0.9727 0.6245 0.0
O152 O 0.14904 0.94497 0.57003 0.0
O153 O 0.16677 0.95 0.59188 0.0
O154 O 0.25187 0.89843 0.84821 0.0
Cd155 Cd 0.27368 0.90527 0.86167 0.0
Cd156 Cd 0.28686 0.89594 0.8324 0.0
O157 O 0.26257 0.90111 0.82197 0.0
O158 O 0.26493 0.92055 0.88063 0.0
O159 O 0.28023 0.93014 0.85844 0.0
C160 C 0.27103 0.93344 0.87196 0.0
C161 C 0.3134 0.90931 0.82705 0.0
C162 C 0.24959 0.89925 0.83196 0.0
C163 C 0.29012 0.87156 0.86204 0.0
O164 O 0.28849 0.87295 0.84573 0.0
O165 O 0.28772 0.88468 0.8717 0.0
O166 O 0.30735 0.89785 0.81648 0.0
O167 O 0.30377 0.91396 0.83986 0.0
O168 O 0.35733 0.00393 0.4105 0.0
Cd169 Cd 0.35198 0.98456 0.3933 0.0
Cd170 Cd 0.35926 0.96492 0.4209 0.0
O171 O 0.35784 0.98827 0.4344 0.0
O172 O 0.3365 0.9953 0.3757 0.0
O173 O 0.32761 0.97611 0.39503 0.0
C174 C 0.32392 0.98716 0.38307 0.0
C175 C 0.34436 0.93925 0.42667 0.0
C176 C 0.35812 0.00293 0.42688 0.0
C177 C 0.38393 0.96383 0.39064 0.0
O178 O 0.3812 0.96062 0.40653 0.0
O179 O 0.37297 0.97236 0.38183 0.0
O180 O 0.35714 0.94412 0.43626 0.0
O181 O 0.33913 0.94975 0.41479 0.0
O182 O 0.25165 0.10608 0.66206 0.0
Cd183 Cd 0.27227 0.10068 0.64608 0.0
Cd184 Cd 0.28879 0.11166 0.67347 0.0
O185 O 0.26593 0.10727 0.68673 0.0
O186 O 0.26218 0.08524 0.62801 0.0
O187 O 0.28033 0.0761 0.64816 0.0
C188 C 0.26984 0.07255 0.63568 0.0
C189 C 0.31562 0.09845 0.67759 0.0
C190 C 0.25169 0.10686 0.67848 0.0
C191 C 0.28839 0.13497 0.64293 0.0
O192 O 0.28924 0.13411 0.65931 0.0
O193 O 0.28427 0.12166 0.63414 0.0
O194 O 0.31037 0.11057 0.68785 0.0
O195 O 0.30511 0.09314 0.66575 0.0
O196 O 0.14885 1.00031 0.91251 0.0
Cd197 Cd 0.15408 0.0209 0.89643 0.0
Cd198 Cd 0.14344 0.03751 0.92401 0.0
O199 O 0.1477 0.01457 0.9372 0.0
O200 O 0.16928 0.01081 0.87813 0.0
O201 O 0.17869 0.029 0.89811 0.0
C202 C 0.18206 0.01855 0.88555 0.0
C203 C 0.15697 0.06424 0.92785 0.0
C204 C 0.14806 1.00034 0.92893 0.0
C205 C 0.11978 0.03718 0.89371 0.0
O206 O 0.12086 0.03814 0.91007 0.0
O207 O 0.13294 0.0329 0.88477 0.0
O208 O 0.14491 0.05917 0.93827 0.0
O209 O 0.16206 0.05359 0.91603 0.0
O210 O 0.25478 0.89975 0.16289 0.0
Cd211 Cd 0.23401 0.90455 0.14692 0.0
Cd212 Cd 0.2177 0.89418 0.17477 0.0
O213 O 0.2407 0.89896 0.1877 0.0
O214 O 0.24371 0.91981 0.12846 0.0
O215 O 0.22555 0.92902 0.14858 0.0
C216 C 0.23588 0.9325 0.13594 0.0
C217 C 0.1908 0.90732 0.17886 0.0
C218 C 0.25488 0.8993 0.17932 0.0
C219 C 0.21813 0.87005 0.1448 0.0
O220 O 0.21725 0.8714 0.16115 0.0
O221 O 0.22219 0.88311 0.13562 0.0
O222 O 0.19622 0.89546 0.18933 0.0
O223 O 0.20118 0.91243 0.16681 0.0
O224 O 0.09366 0.35536 1.00112 0.0
Cd225 Cd 0.10987 0.35043 0.02167 0.0
Cd226 Cd 0.0824 0.36105 0.03827 0.0
O227 O 0.06904 0.35635 0.01552 0.0
O228 O 0.12828 0.33548 0.01146 0.0
O229 O 0.10852 0.32578 0.02976 0.0
C230 C 0.12104 0.32259 0.01919 0.0
C231 C 0.07876 0.34804 0.06529 0.0
C232 C 0.07723 0.35594 1.00123 0.0
C233 C 0.11248 0.38493 0.0375 0.0
O234 O 0.09613 0.38377 0.03847 0.0
O235 O 0.12148 0.37175 0.03342 0.0
O236 O 0.06825 0.35992 0.05999 0.0
O237 O 0.09057 0.34279 0.05471 0.0
O238 O 0.59199 0.14897 0.0035 0.0
Cd239 Cd 0.60827 0.15383 0.98298 0.0
Cd240 Cd 0.58057 0.14329 0.96634 0.0
O241 O 0.56732 0.14774 0.98922 0.0
O242 O 0.62663 0.16876 0.99333 0.0
O243 O 0.60715 0.17843 0.97476 0.0
C244 C 0.61952 0.18165 0.98548 0.0
C245 C 0.57695 0.1569 0.93962 0.0
C246 C 0.57557 0.14826 0.00346 0.0
C247 C 0.61072 0.11939 0.96685 0.0
O248 O 0.59437 0.12062 0.96579 0.0
O249 O 0.61975 0.13247 0.97117 0.0
O250 O 0.56644 0.14489 0.94462 0.0
O251 O 0.58876 0.16188 0.95034 0.0
O252 O 0.10635 0.34849 0.25513 0.0
Cd253 Cd 0.10107 0.36417 0.23427 0.0
Cd254 Cd 0.11167 0.33625 0.21815 0.0
O255 O 0.10726 0.32353 0.24135 0.0
O256 O 0.08538 0.38225 0.24402 0.0
O257 O 0.07662 0.36195 0.22588 0.0
C258 C 0.07283 0.37445 0.23626 0.0
C259 C 0.09849 0.3316 0.19134 0.0
C260 C 0.107 0.33208 0.25543 0.0
C261 C 0.13539 0.36661 0.2181 0.0
O262 O 0.13423 0.35024 0.21741 0.0
O263 O 0.12225 0.37568 0.22216 0.0
O264 O 0.11058 0.32142 0.19683 0.0
O265 O 0.0932 0.34365 0.20161 0.0
O266 O 0.90633 0.85639 0.50453 0.0
Cd267 Cd 0.89107 0.85108 0.48338 0.0
Cd268 Cd 0.91915 0.86175 0.46776 0.0
O269 O 0.93149 0.85714 0.49111 0.0
O270 O 0.87287 0.83523 0.49263 0.0
O271 O 0.89378 0.82667 0.47507 0.0
C272 C 0.88104 0.82277 0.48511 0.0
C273 C 0.92425 0.84872 0.44098 0.0
C274 C 0.92274 0.85691 0.50506 0.0
C275 C 0.8888 0.8854 0.4673 0.0
O276 O 0.90518 0.8843 0.46695 0.0
O277 O 0.87969 0.8722 0.47107 0.0
O278 O 0.93436 0.86075 0.44671 0.0
O279 O 0.91199 0.84341 0.45099 0.0
O280 O 0.89954 0.15917 0.25482 0.0
Cd281 Cd 0.90427 0.14337 0.23394 0.0
Cd282 Cd 0.89441 0.17151 0.21787 0.0
O283 O 0.89919 0.18414 0.24102 0.0
O284 O 0.91908 0.12457 0.24365 0.0
O285 O 0.92888 0.14465 0.22577 0.0
C286 C 0.932 0.13187 0.23603 0.0
C287 C 0.9078 0.17573 0.19112 0.0
C288 C 0.8993 0.1756 0.25511 0.0
C289 C 0.86982 0.14187 0.21795 0.0
O290 O 0.87144 0.1582 0.21717 0.0
O291 O 0.88272 0.13246 0.22198 0.0
O292 O 0.89599 0.18625 0.19654 0.0
O293 O 0.91271 0.16354 0.20142 0.0
O294 O 0.41011 0.64801 0.49974 0.0
Cd295 Cd 0.39368 0.65339 0.51977 0.0
Cd296 Cd 0.42187 0.64593 0.53839 0.0
O297 O 0.43453 0.64718 0.51457 0.0
O298 O 0.37548 0.66857 0.50962 0.0
O299 O 0.39549 0.67791 0.52788 0.0
C300 C 0.38299 0.68132 0.51735 0.0
C301 C 0.42882 0.66075 0.56382 0.0
C302 C 0.4265 0.64701 0.50017 0.0
C303 C 0.39166 0.62132 0.5405 0.0
O304 O 0.40763 0.62401 0.54323 0.0
O305 O 0.38262 0.63235 0.53227 0.0
O306 O 0.43811 0.64792 0.55851 0.0
O307 O 0.41652 0.66608 0.55386 0.0
O308 O 0.10619 0.65961 0.25082 0.0
Cd309 Cd 0.10093 0.64246 0.27027 0.0
Cd310 Cd 0.10824 0.67008 0.28991 0.0
O311 O 0.1069 0.6835 0.26649 0.0
O312 O 0.08549 0.62469 0.25973 0.0
O313 O 0.07656 0.64418 0.27875 0.0
C314 C 0.07291 0.63205 0.26787 0.0
C315 C 0.09331 0.67603 0.31555 0.0
C316 C 0.10709 0.67598 0.25182 0.0
C317 C 0.13293 0.63985 0.29096 0.0
O318 O 0.13017 0.6557 0.29427 0.0
O319 O 0.12199 0.63106 0.28237 0.0
O320 O 0.10615 0.68554 0.31066 0.0
O321 O 0.08805 0.66412 0.30509 0.0
O322 O 0.39989 0.34365 0.75024 0.0
Cd323 Cd 0.40513 0.35962 0.77089 0.0
Cd324 Cd 0.39417 0.33211 0.78734 0.0
O325 O 0.39868 0.31893 0.76443 0.0
O326 O 0.42076 0.37763 0.76094 0.0
O327 O 0.42962 0.35743 0.77917 0.0
C328 C 0.43334 0.36988 0.7687 0.0
C329 C 0.40721 0.32811 0.8143 0.0
C330 C 0.39914 0.32723 0.75021 0.0
C331 C 0.37071 0.36257 0.78681 0.0
O332 O 0.37167 0.3462 0.78766 0.0
O333 O 0.38399 0.37145 0.78278 0.0
O334 O 0.39518 0.31779 0.80898 0.0
O335 O 0.41256 0.33993 0.80377 0.0
O336 O 1.00156 0.90717 0.6481 0.0
Cd337 Cd 0.97993 0.89354 0.65515 0.0
Cd338 Cd 0.96649 0.92287 0.6459 0.0
O339 O 0.9908 0.93336 0.65092 0.0
O340 O 0.98902 0.87488 0.67065 0.0
O341 O 0.97339 0.89692 0.67999 0.0
C342 C 0.98284 0.88363 0.68346 0.0
C343 C 0.94012 0.92791 0.65971 0.0
C344 C 0.0038 0.92342 0.64895 0.0
C345 C 0.96304 0.89314 0.62162 0.0
O346 O 0.96465 0.90944 0.62298 0.0
O347 O 0.96566 0.88348 0.63471 0.0
O348 O 0.94584 0.93858 0.64816 0.0
O349 O 0.94997 0.9152 0.66415 0.0
O350 O 0.8486 0.25259 0.39822 0.0
Cd351 Cd 0.86205 0.23098 0.4056 0.0
Cd352 Cd 0.83297 0.21752 0.39561 0.0
O353 O 0.82237 0.24181 0.40058 0.0
O354 O 0.88045 0.24017 0.42134 0.0
O355 O 0.85827 0.2246 0.43045 0.0
C356 C 0.87151 0.23407 0.43406 0.0
C357 C 0.82799 0.19112 0.40941 0.0
C358 C 0.83234 0.25481 0.39879 0.0
C359 C 0.86326 0.21421 0.37204 0.0
O360 O 0.84693 0.21583 0.37298 0.0
O361 O 0.87258 0.21674 0.38539 0.0
O362 O 0.81742 0.19671 0.39771 0.0
O363 O 0.84055 0.20111 0.41397 0.0
O364 O 0.49992 0.09266 0.14928 0.0
Cd365 Cd 0.52039 0.10898 0.15406 0.0
Cd366 Cd 0.53711 0.08125 0.14414 0.0
O367 O 0.51428 0.06801 0.14884 0.0
O368 O 0.51003 0.12758 0.16867 0.0
O369 O 0.52828 0.108 0.17878 0.0
C370 C 0.51763 0.1205 0.18173 0.0
C371 C 0.56393 0.07778 0.15759 0.0
C372 C 0.50002 0.07623 0.14901 0.0
C373 C 0.53647 0.1109 0.11962 0.0
O374 O 0.53755 0.09459 0.12118 0.0
O375 O 0.53222 0.12018 0.13255 0.0
O376 O 0.5588 0.0671 0.14578 0.0
O377 O 0.55329 0.08969 0.16249 0.0
O378 O 0.66056 0.74991 0.89863 0.0
Cd379 Cd 0.64451 0.77052 0.90373 0.0
Cd380 Cd 0.67223 0.78702 0.8935 0.0
O381 O 0.6853 0.76411 0.89817 0.0
O382 O 0.62625 0.76053 0.91903 0.0
O383 O 0.64636 0.77866 0.9283 0.0
C384 C 0.63384 0.76818 0.93177 0.0
C385 C 0.67625 0.81395 0.90658 0.0
C386 C 0.67699 0.74989 0.89829 0.0
C387 C 0.64228 0.78666 0.86938 0.0
O388 O 0.65863 0.78747 0.87071 0.0
O389 O 0.63311 0.78257 0.88244 0.0
O390 O 0.68672 0.80852 0.89472 0.0
O391 O 0.66425 0.80355 0.91175 0.0
O392 O 0.00433 0.09343 0.8558 0.0
Cd393 Cd 0.98403 0.10991 0.85072 0.0
Cd394 Cd 0.96701 0.0827 0.86159 0.0
O395 O 0.98962 0.06904 0.85717 0.0
O396 O 0.99449 0.12784 0.83537 0.0
O397 O 0.97563 0.10838 0.82619 0.0
C398 C 0.98647 0.12058 0.82267 0.0
C399 C 0.9401 0.07884 0.84844 0.0
C400 C 0.004 0.07702 0.85662 0.0
C401 C 0.96816 0.11313 0.88514 0.0
O402 O 0.96683 0.09679 0.88411 0.0
O403 O 0.97252 0.12194 0.87193 0.0
O404 O 0.94525 0.06859 0.86061 0.0
O405 O 0.95074 0.09055 0.84307 0.0
O406 O 0.66143 0.25477 0.60442 0.0
Cd407 Cd 0.64527 0.23416 0.59958 0.0
Cd408 Cd 0.67286 0.21768 0.61051 0.0
O409 O 0.68609 0.2405 0.60587 0.0
O410 O 0.62716 0.24413 0.58409 0.0
O411 O 0.64694 0.2255 0.57516 0.0
C412 C 0.63458 0.23609 0.57149 0.0
C413 C 0.67691 0.19079 0.59741 0.0
C414 C 0.67785 0.25474 0.6052 0.0
C415 C 0.6425 0.21843 0.63416 0.0
O416 O 0.65885 0.21739 0.63308 0.0
O417 O 0.63357 0.22257 0.62095 0.0
O418 O 0.68721 0.19608 0.60947 0.0
O419 O 0.66505 0.20128 0.59211 0.0
O420 O 0.5031 0.90599 0.35612 0.0
Cd421 Cd 0.52483 0.89241 0.34926 0.0
Cd422 Cd 0.53821 0.92168 0.35839 0.0
O423 O 0.51393 0.93215 0.35327 0.0
O424 O 0.51602 0.87344 0.33399 0.0
O425 O 0.53131 0.89562 0.32436 0.0
C426 C 0.52212 0.8821 0.32108 0.0
C427 C 0.56468 0.92681 0.34477 0.0
C428 C 0.50091 0.92225 0.35522 0.0
C429 C 0.54156 0.8922 0.38291 0.0
O430 O 0.53997 0.9085 0.38146 0.0
O431 O 0.539 0.88248 0.36985 0.0
O432 O 0.55875 0.93751 0.35619 0.0
O433 O 0.55496 0.914 0.34032 0.0
O434 O 0.84327 0.75162 0.10599 0.0
Cd435 Cd 0.85948 0.77211 0.10077 0.0
Cd436 Cd 0.83218 0.78888 0.11151 0.0
O437 O 0.81874 0.76614 0.10706 0.0
O438 O 0.8777 0.76189 0.0856 0.0
O439 O 0.85783 0.78019 0.07614 0.0
C440 C 0.87033 0.76964 0.0728 0.0
C441 C 0.8283 0.81579 0.09839 0.0
C442 C 0.82685 0.75181 0.10669 0.0
C443 C 0.86246 0.78814 0.13514 0.0
O444 O 0.84611 0.78919 0.13412 0.0
O445 O 0.87132 0.78393 0.12191 0.0
O446 O 0.81794 0.81053 0.11041 0.0
O447 O 0.84012 0.80523 0.0931 0.0
O448 O 0.64819 0.00357 0.9108 0.0
Cd449 Cd 0.65346 0.98319 0.89448 0.0
Cd450 Cd 0.64261 0.96626 0.92171 0.0
O451 O 0.64692 0.98896 0.93527 0.0
O452 O 0.66889 0.9936 0.87659 0.0
O453 O 0.678 0.97492 0.89625 0.0
C454 C 0.68157 0.98571 0.88402 0.0
C455 C 0.65567 0.93935 0.92591 0.0
C456 C 0.64737 0.00331 0.92722 0.0
C457 C 0.61914 0.96713 0.89121 0.0
O458 O 0.62013 0.96592 0.90757 0.0
O459 O 0.63237 0.97148 0.88242 0.0
O460 O 0.6435 0.94467 0.93606 0.0
O461 O 0.66112 0.94984 0.9141 0.0
O462 O 0.75101 0.9003 0.6621 0.0
Cd463 Cd 0.77173 0.90541 0.64613 0.0
Cd464 Cd 0.7882 0.89478 0.67382 0.0
O465 O 0.76518 0.89902 0.68684 0.0
O466 O 0.7619 0.92069 0.62777 0.0
O467 O 0.78005 0.92993 0.64786 0.0
C468 C 0.76972 0.9334 0.63523 0.0
C469 C 0.81478 0.90846 0.67807 0.0
C470 C 0.75097 0.89946 0.67852 0.0
C471 C 0.78802 0.87109 0.6435 0.0
O472 O 0.78901 0.8722 0.65986 0.0
O473 O 0.78368 0.88422 0.63455 0.0
O474 O 0.80965 0.89633 0.68837 0.0
O475 O 0.8043 0.91347 0.66608 0.0
O476 O 0.85206 1.00109 0.41013 0.0
Cd477 Cd 0.84775 0.022 0.39426 0.0
Cd478 Cd 0.85726 0.03815 0.42232 0.0
O479 O 0.85192 0.01512 0.43496 0.0
O480 O 0.83264 0.01251 0.37561 0.0
O481 O 0.82339 0.03076 0.39562 0.0
C482 C 0.81993 0.0204 0.38299 0.0
C483 C 0.84447 0.06515 0.42687 0.0
C484 C 0.85188 1.00095 0.42656 0.0
C485 C 0.88233 0.03768 0.39309 0.0
O486 O 0.88049 0.03858 0.4094 0.0
O487 O 0.86953 0.03367 0.38353 0.0
O488 O 0.85585 0.05913 0.43753 0.0
O489 O 0.83962 0.05533 0.41426 0.0
O490 O 0.75346 0.10498 0.16266 0.0
Cd491 Cd 0.73291 0.10045 0.14637 0.0
Cd492 Cd 0.71637 0.11091 0.17407 0.0
O493 O 0.73916 0.10608 0.18733 0.0
O494 O 0.74317 0.08586 0.12769 0.0
O495 O 0.72478 0.07578 0.14716 0.0
C496 C 0.73541 0.07283 0.13464 0.0
C497 C 0.6895 0.09756 0.17755 0.0
C498 C 0.7534 0.10551 0.17909 0.0
C499 C 0.71721 0.13511 0.1442 0.0
O500 O 0.71608 0.13376 0.16053 0.0
O501 O 0.72137 0.12204 0.13508 0.0
O502 O 0.69463 0.10941 0.18818 0.0
O503 O 0.70015 0.09257 0.16569 0.0
O504 O 0.65118 1.00117 0.59447 0.0
Cd505 Cd 0.65575 0.022 0.61045 0.0
Cd506 Cd 0.64499 0.03815 0.58265 0.0
O507 O 0.64997 0.01524 0.56968 0.0
O508 O 0.67087 0.01232 0.629 0.0
O509 O 0.6802 0.03057 0.60903 0.0
C510 C 0.68361 0.02023 0.62168 0.0
C511 C 0.65814 0.06504 0.5787 0.0
C512 C 0.65061 1.00107 0.57804 0.0
C513 C 0.62109 0.03756 0.61277 0.0
O514 O 0.62227 0.03843 0.5964 0.0
O515 O 0.63427 0.03362 0.62182 0.0
O516 O 0.64624 0.0597 0.56823 0.0
O517 O 0.66324 0.05459 0.59069 0.0
O518 O 0.75372 0.9001 0.34251 0.0
Cd519 Cd 0.73276 0.90497 0.35822 0.0
Cd520 Cd 0.71675 0.89417 0.33038 0.0
O521 O 0.73986 0.89874 0.31761 0.0
O522 O 0.74225 0.9203 0.37673 0.0
O523 O 0.72432 0.92946 0.3564 0.0
C524 C 0.73447 0.93297 0.36916 0.0
C525 C 0.68999 0.90742 0.32584 0.0
C526 C 0.75396 0.89933 0.32609 0.0
C527 C 0.71682 0.87045 0.36065 0.0
O528 O 0.71606 0.87154 0.34428 0.0
O529 O 0.72087 0.88364 0.36965 0.0
O530 O 0.69547 0.89541 0.31557 0.0
O531 O 0.70024 0.91258 0.33797 0.0
O532 O 0.85626 0.00515 0.09376 0.0
Cd533 Cd 0.85117 0.98463 0.10996 0.0
Cd534 Cd 0.86218 0.96799 0.08255 0.0
O535 O 0.85778 0.99077 0.06916 0.0
O536 O 0.83573 0.99484 0.12798 0.0
O537 O 0.82666 0.97623 0.10824 0.0
C538 C 0.82307 0.98691 0.12055 0.0
C539 C 0.84911 0.94108 0.0784 0.0
C540 C 0.85716 0.00504 0.07734 0.0
C541 C 0.88563 0.96876 0.11305 0.0
O542 O 0.88465 0.96767 0.09669 0.0
O543 O 0.87238 0.97297 0.12188 0.0
O544 O 0.86124 0.94639 0.06819 0.0
O545 O 0.84371 0.95158 0.09022 0.0
O546 O 0.75042 0.10543 0.84347 0.0
Cd547 Cd 0.77089 0.1005 0.85978 0.0
Cd548 Cd 0.7876 0.11101 0.83225 0.0
O549 O 0.76485 0.10646 0.81887 0.0
O550 O 0.76061 0.08562 0.87821 0.0
O551 O 0.77898 0.07585 0.85857 0.0
C552 C 0.76837 0.0727 0.87106 0.0
C553 C 0.81445 0.09771 0.82861 0.0
C554 C 0.75056 0.10605 0.82704 0.0
C555 C 0.78689 0.13497 0.8623 0.0
O556 O 0.78796 0.13374 0.84596 0.0
O557 O 0.78266 0.12185 0.87133 0.0
O558 O 0.80931 0.10966 0.8181 0.0
O559 O 0.80381 0.09259 0.84043 0.0
O560 O 0.91122 0.65047 0.00389 0.0
Cd561 Cd 0.89484 0.65514 0.98342 0.0
Cd562 Cd 0.92261 0.64511 0.96669 0.0
O563 O 0.93585 0.64981 0.9895 0.0
O564 O 0.87648 0.67014 0.9937 0.0
O565 O 0.89595 0.67967 0.97503 0.0
C566 C 0.88362 0.68297 0.98578 0.0
C567 C 0.92632 0.65853 0.93989 0.0
C568 C 0.92764 0.65011 0.00378 0.0
C569 C 0.89283 0.62069 0.96739 0.0
O570 O 0.90915 0.62223 0.96624 0.0
O571 O 0.88357 0.63361 0.97171 0.0
O572 O 0.93689 0.64665 0.94506 0.0
O573 O 0.91438 0.66348 0.95047 0.0
O574 O 0.41148 0.85611 0.99919 0.0
Cd575 Cd 0.39555 0.85114 0.01993 0.0
Cd576 Cd 0.42332 0.86151 0.03626 0.0
O577 O 0.43629 0.85684 0.01326 0.0
O578 O 0.37714 0.83597 0.01004 0.0
O579 O 0.39728 0.82655 0.02806 0.0
C580 C 0.38467 0.82318 0.01767 0.0
C581 C 0.42746 0.84836 0.06315 0.0
C582 C 0.4279 0.85656 0.99908 0.0
C583 C 0.39332 0.88559 0.03594 0.0
O584 O 0.40967 0.88428 0.03678 0.0
O585 O 0.38418 0.8725 0.03187 0.0
O586 O 0.4379 0.86024 0.05771 0.0
O587 O 0.41541 0.84323 0.05278 0.0
O588 O 0.89962 0.66216 0.75055 0.0
Cd589 Cd 0.90434 0.64619 0.77135 0.0
Cd590 Cd 0.89337 0.67388 0.78758 0.0
O591 O 0.8981 0.68692 0.76466 0.0
O592 O 0.91942 0.62763 0.76161 0.0
O593 O 0.92885 0.64759 0.7798 0.0
C594 C 0.93219 0.6349 0.7695 0.0
C595 C 0.90669 0.67785 0.81438 0.0
C596 C 0.89883 0.67858 0.75048 0.0
C597 C 0.86972 0.6436 0.7871 0.0
O598 O 0.87076 0.65997 0.788 0.0
O599 O 0.88295 0.63467 0.78305 0.0
O600 O 0.89468 0.68825 0.80916 0.0
O601 O 0.91181 0.66594 0.80385 0.0
O602 O 0.09253 0.14782 0.50044 0.0
Cd603 Cd 0.10896 0.15269 0.5208 0.0
Cd604 Cd 0.08122 0.14273 0.53775 0.0
O605 O 0.06793 0.14721 0.51489 0.0
O606 O 0.1272 0.16776 0.51037 0.0
O607 O 0.10772 0.17727 0.52904 0.0
C608 C 0.12 0.1806 0.51824 0.0
C609 C 0.07763 0.15631 0.56451 0.0
C610 C 0.0761 0.14742 0.50059 0.0
C611 C 0.11102 0.11833 0.53714 0.0
O612 O 0.09471 0.11987 0.53834 0.0
O613 O 0.12025 0.13122 0.53265 0.0
O614 O 0.06703 0.1444 0.55945 0.0
O615 O 0.08951 0.16121 0.55385 0.0
O616 O 0.10538 0.8448 0.7508 0.0
Cd617 Cd 0.10019 0.86159 0.77057 0.0
Cd618 Cd 0.10758 0.83374 0.78967 0.0
O619 O 0.10593 0.82066 0.76608 0.0
O620 O 0.08493 0.87965 0.7603 0.0
O621 O 0.07576 0.8599 0.77894 0.0
C622 C 0.07226 0.87226 0.76828 0.0
C623 C 0.09291 0.82761 0.8154 0.0
C624 C 0.10615 0.82841 0.75152 0.0
C625 C 0.13235 0.86384 0.79106 0.0
O626 O 0.12965 0.8479 0.79402 0.0
O627 O 0.12129 0.87279 0.7828 0.0
O628 O 0.10556 0.81802 0.81021 0.0
O629 O 0.08764 0.83972 0.80518 0.0
O630 O 0.59396 0.35409 0.50243 0.0
Cd631 Cd 0.60992 0.34943 0.48164 0.0
Cd632 Cd 0.58209 0.35961 0.46536 0.0
O633 O 0.56916 0.35473 0.48835 0.0
O634 O 0.62857 0.33454 0.49147 0.0
O635 O 0.60861 0.32485 0.47339 0.0
C636 C 0.62128 0.32166 0.48376 0.0
C637 C 0.57803 0.34641 0.43848 0.0
C638 C 0.57753 0.35441 0.50253 0.0
C639 C 0.61185 0.38396 0.46578 0.0
O640 O 0.59552 0.38253 0.46488 0.0
O641 O 0.62108 0.37094 0.46985 0.0
O642 O 0.56749 0.35818 0.44395 0.0
O643 O 0.59017 0.34141 0.44881 0.0
O644 O 0.89873 0.34333 0.75368 0.0
Cd645 Cd 0.90393 0.35983 0.73343 0.0
Cd646 Cd 0.89338 0.33258 0.71629 0.0
O647 O 0.8977 0.31892 0.73895 0.0
O648 O 0.91913 0.3778 0.74405 0.0
O649 O 0.92854 0.35835 0.72529 0.0
C650 C 0.93193 0.37054 0.73618 0.0
C651 C 0.90672 0.32886 0.68944 0.0
C652 C 0.89805 0.32692 0.75334 0.0
C653 C 0.86964 0.36285 0.71724 0.0
O654 O 0.87078 0.34652 0.71594 0.0
O655 O 0.88278 0.37174 0.72169 0.0
O656 O 0.89462 0.3185 0.69452 0.0
O657 O 0.91195 0.34059 0.70013 0.0
O658 O 0.60446 0.66171 0.25414 0.0
Cd659 Cd 0.59985 0.64525 0.23372 0.0
Cd660 Cd 0.60981 0.67299 0.2169 0.0
O661 O 0.60508 0.6863 0.23968 0.0
O662 O 0.58499 0.62683 0.24408 0.0
O663 O 0.57529 0.64619 0.22538 0.0
C664 C 0.57209 0.63385 0.23616 0.0
C665 C 0.59641 0.67651 0.19005 0.0
C666 C 0.60479 0.67814 0.25398 0.0
C667 C 0.63434 0.64331 0.21776 0.0
O668 O 0.63274 0.65961 0.21653 0.0
O669 O 0.62144 0.63402 0.22209 0.0
O670 O 0.60825 0.68715 0.19519 0.0
O671 O 0.59148 0.66461 0.20068 0.0
O672 O 0.50066 0.59129 0.85478 0.0
Cd673 Cd 0.52128 0.60749 0.85012 0.0
Cd674 Cd 0.53782 0.57978 0.86043 0.0
O675 O 0.51496 0.56662 0.85573 0.0
O676 O 0.51132 0.62607 0.83521 0.0
O677 O 0.52967 0.60635 0.82556 0.0
C678 C 0.5192 0.61894 0.82235 0.0
C679 C 0.56466 0.5759 0.84715 0.0
C680 C 0.50071 0.57487 0.85531 0.0
C681 C 0.5371 0.60965 0.88467 0.0
O682 O 0.53822 0.59333 0.88326 0.0
O683 O 0.53289 0.61882 0.87165 0.0
O684 O 0.55937 0.56539 0.85904 0.0
O685 O 0.55418 0.58788 0.8421 0.0
O686 O 0.66241 0.25067 0.10533 0.0
Cd687 Cd 0.64578 0.2706 0.10016 0.0
Cd688 Cd 0.67383 0.28937 0.10758 0.0
O689 O 0.6867 0.2657 0.10618 0.0
O690 O 0.62739 0.26028 0.08535 0.0
O691 O 0.64704 0.2787 0.07558 0.0
C692 C 0.63453 0.26809 0.07245 0.0
C693 C 0.68048 0.31486 0.09274 0.0
C694 C 0.67879 0.25124 0.1063 0.0
C695 C 0.64377 0.2911 0.13237 0.0
O696 O 0.65971 0.29398 0.12963 0.0
O697 O 0.63475 0.28289 0.12133 0.0
O698 O 0.68988 0.30962 0.10552 0.0
O699 O 0.66821 0.30482 0.08748 0.0
O700 O 1.00186 0.4083 0.3566 0.0
Cd701 Cd 0.97993 0.39535 0.34916 0.0
Cd702 Cd 0.96704 0.42442 0.35907 0.0
O703 O 0.99147 0.43468 0.3542 0.0
O704 O 0.98861 0.37668 0.3335 0.0
O705 O 0.9738 0.39935 0.32427 0.0
C706 C 0.98285 0.38579 0.32075 0.0
C707 C 0.94061 0.43065 0.34587 0.0
C708 C 0.00432 0.42453 0.35603 0.0
C709 C 0.96316 0.39426 0.38267 0.0
O710 O 0.9651 0.41056 0.38176 0.0
O711 O 0.9655 0.38495 0.36929 0.0
O712 O 0.9469 0.44077 0.35761 0.0
O713 O 0.94998 0.41778 0.34083 0.0
O714 O 0.84263 0.7549 0.60543 0.0
Cd715 Cd 0.85866 0.73427 0.60032 0.0
Cd716 Cd 0.83108 0.71777 0.61086 0.0
O717 O 0.81793 0.74063 0.60617 0.0
O718 O 0.87674 0.74408 0.58467 0.0
O719 O 0.85654 0.72581 0.57589 0.0
C720 C 0.86901 0.73624 0.57213 0.0
C721 C 0.82697 0.69077 0.59797 0.0
C722 C 0.8262 0.75487 0.60592 0.0
C723 C 0.86122 0.71838 0.63474 0.0
O724 O 0.84487 0.71748 0.63353 0.0
O725 O 0.87029 0.72242 0.62159 0.0
O726 O 0.81659 0.69624 0.60989 0.0
O727 O 0.83892 0.70116 0.59265 0.0
O728 O 0.50004 0.4073 0.64799 0.0
Cd729 Cd 0.52119 0.392 0.65309 0.0
Cd730 Cd 0.53694 0.42016 0.64321 0.0
O731 O 0.51361 0.43238 0.64829 0.0
O732 O 0.51215 0.37368 0.66891 0.0
O733 O 0.52963 0.39468 0.67744 0.0
C734 C 0.51968 0.38187 0.68136 0.0
C735 C 0.56387 0.4252 0.65597 0.0
C736 C 0.4996 0.42372 0.64808 0.0
C737 C 0.5373 0.39048 0.61876 0.0
O738 O 0.53765 0.40683 0.62024 0.0
O739 O 0.53355 0.38107 0.63176 0.0
O740 O 0.55776 0.43564 0.64442 0.0
O741 O 0.55415 0.4126 0.661 0.0
O742 O 0.84226 0.25114 0.89899 0.0
Cd743 Cd 0.85864 0.27156 0.9039 0.0
Cd744 Cd 0.83121 0.28839 0.89337 0.0
O745 O 0.81775 0.26569 0.89799 0.0
O746 O 0.87684 0.2612 0.919 0.0
O747 O 0.85735 0.27987 0.92847 0.0
C748 C 0.86967 0.26912 0.93181 0.0
C749 C 0.82741 0.31533 0.90649 0.0
C750 C 0.82584 0.25136 0.89841 0.0
C751 C 0.86131 0.28752 0.86944 0.0
O752 O 0.84497 0.28868 0.87065 0.0
O753 O 0.8703 0.28322 0.88256 0.0
O754 O 0.81698 0.31006 0.89453 0.0
O755 O 0.83925 0.30478 0.91172 0.0
O756 O 0.00377 0.59269 0.14845 0.0
Cd757 Cd 0.98334 0.60898 0.15353 0.0
Cd758 Cd 0.96649 0.58145 0.14303 0.0
O759 O 0.9893 0.56811 0.1475 0.0
O760 O 0.99349 0.62708 0.16892 0.0
O761 O 0.97502 0.60723 0.17804 0.0
C762 C 0.98563 0.6196 0.18159 0.0
C763 C 0.9397 0.57782 0.15652 0.0
C764 C 0.00361 0.57627 0.14783 0.0
C765 C 0.96727 0.61165 0.11916 0.0
O766 O 0.96611 0.59531 0.12039 0.0
O767 O 0.97158 0.62065 0.13226 0.0
O768 O 0.94472 0.56734 0.14449 0.0
O769 O 0.9504 0.58961 0.16155 0.0
O770 O 0.66186 0.75441 0.39875 0.0
Cd771 Cd 0.64566 0.7339 0.40381 0.0
Cd772 Cd 0.67318 0.71714 0.39345 0.0
O773 O 0.68646 0.73999 0.39796 0.0
O774 O 0.62739 0.74398 0.41904 0.0
O775 O 0.64731 0.72568 0.42839 0.0
C776 C 0.6348 0.73619 0.4318 0.0
C777 C 0.67691 0.69029 0.4068 0.0
C778 C 0.67828 0.75428 0.39821 0.0
C779 C 0.64315 0.71782 0.36943 0.0
O780 O 0.65949 0.71672 0.37071 0.0
O781 O 0.63409 0.72208 0.38251 0.0
O782 O 0.68743 0.69548 0.39488 0.0
O783 O 0.66502 0.70088 0.41184 0.0
O784 O 0.85554 0.50145 0.59533 0.0
Cd785 Cd 0.85071 0.52214 0.61135 0.0
Cd786 Cd 0.86121 0.53858 0.58368 0.0
O787 O 0.85636 0.51569 0.57062 0.0
O788 O 0.83541 0.51227 0.62967 0.0
O789 O 0.8262 0.5305 0.60961 0.0
C790 C 0.8227 0.52004 0.62214 0.0
C791 C 0.84805 0.56542 0.57942 0.0
C792 C 0.85595 0.50146 0.5789 0.0
C793 C 0.88521 0.53801 0.61377 0.0
O794 O 0.88396 0.53899 0.59741 0.0
O795 O 0.87209 0.53388 0.62284 0.0
O796 O 0.86 0.55999 0.56906 0.0
O797 O 0.84292 0.5551 0.59151 0.0
O798 O 0.75361 0.60506 0.84152 0.0
Cd799 Cd 0.73303 0.60007 0.85768 0.0
Cd800 Cd 0.71644 0.61022 0.82999 0.0
O801 O 0.73934 0.60575 0.81683 0.0
O802 O 0.74317 0.58531 0.87628 0.0
O803 O 0.72505 0.57538 0.85649 0.0
C804 C 0.73552 0.57234 0.86912 0.0
C805 C 0.68969 0.59678 0.82611 0.0
C806 C 0.75358 0.60556 0.82509 0.0
C807 C 0.71679 0.6344 0.85988 0.0
O808 O 0.71582 0.63304 0.84354 0.0
O809 O 0.72105 0.62139 0.86903 0.0
O810 O 0.69492 0.60868 0.8156 0.0
O811 O 0.70021 0.59178 0.8381 0.0
O812 O 0.64986 0.50413 0.09378 0.0
Cd813 Cd 0.65498 0.48419 0.11041 0.0
Cd814 Cd 0.64771 0.46544 0.08221 0.0
O815 O 0.64917 0.48918 0.06944 0.0
O816 O 0.6702 0.49442 0.12851 0.0
O817 O 0.67938 0.47575 0.10881 0.0
C818 C 0.68289 0.48646 0.12114 0.0
C819 C 0.66247 0.43995 0.07531 0.0
C820 C 0.64901 0.50362 0.07739 0.0
C821 C 0.62287 0.46362 0.11233 0.0
O822 O 0.62571 0.46075 0.0964 0.0
O823 O 0.63381 0.47189 0.12142 0.0
O824 O 0.64966 0.44526 0.06602 0.0
O825 O 0.6678 0.44991 0.08762 0.0
O826 O 0.7508 0.40016 0.34945 0.0
Cd827 Cd 0.77086 0.40528 0.36589 0.0
Cd828 Cd 0.78944 0.39876 0.33743 0.0
O829 O 0.76553 0.40049 0.32497 0.0
O830 O 0.76103 0.42082 0.38397 0.0
O831 O 0.77951 0.42954 0.36388 0.0
C832 C 0.76898 0.43334 0.37628 0.0
C833 C 0.81495 0.41352 0.33048 0.0
C834 C 0.75116 0.39984 0.33304 0.0
C835 C 0.79154 0.3733 0.36705 0.0
O836 O 0.79421 0.37648 0.35114 0.0
O837 O 0.78338 0.38405 0.37647 0.0
O838 O 0.80944 0.40092 0.32101 0.0
O839 O 0.80518 0.41866 0.34301 0.0
O840 O 0.85533 0.50463 0.91121 0.0
Cd841 Cd 0.85053 0.484 0.89505 0.0
Cd842 Cd 0.86128 0.46754 0.92268 0.0
O843 O 0.85662 0.49038 0.9359 0.0
O844 O 0.83532 0.49407 0.87677 0.0
O845 O 0.82603 0.47553 0.89648 0.0
C846 C 0.82258 0.48613 0.88406 0.0
C847 C 0.84818 0.44062 0.9267 0.0
C848 C 0.85603 0.50461 0.92763 0.0
C849 C 0.88506 0.46819 0.89244 0.0
O850 O 0.88392 0.4672 0.9088 0.0
O851 O 0.87189 0.47232 0.88346 0.0
O852 O 0.86016 0.44596 0.93707 0.0
O853 O 0.84294 0.4511 0.91479 0.0
O854 O 0.75074 0.60603 0.16223 0.0
Cd855 Cd 0.77143 0.60125 0.14615 0.0
Cd856 Cd 0.78781 0.61191 0.17392 0.0
O857 O 0.76488 0.60727 0.18699 0.0
O858 O 0.76146 0.58634 0.12755 0.0
O859 O 0.77963 0.57664 0.1474 0.0
C860 C 0.76922 0.57346 0.13476 0.0
C861 C 0.81453 0.5983 0.17744 0.0
C862 C 0.75069 0.6067 0.17866 0.0
C863 C 0.78746 0.63578 0.14381 0.0
O864 O 0.78834 0.63462 0.16017 0.0
O865 O 0.78332 0.62264 0.13478 0.0
O866 O 0.80953 0.61022 0.18807 0.0
O867 O 0.80383 0.59342 0.16559 0.0
O868 O 0.64901 0.50125 0.41262 0.0
Cd869 Cd 0.65408 0.52195 0.39667 0.0
Cd870 Cd 0.6427 0.53829 0.42407 0.0
O871 O 0.64725 0.51544 0.43732 0.0
O872 O 0.66966 0.51212 0.37857 0.0
O873 O 0.67854 0.53043 0.39868 0.0
C874 C 0.68223 0.52001 0.38619 0.0
C875 C 0.65575 0.56525 0.42803 0.0
C876 C 0.648 0.50123 0.42903 0.0
C877 C 0.61949 0.53743 0.39343 0.0
O878 O 0.62032 0.53843 0.40981 0.0
O879 O 0.63288 0.53348 0.38468 0.0
O880 O 0.64366 0.55999 0.43832 0.0
O881 O 0.66111 0.55468 0.41625 0.0
O882 O 0.75384 0.40008 0.66178 0.0
Cd883 Cd 0.73352 0.40493 0.64526 0.0
Cd884 Cd 0.7165 0.39468 0.67282 0.0
O885 O 0.7392 0.3994 0.68627 0.0
O886 O 0.74389 0.4199 0.62692 0.0
O887 O 0.72533 0.42953 0.64645 0.0
C888 C 0.73604 0.43277 0.63407 0.0
C889 C 0.68969 0.40825 0.67579 0.0
C890 C 0.75356 0.39967 0.67821 0.0
C891 C 0.71747 0.37047 0.64295 0.0
O892 O 0.71626 0.37186 0.65928 0.0
O893 O 0.72178 0.38349 0.63382 0.0
O894 O 0.69454 0.39645 0.68661 0.0
O895 O 0.70058 0.41304 0.66406 0.0
O896 O 0.59739 0.85574 0.50027 0.0
Cd897 Cd 0.61292 0.85067 0.52127 0.0
Cd898 Cd 0.58468 0.86091 0.53706 0.0
O899 O 0.57226 0.85627 0.51376 0.0
O900 O 0.63125 0.83519 0.51166 0.0
O901 O 0.61085 0.82619 0.52958 0.0
C902 C 0.62344 0.82255 0.51926 0.0
C903 C 0.58013 0.84756 0.56378 0.0
C904 C 0.58097 0.85612 0.49978 0.0
C905 C 0.61474 0.88501 0.5374 0.0
O906 O 0.59838 0.88363 0.5379 0.0
O907 O 0.62404 0.87199 0.5335 0.0
O908 O 0.56978 0.85949 0.55831 0.0
O909 O 0.59232 0.84252 0.55354 0.0
O910 O 0.09009 0.64851 0.50469 0.0
Cd911 Cd 0.10627 0.65326 0.48411 0.0
Cd912 Cd 0.07831 0.64345 0.46749 0.0
O913 O 0.06533 0.64788 0.49052 0.0
O914 O 0.12503 0.66777 0.49437 0.0
O915 O 0.10541 0.67801 0.47623 0.0
C916 C 0.11801 0.68087 0.4868 0.0
C917 C 0.07424 0.65717 0.44088 0.0
C918 C 0.07366 0.64811 0.50472 0.0
C919 C 0.10797 0.61886 0.4677 0.0
O920 O 0.09167 0.6205 0.46657 0.0
O921 O 0.11728 0.6317 0.47218 0.0
O922 O 0.06374 0.64524 0.44609 0.0
O923 O 0.08634 0.66201 0.45133 0.0
O924 O 0.60484 0.84372 0.75356 0.0
Cd925 Cd 0.60005 0.85972 0.73279 0.0
Cd926 Cd 0.61073 0.83203 0.71648 0.0
O927 O 0.60594 0.81898 0.7394 0.0
O928 O 0.58497 0.87826 0.74259 0.0
O929 O 0.5755 0.85826 0.72445 0.0
C930 C 0.57218 0.87093 0.73478 0.0
C931 C 0.59755 0.82813 0.68959 0.0
C932 C 0.60543 0.8273 0.7536 0.0
C933 C 0.63459 0.86214 0.71689 0.0
O934 O 0.63345 0.84577 0.71607 0.0
O935 O 0.62141 0.87115 0.72095 0.0
O936 O 0.60944 0.81765 0.69491 0.0
O937 O 0.59242 0.84007 0.70009 0.0
O938 O 0.40835 0.35513 0.00388 0.0
Cd939 Cd 0.39268 0.35014 0.98296 0.0
Cd940 Cd 0.42069 0.36069 0.96701 0.0
O941 O 0.43335 0.35597 0.99018 0.0
O942 O 0.37437 0.33471 0.99268 0.0
O943 O 0.3946 0.32566 0.97459 0.0
C944 C 0.38205 0.32205 0.98497 0.0
C945 C 0.42496 0.34743 0.94018 0.0
C946 C 0.42477 0.35563 0.00423 0.0
C947 C 0.39052 0.3846 0.96706 0.0
O948 O 0.40688 0.38336 0.96641 0.0
O949 O 0.38136 0.37147 0.97098 0.0
O950 O 0.43536 0.35937 0.94559 0.0
O951 O 0.4129 0.34234 0.95054 0.0
O952 O 0.3997 0.65952 0.7534 0.0
Cd953 Cd 0.40476 0.64288 0.73344 0.0
Cd954 Cd 0.39682 0.67088 0.71469 0.0
O955 O 0.39846 0.68377 0.73836 0.0
O956 O 0.42014 0.62492 0.74366 0.0
O957 O 0.42912 0.64456 0.72483 0.0
C958 C 0.43275 0.63231 0.73559 0.0
C959 C 0.41133 0.6778 0.68906 0.0
C960 C 0.39864 0.67589 0.75284 0.0
C961 C 0.37239 0.64043 0.71328 0.0
O962 O 0.37493 0.65639 0.71031 0.0
O963 O 0.38359 0.63156 0.72145 0.0
O964 O 0.39846 0.68698 0.69442 0.0
O965 O 0.41684 0.66558 0.69903 0.0
O966 O 0.91341 0.15057 1.00109 0.0
Cd967 Cd 0.89699 0.15524 0.02155 0.0
Cd968 Cd 0.92461 0.14531 0.03833 0.0
O969 O 0.93796 0.15012 0.01561 0.0
O970 O 0.87831 0.16976 0.01122 0.0
O971 O 0.89776 0.17993 0.02958 0.0
C972 C 0.88521 0.18282 0.01896 0.0
C973 C 0.92808 0.15852 0.06527 0.0
C974 C 0.92984 0.15031 1.00128 0.0
C975 C 0.89503 0.12079 0.03758 0.0
O976 O 0.91134 0.12232 0.03867 0.0
O977 O 0.88578 0.13373 0.03332 0.0
O978 O 0.93876 0.14677 0.06003 0.0
O979 O 0.91617 0.16353 0.05467 0.0
O980 O 0.6056 0.16318 0.75034 0.0
Cd981 Cd 0.60084 0.14683 0.77083 0.0
Cd982 Cd 0.61099 0.17448 0.78762 0.0
O983 O 0.60634 0.18776 0.7648 0.0
O984 O 0.58613 0.12822 0.76062 0.0
O985 O 0.57619 0.14781 0.77895 0.0
C986 C 0.57316 0.13524 0.7684 0.0
C987 C 0.5974 0.17785 0.81438 0.0
C988 C 0.60604 0.17961 0.7505 0.0
C989 C 0.63526 0.14468 0.78698 0.0
O990 O 0.63386 0.161 0.78809 0.0
O991 O 0.62227 0.13553 0.78265 0.0
O992 O 0.60926 0.18854 0.80939 0.0
O993 O 0.59256 0.166 0.80365 0.0
O994 O 0.89992 0.84324 0.25109 0.0
Cd995 Cd 0.90467 0.85956 0.2716 0.0
Cd996 Cd 0.89446 0.83198 0.28828 0.0
O997 O 0.89932 0.81866 0.26555 0.0
O998 O 0.91983 0.87784 0.26147 0.0
O999 O 0.92915 0.85822 0.2801 0.0
C1000 C 0.93258 0.8706 0.26943 0.0
C1001 C 0.90731 0.82807 0.31533 0.0
C1002 C 0.89958 0.82681 0.25124 0.0
C1003 C 0.87018 0.86181 0.2874 0.0
O1004 O 0.8716 0.84548 0.28848 0.0
O1005 O 0.8832 0.871 0.28325 0.0
O1006 O 0.89551 0.81757 0.30983 0.0
O1007 O 0.91255 0.84005 0.30494 0.0
O1008 O 0.50343 0.40594 0.14675 0.0
Cd1009 Cd 0.48191 0.39239 0.15421 0.0
Cd1010 Cd 0.46834 0.42146 0.14504 0.0
O1011 O 0.49265 0.43208 0.14989 0.0
O1012 O 0.4911 0.37381 0.16973 0.0
O1013 O 0.47584 0.3961 0.17914 0.0
C1014 C 0.48522 0.38274 0.18255 0.0
C1015 C 0.44182 0.42662 0.15855 0.0
C1016 C 0.50564 0.42219 0.14764 0.0
C1017 C 0.46493 0.39172 0.12081 0.0
O1018 O 0.46657 0.40803 0.12212 0.0
O1019 O 0.4675 0.38212 0.13395 0.0
O1020 O 0.44771 0.43719 0.14701 0.0
O1021 O 0.45162 0.41394 0.16324 0.0
O1022 O 0.34531 0.75441 0.89836 0.0
Cd1023 Cd 0.36114 0.73359 0.90306 0.0
Cd1024 Cd 0.33282 0.71755 0.89332 0.0
O1025 O 0.32027 0.74073 0.89819 0.0
O1026 O 0.37969 0.74346 0.91812 0.0
O1027 O 0.35971 0.72532 0.9276 0.0
C1028 C 0.37224 0.73582 0.93096 0.0
C1029 C 0.32879 0.69082 0.9068 0.0
C1030 C 0.32888 0.75476 0.89827 0.0
C1031 C 0.36239 0.71753 0.86858 0.0
O1032 O 0.34607 0.7168 0.87031 0.0
O1033 O 0.3719 0.72157 0.88142 0.0
O1034 O 0.31815 0.69617 0.89507 0.0
O1035 O 0.34099 0.70118 0.91158 0.0
O1036 O 1.00171 0.59192 0.65154 0.0
Cd1037 Cd 0.02209 0.60837 0.6563 0.0
Cd1038 Cd 0.03896 0.58086 0.64562 0.0
O1039 O 0.01621 0.56739 0.65007 0.0
O1040 O 0.01163 0.62669 0.6712 0.0
O1041 O 0.03045 0.60746 0.68088 0.0
C1042 C 0.01963 0.61974 0.68408 0.0
C1043 C 0.0657 0.5775 0.65928 0.0
C1044 C 1.00189 0.57551 0.6507 0.0
C1045 C 0.03785 0.61105 0.62173 0.0
O1046 O 0.03925 0.59473 0.62296 0.0
O1047 O 0.03348 0.62002 0.63484 0.0
O1048 O 0.06084 0.56694 0.64726 0.0
O1049 O 0.05488 0.58923 0.6642 0.0
O1050 O 0.15634 0.25344 0.39756 0.0
Cd1051 Cd 0.1431 0.27498 0.40556 0.0
Cd1052 Cd 0.17225 0.28842 0.3966 0.0
O1053 O 0.18259 0.2639 0.40091 0.0
O1054 O 0.12433 0.26568 0.42075 0.0
O1055 O 0.14681 0.28034 0.43067 0.0
C1056 C 0.13326 0.27111 0.43376 0.0
C1057 C 0.17797 0.31452 0.4107 0.0
C1058 C 0.17258 0.25106 0.39839 0.0
C1059 C 0.14247 0.29273 0.37256 0.0
O1060 O 0.15876 0.2909 0.37374 0.0
O1061 O 0.13292 0.28995 0.3857 0.0
O1062 O 0.18836 0.30871 0.39894 0.0
O1063 O 0.16514 0.30485 0.41523 0.0
O1064 O 0.50319 0.59035 0.35494 0.0
Cd1065 Cd 0.48257 0.60648 0.35023 0.0
Cd1066 Cd 0.46601 0.57855 0.35981 0.0
O1067 O 0.48901 0.5656 0.35518 0.0
O1068 O 0.49263 0.62529 0.33568 0.0
O1069 O 0.47458 0.60553 0.32554 0.0
C1070 C 0.48503 0.61821 0.32262 0.0
C1071 C 0.43935 0.57464 0.34615 0.0
C1072 C 0.50322 0.57392 0.35513 0.0
C1073 C 0.46623 0.60798 0.38461 0.0
O1074 O 0.46518 0.59167 0.38289 0.0
O1075 O 0.47061 0.61737 0.3718 0.0
O1076 O 0.44463 0.56398 0.3579 0.0
O1077 O 0.44975 0.58682 0.34143 0.0
O1078 O 0.16192 0.75448 0.10654 0.0
Cd1079 Cd 0.14561 0.73396 0.10187 0.0
Cd1080 Cd 0.1734 0.71727 0.112 0.0
O1081 O 0.18657 0.74015 0.1074 0.0
O1082 O 0.12716 0.74419 0.08695 0.0
O1083 O 0.14664 0.72561 0.07729 0.0
C1084 C 0.13423 0.7363 0.07407 0.0
C1085 C 0.17733 0.69052 0.09853 0.0
C1086 C 0.17834 0.7544 0.10702 0.0
C1087 C 0.14359 0.71777 0.13636 0.0
O1088 O 0.15991 0.71663 0.13487 0.0
O1089 O 0.13439 0.72219 0.12341 0.0
O1090 O 0.18784 0.69576 0.11044 0.0
O1091 O 0.16531 0.701 0.09357 0.0
O1092 O 1.00087 0.41223 0.85586 0.0
Cd1093 Cd 0.02123 0.39574 0.85109 0.0
Cd1094 Cd 0.03821 0.42332 0.86101 0.0
O1095 O 0.0155 0.43673 0.85633 0.0
O1096 O 0.01085 0.37721 0.8364 0.0
O1097 O 0.02929 0.39668 0.82641 0.0
C1098 C 0.01862 0.38421 0.8234 0.0
C1099 C 0.06504 0.42673 0.84756 0.0
C1100 C 1.00114 0.42866 0.85616 0.0
C1101 C 0.03741 0.39365 0.88548 0.0
O1102 O 0.03862 0.40995 0.88396 0.0
O1103 O 0.03301 0.38443 0.87255 0.0
O1104 O 0.05995 0.43739 0.8594 0.0
O1105 O 0.05436 0.41486 0.84264 0.0
O1106 O 0.34394 0.25062 0.6049 0.0
Cd1107 Cd 0.36008 0.27118 0.59988 0.0
Cd1108 Cd 0.3323 0.28792 0.6093 0.0
O1109 O 0.31928 0.26494 0.6048 0.0
O1110 O 0.37869 0.26104 0.58515 0.0
O1111 O 0.3588 0.27904 0.57518 0.0
C1112 C 0.37143 0.26856 0.57215 0.0
C1113 C 0.32807 0.31462 0.5958 0.0
C1114 C 0.32751 0.25068 0.60499 0.0
C1115 C 0.36179 0.28779 0.63404 0.0
O1116 O 0.34549 0.2888 0.63236 0.0
O1117 O 0.37116 0.28335 0.62124 0.0
O1118 O 0.31756 0.30919 0.60762 0.0
O1119 O 0.3403 0.30434 0.59093 0.0
O1120 O 0.14887 0.5045 0.41078 0.0
Cd1121 Cd 0.15413 0.48477 0.39394 0.0
Cd1122 Cd 0.14644 0.46563 0.42182 0.0
O1123 O 0.14757 0.48924 0.43492 0.0
O1124 O 0.16971 0.49508 0.37616 0.0
O1125 O 0.17842 0.47608 0.39575 0.0
C1126 C 0.18221 0.48686 0.38357 0.0
C1127 C 0.16129 0.44006 0.42825 0.0
C1128 C 0.14762 0.50379 0.42714 0.0
C1129 C 0.12202 0.46423 0.39136 0.0
O1130 O 0.12466 0.46109 0.40727 0.0
O1131 O 0.13304 0.47269 0.38255 0.0
O1132 O 0.14838 0.4451 0.43758 0.0
O1133 O 0.16667 0.45035 0.41625 0.0
O1134 O 0.25144 0.40125 0.16118 0.0
Cd1135 Cd 0.27182 0.40574 0.14465 0.0
Cd1136 Cd 0.28879 0.39588 0.17225 0.0
O1137 O 0.26609 0.40081 0.18565 0.0
O1138 O 0.26152 0.42071 0.12631 0.0
O1139 O 0.28036 0.43023 0.14564 0.0
C1140 C 0.26955 0.43354 0.13336 0.0
C1141 C 0.31577 0.40899 0.17606 0.0
C1142 C 0.25172 0.40107 0.17761 0.0
C1143 C 0.28763 0.37123 0.14262 0.0
O1144 O 0.28902 0.37289 0.15891 0.0
O1145 O 0.28324 0.38411 0.13333 0.0
O1146 O 0.3104 0.39717 0.18659 0.0
O1147 O 0.30533 0.41406 0.16405 0.0
O1148 O 0.35466 0.5011 0.91164 0.0
Cd1149 Cd 0.34974 0.52155 0.89532 0.0
Cd1150 Cd 0.36051 0.53827 0.92274 0.0
O1151 O 0.35584 0.51558 0.93619 0.0
O1152 O 0.33454 0.51122 0.87719 0.0
O1153 O 0.32519 0.5299 0.89674 0.0
C1154 C 0.32178 0.51913 0.88445 0.0
C1155 C 0.34737 0.56519 0.9265 0.0
C1156 C 0.35531 0.50127 0.92806 0.0
C1157 C 0.38423 0.53731 0.89244 0.0
O1158 O 0.38312 0.53845 0.9088 0.0
O1159 O 0.37103 0.53313 0.88352 0.0
O1160 O 0.3594 0.56 0.93688 0.0
O1161 O 0.34211 0.55458 0.91471 0.0
O1162 O 0.253 0.60595 0.65493 0.0
Cd1163 Cd 0.23097 0.59879 0.64203 0.0
Cd1164 Cd 0.21827 0.60828 0.67129 0.0
O1165 O 0.24275 0.60302 0.68131 0.0
O1166 O 0.23931 0.58322 0.62312 0.0
O1167 O 0.22462 0.57395 0.64587 0.0
C1168 C 0.23347 0.57045 0.63217 0.0
C1169 C 0.19165 0.59518 0.67697 0.0
C1170 C 0.25555 0.60507 0.67114 0.0
C1171 C 0.21442 0.63244 0.6417 0.0
O1172 O 0.21651 0.63126 0.65796 0.0
O1173 O 0.21654 0.61918 0.63215 0.0
O1174 O 0.19809 0.60637 0.6876 0.0
O1175 O 0.20097 0.59056 0.66392 0.0
O1176 O 0.14952 0.50139 0.09218 0.0
Cd1177 Cd 0.15445 0.522 0.10832 0.0
Cd1178 Cd 0.14385 0.53855 0.08076 0.0
O1179 O 0.14852 0.51573 0.06753 0.0
O1180 O 0.16951 0.51197 0.12675 0.0
O1181 O 0.17904 0.53021 0.10686 0.0
C1182 C 0.18233 0.51975 0.11944 0.0
C1183 C 0.15704 0.56545 0.07695 0.0
C1184 C 0.14893 0.50147 0.07575 0.0
C1185 C 0.11997 0.53792 0.11087 0.0
O1186 O 0.12114 0.5389 0.09451 0.0
O1187 O 0.13312 0.53378 0.11987 0.0
O1188 O 0.14513 0.56018 0.06647 0.0
O1189 O 0.16219 0.55491 0.08884 0.0
O1190 O 0.2547 0.39916 0.84249 0.0
Cd1191 Cd 0.23417 0.40369 0.85886 0.0
Cd1192 Cd 0.21745 0.39348 0.83118 0.0
O1193 O 0.24022 0.39837 0.81792 0.0
O1194 O 0.24419 0.41856 0.87746 0.0
O1195 O 0.22572 0.42821 0.85785 0.0
C1196 C 0.23623 0.43141 0.87041 0.0
C1197 C 0.19055 0.40676 0.82765 0.0
C1198 C 0.25453 0.39877 0.82606 0.0
C1199 C 0.21836 0.36911 0.86094 0.0
O1200 O 0.21718 0.37057 0.84462 0.0
O1201 O 0.22261 0.3821 0.87014 0.0
O1202 O 0.19573 0.39494 0.81702 0.0
O1203 O 0.20116 0.41174 0.83955 0.0
O1204 O 0.35681 0.50179 0.59797 0.0
Cd1205 Cd 0.34932 0.4801 0.6113 0.0
Cd1206 Cd 0.35938 0.46675 0.58238 0.0
O1207 O 0.35456 0.49103 0.57172 0.0
O1208 O 0.33334 0.48909 0.62958 0.0
O1209 O 0.32457 0.47358 0.60721 0.0
C1210 C 0.32076 0.48293 0.62049 0.0
C1211 C 0.34621 0.44017 0.57673 0.0
C1212 C 0.35636 0.50402 0.58169 0.0
C1213 C 0.38281 0.46332 0.61272 0.0
O1214 O 0.38196 0.46508 0.59639 0.0
O1215 O 0.36941 0.46578 0.62197 0.0
O1216 O 0.35796 0.44621 0.56647 0.0
O1217 O 0.34116 0.44985 0.58936 0.0
O1218 O 0.25291 0.60586 0.34744 0.0
Cd1219 Cd 0.27478 0.59896 0.36078 0.0
Cd1220 Cd 0.28787 0.60857 0.33152 0.0
O1221 O 0.26354 0.60345 0.32114 0.0
O1222 O 0.26604 0.58376 0.37981 0.0
O1223 O 0.28118 0.57405 0.35756 0.0
C1224 C 0.27204 0.57082 0.37114 0.0
C1225 C 0.3143 0.59492 0.32633 0.0
C1226 C 0.25059 0.60516 0.33118 0.0
C1227 C 0.29134 0.63267 0.36132 0.0
O1228 O 0.28962 0.63147 0.34501 0.0
O1229 O 0.28893 0.61945 0.37084 0.0
O1230 O 0.30844 0.60644 0.31571 0.0
O1231 O 0.30454 0.59039 0.33909 0.0
O1232 O 0.41371 0.14865 0.50362 0.0
Cd1233 Cd 0.39708 0.15318 0.48336 0.0
Cd1234 Cd 0.42464 0.14279 0.46635 0.0
O1235 O 0.43819 0.14754 0.48899 0.0
O1236 O 0.3788 0.1681 0.49389 0.0
O1237 O 0.39795 0.17773 0.47495 0.0
C1238 C 0.38575 0.18098 0.48587 0.0
C1239 C 0.42772 0.15626 0.43949 0.0
C1240 C 0.43013 0.14811 0.50335 0.0
C1241 C 0.39476 0.11854 0.46758 0.0
O1242 O 0.41107 0.11997 0.46618 0.0
O1243 O 0.38566 0.13156 0.47196 0.0
O1244 O 0.43843 0.14439 0.4444 0.0
O1245 O 0.41602 0.16118 0.45034 0.0
O1246 O 0.90913 0.35676 0.50023 0.0
Cd1247 Cd 0.89365 0.3515 0.52122 0.0
Cd1248 Cd 0.92181 0.36166 0.53706 0.0
O1249 O 0.93426 0.3571 0.51375 0.0
O1250 O 0.87511 0.33623 0.51167 0.0
O1251 O 0.89568 0.32691 0.52923 0.0
C1252 C 0.88287 0.32348 0.51912 0.0
C1253 C 0.92599 0.34822 0.56379 0.0
C1254 C 0.92556 0.35712 0.49975 0.0
C1255 C 0.89186 0.38577 0.53749 0.0
O1256 O 0.90823 0.38442 0.53789 0.0
O1257 O 0.88258 0.37272 0.53363 0.0
O1258 O 0.93651 0.36007 0.55844 0.0
O1259 O 0.91388 0.34329 0.55342 0.0
O1260 O 0.39758 0.16273 0.25026 0.0
Cd1261 Cd 0.40209 0.1461 0.27053 0.0
Cd1262 Cd 0.39216 0.17381 0.28759 0.0
O1263 O 0.39689 0.18724 0.26487 0.0
O1264 O 0.41696 0.12775 0.26002 0.0
O1265 O 0.42665 0.14694 0.27889 0.0
C1266 C 0.42986 0.13472 0.26799 0.0
C1267 C 0.4058 0.17702 0.31437 0.0
C1268 C 0.39725 0.17916 0.25052 0.0
C1269 C 0.36755 0.14417 0.28653 0.0
O1270 O 0.36921 0.16045 0.28796 0.0
O1271 O 0.38041 0.13489 0.28205 0.0
O1272 O 0.39397 0.18775 0.30945 0.0
O1273 O 0.41057 0.16519 0.30359 0.0
O1274 O 0.59188 0.64855 1.0005 0.0
Cd1275 Cd 0.60814 0.65335 0.02101 0.0
Cd1276 Cd 0.58038 0.64316 0.03769 0.0
O1277 O 0.56721 0.64778 0.01481 0.0
O1278 O 0.62651 0.66843 0.01086 0.0
O1279 O 0.60675 0.67793 0.02925 0.0
C1280 C 0.6192 0.68125 0.01864 0.0
C1281 C 0.57669 0.65655 0.06451 0.0
C1282 C 0.57546 0.6481 1.00056 0.0
C1283 C 0.61024 0.61886 0.03701 0.0
O1284 O 0.59392 0.62033 0.03814 0.0
O1285 O 0.61945 0.63185 0.03274 0.0
O1286 O 0.56613 0.64466 0.05935 0.0
O1287 O 0.5886 0.66154 0.05392 0.0
O1288 O 0.60978 0.3501 0.25173 0.0
Cd1289 Cd 0.602 0.36318 0.27343 0.0
Cd1290 Cd 0.61154 0.33405 0.28665 0.0
O1291 O 0.60688 0.32378 0.26215 0.0
O1292 O 0.58618 0.38165 0.26453 0.0
O1293 O 0.57713 0.35891 0.27934 0.0
C1294 C 0.5735 0.37239 0.27021 0.0
C1295 C 0.59787 0.32835 0.313 0.0
C1296 C 0.60908 0.33387 0.2493 0.0
C1297 C 0.63529 0.36402 0.29074 0.0
O1298 O 0.63428 0.34773 0.28881 0.0
O1299 O 0.62201 0.37344 0.28819 0.0
O1300 O 0.60953 0.31795 0.30702 0.0
O1301 O 0.59319 0.34115 0.30338 0.0
O1302 O 0.09187 0.85511 0.00438 0.0
Cd1303 Cd 0.10753 0.84981 0.9835 0.0
Cd1304 Cd 0.07971 0.8604 0.9674 0.0
O1305 O 0.06692 0.85629 0.99059 0.0
O1306 O 0.12611 0.83495 0.9935 0.0
O1307 O 0.10594 0.82505 0.97579 0.0
C1308 C 0.11868 0.82197 0.98612 0.0
C1309 C 0.07478 0.84703 0.94076 0.0
C1310 C 0.07546 0.85593 0.00467 0.0
C1311 C 0.11004 0.88407 0.9671 0.0
O1312 O 0.09367 0.88298 0.96638 0.0
O1313 O 0.11903 0.87092 0.97129 0.0
O1314 O 0.06471 0.85919 0.94627 0.0
O1315 O 0.08692 0.84175 0.95095 0.0
O1316 O 0.40103 0.84362 0.25282 0.0
Cd1317 Cd 0.40613 0.85968 0.23222 0.0
Cd1318 Cd 0.39521 0.83223 0.21574 0.0
O1319 O 0.39984 0.81894 0.23857 0.0
O1320 O 0.42166 0.87764 0.24236 0.0
O1321 O 0.43062 0.85777 0.22384 0.0
C1322 C 0.43428 0.87006 0.23452 0.0
C1323 C 0.40807 0.82813 0.1887 0.0
C1324 C 0.40033 0.82721 0.25281 0.0
C1325 C 0.37165 0.86264 0.21653 0.0
O1326 O 0.37268 0.84628 0.21556 0.0
O1327 O 0.38491 0.87155 0.22056 0.0
O1328 O 0.39606 0.81785 0.19413 0.0
O1329 O 0.4135 0.83998 0.19914 0.0
O1330 O 0.10559 0.16177 0.75382 0.0
Cd1331 Cd 0.10072 0.14564 0.73318 0.0
Cd1332 Cd 0.11117 0.17337 0.7167 0.0
O1333 O 0.10659 0.1865 0.73962 0.0
O1334 O 0.08591 0.12705 0.7433 0.0
O1335 O 0.07607 0.14683 0.72513 0.0
C1336 C 0.07297 0.13423 0.73561 0.0
C1337 C 0.09766 0.17693 0.68991 0.0
C1338 C 0.10618 0.17819 0.75384 0.0
C1339 C 0.13518 0.14337 0.7171 0.0
O1340 O 0.13393 0.15972 0.71618 0.0
O1341 O 0.12209 0.13428 0.72127 0.0
O1342 O 0.10956 0.18753 0.69498 0.0
O1343 O 0.09272 0.16507 0.70059 0.0
H1344 H 0.07811 0.09255 0.3216 0.0
H1345 H 0.17448 0.0668 0.34784 0.0
H1346 H 0.09025 0.05343 0.35948 0.0
H1347 H 0.16215 0.10299 0.30721 0.0
H1348 H 0.14386 0.05922 0.34993 0.0
H1349 H 0.1087 0.09412 0.31387 0.0
C1350 C 0.08717 0.0841 0.32813 0.0
C1351 C 0.08158 0.07293 0.34131 0.0
C1352 C 0.14787 0.06864 0.34038 0.0
C1353 C 0.11678 0.07483 0.33266 0.0
C1354 C 0.16539 0.07294 0.33913 0.0
C1355 C 0.17092 0.08566 0.32742 0.0
C1356 C 0.13571 0.07722 0.32994 0.0
C1357 C 0.15851 0.09316 0.31648 0.0
C1358 C 0.10467 0.08503 0.32373 0.0
C1359 C 0.09394 0.06228 0.34928 0.0
N1360 N 0.14149 0.08899 0.31816 0.0
N1361 N 0.11096 0.06364 0.34498 0.0
H1362 H 0.18737 0.92453 0.59879 0.0
H1363 H 0.1584 0.82919 0.57207 0.0
H1364 H 0.15023 0.91365 0.5586 0.0
H1365 H 0.19851 0.83985 0.60936 0.0
H1366 H 0.1576 0.8599 0.56465 0.0
H1367 H 0.1941 0.89369 0.60044 0.0
C1368 C 0.18084 0.91571 0.59008 0.0
C1369 C 0.1681 0.92172 0.57863 0.0
C1370 C 0.16674 0.85551 0.5743 0.0
C1371 C 0.17557 0.88626 0.58066 0.0
C1372 C 0.16723 0.83794 0.57853 0.0
C1373 C 0.17845 0.83191 0.59147 0.0
C1374 C 0.17744 0.86723 0.58315 0.0
C1375 C 0.1896 0.84389 0.59935 0.0
C1376 C 0.18466 0.89806 0.59108 0.0
C1377 C 0.16009 0.90964 0.56768 0.0
N1378 N 0.18867 0.86098 0.59523 0.0
N1379 N 0.1638 0.89249 0.56912 0.0
H1380 H 0.41309 0.9498 0.85609 0.0
H1381 H 0.33915 0.89782 0.80544 0.0
H1382 H 0.4234 0.90794 0.82066 0.0
H1383 H 0.32914 0.93463 0.84616 0.0
H1384 H 0.36995 0.905 0.80703 0.0
H1385 H 0.3824 0.94798 0.84877 0.0
C1386 C 0.40896 0.94039 0.84657 0.0
C1387 C 0.42087 0.92891 0.8391 0.0
C1388 C 0.36098 0.91166 0.81547 0.0
C1389 C 0.38563 0.92666 0.83075 0.0
C1390 C 0.34336 0.90763 0.8145 0.0
C1391 C 0.33152 0.91553 0.82578 0.0
C1392 C 0.36682 0.9237 0.82777 0.0
C1393 C 0.33778 0.92812 0.83729 0.0
C1394 C 0.39139 0.93932 0.84244 0.0
C1395 C 0.4147 0.917 0.82683 0.0
N1396 N 0.35498 0.9317 0.83808 0.0
N1397 N 0.39751 0.91609 0.82316 0.0
H1398 H 0.34632 0.17628 0.07164 0.0
H1399 H 0.32113 0.07946 0.09717 0.0
H1400 H 0.30633 0.16356 0.10841 0.0
H1401 H 0.35796 0.09219 0.05723 0.0
H1402 H 0.31358 0.11006 0.09951 0.0
H1403 H 0.3488 0.14567 0.06422 0.0
C1404 C 0.33788 0.16709 0.078 0.0
C1405 C 0.32617 0.17253 0.09077 0.0
C1406 C 0.32317 0.10616 0.09008 0.0
C1407 C 0.32911 0.13732 0.08247 0.0
C1408 C 0.32747 0.08865 0.08871 0.0
C1409 C 0.3403 0.08322 0.07706 0.0
C1410 C 0.33183 0.11841 0.07983 0.0
C1411 C 0.34803 0.09576 0.06643 0.0
C1412 C 0.33933 0.14957 0.07377 0.0
C1413 C 0.31557 0.15999 0.09853 0.0
N1414 N 0.34382 0.11276 0.06821 0.0
N1415 N 0.31743 0.14297 0.0944 0.0
H1416 H 0.09211 0.94933 0.14791 0.0
H1417 H 0.16434 0.89605 0.19966 0.0
H1418 H 0.08057 0.90784 0.18339 0.0
H1419 H 0.17578 0.93265 0.15913 0.0
H1420 H 0.13371 0.90365 0.19741 0.0
H1421 H 0.12271 0.94681 0.15544 0.0
C1422 C 0.09595 0.93986 0.15748 0.0
C1423 C 0.08372 0.92869 0.16492 0.0
C1424 C 0.14295 0.91016 0.18914 0.0
C1425 C 0.11885 0.92564 0.17352 0.0
C1426 C 0.16047 0.90588 0.19047 0.0
C1427 C 0.17267 0.91362 0.17947 0.0
C1428 C 0.13754 0.9223 0.17674 0.0
C1429 C 0.16684 0.92627 0.1678 0.0
C1430 C 0.11346 0.93838 0.16173 0.0
C1431 C 0.08952 0.91667 0.17725 0.0
N1432 N 0.14971 0.9301 0.16666 0.0
N1433 N 0.10666 0.91537 0.18104 0.0
H1434 H 0.31819 0.92469 0.40765 0.0
H1435 H 0.34607 0.82866 0.43289 0.0
H1436 H 0.35543 0.91272 0.44742 0.0
H1437 H 0.3065 0.84034 0.39534 0.0
H1438 H 0.34707 0.85919 0.44089 0.0
H1439 H 0.31103 0.89397 0.40556 0.0
C1440 C 0.32464 0.91565 0.41618 0.0
C1441 C 0.33756 0.92132 0.42763 0.0
C1442 C 0.338 0.85507 0.43105 0.0
C1443 C 0.32959 0.886 0.42511 0.0
C1444 C 0.3374 0.8376 0.42648 0.0
C1445 C 0.32629 0.83191 0.4133 0.0
C1446 C 0.32752 0.86705 0.42228 0.0
C1447 C 0.31533 0.84413 0.40552 0.0
C1448 C 0.32059 0.89807 0.41493 0.0
C1449 C 0.34546 0.90897 0.43835 0.0
N1450 N 0.31637 0.86113 0.40997 0.0
N1451 N 0.34152 0.89191 0.43667 0.0
H1452 H 0.41417 0.05647 0.64621 0.0
H1453 H 0.34216 0.10973 0.69827 0.0
H1454 H 0.42581 0.09772 0.68195 0.0
H1455 H 0.33052 0.07298 0.65793 0.0
H1456 H 0.37276 0.10207 0.69595 0.0
H1457 H 0.38358 0.05895 0.65385 0.0
C1458 C 0.41035 0.06588 0.65586 0.0
C1459 C 0.4226 0.077 0.66334 0.0
C1460 C 0.36349 0.09553 0.68774 0.0
C1461 C 0.38751 0.08 0.67206 0.0
C1462 C 0.34598 0.09986 0.68911 0.0
C1463 C 0.33373 0.0921 0.67818 0.0
C1464 C 0.36883 0.08335 0.67535 0.0
C1465 C 0.33949 0.07938 0.66655 0.0
C1466 C 0.39285 0.06733 0.66017 0.0
C1467 C 0.41684 0.08894 0.67576 0.0
N1468 N 0.35661 0.07552 0.66535 0.0
N1469 N 0.39972 0.09021 0.67962 0.0
H1470 H 0.18291 0.07848 0.90833 0.0
H1471 H 0.15736 0.17533 0.93329 0.0
H1472 H 0.14566 0.0913 0.94785 0.0
H1473 H 0.19746 0.1625 0.89668 0.0
H1474 H 0.15498 0.14476 0.94092 0.0
H1475 H 0.1905 0.10907 0.90602 0.0
C1476 C 0.17649 0.08769 0.91671 0.0
C1477 C 0.16352 0.08229 0.92822 0.0
C1478 C 0.16445 0.14863 0.93136 0.0
C1479 C 0.17203 0.11746 0.92547 0.0
C1480 C 0.16585 0.16613 0.92702 0.0
C1481 C 0.17755 0.17152 0.91422 0.0
C1482 C 0.17473 0.13636 0.92276 0.0
C1483 C 0.18821 0.15896 0.90657 0.0
C1484 C 0.18082 0.10519 0.91535 0.0
C1485 C 0.15569 0.09484 0.93876 0.0
N1486 N 0.18641 0.14198 0.91082 0.0
N1487 N 0.15992 0.11184 0.93699 0.0
H1488 H 0.07246 0.35038 0.17634 0.0
H1489 H 0.09893 0.32304 0.08033 0.0
H1490 H 0.11033 0.31106 0.1649 0.0
H1491 H 0.05831 0.35948 0.09195 0.0
H1492 H 0.10126 0.31633 0.11114 0.0
H1493 H 0.06507 0.35175 0.14565 0.0
C1494 C 0.07907 0.34185 0.16742 0.0
C1495 C 0.09214 0.33067 0.17324 0.0
C1496 C 0.09168 0.32564 0.10695 0.0
C1497 C 0.08386 0.33233 0.13792 0.0
C1498 C 0.09031 0.32946 0.08932 0.0
C1499 C 0.07848 0.34195 0.08351 0.0
C1500 C 0.08124 0.33445 0.11893 0.0
C1501 C 0.06766 0.34981 0.09581 0.0
C1502 C 0.07485 0.34266 0.14985 0.0
C1503 C 0.10021 0.31991 0.16103 0.0
N1504 N 0.06943 0.34608 0.11292 0.0
N1505 N 0.09609 0.32115 0.14395 0.0
H1506 H 0.59665 0.18278 0.92552 0.0
H1507 H 0.57182 0.15778 0.82849 0.0
H1508 H 0.55698 0.1458 0.91246 0.0
H1509 H 0.60829 0.19792 0.84157 0.0
H1510 H 0.56417 0.15522 0.85905 0.0
H1511 H 0.59905 0.19051 0.89497 0.0
C1512 C 0.58826 0.17645 0.91627 0.0
C1513 C 0.57667 0.16352 0.92159 0.0
C1514 C 0.57369 0.16474 0.85523 0.0
C1515 C 0.57952 0.17218 0.88646 0.0
C1516 C 0.57805 0.16624 0.83775 0.0
C1517 C 0.59082 0.178 0.83243 0.0
C1518 C 0.58225 0.17498 0.86757 0.0
C1519 C 0.59842 0.18863 0.84505 0.0
C1520 C 0.58966 0.18086 0.89879 0.0
C1521 C 0.56613 0.1558 0.90898 0.0
N1522 N 0.59417 0.18673 0.86203 0.0
N1523 N 0.56794 0.1601 0.892 0.0
H1524 H 0.89626 0.80677 0.34147 0.0
H1525 H 0.94561 0.86036 0.41511 0.0
H1526 H 0.93174 0.84852 0.33092 0.0
H1527 H 0.90541 0.82306 0.42541 0.0
H1528 H 0.94432 0.85276 0.38442 0.0
H1529 H 0.90312 0.80916 0.37224 0.0
C1530 C 0.9057 0.81627 0.34557 0.0
C1531 C 0.91332 0.82756 0.33356 0.0
C1532 C 0.93592 0.8461 0.39342 0.0
C1533 C 0.92114 0.83046 0.36888 0.0
C1534 C 0.9367 0.85038 0.41098 0.0
C1535 C 0.9255 0.84244 0.42288 0.0
C1536 C 0.92386 0.83378 0.38767 0.0
C1537 C 0.91422 0.82961 0.41672 0.0
C1538 C 0.90956 0.81767 0.36318 0.0
C1539 C 0.92546 0.8396 0.33969 0.0
N1540 N 0.91359 0.82578 0.39955 0.0
N1541 N 0.92887 0.84084 0.35692 0.0
H1542 H 0.93356 0.15641 0.17631 0.0
H1543 H 0.90779 0.18354 0.08012 0.0
H1544 H 0.89649 0.19641 0.16457 0.0
H1545 H 0.94848 0.14728 0.09204 0.0
H1546 H 0.90536 0.19042 0.11088 0.0
H1547 H 0.9411 0.15485 0.14565 0.0
C1548 C 0.92716 0.16505 0.16732 0.0
C1549 C 0.91427 0.17648 0.17305 0.0
C1550 C 0.91498 0.18112 0.10676 0.0
C1551 C 0.92271 0.1746 0.13779 0.0
C1552 C 0.9164 0.1772 0.08916 0.0
C1553 C 0.92828 0.16471 0.08345 0.0
C1554 C 0.9254 0.17239 0.11882 0.0
C1555 C 0.93909 0.15695 0.09582 0.0
C1556 C 0.93146 0.16412 0.14979 0.0
C1557 C 0.90647 0.18737 0.16077 0.0
N1558 N 0.93726 0.16076 0.1129 0.0
N1559 N 0.91066 0.18601 0.14372 0.0
H1560 H 0.40024 0.70008 0.66379 0.0
H1561 H 0.45126 0.64999 0.58908 0.0
H1562 H 0.43731 0.65948 0.67327 0.0
H1563 H 0.41019 0.68652 0.57959 0.0
H1564 H 0.4503 0.65738 0.6198 0.0
H1565 H 0.40772 0.6993 0.63308 0.0
C1566 C 0.41019 0.69122 0.65949 0.0
C1567 C 0.41803 0.67971 0.67115 0.0
C1568 C 0.44166 0.66397 0.61097 0.0
C1569 C 0.42653 0.67862 0.63588 0.0
C1570 C 0.44226 0.65981 0.59338 0.0
C1571 C 0.43067 0.66751 0.58171 0.0
C1572 C 0.42936 0.6759 0.617 0.0
C1573 C 0.4193 0.68016 0.58809 0.0
C1574 C 0.4144 0.69073 0.64191 0.0
C1575 C 0.43084 0.66852 0.66476 0.0
N1576 N 0.4188 0.68381 0.60531 0.0
N1577 N 0.43454 0.66813 0.64756 0.0
H1578 H 0.09396 0.68275 0.42626 0.0
H1579 H 0.06668 0.65756 0.32999 0.0
H1580 H 0.05333 0.64645 0.41428 0.0
H1581 H 0.1046 0.69664 0.34212 0.0
H1582 H 0.05916 0.65582 0.36065 0.0
H1583 H 0.09568 0.69043 0.39565 0.0
C1584 C 0.08521 0.67656 0.41724 0.0
C1585 C 0.07357 0.66382 0.42287 0.0
C1586 C 0.06895 0.66496 0.35659 0.0
C1587 C 0.07562 0.67243 0.38766 0.0
C1588 C 0.07322 0.66601 0.33904 0.0
C1589 C 0.08641 0.67717 0.33344 0.0
C1590 C 0.07803 0.67504 0.3687 0.0
C1591 C 0.09441 0.6878 0.34581 0.0
C1592 C 0.08622 0.68094 0.39972 0.0
C1593 C 0.06255 0.65629 0.41054 0.0
N1594 N 0.09025 0.68631 0.36285 0.0
N1595 N 0.06399 0.66055 0.39352 0.0
H1596 H 0.43279 0.34764 0.82916 0.0
H1597 H 0.40562 0.32171 0.92535 0.0
H1598 H 0.39549 0.30789 0.84102 0.0
H1599 H 0.44554 0.35887 0.91359 0.0
H1600 H 0.4039 0.31433 0.89467 0.0
H1601 H 0.4398 0.34978 0.85991 0.0
C1602 C 0.42624 0.33917 0.83819 0.0
C1603 C 0.41343 0.32765 0.83247 0.0
C1604 C 0.41319 0.32395 0.89881 0.0
C1605 C 0.42127 0.33019 0.86782 0.0
C1606 C 0.41421 0.32816 0.91636 0.0
C1607 C 0.42566 0.34103 0.92208 0.0
C1608 C 0.42359 0.33277 0.88679 0.0
C1609 C 0.43648 0.3489 0.90979 0.0
C1610 C 0.43024 0.34043 0.85578 0.0
C1611 C 0.40541 0.317 0.84481 0.0
N1612 N 0.43504 0.34479 0.89273 0.0
N1613 N 0.40932 0.31867 0.86189 0.0
H1614 H 0.92545 0.9091 0.68584 0.0
H1615 H 0.82928 0.93424 0.65852 0.0
H1616 H 0.91357 0.94852 0.64819 0.0
H1617 H 0.8414 0.89774 0.69893 0.0
H1618 H 0.85986 0.94206 0.65684 0.0
H1619 H 0.8948 0.90725 0.69315 0.0
C1620 C 0.91643 0.91758 0.67929 0.0
C1621 C 0.92211 0.92889 0.66627 0.0
C1622 C 0.85582 0.9325 0.66624 0.0
C1623 C 0.88684 0.92664 0.67442 0.0
C1624 C 0.83833 0.92804 0.66723 0.0
C1625 C 0.83275 0.91519 0.67879 0.0
C1626 C 0.8679 0.92397 0.67678 0.0
C1627 C 0.84509 0.90765 0.68977 0.0
C1628 C 0.89889 0.91648 0.68345 0.0
C1629 C 0.9098 0.93958 0.65828 0.0
N1630 N 0.86208 0.912 0.68835 0.0
N1631 N 0.89273 0.93803 0.66232 0.0
H1632 H 0.84717 0.17662 0.43529 0.0
H1633 H 0.85118 0.08886 0.4524 0.0
H1634 H 0.80723 0.16445 0.39832 0.0
H1635 H 0.82424 0.08307 0.4039 0.0
H1636 H 0.84453 0.11963 0.45209 0.0
H1637 H 0.8492 0.14625 0.44279 0.0
C1638 C 0.83851 0.16757 0.42902 0.0
C1639 C 0.82704 0.17315 0.4161 0.0
C1640 C 0.84018 0.11177 0.44139 0.0
C1641 C 0.82911 0.13795 0.42481 0.0
C1642 C 0.84381 0.09407 0.44169 0.0
C1643 C 0.8385 0.08336 0.42803 0.0
C1644 C 0.83138 0.11895 0.42715 0.0
C1645 C 0.82876 0.09082 0.41464 0.0
C1646 C 0.83959 0.1501 0.43341 0.0
C1647 C 0.81624 0.16077 0.40837 0.0
N1648 N 0.82568 0.10815 0.41445 0.0
N1649 N 0.81771 0.14375 0.41268 0.0
H1650 H 0.67504 0.07206 0.15761 0.0
H1651 H 0.57837 0.09783 0.18302 0.0
H1652 H 0.66252 0.10879 0.19769 0.0
H1653 H 0.59088 0.05751 0.14654 0.0
H1654 H 0.609 0.10015 0.19047 0.0
H1655 H 0.6444 0.06467 0.15526 0.0
C1656 C 0.66589 0.07841 0.16609 0.0
C1657 C 0.67139 0.09116 0.17779 0.0
C1658 C 0.60504 0.09064 0.18099 0.0
C1659 C 0.63616 0.08289 0.17501 0.0
C1660 C 0.58752 0.08928 0.17674 0.0
C1661 C 0.58202 0.07753 0.16404 0.0
C1662 C 0.61724 0.08028 0.17237 0.0
C1663 C 0.5945 0.06679 0.15637 0.0
C1664 C 0.64836 0.07419 0.16472 0.0
C1665 C 0.6589 0.09892 0.18846 0.0
N1666 N 0.61152 0.06856 0.16051 0.0
N1667 N 0.64188 0.09481 0.18668 0.0
H1668 H 0.64438 0.91303 0.94686 0.0
H1669 H 0.69724 0.8403 0.89541 0.0
H1670 H 0.681 0.92417 0.90626 0.0
H1671 H 0.65618 0.82919 0.93153 0.0
H1672 H 0.69487 0.87099 0.90269 0.0
H1673 H 0.65197 0.88241 0.94484 0.0
C1674 C 0.65421 0.9091 0.93769 0.0
C1675 C 0.66196 0.92122 0.92662 0.0
C1676 C 0.68651 0.86182 0.90917 0.0
C1677 C 0.67062 0.88607 0.92414 0.0
C1678 C 0.68791 0.84426 0.90507 0.0
C1679 C 0.6768 0.83212 0.91276 0.0
C1680 C 0.67392 0.86733 0.92106 0.0
C1681 C 0.66495 0.83807 0.92519 0.0
C1682 C 0.65849 0.89157 0.9365 0.0
C1683 C 0.67461 0.9153 0.915 0.0
N1684 N 0.66373 0.85524 0.92883 0.0
N1685 N 0.67843 0.89815 0.91397 0.0
H1686 H 0.82903 0.07229 0.84857 0.0
H1687 H 0.92553 0.09821 0.82256 0.0
H1688 H 0.84133 0.10895 0.80834 0.0
H1689 H 0.91325 0.05876 0.86006 0.0
H1690 H 0.89489 0.10022 0.81512 0.0
H1691 H 0.8597 0.06505 0.85089 0.0
C1692 C 0.83814 0.07865 0.84004 0.0
C1693 C 0.83257 0.09135 0.82832 0.0
C1694 C 0.8989 0.09097 0.82483 0.0
C1695 C 0.86783 0.08325 0.83108 0.0
C1696 C 0.91643 0.08979 0.82907 0.0
C1697 C 0.922 0.07838 0.84206 0.0
C1698 C 0.88676 0.08077 0.83372 0.0
C1699 C 0.90957 0.06778 0.85001 0.0
C1700 C 0.85569 0.07453 0.8414 0.0
C1701 C 0.845 0.09912 0.8176 0.0
N1702 N 0.89255 0.06937 0.84586 0.0
N1703 N 0.86204 0.09509 0.81937 0.0
H1704 H 0.65754 0.17602 0.57165 0.0
H1705 H 0.6837 0.07981 0.59831 0.0
H1706 H 0.6972 0.1641 0.60904 0.0
H1707 H 0.64675 0.0917 0.55823 0.0
H1708 H 0.69098 0.11049 0.60027 0.0
H1709 H 0.65557 0.14533 0.56441 0.0
C1710 C 0.66602 0.16699 0.57818 0.0
C1711 C 0.67746 0.17267 0.59108 0.0
C1712 C 0.68143 0.10638 0.59089 0.0
C1713 C 0.67512 0.13738 0.58297 0.0
C1714 C 0.67728 0.08883 0.58974 0.0
C1715 C 0.66449 0.08315 0.57817 0.0
C1716 C 0.67264 0.11843 0.5805 0.0
C1717 C 0.65665 0.09547 0.56737 0.0
C1718 C 0.66486 0.14943 0.57405 0.0
C1719 C 0.68814 0.16033 0.59905 0.0
N1720 N 0.66071 0.11253 0.56894 0.0
N1721 N 0.68657 0.14327 0.59501 0.0
H1722 H 0.59059 0.94845 0.35581 0.0
H1723 H 0.66397 0.89653 0.30432 0.0
H1724 H 0.58014 0.90734 0.31957 0.0
H1725 H 0.67463 0.93259 0.34555 0.0
H1726 H 0.63334 0.90414 0.30606 0.0
H1727 H 0.62133 0.94661 0.34847 0.0
C1728 C 0.59469 0.93925 0.34608 0.0
C1729 C 0.58275 0.92793 0.33841 0.0
C1730 C 0.6424 0.91054 0.31459 0.0
C1731 C 0.61798 0.92564 0.33005 0.0
C1732 C 0.65993 0.90625 0.31356 0.0
C1733 C 0.67191 0.91381 0.32491 0.0
C1734 C 0.63675 0.9225 0.32707 0.0
C1735 C 0.66587 0.92633 0.33662 0.0
C1736 C 0.61228 0.93814 0.34196 0.0
C1737 C 0.58887 0.91624 0.32591 0.0
N1738 N 0.64871 0.93016 0.33749 0.0
N1739 N 0.60604 0.9153 0.32225 0.0
H1740 H 0.80745 0.84227 0.10946 0.0
H1741 H 0.86045 0.91464 0.05763 0.0
H1742 H 0.84843 0.83085 0.07335 0.0
H1743 H 0.82372 0.92602 0.09806 0.0
H1744 H 0.85285 0.88402 0.05981 0.0
H1745 H 0.8099 0.87291 0.10201 0.0
C1746 C 0.81679 0.84615 0.09977 0.0
C1747 C 0.82784 0.83394 0.09213 0.0
C1748 C 0.84631 0.89324 0.06808 0.0
C1749 C 0.83082 0.8691 0.08363 0.0
C1750 C 0.85059 0.91076 0.06679 0.0
C1751 C 0.84282 0.92295 0.07777 0.0
C1752 C 0.83414 0.88781 0.08044 0.0
C1753 C 0.83014 0.9171 0.08939 0.0
C1754 C 0.81823 0.86368 0.09557 0.0
C1755 C 0.83969 0.83978 0.07966 0.0
N1756 N 0.82631 0.89996 0.09052 0.0
N1757 N 0.84096 0.85693 0.07591 0.0
H1758 H 0.90645 0.68405 0.92541 0.0
H1759 H 0.93257 0.65848 0.82888 0.0
H1760 H 0.94674 0.64749 0.91304 0.0
H1761 H 0.89524 0.69806 0.84122 0.0
H1762 H 0.94004 0.65643 0.85952 0.0
H1763 H 0.90427 0.69151 0.89477 0.0
C1764 C 0.91502 0.67776 0.91629 0.0
C1765 C 0.92671 0.66502 0.92183 0.0
C1766 C 0.93037 0.66572 0.85552 0.0
C1767 C 0.92412 0.67337 0.8866 0.0
C1768 C 0.9261 0.66693 0.838 0.0
C1769 C 0.91315 0.67837 0.83245 0.0
C1770 C 0.92152 0.67593 0.86768 0.0
C1771 C 0.90526 0.68901 0.84488 0.0
C1772 C 0.91374 0.68201 0.89876 0.0
C1773 C 0.9375 0.65734 0.90939 0.0
N1774 N 0.90942 0.68739 0.86191 0.0
N1775 N 0.9358 0.66149 0.89236 0.0
H1776 H 0.44865 0.85935 0.08941 0.0
H1777 H 0.39652 0.80735 0.16234 0.0
H1778 H 0.40744 0.82338 0.07843 0.0
H1779 H 0.43322 0.8479 0.17338 0.0
H1780 H 0.40377 0.80962 0.13163 0.0
H1781 H 0.44655 0.85186 0.12008 0.0
C1782 C 0.43934 0.84968 0.09339 0.0
C1783 C 0.42812 0.84209 0.0813 0.0
C1784 C 0.41038 0.8179 0.14079 0.0
C1785 C 0.42555 0.83354 0.11649 0.0
C1786 C 0.4063 0.81656 0.15836 0.0
C1787 C 0.41417 0.82754 0.17049 0.0
C1788 C 0.42244 0.83031 0.13524 0.0
C1789 C 0.42674 0.83922 0.16451 0.0
C1790 C 0.4381 0.84546 0.11094 0.0
C1791 C 0.4163 0.82964 0.08727 0.0
N1792 N 0.43037 0.84039 0.14733 0.0
N1793 N 0.41523 0.82587 0.10443 0.0
H1794 H 0.07202 0.15704 0.67565 0.0
H1795 H 0.09749 0.18199 0.57875 0.0
H1796 H 0.10881 0.19696 0.66281 0.0
H1797 H 0.05747 0.1453 0.59159 0.0
H1798 H 0.09982 0.18965 0.60933 0.0
H1799 H 0.06451 0.15457 0.64505 0.0
C1800 C 0.07835 0.16547 0.66643 0.0
C1801 C 0.09116 0.17715 0.67184 0.0
C1802 C 0.09037 0.18007 0.60546 0.0
C1803 C 0.08276 0.17422 0.63664 0.0
C1804 C 0.08901 0.1757 0.58796 0.0
C1805 C 0.07734 0.16288 0.58256 0.0
C1806 C 0.0801 0.17147 0.61773 0.0
C1807 C 0.06668 0.15522 0.59512 0.0
C1808 C 0.07407 0.16403 0.64892 0.0
C1809 C 0.09889 0.18774 0.65926 0.0
N1810 N 0.06845 0.15949 0.61211 0.0
N1811 N 0.09472 0.18589 0.64226 0.0
H1812 H 0.10382 0.80593 0.84127 0.0
H1813 H 0.05309 0.85807 0.91493 0.0
H1814 H 0.06732 0.84679 0.83079 0.0
H1815 H 0.09408 0.82165 0.9252 0.0
H1816 H 0.05442 0.85041 0.88426 0.0
H1817 H 0.09656 0.80776 0.87198 0.0
C1818 C 0.09404 0.81507 0.84536 0.0
C1819 C 0.08629 0.82633 0.8334 0.0
C1820 C 0.06298 0.84394 0.89325 0.0
C1821 C 0.07805 0.82864 0.86868 0.0
C1822 C 0.06219 0.84826 0.9108 0.0
C1823 C 0.0736 0.84061 0.92268 0.0
C1824 C 0.07527 0.83186 0.88748 0.0
C1825 C 0.0851 0.82798 0.91652 0.0
C1826 C 0.08996 0.81618 0.86294 0.0
C1827 C 0.0737 0.83792 0.83953 0.0
N1828 N 0.08575 0.82412 0.89936 0.0
N1829 N 0.07012 0.83889 0.85674 0.0
H1830 H 0.55637 0.35693 0.41242 0.0
H1831 H 0.60935 0.30681 0.33882 0.0
H1832 H 0.59847 0.32188 0.423 0.0
H1833 H 0.57216 0.34709 0.32853 0.0
H1834 H 0.6019 0.30828 0.36956 0.0
H1835 H 0.55842 0.34959 0.38173 0.0
C1836 C 0.56588 0.34748 0.40835 0.0
C1837 C 0.57736 0.34013 0.42033 0.0
C1838 C 0.59521 0.31664 0.36055 0.0
C1839 C 0.57988 0.33176 0.3851 0.0
C1840 C 0.59939 0.31574 0.34296 0.0
C1841 C 0.59148 0.32694 0.33106 0.0
C1842 C 0.583 0.32881 0.36631 0.0
C1843 C 0.5787 0.33828 0.33723 0.0
C1844 C 0.56709 0.34335 0.39078 0.0
C1845 C 0.58941 0.32796 0.41424 0.0
N1846 N 0.57497 0.33902 0.35441 0.0
N1847 N 0.59045 0.32428 0.39705 0.0
H1848 H 0.9323 0.34866 0.6749 0.0
H1849 H 0.9066 0.32242 0.57841 0.0
H1850 H 0.89554 0.30855 0.66257 0.0
H1851 H 0.94629 0.3597 0.59058 0.0
H1852 H 0.90454 0.31507 0.60907 0.0
H1853 H 0.93974 0.35081 0.64424 0.0
C1854 C 0.92596 0.34013 0.66579 0.0
C1855 C 0.91317 0.32849 0.67135 0.0
C1856 C 0.91386 0.32471 0.60504 0.0
C1857 C 0.9215 0.33104 0.6361 0.0
C1858 C 0.91507 0.3289 0.58749 0.0
C1859 C 0.92656 0.3418 0.58189 0.0
C1860 C 0.92408 0.33358 0.61716 0.0
C1861 C 0.93722 0.34971 0.59429 0.0
C1862 C 0.9302 0.34139 0.64825 0.0
C1863 C 0.90543 0.31775 0.65891 0.0
N1864 N 0.93558 0.34562 0.61134 0.0
N1865 N 0.90957 0.31942 0.64188 0.0
H1866 H 0.57093 0.65653 0.17563 0.0
H1867 H 0.5964 0.68224 0.07895 0.0
H1868 H 0.60749 0.69676 0.16309 0.0
H1869 H 0.55652 0.64529 0.09147 0.0
H1870 H 0.59864 0.68972 0.10957 0.0
H1871 H 0.56347 0.6542 0.145 0.0
C1872 C 0.57723 0.66505 0.16647 0.0
C1873 C 0.58996 0.67678 0.17197 0.0
C1874 C 0.58924 0.68012 0.10562 0.0
C1875 C 0.58161 0.67403 0.13674 0.0
C1876 C 0.58793 0.67586 0.0881 0.0
C1877 C 0.57633 0.66301 0.0826 0.0
C1878 C 0.57899 0.67139 0.11782 0.0
C1879 C 0.56568 0.65523 0.09509 0.0
C1880 C 0.57297 0.66369 0.14895 0.0
C1881 C 0.59764 0.6875 0.15947 0.0
N1882 N 0.5674 0.65939 0.11211 0.0
N1883 N 0.59349 0.68573 0.14245 0.0
H1884 H 0.5912 0.55505 0.8581 0.0
H1885 H 0.66315 0.60753 0.80517 0.0
H1886 H 0.57954 0.5959 0.82193 0.0
H1887 H 0.67484 0.57167 0.84629 0.0
H1888 H 0.63258 0.59984 0.80762 0.0
H1889 H 0.62178 0.55742 0.85039 0.0
C1890 C 0.59501 0.56434 0.84834 0.0
C1891 C 0.58276 0.57539 0.84076 0.0
C1892 C 0.64185 0.5935 0.81598 0.0
C1893 C 0.61785 0.57826 0.83196 0.0
C1894 C 0.65935 0.59784 0.81453 0.0
C1895 C 0.67161 0.59034 0.82563 0.0
C1896 C 0.63652 0.58157 0.82861 0.0
C1897 C 0.66586 0.57786 0.83752 0.0
C1898 C 0.61251 0.56573 0.844 0.0
C1899 C 0.58852 0.58718 0.8282 0.0
N1900 N 0.64875 0.57398 0.83879 0.0
N1901 N 0.60563 0.5884 0.8243 0.0
H1902 H 0.65157 0.41461 0.05302 0.0
H1903 H 0.70285 0.34024 0.10337 0.0
H1904 H 0.68847 0.42432 0.09373 0.0
H1905 H 0.66164 0.33049 0.06703 0.0
H1906 H 0.70175 0.37093 0.09588 0.0
H1907 H 0.65914 0.38393 0.05392 0.0
C1908 C 0.66151 0.41037 0.06193 0.0
C1909 C 0.66926 0.42208 0.07344 0.0
C1910 C 0.69311 0.36205 0.08936 0.0
C1911 C 0.67787 0.38685 0.07466 0.0
C1912 C 0.69378 0.34448 0.09357 0.0
C1913 C 0.6822 0.33275 0.08595 0.0
C1914 C 0.68075 0.368 0.07744 0.0
C1915 C 0.67075 0.33905 0.07333 0.0
C1916 C 0.66577 0.3928 0.06249 0.0
C1917 C 0.68206 0.41577 0.08469 0.0
N1918 N 0.67019 0.35625 0.06962 0.0
N1919 N 0.68581 0.39858 0.08515 0.0
H1920 H 0.8399 0.40306 0.30757 0.0
H1921 H 0.91553 0.45282 0.35773 0.0
H1922 H 0.831 0.43893 0.34937 0.0
H1923 H 0.92417 0.41217 0.3205 0.0
H1924 H 0.88463 0.45197 0.35095 0.0
H1925 H 0.87063 0.41042 0.30823 0.0
C1926 C 0.84433 0.41273 0.31668 0.0
C1927 C 0.83283 0.42025 0.32855 0.0
C1928 C 0.89332 0.4434 0.34409 0.0
C1929 C 0.86813 0.42861 0.32952 0.0
C1930 C 0.911 0.44393 0.3479 0.0
C1931 C 0.92248 0.43243 0.3398 0.0
C1932 C 0.88704 0.43129 0.33207 0.0
C1933 C 0.91581 0.42119 0.32718 0.0
C1934 C 0.86192 0.41687 0.31711 0.0
C1935 C 0.83938 0.43271 0.34005 0.0
N1936 N 0.89854 0.42079 0.32384 0.0
N1937 N 0.8566 0.43635 0.34037 0.0
H1938 H 0.80618 0.66442 0.60948 0.0
H1939 H 0.85893 0.59159 0.55807 0.0
H1940 H 0.84683 0.67548 0.57289 0.0
H1941 H 0.82285 0.58062 0.5992 0.0
H1942 H 0.85114 0.62219 0.55986 0.0
H1943 H 0.80861 0.6337 0.60236 0.0
C1944 C 0.81543 0.66044 0.59975 0.0
C1945 C 0.82641 0.67257 0.59188 0.0
C1946 C 0.84478 0.61306 0.56837 0.0
C1947 C 0.82937 0.63733 0.58377 0.0
C1948 C 0.84917 0.59555 0.5673 0.0
C1949 C 0.84164 0.5835 0.5786 0.0
C1950 C 0.83275 0.6186 0.58082 0.0
C1951 C 0.82908 0.58944 0.5903 0.0
C1952 C 0.81686 0.64287 0.59574 0.0
C1953 C 0.83816 0.66661 0.57937 0.0
N1954 N 0.82515 0.60657 0.5912 0.0
N1955 N 0.83942 0.64942 0.57582 0.0
H1956 H 0.5879 0.45006 0.64786 0.0
H1957 H 0.67576 0.43306 0.65474 0.0
H1958 H 0.58145 0.40329 0.67758 0.0
H1959 H 0.66232 0.398 0.69599 0.0
H1960 H 0.64543 0.44048 0.65148 0.0
H1961 H 0.61863 0.44985 0.65475 0.0
C1962 C 0.59295 0.43976 0.6559 0.0
C1963 C 0.58207 0.42655 0.66194 0.0
C1964 C 0.64899 0.43153 0.66161 0.0
C1965 C 0.6176 0.42578 0.66939 0.0
C1966 C 0.66644 0.42719 0.6634 0.0
C1967 C 0.67165 0.41484 0.67563 0.0
C1968 C 0.63654 0.42346 0.67214 0.0
C1969 C 0.65893 0.4076 0.68639 0.0
C1970 C 0.61064 0.43951 0.65967 0.0
C1971 C 0.58934 0.41368 0.67249 0.0
N1972 N 0.64199 0.41185 0.68424 0.0
N1973 N 0.60663 0.41354 0.67573 0.0
H1974 H 0.80656 0.34183 0.89544 0.0
H1975 H 0.8594 0.41416 0.94752 0.0
H1976 H 0.84757 0.33037 0.9315 0.0
H1977 H 0.82294 0.42557 0.90686 0.0
H1978 H 0.85183 0.38354 0.94525 0.0
H1979 H 0.80901 0.37246 0.90292 0.0
C1980 C 0.81591 0.3457 0.90513 0.0
C1981 C 0.82697 0.33348 0.91275 0.0
C1982 C 0.84534 0.39276 0.93695 0.0
C1983 C 0.82994 0.36864 0.92128 0.0
C1984 C 0.84961 0.41028 0.93829 0.0
C1985 C 0.8419 0.42248 0.92727 0.0
C1986 C 0.83325 0.38734 0.9245 0.0
C1987 C 0.8293 0.41664 0.91556 0.0
C1988 C 0.81735 0.36323 0.90934 0.0
C1989 C 0.83883 0.33932 0.92522 0.0
N1990 N 0.82548 0.3995 0.91439 0.0
N1991 N 0.84009 0.35646 0.92898 0.0
H1992 H 0.92562 0.59742 0.18247 0.0
H1993 H 0.8286 0.57261 0.1575 0.0
H1994 H 0.91252 0.55792 0.14531 0.0
H1995 H 0.84171 0.60925 0.19749 0.0
H1996 H 0.85914 0.56493 0.15495 0.0
H1997 H 0.89509 0.59981 0.19023 0.0
C1998 C 0.91636 0.58907 0.1761 0.0
C1999 C 0.92167 0.57753 0.16312 0.0
C2000 C 0.85534 0.5745 0.16444 0.0
C2001 C 0.88655 0.58036 0.17182 0.0
C2002 C 0.83786 0.57888 0.16593 0.0
C2003 C 0.83256 0.5917 0.17765 0.0
C2004 C 0.86768 0.5831 0.17463 0.0
C2005 C 0.84518 0.59933 0.18824 0.0
C2006 C 0.89889 0.59046 0.18053 0.0
C2007 C 0.90905 0.56703 0.15535 0.0
N2008 N 0.86215 0.59506 0.18634 0.0
N2009 N 0.89208 0.56883 0.15968 0.0
H2010 H 0.64432 0.59194 0.44845 0.0
H2011 H 0.69777 0.66364 0.39611 0.0
H2012 H 0.68127 0.58006 0.40836 0.0
H2013 H 0.65661 0.67554 0.43186 0.0
H2014 H 0.69521 0.63309 0.40388 0.0
H2015 H 0.65198 0.62253 0.44596 0.0
C2016 C 0.65424 0.59571 0.43931 0.0
C2017 C 0.66206 0.58338 0.42851 0.0
C2018 C 0.68686 0.6424 0.41017 0.0
C2019 C 0.6708 0.61848 0.42548 0.0
C2020 C 0.68837 0.65989 0.40579 0.0
C2021 C 0.67729 0.6722 0.41324 0.0
C2022 C 0.67419 0.63714 0.4221 0.0
C2023 C 0.66535 0.66652 0.4257 0.0
C2024 C 0.65856 0.61321 0.43784 0.0
C2025 C 0.67481 0.58908 0.41689 0.0
N2026 N 0.66403 0.64942 0.42962 0.0
N2027 N 0.67868 0.6062 0.41559 0.0
H2028 H 0.59917 0.82164 0.57863 0.0
H2029 H 0.57221 0.84796 0.67472 0.0
H2030 H 0.5595 0.85908 0.59028 0.0
H2031 H 0.60891 0.80763 0.66294 0.0
H2032 H 0.56517 0.85009 0.64398 0.0
H2033 H 0.60072 0.8142 0.6093 0.0
C2034 C 0.5906 0.82813 0.5876 0.0
C2035 C 0.57927 0.84111 0.58185 0.0
C2036 C 0.57461 0.84061 0.64812 0.0
C2037 C 0.58114 0.83279 0.61713 0.0
C2038 C 0.57862 0.83936 0.66571 0.0
C2039 C 0.59128 0.82768 0.67145 0.0
C2040 C 0.58342 0.83021 0.6361 0.0
C2041 C 0.59911 0.81687 0.65914 0.0
C2042 C 0.59151 0.82389 0.60515 0.0
C2043 C 0.56846 0.84904 0.59411 0.0
N2044 N 0.59521 0.81854 0.64205 0.0
N2045 N 0.5698 0.8449 0.61117 0.0
H2046 H 0.42656 0.40782 0.18439 0.0
H2047 H 0.33092 0.43401 0.15597 0.0
H2048 H 0.41558 0.44738 0.14662 0.0
H2049 H 0.34215 0.39804 0.19711 0.0
H2050 H 0.36166 0.44121 0.15431 0.0
H2051 H 0.39578 0.40624 0.19125 0.0
C2052 C 0.41771 0.41638 0.17771 0.0
C2053 C 0.42369 0.42767 0.16481 0.0
C2054 C 0.35739 0.4319 0.16385 0.0
C2055 C 0.38826 0.42573 0.17244 0.0
C2056 C 0.3398 0.42779 0.16483 0.0
C2057 C 0.33391 0.41529 0.17662 0.0
C2058 C 0.36925 0.42335 0.17464 0.0
C2059 C 0.34607 0.4077 0.18778 0.0
C2060 C 0.40009 0.41544 0.18162 0.0
C2061 C 0.41158 0.43846 0.15663 0.0
N2062 N 0.36315 0.4117 0.18638 0.0
N2063 N 0.39444 0.43707 0.16043 0.0
H2064 H 0.34845 0.67619 0.93239 0.0
H2065 H 0.32173 0.57984 0.90688 0.0
H2066 H 0.30816 0.66413 0.89573 0.0
H2067 H 0.3589 0.59202 0.94666 0.0
H2068 H 0.3145 0.61052 0.9047 0.0
H2069 H 0.35037 0.64556 0.93988 0.0
C2070 C 0.33983 0.66714 0.92608 0.0
C2071 C 0.32821 0.67277 0.91331 0.0
C2072 C 0.32408 0.60648 0.91406 0.0
C2073 C 0.3305 0.63754 0.92169 0.0
C2074 C 0.32821 0.58892 0.91534 0.0
C2075 C 0.34105 0.58332 0.92689 0.0
C2076 C 0.33296 0.6186 0.92429 0.0
C2077 C 0.34897 0.59572 0.93753 0.0
C2078 C 0.34095 0.64962 0.93035 0.0
C2079 C 0.31734 0.66041 0.90562 0.0
N2080 N 0.34494 0.61277 0.93584 0.0
N2081 N 0.3189 0.64338 0.90977 0.0
H2082 H 0.16772 0.6036 0.70188 0.0
H2083 H 0.07979 0.59818 0.68435 0.0
H2084 H 0.17385 0.57358 0.65526 0.0
H2085 H 0.09281 0.55691 0.64916 0.0
H2086 H 0.1101 0.60081 0.69212 0.0
H2087 H 0.13685 0.59724 0.70155 0.0
C2088 C 0.16258 0.59557 0.69162 0.0
C2089 C 0.17341 0.58932 0.67846 0.0
C2090 C 0.10644 0.59082 0.68306 0.0
C2091 C 0.13775 0.58249 0.67753 0.0
C2092 C 0.089 0.58939 0.67852 0.0
C2093 C 0.08369 0.57734 0.66603 0.0
C2094 C 0.11878 0.58011 0.67505 0.0
C2095 C 0.09628 0.5664 0.65885 0.0
C2096 C 0.14482 0.59212 0.69128 0.0
C2097 C 0.16601 0.57883 0.6656 0.0
N2098 N 0.11321 0.56819 0.6633 0.0
N2099 N 0.14867 0.5759 0.66539 0.0
H2100 H 0.18765 0.4251 0.40978 0.0
H2101 H 0.15937 0.3297 0.43673 0.0
H2102 H 0.15008 0.41397 0.4495 0.0
H2103 H 0.19952 0.34046 0.39952 0.0
H2104 H 0.15847 0.36037 0.44418 0.0
H2105 H 0.19489 0.39435 0.40849 0.0
C2106 C 0.18114 0.41626 0.41847 0.0
C2107 C 0.16811 0.42216 0.42967 0.0
C2108 C 0.16765 0.35602 0.43455 0.0
C2109 C 0.17618 0.38681 0.42805 0.0
C2110 C 0.16821 0.33846 0.43031 0.0
C2111 C 0.17944 0.33247 0.41737 0.0
C2112 C 0.1783 0.36778 0.42568 0.0
C2113 C 0.19061 0.34448 0.40954 0.0
C2114 C 0.18525 0.39866 0.41767 0.0
C2115 C 0.16014 0.41004 0.44061 0.0
N2116 N 0.18959 0.36157 0.41365 0.0
N2117 N 0.16414 0.39295 0.43936 0.0
H2118 H 0.41311 0.55296 0.35613 0.0
H2119 H 0.34041 0.60625 0.30508 0.0
H2120 H 0.42431 0.59524 0.32149 0.0
H2121 H 0.32948 0.56923 0.34537 0.0
H2122 H 0.3711 0.59869 0.30696 0.0
H2123 H 0.38255 0.55511 0.34835 0.0
C2124 C 0.40921 0.56253 0.34669 0.0
C2125 C 0.42132 0.57404 0.33958 0.0
C2126 C 0.36195 0.59206 0.31523 0.0
C2127 C 0.38623 0.57667 0.3307 0.0
C2128 C 0.3444 0.59631 0.3141 0.0
C2129 C 0.33234 0.58847 0.32519 0.0
C2130 C 0.36751 0.57986 0.3275 0.0
C2131 C 0.33831 0.57571 0.33665 0.0
C2132 C 0.39172 0.5638 0.34229 0.0
C2133 C 0.41544 0.58616 0.32739 0.0
N2134 N 0.35546 0.57191 0.33761 0.0
N2135 N 0.39832 0.58726 0.32346 0.0
H2136 H 0.14592 0.59205 0.05626 0.0
H2137 H 0.19839 0.66402 0.10918 0.0
H2138 H 0.18221 0.58036 0.09699 0.0
H2139 H 0.15722 0.67567 0.07337 0.0
H2140 H 0.19612 0.63347 0.10131 0.0
H2141 H 0.15342 0.62267 0.05883 0.0
C2142 C 0.15566 0.59586 0.06556 0.0
C2143 C 0.16334 0.58359 0.07652 0.0
C2144 C 0.18771 0.64273 0.09503 0.0
C2145 C 0.1719 0.61872 0.07963 0.0
C2146 C 0.18905 0.66022 0.09947 0.0
C2147 C 0.17789 0.67245 0.09203 0.0
C2148 C 0.17513 0.6374 0.08306 0.0
C2149 C 0.16603 0.6667 0.07952 0.0
C2150 C 0.15989 0.61338 0.06707 0.0
C2151 C 0.17588 0.58935 0.08833 0.0
N2152 N 0.16488 0.6496 0.07554 0.0
N2153 N 0.17966 0.60648 0.08967 0.0
H2154 H 0.17612 0.43237 0.84746 0.0
H2155 H 0.07943 0.40661 0.82215 0.0
H2156 H 0.16357 0.39545 0.80755 0.0
H2157 H 0.09202 0.44699 0.85854 0.0
H2158 H 0.11005 0.40424 0.81468 0.0
H2159 H 0.1455 0.43981 0.84976 0.0
C2160 C 0.16696 0.42599 0.839 0.0
C2161 C 0.17245 0.41317 0.82737 0.0
C2162 C 0.10611 0.41377 0.82415 0.0
C2163 C 0.13724 0.42149 0.8301 0.0
C2164 C 0.08859 0.41516 0.82841 0.0
C2165 C 0.08312 0.42695 0.84109 0.0
C2166 C 0.11833 0.42414 0.83273 0.0
C2167 C 0.09562 0.43769 0.84872 0.0
C2168 C 0.14944 0.43023 0.84034 0.0
C2169 C 0.15996 0.40537 0.81673 0.0
N2170 N 0.11263 0.43589 0.84457 0.0
N2171 N 0.14294 0.40951 0.81849 0.0
H2172 H 0.35844 0.41433 0.55564 0.0
H2173 H 0.30592 0.34045 0.60579 0.0
H2174 H 0.32045 0.42442 0.59524 0.0
H2175 H 0.34861 0.33015 0.57137 0.0
H2176 H 0.3076 0.37108 0.59816 0.0
H2177 H 0.35147 0.38349 0.55732 0.0
C2178 C 0.34841 0.41013 0.56446 0.0
C2179 C 0.34012 0.42201 0.57542 0.0
C2180 C 0.31648 0.36209 0.59212 0.0
C2181 C 0.33219 0.38665 0.57752 0.0
C2182 C 0.31548 0.34456 0.59642 0.0
C2183 C 0.32724 0.33269 0.58933 0.0
C2184 C 0.32933 0.36786 0.58062 0.0
C2185 C 0.33934 0.33883 0.57725 0.0
C2186 C 0.3445 0.39249 0.56548 0.0
C2187 C 0.32727 0.41575 0.58663 0.0
N2188 N 0.34017 0.35599 0.5734 0.0
N2189 N 0.32381 0.39853 0.58749 0.0
H2190 H 0.40762 0.18191 0.42556 0.0
H2191 H 0.43149 0.15693 0.32826 0.0
H2192 H 0.44739 0.14519 0.41208 0.0
H2193 H 0.39505 0.19699 0.34169 0.0
H2194 H 0.43942 0.15438 0.35875 0.0
H2195 H 0.40477 0.18954 0.39502 0.0
C2196 C 0.41593 0.17561 0.41621 0.0
C2197 C 0.42769 0.16279 0.42142 0.0
C2198 C 0.42984 0.16388 0.35502 0.0
C2199 C 0.42433 0.17134 0.3863 0.0
C2200 C 0.42531 0.16537 0.33758 0.0
C2201 C 0.41249 0.17712 0.33238 0.0
C2202 C 0.42138 0.1741 0.36744 0.0
C2203 C 0.40497 0.18772 0.34508 0.0
C2204 C 0.41428 0.17996 0.39874 0.0
C2205 C 0.43812 0.15511 0.40869 0.0
N2206 N 0.40938 0.18582 0.36201 0.0
N2207 N 0.43606 0.15936 0.39173 0.0
H2208 H 0.0203 0.09534 0.29499 0.0
H2209 H 0.94473 0.1012 0.24816 0.0
H2210 H 0.00339 0.1464 0.30975 0.0
H2211 H 0.95923 0.15406 0.23796 0.0
H2212 H 0.97148 0.09743 0.26467 0.0
H2213 H 0.00331 0.09779 0.26834 0.0
C2214 C 0.0135 0.1073 0.29237 0.0
C2215 C 0.01304 0.12062 0.30471 0.0
C2216 C 0.96911 0.10966 0.2583 0.0
C2217 C 0.99358 0.12337 0.27441 0.0
C2218 C 0.95383 0.11182 0.24891 0.0
C2219 C 0.9498 0.12794 0.24168 0.0
C2220 C 0.98012 0.12388 0.26087 0.0
C2221 C 0.96192 0.14138 0.24323 0.0
C2222 C 0.00368 0.10858 0.27725 0.0
C2223 C 0.00392 0.13577 0.30066 0.0
N2224 N 0.9763 0.13922 0.25313 0.0
N2225 N 0.99441 0.13668 0.28591 0.0
H2226 H 0.15535 0.76913 0.54576 0.0
H2227 H 0.1487 0.69314 0.49934 0.0
H2228 H 0.10401 0.75313 0.56059 0.0
H2229 H 0.09607 0.70829 0.48899 0.0
H2230 H 0.15272 0.71977 0.51602 0.0
H2231 H 0.15282 0.75162 0.51944 0.0
C2232 C 0.14332 0.76241 0.54322 0.0
C2233 C 0.12993 0.7624 0.55548 0.0
C2234 C 0.14048 0.71755 0.50959 0.0
C2235 C 0.12708 0.74234 0.52556 0.0
C2236 C 0.13818 0.70235 0.50012 0.0
C2237 C 0.12207 0.69856 0.49274 0.0
C2238 C 0.1264 0.72875 0.51213 0.0
C2239 C 0.10876 0.71081 0.49434 0.0
C2240 C 0.142 0.75229 0.5283 0.0
C2241 C 0.1147 0.75335 0.55155 0.0
N2242 N 0.11105 0.72512 0.50431 0.0
N2243 N 0.11374 0.74355 0.53698 0.0
H2244 H 0.5591 0.90151 0.74674 0.0
H2245 H 0.48314 0.90692 0.79286 0.0
H2246 H 0.54509 0.84854 0.73642 0.0
H2247 H 0.50027 0.85599 0.80779 0.0
H2248 H 0.50028 0.90453 0.76629 0.0
H2249 H 0.53213 0.90512 0.76294 0.0
C2250 C 0.55007 0.89083 0.7474 0.0
C2251 C 0.55429 0.87473 0.74024 0.0
C2252 C 0.49992 0.89375 0.77522 0.0
C2253 C 0.52372 0.8786 0.75905 0.0
C2254 C 0.49002 0.895 0.79028 0.0
C2255 C 0.4905 0.88171 0.80265 0.0
C2256 C 0.51013 0.87902 0.77246 0.0
C2257 C 0.49972 0.8666 0.79868 0.0
C2258 C 0.53466 0.89289 0.75659 0.0
C2259 C 0.54224 0.86121 0.74165 0.0
N2260 N 0.50932 0.86573 0.78398 0.0
N2261 N 0.52774 0.86329 0.75137 0.0
H2262 H 0.40433 0.29475 0.98338 0.0
H2263 H 0.39951 0.2485 0.05933 0.0
H2264 H 0.3531 0.30875 1.00042 0.0
H2265 H 0.34684 0.23713 0.04505 0.0
H2266 H 0.40292 0.26481 0.0324 0.0
H2267 H 0.40238 0.26814 1.00049 0.0
C2268 C 0.39244 0.29196 0.99023 0.0
C2269 C 0.37893 0.30409 0.9907 0.0
C2270 C 0.39081 0.25822 0.03486 0.0
C2271 C 0.37674 0.27385 0.01029 0.0
C2272 C 0.38886 0.24895 0.05024 0.0
C2273 C 0.37289 0.24146 0.05438 0.0
C2274 C 0.37652 0.26041 0.02385 0.0
C2275 C 0.35941 0.24262 0.04227 0.0
C2276 C 0.39144 0.27688 1.00012 0.0
C2277 C 0.36388 0.29984 0.99988 0.0
N2278 N 0.36135 0.25241 0.02779 0.0
N2279 N 0.36324 0.28512 0.00947 0.0
H2280 H 0.00727 0.85483 0.19562 0.0
H2281 H 0.96027 0.8488 0.27112 0.0
H2282 H 0.0175 0.90762 0.21032 0.0
H2283 H 0.94542 0.89979 0.25407 0.0
H2284 H 0.98698 0.85131 0.25423 0.0
H2285 H 0.99065 0.85099 0.22231 0.0
C2286 C 0.00649 0.86542 0.20476 0.0
C2287 C 0.01377 0.88154 0.20081 0.0
C2288 C 0.97803 0.86207 0.25455 0.0
C2289 C 0.99446 0.87741 0.23105 0.0
C2290 C 0.96288 0.86076 0.26431 0.0
C2291 C 0.9505 0.87403 0.26379 0.0
C2292 C 0.98087 0.87687 0.24445 0.0
C2293 C 0.95453 0.88918 0.25466 0.0
C2294 C 0.99706 0.86322 0.22 0.0
C2295 C 0.0122 0.89494 0.21297 0.0
N2296 N 0.96933 0.89014 0.24521 0.0
N2297 N 1.00223 0.89275 0.2273 0.0
H2298 H 0.35279 0.6948 0.50487 0.0
H2299 H 0.34905 0.77078 0.45852 0.0
H2300 H 0.40588 0.70799 0.51561 0.0
H2301 H 0.39996 0.7531 0.44415 0.0
H2302 H 0.35086 0.75345 0.48499 0.0
H2303 H 0.34981 0.72169 0.48842 0.0
C2304 C 0.36364 0.70364 0.50424 0.0
C2305 C 0.37958 0.69921 0.51163 0.0
C2306 C 0.36176 0.75371 0.4762 0.0
C2307 C 0.37642 0.7297 0.49251 0.0
C2308 C 0.36084 0.76372 0.46119 0.0
C2309 C 0.3743 0.76316 0.449 0.0
C2310 C 0.37632 0.7433 0.4791 0.0
C2311 C 0.38923 0.75372 0.45312 0.0
C2312 C 0.36193 0.719 0.4949 0.0
C2313 C 0.39332 0.71101 0.51023 0.0
N2314 N 0.38978 0.74401 0.46777 0.0
N2315 N 0.39159 0.72547 0.50037 0.0
H2316 H 0.48482 0.09846 0.70965 0.0
H2317 H 0.56058 0.10456 0.75618 0.0
H2318 H 0.50208 0.14926 0.6944 0.0
H2319 H 0.54588 0.15733 0.7665 0.0
H2320 H 0.53383 0.10069 0.73968 0.0
H2321 H 0.50178 0.10107 0.73631 0.0
C2322 C 0.49168 0.1104 0.71217 0.0
C2323 C 0.49226 0.12359 0.69969 0.0
C2324 C 0.53616 0.11293 0.74608 0.0
C2325 C 0.51165 0.12655 0.73 0.0
C2326 C 0.55144 0.11514 0.75545 0.0
C2327 C 0.55539 0.13126 0.76272 0.0
C2328 C 0.52509 0.1271 0.74355 0.0
C2329 C 0.54322 0.14465 0.7612 0.0
C2330 C 0.50148 0.11178 0.72729 0.0
C2331 C 0.50146 0.13873 0.7036 0.0
N2332 N 0.52886 0.14244 0.7513 0.0
N2333 N 0.51094 0.13974 0.71837 0.0
H2334 H 0.15652 0.23387 0.96007 0.0
H2335 H 0.15155 0.30955 0.00702 0.0
H2336 H 0.10599 0.25185 0.94475 0.0
H2337 H 0.09846 0.29573 0.01692 0.0
H2338 H 0.15501 0.28286 0.99031 0.0
H2339 H 0.15414 0.25093 0.98669 0.0
C2340 C 0.14468 0.24093 0.96256 0.0
C2341 C 0.13151 0.24165 0.95008 0.0
C2342 C 0.14278 0.28537 0.99665 0.0
C2343 C 0.12882 0.26116 0.98035 0.0
C2344 C 0.1408 0.3006 0.00615 0.0
C2345 C 0.12472 0.30479 0.01338 0.0
C2346 C 0.12842 0.27457 0.99395 0.0
C2347 C 0.11112 0.29288 0.01167 0.0
C2348 C 0.14344 0.25078 0.97766 0.0
C2349 C 0.11652 0.2511 0.95395 0.0
N2350 N 0.11311 0.27856 1.00166 0.0
N2351 N 0.11563 0.26063 0.96871 0.0
H2352 H 0.29486 0.01839 0.09723 0.0
H2353 H 0.23681 0.9594 0.15861 0.0
H2354 H 0.30872 0.00644 0.14992 0.0
H2355 H 0.24843 0.94601 0.10572 0.0
H2356 H 0.25366 0.98605 0.15521 0.0
H2357 H 0.26837 1.00129 0.10069 0.0
C2358 C 0.292 0.01275 0.10974 0.0
C2359 C 0.30404 0.01369 0.1233 0.0
C2360 C 0.25202 0.97751 0.14423 0.0
C2361 C 0.27381 0.99438 0.12729 0.0
C2362 C 0.24232 0.96239 0.14608 0.0
C2363 C 0.24137 0.95044 0.13244 0.0
C2364 C 0.2604 0.98086 0.12851 0.0
C2365 C 0.24896 0.95485 0.11657 0.0
C2366 C 0.27698 0.00291 0.11162 0.0
C2367 C 0.29981 0.00593 0.13913 0.0
N2368 N 0.2583 0.96967 0.11507 0.0
N2369 N 0.28508 0.99646 0.14067 0.0
H2370 H 0.2969 0.98489 0.40563 0.0
H2371 H 0.24987 0.06064 0.40274 0.0
H2372 H 0.31027 0.00337 0.35471 0.0
H2373 H 0.23753 0.04666 0.35019 0.0
H2374 H 0.2667 0.03395 0.40551 0.0
H2375 H 0.27013 1.00182 0.40438 0.0
C2376 C 0.29394 0.99202 0.39395 0.0
C2377 C 0.30592 0.99293 0.38032 0.0
C2378 C 0.2598 0.03643 0.39358 0.0
C2379 C 0.27548 0.01227 0.37891 0.0
C2380 C 0.25023 0.05166 0.392 0.0
C2381 C 0.24229 0.05581 0.37624 0.0
C2382 C 0.26184 0.02561 0.37913 0.0
C2383 C 0.24335 0.04386 0.36261 0.0
C2384 C 0.27876 1.00179 0.39335 0.0
C2385 C 0.30146 0.00247 0.36556 0.0
N2386 N 0.25344 0.02954 0.36418 0.0
N2387 N 0.28663 0.01191 0.3653 0.0
H2388 H 0.19505 1.00051 0.65443 0.0
H2389 H 0.25681 0.05873 0.60584 0.0
H2390 H 0.20876 0.98688 0.60212 0.0
H2391 H 0.26838 0.04618 0.65894 0.0
H2392 H 0.2398 0.03208 0.60364 0.0
H2393 H 0.22218 0.01669 0.65694 0.0
C2394 C 0.20401 1.0005 0.64367 0.0
C2395 C 0.19965 0.99242 0.62804 0.0
C2396 C 0.2465 0.03492 0.61561 0.0
C2397 C 0.23028 0.01135 0.63059 0.0
C2398 C 0.2562 0.05009 0.61686 0.0
C2399 C 0.26394 0.05466 0.6326 0.0
C2400 C 0.24405 0.02462 0.63037 0.0
C2401 C 0.26265 0.04309 0.64654 0.0
C2402 C 0.21947 0.00972 0.64509 0.0
C2403 C 0.21167 0.99289 0.61442 0.0
N2404 N 0.25243 0.02884 0.64527 0.0
N2405 N 0.22622 0.00266 0.61582 0.0
H2406 H 0.25845 0.94674 0.90229 0.0
H2407 H 0.19523 0.00564 0.85537 0.0
H2408 H 0.26827 0.96001 0.849 0.0
H2409 H 0.20915 0.01767 0.90802 0.0
H2410 H 0.2223 0.98946 0.85229 0.0
H2411 H 0.24103 0.97305 0.90523 0.0
C2412 C 0.25735 0.95544 0.89137 0.0
C2413 C 0.26472 0.95115 0.87536 0.0
C2414 C 0.21964 0.99606 0.86436 0.0
C2415 C 0.2444 0.98084 0.87847 0.0
C2416 C 0.20422 0.00528 0.86611 0.0
C2417 C 0.19995 0.01293 0.88198 0.0
C2418 C 0.23052 0.994 0.87876 0.0
C2419 C 0.21199 0.012 0.89554 0.0
C2420 C 0.24742 0.97044 0.89304 0.0
C2421 C 0.26282 0.96284 0.86158 0.0
N2422 N 0.22652 1.00225 0.89379 0.0
N2423 N 0.25243 0.97691 0.8633 0.0
H2424 H 0.60389 0.25612 0.05958 0.0
H2425 H 0.59804 0.20959 0.98378 0.0
H2426 H 0.65689 0.26592 0.04538 0.0
H2427 H 0.6487 0.19406 1.00121 0.0
H2428 H 0.6007 0.23617 1.00086 0.0
H2429 H 0.60013 0.23962 0.03281 0.0
C2430 C 0.61455 0.25528 0.05054 0.0
C2431 C 0.63069 0.26241 0.05464 0.0
C2432 C 0.61136 0.2271 1.00058 0.0
C2433 C 0.62666 0.24323 0.02431 0.0
C2434 C 0.60996 0.21203 0.99072 0.0
C2435 C 0.6231 0.1995 0.9913 0.0
C2436 C 0.62609 0.22971 0.01083 0.0
C2437 C 0.6382 0.2033 1.00059 0.0
C2438 C 0.6124 0.24591 0.03525 0.0
C2439 C 0.64419 0.26074 0.04261 0.0
N2440 N 0.63924 0.21802 0.01014 0.0
N2441 N 0.64203 0.25084 0.02822 0.0
H2442 H 0.99472 0.35549 0.30681 0.0
H2443 H 0.04536 0.35241 0.23348 0.0
H2444 H 0.98692 0.40942 0.29495 0.0
H2445 H 0.05941 0.403 0.25234 0.0
H2446 H 0.01823 0.35426 0.24974 0.0
H2447 H 0.01243 0.35269 0.28073 0.0
C2448 C 0.99627 0.36659 0.29841 0.0
C2449 C 0.98937 0.3827 0.30305 0.0
C2450 C 0.02713 0.36506 0.25002 0.0
C2451 C 0.00987 0.37971 0.27344 0.0
C2452 C 0.04252 0.36413 0.2406 0.0
C2453 C 0.05478 0.37749 0.24178 0.0
C2454 C 0.02393 0.37954 0.26048 0.0
C2455 C 0.05041 0.39233 0.25125 0.0
C2456 C 0.00634 0.36499 0.2835 0.0
C2457 C 0.99194 0.39673 0.2918 0.0
N2458 N 0.0354 0.3929 0.26038 0.0
N2459 N 0.00243 0.39504 0.27779 0.0
H2460 H 0.84583 0.73657 0.54565 0.0
H2461 H 0.9046 0.79663 0.486 0.0
H2462 H 0.89863 0.74956 0.55802 0.0
H2463 H 0.85139 0.80828 0.49797 0.0
H2464 H 0.90227 0.77004 0.5031 0.0
H2465 H 0.84828 0.75349 0.51894 0.0
C2466 C 0.85814 0.74241 0.54243 0.0
C2467 C 0.87203 0.74181 0.55411 0.0
C2468 C 0.89099 0.77818 0.50149 0.0
C2469 C 0.87487 0.76094 0.52363 0.0
C2470 C 0.89223 0.79327 0.49165 0.0
C2471 C 0.87819 0.80474 0.49072 0.0
C2472 C 0.87549 0.77437 0.51007 0.0
C2473 C 0.86255 0.79984 0.49848 0.0
C2474 C 0.85945 0.75214 0.52727 0.0
C2475 C 0.8876 0.74981 0.5494 0.0
N2476 N 0.86165 0.78506 0.50798 0.0
N2477 N 0.88857 0.75919 0.53455 0.0
H2478 H 0.98611 0.59658 0.20819 0.0
H2479 H 0.04646 0.65524 0.26758 0.0
H2480 H 0.9992 0.64926 0.19539 0.0
H2481 H 0.05886 0.60249 0.25439 0.0
H2482 H 0.01974 0.65282 0.25067 0.0
H2483 H 0.00334 0.59909 0.2347 0.0
C2484 C 0.99203 0.60889 0.21128 0.0
C2485 C 0.99137 0.62271 0.19953 0.0
C2486 C 0.02808 0.64165 0.25198 0.0
C2487 C 0.01084 0.62563 0.22978 0.0
C2488 C 0.04324 0.64294 0.2617 0.0
C2489 C 0.05492 0.62906 0.26225 0.0
C2490 C 0.02443 0.62625 0.24316 0.0
C2491 C 0.05023 0.61351 0.25419 0.0
C2492 C 1.00194 0.61023 0.22632 0.0
C2493 C 0.99949 0.63828 0.20407 0.0
N2494 N 0.03537 0.61255 0.24485 0.0
N2495 N 0.00903 0.63929 0.21881 0.0
H2496 H 0.45966 0.34653 0.76795 0.0
H2497 H 0.51905 0.40531 0.70763 0.0
H2498 H 0.44748 0.39947 0.75537 0.0
H2499 H 0.50677 0.3522 0.69581 0.0
H2500 H 0.50216 0.40293 0.73434 0.0
H2501 H 0.4862 0.3489 0.75075 0.0
C2502 C 0.46289 0.35886 0.76214 0.0
C2503 C 0.45131 0.37281 0.76295 0.0
C2504 C 0.50365 0.39168 0.72613 0.0
C2505 C 0.48159 0.37556 0.74349 0.0
C2506 C 0.51337 0.39295 0.71097 0.0
C2507 C 0.51416 0.37895 0.69942 0.0
C2508 C 0.49503 0.37619 0.72993 0.0
C2509 C 0.50637 0.36332 0.70431 0.0
C2510 C 0.47795 0.36012 0.75224 0.0
C2511 C 0.45603 0.3884 0.75497 0.0
N2512 N 0.49698 0.36239 0.71916 0.0
N2513 N 0.47077 0.38933 0.74543 0.0
H2514 H 0.98201 0.90604 0.71074 0.0
H2515 H 0.05869 0.90236 0.75569 0.0
H2516 H 0.99902 0.85486 0.69644 0.0
H2517 H 0.04556 0.8494 0.76711 0.0
H2518 H 0.03157 0.90526 0.73963 0.0
H2519 H 0.99983 0.90431 0.73685 0.0
C2520 C 0.98906 0.89422 0.71333 0.0
C2521 C 0.98928 0.88067 0.70123 0.0
C2522 C 0.03433 0.89319 0.74616 0.0
C2523 C 0.0097 0.87874 0.73095 0.0
C2524 C 0.04982 0.89153 0.75528 0.0
C2525 C 0.05432 0.87565 0.76275 0.0
C2526 C 0.02356 0.8787 0.74409 0.0
C2527 C 0.04248 0.86192 0.76165 0.0
C2528 C 0.99934 0.89335 0.72815 0.0
C2529 C 0.99867 0.86569 0.7053 0.0
N2530 N 0.02787 0.86359 0.75201 0.0
N2531 N 0.00867 0.86519 0.71976 0.0
H2532 H 0.84864 0.23368 0.46097 0.0
H2533 H 0.85266 0.31014 0.50646 0.0
H2534 H 0.90025 0.25 0.4474 0.0
H2535 H 0.90552 0.29658 0.51786 0.0
H2536 H 0.8496 0.28311 0.49027 0.0
H2537 H 0.85021 0.25153 0.48707 0.0
C2538 C 0.8605 0.24059 0.46372 0.0
C2539 C 0.87425 0.24059 0.45183 0.0
C2540 C 0.86168 0.28576 0.49683 0.0
C2541 C 0.87599 0.26107 0.48154 0.0
C2542 C 0.86344 0.3012 0.50602 0.0
C2543 C 0.87935 0.30557 0.51351 0.0
C2544 C 0.87609 0.27489 0.49473 0.0
C2545 C 0.89299 0.29363 0.51238 0.0
C2546 C 0.86129 0.2509 0.47853 0.0
C2547 C 0.88928 0.24981 0.4561 0.0
N2548 N 0.89122 0.27907 0.50269 0.0
N2549 N 0.88969 0.25983 0.47055 0.0
H2550 H 0.45776 0.15622 0.26998 0.0
H2551 H 0.50511 0.15104 0.19441 0.0
H2552 H 0.44232 0.10579 0.25181 0.0
H2553 H 0.5151 0.09809 0.2087 0.0
H2554 H 0.48806 0.15458 0.22088 0.0
H2555 H 0.48441 0.1538 0.25298 0.0
C2556 C 0.46023 0.14439 0.26289 0.0
C2557 C 0.44771 0.13125 0.26211 0.0
C2558 C 0.49449 0.14237 0.21852 0.0
C2559 C 0.47803 0.12852 0.24268 0.0
C2560 C 0.50419 0.14035 0.20342 0.0
C2561 C 0.51156 0.12428 0.19943 0.0
C2562 C 0.49173 0.12807 0.22938 0.0
C2563 C 0.50975 0.11074 0.2114 0.0
C2564 C 0.47534 0.14314 0.25308 0.0
C2565 C 0.45155 0.11628 0.25262 0.0
N2566 N 0.49956 0.11278 0.22559 0.0
N2567 N 0.46634 0.11537 0.24314 0.0
H2568 H 0.59653 0.70816 0.01776 0.0
H2569 H 0.65688 0.76688 0.95834 0.0
H2570 H 0.64915 0.69457 0.00523 0.0
H2571 H 0.6039 0.75516 0.94548 0.0
H2572 H 0.65392 0.74962 0.98479 0.0
H2573 H 0.59963 0.73461 1.00054 0.0
C2574 C 0.60895 0.71106 0.01195 0.0
C2575 C 0.62259 0.69912 0.0128 0.0
C2576 C 0.64283 0.75131 0.97641 0.0
C2577 C 0.62617 0.72932 0.99333 0.0
C2578 C 0.64442 0.76125 0.96141 0.0
C2579 C 0.63062 0.76233 0.94966 0.0
C2580 C 0.6272 0.74281 0.97985 0.0
C2581 C 0.61486 0.75456 0.95416 0.0
C2582 C 0.61062 0.72607 1.00204 0.0
C2583 C 0.6383 0.70341 0.00482 0.0
N2584 N 0.61361 0.745 0.96887 0.0
N2585 N 0.63964 0.71813 0.99528 0.0
H2586 H 0.06024 0.1037 0.74809 0.0
H2587 H 0.98472 0.09849 0.7952 0.0
H2588 H 0.04581 0.15649 0.73745 0.0
H2589 H 1.00202 0.14953 0.80957 0.0
H2590 H 1.00165 0.10064 0.76847 0.0
H2591 H 0.03354 0.10013 0.76475 0.0
C2592 C 0.05116 0.11435 0.74878 0.0
C2593 C 0.05519 0.13039 0.74138 0.0
C2594 C 1.00138 0.11149 0.77732 0.0
C2595 C 0.02494 0.12657 0.76073 0.0
C2596 C 0.9916 0.11038 0.79247 0.0
C2597 C 0.99218 0.12378 0.80472 0.0
C2598 C 0.01155 0.12621 0.77434 0.0
C2599 C 1.00139 0.13884 0.80055 0.0
C2600 C 0.03592 0.1123 0.75825 0.0
C2601 C 0.0431 0.14386 0.74285 0.0
N2602 N 0.01086 0.1396 0.78575 0.0
N2603 N 0.02877 0.14182 0.75283 0.0
H2604 H 0.65179 0.3087 0.49602 0.0
H2605 H 0.65657 0.2338 0.54398 0.0
H2606 H 0.59882 0.29467 0.48577 0.0
H2607 H 0.60566 0.25158 0.55821 0.0
H2608 H 0.65445 0.25034 0.51702 0.0
H2609 H 0.65521 0.2821 0.51285 0.0
C2610 C 0.64107 0.29972 0.49682 0.0
C2611 C 0.62503 0.30385 0.48949 0.0
C2612 C 0.64362 0.25026 0.5259 0.0
C2613 C 0.62867 0.27371 0.50904 0.0
C2614 C 0.64471 0.2407 0.54119 0.0
C2615 C 0.63135 0.24154 0.55346 0.0
C2616 C 0.62896 0.26047 0.52281 0.0
C2617 C 0.61633 0.25076 0.54919 0.0
C2618 C 0.64303 0.28452 0.50639 0.0
C2619 C 0.61146 0.29189 0.49111 0.0
N2620 N 0.61559 0.26001 0.53426 0.0
N2621 N 0.61342 0.27761 0.50119 0.0
H2622 H 0.50969 0.8517 0.30781 0.0
H2623 H 0.46148 0.84763 0.23282 0.0
H2624 H 0.51932 0.90498 0.29446 0.0
H2625 H 0.44769 0.89879 0.25026 0.0
H2626 H 0.48816 0.84939 0.24985 0.0
H2627 H 0.49268 0.84852 0.28129 0.0
C2628 C 0.50868 0.86256 0.29902 0.0
C2629 C 0.5159 0.87862 0.30334 0.0
C2630 C 0.47943 0.86034 0.24962 0.0
C2631 C 0.49621 0.8752 0.27323 0.0
C2632 C 0.46431 0.85946 0.23976 0.0
C2633 C 0.45225 0.87302 0.24033 0.0
C2634 C 0.48255 0.87498 0.25987 0.0
C2635 C 0.45656 0.88798 0.24963 0.0
C2636 C 0.49903 0.86073 0.28386 0.0
C2637 C 0.51404 0.89234 0.29158 0.0
N2638 N 0.47131 0.88851 0.25917 0.0
N2639 N 0.50394 0.89047 0.27731 0.0
H2640 H 0.90072 0.75754 0.05945 0.0
H2641 H 0.90516 0.71084 0.98367 0.0
H2642 H 0.84752 0.76749 0.04611 0.0
H2643 H 0.85471 0.69555 1.00189 0.0
H2644 H 0.90288 0.73746 1.00074 0.0
H2645 H 0.90397 0.74098 0.03264 0.0
C2646 C 0.88991 0.75672 0.05058 0.0
C2647 C 0.87386 0.76391 0.05494 0.0
C2648 C 0.89218 0.72843 1.00064 0.0
C2649 C 0.87732 0.74466 0.02458 0.0
C2650 C 0.89336 0.71334 0.99078 0.0
C2651 C 0.88018 0.70086 0.99158 0.0
C2652 C 0.87761 0.73112 0.01111 0.0
C2653 C 0.86523 0.70474 1.00109 0.0
C2654 C 0.89176 0.74731 0.03528 0.0
C2655 C 0.86016 0.76226 0.04313 0.0
N2656 N 0.86441 0.71949 0.01063 0.0
N2657 N 0.86204 0.75233 0.02874 0.0
H2658 H 0.75573 0.05988 0.90149 0.0
H2659 H 0.70885 0.98419 0.90635 0.0
H2660 H 0.76668 0.04558 0.84872 0.0
H2661 H 0.69482 1.0013 0.85514 0.0
H2662 H 0.73548 1.00129 0.90439 0.0
H2663 H 0.73912 0.03313 0.90492 0.0
C2664 C 0.75511 0.05082 0.89082 0.0
C2665 C 0.7626 0.0549 0.87482 0.0
C2666 C 0.72673 1.00095 0.89346 0.0
C2667 C 0.74331 0.02459 0.87848 0.0
C2668 C 0.71164 0.99106 0.89447 0.0
C2669 C 0.69951 0.99153 0.88096 0.0
C2670 C 0.72977 0.01112 0.87875 0.0
C2671 C 0.70374 1.00075 0.86592 0.0
C2672 C 0.74568 0.03555 0.89278 0.0
C2673 C 0.76122 0.04284 0.86131 0.0
N2674 N 0.71848 0.01032 0.86527 0.0
N2675 N 0.75127 0.02847 0.86327 0.0
H2676 H 0.75704 0.94673 0.60503 0.0
H2677 H 0.69678 0.00755 0.65194 0.0
H2678 H 0.76897 0.96042 0.65776 0.0
H2679 H 0.71071 0.0194 0.59926 0.0
H2680 H 0.72366 0.99105 0.65495 0.0
H2681 H 0.74079 0.97377 0.60207 0.0
C2682 C 0.75667 0.95568 0.61581 0.0
C2683 C 0.76426 0.95133 0.63168 0.0
C2684 C 0.72107 0.99771 0.6429 0.0
C2685 C 0.74526 0.98185 0.62859 0.0
C2686 C 0.70576 0.00712 0.64119 0.0
C2687 C 0.70151 0.01476 0.62532 0.0
C2688 C 0.73183 0.99545 0.62845 0.0
C2689 C 0.71353 0.01373 0.61174 0.0
C2690 C 0.74741 0.97108 0.61412 0.0
C2691 C 0.76332 0.96332 0.64529 0.0
N2692 N 0.72792 0.00377 0.61344 0.0
N2693 N 0.75352 0.97781 0.64361 0.0
H2694 H 0.74619 0.94639 0.39969 0.0
H2695 H 0.79217 0.02231 0.40471 0.0
H2696 H 0.73602 0.95987 0.34655 0.0
H2697 H 0.80709 0.00501 0.35381 0.0
H2698 H 0.76558 0.00524 0.40234 0.0
H2699 H 0.7622 0.97348 0.40313 0.0
C2700 C 0.74684 0.95534 0.38893 0.0
C2701 C 0.73978 0.95092 0.37283 0.0
C2702 C 0.77451 0.00555 0.39156 0.0
C2703 C 0.75839 0.98165 0.37652 0.0
C2704 C 0.78959 0.01542 0.39279 0.0
C2705 C 0.80198 0.01485 0.37952 0.0
C2706 C 0.77176 0.99528 0.37686 0.0
C2707 C 0.79798 0.00563 0.36442 0.0
C2708 C 0.75593 0.97081 0.3909 0.0
C2709 C 0.74117 0.96286 0.35922 0.0
N2710 N 0.78327 0.99604 0.36356 0.0
N2711 N 0.7508 0.97744 0.36121 0.0
H2712 H 0.748 0.0604 0.10403 0.0
H2713 H 0.79568 0.98525 0.09837 0.0
H2714 H 0.73742 0.04553 0.15672 0.0
H2715 H 0.80985 1.00226 0.14958 0.0
H2716 H 0.76887 1.00203 0.10059 0.0
H2717 H 0.7649 0.03388 0.10031 0.0
C2718 C 0.74875 0.05125 0.11462 0.0
C2719 C 0.74129 0.05511 0.13068 0.0
C2720 C 0.7777 1.00173 0.11146 0.0
C2721 C 0.76093 0.02507 0.12669 0.0
C2722 C 0.7929 0.99203 0.11031 0.0
C2723 C 0.8051 0.99257 0.12375 0.0
C2724 C 0.77463 0.01178 0.12625 0.0
C2725 C 0.80087 1.00167 0.13886 0.0
C2726 C 0.75836 0.03611 0.11249 0.0
C2727 C 0.74286 0.04295 0.14408 0.0
N2728 N 0.78602 0.01105 0.13966 0.0
N2729 N 0.75298 0.02873 0.14196 0.0
H2730 H 0.35046 0.73388 0.95867 0.0
H2731 H 0.35438 0.80973 0.00536 0.0
H2732 H 0.40103 0.75205 0.9437 0.0
H2733 H 0.40757 0.79657 0.01557 0.0
H2734 H 0.35132 0.78295 0.98872 0.0
H2735 H 0.35249 0.7511 0.9852 0.0
C2736 C 0.36224 0.74102 0.96122 0.0
C2737 C 0.37552 0.74174 0.94884 0.0
C2738 C 0.36348 0.78562 0.99512 0.0
C2739 C 0.3778 0.76147 0.97902 0.0
C2740 C 0.36523 0.80091 0.00457 0.0
C2741 C 0.38122 0.80532 0.01187 0.0
C2742 C 0.37798 0.77498 0.99253 0.0
C2743 C 0.39497 0.79357 0.01027 0.0
C2744 C 0.36327 0.75097 0.97626 0.0
C2745 C 0.39043 0.75129 0.95281 0.0
N2746 N 0.3932 0.77918 1.0003 0.0
N2747 N 0.39111 0.76093 0.9675 0.0
H2748 H 0.94524 0.6042 0.75786 0.0
H2749 H 0.02137 0.59833 0.71207 0.0
H2750 H 0.95931 0.65721 0.76783 0.0
H2751 H 0.004 0.64897 0.69645 0.0
H2752 H 0.00424 0.60101 0.73862 0.0
H2753 H 0.97227 0.60041 0.7418 0.0
C2754 C 0.9543 0.61486 0.75715 0.0
C2755 C 0.95008 0.63102 0.76417 0.0
C2756 C 0.00455 0.61167 0.72954 0.0
C2757 C 0.98071 0.62695 0.7455 0.0
C2758 C 0.01445 0.61026 0.71449 0.0
C2759 C 0.01388 0.62337 0.70194 0.0
C2760 C 0.99429 0.6264 0.7321 0.0
C2761 C 0.00461 0.63849 0.70571 0.0
C2762 C 0.96973 0.61269 0.74804 0.0
C2763 C 0.96216 0.6445 0.76271 0.0
N2764 N 0.99503 0.63954 0.72041 0.0
N2765 N 0.97669 0.64233 0.75304 0.0
H2766 H 0.0986 0.20856 0.52081 0.0
H2767 H 0.10278 0.25904 0.44714 0.0
H2768 H 0.14869 0.19316 0.50171 0.0
H2769 H 0.15665 0.26617 0.45962 0.0
H2770 H 0.09957 0.24098 0.47296 0.0
H2771 H 0.10096 0.2355 0.50427 0.0
C2772 C 0.11033 0.21106 0.51358 0.0
C2773 C 0.1234 0.1985 0.51244 0.0
C2774 C 0.11195 0.24698 0.47037 0.0
C2775 C 0.12604 0.22914 0.49346 0.0
C2776 C 0.11379 0.25724 0.45561 0.0
C2777 C 0.12998 0.26412 0.45125 0.0
C2778 C 0.12653 0.24321 0.48053 0.0
C2779 C 0.1439 0.26122 0.46257 0.0
C2780 C 0.11155 0.22634 0.50401 0.0
C2781 C 0.13825 0.20242 0.50279 0.0
N2782 N 0.14198 0.25055 0.47642 0.0
N2783 N 0.13912 0.21736 0.49355 0.0
H2784 H 0.95936 0.3484 0.73483 0.0
H2785 H 0.00589 0.35372 0.81081 0.0
H2786 H 0.94487 0.39947 0.75193 0.0
H2787 H 0.01687 0.40638 0.79614 0.0
H2788 H 0.98926 0.35013 0.78409 0.0
H2789 H 0.98588 0.35053 0.75208 0.0
C2790 C 0.96202 0.36029 0.74173 0.0
C2791 C 0.9498 0.37371 0.74215 0.0
C2792 C 0.99582 0.36227 0.78643 0.0
C2793 C 0.97995 0.37612 0.76188 0.0
C2794 C 0.00527 0.36433 0.80168 0.0
C2795 C 0.01278 0.38034 0.80564 0.0
C2796 C 0.99346 0.37649 0.77537 0.0
C2797 C 0.01139 0.39377 0.79349 0.0
C2798 C 0.97706 0.36139 0.75169 0.0
C2799 C 0.95387 0.38877 0.75141 0.0
N2800 N 1.00143 0.39172 0.77914 0.0
N2801 N 0.96856 0.38952 0.76105 0.0
H2802 H 0.54416 0.65533 0.23453 0.0
H2803 H 0.49721 0.64897 0.31017 0.0
H2804 H 0.55968 0.60463 0.25182 0.0
H2805 H 0.48739 0.59613 0.29535 0.0
H2806 H 0.51397 0.65294 0.28357 0.0
H2807 H 0.51754 0.6526 0.25154 0.0
C2808 C 0.54171 0.64339 0.24142 0.0
C2809 C 0.55424 0.63025 0.24196 0.0
C2810 C 0.50763 0.64066 0.28585 0.0
C2811 C 0.52398 0.62716 0.26141 0.0
C2812 C 0.49811 0.63839 0.30103 0.0
C2813 C 0.49089 0.62223 0.30491 0.0
C2814 C 0.51037 0.6265 0.27479 0.0
C2815 C 0.49264 0.60885 0.29275 0.0
C2816 C 0.52662 0.64195 0.25124 0.0
C2817 C 0.55044 0.61512 0.2512 0.0
N2818 N 0.50267 0.61112 0.27848 0.0
N2819 N 0.53568 0.61404 0.2607 0.0
H2820 H 0.50677 0.64945 0.80954 0.0
H2821 H 0.46005 0.6546 0.73389 0.0
H2822 H 0.51785 0.59676 0.79508 0.0
H2823 H 0.4461 0.60333 0.75088 0.0
H2824 H 0.48677 0.65256 0.75083 0.0
H2825 H 0.49038 0.653 0.78268 0.0
C2826 C 0.50624 0.63883 0.80043 0.0
C2827 C 0.51367 0.62281 0.8045 0.0
C2828 C 0.47802 0.64164 0.75047 0.0
C2829 C 0.49463 0.62661 0.77405 0.0
C2830 C 0.46287 0.64268 0.74069 0.0
C2831 C 0.45074 0.62918 0.74119 0.0
C2832 C 0.4811 0.62689 0.76058 0.0
C2833 C 0.45503 0.6141 0.75031 0.0
C2834 C 0.49693 0.64086 0.78509 0.0
C2835 C 0.51241 0.60937 0.79235 0.0
N2836 N 0.46981 0.61341 0.75979 0.0
N2837 N 0.50257 0.61139 0.77792 0.0
H2838 H 0.85445 0.19512 0.00667 0.0
H2839 H 0.84788 0.27057 0.95954 0.0
H2840 H 0.90715 0.21022 0.01676 0.0
H2841 H 0.8989 0.25377 0.94452 0.0
H2842 H 0.85053 0.25363 0.98622 0.0
H2843 H 0.85042 0.22169 0.98992 0.0
C2844 C 0.86498 0.20432 0.00583 0.0
C2845 C 0.88113 0.20052 0.01313 0.0
C2846 C 0.86126 0.25402 0.97724 0.0
C2847 C 0.87678 0.23062 0.99366 0.0
C2848 C 0.85987 0.26381 0.96211 0.0
C2849 C 0.87313 0.26338 0.94971 0.0
C2850 C 0.87612 0.24399 0.98003 0.0
C2851 C 0.88832 0.25429 0.95367 0.0
C2852 C 0.86267 0.21949 0.99632 0.0
C2853 C 0.89445 0.21275 0.01146 0.0
N2854 N 0.88935 0.24482 0.96845 0.0
N2855 N 0.89215 0.22701 1.00143 0.0
H2856 H 0.60466 0.74888 0.4452 0.0
H2857 H 0.60113 0.79527 0.52113 0.0
H2858 H 0.65758 0.73756 0.45857 0.0
H2859 H 0.65215 0.80919 0.50339 0.0
H2860 H 0.60278 0.76869 0.50395 0.0
H2861 H 0.60174 0.7653 0.47212 0.0
C2862 C 0.61547 0.74938 0.45409 0.0
C2863 C 0.63136 0.74185 0.4497 0.0
C2864 C 0.61374 0.77741 0.50418 0.0
C2865 C 0.62828 0.76092 0.48022 0.0
C2866 C 0.61292 0.79248 0.5141 0.0
C2867 C 0.62644 0.80458 0.51346 0.0
C2868 C 0.62829 0.77436 0.49378 0.0
C2869 C 0.64136 0.8003 0.50407 0.0
C2870 C 0.6138 0.7587 0.46947 0.0
C2871 C 0.64506 0.74307 0.46156 0.0
N2872 N 0.64183 0.78559 0.49444 0.0
N2873 N 0.64338 0.75291 0.47603 0.0
H2874 H 0.74978 0.44574 0.60416 0.0
H2875 H 0.80903 0.50711 0.6521 0.0
H2876 H 0.73653 0.45993 0.65644 0.0
H2877 H 0.79615 0.51871 0.5991 0.0
H2878 H 0.78228 0.49028 0.65453 0.0
H2879 H 0.76636 0.47263 0.60146 0.0
C2880 C 0.74995 0.45476 0.61488 0.0
C2881 C 0.74184 0.45061 0.63055 0.0
C2882 C 0.78507 0.49695 0.64253 0.0
C2883 C 0.76122 0.48095 0.62777 0.0
C2884 C 0.80031 0.50654 0.64115 0.0
C2885 C 0.8048 0.51425 0.62537 0.0
C2886 C 0.77464 0.49457 0.62786 0.0
C2887 C 0.79312 0.51302 0.61152 0.0
C2888 C 0.75939 0.47008 0.61334 0.0
C2889 C 0.74256 0.46268 0.6441 0.0
N2890 N 0.77881 0.5029 0.61292 0.0
N2891 N 0.75253 0.47708 0.64259 0.0
H2892 H 0.79488 0.4844 0.90585 0.0
H2893 H 0.74767 0.55971 0.89981 0.0
H2894 H 0.80974 0.50145 0.85485 0.0
H2895 H 0.73768 0.54513 0.84693 0.0
H2896 H 0.76432 0.53306 0.90365 0.0
H2897 H 0.76813 0.50123 0.90331 0.0
C2898 C 0.79226 0.4912 0.89389 0.0
C2899 C 0.80465 0.49174 0.88062 0.0
C2900 C 0.75796 0.53539 0.8914 0.0
C2901 C 0.77425 0.511 0.87775 0.0
C2902 C 0.7485 0.55061 0.8892 0.0
C2903 C 0.74128 0.55458 0.87306 0.0
C2904 C 0.76063 0.52438 0.87719 0.0
C2905 C 0.74294 0.54246 0.85963 0.0
C2906 C 0.77709 0.50092 0.89255 0.0
C2907 C 0.80061 0.50085 0.86545 0.0
N2908 N 0.75291 0.52815 0.86183 0.0
N2909 N 0.7858 0.51027 0.86448 0.0
H2910 H 0.71033 0.48482 0.09902 0.0
H2911 H 0.75681 0.56064 0.10424 0.0
H2912 H 0.69601 0.5019 0.15016 0.0
H2913 H 0.76773 0.54625 0.157 0.0
H2914 H 0.74043 0.53377 0.10068 0.0
H2915 H 0.73697 0.50187 0.10116 0.0
C2916 C 0.71305 0.49167 0.11093 0.0
C2917 C 0.70084 0.49216 0.12436 0.0
C2918 C 0.74693 0.5362 0.11284 0.0
C2919 C 0.73111 0.51167 0.12677 0.0
C2920 C 0.75623 0.55154 0.11488 0.0
C2921 C 0.76362 0.55563 0.13092 0.0
C2922 C 0.7446 0.52518 0.1271 0.0
C2923 C 0.76232 0.5435 0.14438 0.0
C2924 C 0.72816 0.50151 0.11204 0.0
C2925 C 0.705 0.50134 0.13944 0.0
N2926 N 0.75249 0.52907 0.14234 0.0
N2927 N 0.71974 0.51088 0.14019 0.0
H2928 H 0.77164 0.46055 0.35396 0.0
H2929 H 0.69618 0.50753 0.3562 0.0
H2930 H 0.75292 0.44698 0.40474 0.0
H2931 H 0.70865 0.5188 0.40937 0.0
H2932 H 0.72313 0.49112 0.35371 0.0
H2933 H 0.75484 0.48738 0.35532 0.0
C2934 C 0.76447 0.46347 0.36564 0.0
C2935 C 0.76343 0.45139 0.37917 0.0
C2936 C 0.72028 0.49772 0.36574 0.0
C2937 C 0.7442 0.4819 0.38068 0.0
C2938 C 0.70489 0.50704 0.36716 0.0
C2939 C 0.70021 0.51452 0.38299 0.0
C2940 C 0.73076 0.49546 0.38041 0.0
C2941 C 0.71185 0.51331 0.39689 0.0
C2942 C 0.75477 0.47869 0.3663 0.0
C2943 C 0.75389 0.45584 0.39395 0.0
N2944 N 0.72634 0.50346 0.39544 0.0
N2945 N 0.74448 0.47068 0.39424 0.0
H2946 H 0.55946 0.4022 0.25715 0.0
H2947 H 0.49868 0.35291 0.19616 0.0
H2948 H 0.54759 0.34867 0.2674 0.0
H2949 H 0.48785 0.40615 0.20877 0.0
H2950 H 0.51613 0.35063 0.22251 0.0
H2951 H 0.53297 0.40436 0.23989 0.0
C2952 C 0.55105 0.39104 0.25615 0.0
C2953 C 0.55577 0.37522 0.26364 0.0
C2954 C 0.50956 0.36268 0.21973 0.0
C2955 C 0.52583 0.37745 0.24351 0.0
C2956 C 0.49959 0.36397 0.20471 0.0
C2957 C 0.49188 0.37976 0.20023 0.0
C2958 C 0.51224 0.37741 0.23001 0.0
C2959 C 0.49356 0.39372 0.21174 0.0
C2960 C 0.53595 0.39227 0.2463 0.0
C2961 C 0.54443 0.36113 0.26186 0.0
N2962 N 0.50393 0.39237 0.22587 0.0
N2963 N 0.53022 0.36244 0.25159 0.0
H2964 H 0.15547 0.73426 0.04594 0.0
H2965 H 0.14944 0.80907 0.99776 0.0
H2966 H 0.10504 0.75208 0.06174 0.0
H2967 H 0.09613 0.79517 0.98934 0.0
H2968 H 0.15327 0.78267 0.01482 0.0
H2969 H 0.15261 0.75096 0.01914 0.0
C2970 C 0.14356 0.74121 0.04353 0.0
C2971 C 0.13055 0.74199 0.05619 0.0
C2972 C 0.1409 0.78508 0.00872 0.0
C2973 C 0.12731 0.76112 0.02571 0.0
C2974 C 0.13871 0.80016 0.99903 0.0
C2975 C 0.12247 0.80425 0.99211 0.0
C2976 C 0.1266 0.77434 0.01193 0.0
C2977 C 0.10891 0.79239 0.99433 0.0
C2978 C 0.14204 0.75087 0.02833 0.0
C2979 C 0.11545 0.7513 0.05241 0.0
N2980 N 0.11112 0.77822 0.00452 0.0
N2981 N 0.11429 0.76063 0.03755 0.0
H2982 H 0.40725 0.20888 0.48385 0.0
H2983 H 0.402 0.25628 0.55933 0.0
H2984 H 0.35678 0.19347 0.50193 0.0
H2985 H 0.34896 0.266 0.54521 0.0
H2986 H 0.40558 0.23933 0.5328 0.0
H2987 H 0.40479 0.23556 0.5008 0.0
C2988 C 0.39541 0.21136 0.49091 0.0
C2989 C 0.38227 0.19884 0.49168 0.0
C2990 C 0.39334 0.24569 0.53521 0.0
C2991 C 0.37949 0.22919 0.51107 0.0
C2992 C 0.3913 0.25532 0.55035 0.0
C2993 C 0.3752 0.26258 0.55441 0.0
C2994 C 0.37902 0.24288 0.52438 0.0
C2995 C 0.36164 0.26074 0.54247 0.0
C2996 C 0.39413 0.22649 0.5007 0.0
C2997 C 0.36728 0.2027 0.50114 0.0
N2998 N 0.3637 0.2506 0.52824 0.0
N2999 N 0.36635 0.21749 0.51059 0.0
H3000 H 0.2096 0.48403 0.40565 0.0
H3001 H 0.25987 0.55759 0.40165 0.0
H3002 H 0.19574 0.50258 0.35489 0.0
H3003 H 0.26865 0.54436 0.34818 0.0
H3004 H 0.2423 0.53145 0.40485 0.0
H3005 H 0.23685 0.50012 0.40371 0.0
C3006 C 0.21252 0.49102 0.39387 0.0
C3007 C 0.20029 0.49219 0.38049 0.0
C3008 C 0.24859 0.53395 0.39259 0.0
C3009 C 0.23126 0.51062 0.37831 0.0
C3010 C 0.25857 0.54889 0.39075 0.0
C3011 C 0.26569 0.55315 0.37463 0.0
C3012 C 0.24535 0.52351 0.37807 0.0
C3013 C 0.26345 0.54151 0.36086 0.0
C3014 C 0.22797 0.50033 0.39288 0.0
C3015 C 0.20472 0.50151 0.36557 0.0
N3016 N 0.25302 0.52749 0.36274 0.0
N3017 N 0.21981 0.5105 0.36494 0.0
H3018 H 0.19546 0.50767 0.14995 0.0
H3019 H 0.27141 0.46135 0.15499 0.0
H3020 H 0.20926 0.51784 0.09689 0.0
H3021 H 0.25373 0.44614 0.10431 0.0
H3022 H 0.25427 0.48791 0.15262 0.0
H3023 H 0.22233 0.49127 0.15343 0.0
C3024 C 0.20444 0.50693 0.13922 0.0
C3025 C 0.20019 0.51413 0.12314 0.0
C3026 C 0.25451 0.47892 0.14189 0.0
C3027 C 0.23063 0.49508 0.12685 0.0
C3028 C 0.26441 0.46386 0.14312 0.0
C3029 C 0.26378 0.45142 0.1299 0.0
C3030 C 0.24416 0.48161 0.12723 0.0
C3031 C 0.2544 0.45531 0.11487 0.0
C3032 C 0.21978 0.49762 0.14121 0.0
C3033 C 0.21214 0.5126 0.10955 0.0
N3034 N 0.24481 0.47002 0.114 0.0
N3035 N 0.22658 0.50276 0.11155 0.0
H3036 H 0.29431 0.52045 0.90656 0.0
H3037 H 0.24862 0.44416 0.90097 0.0
H3038 H 0.30883 0.50369 0.85537 0.0
H3039 H 0.23744 0.45876 0.84833 0.0
H3040 H 0.26476 0.47116 0.90466 0.0
H3041 H 0.26783 0.50315 0.90434 0.0
C3042 C 0.29165 0.51362 0.89462 0.0
C3043 C 0.30388 0.51329 0.88119 0.0
C3044 C 0.25824 0.46874 0.8925 0.0
C3045 C 0.2738 0.4935 0.87869 0.0
C3046 C 0.24908 0.45333 0.89039 0.0
C3047 C 0.24168 0.44927 0.87435 0.0
C3048 C 0.26044 0.47987 0.8783 0.0
C3049 C 0.24285 0.46148 0.86096 0.0
C3050 C 0.27665 0.50363 0.89347 0.0
C3051 C 0.29982 0.50413 0.86607 0.0
N3052 N 0.25255 0.476 0.86306 0.0
N3053 N 0.28517 0.49445 0.86528 0.0
H3054 H 0.29384 0.48217 0.59761 0.0
H3055 H 0.24548 0.55687 0.60175 0.0
H3056 H 0.30718 0.49857 0.64926 0.0
H3057 H 0.23651 0.54404 0.65529 0.0
H3058 H 0.26242 0.53034 0.59861 0.0
H3059 H 0.26736 0.49942 0.59933 0.0
C3060 C 0.29099 0.489 0.6095 0.0
C3061 C 0.30289 0.48917 0.62322 0.0
C3062 C 0.25624 0.53301 0.61088 0.0
C3063 C 0.27277 0.50903 0.62513 0.0
C3064 C 0.24661 0.54819 0.61269 0.0
C3065 C 0.23961 0.55267 0.6288 0.0
C3066 C 0.25921 0.5225 0.62541 0.0
C3067 C 0.24163 0.54104 0.64261 0.0
C3068 C 0.27596 0.49898 0.61037 0.0
C3069 C 0.29848 0.49826 0.6383 0.0
N3070 N 0.25167 0.52674 0.64074 0.0
N3071 N 0.28383 0.50797 0.63879 0.0
H3072 H 0.03061 0.09446 0.41666 0.0
H3073 H 0.08593 0.16048 0.46942 0.0
H3074 H 0.04957 0.141 0.39247 0.0
H3075 H 0.04586 0.13027 0.49372 0.0
H3076 H 0.0736 0.15358 0.44109 0.0
H3077 H 0.03701 0.10683 0.44498 0.0
C3078 C 0.0361 0.10733 0.41733 0.0
C3079 C 0.03973 0.11667 0.4022 0.0
C3080 C 0.06732 0.14873 0.45263 0.0
C3081 C 0.04721 0.13084 0.43461 0.0
C3082 C 0.07436 0.15262 0.46878 0.0
C3083 C 0.06694 0.14583 0.48391 0.0
C3084 C 0.05305 0.1376 0.45157 0.0
C3085 C 0.05194 0.13577 0.48238 0.0
C3086 C 0.0396 0.11443 0.43351 0.0
C3087 C 0.04662 0.13337 0.40383 0.0
N3088 N 0.04568 0.13166 0.46645 0.0
N3089 N 0.05044 0.13983 0.41978 0.0
H3090 H 0.12424 0.79847 0.74554 0.0
H3091 H 0.10978 0.80025 0.64291 0.0
H3092 H 0.09269 0.83682 0.72017 0.0
H3093 H 0.15685 0.78254 0.66702 0.0
H3094 H 0.09827 0.80742 0.67174 0.0
H3095 H 0.13096 0.78585 0.71712 0.0
C3096 C 0.11844 0.80398 0.73404 0.0
C3097 C 0.10805 0.81878 0.73513 0.0
C3098 C 0.11105 0.80181 0.67064 0.0
C3099 C 0.11554 0.80445 0.7028 0.0
C3100 C 0.11759 0.79771 0.65425 0.0
C3101 C 0.13436 0.79103 0.65259 0.0
C3102 C 0.12123 0.79879 0.68541 0.0
C3103 C 0.14395 0.78793 0.66771 0.0
C3104 C 0.12235 0.79687 0.71786 0.0
C3105 C 0.10093 0.8255 0.71983 0.0
N3106 N 0.13725 0.79182 0.68347 0.0
N3107 N 0.10484 0.81832 0.70428 0.0
H3108 H 0.41761 0.8434 0.96809 0.0
H3109 H 0.47257 0.9087 0.91413 0.0
H3110 H 0.45809 0.8736 0.99174 0.0
H3111 H 0.45381 0.86171 0.89067 0.0
H3112 H 0.46627 0.89672 0.94266 0.0
H3113 H 0.42969 0.85001 0.93957 0.0
C3114 C 0.42922 0.8512 0.96727 0.0
C3115 C 0.43683 0.85806 0.98226 0.0
C3116 C 0.4637 0.88894 0.93129 0.0
C3117 C 0.45043 0.86596 0.94972 0.0
C3118 C 0.46715 0.89582 0.91501 0.0
C3119 C 0.46355 0.88623 0.90003 0.0
C3120 C 0.45617 0.87251 0.93266 0.0
C3121 C 0.45673 0.86952 0.90191 0.0
C3122 C 0.43611 0.85492 0.95101 0.0
C3123 C 0.45186 0.86804 0.9805 0.0
N3124 N 0.45296 0.86328 0.91796 0.0
N3125 N 0.45798 0.87199 0.96448 0.0
H3126 H 0.3452 0.22444 0.16606 0.0
H3127 H 0.41094 0.16961 0.21955 0.0
H3128 H 0.39217 0.20582 0.14244 0.0
H3129 H 0.38005 0.20934 0.24356 0.0
H3130 H 0.40441 0.18202 0.19118 0.0
H3131 H 0.3573 0.21823 0.19454 0.0
C3132 C 0.35811 0.21908 0.16689 0.0
C3133 C 0.36765 0.21547 0.15187 0.0
C3134 C 0.39933 0.18822 0.20266 0.0
C3135 C 0.38151 0.2082 0.18446 0.0
C3136 C 0.40301 0.18114 0.21884 0.0
C3137 C 0.39592 0.18842 0.23388 0.0
C3138 C 0.3881 0.20239 0.20149 0.0
C3139 C 0.38579 0.20336 0.23227 0.0
C3140 C 0.36506 0.21568 0.18315 0.0
C3141 C 0.38439 0.20874 0.15371 0.0
N3142 N 0.38187 0.20966 0.21631 0.0
N3143 N 0.3907 0.20502 0.16974 0.0
H3144 H 0.03226 0.90963 0.08953 0.0
H3145 H 0.08584 0.84298 0.03573 0.0
H3146 H 0.05023 0.86243 0.1132 0.0
H3147 H 0.04568 0.87362 0.01211 0.0
H3148 H 0.07413 0.85012 0.06428 0.0
H3149 H 0.03837 0.89741 0.06107 0.0
C3150 C 0.03748 0.89665 0.08872 0.0
C3151 C 0.0409 0.88706 0.10374 0.0
C3152 C 0.0677 0.85502 0.05284 0.0
C3153 C 0.04804 0.87308 0.07118 0.0
C3154 C 0.07438 0.851 0.03656 0.0
C3155 C 0.06675 0.85781 0.02156 0.0
C3156 C 0.05358 0.86631 0.05413 0.0
C3157 C 0.05192 0.86808 0.02335 0.0
C3158 C 0.04081 0.88965 0.07246 0.0
C3159 C 0.04745 0.87025 0.10193 0.0
N3160 N 0.04601 0.87231 0.03938 0.0
N3161 N 0.0511 0.86387 0.08591 0.0
H3162 H 0.34808 0.78195 0.33743 0.0
H3163 H 0.4136 0.8372 0.28385 0.0
H3164 H 0.39487 0.80093 0.36111 0.0
H3165 H 0.38308 0.79709 0.25999 0.0
H3166 H 0.4069 0.82502 0.3123 0.0
H3167 H 0.36009 0.78844 0.30898 0.0
C3168 C 0.36093 0.78747 0.33663 0.0
C3169 C 0.37045 0.79107 0.35165 0.0
C3170 C 0.40193 0.8187 0.30083 0.0
C3171 C 0.38421 0.79865 0.31908 0.0
C3172 C 0.4057 0.82565 0.28461 0.0
C3173 C 0.39878 0.81818 0.26957 0.0
C3174 C 0.39079 0.80446 0.30205 0.0
C3175 C 0.38869 0.80322 0.27126 0.0
C3176 C 0.36782 0.79103 0.32037 0.0
C3177 C 0.38711 0.79801 0.34984 0.0
N3178 N 0.38471 0.79703 0.28725 0.0
N3179 N 0.39337 0.80186 0.33382 0.0
H3180 H 0.42085 0.1622 0.53421 0.0
H3181 H 0.47458 0.09594 0.58815 0.0
H3182 H 0.46005 0.1305 0.51041 0.0
H3183 H 0.45687 0.14343 0.61143 0.0
H3184 H 0.46854 0.10794 0.55959 0.0
H3185 H 0.43317 0.15568 0.56263 0.0
C3186 C 0.43225 0.1541 0.53497 0.0
C3187 C 0.4394 0.14678 0.51998 0.0
C3188 C 0.46615 0.11582 0.57092 0.0
C3189 C 0.45327 0.13897 0.55242 0.0
C3190 C 0.46945 0.10894 0.58723 0.0
C3191 C 0.46605 0.11866 0.60218 0.0
C3192 C 0.45898 0.1324 0.56949 0.0
C3193 C 0.45962 0.13551 0.60022 0.0
C3194 C 0.43928 0.15042 0.55118 0.0
C3195 C 0.45418 0.13642 0.52165 0.0
N3196 N 0.45599 0.14176 0.58415 0.0
N3197 N 0.46042 0.13252 0.53764 0.0
H3198 H 0.093 0.1681 0.7849 0.0
H3199 H 0.15843 0.22326 0.83856 0.0
H3200 H 0.12332 0.20836 0.76104 0.0
H3201 H 0.11148 0.20455 0.86215 0.0
H3202 H 0.14641 0.21686 0.81008 0.0
H3203 H 0.09965 0.18031 0.81335 0.0
C3204 C 0.10084 0.17969 0.78566 0.0
C3205 C 0.10772 0.1872 0.77062 0.0
C3206 C 0.13865 0.21432 0.82145 0.0
C3207 C 0.11566 0.20095 0.8031 0.0
C3208 C 0.14554 0.21784 0.83772 0.0
C3209 C 0.13597 0.21428 0.85273 0.0
C3210 C 0.12222 0.20678 0.82014 0.0
C3211 C 0.11927 0.20745 0.85089 0.0
C3212 C 0.10458 0.18665 0.80188 0.0
C3213 C 0.11775 0.2022 0.77231 0.0
N3214 N 0.11301 0.20362 0.83486 0.0
N3215 N 0.12171 0.2084 0.7883 0.0
H3216 H 0.46898 0.08613 0.16229 0.0
H3217 H 0.41566 0.03134 0.09639 0.0
H3218 H 0.49298 0.04601 0.1319 0.0
H3219 H 0.39186 0.04989 0.1433 0.0
H3220 H 0.44408 0.03755 0.10863 0.0
H3221 H 0.44058 0.07387 0.15556 0.0
C3222 C 0.46826 0.07455 0.15443 0.0
C3223 C 0.48331 0.0671 0.14754 0.0
C3224 C 0.43267 0.04009 0.11634 0.0
C3225 C 0.45091 0.05331 0.1395 0.0
C3226 C 0.41644 0.03669 0.10932 0.0
C3227 C 0.40139 0.04027 0.11881 0.0
C3228 C 0.43391 0.04754 0.13282 0.0
C3229 C 0.40315 0.04699 0.13556 0.0
C3230 C 0.45207 0.06756 0.15064 0.0
C3231 C 0.48169 0.05211 0.13748 0.0
N3232 N 0.41915 0.05071 0.14195 0.0
N3233 N 0.46573 0.0459 0.13346 0.0
H3234 H 0.18442 0.15109 0.3536 0.0
H3235 H 0.20607 0.23864 0.40188 0.0
H3236 H 0.22772 0.15336 0.38868 0.0
H3237 H 0.1543 0.22296 0.38802 0.0
H3238 H 0.2162 0.20913 0.39516 0.0
H3239 H 0.17498 0.17934 0.3638 0.0
C3240 C 0.1919 0.15754 0.36355 0.0
C3241 C 0.20683 0.14988 0.37035 0.0
C3242 C 0.20262 0.21224 0.39378 0.0
C3243 C 0.19625 0.18244 0.38191 0.0
C3244 C 0.19685 0.22905 0.39753 0.0
C3245 C 0.17933 0.23335 0.39542 0.0
C3246 C 0.1908 0.19989 0.38762 0.0
C3247 C 0.16793 0.22036 0.38981 0.0
C3248 C 0.18649 0.17365 0.36939 0.0
C3249 C 0.21603 0.15881 0.38323 0.0
N3250 N 0.17389 0.20436 0.38596 0.0
N3251 N 0.2107 0.17478 0.38849 0.0
H3252 H 0.01562 0.95723 0.65148 0.0
H3253 H 0.1048 0.93495 0.60703 0.0
H3254 H 0.03266 0.90508 0.64107 0.0
H3255 H 0.10102 0.97968 0.64011 0.0
H3256 H 0.07654 0.92539 0.61712 0.0
H3257 H 0.04523 0.9675 0.64549 0.0
C3258 C 0.02553 0.94796 0.64806 0.0
C3259 C 0.02156 0.93028 0.64663 0.0
C3260 C 0.08191 0.93723 0.62231 0.0
C3261 C 0.05516 0.94191 0.63967 0.0
C3262 C 0.09802 0.94271 0.61653 0.0
C3263 C 0.10524 0.95808 0.6228 0.0
C3264 C 0.07268 0.94738 0.6342 0.0
C3265 C 0.09591 0.96766 0.63511 0.0
C3266 C 0.04239 0.95381 0.64473 0.0
C3267 C 0.03497 0.91883 0.64224 0.0
N3268 N 0.07993 0.96226 0.64028 0.0
N3269 N 0.05103 0.92486 0.63875 0.0
H3270 H 0.34009 0.78556 0.91104 0.0
H3271 H 0.28285 0.84028 0.84783 0.0
H3272 H 0.29838 0.76261 0.88202 0.0
H3273 H 0.30545 0.86359 0.89321 0.0
H3274 H 0.28947 0.81174 0.85947 0.0
H3275 H 0.32844 0.81427 0.9046 0.0
C3276 C 0.32831 0.78658 0.90352 0.0
C3277 C 0.32022 0.77172 0.89694 0.0
C3278 C 0.29285 0.82307 0.86697 0.0
C3279 C 0.30709 0.80448 0.88924 0.0
C3280 C 0.28923 0.83939 0.86027 0.0
C3281 C 0.29377 0.85434 0.8695 0.0
C3282 C 0.30144 0.82164 0.88286 0.0
C3283 C 0.30179 0.85239 0.88566 0.0
C3284 C 0.32167 0.80295 0.8999 0.0
C3285 C 0.30498 0.77374 0.88735 0.0
N3286 N 0.30562 0.8363 0.89173 0.0
N3287 N 0.29908 0.78986 0.8835 0.0
H3288 H 0.48937 0.95618 0.35334 0.0
H3289 H 0.4004 0.93392 0.39799 0.0
H3290 H 0.47183 0.90395 0.3625 0.0
H3291 H 0.40439 0.97936 0.36592 0.0
H3292 H 0.42836 0.92417 0.38726 0.0
H3293 H 0.45989 0.96659 0.35966 0.0
C3294 C 0.47937 0.94692 0.35653 0.0
C3295 C 0.48317 0.92918 0.35754 0.0
C3296 C 0.42309 0.93621 0.38242 0.0
C3297 C 0.44971 0.94096 0.36488 0.0
C3298 C 0.40715 0.94179 0.38857 0.0
C3299 C 0.40009 0.95742 0.38278 0.0
C3300 C 0.43232 0.9465 0.37066 0.0
C3301 C 0.40939 0.96714 0.37056 0.0
C3302 C 0.46258 0.95286 0.36006 0.0
C3303 C 0.46965 0.91775 0.36167 0.0
N3304 N 0.42521 0.96163 0.36504 0.0
N3305 N 0.45367 0.92385 0.36536 0.0
H3306 H 0.30219 0.14137 0.61075 0.0
H3307 H 0.29649 0.24424 0.62084 0.0
H3308 H 0.28167 0.16683 0.65594 0.0
H3309 H 0.33799 0.21916 0.59328 0.0
H3310 H 0.28432 0.2157 0.62764 0.0
H3311 H 0.30913 0.16992 0.59838 0.0
C3312 C 0.29897 0.15295 0.61794 0.0
C3313 C 0.29157 0.15179 0.63446 0.0
C3314 C 0.29594 0.21652 0.61987 0.0
C3315 C 0.29904 0.18422 0.62034 0.0
C3316 C 0.3028 0.23276 0.6159 0.0
C3317 C 0.31834 0.23401 0.60665 0.0
C3318 C 0.30451 0.20151 0.61426 0.0
C3319 C 0.32608 0.21872 0.60063 0.0
C3320 C 0.30294 0.16916 0.61092 0.0
C3321 C 0.28762 0.16716 0.64327 0.0
N3322 N 0.31912 0.20308 0.60459 0.0
N3323 N 0.29138 0.18273 0.6361 0.0
H3324 H 0.11304 0.05043 0.86135 0.0
H3325 H 0.01028 0.04645 0.8734 0.0
H3326 H 0.08805 0.03118 0.90736 0.0
H3327 H 0.03546 0.08659 0.84398 0.0
H3328 H 0.03875 0.03406 0.88007 0.0
H3329 H 0.08439 0.05747 0.8493 0.0
C3330 C 0.10154 0.04751 0.8688 0.0
C3331 C 0.10287 0.04044 0.88545 0.0
C3332 C 0.03796 0.04543 0.87193 0.0
C3333 C 0.07032 0.04803 0.87168 0.0
C3334 C 0.02176 0.05242 0.86803 0.0
C3335 C 0.02057 0.06765 0.85829 0.0
C3336 C 0.05299 0.05357 0.86576 0.0
C3337 C 0.03586 0.07494 0.85172 0.0
C3338 C 0.08527 0.05153 0.86195 0.0
C3339 C 0.08759 0.03687 0.89458 0.0
N3340 N 0.05146 0.06787 0.85563 0.0
N3341 N 0.07196 0.04068 0.88758 0.0
H3342 H 0.22439 0.83864 0.15906 0.0
H3343 H 0.16828 0.78553 0.094 0.0
H3344 H 0.20497 0.86254 0.11256 0.0
H3345 H 0.20873 0.7614 0.12384 0.0
H3346 H 0.18069 0.81389 0.10061 0.0
H3347 H 0.21782 0.81025 0.14694 0.0
C3348 C 0.21877 0.83789 0.14625 0.0
C3349 C 0.21505 0.85296 0.13684 0.0
C3350 C 0.18703 0.80238 0.10544 0.0
C3351 C 0.20738 0.82047 0.12297 0.0
C3352 C 0.17995 0.7862 0.10172 0.0
C3353 C 0.18745 0.77112 0.10849 0.0
C3354 C 0.20144 0.80349 0.11638 0.0
C3355 C 0.20257 0.77271 0.11836 0.0
C3356 C 0.21517 0.82168 0.13929 0.0
C3357 C 0.20799 0.85123 0.12023 0.0
N3358 N 0.20888 0.78865 0.12231 0.0
N3359 N 0.20408 0.83525 0.11391 0.0
H3360 H 0.14476 0.39202 0.05072 0.0
H3361 H 0.1324 0.49467 0.04515 0.0
H3362 H 0.09871 0.41652 0.03098 0.0
H3363 H 0.16159 0.4702 0.08589 0.0
H3364 H 0.12588 0.46598 0.03316 0.0
H3365 H 0.15667 0.42082 0.05738 0.0
C3366 C 0.13728 0.40344 0.04761 0.0
C3367 C 0.12066 0.40193 0.04052 0.0
C3368 C 0.13394 0.46697 0.04457 0.0
C3369 C 0.13425 0.43466 0.04768 0.0
C3370 C 0.13775 0.4833 0.05133 0.0
C3371 C 0.14738 0.48475 0.06662 0.0
C3372 C 0.14009 0.45209 0.05299 0.0
C3373 C 0.15394 0.4696 0.07418 0.0
C3374 C 0.14403 0.4198 0.05142 0.0
C3375 C 0.11147 0.41712 0.0367 0.0
N3376 N 0.15012 0.45387 0.06734 0.0
N3377 N 0.11839 0.43284 0.04031 0.0
H3378 H 0.63043 0.00971 0.95768 0.0
H3379 H 0.64308 0.11239 0.95379 0.0
H3380 H 0.66008 0.03472 0.9176 0.0
H3381 H 0.59675 0.08775 0.9727 0.0
H3382 H 0.65494 0.08367 0.94677 0.0
H3383 H 0.62378 0.03823 0.96998 0.0
C3384 C 0.63584 0.02116 0.95171 0.0
C3385 C 0.64565 0.01991 0.93652 0.0
C3386 C 0.64225 0.08463 0.95262 0.0
C3387 C 0.63822 0.05239 0.95051 0.0
C3388 C 0.63552 0.10095 0.95664 0.0
C3389 C 0.61885 0.10241 0.96361 0.0
C3390 C 0.63238 0.06975 0.95603 0.0
C3391 C 0.60957 0.0872 0.96709 0.0
C3392 C 0.63196 0.0374 0.95865 0.0
C3393 C 0.65229 0.03517 0.92922 0.0
N3394 N 0.61646 0.07151 0.96328 0.0
N3395 N 0.6484 0.0508 0.93624 0.0
H3396 H 0.14251 0.39844 0.2038 0.0
H3397 H 0.24515 0.3855 0.20878 0.0
H3398 H 0.16694 0.35303 0.22504 0.0
H3399 H 0.22044 0.41368 0.16748 0.0
H3400 H 0.21657 0.37964 0.22133 0.0
H3401 H 0.17132 0.40998 0.19654 0.0
C3402 C 0.15392 0.39104 0.20712 0.0
C3403 C 0.15239 0.37468 0.2148 0.0
C3404 C 0.21748 0.38734 0.20967 0.0
C3405 C 0.18513 0.38786 0.20695 0.0
C3406 C 0.23376 0.39077 0.20258 0.0
C3407 C 0.23511 0.39991 0.18699 0.0
C3408 C 0.20255 0.39337 0.20125 0.0
C3409 C 0.21992 0.40638 0.17942 0.0
C3410 C 0.17029 0.39758 0.20297 0.0
C3411 C 0.16756 0.36558 0.21887 0.0
N3412 N 0.20425 0.40294 0.18658 0.0
N3413 N 0.18328 0.37229 0.21491 0.0
H3414 H 0.90216 0.91691 0.47476 0.0
H3415 H 0.83989 0.96976 0.41541 0.0
H3416 H 0.85722 0.89258 0.45246 0.0
H3417 H 0.86697 0.99382 0.45782 0.0
H3418 H 0.84608 0.94135 0.42793 0.0
H3419 H 0.89005 0.9452 0.46779 0.0
C3420 C 0.88968 0.91754 0.46843 0.0
C3421 C 0.88073 0.90239 0.46403 0.0
C3422 C 0.85038 0.95285 0.43465 0.0
C3423 C 0.86688 0.93476 0.45587 0.0
C3424 C 0.84691 0.96906 0.42751 0.0
C3425 C 0.85305 0.98414 0.43555 0.0
C3426 C 0.86044 0.95172 0.44969 0.0
C3427 C 0.862 0.98251 0.45123 0.0
C3428 C 0.88272 0.9337 0.46459 0.0
C3429 C 0.86452 0.90396 0.45603 0.0
N3430 N 0.86574 0.96655 0.45762 0.0
N3431 N 0.85823 0.9199 0.45191 0.0
H3432 H 0.83868 0.15683 0.22395 0.0
H3433 H 0.78421 0.09168 0.16922 0.0
H3434 H 0.86169 0.10961 0.2052 0.0
H3435 H 0.76078 0.12273 0.20917 0.0
H3436 H 0.81273 0.09802 0.18139 0.0
H3437 H 0.81006 0.14511 0.21767 0.0
C3438 C 0.83769 0.14395 0.21853 0.0
C3439 C 0.85258 0.13423 0.21492 0.0
C3440 C 0.80134 0.10318 0.18768 0.0
C3441 C 0.81983 0.1208 0.2076 0.0
C3442 C 0.78507 0.09962 0.18074 0.0
C3443 C 0.77015 0.1068 0.18816 0.0
C3444 C 0.80271 0.11439 0.20186 0.0
C3445 C 0.77196 0.11693 0.20309 0.0
C3446 C 0.82134 0.13722 0.2151 0.0
C3447 C 0.85053 0.11753 0.20812 0.0
N3448 N 0.788 0.12072 0.20925 0.0
N3449 N 0.83443 0.11143 0.20438 0.0
H3450 H 0.40002 0.60436 0.56989 0.0
H3451 H 0.35392 0.51594 0.54792 0.0
H3452 H 0.36636 0.60117 0.52555 0.0
H3453 H 0.36492 0.5327 0.60006 0.0
H3454 H 0.36036 0.54547 0.53767 0.0
H3455 H 0.38955 0.57625 0.57957 0.0
C3456 C 0.3903 0.59775 0.56225 0.0
C3457 C 0.38398 0.60509 0.54695 0.0
C3458 C 0.36115 0.54259 0.55135 0.0
C3459 C 0.37218 0.5727 0.55777 0.0
C3460 C 0.35757 0.52578 0.55719 0.0
C3461 C 0.359 0.52176 0.57486 0.0
C3462 C 0.36648 0.55525 0.56326 0.0
C3463 C 0.3637 0.53506 0.58632 0.0
C3464 C 0.38431 0.58173 0.56779 0.0
C3465 C 0.37141 0.59597 0.53752 0.0
N3466 N 0.36744 0.55107 0.5803 0.0
N3467 N 0.36604 0.58007 0.54296 0.0
H3468 H 0.23875 0.60356 0.29733 0.0
H3469 H 0.14945 0.64689 0.32094 0.0
H3470 H 0.22162 0.61195 0.34984 0.0
H3471 H 0.1535 0.61553 0.275 0.0
H3472 H 0.17759 0.63632 0.33036 0.0
H3473 H 0.20909 0.60965 0.28727 0.0
C3474 C 0.2288 0.60654 0.30672 0.0
C3475 C 0.23276 0.6074 0.32444 0.0
C3476 C 0.1723 0.63159 0.31829 0.0
C3477 C 0.19911 0.61448 0.31306 0.0
C3478 C 0.15626 0.63765 0.3129 0.0
C3479 C 0.14916 0.63201 0.29722 0.0
C3480 C 0.18159 0.6201 0.30775 0.0
C3481 C 0.15852 0.62004 0.28727 0.0
C3482 C 0.21192 0.60994 0.30099 0.0
C3483 C 0.21932 0.61125 0.33605 0.0
N3484 N 0.17445 0.61462 0.29259 0.0
N3485 N 0.20323 0.61482 0.33014 0.0
H3486 H 0.26116 0.38293 0.79505 0.0
H3487 H 0.3639 0.39463 0.80072 0.0
H3488 H 0.28587 0.41117 0.83632 0.0
H3489 H 0.33903 0.34931 0.77979 0.0
H3490 H 0.33519 0.40662 0.80765 0.0
H3491 H 0.28977 0.37664 0.78278 0.0
C3492 C 0.27257 0.38813 0.8013 0.0
C3493 C 0.2712 0.39741 0.81681 0.0
C3494 C 0.33611 0.39414 0.80136 0.0
C3495 C 0.30379 0.39037 0.80286 0.0
C3496 C 0.35242 0.38734 0.7974 0.0
C3497 C 0.35379 0.37089 0.7899 0.0
C3498 C 0.32117 0.38457 0.79737 0.0
C3499 C 0.33854 0.36194 0.78582 0.0
C3500 C 0.28885 0.38445 0.79437 0.0
C3501 C 0.2864 0.40378 0.82444 0.0
N3502 N 0.32288 0.36889 0.78959 0.0
N3503 N 0.30209 0.40008 0.81744 0.0
H3504 H 0.91107 0.84505 0.53612 0.0
H3505 H 0.97025 0.90711 0.59025 0.0
H3506 H 0.95346 0.87282 0.51282 0.0
H3507 H 0.94696 0.86228 0.6139 0.0
H3508 H 0.96296 0.89562 0.56179 0.0
H3509 H 0.92291 0.85154 0.56475 0.0
C3510 C 0.92301 0.85232 0.53704 0.0
C3511 C 0.93126 0.85852 0.52209 0.0
C3512 C 0.95957 0.88821 0.57318 0.0
C3513 C 0.94463 0.86624 0.55478 0.0
C3514 C 0.96359 0.89482 0.58944 0.0
C3515 C 0.95906 0.88569 0.60447 0.0
C3516 C 0.95059 0.87252 0.57187 0.0
C3517 C 0.95064 0.86973 0.60264 0.0
C3518 C 0.92976 0.85596 0.55337 0.0
C3519 C 0.94671 0.86779 0.52401 0.0
N3520 N 0.94642 0.86375 0.5866 0.0
N3521 N 0.95274 0.87165 0.54008 0.0
H3522 H 0.89431 0.1982 0.36508 0.0
H3523 H 0.88383 0.20665 0.26238 0.0
H3524 H 0.85022 0.22177 0.34034 0.0
H3525 H 0.91095 0.16421 0.28634 0.0
H3526 H 0.8773 0.21821 0.29124 0.0
H3527 H 0.90605 0.1911 0.33633 0.0
C3528 C 0.8872 0.20199 0.35363 0.0
C3529 C 0.87117 0.21036 0.35506 0.0
C3530 C 0.8849 0.2065 0.29011 0.0
C3531 C 0.88463 0.2027 0.32237 0.0
C3532 C 0.88872 0.19999 0.27369 0.0
C3533 C 0.89777 0.18438 0.27202 0.0
C3534 C 0.89043 0.19748 0.30489 0.0
C3535 C 0.90374 0.17619 0.2871 0.0
C3536 C 0.89387 0.19794 0.33729 0.0
C3537 C 0.86249 0.21505 0.33982 0.0
N3538 N 0.89991 0.1828 0.30293 0.0
N3539 N 0.86933 0.21119 0.32413 0.0
H3540 H 0.53069 0.09608 0.08836 0.0
H3541 H 0.58539 0.16176 0.03445 0.0
H3542 H 0.54903 0.14329 0.11171 0.0
H3543 H 0.54558 0.1308 0.01066 0.0
H3544 H 0.57318 0.15514 0.06291 0.0
H3545 H 0.53708 0.10797 0.05982 0.0
C3546 C 0.53604 0.109 0.08746 0.0
C3547 C 0.5395 0.11868 0.10242 0.0
C3548 C 0.56693 0.15006 0.05145 0.0
C3549 C 0.54697 0.13229 0.06976 0.0
C3550 C 0.5739 0.15378 0.03522 0.0
C3551 C 0.56652 0.14672 0.02021 0.0
C3552 C 0.55277 0.13881 0.0527 0.0
C3553 C 0.55163 0.13652 0.02192 0.0
C3554 C 0.53954 0.11582 0.07116 0.0
C3555 C 0.54622 0.13541 0.10049 0.0
N3556 N 0.54544 0.13258 0.03791 0.0
N3557 N 0.55003 0.14161 0.08443 0.0
H3558 H 0.65631 0.77991 0.83798 0.0
H3559 H 0.59281 0.8378 0.78479 0.0
H3560 H 0.61038 0.80062 0.86187 0.0
H3561 H 0.62165 0.79659 0.76069 0.0
H3562 H 0.59914 0.82527 0.81317 0.0
H3563 H 0.64441 0.78684 0.80957 0.0
C3564 C 0.64366 0.78588 0.83722 0.0
C3565 C 0.63436 0.78985 0.85229 0.0
C3566 C 0.60381 0.81881 0.80166 0.0
C3567 C 0.62075 0.79797 0.81979 0.0
C3568 C 0.60027 0.82596 0.78547 0.0
C3569 C 0.60683 0.81827 0.77039 0.0
C3570 C 0.61437 0.80412 0.8028 0.0
C3571 C 0.61634 0.80292 0.772 0.0
C3572 C 0.63683 0.7897 0.821 0.0
C3573 C 0.61795 0.79739 0.85055 0.0
N3574 N 0.62012 0.79652 0.78795 0.0
N3575 N 0.61177 0.8015 0.83457 0.0
H3576 H 0.96056 0.13395 0.99472 0.0
H3577 H 0.95527 0.1456 0.89195 0.0
H3578 H 0.91984 0.1629 0.96994 0.0
H3579 H 0.9746 0.0996 0.91684 0.0
H3580 H 0.9487 0.15781 0.92066 0.0
H3581 H 0.97269 0.12734 0.9661 0.0
C3582 C 0.95442 0.13925 0.98329 0.0
C3583 C 0.9391 0.14882 0.98464 0.0
C3584 C 0.95455 0.14513 0.91974 0.0
C3585 C 0.95288 0.14142 0.95206 0.0
C3586 C 0.95831 0.1382 0.90344 0.0
C3587 C 0.96525 0.1215 0.90207 0.0
C3588 C 0.95821 0.13543 0.93469 0.0
C3589 C 0.96899 0.11242 0.91734 0.0
C3590 C 0.96126 0.13538 0.96701 0.0
C3591 C 0.93158 0.15529 0.96942 0.0
N3592 N 0.96544 0.1195 0.933 0.0
N3593 N 0.9385 0.15142 0.95374 0.0
H3594 H 0.62235 0.21036 0.74385 0.0
H3595 H 0.61025 0.20505 0.64112 0.0
H3596 H 0.59349 0.16952 0.71916 0.0
H3597 H 0.65608 0.22505 0.66581 0.0
H3598 H 0.59829 0.19826 0.66988 0.0
H3599 H 0.62881 0.22253 0.71522 0.0
C3600 C 0.61705 0.2042 0.73245 0.0
C3601 C 0.60754 0.18883 0.73382 0.0
C3602 C 0.61088 0.20431 0.66891 0.0
C3603 C 0.61477 0.20266 0.70122 0.0
C3604 C 0.61767 0.20819 0.65257 0.0
C3605 C 0.63425 0.21539 0.65113 0.0
C3606 C 0.6206 0.20808 0.68381 0.0
C3607 C 0.64335 0.21925 0.66636 0.0
C3608 C 0.62083 0.21106 0.71615 0.0
C3609 C 0.60106 0.18129 0.71862 0.0
N3610 N 0.63641 0.21556 0.68205 0.0
N3611 N 0.60484 0.18823 0.70292 0.0
H3612 H 0.53447 0.90647 0.4142 0.0
H3613 H 0.59245 0.84378 0.46887 0.0
H3614 H 0.5572 0.86118 0.39087 0.0
H3615 H 0.55046 0.87235 0.49189 0.0
H3616 H 0.58079 0.85026 0.44016 0.0
H3617 H 0.54145 0.895 0.44274 0.0
C3618 C 0.54095 0.89409 0.41509 0.0
C3619 C 0.54542 0.88482 0.40013 0.0
C3620 C 0.57398 0.85486 0.4515 0.0
C3621 C 0.55351 0.87168 0.43284 0.0
C3622 C 0.58062 0.85122 0.46787 0.0
C3623 C 0.57244 0.85764 0.48276 0.0
C3624 C 0.55929 0.86537 0.44999 0.0
C3625 C 0.55714 0.86713 0.48075 0.0
C3626 C 0.54478 0.88749 0.4314 0.0
C3627 C 0.55359 0.86875 0.40208 0.0
N3628 N 0.55122 0.871 0.46463 0.0
N3629 N 0.55762 0.86278 0.41816 0.0
H3630 H 0.88334 0.79602 0.24467 0.0
H3631 H 0.89479 0.80141 0.14189 0.0
H3632 H 0.91201 0.83693 0.21987 0.0
H3633 H 0.849 0.78166 0.16687 0.0
H3634 H 0.90696 0.80814 0.17058 0.0
H3635 H 0.87673 0.78389 0.21607 0.0
C3636 C 0.88857 0.80221 0.23325 0.0
C3637 C 0.89807 0.81758 0.23458 0.0
C3638 C 0.89433 0.80216 0.16969 0.0
C3639 C 0.89067 0.8038 0.20201 0.0
C3640 C 0.88742 0.79831 0.15339 0.0
C3641 C 0.8708 0.7912 0.15206 0.0
C3642 C 0.88469 0.79842 0.18465 0.0
C3643 C 0.86176 0.78739 0.16734 0.0
C3644 C 0.8847 0.79536 0.21696 0.0
C3645 C 0.90446 0.82515 0.21935 0.0
N3646 N 0.86882 0.79103 0.18299 0.0
N3647 N 0.90059 0.81823 0.20367 0.0
H3648 H 0.61246 0.95394 0.85882 0.0
H3649 H 0.50968 0.95956 0.86996 0.0
H3650 H 0.58741 0.97362 0.90461 0.0
H3651 H 0.53444 0.91858 0.84134 0.0
H3652 H 0.5383 0.97158 0.8767 0.0
H3653 H 0.5838 0.94727 0.84656 0.0
C3654 C 0.60095 0.95703 0.86617 0.0
C3655 C 0.60225 0.96411 0.88281 0.0
C3656 C 0.53739 0.96011 0.86871 0.0
C3657 C 0.5697 0.95695 0.86883 0.0
C3658 C 0.52111 0.95334 0.86477 0.0
C3659 C 0.51974 0.93798 0.85524 0.0
C3660 C 0.55234 0.95163 0.86279 0.0
C3661 C 0.53496 0.93035 0.84891 0.0
C3662 C 0.58467 0.95322 0.85921 0.0
C3663 C 0.58696 0.96791 0.89183 0.0
N3664 N 0.55065 0.93721 0.85285 0.0
N3665 N 0.57133 0.96431 0.88472 0.0
H3666 H 0.79563 0.76157 0.62252 0.0
H3667 H 0.80113 0.86429 0.61111 0.0
H3668 H 0.83643 0.78623 0.59356 0.0
H3669 H 0.78193 0.83938 0.65718 0.0
H3670 H 0.80782 0.8356 0.59894 0.0
H3671 H 0.78375 0.79021 0.62937 0.0
C3672 C 0.80185 0.77298 0.61728 0.0
C3673 C 0.81711 0.77158 0.60762 0.0
C3674 C 0.80198 0.83651 0.61164 0.0
C3675 C 0.80361 0.8042 0.6153 0.0
C3676 C 0.79817 0.8528 0.61855 0.0
C3677 C 0.7912 0.85416 0.63524 0.0
C3678 C 0.79836 0.82157 0.62134 0.0
C3679 C 0.78755 0.8389 0.64436 0.0
C3680 C 0.79515 0.78928 0.62128 0.0
C3681 C 0.82473 0.78678 0.60122 0.0
N3682 N 0.79114 0.82324 0.63729 0.0
N3683 N 0.81794 0.80249 0.60523 0.0
H3684 H 0.9133 0.03205 0.40861 0.0
H3685 H 0.96905 0.0842 0.3423 0.0
H3686 H 0.89091 0.04969 0.36066 0.0
H3687 H 0.99166 0.0446 0.37438 0.0
H3688 H 0.94028 0.07281 0.34898 0.0
H3689 H 0.94209 0.03781 0.39701 0.0
C3690 C 0.91446 0.03713 0.3956 0.0
C3691 C 0.89969 0.04055 0.38562 0.0
C3692 C 0.95154 0.06643 0.3543 0.0
C3693 C 0.93264 0.04728 0.37233 0.0
C3694 C 0.96795 0.07292 0.35054 0.0
C3695 C 0.98272 0.06536 0.35789 0.0
C3696 C 0.94988 0.05257 0.36586 0.0
C3697 C 0.9806 0.05077 0.36843 0.0
C3698 C 0.9309 0.04026 0.38895 0.0
C3699 C 0.90197 0.04692 0.36878 0.0
N3700 N 0.96443 0.04504 0.37239 0.0
N3701 N 0.91816 0.05036 0.36274 0.0
H3702 H 0.70824 0.24508 0.12508 0.0
H3703 H 0.70568 0.14244 0.11134 0.0
H3704 H 0.6704 0.21991 0.09277 0.0
H3705 H 0.72213 0.16668 0.15882 0.0
H3706 H 0.69923 0.17125 0.09941 0.0
H3707 H 0.72037 0.21659 0.13233 0.0
C3708 C 0.70276 0.2336 0.11922 0.0
C3709 C 0.68823 0.23478 0.10846 0.0
C3710 C 0.70441 0.17018 0.11238 0.0
C3711 C 0.70199 0.20237 0.11656 0.0
C3712 C 0.70809 0.15381 0.11916 0.0
C3713 C 0.7142 0.15219 0.13616 0.0
C3714 C 0.70727 0.18498 0.12254 0.0
C3715 C 0.71717 0.16733 0.14575 0.0
C3716 C 0.70958 0.21739 0.12343 0.0
C3717 C 0.68151 0.21951 0.10127 0.0
N3718 N 0.71369 0.18308 0.13881 0.0
N3719 N 0.68841 0.20392 0.10549 0.0
H3720 H 0.61397 0.05062 0.6451 0.0
H3721 H 0.51136 0.04519 0.63253 0.0
H3722 H 0.58951 0.03114 0.5989 0.0
H3723 H 0.53585 0.08568 0.66206 0.0
H3724 H 0.54002 0.03314 0.62606 0.0
H3725 H 0.58517 0.05715 0.65705 0.0
C3726 C 0.60256 0.04755 0.63759 0.0
C3727 C 0.60408 0.04056 0.62092 0.0
C3728 C 0.53904 0.0445 0.63419 0.0
C3729 C 0.57135 0.04757 0.63457 0.0
C3730 C 0.52273 0.05129 0.63798 0.0
C3731 C 0.52129 0.06654 0.64768 0.0
C3732 C 0.55393 0.05285 0.64043 0.0
C3733 C 0.53644 0.07401 0.65435 0.0
C3734 C 0.5862 0.05128 0.64438 0.0
C3735 C 0.5889 0.03678 0.61171 0.0
N3736 N 0.55216 0.06714 0.65055 0.0
N3737 N 0.57318 0.04032 0.61865 0.0
H3738 H 0.70879 0.76086 0.38143 0.0
H3739 H 0.7036 0.86361 0.393 0.0
H3740 H 0.66829 0.78567 0.41067 0.0
H3741 H 0.72296 0.83872 0.34698 0.0
H3742 H 0.69685 0.83493 0.40512 0.0
H3743 H 0.72077 0.78947 0.37454 0.0
C3744 C 0.70267 0.77229 0.38672 0.0
C3745 C 0.68745 0.77095 0.39647 0.0
C3746 C 0.70274 0.83584 0.39244 0.0
C3747 C 0.70106 0.80353 0.38876 0.0
C3748 C 0.70659 0.85213 0.38556 0.0
C3749 C 0.71362 0.8535 0.36889 0.0
C3750 C 0.70637 0.8209 0.38274 0.0
C3751 C 0.7173 0.83824 0.35978 0.0
C3752 C 0.70942 0.78857 0.3827 0.0
C3753 C 0.67995 0.78618 0.40294 0.0
N3754 N 0.71365 0.82258 0.36682 0.0
N3755 N 0.68679 0.80186 0.39891 0.0
H3756 H 0.99512 0.96066 0.134 0.0
H3757 H 0.89233 0.95542 0.14538 0.0
H3758 H 0.97021 0.91979 0.16263 0.0
H3759 H 0.91737 0.97532 0.09968 0.0
H3760 H 0.92099 0.94862 0.15756 0.0
H3761 H 0.96655 0.97286 0.12737 0.0
C3762 C 0.98367 0.95449 0.13922 0.0
C3763 C 0.98498 0.93911 0.14871 0.0
C3764 C 0.92012 0.95465 0.14495 0.0
C3765 C 0.95244 0.95297 0.14129 0.0
C3766 C 0.90384 0.95854 0.13803 0.0
C3767 C 0.90253 0.96571 0.12143 0.0
C3768 C 0.93509 0.9584 0.13533 0.0
C3769 C 0.91782 0.96955 0.11243 0.0
C3770 C 0.96741 0.96137 0.13534 0.0
C3771 C 0.96973 0.93157 0.15509 0.0
N3772 N 0.93345 0.96586 0.11949 0.0
N3773 N 0.95407 0.93853 0.15121 0.0
H3774 H 0.79526 0.24474 0.88176 0.0
H3775 H 0.79997 0.1421 0.89464 0.0
H3776 H 0.83564 0.22008 0.91128 0.0
H3777 H 0.78065 0.16653 0.84837 0.0
H3778 H 0.80676 0.17091 0.90646 0.0
H3779 H 0.78307 0.21612 0.87532 0.0
C3780 C 0.80132 0.23334 0.8872 0.0
C3781 C 0.81657 0.23472 0.8969 0.0
C3782 C 0.80087 0.16988 0.8938 0.0
C3783 C 0.8027 0.20213 0.88971 0.0
C3784 C 0.79698 0.15351 0.88709 0.0
C3785 C 0.78997 0.15198 0.87043 0.0
C3786 C 0.79728 0.18472 0.88393 0.0
C3787 C 0.7863 0.16715 0.86116 0.0
C3788 C 0.79444 0.21705 0.88344 0.0
C3789 C 0.82397 0.21953 0.90357 0.0
N3790 N 0.78999 0.18287 0.86803 0.0
N3791 N 0.81701 0.20385 0.8998 0.0
H3792 H 0.9075 0.58943 0.97345 0.0
H3793 H 0.84274 0.53564 0.91759 0.0
H3794 H 0.8606 0.61283 0.95442 0.0
H3795 H 0.87303 0.5118 0.95789 0.0
H3796 H 0.84916 0.56407 0.92996 0.0
H3797 H 0.8957 0.56092 0.96684 0.0
C3798 C 0.89466 0.58854 0.96792 0.0
C3799 C 0.88505 0.60351 0.96432 0.0
C3800 C 0.85414 0.5526 0.93627 0.0
C3801 C 0.87154 0.57088 0.95659 0.0
C3802 C 0.85053 0.53639 0.92921 0.0
C3803 C 0.85747 0.52137 0.93669 0.0
C3804 C 0.86513 0.55383 0.95064 0.0
C3805 C 0.86742 0.52306 0.95175 0.0
C3806 C 0.88789 0.57226 0.96428 0.0
C3807 C 0.86842 0.6016 0.95735 0.0
N3808 N 0.87124 0.53904 0.95805 0.0
N3809 N 0.86228 0.58555 0.95341 0.0
H3810 H 0.40755 0.91706 0.02984 0.0
H3811 H 0.34201 0.96999 0.08567 0.0
H3812 H 0.36104 0.89302 0.04905 0.0
H3813 H 0.37214 0.99422 0.04549 0.0
H3814 H 0.34879 0.94165 0.0733 0.0
H3815 H 0.39536 0.94541 0.03643 0.0
C3816 C 0.39472 0.91776 0.03541 0.0
C3817 C 0.38533 0.90267 0.03906 0.0
C3818 C 0.35365 0.95318 0.06701 0.0
C3819 C 0.37138 0.93512 0.04677 0.0
C3820 C 0.34983 0.96934 0.07407 0.0
C3821 C 0.35662 0.98444 0.06663 0.0
C3822 C 0.36472 0.95209 0.05269 0.0
C3823 C 0.36663 0.98289 0.05159 0.0
C3824 C 0.38773 0.93396 0.03903 0.0
C3825 C 0.3687 0.90436 0.04609 0.0
N3826 N 0.37068 0.96696 0.0453 0.0
N3827 N 0.36234 0.92032 0.05 0.0
H3828 H 0.76022 0.62227 0.79456 0.0
H3829 H 0.86297 0.6112 0.80019 0.0
H3830 H 0.78497 0.59328 0.83528 0.0
H3831 H 0.83797 0.65715 0.78086 0.0
H3832 H 0.83432 0.59894 0.8068 0.0
H3833 H 0.78885 0.62927 0.7827 0.0
C3834 C 0.77165 0.61706 0.80076 0.0
C3835 C 0.77028 0.60734 0.816 0.0
C3836 C 0.83519 0.61163 0.80095 0.0
C3837 C 0.80288 0.61518 0.80252 0.0
C3838 C 0.85147 0.6186 0.79717 0.0
C3839 C 0.8528 0.63529 0.79019 0.0
C3840 C 0.82023 0.62128 0.79729 0.0
C3841 C 0.83751 0.64434 0.78648 0.0
C3842 C 0.78794 0.62114 0.79407 0.0
C3843 C 0.78551 0.60098 0.8236 0.0
N3844 N 0.82188 0.63722 0.79005 0.0
N3845 N 0.8012 0.60506 0.81682 0.0
H3846 H 0.09621 0.08691 0.53216 0.0
H3847 H 0.16218 0.03499 0.58848 0.0
H3848 H 0.14349 0.11073 0.54967 0.0
H3849 H 0.1306 0.00962 0.55016 0.0
H3850 H 0.1555 0.0629 0.57516 0.0
H3851 H 0.10805 0.05856 0.53941 0.0
C3852 C 0.10914 0.08615 0.53748 0.0
C3853 C 0.11884 0.1012 0.54048 0.0
C3854 C 0.15028 0.05121 0.56947 0.0
C3855 C 0.1324 0.06876 0.54895 0.0
C3856 C 0.15403 0.0353 0.57708 0.0
C3857 C 0.14683 0.02001 0.57044 0.0
C3858 C 0.13887 0.05191 0.55541 0.0
C3859 C 0.13643 0.02111 0.55564 0.0
C3860 C 0.11593 0.06996 0.54149 0.0
C3861 C 0.13559 0.09945 0.5472 0.0
N3862 N 0.13247 0.03685 0.54881 0.0
N3863 N 0.14175 0.08351 0.55151 0.0
H3864 H 0.2378 0.90127 0.79811 0.0
H3865 H 0.14927 0.85595 0.8206 0.0
H3866 H 0.22069 0.89171 0.85042 0.0
H3867 H 0.15253 0.88887 0.77571 0.0
H3868 H 0.17732 0.86663 0.83019 0.0
H3869 H 0.20826 0.8949 0.78788 0.0
C3870 C 0.22788 0.89798 0.80743 0.0
C3871 C 0.23182 0.89688 0.82514 0.0
C3872 C 0.17187 0.87166 0.8183 0.0
C3873 C 0.19831 0.88946 0.81356 0.0
C3874 C 0.15589 0.86554 0.81282 0.0
C3875 C 0.14859 0.8716 0.79739 0.0
C3876 C 0.1809 0.88366 0.80811 0.0
C3877 C 0.15771 0.88402 0.78777 0.0
C3878 C 0.21107 0.89442 0.80159 0.0
C3879 C 0.21841 0.89262 0.83664 0.0
N3880 N 0.17358 0.88952 0.79318 0.0
N3881 N 0.20239 0.88889 0.83064 0.0
H3882 H 0.63048 0.49403 0.45899 0.0
H3883 H 0.6443 0.39158 0.45328 0.0
H3884 H 0.66138 0.47019 0.41913 0.0
H3885 H 0.59733 0.41536 0.47169 0.0
H3886 H 0.65596 0.42056 0.44701 0.0
H3887 H 0.62382 0.46518 0.4705 0.0
C3888 C 0.63617 0.48276 0.45292 0.0
C3889 C 0.64634 0.48444 0.43801 0.0
C3890 C 0.64317 0.41935 0.45257 0.0
C3891 C 0.63888 0.45159 0.45109 0.0
C3892 C 0.63654 0.40288 0.45615 0.0
C3893 C 0.61976 0.4011 0.46278 0.0
C3894 C 0.63308 0.43405 0.45608 0.0
C3895 C 0.61023 0.41615 0.46633 0.0
C3896 C 0.63228 0.46634 0.4594 0.0
C3897 C 0.65331 0.46941 0.43056 0.0
N3898 N 0.61703 0.43198 0.46296 0.0
N3899 N 0.64941 0.45359 0.43713 0.0
H3900 H 0.76003 0.38308 0.70886 0.0
H3901 H 0.86275 0.39529 0.70428 0.0
H3902 H 0.78491 0.41239 0.66844 0.0
H3903 H 0.83798 0.34911 0.72337 0.0
H3904 H 0.83403 0.40732 0.69748 0.0
H3905 H 0.78859 0.37649 0.72109 0.0
C3906 C 0.77146 0.38845 0.70281 0.0
C3907 C 0.77016 0.39813 0.68754 0.0
C3908 C 0.83497 0.39464 0.70334 0.0
C3909 C 0.80269 0.39076 0.70144 0.0
C3910 C 0.85128 0.38781 0.70722 0.0
C3911 C 0.8527 0.37112 0.71417 0.0
C3912 C 0.82006 0.38485 0.70686 0.0
C3913 C 0.83746 0.36193 0.71777 0.0
C3914 C 0.78772 0.3846 0.70971 0.0
C3915 C 0.7854 0.40471 0.68014 0.0
N3916 N 0.82179 0.36892 0.7141 0.0
N3917 N 0.80105 0.40084 0.68711 0.0
H3918 H 0.71975 0.5933 0.16852 0.0
H3919 H 0.66552 0.65812 0.22385 0.0
H3920 H 0.74332 0.62378 0.20883 0.0
H3921 H 0.64236 0.61103 0.20497 0.0
H3922 H 0.6941 0.64638 0.21742 0.0
H3923 H 0.69124 0.59968 0.18073 0.0
C3924 C 0.71892 0.60113 0.18011 0.0
C3925 C 0.73389 0.60813 0.18764 0.0
C3926 C 0.68279 0.63852 0.21486 0.0
C3927 C 0.70135 0.61575 0.2014 0.0
C3928 C 0.66647 0.64526 0.21839 0.0
C3929 C 0.65155 0.63557 0.21478 0.0
C3930 C 0.68426 0.62214 0.20725 0.0
C3931 C 0.65355 0.61891 0.2079 0.0
C3932 C 0.70267 0.60471 0.18708 0.0
C3933 C 0.73211 0.61812 0.20266 0.0
N3934 N 0.66963 0.61281 0.20406 0.0
N3935 N 0.71609 0.62193 0.20887 0.0
H3936 H 0.53129 0.59508 0.91605 0.0
H3937 H 0.58529 0.66152 0.96954 0.0
H3938 H 0.54938 0.6422 0.89231 0.0
H3939 H 0.54545 0.63068 0.99344 0.0
H3940 H 0.57319 0.65466 0.9411 0.0
H3941 H 0.53739 0.60733 0.9445 0.0
C3942 C 0.53652 0.60805 0.91685 0.0
C3943 C 0.54 0.6176 0.90181 0.0
C3944 C 0.5669 0.64966 0.95258 0.0
C3945 C 0.54713 0.63163 0.93436 0.0
C3946 C 0.57381 0.65353 0.96879 0.0
C3947 C 0.56639 0.64655 0.98383 0.0
C3948 C 0.55278 0.63836 0.95138 0.0
C3949 C 0.55152 0.63633 0.98216 0.0
C3950 C 0.53985 0.61507 0.93309 0.0
C3951 C 0.54656 0.63441 0.9036 0.0
N3952 N 0.5454 0.63224 0.96618 0.0
N3953 N 0.55022 0.64081 0.91961 0.0
H3954 H 0.61773 0.27642 0.15178 0.0
H3955 H 0.61844 0.35244 0.22102 0.0
H3956 H 0.6527 0.31983 0.15023 0.0
H3957 H 0.60598 0.30034 0.23682 0.0
H3958 H 0.62471 0.34197 0.19214 0.0
H3959 H 0.6074 0.28633 0.18035 0.0
C3960 C 0.62304 0.28812 0.15734 0.0
C3961 C 0.63608 0.29735 0.1487 0.0
C3962 C 0.62054 0.33281 0.20189 0.0
C3963 C 0.62432 0.30869 0.18096 0.0
C3964 C 0.6169 0.33877 0.21844 0.0
C3965 C 0.61182 0.32723 0.23151 0.0
C3966 C 0.61897 0.31517 0.19815 0.0
C3967 C 0.61 0.30966 0.22719 0.0
C3968 C 0.61726 0.29365 0.17363 0.0
C3969 C 0.64269 0.31231 0.15649 0.0
N3970 N 0.61361 0.30412 0.21082 0.0
N3971 N 0.63668 0.31754 0.1721 0.0
H3972 H 0.94711 0.36323 0.3896 0.0
H3973 H 0.95636 0.373 0.49229 0.0
H3974 H 0.97065 0.4073 0.41442 0.0
H3975 H 0.9139 0.34574 0.46852 0.0
H3976 H 0.96751 0.37997 0.46338 0.0
H3977 H 0.94017 0.35135 0.41833 0.0
C3978 C 0.95091 0.37032 0.40106 0.0
C3979 C 0.95925 0.38636 0.39965 0.0
C3980 C 0.95589 0.37225 0.46455 0.0
C3981 C 0.95177 0.37275 0.43233 0.0
C3982 C 0.94961 0.36817 0.48101 0.0
C3983 C 0.93411 0.35894 0.48276 0.0
C3984 C 0.94676 0.36678 0.44981 0.0
C3985 C 0.9258 0.35307 0.46771 0.0
C3986 C 0.94695 0.36357 0.41739 0.0
C3987 C 0.96396 0.39501 0.41491 0.0
N3988 N 0.93219 0.35714 0.45185 0.0
N3989 N 0.9602 0.38809 0.4306 0.0
H3990 H 0.91152 0.66809 0.71931 0.0
H3991 H 0.84738 0.72528 0.66618 0.0
H3992 H 0.88242 0.70917 0.74332 0.0
H3993 H 0.89326 0.70464 0.64212 0.0
H3994 H 0.8595 0.71863 0.69454 0.0
H3995 H 0.90504 0.68047 0.6909 0.0
C3996 C 0.90397 0.67987 0.7186 0.0
C3997 C 0.89737 0.68756 0.73367 0.0
C3998 C 0.86703 0.71573 0.68309 0.0
C3999 C 0.88967 0.70154 0.70124 0.0
C4000 C 0.86007 0.71939 0.66689 0.0
C4001 C 0.86928 0.71535 0.65179 0.0
C4002 C 0.88315 0.70755 0.68424 0.0
C4003 C 0.88574 0.70792 0.65346 0.0
C4004 C 0.90034 0.68694 0.7024 0.0
C4005 C 0.88776 0.70284 0.73203 0.0
N4006 N 0.89205 0.70396 0.66943 0.0
N4007 N 0.8839 0.70915 0.71607 0.0
H4008 H 0.53062 0.40485 0.58748 0.0
H4009 H 0.58813 0.34156 0.53356 0.0
H4010 H 0.55138 0.3587 0.61092 0.0
H4011 H 0.54689 0.37065 0.50985 0.0
H4012 H 0.57578 0.34777 0.56205 0.0
H4013 H 0.53746 0.39318 0.55896 0.0
C4014 C 0.53659 0.39221 0.5866 0.0
C4015 C 0.5406 0.38277 0.60158 0.0
C4016 C 0.56927 0.35253 0.5506 0.0
C4017 C 0.54859 0.36942 0.56894 0.0
C4018 C 0.57632 0.34905 0.53435 0.0
C4019 C 0.56856 0.35571 0.51935 0.0
C4020 C 0.55463 0.36313 0.55187 0.0
C4021 C 0.55325 0.36526 0.52109 0.0
C4022 C 0.54036 0.38551 0.57031 0.0
C4023 C 0.54813 0.36639 0.59968 0.0
N4024 N 0.54696 0.36898 0.5371 0.0
N4025 N 0.55218 0.36033 0.58363 0.0
H4026 H 0.88103 0.29649 0.75969 0.0
H4027 H 0.89376 0.30034 0.86241 0.0
H4028 H 0.91091 0.33637 0.78473 0.0
H4029 H 0.84735 0.28163 0.83779 0.0
H4030 H 0.90568 0.30721 0.83366 0.0
H4031 H 0.87438 0.28416 0.78822 0.0
C4032 C 0.8865 0.3024 0.77115 0.0
C4033 C 0.89637 0.31755 0.76991 0.0
C4034 C 0.89296 0.30143 0.83464 0.0
C4035 C 0.88894 0.30354 0.80239 0.0
C4036 C 0.8862 0.2975 0.85097 0.0
C4037 C 0.86948 0.29063 0.85244 0.0
C4038 C 0.88308 0.29805 0.81976 0.0
C4039 C 0.86019 0.28716 0.83723 0.0
C4040 C 0.88262 0.29545 0.78739 0.0
C4041 C 0.90307 0.32478 0.78517 0.0
N4042 N 0.86711 0.29089 0.82154 0.0
N4043 N 0.89918 0.31775 0.8008 0.0
H4044 H 0.9176 0.66301 0.03496 0.0
H4045 H 0.97353 0.59761 0.08766 0.0
H4046 H 0.9581 0.63339 0.01065 0.0
H4047 H 0.95433 0.64402 0.11189 0.0
H4048 H 0.96708 0.60998 0.05934 0.0
H4049 H 0.93005 0.6563 0.06329 0.0
C4050 C 0.92929 0.65532 0.0356 0.0
C4051 C 0.9368 0.64863 0.02047 0.0
C4052 C 0.96445 0.61755 0.07083 0.0
C4053 C 0.95082 0.64062 0.0528 0.0
C4054 C 0.96799 0.61046 0.08699 0.0
C4055 C 0.9643 0.61977 0.10213 0.0
C4056 C 0.95674 0.63392 0.06974 0.0
C4057 C 0.95733 0.63643 0.10052 0.0
C4058 C 0.93639 0.65154 0.05175 0.0
C4059 C 0.95194 0.6388 0.02199 0.0
N4060 N 0.95347 0.64288 0.08458 0.0
N4061 N 0.95827 0.63479 0.03792 0.0
H4062 H 0.59172 0.66826 0.28514 0.0
H4063 H 0.65733 0.72391 0.33794 0.0
H4064 H 0.62168 0.70852 0.26084 0.0
H4065 H 0.61076 0.70496 0.36207 0.0
H4066 H 0.64502 0.71746 0.3096 0.0
H4067 H 0.59845 0.68069 0.31347 0.0
C4068 C 0.59949 0.6799 0.28578 0.0
C4069 C 0.60626 0.68733 0.27066 0.0
C4070 C 0.6374 0.71488 0.32107 0.0
C4071 C 0.6143 0.70134 0.30299 0.0
C4072 C 0.64446 0.71842 0.33725 0.0
C4073 C 0.63509 0.7148 0.35237 0.0
C4074 C 0.621 0.70725 0.31994 0.0
C4075 C 0.6184 0.7079 0.35072 0.0
C4076 C 0.60328 0.68699 0.30193 0.0
C4077 C 0.6162 0.70242 0.27218 0.0
N4078 N 0.61198 0.70405 0.33476 0.0
N4079 N 0.62022 0.70874 0.28811 0.0
H4080 H 0.89247 0.55053 0.64631 0.0
H4081 H 0.99507 0.54542 0.63327 0.0
H4082 H 0.91676 0.53209 0.59959 0.0
H4083 H 0.97072 0.58509 0.66398 0.0
H4084 H 0.96636 0.53364 0.62648 0.0
H4085 H 0.92131 0.55691 0.65824 0.0
C4086 C 0.90385 0.54766 0.63867 0.0
C4087 C 0.90226 0.541 0.62187 0.0
C4088 C 0.96738 0.54475 0.63493 0.0
C4089 C 0.93505 0.54784 0.6355 0.0
C4090 C 0.98372 0.55138 0.6389 0.0
C4091 C 0.98522 0.56633 0.64905 0.0
C4092 C 0.95252 0.55295 0.64143 0.0
C4093 C 0.97009 0.57365 0.65594 0.0
C4094 C 0.92024 0.55131 0.64545 0.0
C4095 C 0.91741 0.53748 0.6125 0.0
N4096 N 0.95435 0.56693 0.65196 0.0
N4097 N 0.93316 0.54092 0.61944 0.0
H4098 H 0.66675 0.71869 0.91096 0.0
H4099 H 0.72275 0.66588 0.84562 0.0
H4100 H 0.70739 0.74295 0.88148 0.0
H4101 H 0.70371 0.64177 0.89218 0.0
H4102 H 0.71612 0.69421 0.85785 0.0
H4103 H 0.67909 0.69034 0.90414 0.0
C4104 C 0.67844 0.71804 0.90326 0.0
C4105 C 0.68603 0.73315 0.89667 0.0
C4106 C 0.71356 0.68275 0.86548 0.0
C4107 C 0.69993 0.70081 0.88854 0.0
C4108 C 0.7172 0.66657 0.85847 0.0
C4109 C 0.71362 0.65147 0.86786 0.0
C4110 C 0.70587 0.68387 0.88186 0.0
C4111 C 0.70662 0.65312 0.88452 0.0
C4112 C 0.68548 0.70188 0.89943 0.0
C4113 C 0.70117 0.73161 0.88683 0.0
N4114 N 0.70268 0.66906 0.8909 0.0
N4115 N 0.70745 0.71569 0.88276 0.0
H4116 H 0.60574 0.4344 0.1037 0.0
H4117 H 0.5175 0.45598 0.15037 0.0
H4118 H 0.60274 0.47849 0.13773 0.0
H4119 H 0.53432 0.40399 0.13881 0.0
H4120 H 0.54698 0.46635 0.14386 0.0
H4121 H 0.57763 0.42474 0.11413 0.0
C4122 C 0.59917 0.44199 0.11348 0.0
C4123 C 0.60657 0.45721 0.11992 0.0
C4124 C 0.54412 0.45268 0.14296 0.0
C4125 C 0.57418 0.4464 0.13171 0.0
C4126 C 0.52733 0.44677 0.14659 0.0
C4127 C 0.52334 0.42911 0.14501 0.0
C4128 C 0.55677 0.44085 0.13745 0.0
C4129 C 0.53664 0.41773 0.14013 0.0
C4130 C 0.58315 0.43646 0.11945 0.0
C4131 C 0.59749 0.46658 0.13257 0.0
N4132 N 0.55262 0.42381 0.13637 0.0
N4133 N 0.58159 0.46113 0.13794 0.0
H4134 H 0.82067 0.35637 0.3578 0.0
H4135 H 0.79868 0.26688 0.40204 0.0
H4136 H 0.77674 0.35251 0.39193 0.0
H4137 H 0.85066 0.28345 0.39012 0.0
H4138 H 0.78852 0.29661 0.39641 0.0
H4139 H 0.8302 0.32787 0.36723 0.0
C4140 C 0.8131 0.34953 0.3674 0.0
C4141 C 0.79795 0.3568 0.37416 0.0
C4142 C 0.80215 0.29363 0.39522 0.0
C4143 C 0.8086 0.32396 0.38479 0.0
C4144 C 0.80793 0.27671 0.39834 0.0
C4145 C 0.82553 0.27259 0.39644 0.0
C4146 C 0.81403 0.30631 0.38989 0.0
C4147 C 0.83697 0.28589 0.39169 0.0
C4148 C 0.81854 0.33328 0.3728 0.0
C4149 C 0.78859 0.34737 0.38656 0.0
N4150 N 0.831 0.30202 0.38843 0.0
N4151 N 0.79395 0.33126 0.39135 0.0
H4152 H 0.892 0.45482 0.86019 0.0
H4153 H 0.9947 0.45948 0.87242 0.0
H4154 H 0.91671 0.47459 0.90612 0.0
H4155 H 0.96977 0.41877 0.84358 0.0
H4156 H 0.96615 0.47184 0.87886 0.0
H4157 H 0.92072 0.44787 0.84827 0.0
C4158 C 0.90345 0.45788 0.86764 0.0
C4159 C 0.90202 0.46506 0.88423 0.0
C4160 C 0.96701 0.46035 0.87088 0.0
C4161 C 0.93467 0.45757 0.87062 0.0
C4162 C 0.98326 0.45338 0.86712 0.0
C4163 C 0.98454 0.438 0.85762 0.0
C4164 C 0.95204 0.45204 0.86481 0.0
C4165 C 0.9693 0.43055 0.85113 0.0
C4166 C 0.91977 0.45391 0.86087 0.0
C4167 C 0.91725 0.46881 0.89338 0.0
N4168 N 0.95366 0.4376 0.8549 0.0
N4169 N 0.93293 0.46504 0.88646 0.0
H4170 H 0.80069 0.64265 0.11149 0.0
H4171 H 0.79632 0.74538 0.1235 0.0
H4172 H 0.78149 0.66748 0.1576 0.0
H4173 H 0.83667 0.72037 0.09421 0.0
H4174 H 0.78412 0.71685 0.13027 0.0
H4175 H 0.80768 0.67134 0.0995 0.0
C4176 C 0.79778 0.65412 0.11897 0.0
C4177 C 0.79073 0.65273 0.13563 0.0
C4178 C 0.79549 0.71768 0.12213 0.0
C4179 C 0.79826 0.68534 0.12194 0.0
C4180 C 0.80237 0.73392 0.11818 0.0
C4181 C 0.81761 0.73519 0.10844 0.0
C4182 C 0.80374 0.70269 0.11602 0.0
C4183 C 0.825 0.71992 0.10194 0.0
C4184 C 0.80178 0.67042 0.11217 0.0
C4185 C 0.78716 0.66798 0.14481 0.0
N4186 N 0.81804 0.70428 0.10589 0.0
N4187 N 0.79094 0.68364 0.13784 0.0
H4188 H 0.51009 0.54329 0.37153 0.0
H4189 H 0.61283 0.55041 0.36095 0.0
H4190 H 0.53447 0.58436 0.34273 0.0
H4191 H 0.58776 0.53048 0.40663 0.0
H4192 H 0.58417 0.55649 0.34843 0.0
H4193 H 0.53882 0.53163 0.37842 0.0
C4194 C 0.52146 0.5496 0.36632 0.0
C4195 C 0.51996 0.56489 0.35672 0.0
C4196 C 0.58504 0.55062 0.36112 0.0
C4197 C 0.55267 0.55166 0.36444 0.0
C4198 C 0.60132 0.54714 0.36823 0.0
C4199 C 0.60262 0.54017 0.38492 0.0
C4200 C 0.57006 0.54665 0.37062 0.0
C4201 C 0.58732 0.53612 0.39382 0.0
C4202 C 0.53781 0.54303 0.37035 0.0
C4203 C 0.53511 0.57264 0.35036 0.0
N4204 N 0.57169 0.5394 0.38657 0.0
N4205 N 0.55086 0.56599 0.3544 0.0
H4206 H 0.66782 0.28586 0.5921 0.0
H4207 H 0.72365 0.3391 0.65729 0.0
H4208 H 0.70814 0.2618 0.62218 0.0
H4209 H 0.70452 0.36292 0.61063 0.0
H4210 H 0.71712 0.31069 0.6452 0.0
H4211 H 0.6802 0.31424 0.5987 0.0
C4212 C 0.67944 0.28655 0.59988 0.0
C4213 C 0.68692 0.27148 0.60671 0.0
C4214 C 0.71452 0.3221 0.63751 0.0
C4215 C 0.70088 0.30388 0.61458 0.0
C4216 C 0.71811 0.33832 0.64444 0.0
C4217 C 0.71447 0.35337 0.63499 0.0
C4218 C 0.70681 0.32087 0.62115 0.0
C4219 C 0.70749 0.35162 0.61833 0.0
C4220 C 0.68651 0.30273 0.60359 0.0
C4221 C 0.702 0.27309 0.61665 0.0
N4222 N 0.70359 0.33563 0.61203 0.0
N4223 N 0.70829 0.28904 0.62058 0.0
H4224 H 0.60066 0.91631 0.5304 0.0
H4225 H 0.66334 0.97001 0.58875 0.0
H4226 H 0.64642 0.8927 0.5518 0.0
H4227 H 0.63467 0.99377 0.54723 0.0
H4228 H 0.65729 0.94155 0.57628 0.0
H4229 H 0.61235 0.94478 0.53737 0.0
C4230 C 0.61323 0.91714 0.53653 0.0
C4231 C 0.62254 0.90214 0.54068 0.0
C4232 C 0.65259 0.95301 0.56974 0.0
C4233 C 0.63591 0.93471 0.54884 0.0
C4234 C 0.65598 0.96924 0.57686 0.0
C4235 C 0.64938 0.98425 0.56906 0.0
C4236 C 0.64215 0.95176 0.55497 0.0
C4237 C 0.64 0.98253 0.55364 0.0
C4238 C 0.61994 0.9334 0.54037 0.0
C4239 C 0.63884 0.90397 0.54842 0.0
N4240 N 0.63637 0.96653 0.54727 0.0
N4241 N 0.6449 0.91999 0.55255 0.0
H4242 H 0.09261 0.58749 0.47151 0.0
H4243 H 0.16183 0.53499 0.41951 0.0
H4244 H 0.1409 0.61106 0.45654 0.0
H4245 H 0.12781 0.50999 0.45592 0.0
H4246 H 0.15431 0.56303 0.43208 0.0
H4247 H 0.10469 0.55909 0.46488 0.0
C4248 C 0.10579 0.58668 0.46684 0.0
C4249 C 0.11573 0.60168 0.46441 0.0
C4250 C 0.14872 0.5514 0.43753 0.0
C4251 C 0.12957 0.56915 0.4567 0.0
C4252 C 0.15297 0.53541 0.43035 0.0
C4253 C 0.14536 0.52019 0.43666 0.0
C4254 C 0.1364 0.55223 0.4508 0.0
C4255 C 0.134 0.52143 0.45073 0.0
C4256 C 0.11271 0.57044 0.46321 0.0
C4257 C 0.1328 0.59983 0.45855 0.0
N4258 N 0.12958 0.53723 0.45713 0.0
N4259 N 0.13911 0.58385 0.45461 0.0
H4260 H 0.6415 0.89438 0.70351 0.0
H4261 H 0.7442 0.88272 0.70901 0.0
H4262 H 0.66626 0.84844 0.72317 0.0
H4263 H 0.71958 0.91172 0.66822 0.0
H4264 H 0.71555 0.87588 0.72088 0.0
H4265 H 0.67022 0.90639 0.69668 0.0
C4266 C 0.65297 0.88694 0.70656 0.0
C4267 C 0.65155 0.87033 0.7137 0.0
C4268 C 0.71649 0.88396 0.70948 0.0
C4269 C 0.68419 0.88404 0.70634 0.0
C4270 C 0.7328 0.88796 0.70279 0.0
C4271 C 0.73422 0.89764 0.68753 0.0
C4272 C 0.70158 0.88998 0.70103 0.0
C4273 C 0.71902 0.90404 0.67991 0.0
C4274 C 0.66928 0.89375 0.70265 0.0
C4275 C 0.66679 0.8612 0.71743 0.0
N4276 N 0.70331 0.90005 0.6867 0.0
N4277 N 0.68246 0.86817 0.71374 0.0
H4278 H 0.37177 0.49448 0.95871 0.0
H4279 H 0.35844 0.39191 0.95346 0.0
H4280 H 0.34236 0.47008 0.91808 0.0
H4281 H 0.40446 0.41609 0.97366 0.0
H4282 H 0.34684 0.42079 0.94662 0.0
H4283 H 0.37797 0.4658 0.97088 0.0
C4284 C 0.36631 0.48313 0.95259 0.0
C4285 C 0.35671 0.4846 0.93729 0.0
C4286 C 0.3594 0.41968 0.95271 0.0
C4287 C 0.36363 0.45193 0.95111 0.0
C4288 C 0.36598 0.40327 0.95662 0.0
C4289 C 0.38251 0.40165 0.9639 0.0
C4290 C 0.36926 0.43447 0.95653 0.0
C4291 C 0.39177 0.41677 0.96779 0.0
C4292 C 0.36993 0.4668 0.95945 0.0
C4293 C 0.35 0.46946 0.9298 0.0
N4294 N 0.38502 0.43254 0.96408 0.0
N4295 N 0.35364 0.45374 0.93674 0.0
H4296 H 0.35313 0.61454 0.72841 0.0
H4297 H 0.28401 0.61335 0.65229 0.0
H4298 H 0.35454 0.6487 0.68434 0.0
H4299 H 0.26803 0.60253 0.70472 0.0
H4300 H 0.31292 0.61968 0.66263 0.0
H4301 H 0.32465 0.60385 0.71865 0.0
C4302 C 0.34756 0.61959 0.71659 0.0
C4303 C 0.35614 0.63252 0.70714 0.0
C4304 C 0.30312 0.61584 0.67188 0.0
C4305 C 0.32399 0.62033 0.69596 0.0
C4306 C 0.28656 0.61217 0.66601 0.0
C4307 C 0.27342 0.60757 0.67768 0.0
C4308 C 0.30682 0.61479 0.68957 0.0
C4309 C 0.27772 0.60617 0.69529 0.0
C4310 C 0.33133 0.61361 0.71115 0.0
C4311 C 0.34833 0.63879 0.69204 0.0
N4312 N 0.2941 0.60982 0.70076 0.0
N4313 N 0.33278 0.63258 0.68689 0.0
H4314 H 0.90976 0.08945 0.03199 0.0
H4315 H 0.84381 0.03616 0.08699 0.0
H4316 H 0.86261 0.11307 0.05013 0.0
H4317 H 0.87473 0.012 0.04736 0.0
H4318 H 0.85059 0.0645 0.07462 0.0
H4319 H 0.89777 0.061 0.03857 0.0
C4320 C 0.89684 0.08863 0.03733 0.0
C4321 C 0.8872 0.10363 0.04068 0.0
C4322 C 0.85563 0.05299 0.06845 0.0
C4323 C 0.87348 0.07109 0.04837 0.0
C4324 C 0.85182 0.03683 0.07551 0.0
C4325 C 0.85882 0.02174 0.06823 0.0
C4326 C 0.86689 0.05409 0.05429 0.0
C4327 C 0.86905 0.02331 0.05334 0.0
C4328 C 0.88996 0.07238 0.04094 0.0
C4329 C 0.87046 0.1018 0.0474 0.0
N4330 N 0.87307 0.03924 0.04705 0.0
N4331 N 0.86421 0.0858 0.05132 0.0
H4332 H 0.71933 0.09302 0.83676 0.0
H4333 H 0.66674 0.15911 0.78141 0.0
H4334 H 0.74381 0.12333 0.79685 0.0
H4335 H 0.64265 0.11222 0.79962 0.0
H4336 H 0.69506 0.14685 0.78803 0.0
H4337 H 0.69106 0.09993 0.82429 0.0
C4338 C 0.71875 0.10091 0.8252 0.0
C4339 C 0.7339 0.10771 0.81786 0.0
C4340 C 0.68361 0.13916 0.79041 0.0
C4341 C 0.70164 0.11595 0.80382 0.0
C4342 C 0.66743 0.14618 0.78677 0.0
C4343 C 0.65233 0.1367 0.79012 0.0
C4344 C 0.68473 0.12268 0.79787 0.0
C4345 C 0.65399 0.11995 0.79688 0.0
C4346 C 0.70263 0.1048 0.81808 0.0
C4347 C 0.73244 0.11781 0.80288 0.0
N4348 N 0.66992 0.11356 0.80083 0.0
N4349 N 0.71655 0.12193 0.79654 0.0
H4350 H 0.83888 0.84743 0.28092 0.0
H4351 H 0.785 0.91219 0.3367 0.0
H4352 H 0.86245 0.894 0.30055 0.0
H4353 H 0.7614 0.8825 0.29581 0.0
H4354 H 0.81352 0.90559 0.32464 0.0
H4355 H 0.81039 0.85941 0.28734 0.0
C4356 C 0.83803 0.86023 0.28655 0.0
C4357 C 0.85303 0.8697 0.29036 0.0
C4358 C 0.80209 0.90078 0.31814 0.0
C4359 C 0.82045 0.8834 0.29788 0.0
C4360 C 0.78582 0.90449 0.32502 0.0
C4361 C 0.77084 0.89777 0.31728 0.0
C4362 C 0.80339 0.88992 0.30369 0.0
C4363 C 0.77262 0.88794 0.30215 0.0
C4364 C 0.82177 0.8671 0.29007 0.0
C4365 C 0.85119 0.88629 0.29745 0.0
N4366 N 0.78864 0.88401 0.29603 0.0
N4367 N 0.83516 0.89253 0.30128 0.0
H4368 H 0.4722 0.40569 0.08945 0.0
H4369 H 0.4135 0.34324 0.03522 0.0
H4370 H 0.44904 0.36076 0.11303 0.0
H4371 H 0.4554 0.37174 0.01193 0.0
H4372 H 0.4254 0.34964 0.06384 0.0
H4373 H 0.46507 0.39416 0.06097 0.0
C4374 C 0.4656 0.39337 0.08863 0.0
C4375 C 0.46105 0.38423 0.10364 0.0
C4376 C 0.43214 0.35425 0.05247 0.0
C4377 C 0.45278 0.37101 0.071 0.0
C4378 C 0.42536 0.35065 0.03614 0.0
C4379 C 0.43344 0.35708 0.0212 0.0
C4380 C 0.44687 0.36471 0.05389 0.0
C4381 C 0.44879 0.36652 0.02311 0.0
C4382 C 0.46168 0.38673 0.07235 0.0
C4383 C 0.45272 0.36822 0.10178 0.0
N4384 N 0.45484 0.37034 0.03919 0.0
N4385 N 0.4486 0.36222 0.08573 0.0
H4386 H 0.41274 0.66739 0.78387 0.0
H4387 H 0.34707 0.72276 0.83743 0.0
H4388 H 0.38021 0.7055 0.75944 0.0
H4389 H 0.39467 0.7049 0.86036 0.0
H4390 H 0.35847 0.71577 0.80884 0.0
H4391 H 0.40628 0.68026 0.81204 0.0
C4392 C 0.40441 0.67864 0.78444 0.0
C4393 C 0.39689 0.68535 0.76934 0.0
C4394 C 0.36651 0.71355 0.82009 0.0
C4395 C 0.38919 0.69988 0.80153 0.0
C4396 C 0.35997 0.7174 0.83643 0.0
C4397 C 0.36989 0.71423 0.8513 0.0
C4398 C 0.38295 0.70609 0.81857 0.0
C4399 C 0.3866 0.70749 0.84922 0.0
C4400 C 0.40079 0.68599 0.8005 0.0
C4401 C 0.38628 0.69997 0.77077 0.0
N4402 N 0.39251 0.70335 0.83315 0.0
N4403 N 0.38246 0.70656 0.78665 0.0
H4404 H 0.04347 0.63101 0.51186 0.0
H4405 H 0.04993 0.64373 0.61442 0.0
H4406 H 0.08377 0.66126 0.53576 0.0
H4407 H 0.03166 0.5969 0.59024 0.0
H4408 H 0.05581 0.6558 0.58551 0.0
H4409 H 0.032 0.62428 0.54073 0.0
C4410 C 0.04964 0.63656 0.52315 0.0
C4411 C 0.06467 0.64654 0.52149 0.0
C4412 C 0.05035 0.64296 0.58663 0.0
C4413 C 0.05164 0.63901 0.55434 0.0
C4414 C 0.04699 0.63609 0.60305 0.0
C4415 C 0.04054 0.61923 0.60467 0.0
C4416 C 0.04677 0.63301 0.57184 0.0
C4417 C 0.0369 0.60986 0.58955 0.0
C4418 C 0.04318 0.63263 0.53957 0.0
C4419 C 0.07225 0.65334 0.53654 0.0
N4420 N 0.04004 0.61688 0.57377 0.0
N4421 N 0.06571 0.64939 0.55236 0.0
H4422 H 0.11147 0.30875 0.36537 0.0
H4423 H 0.12308 0.30133 0.26272 0.0
H4424 H 0.15616 0.28601 0.34094 0.0
H4425 H 0.09519 0.34327 0.28668 0.0
H4426 H 0.12969 0.28982 0.29157 0.0
H4427 H 0.10011 0.3162 0.33655 0.0
C4428 C 0.11881 0.30524 0.35397 0.0
C4429 C 0.13487 0.29697 0.35553 0.0
C4430 C 0.12192 0.30141 0.29045 0.0
C4431 C 0.12184 0.30501 0.32274 0.0
C4432 C 0.11805 0.3079 0.27402 0.0
C4433 C 0.10873 0.32335 0.27235 0.0
C4434 C 0.11616 0.31028 0.30524 0.0
C4435 C 0.10259 0.33142 0.28744 0.0
C4436 C 0.11235 0.30948 0.33759 0.0
C4437 C 0.14385 0.29263 0.34034 0.0
N4438 N 0.10646 0.32483 0.30326 0.0
N4439 N 0.1372 0.29666 0.32461 0.0
H4440 H 0.4704 0.59254 0.4159 0.0
H4441 H 0.41813 0.66095 0.46904 0.0
H4442 H 0.45487 0.64077 0.39258 0.0
H4443 H 0.45549 0.62766 0.49361 0.0
H4444 H 0.43048 0.6536 0.44084 0.0
H4445 H 0.46391 0.6045 0.4444 0.0
C4446 C 0.46564 0.60568 0.41679 0.0
C4447 C 0.463 0.61564 0.40184 0.0
C4448 C 0.43617 0.64814 0.45241 0.0
C4449 C 0.45546 0.62934 0.43445 0.0
C4450 C 0.42913 0.65228 0.46849 0.0
C4451 C 0.43578 0.64482 0.48364 0.0
C4452 C 0.44966 0.63608 0.45143 0.0
C4453 C 0.45004 0.63372 0.48224 0.0
C4454 C 0.46209 0.61253 0.43307 0.0
C4455 C 0.45703 0.63266 0.40378 0.0
N4456 N 0.4563 0.6294 0.46636 0.0
N4457 N 0.45318 0.6389 0.4198 0.0
H4458 H 0.1109 0.70576 0.14369 0.0
H4459 H 0.12561 0.70574 0.24629 0.0
H4460 H 0.15835 0.72229 0.16792 0.0
H4461 H 0.09343 0.6683 0.22037 0.0
H4462 H 0.13245 0.71874 0.21807 0.0
H4463 H 0.09932 0.69845 0.17245 0.0
C4464 C 0.11878 0.70802 0.15505 0.0
C4465 C 0.13567 0.7144 0.15344 0.0
C4466 C 0.12368 0.70784 0.21865 0.0
C4467 C 0.12246 0.70647 0.18617 0.0
C4468 C 0.1197 0.70052 0.23472 0.0
C4469 C 0.10909 0.68586 0.23559 0.0
C4470 C 0.11672 0.70062 0.20348 0.0
C4471 C 0.10183 0.6795 0.2202 0.0
C4472 C 0.11219 0.70385 0.1714 0.0
C4473 C 0.14534 0.71714 0.16857 0.0
N4474 N 0.10582 0.68688 0.20476 0.0
N4475 N 0.13861 0.71317 0.18429 0.0
H4476 H 0.08701 0.34268 0.97011 0.0
H4477 H 0.03176 0.40831 0.91684 0.0
H4478 H 0.04707 0.37318 0.99428 0.0
H4479 H 0.05001 0.36123 0.89317 0.0
H4480 H 0.03833 0.3963 0.94529 0.0
H4481 H 0.0746 0.34936 0.94176 0.0
C4482 C 0.07545 0.35057 0.96944 0.0
C4483 C 0.06809 0.35748 0.98453 0.0
C4484 C 0.04073 0.38851 0.9339 0.0
C4485 C 0.05412 0.36546 0.95217 0.0
C4486 C 0.03712 0.3954 0.91765 0.0
C4487 C 0.0405 0.38579 0.90263 0.0
C4488 C 0.04819 0.37204 0.93517 0.0
C4489 C 0.04725 0.36905 0.90444 0.0
C4490 C 0.06838 0.35433 0.95328 0.0
C4491 C 0.05312 0.36757 0.98296 0.0
N4492 N 0.05117 0.3628 0.92044 0.0
N4493 N 0.04681 0.37156 0.96702 0.0
H4494 H 0.34675 0.28248 0.66529 0.0
H4495 H 0.41251 0.33713 0.71918 0.0
H4496 H 0.39416 0.30037 0.64199 0.0
H4497 H 0.38158 0.29731 0.743 0.0
H4498 H 0.40579 0.32496 0.69072 0.0
H4499 H 0.35856 0.28906 0.69383 0.0
C4500 C 0.35969 0.28778 0.6662 0.0
C4501 C 0.36945 0.29104 0.65125 0.0
C4502 C 0.40074 0.31871 0.70219 0.0
C4503 C 0.38297 0.29873 0.6839 0.0
C4504 C 0.40451 0.32565 0.71841 0.0
C4505 C 0.3975 0.31824 0.73344 0.0
C4506 C 0.38949 0.30455 0.70096 0.0
C4507 C 0.38727 0.30337 0.73174 0.0
C4508 C 0.36646 0.29139 0.6825 0.0
C4509 C 0.38621 0.29771 0.6532 0.0
N4510 N 0.38328 0.2972 0.71575 0.0
N4511 N 0.39236 0.30163 0.66925 0.0
H4512 H 0.10518 0.43451 0.39875 0.0
H4513 H 0.01653 0.45821 0.35404 0.0
H4514 H 0.10178 0.47995 0.36661 0.0
H4515 H 0.03295 0.40573 0.36378 0.0
H4516 H 0.04621 0.46807 0.36035 0.0
H4517 H 0.07704 0.42517 0.38813 0.0
C4518 C 0.09852 0.44246 0.38933 0.0
C4519 C 0.1058 0.45797 0.38349 0.0
C4520 C 0.04322 0.45441 0.36089 0.0
C4521 C 0.07336 0.44753 0.37152 0.0
C4522 C 0.02633 0.44878 0.35737 0.0
C4523 C 0.02216 0.43113 0.35852 0.0
C4524 C 0.05583 0.44229 0.36584 0.0
C4525 C 0.03541 0.41947 0.36282 0.0
C4526 C 0.08247 0.43711 0.38325 0.0
C4527 C 0.09662 0.4678 0.37128 0.0
N4528 N 0.05152 0.42527 0.36649 0.0
N4529 N 0.08069 0.46254 0.36583 0.0
H4530 H 0.28201 0.34007 0.15772 0.0
H4531 H 0.33495 0.28545 0.09129 0.0
H4532 H 0.29949 0.3631 0.11001 0.0
H4533 H 0.29533 0.26216 0.12286 0.0
H4534 H 0.32311 0.31404 0.09798 0.0
H4535 H 0.28791 0.31144 0.14579 0.0
C4536 C 0.28707 0.33908 0.14469 0.0
C4537 C 0.29042 0.35398 0.13487 0.0
C4538 C 0.31681 0.30266 0.10317 0.0
C4539 C 0.29733 0.32122 0.12122 0.0
C4540 C 0.32357 0.28636 0.0994 0.0
C4541 C 0.31614 0.27145 0.10662 0.0
C4542 C 0.30283 0.30408 0.11463 0.0
C4543 C 0.3014 0.27333 0.11701 0.0
C4544 C 0.29029 0.32273 0.13785 0.0
C4545 C 0.29677 0.35193 0.118 0.0
N4546 N 0.29543 0.2894 0.121 0.0
N4547 N 0.30031 0.33583 0.11178 0.0
H4548 H 0.39121 0.55022 0.86 0.0
H4549 H 0.49387 0.54435 0.87195 0.0
H4550 H 0.41585 0.53088 0.90616 0.0
H4551 H 0.46946 0.58503 0.84262 0.0
H4552 H 0.46517 0.53251 0.87864 0.0
H4553 H 0.41998 0.55666 0.8479 0.0
C4554 C 0.40266 0.54715 0.86747 0.0
C4555 C 0.4012 0.54024 0.88417 0.0
C4556 C 0.46617 0.54387 0.87051 0.0
C4557 C 0.43388 0.54714 0.87035 0.0
C4558 C 0.48251 0.55054 0.8666 0.0
C4559 C 0.48399 0.56577 0.85688 0.0
C4560 C 0.4513 0.55232 0.86438 0.0
C4561 C 0.46884 0.57336 0.85033 0.0
C4562 C 0.419 0.55084 0.8606 0.0
C4563 C 0.41641 0.53647 0.89333 0.0
N4564 N 0.4531 0.5666 0.85425 0.0
N4565 N 0.43211 0.53994 0.8863 0.0
H4566 H 0.1982 0.63989 0.61088 0.0
H4567 H 0.20704 0.7424 0.6226 0.0
H4568 H 0.22204 0.66394 0.65523 0.0
H4569 H 0.16469 0.71885 0.59497 0.0
H4570 H 0.21842 0.71344 0.62897 0.0
H4571 H 0.19114 0.6688 0.59958 0.0
C4572 C 0.20204 0.65122 0.61815 0.0
C4573 C 0.2105 0.64954 0.63411 0.0
C4574 C 0.20676 0.71468 0.62131 0.0
C4575 C 0.20288 0.68243 0.62114 0.0
C4576 C 0.20035 0.73116 0.61758 0.0
C4577 C 0.18483 0.73297 0.60841 0.0
C4578 C 0.19773 0.69999 0.61556 0.0
C4579 C 0.17661 0.71798 0.60227 0.0
C4580 C 0.19802 0.66766 0.61172 0.0
C4581 C 0.21527 0.66465 0.643 0.0
N4582 N 0.18312 0.7021 0.606 0.0
N4583 N 0.21142 0.68044 0.63639 0.0
H4584 H 0.11293 0.55088 0.14327 0.0
H4585 H 0.01026 0.54584 0.13092 0.0
H4586 H 0.08834 0.53177 0.09699 0.0
H4587 H 0.03491 0.58612 0.1606 0.0
H4588 H 0.03889 0.53384 0.1242 0.0
H4589 H 0.08416 0.55754 0.15526 0.0
C4590 C 0.10149 0.54792 0.13575 0.0
C4591 C 0.10297 0.54099 0.11905 0.0
C4592 C 0.03795 0.54515 0.13241 0.0
C4593 C 0.07028 0.54814 0.13273 0.0
C4594 C 0.02166 0.55191 0.13634 0.0
C4595 C 0.02027 0.56708 0.14617 0.0
C4596 C 0.05287 0.55344 0.13865 0.0
C4597 C 0.03546 0.57451 0.1528 0.0
C4598 C 0.08515 0.55172 0.14255 0.0
C4599 C 0.08777 0.53735 0.10982 0.0
N4600 N 0.05115 0.56766 0.14887 0.0
N4601 N 0.07207 0.54095 0.11678 0.0
H4602 H 0.22403 0.33774 0.84629 0.0
H4603 H 0.16951 0.28449 0.91256 0.0
H4604 H 0.20605 0.36144 0.89348 0.0
H4605 H 0.20909 0.26034 0.88159 0.0
H4606 H 0.18187 0.31283 0.90577 0.0
H4607 H 0.21769 0.3093 0.85843 0.0
C4608 C 0.21878 0.33694 0.85925 0.0
C4609 C 0.2154 0.35196 0.86885 0.0
C4610 C 0.18804 0.30132 0.90073 0.0
C4611 C 0.20799 0.31943 0.88275 0.0
C4612 C 0.18099 0.28516 0.90455 0.0
C4613 C 0.18826 0.27008 0.89753 0.0
C4614 C 0.20216 0.30243 0.88942 0.0
C4615 C 0.20313 0.27165 0.88728 0.0
C4616 C 0.21531 0.32069 0.86622 0.0
C4617 C 0.2088 0.35016 0.88565 0.0
N4618 N 0.2094 0.28759 0.88324 0.0
N4619 N 0.20501 0.33416 0.89199 0.0
H4620 H 0.38959 0.44632 0.64328 0.0
H4621 H 0.4923 0.45529 0.63372 0.0
H4622 H 0.41454 0.4715 0.6002 0.0
H4623 H 0.46828 0.41166 0.65884 0.0
H4624 H 0.46347 0.46703 0.62747 0.0
H4625 H 0.41829 0.4388 0.6549 0.0
C4626 C 0.40108 0.45039 0.63638 0.0
C4627 C 0.39973 0.45933 0.62066 0.0
C4628 C 0.46457 0.455 0.63457 0.0
C4629 C 0.43234 0.45118 0.63398 0.0
C4630 C 0.48098 0.44838 0.63822 0.0
C4631 C 0.48264 0.43241 0.64663 0.0
C4632 C 0.44979 0.44573 0.63964 0.0
C4633 C 0.46754 0.42392 0.65213 0.0
C4634 C 0.41739 0.44609 0.64298 0.0
C4635 C 0.415 0.46436 0.61223 0.0
N4636 N 0.45173 0.43065 0.64849 0.0
N4637 N 0.43066 0.46024 0.619 0.0
H4638 H 0.30683 0.64009 0.39251 0.0
H4639 H 0.29805 0.74259 0.38086 0.0
H4640 H 0.28414 0.66419 0.34759 0.0
H4641 H 0.3399 0.71911 0.40928 0.0
H4642 H 0.28691 0.71361 0.37416 0.0
H4643 H 0.31359 0.66899 0.40403 0.0
C4644 C 0.30318 0.65143 0.38515 0.0
C4645 C 0.29513 0.64977 0.36898 0.0
C4646 C 0.29839 0.71487 0.38207 0.0
C4647 C 0.3024 0.68264 0.38219 0.0
C4648 C 0.30467 0.73136 0.38599 0.0
C4649 C 0.31999 0.7332 0.39548 0.0
C4650 C 0.30736 0.7002 0.38795 0.0
C4651 C 0.32814 0.71822 0.40175 0.0
C4652 C 0.30702 0.66786 0.39171 0.0
C4653 C 0.2906 0.66488 0.35999 0.0
N4654 N 0.32176 0.70233 0.39782 0.0
N4655 N 0.29426 0.68067 0.36672 0.0
H4656 H 0.36192 0.11113 0.45605 0.0
H4657 H 0.37675 0.00856 0.45656 0.0
H4658 H 0.4095 0.08703 0.47235 0.0
H4659 H 0.34421 0.03426 0.41928 0.0
H4660 H 0.38357 0.03684 0.46945 0.0
H4661 H 0.35022 0.08232 0.44917 0.0
C4662 C 0.3698 0.09979 0.45836 0.0
C4663 C 0.38677 0.10144 0.46453 0.0
C4664 C 0.37472 0.03619 0.45862 0.0
C4665 C 0.37343 0.06865 0.45709 0.0
C4666 C 0.37075 0.0201 0.45136 0.0
C4667 C 0.36006 0.01916 0.43676 0.0
C4668 C 0.36766 0.05132 0.4514 0.0
C4669 C 0.35268 0.03449 0.43043 0.0
C4670 C 0.36316 0.08341 0.45443 0.0
C4671 C 0.39644 0.08633 0.46735 0.0
N4672 N 0.35666 0.04996 0.43774 0.0
N4673 N 0.38965 0.07058 0.46361 0.0
H4674 H 0.90584 0.41713 0.53051 0.0
H4675 H 0.84335 0.47032 0.58947 0.0
H4676 H 0.86022 0.39331 0.55202 0.0
H4677 H 0.87175 0.49442 0.54796 0.0
H4678 H 0.84937 0.44196 0.57676 0.0
H4679 H 0.8941 0.44553 0.53764 0.0
C4680 C 0.89329 0.4179 0.5367 0.0
C4681 C 0.88404 0.40286 0.54084 0.0
C4682 C 0.85402 0.45347 0.57028 0.0
C4683 C 0.87062 0.43535 0.54917 0.0
C4684 C 0.85065 0.46964 0.57753 0.0
C4685 C 0.85719 0.48471 0.5698 0.0
C4686 C 0.86438 0.45234 0.55544 0.0
C4687 C 0.86648 0.48312 0.55432 0.0
C4688 C 0.88655 0.43412 0.54063 0.0
C4689 C 0.86776 0.40461 0.54865 0.0
N4690 N 0.8701 0.46718 0.54781 0.0
N4691 N 0.86167 0.4206 0.55286 0.0
H4692 H 0.33628 0.15941 0.28185 0.0
H4693 H 0.28351 0.09226 0.33587 0.0
H4694 H 0.3596 0.11142 0.29809 0.0
H4695 H 0.2586 0.1251 0.29834 0.0
H4696 H 0.31154 0.09903 0.32285 0.0
H4697 H 0.30779 0.14756 0.28853 0.0
C4698 C 0.33539 0.14633 0.28678 0.0
C4699 C 0.35034 0.13642 0.2896 0.0
C4700 C 0.29993 0.1045 0.31726 0.0
C4701 C 0.31773 0.12285 0.29739 0.0
C4702 C 0.28395 0.10069 0.32469 0.0
C4703 C 0.26877 0.10822 0.3182 0.0
C4704 C 0.30079 0.11631 0.30353 0.0
C4705 C 0.27001 0.11901 0.30369 0.0
C4706 C 0.31911 0.13954 0.29045 0.0
C4707 C 0.3484 0.11949 0.29579 0.0
N4708 N 0.28582 0.12303 0.29704 0.0
N4709 N 0.33239 0.11332 0.29978 0.0
H4710 H 0.5954 0.58747 0.0319 0.0
H4711 H 0.66269 0.53482 0.08599 0.0
H4712 H 0.64289 0.61119 0.04901 0.0
H4713 H 0.63042 0.51005 0.04786 0.0
H4714 H 0.65562 0.56295 0.07336 0.0
H4715 H 0.60747 0.55906 0.03848 0.0
C4716 C 0.60842 0.58668 0.03701 0.0
C4717 C 0.61812 0.60172 0.04009 0.0
C4718 C 0.65032 0.55135 0.06756 0.0
C4719 C 0.63194 0.5692 0.04777 0.0
C4720 C 0.6543 0.53531 0.07478 0.0
C4721 C 0.64702 0.52012 0.06799 0.0
C4722 C 0.63861 0.55226 0.05376 0.0
C4723 C 0.63631 0.52145 0.05344 0.0
C4724 C 0.61534 0.57045 0.04062 0.0
C4725 C 0.63498 0.59992 0.04651 0.0
N4726 N 0.63214 0.5373 0.047 0.0
N4727 N 0.64128 0.58393 0.05043 0.0
H4728 H 0.64212 0.39505 0.30684 0.0
H4729 H 0.74499 0.38344 0.30215 0.0
H4730 H 0.66708 0.35059 0.28419 0.0
H4731 H 0.7196 0.41165 0.34303 0.0
H4732 H 0.71652 0.37678 0.28966 0.0
H4733 H 0.67074 0.40648 0.3148 0.0
C4734 C 0.6536 0.38779 0.30343 0.0
C4735 C 0.65224 0.37175 0.29507 0.0
C4736 C 0.71725 0.38462 0.30124 0.0
C4737 C 0.68483 0.38485 0.30374 0.0
C4738 C 0.73346 0.38851 0.30828 0.0
C4739 C 0.73459 0.39795 0.32371 0.0
C4740 C 0.70218 0.39049 0.30955 0.0
C4741 C 0.71925 0.40415 0.33121 0.0
C4742 C 0.66988 0.39428 0.30797 0.0
C4743 C 0.66753 0.36288 0.29088 0.0
N4744 N 0.70367 0.40028 0.32409 0.0
N4745 N 0.68317 0.36954 0.29524 0.0
H4746 H 0.13102 0.99363 0.95927 0.0
H4747 H 0.14242 0.89088 0.95393 0.0
H4748 H 0.16045 0.96894 0.91883 0.0
H4749 H 0.09632 0.91581 0.973 0.0
H4750 H 0.15458 0.91955 0.94718 0.0
H4751 H 0.12395 0.96499 0.97105 0.0
C4752 C 0.1363 0.98222 0.95312 0.0
C4753 C 0.14617 0.98361 0.93798 0.0
C4754 C 0.14187 0.91866 0.953 0.0
C4755 C 0.13825 0.95098 0.95136 0.0
C4756 C 0.13496 0.90236 0.95685 0.0
C4757 C 0.11827 0.90101 0.9638 0.0
C4758 C 0.13217 0.9336 0.95657 0.0
C4759 C 0.10914 0.91628 0.96739 0.0
C4760 C 0.13218 0.96591 0.95975 0.0
C4761 C 0.15262 0.96839 0.93043 0.0
N4762 N 0.11621 0.93193 0.96377 0.0
N4763 N 0.1485 0.95269 0.93716 0.0
H4764 H 0.36461 0.89486 0.20309 0.0
H4765 H 0.26197 0.88306 0.21001 0.0
H4766 H 0.34007 0.84915 0.22357 0.0
H4767 H 0.28607 0.91177 0.1687 0.0
H4768 H 0.29076 0.87656 0.22173 0.0
H4769 H 0.3358 0.90687 0.19666 0.0
C4770 C 0.35318 0.88748 0.20641 0.0
C4771 C 0.35467 0.87092 0.21364 0.0
C4772 C 0.28967 0.88451 0.21026 0.0
C4773 C 0.32194 0.88464 0.20675 0.0
C4774 C 0.27328 0.88831 0.20365 0.0
C4775 C 0.27168 0.8978 0.18828 0.0
C4776 C 0.30448 0.89051 0.2016 0.0
C4777 C 0.28678 0.90423 0.18048 0.0
C4778 C 0.33681 0.8943 0.20273 0.0
C4779 C 0.33948 0.86186 0.21774 0.0
N4780 N 0.30257 0.90041 0.18718 0.0
N4781 N 0.32376 0.86884 0.21425 0.0
H4782 H 0.1423 0.1111 0.70386 0.0
H4783 H 0.24493 0.12365 0.70895 0.0
H4784 H 0.16676 0.15733 0.72326 0.0
H4785 H 0.22037 0.0943 0.66837 0.0
H4786 H 0.21627 0.13028 0.72094 0.0
H4787 H 0.1711 0.09929 0.69702 0.0
C4788 C 0.15372 0.11865 0.70685 0.0
C4789 C 0.15219 0.13528 0.71391 0.0
C4790 C 0.21723 0.12216 0.70956 0.0
C4791 C 0.18491 0.1218 0.70655 0.0
C4792 C 0.23354 0.1183 0.7028 0.0
C4793 C 0.23497 0.10858 0.68757 0.0
C4794 C 0.20233 0.11598 0.7012 0.0
C4795 C 0.2198 0.10202 0.68004 0.0
C4796 C 0.17007 0.11195 0.70294 0.0
C4797 C 0.16737 0.14455 0.71757 0.0
N4798 N 0.20409 0.10589 0.68689 0.0
N4799 N 0.18308 0.13768 0.71388 0.0
loop_
_geom_bond_atom_site_label_1
_geom_bond_atom_site_label_2
_geom_bond_distance
_geom_bond_site_symmetry_2
_ccdc_geom_bond_type
O0 Cd1 2.223 1_655 S
O0 C8 1.331 . S
Cd1 O0 2.223 1_455 S
Cd1 O4 2.297 1_455 S
Cd1 O5 2.439 . S
Cd1 O11 2.240 . S
Cd2 O3 2.240 . S
Cd2 O10 2.223 . S
Cd2 O12 2.297 . S
Cd2 O13 2.439 . S
O3 Cd2 2.240 . S
O3 C8 1.247 1_455 S
O4 Cd1 2.297 1_655 S
O4 C6 1.247 . S
O5 Cd1 2.439 . S
O5 C6 1.208 1_455 S
C6 O4 1.247 . S
C6 O5 1.208 1_655 S
C7 O12 1.247 . S
C7 O13 1.208 . S
C8 O0 1.331 . S
C8 O3 1.247 1_655 S
C9 O10 1.315 . S
C9 O11 1.279 . S
O10 Cd2 2.223 . S
O10 C9 1.315 . S
O11 Cd1 2.240 . S
O11 C9 1.279 . S
O12 Cd2 2.297 . S
O12 C7 1.247 . S
O13 Cd2 2.439 . S
O13 C7 1.208 . S
O14 Cd15 2.223 . S
O14 C22 1.315 . S
Cd15 O14 2.223 . S
Cd15 O18 2.297 . S
Cd15 O19 2.439 . S
Cd15 O25 2.240 . S
Cd16 O17 2.240 . S
Cd16 O24 2.223 . S
Cd16 O26 2.297 . S
Cd16 O27 2.439 . S
O17 Cd16 2.240 . S
O17 C22 1.279 . S
O18 Cd15 2.297 . S
O18 C20 1.247 . S
O19 Cd15 2.439 . S
O19 C20 1.208 . S
C20 O18 1.247 . S
C20 O19 1.208 . S
C21 O26 1.247 . S
C21 O27 1.208 . S
C22 O14 1.315 . S
C22 O17 1.279 . S
C23 O24 1.315 . S
C23 O25 1.279 . S
O24 Cd16 2.223 . S
O24 C23 1.315 . S
O25 Cd15 2.240 . S
O25 C23 1.279 . S
O26 Cd16 2.297 . S
O26 C21 1.247 . S
O27 Cd16 2.439 . S
O27 C21 1.208 . S
O28 Cd29 2.223 . S
O28 C36 1.315 . S
Cd29 O28 2.223 . S
Cd29 O32 2.297 . S
Cd29 O33 2.439 . S
Cd29 O39 2.240 . S
Cd30 O31 2.240 . S
Cd30 O38 2.223 . S
Cd30 O40 2.297 . S
Cd30 O41 2.439 . S
O31 Cd30 2.240 . S
O31 C36 1.279 . S
O32 Cd29 2.297 . S
O32 C34 1.247 . S
O33 Cd29 2.439 . S
O33 C34 1.208 . S
C34 O32 1.247 . S
C34 O33 1.208 . S
C35 O40 1.247 . S
C35 O41 1.208 . S
C36 O28 1.315 . S
C36 O31 1.279 . S
C37 O38 1.315 . S
C37 O39 1.279 . S
O38 Cd30 2.223 . S
O38 C37 1.315 . S
O39 Cd29 2.240 . S
O39 C37 1.279 . S
O40 Cd30 2.297 . S
O40 C35 1.247 . S
O41 Cd30 2.439 . S
O41 C35 1.208 . S
O42 Cd43 2.223 . S
O42 C50 1.315 . S
Cd43 O42 2.223 . S
Cd43 O46 2.297 . S
Cd43 O47 2.439 . S
Cd43 O53 2.240 . S
Cd44 O45 2.240 . S
Cd44 O52 2.223 . S
Cd44 O54 2.297 . S
Cd44 O55 2.439 . S
O45 Cd44 2.240 . S
O45 C50 1.279 . S
O46 Cd43 2.297 . S
O46 C48 1.247 . S
O47 Cd43 2.439 . S
O47 C48 1.208 . S
C48 O46 1.247 . S
C48 O47 1.208 . S
C49 O54 1.247 . S
C49 O55 1.208 . S
C50 O42 1.315 . S
C50 O45 1.279 . S
C51 O52 1.315 . S
C51 O53 1.279 . S
O52 Cd44 2.223 . S
O52 C51 1.315 . S
O53 Cd43 2.240 . S
O53 C51 1.279 . S
O54 Cd44 2.297 . S
O54 C49 1.247 . S
O55 Cd44 2.439 . S
O55 C49 1.208 . S
O56 Cd57 2.223 1_655 S
O56 C64 1.331 . S
Cd57 O56 2.223 1_455 S
Cd57 O60 2.297 1_455 S
Cd57 O61 2.439 . S
Cd57 O67 2.240 . S
Cd58 O59 2.240 . S
Cd58 O66 2.223 . S
Cd58 O68 2.297 . S
Cd58 O69 2.439 . S
O59 Cd58 2.240 . S
O59 C64 1.247 1_455 S
O60 Cd57 2.297 1_655 S
O60 C62 1.247 . S
O61 Cd57 2.439 . S
O61 C62 1.208 1_455 S
C62 O60 1.247 . S
C62 O61 1.208 1_655 S
C63 O68 1.247 . S
C63 O69 1.208 . S
C64 O56 1.331 . S
C64 O59 1.247 1_655 S
C65 O66 1.315 . S
C65 O67 1.279 . S
O66 Cd58 2.223 . S
O66 C65 1.315 . S
O67 Cd57 2.240 . S
O67 C65 1.279 . S
O68 Cd58 2.297 . S
O68 C63 1.247 . S
O69 Cd58 2.439 . S
O69 C63 1.208 . S
O70 Cd71 2.223 . S
O70 C78 1.315 . S
Cd71 O70 2.223 . S
Cd71 O74 2.297 . S
Cd71 O75 2.439 . S
Cd71 O81 2.240 . S
Cd72 O73 2.240 . S
Cd72 O80 2.223 . S
Cd72 O82 2.297 . S
Cd72 O83 2.439 . S
O73 Cd72 2.240 . S
O73 C78 1.279 . S
O74 Cd71 2.297 . S
O74 C76 1.247 . S
O75 Cd71 2.439 . S
O75 C76 1.208 . S
C76 O74 1.247 . S
C76 O75 1.208 . S
C77 O82 1.247 . S
C77 O83 1.208 . S
C78 O70 1.315 . S
C78 O73 1.279 . S
C79 O80 1.315 . S
C79 O81 1.279 . S
O80 Cd72 2.223 . S
O80 C79 1.315 . S
O81 Cd71 2.240 . S
O81 C79 1.279 . S
O82 Cd72 2.297 . S
O82 C77 1.247 . S
O83 Cd72 2.439 . S
O83 C77 1.208 . S
O84 Cd85 2.223 . S
O84 C92 1.315 . S
Cd85 O84 2.223 . S
Cd85 O88 2.297 . S
Cd85 O89 2.439 . S
Cd85 O95 2.240 . S
Cd86 O87 2.240 . S
Cd86 O94 2.223 . S
Cd86 O96 2.297 . S
Cd86 O97 2.439 . S
O87 Cd86 2.240 . S
O87 C92 1.279 . S
O88 Cd85 2.297 . S
O88 C90 1.247 . S
O89 Cd85 2.439 . S
O89 C90 1.208 . S
C90 O88 1.247 . S
C90 O89 1.208 . S
C91 O96 1.247 . S
C91 O97 1.208 . S
C92 O84 1.315 . S
C92 O87 1.279 . S
C93 O94 1.315 . S
C93 O95 1.279 . S
O94 Cd86 2.223 . S
O94 C93 1.315 . S
O95 Cd85 2.240 . S
O95 C93 1.279 . S
O96 Cd86 2.297 . S
O96 C91 1.247 . S
O97 Cd86 2.439 . S
O97 C91 1.208 . S
O98 Cd99 2.223 . S
O98 C106 1.315 . S
Cd99 O98 2.223 . S
Cd99 O102 2.297 . S
Cd99 O103 2.439 . S
Cd99 O109 2.240 . S
Cd100 O101 2.240 . S
Cd100 O108 2.223 . S
Cd100 O110 2.297 . S
Cd100 O111 2.439 . S
O101 Cd100 2.240 . S
O101 C106 1.279 . S
O102 Cd99 2.297 . S
O102 C104 1.247 . S
O103 Cd99 2.439 . S
O103 C104 1.208 . S
C104 O102 1.247 . S
C104 O103 1.208 . S
C105 O110 1.247 . S
C105 O111 1.208 . S
C106 O98 1.315 . S
C106 O101 1.279 . S
C107 O108 1.315 . S
C107 O109 1.279 . S
O108 Cd100 2.223 . S
O108 C107 1.315 . S
O109 Cd99 2.240 . S
O109 C107 1.279 . S
O110 Cd100 2.297 . S
O110 C105 1.247 . S
O111 Cd100 2.439 . S
O111 C105 1.208 . S
O112 Cd113 2.223 1_565 S
O112 C120 1.331 . S
Cd113 O112 2.223 1_545 S
Cd113 O116 2.297 1_545 S
Cd113 O117 2.439 . S
Cd113 O123 2.240 . S
Cd114 O115 2.240 . S
Cd114 O122 2.223 . S
Cd114 O124 2.297 . S
Cd114 O125 2.439 . S
O115 Cd114 2.240 . S
O115 C120 1.247 1_545 S
O116 Cd113 2.297 1_565 S
O116 C118 1.247 . S
O117 Cd113 2.439 . S
O117 C118 1.208 1_545 S
C118 O116 1.247 . S
C118 O117 1.208 1_565 S
C119 O124 1.247 . S
C119 O125 1.208 . S
C120 O112 1.331 . S
C120 O115 1.247 1_565 S
C121 O122 1.315 . S
C121 O123 1.279 . S
O122 Cd114 2.223 . S
O122 C121 1.315 . S
O123 Cd113 2.240 . S
O123 C121 1.279 . S
O124 Cd114 2.297 . S
O124 C119 1.247 . S
O125 Cd114 2.439 . S
O125 C119 1.208 . S
O126 Cd127 2.223 . S
O126 C134 1.315 . S
Cd127 O126 2.223 . S
Cd127 O130 2.297 . S
Cd127 O131 2.439 . S
Cd127 O137 2.240 . S
Cd128 O129 2.240 . S
Cd128 O136 2.223 . S
Cd128 O138 2.297 . S
Cd128 O139 2.439 . S
O129 Cd128 2.240 . S
O129 C134 1.279 . S
O130 Cd127 2.297 . S
O130 C132 1.247 . S
O131 Cd127 2.439 . S
O131 C132 1.208 . S
C132 O130 1.247 . S
C132 O131 1.208 . S
C133 O138 1.247 . S
C133 O139 1.208 . S
C134 O126 1.315 . S
C134 O129 1.279 . S
C135 O136 1.315 . S
C135 O137 1.279 . S
O136 Cd128 2.223 . S
O136 C135 1.315 . S
O137 Cd127 2.240 . S
O137 C135 1.279 . S
O138 Cd128 2.297 . S
O138 C133 1.247 . S
O139 Cd128 2.439 . S
O139 C133 1.208 . S
O140 Cd141 2.223 1_545 S
O140 C148 1.332 . S
Cd141 O140 2.223 1_565 S
Cd141 O144 2.297 1_565 S
Cd141 O145 2.439 . S
Cd141 O151 2.240 . S
Cd142 O143 2.240 . S
Cd142 O150 2.223 . S
Cd142 O152 2.297 . S
Cd142 O153 2.439 . S
O143 Cd142 2.240 . S
O143 C148 1.247 1_565 S
O144 Cd141 2.297 1_545 S
O144 C146 1.247 . S
O145 Cd141 2.439 . S
O145 C146 1.208 1_565 S
C146 O144 1.247 . S
C146 O145 1.208 1_545 S
C147 O152 1.247 . S
C147 O153 1.208 . S
C148 O140 1.332 . S
C148 O143 1.247 1_545 S
C149 O150 1.315 . S
C149 O151 1.279 . S
O150 Cd142 2.223 . S
O150 C149 1.315 . S
O151 Cd141 2.240 . S
O151 C149 1.279 . S
O152 Cd142 2.297 . S
O152 C147 1.247 . S
O153 Cd142 2.439 . S
O153 C147 1.208 . S
O154 Cd155 2.223 . S
O154 C162 1.315 . S
Cd155 O154 2.223 . S
Cd155 O158 2.297 . S
Cd155 O159 2.439 . S
Cd155 O165 2.240 . S
Cd156 O157 2.240 . S
Cd156 O164 2.223 . S
Cd156 O166 2.297 . S
Cd156 O167 2.439 . S
O157 Cd156 2.240 . S
O157 C162 1.279 . S
O158 Cd155 2.297 . S
O158 C160 1.247 . S
O159 Cd155 2.439 . S
O159 C160 1.208 . S
C160 O158 1.247 . S
C160 O159 1.208 . S
C161 O166 1.247 . S
C161 O167 1.208 . S
C162 O154 1.315 . S
C162 O157 1.279 . S
C163 O164 1.315 . S
C163 O165 1.279 . S
O164 Cd156 2.223 . S
O164 C163 1.315 . S
O165 Cd155 2.240 . S
O165 C163 1.279 . S
O166 Cd156 2.297 . S
O166 C161 1.247 . S
O167 Cd156 2.439 . S
O167 C161 1.208 . S
O168 Cd169 2.223 1_545 S
O168 C176 1.332 . S
Cd169 O168 2.223 1_565 S
Cd169 O172 2.297 1_565 S
Cd169 O173 2.439 . S
Cd169 O179 2.240 . S
Cd170 O171 2.240 . S
Cd170 O178 2.223 . S
Cd170 O180 2.297 . S
Cd170 O181 2.439 . S
O171 Cd170 2.240 . S
O171 C176 1.247 1_565 S
O172 Cd169 2.297 1_545 S
O172 C174 1.247 . S
O173 Cd169 2.439 . S
O173 C174 1.208 1_565 S
C174 O172 1.247 . S
C174 O173 1.208 1_545 S
C175 O180 1.247 . S
C175 O181 1.208 . S
C176 O168 1.332 . S
C176 O171 1.247 1_545 S
C177 O178 1.315 . S
C177 O179 1.279 . S
O178 Cd170 2.223 . S
O178 C177 1.315 . S
O179 Cd169 2.240 . S
O179 C177 1.279 . S
O180 Cd170 2.297 . S
O180 C175 1.247 . S
O181 Cd170 2.439 . S
O181 C175 1.208 . S
O182 Cd183 2.223 . S
O182 C190 1.315 . S
Cd183 O182 2.223 . S
Cd183 O186 2.297 . S
Cd183 O187 2.439 . S
Cd183 O193 2.240 . S
Cd184 O185 2.240 . S
Cd184 O192 2.223 . S
Cd184 O194 2.297 . S
Cd184 O195 2.439 . S
O185 Cd184 2.240 . S
O185 C190 1.279 . S
O186 Cd183 2.297 . S
O186 C188 1.247 . S
O187 Cd183 2.439 . S
O187 C188 1.208 . S
C188 O186 1.247 . S
C188 O187 1.208 . S
C189 O194 1.247 . S
C189 O195 1.208 . S
C190 O182 1.315 . S
C190 O185 1.279 . S
C191 O192 1.315 . S
C191 O193 1.279 . S
O192 Cd184 2.223 . S
O192 C191 1.315 . S
O193 Cd183 2.240 . S
O193 C191 1.279 . S
O194 Cd184 2.297 . S
O194 C189 1.247 . S
O195 Cd184 2.439 . S
O195 C189 1.208 . S
O196 Cd197 2.223 1_565 S
O196 C204 1.331 . S
Cd197 O196 2.223 1_545 S
Cd197 O200 2.297 1_545 S
Cd197 O201 2.439 . S
Cd197 O207 2.240 . S
Cd198 O199 2.240 . S
Cd198 O206 2.223 . S
Cd198 O208 2.297 . S
Cd198 O209 2.439 . S
O199 Cd198 2.240 . S
O199 C204 1.247 1_545 S
O200 Cd197 2.297 1_565 S
O200 C202 1.247 . S
O201 Cd197 2.439 . S
O201 C202 1.208 1_545 S
C202 O200 1.247 . S
C202 O201 1.208 1_565 S
C203 O208 1.247 . S
C203 O209 1.208 . S
C204 O196 1.331 . S
C204 O199 1.247 1_565 S
C205 O206 1.315 . S
C205 O207 1.279 . S
O206 Cd198 2.223 . S
O206 C205 1.315 . S
O207 Cd197 2.240 . S
O207 C205 1.279 . S
O208 Cd198 2.297 . S
O208 C203 1.247 . S
O209 Cd198 2.439 . S
O209 C203 1.208 . S
O210 Cd211 2.223 . S
O210 C218 1.315 . S
Cd211 O210 2.223 . S
Cd211 O214 2.297 . S
Cd211 O215 2.439 . S
Cd211 O221 2.240 . S
Cd212 O213 2.240 . S
Cd212 O220 2.223 . S
Cd212 O222 2.297 . S
Cd212 O223 2.439 . S
O213 Cd212 2.240 . S
O213 C218 1.279 . S
O214 Cd211 2.297 . S
O214 C216 1.247 . S
O215 Cd211 2.439 . S
O215 C216 1.208 . S
C216 O214 1.247 . S
C216 O215 1.208 . S
C217 O222 1.247 . S
C217 O223 1.208 . S
C218 O210 1.315 . S
C218 O213 1.279 . S
C219 O220 1.315 . S
C219 O221 1.279 . S
O220 Cd212 2.223 . S
O220 C219 1.315 . S
O221 Cd211 2.240 . S
O221 C219 1.279 . S
O222 Cd212 2.297 . S
O222 C217 1.247 . S
O223 Cd212 2.439 . S
O223 C217 1.208 . S
O224 Cd225 2.223 1_556 S
O224 C232 1.331 . S
Cd225 O224 2.223 1_554 S
Cd225 O228 2.297 1_554 S
Cd225 O229 2.439 . S
Cd225 O235 2.240 . S
Cd226 O227 2.240 . S
Cd226 O234 2.223 . S
Cd226 O236 2.297 . S
Cd226 O237 2.439 . S
O227 Cd226 2.240 . S
O227 C232 1.247 1_554 S
O228 Cd225 2.297 1_556 S
O228 C230 1.247 . S
O229 Cd225 2.439 . S
O229 C230 1.208 1_554 S
C230 O228 1.247 . S
C230 O229 1.208 1_556 S
C231 O236 1.247 . S
C231 O237 1.208 . S
C232 O224 1.331 . S
C232 O227 1.247 1_556 S
C233 O234 1.315 . S
C233 O235 1.279 . S
O234 Cd226 2.223 . S
O234 C233 1.315 . S
O235 Cd225 2.240 . S
O235 C233 1.279 . S
O236 Cd226 2.297 . S
O236 C231 1.247 . S
O237 Cd226 2.439 . S
O237 C231 1.208 . S
O238 Cd239 2.223 1_554 S
O238 C246 1.332 . S
Cd239 O238 2.223 1_556 S
Cd239 O242 2.297 1_556 S
Cd239 O243 2.439 . S
Cd239 O249 2.240 . S
Cd240 O241 2.240 . S
Cd240 O248 2.223 . S
Cd240 O250 2.297 . S
Cd240 O251 2.439 . S
O241 Cd240 2.240 . S
O241 C246 1.247 1_556 S
O242 Cd239 2.297 1_554 S
O242 C244 1.247 . S
O243 Cd239 2.439 . S
O243 C244 1.208 1_556 S
C244 O242 1.247 . S
C244 O243 1.208 1_554 S
C245 O250 1.247 . S
C245 O251 1.208 . S
C246 O238 1.332 . S
C246 O241 1.247 1_554 S
C247 O248 1.315 . S
C247 O249 1.279 . S
O248 Cd240 2.223 . S
O248 C247 1.315 . S
O249 Cd239 2.240 . S
O249 C247 1.279 . S
O250 Cd240 2.297 . S
O250 C245 1.247 . S
O251 Cd240 2.439 . S
O251 C245 1.208 . S
O252 Cd253 2.223 . S
O252 C260 1.315 . S
Cd253 O252 2.223 . S
Cd253 O256 2.297 . S
Cd253 O257 2.439 . S
Cd253 O263 2.240 . S
Cd254 O255 2.240 . S
Cd254 O262 2.223 . S
Cd254 O264 2.297 . S
Cd254 O265 2.439 . S
O255 Cd254 2.240 . S
O255 C260 1.279 . S
O256 Cd253 2.297 . S
O256 C258 1.247 . S
O257 Cd253 2.439 . S
O257 C258 1.208 . S
C258 O256 1.247 . S
C258 O257 1.208 . S
C259 O264 1.247 . S
C259 O265 1.208 . S
C260 O252 1.315 . S
C260 O255 1.279 . S
C261 O262 1.315 . S
C261 O263 1.279 . S
O262 Cd254 2.223 . S
O262 C261 1.315 . S
O263 Cd253 2.240 . S
O263 C261 1.279 . S
O264 Cd254 2.297 . S
O264 C259 1.247 . S
O265 Cd254 2.439 . S
O265 C259 1.208 . S
O266 Cd267 2.223 . S
O266 C274 1.315 . S
Cd267 O266 2.223 . S
Cd267 O270 2.297 . S
Cd267 O271 2.439 . S
Cd267 O277 2.240 . S
Cd268 O269 2.240 . S
Cd268 O276 2.223 . S
Cd268 O278 2.297 . S
Cd268 O279 2.439 . S
O269 Cd268 2.240 . S
O269 C274 1.279 . S
O270 Cd267 2.297 . S
O270 C272 1.247 . S
O271 Cd267 2.439 . S
O271 C272 1.208 . S
C272 O270 1.247 . S
C272 O271 1.208 . S
C273 O278 1.247 . S
C273 O279 1.208 . S
C274 O266 1.315 . S
C274 O269 1.279 . S
C275 O276 1.315 . S
C275 O277 1.279 . S
O276 Cd268 2.223 . S
O276 C275 1.315 . S
O277 Cd267 2.240 . S
O277 C275 1.279 . S
O278 Cd268 2.297 . S
O278 C273 1.247 . S
O279 Cd268 2.439 . S
O279 C273 1.208 . S
O280 Cd281 2.223 . S
O280 C288 1.315 . S
Cd281 O280 2.223 . S
Cd281 O284 2.297 . S
Cd281 O285 2.439 . S
Cd281 O291 2.240 . S
Cd282 O283 2.240 . S
Cd282 O290 2.223 . S
Cd282 O292 2.297 . S
Cd282 O293 2.439 . S
O283 Cd282 2.240 . S
O283 C288 1.279 . S
O284 Cd281 2.297 . S
O284 C286 1.247 . S
O285 Cd281 2.439 . S
O285 C286 1.208 . S
C286 O284 1.247 . S
C286 O285 1.208 . S
C287 O292 1.247 . S
C287 O293 1.208 . S
C288 O280 1.315 . S
C288 O283 1.279 . S
C289 O290 1.315 . S
C289 O291 1.279 . S
O290 Cd282 2.223 . S
O290 C289 1.315 . S
O291 Cd281 2.240 . S
O291 C289 1.279 . S
O292 Cd282 2.297 . S
O292 C287 1.247 . S
O293 Cd282 2.439 . S
O293 C287 1.208 . S
O294 Cd295 2.223 . S
O294 C302 1.315 . S
Cd295 O294 2.223 . S
Cd295 O298 2.297 . S
Cd295 O299 2.439 . S
Cd295 O305 2.240 . S
Cd296 O297 2.240 . S
Cd296 O304 2.223 . S
Cd296 O306 2.297 . S
Cd296 O307 2.439 . S
O297 Cd296 2.240 . S
O297 C302 1.279 . S
O298 Cd295 2.297 . S
O298 C300 1.247 . S
O299 Cd295 2.439 . S
O299 C300 1.208 . S
C300 O298 1.247 . S
C300 O299 1.208 . S
C301 O306 1.247 . S
C301 O307 1.208 . S
C302 O294 1.315 . S
C302 O297 1.279 . S
C303 O304 1.315 . S
C303 O305 1.279 . S
O304 Cd296 2.223 . S
O304 C303 1.315 . S
O305 Cd295 2.240 . S
O305 C303 1.279 . S
O306 Cd296 2.297 . S
O306 C301 1.247 . S
O307 Cd296 2.439 . S
O307 C301 1.208 . S
O308 Cd309 2.223 . S
O308 C316 1.315 . S
Cd309 O308 2.223 . S
Cd309 O312 2.297 . S
Cd309 O313 2.439 . S
Cd309 O319 2.240 . S
Cd310 O311 2.240 . S
Cd310 O318 2.223 . S
Cd310 O320 2.297 . S
Cd310 O321 2.439 . S
O311 Cd310 2.240 . S
O311 C316 1.279 . S
O312 Cd309 2.297 . S
O312 C314 1.247 . S
O313 Cd309 2.439 . S
O313 C314 1.208 . S
C314 O312 1.247 . S
C314 O313 1.208 . S
C315 O320 1.247 . S
C315 O321 1.208 . S
C316 O308 1.315 . S
C316 O311 1.279 . S
C317 O318 1.315 . S
C317 O319 1.279 . S
O318 Cd310 2.223 . S
O318 C317 1.315 . S
O319 Cd309 2.240 . S
O319 C317 1.279 . S
O320 Cd310 2.297 . S
O320 C315 1.247 . S
O321 Cd310 2.439 . S
O321 C315 1.208 . S
O322 Cd323 2.223 . S
O322 C330 1.315 . S
Cd323 O322 2.223 . S
Cd323 O326 2.297 . S
Cd323 O327 2.439 . S
Cd323 O333 2.240 . S
Cd324 O325 2.240 . S
Cd324 O332 2.223 . S
Cd324 O334 2.297 . S
Cd324 O335 2.439 . S
O325 Cd324 2.240 . S
O325 C330 1.279 . S
O326 Cd323 2.297 . S
O326 C328 1.247 . S
O327 Cd323 2.439 . S
O327 C328 1.208 . S
C328 O326 1.247 . S
C328 O327 1.208 . S
C329 O334 1.247 . S
C329 O335 1.208 . S
C330 O322 1.315 . S
C330 O325 1.279 . S
C331 O332 1.315 . S
C331 O333 1.279 . S
O332 Cd324 2.223 . S
O332 C331 1.315 . S
O333 Cd323 2.240 . S
O333 C331 1.279 . S
O334 Cd324 2.297 . S
O334 C329 1.247 . S
O335 Cd324 2.439 . S
O335 C329 1.208 . S
O336 Cd337 2.223 1_455 S
O336 C344 1.331 . S
Cd337 O336 2.223 1_655 S
Cd337 O340 2.297 1_655 S
Cd337 O341 2.439 . S
Cd337 O347 2.240 . S
Cd338 O339 2.240 . S
Cd338 O346 2.223 . S
Cd338 O348 2.297 . S
Cd338 O349 2.439 . S
O339 Cd338 2.240 . S
O339 C344 1.247 1_655 S
O340 Cd337 2.297 1_455 S
O340 C342 1.247 . S
O341 Cd337 2.439 . S
O341 C342 1.208 1_655 S
C342 O340 1.247 . S
C342 O341 1.208 1_455 S
C343 O348 1.247 . S
C343 O349 1.208 . S
C344 O336 1.331 . S
C344 O339 1.247 1_455 S
C345 O346 1.315 . S
C345 O347 1.279 . S
O346 Cd338 2.223 . S
O346 C345 1.315 . S
O347 Cd337 2.240 . S
O347 C345 1.279 . S
O348 Cd338 2.297 . S
O348 C343 1.247 . S
O349 Cd338 2.439 . S
O349 C343 1.208 . S
O350 Cd351 2.223 . S
O350 C358 1.315 . S
Cd351 O350 2.223 . S
Cd351 O354 2.297 . S
Cd351 O355 2.439 . S
Cd351 O361 2.240 . S
Cd352 O353 2.240 . S
Cd352 O360 2.223 . S
Cd352 O362 2.297 . S
Cd352 O363 2.439 . S
O353 Cd352 2.240 . S
O353 C358 1.279 . S
O354 Cd351 2.297 . S
O354 C356 1.247 . S
O355 Cd351 2.439 . S
O355 C356 1.208 . S
C356 O354 1.247 . S
C356 O355 1.208 . S
C357 O362 1.247 . S
C357 O363 1.208 . S
C358 O350 1.315 . S
C358 O353 1.279 . S
C359 O360 1.315 . S
C359 O361 1.279 . S
O360 Cd352 2.223 . S
O360 C359 1.315 . S
O361 Cd351 2.240 . S
O361 C359 1.279 . S
O362 Cd352 2.297 . S
O362 C357 1.247 . S
O363 Cd352 2.439 . S
O363 C357 1.208 . S
O364 Cd365 2.223 . S
O364 C372 1.315 . S
Cd365 O364 2.223 . S
Cd365 O368 2.297 . S
Cd365 O369 2.439 . S
Cd365 O375 2.240 . S
Cd366 O367 2.240 . S
Cd366 O374 2.223 . S
Cd366 O376 2.297 . S
Cd366 O377 2.439 . S
O367 Cd366 2.240 . S
O367 C372 1.279 . S
O368 Cd365 2.297 . S
O368 C370 1.247 . S
O369 Cd365 2.439 . S
O369 C370 1.208 . S
C370 O368 1.247 . S
C370 O369 1.208 . S
C371 O376 1.247 . S
C371 O377 1.208 . S
C372 O364 1.315 . S
C372 O367 1.279 . S
C373 O374 1.315 . S
C373 O375 1.279 . S
O374 Cd366 2.223 . S
O374 C373 1.315 . S
O375 Cd365 2.240 . S
O375 C373 1.279 . S
O376 Cd366 2.297 . S
O376 C371 1.247 . S
O377 Cd366 2.439 . S
O377 C371 1.208 . S
O378 Cd379 2.223 . S
O378 C386 1.315 . S
Cd379 O378 2.223 . S
Cd379 O382 2.297 . S
Cd379 O383 2.439 . S
Cd379 O389 2.240 . S
Cd380 O381 2.240 . S
Cd380 O388 2.223 . S
Cd380 O390 2.297 . S
Cd380 O391 2.439 . S
O381 Cd380 2.240 . S
O381 C386 1.279 . S
O382 Cd379 2.297 . S
O382 C384 1.247 . S
O383 Cd379 2.439 . S
O383 C384 1.208 . S
C384 O382 1.247 . S
C384 O383 1.208 . S
C385 O390 1.247 . S
C385 O391 1.208 . S
C386 O378 1.315 . S
C386 O381 1.279 . S
C387 O388 1.315 . S
C387 O389 1.279 . S
O388 Cd380 2.223 . S
O388 C387 1.315 . S
O389 Cd379 2.240 . S
O389 C387 1.279 . S
O390 Cd380 2.297 . S
O390 C385 1.247 . S
O391 Cd380 2.439 . S
O391 C385 1.208 . S
O392 Cd393 2.223 1_455 S
O392 C400 1.331 . S
Cd393 O392 2.223 1_655 S
Cd393 O396 2.297 1_655 S
Cd393 O397 2.439 . S
Cd393 O403 2.240 . S
Cd394 O395 2.240 . S
Cd394 O402 2.223 . S
Cd394 O404 2.297 . S
Cd394 O405 2.439 . S
O395 Cd394 2.240 . S
O395 C400 1.247 1_655 S
O396 Cd393 2.297 1_455 S
O396 C398 1.247 . S
O397 Cd393 2.439 . S
O397 C398 1.208 1_655 S
C398 O396 1.247 . S
C398 O397 1.208 1_455 S
C399 O404 1.247 . S
C399 O405 1.208 . S
C400 O392 1.331 . S
C400 O395 1.247 1_455 S
C401 O402 1.315 . S
C401 O403 1.279 . S
O402 Cd394 2.223 . S
O402 C401 1.315 . S
O403 Cd393 2.240 . S
O403 C401 1.279 . S
O404 Cd394 2.297 . S
O404 C399 1.247 . S
O405 Cd394 2.439 . S
O405 C399 1.208 . S
O406 Cd407 2.223 . S
O406 C414 1.315 . S
Cd407 O406 2.223 . S
Cd407 O410 2.297 . S
Cd407 O411 2.439 . S
Cd407 O417 2.240 . S
Cd408 O409 2.240 . S
Cd408 O416 2.223 . S
Cd408 O418 2.297 . S
Cd408 O419 2.439 . S
O409 Cd408 2.240 . S
O409 C414 1.279 . S
O410 Cd407 2.297 . S
O410 C412 1.247 . S
O411 Cd407 2.439 . S
O411 C412 1.208 . S
C412 O410 1.247 . S
C412 O411 1.208 . S
C413 O418 1.247 . S
C413 O419 1.208 . S
C414 O406 1.315 . S
C414 O409 1.279 . S
C415 O416 1.315 . S
C415 O417 1.279 . S
O416 Cd408 2.223 . S
O416 C415 1.315 . S
O417 Cd407 2.240 . S
O417 C415 1.279 . S
O418 Cd408 2.297 . S
O418 C413 1.247 . S
O419 Cd408 2.439 . S
O419 C413 1.208 . S
O420 Cd421 2.223 . S
O420 C428 1.315 . S
Cd421 O420 2.223 . S
Cd421 O424 2.297 . S
Cd421 O425 2.439 . S
Cd421 O431 2.240 . S
Cd422 O423 2.240 . S
Cd422 O430 2.223 . S
Cd422 O432 2.297 . S
Cd422 O433 2.439 . S
O423 Cd422 2.240 . S
O423 C428 1.279 . S
O424 Cd421 2.297 . S
O424 C426 1.247 . S
O425 Cd421 2.439 . S
O425 C426 1.208 . S
C426 O424 1.247 . S
C426 O425 1.208 . S
C427 O432 1.247 . S
C427 O433 1.208 . S
C428 O420 1.315 . S
C428 O423 1.279 . S
C429 O430 1.315 . S
C429 O431 1.279 . S
O430 Cd422 2.223 . S
O430 C429 1.315 . S
O431 Cd421 2.240 . S
O431 C429 1.279 . S
O432 Cd422 2.297 . S
O432 C427 1.247 . S
O433 Cd422 2.439 . S
O433 C427 1.208 . S
O434 Cd435 2.223 . S
O434 C442 1.315 . S
Cd435 O434 2.223 . S
Cd435 O438 2.297 . S
Cd435 O439 2.439 . S
Cd435 O445 2.240 . S
Cd436 O437 2.240 . S
Cd436 O444 2.223 . S
Cd436 O446 2.297 . S
Cd436 O447 2.439 . S
O437 Cd436 2.240 . S
O437 C442 1.279 . S
O438 Cd435 2.297 . S
O438 C440 1.247 . S
O439 Cd435 2.439 . S
O439 C440 1.208 . S
C440 O438 1.247 . S
C440 O439 1.208 . S
C441 O446 1.247 . S
C441 O447 1.208 . S
C442 O434 1.315 . S
C442 O437 1.279 . S
C443 O444 1.315 . S
C443 O445 1.279 . S
O444 Cd436 2.223 . S
O444 C443 1.315 . S
O445 Cd435 2.240 . S
O445 C443 1.279 . S
O446 Cd436 2.297 . S
O446 C441 1.247 . S
O447 Cd436 2.439 . S
O447 C441 1.208 . S
O448 Cd449 2.223 1_545 S
O448 C456 1.331 . S
Cd449 O448 2.223 1_565 S
Cd449 O452 2.297 1_565 S
Cd449 O453 2.439 . S
Cd449 O459 2.240 . S
Cd450 O451 2.240 . S
Cd450 O458 2.223 . S
Cd450 O460 2.297 . S
Cd450 O461 2.439 . S
O451 Cd450 2.240 . S
O451 C456 1.247 1_565 S
O452 Cd449 2.297 1_545 S
O452 C454 1.247 . S
O453 Cd449 2.439 . S
O453 C454 1.208 1_565 S
C454 O452 1.247 . S
C454 O453 1.208 1_545 S
C455 O460 1.247 . S
C455 O461 1.208 . S
C456 O448 1.331 . S
C456 O451 1.247 1_545 S
C457 O458 1.315 . S
C457 O459 1.279 . S
O458 Cd450 2.223 . S
O458 C457 1.315 . S
O459 Cd449 2.240 . S
O459 C457 1.279 . S
O460 Cd450 2.297 . S
O460 C455 1.247 . S
O461 Cd450 2.439 . S
O461 C455 1.208 . S
O462 Cd463 2.223 . S
O462 C470 1.315 . S
Cd463 O462 2.223 . S
Cd463 O466 2.297 . S
Cd463 O467 2.439 . S
Cd463 O473 2.240 . S
Cd464 O465 2.240 . S
Cd464 O472 2.223 . S
Cd464 O474 2.297 . S
Cd464 O475 2.439 . S
O465 Cd464 2.240 . S
O465 C470 1.279 . S
O466 Cd463 2.297 . S
O466 C468 1.247 . S
O467 Cd463 2.439 . S
O467 C468 1.208 . S
C468 O466 1.247 . S
C468 O467 1.208 . S
C469 O474 1.247 . S
C469 O475 1.208 . S
C470 O462 1.315 . S
C470 O465 1.279 . S
C471 O472 1.315 . S
C471 O473 1.279 . S
O472 Cd464 2.223 . S
O472 C471 1.315 . S
O473 Cd463 2.240 . S
O473 C471 1.279 . S
O474 Cd464 2.297 . S
O474 C469 1.247 . S
O475 Cd464 2.439 . S
O475 C469 1.208 . S
O476 Cd477 2.223 1_565 S
O476 C484 1.332 . S
Cd477 O476 2.223 1_545 S
Cd477 O480 2.297 1_545 S
Cd477 O481 2.439 . S
Cd477 O487 2.240 . S
Cd478 O479 2.240 . S
Cd478 O486 2.223 . S
Cd478 O488 2.297 . S
Cd478 O489 2.439 . S
O479 Cd478 2.240 . S
O479 C484 1.247 1_545 S
O480 Cd477 2.297 1_565 S
O480 C482 1.247 . S
O481 Cd477 2.439 . S
O481 C482 1.208 1_545 S
C482 O480 1.247 . S
C482 O481 1.208 1_565 S
C483 O488 1.247 . S
C483 O489 1.208 . S
C484 O476 1.332 . S
C484 O479 1.247 1_565 S
C485 O486 1.315 . S
C485 O487 1.279 . S
O486 Cd478 2.223 . S
O486 C485 1.315 . S
O487 Cd477 2.240 . S
O487 C485 1.279 . S
O488 Cd478 2.297 . S
O488 C483 1.247 . S
O489 Cd478 2.439 . S
O489 C483 1.208 . S
O490 Cd491 2.223 . S
O490 C498 1.315 . S
Cd491 O490 2.223 . S
Cd491 O494 2.297 . S
Cd491 O495 2.439 . S
Cd491 O501 2.240 . S
Cd492 O493 2.240 . S
Cd492 O500 2.223 . S
Cd492 O502 2.297 . S
Cd492 O503 2.439 . S
O493 Cd492 2.240 . S
O493 C498 1.279 . S
O494 Cd491 2.297 . S
O494 C496 1.247 . S
O495 Cd491 2.439 . S
O495 C496 1.208 . S
C496 O494 1.247 . S
C496 O495 1.208 . S
C497 O502 1.247 . S
C497 O503 1.208 . S
C498 O490 1.315 . S
C498 O493 1.279 . S
C499 O500 1.315 . S
C499 O501 1.279 . S
O500 Cd492 2.223 . S
O500 C499 1.315 . S
O501 Cd491 2.240 . S
O501 C499 1.279 . S
O502 Cd492 2.297 . S
O502 C497 1.247 . S
O503 Cd492 2.439 . S
O503 C497 1.208 . S
O504 Cd505 2.223 1_565 S
O504 C512 1.332 . S
Cd505 O504 2.223 1_545 S
Cd505 O508 2.297 1_545 S
Cd505 O509 2.439 . S
Cd505 O515 2.240 . S
Cd506 O507 2.240 . S
Cd506 O514 2.223 . S
Cd506 O516 2.297 . S
Cd506 O517 2.439 . S
O507 Cd506 2.240 . S
O507 C512 1.247 1_545 S
O508 Cd505 2.297 1_565 S
O508 C510 1.247 . S
O509 Cd505 2.439 . S
O509 C510 1.208 1_545 S
C510 O508 1.247 . S
C510 O509 1.208 1_565 S
C511 O516 1.247 . S
C511 O517 1.208 . S
C512 O504 1.332 . S
C512 O507 1.247 1_565 S
C513 O514 1.315 . S
C513 O515 1.279 . S
O514 Cd506 2.223 . S
O514 C513 1.315 . S
O515 Cd505 2.240 . S
O515 C513 1.279 . S
O516 Cd506 2.297 . S
O516 C511 1.247 . S
O517 Cd506 2.439 . S
O517 C511 1.208 . S
O518 Cd519 2.223 . S
O518 C526 1.315 . S
Cd519 O518 2.223 . S
Cd519 O522 2.297 . S
Cd519 O523 2.439 . S
Cd519 O529 2.240 . S
Cd520 O521 2.240 . S
Cd520 O528 2.223 . S
Cd520 O530 2.297 . S
Cd520 O531 2.439 . S
O521 Cd520 2.240 . S
O521 C526 1.279 . S
O522 Cd519 2.297 . S
O522 C524 1.247 . S
O523 Cd519 2.439 . S
O523 C524 1.208 . S
C524 O522 1.247 . S
C524 O523 1.208 . S
C525 O530 1.247 . S
C525 O531 1.208 . S
C526 O518 1.315 . S
C526 O521 1.279 . S
C527 O528 1.315 . S
C527 O529 1.279 . S
O528 Cd520 2.223 . S
O528 C527 1.315 . S
O529 Cd519 2.240 . S
O529 C527 1.279 . S
O530 Cd520 2.297 . S
O530 C525 1.247 . S
O531 Cd520 2.439 . S
O531 C525 1.208 . S
O532 Cd533 2.223 1_545 S
O532 C540 1.331 . S
Cd533 O532 2.223 1_565 S
Cd533 O536 2.297 1_565 S
Cd533 O537 2.439 . S
Cd533 O543 2.240 . S
Cd534 O535 2.240 . S
Cd534 O542 2.223 . S
Cd534 O544 2.297 . S
Cd534 O545 2.439 . S
O535 Cd534 2.240 . S
O535 C540 1.247 1_565 S
O536 Cd533 2.297 1_545 S
O536 C538 1.247 . S
O537 Cd533 2.439 . S
O537 C538 1.208 1_565 S
C538 O536 1.247 . S
C538 O537 1.208 1_545 S
C539 O544 1.247 . S
C539 O545 1.208 . S
C540 O532 1.331 . S
C540 O535 1.247 1_545 S
C541 O542 1.315 . S
C541 O543 1.279 . S
O542 Cd534 2.223 . S
O542 C541 1.315 . S
O543 Cd533 2.240 . S
O543 C541 1.279 . S
O544 Cd534 2.297 . S
O544 C539 1.247 . S
O545 Cd534 2.439 . S
O545 C539 1.208 . S
O546 Cd547 2.223 . S
O546 C554 1.315 . S
Cd547 O546 2.223 . S
Cd547 O550 2.297 . S
Cd547 O551 2.439 . S
Cd547 O557 2.240 . S
Cd548 O549 2.240 . S
Cd548 O556 2.223 . S
Cd548 O558 2.297 . S
Cd548 O559 2.439 . S
O549 Cd548 2.240 . S
O549 C554 1.279 . S
O550 Cd547 2.297 . S
O550 C552 1.247 . S
O551 Cd547 2.439 . S
O551 C552 1.208 . S
C552 O550 1.247 . S
C552 O551 1.208 . S
C553 O558 1.247 . S
C553 O559 1.208 . S
C554 O546 1.315 . S
C554 O549 1.279 . S
C555 O556 1.315 . S
C555 O557 1.279 . S
O556 Cd548 2.223 . S
O556 C555 1.315 . S
O557 Cd547 2.240 . S
O557 C555 1.279 . S
O558 Cd548 2.297 . S
O558 C553 1.247 . S
O559 Cd548 2.439 . S
O559 C553 1.208 . S
O560 Cd561 2.223 1_554 S
O560 C568 1.331 . S
Cd561 O560 2.223 1_556 S
Cd561 O564 2.297 1_556 S
Cd561 O565 2.439 . S
Cd561 O571 2.240 . S
Cd562 O563 2.240 . S
Cd562 O570 2.223 . S
Cd562 O572 2.297 . S
Cd562 O573 2.439 . S
O563 Cd562 2.240 . S
O563 C568 1.247 1_556 S
O564 Cd561 2.297 1_554 S
O564 C566 1.247 . S
O565 Cd561 2.439 . S
O565 C566 1.208 1_556 S
C566 O564 1.247 . S
C566 O565 1.208 1_554 S
C567 O572 1.247 . S
C567 O573 1.208 . S
C568 O560 1.331 . S
C568 O563 1.247 1_554 S
C569 O570 1.315 . S
C569 O571 1.279 . S
O570 Cd562 2.223 . S
O570 C569 1.315 . S
O571 Cd561 2.240 . S
O571 C569 1.279 . S
O572 Cd562 2.297 . S
O572 C567 1.247 . S
O573 Cd562 2.439 . S
O573 C567 1.208 . S
O574 Cd575 2.223 1_556 S
O574 C582 1.332 . S
Cd575 O574 2.223 1_554 S
Cd575 O578 2.297 1_554 S
Cd575 O579 2.439 . S
Cd575 O585 2.240 . S
Cd576 O577 2.240 . S
Cd576 O584 2.223 . S
Cd576 O586 2.297 . S
Cd576 O587 2.439 . S
O577 Cd576 2.240 . S
O577 C582 1.247 1_554 S
O578 Cd575 2.297 1_556 S
O578 C580 1.247 . S
O579 Cd575 2.439 . S
O579 C580 1.208 1_554 S
C580 O578 1.247 . S
C580 O579 1.208 1_556 S
C581 O586 1.247 . S
C581 O587 1.208 . S
C582 O574 1.332 . S
C582 O577 1.247 1_556 S
C583 O584 1.315 . S
C583 O585 1.279 . S
O584 Cd576 2.223 . S
O584 C583 1.315 . S
O585 Cd575 2.240 . S
O585 C583 1.279 . S
O586 Cd576 2.297 . S
O586 C581 1.247 . S
O587 Cd576 2.439 . S
O587 C581 1.208 . S
O588 Cd589 2.223 . S
O588 C596 1.315 . S
Cd589 O588 2.223 . S
Cd589 O592 2.297 . S
Cd589 O593 2.439 . S
Cd589 O599 2.240 . S
Cd590 O591 2.240 . S
Cd590 O598 2.223 . S
Cd590 O600 2.297 . S
Cd590 O601 2.439 . S
O591 Cd590 2.240 . S
O591 C596 1.279 . S
O592 Cd589 2.297 . S
O592 C594 1.247 . S
O593 Cd589 2.439 . S
O593 C594 1.208 . S
C594 O592 1.247 . S
C594 O593 1.208 . S
C595 O600 1.247 . S
C595 O601 1.208 . S
C596 O588 1.315 . S
C596 O591 1.279 . S
C597 O598 1.315 . S
C597 O599 1.279 . S
O598 Cd590 2.223 . S
O598 C597 1.315 . S
O599 Cd589 2.240 . S
O599 C597 1.279 . S
O600 Cd590 2.297 . S
O600 C595 1.247 . S
O601 Cd590 2.439 . S
O601 C595 1.208 . S
O602 Cd603 2.223 . S
O602 C610 1.315 . S
Cd603 O602 2.223 . S
Cd603 O606 2.297 . S
Cd603 O607 2.439 . S
Cd603 O613 2.240 . S
Cd604 O605 2.240 . S
Cd604 O612 2.223 . S
Cd604 O614 2.297 . S
Cd604 O615 2.439 . S
O605 Cd604 2.240 . S
O605 C610 1.279 . S
O606 Cd603 2.297 . S
O606 C608 1.247 . S
O607 Cd603 2.439 . S
O607 C608 1.208 . S
C608 O606 1.247 . S
C608 O607 1.208 . S
C609 O614 1.247 . S
C609 O615 1.208 . S
C610 O602 1.315 . S
C610 O605 1.279 . S
C611 O612 1.315 . S
C611 O613 1.279 . S
O612 Cd604 2.223 . S
O612 C611 1.315 . S
O613 Cd603 2.240 . S
O613 C611 1.279 . S
O614 Cd604 2.297 . S
O614 C609 1.247 . S
O615 Cd604 2.439 . S
O615 C609 1.208 . S
O616 Cd617 2.223 . S
O616 C624 1.315 . S
Cd617 O616 2.223 . S
Cd617 O620 2.297 . S
Cd617 O621 2.439 . S
Cd617 O627 2.240 . S
Cd618 O619 2.240 . S
Cd618 O626 2.223 . S
Cd618 O628 2.297 . S
Cd618 O629 2.439 . S
O619 Cd618 2.240 . S
O619 C624 1.279 . S
O620 Cd617 2.297 . S
O620 C622 1.247 . S
O621 Cd617 2.439 . S
O621 C622 1.208 . S
C622 O620 1.247 . S
C622 O621 1.208 . S
C623 O628 1.247 . S
C623 O629 1.208 . S
C624 O616 1.315 . S
C624 O619 1.279 . S
C625 O626 1.315 . S
C625 O627 1.279 . S
O626 Cd618 2.223 . S
O626 C625 1.315 . S
O627 Cd617 2.240 . S
O627 C625 1.279 . S
O628 Cd618 2.297 . S
O628 C623 1.247 . S
O629 Cd618 2.439 . S
O629 C623 1.208 . S
O630 Cd631 2.223 . S
O630 C638 1.315 . S
Cd631 O630 2.223 . S
Cd631 O634 2.297 . S
Cd631 O635 2.439 . S
Cd631 O641 2.240 . S
Cd632 O633 2.240 . S
Cd632 O640 2.223 . S
Cd632 O642 2.297 . S
Cd632 O643 2.439 . S
O633 Cd632 2.240 . S
O633 C638 1.279 . S
O634 Cd631 2.297 . S
O634 C636 1.247 . S
O635 Cd631 2.439 . S
O635 C636 1.208 . S
C636 O634 1.247 . S
C636 O635 1.208 . S
C637 O642 1.247 . S
C637 O643 1.208 . S
C638 O630 1.315 . S
C638 O633 1.279 . S
C639 O640 1.315 . S
C639 O641 1.279 . S
O640 Cd632 2.223 . S
O640 C639 1.315 . S
O641 Cd631 2.240 . S
O641 C639 1.279 . S
O642 Cd632 2.297 . S
O642 C637 1.247 . S
O643 Cd632 2.439 . S
O643 C637 1.208 . S
O644 Cd645 2.223 . S
O644 C652 1.315 . S
Cd645 O644 2.223 . S
Cd645 O648 2.297 . S
Cd645 O649 2.439 . S
Cd645 O655 2.240 . S
Cd646 O647 2.240 . S
Cd646 O654 2.223 . S
Cd646 O656 2.297 . S
Cd646 O657 2.439 . S
O647 Cd646 2.240 . S
O647 C652 1.279 . S
O648 Cd645 2.297 . S
O648 C650 1.247 . S
O649 Cd645 2.439 . S
O649 C650 1.208 . S
C650 O648 1.247 . S
C650 O649 1.208 . S
C651 O656 1.247 . S
C651 O657 1.208 . S
C652 O644 1.315 . S
C652 O647 1.279 . S
C653 O654 1.315 . S
C653 O655 1.279 . S
O654 Cd646 2.223 . S
O654 C653 1.315 . S
O655 Cd645 2.240 . S
O655 C653 1.279 . S
O656 Cd646 2.297 . S
O656 C651 1.247 . S
O657 Cd646 2.439 . S
O657 C651 1.208 . S
O658 Cd659 2.223 . S
O658 C666 1.315 . S
Cd659 O658 2.223 . S
Cd659 O662 2.297 . S
Cd659 O663 2.439 . S
Cd659 O669 2.240 . S
Cd660 O661 2.240 . S
Cd660 O668 2.223 . S
Cd660 O670 2.297 . S
Cd660 O671 2.439 . S
O661 Cd660 2.240 . S
O661 C666 1.279 . S
O662 Cd659 2.297 . S
O662 C664 1.247 . S
O663 Cd659 2.439 . S
O663 C664 1.208 . S
C664 O662 1.247 . S
C664 O663 1.208 . S
C665 O670 1.247 . S
C665 O671 1.208 . S
C666 O658 1.315 . S
C666 O661 1.279 . S
C667 O668 1.315 . S
C667 O669 1.279 . S
O668 Cd660 2.223 . S
O668 C667 1.315 . S
O669 Cd659 2.240 . S
O669 C667 1.279 . S
O670 Cd660 2.297 . S
O670 C665 1.247 . S
O671 Cd660 2.439 . S
O671 C665 1.208 . S
O672 Cd673 2.223 . S
O672 C680 1.315 . S
Cd673 O672 2.223 . S
Cd673 O676 2.297 . S
Cd673 O677 2.439 . S
Cd673 O683 2.240 . S
Cd674 O675 2.240 . S
Cd674 O682 2.223 . S
Cd674 O684 2.297 . S
Cd674 O685 2.439 . S
O675 Cd674 2.240 . S
O675 C680 1.279 . S
O676 Cd673 2.297 . S
O676 C678 1.247 . S
O677 Cd673 2.439 . S
O677 C678 1.208 . S
C678 O676 1.247 . S
C678 O677 1.208 . S
C679 O684 1.247 . S
C679 O685 1.208 . S
C680 O672 1.315 . S
C680 O675 1.279 . S
C681 O682 1.315 . S
C681 O683 1.279 . S
O682 Cd674 2.223 . S
O682 C681 1.315 . S
O683 Cd673 2.240 . S
O683 C681 1.279 . S
O684 Cd674 2.297 . S
O684 C679 1.247 . S
O685 Cd674 2.439 . S
O685 C679 1.208 . S
O686 Cd687 2.223 . S
O686 C694 1.315 . S
Cd687 O686 2.223 . S
Cd687 O690 2.297 . S
Cd687 O691 2.439 . S
Cd687 O697 2.240 . S
Cd688 O689 2.240 . S
Cd688 O696 2.223 . S
Cd688 O698 2.297 . S
Cd688 O699 2.439 . S
O689 Cd688 2.240 . S
O689 C694 1.279 . S
O690 Cd687 2.297 . S
O690 C692 1.247 . S
O691 Cd687 2.439 . S
O691 C692 1.208 . S
C692 O690 1.247 . S
C692 O691 1.208 . S
C693 O698 1.247 . S
C693 O699 1.208 . S
C694 O686 1.315 . S
C694 O689 1.279 . S
C695 O696 1.315 . S
C695 O697 1.279 . S
O696 Cd688 2.223 . S
O696 C695 1.315 . S
O697 Cd687 2.240 . S
O697 C695 1.279 . S
O698 Cd688 2.297 . S
O698 C693 1.247 . S
O699 Cd688 2.439 . S
O699 C693 1.208 . S
O700 Cd701 2.223 1_455 S
O700 C708 1.332 . S
Cd701 O700 2.223 1_655 S
Cd701 O704 2.297 1_655 S
Cd701 O705 2.439 . S
Cd701 O711 2.240 . S
Cd702 O703 2.240 . S
Cd702 O710 2.223 . S
Cd702 O712 2.297 . S
Cd702 O713 2.439 . S
O703 Cd702 2.240 . S
O703 C708 1.247 1_655 S
O704 Cd701 2.297 1_455 S
O704 C706 1.247 . S
O705 Cd701 2.439 . S
O705 C706 1.208 1_655 S
C706 O704 1.247 . S
C706 O705 1.208 1_455 S
C707 O712 1.247 . S
C707 O713 1.208 . S
C708 O700 1.332 . S
C708 O703 1.247 1_455 S
C709 O710 1.315 . S
C709 O711 1.279 . S
O710 Cd702 2.223 . S
O710 C709 1.315 . S
O711 Cd701 2.240 . S
O711 C709 1.279 . S
O712 Cd702 2.297 . S
O712 C707 1.247 . S
O713 Cd702 2.439 . S
O713 C707 1.208 . S
O714 Cd715 2.223 . S
O714 C722 1.315 . S
Cd715 O714 2.223 . S
Cd715 O718 2.297 . S
Cd715 O719 2.439 . S
Cd715 O725 2.240 . S
Cd716 O717 2.240 . S
Cd716 O724 2.223 . S
Cd716 O726 2.297 . S
Cd716 O727 2.439 . S
O717 Cd716 2.240 . S
O717 C722 1.279 . S
O718 Cd715 2.297 . S
O718 C720 1.247 . S
O719 Cd715 2.439 . S
O719 C720 1.208 . S
C720 O718 1.247 . S
C720 O719 1.208 . S
C721 O726 1.247 . S
C721 O727 1.208 . S
C722 O714 1.315 . S
C722 O717 1.279 . S
C723 O724 1.315 . S
C723 O725 1.279 . S
O724 Cd716 2.223 . S
O724 C723 1.315 . S
O725 Cd715 2.240 . S
O725 C723 1.279 . S
O726 Cd716 2.297 . S
O726 C721 1.247 . S
O727 Cd716 2.439 . S
O727 C721 1.208 . S
O728 Cd729 2.223 . S
O728 C736 1.315 . S
Cd729 O728 2.223 . S
Cd729 O732 2.297 . S
Cd729 O733 2.439 . S
Cd729 O739 2.240 . S
Cd730 O731 2.240 . S
Cd730 O738 2.223 . S
Cd730 O740 2.297 . S
Cd730 O741 2.439 . S
O731 Cd730 2.240 . S
O731 C736 1.279 . S
O732 Cd729 2.297 . S
O732 C734 1.247 . S
O733 Cd729 2.439 . S
O733 C734 1.208 . S
C734 O732 1.247 . S
C734 O733 1.208 . S
C735 O740 1.247 . S
C735 O741 1.208 . S
C736 O728 1.315 . S
C736 O731 1.279 . S
C737 O738 1.315 . S
C737 O739 1.279 . S
O738 Cd730 2.223 . S
O738 C737 1.315 . S
O739 Cd729 2.240 . S
O739 C737 1.279 . S
O740 Cd730 2.297 . S
O740 C735 1.247 . S
O741 Cd730 2.439 . S
O741 C735 1.208 . S
O742 Cd743 2.223 . S
O742 C750 1.315 . S
Cd743 O742 2.223 . S
Cd743 O746 2.297 . S
Cd743 O747 2.439 . S
Cd743 O753 2.240 . S
Cd744 O745 2.240 . S
Cd744 O752 2.223 . S
Cd744 O754 2.297 . S
Cd744 O755 2.439 . S
O745 Cd744 2.240 . S
O745 C750 1.279 . S
O746 Cd743 2.297 . S
O746 C748 1.247 . S
O747 Cd743 2.439 . S
O747 C748 1.208 . S
C748 O746 1.247 . S
C748 O747 1.208 . S
C749 O754 1.247 . S
C749 O755 1.208 . S
C750 O742 1.315 . S
C750 O745 1.279 . S
C751 O752 1.315 . S
C751 O753 1.279 . S
O752 Cd744 2.223 . S
O752 C751 1.315 . S
O753 Cd743 2.240 . S
O753 C751 1.279 . S
O754 Cd744 2.297 . S
O754 C749 1.247 . S
O755 Cd744 2.439 . S
O755 C749 1.208 . S
O756 Cd757 2.223 1_455 S
O756 C764 1.332 . S
Cd757 O756 2.223 1_655 S
Cd757 O760 2.297 1_655 S
Cd757 O761 2.439 . S
Cd757 O767 2.240 . S
Cd758 O759 2.240 . S
Cd758 O766 2.223 . S
Cd758 O768 2.297 . S
Cd758 O769 2.439 . S
O759 Cd758 2.240 . S
O759 C764 1.247 1_655 S
O760 Cd757 2.297 1_455 S
O760 C762 1.247 . S
O761 Cd757 2.439 . S
O761 C762 1.208 1_655 S
C762 O760 1.247 . S
C762 O761 1.208 1_455 S
C763 O768 1.247 . S
C763 O769 1.208 . S
C764 O756 1.332 . S
C764 O759 1.247 1_455 S
C765 O766 1.315 . S
C765 O767 1.279 . S
O766 Cd758 2.223 . S
O766 C765 1.315 . S
O767 Cd757 2.240 . S
O767 C765 1.279 . S
O768 Cd758 2.297 . S
O768 C763 1.247 . S
O769 Cd758 2.439 . S
O769 C763 1.208 . S
O770 Cd771 2.223 . S
O770 C778 1.315 . S
Cd771 O770 2.223 . S
Cd771 O774 2.297 . S
Cd771 O775 2.439 . S
Cd771 O781 2.240 . S
Cd772 O773 2.240 . S
Cd772 O780 2.223 . S
Cd772 O782 2.297 . S
Cd772 O783 2.439 . S
O773 Cd772 2.240 . S
O773 C778 1.279 . S
O774 Cd771 2.297 . S
O774 C776 1.247 . S
O775 Cd771 2.439 . S
O775 C776 1.208 . S
C776 O774 1.247 . S
C776 O775 1.208 . S
C777 O782 1.247 . S
C777 O783 1.208 . S
C778 O770 1.315 . S
C778 O773 1.279 . S
C779 O780 1.315 . S
C779 O781 1.279 . S
O780 Cd772 2.223 . S
O780 C779 1.315 . S
O781 Cd771 2.240 . S
O781 C779 1.279 . S
O782 Cd772 2.297 . S
O782 C777 1.247 . S
O783 Cd772 2.439 . S
O783 C777 1.208 . S
O784 Cd785 2.223 . S
O784 C792 1.315 . S
Cd785 O784 2.223 . S
Cd785 O788 2.297 . S
Cd785 O789 2.439 . S
Cd785 O795 2.240 . S
Cd786 O787 2.240 . S
Cd786 O794 2.223 . S
Cd786 O796 2.297 . S
Cd786 O797 2.439 . S
O787 Cd786 2.240 . S
O787 C792 1.279 . S
O788 Cd785 2.297 . S
O788 C790 1.247 . S
O789 Cd785 2.439 . S
O789 C790 1.208 . S
C790 O788 1.247 . S
C790 O789 1.208 . S
C791 O796 1.247 . S
C791 O797 1.208 . S
C792 O784 1.315 . S
C792 O787 1.279 . S
C793 O794 1.315 . S
C793 O795 1.279 . S
O794 Cd786 2.223 . S
O794 C793 1.315 . S
O795 Cd785 2.240 . S
O795 C793 1.279 . S
O796 Cd786 2.297 . S
O796 C791 1.247 . S
O797 Cd786 2.439 . S
O797 C791 1.208 . S
O798 Cd799 2.223 . S
O798 C806 1.315 . S
Cd799 O798 2.223 . S
Cd799 O802 2.297 . S
Cd799 O803 2.439 . S
Cd799 O809 2.240 . S
Cd800 O801 2.240 . S
Cd800 O808 2.223 . S
Cd800 O810 2.297 . S
Cd800 O811 2.439 . S
O801 Cd800 2.240 . S
O801 C806 1.279 . S
O802 Cd799 2.297 . S
O802 C804 1.247 . S
O803 Cd799 2.439 . S
O803 C804 1.208 . S
C804 O802 1.247 . S
C804 O803 1.208 . S
C805 O810 1.247 . S
C805 O811 1.208 . S
C806 O798 1.315 . S
C806 O801 1.279 . S
C807 O808 1.315 . S
C807 O809 1.279 . S
O808 Cd800 2.223 . S
O808 C807 1.315 . S
O809 Cd799 2.240 . S
O809 C807 1.279 . S
O810 Cd800 2.297 . S
O810 C805 1.247 . S
O811 Cd800 2.439 . S
O811 C805 1.208 . S
O812 Cd813 2.223 . S
O812 C820 1.315 . S
Cd813 O812 2.223 . S
Cd813 O816 2.297 . S
Cd813 O817 2.439 . S
Cd813 O823 2.240 . S
Cd814 O815 2.240 . S
Cd814 O822 2.223 . S
Cd814 O824 2.297 . S
Cd814 O825 2.439 . S
O815 Cd814 2.240 . S
O815 C820 1.279 . S
O816 Cd813 2.297 . S
O816 C818 1.247 . S
O817 Cd813 2.439 . S
O817 C818 1.208 . S
C818 O816 1.247 . S
C818 O817 1.208 . S
C819 O824 1.247 . S
C819 O825 1.208 . S
C820 O812 1.315 . S
C820 O815 1.279 . S
C821 O822 1.315 . S
C821 O823 1.279 . S
O822 Cd814 2.223 . S
O822 C821 1.315 . S
O823 Cd813 2.240 . S
O823 C821 1.279 . S
O824 Cd814 2.297 . S
O824 C819 1.247 . S
O825 Cd814 2.439 . S
O825 C819 1.208 . S
O826 Cd827 2.223 . S
O826 C834 1.315 . S
Cd827 O826 2.223 . S
Cd827 O830 2.297 . S
Cd827 O831 2.439 . S
Cd827 O837 2.240 . S
Cd828 O829 2.240 . S
Cd828 O836 2.223 . S
Cd828 O838 2.297 . S
Cd828 O839 2.439 . S
O829 Cd828 2.240 . S
O829 C834 1.279 . S
O830 Cd827 2.297 . S
O830 C832 1.247 . S
O831 Cd827 2.439 . S
O831 C832 1.208 . S
C832 O830 1.247 . S
C832 O831 1.208 . S
C833 O838 1.247 . S
C833 O839 1.208 . S
C834 O826 1.315 . S
C834 O829 1.279 . S
C835 O836 1.315 . S
C835 O837 1.279 . S
O836 Cd828 2.223 . S
O836 C835 1.315 . S
O837 Cd827 2.240 . S
O837 C835 1.279 . S
O838 Cd828 2.297 . S
O838 C833 1.247 . S
O839 Cd828 2.439 . S
O839 C833 1.208 . S
O840 Cd841 2.223 . S
O840 C848 1.315 . S
Cd841 O840 2.223 . S
Cd841 O844 2.297 . S
Cd841 O845 2.439 . S
Cd841 O851 2.240 . S
Cd842 O843 2.240 . S
Cd842 O850 2.223 . S
Cd842 O852 2.297 . S
Cd842 O853 2.439 . S
O843 Cd842 2.240 . S
O843 C848 1.279 . S
O844 Cd841 2.297 . S
O844 C846 1.247 . S
O845 Cd841 2.439 . S
O845 C846 1.208 . S
C846 O844 1.247 . S
C846 O845 1.208 . S
C847 O852 1.247 . S
C847 O853 1.208 . S
C848 O840 1.315 . S
C848 O843 1.279 . S
C849 O850 1.315 . S
C849 O851 1.279 . S
O850 Cd842 2.223 . S
O850 C849 1.315 . S
O851 Cd841 2.240 . S
O851 C849 1.279 . S
O852 Cd842 2.297 . S
O852 C847 1.247 . S
O853 Cd842 2.439 . S
O853 C847 1.208 . S
O854 Cd855 2.223 . S
O854 C862 1.315 . S
Cd855 O854 2.223 . S
Cd855 O858 2.297 . S
Cd855 O859 2.439 . S
Cd855 O865 2.240 . S
Cd856 O857 2.240 . S
Cd856 O864 2.223 . S
Cd856 O866 2.297 . S
Cd856 O867 2.439 . S
O857 Cd856 2.240 . S
O857 C862 1.279 . S
O858 Cd855 2.297 . S
O858 C860 1.247 . S
O859 Cd855 2.439 . S
O859 C860 1.208 . S
C860 O858 1.247 . S
C860 O859 1.208 . S
C861 O866 1.247 . S
C861 O867 1.208 . S
C862 O854 1.315 . S
C862 O857 1.279 . S
C863 O864 1.315 . S
C863 O865 1.279 . S
O864 Cd856 2.223 . S
O864 C863 1.315 . S
O865 Cd855 2.240 . S
O865 C863 1.279 . S
O866 Cd856 2.297 . S
O866 C861 1.247 . S
O867 Cd856 2.439 . S
O867 C861 1.208 . S
O868 Cd869 2.223 . S
O868 C876 1.315 . S
Cd869 O868 2.223 . S
Cd869 O872 2.297 . S
Cd869 O873 2.439 . S
Cd869 O879 2.240 . S
Cd870 O871 2.240 . S
Cd870 O878 2.223 . S
Cd870 O880 2.297 . S
Cd870 O881 2.439 . S
O871 Cd870 2.240 . S
O871 C876 1.279 . S
O872 Cd869 2.297 . S
O872 C874 1.247 . S
O873 Cd869 2.439 . S
O873 C874 1.208 . S
C874 O872 1.247 . S
C874 O873 1.208 . S
C875 O880 1.247 . S
C875 O881 1.208 . S
C876 O868 1.315 . S
C876 O871 1.279 . S
C877 O878 1.315 . S
C877 O879 1.279 . S
O878 Cd870 2.223 . S
O878 C877 1.315 . S
O879 Cd869 2.240 . S
O879 C877 1.279 . S
O880 Cd870 2.297 . S
O880 C875 1.247 . S
O881 Cd870 2.439 . S
O881 C875 1.208 . S
O882 Cd883 2.223 . S
O882 C890 1.315 . S
Cd883 O882 2.223 . S
Cd883 O886 2.297 . S
Cd883 O887 2.439 . S
Cd883 O893 2.240 . S
Cd884 O885 2.240 . S
Cd884 O892 2.223 . S
Cd884 O894 2.297 . S
Cd884 O895 2.439 . S
O885 Cd884 2.240 . S
O885 C890 1.279 . S
O886 Cd883 2.297 . S
O886 C888 1.247 . S
O887 Cd883 2.439 . S
O887 C888 1.208 . S
C888 O886 1.247 . S
C888 O887 1.208 . S
C889 O894 1.247 . S
C889 O895 1.208 . S
C890 O882 1.315 . S
C890 O885 1.279 . S
C891 O892 1.315 . S
C891 O893 1.279 . S
O892 Cd884 2.223 . S
O892 C891 1.315 . S
O893 Cd883 2.240 . S
O893 C891 1.279 . S
O894 Cd884 2.297 . S
O894 C889 1.247 . S
O895 Cd884 2.439 . S
O895 C889 1.208 . S
O896 Cd897 2.223 . S
O896 C904 1.315 . S
Cd897 O896 2.223 . S
Cd897 O900 2.297 . S
Cd897 O901 2.439 . S
Cd897 O907 2.240 . S
Cd898 O899 2.240 . S
Cd898 O906 2.223 . S
Cd898 O908 2.297 . S
Cd898 O909 2.439 . S
O899 Cd898 2.240 . S
O899 C904 1.279 . S
O900 Cd897 2.297 . S
O900 C902 1.247 . S
O901 Cd897 2.439 . S
O901 C902 1.208 . S
C902 O900 1.247 . S
C902 O901 1.208 . S
C903 O908 1.247 . S
C903 O909 1.208 . S
C904 O896 1.315 . S
C904 O899 1.279 . S
C905 O906 1.315 . S
C905 O907 1.279 . S
O906 Cd898 2.223 . S
O906 C905 1.315 . S
O907 Cd897 2.240 . S
O907 C905 1.279 . S
O908 Cd898 2.297 . S
O908 C903 1.247 . S
O909 Cd898 2.439 . S
O909 C903 1.208 . S
O910 Cd911 2.223 . S
O910 C918 1.315 . S
Cd911 O910 2.223 . S
Cd911 O914 2.297 . S
Cd911 O915 2.439 . S
Cd911 O921 2.240 . S
Cd912 O913 2.240 . S
Cd912 O920 2.223 . S
Cd912 O922 2.297 . S
Cd912 O923 2.439 . S
O913 Cd912 2.240 . S
O913 C918 1.279 . S
O914 Cd911 2.297 . S
O914 C916 1.247 . S
O915 Cd911 2.439 . S
O915 C916 1.208 . S
C916 O914 1.247 . S
C916 O915 1.208 . S
C917 O922 1.247 . S
C917 O923 1.208 . S
C918 O910 1.315 . S
C918 O913 1.279 . S
C919 O920 1.315 . S
C919 O921 1.279 . S
O920 Cd912 2.223 . S
O920 C919 1.315 . S
O921 Cd911 2.240 . S
O921 C919 1.279 . S
O922 Cd912 2.297 . S
O922 C917 1.247 . S
O923 Cd912 2.439 . S
O923 C917 1.208 . S
O924 Cd925 2.223 . S
O924 C932 1.315 . S
Cd925 O924 2.223 . S
Cd925 O928 2.297 . S
Cd925 O929 2.439 . S
Cd925 O935 2.240 . S
Cd926 O927 2.240 . S
Cd926 O934 2.223 . S
Cd926 O936 2.297 . S
Cd926 O937 2.439 . S
O927 Cd926 2.240 . S
O927 C932 1.279 . S
O928 Cd925 2.297 . S
O928 C930 1.247 . S
O929 Cd925 2.439 . S
O929 C930 1.208 . S
C930 O928 1.247 . S
C930 O929 1.208 . S
C931 O936 1.247 . S
C931 O937 1.208 . S
C932 O924 1.315 . S
C932 O927 1.279 . S
C933 O934 1.315 . S
C933 O935 1.279 . S
O934 Cd926 2.223 . S
O934 C933 1.315 . S
O935 Cd925 2.240 . S
O935 C933 1.279 . S
O936 Cd926 2.297 . S
O936 C931 1.247 . S
O937 Cd926 2.439 . S
O937 C931 1.208 . S
O938 Cd939 2.223 1_554 S
O938 C946 1.332 . S
Cd939 O938 2.223 1_556 S
Cd939 O942 2.297 1_556 S
Cd939 O943 2.439 . S
Cd939 O949 2.240 . S
Cd940 O941 2.240 . S
Cd940 O948 2.223 . S
Cd940 O950 2.297 . S
Cd940 O951 2.439 . S
O941 Cd940 2.240 . S
O941 C946 1.247 1_556 S
O942 Cd939 2.297 1_554 S
O942 C944 1.247 . S
O943 Cd939 2.439 . S
O943 C944 1.208 1_556 S
C944 O942 1.247 . S
C944 O943 1.208 1_554 S
C945 O950 1.247 . S
C945 O951 1.208 . S
C946 O938 1.332 . S
C946 O941 1.247 1_554 S
C947 O948 1.315 . S
C947 O949 1.279 . S
O948 Cd940 2.223 . S
O948 C947 1.315 . S
O949 Cd939 2.240 . S
O949 C947 1.279 . S
O950 Cd940 2.297 . S
O950 C945 1.247 . S
O951 Cd940 2.439 . S
O951 C945 1.208 . S
O952 Cd953 2.223 . S
O952 C960 1.315 . S
Cd953 O952 2.223 . S
Cd953 O956 2.297 . S
Cd953 O957 2.439 . S
Cd953 O963 2.240 . S
Cd954 O955 2.240 . S
Cd954 O962 2.223 . S
Cd954 O964 2.297 . S
Cd954 O965 2.439 . S
O955 Cd954 2.240 . S
O955 C960 1.279 . S
O956 Cd953 2.297 . S
O956 C958 1.247 . S
O957 Cd953 2.439 . S
O957 C958 1.208 . S
C958 O956 1.247 . S
C958 O957 1.208 . S
C959 O964 1.247 . S
C959 O965 1.208 . S
C960 O952 1.315 . S
C960 O955 1.279 . S
C961 O962 1.315 . S
C961 O963 1.279 . S
O962 Cd954 2.223 . S
O962 C961 1.315 . S
O963 Cd953 2.240 . S
O963 C961 1.279 . S
O964 Cd954 2.297 . S
O964 C959 1.247 . S
O965 Cd954 2.439 . S
O965 C959 1.208 . S
O966 Cd967 2.223 1_556 S
O966 C974 1.331 . S
Cd967 O966 2.223 1_554 S
Cd967 O970 2.297 1_554 S
Cd967 O971 2.439 . S
Cd967 O977 2.240 . S
Cd968 O969 2.240 . S
Cd968 O976 2.223 . S
Cd968 O978 2.297 . S
Cd968 O979 2.439 . S
O969 Cd968 2.240 . S
O969 C974 1.247 1_554 S
O970 Cd967 2.297 1_556 S
O970 C972 1.247 . S
O971 Cd967 2.439 . S
O971 C972 1.208 1_554 S
C972 O970 1.247 . S
C972 O971 1.208 1_556 S
C973 O978 1.247 . S
C973 O979 1.208 . S
C974 O966 1.331 . S
C974 O969 1.247 1_556 S
C975 O976 1.315 . S
C975 O977 1.279 . S
O976 Cd968 2.223 . S
O976 C975 1.315 . S
O977 Cd967 2.240 . S
O977 C975 1.279 . S
O978 Cd968 2.297 . S
O978 C973 1.247 . S
O979 Cd968 2.439 . S
O979 C973 1.208 . S
O980 Cd981 2.223 . S
O980 C988 1.315 . S
Cd981 O980 2.223 . S
Cd981 O984 2.297 . S
Cd981 O985 2.439 . S
Cd981 O991 2.240 . S
Cd982 O983 2.240 . S
Cd982 O990 2.223 . S
Cd982 O992 2.297 . S
Cd982 O993 2.439 . S
O983 Cd982 2.240 . S
O983 C988 1.279 . S
O984 Cd981 2.297 . S
O984 C986 1.247 . S
O985 Cd981 2.439 . S
O985 C986 1.208 . S
C986 O984 1.247 . S
C986 O985 1.208 . S
C987 O992 1.247 . S
C987 O993 1.208 . S
C988 O980 1.315 . S
C988 O983 1.279 . S
C989 O990 1.315 . S
C989 O991 1.279 . S
O990 Cd982 2.223 . S
O990 C989 1.315 . S
O991 Cd981 2.240 . S
O991 C989 1.279 . S
O992 Cd982 2.297 . S
O992 C987 1.247 . S
O993 Cd982 2.439 . S
O993 C987 1.208 . S
O994 Cd995 2.223 . S
O994 C1002 1.315 . S
Cd995 O994 2.223 . S
Cd995 O998 2.297 . S
Cd995 O999 2.439 . S
Cd995 O1005 2.240 . S
Cd996 O997 2.240 . S
Cd996 O1004 2.223 . S
Cd996 O1006 2.297 . S
Cd996 O1007 2.439 . S
O997 Cd996 2.240 . S
O997 C1002 1.279 . S
O998 Cd995 2.297 . S
O998 C1000 1.247 . S
O999 Cd995 2.439 . S
O999 C1000 1.208 . S
C1000 O998 1.247 . S
C1000 O999 1.208 . S
C1001 O1006 1.247 . S
C1001 O1007 1.208 . S
C1002 O994 1.315 . S
C1002 O997 1.279 . S
C1003 O1004 1.315 . S
C1003 O1005 1.279 . S
O1004 Cd996 2.223 . S
O1004 C1003 1.315 . S
O1005 Cd995 2.240 . S
O1005 C1003 1.279 . S
O1006 Cd996 2.297 . S
O1006 C1001 1.247 . S
O1007 Cd996 2.439 . S
O1007 C1001 1.208 . S
O1008 Cd1009 2.223 . S
O1008 C1016 1.315 . S
Cd1009 O1008 2.223 . S
Cd1009 O1012 2.297 . S
Cd1009 O1013 2.439 . S
Cd1009 O1019 2.240 . S
Cd1010 O1011 2.240 . S
Cd1010 O1018 2.223 . S
Cd1010 O1020 2.297 . S
Cd1010 O1021 2.439 . S
O1011 Cd1010 2.240 . S
O1011 C1016 1.279 . S
O1012 Cd1009 2.297 . S
O1012 C1014 1.247 . S
O1013 Cd1009 2.439 . S
O1013 C1014 1.208 . S
C1014 O1012 1.247 . S
C1014 O1013 1.208 . S
C1015 O1020 1.247 . S
C1015 O1021 1.208 . S
C1016 O1008 1.315 . S
C1016 O1011 1.279 . S
C1017 O1018 1.315 . S
C1017 O1019 1.279 . S
O1018 Cd1010 2.223 . S
O1018 C1017 1.315 . S
O1019 Cd1009 2.240 . S
O1019 C1017 1.279 . S
O1020 Cd1010 2.297 . S
O1020 C1015 1.247 . S
O1021 Cd1010 2.439 . S
O1021 C1015 1.208 . S
O1022 Cd1023 2.223 . S
O1022 C1030 1.315 . S
Cd1023 O1022 2.223 . S
Cd1023 O1026 2.297 . S
Cd1023 O1027 2.439 . S
Cd1023 O1033 2.240 . S
Cd1024 O1025 2.240 . S
Cd1024 O1032 2.223 . S
Cd1024 O1034 2.297 . S
Cd1024 O1035 2.439 . S
O1025 Cd1024 2.240 . S
O1025 C1030 1.279 . S
O1026 Cd1023 2.297 . S
O1026 C1028 1.247 . S
O1027 Cd1023 2.439 . S
O1027 C1028 1.208 . S
C1028 O1026 1.247 . S
C1028 O1027 1.208 . S
C1029 O1034 1.247 . S
C1029 O1035 1.208 . S
C1030 O1022 1.315 . S
C1030 O1025 1.279 . S
C1031 O1032 1.315 . S
C1031 O1033 1.279 . S
O1032 Cd1024 2.223 . S
O1032 C1031 1.315 . S
O1033 Cd1023 2.240 . S
O1033 C1031 1.279 . S
O1034 Cd1024 2.297 . S
O1034 C1029 1.247 . S
O1035 Cd1024 2.439 . S
O1035 C1029 1.208 . S
O1036 Cd1037 2.223 1_655 S
O1036 C1044 1.332 . S
Cd1037 O1036 2.223 1_455 S
Cd1037 O1040 2.297 1_455 S
Cd1037 O1041 2.439 . S
Cd1037 O1047 2.240 . S
Cd1038 O1039 2.240 . S
Cd1038 O1046 2.223 . S
Cd1038 O1048 2.297 . S
Cd1038 O1049 2.439 . S
O1039 Cd1038 2.240 . S
O1039 C1044 1.247 1_455 S
O1040 Cd1037 2.297 1_655 S
O1040 C1042 1.247 . S
O1041 Cd1037 2.439 . S
O1041 C1042 1.208 1_455 S
C1042 O1040 1.247 . S
C1042 O1041 1.208 1_655 S
C1043 O1048 1.247 . S
C1043 O1049 1.208 . S
C1044 O1036 1.332 . S
C1044 O1039 1.247 1_655 S
C1045 O1046 1.315 . S
C1045 O1047 1.279 . S
O1046 Cd1038 2.223 . S
O1046 C1045 1.315 . S
O1047 Cd1037 2.240 . S
O1047 C1045 1.279 . S
O1048 Cd1038 2.297 . S
O1048 C1043 1.247 . S
O1049 Cd1038 2.439 . S
O1049 C1043 1.208 . S
O1050 Cd1051 2.223 . S
O1050 C1058 1.315 . S
Cd1051 O1050 2.223 . S
Cd1051 O1054 2.297 . S
Cd1051 O1055 2.439 . S
Cd1051 O1061 2.240 . S
Cd1052 O1053 2.240 . S
Cd1052 O1060 2.223 . S
Cd1052 O1062 2.297 . S
Cd1052 O1063 2.439 . S
O1053 Cd1052 2.240 . S
O1053 C1058 1.279 . S
O1054 Cd1051 2.297 . S
O1054 C1056 1.247 . S
O1055 Cd1051 2.439 . S
O1055 C1056 1.208 . S
C1056 O1054 1.247 . S
C1056 O1055 1.208 . S
C1057 O1062 1.247 . S
C1057 O1063 1.208 . S
C1058 O1050 1.315 . S
C1058 O1053 1.279 . S
C1059 O1060 1.315 . S
C1059 O1061 1.279 . S
O1060 Cd1052 2.223 . S
O1060 C1059 1.315 . S
O1061 Cd1051 2.240 . S
O1061 C1059 1.279 . S
O1062 Cd1052 2.297 . S
O1062 C1057 1.247 . S
O1063 Cd1052 2.439 . S
O1063 C1057 1.208 . S
O1064 Cd1065 2.223 . S
O1064 C1072 1.315 . S
Cd1065 O1064 2.223 . S
Cd1065 O1068 2.297 . S
Cd1065 O1069 2.439 . S
Cd1065 O1075 2.240 . S
Cd1066 O1067 2.240 . S
Cd1066 O1074 2.223 . S
Cd1066 O1076 2.297 . S
Cd1066 O1077 2.439 . S
O1067 Cd1066 2.240 . S
O1067 C1072 1.279 . S
O1068 Cd1065 2.297 . S
O1068 C1070 1.247 . S
O1069 Cd1065 2.439 . S
O1069 C1070 1.208 . S
C1070 O1068 1.247 . S
C1070 O1069 1.208 . S
C1071 O1076 1.247 . S
C1071 O1077 1.208 . S
C1072 O1064 1.315 . S
C1072 O1067 1.279 . S
C1073 O1074 1.315 . S
C1073 O1075 1.279 . S
O1074 Cd1066 2.223 . S
O1074 C1073 1.315 . S
O1075 Cd1065 2.240 . S
O1075 C1073 1.279 . S
O1076 Cd1066 2.297 . S
O1076 C1071 1.247 . S
O1077 Cd1066 2.439 . S
O1077 C1071 1.208 . S
O1078 Cd1079 2.223 . S
O1078 C1086 1.315 . S
Cd1079 O1078 2.223 . S
Cd1079 O1082 2.297 . S
Cd1079 O1083 2.439 . S
Cd1079 O1089 2.240 . S
Cd1080 O1081 2.240 . S
Cd1080 O1088 2.223 . S
Cd1080 O1090 2.297 . S
Cd1080 O1091 2.439 . S
O1081 Cd1080 2.240 . S
O1081 C1086 1.279 . S
O1082 Cd1079 2.297 . S
O1082 C1084 1.247 . S
O1083 Cd1079 2.439 . S
O1083 C1084 1.208 . S
C1084 O1082 1.247 . S
C1084 O1083 1.208 . S
C1085 O1090 1.247 . S
C1085 O1091 1.208 . S
C1086 O1078 1.315 . S
C1086 O1081 1.279 . S
C1087 O1088 1.315 . S
C1087 O1089 1.279 . S
O1088 Cd1080 2.223 . S
O1088 C1087 1.315 . S
O1089 Cd1079 2.240 . S
O1089 C1087 1.279 . S
O1090 Cd1080 2.297 . S
O1090 C1085 1.247 . S
O1091 Cd1080 2.439 . S
O1091 C1085 1.208 . S
O1092 Cd1093 2.223 1_655 S
O1092 C1100 1.332 . S
Cd1093 O1092 2.223 1_455 S
Cd1093 O1096 2.297 1_455 S
Cd1093 O1097 2.439 . S
Cd1093 O1103 2.240 . S
Cd1094 O1095 2.240 . S
Cd1094 O1102 2.223 . S
Cd1094 O1104 2.297 . S
Cd1094 O1105 2.439 . S
O1095 Cd1094 2.240 . S
O1095 C1100 1.247 1_455 S
O1096 Cd1093 2.297 1_655 S
O1096 C1098 1.247 . S
O1097 Cd1093 2.439 . S
O1097 C1098 1.208 1_455 S
C1098 O1096 1.247 . S
C1098 O1097 1.208 1_655 S
C1099 O1104 1.247 . S
C1099 O1105 1.208 . S
C1100 O1092 1.332 . S
C1100 O1095 1.247 1_655 S
C1101 O1102 1.315 . S
C1101 O1103 1.279 . S
O1102 Cd1094 2.223 . S
O1102 C1101 1.315 . S
O1103 Cd1093 2.240 . S
O1103 C1101 1.279 . S
O1104 Cd1094 2.297 . S
O1104 C1099 1.247 . S
O1105 Cd1094 2.439 . S
O1105 C1099 1.208 . S
O1106 Cd1107 2.223 . S
O1106 C1114 1.315 . S
Cd1107 O1106 2.223 . S
Cd1107 O1110 2.297 . S
Cd1107 O1111 2.439 . S
Cd1107 O1117 2.240 . S
Cd1108 O1109 2.240 . S
Cd1108 O1116 2.223 . S
Cd1108 O1118 2.297 . S
Cd1108 O1119 2.439 . S
O1109 Cd1108 2.240 . S
O1109 C1114 1.279 . S
O1110 Cd1107 2.297 . S
O1110 C1112 1.247 . S
O1111 Cd1107 2.439 . S
O1111 C1112 1.208 . S
C1112 O1110 1.247 . S
C1112 O1111 1.208 . S
C1113 O1118 1.247 . S
C1113 O1119 1.208 . S
C1114 O1106 1.315 . S
C1114 O1109 1.279 . S
C1115 O1116 1.315 . S
C1115 O1117 1.279 . S
O1116 Cd1108 2.223 . S
O1116 C1115 1.315 . S
O1117 Cd1107 2.240 . S
O1117 C1115 1.279 . S
O1118 Cd1108 2.297 . S
O1118 C1113 1.247 . S
O1119 Cd1108 2.439 . S
O1119 C1113 1.208 . S
O1120 Cd1121 2.223 . S
O1120 C1128 1.315 . S
Cd1121 O1120 2.223 . S
Cd1121 O1124 2.297 . S
Cd1121 O1125 2.439 . S
Cd1121 O1131 2.240 . S
Cd1122 O1123 2.240 . S
Cd1122 O1130 2.223 . S
Cd1122 O1132 2.297 . S
Cd1122 O1133 2.439 . S
O1123 Cd1122 2.240 . S
O1123 C1128 1.279 . S
O1124 Cd1121 2.297 . S
O1124 C1126 1.247 . S
O1125 Cd1121 2.439 . S
O1125 C1126 1.208 . S
C1126 O1124 1.247 . S
C1126 O1125 1.208 . S
C1127 O1132 1.247 . S
C1127 O1133 1.208 . S
C1128 O1120 1.315 . S
C1128 O1123 1.279 . S
C1129 O1130 1.315 . S
C1129 O1131 1.279 . S
O1130 Cd1122 2.223 . S
O1130 C1129 1.315 . S
O1131 Cd1121 2.240 . S
O1131 C1129 1.279 . S
O1132 Cd1122 2.297 . S
O1132 C1127 1.247 . S
O1133 Cd1122 2.439 . S
O1133 C1127 1.208 . S
O1134 Cd1135 2.223 . S
O1134 C1142 1.315 . S
Cd1135 O1134 2.223 . S
Cd1135 O1138 2.297 . S
Cd1135 O1139 2.439 . S
Cd1135 O1145 2.240 . S
Cd1136 O1137 2.240 . S
Cd1136 O1144 2.223 . S
Cd1136 O1146 2.297 . S
Cd1136 O1147 2.439 . S
O1137 Cd1136 2.240 . S
O1137 C1142 1.279 . S
O1138 Cd1135 2.297 . S
O1138 C1140 1.247 . S
O1139 Cd1135 2.439 . S
O1139 C1140 1.208 . S
C1140 O1138 1.247 . S
C1140 O1139 1.208 . S
C1141 O1146 1.247 . S
C1141 O1147 1.208 . S
C1142 O1134 1.315 . S
C1142 O1137 1.279 . S
C1143 O1144 1.315 . S
C1143 O1145 1.279 . S
O1144 Cd1136 2.223 . S
O1144 C1143 1.315 . S
O1145 Cd1135 2.240 . S
O1145 C1143 1.279 . S
O1146 Cd1136 2.297 . S
O1146 C1141 1.247 . S
O1147 Cd1136 2.439 . S
O1147 C1141 1.208 . S
O1148 Cd1149 2.223 . S
O1148 C1156 1.315 . S
Cd1149 O1148 2.223 . S
Cd1149 O1152 2.297 . S
Cd1149 O1153 2.439 . S
Cd1149 O1159 2.240 . S
Cd1150 O1151 2.240 . S
Cd1150 O1158 2.223 . S
Cd1150 O1160 2.297 . S
Cd1150 O1161 2.439 . S
O1151 Cd1150 2.240 . S
O1151 C1156 1.279 . S
O1152 Cd1149 2.297 . S
O1152 C1154 1.247 . S
O1153 Cd1149 2.439 . S
O1153 C1154 1.208 . S
C1154 O1152 1.247 . S
C1154 O1153 1.208 . S
C1155 O1160 1.247 . S
C1155 O1161 1.208 . S
C1156 O1148 1.315 . S
C1156 O1151 1.279 . S
C1157 O1158 1.315 . S
C1157 O1159 1.279 . S
O1158 Cd1150 2.223 . S
O1158 C1157 1.315 . S
O1159 Cd1149 2.240 . S
O1159 C1157 1.279 . S
O1160 Cd1150 2.297 . S
O1160 C1155 1.247 . S
O1161 Cd1150 2.439 . S
O1161 C1155 1.208 . S
O1162 Cd1163 2.223 . S
O1162 C1170 1.315 . S
Cd1163 O1162 2.223 . S
Cd1163 O1166 2.297 . S
Cd1163 O1167 2.439 . S
Cd1163 O1173 2.240 . S
Cd1164 O1165 2.240 . S
Cd1164 O1172 2.223 . S
Cd1164 O1174 2.297 . S
Cd1164 O1175 2.439 . S
O1165 Cd1164 2.240 . S
O1165 C1170 1.279 . S
O1166 Cd1163 2.297 . S
O1166 C1168 1.247 . S
O1167 Cd1163 2.439 . S
O1167 C1168 1.208 . S
C1168 O1166 1.247 . S
C1168 O1167 1.208 . S
C1169 O1174 1.247 . S
C1169 O1175 1.208 . S
C1170 O1162 1.315 . S
C1170 O1165 1.279 . S
C1171 O1172 1.315 . S
C1171 O1173 1.279 . S
O1172 Cd1164 2.223 . S
O1172 C1171 1.315 . S
O1173 Cd1163 2.240 . S
O1173 C1171 1.279 . S
O1174 Cd1164 2.297 . S
O1174 C1169 1.247 . S
O1175 Cd1164 2.439 . S
O1175 C1169 1.208 . S
O1176 Cd1177 2.223 . S
O1176 C1184 1.315 . S
Cd1177 O1176 2.223 . S
Cd1177 O1180 2.297 . S
Cd1177 O1181 2.439 . S
Cd1177 O1187 2.240 . S
Cd1178 O1179 2.240 . S
Cd1178 O1186 2.223 . S
Cd1178 O1188 2.297 . S
Cd1178 O1189 2.439 . S
O1179 Cd1178 2.240 . S
O1179 C1184 1.279 . S
O1180 Cd1177 2.297 . S
O1180 C1182 1.247 . S
O1181 Cd1177 2.439 . S
O1181 C1182 1.208 . S
C1182 O1180 1.247 . S
C1182 O1181 1.208 . S
C1183 O1188 1.247 . S
C1183 O1189 1.208 . S
C1184 O1176 1.315 . S
C1184 O1179 1.279 . S
C1185 O1186 1.315 . S
C1185 O1187 1.279 . S
O1186 Cd1178 2.223 . S
O1186 C1185 1.315 . S
O1187 Cd1177 2.240 . S
O1187 C1185 1.279 . S
O1188 Cd1178 2.297 . S
O1188 C1183 1.247 . S
O1189 Cd1178 2.439 . S
O1189 C1183 1.208 . S
O1190 Cd1191 2.223 . S
O1190 C1198 1.315 . S
Cd1191 O1190 2.223 . S
Cd1191 O1194 2.297 . S
Cd1191 O1195 2.439 . S
Cd1191 O1201 2.240 . S
Cd1192 O1193 2.240 . S
Cd1192 O1200 2.223 . S
Cd1192 O1202 2.297 . S
Cd1192 O1203 2.439 . S
O1193 Cd1192 2.240 . S
O1193 C1198 1.279 . S
O1194 Cd1191 2.297 . S
O1194 C1196 1.247 . S
O1195 Cd1191 2.439 . S
O1195 C1196 1.208 . S
C1196 O1194 1.247 . S
C1196 O1195 1.208 . S
C1197 O1202 1.247 . S
C1197 O1203 1.208 . S
C1198 O1190 1.315 . S
C1198 O1193 1.279 . S
C1199 O1200 1.315 . S
C1199 O1201 1.279 . S
O1200 Cd1192 2.223 . S
O1200 C1199 1.315 . S
O1201 Cd1191 2.240 . S
O1201 C1199 1.279 . S
O1202 Cd1192 2.297 . S
O1202 C1197 1.247 . S
O1203 Cd1192 2.439 . S
O1203 C1197 1.208 . S
O1204 Cd1205 2.223 . S
O1204 C1212 1.315 . S
Cd1205 O1204 2.223 . S
Cd1205 O1208 2.297 . S
Cd1205 O1209 2.439 . S
Cd1205 O1215 2.240 . S
Cd1206 O1207 2.240 . S
Cd1206 O1214 2.223 . S
Cd1206 O1216 2.297 . S
Cd1206 O1217 2.439 . S
O1207 Cd1206 2.240 . S
O1207 C1212 1.279 . S
O1208 Cd1205 2.297 . S
O1208 C1210 1.247 . S
O1209 Cd1205 2.439 . S
O1209 C1210 1.208 . S
C1210 O1208 1.247 . S
C1210 O1209 1.208 . S
C1211 O1216 1.247 . S
C1211 O1217 1.208 . S
C1212 O1204 1.315 . S
C1212 O1207 1.279 . S
C1213 O1214 1.315 . S
C1213 O1215 1.279 . S
O1214 Cd1206 2.223 . S
O1214 C1213 1.315 . S
O1215 Cd1205 2.240 . S
O1215 C1213 1.279 . S
O1216 Cd1206 2.297 . S
O1216 C1211 1.247 . S
O1217 Cd1206 2.439 . S
O1217 C1211 1.208 . S
O1218 Cd1219 2.223 . S
O1218 C1226 1.315 . S
Cd1219 O1218 2.223 . S
Cd1219 O1222 2.297 . S
Cd1219 O1223 2.439 . S
Cd1219 O1229 2.240 . S
Cd1220 O1221 2.240 . S
Cd1220 O1228 2.223 . S
Cd1220 O1230 2.297 . S
Cd1220 O1231 2.439 . S
O1221 Cd1220 2.240 . S
O1221 C1226 1.279 . S
O1222 Cd1219 2.297 . S
O1222 C1224 1.247 . S
O1223 Cd1219 2.439 . S
O1223 C1224 1.208 . S
C1224 O1222 1.247 . S
C1224 O1223 1.208 . S
C1225 O1230 1.247 . S
C1225 O1231 1.208 . S
C1226 O1218 1.315 . S
C1226 O1221 1.279 . S
C1227 O1228 1.315 . S
C1227 O1229 1.279 . S
O1228 Cd1220 2.223 . S
O1228 C1227 1.315 . S
O1229 Cd1219 2.240 . S
O1229 C1227 1.279 . S
O1230 Cd1220 2.297 . S
O1230 C1225 1.247 . S
O1231 Cd1220 2.439 . S
O1231 C1225 1.208 . S
O1232 Cd1233 2.223 . S
O1232 C1240 1.315 . S
Cd1233 O1232 2.223 . S
Cd1233 O1236 2.297 . S
Cd1233 O1237 2.439 . S
Cd1233 O1243 2.240 . S
Cd1234 O1235 2.240 . S
Cd1234 O1242 2.223 . S
Cd1234 O1244 2.297 . S
Cd1234 O1245 2.439 . S
O1235 Cd1234 2.240 . S
O1235 C1240 1.279 . S
O1236 Cd1233 2.297 . S
O1236 C1238 1.247 . S
O1237 Cd1233 2.439 . S
O1237 C1238 1.208 . S
C1238 O1236 1.247 . S
C1238 O1237 1.208 . S
C1239 O1244 1.247 . S
C1239 O1245 1.208 . S
C1240 O1232 1.315 . S
C1240 O1235 1.279 . S
C1241 O1242 1.315 . S
C1241 O1243 1.279 . S
O1242 Cd1234 2.223 . S
O1242 C1241 1.315 . S
O1243 Cd1233 2.240 . S
O1243 C1241 1.279 . S
O1244 Cd1234 2.297 . S
O1244 C1239 1.247 . S
O1245 Cd1234 2.439 . S
O1245 C1239 1.208 . S
O1246 Cd1247 2.223 . S
O1246 C1254 1.315 . S
Cd1247 O1246 2.223 . S
Cd1247 O1250 2.297 . S
Cd1247 O1251 2.439 . S
Cd1247 O1257 2.240 . S
Cd1248 O1249 2.240 . S
Cd1248 O1256 2.223 . S
Cd1248 O1258 2.297 . S
Cd1248 O1259 2.439 . S
O1249 Cd1248 2.240 . S
O1249 C1254 1.279 . S
O1250 Cd1247 2.297 . S
O1250 C1252 1.247 . S
O1251 Cd1247 2.439 . S
O1251 C1252 1.208 . S
C1252 O1250 1.247 . S
C1252 O1251 1.208 . S
C1253 O1258 1.247 . S
C1253 O1259 1.208 . S
C1254 O1246 1.315 . S
C1254 O1249 1.279 . S
C1255 O1256 1.315 . S
C1255 O1257 1.279 . S
O1256 Cd1248 2.223 . S
O1256 C1255 1.315 . S
O1257 Cd1247 2.240 . S
O1257 C1255 1.279 . S
O1258 Cd1248 2.297 . S
O1258 C1253 1.247 . S
O1259 Cd1248 2.439 . S
O1259 C1253 1.208 . S
O1260 Cd1261 2.223 . S
O1260 C1268 1.315 . S
Cd1261 O1260 2.223 . S
Cd1261 O1264 2.297 . S
Cd1261 O1265 2.439 . S
Cd1261 O1271 2.240 . S
Cd1262 O1263 2.240 . S
Cd1262 O1270 2.223 . S
Cd1262 O1272 2.297 . S
Cd1262 O1273 2.439 . S
O1263 Cd1262 2.240 . S
O1263 C1268 1.279 . S
O1264 Cd1261 2.297 . S
O1264 C1266 1.247 . S
O1265 Cd1261 2.439 . S
O1265 C1266 1.208 . S
C1266 O1264 1.247 . S
C1266 O1265 1.208 . S
C1267 O1272 1.247 . S
C1267 O1273 1.208 . S
C1268 O1260 1.315 . S
C1268 O1263 1.279 . S
C1269 O1270 1.315 . S
C1269 O1271 1.279 . S
O1270 Cd1262 2.223 . S
O1270 C1269 1.315 . S
O1271 Cd1261 2.240 . S
O1271 C1269 1.279 . S
O1272 Cd1262 2.297 . S
O1272 C1267 1.247 . S
O1273 Cd1262 2.439 . S
O1273 C1267 1.208 . S
O1274 Cd1275 2.223 1_556 S
O1274 C1282 1.332 . S
Cd1275 O1274 2.223 1_554 S
Cd1275 O1278 2.297 1_554 S
Cd1275 O1279 2.439 . S
Cd1275 O1285 2.240 . S
Cd1276 O1277 2.240 . S
Cd1276 O1284 2.223 . S
Cd1276 O1286 2.297 . S
Cd1276 O1287 2.439 . S
O1277 Cd1276 2.240 . S
O1277 C1282 1.247 1_554 S
O1278 Cd1275 2.297 1_556 S
O1278 C1280 1.247 . S
O1279 Cd1275 2.439 . S
O1279 C1280 1.208 1_554 S
C1280 O1278 1.247 . S
C1280 O1279 1.208 1_556 S
C1281 O1286 1.247 . S
C1281 O1287 1.208 . S
C1282 O1274 1.332 . S
C1282 O1277 1.247 1_556 S
C1283 O1284 1.315 . S
C1283 O1285 1.279 . S
O1284 Cd1276 2.223 . S
O1284 C1283 1.315 . S
O1285 Cd1275 2.240 . S
O1285 C1283 1.279 . S
O1286 Cd1276 2.297 . S
O1286 C1281 1.247 . S
O1287 Cd1276 2.439 . S
O1287 C1281 1.208 . S
O1288 Cd1289 2.223 . S
O1288 C1296 1.315 . S
Cd1289 O1288 2.223 . S
Cd1289 O1292 2.297 . S
Cd1289 O1293 2.439 . S
Cd1289 O1299 2.240 . S
Cd1290 O1291 2.240 . S
Cd1290 O1298 2.223 . S
Cd1290 O1300 2.297 . S
Cd1290 O1301 2.439 . S
O1291 Cd1290 2.240 . S
O1291 C1296 1.279 . S
O1292 Cd1289 2.297 . S
O1292 C1294 1.247 . S
O1293 Cd1289 2.439 . S
O1293 C1294 1.208 . S
C1294 O1292 1.247 . S
C1294 O1293 1.208 . S
C1295 O1300 1.247 . S
C1295 O1301 1.208 . S
C1296 O1288 1.315 . S
C1296 O1291 1.279 . S
C1297 O1298 1.315 . S
C1297 O1299 1.279 . S
O1298 Cd1290 2.223 . S
O1298 C1297 1.315 . S
O1299 Cd1289 2.240 . S
O1299 C1297 1.279 . S
O1300 Cd1290 2.297 . S
O1300 C1295 1.247 . S
O1301 Cd1290 2.439 . S
O1301 C1295 1.208 . S
O1302 Cd1303 2.223 1_554 S
O1302 C1310 1.331 . S
Cd1303 O1302 2.223 1_556 S
Cd1303 O1306 2.297 1_556 S
Cd1303 O1307 2.439 . S
Cd1303 O1313 2.240 . S
Cd1304 O1305 2.240 . S
Cd1304 O1312 2.223 . S
Cd1304 O1314 2.297 . S
Cd1304 O1315 2.439 . S
O1305 Cd1304 2.240 . S
O1305 C1310 1.247 1_556 S
O1306 Cd1303 2.297 1_554 S
O1306 C1308 1.247 . S
O1307 Cd1303 2.439 . S
O1307 C1308 1.208 1_556 S
C1308 O1306 1.247 . S
C1308 O1307 1.208 1_554 S
C1309 O1314 1.247 . S
C1309 O1315 1.208 . S
C1310 O1302 1.331 . S
C1310 O1305 1.247 1_554 S
C1311 O1312 1.315 . S
C1311 O1313 1.279 . S
O1312 Cd1304 2.223 . S
O1312 C1311 1.315 . S
O1313 Cd1303 2.240 . S
O1313 C1311 1.279 . S
O1314 Cd1304 2.297 . S
O1314 C1309 1.247 . S
O1315 Cd1304 2.439 . S
O1315 C1309 1.208 . S
O1316 Cd1317 2.223 . S
O1316 C1324 1.315 . S
Cd1317 O1316 2.223 . S
Cd1317 O1320 2.297 . S
Cd1317 O1321 2.439 . S
Cd1317 O1327 2.240 . S
Cd1318 O1319 2.240 . S
Cd1318 O1326 2.223 . S
Cd1318 O1328 2.297 . S
Cd1318 O1329 2.439 . S
O1319 Cd1318 2.240 . S
O1319 C1324 1.279 . S
O1320 Cd1317 2.297 . S
O1320 C1322 1.247 . S
O1321 Cd1317 2.439 . S
O1321 C1322 1.208 . S
C1322 O1320 1.247 . S
C1322 O1321 1.208 . S
C1323 O1328 1.247 . S
C1323 O1329 1.208 . S
C1324 O1316 1.315 . S
C1324 O1319 1.279 . S
C1325 O1326 1.315 . S
C1325 O1327 1.279 . S
O1326 Cd1318 2.223 . S
O1326 C1325 1.315 . S
O1327 Cd1317 2.240 . S
O1327 C1325 1.279 . S
O1328 Cd1318 2.297 . S
O1328 C1323 1.247 . S
O1329 Cd1318 2.439 . S
O1329 C1323 1.208 . S
O1330 Cd1331 2.223 . S
O1330 C1338 1.315 . S
Cd1331 O1330 2.223 . S
Cd1331 O1334 2.297 . S
Cd1331 O1335 2.439 . S
Cd1331 O1341 2.240 . S
Cd1332 O1333 2.240 . S
Cd1332 O1340 2.223 . S
Cd1332 O1342 2.297 . S
Cd1332 O1343 2.439 . S
O1333 Cd1332 2.240 . S
O1333 C1338 1.279 . S
O1334 Cd1331 2.297 . S
O1334 C1336 1.247 . S
O1335 Cd1331 2.439 . S
O1335 C1336 1.208 . S
C1336 O1334 1.247 . S
C1336 O1335 1.208 . S
C1337 O1342 1.247 . S
C1337 O1343 1.208 . S
C1338 O1330 1.315 . S
C1338 O1333 1.279 . S
C1339 O1340 1.315 . S
C1339 O1341 1.279 . S
O1340 Cd1332 2.223 . S
O1340 C1339 1.315 . S
O1341 Cd1331 2.240 . S
O1341 C1339 1.279 . S
O1342 Cd1332 2.297 . S
O1342 C1337 1.247 . S
O1343 Cd1332 2.439 . S
O1343 C1337 1.208 . S
H1344 C1350 0.930 . S
H1345 C1354 0.930 . S
H1346 C1359 0.929 . S
H1347 C1357 0.929 . S
H1348 C1352 0.929 . S
H1349 C1358 0.929 . S
C1350 H1344 0.930 . S
C1350 C1351 1.367 . S
C1350 C1358 1.378 . S
C1351 C1350 1.367 . S
C1351 C1359 1.433 . S
C1352 H1348 0.929 . S
C1352 C1354 1.378 . S
C1352 C1356 1.350 . S
C1353 C1356 1.463 . S
C1353 C1358 1.350 . S
C1353 N1361 1.427 . S
C1354 H1345 0.930 . S
C1354 C1352 1.378 . S
C1354 C1355 1.367 . S
C1355 C1354 1.367 . S
C1355 C1357 1.433 . S
C1356 C1352 1.350 . S
C1356 C1353 1.463 . S
C1356 N1360 1.427 . S
C1357 H1347 0.929 . S
C1357 C1355 1.433 . S
C1357 N1360 1.384 . S
C1358 H1349 0.929 . S
C1358 C1350 1.378 . S
C1358 C1353 1.350 . S
C1359 H1346 0.929 . S
C1359 C1351 1.433 . S
C1359 N1361 1.384 . S
N1360 C1356 1.427 . S
N1360 C1357 1.384 . S
N1361 C1353 1.427 . S
N1361 C1359 1.384 . S
H1362 C1368 0.930 . S
H1363 C1372 0.930 . S
H1364 C1377 0.929 . S
H1365 C1375 0.929 . S
H1366 C1370 0.929 . S
H1367 C1376 0.929 . S
C1368 H1362 0.930 . S
C1368 C1369 1.367 . S
C1368 C1376 1.378 . S
C1369 C1368 1.367 . S
C1369 C1377 1.433 . S
C1370 H1366 0.929 . S
C1370 C1372 1.378 . S
C1370 C1374 1.350 . S
C1371 C1374 1.463 . S
C1371 C1376 1.350 . S
C1371 N1379 1.427 . S
C1372 H1363 0.930 . S
C1372 C1370 1.378 . S
C1372 C1373 1.367 . S
C1373 C1372 1.367 . S
C1373 C1375 1.433 . S
C1374 C1370 1.350 . S
C1374 C1371 1.463 . S
C1374 N1378 1.427 . S
C1375 H1365 0.929 . S
C1375 C1373 1.433 . S
C1375 N1378 1.384 . S
C1376 H1367 0.929 . S
C1376 C1368 1.378 . S
C1376 C1371 1.350 . S
C1377 H1364 0.929 . S
C1377 C1369 1.433 . S
C1377 N1379 1.384 . S
N1378 C1374 1.427 . S
N1378 C1375 1.384 . S
N1379 C1371 1.427 . S
N1379 C1377 1.384 . S
H1380 C1386 0.930 . S
H1381 C1390 0.930 . S
H1382 C1395 0.929 . S
H1383 C1393 0.929 . S
H1384 C1388 0.929 . S
H1385 C1394 0.929 . S
C1386 H1380 0.930 . S
C1386 C1387 1.367 . S
C1386 C1394 1.378 . S
C1387 C1386 1.367 . S
C1387 C1395 1.433 . S
C1388 H1384 0.929 . S
C1388 C1390 1.378 . S
C1388 C1392 1.350 . S
C1389 C1392 1.463 . S
C1389 C1394 1.350 . S
C1389 N1397 1.427 . S
C1390 H1381 0.930 . S
C1390 C1388 1.378 . S
C1390 C1391 1.367 . S
C1391 C1390 1.367 . S
C1391 C1393 1.433 . S
C1392 C1388 1.350 . S
C1392 C1389 1.463 . S
C1392 N1396 1.427 . S
C1393 H1383 0.929 . S
C1393 C1391 1.433 . S
C1393 N1396 1.384 . S
C1394 H1385 0.929 . S
C1394 C1386 1.378 . S
C1394 C1389 1.350 . S
C1395 H1382 0.929 . S
C1395 C1387 1.433 . S
C1395 N1397 1.384 . S
N1396 C1392 1.427 . S
N1396 C1393 1.384 . S
N1397 C1389 1.427 . S
N1397 C1395 1.384 . S
H1398 C1404 0.930 . S
H1399 C1408 0.930 . S
H1400 C1413 0.929 . S
H1401 C1411 0.929 . S
H1402 C1406 0.929 . S
H1403 C1412 0.929 . S
C1404 H1398 0.930 . S
C1404 C1405 1.367 . S
C1404 C1412 1.378 . S
C1405 C1404 1.367 . S
C1405 C1413 1.433 . S
C1406 H1402 0.929 . S
C1406 C1408 1.378 . S
C1406 C1410 1.350 . S
C1407 C1410 1.463 . S
C1407 C1412 1.350 . S
C1407 N1415 1.427 . S
C1408 H1399 0.930 . S
C1408 C1406 1.378 . S
C1408 C1409 1.367 . S
C1409 C1408 1.367 . S
C1409 C1411 1.433 . S
C1410 C1406 1.350 . S
C1410 C1407 1.463 . S
C1410 N1414 1.427 . S
C1411 H1401 0.929 . S
C1411 C1409 1.433 . S
C1411 N1414 1.384 . S
C1412 H1403 0.929 . S
C1412 C1404 1.378 . S
C1412 C1407 1.350 . S
C1413 H1400 0.929 . S
C1413 C1405 1.433 . S
C1413 N1415 1.384 . S
N1414 C1410 1.427 . S
N1414 C1411 1.384 . S
N1415 C1407 1.427 . S
N1415 C1413 1.384 . S
H1416 C1422 0.930 . S
H1417 C1426 0.930 . S
H1418 C1431 0.929 . S
H1419 C1429 0.929 . S
H1420 C1424 0.929 . S
H1421 C1430 0.929 . S
C1422 H1416 0.930 . S
C1422 C1423 1.367 . S
C1422 C1430 1.378 . S
C1423 C1422 1.367 . S
C1423 C1431 1.433 . S
C1424 H1420 0.929 . S
C1424 C1426 1.378 . S
C1424 C1428 1.350 . S
C1425 C1428 1.463 . S
C1425 C1430 1.350 . S
C1425 N1433 1.427 . S
C1426 H1417 0.930 . S
C1426 C1424 1.378 . S
C1426 C1427 1.367 . S
C1427 C1426 1.367 . S
C1427 C1429 1.433 . S
C1428 C1424 1.350 . S
C1428 C1425 1.463 . S
C1428 N1432 1.427 . S
C1429 H1419 0.929 . S
C1429 C1427 1.433 . S
C1429 N1432 1.384 . S
C1430 H1421 0.929 . S
C1430 C1422 1.378 . S
C1430 C1425 1.350 . S
C1431 H1418 0.929 . S
C1431 C1423 1.433 . S
C1431 N1433 1.384 . S
N1432 C1428 1.427 . S
N1432 C1429 1.384 . S
N1433 C1425 1.427 . S
N1433 C1431 1.384 . S
H1434 C1440 0.930 . S
H1435 C1444 0.930 . S
H1436 C1449 0.929 . S
H1437 C1447 0.929 . S
H1438 C1442 0.929 . S
H1439 C1448 0.929 . S
C1440 H1434 0.930 . S
C1440 C1441 1.367 . S
C1440 C1448 1.378 . S
C1441 C1440 1.367 . S
C1441 C1449 1.433 . S
C1442 H1438 0.929 . S
C1442 C1444 1.378 . S
C1442 C1446 1.350 . S
C1443 C1446 1.463 . S
C1443 C1448 1.350 . S
C1443 N1451 1.427 . S
C1444 H1435 0.930 . S
C1444 C1442 1.378 . S
C1444 C1445 1.367 . S
C1445 C1444 1.367 . S
C1445 C1447 1.433 . S
C1446 C1442 1.350 . S
C1446 C1443 1.463 . S
C1446 N1450 1.427 . S
C1447 H1437 0.929 . S
C1447 C1445 1.433 . S
C1447 N1450 1.384 . S
C1448 H1439 0.929 . S
C1448 C1440 1.378 . S
C1448 C1443 1.350 . S
C1449 H1436 0.929 . S
C1449 C1441 1.433 . S
C1449 N1451 1.384 . S
N1450 C1446 1.427 . S
N1450 C1447 1.384 . S
N1451 C1443 1.427 . S
N1451 C1449 1.384 . S
H1452 C1458 0.930 . S
H1453 C1462 0.930 . S
H1454 C1467 0.929 . S
H1455 C1465 0.929 . S
H1456 C1460 0.929 . S
H1457 C1466 0.929 . S
C1458 H1452 0.930 . S
C1458 C1459 1.367 . S
C1458 C1466 1.378 . S
C1459 C1458 1.367 . S
C1459 C1467 1.433 . S
C1460 H1456 0.929 . S
C1460 C1462 1.378 . S
C1460 C1464 1.350 . S
C1461 C1464 1.463 . S
C1461 C1466 1.350 . S
C1461 N1469 1.427 . S
C1462 H1453 0.930 . S
C1462 C1460 1.378 . S
C1462 C1463 1.367 . S
C1463 C1462 1.367 . S
C1463 C1465 1.433 . S
C1464 C1460 1.350 . S
C1464 C1461 1.463 . S
C1464 N1468 1.427 . S
C1465 H1455 0.929 . S
C1465 C1463 1.433 . S
C1465 N1468 1.384 . S
C1466 H1457 0.929 . S
C1466 C1458 1.378 . S
C1466 C1461 1.350 . S
C1467 H1454 0.929 . S
C1467 C1459 1.433 . S
C1467 N1469 1.384 . S
N1468 C1464 1.427 . S
N1468 C1465 1.384 . S
N1469 C1461 1.427 . S
N1469 C1467 1.384 . S
H1470 C1476 0.930 . S
H1471 C1480 0.930 . S
H1472 C1485 0.929 . S
H1473 C1483 0.929 . S
H1474 C1478 0.929 . S
H1475 C1484 0.929 . S
C1476 H1470 0.930 . S
C1476 C1477 1.367 . S
C1476 C1484 1.378 . S
C1477 C1476 1.367 . S
C1477 C1485 1.433 . S
C1478 H1474 0.929 . S
C1478 C1480 1.378 . S
C1478 C1482 1.350 . S
C1479 C1482 1.463 . S
C1479 C1484 1.350 . S
C1479 N1487 1.427 . S
C1480 H1471 0.930 . S
C1480 C1478 1.378 . S
C1480 C1481 1.367 . S
C1481 C1480 1.367 . S
C1481 C1483 1.433 . S
C1482 C1478 1.350 . S
C1482 C1479 1.463 . S
C1482 N1486 1.427 . S
C1483 H1473 0.929 . S
C1483 C1481 1.433 . S
C1483 N1486 1.384 . S
C1484 H1475 0.929 . S
C1484 C1476 1.378 . S
C1484 C1479 1.350 . S
C1485 H1472 0.929 . S
C1485 C1477 1.433 . S
C1485 N1487 1.384 . S
N1486 C1482 1.427 . S
N1486 C1483 1.384 . S
N1487 C1479 1.427 . S
N1487 C1485 1.384 . S
H1488 C1494 0.930 . S
H1489 C1498 0.930 . S
H1490 C1503 0.929 . S
H1491 C1501 0.929 . S
H1492 C1496 0.929 . S
H1493 C1502 0.929 . S
C1494 H1488 0.930 . S
C1494 C1495 1.367 . S
C1494 C1502 1.378 . S
C1495 C1494 1.367 . S
C1495 C1503 1.433 . S
C1496 H1492 0.929 . S
C1496 C1498 1.378 . S
C1496 C1500 1.350 . S
C1497 C1500 1.463 . S
C1497 C1502 1.350 . S
C1497 N1505 1.427 . S
C1498 H1489 0.930 . S
C1498 C1496 1.378 . S
C1498 C1499 1.367 . S
C1499 C1498 1.367 . S
C1499 C1501 1.433 . S
C1500 C1496 1.350 . S
C1500 C1497 1.463 . S
C1500 N1504 1.427 . S
C1501 H1491 0.929 . S
C1501 C1499 1.433 . S
C1501 N1504 1.384 . S
C1502 H1493 0.929 . S
C1502 C1494 1.378 . S
C1502 C1497 1.350 . S
C1503 H1490 0.929 . S
C1503 C1495 1.433 . S
C1503 N1505 1.384 . S
N1504 C1500 1.427 . S
N1504 C1501 1.384 . S
N1505 C1497 1.427 . S
N1505 C1503 1.384 . S
H1506 C1512 0.930 . S
H1507 C1516 0.930 . S
H1508 C1521 0.929 . S
H1509 C1519 0.929 . S
H1510 C1514 0.929 . S
H1511 C1520 0.929 . S
C1512 H1506 0.930 . S
C1512 C1513 1.367 . S
C1512 C1520 1.378 . S
C1513 C1512 1.367 . S
C1513 C1521 1.433 . S
C1514 H1510 0.929 . S
C1514 C1516 1.378 . S
C1514 C1518 1.350 . S
C1515 C1518 1.463 . S
C1515 C1520 1.350 . S
C1515 N1523 1.427 . S
C1516 H1507 0.930 . S
C1516 C1514 1.378 . S
C1516 C1517 1.367 . S
C1517 C1516 1.367 . S
C1517 C1519 1.433 . S
C1518 C1514 1.350 . S
C1518 C1515 1.463 . S
C1518 N1522 1.427 . S
C1519 H1509 0.929 . S
C1519 C1517 1.433 . S
C1519 N1522 1.384 . S
C1520 H1511 0.929 . S
C1520 C1512 1.378 . S
C1520 C1515 1.350 . S
C1521 H1508 0.929 . S
C1521 C1513 1.433 . S
C1521 N1523 1.384 . S
N1522 C1518 1.427 . S
N1522 C1519 1.384 . S
N1523 C1515 1.427 . S
N1523 C1521 1.384 . S
H1524 C1530 0.930 . S
H1525 C1534 0.930 . S
H1526 C1539 0.929 . S
H1527 C1537 0.929 . S
H1528 C1532 0.929 . S
H1529 C1538 0.929 . S
C1530 H1524 0.930 . S
C1530 C1531 1.367 . S
C1530 C1538 1.378 . S
C1531 C1530 1.367 . S
C1531 C1539 1.433 . S
C1532 H1528 0.929 . S
C1532 C1534 1.378 . S
C1532 C1536 1.350 . S
C1533 C1536 1.463 . S
C1533 C1538 1.350 . S
C1533 N1541 1.427 . S
C1534 H1525 0.930 . S
C1534 C1532 1.378 . S
C1534 C1535 1.367 . S
C1535 C1534 1.367 . S
C1535 C1537 1.433 . S
C1536 C1532 1.350 . S
C1536 C1533 1.463 . S
C1536 N1540 1.427 . S
C1537 H1527 0.929 . S
C1537 C1535 1.433 . S
C1537 N1540 1.384 . S
C1538 H1529 0.929 . S
C1538 C1530 1.378 . S
C1538 C1533 1.350 . S
C1539 H1526 0.929 . S
C1539 C1531 1.433 . S
C1539 N1541 1.384 . S
N1540 C1536 1.427 . S
N1540 C1537 1.384 . S
N1541 C1533 1.427 . S
N1541 C1539 1.384 . S
H1542 C1548 0.930 . S
H1543 C1552 0.930 . S
H1544 C1557 0.929 . S
H1545 C1555 0.929 . S
H1546 C1550 0.929 . S
H1547 C1556 0.929 . S
C1548 H1542 0.930 . S
C1548 C1549 1.367 . S
C1548 C1556 1.378 . S
C1549 C1548 1.367 . S
C1549 C1557 1.433 . S
C1550 H1546 0.929 . S
C1550 C1552 1.378 . S
C1550 C1554 1.350 . S
C1551 C1554 1.463 . S
C1551 C1556 1.350 . S
C1551 N1559 1.427 . S
C1552 H1543 0.930 . S
C1552 C1550 1.378 . S
C1552 C1553 1.367 . S
C1553 C1552 1.367 . S
C1553 C1555 1.433 . S
C1554 C1550 1.350 . S
C1554 C1551 1.463 . S
C1554 N1558 1.427 . S
C1555 H1545 0.929 . S
C1555 C1553 1.433 . S
C1555 N1558 1.384 . S
C1556 H1547 0.929 . S
C1556 C1548 1.378 . S
C1556 C1551 1.350 . S
C1557 H1544 0.929 . S
C1557 C1549 1.433 . S
C1557 N1559 1.384 . S
N1558 C1554 1.427 . S
N1558 C1555 1.384 . S
N1559 C1551 1.427 . S
N1559 C1557 1.384 . S
H1560 C1566 0.930 . S
H1561 C1570 0.930 . S
H1562 C1575 0.929 . S
H1563 C1573 0.929 . S
H1564 C1568 0.929 . S
H1565 C1574 0.929 . S
C1566 H1560 0.930 . S
C1566 C1567 1.367 . S
C1566 C1574 1.378 . S
C1567 C1566 1.367 . S
C1567 C1575 1.433 . S
C1568 H1564 0.929 . S
C1568 C1570 1.378 . S
C1568 C1572 1.350 . S
C1569 C1572 1.463 . S
C1569 C1574 1.350 . S
C1569 N1577 1.427 . S
C1570 H1561 0.930 . S
C1570 C1568 1.378 . S
C1570 C1571 1.367 . S
C1571 C1570 1.367 . S
C1571 C1573 1.433 . S
C1572 C1568 1.350 . S
C1572 C1569 1.463 . S
C1572 N1576 1.427 . S
C1573 H1563 0.929 . S
C1573 C1571 1.433 . S
C1573 N1576 1.384 . S
C1574 H1565 0.929 . S
C1574 C1566 1.378 . S
C1574 C1569 1.350 . S
C1575 H1562 0.929 . S
C1575 C1567 1.433 . S
C1575 N1577 1.384 . S
N1576 C1572 1.427 . S
N1576 C1573 1.384 . S
N1577 C1569 1.427 . S
N1577 C1575 1.384 . S
H1578 C1584 0.930 . S
H1579 C1588 0.930 . S
H1580 C1593 0.929 . S
H1581 C1591 0.929 . S
H1582 C1586 0.929 . S
H1583 C1592 0.929 . S
C1584 H1578 0.930 . S
C1584 C1585 1.367 . S
C1584 C1592 1.378 . S
C1585 C1584 1.367 . S
C1585 C1593 1.433 . S
C1586 H1582 0.929 . S
C1586 C1588 1.378 . S
C1586 C1590 1.350 . S
C1587 C1590 1.463 . S
C1587 C1592 1.350 . S
C1587 N1595 1.427 . S
C1588 H1579 0.930 . S
C1588 C1586 1.378 . S
C1588 C1589 1.367 . S
C1589 C1588 1.367 . S
C1589 C1591 1.433 . S
C1590 C1586 1.350 . S
C1590 C1587 1.463 . S
C1590 N1594 1.427 . S
C1591 H1581 0.929 . S
C1591 C1589 1.433 . S
C1591 N1594 1.384 . S
C1592 H1583 0.929 . S
C1592 C1584 1.378 . S
C1592 C1587 1.350 . S
C1593 H1580 0.929 . S
C1593 C1585 1.433 . S
C1593 N1595 1.384 . S
N1594 C1590 1.427 . S
N1594 C1591 1.384 . S
N1595 C1587 1.427 . S
N1595 C1593 1.384 . S
H1596 C1602 0.930 . S
H1597 C1606 0.930 . S
H1598 C1611 0.929 . S
H1599 C1609 0.929 . S
H1600 C1604 0.929 . S
H1601 C1610 0.929 . S
C1602 H1596 0.930 . S
C1602 C1603 1.367 . S
C1602 C1610 1.378 . S
C1603 C1602 1.367 . S
C1603 C1611 1.433 . S
C1604 H1600 0.929 . S
C1604 C1606 1.378 . S
C1604 C1608 1.350 . S
C1605 C1608 1.463 . S
C1605 C1610 1.350 . S
C1605 N1613 1.427 . S
C1606 H1597 0.930 . S
C1606 C1604 1.378 . S
C1606 C1607 1.367 . S
C1607 C1606 1.367 . S
C1607 C1609 1.433 . S
C1608 C1604 1.350 . S
C1608 C1605 1.463 . S
C1608 N1612 1.427 . S
C1609 H1599 0.929 . S
C1609 C1607 1.433 . S
C1609 N1612 1.384 . S
C1610 H1601 0.929 . S
C1610 C1602 1.378 . S
C1610 C1605 1.350 . S
C1611 H1598 0.929 . S
C1611 C1603 1.433 . S
C1611 N1613 1.384 . S
N1612 C1608 1.427 . S
N1612 C1609 1.384 . S
N1613 C1605 1.427 . S
N1613 C1611 1.384 . S
H1614 C1620 0.930 . S
H1615 C1624 0.930 . S
H1616 C1629 0.929 . S
H1617 C1627 0.929 . S
H1618 C1622 0.929 . S
H1619 C1628 0.929 . S
C1620 H1614 0.930 . S
C1620 C1621 1.367 . S
C1620 C1628 1.378 . S
C1621 C1620 1.367 . S
C1621 C1629 1.433 . S
C1622 H1618 0.929 . S
C1622 C1624 1.378 . S
C1622 C1626 1.350 . S
C1623 C1626 1.463 . S
C1623 C1628 1.350 . S
C1623 N1631 1.427 . S
C1624 H1615 0.930 . S
C1624 C1622 1.378 . S
C1624 C1625 1.367 . S
C1625 C1624 1.367 . S
C1625 C1627 1.433 . S
C1626 C1622 1.350 . S
C1626 C1623 1.463 . S
C1626 N1630 1.427 . S
C1627 H1617 0.929 . S
C1627 C1625 1.433 . S
C1627 N1630 1.384 . S
C1628 H1619 0.929 . S
C1628 C1620 1.378 . S
C1628 C1623 1.350 . S
C1629 H1616 0.929 . S
C1629 C1621 1.433 . S
C1629 N1631 1.384 . S
N1630 C1626 1.427 . S
N1630 C1627 1.384 . S
N1631 C1623 1.427 . S
N1631 C1629 1.384 . S
H1632 C1638 0.930 . S
H1633 C1642 0.930 . S
H1634 C1647 0.929 . S
H1635 C1645 0.929 . S
H1636 C1640 0.929 . S
H1637 C1646 0.929 . S
C1638 H1632 0.930 . S
C1638 C1639 1.367 . S
C1638 C1646 1.378 . S
C1639 C1638 1.367 . S
C1639 C1647 1.433 . S
C1640 H1636 0.929 . S
C1640 C1642 1.378 . S
C1640 C1644 1.350 . S
C1641 C1644 1.463 . S
C1641 C1646 1.350 . S
C1641 N1649 1.427 . S
C1642 H1633 0.930 . S
C1642 C1640 1.378 . S
C1642 C1643 1.367 . S
C1643 C1642 1.367 . S
C1643 C1645 1.433 . S
C1644 C1640 1.350 . S
C1644 C1641 1.463 . S
C1644 N1648 1.427 . S
C1645 H1635 0.929 . S
C1645 C1643 1.433 . S
C1645 N1648 1.384 . S
C1646 H1637 0.929 . S
C1646 C1638 1.378 . S
C1646 C1641 1.350 . S
C1647 H1634 0.929 . S
C1647 C1639 1.433 . S
C1647 N1649 1.384 . S
N1648 C1644 1.427 . S
N1648 C1645 1.384 . S
N1649 C1641 1.427 . S
N1649 C1647 1.384 . S
H1650 C1656 0.930 . S
H1651 C1660 0.930 . S
H1652 C1665 0.929 . S
H1653 C1663 0.929 . S
H1654 C1658 0.929 . S
H1655 C1664 0.929 . S
C1656 H1650 0.930 . S
C1656 C1657 1.367 . S
C1656 C1664 1.378 . S
C1657 C1656 1.367 . S
C1657 C1665 1.433 . S
C1658 H1654 0.929 . S
C1658 C1660 1.378 . S
C1658 C1662 1.350 . S
C1659 C1662 1.463 . S
C1659 C1664 1.350 . S
C1659 N1667 1.427 . S
C1660 H1651 0.930 . S
C1660 C1658 1.378 . S
C1660 C1661 1.367 . S
C1661 C1660 1.367 . S
C1661 C1663 1.433 . S
C1662 C1658 1.350 . S
C1662 C1659 1.463 . S
C1662 N1666 1.427 . S
C1663 H1653 0.929 . S
C1663 C1661 1.433 . S
C1663 N1666 1.384 . S
C1664 H1655 0.929 . S
C1664 C1656 1.378 . S
C1664 C1659 1.350 . S
C1665 H1652 0.929 . S
C1665 C1657 1.433 . S
C1665 N1667 1.384 . S
N1666 C1662 1.427 . S
N1666 C1663 1.384 . S
N1667 C1659 1.427 . S
N1667 C1665 1.384 . S
H1668 C1674 0.930 . S
H1669 C1678 0.930 . S
H1670 C1683 0.929 . S
H1671 C1681 0.929 . S
H1672 C1676 0.929 . S
H1673 C1682 0.929 . S
C1674 H1668 0.930 . S
C1674 C1675 1.367 . S
C1674 C1682 1.378 . S
C1675 C1674 1.367 . S
C1675 C1683 1.433 . S
C1676 H1672 0.929 . S
C1676 C1678 1.378 . S
C1676 C1680 1.350 . S
C1677 C1680 1.463 . S
C1677 C1682 1.350 . S
C1677 N1685 1.427 . S
C1678 H1669 0.930 . S
C1678 C1676 1.378 . S
C1678 C1679 1.367 . S
C1679 C1678 1.367 . S
C1679 C1681 1.433 . S
C1680 C1676 1.350 . S
C1680 C1677 1.463 . S
C1680 N1684 1.427 . S
C1681 H1671 0.929 . S
C1681 C1679 1.433 . S
C1681 N1684 1.384 . S
C1682 H1673 0.929 . S
C1682 C1674 1.378 . S
C1682 C1677 1.350 . S
C1683 H1670 0.929 . S
C1683 C1675 1.433 . S
C1683 N1685 1.384 . S
N1684 C1680 1.427 . S
N1684 C1681 1.384 . S
N1685 C1677 1.427 . S
N1685 C1683 1.384 . S
H1686 C1692 0.930 . S
H1687 C1696 0.930 . S
H1688 C1701 0.929 . S
H1689 C1699 0.929 . S
H1690 C1694 0.929 . S
H1691 C1700 0.929 . S
C1692 H1686 0.930 . S
C1692 C1693 1.367 . S
C1692 C1700 1.378 . S
C1693 C1692 1.367 . S
C1693 C1701 1.433 . S
C1694 H1690 0.929 . S
C1694 C1696 1.378 . S
C1694 C1698 1.350 . S
C1695 C1698 1.463 . S
C1695 C1700 1.350 . S
C1695 N1703 1.427 . S
C1696 H1687 0.930 . S
C1696 C1694 1.378 . S
C1696 C1697 1.367 . S
C1697 C1696 1.367 . S
C1697 C1699 1.433 . S
C1698 C1694 1.350 . S
C1698 C1695 1.463 . S
C1698 N1702 1.427 . S
C1699 H1689 0.929 . S
C1699 C1697 1.433 . S
C1699 N1702 1.384 . S
C1700 H1691 0.929 . S
C1700 C1692 1.378 . S
C1700 C1695 1.350 . S
C1701 H1688 0.929 . S
C1701 C1693 1.433 . S
C1701 N1703 1.384 . S
N1702 C1698 1.427 . S
N1702 C1699 1.384 . S
N1703 C1695 1.427 . S
N1703 C1701 1.384 . S
H1704 C1710 0.930 . S
H1705 C1714 0.930 . S
H1706 C1719 0.929 . S
H1707 C1717 0.929 . S
H1708 C1712 0.929 . S
H1709 C1718 0.929 . S
C1710 H1704 0.930 . S
C1710 C1711 1.367 . S
C1710 C1718 1.378 . S
C1711 C1710 1.367 . S
C1711 C1719 1.433 . S
C1712 H1708 0.929 . S
C1712 C1714 1.378 . S
C1712 C1716 1.350 . S
C1713 C1716 1.463 . S
C1713 C1718 1.350 . S
C1713 N1721 1.427 . S
C1714 H1705 0.930 . S
C1714 C1712 1.378 . S
C1714 C1715 1.367 . S
C1715 C1714 1.367 . S
C1715 C1717 1.433 . S
C1716 C1712 1.350 . S
C1716 C1713 1.463 . S
C1716 N1720 1.427 . S
C1717 H1707 0.929 . S
C1717 C1715 1.433 . S
C1717 N1720 1.384 . S
C1718 H1709 0.929 . S
C1718 C1710 1.378 . S
C1718 C1713 1.350 . S
C1719 H1706 0.929 . S
C1719 C1711 1.433 . S
C1719 N1721 1.384 . S
N1720 C1716 1.427 . S
N1720 C1717 1.384 . S
N1721 C1713 1.427 . S
N1721 C1719 1.384 . S
H1722 C1728 0.930 . S
H1723 C1732 0.930 . S
H1724 C1737 0.929 . S
H1725 C1735 0.929 . S
H1726 C1730 0.929 . S
H1727 C1736 0.929 . S
C1728 H1722 0.930 . S
C1728 C1729 1.367 . S
C1728 C1736 1.378 . S
C1729 C1728 1.367 . S
C1729 C1737 1.433 . S
C1730 H1726 0.929 . S
C1730 C1732 1.378 . S
C1730 C1734 1.350 . S
C1731 C1734 1.463 . S
C1731 C1736 1.350 . S
C1731 N1739 1.427 . S
C1732 H1723 0.930 . S
C1732 C1730 1.378 . S
C1732 C1733 1.367 . S
C1733 C1732 1.367 . S
C1733 C1735 1.433 . S
C1734 C1730 1.350 . S
C1734 C1731 1.463 . S
C1734 N1738 1.427 . S
C1735 H1725 0.929 . S
C1735 C1733 1.433 . S
C1735 N1738 1.384 . S
C1736 H1727 0.929 . S
C1736 C1728 1.378 . S
C1736 C1731 1.350 . S
C1737 H1724 0.929 . S
C1737 C1729 1.433 . S
C1737 N1739 1.384 . S
N1738 C1734 1.427 . S
N1738 C1735 1.384 . S
N1739 C1731 1.427 . S
N1739 C1737 1.384 . S
H1740 C1746 0.930 . S
H1741 C1750 0.930 . S
H1742 C1755 0.929 . S
H1743 C1753 0.929 . S
H1744 C1748 0.929 . S
H1745 C1754 0.929 . S
C1746 H1740 0.930 . S
C1746 C1747 1.367 . S
C1746 C1754 1.378 . S
C1747 C1746 1.367 . S
C1747 C1755 1.433 . S
C1748 H1744 0.929 . S
C1748 C1750 1.378 . S
C1748 C1752 1.350 . S
C1749 C1752 1.463 . S
C1749 C1754 1.350 . S
C1749 N1757 1.427 . S
C1750 H1741 0.930 . S
C1750 C1748 1.378 . S
C1750 C1751 1.367 . S
C1751 C1750 1.367 . S
C1751 C1753 1.433 . S
C1752 C1748 1.350 . S
C1752 C1749 1.463 . S
C1752 N1756 1.427 . S
C1753 H1743 0.929 . S
C1753 C1751 1.433 . S
C1753 N1756 1.384 . S
C1754 H1745 0.929 . S
C1754 C1746 1.378 . S
C1754 C1749 1.350 . S
C1755 H1742 0.929 . S
C1755 C1747 1.433 . S
C1755 N1757 1.384 . S
N1756 C1752 1.427 . S
N1756 C1753 1.384 . S
N1757 C1749 1.427 . S
N1757 C1755 1.384 . S
H1758 C1764 0.930 . S
H1759 C1768 0.930 . S
H1760 C1773 0.929 . S
H1761 C1771 0.929 . S
H1762 C1766 0.929 . S
H1763 C1772 0.929 . S
C1764 H1758 0.930 . S
C1764 C1765 1.367 . S
C1764 C1772 1.378 . S
C1765 C1764 1.367 . S
C1765 C1773 1.433 . S
C1766 H1762 0.929 . S
C1766 C1768 1.378 . S
C1766 C1770 1.350 . S
C1767 C1770 1.463 . S
C1767 C1772 1.350 . S
C1767 N1775 1.427 . S
C1768 H1759 0.930 . S
C1768 C1766 1.378 . S
C1768 C1769 1.367 . S
C1769 C1768 1.367 . S
C1769 C1771 1.433 . S
C1770 C1766 1.350 . S
C1770 C1767 1.463 . S
C1770 N1774 1.427 . S
C1771 H1761 0.929 . S
C1771 C1769 1.433 . S
C1771 N1774 1.384 . S
C1772 H1763 0.929 . S
C1772 C1764 1.378 . S
C1772 C1767 1.350 . S
C1773 H1760 0.929 . S
C1773 C1765 1.433 . S
C1773 N1775 1.384 . S
N1774 C1770 1.427 . S
N1774 C1771 1.384 . S
N1775 C1767 1.427 . S
N1775 C1773 1.384 . S
H1776 C1782 0.930 . S
H1777 C1786 0.930 . S
H1778 C1791 0.929 . S
H1779 C1789 0.929 . S
H1780 C1784 0.929 . S
H1781 C1790 0.929 . S
C1782 H1776 0.930 . S
C1782 C1783 1.367 . S
C1782 C1790 1.378 . S
C1783 C1782 1.367 . S
C1783 C1791 1.433 . S
C1784 H1780 0.929 . S
C1784 C1786 1.378 . S
C1784 C1788 1.350 . S
C1785 C1788 1.463 . S
C1785 C1790 1.350 . S
C1785 N1793 1.427 . S
C1786 H1777 0.930 . S
C1786 C1784 1.378 . S
C1786 C1787 1.367 . S
C1787 C1786 1.367 . S
C1787 C1789 1.433 . S
C1788 C1784 1.350 . S
C1788 C1785 1.463 . S
C1788 N1792 1.427 . S
C1789 H1779 0.929 . S
C1789 C1787 1.433 . S
C1789 N1792 1.384 . S
C1790 H1781 0.929 . S
C1790 C1782 1.378 . S
C1790 C1785 1.350 . S
C1791 H1778 0.929 . S
C1791 C1783 1.433 . S
C1791 N1793 1.384 . S
N1792 C1788 1.427 . S
N1792 C1789 1.384 . S
N1793 C1785 1.427 . S
N1793 C1791 1.384 . S
H1794 C1800 0.930 . S
H1795 C1804 0.930 . S
H1796 C1809 0.929 . S
H1797 C1807 0.929 . S
H1798 C1802 0.929 . S
H1799 C1808 0.929 . S
C1800 H1794 0.930 . S
C1800 C1801 1.367 . S
C1800 C1808 1.378 . S
C1801 C1800 1.367 . S
C1801 C1809 1.433 . S
C1802 H1798 0.929 . S
C1802 C1804 1.378 . S
C1802 C1806 1.350 . S
C1803 C1806 1.463 . S
C1803 C1808 1.350 . S
C1803 N1811 1.427 . S
C1804 H1795 0.930 . S
C1804 C1802 1.378 . S
C1804 C1805 1.367 . S
C1805 C1804 1.367 . S
C1805 C1807 1.433 . S
C1806 C1802 1.350 . S
C1806 C1803 1.463 . S
C1806 N1810 1.427 . S
C1807 H1797 0.929 . S
C1807 C1805 1.433 . S
C1807 N1810 1.384 . S
C1808 H1799 0.929 . S
C1808 C1800 1.378 . S
C1808 C1803 1.350 . S
C1809 H1796 0.929 . S
C1809 C1801 1.433 . S
C1809 N1811 1.384 . S
N1810 C1806 1.427 . S
N1810 C1807 1.384 . S
N1811 C1803 1.427 . S
N1811 C1809 1.384 . S
H1812 C1818 0.930 . S
H1813 C1822 0.930 . S
H1814 C1827 0.929 . S
H1815 C1825 0.929 . S
H1816 C1820 0.929 . S
H1817 C1826 0.929 . S
C1818 H1812 0.930 . S
C1818 C1819 1.367 . S
C1818 C1826 1.378 . S
C1819 C1818 1.367 . S
C1819 C1827 1.433 . S
C1820 H1816 0.929 . S
C1820 C1822 1.378 . S
C1820 C1824 1.350 . S
C1821 C1824 1.463 . S
C1821 C1826 1.350 . S
C1821 N1829 1.427 . S
C1822 H1813 0.930 . S
C1822 C1820 1.378 . S
C1822 C1823 1.367 . S
C1823 C1822 1.367 . S
C1823 C1825 1.433 . S
C1824 C1820 1.350 . S
C1824 C1821 1.463 . S
C1824 N1828 1.427 . S
C1825 H1815 0.929 . S
C1825 C1823 1.433 . S
C1825 N1828 1.384 . S
C1826 H1817 0.929 . S
C1826 C1818 1.378 . S
C1826 C1821 1.350 . S
C1827 H1814 0.929 . S
C1827 C1819 1.433 . S
C1827 N1829 1.384 . S
N1828 C1824 1.427 . S
N1828 C1825 1.384 . S
N1829 C1821 1.427 . S
N1829 C1827 1.384 . S
H1830 C1836 0.930 . S
H1831 C1840 0.930 . S
H1832 C1845 0.929 . S
H1833 C1843 0.929 . S
H1834 C1838 0.929 . S
H1835 C1844 0.929 . S
C1836 H1830 0.930 . S
C1836 C1837 1.367 . S
C1836 C1844 1.378 . S
C1837 C1836 1.367 . S
C1837 C1845 1.433 . S
C1838 H1834 0.929 . S
C1838 C1840 1.378 . S
C1838 C1842 1.350 . S
C1839 C1842 1.463 . S
C1839 C1844 1.350 . S
C1839 N1847 1.427 . S
C1840 H1831 0.930 . S
C1840 C1838 1.378 . S
C1840 C1841 1.367 . S
C1841 C1840 1.367 . S
C1841 C1843 1.433 . S
C1842 C1838 1.350 . S
C1842 C1839 1.463 . S
C1842 N1846 1.427 . S
C1843 H1833 0.929 . S
C1843 C1841 1.433 . S
C1843 N1846 1.384 . S
C1844 H1835 0.929 . S
C1844 C1836 1.378 . S
C1844 C1839 1.350 . S
C1845 H1832 0.929 . S
C1845 C1837 1.433 . S
C1845 N1847 1.384 . S
N1846 C1842 1.427 . S
N1846 C1843 1.384 . S
N1847 C1839 1.427 . S
N1847 C1845 1.384 . S
H1848 C1854 0.930 . S
H1849 C1858 0.930 . S
H1850 C1863 0.929 . S
H1851 C1861 0.929 . S
H1852 C1856 0.929 . S
H1853 C1862 0.929 . S
C1854 H1848 0.930 . S
C1854 C1855 1.367 . S
C1854 C1862 1.378 . S
C1855 C1854 1.367 . S
C1855 C1863 1.433 . S
C1856 H1852 0.929 . S
C1856 C1858 1.378 . S
C1856 C1860 1.350 . S
C1857 C1860 1.463 . S
C1857 C1862 1.350 . S
C1857 N1865 1.427 . S
C1858 H1849 0.930 . S
C1858 C1856 1.378 . S
C1858 C1859 1.367 . S
C1859 C1858 1.367 . S
C1859 C1861 1.433 . S
C1860 C1856 1.350 . S
C1860 C1857 1.463 . S
C1860 N1864 1.427 . S
C1861 H1851 0.929 . S
C1861 C1859 1.433 . S
C1861 N1864 1.384 . S
C1862 H1853 0.929 . S
C1862 C1854 1.378 . S
C1862 C1857 1.350 . S
C1863 H1850 0.929 . S
C1863 C1855 1.433 . S
C1863 N1865 1.384 . S
N1864 C1860 1.427 . S
N1864 C1861 1.384 . S
N1865 C1857 1.427 . S
N1865 C1863 1.384 . S
H1866 C1872 0.930 . S
H1867 C1876 0.930 . S
H1868 C1881 0.929 . S
H1869 C1879 0.929 . S
H1870 C1874 0.929 . S
H1871 C1880 0.929 . S
C1872 H1866 0.930 . S
C1872 C1873 1.367 . S
C1872 C1880 1.378 . S
C1873 C1872 1.367 . S
C1873 C1881 1.433 . S
C1874 H1870 0.929 . S
C1874 C1876 1.378 . S
C1874 C1878 1.350 . S
C1875 C1878 1.463 . S
C1875 C1880 1.350 . S
C1875 N1883 1.427 . S
C1876 H1867 0.930 . S
C1876 C1874 1.378 . S
C1876 C1877 1.367 . S
C1877 C1876 1.367 . S
C1877 C1879 1.433 . S
C1878 C1874 1.350 . S
C1878 C1875 1.463 . S
C1878 N1882 1.427 . S
C1879 H1869 0.929 . S
C1879 C1877 1.433 . S
C1879 N1882 1.384 . S
C1880 H1871 0.929 . S
C1880 C1872 1.378 . S
C1880 C1875 1.350 . S
C1881 H1868 0.929 . S
C1881 C1873 1.433 . S
C1881 N1883 1.384 . S
N1882 C1878 1.427 . S
N1882 C1879 1.384 . S
N1883 C1875 1.427 . S
N1883 C1881 1.384 . S
H1884 C1890 0.930 . S
H1885 C1894 0.930 . S
H1886 C1899 0.929 . S
H1887 C1897 0.929 . S
H1888 C1892 0.929 . S
H1889 C1898 0.929 . S
C1890 H1884 0.930 . S
C1890 C1891 1.367 . S
C1890 C1898 1.378 . S
C1891 C1890 1.367 . S
C1891 C1899 1.433 . S
C1892 H1888 0.929 . S
C1892 C1894 1.378 . S
C1892 C1896 1.350 . S
C1893 C1896 1.463 . S
C1893 C1898 1.350 . S
C1893 N1901 1.427 . S
C1894 H1885 0.930 . S
C1894 C1892 1.378 . S
C1894 C1895 1.367 . S
C1895 C1894 1.367 . S
C1895 C1897 1.433 . S
C1896 C1892 1.350 . S
C1896 C1893 1.463 . S
C1896 N1900 1.427 . S
C1897 H1887 0.929 . S
C1897 C1895 1.433 . S
C1897 N1900 1.384 . S
C1898 H1889 0.929 . S
C1898 C1890 1.378 . S
C1898 C1893 1.350 . S
C1899 H1886 0.929 . S
C1899 C1891 1.433 . S
C1899 N1901 1.384 . S
N1900 C1896 1.427 . S
N1900 C1897 1.384 . S
N1901 C1893 1.427 . S
N1901 C1899 1.384 . S
H1902 C1908 0.930 . S
H1903 C1912 0.930 . S
H1904 C1917 0.929 . S
H1905 C1915 0.929 . S
H1906 C1910 0.929 . S
H1907 C1916 0.929 . S
C1908 H1902 0.930 . S
C1908 C1909 1.367 . S
C1908 C1916 1.378 . S
C1909 C1908 1.367 . S
C1909 C1917 1.433 . S
C1910 H1906 0.929 . S
C1910 C1912 1.378 . S
C1910 C1914 1.350 . S
C1911 C1914 1.463 . S
C1911 C1916 1.350 . S
C1911 N1919 1.427 . S
C1912 H1903 0.930 . S
C1912 C1910 1.378 . S
C1912 C1913 1.367 . S
C1913 C1912 1.367 . S
C1913 C1915 1.433 . S
C1914 C1910 1.350 . S
C1914 C1911 1.463 . S
C1914 N1918 1.427 . S
C1915 H1905 0.929 . S
C1915 C1913 1.433 . S
C1915 N1918 1.384 . S
C1916 H1907 0.929 . S
C1916 C1908 1.378 . S
C1916 C1911 1.350 . S
C1917 H1904 0.929 . S
C1917 C1909 1.433 . S
C1917 N1919 1.384 . S
N1918 C1914 1.427 . S
N1918 C1915 1.384 . S
N1919 C1911 1.427 . S
N1919 C1917 1.384 . S
H1920 C1926 0.930 . S
H1921 C1930 0.930 . S
H1922 C1935 0.929 . S
H1923 C1933 0.929 . S
H1924 C1928 0.929 . S
H1925 C1934 0.929 . S
C1926 H1920 0.930 . S
C1926 C1927 1.367 . S
C1926 C1934 1.378 . S
C1927 C1926 1.367 . S
C1927 C1935 1.433 . S
C1928 H1924 0.929 . S
C1928 C1930 1.378 . S
C1928 C1932 1.350 . S
C1929 C1932 1.463 . S
C1929 C1934 1.350 . S
C1929 N1937 1.427 . S
C1930 H1921 0.930 . S
C1930 C1928 1.378 . S
C1930 C1931 1.367 . S
C1931 C1930 1.367 . S
C1931 C1933 1.433 . S
C1932 C1928 1.350 . S
C1932 C1929 1.463 . S
C1932 N1936 1.427 . S
C1933 H1923 0.929 . S
C1933 C1931 1.433 . S
C1933 N1936 1.384 . S
C1934 H1925 0.929 . S
C1934 C1926 1.378 . S
C1934 C1929 1.350 . S
C1935 H1922 0.929 . S
C1935 C1927 1.433 . S
C1935 N1937 1.384 . S
N1936 C1932 1.427 . S
N1936 C1933 1.384 . S
N1937 C1929 1.427 . S
N1937 C1935 1.384 . S
H1938 C1944 0.930 . S
H1939 C1948 0.930 . S
H1940 C1953 0.929 . S
H1941 C1951 0.929 . S
H1942 C1946 0.929 . S
H1943 C1952 0.929 . S
C1944 H1938 0.930 . S
C1944 C1945 1.367 . S
C1944 C1952 1.378 . S
C1945 C1944 1.367 . S
C1945 C1953 1.433 . S
C1946 H1942 0.929 . S
C1946 C1948 1.378 . S
C1946 C1950 1.350 . S
C1947 C1950 1.463 . S
C1947 C1952 1.350 . S
C1947 N1955 1.427 . S
C1948 H1939 0.930 . S
C1948 C1946 1.378 . S
C1948 C1949 1.367 . S
C1949 C1948 1.367 . S
C1949 C1951 1.433 . S
C1950 C1946 1.350 . S
C1950 C1947 1.463 . S
C1950 N1954 1.427 . S
C1951 H1941 0.929 . S
C1951 C1949 1.433 . S
C1951 N1954 1.384 . S
C1952 H1943 0.929 . S
C1952 C1944 1.378 . S
C1952 C1947 1.350 . S
C1953 H1940 0.929 . S
C1953 C1945 1.433 . S
C1953 N1955 1.384 . S
N1954 C1950 1.427 . S
N1954 C1951 1.384 . S
N1955 C1947 1.427 . S
N1955 C1953 1.384 . S
H1956 C1962 0.930 . S
H1957 C1966 0.930 . S
H1958 C1971 0.929 . S
H1959 C1969 0.929 . S
H1960 C1964 0.929 . S
H1961 C1970 0.929 . S
C1962 H1956 0.930 . S
C1962 C1963 1.367 . S
C1962 C1970 1.378 . S
C1963 C1962 1.367 . S
C1963 C1971 1.433 . S
C1964 H1960 0.929 . S
C1964 C1966 1.378 . S
C1964 C1968 1.350 . S
C1965 C1968 1.463 . S
C1965 C1970 1.350 . S
C1965 N1973 1.427 . S
C1966 H1957 0.930 . S
C1966 C1964 1.378 . S
C1966 C1967 1.367 . S
C1967 C1966 1.367 . S
C1967 C1969 1.433 . S
C1968 C1964 1.350 . S
C1968 C1965 1.463 . S
C1968 N1972 1.427 . S
C1969 H1959 0.929 . S
C1969 C1967 1.433 . S
C1969 N1972 1.384 . S
C1970 H1961 0.929 . S
C1970 C1962 1.378 . S
C1970 C1965 1.350 . S
C1971 H1958 0.929 . S
C1971 C1963 1.433 . S
C1971 N1973 1.384 . S
N1972 C1968 1.427 . S
N1972 C1969 1.384 . S
N1973 C1965 1.427 . S
N1973 C1971 1.384 . S
H1974 C1980 0.930 . S
H1975 C1984 0.930 . S
H1976 C1989 0.929 . S
H1977 C1987 0.929 . S
H1978 C1982 0.929 . S
H1979 C1988 0.929 . S
C1980 H1974 0.930 . S
C1980 C1981 1.367 . S
C1980 C1988 1.378 . S
C1981 C1980 1.367 . S
C1981 C1989 1.433 . S
C1982 H1978 0.929 . S
C1982 C1984 1.378 . S
C1982 C1986 1.350 . S
C1983 C1986 1.463 . S
C1983 C1988 1.350 . S
C1983 N1991 1.427 . S
C1984 H1975 0.930 . S
C1984 C1982 1.378 . S
C1984 C1985 1.367 . S
C1985 C1984 1.367 . S
C1985 C1987 1.433 . S
C1986 C1982 1.350 . S
C1986 C1983 1.463 . S
C1986 N1990 1.427 . S
C1987 H1977 0.929 . S
C1987 C1985 1.433 . S
C1987 N1990 1.384 . S
C1988 H1979 0.929 . S
C1988 C1980 1.378 . S
C1988 C1983 1.350 . S
C1989 H1976 0.929 . S
C1989 C1981 1.433 . S
C1989 N1991 1.384 . S
N1990 C1986 1.427 . S
N1990 C1987 1.384 . S
N1991 C1983 1.427 . S
N1991 C1989 1.384 . S
H1992 C1998 0.930 . S
H1993 C2002 0.930 . S
H1994 C2007 0.929 . S
H1995 C2005 0.929 . S
H1996 C2000 0.929 . S
H1997 C2006 0.929 . S
C1998 H1992 0.930 . S
C1998 C1999 1.367 . S
C1998 C2006 1.378 . S
C1999 C1998 1.367 . S
C1999 C2007 1.433 . S
C2000 H1996 0.929 . S
C2000 C2002 1.378 . S
C2000 C2004 1.350 . S
C2001 C2004 1.463 . S
C2001 C2006 1.350 . S
C2001 N2009 1.427 . S
C2002 H1993 0.930 . S
C2002 C2000 1.378 . S
C2002 C2003 1.367 . S
C2003 C2002 1.367 . S
C2003 C2005 1.433 . S
C2004 C2000 1.350 . S
C2004 C2001 1.463 . S
C2004 N2008 1.427 . S
C2005 H1995 0.929 . S
C2005 C2003 1.433 . S
C2005 N2008 1.384 . S
C2006 H1997 0.929 . S
C2006 C1998 1.378 . S
C2006 C2001 1.350 . S
C2007 H1994 0.929 . S
C2007 C1999 1.433 . S
C2007 N2009 1.384 . S
N2008 C2004 1.427 . S
N2008 C2005 1.384 . S
N2009 C2001 1.427 . S
N2009 C2007 1.384 . S
H2010 C2016 0.930 . S
H2011 C2020 0.930 . S
H2012 C2025 0.929 . S
H2013 C2023 0.929 . S
H2014 C2018 0.929 . S
H2015 C2024 0.929 . S
C2016 H2010 0.930 . S
C2016 C2017 1.367 . S
C2016 C2024 1.378 . S
C2017 C2016 1.367 . S
C2017 C2025 1.433 . S
C2018 H2014 0.929 . S
C2018 C2020 1.378 . S
C2018 C2022 1.350 . S
C2019 C2022 1.463 . S
C2019 C2024 1.350 . S
C2019 N2027 1.427 . S
C2020 H2011 0.930 . S
C2020 C2018 1.378 . S
C2020 C2021 1.367 . S
C2021 C2020 1.367 . S
C2021 C2023 1.433 . S
C2022 C2018 1.350 . S
C2022 C2019 1.463 . S
C2022 N2026 1.427 . S
C2023 H2013 0.929 . S
C2023 C2021 1.433 . S
C2023 N2026 1.384 . S
C2024 H2015 0.929 . S
C2024 C2016 1.378 . S
C2024 C2019 1.350 . S
C2025 H2012 0.929 . S
C2025 C2017 1.433 . S
C2025 N2027 1.384 . S
N2026 C2022 1.427 . S
N2026 C2023 1.384 . S
N2027 C2019 1.427 . S
N2027 C2025 1.384 . S
H2028 C2034 0.930 . S
H2029 C2038 0.930 . S
H2030 C2043 0.929 . S
H2031 C2041 0.929 . S
H2032 C2036 0.929 . S
H2033 C2042 0.929 . S
C2034 H2028 0.930 . S
C2034 C2035 1.367 . S
C2034 C2042 1.378 . S
C2035 C2034 1.367 . S
C2035 C2043 1.433 . S
C2036 H2032 0.929 . S
C2036 C2038 1.378 . S
C2036 C2040 1.350 . S
C2037 C2040 1.463 . S
C2037 C2042 1.350 . S
C2037 N2045 1.427 . S
C2038 H2029 0.930 . S
C2038 C2036 1.378 . S
C2038 C2039 1.367 . S
C2039 C2038 1.367 . S
C2039 C2041 1.433 . S
C2040 C2036 1.350 . S
C2040 C2037 1.463 . S
C2040 N2044 1.427 . S
C2041 H2031 0.929 . S
C2041 C2039 1.433 . S
C2041 N2044 1.384 . S
C2042 H2033 0.929 . S
C2042 C2034 1.378 . S
C2042 C2037 1.350 . S
C2043 H2030 0.929 . S
C2043 C2035 1.433 . S
C2043 N2045 1.384 . S
N2044 C2040 1.427 . S
N2044 C2041 1.384 . S
N2045 C2037 1.427 . S
N2045 C2043 1.384 . S
H2046 C2052 0.930 . S
H2047 C2056 0.930 . S
H2048 C2061 0.929 . S
H2049 C2059 0.929 . S
H2050 C2054 0.929 . S
H2051 C2060 0.929 . S
C2052 H2046 0.930 . S
C2052 C2053 1.367 . S
C2052 C2060 1.378 . S
C2053 C2052 1.367 . S
C2053 C2061 1.433 . S
C2054 H2050 0.929 . S
C2054 C2056 1.378 . S
C2054 C2058 1.350 . S
C2055 C2058 1.463 . S
C2055 C2060 1.350 . S
C2055 N2063 1.427 . S
C2056 H2047 0.930 . S
C2056 C2054 1.378 . S
C2056 C2057 1.367 . S
C2057 C2056 1.367 . S
C2057 C2059 1.433 . S
C2058 C2054 1.350 . S
C2058 C2055 1.463 . S
C2058 N2062 1.427 . S
C2059 H2049 0.929 . S
C2059 C2057 1.433 . S
C2059 N2062 1.384 . S
C2060 H2051 0.929 . S
C2060 C2052 1.378 . S
C2060 C2055 1.350 . S
C2061 H2048 0.929 . S
C2061 C2053 1.433 . S
C2061 N2063 1.384 . S
N2062 C2058 1.427 . S
N2062 C2059 1.384 . S
N2063 C2055 1.427 . S
N2063 C2061 1.384 . S
H2064 C2070 0.930 . S
H2065 C2074 0.930 . S
H2066 C2079 0.929 . S
H2067 C2077 0.929 . S
H2068 C2072 0.929 . S
H2069 C2078 0.929 . S
C2070 H2064 0.930 . S
C2070 C2071 1.367 . S
C2070 C2078 1.378 . S
C2071 C2070 1.367 . S
C2071 C2079 1.433 . S
C2072 H2068 0.929 . S
C2072 C2074 1.378 . S
C2072 C2076 1.350 . S
C2073 C2076 1.463 . S
C2073 C2078 1.350 . S
C2073 N2081 1.427 . S
C2074 H2065 0.930 . S
C2074 C2072 1.378 . S
C2074 C2075 1.367 . S
C2075 C2074 1.367 . S
C2075 C2077 1.433 . S
C2076 C2072 1.350 . S
C2076 C2073 1.463 . S
C2076 N2080 1.427 . S
C2077 H2067 0.929 . S
C2077 C2075 1.433 . S
C2077 N2080 1.384 . S
C2078 H2069 0.929 . S
C2078 C2070 1.378 . S
C2078 C2073 1.350 . S
C2079 H2066 0.929 . S
C2079 C2071 1.433 . S
C2079 N2081 1.384 . S
N2080 C2076 1.427 . S
N2080 C2077 1.384 . S
N2081 C2073 1.427 . S
N2081 C2079 1.384 . S
H2082 C2088 0.930 . S
H2083 C2092 0.930 . S
H2084 C2097 0.929 . S
H2085 C2095 0.929 . S
H2086 C2090 0.929 . S
H2087 C2096 0.929 . S
C2088 H2082 0.930 . S
C2088 C2089 1.367 . S
C2088 C2096 1.378 . S
C2089 C2088 1.367 . S
C2089 C2097 1.433 . S
C2090 H2086 0.929 . S
C2090 C2092 1.378 . S
C2090 C2094 1.350 . S
C2091 C2094 1.463 . S
C2091 C2096 1.350 . S
C2091 N2099 1.427 . S
C2092 H2083 0.930 . S
C2092 C2090 1.378 . S
C2092 C2093 1.367 . S
C2093 C2092 1.367 . S
C2093 C2095 1.433 . S
C2094 C2090 1.350 . S
C2094 C2091 1.463 . S
C2094 N2098 1.427 . S
C2095 H2085 0.929 . S
C2095 C2093 1.433 . S
C2095 N2098 1.384 . S
C2096 H2087 0.929 . S
C2096 C2088 1.378 . S
C2096 C2091 1.350 . S
C2097 H2084 0.929 . S
C2097 C2089 1.433 . S
C2097 N2099 1.384 . S
N2098 C2094 1.427 . S
N2098 C2095 1.384 . S
N2099 C2091 1.427 . S
N2099 C2097 1.384 . S
H2100 C2106 0.930 . S
H2101 C2110 0.930 . S
H2102 C2115 0.929 . S
H2103 C2113 0.929 . S
H2104 C2108 0.929 . S
H2105 C2114 0.929 . S
C2106 H2100 0.930 . S
C2106 C2107 1.367 . S
C2106 C2114 1.378 . S
C2107 C2106 1.367 . S
C2107 C2115 1.433 . S
C2108 H2104 0.929 . S
C2108 C2110 1.378 . S
C2108 C2112 1.350 . S
C2109 C2112 1.463 . S
C2109 C2114 1.350 . S
C2109 N2117 1.427 . S
C2110 H2101 0.930 . S
C2110 C2108 1.378 . S
C2110 C2111 1.367 . S
C2111 C2110 1.367 . S
C2111 C2113 1.433 . S
C2112 C2108 1.350 . S
C2112 C2109 1.463 . S
C2112 N2116 1.427 . S
C2113 H2103 0.929 . S
C2113 C2111 1.433 . S
C2113 N2116 1.384 . S
C2114 H2105 0.929 . S
C2114 C2106 1.378 . S
C2114 C2109 1.350 . S
C2115 H2102 0.929 . S
C2115 C2107 1.433 . S
C2115 N2117 1.384 . S
N2116 C2112 1.427 . S
N2116 C2113 1.384 . S
N2117 C2109 1.427 . S
N2117 C2115 1.384 . S
H2118 C2124 0.930 . S
H2119 C2128 0.930 . S
H2120 C2133 0.929 . S
H2121 C2131 0.929 . S
H2122 C2126 0.929 . S
H2123 C2132 0.929 . S
C2124 H2118 0.930 . S
C2124 C2125 1.367 . S
C2124 C2132 1.378 . S
C2125 C2124 1.367 . S
C2125 C2133 1.433 . S
C2126 H2122 0.929 . S
C2126 C2128 1.378 . S
C2126 C2130 1.350 . S
C2127 C2130 1.463 . S
C2127 C2132 1.350 . S
C2127 N2135 1.427 . S
C2128 H2119 0.930 . S
C2128 C2126 1.378 . S
C2128 C2129 1.367 . S
C2129 C2128 1.367 . S
C2129 C2131 1.433 . S
C2130 C2126 1.350 . S
C2130 C2127 1.463 . S
C2130 N2134 1.427 . S
C2131 H2121 0.929 . S
C2131 C2129 1.433 . S
C2131 N2134 1.384 . S
C2132 H2123 0.929 . S
C2132 C2124 1.378 . S
C2132 C2127 1.350 . S
C2133 H2120 0.929 . S
C2133 C2125 1.433 . S
C2133 N2135 1.384 . S
N2134 C2130 1.427 . S
N2134 C2131 1.384 . S
N2135 C2127 1.427 . S
N2135 C2133 1.384 . S
H2136 C2142 0.930 . S
H2137 C2146 0.930 . S
H2138 C2151 0.929 . S
H2139 C2149 0.929 . S
H2140 C2144 0.929 . S
H2141 C2150 0.929 . S
C2142 H2136 0.930 . S
C2142 C2143 1.367 . S
C2142 C2150 1.378 . S
C2143 C2142 1.367 . S
C2143 C2151 1.433 . S
C2144 H2140 0.929 . S
C2144 C2146 1.378 . S
C2144 C2148 1.350 . S
C2145 C2148 1.463 . S
C2145 C2150 1.350 . S
C2145 N2153 1.427 . S
C2146 H2137 0.930 . S
C2146 C2144 1.378 . S
C2146 C2147 1.367 . S
C2147 C2146 1.367 . S
C2147 C2149 1.433 . S
C2148 C2144 1.350 . S
C2148 C2145 1.463 . S
C2148 N2152 1.427 . S
C2149 H2139 0.929 . S
C2149 C2147 1.433 . S
C2149 N2152 1.384 . S
C2150 H2141 0.929 . S
C2150 C2142 1.378 . S
C2150 C2145 1.350 . S
C2151 H2138 0.929 . S
C2151 C2143 1.433 . S
C2151 N2153 1.384 . S
N2152 C2148 1.427 . S
N2152 C2149 1.384 . S
N2153 C2145 1.427 . S
N2153 C2151 1.384 . S
H2154 C2160 0.930 . S
H2155 C2164 0.930 . S
H2156 C2169 0.929 . S
H2157 C2167 0.929 . S
H2158 C2162 0.929 . S
H2159 C2168 0.929 . S
C2160 H2154 0.930 . S
C2160 C2161 1.367 . S
C2160 C2168 1.378 . S
C2161 C2160 1.367 . S
C2161 C2169 1.433 . S
C2162 H2158 0.929 . S
C2162 C2164 1.378 . S
C2162 C2166 1.350 . S
C2163 C2166 1.463 . S
C2163 C2168 1.350 . S
C2163 N2171 1.427 . S
C2164 H2155 0.930 . S
C2164 C2162 1.378 . S
C2164 C2165 1.367 . S
C2165 C2164 1.367 . S
C2165 C2167 1.433 . S
C2166 C2162 1.350 . S
C2166 C2163 1.463 . S
C2166 N2170 1.427 . S
C2167 H2157 0.929 . S
C2167 C2165 1.433 . S
C2167 N2170 1.384 . S
C2168 H2159 0.929 . S
C2168 C2160 1.378 . S
C2168 C2163 1.350 . S
C2169 H2156 0.929 . S
C2169 C2161 1.433 . S
C2169 N2171 1.384 . S
N2170 C2166 1.427 . S
N2170 C2167 1.384 . S
N2171 C2163 1.427 . S
N2171 C2169 1.384 . S
H2172 C2178 0.930 . S
H2173 C2182 0.930 . S
H2174 C2187 0.929 . S
H2175 C2185 0.929 . S
H2176 C2180 0.929 . S
H2177 C2186 0.929 . S
C2178 H2172 0.930 . S
C2178 C2179 1.367 . S
C2178 C2186 1.378 . S
C2179 C2178 1.367 . S
C2179 C2187 1.433 . S
C2180 H2176 0.929 . S
C2180 C2182 1.378 . S
C2180 C2184 1.350 . S
C2181 C2184 1.463 . S
C2181 C2186 1.350 . S
C2181 N2189 1.427 . S
C2182 H2173 0.930 . S
C2182 C2180 1.378 . S
C2182 C2183 1.367 . S
C2183 C2182 1.367 . S
C2183 C2185 1.433 . S
C2184 C2180 1.350 . S
C2184 C2181 1.463 . S
C2184 N2188 1.427 . S
C2185 H2175 0.929 . S
C2185 C2183 1.433 . S
C2185 N2188 1.384 . S
C2186 H2177 0.929 . S
C2186 C2178 1.378 . S
C2186 C2181 1.350 . S
C2187 H2174 0.929 . S
C2187 C2179 1.433 . S
C2187 N2189 1.384 . S
N2188 C2184 1.427 . S
N2188 C2185 1.384 . S
N2189 C2181 1.427 . S
N2189 C2187 1.384 . S
H2190 C2196 0.930 . S
H2191 C2200 0.930 . S
H2192 C2205 0.929 . S
H2193 C2203 0.929 . S
H2194 C2198 0.929 . S
H2195 C2204 0.929 . S
C2196 H2190 0.930 . S
C2196 C2197 1.367 . S
C2196 C2204 1.378 . S
C2197 C2196 1.367 . S
C2197 C2205 1.433 . S
C2198 H2194 0.929 . S
C2198 C2200 1.378 . S
C2198 C2202 1.350 . S
C2199 C2202 1.463 . S
C2199 C2204 1.350 . S
C2199 N2207 1.427 . S
C2200 H2191 0.930 . S
C2200 C2198 1.378 . S
C2200 C2201 1.367 . S
C2201 C2200 1.367 . S
C2201 C2203 1.433 . S
C2202 C2198 1.350 . S
C2202 C2199 1.463 . S
C2202 N2206 1.427 . S
C2203 H2193 0.929 . S
C2203 C2201 1.433 . S
C2203 N2206 1.384 . S
C2204 H2195 0.929 . S
C2204 C2196 1.378 . S
C2204 C2199 1.350 . S
C2205 H2192 0.929 . S
C2205 C2197 1.433 . S
C2205 N2207 1.384 . S
N2206 C2202 1.427 . S
N2206 C2203 1.384 . S
N2207 C2199 1.427 . S
N2207 C2205 1.384 . S
H2208 C2214 0.930 . S
H2209 C2218 0.930 . S
H2210 C2223 0.929 . S
H2211 C2221 0.929 . S
H2212 C2216 0.929 . S
H2213 C2222 0.929 . S
C2214 H2208 0.930 . S
C2214 C2215 1.367 . S
C2214 C2222 1.378 . S
C2215 C2214 1.367 . S
C2215 C2223 1.433 . S
C2216 H2212 0.929 . S
C2216 C2218 1.378 . S
C2216 C2220 1.350 . S
C2217 C2220 1.463 . S
C2217 C2222 1.350 . S
C2217 N2225 1.427 . S
C2218 H2209 0.930 . S
C2218 C2216 1.378 . S
C2218 C2219 1.367 . S
C2219 C2218 1.367 . S
C2219 C2221 1.433 . S
C2220 C2216 1.350 . S
C2220 C2217 1.463 . S
C2220 N2224 1.427 . S
C2221 H2211 0.929 . S
C2221 C2219 1.433 . S
C2221 N2224 1.384 . S
C2222 H2213 0.929 . S
C2222 C2214 1.378 . S
C2222 C2217 1.350 . S
C2223 H2210 0.929 . S
C2223 C2215 1.433 . S
C2223 N2225 1.384 . S
N2224 C2220 1.427 . S
N2224 C2221 1.384 . S
N2225 C2217 1.427 . S
N2225 C2223 1.384 . S
H2226 C2232 0.930 . S
H2227 C2236 0.930 . S
H2228 C2241 0.929 . S
H2229 C2239 0.929 . S
H2230 C2234 0.929 . S
H2231 C2240 0.929 . S
C2232 H2226 0.930 . S
C2232 C2233 1.367 . S
C2232 C2240 1.378 . S
C2233 C2232 1.367 . S
C2233 C2241 1.433 . S
C2234 H2230 0.929 . S
C2234 C2236 1.378 . S
C2234 C2238 1.350 . S
C2235 C2238 1.463 . S
C2235 C2240 1.350 . S
C2235 N2243 1.427 . S
C2236 H2227 0.930 . S
C2236 C2234 1.378 . S
C2236 C2237 1.367 . S
C2237 C2236 1.367 . S
C2237 C2239 1.433 . S
C2238 C2234 1.350 . S
C2238 C2235 1.463 . S
C2238 N2242 1.427 . S
C2239 H2229 0.929 . S
C2239 C2237 1.433 . S
C2239 N2242 1.384 . S
C2240 H2231 0.929 . S
C2240 C2232 1.378 . S
C2240 C2235 1.350 . S
C2241 H2228 0.929 . S
C2241 C2233 1.433 . S
C2241 N2243 1.384 . S
N2242 C2238 1.427 . S
N2242 C2239 1.384 . S
N2243 C2235 1.427 . S
N2243 C2241 1.384 . S
H2244 C2250 0.930 . S
H2245 C2254 0.930 . S
H2246 C2259 0.929 . S
H2247 C2257 0.929 . S
H2248 C2252 0.929 . S
H2249 C2258 0.929 . S
C2250 H2244 0.930 . S
C2250 C2251 1.367 . S
C2250 C2258 1.378 . S
C2251 C2250 1.367 . S
C2251 C2259 1.433 . S
C2252 H2248 0.929 . S
C2252 C2254 1.378 . S
C2252 C2256 1.350 . S
C2253 C2256 1.463 . S
C2253 C2258 1.350 . S
C2253 N2261 1.427 . S
C2254 H2245 0.930 . S
C2254 C2252 1.378 . S
C2254 C2255 1.367 . S
C2255 C2254 1.367 . S
C2255 C2257 1.433 . S
C2256 C2252 1.350 . S
C2256 C2253 1.463 . S
C2256 N2260 1.427 . S
C2257 H2247 0.929 . S
C2257 C2255 1.433 . S
C2257 N2260 1.384 . S
C2258 H2249 0.929 . S
C2258 C2250 1.378 . S
C2258 C2253 1.350 . S
C2259 H2246 0.929 . S
C2259 C2251 1.433 . S
C2259 N2261 1.384 . S
N2260 C2256 1.427 . S
N2260 C2257 1.384 . S
N2261 C2253 1.427 . S
N2261 C2259 1.384 . S
H2262 C2268 0.920 1_556 S
H2263 C2272 0.930 . S
H2264 C2277 0.929 . S
H2265 C2275 0.929 . S
H2266 C2270 0.929 . S
H2267 C2276 0.929 . S
C2268 H2262 0.920 1_554 S
C2268 C2269 1.367 . S
C2268 C2276 1.378 . S
C2269 C2268 1.367 . S
C2269 C2277 1.433 . S
C2270 H2266 0.929 . S
C2270 C2272 1.378 . S
C2270 C2274 1.350 . S
C2271 C2274 1.463 . S
C2271 C2276 1.350 . S
C2271 N2279 1.427 . S
C2272 H2263 0.930 . S
C2272 C2270 1.378 . S
C2272 C2273 1.367 . S
C2273 C2272 1.367 . S
C2273 C2275 1.433 . S
C2274 C2270 1.350 . S
C2274 C2271 1.463 . S
C2274 N2278 1.427 . S
C2275 H2265 0.929 . S
C2275 C2273 1.433 . S
C2275 N2278 1.384 . S
C2276 H2267 0.929 . S
C2276 C2268 1.378 . S
C2276 C2271 1.350 . S
C2277 H2264 0.929 . S
C2277 C2269 1.433 . S
C2277 N2279 1.384 . S
N2278 C2274 1.427 . S
N2278 C2275 1.384 . S
N2279 C2271 1.427 . S
N2279 C2277 1.384 . S
H2280 C2286 0.930 . S
H2281 C2290 0.930 . S
H2282 C2295 0.929 . S
H2283 C2293 0.929 . S
H2284 C2288 0.929 . S
H2285 C2294 0.929 . S
C2286 H2280 0.930 . S
C2286 C2287 1.367 . S
C2286 C2294 1.378 . S
C2287 C2286 1.367 . S
C2287 C2295 1.433 . S
C2288 H2284 0.929 . S
C2288 C2290 1.378 . S
C2288 C2292 1.350 . S
C2289 C2292 1.463 . S
C2289 C2294 1.350 . S
C2289 N2297 1.427 . S
C2290 H2281 0.930 . S
C2290 C2288 1.378 . S
C2290 C2291 1.367 . S
C2291 C2290 1.367 . S
C2291 C2293 1.433 . S
C2292 C2288 1.350 . S
C2292 C2289 1.463 . S
C2292 N2296 1.427 . S
C2293 H2283 0.929 . S
C2293 C2291 1.433 . S
C2293 N2296 1.384 . S
C2294 H2285 0.929 . S
C2294 C2286 1.378 . S
C2294 C2289 1.350 . S
C2295 H2282 0.929 . S
C2295 C2287 1.433 . S
C2295 N2297 1.384 . S
N2296 C2292 1.427 . S
N2296 C2293 1.384 . S
N2297 C2289 1.427 . S
N2297 C2295 1.384 . S
H2298 C2304 0.930 . S
H2299 C2308 0.930 . S
H2300 C2313 0.929 . S
H2301 C2311 0.929 . S
H2302 C2306 0.929 . S
H2303 C2312 0.929 . S
C2304 H2298 0.930 . S
C2304 C2305 1.367 . S
C2304 C2312 1.378 . S
C2305 C2304 1.367 . S
C2305 C2313 1.433 . S
C2306 H2302 0.929 . S
C2306 C2308 1.378 . S
C2306 C2310 1.350 . S
C2307 C2310 1.463 . S
C2307 C2312 1.350 . S
C2307 N2315 1.427 . S
C2308 H2299 0.930 . S
C2308 C2306 1.378 . S
C2308 C2309 1.367 . S
C2309 C2308 1.367 . S
C2309 C2311 1.433 . S
C2310 C2306 1.350 . S
C2310 C2307 1.463 . S
C2310 N2314 1.427 . S
C2311 H2301 0.929 . S
C2311 C2309 1.433 . S
C2311 N2314 1.384 . S
C2312 H2303 0.929 . S
C2312 C2304 1.378 . S
C2312 C2307 1.350 . S
C2313 H2300 0.929 . S
C2313 C2305 1.433 . S
C2313 N2315 1.384 . S
N2314 C2310 1.427 . S
N2314 C2311 1.384 . S
N2315 C2307 1.427 . S
N2315 C2313 1.384 . S
H2316 C2322 0.930 . S
H2317 C2326 0.930 . S
H2318 C2331 0.929 . S
H2319 C2329 0.929 . S
H2320 C2324 0.929 . S
H2321 C2330 0.929 . S
C2322 H2316 0.930 . S
C2322 C2323 1.367 . S
C2322 C2330 1.378 . S
C2323 C2322 1.367 . S
C2323 C2331 1.433 . S
C2324 H2320 0.929 . S
C2324 C2326 1.378 . S
C2324 C2328 1.350 . S
C2325 C2328 1.463 . S
C2325 C2330 1.350 . S
C2325 N2333 1.427 . S
C2326 H2317 0.930 . S
C2326 C2324 1.378 . S
C2326 C2327 1.367 . S
C2327 C2326 1.367 . S
C2327 C2329 1.433 . S
C2328 C2324 1.350 . S
C2328 C2325 1.463 . S
C2328 N2332 1.427 . S
C2329 H2319 0.929 . S
C2329 C2327 1.433 . S
C2329 N2332 1.384 . S
C2330 H2321 0.929 . S
C2330 C2322 1.378 . S
C2330 C2325 1.350 . S
C2331 H2318 0.929 . S
C2331 C2323 1.433 . S
C2331 N2333 1.384 . S
N2332 C2328 1.427 . S
N2332 C2329 1.384 . S
N2333 C2325 1.427 . S
N2333 C2331 1.384 . S
H2334 C2340 0.930 . S
H2335 C2344 0.930 . S
H2336 C2349 0.929 . S
H2337 C2347 0.929 1_554 S
H2338 C2342 0.929 . S
H2339 C2348 0.929 . S
C2340 H2334 0.930 . S
C2340 C2341 1.367 . S
C2340 C2348 1.378 . S
C2341 C2340 1.367 . S
C2341 C2349 1.433 . S
C2342 H2338 0.929 . S
C2342 C2344 1.378 . S
C2342 C2346 1.350 . S
C2343 C2346 1.463 . S
C2343 C2348 1.350 . S
C2343 N2351 1.427 . S
C2344 H2335 0.930 . S
C2344 C2342 1.378 . S
C2344 C2345 1.367 . S
C2345 C2344 1.367 . S
C2345 C2347 1.433 . S
C2346 C2342 1.350 . S
C2346 C2343 1.463 . S
C2346 N2350 1.427 . S
C2347 H2337 0.929 1_556 S
C2347 C2345 1.433 . S
C2347 N2350 1.384 . S
C2348 H2339 0.929 . S
C2348 C2340 1.378 . S
C2348 C2343 1.350 . S
C2349 H2336 0.929 . S
C2349 C2341 1.433 . S
C2349 N2351 1.384 . S
N2350 C2346 1.427 . S
N2350 C2347 1.384 . S
N2351 C2343 1.427 . S
N2351 C2349 1.384 . S
H2352 C2358 0.930 . S
H2353 C2362 0.930 . S
H2354 C2367 0.929 . S
H2355 C2365 0.929 . S
H2356 C2360 0.929 . S
H2357 C2366 0.929 . S
C2358 H2352 0.930 . S
C2358 C2359 1.367 . S
C2358 C2366 1.378 . S
C2359 C2358 1.367 . S
C2359 C2367 1.433 . S
C2360 H2356 0.929 . S
C2360 C2362 1.378 . S
C2360 C2364 1.350 . S
C2361 C2364 1.463 . S
C2361 C2366 1.350 . S
C2361 N2369 1.427 . S
C2362 H2353 0.930 . S
C2362 C2360 1.378 . S
C2362 C2363 1.367 . S
C2363 C2362 1.367 . S
C2363 C2365 1.433 . S
C2364 C2360 1.350 . S
C2364 C2361 1.463 . S
C2364 N2368 1.427 . S
C2365 H2355 0.929 . S
C2365 C2363 1.433 . S
C2365 N2368 1.384 . S
C2366 H2357 0.929 . S
C2366 C2358 1.378 . S
C2366 C2361 1.350 . S
C2367 H2354 0.929 . S
C2367 C2359 1.433 . S
C2367 N2369 1.384 . S
N2368 C2364 1.427 . S
N2368 C2365 1.384 . S
N2369 C2361 1.427 . S
N2369 C2367 1.384 . S
H2370 C2376 0.930 1_565 S
H2371 C2380 0.930 . S
H2372 C2385 0.929 . S
H2373 C2383 0.929 . S
H2374 C2378 0.929 . S
H2375 C2384 0.929 . S
C2376 H2370 0.930 1_545 S
C2376 C2377 1.367 . S
C2376 C2384 1.378 . S
C2377 C2376 1.367 . S
C2377 C2385 1.433 . S
C2378 H2374 0.929 . S
C2378 C2380 1.378 . S
C2378 C2382 1.350 . S
C2379 C2382 1.463 . S
C2379 C2384 1.350 . S
C2379 N2387 1.427 . S
C2380 H2371 0.930 . S
C2380 C2378 1.378 . S
C2380 C2381 1.367 . S
C2381 C2380 1.367 . S
C2381 C2383 1.433 . S
C2382 C2378 1.350 . S
C2382 C2379 1.463 . S
C2382 N2386 1.427 . S
C2383 H2373 0.929 . S
C2383 C2381 1.433 . S
C2383 N2386 1.384 . S
C2384 H2375 0.929 . S
C2384 C2376 1.378 . S
C2384 C2379 1.350 . S
C2385 H2372 0.929 . S
C2385 C2377 1.433 . S
C2385 N2387 1.384 . S
N2386 C2382 1.427 . S
N2386 C2383 1.384 . S
N2387 C2379 1.427 . S
N2387 C2385 1.384 . S
H2388 C2394 0.951 . S
H2389 C2398 0.930 . S
H2390 C2403 0.929 . S
H2391 C2401 0.929 . S
H2392 C2396 0.929 . S
H2393 C2402 0.929 . S
C2394 H2388 0.951 . S
C2394 C2395 1.367 . S
C2394 C2402 1.378 . S
C2395 C2394 1.367 . S
C2395 C2403 1.433 . S
C2396 H2392 0.929 . S
C2396 C2398 1.378 . S
C2396 C2400 1.350 . S
C2397 C2400 1.463 . S
C2397 C2402 1.350 . S
C2397 N2405 1.427 . S
C2398 H2389 0.930 . S
C2398 C2396 1.378 . S
C2398 C2399 1.367 . S
C2399 C2398 1.367 . S
C2399 C2401 1.433 . S
C2400 C2396 1.350 . S
C2400 C2397 1.463 . S
C2400 N2404 1.427 . S
C2401 H2391 0.929 . S
C2401 C2399 1.433 . S
C2401 N2404 1.384 . S
C2402 H2393 0.929 . S
C2402 C2394 1.378 . S
C2402 C2397 1.350 . S
C2403 H2390 0.929 . S
C2403 C2395 1.433 . S
C2403 N2405 1.384 . S
N2404 C2400 1.427 . S
N2404 C2401 1.384 . S
N2405 C2397 1.427 . S
N2405 C2403 1.384 . S
H2406 C2412 0.930 . S
H2407 C2416 0.930 . S
H2408 C2421 0.929 . S
H2409 C2419 0.929 . S
H2410 C2414 0.929 . S
H2411 C2420 0.929 . S
C2412 H2406 0.930 . S
C2412 C2413 1.367 . S
C2412 C2420 1.378 . S
C2413 C2412 1.367 . S
C2413 C2421 1.433 . S
C2414 H2410 0.929 . S
C2414 C2416 1.378 . S
C2414 C2418 1.350 . S
C2415 C2418 1.463 . S
C2415 C2420 1.350 . S
C2415 N2423 1.427 . S
C2416 H2407 0.930 . S
C2416 C2414 1.378 . S
C2416 C2417 1.367 . S
C2417 C2416 1.367 . S
C2417 C2419 1.433 . S
C2418 C2414 1.350 . S
C2418 C2415 1.463 . S
C2418 N2422 1.427 . S
C2419 H2409 0.929 . S
C2419 C2417 1.433 . S
C2419 N2422 1.384 . S
C2420 H2411 0.929 . S
C2420 C2412 1.378 . S
C2420 C2415 1.350 . S
C2421 H2408 0.929 . S
C2421 C2413 1.433 . S
C2421 N2423 1.384 . S
N2422 C2418 1.427 . S
N2422 C2419 1.384 . S
N2423 C2415 1.427 . S
N2423 C2421 1.384 . S
H2424 C2430 0.930 . S
H2425 C2434 0.930 . S
H2426 C2439 0.929 . S
H2427 C2437 0.929 . S
H2428 C2432 0.929 . S
H2429 C2438 0.929 . S
C2430 H2424 0.930 . S
C2430 C2431 1.367 . S
C2430 C2438 1.378 . S
C2431 C2430 1.367 . S
C2431 C2439 1.433 . S
C2432 H2428 0.929 . S
C2432 C2434 1.378 . S
C2432 C2436 1.350 . S
C2433 C2436 1.463 . S
C2433 C2438 1.350 . S
C2433 N2441 1.427 . S
C2434 H2425 0.930 . S
C2434 C2432 1.378 . S
C2434 C2435 1.367 . S
C2435 C2434 1.367 . S
C2435 C2437 1.433 . S
C2436 C2432 1.350 . S
C2436 C2433 1.463 . S
C2436 N2440 1.427 . S
C2437 H2427 0.929 . S
C2437 C2435 1.433 . S
C2437 N2440 1.384 . S
C2438 H2429 0.929 . S
C2438 C2430 1.378 . S
C2438 C2433 1.350 . S
C2439 H2426 0.929 . S
C2439 C2431 1.433 . S
C2439 N2441 1.384 . S
N2440 C2436 1.427 . S
N2440 C2437 1.384 . S
N2441 C2433 1.427 . S
N2441 C2439 1.384 . S
H2442 C2448 0.930 . S
H2443 C2452 0.930 . S
H2444 C2457 0.929 1_655 S
H2445 C2455 0.929 . S
H2446 C2450 0.929 . S
H2447 C2456 0.929 . S
C2448 H2442 0.930 . S
C2448 C2449 1.367 . S
C2448 C2456 1.378 . S
C2449 C2448 1.367 . S
C2449 C2457 1.433 . S
C2450 H2446 0.929 . S
C2450 C2452 1.378 . S
C2450 C2454 1.350 . S
C2451 C2454 1.463 . S
C2451 C2456 1.350 . S
C2451 N2459 1.427 . S
C2452 H2443 0.930 . S
C2452 C2450 1.378 . S
C2452 C2453 1.367 . S
C2453 C2452 1.367 . S
C2453 C2455 1.433 . S
C2454 C2450 1.350 . S
C2454 C2451 1.463 . S
C2454 N2458 1.427 . S
C2455 H2445 0.929 . S
C2455 C2453 1.433 . S
C2455 N2458 1.384 . S
C2456 H2447 0.929 . S
C2456 C2448 1.378 . S
C2456 C2451 1.350 . S
C2457 H2444 0.929 1_455 S
C2457 C2449 1.433 . S
C2457 N2459 1.384 . S
N2458 C2454 1.427 . S
N2458 C2455 1.384 . S
N2459 C2451 1.427 . S
N2459 C2457 1.384 . S
H2460 C2466 0.930 . S
H2461 C2470 0.930 . S
H2462 C2475 0.929 . S
H2463 C2473 0.929 . S
H2464 C2468 0.929 . S
H2465 C2474 0.929 . S
C2466 H2460 0.930 . S
C2466 C2467 1.367 . S
C2466 C2474 1.378 . S
C2467 C2466 1.367 . S
C2467 C2475 1.433 . S
C2468 H2464 0.929 . S
C2468 C2470 1.378 . S
C2468 C2472 1.350 . S
C2469 C2472 1.463 . S
C2469 C2474 1.350 . S
C2469 N2477 1.427 . S
C2470 H2461 0.930 . S
C2470 C2468 1.378 . S
C2470 C2471 1.367 . S
C2471 C2470 1.367 . S
C2471 C2473 1.433 . S
C2472 C2468 1.350 . S
C2472 C2469 1.463 . S
C2472 N2476 1.427 . S
C2473 H2463 0.929 . S
C2473 C2471 1.433 . S
C2473 N2476 1.384 . S
C2474 H2465 0.929 . S
C2474 C2466 1.378 . S
C2474 C2469 1.350 . S
C2475 H2462 0.929 . S
C2475 C2467 1.433 . S
C2475 N2477 1.384 . S
N2476 C2472 1.427 . S
N2476 C2473 1.384 . S
N2477 C2469 1.427 . S
N2477 C2475 1.384 . S
H2478 C2484 0.930 . S
H2479 C2488 0.930 . S
H2480 C2493 0.929 . S
H2481 C2491 0.929 . S
H2482 C2486 0.929 . S
H2483 C2492 0.929 . S
C2484 H2478 0.930 . S
C2484 C2485 1.367 . S
C2484 C2492 1.378 . S
C2485 C2484 1.367 . S
C2485 C2493 1.433 . S
C2486 H2482 0.929 . S
C2486 C2488 1.378 . S
C2486 C2490 1.350 . S
C2487 C2490 1.463 . S
C2487 C2492 1.350 . S
C2487 N2495 1.427 . S
C2488 H2479 0.930 . S
C2488 C2486 1.378 . S
C2488 C2489 1.367 . S
C2489 C2488 1.367 . S
C2489 C2491 1.433 . S
C2490 C2486 1.350 . S
C2490 C2487 1.463 . S
C2490 N2494 1.427 . S
C2491 H2481 0.929 . S
C2491 C2489 1.433 . S
C2491 N2494 1.384 . S
C2492 H2483 0.929 . S
C2492 C2484 1.378 . S
C2492 C2487 1.350 . S
C2493 H2480 0.929 . S
C2493 C2485 1.433 . S
C2493 N2495 1.384 . S
N2494 C2490 1.427 . S
N2494 C2491 1.384 . S
N2495 C2487 1.427 . S
N2495 C2493 1.384 . S
H2496 C2502 0.930 . S
H2497 C2506 0.930 . S
H2498 C2511 0.929 . S
H2499 C2509 0.929 . S
H2500 C2504 0.929 . S
H2501 C2510 0.929 . S
C2502 H2496 0.930 . S
C2502 C2503 1.367 . S
C2502 C2510 1.378 . S
C2503 C2502 1.367 . S
C2503 C2511 1.433 . S
C2504 H2500 0.929 . S
C2504 C2506 1.378 . S
C2504 C2508 1.350 . S
C2505 C2508 1.463 . S
C2505 C2510 1.350 . S
C2505 N2513 1.427 . S
C2506 H2497 0.930 . S
C2506 C2504 1.378 . S
C2506 C2507 1.367 . S
C2507 C2506 1.367 . S
C2507 C2509 1.433 . S
C2508 C2504 1.350 . S
C2508 C2505 1.463 . S
C2508 N2512 1.427 . S
C2509 H2499 0.929 . S
C2509 C2507 1.433 . S
C2509 N2512 1.384 . S
C2510 H2501 0.929 . S
C2510 C2502 1.378 . S
C2510 C2505 1.350 . S
C2511 H2498 0.929 . S
C2511 C2503 1.433 . S
C2511 N2513 1.384 . S
N2512 C2508 1.427 . S
N2512 C2509 1.384 . S
N2513 C2505 1.427 . S
N2513 C2511 1.384 . S
H2514 C2520 0.930 . S
H2515 C2524 0.930 . S
H2516 C2529 0.929 . S
H2517 C2527 0.929 . S
H2518 C2522 0.929 . S
H2519 C2528 0.929 . S
C2520 H2514 0.930 . S
C2520 C2521 1.367 . S
C2520 C2528 1.378 . S
C2521 C2520 1.367 . S
C2521 C2529 1.433 . S
C2522 H2518 0.929 . S
C2522 C2524 1.378 . S
C2522 C2526 1.350 . S
C2523 C2526 1.463 . S
C2523 C2528 1.350 . S
C2523 N2531 1.427 . S
C2524 H2515 0.930 . S
C2524 C2522 1.378 . S
C2524 C2525 1.367 . S
C2525 C2524 1.367 . S
C2525 C2527 1.433 . S
C2526 C2522 1.350 . S
C2526 C2523 1.463 . S
C2526 N2530 1.427 . S
C2527 H2517 0.929 . S
C2527 C2525 1.433 . S
C2527 N2530 1.384 . S
C2528 H2519 0.929 . S
C2528 C2520 1.378 . S
C2528 C2523 1.350 . S
C2529 H2516 0.929 . S
C2529 C2521 1.433 . S
C2529 N2531 1.384 . S
N2530 C2526 1.427 . S
N2530 C2527 1.384 . S
N2531 C2523 1.427 . S
N2531 C2529 1.384 . S
H2532 C2538 0.930 . S
H2533 C2542 0.930 . S
H2534 C2547 0.929 . S
H2535 C2545 0.929 . S
H2536 C2540 0.929 . S
H2537 C2546 0.929 . S
C2538 H2532 0.930 . S
C2538 C2539 1.367 . S
C2538 C2546 1.378 . S
C2539 C2538 1.367 . S
C2539 C2547 1.433 . S
C2540 H2536 0.929 . S
C2540 C2542 1.378 . S
C2540 C2544 1.350 . S
C2541 C2544 1.463 . S
C2541 C2546 1.350 . S
C2541 N2549 1.427 . S
C2542 H2533 0.930 . S
C2542 C2540 1.378 . S
C2542 C2543 1.367 . S
C2543 C2542 1.367 . S
C2543 C2545 1.433 . S
C2544 C2540 1.350 . S
C2544 C2541 1.463 . S
C2544 N2548 1.427 . S
C2545 H2535 0.929 . S
C2545 C2543 1.433 . S
C2545 N2548 1.384 . S
C2546 H2537 0.929 . S
C2546 C2538 1.378 . S
C2546 C2541 1.350 . S
C2547 H2534 0.929 . S
C2547 C2539 1.433 . S
C2547 N2549 1.384 . S
N2548 C2544 1.427 . S
N2548 C2545 1.384 . S
N2549 C2541 1.427 . S
N2549 C2547 1.384 . S
H2550 C2556 0.930 . S
H2551 C2560 0.930 . S
H2552 C2565 0.929 . S
H2553 C2563 0.929 . S
H2554 C2558 0.929 . S
H2555 C2564 0.929 . S
C2556 H2550 0.930 . S
C2556 C2557 1.367 . S
C2556 C2564 1.378 . S
C2557 C2556 1.367 . S
C2557 C2565 1.433 . S
C2558 H2554 0.929 . S
C2558 C2560 1.378 . S
C2558 C2562 1.350 . S
C2559 C2562 1.463 . S
C2559 C2564 1.350 . S
C2559 N2567 1.427 . S
C2560 H2551 0.930 . S
C2560 C2558 1.378 . S
C2560 C2561 1.367 . S
C2561 C2560 1.367 . S
C2561 C2563 1.433 . S
C2562 C2558 1.350 . S
C2562 C2559 1.463 . S
C2562 N2566 1.427 . S
C2563 H2553 0.929 . S
C2563 C2561 1.433 . S
C2563 N2566 1.384 . S
C2564 H2555 0.929 . S
C2564 C2556 1.378 . S
C2564 C2559 1.350 . S
C2565 H2552 0.929 . S
C2565 C2557 1.433 . S
C2565 N2567 1.384 . S
N2566 C2562 1.427 . S
N2566 C2563 1.384 . S
N2567 C2559 1.427 . S
N2567 C2565 1.384 . S
H2568 C2574 0.930 . S
H2569 C2578 0.930 . S
H2570 C2583 0.929 . S
H2571 C2581 0.929 . S
H2572 C2576 0.929 . S
H2573 C2582 0.929 . S
C2574 H2568 0.930 . S
C2574 C2575 1.367 . S
C2574 C2582 1.378 . S
C2575 C2574 1.367 . S
C2575 C2583 1.433 . S
C2576 H2572 0.929 . S
C2576 C2578 1.378 . S
C2576 C2580 1.350 . S
C2577 C2580 1.463 . S
C2577 C2582 1.350 . S
C2577 N2585 1.427 . S
C2578 H2569 0.930 . S
C2578 C2576 1.378 . S
C2578 C2579 1.367 . S
C2579 C2578 1.367 . S
C2579 C2581 1.433 . S
C2580 C2576 1.350 . S
C2580 C2577 1.463 . S
C2580 N2584 1.427 . S
C2581 H2571 0.929 . S
C2581 C2579 1.433 . S
C2581 N2584 1.384 . S
C2582 H2573 0.929 . S
C2582 C2574 1.378 . S
C2582 C2577 1.350 . S
C2583 H2570 0.929 . S
C2583 C2575 1.433 . S
C2583 N2585 1.384 . S
N2584 C2580 1.427 . S
N2584 C2581 1.384 . S
N2585 C2577 1.427 . S
N2585 C2583 1.384 . S
H2586 C2592 0.930 . S
H2587 C2596 0.930 1_655 S
H2588 C2601 0.929 . S
H2589 C2599 0.929 . S
H2590 C2594 0.929 . S
H2591 C2600 0.929 . S
C2592 H2586 0.930 . S
C2592 C2593 1.367 . S
C2592 C2600 1.378 . S
C2593 C2592 1.367 . S
C2593 C2601 1.433 . S
C2594 H2590 0.929 . S
C2594 C2596 1.378 . S
C2594 C2598 1.350 . S
C2595 C2598 1.463 . S
C2595 C2600 1.350 . S
C2595 N2603 1.427 . S
C2596 H2587 0.930 1_455 S
C2596 C2594 1.378 . S
C2596 C2597 1.367 . S
C2597 C2596 1.367 . S
C2597 C2599 1.433 . S
C2598 C2594 1.350 . S
C2598 C2595 1.463 . S
C2598 N2602 1.427 . S
C2599 H2589 0.929 . S
C2599 C2597 1.433 . S
C2599 N2602 1.384 . S
C2600 H2591 0.929 . S
C2600 C2592 1.378 . S
C2600 C2595 1.350 . S
C2601 H2588 0.929 . S
C2601 C2593 1.433 . S
C2601 N2603 1.384 . S
N2602 C2598 1.427 . S
N2602 C2599 1.384 . S
N2603 C2595 1.427 . S
N2603 C2601 1.384 . S
H2604 C2610 0.930 . S
H2605 C2614 0.930 . S
H2606 C2619 0.929 . S
H2607 C2617 0.929 . S
H2608 C2612 0.929 . S
H2609 C2618 0.929 . S
C2610 H2604 0.930 . S
C2610 C2611 1.367 . S
C2610 C2618 1.378 . S
C2611 C2610 1.367 . S
C2611 C2619 1.433 . S
C2612 H2608 0.929 . S
C2612 C2614 1.378 . S
C2612 C2616 1.350 . S
C2613 C2616 1.463 . S
C2613 C2618 1.350 . S
C2613 N2621 1.427 . S
C2614 H2605 0.930 . S
C2614 C2612 1.378 . S
C2614 C2615 1.367 . S
C2615 C2614 1.367 . S
C2615 C2617 1.433 . S
C2616 C2612 1.350 . S
C2616 C2613 1.463 . S
C2616 N2620 1.427 . S
C2617 H2607 0.929 . S
C2617 C2615 1.433 . S
C2617 N2620 1.384 . S
C2618 H2609 0.929 . S
C2618 C2610 1.378 . S
C2618 C2613 1.350 . S
C2619 H2606 0.929 . S
C2619 C2611 1.433 . S
C2619 N2621 1.384 . S
N2620 C2616 1.427 . S
N2620 C2617 1.384 . S
N2621 C2613 1.427 . S
N2621 C2619 1.384 . S
H2622 C2628 0.930 . S
H2623 C2632 0.930 . S
H2624 C2637 0.929 . S
H2625 C2635 0.929 . S
H2626 C2630 0.929 . S
H2627 C2636 0.929 . S
C2628 H2622 0.930 . S
C2628 C2629 1.367 . S
C2628 C2636 1.378 . S
C2629 C2628 1.367 . S
C2629 C2637 1.433 . S
C2630 H2626 0.929 . S
C2630 C2632 1.378 . S
C2630 C2634 1.350 . S
C2631 C2634 1.463 . S
C2631 C2636 1.350 . S
C2631 N2639 1.427 . S
C2632 H2623 0.930 . S
C2632 C2630 1.378 . S
C2632 C2633 1.367 . S
C2633 C2632 1.367 . S
C2633 C2635 1.433 . S
C2634 C2630 1.350 . S
C2634 C2631 1.463 . S
C2634 N2638 1.427 . S
C2635 H2625 0.929 . S
C2635 C2633 1.433 . S
C2635 N2638 1.384 . S
C2636 H2627 0.929 . S
C2636 C2628 1.378 . S
C2636 C2631 1.350 . S
C2637 H2624 0.929 . S
C2637 C2629 1.433 . S
C2637 N2639 1.384 . S
N2638 C2634 1.427 . S
N2638 C2635 1.384 . S
N2639 C2631 1.427 . S
N2639 C2637 1.384 . S
H2640 C2646 0.930 . S
H2641 C2650 0.914 1_556 S
H2642 C2655 0.929 . S
H2643 C2653 0.929 . S
H2644 C2648 0.929 . S
H2645 C2654 0.929 . S
C2646 H2640 0.930 . S
C2646 C2647 1.367 . S
C2646 C2654 1.378 . S
C2647 C2646 1.367 . S
C2647 C2655 1.433 . S
C2648 H2644 0.929 . S
C2648 C2650 1.378 . S
C2648 C2652 1.350 . S
C2649 C2652 1.463 . S
C2649 C2654 1.350 . S
C2649 N2657 1.427 . S
C2650 H2641 0.914 1_554 S
C2650 C2648 1.378 . S
C2650 C2651 1.367 . S
C2651 C2650 1.367 . S
C2651 C2653 1.433 . S
C2652 C2648 1.350 . S
C2652 C2649 1.463 . S
C2652 N2656 1.427 . S
C2653 H2643 0.929 . S
C2653 C2651 1.433 . S
C2653 N2656 1.384 . S
C2654 H2645 0.929 . S
C2654 C2646 1.378 . S
C2654 C2649 1.350 . S
C2655 H2642 0.929 . S
C2655 C2647 1.433 . S
C2655 N2657 1.384 . S
N2656 C2652 1.427 . S
N2656 C2653 1.384 . S
N2657 C2649 1.427 . S
N2657 C2655 1.384 . S
H2658 C2664 0.930 . S
H2659 C2668 0.930 . S
H2660 C2673 0.929 . S
H2661 C2671 0.929 . S
H2662 C2666 0.929 . S
H2663 C2672 0.929 . S
C2664 H2658 0.930 . S
C2664 C2665 1.367 . S
C2664 C2672 1.378 . S
C2665 C2664 1.367 . S
C2665 C2673 1.433 . S
C2666 H2662 0.929 . S
C2666 C2668 1.378 . S
C2666 C2670 1.350 . S
C2667 C2670 1.463 . S
C2667 C2672 1.350 . S
C2667 N2675 1.427 . S
C2668 H2659 0.930 . S
C2668 C2666 1.378 . S
C2668 C2669 1.367 . S
C2669 C2668 1.367 . S
C2669 C2671 1.433 . S
C2670 C2666 1.350 . S
C2670 C2667 1.463 . S
C2670 N2674 1.427 . S
C2671 H2661 0.929 . S
C2671 C2669 1.433 . S
C2671 N2674 1.384 . S
C2672 H2663 0.929 . S
C2672 C2664 1.378 . S
C2672 C2667 1.350 . S
C2673 H2660 0.929 . S
C2673 C2665 1.433 . S
C2673 N2675 1.384 . S
N2674 C2670 1.427 . S
N2674 C2671 1.384 . S
N2675 C2667 1.427 . S
N2675 C2673 1.384 . S
H2676 C2682 0.930 . S
H2677 C2686 0.946 . S
H2678 C2691 0.929 . S
H2679 C2689 0.929 . S
H2680 C2684 0.929 . S
H2681 C2690 0.929 . S
C2682 H2676 0.930 . S
C2682 C2683 1.367 . S
C2682 C2690 1.378 . S
C2683 C2682 1.367 . S
C2683 C2691 1.433 . S
C2684 H2680 0.929 . S
C2684 C2686 1.378 . S
C2684 C2688 1.350 . S
C2685 C2688 1.463 . S
C2685 C2690 1.350 . S
C2685 N2693 1.427 . S
C2686 H2677 0.946 . S
C2686 C2684 1.378 . S
C2686 C2687 1.367 . S
C2687 C2686 1.367 . S
C2687 C2689 1.433 . S
C2688 C2684 1.350 . S
C2688 C2685 1.463 . S
C2688 N2692 1.427 . S
C2689 H2679 0.929 . S
C2689 C2687 1.433 . S
C2689 N2692 1.384 . S
C2690 H2681 0.929 . S
C2690 C2682 1.378 . S
C2690 C2685 1.350 . S
C2691 H2678 0.929 . S
C2691 C2683 1.433 . S
C2691 N2693 1.384 . S
N2692 C2688 1.427 . S
N2692 C2689 1.384 . S
N2693 C2685 1.427 . S
N2693 C2691 1.384 . S
H2694 C2700 0.930 . S
H2695 C2704 0.930 1_545 S
H2696 C2709 0.929 . S
H2697 C2707 0.929 . S
H2698 C2702 0.929 . S
H2699 C2708 0.929 . S
C2700 H2694 0.930 . S
C2700 C2701 1.367 . S
C2700 C2708 1.378 . S
C2701 C2700 1.367 . S
C2701 C2709 1.433 . S
C2702 H2698 0.929 . S
C2702 C2704 1.378 . S
C2702 C2706 1.350 . S
C2703 C2706 1.463 . S
C2703 C2708 1.350 . S
C2703 N2711 1.427 . S
C2704 H2695 0.930 1_565 S
C2704 C2702 1.378 . S
C2704 C2705 1.367 . S
C2705 C2704 1.367 . S
C2705 C2707 1.433 . S
C2706 C2702 1.350 . S
C2706 C2703 1.463 . S
C2706 N2710 1.427 . S
C2707 H2697 0.929 . S
C2707 C2705 1.433 . S
C2707 N2710 1.384 . S
C2708 H2699 0.929 . S
C2708 C2700 1.378 . S
C2708 C2703 1.350 . S
C2709 H2696 0.929 . S
C2709 C2701 1.433 . S
C2709 N2711 1.384 . S
N2710 C2706 1.427 . S
N2710 C2707 1.384 . S
N2711 C2703 1.427 . S
N2711 C2709 1.384 . S
H2712 C2718 0.930 . S
H2713 C2722 0.930 . S
H2714 C2727 0.929 . S
H2715 C2725 0.929 . S
H2716 C2720 0.929 . S
H2717 C2726 0.929 . S
C2718 H2712 0.930 . S
C2718 C2719 1.367 . S
C2718 C2726 1.378 . S
C2719 C2718 1.367 . S
C2719 C2727 1.433 . S
C2720 H2716 0.929 . S
C2720 C2722 1.378 . S
C2720 C2724 1.350 . S
C2721 C2724 1.463 . S
C2721 C2726 1.350 . S
C2721 N2729 1.427 . S
C2722 H2713 0.930 . S
C2722 C2720 1.378 . S
C2722 C2723 1.367 . S
C2723 C2722 1.367 . S
C2723 C2725 1.433 . S
C2724 C2720 1.350 . S
C2724 C2721 1.463 . S
C2724 N2728 1.427 . S
C2725 H2715 0.929 . S
C2725 C2723 1.433 . S
C2725 N2728 1.384 . S
C2726 H2717 0.929 . S
C2726 C2718 1.378 . S
C2726 C2721 1.350 . S
C2727 H2714 0.929 . S
C2727 C2719 1.433 . S
C2727 N2729 1.384 . S
N2728 C2724 1.427 . S
N2728 C2725 1.384 . S
N2729 C2721 1.427 . S
N2729 C2727 1.384 . S
H2730 C2736 0.930 . S
H2731 C2740 0.930 . S
H2732 C2745 0.929 . S
H2733 C2743 0.929 . S
H2734 C2738 0.929 . S
H2735 C2744 0.929 . S
C2736 H2730 0.930 . S
C2736 C2737 1.367 . S
C2736 C2744 1.378 . S
C2737 C2736 1.367 . S
C2737 C2745 1.433 . S
C2738 H2734 0.929 . S
C2738 C2740 1.378 . S
C2738 C2742 1.350 . S
C2739 C2742 1.463 . S
C2739 C2744 1.350 . S
C2739 N2747 1.427 . S
C2740 H2731 0.930 . S
C2740 C2738 1.378 . S
C2740 C2741 1.367 . S
C2741 C2740 1.367 . S
C2741 C2743 1.433 . S
C2742 C2738 1.350 . S
C2742 C2739 1.463 . S
C2742 N2746 1.427 . S
C2743 H2733 0.929 . S
C2743 C2741 1.433 . S
C2743 N2746 1.384 . S
C2744 H2735 0.929 . S
C2744 C2736 1.378 . S
C2744 C2739 1.350 . S
C2745 H2732 0.929 . S
C2745 C2737 1.433 . S
C2745 N2747 1.384 . S
N2746 C2742 1.427 . S
N2746 C2743 1.384 . S
N2747 C2739 1.427 . S
N2747 C2745 1.384 . S
H2748 C2754 0.930 . S
H2749 C2758 0.930 . S
H2750 C2763 0.929 . S
H2751 C2761 0.929 . S
H2752 C2756 0.929 . S
H2753 C2762 0.929 . S
C2754 H2748 0.930 . S
C2754 C2755 1.367 . S
C2754 C2762 1.378 . S
C2755 C2754 1.367 . S
C2755 C2763 1.433 . S
C2756 H2752 0.929 . S
C2756 C2758 1.378 . S
C2756 C2760 1.350 . S
C2757 C2760 1.463 . S
C2757 C2762 1.350 . S
C2757 N2765 1.427 . S
C2758 H2749 0.930 . S
C2758 C2756 1.378 . S
C2758 C2759 1.367 . S
C2759 C2758 1.367 . S
C2759 C2761 1.433 . S
C2760 C2756 1.350 . S
C2760 C2757 1.463 . S
C2760 N2764 1.427 . S
C2761 H2751 0.929 . S
C2761 C2759 1.433 . S
C2761 N2764 1.384 . S
C2762 H2753 0.929 . S
C2762 C2754 1.378 . S
C2762 C2757 1.350 . S
C2763 H2750 0.929 . S
C2763 C2755 1.433 . S
C2763 N2765 1.384 . S
N2764 C2760 1.427 . S
N2764 C2761 1.384 . S
N2765 C2757 1.427 . S
N2765 C2763 1.384 . S
H2766 C2772 0.930 . S
H2767 C2776 0.930 . S
H2768 C2781 0.929 . S
H2769 C2779 0.929 . S
H2770 C2774 0.929 . S
H2771 C2780 0.929 . S
C2772 H2766 0.930 . S
C2772 C2773 1.367 . S
C2772 C2780 1.378 . S
C2773 C2772 1.367 . S
C2773 C2781 1.433 . S
C2774 H2770 0.929 . S
C2774 C2776 1.378 . S
C2774 C2778 1.350 . S
C2775 C2778 1.463 . S
C2775 C2780 1.350 . S
C2775 N2783 1.427 . S
C2776 H2767 0.930 . S
C2776 C2774 1.378 . S
C2776 C2777 1.367 . S
C2777 C2776 1.367 . S
C2777 C2779 1.433 . S
C2778 C2774 1.350 . S
C2778 C2775 1.463 . S
C2778 N2782 1.427 . S
C2779 H2769 0.929 . S
C2779 C2777 1.433 . S
C2779 N2782 1.384 . S
C2780 H2771 0.929 . S
C2780 C2772 1.378 . S
C2780 C2775 1.350 . S
C2781 H2768 0.929 . S
C2781 C2773 1.433 . S
C2781 N2783 1.384 . S
N2782 C2778 1.427 . S
N2782 C2779 1.384 . S
N2783 C2775 1.427 . S
N2783 C2781 1.384 . S
H2784 C2790 0.930 . S
H2785 C2794 0.930 . S
H2786 C2799 0.929 . S
H2787 C2797 0.929 1_455 S
H2788 C2792 0.929 . S
H2789 C2798 0.929 . S
C2790 H2784 0.930 . S
C2790 C2791 1.367 . S
C2790 C2798 1.378 . S
C2791 C2790 1.367 . S
C2791 C2799 1.433 . S
C2792 H2788 0.929 . S
C2792 C2794 1.378 . S
C2792 C2796 1.350 . S
C2793 C2796 1.463 . S
C2793 C2798 1.350 . S
C2793 N2801 1.427 . S
C2794 H2785 0.930 . S
C2794 C2792 1.378 . S
C2794 C2795 1.367 . S
C2795 C2794 1.367 . S
C2795 C2797 1.433 . S
C2796 C2792 1.350 . S
C2796 C2793 1.463 . S
C2796 N2800 1.427 . S
C2797 H2787 0.929 1_655 S
C2797 C2795 1.433 . S
C2797 N2800 1.384 . S
C2798 H2789 0.929 . S
C2798 C2790 1.378 . S
C2798 C2793 1.350 . S
C2799 H2786 0.929 . S
C2799 C2791 1.433 . S
C2799 N2801 1.384 . S
N2800 C2796 1.427 . S
N2800 C2797 1.384 . S
N2801 C2793 1.427 . S
N2801 C2799 1.384 . S
H2802 C2808 0.930 . S
H2803 C2812 0.930 . S
H2804 C2817 0.929 . S
H2805 C2815 0.929 . S
H2806 C2810 0.929 . S
H2807 C2816 0.929 . S
C2808 H2802 0.930 . S
C2808 C2809 1.367 . S
C2808 C2816 1.378 . S
C2809 C2808 1.367 . S
C2809 C2817 1.433 . S
C2810 H2806 0.929 . S
C2810 C2812 1.378 . S
C2810 C2814 1.350 . S
C2811 C2814 1.463 . S
C2811 C2816 1.350 . S
C2811 N2819 1.427 . S
C2812 H2803 0.930 . S
C2812 C2810 1.378 . S
C2812 C2813 1.367 . S
C2813 C2812 1.367 . S
C2813 C2815 1.433 . S
C2814 C2810 1.350 . S
C2814 C2811 1.463 . S
C2814 N2818 1.427 . S
C2815 H2805 0.929 . S
C2815 C2813 1.433 . S
C2815 N2818 1.384 . S
C2816 H2807 0.929 . S
C2816 C2808 1.378 . S
C2816 C2811 1.350 . S
C2817 H2804 0.929 . S
C2817 C2809 1.433 . S
C2817 N2819 1.384 . S
N2818 C2814 1.427 . S
N2818 C2815 1.384 . S
N2819 C2811 1.427 . S
N2819 C2817 1.384 . S
H2820 C2826 0.930 . S
H2821 C2830 0.930 . S
H2822 C2835 0.929 . S
H2823 C2833 0.929 . S
H2824 C2828 0.929 . S
H2825 C2834 0.929 . S
C2826 H2820 0.930 . S
C2826 C2827 1.367 . S
C2826 C2834 1.378 . S
C2827 C2826 1.367 . S
C2827 C2835 1.433 . S
C2828 H2824 0.929 . S
C2828 C2830 1.378 . S
C2828 C2832 1.350 . S
C2829 C2832 1.463 . S
C2829 C2834 1.350 . S
C2829 N2837 1.427 . S
C2830 H2821 0.930 . S
C2830 C2828 1.378 . S
C2830 C2831 1.367 . S
C2831 C2830 1.367 . S
C2831 C2833 1.433 . S
C2832 C2828 1.350 . S
C2832 C2829 1.463 . S
C2832 N2836 1.427 . S
C2833 H2823 0.929 . S
C2833 C2831 1.433 . S
C2833 N2836 1.384 . S
C2834 H2825 0.929 . S
C2834 C2826 1.378 . S
C2834 C2829 1.350 . S
C2835 H2822 0.929 . S
C2835 C2827 1.433 . S
C2835 N2837 1.384 . S
N2836 C2832 1.427 . S
N2836 C2833 1.384 . S
N2837 C2829 1.427 . S
N2837 C2835 1.384 . S
H2838 C2844 0.930 . S
H2839 C2848 0.930 . S
H2840 C2853 0.929 1_554 S
H2841 C2851 0.929 . S
H2842 C2846 0.929 . S
H2843 C2852 0.929 . S
C2844 H2838 0.930 . S
C2844 C2845 1.367 . S
C2844 C2852 1.378 . S
C2845 C2844 1.367 . S
C2845 C2853 1.433 . S
C2846 H2842 0.929 . S
C2846 C2848 1.378 . S
C2846 C2850 1.350 . S
C2847 C2850 1.463 . S
C2847 C2852 1.350 . S
C2847 N2855 1.427 . S
C2848 H2839 0.930 . S
C2848 C2846 1.378 . S
C2848 C2849 1.367 . S
C2849 C2848 1.367 . S
C2849 C2851 1.433 . S
C2850 C2846 1.350 . S
C2850 C2847 1.463 . S
C2850 N2854 1.427 . S
C2851 H2841 0.929 . S
C2851 C2849 1.433 . S
C2851 N2854 1.384 . S
C2852 H2843 0.929 . S
C2852 C2844 1.378 . S
C2852 C2847 1.350 . S
C2853 H2840 0.929 1_556 S
C2853 C2845 1.433 . S
C2853 N2855 1.384 . S
N2854 C2850 1.427 . S
N2854 C2851 1.384 . S
N2855 C2847 1.427 . S
N2855 C2853 1.384 . S
H2856 C2862 0.930 . S
H2857 C2866 0.930 . S
H2858 C2871 0.929 . S
H2859 C2869 0.929 . S
H2860 C2864 0.929 . S
H2861 C2870 0.929 . S
C2862 H2856 0.930 . S
C2862 C2863 1.367 . S
C2862 C2870 1.378 . S
C2863 C2862 1.367 . S
C2863 C2871 1.433 . S
C2864 H2860 0.929 . S
C2864 C2866 1.378 . S
C2864 C2868 1.350 . S
C2865 C2868 1.463 . S
C2865 C2870 1.350 . S
C2865 N2873 1.427 . S
C2866 H2857 0.930 . S
C2866 C2864 1.378 . S
C2866 C2867 1.367 . S
C2867 C2866 1.367 . S
C2867 C2869 1.433 . S
C2868 C2864 1.350 . S
C2868 C2865 1.463 . S
C2868 N2872 1.427 . S
C2869 H2859 0.929 . S
C2869 C2867 1.433 . S
C2869 N2872 1.384 . S
C2870 H2861 0.929 . S
C2870 C2862 1.378 . S
C2870 C2865 1.350 . S
C2871 H2858 0.929 . S
C2871 C2863 1.433 . S
C2871 N2873 1.384 . S
N2872 C2868 1.427 . S
N2872 C2869 1.384 . S
N2873 C2865 1.427 . S
N2873 C2871 1.384 . S
H2874 C2880 0.930 . S
H2875 C2884 0.930 . S
H2876 C2889 0.929 . S
H2877 C2887 0.929 . S
H2878 C2882 0.929 . S
H2879 C2888 0.929 . S
C2880 H2874 0.930 . S
C2880 C2881 1.367 . S
C2880 C2888 1.378 . S
C2881 C2880 1.367 . S
C2881 C2889 1.433 . S
C2882 H2878 0.929 . S
C2882 C2884 1.378 . S
C2882 C2886 1.350 . S
C2883 C2886 1.463 . S
C2883 C2888 1.350 . S
C2883 N2891 1.427 . S
C2884 H2875 0.930 . S
C2884 C2882 1.378 . S
C2884 C2885 1.367 . S
C2885 C2884 1.367 . S
C2885 C2887 1.433 . S
C2886 C2882 1.350 . S
C2886 C2883 1.463 . S
C2886 N2890 1.427 . S
C2887 H2877 0.929 . S
C2887 C2885 1.433 . S
C2887 N2890 1.384 . S
C2888 H2879 0.929 . S
C2888 C2880 1.378 . S
C2888 C2883 1.350 . S
C2889 H2876 0.929 . S
C2889 C2881 1.433 . S
C2889 N2891 1.384 . S
N2890 C2886 1.427 . S
N2890 C2887 1.384 . S
N2891 C2883 1.427 . S
N2891 C2889 1.384 . S
H2892 C2898 0.930 . S
H2893 C2902 0.930 . S
H2894 C2907 0.929 . S
H2895 C2905 0.929 . S
H2896 C2900 0.929 . S
H2897 C2906 0.929 . S
C2898 H2892 0.930 . S
C2898 C2899 1.367 . S
C2898 C2906 1.378 . S
C2899 C2898 1.367 . S
C2899 C2907 1.433 . S
C2900 H2896 0.929 . S
C2900 C2902 1.378 . S
C2900 C2904 1.350 . S
C2901 C2904 1.463 . S
C2901 C2906 1.350 . S
C2901 N2909 1.427 . S
C2902 H2893 0.930 . S
C2902 C2900 1.378 . S
C2902 C2903 1.367 . S
C2903 C2902 1.367 . S
C2903 C2905 1.433 . S
C2904 C2900 1.350 . S
C2904 C2901 1.463 . S
C2904 N2908 1.427 . S
C2905 H2895 0.929 . S
C2905 C2903 1.433 . S
C2905 N2908 1.384 . S
C2906 H2897 0.929 . S
C2906 C2898 1.378 . S
C2906 C2901 1.350 . S
C2907 H2894 0.929 . S
C2907 C2899 1.433 . S
C2907 N2909 1.384 . S
N2908 C2904 1.427 . S
N2908 C2905 1.384 . S
N2909 C2901 1.427 . S
N2909 C2907 1.384 . S
H2910 C2916 0.930 . S
H2911 C2920 0.930 . S
H2912 C2925 0.929 . S
H2913 C2923 0.929 . S
H2914 C2918 0.929 . S
H2915 C2924 0.929 . S
C2916 H2910 0.930 . S
C2916 C2917 1.367 . S
C2916 C2924 1.378 . S
C2917 C2916 1.367 . S
C2917 C2925 1.433 . S
C2918 H2914 0.929 . S
C2918 C2920 1.378 . S
C2918 C2922 1.350 . S
C2919 C2922 1.463 . S
C2919 C2924 1.350 . S
C2919 N2927 1.427 . S
C2920 H2911 0.930 . S
C2920 C2918 1.378 . S
C2920 C2921 1.367 . S
C2921 C2920 1.367 . S
C2921 C2923 1.433 . S
C2922 C2918 1.350 . S
C2922 C2919 1.463 . S
C2922 N2926 1.427 . S
C2923 H2913 0.929 . S
C2923 C2921 1.433 . S
C2923 N2926 1.384 . S
C2924 H2915 0.929 . S
C2924 C2916 1.378 . S
C2924 C2919 1.350 . S
C2925 H2912 0.929 . S
C2925 C2917 1.433 . S
C2925 N2927 1.384 . S
N2926 C2922 1.427 . S
N2926 C2923 1.384 . S
N2927 C2919 1.427 . S
N2927 C2925 1.384 . S
H2928 C2934 0.930 . S
H2929 C2938 0.930 . S
H2930 C2943 0.929 . S
H2931 C2941 0.929 . S
H2932 C2936 0.929 . S
H2933 C2942 0.929 . S
C2934 H2928 0.930 . S
C2934 C2935 1.367 . S
C2934 C2942 1.378 . S
C2935 C2934 1.367 . S
C2935 C2943 1.433 . S
C2936 H2932 0.929 . S
C2936 C2938 1.378 . S
C2936 C2940 1.350 . S
C2937 C2940 1.463 . S
C2937 C2942 1.350 . S
C2937 N2945 1.427 . S
C2938 H2929 0.930 . S
C2938 C2936 1.378 . S
C2938 C2939 1.367 . S
C2939 C2938 1.367 . S
C2939 C2941 1.433 . S
C2940 C2936 1.350 . S
C2940 C2937 1.463 . S
C2940 N2944 1.427 . S
C2941 H2931 0.929 . S
C2941 C2939 1.433 . S
C2941 N2944 1.384 . S
C2942 H2933 0.929 . S
C2942 C2934 1.378 . S
C2942 C2937 1.350 . S
C2943 H2930 0.929 . S
C2943 C2935 1.433 . S
C2943 N2945 1.384 . S
N2944 C2940 1.427 . S
N2944 C2941 1.384 . S
N2945 C2937 1.427 . S
N2945 C2943 1.384 . S
H2946 C2952 0.930 . S
H2947 C2956 0.930 . S
H2948 C2961 0.929 . S
H2949 C2959 0.929 . S
H2950 C2954 0.929 . S
H2951 C2960 0.929 . S
C2952 H2946 0.930 . S
C2952 C2953 1.367 . S
C2952 C2960 1.378 . S
C2953 C2952 1.367 . S
C2953 C2961 1.433 . S
C2954 H2950 0.929 . S
C2954 C2956 1.378 . S
C2954 C2958 1.350 . S
C2955 C2958 1.463 . S
C2955 C2960 1.350 . S
C2955 N2963 1.427 . S
C2956 H2947 0.930 . S
C2956 C2954 1.378 . S
C2956 C2957 1.367 . S
C2957 C2956 1.367 . S
C2957 C2959 1.433 . S
C2958 C2954 1.350 . S
C2958 C2955 1.463 . S
C2958 N2962 1.427 . S
C2959 H2949 0.929 . S
C2959 C2957 1.433 . S
C2959 N2962 1.384 . S
C2960 H2951 0.929 . S
C2960 C2952 1.378 . S
C2960 C2955 1.350 . S
C2961 H2948 0.929 . S
C2961 C2953 1.433 . S
C2961 N2963 1.384 . S
N2962 C2958 1.427 . S
N2962 C2959 1.384 . S
N2963 C2955 1.427 . S
N2963 C2961 1.384 . S
H2964 C2970 0.930 . S
H2965 C2974 0.930 . S
H2966 C2979 0.929 . S
H2967 C2977 0.929 1_556 S
H2968 C2972 0.929 . S
H2969 C2978 0.929 . S
C2970 H2964 0.930 . S
C2970 C2971 1.367 . S
C2970 C2978 1.378 . S
C2971 C2970 1.367 . S
C2971 C2979 1.433 . S
C2972 H2968 0.929 . S
C2972 C2974 1.378 . S
C2972 C2976 1.350 . S
C2973 C2976 1.463 . S
C2973 C2978 1.350 . S
C2973 N2981 1.427 . S
C2974 H2965 0.930 . S
C2974 C2972 1.378 . S
C2974 C2975 1.367 . S
C2975 C2974 1.367 . S
C2975 C2977 1.433 . S
C2976 C2972 1.350 . S
C2976 C2973 1.463 . S
C2976 N2980 1.427 . S
C2977 H2967 0.929 1_554 S
C2977 C2975 1.433 . S
C2977 N2980 1.384 . S
C2978 H2969 0.929 . S
C2978 C2970 1.378 . S
C2978 C2973 1.350 . S
C2979 H2966 0.929 . S
C2979 C2971 1.433 . S
C2979 N2981 1.384 . S
N2980 C2976 1.427 . S
N2980 C2977 1.384 . S
N2981 C2973 1.427 . S
N2981 C2979 1.384 . S
H2982 C2988 0.930 . S
H2983 C2992 0.930 . S
H2984 C2997 0.929 . S
H2985 C2995 0.929 . S
H2986 C2990 0.929 . S
H2987 C2996 0.929 . S
C2988 H2982 0.930 . S
C2988 C2989 1.367 . S
C2988 C2996 1.378 . S
C2989 C2988 1.367 . S
C2989 C2997 1.433 . S
C2990 H2986 0.929 . S
C2990 C2992 1.378 . S
C2990 C2994 1.350 . S
C2991 C2994 1.463 . S
C2991 C2996 1.350 . S
C2991 N2999 1.427 . S
C2992 H2983 0.930 . S
C2992 C2990 1.378 . S
C2992 C2993 1.367 . S
C2993 C2992 1.367 . S
C2993 C2995 1.433 . S
C2994 C2990 1.350 . S
C2994 C2991 1.463 . S
C2994 N2998 1.427 . S
C2995 H2985 0.929 . S
C2995 C2993 1.433 . S
C2995 N2998 1.384 . S
C2996 H2987 0.929 . S
C2996 C2988 1.378 . S
C2996 C2991 1.350 . S
C2997 H2984 0.929 . S
C2997 C2989 1.433 . S
C2997 N2999 1.384 . S
N2998 C2994 1.427 . S
N2998 C2995 1.384 . S
N2999 C2991 1.427 . S
N2999 C2997 1.384 . S
H3000 C3006 0.930 . S
H3001 C3010 0.930 . S
H3002 C3015 0.929 . S
H3003 C3013 0.929 . S
H3004 C3008 0.929 . S
H3005 C3014 0.929 . S
C3006 H3000 0.930 . S
C3006 C3007 1.367 . S
C3006 C3014 1.378 . S
C3007 C3006 1.367 . S
C3007 C3015 1.433 . S
C3008 H3004 0.929 . S
C3008 C3010 1.378 . S
C3008 C3012 1.350 . S
C3009 C3012 1.463 . S
C3009 C3014 1.350 . S
C3009 N3017 1.427 . S
C3010 H3001 0.930 . S
C3010 C3008 1.378 . S
C3010 C3011 1.367 . S
C3011 C3010 1.367 . S
C3011 C3013 1.433 . S
C3012 C3008 1.350 . S
C3012 C3009 1.463 . S
C3012 N3016 1.427 . S
C3013 H3003 0.929 . S
C3013 C3011 1.433 . S
C3013 N3016 1.384 . S
C3014 H3005 0.929 . S
C3014 C3006 1.378 . S
C3014 C3009 1.350 . S
C3015 H3002 0.929 . S
C3015 C3007 1.433 . S
C3015 N3017 1.384 . S
N3016 C3012 1.427 . S
N3016 C3013 1.384 . S
N3017 C3009 1.427 . S
N3017 C3015 1.384 . S
H3018 C3024 0.930 . S
H3019 C3028 0.930 . S
H3020 C3033 0.929 . S
H3021 C3031 0.929 . S
H3022 C3026 0.929 . S
H3023 C3032 0.929 . S
C3024 H3018 0.930 . S
C3024 C3025 1.367 . S
C3024 C3032 1.378 . S
C3025 C3024 1.367 . S
C3025 C3033 1.433 . S
C3026 H3022 0.929 . S
C3026 C3028 1.378 . S
C3026 C3030 1.350 . S
C3027 C3030 1.463 . S
C3027 C3032 1.350 . S
C3027 N3035 1.427 . S
C3028 H3019 0.930 . S
C3028 C3026 1.378 . S
C3028 C3029 1.367 . S
C3029 C3028 1.367 . S
C3029 C3031 1.433 . S
C3030 C3026 1.350 . S
C3030 C3027 1.463 . S
C3030 N3034 1.427 . S
C3031 H3021 0.929 . S
C3031 C3029 1.433 . S
C3031 N3034 1.384 . S
C3032 H3023 0.929 . S
C3032 C3024 1.378 . S
C3032 C3027 1.350 . S
C3033 H3020 0.929 . S
C3033 C3025 1.433 . S
C3033 N3035 1.384 . S
N3034 C3030 1.427 . S
N3034 C3031 1.384 . S
N3035 C3027 1.427 . S
N3035 C3033 1.384 . S
H3036 C3042 0.930 . S
H3037 C3046 0.930 . S
H3038 C3051 0.929 . S
H3039 C3049 0.929 . S
H3040 C3044 0.929 . S
H3041 C3050 0.929 . S
C3042 H3036 0.930 . S
C3042 C3043 1.367 . S
C3042 C3050 1.378 . S
C3043 C3042 1.367 . S
C3043 C3051 1.433 . S
C3044 H3040 0.929 . S
C3044 C3046 1.378 . S
C3044 C3048 1.350 . S
C3045 C3048 1.463 . S
C3045 C3050 1.350 . S
C3045 N3053 1.427 . S
C3046 H3037 0.930 . S
C3046 C3044 1.378 . S
C3046 C3047 1.367 . S
C3047 C3046 1.367 . S
C3047 C3049 1.433 . S
C3048 C3044 1.350 . S
C3048 C3045 1.463 . S
C3048 N3052 1.427 . S
C3049 H3039 0.929 . S
C3049 C3047 1.433 . S
C3049 N3052 1.384 . S
C3050 H3041 0.929 . S
C3050 C3042 1.378 . S
C3050 C3045 1.350 . S
C3051 H3038 0.929 . S
C3051 C3043 1.433 . S
C3051 N3053 1.384 . S
N3052 C3048 1.427 . S
N3052 C3049 1.384 . S
N3053 C3045 1.427 . S
N3053 C3051 1.384 . S
H3054 C3060 0.930 . S
H3055 C3064 0.930 . S
H3056 C3069 0.929 . S
H3057 C3067 0.929 . S
H3058 C3062 0.929 . S
H3059 C3068 0.929 . S
C3060 H3054 0.930 . S
C3060 C3061 1.367 . S
C3060 C3068 1.378 . S
C3061 C3060 1.367 . S
C3061 C3069 1.433 . S
C3062 H3058 0.929 . S
C3062 C3064 1.378 . S
C3062 C3066 1.350 . S
C3063 C3066 1.463 . S
C3063 C3068 1.350 . S
C3063 N3071 1.427 . S
C3064 H3055 0.930 . S
C3064 C3062 1.378 . S
C3064 C3065 1.367 . S
C3065 C3064 1.367 . S
C3065 C3067 1.433 . S
C3066 C3062 1.350 . S
C3066 C3063 1.463 . S
C3066 N3070 1.427 . S
C3067 H3057 0.929 . S
C3067 C3065 1.433 . S
C3067 N3070 1.384 . S
C3068 H3059 0.929 . S
C3068 C3060 1.378 . S
C3068 C3063 1.350 . S
C3069 H3056 0.929 . S
C3069 C3061 1.433 . S
C3069 N3071 1.384 . S
N3070 C3066 1.427 . S
N3070 C3067 1.384 . S
N3071 C3063 1.427 . S
N3071 C3069 1.384 . S
H3072 C3078 0.930 . S
H3073 C3082 0.930 . S
H3074 C3087 0.929 . S
H3075 C3085 0.929 . S
H3076 C3080 0.929 . S
H3077 C3086 0.929 . S
C3078 H3072 0.930 . S
C3078 C3079 1.367 . S
C3078 C3086 1.378 . S
C3079 C3078 1.367 . S
C3079 C3087 1.433 . S
C3080 H3076 0.929 . S
C3080 C3082 1.378 . S
C3080 C3084 1.350 . S
C3081 C3084 1.463 . S
C3081 C3086 1.350 . S
C3081 N3089 1.427 . S
C3082 H3073 0.930 . S
C3082 C3080 1.378 . S
C3082 C3083 1.367 . S
C3083 C3082 1.367 . S
C3083 C3085 1.433 . S
C3084 C3080 1.350 . S
C3084 C3081 1.463 . S
C3084 N3088 1.427 . S
C3085 H3075 0.929 . S
C3085 C3083 1.433 . S
C3085 N3088 1.384 . S
C3086 H3077 0.929 . S
C3086 C3078 1.378 . S
C3086 C3081 1.350 . S
C3087 H3074 0.929 . S
C3087 C3079 1.433 . S
C3087 N3089 1.384 . S
N3088 C3084 1.427 . S
N3088 C3085 1.384 . S
N3089 C3081 1.427 . S
N3089 C3087 1.384 . S
H3090 C3096 0.930 . S
H3091 C3100 0.930 . S
H3092 C3105 0.929 . S
H3093 C3103 0.929 . S
H3094 C3098 0.929 . S
H3095 C3104 0.929 . S
C3096 H3090 0.930 . S
C3096 C3097 1.367 . S
C3096 C3104 1.378 . S
C3097 C3096 1.367 . S
C3097 C3105 1.433 . S
C3098 H3094 0.929 . S
C3098 C3100 1.378 . S
C3098 C3102 1.350 . S
C3099 C3102 1.463 . S
C3099 C3104 1.350 . S
C3099 N3107 1.427 . S
C3100 H3091 0.930 . S
C3100 C3098 1.378 . S
C3100 C3101 1.367 . S
C3101 C3100 1.367 . S
C3101 C3103 1.433 . S
C3102 C3098 1.350 . S
C3102 C3099 1.463 . S
C3102 N3106 1.427 . S
C3103 H3093 0.929 . S
C3103 C3101 1.433 . S
C3103 N3106 1.384 . S
C3104 H3095 0.929 . S
C3104 C3096 1.378 . S
C3104 C3099 1.350 . S
C3105 H3092 0.929 . S
C3105 C3097 1.433 . S
C3105 N3107 1.384 . S
N3106 C3102 1.427 . S
N3106 C3103 1.384 . S
N3107 C3099 1.427 . S
N3107 C3105 1.384 . S
H3108 C3114 0.930 . S
H3109 C3118 0.930 . S
H3110 C3123 0.929 . S
H3111 C3121 0.929 . S
H3112 C3116 0.929 . S
H3113 C3122 0.929 . S
C3114 H3108 0.930 . S
C3114 C3115 1.367 . S
C3114 C3122 1.378 . S
C3115 C3114 1.367 . S
C3115 C3123 1.433 . S
C3116 H3112 0.929 . S
C3116 C3118 1.378 . S
C3116 C3120 1.350 . S
C3117 C3120 1.463 . S
C3117 C3122 1.350 . S
C3117 N3125 1.427 . S
C3118 H3109 0.930 . S
C3118 C3116 1.378 . S
C3118 C3119 1.367 . S
C3119 C3118 1.367 . S
C3119 C3121 1.433 . S
C3120 C3116 1.350 . S
C3120 C3117 1.463 . S
C3120 N3124 1.427 . S
C3121 H3111 0.929 . S
C3121 C3119 1.433 . S
C3121 N3124 1.384 . S
C3122 H3113 0.929 . S
C3122 C3114 1.378 . S
C3122 C3117 1.350 . S
C3123 H3110 0.929 . S
C3123 C3115 1.433 . S
C3123 N3125 1.384 . S
N3124 C3120 1.427 . S
N3124 C3121 1.384 . S
N3125 C3117 1.427 . S
N3125 C3123 1.384 . S
H3126 C3132 0.930 . S
H3127 C3136 0.930 . S
H3128 C3141 0.929 . S
H3129 C3139 0.929 . S
H3130 C3134 0.929 . S
H3131 C3140 0.929 . S
C3132 H3126 0.930 . S
C3132 C3133 1.367 . S
C3132 C3140 1.378 . S
C3133 C3132 1.367 . S
C3133 C3141 1.433 . S
C3134 H3130 0.929 . S
C3134 C3136 1.378 . S
C3134 C3138 1.350 . S
C3135 C3138 1.463 . S
C3135 C3140 1.350 . S
C3135 N3143 1.427 . S
C3136 H3127 0.930 . S
C3136 C3134 1.378 . S
C3136 C3137 1.367 . S
C3137 C3136 1.367 . S
C3137 C3139 1.433 . S
C3138 C3134 1.350 . S
C3138 C3135 1.463 . S
C3138 N3142 1.427 . S
C3139 H3129 0.929 . S
C3139 C3137 1.433 . S
C3139 N3142 1.384 . S
C3140 H3131 0.929 . S
C3140 C3132 1.378 . S
C3140 C3135 1.350 . S
C3141 H3128 0.929 . S
C3141 C3133 1.433 . S
C3141 N3143 1.384 . S
N3142 C3138 1.427 . S
N3142 C3139 1.384 . S
N3143 C3135 1.427 . S
N3143 C3141 1.384 . S
H3144 C3150 0.930 . S
H3145 C3154 0.930 . S
H3146 C3159 0.929 . S
H3147 C3157 0.929 . S
H3148 C3152 0.929 . S
H3149 C3158 0.929 . S
C3150 H3144 0.930 . S
C3150 C3151 1.367 . S
C3150 C3158 1.378 . S
C3151 C3150 1.367 . S
C3151 C3159 1.433 . S
C3152 H3148 0.929 . S
C3152 C3154 1.378 . S
C3152 C3156 1.350 . S
C3153 C3156 1.463 . S
C3153 C3158 1.350 . S
C3153 N3161 1.427 . S
C3154 H3145 0.930 . S
C3154 C3152 1.378 . S
C3154 C3155 1.367 . S
C3155 C3154 1.367 . S
C3155 C3157 1.433 . S
C3156 C3152 1.350 . S
C3156 C3153 1.463 . S
C3156 N3160 1.427 . S
C3157 H3147 0.929 . S
C3157 C3155 1.433 . S
C3157 N3160 1.384 . S
C3158 H3149 0.929 . S
C3158 C3150 1.378 . S
C3158 C3153 1.350 . S
C3159 H3146 0.929 . S
C3159 C3151 1.433 . S
C3159 N3161 1.384 . S
N3160 C3156 1.427 . S
N3160 C3157 1.384 . S
N3161 C3153 1.427 . S
N3161 C3159 1.384 . S
H3162 C3168 0.930 . S
H3163 C3172 0.930 . S
H3164 C3177 0.929 . S
H3165 C3175 0.929 . S
H3166 C3170 0.929 . S
H3167 C3176 0.929 . S
C3168 H3162 0.930 . S
C3168 C3169 1.367 . S
C3168 C3176 1.378 . S
C3169 C3168 1.367 . S
C3169 C3177 1.433 . S
C3170 H3166 0.929 . S
C3170 C3172 1.378 . S
C3170 C3174 1.350 . S
C3171 C3174 1.463 . S
C3171 C3176 1.350 . S
C3171 N3179 1.427 . S
C3172 H3163 0.930 . S
C3172 C3170 1.378 . S
C3172 C3173 1.367 . S
C3173 C3172 1.367 . S
C3173 C3175 1.433 . S
C3174 C3170 1.350 . S
C3174 C3171 1.463 . S
C3174 N3178 1.427 . S
C3175 H3165 0.929 . S
C3175 C3173 1.433 . S
C3175 N3178 1.384 . S
C3176 H3167 0.929 . S
C3176 C3168 1.378 . S
C3176 C3171 1.350 . S
C3177 H3164 0.929 . S
C3177 C3169 1.433 . S
C3177 N3179 1.384 . S
N3178 C3174 1.427 . S
N3178 C3175 1.384 . S
N3179 C3171 1.427 . S
N3179 C3177 1.384 . S
H3180 C3186 0.930 . S
H3181 C3190 0.930 . S
H3182 C3195 0.929 . S
H3183 C3193 0.929 . S
H3184 C3188 0.929 . S
H3185 C3194 0.929 . S
C3186 H3180 0.930 . S
C3186 C3187 1.367 . S
C3186 C3194 1.378 . S
C3187 C3186 1.367 . S
C3187 C3195 1.433 . S
C3188 H3184 0.929 . S
C3188 C3190 1.378 . S
C3188 C3192 1.350 . S
C3189 C3192 1.463 . S
C3189 C3194 1.350 . S
C3189 N3197 1.427 . S
C3190 H3181 0.930 . S
C3190 C3188 1.378 . S
C3190 C3191 1.367 . S
C3191 C3190 1.367 . S
C3191 C3193 1.433 . S
C3192 C3188 1.350 . S
C3192 C3189 1.463 . S
C3192 N3196 1.427 . S
C3193 H3183 0.929 . S
C3193 C3191 1.433 . S
C3193 N3196 1.384 . S
C3194 H3185 0.929 . S
C3194 C3186 1.378 . S
C3194 C3189 1.350 . S
C3195 H3182 0.929 . S
C3195 C3187 1.433 . S
C3195 N3197 1.384 . S
N3196 C3192 1.427 . S
N3196 C3193 1.384 . S
N3197 C3189 1.427 . S
N3197 C3195 1.384 . S
H3198 C3204 0.930 . S
H3199 C3208 0.930 . S
H3200 C3213 0.929 . S
H3201 C3211 0.929 . S
H3202 C3206 0.929 . S
H3203 C3212 0.929 . S
C3204 H3198 0.930 . S
C3204 C3205 1.367 . S
C3204 C3212 1.378 . S
C3205 C3204 1.367 . S
C3205 C3213 1.433 . S
C3206 H3202 0.929 . S
C3206 C3208 1.378 . S
C3206 C3210 1.350 . S
C3207 C3210 1.463 . S
C3207 C3212 1.350 . S
C3207 N3215 1.427 . S
C3208 H3199 0.930 . S
C3208 C3206 1.378 . S
C3208 C3209 1.367 . S
C3209 C3208 1.367 . S
C3209 C3211 1.433 . S
C3210 C3206 1.350 . S
C3210 C3207 1.463 . S
C3210 N3214 1.427 . S
C3211 H3201 0.929 . S
C3211 C3209 1.433 . S
C3211 N3214 1.384 . S
C3212 H3203 0.929 . S
C3212 C3204 1.378 . S
C3212 C3207 1.350 . S
C3213 H3200 0.929 . S
C3213 C3205 1.433 . S
C3213 N3215 1.384 . S
N3214 C3210 1.427 . S
N3214 C3211 1.384 . S
N3215 C3207 1.427 . S
N3215 C3213 1.384 . S
H3216 C3222 0.930 . S
H3217 C3226 0.930 . S
H3218 C3231 0.929 . S
H3219 C3229 0.929 . S
H3220 C3224 0.929 . S
H3221 C3230 0.929 . S
C3222 H3216 0.930 . S
C3222 C3223 1.367 . S
C3222 C3230 1.378 . S
C3223 C3222 1.367 . S
C3223 C3231 1.433 . S
C3224 H3220 0.929 . S
C3224 C3226 1.378 . S
C3224 C3228 1.350 . S
C3225 C3228 1.463 . S
C3225 C3230 1.350 . S
C3225 N3233 1.427 . S
C3226 H3217 0.930 . S
C3226 C3224 1.378 . S
C3226 C3227 1.367 . S
C3227 C3226 1.367 . S
C3227 C3229 1.433 . S
C3228 C3224 1.350 . S
C3228 C3225 1.463 . S
C3228 N3232 1.427 . S
C3229 H3219 0.929 . S
C3229 C3227 1.433 . S
C3229 N3232 1.384 . S
C3230 H3221 0.929 . S
C3230 C3222 1.378 . S
C3230 C3225 1.350 . S
C3231 H3218 0.929 . S
C3231 C3223 1.433 . S
C3231 N3233 1.384 . S
N3232 C3228 1.427 . S
N3232 C3229 1.384 . S
N3233 C3225 1.427 . S
N3233 C3231 1.384 . S
H3234 C3240 0.930 . S
H3235 C3244 0.930 . S
H3236 C3249 0.929 . S
H3237 C3247 0.929 . S
H3238 C3242 0.929 . S
H3239 C3248 0.929 . S
C3240 H3234 0.930 . S
C3240 C3241 1.367 . S
C3240 C3248 1.378 . S
C3241 C3240 1.367 . S
C3241 C3249 1.433 . S
C3242 H3238 0.929 . S
C3242 C3244 1.378 . S
C3242 C3246 1.350 . S
C3243 C3246 1.463 . S
C3243 C3248 1.350 . S
C3243 N3251 1.427 . S
C3244 H3235 0.930 . S
C3244 C3242 1.378 . S
C3244 C3245 1.367 . S
C3245 C3244 1.367 . S
C3245 C3247 1.433 . S
C3246 C3242 1.350 . S
C3246 C3243 1.463 . S
C3246 N3250 1.427 . S
C3247 H3237 0.929 . S
C3247 C3245 1.433 . S
C3247 N3250 1.384 . S
C3248 H3239 0.929 . S
C3248 C3240 1.378 . S
C3248 C3243 1.350 . S
C3249 H3236 0.929 . S
C3249 C3241 1.433 . S
C3249 N3251 1.384 . S
N3250 C3246 1.427 . S
N3250 C3247 1.384 . S
N3251 C3243 1.427 . S
N3251 C3249 1.384 . S
H3252 C3258 0.930 . S
H3253 C3262 0.930 . S
H3254 C3267 0.929 . S
H3255 C3265 0.929 . S
H3256 C3260 0.929 . S
H3257 C3266 0.929 . S
C3258 H3252 0.930 . S
C3258 C3259 1.367 . S
C3258 C3266 1.378 . S
C3259 C3258 1.367 . S
C3259 C3267 1.433 . S
C3260 H3256 0.929 . S
C3260 C3262 1.378 . S
C3260 C3264 1.350 . S
C3261 C3264 1.463 . S
C3261 C3266 1.350 . S
C3261 N3269 1.427 . S
C3262 H3253 0.930 . S
C3262 C3260 1.378 . S
C3262 C3263 1.367 . S
C3263 C3262 1.367 . S
C3263 C3265 1.433 . S
C3264 C3260 1.350 . S
C3264 C3261 1.463 . S
C3264 N3268 1.427 . S
C3265 H3255 0.929 . S
C3265 C3263 1.433 . S
C3265 N3268 1.384 . S
C3266 H3257 0.929 . S
C3266 C3258 1.378 . S
C3266 C3261 1.350 . S
C3267 H3254 0.929 . S
C3267 C3259 1.433 . S
C3267 N3269 1.384 . S
N3268 C3264 1.427 . S
N3268 C3265 1.384 . S
N3269 C3261 1.427 . S
N3269 C3267 1.384 . S
H3270 C3276 0.930 . S
H3271 C3280 0.930 . S
H3272 C3285 0.929 . S
H3273 C3283 0.929 . S
H3274 C3278 0.929 . S
H3275 C3284 0.929 . S
C3276 H3270 0.930 . S
C3276 C3277 1.367 . S
C3276 C3284 1.378 . S
C3277 C3276 1.367 . S
C3277 C3285 1.433 . S
C3278 H3274 0.929 . S
C3278 C3280 1.378 . S
C3278 C3282 1.350 . S
C3279 C3282 1.463 . S
C3279 C3284 1.350 . S
C3279 N3287 1.427 . S
C3280 H3271 0.930 . S
C3280 C3278 1.378 . S
C3280 C3281 1.367 . S
C3281 C3280 1.367 . S
C3281 C3283 1.433 . S
C3282 C3278 1.350 . S
C3282 C3279 1.463 . S
C3282 N3286 1.427 . S
C3283 H3273 0.929 . S
C3283 C3281 1.433 . S
C3283 N3286 1.384 . S
C3284 H3275 0.929 . S
C3284 C3276 1.378 . S
C3284 C3279 1.350 . S
C3285 H3272 0.929 . S
C3285 C3277 1.433 . S
C3285 N3287 1.384 . S
N3286 C3282 1.427 . S
N3286 C3283 1.384 . S
N3287 C3279 1.427 . S
N3287 C3285 1.384 . S
H3288 C3294 0.930 . S
H3289 C3298 0.930 . S
H3290 C3303 0.929 . S
H3291 C3301 0.929 . S
H3292 C3296 0.929 . S
H3293 C3302 0.929 . S
C3294 H3288 0.930 . S
C3294 C3295 1.367 . S
C3294 C3302 1.378 . S
C3295 C3294 1.367 . S
C3295 C3303 1.433 . S
C3296 H3292 0.929 . S
C3296 C3298 1.378 . S
C3296 C3300 1.350 . S
C3297 C3300 1.463 . S
C3297 C3302 1.350 . S
C3297 N3305 1.427 . S
C3298 H3289 0.930 . S
C3298 C3296 1.378 . S
C3298 C3299 1.367 . S
C3299 C3298 1.367 . S
C3299 C3301 1.433 . S
C3300 C3296 1.350 . S
C3300 C3297 1.463 . S
C3300 N3304 1.427 . S
C3301 H3291 0.929 . S
C3301 C3299 1.433 . S
C3301 N3304 1.384 . S
C3302 H3293 0.929 . S
C3302 C3294 1.378 . S
C3302 C3297 1.350 . S
C3303 H3290 0.929 . S
C3303 C3295 1.433 . S
C3303 N3305 1.384 . S
N3304 C3300 1.427 . S
N3304 C3301 1.384 . S
N3305 C3297 1.427 . S
N3305 C3303 1.384 . S
H3306 C3312 0.930 . S
H3307 C3316 0.930 . S
H3308 C3321 0.929 . S
H3309 C3319 0.929 . S
H3310 C3314 0.929 . S
H3311 C3320 0.929 . S
C3312 H3306 0.930 . S
C3312 C3313 1.367 . S
C3312 C3320 1.378 . S
C3313 C3312 1.367 . S
C3313 C3321 1.433 . S
C3314 H3310 0.929 . S
C3314 C3316 1.378 . S
C3314 C3318 1.350 . S
C3315 C3318 1.463 . S
C3315 C3320 1.350 . S
C3315 N3323 1.427 . S
C3316 H3307 0.930 . S
C3316 C3314 1.378 . S
C3316 C3317 1.367 . S
C3317 C3316 1.367 . S
C3317 C3319 1.433 . S
C3318 C3314 1.350 . S
C3318 C3315 1.463 . S
C3318 N3322 1.427 . S
C3319 H3309 0.929 . S
C3319 C3317 1.433 . S
C3319 N3322 1.384 . S
C3320 H3311 0.929 . S
C3320 C3312 1.378 . S
C3320 C3315 1.350 . S
C3321 H3308 0.929 . S
C3321 C3313 1.433 . S
C3321 N3323 1.384 . S
N3322 C3318 1.427 . S
N3322 C3319 1.384 . S
N3323 C3315 1.427 . S
N3323 C3321 1.384 . S
H3324 C3330 0.930 . S
H3325 C3334 0.930 . S
H3326 C3339 0.929 . S
H3327 C3337 0.929 . S
H3328 C3332 0.929 . S
H3329 C3338 0.929 . S
C3330 H3324 0.930 . S
C3330 C3331 1.367 . S
C3330 C3338 1.378 . S
C3331 C3330 1.367 . S
C3331 C3339 1.433 . S
C3332 H3328 0.929 . S
C3332 C3334 1.378 . S
C3332 C3336 1.350 . S
C3333 C3336 1.463 . S
C3333 C3338 1.350 . S
C3333 N3341 1.427 . S
C3334 H3325 0.930 . S
C3334 C3332 1.378 . S
C3334 C3335 1.367 . S
C3335 C3334 1.367 . S
C3335 C3337 1.433 . S
C3336 C3332 1.350 . S
C3336 C3333 1.463 . S
C3336 N3340 1.427 . S
C3337 H3327 0.929 . S
C3337 C3335 1.433 . S
C3337 N3340 1.384 . S
C3338 H3329 0.929 . S
C3338 C3330 1.378 . S
C3338 C3333 1.350 . S
C3339 H3326 0.929 . S
C3339 C3331 1.433 . S
C3339 N3341 1.384 . S
N3340 C3336 1.427 . S
N3340 C3337 1.384 . S
N3341 C3333 1.427 . S
N3341 C3339 1.384 . S
H3342 C3348 0.930 . S
H3343 C3352 0.930 . S
H3344 C3357 0.929 . S
H3345 C3355 0.929 . S
H3346 C3350 0.929 . S
H3347 C3356 0.929 . S
C3348 H3342 0.930 . S
C3348 C3349 1.367 . S
C3348 C3356 1.378 . S
C3349 C3348 1.367 . S
C3349 C3357 1.433 . S
C3350 H3346 0.929 . S
C3350 C3352 1.378 . S
C3350 C3354 1.350 . S
C3351 C3354 1.463 . S
C3351 C3356 1.350 . S
C3351 N3359 1.427 . S
C3352 H3343 0.930 . S
C3352 C3350 1.378 . S
C3352 C3353 1.367 . S
C3353 C3352 1.367 . S
C3353 C3355 1.433 . S
C3354 C3350 1.350 . S
C3354 C3351 1.463 . S
C3354 N3358 1.427 . S
C3355 H3345 0.929 . S
C3355 C3353 1.433 . S
C3355 N3358 1.384 . S
C3356 H3347 0.929 . S
C3356 C3348 1.378 . S
C3356 C3351 1.350 . S
C3357 H3344 0.929 . S
C3357 C3349 1.433 . S
C3357 N3359 1.384 . S
N3358 C3354 1.427 . S
N3358 C3355 1.384 . S
N3359 C3351 1.427 . S
N3359 C3357 1.384 . S
H3360 C3366 0.930 . S
H3361 C3370 0.930 . S
H3362 C3375 0.929 . S
H3363 C3373 0.929 . S
H3364 C3368 0.929 . S
H3365 C3374 0.929 . S
C3366 H3360 0.930 . S
C3366 C3367 1.367 . S
C3366 C3374 1.378 . S
C3367 C3366 1.367 . S
C3367 C3375 1.433 . S
C3368 H3364 0.929 . S
C3368 C3370 1.378 . S
C3368 C3372 1.350 . S
C3369 C3372 1.463 . S
C3369 C3374 1.350 . S
C3369 N3377 1.427 . S
C3370 H3361 0.930 . S
C3370 C3368 1.378 . S
C3370 C3371 1.367 . S
C3371 C3370 1.367 . S
C3371 C3373 1.433 . S
C3372 C3368 1.350 . S
C3372 C3369 1.463 . S
C3372 N3376 1.427 . S
C3373 H3363 0.929 . S
C3373 C3371 1.433 . S
C3373 N3376 1.384 . S
C3374 H3365 0.929 . S
C3374 C3366 1.378 . S
C3374 C3369 1.350 . S
C3375 H3362 0.929 . S
C3375 C3367 1.433 . S
C3375 N3377 1.384 . S
N3376 C3372 1.427 . S
N3376 C3373 1.384 . S
N3377 C3369 1.427 . S
N3377 C3375 1.384 . S
H3378 C3384 0.930 . S
H3379 C3388 0.930 . S
H3380 C3393 0.929 . S
H3381 C3391 0.929 . S
H3382 C3386 0.929 . S
H3383 C3392 0.929 . S
C3384 H3378 0.930 . S
C3384 C3385 1.367 . S
C3384 C3392 1.378 . S
C3385 C3384 1.367 . S
C3385 C3393 1.433 . S
C3386 H3382 0.929 . S
C3386 C3388 1.378 . S
C3386 C3390 1.350 . S
C3387 C3390 1.463 . S
C3387 C3392 1.350 . S
C3387 N3395 1.427 . S
C3388 H3379 0.930 . S
C3388 C3386 1.378 . S
C3388 C3389 1.367 . S
C3389 C3388 1.367 . S
C3389 C3391 1.433 . S
C3390 C3386 1.350 . S
C3390 C3387 1.463 . S
C3390 N3394 1.427 . S
C3391 H3381 0.929 . S
C3391 C3389 1.433 . S
C3391 N3394 1.384 . S
C3392 H3383 0.929 . S
C3392 C3384 1.378 . S
C3392 C3387 1.350 . S
C3393 H3380 0.929 . S
C3393 C3385 1.433 . S
C3393 N3395 1.384 . S
N3394 C3390 1.427 . S
N3394 C3391 1.384 . S
N3395 C3387 1.427 . S
N3395 C3393 1.384 . S
H3396 C3402 0.930 . S
H3397 C3406 0.930 . S
H3398 C3411 0.929 . S
H3399 C3409 0.929 . S
H3400 C3404 0.929 . S
H3401 C3410 0.929 . S
C3402 H3396 0.930 . S
C3402 C3403 1.367 . S
C3402 C3410 1.378 . S
C3403 C3402 1.367 . S
C3403 C3411 1.433 . S
C3404 H3400 0.929 . S
C3404 C3406 1.378 . S
C3404 C3408 1.350 . S
C3405 C3408 1.463 . S
C3405 C3410 1.350 . S
C3405 N3413 1.427 . S
C3406 H3397 0.930 . S
C3406 C3404 1.378 . S
C3406 C3407 1.367 . S
C3407 C3406 1.367 . S
C3407 C3409 1.433 . S
C3408 C3404 1.350 . S
C3408 C3405 1.463 . S
C3408 N3412 1.427 . S
C3409 H3399 0.929 . S
C3409 C3407 1.433 . S
C3409 N3412 1.384 . S
C3410 H3401 0.929 . S
C3410 C3402 1.378 . S
C3410 C3405 1.350 . S
C3411 H3398 0.929 . S
C3411 C3403 1.433 . S
C3411 N3413 1.384 . S
N3412 C3408 1.427 . S
N3412 C3409 1.384 . S
N3413 C3405 1.427 . S
N3413 C3411 1.384 . S
H3414 C3420 0.930 . S
H3415 C3424 0.930 . S
H3416 C3429 0.929 . S
H3417 C3427 0.929 . S
H3418 C3422 0.929 . S
H3419 C3428 0.929 . S
C3420 H3414 0.930 . S
C3420 C3421 1.367 . S
C3420 C3428 1.378 . S
C3421 C3420 1.367 . S
C3421 C3429 1.433 . S
C3422 H3418 0.929 . S
C3422 C3424 1.378 . S
C3422 C3426 1.350 . S
C3423 C3426 1.463 . S
C3423 C3428 1.350 . S
C3423 N3431 1.427 . S
C3424 H3415 0.930 . S
C3424 C3422 1.378 . S
C3424 C3425 1.367 . S
C3425 C3424 1.367 . S
C3425 C3427 1.433 . S
C3426 C3422 1.350 . S
C3426 C3423 1.463 . S
C3426 N3430 1.427 . S
C3427 H3417 0.929 . S
C3427 C3425 1.433 . S
C3427 N3430 1.384 . S
C3428 H3419 0.929 . S
C3428 C3420 1.378 . S
C3428 C3423 1.350 . S
C3429 H3416 0.929 . S
C3429 C3421 1.433 . S
C3429 N3431 1.384 . S
N3430 C3426 1.427 . S
N3430 C3427 1.384 . S
N3431 C3423 1.427 . S
N3431 C3429 1.384 . S
H3432 C3438 0.930 . S
H3433 C3442 0.930 . S
H3434 C3447 0.929 . S
H3435 C3445 0.929 . S
H3436 C3440 0.929 . S
H3437 C3446 0.929 . S
C3438 H3432 0.930 . S
C3438 C3439 1.367 . S
C3438 C3446 1.378 . S
C3439 C3438 1.367 . S
C3439 C3447 1.433 . S
C3440 H3436 0.929 . S
C3440 C3442 1.378 . S
C3440 C3444 1.350 . S
C3441 C3444 1.463 . S
C3441 C3446 1.350 . S
C3441 N3449 1.427 . S
C3442 H3433 0.930 . S
C3442 C3440 1.378 . S
C3442 C3443 1.367 . S
C3443 C3442 1.367 . S
C3443 C3445 1.433 . S
C3444 C3440 1.350 . S
C3444 C3441 1.463 . S
C3444 N3448 1.427 . S
C3445 H3435 0.929 . S
C3445 C3443 1.433 . S
C3445 N3448 1.384 . S
C3446 H3437 0.929 . S
C3446 C3438 1.378 . S
C3446 C3441 1.350 . S
C3447 H3434 0.929 . S
C3447 C3439 1.433 . S
C3447 N3449 1.384 . S
N3448 C3444 1.427 . S
N3448 C3445 1.384 . S
N3449 C3441 1.427 . S
N3449 C3447 1.384 . S
H3450 C3456 0.930 . S
H3451 C3460 0.930 . S
H3452 C3465 0.929 . S
H3453 C3463 0.929 . S
H3454 C3458 0.929 . S
H3455 C3464 0.929 . S
C3456 H3450 0.930 . S
C3456 C3457 1.367 . S
C3456 C3464 1.378 . S
C3457 C3456 1.367 . S
C3457 C3465 1.433 . S
C3458 H3454 0.929 . S
C3458 C3460 1.378 . S
C3458 C3462 1.350 . S
C3459 C3462 1.463 . S
C3459 C3464 1.350 . S
C3459 N3467 1.427 . S
C3460 H3451 0.930 . S
C3460 C3458 1.378 . S
C3460 C3461 1.367 . S
C3461 C3460 1.367 . S
C3461 C3463 1.433 . S
C3462 C3458 1.350 . S
C3462 C3459 1.463 . S
C3462 N3466 1.427 . S
C3463 H3453 0.929 . S
C3463 C3461 1.433 . S
C3463 N3466 1.384 . S
C3464 H3455 0.929 . S
C3464 C3456 1.378 . S
C3464 C3459 1.350 . S
C3465 H3452 0.929 . S
C3465 C3457 1.433 . S
C3465 N3467 1.384 . S
N3466 C3462 1.427 . S
N3466 C3463 1.384 . S
N3467 C3459 1.427 . S
N3467 C3465 1.384 . S
H3468 C3474 0.930 . S
H3469 C3478 0.930 . S
H3470 C3483 0.929 . S
H3471 C3481 0.929 . S
H3472 C3476 0.929 . S
H3473 C3482 0.929 . S
C3474 H3468 0.930 . S
C3474 C3475 1.367 . S
C3474 C3482 1.378 . S
C3475 C3474 1.367 . S
C3475 C3483 1.433 . S
C3476 H3472 0.929 . S
C3476 C3478 1.378 . S
C3476 C3480 1.350 . S
C3477 C3480 1.463 . S
C3477 C3482 1.350 . S
C3477 N3485 1.427 . S
C3478 H3469 0.930 . S
C3478 C3476 1.378 . S
C3478 C3479 1.367 . S
C3479 C3478 1.367 . S
C3479 C3481 1.433 . S
C3480 C3476 1.350 . S
C3480 C3477 1.463 . S
C3480 N3484 1.427 . S
C3481 H3471 0.929 . S
C3481 C3479 1.433 . S
C3481 N3484 1.384 . S
C3482 H3473 0.929 . S
C3482 C3474 1.378 . S
C3482 C3477 1.350 . S
C3483 H3470 0.929 . S
C3483 C3475 1.433 . S
C3483 N3485 1.384 . S
N3484 C3480 1.427 . S
N3484 C3481 1.384 . S
N3485 C3477 1.427 . S
N3485 C3483 1.384 . S
H3486 C3492 0.930 . S
H3487 C3496 0.930 . S
H3488 C3501 0.929 . S
H3489 C3499 0.929 . S
H3490 C3494 0.929 . S
H3491 C3500 0.929 . S
C3492 H3486 0.930 . S
C3492 C3493 1.367 . S
C3492 C3500 1.378 . S
C3493 C3492 1.367 . S
C3493 C3501 1.433 . S
C3494 H3490 0.929 . S
C3494 C3496 1.378 . S
C3494 C3498 1.350 . S
C3495 C3498 1.463 . S
C3495 C3500 1.350 . S
C3495 N3503 1.427 . S
C3496 H3487 0.930 . S
C3496 C3494 1.378 . S
C3496 C3497 1.367 . S
C3497 C3496 1.367 . S
C3497 C3499 1.433 . S
C3498 C3494 1.350 . S
C3498 C3495 1.463 . S
C3498 N3502 1.427 . S
C3499 H3489 0.929 . S
C3499 C3497 1.433 . S
C3499 N3502 1.384 . S
C3500 H3491 0.929 . S
C3500 C3492 1.378 . S
C3500 C3495 1.350 . S
C3501 H3488 0.929 . S
C3501 C3493 1.433 . S
C3501 N3503 1.384 . S
N3502 C3498 1.427 . S
N3502 C3499 1.384 . S
N3503 C3495 1.427 . S
N3503 C3501 1.384 . S
H3504 C3510 0.930 . S
H3505 C3514 0.930 . S
H3506 C3519 0.929 . S
H3507 C3517 0.929 . S
H3508 C3512 0.929 . S
H3509 C3518 0.929 . S
C3510 H3504 0.930 . S
C3510 C3511 1.367 . S
C3510 C3518 1.378 . S
C3511 C3510 1.367 . S
C3511 C3519 1.433 . S
C3512 H3508 0.929 . S
C3512 C3514 1.378 . S
C3512 C3516 1.350 . S
C3513 C3516 1.463 . S
C3513 C3518 1.350 . S
C3513 N3521 1.427 . S
C3514 H3505 0.930 . S
C3514 C3512 1.378 . S
C3514 C3515 1.367 . S
C3515 C3514 1.367 . S
C3515 C3517 1.433 . S
C3516 C3512 1.350 . S
C3516 C3513 1.463 . S
C3516 N3520 1.427 . S
C3517 H3507 0.929 . S
C3517 C3515 1.433 . S
C3517 N3520 1.384 . S
C3518 H3509 0.929 . S
C3518 C3510 1.378 . S
C3518 C3513 1.350 . S
C3519 H3506 0.929 . S
C3519 C3511 1.433 . S
C3519 N3521 1.384 . S
N3520 C3516 1.427 . S
N3520 C3517 1.384 . S
N3521 C3513 1.427 . S
N3521 C3519 1.384 . S
H3522 C3528 0.930 . S
H3523 C3532 0.930 . S
H3524 C3537 0.929 . S
H3525 C3535 0.929 . S
H3526 C3530 0.929 . S
H3527 C3536 0.929 . S
C3528 H3522 0.930 . S
C3528 C3529 1.367 . S
C3528 C3536 1.378 . S
C3529 C3528 1.367 . S
C3529 C3537 1.433 . S
C3530 H3526 0.929 . S
C3530 C3532 1.378 . S
C3530 C3534 1.350 . S
C3531 C3534 1.463 . S
C3531 C3536 1.350 . S
C3531 N3539 1.427 . S
C3532 H3523 0.930 . S
C3532 C3530 1.378 . S
C3532 C3533 1.367 . S
C3533 C3532 1.367 . S
C3533 C3535 1.433 . S
C3534 C3530 1.350 . S
C3534 C3531 1.463 . S
C3534 N3538 1.427 . S
C3535 H3525 0.929 . S
C3535 C3533 1.433 . S
C3535 N3538 1.384 . S
C3536 H3527 0.929 . S
C3536 C3528 1.378 . S
C3536 C3531 1.350 . S
C3537 H3524 0.929 . S
C3537 C3529 1.433 . S
C3537 N3539 1.384 . S
N3538 C3534 1.427 . S
N3538 C3535 1.384 . S
N3539 C3531 1.427 . S
N3539 C3537 1.384 . S
H3540 C3546 0.930 . S
H3541 C3550 0.930 . S
H3542 C3555 0.929 . S
H3543 C3553 0.929 . S
H3544 C3548 0.929 . S
H3545 C3554 0.929 . S
C3546 H3540 0.930 . S
C3546 C3547 1.367 . S
C3546 C3554 1.378 . S
C3547 C3546 1.367 . S
C3547 C3555 1.433 . S
C3548 H3544 0.929 . S
C3548 C3550 1.378 . S
C3548 C3552 1.350 . S
C3549 C3552 1.463 . S
C3549 C3554 1.350 . S
C3549 N3557 1.427 . S
C3550 H3541 0.930 . S
C3550 C3548 1.378 . S
C3550 C3551 1.367 . S
C3551 C3550 1.367 . S
C3551 C3553 1.433 . S
C3552 C3548 1.350 . S
C3552 C3549 1.463 . S
C3552 N3556 1.427 . S
C3553 H3543 0.929 . S
C3553 C3551 1.433 . S
C3553 N3556 1.384 . S
C3554 H3545 0.929 . S
C3554 C3546 1.378 . S
C3554 C3549 1.350 . S
C3555 H3542 0.929 . S
C3555 C3547 1.433 . S
C3555 N3557 1.384 . S
N3556 C3552 1.427 . S
N3556 C3553 1.384 . S
N3557 C3549 1.427 . S
N3557 C3555 1.384 . S
H3558 C3564 0.930 . S
H3559 C3568 0.930 . S
H3560 C3573 0.929 . S
H3561 C3571 0.929 . S
H3562 C3566 0.929 . S
H3563 C3572 0.929 . S
C3564 H3558 0.930 . S
C3564 C3565 1.367 . S
C3564 C3572 1.378 . S
C3565 C3564 1.367 . S
C3565 C3573 1.433 . S
C3566 H3562 0.929 . S
C3566 C3568 1.378 . S
C3566 C3570 1.350 . S
C3567 C3570 1.463 . S
C3567 C3572 1.350 . S
C3567 N3575 1.427 . S
C3568 H3559 0.930 . S
C3568 C3566 1.378 . S
C3568 C3569 1.367 . S
C3569 C3568 1.367 . S
C3569 C3571 1.433 . S
C3570 C3566 1.350 . S
C3570 C3567 1.463 . S
C3570 N3574 1.427 . S
C3571 H3561 0.929 . S
C3571 C3569 1.433 . S
C3571 N3574 1.384 . S
C3572 H3563 0.929 . S
C3572 C3564 1.378 . S
C3572 C3567 1.350 . S
C3573 H3560 0.929 . S
C3573 C3565 1.433 . S
C3573 N3575 1.384 . S
N3574 C3570 1.427 . S
N3574 C3571 1.384 . S
N3575 C3567 1.427 . S
N3575 C3573 1.384 . S
H3576 C3582 0.930 . S
H3577 C3586 0.930 . S
H3578 C3591 0.929 . S
H3579 C3589 0.929 . S
H3580 C3584 0.929 . S
H3581 C3590 0.929 . S
C3582 H3576 0.930 . S
C3582 C3583 1.367 . S
C3582 C3590 1.378 . S
C3583 C3582 1.367 . S
C3583 C3591 1.433 . S
C3584 H3580 0.929 . S
C3584 C3586 1.378 . S
C3584 C3588 1.350 . S
C3585 C3588 1.463 . S
C3585 C3590 1.350 . S
C3585 N3593 1.427 . S
C3586 H3577 0.930 . S
C3586 C3584 1.378 . S
C3586 C3587 1.367 . S
C3587 C3586 1.367 . S
C3587 C3589 1.433 . S
C3588 C3584 1.350 . S
C3588 C3585 1.463 . S
C3588 N3592 1.427 . S
C3589 H3579 0.929 . S
C3589 C3587 1.433 . S
C3589 N3592 1.384 . S
C3590 H3581 0.929 . S
C3590 C3582 1.378 . S
C3590 C3585 1.350 . S
C3591 H3578 0.929 . S
C3591 C3583 1.433 . S
C3591 N3593 1.384 . S
N3592 C3588 1.427 . S
N3592 C3589 1.384 . S
N3593 C3585 1.427 . S
N3593 C3591 1.384 . S
H3594 C3600 0.930 . S
H3595 C3604 0.930 . S
H3596 C3609 0.929 . S
H3597 C3607 0.929 . S
H3598 C3602 0.929 . S
H3599 C3608 0.929 . S
C3600 H3594 0.930 . S
C3600 C3601 1.367 . S
C3600 C3608 1.378 . S
C3601 C3600 1.367 . S
C3601 C3609 1.433 . S
C3602 H3598 0.929 . S
C3602 C3604 1.378 . S
C3602 C3606 1.350 . S
C3603 C3606 1.463 . S
C3603 C3608 1.350 . S
C3603 N3611 1.427 . S
C3604 H3595 0.930 . S
C3604 C3602 1.378 . S
C3604 C3605 1.367 . S
C3605 C3604 1.367 . S
C3605 C3607 1.433 . S
C3606 C3602 1.350 . S
C3606 C3603 1.463 . S
C3606 N3610 1.427 . S
C3607 H3597 0.929 . S
C3607 C3605 1.433 . S
C3607 N3610 1.384 . S
C3608 H3599 0.929 . S
C3608 C3600 1.378 . S
C3608 C3603 1.350 . S
C3609 H3596 0.929 . S
C3609 C3601 1.433 . S
C3609 N3611 1.384 . S
N3610 C3606 1.427 . S
N3610 C3607 1.384 . S
N3611 C3603 1.427 . S
N3611 C3609 1.384 . S
H3612 C3618 0.930 . S
H3613 C3622 0.930 . S
H3614 C3627 0.929 . S
H3615 C3625 0.929 . S
H3616 C3620 0.929 . S
H3617 C3626 0.929 . S
C3618 H3612 0.930 . S
C3618 C3619 1.367 . S
C3618 C3626 1.378 . S
C3619 C3618 1.367 . S
C3619 C3627 1.433 . S
C3620 H3616 0.929 . S
C3620 C3622 1.378 . S
C3620 C3624 1.350 . S
C3621 C3624 1.463 . S
C3621 C3626 1.350 . S
C3621 N3629 1.427 . S
C3622 H3613 0.930 . S
C3622 C3620 1.378 . S
C3622 C3623 1.367 . S
C3623 C3622 1.367 . S
C3623 C3625 1.433 . S
C3624 C3620 1.350 . S
C3624 C3621 1.463 . S
C3624 N3628 1.427 . S
C3625 H3615 0.929 . S
C3625 C3623 1.433 . S
C3625 N3628 1.384 . S
C3626 H3617 0.929 . S
C3626 C3618 1.378 . S
C3626 C3621 1.350 . S
C3627 H3614 0.929 . S
C3627 C3619 1.433 . S
C3627 N3629 1.384 . S
N3628 C3624 1.427 . S
N3628 C3625 1.384 . S
N3629 C3621 1.427 . S
N3629 C3627 1.384 . S
H3630 C3636 0.930 . S
H3631 C3640 0.930 . S
H3632 C3645 0.929 . S
H3633 C3643 0.929 . S
H3634 C3638 0.929 . S
H3635 C3644 0.929 . S
C3636 H3630 0.930 . S
C3636 C3637 1.367 . S
C3636 C3644 1.378 . S
C3637 C3636 1.367 . S
C3637 C3645 1.433 . S
C3638 H3634 0.929 . S
C3638 C3640 1.378 . S
C3638 C3642 1.350 . S
C3639 C3642 1.463 . S
C3639 C3644 1.350 . S
C3639 N3647 1.427 . S
C3640 H3631 0.930 . S
C3640 C3638 1.378 . S
C3640 C3641 1.367 . S
C3641 C3640 1.367 . S
C3641 C3643 1.433 . S
C3642 C3638 1.350 . S
C3642 C3639 1.463 . S
C3642 N3646 1.427 . S
C3643 H3633 0.929 . S
C3643 C3641 1.433 . S
C3643 N3646 1.384 . S
C3644 H3635 0.929 . S
C3644 C3636 1.378 . S
C3644 C3639 1.350 . S
C3645 H3632 0.929 . S
C3645 C3637 1.433 . S
C3645 N3647 1.384 . S
N3646 C3642 1.427 . S
N3646 C3643 1.384 . S
N3647 C3639 1.427 . S
N3647 C3645 1.384 . S
H3648 C3654 0.930 . S
H3649 C3658 0.930 . S
H3650 C3663 0.929 . S
H3651 C3661 0.929 . S
H3652 C3656 0.929 . S
H3653 C3662 0.929 . S
C3654 H3648 0.930 . S
C3654 C3655 1.367 . S
C3654 C3662 1.378 . S
C3655 C3654 1.367 . S
C3655 C3663 1.433 . S
C3656 H3652 0.929 . S
C3656 C3658 1.378 . S
C3656 C3660 1.350 . S
C3657 C3660 1.463 . S
C3657 C3662 1.350 . S
C3657 N3665 1.427 . S
C3658 H3649 0.930 . S
C3658 C3656 1.378 . S
C3658 C3659 1.367 . S
C3659 C3658 1.367 . S
C3659 C3661 1.433 . S
C3660 C3656 1.350 . S
C3660 C3657 1.463 . S
C3660 N3664 1.427 . S
C3661 H3651 0.929 . S
C3661 C3659 1.433 . S
C3661 N3664 1.384 . S
C3662 H3653 0.929 . S
C3662 C3654 1.378 . S
C3662 C3657 1.350 . S
C3663 H3650 0.929 . S
C3663 C3655 1.433 . S
C3663 N3665 1.384 . S
N3664 C3660 1.427 . S
N3664 C3661 1.384 . S
N3665 C3657 1.427 . S
N3665 C3663 1.384 . S
H3666 C3672 0.930 . S
H3667 C3676 0.930 . S
H3668 C3681 0.929 . S
H3669 C3679 0.929 . S
H3670 C3674 0.929 . S
H3671 C3680 0.929 . S
C3672 H3666 0.930 . S
C3672 C3673 1.367 . S
C3672 C3680 1.378 . S
C3673 C3672 1.367 . S
C3673 C3681 1.433 . S
C3674 H3670 0.929 . S
C3674 C3676 1.378 . S
C3674 C3678 1.350 . S
C3675 C3678 1.463 . S
C3675 C3680 1.350 . S
C3675 N3683 1.427 . S
C3676 H3667 0.930 . S
C3676 C3674 1.378 . S
C3676 C3677 1.367 . S
C3677 C3676 1.367 . S
C3677 C3679 1.433 . S
C3678 C3674 1.350 . S
C3678 C3675 1.463 . S
C3678 N3682 1.427 . S
C3679 H3669 0.929 . S
C3679 C3677 1.433 . S
C3679 N3682 1.384 . S
C3680 H3671 0.929 . S
C3680 C3672 1.378 . S
C3680 C3675 1.350 . S
C3681 H3668 0.929 . S
C3681 C3673 1.433 . S
C3681 N3683 1.384 . S
N3682 C3678 1.427 . S
N3682 C3679 1.384 . S
N3683 C3675 1.427 . S
N3683 C3681 1.384 . S
H3684 C3690 0.930 . S
H3685 C3694 0.930 . S
H3686 C3699 0.929 . S
H3687 C3697 0.929 . S
H3688 C3692 0.929 . S
H3689 C3698 0.929 . S
C3690 H3684 0.930 . S
C3690 C3691 1.367 . S
C3690 C3698 1.378 . S
C3691 C3690 1.367 . S
C3691 C3699 1.433 . S
C3692 H3688 0.929 . S
C3692 C3694 1.378 . S
C3692 C3696 1.350 . S
C3693 C3696 1.463 . S
C3693 C3698 1.350 . S
C3693 N3701 1.427 . S
C3694 H3685 0.930 . S
C3694 C3692 1.378 . S
C3694 C3695 1.367 . S
C3695 C3694 1.367 . S
C3695 C3697 1.433 . S
C3696 C3692 1.350 . S
C3696 C3693 1.463 . S
C3696 N3700 1.427 . S
C3697 H3687 0.929 . S
C3697 C3695 1.433 . S
C3697 N3700 1.384 . S
C3698 H3689 0.929 . S
C3698 C3690 1.378 . S
C3698 C3693 1.350 . S
C3699 H3686 0.929 . S
C3699 C3691 1.433 . S
C3699 N3701 1.384 . S
N3700 C3696 1.427 . S
N3700 C3697 1.384 . S
N3701 C3693 1.427 . S
N3701 C3699 1.384 . S
H3702 C3708 0.930 . S
H3703 C3712 0.930 . S
H3704 C3717 0.929 . S
H3705 C3715 0.929 . S
H3706 C3710 0.929 . S
H3707 C3716 0.929 . S
C3708 H3702 0.930 . S
C3708 C3709 1.367 . S
C3708 C3716 1.378 . S
C3709 C3708 1.367 . S
C3709 C3717 1.433 . S
C3710 H3706 0.929 . S
C3710 C3712 1.378 . S
C3710 C3714 1.350 . S
C3711 C3714 1.463 . S
C3711 C3716 1.350 . S
C3711 N3719 1.427 . S
C3712 H3703 0.930 . S
C3712 C3710 1.378 . S
C3712 C3713 1.367 . S
C3713 C3712 1.367 . S
C3713 C3715 1.433 . S
C3714 C3710 1.350 . S
C3714 C3711 1.463 . S
C3714 N3718 1.427 . S
C3715 H3705 0.929 . S
C3715 C3713 1.433 . S
C3715 N3718 1.384 . S
C3716 H3707 0.929 . S
C3716 C3708 1.378 . S
C3716 C3711 1.350 . S
C3717 H3704 0.929 . S
C3717 C3709 1.433 . S
C3717 N3719 1.384 . S
N3718 C3714 1.427 . S
N3718 C3715 1.384 . S
N3719 C3711 1.427 . S
N3719 C3717 1.384 . S
H3720 C3726 0.930 . S
H3721 C3730 0.930 . S
H3722 C3735 0.929 . S
H3723 C3733 0.929 . S
H3724 C3728 0.929 . S
H3725 C3734 0.929 . S
C3726 H3720 0.930 . S
C3726 C3727 1.367 . S
C3726 C3734 1.378 . S
C3727 C3726 1.367 . S
C3727 C3735 1.433 . S
C3728 H3724 0.929 . S
C3728 C3730 1.378 . S
C3728 C3732 1.350 . S
C3729 C3732 1.463 . S
C3729 C3734 1.350 . S
C3729 N3737 1.427 . S
C3730 H3721 0.930 . S
C3730 C3728 1.378 . S
C3730 C3731 1.367 . S
C3731 C3730 1.367 . S
C3731 C3733 1.433 . S
C3732 C3728 1.350 . S
C3732 C3729 1.463 . S
C3732 N3736 1.427 . S
C3733 H3723 0.929 . S
C3733 C3731 1.433 . S
C3733 N3736 1.384 . S
C3734 H3725 0.929 . S
C3734 C3726 1.378 . S
C3734 C3729 1.350 . S
C3735 H3722 0.929 . S
C3735 C3727 1.433 . S
C3735 N3737 1.384 . S
N3736 C3732 1.427 . S
N3736 C3733 1.384 . S
N3737 C3729 1.427 . S
N3737 C3735 1.384 . S
H3738 C3744 0.930 . S
H3739 C3748 0.930 . S
H3740 C3753 0.929 . S
H3741 C3751 0.929 . S
H3742 C3746 0.929 . S
H3743 C3752 0.929 . S
C3744 H3738 0.930 . S
C3744 C3745 1.367 . S
C3744 C3752 1.378 . S
C3745 C3744 1.367 . S
C3745 C3753 1.433 . S
C3746 H3742 0.929 . S
C3746 C3748 1.378 . S
C3746 C3750 1.350 . S
C3747 C3750 1.463 . S
C3747 C3752 1.350 . S
C3747 N3755 1.427 . S
C3748 H3739 0.930 . S
C3748 C3746 1.378 . S
C3748 C3749 1.367 . S
C3749 C3748 1.367 . S
C3749 C3751 1.433 . S
C3750 C3746 1.350 . S
C3750 C3747 1.463 . S
C3750 N3754 1.427 . S
C3751 H3741 0.929 . S
C3751 C3749 1.433 . S
C3751 N3754 1.384 . S
C3752 H3743 0.929 . S
C3752 C3744 1.378 . S
C3752 C3747 1.350 . S
C3753 H3740 0.929 . S
C3753 C3745 1.433 . S
C3753 N3755 1.384 . S
N3754 C3750 1.427 . S
N3754 C3751 1.384 . S
N3755 C3747 1.427 . S
N3755 C3753 1.384 . S
H3756 C3762 0.930 . S
H3757 C3766 0.930 . S
H3758 C3771 0.929 . S
H3759 C3769 0.929 . S
H3760 C3764 0.929 . S
H3761 C3770 0.929 . S
C3762 H3756 0.930 . S
C3762 C3763 1.367 . S
C3762 C3770 1.378 . S
C3763 C3762 1.367 . S
C3763 C3771 1.433 . S
C3764 H3760 0.929 . S
C3764 C3766 1.378 . S
C3764 C3768 1.350 . S
C3765 C3768 1.463 . S
C3765 C3770 1.350 . S
C3765 N3773 1.427 . S
C3766 H3757 0.930 . S
C3766 C3764 1.378 . S
C3766 C3767 1.367 . S
C3767 C3766 1.367 . S
C3767 C3769 1.433 . S
C3768 C3764 1.350 . S
C3768 C3765 1.463 . S
C3768 N3772 1.427 . S
C3769 H3759 0.929 . S
C3769 C3767 1.433 . S
C3769 N3772 1.384 . S
C3770 H3761 0.929 . S
C3770 C3762 1.378 . S
C3770 C3765 1.350 . S
C3771 H3758 0.929 . S
C3771 C3763 1.433 . S
C3771 N3773 1.384 . S
N3772 C3768 1.427 . S
N3772 C3769 1.384 . S
N3773 C3765 1.427 . S
N3773 C3771 1.384 . S
H3774 C3780 0.930 . S
H3775 C3784 0.930 . S
H3776 C3789 0.929 . S
H3777 C3787 0.929 . S
H3778 C3782 0.929 . S
H3779 C3788 0.929 . S
C3780 H3774 0.930 . S
C3780 C3781 1.367 . S
C3780 C3788 1.378 . S
C3781 C3780 1.367 . S
C3781 C3789 1.433 . S
C3782 H3778 0.929 . S
C3782 C3784 1.378 . S
C3782 C3786 1.350 . S
C3783 C3786 1.463 . S
C3783 C3788 1.350 . S
C3783 N3791 1.427 . S
C3784 H3775 0.930 . S
C3784 C3782 1.378 . S
C3784 C3785 1.367 . S
C3785 C3784 1.367 . S
C3785 C3787 1.433 . S
C3786 C3782 1.350 . S
C3786 C3783 1.463 . S
C3786 N3790 1.427 . S
C3787 H3777 0.929 . S
C3787 C3785 1.433 . S
C3787 N3790 1.384 . S
C3788 H3779 0.929 . S
C3788 C3780 1.378 . S
C3788 C3783 1.350 . S
C3789 H3776 0.929 . S
C3789 C3781 1.433 . S
C3789 N3791 1.384 . S
N3790 C3786 1.427 . S
N3790 C3787 1.384 . S
N3791 C3783 1.427 . S
N3791 C3789 1.384 . S
H3792 C3798 0.930 . S
H3793 C3802 0.930 . S
H3794 C3807 0.929 . S
H3795 C3805 0.929 . S
H3796 C3800 0.929 . S
H3797 C3806 0.929 . S
C3798 H3792 0.930 . S
C3798 C3799 1.367 . S
C3798 C3806 1.378 . S
C3799 C3798 1.367 . S
C3799 C3807 1.433 . S
C3800 H3796 0.929 . S
C3800 C3802 1.378 . S
C3800 C3804 1.350 . S
C3801 C3804 1.463 . S
C3801 C3806 1.350 . S
C3801 N3809 1.427 . S
C3802 H3793 0.930 . S
C3802 C3800 1.378 . S
C3802 C3803 1.367 . S
C3803 C3802 1.367 . S
C3803 C3805 1.433 . S
C3804 C3800 1.350 . S
C3804 C3801 1.463 . S
C3804 N3808 1.427 . S
C3805 H3795 0.929 . S
C3805 C3803 1.433 . S
C3805 N3808 1.384 . S
C3806 H3797 0.929 . S
C3806 C3798 1.378 . S
C3806 C3801 1.350 . S
C3807 H3794 0.929 . S
C3807 C3799 1.433 . S
C3807 N3809 1.384 . S
N3808 C3804 1.427 . S
N3808 C3805 1.384 . S
N3809 C3801 1.427 . S
N3809 C3807 1.384 . S
H3810 C3816 0.930 . S
H3811 C3820 0.930 . S
H3812 C3825 0.929 . S
H3813 C3823 0.929 . S
H3814 C3818 0.929 . S
H3815 C3824 0.929 . S
C3816 H3810 0.930 . S
C3816 C3817 1.367 . S
C3816 C3824 1.378 . S
C3817 C3816 1.367 . S
C3817 C3825 1.433 . S
C3818 H3814 0.929 . S
C3818 C3820 1.378 . S
C3818 C3822 1.350 . S
C3819 C3822 1.463 . S
C3819 C3824 1.350 . S
C3819 N3827 1.427 . S
C3820 H3811 0.930 . S
C3820 C3818 1.378 . S
C3820 C3821 1.367 . S
C3821 C3820 1.367 . S
C3821 C3823 1.433 . S
C3822 C3818 1.350 . S
C3822 C3819 1.463 . S
C3822 N3826 1.427 . S
C3823 H3813 0.929 . S
C3823 C3821 1.433 . S
C3823 N3826 1.384 . S
C3824 H3815 0.929 . S
C3824 C3816 1.378 . S
C3824 C3819 1.350 . S
C3825 H3812 0.929 . S
C3825 C3817 1.433 . S
C3825 N3827 1.384 . S
N3826 C3822 1.427 . S
N3826 C3823 1.384 . S
N3827 C3819 1.427 . S
N3827 C3825 1.384 . S
H3828 C3834 0.930 . S
H3829 C3838 0.930 . S
H3830 C3843 0.929 . S
H3831 C3841 0.929 . S
H3832 C3836 0.929 . S
H3833 C3842 0.929 . S
C3834 H3828 0.930 . S
C3834 C3835 1.367 . S
C3834 C3842 1.378 . S
C3835 C3834 1.367 . S
C3835 C3843 1.433 . S
C3836 H3832 0.929 . S
C3836 C3838 1.378 . S
C3836 C3840 1.350 . S
C3837 C3840 1.463 . S
C3837 C3842 1.350 . S
C3837 N3845 1.427 . S
C3838 H3829 0.930 . S
C3838 C3836 1.378 . S
C3838 C3839 1.367 . S
C3839 C3838 1.367 . S
C3839 C3841 1.433 . S
C3840 C3836 1.350 . S
C3840 C3837 1.463 . S
C3840 N3844 1.427 . S
C3841 H3831 0.929 . S
C3841 C3839 1.433 . S
C3841 N3844 1.384 . S
C3842 H3833 0.929 . S
C3842 C3834 1.378 . S
C3842 C3837 1.350 . S
C3843 H3830 0.929 . S
C3843 C3835 1.433 . S
C3843 N3845 1.384 . S
N3844 C3840 1.427 . S
N3844 C3841 1.384 . S
N3845 C3837 1.427 . S
N3845 C3843 1.384 . S
H3846 C3852 0.930 . S
H3847 C3856 0.930 . S
H3848 C3861 0.929 . S
H3849 C3859 0.929 . S
H3850 C3854 0.929 . S
H3851 C3860 0.929 . S
C3852 H3846 0.930 . S
C3852 C3853 1.367 . S
C3852 C3860 1.378 . S
C3853 C3852 1.367 . S
C3853 C3861 1.433 . S
C3854 H3850 0.929 . S
C3854 C3856 1.378 . S
C3854 C3858 1.350 . S
C3855 C3858 1.463 . S
C3855 C3860 1.350 . S
C3855 N3863 1.427 . S
C3856 H3847 0.930 . S
C3856 C3854 1.378 . S
C3856 C3857 1.367 . S
C3857 C3856 1.367 . S
C3857 C3859 1.433 . S
C3858 C3854 1.350 . S
C3858 C3855 1.463 . S
C3858 N3862 1.427 . S
C3859 H3849 0.929 . S
C3859 C3857 1.433 . S
C3859 N3862 1.384 . S
C3860 H3851 0.929 . S
C3860 C3852 1.378 . S
C3860 C3855 1.350 . S
C3861 H3848 0.929 . S
C3861 C3853 1.433 . S
C3861 N3863 1.384 . S
N3862 C3858 1.427 . S
N3862 C3859 1.384 . S
N3863 C3855 1.427 . S
N3863 C3861 1.384 . S
H3864 C3870 0.930 . S
H3865 C3874 0.930 . S
H3866 C3879 0.929 . S
H3867 C3877 0.929 . S
H3868 C3872 0.929 . S
H3869 C3878 0.929 . S
C3870 H3864 0.930 . S
C3870 C3871 1.367 . S
C3870 C3878 1.378 . S
C3871 C3870 1.367 . S
C3871 C3879 1.433 . S
C3872 H3868 0.929 . S
C3872 C3874 1.378 . S
C3872 C3876 1.350 . S
C3873 C3876 1.463 . S
C3873 C3878 1.350 . S
C3873 N3881 1.427 . S
C3874 H3865 0.930 . S
C3874 C3872 1.378 . S
C3874 C3875 1.367 . S
C3875 C3874 1.367 . S
C3875 C3877 1.433 . S
C3876 C3872 1.350 . S
C3876 C3873 1.463 . S
C3876 N3880 1.427 . S
C3877 H3867 0.929 . S
C3877 C3875 1.433 . S
C3877 N3880 1.384 . S
C3878 H3869 0.929 . S
C3878 C3870 1.378 . S
C3878 C3873 1.350 . S
C3879 H3866 0.929 . S
C3879 C3871 1.433 . S
C3879 N3881 1.384 . S
N3880 C3876 1.427 . S
N3880 C3877 1.384 . S
N3881 C3873 1.427 . S
N3881 C3879 1.384 . S
H3882 C3888 0.930 . S
H3883 C3892 0.930 . S
H3884 C3897 0.929 . S
H3885 C3895 0.929 . S
H3886 C3890 0.929 . S
H3887 C3896 0.929 . S
C3888 H3882 0.930 . S
C3888 C3889 1.367 . S
C3888 C3896 1.378 . S
C3889 C3888 1.367 . S
C3889 C3897 1.433 . S
C3890 H3886 0.929 . S
C3890 C3892 1.378 . S
C3890 C3894 1.350 . S
C3891 C3894 1.463 . S
C3891 C3896 1.350 . S
C3891 N3899 1.427 . S
C3892 H3883 0.930 . S
C3892 C3890 1.378 . S
C3892 C3893 1.367 . S
C3893 C3892 1.367 . S
C3893 C3895 1.433 . S
C3894 C3890 1.350 . S
C3894 C3891 1.463 . S
C3894 N3898 1.427 . S
C3895 H3885 0.929 . S
C3895 C3893 1.433 . S
C3895 N3898 1.384 . S
C3896 H3887 0.929 . S
C3896 C3888 1.378 . S
C3896 C3891 1.350 . S
C3897 H3884 0.929 . S
C3897 C3889 1.433 . S
C3897 N3899 1.384 . S
N3898 C3894 1.427 . S
N3898 C3895 1.384 . S
N3899 C3891 1.427 . S
N3899 C3897 1.384 . S
H3900 C3906 0.930 . S
H3901 C3910 0.930 . S
H3902 C3915 0.929 . S
H3903 C3913 0.929 . S
H3904 C3908 0.929 . S
H3905 C3914 0.929 . S
C3906 H3900 0.930 . S
C3906 C3907 1.367 . S
C3906 C3914 1.378 . S
C3907 C3906 1.367 . S
C3907 C3915 1.433 . S
C3908 H3904 0.929 . S
C3908 C3910 1.378 . S
C3908 C3912 1.350 . S
C3909 C3912 1.463 . S
C3909 C3914 1.350 . S
C3909 N3917 1.427 . S
C3910 H3901 0.930 . S
C3910 C3908 1.378 . S
C3910 C3911 1.367 . S
C3911 C3910 1.367 . S
C3911 C3913 1.433 . S
C3912 C3908 1.350 . S
C3912 C3909 1.463 . S
C3912 N3916 1.427 . S
C3913 H3903 0.929 . S
C3913 C3911 1.433 . S
C3913 N3916 1.384 . S
C3914 H3905 0.929 . S
C3914 C3906 1.378 . S
C3914 C3909 1.350 . S
C3915 H3902 0.929 . S
C3915 C3907 1.433 . S
C3915 N3917 1.384 . S
N3916 C3912 1.427 . S
N3916 C3913 1.384 . S
N3917 C3909 1.427 . S
N3917 C3915 1.384 . S
H3918 C3924 0.930 . S
H3919 C3928 0.930 . S
H3920 C3933 0.929 . S
H3921 C3931 0.929 . S
H3922 C3926 0.929 . S
H3923 C3932 0.929 . S
C3924 H3918 0.930 . S
C3924 C3925 1.367 . S
C3924 C3932 1.378 . S
C3925 C3924 1.367 . S
C3925 C3933 1.433 . S
C3926 H3922 0.929 . S
C3926 C3928 1.378 . S
C3926 C3930 1.350 . S
C3927 C3930 1.463 . S
C3927 C3932 1.350 . S
C3927 N3935 1.427 . S
C3928 H3919 0.930 . S
C3928 C3926 1.378 . S
C3928 C3929 1.367 . S
C3929 C3928 1.367 . S
C3929 C3931 1.433 . S
C3930 C3926 1.350 . S
C3930 C3927 1.463 . S
C3930 N3934 1.427 . S
C3931 H3921 0.929 . S
C3931 C3929 1.433 . S
C3931 N3934 1.384 . S
C3932 H3923 0.929 . S
C3932 C3924 1.378 . S
C3932 C3927 1.350 . S
C3933 H3920 0.929 . S
C3933 C3925 1.433 . S
C3933 N3935 1.384 . S
N3934 C3930 1.427 . S
N3934 C3931 1.384 . S
N3935 C3927 1.427 . S
N3935 C3933 1.384 . S
H3936 C3942 0.930 . S
H3937 C3946 0.930 . S
H3938 C3951 0.929 . S
H3939 C3949 0.929 . S
H3940 C3944 0.929 . S
H3941 C3950 0.929 . S
C3942 H3936 0.930 . S
C3942 C3943 1.367 . S
C3942 C3950 1.378 . S
C3943 C3942 1.367 . S
C3943 C3951 1.433 . S
C3944 H3940 0.929 . S
C3944 C3946 1.378 . S
C3944 C3948 1.350 . S
C3945 C3948 1.463 . S
C3945 C3950 1.350 . S
C3945 N3953 1.427 . S
C3946 H3937 0.930 . S
C3946 C3944 1.378 . S
C3946 C3947 1.367 . S
C3947 C3946 1.367 . S
C3947 C3949 1.433 . S
C3948 C3944 1.350 . S
C3948 C3945 1.463 . S
C3948 N3952 1.427 . S
C3949 H3939 0.929 . S
C3949 C3947 1.433 . S
C3949 N3952 1.384 . S
C3950 H3941 0.929 . S
C3950 C3942 1.378 . S
C3950 C3945 1.350 . S
C3951 H3938 0.929 . S
C3951 C3943 1.433 . S
C3951 N3953 1.384 . S
N3952 C3948 1.427 . S
N3952 C3949 1.384 . S
N3953 C3945 1.427 . S
N3953 C3951 1.384 . S
H3954 C3960 0.930 . S
H3955 C3964 0.930 . S
H3956 C3969 0.929 . S
H3957 C3967 0.929 . S
H3958 C3962 0.929 . S
H3959 C3968 0.929 . S
C3960 H3954 0.930 . S
C3960 C3961 1.367 . S
C3960 C3968 1.378 . S
C3961 C3960 1.367 . S
C3961 C3969 1.433 . S
C3962 H3958 0.929 . S
C3962 C3964 1.378 . S
C3962 C3966 1.350 . S
C3963 C3966 1.463 . S
C3963 C3968 1.350 . S
C3963 N3971 1.427 . S
C3964 H3955 0.930 . S
C3964 C3962 1.378 . S
C3964 C3965 1.367 . S
C3965 C3964 1.367 . S
C3965 C3967 1.433 . S
C3966 C3962 1.350 . S
C3966 C3963 1.463 . S
C3966 N3970 1.427 . S
C3967 H3957 0.929 . S
C3967 C3965 1.433 . S
C3967 N3970 1.384 . S
C3968 H3959 0.929 . S
C3968 C3960 1.378 . S
C3968 C3963 1.350 . S
C3969 H3956 0.929 . S
C3969 C3961 1.433 . S
C3969 N3971 1.384 . S
N3970 C3966 1.427 . S
N3970 C3967 1.384 . S
N3971 C3963 1.427 . S
N3971 C3969 1.384 . S
H3972 C3978 0.930 . S
H3973 C3982 0.930 . S
H3974 C3987 0.929 . S
H3975 C3985 0.929 . S
H3976 C3980 0.929 . S
H3977 C3986 0.929 . S
C3978 H3972 0.930 . S
C3978 C3979 1.367 . S
C3978 C3986 1.378 . S
C3979 C3978 1.367 . S
C3979 C3987 1.433 . S
C3980 H3976 0.929 . S
C3980 C3982 1.378 . S
C3980 C3984 1.350 . S
C3981 C3984 1.463 . S
C3981 C3986 1.350 . S
C3981 N3989 1.427 . S
C3982 H3973 0.930 . S
C3982 C3980 1.378 . S
C3982 C3983 1.367 . S
C3983 C3982 1.367 . S
C3983 C3985 1.433 . S
C3984 C3980 1.350 . S
C3984 C3981 1.463 . S
C3984 N3988 1.427 . S
C3985 H3975 0.929 . S
C3985 C3983 1.433 . S
C3985 N3988 1.384 . S
C3986 H3977 0.929 . S
C3986 C3978 1.378 . S
C3986 C3981 1.350 . S
C3987 H3974 0.929 . S
C3987 C3979 1.433 . S
C3987 N3989 1.384 . S
N3988 C3984 1.427 . S
N3988 C3985 1.384 . S
N3989 C3981 1.427 . S
N3989 C3987 1.384 . S
H3990 C3996 0.930 . S
H3991 C4000 0.930 . S
H3992 C4005 0.929 . S
H3993 C4003 0.929 . S
H3994 C3998 0.929 . S
H3995 C4004 0.929 . S
C3996 H3990 0.930 . S
C3996 C3997 1.367 . S
C3996 C4004 1.378 . S
C3997 C3996 1.367 . S
C3997 C4005 1.433 . S
C3998 H3994 0.929 . S
C3998 C4000 1.378 . S
C3998 C4002 1.350 . S
C3999 C4002 1.463 . S
C3999 C4004 1.350 . S
C3999 N4007 1.427 . S
C4000 H3991 0.930 . S
C4000 C3998 1.378 . S
C4000 C4001 1.367 . S
C4001 C4000 1.367 . S
C4001 C4003 1.433 . S
C4002 C3998 1.350 . S
C4002 C3999 1.463 . S
C4002 N4006 1.427 . S
C4003 H3993 0.929 . S
C4003 C4001 1.433 . S
C4003 N4006 1.384 . S
C4004 H3995 0.929 . S
C4004 C3996 1.378 . S
C4004 C3999 1.350 . S
C4005 H3992 0.929 . S
C4005 C3997 1.433 . S
C4005 N4007 1.384 . S
N4006 C4002 1.427 . S
N4006 C4003 1.384 . S
N4007 C3999 1.427 . S
N4007 C4005 1.384 . S
H4008 C4014 0.930 . S
H4009 C4018 0.930 . S
H4010 C4023 0.929 . S
H4011 C4021 0.929 . S
H4012 C4016 0.929 . S
H4013 C4022 0.929 . S
C4014 H4008 0.930 . S
C4014 C4015 1.367 . S
C4014 C4022 1.378 . S
C4015 C4014 1.367 . S
C4015 C4023 1.433 . S
C4016 H4012 0.929 . S
C4016 C4018 1.378 . S
C4016 C4020 1.350 . S
C4017 C4020 1.463 . S
C4017 C4022 1.350 . S
C4017 N4025 1.427 . S
C4018 H4009 0.930 . S
C4018 C4016 1.378 . S
C4018 C4019 1.367 . S
C4019 C4018 1.367 . S
C4019 C4021 1.433 . S
C4020 C4016 1.350 . S
C4020 C4017 1.463 . S
C4020 N4024 1.427 . S
C4021 H4011 0.929 . S
C4021 C4019 1.433 . S
C4021 N4024 1.384 . S
C4022 H4013 0.929 . S
C4022 C4014 1.378 . S
C4022 C4017 1.350 . S
C4023 H4010 0.929 . S
C4023 C4015 1.433 . S
C4023 N4025 1.384 . S
N4024 C4020 1.427 . S
N4024 C4021 1.384 . S
N4025 C4017 1.427 . S
N4025 C4023 1.384 . S
H4026 C4032 0.930 . S
H4027 C4036 0.930 . S
H4028 C4041 0.929 . S
H4029 C4039 0.929 . S
H4030 C4034 0.929 . S
H4031 C4040 0.929 . S
C4032 H4026 0.930 . S
C4032 C4033 1.367 . S
C4032 C4040 1.378 . S
C4033 C4032 1.367 . S
C4033 C4041 1.433 . S
C4034 H4030 0.929 . S
C4034 C4036 1.378 . S
C4034 C4038 1.350 . S
C4035 C4038 1.463 . S
C4035 C4040 1.350 . S
C4035 N4043 1.427 . S
C4036 H4027 0.930 . S
C4036 C4034 1.378 . S
C4036 C4037 1.367 . S
C4037 C4036 1.367 . S
C4037 C4039 1.433 . S
C4038 C4034 1.350 . S
C4038 C4035 1.463 . S
C4038 N4042 1.427 . S
C4039 H4029 0.929 . S
C4039 C4037 1.433 . S
C4039 N4042 1.384 . S
C4040 H4031 0.929 . S
C4040 C4032 1.378 . S
C4040 C4035 1.350 . S
C4041 H4028 0.929 . S
C4041 C4033 1.433 . S
C4041 N4043 1.384 . S
N4042 C4038 1.427 . S
N4042 C4039 1.384 . S
N4043 C4035 1.427 . S
N4043 C4041 1.384 . S
H4044 C4050 0.930 . S
H4045 C4054 0.930 . S
H4046 C4059 0.929 . S
H4047 C4057 0.929 . S
H4048 C4052 0.929 . S
H4049 C4058 0.929 . S
C4050 H4044 0.930 . S
C4050 C4051 1.367 . S
C4050 C4058 1.378 . S
C4051 C4050 1.367 . S
C4051 C4059 1.433 . S
C4052 H4048 0.929 . S
C4052 C4054 1.378 . S
C4052 C4056 1.350 . S
C4053 C4056 1.463 . S
C4053 C4058 1.350 . S
C4053 N4061 1.427 . S
C4054 H4045 0.930 . S
C4054 C4052 1.378 . S
C4054 C4055 1.367 . S
C4055 C4054 1.367 . S
C4055 C4057 1.433 . S
C4056 C4052 1.350 . S
C4056 C4053 1.463 . S
C4056 N4060 1.427 . S
C4057 H4047 0.929 . S
C4057 C4055 1.433 . S
C4057 N4060 1.384 . S
C4058 H4049 0.929 . S
C4058 C4050 1.378 . S
C4058 C4053 1.350 . S
C4059 H4046 0.929 . S
C4059 C4051 1.433 . S
C4059 N4061 1.384 . S
N4060 C4056 1.427 . S
N4060 C4057 1.384 . S
N4061 C4053 1.427 . S
N4061 C4059 1.384 . S
H4062 C4068 0.930 . S
H4063 C4072 0.930 . S
H4064 C4077 0.929 . S
H4065 C4075 0.929 . S
H4066 C4070 0.929 . S
H4067 C4076 0.929 . S
C4068 H4062 0.930 . S
C4068 C4069 1.367 . S
C4068 C4076 1.378 . S
C4069 C4068 1.367 . S
C4069 C4077 1.433 . S
C4070 H4066 0.929 . S
C4070 C4072 1.378 . S
C4070 C4074 1.350 . S
C4071 C4074 1.463 . S
C4071 C4076 1.350 . S
C4071 N4079 1.427 . S
C4072 H4063 0.930 . S
C4072 C4070 1.378 . S
C4072 C4073 1.367 . S
C4073 C4072 1.367 . S
C4073 C4075 1.433 . S
C4074 C4070 1.350 . S
C4074 C4071 1.463 . S
C4074 N4078 1.427 . S
C4075 H4065 0.929 . S
C4075 C4073 1.433 . S
C4075 N4078 1.384 . S
C4076 H4067 0.929 . S
C4076 C4068 1.378 . S
C4076 C4071 1.350 . S
C4077 H4064 0.929 . S
C4077 C4069 1.433 . S
C4077 N4079 1.384 . S
N4078 C4074 1.427 . S
N4078 C4075 1.384 . S
N4079 C4071 1.427 . S
N4079 C4077 1.384 . S
H4080 C4086 0.930 . S
H4081 C4090 0.930 . S
H4082 C4095 0.929 . S
H4083 C4093 0.929 . S
H4084 C4088 0.929 . S
H4085 C4094 0.929 . S
C4086 H4080 0.930 . S
C4086 C4087 1.367 . S
C4086 C4094 1.378 . S
C4087 C4086 1.367 . S
C4087 C4095 1.433 . S
C4088 H4084 0.929 . S
C4088 C4090 1.378 . S
C4088 C4092 1.350 . S
C4089 C4092 1.463 . S
C4089 C4094 1.350 . S
C4089 N4097 1.427 . S
C4090 H4081 0.930 . S
C4090 C4088 1.378 . S
C4090 C4091 1.367 . S
C4091 C4090 1.367 . S
C4091 C4093 1.433 . S
C4092 C4088 1.350 . S
C4092 C4089 1.463 . S
C4092 N4096 1.427 . S
C4093 H4083 0.929 . S
C4093 C4091 1.433 . S
C4093 N4096 1.384 . S
C4094 H4085 0.929 . S
C4094 C4086 1.378 . S
C4094 C4089 1.350 . S
C4095 H4082 0.929 . S
C4095 C4087 1.433 . S
C4095 N4097 1.384 . S
N4096 C4092 1.427 . S
N4096 C4093 1.384 . S
N4097 C4089 1.427 . S
N4097 C4095 1.384 . S
H4098 C4104 0.930 . S
H4099 C4108 0.930 . S
H4100 C4113 0.929 . S
H4101 C4111 0.929 . S
H4102 C4106 0.929 . S
H4103 C4112 0.929 . S
C4104 H4098 0.930 . S
C4104 C4105 1.367 . S
C4104 C4112 1.378 . S
C4105 C4104 1.367 . S
C4105 C4113 1.433 . S
C4106 H4102 0.929 . S
C4106 C4108 1.378 . S
C4106 C4110 1.350 . S
C4107 C4110 1.463 . S
C4107 C4112 1.350 . S
C4107 N4115 1.427 . S
C4108 H4099 0.930 . S
C4108 C4106 1.378 . S
C4108 C4109 1.367 . S
C4109 C4108 1.367 . S
C4109 C4111 1.433 . S
C4110 C4106 1.350 . S
C4110 C4107 1.463 . S
C4110 N4114 1.427 . S
C4111 H4101 0.929 . S
C4111 C4109 1.433 . S
C4111 N4114 1.384 . S
C4112 H4103 0.929 . S
C4112 C4104 1.378 . S
C4112 C4107 1.350 . S
C4113 H4100 0.929 . S
C4113 C4105 1.433 . S
C4113 N4115 1.384 . S
N4114 C4110 1.427 . S
N4114 C4111 1.384 . S
N4115 C4107 1.427 . S
N4115 C4113 1.384 . S
H4116 C4122 0.930 . S
H4117 C4126 0.930 . S
H4118 C4131 0.929 . S
H4119 C4129 0.929 . S
H4120 C4124 0.929 . S
H4121 C4130 0.929 . S
C4122 H4116 0.930 . S
C4122 C4123 1.367 . S
C4122 C4130 1.378 . S
C4123 C4122 1.367 . S
C4123 C4131 1.433 . S
C4124 H4120 0.929 . S
C4124 C4126 1.378 . S
C4124 C4128 1.350 . S
C4125 C4128 1.463 . S
C4125 C4130 1.350 . S
C4125 N4133 1.427 . S
C4126 H4117 0.930 . S
C4126 C4124 1.378 . S
C4126 C4127 1.367 . S
C4127 C4126 1.367 . S
C4127 C4129 1.433 . S
C4128 C4124 1.350 . S
C4128 C4125 1.463 . S
C4128 N4132 1.427 . S
C4129 H4119 0.929 . S
C4129 C4127 1.433 . S
C4129 N4132 1.384 . S
C4130 H4121 0.929 . S
C4130 C4122 1.378 . S
C4130 C4125 1.350 . S
C4131 H4118 0.929 . S
C4131 C4123 1.433 . S
C4131 N4133 1.384 . S
N4132 C4128 1.427 . S
N4132 C4129 1.384 . S
N4133 C4125 1.427 . S
N4133 C4131 1.384 . S
H4134 C4140 0.930 . S
H4135 C4144 0.930 . S
H4136 C4149 0.929 . S
H4137 C4147 0.929 . S
H4138 C4142 0.929 . S
H4139 C4148 0.929 . S
C4140 H4134 0.930 . S
C4140 C4141 1.367 . S
C4140 C4148 1.378 . S
C4141 C4140 1.367 . S
C4141 C4149 1.433 . S
C4142 H4138 0.929 . S
C4142 C4144 1.378 . S
C4142 C4146 1.350 . S
C4143 C4146 1.463 . S
C4143 C4148 1.350 . S
C4143 N4151 1.427 . S
C4144 H4135 0.930 . S
C4144 C4142 1.378 . S
C4144 C4145 1.367 . S
C4145 C4144 1.367 . S
C4145 C4147 1.433 . S
C4146 C4142 1.350 . S
C4146 C4143 1.463 . S
C4146 N4150 1.427 . S
C4147 H4137 0.929 . S
C4147 C4145 1.433 . S
C4147 N4150 1.384 . S
C4148 H4139 0.929 . S
C4148 C4140 1.378 . S
C4148 C4143 1.350 . S
C4149 H4136 0.929 . S
C4149 C4141 1.433 . S
C4149 N4151 1.384 . S
N4150 C4146 1.427 . S
N4150 C4147 1.384 . S
N4151 C4143 1.427 . S
N4151 C4149 1.384 . S
H4152 C4158 0.930 . S
H4153 C4162 0.930 . S
H4154 C4167 0.929 . S
H4155 C4165 0.929 . S
H4156 C4160 0.929 . S
H4157 C4166 0.929 . S
C4158 H4152 0.930 . S
C4158 C4159 1.367 . S
C4158 C4166 1.378 . S
C4159 C4158 1.367 . S
C4159 C4167 1.433 . S
C4160 H4156 0.929 . S
C4160 C4162 1.378 . S
C4160 C4164 1.350 . S
C4161 C4164 1.463 . S
C4161 C4166 1.350 . S
C4161 N4169 1.427 . S
C4162 H4153 0.930 . S
C4162 C4160 1.378 . S
C4162 C4163 1.367 . S
C4163 C4162 1.367 . S
C4163 C4165 1.433 . S
C4164 C4160 1.350 . S
C4164 C4161 1.463 . S
C4164 N4168 1.427 . S
C4165 H4155 0.929 . S
C4165 C4163 1.433 . S
C4165 N4168 1.384 . S
C4166 H4157 0.929 . S
C4166 C4158 1.378 . S
C4166 C4161 1.350 . S
C4167 H4154 0.929 . S
C4167 C4159 1.433 . S
C4167 N4169 1.384 . S
N4168 C4164 1.427 . S
N4168 C4165 1.384 . S
N4169 C4161 1.427 . S
N4169 C4167 1.384 . S
H4170 C4176 0.930 . S
H4171 C4180 0.930 . S
H4172 C4185 0.929 . S
H4173 C4183 0.929 . S
H4174 C4178 0.929 . S
H4175 C4184 0.929 . S
C4176 H4170 0.930 . S
C4176 C4177 1.367 . S
C4176 C4184 1.378 . S
C4177 C4176 1.367 . S
C4177 C4185 1.433 . S
C4178 H4174 0.929 . S
C4178 C4180 1.378 . S
C4178 C4182 1.350 . S
C4179 C4182 1.463 . S
C4179 C4184 1.350 . S
C4179 N4187 1.427 . S
C4180 H4171 0.930 . S
C4180 C4178 1.378 . S
C4180 C4181 1.367 . S
C4181 C4180 1.367 . S
C4181 C4183 1.433 . S
C4182 C4178 1.350 . S
C4182 C4179 1.463 . S
C4182 N4186 1.427 . S
C4183 H4173 0.929 . S
C4183 C4181 1.433 . S
C4183 N4186 1.384 . S
C4184 H4175 0.929 . S
C4184 C4176 1.378 . S
C4184 C4179 1.350 . S
C4185 H4172 0.929 . S
C4185 C4177 1.433 . S
C4185 N4187 1.384 . S
N4186 C4182 1.427 . S
N4186 C4183 1.384 . S
N4187 C4179 1.427 . S
N4187 C4185 1.384 . S
H4188 C4194 0.930 . S
H4189 C4198 0.930 . S
H4190 C4203 0.929 . S
H4191 C4201 0.929 . S
H4192 C4196 0.929 . S
H4193 C4202 0.929 . S
C4194 H4188 0.930 . S
C4194 C4195 1.367 . S
C4194 C4202 1.378 . S
C4195 C4194 1.367 . S
C4195 C4203 1.433 . S
C4196 H4192 0.929 . S
C4196 C4198 1.378 . S
C4196 C4200 1.350 . S
C4197 C4200 1.463 . S
C4197 C4202 1.350 . S
C4197 N4205 1.427 . S
C4198 H4189 0.930 . S
C4198 C4196 1.378 . S
C4198 C4199 1.367 . S
C4199 C4198 1.367 . S
C4199 C4201 1.433 . S
C4200 C4196 1.350 . S
C4200 C4197 1.463 . S
C4200 N4204 1.427 . S
C4201 H4191 0.929 . S
C4201 C4199 1.433 . S
C4201 N4204 1.384 . S
C4202 H4193 0.929 . S
C4202 C4194 1.378 . S
C4202 C4197 1.350 . S
C4203 H4190 0.929 . S
C4203 C4195 1.433 . S
C4203 N4205 1.384 . S
N4204 C4200 1.427 . S
N4204 C4201 1.384 . S
N4205 C4197 1.427 . S
N4205 C4203 1.384 . S
H4206 C4212 0.930 . S
H4207 C4216 0.930 . S
H4208 C4221 0.929 . S
H4209 C4219 0.929 . S
H4210 C4214 0.929 . S
H4211 C4220 0.929 . S
C4212 H4206 0.930 . S
C4212 C4213 1.367 . S
C4212 C4220 1.378 . S
C4213 C4212 1.367 . S
C4213 C4221 1.433 . S
C4214 H4210 0.929 . S
C4214 C4216 1.378 . S
C4214 C4218 1.350 . S
C4215 C4218 1.463 . S
C4215 C4220 1.350 . S
C4215 N4223 1.427 . S
C4216 H4207 0.930 . S
C4216 C4214 1.378 . S
C4216 C4217 1.367 . S
C4217 C4216 1.367 . S
C4217 C4219 1.433 . S
C4218 C4214 1.350 . S
C4218 C4215 1.463 . S
C4218 N4222 1.427 . S
C4219 H4209 0.929 . S
C4219 C4217 1.433 . S
C4219 N4222 1.384 . S
C4220 H4211 0.929 . S
C4220 C4212 1.378 . S
C4220 C4215 1.350 . S
C4221 H4208 0.929 . S
C4221 C4213 1.433 . S
C4221 N4223 1.384 . S
N4222 C4218 1.427 . S
N4222 C4219 1.384 . S
N4223 C4215 1.427 . S
N4223 C4221 1.384 . S
H4224 C4230 0.930 . S
H4225 C4234 0.930 . S
H4226 C4239 0.929 . S
H4227 C4237 0.929 . S
H4228 C4232 0.929 . S
H4229 C4238 0.929 . S
C4230 H4224 0.930 . S
C4230 C4231 1.367 . S
C4230 C4238 1.378 . S
C4231 C4230 1.367 . S
C4231 C4239 1.433 . S
C4232 H4228 0.929 . S
C4232 C4234 1.378 . S
C4232 C4236 1.350 . S
C4233 C4236 1.463 . S
C4233 C4238 1.350 . S
C4233 N4241 1.427 . S
C4234 H4225 0.930 . S
C4234 C4232 1.378 . S
C4234 C4235 1.367 . S
C4235 C4234 1.367 . S
C4235 C4237 1.433 . S
C4236 C4232 1.350 . S
C4236 C4233 1.463 . S
C4236 N4240 1.427 . S
C4237 H4227 0.929 . S
C4237 C4235 1.433 . S
C4237 N4240 1.384 . S
C4238 H4229 0.929 . S
C4238 C4230 1.378 . S
C4238 C4233 1.350 . S
C4239 H4226 0.929 . S
C4239 C4231 1.433 . S
C4239 N4241 1.384 . S
N4240 C4236 1.427 . S
N4240 C4237 1.384 . S
N4241 C4233 1.427 . S
N4241 C4239 1.384 . S
H4242 C4248 0.930 . S
H4243 C4252 0.930 . S
H4244 C4257 0.929 . S
H4245 C4255 0.929 . S
H4246 C4250 0.929 . S
H4247 C4256 0.929 . S
C4248 H4242 0.930 . S
C4248 C4249 1.367 . S
C4248 C4256 1.378 . S
C4249 C4248 1.367 . S
C4249 C4257 1.433 . S
C4250 H4246 0.929 . S
C4250 C4252 1.378 . S
C4250 C4254 1.350 . S
C4251 C4254 1.463 . S
C4251 C4256 1.350 . S
C4251 N4259 1.427 . S
C4252 H4243 0.930 . S
C4252 C4250 1.378 . S
C4252 C4253 1.367 . S
C4253 C4252 1.367 . S
C4253 C4255 1.433 . S
C4254 C4250 1.350 . S
C4254 C4251 1.463 . S
C4254 N4258 1.427 . S
C4255 H4245 0.929 . S
C4255 C4253 1.433 . S
C4255 N4258 1.384 . S
C4256 H4247 0.929 . S
C4256 C4248 1.378 . S
C4256 C4251 1.350 . S
C4257 H4244 0.929 . S
C4257 C4249 1.433 . S
C4257 N4259 1.384 . S
N4258 C4254 1.427 . S
N4258 C4255 1.384 . S
N4259 C4251 1.427 . S
N4259 C4257 1.384 . S
H4260 C4266 0.930 . S
H4261 C4270 0.930 . S
H4262 C4275 0.929 . S
H4263 C4273 0.929 . S
H4264 C4268 0.929 . S
H4265 C4274 0.929 . S
C4266 H4260 0.930 . S
C4266 C4267 1.367 . S
C4266 C4274 1.378 . S
C4267 C4266 1.367 . S
C4267 C4275 1.433 . S
C4268 H4264 0.929 . S
C4268 C4270 1.378 . S
C4268 C4272 1.350 . S
C4269 C4272 1.463 . S
C4269 C4274 1.350 . S
C4269 N4277 1.427 . S
C4270 H4261 0.930 . S
C4270 C4268 1.378 . S
C4270 C4271 1.367 . S
C4271 C4270 1.367 . S
C4271 C4273 1.433 . S
C4272 C4268 1.350 . S
C4272 C4269 1.463 . S
C4272 N4276 1.427 . S
C4273 H4263 0.929 . S
C4273 C4271 1.433 . S
C4273 N4276 1.384 . S
C4274 H4265 0.929 . S
C4274 C4266 1.378 . S
C4274 C4269 1.350 . S
C4275 H4262 0.929 . S
C4275 C4267 1.433 . S
C4275 N4277 1.384 . S
N4276 C4272 1.427 . S
N4276 C4273 1.384 . S
N4277 C4269 1.427 . S
N4277 C4275 1.384 . S
H4278 C4284 0.930 . S
H4279 C4288 0.930 . S
H4280 C4293 0.929 . S
H4281 C4291 0.929 . S
H4282 C4286 0.929 . S
H4283 C4292 0.929 . S
C4284 H4278 0.930 . S
C4284 C4285 1.367 . S
C4284 C4292 1.378 . S
C4285 C4284 1.367 . S
C4285 C4293 1.433 . S
C4286 H4282 0.929 . S
C4286 C4288 1.378 . S
C4286 C4290 1.350 . S
C4287 C4290 1.463 . S
C4287 C4292 1.350 . S
C4287 N4295 1.427 . S
C4288 H4279 0.930 . S
C4288 C4286 1.378 . S
C4288 C4289 1.367 . S
C4289 C4288 1.367 . S
C4289 C4291 1.433 . S
C4290 C4286 1.350 . S
C4290 C4287 1.463 . S
C4290 N4294 1.427 . S
C4291 H4281 0.929 . S
C4291 C4289 1.433 . S
C4291 N4294 1.384 . S
C4292 H4283 0.929 . S
C4292 C4284 1.378 . S
C4292 C4287 1.350 . S
C4293 H4280 0.929 . S
C4293 C4285 1.433 . S
C4293 N4295 1.384 . S
N4294 C4290 1.427 . S
N4294 C4291 1.384 . S
N4295 C4287 1.427 . S
N4295 C4293 1.384 . S
H4296 C4302 0.930 . S
H4297 C4306 0.930 . S
H4298 C4311 0.929 . S
H4299 C4309 0.929 . S
H4300 C4304 0.929 . S
H4301 C4310 0.929 . S
C4302 H4296 0.930 . S
C4302 C4303 1.367 . S
C4302 C4310 1.378 . S
C4303 C4302 1.367 . S
C4303 C4311 1.433 . S
C4304 H4300 0.929 . S
C4304 C4306 1.378 . S
C4304 C4308 1.350 . S
C4305 C4308 1.463 . S
C4305 C4310 1.350 . S
C4305 N4313 1.427 . S
C4306 H4297 0.930 . S
C4306 C4304 1.378 . S
C4306 C4307 1.367 . S
C4307 C4306 1.367 . S
C4307 C4309 1.433 . S
C4308 C4304 1.350 . S
C4308 C4305 1.463 . S
C4308 N4312 1.427 . S
C4309 H4299 0.929 . S
C4309 C4307 1.433 . S
C4309 N4312 1.384 . S
C4310 H4301 0.929 . S
C4310 C4302 1.378 . S
C4310 C4305 1.350 . S
C4311 H4298 0.929 . S
C4311 C4303 1.433 . S
C4311 N4313 1.384 . S
N4312 C4308 1.427 . S
N4312 C4309 1.384 . S
N4313 C4305 1.427 . S
N4313 C4311 1.384 . S
H4314 C4320 0.930 . S
H4315 C4324 0.930 . S
H4316 C4329 0.929 . S
H4317 C4327 0.929 . S
H4318 C4322 0.929 . S
H4319 C4328 0.929 . S
C4320 H4314 0.930 . S
C4320 C4321 1.367 . S
C4320 C4328 1.378 . S
C4321 C4320 1.367 . S
C4321 C4329 1.433 . S
C4322 H4318 0.929 . S
C4322 C4324 1.378 . S
C4322 C4326 1.350 . S
C4323 C4326 1.463 . S
C4323 C4328 1.350 . S
C4323 N4331 1.427 . S
C4324 H4315 0.930 . S
C4324 C4322 1.378 . S
C4324 C4325 1.367 . S
C4325 C4324 1.367 . S
C4325 C4327 1.433 . S
C4326 C4322 1.350 . S
C4326 C4323 1.463 . S
C4326 N4330 1.427 . S
C4327 H4317 0.929 . S
C4327 C4325 1.433 . S
C4327 N4330 1.384 . S
C4328 H4319 0.929 . S
C4328 C4320 1.378 . S
C4328 C4323 1.350 . S
C4329 H4316 0.929 . S
C4329 C4321 1.433 . S
C4329 N4331 1.384 . S
N4330 C4326 1.427 . S
N4330 C4327 1.384 . S
N4331 C4323 1.427 . S
N4331 C4329 1.384 . S
H4332 C4338 0.930 . S
H4333 C4342 0.930 . S
H4334 C4347 0.929 . S
H4335 C4345 0.929 . S
H4336 C4340 0.929 . S
H4337 C4346 0.929 . S
C4338 H4332 0.930 . S
C4338 C4339 1.367 . S
C4338 C4346 1.378 . S
C4339 C4338 1.367 . S
C4339 C4347 1.433 . S
C4340 H4336 0.929 . S
C4340 C4342 1.378 . S
C4340 C4344 1.350 . S
C4341 C4344 1.463 . S
C4341 C4346 1.350 . S
C4341 N4349 1.427 . S
C4342 H4333 0.930 . S
C4342 C4340 1.378 . S
C4342 C4343 1.367 . S
C4343 C4342 1.367 . S
C4343 C4345 1.433 . S
C4344 C4340 1.350 . S
C4344 C4341 1.463 . S
C4344 N4348 1.427 . S
C4345 H4335 0.929 . S
C4345 C4343 1.433 . S
C4345 N4348 1.384 . S
C4346 H4337 0.929 . S
C4346 C4338 1.378 . S
C4346 C4341 1.350 . S
C4347 H4334 0.929 . S
C4347 C4339 1.433 . S
C4347 N4349 1.384 . S
N4348 C4344 1.427 . S
N4348 C4345 1.384 . S
N4349 C4341 1.427 . S
N4349 C4347 1.384 . S
H4350 C4356 0.930 . S
H4351 C4360 0.930 . S
H4352 C4365 0.929 . S
H4353 C4363 0.929 . S
H4354 C4358 0.929 . S
H4355 C4364 0.929 . S
C4356 H4350 0.930 . S
C4356 C4357 1.367 . S
C4356 C4364 1.378 . S
C4357 C4356 1.367 . S
C4357 C4365 1.433 . S
C4358 H4354 0.929 . S
C4358 C4360 1.378 . S
C4358 C4362 1.350 . S
C4359 C4362 1.463 . S
C4359 C4364 1.350 . S
C4359 N4367 1.427 . S
C4360 H4351 0.930 . S
C4360 C4358 1.378 . S
C4360 C4361 1.367 . S
C4361 C4360 1.367 . S
C4361 C4363 1.433 . S
C4362 C4358 1.350 . S
C4362 C4359 1.463 . S
C4362 N4366 1.427 . S
C4363 H4353 0.929 . S
C4363 C4361 1.433 . S
C4363 N4366 1.384 . S
C4364 H4355 0.929 . S
C4364 C4356 1.378 . S
C4364 C4359 1.350 . S
C4365 H4352 0.929 . S
C4365 C4357 1.433 . S
C4365 N4367 1.384 . S
N4366 C4362 1.427 . S
N4366 C4363 1.384 . S
N4367 C4359 1.427 . S
N4367 C4365 1.384 . S
H4368 C4374 0.930 . S
H4369 C4378 0.930 . S
H4370 C4383 0.929 . S
H4371 C4381 0.929 . S
H4372 C4376 0.929 . S
H4373 C4382 0.929 . S
C4374 H4368 0.930 . S
C4374 C4375 1.367 . S
C4374 C4382 1.378 . S
C4375 C4374 1.367 . S
C4375 C4383 1.433 . S
C4376 H4372 0.929 . S
C4376 C4378 1.378 . S
C4376 C4380 1.350 . S
C4377 C4380 1.463 . S
C4377 C4382 1.350 . S
C4377 N4385 1.427 . S
C4378 H4369 0.930 . S
C4378 C4376 1.378 . S
C4378 C4379 1.367 . S
C4379 C4378 1.367 . S
C4379 C4381 1.433 . S
C4380 C4376 1.350 . S
C4380 C4377 1.463 . S
C4380 N4384 1.427 . S
C4381 H4371 0.929 . S
C4381 C4379 1.433 . S
C4381 N4384 1.384 . S
C4382 H4373 0.929 . S
C4382 C4374 1.378 . S
C4382 C4377 1.350 . S
C4383 H4370 0.929 . S
C4383 C4375 1.433 . S
C4383 N4385 1.384 . S
N4384 C4380 1.427 . S
N4384 C4381 1.384 . S
N4385 C4377 1.427 . S
N4385 C4383 1.384 . S
H4386 C4392 0.930 . S
H4387 C4396 0.930 . S
H4388 C4401 0.929 . S
H4389 C4399 0.929 . S
H4390 C4394 0.929 . S
H4391 C4400 0.929 . S
C4392 H4386 0.930 . S
C4392 C4393 1.367 . S
C4392 C4400 1.378 . S
C4393 C4392 1.367 . S
C4393 C4401 1.433 . S
C4394 H4390 0.929 . S
C4394 C4396 1.378 . S
C4394 C4398 1.350 . S
C4395 C4398 1.463 . S
C4395 C4400 1.350 . S
C4395 N4403 1.427 . S
C4396 H4387 0.930 . S
C4396 C4394 1.378 . S
C4396 C4397 1.367 . S
C4397 C4396 1.367 . S
C4397 C4399 1.433 . S
C4398 C4394 1.350 . S
C4398 C4395 1.463 . S
C4398 N4402 1.427 . S
C4399 H4389 0.929 . S
C4399 C4397 1.433 . S
C4399 N4402 1.384 . S
C4400 H4391 0.929 . S
C4400 C4392 1.378 . S
C4400 C4395 1.350 . S
C4401 H4388 0.929 . S
C4401 C4393 1.433 . S
C4401 N4403 1.384 . S
N4402 C4398 1.427 . S
N4402 C4399 1.384 . S
N4403 C4395 1.427 . S
N4403 C4401 1.384 . S
H4404 C4410 0.930 . S
H4405 C4414 0.930 . S
H4406 C4419 0.929 . S
H4407 C4417 0.929 . S
H4408 C4412 0.929 . S
H4409 C4418 0.929 . S
C4410 H4404 0.930 . S
C4410 C4411 1.367 . S
C4410 C4418 1.378 . S
C4411 C4410 1.367 . S
C4411 C4419 1.433 . S
C4412 H4408 0.929 . S
C4412 C4414 1.378 . S
C4412 C4416 1.350 . S
C4413 C4416 1.463 . S
C4413 C4418 1.350 . S
C4413 N4421 1.427 . S
C4414 H4405 0.930 . S
C4414 C4412 1.378 . S
C4414 C4415 1.367 . S
C4415 C4414 1.367 . S
C4415 C4417 1.433 . S
C4416 C4412 1.350 . S
C4416 C4413 1.463 . S
C4416 N4420 1.427 . S
C4417 H4407 0.929 . S
C4417 C4415 1.433 . S
C4417 N4420 1.384 . S
C4418 H4409 0.929 . S
C4418 C4410 1.378 . S
C4418 C4413 1.350 . S
C4419 H4406 0.929 . S
C4419 C4411 1.433 . S
C4419 N4421 1.384 . S
N4420 C4416 1.427 . S
N4420 C4417 1.384 . S
N4421 C4413 1.427 . S
N4421 C4419 1.384 . S
H4422 C4428 0.930 . S
H4423 C4432 0.930 . S
H4424 C4437 0.929 . S
H4425 C4435 0.929 . S
H4426 C4430 0.929 . S
H4427 C4436 0.929 . S
C4428 H4422 0.930 . S
C4428 C4429 1.367 . S
C4428 C4436 1.378 . S
C4429 C4428 1.367 . S
C4429 C4437 1.433 . S
C4430 H4426 0.929 . S
C4430 C4432 1.378 . S
C4430 C4434 1.350 . S
C4431 C4434 1.463 . S
C4431 C4436 1.350 . S
C4431 N4439 1.427 . S
C4432 H4423 0.930 . S
C4432 C4430 1.378 . S
C4432 C4433 1.367 . S
C4433 C4432 1.367 . S
C4433 C4435 1.433 . S
C4434 C4430 1.350 . S
C4434 C4431 1.463 . S
C4434 N4438 1.427 . S
C4435 H4425 0.929 . S
C4435 C4433 1.433 . S
C4435 N4438 1.384 . S
C4436 H4427 0.929 . S
C4436 C4428 1.378 . S
C4436 C4431 1.350 . S
C4437 H4424 0.929 . S
C4437 C4429 1.433 . S
C4437 N4439 1.384 . S
N4438 C4434 1.427 . S
N4438 C4435 1.384 . S
N4439 C4431 1.427 . S
N4439 C4437 1.384 . S
H4440 C4446 0.930 . S
H4441 C4450 0.930 . S
H4442 C4455 0.929 . S
H4443 C4453 0.929 . S
H4444 C4448 0.929 . S
H4445 C4454 0.929 . S
C4446 H4440 0.930 . S
C4446 C4447 1.367 . S
C4446 C4454 1.378 . S
C4447 C4446 1.367 . S
C4447 C4455 1.433 . S
C4448 H4444 0.929 . S
C4448 C4450 1.378 . S
C4448 C4452 1.350 . S
C4449 C4452 1.463 . S
C4449 C4454 1.350 . S
C4449 N4457 1.427 . S
C4450 H4441 0.930 . S
C4450 C4448 1.378 . S
C4450 C4451 1.367 . S
C4451 C4450 1.367 . S
C4451 C4453 1.433 . S
C4452 C4448 1.350 . S
C4452 C4449 1.463 . S
C4452 N4456 1.427 . S
C4453 H4443 0.929 . S
C4453 C4451 1.433 . S
C4453 N4456 1.384 . S
C4454 H4445 0.929 . S
C4454 C4446 1.378 . S
C4454 C4449 1.350 . S
C4455 H4442 0.929 . S
C4455 C4447 1.433 . S
C4455 N4457 1.384 . S
N4456 C4452 1.427 . S
N4456 C4453 1.384 . S
N4457 C4449 1.427 . S
N4457 C4455 1.384 . S
H4458 C4464 0.930 . S
H4459 C4468 0.930 . S
H4460 C4473 0.929 . S
H4461 C4471 0.929 . S
H4462 C4466 0.929 . S
H4463 C4472 0.929 . S
C4464 H4458 0.930 . S
C4464 C4465 1.367 . S
C4464 C4472 1.378 . S
C4465 C4464 1.367 . S
C4465 C4473 1.433 . S
C4466 H4462 0.929 . S
C4466 C4468 1.378 . S
C4466 C4470 1.350 . S
C4467 C4470 1.463 . S
C4467 C4472 1.350 . S
C4467 N4475 1.427 . S
C4468 H4459 0.930 . S
C4468 C4466 1.378 . S
C4468 C4469 1.367 . S
C4469 C4468 1.367 . S
C4469 C4471 1.433 . S
C4470 C4466 1.350 . S
C4470 C4467 1.463 . S
C4470 N4474 1.427 . S
C4471 H4461 0.929 . S
C4471 C4469 1.433 . S
C4471 N4474 1.384 . S
C4472 H4463 0.929 . S
C4472 C4464 1.378 . S
C4472 C4467 1.350 . S
C4473 H4460 0.929 . S
C4473 C4465 1.433 . S
C4473 N4475 1.384 . S
N4474 C4470 1.427 . S
N4474 C4471 1.384 . S
N4475 C4467 1.427 . S
N4475 C4473 1.384 . S
H4476 C4482 0.930 . S
H4477 C4486 0.930 . S
H4478 C4491 0.929 . S
H4479 C4489 0.929 . S
H4480 C4484 0.929 . S
H4481 C4490 0.929 . S
C4482 H4476 0.930 . S
C4482 C4483 1.367 . S
C4482 C4490 1.378 . S
C4483 C4482 1.367 . S
C4483 C4491 1.433 . S
C4484 H4480 0.929 . S
C4484 C4486 1.378 . S
C4484 C4488 1.350 . S
C4485 C4488 1.463 . S
C4485 C4490 1.350 . S
C4485 N4493 1.427 . S
C4486 H4477 0.930 . S
C4486 C4484 1.378 . S
C4486 C4487 1.367 . S
C4487 C4486 1.367 . S
C4487 C4489 1.433 . S
C4488 C4484 1.350 . S
C4488 C4485 1.463 . S
C4488 N4492 1.427 . S
C4489 H4479 0.929 . S
C4489 C4487 1.433 . S
C4489 N4492 1.384 . S
C4490 H4481 0.929 . S
C4490 C4482 1.378 . S
C4490 C4485 1.350 . S
C4491 H4478 0.929 . S
C4491 C4483 1.433 . S
C4491 N4493 1.384 . S
N4492 C4488 1.427 . S
N4492 C4489 1.384 . S
N4493 C4485 1.427 . S
N4493 C4491 1.384 . S
H4494 C4500 0.930 . S
H4495 C4504 0.930 . S
H4496 C4509 0.929 . S
H4497 C4507 0.929 . S
H4498 C4502 0.929 . S
H4499 C4508 0.929 . S
C4500 H4494 0.930 . S
C4500 C4501 1.367 . S
C4500 C4508 1.378 . S
C4501 C4500 1.367 . S
C4501 C4509 1.433 . S
C4502 H4498 0.929 . S
C4502 C4504 1.378 . S
C4502 C4506 1.350 . S
C4503 C4506 1.463 . S
C4503 C4508 1.350 . S
C4503 N4511 1.427 . S
C4504 H4495 0.930 . S
C4504 C4502 1.378 . S
C4504 C4505 1.367 . S
C4505 C4504 1.367 . S
C4505 C4507 1.433 . S
C4506 C4502 1.350 . S
C4506 C4503 1.463 . S
C4506 N4510 1.427 . S
C4507 H4497 0.929 . S
C4507 C4505 1.433 . S
C4507 N4510 1.384 . S
C4508 H4499 0.929 . S
C4508 C4500 1.378 . S
C4508 C4503 1.350 . S
C4509 H4496 0.929 . S
C4509 C4501 1.433 . S
C4509 N4511 1.384 . S
N4510 C4506 1.427 . S
N4510 C4507 1.384 . S
N4511 C4503 1.427 . S
N4511 C4509 1.384 . S
H4512 C4518 0.930 . S
H4513 C4522 0.930 . S
H4514 C4527 0.929 . S
H4515 C4525 0.929 . S
H4516 C4520 0.929 . S
H4517 C4526 0.929 . S
C4518 H4512 0.930 . S
C4518 C4519 1.367 . S
C4518 C4526 1.378 . S
C4519 C4518 1.367 . S
C4519 C4527 1.433 . S
C4520 H4516 0.929 . S
C4520 C4522 1.378 . S
C4520 C4524 1.350 . S
C4521 C4524 1.463 . S
C4521 C4526 1.350 . S
C4521 N4529 1.427 . S
C4522 H4513 0.930 . S
C4522 C4520 1.378 . S
C4522 C4523 1.367 . S
C4523 C4522 1.367 . S
C4523 C4525 1.433 . S
C4524 C4520 1.350 . S
C4524 C4521 1.463 . S
C4524 N4528 1.427 . S
C4525 H4515 0.929 . S
C4525 C4523 1.433 . S
C4525 N4528 1.384 . S
C4526 H4517 0.929 . S
C4526 C4518 1.378 . S
C4526 C4521 1.350 . S
C4527 H4514 0.929 . S
C4527 C4519 1.433 . S
C4527 N4529 1.384 . S
N4528 C4524 1.427 . S
N4528 C4525 1.384 . S
N4529 C4521 1.427 . S
N4529 C4527 1.384 . S
H4530 C4536 0.930 . S
H4531 C4540 0.930 . S
H4532 C4545 0.929 . S
H4533 C4543 0.929 . S
H4534 C4538 0.929 . S
H4535 C4544 0.929 . S
C4536 H4530 0.930 . S
C4536 C4537 1.367 . S
C4536 C4544 1.378 . S
C4537 C4536 1.367 . S
C4537 C4545 1.433 . S
C4538 H4534 0.929 . S
C4538 C4540 1.378 . S
C4538 C4542 1.350 . S
C4539 C4542 1.463 . S
C4539 C4544 1.350 . S
C4539 N4547 1.427 . S
C4540 H4531 0.930 . S
C4540 C4538 1.378 . S
C4540 C4541 1.367 . S
C4541 C4540 1.367 . S
C4541 C4543 1.433 . S
C4542 C4538 1.350 . S
C4542 C4539 1.463 . S
C4542 N4546 1.427 . S
C4543 H4533 0.929 . S
C4543 C4541 1.433 . S
C4543 N4546 1.384 . S
C4544 H4535 0.929 . S
C4544 C4536 1.378 . S
C4544 C4539 1.350 . S
C4545 H4532 0.929 . S
C4545 C4537 1.433 . S
C4545 N4547 1.384 . S
N4546 C4542 1.427 . S
N4546 C4543 1.384 . S
N4547 C4539 1.427 . S
N4547 C4545 1.384 . S
H4548 C4554 0.930 . S
H4549 C4558 0.930 . S
H4550 C4563 0.929 . S
H4551 C4561 0.929 . S
H4552 C4556 0.929 . S
H4553 C4562 0.929 . S
C4554 H4548 0.930 . S
C4554 C4555 1.367 . S
C4554 C4562 1.378 . S
C4555 C4554 1.367 . S
C4555 C4563 1.433 . S
C4556 H4552 0.929 . S
C4556 C4558 1.378 . S
C4556 C4560 1.350 . S
C4557 C4560 1.463 . S
C4557 C4562 1.350 . S
C4557 N4565 1.427 . S
C4558 H4549 0.930 . S
C4558 C4556 1.378 . S
C4558 C4559 1.367 . S
C4559 C4558 1.367 . S
C4559 C4561 1.433 . S
C4560 C4556 1.350 . S
C4560 C4557 1.463 . S
C4560 N4564 1.427 . S
C4561 H4551 0.929 . S
C4561 C4559 1.433 . S
C4561 N4564 1.384 . S
C4562 H4553 0.929 . S
C4562 C4554 1.378 . S
C4562 C4557 1.350 . S
C4563 H4550 0.929 . S
C4563 C4555 1.433 . S
C4563 N4565 1.384 . S
N4564 C4560 1.427 . S
N4564 C4561 1.384 . S
N4565 C4557 1.427 . S
N4565 C4563 1.384 . S
H4566 C4572 0.930 . S
H4567 C4576 0.930 . S
H4568 C4581 0.929 . S
H4569 C4579 0.929 . S
H4570 C4574 0.929 . S
H4571 C4580 0.929 . S
C4572 H4566 0.930 . S
C4572 C4573 1.367 . S
C4572 C4580 1.378 . S
C4573 C4572 1.367 . S
C4573 C4581 1.433 . S
C4574 H4570 0.929 . S
C4574 C4576 1.378 . S
C4574 C4578 1.350 . S
C4575 C4578 1.463 . S
C4575 C4580 1.350 . S
C4575 N4583 1.427 . S
C4576 H4567 0.930 . S
C4576 C4574 1.378 . S
C4576 C4577 1.367 . S
C4577 C4576 1.367 . S
C4577 C4579 1.433 . S
C4578 C4574 1.350 . S
C4578 C4575 1.463 . S
C4578 N4582 1.427 . S
C4579 H4569 0.929 . S
C4579 C4577 1.433 . S
C4579 N4582 1.384 . S
C4580 H4571 0.929 . S
C4580 C4572 1.378 . S
C4580 C4575 1.350 . S
C4581 H4568 0.929 . S
C4581 C4573 1.433 . S
C4581 N4583 1.384 . S
N4582 C4578 1.427 . S
N4582 C4579 1.384 . S
N4583 C4575 1.427 . S
N4583 C4581 1.384 . S
H4584 C4590 0.930 . S
H4585 C4594 0.930 . S
H4586 C4599 0.929 . S
H4587 C4597 0.929 . S
H4588 C4592 0.929 . S
H4589 C4598 0.929 . S
C4590 H4584 0.930 . S
C4590 C4591 1.367 . S
C4590 C4598 1.378 . S
C4591 C4590 1.367 . S
C4591 C4599 1.433 . S
C4592 H4588 0.929 . S
C4592 C4594 1.378 . S
C4592 C4596 1.350 . S
C4593 C4596 1.463 . S
C4593 C4598 1.350 . S
C4593 N4601 1.427 . S
C4594 H4585 0.930 . S
C4594 C4592 1.378 . S
C4594 C4595 1.367 . S
C4595 C4594 1.367 . S
C4595 C4597 1.433 . S
C4596 C4592 1.350 . S
C4596 C4593 1.463 . S
C4596 N4600 1.427 . S
C4597 H4587 0.929 . S
C4597 C4595 1.433 . S
C4597 N4600 1.384 . S
C4598 H4589 0.929 . S
C4598 C4590 1.378 . S
C4598 C4593 1.350 . S
C4599 H4586 0.929 . S
C4599 C4591 1.433 . S
C4599 N4601 1.384 . S
N4600 C4596 1.427 . S
N4600 C4597 1.384 . S
N4601 C4593 1.427 . S
N4601 C4599 1.384 . S
H4602 C4608 0.930 . S
H4603 C4612 0.930 . S
H4604 C4617 0.929 . S
H4605 C4615 0.929 . S
H4606 C4610 0.929 . S
H4607 C4616 0.929 . S
C4608 H4602 0.930 . S
C4608 C4609 1.367 . S
C4608 C4616 1.378 . S
C4609 C4608 1.367 . S
C4609 C4617 1.433 . S
C4610 H4606 0.929 . S
C4610 C4612 1.378 . S
C4610 C4614 1.350 . S
C4611 C4614 1.463 . S
C4611 C4616 1.350 . S
C4611 N4619 1.427 . S
C4612 H4603 0.930 . S
C4612 C4610 1.378 . S
C4612 C4613 1.367 . S
C4613 C4612 1.367 . S
C4613 C4615 1.433 . S
C4614 C4610 1.350 . S
C4614 C4611 1.463 . S
C4614 N4618 1.427 . S
C4615 H4605 0.929 . S
C4615 C4613 1.433 . S
C4615 N4618 1.384 . S
C4616 H4607 0.929 . S
C4616 C4608 1.378 . S
C4616 C4611 1.350 . S
C4617 H4604 0.929 . S
C4617 C4609 1.433 . S
C4617 N4619 1.384 . S
N4618 C4614 1.427 . S
N4618 C4615 1.384 . S
N4619 C4611 1.427 . S
N4619 C4617 1.384 . S
H4620 C4626 0.930 . S
H4621 C4630 0.930 . S
H4622 C4635 0.929 . S
H4623 C4633 0.929 . S
H4624 C4628 0.929 . S
H4625 C4634 0.929 . S
C4626 H4620 0.930 . S
C4626 C4627 1.367 . S
C4626 C4634 1.378 . S
C4627 C4626 1.367 . S
C4627 C4635 1.433 . S
C4628 H4624 0.929 . S
C4628 C4630 1.378 . S
C4628 C4632 1.350 . S
C4629 C4632 1.463 . S
C4629 C4634 1.350 . S
C4629 N4637 1.427 . S
C4630 H4621 0.930 . S
C4630 C4628 1.378 . S
C4630 C4631 1.367 . S
C4631 C4630 1.367 . S
C4631 C4633 1.433 . S
C4632 C4628 1.350 . S
C4632 C4629 1.463 . S
C4632 N4636 1.427 . S
C4633 H4623 0.929 . S
C4633 C4631 1.433 . S
C4633 N4636 1.384 . S
C4634 H4625 0.929 . S
C4634 C4626 1.378 . S
C4634 C4629 1.350 . S
C4635 H4622 0.929 . S
C4635 C4627 1.433 . S
C4635 N4637 1.384 . S
N4636 C4632 1.427 . S
N4636 C4633 1.384 . S
N4637 C4629 1.427 . S
N4637 C4635 1.384 . S
H4638 C4644 0.930 . S
H4639 C4648 0.930 . S
H4640 C4653 0.929 . S
H4641 C4651 0.929 . S
H4642 C4646 0.929 . S
H4643 C4652 0.929 . S
C4644 H4638 0.930 . S
C4644 C4645 1.367 . S
C4644 C4652 1.378 . S
C4645 C4644 1.367 . S
C4645 C4653 1.433 . S
C4646 H4642 0.929 . S
C4646 C4648 1.378 . S
C4646 C4650 1.350 . S
C4647 C4650 1.463 . S
C4647 C4652 1.350 . S
C4647 N4655 1.427 . S
C4648 H4639 0.930 . S
C4648 C4646 1.378 . S
C4648 C4649 1.367 . S
C4649 C4648 1.367 . S
C4649 C4651 1.433 . S
C4650 C4646 1.350 . S
C4650 C4647 1.463 . S
C4650 N4654 1.427 . S
C4651 H4641 0.929 . S
C4651 C4649 1.433 . S
C4651 N4654 1.384 . S
C4652 H4643 0.929 . S
C4652 C4644 1.378 . S
C4652 C4647 1.350 . S
C4653 H4640 0.929 . S
C4653 C4645 1.433 . S
C4653 N4655 1.384 . S
N4654 C4650 1.427 . S
N4654 C4651 1.384 . S
N4655 C4647 1.427 . S
N4655 C4653 1.384 . S
H4656 C4662 0.930 . S
H4657 C4666 0.930 . S
H4658 C4671 0.929 . S
H4659 C4669 0.929 . S
H4660 C4664 0.929 . S
H4661 C4670 0.929 . S
C4662 H4656 0.930 . S
C4662 C4663 1.367 . S
C4662 C4670 1.378 . S
C4663 C4662 1.367 . S
C4663 C4671 1.433 . S
C4664 H4660 0.929 . S
C4664 C4666 1.378 . S
C4664 C4668 1.350 . S
C4665 C4668 1.463 . S
C4665 C4670 1.350 . S
C4665 N4673 1.427 . S
C4666 H4657 0.930 . S
C4666 C4664 1.378 . S
C4666 C4667 1.367 . S
C4667 C4666 1.367 . S
C4667 C4669 1.433 . S
C4668 C4664 1.350 . S
C4668 C4665 1.463 . S
C4668 N4672 1.427 . S
C4669 H4659 0.929 . S
C4669 C4667 1.433 . S
C4669 N4672 1.384 . S
C4670 H4661 0.929 . S
C4670 C4662 1.378 . S
C4670 C4665 1.350 . S
C4671 H4658 0.929 . S
C4671 C4663 1.433 . S
C4671 N4673 1.384 . S
N4672 C4668 1.427 . S
N4672 C4669 1.384 . S
N4673 C4665 1.427 . S
N4673 C4671 1.384 . S
H4674 C4680 0.930 . S
H4675 C4684 0.930 . S
H4676 C4689 0.929 . S
H4677 C4687 0.929 . S
H4678 C4682 0.929 . S
H4679 C4688 0.929 . S
C4680 H4674 0.930 . S
C4680 C4681 1.367 . S
C4680 C4688 1.378 . S
C4681 C4680 1.367 . S
C4681 C4689 1.433 . S
C4682 H4678 0.929 . S
C4682 C4684 1.378 . S
C4682 C4686 1.350 . S
C4683 C4686 1.463 . S
C4683 C4688 1.350 . S
C4683 N4691 1.427 . S
C4684 H4675 0.930 . S
C4684 C4682 1.378 . S
C4684 C4685 1.367 . S
C4685 C4684 1.367 . S
C4685 C4687 1.433 . S
C4686 C4682 1.350 . S
C4686 C4683 1.463 . S
C4686 N4690 1.427 . S
C4687 H4677 0.929 . S
C4687 C4685 1.433 . S
C4687 N4690 1.384 . S
C4688 H4679 0.929 . S
C4688 C4680 1.378 . S
C4688 C4683 1.350 . S
C4689 H4676 0.929 . S
C4689 C4681 1.433 . S
C4689 N4691 1.384 . S
N4690 C4686 1.427 . S
N4690 C4687 1.384 . S
N4691 C4683 1.427 . S
N4691 C4689 1.384 . S
H4692 C4698 0.930 . S
H4693 C4702 0.930 . S
H4694 C4707 0.929 . S
H4695 C4705 0.929 . S
H4696 C4700 0.929 . S
H4697 C4706 0.929 . S
C4698 H4692 0.930 . S
C4698 C4699 1.367 . S
C4698 C4706 1.378 . S
C4699 C4698 1.367 . S
C4699 C4707 1.433 . S
C4700 H4696 0.929 . S
C4700 C4702 1.378 . S
C4700 C4704 1.350 . S
C4701 C4704 1.463 . S
C4701 C4706 1.350 . S
C4701 N4709 1.427 . S
C4702 H4693 0.930 . S
C4702 C4700 1.378 . S
C4702 C4703 1.367 . S
C4703 C4702 1.367 . S
C4703 C4705 1.433 . S
C4704 C4700 1.350 . S
C4704 C4701 1.463 . S
C4704 N4708 1.427 . S
C4705 H4695 0.929 . S
C4705 C4703 1.433 . S
C4705 N4708 1.384 . S
C4706 H4697 0.929 . S
C4706 C4698 1.378 . S
C4706 C4701 1.350 . S
C4707 H4694 0.929 . S
C4707 C4699 1.433 . S
C4707 N4709 1.384 . S
N4708 C4704 1.427 . S
N4708 C4705 1.384 . S
N4709 C4701 1.427 . S
N4709 C4707 1.384 . S
H4710 C4716 0.930 . S
H4711 C4720 0.930 . S
H4712 C4725 0.929 . S
H4713 C4723 0.929 . S
H4714 C4718 0.929 . S
H4715 C4724 0.929 . S
C4716 H4710 0.930 . S
C4716 C4717 1.367 . S
C4716 C4724 1.378 . S
C4717 C4716 1.367 . S
C4717 C4725 1.433 . S
C4718 H4714 0.929 . S
C4718 C4720 1.378 . S
C4718 C4722 1.350 . S
C4719 C4722 1.463 . S
C4719 C4724 1.350 . S
C4719 N4727 1.427 . S
C4720 H4711 0.930 . S
C4720 C4718 1.378 . S
C4720 C4721 1.367 . S
C4721 C4720 1.367 . S
C4721 C4723 1.433 . S
C4722 C4718 1.350 . S
C4722 C4719 1.463 . S
C4722 N4726 1.427 . S
C4723 H4713 0.929 . S
C4723 C4721 1.433 . S
C4723 N4726 1.384 . S
C4724 H4715 0.929 . S
C4724 C4716 1.378 . S
C4724 C4719 1.350 . S
C4725 H4712 0.929 . S
C4725 C4717 1.433 . S
C4725 N4727 1.384 . S
N4726 C4722 1.427 . S
N4726 C4723 1.384 . S
N4727 C4719 1.427 . S
N4727 C4725 1.384 . S
H4728 C4734 0.930 . S
H4729 C4738 0.930 . S
H4730 C4743 0.929 . S
H4731 C4741 0.929 . S
H4732 C4736 0.929 . S
H4733 C4742 0.929 . S
C4734 H4728 0.930 . S
C4734 C4735 1.367 . S
C4734 C4742 1.378 . S
C4735 C4734 1.367 . S
C4735 C4743 1.433 . S
C4736 H4732 0.929 . S
C4736 C4738 1.378 . S
C4736 C4740 1.350 . S
C4737 C4740 1.463 . S
C4737 C4742 1.350 . S
C4737 N4745 1.427 . S
C4738 H4729 0.930 . S
C4738 C4736 1.378 . S
C4738 C4739 1.367 . S
C4739 C4738 1.367 . S
C4739 C4741 1.433 . S
C4740 C4736 1.350 . S
C4740 C4737 1.463 . S
C4740 N4744 1.427 . S
C4741 H4731 0.929 . S
C4741 C4739 1.433 . S
C4741 N4744 1.384 . S
C4742 H4733 0.929 . S
C4742 C4734 1.378 . S
C4742 C4737 1.350 . S
C4743 H4730 0.929 . S
C4743 C4735 1.433 . S
C4743 N4745 1.384 . S
N4744 C4740 1.427 . S
N4744 C4741 1.384 . S
N4745 C4737 1.427 . S
N4745 C4743 1.384 . S
H4746 C4752 0.930 . S
H4747 C4756 0.930 . S
H4748 C4761 0.929 . S
H4749 C4759 0.929 . S
H4750 C4754 0.929 . S
H4751 C4760 0.929 . S
C4752 H4746 0.930 . S
C4752 C4753 1.367 . S
C4752 C4760 1.378 . S
C4753 C4752 1.367 . S
C4753 C4761 1.433 . S
C4754 H4750 0.929 . S
C4754 C4756 1.378 . S
C4754 C4758 1.350 . S
C4755 C4758 1.463 . S
C4755 C4760 1.350 . S
C4755 N4763 1.427 . S
C4756 H4747 0.930 . S
C4756 C4754 1.378 . S
C4756 C4757 1.367 . S
C4757 C4756 1.367 . S
C4757 C4759 1.433 . S
C4758 C4754 1.350 . S
C4758 C4755 1.463 . S
C4758 N4762 1.427 . S
C4759 H4749 0.929 . S
C4759 C4757 1.433 . S
C4759 N4762 1.384 . S
C4760 H4751 0.929 . S
C4760 C4752 1.378 . S
C4760 C4755 1.350 . S
C4761 H4748 0.929 . S
C4761 C4753 1.433 . S
C4761 N4763 1.384 . S
N4762 C4758 1.427 . S
N4762 C4759 1.384 . S
N4763 C4755 1.427 . S
N4763 C4761 1.384 . S
H4764 C4770 0.930 . S
H4765 C4774 0.930 . S
H4766 C4779 0.929 . S
H4767 C4777 0.929 . S
H4768 C4772 0.929 . S
H4769 C4778 0.929 . S
C4770 H4764 0.930 . S
C4770 C4771 1.367 . S
C4770 C4778 1.378 . S
C4771 C4770 1.367 . S
C4771 C4779 1.433 . S
C4772 H4768 0.929 . S
C4772 C4774 1.378 . S
C4772 C4776 1.350 . S
C4773 C4776 1.463 . S
C4773 C4778 1.350 . S
C4773 N4781 1.427 . S
C4774 H4765 0.930 . S
C4774 C4772 1.378 . S
C4774 C4775 1.367 . S
C4775 C4774 1.367 . S
C4775 C4777 1.433 . S
C4776 C4772 1.350 . S
C4776 C4773 1.463 . S
C4776 N4780 1.427 . S
C4777 H4767 0.929 . S
C4777 C4775 1.433 . S
C4777 N4780 1.384 . S
C4778 H4769 0.929 . S
C4778 C4770 1.378 . S
C4778 C4773 1.350 . S
C4779 H4766 0.929 . S
C4779 C4771 1.433 . S
C4779 N4781 1.384 . S
N4780 C4776 1.427 . S
N4780 C4777 1.384 . S
N4781 C4773 1.427 . S
N4781 C4779 1.384 . S
H4782 C4788 0.930 . S
H4783 C4792 0.930 . S
H4784 C4797 0.929 . S
H4785 C4795 0.929 . S
H4786 C4790 0.929 . S
H4787 C4796 0.929 . S
C4788 H4782 0.930 . S
C4788 C4789 1.367 . S
C4788 C4796 1.378 . S
C4789 C4788 1.367 . S
C4789 C4797 1.433 . S
C4790 H4786 0.929 . S
C4790 C4792 1.378 . S
C4790 C4794 1.350 . S
C4791 C4794 1.463 . S
C4791 C4796 1.350 . S
C4791 N4799 1.427 . S
C4792 H4783 0.930 . S
C4792 C4790 1.378 . S
C4792 C4793 1.367 . S
C4793 C4792 1.367 . S
C4793 C4795 1.433 . S
C4794 C4790 1.350 . S
C4794 C4791 1.463 . S
C4794 N4798 1.427 . S
C4795 H4785 0.929 . S
C4795 C4793 1.433 . S
C4795 N4798 1.384 . S
C4796 H4787 0.929 . S
C4796 C4788 1.378 . S
C4796 C4791 1.350 . S
C4797 H4784 0.929 . S
C4797 C4789 1.433 . S
C4797 N4799 1.384 . S
N4798 C4794 1.427 . S
N4798 C4795 1.384 . S
N4799 C4791 1.427 . S
N4799 C4797 1.384 . S
C1351 C7 1.426 . S
C1355 C133 1.425 . S
C1369 C147 1.422 . S
C1373 C21 1.427 . S
C1387 C35 1.423 . S
C1391 C161 1.422 . S
C1405 C49 1.427 . S
C1409 C119 1.424 . S
C1423 C63 1.426 . S
C1427 C217 1.421 . S
C1441 C175 1.427 . S
C1445 C77 1.422 . S
C1459 C91 1.421 . S
C1463 C189 1.427 . S
C1477 C203 1.422 . S
C1481 C105 1.427 . S
C1495 C259 1.423 . S
C1499 C231 1.427 . S
C1513 C245 1.426 . S
C1517 C987 1.425 . S
C1531 C1001 1.425 . S
C1535 C273 1.421 . S
C1549 C287 1.427 . S
C1553 C973 1.422 . S
C1567 C959 1.426 . S
C1571 C301 1.421 . S
C1585 C917 1.427 . S
C1589 C315 1.424 . S
C1603 C329 1.422 . S
C1607 C945 1.427 . S
C1621 C343 1.422 . S
C1625 C469 1.427 . S
C1639 C357 1.422 . S
C1643 C483 1.427 . S
C1657 C497 1.426 . S
C1661 C371 1.425 . S
C1675 C455 1.421 . S
C1679 C385 1.426 . S
C1693 C553 1.424 . S
C1697 C399 1.427 . S
C1711 C413 1.422 . S
C1715 C511 1.427 . S
C1729 C427 1.424 . S
C1733 C525 1.422 . S
C1747 C441 1.421 . S
C1751 C539 1.426 . S
C1765 C567 1.427 . S
C1769 C595 1.422 . S
C1783 C581 1.423 . S
C1787 C1323 1.423 . S
C1801 C1337 1.426 . S
C1805 C609 1.426 . S
C1819 C623 1.424 . S
C1823 C1309 1.422 . S
C1837 C637 1.421 . S
C1841 C1295 1.426 . S
C1855 C651 1.424 . S
C1859 C1253 1.427 . S
C1873 C665 1.425 . S
C1877 C1281 1.426 . S
C1891 C679 1.427 . S
C1895 C805 1.421 . S
C1909 C819 1.421 . S
C1913 C693 1.426 . S
C1927 C833 1.425 . S
C1931 C707 1.421 . S
C1945 C721 1.422 . S
C1949 C791 1.424 . S
C1963 C735 1.427 . S
C1967 C889 1.422 . S
C1981 C749 1.423 . S
C1985 C847 1.423 . S
C1999 C763 1.424 . S
C2003 C861 1.427 . S
C2017 C875 1.426 . S
C2021 C777 1.421 . S
C2035 C903 1.427 . S
C2039 C931 1.424 . S
C2053 C1015 1.424 . S
C2057 C1141 1.427 . S
C2071 C1029 1.425 . S
C2075 C1155 1.426 . S
C2089 C1169 1.427 . S
C2093 C1043 1.422 . S
C2107 C1127 1.423 . S
C2111 C1057 1.427 . S
C2125 C1071 1.421 . S
C2129 C1225 1.425 . S
C2143 C1183 1.424 . S
C2147 C1085 1.422 . S
C2161 C1197 1.427 . S
C2165 C1099 1.422 . S
C2179 C1211 1.422 . S
C2183 C1113 1.423 . S
C2197 C1239 1.427 . S
C2201 C1267 1.422 . S
C2215 C6 1.621 . S
C2219 C286 1.614 . S
C2233 C20 1.621 . S
C2237 C916 1.612 . S
C2251 C930 1.610 . S
C2255 C34 1.621 . S
C2269 C944 1.621 . S
C2273 C48 1.610 . S
C2287 C62 1.607 . S
C2291 C1000 1.615 . S
C2305 C300 1.608 . S
C2309 C76 1.619 . S
C2323 C90 1.621 . S
C2327 C986 1.611 . S
C2341 C104 1.619 . S
C2345 C230 1.609 . S
C2359 C118 1.620 . S
C2363 C216 1.618 . S
C2377 C174 1.614 . S
C2381 C132 1.607 . S
C2395 C146 1.611 . S
C2399 C188 1.609 . S
C2413 C160 1.610 . S
C2417 C202 1.609 . S
C2431 C692 1.612 . S
C2435 C244 1.621 . S
C2449 C706 1.613 . S
C2453 C258 1.621 . S
C2467 C720 1.618 . S
C2471 C272 1.620 . S
C2485 C762 1.620 . S
C2489 C314 1.618 . S
C2503 C328 1.620 . S
C2507 C734 1.618 . S
C2521 C342 1.621 . S
C2525 C622 1.616 . S
C2539 C356 1.613 . S
C2543 C1252 1.607 . S
C2557 C1266 1.621 . S
C2561 C370 1.616 . S
C2575 C1280 1.618 . S
C2579 C384 1.620 . S
C2593 C1336 1.607 . S
C2597 C398 1.614 . S
C2611 C636 1.609 . S
C2615 C412 1.620 . S
C2629 C426 1.607 . S
C2633 C1322 1.617 . S
C2647 C440 1.610 . S
C2651 C566 1.621 . S
C2665 C552 1.616 . S
C2669 C454 1.621 . S
C2683 C468 1.608 . S
C2687 C510 1.611 . S
C2701 C524 1.607 . S
C2705 C482 1.613 . S
C2719 C496 1.613 . S
C2723 C538 1.621 . S
C2737 C1028 1.616 . S
C2741 C580 1.607 . S
C2755 C594 1.616 . S
C2759 C1042 1.621 . S
C2773 C608 1.616 . S
C2777 C1056 1.607 . S
C2791 C650 1.619 . S
C2795 C1098 1.609 . S
C2809 C664 1.618 . S
C2813 C1070 1.608 . S
C2827 C678 1.611 . S
C2831 C958 1.621 . S
C2845 C972 1.608 . S
C2849 C748 1.618 . S
C2863 C776 1.607 . S
C2867 C902 1.616 . S
C2881 C888 1.612 . S
C2885 C790 1.608 . S
C2899 C846 1.621 . S
C2903 C804 1.612 . S
C2917 C818 1.616 . S
C2921 C860 1.607 . S
C2935 C832 1.613 . S
C2939 C874 1.608 . S
C2953 C1294 1.611 . S
C2957 C1014 1.608 . S
C2971 C1084 1.621 . S
C2975 C1308 1.614 . S
C2989 C1238 1.619 . S
C2993 C1112 1.608 . S
C3007 C1126 1.621 . S
C3011 C1224 1.611 . S
C3025 C1182 1.608 . S
C3029 C1140 1.619 . S
C3043 C1154 1.620 . S
C3047 C1196 1.610 . S
C3061 C1210 1.613 . S
C3065 C1168 1.607 . S
C3079 C9 1.456 . S
C3083 C610 1.335 . S
C3097 C624 1.336 . S
C3101 C23 1.458 . S
C3115 C582 1.362 . S
C3119 C37 1.457 . S
C3133 C51 1.459 . S
C3137 C1268 1.320 . S
C3151 C65 1.456 . S
C3155 C1310 1.372 . S
C3169 C79 1.459 . S
C3173 C1324 1.321 . S
C3187 C1240 1.322 . S
C3191 C93 1.458 . S
C3205 C1338 1.339 . S
C3209 C107 1.456 . S
C3223 C372 1.340 . S
C3227 C121 1.456 . S
C3241 C135 1.456 . S
C3245 C1058 1.343 . S
C3259 C344 1.377 . S
C3263 C149 1.456 . S
C3277 C1030 1.321 . S
C3281 C163 1.459 . S
C3295 C428 1.343 . S
C3299 C177 1.456 . S
C3313 C191 1.459 . S
C3317 C1114 1.324 . S
C3331 C205 1.459 . S
C3335 C400 1.356 . S
C3349 C219 1.456 . S
C3353 C1086 1.333 . S
C3367 C233 1.459 . S
C3371 C1184 1.325 . S
C3385 C456 1.354 . S
C3389 C247 1.459 . S
C3403 C261 1.457 . S
C3407 C1142 1.338 . S
C3421 C275 1.459 . S
C3425 C484 1.355 . S
C3439 C289 1.459 . S
C3443 C498 1.320 . S
C3457 C303 1.456 . S
C3461 C1212 1.343 . S
C3475 C1226 1.343 . S
C3479 C317 1.456 . S
C3493 C1198 1.335 . S
C3497 C331 1.458 . S
C3511 C274 1.320 . S
C3515 C345 1.459 . S
C3529 C359 1.456 . S
C3533 C288 1.343 . S
C3547 C373 1.458 . S
C3551 C246 1.358 . S
C3565 C387 1.459 . S
C3569 C932 1.320 . S
C3583 C974 1.356 . S
C3587 C401 1.459 . S
C3601 C988 1.342 . S
C3605 C415 1.456 . S
C3619 C429 1.459 . S
C3623 C904 1.321 . S
C3637 C1002 1.342 . S
C3641 C443 1.456 . S
C3655 C457 1.457 . S
C3659 C36 1.339 . S
C3673 C722 1.325 . S
C3677 C471 1.459 . S
C3691 C485 1.455 . S
C3695 C8 1.377 . S
C3709 C694 1.335 . S
C3713 C499 1.458 . S
C3727 C513 1.458 . S
C3731 C92 1.333 . S
C3745 C778 1.343 . S
C3749 C527 1.456 . S
C3763 C64 1.363 . S
C3767 C541 1.459 . S
C3781 C750 1.325 . S
C3785 C555 1.459 . S
C3799 C569 1.456 . S
C3803 C848 1.337 . S
C3817 C583 1.458 . S
C3821 C120 1.356 . S
C3835 C806 1.320 . S
C3839 C597 1.459 . S
C3853 C611 1.457 . S
C3857 C148 1.365 . S
C3871 C162 1.343 . S
C3875 C625 1.456 . S
C3889 C876 1.337 . S
C3893 C639 1.458 . S
C3907 C890 1.320 . S
C3911 C653 1.460 . S
C3925 C862 1.342 . S
C3929 C667 1.455 . S
C3943 C681 1.459 . S
C3947 C1282 1.355 . S
C3961 C695 1.459 . S
C3965 C1296 1.320 . S
C3979 C709 1.456 . S
C3983 C1254 1.342 . S
C3997 C596 1.326 . S
C4001 C723 1.457 . S
C4015 C737 1.456 . S
C4019 C638 1.336 . S
C4033 C652 1.340 . S
C4037 C751 1.457 . S
C4051 C568 1.373 . S
C4055 C765 1.456 . S
C4069 C666 1.328 . S
C4073 C779 1.457 . S
C4087 C793 1.457 . S
C4091 C1044 1.375 . S
C4105 C386 1.323 . S
C4109 C807 1.458 . S
C4123 C821 1.456 . S
C4127 C1016 1.343 . S
C4141 C835 1.456 . S
C4145 C358 1.343 . S
C4159 C849 1.459 . S
C4163 C1100 1.354 . S
C4177 C863 1.458 . S
C4181 C442 1.336 . S
C4195 C1072 1.325 . S
C4199 C877 1.459 . S
C4213 C414 1.327 . S
C4217 C891 1.457 . S
C4231 C905 1.458 . S
C4235 C512 1.357 . S
C4249 C919 1.458 . S
C4253 C1128 1.324 . S
C4267 C933 1.456 . S
C4271 C470 1.343 . S
C4285 C1156 1.327 . S
C4289 C947 1.459 . S
C4303 C961 1.459 . S
C4307 C1170 1.320 . S
C4321 C975 1.456 . S
C4325 C540 1.370 . S
C4339 C554 1.327 . S
C4343 C989 1.457 . S
C4357 C1003 1.455 . S
C4361 C526 1.343 . S
C4375 C1017 1.457 . S
C4379 C946 1.361 . S
C4393 C960 1.327 . S
C4397 C1031 1.457 . S
C4411 C918 1.324 . S
C4415 C1045 1.459 . S
C4429 C1059 1.460 . S
C4433 C260 1.321 . S
C4447 C1073 1.455 . S
C4451 C302 1.342 . S
C4465 C1087 1.459 . S
C4469 C316 1.320 . S
C4483 C232 1.368 . S
C4487 C1101 1.456 . S
C4501 C1115 1.459 . S
C4505 C330 1.321 . S
C4519 C1129 1.456 . S
C4523 C708 1.377 . S
C4537 C1143 1.458 . S
C4541 C50 1.323 . S
C4555 C1157 1.457 . S
C4559 C680 1.339 . S
C4573 C1171 1.458 . S
C4577 C22 1.335 . S
C4591 C1185 1.459 . S
C4595 C764 1.357 . S
C4609 C1199 1.458 . S
C4613 C106 1.321 . S
C4627 C1213 1.459 . S
C4631 C736 1.330 . S
C4645 C1227 1.457 . S
C4649 C78 1.341 . S
C4663 C1241 1.459 . S
C4667 C176 1.357 . S
C4681 C1255 1.455 . S
C4685 C792 1.341 . S
C4699 C1269 1.456 . S
C4703 C134 1.334 . S
C4717 C1283 1.456 . S
C4721 C820 1.337 . S
C4735 C1297 1.457 . S
C4739 C834 1.338 . S
C4753 C204 1.374 . S
C4757 C1311 1.457 . S
C4771 C1325 1.459 . S
C4775 C218 1.320 . S
C4789 C1339 1.458 . S
C4793 C190 1.332 . S
