# Generated by pormake.
# Topology unl, (4)-cn, num edge types: 1
# Building blocks:
#     Node 0, Type 0, BuildingBlock: TATPOV_clean_sbu_0, # of connection points: 4
#     Node 1, Type 0, BuildingBlock: TATPOV_clean_sbu_0, # of connection points: 4
#     Node 2, Type 0, BuildingBlock: TATPOV_clean_sbu_0, # of connection points: 4
#     Node 3, Type 0, BuildingBlock: TATPOV_clean_sbu_0, # of connection points: 4
#     Node 4, Type 0, BuildingBlock: TATPOV_clean_sbu_0, # of connection points: 4
#     Node 5, Type 0, BuildingBlock: TATPOV_clean_sbu_0, # of connection points: 4
#     Node 6, Type 0, BuildingBlock: TATPOV_clean_sbu_0, # of connection points: 4
#     Node 7, Type 0, BuildingBlock: TATPOV_clean_sbu_0, # of connection points: 4
#     Node 8, Type 0, BuildingBlock: TATPOV_clean_sbu_0, # of connection points: 4
#     Node 9, Type 0, BuildingBlock: TATPOV_clean_sbu_0, # of connection points: 4
#     Node 10, Type 0, BuildingBlock: TATPOV_clean_sbu_0, # of connection points: 4
#     Node 11, Type 0, BuildingBlock: TATPOV_clean_sbu_0, # of connection points: 4
#     Node 12, Type 0, BuildingBlock: TATPOV_clean_sbu_0, # of connection points: 4
#     Node 13, Type 0, BuildingBlock: TATPOV_clean_sbu_0, # of connection points: 4
#     Node 14, Type 0, BuildingBlock: TATPOV_clean_sbu_0, # of connection points: 4
#     Node 15, Type 0, BuildingBlock: TATPOV_clean_sbu_0, # of connection points: 4
#     Node 16, Type 0, BuildingBlock: TATPOV_clean_sbu_0, # of connection points: 4
#     Node 17, Type 0, BuildingBlock: TATPOV_clean_sbu_0, # of connection points: 4
#     Node 18, Type 0, BuildingBlock: TATPOV_clean_sbu_0, # of connection points: 4
#     Node 19, Type 0, BuildingBlock: TATPOV_clean_sbu_0, # of connection points: 4
#     Node 20, Type 0, BuildingBlock: TATPOV_clean_sbu_0, # of connection points: 4
#     Node 21, Type 0, BuildingBlock: TATPOV_clean_sbu_0, # of connection points: 4
#     Node 22, Type 0, BuildingBlock: TATPOV_clean_sbu_0, # of connection points: 4
#     Node 23, Type 0, BuildingBlock: TATPOV_clean_sbu_0, # of connection points: 4
#     Node 24, Type 0, BuildingBlock: TATPOV_clean_sbu_0, # of connection points: 4
#     Node 25, Type 0, BuildingBlock: TATPOV_clean_sbu_0, # of connection points: 4
#     Node 26, Type 0, BuildingBlock: TATPOV_clean_sbu_0, # of connection points: 4
#     Node 27, Type 0, BuildingBlock: TATPOV_clean_sbu_0, # of connection points: 4
#     Node 28, Type 0, BuildingBlock: TATPOV_clean_sbu_0, # of connection points: 4
#     Node 29, Type 0, BuildingBlock: TATPOV_clean_sbu_0, # of connection points: 4
#     Node 30, Type 0, BuildingBlock: TATPOV_clean_sbu_0, # of connection points: 4
#     Node 31, Type 0, BuildingBlock: TATPOV_clean_sbu_0, # of connection points: 4
#     Node 32, Type 0, BuildingBlock: TATPOV_clean_sbu_0, # of connection points: 4
#     Node 33, Type 0, BuildingBlock: TATPOV_clean_sbu_0, # of connection points: 4
#     Node 34, Type 0, BuildingBlock: TATPOV_clean_sbu_0, # of connection points: 4
#     Node 35, Type 0, BuildingBlock: TATPOV_clean_sbu_0, # of connection points: 4
#     Edge 36, Type (0, 0), None
#     Edge 37, Type (0, 0), None
#     Edge 38, Type (0, 0), None
#     Edge 39, Type (0, 0), None
#     Edge 40, Type (0, 0), None
#     Edge 41, Type (0, 0), None
#     Edge 42, Type (0, 0), None
#     Edge 43, Type (0, 0), None
#     Edge 44, Type (0, 0), None
#     Edge 45, Type (0, 0), None
#     Edge 46, Type (0, 0), None
#     Edge 47, Type (0, 0), None
#     Edge 48, Type (0, 0), None
#     Edge 49, Type (0, 0), None
#     Edge 50, Type (0, 0), None
#     Edge 51, Type (0, 0), None
#     Edge 52, Type (0, 0), None
#     Edge 53, Type (0, 0), None
#     Edge 54, Type (0, 0), None
#     Edge 55, Type (0, 0), None
#     Edge 56, Type (0, 0), None
#     Edge 57, Type (0, 0), None
#     Edge 58, Type (0, 0), None
#     Edge 59, Type (0, 0), None
#     Edge 60, Type (0, 0), None
#     Edge 61, Type (0, 0), None
#     Edge 62, Type (0, 0), None
#     Edge 63, Type (0, 0), None
#     Edge 64, Type (0, 0), None
#     Edge 65, Type (0, 0), None
#     Edge 66, Type (0, 0), None
#     Edge 67, Type (0, 0), None
#     Edge 68, Type (0, 0), None
#     Edge 69, Type (0, 0), None
#     Edge 70, Type (0, 0), None
#     Edge 71, Type (0, 0), None
#     Edge 72, Type (0, 0), None
#     Edge 73, Type (0, 0), None
#     Edge 74, Type (0, 0), None
#     Edge 75, Type (0, 0), None
#     Edge 76, Type (0, 0), None
#     Edge 77, Type (0, 0), None
#     Edge 78, Type (0, 0), None
#     Edge 79, Type (0, 0), None
#     Edge 80, Type (0, 0), None
#     Edge 81, Type (0, 0), None
#     Edge 82, Type (0, 0), None
#     Edge 83, Type (0, 0), None
#     Edge 84, Type (0, 0), None
#     Edge 85, Type (0, 0), None
#     Edge 86, Type (0, 0), None
#     Edge 87, Type (0, 0), None
#     Edge 88, Type (0, 0), None
#     Edge 89, Type (0, 0), None
#     Edge 90, Type (0, 0), None
#     Edge 91, Type (0, 0), None
#     Edge 92, Type (0, 0), None
#     Edge 93, Type (0, 0), None
#     Edge 94, Type (0, 0), None
#     Edge 95, Type (0, 0), None
#     Edge 96, Type (0, 0), None
#     Edge 97, Type (0, 0), None
#     Edge 98, Type (0, 0), None
#     Edge 99, Type (0, 0), None
#     Edge 100, Type (0, 0), None
#     Edge 101, Type (0, 0), None
#     Edge 102, Type (0, 0), None
#     Edge 103, Type (0, 0), None
#     Edge 104, Type (0, 0), None
#     Edge 105, Type (0, 0), None
#     Edge 106, Type (0, 0), None
#     Edge 107, Type (0, 0), None
# Relax obj value: 0.142
# Max RMSD: 0.187
# Mean RMSD: 0.186
data_MOF--net-unl--node1-TATPOV_clean_sbu_0--edge1-none
_symmetry_space_group_name_H-M    P1
_symmetry_Int_Tables_number       1
_symmetry_cell_setting            triclinic
loop_
_symmetry_equiv_pos_as_xyz
'x, y, z'
_cell_length_a     28.64101
_cell_length_b     28.641643
_cell_length_c     19.01522
_cell_angle_alpha  89.998946
_cell_angle_beta   90.001064
_cell_angle_gamma 120.00046
loop_
_atom_site_label
_atom_site_type_symbol
_atom_site_fract_x
_atom_site_fract_y
_atom_site_fract_z
_atom_type_partial_charge
Zn0 Zn 0.11517 0.03484 0.04535 0.0
Zn1 Zn 0.20914 0.12399 0.0541 0.0
O2 O 0.16299 0.12201 0.13816 0.0
O3 O 0.08562 0.04621 0.13551 0.0
O4 O 0.28605 0.17534 0.0852 0.0
O5 O 0.14434 0.98335 0.03237 0.0
O6 O 0.21716 0.06134 0.01572 0.0
C7 C 0.11616 0.09157 0.16321 0.0
C8 C 0.13926 0.12342 0.94195 0.0
O9 O 0.1847 0.15187 -0.02772 0.0
O10 O 0.1071 0.07542 -0.03814 0.0
C11 C 0.29908 0.19882 0.14478 0.0
O12 O 0.26178 0.19687 0.18668 0.0
C13 C 0.19248 1.01019 0.01074 0.0
Zn14 Zn 0.99599 0.08651 0.04535 0.0
Zn15 Zn 0.90684 0.09133 0.0541 0.0
O16 O 0.90882 0.04715 0.13817 0.0
O17 O 0.98461 0.04558 0.13551 0.0
O18 O 0.85549 0.11689 0.08519 0.0
O19 O 0.04748 0.16717 0.03236 0.0
O20 O 0.96949 0.16199 0.0157 0.0
C21 C 0.93926 0.03077 0.16321 0.0
C22 C 0.9074 0.022 0.94195 0.0
O23 O 0.87895 0.03899 -0.02772 0.0
O24 O 0.9554 0.03785 -0.03814 0.0
C25 C 0.83199 0.10642 0.14476 0.0
O26 O 0.83391 0.07105 0.18665 0.0
C27 C 0.02064 0.18847 0.01073 0.0
Zn28 Zn 0.94432 0.91565 0.04536 0.0
Zn29 Zn 0.9395 0.82168 0.05411 0.0
O30 O 0.98369 0.86785 0.13817 0.0
O31 O 0.98525 0.94521 0.13551 0.0
O32 O 0.91395 0.74478 0.08522 0.0
O33 O 0.86366 0.88648 0.03237 0.0
O34 O 0.86884 0.81367 0.01572 0.0
C35 C 1.00007 0.91467 0.16321 0.0
C36 C 1.00883 0.89156 0.94196 0.0
O37 O 0.99183 0.84612 -0.02771 0.0
O38 O 0.99298 0.92372 -0.03814 0.0
C39 C 0.92438 0.73176 0.14483 0.0
O40 O 0.95969 0.76907 0.18675 0.0
C41 C 0.84236 0.83834 0.01074 0.0
Zn42 Zn 0.04099 0.10901 0.34146 0.0
Zn43 Zn 0.13015 0.20298 0.33271 0.0
O44 O 0.12817 0.15683 0.24865 0.0
O45 O 0.05237 0.07946 0.25131 0.0
O46 O 0.1815 0.27989 0.30161 0.0
O47 O 0.98951 0.13818 0.35444 0.0
O48 O 0.0675 0.21099 0.3711 0.0
C49 C 0.09773 0.11001 0.2236 0.0
C50 C 0.12958 0.1331 0.44487 0.0
O51 O 0.15803 0.17854 0.41453 0.0
O52 O 0.08158 0.10094 0.42496 0.0
C53 C 0.20497 0.29292 0.24202 0.0
O54 O 0.20301 0.25562 0.20012 0.0
C55 C 1.01634 0.18632 0.37607 0.0
Zn56 Zn 0.92181 0.93816 0.34147 0.0
Zn57 Zn 0.82784 0.93334 0.33271 0.0
O58 O 0.874 0.97753 0.24866 0.0
O59 O 0.95137 0.97909 0.25131 0.0
O60 O 0.75093 0.90779 0.30161 0.0
O61 O 0.89264 0.85751 0.35446 0.0
O62 O 0.81983 0.86268 0.3711 0.0
C63 C 0.92082 0.99391 0.22361 0.0
C64 C 0.89773 1.00267 0.44486 0.0
O65 O 0.85228 0.98567 0.41453 0.0
O66 O 0.92988 0.98682 0.42496 0.0
C67 C 0.73791 0.91822 0.24201 0.0
O68 O 0.77522 0.95354 0.20009 0.0
C69 C 0.8445 0.8362 0.37608 0.0
Zn70 Zn 0.09267 0.98983 0.34147 0.0
Zn71 Zn 0.0975 0.90068 0.33272 0.0
O72 O 0.05332 0.90266 0.24865 0.0
O73 O 0.05174 0.97846 0.25131 0.0
O74 O 0.12306 0.84934 0.30163 0.0
O75 O 0.17333 0.04132 0.35446 0.0
O76 O 0.16815 0.96333 0.37112 0.0
C77 C 0.03693 0.9331 0.22361 0.0
C78 C 0.02816 0.90124 0.44487 0.0
O79 O 0.04516 0.87279 0.41454 0.0
O80 O 0.04402 0.94924 0.42496 0.0
C81 C 0.11258 0.82582 0.24207 0.0
O82 O 0.0772 0.82774 0.20019 0.0
C83 C 0.19463 0.01449 0.37609 0.0
Zn84 Zn 0.87669 0.86238 0.8698 0.0
Zn85 Zn 0.78919 0.88303 0.84342 0.0
O86 O 0.83668 0.96025 0.86783 0.0
O87 O 0.89897 0.94076 0.90293 0.0
O88 O 0.71693 0.86999 0.80963 0.0
O89 O 0.88993 0.85231 0.77115 0.0
O90 O 0.82047 0.8649 0.75529 0.0
C91 C 0.88128 0.97367 0.89805 0.0
C92 C 0.79924 0.81888 -0.04272 0.0
O93 O 0.78183 0.85058 0.94286 0.0
O94 O 0.80764 0.797 0.90526 0.0
C95 C 0.68716 0.88558 0.83857 0.0
O96 O 0.70242 0.91275 0.89778 0.0
C97 C 0.85595 0.85451 0.73113 0.0
Zn98 Zn 0.16845 0.02048 0.86981 0.0
Zn99 Zn 0.14779 0.91233 0.84343 0.0
O100 O 0.07057 0.88259 0.86783 0.0
O101 O 0.09006 0.96437 0.90293 0.0
O102 O 0.16084 0.85311 0.80963 0.0
O103 O 0.17852 0.04379 0.77116 0.0
O104 O 0.16592 0.96174 0.75529 0.0
C105 C 0.05715 0.91377 0.89805 0.0
C106 C 0.21194 0.98652 -0.04271 0.0
O107 O 0.18024 0.93742 0.94287 0.0
O108 O 0.23382 0.0168 0.90526 0.0
C109 C 0.14522 0.80773 0.83855 0.0
O110 O 0.11802 0.7958 0.89773 0.0
C111 C 0.17632 1.00761 0.73113 0.0
Zn112 Zn 1.01034 0.15414 0.86979 0.0
Zn113 Zn 0.1185 0.24163 0.84341 0.0
O114 O 0.14823 0.19414 0.86782 0.0
O115 O 0.06645 0.13186 0.90292 0.0
O116 O 0.17773 0.31389 0.80961 0.0
O117 O 0.98704 0.1409 0.77114 0.0
O118 O 0.06908 0.21035 0.75528 0.0
C119 C 0.11705 0.14954 0.89804 0.0
C120 C 0.04431 0.23159 -0.04274 0.0
O121 O 0.09341 0.24899 0.94285 0.0
O122 O 1.01403 0.22319 0.90524 0.0
C123 C 0.22306 0.34368 0.83861 0.0
O124 O 0.23494 0.32843 0.89785 0.0
C125 C 0.02322 0.17488 0.73111 0.0
Zn126 Zn 0.86854 0.87053 0.51702 0.0
Zn127 Zn 0.8892 0.78304 0.5434 0.0
O128 O 0.96642 0.83052 0.519 0.0
O129 O 0.94692 0.89281 0.4839 0.0
O130 O 0.87616 0.71077 0.5772 0.0
O131 O 0.85847 0.88377 0.61567 0.0
O132 O 0.87106 0.81431 0.63153 0.0
C133 C 0.97984 0.87512 0.48877 0.0
C134 C 0.82504 0.79308 0.42954 0.0
O135 O 0.85674 0.77567 0.44396 0.0
O136 O 0.80316 0.80148 0.48157 0.0
C137 C 0.89173 0.68099 0.54823 0.0
O138 O 0.91888 0.69625 0.48901 0.0
C139 C 0.86066 0.84978 0.6557 0.0
Zn140 Zn 0.1603 1.00419 0.51703 0.0
Zn141 Zn 0.24779 0.11234 0.54341 0.0
O142 O 0.2003 0.14207 0.519 0.0
O143 O 0.13801 0.06029 0.4839 0.0
O144 O 0.32005 0.17157 0.57721 0.0
O145 O 0.14705 0.98088 0.61567 0.0
O146 O 0.21651 0.06292 0.63154 0.0
C147 C 0.1557 0.11089 0.48877 0.0
C148 C 0.23775 0.03815 0.42956 0.0
O149 O 0.25516 0.08726 0.44397 0.0
O150 O 0.22936 1.00788 0.48158 0.0
C151 C 0.34983 0.2169 0.54822 0.0
O152 O 0.33459 0.22878 0.48897 0.0
C153 C 0.18104 0.01705 0.6557 0.0
Zn154 Zn 0.02664 0.1623 0.51701 0.0
Zn155 Zn 0.91849 0.14163 0.54339 0.0
O156 O 0.88875 0.06441 0.51899 0.0
O157 O 0.97053 0.08391 0.48389 0.0
O158 O 0.85926 0.15467 0.57719 0.0
O159 O 0.04995 0.17236 0.61565 0.0
O160 O 0.96791 0.15977 0.63152 0.0
C161 C 0.91993 0.05099 0.48876 0.0
C162 C 0.99268 0.20578 0.42953 0.0
O163 O 0.94357 0.17408 0.44395 0.0
O164 O 0.02295 0.22766 0.48155 0.0
C165 C 0.8139 0.13907 0.54826 0.0
O166 O 0.80197 0.11188 0.48907 0.0
C167 C 1.01378 0.17016 0.65568 0.0
Zn168 Zn 0.78184 0.36817 0.37869 0.0
Zn169 Zn 0.87581 0.45732 0.38744 0.0
O170 O 0.82965 0.45534 0.4715 0.0
O171 O 0.75228 0.37955 0.46884 0.0
O172 O 0.95272 0.50867 0.41853 0.0
O173 O 0.81101 0.31668 0.3657 0.0
O174 O 0.88382 0.39467 0.34905 0.0
C175 C 0.78283 0.42491 0.49655 0.0
C176 C 0.80592 0.45676 0.27528 0.0
O177 O 0.85136 0.4852 0.30561 0.0
O178 O 0.77377 0.40875 0.29519 0.0
C179 C 0.96575 0.53216 0.47811 0.0
O180 O 0.92845 0.53021 0.52001 0.0
C181 C 0.85915 0.34352 0.34408 0.0
Zn182 Zn 0.66266 0.41984 0.37868 0.0
Zn183 Zn 0.57351 0.42467 0.38743 0.0
O184 O 0.57548 0.38049 0.4715 0.0
O185 O 0.65128 0.37891 0.46884 0.0
O186 O 0.52216 0.45022 0.41852 0.0
O187 O 0.71415 0.5005 0.36569 0.0
O188 O 0.63616 0.49532 0.34904 0.0
C189 C 0.60592 0.36411 0.49655 0.0
C190 C 0.57406 0.35533 0.27528 0.0
O191 O 0.54562 0.37233 0.30562 0.0
O192 O 0.62207 0.37119 0.29519 0.0
C193 C 0.49865 0.43975 0.47809 0.0
O194 O 0.50057 0.40438 0.51998 0.0
C195 C 0.68731 0.5218 0.34406 0.0
Zn196 Zn 0.61099 0.24898 0.37869 0.0
Zn197 Zn 0.60617 0.15501 0.38744 0.0
O198 O 0.65036 0.20118 0.4715 0.0
O199 O 0.65192 0.27854 0.46885 0.0
O200 O 0.58062 0.07811 0.41855 0.0
O201 O 0.53033 0.21981 0.3657 0.0
O202 O 0.53551 0.147 0.34905 0.0
C203 C 0.66674 0.248 0.49655 0.0
C204 C 0.67549 0.2249 0.27529 0.0
O205 O 0.6585 0.17946 0.30562 0.0
O206 O 0.65964 0.25705 0.2952 0.0
C207 C 0.59105 0.06509 0.47815 0.0
O208 O 0.62637 0.1024 0.52008 0.0
C209 C 0.50903 0.17167 0.34407 0.0
Zn210 Zn 0.70766 0.44235 0.67479 0.0
Zn211 Zn 0.79681 0.53632 0.66604 0.0
O212 O 0.79484 0.49016 0.58198 0.0
O213 O 0.71904 0.41279 0.58464 0.0
O214 O 0.84817 0.61323 0.63494 0.0
O215 O 0.65617 0.47152 0.68778 0.0
O216 O 0.73416 0.54433 0.70443 0.0
C217 C 0.7644 0.44334 0.55694 0.0
C218 C 0.79625 0.46643 0.7782 0.0
O219 O 0.8247 0.51187 0.74787 0.0
O220 O 0.74825 0.43428 0.75829 0.0
C221 C 0.87164 0.62625 0.57535 0.0
O222 O 0.86967 0.58895 0.53343 0.0
C223 C 0.68301 0.51966 0.7094 0.0
Zn224 Zn 0.58848 0.2715 0.6748 0.0
Zn225 Zn 0.49451 0.26667 0.66605 0.0
O226 O 0.54067 0.31086 0.58199 0.0
O227 O 0.61804 0.31243 0.58464 0.0
O228 O 0.4176 0.24112 0.63494 0.0
O229 O 0.55931 0.19084 0.68779 0.0
O230 O 0.48649 0.19602 0.70444 0.0
C231 C 0.58749 0.32724 0.55694 0.0
C232 C 0.56439 0.336 0.7782 0.0
O233 O 0.51895 0.31901 0.74787 0.0
O234 O 0.59655 0.32015 0.75829 0.0
C235 C 0.40458 0.25156 0.57533 0.0
O236 O 0.44189 0.28687 0.5334 0.0
C237 C 0.51117 0.16954 0.70942 0.0
Zn238 Zn 0.75934 0.32316 0.67481 0.0
Zn239 Zn 0.76416 0.23402 0.66606 0.0
O240 O 0.71998 0.23599 0.58199 0.0
O241 O 0.71841 0.31179 0.58465 0.0
O242 O 0.78972 0.18267 0.63496 0.0
O243 O 0.84 0.37465 0.6878 0.0
O244 O 0.83482 0.29666 0.70445 0.0
C245 C 0.7036 0.26643 0.55694 0.0
C246 C 0.69483 0.23457 0.7782 0.0
O247 O 0.71182 0.20613 0.74787 0.0
O248 O 0.71068 0.28258 0.7583 0.0
C249 C 0.77924 0.15916 0.57539 0.0
O250 O 0.74388 0.16109 0.53349 0.0
C251 C 0.8613 0.34782 0.70943 0.0
Zn252 Zn 0.54335 0.19571 0.20314 0.0
Zn253 Zn 0.45586 0.21637 0.17676 0.0
O254 O 0.50335 0.29358 0.20116 0.0
O255 O 0.56563 0.2741 0.23626 0.0
O256 O 0.3836 0.20333 0.14296 0.0
O257 O 0.5566 0.18565 0.10449 0.0
O258 O 0.48714 0.19823 0.08862 0.0
C259 C 0.54794 0.30701 0.23139 0.0
C260 C 0.4659 0.15222 0.29061 0.0
O261 O 0.4485 0.18392 0.27619 0.0
O262 O 0.4743 0.13034 0.23859 0.0
C263 C 0.35383 0.21891 0.17191 0.0
O264 O 0.36909 0.24609 0.23112 0.0
C265 C 0.52261 0.18784 0.06446 0.0
Zn266 Zn 0.83512 0.35381 0.20314 0.0
Zn267 Zn 0.81446 0.24566 0.17676 0.0
O268 O 0.73724 0.21593 0.20116 0.0
O269 O 0.75673 0.2977 0.23626 0.0
O270 O 0.8275 0.18644 0.14296 0.0
O271 O 0.84518 0.37712 0.10449 0.0
O272 O 0.83259 0.29508 0.08863 0.0
C273 C 0.72382 0.2471 0.23139 0.0
C274 C 0.87861 0.31985 0.29062 0.0
O275 O 0.84691 0.27075 0.2762 0.0
O276 O 0.90049 0.35013 0.2386 0.0
C277 C 0.8119 0.14107 0.17189 0.0
O278 O 0.7847 0.12914 0.23108 0.0
C279 C 0.84298 0.34094 0.06446 0.0
Zn280 Zn 0.67701 0.48747 0.20312 0.0
Zn281 Zn 0.78517 0.57496 0.17674 0.0
O282 O 0.81489 0.52747 0.20115 0.0
O283 O 0.73311 0.46519 0.23625 0.0
O284 O 0.84439 0.64722 0.14295 0.0
O285 O 0.6537 0.47423 0.10447 0.0
O286 O 0.73575 0.54368 0.08861 0.0
C287 C 0.78372 0.48287 0.23138 0.0
C288 C 0.71097 0.56492 0.2906 0.0
O289 O 0.76008 0.58233 0.27618 0.0
O290 O 0.6807 0.55652 0.23857 0.0
C291 C 0.88973 0.67701 0.17195 0.0
O292 O 0.90161 0.66177 0.23119 0.0
C293 C 0.68988 0.50821 0.06444 0.0
Zn294 Zn 0.5352 0.20386 0.85035 0.0
Zn295 Zn 0.55586 0.11637 0.87673 0.0
O296 O 0.63308 0.16385 0.85233 0.0
O297 O 0.61359 0.22614 0.81723 0.0
O298 O 0.54282 0.0441 0.91053 0.0
O299 O 0.52514 0.2171 -0.051 0.0
O300 O 0.53773 0.14765 -0.03513 0.0
C301 C 0.6465 0.20845 0.8221 0.0
C302 C 0.49171 0.12641 0.76288 0.0
O303 O 0.52341 0.10901 0.77729 0.0
O304 O 0.46983 0.13481 0.8149 0.0
C305 C 0.55839 0.01433 0.88156 0.0
O306 O 0.58555 0.02959 0.82234 0.0
C307 C 0.52733 0.18312 -0.01097 0.0
Zn308 Zn 0.82696 0.33752 0.85036 0.0
Zn309 Zn 0.91445 0.44567 0.87674 0.0
O310 O 0.86696 0.4754 0.85233 0.0
O311 O 0.80468 0.39362 0.81723 0.0
O312 O 0.98671 0.5049 0.91054 0.0
O313 O 0.81372 0.31421 -0.05099 0.0
O314 O 0.88318 0.39625 -0.03513 0.0
C315 C 0.82237 0.44422 0.8221 0.0
C316 C 0.90442 0.37148 0.76289 0.0
O317 O 0.92182 0.42059 0.77731 0.0
O318 O 0.89602 0.34121 0.81492 0.0
C319 C 1.0165 0.55023 0.88154 0.0
O320 O 1.00126 0.5621 0.82229 0.0
C321 C 0.84771 0.35039 -0.01097 0.0
Zn322 Zn 0.69331 0.49563 0.85034 0.0
Zn323 Zn 0.58515 0.47497 0.87672 0.0
O324 O 0.55542 0.39775 0.85232 0.0
O325 O 0.6372 0.41724 0.81722 0.0
O326 O 0.52593 0.48801 0.91052 0.0
O327 O 0.71662 0.50569 -0.05101 0.0
O328 O 0.63457 0.4931 -0.03515 0.0
C329 C 0.5866 0.38433 0.8221 0.0
C330 C 0.65935 0.53912 0.76286 0.0
O331 O 0.61024 0.50741 0.77728 0.0
O332 O 0.68962 0.561 0.81488 0.0
C333 C 0.48056 0.47241 0.88159 0.0
O334 O 0.46864 0.44521 0.8224 0.0
C335 C 0.68044 0.5035 -0.01099 0.0
Zn336 Zn 0.44851 0.7015 0.71202 0.0
Zn337 Zn 0.54248 0.79065 0.72077 0.0
O338 O 0.49632 0.78868 0.80483 0.0
O339 O 0.41895 0.71288 0.80218 0.0
O340 O 0.61939 0.842 0.75187 0.0
O341 O 0.47768 0.65002 0.69903 0.0
O342 O 0.55049 0.728 0.68238 0.0
C343 C 0.4495 0.75824 0.82988 0.0
C344 C 0.47259 0.79009 0.60861 0.0
O345 O 0.51803 0.81854 0.63895 0.0
O346 O 0.44044 0.74209 0.62852 0.0
C347 C 0.63241 0.86549 0.81145 0.0
O348 O 0.59512 0.86354 0.85336 0.0
C349 C 0.52582 0.67685 0.67741 0.0
Zn350 Zn 0.32932 0.75318 0.71201 0.0
Zn351 Zn 0.24017 0.758 0.72076 0.0
O352 O 0.24215 0.71383 0.80483 0.0
O353 O 0.31795 0.71225 0.80217 0.0
O354 O 0.18882 0.78356 0.75185 0.0
O355 O 0.38081 0.83383 0.69902 0.0
O356 O 0.30282 0.82866 0.68237 0.0
C357 C 0.27259 0.69744 0.82988 0.0
C358 C 0.24073 0.68867 0.60862 0.0
O359 O 0.21228 0.70566 0.63895 0.0
O360 O 0.28874 0.70452 0.62852 0.0
C361 C 0.16531 0.77308 0.81142 0.0
O362 O 0.16723 0.73771 0.85331 0.0
C363 C 0.35398 0.85514 0.67739 0.0
Zn364 Zn 0.27765 0.58232 0.71202 0.0
Zn365 Zn 0.27283 0.48835 0.72078 0.0
O366 O 0.31702 0.53451 0.80483 0.0
O367 O 0.31858 0.61188 0.80218 0.0
O368 O 0.24728 0.41144 0.75188 0.0
O369 O 0.197 0.55314 0.69903 0.0
O370 O 0.20217 0.48033 0.68238 0.0
C371 C 0.3334 0.58133 0.82988 0.0
C372 C 0.34216 0.55823 0.60862 0.0
O373 O 0.32516 0.51279 0.63895 0.0
O374 O 0.32631 0.59038 0.62853 0.0
C375 C 0.25772 0.39842 0.81149 0.0
O376 O 0.29303 0.43573 0.85342 0.0
C377 C 0.17569 0.50501 0.6774 0.0
Zn378 Zn 0.37433 0.77568 0.00813 0.0
Zn379 Zn 0.46348 0.86965 -0.00063 0.0
O380 O 0.46151 0.82349 0.91531 0.0
O381 O 0.38571 0.74613 0.91797 0.0
O382 O 0.51484 0.94656 -0.03172 0.0
O383 O 0.32284 0.80485 0.02111 0.0
O384 O 0.40083 0.87766 0.03776 0.0
C385 C 0.43107 0.77667 0.89027 0.0
C386 C 0.46292 0.79976 0.11153 0.0
O387 O 0.49137 0.8452 0.0812 0.0
O388 O 0.41491 0.76761 0.09162 0.0
C389 C 0.53831 0.95958 0.90868 0.0
O390 O 0.53634 0.92229 0.86676 0.0
C391 C 0.34968 0.85299 0.04274 0.0
Zn392 Zn 0.25515 0.60483 0.00813 0.0
Zn393 Zn 0.16117 0.60001 -0.00062 0.0
O394 O 0.20734 0.6442 0.91532 0.0
O395 O 0.2847 0.64576 0.91797 0.0
O396 O 0.08427 0.57446 -0.03173 0.0
O397 O 0.22597 0.52417 0.02112 0.0
O398 O 0.15316 0.52935 0.03777 0.0
C399 C 0.25416 0.66058 0.89027 0.0
C400 C 0.23106 0.66934 0.11153 0.0
O401 O 0.18562 0.65234 0.0812 0.0
O402 O 0.26321 0.65349 0.09162 0.0
C403 C 0.07125 0.58489 0.90866 0.0
O404 O 0.10855 0.62019 0.86672 0.0
C405 C 0.17783 0.50287 0.04275 0.0
Zn406 Zn 0.426 0.65649 0.00814 0.0
Zn407 Zn 0.43083 0.56735 -0.00061 0.0
O408 O 0.38665 0.56933 0.91532 0.0
O409 O 0.38507 0.64512 0.91798 0.0
O410 O 0.45638 0.516 -0.03171 0.0
O411 O 0.50666 0.70798 0.02113 0.0
O412 O 0.50149 0.63 0.03778 0.0
C413 C 0.37026 0.59976 0.89027 0.0
C414 C 0.36149 0.5679 0.11153 0.0
O415 O 0.37849 0.53946 0.0812 0.0
O416 O 0.37735 0.61591 0.09163 0.0
C417 C 0.44591 0.49249 0.90872 0.0
O418 O 0.41054 0.49442 0.86682 0.0
C419 C 0.52796 0.68115 0.04276 0.0
Zn420 Zn 0.21002 0.52904 0.53647 0.0
Zn421 Zn 0.12253 0.5497 0.51009 0.0
O422 O 0.17001 0.62692 0.53449 0.0
O423 O 0.2323 0.60743 0.56959 0.0
O424 O 0.05026 0.53666 0.47629 0.0
O425 O 0.22326 0.51898 0.43782 0.0
O426 O 0.15381 0.53157 0.42195 0.0
C427 C 0.21461 0.64034 0.56472 0.0
C428 C 0.13257 0.48555 0.62394 0.0
O429 O 0.11516 0.51725 0.60952 0.0
O430 O 0.14097 0.46367 0.57192 0.0
C431 C 0.02049 0.55225 0.50524 0.0
O432 O 0.03575 0.57943 0.56444 0.0
C433 C 0.18928 0.52118 0.39779 0.0
Zn434 Zn 0.50179 0.68714 0.53647 0.0
Zn435 Zn 0.48112 0.57899 0.51009 0.0
O436 O 0.4039 0.54926 0.53449 0.0
O437 O 0.4234 0.63103 0.56959 0.0
O438 O 0.49417 0.51977 0.4763 0.0
O439 O 0.51185 0.71045 0.43782 0.0
O440 O 0.49926 0.62841 0.42196 0.0
C441 C 0.39048 0.58043 0.56472 0.0
C442 C 0.54528 0.65319 0.62395 0.0
O443 O 0.51357 0.60408 0.60953 0.0
O444 O 0.56716 0.68346 0.57193 0.0
C445 C 0.47856 0.4744 0.50522 0.0
O446 O 0.45135 0.46246 0.5644 0.0
C447 C 0.50965 0.67427 0.39779 0.0
Zn448 Zn 0.34368 0.82081 0.53645 0.0
Zn449 Zn 0.45183 0.90829 0.51007 0.0
O450 O 0.48156 0.86081 0.53448 0.0
O451 O 0.39978 0.79852 0.56958 0.0
O452 O 0.51106 0.98055 0.47628 0.0
O453 O 0.32037 0.80756 0.4378 0.0
O454 O 0.40242 0.87702 0.42194 0.0
C455 C 0.45039 0.81621 0.56471 0.0
C456 C 0.37764 0.89826 0.62393 0.0
O457 O 0.42675 0.91566 0.60951 0.0
O458 O 0.34736 0.88986 0.5719 0.0
C459 C 0.5564 1.01034 0.50527 0.0
O460 O 0.56828 0.9951 0.56452 0.0
C461 C 0.35655 0.84155 0.39777 0.0
Zn462 Zn 0.20187 0.53719 0.18368 0.0
Zn463 Zn 0.22253 0.4497 0.21006 0.0
O464 O 0.29975 0.49719 0.18566 0.0
O465 O 0.28026 0.55947 0.15056 0.0
O466 O 0.20949 0.37744 0.24386 0.0
O467 O 0.1918 0.55044 0.28233 0.0
O468 O 0.20439 0.48098 0.2982 0.0
C469 C 0.31317 0.54178 0.15543 0.0
C470 C 0.15837 0.45975 0.09621 0.0
O471 O 0.19007 0.44234 0.11063 0.0
O472 O 0.13649 0.46815 0.14823 0.0
C473 C 0.22507 0.34767 0.2149 0.0
O474 O 0.25223 0.36292 0.15569 0.0
C475 C 0.194 0.51645 0.32236 0.0
Zn476 Zn 0.49363 0.67085 0.18369 0.0
Zn477 Zn 0.58112 0.779 0.21007 0.0
O478 O 0.53363 0.80873 0.18566 0.0
O479 O 0.47135 0.72696 0.15056 0.0
O480 O 0.65338 0.83823 0.24387 0.0
O481 O 0.48038 0.64754 0.28234 0.0
O482 O 0.54984 0.72958 0.2982 0.0
C483 C 0.48904 0.77756 0.15543 0.0
C484 C 0.57109 0.70481 0.09622 0.0
O485 O 0.58849 0.75392 0.11064 0.0
O486 O 0.56269 0.67454 0.14825 0.0
C487 C 0.68316 0.88357 0.21489 0.0
O488 O 0.66792 0.89546 0.15565 0.0
C489 C 0.51437 0.68372 0.32237 0.0
Zn490 Zn 0.35998 0.82896 0.18367 0.0
Zn491 Zn 0.25182 0.8083 0.21005 0.0
O492 O 0.22209 0.73108 0.18565 0.0
O493 O 0.30387 0.75057 0.15055 0.0
O494 O 0.1926 0.82134 0.24385 0.0
O495 O 0.38329 0.83903 0.28232 0.0
O496 O 0.30124 0.82644 0.29818 0.0
C497 C 0.25326 0.71766 0.15543 0.0
C498 C 0.32601 0.87245 0.09619 0.0
O499 O 0.27691 0.84075 0.11061 0.0
O500 O 0.35629 0.89433 0.14822 0.0
C501 C 0.14723 0.80573 0.21494 0.0
O502 O 0.13528 0.77852 0.15575 0.0
C503 C 0.34711 0.83683 0.32235 0.0
loop_
_geom_bond_atom_site_label_1
_geom_bond_atom_site_label_2
_geom_bond_distance
_geom_bond_site_symmetry_2
_ccdc_geom_bond_type
Zn0 O3 2.031 . S
Zn0 O5 2.049 1_545 S
Zn0 O10 2.067 . S
Zn1 O2 1.962 . S
Zn1 O4 1.986 . S
Zn1 O6 1.996 . S
Zn1 O9 1.943 . S
O2 Zn1 1.962 . S
O2 C7 1.254 . S
O3 Zn0 2.031 . S
O3 C7 1.269 . S
O4 Zn1 1.986 . S
O4 C11 1.262 . S
O5 Zn0 2.049 1_565 S
O5 C13 1.260 . S
O6 Zn1 1.996 . S
O6 C13 1.257 1_545 S
C7 O2 1.254 . S
C7 O3 1.269 . S
C8 O9 1.249 . S
C8 O10 1.270 . S
O9 Zn1 1.943 . S
O9 C8 1.249 . S
O10 Zn0 2.067 . S
O10 C8 1.270 . S
C11 O4 1.262 . S
C11 O12 1.232 . S
O12 C11 1.232 . S
C13 O5 1.260 . S
C13 O6 1.257 1_565 S
Zn14 O17 2.031 . S
Zn14 O19 2.049 1_655 S
Zn14 O24 2.067 . S
Zn15 O16 1.962 . S
Zn15 O18 1.986 . S
Zn15 O20 1.996 . S
Zn15 O23 1.943 . S
O16 Zn15 1.962 . S
O16 C21 1.254 . S
O17 Zn14 2.031 . S
O17 C21 1.269 . S
O18 Zn15 1.986 . S
O18 C25 1.262 . S
O19 Zn14 2.049 1_455 S
O19 C27 1.260 . S
O20 Zn15 1.996 . S
O20 C27 1.257 1_655 S
C21 O16 1.254 . S
C21 O17 1.269 . S
C22 O23 1.249 . S
C22 O24 1.270 . S
O23 Zn15 1.943 . S
O23 C22 1.249 . S
O24 Zn14 2.067 . S
O24 C22 1.270 . S
C25 O18 1.262 . S
C25 O26 1.232 . S
O26 C25 1.232 . S
C27 O19 1.260 . S
C27 O20 1.257 1_455 S
Zn28 O31 2.031 . S
Zn28 O33 2.049 . S
Zn28 O38 2.067 . S
Zn29 O30 1.962 . S
Zn29 O32 1.986 . S
Zn29 O34 1.996 . S
Zn29 O37 1.943 . S
O30 Zn29 1.962 . S
O30 C35 1.254 . S
O31 Zn28 2.031 . S
O31 C35 1.269 . S
O32 Zn29 1.986 . S
O32 C39 1.262 . S
O33 Zn28 2.049 . S
O33 C41 1.260 . S
O34 Zn29 1.996 . S
O34 C41 1.257 . S
C35 O30 1.254 . S
C35 O31 1.269 . S
C36 O37 1.249 . S
C36 O38 1.270 . S
O37 Zn29 1.943 . S
O37 C36 1.249 . S
O38 Zn28 2.067 . S
O38 C36 1.270 . S
C39 O32 1.262 . S
C39 O40 1.232 . S
O40 C39 1.232 . S
C41 O33 1.260 . S
C41 O34 1.257 . S
Zn42 O45 2.031 . S
Zn42 O47 2.049 1_455 S
Zn42 O52 2.067 . S
Zn43 O44 1.962 . S
Zn43 O46 1.986 . S
Zn43 O48 1.996 . S
Zn43 O51 1.943 . S
O44 Zn43 1.962 . S
O44 C49 1.254 . S
O45 Zn42 2.031 . S
O45 C49 1.269 . S
O46 Zn43 1.986 . S
O46 C53 1.262 . S
O47 Zn42 2.049 1_655 S
O47 C55 1.260 . S
O48 Zn43 1.996 . S
O48 C55 1.257 1_455 S
C49 O44 1.254 . S
C49 O45 1.269 . S
C50 O51 1.249 . S
C50 O52 1.270 . S
O51 Zn43 1.943 . S
O51 C50 1.249 . S
O52 Zn42 2.067 . S
O52 C50 1.270 . S
C53 O46 1.262 . S
C53 O54 1.232 . S
O54 C53 1.232 . S
C55 O47 1.260 . S
C55 O48 1.257 1_655 S
Zn56 O59 2.031 . S
Zn56 O61 2.049 . S
Zn56 O66 2.067 . S
Zn57 O58 1.962 . S
Zn57 O60 1.986 . S
Zn57 O62 1.996 . S
Zn57 O65 1.943 . S
O58 Zn57 1.962 . S
O58 C63 1.254 . S
O59 Zn56 2.031 . S
O59 C63 1.269 . S
O60 Zn57 1.986 . S
O60 C67 1.262 . S
O61 Zn56 2.049 . S
O61 C69 1.260 . S
O62 Zn57 1.996 . S
O62 C69 1.257 . S
C63 O58 1.254 . S
C63 O59 1.269 . S
C64 O65 1.249 . S
C64 O66 1.270 . S
O65 Zn57 1.943 . S
O65 C64 1.249 . S
O66 Zn56 2.067 . S
O66 C64 1.270 . S
C67 O60 1.262 . S
C67 O68 1.232 . S
O68 C67 1.232 . S
C69 O61 1.260 . S
C69 O62 1.257 . S
Zn70 O73 2.031 . S
Zn70 O75 2.049 1_565 S
Zn70 O80 2.067 . S
Zn71 O72 1.962 . S
Zn71 O74 1.986 . S
Zn71 O76 1.996 . S
Zn71 O79 1.943 . S
O72 Zn71 1.962 . S
O72 C77 1.254 . S
O73 Zn70 2.031 . S
O73 C77 1.269 . S
O74 Zn71 1.986 . S
O74 C81 1.262 . S
O75 Zn70 2.049 1_545 S
O75 C83 1.260 . S
O76 Zn71 1.996 . S
O76 C83 1.257 1_565 S
C77 O72 1.254 . S
C77 O73 1.269 . S
C78 O79 1.249 . S
C78 O80 1.270 . S
O79 Zn71 1.943 . S
O79 C78 1.249 . S
O80 Zn70 2.067 . S
O80 C78 1.270 . S
C81 O74 1.262 . S
C81 O82 1.232 . S
O82 C81 1.232 . S
C83 O75 1.260 . S
C83 O76 1.257 1_545 S
Zn84 O87 2.031 . S
Zn84 O89 2.049 . S
Zn84 O94 2.067 . S
Zn85 O86 1.962 . S
Zn85 O88 1.986 . S
Zn85 O90 1.996 . S
Zn85 O93 1.943 . S
O86 Zn85 1.962 . S
O86 C91 1.254 . S
O87 Zn84 2.031 . S
O87 C91 1.269 . S
O88 Zn85 1.986 . S
O88 C95 1.262 . S
O89 Zn84 2.049 . S
O89 C97 1.260 . S
O90 Zn85 1.996 . S
O90 C97 1.257 . S
C91 O86 1.254 . S
C91 O87 1.269 . S
C92 O93 1.249 . S
C92 O94 1.270 . S
O93 Zn85 1.943 . S
O93 C92 1.249 . S
O94 Zn84 2.067 . S
O94 C92 1.270 . S
C95 O88 1.262 . S
C95 O96 1.232 . S
O96 C95 1.232 . S
C97 O89 1.260 . S
C97 O90 1.257 . S
Zn98 O101 2.031 . S
Zn98 O103 2.049 1_565 S
Zn98 O108 2.067 1_565 S
Zn99 O100 1.962 . S
Zn99 O102 1.986 . S
Zn99 O104 1.996 . S
Zn99 O107 1.943 . S
O100 Zn99 1.962 . S
O100 C105 1.254 . S
O101 Zn98 2.031 . S
O101 C105 1.269 . S
O102 Zn99 1.986 . S
O102 C109 1.262 . S
O103 Zn98 2.049 1_545 S
O103 C111 1.260 1_545 S
O104 Zn99 1.996 . S
O104 C111 1.257 . S
C105 O100 1.254 . S
C105 O101 1.269 . S
C106 O107 1.249 . S
C106 O108 1.270 1_565 S
O107 Zn99 1.943 . S
O107 C106 1.249 . S
O108 Zn98 2.067 1_545 S
O108 C106 1.270 1_545 S
C109 O102 1.262 . S
C109 O110 1.232 . S
O110 C109 1.232 . S
C111 O103 1.260 1_565 S
C111 O104 1.257 . S
Zn112 O115 2.031 . S
Zn112 O117 2.049 1_455 S
Zn112 O122 2.067 1_455 S
Zn113 O114 1.962 . S
Zn113 O116 1.986 . S
Zn113 O118 1.996 . S
Zn113 O121 1.943 . S
O114 Zn113 1.962 . S
O114 C119 1.254 . S
O115 Zn112 2.031 . S
O115 C119 1.269 . S
O116 Zn113 1.986 . S
O116 C123 1.262 . S
O117 Zn112 2.049 1_655 S
O117 C125 1.260 1_655 S
O118 Zn113 1.996 . S
O118 C125 1.257 . S
C119 O114 1.254 . S
C119 O115 1.269 . S
C120 O121 1.249 . S
C120 O122 1.270 1_455 S
O121 Zn113 1.943 . S
O121 C120 1.249 . S
O122 Zn112 2.067 1_655 S
O122 C120 1.270 1_655 S
C123 O116 1.262 . S
C123 O124 1.232 . S
O124 C123 1.232 . S
C125 O117 1.260 1_455 S
C125 O118 1.257 . S
Zn126 O129 2.031 . S
Zn126 O131 2.049 . S
Zn126 O136 2.067 . S
Zn127 O128 1.962 . S
Zn127 O130 1.986 . S
Zn127 O132 1.996 . S
Zn127 O135 1.943 . S
O128 Zn127 1.962 . S
O128 C133 1.254 . S
O129 Zn126 2.031 . S
O129 C133 1.269 . S
O130 Zn127 1.986 . S
O130 C137 1.262 . S
O131 Zn126 2.049 . S
O131 C139 1.260 . S
O132 Zn127 1.996 . S
O132 C139 1.257 . S
C133 O128 1.254 . S
C133 O129 1.269 . S
C134 O135 1.249 . S
C134 O136 1.270 . S
O135 Zn127 1.943 . S
O135 C134 1.249 . S
O136 Zn126 2.067 . S
O136 C134 1.270 . S
C137 O130 1.262 . S
C137 O138 1.232 . S
O138 C137 1.232 . S
C139 O131 1.260 . S
C139 O132 1.257 . S
Zn140 O143 2.031 . S
Zn140 O145 2.049 1_545 S
Zn140 O150 2.067 1_545 S
Zn141 O142 1.962 . S
Zn141 O144 1.986 . S
Zn141 O146 1.996 . S
Zn141 O149 1.943 . S
O142 Zn141 1.962 . S
O142 C147 1.254 . S
O143 Zn140 2.031 . S
O143 C147 1.269 . S
O144 Zn141 1.986 . S
O144 C151 1.262 . S
O145 Zn140 2.049 1_565 S
O145 C153 1.260 1_565 S
O146 Zn141 1.996 . S
O146 C153 1.257 . S
C147 O142 1.254 . S
C147 O143 1.269 . S
C148 O149 1.249 . S
C148 O150 1.270 1_545 S
O149 Zn141 1.943 . S
O149 C148 1.249 . S
O150 Zn140 2.067 1_565 S
O150 C148 1.270 1_565 S
C151 O144 1.262 . S
C151 O152 1.232 . S
O152 C151 1.232 . S
C153 O145 1.260 1_545 S
C153 O146 1.257 . S
Zn154 O157 2.031 . S
Zn154 O159 2.049 1_655 S
Zn154 O164 2.067 1_655 S
Zn155 O156 1.962 . S
Zn155 O158 1.986 . S
Zn155 O160 1.996 . S
Zn155 O163 1.943 . S
O156 Zn155 1.962 . S
O156 C161 1.254 . S
O157 Zn154 2.031 . S
O157 C161 1.269 . S
O158 Zn155 1.986 . S
O158 C165 1.262 . S
O159 Zn154 2.049 1_455 S
O159 C167 1.260 1_455 S
O160 Zn155 1.996 . S
O160 C167 1.257 . S
C161 O156 1.254 . S
C161 O157 1.269 . S
C162 O163 1.249 . S
C162 O164 1.270 1_655 S
O163 Zn155 1.943 . S
O163 C162 1.249 . S
O164 Zn154 2.067 1_455 S
O164 C162 1.270 1_455 S
C165 O158 1.262 . S
C165 O166 1.232 . S
O166 C165 1.232 . S
C167 O159 1.260 1_655 S
C167 O160 1.257 . S
Zn168 O171 2.031 . S
Zn168 O173 2.049 . S
Zn168 O178 2.067 . S
Zn169 O170 1.962 . S
Zn169 O172 1.986 . S
Zn169 O174 1.996 . S
Zn169 O177 1.943 . S
O170 Zn169 1.962 . S
O170 C175 1.254 . S
O171 Zn168 2.031 . S
O171 C175 1.269 . S
O172 Zn169 1.986 . S
O172 C179 1.262 . S
O173 Zn168 2.049 . S
O173 C181 1.260 . S
O174 Zn169 1.996 . S
O174 C181 1.257 . S
C175 O170 1.254 . S
C175 O171 1.269 . S
C176 O177 1.249 . S
C176 O178 1.270 . S
O177 Zn169 1.943 . S
O177 C176 1.249 . S
O178 Zn168 2.067 . S
O178 C176 1.270 . S
C179 O172 1.262 . S
C179 O180 1.232 . S
O180 C179 1.232 . S
C181 O173 1.260 . S
C181 O174 1.257 . S
Zn182 O185 2.031 . S
Zn182 O187 2.049 . S
Zn182 O192 2.067 . S
Zn183 O184 1.962 . S
Zn183 O186 1.986 . S
Zn183 O188 1.996 . S
Zn183 O191 1.943 . S
O184 Zn183 1.962 . S
O184 C189 1.254 . S
O185 Zn182 2.031 . S
O185 C189 1.269 . S
O186 Zn183 1.986 . S
O186 C193 1.262 . S
O187 Zn182 2.049 . S
O187 C195 1.260 . S
O188 Zn183 1.996 . S
O188 C195 1.257 . S
C189 O184 1.254 . S
C189 O185 1.269 . S
C190 O191 1.249 . S
C190 O192 1.270 . S
O191 Zn183 1.943 . S
O191 C190 1.249 . S
O192 Zn182 2.067 . S
O192 C190 1.270 . S
C193 O186 1.262 . S
C193 O194 1.232 . S
O194 C193 1.232 . S
C195 O187 1.260 . S
C195 O188 1.257 . S
Zn196 O199 2.031 . S
Zn196 O201 2.049 . S
Zn196 O206 2.067 . S
Zn197 O198 1.962 . S
Zn197 O200 1.986 . S
Zn197 O202 1.996 . S
Zn197 O205 1.943 . S
O198 Zn197 1.962 . S
O198 C203 1.254 . S
O199 Zn196 2.031 . S
O199 C203 1.269 . S
O200 Zn197 1.986 . S
O200 C207 1.262 . S
O201 Zn196 2.049 . S
O201 C209 1.260 . S
O202 Zn197 1.996 . S
O202 C209 1.257 . S
C203 O198 1.254 . S
C203 O199 1.269 . S
C204 O205 1.249 . S
C204 O206 1.270 . S
O205 Zn197 1.943 . S
O205 C204 1.249 . S
O206 Zn196 2.067 . S
O206 C204 1.270 . S
C207 O200 1.262 . S
C207 O208 1.232 . S
O208 C207 1.232 . S
C209 O201 1.260 . S
C209 O202 1.257 . S
Zn210 O213 2.031 . S
Zn210 O215 2.049 . S
Zn210 O220 2.067 . S
Zn211 O212 1.962 . S
Zn211 O214 1.986 . S
Zn211 O216 1.996 . S
Zn211 O219 1.943 . S
O212 Zn211 1.962 . S
O212 C217 1.254 . S
O213 Zn210 2.031 . S
O213 C217 1.269 . S
O214 Zn211 1.986 . S
O214 C221 1.262 . S
O215 Zn210 2.049 . S
O215 C223 1.260 . S
O216 Zn211 1.996 . S
O216 C223 1.257 . S
C217 O212 1.254 . S
C217 O213 1.269 . S
C218 O219 1.249 . S
C218 O220 1.270 . S
O219 Zn211 1.943 . S
O219 C218 1.249 . S
O220 Zn210 2.067 . S
O220 C218 1.270 . S
C221 O214 1.262 . S
C221 O222 1.232 . S
O222 C221 1.232 . S
C223 O215 1.260 . S
C223 O216 1.257 . S
Zn224 O227 2.031 . S
Zn224 O229 2.049 . S
Zn224 O234 2.067 . S
Zn225 O226 1.962 . S
Zn225 O228 1.986 . S
Zn225 O230 1.996 . S
Zn225 O233 1.943 . S
O226 Zn225 1.962 . S
O226 C231 1.254 . S
O227 Zn224 2.031 . S
O227 C231 1.269 . S
O228 Zn225 1.986 . S
O228 C235 1.262 . S
O229 Zn224 2.049 . S
O229 C237 1.260 . S
O230 Zn225 1.996 . S
O230 C237 1.257 . S
C231 O226 1.254 . S
C231 O227 1.269 . S
C232 O233 1.249 . S
C232 O234 1.270 . S
O233 Zn225 1.943 . S
O233 C232 1.249 . S
O234 Zn224 2.067 . S
O234 C232 1.270 . S
C235 O228 1.262 . S
C235 O236 1.232 . S
O236 C235 1.232 . S
C237 O229 1.260 . S
C237 O230 1.257 . S
Zn238 O241 2.031 . S
Zn238 O243 2.049 . S
Zn238 O248 2.067 . S
Zn239 O240 1.962 . S
Zn239 O242 1.986 . S
Zn239 O244 1.996 . S
Zn239 O247 1.943 . S
O240 Zn239 1.962 . S
O240 C245 1.254 . S
O241 Zn238 2.031 . S
O241 C245 1.269 . S
O242 Zn239 1.986 . S
O242 C249 1.262 . S
O243 Zn238 2.049 . S
O243 C251 1.260 . S
O244 Zn239 1.996 . S
O244 C251 1.257 . S
C245 O240 1.254 . S
C245 O241 1.269 . S
C246 O247 1.249 . S
C246 O248 1.270 . S
O247 Zn239 1.943 . S
O247 C246 1.249 . S
O248 Zn238 2.067 . S
O248 C246 1.270 . S
C249 O242 1.262 . S
C249 O250 1.232 . S
O250 C249 1.232 . S
C251 O243 1.260 . S
C251 O244 1.257 . S
Zn252 O255 2.031 . S
Zn252 O257 2.049 . S
Zn252 O262 2.067 . S
Zn253 O254 1.962 . S
Zn253 O256 1.986 . S
Zn253 O258 1.996 . S
Zn253 O261 1.943 . S
O254 Zn253 1.962 . S
O254 C259 1.254 . S
O255 Zn252 2.031 . S
O255 C259 1.269 . S
O256 Zn253 1.986 . S
O256 C263 1.262 . S
O257 Zn252 2.049 . S
O257 C265 1.260 . S
O258 Zn253 1.996 . S
O258 C265 1.257 . S
C259 O254 1.254 . S
C259 O255 1.269 . S
C260 O261 1.249 . S
C260 O262 1.270 . S
O261 Zn253 1.943 . S
O261 C260 1.249 . S
O262 Zn252 2.067 . S
O262 C260 1.270 . S
C263 O256 1.262 . S
C263 O264 1.232 . S
O264 C263 1.232 . S
C265 O257 1.260 . S
C265 O258 1.257 . S
Zn266 O269 2.031 . S
Zn266 O271 2.049 . S
Zn266 O276 2.067 . S
Zn267 O268 1.962 . S
Zn267 O270 1.986 . S
Zn267 O272 1.996 . S
Zn267 O275 1.943 . S
O268 Zn267 1.962 . S
O268 C273 1.254 . S
O269 Zn266 2.031 . S
O269 C273 1.269 . S
O270 Zn267 1.986 . S
O270 C277 1.262 . S
O271 Zn266 2.049 . S
O271 C279 1.260 . S
O272 Zn267 1.996 . S
O272 C279 1.257 . S
C273 O268 1.254 . S
C273 O269 1.269 . S
C274 O275 1.249 . S
C274 O276 1.270 . S
O275 Zn267 1.943 . S
O275 C274 1.249 . S
O276 Zn266 2.067 . S
O276 C274 1.270 . S
C277 O270 1.262 . S
C277 O278 1.232 . S
O278 C277 1.232 . S
C279 O271 1.260 . S
C279 O272 1.257 . S
Zn280 O283 2.031 . S
Zn280 O285 2.049 . S
Zn280 O290 2.067 . S
Zn281 O282 1.962 . S
Zn281 O284 1.986 . S
Zn281 O286 1.996 . S
Zn281 O289 1.943 . S
O282 Zn281 1.962 . S
O282 C287 1.254 . S
O283 Zn280 2.031 . S
O283 C287 1.269 . S
O284 Zn281 1.986 . S
O284 C291 1.262 . S
O285 Zn280 2.049 . S
O285 C293 1.260 . S
O286 Zn281 1.996 . S
O286 C293 1.257 . S
C287 O282 1.254 . S
C287 O283 1.269 . S
C288 O289 1.249 . S
C288 O290 1.270 . S
O289 Zn281 1.943 . S
O289 C288 1.249 . S
O290 Zn280 2.067 . S
O290 C288 1.270 . S
C291 O284 1.262 . S
C291 O292 1.232 . S
O292 C291 1.232 . S
C293 O285 1.260 . S
C293 O286 1.257 . S
Zn294 O297 2.031 . S
Zn294 O299 2.049 1_556 S
Zn294 O304 2.067 . S
Zn295 O296 1.962 . S
Zn295 O298 1.986 1_556 S
Zn295 O300 1.996 1_556 S
Zn295 O303 1.943 . S
O296 Zn295 1.962 . S
O296 C301 1.254 . S
O297 Zn294 2.031 . S
O297 C301 1.269 . S
O298 Zn295 1.986 1_554 S
O298 C305 1.262 1_554 S
O299 Zn294 2.049 1_554 S
O299 C307 1.260 . S
O300 Zn295 1.996 1_554 S
O300 C307 1.257 . S
C301 O296 1.254 . S
C301 O297 1.269 . S
C302 O303 1.249 . S
C302 O304 1.270 . S
O303 Zn295 1.943 . S
O303 C302 1.249 . S
O304 Zn294 2.067 . S
O304 C302 1.270 . S
C305 O298 1.262 1_556 S
C305 O306 1.232 . S
O306 C305 1.232 . S
C307 O299 1.260 . S
C307 O300 1.257 . S
Zn308 O311 2.031 . S
Zn308 O313 2.049 1_556 S
Zn308 O318 2.067 . S
Zn309 O310 1.962 . S
Zn309 O312 1.986 1_556 S
Zn309 O314 1.996 1_556 S
Zn309 O317 1.943 . S
O310 Zn309 1.962 . S
O310 C315 1.254 . S
O311 Zn308 2.031 . S
O311 C315 1.269 . S
O312 Zn309 1.986 1_554 S
O312 C319 1.262 1_554 S
O313 Zn308 2.049 1_554 S
O313 C321 1.260 . S
O314 Zn309 1.996 1_554 S
O314 C321 1.257 . S
C315 O310 1.254 . S
C315 O311 1.269 . S
C316 O317 1.249 . S
C316 O318 1.270 . S
O317 Zn309 1.943 . S
O317 C316 1.249 . S
O318 Zn308 2.067 . S
O318 C316 1.270 . S
C319 O312 1.262 1_556 S
C319 O320 1.232 . S
O320 C319 1.232 . S
C321 O313 1.260 . S
C321 O314 1.257 . S
Zn322 O325 2.031 . S
Zn322 O327 2.049 1_556 S
Zn322 O332 2.067 . S
Zn323 O324 1.962 . S
Zn323 O326 1.986 1_556 S
Zn323 O328 1.996 1_556 S
Zn323 O331 1.943 . S
O324 Zn323 1.962 . S
O324 C329 1.254 . S
O325 Zn322 2.031 . S
O325 C329 1.269 . S
O326 Zn323 1.986 1_554 S
O326 C333 1.262 1_554 S
O327 Zn322 2.049 1_554 S
O327 C335 1.260 . S
O328 Zn323 1.996 1_554 S
O328 C335 1.257 . S
C329 O324 1.254 . S
C329 O325 1.269 . S
C330 O331 1.249 . S
C330 O332 1.270 . S
O331 Zn323 1.943 . S
O331 C330 1.249 . S
O332 Zn322 2.067 . S
O332 C330 1.270 . S
C333 O326 1.262 1_556 S
C333 O334 1.232 . S
O334 C333 1.232 . S
C335 O327 1.260 . S
C335 O328 1.257 . S
Zn336 O339 2.031 . S
Zn336 O341 2.049 . S
Zn336 O346 2.067 . S
Zn337 O338 1.962 . S
Zn337 O340 1.986 . S
Zn337 O342 1.996 . S
Zn337 O345 1.943 . S
O338 Zn337 1.962 . S
O338 C343 1.254 . S
O339 Zn336 2.031 . S
O339 C343 1.269 . S
O340 Zn337 1.986 . S
O340 C347 1.262 . S
O341 Zn336 2.049 . S
O341 C349 1.260 . S
O342 Zn337 1.996 . S
O342 C349 1.257 . S
C343 O338 1.254 . S
C343 O339 1.269 . S
C344 O345 1.249 . S
C344 O346 1.270 . S
O345 Zn337 1.943 . S
O345 C344 1.249 . S
O346 Zn336 2.067 . S
O346 C344 1.270 . S
C347 O340 1.262 . S
C347 O348 1.232 . S
O348 C347 1.232 . S
C349 O341 1.260 . S
C349 O342 1.257 . S
Zn350 O353 2.031 . S
Zn350 O355 2.049 . S
Zn350 O360 2.067 . S
Zn351 O352 1.962 . S
Zn351 O354 1.986 . S
Zn351 O356 1.996 . S
Zn351 O359 1.943 . S
O352 Zn351 1.962 . S
O352 C357 1.254 . S
O353 Zn350 2.031 . S
O353 C357 1.269 . S
O354 Zn351 1.986 . S
O354 C361 1.262 . S
O355 Zn350 2.049 . S
O355 C363 1.260 . S
O356 Zn351 1.996 . S
O356 C363 1.257 . S
C357 O352 1.254 . S
C357 O353 1.269 . S
C358 O359 1.249 . S
C358 O360 1.270 . S
O359 Zn351 1.943 . S
O359 C358 1.249 . S
O360 Zn350 2.067 . S
O360 C358 1.270 . S
C361 O354 1.262 . S
C361 O362 1.232 . S
O362 C361 1.232 . S
C363 O355 1.260 . S
C363 O356 1.257 . S
Zn364 O367 2.031 . S
Zn364 O369 2.049 . S
Zn364 O374 2.067 . S
Zn365 O366 1.962 . S
Zn365 O368 1.986 . S
Zn365 O370 1.996 . S
Zn365 O373 1.943 . S
O366 Zn365 1.962 . S
O366 C371 1.254 . S
O367 Zn364 2.031 . S
O367 C371 1.269 . S
O368 Zn365 1.986 . S
O368 C375 1.262 . S
O369 Zn364 2.049 . S
O369 C377 1.260 . S
O370 Zn365 1.996 . S
O370 C377 1.257 . S
C371 O366 1.254 . S
C371 O367 1.269 . S
C372 O373 1.249 . S
C372 O374 1.270 . S
O373 Zn365 1.943 . S
O373 C372 1.249 . S
O374 Zn364 2.067 . S
O374 C372 1.270 . S
C375 O368 1.262 . S
C375 O376 1.232 . S
O376 C375 1.232 . S
C377 O369 1.260 . S
C377 O370 1.257 . S
Zn378 O381 2.031 1_554 S
Zn378 O383 2.049 . S
Zn378 O388 2.067 . S
Zn379 O380 1.962 1_554 S
Zn379 O382 1.986 . S
Zn379 O384 1.996 . S
Zn379 O387 1.943 . S
O380 Zn379 1.962 1_556 S
O380 C385 1.254 . S
O381 Zn378 2.031 1_556 S
O381 C385 1.269 . S
O382 Zn379 1.986 . S
O382 C389 1.262 . S
O383 Zn378 2.049 . S
O383 C391 1.260 . S
O384 Zn379 1.996 . S
O384 C391 1.257 . S
C385 O380 1.254 . S
C385 O381 1.269 . S
C386 O387 1.249 . S
C386 O388 1.270 . S
O387 Zn379 1.943 . S
O387 C386 1.249 . S
O388 Zn378 2.067 . S
O388 C386 1.270 . S
C389 O382 1.262 . S
C389 O390 1.232 1_554 S
O390 C389 1.232 1_556 S
C391 O383 1.260 . S
C391 O384 1.257 . S
Zn392 O395 2.031 1_554 S
Zn392 O397 2.049 . S
Zn392 O402 2.067 . S
Zn393 O394 1.962 1_554 S
Zn393 O396 1.986 . S
Zn393 O398 1.996 . S
Zn393 O401 1.943 . S
O394 Zn393 1.962 1_556 S
O394 C399 1.254 . S
O395 Zn392 2.031 1_556 S
O395 C399 1.269 . S
O396 Zn393 1.986 . S
O396 C403 1.262 . S
O397 Zn392 2.049 . S
O397 C405 1.260 . S
O398 Zn393 1.996 . S
O398 C405 1.257 . S
C399 O394 1.254 . S
C399 O395 1.269 . S
C400 O401 1.249 . S
C400 O402 1.270 . S
O401 Zn393 1.943 . S
O401 C400 1.249 . S
O402 Zn392 2.067 . S
O402 C400 1.270 . S
C403 O396 1.262 . S
C403 O404 1.232 1_554 S
O404 C403 1.232 1_556 S
C405 O397 1.260 . S
C405 O398 1.257 . S
Zn406 O409 2.031 1_554 S
Zn406 O411 2.049 . S
Zn406 O416 2.067 . S
Zn407 O408 1.962 1_554 S
Zn407 O410 1.986 . S
Zn407 O412 1.996 . S
Zn407 O415 1.943 . S
O408 Zn407 1.962 1_556 S
O408 C413 1.254 . S
O409 Zn406 2.031 1_556 S
O409 C413 1.269 . S
O410 Zn407 1.986 . S
O410 C417 1.262 . S
O411 Zn406 2.049 . S
O411 C419 1.260 . S
O412 Zn407 1.996 . S
O412 C419 1.257 . S
C413 O408 1.254 . S
C413 O409 1.269 . S
C414 O415 1.249 . S
C414 O416 1.270 . S
O415 Zn407 1.943 . S
O415 C414 1.249 . S
O416 Zn406 2.067 . S
O416 C414 1.270 . S
C417 O410 1.262 . S
C417 O418 1.232 1_554 S
O418 C417 1.232 1_556 S
C419 O411 1.260 . S
C419 O412 1.257 . S
Zn420 O423 2.031 . S
Zn420 O425 2.049 . S
Zn420 O430 2.067 . S
Zn421 O422 1.962 . S
Zn421 O424 1.986 . S
Zn421 O426 1.996 . S
Zn421 O429 1.943 . S
O422 Zn421 1.962 . S
O422 C427 1.254 . S
O423 Zn420 2.031 . S
O423 C427 1.269 . S
O424 Zn421 1.986 . S
O424 C431 1.262 . S
O425 Zn420 2.049 . S
O425 C433 1.260 . S
O426 Zn421 1.996 . S
O426 C433 1.257 . S
C427 O422 1.254 . S
C427 O423 1.269 . S
C428 O429 1.249 . S
C428 O430 1.270 . S
O429 Zn421 1.943 . S
O429 C428 1.249 . S
O430 Zn420 2.067 . S
O430 C428 1.270 . S
C431 O424 1.262 . S
C431 O432 1.232 . S
O432 C431 1.232 . S
C433 O425 1.260 . S
C433 O426 1.257 . S
Zn434 O437 2.031 . S
Zn434 O439 2.049 . S
Zn434 O444 2.067 . S
Zn435 O436 1.962 . S
Zn435 O438 1.986 . S
Zn435 O440 1.996 . S
Zn435 O443 1.943 . S
O436 Zn435 1.962 . S
O436 C441 1.254 . S
O437 Zn434 2.031 . S
O437 C441 1.269 . S
O438 Zn435 1.986 . S
O438 C445 1.262 . S
O439 Zn434 2.049 . S
O439 C447 1.260 . S
O440 Zn435 1.996 . S
O440 C447 1.257 . S
C441 O436 1.254 . S
C441 O437 1.269 . S
C442 O443 1.249 . S
C442 O444 1.270 . S
O443 Zn435 1.943 . S
O443 C442 1.249 . S
O444 Zn434 2.067 . S
O444 C442 1.270 . S
C445 O438 1.262 . S
C445 O446 1.232 . S
O446 C445 1.232 . S
C447 O439 1.260 . S
C447 O440 1.257 . S
Zn448 O451 2.031 . S
Zn448 O453 2.049 . S
Zn448 O458 2.067 . S
Zn449 O450 1.962 . S
Zn449 O452 1.986 . S
Zn449 O454 1.996 . S
Zn449 O457 1.943 . S
O450 Zn449 1.962 . S
O450 C455 1.254 . S
O451 Zn448 2.031 . S
O451 C455 1.269 . S
O452 Zn449 1.986 . S
O452 C459 1.262 . S
O453 Zn448 2.049 . S
O453 C461 1.260 . S
O454 Zn449 1.996 . S
O454 C461 1.257 . S
C455 O450 1.254 . S
C455 O451 1.269 . S
C456 O457 1.249 . S
C456 O458 1.270 . S
O457 Zn449 1.943 . S
O457 C456 1.249 . S
O458 Zn448 2.067 . S
O458 C456 1.270 . S
C459 O452 1.262 . S
C459 O460 1.232 . S
O460 C459 1.232 . S
C461 O453 1.260 . S
C461 O454 1.257 . S
Zn462 O465 2.031 . S
Zn462 O467 2.049 . S
Zn462 O472 2.067 . S
Zn463 O464 1.962 . S
Zn463 O466 1.986 . S
Zn463 O468 1.996 . S
Zn463 O471 1.943 . S
O464 Zn463 1.962 . S
O464 C469 1.254 . S
O465 Zn462 2.031 . S
O465 C469 1.269 . S
O466 Zn463 1.986 . S
O466 C473 1.262 . S
O467 Zn462 2.049 . S
O467 C475 1.260 . S
O468 Zn463 1.996 . S
O468 C475 1.257 . S
C469 O464 1.254 . S
C469 O465 1.269 . S
C470 O471 1.249 . S
C470 O472 1.270 . S
O471 Zn463 1.943 . S
O471 C470 1.249 . S
O472 Zn462 2.067 . S
O472 C470 1.270 . S
C473 O466 1.262 . S
C473 O474 1.232 . S
O474 C473 1.232 . S
C475 O467 1.260 . S
C475 O468 1.257 . S
Zn476 O479 2.031 . S
Zn476 O481 2.049 . S
Zn476 O486 2.067 . S
Zn477 O478 1.962 . S
Zn477 O480 1.986 . S
Zn477 O482 1.996 . S
Zn477 O485 1.943 . S
O478 Zn477 1.962 . S
O478 C483 1.254 . S
O479 Zn476 2.031 . S
O479 C483 1.269 . S
O480 Zn477 1.986 . S
O480 C487 1.262 . S
O481 Zn476 2.049 . S
O481 C489 1.260 . S
O482 Zn477 1.996 . S
O482 C489 1.257 . S
C483 O478 1.254 . S
C483 O479 1.269 . S
C484 O485 1.249 . S
C484 O486 1.270 . S
O485 Zn477 1.943 . S
O485 C484 1.249 . S
O486 Zn476 2.067 . S
O486 C484 1.270 . S
C487 O480 1.262 . S
C487 O488 1.232 . S
O488 C487 1.232 . S
C489 O481 1.260 . S
C489 O482 1.257 . S
Zn490 O493 2.031 . S
Zn490 O495 2.049 . S
Zn490 O500 2.067 . S
Zn491 O492 1.962 . S
Zn491 O494 1.986 . S
Zn491 O496 1.996 . S
Zn491 O499 1.943 . S
O492 Zn491 1.962 . S
O492 C497 1.254 . S
O493 Zn490 2.031 . S
O493 C497 1.269 . S
O494 Zn491 1.986 . S
O494 C501 1.262 . S
O495 Zn490 2.049 . S
O495 C503 1.260 . S
O496 Zn491 1.996 . S
O496 C503 1.257 . S
C497 O492 1.254 . S
C497 O493 1.269 . S
C498 O499 1.249 . S
C498 O500 1.270 . S
O499 Zn491 1.943 . S
O499 C498 1.249 . S
O500 Zn490 2.067 . S
O500 C498 1.270 . S
C501 O494 1.262 . S
C501 O502 1.232 . S
O502 C501 1.232 . S
C503 O495 1.260 . S
C503 O496 1.257 . S
C13 C106 1.377 1_554 S
C27 C120 1.377 1_554 S
C92 C41 1.377 1_556 S
C162 C55 1.377 . S
C69 C134 1.377 . S
C83 C148 1.377 . S
C22 C91 1.388 1_544 S
C36 C105 1.388 1_654 S
C119 C8 1.388 1_556 S
C133 C78 1.388 1_655 S
C50 C147 1.388 . S
C161 C64 1.388 1_545 S
C274 C181 1.377 . S
C195 C288 1.377 . S
C209 C260 1.377 . S
C330 C223 1.377 . S
C237 C302 1.377 . S
C316 C251 1.377 . S
C190 C259 1.388 . S
C273 C204 1.388 . S
C176 C287 1.388 . S
C301 C246 1.388 . S
C315 C218 1.388 . S
C329 C232 1.388 . S
C442 C349 1.377 . S
C456 C363 1.377 . S
C428 C377 1.377 . S
C391 C498 1.377 . S
C405 C470 1.377 . S
C484 C419 1.377 . S
C427 C358 1.388 . S
C372 C441 1.388 . S
C344 C455 1.388 . S
C469 C414 1.388 . S
C483 C386 1.388 . S
C497 C400 1.388 . S
C49 C7 1.503 . S
C63 C21 1.503 1_565 S
C35 C77 1.503 1_655 S
C139 C97 1.306 . S
C153 C111 1.306 1_545 S
C167 C125 1.306 1_655 S
C217 C175 1.503 . S
C231 C189 1.503 . S
C203 C245 1.503 . S
C307 C265 1.306 . S
C321 C279 1.306 . S
C335 C293 1.306 . S
C385 C343 1.503 . S
C357 C399 1.503 . S
C413 C371 1.503 . S
C433 C475 1.306 . S
C447 C489 1.306 . S
C461 C503 1.306 . S
C11 C263 1.583 . S
C277 C25 1.583 . S
C291 C39 1.583 . S
C473 C53 1.583 . S
C487 C67 1.583 . S
C501 C81 1.583 . S
C95 C347 1.583 . S
C361 C109 1.583 . S
C375 C123 1.583 . S
C137 C221 1.583 . S
C151 C235 1.583 . S
C165 C249 1.583 . S
C431 C179 1.583 1_455 S
C445 C193 1.583 . S
C207 C459 1.583 1_545 S
C305 C389 1.583 1_546 S
C319 C403 1.583 1_656 S
C333 C417 1.583 1_556 S
