# Generated by pormake.
# Topology vby, (6)-cn, num edge types: 1
# Building blocks:
#     Node 0, Type 0, BuildingBlock: KUMJIN_clean_sbu_0, # of connection points: 6
#     Node 1, Type 0, BuildingBlock: KUMJIN_clean_sbu_0, # of connection points: 6
#     Node 2, Type 0, BuildingBlock: KUMJIN_clean_sbu_0, # of connection points: 6
#     Node 3, Type 0, BuildingBlock: KUMJIN_clean_sbu_0, # of connection points: 6
#     Node 4, Type 0, BuildingBlock: KUMJIN_clean_sbu_0, # of connection points: 6
#     Node 5, Type 0, BuildingBlock: KUMJIN_clean_sbu_0, # of connection points: 6
#     Node 6, Type 0, BuildingBlock: KUMJIN_clean_sbu_0, # of connection points: 6
#     Node 7, Type 0, BuildingBlock: KUMJIN_clean_sbu_0, # of connection points: 6
#     Edge 8, Type (0, 0), BuildingBlock: EZIPEK_clean_linker_0, # of connection points: 2
#     Edge 9, Type (0, 0), BuildingBlock: EZIPEK_clean_linker_0, # of connection points: 2
#     Edge 10, Type (0, 0), BuildingBlock: EZIPEK_clean_linker_0, # of connection points: 2
#     Edge 11, Type (0, 0), BuildingBlock: EZIPEK_clean_linker_0, # of connection points: 2
#     Edge 12, Type (0, 0), BuildingBlock: EZIPEK_clean_linker_0, # of connection points: 2
#     Edge 13, Type (0, 0), BuildingBlock: EZIPEK_clean_linker_0, # of connection points: 2
#     Edge 14, Type (0, 0), BuildingBlock: EZIPEK_clean_linker_0, # of connection points: 2
#     Edge 15, Type (0, 0), BuildingBlock: EZIPEK_clean_linker_0, # of connection points: 2
#     Edge 16, Type (0, 0), BuildingBlock: EZIPEK_clean_linker_0, # of connection points: 2
#     Edge 17, Type (0, 0), BuildingBlock: EZIPEK_clean_linker_0, # of connection points: 2
#     Edge 18, Type (0, 0), BuildingBlock: EZIPEK_clean_linker_0, # of connection points: 2
#     Edge 19, Type (0, 0), BuildingBlock: EZIPEK_clean_linker_0, # of connection points: 2
#     Edge 20, Type (0, 0), BuildingBlock: EZIPEK_clean_linker_0, # of connection points: 2
#     Edge 21, Type (0, 0), BuildingBlock: EZIPEK_clean_linker_0, # of connection points: 2
#     Edge 22, Type (0, 0), BuildingBlock: EZIPEK_clean_linker_0, # of connection points: 2
#     Edge 23, Type (0, 0), BuildingBlock: EZIPEK_clean_linker_0, # of connection points: 2
#     Edge 24, Type (0, 0), BuildingBlock: EZIPEK_clean_linker_0, # of connection points: 2
#     Edge 25, Type (0, 0), BuildingBlock: EZIPEK_clean_linker_0, # of connection points: 2
#     Edge 26, Type (0, 0), BuildingBlock: EZIPEK_clean_linker_0, # of connection points: 2
#     Edge 27, Type (0, 0), BuildingBlock: EZIPEK_clean_linker_0, # of connection points: 2
#     Edge 28, Type (0, 0), BuildingBlock: EZIPEK_clean_linker_0, # of connection points: 2
#     Edge 29, Type (0, 0), BuildingBlock: EZIPEK_clean_linker_0, # of connection points: 2
#     Edge 30, Type (0, 0), BuildingBlock: EZIPEK_clean_linker_0, # of connection points: 2
#     Edge 31, Type (0, 0), BuildingBlock: EZIPEK_clean_linker_0, # of connection points: 2
# Relax obj value: 0.107
# Max RMSD: 0.200
# Mean RMSD: 0.200
data_MOF--net-vby--node1-KUMJIN_clean_sbu_0--edge1-EZIPEK_clean_linker_0
_symmetry_space_group_name_H-M    P1
_symmetry_Int_Tables_number       1
_symmetry_cell_setting            triclinic
loop_
_symmetry_equiv_pos_as_xyz
'x, y, z'
_cell_length_a     10.534503
_cell_length_b     82.955942
_cell_length_c     22.386485
_cell_angle_alpha  114.70671
_cell_angle_beta   90.386026
_cell_angle_gamma 89.187995
loop_
_atom_site_label
_atom_site_type_symbol
_atom_site_fract_x
_atom_site_fract_y
_atom_site_fract_z
_atom_type_partial_charge
Eu0 Eu 0.13939 0.40792 0.05336 0.0
C1 C 1.0004 0.33629 0.81999 0.0
C2 C 0.78611 0.33015 0.84225 0.0
C3 C 0.85937 0.31951 0.72929 0.0
C4 C 0.90504 0.33808 0.8645 0.0
C5 C 0.97908 0.32683 0.75186 0.0
C6 C 0.76311 0.32114 0.77442 0.0
C7 C 0.19826 0.33146 0.73337 0.0
N8 N 0.1152 0.34353 0.84354 0.0
C9 C 0.21537 0.34059 0.80126 0.0
C10 C 0.07922 0.32476 0.70847 0.0
Eu11 Eu 0.13305 0.35969 0.96018 0.0
N12 N 0.93027 0.34686 0.92968 0.0
C13 C 0.8452 0.34678 0.97514 0.0
C14 C 0.69518 0.33108 0.8889 0.0
C15 C 0.72582 0.33914 0.95564 0.0
H16 H 0.30831 0.34561 0.8191 0.0
H17 H 0.6577 0.33946 -0.0079 0.0
H18 H 0.67206 0.31508 0.75641 0.0
H19 H 0.27707 0.32961 0.70026 0.0
H20 H 0.86926 0.35274 0.02671 0.0
H21 H 0.595 0.42767 -0.00663 0.0
H22 H 0.60269 0.32517 0.8739 0.0
H23 H 0.99915 0.42212 0.20232 0.0
H24 H 0.37926 0.41511 0.97178 0.0
H25 H 0.05787 0.43761 0.31941 0.0
H26 H 0.84106 0.31227 0.67714 0.0
H27 H 0.68305 0.43903 0.10589 0.0
H28 H 0.64711 0.44744 0.22619 0.0
H29 H 0.06623 0.31778 0.65583 0.0
H30 H 0.4993 0.45063 0.31527 0.0
N31 N 0.34717 0.41924 0.07018 0.0
C32 C 0.41704 0.42015 0.02079 0.0
C33 C 0.58824 0.43373 0.09669 0.0
C34 C 0.51209 0.43405 0.14813 0.0
C35 C 0.5389 0.42729 0.03307 0.0
C36 C 0.38924 0.42689 0.13324 0.0
H37 H 0.27858 0.44748 0.3505 0.0
N38 N 0.18568 0.42283 0.16735 0.0
C39 C 0.12857 0.43519 0.28166 0.0
C40 C 0.30578 0.42887 0.1834 0.0
C41 C 0.09566 0.42644 0.21526 0.0
C42 C 0.25332 0.44071 0.299 0.0
C43 C 0.34334 0.43779 0.24971 0.0
O44 O 1.00455 0.42977 0.09158 0.0
O45 O 1.01017 0.38481 -0.00039 0.0
O46 O 0.093 0.37054 0.88567 0.0
O47 O 0.14027 0.40061 0.9416 0.0
O48 O 0.94045 0.4046 0.08474 0.0
O49 O 0.1482 0.43 0.02153 0.0
O50 O 0.28492 0.3403 0.94916 0.0
O51 O 0.26081 0.38306 0.01409 0.0
O52 O 0.18478 0.39516 0.12308 0.0
O53 O 0.08318 0.36855 0.06914 0.0
O54 O 0.33491 0.36301 0.93228 0.0
O55 O 0.10752 0.33847 -0.00743 0.0
C56 C 0.91238 0.38969 0.03724 0.0
C57 C 0.99822 0.45564 0.06719 0.0
C58 C 0.99249 0.48197 0.04345 0.0
C59 C 1.04492 0.46513 0.03225 0.0
C60 C 0.89289 0.48901 0.08855 0.0
C61 C 0.89948 0.46327 0.11284 0.0
C62 C 0.84671 0.47969 0.12286 0.0
C63 C 0.10778 0.38647 0.88738 0.0
C64 C 0.05319 0.43829 0.05987 0.0
C65 C 0.4682 0.44394 0.26464 0.0
C66 C 0.55247 0.44207 0.21392 0.0
C67 C 0.36043 0.37827 0.97807 0.0
C68 C 0.2196 0.31167 0.9341 0.0
C69 C 0.26024 0.30055 0.96395 0.0
C70 C 0.26256 0.28199 0.92772 0.0
C71 C 0.22329 0.27464 0.86183 0.0
C72 C 0.18067 0.30404 0.86809 0.0
C73 C 0.18229 0.28564 0.83228 0.0
C74 C 0.13617 0.38053 0.12291 0.0
C75 C 0.21785 0.3311 0.97213 0.0
H76 H 0.12211 0.45967 -0.00245 0.0
H77 H 0.85148 0.50185 0.09754 0.0
H78 H 0.86372 0.45665 0.14183 0.0
H79 H 0.77053 0.48532 0.15801 0.0
H80 H 0.29078 0.30627 0.01488 0.0
H81 H 0.22476 0.26038 0.83334 0.0
H82 H 0.14935 0.31224 0.84405 0.0
H83 H 0.1521 0.2799 0.78138 0.0
Eu84 Eu 1.00787 0.65749 0.05309 0.0
C85 C 0.74884 0.59613 0.88421 0.0
C86 C 0.5842 0.59181 0.95106 0.0
C87 C 0.53559 0.58783 0.83978 0.0
C88 C 0.70929 0.59675 0.94406 0.0
C89 C 0.66325 0.59083 0.83057 0.0
C90 C 0.49629 0.58821 0.89986 0.0
C91 C 0.84045 0.58782 0.75919 0.0
N92 N 0.87381 0.59852 0.87611 0.0
C93 C 0.92146 0.5928 0.81347 0.0
C94 C 0.7101 0.58743 0.76811 0.0
Eu95 Eu 1.00087 0.60919 0.97431 0.0
N96 N 0.79559 0.60058 -0.00659 0.0
C97 C 0.76611 0.59789 0.04799 0.0
C98 C 0.55253 0.58982 0.00809 0.0
C99 C 0.64478 0.59249 0.05608 0.0
H100 H 1.0225 0.59226 0.80458 0.0
H101 H 0.62217 0.59059 0.09977 0.0
H102 H 0.39907 0.58496 0.90532 0.0
H103 H 0.87889 0.58412 0.71043 0.0
H104 H 0.83564 0.59962 0.08548 0.0
H105 H 0.41883 0.67587 0.95092 0.0
H106 H 0.45812 0.58583 0.01484 0.0
H107 H 0.90552 0.67446 0.21015 0.0
H108 H 0.21229 0.6618 0.94835 0.0
H109 H 0.98516 0.69374 0.32076 0.0
H110 H 0.46825 0.58416 0.79957 0.0
H111 H 0.52695 0.69236 0.05714 0.0
H112 H 0.51921 0.70487 0.18104 0.0
H113 H 0.64758 0.58335 0.72582 0.0
H114 H 0.40065 0.71006 0.28127 0.0
N115 N 0.20771 0.66952 0.05142 0.0
C116 C 0.26025 0.66869 -0.00525 0.0
C117 C 0.43719 0.68607 0.05627 0.0
C118 C 0.37812 0.68788 0.11464 0.0
C119 C 0.37646 0.67678 -0.00385 0.0
C120 C 0.26079 0.67954 0.1106 0.0
H121 H 0.20068 0.70622 0.33393 0.0
N122 N 0.07672 0.67531 0.16147 0.0
C123 C 1.04471 0.69068 0.27809 0.0
C124 C 0.19291 0.68265 0.1673 0.0
C125 C 1.00003 0.67975 0.21536 0.0
C126 C 0.16643 0.69768 0.28531 0.0
C127 C 0.24134 0.69394 0.22951 0.0
O128 O 0.85424 0.67653 0.08599 0.0
O129 O 0.8756 0.63395 0.00795 0.0
O130 O 0.0595 0.61875 0.89763 0.0
O131 O 0.99015 0.64811 0.94186 0.0
O132 O 0.82824 0.65358 0.09944 0.0
O133 O 0.99337 0.67958 0.02029 0.0
O134 O 0.10263 0.58584 0.90372 0.0
O135 O 0.13301 0.63284 0.00305 0.0
O136 O 0.07769 0.64768 0.12748 0.0
O137 O 0.9934 0.61949 0.08621 0.0
O138 O 0.20339 0.61057 0.01153 0.0
O139 O 1.0197 0.58506 -0.00814 0.0
C140 C 0.78984 0.63912 0.05278 0.0
C141 C 0.83338 0.70364 0.07266 0.0
C142 C 0.78819 0.72971 0.0506 0.0
C143 C 0.85246 0.71334 0.0345 0.0
C144 C 0.70294 0.73603 0.10342 0.0
C145 C 0.75021 0.71067 0.12675 0.0
C146 C 0.68454 0.7266 0.14135 0.0
C147 C 1.02404 0.63327 0.89149 0.0
C148 C 0.88839 0.68551 0.05328 0.0
C149 C 0.36126 0.70146 0.23392 0.0
C150 C 0.42924 0.69846 0.17665 0.0
C151 C 0.23182 0.62649 0.02086 0.0
C152 C 0.13089 0.55809 0.91647 0.0
C153 C 0.0915 0.54729 0.94773 0.0
C154 C 0.14037 0.52983 0.92724 0.0
C155 C 0.22852 0.52334 0.87561 0.0
C156 C 0.21818 0.55111 0.86438 0.0
C157 C 0.26653 0.53389 0.84428 0.0
C158 C 1.05187 0.63289 0.13326 0.0
C159 C 0.08337 0.5766 0.93776 0.0
H160 H 0.91635 0.70826 -0.00722 0.0
H161 H 0.65246 0.7485 0.11605 0.0
H162 H 0.73414 0.70368 0.15736 0.0
H163 H 0.6196 0.73173 0.18254 0.0
H164 H 1.02352 0.55236 0.98766 0.0
H165 H 0.26689 0.50999 0.85911 0.0
H166 H 0.24986 0.559 0.83925 0.0
H167 H 0.33383 0.52869 0.80415 0.0
Eu168 Eu 0.0937 0.61377 0.48581 0.0
C169 C 0.91843 0.68941 0.6834 0.0
C170 C 0.70469 0.69333 0.65079 0.0
C171 C 0.76877 0.70863 0.7651 0.0
C172 C 0.82659 0.68545 0.63515 0.0
C173 C 0.89177 0.70148 0.74859 0.0
C174 C 0.67514 0.70452 0.71637 0.0
C175 C 0.11452 0.70076 0.77372 0.0
N176 N 1.03747 0.68283 0.66509 0.0
C177 C 0.13661 0.68915 0.70811 0.0
C178 C 0.99107 0.70674 0.79438 0.0
Eu179 Eu 0.06798 0.66277 0.55341 0.0
N180 N 0.85957 0.67499 0.57206 0.0
C181 C 0.77911 0.67322 0.5217 0.0
C182 C 0.61826 0.69039 0.59964 0.0
C183 C 0.65655 0.68057 0.53469 0.0
H184 H 0.2326 0.68482 0.69219 0.0
H185 H 0.59175 0.67863 0.4946 0.0
H186 H 0.58182 0.71061 0.72947 0.0
H187 H 0.19283 0.70523 0.80808 0.0
H188 H 0.80806 0.66572 0.47131 0.0
H189 H 0.45819 0.61224 0.6614 0.0
H190 H 0.52353 0.69615 0.60956 0.0
H191 H 0.09502 0.5888 0.32111 0.0
H192 H 0.24758 0.61741 0.62768 0.0
H193 H 0.24934 0.5737 0.23253 0.0
H194 H 0.74679 0.71795 0.81478 0.0
H195 H 0.6296 0.59999 0.57942 0.0
H196 H 0.69886 0.58837 0.46274 0.0
H197 H 0.97431 0.71597 0.845 0.0
H198 H 0.64322 0.57822 0.34567 0.0
N199 N 0.29411 0.60861 0.52589 0.0
C200 C 0.31883 0.61218 0.59033 0.0
C201 C 0.53584 0.60217 0.56381 0.0
C202 C 0.50935 0.59775 0.49764 0.0
C203 C 0.43942 0.60908 0.61013 0.0
C204 C 0.38542 0.60079 0.47961 0.0
H205 H 0.47603 0.57234 0.25963 0.0
N206 N 0.2335 0.59747 0.39733 0.0
C207 C 0.28097 0.57999 0.28313 0.0
C208 C 0.35463 0.59528 0.41373 0.0
C209 C 0.19391 0.58875 0.33346 0.0
C210 C 0.40857 0.57923 0.29865 0.0
C211 C 0.44625 0.58645 0.36462 0.0
O212 O 0.98572 0.59044 0.42592 0.0
O213 O 0.95919 0.63744 0.52711 0.0
O214 O 0.05396 0.65554 0.64128 0.0
O215 O 0.05457 0.62439 0.59505 0.0
O216 O 0.88766 0.61501 0.45403 0.0
O217 O 0.07167 0.59216 0.51809 0.0
O218 O 0.20691 0.68309 0.56228 0.0
O219 O 0.20079 0.63902 0.50746 0.0
O220 O 0.11366 0.62171 0.40229 0.0
O221 O 1.01941 0.64987 0.44342 0.0
O222 O 0.27621 0.66184 0.57774 0.0
O223 O 1.0427 0.67958 0.50046 0.0
C224 C 0.85834 0.63106 0.49382 0.0
C225 C 0.95121 0.56526 0.45196 0.0
C226 C 0.94155 0.53834 0.4706 0.0
C227 C 0.99219 0.55526 0.48633 0.0
C228 C 0.84794 0.53169 0.42184 0.0
C229 C 0.85977 0.55809 0.40201 0.0
C230 C 0.80725 0.54155 0.38782 0.0
C231 C 1.04717 0.64008 0.64564 0.0
C232 C 1.00519 0.58282 0.4657 0.0
C233 C 0.57124 0.58453 0.38277 0.0
C234 C 0.6027 0.59019 0.44919 0.0
C235 C 0.30356 0.64575 0.53812 0.0
C236 C 0.1241 0.70857 0.55312 0.0
C237 C 0.19475 0.71868 0.52833 0.0
C238 C 0.17539 0.73718 0.55343 0.0
C239 C 0.08635 0.74549 0.60364 0.0
C240 C 1.03543 0.71715 0.60329 0.0
C241 C 1.01701 0.73548 0.62854 0.0
C242 C 0.06383 0.63533 0.39448 0.0
C243 C 0.14224 0.68916 0.52621 0.0
H244 H 0.06482 0.56037 0.5239 0.0
H245 H 0.8081 0.5187 0.4094 0.0
H246 H 0.82875 0.56526 0.37368 0.0
H247 H 0.73605 0.53626 0.34968 0.0
H248 H 0.26331 0.71223 0.48938 0.0
H249 H 0.07064 0.75971 0.62342 0.0
H250 H 0.97978 0.70971 0.62272 0.0
H251 H 0.94829 0.74193 0.66728 0.0
Eu252 Eu 1.00539 0.36252 0.47697 0.0
C253 C 0.70184 0.42966 0.61438 0.0
C254 C 0.55212 0.42764 0.52876 0.0
C255 C 0.48569 0.4411 0.64279 0.0
C256 C 0.67462 0.42436 0.54802 0.0
C257 C 0.60784 0.43845 0.6623 0.0
C258 C 0.45801 0.43581 0.57626 0.0
C259 C 0.76464 0.4432 0.74654 0.0
N260 N 0.82047 0.42686 0.63255 0.0
C261 C 0.85459 0.43464 0.69766 0.0
C262 C 0.63993 0.44481 0.72885 0.0
Eu263 Eu 0.96734 0.41204 0.54558 0.0
N264 N 0.76652 0.41608 0.5024 0.0
C265 C 0.74124 0.41139 0.43707 0.0
C266 C 0.52689 0.42262 0.46217 0.0
C267 C 0.62192 0.41453 0.41622 0.0
H268 H 0.95157 0.43419 0.71246 0.0
H269 H 0.60333 0.41064 0.36444 0.0
H270 H 0.36362 0.43819 0.56195 0.0
H271 H 0.79206 0.44871 0.79782 0.0
H272 H 0.81055 0.40526 0.3994 0.0
H273 H 0.49181 0.34651 0.52004 0.0
H274 H 0.43449 0.42503 0.44588 0.0
H275 H 0.83062 0.34225 0.34055 0.0
H276 H 0.27558 0.35907 0.55034 0.0
H277 H 0.86241 0.32343 0.22217 0.0
H278 H 0.41271 0.44753 0.6791 0.0
H279 H 0.55107 0.33058 0.40279 0.0
H280 H 0.48375 0.31809 0.284 0.0
H281 H 0.57032 0.45158 0.76686 0.0
H282 H 0.31187 0.31187 0.20251 0.0
N283 N 0.21423 0.35079 0.45138 0.0
C284 C 0.30028 0.35211 0.49902 0.0
C285 C 0.45602 0.33606 0.41582 0.0
C286 C 0.36471 0.33376 0.3673 0.0
C287 C 0.42284 0.34498 0.48205 0.0
C288 C 0.24256 0.34119 0.38701 0.0
H289 H 0.0791 0.31358 0.17905 0.0
N290 N 1.02761 0.3437 0.36336 0.0
C291 C 0.94316 0.32739 0.25508 0.0
C292 C 0.14603 0.33754 0.34138 0.0
C293 C 0.92541 0.33803 0.32208 0.0
C294 C 0.06566 0.32191 0.23091 0.0
C295 C 0.16868 0.3266 0.27447 0.0
O296 O 0.8725 0.34192 0.47207 0.0
O297 O 0.86977 0.38595 0.51781 0.0
O298 O 0.96351 0.4035 0.62928 0.0
O299 O 0.06565 0.37584 0.58505 0.0
O300 O 0.79128 0.36179 0.46254 0.0
O301 O 1.04326 0.34581 0.52952 0.0
O302 O 0.06343 0.43562 0.6124 0.0
O303 O 0.10402 0.38862 0.51146 0.0
O304 O 1.01799 0.37077 0.3914 0.0
O305 O 1.00643 0.40195 0.43592 0.0
O306 O 0.18505 0.41269 0.55955 0.0
O307 O 0.98502 0.43496 0.51988 0.0
C308 C 0.76397 0.37832 0.49539 0.0
C309 C 0.96387 0.31659 0.47844 0.0
C310 C 0.912 0.2874 0.47318 0.0
C311 C 0.8947 0.30599 0.50186 0.0
C312 C 0.99873 0.27957 0.42143 0.0
C313 C 1.05018 0.30845 0.4267 0.0
C314 C 0.06752 0.29007 0.39847 0.0
C315 C 1.02149 0.39008 0.63544 0.0
C316 C 0.94355 0.336 0.50647 0.0
C317 C 0.29213 0.32014 0.25383 0.0
C318 C 0.39 0.32369 0.30023 0.0
C319 C 0.21207 0.39606 0.52929 0.0
C320 C 0.09594 0.46207 0.5944 0.0
C321 C 0.05351 0.47308 0.56438 0.0
C322 C 0.10547 0.49009 0.58329 0.0
C323 C 0.20055 0.4959 0.6316 0.0
C324 C 0.18836 0.46844 0.6442 0.0
C325 C 0.24101 0.48515 0.66217 0.0
C326 C 1.02036 0.38614 0.38595 0.0
C327 C 1.04587 0.44399 0.57486 0.0
H328 H 0.82729 0.31211 0.54164 0.0
H329 H 1.01296 0.26531 0.39883 0.0
H330 H 0.10396 0.31627 0.40793 0.0
H331 H 0.13425 0.28394 0.35849 0.0
H332 H 0.9807 0.46853 0.52673 0.0
H333 H 0.24173 0.5089 0.64638 0.0
H334 H 0.22054 0.46044 0.66917 0.0
H335 H 0.31302 0.48982 0.70013 0.0
Eu336 Eu 0.6347 0.90419 0.0431 0.0
C337 C 0.49453 0.82999 0.82045 0.0
C338 C 0.27503 0.82571 0.84205 0.0
C339 C 0.35455 0.81259 0.72997 0.0
C340 C 0.39488 0.83331 0.86447 0.0
C341 C 0.47524 0.81946 0.75274 0.0
C342 C 0.25477 0.81566 0.77455 0.0
C343 C 0.69755 0.82238 0.73472 0.0
N344 N 0.61051 0.83689 0.84383 0.0
C345 C 0.71274 0.83265 0.80206 0.0
C346 C 0.57807 0.81597 0.70981 0.0
Eu347 Eu 0.62056 0.85533 0.95929 0.0
N348 N 0.41647 0.84316 0.92952 0.0
C349 C 0.32802 0.8441 0.97506 0.0
C350 C 0.18024 0.82792 0.88841 0.0
C351 C 0.20787 0.83677 0.95528 0.0
H352 H 0.80611 0.83752 0.81944 0.0
H353 H 0.13678 0.83794 -0.0084 0.0
H354 H 0.16299 0.80987 0.75647 0.0
H355 H 0.77818 0.81949 0.70198 0.0
H356 H 0.34976 0.85067 0.02679 0.0
H357 H 0.11322 0.92197 0.00382 0.0
H358 H 0.08713 0.82231 0.87314 0.0
H359 H 0.46668 0.91918 0.18478 0.0
H360 H 0.89764 0.90981 0.97197 0.0
H361 H 0.50429 0.93539 0.30375 0.0
H362 H 0.33809 0.80456 0.67812 0.0
H363 H 0.17796 0.93451 0.12072 0.0
H364 H 0.11619 0.94405 0.23894 0.0
H365 H 0.56658 0.80816 0.65752 0.0
H366 H 0.9492 0.94822 0.32061 0.0
N367 N 0.84321 0.915 0.06934 0.0
C368 C 0.92537 0.91529 0.02305 0.0
C369 C 0.08343 0.92922 0.10699 0.0
C370 C 0.99502 0.93018 0.15479 0.0
C371 C 1.04724 0.92217 0.04096 0.0
C372 C 0.87321 0.92311 0.13423 0.0
H373 H 0.72009 0.94557 0.34514 0.0
N374 N 0.66021 0.91974 0.15864 0.0
C375 C 0.5823 0.93272 0.26956 0.0
C376 C 0.77886 0.92566 0.18031 0.0
C377 C 0.56135 0.92355 0.20198 0.0
C378 C 0.70436 0.93841 0.29274 0.0
C379 C 0.80424 0.93506 0.24802 0.0
O380 O 0.51435 0.92778 0.06839 0.0
O381 O 0.50404 0.881 -0.00462 0.0
O382 O 0.60201 0.86427 0.87772 0.0
O383 O 0.63749 0.8948 0.93083 0.0
O384 O 0.42564 0.90351 0.0675 0.0
O385 O 0.66748 0.9228 -0.00144 0.0
O386 O 0.76631 0.84283 -0.00346 0.0
O387 O 0.75027 0.87879 0.00387 0.0
O388 O 0.67313 0.89225 0.11605 0.0
O389 O 0.55542 0.86708 0.06637 0.0
O390 O 0.82567 0.85661 0.92988 0.0
O391 O 0.58686 0.83014 0.9669 0.0
C392 C 0.40044 0.88755 0.02657 0.0
C393 C 0.61342 0.95284 0.06475 0.0
C394 C 0.61812 0.98228 0.06473 0.0
C395 C 0.58649 0.96418 0.03368 0.0
C396 C 0.67798 0.98888 0.12634 0.0
C397 C 0.67191 0.95981 0.12676 0.0
C398 C 0.70471 0.97767 0.1571 0.0
C399 C 0.61328 0.88005 0.87742 0.0
C400 C 0.57886 0.93391 0.03285 0.0
C401 C 0.92746 0.94117 0.26877 0.0
C402 C 1.02266 0.93874 0.22226 0.0
C403 C 0.85141 0.87269 0.96981 0.0
C404 C 0.76714 0.81156 0.95208 0.0
C405 C 0.7597 0.79836 0.976 0.0
C406 C 0.82369 0.78197 0.94329 0.0
C407 C 0.89473 0.77888 0.88669 0.0
C408 C 0.83941 0.80823 0.8956 0.0
C409 C 0.90258 0.79198 0.86311 0.0
C410 C 0.61853 0.87825 0.11806 0.0
C411 C 0.7011 0.82879 0.98653 0.0
H412 H 0.54001 0.95903 0.9861 0.0
H413 H 0.70279 1.00276 0.15084 0.0
H414 H 0.69117 0.95155 0.15218 0.0
H415 H 0.74995 0.98287 0.20491 0.0
H416 H 0.70499 0.80082 0.01989 0.0
H417 H 0.94462 0.76637 0.86108 0.0
H418 H 0.84785 0.81826 0.87693 0.0
H419 H 0.95828 0.78957 0.81967 0.0
Eu420 Eu 0.51509 0.16009 0.04702 0.0
C421 C 0.3296 0.0898 0.83645 0.0
C422 C 0.11458 0.08771 0.8692 0.0
C423 C 0.16765 0.07625 0.75316 0.0
C424 C 0.24047 0.09357 0.8854 0.0
C425 C 0.29554 0.08043 0.76982 0.0
C426 C 0.07716 0.07984 0.80289 0.0
C427 C 0.51879 0.07677 0.74288 0.0
N428 N 0.45276 0.0933 0.85471 0.0
C429 C 0.54736 0.08572 0.8098 0.0
C430 C 0.39209 0.07451 0.72255 0.0
Eu431 Eu 0.49491 0.11026 0.9683 0.0
N432 N 0.28081 0.10089 0.94879 0.0
C433 C 0.20493 0.10059 -0.00262 0.0
C434 C 1.03303 0.08874 0.91976 0.0
C435 C 0.07998 0.09458 0.98375 0.0
H436 H 0.64502 0.08673 0.8257 0.0
H437 H 1.01967 0.09463 0.02276 0.0
H438 H 0.9802 0.07561 0.78954 0.0
H439 H 0.59435 0.07142 0.70721 0.0
H440 H 0.23998 0.10526 0.04692 0.0
H441 H 1.01052 0.17892 0.05445 0.0
H442 H 0.93599 0.08423 0.90944 0.0
H443 H 0.29714 0.17547 0.16915 0.0
H444 H 0.80501 0.16627 0.00319 0.0
H445 H 0.28878 0.19287 0.28882 0.0
H446 H 0.13911 0.06931 0.70221 0.0
H447 H 1.02689 0.19462 0.17564 0.0
H448 H 0.91694 0.20658 0.28564 0.0
H449 H 0.37012 0.06727 0.67082 0.0
H450 H 0.71993 0.21065 0.34926 0.0
N451 N 0.71106 0.17317 0.09387 0.0
C452 C 0.81323 0.1725 0.05596 0.0
C453 C 0.93748 0.18883 0.15326 0.0
C454 C 0.82924 0.19074 0.19168 0.0
C455 C 0.92872 0.17995 0.0849 0.0
C456 C 0.71557 0.18287 0.15994 0.0
H457 H 0.48508 0.20558 0.3508 0.0
N458 N 0.49701 0.17794 0.16246 0.0
C459 C 0.37843 0.19085 0.26319 0.0
C460 C 0.60472 0.18549 0.19547 0.0
C461 C 0.38364 0.18096 0.19507 0.0
C462 C 0.48939 0.19804 0.298 0.0
C463 C 0.60424 0.1956 0.26411 0.0
O464 O 0.38559 0.18035 0.04226 0.0
O465 O 0.38687 0.13622 0.0114 0.0
O466 O 0.47759 0.12047 0.88908 0.0
O467 O 0.57619 0.14796 0.9402 0.0
O468 O 0.29839 0.16053 0.05117 0.0
O469 O 0.57372 0.17744 0.0009 0.0
O470 O 0.61363 0.08652 0.94517 0.0
O471 O 0.62462 0.13389 0.00739 0.0
O472 O 0.54033 0.15137 0.1281 0.0
O473 O 0.48761 0.12129 0.08105 0.0
O474 O 0.708 0.11016 0.94747 0.0
O475 O 0.46815 0.09305 0.01928 0.0
C476 C 0.2774 0.1438 0.02458 0.0
C477 C 0.48122 0.2062 0.04537 0.0
C478 C 0.44423 0.23496 0.04242 0.0
C479 C 0.43373 0.21634 0.01291 0.0
C480 C 0.50249 0.24329 0.10417 0.0
C481 C 0.53869 0.2148 0.1072 0.0
C482 C 0.54936 0.23323 0.13635 0.0
C483 C 0.52825 0.13484 0.88804 0.0
C484 C 0.46856 0.18676 0.01532 0.0
C485 C 0.71803 0.20294 0.29646 0.0
C486 C 0.8303 0.20056 0.26027 0.0
C487 C 0.73146 0.12672 0.98182 0.0
C488 C 0.50984 0.06261 0.95519 0.0
C489 C 0.54439 0.05108 0.9844 0.0
C490 C 0.501 0.03345 0.95744 0.0
C491 C 0.42335 0.02747 0.90139 0.0
C492 C 0.43267 0.05627 0.89889 0.0
C493 C 0.38977 0.03884 0.87223 0.0
C494 C 0.51936 0.13625 0.13192 0.0
C495 C 0.55184 0.08126 0.98397 0.0
H496 H 0.38879 0.20985 0.96516 0.0
H497 H 0.51128 0.2576 0.12743 0.0
H498 H 0.57503 0.20731 0.13304 0.0
H499 H 0.59389 0.23974 0.18409 0.0
H500 H 0.6038 0.05578 0.02796 0.0
H501 H 0.38923 0.01396 0.88015 0.0
H502 H 0.40526 0.06475 0.87545 0.0
H503 H 0.33019 0.03413 0.82883 0.0
Eu504 Eu 0.60872 0.11404 0.47706 0.0
C505 C 0.47853 0.18974 0.69774 0.0
C506 C 0.25346 0.19476 0.68997 0.0
C507 C 0.35924 0.20785 0.79623 0.0
C508 C 0.36922 0.1867 0.66051 0.0
C509 C 0.47513 0.20034 0.76603 0.0
C510 C 0.24862 0.20511 0.75821 0.0
C511 C 0.70168 0.19582 0.76901 0.0
N512 N 0.58855 0.18211 0.66685 0.0
C513 C 0.70032 0.18547 0.70112 0.0
C514 C 0.58841 0.20313 0.80176 0.0
Eu515 Eu 0.57765 0.16375 0.55179 0.0
N516 N 0.37754 0.17662 0.59477 0.0
C517 C 0.27749 0.17581 0.55487 0.0
C518 C 0.14724 0.19264 0.6496 0.0
C519 C 0.16005 0.18342 0.58153 0.0
H520 H 0.78848 0.17996 0.6766 0.0
H521 H 0.07993 0.18228 0.54954 0.0
H522 H 0.16039 0.21131 0.78184 0.0
H523 H 0.79014 0.19812 0.79603 0.0
H524 H 0.2889 0.16935 0.50227 0.0
H525 H 0.07744 0.09987 0.5501 0.0
H526 H 0.05639 0.19858 0.67019 0.0
H527 H 0.48062 0.08896 0.32944 0.0
H528 H 0.85279 0.10959 0.56514 0.0
H529 H 0.54823 0.07376 0.21318 0.0
H530 H 0.35456 0.21601 0.84869 0.0
H531 H 0.1772 0.08987 0.44044 0.0
H532 H 0.15015 0.08143 0.31915 0.0
H533 H 0.58962 0.21104 0.85437 0.0
H534 H 1.00343 0.07448 0.22575 0.0
N535 N 0.82567 0.10526 0.46585 0.0
C536 C 0.8952 0.10524 0.51737 0.0
C537 C 0.07838 0.09403 0.44685 0.0
C538 C 1.00377 0.09279 0.39321 0.0
C539 C 1.02239 0.09964 0.50878 0.0
C540 C 0.87516 0.09814 0.40431 0.0
H541 H 0.77696 0.07108 0.18547 0.0
N542 N 0.66717 0.09677 0.36554 0.0
C543 C 0.61814 0.07967 0.25161 0.0
C544 C 0.79289 0.09396 0.35205 0.0
C545 C 0.5799 0.0885 0.31724 0.0
C546 C 0.74731 0.07822 0.23617 0.0
C547 C 0.83678 0.08475 0.287 0.0
O548 O 0.49797 0.08983 0.44973 0.0
O549 O 0.47351 0.13756 0.51521 0.0
O550 O 0.55243 0.15536 0.63429 0.0
O551 O 0.61842 0.1256 0.5893 0.0
O552 O 0.39617 0.11389 0.45346 0.0
O553 O 0.62588 0.09774 0.5324 0.0
O554 O 0.69907 0.18504 0.55234 0.0
O555 O 0.7116 0.14006 0.51728 0.0
O556 O 0.62029 0.12331 0.39587 0.0
O557 O 0.52012 0.15116 0.44362 0.0
O558 O 0.79457 0.1644 0.55764 0.0
O559 O 0.51991 0.18007 0.50049 0.0
C560 C 0.36897 0.13043 0.48752 0.0
C561 C 0.60326 0.06707 0.46899 0.0
C562 C 0.61641 0.03835 0.47469 0.0
C563 C 0.56261 0.05551 0.49627 0.0
C564 C 0.71054 0.03287 0.42596 0.0
C565 C 0.69655 0.06122 0.41978 0.0
C566 C 0.74991 0.04426 0.3985 0.0
C567 C 0.57933 0.14039 0.63917 0.0
C568 C 0.5519 0.08533 0.4932 0.0
C569 C 0.96735 0.08124 0.27542 0.0
C570 C 1.05089 0.0852 0.3286 0.0
C571 C 0.81954 0.1477 0.53106 0.0
C572 C 0.5928 0.20976 0.54716 0.0
C573 C 0.6652 0.22066 0.52646 0.0
C574 C 0.6402 0.23908 0.55217 0.0
C575 C 0.54325 0.24647 0.59869 0.0
C576 C 0.49651 0.2175 0.59388 0.0
C577 C 0.47214 0.23572 0.6195 0.0
C578 C 0.56542 0.13727 0.39233 0.0
C579 C 0.61808 0.19043 0.52009 0.0
H580 H 0.49065 0.05984 0.53435 0.0
H581 H 0.75279 0.01972 0.40896 0.0
H582 H 0.7287 0.06976 0.39791 0.0
H583 H 0.82215 0.03995 0.36068 0.0
H584 H 0.73979 0.21488 0.49032 0.0
H585 H 0.52278 0.26059 0.61886 0.0
H586 H 0.4395 0.20949 0.61043 0.0
H587 H 0.39751 0.24152 0.65546 0.0
Eu588 Eu 0.5082 0.85894 0.46719 0.0
C589 C 0.21947 0.92657 0.62823 0.0
C590 C 1.05174 0.92574 0.55224 0.0
C591 C 1.00974 0.9388 0.66949 0.0
C592 C 0.17779 0.92175 0.56424 0.0
C593 C 0.13638 0.93559 0.68156 0.0
C594 C 0.96765 0.93393 0.605 0.0
C595 C 0.31304 0.93981 0.75538 0.0
N596 N 0.34273 0.92343 0.63871 0.0
C597 C 0.3918 0.93106 0.70115 0.0
C598 C 0.18405 0.94176 0.74562 0.0
Eu599 Eu 0.47033 0.90849 0.54311 0.0
N600 N 0.2603 0.91348 0.51381 0.0
C601 C 0.22349 0.90964 0.45054 0.0
C602 C 1.01377 0.92152 0.48755 0.0
C603 C 0.10045 0.9136 0.4366 0.0
H604 H 0.49231 0.93045 0.70914 0.0
H605 H 0.07212 0.91033 0.38631 0.0
H606 H 0.87036 0.93686 0.5965 0.0
H607 H 0.35238 0.94532 0.80457 0.0
H608 H 0.28688 0.90343 0.40976 0.0
H609 H 0.99951 0.84081 0.49107 0.0
H610 H 0.91797 0.92436 0.47644 0.0
H611 H 0.31747 0.83939 0.33678 0.0
H612 H 0.78636 0.85366 0.52954 0.0
H613 H 0.33424 0.82129 0.21708 0.0
H614 H 0.94449 0.94549 0.70981 0.0
H615 H 1.04546 0.82612 0.37183 0.0
H616 H 0.96388 0.81491 0.25561 0.0
H617 H 0.12329 0.94874 0.78771 0.0
H618 H 0.78158 0.80954 0.18051 0.0
N619 N 0.71464 0.84703 0.43337 0.0
C620 C 0.80584 0.84738 0.47742 0.0
C621 C 0.95206 0.83181 0.38848 0.0
C622 C 0.85511 0.83032 0.34347 0.0
C623 C 0.92638 0.84002 0.4558 0.0
C624 C 0.73534 0.83794 0.36787 0.0
H625 H 0.54547 0.81158 0.1658 0.0
N626 N 0.51696 0.84073 0.35242 0.0
C627 C 0.41915 0.82506 0.24701 0.0
C628 C 0.63286 0.83462 0.32587 0.0
C629 C 0.40988 0.83536 0.31476 0.0
C630 C 0.53856 0.81965 0.21824 0.0
C631 C 0.64716 0.82404 0.25799 0.0
O632 O 0.38135 0.83779 0.46223 0.0
O633 O 0.37159 0.88227 0.506 0.0
O634 O 0.46999 0.89895 0.62446 0.0
O635 O 0.56897 0.87109 0.57514 0.0
O636 O 0.29198 0.85779 0.46052 0.0
O637 O 0.5563 0.84194 0.51722 0.0
O638 O 0.5655 0.93368 0.59746 0.0
O639 O 0.60787 0.88523 0.50305 0.0
O640 O 0.51781 0.8677 0.38358 0.0
O641 O 0.4947 0.89871 0.43219 0.0
O642 O 0.6839 0.90852 0.56763 0.0
O643 O 0.4854 0.9281 0.50164 0.0
C644 C 0.26464 0.87438 0.49079 0.0
C645 C 0.48041 0.81257 0.46547 0.0
C646 C 0.4358 0.78327 0.46041 0.0
C647 C 0.41793 0.8018 0.49032 0.0
C648 C 0.51666 0.7756 0.40596 0.0
C649 C 0.56112 0.80467 0.41104 0.0
C650 C 0.57923 0.7863 0.38156 0.0
C651 C 0.52622 0.88497 0.62736 0.0
C652 C 0.45743 0.83188 0.49485 0.0
C653 C 0.76824 0.81755 0.23265 0.0
C654 C 0.87209 0.82065 0.2754 0.0
C655 C 0.71295 0.89225 0.53007 0.0
C656 C 0.48632 0.95822 0.57921 0.0
C657 C 0.52326 0.96973 0.55092 0.0
C658 C 0.47469 0.98723 0.57557 0.0
C659 C 0.38864 0.9931 0.62809 0.0
C660 C 0.40027 0.96446 0.63197 0.0
C661 C 0.35163 0.98174 0.65604 0.0
C662 C 0.51158 0.88334 0.3806 0.0
C663 C 0.53902 0.93993 0.55404 0.0
H664 H 0.35475 0.80775 0.53215 0.0
H665 H 0.53102 0.76135 0.3824 0.0
H666 H 0.60961 0.81265 0.39108 0.0
H667 H 0.64144 0.78033 0.33946 0.0
H668 H 0.59006 0.96518 0.51039 0.0
H669 H 0.35071 1.00653 0.64757 0.0
H670 H 0.37098 0.95613 0.65521 0.0
H671 H 0.28556 0.98635 0.69678 0.0
C672 C 0.58351 0.38539 0.95247 0.0
C673 C 0.50006 0.38241 -0.00316 0.0
C674 C 0.69006 0.38238 0.06372 0.0
C675 C 0.77232 0.38578 0.01982 0.0
N676 N 0.78196 0.39785 0.93918 0.0
N677 N 0.4853 0.37224 0.08268 0.0
C678 C 0.71509 0.38913 0.96837 0.0
C679 C 0.55631 0.37958 0.04986 0.0
N680 N 0.53799 0.38438 0.89375 0.0
N681 N 0.73937 0.38221 0.1201 0.0
H682 H 0.38997 0.36912 0.07233 0.0
H683 H 0.52334 0.3676 0.11566 0.0
H684 H 0.83625 0.38321 0.13063 0.0
H685 H 0.68368 0.38229 0.15849 0.0
H686 H 0.59695 0.38439 0.85655 0.0
H687 H 0.44304 0.38201 0.87996 0.0
H688 H 0.74098 0.40257 0.90696 0.0
H689 H 0.87511 0.40194 0.95193 0.0
C690 C 0.44183 0.63022 0.08518 0.0
C691 C 0.37147 0.63249 0.034 0.0
C692 C 0.57797 0.63908 -0.00516 0.0
C693 C 0.64686 0.63623 0.04439 0.0
N694 N 0.63552 0.63471 0.14935 0.0
N695 N 0.38804 0.6339 0.92956 0.0
C696 C 0.57566 0.63368 0.09348 0.0
C697 C 0.44424 0.63567 0.9865 0.0
N698 N 0.38454 0.62297 0.1226 0.0
N699 N 0.63739 0.64657 0.95885 0.0
H700 H 0.29097 0.63228 0.92317 0.0
H701 H 0.43888 0.63313 0.88868 0.0
H702 H 0.73186 0.65045 0.96622 0.0
H703 H 0.58963 0.65078 0.92692 0.0
H704 H 0.43404 0.61855 0.15345 0.0
H705 H 0.28899 0.61992 0.11927 0.0
H706 H 0.58675 0.63565 0.19104 0.0
H707 H 0.7336 0.63583 0.15598 0.0
C708 C 0.63401 0.63361 0.45207 0.0
C709 C 0.71824 0.63705 0.5064 0.0
C710 C 0.52833 0.64449 0.57801 0.0
C711 C 0.44338 0.64028 0.52369 0.0
N712 N 0.42395 0.63267 0.40744 0.0
N713 N 0.73618 0.64977 0.62466 0.0
C714 C 0.49885 0.63522 0.46042 0.0
C715 C 0.66234 0.64364 0.56995 0.0
N716 N 0.68051 0.63017 0.39144 0.0
N717 N 0.48421 0.64931 0.64 0.0
H718 H 0.83276 0.65084 0.6221 0.0
H719 H 0.70035 0.65493 0.67249 0.0
H720 H 0.38875 0.64937 0.65138 0.0
H721 H 0.38875 0.64937 0.65138 0.0
H722 H 0.77654 0.63078 0.38189 0.0
H723 H 0.77654 0.63078 0.38189 0.0
H724 H 0.45996 0.62873 0.36001 0.0
H725 H 0.32652 0.63465 0.41107 0.0
C726 C 0.56705 0.39056 0.56885 0.0
C727 C 0.62523 0.3845 0.50577 0.0
C728 C 0.40963 0.38251 0.45681 0.0
C729 C 0.35066 0.38916 0.51964 0.0
N730 N 0.37578 0.39904 0.63588 0.0
N731 N 0.59397 0.37049 0.38825 0.0
C732 C 0.43109 0.3931 0.57561 0.0
C733 C 0.54381 0.3794 0.44965 0.0
N734 N 0.64089 0.39263 0.62192 0.0
N735 N 0.33705 0.37929 0.40286 0.0
H736 H 0.69054 0.36858 0.37987 0.0
H737 H 0.54051 0.36377 0.34601 0.0
H738 H 0.23997 0.37869 0.40518 0.0
H739 H 0.37207 0.37751 0.35711 0.0
H740 H 0.60623 0.3953 0.66851 0.0
H741 H 0.73892 0.39088 0.6188 0.0
H742 H 0.42384 0.40492 0.68041 0.0
H743 H 0.27882 0.39783 0.64017 0.0
C744 C 1.04788 0.87732 0.04449 0.0
C745 C 0.99064 0.87759 0.98697 0.0
C746 C 0.20446 0.88309 0.95302 0.0
C747 C 0.26245 0.88225 0.00925 0.0
N748 N 0.23112 0.8829 0.11681 0.0
N749 N 1.0259 0.87581 0.87788 0.0
C750 C 0.18125 0.88068 0.05735 0.0
C751 C 0.07277 0.8789 0.9387 0.0
N752 N 0.97784 0.87204 0.08396 0.0
N753 N 0.27094 0.88988 0.91687 0.0
H754 H 0.93078 0.87304 0.86514 0.0
H755 H 0.08382 0.8745 0.8385 0.0
H756 H 0.36493 0.89389 0.92702 0.0
H757 H 0.22938 0.89306 0.88074 0.0
H758 H 1.01687 0.86887 0.12061 0.0
H759 H 0.88161 0.86933 0.07656 0.0
H760 H 0.17584 0.8845 0.15734 0.0
H761 H 0.32801 0.88433 0.12717 0.0
C762 C 0.08107 0.13473 0.95167 0.0
C763 C 0.14179 0.13716 0.01162 0.0
C764 C 0.93263 0.13284 0.05269 0.0
C765 C 0.86852 0.13301 -0.00316 0.0
N766 N 0.88738 0.13777 0.89841 0.0
N767 N 0.11231 0.14336 0.12613 0.0
C768 C 0.94493 0.13478 0.94745 0.0
C769 C 0.06329 0.13784 0.06434 0.0
N770 N 0.15334 0.13252 0.89843 0.0
N771 N 0.87271 0.12662 0.09242 0.0
H772 H 0.20669 0.14707 0.13689 0.0
H773 H 0.05599 0.14555 0.16703 0.0
H774 H 0.77916 0.12225 0.08467 0.0
H775 H 0.91984 0.12449 0.12969 0.0
H776 H 0.11622 0.12879 0.85134 0.0
H777 H 0.25201 0.13254 0.90025 0.0
H778 H 0.93603 0.14064 0.86375 0.0
H779 H 0.79026 0.13992 0.89866 0.0
C780 C 0.1692 0.13726 0.55934 0.0
C781 C 0.23047 0.13659 0.50201 0.0
C782 C 1.0153 0.13817 0.45721 0.0
C783 C 0.95683 0.14114 0.51807 0.0
N784 N 0.99179 0.14891 0.63361 0.0
N785 N 0.20659 0.14011 0.40119 0.0
C786 C 1.03815 0.14245 0.57116 0.0
C787 C 0.15147 0.13787 0.45193 0.0
N788 N 0.23243 0.13168 0.60069 0.0
N789 N 0.94083 0.13585 0.40424 0.0
H790 H 0.30348 0.14206 0.40048 0.0
H791 H 0.15619 0.14258 0.36565 0.0
H792 H 0.84222 0.13638 0.40697 0.0
H793 H 0.97605 0.13168 0.35667 0.0
H794 H 0.18737 0.1301 0.63923 0.0
H795 H 0.32644 0.12719 0.593 0.0
H796 H 1.05006 0.15154 0.67442 0.0
H797 H 0.89779 0.15305 0.64479 0.0
C798 C 0.91062 0.88049 0.45505 0.0
C799 C 0.85218 0.88568 0.51759 0.0
C800 C 0.06879 0.88604 0.56482 0.0
C801 C 0.12601 0.88057 0.50186 0.0
N802 N 0.09138 0.86754 0.38456 0.0
N803 N 0.87726 0.88834 0.62772 0.0
C804 C 1.04366 0.87634 0.44648 0.0
C805 C 0.93255 0.8873 0.57149 0.0
N806 N 0.83934 0.87952 0.40294 0.0
N807 N 0.14458 0.88951 0.61838 0.0
H808 H 0.78041 0.88661 0.62947 0.0
H809 H 0.9263 0.88829 0.66813 0.0
H810 H 0.24259 0.88766 0.61467 0.0
H811 H 0.11227 0.89553 0.66668 0.0
H812 H 0.87714 0.87846 0.35855 0.0
H813 H 0.74177 0.88056 0.40575 0.0
H814 H 1.03536 0.86195 0.34251 0.0
H815 H 0.18677 0.86435 0.37569 0.0
C816 C 0.15556 0.51934 0.01799 0.0
C817 C 0.09916 0.51786 0.95809 0.0
C818 C 0.97881 0.49191 0.95154 0.0
C819 C 1.04008 0.49286 0.00959 0.0
N820 N 0.19808 0.50577 0.09378 0.0
N821 N 0.96542 0.50206 0.8644 0.0
C822 C 0.13186 0.50611 0.04154 0.0
C823 C 1.01319 0.50392 0.92387 0.0
N824 N 0.23018 0.53358 0.05291 0.0
N825 N 0.88445 0.47986 0.92416 0.0
H826 H 0.98065 0.51129 0.84481 0.0
H827 H 0.91569 0.49101 0.83276 0.0
H828 H 0.86166 0.47025 0.94085 0.0
H829 H 0.82406 0.4799 0.88726 0.0
H830 H 0.26245 0.53666 0.10041 0.0
H831 H 0.25323 0.54317 0.0362 0.0
H832 H 0.27507 0.51385 0.11561 0.0
H833 H 0.18241 0.49634 0.11237 0.0
C834 C 0.10431 0.49974 0.49075 0.0
C835 C 0.06014 0.50223 0.55384 0.0
C836 C 0.94088 0.52898 0.56395 0.0
C837 C 0.98981 0.52687 0.50219 0.0
N838 N 0.13338 0.51233 0.41155 0.0
N839 N 0.94546 0.51971 0.65354 0.0
C840 C 0.07577 0.5128 0.46688 0.0
C841 C 0.98119 0.51705 0.59141 0.0
N842 N 0.17244 0.48477 0.45336 0.0
N843 N 0.85274 0.54205 0.59515 0.0
H844 H 0.9646 0.51059 0.67342 0.0
H845 H 0.90185 0.53129 0.68683 0.0
H846 H 0.8242 0.55133 0.57741 0.0
H847 H 0.80258 0.54327 0.63673 0.0
H848 H 0.19394 0.48105 0.40402 0.0
H849 H 0.20084 0.47531 0.47022 0.0
H850 H 0.2069 0.50359 0.38715 0.0
H851 H 0.1151 0.52173 0.39281 0.0
C852 C 0.47803 1.00614 0.0577 0.0
C853 C 0.58578 0.99477 0.03457 0.0
C854 C 0.63831 1.00874 0.96047 0.0
C855 C 0.53568 0.02091 0.98705 0.0
N856 N 0.36759 0.03293 0.06656 0.0
N857 N 0.77706 0.98625 0.9698 0.0
C858 C 0.45844 0.02012 0.03742 0.0
C859 C 0.66821 0.99631 0.98736 0.0
N860 N 0.3923 1.00318 0.09753 0.0
N861 N 0.70571 1.00888 0.90869 0.0
H862 H 0.80008 0.97667 0.98705 0.0
H863 H 0.8486 0.98808 0.94148 0.0
H864 H 0.69094 0.01836 0.88999 0.0
H865 H 0.77135 0.99908 0.88173 0.0
H866 H 0.30493 1.00971 0.11056 0.0
H867 H 0.40366 0.99307 0.11338 0.0
H868 H 0.31771 0.03432 0.10845 0.0
H869 H 0.34843 0.04311 0.05189 0.0
C870 C 0.63136 0.02648 0.56096 0.0
C871 C 0.57495 0.02578 0.50217 0.0
C872 C 0.45176 0.99976 0.49138 0.0
C873 C 0.51438 0.9998 0.54777 0.0
N874 N 0.67509 0.0114 0.63152 0.0
N875 N 0.44086 0.01114 0.40757 0.0
C876 C 0.60728 0.0127 0.58134 0.0
C877 C 0.48772 0.01222 0.46627 0.0
N878 N 0.70681 0.04046 0.59761 0.0
N879 N 0.35515 0.98816 0.46318 0.0
H880 H 0.4589 0.02061 0.38953 0.0
H881 H 0.38966 1.0004 0.37488 0.0
H882 H 0.32875 0.97853 0.47906 0.0
H883 H 0.29568 0.9887 0.42675 0.0
H884 H 0.73966 0.04286 0.64448 0.0
H885 H 0.72964 0.05051 0.58323 0.0
H886 H 0.75318 0.01919 0.65375 0.0
H887 H 0.65964 1.00151 0.64783 0.0
C888 C 0.22103 0.26311 0.98877 0.0
C889 C 0.30852 0.27005 0.95784 0.0
C890 C 0.47997 0.25192 0.97406 0.0
C891 C 0.39485 0.24603 0.00939 0.0
N892 N 0.18833 0.24708 0.05662 0.0
N893 N 0.52311 0.27292 0.92728 0.0
C894 C 0.26616 0.25187 0.01825 0.0
C895 C 0.43861 0.26495 0.95215 0.0
N896 N 0.0945 0.26706 0.98886 0.0
N897 N 0.59969 0.24474 0.96034 0.0
H898 H 0.49595 0.28225 0.90952 0.0
H899 H 0.62113 0.27134 0.92853 0.0
H900 H 0.6335 0.23532 0.97628 0.0
H901 H 0.66212 0.24694 0.92876 0.0
H902 H 1.02376 0.26091 0.00375 0.0
H903 H 0.05878 0.2758 0.97008 0.0
H904 H 0.09808 0.25247 0.07155 0.0
H905 H 0.21688 0.2384 0.07714 0.0
C906 C 0.72662 0.75435 0.94303 0.0
C907 C 0.81864 0.76794 0.96843 0.0
C908 C 0.9022 0.75486 0.0412 0.0
C909 C 0.81144 0.74114 0.01531 0.0
N910 N 0.64636 0.72636 0.93786 0.0
N911 N 1.00463 0.78009 0.0344 0.0
C912 C 0.72678 0.74041 0.96464 0.0
C913 C 0.90971 0.76786 0.01536 0.0
N914 N 0.63772 0.7551 0.89935 0.0
N915 N 0.9776 0.75584 0.09259 0.0
H916 H 1.0105 0.79021 0.01845 0.0
H917 H 0.0822 0.77967 0.06275 0.0
H918 H 0.97964 0.74606 0.11044 0.0
H919 H 1.0337 0.76668 0.11988 0.0
H920 H 0.5619 0.74649 0.88188 0.0
H921 H 0.63593 0.76503 0.88226 0.0
H922 H 0.58444 0.72433 0.89911 0.0
H923 H 0.64636 0.71591 0.95226 0.0
C924 C 0.19719 0.75078 0.47292 0.0
C925 C 0.24679 0.74814 0.52729 0.0
C926 C 0.42427 0.76783 0.53573 0.0
C927 C 0.36873 0.77163 0.48504 0.0
N928 N 0.19511 0.76873 0.41072 0.0
N929 N 0.39887 0.75532 0.6154 0.0
C930 C 0.25313 0.76363 0.45502 0.0
C931 C 0.35806 0.757 0.56011 0.0
N932 N 0.09779 0.74078 0.43781 0.0
N933 N 0.54207 0.77416 0.55912 0.0
H934 H 0.35661 0.74683 0.63282 0.0
H935 H 0.46952 0.76312 0.64633 0.0
H936 H 0.59213 0.78244 0.54344 0.0
H937 H 0.59412 0.77032 0.5908 0.0
H938 H 0.06635 0.74058 0.39334 0.0
H939 H 0.05259 0.73152 0.45037 0.0
H940 H 0.10401 0.76492 0.39246 0.0
H941 H 0.23413 0.77794 0.39582 0.0
C942 C 0.88661 0.27206 0.54852 0.0
C943 C 0.83916 0.27575 0.49596 0.0
C944 C 0.67116 0.2538 0.47545 0.0
C945 C 0.71359 0.25094 0.5306 0.0
N946 N 0.85151 0.25858 0.62461 0.0
N947 N 0.67732 0.27223 0.41508 0.0
C948 C 0.81849 0.26045 0.56862 0.0
C949 C 0.72883 0.26719 0.46097 0.0
N950 N 0.9991 0.27924 0.57775 0.0
N951 N 0.57681 0.24351 0.43635 0.0
H952 H 0.71749 0.28191 0.40301 0.0
H953 H 0.5898 0.26793 0.39264 0.0
H954 H 0.52957 0.23402 0.44673 0.0
H955 H 0.5514 0.2434 0.39117 0.0
H956 H 1.04635 0.27568 0.61151 0.0
H957 H 1.05024 0.28802 0.56505 0.0
H958 H 0.91648 0.26667 0.65891 0.0
H959 H 0.80811 0.24955 0.63903 0.0
C960 C 1.02596 0.36921 0.19949 0.0
C961 C 0.12296 0.3794 0.18856 0.0
C962 C 0.15805 0.39418 0.30888 0.0
C963 C 1.05099 0.38533 0.31914 0.0
N964 N 0.86254 0.36873 0.27306 0.0
N965 N 0.31556 0.39542 0.23263 0.0
C966 C 0.97971 0.37403 0.26402 0.0
C967 C 0.19829 0.39031 0.24337 0.0
N968 N 0.98556 0.35386 0.15001 0.0
N969 N 0.22042 0.40662 0.36122 0.0
H970 H 0.35356 0.39142 0.18583 0.0
H971 H 0.38198 0.4016 0.26954 0.0
H972 H 0.20309 0.40914 0.41 0.0
H973 H 0.28546 0.41533 0.35652 0.0
H974 H 0.91965 0.34555 0.15699 0.0
H975 H 1.03495 0.34765 0.10621 0.0
H976 H 0.80012 0.36197 0.2346 0.0
H977 H 0.82266 0.37329 0.31949 0.0
C978 C 0.15009 0.64542 0.2486 0.0
C979 C 0.08156 0.63188 0.19748 0.0
C980 C 1.01603 0.61963 0.274 0.0
C981 C 0.06797 0.63448 0.3271 0.0
N982 N 0.19879 0.66056 0.3647 0.0
N983 N 1.04012 0.60066 0.15929 0.0
C984 C 0.1391 0.64713 0.31435 0.0
C985 C 1.03967 0.61732 0.20898 0.0
N986 N 0.23971 0.65483 0.2333 0.0
N987 N 0.94211 0.60777 0.28491 0.0
H988 H 0.08337 0.59788 0.11428 0.0
H989 H 1.01932 0.58935 0.16649 0.0
H990 H 0.9249 0.60838 0.3315 0.0
H991 H 0.89101 0.59798 0.24749 0.0
H992 H 0.303 0.66344 0.26709 0.0
H993 H 0.26393 0.65232 0.18529 0.0
H994 H 0.23286 0.67185 0.36119 0.0
H995 H 0.21187 0.66061 0.41089 0.0
C996 C 0.91037 0.63251 0.79001 0.0
C997 C 1.0243 0.63318 0.825 0.0
C998 C 0.13593 0.64297 0.75287 0.0
C999 C 1.02958 0.63987 0.71113 0.0
N1000 N 0.82656 0.62503 0.68106 0.0
N1001 N 0.2475 0.62728 0.80515 0.0
C1002 C 0.91868 0.63274 0.72685 0.0
C1003 C 0.13913 0.63524 0.79769 0.0
N1004 N 0.79633 0.6308 0.81491 0.0
N1005 N 0.23515 0.65275 0.74931 0.0
H1006 H 0.24398 0.61738 0.8223 0.0
H1007 H 0.33222 0.62795 0.78236 0.0
H1008 H 0.22858 0.66027 0.72219 0.0
H1009 H 0.31394 0.65508 0.78027 0.0
H1010 H 0.71006 0.63172 0.79332 0.0
H1011 H 0.78937 0.62914 0.85836 0.0
H1012 H 0.74906 0.61864 0.68985 0.0
H1013 H 0.8355 0.62314 0.6323 0.0
C1014 C 0.96732 0.3781 0.7182 0.0
C1015 C 1.03384 0.39054 0.70248 0.0
C1016 C 0.1527 0.39977 0.80562 0.0
C1017 C 0.07975 0.3884 0.82459 0.0
N1018 N 0.88913 0.37063 0.80413 0.0
N1019 N 0.15945 0.41721 0.74238 0.0
C1020 C 0.97907 0.3786 0.7823 0.0
C1021 C 0.11552 0.40279 0.75001 0.0
N1022 N 0.89037 0.36597 0.67247 0.0
N1023 N 0.26409 0.40655 0.83669 0.0
H1024 H 0.13976 0.4196 0.70116 0.0
H1025 H 0.20836 0.4274 0.7794 0.0
H1026 H 0.30293 0.40291 0.87197 0.0
H1027 H 0.32601 0.41363 0.82077 0.0
H1028 H 0.85437 0.35501 0.67784 0.0
H1029 H 0.86795 0.36631 0.62757 0.0
H1030 H 0.80732 0.36498 0.7777 0.0
H1031 H 0.88742 0.37126 0.8514 0.0
C1032 C 0.68124 0.88864 0.23905 0.0
C1033 C 0.60623 0.87752 0.18429 0.0
C1034 C 0.46515 0.87197 0.2599 0.0
C1035 C 0.53635 0.88338 0.31475 0.0
N1036 N 0.70175 0.90532 0.35684 0.0
N1037 N 0.47231 0.85163 0.14593 0.0
C1038 C 0.64128 0.89255 0.30453 0.0
C1039 C 0.51094 0.86714 0.19533 0.0
N1040 N 0.79828 0.89383 0.22857 0.0
N1041 N 0.34856 0.8666 0.2694 0.0
H1042 H 0.5217 0.84551 0.10187 0.0
H1043 H 0.40716 0.84326 0.15303 0.0
H1044 H 0.30853 0.87147 0.31595 0.0
H1045 H 0.28664 0.85956 0.23105 0.0
H1046 H 0.86443 0.90003 0.2656 0.0
H1047 H 0.83687 0.88989 0.18207 0.0
H1048 H 0.76746 0.91397 0.35215 0.0
H1049 H 0.68145 0.90831 0.4057 0.0
C1050 C 0.43972 0.12775 0.2211 0.0
C1051 C 0.53103 0.13643 0.19882 0.0
C1052 C 0.63226 0.14782 0.30807 0.0
C1053 C 0.5514 0.13721 0.32641 0.0
N1054 N 0.38859 0.11499 0.29661 0.0
N1055 N 0.7311 0.15215 0.21949 0.0
C1056 C 0.45934 0.12641 0.28151 0.0
C1057 C 0.63164 0.14586 0.24197 0.0
N1058 N 0.32892 0.12196 0.18744 0.0
N1059 N 0.71025 0.15983 0.35366 0.0
H1060 H 0.73836 0.15092 0.17164 0.0
H1061 H 0.81334 0.15715 0.24668 0.0
H1062 H 0.71892 0.16107 0.40179 0.0
H1063 H 0.75861 0.16955 0.34522 0.0
H1064 H 0.25319 0.11732 0.20531 0.0
H1065 H 0.30593 0.12383 0.1457 0.0
H1066 H 0.33263 0.10515 0.26236 0.0
H1067 H 0.39171 0.11471 0.34251 0.0
C1068 C 0.63721 0.1269 0.7799 0.0
C1069 C 0.53901 0.13614 0.82437 0.0
C1070 C 0.46263 0.14833 0.74788 0.0
C1071 C 0.56771 0.14011 0.70537 0.0
N1072 N 0.77671 0.12699 0.69563 0.0
N1073 N 0.37331 0.1585 0.85723 0.0
C1074 C 0.66065 0.13079 0.72526 0.0
C1075 C 0.45685 0.1478 0.8105 0.0
N1076 N 0.71102 0.11471 0.79041 0.0
N1077 N 0.36447 0.15585 0.72796 0.0
H1078 H 0.36106 0.15786 0.90234 0.0
H1079 H 0.32345 0.16896 0.85338 0.0
H1080 H 0.36077 0.15648 0.68278 0.0
H1081 H 0.27969 0.16003 0.75389 0.0
H1082 H 0.77258 0.10595 0.75508 0.0
H1083 H 0.70645 0.1129 0.83353 0.0
H1084 H 0.85253 0.12173 0.71214 0.0
H1085 H 0.80226 0.13142 0.66045 0.0
C1086 C 0.6284 0.89625 0.74018 0.0
C1087 C 0.54293 0.88459 0.693 0.0
C1088 C 0.48986 0.87174 0.77044 0.0
C1089 C 0.58993 0.88146 0.81337 0.0
N1090 N 0.77332 0.90002 0.82879 0.0
N1091 N 0.39804 0.86015 0.66126 0.0
C1092 C 0.66375 0.89303 0.7957 0.0
C1093 C 0.47662 0.87189 0.70735 0.0
N1094 N 0.67788 0.91032 0.73203 0.0
N1095 N 0.40092 0.86337 0.79114 0.0
H1096 H 0.37384 0.86102 0.61746 0.0
H1097 H 0.3624 0.84895 0.66501 0.0
H1098 H 0.39942 0.86373 0.83799 0.0
H1099 H 0.31917 0.85776 0.7646 0.0
H1100 H 0.72772 0.9204 0.76891 0.0
H1101 H 0.66314 0.91245 0.6899 0.0
H1102 H 0.83718 0.90702 0.81356 0.0
H1103 H 0.80859 0.89703 0.86648 0.0
loop_
_geom_bond_atom_site_label_1
_geom_bond_atom_site_label_2
_geom_bond_distance
_geom_bond_site_symmetry_2
_ccdc_geom_bond_type
Eu0 N31 2.657 . S
Eu0 N38 2.609 . S
Eu0 O44 2.558 . S
Eu0 O45 2.612 1_455 S
Eu0 O47 2.339 1_554 S
Eu0 O48 2.563 1_455 S
Eu0 O49 2.419 . S
Eu0 O51 2.380 . S
Eu0 O52 2.432 . S
Eu0 C64 2.848 . S
C1 C4 1.429 . S
C1 C5 1.411 . S
C1 N8 1.377 . S
C2 C4 1.420 . S
C2 C6 1.423 . S
C2 C14 1.392 1_556 S
C3 C5 1.420 . S
C3 C6 1.351 . S
C3 H26 0.931 . S
C4 C1 1.429 . S
C4 C2 1.420 . S
C4 N12 1.362 1_556 S
C5 C1 1.411 . S
C5 C3 1.420 . S
C5 C10 1.395 . S
C6 C2 1.423 . S
C6 C3 1.351 . S
C6 H18 0.930 . S
C7 C9 1.400 . S
C7 C10 1.386 . S
C7 H19 0.930 . S
N8 C1 1.377 . S
N8 C9 1.321 . S
N8 Eu11 2.609 1_655 S
C9 C7 1.400 . S
C9 N8 1.321 . S
C9 H16 0.930 1_655 S
C10 C5 1.395 . S
C10 C7 1.386 . S
C10 H29 0.930 . S
Eu11 N8 2.609 1_455 S
Eu11 N12 2.657 1_456 S
Eu11 O45 2.380 1_456 S
Eu11 O46 2.432 . S
Eu11 O50 2.558 . S
Eu11 O51 2.612 1_556 S
Eu11 O53 2.339 1_556 S
Eu11 O54 2.563 . S
Eu11 O55 2.419 1_556 S
Eu11 C75 2.848 . S
N12 C4 1.362 1_554 S
N12 Eu11 2.657 1_654 S
N12 C13 1.334 . S
C13 N12 1.334 . S
C13 C15 1.413 . S
C13 H20 0.929 . S
C14 C2 1.392 1_554 S
C14 C15 1.367 . S
C14 H22 0.930 . S
C15 C13 1.413 . S
C15 C14 1.367 . S
C15 H17 0.930 . S
H16 C9 0.930 1_455 S
H17 C15 0.930 . S
H18 C6 0.930 . S
H19 C7 0.930 . S
H20 C13 0.929 . S
H21 C35 0.930 . S
H22 C14 0.930 . S
H23 C41 0.930 . S
H24 C32 0.929 . S
H25 C39 0.930 . S
H26 C3 0.931 . S
H27 C33 0.930 . S
H28 C66 0.930 . S
H29 C10 0.930 . S
H30 C65 0.931 . S
N31 Eu0 2.657 . S
N31 C32 1.334 1_554 S
N31 C36 1.362 . S
C32 H24 0.929 . S
C32 N31 1.334 1_556 S
C32 C35 1.413 . S
C33 H27 0.930 . S
C33 C34 1.392 1_556 S
C33 C35 1.367 . S
C34 C33 1.392 1_554 S
C34 C36 1.420 . S
C34 C66 1.423 . S
C35 H21 0.930 . S
C35 C32 1.413 . S
C35 C33 1.367 . S
C36 N31 1.362 . S
C36 C34 1.420 . S
C36 C40 1.429 . S
H37 C42 0.930 . S
N38 Eu0 2.609 . S
N38 C40 1.377 . S
N38 C41 1.321 . S
C39 H25 0.930 . S
C39 C41 1.400 . S
C39 C42 1.386 . S
C40 C36 1.429 . S
C40 N38 1.377 . S
C40 C43 1.411 . S
C41 H23 0.930 . S
C41 N38 1.321 . S
C41 C39 1.400 . S
C42 H37 0.930 . S
C42 C39 1.386 . S
C42 C43 1.395 . S
C43 C40 1.411 . S
C43 C42 1.395 . S
C43 C65 1.420 . S
O44 Eu0 2.558 . S
O44 C64 1.257 . S
O45 Eu0 2.612 1_655 S
O45 Eu11 2.380 1_654 S
O45 C56 1.276 . S
O46 Eu11 2.432 . S
O46 C63 1.264 . S
O47 Eu0 2.339 1_556 S
O47 C63 1.254 . S
O48 Eu0 2.563 1_655 S
O48 C56 1.235 . S
O49 Eu0 2.419 . S
O49 C64 1.249 . S
O50 Eu11 2.558 . S
O50 C75 1.257 . S
O51 Eu0 2.380 . S
O51 Eu11 2.612 1_554 S
O51 C67 1.276 . S
O52 Eu0 2.432 . S
O52 C74 1.264 . S
O53 Eu11 2.339 1_554 S
O53 C74 1.254 . S
O54 Eu11 2.563 . S
O54 C67 1.235 1_556 S
O55 Eu11 2.419 1_554 S
O55 C75 1.249 1_554 S
C56 O45 1.276 . S
C56 O48 1.235 . S
C57 C59 1.393 . S
C57 C61 1.395 . S
C57 C64 1.492 1_655 S
C58 C59 1.392 . S
C58 C60 1.386 . S
C59 C57 1.393 . S
C59 C58 1.392 . S
C59 H76 0.930 1_554 S
C60 C58 1.386 . S
C60 C62 1.395 . S
C60 H77 0.930 . S
C61 C57 1.395 . S
C61 C62 1.379 . S
C61 H78 0.930 . S
C62 C60 1.395 . S
C62 C61 1.379 . S
C62 H79 0.930 . S
C63 O46 1.264 . S
C63 O47 1.254 . S
C64 Eu0 2.848 . S
C64 O44 1.257 . S
C64 O49 1.249 . S
C64 C57 1.492 1_455 S
C65 H30 0.931 . S
C65 C43 1.420 . S
C65 C66 1.351 . S
C66 H28 0.930 . S
C66 C34 1.423 . S
C66 C65 1.351 . S
C67 O51 1.276 . S
C67 O54 1.235 1_554 S
C68 C69 1.393 . S
C68 C72 1.395 . S
C68 C75 1.492 . S
C69 C68 1.393 . S
C69 C70 1.392 . S
C69 H80 0.930 1_556 S
C70 C69 1.392 . S
C70 C71 1.386 . S
C71 C70 1.386 . S
C71 C73 1.395 . S
C71 H81 0.930 . S
C72 C68 1.395 . S
C72 C73 1.379 . S
C72 H82 0.930 . S
C73 C71 1.395 . S
C73 C72 1.379 . S
C73 H83 0.930 . S
C74 O52 1.264 . S
C74 O53 1.254 . S
C75 Eu11 2.848 . S
C75 O50 1.257 . S
C75 O55 1.249 1_556 S
C75 C68 1.492 . S
H76 C59 0.930 1_556 S
H77 C60 0.930 . S
H78 C61 0.930 . S
H79 C62 0.930 . S
H80 C69 0.930 1_554 S
H81 C71 0.930 . S
H82 C72 0.930 . S
H83 C73 0.930 . S
Eu84 N115 2.657 1_655 S
Eu84 N122 2.609 1_655 S
Eu84 O128 2.558 . S
Eu84 O129 2.612 . S
Eu84 O131 2.339 1_554 S
Eu84 O132 2.563 . S
Eu84 O133 2.419 . S
Eu84 O135 2.380 1_655 S
Eu84 O136 2.432 . S
Eu84 C148 2.848 . S
C85 C88 1.429 . S
C85 C89 1.411 . S
C85 N92 1.377 . S
C86 C88 1.420 . S
C86 C90 1.423 . S
C86 C98 1.392 1_556 S
C87 C89 1.420 . S
C87 C90 1.351 . S
C87 H110 0.931 . S
C88 C85 1.429 . S
C88 C86 1.420 . S
C88 N96 1.362 1_556 S
C89 C85 1.411 . S
C89 C87 1.420 . S
C89 C94 1.395 . S
C90 C86 1.423 . S
C90 C87 1.351 . S
C90 H102 0.930 . S
C91 C93 1.400 . S
C91 C94 1.386 . S
C91 H103 0.930 . S
N92 C85 1.377 . S
N92 C93 1.321 . S
N92 Eu95 2.609 . S
C93 C91 1.400 . S
C93 N92 1.321 . S
C93 H100 0.930 . S
C94 C89 1.395 . S
C94 C91 1.386 . S
C94 H113 0.930 . S
Eu95 N92 2.609 . S
Eu95 N96 2.657 1_556 S
Eu95 O129 2.380 1_556 S
Eu95 O130 2.432 . S
Eu95 O134 2.558 . S
Eu95 O135 2.612 1_656 S
Eu95 O137 2.339 1_556 S
Eu95 O138 2.563 1_655 S
Eu95 O139 2.419 1_556 S
Eu95 C159 2.848 . S
N96 C88 1.362 1_554 S
N96 Eu95 2.657 1_554 S
N96 C97 1.334 . S
C97 N96 1.334 . S
C97 C99 1.413 . S
C97 H104 0.929 . S
C98 C86 1.392 1_554 S
C98 C99 1.367 . S
C98 H106 0.930 . S
C99 C97 1.413 . S
C99 C98 1.367 . S
C99 H101 0.930 . S
H100 C93 0.930 . S
H101 C99 0.930 . S
H102 C90 0.930 . S
H103 C91 0.930 . S
H104 C97 0.929 . S
H105 C119 0.930 . S
H106 C98 0.930 . S
H107 C125 0.930 1_655 S
H108 C116 0.929 . S
H109 C123 0.930 . S
H110 C87 0.931 . S
H111 C117 0.930 . S
H112 C150 0.930 . S
H113 C94 0.930 . S
H114 C149 0.931 . S
N115 Eu84 2.657 1_455 S
N115 C116 1.334 1_554 S
N115 C120 1.362 . S
C116 H108 0.929 . S
C116 N115 1.334 1_556 S
C116 C119 1.413 . S
C117 H111 0.930 . S
C117 C118 1.392 1_556 S
C117 C119 1.367 . S
C118 C117 1.392 1_554 S
C118 C120 1.420 . S
C118 C150 1.423 . S
C119 H105 0.930 . S
C119 C116 1.413 . S
C119 C117 1.367 . S
C120 N115 1.362 . S
C120 C118 1.420 . S
C120 C124 1.429 . S
H121 C126 0.930 . S
N122 Eu84 2.609 1_455 S
N122 C124 1.377 . S
N122 C125 1.321 . S
C123 H109 0.930 . S
C123 C125 1.400 . S
C123 C126 1.386 . S
C124 C120 1.429 . S
C124 N122 1.377 . S
C124 C127 1.411 . S
C125 H107 0.930 1_455 S
C125 N122 1.321 . S
C125 C123 1.400 . S
C126 H121 0.930 . S
C126 C123 1.386 . S
C126 C127 1.395 . S
C127 C124 1.411 . S
C127 C126 1.395 . S
C127 C149 1.420 . S
O128 Eu84 2.558 . S
O128 C148 1.257 . S
O129 Eu84 2.612 . S
O129 Eu95 2.380 1_554 S
O129 C140 1.276 . S
O130 Eu95 2.432 . S
O130 C147 1.264 . S
O131 Eu84 2.339 1_556 S
O131 C147 1.254 . S
O132 Eu84 2.563 . S
O132 C140 1.235 . S
O133 Eu84 2.419 . S
O133 C148 1.249 . S
O134 Eu95 2.558 . S
O134 C159 1.257 . S
O135 Eu84 2.380 1_455 S
O135 Eu95 2.612 1_454 S
O135 C151 1.276 . S
O136 Eu84 2.432 . S
O136 C158 1.264 . S
O137 Eu95 2.339 1_554 S
O137 C158 1.254 . S
O138 Eu95 2.563 1_455 S
O138 C151 1.235 1_556 S
O139 Eu95 2.419 1_554 S
O139 C159 1.249 1_554 S
C140 O129 1.276 . S
C140 O132 1.235 . S
C141 C143 1.393 . S
C141 C145 1.395 . S
C141 C148 1.492 . S
C142 C143 1.392 . S
C142 C144 1.386 . S
C143 C141 1.393 . S
C143 C142 1.392 . S
C143 H160 0.930 . S
C144 C142 1.386 . S
C144 C146 1.395 . S
C144 H161 0.930 . S
C145 C141 1.395 . S
C145 C146 1.379 . S
C145 H162 0.930 . S
C146 C144 1.395 . S
C146 C145 1.379 . S
C146 H163 0.930 . S
C147 O130 1.264 . S
C147 O131 1.254 . S
C148 Eu84 2.848 . S
C148 O128 1.257 . S
C148 O133 1.249 . S
C148 C141 1.492 . S
C149 H114 0.931 . S
C149 C127 1.420 . S
C149 C150 1.351 . S
C150 H112 0.930 . S
C150 C118 1.423 . S
C150 C149 1.351 . S
C151 O135 1.276 . S
C151 O138 1.235 1_554 S
C152 C153 1.393 . S
C152 C156 1.395 . S
C152 C159 1.492 1_455 S
C153 C152 1.393 . S
C153 C154 1.392 . S
C153 H164 0.930 1_556 S
C154 C153 1.392 . S
C154 C155 1.386 . S
C155 C154 1.386 . S
C155 C157 1.395 . S
C155 H165 0.930 . S
C156 C152 1.395 . S
C156 C157 1.379 . S
C156 H166 0.930 . S
C157 C155 1.395 . S
C157 C156 1.379 . S
C157 H167 0.930 . S
C158 O136 1.264 . S
C158 O137 1.254 . S
C159 Eu95 2.848 . S
C159 O134 1.257 . S
C159 O139 1.249 1_556 S
C159 C152 1.492 1_655 S
H160 C143 0.930 . S
H161 C144 0.930 . S
H162 C145 0.930 . S
H163 C146 0.930 . S
H164 C153 0.930 1_554 S
H165 C155 0.930 . S
H166 C156 0.930 . S
H167 C157 0.930 . S
Eu168 N199 2.657 . S
Eu168 N206 2.609 . S
Eu168 O212 2.558 . S
Eu168 O213 2.612 1_455 S
Eu168 O215 2.339 . S
Eu168 O216 2.563 1_455 S
Eu168 O217 2.419 . S
Eu168 O219 2.380 . S
Eu168 O220 2.432 . S
Eu168 C232 2.848 . S
C169 C172 1.429 . S
C169 C173 1.411 . S
C169 N176 1.377 . S
C170 C172 1.420 . S
C170 C174 1.423 . S
C170 C182 1.392 . S
C171 C173 1.420 . S
C171 C174 1.351 . S
C171 H194 0.931 . S
C172 C169 1.429 . S
C172 C170 1.420 . S
C172 N180 1.362 . S
C173 C169 1.411 . S
C173 C171 1.420 . S
C173 C178 1.395 . S
C174 C170 1.423 . S
C174 C171 1.351 . S
C174 H186 0.930 . S
C175 C177 1.400 . S
C175 C178 1.386 . S
C175 H187 0.930 . S
N176 C169 1.377 . S
N176 C177 1.321 . S
N176 Eu179 2.609 1_655 S
C177 C175 1.400 . S
C177 N176 1.321 . S
C177 H184 0.930 1_655 S
C178 C173 1.395 . S
C178 C175 1.386 . S
C178 H197 0.930 . S
Eu179 N176 2.609 1_455 S
Eu179 N180 2.657 1_455 S
Eu179 O213 2.380 1_455 S
Eu179 O214 2.432 . S
Eu179 O218 2.558 . S
Eu179 O219 2.612 . S
Eu179 O221 2.339 . S
Eu179 O222 2.563 . S
Eu179 O223 2.419 . S
Eu179 C243 2.848 . S
N180 C172 1.362 . S
N180 Eu179 2.657 1_655 S
N180 C181 1.334 . S
C181 N180 1.334 . S
C181 C183 1.413 . S
C181 H188 0.929 . S
C182 C170 1.392 . S
C182 C183 1.367 . S
C182 H190 0.930 . S
C183 C181 1.413 . S
C183 C182 1.367 . S
C183 H185 0.930 . S
H184 C177 0.930 1_455 S
H185 C183 0.930 . S
H186 C174 0.930 . S
H187 C175 0.930 . S
H188 C181 0.929 . S
H189 C203 0.930 . S
H190 C182 0.930 . S
H191 C209 0.930 . S
H192 C200 0.929 . S
H193 C207 0.930 . S
H194 C171 0.931 . S
H195 C201 0.930 . S
H196 C234 0.930 . S
H197 C178 0.930 . S
H198 C233 0.931 . S
N199 Eu168 2.657 . S
N199 C200 1.334 . S
N199 C204 1.362 . S
C200 H192 0.929 . S
C200 N199 1.334 . S
C200 C203 1.413 . S
C201 H195 0.930 . S
C201 C202 1.392 . S
C201 C203 1.367 . S
C202 C201 1.392 . S
C202 C204 1.420 . S
C202 C234 1.423 . S
C203 H189 0.930 . S
C203 C200 1.413 . S
C203 C201 1.367 . S
C204 N199 1.362 . S
C204 C202 1.420 . S
C204 C208 1.429 . S
H205 C210 0.930 . S
N206 Eu168 2.609 . S
N206 C208 1.377 . S
N206 C209 1.321 . S
C207 H193 0.930 . S
C207 C209 1.400 . S
C207 C210 1.386 . S
C208 C204 1.429 . S
C208 N206 1.377 . S
C208 C211 1.411 . S
C209 H191 0.930 . S
C209 N206 1.321 . S
C209 C207 1.400 . S
C210 H205 0.930 . S
C210 C207 1.386 . S
C210 C211 1.395 . S
C211 C208 1.411 . S
C211 C210 1.395 . S
C211 C233 1.420 . S
O212 Eu168 2.558 . S
O212 C232 1.257 . S
O213 Eu168 2.612 1_655 S
O213 Eu179 2.380 1_655 S
O213 C224 1.276 . S
O214 Eu179 2.432 . S
O214 C231 1.264 . S
O215 Eu168 2.339 . S
O215 C231 1.254 . S
O216 Eu168 2.563 1_655 S
O216 C224 1.235 . S
O217 Eu168 2.419 . S
O217 C232 1.249 . S
O218 Eu179 2.558 . S
O218 C243 1.257 . S
O219 Eu168 2.380 . S
O219 Eu179 2.612 . S
O219 C235 1.276 . S
O220 Eu168 2.432 . S
O220 C242 1.264 . S
O221 Eu179 2.339 . S
O221 C242 1.254 . S
O222 Eu179 2.563 . S
O222 C235 1.235 . S
O223 Eu179 2.419 . S
O223 C243 1.249 . S
C224 O213 1.276 . S
C224 O216 1.235 . S
C225 C227 1.393 . S
C225 C229 1.395 . S
C225 C232 1.492 1_655 S
C226 C227 1.392 . S
C226 C228 1.386 . S
C227 C225 1.393 . S
C227 C226 1.392 . S
C227 H244 0.930 . S
C228 C226 1.386 . S
C228 C230 1.395 . S
C228 H245 0.930 . S
C229 C225 1.395 . S
C229 C230 1.379 . S
C229 H246 0.930 . S
C230 C228 1.395 . S
C230 C229 1.379 . S
C230 H247 0.930 . S
C231 O214 1.264 . S
C231 O215 1.254 . S
C232 Eu168 2.848 . S
C232 O212 1.257 . S
C232 O217 1.249 . S
C232 C225 1.492 1_455 S
C233 H198 0.931 . S
C233 C211 1.420 . S
C233 C234 1.351 . S
C234 H196 0.930 . S
C234 C202 1.423 . S
C234 C233 1.351 . S
C235 O219 1.276 . S
C235 O222 1.235 . S
C236 C237 1.393 . S
C236 C240 1.395 . S
C236 C243 1.492 . S
C237 C236 1.393 . S
C237 C238 1.392 . S
C237 H248 0.930 . S
C238 C237 1.392 . S
C238 C239 1.386 . S
C239 C238 1.386 . S
C239 C241 1.395 . S
C239 H249 0.930 . S
C240 C236 1.395 . S
C240 C241 1.379 . S
C240 H250 0.930 . S
C241 C239 1.395 . S
C241 C240 1.379 . S
C241 H251 0.930 . S
C242 O220 1.264 . S
C242 O221 1.254 . S
C243 Eu179 2.848 . S
C243 O218 1.257 . S
C243 O223 1.249 . S
C243 C236 1.492 . S
H244 C227 0.930 . S
H245 C228 0.930 . S
H246 C229 0.930 . S
H247 C230 0.930 . S
H248 C237 0.930 . S
H249 C239 0.930 . S
H250 C240 0.930 . S
H251 C241 0.930 . S
Eu252 N283 2.657 1_655 S
Eu252 N290 2.609 1_655 S
Eu252 O296 2.558 . S
Eu252 O297 2.612 . S
Eu252 O299 2.339 . S
Eu252 O300 2.563 . S
Eu252 O301 2.419 . S
Eu252 O303 2.380 1_655 S
Eu252 O304 2.432 . S
Eu252 C316 2.848 . S
C253 C256 1.429 . S
C253 C257 1.411 . S
C253 N260 1.377 . S
C254 C256 1.420 . S
C254 C258 1.423 . S
C254 C266 1.392 . S
C255 C257 1.420 . S
C255 C258 1.351 . S
C255 H278 0.931 . S
C256 C253 1.429 . S
C256 C254 1.420 . S
C256 N264 1.362 . S
C257 C253 1.411 . S
C257 C255 1.420 . S
C257 C262 1.395 . S
C258 C254 1.423 . S
C258 C255 1.351 . S
C258 H270 0.930 . S
C259 C261 1.400 . S
C259 C262 1.386 . S
C259 H271 0.930 . S
N260 C253 1.377 . S
N260 C261 1.321 . S
N260 Eu263 2.609 . S
C261 C259 1.400 . S
C261 N260 1.321 . S
C261 H268 0.930 . S
C262 C257 1.395 . S
C262 C259 1.386 . S
C262 H281 0.930 . S
Eu263 N260 2.609 . S
Eu263 N264 2.657 . S
Eu263 O297 2.380 . S
Eu263 O298 2.432 . S
Eu263 O302 2.558 . S
Eu263 O303 2.612 1_655 S
Eu263 O305 2.339 . S
Eu263 O306 2.563 1_655 S
Eu263 O307 2.419 . S
Eu263 C327 2.848 . S
N264 C256 1.362 . S
N264 Eu263 2.657 . S
N264 C265 1.334 . S
C265 N264 1.334 . S
C265 C267 1.413 . S
C265 H272 0.929 . S
C266 C254 1.392 . S
C266 C267 1.367 . S
C266 H274 0.930 . S
C267 C265 1.413 . S
C267 C266 1.367 . S
C267 H269 0.930 . S
H268 C261 0.930 . S
H269 C267 0.930 . S
H270 C258 0.930 . S
H271 C259 0.930 . S
H272 C265 0.929 . S
H273 C287 0.930 . S
H274 C266 0.930 . S
H275 C293 0.930 1_655 S
H276 C284 0.929 . S
H277 C291 0.930 . S
H278 C255 0.931 . S
H279 C285 0.930 . S
H280 C318 0.930 . S
H281 C262 0.930 . S
H282 C317 0.931 . S
N283 Eu252 2.657 1_455 S
N283 C284 1.334 . S
N283 C288 1.362 . S
C284 H276 0.929 . S
C284 N283 1.334 . S
C284 C287 1.413 . S
C285 H279 0.930 . S
C285 C286 1.392 . S
C285 C287 1.367 . S
C286 C285 1.392 . S
C286 C288 1.420 . S
C286 C318 1.423 . S
C287 H273 0.930 . S
C287 C284 1.413 . S
C287 C285 1.367 . S
C288 N283 1.362 . S
C288 C286 1.420 . S
C288 C292 1.429 . S
H289 C294 0.930 . S
N290 Eu252 2.609 1_455 S
N290 C292 1.377 . S
N290 C293 1.321 . S
C291 H277 0.930 . S
C291 C293 1.400 . S
C291 C294 1.386 . S
C292 C288 1.429 . S
C292 N290 1.377 . S
C292 C295 1.411 . S
C293 H275 0.930 1_455 S
C293 N290 1.321 . S
C293 C291 1.400 . S
C294 H289 0.930 . S
C294 C291 1.386 . S
C294 C295 1.395 . S
C295 C292 1.411 . S
C295 C294 1.395 . S
C295 C317 1.420 . S
O296 Eu252 2.558 . S
O296 C316 1.257 . S
O297 Eu252 2.612 . S
O297 Eu263 2.380 . S
O297 C308 1.276 . S
O298 Eu263 2.432 . S
O298 C315 1.264 . S
O299 Eu252 2.339 . S
O299 C315 1.254 . S
O300 Eu252 2.563 . S
O300 C308 1.235 . S
O301 Eu252 2.419 . S
O301 C316 1.249 . S
O302 Eu263 2.558 . S
O302 C327 1.257 . S
O303 Eu252 2.380 1_455 S
O303 Eu263 2.612 1_455 S
O303 C319 1.276 . S
O304 Eu252 2.432 . S
O304 C326 1.264 . S
O305 Eu263 2.339 . S
O305 C326 1.254 . S
O306 Eu263 2.563 1_455 S
O306 C319 1.235 . S
O307 Eu263 2.419 . S
O307 C327 1.249 . S
C308 O297 1.276 . S
C308 O300 1.235 . S
C309 C311 1.393 . S
C309 C313 1.395 . S
C309 C316 1.492 . S
C310 C311 1.392 . S
C310 C312 1.386 . S
C311 C309 1.393 . S
C311 C310 1.392 . S
C311 H328 0.930 . S
C312 C310 1.386 . S
C312 C314 1.395 . S
C312 H329 0.930 . S
C313 C309 1.395 . S
C313 C314 1.379 . S
C313 H330 0.930 . S
C314 C312 1.395 . S
C314 C313 1.379 . S
C314 H331 0.930 . S
C315 O298 1.264 . S
C315 O299 1.254 . S
C316 Eu252 2.848 . S
C316 O296 1.257 . S
C316 O301 1.249 . S
C316 C309 1.492 . S
C317 H282 0.931 . S
C317 C295 1.420 . S
C317 C318 1.351 . S
C318 H280 0.930 . S
C318 C286 1.423 . S
C318 C317 1.351 . S
C319 O303 1.276 . S
C319 O306 1.235 . S
C320 C321 1.393 . S
C320 C324 1.395 . S
C320 C327 1.492 1_455 S
C321 C320 1.393 . S
C321 C322 1.392 . S
C321 H332 0.930 . S
C322 C321 1.392 . S
C322 C323 1.386 . S
C323 C322 1.386 . S
C323 C325 1.395 . S
C323 H333 0.930 . S
C324 C320 1.395 . S
C324 C325 1.379 . S
C324 H334 0.930 . S
C325 C323 1.395 . S
C325 C324 1.379 . S
C325 H335 0.930 . S
C326 O304 1.264 . S
C326 O305 1.254 . S
C327 Eu263 2.848 . S
C327 O302 1.257 . S
C327 O307 1.249 . S
C327 C320 1.492 1_655 S
H328 C311 0.930 . S
H329 C312 0.930 . S
H330 C313 0.930 . S
H331 C314 0.930 . S
H332 C321 0.930 . S
H333 C323 0.930 . S
H334 C324 0.930 . S
H335 C325 0.930 . S
Eu336 N367 2.657 . S
Eu336 N374 2.609 . S
Eu336 O380 2.558 . S
Eu336 O381 2.612 . S
Eu336 O383 2.339 1_554 S
Eu336 O384 2.563 . S
Eu336 O385 2.419 . S
Eu336 O387 2.380 . S
Eu336 O388 2.432 . S
Eu336 C400 2.848 . S
C337 C340 1.429 . S
C337 C341 1.411 . S
C337 N344 1.377 . S
C338 C340 1.420 . S
C338 C342 1.423 . S
C338 C350 1.392 1_556 S
C339 C341 1.420 . S
C339 C342 1.351 . S
C339 H362 0.931 . S
C340 C337 1.429 . S
C340 C338 1.420 . S
C340 N348 1.362 1_556 S
C341 C337 1.411 . S
C341 C339 1.420 . S
C341 C346 1.395 . S
C342 C338 1.423 . S
C342 C339 1.351 . S
C342 H354 0.924 1_455 S
C343 C345 1.400 . S
C343 C346 1.386 . S
C343 H355 0.930 . S
N344 C337 1.377 . S
N344 C345 1.321 . S
N344 Eu347 2.609 . S
C345 C343 1.400 . S
C345 N344 1.321 . S
C345 H352 0.930 . S
C346 C341 1.395 . S
C346 C343 1.386 . S
C346 H365 0.930 . S
Eu347 N344 2.609 . S
Eu347 N348 2.657 1_556 S
Eu347 O381 2.380 1_556 S
Eu347 O382 2.432 . S
Eu347 O386 2.558 . S
Eu347 O387 2.612 1_556 S
Eu347 O389 2.339 1_556 S
Eu347 O390 2.563 . S
Eu347 O391 2.419 1_556 S
Eu347 C411 2.848 . S
N348 C340 1.362 1_554 S
N348 Eu347 2.657 1_554 S
N348 C349 1.334 . S
C349 N348 1.334 . S
C349 C351 1.413 . S
C349 H356 0.929 . S
C350 C338 1.392 1_554 S
C350 C351 1.367 . S
C350 H358 0.930 . S
C351 C349 1.413 . S
C351 C350 1.367 . S
C351 H353 0.930 . S
H352 C345 0.930 . S
H353 C351 0.930 . S
H354 C342 0.924 1_655 S
H355 C343 0.930 . S
H356 C349 0.929 . S
H357 C371 0.930 . S
H358 C350 0.930 . S
H359 C377 0.930 . S
H360 C368 0.929 . S
H361 C375 0.930 . S
H362 C339 0.931 . S
H363 C369 0.930 . S
H364 C402 0.930 . S
H365 C346 0.930 . S
H366 C401 0.931 . S
N367 Eu336 2.657 . S
N367 C368 1.334 1_554 S
N367 C372 1.362 . S
C368 H360 0.929 . S
C368 N367 1.334 1_556 S
C368 C371 1.413 . S
C369 H363 0.930 . S
C369 C370 1.392 1_456 S
C369 C371 1.367 1_455 S
C370 C369 1.392 1_654 S
C370 C372 1.420 . S
C370 C402 1.423 1_655 S
C371 H357 0.930 . S
C371 C368 1.413 . S
C371 C369 1.367 1_655 S
C372 N367 1.362 . S
C372 C370 1.420 . S
C372 C376 1.429 . S
H373 C378 0.930 . S
N374 Eu336 2.609 . S
N374 C376 1.377 . S
N374 C377 1.321 . S
C375 H361 0.930 . S
C375 C377 1.400 . S
C375 C378 1.386 . S
C376 C372 1.429 . S
C376 N374 1.377 . S
C376 C379 1.411 . S
C377 H359 0.930 . S
C377 N374 1.321 . S
C377 C375 1.400 . S
C378 H373 0.930 . S
C378 C375 1.386 . S
C378 C379 1.395 . S
C379 C376 1.411 . S
C379 C378 1.395 . S
C379 C401 1.420 1_655 S
O380 Eu336 2.558 . S
O380 C400 1.257 . S
O381 Eu336 2.612 . S
O381 Eu347 2.380 1_554 S
O381 C392 1.276 . S
O382 Eu347 2.432 . S
O382 C399 1.264 . S
O383 Eu336 2.339 1_556 S
O383 C399 1.254 . S
O384 Eu336 2.563 . S
O384 C392 1.235 . S
O385 Eu336 2.419 . S
O385 C400 1.249 . S
O386 Eu347 2.558 . S
O386 C411 1.257 . S
O387 Eu336 2.380 . S
O387 Eu347 2.612 1_554 S
O387 C403 1.276 . S
O388 Eu336 2.432 . S
O388 C410 1.264 . S
O389 Eu347 2.339 1_554 S
O389 C410 1.254 . S
O390 Eu347 2.563 . S
O390 C403 1.235 1_556 S
O391 Eu347 2.419 1_554 S
O391 C411 1.249 1_554 S
C392 O381 1.276 . S
C392 O384 1.235 . S
C393 C395 1.393 . S
C393 C397 1.395 . S
C393 C400 1.492 . S
C394 C395 1.392 . S
C394 C396 1.386 . S
C395 C393 1.393 . S
C395 C394 1.392 . S
C395 H412 0.930 1_554 S
C396 C394 1.386 . S
C396 C398 1.395 . S
C396 H413 0.930 . S
C397 C393 1.395 . S
C397 C398 1.379 . S
C397 H414 0.930 . S
C398 C396 1.395 . S
C398 C397 1.379 . S
C398 H415 0.930 . S
C399 O382 1.264 . S
C399 O383 1.254 . S
C400 Eu336 2.848 . S
C400 O380 1.257 . S
C400 O385 1.249 . S
C400 C393 1.492 . S
C401 H366 0.931 . S
C401 C379 1.420 1_455 S
C401 C402 1.351 . S
C402 H364 0.930 . S
C402 C370 1.423 1_455 S
C402 C401 1.351 . S
C403 O387 1.276 . S
C403 O390 1.235 1_554 S
C404 C405 1.393 . S
C404 C408 1.395 . S
C404 C411 1.492 . S
C405 C404 1.393 . S
C405 C406 1.392 . S
C405 H416 0.930 1_556 S
C406 C405 1.392 . S
C406 C407 1.386 . S
C407 C406 1.386 . S
C407 C409 1.395 . S
C407 H417 0.930 . S
C408 C404 1.395 . S
C408 C409 1.379 . S
C408 H418 0.930 . S
C409 C407 1.395 . S
C409 C408 1.379 . S
C409 H419 0.930 . S
C410 O388 1.264 . S
C410 O389 1.254 . S
C411 Eu347 2.848 . S
C411 O386 1.257 . S
C411 O391 1.249 1_556 S
C411 C404 1.492 . S
H412 C395 0.930 1_556 S
H413 C396 0.930 . S
H414 C397 0.930 . S
H415 C398 0.930 . S
H416 C405 0.930 1_554 S
H417 C407 0.930 . S
H418 C408 0.930 . S
H419 C409 0.930 . S
Eu420 N451 2.657 . S
Eu420 N458 2.609 . S
Eu420 O464 2.558 . S
Eu420 O465 2.612 . S
Eu420 O467 2.339 1_554 S
Eu420 O468 2.563 . S
Eu420 O469 2.419 . S
Eu420 O471 2.380 . S
Eu420 O472 2.432 . S
Eu420 C484 2.848 . S
C421 C424 1.429 . S
C421 C425 1.411 . S
C421 N428 1.377 . S
C422 C424 1.420 . S
C422 C426 1.423 1_455 S
C422 C434 1.392 1_456 S
C423 C425 1.420 1_655 S
C423 C426 1.351 . S
C423 H446 0.931 . S
C424 C421 1.429 . S
C424 C422 1.420 . S
C424 N432 1.362 1_556 S
C425 C421 1.411 . S
C425 C423 1.420 1_455 S
C425 C430 1.395 . S
C426 C422 1.423 1_655 S
C426 C423 1.351 . S
C426 H438 0.930 . S
C427 C429 1.400 . S
C427 C430 1.386 . S
C427 H439 0.930 . S
N428 C421 1.377 . S
N428 C429 1.321 . S
N428 Eu431 2.609 . S
C429 C427 1.400 . S
C429 N428 1.321 . S
C429 H436 0.930 . S
C430 C425 1.395 . S
C430 C427 1.386 . S
C430 H449 0.930 . S
Eu431 N428 2.609 . S
Eu431 N432 2.657 1_556 S
Eu431 O465 2.380 1_556 S
Eu431 O466 2.432 . S
Eu431 O470 2.558 . S
Eu431 O471 2.612 1_556 S
Eu431 O473 2.339 1_556 S
Eu431 O474 2.563 . S
Eu431 O475 2.419 1_556 S
Eu431 C495 2.848 . S
N432 C424 1.362 1_554 S
N432 Eu431 2.657 1_554 S
N432 C433 1.334 . S
C433 N432 1.334 . S
C433 C435 1.413 . S
C433 H440 0.929 . S
C434 C422 1.392 1_654 S
C434 C435 1.367 1_655 S
C434 H442 0.930 . S
C435 C433 1.413 . S
C435 C434 1.367 1_455 S
C435 H437 0.930 . S
H436 C429 0.930 . S
H437 C435 0.930 . S
H438 C426 0.930 . S
H439 C427 0.930 . S
H440 C433 0.929 . S
H441 C455 0.930 . S
H442 C434 0.930 . S
H443 C461 0.930 . S
H444 C452 0.929 . S
H445 C459 0.930 . S
H446 C423 0.931 . S
H447 C453 0.930 . S
H448 C486 0.923 1_455 S
H449 C430 0.930 . S
H450 C485 0.931 . S
N451 Eu420 2.657 . S
N451 C452 1.334 1_554 S
N451 C456 1.362 . S
C452 H444 0.929 . S
C452 N451 1.334 1_556 S
C452 C455 1.413 . S
C453 H447 0.930 . S
C453 C454 1.392 1_556 S
C453 C455 1.367 . S
C454 C453 1.392 1_554 S
C454 C456 1.420 . S
C454 C486 1.423 . S
C455 H441 0.930 . S
C455 C452 1.413 . S
C455 C453 1.367 . S
C456 N451 1.362 . S
C456 C454 1.420 . S
C456 C460 1.429 . S
H457 C462 0.930 . S
N458 Eu420 2.609 . S
N458 C460 1.377 . S
N458 C461 1.321 . S
C459 H445 0.930 . S
C459 C461 1.400 . S
C459 C462 1.386 . S
C460 C456 1.429 . S
C460 N458 1.377 . S
C460 C463 1.411 . S
C461 H443 0.930 . S
C461 N458 1.321 . S
C461 C459 1.400 . S
C462 H457 0.930 . S
C462 C459 1.386 . S
C462 C463 1.395 . S
C463 C460 1.411 . S
C463 C462 1.395 . S
C463 C485 1.420 . S
O464 Eu420 2.558 . S
O464 C484 1.257 . S
O465 Eu420 2.612 . S
O465 Eu431 2.380 1_554 S
O465 C476 1.276 . S
O466 Eu431 2.432 . S
O466 C483 1.264 . S
O467 Eu420 2.339 1_556 S
O467 C483 1.254 . S
O468 Eu420 2.563 . S
O468 C476 1.235 . S
O469 Eu420 2.419 . S
O469 C484 1.249 . S
O470 Eu431 2.558 . S
O470 C495 1.257 . S
O471 Eu420 2.380 . S
O471 Eu431 2.612 1_554 S
O471 C487 1.276 . S
O472 Eu420 2.432 . S
O472 C494 1.264 . S
O473 Eu431 2.339 1_554 S
O473 C494 1.254 . S
O474 Eu431 2.563 . S
O474 C487 1.235 1_556 S
O475 Eu431 2.419 1_554 S
O475 C495 1.249 1_554 S
C476 O465 1.276 . S
C476 O468 1.235 . S
C477 C479 1.393 . S
C477 C481 1.395 . S
C477 C484 1.492 . S
C478 C479 1.392 . S
C478 C480 1.386 . S
C479 C477 1.393 . S
C479 C478 1.392 . S
C479 H496 0.930 . S
C480 C478 1.386 . S
C480 C482 1.395 . S
C480 H497 0.930 . S
C481 C477 1.395 . S
C481 C482 1.379 . S
C481 H498 0.930 . S
C482 C480 1.395 . S
C482 C481 1.379 . S
C482 H499 0.930 . S
C483 O466 1.264 . S
C483 O467 1.254 . S
C484 Eu420 2.848 . S
C484 O464 1.257 . S
C484 O469 1.249 . S
C484 C477 1.492 . S
C485 H450 0.931 . S
C485 C463 1.420 . S
C485 C486 1.351 . S
C486 H448 0.923 1_655 S
C486 C454 1.423 . S
C486 C485 1.351 . S
C487 O471 1.276 . S
C487 O474 1.235 1_554 S
C488 C489 1.393 . S
C488 C492 1.395 . S
C488 C495 1.492 . S
C489 C488 1.393 . S
C489 C490 1.392 . S
C489 H500 0.930 1_556 S
C490 C489 1.392 . S
C490 C491 1.386 . S
C491 C490 1.386 . S
C491 C493 1.395 . S
C491 H501 0.930 . S
C492 C488 1.395 . S
C492 C493 1.379 . S
C492 H502 0.930 . S
C493 C491 1.395 . S
C493 C492 1.379 . S
C493 H503 0.930 . S
C494 O472 1.264 . S
C494 O473 1.254 . S
C495 Eu431 2.848 . S
C495 O470 1.257 . S
C495 O475 1.249 1_556 S
C495 C488 1.492 . S
H496 C479 0.930 . S
H497 C480 0.930 . S
H498 C481 0.930 . S
H499 C482 0.930 . S
H500 C489 0.930 1_554 S
H501 C491 0.930 . S
H502 C492 0.930 . S
H503 C493 0.930 . S
Eu504 N535 2.657 . S
Eu504 N542 2.609 . S
Eu504 O548 2.558 . S
Eu504 O549 2.612 . S
Eu504 O551 2.339 . S
Eu504 O552 2.563 . S
Eu504 O553 2.419 . S
Eu504 O555 2.380 . S
Eu504 O556 2.432 . S
Eu504 C568 2.848 . S
C505 C508 1.429 . S
C505 C509 1.411 . S
C505 N512 1.377 . S
C506 C508 1.420 . S
C506 C510 1.423 . S
C506 C518 1.392 . S
C507 C509 1.420 . S
C507 C510 1.351 . S
C507 H530 0.931 . S
C508 C505 1.429 . S
C508 C506 1.420 . S
C508 N516 1.362 . S
C509 C505 1.411 . S
C509 C507 1.420 . S
C509 C514 1.395 . S
C510 C506 1.423 . S
C510 C507 1.351 . S
C510 H522 0.924 1_455 S
C511 C513 1.400 . S
C511 C514 1.386 . S
C511 H523 0.930 . S
N512 C505 1.377 . S
N512 C513 1.321 . S
N512 Eu515 2.609 . S
C513 C511 1.400 . S
C513 N512 1.321 . S
C513 H520 0.930 . S
C514 C509 1.395 . S
C514 C511 1.386 . S
C514 H533 0.930 . S
Eu515 N512 2.609 . S
Eu515 N516 2.657 . S
Eu515 O549 2.380 . S
Eu515 O550 2.432 . S
Eu515 O554 2.558 . S
Eu515 O555 2.612 . S
Eu515 O557 2.339 . S
Eu515 O558 2.563 . S
Eu515 O559 2.419 . S
Eu515 C579 2.848 . S
N516 C508 1.362 . S
N516 Eu515 2.657 . S
N516 C517 1.334 . S
C517 N516 1.334 . S
C517 C519 1.413 . S
C517 H524 0.929 . S
C518 C506 1.392 . S
C518 C519 1.367 . S
C518 H526 0.930 . S
C519 C517 1.413 . S
C519 C518 1.367 . S
C519 H521 0.930 . S
H520 C513 0.930 . S
H521 C519 0.930 . S
H522 C510 0.924 1_655 S
H523 C511 0.930 . S
H524 C517 0.929 . S
H525 C539 0.930 . S
H526 C518 0.930 . S
H527 C545 0.930 . S
H528 C536 0.929 . S
H529 C543 0.930 . S
H530 C507 0.931 . S
H531 C537 0.930 . S
H532 C570 0.930 . S
H533 C514 0.930 . S
H534 C569 0.931 . S
N535 Eu504 2.657 . S
N535 C536 1.334 . S
N535 C540 1.362 . S
C536 H528 0.929 . S
C536 N535 1.334 . S
C536 C539 1.413 . S
C537 H531 0.930 . S
C537 C538 1.392 1_455 S
C537 C539 1.367 1_455 S
C538 C537 1.392 1_655 S
C538 C540 1.420 . S
C538 C570 1.423 1_655 S
C539 H525 0.930 . S
C539 C536 1.413 . S
C539 C537 1.367 1_655 S
C540 N535 1.362 . S
C540 C538 1.420 . S
C540 C544 1.429 . S
H541 C546 0.930 . S
N542 Eu504 2.609 . S
N542 C544 1.377 . S
N542 C545 1.321 . S
C543 H529 0.930 . S
C543 C545 1.400 . S
C543 C546 1.386 . S
C544 C540 1.429 . S
C544 N542 1.377 . S
C544 C547 1.411 . S
C545 H527 0.930 . S
C545 N542 1.321 . S
C545 C543 1.400 . S
C546 H541 0.930 . S
C546 C543 1.386 . S
C546 C547 1.395 . S
C547 C544 1.411 . S
C547 C546 1.395 . S
C547 C569 1.420 1_655 S
O548 Eu504 2.558 . S
O548 C568 1.257 . S
O549 Eu504 2.612 . S
O549 Eu515 2.380 . S
O549 C560 1.276 . S
O550 Eu515 2.432 . S
O550 C567 1.264 . S
O551 Eu504 2.339 . S
O551 C567 1.254 . S
O552 Eu504 2.563 . S
O552 C560 1.235 . S
O553 Eu504 2.419 . S
O553 C568 1.249 . S
O554 Eu515 2.558 . S
O554 C579 1.257 . S
O555 Eu504 2.380 . S
O555 Eu515 2.612 . S
O555 C571 1.276 . S
O556 Eu504 2.432 . S
O556 C578 1.264 . S
O557 Eu515 2.339 . S
O557 C578 1.254 . S
O558 Eu515 2.563 . S
O558 C571 1.235 . S
O559 Eu515 2.419 . S
O559 C579 1.249 . S
C560 O549 1.276 . S
C560 O552 1.235 . S
C561 C563 1.393 . S
C561 C565 1.395 . S
C561 C568 1.492 . S
C562 C563 1.392 . S
C562 C564 1.386 . S
C563 C561 1.393 . S
C563 C562 1.392 . S
C563 H580 0.930 . S
C564 C562 1.386 . S
C564 C566 1.395 . S
C564 H581 0.930 . S
C565 C561 1.395 . S
C565 C566 1.379 . S
C565 H582 0.930 . S
C566 C564 1.395 . S
C566 C565 1.379 . S
C566 H583 0.930 . S
C567 O550 1.264 . S
C567 O551 1.254 . S
C568 Eu504 2.848 . S
C568 O548 1.257 . S
C568 O553 1.249 . S
C568 C561 1.492 . S
C569 H534 0.931 . S
C569 C547 1.420 1_455 S
C569 C570 1.351 . S
C570 H532 0.930 . S
C570 C538 1.423 1_455 S
C570 C569 1.351 . S
C571 O555 1.276 . S
C571 O558 1.235 . S
C572 C573 1.393 . S
C572 C576 1.395 . S
C572 C579 1.492 . S
C573 C572 1.393 . S
C573 C574 1.392 . S
C573 H584 0.930 . S
C574 C573 1.392 . S
C574 C575 1.386 . S
C575 C574 1.386 . S
C575 C577 1.395 . S
C575 H585 0.930 . S
C576 C572 1.395 . S
C576 C577 1.379 . S
C576 H586 0.930 . S
C577 C575 1.395 . S
C577 C576 1.379 . S
C577 H587 0.930 . S
C578 O556 1.264 . S
C578 O557 1.254 . S
C579 Eu515 2.848 . S
C579 O554 1.257 . S
C579 O559 1.249 . S
C579 C572 1.492 . S
H580 C563 0.930 . S
H581 C564 0.930 . S
H582 C565 0.930 . S
H583 C566 0.930 . S
H584 C573 0.930 . S
H585 C575 0.930 . S
H586 C576 0.930 . S
H587 C577 0.930 . S
Eu588 N619 2.657 . S
Eu588 N626 2.609 . S
Eu588 O632 2.558 . S
Eu588 O633 2.612 . S
Eu588 O635 2.339 . S
Eu588 O636 2.563 . S
Eu588 O637 2.419 . S
Eu588 O639 2.380 . S
Eu588 O640 2.432 . S
Eu588 C652 2.848 . S
C589 C592 1.429 . S
C589 C593 1.411 . S
C589 N596 1.377 . S
C590 C592 1.420 . S
C590 C594 1.423 1_455 S
C590 C602 1.392 1_455 S
C591 C593 1.420 1_655 S
C591 C594 1.351 . S
C591 H614 0.931 . S
C592 C589 1.429 . S
C592 C590 1.420 . S
C592 N600 1.362 . S
C593 C589 1.411 . S
C593 C591 1.420 1_455 S
C593 C598 1.395 . S
C594 C590 1.423 1_655 S
C594 C591 1.351 . S
C594 H606 0.930 . S
C595 C597 1.400 . S
C595 C598 1.386 . S
C595 H607 0.930 . S
N596 C589 1.377 . S
N596 C597 1.321 . S
N596 Eu599 2.609 . S
C597 C595 1.400 . S
C597 N596 1.321 . S
C597 H604 0.930 . S
C598 C593 1.395 . S
C598 C595 1.386 . S
C598 H617 0.930 . S
Eu599 N596 2.609 . S
Eu599 N600 2.657 . S
Eu599 O633 2.380 . S
Eu599 O634 2.432 . S
Eu599 O638 2.558 . S
Eu599 O639 2.612 . S
Eu599 O641 2.339 . S
Eu599 O642 2.563 . S
Eu599 O643 2.419 . S
Eu599 C663 2.848 . S
N600 C592 1.362 . S
N600 Eu599 2.657 . S
N600 C601 1.334 . S
C601 N600 1.334 . S
C601 C603 1.413 . S
C601 H608 0.929 . S
C602 C590 1.392 1_655 S
C602 C603 1.367 1_655 S
C602 H610 0.930 . S
C603 C601 1.413 . S
C603 C602 1.367 1_455 S
C603 H605 0.930 . S
H604 C597 0.930 . S
H605 C603 0.930 . S
H606 C594 0.930 . S
H607 C595 0.930 . S
H608 C601 0.929 . S
H609 C623 0.930 . S
H610 C602 0.930 . S
H611 C629 0.930 . S
H612 C620 0.929 . S
H613 C627 0.930 . S
H614 C591 0.931 . S
H615 C621 0.930 . S
H616 C654 0.924 1_455 S
H617 C598 0.930 . S
H618 C653 0.931 . S
N619 Eu588 2.657 . S
N619 C620 1.334 . S
N619 C624 1.362 . S
C620 H612 0.929 . S
C620 N619 1.334 . S
C620 C623 1.413 . S
C621 H615 0.930 . S
C621 C622 1.392 . S
C621 C623 1.367 . S
C622 C621 1.392 . S
C622 C624 1.420 . S
C622 C654 1.423 . S
C623 H609 0.930 . S
C623 C620 1.413 . S
C623 C621 1.367 . S
C624 N619 1.362 . S
C624 C622 1.420 . S
C624 C628 1.429 . S
H625 C630 0.930 . S
N626 Eu588 2.609 . S
N626 C628 1.377 . S
N626 C629 1.321 . S
C627 H613 0.930 . S
C627 C629 1.400 . S
C627 C630 1.386 . S
C628 C624 1.429 . S
C628 N626 1.377 . S
C628 C631 1.411 . S
C629 H611 0.930 . S
C629 N626 1.321 . S
C629 C627 1.400 . S
C630 H625 0.930 . S
C630 C627 1.386 . S
C630 C631 1.395 . S
C631 C628 1.411 . S
C631 C630 1.395 . S
C631 C653 1.420 . S
O632 Eu588 2.558 . S
O632 C652 1.257 . S
O633 Eu588 2.612 . S
O633 Eu599 2.380 . S
O633 C644 1.276 . S
O634 Eu599 2.432 . S
O634 C651 1.264 . S
O635 Eu588 2.339 . S
O635 C651 1.254 . S
O636 Eu588 2.563 . S
O636 C644 1.235 . S
O637 Eu588 2.419 . S
O637 C652 1.249 . S
O638 Eu599 2.558 . S
O638 C663 1.257 . S
O639 Eu588 2.380 . S
O639 Eu599 2.612 . S
O639 C655 1.276 . S
O640 Eu588 2.432 . S
O640 C662 1.264 . S
O641 Eu599 2.339 . S
O641 C662 1.254 . S
O642 Eu599 2.563 . S
O642 C655 1.235 . S
O643 Eu599 2.419 . S
O643 C663 1.249 . S
C644 O633 1.276 . S
C644 O636 1.235 . S
C645 C647 1.393 . S
C645 C649 1.395 . S
C645 C652 1.492 . S
C646 C647 1.392 . S
C646 C648 1.386 . S
C647 C645 1.393 . S
C647 C646 1.392 . S
C647 H664 0.930 . S
C648 C646 1.386 . S
C648 C650 1.395 . S
C648 H665 0.930 . S
C649 C645 1.395 . S
C649 C650 1.379 . S
C649 H666 0.930 . S
C650 C648 1.395 . S
C650 C649 1.379 . S
C650 H667 0.930 . S
C651 O634 1.264 . S
C651 O635 1.254 . S
C652 Eu588 2.848 . S
C652 O632 1.257 . S
C652 O637 1.249 . S
C652 C645 1.492 . S
C653 H618 0.931 . S
C653 C631 1.420 . S
C653 C654 1.351 . S
C654 H616 0.924 1_655 S
C654 C622 1.423 . S
C654 C653 1.351 . S
C655 O639 1.276 . S
C655 O642 1.235 . S
C656 C657 1.393 . S
C656 C660 1.395 . S
C656 C663 1.492 . S
C657 C656 1.393 . S
C657 C658 1.392 . S
C657 H668 0.930 . S
C658 C657 1.392 . S
C658 C659 1.386 . S
C659 C658 1.386 . S
C659 C661 1.395 . S
C659 H669 0.930 . S
C660 C656 1.395 . S
C660 C661 1.379 . S
C660 H670 0.930 . S
C661 C659 1.395 . S
C661 C660 1.379 . S
C661 H671 0.930 . S
C662 O640 1.264 . S
C662 O641 1.254 . S
C663 Eu599 2.848 . S
C663 O638 1.257 . S
C663 O643 1.249 . S
C663 C656 1.492 . S
H664 C647 0.930 . S
H665 C648 0.930 . S
H666 C649 0.930 . S
H667 C650 0.930 . S
H668 C657 0.930 . S
H669 C659 0.930 . S
H670 C660 0.930 . S
H671 C661 0.930 . S
C672 C673 1.363 . S
C672 C678 1.379 1_554 S
C672 N680 1.356 . S
C673 C672 1.363 . S
C673 C679 1.363 . S
C674 C675 1.363 . S
C674 C679 1.379 . S
C674 N681 1.356 . S
C675 C674 1.363 . S
C675 C678 1.363 1_554 S
N676 C678 1.356 . S
N676 H688 0.984 . S
N676 H689 0.985 . S
N677 C679 1.356 . S
N677 H682 0.984 . S
N677 H683 0.985 . S
C678 C672 1.379 1_556 S
C678 C675 1.363 1_556 S
C678 N676 1.356 . S
C679 C673 1.363 . S
C679 C674 1.379 . S
C679 N677 1.356 . S
N680 C672 1.356 . S
N680 H686 0.984 1_554 S
N680 H687 0.984 . S
N681 C674 1.356 . S
N681 H684 0.984 . S
N681 H685 0.985 . S
H682 N677 0.984 . S
H683 N677 0.985 . S
H684 N681 0.984 . S
H685 N681 0.985 . S
H686 N680 0.984 1_556 S
H687 N680 0.984 . S
H688 N676 0.984 . S
H689 N676 0.985 . S
C690 C691 1.363 . S
C690 C696 1.379 . S
C690 N698 1.356 . S
C691 C690 1.363 . S
C691 C697 1.363 . S
C692 C693 1.362 . S
C692 C697 1.378 . S
C692 N699 1.357 1_554 S
C693 C692 1.362 . S
C693 C696 1.363 . S
N694 C696 1.356 . S
N694 H706 0.984 . S
N694 H707 0.985 . S
N695 C697 1.358 . S
N695 H700 0.987 . S
N695 H701 0.980 1_554 S
C696 C690 1.379 . S
C696 C693 1.363 . S
C696 N694 1.356 . S
C697 C691 1.363 . S
C697 C692 1.378 . S
C697 N695 1.358 . S
N698 C690 1.356 . S
N698 H704 0.984 . S
N698 H705 0.984 . S
N699 C692 1.357 1_556 S
N699 H702 0.984 . S
N699 H703 0.985 . S
H700 N695 0.987 . S
H701 N695 0.980 1_556 S
H702 N699 0.984 . S
H703 N699 0.985 . S
H704 N698 0.984 . S
H705 N698 0.984 . S
H706 N694 0.984 . S
H707 N694 0.985 . S
C708 C709 1.363 . S
C708 C714 1.379 . S
C708 N716 1.356 . S
C709 C708 1.363 . S
C709 C715 1.363 . S
C710 C711 1.363 . S
C710 C715 1.379 . S
C710 N717 1.356 . S
C711 C710 1.363 . S
C711 C714 1.363 . S
N712 C714 1.356 . S
N712 H724 0.984 . S
N712 H725 0.985 . S
N713 C715 1.356 . S
N713 H718 0.984 . S
N713 H719 0.985 . S
C714 C708 1.379 . S
C714 C711 1.363 . S
C714 N712 1.356 . S
C715 C709 1.363 . S
C715 C710 1.379 . S
C715 N713 1.356 . S
N716 C708 1.356 . S
N716 H722 0.984 . S
N716 H723 0.984 . S
N717 C710 1.356 . S
N717 H720 0.984 . S
N717 H721 0.985 . S
H718 N713 0.984 . S
H719 N713 0.985 . S
H720 N717 0.984 . S
H721 N717 0.985 . S
H722 N716 0.984 . S
H723 N716 0.984 . S
H724 N712 0.984 . S
H725 N712 0.985 . S
C726 C727 1.363 . S
C726 C732 1.379 . S
C726 N734 1.356 . S
C727 C726 1.363 . S
C727 C733 1.363 . S
C728 C729 1.363 . S
C728 C733 1.379 . S
C728 N735 1.356 . S
C729 C728 1.363 . S
C729 C732 1.363 . S
N730 C732 1.356 . S
N730 H742 0.984 . S
N730 H743 0.985 . S
N731 C733 1.356 . S
N731 H736 0.984 . S
N731 H737 0.985 . S
C732 C726 1.379 . S
C732 C729 1.363 . S
C732 N730 1.356 . S
C733 C727 1.363 . S
C733 C728 1.379 . S
C733 N731 1.356 . S
N734 C726 1.356 . S
N734 H740 0.984 . S
N734 H741 0.984 . S
N735 C728 1.356 . S
N735 H738 0.984 . S
N735 H739 0.985 . S
H736 N731 0.984 . S
H737 N731 0.985 . S
H738 N735 0.984 . S
H739 N735 0.985 . S
H740 N734 0.984 . S
H741 N734 0.984 . S
H742 N730 0.984 . S
H743 N730 0.985 . S
C744 C745 1.363 1_455 S
C744 C750 1.379 . S
C744 N752 1.356 1_455 S
C745 C744 1.363 1_655 S
C745 C751 1.363 1_554 S
C746 C747 1.363 1_556 S
C746 C751 1.379 1_455 S
C746 N753 1.356 . S
C747 C746 1.363 1_554 S
C747 C750 1.363 . S
N748 C750 1.356 . S
N748 H760 0.984 . S
N748 H761 0.985 . S
N749 C751 1.356 . S
N749 H754 0.984 . S
N749 H755 0.985 . S
C750 C744 1.379 . S
C750 C747 1.363 . S
C750 N748 1.356 . S
C751 C745 1.363 1_556 S
C751 C746 1.379 1_655 S
C751 N749 1.356 . S
N752 C744 1.356 1_655 S
N752 H758 0.984 . S
N752 H759 0.984 . S
N753 C746 1.356 . S
N753 H756 0.984 . S
N753 H757 0.985 . S
H754 N749 0.984 . S
H755 N749 0.985 . S
H756 N753 0.984 . S
H757 N753 0.985 . S
H758 N752 0.984 . S
H759 N752 0.984 . S
H760 N748 0.984 . S
H761 N748 0.985 . S
C762 C763 1.363 1_656 S
C762 C768 1.379 . S
C762 N770 1.356 1_655 S
C763 C762 1.363 1_454 S
C763 C769 1.363 . S
C764 C765 1.363 . S
C764 C769 1.379 1_655 S
C764 N771 1.356 . S
C765 C764 1.363 . S
C765 C768 1.363 1_554 S
N766 C768 1.356 . S
N766 H778 0.984 . S
N766 H779 0.985 . S
N767 C769 1.356 . S
N767 H772 0.984 . S
N767 H773 0.985 . S
C768 C762 1.379 . S
C768 C765 1.363 1_556 S
C768 N766 1.356 . S
C769 C763 1.363 . S
C769 C764 1.379 1_455 S
C769 N767 1.356 . S
N770 C762 1.356 1_455 S
N770 H776 0.984 . S
N770 H777 0.984 . S
N771 C764 1.356 . S
N771 H774 0.984 . S
N771 H775 0.985 . S
H772 N767 0.984 . S
H773 N767 0.985 . S
H774 N771 0.984 . S
H775 N771 0.985 . S
H776 N770 0.984 . S
H777 N770 0.984 . S
H778 N766 0.984 . S
H779 N766 0.985 . S
C780 C781 1.363 . S
C780 C786 1.379 1_455 S
C780 N788 1.356 . S
C781 C780 1.363 . S
C781 C787 1.363 . S
C782 C783 1.363 1_455 S
C782 C787 1.379 . S
C782 N789 1.356 1_455 S
C783 C782 1.363 1_655 S
C783 C786 1.363 . S
N784 C786 1.356 . S
N784 H796 0.984 . S
N784 H797 0.985 . S
N785 C787 1.356 . S
N785 H790 0.984 . S
N785 H791 0.985 . S
C786 C780 1.379 1_655 S
C786 C783 1.363 . S
C786 N784 1.356 . S
C787 C781 1.363 . S
C787 C782 1.379 . S
C787 N785 1.356 . S
N788 C780 1.356 . S
N788 H794 0.984 . S
N788 H795 0.984 . S
N789 C782 1.356 1_655 S
N789 H792 0.984 . S
N789 H793 0.985 . S
H790 N785 0.984 . S
H791 N785 0.985 . S
H792 N789 0.984 . S
H793 N789 0.985 . S
H794 N788 0.984 . S
H795 N788 0.984 . S
H796 N784 0.984 . S
H797 N784 0.985 . S
C798 C799 1.363 . S
C798 C804 1.379 1_655 S
C798 N806 1.356 . S
C799 C798 1.363 . S
C799 C805 1.363 . S
C800 C801 1.363 1_655 S
C800 C805 1.379 . S
C800 N807 1.356 1_655 S
C801 C800 1.363 1_455 S
C801 C804 1.363 . S
N802 C804 1.356 . S
N802 H814 0.984 . S
N802 H815 0.985 . S
N803 C805 1.356 . S
N803 H808 0.984 . S
N803 H809 0.985 . S
C804 C798 1.379 1_455 S
C804 C801 1.363 . S
C804 N802 1.356 . S
C805 C799 1.363 . S
C805 C800 1.379 . S
C805 N803 1.356 . S
N806 C798 1.356 . S
N806 H812 0.984 . S
N806 H813 0.984 . S
N807 C800 1.356 1_455 S
N807 H810 0.984 . S
N807 H811 0.985 . S
H808 N803 0.984 . S
H809 N803 0.985 . S
H810 N807 0.984 . S
H811 N807 0.985 . S
H812 N806 0.984 . S
H813 N806 0.984 . S
H814 N802 0.984 . S
H815 N802 0.985 . S
C816 C817 1.363 . S
C816 C822 1.379 . S
C816 N824 1.356 . S
C817 C816 1.363 . S
C817 C823 1.363 1_454 S
C818 C819 1.363 1_556 S
C818 C823 1.379 . S
C818 N825 1.356 . S
C819 C818 1.363 1_554 S
C819 C822 1.363 1_655 S
N820 C822 1.356 1_655 S
N820 H832 0.984 1_655 S
N820 H833 0.985 . S
N821 C823 1.356 1_455 S
N821 H826 0.984 . S
N821 H827 0.985 1_455 S
C822 C816 1.379 . S
C822 C819 1.363 1_455 S
C822 N820 1.356 1_455 S
C823 C817 1.363 1_656 S
C823 C818 1.379 . S
C823 N821 1.356 1_655 S
N824 C816 1.356 . S
N824 H830 0.984 . S
N824 H831 0.984 . S
N825 C818 1.356 . S
N825 H828 0.984 . S
N825 H829 0.985 . S
H826 N821 0.984 . S
H827 N821 0.985 1_655 S
H828 N825 0.984 . S
H829 N825 0.985 . S
H830 N824 0.984 . S
H831 N824 0.984 . S
H832 N820 0.984 1_455 S
H833 N820 0.985 . S
C834 C835 1.363 . S
C834 C840 1.379 . S
C834 N842 1.356 . S
C835 C834 1.363 . S
C835 C841 1.363 1_455 S
C836 C837 1.363 . S
C836 C841 1.379 . S
C836 N843 1.356 . S
C837 C836 1.363 . S
C837 C840 1.363 1_655 S
N838 C840 1.356 . S
N838 H850 0.984 . S
N838 H851 0.985 1_455 S
N839 C841 1.356 . S
N839 H844 0.984 1_655 S
N839 H845 0.985 . S
C840 C834 1.379 . S
C840 C837 1.363 1_455 S
C840 N838 1.356 . S
C841 C835 1.363 1_655 S
C841 C836 1.379 . S
C841 N839 1.356 . S
N842 C834 1.356 . S
N842 H848 0.984 . S
N842 H849 0.984 . S
N843 C836 1.356 . S
N843 H846 0.984 . S
N843 H847 0.985 . S
H844 N839 0.984 1_455 S
H845 N839 0.985 . S
H846 N843 0.984 . S
H847 N843 0.985 . S
H848 N842 0.984 . S
H849 N842 0.984 . S
H850 N838 0.984 . S
H851 N838 0.985 1_655 S
C852 C853 1.363 1_545 S
C852 C858 1.379 . S
C852 N860 1.356 . S
C853 C852 1.363 1_565 S
C853 C859 1.363 1_554 S
C854 C855 1.363 1_566 S
C854 C859 1.379 . S
C854 N861 1.356 . S
C855 C854 1.363 1_544 S
C855 C858 1.363 . S
N856 C858 1.356 . S
N856 H868 0.984 . S
N856 H869 0.985 . S
N857 C859 1.356 . S
N857 H862 0.984 . S
N857 H863 0.985 . S
C858 C852 1.379 . S
C858 C855 1.363 . S
C858 N856 1.356 . S
C859 C853 1.363 1_556 S
C859 C854 1.379 . S
C859 N857 1.356 . S
N860 C852 1.356 . S
N860 H866 0.984 . S
N860 H867 0.984 1_545 S
N861 C854 1.356 . S
N861 H864 0.984 1_565 S
N861 H865 0.985 . S
H862 N857 0.984 . S
H863 N857 0.985 . S
H864 N861 0.984 1_545 S
H865 N861 0.985 . S
H866 N860 0.984 . S
H867 N860 0.984 1_565 S
H868 N856 0.984 . S
H869 N856 0.985 . S
C870 C871 1.363 . S
C870 C876 1.379 . S
C870 N878 1.356 . S
C871 C870 1.363 . S
C871 C877 1.363 1_545 S
C872 C873 1.363 . S
C872 C877 1.379 . S
C872 N879 1.356 . S
C873 C872 1.363 . S
C873 C876 1.363 1_565 S
N874 C876 1.356 . S
N874 H886 0.984 . S
N874 H887 0.985 1_545 S
N875 C877 1.356 . S
N875 H880 0.984 1_565 S
N875 H881 0.985 . S
C876 C870 1.379 . S
C876 C873 1.363 1_545 S
C876 N874 1.356 . S
C877 C871 1.363 1_565 S
C877 C872 1.379 . S
C877 N875 1.356 . S
N878 C870 1.356 . S
N878 H884 0.984 . S
N878 H885 0.984 . S
N879 C872 1.356 . S
N879 H882 0.984 . S
N879 H883 0.985 . S
H880 N875 0.984 1_545 S
H881 N875 0.985 . S
H882 N879 0.984 . S
H883 N879 0.985 . S
H884 N878 0.984 . S
H885 N878 0.984 . S
H886 N874 0.984 . S
H887 N874 0.985 1_565 S
C888 C889 1.363 1_556 S
C888 C894 1.379 . S
C888 N896 1.356 . S
C889 C888 1.363 1_554 S
C889 C895 1.363 . S
C890 C891 1.363 . S
C890 C895 1.379 . S
C890 N897 1.356 . S
C891 C890 1.363 . S
C891 C894 1.363 1_554 S
N892 C894 1.356 . S
N892 H904 0.984 . S
N892 H905 0.985 . S
N893 C895 1.356 . S
N893 H898 0.984 . S
N893 H899 0.985 . S
C894 C888 1.379 . S
C894 C891 1.363 1_556 S
C894 N892 1.356 . S
C895 C889 1.363 . S
C895 C890 1.379 . S
C895 N893 1.356 . S
N896 C888 1.356 . S
N896 H902 0.984 . S
N896 H903 0.984 . S
N897 C890 1.356 . S
N897 H900 0.984 . S
N897 H901 0.985 . S
H898 N893 0.984 . S
H899 N893 0.985 . S
H900 N897 0.984 . S
H901 N897 0.985 . S
H902 N896 0.984 . S
H903 N896 0.984 . S
H904 N892 0.984 . S
H905 N892 0.985 . S
C906 C907 1.363 1_556 S
C906 C912 1.379 . S
C906 N914 1.356 . S
C907 C906 1.363 1_554 S
C907 C913 1.363 . S
C908 C909 1.363 . S
C908 C913 1.379 . S
C908 N915 1.356 . S
C909 C908 1.363 . S
C909 C912 1.363 1_554 S
N910 C912 1.356 . S
N910 H922 0.984 . S
N910 H923 0.985 . S
N911 C913 1.356 . S
N911 H916 0.984 . S
N911 H917 0.985 . S
C912 C906 1.379 . S
C912 C909 1.363 1_556 S
C912 N910 1.356 . S
C913 C907 1.363 . S
C913 C908 1.379 . S
C913 N911 1.356 . S
N914 C906 1.356 . S
N914 H920 0.984 . S
N914 H921 0.984 . S
N915 C908 1.356 . S
N915 H918 0.984 . S
N915 H919 0.985 . S
H916 N911 0.984 . S
H917 N911 0.985 . S
H918 N915 0.984 . S
H919 N915 0.985 . S
H920 N914 0.984 . S
H921 N914 0.984 . S
H922 N910 0.984 . S
H923 N910 0.985 . S
C924 C925 1.363 . S
C924 C930 1.379 . S
C924 N932 1.356 . S
C925 C924 1.363 . S
C925 C931 1.363 . S
C926 C927 1.363 . S
C926 C931 1.379 . S
C926 N933 1.356 . S
C927 C926 1.363 . S
C927 C930 1.363 . S
N928 C930 1.356 . S
N928 H940 0.984 . S
N928 H941 0.985 . S
N929 C931 1.356 . S
N929 H934 0.984 . S
N929 H935 0.985 . S
C930 C924 1.379 . S
C930 C927 1.363 . S
C930 N928 1.356 . S
C931 C925 1.363 . S
C931 C926 1.379 . S
C931 N929 1.356 . S
N932 C924 1.356 . S
N932 H938 0.984 . S
N932 H939 0.984 . S
N933 C926 1.356 . S
N933 H936 0.984 . S
N933 H937 0.985 . S
H934 N929 0.984 . S
H935 N929 0.985 . S
H936 N933 0.984 . S
H937 N933 0.985 . S
H938 N932 0.984 . S
H939 N932 0.984 . S
H940 N928 0.984 . S
H941 N928 0.985 . S
C942 C943 1.363 . S
C942 C948 1.379 . S
C942 N950 1.356 . S
C943 C942 1.363 . S
C943 C949 1.363 . S
C944 C945 1.363 . S
C944 C949 1.379 . S
C944 N951 1.356 . S
C945 C944 1.363 . S
C945 C948 1.363 . S
N946 C948 1.356 . S
N946 H958 0.984 . S
N946 H959 0.985 . S
N947 C949 1.356 . S
N947 H952 0.984 . S
N947 H953 0.985 . S
C948 C942 1.379 . S
C948 C945 1.363 . S
C948 N946 1.356 . S
C949 C943 1.363 . S
C949 C944 1.379 . S
C949 N947 1.356 . S
N950 C942 1.356 . S
N950 H956 0.984 . S
N950 H957 0.984 . S
N951 C944 1.356 . S
N951 H954 0.984 . S
N951 H955 0.985 . S
H952 N947 0.984 . S
H953 N947 0.985 . S
H954 N951 0.984 . S
H955 N951 0.985 . S
H956 N950 0.984 . S
H957 N950 0.984 . S
H958 N946 0.984 . S
H959 N946 0.985 . S
C960 C961 1.363 . S
C960 C966 1.379 1_455 S
C960 N968 1.356 . S
C961 C960 1.363 . S
C961 C967 1.363 . S
C962 C963 1.363 1_455 S
C962 C967 1.379 . S
C962 N969 1.356 . S
C963 C962 1.363 1_655 S
C963 C966 1.363 . S
N964 C966 1.356 . S
N964 H976 0.984 . S
N964 H977 0.985 . S
N965 C967 1.356 . S
N965 H970 0.984 . S
N965 H971 0.985 . S
C966 C960 1.379 1_655 S
C966 C963 1.363 . S
C966 N964 1.356 . S
C967 C961 1.363 . S
C967 C962 1.379 . S
C967 N965 1.356 . S
N968 C960 1.356 . S
N968 H974 0.984 1_455 S
N968 H975 0.984 . S
N969 C962 1.356 . S
N969 H972 0.984 . S
N969 H973 0.985 . S
H970 N965 0.984 . S
H971 N965 0.985 . S
H972 N969 0.984 . S
H973 N969 0.985 . S
H974 N968 0.984 1_655 S
H975 N968 0.984 . S
H976 N964 0.984 . S
H977 N964 0.985 . S
C978 C979 1.363 1_455 S
C978 C984 1.379 . S
C978 N986 1.356 . S
C979 C978 1.363 1_655 S
C979 C985 1.363 . S
C980 C981 1.363 1_655 S
C980 C985 1.379 . S
C980 N987 1.356 . S
C981 C980 1.363 1_455 S
C981 C984 1.363 . S
N982 C984 1.356 . S
N982 H994 0.984 . S
N982 H995 0.985 . S
N983 C985 1.356 . S
N983 H988 0.984 . S
N983 H989 0.985 . S
C984 C978 1.379 . S
C984 C981 1.363 . S
C984 N982 1.356 . S
C985 C979 1.363 . S
C985 C980 1.379 . S
C985 N983 1.356 . S
N986 C978 1.356 . S
N986 H992 0.984 . S
N986 H993 0.984 . S
N987 C980 1.356 . S
N987 H990 0.984 1_655 S
N987 H991 0.985 . S
H988 N983 0.984 . S
H989 N983 0.985 . S
H990 N987 0.984 1_455 S
H991 N987 0.985 . S
H992 N986 0.984 . S
H993 N986 0.984 . S
H994 N982 0.984 . S
H995 N982 0.985 . S
C996 C997 1.363 . S
C996 C1002 1.379 . S
C996 N1004 1.356 . S
C997 C996 1.363 . S
C997 C1003 1.363 1_655 S
C998 C999 1.363 . S
C998 C1003 1.379 . S
C998 N1005 1.356 . S
C999 C998 1.363 . S
C999 C1002 1.363 1_455 S
N1000 C1002 1.356 . S
N1000 H1012 0.984 . S
N1000 H1013 0.985 . S
N1001 C1003 1.356 . S
N1001 H1006 0.984 . S
N1001 H1007 0.985 . S
C1002 C996 1.379 . S
C1002 C999 1.363 1_655 S
C1002 N1000 1.356 . S
C1003 C997 1.363 1_455 S
C1003 C998 1.379 . S
C1003 N1001 1.356 . S
N1004 C996 1.356 . S
N1004 H1010 0.984 . S
N1004 H1011 0.984 . S
N1005 C998 1.356 . S
N1005 H1008 0.984 . S
N1005 H1009 0.985 . S
H1006 N1001 0.984 . S
H1007 N1001 0.985 . S
H1008 N1005 0.984 . S
H1009 N1005 0.985 . S
H1010 N1004 0.984 . S
H1011 N1004 0.984 . S
H1012 N1000 0.984 . S
H1013 N1000 0.985 . S
C1014 C1015 1.363 . S
C1014 C1020 1.379 . S
C1014 N1022 1.356 . S
C1015 C1014 1.363 . S
C1015 C1021 1.363 1_655 S
C1016 C1017 1.363 . S
C1016 C1021 1.379 . S
C1016 N1023 1.356 . S
C1017 C1016 1.363 . S
C1017 C1020 1.363 1_455 S
N1018 C1020 1.356 . S
N1018 H1030 0.984 . S
N1018 H1031 0.985 . S
N1019 C1021 1.356 . S
N1019 H1024 0.984 1_455 S
N1019 H1025 0.985 . S
C1020 C1014 1.379 . S
C1020 C1017 1.363 1_655 S
C1020 N1018 1.356 . S
C1021 C1015 1.363 1_455 S
C1021 C1016 1.379 . S
C1021 N1019 1.356 . S
N1022 C1014 1.356 . S
N1022 H1028 0.984 . S
N1022 H1029 0.984 . S
N1023 C1016 1.356 . S
N1023 H1026 0.984 . S
N1023 H1027 0.985 . S
H1024 N1019 0.984 1_655 S
H1025 N1019 0.985 . S
H1026 N1023 0.984 . S
H1027 N1023 0.985 . S
H1028 N1022 0.984 . S
H1029 N1022 0.984 . S
H1030 N1018 0.984 . S
H1031 N1018 0.985 . S
C1032 C1033 1.363 . S
C1032 C1038 1.379 . S
C1032 N1040 1.356 . S
C1033 C1032 1.363 . S
C1033 C1039 1.363 . S
C1034 C1035 1.363 . S
C1034 C1039 1.379 . S
C1034 N1041 1.356 . S
C1035 C1034 1.363 . S
C1035 C1038 1.363 . S
N1036 C1038 1.356 . S
N1036 H1048 0.984 . S
N1036 H1049 0.985 . S
N1037 C1039 1.356 . S
N1037 H1042 0.984 . S
N1037 H1043 0.985 . S
C1038 C1032 1.379 . S
C1038 C1035 1.363 . S
C1038 N1036 1.356 . S
C1039 C1033 1.363 . S
C1039 C1034 1.379 . S
C1039 N1037 1.356 . S
N1040 C1032 1.356 . S
N1040 H1046 0.984 . S
N1040 H1047 0.984 . S
N1041 C1034 1.356 . S
N1041 H1044 0.984 . S
N1041 H1045 0.985 . S
H1042 N1037 0.984 . S
H1043 N1037 0.985 . S
H1044 N1041 0.984 . S
H1045 N1041 0.985 . S
H1046 N1040 0.984 . S
H1047 N1040 0.984 . S
H1048 N1036 0.984 . S
H1049 N1036 0.985 . S
C1050 C1051 1.363 . S
C1050 C1056 1.379 . S
C1050 N1058 1.356 . S
C1051 C1050 1.363 . S
C1051 C1057 1.363 . S
C1052 C1053 1.363 . S
C1052 C1057 1.379 . S
C1052 N1059 1.356 . S
C1053 C1052 1.363 . S
C1053 C1056 1.363 . S
N1054 C1056 1.356 . S
N1054 H1066 0.984 . S
N1054 H1067 0.985 . S
N1055 C1057 1.356 . S
N1055 H1060 0.984 . S
N1055 H1061 0.985 . S
C1056 C1050 1.379 . S
C1056 C1053 1.363 . S
C1056 N1054 1.356 . S
C1057 C1051 1.363 . S
C1057 C1052 1.379 . S
C1057 N1055 1.356 . S
N1058 C1050 1.356 . S
N1058 H1064 0.984 . S
N1058 H1065 0.984 . S
N1059 C1052 1.356 . S
N1059 H1062 0.984 . S
N1059 H1063 0.985 . S
H1060 N1055 0.984 . S
H1061 N1055 0.985 . S
H1062 N1059 0.984 . S
H1063 N1059 0.985 . S
H1064 N1058 0.984 . S
H1065 N1058 0.984 . S
H1066 N1054 0.984 . S
H1067 N1054 0.985 . S
C1068 C1069 1.363 . S
C1068 C1074 1.379 . S
C1068 N1076 1.356 . S
C1069 C1068 1.363 . S
C1069 C1075 1.363 . S
C1070 C1071 1.363 . S
C1070 C1075 1.379 . S
C1070 N1077 1.356 . S
C1071 C1070 1.363 . S
C1071 C1074 1.363 . S
N1072 C1074 1.356 . S
N1072 H1084 0.984 . S
N1072 H1085 0.985 . S
N1073 C1075 1.356 . S
N1073 H1078 0.984 . S
N1073 H1079 0.985 . S
C1074 C1068 1.379 . S
C1074 C1071 1.363 . S
C1074 N1072 1.356 . S
C1075 C1069 1.363 . S
C1075 C1070 1.379 . S
C1075 N1073 1.356 . S
N1076 C1068 1.356 . S
N1076 H1082 0.984 . S
N1076 H1083 0.984 . S
N1077 C1070 1.356 . S
N1077 H1080 0.984 . S
N1077 H1081 0.985 . S
H1078 N1073 0.984 . S
H1079 N1073 0.985 . S
H1080 N1077 0.984 . S
H1081 N1077 0.985 . S
H1082 N1076 0.984 . S
H1083 N1076 0.984 . S
H1084 N1072 0.984 . S
H1085 N1072 0.985 . S
C1086 C1087 1.363 . S
C1086 C1092 1.379 . S
C1086 N1094 1.356 . S
C1087 C1086 1.363 . S
C1087 C1093 1.363 . S
C1088 C1089 1.363 . S
C1088 C1093 1.379 . S
C1088 N1095 1.356 . S
C1089 C1088 1.363 . S
C1089 C1092 1.363 . S
N1090 C1092 1.356 . S
N1090 H1102 0.984 . S
N1090 H1103 0.985 . S
N1091 C1093 1.356 . S
N1091 H1096 0.984 . S
N1091 H1097 0.985 . S
C1092 C1086 1.379 . S
C1092 C1089 1.363 . S
C1092 N1090 1.356 . S
C1093 C1087 1.363 . S
C1093 C1088 1.379 . S
C1093 N1091 1.356 . S
N1094 C1086 1.356 . S
N1094 H1100 0.984 . S
N1094 H1101 0.984 . S
N1095 C1088 1.356 . S
N1095 H1098 0.984 . S
N1095 H1099 0.985 . S
H1096 N1091 0.984 . S
H1097 N1091 0.985 . S
H1098 N1095 0.984 . S
H1099 N1095 0.985 . S
H1100 N1094 0.984 . S
H1101 N1094 0.984 . S
H1102 N1090 0.984 . S
H1103 N1090 0.985 . S
C673 C67 2.093 . S
C675 C56 2.093 . S
C691 C151 2.093 . S
C693 C140 2.093 . S
C709 C224 2.093 . S
C711 C235 2.093 . S
C727 C308 2.093 . S
C729 C319 2.093 . S
C745 C403 2.093 . S
C747 C392 2.093 . S
C763 C476 2.093 . S
C765 C487 2.093 . S
C781 C560 2.093 . S
C783 C571 2.093 . S
C799 C655 2.093 . S
C801 C644 2.093 . S
C817 C154 1.965 1_554 S
C819 C58 1.965 . S
C835 C322 1.965 . S
C837 C226 1.965 . S
C853 C394 1.965 . S
C855 C490 1.965 1_554 S
C871 C562 1.965 . S
C873 C658 1.965 . S
C889 C70 1.445 1_554 S
C891 C478 1.445 . S
C907 C406 1.445 1_554 S
C909 C142 1.445 . S
C925 C238 1.445 . S
C927 C646 1.445 . S
C943 C310 1.445 . S
C945 C574 1.445 . S
C961 C74 1.493 . S
C963 C326 1.613 . S
C979 C158 1.613 . S
C981 C242 1.493 . S
C997 C147 1.493 . S
C999 C231 1.612 . S
C1015 C315 1.493 . S
C1017 C63 1.613 . S
C1033 C410 1.493 . S
C1035 C662 1.612 . S
C1051 C494 1.612 . S
C1053 C578 1.493 . S
C1069 C483 1.493 . S
C1071 C567 1.613 . S
C1087 C651 1.493 . S
C1089 C399 1.613 . S
