# Generated by pormake.
# Topology wjf, (4)-cn, num edge types: 1
# Building blocks:
#     Node 0, Type 0, BuildingBlock: QUQFOY_clean_sbu_1, # of connection points: 4
#     Node 1, Type 0, BuildingBlock: QUQFOY_clean_sbu_1, # of connection points: 4
#     Node 2, Type 0, BuildingBlock: QUQFOY_clean_sbu_1, # of connection points: 4
#     Node 3, Type 0, BuildingBlock: QUQFOY_clean_sbu_1, # of connection points: 4
#     Node 4, Type 0, BuildingBlock: QUQFOY_clean_sbu_1, # of connection points: 4
#     Node 5, Type 0, BuildingBlock: QUQFOY_clean_sbu_1, # of connection points: 4
#     Node 6, Type 0, BuildingBlock: QUQFOY_clean_sbu_1, # of connection points: 4
#     Node 7, Type 0, BuildingBlock: QUQFOY_clean_sbu_1, # of connection points: 4
#     Node 8, Type 0, BuildingBlock: QUQFOY_clean_sbu_1, # of connection points: 4
#     Node 9, Type 0, BuildingBlock: QUQFOY_clean_sbu_1, # of connection points: 4
#     Node 10, Type 0, BuildingBlock: QUQFOY_clean_sbu_1, # of connection points: 4
#     Node 11, Type 0, BuildingBlock: QUQFOY_clean_sbu_1, # of connection points: 4
#     Edge 12, Type (0, 0), BuildingBlock: MIFKUJ_clean_linker_0, # of connection points: 2
#     Edge 13, Type (0, 0), BuildingBlock: MIFKUJ_clean_linker_0, # of connection points: 2
#     Edge 14, Type (0, 0), BuildingBlock: MIFKUJ_clean_linker_0, # of connection points: 2
#     Edge 15, Type (0, 0), BuildingBlock: MIFKUJ_clean_linker_0, # of connection points: 2
#     Edge 16, Type (0, 0), BuildingBlock: MIFKUJ_clean_linker_0, # of connection points: 2
#     Edge 17, Type (0, 0), BuildingBlock: MIFKUJ_clean_linker_0, # of connection points: 2
#     Edge 18, Type (0, 0), BuildingBlock: MIFKUJ_clean_linker_0, # of connection points: 2
#     Edge 19, Type (0, 0), BuildingBlock: MIFKUJ_clean_linker_0, # of connection points: 2
#     Edge 20, Type (0, 0), BuildingBlock: MIFKUJ_clean_linker_0, # of connection points: 2
#     Edge 21, Type (0, 0), BuildingBlock: MIFKUJ_clean_linker_0, # of connection points: 2
#     Edge 22, Type (0, 0), BuildingBlock: MIFKUJ_clean_linker_0, # of connection points: 2
#     Edge 23, Type (0, 0), BuildingBlock: MIFKUJ_clean_linker_0, # of connection points: 2
#     Edge 24, Type (0, 0), BuildingBlock: MIFKUJ_clean_linker_0, # of connection points: 2
#     Edge 25, Type (0, 0), BuildingBlock: MIFKUJ_clean_linker_0, # of connection points: 2
#     Edge 26, Type (0, 0), BuildingBlock: MIFKUJ_clean_linker_0, # of connection points: 2
#     Edge 27, Type (0, 0), BuildingBlock: MIFKUJ_clean_linker_0, # of connection points: 2
#     Edge 28, Type (0, 0), BuildingBlock: MIFKUJ_clean_linker_0, # of connection points: 2
#     Edge 29, Type (0, 0), BuildingBlock: MIFKUJ_clean_linker_0, # of connection points: 2
#     Edge 30, Type (0, 0), BuildingBlock: MIFKUJ_clean_linker_0, # of connection points: 2
#     Edge 31, Type (0, 0), BuildingBlock: MIFKUJ_clean_linker_0, # of connection points: 2
#     Edge 32, Type (0, 0), BuildingBlock: MIFKUJ_clean_linker_0, # of connection points: 2
#     Edge 33, Type (0, 0), BuildingBlock: MIFKUJ_clean_linker_0, # of connection points: 2
#     Edge 34, Type (0, 0), BuildingBlock: MIFKUJ_clean_linker_0, # of connection points: 2
#     Edge 35, Type (0, 0), BuildingBlock: MIFKUJ_clean_linker_0, # of connection points: 2
# Relax obj value: 0.020
# Max RMSD: 0.067
# Mean RMSD: 0.067
data_MOF--net-wjf--node1-QUQFOY_clean_sbu_1--edge1-MIFKUJ_clean_linker_0
_symmetry_space_group_name_H-M    P1
_symmetry_Int_Tables_number       1
_symmetry_cell_setting            triclinic
loop_
_symmetry_equiv_pos_as_xyz
'x, y, z'
_cell_length_a     69.132351
_cell_length_b     69.161553
_cell_length_c     37.159943
_cell_angle_alpha  89.952331
_cell_angle_beta   90.181387
_cell_angle_gamma 119.90763
loop_
_atom_site_label
_atom_site_type_symbol
_atom_site_fract_x
_atom_site_fract_y
_atom_site_fract_z
_atom_type_partial_charge
O0 O 0.33601 0.38557 0.02136 0.0
Cd1 Cd 0.34046 0.40797 0.06099 0.0
Cd2 Cd 0.34857 0.37616 0.09775 0.0
O3 O 0.33686 0.35806 0.05005 0.0
O4 O 0.33061 0.42658 0.03408 0.0
O5 O 0.31285 0.40683 0.08187 0.0
C6 C 0.31376 0.41934 0.05535 0.0
C7 C 0.33838 0.35953 0.1548 0.0
C8 C 0.33412 0.36635 0.02118 0.0
C9 C 0.38669 0.42418 0.08865 0.0
O10 O 0.38012 0.404 0.09706 0.0
O11 O 0.3731 0.42981 0.0759 0.0
O12 O 0.3514 0.3563 0.13401 0.0
O13 O 0.32999 0.37123 0.14232 0.0
O14 O 0.95194 0.34219 0.35196 0.0
Cd15 Cd 0.93349 0.341 0.3961 0.0
Cd16 Cd 0.97021 0.34465 0.42809 0.0
O17 O 0.97469 0.33304 0.37894 0.0
O18 O 0.90296 0.32976 0.37566 0.0
O19 O 0.91088 0.31054 0.41463 0.0
C20 C 0.89657 0.31153 0.39335 0.0
C21 C 0.97501 0.33203 0.4841 0.0
C22 C 0.96673 0.33645 0.35026 0.0
C23 C 0.96322 0.38445 0.42905 0.0
O24 O 0.97704 0.37738 0.42994 0.0
O25 O 0.94296 0.37127 0.42052 0.0
O26 O 0.99175 0.34409 0.46348 0.0
O27 O 0.95524 0.32577 0.47177 0.0
O28 O 0.62218 0.95203 0.69779 0.0
Cd29 Cd 0.59935 0.93353 0.73666 0.0
Cd30 Cd 0.62881 0.97302 0.77552 0.0
O31 O 0.64756 0.98087 0.72874 0.0
O32 O 0.58164 0.90423 0.71169 0.0
O33 O 0.60268 0.90872 0.75926 0.0
C34 C 0.59003 0.89599 0.73371 0.0
C35 C 0.64508 0.97999 0.83299 0.0
C36 C 0.64078 0.97006 0.69935 0.0
C37 C 0.58069 0.96175 0.76359 0.0
O38 O 0.60044 0.97565 0.77362 0.0
O39 O 0.57618 0.94303 0.75011 0.0
O40 O 0.6477 0.99598 0.81207 0.0
O41 O 0.63419 0.95989 0.82047 0.0
O42 O 0.67704 0.62116 0.03137 0.0
Cd43 Cd 0.67105 0.5957 0.06613 0.0
Cd44 Cd 0.65923 0.62458 0.1084 0.0
O45 O 0.66931 0.64386 0.06201 0.0
O46 O 0.68152 0.57917 0.03515 0.0
O47 O 0.69776 0.59464 0.08666 0.0
C48 C 0.69752 0.58423 0.05767 0.0
C49 C 0.66729 0.64104 0.16577 0.0
C50 C 0.67578 0.63883 0.0333 0.0
C51 C 0.62376 0.57602 0.09323 0.0
O52 O 0.6293 0.59507 0.10631 0.0
O53 O 0.63796 0.57254 0.07705 0.0
O54 O 0.65319 0.64228 0.14453 0.0
O55 O 0.67782 0.63134 0.15374 0.0
O56 O 0.0541 0.66158 0.35009 0.0
Cd57 Cd 0.07267 0.66357 0.39482 0.0
Cd58 Cd 0.0353 0.65887 0.4253 0.0
O59 O 0.03091 0.6704 0.37601 0.0
O60 O 0.10328 0.67513 0.37484 0.0
O61 O 0.0949 0.69437 0.41285 0.0
C62 C 0.10937 0.69347 0.39203 0.0
C63 C 0.02921 0.67066 0.48102 0.0
C64 C 0.03908 0.66699 0.34771 0.0
C65 C 0.0435 0.61995 0.42733 0.0
O66 O 0.02918 0.62638 0.42689 0.0
O67 O 0.06381 0.63365 0.42003 0.0
O68 O 0.01294 0.65854 0.45951 0.0
O69 O 0.04927 0.67747 0.46977 0.0
O70 O 0.38651 0.05693 0.69018 0.0
Cd71 Cd 0.40989 0.07512 0.72867 0.0
Cd72 Cd 0.37968 0.03414 0.76702 0.0
O73 O 0.36195 0.02652 0.71883 0.0
O74 O 0.42794 0.10377 0.7022 0.0
O75 O 0.40843 0.1012 0.75058 0.0
C76 C 0.42073 0.11309 0.72419 0.0
C77 C 0.36171 0.02535 0.8231 0.0
C78 C 0.36845 0.03834 0.69042 0.0
C79 C 0.42838 0.04665 0.75665 0.0
O80 O 0.40881 0.03284 0.76736 0.0
O81 O 0.43263 0.06492 0.74172 0.0
O82 O 0.36037 0.0101 0.80166 0.0
O83 O 0.37232 0.04574 0.81187 0.0
O84 O 0.61568 0.66933 0.67235 0.0
Cd85 Cd 0.59703 0.66686 0.62744 0.0
Cd86 Cd 0.62851 0.6584 0.59821 0.0
O87 O 0.64496 0.67042 0.64676 0.0
O88 O 0.57779 0.67861 0.64579 0.0
O89 O 0.60387 0.69614 0.60477 0.0
C90 C 0.58903 0.69599 0.626 0.0
C91 C 0.6454 0.66929 0.54182 0.0
C92 C 0.63523 0.67204 0.67465 0.0
C93 C 0.58098 0.62085 0.59985 0.0
O94 O 0.60151 0.62658 0.59813 0.0
O95 O 0.57523 0.63521 0.60753 0.0
O96 O 0.64965 0.65712 0.56311 0.0
O97 O 0.63268 0.67662 0.55366 0.0
O98 O 0.95054 0.61451 0.98751 0.0
Cd99 Cd 0.93351 0.5933 0.94572 0.0
Cd100 Cd 0.97361 0.62578 0.91302 0.0
O101 O 0.97844 0.64328 0.96063 0.0
O102 O 0.90476 0.57368 0.97083 0.0
O103 O 0.90729 0.59507 0.92496 0.0
C104 C 0.8954 0.58166 0.95034 0.0
C105 C 0.98 0.64264 0.85627 0.0
C106 C 0.96724 0.6341 0.98887 0.0
C107 C 0.96455 0.57815 0.91943 0.0
O108 O 0.97855 0.5987 0.91464 0.0
O109 O 0.94457 0.57198 0.9286 0.0
O110 O 0.99624 0.64636 0.87762 0.0
O111 O 0.9599 0.63021 0.86799 0.0
O112 O 0.33488 0.94624 0.33003 0.0
Cd113 Cd 0.33818 0.92992 0.28627 0.0
Cd114 Cd 0.34487 0.96897 0.25502 0.0
O115 O 0.33283 0.97365 0.30326 0.0
O116 O 0.32732 0.89946 0.30633 0.0
O117 O 0.30935 0.90651 0.2637 0.0
C118 C 0.30991 0.89251 0.28615 0.0
C119 C 0.33359 0.97449 0.19831 0.0
C120 C 0.33161 0.96273 0.33156 0.0
C121 C 0.38387 0.96084 0.25917 0.0
O122 O 0.37711 0.97478 0.2557 0.0
O123 O 0.37025 0.94069 0.26769 0.0
O124 O 0.3457 0.99101 0.21939 0.0
O125 O 0.3266 0.95456 0.21044 0.0
O126 O 0.39386 0.34113 0.66307 0.0
Cd127 Cd 0.41165 0.3418 0.61841 0.0
Cd128 Cd 0.37811 0.34587 0.58814 0.0
O129 O 0.36201 0.33286 0.63688 0.0
O130 O 0.43162 0.33138 0.6388 0.0
O131 O 0.40556 0.31214 0.5983 0.0
C132 C 0.4207 0.31337 0.62018 0.0
C133 C 0.36091 0.33434 0.5317 0.0
C134 C 0.37333 0.33525 0.66528 0.0
C135 C 0.42464 0.38599 0.58864 0.0
O136 O 0.40373 0.37874 0.58798 0.0
O137 O 0.43195 0.37281 0.59592 0.0
O138 O 0.35592 0.34573 0.55339 0.0
O139 O 0.37465 0.32811 0.54311 0.0
O140 O 0.05642 0.38377 0.99097 0.0
Cd141 Cd 0.07366 0.4049 0.9492 0.0
Cd142 Cd 0.03312 0.3726 0.91648 0.0
O143 O 0.02814 0.35517 0.96417 0.0
O144 O 0.10253 0.42413 0.97459 0.0
O145 O 0.09973 0.40302 0.92816 0.0
C146 C 0.11175 0.41624 0.95373 0.0
C147 C 0.0252 0.35543 0.85975 0.0
C148 C 0.03945 0.36434 0.99243 0.0
C149 C 0.04289 0.4205 0.923 0.0
O150 O 0.02872 0.39997 0.91837 0.0
O151 O 0.06291 0.42654 0.93199 0.0
O152 O 0.00955 0.35217 0.88191 0.0
O153 O 0.04559 0.36749 0.87063 0.0
O154 O 0.67094 0.06038 0.33914 0.0
Cd155 Cd 0.6664 0.07524 0.29441 0.0
Cd156 Cd 0.65923 0.03546 0.26603 0.0
O157 O 0.67222 0.03205 0.31438 0.0
O158 O 0.67739 0.10619 0.31229 0.0
O159 O 0.69471 0.09813 0.27011 0.0
C160 C 0.69445 0.11267 0.29163 0.0
C161 C 0.66995 0.02932 0.2095 0.0
C162 C 0.67425 0.04394 0.34178 0.0
C163 C 0.62022 0.04342 0.26928 0.0
O164 O 0.62692 0.02939 0.26689 0.0
O165 O 0.63396 0.06376 0.27658 0.0
O166 O 0.65835 0.01306 0.23127 0.0
O167 O 0.6768 0.04938 0.22087 0.0
H168 H 0.35463 0.33531 0.18809 0.0
H169 H 0.35325 0.32659 0.25195 0.0
H170 H 0.31327 0.35739 0.27177 0.0
H171 H 0.31492 0.36655 0.20774 0.0
H172 H 0.34704 0.37247 0.31784 0.0
H173 H 0.29132 0.29999 0.27799 0.0
H174 H 0.27544 0.26605 0.24052 0.0
H175 H 0.32666 0.25271 0.2768 0.0
H176 H 0.34305 0.28675 0.31414 0.0
H177 H 0.33097 0.34441 0.50135 0.0
H178 H 0.32225 0.34406 0.43756 0.0
H179 H 0.36453 0.31664 0.41195 0.0
H180 H 0.37315 0.31667 0.47599 0.0
H181 H 0.32722 0.29866 0.36933 0.0
H182 H 0.38435 0.37195 0.40514 0.0
H183 H 0.40108 0.4061 0.44218 0.0
H184 H 0.34788 0.41807 0.41249 0.0
H185 H 0.33065 0.38379 0.37566 0.0
C186 C 0.34523 0.33994 0.20587 0.0
C187 C 0.3349 0.35166 0.19272 0.0
C188 C 0.34437 0.33484 0.24248 0.0
C189 C 0.33302 0.34117 0.2668 0.0
C190 C 0.32213 0.35231 0.25358 0.0
C191 C 0.323 0.35745 0.2169 0.0
C192 C 0.33394 0.33761 0.30623 0.0
C193 C 0.34225 0.35622 0.32912 0.0
C194 C 0.32837 0.31655 0.32098 0.0
C195 C 0.31852 0.29603 0.29865 0.0
C196 C 0.2993 0.28991 0.27778 0.0
C197 C 0.29019 0.27064 0.2566 0.0
C198 C 0.30006 0.25726 0.25622 0.0
C199 C 0.31904 0.2631 0.2771 0.0
C200 C 0.32823 0.28237 0.29831 0.0
C201 C 0.33815 0.33794 0.48228 0.0
C202 C 0.35293 0.33074 0.49381 0.0
C203 C 0.33321 0.33785 0.44574 0.0
C204 C 0.34307 0.33074 0.41984 0.0
C205 C 0.35679 0.3223 0.43141 0.0
C206 C 0.36171 0.32232 0.46805 0.0
C207 C 0.34022 0.33349 0.38074 0.0
C208 C 0.33172 0.31482 0.35798 0.0
C209 C 0.3457 0.35451 0.36598 0.0
C210 C 0.35608 0.37518 0.38797 0.0
C211 C 0.37612 0.38177 0.40674 0.0
C212 C 0.38571 0.40116 0.42766 0.0
C213 C 0.37551 0.41421 0.42977 0.0
C214 C 0.35574 0.40792 0.41088 0.0
C215 C 0.34606 0.38852 0.38997 0.0
H216 H 0.38297 0.42922 0.44597 0.0
H217 H 0.29298 0.24235 0.23981 0.0
H218 H 0.01463 0.3427 0.51657 0.0
H219 H 0.02163 0.34099 0.58055 0.0
H220 H 0.9511 0.31029 0.60178 0.0
H221 H 0.94397 0.31223 0.53763 0.0
H222 H 0.97427 0.34491 0.64534 0.0
H223 H 0.97929 0.28102 0.61086 0.0
H224 H 0.99231 0.25962 0.57538 0.0
H225 H 0.05976 0.30421 0.60891 0.0
H226 H 0.04719 0.32608 0.64422 0.0
H227 H 0.98386 0.32956 0.83022 0.0
H228 H 0.97444 0.32042 0.76682 0.0
H229 H 0.04438 0.35403 0.74007 0.0
H230 H 0.05402 0.36312 0.80375 0.0
H231 H 0.02015 0.31566 0.69997 0.0
H232 H 0.01574 0.38082 0.73044 0.0
H233 H 1.00331 0.40288 0.76548 0.0
H234 H 0.93511 0.35635 0.73846 0.0
H235 H 0.94713 0.33382 0.70367 0.0
C236 C 1.00052 0.33519 0.53469 0.0
C237 C 0.97872 0.32764 0.52191 0.0
C238 C 0.00456 0.33415 0.57136 0.0
C239 C 0.9869 0.32541 0.5961 0.0
C240 C 0.96501 0.3171 0.58324 0.0
C241 C 0.96094 0.31811 0.54651 0.0
C242 C 0.9915 0.32669 0.6355 0.0
C243 C 0.98391 0.33808 0.65734 0.0
C244 C 0.00468 0.31843 0.65112 0.0
C245 C 0.01231 0.3053 0.62995 0.0
C246 C 0.99692 0.28637 0.61045 0.0
C247 C 0.00422 0.27414 0.59041 0.0
C248 C 0.02685 0.28058 0.58983 0.0
C249 C 0.04223 0.29925 0.60936 0.0
C250 C 0.03503 0.31156 0.62943 0.0
C251 C 0.9973 0.33475 0.811 0.0
C252 C 0.01972 0.34725 0.82208 0.0
C253 C 0.99185 0.32956 0.77468 0.0
C254 C 0.00868 0.33686 0.74857 0.0
C255 C 0.03111 0.34828 0.75972 0.0
C256 C 0.03659 0.35349 0.79615 0.0
C257 C 1.00283 0.33378 0.7096 0.0
C258 C 0.01029 0.32222 0.6879 0.0
C259 C 0.98958 0.34195 0.69398 0.0
C260 C 0.98232 0.3555 0.71479 0.0
C261 C 0.99808 0.37519 0.73222 0.0
C262 C 0.99111 0.3878 0.75199 0.0
C263 C 0.96843 0.38099 0.75428 0.0
C264 C 0.95267 0.36158 0.73671 0.0
C265 C 0.95955 0.34889 0.71695 0.0
H266 H 0.96307 0.39078 0.76959 0.0
H267 H 0.03247 0.27108 0.5743 0.0
H268 H 0.66912 0.02062 0.86556 0.0
H269 H 0.67745 0.02836 0.92949 0.0
H270 H 0.64637 0.95783 0.95097 0.0
H271 H 0.63769 0.9499 0.88683 0.0
H272 H 0.63097 0.97764 0.99536 0.0
H273 H 0.70333 0.99225 0.95782 0.0
H274 H 0.73742 0.00947 0.92085 0.0
H275 H 0.75177 0.07457 0.9552 0.0
H276 H 0.71758 0.05776 0.99201 0.0
H277 H 0.65838 0.98901 0.17919 0.0
H278 H 0.65835 0.98054 0.11543 0.0
H279 H 0.68793 0.05043 0.08981 0.0
H280 H 0.68826 0.05911 0.15382 0.0
H281 H 0.70504 0.03017 0.04788 0.0
H282 H 0.63245 0.01672 0.08152 0.0
H283 H 0.59803 1.00061 0.11771 0.0
H284 H 0.58379 0.93458 0.08956 0.0
H285 H 0.61827 0.9503 0.05354 0.0
C286 C 0.66434 0.00672 0.88374 0.0
C287 C 0.6527 0.98461 0.87102 0.0
C288 C 0.66921 0.0112 0.92036 0.0
C289 C 0.66267 0.9937 0.94512 0.0
C290 C 0.6516 0.97162 0.93238 0.0
C291 C 0.64674 0.96711 0.89568 0.0
C292 C 0.66604 0.99844 0.98445 0.0
C293 C 0.64725 0.98878 1.00691 0.0
C294 C 0.68716 0.01358 0.99943 0.0
C295 C 0.70778 0.02374 0.97745 0.0
C296 C 0.71366 0.01025 0.95728 0.0
C297 C 0.73302 0.01993 0.9364 0.0
C298 C 0.74673 0.0431 0.93562 0.0
C299 C 0.74113 0.05663 0.95581 0.0
C300 C 0.72177 0.04703 0.97672 0.0
C301 C 0.66522 0.00266 0.16012 0.0
C302 C 0.67317 0.02474 0.17163 0.0
C303 C 0.66509 0.99776 0.1236 0.0
C304 C 0.67273 0.01479 0.09773 0.0
C305 C 0.68185 0.037 0.10927 0.0
C306 C 0.68203 0.04194 0.14589 0.0
C307 C 0.67 0.00924 0.05868 0.0
C308 C 0.68883 0.01884 0.0363 0.0
C309 C 0.64888 0.99419 0.04363 0.0
C310 C 0.62807 0.98469 0.06516 0.0
C311 C 0.62207 0.99876 0.08327 0.0
C312 C 0.60253 0.9897 0.10372 0.0
C313 C 0.58878 0.96659 0.10604 0.0
C314 C 0.59448 0.95248 0.08779 0.0
C315 C 0.61401 0.96146 0.06734 0.0
H316 H 0.57368 0.95959 0.12191 0.0
H317 H 0.76171 0.05057 0.91942 0.0
H318 H 0.6472 0.66203 0.19736 0.0
H319 H 0.64761 0.67121 0.26083 0.0
H320 H 0.69267 0.64659 0.28375 0.0
H321 H 0.69249 0.63747 0.21997 0.0
H322 H 0.63284 0.64223 0.3159 0.0
H323 H 0.72416 0.67427 0.35872 0.0
H324 H 0.76198 0.69445 0.33278 0.0
H325 H 0.74022 0.72649 0.25677 0.0
H326 H 0.70236 0.70673 0.28255 0.0
H327 H 0.67504 0.65899 0.51111 0.0
H328 H 0.68255 0.65839 0.44696 0.0
H329 H 0.63986 0.68553 0.42215 0.0
H330 H 0.63225 0.6862 0.48629 0.0
H331 H 0.69942 0.68922 0.39133 0.0
H332 H 0.60723 0.65611 0.35049 0.0
H333 H 0.56959 0.63412 0.37661 0.0
H334 H 0.59348 0.60199 0.44858 0.0
H335 H 0.63117 0.62359 0.42262 0.0
C336 C 0.65748 0.65884 0.21574 0.0
C337 C 0.66979 0.64896 0.20353 0.0
C338 C 0.65762 0.66404 0.2521 0.0
C339 C 0.67017 0.65963 0.27713 0.0
C340 C 0.68305 0.6504 0.26491 0.0
C341 C 0.6829 0.64516 0.22843 0.0
C342 C 0.66859 0.66345 0.31617 0.0
C343 C 0.64739 0.65283 0.3322 0.0
C344 C 0.68761 0.67664 0.33781 0.0
C345 C 0.71037 0.68883 0.32234 0.0
C346 C 0.72747 0.68568 0.33655 0.0
C347 C 0.74891 0.69704 0.32186 0.0
C348 C 0.75348 0.71169 0.29307 0.0
C349 C 0.73663 0.71507 0.27898 0.0
C350 C 0.71517 0.70376 0.29358 0.0
C351 C 0.66756 0.66523 0.49207 0.0
C352 C 0.65291 0.67251 0.50382 0.0
C353 C 0.67192 0.6649 0.4554 0.0
C354 C 0.66153 0.67161 0.42973 0.0
C355 C 0.64786 0.68003 0.44149 0.0
C356 C 0.64361 0.68052 0.47819 0.0
C357 C 0.66367 0.66829 0.39073 0.0
C358 C 0.6849 0.67881 0.37485 0.0
C359 C 0.64472 0.6548 0.36919 0.0
C360 C 0.62207 0.64168 0.38489 0.0
C361 C 0.60443 0.64433 0.37185 0.0
C362 C 0.58309 0.63194 0.38663 0.0
C363 C 0.57917 0.61674 0.41434 0.0
C364 C 0.59656 0.61385 0.42725 0.0
C365 C 0.61792 0.6262 0.41256 0.0
H366 H 0.56264 0.60716 0.42573 0.0
H367 H 0.77008 0.72045 0.28172 0.0
H368 H 0.02054 0.66775 0.82411 0.0
H369 H 0.02813 0.67715 0.76054 0.0
H370 H 0.95747 0.64548 0.73904 0.0
H371 H 0.9497 0.63559 0.80276 0.0
H372 H 0.97688 0.63129 0.69326 0.0
H373 H 0.99226 0.70318 0.7344 0.0
H374 H 0.00972 0.7368 0.77265 0.0
H375 H 0.07466 0.75127 0.73732 0.0
H376 H 0.05761 0.71756 0.69922 0.0
H377 H 0.98905 0.66028 0.51048 0.0
H378 H 0.98042 0.66041 0.5741 0.0
H379 H 0.05008 0.68861 0.60091 0.0
H380 H 0.05893 0.68883 0.53704 0.0
H381 H 0.03008 0.70579 0.64351 0.0
H382 H 0.01546 0.63317 0.60663 0.0
H383 H 0.9988 0.59928 0.56898 0.0
H384 H 0.93313 0.58597 0.59748 0.0
H385 H 0.94942 0.61999 0.6349 0.0
C386 C 0.00657 0.66307 0.80602 0.0
C387 C 0.98448 0.65087 0.81858 0.0
C388 C 0.01097 0.66857 0.76959 0.0
C389 C 0.9934 0.6622 0.74489 0.0
C390 C 0.97132 0.6506 0.75755 0.0
C391 C 0.9669 0.64504 0.79403 0.0
C392 C 0.99805 0.66614 0.70562 0.0
C393 C 0.98815 0.64769 0.68235 0.0
C394 C 0.01334 0.68739 0.69138 0.0
C395 C 0.02365 0.70773 0.71417 0.0
C396 C 0.01027 0.71344 0.73499 0.0
C397 C 0.0201 0.73253 0.75661 0.0
C398 C 0.04329 0.74614 0.75747 0.0
C399 C 0.0567 0.7407 0.73665 0.0
C400 C 0.04696 0.72162 0.715 0.0
C401 C 1.00263 0.6669 0.52979 0.0
C402 C 0.02467 0.67436 0.51866 0.0
C403 C 0.99764 0.66687 0.56622 0.0
C404 C 0.01453 0.67409 0.59239 0.0
C405 C 0.03675 0.68286 0.58122 0.0
C406 C 0.04179 0.68298 0.54468 0.0
C407 C 0.00879 0.67098 0.63135 0.0
C408 C 0.01859 0.68949 0.65449 0.0
C409 C 0.99349 0.64976 0.64562 0.0
C410 C 0.98366 0.62925 0.62324 0.0
C411 C 0.99746 0.62311 0.60463 0.0
C412 C 0.98809 0.60386 0.58337 0.0
C413 C 0.96492 0.59051 0.58075 0.0
C414 C 0.95107 0.59635 0.59948 0.0
C415 C 0.96037 0.61561 0.62073 0.0
H416 H 0.95769 0.57561 0.56429 0.0
H417 H 0.05086 0.76091 0.77423 0.0
H418 H 0.31346 0.94375 0.14425 0.0
H419 H 0.31278 0.95124 0.07998 0.0
H420 H 0.34542 0.02183 0.10184 0.0
H421 H 0.34591 0.0145 0.16604 0.0
H422 H 0.31454 0.01054 0.04889 0.0
H423 H 0.3755 0.99802 0.07602 0.0
H424 H 0.39302 0.97716 0.10009 0.0
H425 H 0.35365 0.92288 0.0281 0.0
H426 H 0.33565 0.9433 1.00395 0.0
H427 H 0.36708 0.05379 0.87867 0.0
H428 H 0.35694 0.044 0.94186 0.0
H429 H 0.32674 0.97417 0.91513 0.0
H430 H 0.33709 0.98382 0.85221 0.0
H431 H 0.35425 0.98384 0.97022 0.0
H432 H 0.29515 0.99821 0.93991 0.0
H433 H 0.2786 0.01997 0.91587 0.0
H434 H 0.31538 0.0717 0.99327 0.0
H435 H 0.33239 0.05038 0.01747 0.0
C436 C 0.32011 0.96084 0.13548 0.0
C437 C 0.32991 0.97853 0.1603 0.0
C438 C 0.31981 0.96511 0.09868 0.0
C439 C 0.3294 0.98714 0.08597 0.0
C440 C 0.33799 0.00472 0.11093 0.0
C441 C 0.3383 1.00047 0.14769 0.0
C442 C 0.33196 0.99203 0.04668 0.0
C443 C 0.32334 0.00484 0.03169 0.0
C444 C 0.3432 0.98435 0.02409 0.0
C445 C 0.35405 0.97207 0.03848 0.0
C446 C 0.37045 0.98156 0.06553 0.0
C447 C 0.38049 0.96983 0.07915 0.0
C448 C 0.3744 0.94868 0.06571 0.0
C449 C 0.35831 0.93924 0.03854 0.0
C450 C 0.34819 0.95089 0.02486 0.0
C451 C 0.35793 0.03634 0.88614 0.0
C452 C 0.35296 0.0196 0.86036 0.0
C453 C 0.35209 0.03075 0.92231 0.0
C454 C 0.341 0.00831 0.93335 0.0
C455 C 0.33535 0.99159 0.90737 0.0
C456 C 0.34122 0.99715 0.87132 0.0
C457 C 0.3367 0.00226 0.97218 0.0
C458 C 0.34518 0.98934 0.9872 0.0
C459 C 0.32544 0.00994 0.99472 0.0
C460 C 0.3152 0.02278 0.98029 0.0
C461 C 0.29984 0.0143 0.95162 0.0
C462 C 0.29035 0.02654 0.938 0.0
C463 C 0.29598 0.04723 0.95297 0.0
C464 C 0.31106 0.05568 0.98167 0.0
C465 C 0.32061 0.04352 0.99538 0.0
H466 H 0.28861 0.05668 0.94239 0.0
H467 H 0.3822 0.93963 0.07628 0.0
H468 H 0.13369 0.42899 0.01754 0.0
H469 H 0.16924 0.43215 0.03357 0.0
H470 H 0.17752 0.41676 0.92406 0.0
H471 H 0.14089 0.41207 0.90848 0.0
H472 H 0.18972 0.3957 0.9636 0.0
H473 H 0.20905 0.47178 0.96528 0.0
H474 H 0.20608 0.50494 0.98014 0.0
H475 H 0.21349 0.49549 0.09249 0.0
H476 H 0.21622 0.46208 0.07836 0.0
H477 H 0.30636 0.43489 0.99254 0.0
H478 H 0.27335 0.437 0.97516 0.0
H479 H 0.24568 0.41499 0.08095 0.0
H480 H 0.27853 0.41218 0.09846 0.0
H481 H 0.24535 0.45662 0.0411 0.0
H482 H 0.2239 0.37743 0.03307 0.0
H483 H 0.23051 0.34739 0.0121 0.0
H484 H 0.23145 0.36766 0.90256 0.0
H485 H 0.22518 0.39804 0.92298 0.0
C486 C 0.14319 0.42657 0.99667 0.0
C487 C 0.13456 0.42047 0.96162 0.0
C488 C 0.16368 0.42852 1.00586 0.0
C489 C 0.17651 0.42521 0.97995 0.0
C490 C 0.16806 0.41947 0.94464 0.0
C491 C 0.14718 0.41692 0.93565 0.0
C492 C 0.19809 0.42662 0.99036 0.0
C493 C 0.20193 0.40925 0.98011 0.0
C494 C 0.21425 0.44419 0.0121 0.0
C495 C 0.21265 0.4643 0.02076 0.0
C496 C 0.20989 0.47667 0.99318 0.0
C497 C 0.20828 0.49553 1.00147 0.0
C498 C 0.20955 0.50228 0.03724 0.0
C499 C 0.21249 0.49022 0.06479 0.0
C500 C 0.2141 0.47134 0.05666 0.0
C501 C 0.29344 0.43079 0.01239 0.0
C502 C 0.29507 0.42334 0.04694 0.0
C503 C 0.27457 0.43196 1.00231 0.0
C504 C 0.25712 0.42608 0.02673 0.0
C505 C 0.25905 0.41961 0.06178 0.0
C506 C 0.27778 0.41801 0.07171 0.0
C507 C 0.23643 0.42561 0.01482 0.0
C508 C 0.23295 0.44319 0.02461 0.0
C509 C 0.22095 0.40864 0.99183 0.0
C510 C 0.22432 0.39014 0.97958 0.0
C511 C 0.22572 0.3756 1.00455 0.0
C512 C 0.22936 0.35849 0.99276 0.0
C513 C 0.23148 0.35566 0.95602 0.0
C514 C 0.22985 0.36988 0.931 0.0
C515 C 0.22623 0.38704 0.94267 0.0
H516 H 0.23431 0.34241 0.94695 0.0
H517 H 0.20829 0.51689 0.0436 0.0
H518 H 0.87997 0.26876 0.41818 0.0
H519 H 0.84509 0.23558 0.40019 0.0
H520 H 0.82784 0.27651 0.33522 0.0
H521 H 0.86273 0.3096 0.35252 0.0
H522 H 0.80202 0.22122 0.40619 0.0
H523 H 0.8024 0.2498 0.25915 0.0
H524 H 0.82926 0.27207 0.21171 0.0
H525 H 0.87885 0.26035 0.2607 0.0
H526 H 0.85232 0.23806 0.30825 0.0
H527 H 0.69722 0.14749 0.33037 0.0
H528 H 0.73095 0.18212 0.34663 0.0
H529 H 0.77026 0.16315 0.28125 0.0
H530 H 0.73645 0.12864 0.26422 0.0
H531 H 0.78593 0.20633 0.27571 0.0
H532 H 0.76602 0.15457 0.37256 0.0
H533 H 0.74125 0.12806 0.41843 0.0
H534 H 0.73485 0.18029 0.46934 0.0
H535 H 0.75931 0.20705 0.42342 0.0
C536 C 0.86861 0.27073 0.40042 0.0
C537 C 0.87422 0.29183 0.38663 0.0
C538 C 0.84868 0.25173 0.39012 0.0
C539 C 0.83399 0.25345 0.36579 0.0
C540 C 0.83909 0.27466 0.35339 0.0
C541 C 0.85901 0.29361 0.36353 0.0
C542 C 0.81368 0.23309 0.35258 0.0
C543 C 0.79848 0.21803 0.37767 0.0
C544 C 0.80921 0.22853 0.31536 0.0
C545 C 0.82546 0.24248 0.28742 0.0
C546 C 0.81907 0.25206 0.2598 0.0
C547 C 0.83424 0.2647 0.2329 0.0
C548 C 0.85578 0.26772 0.23323 0.0
C549 C 0.86223 0.25818 0.26054 0.0
C550 C 0.84716 0.24559 0.28754 0.0
C551 C 0.71298 0.15085 0.3189 0.0
C552 C 0.71416 0.13522 0.29615 0.0
C553 C 0.73229 0.1706 0.32846 0.0
C554 C 0.75323 0.17502 0.31588 0.0
C555 C 0.75431 0.16006 0.29149 0.0
C556 C 0.73495 0.14034 0.28169 0.0
C557 C 0.77405 0.19472 0.32928 0.0
C558 C 0.78936 0.20963 0.30424 0.0
C559 C 0.77891 0.19876 0.36653 0.0
C560 C 0.76432 0.18276 0.39434 0.0
C561 C 0.7592 0.16036 0.39339 0.0
C562 C 0.74523 0.1453 0.41941 0.0
C563 C 0.73644 0.15247 0.44673 0.0
C564 C 0.74165 0.17475 0.44813 0.0
C565 C 0.75557 0.18988 0.42212 0.0
H566 H 0.72563 0.14078 0.46686 0.0
H567 H 0.86741 0.27733 0.21218 0.0
H568 H 0.6135 0.87753 0.76326 0.0
H569 H 0.6126 0.84316 0.7444 0.0
H570 H 0.559 0.82932 0.6704 0.0
H571 H 0.56021 0.86385 0.6884 0.0
H572 H 0.58424 0.80026 0.74411 0.0
H573 H 0.56509 0.80699 0.59353 0.0
H574 H 0.57142 0.83619 0.54929 0.0
H575 H 0.62824 0.88411 0.60975 0.0
H576 H 0.62246 0.85514 0.65403 0.0
H577 H 0.55588 0.69854 0.66147 0.0
H578 H 0.55506 0.73219 0.67858 0.0
H579 H 0.61642 0.77243 0.62088 0.0
H580 H 0.61704 0.73868 0.60287 0.0
H581 H 0.59039 0.78973 0.61337 0.0
H582 H 0.61652 0.76533 0.71239 0.0
H583 H 0.61592 0.73877 0.75732 0.0
H584 H 0.55504 0.73092 0.80129 0.0
H585 H 0.55512 0.75721 0.75628 0.0
C586 C 0.60129 0.86698 0.74339 0.0
C587 C 0.58706 0.87352 0.72712 0.0
C588 C 0.60081 0.84735 0.73257 0.0
C589 C 0.58607 0.83387 0.70537 0.0
C590 C 0.57091 0.8397 0.69077 0.0
C591 C 0.57152 0.85939 0.7013 0.0
C592 C 0.58706 0.81422 0.69128 0.0
C593 C 0.58551 0.79795 0.71553 0.0
C594 C 0.5894 0.81145 0.65403 0.0
C595 C 0.59317 0.82893 0.62729 0.0
C596 C 0.57898 0.82374 0.5973 0.0
C597 C 0.58247 0.84025 0.57223 0.0
C598 C 0.60017 0.862 0.57678 0.0
C599 C 0.61449 0.86727 0.60633 0.0
C600 C 0.61109 0.85082 0.63144 0.0
C601 C 0.56901 0.71451 0.65187 0.0
C602 C 0.58662 0.71594 0.631 0.0
C603 C 0.5686 0.73377 0.66191 0.0
C604 C 0.58597 0.75491 0.6518 0.0
C605 C 0.6029 0.75632 0.62922 0.0
C606 C 0.60321 0.73701 0.61886 0.0
C607 C 0.58694 0.77549 0.66612 0.0
C608 C 0.58896 0.79198 0.64193 0.0
C609 C 0.58579 0.77883 0.70352 0.0
C610 C 0.58572 0.76308 0.73075 0.0
C611 C 0.60292 0.75782 0.73148 0.0
C612 C 0.60269 0.74283 0.75698 0.0
C613 C 0.58543 0.73312 0.78209 0.0
C614 C 0.56839 0.73843 0.78179 0.0
C615 C 0.56853 0.75339 0.75632 0.0
H616 H 0.58528 0.72153 0.80181 0.0
H617 H 0.60283 0.87476 0.55736 0.0
H618 H 0.70747 0.57473 0.99173 0.0
H619 H 0.73959 0.57149 0.97443 0.0
H620 H 0.76146 0.58047 0.08519 0.0
H621 H 0.72971 0.58503 0.10239 0.0
H622 H 0.7955 0.60352 0.04706 0.0
H623 H 0.73785 0.52801 0.03772 0.0
H624 H 0.70159 0.49607 0.01974 0.0
H625 H 0.71966 0.51008 0.9084 0.0
H626 H 0.75592 0.5423 0.92569 0.0
H627 H 0.87179 0.5639 0.01174 0.0
H628 H 0.83678 0.56169 0.02962 0.0
H629 H 0.83237 0.58775 0.92647 0.0
H630 H 0.86796 0.59069 0.90852 0.0
H631 H 0.78983 0.54531 0.96265 0.0
H632 H 0.84788 0.62359 0.97746 0.0
H633 H 0.88459 0.65263 0.99998 0.0
H634 H 0.86519 0.62887 0.108 0.0
H635 H 0.82843 0.59945 0.08598 0.0
C636 C 0.71893 0.57574 0.01257 0.0
C637 C 0.71593 0.57998 0.04853 0.0
C638 C 0.73731 0.57375 1.00262 0.0
C639 C 0.75286 0.57526 0.02851 0.0
C640 C 0.74972 0.57917 0.06463 0.0
C641 C 0.73151 0.58166 0.07451 0.0
C642 C 0.77287 0.57387 0.01737 0.0
C643 C 0.79408 0.59055 0.02902 0.0
C644 C 0.77133 0.55708 0.99357 0.0
C645 C 0.74954 0.5377 0.98301 0.0
C646 C 0.73403 0.52438 0.00939 0.0
C647 C 0.71349 0.50621 0.99932 0.0
C648 C 0.70831 0.50108 0.96295 0.0
C649 C 0.72369 0.51408 0.93656 0.0
C650 C 0.74425 0.53229 0.94648 0.0
C651 C 0.86327 0.56887 0.99254 0.0
C652 C 0.87268 0.57749 0.95865 0.0
C653 C 0.84328 0.56763 1.00291 0.0
C654 C 0.83211 0.57463 0.97942 0.0
C655 C 0.84082 0.58226 0.94492 0.0
C656 C 0.86111 0.58393 0.93473 0.0
C657 C 0.81201 0.57507 0.99188 0.0
C658 C 0.79095 0.55817 0.98067 0.0
C659 C 0.81362 0.59127 0.01671 0.0
C660 C 0.83552 0.60918 0.03002 0.0
C661 C 0.85152 0.62444 1.00596 0.0
C662 C 0.87231 0.64099 0.01864 0.0
C663 C 0.87725 0.64255 0.05538 0.0
C664 C 0.86135 0.62762 0.07954 0.0
C665 C 0.84053 0.61102 0.06698 0.0
H666 H 0.89337 0.65537 0.06511 0.0
H667 H 0.69239 0.487 0.95521 0.0
H668 H 0.12532 0.7364 0.4157 0.0
H669 H 0.1599 0.76975 0.39748 0.0
H670 H 0.17811 0.72888 0.33463 0.0
H671 H 0.14351 0.69563 0.35217 0.0
H672 H 0.20314 0.78491 0.40412 0.0
H673 H 0.20305 0.75478 0.25834 0.0
H674 H 0.17632 0.73194 0.21088 0.0
H675 H 0.12639 0.74368 0.25782 0.0
H676 H 0.15277 0.76649 0.30541 0.0
H677 H 0.30759 0.85879 0.32758 0.0
H678 H 0.27413 0.82435 0.34515 0.0
H679 H 0.23409 0.84142 0.27734 0.0
H680 H 0.26762 0.87573 0.25902 0.0
H681 H 0.21904 0.79844 0.27352 0.0
H682 H 0.23828 0.85122 0.36861 0.0
H683 H 0.2627 0.87847 0.41416 0.0
H684 H 0.27002 0.82743 0.46772 0.0
H685 H 0.2459 0.79994 0.42214 0.0
C686 C 0.13682 0.73449 0.39836 0.0
C687 C 0.13156 0.71334 0.38523 0.0
C688 C 0.15659 0.75358 0.38793 0.0
C689 C 0.17145 0.75191 0.36412 0.0
C690 C 0.16671 0.73069 0.35239 0.0
C691 C 0.14695 0.71164 0.36267 0.0
C692 C 0.19157 0.77232 0.35069 0.0
C693 C 0.20665 0.7878 0.37558 0.0
C694 C 0.19598 0.77649 0.31342 0.0
C695 C 0.1798 0.76213 0.2856 0.0
C696 C 0.18633 0.75238 0.25855 0.0
C697 C 0.17123 0.73943 0.23165 0.0
C698 C 0.14963 0.73626 0.23138 0.0
C699 C 0.14304 0.74595 0.25813 0.0
C700 C 0.15803 0.75884 0.28516 0.0
C701 C 0.29172 0.85505 0.31591 0.0
C702 C 0.29027 0.87008 0.29202 0.0
C703 C 0.27256 0.83542 0.32623 0.0
C704 C 0.25149 0.83051 0.31325 0.0
C705 C 0.25014 0.84489 0.2879 0.0
C706 C 0.26934 0.86449 0.27736 0.0
C707 C 0.23085 0.81079 0.32692 0.0
C708 C 0.21566 0.79544 0.30209 0.0
C709 C 0.22604 0.80713 0.3642 0.0
C710 C 0.24046 0.82358 0.39176 0.0
C711 C 0.24523 0.84585 0.38995 0.0
C712 C 0.259 0.86133 0.41579 0.0
C713 C 0.26795 0.8547 0.44377 0.0
C714 C 0.2631 0.83255 0.446 0.0
C715 C 0.24938 0.81701 0.42018 0.0
H716 H 0.27861 0.86671 0.46376 0.0
H717 H 0.13808 0.72644 0.21029 0.0
H718 H 0.40459 0.1365 0.76105 0.0
H719 H 0.40713 0.17182 0.74323 0.0
H720 H 0.44737 0.1759 0.65192 0.0
H721 H 0.44535 0.14106 0.66993 0.0
H722 H 0.46251 0.21578 0.67869 0.0
H723 H 0.39076 0.15585 0.64372 0.0
H724 H 0.35418 0.12204 0.65275 0.0
H725 H 0.33575 0.15739 0.72741 0.0
H726 H 0.37237 0.19134 0.71919 0.0
H727 H 0.40066 0.2728 0.58576 0.0
H728 H 0.40335 0.23982 0.60155 0.0
H729 H 0.44978 0.2769 0.68663 0.0
H730 H 0.44771 0.30993 0.67035 0.0
H731 H 0.3915 0.21589 0.65975 0.0
H732 H 0.48429 0.25703 0.70443 0.0
H733 H 0.5207 0.28939 0.68845 0.0
H734 H 0.49679 0.2893 0.58163 0.0
H735 H 0.46035 0.25678 0.59681 0.0
C736 C 0.4143 0.14513 0.73754 0.0
C737 C 0.42466 0.13587 0.71682 0.0
C738 C 0.4156 0.16524 0.72721 0.0
C739 C 0.4271 0.17635 0.69581 0.0
C740 C 0.43834 0.16766 0.67616 0.0
C741 C 0.43713 0.14766 0.68651 0.0
C742 C 0.42669 0.19646 0.68239 0.0
C743 C 0.44698 0.21583 0.67469 0.0
C744 C 0.40644 0.19641 0.67619 0.0
C745 C 0.38438 0.17606 0.68111 0.0
C746 C 0.37897 0.15636 0.66226 0.0
C747 C 0.35822 0.13718 0.6672 0.0
C748 C 0.34267 0.13755 0.69071 0.0
C749 C 0.34782 0.15712 0.70926 0.0
C750 C 0.36856 0.17634 0.70445 0.0
C751 C 0.41176 0.27403 0.60739 0.0
C752 C 0.42405 0.29406 0.62664 0.0
C753 C 0.41317 0.25511 0.61656 0.0
C754 C 0.42688 0.25583 0.64518 0.0
C755 C 0.43942 0.27594 0.66402 0.0
C756 C 0.43816 0.29486 0.65469 0.0
C757 C 0.42735 0.23537 0.65646 0.0
C758 C 0.40705 0.21591 0.66382 0.0
C759 C 0.44758 0.23516 0.66142 0.0
C760 C 0.46952 0.25459 0.6519 0.0
C761 C 0.48684 0.26386 0.67749 0.0
C762 C 0.50747 0.28225 0.66858 0.0
C763 C 0.51103 0.29144 0.63409 0.0
C764 C 0.49399 0.28222 0.60839 0.0
C765 C 0.47333 0.26383 0.61715 0.0
H766 H 0.52702 0.30568 0.62725 0.0
H767 H 0.32662 0.12269 0.6945 0.0
H768 H 0.39495 0.35373 0.72763 0.0
H769 H 0.37965 0.34837 0.78782 0.0
H770 H 0.31382 0.30336 0.74617 0.0
H771 H 0.32914 0.3096 0.68484 0.0
H772 H 0.31011 0.32752 0.79442 0.0
H773 H 0.34434 0.28379 0.79619 0.0
H774 H 0.37314 0.27339 0.78534 0.0
H775 H 0.41824 0.32568 0.8561 0.0
H776 H 0.38986 0.33664 0.86697 0.0
H777 H 0.32834 0.32452 1.00678 0.0
H778 H 0.32463 0.30749 0.94725 0.0
H779 H 0.32846 0.36564 0.89724 0.0
H780 H 0.3311 0.38203 0.95563 0.0
H781 H 0.35202 0.31892 0.89593 0.0
H782 H 0.30468 0.35787 0.81965 0.0
H783 H 0.27292 0.36381 0.83094 0.0
H784 H 0.24748 0.3118 0.91026 0.0
H785 H 0.27887 0.30524 0.89906 0.0
C786 C 0.3772 0.3426 0.73116 0.0
C787 C 0.36328 0.33192 0.70149 0.0
C788 C 0.36847 0.33938 0.76576 0.0
C789 C 0.34565 0.32487 0.7719 0.0
C790 C 0.33153 0.31444 0.74223 0.0
C791 C 0.34026 0.31802 0.70723 0.0
C792 C 0.33688 0.32167 0.80932 0.0
C793 C 0.31907 0.32536 0.81662 0.0
C794 C 0.34779 0.31769 0.83839 0.0
C795 C 0.36493 0.31105 0.83236 0.0
C796 C 0.36043 0.29314 0.80933 0.0
C797 C 0.37669 0.28715 0.80317 0.0
C798 C 0.39751 0.29887 0.82001 0.0
C799 C 0.40209 0.31659 0.84311 0.0
C800 C 0.3859 0.32267 0.84935 0.0
C801 C 0.32792 0.3334 0.98305 0.0
C802 C 0.33002 0.35464 0.9861 0.0
C803 C 0.32583 0.32368 0.94903 0.0
C804 C 0.32584 0.33505 0.91757 0.0
C805 C 0.32763 0.35609 0.92087 0.0
C806 C 0.32942 0.36561 0.95456 0.0
C807 C 0.32637 0.32647 0.88103 0.0
C808 C 0.34259 0.32046 0.87384 0.0
C809 C 0.31342 0.32747 0.85215 0.0
C810 C 0.29422 0.33108 0.85851 0.0
C811 C 0.29222 0.34753 0.83926 0.0
C812 C 0.2743 0.35106 0.84572 0.0
C813 C 0.2582 0.3382 0.87131 0.0
C814 C 0.25998 0.32177 0.89048 0.0
C815 C 0.27785 0.31816 0.8841 0.0
H816 H 0.24434 0.34094 0.87623 0.0
H817 H 0.41008 0.29422 0.81518 0.0
H818 H 0.97043 0.36094 0.29137 0.0
H819 H 0.98204 0.35754 0.23112 0.0
H820 H 0.99224 0.30389 0.26698 0.0
H821 H 0.98172 0.3082 0.32844 0.0
H822 H 0.02318 0.32793 0.22164 0.0
H823 H 0.94467 0.29454 0.21787 0.0
H824 H 0.9083 0.29169 0.22916 0.0
H825 H 0.92573 0.34767 0.15986 0.0
H826 H 0.96256 0.35132 0.14895 0.0
H827 H 1.00167 0.32471 0.00968 0.0
H828 H 0.98838 0.30993 0.07022 0.0
H829 H 0.04735 0.36542 0.11615 0.0
H830 H 0.06095 0.37969 0.05646 0.0
H831 H 0.97652 0.3275 0.11956 0.0
H832 H 0.06083 0.35577 0.19596 0.0
H833 H 0.09627 0.3563 0.18544 0.0
H834 H 0.0641 0.30357 0.10792 0.0
H835 H 0.02837 0.30247 0.11833 0.0
C836 C 0.9752 0.34844 0.28649 0.0
C837 C 0.97493 0.33465 0.31446 0.0
C838 C 0.9817 0.34639 0.25192 0.0
C839 C 0.9873 0.32993 0.24407 0.0
C840 C 0.98774 0.31654 0.27224 0.0
C841 C 0.98174 0.31899 0.30729 0.0
C842 C 0.99269 0.32705 0.20636 0.0
C843 C 0.0129 0.32762 0.1993 0.0
C844 C 0.97886 0.32574 0.17709 0.0
C845 C 0.95644 0.32323 0.18268 0.0
C846 C 0.9408 0.30629 0.20511 0.0
C847 C 0.92008 0.30455 0.21148 0.0
C848 C 0.91465 0.31944 0.19519 0.0
C849 C 0.92994 0.33612 0.17244 0.0
C850 C 0.95076 0.33804 0.16615 0.0
C851 C 0.01201 0.33344 0.03269 0.0
C852 C 0.03231 0.35346 0.02814 0.0
C853 C 0.00438 0.32501 0.06729 0.0
C854 C 0.01694 0.3364 0.09789 0.0
C855 C 0.03755 0.35594 0.09316 0.0
C856 C 0.04522 0.36425 0.05879 0.0
C857 C 0.00764 0.3297 0.1348 0.0
C858 C 0.98662 0.32727 0.14178 0.0
C859 C 0.02048 0.32876 0.16386 0.0
C860 C 0.0419 0.32911 0.15785 0.0
C861 C 0.06125 0.34416 0.17687 0.0
C862 C 0.08142 0.3446 0.17086 0.0
C863 C 0.08245 0.33 0.14599 0.0
C864 C 0.0633 0.31491 0.12711 0.0
C865 C 0.04309 0.3144 0.13302 0.0
H866 H 0.09808 0.33038 0.14136 0.0
H867 H 0.89861 0.31808 0.20023 0.0
H868 H 0.67221 0.01338 0.68399 0.0
H869 H 0.68708 0.02882 0.62439 0.0
H870 H 0.6521 0.96269 0.57873 0.0
H871 H 0.63731 0.94719 0.6379 0.0
H872 H 0.69327 0.9892 0.54633 0.0
H873 H 0.62733 0.99291 0.57953 0.0
H874 H 0.60561 0.00395 0.61842 0.0
H875 H 0.65514 0.07293 0.60527 0.0
H876 H 0.67732 0.06225 0.5667 0.0
H877 H 0.66618 0.00321 0.36643 0.0
H878 H 0.66914 0.99332 0.42869 0.0
H879 H 0.69694 0.06222 0.46023 0.0
H880 H 0.69326 0.07198 0.3985 0.0
H881 H 0.66445 0.03777 0.5021 0.0
H882 H 0.72794 0.03418 0.46109 0.0
H883 H 0.74918 0.02279 0.42178 0.0
H884 H 0.70493 0.95411 0.44857 0.0
H885 H 0.68322 0.96505 0.48768 0.0
C886 C 0.66818 0.0021 0.66142 0.0
C887 C 0.65334 0.97912 0.66552 0.0
C888 C 0.67663 0.01093 0.62739 0.0
C889 C 0.67042 0.9969 0.5971 0.0
C890 C 0.65707 0.97381 0.60171 0.0
C891 C 0.64852 0.96501 0.63555 0.0
C892 C 0.67541 0.00623 0.56017 0.0
C893 C 0.68702 0.99983 0.53652 0.0
C894 C 0.6675 0.02035 0.54763 0.0
C895 C 0.65411 0.02678 0.57063 0.0
C896 C 0.63367 0.01042 0.58518 0.0
C897 C 0.62127 0.01661 0.60712 0.0
C898 C 0.62903 0.03913 0.61441 0.0
C899 C 0.64918 0.0555 0.59967 0.0
C900 C 0.66167 0.04939 0.57778 0.0
C901 C 0.67333 0.01628 0.38655 0.0
C902 C 0.67929 0.03831 0.37769 0.0
C903 C 0.67512 0.01065 0.42213 0.0
C904 C 0.68334 0.02704 0.44926 0.0
C905 C 0.69043 0.04925 0.4399 0.0
C906 C 0.68833 0.05481 0.40458 0.0
C907 C 0.6824 0.02081 0.48781 0.0
C908 C 0.67127 0.0276 0.51182 0.0
C909 C 0.6908 0.00709 0.50054 0.0
C910 C 0.70385 1.00044 0.47712 0.0
C911 C 0.72263 0.01663 0.4584 0.0
C912 C 0.73478 0.01026 0.43619 0.0
C913 C 0.72838 0.98774 0.43263 0.0
C914 C 0.70985 0.97155 0.45134 0.0
C915 C 0.69764 0.97783 0.47358 0.0
H916 H 0.7378 0.98284 0.41541 0.0
H917 H 0.6194 0.0439 0.63138 0.0
H918 H 0.62364 0.68553 0.73572 0.0
H919 H 0.63787 0.6875 0.79653 0.0
H920 H 0.6848 0.66893 0.7563 0.0
H921 H 0.6706 0.66691 0.69504 0.0
H922 H 0.65905 0.64224 0.81163 0.0
H923 H 0.70371 0.72049 0.78906 0.0
H924 H 0.71089 0.75761 0.7698 0.0
H925 H 0.66735 0.757 0.85249 0.0
H926 H 0.65967 0.71973 0.87197 0.0
H927 H 0.70361 0.64325 0.97869 0.0
H928 H 0.70374 0.6569 0.9181 0.0
H929 H 0.6563 0.67664 0.95096 0.0
H930 H 0.65651 0.66341 0.01224 0.0
H931 H 0.68541 0.7049 0.89856 0.0
H932 H 0.6373 0.62636 0.91672 0.0
H933 H 0.62788 0.58856 0.93612 0.0
H934 H 0.67514 0.58893 0.86102 0.0
H935 H 0.68511 0.62691 0.84157 0.0
C936 C 0.63722 0.68217 0.73965 0.0
C937 C 0.64589 0.67589 0.71056 0.0
C938 C 0.64544 0.68347 0.77445 0.0
C939 C 0.66247 0.67847 0.78093 0.0
C940 C 0.67169 0.67292 0.75182 0.0
C941 C 0.6636 0.67182 0.71685 0.0
C942 C 0.66893 0.67687 0.81845 0.0
C943 C 0.66532 0.6561 0.83039 0.0
C944 C 0.67628 0.69473 0.84325 0.0
C945 C 0.68099 0.71723 0.83181 0.0
C946 C 0.69554 0.7282 0.80298 0.0
C947 C 0.69972 0.74928 0.79205 0.0
C948 C 0.68955 0.75964 0.80986 0.0
C949 C 0.67521 0.74895 0.83871 0.0
C950 C 0.67097 0.72786 0.84975 0.0
C951 C 0.69367 0.65107 0.97331 0.0
C952 C 0.67981 0.652 1.00002 0.0
C953 C 0.69374 0.65883 0.93865 0.0
C954 C 0.67961 0.66726 0.92982 0.0
C955 C 0.66725 0.67008 0.9572 0.0
C956 C 0.66739 0.66254 0.99218 0.0
C957 C 0.67569 0.67034 0.89148 0.0
C958 C 0.67952 0.69121 0.87955 0.0
C959 C 0.66823 0.65249 0.8666 0.0
C960 C 0.66213 0.62957 0.87799 0.0
C961 C 0.64581 0.61845 0.90454 0.0
C962 C 0.64036 0.59698 0.91553 0.0
C963 C 0.65096 0.58638 0.89989 0.0
C964 C 0.66698 0.59719 0.87316 0.0
C965 C 0.67254 0.61868 0.86214 0.0
H966 H 0.64671 0.56976 0.90843 0.0
H967 H 0.6928 0.77596 0.80134 0.0
H968 H 0.03607 0.64229 0.2895 0.0
H969 H 0.02417 0.64481 0.22887 0.0
H970 H 0.01233 0.6977 0.26274 0.0
H971 H 0.02315 0.69428 0.3246 0.0
H972 H 0.98146 0.67231 0.21715 0.0
H973 H 0.06038 0.70797 0.21517 0.0
H974 H 0.09703 0.7117 0.22789 0.0
H975 H 0.08121 0.65571 0.15954 0.0
H976 H 0.04409 0.65114 0.14725 0.0
H977 H 0.004 0.67468 1.00588 0.0
H978 H 0.01667 0.69034 0.06629 0.0
H979 H 0.95897 0.63371 0.11232 0.0
H980 H 0.94596 0.61856 0.05276 0.0
H981 H 0.02945 0.67411 0.1167 0.0
H982 H 0.94446 0.64304 0.19135 0.0
H983 H 0.90806 0.64025 0.1794 0.0
H984 H 0.93818 0.69231 0.10056 0.0
H985 H 0.97486 0.6957 0.11241 0.0
C986 C 0.03088 0.65444 0.28411 0.0
C987 C 0.0308 0.6683 0.31162 0.0
C988 C 0.02421 0.65597 0.24933 0.0
C989 C 0.01807 0.67197 0.24082 0.0
C990 C 0.01725 0.6854 0.26853 0.0
C991 C 0.02343 0.68346 0.30379 0.0
C992 C 0.01261 0.67439 0.20288 0.0
C993 C 0.99203 0.67293 0.19515 0.0
C994 C 0.02676 0.67604 0.17407 0.0
C995 C 0.04939 0.67919 0.18036 0.0
C996 C 0.06467 0.69641 0.2029 0.0
C997 C 0.08554 0.69865 0.21008 0.0
C998 C 0.09151 0.684 0.19448 0.0
C999 C 0.07659 0.66707 0.17158 0.0
C1000 C 0.05561 0.66463 0.16451 0.0
C1001 C 0.9938 0.66587 0.02887 0.0
C1002 C 0.97405 0.6453 0.02443 0.0
C1003 C 1.00106 0.67481 0.06339 0.0
C1004 C 0.98867 0.66337 0.09397 0.0
C1005 C 0.9686 0.64323 0.0893 0.0
C1006 C 0.96129 0.63442 0.05503 0.0
C1007 C 0.99773 0.6707 0.13092 0.0
C1008 C 0.01907 0.67406 0.13855 0.0
C1009 C 0.98443 0.6712 0.15949 0.0
C1010 C 0.96246 0.66958 0.15274 0.0
C1011 C 0.94339 0.65404 0.17169 0.0
C1012 C 0.92268 0.65232 0.16487 0.0
C1013 C 0.92081 0.66608 0.13923 0.0
C1014 C 0.93965 0.68163 0.12038 0.0
C1015 C 0.9604 0.68345 0.12711 0.0
H1016 H 0.90476 0.66472 0.13401 0.0
H1017 H 0.10766 0.68574 0.20016 0.0
H1018 H 0.33773 0.00364 0.35124 0.0
H1019 H 0.33716 0.01651 0.41251 0.0
H1020 H 0.31687 0.95079 0.45358 0.0
H1021 H 0.31742 0.93784 0.3927 0.0
H1022 H 0.29614 0.9712 0.48932 0.0
H1023 H 0.36972 0.98709 0.45436 0.0
H1024 H 0.40297 0.00269 0.41544 0.0
H1025 H 0.41256 0.06846 0.4304 0.0
H1026 H 0.37915 0.05319 0.46904 0.0
H1027 H 0.34106 0.99495 0.66912 0.0
H1028 H 0.32783 0.98197 0.60775 0.0
H1029 H 0.35551 0.05017 0.57259 0.0
H1030 H 0.36911 0.06316 0.63336 0.0
H1031 H 0.37062 0.02942 0.53269 0.0
H1032 H 0.29842 0.01312 0.57398 0.0
H1033 H 0.26558 0.99661 0.61378 0.0
H1034 H 0.2536 0.93096 0.58845 0.0
H1035 H 0.28656 0.9471 0.54886 0.0
C1036 C 0.33269 0.99183 0.37322 0.0
C1037 C 0.3279 0.96982 0.36721 0.0
C1038 C 0.33242 0.99921 0.4082 0.0
C1039 C 0.3272 0.98463 0.43758 0.0
C1040 C 0.32095 0.96229 0.43131 0.0
C1041 C 0.32142 0.95498 0.3965 0.0
C1042 C 0.33049 0.99309 0.47503 0.0
C1043 C 0.3124 0.98389 0.49896 0.0
C1044 C 0.35169 0.00974 0.48739 0.0
C1045 C 0.37178 0.01897 0.4642 0.0
C1046 C 0.3788 0.00485 0.44908 0.0
C1047 C 0.39769 0.01363 0.42713 0.0
C1048 C 0.40982 0.03654 0.42035 0.0
C1049 C 0.40311 0.05071 0.43561 0.0
C1050 C 0.38421 0.04201 0.45754 0.0
C1051 C 0.34377 0.00711 0.64848 0.0
C1052 C 0.35631 0.03006 0.65595 0.0
C1053 C 0.3362 0.99969 0.6134 0.0
C1054 C 0.34075 0.01511 0.58547 0.0
C1055 C 0.35194 0.03796 0.59358 0.0
C1056 C 0.35968 0.04536 0.62837 0.0
C1057 C 0.33619 0.00778 0.54727 0.0
C1058 C 0.35418 0.01704 0.52314 0.0
C1059 C 0.31494 0.99111 0.53494 0.0
C1060 C 0.29509 0.98135 0.55869 0.0
C1061 C 0.2889 0.99518 0.57712 0.0
C1062 C 0.27023 0.98588 0.5996 0.0
C1063 C 0.25754 0.96275 0.60371 0.0
C1064 C 0.26346 0.94887 0.58527 0.0
C1065 C 0.28211 0.95809 0.56277 0.0
H1066 H 0.2431 0.95558 0.62112 0.0
H1067 H 0.42445 0.04331 0.40337 0.0
H1068 H 0.4102 0.46333 0.05163 0.0
H1069 H 0.45061 0.48849 0.05199 0.0
H1070 H 0.45776 0.44821 0.13395 0.0
H1071 H 0.41756 0.42248 0.1324 0.0
H1072 H 0.48009 0.51467 0.09604 0.0
H1073 H 0.50573 0.44793 0.12635 0.0
H1074 H 0.49154 0.40788 0.11549 0.0
H1075 H 0.45483 0.4098 0.02344 0.0
H1076 H 0.46903 0.44991 0.03347 0.0
H1077 H 0.59307 0.57173 0.14299 0.0
H1078 H 0.55309 0.54515 0.14289 0.0
H1079 H 0.56053 0.51448 0.04679 0.0
H1080 H 0.60085 0.54051 0.04776 0.0
H1081 H 0.53098 0.48368 0.08647 0.0
H1082 H 0.54175 0.55336 0.04466 0.0
H1083 H 0.55592 0.59389 0.04568 0.0
H1084 H 0.51964 0.58684 0.143 0.0
H1085 H 0.50549 0.54628 0.14282 0.0
C1086 C 0.42039 0.45994 0.06989 0.0
C1087 C 0.41073 0.44082 0.09174 0.0
C1088 C 0.44351 0.47433 0.07007 0.0
C1089 C 0.45738 0.47003 0.09242 0.0
C1090 C 0.44757 0.45156 0.11564 0.0
C1091 C 0.42454 0.43694 0.11494 0.0
C1092 C 0.48209 0.48468 0.09115 0.0
C1093 C 0.49118 0.50785 0.09396 0.0
C1094 C 0.49669 0.47594 0.08742 0.0
C1095 C 0.48828 0.45188 0.0809 0.0
C1096 C 0.4947 0.43982 0.10371 0.0
C1097 C 0.48664 0.41711 0.09772 0.0
C1098 C 0.47224 0.40629 0.06887 0.0
C1099 C 0.46593 0.41818 0.04586 0.0
C1100 C 0.47396 0.4409 0.05171 0.0
C1101 C 0.58623 0.55915 0.12206 0.0
C1102 C 0.60006 0.5583 0.09521 0.0
C1103 C 0.56332 0.54405 0.12188 0.0
C1104 C 0.55363 0.52816 0.09427 0.0
C1105 C 0.56756 0.52666 0.06827 0.0
C1106 C 0.59061 0.54152 0.06885 0.0
C1107 C 0.52894 0.51361 0.09206 0.0
C1108 C 0.51987 0.49047 0.08858 0.0
C1109 C 0.51434 0.52244 0.09373 0.0
C1110 C 0.52273 0.54681 0.09389 0.0
C1111 C 0.53692 0.56047 0.0664 0.0
C1112 C 0.54493 0.58345 0.06682 0.0
C1113 C 0.53873 0.59294 0.09443 0.0
C1114 C 0.52445 0.57946 0.12165 0.0
C1115 C 0.51641 0.55648 0.12138 0.0
H1116 H 0.54495 0.61073 0.09471 0.0
H1117 H 0.466 0.3887 0.0643 0.0
H1118 H 0.06924 0.6002 0.43574 0.0
H1119 H 0.05634 0.5604 0.44251 0.0
H1120 H 0.98799 0.54592 0.4396 0.0
H1121 H 1.0007 0.58558 0.43403 0.0
H1122 H 0.99171 0.52015 0.48709 0.0
H1123 H 0.01469 0.54002 0.36425 0.0
H1124 H 0.04059 0.56134 0.31523 0.0
H1125 H 0.08635 0.54047 0.35154 0.0
H1126 H 0.06083 0.51924 0.40109 0.0
H1127 H 0.93897 0.40609 0.42939 0.0
H1128 H 0.95326 0.44623 0.43548 0.0
H1129 H 0.01996 0.45724 0.44936 0.0
H1130 H 0.00593 0.4173 0.44326 0.0
H1131 H 0.01806 0.48471 0.39874 0.0
H1132 H 0.99251 0.46241 0.51987 0.0
H1133 H 0.96518 0.44046 0.56686 0.0
H1134 H 0.92239 0.46513 0.53105 0.0
H1135 H 0.94934 0.487 0.4835 0.0
C1136 C 0.05147 0.58856 0.43687 0.0
C1137 C 0.03602 0.59609 0.43405 0.0
C1138 C 0.04411 0.56579 0.44057 0.0
C1139 C 0.02116 0.55008 0.4409 0.0
C1140 C 0.00576 0.55766 0.43935 0.0
C1141 C 0.01309 0.5804 0.43604 0.0
C1142 C 0.01309 0.52571 0.44154 0.0
C1143 C 0.99733 0.51239 0.46755 0.0
C1144 C 0.02063 0.51555 0.41641 0.0
C1145 C 0.03597 0.52825 0.3866 0.0
C1146 C 0.03035 0.54011 0.36194 0.0
C1147 C 0.04495 0.55216 0.33404 0.0
C1148 C 0.06513 0.55232 0.33034 0.0
C1149 C 0.07073 0.54037 0.35448 0.0
C1150 C 0.05621 0.52832 0.38246 0.0
C1151 C 0.95664 0.41702 0.43414 0.0
C1152 C 0.9713 0.40844 0.43572 0.0
C1153 C 0.96477 0.43995 0.43772 0.0
C1154 C 0.98768 0.45471 0.44298 0.0
C1155 C 1.00224 0.44615 0.44527 0.0
C1156 C 0.99415 0.42327 0.44186 0.0
C1157 C 0.99668 0.47919 0.44421 0.0
C1158 C 0.01257 0.49252 0.41843 0.0
C1159 C 0.98905 0.48927 0.46926 0.0
C1160 C 0.97286 0.47618 0.49791 0.0
C1161 C 0.97719 0.46301 0.52182 0.0
C1162 C 0.96179 0.45061 0.5486 0.0
C1163 C 0.94204 0.45136 0.55189 0.0
C1164 C 0.93768 0.46455 0.52845 0.0
C1165 C 0.95303 0.47697 0.50161 0.0
H1166 H 0.93013 0.44175 0.57263 0.0
H1167 H 0.07641 0.56165 0.30872 0.0
H1168 H 0.54083 0.94374 0.72719 0.0
H1169 H 0.51481 0.95807 0.72511 0.0
H1170 H 0.55524 0.00874 0.80278 0.0
H1171 H 0.58156 0.99498 0.80413 0.0
H1172 H 0.48876 0.96314 0.76936 0.0
H1173 H 0.5568 0.05689 0.78498 0.0
H1174 H 0.59637 0.08158 0.76926 0.0
H1175 H 0.59058 0.03699 0.6842 0.0
H1176 H 0.55093 0.01224 0.69903 0.0
H1177 H 0.43273 0.02133 0.80861 0.0
H1178 H 0.45898 0.00741 0.8101 0.0
H1179 H 0.48849 0.04226 0.71106 0.0
H1180 H 0.46309 0.05733 0.71081 0.0
H1181 H 0.51951 0.04415 0.74859 0.0
H1182 H 0.44844 0.98376 0.71567 0.0
H1183 H 0.40797 0.95773 0.72057 0.0
H1184 H 0.41815 0.93332 0.82104 0.0
H1185 H 0.45866 0.95943 0.81697 0.0
C1186 C 0.54404 0.95779 0.74409 0.0
C1187 C 0.56338 0.96837 0.76554 0.0
C1188 C 0.52916 0.96598 0.74286 0.0
C1189 C 0.53331 0.98481 0.76319 0.0
C1190 C 0.55197 0.99458 0.7861 0.0
C1191 C 0.56695 0.9866 0.787 0.0
C1192 C 0.51852 0.99463 0.75995 0.0
C1193 C 0.49547 0.98085 0.76482 0.0
C1194 C 0.52715 0.01762 0.75277 0.0
C1195 C 0.55094 0.0326 0.74339 0.0
C1196 C 0.56395 0.05241 0.76283 0.0
C1197 C 0.5864 0.06641 0.75408 0.0
C1198 C 0.596 0.06082 0.72582 0.0
C1199 C 0.58315 0.04127 0.70616 0.0
C1200 C 0.5607 0.02724 0.71475 0.0
C1201 C 0.44504 0.02625 0.78744 0.0
C1202 C 0.44584 0.04033 0.75951 0.0
C1203 C 0.45991 0.01811 0.7881 0.0
C1204 C 0.47534 0.02318 0.76011 0.0
C1205 C 0.4767 0.03796 0.7329 0.0
C1206 C 0.4622 0.04661 0.73277 0.0
C1207 C 0.48972 0.01277 0.75893 0.0
C1208 C 0.51273 0.02644 0.75314 0.0
C1209 C 0.48091 0.9895 0.76367 0.0
C1210 C 0.45657 0.97369 0.76615 0.0
C1211 C 0.44203 0.97294 0.73891 0.0
C1212 C 0.41909 0.95816 0.74153 0.0
C1213 C 0.41049 0.94392 0.77114 0.0
C1214 C 0.42483 0.94438 0.79814 0.0
C1215 C 0.44779 0.95915 0.79568 0.0
H1216 H 0.39272 0.93249 0.77312 0.0
H1217 H 0.61338 0.07167 0.71912 0.0
H1218 H 0.58796 0.58577 0.58939 0.0
H1219 H 0.56022 0.54658 0.58183 0.0
H1220 H 0.50755 0.56269 0.58837 0.0
H1221 H 0.53536 0.60214 0.59693 0.0
H1222 H 0.49787 0.52764 0.62854 0.0
H1223 H 0.52178 0.54822 0.5077 0.0
H1224 H 0.54896 0.56518 0.45844 0.0
H1225 H 0.57291 0.51957 0.47835 0.0
H1226 H 0.54611 0.50255 0.52814 0.0
H1227 H 0.41437 0.41895 0.57781 0.0
H1228 H 0.44002 0.45905 0.57381 0.0
H1229 H 0.49604 0.44813 0.58291 0.0
H1230 H 0.47046 0.40783 0.58697 0.0
H1231 H 0.5022 0.48086 0.53117 0.0
H1232 H 0.47945 0.46264 0.65529 0.0
H1233 H 0.45196 0.44625 0.70428 0.0
H1234 H 0.42488 0.48822 0.67596 0.0
H1235 H 0.45203 0.50464 0.62644 0.0
C1236 C 0.5705 0.58108 0.58902 0.0
C1237 C 0.56391 0.59716 0.59373 0.0
C1238 C 0.55463 0.55861 0.58446 0.0
C1239 C 0.53178 0.55168 0.58396 0.0
C1240 C 0.52509 0.56766 0.58854 0.0
C1241 C 0.541 0.5902 0.59336 0.0
C1242 C 0.51498 0.52761 0.58019 0.0
C1243 C 0.49858 0.51753 0.60682 0.0
C1244 C 0.51611 0.51428 0.55221 0.0
C1245 C 0.53202 0.52421 0.52187 0.0
C1246 C 0.53293 0.54188 0.50173 0.0
C1247 C 0.54827 0.55151 0.47369 0.0
C1248 C 0.56269 0.54349 0.46532 0.0
C1249 C 0.56174 0.52577 0.48488 0.0
C1250 C 0.54645 0.51611 0.51299 0.0
C1251 C 0.43214 0.42498 0.57864 0.0
C1252 C 0.44034 0.41013 0.58304 0.0
C1253 C 0.44678 0.44794 0.57638 0.0
C1254 C 0.46991 0.45656 0.57845 0.0
C1255 C 0.47822 0.44179 0.5813 0.0
C1256 C 0.46357 0.41878 0.58375 0.0
C1257 C 0.48532 0.48103 0.57963 0.0
C1258 C 0.50143 0.4911 0.55259 0.0
C1259 C 0.48382 0.49443 0.60701 0.0
C1260 C 0.46761 0.48469 0.63693 0.0
C1261 C 0.46751 0.46824 0.65933 0.0
C1262 C 0.45202 0.45897 0.68722 0.0
C1263 C 0.43664 0.46614 0.69317 0.0
C1264 C 0.43677 0.48265 0.67129 0.0
C1265 C 0.45222 0.49196 0.64332 0.0
H1266 H 0.42465 0.45894 0.71477 0.0
H1267 H 0.57457 0.55099 0.44364 0.0
H1268 H 0.00691 0.58624 0.90732 0.0
H1269 H 0.0199 0.55939 0.90497 0.0
H1270 H 0.95253 0.50556 0.92062 0.0
H1271 H 0.9394 0.53249 0.92397 0.0
H1272 H 0.9799 0.50001 0.96269 0.0
H1273 H 0.97929 0.51579 0.83773 0.0
H1274 H 0.98772 0.53927 0.78361 0.0
H1275 H 0.0579 0.56582 0.80125 0.0
H1276 H 0.0499 0.54272 0.8558 0.0
H1277 H 1.0002 0.41246 0.9164 0.0
H1278 H 0.98746 0.43956 0.91341 0.0
H1279 H 0.0556 0.49337 0.91817 0.0
H1280 H 0.06863 0.46626 0.92154 0.0
H1281 H 0.028 0.49868 0.86498 0.0
H1282 H 0.0275 0.48228 0.99095 0.0
H1283 H 0.01802 0.45768 0.04384 0.0
H1284 H 0.94821 0.43087 0.02209 0.0
H1285 H 0.95729 0.45509 0.96871 0.0
C1286 C 0.99476 0.56869 0.90999 0.0
C1287 C 0.97206 0.56154 0.91579 0.0
C1288 C 1.00224 0.55331 0.90846 0.0
C1289 C 0.98718 0.5304 0.91215 0.0
C1290 C 0.96447 0.52316 0.91764 0.0
C1291 C 0.95697 0.53857 0.91944 0.0
C1292 C 0.99532 0.51413 0.91175 0.0
C1293 C 0.99012 0.49951 0.941 0.0
C1294 C 0.00911 0.51378 0.88389 0.0
C1295 C 0.014 0.52767 0.85106 0.0
C1296 C 0.99653 0.52677 0.83024 0.0
C1297 C 1.00123 0.53998 0.79945 0.0
C1298 C 0.02334 0.55407 0.78905 0.0
C1299 C 0.04079 0.55492 0.80937 0.0
C1300 C 0.03618 0.54175 0.8402 0.0
C1301 C 0.01256 0.43004 0.91662 0.0
C1302 C 0.03548 0.43718 0.91935 0.0
C1303 C 0.00521 0.4455 0.915 0.0
C1304 C 0.02057 0.46843 0.91585 0.0
C1305 C 0.04349 0.47571 0.91754 0.0
C1306 C 0.05089 0.46021 0.91957 0.0
C1307 C 0.01251 0.48468 0.9158 0.0
C1308 C 0.01775 0.49924 0.88654 0.0
C1309 C 0.99858 0.48486 0.94345 0.0
C1310 C 0.99308 0.47034 0.97562 0.0
C1311 C 0.01013 0.471 0.99725 0.0
C1312 C 0.00483 0.45715 0.02736 0.0
C1313 C 0.98253 0.44267 0.03627 0.0
C1314 C 0.96548 0.44207 0.01513 0.0
C1315 C 0.97069 0.45586 0.98496 0.0
H1316 H 0.97846 0.43197 0.0596 0.0
H1317 H 0.02694 0.56428 0.7652 0.0
H1318 H 0.58652 1.00069 0.25872 0.0
H1319 H 0.54673 0.98726 0.25345 0.0
H1320 H 0.55912 0.05465 0.26342 0.0
H1321 H 0.59918 0.06828 0.26965 0.0
H1322 H 0.52513 0.02746 0.3044 0.0
H1323 H 0.54518 0.02689 0.18188 0.0
H1324 H 0.56225 0.01827 0.13071 0.0
H1325 H 0.51925 0.94817 0.14881 0.0
H1326 H 0.50213 0.95635 0.20047 0.0
H1327 H 0.41758 0.00366 0.24998 0.0
H1328 H 0.45757 0.01733 0.24813 0.0
H1329 H 0.44531 0.95 0.25751 0.0
H1330 H 0.40498 0.93601 0.25965 0.0
H1331 H 0.47897 0.97748 0.20529 0.0
H1332 H 0.45982 0.97915 0.32939 0.0
H1333 H 0.44249 0.98873 0.37901 0.0
H1334 H 0.48412 0.05839 0.35562 0.0
H1335 H 0.50146 0.04921 0.30544 0.0
C1336 C 0.58088 0.01275 0.25961 0.0
C1337 C 0.59611 0.03561 0.26455 0.0
C1338 C 0.55806 0.00501 0.2564 0.0
C1339 C 0.54991 0.01996 0.25752 0.0
C1340 C 0.56503 0.04281 0.26238 0.0
C1341 C 0.58793 0.05058 0.26582 0.0
C1342 C 0.52553 0.01153 0.2548 0.0
C1343 C 0.51513 0.01683 0.2824 0.0
C1344 C 0.51235 0.99725 0.22649 0.0
C1345 C 0.52249 0.99224 0.19526 0.0
C1346 C 0.53947 0.00963 0.17513 0.0
C1347 C 0.54914 0.00483 0.14601 0.0
C1348 C 0.54186 0.98269 0.13655 0.0
C1349 C 0.52487 0.96531 0.15618 0.0
C1350 C 0.51516 0.97002 0.18537 0.0
C1351 C 0.42327 0.99165 0.25136 0.0
C1352 C 0.40802 0.9687 0.25521 0.0
C1353 C 0.44618 0.99954 0.25034 0.0
C1354 C 0.45437 0.9847 0.25301 0.0
C1355 C 0.43926 0.96171 0.25546 0.0
C1356 C 0.41626 0.95377 0.2568 0.0
C1357 C 0.47875 0.99343 0.25485 0.0
C1358 C 0.48908 0.98816 0.22716 0.0
C1359 C 0.49192 0.00789 0.28288 0.0
C1360 C 0.48178 0.01348 0.31342 0.0
C1361 C 0.46516 0.99651 0.33465 0.0
C1362 C 0.45535 0.00186 0.3629 0.0
C1363 C 0.46215 0.02415 0.3704 0.0
C1364 C 0.47885 0.04113 0.34974 0.0
C1365 C 0.48869 0.03586 0.32141 0.0
H1366 H 0.45452 0.02826 0.39226 0.0
H1367 H 0.54933 0.97902 0.11395 0.0
loop_
_geom_bond_atom_site_label_1
_geom_bond_atom_site_label_2
_geom_bond_distance
_geom_bond_site_symmetry_2
_ccdc_geom_bond_type
O0 Cd1 2.223 1_556 S
O0 C8 1.315 1_556 S
Cd1 O0 2.223 1_554 S
Cd1 O4 2.297 . S
Cd1 O5 2.439 . S
Cd1 O11 2.240 . S
Cd2 O3 2.240 . S
Cd2 O10 2.223 . S
Cd2 O12 2.297 . S
Cd2 O13 2.439 . S
O3 Cd2 2.240 . S
O3 C8 1.279 . S
O4 Cd1 2.297 . S
O4 C6 1.247 . S
O5 Cd1 2.439 . S
O5 C6 1.208 . S
C6 O4 1.247 . S
C6 O5 1.208 . S
C7 O12 1.247 . S
C7 O13 1.208 . S
C8 O0 1.315 1_554 S
C8 O3 1.279 . S
C9 O10 1.315 . S
C9 O11 1.279 . S
O10 Cd2 2.223 . S
O10 C9 1.315 . S
O11 Cd1 2.240 . S
O11 C9 1.279 . S
O12 Cd2 2.297 . S
O12 C7 1.247 . S
O13 Cd2 2.439 . S
O13 C7 1.208 . S
O14 Cd15 2.223 . S
O14 C22 1.315 . S
Cd15 O14 2.223 . S
Cd15 O18 2.297 . S
Cd15 O19 2.439 . S
Cd15 O25 2.240 . S
Cd16 O17 2.240 . S
Cd16 O24 2.223 . S
Cd16 O26 2.297 . S
Cd16 O27 2.439 . S
O17 Cd16 2.240 . S
O17 C22 1.279 . S
O18 Cd15 2.297 . S
O18 C20 1.247 . S
O19 Cd15 2.439 . S
O19 C20 1.208 . S
C20 O18 1.247 . S
C20 O19 1.208 . S
C21 O26 1.247 . S
C21 O27 1.208 . S
C22 O14 1.315 . S
C22 O17 1.279 . S
C23 O24 1.315 . S
C23 O25 1.279 . S
O24 Cd16 2.223 . S
O24 C23 1.315 . S
O25 Cd15 2.240 . S
O25 C23 1.279 . S
O26 Cd16 2.297 . S
O26 C21 1.247 . S
O27 Cd16 2.439 . S
O27 C21 1.208 . S
O28 Cd29 2.223 . S
O28 C36 1.315 . S
Cd29 O28 2.223 . S
Cd29 O32 2.297 . S
Cd29 O33 2.439 . S
Cd29 O39 2.240 . S
Cd30 O31 2.240 . S
Cd30 O38 2.223 . S
Cd30 O40 2.297 . S
Cd30 O41 2.439 . S
O31 Cd30 2.240 . S
O31 C36 1.279 . S
O32 Cd29 2.297 . S
O32 C34 1.247 . S
O33 Cd29 2.439 . S
O33 C34 1.208 . S
C34 O32 1.247 . S
C34 O33 1.208 . S
C35 O40 1.247 . S
C35 O41 1.208 . S
C36 O28 1.315 . S
C36 O31 1.279 . S
C37 O38 1.315 . S
C37 O39 1.279 . S
O38 Cd30 2.223 . S
O38 C37 1.315 . S
O39 Cd29 2.240 . S
O39 C37 1.279 . S
O40 Cd30 2.297 . S
O40 C35 1.247 . S
O41 Cd30 2.439 . S
O41 C35 1.208 . S
O42 Cd43 2.223 1_556 S
O42 C50 1.315 1_556 S
Cd43 O42 2.223 1_554 S
Cd43 O46 2.297 . S
Cd43 O47 2.439 . S
Cd43 O53 2.240 . S
Cd44 O45 2.240 . S
Cd44 O52 2.223 . S
Cd44 O54 2.297 . S
Cd44 O55 2.439 . S
O45 Cd44 2.240 . S
O45 C50 1.279 . S
O46 Cd43 2.297 . S
O46 C48 1.247 . S
O47 Cd43 2.439 . S
O47 C48 1.208 . S
C48 O46 1.247 . S
C48 O47 1.208 . S
C49 O54 1.247 . S
C49 O55 1.208 . S
C50 O42 1.315 1_554 S
C50 O45 1.279 . S
C51 O52 1.315 . S
C51 O53 1.279 . S
O52 Cd44 2.223 . S
O52 C51 1.315 . S
O53 Cd43 2.240 . S
O53 C51 1.279 . S
O54 Cd44 2.297 . S
O54 C49 1.247 . S
O55 Cd44 2.439 . S
O55 C49 1.208 . S
O56 Cd57 2.223 . S
O56 C64 1.315 . S
Cd57 O56 2.223 . S
Cd57 O60 2.297 . S
Cd57 O61 2.439 . S
Cd57 O67 2.240 . S
Cd58 O59 2.240 . S
Cd58 O66 2.223 . S
Cd58 O68 2.297 . S
Cd58 O69 2.439 . S
O59 Cd58 2.240 . S
O59 C64 1.279 . S
O60 Cd57 2.297 . S
O60 C62 1.247 . S
O61 Cd57 2.439 . S
O61 C62 1.208 . S
C62 O60 1.247 . S
C62 O61 1.208 . S
C63 O68 1.247 . S
C63 O69 1.208 . S
C64 O56 1.315 . S
C64 O59 1.279 . S
C65 O66 1.315 . S
C65 O67 1.279 . S
O66 Cd58 2.223 . S
O66 C65 1.315 . S
O67 Cd57 2.240 . S
O67 C65 1.279 . S
O68 Cd58 2.297 . S
O68 C63 1.247 . S
O69 Cd58 2.439 . S
O69 C63 1.208 . S
O70 Cd71 2.223 . S
O70 C78 1.315 . S
Cd71 O70 2.223 . S
Cd71 O74 2.297 . S
Cd71 O75 2.439 . S
Cd71 O81 2.240 . S
Cd72 O73 2.240 . S
Cd72 O80 2.223 . S
Cd72 O82 2.297 . S
Cd72 O83 2.439 . S
O73 Cd72 2.240 . S
O73 C78 1.279 . S
O74 Cd71 2.297 . S
O74 C76 1.247 . S
O75 Cd71 2.439 . S
O75 C76 1.208 . S
C76 O74 1.247 . S
C76 O75 1.208 . S
C77 O82 1.247 . S
C77 O83 1.208 . S
C78 O70 1.315 . S
C78 O73 1.279 . S
C79 O80 1.315 . S
C79 O81 1.279 . S
O80 Cd72 2.223 . S
O80 C79 1.315 . S
O81 Cd71 2.240 . S
O81 C79 1.279 . S
O82 Cd72 2.297 . S
O82 C77 1.247 . S
O83 Cd72 2.439 . S
O83 C77 1.208 . S
O84 Cd85 2.223 . S
O84 C92 1.315 . S
Cd85 O84 2.223 . S
Cd85 O88 2.297 . S
Cd85 O89 2.439 . S
Cd85 O95 2.240 . S
Cd86 O87 2.240 . S
Cd86 O94 2.223 . S
Cd86 O96 2.297 . S
Cd86 O97 2.439 . S
O87 Cd86 2.240 . S
O87 C92 1.279 . S
O88 Cd85 2.297 . S
O88 C90 1.247 . S
O89 Cd85 2.439 . S
O89 C90 1.208 . S
C90 O88 1.247 . S
C90 O89 1.208 . S
C91 O96 1.247 . S
C91 O97 1.208 . S
C92 O84 1.315 . S
C92 O87 1.279 . S
C93 O94 1.315 . S
C93 O95 1.279 . S
O94 Cd86 2.223 . S
O94 C93 1.315 . S
O95 Cd85 2.240 . S
O95 C93 1.279 . S
O96 Cd86 2.297 . S
O96 C91 1.247 . S
O97 Cd86 2.439 . S
O97 C91 1.208 . S
O98 Cd99 2.223 1_554 S
O98 C106 1.315 1_554 S
Cd99 O98 2.223 1_556 S
Cd99 O102 2.297 . S
Cd99 O103 2.439 . S
Cd99 O109 2.240 . S
Cd100 O101 2.240 . S
Cd100 O108 2.223 . S
Cd100 O110 2.297 . S
Cd100 O111 2.439 . S
O101 Cd100 2.240 . S
O101 C106 1.279 . S
O102 Cd99 2.297 . S
O102 C104 1.247 . S
O103 Cd99 2.439 . S
O103 C104 1.208 . S
C104 O102 1.247 . S
C104 O103 1.208 . S
C105 O110 1.247 . S
C105 O111 1.208 . S
C106 O98 1.315 1_556 S
C106 O101 1.279 . S
C107 O108 1.315 . S
C107 O109 1.279 . S
O108 Cd100 2.223 . S
O108 C107 1.315 . S
O109 Cd99 2.240 . S
O109 C107 1.279 . S
O110 Cd100 2.297 . S
O110 C105 1.247 . S
O111 Cd100 2.439 . S
O111 C105 1.208 . S
O112 Cd113 2.223 . S
O112 C120 1.315 . S
Cd113 O112 2.223 . S
Cd113 O116 2.297 . S
Cd113 O117 2.439 . S
Cd113 O123 2.240 . S
Cd114 O115 2.240 . S
Cd114 O122 2.223 . S
Cd114 O124 2.297 . S
Cd114 O125 2.439 . S
O115 Cd114 2.240 . S
O115 C120 1.279 . S
O116 Cd113 2.297 . S
O116 C118 1.247 . S
O117 Cd113 2.439 . S
O117 C118 1.208 . S
C118 O116 1.247 . S
C118 O117 1.208 . S
C119 O124 1.247 . S
C119 O125 1.208 . S
C120 O112 1.315 . S
C120 O115 1.279 . S
C121 O122 1.315 . S
C121 O123 1.279 . S
O122 Cd114 2.223 . S
O122 C121 1.315 . S
O123 Cd113 2.240 . S
O123 C121 1.279 . S
O124 Cd114 2.297 . S
O124 C119 1.247 . S
O125 Cd114 2.439 . S
O125 C119 1.208 . S
O126 Cd127 2.223 . S
O126 C134 1.315 . S
Cd127 O126 2.223 . S
Cd127 O130 2.297 . S
Cd127 O131 2.439 . S
Cd127 O137 2.240 . S
Cd128 O129 2.240 . S
Cd128 O136 2.223 . S
Cd128 O138 2.297 . S
Cd128 O139 2.439 . S
O129 Cd128 2.240 . S
O129 C134 1.279 . S
O130 Cd127 2.297 . S
O130 C132 1.247 . S
O131 Cd127 2.439 . S
O131 C132 1.208 . S
C132 O130 1.247 . S
C132 O131 1.208 . S
C133 O138 1.247 . S
C133 O139 1.208 . S
C134 O126 1.315 . S
C134 O129 1.279 . S
C135 O136 1.315 . S
C135 O137 1.279 . S
O136 Cd128 2.223 . S
O136 C135 1.315 . S
O137 Cd127 2.240 . S
O137 C135 1.279 . S
O138 Cd128 2.297 . S
O138 C133 1.247 . S
O139 Cd128 2.439 . S
O139 C133 1.208 . S
O140 Cd141 2.223 1_554 S
O140 C148 1.315 1_554 S
Cd141 O140 2.223 1_556 S
Cd141 O144 2.297 . S
Cd141 O145 2.439 . S
Cd141 O151 2.240 . S
Cd142 O143 2.240 . S
Cd142 O150 2.223 . S
Cd142 O152 2.297 . S
Cd142 O153 2.439 . S
O143 Cd142 2.240 . S
O143 C148 1.279 . S
O144 Cd141 2.297 . S
O144 C146 1.247 . S
O145 Cd141 2.439 . S
O145 C146 1.208 . S
C146 O144 1.247 . S
C146 O145 1.208 . S
C147 O152 1.247 . S
C147 O153 1.208 . S
C148 O140 1.315 1_556 S
C148 O143 1.279 . S
C149 O150 1.315 . S
C149 O151 1.279 . S
O150 Cd142 2.223 . S
O150 C149 1.315 . S
O151 Cd141 2.240 . S
O151 C149 1.279 . S
O152 Cd142 2.297 . S
O152 C147 1.247 . S
O153 Cd142 2.439 . S
O153 C147 1.208 . S
O154 Cd155 2.223 . S
O154 C162 1.315 . S
Cd155 O154 2.223 . S
Cd155 O158 2.297 . S
Cd155 O159 2.439 . S
Cd155 O165 2.240 . S
Cd156 O157 2.240 . S
Cd156 O164 2.223 . S
Cd156 O166 2.297 . S
Cd156 O167 2.439 . S
O157 Cd156 2.240 . S
O157 C162 1.279 . S
O158 Cd155 2.297 . S
O158 C160 1.247 . S
O159 Cd155 2.439 . S
O159 C160 1.208 . S
C160 O158 1.247 . S
C160 O159 1.208 . S
C161 O166 1.247 . S
C161 O167 1.208 . S
C162 O154 1.315 . S
C162 O157 1.279 . S
C163 O164 1.315 . S
C163 O165 1.279 . S
O164 Cd156 2.223 . S
O164 C163 1.315 . S
O165 Cd155 2.240 . S
O165 C163 1.279 . S
O166 Cd156 2.297 . S
O166 C161 1.247 . S
O167 Cd156 2.439 . S
O167 C161 1.208 . S
H168 C186 0.951 . S
H169 C188 0.951 . S
H170 C190 0.950 . S
H171 C191 0.950 . S
H172 C193 0.950 . S
H173 C196 0.950 . S
H174 C197 0.950 . S
H175 C199 0.950 . S
H176 C200 0.950 . S
H177 C201 0.951 . S
H178 C203 0.951 . S
H179 C205 0.950 . S
H180 C206 0.950 . S
H181 C208 0.950 . S
H182 C211 0.950 . S
H183 C212 0.950 . S
H184 C214 0.950 . S
H185 C215 0.950 . S
C186 H168 0.951 . S
C186 C187 1.366 . S
C186 C188 1.388 . S
C187 C186 1.366 . S
C187 C191 1.385 . S
C188 H169 0.951 . S
C188 C186 1.388 . S
C188 C189 1.366 . S
C189 C188 1.366 . S
C189 C190 1.414 . S
C189 C192 1.499 . S
C190 H170 0.950 . S
C190 C189 1.414 . S
C190 C191 1.374 . S
C191 H171 0.950 . S
C191 C187 1.385 . S
C191 C190 1.374 . S
C192 C189 1.499 . S
C192 C193 1.373 . S
C192 C194 1.389 . S
C193 H172 0.950 . S
C193 C192 1.373 . S
C193 C209 1.377 . S
C194 C192 1.389 . S
C194 C195 1.524 . S
C194 C208 1.377 . S
C195 C194 1.524 . S
C195 C196 1.397 . S
C195 C200 1.363 . S
C196 H173 0.950 . S
C196 C195 1.397 . S
C196 C197 1.334 . S
C197 H174 0.950 . S
C197 C196 1.334 . S
C197 C198 1.287 . S
C198 C197 1.287 . S
C198 C199 1.524 . S
C198 H217 0.913 . S
C199 H175 0.950 . S
C199 C198 1.524 . S
C199 C200 1.415 . S
C200 H176 0.950 . S
C200 C195 1.363 . S
C200 C199 1.415 . S
C201 H177 0.951 . S
C201 C202 1.366 . S
C201 C203 1.388 . S
C202 C201 1.366 . S
C202 C206 1.385 . S
C203 H178 0.951 . S
C203 C201 1.388 . S
C203 C204 1.366 . S
C204 C203 1.366 . S
C204 C205 1.414 . S
C204 C207 1.499 . S
C205 H179 0.950 . S
C205 C204 1.414 . S
C205 C206 1.374 . S
C206 H180 0.950 . S
C206 C202 1.385 . S
C206 C205 1.374 . S
C207 C204 1.499 . S
C207 C208 1.373 . S
C207 C209 1.389 . S
C208 H181 0.950 . S
C208 C194 1.377 . S
C208 C207 1.373 . S
C209 C193 1.377 . S
C209 C207 1.389 . S
C209 C210 1.524 . S
C210 C209 1.524 . S
C210 C211 1.397 . S
C210 C215 1.363 . S
C211 H182 0.950 . S
C211 C210 1.397 . S
C211 C212 1.334 . S
C212 H183 0.950 . S
C212 C211 1.334 . S
C212 C213 1.287 . S
C213 C212 1.287 . S
C213 C214 1.524 . S
C213 H216 0.999 . S
C214 H184 0.950 . S
C214 C213 1.524 . S
C214 C215 1.415 . S
C215 H185 0.950 . S
C215 C210 1.363 . S
C215 C214 1.415 . S
H216 C213 0.999 . S
H217 C198 0.913 . S
H218 C236 0.951 . S
H219 C238 0.951 1_455 S
H220 C240 0.950 . S
H221 C241 0.950 . S
H222 C243 0.950 . S
H223 C246 0.950 . S
H224 C247 0.950 . S
H225 C249 0.950 . S
H226 C250 0.950 1_455 S
H227 C251 0.951 . S
H228 C253 0.951 1_655 S
H229 C255 0.950 . S
H230 C256 0.950 . S
H231 C258 0.950 . S
H232 C261 0.950 . S
H233 C262 0.950 . S
H234 C264 0.950 . S
H235 C265 0.950 1_655 S
C236 H218 0.951 . S
C236 C237 1.366 . S
C236 C238 1.388 . S
C237 C236 1.366 . S
C237 C241 1.385 . S
C238 H219 0.951 1_655 S
C238 C236 1.388 . S
C238 C239 1.366 . S
C239 C238 1.366 . S
C239 C240 1.414 . S
C239 C242 1.499 . S
C240 H220 0.950 . S
C240 C239 1.414 . S
C240 C241 1.374 . S
C241 H221 0.950 . S
C241 C237 1.385 . S
C241 C240 1.374 . S
C242 C239 1.499 . S
C242 C243 1.373 1_655 S
C242 C244 1.389 . S
C243 H222 0.950 . S
C243 C242 1.373 1_455 S
C243 C259 1.377 . S
C244 C242 1.389 . S
C244 C245 1.524 . S
C244 C258 1.377 . S
C245 C244 1.524 . S
C245 C246 1.397 . S
C245 C250 1.363 . S
C246 H223 0.950 . S
C246 C245 1.397 . S
C246 C247 1.334 . S
C247 H224 0.950 . S
C247 C246 1.334 . S
C247 C248 1.287 . S
C248 C247 1.287 . S
C248 C249 1.524 . S
C248 H267 0.913 . S
C249 H225 0.950 . S
C249 C248 1.524 . S
C249 C250 1.415 . S
C250 H226 0.950 1_655 S
C250 C245 1.363 . S
C250 C249 1.415 . S
C251 H227 0.951 . S
C251 C252 1.366 . S
C251 C253 1.388 . S
C252 C251 1.366 . S
C252 C256 1.385 . S
C253 H228 0.951 1_455 S
C253 C251 1.388 . S
C253 C254 1.366 . S
C254 C253 1.366 . S
C254 C255 1.414 . S
C254 C257 1.499 . S
C255 H229 0.950 . S
C255 C254 1.414 . S
C255 C256 1.374 . S
C256 H230 0.950 . S
C256 C252 1.385 . S
C256 C255 1.374 . S
C257 C254 1.499 . S
C257 C258 1.373 1_455 S
C257 C259 1.389 . S
C258 H231 0.950 . S
C258 C244 1.377 . S
C258 C257 1.373 1_655 S
C259 C243 1.377 . S
C259 C257 1.389 . S
C259 C260 1.524 . S
C260 C259 1.524 . S
C260 C261 1.397 . S
C260 C265 1.363 . S
C261 H232 0.950 . S
C261 C260 1.397 . S
C261 C262 1.334 . S
C262 H233 0.950 . S
C262 C261 1.334 . S
C262 C263 1.287 . S
C263 C262 1.287 . S
C263 C264 1.524 . S
C263 H266 0.999 . S
C264 H234 0.950 . S
C264 C263 1.524 . S
C264 C265 1.415 . S
C265 H235 0.950 1_455 S
C265 C260 1.363 . S
C265 C264 1.415 . S
H266 C263 0.999 . S
H267 C248 0.913 . S
H268 C286 0.951 . S
H269 C288 0.951 1_545 S
H270 C290 0.950 . S
H271 C291 0.950 . S
H272 C293 0.950 . S
H273 C296 0.950 . S
H274 C297 0.950 . S
H275 C299 0.950 . S
H276 C300 0.950 . S
H277 C301 0.951 . S
H278 C303 0.951 1_565 S
H279 C305 0.950 . S
H280 C306 0.950 . S
H281 C308 0.950 . S
H282 C311 0.950 . S
H283 C312 0.950 . S
H284 C314 0.950 . S
H285 C315 0.950 . S
C286 H268 0.951 . S
C286 C287 1.366 . S
C286 C288 1.388 . S
C287 C286 1.366 . S
C287 C291 1.385 . S
C288 H269 0.951 1_565 S
C288 C286 1.388 . S
C288 C289 1.366 . S
C289 C288 1.366 . S
C289 C290 1.414 . S
C289 C292 1.499 . S
C290 H270 0.950 . S
C290 C289 1.414 . S
C290 C291 1.374 . S
C291 H271 0.950 . S
C291 C287 1.385 . S
C291 C290 1.374 . S
C292 C289 1.499 . S
C292 C293 1.373 . S
C292 C294 1.389 1_565 S
C293 H272 0.950 . S
C293 C292 1.373 . S
C293 C309 1.377 1_556 S
C294 C292 1.389 1_545 S
C294 C295 1.524 . S
C294 C308 1.377 1_556 S
C295 C294 1.524 . S
C295 C296 1.397 . S
C295 C300 1.363 . S
C296 H273 0.950 . S
C296 C295 1.397 . S
C296 C297 1.334 . S
C297 H274 0.950 . S
C297 C296 1.334 . S
C297 C298 1.287 . S
C298 C297 1.287 . S
C298 C299 1.524 . S
C298 H317 0.913 . S
C299 H275 0.950 . S
C299 C298 1.524 . S
C299 C300 1.415 . S
C300 H276 0.950 . S
C300 C295 1.363 . S
C300 C299 1.415 . S
C301 H277 0.951 . S
C301 C302 1.366 . S
C301 C303 1.388 . S
C302 C301 1.366 . S
C302 C306 1.385 . S
C303 H278 0.951 1_545 S
C303 C301 1.388 . S
C303 C304 1.366 . S
C304 C303 1.366 . S
C304 C305 1.414 . S
C304 C307 1.499 . S
C305 H279 0.950 . S
C305 C304 1.414 . S
C305 C306 1.374 . S
C306 H280 0.950 . S
C306 C302 1.385 . S
C306 C305 1.374 . S
C307 C304 1.499 . S
C307 C308 1.373 . S
C307 C309 1.389 1_545 S
C308 H281 0.950 . S
C308 C294 1.377 1_554 S
C308 C307 1.373 . S
C309 C293 1.377 1_554 S
C309 C307 1.389 1_565 S
C309 C310 1.524 . S
C310 C309 1.524 . S
C310 C311 1.397 . S
C310 C315 1.363 . S
C311 H282 0.950 . S
C311 C310 1.397 . S
C311 C312 1.334 . S
C312 H283 0.950 . S
C312 C311 1.334 . S
C312 C313 1.287 . S
C313 C312 1.287 . S
C313 C314 1.524 . S
C313 H316 0.999 . S
C314 H284 0.950 . S
C314 C313 1.524 . S
C314 C315 1.415 . S
C315 H285 0.950 . S
C315 C310 1.363 . S
C315 C314 1.415 . S
H316 C313 0.999 . S
H317 C298 0.913 . S
H318 C336 0.951 . S
H319 C338 0.951 . S
H320 C340 0.950 . S
H321 C341 0.950 . S
H322 C343 0.950 . S
H323 C346 0.950 . S
H324 C347 0.950 . S
H325 C349 0.950 . S
H326 C350 0.950 . S
H327 C351 0.951 . S
H328 C353 0.951 . S
H329 C355 0.950 . S
H330 C356 0.950 . S
H331 C358 0.950 . S
H332 C361 0.950 . S
H333 C362 0.950 . S
H334 C364 0.950 . S
H335 C365 0.950 . S
C336 H318 0.951 . S
C336 C337 1.366 . S
C336 C338 1.388 . S
C337 C336 1.366 . S
C337 C341 1.385 . S
C338 H319 0.951 . S
C338 C336 1.388 . S
C338 C339 1.366 . S
C339 C338 1.366 . S
C339 C340 1.414 . S
C339 C342 1.499 . S
C340 H320 0.950 . S
C340 C339 1.414 . S
C340 C341 1.374 . S
C341 H321 0.950 . S
C341 C337 1.385 . S
C341 C340 1.374 . S
C342 C339 1.499 . S
C342 C343 1.373 . S
C342 C344 1.389 . S
C343 H322 0.950 . S
C343 C342 1.373 . S
C343 C359 1.377 . S
C344 C342 1.389 . S
C344 C345 1.524 . S
C344 C358 1.377 . S
C345 C344 1.524 . S
C345 C346 1.397 . S
C345 C350 1.363 . S
C346 H323 0.950 . S
C346 C345 1.397 . S
C346 C347 1.334 . S
C347 H324 0.950 . S
C347 C346 1.334 . S
C347 C348 1.287 . S
C348 C347 1.287 . S
C348 C349 1.524 . S
C348 H367 0.913 . S
C349 H325 0.950 . S
C349 C348 1.524 . S
C349 C350 1.415 . S
C350 H326 0.950 . S
C350 C345 1.363 . S
C350 C349 1.415 . S
C351 H327 0.951 . S
C351 C352 1.366 . S
C351 C353 1.388 . S
C352 C351 1.366 . S
C352 C356 1.385 . S
C353 H328 0.951 . S
C353 C351 1.388 . S
C353 C354 1.366 . S
C354 C353 1.366 . S
C354 C355 1.414 . S
C354 C357 1.499 . S
C355 H329 0.950 . S
C355 C354 1.414 . S
C355 C356 1.374 . S
C356 H330 0.950 . S
C356 C352 1.385 . S
C356 C355 1.374 . S
C357 C354 1.499 . S
C357 C358 1.373 . S
C357 C359 1.389 . S
C358 H331 0.950 . S
C358 C344 1.377 . S
C358 C357 1.373 . S
C359 C343 1.377 . S
C359 C357 1.389 . S
C359 C360 1.524 . S
C360 C359 1.524 . S
C360 C361 1.397 . S
C360 C365 1.363 . S
C361 H332 0.950 . S
C361 C360 1.397 . S
C361 C362 1.334 . S
C362 H333 0.950 . S
C362 C361 1.334 . S
C362 C363 1.287 . S
C363 C362 1.287 . S
C363 C364 1.524 . S
C363 H366 0.999 . S
C364 H334 0.950 . S
C364 C363 1.524 . S
C364 C365 1.415 . S
C365 H335 0.950 . S
C365 C360 1.363 . S
C365 C364 1.415 . S
H366 C363 0.999 . S
H367 C348 0.913 . S
H368 C386 0.951 1_455 S
H369 C388 0.951 . S
H370 C390 0.950 . S
H371 C391 0.950 . S
H372 C393 0.950 . S
H373 C396 0.950 . S
H374 C397 0.950 . S
H375 C399 0.950 . S
H376 C400 0.950 . S
H377 C401 0.951 1_655 S
H378 C403 0.951 . S
H379 C405 0.950 . S
H380 C406 0.950 . S
H381 C408 0.950 . S
H382 C411 0.950 . S
H383 C412 0.950 . S
H384 C414 0.950 . S
H385 C415 0.950 . S
C386 H368 0.951 1_655 S
C386 C387 1.366 . S
C386 C388 1.388 1_655 S
C387 C386 1.366 . S
C387 C391 1.385 . S
C388 H369 0.951 . S
C388 C386 1.388 1_455 S
C388 C389 1.366 1_455 S
C389 C388 1.366 1_655 S
C389 C390 1.414 . S
C389 C392 1.499 . S
C390 H370 0.950 . S
C390 C389 1.414 . S
C390 C391 1.374 . S
C391 H371 0.950 . S
C391 C387 1.385 . S
C391 C390 1.374 . S
C392 C389 1.499 . S
C392 C393 1.373 . S
C392 C394 1.389 1_655 S
C393 H372 0.950 . S
C393 C392 1.373 . S
C393 C409 1.377 . S
C394 C392 1.389 1_455 S
C394 C395 1.524 . S
C394 C408 1.377 . S
C395 C394 1.524 . S
C395 C396 1.397 . S
C395 C400 1.363 . S
C396 H373 0.950 . S
C396 C395 1.397 . S
C396 C397 1.334 . S
C397 H374 0.950 . S
C397 C396 1.334 . S
C397 C398 1.287 . S
C398 C397 1.287 . S
C398 C399 1.524 . S
C398 H417 0.913 . S
C399 H375 0.950 . S
C399 C398 1.524 . S
C399 C400 1.415 . S
C400 H376 0.950 . S
C400 C395 1.363 . S
C400 C399 1.415 . S
C401 H377 0.951 1_455 S
C401 C402 1.366 . S
C401 C403 1.388 1_455 S
C402 C401 1.366 . S
C402 C406 1.385 . S
C403 H378 0.951 . S
C403 C401 1.388 1_655 S
C403 C404 1.366 1_655 S
C404 C403 1.366 1_455 S
C404 C405 1.414 . S
C404 C407 1.499 . S
C405 H379 0.950 . S
C405 C404 1.414 . S
C405 C406 1.374 . S
C406 H380 0.950 . S
C406 C402 1.385 . S
C406 C405 1.374 . S
C407 C404 1.499 . S
C407 C408 1.373 . S
C407 C409 1.389 1_455 S
C408 H381 0.950 . S
C408 C394 1.377 . S
C408 C407 1.373 . S
C409 C393 1.377 . S
C409 C407 1.389 1_655 S
C409 C410 1.524 . S
C410 C409 1.524 . S
C410 C411 1.397 . S
C410 C415 1.363 . S
C411 H382 0.950 . S
C411 C410 1.397 . S
C411 C412 1.334 . S
C412 H383 0.950 . S
C412 C411 1.334 . S
C412 C413 1.287 . S
C413 C412 1.287 . S
C413 C414 1.524 . S
C413 H416 0.999 . S
C414 H384 0.950 . S
C414 C413 1.524 . S
C414 C415 1.415 . S
C415 H385 0.950 . S
C415 C410 1.363 . S
C415 C414 1.415 . S
H416 C413 0.999 . S
H417 C398 0.913 . S
H418 C436 0.951 . S
H419 C438 0.951 . S
H420 C440 0.950 . S
H421 C441 0.909 1_545 S
H422 C443 0.950 . S
H423 C446 0.938 1_545 S
H424 C447 0.950 1_545 S
H425 C449 0.950 . S
H426 C450 0.950 1_556 S
H427 C451 0.951 . S
H428 C453 0.951 . S
H429 C455 0.950 . S
H430 C456 0.909 1_565 S
H431 C458 0.950 . S
H432 C461 0.939 1_565 S
H433 C462 0.950 1_565 S
H434 C464 0.950 . S
H435 C465 0.950 1_554 S
C436 H418 0.951 . S
C436 C437 1.366 . S
C436 C438 1.388 . S
C437 C436 1.366 . S
C437 C441 1.438 . S
C438 H419 0.951 . S
C438 C436 1.388 . S
C438 C439 1.366 . S
C439 C438 1.366 . S
C439 C440 1.414 1_565 S
C439 C442 1.499 . S
C440 H420 0.950 . S
C440 C439 1.414 1_545 S
C440 C441 1.363 1_545 S
C441 H421 0.909 1_565 S
C441 C437 1.438 . S
C441 C440 1.363 1_565 S
C442 C439 1.499 . S
C442 C443 1.373 1_565 S
C442 C444 1.389 . S
C443 H422 0.950 . S
C443 C442 1.373 1_545 S
C443 C459 1.377 1_554 S
C444 C442 1.389 . S
C444 C445 1.524 . S
C444 C458 1.377 1_554 S
C445 C444 1.524 . S
C445 C446 1.401 . S
C445 C450 1.363 . S
C446 H423 0.938 1_565 S
C446 C445 1.401 . S
C446 C447 1.341 . S
C447 H424 0.950 1_565 S
C447 C446 1.341 . S
C447 C448 1.287 . S
C448 C447 1.287 . S
C448 C449 1.524 . S
C448 H467 0.913 . S
C449 H425 0.950 . S
C449 C448 1.524 . S
C449 C450 1.415 . S
C450 H426 0.950 1_554 S
C450 C445 1.363 . S
C450 C449 1.415 . S
C451 H427 0.951 . S
C451 C452 1.366 . S
C451 C453 1.388 . S
C452 C451 1.366 . S
C452 C456 1.438 . S
C453 H428 0.951 . S
C453 C451 1.388 . S
C453 C454 1.366 . S
C454 C453 1.366 . S
C454 C455 1.414 1_545 S
C454 C457 1.499 . S
C455 H429 0.950 . S
C455 C454 1.414 1_565 S
C455 C456 1.363 1_565 S
C456 H430 0.909 1_545 S
C456 C452 1.438 . S
C456 C455 1.363 1_545 S
C457 C454 1.499 . S
C457 C458 1.373 1_545 S
C457 C459 1.389 . S
C458 H431 0.950 . S
C458 C444 1.377 1_556 S
C458 C457 1.373 1_565 S
C459 C443 1.377 1_556 S
C459 C457 1.389 . S
C459 C460 1.524 . S
C460 C459 1.524 . S
C460 C461 1.401 . S
C460 C465 1.363 . S
C461 H432 0.939 1_545 S
C461 C460 1.401 . S
C461 C462 1.341 . S
C462 H433 0.950 1_545 S
C462 C461 1.341 . S
C462 C463 1.287 . S
C463 C462 1.287 . S
C463 C464 1.524 . S
C463 H466 0.999 . S
C464 H434 0.950 . S
C464 C463 1.524 . S
C464 C465 1.415 . S
C465 H435 0.950 1_556 S
C465 C460 1.363 . S
C465 C464 1.415 . S
H466 C463 0.999 . S
H467 C448 0.913 . S
H468 C486 0.951 1_554 S
H469 C488 0.951 . S
H470 C490 0.950 . S
H471 C491 0.950 . S
H472 C493 0.950 . S
H473 C496 0.950 . S
H474 C497 0.950 1_556 S
H475 C499 0.950 . S
H476 C500 0.950 . S
H477 C501 0.951 1_556 S
H478 C503 0.951 . S
H479 C505 0.950 . S
H480 C506 0.950 . S
H481 C508 0.950 . S
H482 C511 0.950 . S
H483 C512 0.950 1_554 S
H484 C514 0.950 . S
H485 C515 0.950 . S
C486 H468 0.951 1_556 S
C486 C487 1.366 . S
C486 C488 1.388 1_556 S
C487 C486 1.366 . S
C487 C491 1.385 . S
C488 H469 0.951 . S
C488 C486 1.388 1_554 S
C488 C489 1.366 1_554 S
C489 C488 1.366 1_556 S
C489 C490 1.414 . S
C489 C492 1.499 . S
C490 H470 0.950 . S
C490 C489 1.414 . S
C490 C491 1.374 . S
C491 H471 0.950 . S
C491 C487 1.385 . S
C491 C490 1.374 . S
C492 C489 1.499 . S
C492 C493 1.373 . S
C492 C494 1.389 1_556 S
C493 H472 0.950 . S
C493 C492 1.373 . S
C493 C509 1.377 . S
C494 C492 1.389 1_554 S
C494 C495 1.524 . S
C494 C508 1.377 . S
C495 C494 1.524 . S
C495 C496 1.397 1_554 S
C495 C500 1.363 . S
C496 H473 0.950 . S
C496 C495 1.397 1_556 S
C496 C497 1.334 1_556 S
C497 H474 0.950 1_554 S
C497 C496 1.334 1_554 S
C497 C498 1.287 . S
C498 C497 1.287 . S
C498 C499 1.524 . S
C498 H517 0.913 . S
C499 H475 0.950 . S
C499 C498 1.524 . S
C499 C500 1.415 . S
C500 H476 0.950 . S
C500 C495 1.363 . S
C500 C499 1.415 . S
C501 H477 0.951 1_554 S
C501 C502 1.366 . S
C501 C503 1.388 1_554 S
C502 C501 1.366 . S
C502 C506 1.385 . S
C503 H478 0.951 . S
C503 C501 1.388 1_556 S
C503 C504 1.366 1_556 S
C504 C503 1.366 1_554 S
C504 C505 1.414 . S
C504 C507 1.499 . S
C505 H479 0.950 . S
C505 C504 1.414 . S
C505 C506 1.374 . S
C506 H480 0.950 . S
C506 C502 1.385 . S
C506 C505 1.374 . S
C507 C504 1.499 . S
C507 C508 1.373 . S
C507 C509 1.389 1_554 S
C508 H481 0.950 . S
C508 C494 1.377 . S
C508 C507 1.373 . S
C509 C493 1.377 . S
C509 C507 1.389 1_556 S
C509 C510 1.524 . S
C510 C509 1.524 . S
C510 C511 1.397 1_556 S
C510 C515 1.363 . S
C511 H482 0.950 . S
C511 C510 1.397 1_554 S
C511 C512 1.334 1_554 S
C512 H483 0.950 1_556 S
C512 C511 1.334 1_556 S
C512 C513 1.287 . S
C513 C512 1.287 . S
C513 C514 1.524 . S
C513 H516 0.999 . S
C514 H484 0.950 . S
C514 C513 1.524 . S
C514 C515 1.415 . S
C515 H485 0.950 . S
C515 C510 1.363 . S
C515 C514 1.415 . S
H516 C513 0.999 . S
H517 C498 0.913 . S
H518 C536 0.951 . S
H519 C538 0.951 . S
H520 C540 0.950 . S
H521 C541 0.950 . S
H522 C543 0.950 . S
H523 C546 0.950 . S
H524 C547 0.950 . S
H525 C549 0.950 . S
H526 C550 0.950 . S
H527 C551 0.951 . S
H528 C553 0.951 . S
H529 C555 0.950 . S
H530 C556 0.950 . S
H531 C558 0.950 . S
H532 C561 0.950 . S
H533 C562 0.950 . S
H534 C564 0.950 . S
H535 C565 0.950 . S
C536 H518 0.951 . S
C536 C537 1.366 . S
C536 C538 1.388 . S
C537 C536 1.366 . S
C537 C541 1.385 . S
C538 H519 0.951 . S
C538 C536 1.388 . S
C538 C539 1.366 . S
C539 C538 1.366 . S
C539 C540 1.414 . S
C539 C542 1.499 . S
C540 H520 0.950 . S
C540 C539 1.414 . S
C540 C541 1.374 . S
C541 H521 0.950 . S
C541 C537 1.385 . S
C541 C540 1.374 . S
C542 C539 1.499 . S
C542 C543 1.373 . S
C542 C544 1.389 . S
C543 H522 0.950 . S
C543 C542 1.373 . S
C543 C559 1.377 . S
C544 C542 1.389 . S
C544 C545 1.524 . S
C544 C558 1.377 . S
C545 C544 1.524 . S
C545 C546 1.397 . S
C545 C550 1.363 . S
C546 H523 0.950 . S
C546 C545 1.397 . S
C546 C547 1.334 . S
C547 H524 0.950 . S
C547 C546 1.334 . S
C547 C548 1.287 . S
C548 C547 1.287 . S
C548 C549 1.524 . S
C548 H567 0.913 . S
C549 H525 0.950 . S
C549 C548 1.524 . S
C549 C550 1.415 . S
C550 H526 0.950 . S
C550 C545 1.363 . S
C550 C549 1.415 . S
C551 H527 0.951 . S
C551 C552 1.366 . S
C551 C553 1.388 . S
C552 C551 1.366 . S
C552 C556 1.385 . S
C553 H528 0.951 . S
C553 C551 1.388 . S
C553 C554 1.366 . S
C554 C553 1.366 . S
C554 C555 1.414 . S
C554 C557 1.499 . S
C555 H529 0.950 . S
C555 C554 1.414 . S
C555 C556 1.374 . S
C556 H530 0.950 . S
C556 C552 1.385 . S
C556 C555 1.374 . S
C557 C554 1.499 . S
C557 C558 1.373 . S
C557 C559 1.389 . S
C558 H531 0.950 . S
C558 C544 1.377 . S
C558 C557 1.373 . S
C559 C543 1.377 . S
C559 C557 1.389 . S
C559 C560 1.524 . S
C560 C559 1.524 . S
C560 C561 1.397 . S
C560 C565 1.363 . S
C561 H532 0.950 . S
C561 C560 1.397 . S
C561 C562 1.334 . S
C562 H533 0.950 . S
C562 C561 1.334 . S
C562 C563 1.287 . S
C563 C562 1.287 . S
C563 C564 1.524 . S
C563 H566 0.999 . S
C564 H534 0.950 . S
C564 C563 1.524 . S
C564 C565 1.415 . S
C565 H535 0.950 . S
C565 C560 1.363 . S
C565 C564 1.415 . S
H566 C563 0.999 . S
H567 C548 0.913 . S
H568 C586 0.951 . S
H569 C588 0.951 . S
H570 C590 0.950 . S
H571 C591 0.950 . S
H572 C593 0.950 . S
H573 C596 0.950 . S
H574 C597 0.950 . S
H575 C599 0.950 . S
H576 C600 0.950 . S
H577 C601 0.951 . S
H578 C603 0.951 . S
H579 C605 0.950 . S
H580 C606 0.950 . S
H581 C608 0.950 . S
H582 C611 0.950 . S
H583 C612 0.950 . S
H584 C614 0.950 . S
H585 C615 0.950 . S
C586 H568 0.951 . S
C586 C587 1.366 . S
C586 C588 1.388 . S
C587 C586 1.366 . S
C587 C591 1.385 . S
C588 H569 0.951 . S
C588 C586 1.388 . S
C588 C589 1.366 . S
C589 C588 1.366 . S
C589 C590 1.414 . S
C589 C592 1.499 . S
C590 H570 0.950 . S
C590 C589 1.414 . S
C590 C591 1.374 . S
C591 H571 0.950 . S
C591 C587 1.385 . S
C591 C590 1.374 . S
C592 C589 1.499 . S
C592 C593 1.373 . S
C592 C594 1.389 . S
C593 H572 0.950 . S
C593 C592 1.373 . S
C593 C609 1.377 . S
C594 C592 1.389 . S
C594 C595 1.524 . S
C594 C608 1.377 . S
C595 C594 1.524 . S
C595 C596 1.397 . S
C595 C600 1.363 . S
C596 H573 0.950 . S
C596 C595 1.397 . S
C596 C597 1.334 . S
C597 H574 0.950 . S
C597 C596 1.334 . S
C597 C598 1.287 . S
C598 C597 1.287 . S
C598 C599 1.524 . S
C598 H617 0.913 . S
C599 H575 0.950 . S
C599 C598 1.524 . S
C599 C600 1.415 . S
C600 H576 0.950 . S
C600 C595 1.363 . S
C600 C599 1.415 . S
C601 H577 0.951 . S
C601 C602 1.366 . S
C601 C603 1.388 . S
C602 C601 1.366 . S
C602 C606 1.385 . S
C603 H578 0.951 . S
C603 C601 1.388 . S
C603 C604 1.366 . S
C604 C603 1.366 . S
C604 C605 1.414 . S
C604 C607 1.499 . S
C605 H579 0.950 . S
C605 C604 1.414 . S
C605 C606 1.374 . S
C606 H580 0.950 . S
C606 C602 1.385 . S
C606 C605 1.374 . S
C607 C604 1.499 . S
C607 C608 1.373 . S
C607 C609 1.389 . S
C608 H581 0.950 . S
C608 C594 1.377 . S
C608 C607 1.373 . S
C609 C593 1.377 . S
C609 C607 1.389 . S
C609 C610 1.524 . S
C610 C609 1.524 . S
C610 C611 1.397 . S
C610 C615 1.363 . S
C611 H582 0.950 . S
C611 C610 1.397 . S
C611 C612 1.334 . S
C612 H583 0.950 . S
C612 C611 1.334 . S
C612 C613 1.287 . S
C613 C612 1.287 . S
C613 C614 1.524 . S
C613 H616 0.999 . S
C614 H584 0.950 . S
C614 C613 1.524 . S
C614 C615 1.415 . S
C615 H585 0.950 . S
C615 C610 1.363 . S
C615 C614 1.415 . S
H616 C613 0.999 . S
H617 C598 0.913 . S
H618 C636 0.951 1_556 S
H619 C638 0.951 . S
H620 C640 0.950 . S
H621 C641 0.950 . S
H622 C643 0.950 . S
H623 C646 0.950 1_554 S
H624 C647 0.950 . S
H625 C649 0.950 . S
H626 C650 0.950 . S
H627 C651 0.951 1_554 S
H628 C653 0.951 . S
H629 C655 0.950 . S
H630 C656 0.950 . S
H631 C658 0.950 . S
H632 C661 0.950 1_556 S
H633 C662 0.950 . S
H634 C664 0.950 . S
H635 C665 0.950 . S
C636 H618 0.951 1_554 S
C636 C637 1.366 . S
C636 C638 1.388 1_554 S
C637 C636 1.366 . S
C637 C641 1.385 . S
C638 H619 0.951 . S
C638 C636 1.388 1_556 S
C638 C639 1.366 1_556 S
C639 C638 1.366 1_554 S
C639 C640 1.414 . S
C639 C642 1.499 . S
C640 H620 0.950 . S
C640 C639 1.414 . S
C640 C641 1.374 . S
C641 H621 0.950 . S
C641 C637 1.385 . S
C641 C640 1.374 . S
C642 C639 1.499 . S
C642 C643 1.373 . S
C642 C644 1.389 1_554 S
C643 H622 0.950 . S
C643 C642 1.373 . S
C643 C659 1.377 . S
C644 C642 1.389 1_556 S
C644 C645 1.524 . S
C644 C658 1.377 . S
C645 C644 1.524 . S
C645 C646 1.397 . S
C645 C650 1.363 . S
C646 H623 0.950 1_556 S
C646 C645 1.397 . S
C646 C647 1.334 . S
C647 H624 0.950 . S
C647 C646 1.334 . S
C647 C648 1.287 . S
C648 C647 1.287 . S
C648 C649 1.524 . S
C648 H667 0.913 . S
C649 H625 0.950 . S
C649 C648 1.524 . S
C649 C650 1.415 . S
C650 H626 0.950 . S
C650 C645 1.363 . S
C650 C649 1.415 . S
C651 H627 0.951 1_556 S
C651 C652 1.366 . S
C651 C653 1.388 1_556 S
C652 C651 1.366 . S
C652 C656 1.385 . S
C653 H628 0.951 . S
C653 C651 1.388 1_554 S
C653 C654 1.366 1_554 S
C654 C653 1.366 1_556 S
C654 C655 1.414 . S
C654 C657 1.499 . S
C655 H629 0.950 . S
C655 C654 1.414 . S
C655 C656 1.374 . S
C656 H630 0.950 . S
C656 C652 1.385 . S
C656 C655 1.374 . S
C657 C654 1.499 . S
C657 C658 1.373 . S
C657 C659 1.389 1_556 S
C658 H631 0.950 . S
C658 C644 1.377 . S
C658 C657 1.373 . S
C659 C643 1.377 . S
C659 C657 1.389 1_554 S
C659 C660 1.524 . S
C660 C659 1.524 . S
C660 C661 1.397 . S
C660 C665 1.363 . S
C661 H632 0.950 1_554 S
C661 C660 1.397 . S
C661 C662 1.334 . S
C662 H633 0.950 . S
C662 C661 1.334 . S
C662 C663 1.287 . S
C663 C662 1.287 . S
C663 C664 1.524 . S
C663 H666 0.999 . S
C664 H634 0.950 . S
C664 C663 1.524 . S
C664 C665 1.415 . S
C665 H635 0.950 . S
C665 C660 1.363 . S
C665 C664 1.415 . S
H666 C663 0.999 . S
H667 C648 0.913 . S
H668 C686 0.951 . S
H669 C688 0.951 . S
H670 C690 0.950 . S
H671 C691 0.950 . S
H672 C693 0.950 . S
H673 C696 0.950 . S
H674 C697 0.950 . S
H675 C699 0.950 . S
H676 C700 0.950 . S
H677 C701 0.951 . S
H678 C703 0.951 . S
H679 C705 0.950 . S
H680 C706 0.950 . S
H681 C708 0.950 . S
H682 C711 0.950 . S
H683 C712 0.950 . S
H684 C714 0.950 . S
H685 C715 0.950 . S
C686 H668 0.951 . S
C686 C687 1.366 . S
C686 C688 1.388 . S
C687 C686 1.366 . S
C687 C691 1.385 . S
C688 H669 0.951 . S
C688 C686 1.388 . S
C688 C689 1.366 . S
C689 C688 1.366 . S
C689 C690 1.414 . S
C689 C692 1.499 . S
C690 H670 0.950 . S
C690 C689 1.414 . S
C690 C691 1.374 . S
C691 H671 0.950 . S
C691 C687 1.385 . S
C691 C690 1.374 . S
C692 C689 1.499 . S
C692 C693 1.373 . S
C692 C694 1.389 . S
C693 H672 0.950 . S
C693 C692 1.373 . S
C693 C709 1.377 . S
C694 C692 1.389 . S
C694 C695 1.524 . S
C694 C708 1.377 . S
C695 C694 1.524 . S
C695 C696 1.397 . S
C695 C700 1.363 . S
C696 H673 0.950 . S
C696 C695 1.397 . S
C696 C697 1.334 . S
C697 H674 0.950 . S
C697 C696 1.334 . S
C697 C698 1.287 . S
C698 C697 1.287 . S
C698 C699 1.524 . S
C698 H717 0.913 . S
C699 H675 0.950 . S
C699 C698 1.524 . S
C699 C700 1.415 . S
C700 H676 0.950 . S
C700 C695 1.363 . S
C700 C699 1.415 . S
C701 H677 0.951 . S
C701 C702 1.366 . S
C701 C703 1.388 . S
C702 C701 1.366 . S
C702 C706 1.385 . S
C703 H678 0.951 . S
C703 C701 1.388 . S
C703 C704 1.366 . S
C704 C703 1.366 . S
C704 C705 1.414 . S
C704 C707 1.499 . S
C705 H679 0.950 . S
C705 C704 1.414 . S
C705 C706 1.374 . S
C706 H680 0.950 . S
C706 C702 1.385 . S
C706 C705 1.374 . S
C707 C704 1.499 . S
C707 C708 1.373 . S
C707 C709 1.389 . S
C708 H681 0.950 . S
C708 C694 1.377 . S
C708 C707 1.373 . S
C709 C693 1.377 . S
C709 C707 1.389 . S
C709 C710 1.524 . S
C710 C709 1.524 . S
C710 C711 1.397 . S
C710 C715 1.363 . S
C711 H682 0.950 . S
C711 C710 1.397 . S
C711 C712 1.334 . S
C712 H683 0.950 . S
C712 C711 1.334 . S
C712 C713 1.287 . S
C713 C712 1.287 . S
C713 C714 1.524 . S
C713 H716 0.999 . S
C714 H684 0.950 . S
C714 C713 1.524 . S
C714 C715 1.415 . S
C715 H685 0.950 . S
C715 C710 1.363 . S
C715 C714 1.415 . S
H716 C713 0.999 . S
H717 C698 0.913 . S
H718 C736 0.951 . S
H719 C738 0.951 . S
H720 C740 0.950 . S
H721 C741 0.950 . S
H722 C743 0.950 . S
H723 C746 0.950 . S
H724 C747 0.950 . S
H725 C749 0.950 . S
H726 C750 0.950 . S
H727 C751 0.951 . S
H728 C753 0.951 . S
H729 C755 0.950 . S
H730 C756 0.950 . S
H731 C758 0.950 . S
H732 C761 0.950 . S
H733 C762 0.950 . S
H734 C764 0.950 . S
H735 C765 0.950 . S
C736 H718 0.951 . S
C736 C737 1.366 . S
C736 C738 1.388 . S
C737 C736 1.366 . S
C737 C741 1.385 . S
C738 H719 0.951 . S
C738 C736 1.388 . S
C738 C739 1.366 . S
C739 C738 1.366 . S
C739 C740 1.414 . S
C739 C742 1.499 . S
C740 H720 0.950 . S
C740 C739 1.414 . S
C740 C741 1.374 . S
C741 H721 0.950 . S
C741 C737 1.385 . S
C741 C740 1.374 . S
C742 C739 1.499 . S
C742 C743 1.373 . S
C742 C744 1.389 . S
C743 H722 0.950 . S
C743 C742 1.373 . S
C743 C759 1.377 . S
C744 C742 1.389 . S
C744 C745 1.524 . S
C744 C758 1.377 . S
C745 C744 1.524 . S
C745 C746 1.397 . S
C745 C750 1.363 . S
C746 H723 0.950 . S
C746 C745 1.397 . S
C746 C747 1.334 . S
C747 H724 0.950 . S
C747 C746 1.334 . S
C747 C748 1.287 . S
C748 C747 1.287 . S
C748 C749 1.524 . S
C748 H767 0.913 . S
C749 H725 0.950 . S
C749 C748 1.524 . S
C749 C750 1.415 . S
C750 H726 0.950 . S
C750 C745 1.363 . S
C750 C749 1.415 . S
C751 H727 0.951 . S
C751 C752 1.366 . S
C751 C753 1.388 . S
C752 C751 1.366 . S
C752 C756 1.385 . S
C753 H728 0.951 . S
C753 C751 1.388 . S
C753 C754 1.366 . S
C754 C753 1.366 . S
C754 C755 1.414 . S
C754 C757 1.499 . S
C755 H729 0.950 . S
C755 C754 1.414 . S
C755 C756 1.374 . S
C756 H730 0.950 . S
C756 C752 1.385 . S
C756 C755 1.374 . S
C757 C754 1.499 . S
C757 C758 1.373 . S
C757 C759 1.389 . S
C758 H731 0.950 . S
C758 C744 1.377 . S
C758 C757 1.373 . S
C759 C743 1.377 . S
C759 C757 1.389 . S
C759 C760 1.524 . S
C760 C759 1.524 . S
C760 C761 1.397 . S
C760 C765 1.363 . S
C761 H732 0.950 . S
C761 C760 1.397 . S
C761 C762 1.334 . S
C762 H733 0.950 . S
C762 C761 1.334 . S
C762 C763 1.287 . S
C763 C762 1.287 . S
C763 C764 1.524 . S
C763 H766 0.999 . S
C764 H734 0.950 . S
C764 C763 1.524 . S
C764 C765 1.415 . S
C765 H735 0.950 . S
C765 C760 1.363 . S
C765 C764 1.415 . S
H766 C763 0.999 . S
H767 C748 0.913 . S
H768 C786 0.951 . S
H769 C788 0.951 . S
H770 C790 0.950 . S
H771 C791 0.950 . S
H772 C793 0.950 . S
H773 C796 0.950 . S
H774 C797 0.950 . S
H775 C799 0.950 . S
H776 C800 0.950 . S
H777 C801 0.951 . S
H778 C803 0.951 . S
H779 C805 0.950 . S
H780 C806 0.950 . S
H781 C808 0.950 . S
H782 C811 0.950 . S
H783 C812 0.950 . S
H784 C814 0.950 . S
H785 C815 0.950 . S
C786 H768 0.951 . S
C786 C787 1.366 . S
C786 C788 1.388 . S
C787 C786 1.366 . S
C787 C791 1.385 . S
C788 H769 0.951 . S
C788 C786 1.388 . S
C788 C789 1.366 . S
C789 C788 1.366 . S
C789 C790 1.414 . S
C789 C792 1.499 . S
C790 H770 0.950 . S
C790 C789 1.414 . S
C790 C791 1.374 . S
C791 H771 0.950 . S
C791 C787 1.385 . S
C791 C790 1.374 . S
C792 C789 1.499 . S
C792 C793 1.373 . S
C792 C794 1.389 . S
C793 H772 0.950 . S
C793 C792 1.373 . S
C793 C809 1.377 . S
C794 C792 1.389 . S
C794 C795 1.524 . S
C794 C808 1.377 . S
C795 C794 1.524 . S
C795 C796 1.397 . S
C795 C800 1.363 . S
C796 H773 0.950 . S
C796 C795 1.397 . S
C796 C797 1.334 . S
C797 H774 0.950 . S
C797 C796 1.334 . S
C797 C798 1.287 . S
C798 C797 1.287 . S
C798 C799 1.524 . S
C798 H817 0.913 . S
C799 H775 0.950 . S
C799 C798 1.524 . S
C799 C800 1.415 . S
C800 H776 0.950 . S
C800 C795 1.363 . S
C800 C799 1.415 . S
C801 H777 0.951 . S
C801 C802 1.366 . S
C801 C803 1.388 . S
C802 C801 1.366 . S
C802 C806 1.385 . S
C803 H778 0.951 . S
C803 C801 1.388 . S
C803 C804 1.366 . S
C804 C803 1.366 . S
C804 C805 1.414 . S
C804 C807 1.499 . S
C805 H779 0.950 . S
C805 C804 1.414 . S
C805 C806 1.374 . S
C806 H780 0.950 . S
C806 C802 1.385 . S
C806 C805 1.374 . S
C807 C804 1.499 . S
C807 C808 1.373 . S
C807 C809 1.389 . S
C808 H781 0.950 . S
C808 C794 1.377 . S
C808 C807 1.373 . S
C809 C793 1.377 . S
C809 C807 1.389 . S
C809 C810 1.524 . S
C810 C809 1.524 . S
C810 C811 1.397 . S
C810 C815 1.363 . S
C811 H782 0.950 . S
C811 C810 1.397 . S
C811 C812 1.334 . S
C812 H783 0.950 . S
C812 C811 1.334 . S
C812 C813 1.287 . S
C813 C812 1.287 . S
C813 C814 1.524 . S
C813 H816 0.999 . S
C814 H784 0.950 . S
C814 C813 1.524 . S
C814 C815 1.415 . S
C815 H785 0.950 . S
C815 C810 1.363 . S
C815 C814 1.415 . S
H816 C813 0.999 . S
H817 C798 0.913 . S
H818 C836 0.951 . S
H819 C838 0.951 . S
H820 C840 0.950 . S
H821 C841 0.950 . S
H822 C843 0.950 . S
H823 C846 0.950 . S
H824 C847 0.950 . S
H825 C849 0.950 . S
H826 C850 0.950 . S
H827 C851 0.951 . S
H828 C853 0.951 . S
H829 C855 0.950 . S
H830 C856 0.950 . S
H831 C858 0.950 . S
H832 C861 0.950 . S
H833 C862 0.950 . S
H834 C864 0.950 . S
H835 C865 0.950 . S
C836 H818 0.951 . S
C836 C837 1.366 . S
C836 C838 1.388 . S
C837 C836 1.366 . S
C837 C841 1.385 . S
C838 H819 0.951 . S
C838 C836 1.388 . S
C838 C839 1.366 . S
C839 C838 1.366 . S
C839 C840 1.414 . S
C839 C842 1.499 . S
C840 H820 0.950 . S
C840 C839 1.414 . S
C840 C841 1.374 . S
C841 H821 0.950 . S
C841 C837 1.385 . S
C841 C840 1.374 . S
C842 C839 1.499 . S
C842 C843 1.373 1_655 S
C842 C844 1.389 . S
C843 H822 0.950 . S
C843 C842 1.373 1_455 S
C843 C859 1.377 . S
C844 C842 1.389 . S
C844 C845 1.524 . S
C844 C858 1.377 . S
C845 C844 1.524 . S
C845 C846 1.397 . S
C845 C850 1.363 . S
C846 H823 0.950 . S
C846 C845 1.397 . S
C846 C847 1.334 . S
C847 H824 0.950 . S
C847 C846 1.334 . S
C847 C848 1.287 . S
C848 C847 1.287 . S
C848 C849 1.524 . S
C848 H867 0.913 . S
C849 H825 0.950 . S
C849 C848 1.524 . S
C849 C850 1.415 . S
C850 H826 0.950 . S
C850 C845 1.363 . S
C850 C849 1.415 . S
C851 H827 0.951 . S
C851 C852 1.366 . S
C851 C853 1.388 . S
C852 C851 1.366 . S
C852 C856 1.385 . S
C853 H828 0.951 . S
C853 C851 1.388 . S
C853 C854 1.366 . S
C854 C853 1.366 . S
C854 C855 1.414 . S
C854 C857 1.499 . S
C855 H829 0.950 . S
C855 C854 1.414 . S
C855 C856 1.374 . S
C856 H830 0.950 . S
C856 C852 1.385 . S
C856 C855 1.374 . S
C857 C854 1.499 . S
C857 C858 1.373 1_455 S
C857 C859 1.389 . S
C858 H831 0.950 . S
C858 C844 1.377 . S
C858 C857 1.373 1_655 S
C859 C843 1.377 . S
C859 C857 1.389 . S
C859 C860 1.524 . S
C860 C859 1.524 . S
C860 C861 1.397 . S
C860 C865 1.363 . S
C861 H832 0.950 . S
C861 C860 1.397 . S
C861 C862 1.334 . S
C862 H833 0.950 . S
C862 C861 1.334 . S
C862 C863 1.287 . S
C863 C862 1.287 . S
C863 C864 1.524 . S
C863 H866 0.999 . S
C864 H834 0.950 . S
C864 C863 1.524 . S
C864 C865 1.415 . S
C865 H835 0.950 . S
C865 C860 1.363 . S
C865 C864 1.415 . S
H866 C863 0.999 . S
H867 C848 0.913 . S
H868 C886 0.951 1_545 S
H869 C888 0.936 1_545 S
H870 C890 0.950 . S
H871 C891 0.950 . S
H872 C893 0.950 . S
H873 C896 0.950 . S
H874 C897 0.950 . S
H875 C899 0.950 . S
H876 C900 0.950 . S
H877 C901 0.951 1_565 S
H878 C903 0.936 1_565 S
H879 C905 0.950 . S
H880 C906 0.950 . S
H881 C908 0.950 . S
H882 C911 0.950 . S
H883 C912 0.950 . S
H884 C914 0.950 . S
H885 C915 0.950 . S
C886 H868 0.951 1_565 S
C886 C887 1.366 . S
C886 C888 1.391 . S
C887 C886 1.366 . S
C887 C891 1.385 . S
C888 H869 0.936 1_565 S
C888 C886 1.391 . S
C888 C889 1.377 . S
C889 C888 1.377 . S
C889 C890 1.414 . S
C889 C892 1.499 . S
C890 H870 0.950 . S
C890 C889 1.414 . S
C890 C891 1.374 . S
C891 H871 0.950 . S
C891 C887 1.385 . S
C891 C890 1.374 . S
C892 C889 1.499 . S
C892 C893 1.373 . S
C892 C894 1.389 . S
C893 H872 0.950 . S
C893 C892 1.373 . S
C893 C909 1.377 1_565 S
C894 C892 1.389 . S
C894 C895 1.524 . S
C894 C908 1.377 1_565 S
C895 C894 1.524 . S
C895 C896 1.397 . S
C895 C900 1.363 1_565 S
C896 H873 0.950 . S
C896 C895 1.397 . S
C896 C897 1.334 . S
C897 H874 0.950 . S
C897 C896 1.334 . S
C897 C898 1.287 . S
C898 C897 1.287 . S
C898 C899 1.524 1_565 S
C898 H917 0.913 . S
C899 H875 0.950 . S
C899 C898 1.524 1_545 S
C899 C900 1.415 . S
C900 H876 0.950 . S
C900 C895 1.363 1_545 S
C900 C899 1.415 . S
C901 H877 0.951 1_545 S
C901 C902 1.366 . S
C901 C903 1.391 . S
C902 C901 1.366 . S
C902 C906 1.385 . S
C903 H878 0.936 1_545 S
C903 C901 1.391 . S
C903 C904 1.377 . S
C904 C903 1.377 . S
C904 C905 1.414 . S
C904 C907 1.499 . S
C905 H879 0.950 . S
C905 C904 1.414 . S
C905 C906 1.374 . S
C906 H880 0.950 . S
C906 C902 1.385 . S
C906 C905 1.374 . S
C907 C904 1.499 . S
C907 C908 1.373 . S
C907 C909 1.389 . S
C908 H881 0.950 . S
C908 C894 1.377 1_545 S
C908 C907 1.373 . S
C909 C893 1.377 1_545 S
C909 C907 1.389 . S
C909 C910 1.524 . S
C910 C909 1.524 . S
C910 C911 1.397 . S
C910 C915 1.363 1_545 S
C911 H882 0.950 . S
C911 C910 1.397 . S
C911 C912 1.334 . S
C912 H883 0.950 . S
C912 C911 1.334 . S
C912 C913 1.287 . S
C913 C912 1.287 . S
C913 C914 1.524 1_545 S
C913 H916 0.999 . S
C914 H884 0.950 . S
C914 C913 1.524 1_565 S
C914 C915 1.415 . S
C915 H885 0.950 . S
C915 C910 1.363 1_565 S
C915 C914 1.415 . S
H916 C913 0.999 . S
H917 C898 0.913 . S
H918 C936 0.951 . S
H919 C938 0.951 . S
H920 C940 0.950 . S
H921 C941 0.950 . S
H922 C943 0.950 . S
H923 C946 0.950 . S
H924 C947 0.950 . S
H925 C949 0.950 . S
H926 C950 0.950 . S
H927 C951 0.951 . S
H928 C953 0.951 . S
H929 C955 0.950 . S
H930 C956 0.950 . S
H931 C958 0.950 . S
H932 C961 0.950 . S
H933 C962 0.950 . S
H934 C964 0.950 . S
H935 C965 0.950 . S
C936 H918 0.951 . S
C936 C937 1.366 . S
C936 C938 1.388 . S
C937 C936 1.366 . S
C937 C941 1.385 . S
C938 H919 0.951 . S
C938 C936 1.388 . S
C938 C939 1.366 . S
C939 C938 1.366 . S
C939 C940 1.414 . S
C939 C942 1.499 . S
C940 H920 0.950 . S
C940 C939 1.414 . S
C940 C941 1.374 . S
C941 H921 0.950 . S
C941 C937 1.385 . S
C941 C940 1.374 . S
C942 C939 1.499 . S
C942 C943 1.373 . S
C942 C944 1.389 . S
C943 H922 0.950 . S
C943 C942 1.373 . S
C943 C959 1.377 . S
C944 C942 1.389 . S
C944 C945 1.524 . S
C944 C958 1.377 . S
C945 C944 1.524 . S
C945 C946 1.397 . S
C945 C950 1.363 . S
C946 H923 0.950 . S
C946 C945 1.397 . S
C946 C947 1.334 . S
C947 H924 0.950 . S
C947 C946 1.334 . S
C947 C948 1.287 . S
C948 C947 1.287 . S
C948 C949 1.524 . S
C948 H967 0.913 . S
C949 H925 0.950 . S
C949 C948 1.524 . S
C949 C950 1.415 . S
C950 H926 0.950 . S
C950 C945 1.363 . S
C950 C949 1.415 . S
C951 H927 0.951 . S
C951 C952 1.366 . S
C951 C953 1.388 . S
C952 C951 1.366 . S
C952 C956 1.385 . S
C953 H928 0.951 . S
C953 C951 1.388 . S
C953 C954 1.366 . S
C954 C953 1.366 . S
C954 C955 1.414 . S
C954 C957 1.499 . S
C955 H929 0.950 . S
C955 C954 1.414 . S
C955 C956 1.374 . S
C956 H930 0.950 . S
C956 C952 1.385 . S
C956 C955 1.374 . S
C957 C954 1.499 . S
C957 C958 1.373 . S
C957 C959 1.389 . S
C958 H931 0.950 . S
C958 C944 1.377 . S
C958 C957 1.373 . S
C959 C943 1.377 . S
C959 C957 1.389 . S
C959 C960 1.524 . S
C960 C959 1.524 . S
C960 C961 1.397 . S
C960 C965 1.363 . S
C961 H932 0.950 . S
C961 C960 1.397 . S
C961 C962 1.334 . S
C962 H933 0.950 . S
C962 C961 1.334 . S
C962 C963 1.287 . S
C963 C962 1.287 . S
C963 C964 1.524 . S
C963 H966 0.999 . S
C964 H934 0.950 . S
C964 C963 1.524 . S
C964 C965 1.415 . S
C965 H935 0.950 . S
C965 C960 1.363 . S
C965 C964 1.415 . S
H966 C963 0.999 . S
H967 C948 0.913 . S
H968 C986 0.951 . S
H969 C988 0.951 . S
H970 C990 0.950 . S
H971 C991 0.950 . S
H972 C993 0.950 . S
H973 C996 0.950 . S
H974 C997 0.950 . S
H975 C999 0.950 . S
H976 C1000 0.950 . S
H977 C1001 0.951 . S
H978 C1003 0.951 . S
H979 C1005 0.950 . S
H980 C1006 0.950 . S
H981 C1008 0.950 . S
H982 C1011 0.950 . S
H983 C1012 0.950 . S
H984 C1014 0.950 . S
H985 C1015 0.950 . S
C986 H968 0.951 . S
C986 C987 1.366 . S
C986 C988 1.388 . S
C987 C986 1.366 . S
C987 C991 1.385 . S
C988 H969 0.951 . S
C988 C986 1.388 . S
C988 C989 1.366 . S
C989 C988 1.366 . S
C989 C990 1.414 . S
C989 C992 1.499 . S
C990 H970 0.950 . S
C990 C989 1.414 . S
C990 C991 1.374 . S
C991 H971 0.950 . S
C991 C987 1.385 . S
C991 C990 1.374 . S
C992 C989 1.499 . S
C992 C993 1.373 1_455 S
C992 C994 1.389 . S
C993 H972 0.950 . S
C993 C992 1.373 1_655 S
C993 C1009 1.377 . S
C994 C992 1.389 . S
C994 C995 1.524 . S
C994 C1008 1.377 . S
C995 C994 1.524 . S
C995 C996 1.397 . S
C995 C1000 1.363 . S
C996 H973 0.950 . S
C996 C995 1.397 . S
C996 C997 1.334 . S
C997 H974 0.950 . S
C997 C996 1.334 . S
C997 C998 1.287 . S
C998 C997 1.287 . S
C998 C999 1.524 . S
C998 H1017 0.913 . S
C999 H975 0.950 . S
C999 C998 1.524 . S
C999 C1000 1.415 . S
C1000 H976 0.950 . S
C1000 C995 1.363 . S
C1000 C999 1.415 . S
C1001 H977 0.951 . S
C1001 C1002 1.366 . S
C1001 C1003 1.388 . S
C1002 C1001 1.366 . S
C1002 C1006 1.385 . S
C1003 H978 0.951 . S
C1003 C1001 1.388 . S
C1003 C1004 1.366 . S
C1004 C1003 1.366 . S
C1004 C1005 1.414 . S
C1004 C1007 1.499 . S
C1005 H979 0.950 . S
C1005 C1004 1.414 . S
C1005 C1006 1.374 . S
C1006 H980 0.950 . S
C1006 C1002 1.385 . S
C1006 C1005 1.374 . S
C1007 C1004 1.499 . S
C1007 C1008 1.373 1_655 S
C1007 C1009 1.389 . S
C1008 H981 0.950 . S
C1008 C994 1.377 . S
C1008 C1007 1.373 1_455 S
C1009 C993 1.377 . S
C1009 C1007 1.389 . S
C1009 C1010 1.524 . S
C1010 C1009 1.524 . S
C1010 C1011 1.397 . S
C1010 C1015 1.363 . S
C1011 H982 0.950 . S
C1011 C1010 1.397 . S
C1011 C1012 1.334 . S
C1012 H983 0.950 . S
C1012 C1011 1.334 . S
C1012 C1013 1.287 . S
C1013 C1012 1.287 . S
C1013 C1014 1.524 . S
C1013 H1016 0.999 . S
C1014 H984 0.950 . S
C1014 C1013 1.524 . S
C1014 C1015 1.415 . S
C1015 H985 0.950 . S
C1015 C1010 1.363 . S
C1015 C1014 1.415 . S
H1016 C1013 0.999 . S
H1017 C998 0.913 . S
H1018 C1036 0.951 1_545 S
H1019 C1038 0.951 . S
H1020 C1040 0.950 . S
H1021 C1041 0.950 . S
H1022 C1043 0.950 . S
H1023 C1046 0.950 . S
H1024 C1047 0.950 . S
H1025 C1049 0.950 . S
H1026 C1050 0.950 . S
H1027 C1051 0.951 1_565 S
H1028 C1053 0.951 . S
H1029 C1055 0.950 . S
H1030 C1056 0.950 . S
H1031 C1058 0.950 . S
H1032 C1061 0.950 . S
H1033 C1062 0.950 . S
H1034 C1064 0.950 . S
H1035 C1065 0.950 . S
C1036 H1018 0.951 1_565 S
C1036 C1037 1.366 . S
C1036 C1038 1.388 1_565 S
C1037 C1036 1.366 . S
C1037 C1041 1.385 . S
C1038 H1019 0.951 . S
C1038 C1036 1.388 1_545 S
C1038 C1039 1.366 1_545 S
C1039 C1038 1.366 1_565 S
C1039 C1040 1.414 . S
C1039 C1042 1.499 . S
C1040 H1020 0.950 . S
C1040 C1039 1.414 . S
C1040 C1041 1.374 . S
C1041 H1021 0.950 . S
C1041 C1037 1.385 . S
C1041 C1040 1.374 . S
C1042 C1039 1.499 . S
C1042 C1043 1.373 . S
C1042 C1044 1.389 1_565 S
C1043 H1022 0.950 . S
C1043 C1042 1.373 . S
C1043 C1059 1.377 . S
C1044 C1042 1.389 1_545 S
C1044 C1045 1.524 . S
C1044 C1058 1.377 . S
C1045 C1044 1.524 . S
C1045 C1046 1.397 1_545 S
C1045 C1050 1.363 . S
C1046 H1023 0.950 . S
C1046 C1045 1.397 1_565 S
C1046 C1047 1.334 . S
C1047 H1024 0.950 . S
C1047 C1046 1.334 . S
C1047 C1048 1.287 1_565 S
C1048 C1047 1.287 1_545 S
C1048 C1049 1.524 . S
C1048 H1067 0.913 . S
C1049 H1025 0.950 . S
C1049 C1048 1.524 . S
C1049 C1050 1.415 . S
C1050 H1026 0.950 . S
C1050 C1045 1.363 . S
C1050 C1049 1.415 . S
C1051 H1027 0.951 1_545 S
C1051 C1052 1.366 . S
C1051 C1053 1.388 1_545 S
C1052 C1051 1.366 . S
C1052 C1056 1.385 . S
C1053 H1028 0.951 . S
C1053 C1051 1.388 1_565 S
C1053 C1054 1.366 1_565 S
C1054 C1053 1.366 1_545 S
C1054 C1055 1.414 . S
C1054 C1057 1.499 . S
C1055 H1029 0.950 . S
C1055 C1054 1.414 . S
C1055 C1056 1.374 . S
C1056 H1030 0.950 . S
C1056 C1052 1.385 . S
C1056 C1055 1.374 . S
C1057 C1054 1.499 . S
C1057 C1058 1.373 . S
C1057 C1059 1.389 1_545 S
C1058 H1031 0.950 . S
C1058 C1044 1.377 . S
C1058 C1057 1.373 . S
C1059 C1043 1.377 . S
C1059 C1057 1.389 1_565 S
C1059 C1060 1.524 . S
C1060 C1059 1.524 . S
C1060 C1061 1.397 1_565 S
C1060 C1065 1.363 . S
C1061 H1032 0.950 . S
C1061 C1060 1.397 1_545 S
C1061 C1062 1.334 . S
C1062 H1033 0.950 . S
C1062 C1061 1.334 . S
C1062 C1063 1.287 1_545 S
C1063 C1062 1.287 1_565 S
C1063 C1064 1.524 . S
C1063 H1066 0.999 . S
C1064 H1034 0.950 . S
C1064 C1063 1.524 . S
C1064 C1065 1.415 . S
C1065 H1035 0.950 . S
C1065 C1060 1.363 . S
C1065 C1064 1.415 . S
H1066 C1063 0.999 . S
H1067 C1048 0.913 . S
H1068 C1086 0.951 . S
H1069 C1088 0.951 . S
H1070 C1090 0.950 . S
H1071 C1091 0.950 . S
H1072 C1093 0.950 . S
H1073 C1096 0.950 . S
H1074 C1097 0.950 . S
H1075 C1099 0.950 . S
H1076 C1100 0.954 . S
H1077 C1101 0.951 . S
H1078 C1103 0.951 . S
H1079 C1105 0.950 . S
H1080 C1106 0.950 . S
H1081 C1108 0.950 . S
H1082 C1111 0.950 . S
H1083 C1112 0.950 . S
H1084 C1114 0.950 . S
H1085 C1115 0.950 . S
C1086 H1068 0.951 . S
C1086 C1087 1.366 . S
C1086 C1088 1.388 . S
C1087 C1086 1.366 . S
C1087 C1091 1.385 . S
C1088 H1069 0.951 . S
C1088 C1086 1.388 . S
C1088 C1089 1.366 . S
C1089 C1088 1.366 . S
C1089 C1090 1.414 . S
C1089 C1092 1.499 . S
C1090 H1070 0.950 . S
C1090 C1089 1.414 . S
C1090 C1091 1.374 . S
C1091 H1071 0.950 . S
C1091 C1087 1.385 . S
C1091 C1090 1.374 . S
C1092 C1089 1.499 . S
C1092 C1093 1.373 . S
C1092 C1094 1.389 . S
C1093 H1072 0.950 . S
C1093 C1092 1.373 . S
C1093 C1109 1.377 . S
C1094 C1092 1.389 . S
C1094 C1095 1.524 . S
C1094 C1108 1.377 . S
C1095 C1094 1.524 . S
C1095 C1096 1.397 . S
C1095 C1100 1.357 1_554 S
C1096 H1073 0.950 . S
C1096 C1095 1.397 . S
C1096 C1097 1.334 . S
C1097 H1074 0.950 . S
C1097 C1096 1.334 . S
C1097 C1098 1.287 . S
C1098 C1097 1.287 . S
C1098 C1099 1.524 1_554 S
C1098 H1117 0.913 . S
C1099 H1075 0.950 . S
C1099 C1098 1.524 1_556 S
C1099 C1100 1.417 . S
C1100 H1076 0.954 . S
C1100 C1095 1.357 1_556 S
C1100 C1099 1.417 . S
C1101 H1077 0.951 . S
C1101 C1102 1.366 . S
C1101 C1103 1.388 . S
C1102 C1101 1.366 . S
C1102 C1106 1.385 . S
C1103 H1078 0.951 . S
C1103 C1101 1.388 . S
C1103 C1104 1.366 . S
C1104 C1103 1.366 . S
C1104 C1105 1.414 . S
C1104 C1107 1.499 . S
C1105 H1079 0.950 . S
C1105 C1104 1.414 . S
C1105 C1106 1.374 . S
C1106 H1080 0.950 . S
C1106 C1102 1.385 . S
C1106 C1105 1.374 . S
C1107 C1104 1.499 . S
C1107 C1108 1.373 . S
C1107 C1109 1.389 . S
C1108 H1081 0.950 . S
C1108 C1094 1.377 . S
C1108 C1107 1.373 . S
C1109 C1093 1.377 . S
C1109 C1107 1.389 . S
C1109 C1110 1.524 . S
C1110 C1109 1.524 . S
C1110 C1111 1.397 . S
C1110 C1115 1.363 . S
C1111 H1082 0.950 . S
C1111 C1110 1.397 . S
C1111 C1112 1.334 . S
C1112 H1083 0.950 . S
C1112 C1111 1.334 . S
C1112 C1113 1.287 . S
C1113 C1112 1.287 . S
C1113 C1114 1.524 . S
C1113 H1116 0.999 . S
C1114 H1084 0.950 . S
C1114 C1113 1.524 . S
C1114 C1115 1.415 . S
C1115 H1085 0.950 . S
C1115 C1110 1.363 . S
C1115 C1114 1.415 . S
H1116 C1113 0.999 . S
H1117 C1098 0.913 . S
H1118 C1136 0.951 . S
H1119 C1138 0.951 . S
H1120 C1140 0.929 1_655 S
H1121 C1141 0.950 1_655 S
H1122 C1143 0.950 . S
H1123 C1146 0.950 . S
H1124 C1147 0.950 . S
H1125 C1149 0.950 . S
H1126 C1150 0.950 . S
H1127 C1151 0.951 . S
H1128 C1153 0.951 . S
H1129 C1155 0.929 1_455 S
H1130 C1156 0.950 1_455 S
H1131 C1158 0.950 . S
H1132 C1161 0.950 . S
H1133 C1162 0.950 . S
H1134 C1164 0.950 . S
H1135 C1165 0.950 . S
C1136 H1118 0.951 . S
C1136 C1137 1.366 . S
C1136 C1138 1.388 . S
C1137 C1136 1.366 . S
C1137 C1141 1.385 . S
C1138 H1119 0.951 . S
C1138 C1136 1.388 . S
C1138 C1139 1.366 . S
C1139 C1138 1.366 . S
C1139 C1140 1.444 . S
C1139 C1142 1.499 . S
C1140 H1120 0.929 1_455 S
C1140 C1139 1.444 . S
C1140 C1141 1.366 . S
C1141 H1121 0.950 1_455 S
C1141 C1137 1.385 . S
C1141 C1140 1.366 . S
C1142 C1139 1.499 . S
C1142 C1143 1.373 1_455 S
C1142 C1144 1.389 . S
C1143 H1122 0.950 . S
C1143 C1142 1.373 1_655 S
C1143 C1159 1.377 . S
C1144 C1142 1.389 . S
C1144 C1145 1.524 . S
C1144 C1158 1.377 . S
C1145 C1144 1.524 . S
C1145 C1146 1.397 . S
C1145 C1150 1.363 . S
C1146 H1123 0.950 . S
C1146 C1145 1.397 . S
C1146 C1147 1.334 . S
C1147 H1124 0.950 . S
C1147 C1146 1.334 . S
C1147 C1148 1.287 . S
C1148 C1147 1.287 . S
C1148 C1149 1.524 . S
C1148 H1167 0.913 . S
C1149 H1125 0.950 . S
C1149 C1148 1.524 . S
C1149 C1150 1.415 . S
C1150 H1126 0.950 . S
C1150 C1145 1.363 . S
C1150 C1149 1.415 . S
C1151 H1127 0.951 . S
C1151 C1152 1.366 . S
C1151 C1153 1.388 . S
C1152 C1151 1.366 . S
C1152 C1156 1.385 . S
C1153 H1128 0.951 . S
C1153 C1151 1.388 . S
C1153 C1154 1.366 . S
C1154 C1153 1.366 . S
C1154 C1155 1.444 . S
C1154 C1157 1.499 . S
C1155 H1129 0.929 1_655 S
C1155 C1154 1.444 . S
C1155 C1156 1.366 . S
C1156 H1130 0.950 1_655 S
C1156 C1152 1.385 . S
C1156 C1155 1.366 . S
C1157 C1154 1.499 . S
C1157 C1158 1.373 1_655 S
C1157 C1159 1.389 . S
C1158 H1131 0.950 . S
C1158 C1144 1.377 . S
C1158 C1157 1.373 1_455 S
C1159 C1143 1.377 . S
C1159 C1157 1.389 . S
C1159 C1160 1.524 . S
C1160 C1159 1.524 . S
C1160 C1161 1.397 . S
C1160 C1165 1.363 . S
C1161 H1132 0.950 . S
C1161 C1160 1.397 . S
C1161 C1162 1.334 . S
C1162 H1133 0.950 . S
C1162 C1161 1.334 . S
C1162 C1163 1.287 . S
C1163 C1162 1.287 . S
C1163 C1164 1.524 . S
C1163 H1166 0.999 . S
C1164 H1134 0.950 . S
C1164 C1163 1.524 . S
C1164 C1165 1.415 . S
C1165 H1135 0.950 . S
C1165 C1160 1.363 . S
C1165 C1164 1.415 . S
H1166 C1163 0.999 . S
H1167 C1148 0.913 . S
H1168 C1186 0.951 . S
H1169 C1188 0.951 . S
H1170 C1190 0.950 . S
H1171 C1191 0.950 . S
H1172 C1193 0.950 . S
H1173 C1196 0.950 . S
H1174 C1197 0.950 . S
H1175 C1199 0.950 . S
H1176 C1200 0.950 . S
H1177 C1201 0.951 . S
H1178 C1203 0.951 . S
H1179 C1205 0.950 . S
H1180 C1206 0.950 . S
H1181 C1208 0.950 . S
H1182 C1211 0.950 . S
H1183 C1212 0.950 . S
H1184 C1214 0.950 . S
H1185 C1215 0.950 . S
C1186 H1168 0.951 . S
C1186 C1187 1.366 . S
C1186 C1188 1.388 . S
C1187 C1186 1.366 . S
C1187 C1191 1.385 . S
C1188 H1169 0.951 . S
C1188 C1186 1.388 . S
C1188 C1189 1.366 . S
C1189 C1188 1.366 . S
C1189 C1190 1.414 . S
C1189 C1192 1.499 . S
C1190 H1170 0.950 . S
C1190 C1189 1.414 . S
C1190 C1191 1.374 . S
C1191 H1171 0.950 . S
C1191 C1187 1.385 . S
C1191 C1190 1.374 . S
C1192 C1189 1.499 . S
C1192 C1193 1.373 . S
C1192 C1194 1.389 1_565 S
C1193 H1172 0.950 . S
C1193 C1192 1.373 . S
C1193 C1209 1.377 . S
C1194 C1192 1.389 1_545 S
C1194 C1195 1.524 . S
C1194 C1208 1.377 . S
C1195 C1194 1.524 . S
C1195 C1196 1.397 . S
C1195 C1200 1.363 . S
C1196 H1173 0.950 . S
C1196 C1195 1.397 . S
C1196 C1197 1.334 . S
C1197 H1174 0.950 . S
C1197 C1196 1.334 . S
C1197 C1198 1.287 . S
C1198 C1197 1.287 . S
C1198 C1199 1.524 . S
C1198 H1217 0.913 . S
C1199 H1175 0.950 . S
C1199 C1198 1.524 . S
C1199 C1200 1.415 . S
C1200 H1176 0.950 . S
C1200 C1195 1.363 . S
C1200 C1199 1.415 . S
C1201 H1177 0.951 . S
C1201 C1202 1.366 . S
C1201 C1203 1.388 . S
C1202 C1201 1.366 . S
C1202 C1206 1.385 . S
C1203 H1178 0.951 . S
C1203 C1201 1.388 . S
C1203 C1204 1.366 . S
C1204 C1203 1.366 . S
C1204 C1205 1.414 . S
C1204 C1207 1.499 . S
C1205 H1179 0.950 . S
C1205 C1204 1.414 . S
C1205 C1206 1.374 . S
C1206 H1180 0.950 . S
C1206 C1202 1.385 . S
C1206 C1205 1.374 . S
C1207 C1204 1.499 . S
C1207 C1208 1.373 . S
C1207 C1209 1.389 1_545 S
C1208 H1181 0.950 . S
C1208 C1194 1.377 . S
C1208 C1207 1.373 . S
C1209 C1193 1.377 . S
C1209 C1207 1.389 1_565 S
C1209 C1210 1.524 . S
C1210 C1209 1.524 . S
C1210 C1211 1.397 . S
C1210 C1215 1.363 . S
C1211 H1182 0.950 . S
C1211 C1210 1.397 . S
C1211 C1212 1.334 . S
C1212 H1183 0.950 . S
C1212 C1211 1.334 . S
C1212 C1213 1.287 . S
C1213 C1212 1.287 . S
C1213 C1214 1.524 . S
C1213 H1216 0.999 . S
C1214 H1184 0.950 . S
C1214 C1213 1.524 . S
C1214 C1215 1.415 . S
C1215 H1185 0.950 . S
C1215 C1210 1.363 . S
C1215 C1214 1.415 . S
H1216 C1213 0.999 . S
H1217 C1198 0.913 . S
H1218 C1236 0.951 . S
H1219 C1238 0.951 . S
H1220 C1240 0.950 . S
H1221 C1241 0.950 . S
H1222 C1243 0.950 . S
H1223 C1246 0.950 . S
H1224 C1247 0.950 . S
H1225 C1249 0.950 . S
H1226 C1250 0.950 . S
H1227 C1251 0.951 . S
H1228 C1253 0.951 . S
H1229 C1255 0.950 . S
H1230 C1256 0.950 . S
H1231 C1258 0.950 . S
H1232 C1261 0.950 . S
H1233 C1262 0.950 . S
H1234 C1264 0.950 . S
H1235 C1265 0.950 . S
C1236 H1218 0.951 . S
C1236 C1237 1.366 . S
C1236 C1238 1.388 . S
C1237 C1236 1.366 . S
C1237 C1241 1.385 . S
C1238 H1219 0.951 . S
C1238 C1236 1.388 . S
C1238 C1239 1.366 . S
C1239 C1238 1.366 . S
C1239 C1240 1.414 . S
C1239 C1242 1.499 . S
C1240 H1220 0.950 . S
C1240 C1239 1.414 . S
C1240 C1241 1.374 . S
C1241 H1221 0.950 . S
C1241 C1237 1.385 . S
C1241 C1240 1.374 . S
C1242 C1239 1.499 . S
C1242 C1243 1.373 . S
C1242 C1244 1.389 . S
C1243 H1222 0.950 . S
C1243 C1242 1.373 . S
C1243 C1259 1.377 . S
C1244 C1242 1.389 . S
C1244 C1245 1.524 . S
C1244 C1258 1.377 . S
C1245 C1244 1.524 . S
C1245 C1246 1.397 . S
C1245 C1250 1.363 . S
C1246 H1223 0.950 . S
C1246 C1245 1.397 . S
C1246 C1247 1.334 . S
C1247 H1224 0.950 . S
C1247 C1246 1.334 . S
C1247 C1248 1.287 . S
C1248 C1247 1.287 . S
C1248 C1249 1.524 . S
C1248 H1267 0.913 . S
C1249 H1225 0.950 . S
C1249 C1248 1.524 . S
C1249 C1250 1.415 . S
C1250 H1226 0.950 . S
C1250 C1245 1.363 . S
C1250 C1249 1.415 . S
C1251 H1227 0.951 . S
C1251 C1252 1.366 . S
C1251 C1253 1.388 . S
C1252 C1251 1.366 . S
C1252 C1256 1.385 . S
C1253 H1228 0.951 . S
C1253 C1251 1.388 . S
C1253 C1254 1.366 . S
C1254 C1253 1.366 . S
C1254 C1255 1.414 . S
C1254 C1257 1.499 . S
C1255 H1229 0.950 . S
C1255 C1254 1.414 . S
C1255 C1256 1.374 . S
C1256 H1230 0.950 . S
C1256 C1252 1.385 . S
C1256 C1255 1.374 . S
C1257 C1254 1.499 . S
C1257 C1258 1.373 . S
C1257 C1259 1.389 . S
C1258 H1231 0.950 . S
C1258 C1244 1.377 . S
C1258 C1257 1.373 . S
C1259 C1243 1.377 . S
C1259 C1257 1.389 . S
C1259 C1260 1.524 . S
C1260 C1259 1.524 . S
C1260 C1261 1.397 . S
C1260 C1265 1.363 . S
C1261 H1232 0.950 . S
C1261 C1260 1.397 . S
C1261 C1262 1.334 . S
C1262 H1233 0.950 . S
C1262 C1261 1.334 . S
C1262 C1263 1.287 . S
C1263 C1262 1.287 . S
C1263 C1264 1.524 . S
C1263 H1266 0.999 . S
C1264 H1234 0.950 . S
C1264 C1263 1.524 . S
C1264 C1265 1.415 . S
C1265 H1235 0.950 . S
C1265 C1260 1.363 . S
C1265 C1264 1.415 . S
H1266 C1263 0.999 . S
H1267 C1248 0.913 . S
H1268 C1286 0.946 1_455 S
H1269 C1288 0.951 1_455 S
H1270 C1290 0.950 . S
H1271 C1291 0.950 . S
H1272 C1293 0.950 . S
H1273 C1296 0.950 . S
H1274 C1297 0.950 . S
H1275 C1299 0.950 . S
H1276 C1300 0.950 . S
H1277 C1301 0.946 1_655 S
H1278 C1303 0.951 1_655 S
H1279 C1305 0.950 . S
H1280 C1306 0.950 . S
H1281 C1308 0.950 . S
H1282 C1311 0.950 1_556 S
H1283 C1312 0.950 . S
H1284 C1314 0.950 . S
H1285 C1315 0.950 . S
C1286 H1268 0.946 1_655 S
C1286 C1287 1.366 . S
C1286 C1288 1.388 . S
C1287 C1286 1.366 . S
C1287 C1291 1.385 . S
C1288 H1269 0.951 1_655 S
C1288 C1286 1.388 . S
C1288 C1289 1.366 . S
C1289 C1288 1.366 . S
C1289 C1290 1.414 . S
C1289 C1292 1.499 . S
C1290 H1270 0.950 . S
C1290 C1289 1.414 . S
C1290 C1291 1.374 . S
C1291 H1271 0.950 . S
C1291 C1287 1.385 . S
C1291 C1290 1.374 . S
C1292 C1289 1.499 . S
C1292 C1293 1.373 . S
C1292 C1294 1.389 . S
C1293 H1272 0.950 . S
C1293 C1292 1.373 . S
C1293 C1309 1.377 1_655 S
C1294 C1292 1.389 . S
C1294 C1295 1.524 . S
C1294 C1308 1.377 1_655 S
C1295 C1294 1.524 . S
C1295 C1296 1.397 . S
C1295 C1300 1.363 1_655 S
C1296 H1273 0.950 . S
C1296 C1295 1.397 . S
C1296 C1297 1.334 . S
C1297 H1274 0.950 . S
C1297 C1296 1.334 . S
C1297 C1298 1.287 . S
C1298 C1297 1.287 . S
C1298 C1299 1.524 1_655 S
C1298 H1317 0.913 . S
C1299 H1275 0.950 . S
C1299 C1298 1.524 1_455 S
C1299 C1300 1.415 . S
C1300 H1276 0.950 . S
C1300 C1295 1.363 1_455 S
C1300 C1299 1.415 . S
C1301 H1277 0.946 1_455 S
C1301 C1302 1.366 . S
C1301 C1303 1.388 . S
C1302 C1301 1.366 . S
C1302 C1306 1.385 . S
C1303 H1278 0.951 1_455 S
C1303 C1301 1.388 . S
C1303 C1304 1.366 . S
C1304 C1303 1.366 . S
C1304 C1305 1.414 . S
C1304 C1307 1.499 . S
C1305 H1279 0.950 . S
C1305 C1304 1.414 . S
C1305 C1306 1.374 . S
C1306 H1280 0.950 . S
C1306 C1302 1.385 . S
C1306 C1305 1.374 . S
C1307 C1304 1.499 . S
C1307 C1308 1.373 . S
C1307 C1309 1.389 . S
C1308 H1281 0.950 . S
C1308 C1294 1.377 1_455 S
C1308 C1307 1.373 . S
C1309 C1293 1.377 1_455 S
C1309 C1307 1.389 . S
C1309 C1310 1.524 1_556 S
C1310 C1309 1.524 1_554 S
C1310 C1311 1.397 . S
C1310 C1315 1.363 1_455 S
C1311 H1282 0.950 1_554 S
C1311 C1310 1.397 . S
C1311 C1312 1.334 . S
C1312 H1283 0.950 . S
C1312 C1311 1.334 . S
C1312 C1313 1.287 . S
C1313 C1312 1.287 . S
C1313 C1314 1.524 1_455 S
C1313 H1316 0.999 . S
C1314 H1284 0.950 . S
C1314 C1313 1.524 1_655 S
C1314 C1315 1.415 . S
C1315 H1285 0.950 . S
C1315 C1310 1.363 1_655 S
C1315 C1314 1.415 . S
H1316 C1313 0.999 . S
H1317 C1298 0.913 . S
H1318 C1336 0.951 . S
H1319 C1338 0.951 . S
H1320 C1340 0.950 . S
H1321 C1341 0.950 . S
H1322 C1343 0.950 . S
H1323 C1346 0.950 . S
H1324 C1347 0.950 . S
H1325 C1349 0.950 . S
H1326 C1350 0.950 . S
H1327 C1351 0.951 . S
H1328 C1353 0.951 . S
H1329 C1355 0.950 . S
H1330 C1356 0.950 . S
H1331 C1358 0.950 . S
H1332 C1361 0.950 . S
H1333 C1362 0.950 . S
H1334 C1364 0.950 . S
H1335 C1365 0.950 . S
C1336 H1318 0.951 . S
C1336 C1337 1.366 . S
C1336 C1338 1.388 . S
C1337 C1336 1.366 . S
C1337 C1341 1.385 . S
C1338 H1319 0.951 . S
C1338 C1336 1.388 . S
C1338 C1339 1.366 . S
C1339 C1338 1.366 . S
C1339 C1340 1.414 . S
C1339 C1342 1.499 . S
C1340 H1320 0.950 . S
C1340 C1339 1.414 . S
C1340 C1341 1.374 . S
C1341 H1321 0.950 . S
C1341 C1337 1.385 . S
C1341 C1340 1.374 . S
C1342 C1339 1.499 . S
C1342 C1343 1.373 1_545 S
C1342 C1344 1.389 . S
C1343 H1322 0.950 . S
C1343 C1342 1.373 1_565 S
C1343 C1359 1.377 . S
C1344 C1342 1.389 . S
C1344 C1345 1.524 . S
C1344 C1358 1.377 . S
C1345 C1344 1.524 . S
C1345 C1346 1.397 . S
C1345 C1350 1.363 . S
C1346 H1323 0.950 . S
C1346 C1345 1.397 . S
C1346 C1347 1.334 . S
C1347 H1324 0.950 . S
C1347 C1346 1.334 . S
C1347 C1348 1.287 . S
C1348 C1347 1.287 . S
C1348 C1349 1.524 . S
C1348 H1367 0.913 . S
C1349 H1325 0.950 . S
C1349 C1348 1.524 . S
C1349 C1350 1.415 . S
C1350 H1326 0.950 . S
C1350 C1345 1.363 . S
C1350 C1349 1.415 . S
C1351 H1327 0.951 . S
C1351 C1352 1.366 . S
C1351 C1353 1.388 . S
C1352 C1351 1.366 . S
C1352 C1356 1.385 . S
C1353 H1328 0.951 . S
C1353 C1351 1.388 . S
C1353 C1354 1.366 . S
C1354 C1353 1.366 . S
C1354 C1355 1.414 . S
C1354 C1357 1.499 . S
C1355 H1329 0.950 . S
C1355 C1354 1.414 . S
C1355 C1356 1.374 . S
C1356 H1330 0.950 . S
C1356 C1352 1.385 . S
C1356 C1355 1.374 . S
C1357 C1354 1.499 . S
C1357 C1358 1.373 1_565 S
C1357 C1359 1.389 . S
C1358 H1331 0.950 . S
C1358 C1344 1.377 . S
C1358 C1357 1.373 1_545 S
C1359 C1343 1.377 . S
C1359 C1357 1.389 . S
C1359 C1360 1.524 . S
C1360 C1359 1.524 . S
C1360 C1361 1.397 . S
C1360 C1365 1.363 . S
C1361 H1332 0.950 . S
C1361 C1360 1.397 . S
C1361 C1362 1.334 . S
C1362 H1333 0.950 . S
C1362 C1361 1.334 . S
C1362 C1363 1.287 . S
C1363 C1362 1.287 . S
C1363 C1364 1.524 . S
C1363 H1366 0.999 . S
C1364 H1334 0.950 . S
C1364 C1363 1.524 . S
C1364 C1365 1.415 . S
C1365 H1335 0.950 . S
C1365 C1360 1.363 . S
C1365 C1364 1.415 . S
H1366 C1363 0.999 . S
H1367 C1348 0.913 . S
C187 C7 1.443 . S
C202 C133 1.443 . S
C237 C21 1.442 . S
C252 C147 1.443 . S
C287 C35 1.443 . S
C302 C161 1.443 . S
C337 C49 1.443 . S
C352 C91 1.443 . S
C387 C105 1.443 . S
C402 C63 1.443 . S
C437 C119 1.443 . S
C452 C77 1.443 . S
C487 C146 1.495 . S
C502 C6 1.494 . S
C537 C20 1.494 . S
C552 C160 1.494 . S
C587 C34 1.494 . S
C602 C90 1.495 . S
C637 C48 1.495 . S
C652 C104 1.494 . S
C687 C62 1.494 . S
C702 C118 1.494 . S
C737 C76 1.494 . S
C752 C132 1.495 . S
C787 C134 1.042 . S
C802 C8 1.041 1_556 S
C837 C22 1.042 . S
C852 C148 1.041 1_554 S
C887 C36 1.041 . S
C902 C162 1.041 . S
C937 C92 1.040 . S
C952 C50 1.040 1_556 S
C987 C64 1.042 . S
C1002 C106 1.041 1_554 S
C1037 C120 1.041 . S
C1052 C78 1.041 . S
C1087 C9 1.508 . S
C1102 C51 1.508 . S
C1137 C65 1.507 . S
C1152 C23 1.507 . S
C1187 C37 1.508 . S
C1202 C79 1.508 . S
C1237 C93 1.508 . S
C1252 C135 1.508 . S
C1287 C107 1.507 . S
C1302 C149 1.507 . S
C1337 C163 1.507 . S
C1352 C121 1.507 . S
