# Generated by pormake.
# Topology smu, (6)-cn, num edge types: 1
# Building blocks:
#     Node 0, Type 0, BuildingBlock: CUKXOW_clean_sbu_0, # of connection points: 6
#     Node 1, Type 0, BuildingBlock: CUKXOW_clean_sbu_0, # of connection points: 6
#     Node 2, Type 0, BuildingBlock: CUKXOW_clean_sbu_0, # of connection points: 6
#     Node 3, Type 0, BuildingBlock: CUKXOW_clean_sbu_0, # of connection points: 6
#     Node 4, Type 0, BuildingBlock: CUKXOW_clean_sbu_0, # of connection points: 6
#     Node 5, Type 0, BuildingBlock: CUKXOW_clean_sbu_0, # of connection points: 6
#     Edge 6, Type (0, 0), BuildingBlock: KIFKEQ_clean_linker_1, # of connection points: 2
#     Edge 7, Type (0, 0), BuildingBlock: KIFKEQ_clean_linker_1, # of connection points: 2
#     Edge 8, Type (0, 0), BuildingBlock: KIFKEQ_clean_linker_1, # of connection points: 2
#     Edge 9, Type (0, 0), BuildingBlock: KIFKEQ_clean_linker_1, # of connection points: 2
#     Edge 10, Type (0, 0), BuildingBlock: KIFKEQ_clean_linker_1, # of connection points: 2
#     Edge 11, Type (0, 0), BuildingBlock: KIFKEQ_clean_linker_1, # of connection points: 2
#     Edge 12, Type (0, 0), BuildingBlock: KIFKEQ_clean_linker_1, # of connection points: 2
#     Edge 13, Type (0, 0), BuildingBlock: KIFKEQ_clean_linker_1, # of connection points: 2
#     Edge 14, Type (0, 0), BuildingBlock: KIFKEQ_clean_linker_1, # of connection points: 2
#     Edge 15, Type (0, 0), BuildingBlock: KIFKEQ_clean_linker_1, # of connection points: 2
#     Edge 16, Type (0, 0), BuildingBlock: KIFKEQ_clean_linker_1, # of connection points: 2
#     Edge 17, Type (0, 0), BuildingBlock: KIFKEQ_clean_linker_1, # of connection points: 2
#     Edge 18, Type (0, 0), BuildingBlock: KIFKEQ_clean_linker_1, # of connection points: 2
#     Edge 19, Type (0, 0), BuildingBlock: KIFKEQ_clean_linker_1, # of connection points: 2
#     Edge 20, Type (0, 0), BuildingBlock: KIFKEQ_clean_linker_1, # of connection points: 2
#     Edge 21, Type (0, 0), BuildingBlock: KIFKEQ_clean_linker_1, # of connection points: 2
#     Edge 22, Type (0, 0), BuildingBlock: KIFKEQ_clean_linker_1, # of connection points: 2
#     Edge 23, Type (0, 0), BuildingBlock: KIFKEQ_clean_linker_1, # of connection points: 2
# Relax obj value: 0.192
# Max RMSD: 0.297
# Mean RMSD: 0.276
data_MOF--net-smu--node1-CUKXOW_clean_sbu_0--edge1-KIFKEQ_clean_linker_1
_symmetry_space_group_name_H-M    P1
_symmetry_Int_Tables_number       1
_symmetry_cell_setting            triclinic
loop_
_symmetry_equiv_pos_as_xyz
'x, y, z'
_cell_length_a     30.926783
_cell_length_b     30.867488
_cell_length_c     28.626475
_cell_angle_alpha  93.191403
_cell_angle_beta   91.234513
_cell_angle_gamma 119.9653
loop_
_atom_site_label
_atom_site_type_symbol
_atom_site_fract_x
_atom_site_fract_y
_atom_site_fract_z
_atom_type_partial_charge
Tb0 Tb 0.40281 0.16515 0.31551 0.0
C1 C 0.36503 0.09772 0.4017 0.0
Tb2 Tb 0.32152 0.05563 0.29631 0.0
O3 O 0.34739 0.17634 0.35052 0.0
O4 O 0.32628 0.12631 0.29118 0.0
O5 O 0.40284 0.13957 0.38655 0.0
C6 C 0.22801 0.98053 0.29833 0.0
O7 O 0.32842 0.06285 0.37286 0.0
C8 C 0.4143 0.07395 0.29495 0.0
C9 C 0.36791 0.11253 0.21084 0.0
O10 O 0.24577 0.02517 0.31839 0.0
O11 O 0.2634 0.97735 0.2772 0.0
O12 O 0.37729 0.03483 0.27178 0.0
O13 O 0.39659 0.09518 0.31968 0.0
O14 O 0.32515 0.07917 0.22678 0.0
O15 O 0.40621 0.14612 0.23958 0.0
C16 C 0.46898 0.26345 0.31407 0.0
O17 O 0.42118 0.24184 0.30603 0.0
O18 O 0.48062 0.22939 0.32291 0.0
C19 C 0.31055 0.14515 0.3219 0.0
Tb20 Tb 0.76519 0.72455 0.27569 0.0
C21 C 0.76853 0.66753 0.35834 0.0
Tb22 Tb 0.78613 0.63982 0.25288 0.0
O23 O 0.68957 0.67159 0.29801 0.0
O24 O 0.72362 0.64916 0.24814 0.0
O25 O 0.77874 0.71183 0.34561 0.0
C26 C 0.81662 0.57238 0.24975 0.0
O27 O 0.76333 0.63092 0.32725 0.0
C28 C 0.86227 0.73084 0.24981 0.0
C29 C 0.76859 0.69268 0.16975 0.0
O30 O 0.83979 0.61674 0.27107 0.0
O31 O 0.77407 0.5643 0.231 0.0
O32 O 0.85341 0.69324 0.22105 0.0
O33 O 0.82925 0.71607 0.27956 0.0
O34 O 0.7632 0.64898 0.18177 0.0
O35 O 0.77752 0.72948 0.20148 0.0
C36 C 0.78395 0.81866 0.28787 0.0
O37 O 0.74598 0.78273 0.26289 0.0
O38 O 0.80979 0.80102 0.30662 0.0
C39 C 0.68644 0.63343 0.27284 0.0
Tb40 Tb 0.8827 0.26095 0.2836 0.0
C41 C 0.95394 0.28948 0.3751 0.0
Tb42 Tb 0.9873 0.27888 0.27268 0.0
O43 O 0.86282 0.19238 0.3164 0.0
O44 O 0.91387 0.21502 0.26419 0.0
O45 O 0.91366 0.28925 0.3567 0.0
C46 C 0.05841 0.25491 0.28161 0.0
O47 O 0.98516 0.2829 0.34868 0.0
C48 C 0.977 0.35922 0.27019 0.0
C49 C 0.92816 0.26835 0.18373 0.0
O50 O 1.0169 0.23544 0.30252 0.0
O51 O 0.06098 0.2894 0.25555 0.0
O52 O 1.01234 0.35569 0.24924 0.0
O53 O 0.95494 0.32193 0.29333 0.0
O54 O 0.95588 0.25184 0.20254 0.0
O55 O 0.9017 0.28239 0.2104 0.0
C56 C 0.78894 0.24373 0.27459 0.0
O57 O 0.80959 0.22681 0.24572 0.0
O58 O 0.82174 0.27202 0.30806 0.0
C59 C 0.89335 0.18313 0.29393 0.0
Tb60 Tb 0.05913 0.31274 0.78215 0.0
C61 C 0.10963 0.37251 0.6979 0.0
Tb62 Tb 0.16823 0.39671 0.79896 0.0
O63 O 0.03545 0.36852 0.76611 0.0
O64 O 0.09791 0.38751 0.8086 0.0
O65 O 0.07467 0.32903 0.71082 0.0
C66 C 0.26364 0.46543 0.78914 0.0
O67 O 0.14619 0.40701 0.72746 0.0
C68 C 0.15225 0.30584 0.80403 0.0
C69 C 0.10432 0.35022 0.88625 0.0
O70 O 0.23691 0.42481 0.7624 0.0
O71 O 0.23625 0.4685 0.82186 0.0
O72 O 0.18636 0.34471 0.82889 0.0
O73 O 0.13081 0.31947 0.77508 0.0
O74 O 0.14184 0.39222 0.87094 0.0
O75 O 0.07285 0.31136 0.85713 0.0
C76 C 0.9864 0.21797 0.7659 0.0
O77 O 0.98317 0.25143 0.79321 0.0
O78 O 0.02969 0.23823 0.74809 0.0
C79 C 0.07486 0.40554 0.78897 0.0
Tb80 Tb 0.28619 0.98108 0.78552 0.0
C81 C 0.29591 0.92837 0.69614 0.0
Tb82 Tb 0.27002 0.87735 0.79406 0.0
O83 O 0.36546 1.00844 0.7674 0.0
O84 O 0.32868 0.95004 0.80939 0.0
O85 O 0.28256 0.96033 0.7125 0.0
C86 C 0.25231 0.78294 0.78444 0.0
O87 O 0.30038 0.89675 0.72323 0.0
C88 C 0.18811 0.88317 0.79759 0.0
C89 C 0.28289 0.94461 0.88635 0.0
O90 O 0.24023 0.80498 0.75394 0.0
O91 O 0.27676 0.815 0.82001 0.0
O92 O 0.19782 0.85441 0.82125 0.0
O93 O 0.22395 0.90648 0.77159 0.0
O94 O 0.29174 0.90921 0.86777 0.0
O95 O 0.27111 0.97127 0.85949 0.0
C96 C 0.26286 0.05277 0.7792 0.0
O97 O 0.30327 0.05889 0.80081 0.0
O98 O 0.23674 1.00709 0.76125 0.0
C99 C 0.36824 0.97377 0.78916 0.0
Tb100 Tb 0.73093 0.75144 0.75456 0.0
C101 C 0.66854 0.73612 0.66233 0.0
Tb102 Tb 0.65306 0.7858 0.75512 0.0
O103 O 0.67019 0.67108 0.74247 0.0
O104 O 0.65819 0.72498 0.77532 0.0
O105 O 0.71261 0.74743 0.68096 0.0
C106 C 0.59031 0.8208 0.76835 0.0
O107 O 0.63477 0.74141 0.68654 0.0
C108 C 0.74195 0.84974 0.72635 0.0
C109 C 0.7075 0.78234 0.85185 0.0
O110 O 0.57726 0.77574 0.75079 0.0
O111 O 0.63782 0.84475 0.77984 0.0
O112 O 0.6999 0.84216 0.70826 0.0
O113 O 0.73224 0.82127 0.75908 0.0
O114 O 0.66769 0.78193 0.83147 0.0
O115 O 0.74072 0.77722 0.82743 0.0
C116 C 0.82177 0.7634 0.74963 0.0
O117 O 0.78757 0.73239 0.77594 0.0
O118 O 0.80406 0.78604 0.72563 0.0
C119 C 0.6365 0.68047 0.75917 0.0
H120 H 0.36325 0.95896 0.94136 0.0
H121 H 0.23277 0.9752 0.94316 0.0
H122 H 0.39375 1.00786 1.017 0.0
H123 H 0.26103 0.02117 1.01962 0.0
H124 H 0.33361 0.13865 0.13541 0.0
H125 H 0.31635 0.09793 0.05631 0.0
H126 H 0.38888 1.01584 0.0972 0.0
H127 H 0.40881 0.05956 0.17497 0.0
C128 C 0.34023 0.97147 0.9588 0.0
C129 C 0.29541 0.96287 0.93655 0.0
C130 C 0.35784 0.99994 1.00216 0.0
C131 C 0.33065 0.01989 1.02461 0.0
C132 C 0.28431 1.00846 1.00315 0.0
C133 C 0.26737 0.98103 0.95958 0.0
C134 C 0.34799 0.1138 0.12655 0.0
C135 C 0.37377 0.10336 0.16087 0.0
C136 C 0.33691 0.08919 0.08152 0.0
C137 C 0.34974 0.05204 0.07014 0.0
C138 C 0.37841 0.04413 0.10394 0.0
C139 C 0.39037 0.06962 0.14864 0.0
H140 H 0.69497 0.78905 0.58591 0.0
H141 H 0.62956 0.63888 0.6297 0.0
H142 H 0.717 0.7622 0.5128 0.0
H143 H 0.65169 0.6116 0.5563 0.0
H144 H 0.68242 0.59235 0.39192 0.0
H145 H 0.64516 0.60281 0.46378 0.0
H146 H 0.78391 0.73792 0.50618 0.0
H147 H 0.82028 0.72774 0.43481 0.0
C148 C 0.68279 0.74964 0.5787 0.0
C149 C 0.65933 0.71584 0.61296 0.0
C150 C 0.69643 0.7344 0.53729 0.0
C151 C 0.6872 0.68497 0.52922 0.0
C152 C 0.65943 0.6499 0.56144 0.0
C153 C 0.64601 0.66534 0.60314 0.0
C154 C 0.70541 0.62303 0.41756 0.0
C155 C 0.75419 0.65935 0.40754 0.0
C156 C 0.6839 0.62943 0.45844 0.0
C157 C 0.71098 0.67231 0.4898 0.0
C158 C 0.76144 0.70538 0.48204 0.0
C159 C 0.78271 0.69893 0.44159 0.0
H160 H 0.91402 0.20682 0.10677 0.0
H161 H 0.9727 0.36202 0.15327 0.0
H162 H 0.95892 0.23142 0.03537 0.0
H163 H 1.0208 0.3875 0.08346 0.0
H164 H 0.08186 0.41437 0.93451 0.0
H165 H 0.03158 0.39602 1.00328 0.0
H166 H 0.04004 0.26133 1.01527 0.0
H167 H 0.08732 0.27855 0.94514 0.0
C168 C 0.93535 0.24631 0.10086 0.0
C169 C 0.93908 0.28246 0.13513 0.0
C170 C 0.96237 0.26066 0.06049 0.0
C171 C 0.99534 0.31168 0.05399 0.0
C172 C 0.99609 0.34789 0.08683 0.0
C173 C 0.96802 0.33336 0.1268 0.0
C174 C 0.07419 0.38176 0.95295 0.0
C175 C 0.0891 0.34825 0.93501 0.0
C176 C 0.04485 0.37083 0.99217 0.0
C177 C 0.03019 0.32632 1.01455 0.0
C178 C 0.04858 0.29494 0.99826 0.0
C179 C 0.07688 0.30536 0.95866 0.0
H180 H 0.43836 0.0906 0.45039 0.0
H181 H 0.28928 0.06689 0.45934 0.0
H182 H 0.42613 0.04128 0.51844 0.0
H183 H 0.2773 1.0194 0.5276 0.0
H184 H 0.23989 0.89479 0.61434 0.0
H185 H 0.2626 0.93867 0.54273 0.0
H186 H 0.41372 0.03298 0.60139 0.0
H187 H 0.39089 0.98728 0.67206 0.0
C188 C 0.40381 0.07664 0.46816 0.0
C189 C 0.36503 0.08321 0.45009 0.0
C190 C 0.39645 0.04776 0.50676 0.0
C191 C 0.3501 0.02488 0.5279 0.0
C192 C 0.31284 0.03469 0.51145 0.0
C193 C 0.32005 0.06298 0.47292 0.0
C194 C 0.27859 0.92292 0.61074 0.0
C195 C 0.31386 0.93672 0.64836 0.0
C196 C 0.29145 0.94918 0.57021 0.0
C197 C 0.33971 0.99074 0.5667 0.0
C198 C 0.37622 1.00142 0.60263 0.0
C199 C 0.36335 0.97468 0.643 0.0
H200 H 0.63484 0.72313 0.91006 0.0
H201 H 0.7924 0.82891 0.90664 0.0
H202 H 0.64975 0.69882 0.98654 0.0
H203 H 0.80776 0.80392 0.98102 0.0
H204 H 0.81779 0.78215 0.13345 0.0
H205 H 0.79865 0.80697 0.06098 0.0
H206 H 0.68693 0.65288 1.02095 0.0
H207 H 0.70495 0.62816 0.09612 0.0
C208 C 0.67231 0.74246 0.92645 0.0
C209 C 0.71234 0.7787 0.90285 0.0
C210 C 0.68112 0.72765 0.96966 0.0
C211 C 0.7301 0.74891 0.99004 0.0
C212 C 0.76946 0.78695 0.96716 0.0
C213 C 0.76066 0.80165 0.92444 0.0
C214 C 0.78952 0.7532 0.10903 0.0
C215 C 0.76307 0.70305 0.12058 0.0
C216 C 0.77854 0.76754 0.06715 0.0
C217 C 0.74105 0.73215 0.03475 0.0
C218 C 0.71555 0.68137 0.04535 0.0
C219 C 0.72652 0.66692 0.08791 0.0
H220 H 0.99363 0.24795 0.42877 0.0
H221 H 0.95401 0.36362 0.4337 0.0
H222 H 0.0378 0.27979 0.50502 0.0
H223 H 0.99974 0.39693 0.5105 0.0
H224 H 0.04236 0.39835 0.67068 0.0
H225 H 1.00262 0.38169 0.59219 0.0
H226 H 0.1136 0.34877 0.53893 0.0
H227 H 0.15201 0.3639 0.61816 0.0
C228 C 0.99384 0.27995 0.44666 0.0
C229 C 0.97009 0.30309 0.42542 0.0
C230 C 1.02003 0.29887 0.49009 0.0
C231 C 1.02386 0.342 0.51354 0.0
C232 C 0.99788 0.36381 0.4934 0.0
C233 C 0.97118 0.34448 0.44967 0.0
C234 C 0.05958 0.38988 0.64173 0.0
C235 C 0.10082 0.38334 0.65028 0.0
C236 C 0.03649 0.37983 0.59669 0.0
C237 C 0.054 0.36263 0.5592 0.0
C238 C 0.0982 0.36065 0.56716 0.0
C239 C 0.12107 0.37044 0.61233 0.0
H240 H 0.48655 0.15254 0.34744 0.0
H241 H 0.46514 0.04401 0.23448 0.0
H242 H 0.57512 0.1963 0.33895 0.0
H243 H 0.55622 0.08542 0.22866 0.0
H244 H 0.71914 0.19768 0.20181 0.0
H245 H 0.62824 0.15506 0.20533 0.0
H246 H 0.64622 0.19535 0.35466 0.0
H247 H 0.73623 0.24076 0.34988 0.0
C248 C 0.501 0.13772 0.32082 0.0
C249 C 0.4687 0.09534 0.29105 0.0
C250 C 0.55235 0.16247 0.31649 0.0
C251 C 0.57366 0.14453 0.28339 0.0
C252 C 0.54136 0.10101 0.25414 0.0
C253 C 0.48921 0.07679 0.25775 0.0
C254 C 0.70327 0.19821 0.23506 0.0
C255 C 0.73452 0.22318 0.27544 0.0
C256 C 0.65117 0.17309 0.2373 0.0
C257 C 0.62924 0.17145 0.28026 0.0
C258 C 0.66109 0.19666 0.32057 0.0
C259 C 0.71297 0.22279 0.31802 0.0
H260 H 0.61142 0.59151 0.33413 0.0
H261 H 0.68527 0.55376 0.2267 0.0
H262 H 0.56097 0.50246 0.34847 0.0
H263 H 0.63594 0.4654 0.24139 0.0
H264 H 0.5718 0.31636 0.31153 0.0
H265 H 0.62493 0.40693 0.30391 0.0
H266 H 0.49443 0.42366 0.30572 0.0
H267 H 0.44196 0.33409 0.31307 0.0
C268 C 0.61674 0.5642 0.31352 0.0
C269 C 0.65277 0.57964 0.27977 0.0
C270 C 0.58806 0.51327 0.32179 0.0
C271 C 0.59498 0.47686 0.29653 0.0
C272 C 0.63048 0.49248 0.26224 0.0
C273 C 0.65862 0.54313 0.2537 0.0
C274 C 0.55477 0.33963 0.3107 0.0
C275 C 0.50281 0.31819 0.31273 0.0
C276 C 0.58501 0.39134 0.30611 0.0
C277 C 0.56384 0.42253 0.3042 0.0
C278 C 0.51203 0.40097 0.30758 0.0
C279 C 0.48193 0.3495 0.31151 0.0
H280 H 0.90039 0.35881 0.3128 0.0
H281 H 1.00867 0.43739 0.2114 0.0
H282 H 0.85982 0.40691 0.29833 0.0
H283 H 0.96876 0.48827 0.19837 0.0
H284 H 0.91497 0.603 0.25785 0.0
H285 H 0.95514 0.55217 0.25488 0.0
H286 H 0.81098 0.41854 0.22779 0.0
H287 H 0.77049 0.46997 0.22958 0.0
C288 C 0.91528 0.38608 0.2869 0.0
C289 C 0.95704 0.39328 0.26238 0.0
C290 C 0.89186 0.41367 0.27863 0.0
C291 C 0.91034 0.45055 0.24651 0.0
C292 C 0.95332 0.45945 0.22292 0.0
C293 C 0.97629 0.43064 0.23048 0.0
C294 C 0.89179 0.56278 0.25065 0.0
C295 C 0.83949 0.54029 0.24439 0.0
C296 C 0.91496 0.53381 0.24848 0.0
C297 C 0.8863 0.4815 0.24098 0.0
C298 C 0.83398 0.45893 0.23354 0.0
C299 C 0.81078 0.48818 0.23463 0.0
H300 H 0.04414 0.45936 0.73572 0.0
H301 H 0.15479 0.4762 0.84071 0.0
H302 H 0.0869 0.55131 0.73407 0.0
H303 H 0.19849 0.56545 0.83707 0.0
H304 H 0.24454 0.72763 0.85782 0.0
H305 H 0.19639 0.63692 0.85923 0.0
H306 H 0.16031 0.62294 0.71031 0.0
H307 H 0.20652 0.71433 0.70986 0.0
C308 C 0.07737 0.48252 0.75832 0.0
C309 C 0.09612 0.46043 0.78816 0.0
C310 C 0.10226 0.53511 0.75713 0.0
C311 C 0.14632 0.56623 0.78563 0.0
C312 C 0.16429 0.54346 0.8154 0.0
C313 C 0.13932 0.49171 0.81702 0.0
C314 C 0.22694 0.70511 0.82531 0.0
C315 C 0.2298 0.72795 0.78368 0.0
C316 C 0.19915 0.65293 0.82597 0.0
C317 C 0.17432 0.6221 0.78475 0.0
C318 C 0.17809 0.64521 0.74286 0.0
C319 C 0.20527 0.69756 0.74242 0.0
H320 H 0.45389 1.01042 0.73834 0.0
H321 H 0.36568 0.89721 0.83172 0.0
H322 H 0.50891 0.97404 0.73026 0.0
H323 H 0.41874 0.86083 0.8228 0.0
H324 H 0.48854 0.77486 0.75399 0.0
H325 H 0.43699 0.81475 0.75568 0.0
H326 H 0.56929 0.95963 0.78585 0.0
H327 H 0.62066 0.91975 0.78485 0.0
C328 C 0.44615 0.97791 0.75691 0.0
C329 C 0.40488 0.9562 0.78498 0.0
C330 C 0.4775 0.9571 0.75235 0.0
C331 C 0.46747 0.91396 0.77526 0.0
C332 C 0.42682 0.89325 0.80386 0.0
C333 C 0.3964 0.91433 0.80898 0.0
C334 C 0.5065 0.81515 0.76105 0.0
C335 C 0.55847 0.84409 0.76979 0.0
C336 C 0.47712 0.83804 0.76188 0.0
C337 C 0.4992 0.8904 0.77071 0.0
C338 C 0.55131 0.91937 0.77846 0.0
C339 C 0.58057 0.89641 0.77837 0.0
H340 H 0.33253 0.53831 0.85301 0.0
H341 H 0.31716 0.46583 0.71546 0.0
H342 H 0.42313 0.58676 0.847 0.0
H343 H 0.40709 0.51533 0.70838 0.0
H344 H 0.57681 0.58069 0.72616 0.0
H345 H 0.48643 0.52763 0.73475 0.0
H346 H 0.48458 0.65281 0.80842 0.0
H347 H 0.57352 0.70375 0.80198 0.0
C348 C 0.34851 0.5334 0.82123 0.0
C349 C 0.31786 0.49859 0.78468 0.0
C350 C 0.40044 0.5611 0.81762 0.0
C351 C 0.42276 0.55501 0.77711 0.0
C352 C 0.39165 0.52046 0.74042 0.0
C353 C 0.33994 0.49251 0.74426 0.0
C354 C 0.55683 0.59639 0.74437 0.0
C355 C 0.58224 0.6464 0.76311 0.0
C356 C 0.50506 0.56627 0.7491 0.0
C357 C 0.47794 0.5858 0.77253 0.0
C358 C 0.5039 0.63588 0.79107 0.0
C359 C 0.55514 0.66547 0.78672 0.0
H360 H 0.26656 0.17243 0.38822 0.0
H361 H 0.25693 0.1324 0.23989 0.0
H362 H 0.20367 0.19698 0.37635 0.0
H363 H 0.19388 0.15752 0.22781 0.0
H364 H 0.14004 0.27759 0.2299 0.0
H365 H 0.19688 0.24384 0.2374 0.0
H366 H 0.1127 0.15751 0.34996 0.0
H367 H 0.05658 0.19087 0.34262 0.0
C368 C 0.25015 0.168 0.3532 0.0
C369 C 0.2663 0.15049 0.31501 0.0
C370 C 0.21432 0.18213 0.34637 0.0
C371 C 0.19436 0.17957 0.3011 0.0
C372 C 0.2092 0.16035 0.26297 0.0
C373 C 0.24466 0.14542 0.26994 0.0
C374 C 0.13403 0.25155 0.25623 0.0
C375 C 0.09435 0.23711 0.28591 0.0
C376 C 0.16606 0.23188 0.26021 0.0
C377 C 0.15899 0.19805 0.29424 0.0
C378 C 0.11916 0.18373 0.32367 0.0
C379 C 0.08713 0.20291 0.31944 0.0
H380 H 0.90728 0.79025 0.33082 0.0
H381 H 0.93188 0.76758 0.18586 0.0
H382 H 0.99667 0.85039 0.34538 0.0
H383 H 1.02053 0.82819 0.19984 0.0
H384 H 0.18119 0.88793 0.25048 0.0
H385 H 0.09102 0.82979 0.24027 0.0
H386 H 0.06448 0.9318 0.32803 0.0
H387 H 0.15422 0.98886 0.33912 0.0
C388 C 0.93165 0.79912 0.30191 0.0
C389 C 0.91304 0.77419 0.25735 0.0
C390 C 0.98278 0.83332 0.31019 0.0
C391 C 1.01585 0.84316 0.27394 0.0
C392 C 0.99635 0.82031 0.2288 0.0
C393 C 0.94553 0.78612 0.22065 0.0
C394 C 0.15598 0.89741 0.268 0.0
C395 C 0.17448 0.94274 0.29544 0.0
C396 C 0.10441 0.8645 0.26185 0.0
C397 C 0.07057 0.87653 0.28292 0.0
C398 C 0.08944 0.92125 0.3116 0.0
C399 C 0.14086 0.95398 0.3178 0.0
H400 H 0.87673 0.12715 0.36693 0.0
H401 H 0.89728 0.12697 0.21831 0.0
H402 H 0.8526 0.03878 0.36478 0.0
H403 H 0.87217 0.03758 0.21587 0.0
H404 H 0.75176 0.86678 0.23135 0.0
H405 H 0.78614 0.95775 0.23094 0.0
H406 H 0.8892 0.98203 0.34703 0.0
H407 H 0.85528 0.89174 0.34726 0.0
C408 C 0.87703 0.10824 0.33398 0.0
C409 C 0.88889 0.13351 0.29284 0.0
C410 C 0.86315 0.05777 0.33272 0.0
C411 C 0.86006 0.03138 0.29009 0.0
C412 C 0.87384 0.05714 0.24907 0.0
C413 C 0.88873 0.10818 0.25053 0.0
C414 C 0.78143 0.89169 0.25694 0.0
C415 C 0.80061 0.87246 0.28961 0.0
C416 C 0.80151 0.94357 0.25631 0.0
C417 C 0.84053 0.97673 0.28874 0.0
C418 C 0.85912 0.95725 0.32171 0.0
C419 C 0.83956 0.90565 0.32195 0.0
H420 H 0.13276 0.24164 0.72584 0.0
H421 H 0.17886 0.26727 0.8729 0.0
H422 H 0.15835 0.17813 0.71729 0.0
H423 H 0.20346 0.2038 0.86481 0.0
H424 H 0.3078 0.14735 0.82238 0.0
H425 H 0.2741 0.20414 0.82687 0.0
H426 H 0.14389 0.09576 0.74081 0.0
H427 H 0.17798 0.03951 0.73576 0.0
C428 C 0.14686 0.2325 0.75649 0.0
C429 C 0.15439 0.25939 0.7999 0.0
C430 C 0.16178 0.1965 0.75163 0.0
C431 C 0.18421 0.18711 0.79018 0.0
C432 C 0.18777 0.21135 0.83422 0.0
C433 C 0.17313 0.24718 0.83897 0.0
C434 C 0.27229 0.13604 0.8041 0.0
C435 C 0.24542 0.08919 0.77891 0.0
C436 C 0.25274 0.16822 0.80694 0.0
C437 C 0.20598 0.15402 0.78466 0.0
C438 C 0.17999 0.10776 0.75818 0.0
C439 C 0.1995 0.0756 0.75542 0.0
H440 H 0.14553 0.94035 0.77733 0.0
H441 H 0.112 0.78779 0.78807 0.0
H442 H 0.05612 0.91014 0.76248 0.0
H443 H 1.02381 0.75772 0.77252 0.0
H444 H 0.86846 0.72904 0.8061 0.0
H445 H 0.95804 0.75944 0.81463 0.0
H446 H 0.98422 0.8607 0.70638 0.0
H447 H 0.89479 0.83089 0.69862 0.0
C448 C 0.11925 0.90049 0.7757 0.0
C449 C 0.13556 0.86653 0.7842 0.0
C450 C 0.06811 0.8831 0.76725 0.0
C451 C 0.0328 0.8315 0.76698 0.0
C452 C 0.04976 0.79771 0.77368 0.0
C453 C 0.1004 0.81501 0.78239 0.0
C454 C 0.89336 0.75732 0.78382 0.0
C455 C 0.87482 0.77744 0.75162 0.0
C456 C 0.94464 0.77478 0.7886 0.0
C457 C 0.97829 0.81261 0.76118 0.0
C458 C 0.95942 0.83206 0.72842 0.0
C459 C 0.90818 0.8146 0.72366 0.0
H460 H 0.98275 0.15474 0.69512 0.0
H461 H 0.90847 0.16001 0.81952 0.0
H462 H 0.92762 0.06408 0.68423 0.0
H463 H 0.85338 0.06848 0.80891 0.0
H464 H 0.80843 0.90051 0.80082 0.0
H465 H 0.86797 0.99078 0.81 0.0
H466 H 0.83228 1.00423 0.66685 0.0
H467 H 0.77204 0.91418 0.65792 0.0
C468 C 0.95429 0.13643 0.71996 0.0
C469 C 0.94955 0.16419 0.75805 0.0
C470 C 0.92288 0.08462 0.71371 0.0
C471 C 0.88667 0.05942 0.74591 0.0
C472 C 0.8815 0.08717 0.78389 0.0
C473 C 0.91249 0.13937 0.7897 0.0
C474 C 0.81422 0.92257 0.77101 0.0
C475 C 0.78578 0.90057 0.72859 0.0
C476 C 0.84771 0.97422 0.77649 0.0
C477 C 0.85398 1.00435 0.73936 0.0
C478 C 0.82795 0.98175 0.69603 0.0
C479 C 0.79382 0.93032 0.69082 0.0
loop_
_geom_bond_atom_site_label_1
_geom_bond_atom_site_label_2
_geom_bond_distance
_geom_bond_site_symmetry_2
_ccdc_geom_bond_type
Tb0 O3 2.453 . S
Tb0 O4 2.596 . S
Tb0 O5 2.374 . S
Tb0 O13 2.343 . S
Tb0 O15 2.353 . S
Tb0 O17 2.427 . S
Tb0 O18 2.513 . S
C1 O5 1.251 . S
C1 O7 1.263 . S
Tb2 O4 2.343 . S
Tb2 O7 2.353 . S
Tb2 O10 2.427 1_545 S
Tb2 O11 2.513 1_545 S
Tb2 O12 2.453 . S
Tb2 O13 2.596 . S
Tb2 O14 2.374 . S
O3 Tb0 2.453 . S
O3 C19 1.245 . S
O4 Tb0 2.596 . S
O4 Tb2 2.343 . S
O4 C19 1.259 . S
O5 Tb0 2.374 . S
O5 C1 1.251 . S
C6 O10 1.275 . S
C6 O11 1.246 . S
O7 C1 1.263 . S
O7 Tb2 2.353 . S
C8 O12 1.245 . S
C8 O13 1.259 . S
C9 O14 1.250 . S
C9 O15 1.263 . S
O10 Tb2 2.427 1_565 S
O10 C6 1.275 . S
O11 Tb2 2.513 1_565 S
O11 C6 1.246 . S
O12 Tb2 2.453 . S
O12 C8 1.245 . S
O13 Tb0 2.343 . S
O13 Tb2 2.596 . S
O13 C8 1.259 . S
O14 Tb2 2.374 . S
O14 C9 1.250 . S
O15 Tb0 2.353 . S
O15 C9 1.263 . S
C16 O17 1.275 . S
C16 O18 1.246 . S
O17 Tb0 2.427 . S
O17 C16 1.275 . S
O18 Tb0 2.513 . S
O18 C16 1.246 . S
C19 O3 1.245 . S
C19 O4 1.259 . S
Tb20 O23 2.453 . S
Tb20 O24 2.596 . S
Tb20 O25 2.374 . S
Tb20 O33 2.343 . S
Tb20 O35 2.353 . S
Tb20 O37 2.427 . S
Tb20 O38 2.513 . S
C21 O25 1.251 . S
C21 O27 1.263 . S
Tb22 O24 2.343 . S
Tb22 O27 2.353 . S
Tb22 O30 2.427 . S
Tb22 O31 2.513 . S
Tb22 O32 2.453 . S
Tb22 O33 2.596 . S
Tb22 O34 2.374 . S
O23 Tb20 2.453 . S
O23 C39 1.245 . S
O24 Tb20 2.596 . S
O24 Tb22 2.343 . S
O24 C39 1.259 . S
O25 Tb20 2.374 . S
O25 C21 1.251 . S
C26 O30 1.275 . S
C26 O31 1.246 . S
O27 C21 1.263 . S
O27 Tb22 2.353 . S
C28 O32 1.245 . S
C28 O33 1.259 . S
C29 O34 1.250 . S
C29 O35 1.263 . S
O30 Tb22 2.427 . S
O30 C26 1.275 . S
O31 Tb22 2.513 . S
O31 C26 1.246 . S
O32 Tb22 2.453 . S
O32 C28 1.245 . S
O33 Tb20 2.343 . S
O33 Tb22 2.596 . S
O33 C28 1.259 . S
O34 Tb22 2.374 . S
O34 C29 1.250 . S
O35 Tb20 2.353 . S
O35 C29 1.263 . S
C36 O37 1.275 . S
C36 O38 1.246 . S
O37 Tb20 2.427 . S
O37 C36 1.275 . S
O38 Tb20 2.513 . S
O38 C36 1.246 . S
C39 O23 1.245 . S
C39 O24 1.259 . S
Tb40 O43 2.453 . S
Tb40 O44 2.596 . S
Tb40 O45 2.374 . S
Tb40 O53 2.343 . S
Tb40 O55 2.353 . S
Tb40 O57 2.427 . S
Tb40 O58 2.513 . S
C41 O45 1.251 . S
C41 O47 1.263 . S
Tb42 O44 2.343 . S
Tb42 O47 2.353 . S
Tb42 O50 2.427 1_655 S
Tb42 O51 2.513 1_655 S
Tb42 O52 2.453 . S
Tb42 O53 2.596 . S
Tb42 O54 2.374 . S
O43 Tb40 2.453 . S
O43 C59 1.245 . S
O44 Tb40 2.596 . S
O44 Tb42 2.343 . S
O44 C59 1.259 . S
O45 Tb40 2.374 . S
O45 C41 1.251 . S
C46 O50 1.275 . S
C46 O51 1.246 . S
O47 C41 1.263 . S
O47 Tb42 2.353 . S
C48 O52 1.245 . S
C48 O53 1.259 . S
C49 O54 1.250 . S
C49 O55 1.263 . S
O50 Tb42 2.427 1_455 S
O50 C46 1.275 . S
O51 Tb42 2.513 1_455 S
O51 C46 1.246 . S
O52 Tb42 2.453 . S
O52 C48 1.245 . S
O53 Tb40 2.343 . S
O53 Tb42 2.596 . S
O53 C48 1.259 . S
O54 Tb42 2.374 . S
O54 C49 1.250 . S
O55 Tb40 2.353 . S
O55 C49 1.263 . S
C56 O57 1.275 . S
C56 O58 1.246 . S
O57 Tb40 2.427 . S
O57 C56 1.275 . S
O58 Tb40 2.513 . S
O58 C56 1.246 . S
C59 O43 1.245 . S
C59 O44 1.259 . S
Tb60 O63 2.453 . S
Tb60 O64 2.596 . S
Tb60 O65 2.374 . S
Tb60 O73 2.343 . S
Tb60 O75 2.353 . S
Tb60 O77 2.427 1_455 S
Tb60 O78 2.513 1_455 S
C61 O65 1.251 . S
C61 O67 1.263 . S
Tb62 O64 2.343 . S
Tb62 O67 2.353 . S
Tb62 O70 2.427 . S
Tb62 O71 2.513 . S
Tb62 O72 2.453 . S
Tb62 O73 2.596 . S
Tb62 O74 2.374 . S
O63 Tb60 2.453 . S
O63 C79 1.245 . S
O64 Tb60 2.596 . S
O64 Tb62 2.343 . S
O64 C79 1.259 . S
O65 Tb60 2.374 . S
O65 C61 1.251 . S
C66 O70 1.275 . S
C66 O71 1.246 . S
O67 C61 1.263 . S
O67 Tb62 2.353 . S
C68 O72 1.245 . S
C68 O73 1.259 . S
C69 O74 1.250 . S
C69 O75 1.263 . S
O70 Tb62 2.427 . S
O70 C66 1.275 . S
O71 Tb62 2.513 . S
O71 C66 1.246 . S
O72 Tb62 2.453 . S
O72 C68 1.245 . S
O73 Tb60 2.343 . S
O73 Tb62 2.596 . S
O73 C68 1.259 . S
O74 Tb62 2.374 . S
O74 C69 1.250 . S
O75 Tb60 2.353 . S
O75 C69 1.263 . S
C76 O77 1.275 . S
C76 O78 1.246 . S
O77 Tb60 2.427 1_655 S
O77 C76 1.275 . S
O78 Tb60 2.513 1_655 S
O78 C76 1.246 . S
C79 O63 1.245 . S
C79 O64 1.259 . S
Tb80 O83 2.453 . S
Tb80 O84 2.596 . S
Tb80 O85 2.374 . S
Tb80 O93 2.343 . S
Tb80 O95 2.353 . S
Tb80 O97 2.427 1_565 S
Tb80 O98 2.513 1_565 S
C81 O85 1.251 . S
C81 O87 1.263 . S
Tb82 O84 2.343 . S
Tb82 O87 2.353 . S
Tb82 O90 2.427 . S
Tb82 O91 2.513 . S
Tb82 O92 2.453 . S
Tb82 O93 2.596 . S
Tb82 O94 2.374 . S
O83 Tb80 2.453 . S
O83 C99 1.245 . S
O84 Tb80 2.596 . S
O84 Tb82 2.343 . S
O84 C99 1.259 . S
O85 Tb80 2.374 . S
O85 C81 1.251 . S
C86 O90 1.275 . S
C86 O91 1.246 . S
O87 C81 1.263 . S
O87 Tb82 2.353 . S
C88 O92 1.245 . S
C88 O93 1.259 . S
C89 O94 1.250 . S
C89 O95 1.263 . S
O90 Tb82 2.427 . S
O90 C86 1.275 . S
O91 Tb82 2.513 . S
O91 C86 1.246 . S
O92 Tb82 2.453 . S
O92 C88 1.245 . S
O93 Tb80 2.343 . S
O93 Tb82 2.596 . S
O93 C88 1.259 . S
O94 Tb82 2.374 . S
O94 C89 1.250 . S
O95 Tb80 2.353 . S
O95 C89 1.263 . S
C96 O97 1.275 . S
C96 O98 1.246 . S
O97 Tb80 2.427 1_545 S
O97 C96 1.275 . S
O98 Tb80 2.513 1_545 S
O98 C96 1.246 . S
C99 O83 1.245 . S
C99 O84 1.259 . S
Tb100 O103 2.453 . S
Tb100 O104 2.596 . S
Tb100 O105 2.374 . S
Tb100 O113 2.343 . S
Tb100 O115 2.353 . S
Tb100 O117 2.427 . S
Tb100 O118 2.513 . S
C101 O105 1.251 . S
C101 O107 1.263 . S
Tb102 O104 2.343 . S
Tb102 O107 2.353 . S
Tb102 O110 2.427 . S
Tb102 O111 2.513 . S
Tb102 O112 2.453 . S
Tb102 O113 2.596 . S
Tb102 O114 2.374 . S
O103 Tb100 2.453 . S
O103 C119 1.245 . S
O104 Tb100 2.596 . S
O104 Tb102 2.343 . S
O104 C119 1.259 . S
O105 Tb100 2.374 . S
O105 C101 1.251 . S
C106 O110 1.275 . S
C106 O111 1.246 . S
O107 C101 1.263 . S
O107 Tb102 2.353 . S
C108 O112 1.245 . S
C108 O113 1.259 . S
C109 O114 1.250 . S
C109 O115 1.263 . S
O110 Tb102 2.427 . S
O110 C106 1.275 . S
O111 Tb102 2.513 . S
O111 C106 1.246 . S
O112 Tb102 2.453 . S
O112 C108 1.245 . S
O113 Tb100 2.343 . S
O113 Tb102 2.596 . S
O113 C108 1.259 . S
O114 Tb102 2.374 . S
O114 C109 1.250 . S
O115 Tb100 2.353 . S
O115 C109 1.263 . S
C116 O117 1.275 . S
C116 O118 1.246 . S
O117 Tb100 2.427 . S
O117 C116 1.275 . S
O118 Tb100 2.513 . S
O118 C116 1.246 . S
C119 O103 1.245 . S
C119 O104 1.259 . S
H120 C128 0.950 . S
H121 C133 0.950 . S
H122 C130 0.950 1_545 S
H123 C132 0.950 . S
H124 C134 0.950 . S
H125 C136 0.950 1_565 S
H126 C138 0.950 . S
H127 C139 0.950 . S
C128 H120 0.950 . S
C128 C129 1.386 . S
C128 C130 1.391 . S
C129 C128 1.386 . S
C129 C133 1.393 . S
C130 H122 0.950 1_565 S
C130 C128 1.391 . S
C130 C131 1.400 . S
C131 C130 1.400 . S
C131 C132 1.398 . S
C131 C137 1.491 1_566 S
C132 H123 0.950 . S
C132 C131 1.398 . S
C132 C133 1.391 . S
C133 H121 0.950 . S
C133 C129 1.393 . S
C133 C132 1.391 . S
C134 H124 0.950 . S
C134 C135 1.386 . S
C134 C136 1.391 . S
C135 C134 1.386 . S
C135 C139 1.393 . S
C136 H125 0.950 1_545 S
C136 C134 1.391 . S
C136 C137 1.400 . S
C137 C131 1.491 1_544 S
C137 C136 1.400 . S
C137 C138 1.398 . S
C138 H126 0.950 . S
C138 C137 1.398 . S
C138 C139 1.391 . S
C139 H127 0.950 . S
C139 C135 1.393 . S
C139 C138 1.391 . S
H140 C148 0.950 . S
H141 C153 0.950 . S
H142 C150 0.950 . S
H143 C152 0.950 . S
H144 C154 0.950 . S
H145 C156 0.950 . S
H146 C158 0.950 . S
H147 C159 0.950 . S
C148 H140 0.950 . S
C148 C149 1.386 . S
C148 C150 1.391 . S
C149 C148 1.386 . S
C149 C153 1.393 . S
C150 H142 0.950 . S
C150 C148 1.391 . S
C150 C151 1.400 . S
C151 C150 1.400 . S
C151 C152 1.398 . S
C151 C157 1.491 . S
C152 H143 0.950 . S
C152 C151 1.398 . S
C152 C153 1.391 . S
C153 H141 0.950 . S
C153 C149 1.393 . S
C153 C152 1.391 . S
C154 H144 0.950 . S
C154 C155 1.386 . S
C154 C156 1.391 . S
C155 C154 1.386 . S
C155 C159 1.393 . S
C156 H145 0.950 . S
C156 C154 1.391 . S
C156 C157 1.400 . S
C157 C151 1.491 . S
C157 C156 1.400 . S
C157 C158 1.398 . S
C158 H146 0.950 . S
C158 C157 1.398 . S
C158 C159 1.391 . S
C159 H147 0.950 . S
C159 C155 1.393 . S
C159 C158 1.391 . S
H160 C168 0.950 . S
H161 C173 0.950 . S
H162 C170 0.950 1_556 S
H163 C172 0.950 1_455 S
H164 C174 0.950 . S
H165 C176 0.950 1_554 S
H166 C178 0.950 1_655 S
H167 C179 0.950 . S
C168 H160 0.950 . S
C168 C169 1.386 . S
C168 C170 1.391 . S
C169 C168 1.386 . S
C169 C173 1.393 . S
C170 H162 0.950 1_554 S
C170 C168 1.391 . S
C170 C171 1.400 . S
C171 C170 1.400 . S
C171 C172 1.398 . S
C171 C177 1.491 1_654 S
C172 H163 0.950 1_655 S
C172 C171 1.398 . S
C172 C173 1.391 . S
C173 H161 0.950 . S
C173 C169 1.393 . S
C173 C172 1.391 . S
C174 H164 0.950 . S
C174 C175 1.386 . S
C174 C176 1.391 . S
C175 C174 1.386 . S
C175 C179 1.393 . S
C176 H165 0.950 1_556 S
C176 C174 1.391 . S
C176 C177 1.400 . S
C177 C171 1.491 1_456 S
C177 C176 1.400 . S
C177 C178 1.398 . S
C178 H166 0.950 1_455 S
C178 C177 1.398 . S
C178 C179 1.391 . S
C179 H167 0.950 . S
C179 C175 1.393 . S
C179 C178 1.391 . S
H180 C188 0.950 . S
H181 C193 0.950 . S
H182 C190 0.950 . S
H183 C192 0.950 . S
H184 C194 0.950 . S
H185 C196 0.950 . S
H186 C198 0.950 . S
H187 C199 0.950 . S
C188 H180 0.950 . S
C188 C189 1.386 . S
C188 C190 1.391 1_545 S
C189 C188 1.386 . S
C189 C193 1.393 . S
C190 H182 0.950 . S
C190 C188 1.391 1_565 S
C190 C191 1.400 1_565 S
C191 C190 1.400 1_545 S
C191 C192 1.398 . S
C191 C197 1.491 1_545 S
C192 H183 0.950 . S
C192 C191 1.398 . S
C192 C193 1.391 . S
C193 H181 0.950 . S
C193 C189 1.393 . S
C193 C192 1.391 . S
C194 H184 0.950 . S
C194 C195 1.386 . S
C194 C196 1.391 1_565 S
C195 C194 1.386 . S
C195 C199 1.393 . S
C196 H185 0.950 . S
C196 C194 1.391 1_545 S
C196 C197 1.400 1_545 S
C197 C191 1.491 1_565 S
C197 C196 1.400 1_565 S
C197 C198 1.398 . S
C198 H186 0.950 . S
C198 C197 1.398 . S
C198 C199 1.391 . S
C199 H187 0.950 . S
C199 C195 1.393 . S
C199 C198 1.391 . S
H200 C208 0.950 . S
H201 C213 0.950 . S
H202 C210 0.950 . S
H203 C212 0.950 . S
H204 C214 0.950 . S
H205 C216 0.950 . S
H206 C218 0.950 . S
H207 C219 0.950 . S
C208 H200 0.950 . S
C208 C209 1.386 . S
C208 C210 1.391 . S
C209 C208 1.386 . S
C209 C213 1.393 . S
C210 H202 0.950 . S
C210 C208 1.391 . S
C210 C211 1.400 . S
C211 C210 1.400 . S
C211 C212 1.398 . S
C211 C217 1.491 1_556 S
C212 H203 0.950 . S
C212 C211 1.398 . S
C212 C213 1.391 . S
C213 H201 0.950 . S
C213 C209 1.393 . S
C213 C212 1.391 . S
C214 H204 0.950 . S
C214 C215 1.386 . S
C214 C216 1.391 . S
C215 C214 1.386 . S
C215 C219 1.393 . S
C216 H205 0.950 . S
C216 C214 1.391 . S
C216 C217 1.400 . S
C217 C211 1.491 1_554 S
C217 C216 1.400 . S
C217 C218 1.398 . S
C218 H206 0.950 . S
C218 C217 1.398 . S
C218 C219 1.391 . S
C219 H207 0.950 . S
C219 C215 1.393 . S
C219 C218 1.391 . S
H220 C228 0.950 . S
H221 C233 0.950 . S
H222 C230 0.950 . S
H223 C232 0.950 . S
H224 C234 0.950 . S
H225 C236 0.950 . S
H226 C238 0.950 . S
H227 C239 0.950 . S
C228 H220 0.950 . S
C228 C229 1.386 . S
C228 C230 1.391 1_655 S
C229 C228 1.386 . S
C229 C233 1.393 . S
C230 H222 0.950 . S
C230 C228 1.391 1_455 S
C230 C231 1.400 1_455 S
C231 C230 1.400 1_655 S
C231 C232 1.398 . S
C231 C237 1.491 1_655 S
C232 H223 0.950 . S
C232 C231 1.398 . S
C232 C233 1.391 . S
C233 H221 0.950 . S
C233 C229 1.393 . S
C233 C232 1.391 . S
C234 H224 0.950 . S
C234 C235 1.386 . S
C234 C236 1.391 1_455 S
C235 C234 1.386 . S
C235 C239 1.393 . S
C236 H225 0.950 . S
C236 C234 1.391 1_655 S
C236 C237 1.400 1_655 S
C237 C231 1.491 1_455 S
C237 C236 1.400 1_455 S
C237 C238 1.398 . S
C238 H226 0.950 . S
C238 C237 1.398 . S
C238 C239 1.391 . S
C239 H227 0.950 . S
C239 C235 1.393 . S
C239 C238 1.391 . S
H240 C248 0.950 . S
H241 C253 0.950 . S
H242 C250 0.950 . S
H243 C252 0.950 . S
H244 C254 0.950 . S
H245 C256 0.950 . S
H246 C258 0.950 . S
H247 C259 0.950 . S
C248 H240 0.950 . S
C248 C249 1.386 . S
C248 C250 1.391 . S
C249 C248 1.386 . S
C249 C253 1.393 . S
C250 H242 0.950 . S
C250 C248 1.391 . S
C250 C251 1.400 . S
C251 C250 1.400 . S
C251 C252 1.398 . S
C251 C257 1.491 . S
C252 H243 0.950 . S
C252 C251 1.398 . S
C252 C253 1.391 . S
C253 H241 0.950 . S
C253 C249 1.393 . S
C253 C252 1.391 . S
C254 H244 0.950 . S
C254 C255 1.386 . S
C254 C256 1.391 . S
C255 C254 1.386 . S
C255 C259 1.393 . S
C256 H245 0.950 . S
C256 C254 1.391 . S
C256 C257 1.400 . S
C257 C251 1.491 . S
C257 C256 1.400 . S
C257 C258 1.398 . S
C258 H246 0.950 . S
C258 C257 1.398 . S
C258 C259 1.391 . S
C259 H247 0.950 . S
C259 C255 1.393 . S
C259 C258 1.391 . S
H260 C268 0.950 . S
H261 C273 0.950 . S
H262 C270 0.950 . S
H263 C272 0.950 . S
H264 C274 0.950 . S
H265 C276 0.950 . S
H266 C278 0.950 . S
H267 C279 0.950 . S
C268 H260 0.950 . S
C268 C269 1.386 . S
C268 C270 1.391 . S
C269 C268 1.386 . S
C269 C273 1.393 . S
C270 H262 0.950 . S
C270 C268 1.391 . S
C270 C271 1.400 . S
C271 C270 1.400 . S
C271 C272 1.398 . S
C271 C277 1.491 . S
C272 H263 0.950 . S
C272 C271 1.398 . S
C272 C273 1.391 . S
C273 H261 0.950 . S
C273 C269 1.393 . S
C273 C272 1.391 . S
C274 H264 0.950 . S
C274 C275 1.386 . S
C274 C276 1.391 . S
C275 C274 1.386 . S
C275 C279 1.393 . S
C276 H265 0.950 . S
C276 C274 1.391 . S
C276 C277 1.400 . S
C277 C271 1.491 . S
C277 C276 1.400 . S
C277 C278 1.398 . S
C278 H266 0.950 . S
C278 C277 1.398 . S
C278 C279 1.391 . S
C279 H267 0.950 . S
C279 C275 1.393 . S
C279 C278 1.391 . S
H280 C288 0.950 . S
H281 C293 0.950 . S
H282 C290 0.950 . S
H283 C292 0.950 . S
H284 C294 0.950 . S
H285 C296 0.950 . S
H286 C298 0.950 . S
H287 C299 0.950 . S
C288 H280 0.950 . S
C288 C289 1.386 . S
C288 C290 1.391 . S
C289 C288 1.386 . S
C289 C293 1.393 . S
C290 H282 0.950 . S
C290 C288 1.391 . S
C290 C291 1.400 . S
C291 C290 1.400 . S
C291 C292 1.398 . S
C291 C297 1.491 . S
C292 H283 0.950 . S
C292 C291 1.398 . S
C292 C293 1.391 . S
C293 H281 0.950 . S
C293 C289 1.393 . S
C293 C292 1.391 . S
C294 H284 0.950 . S
C294 C295 1.386 . S
C294 C296 1.391 . S
C295 C294 1.386 . S
C295 C299 1.393 . S
C296 H285 0.950 . S
C296 C294 1.391 . S
C296 C297 1.400 . S
C297 C291 1.491 . S
C297 C296 1.400 . S
C297 C298 1.398 . S
C298 H286 0.950 . S
C298 C297 1.398 . S
C298 C299 1.391 . S
C299 H287 0.950 . S
C299 C295 1.393 . S
C299 C298 1.391 . S
H300 C308 0.950 . S
H301 C313 0.950 . S
H302 C310 0.950 . S
H303 C312 0.950 . S
H304 C314 0.950 . S
H305 C316 0.950 . S
H306 C318 0.950 . S
H307 C319 0.950 . S
C308 H300 0.950 . S
C308 C309 1.386 . S
C308 C310 1.391 . S
C309 C308 1.386 . S
C309 C313 1.393 . S
C310 H302 0.950 . S
C310 C308 1.391 . S
C310 C311 1.400 . S
C311 C310 1.400 . S
C311 C312 1.398 . S
C311 C317 1.491 . S
C312 H303 0.950 . S
C312 C311 1.398 . S
C312 C313 1.391 . S
C313 H301 0.950 . S
C313 C309 1.393 . S
C313 C312 1.391 . S
C314 H304 0.950 . S
C314 C315 1.386 . S
C314 C316 1.391 . S
C315 C314 1.386 . S
C315 C319 1.393 . S
C316 H305 0.950 . S
C316 C314 1.391 . S
C316 C317 1.400 . S
C317 C311 1.491 . S
C317 C316 1.400 . S
C317 C318 1.398 . S
C318 H306 0.950 . S
C318 C317 1.398 . S
C318 C319 1.391 . S
C319 H307 0.950 . S
C319 C315 1.393 . S
C319 C318 1.391 . S
H320 C328 0.950 . S
H321 C333 0.950 . S
H322 C330 0.950 . S
H323 C332 0.950 . S
H324 C334 0.950 . S
H325 C336 0.950 . S
H326 C338 0.950 . S
H327 C339 0.950 . S
C328 H320 0.950 . S
C328 C329 1.386 . S
C328 C330 1.391 . S
C329 C328 1.386 . S
C329 C333 1.393 . S
C330 H322 0.950 . S
C330 C328 1.391 . S
C330 C331 1.400 . S
C331 C330 1.400 . S
C331 C332 1.398 . S
C331 C337 1.491 . S
C332 H323 0.950 . S
C332 C331 1.398 . S
C332 C333 1.391 . S
C333 H321 0.950 . S
C333 C329 1.393 . S
C333 C332 1.391 . S
C334 H324 0.950 . S
C334 C335 1.386 . S
C334 C336 1.391 . S
C335 C334 1.386 . S
C335 C339 1.393 . S
C336 H325 0.950 . S
C336 C334 1.391 . S
C336 C337 1.400 . S
C337 C331 1.491 . S
C337 C336 1.400 . S
C337 C338 1.398 . S
C338 H326 0.950 . S
C338 C337 1.398 . S
C338 C339 1.391 . S
C339 H327 0.950 . S
C339 C335 1.393 . S
C339 C338 1.391 . S
H340 C348 0.950 . S
H341 C353 0.950 . S
H342 C350 0.950 . S
H343 C352 0.950 . S
H344 C354 0.950 . S
H345 C356 0.950 . S
H346 C358 0.950 . S
H347 C359 0.950 . S
C348 H340 0.950 . S
C348 C349 1.386 . S
C348 C350 1.391 . S
C349 C348 1.386 . S
C349 C353 1.393 . S
C350 H342 0.950 . S
C350 C348 1.391 . S
C350 C351 1.400 . S
C351 C350 1.400 . S
C351 C352 1.398 . S
C351 C357 1.491 . S
C352 H343 0.950 . S
C352 C351 1.398 . S
C352 C353 1.391 . S
C353 H341 0.950 . S
C353 C349 1.393 . S
C353 C352 1.391 . S
C354 H344 0.950 . S
C354 C355 1.386 . S
C354 C356 1.391 . S
C355 C354 1.386 . S
C355 C359 1.393 . S
C356 H345 0.950 . S
C356 C354 1.391 . S
C356 C357 1.400 . S
C357 C351 1.491 . S
C357 C356 1.400 . S
C357 C358 1.398 . S
C358 H346 0.950 . S
C358 C357 1.398 . S
C358 C359 1.391 . S
C359 H347 0.950 . S
C359 C355 1.393 . S
C359 C358 1.391 . S
H360 C368 0.950 . S
H361 C373 0.950 . S
H362 C370 0.950 . S
H363 C372 0.950 . S
H364 C374 0.950 . S
H365 C376 0.950 . S
H366 C378 0.950 . S
H367 C379 0.950 . S
C368 H360 0.950 . S
C368 C369 1.386 . S
C368 C370 1.391 . S
C369 C368 1.386 . S
C369 C373 1.393 . S
C370 H362 0.950 . S
C370 C368 1.391 . S
C370 C371 1.400 . S
C371 C370 1.400 . S
C371 C372 1.398 . S
C371 C377 1.491 . S
C372 H363 0.950 . S
C372 C371 1.398 . S
C372 C373 1.391 . S
C373 H361 0.950 . S
C373 C369 1.393 . S
C373 C372 1.391 . S
C374 H364 0.950 . S
C374 C375 1.386 . S
C374 C376 1.391 . S
C375 C374 1.386 . S
C375 C379 1.393 . S
C376 H365 0.950 . S
C376 C374 1.391 . S
C376 C377 1.400 . S
C377 C371 1.491 . S
C377 C376 1.400 . S
C377 C378 1.398 . S
C378 H366 0.950 . S
C378 C377 1.398 . S
C378 C379 1.391 . S
C379 H367 0.950 . S
C379 C375 1.393 . S
C379 C378 1.391 . S
H380 C388 0.950 . S
H381 C393 0.950 . S
H382 C390 0.950 . S
H383 C392 0.950 . S
H384 C394 0.950 . S
H385 C396 0.950 . S
H386 C398 0.950 . S
H387 C399 0.950 . S
C388 H380 0.950 . S
C388 C389 1.386 . S
C388 C390 1.391 . S
C389 C388 1.386 . S
C389 C393 1.393 . S
C390 H382 0.950 . S
C390 C388 1.391 . S
C390 C391 1.400 . S
C391 C390 1.400 . S
C391 C392 1.398 . S
C391 C397 1.491 1_655 S
C392 H383 0.950 . S
C392 C391 1.398 . S
C392 C393 1.391 . S
C393 H381 0.950 . S
C393 C389 1.393 . S
C393 C392 1.391 . S
C394 H384 0.950 . S
C394 C395 1.386 . S
C394 C396 1.391 . S
C395 C394 1.386 . S
C395 C399 1.393 . S
C396 H385 0.950 . S
C396 C394 1.391 . S
C396 C397 1.400 . S
C397 C391 1.491 1_455 S
C397 C396 1.400 . S
C397 C398 1.398 . S
C398 H386 0.950 . S
C398 C397 1.398 . S
C398 C399 1.391 . S
C399 H387 0.950 . S
C399 C395 1.393 . S
C399 C398 1.391 . S
H400 C408 0.950 . S
H401 C413 0.950 . S
H402 C410 0.950 . S
H403 C412 0.950 . S
H404 C414 0.950 . S
H405 C416 0.950 . S
H406 C418 0.950 . S
H407 C419 0.950 . S
C408 H400 0.950 . S
C408 C409 1.386 . S
C408 C410 1.391 . S
C409 C408 1.386 . S
C409 C413 1.393 . S
C410 H402 0.950 . S
C410 C408 1.391 . S
C410 C411 1.400 . S
C411 C410 1.400 . S
C411 C412 1.398 . S
C411 C417 1.491 1_545 S
C412 H403 0.950 . S
C412 C411 1.398 . S
C412 C413 1.391 . S
C413 H401 0.950 . S
C413 C409 1.393 . S
C413 C412 1.391 . S
C414 H404 0.950 . S
C414 C415 1.386 . S
C414 C416 1.391 . S
C415 C414 1.386 . S
C415 C419 1.393 . S
C416 H405 0.950 . S
C416 C414 1.391 . S
C416 C417 1.400 . S
C417 C411 1.491 1_565 S
C417 C416 1.400 . S
C417 C418 1.398 . S
C418 H406 0.950 . S
C418 C417 1.398 . S
C418 C419 1.391 . S
C419 H407 0.950 . S
C419 C415 1.393 . S
C419 C418 1.391 . S
H420 C428 0.950 . S
H421 C433 0.950 . S
H422 C430 0.950 . S
H423 C432 0.950 . S
H424 C434 0.950 . S
H425 C436 0.950 . S
H426 C438 0.950 . S
H427 C439 0.950 . S
C428 H420 0.950 . S
C428 C429 1.386 . S
C428 C430 1.391 . S
C429 C428 1.386 . S
C429 C433 1.393 . S
C430 H422 0.950 . S
C430 C428 1.391 . S
C430 C431 1.400 . S
C431 C430 1.400 . S
C431 C432 1.398 . S
C431 C437 1.491 . S
C432 H423 0.950 . S
C432 C431 1.398 . S
C432 C433 1.391 . S
C433 H421 0.950 . S
C433 C429 1.393 . S
C433 C432 1.391 . S
C434 H424 0.950 . S
C434 C435 1.386 . S
C434 C436 1.391 . S
C435 C434 1.386 . S
C435 C439 1.393 . S
C436 H425 0.950 . S
C436 C434 1.391 . S
C436 C437 1.400 . S
C437 C431 1.491 . S
C437 C436 1.400 . S
C437 C438 1.398 . S
C438 H426 0.950 . S
C438 C437 1.398 . S
C438 C439 1.391 . S
C439 H427 0.950 . S
C439 C435 1.393 . S
C439 C438 1.391 . S
H440 C448 0.950 . S
H441 C453 0.950 . S
H442 C450 0.950 . S
H443 C452 0.950 . S
H444 C454 0.950 . S
H445 C456 0.950 . S
H446 C458 0.950 . S
H447 C459 0.950 . S
C448 H440 0.950 . S
C448 C449 1.386 . S
C448 C450 1.391 . S
C449 C448 1.386 . S
C449 C453 1.393 . S
C450 H442 0.950 . S
C450 C448 1.391 . S
C450 C451 1.400 . S
C451 C450 1.400 . S
C451 C452 1.398 . S
C451 C457 1.491 1_455 S
C452 H443 0.950 . S
C452 C451 1.398 . S
C452 C453 1.391 . S
C453 H441 0.950 . S
C453 C449 1.393 . S
C453 C452 1.391 . S
C454 H444 0.950 . S
C454 C455 1.386 . S
C454 C456 1.391 . S
C455 C454 1.386 . S
C455 C459 1.393 . S
C456 H445 0.950 . S
C456 C454 1.391 . S
C456 C457 1.400 . S
C457 C451 1.491 1_655 S
C457 C456 1.400 . S
C457 C458 1.398 . S
C458 H446 0.950 . S
C458 C457 1.398 . S
C458 C459 1.391 . S
C459 H447 0.950 . S
C459 C455 1.393 . S
C459 C458 1.391 . S
H460 C468 0.950 . S
H461 C473 0.950 . S
H462 C470 0.950 . S
H463 C472 0.950 . S
H464 C474 0.950 . S
H465 C476 0.952 . S
H466 C478 0.950 . S
H467 C479 0.950 . S
C468 H460 0.950 . S
C468 C469 1.386 . S
C468 C470 1.391 . S
C469 C468 1.386 . S
C469 C473 1.393 . S
C470 H462 0.950 . S
C470 C468 1.391 . S
C470 C471 1.400 . S
C471 C470 1.400 . S
C471 C472 1.398 . S
C471 C477 1.491 1_545 S
C472 H463 0.950 . S
C472 C471 1.398 . S
C472 C473 1.391 . S
C473 H461 0.950 . S
C473 C469 1.393 . S
C473 C472 1.391 . S
C474 H464 0.950 . S
C474 C475 1.386 . S
C474 C476 1.391 . S
C475 C474 1.386 . S
C475 C479 1.393 . S
C476 H465 0.952 . S
C476 C474 1.391 . S
C476 C477 1.400 . S
C477 C471 1.491 1_565 S
C477 C476 1.400 . S
C477 C478 1.398 . S
C478 H466 0.950 . S
C478 C477 1.398 . S
C478 C479 1.391 . S
C479 H467 0.950 . S
C479 C475 1.393 . S
C479 C478 1.391 . S
C129 C89 1.882 . S
C135 C9 1.855 . S
C149 C101 2.031 . S
C155 C21 2.059 . S
C169 C49 2.258 . S
C175 C69 2.293 . S
C189 C1 2.352 . S
C195 C81 2.310 . S
C209 C109 2.151 . S
C215 C29 2.181 . S
C229 C41 1.928 . S
C235 C61 1.903 . S
C249 C8 1.767 . S
C255 C56 1.678 . S
C269 C39 1.773 . S
C275 C16 1.650 . S
C289 C48 1.765 . S
C295 C26 1.668 . S
C309 C79 1.776 . S
C315 C86 1.663 . S
C329 C99 1.773 . S
C335 C106 1.661 . S
C349 C66 1.682 . S
C355 C119 1.787 . S
C369 C19 0.993 . S
C375 C46 1.144 . S
C389 C28 0.984 . S
C395 C6 1.134 . S
C409 C59 1.001 . S
C415 C36 1.130 . S
C429 C68 0.984 . S
C435 C96 1.137 . S
C449 C88 1.011 . S
C455 C116 1.130 . S
C469 C76 1.159 . S
C475 C108 0.999 . S
