# Generated by pormake.
# Topology wib, (6)-cn, num edge types: 1
# Building blocks:
#     Node 0, Type 0, BuildingBlock: IZENUY_clean_sbu_0, # of connection points: 6
#     Node 1, Type 0, BuildingBlock: IZENUY_clean_sbu_0, # of connection points: 6
#     Node 2, Type 0, BuildingBlock: IZENUY_clean_sbu_0, # of connection points: 6
#     Node 3, Type 0, BuildingBlock: IZENUY_clean_sbu_0, # of connection points: 6
#     Node 4, Type 0, BuildingBlock: IZENUY_clean_sbu_0, # of connection points: 6
#     Node 5, Type 0, BuildingBlock: IZENUY_clean_sbu_0, # of connection points: 6
#     Node 6, Type 0, BuildingBlock: IZENUY_clean_sbu_0, # of connection points: 6
#     Node 7, Type 0, BuildingBlock: IZENUY_clean_sbu_0, # of connection points: 6
#     Node 8, Type 0, BuildingBlock: IZENUY_clean_sbu_0, # of connection points: 6
#     Node 9, Type 0, BuildingBlock: IZENUY_clean_sbu_0, # of connection points: 6
#     Node 10, Type 0, BuildingBlock: IZENUY_clean_sbu_0, # of connection points: 6
#     Node 11, Type 0, BuildingBlock: IZENUY_clean_sbu_0, # of connection points: 6
#     Node 12, Type 0, BuildingBlock: IZENUY_clean_sbu_0, # of connection points: 6
#     Node 13, Type 0, BuildingBlock: IZENUY_clean_sbu_0, # of connection points: 6
#     Node 14, Type 0, BuildingBlock: IZENUY_clean_sbu_0, # of connection points: 6
#     Node 15, Type 0, BuildingBlock: IZENUY_clean_sbu_0, # of connection points: 6
#     Edge 16, Type (0, 0), BuildingBlock: KIFKEQ_clean_linker_1, # of connection points: 2
#     Edge 17, Type (0, 0), BuildingBlock: KIFKEQ_clean_linker_1, # of connection points: 2
#     Edge 18, Type (0, 0), BuildingBlock: KIFKEQ_clean_linker_1, # of connection points: 2
#     Edge 19, Type (0, 0), BuildingBlock: KIFKEQ_clean_linker_1, # of connection points: 2
#     Edge 20, Type (0, 0), BuildingBlock: KIFKEQ_clean_linker_1, # of connection points: 2
#     Edge 21, Type (0, 0), BuildingBlock: KIFKEQ_clean_linker_1, # of connection points: 2
#     Edge 22, Type (0, 0), BuildingBlock: KIFKEQ_clean_linker_1, # of connection points: 2
#     Edge 23, Type (0, 0), BuildingBlock: KIFKEQ_clean_linker_1, # of connection points: 2
#     Edge 24, Type (0, 0), BuildingBlock: KIFKEQ_clean_linker_1, # of connection points: 2
#     Edge 25, Type (0, 0), BuildingBlock: KIFKEQ_clean_linker_1, # of connection points: 2
#     Edge 26, Type (0, 0), BuildingBlock: KIFKEQ_clean_linker_1, # of connection points: 2
#     Edge 27, Type (0, 0), BuildingBlock: KIFKEQ_clean_linker_1, # of connection points: 2
#     Edge 28, Type (0, 0), BuildingBlock: KIFKEQ_clean_linker_1, # of connection points: 2
#     Edge 29, Type (0, 0), BuildingBlock: KIFKEQ_clean_linker_1, # of connection points: 2
#     Edge 30, Type (0, 0), BuildingBlock: KIFKEQ_clean_linker_1, # of connection points: 2
#     Edge 31, Type (0, 0), BuildingBlock: KIFKEQ_clean_linker_1, # of connection points: 2
#     Edge 32, Type (0, 0), BuildingBlock: KIFKEQ_clean_linker_1, # of connection points: 2
#     Edge 33, Type (0, 0), BuildingBlock: KIFKEQ_clean_linker_1, # of connection points: 2
#     Edge 34, Type (0, 0), BuildingBlock: KIFKEQ_clean_linker_1, # of connection points: 2
#     Edge 35, Type (0, 0), BuildingBlock: KIFKEQ_clean_linker_1, # of connection points: 2
#     Edge 36, Type (0, 0), BuildingBlock: KIFKEQ_clean_linker_1, # of connection points: 2
#     Edge 37, Type (0, 0), BuildingBlock: KIFKEQ_clean_linker_1, # of connection points: 2
#     Edge 38, Type (0, 0), BuildingBlock: KIFKEQ_clean_linker_1, # of connection points: 2
#     Edge 39, Type (0, 0), BuildingBlock: KIFKEQ_clean_linker_1, # of connection points: 2
#     Edge 40, Type (0, 0), BuildingBlock: KIFKEQ_clean_linker_1, # of connection points: 2
#     Edge 41, Type (0, 0), BuildingBlock: KIFKEQ_clean_linker_1, # of connection points: 2
#     Edge 42, Type (0, 0), BuildingBlock: KIFKEQ_clean_linker_1, # of connection points: 2
#     Edge 43, Type (0, 0), BuildingBlock: KIFKEQ_clean_linker_1, # of connection points: 2
#     Edge 44, Type (0, 0), BuildingBlock: KIFKEQ_clean_linker_1, # of connection points: 2
#     Edge 45, Type (0, 0), BuildingBlock: KIFKEQ_clean_linker_1, # of connection points: 2
#     Edge 46, Type (0, 0), BuildingBlock: KIFKEQ_clean_linker_1, # of connection points: 2
#     Edge 47, Type (0, 0), BuildingBlock: KIFKEQ_clean_linker_1, # of connection points: 2
#     Edge 48, Type (0, 0), BuildingBlock: KIFKEQ_clean_linker_1, # of connection points: 2
#     Edge 49, Type (0, 0), BuildingBlock: KIFKEQ_clean_linker_1, # of connection points: 2
#     Edge 50, Type (0, 0), BuildingBlock: KIFKEQ_clean_linker_1, # of connection points: 2
#     Edge 51, Type (0, 0), BuildingBlock: KIFKEQ_clean_linker_1, # of connection points: 2
#     Edge 52, Type (0, 0), BuildingBlock: KIFKEQ_clean_linker_1, # of connection points: 2
#     Edge 53, Type (0, 0), BuildingBlock: KIFKEQ_clean_linker_1, # of connection points: 2
#     Edge 54, Type (0, 0), BuildingBlock: KIFKEQ_clean_linker_1, # of connection points: 2
#     Edge 55, Type (0, 0), BuildingBlock: KIFKEQ_clean_linker_1, # of connection points: 2
#     Edge 56, Type (0, 0), BuildingBlock: KIFKEQ_clean_linker_1, # of connection points: 2
#     Edge 57, Type (0, 0), BuildingBlock: KIFKEQ_clean_linker_1, # of connection points: 2
#     Edge 58, Type (0, 0), BuildingBlock: KIFKEQ_clean_linker_1, # of connection points: 2
#     Edge 59, Type (0, 0), BuildingBlock: KIFKEQ_clean_linker_1, # of connection points: 2
#     Edge 60, Type (0, 0), BuildingBlock: KIFKEQ_clean_linker_1, # of connection points: 2
#     Edge 61, Type (0, 0), BuildingBlock: KIFKEQ_clean_linker_1, # of connection points: 2
#     Edge 62, Type (0, 0), BuildingBlock: KIFKEQ_clean_linker_1, # of connection points: 2
#     Edge 63, Type (0, 0), BuildingBlock: KIFKEQ_clean_linker_1, # of connection points: 2
# Relax obj value: 0.444
# Max RMSD: 0.268
# Mean RMSD: 0.268
data_MOF--net-wib--node1-IZENUY_clean_sbu_0--edge1-KIFKEQ_clean_linker_1
_symmetry_space_group_name_H-M    P1
_symmetry_Int_Tables_number       1
_symmetry_cell_setting            triclinic
loop_
_symmetry_equiv_pos_as_xyz
'x, y, z'
_cell_length_a     30.782512
_cell_length_b     30.677139
_cell_length_c     58.103567
_cell_angle_alpha  89.908759
_cell_angle_beta   90.040828
_cell_angle_gamma 89.989193
loop_
_atom_site_label
_atom_site_type_symbol
_atom_site_fract_x
_atom_site_fract_y
_atom_site_fract_z
_atom_type_partial_charge
Fe0 Fe 0.08412 0.57574 0.27357 0.0
Fe1 Fe 0.13379 0.49062 0.2832 0.0
O2 O 0.12578 0.54713 0.2887 0.0
Fe3 Fe 0.15949 0.57558 0.30828 0.0
O4 O 0.1592 0.62551 0.29155 0.0
O5 O 0.12255 0.61173 0.25973 0.0
O6 O 0.08614 0.54177 0.24758 0.0
C7 C 0.11963 0.52419 0.23925 0.0
C8 C 0.08188 0.61599 0.31746 0.0
O9 O 0.14434 0.50272 0.25251 0.0
C10 C 0.14754 0.49318 0.33063 0.0
O11 O 0.04333 0.54224 0.28679 0.0
O12 O 0.07438 0.47978 0.27823 0.0
O13 O 0.1134 0.59439 0.32556 0.0
O14 O 0.07367 0.61547 0.29621 0.0
C15 C 0.22061 0.52231 0.28765 0.0
O16 O 0.12689 0.47537 0.31399 0.0
O17 O 0.16542 0.53002 0.32812 0.0
C18 C 0.04082 0.50177 0.28402 0.0
O19 O 0.19333 0.4914 0.28687 0.0
O20 O 0.2088 0.5604 0.29297 0.0
C21 C 0.14955 0.634 0.27089 0.0
Fe22 Fe 0.27167 0.37473 0.53286 0.0
Fe23 Fe 0.19796 0.40076 0.56557 0.0
O24 O 0.21634 0.37193 0.5411 0.0
Fe25 Fe 0.17872 0.34091 0.52503 0.0
O26 O 0.18862 0.3718 0.49935 0.0
O27 O 0.2601 0.37156 0.50093 0.0
O28 O 0.26868 0.43408 0.52943 0.0
C29 C 0.25599 0.4602 0.54485 0.0
C30 C 0.25374 0.28759 0.52502 0.0
O31 O 0.23761 0.44555 0.56279 0.0
C32 C 0.14638 0.32306 0.56708 0.0
O33 O 0.29205 0.3804 0.56352 0.0
O34 O 0.23315 0.36958 0.58412 0.0
O35 O 0.2177 0.29928 0.51663 0.0
O36 O 0.27785 0.31488 0.53543 0.0
C37 C 0.13519 0.41837 0.53443 0.0
O38 O 0.15327 0.36245 0.57269 0.0
O39 O 0.16545 0.30746 0.54979 0.0
C40 C 0.27384 0.37377 0.58312 0.0
O41 O 0.163 0.43342 0.54805 0.0
O42 O 0.13339 0.37807 0.53008 0.0
C43 C 0.22466 0.37716 0.48968 0.0
Fe44 Fe 0.3675 0.50855 0.78512 0.0
Fe45 Fe 0.34253 0.42278 0.81007 0.0
O46 O 0.37461 0.45178 0.78989 0.0
Fe47 Fe 0.41325 0.42262 0.77295 0.0
O48 O 0.41246 0.45939 0.74815 0.0
O49 O 0.35536 0.49858 0.75429 0.0
O50 O 0.30817 0.50856 0.78908 0.0
C51 C 0.2805 0.47813 0.79084 0.0
C52 C 0.46027 0.49366 0.78491 0.0
O53 O 0.29175 0.44014 0.79679 0.0
C54 C 0.41931 0.37908 0.81564 0.0
O55 O 0.37555 0.52272 0.81594 0.0
O56 O 0.33977 0.46695 0.83081 0.0
O57 O 0.45698 0.45271 0.78602 0.0
O58 O 0.4272 0.51755 0.78021 0.0
C59 C 0.34186 0.3714 0.77056 0.0
O60 O 0.39039 0.40185 0.82535 0.0
O61 O 0.42308 0.37959 0.79404 0.0
C62 C 0.35637 0.50442 0.83291 0.0
O63 O 0.33949 0.37432 0.79221 0.0
O64 O 0.37024 0.39167 0.75918 0.0
C65 C 0.37931 0.47809 0.74035 0.0
Fe66 Fe 0.23393 0.6317 0.03307 0.0
Fe67 Fe 0.30459 0.60863 0.06806 0.0
O68 O 0.28827 0.63599 0.04276 0.0
Fe69 Fe 0.32643 0.66776 0.02739 0.0
O70 O 0.32001 0.63522 1.00197 0.0
O71 O 0.24851 0.63523 1.00152 0.0
O72 O 0.2389 0.57275 0.02981 0.0
C73 C 0.24977 0.54701 0.04581 0.0
C74 C 0.25041 0.71904 0.02573 0.0
O75 O 0.26687 0.5619 0.06413 0.0
C76 C 0.35382 0.68829 0.07004 0.0
O77 O 0.21026 0.62509 0.06303 0.0
O78 O 0.26629 0.63899 0.08506 0.0
O79 O 0.28665 0.70797 1.01733 0.0
O80 O 0.22631 0.69115 0.03566 0.0
C81 C 0.37421 0.59357 0.04138 0.0
O82 O 0.34684 0.64915 0.07629 0.0
O83 O 0.33597 0.7026 0.05205 0.0
C84 C 0.22609 0.63279 0.08306 0.0
O85 O 0.34326 0.57708 0.0524 0.0
O86 O 0.37294 0.63271 0.03446 0.0
C87 C 0.28499 0.62914 0.99133 0.0
Fe88 Fe 0.84126 0.43029 0.74062 0.0
Fe89 Fe 0.91224 0.43052 0.77763 0.0
O90 O 0.87392 0.45965 0.76035 0.0
Fe91 Fe 0.86786 0.51665 0.76451 0.0
O92 O 0.80832 0.5177 0.76091 0.0
O93 O 0.79085 0.44961 0.75315 0.0
O94 O 0.83657 0.38345 0.75975 0.0
C95 C 0.83836 0.38328 0.78154 0.0
C96 C 0.8565 0.51071 0.71664 0.0
O97 O 0.86876 0.40201 0.79215 0.0
C98 C 0.96052 0.49952 0.76436 0.0
O99 O 0.8887 0.40736 0.72584 0.0
O100 O 0.92039 0.38572 0.75751 0.0
O101 O 0.8754 0.52968 0.73349 0.0
O102 O 0.83999 0.47322 0.71904 0.0
C103 C 0.8803 0.48775 0.80957 0.0
O104 O 0.95622 0.45864 0.7637 0.0
O105 O 0.92805 0.52439 0.76894 0.0
C106 C 0.91719 0.38464 0.73591 0.0
O107 O 0.91318 0.46885 0.80169 0.0
O108 O 0.85611 0.50782 0.79553 0.0
C109 C 0.78019 0.48775 0.7589 0.0
Fe110 Fe 0.82869 0.66864 0.52036 0.0
Fe111 Fe 0.73547 0.63405 0.51502 0.0
O112 O 0.79 0.63692 0.5054 0.0
Fe113 Fe 0.80636 0.60791 0.48068 0.0
O114 O 0.84422 0.57648 0.4972 0.0
O115 O 0.87464 0.63312 0.51364 0.0
O116 O 0.82183 0.63705 0.54616 0.0
C117 C 0.78671 0.63154 0.55681 0.0
C118 C 0.85674 0.68677 0.47759 0.0
O119 O 0.75023 0.63773 0.54657 0.0
C120 C 0.72848 0.63359 0.46494 0.0
O121 O 0.78978 0.70941 0.53007 0.0
O122 O 0.72878 0.69379 0.51222 0.0
O123 O 0.84926 0.64738 0.47203 0.0
O124 O 0.83868 0.70238 0.49522 0.0
C125 C 0.75026 0.54835 0.50336 0.0
O126 O 0.71202 0.62743 0.48499 0.0
O127 O 0.76893 0.63792 0.46295 0.0
C128 C 0.75339 0.72121 0.52217 0.0
O129 O 0.7389 0.57505 0.51876 0.0
O130 O 0.76798 0.56213 0.485 0.0
C131 C 0.87538 0.59349 0.5078 0.0
Fe132 Fe 0.63413 0.49168 0.26496 0.0
Fe133 Fe 0.6582 0.57347 0.23647 0.0
O134 O 0.62581 0.5474 0.25768 0.0
Fe135 Fe 0.58537 0.57799 0.27252 0.0
O136 O 0.5886 0.54759 0.29971 0.0
O137 O 0.64557 0.50657 0.29519 0.0
O138 O 0.69349 0.49273 0.26087 0.0
C139 C 0.72053 0.52368 0.25873 0.0
C140 C 0.54117 0.50291 0.26497 0.0
O141 O 0.70844 0.56092 0.25184 0.0
C142 C 0.57953 0.61165 0.22718 0.0
O143 O 0.62633 0.47291 0.2348 0.0
O144 O 0.66476 0.52533 0.21853 0.0
O145 O 0.5433 0.54326 0.26152 0.0
O146 O 0.57499 0.4812 0.27064 0.0
C147 C 0.65007 0.63707 0.27132 0.0
O148 O 0.61063 0.58916 0.21921 0.0
O149 O 0.57353 0.61449 0.24859 0.0
C150 C 0.64781 0.48787 0.21773 0.0
O151 O 0.65788 0.62589 0.25084 0.0
O152 O 0.62529 0.61534 0.28416 0.0
C153 C 0.62165 0.52937 0.30816 0.0
Fe154 Fe 0.68178 0.33706 1.02306 0.0
Fe155 Fe 0.77391 0.37463 1.01663 0.0
O156 O 0.71872 0.37139 1.00831 0.0
Fe157 Fe 0.69961 0.40338 0.98504 0.0
O158 O 0.66464 0.43292 1.00406 0.0
O159 O 0.6357 0.37432 1.01954 0.0
O160 O 0.69103 0.36396 0.04997 0.0
C161 C 0.7268 0.37077 0.05969 0.0
C162 C 0.64877 0.32552 0.98067 0.0
O163 O 0.76246 0.36796 0.04837 0.0
C164 C 0.77544 0.37904 0.96632 0.0
O165 O 0.72166 0.29473 0.02972 0.0
O166 O 0.7818 0.31568 1.01231 0.0
O167 O 0.65507 0.36575 0.97674 0.0
O168 O 0.66901 0.30743 0.99692 0.0
C169 C 0.75812 0.4608 1.00706 0.0
O170 O 0.79389 0.38382 0.98605 0.0
O171 O 0.73469 0.37522 0.96523 0.0
C172 C 0.75846 0.28609 1.02127 0.0
O173 O 0.76975 0.4332 1.02194 0.0
O174 O 0.73905 0.44824 0.98892 0.0
C175 C 0.63652 0.41522 1.01665 0.0
Fe176 Fe 0.63147 0.98702 0.78413 0.0
Fe177 Fe 0.65813 0.05844 0.81797 0.0
O178 O 0.62827 0.0416 0.7937 0.0
Fe179 Fe 0.59477 0.07967 0.77916 0.0
O180 O 0.62527 0.07376 0.75288 0.0
O181 O 0.62469 1.00181 0.7528 0.0
O182 O 0.68977 0.99151 0.77915 0.0
C183 C 0.71728 1.00291 0.79416 0.0
C184 C 0.5439 0.00406 0.77957 0.0
O185 O 0.70475 0.02134 0.81261 0.0
C186 C 0.57748 0.1051 0.82263 0.0
O187 O 0.64119 0.96334 0.81379 0.0
O188 O 0.63081 0.01975 0.83623 0.0
O189 O 0.55449 0.0394 0.76994 0.0
O190 O 0.5726 0.97981 0.78867 0.0
C191 C 0.66837 0.1296 0.79187 0.0
O192 O 0.61747 0.09975 0.82754 0.0
O193 O 0.56211 0.08802 0.80469 0.0
C194 C 0.63578 0.97933 0.83395 0.0
O195 O 0.68704 0.09764 0.801 0.0
O196 O 0.62891 0.12718 0.78589 0.0
C197 C 0.63059 0.03827 0.7424 0.0
Fe198 Fe 0.68088 0.84448 0.02548 0.0
Fe199 Fe 0.77445 0.87403 0.0353 0.0
O200 O 0.71845 0.87412 0.04231 0.0
Fe201 Fe 0.69938 0.90485 0.06598 0.0
O202 O 0.66706 0.93818 0.04732 0.0
O203 O 0.63673 0.88351 0.02921 0.0
O204 O 0.6944 0.87466 0.99994 0.0
C205 C 0.73154 0.87825 0.99131 0.0
C206 C 0.64468 0.82905 0.06702 0.0
O207 O 0.76547 0.86977 1.00327 0.0
C208 C 0.77291 0.87564 0.08553 0.0
O209 O 0.71883 0.80096 1.01834 0.0
O210 O 0.77772 0.81415 0.0387 0.0
O211 O 0.65277 0.86832 0.07254 0.0
O212 O 0.66393 0.81225 0.05008 0.0
C213 C 0.76129 0.96074 0.04569 0.0
O214 O 0.79271 0.88031 0.06623 0.0
O215 O 0.73199 0.87344 0.08581 0.0
C216 C 0.75341 0.78773 0.02781 0.0
O217 O 0.77417 0.9332 0.03102 0.0
O218 O 0.74101 0.94793 0.06345 0.0
C219 C 0.63989 0.92386 0.03313 0.0
Fe220 Fe 0.87196 0.01119 0.28686 0.0
Fe221 Fe 0.85101 0.92513 0.31238 0.0
O222 O 0.88183 0.95493 0.29203 0.0
Fe223 Fe 0.92169 0.92714 0.27538 0.0
O224 O 0.91798 0.96245 0.24999 0.0
O225 O 0.85946 0.99967 0.25628 0.0
O226 O 0.81269 0.00859 0.29152 0.0
C227 C 0.78668 0.97658 0.29262 0.0
C228 C 0.96529 1.00092 0.28609 0.0
O229 O 0.80008 0.93907 0.29819 0.0
C230 C 0.9299 0.88622 0.31885 0.0
O231 O 0.88023 0.02644 0.31741 0.0
O232 O 0.84533 0.97029 0.3325 0.0
O233 O 0.96386 0.96003 0.28778 0.0
O234 O 0.93105 0.02298 0.28126 0.0
C235 C 0.85463 0.87055 0.27397 0.0
O236 O 0.89954 0.90766 0.32819 0.0
O237 O 0.93415 0.88615 0.29724 0.0
C238 C 0.86115 0.00819 0.3344 0.0
O239 O 0.85098 0.87527 0.29546 0.0
O240 O 0.88057 0.89309 0.26224 0.0
C241 C 0.88363 0.97934 0.24236 0.0
Fe242 Fe 0.7298 0.13401 0.53264 0.0
Fe243 Fe 0.80482 0.10557 0.56385 0.0
O244 O 0.78527 0.13688 0.54046 0.0
Fe245 Fe 0.82207 0.17033 0.52507 0.0
O246 O 0.81201 0.14218 0.49862 0.0
O247 O 0.74054 0.13941 0.50077 0.0
O248 O 0.73316 0.07519 0.52784 0.0
C249 C 0.74532 0.04787 0.54276 0.0
C250 C 0.74614 0.22217 0.52685 0.0
O251 O 0.76512 0.06077 0.56062 0.0
C252 C 0.8556 0.1836 0.56722 0.0
O253 O 0.7105 0.12599 0.56342 0.0
O254 O 0.7704 0.13451 0.58362 0.0
O255 O 0.78233 0.21252 0.51802 0.0
O256 O 0.72281 0.1933 0.53649 0.0
C257 C 0.86714 0.09236 0.53196 0.0
O258 O 0.84956 0.14345 0.57153 0.0
O259 O 0.83544 0.20106 0.55075 0.0
C260 C 0.72962 0.13091 0.58295 0.0
O261 O 0.83923 0.07519 0.54488 0.0
O262 O 0.86811 0.13317 0.5288 0.0
C263 C 0.77589 0.13542 0.48928 0.0
Fe264 Fe 0.3422 0.92175 0.24153 0.0
Fe265 Fe 0.41348 0.91593 0.27801 0.0
O266 O 0.37625 0.9482 0.26171 0.0
Fe267 Fe 0.37301 0.00523 0.26698 0.0
O268 O 0.31335 0.00874 0.264 0.0
O269 O 0.29288 0.94193 0.25496 0.0
O270 O 0.33646 0.87345 0.2594 0.0
C271 C 0.33858 0.87071 0.2811 0.0
C272 C 0.35986 1.00291 0.21903 0.0
O273 O 0.36917 0.8879 0.29225 0.0
C274 C 0.46465 0.98371 0.26543 0.0
O275 O 0.38858 0.89858 0.22586 0.0
O276 O 0.41943 0.87251 0.25682 0.0
O277 O 0.37998 0.02002 0.23605 0.0
O278 O 0.34171 0.96621 0.221 0.0
C279 C 0.38521 0.97211 0.31139 0.0
O280 O 0.45811 0.94313 0.26438 0.0
O281 O 0.43378 0.01014 0.27071 0.0
C282 C 0.41634 0.87391 0.23522 0.0
O283 O 0.41673 0.95231 0.30268 0.0
O284 O 0.36216 0.99537 0.29817 0.0
C285 C 0.28389 0.98015 0.26145 0.0
Fe286 Fe 0.33098 0.16751 1.02368 0.0
Fe287 Fe 0.23818 0.13185 1.01867 0.0
O288 O 0.29234 0.13592 1.00859 0.0
Fe289 Fe 0.3083 0.10855 0.9833 0.0
O290 O 0.34775 0.07722 0.99886 0.0
O291 O 0.37752 0.13359 1.01582 0.0
O292 O 0.32563 0.13418 0.04899 0.0
C293 C 0.29091 0.12804 0.05995 0.0
C294 C 0.35649 0.18881 0.98082 0.0
O295 O 0.25404 0.13447 0.05012 0.0
C296 C 0.2292 0.13282 0.96868 0.0
O297 O 0.29168 0.20689 0.03452 0.0
O298 O 0.23074 0.19172 1.01656 0.0
O299 O 0.34967 0.1496 0.97469 0.0
O300 O 0.33924 0.20292 0.99902 0.0
C301 C 0.25405 0.04689 1.00583 0.0
O302 O 0.21365 0.12586 0.98886 0.0
O303 O 0.26941 0.13842 0.96637 0.0
C304 C 0.25531 0.21895 0.02672 0.0
O305 O 0.24249 0.0727 1.02164 0.0
O306 O 0.27127 0.06169 0.98755 0.0
C307 C 0.37918 0.09449 1.00911 0.0
Fe308 Fe 0.13229 0.99402 0.76844 0.0
Fe309 Fe 0.15652 0.07952 0.74362 0.0
O310 O 0.12337 0.05049 0.7632 0.0
Fe311 Fe 0.08189 0.07856 0.7786 0.0
O312 O 0.08519 0.04468 0.80463 0.0
O313 O 0.1433 0.00568 0.79915 0.0
O314 O 0.19192 0.99596 0.76439 0.0
C315 C 0.21844 0.02764 0.76452 0.0
C316 C 0.03908 0.00392 0.76833 0.0
O317 O 0.2057 0.06567 0.75956 0.0
C318 C 0.07797 0.11793 0.7344 0.0
O319 O 0.1249 0.97927 0.73759 0.0
O320 O 0.1641 0.03375 0.72401 0.0
O321 O 0.04101 0.04454 0.76589 0.0
O322 O 0.07307 0.98206 0.77363 0.0
C323 C 0.14612 0.13829 0.78055 0.0
O324 O 0.1099 0.09698 0.72622 0.0
O325 O 0.07036 0.11774 0.75575 0.0
C326 C 0.1466 0.99679 0.72123 0.0
O327 O 0.15494 0.12988 0.75982 0.0
O328 O 0.12034 0.11522 0.79208 0.0
C329 C 0.11897 0.02701 0.81264 0.0
Fe330 Fe 0.17568 0.83905 0.52305 0.0
Fe331 Fe 0.26822 0.87577 0.51969 0.0
O332 O 0.21481 0.87129 0.50869 0.0
Fe333 Fe 0.20049 0.89914 0.48314 0.0
O334 O 0.16034 0.9302 0.49809 0.0
O335 O 0.1297 0.87423 0.51533 0.0
O336 O 0.18012 0.871 0.54887 0.0
C337 C 0.21418 0.87701 0.56037 0.0
C338 C 0.1511 0.81973 0.47975 0.0
O339 O 0.25138 0.87118 0.55091 0.0
C340 C 0.28031 0.87537 0.46998 0.0
O341 O 0.21492 0.79859 0.53354 0.0
O342 O 0.27662 0.81657 0.51683 0.0
O343 O 0.15904 0.85881 0.47378 0.0
O344 O 0.16779 0.80486 0.49795 0.0
C345 C 0.25329 0.96042 0.50698 0.0
O346 O 0.29403 0.8834 0.49039 0.0
O347 O 0.24039 0.86934 0.46671 0.0
C348 C 0.25199 0.78816 0.52591 0.0
O349 O 0.26244 0.93452 0.52321 0.0
O350 O 0.2377 0.94586 0.48822 0.0
C351 C 0.12873 0.91339 0.50845 0.0
H352 H 0.29026 0.56692 0.30503 0.0
H353 H 0.25795 0.45633 0.26248 0.0
H354 H 0.36754 0.55093 0.30018 0.0
H355 H 0.33569 0.44114 0.25711 0.0
H356 H 0.48058 0.48781 0.23189 0.0
H357 H 0.40165 0.48622 0.2377 0.0
H358 H 0.42132 0.48604 0.31119 0.0
H359 H 0.50023 0.48624 0.30529 0.0
C360 C 0.29961 0.53929 0.29455 0.0
C361 C 0.26777 0.51294 0.28414 0.0
C362 C 0.34394 0.52992 0.29194 0.0
C363 C 0.35777 0.49454 0.27842 0.0
C364 C 0.32605 0.46851 0.2677 0.0
C365 C 0.28156 0.47723 0.27079 0.0
C366 C 0.468 0.48501 0.24924 0.0
C367 C 0.49661 0.48576 0.26812 0.0
C368 C 0.4228 0.48462 0.25259 0.0
C369 C 0.40522 0.4864 0.2749 0.0
C370 C 0.43387 0.48477 0.29379 0.0
C371 C 0.47905 0.48412 0.29043 0.0
H372 H 0.25491 0.74251 0.56578 0.0
H373 H 0.27721 0.72933 0.49298 0.0
H374 H 0.26281 0.66416 0.57075 0.0
H375 H 0.2824 0.65004 0.49744 0.0
H376 H 0.30738 0.50561 0.51382 0.0
H377 H 0.31467 0.58477 0.50972 0.0
H378 H 0.22268 0.60262 0.5651 0.0
H379 H 0.21735 0.52453 0.5698 0.0
C380 C 0.26218 0.72269 0.55084 0.0
C381 C 0.26592 0.74213 0.52905 0.0
C382 C 0.26596 0.67746 0.55358 0.0
C383 C 0.27215 0.64985 0.53445 0.0
C384 C 0.27792 0.66972 0.5127 0.0
C385 C 0.27508 0.71533 0.51007 0.0
C386 C 0.28919 0.52658 0.52528 0.0
C387 C 0.2622 0.5084 0.54235 0.0
C388 C 0.29308 0.57217 0.52283 0.0
C389 C 0.26968 0.60091 0.53719 0.0
C390 C 0.24248 0.58231 0.55409 0.0
C391 C 0.2391 0.53706 0.55672 0.0
H392 H 0.20978 0.43655 0.80915 0.0
H393 H 0.24488 0.54114 0.76299 0.0
H394 H 0.13277 0.45234 0.80257 0.0
H395 H 0.16753 0.55584 0.75583 0.0
H396 H 0.02272 0.50146 0.73115 0.0
H397 H 0.10159 0.50242 0.73756 0.0
H398 H 0.08021 0.52482 0.8099 0.0
H399 H 1.00143 0.52553 0.80329 0.0
C400 C 0.2011 0.46286 0.79758 0.0
C401 C 0.2336 0.48769 0.78669 0.0
C402 C 0.15698 0.47205 0.79392 0.0
C403 C 0.14413 0.50555 0.77882 0.0
C404 C 0.17649 0.53 0.76764 0.0
C405 C 0.22072 0.52159 0.77178 0.0
C406 C 0.035 0.50887 0.74818 0.0
C407 C 0.00596 0.5148 0.76659 0.0
C408 C 0.0801 0.50893 0.7519 0.0
C409 C 0.09704 0.51343 0.77425 0.0
C410 C 0.06807 0.52133 0.79249 0.0
C411 C 0.02303 0.52241 0.78866 0.0
H412 H 0.19955 0.27364 1.00206 0.0
H413 H 0.28496 0.27061 0.06096 0.0
H414 H 0.19081 0.35289 1.0071 0.0
H415 H 0.27795 0.34827 0.0654 0.0
H416 H 0.24531 0.48561 0.08006 0.0
H417 H 0.23666 0.40713 0.07637 0.0
H418 H 0.22866 0.4205 1.00244 0.0
H419 H 0.23521 0.49958 1.00636 0.0
C420 C 0.2158 0.28959 1.01627 0.0
C421 C 0.24295 0.26547 0.03106 0.0
C422 C 0.21133 0.3352 1.01902 0.0
C423 C 0.23371 0.35767 0.0367 0.0
C424 C 0.25941 0.33283 0.05185 0.0
C425 C 0.26376 0.28781 0.04914 0.0
C426 C 0.24132 0.47192 0.06301 0.0
C427 C 0.24135 0.49913 0.04352 0.0
C428 C 0.2366 0.42661 0.06082 0.0
C429 C 0.23267 0.40669 0.03902 0.0
C430 C 0.2312 0.43418 1.01955 0.0
C431 C 0.23525 0.47971 1.02179 0.0
H432 H 0.52333 0.48975 0.81755 0.0
H433 H 0.49939 0.53044 0.74767 0.0
H434 H 0.60185 0.49676 0.81126 0.0
H435 H 0.57805 0.53585 0.74107 0.0
H436 H 0.7109 0.45119 0.73703 0.0
H437 H 0.63355 0.46422 0.74376 0.0
H438 H 0.66528 0.55746 0.7966 0.0
H439 H 0.74321 0.54563 0.78927 0.0
C440 C 0.53487 0.50189 0.80113 0.0
C441 C 0.50523 0.51062 0.78328 0.0
C442 C 0.57979 0.5056 0.79748 0.0
C443 C 0.59607 0.51674 0.77566 0.0
C444 C 0.56639 0.52737 0.75808 0.0
C445 C 0.5214 0.5248 0.76193 0.0
C446 C 0.70148 0.47486 0.74991 0.0
C447 C 0.73326 0.49747 0.76256 0.0
C448 C 0.65716 0.48249 0.75366 0.0
C449 C 0.64336 0.51206 0.77059 0.0
C450 C 0.67501 0.53468 0.78334 0.0
C451 C 0.71954 0.52797 0.77911 0.0
H452 H 0.73375 0.28366 0.56039 0.0
H453 H 0.73022 0.26491 0.487 0.0
H454 H 0.73028 0.36278 0.55477 0.0
H455 H 0.72456 0.34338 0.48115 0.0
H456 H 0.77836 0.48112 0.47618 0.0
H457 H 0.77017 0.40331 0.4823 0.0
H458 H 0.6954 0.42818 0.54382 0.0
H459 H 0.70519 0.50651 0.53806 0.0
C460 C 0.73034 0.29645 0.54309 0.0
C461 C 0.73157 0.26807 0.52415 0.0
C462 C 0.72859 0.34196 0.53978 0.0
C463 C 0.72789 0.36017 0.51742 0.0
C464 C 0.72631 0.33119 0.49862 0.0
C465 C 0.7287 0.28597 0.50194 0.0
C466 C 0.75982 0.47016 0.49093 0.0
C467 C 0.74233 0.50048 0.50653 0.0
C468 C 0.75479 0.42517 0.49441 0.0
C469 C 0.73171 0.40871 0.51352 0.0
C470 C 0.71377 0.43914 0.52902 0.0
C471 C 0.71911 0.48429 0.52562 0.0
H472 H 0.75718 0.46134 0.28654 0.0
H473 H 0.79081 0.56558 0.23987 0.0
H474 H 0.83457 0.44598 0.29266 0.0
H475 H 0.86799 0.54943 0.24556 0.0
H476 H 1.00043 0.48276 0.24381 0.0
H477 H 0.92168 0.48408 0.23732 0.0
H478 H 0.90043 0.49041 0.3106 0.0
H479 H 0.9792 0.49044 0.31695 0.0
C480 C 0.78104 0.48085 0.2775 0.0
C481 C 0.76767 0.51481 0.26274 0.0
C482 C 0.82537 0.47202 0.28102 0.0
C483 C 0.85746 0.49616 0.26942 0.0
C484 C 0.84409 0.52985 0.25453 0.0
C485 C 0.79984 0.53936 0.25143 0.0
C486 C 0.97888 0.48231 0.25855 0.0
C487 C 0.99601 0.48517 0.28093 0.0
C488 C 0.9338 0.48391 0.25483 0.0
C489 C 0.90477 0.48773 0.27344 0.0
C490 C 0.92184 0.48719 0.29591 0.0
C491 C 0.96695 0.48663 0.29958 0.0
H492 H 0.77048 0.50586 0.04752 0.0
H493 H 0.76733 0.52301 0.97383 0.0
H494 H 0.77718 0.58491 0.0525 0.0
H495 H 0.77617 0.60118 0.97862 0.0
H496 H 0.72378 0.73539 0.99388 0.0
H497 H 0.73119 0.65786 0.9896 0.0
H498 H 0.81614 0.6535 0.0488 0.0
H499 H 0.8071 0.73284 0.05368 0.0
C500 C 0.77213 0.52642 0.03237 0.0
C501 C 0.76771 0.5081 1.01027 0.0
C502 C 0.77621 0.57183 0.03521 0.0
C503 C 0.77648 0.6 1.01601 0.0
C504 C 0.77474 0.58105 0.99392 0.0
C505 C 0.7699 0.53598 0.99111 0.0
C506 C 0.74445 0.71832 1.00601 0.0
C507 C 0.76468 0.74076 1.02424 0.0
C508 C 0.74909 0.67341 1.00337 0.0
C509 C 0.77455 0.64878 1.0187 0.0
C510 C 0.79598 0.67118 0.0367 0.0
C511 C 0.79125 0.71676 0.03938 0.0
H512 H 0.75706 0.9707 0.75537 0.0
H513 H 0.78529 0.01395 0.82446 0.0
H514 H 0.83447 0.95955 0.74848 0.0
H515 H 0.86279 1.00321 0.81746 0.0
H516 H 1.00079 0.95886 0.80384 0.0
H517 H 0.92227 0.95122 0.81036 0.0
H518 H 0.8975 0.00559 0.74302 0.0
H519 H 0.97536 0.013 0.73672 0.0
C520 C 0.77966 0.97752 0.7692 0.0
C521 C 0.76458 0.99343 0.79048 0.0
C522 C 0.82425 0.97127 0.76519 0.0
C523 C 0.85527 0.98048 0.78237 0.0
C524 C 0.84007 0.99517 0.80388 0.0
C525 C 0.79547 1.00169 0.80785 0.0
C526 C 0.97852 0.96732 0.79009 0.0
C527 C 0.99436 0.98569 0.76957 0.0
C528 C 0.93344 0.96377 0.79397 0.0
C529 C 0.90319 0.97816 0.77732 0.0
C530 C 0.91942 0.99371 0.7562 0.0
C531 C 0.96423 0.99774 0.75249 0.0
H532 H 0.80482 1.00242 1.01026 0.0
H533 H 0.73465 0.02798 0.07311 0.0
H534 H 0.81322 0.08093 1.00404 0.0
H535 H 0.74158 0.10565 0.0666 0.0
H536 H 0.7788 0.24434 0.06085 0.0
H537 H 0.78706 0.16607 0.06678 0.0
H538 H 0.77511 0.14548 0.99347 0.0
H539 H 0.76894 0.22443 0.98771 0.0
C540 C 0.79144 0.02467 1.02285 0.0
C541 C 0.76934 0.00851 0.04231 0.0
C542 C 0.79594 0.06987 1.01918 0.0
C543 C 0.77836 0.10026 0.03483 0.0
C544 C 0.75661 0.08381 0.05435 0.0
C545 C 0.75233 0.03887 0.05805 0.0
C546 C 0.77948 0.2231 0.04596 0.0
C547 C 0.77407 0.24055 1.0238 0.0
C548 C 0.78342 0.17801 0.04935 0.0
C549 C 0.78089 0.14876 0.03069 0.0
C550 C 0.77761 0.16659 1.00832 0.0
C551 C 0.77426 0.21196 1.00493 0.0
H552 H 0.50813 0.04394 0.29247 0.0
H553 H 0.52691 0.9505 0.23797 0.0
H554 H 0.5874 0.04725 0.29825 0.0
H555 H 0.60511 0.9535 0.2438 0.0
H556 H 0.7239 0.91429 0.28707 0.0
H557 H 0.64726 0.92425 0.27825 0.0
H558 H 0.6641 0.06383 0.27911 0.0
H559 H 0.7417 0.05396 0.28756 0.0
C560 C 0.52914 0.02545 0.28117 0.0
C561 C 0.51118 0.99691 0.26479 0.0
C562 C 0.57451 0.02701 0.2846 0.0
C563 C 0.60249 0.99985 0.27181 0.0
C564 C 0.58451 0.97414 0.25426 0.0
C565 C 0.53964 0.97278 0.25077 0.0
C566 C 0.71159 0.94719 0.2853 0.0
C567 C 0.73938 0.98326 0.28785 0.0
C568 C 0.66751 0.9529 0.28017 0.0
C569 C 0.64954 0.99487 0.27777 0.0
C570 C 0.67691 0.0311 0.28085 0.0
C571 C 0.72141 0.02537 0.28561 0.0
H572 H 0.7828 0.77343 0.55616 0.0
H573 H 0.6971 0.77503 0.49734 0.0
H574 H 0.77437 0.8509 0.56066 0.0
H575 H 0.68704 0.85418 0.50242 0.0
H576 H 0.73119 1.00212 0.50267 0.0
H577 H 0.72493 0.92296 0.49807 0.0
H578 H 0.72989 0.90766 0.57197 0.0
H579 H 0.73827 0.98597 0.57634 0.0
C580 C 0.7613 0.79027 0.54435 0.0
C581 C 0.74074 0.76763 0.52631 0.0
C582 C 0.7561 0.83513 0.5471 0.0
C583 C 0.7298 0.85948 0.53202 0.0
C584 C 0.70788 0.83677 0.5143 0.0
C585 C 0.71316 0.79128 0.51153 0.0
C586 C 0.73048 0.98176 0.51792 0.0
C587 C 0.73584 1.00044 0.53987 0.0
C588 C 0.72666 0.93626 0.5153 0.0
C589 C 0.72762 0.90832 0.53459 0.0
C590 C 0.73034 0.92759 0.55658 0.0
C591 C 0.73489 0.97276 0.55915 0.0
H592 H 0.0266 0.00932 0.31942 0.0
H593 H 0.00501 0.02692 0.24675 0.0
H594 H 0.10534 0.01242 0.31319 0.0
H595 H 0.08376 0.02869 0.24035 0.0
H596 H 0.21274 0.94295 0.24149 0.0
H597 H 0.13622 0.96064 0.24731 0.0
H598 H 0.17197 0.06055 0.29588 0.0
H599 H 0.24923 0.04373 0.28952 0.0
C600 C 0.03871 0.01601 0.30227 0.0
C601 C 0.0096 0.01916 0.28366 0.0
C602 C 0.08381 0.01732 0.29866 0.0
C603 C 0.10081 0.02046 0.27626 0.0
C604 C 0.07166 0.02621 0.2578 0.0
C605 C 0.02656 0.02591 0.2615 0.0
C606 C 0.20447 0.96895 0.2533 0.0
C607 C 0.23729 0.99193 0.26501 0.0
C608 C 0.16055 0.97929 0.2565 0.0
C609 C 0.14799 0.01225 0.2719 0.0
C610 C 0.18065 0.03514 0.2838 0.0
C611 C 0.22485 0.02553 0.28014 0.0
H612 H 0.20398 1.00282 0.03779 0.0
H613 H 0.28902 0.98143 0.9799 0.0
H614 H 0.19479 0.92407 0.04215 0.0
H615 H 0.2818 0.90334 0.98483 0.0
H616 H 0.24543 0.76397 0.98567 0.0
H617 H 0.23983 0.84248 0.98045 0.0
H618 H 0.22606 0.85839 0.05402 0.0
H619 H 0.22903 0.77908 0.05881 0.0
C620 C 0.22074 0.98136 0.02597 0.0
C621 C 0.24694 0.99878 1.00834 0.0
C622 C 0.21574 0.93595 0.02858 0.0
C623 C 0.23721 0.9065 1.0138 0.0
C624 C 0.26354 0.92428 0.99625 0.0
C625 C 0.26803 0.96948 0.99347 0.0
C626 C 0.23983 0.78425 1.00064 0.0
C627 C 0.23705 0.76528 1.0226 0.0
C628 C 0.23743 0.82956 0.99774 0.0
C629 C 0.23355 0.85768 1.01682 0.0
C630 C 0.22872 0.83834 0.03879 0.0
C631 C 0.23024 0.7927 0.0416 0.0
H632 H 0.48864 0.03389 0.81192 0.0
H633 H 0.49259 0.95758 0.74982 0.0
H634 H 0.40931 0.03657 0.80978 0.0
H635 H 0.41281 0.95958 0.7477 0.0
H636 H 0.26357 0.95029 0.7617 0.0
H637 H 0.34161 0.93816 0.76731 0.0
H638 H 0.35852 0.07466 0.78267 0.0
H639 H 0.28088 0.0869 0.77685 0.0
C640 C 0.47235 0.01639 0.79823 0.0
C641 C 0.49674 0.99466 0.78134 0.0
C642 C 0.42689 0.01839 0.79681 0.0
C643 C 0.4045 0.99861 0.77846 0.0
C644 C 0.42886 0.97488 0.76218 0.0
C645 C 0.47454 0.97338 0.76346 0.0
C646 C 0.28389 0.97769 0.7664 0.0
C647 C 0.26574 0.01963 0.76879 0.0
C648 C 0.32871 0.97074 0.76949 0.0
C649 C 0.35649 0.00535 0.77553 0.0
C650 C 0.33816 0.0471 0.77829 0.0
C651 C 0.29357 0.0542 0.7748 0.0
H652 H 0.2293 0.23695 0.48936 0.0
H653 H 0.30469 0.23226 0.55195 0.0
H654 H 0.23524 0.15913 0.48528 0.0
H655 H 0.31252 0.15285 0.54735 0.0
H656 H 0.26312 0.00799 0.54671 0.0
H657 H 0.27188 0.08683 0.55056 0.0
H658 H 0.27619 0.09888 0.47647 0.0
H659 H 0.26513 0.02072 0.47277 0.0
C660 C 0.24816 0.21929 0.50208 0.0
C661 C 0.26634 0.24115 0.52108 0.0
C662 C 0.25192 0.17422 0.4996 0.0
C663 C 0.2744 0.14892 0.51593 0.0
C664 C 0.29445 0.17093 0.53451 0.0
C665 C 0.29056 0.2166 0.53703 0.0
C666 C 0.26621 0.02753 0.53125 0.0
C667 C 0.26277 0.00796 0.50941 0.0
C668 C 0.27158 0.07289 0.53346 0.0
C669 C 0.27422 0.09993 0.51386 0.0
C670 C 0.27303 0.07975 0.49204 0.0
C671 C 0.2669 0.03465 0.48986 0.0
H672 H 0.11211 0.70956 0.28171 0.0
H673 H 0.21905 0.65227 0.24464 0.0
H674 H 0.15655 0.77262 0.291 0.0
H675 H 0.26318 0.71642 0.25269 0.0
H676 H 0.35154 0.78827 0.29558 0.0
H677 H 0.2956 0.73308 0.28983 0.0
H678 H 0.19951 0.83474 0.28111 0.0
H679 H 0.25509 0.88926 0.28827 0.0
C680 C 0.14421 0.71213 0.27413 0.0
C681 C 0.16275 0.67642 0.26274 0.0
C682 C 0.16992 0.74775 0.27984 0.0
C683 C 0.21389 0.74808 0.27359 0.0
C684 C 0.22986 0.71574 0.25867 0.0
C685 C 0.20433 0.67978 0.25335 0.0
C686 C 0.31793 0.79841 0.29405 0.0
C687 C 0.30723 0.84246 0.29201 0.0
C688 C 0.28619 0.76711 0.28999 0.0
C689 C 0.24393 0.78 0.28368 0.0
C690 C 0.23202 0.82396 0.28544 0.0
C691 C 0.26365 0.85512 0.2899 0.0
H692 H 0.07781 0.4012 0.5001 0.0
H693 H 0.11991 0.50182 0.54731 0.0
H694 H 0.01873 0.44815 0.48715 0.0
H695 H 0.06042 0.54772 0.53498 0.0
H696 H 0.95604 0.62829 0.5056 0.0
H697 H 0.02455 0.58852 0.50461 0.0
H698 H 0.95417 0.4667 0.50951 0.0
H699 H 0.88585 0.50636 0.50965 0.0
C700 C 0.07447 0.43333 0.50761 0.0
C701 C 0.10227 0.44752 0.52519 0.0
C702 C 0.04103 0.46014 0.50012 0.0
C703 C 0.03496 0.50107 0.51033 0.0
C704 C 0.0647 0.5164 0.5267 0.0
C705 C 0.09832 0.48985 0.53401 0.0
C706 C 0.95546 0.593 0.50651 0.0
C707 C 0.9162 0.57006 0.5082 0.0
C708 C 0.99441 0.57039 0.50568 0.0
C709 C 0.99437 0.52475 0.5069 0.0
C710 C 0.95494 0.5019 0.50804 0.0
C711 C 0.91602 0.52447 0.50854 0.0
H712 H 0.25948 0.3897 0.76035 0.0
H713 H 0.35511 0.28709 0.75973 0.0
H714 H 0.20262 0.33686 0.76812 0.0
H715 H 0.29801 0.23329 0.76585 0.0
H716 H 0.21384 0.15534 0.8084 0.0
H717 H 0.26057 0.21796 0.80105 0.0
H718 H 0.15939 0.27602 0.7593 0.0
H719 H 0.11227 0.21478 0.76802 0.0
C720 C 0.26774 0.35534 0.76029 0.0
C721 C 0.3113 0.34208 0.75977 0.0
C722 C 0.23532 0.32514 0.76515 0.0
C723 C 0.24632 0.28129 0.76881 0.0
C724 C 0.28903 0.26731 0.76428 0.0
C725 C 0.32153 0.29773 0.75993 0.0
C726 C 0.20077 0.18303 0.79907 0.0
C727 C 0.15999 0.18062 0.78862 0.0
C728 C 0.22788 0.21811 0.79414 0.0
C729 C 0.21437 0.25053 0.7785 0.0
C730 C 0.17101 0.25122 0.77107 0.0
C731 C 0.1437 0.21658 0.77642 0.0
H732 H 0.55611 0.38798 0.02921 0.0
H733 H 0.63751 0.50244 1.02329 0.0
H734 H 0.49438 0.43402 0.03857 0.0
H735 H 0.57589 0.54848 0.0333 0.0
H736 H 0.44286 0.60848 1.01308 0.0
H737 H 0.51009 0.5666 1.01131 0.0
H738 H 0.46475 0.48429 0.06683 0.0
H739 H 0.39726 0.52498 0.06811 0.0
C740 C 0.5609 0.4229 0.0304 0.0
C741 C 0.601 0.44195 1.02513 0.0
C742 C 0.52575 0.44918 0.03587 0.0
C743 C 0.53058 0.49468 0.03639 0.0
C744 C 0.5714 0.51348 0.03254 0.0
C745 C 0.60644 0.48724 0.02686 0.0
C746 C 0.44746 0.5815 1.02488 0.0
C747 C 0.41485 0.56938 0.04041 0.0
C748 C 0.48595 0.55791 1.02407 0.0
C749 C 0.49225 0.52234 0.03896 0.0
C750 C 0.46021 0.51124 0.05499 0.0
C751 C 0.42165 0.53442 0.05563 0.0
H752 H 0.84963 0.33251 0.81982 0.0
H753 H 0.75372 0.37891 0.77134 0.0
H754 H 0.799 0.27565 0.83247 0.0
H755 H 0.70385 0.32292 0.78359 0.0
H756 H 0.62725 0.20715 0.79842 0.0
H757 H 0.66103 0.2765 0.80861 0.0
H758 H 0.78775 0.21592 0.80461 0.0
H759 H 0.75408 0.14686 0.79508 0.0
C760 C 0.81724 0.33143 0.81253 0.0
C761 C 0.80586 0.35821 0.79396 0.0
C762 C 0.78832 0.29924 0.81977 0.0
C763 C 0.74822 0.29414 0.80842 0.0
C764 C 0.73461 0.32573 0.79254 0.0
C765 C 0.76346 0.3574 0.78522 0.0
C766 C 0.66234 0.20894 0.79959 0.0
C767 C 0.68833 0.17219 0.79541 0.0
C768 C 0.6815 0.24825 0.80588 0.0
C769 C 0.72688 0.25138 0.80774 0.0
C770 C 0.75261 0.21426 0.80399 0.0
C771 C 0.73349 0.17501 0.79793 0.0
H772 H 0.86866 0.78439 0.27085 0.0
H773 H 0.7761 0.88633 0.2566 0.0
H774 H 0.80985 0.73136 0.27295 0.0
H775 H 0.71668 0.83445 0.26036 0.0
H776 H 0.62913 0.71205 0.25087 0.0
H777 H 0.67939 0.77252 0.24723 0.0
H778 H 0.75715 0.71846 0.30244 0.0
H779 H 0.70764 0.65638 0.30495 0.0
C780 C 0.83576 0.79484 0.26712 0.0
C781 C 0.82637 0.83884 0.26344 0.0
C782 C 0.802 0.76502 0.26911 0.0
C783 C 0.75862 0.77928 0.26795 0.0
C784 C 0.74973 0.82257 0.26162 0.0
C785 C 0.78364 0.85212 0.2591 0.0
C786 C 0.65594 0.71438 0.26292 0.0
C787 C 0.66529 0.67986 0.27798 0.0
C788 C 0.68495 0.74874 0.2607 0.0
C789 C 0.72314 0.74908 0.27385 0.0
C790 C 0.7288 0.71782 0.2914 0.0
C791 C 0.70001 0.68301 0.29335 0.0
H792 H 0.62538 0.0078 0.04553 0.0
H793 H 0.58577 0.90827 0.99714 0.0
H794 H 0.56655 0.054 0.03262 0.0
H795 H 0.52744 0.95552 0.98357 0.0
H796 H 0.39297 0.00772 1.00812 0.0
H797 H 0.46256 0.97073 1.00602 0.0
H798 H 0.52836 0.09536 1.00349 0.0
H799 H 0.45851 0.13239 1.00642 0.0
C800 C 0.6046 0.99622 0.03177 0.0
C801 C 0.60871 0.95391 1.02296 0.0
C802 C 0.57135 0.02297 1.02411 0.0
C803 C 0.54217 0.00784 1.00739 0.0
C804 C 0.54914 0.96734 0.99686 0.0
C805 C 0.58214 0.94032 1.00472 0.0
C806 C 0.42238 0.02705 1.00706 0.0
C807 C 0.42089 0.07258 1.00806 0.0
C808 C 0.46207 0.00603 1.00541 0.0
C809 C 0.50067 0.03036 1.00446 0.0
C810 C 0.49895 0.07603 1.00439 0.0
C811 C 0.45923 0.09707 1.00637 0.0
H812 H 0.10586 0.98067 0.48075 0.0
H813 H 0.05946 0.89896 0.53631 0.0
H814 H 0.03808 0.02109 0.48122 0.0
H815 H 0.99204 0.94053 0.5373 0.0
H816 H 0.94726 0.11882 0.51848 0.0
H817 H 0.00841 0.07226 0.50886 0.0
H818 H 0.92639 0.95839 0.51544 0.0
H819 H 0.86538 0.00501 0.52576 0.0
C820 C 0.08121 0.97157 0.49316 0.0
C821 C 0.08788 0.93727 0.5088 0.0
C822 C 0.04248 0.99455 0.49332 0.0
C823 C 0.01017 0.98392 0.50932 0.0
C824 C 0.01634 0.94886 0.52455 0.0
C825 C 0.05495 0.92546 0.5242 0.0
C826 C 0.94222 0.08392 0.51752 0.0
C827 C 0.9022 0.06522 0.5233 0.0
C828 C 0.97703 0.05732 0.51187 0.0
C829 C 0.97194 0.01184 0.51167 0.0
C830 C 0.93111 0.99338 0.51594 0.0
C831 C 0.89641 0.01995 0.52182 0.0
H832 H 0.14778 0.4044 0.34243 0.0
H833 H 0.16778 0.5326 0.37102 0.0
H834 H 0.17237 0.37203 0.37906 0.0
H835 H 0.19204 0.50083 0.40692 0.0
H836 H 0.26965 0.43851 0.4638 0.0
H837 H 0.25197 0.46276 0.42453 0.0
H838 H 0.15433 0.36224 0.41957 0.0
H839 H 0.17235 0.3381 0.45837 0.0
C840 C 0.15668 0.4257 0.35651 0.0
C841 C 0.1557 0.47125 0.35348 0.0
C842 C 0.17118 0.40718 0.37754 0.0
C843 C 0.18536 0.43369 0.39605 0.0
C844 C 0.1829 0.47907 0.39308 0.0
C845 C 0.16833 0.49737 0.37235 0.0
C846 C 0.24546 0.4208 0.45403 0.0
C847 C 0.22271 0.38617 0.4643 0.0
C848 C 0.23468 0.43507 0.43158 0.0
C849 C 0.20107 0.41494 0.41871 0.0
C850 C 0.18041 0.37861 0.4286 0.0
C851 C 0.19083 0.36473 0.45099 0.0
H852 H 0.43127 0.45255 0.70446 0.0
H853 H 0.29768 0.4816 0.72067 0.0
H854 H 0.40945 0.42664 0.6664 0.0
H855 H 0.27576 0.45553 0.68254 0.0
H856 H 0.24521 0.35572 0.6266 0.0
H857 H 0.27136 0.38454 0.66299 0.0
H858 H 0.37859 0.44601 0.62793 0.0
H859 H 0.35189 0.41732 0.59104 0.0
C860 C 0.39724 0.45421 0.69978 0.0
C861 C 0.36634 0.46956 0.71578 0.0
C862 C 0.38472 0.43925 0.67784 0.0
C863 C 0.34071 0.43837 0.67125 0.0
C864 C 0.30992 0.45503 0.68699 0.0
C865 C 0.32254 0.4706 0.70884 0.0
C866 C 0.27477 0.37488 0.6265 0.0
C867 C 0.29628 0.38396 0.60557 0.0
C868 C 0.28951 0.39196 0.64751 0.0
C869 C 0.32668 0.41855 0.64859 0.0
C870 C 0.34975 0.42581 0.6279 0.0
C871 C 0.33464 0.40898 0.60668 0.0
H872 H 0.368 0.59192 0.84569 0.0
H873 H 0.32474 0.46774 0.87224 0.0
H874 H 0.34631 0.62643 0.88219 0.0
H875 H 0.30323 0.50176 0.90791 0.0
H876 H 0.233 0.57596 0.96397 0.0
H877 H 0.24931 0.54968 0.92494 0.0
H878 H 0.36436 0.62997 0.92326 0.0
H879 H 0.34798 0.65611 0.96179 0.0
C880 C 0.35438 0.57186 0.85922 0.0
C881 C 0.34831 0.52685 0.85565 0.0
C882 C 0.34164 0.59167 0.88019 0.0
C883 C 0.32206 0.56715 0.89809 0.0
C884 C 0.31693 0.52219 0.89454 0.0
C885 C 0.3299 0.50251 0.87391 0.0
C886 C 0.26114 0.58872 0.95504 0.0
C887 C 0.28907 0.61815 0.9662 0.0
C888 C 0.27092 0.5733 0.9327 0.0
C889 C 0.30861 0.58726 0.92078 0.0
C890 C 0.33503 0.61848 0.93157 0.0
C891 C 0.3256 0.63338 0.95386 0.0
H892 H 0.25003 0.65331 0.12693 0.0
H893 H 0.1496 0.58529 0.08959 0.0
H894 H 0.223 0.62348 0.16293 0.0
H895 H 0.12164 0.55597 0.12622 0.0
H896 H 0.06667 0.55136 0.20377 0.0
H897 H 0.08789 0.57792 0.16557 0.0
H898 H 0.22175 0.54856 0.18104 0.0
H899 H 0.20052 0.52139 0.21906 0.0
C900 C 0.22157 0.63257 0.12634 0.0
C901 C 0.20223 0.62189 0.10503 0.0
C902 C 0.20631 0.61501 0.14714 0.0
C903 C 0.1706 0.58647 0.14764 0.0
C904 C 0.14936 0.57768 0.12656 0.0
C905 C 0.16516 0.59487 0.10552 0.0
C906 C 0.10058 0.54972 0.19888 0.0
C907 C 0.13178 0.53384 0.21465 0.0
C908 C 0.11274 0.56503 0.1769 0.0
C909 C 0.15664 0.56593 0.17013 0.0
C910 C 0.18767 0.54889 0.18564 0.0
C911 C 0.17543 0.53281 0.20744 0.0
H912 H 0.73445 0.57911 0.58449 0.0
H913 H 0.84968 0.65891 0.58627 0.0
H914 H 0.75047 0.55364 0.62376 0.0
H915 H 0.86577 0.6336 0.62506 0.0
H916 H 0.86859 0.5977 0.70299 0.0
H917 H 0.84739 0.63122 0.66609 0.0
H918 H 0.80406 0.50597 0.64146 0.0
H919 H 0.8251 0.47292 0.67755 0.0
C920 C 0.7626 0.59197 0.59337 0.0
C921 C 0.79067 0.62106 0.58204 0.0
C922 C 0.77221 0.57701 0.61586 0.0
C923 C 0.80987 0.59112 0.62777 0.0
C924 C 0.83646 0.62201 0.61677 0.0
C925 C 0.8272 0.63643 0.59433 0.0
C926 C 0.85503 0.57729 0.68961 0.0
C927 C 0.84877 0.53241 0.69361 0.0
C928 C 0.84257 0.59653 0.66841 0.0
C929 C 0.82307 0.57158 0.65068 0.0
C930 C 0.81774 0.52674 0.65466 0.0
C931 C 0.83043 0.50761 0.67554 0.0
H932 H 0.56878 0.5576 0.34334 0.0
H933 H 0.70217 0.52469 0.32878 0.0
H934 H 0.5899 0.58328 0.38169 0.0
H935 H 0.72333 0.55102 0.36696 0.0
H936 H 0.75292 0.6547 0.42125 0.0
H937 H 0.72567 0.62598 0.38509 0.0
H938 H 0.62263 0.55994 0.42126 0.0
H939 H 0.65084 0.58809 0.45808 0.0
C940 C 0.60256 0.55516 0.34841 0.0
C941 C 0.63367 0.53873 0.3328 0.0
C942 C 0.61465 0.56995 0.37048 0.0
C943 C 0.65842 0.56975 0.37752 0.0
C944 C 0.68935 0.55218 0.36215 0.0
C945 C 0.67715 0.5366 0.34026 0.0
C946 C 0.72403 0.63454 0.42169 0.0
C947 C 0.70432 0.62387 0.44292 0.0
C948 C 0.70865 0.61762 0.4008 0.0
C949 C 0.67243 0.58975 0.4001 0.0
C950 C 0.65077 0.5811 0.42107 0.0
C951 C 0.6667 0.59765 0.44223 0.0
H952 H 0.67543 0.33031 0.09101 0.0
H953 H 0.76951 0.43372 0.08549 0.0
H954 H 0.65782 0.35282 0.13002 0.0
H955 H 0.75108 0.45754 0.12456 0.0
H956 H 0.72867 0.47935 0.20048 0.0
H957 H 0.75188 0.44724 0.16434 0.0
H958 H 0.62013 0.40543 0.1513 0.0
H959 H 0.5973 0.43686 0.18825 0.0
C960 C 0.69301 0.35758 0.09833 0.0
C961 C 0.7244 0.37979 0.08506 0.0
C962 C 0.68233 0.371 0.12073 0.0
C963 C 0.70226 0.4076 0.13079 0.0
C964 C 0.73506 0.42889 0.1178 0.0
C965 C 0.74604 0.41512 0.09531 0.0
C966 C 0.70466 0.46259 0.1901 0.0
C967 C 0.66103 0.46057 0.19747 0.0
C968 C 0.71798 0.44455 0.16907 0.0
C969 C 0.68813 0.42402 0.15429 0.0
C970 C 0.64455 0.42049 0.16208 0.0
C971 C 0.63122 0.4384 0.18339 0.0
H972 H 0.9324 0.46255 0.84554 0.0
H973 H 0.79847 0.48961 0.82907 0.0
H974 H 0.91078 0.43567 0.88348 0.0
H975 H 0.77673 0.46256 0.86706 0.0
H976 H 0.74728 0.36162 0.92273 0.0
H977 H 0.77321 0.39143 0.88649 0.0
H978 H 0.87944 0.45369 0.92198 0.0
H979 H 0.85295 0.42393 0.95873 0.0
C980 C 0.89833 0.46359 0.85015 0.0
C981 C 0.8673 0.47871 0.8341 0.0
C982 C 0.88591 0.44806 0.87202 0.0
C983 C 0.84188 0.44633 0.87851 0.0
C984 C 0.81093 0.46272 0.86271 0.0
C985 C 0.82343 0.47887 0.84094 0.0
C986 C 0.77658 0.38117 0.92295 0.0
C987 C 0.79787 0.39009 0.94396 0.0
C988 C 0.79119 0.39882 0.90202 0.0
C989 C 0.82801 0.42592 0.9011 0.0
C990 C 0.85088 0.4331 0.92188 0.0
C991 C 0.8359 0.41566 0.94302 0.0
H992 H 0.69134 0.90862 0.84016 0.0
H993 H 0.60768 0.99656 0.87733 0.0
H994 H 0.72151 0.88228 0.87693 0.0
H995 H 0.63748 0.9707 0.91359 0.0
H996 H 0.72878 0.95941 0.97302 0.0
H997 H 0.70595 0.97921 0.93408 0.0
H998 H 0.70704 0.84349 0.91471 0.0
H999 H 0.73021 0.82395 0.9539 0.0
C1000 C 0.67841 0.92143 0.85611 0.0
C1001 C 0.64683 0.95475 0.85561 0.0
C1002 C 0.69608 0.90666 0.87725 0.0
C1003 C 0.68292 0.9251 0.89841 0.0
C1004 C 0.64957 0.95649 0.89779 0.0
C1005 C 0.63192 0.97096 0.87687 0.0
C1006 C 0.72597 0.93397 0.96018 0.0
C1007 C 0.73278 0.89024 0.96643 0.0
C1008 C 0.71195 0.94518 0.9379 0.0
C1009 C 0.70378 0.91296 0.92112 0.0
C1010 C 0.71308 0.8693 0.92698 0.0
C1011 C 0.72691 0.85808 0.94942 0.0
H1012 H 0.74034 0.86338 0.12889 0.0
H1013 H 0.85403 0.91243 0.09403 0.0
H1014 H 0.76784 0.89094 0.16529 0.0
H1015 H 0.88184 0.94019 0.13082 0.0
H1016 H 0.93358 0.94818 0.2068 0.0
H1017 H 0.91 0.92184 0.16916 0.0
H1018 H 0.77839 0.95971 0.18501 0.0
H1019 H 0.80203 0.98585 0.22278 0.0
C1020 C 0.77162 0.87955 0.12895 0.0
C1021 C 0.7948 0.8854 0.10821 0.0
C1022 C 0.78721 0.89595 0.14996 0.0
C1023 C 0.82683 0.91876 0.15122 0.0
C1024 C 0.85119 0.92289 0.13071 0.0
C1025 C 0.83535 0.90664 0.10952 0.0
C1026 C 0.89966 0.95159 0.20217 0.0
C1027 C 0.86987 0.96954 0.21801 0.0
C1028 C 0.8861 0.9364 0.18044 0.0
C1029 C 0.84208 0.93802 0.17383 0.0
C1030 C 0.81246 0.95712 0.18944 0.0
C1031 C 0.82612 0.97275 0.2111 0.0
H1032 H 0.82452 0.17531 0.45662 0.0
H1033 H 0.73464 0.069 0.46552 0.0
H1034 H 0.84463 0.14783 0.41881 0.0
H1035 H 0.75418 0.04145 0.42721 0.0
H1036 H 0.84198 0.97128 0.37576 0.0
H1037 H 0.81543 0.00528 0.41063 0.0
H1038 H 0.82916 0.13201 0.37909 0.0
H1039 H 0.85637 0.09743 0.34374 0.0
C1040 C 0.80791 0.14671 0.45013 0.0
C1041 C 0.77755 0.12468 0.46414 0.0
C1042 C 0.8196 0.13082 0.42833 0.0
C1043 C 0.80174 0.09189 0.41976 0.0
C1044 C 0.76941 0.07111 0.43324 0.0
C1045 C 0.75744 0.08731 0.45511 0.0
C1046 C 0.83976 0.00651 0.37614 0.0
C1047 C 0.8516 0.03141 0.35667 0.0
C1048 C 0.82382 0.02609 0.39623 0.0
C1049 C 0.81899 0.07157 0.39784 0.0
C1050 C 0.83225 0.09687 0.37867 0.0
C1051 C 0.84824 0.07708 0.35836 0.0
H1052 H 0.76311 0.1416 0.62608 0.0
H1053 H 0.64778 0.09475 0.59177 0.0
H1054 H 0.73673 0.11298 0.66241 0.0
H1055 H 0.62052 0.06698 0.62893 0.0
H1056 H 0.57785 0.07295 0.70946 0.0
H1057 H 0.59733 0.09433 0.67006 0.0
H1058 H 0.72409 0.03711 0.67943 0.0
H1059 H 0.70407 0.01494 0.71868 0.0
C1060 C 0.73168 0.12573 0.62622 0.0
C1061 C 0.70782 0.12062 0.60561 0.0
C1062 C 0.71674 0.10885 0.64722 0.0
C1063 C 0.67688 0.08675 0.6487 0.0
C1064 C 0.65158 0.08354 0.62845 0.0
C1065 C 0.66702 0.09987 0.60714 0.0
C1066 C 0.60935 0.06357 0.70279 0.0
C1067 C 0.63906 0.04136 0.71709 0.0
C1068 C 0.62059 0.07604 0.6802 0.0
C1069 C 0.66242 0.06784 0.67146 0.0
C1070 C 0.69165 0.04426 0.68555 0.0
C1071 C 0.68004 0.03099 0.70798 0.0
H1072 H 0.23793 0.07715 0.08804 0.0
H1073 H 0.35619 0.15247 0.08885 0.0
H1074 H 0.25416 0.05109 0.12718 0.0
H1075 H 0.37234 0.12666 0.12757 0.0
H1076 H 0.37409 0.09021 0.20599 0.0
H1077 H 0.35369 0.12499 0.1692 0.0
H1078 H 0.30777 1.00125 0.14383 0.0
H1079 H 0.32823 0.96695 0.17962 0.0
C1080 C 0.26686 0.08886 0.09666 0.0
C1081 C 0.29569 0.11682 0.08507 0.0
C1082 C 0.27653 0.07361 0.11908 0.0
C1083 C 0.31497 0.08636 0.1307 0.0
C1084 C 0.34243 0.11615 0.11948 0.0
C1085 C 0.33313 0.13081 0.09708 0.0
C1086 C 0.36016 0.0704 0.19246 0.0
C1087 C 0.35293 0.02558 0.19618 0.0
C1088 C 0.34814 0.09037 0.17134 0.0
C1089 C 0.32805 0.06621 0.15348 0.0
C1090 C 0.32188 0.02142 0.15717 0.0
C1091 C 0.33421 1.00159 0.17789 0.0
H1092 H 0.25188 0.15433 0.92475 0.0
H1093 H 0.15234 0.08562 0.96243 0.0
H1094 H 0.22403 0.12518 0.88881 0.0
H1095 H 0.12352 0.05698 0.92585 0.0
H1096 H 0.06682 0.05304 0.84863 0.0
H1097 H 0.08886 0.07899 0.88678 0.0
H1098 H 0.22251 0.05101 0.87029 0.0
H1099 H 0.20046 0.02447 0.8323 0.0
C1100 C 0.22342 0.13359 0.92544 0.0
C1101 C 0.2046 0.12253 0.94684 0.0
C1102 C 0.20769 0.11641 0.90466 0.0
C1103 C 0.172 0.08784 0.90424 0.0
C1104 C 0.15123 0.0787 0.92542 0.0
C1105 C 0.1675 0.09552 0.94645 0.0
C1106 C 0.10087 0.05156 0.85328 0.0
C1107 C 0.13174 0.03623 0.83722 0.0
C1108 C 0.11351 0.06653 0.87524 0.0
C1109 C 0.15758 0.06765 0.88174 0.0
C1110 C 0.1883 0.05118 0.86592 0.0
C1111 C 0.17559 0.03543 0.84414 0.0
H1112 H 0.20151 0.02484 0.68749 0.0
H1113 H 0.11611 0.91719 0.70326 0.0
H1114 H 0.22005 0.9921 0.65115 0.0
H1115 H 0.13547 0.8836 0.66615 0.0
H1116 H 0.14059 0.86795 0.5862 0.0
H1117 H 0.12593 0.89186 0.62517 0.0
H1118 H 0.25854 0.93582 0.63156 0.0
H1119 H 0.27321 0.91219 0.59192 0.0
C1120 C 0.18652 0.99389 0.68336 0.0
C1121 C 0.15677 0.97408 0.69873 0.0
C1122 C 0.19781 0.97473 0.6623 0.0
C1123 C 0.17983 0.93479 0.65538 0.0
C1124 C 0.15003 0.91455 0.67065 0.0
C1125 C 0.13886 0.93376 0.69206 0.0
C1126 C 0.16703 0.88242 0.59583 0.0
C1127 C 0.20825 0.88827 0.5855 0.0
C1128 C 0.15851 0.8959 0.61849 0.0
C1129 C 0.19071 0.91618 0.63187 0.0
C1130 C 0.23247 0.92093 0.62186 0.0
C1131 C 0.24115 0.90704 0.59908 0.0
H1132 H 0.32628 0.01359 0.34095 0.0
H1133 H 0.41664 0.9061 0.3381 0.0
H1134 H 0.30596 0.99141 0.38041 0.0
H1135 H 0.39536 0.88364 0.37659 0.0
H1136 H 0.29257 0.8281 0.43068 0.0
H1137 H 0.31953 0.85419 0.39339 0.0
H1138 H 0.3464 0.97988 0.4232 0.0
H1139 H 0.32107 0.95304 0.46084 0.0
C1140 C 0.34206 0.9856 0.34866 0.0
C1141 C 0.37345 0.96206 0.3361 0.0
C1142 C 0.33044 0.97286 0.37131 0.0
C1143 C 0.34898 0.93557 0.38176 0.0
C1144 C 0.3803 0.91236 0.3692 0.0
C1145 C 0.39263 0.92558 0.34701 0.0
C1146 C 0.30568 0.86079 0.4295 0.0
C1147 C 0.30593 0.88788 0.44903 0.0
C1148 C 0.32066 0.87599 0.40803 0.0
C1149 C 0.33484 0.91935 0.40513 0.0
C1150 C 0.33552 0.94643 0.4247 0.0
C1151 C 0.32173 0.93077 0.4464 0.0
H1152 H 0.11832 0.68109 0.34308 0.0
H1153 H 0.99538 0.62962 0.32031 0.0
H1154 H 0.08274 0.74991 0.35338 0.0
H1155 H 0.95975 0.69774 0.3306 0.0
H1156 H 0.89959 0.82335 0.3483 0.0
H1157 H 0.93738 0.7553 0.35806 0.0
H1158 H 0.05402 0.80464 0.32601 0.0
H1159 H 0.01625 0.87195 0.31633 0.0
C1160 C 0.08337 0.68372 0.34138 0.0
C1161 C 0.0595 0.6499 0.33111 0.0
C1162 C 0.06302 0.72332 0.34699 0.0
C1163 C 0.01837 0.72961 0.34265 0.0
C1164 C 0.99399 0.69409 0.33444 0.0
C1165 C 0.0144 0.65492 0.32854 0.0
C1166 C 0.93384 0.82032 0.34435 0.0
C1167 C 0.95509 0.85299 0.33168 0.0
C1168 C 0.95539 0.78115 0.34967 0.0
C1169 C 0.99869 0.77422 0.34264 0.0
C1170 C 0.02092 0.8088 0.33194 0.0
C1171 C 0.99927 0.84749 0.32636 0.0
H1172 H 0.12429 0.23719 0.56159 0.0
H1173 H 0.07772 0.35757 0.59109 0.0
H1174 H 0.05324 0.20411 0.56775 0.0
H1175 H 0.00658 0.32432 0.5973 0.0
H1176 H 0.87726 0.27006 0.56393 0.0
H1177 H 0.94862 0.3026 0.56999 0.0
H1178 H 0.997 0.17943 0.59529 0.0
H1179 H 0.92561 0.14674 0.58917 0.0
C1180 C 0.09927 0.25629 0.56995 0.0
C1181 C 0.10684 0.30018 0.5757 0.0
C1182 C 0.05844 0.23724 0.57354 0.0
C1183 C 0.02393 0.26166 0.58281 0.0
C1184 C 0.03224 0.30473 0.58986 0.0
C1185 C 0.07324 0.32367 0.58649 0.0
C1186 C 0.90276 0.25014 0.57134 0.0
C1187 C 0.89556 0.20566 0.5759 0.0
C1188 C 0.94376 0.26887 0.57488 0.0
C1189 C 0.9788 0.24354 0.5829 0.0
C1190 C 0.97092 0.19975 0.58881 0.0
C1191 C 0.92978 0.18111 0.5855 0.0
H1192 H 0.50553 0.3644 0.81347 0.0
H1193 H 0.38787 0.31456 0.84381 0.0
H1194 H 0.54341 0.29726 0.82342 0.0
H1195 H 0.42575 0.24657 0.85379 0.0
H1196 H 0.4897 0.11876 0.82153 0.0
H1197 H 0.45185 0.18734 0.82817 0.0
H1198 H 0.57128 0.24531 0.85224 0.0
H1199 H 0.60927 0.17656 0.84554 0.0
C1200 C 0.48827 0.33962 0.82313 0.0
C1201 C 0.44393 0.3449 0.8281 0.0
C1202 C 0.50996 0.30101 0.82884 0.0
C1203 C 0.48765 0.2662 0.8393 0.0
C1204 C 0.44387 0.2726 0.84563 0.0
C1205 C 0.42227 0.31172 0.84021 0.0
C1206 C 0.50764 0.14567 0.82895 0.0
C1207 C 0.55266 0.14209 0.83282 0.0
C1208 C 0.48584 0.1851 0.83284 0.0
C1209 C 0.50855 0.22216 0.84049 0.0
C1210 C 0.55285 0.21758 0.8461 0.0
C1211 C 0.57459 0.17795 0.84246 0.0
H1212 H 0.6221 0.74296 0.06327 0.0
H1213 H 0.57521 0.86591 0.08945 0.0
H1214 H 0.551 0.7104 0.07011 0.0
H1215 H 0.50393 0.83321 0.0963 0.0
H1216 H 0.37451 0.7746 0.06474 0.0
H1217 H 0.44565 0.80828 0.06985 0.0
H1218 H 0.49501 0.68813 0.09843 0.0
H1219 H 0.42381 0.65434 0.09331 0.0
C1220 C 0.59695 0.76282 0.07101 0.0
C1221 C 0.60455 0.80717 0.07571 0.0
C1222 C 0.55609 0.74406 0.07501 0.0
C1223 C 0.52146 0.76921 0.0836 0.0
C1224 C 0.52967 0.81298 0.08944 0.0
C1225 C 0.57075 0.83163 0.0857 0.0
C1226 C 0.40016 0.75569 0.07273 0.0
C1227 C 0.39324 0.71166 0.07854 0.0
C1228 C 0.44106 0.77506 0.07569 0.0
C1229 C 0.47637 0.75082 0.08432 0.0
C1230 C 0.46875 0.70762 0.09147 0.0
C1231 C 0.42768 0.68838 0.08877 0.0
H1232 H 0.99106 0.12738 0.73052 0.0
H1233 H 0.1123 0.18612 0.71028 0.0
H1234 H 0.95283 0.19488 0.72157 0.0
H1235 H 0.07414 0.25423 0.70131 0.0
H1236 H 0.00315 0.3704 0.7402 0.0
H1237 H 0.04284 0.30464 0.72994 0.0
H1238 H 0.92875 0.25474 0.69561 0.0
H1239 H 0.88898 0.32142 0.70593 0.0
C1240 C 0.00918 0.15416 0.72303 0.0
C1241 C 0.05454 0.15131 0.72081 0.0
C1242 C 0.98729 0.19302 0.71795 0.0
C1243 C 0.01039 0.23031 0.71094 0.0
C1244 C 0.05536 0.22624 0.70682 0.0
C1245 C 0.07721 0.18704 0.71162 0.0
C1246 C 0.98706 0.34611 0.72968 0.0
C1247 C 0.94309 0.35111 0.72376 0.0
C1248 C 0.00985 0.30834 0.72372 0.0
C1249 C 0.98903 0.2741 0.71202 0.0
C1250 C 0.94574 0.28038 0.70471 0.0
C1251 C 0.92305 0.31871 0.7104 0.0
H1252 H 0.92607 0.64922 0.45553 0.0
H1253 H 0.8806 0.77255 0.48193 0.0
H1254 H 0.99845 0.68015 0.45024 0.0
H1255 H 0.95297 0.80347 0.47652 0.0
H1256 H 0.08362 0.85584 0.45538 0.0
H1257 H 0.01171 0.82447 0.44904 0.0
H1258 H 0.05525 0.70279 0.47844 0.0
H1259 H 0.12715 0.73411 0.48485 0.0
C1260 C 0.93104 0.68333 0.45954 0.0
C1261 C 0.89724 0.70836 0.46918 0.0
C1262 C 0.9728 0.70092 0.45674 0.0
C1263 C 0.98179 0.74422 0.46313 0.0
C1264 C 0.94727 0.77011 0.47125 0.0
C1265 C 0.90566 0.75235 0.47437 0.0
C1266 C 0.07838 0.82197 0.45987 0.0
C1267 C 0.11142 0.79757 0.47067 0.0
C1268 C 0.03687 0.80414 0.45646 0.0
C1269 C 0.02742 0.76122 0.46343 0.0
C1270 C 0.06133 0.73584 0.47271 0.0
C1271 C 0.10266 0.75384 0.4764 0.0
H1272 H 0.61302 0.68089 0.2038 0.0
H1273 H 0.49265 0.61808 0.22187 0.0
H1274 H 0.57375 0.74891 0.1963 0.0
H1275 H 0.45329 0.68557 0.21449 0.0
H1276 H 0.38774 0.8133 0.20381 0.0
H1277 H 0.42784 0.74819 0.19125 0.0
H1278 H 0.5424 0.79567 0.22611 0.0
H1279 H 0.50241 0.85983 0.23853 0.0
C1280 C 0.57788 0.68091 0.20483 0.0
C1281 C 0.55581 0.64399 0.21307 0.0
C1282 C 0.55538 0.72011 0.20095 0.0
C1283 C 0.51033 0.72306 0.20512 0.0
C1284 C 0.48779 0.68466 0.21089 0.0
C1285 C 0.51034 0.64574 0.215 0.0
C1286 C 0.42195 0.81046 0.20793 0.0
C1287 C 0.44208 0.84168 0.22202 0.0
C1288 C 0.44485 0.773 0.20097 0.0
C1289 C 0.48843 0.76642 0.20772 0.0
C1290 C 0.50921 0.79962 0.22026 0.0
C1291 C 0.48624 0.83648 0.22747 0.0
H1292 H 0.37897 0.27452 0.98691 0.0
H1293 H 0.42435 0.15497 0.95599 0.0
H1294 H 0.45032 0.30725 0.98092 0.0
H1295 H 0.49568 0.18777 0.95002 0.0
H1296 H 0.62593 0.23924 0.98344 0.0
H1297 H 0.55401 0.20783 0.97747 0.0
H1298 H 0.50679 0.33238 0.95351 0.0
H1299 H 0.57873 0.36393 0.9595 0.0
C1300 C 0.40374 0.25561 0.97823 0.0
C1301 C 0.39571 0.21203 0.972 0.0
C1302 C 0.44476 0.27441 0.97477 0.0
C1303 C 0.47902 0.25002 0.9652 0.0
C1304 C 0.47024 0.20734 0.95768 0.0
C1305 C 0.42906 0.18869 0.96088 0.0
C1306 C 0.60056 0.25971 0.97633 0.0
C1307 C 0.6083 0.30422 0.97207 0.0
C1308 C 0.55922 0.24165 0.97286 0.0
C1309 C 0.52436 0.26766 0.96521 0.0
C1310 C 0.53272 0.31153 0.95967 0.0
C1311 C 0.57419 0.32951 0.9629 0.0
loop_
_geom_bond_atom_site_label_1
_geom_bond_atom_site_label_2
_geom_bond_distance
_geom_bond_site_symmetry_2
_ccdc_geom_bond_type
Fe0 O2 1.918 . S
Fe0 O5 1.997 . S
Fe0 O6 2.002 . S
Fe0 O11 1.976 . S
Fe0 O14 1.996 . S
Fe1 O2 1.918 . S
Fe1 O9 1.997 . S
Fe1 O12 1.996 . S
Fe1 O16 1.976 . S
Fe1 O19 2.002 . S
O2 Fe0 1.918 . S
O2 Fe1 1.918 . S
O2 Fe3 1.918 . S
Fe3 O2 1.918 . S
Fe3 O4 2.002 . S
Fe3 O13 1.976 . S
Fe3 O17 1.996 . S
Fe3 O20 1.997 . S
O4 Fe3 2.002 . S
O4 C21 1.295 . S
O5 Fe0 1.997 . S
O5 C21 1.235 . S
O6 Fe0 2.002 . S
O6 C7 1.295 . S
C7 O6 1.295 . S
C7 O9 1.235 . S
C8 O13 1.287 . S
C8 O14 1.255 . S
O9 Fe1 1.997 . S
O9 C7 1.235 . S
C10 O16 1.287 . S
C10 O17 1.255 . S
O11 Fe0 1.976 . S
O11 C18 1.287 . S
O12 Fe1 1.996 . S
O12 C18 1.255 . S
O13 Fe3 1.976 . S
O13 C8 1.287 . S
O14 Fe0 1.996 . S
O14 C8 1.255 . S
C15 O19 1.295 . S
C15 O20 1.235 . S
O16 Fe1 1.976 . S
O16 C10 1.287 . S
O17 Fe3 1.996 . S
O17 C10 1.255 . S
C18 O11 1.287 . S
C18 O12 1.255 . S
O19 Fe1 2.002 . S
O19 C15 1.295 . S
O20 Fe3 1.997 . S
O20 C15 1.235 . S
C21 O4 1.295 . S
C21 O5 1.235 . S
Fe22 O24 1.918 . S
Fe22 O27 1.997 . S
Fe22 O28 2.002 . S
Fe22 O33 1.976 . S
Fe22 O36 1.996 . S
Fe23 O24 1.918 . S
Fe23 O31 1.997 . S
Fe23 O34 1.996 . S
Fe23 O38 1.976 . S
Fe23 O41 2.002 . S
O24 Fe22 1.918 . S
O24 Fe23 1.918 . S
O24 Fe25 1.918 . S
Fe25 O24 1.918 . S
Fe25 O26 2.002 . S
Fe25 O35 1.976 . S
Fe25 O39 1.996 . S
Fe25 O42 1.997 . S
O26 Fe25 2.002 . S
O26 C43 1.295 . S
O27 Fe22 1.997 . S
O27 C43 1.235 . S
O28 Fe22 2.002 . S
O28 C29 1.295 . S
C29 O28 1.295 . S
C29 O31 1.235 . S
C30 O35 1.287 . S
C30 O36 1.255 . S
O31 Fe23 1.997 . S
O31 C29 1.235 . S
C32 O38 1.287 . S
C32 O39 1.255 . S
O33 Fe22 1.976 . S
O33 C40 1.287 . S
O34 Fe23 1.996 . S
O34 C40 1.255 . S
O35 Fe25 1.976 . S
O35 C30 1.287 . S
O36 Fe22 1.996 . S
O36 C30 1.255 . S
C37 O41 1.295 . S
C37 O42 1.235 . S
O38 Fe23 1.976 . S
O38 C32 1.287 . S
O39 Fe25 1.996 . S
O39 C32 1.255 . S
C40 O33 1.287 . S
C40 O34 1.255 . S
O41 Fe23 2.002 . S
O41 C37 1.295 . S
O42 Fe25 1.997 . S
O42 C37 1.235 . S
C43 O26 1.295 . S
C43 O27 1.235 . S
Fe44 O46 1.918 . S
Fe44 O49 1.997 . S
Fe44 O50 2.002 . S
Fe44 O55 1.976 . S
Fe44 O58 1.996 . S
Fe45 O46 1.918 . S
Fe45 O53 1.997 . S
Fe45 O56 1.996 . S
Fe45 O60 1.976 . S
Fe45 O63 2.002 . S
O46 Fe44 1.918 . S
O46 Fe45 1.918 . S
O46 Fe47 1.918 . S
Fe47 O46 1.918 . S
Fe47 O48 2.002 . S
Fe47 O57 1.976 . S
Fe47 O61 1.996 . S
Fe47 O64 1.997 . S
O48 Fe47 2.002 . S
O48 C65 1.295 . S
O49 Fe44 1.997 . S
O49 C65 1.235 . S
O50 Fe44 2.002 . S
O50 C51 1.295 . S
C51 O50 1.295 . S
C51 O53 1.235 . S
C52 O57 1.287 . S
C52 O58 1.255 . S
O53 Fe45 1.997 . S
O53 C51 1.235 . S
C54 O60 1.287 . S
C54 O61 1.255 . S
O55 Fe44 1.976 . S
O55 C62 1.287 . S
O56 Fe45 1.996 . S
O56 C62 1.255 . S
O57 Fe47 1.976 . S
O57 C52 1.287 . S
O58 Fe44 1.996 . S
O58 C52 1.255 . S
C59 O63 1.295 . S
C59 O64 1.235 . S
O60 Fe45 1.976 . S
O60 C54 1.287 . S
O61 Fe47 1.996 . S
O61 C54 1.255 . S
C62 O55 1.287 . S
C62 O56 1.255 . S
O63 Fe45 2.002 . S
O63 C59 1.295 . S
O64 Fe47 1.997 . S
O64 C59 1.235 . S
C65 O48 1.295 . S
C65 O49 1.235 . S
Fe66 O68 1.918 . S
Fe66 O71 1.997 1_554 S
Fe66 O72 2.002 . S
Fe66 O77 1.976 . S
Fe66 O80 1.996 . S
Fe67 O68 1.918 . S
Fe67 O75 1.997 . S
Fe67 O78 1.996 . S
Fe67 O82 1.976 . S
Fe67 O85 2.002 . S
O68 Fe66 1.918 . S
O68 Fe67 1.918 . S
O68 Fe69 1.918 1_554 S
Fe69 O68 1.918 1_556 S
Fe69 O70 2.002 . S
Fe69 O79 1.976 . S
Fe69 O83 1.996 1_556 S
Fe69 O86 1.997 . S
O70 Fe69 2.002 . S
O70 C87 1.295 . S
O71 Fe66 1.997 1_556 S
O71 C87 1.235 . S
O72 Fe66 2.002 . S
O72 C73 1.295 . S
C73 O72 1.295 . S
C73 O75 1.235 . S
C74 O79 1.287 . S
C74 O80 1.255 1_556 S
O75 Fe67 1.997 . S
O75 C73 1.235 . S
C76 O82 1.287 . S
C76 O83 1.255 . S
O77 Fe66 1.976 . S
O77 C84 1.287 . S
O78 Fe67 1.996 . S
O78 C84 1.255 . S
O79 Fe69 1.976 . S
O79 C74 1.287 . S
O80 Fe66 1.996 . S
O80 C74 1.255 1_554 S
C81 O85 1.294 1_556 S
C81 O86 1.236 . S
O82 Fe67 1.976 . S
O82 C76 1.287 . S
O83 Fe69 1.996 1_554 S
O83 C76 1.255 . S
C84 O77 1.287 . S
C84 O78 1.255 . S
O85 Fe67 2.002 . S
O85 C81 1.294 1_554 S
O86 Fe69 1.997 . S
O86 C81 1.236 . S
C87 O70 1.295 . S
C87 O71 1.235 . S
Fe88 O90 1.918 . S
Fe88 O93 1.997 . S
Fe88 O94 2.002 . S
Fe88 O99 1.976 . S
Fe88 O102 1.996 . S
Fe89 O90 1.918 . S
Fe89 O97 1.997 . S
Fe89 O100 1.996 . S
Fe89 O104 1.976 . S
Fe89 O107 2.002 . S
O90 Fe88 1.918 . S
O90 Fe89 1.918 . S
O90 Fe91 1.918 . S
Fe91 O90 1.918 . S
Fe91 O92 2.002 . S
Fe91 O101 1.976 . S
Fe91 O105 1.996 . S
Fe91 O108 1.997 . S
O92 Fe91 2.002 . S
O92 C109 1.295 . S
O93 Fe88 1.997 . S
O93 C109 1.235 . S
O94 Fe88 2.002 . S
O94 C95 1.295 . S
C95 O94 1.295 . S
C95 O97 1.235 . S
C96 O101 1.287 . S
C96 O102 1.255 . S
O97 Fe89 1.997 . S
O97 C95 1.235 . S
C98 O104 1.287 . S
C98 O105 1.255 . S
O99 Fe88 1.976 . S
O99 C106 1.287 . S
O100 Fe89 1.996 . S
O100 C106 1.255 . S
O101 Fe91 1.976 . S
O101 C96 1.287 . S
O102 Fe88 1.996 . S
O102 C96 1.255 . S
C103 O107 1.295 . S
C103 O108 1.235 . S
O104 Fe89 1.976 . S
O104 C98 1.287 . S
O105 Fe91 1.996 . S
O105 C98 1.255 . S
C106 O99 1.287 . S
C106 O100 1.255 . S
O107 Fe89 2.002 . S
O107 C103 1.295 . S
O108 Fe91 1.997 . S
O108 C103 1.235 . S
C109 O92 1.295 . S
C109 O93 1.235 . S
Fe110 O112 1.918 . S
Fe110 O115 1.997 . S
Fe110 O116 2.002 . S
Fe110 O121 1.976 . S
Fe110 O124 1.996 . S
Fe111 O112 1.918 . S
Fe111 O119 1.997 . S
Fe111 O122 1.996 . S
Fe111 O126 1.976 . S
Fe111 O129 2.002 . S
O112 Fe110 1.918 . S
O112 Fe111 1.918 . S
O112 Fe113 1.918 . S
Fe113 O112 1.918 . S
Fe113 O114 2.002 . S
Fe113 O123 1.976 . S
Fe113 O127 1.996 . S
Fe113 O130 1.997 . S
O114 Fe113 2.002 . S
O114 C131 1.295 . S
O115 Fe110 1.997 . S
O115 C131 1.235 . S
O116 Fe110 2.002 . S
O116 C117 1.295 . S
C117 O116 1.295 . S
C117 O119 1.235 . S
C118 O123 1.287 . S
C118 O124 1.255 . S
O119 Fe111 1.997 . S
O119 C117 1.235 . S
C120 O126 1.287 . S
C120 O127 1.255 . S
O121 Fe110 1.976 . S
O121 C128 1.287 . S
O122 Fe111 1.996 . S
O122 C128 1.255 . S
O123 Fe113 1.976 . S
O123 C118 1.287 . S
O124 Fe110 1.996 . S
O124 C118 1.255 . S
C125 O129 1.295 . S
C125 O130 1.235 . S
O126 Fe111 1.976 . S
O126 C120 1.287 . S
O127 Fe113 1.996 . S
O127 C120 1.255 . S
C128 O121 1.287 . S
C128 O122 1.255 . S
O129 Fe111 2.002 . S
O129 C125 1.295 . S
O130 Fe113 1.997 . S
O130 C125 1.235 . S
C131 O114 1.295 . S
C131 O115 1.235 . S
Fe132 O134 1.918 . S
Fe132 O137 1.997 . S
Fe132 O138 2.002 . S
Fe132 O143 1.976 . S
Fe132 O146 1.996 . S
Fe133 O134 1.918 . S
Fe133 O141 1.997 . S
Fe133 O144 1.996 . S
Fe133 O148 1.976 . S
Fe133 O151 2.002 . S
O134 Fe132 1.918 . S
O134 Fe133 1.918 . S
O134 Fe135 1.918 . S
Fe135 O134 1.918 . S
Fe135 O136 2.002 . S
Fe135 O145 1.976 . S
Fe135 O149 1.996 . S
Fe135 O152 1.997 . S
O136 Fe135 2.002 . S
O136 C153 1.295 . S
O137 Fe132 1.997 . S
O137 C153 1.235 . S
O138 Fe132 2.002 . S
O138 C139 1.295 . S
C139 O138 1.295 . S
C139 O141 1.235 . S
C140 O145 1.287 . S
C140 O146 1.255 . S
O141 Fe133 1.997 . S
O141 C139 1.235 . S
C142 O148 1.287 . S
C142 O149 1.255 . S
O143 Fe132 1.976 . S
O143 C150 1.287 . S
O144 Fe133 1.996 . S
O144 C150 1.255 . S
O145 Fe135 1.976 . S
O145 C140 1.287 . S
O146 Fe132 1.996 . S
O146 C140 1.255 . S
C147 O151 1.295 . S
C147 O152 1.235 . S
O148 Fe133 1.976 . S
O148 C142 1.287 . S
O149 Fe135 1.996 . S
O149 C142 1.255 . S
C150 O143 1.287 . S
C150 O144 1.255 . S
O151 Fe133 2.002 . S
O151 C147 1.295 . S
O152 Fe135 1.997 . S
O152 C147 1.235 . S
C153 O136 1.295 . S
C153 O137 1.235 . S
Fe154 O156 1.918 1_554 S
Fe154 O159 1.997 . S
Fe154 O160 2.002 . S
Fe154 O165 1.976 . S
Fe154 O168 1.996 1_554 S
Fe155 O156 1.918 . S
Fe155 O163 1.997 1_556 S
Fe155 O166 1.996 . S
Fe155 O170 1.976 . S
Fe155 O173 2.002 . S
O156 Fe154 1.918 1_556 S
O156 Fe155 1.918 . S
O156 Fe157 1.918 . S
Fe157 O156 1.918 . S
Fe157 O158 2.002 . S
Fe157 O167 1.976 . S
Fe157 O171 1.996 . S
Fe157 O174 1.997 . S
O158 Fe157 2.002 . S
O158 C175 1.294 1_556 S
O159 Fe154 1.997 . S
O159 C175 1.236 . S
O160 Fe154 2.002 . S
O160 C161 1.295 . S
C161 O160 1.295 . S
C161 O163 1.235 . S
C162 O167 1.287 . S
C162 O168 1.255 . S
O163 Fe155 1.997 1_554 S
O163 C161 1.235 . S
C164 O170 1.287 . S
C164 O171 1.255 . S
O165 Fe154 1.976 . S
O165 C172 1.287 . S
O166 Fe155 1.996 . S
O166 C172 1.255 1_556 S
O167 Fe157 1.976 . S
O167 C162 1.287 . S
O168 Fe154 1.996 1_556 S
O168 C162 1.255 . S
C169 O173 1.295 . S
C169 O174 1.235 . S
O170 Fe155 1.976 . S
O170 C164 1.287 . S
O171 Fe157 1.996 . S
O171 C164 1.255 . S
C172 O165 1.287 . S
C172 O166 1.255 1_554 S
O173 Fe155 2.002 . S
O173 C169 1.295 . S
O174 Fe157 1.997 . S
O174 C169 1.235 . S
C175 O158 1.294 1_554 S
C175 O159 1.236 . S
Fe176 O178 1.918 1_565 S
Fe176 O181 1.997 . S
Fe176 O182 2.002 . S
Fe176 O187 1.976 . S
Fe176 O190 1.996 . S
Fe177 O178 1.918 . S
Fe177 O185 1.997 . S
Fe177 O188 1.996 . S
Fe177 O192 1.976 . S
Fe177 O195 2.002 . S
O178 Fe176 1.918 1_545 S
O178 Fe177 1.918 . S
O178 Fe179 1.918 . S
Fe179 O178 1.918 . S
Fe179 O180 2.002 . S
Fe179 O189 1.976 . S
Fe179 O193 1.996 . S
Fe179 O196 1.997 . S
O180 Fe179 2.002 . S
O180 C197 1.295 . S
O181 Fe176 1.997 . S
O181 C197 1.235 1_565 S
O182 Fe176 2.002 . S
O182 C183 1.295 1_565 S
C183 O182 1.295 1_545 S
C183 O185 1.235 . S
C184 O189 1.287 1_565 S
C184 O190 1.255 . S
O185 Fe177 1.997 . S
O185 C183 1.235 . S
C186 O192 1.287 . S
C186 O193 1.255 . S
O187 Fe176 1.976 . S
O187 C194 1.287 . S
O188 Fe177 1.996 . S
O188 C194 1.255 1_545 S
O189 Fe179 1.976 . S
O189 C184 1.287 1_545 S
O190 Fe176 1.996 . S
O190 C184 1.255 . S
C191 O195 1.295 . S
C191 O196 1.235 . S
O192 Fe177 1.976 . S
O192 C186 1.287 . S
O193 Fe179 1.996 . S
O193 C186 1.255 . S
C194 O187 1.287 . S
C194 O188 1.255 1_565 S
O195 Fe177 2.002 . S
O195 C191 1.295 . S
O196 Fe179 1.997 . S
O196 C191 1.235 . S
C197 O180 1.295 . S
C197 O181 1.235 1_545 S
Fe198 O200 1.918 1_556 S
Fe198 O203 1.997 . S
Fe198 O204 2.002 . S
Fe198 O209 1.976 . S
Fe198 O212 1.996 1_556 S
Fe199 O200 1.918 . S
Fe199 O207 1.997 1_554 S
Fe199 O210 1.996 . S
Fe199 O214 1.976 . S
Fe199 O217 2.002 . S
O200 Fe198 1.918 1_554 S
O200 Fe199 1.918 . S
O200 Fe201 1.918 . S
Fe201 O200 1.918 . S
Fe201 O202 2.002 . S
Fe201 O211 1.976 . S
Fe201 O215 1.996 . S
Fe201 O218 1.997 . S
O202 Fe201 2.002 . S
O202 C219 1.293 1_554 S
O203 Fe198 1.997 . S
O203 C219 1.236 . S
O204 Fe198 2.002 . S
O204 C205 1.295 . S
C205 O204 1.295 . S
C205 O207 1.235 . S
C206 O211 1.287 . S
C206 O212 1.255 . S
O207 Fe199 1.997 1_556 S
O207 C205 1.235 . S
C208 O214 1.287 . S
C208 O215 1.255 . S
O209 Fe198 1.976 . S
O209 C216 1.287 . S
O210 Fe199 1.996 . S
O210 C216 1.255 1_554 S
O211 Fe201 1.976 . S
O211 C206 1.287 . S
O212 Fe198 1.996 1_554 S
O212 C206 1.255 . S
C213 O217 1.295 1_545 S
C213 O218 1.235 1_545 S
O214 Fe199 1.976 . S
O214 C208 1.287 . S
O215 Fe201 1.996 . S
O215 C208 1.255 . S
C216 O209 1.287 . S
C216 O210 1.255 1_556 S
O217 Fe199 2.002 . S
O217 C213 1.295 1_565 S
O218 Fe201 1.997 . S
O218 C213 1.235 1_565 S
C219 O202 1.293 1_556 S
C219 O203 1.236 . S
Fe220 O222 1.918 1_545 S
Fe220 O225 1.997 . S
Fe220 O226 2.002 . S
Fe220 O231 1.976 . S
Fe220 O234 1.996 . S
Fe221 O222 1.918 . S
Fe221 O229 1.997 . S
Fe221 O232 1.996 . S
Fe221 O236 1.976 . S
Fe221 O239 2.002 . S
O222 Fe220 1.918 1_565 S
O222 Fe221 1.918 . S
O222 Fe223 1.918 . S
Fe223 O222 1.918 . S
Fe223 O224 2.002 . S
Fe223 O233 1.976 . S
Fe223 O237 1.996 . S
Fe223 O240 1.997 . S
O224 Fe223 2.002 . S
O224 C241 1.295 . S
O225 Fe220 1.997 . S
O225 C241 1.235 1_545 S
O226 Fe220 2.002 . S
O226 C227 1.295 1_545 S
C227 O226 1.295 1_565 S
C227 O229 1.235 . S
C228 O233 1.287 1_545 S
C228 O234 1.255 . S
O229 Fe221 1.997 . S
O229 C227 1.235 . S
C230 O236 1.287 . S
C230 O237 1.255 . S
O231 Fe220 1.976 . S
O231 C238 1.287 . S
O232 Fe221 1.996 . S
O232 C238 1.255 1_565 S
O233 Fe223 1.976 . S
O233 C228 1.287 1_565 S
O234 Fe220 1.996 . S
O234 C228 1.255 . S
C235 O239 1.295 . S
C235 O240 1.235 . S
O236 Fe221 1.976 . S
O236 C230 1.287 . S
O237 Fe223 1.996 . S
O237 C230 1.255 . S
C238 O231 1.287 . S
C238 O232 1.255 1_545 S
O239 Fe221 2.002 . S
O239 C235 1.295 . S
O240 Fe223 1.997 . S
O240 C235 1.235 . S
C241 O224 1.295 . S
C241 O225 1.235 1_565 S
Fe242 O244 1.918 . S
Fe242 O247 1.997 . S
Fe242 O248 2.002 . S
Fe242 O253 1.976 . S
Fe242 O256 1.996 . S
Fe243 O244 1.918 . S
Fe243 O251 1.997 . S
Fe243 O254 1.996 . S
Fe243 O258 1.976 . S
Fe243 O261 2.002 . S
O244 Fe242 1.918 . S
O244 Fe243 1.918 . S
O244 Fe245 1.918 . S
Fe245 O244 1.918 . S
Fe245 O246 2.002 . S
Fe245 O255 1.976 . S
Fe245 O259 1.996 . S
Fe245 O262 1.997 . S
O246 Fe245 2.002 . S
O246 C263 1.295 . S
O247 Fe242 1.997 . S
O247 C263 1.235 . S
O248 Fe242 2.002 . S
O248 C249 1.295 1_545 S
C249 O248 1.295 1_565 S
C249 O251 1.235 1_565 S
C250 O255 1.287 . S
C250 O256 1.255 . S
O251 Fe243 1.997 . S
O251 C249 1.235 1_545 S
C252 O258 1.287 . S
C252 O259 1.255 . S
O253 Fe242 1.976 . S
O253 C260 1.287 . S
O254 Fe243 1.996 . S
O254 C260 1.255 . S
O255 Fe245 1.976 . S
O255 C250 1.287 . S
O256 Fe242 1.996 . S
O256 C250 1.255 . S
C257 O261 1.295 . S
C257 O262 1.235 . S
O258 Fe243 1.976 . S
O258 C252 1.287 . S
O259 Fe245 1.996 . S
O259 C252 1.255 . S
C260 O253 1.287 . S
C260 O254 1.255 . S
O261 Fe243 2.002 . S
O261 C257 1.295 . S
O262 Fe245 1.997 . S
O262 C257 1.235 . S
C263 O246 1.295 . S
C263 O247 1.235 . S
Fe264 O266 1.918 . S
Fe264 O269 1.997 . S
Fe264 O270 2.002 . S
Fe264 O275 1.976 . S
Fe264 O278 1.996 . S
Fe265 O266 1.918 . S
Fe265 O273 1.997 . S
Fe265 O276 1.996 . S
Fe265 O280 1.976 . S
Fe265 O283 2.002 . S
O266 Fe264 1.918 . S
O266 Fe265 1.918 . S
O266 Fe267 1.918 1_565 S
Fe267 O266 1.918 1_545 S
Fe267 O268 2.002 . S
Fe267 O277 1.976 . S
Fe267 O281 1.996 . S
Fe267 O284 1.997 . S
O268 Fe267 2.002 . S
O268 C285 1.295 1_545 S
O269 Fe264 1.997 . S
O269 C285 1.235 . S
O270 Fe264 2.002 . S
O270 C271 1.295 . S
C271 O270 1.295 . S
C271 O273 1.235 . S
C272 O277 1.287 . S
C272 O278 1.255 1_545 S
O273 Fe265 1.997 . S
O273 C271 1.235 . S
C274 O280 1.287 1_545 S
C274 O281 1.255 . S
O275 Fe264 1.976 . S
O275 C282 1.287 . S
O276 Fe265 1.996 . S
O276 C282 1.255 . S
O277 Fe267 1.976 . S
O277 C272 1.287 . S
O278 Fe264 1.996 . S
O278 C272 1.255 1_565 S
C279 O283 1.295 . S
C279 O284 1.235 1_565 S
O280 Fe265 1.976 . S
O280 C274 1.287 1_565 S
O281 Fe267 1.996 . S
O281 C274 1.255 . S
C282 O275 1.287 . S
C282 O276 1.255 . S
O283 Fe265 2.002 . S
O283 C279 1.295 . S
O284 Fe267 1.997 . S
O284 C279 1.235 1_545 S
C285 O268 1.295 1_565 S
C285 O269 1.235 . S
Fe286 O288 1.918 1_554 S
Fe286 O291 1.997 . S
Fe286 O292 2.002 . S
Fe286 O297 1.976 . S
Fe286 O300 1.996 1_554 S
Fe287 O288 1.918 . S
Fe287 O295 1.997 1_556 S
Fe287 O298 1.996 . S
Fe287 O302 1.976 . S
Fe287 O305 2.002 . S
O288 Fe286 1.918 1_556 S
O288 Fe287 1.918 . S
O288 Fe289 1.918 . S
Fe289 O288 1.918 . S
Fe289 O290 2.002 . S
Fe289 O299 1.976 . S
Fe289 O303 1.996 . S
Fe289 O306 1.997 . S
O290 Fe289 2.002 . S
O290 C307 1.293 1_556 S
O291 Fe286 1.997 . S
O291 C307 1.236 . S
O292 Fe286 2.002 . S
O292 C293 1.295 . S
C293 O292 1.295 . S
C293 O295 1.235 . S
C294 O299 1.287 . S
C294 O300 1.255 . S
O295 Fe287 1.997 1_554 S
O295 C293 1.235 . S
C296 O302 1.287 . S
C296 O303 1.255 . S
O297 Fe286 1.976 . S
O297 C304 1.287 . S
O298 Fe287 1.996 . S
O298 C304 1.255 1_556 S
O299 Fe289 1.976 . S
O299 C294 1.287 . S
O300 Fe286 1.996 1_556 S
O300 C294 1.255 . S
C301 O305 1.295 1_565 S
C301 O306 1.235 1_565 S
O302 Fe287 1.976 . S
O302 C296 1.287 . S
O303 Fe289 1.996 . S
O303 C296 1.255 . S
C304 O297 1.287 . S
C304 O298 1.255 1_554 S
O305 Fe287 2.002 . S
O305 C301 1.295 1_545 S
O306 Fe289 1.997 . S
O306 C301 1.235 1_545 S
C307 O290 1.293 1_554 S
C307 O291 1.236 . S
Fe308 O310 1.918 1_565 S
Fe308 O313 1.997 . S
Fe308 O314 2.002 . S
Fe308 O319 1.976 . S
Fe308 O322 1.996 . S
Fe309 O310 1.918 . S
Fe309 O317 1.997 . S
Fe309 O320 1.996 . S
Fe309 O324 1.976 . S
Fe309 O327 2.002 . S
O310 Fe308 1.918 1_545 S
O310 Fe309 1.918 . S
O310 Fe311 1.918 . S
Fe311 O310 1.918 . S
Fe311 O312 2.002 . S
Fe311 O321 1.976 . S
Fe311 O325 1.996 . S
Fe311 O328 1.997 . S
O312 Fe311 2.002 . S
O312 C329 1.295 . S
O313 Fe308 1.997 . S
O313 C329 1.235 1_565 S
O314 Fe308 2.002 . S
O314 C315 1.295 1_565 S
C315 O314 1.295 1_545 S
C315 O317 1.235 . S
C316 O321 1.287 1_565 S
C316 O322 1.255 . S
O317 Fe309 1.997 . S
O317 C315 1.235 . S
C318 O324 1.287 . S
C318 O325 1.255 . S
O319 Fe308 1.976 . S
O319 C326 1.287 . S
O320 Fe309 1.996 . S
O320 C326 1.255 1_545 S
O321 Fe311 1.976 . S
O321 C316 1.287 1_545 S
O322 Fe308 1.996 . S
O322 C316 1.255 . S
C323 O327 1.295 . S
C323 O328 1.235 . S
O324 Fe309 1.976 . S
O324 C318 1.287 . S
O325 Fe311 1.996 . S
O325 C318 1.255 . S
C326 O319 1.287 . S
C326 O320 1.255 1_565 S
O327 Fe309 2.002 . S
O327 C323 1.295 . S
O328 Fe311 1.997 . S
O328 C323 1.235 . S
C329 O312 1.295 . S
C329 O313 1.235 1_545 S
Fe330 O332 1.918 . S
Fe330 O335 1.997 . S
Fe330 O336 2.002 . S
Fe330 O341 1.976 . S
Fe330 O344 1.996 . S
Fe331 O332 1.918 . S
Fe331 O339 1.997 . S
Fe331 O342 1.996 . S
Fe331 O346 1.976 . S
Fe331 O349 2.002 . S
O332 Fe330 1.918 . S
O332 Fe331 1.918 . S
O332 Fe333 1.918 . S
Fe333 O332 1.918 . S
Fe333 O334 2.002 . S
Fe333 O343 1.976 . S
Fe333 O347 1.996 . S
Fe333 O350 1.997 . S
O334 Fe333 2.002 . S
O334 C351 1.295 . S
O335 Fe330 1.997 . S
O335 C351 1.235 . S
O336 Fe330 2.002 . S
O336 C337 1.295 . S
C337 O336 1.295 . S
C337 O339 1.235 . S
C338 O343 1.287 . S
C338 O344 1.255 . S
O339 Fe331 1.997 . S
O339 C337 1.235 . S
C340 O346 1.287 . S
C340 O347 1.255 . S
O341 Fe330 1.976 . S
O341 C348 1.287 . S
O342 Fe331 1.996 . S
O342 C348 1.255 . S
O343 Fe333 1.976 . S
O343 C338 1.287 . S
O344 Fe330 1.996 . S
O344 C338 1.255 . S
C345 O349 1.295 1_545 S
C345 O350 1.235 1_545 S
O346 Fe331 1.976 . S
O346 C340 1.287 . S
O347 Fe333 1.996 . S
O347 C340 1.255 . S
C348 O341 1.287 . S
C348 O342 1.255 . S
O349 Fe331 2.002 . S
O349 C345 1.295 1_565 S
O350 Fe333 1.997 . S
O350 C345 1.235 1_565 S
C351 O334 1.295 . S
C351 O335 1.235 . S
H352 C360 0.950 . S
H353 C365 0.950 . S
H354 C362 0.950 . S
H355 C364 0.950 . S
H356 C366 0.950 . S
H357 C368 0.950 . S
H358 C370 0.950 . S
H359 C371 0.950 . S
C360 H352 0.950 . S
C360 C361 1.386 . S
C360 C362 1.391 . S
C361 C360 1.386 . S
C361 C365 1.393 . S
C362 H354 0.950 . S
C362 C360 1.391 . S
C362 C363 1.400 . S
C363 C362 1.400 . S
C363 C364 1.398 . S
C363 C369 1.491 . S
C364 H355 0.950 . S
C364 C363 1.398 . S
C364 C365 1.391 . S
C365 H353 0.950 . S
C365 C361 1.393 . S
C365 C364 1.391 . S
C366 H356 0.950 . S
C366 C367 1.386 . S
C366 C368 1.391 . S
C367 C366 1.386 . S
C367 C371 1.393 . S
C368 H357 0.950 . S
C368 C366 1.391 . S
C368 C369 1.400 . S
C369 C363 1.491 . S
C369 C368 1.400 . S
C369 C370 1.398 . S
C370 H358 0.950 . S
C370 C369 1.398 . S
C370 C371 1.391 . S
C371 H359 0.950 . S
C371 C367 1.393 . S
C371 C370 1.391 . S
H372 C380 0.950 . S
H373 C385 0.950 . S
H374 C382 0.950 . S
H375 C384 0.950 . S
H376 C386 0.950 . S
H377 C388 0.950 . S
H378 C390 0.950 . S
H379 C391 0.950 . S
C380 H372 0.950 . S
C380 C381 1.386 . S
C380 C382 1.391 . S
C381 C380 1.386 . S
C381 C385 1.393 . S
C382 H374 0.950 . S
C382 C380 1.391 . S
C382 C383 1.400 . S
C383 C382 1.400 . S
C383 C384 1.398 . S
C383 C389 1.491 . S
C384 H375 0.950 . S
C384 C383 1.398 . S
C384 C385 1.391 . S
C385 H373 0.950 . S
C385 C381 1.393 . S
C385 C384 1.391 . S
C386 H376 0.950 . S
C386 C387 1.386 . S
C386 C388 1.391 . S
C387 C386 1.386 . S
C387 C391 1.393 . S
C388 H377 0.950 . S
C388 C386 1.391 . S
C388 C389 1.400 . S
C389 C383 1.491 . S
C389 C388 1.400 . S
C389 C390 1.398 . S
C390 H378 0.950 . S
C390 C389 1.398 . S
C390 C391 1.391 . S
C391 H379 0.950 . S
C391 C387 1.393 . S
C391 C390 1.391 . S
H392 C400 0.950 . S
H393 C405 0.950 . S
H394 C402 0.950 . S
H395 C404 0.950 . S
H396 C406 0.950 . S
H397 C408 0.950 . S
H398 C410 0.950 . S
H399 C411 0.950 . S
C400 H392 0.950 . S
C400 C401 1.386 . S
C400 C402 1.391 . S
C401 C400 1.386 . S
C401 C405 1.393 . S
C402 H394 0.950 . S
C402 C400 1.391 . S
C402 C403 1.400 . S
C403 C402 1.400 . S
C403 C404 1.398 . S
C403 C409 1.491 . S
C404 H395 0.950 . S
C404 C403 1.398 . S
C404 C405 1.391 . S
C405 H393 0.950 . S
C405 C401 1.393 . S
C405 C404 1.391 . S
C406 H396 0.950 . S
C406 C407 1.386 . S
C406 C408 1.391 1_655 S
C407 C406 1.386 . S
C407 C411 1.393 . S
C408 H397 0.950 . S
C408 C406 1.391 1_455 S
C408 C409 1.400 . S
C409 C403 1.491 . S
C409 C408 1.400 . S
C409 C410 1.398 . S
C410 H398 0.950 . S
C410 C409 1.398 . S
C410 C411 1.391 1_455 S
C411 H399 0.950 . S
C411 C407 1.393 . S
C411 C410 1.391 1_655 S
H412 C420 0.950 . S
H413 C425 0.950 . S
H414 C422 0.950 . S
H415 C424 0.950 . S
H416 C426 0.950 . S
H417 C428 0.950 . S
H418 C430 0.950 1_556 S
H419 C431 0.950 1_556 S
C420 H412 0.950 . S
C420 C421 1.386 1_556 S
C420 C422 1.391 . S
C421 C420 1.386 1_554 S
C421 C425 1.393 . S
C422 H414 0.950 . S
C422 C420 1.391 . S
C422 C423 1.400 1_556 S
C423 C422 1.400 1_554 S
C423 C424 1.398 . S
C423 C429 1.491 . S
C424 H415 0.950 . S
C424 C423 1.398 . S
C424 C425 1.391 . S
C425 H413 0.950 . S
C425 C421 1.393 . S
C425 C424 1.391 . S
C426 H416 0.950 . S
C426 C427 1.386 . S
C426 C428 1.391 . S
C427 C426 1.386 . S
C427 C431 1.393 . S
C428 H417 0.950 . S
C428 C426 1.391 . S
C428 C429 1.400 . S
C429 C423 1.491 . S
C429 C428 1.400 . S
C429 C430 1.398 . S
C430 H418 0.950 1_554 S
C430 C429 1.398 . S
C430 C431 1.391 . S
C431 H419 0.950 1_554 S
C431 C427 1.393 . S
C431 C430 1.391 . S
H432 C440 0.950 . S
H433 C445 0.950 . S
H434 C442 0.950 . S
H435 C444 0.950 . S
H436 C446 0.950 . S
H437 C448 0.950 . S
H438 C450 0.950 . S
H439 C451 0.950 . S
C440 H432 0.950 . S
C440 C441 1.386 . S
C440 C442 1.391 . S
C441 C440 1.386 . S
C441 C445 1.393 . S
C442 H434 0.950 . S
C442 C440 1.391 . S
C442 C443 1.400 . S
C443 C442 1.400 . S
C443 C444 1.398 . S
C443 C449 1.491 . S
C444 H435 0.950 . S
C444 C443 1.398 . S
C444 C445 1.391 . S
C445 H433 0.950 . S
C445 C441 1.393 . S
C445 C444 1.391 . S
C446 H436 0.950 . S
C446 C447 1.386 . S
C446 C448 1.391 . S
C447 C446 1.386 . S
C447 C451 1.393 . S
C448 H437 0.950 . S
C448 C446 1.391 . S
C448 C449 1.400 . S
C449 C443 1.491 . S
C449 C448 1.400 . S
C449 C450 1.398 . S
C450 H438 0.950 . S
C450 C449 1.398 . S
C450 C451 1.391 . S
C451 H439 0.950 . S
C451 C447 1.393 . S
C451 C450 1.391 . S
H452 C460 0.950 . S
H453 C465 0.950 . S
H454 C462 0.950 . S
H455 C464 0.950 . S
H456 C466 0.950 . S
H457 C468 0.950 . S
H458 C470 0.950 . S
H459 C471 0.950 . S
C460 H452 0.950 . S
C460 C461 1.386 . S
C460 C462 1.391 . S
C461 C460 1.386 . S
C461 C465 1.393 . S
C462 H454 0.950 . S
C462 C460 1.391 . S
C462 C463 1.400 . S
C463 C462 1.400 . S
C463 C464 1.398 . S
C463 C469 1.491 . S
C464 H455 0.950 . S
C464 C463 1.398 . S
C464 C465 1.391 . S
C465 H453 0.950 . S
C465 C461 1.393 . S
C465 C464 1.391 . S
C466 H456 0.950 . S
C466 C467 1.386 . S
C466 C468 1.391 . S
C467 C466 1.386 . S
C467 C471 1.393 . S
C468 H457 0.950 . S
C468 C466 1.391 . S
C468 C469 1.400 . S
C469 C463 1.491 . S
C469 C468 1.400 . S
C469 C470 1.398 . S
C470 H458 0.950 . S
C470 C469 1.398 . S
C470 C471 1.391 . S
C471 H459 0.950 . S
C471 C467 1.393 . S
C471 C470 1.391 . S
H472 C480 0.950 . S
H473 C485 0.950 . S
H474 C482 0.950 . S
H475 C484 0.950 . S
H476 C486 0.950 . S
H477 C488 0.950 . S
H478 C490 0.950 . S
H479 C491 0.950 . S
C480 H472 0.950 . S
C480 C481 1.386 . S
C480 C482 1.391 . S
C481 C480 1.386 . S
C481 C485 1.393 . S
C482 H474 0.950 . S
C482 C480 1.391 . S
C482 C483 1.400 . S
C483 C482 1.400 . S
C483 C484 1.398 . S
C483 C489 1.491 . S
C484 H475 0.950 . S
C484 C483 1.398 . S
C484 C485 1.391 . S
C485 H473 0.950 . S
C485 C481 1.393 . S
C485 C484 1.391 . S
C486 H476 0.950 . S
C486 C487 1.386 . S
C486 C488 1.391 1_455 S
C487 C486 1.386 . S
C487 C491 1.393 . S
C488 H477 0.950 . S
C488 C486 1.391 1_655 S
C488 C489 1.400 . S
C489 C483 1.491 . S
C489 C488 1.400 . S
C489 C490 1.398 . S
C490 H478 0.950 . S
C490 C489 1.398 . S
C490 C491 1.391 1_655 S
C491 H479 0.950 . S
C491 C487 1.393 . S
C491 C490 1.391 1_455 S
H492 C500 0.950 . S
H493 C505 0.950 . S
H494 C502 0.950 . S
H495 C504 0.950 . S
H496 C506 0.938 1_554 S
H497 C508 0.950 . S
H498 C510 0.950 . S
H499 C511 0.950 . S
C500 H492 0.950 . S
C500 C501 1.386 . S
C500 C502 1.391 . S
C501 C500 1.386 . S
C501 C505 1.393 . S
C502 H494 0.950 . S
C502 C500 1.391 . S
C502 C503 1.400 . S
C503 C502 1.400 . S
C503 C504 1.398 . S
C503 C509 1.491 . S
C504 H495 0.950 . S
C504 C503 1.398 . S
C504 C505 1.391 . S
C505 H493 0.950 . S
C505 C501 1.393 . S
C505 C504 1.391 . S
C506 H496 0.938 1_556 S
C506 C507 1.386 . S
C506 C508 1.391 . S
C507 C506 1.386 . S
C507 C511 1.393 . S
C508 H497 0.950 . S
C508 C506 1.391 . S
C508 C509 1.400 . S
C509 C503 1.491 . S
C509 C508 1.400 . S
C509 C510 1.398 . S
C510 H498 0.950 . S
C510 C509 1.398 . S
C510 C511 1.391 . S
C511 H499 0.950 . S
C511 C507 1.393 . S
C511 C510 1.391 . S
H512 C520 0.950 . S
H513 C525 0.950 . S
H514 C522 0.950 . S
H515 C524 0.950 . S
H516 C526 0.950 . S
H517 C528 0.950 . S
H518 C530 0.950 . S
H519 C531 0.950 . S
C520 H512 0.950 . S
C520 C521 1.386 1_565 S
C520 C522 1.391 . S
C521 C520 1.386 1_545 S
C521 C525 1.393 . S
C522 H514 0.950 . S
C522 C520 1.391 . S
C522 C523 1.400 . S
C523 C522 1.400 . S
C523 C524 1.398 1_565 S
C523 C529 1.491 . S
C524 H515 0.950 . S
C524 C523 1.398 1_545 S
C524 C525 1.391 . S
C525 H513 0.950 . S
C525 C521 1.393 . S
C525 C524 1.391 . S
C526 H516 0.950 . S
C526 C527 1.386 1_545 S
C526 C528 1.391 1_455 S
C527 C526 1.386 1_565 S
C527 C531 1.393 . S
C528 H517 0.950 . S
C528 C526 1.391 1_655 S
C528 C529 1.400 1_545 S
C529 C523 1.491 . S
C529 C528 1.400 1_565 S
C529 C530 1.398 . S
C530 H518 0.950 . S
C530 C529 1.398 . S
C530 C531 1.391 1_655 S
C531 H519 0.950 . S
C531 C527 1.393 . S
C531 C530 1.391 1_455 S
H532 C540 0.950 1_556 S
H533 C545 0.950 . S
H534 C542 0.950 1_556 S
H535 C544 0.950 . S
H536 C546 0.950 . S
H537 C548 0.950 . S
H538 C550 0.950 . S
H539 C551 0.950 . S
C540 H532 0.950 1_554 S
C540 C541 1.386 . S
C540 C542 1.391 . S
C541 C540 1.386 . S
C541 C545 1.393 . S
C542 H534 0.950 1_554 S
C542 C540 1.391 . S
C542 C543 1.400 . S
C543 C542 1.400 . S
C543 C544 1.398 . S
C543 C549 1.491 . S
C544 H535 0.950 . S
C544 C543 1.398 . S
C544 C545 1.391 . S
C545 H533 0.950 . S
C545 C541 1.393 . S
C545 C544 1.391 . S
C546 H536 0.950 . S
C546 C547 1.386 . S
C546 C548 1.391 . S
C547 C546 1.386 . S
C547 C551 1.393 1_554 S
C548 H537 0.950 . S
C548 C546 1.391 . S
C548 C549 1.400 . S
C549 C543 1.491 . S
C549 C548 1.400 . S
C549 C550 1.398 1_554 S
C550 H538 0.950 . S
C550 C549 1.398 1_556 S
C550 C551 1.391 . S
C551 H539 0.950 . S
C551 C547 1.393 1_556 S
C551 C550 1.391 . S
H552 C560 0.950 . S
H553 C565 0.950 . S
H554 C562 0.950 . S
H555 C564 0.950 . S
H556 C566 0.950 . S
H557 C568 0.950 . S
H558 C570 0.950 . S
H559 C571 0.950 . S
C560 H552 0.950 . S
C560 C561 1.386 . S
C560 C562 1.391 . S
C561 C560 1.386 . S
C561 C565 1.393 1_545 S
C562 H554 0.950 . S
C562 C560 1.391 . S
C562 C563 1.400 . S
C563 C562 1.400 . S
C563 C564 1.398 1_545 S
C563 C569 1.491 . S
C564 H555 0.950 . S
C564 C563 1.398 1_565 S
C564 C565 1.391 . S
C565 H553 0.950 . S
C565 C561 1.393 1_565 S
C565 C564 1.391 . S
C566 H556 0.950 . S
C566 C567 1.386 . S
C566 C568 1.391 . S
C567 C566 1.386 . S
C567 C571 1.393 1_565 S
C568 H557 0.950 . S
C568 C566 1.391 . S
C568 C569 1.400 1_565 S
C569 C563 1.491 . S
C569 C568 1.400 1_545 S
C569 C570 1.398 . S
C570 H558 0.950 . S
C570 C569 1.398 . S
C570 C571 1.391 . S
C571 H559 0.950 . S
C571 C567 1.393 1_545 S
C571 C570 1.391 . S
H572 C580 0.950 . S
H573 C585 0.950 . S
H574 C582 0.950 . S
H575 C584 0.950 . S
H576 C586 0.950 . S
H577 C588 0.950 . S
H578 C590 0.950 . S
H579 C591 0.950 . S
C580 H572 0.950 . S
C580 C581 1.386 . S
C580 C582 1.391 . S
C581 C580 1.386 . S
C581 C585 1.393 . S
C582 H574 0.950 . S
C582 C580 1.391 . S
C582 C583 1.400 . S
C583 C582 1.400 . S
C583 C584 1.398 . S
C583 C589 1.491 . S
C584 H575 0.950 . S
C584 C583 1.398 . S
C584 C585 1.391 . S
C585 H573 0.950 . S
C585 C581 1.393 . S
C585 C584 1.391 . S
C586 H576 0.950 . S
C586 C587 1.386 . S
C586 C588 1.391 . S
C587 C586 1.386 . S
C587 C591 1.393 . S
C588 H577 0.950 . S
C588 C586 1.391 . S
C588 C589 1.400 . S
C589 C583 1.491 . S
C589 C588 1.400 . S
C589 C590 1.398 . S
C590 H578 0.950 . S
C590 C589 1.398 . S
C590 C591 1.391 . S
C591 H579 0.950 . S
C591 C587 1.393 . S
C591 C590 1.391 . S
H592 C600 0.950 . S
H593 C605 0.950 1_565 S
H594 C602 0.950 . S
H595 C604 0.950 . S
H596 C606 0.950 . S
H597 C608 0.950 . S
H598 C610 0.950 . S
H599 C611 0.950 . S
C600 H592 0.950 . S
C600 C601 1.386 . S
C600 C602 1.391 1_655 S
C601 C600 1.386 . S
C601 C605 1.393 . S
C602 H594 0.950 . S
C602 C600 1.391 1_455 S
C602 C603 1.400 . S
C603 C602 1.400 . S
C603 C604 1.398 1_545 S
C603 C609 1.491 . S
C604 H595 0.950 . S
C604 C603 1.398 1_565 S
C604 C605 1.391 1_465 S
C605 H593 0.950 1_545 S
C605 C601 1.393 . S
C605 C604 1.391 1_645 S
C606 H596 0.950 . S
C606 C607 1.386 . S
C606 C608 1.391 . S
C607 C606 1.386 . S
C607 C611 1.393 1_565 S
C608 H597 0.950 . S
C608 C606 1.391 . S
C608 C609 1.400 1_565 S
C609 C603 1.491 . S
C609 C608 1.400 1_545 S
C609 C610 1.398 . S
C610 H598 0.950 . S
C610 C609 1.398 . S
C610 C611 1.391 . S
C611 H599 0.950 . S
C611 C607 1.393 1_545 S
C611 C610 1.391 . S
H612 C620 0.937 1_554 S
H613 C625 0.950 . S
H614 C622 0.950 . S
H615 C624 0.950 . S
H616 C626 0.950 . S
H617 C628 0.950 . S
H618 C630 0.950 . S
H619 C631 0.950 . S
C620 H612 0.937 1_556 S
C620 C621 1.400 . S
C620 C622 1.389 1_556 S
C621 C620 1.400 . S
C621 C625 1.393 . S
C622 H614 0.950 . S
C622 C620 1.389 1_554 S
C622 C623 1.400 1_554 S
C623 C622 1.400 1_556 S
C623 C624 1.398 . S
C623 C629 1.491 . S
C624 H615 0.950 . S
C624 C623 1.398 . S
C624 C625 1.391 . S
C625 H613 0.950 . S
C625 C621 1.393 . S
C625 C624 1.391 . S
C626 H616 0.950 . S
C626 C627 1.386 . S
C626 C628 1.391 . S
C627 C626 1.386 . S
C627 C631 1.393 1_556 S
C628 H617 0.950 . S
C628 C626 1.391 . S
C628 C629 1.400 . S
C629 C623 1.491 . S
C629 C628 1.400 . S
C629 C630 1.398 1_556 S
C630 H618 0.950 . S
C630 C629 1.398 1_554 S
C630 C631 1.391 . S
C631 H619 0.950 . S
C631 C627 1.393 1_554 S
C631 C630 1.391 . S
H632 C640 0.950 . S
H633 C645 0.950 . S
H634 C642 0.950 . S
H635 C644 0.950 . S
H636 C646 0.950 . S
H637 C648 0.950 . S
H638 C650 0.950 . S
H639 C651 0.950 . S
C640 H632 0.950 . S
C640 C641 1.386 1_545 S
C640 C642 1.391 . S
C641 C640 1.386 1_565 S
C641 C645 1.393 . S
C642 H634 0.950 . S
C642 C640 1.391 . S
C642 C643 1.400 1_545 S
C643 C642 1.400 1_565 S
C643 C644 1.398 . S
C643 C649 1.491 . S
C644 H635 0.950 . S
C644 C643 1.398 . S
C644 C645 1.391 . S
C645 H633 0.950 . S
C645 C641 1.393 . S
C645 C644 1.391 . S
C646 H636 0.950 . S
C646 C647 1.386 1_565 S
C646 C648 1.391 . S
C647 C646 1.386 1_545 S
C647 C651 1.393 . S
C648 H637 0.950 . S
C648 C646 1.391 . S
C648 C649 1.400 . S
C649 C643 1.491 . S
C649 C648 1.400 . S
C649 C650 1.398 1_565 S
C650 H638 0.950 . S
C650 C649 1.398 1_545 S
C650 C651 1.391 . S
C651 H639 0.950 . S
C651 C647 1.393 . S
C651 C650 1.391 . S
H652 C660 0.950 . S
H653 C665 0.950 . S
H654 C662 0.950 . S
H655 C664 0.950 . S
H656 C666 0.950 . S
H657 C668 0.950 . S
H658 C670 0.950 . S
H659 C671 0.950 . S
C660 H652 0.950 . S
C660 C661 1.386 . S
C660 C662 1.391 . S
C661 C660 1.386 . S
C661 C665 1.393 . S
C662 H654 0.950 . S
C662 C660 1.391 . S
C662 C663 1.400 . S
C663 C662 1.400 . S
C663 C664 1.398 . S
C663 C669 1.491 . S
C664 H655 0.950 . S
C664 C663 1.398 . S
C664 C665 1.391 . S
C665 H653 0.950 . S
C665 C661 1.393 . S
C665 C664 1.391 . S
C666 H656 0.950 . S
C666 C667 1.386 . S
C666 C668 1.391 . S
C667 C666 1.386 . S
C667 C671 1.393 . S
C668 H657 0.950 . S
C668 C666 1.391 . S
C668 C669 1.400 . S
C669 C663 1.491 . S
C669 C668 1.400 . S
C669 C670 1.398 . S
C670 H658 0.950 . S
C670 C669 1.398 . S
C670 C671 1.391 . S
C671 H659 0.950 . S
C671 C667 1.393 . S
C671 C670 1.391 . S
H672 C680 0.950 . S
H673 C685 0.950 . S
H674 C682 0.950 . S
H675 C684 0.950 . S
H676 C686 0.950 . S
H677 C688 0.950 . S
H678 C690 0.950 . S
H679 C691 0.950 . S
C680 H672 0.950 . S
C680 C681 1.386 . S
C680 C682 1.391 . S
C681 C680 1.386 . S
C681 C685 1.393 . S
C682 H674 0.950 . S
C682 C680 1.391 . S
C682 C683 1.400 . S
C683 C682 1.400 . S
C683 C684 1.398 . S
C683 C689 1.491 . S
C684 H675 0.950 . S
C684 C683 1.398 . S
C684 C685 1.391 . S
C685 H673 0.950 . S
C685 C681 1.393 . S
C685 C684 1.391 . S
C686 H676 0.950 . S
C686 C687 1.386 . S
C686 C688 1.391 . S
C687 C686 1.386 . S
C687 C691 1.393 . S
C688 H677 0.950 . S
C688 C686 1.391 . S
C688 C689 1.400 . S
C689 C683 1.491 . S
C689 C688 1.400 . S
C689 C690 1.398 . S
C690 H678 0.950 . S
C690 C689 1.398 . S
C690 C691 1.391 . S
C691 H679 0.950 . S
C691 C687 1.393 . S
C691 C690 1.391 . S
H692 C700 0.950 . S
H693 C705 0.950 . S
H694 C702 0.950 . S
H695 C704 0.950 . S
H696 C706 0.950 . S
H697 C708 0.950 . S
H698 C710 0.950 . S
H699 C711 0.950 . S
C700 H692 0.950 . S
C700 C701 1.386 . S
C700 C702 1.391 . S
C701 C700 1.386 . S
C701 C705 1.393 . S
C702 H694 0.950 . S
C702 C700 1.391 . S
C702 C703 1.400 . S
C703 C702 1.400 . S
C703 C704 1.398 . S
C703 C709 1.491 1_455 S
C704 H695 0.950 . S
C704 C703 1.398 . S
C704 C705 1.391 . S
C705 H693 0.950 . S
C705 C701 1.393 . S
C705 C704 1.391 . S
C706 H696 0.950 . S
C706 C707 1.386 . S
C706 C708 1.391 . S
C707 C706 1.386 . S
C707 C711 1.393 . S
C708 H697 0.950 . S
C708 C706 1.391 . S
C708 C709 1.400 . S
C709 C703 1.491 1_655 S
C709 C708 1.400 . S
C709 C710 1.398 . S
C710 H698 0.950 . S
C710 C709 1.398 . S
C710 C711 1.391 . S
C711 H699 0.950 . S
C711 C707 1.393 . S
C711 C710 1.391 . S
H712 C720 0.950 . S
H713 C725 0.950 . S
H714 C722 0.950 . S
H715 C724 0.950 . S
H716 C726 0.950 . S
H717 C728 0.950 . S
H718 C730 0.950 . S
H719 C731 0.950 . S
C720 H712 0.950 . S
C720 C721 1.386 . S
C720 C722 1.391 . S
C721 C720 1.386 . S
C721 C725 1.393 . S
C722 H714 0.950 . S
C722 C720 1.391 . S
C722 C723 1.400 . S
C723 C722 1.400 . S
C723 C724 1.398 . S
C723 C729 1.491 . S
C724 H715 0.950 . S
C724 C723 1.398 . S
C724 C725 1.391 . S
C725 H713 0.950 . S
C725 C721 1.393 . S
C725 C724 1.391 . S
C726 H716 0.950 . S
C726 C727 1.386 . S
C726 C728 1.391 . S
C727 C726 1.386 . S
C727 C731 1.393 . S
C728 H717 0.950 . S
C728 C726 1.391 . S
C728 C729 1.400 . S
C729 C723 1.491 . S
C729 C728 1.400 . S
C729 C730 1.398 . S
C730 H718 0.950 . S
C730 C729 1.398 . S
C730 C731 1.391 . S
C731 H719 0.950 . S
C731 C727 1.393 . S
C731 C730 1.391 . S
H732 C740 0.950 . S
H733 C745 0.950 . S
H734 C742 0.950 . S
H735 C744 0.950 . S
H736 C746 0.950 . S
H737 C748 0.950 . S
H738 C750 0.950 . S
H739 C751 0.950 . S
C740 H732 0.950 . S
C740 C741 1.386 . S
C740 C742 1.391 . S
C741 C740 1.386 . S
C741 C745 1.393 1_554 S
C742 H734 0.950 . S
C742 C740 1.391 . S
C742 C743 1.400 . S
C743 C742 1.400 . S
C743 C744 1.398 1_554 S
C743 C749 1.491 1_554 S
C744 H735 0.950 . S
C744 C743 1.398 1_556 S
C744 C745 1.391 . S
C745 H733 0.950 . S
C745 C741 1.393 1_556 S
C745 C744 1.391 . S
C746 H736 0.950 . S
C746 C747 1.386 . S
C746 C748 1.391 . S
C747 C746 1.386 . S
C747 C751 1.393 1_556 S
C748 H737 0.950 . S
C748 C746 1.391 . S
C748 C749 1.400 . S
C749 C743 1.491 1_556 S
C749 C748 1.400 . S
C749 C750 1.398 1_556 S
C750 H738 0.950 . S
C750 C749 1.398 1_554 S
C750 C751 1.391 . S
C751 H739 0.950 . S
C751 C747 1.393 1_554 S
C751 C750 1.391 . S
H752 C760 0.950 . S
H753 C765 0.950 . S
H754 C762 0.950 . S
H755 C764 0.950 . S
H756 C766 0.950 . S
H757 C768 0.950 . S
H758 C770 0.950 . S
H759 C771 0.950 . S
C760 H752 0.950 . S
C760 C761 1.386 . S
C760 C762 1.391 . S
C761 C760 1.386 . S
C761 C765 1.393 . S
C762 H754 0.950 . S
C762 C760 1.391 . S
C762 C763 1.400 . S
C763 C762 1.400 . S
C763 C764 1.398 . S
C763 C769 1.491 . S
C764 H755 0.950 . S
C764 C763 1.398 . S
C764 C765 1.391 . S
C765 H753 0.950 . S
C765 C761 1.393 . S
C765 C764 1.391 . S
C766 H756 0.950 . S
C766 C767 1.386 . S
C766 C768 1.391 . S
C767 C766 1.386 . S
C767 C771 1.393 . S
C768 H757 0.950 . S
C768 C766 1.391 . S
C768 C769 1.400 . S
C769 C763 1.491 . S
C769 C768 1.400 . S
C769 C770 1.398 . S
C770 H758 0.950 . S
C770 C769 1.398 . S
C770 C771 1.391 . S
C771 H759 0.950 . S
C771 C767 1.393 . S
C771 C770 1.391 . S
H772 C780 0.950 . S
H773 C785 0.950 . S
H774 C782 0.950 . S
H775 C784 0.950 . S
H776 C786 0.950 . S
H777 C788 0.950 . S
H778 C790 0.950 . S
H779 C791 0.950 . S
C780 H772 0.950 . S
C780 C781 1.386 . S
C780 C782 1.391 . S
C781 C780 1.386 . S
C781 C785 1.393 . S
C782 H774 0.950 . S
C782 C780 1.391 . S
C782 C783 1.400 . S
C783 C782 1.400 . S
C783 C784 1.398 . S
C783 C789 1.491 . S
C784 H775 0.950 . S
C784 C783 1.398 . S
C784 C785 1.391 . S
C785 H773 0.950 . S
C785 C781 1.393 . S
C785 C784 1.391 . S
C786 H776 0.950 . S
C786 C787 1.386 . S
C786 C788 1.391 . S
C787 C786 1.386 . S
C787 C791 1.393 . S
C788 H777 0.950 . S
C788 C786 1.391 . S
C788 C789 1.400 . S
C789 C783 1.491 . S
C789 C788 1.400 . S
C789 C790 1.398 . S
C790 H778 0.950 . S
C790 C789 1.398 . S
C790 C791 1.391 . S
C791 H779 0.950 . S
C791 C787 1.393 . S
C791 C790 1.391 . S
H792 C800 0.950 1_545 S
H793 C805 0.950 . S
H794 C802 0.950 . S
H795 C804 0.950 . S
H796 C806 0.950 1_565 S
H797 C808 0.950 . S
H798 C810 0.950 . S
H799 C811 0.950 . S
C800 H792 0.950 1_565 S
C800 C801 1.386 1_554 S
C800 C802 1.391 1_565 S
C801 C800 1.386 1_556 S
C801 C805 1.393 . S
C802 H794 0.950 . S
C802 C800 1.391 1_545 S
C802 C803 1.400 1_544 S
C803 C802 1.400 1_566 S
C803 C804 1.398 . S
C803 C809 1.491 1_566 S
C804 H795 0.950 . S
C804 C803 1.398 . S
C804 C805 1.391 . S
C805 H793 0.950 . S
C805 C801 1.393 . S
C805 C804 1.391 . S
C806 H796 0.950 1_545 S
C806 C807 1.386 1_556 S
C806 C808 1.391 1_545 S
C807 C806 1.386 1_554 S
C807 C811 1.393 . S
C808 H797 0.950 . S
C808 C806 1.391 1_565 S
C808 C809 1.400 1_566 S
C809 C803 1.491 1_544 S
C809 C808 1.400 1_544 S
C809 C810 1.398 . S
C810 H798 0.950 . S
C810 C809 1.398 . S
C810 C811 1.391 . S
C811 H799 0.950 . S
C811 C807 1.393 . S
C811 C810 1.391 . S
H812 C820 0.950 . S
H813 C825 0.950 . S
H814 C822 0.950 . S
H815 C824 0.950 1_545 S
H816 C826 0.950 . S
H817 C828 0.950 . S
H818 C830 0.950 1_565 S
H819 C831 0.950 . S
C820 H812 0.950 . S
C820 C821 1.386 . S
C820 C822 1.391 . S
C821 C820 1.386 . S
C821 C825 1.393 . S
C822 H814 0.950 . S
C822 C820 1.391 . S
C822 C823 1.400 . S
C823 C822 1.400 . S
C823 C824 1.398 . S
C823 C829 1.491 1_465 S
C824 H815 0.950 1_565 S
C824 C823 1.398 . S
C824 C825 1.391 . S
C825 H813 0.950 . S
C825 C821 1.393 . S
C825 C824 1.391 . S
C826 H816 0.950 . S
C826 C827 1.386 . S
C826 C828 1.391 . S
C827 C826 1.386 . S
C827 C831 1.393 . S
C828 H817 0.950 . S
C828 C826 1.391 . S
C828 C829 1.400 . S
C829 C823 1.491 1_645 S
C829 C828 1.400 . S
C829 C830 1.398 . S
C830 H818 0.950 1_545 S
C830 C829 1.398 . S
C830 C831 1.391 . S
C831 H819 0.950 . S
C831 C827 1.393 . S
C831 C830 1.391 . S
H832 C840 0.950 . S
H833 C845 0.950 . S
H834 C842 0.950 . S
H835 C844 0.950 . S
H836 C846 0.950 . S
H837 C848 0.950 . S
H838 C850 0.950 . S
H839 C851 0.950 . S
C840 H832 0.950 . S
C840 C841 1.386 . S
C840 C842 1.391 . S
C841 C840 1.386 . S
C841 C845 1.393 . S
C842 H834 0.950 . S
C842 C840 1.391 . S
C842 C843 1.400 . S
C843 C842 1.400 . S
C843 C844 1.398 . S
C843 C849 1.491 . S
C844 H835 0.950 . S
C844 C843 1.398 . S
C844 C845 1.391 . S
C845 H833 0.950 . S
C845 C841 1.393 . S
C845 C844 1.391 . S
C846 H836 0.950 . S
C846 C847 1.386 . S
C846 C848 1.391 . S
C847 C846 1.386 . S
C847 C851 1.393 . S
C848 H837 0.950 . S
C848 C846 1.391 . S
C848 C849 1.400 . S
C849 C843 1.491 . S
C849 C848 1.400 . S
C849 C850 1.398 . S
C850 H838 0.950 . S
C850 C849 1.398 . S
C850 C851 1.391 . S
C851 H839 0.950 . S
C851 C847 1.393 . S
C851 C850 1.391 . S
H852 C860 0.950 . S
H853 C865 0.950 . S
H854 C862 0.950 . S
H855 C864 0.950 . S
H856 C866 0.950 . S
H857 C868 0.950 . S
H858 C870 0.950 . S
H859 C871 0.950 . S
C860 H852 0.950 . S
C860 C861 1.386 . S
C860 C862 1.391 . S
C861 C860 1.386 . S
C861 C865 1.393 . S
C862 H854 0.950 . S
C862 C860 1.391 . S
C862 C863 1.400 . S
C863 C862 1.400 . S
C863 C864 1.398 . S
C863 C869 1.491 . S
C864 H855 0.950 . S
C864 C863 1.398 . S
C864 C865 1.391 . S
C865 H853 0.950 . S
C865 C861 1.393 . S
C865 C864 1.391 . S
C866 H856 0.950 . S
C866 C867 1.386 . S
C866 C868 1.391 . S
C867 C866 1.386 . S
C867 C871 1.393 . S
C868 H857 0.950 . S
C868 C866 1.391 . S
C868 C869 1.400 . S
C869 C863 1.491 . S
C869 C868 1.400 . S
C869 C870 1.398 . S
C870 H858 0.950 . S
C870 C869 1.398 . S
C870 C871 1.391 . S
C871 H859 0.950 . S
C871 C867 1.393 . S
C871 C870 1.391 . S
H872 C880 0.950 . S
H873 C885 0.950 . S
H874 C882 0.950 . S
H875 C884 0.950 . S
H876 C886 0.950 . S
H877 C888 0.950 . S
H878 C890 0.950 . S
H879 C891 0.950 . S
C880 H872 0.950 . S
C880 C881 1.386 . S
C880 C882 1.391 . S
C881 C880 1.386 . S
C881 C885 1.393 . S
C882 H874 0.950 . S
C882 C880 1.391 . S
C882 C883 1.400 . S
C883 C882 1.400 . S
C883 C884 1.398 . S
C883 C889 1.491 . S
C884 H875 0.950 . S
C884 C883 1.398 . S
C884 C885 1.391 . S
C885 H873 0.950 . S
C885 C881 1.393 . S
C885 C884 1.391 . S
C886 H876 0.950 . S
C886 C887 1.386 . S
C886 C888 1.391 . S
C887 C886 1.386 . S
C887 C891 1.393 . S
C888 H877 0.950 . S
C888 C886 1.391 . S
C888 C889 1.400 . S
C889 C883 1.491 . S
C889 C888 1.400 . S
C889 C890 1.398 . S
C890 H878 0.950 . S
C890 C889 1.398 . S
C890 C891 1.391 . S
C891 H879 0.950 . S
C891 C887 1.393 . S
C891 C890 1.391 . S
H892 C900 0.950 . S
H893 C905 0.950 . S
H894 C902 0.950 . S
H895 C904 0.950 . S
H896 C906 0.950 . S
H897 C908 0.950 . S
H898 C910 0.950 . S
H899 C911 0.950 . S
C900 H892 0.950 . S
C900 C901 1.386 . S
C900 C902 1.391 . S
C901 C900 1.386 . S
C901 C905 1.393 . S
C902 H894 0.950 . S
C902 C900 1.391 . S
C902 C903 1.400 . S
C903 C902 1.400 . S
C903 C904 1.398 . S
C903 C909 1.491 . S
C904 H895 0.950 . S
C904 C903 1.398 . S
C904 C905 1.391 . S
C905 H893 0.950 . S
C905 C901 1.393 . S
C905 C904 1.391 . S
C906 H896 0.950 . S
C906 C907 1.386 . S
C906 C908 1.391 . S
C907 C906 1.386 . S
C907 C911 1.393 . S
C908 H897 0.950 . S
C908 C906 1.391 . S
C908 C909 1.400 . S
C909 C903 1.491 . S
C909 C908 1.400 . S
C909 C910 1.398 . S
C910 H898 0.950 . S
C910 C909 1.398 . S
C910 C911 1.391 . S
C911 H899 0.950 . S
C911 C907 1.393 . S
C911 C910 1.391 . S
H912 C920 0.950 . S
H913 C925 0.950 . S
H914 C922 0.950 . S
H915 C924 0.950 . S
H916 C926 0.950 . S
H917 C928 0.950 . S
H918 C930 0.950 . S
H919 C931 0.950 . S
C920 H912 0.950 . S
C920 C921 1.386 . S
C920 C922 1.391 . S
C921 C920 1.386 . S
C921 C925 1.393 . S
C922 H914 0.950 . S
C922 C920 1.391 . S
C922 C923 1.400 . S
C923 C922 1.400 . S
C923 C924 1.398 . S
C923 C929 1.491 . S
C924 H915 0.950 . S
C924 C923 1.398 . S
C924 C925 1.391 . S
C925 H913 0.950 . S
C925 C921 1.393 . S
C925 C924 1.391 . S
C926 H916 0.950 . S
C926 C927 1.386 . S
C926 C928 1.391 . S
C927 C926 1.386 . S
C927 C931 1.393 . S
C928 H917 0.950 . S
C928 C926 1.391 . S
C928 C929 1.400 . S
C929 C923 1.491 . S
C929 C928 1.400 . S
C929 C930 1.398 . S
C930 H918 0.950 . S
C930 C929 1.398 . S
C930 C931 1.391 . S
C931 H919 0.950 . S
C931 C927 1.393 . S
C931 C930 1.391 . S
H932 C940 0.950 . S
H933 C945 0.950 . S
H934 C942 0.950 . S
H935 C944 0.950 . S
H936 C946 0.950 . S
H937 C948 0.950 . S
H938 C950 0.950 . S
H939 C951 0.950 . S
C940 H932 0.950 . S
C940 C941 1.386 . S
C940 C942 1.391 . S
C941 C940 1.386 . S
C941 C945 1.393 . S
C942 H934 0.950 . S
C942 C940 1.391 . S
C942 C943 1.400 . S
C943 C942 1.400 . S
C943 C944 1.398 . S
C943 C949 1.491 . S
C944 H935 0.950 . S
C944 C943 1.398 . S
C944 C945 1.391 . S
C945 H933 0.950 . S
C945 C941 1.393 . S
C945 C944 1.391 . S
C946 H936 0.950 . S
C946 C947 1.386 . S
C946 C948 1.391 . S
C947 C946 1.386 . S
C947 C951 1.393 . S
C948 H937 0.950 . S
C948 C946 1.391 . S
C948 C949 1.400 . S
C949 C943 1.491 . S
C949 C948 1.400 . S
C949 C950 1.398 . S
C950 H938 0.950 . S
C950 C949 1.398 . S
C950 C951 1.391 . S
C951 H939 0.950 . S
C951 C947 1.393 . S
C951 C950 1.391 . S
H952 C960 0.950 . S
H953 C965 0.950 . S
H954 C962 0.950 . S
H955 C964 0.950 . S
H956 C966 0.950 . S
H957 C968 0.950 . S
H958 C970 0.950 . S
H959 C971 0.950 . S
C960 H952 0.950 . S
C960 C961 1.386 . S
C960 C962 1.391 . S
C961 C960 1.386 . S
C961 C965 1.393 . S
C962 H954 0.950 . S
C962 C960 1.391 . S
C962 C963 1.400 . S
C963 C962 1.400 . S
C963 C964 1.398 . S
C963 C969 1.491 . S
C964 H955 0.950 . S
C964 C963 1.398 . S
C964 C965 1.391 . S
C965 H953 0.950 . S
C965 C961 1.393 . S
C965 C964 1.391 . S
C966 H956 0.950 . S
C966 C967 1.386 . S
C966 C968 1.391 . S
C967 C966 1.386 . S
C967 C971 1.393 . S
C968 H957 0.950 . S
C968 C966 1.391 . S
C968 C969 1.400 . S
C969 C963 1.491 . S
C969 C968 1.400 . S
C969 C970 1.398 . S
C970 H958 0.950 . S
C970 C969 1.398 . S
C970 C971 1.391 . S
C971 H959 0.950 . S
C971 C967 1.393 . S
C971 C970 1.391 . S
H972 C980 0.950 . S
H973 C985 0.950 . S
H974 C982 0.950 . S
H975 C984 0.950 . S
H976 C986 0.950 . S
H977 C988 0.950 . S
H978 C990 0.950 . S
H979 C991 0.950 . S
C980 H972 0.950 . S
C980 C981 1.386 . S
C980 C982 1.391 . S
C981 C980 1.386 . S
C981 C985 1.393 . S
C982 H974 0.950 . S
C982 C980 1.391 . S
C982 C983 1.400 . S
C983 C982 1.400 . S
C983 C984 1.398 . S
C983 C989 1.491 . S
C984 H975 0.950 . S
C984 C983 1.398 . S
C984 C985 1.391 . S
C985 H973 0.950 . S
C985 C981 1.393 . S
C985 C984 1.391 . S
C986 H976 0.950 . S
C986 C987 1.386 . S
C986 C988 1.391 . S
C987 C986 1.386 . S
C987 C991 1.393 . S
C988 H977 0.950 . S
C988 C986 1.391 . S
C988 C989 1.400 . S
C989 C983 1.491 . S
C989 C988 1.400 . S
C989 C990 1.398 . S
C990 H978 0.950 . S
C990 C989 1.398 . S
C990 C991 1.391 . S
C991 H979 0.950 . S
C991 C987 1.393 . S
C991 C990 1.391 . S
H992 C1000 0.950 . S
H993 C1005 0.958 . S
H994 C1002 0.950 . S
H995 C1004 0.950 . S
H996 C1006 0.950 . S
H997 C1008 0.950 . S
H998 C1010 0.950 . S
H999 C1011 0.950 . S
C1000 H992 0.950 . S
C1000 C1001 1.386 . S
C1000 C1002 1.391 . S
C1001 C1000 1.386 . S
C1001 C1005 1.393 . S
C1002 H994 0.950 . S
C1002 C1000 1.391 . S
C1002 C1003 1.400 . S
C1003 C1002 1.400 . S
C1003 C1004 1.398 . S
C1003 C1009 1.491 . S
C1004 H995 0.950 . S
C1004 C1003 1.398 . S
C1004 C1005 1.391 . S
C1005 H993 0.958 . S
C1005 C1001 1.393 . S
C1005 C1004 1.391 . S
C1006 H996 0.950 . S
C1006 C1007 1.386 . S
C1006 C1008 1.391 . S
C1007 C1006 1.386 . S
C1007 C1011 1.393 . S
C1008 H997 0.950 . S
C1008 C1006 1.391 . S
C1008 C1009 1.400 . S
C1009 C1003 1.491 . S
C1009 C1008 1.400 . S
C1009 C1010 1.398 . S
C1010 H998 0.950 . S
C1010 C1009 1.398 . S
C1010 C1011 1.391 . S
C1011 H999 0.950 . S
C1011 C1007 1.393 . S
C1011 C1010 1.391 . S
H1012 C1020 0.950 . S
H1013 C1025 0.950 . S
H1014 C1022 0.950 . S
H1015 C1024 0.950 . S
H1016 C1026 0.945 1_545 S
H1017 C1028 0.950 . S
H1018 C1030 0.950 . S
H1019 C1031 0.950 . S
C1020 H1012 0.950 . S
C1020 C1021 1.386 . S
C1020 C1022 1.391 . S
C1021 C1020 1.386 . S
C1021 C1025 1.393 . S
C1022 H1014 0.950 . S
C1022 C1020 1.391 . S
C1022 C1023 1.400 . S
C1023 C1022 1.400 . S
C1023 C1024 1.398 . S
C1023 C1029 1.491 . S
C1024 H1015 0.950 . S
C1024 C1023 1.398 . S
C1024 C1025 1.391 . S
C1025 H1013 0.950 . S
C1025 C1021 1.393 . S
C1025 C1024 1.391 . S
C1026 H1016 0.945 1_565 S
C1026 C1027 1.386 . S
C1026 C1028 1.391 . S
C1027 C1026 1.386 . S
C1027 C1031 1.393 . S
C1028 H1017 0.950 . S
C1028 C1026 1.391 . S
C1028 C1029 1.400 . S
C1029 C1023 1.491 . S
C1029 C1028 1.400 . S
C1029 C1030 1.398 . S
C1030 H1018 0.950 . S
C1030 C1029 1.398 . S
C1030 C1031 1.391 . S
C1031 H1019 0.950 . S
C1031 C1027 1.393 . S
C1031 C1030 1.391 . S
H1032 C1040 0.950 . S
H1033 C1045 0.950 . S
H1034 C1042 0.950 . S
H1035 C1044 0.950 . S
H1036 C1046 0.950 . S
H1037 C1048 0.950 . S
H1038 C1050 0.950 . S
H1039 C1051 0.950 . S
C1040 H1032 0.950 . S
C1040 C1041 1.386 . S
C1040 C1042 1.391 . S
C1041 C1040 1.386 . S
C1041 C1045 1.393 . S
C1042 H1034 0.950 . S
C1042 C1040 1.391 . S
C1042 C1043 1.400 . S
C1043 C1042 1.400 . S
C1043 C1044 1.398 . S
C1043 C1049 1.491 . S
C1044 H1035 0.950 . S
C1044 C1043 1.398 . S
C1044 C1045 1.391 . S
C1045 H1033 0.950 . S
C1045 C1041 1.393 . S
C1045 C1044 1.391 . S
C1046 H1036 0.950 . S
C1046 C1047 1.386 . S
C1046 C1048 1.391 . S
C1047 C1046 1.386 . S
C1047 C1051 1.393 . S
C1048 H1037 0.950 . S
C1048 C1046 1.391 . S
C1048 C1049 1.400 . S
C1049 C1043 1.491 . S
C1049 C1048 1.400 . S
C1049 C1050 1.398 . S
C1050 H1038 0.950 . S
C1050 C1049 1.398 . S
C1050 C1051 1.391 . S
C1051 H1039 0.950 . S
C1051 C1047 1.393 . S
C1051 C1050 1.391 . S
H1052 C1060 0.950 . S
H1053 C1065 0.950 . S
H1054 C1062 0.950 . S
H1055 C1064 0.950 . S
H1056 C1066 0.950 1_565 S
H1057 C1068 0.950 . S
H1058 C1070 0.950 . S
H1059 C1071 0.950 . S
C1060 H1052 0.950 . S
C1060 C1061 1.386 . S
C1060 C1062 1.391 . S
C1061 C1060 1.386 . S
C1061 C1065 1.393 . S
C1062 H1054 0.950 . S
C1062 C1060 1.391 . S
C1062 C1063 1.400 . S
C1063 C1062 1.400 . S
C1063 C1064 1.398 . S
C1063 C1069 1.491 . S
C1064 H1055 0.950 . S
C1064 C1063 1.398 . S
C1064 C1065 1.391 . S
C1065 H1053 0.950 . S
C1065 C1061 1.393 . S
C1065 C1064 1.391 . S
C1066 H1056 0.950 1_545 S
C1066 C1067 1.386 . S
C1066 C1068 1.391 . S
C1067 C1066 1.386 . S
C1067 C1071 1.393 . S
C1068 H1057 0.950 . S
C1068 C1066 1.391 . S
C1068 C1069 1.400 . S
C1069 C1063 1.491 . S
C1069 C1068 1.400 . S
C1069 C1070 1.398 . S
C1070 H1058 0.950 . S
C1070 C1069 1.398 . S
C1070 C1071 1.391 . S
C1071 H1059 0.950 . S
C1071 C1067 1.393 . S
C1071 C1070 1.391 . S
H1072 C1080 0.950 . S
H1073 C1085 0.950 . S
H1074 C1082 0.950 1_565 S
H1075 C1084 0.950 . S
H1076 C1086 0.950 . S
H1077 C1088 0.950 . S
H1078 C1090 0.950 . S
H1079 C1091 0.950 . S
C1080 H1072 0.950 . S
C1080 C1081 1.386 . S
C1080 C1082 1.391 . S
C1081 C1080 1.386 . S
C1081 C1085 1.393 . S
C1082 H1074 0.950 1_545 S
C1082 C1080 1.391 . S
C1082 C1083 1.400 . S
C1083 C1082 1.400 . S
C1083 C1084 1.398 . S
C1083 C1089 1.491 . S
C1084 H1075 0.950 . S
C1084 C1083 1.398 . S
C1084 C1085 1.391 . S
C1085 H1073 0.950 . S
C1085 C1081 1.393 . S
C1085 C1084 1.391 . S
C1086 H1076 0.950 . S
C1086 C1087 1.386 . S
C1086 C1088 1.391 . S
C1087 C1086 1.386 . S
C1087 C1091 1.393 1_545 S
C1088 H1077 0.950 . S
C1088 C1086 1.391 . S
C1088 C1089 1.400 . S
C1089 C1083 1.491 . S
C1089 C1088 1.400 . S
C1089 C1090 1.398 1_545 S
C1090 H1078 0.950 . S
C1090 C1089 1.398 1_565 S
C1090 C1091 1.391 . S
C1091 H1079 0.950 . S
C1091 C1087 1.393 1_565 S
C1091 C1090 1.391 . S
H1092 C1100 0.950 . S
H1093 C1105 0.950 . S
H1094 C1102 0.950 . S
H1095 C1104 0.950 . S
H1096 C1106 0.950 . S
H1097 C1108 0.950 . S
H1098 C1110 0.950 1_565 S
H1099 C1111 0.950 . S
C1100 H1092 0.950 . S
C1100 C1101 1.386 . S
C1100 C1102 1.391 . S
C1101 C1100 1.386 . S
C1101 C1105 1.393 . S
C1102 H1094 0.950 . S
C1102 C1100 1.391 . S
C1102 C1103 1.400 . S
C1103 C1102 1.400 . S
C1103 C1104 1.398 . S
C1103 C1109 1.491 . S
C1104 H1095 0.950 . S
C1104 C1103 1.398 . S
C1104 C1105 1.391 . S
C1105 H1093 0.950 . S
C1105 C1101 1.393 . S
C1105 C1104 1.391 . S
C1106 H1096 0.950 . S
C1106 C1107 1.386 . S
C1106 C1108 1.391 . S
C1107 C1106 1.386 . S
C1107 C1111 1.393 1_545 S
C1108 H1097 0.950 . S
C1108 C1106 1.391 . S
C1108 C1109 1.400 . S
C1109 C1103 1.491 . S
C1109 C1108 1.400 . S
C1109 C1110 1.398 . S
C1110 H1098 0.950 1_545 S
C1110 C1109 1.398 . S
C1110 C1111 1.391 1_545 S
C1111 H1099 0.950 . S
C1111 C1107 1.393 1_565 S
C1111 C1110 1.391 1_565 S
H1112 C1120 0.950 . S
H1113 C1125 0.950 . S
H1114 C1122 0.950 . S
H1115 C1124 0.950 . S
H1116 C1126 0.950 . S
H1117 C1128 0.950 . S
H1118 C1130 0.950 1_545 S
H1119 C1131 0.950 1_545 S
C1120 H1112 0.950 . S
C1120 C1121 1.386 1_545 S
C1120 C1122 1.391 . S
C1121 C1120 1.386 1_565 S
C1121 C1125 1.393 . S
C1122 H1114 0.950 . S
C1122 C1120 1.391 . S
C1122 C1123 1.400 1_545 S
C1123 C1122 1.400 1_565 S
C1123 C1124 1.398 . S
C1123 C1129 1.491 . S
C1124 H1115 0.950 . S
C1124 C1123 1.398 . S
C1124 C1125 1.391 . S
C1125 H1113 0.950 . S
C1125 C1121 1.393 . S
C1125 C1124 1.391 . S
C1126 H1116 0.950 . S
C1126 C1127 1.386 . S
C1126 C1128 1.391 . S
C1127 C1126 1.386 . S
C1127 C1131 1.393 . S
C1128 H1117 0.950 . S
C1128 C1126 1.391 . S
C1128 C1129 1.400 . S
C1129 C1123 1.491 . S
C1129 C1128 1.400 . S
C1129 C1130 1.398 . S
C1130 H1118 0.950 1_565 S
C1130 C1129 1.398 . S
C1130 C1131 1.391 . S
C1131 H1119 0.950 1_565 S
C1131 C1127 1.393 . S
C1131 C1130 1.391 . S
H1132 C1140 0.950 . S
H1133 C1145 0.950 . S
H1134 C1142 0.950 1_545 S
H1135 C1144 0.950 . S
H1136 C1146 0.950 . S
H1137 C1148 0.950 . S
H1138 C1150 0.935 1_545 S
H1139 C1151 0.950 . S
C1140 H1132 0.950 . S
C1140 C1141 1.386 1_545 S
C1140 C1142 1.391 1_545 S
C1141 C1140 1.386 1_565 S
C1141 C1145 1.393 . S
C1142 H1134 0.950 1_565 S
C1142 C1140 1.391 1_565 S
C1142 C1143 1.400 . S
C1143 C1142 1.400 . S
C1143 C1144 1.398 . S
C1143 C1149 1.491 . S
C1144 H1135 0.950 . S
C1144 C1143 1.398 . S
C1144 C1145 1.391 . S
C1145 H1133 0.950 . S
C1145 C1141 1.393 . S
C1145 C1144 1.391 . S
C1146 H1136 0.950 . S
C1146 C1147 1.386 . S
C1146 C1148 1.391 . S
C1147 C1146 1.386 . S
C1147 C1151 1.393 . S
C1148 H1137 0.950 . S
C1148 C1146 1.391 . S
C1148 C1149 1.400 . S
C1149 C1143 1.491 . S
C1149 C1148 1.400 . S
C1149 C1150 1.398 . S
C1150 H1138 0.935 1_565 S
C1150 C1149 1.398 . S
C1150 C1151 1.391 . S
C1151 H1139 0.950 . S
C1151 C1147 1.393 . S
C1151 C1150 1.391 . S
H1152 C1160 0.950 . S
H1153 C1165 0.950 . S
H1154 C1162 0.950 . S
H1155 C1164 0.950 1_655 S
H1156 C1166 0.950 . S
H1157 C1168 0.950 . S
H1158 C1170 0.950 1_455 S
H1159 C1171 0.950 . S
C1160 H1152 0.950 . S
C1160 C1161 1.386 . S
C1160 C1162 1.391 . S
C1161 C1160 1.386 . S
C1161 C1165 1.393 . S
C1162 H1154 0.950 . S
C1162 C1160 1.391 . S
C1162 C1163 1.400 . S
C1163 C1162 1.400 . S
C1163 C1164 1.398 . S
C1163 C1169 1.491 1_455 S
C1164 H1155 0.950 1_455 S
C1164 C1163 1.398 . S
C1164 C1165 1.391 . S
C1165 H1153 0.950 . S
C1165 C1161 1.393 . S
C1165 C1164 1.391 . S
C1166 H1156 0.950 . S
C1166 C1167 1.386 . S
C1166 C1168 1.391 . S
C1167 C1166 1.386 . S
C1167 C1171 1.393 . S
C1168 H1157 0.950 . S
C1168 C1166 1.391 . S
C1168 C1169 1.400 . S
C1169 C1163 1.491 1_655 S
C1169 C1168 1.400 . S
C1169 C1170 1.398 . S
C1170 H1158 0.950 1_655 S
C1170 C1169 1.398 . S
C1170 C1171 1.391 . S
C1171 H1159 0.950 . S
C1171 C1167 1.393 . S
C1171 C1170 1.391 . S
H1172 C1180 0.950 . S
H1173 C1185 0.950 . S
H1174 C1182 0.950 . S
H1175 C1184 0.950 1_655 S
H1176 C1186 0.950 . S
H1177 C1188 0.950 . S
H1178 C1190 0.950 1_455 S
H1179 C1191 0.950 . S
C1180 H1172 0.950 . S
C1180 C1181 1.386 . S
C1180 C1182 1.391 . S
C1181 C1180 1.386 . S
C1181 C1185 1.393 . S
C1182 H1174 0.950 . S
C1182 C1180 1.391 . S
C1182 C1183 1.400 . S
C1183 C1182 1.400 . S
C1183 C1184 1.398 . S
C1183 C1189 1.491 1_455 S
C1184 H1175 0.950 1_455 S
C1184 C1183 1.398 . S
C1184 C1185 1.391 . S
C1185 H1173 0.950 . S
C1185 C1181 1.393 . S
C1185 C1184 1.391 . S
C1186 H1176 0.950 . S
C1186 C1187 1.386 . S
C1186 C1188 1.391 . S
C1187 C1186 1.386 . S
C1187 C1191 1.393 . S
C1188 H1177 0.950 . S
C1188 C1186 1.391 . S
C1188 C1189 1.400 . S
C1189 C1183 1.491 1_655 S
C1189 C1188 1.400 . S
C1189 C1190 1.398 . S
C1190 H1178 0.950 1_655 S
C1190 C1189 1.398 . S
C1190 C1191 1.391 . S
C1191 H1179 0.950 . S
C1191 C1187 1.393 . S
C1191 C1190 1.391 . S
H1192 C1200 0.950 . S
H1193 C1205 0.950 . S
H1194 C1202 0.950 . S
H1195 C1204 0.950 . S
H1196 C1206 0.950 . S
H1197 C1208 0.950 . S
H1198 C1210 0.950 . S
H1199 C1211 0.950 . S
C1200 H1192 0.950 . S
C1200 C1201 1.386 . S
C1200 C1202 1.391 . S
C1201 C1200 1.386 . S
C1201 C1205 1.393 . S
C1202 H1194 0.950 . S
C1202 C1200 1.391 . S
C1202 C1203 1.400 . S
C1203 C1202 1.400 . S
C1203 C1204 1.398 . S
C1203 C1209 1.491 . S
C1204 H1195 0.950 . S
C1204 C1203 1.398 . S
C1204 C1205 1.391 . S
C1205 H1193 0.950 . S
C1205 C1201 1.393 . S
C1205 C1204 1.391 . S
C1206 H1196 0.950 . S
C1206 C1207 1.386 . S
C1206 C1208 1.391 . S
C1207 C1206 1.386 . S
C1207 C1211 1.393 . S
C1208 H1197 0.950 . S
C1208 C1206 1.391 . S
C1208 C1209 1.400 . S
C1209 C1203 1.491 . S
C1209 C1208 1.400 . S
C1209 C1210 1.398 . S
C1210 H1198 0.950 . S
C1210 C1209 1.398 . S
C1210 C1211 1.391 . S
C1211 H1199 0.950 . S
C1211 C1207 1.393 . S
C1211 C1210 1.391 . S
H1212 C1220 0.950 . S
H1213 C1225 0.950 . S
H1214 C1222 0.950 . S
H1215 C1224 0.950 . S
H1216 C1226 0.950 . S
H1217 C1228 0.950 . S
H1218 C1230 0.950 . S
H1219 C1231 0.950 . S
C1220 H1212 0.950 . S
C1220 C1221 1.386 . S
C1220 C1222 1.391 . S
C1221 C1220 1.386 . S
C1221 C1225 1.393 . S
C1222 H1214 0.950 . S
C1222 C1220 1.391 . S
C1222 C1223 1.400 . S
C1223 C1222 1.400 . S
C1223 C1224 1.398 . S
C1223 C1229 1.491 . S
C1224 H1215 0.950 . S
C1224 C1223 1.398 . S
C1224 C1225 1.391 . S
C1225 H1213 0.950 . S
C1225 C1221 1.393 . S
C1225 C1224 1.391 . S
C1226 H1216 0.950 . S
C1226 C1227 1.386 . S
C1226 C1228 1.391 . S
C1227 C1226 1.386 . S
C1227 C1231 1.393 . S
C1228 H1217 0.950 . S
C1228 C1226 1.391 . S
C1228 C1229 1.400 . S
C1229 C1223 1.491 . S
C1229 C1228 1.400 . S
C1229 C1230 1.398 . S
C1230 H1218 0.950 . S
C1230 C1229 1.398 . S
C1230 C1231 1.391 . S
C1231 H1219 0.950 . S
C1231 C1227 1.393 . S
C1231 C1230 1.391 . S
H1232 C1240 0.950 . S
H1233 C1245 0.950 . S
H1234 C1242 0.950 1_655 S
H1235 C1244 0.950 . S
H1236 C1246 0.950 . S
H1237 C1248 0.950 1_455 S
H1238 C1250 0.950 . S
H1239 C1251 0.950 . S
C1240 H1232 0.950 . S
C1240 C1241 1.386 . S
C1240 C1242 1.391 . S
C1241 C1240 1.386 . S
C1241 C1245 1.393 . S
C1242 H1234 0.950 1_455 S
C1242 C1240 1.391 . S
C1242 C1243 1.400 . S
C1243 C1242 1.400 . S
C1243 C1244 1.398 . S
C1243 C1249 1.491 1_455 S
C1244 H1235 0.950 . S
C1244 C1243 1.398 . S
C1244 C1245 1.391 . S
C1245 H1233 0.950 . S
C1245 C1241 1.393 . S
C1245 C1244 1.391 . S
C1246 H1236 0.950 . S
C1246 C1247 1.386 . S
C1246 C1248 1.391 . S
C1247 C1246 1.386 . S
C1247 C1251 1.393 . S
C1248 H1237 0.950 1_655 S
C1248 C1246 1.391 . S
C1248 C1249 1.400 . S
C1249 C1243 1.491 1_655 S
C1249 C1248 1.400 . S
C1249 C1250 1.398 . S
C1250 H1238 0.950 . S
C1250 C1249 1.398 . S
C1250 C1251 1.391 . S
C1251 H1239 0.950 . S
C1251 C1247 1.393 . S
C1251 C1250 1.391 . S
H1252 C1260 0.950 . S
H1253 C1265 0.950 . S
H1254 C1262 0.950 1_455 S
H1255 C1264 0.950 . S
H1256 C1266 0.950 . S
H1257 C1268 0.950 1_655 S
H1258 C1270 0.950 . S
H1259 C1271 0.950 . S
C1260 H1252 0.950 . S
C1260 C1261 1.386 . S
C1260 C1262 1.391 . S
C1261 C1260 1.386 . S
C1261 C1265 1.393 . S
C1262 H1254 0.950 1_655 S
C1262 C1260 1.391 . S
C1262 C1263 1.400 . S
C1263 C1262 1.400 . S
C1263 C1264 1.398 . S
C1263 C1269 1.491 1_655 S
C1264 H1255 0.950 . S
C1264 C1263 1.398 . S
C1264 C1265 1.391 . S
C1265 H1253 0.950 . S
C1265 C1261 1.393 . S
C1265 C1264 1.391 . S
C1266 H1256 0.950 . S
C1266 C1267 1.386 . S
C1266 C1268 1.391 . S
C1267 C1266 1.386 . S
C1267 C1271 1.393 . S
C1268 H1257 0.950 1_455 S
C1268 C1266 1.391 . S
C1268 C1269 1.400 . S
C1269 C1263 1.491 1_455 S
C1269 C1268 1.400 . S
C1269 C1270 1.398 . S
C1270 H1258 0.950 . S
C1270 C1269 1.398 . S
C1270 C1271 1.391 . S
C1271 H1259 0.950 . S
C1271 C1267 1.393 . S
C1271 C1270 1.391 . S
H1272 C1280 0.950 . S
H1273 C1285 0.950 . S
H1274 C1282 0.950 . S
H1275 C1284 0.950 . S
H1276 C1286 0.950 . S
H1277 C1288 0.950 . S
H1278 C1290 0.950 . S
H1279 C1291 0.950 . S
C1280 H1272 0.950 . S
C1280 C1281 1.386 . S
C1280 C1282 1.391 . S
C1281 C1280 1.386 . S
C1281 C1285 1.393 . S
C1282 H1274 0.950 . S
C1282 C1280 1.391 . S
C1282 C1283 1.400 . S
C1283 C1282 1.400 . S
C1283 C1284 1.398 . S
C1283 C1289 1.491 . S
C1284 H1275 0.950 . S
C1284 C1283 1.398 . S
C1284 C1285 1.391 . S
C1285 H1273 0.950 . S
C1285 C1281 1.393 . S
C1285 C1284 1.391 . S
C1286 H1276 0.950 . S
C1286 C1287 1.386 . S
C1286 C1288 1.391 . S
C1287 C1286 1.386 . S
C1287 C1291 1.393 . S
C1288 H1277 0.950 . S
C1288 C1286 1.391 . S
C1288 C1289 1.400 . S
C1289 C1283 1.491 . S
C1289 C1288 1.400 . S
C1289 C1290 1.398 . S
C1290 H1278 0.950 . S
C1290 C1289 1.398 . S
C1290 C1291 1.391 . S
C1291 H1279 0.950 . S
C1291 C1287 1.393 . S
C1291 C1290 1.391 . S
H1292 C1300 0.950 . S
H1293 C1305 0.950 . S
H1294 C1302 0.950 . S
H1295 C1304 0.950 . S
H1296 C1306 0.950 . S
H1297 C1308 0.950 . S
H1298 C1310 0.950 . S
H1299 C1311 0.950 . S
C1300 H1292 0.950 . S
C1300 C1301 1.386 . S
C1300 C1302 1.391 . S
C1301 C1300 1.386 . S
C1301 C1305 1.393 . S
C1302 H1294 0.950 . S
C1302 C1300 1.391 . S
C1302 C1303 1.400 . S
C1303 C1302 1.400 . S
C1303 C1304 1.398 . S
C1303 C1309 1.491 . S
C1304 H1295 0.950 . S
C1304 C1303 1.398 . S
C1304 C1305 1.391 . S
C1305 H1293 0.950 . S
C1305 C1301 1.393 . S
C1305 C1304 1.391 . S
C1306 H1296 0.950 . S
C1306 C1307 1.386 . S
C1306 C1308 1.391 . S
C1307 C1306 1.386 . S
C1307 C1311 1.393 . S
C1308 H1297 0.950 . S
C1308 C1306 1.391 . S
C1308 C1309 1.400 . S
C1309 C1303 1.491 . S
C1309 C1308 1.400 . S
C1309 C1310 1.398 . S
C1310 H1298 0.950 . S
C1310 C1309 1.398 . S
C1310 C1311 1.391 . S
C1311 H1299 0.950 . S
C1311 C1307 1.393 . S
C1311 C1310 1.391 . S
C361 C15 1.433 . S
C367 C140 1.375 . S
C381 C348 1.376 . S
C387 C29 1.432 . S
C401 C51 1.433 . S
C407 C98 1.375 . S
C421 C304 1.397 . S
C427 C73 1.430 . S
C441 C52 1.375 . S
C447 C109 1.433 . S
C461 C250 1.378 . S
C467 C125 1.431 . S
C481 C139 1.434 . S
C487 C18 1.375 . S
C501 C169 1.432 . S
C507 C216 1.390 . S
C521 C183 1.427 . S
C527 C316 1.399 . S
C541 C213 1.427 . S
C547 C172 1.399 . S
C561 C274 1.377 . S
C567 C227 1.432 . S
C581 C128 1.393 . S
C587 C249 1.431 . S
C601 C228 1.375 . S
C607 C285 1.433 . S
C621 C301 1.434 . S
C627 C74 1.375 . S
C641 C184 1.384 . S
C647 C315 1.429 . S
C661 C30 1.393 . S
C667 C345 1.431 . S
C681 C21 0.416 . S
C687 C271 0.416 . S
C701 C37 0.431 . S
C707 C131 0.431 . S
C721 C59 0.498 . S
C727 C323 0.498 . S
C741 C175 0.469 . S
C747 C81 0.469 . S
C761 C95 0.502 . S
C767 C191 0.502 . S
C781 C235 0.422 . S
C787 C147 0.422 . S
C801 C219 0.504 . S
C807 C307 0.504 . S
C821 C351 0.456 . S
C827 C257 0.456 . S
C841 C10 1.420 . S
C847 C43 1.426 . S
C861 C65 1.426 . S
C867 C40 1.420 . S
C881 C62 1.443 . S
C887 C87 1.445 . S
C901 C84 1.446 . S
C907 C7 1.448 . S
C921 C117 1.432 . S
C927 C96 1.424 . S
C941 C153 1.451 . S
C947 C120 1.447 . S
C961 C161 1.443 . S
C967 C150 1.435 . S
C981 C103 1.448 . S
C987 C164 1.440 . S
C1001 C194 1.423 . S
C1007 C205 1.431 . S
C1021 C208 1.447 . S
C1027 C241 1.452 . S
C1041 C263 1.447 . S
C1047 C238 1.445 . S
C1061 C260 1.448 . S
C1067 C197 1.451 . S
C1081 C293 1.426 . S
C1087 C272 1.421 . S
C1101 C296 1.438 . S
C1107 C329 1.439 . S
C1121 C326 1.425 . S
C1127 C337 1.428 . S
C1141 C279 1.442 . S
C1147 C340 1.441 . S
C1161 C8 1.514 . S
C1167 C230 1.532 . S
C1181 C32 1.533 . S
C1187 C252 1.513 . S
C1201 C54 1.536 . S
C1207 C186 1.512 . S
C1221 C206 1.529 . S
C1227 C76 1.516 . S
C1241 C318 1.513 . S
C1247 C106 1.533 . S
C1261 C118 1.535 . S
C1267 C338 1.517 . S
C1281 C142 1.536 . S
C1287 C282 1.513 . S
C1301 C294 1.517 . S
C1307 C162 1.535 . S
