# Generated by pormake.
# Topology uoc, (4)-cn, num edge types: 1
# Building blocks:
#     Node 0, Type 0, BuildingBlock: NAHDIM_clean_sbu_0, # of connection points: 4
#     Node 1, Type 0, BuildingBlock: NAHDIM_clean_sbu_0, # of connection points: 4
#     Node 2, Type 0, BuildingBlock: NAHDIM_clean_sbu_0, # of connection points: 4
#     Node 3, Type 0, BuildingBlock: NAHDIM_clean_sbu_0, # of connection points: 4
#     Node 4, Type 0, BuildingBlock: NAHDIM_clean_sbu_0, # of connection points: 4
#     Node 5, Type 0, BuildingBlock: NAHDIM_clean_sbu_0, # of connection points: 4
#     Node 6, Type 0, BuildingBlock: NAHDIM_clean_sbu_0, # of connection points: 4
#     Node 7, Type 0, BuildingBlock: NAHDIM_clean_sbu_0, # of connection points: 4
#     Edge 8, Type (0, 0), BuildingBlock: EZIPEK_clean_linker_0, # of connection points: 2
#     Edge 9, Type (0, 0), BuildingBlock: EZIPEK_clean_linker_0, # of connection points: 2
#     Edge 10, Type (0, 0), BuildingBlock: EZIPEK_clean_linker_0, # of connection points: 2
#     Edge 11, Type (0, 0), BuildingBlock: EZIPEK_clean_linker_0, # of connection points: 2
#     Edge 12, Type (0, 0), BuildingBlock: EZIPEK_clean_linker_0, # of connection points: 2
#     Edge 13, Type (0, 0), BuildingBlock: EZIPEK_clean_linker_0, # of connection points: 2
#     Edge 14, Type (0, 0), BuildingBlock: EZIPEK_clean_linker_0, # of connection points: 2
#     Edge 15, Type (0, 0), BuildingBlock: EZIPEK_clean_linker_0, # of connection points: 2
#     Edge 16, Type (0, 0), BuildingBlock: EZIPEK_clean_linker_0, # of connection points: 2
#     Edge 17, Type (0, 0), BuildingBlock: EZIPEK_clean_linker_0, # of connection points: 2
#     Edge 18, Type (0, 0), BuildingBlock: EZIPEK_clean_linker_0, # of connection points: 2
#     Edge 19, Type (0, 0), BuildingBlock: EZIPEK_clean_linker_0, # of connection points: 2
#     Edge 20, Type (0, 0), BuildingBlock: EZIPEK_clean_linker_0, # of connection points: 2
#     Edge 21, Type (0, 0), BuildingBlock: EZIPEK_clean_linker_0, # of connection points: 2
#     Edge 22, Type (0, 0), BuildingBlock: EZIPEK_clean_linker_0, # of connection points: 2
#     Edge 23, Type (0, 0), BuildingBlock: EZIPEK_clean_linker_0, # of connection points: 2
# Relax obj value: 0.196
# Max RMSD: 0.195
# Mean RMSD: 0.195
data_MOF--net-uoc--node1-NAHDIM_clean_sbu_0--edge1-EZIPEK_clean_linker_0
_symmetry_space_group_name_H-M    P1
_symmetry_Int_Tables_number       1
_symmetry_cell_setting            triclinic
loop_
_symmetry_equiv_pos_as_xyz
'x, y, z'
_cell_length_a     20.108951
_cell_length_b     20.097235
_cell_length_c     37.404104
_cell_angle_alpha  90.021147
_cell_angle_beta   89.971676
_cell_angle_gamma 94.572357
loop_
_atom_site_label
_atom_site_type_symbol
_atom_site_fract_x
_atom_site_fract_y
_atom_site_fract_z
_atom_type_partial_charge
C0 C 0.08262 0.39468 0.1343 0.0
O1 O 0.14163 0.40202 0.14949 0.0
O2 O 0.17336 0.26103 0.07661 0.0
Zn3 Zn 0.11953 0.26164 0.12187 0.0
O4 O 0.1754 0.26834 0.16631 0.0
C5 C 0.07518 0.12472 0.10882 0.0
O6 O 0.13064 0.12586 0.09022 0.0
O7 O 0.06241 0.33902 0.12045 0.0
C8 C 0.21779 0.22822 0.1758 0.0
O9 O 0.23241 0.1797 0.15436 0.0
C10 C 0.21735 0.30579 0.06636 0.0
O11 O 0.2345 0.35716 0.08701 0.0
O12 O 0.05948 0.1771 0.12467 0.0
C13 C 0.88272 0.57938 0.37118 0.0
O14 O 0.89075 0.63837 0.35598 0.0
O15 O 0.7624 0.68293 0.4274 0.0
Zn16 Zn 0.75363 0.62245 0.38492 0.0
O17 O 0.75948 0.67222 0.33857 0.0
C18 C 0.61322 0.59735 0.39697 0.0
O19 O 0.61787 0.66122 0.40489 0.0
O20 O 0.82735 0.56062 0.38583 0.0
C21 C 0.72608 0.72019 0.32907 0.0
O22 O 0.68383 0.74484 0.35127 0.0
C23 C 0.81019 0.72627 0.43407 0.0
O24 O 0.85926 0.73761 0.41116 0.0
O25 O 0.66501 0.56942 0.3876 0.0
C26 C 0.41898 0.09463 0.63298 0.0
O27 O 0.3663 0.09163 0.65385 0.0
O28 O 0.31841 0.2257 0.57364 0.0
Zn29 Zn 0.37812 0.22541 0.61662 0.0
O30 O 0.32616 0.2224 0.66242 0.0
C31 C 0.43537 0.35606 0.59454 0.0
O32 O 0.39117 0.3492 0.56871 0.0
O33 O 0.43368 0.14652 0.6143 0.0
C34 C 0.28887 0.26731 0.67194 0.0
O35 O 0.2806 0.3181 0.65078 0.0
C36 C 0.28005 0.17687 0.56248 0.0
O37 O 0.27424 0.12055 0.58043 0.0
O38 O 0.43933 0.30979 0.6174 0.0
C39 C 0.60115 0.91586 0.86069 0.0
O40 O 0.59765 0.86489 0.83862 0.0
O41 O 0.7295 0.81276 0.92257 0.0
Zn42 Zn 0.72918 0.8692 0.87831 0.0
O43 O 0.7229 0.8145 0.83355 0.0
C44 C 0.86675 0.91312 0.89219 0.0
O45 O 0.8646 0.85942 0.91226 0.0
O46 O 0.65222 0.92733 0.88042 0.0
C47 C 0.7686 0.77901 0.82311 0.0
O48 O 0.82167 0.77373 0.843 0.0
C49 C 0.68098 0.77409 0.9338 0.0
O50 O 0.62561 0.76584 0.91516 0.0
O51 O 0.81493 0.928 0.87555 0.0
C52 C 0.58817 0.87535 0.62989 0.0
O53 O 0.64931 0.88421 0.6423 0.0
O54 O 0.68877 0.75357 0.57673 0.0
Zn55 Zn 0.62745 0.74399 0.61883 0.0
O56 O 0.67583 0.74869 0.66572 0.0
C57 C 0.60056 0.60422 0.60467 0.0
O58 O 0.66447 0.60847 0.59694 0.0
O59 O 0.56661 0.81851 0.61791 0.0
C60 C 0.71763 0.70974 0.6773 0.0
O61 O 0.73688 0.66149 0.65706 0.0
C62 C 0.74048 0.79349 0.57315 0.0
O63 O 0.76022 0.83448 0.59905 0.0
O64 O 0.57334 0.65598 0.61481 0.0
C65 C 0.38371 0.08695 0.86597 0.0
O66 O 0.39269 0.14978 0.85618 0.0
O67 O 0.25159 0.17611 0.91908 0.0
Zn68 Zn 0.24961 0.12085 0.87427 0.0
O69 O 0.25691 0.17437 0.82886 0.0
C70 C 0.11067 0.08478 0.88456 0.0
O71 O 0.1117 0.14662 0.89605 0.0
O72 O 0.32611 0.06277 0.87541 0.0
C73 C 0.21537 0.21312 0.81678 0.0
O74 O 0.16309 0.22609 0.83583 0.0
C75 C 0.28235 0.23287 0.92437 0.0
O76 O 0.31827 0.26256 0.8988 0.0
O77 O 0.16419 0.06204 0.87362 0.0
C78 C 0.90952 0.61061 0.13508 0.0
O79 O 0.85283 0.6033 0.15262 0.0
O80 O 0.80744 0.73996 0.07971 0.0
Zn81 Zn 0.86758 0.74146 0.12252 0.0
O82 O 0.81786 0.73452 0.16908 0.0
C83 C 0.90356 0.88045 0.10972 0.0
O84 O 0.84311 0.87833 0.09626 0.0
O85 O 0.92654 0.6655 0.1195 0.0
C86 C 0.78798 0.78148 0.18297 0.0
O87 O 0.78478 0.83804 0.16578 0.0
C88 C 0.76638 0.69216 0.06996 0.0
O89 O 0.7573 0.63805 0.0896 0.0
O90 O 0.92537 0.82781 0.12248 0.0
C91 C 0.10172 0.41025 0.36663 0.0
O92 O 0.0973 0.35477 0.34792 0.0
O93 O 0.23653 0.31193 0.42038 0.0
Zn94 Zn 0.23536 0.37486 0.37879 0.0
O95 O 0.23275 0.32698 0.33175 0.0
C96 C 0.36528 0.43166 0.40168 0.0
O97 O 0.35931 0.38477 0.42616 0.0
O98 O 0.1558 0.42884 0.38256 0.0
C99 C 0.27857 0.29197 0.3209 0.0
O100 O 0.33006 0.28324 0.34145 0.0
C101 C 0.19025 0.26859 0.42947 0.0
O102 O 0.13607 0.25907 0.40996 0.0
O103 O 0.31866 0.43741 0.37926 0.0
C104 C 0.28926 0.24554 0.02487 0.0
C105 C 0.24826 0.29872 0.03081 0.0
C106 C 0.24063 0.31786 0.96623 0.0
C107 C 0.27942 0.26297 0.96035 0.0
N108 N 0.35521 0.18624 0.98282 0.0
N109 N 0.19802 0.39558 0.00863 0.0
C110 C 0.30849 0.23057 0.98939 0.0
C111 C 0.22877 0.33862 0.00192 0.0
N112 N 0.30816 0.20831 0.05316 0.0
N113 N 0.21176 0.34731 0.93785 0.0
H114 H 0.18715 0.41127 0.03438 0.0
H115 H 0.18814 0.43022 0.98905 0.0
H116 H 0.22053 0.3343 0.91137 0.0
H117 H 0.17629 0.38199 0.9404 0.0
H118 H 0.33085 0.16381 0.05048 0.0
H119 H 0.29864 0.22074 0.07967 0.0
H120 H 0.38271 0.16478 0.00269 0.0
H121 H 0.3709 0.17545 0.95701 0.0
C122 C 0.80297 0.7744 0.2839 0.0
C123 C 0.73756 0.7487 0.29302 0.0
C124 C 0.70184 0.76144 0.2309 0.0
C125 C 0.76937 0.77666 0.22106 0.0
N126 N 0.88563 0.79498 0.23733 0.0
N127 N 0.62467 0.71349 0.27553 0.0
C128 C 0.82035 0.78291 0.24736 0.0
C129 C 0.68649 0.7421 0.26675 0.0
N130 N 0.84796 0.79185 0.31035 0.0
N131 N 0.65268 0.76482 0.2059 0.0
H132 H 0.61137 0.69897 0.30149 0.0
H133 H 0.58779 0.70002 0.25678 0.0
H134 H 0.66268 0.7771 0.17922 0.0
H135 H 0.60203 0.76077 0.21207 0.0
H136 H 0.89455 0.81675 0.30567 0.0
H137 H 0.83609 0.78733 0.33746 0.0
H138 H 0.92557 0.79181 0.25479 0.0
H139 H 0.90041 0.80407 0.21096 0.0
C140 C 0.26822 0.1577 0.49672 0.0
C141 C 0.24346 0.18458 0.52868 0.0
C142 C 0.16586 0.24733 0.49416 0.0
C143 C 0.19887 0.22972 0.46244 0.0
N144 N 0.27789 0.16579 0.43205 0.0
N145 N 0.16687 0.25122 0.55913 0.0
C146 C 0.24834 0.18325 0.46327 0.0
C147 C 0.19086 0.22752 0.52777 0.0
N148 N 0.3113 0.10852 0.49851 0.0
N149 N 0.11134 0.28365 0.49203 0.0
H150 H 0.18158 0.23451 0.58411 0.0
H151 H 0.13434 0.28885 0.56068 0.0
H152 H 0.09256 0.29952 0.4678 0.0
H153 H 0.08144 0.29375 0.51376 0.0
H154 H 0.32716 0.08265 0.4764 0.0
H155 H 0.32748 0.08969 0.52266 0.0
H156 H 0.31981 0.13873 0.43075 0.0
H157 H 0.26144 0.18056 0.40703 0.0
C158 C 0.78444 0.80354 0.75818 0.0
C159 C 0.76783 0.75639 0.78562 0.0
C160 C 0.72797 0.67311 0.7412 0.0
C161 C 0.7443 0.72056 0.7138 0.0
N162 N 0.8046 0.82278 0.69498 0.0
N163 N 0.73869 0.64292 0.80373 0.0
C164 C 0.77797 0.78325 0.72197 0.0
C165 C 0.7449 0.68978 0.77722 0.0
N166 N 0.80407 0.86833 0.76671 0.0
N167 N 0.69258 0.61409 0.73316 0.0
H168 H 0.74946 0.65426 0.83045 0.0
H169 H 0.72832 0.59211 0.79896 0.0
H170 H 0.67971 0.59977 0.70713 0.0
H171 H 0.67225 0.58102 0.7524 0.0
H172 H 0.80901 0.90672 0.74798 0.0
H173 H 0.81134 0.88487 0.79294 0.0
H174 H 0.83506 0.86641 0.69924 0.0
H175 H 0.80175 0.80826 0.6682 0.0
C176 C 0.29316 0.31837 0.25604 0.0
C177 C 0.27801 0.27031 0.2832 0.0
C178 C 0.23653 0.18813 0.23856 0.0
C179 C 0.24915 0.23717 0.21147 0.0
N180 N 0.30608 0.341 0.19254 0.0
N181 N 0.25193 0.15594 0.30048 0.0
C182 C 0.28297 0.29985 0.21969 0.0
C183 C 0.25561 0.20377 0.27442 0.0
N184 N 0.31534 0.38224 0.26513 0.0
N185 N 0.20241 0.12845 0.23054 0.0
H186 H 0.26423 0.16649 0.32709 0.0
H187 H 0.24222 0.10519 0.29535 0.0
H188 H 0.18916 0.11417 0.2046 0.0
H189 H 0.184 0.09429 0.24973 0.0
H190 H 0.31937 0.42176 0.24708 0.0
H191 H 0.32693 0.39661 0.29135 0.0
H192 H 0.33618 0.38496 0.19644 0.0
H193 H 0.30031 0.32781 0.16566 0.0
C194 C 0.74697 0.82814 0.50955 0.0
C195 C 0.77536 0.79506 0.53849 0.0
C196 C 0.84752 0.73924 0.49738 0.0
C197 C 0.80973 0.76196 0.4685 0.0
N198 N 0.72825 0.83208 0.44544 0.0
N199 N 0.85553 0.72368 0.56167 0.0
C200 C 0.76164 0.80876 0.47407 0.0
C201 C 0.82774 0.75309 0.53295 0.0
N202 N 0.70557 0.87741 0.51633 0.0
N203 N 0.90102 0.70325 0.49062 0.0
H204 H 0.84358 0.73525 0.588 0.0
H205 H 0.88852 0.68653 0.55967 0.0
H206 H 0.91588 0.69195 0.46475 0.0
H207 H 0.93381 0.68905 0.51018 0.0
H208 H 0.68627 0.90699 0.49667 0.0
H209 H 0.69489 0.89243 0.54229 0.0
H210 H 0.68723 0.86028 0.44756 0.0
H211 H 0.74082 0.82135 0.41909 0.0
C212 C 0.19865 0.23782 0.71641 0.0
C213 C 0.26365 0.26675 0.70898 0.0
C214 C 0.28597 0.27994 0.77303 0.0
C215 C 0.22585 0.24069 0.78036 0.0
N216 N 0.12494 0.1797 0.75941 0.0
N217 N 0.3704 0.3156 0.7293 0.0
C218 C 0.18136 0.22 0.75223 0.0
C219 C 0.30745 0.28864 0.73706 0.0
N220 N 0.15387 0.22694 0.68913 0.0
N221 N 0.32177 0.30962 0.8006 0.0
H222 H 0.38689 0.32535 0.70324 0.0
H223 H 0.40751 0.32503 0.74845 0.0
H224 H 0.30624 0.30497 0.82718 0.0
H225 H 0.36296 0.34374 0.79705 0.0
H226 H 0.10365 0.21197 0.69307 0.0
H227 H 0.16579 0.2385 0.66257 0.0
H228 H 0.09497 0.15616 0.73973 0.0
H229 H 0.10986 0.16622 0.78523 0.0
C230 C 0.68217 0.74691 0.03359 0.0
C231 C 0.72989 0.69882 0.03602 0.0
C232 C 0.73251 0.68845 0.97079 0.0
C233 C 0.68802 0.73957 0.96832 0.0
N234 N 0.60802 0.80625 0.99607 0.0
N235 N 0.78856 0.61212 0.00863 0.0
C236 C 0.65832 0.76475 0.99939 0.0
C237 C 0.75073 0.66532 0.00509 0.0
N238 N 0.6618 0.77715 0.06402 0.0
N239 N 0.7591 0.66406 0.94026 0.0
H240 H 0.80352 0.59479 0.03337 0.0
H241 H 0.80096 0.58178 0.9875 0.0
H242 H 0.74366 0.67724 0.91476 0.0
H243 H 0.79788 0.63277 0.9399 0.0
H244 H 0.63364 0.81838 0.06421 0.0
H245 H 0.67524 0.76211 0.08955 0.0
H246 H 0.58015 0.82206 0.01744 0.0
H247 H 0.5904 0.82107 0.97137 0.0
C248 C 0.01805 0.02803 0.14208 0.0
C249 C 0.02941 0.06361 0.10964 0.0
C250 C 0.96158 0.9772 0.07713 0.0
C251 C 0.94618 0.94389 0.10985 0.0
N252 N 0.94808 0.9447 0.17437 0.0
N253 N -0.00104 0.0811 0.04827 0.0
C254 C 0.97124 0.9712 0.14266 0.0
C255 C 0.99748 0.0408 0.07771 0.0
N256 N 0.05318 0.0475 0.17208 0.0
N257 N 0.94499 0.9468 0.04531 0.0
H258 H 0.02508 0.12806 0.04744 0.0
H259 H 0.96822 0.07086 0.02625 0.0
H260 H 0.9198 0.89952 0.04348 0.0
H261 H 0.96222 0.96573 0.02081 0.0
H262 H 0.05277 0.01917 0.1954 0.0
H263 H 0.08683 0.0897 0.17279 0.0
H264 H 0.95944 0.96647 0.19912 0.0
H265 H 0.91219 0.90444 0.17582 0.0
C266 C 0.02135 0.47993 0.33583 0.0
C267 C 0.04487 0.45249 0.36792 0.0
C268 C 0.96499 0.51221 0.4026 0.0
C269 C 0.93744 0.53447 0.37022 0.0
N270 N 0.93035 0.52858 0.30584 0.0
N271 N 0.03218 0.43275 0.43127 0.0
C272 C 0.96308 0.51531 0.33675 0.0
C273 C 0.01477 0.46589 0.4012 0.0
N274 N 0.0563 0.4749 0.30471 0.0
N275 N 0.94576 0.53743 0.4346 0.0
H276 H 0.06826 0.39825 0.43126 0.0
H277 H 0.00686 0.43499 0.45548 0.0
H278 H 0.90995 0.572 0.43678 0.0
H279 H 0.96942 0.52868 0.45871 0.0
H280 H 0.04591 0.50101 0.28159 0.0
H281 H 0.09976 0.45003 0.30286 0.0
H282 H 0.94273 0.50927 0.28108 0.0
H283 H 0.8867 0.55334 0.30533 0.0
C284 C 0.47653 0.45869 0.6285 0.0
C285 C 0.4794 0.41835 0.5975 0.0
C286 C 0.55964 0.50145 0.57023 0.0
C287 C 0.5606 0.5392 0.60239 0.0
N288 N 0.53286 0.54491 0.66511 0.0
N289 N 0.53318 0.39405 0.54189 0.0
C290 C 0.52273 0.51532 0.63242 0.0
C291 C 0.52382 0.43757 0.56921 0.0
N292 N 0.42791 0.44469 0.65355 0.0
N293 N 0.59045 0.52766 0.54021 0.0
H294 H 0.50816 0.34663 0.54039 0.0
H295 H 0.57013 0.40226 0.52252 0.0
H296 H 0.61471 0.57543 0.53924 0.0
H297 H 0.58694 0.50457 0.5153 0.0
H298 H 0.41918 0.47653 0.67474 0.0
H299 H 0.39204 0.40454 0.65131 0.0
H300 H 0.51157 0.52521 0.68861 0.0
H301 H 0.568 0.58511 0.66948 0.0
C302 C 0.52921 0.99592 0.83122 0.0
C303 C 0.54603 0.96026 0.86223 0.0
C304 C 0.46089 0.01328 0.89658 0.0
C305 C 0.43986 0.0438 0.86477 0.0
N306 N 0.44557 0.05465 0.80054 0.0
N307 N 0.52094 0.92564 0.92283 0.0
C308 C 0.47177 0.03266 0.83171 0.0
C309 C 0.51007 0.96645 0.89455 0.0
N310 N 0.5695 0.99679 0.80173 0.0
N311 N 0.43556 0.03072 0.92888 0.0
H312 H 0.55594 0.89011 0.92219 0.0
H313 H 0.49125 0.92274 0.94569 0.0
H314 H 0.39963 0.06505 0.93151 0.0
H315 H 0.45429 0.01571 0.95329 0.0
H316 H 0.56383 0.02793 0.77988 0.0
H317 H 0.6125 0.97109 0.8004 0.0
H318 H 0.46225 0.04133 0.77537 0.0
H319 H 0.403 0.08104 0.79961 0.0
C320 C 0.98002 0.53297 0.1674 0.0
C321 C 0.95453 0.55595 0.13468 0.0
C322 C 0.01871 0.47762 0.10148 0.0
C323 C 0.03885 0.45034 0.13436 0.0
N324 N 0.02867 0.44323 0.19858 0.0
N325 N 0.94054 0.54357 0.07088 0.0
C326 C 0.01688 0.47563 0.16735 0.0
C327 C 0.97148 0.52659 0.10173 0.0
N328 N 0.9714 0.56747 0.19836 0.0
N329 N 0.04641 0.45841 0.0701 0.0
H330 H 0.90543 0.579 0.07 0.0
H331 H 0.94529 0.51854 0.04674 0.0
H332 H 0.0813 0.42277 0.06884 0.0
H333 H 0.03928 0.48181 0.04572 0.0
H334 H 0.99536 0.55732 0.2222 0.0
H335 H 0.94553 0.61039 0.19952 0.0
H336 H 0.0068 0.45475 0.22281 0.0
H337 H 0.05503 0.40065 0.19976 0.0
C338 C 0.44524 0.51872 0.42935 0.0
C339 C 0.42686 0.47688 0.39984 0.0
C340 C 0.52451 0.52358 0.36655 0.0
C341 C 0.54765 0.55838 0.39771 0.0
N342 N 0.53403 0.58381 0.4603 0.0
N343 N 0.45365 0.43178 0.3422 0.0
C344 C 0.50892 0.55493 0.42953 0.0
C345 C 0.46758 0.47736 0.36884 0.0
N346 N 0.40107 0.52521 0.45671 0.0
N347 N 0.55531 0.53666 0.33442 0.0
H348 H 0.41292 0.39636 0.34297 0.0
H349 H 0.48579 0.42508 0.32088 0.0
H350 H 0.59597 0.5718 0.33137 0.0
H351 H 0.53636 0.51791 0.3102 0.0
H352 H 0.40859 0.56026 0.47711 0.0
H353 H 0.35378 0.49981 0.45732 0.0
H354 H 0.51039 0.57827 0.48499 0.0
H355 H 0.58133 0.60889 0.46198 0.0
C356 C 0.47073 0.00358 0.59961 0.0
C357 C 0.46221 0.03849 0.63206 0.0
C358 C 0.53056 0.96184 0.66363 0.0
C359 C 0.54434 0.93104 0.63059 0.0
N360 N 0.53756 0.93013 0.56613 0.0
N361 N 0.49425 0.05951 0.69346 0.0
C362 C 0.51711 0.95388 0.59825 0.0
C363 C 0.4949 0.02002 0.6637 0.0
N364 N 0.43279 0.01621 0.57044 0.0
N365 N 0.54907 0.93402 0.6951 0.0
H366 H 0.46922 0.10296 0.69457 0.0
H367 H 0.52385 0.05275 0.7158 0.0
H368 H 0.5741 0.89058 0.69631 0.0
H369 H 0.53402 0.9503 0.72006 0.0
H370 H 0.43154 0.98736 0.54728 0.0
H371 H 0.39789 0.05187 0.57053 0.0
H372 H 0.525 0.95027 0.54162 0.0
H373 H 0.57208 0.89428 0.56392 0.0
C374 C 0.95164 0.99415 0.92036 0.0
C375 C 0.92888 0.95727 0.8899 0.0
C376 C 0.0219 0.00917 0.85475 0.0
C377 C 0.04822 0.04078 0.88621 0.0
N378 N 0.04573 0.0516 0.95047 0.0
N379 N 0.94765 0.92034 0.82966 0.0
C380 C 0.01511 0.03027 0.91945 0.0
C381 C 0.96543 0.96219 0.85744 0.0
N382 N 0.91165 0.99674 0.94978 0.0
N383 N 0.04929 0.02572 0.82217 0.0
H384 H 0.90718 0.88466 0.83098 0.0
H385 H 0.97636 0.9168 0.80666 0.0
H386 H 0.09039 0.06026 0.81906 0.0
H387 H 0.0278 0.00973 0.79801 0.0
H388 H 0.92213 0.03022 0.97066 0.0
H389 H 0.86492 0.97044 0.95174 0.0
H390 H 0.02719 0.03776 0.97559 0.0
H391 H 0.09305 0.07687 0.95128 0.0
loop_
_geom_bond_atom_site_label_1
_geom_bond_atom_site_label_2
_geom_bond_distance
_geom_bond_site_symmetry_2
_ccdc_geom_bond_type
C0 O1 1.160 . S
C0 O7 1.185 . S
O1 C0 1.160 . S
O2 Zn3 1.899 . S
O2 C10 1.284 . S
Zn3 O2 1.899 . S
Zn3 O4 2.032 . S
Zn3 O7 2.086 . S
Zn3 O12 1.977 . S
O4 Zn3 2.032 . S
O4 C8 1.278 . S
C5 O6 1.203 . S
C5 O12 1.267 . S
O6 C5 1.203 . S
O7 C0 1.185 . S
O7 Zn3 2.086 . S
C8 O4 1.278 . S
C8 O9 1.211 . S
O9 C8 1.211 . S
C10 O2 1.284 . S
C10 O11 1.273 . S
O11 C10 1.273 . S
O12 Zn3 1.977 . S
O12 C5 1.267 . S
C13 O14 1.160 . S
C13 O20 1.185 . S
O14 C13 1.160 . S
O15 Zn16 1.899 . S
O15 C23 1.284 . S
Zn16 O15 1.899 . S
Zn16 O17 2.032 . S
Zn16 O20 2.086 . S
Zn16 O25 1.977 . S
O17 Zn16 2.032 . S
O17 C21 1.278 . S
C18 O19 1.203 . S
C18 O25 1.267 . S
O19 C18 1.203 . S
O20 C13 1.185 . S
O20 Zn16 2.086 . S
C21 O17 1.278 . S
C21 O22 1.211 . S
O22 C21 1.211 . S
C23 O15 1.284 . S
C23 O24 1.273 . S
O24 C23 1.273 . S
O25 Zn16 1.977 . S
O25 C18 1.267 . S
C26 O27 1.160 . S
C26 O33 1.185 . S
O27 C26 1.160 . S
O28 Zn29 1.899 . S
O28 C36 1.284 . S
Zn29 O28 1.899 . S
Zn29 O30 2.032 . S
Zn29 O33 2.086 . S
Zn29 O38 1.977 . S
O30 Zn29 2.032 . S
O30 C34 1.278 . S
C31 O32 1.203 . S
C31 O38 1.267 . S
O32 C31 1.203 . S
O33 C26 1.185 . S
O33 Zn29 2.086 . S
C34 O30 1.278 . S
C34 O35 1.211 . S
O35 C34 1.211 . S
C36 O28 1.284 . S
C36 O37 1.273 . S
O37 C36 1.273 . S
O38 Zn29 1.977 . S
O38 C31 1.267 . S
C39 O40 1.160 . S
C39 O46 1.185 . S
O40 C39 1.160 . S
O41 Zn42 1.899 . S
O41 C49 1.284 . S
Zn42 O41 1.899 . S
Zn42 O43 2.032 . S
Zn42 O46 2.086 . S
Zn42 O51 1.977 . S
O43 Zn42 2.032 . S
O43 C47 1.278 . S
C44 O45 1.203 . S
C44 O51 1.267 . S
O45 C44 1.203 . S
O46 C39 1.185 . S
O46 Zn42 2.086 . S
C47 O43 1.278 . S
C47 O48 1.211 . S
O48 C47 1.211 . S
C49 O41 1.284 . S
C49 O50 1.273 . S
O50 C49 1.273 . S
O51 Zn42 1.977 . S
O51 C44 1.267 . S
C52 O53 1.160 . S
C52 O59 1.185 . S
O53 C52 1.160 . S
O54 Zn55 1.899 . S
O54 C62 1.284 . S
Zn55 O54 1.899 . S
Zn55 O56 2.032 . S
Zn55 O59 2.086 . S
Zn55 O64 1.977 . S
O56 Zn55 2.032 . S
O56 C60 1.278 . S
C57 O58 1.203 . S
C57 O64 1.267 . S
O58 C57 1.203 . S
O59 C52 1.185 . S
O59 Zn55 2.086 . S
C60 O56 1.278 . S
C60 O61 1.211 . S
O61 C60 1.211 . S
C62 O54 1.284 . S
C62 O63 1.273 . S
O63 C62 1.273 . S
O64 Zn55 1.977 . S
O64 C57 1.267 . S
C65 O66 1.160 . S
C65 O72 1.185 . S
O66 C65 1.160 . S
O67 Zn68 1.899 . S
O67 C75 1.284 . S
Zn68 O67 1.899 . S
Zn68 O69 2.032 . S
Zn68 O72 2.086 . S
Zn68 O77 1.977 . S
O69 Zn68 2.032 . S
O69 C73 1.278 . S
C70 O71 1.203 . S
C70 O77 1.267 . S
O71 C70 1.203 . S
O72 C65 1.185 . S
O72 Zn68 2.086 . S
C73 O69 1.278 . S
C73 O74 1.211 . S
O74 C73 1.211 . S
C75 O67 1.284 . S
C75 O76 1.273 . S
O76 C75 1.273 . S
O77 Zn68 1.977 . S
O77 C70 1.267 . S
C78 O79 1.160 . S
C78 O85 1.185 . S
O79 C78 1.160 . S
O80 Zn81 1.899 . S
O80 C88 1.284 . S
Zn81 O80 1.899 . S
Zn81 O82 2.032 . S
Zn81 O85 2.086 . S
Zn81 O90 1.977 . S
O82 Zn81 2.032 . S
O82 C86 1.278 . S
C83 O84 1.203 . S
C83 O90 1.267 . S
O84 C83 1.203 . S
O85 C78 1.185 . S
O85 Zn81 2.086 . S
C86 O82 1.278 . S
C86 O87 1.211 . S
O87 C86 1.211 . S
C88 O80 1.284 . S
C88 O89 1.273 . S
O89 C88 1.273 . S
O90 Zn81 1.977 . S
O90 C83 1.267 . S
C91 O92 1.160 . S
C91 O98 1.185 . S
O92 C91 1.160 . S
O93 Zn94 1.899 . S
O93 C101 1.284 . S
Zn94 O93 1.899 . S
Zn94 O95 2.032 . S
Zn94 O98 2.086 . S
Zn94 O103 1.977 . S
O95 Zn94 2.032 . S
O95 C99 1.278 . S
C96 O97 1.203 . S
C96 O103 1.267 . S
O97 C96 1.203 . S
O98 C91 1.185 . S
O98 Zn94 2.086 . S
C99 O95 1.278 . S
C99 O100 1.211 . S
O100 C99 1.211 . S
C101 O93 1.284 . S
C101 O102 1.273 . S
O102 C101 1.273 . S
O103 Zn94 1.977 . S
O103 C96 1.267 . S
C104 C105 1.363 . S
C104 C110 1.379 1_554 S
C104 N112 1.356 . S
C105 C104 1.363 . S
C105 C111 1.363 . S
C106 C107 1.363 . S
C106 C111 1.379 1_556 S
C106 N113 1.356 . S
C107 C106 1.363 . S
C107 C110 1.363 . S
N108 C110 1.356 . S
N108 H120 0.984 . S
N108 H121 0.985 . S
N109 C111 1.356 . S
N109 H114 0.984 . S
N109 H115 0.985 . S
C110 C104 1.379 1_556 S
C110 C107 1.363 . S
C110 N108 1.356 . S
C111 C105 1.363 . S
C111 C106 1.379 1_554 S
C111 N109 1.356 . S
N112 C104 1.356 . S
N112 H118 0.984 . S
N112 H119 0.984 . S
N113 C106 1.356 . S
N113 H116 0.984 . S
N113 H117 0.985 . S
H114 N109 0.984 . S
H115 N109 0.985 . S
H116 N113 0.984 . S
H117 N113 0.985 . S
H118 N112 0.984 . S
H119 N112 0.984 . S
H120 N108 0.984 . S
H121 N108 0.985 . S
C122 C123 1.363 . S
C122 C128 1.379 . S
C122 N130 1.356 . S
C123 C122 1.363 . S
C123 C129 1.363 . S
C124 C125 1.363 . S
C124 C129 1.379 . S
C124 N131 1.356 . S
C125 C124 1.363 . S
C125 C128 1.363 . S
N126 C128 1.356 . S
N126 H138 0.984 . S
N126 H139 0.985 . S
N127 C129 1.356 . S
N127 H132 0.984 . S
N127 H133 0.985 . S
C128 C122 1.379 . S
C128 C125 1.363 . S
C128 N126 1.356 . S
C129 C123 1.363 . S
C129 C124 1.379 . S
C129 N127 1.356 . S
N130 C122 1.356 . S
N130 H136 0.984 . S
N130 H137 0.984 . S
N131 C124 1.356 . S
N131 H134 0.984 . S
N131 H135 0.985 . S
H132 N127 0.984 . S
H133 N127 0.985 . S
H134 N131 0.984 . S
H135 N131 0.985 . S
H136 N130 0.984 . S
H137 N130 0.984 . S
H138 N126 0.984 . S
H139 N126 0.985 . S
C140 C141 1.363 . S
C140 C146 1.379 . S
C140 N148 1.356 . S
C141 C140 1.363 . S
C141 C147 1.363 . S
C142 C143 1.363 . S
C142 C147 1.379 . S
C142 N149 1.356 . S
C143 C142 1.363 . S
C143 C146 1.363 . S
N144 C146 1.356 . S
N144 H156 0.984 . S
N144 H157 0.985 . S
N145 C147 1.356 . S
N145 H150 0.984 . S
N145 H151 0.985 . S
C146 C140 1.379 . S
C146 C143 1.363 . S
C146 N144 1.356 . S
C147 C141 1.363 . S
C147 C142 1.379 . S
C147 N145 1.356 . S
N148 C140 1.356 . S
N148 H154 0.984 . S
N148 H155 0.984 . S
N149 C142 1.356 . S
N149 H152 0.984 . S
N149 H153 0.985 . S
H150 N145 0.984 . S
H151 N145 0.985 . S
H152 N149 0.984 . S
H153 N149 0.985 . S
H154 N148 0.984 . S
H155 N148 0.984 . S
H156 N144 0.984 . S
H157 N144 0.985 . S
C158 C159 1.363 . S
C158 C164 1.379 . S
C158 N166 1.356 . S
C159 C158 1.363 . S
C159 C165 1.363 . S
C160 C161 1.363 . S
C160 C165 1.379 . S
C160 N167 1.356 . S
C161 C160 1.363 . S
C161 C164 1.363 . S
N162 C164 1.356 . S
N162 H174 0.984 . S
N162 H175 0.985 . S
N163 C165 1.356 . S
N163 H168 0.984 . S
N163 H169 0.985 . S
C164 C158 1.379 . S
C164 C161 1.363 . S
C164 N162 1.356 . S
C165 C159 1.363 . S
C165 C160 1.379 . S
C165 N163 1.356 . S
N166 C158 1.356 . S
N166 H172 0.984 . S
N166 H173 0.984 . S
N167 C160 1.356 . S
N167 H170 0.984 . S
N167 H171 0.985 . S
H168 N163 0.984 . S
H169 N163 0.985 . S
H170 N167 0.984 . S
H171 N167 0.985 . S
H172 N166 0.984 . S
H173 N166 0.984 . S
H174 N162 0.984 . S
H175 N162 0.985 . S
C176 C177 1.363 . S
C176 C182 1.379 . S
C176 N184 1.356 . S
C177 C176 1.363 . S
C177 C183 1.363 . S
C178 C179 1.363 . S
C178 C183 1.379 . S
C178 N185 1.356 . S
C179 C178 1.363 . S
C179 C182 1.363 . S
N180 C182 1.356 . S
N180 H192 0.984 . S
N180 H193 0.985 . S
N181 C183 1.356 . S
N181 H186 0.984 . S
N181 H187 0.985 . S
C182 C176 1.379 . S
C182 C179 1.363 . S
C182 N180 1.356 . S
C183 C177 1.363 . S
C183 C178 1.379 . S
C183 N181 1.356 . S
N184 C176 1.356 . S
N184 H190 0.984 . S
N184 H191 0.984 . S
N185 C178 1.356 . S
N185 H188 0.984 . S
N185 H189 0.985 . S
H186 N181 0.984 . S
H187 N181 0.985 . S
H188 N185 0.984 . S
H189 N185 0.985 . S
H190 N184 0.984 . S
H191 N184 0.984 . S
H192 N180 0.984 . S
H193 N180 0.985 . S
C194 C195 1.363 . S
C194 C200 1.379 . S
C194 N202 1.356 . S
C195 C194 1.363 . S
C195 C201 1.363 . S
C196 C197 1.363 . S
C196 C201 1.379 . S
C196 N203 1.356 . S
C197 C196 1.363 . S
C197 C200 1.363 . S
N198 C200 1.356 . S
N198 H210 0.984 . S
N198 H211 0.985 . S
N199 C201 1.356 . S
N199 H204 0.984 . S
N199 H205 0.985 . S
C200 C194 1.379 . S
C200 C197 1.363 . S
C200 N198 1.356 . S
C201 C195 1.363 . S
C201 C196 1.379 . S
C201 N199 1.356 . S
N202 C194 1.356 . S
N202 H208 0.984 . S
N202 H209 0.984 . S
N203 C196 1.356 . S
N203 H206 0.984 . S
N203 H207 0.985 . S
H204 N199 0.984 . S
H205 N199 0.985 . S
H206 N203 0.984 . S
H207 N203 0.985 . S
H208 N202 0.984 . S
H209 N202 0.984 . S
H210 N198 0.984 . S
H211 N198 0.985 . S
C212 C213 1.363 . S
C212 C218 1.379 . S
C212 N220 1.356 . S
C213 C212 1.363 . S
C213 C219 1.363 . S
C214 C215 1.363 . S
C214 C219 1.379 . S
C214 N221 1.356 . S
C215 C214 1.363 . S
C215 C218 1.363 . S
N216 C218 1.356 . S
N216 H228 0.984 . S
N216 H229 0.985 . S
N217 C219 1.356 . S
N217 H222 0.984 . S
N217 H223 0.985 . S
C218 C212 1.379 . S
C218 C215 1.363 . S
C218 N216 1.356 . S
C219 C213 1.363 . S
C219 C214 1.379 . S
C219 N217 1.356 . S
N220 C212 1.356 . S
N220 H226 0.984 . S
N220 H227 0.984 . S
N221 C214 1.356 . S
N221 H224 0.984 . S
N221 H225 0.985 . S
H222 N217 0.984 . S
H223 N217 0.985 . S
H224 N221 0.984 . S
H225 N221 0.985 . S
H226 N220 0.984 . S
H227 N220 0.984 . S
H228 N216 0.984 . S
H229 N216 0.985 . S
C230 C231 1.363 . S
C230 C236 1.379 1_554 S
C230 N238 1.356 . S
C231 C230 1.363 . S
C231 C237 1.363 . S
C232 C233 1.363 . S
C232 C237 1.379 1_556 S
C232 N239 1.356 . S
C233 C232 1.363 . S
C233 C236 1.363 . S
N234 C236 1.356 . S
N234 H246 0.984 . S
N234 H247 0.985 . S
N235 C237 1.356 . S
N235 H240 0.984 . S
N235 H241 0.985 . S
C236 C230 1.379 1_556 S
C236 C233 1.363 . S
C236 N234 1.356 . S
C237 C231 1.363 . S
C237 C232 1.379 1_554 S
C237 N235 1.356 . S
N238 C230 1.356 . S
N238 H244 0.984 . S
N238 H245 0.984 . S
N239 C232 1.356 . S
N239 H242 0.984 . S
N239 H243 0.985 . S
H240 N235 0.984 . S
H241 N235 0.985 . S
H242 N239 0.984 . S
H243 N239 0.985 . S
H244 N238 0.984 . S
H245 N238 0.984 . S
H246 N234 0.984 . S
H247 N234 0.985 . S
C248 C249 1.363 . S
C248 C254 1.379 1_545 S
C248 N256 1.356 . S
C249 C248 1.363 . S
C249 C255 1.363 1_455 S
C250 C251 1.363 . S
C250 C255 1.379 1_565 S
C250 N257 1.356 . S
C251 C250 1.363 . S
C251 C254 1.363 1_655 S
N252 C254 1.356 . S
N252 H264 0.984 . S
N252 H265 0.985 1_455 S
N253 C255 1.356 . S
N253 H258 0.984 1_655 S
N253 H259 0.985 . S
C254 C248 1.379 1_565 S
C254 C251 1.363 1_455 S
C254 N252 1.356 . S
C255 C249 1.363 1_655 S
C255 C250 1.379 1_545 S
C255 N253 1.356 . S
N256 C248 1.356 . S
N256 H262 0.984 . S
N256 H263 0.984 . S
N257 C250 1.356 . S
N257 H260 0.984 . S
N257 H261 0.985 . S
H258 N253 0.984 1_455 S
H259 N253 0.985 . S
H260 N257 0.984 . S
H261 N257 0.985 . S
H262 N256 0.984 . S
H263 N256 0.984 . S
H264 N252 0.984 . S
H265 N252 0.985 1_655 S
C266 C267 1.363 . S
C266 C272 1.379 1_455 S
C266 N274 1.356 . S
C267 C266 1.363 . S
C267 C273 1.363 . S
C268 C269 1.363 . S
C268 C273 1.379 1_655 S
C268 N275 1.356 . S
C269 C268 1.363 . S
C269 C272 1.363 . S
N270 C272 1.356 . S
N270 H282 0.984 . S
N270 H283 0.985 . S
N271 C273 1.356 . S
N271 H276 0.984 . S
N271 H277 0.985 . S
C272 C266 1.379 1_655 S
C272 C269 1.363 . S
C272 N270 1.356 . S
C273 C267 1.363 . S
C273 C268 1.379 1_455 S
C273 N271 1.356 . S
N274 C266 1.356 . S
N274 H280 0.984 . S
N274 H281 0.984 . S
N275 C268 1.356 . S
N275 H278 0.984 . S
N275 H279 0.985 . S
H276 N271 0.984 . S
H277 N271 0.985 . S
H278 N275 0.984 . S
H279 N275 0.985 . S
H280 N274 0.984 . S
H281 N274 0.984 . S
H282 N270 0.984 . S
H283 N270 0.985 . S
C284 C285 1.363 . S
C284 C290 1.379 . S
C284 N292 1.356 . S
C285 C284 1.363 . S
C285 C291 1.363 . S
C286 C287 1.363 . S
C286 C291 1.379 . S
C286 N293 1.356 . S
C287 C286 1.363 . S
C287 C290 1.363 . S
N288 C290 1.356 . S
N288 H300 0.984 . S
N288 H301 0.985 . S
N289 C291 1.356 . S
N289 H294 0.984 . S
N289 H295 0.985 . S
C290 C284 1.379 . S
C290 C287 1.363 . S
C290 N288 1.356 . S
C291 C285 1.363 . S
C291 C286 1.379 . S
C291 N289 1.356 . S
N292 C284 1.356 . S
N292 H298 0.984 . S
N292 H299 0.984 . S
N293 C286 1.356 . S
N293 H296 0.984 . S
N293 H297 0.985 . S
H294 N289 0.984 . S
H295 N289 0.985 . S
H296 N293 0.984 . S
H297 N293 0.985 . S
H298 N292 0.984 . S
H299 N292 0.984 . S
H300 N288 0.984 . S
H301 N288 0.985 . S
C302 C303 1.363 1_545 S
C302 C308 1.379 . S
C302 N310 1.356 . S
C303 C302 1.363 1_565 S
C303 C309 1.363 . S
C304 C305 1.363 1_565 S
C304 C309 1.379 . S
C304 N311 1.356 . S
C305 C304 1.363 1_545 S
C305 C308 1.363 . S
N306 C308 1.356 . S
N306 H318 0.984 . S
N306 H319 0.985 . S
N307 C309 1.356 . S
N307 H312 0.984 . S
N307 H313 0.985 . S
C308 C302 1.379 . S
C308 C305 1.363 . S
C308 N306 1.356 . S
C309 C303 1.363 . S
C309 C304 1.379 . S
C309 N307 1.356 . S
N310 C302 1.356 . S
N310 H316 0.984 . S
N310 H317 0.984 1_545 S
N311 C304 1.356 . S
N311 H314 0.984 1_565 S
N311 H315 0.985 . S
H312 N307 0.984 . S
H313 N307 0.985 . S
H314 N311 0.984 1_545 S
H315 N311 0.985 . S
H316 N310 0.984 . S
H317 N310 0.984 1_565 S
H318 N306 0.984 . S
H319 N306 0.985 . S
C320 C321 1.363 1_455 S
C320 C326 1.379 . S
C320 N328 1.356 . S
C321 C320 1.363 1_655 S
C321 C327 1.363 . S
C322 C323 1.363 1_655 S
C322 C327 1.379 . S
C322 N329 1.356 . S
C323 C322 1.363 1_455 S
C323 C326 1.363 . S
N324 C326 1.356 . S
N324 H336 0.984 . S
N324 H337 0.985 . S
N325 C327 1.356 . S
N325 H330 0.984 . S
N325 H331 0.985 . S
C326 C320 1.379 . S
C326 C323 1.363 . S
C326 N324 1.356 . S
C327 C321 1.363 . S
C327 C322 1.379 . S
C327 N325 1.356 . S
N328 C320 1.356 . S
N328 H334 0.984 . S
N328 H335 0.984 1_455 S
N329 C322 1.356 . S
N329 H332 0.984 1_655 S
N329 H333 0.985 . S
H330 N325 0.984 . S
H331 N325 0.985 . S
H332 N329 0.984 1_455 S
H333 N329 0.985 . S
H334 N328 0.984 . S
H335 N328 0.984 1_655 S
H336 N324 0.984 . S
H337 N324 0.985 . S
C338 C339 1.363 . S
C338 C344 1.379 . S
C338 N346 1.356 . S
C339 C338 1.363 . S
C339 C345 1.363 . S
C340 C341 1.363 . S
C340 C345 1.379 . S
C340 N347 1.356 . S
C341 C340 1.363 . S
C341 C344 1.363 . S
N342 C344 1.356 . S
N342 H354 0.984 . S
N342 H355 0.985 . S
N343 C345 1.356 . S
N343 H348 0.984 . S
N343 H349 0.985 . S
C344 C338 1.379 . S
C344 C341 1.363 . S
C344 N342 1.356 . S
C345 C339 1.363 . S
C345 C340 1.379 . S
C345 N343 1.356 . S
N346 C338 1.356 . S
N346 H352 0.984 . S
N346 H353 0.984 . S
N347 C340 1.356 . S
N347 H350 0.984 . S
N347 H351 0.985 . S
H348 N343 0.984 . S
H349 N343 0.985 . S
H350 N347 0.984 . S
H351 N347 0.985 . S
H352 N346 0.984 . S
H353 N346 0.984 . S
H354 N342 0.984 . S
H355 N342 0.985 . S
C356 C357 1.363 . S
C356 C362 1.379 1_545 S
C356 N364 1.356 . S
C357 C356 1.363 . S
C357 C363 1.363 . S
C358 C359 1.363 . S
C358 C363 1.379 1_565 S
C358 N365 1.356 . S
C359 C358 1.363 . S
C359 C362 1.363 . S
N360 C362 1.356 . S
N360 H372 0.984 . S
N360 H373 0.985 . S
N361 C363 1.356 . S
N361 H366 0.984 . S
N361 H367 0.985 . S
C362 C356 1.379 1_565 S
C362 C359 1.363 . S
C362 N360 1.356 . S
C363 C357 1.363 . S
C363 C358 1.379 1_545 S
C363 N361 1.356 . S
N364 C356 1.356 . S
N364 H370 0.984 . S
N364 H371 0.984 . S
N365 C358 1.356 . S
N365 H368 0.984 . S
N365 H369 0.985 . S
H366 N361 0.984 . S
H367 N361 0.985 . S
H368 N365 0.984 . S
H369 N365 0.985 . S
H370 N364 0.984 . S
H371 N364 0.984 . S
H372 N360 0.984 . S
H373 N360 0.985 . S
C374 C375 1.363 1_545 S
C374 C380 1.379 1_655 S
C374 N382 1.356 . S
C375 C374 1.363 1_565 S
C375 C381 1.363 . S
C376 C377 1.363 1_565 S
C376 C381 1.379 1_455 S
C376 N383 1.356 . S
C377 C376 1.363 1_545 S
C377 C380 1.363 . S
N378 C380 1.356 . S
N378 H390 0.984 . S
N378 H391 0.985 . S
N379 C381 1.356 . S
N379 H384 0.984 . S
N379 H385 0.985 . S
C380 C374 1.379 1_455 S
C380 C377 1.363 . S
C380 N378 1.356 . S
C381 C375 1.363 . S
C381 C376 1.379 1_655 S
C381 N379 1.356 . S
N382 C374 1.356 . S
N382 H388 0.984 . S
N382 H389 0.984 1_545 S
N383 C376 1.356 . S
N383 H386 0.984 1_565 S
N383 H387 0.985 . S
H384 N379 0.984 . S
H385 N379 0.985 . S
H386 N383 0.984 1_545 S
H387 N383 0.985 . S
H388 N382 0.984 . S
H389 N382 0.984 1_565 S
H390 N378 0.984 . S
H391 N378 0.985 . S
C105 C10 1.312 . S
C107 C75 1.312 . S
C123 C21 1.207 . S
C125 C86 1.207 . S
C141 C36 1.312 . S
C143 C101 1.312 . S
C159 C47 1.207 . S
C161 C60 1.207 . S
C177 C99 1.207 . S
C179 C8 1.207 . S
C195 C62 1.312 . S
C197 C23 1.312 . S
C213 C34 1.207 . S
C215 C73 1.207 . S
C231 C88 1.312 . S
C233 C49 1.312 . S
C249 C5 1.498 . S
C251 C83 1.498 . S
C267 C91 1.514 . S
C269 C13 1.514 . S
C285 C31 1.498 . S
C287 C57 1.498 . S
C303 C39 1.514 . S
C305 C65 1.514 . S
C321 C78 1.514 . S
C323 C0 1.514 . S
C339 C96 1.498 . S
C341 C18 1.498 . S
C357 C26 1.514 . S
C359 C52 1.514 . S
C375 C44 1.498 . S
C377 C70 1.498 . S
