# Generated by pormake.
# Topology bcg, (8)-cn, num edge types: 1
# Building blocks:
#     Node 0, Type 0, BuildingBlock: AJUNOK_clean_sbu_0, # of connection points: 8
#     Node 1, Type 0, BuildingBlock: AJUNOK_clean_sbu_0, # of connection points: 8
#     Node 2, Type 0, BuildingBlock: AJUNOK_clean_sbu_0, # of connection points: 8
#     Node 3, Type 0, BuildingBlock: AJUNOK_clean_sbu_0, # of connection points: 8
#     Edge 4, Type (0, 0), BuildingBlock: XUDNAN_clean_linker_2, # of connection points: 2
#     Edge 5, Type (0, 0), BuildingBlock: XUDNAN_clean_linker_2, # of connection points: 2
#     Edge 6, Type (0, 0), BuildingBlock: XUDNAN_clean_linker_2, # of connection points: 2
#     Edge 7, Type (0, 0), BuildingBlock: XUDNAN_clean_linker_2, # of connection points: 2
#     Edge 8, Type (0, 0), BuildingBlock: XUDNAN_clean_linker_2, # of connection points: 2
#     Edge 9, Type (0, 0), BuildingBlock: XUDNAN_clean_linker_2, # of connection points: 2
#     Edge 10, Type (0, 0), BuildingBlock: XUDNAN_clean_linker_2, # of connection points: 2
#     Edge 11, Type (0, 0), BuildingBlock: XUDNAN_clean_linker_2, # of connection points: 2
#     Edge 12, Type (0, 0), BuildingBlock: XUDNAN_clean_linker_2, # of connection points: 2
#     Edge 13, Type (0, 0), BuildingBlock: XUDNAN_clean_linker_2, # of connection points: 2
#     Edge 14, Type (0, 0), BuildingBlock: XUDNAN_clean_linker_2, # of connection points: 2
#     Edge 15, Type (0, 0), BuildingBlock: XUDNAN_clean_linker_2, # of connection points: 2
#     Edge 16, Type (0, 0), BuildingBlock: XUDNAN_clean_linker_2, # of connection points: 2
#     Edge 17, Type (0, 0), BuildingBlock: XUDNAN_clean_linker_2, # of connection points: 2
#     Edge 18, Type (0, 0), BuildingBlock: XUDNAN_clean_linker_2, # of connection points: 2
#     Edge 19, Type (0, 0), BuildingBlock: XUDNAN_clean_linker_2, # of connection points: 2
# Relax obj value: 0.150
# Max RMSD: 0.197
# Mean RMSD: 0.197
data_MOF--net-bcg--node1-AJUNOK_clean_sbu_0--edge1-XUDNAN_clean_linker_2
_symmetry_space_group_name_H-M    P1
_symmetry_Int_Tables_number       1
_symmetry_cell_setting            triclinic
loop_
_symmetry_equiv_pos_as_xyz
'x, y, z'
_cell_length_a     16.725703
_cell_length_b     25.68303
_cell_length_c     38.155438
_cell_angle_alpha  89.646411
_cell_angle_beta   90.334527
_cell_angle_gamma 89.631805
loop_
_atom_site_label
_atom_site_type_symbol
_atom_site_fract_x
_atom_site_fract_y
_atom_site_fract_z
_atom_type_partial_charge
Cd0 Cd 0.12253 0.28197 0.02113 0.0
Cd1 Cd 0.32192 0.18928 0.01401 0.0
C2 C 0.1101 0.3379 0.09467 0.0
N3 N 0.12617 0.28973 0.08189 0.0
C4 C 0.09851 0.25069 0.13755 0.0
C5 C 0.07545 0.29944 0.15053 0.0
C6 C 0.0843 0.34368 0.12915 0.0
C7 C 0.12257 0.24657 0.10268 0.0
H8 H 0.11071 0.37123 0.0772 0.0
H9 H 0.13341 0.20858 0.09173 0.0
C10 C 0.14993 0.13982 0.02727 0.0
C11 C 0.30073 0.15627 0.93425 0.0
C12 C 0.30921 0.15866 0.89782 0.0
C13 C 0.31216 0.20733 0.88094 0.0
C14 C 0.30124 0.25231 0.90102 0.0
C15 C 0.29342 0.24814 0.93723 0.0
N16 N 0.29574 0.20071 0.95339 0.0
H17 H 0.30317 0.11895 0.94751 0.0
H18 H 0.2885 0.28334 0.952 0.0
C19 C 0.303 0.15683 0.09547 0.0
N20 N 0.30353 0.20028 0.07485 0.0
C21 C 0.31905 0.25418 0.12536 0.0
C22 C 0.32095 0.21008 0.14719 0.0
C23 C 0.31136 0.16086 0.1319 0.0
C24 C 0.31085 0.24837 0.08928 0.0
H25 H 0.30025 0.11882 0.08351 0.0
H26 H 0.31345 0.28255 0.0731 0.0
C27 C 0.30989 0.33073 1.01209 0.0
C28 C -0.03656 0.31719 0.02032 0.0
N29 N 0.11402 0.266 0.96028 0.0
C30 C 0.11525 0.30851 0.9388 0.0
C31 C 0.09931 0.30363 0.90293 0.0
C32 C 0.08272 0.2544 0.88897 0.0
C33 C 0.08341 0.2111 0.91155 0.0
C34 C 0.09795 0.21787 0.94729 0.0
C35 C 0.48099 0.15029 1.01305 0.0
O36 O 0.13438 0.1881 0.02574 0.0
O37 O 0.22005 0.12385 0.02096 0.0
O38 O 0.33718 0.28441 1.01065 0.0
O39 O 0.2361 0.33989 0.01708 0.0
O40 O -0.01188 0.27734 0.03687 0.0
O41 O 0.01504 0.34426 1.00433 0.0
O42 O 0.45436 0.18123 0.03578 0.0
O43 O 0.43087 0.13277 0.99127 0.0
H44 H 0.12661 0.34653 0.94973 0.0
H45 H 0.09393 0.18462 0.96447 0.0
H46 H 0.0916 0.21568 0.1532 0.0
H47 H 0.06671 0.38187 0.13835 0.0
H48 H 0.31635 0.12293 0.88322 0.0
H49 H 0.30336 0.29073 0.88922 0.0
H50 H 0.3277 0.29286 0.13583 0.0
H51 H 0.31252 0.12579 0.1478 0.0
H52 H 0.09951 0.33798 0.88632 0.0
H53 H 0.06966 0.17257 0.90192 0.0
Cd54 Cd 0.59596 0.7836 0.02774 0.0
Cd55 Cd 0.80153 0.71981 1.00517 0.0
C56 C 0.63983 0.82115 0.10502 0.0
N57 N 0.63154 0.77576 0.08725 0.0
C58 C 0.61006 0.72945 0.14111 0.0
C59 C 0.61455 0.77625 0.1599 0.0
C60 C 0.63238 0.82219 0.14141 0.0
C61 C 0.61831 0.73013 0.10459 0.0
H62 H 0.64476 0.85749 0.09086 0.0
H63 H 0.60825 0.69482 0.09003 0.0
C64 C 0.62413 0.65114 1.01244 0.0
C65 C 0.80105 0.6902 0.92377 0.0
C66 C 0.82784 0.69447 0.88917 0.0
C67 C 0.85031 0.74338 0.87593 0.0
C68 C 0.83767 0.78749 0.8968 0.0
C69 C 0.81039 0.78151 0.9311 0.0
N70 N 0.79561 0.73321 0.94429 0.0
H71 H 0.79158 0.6521 0.93521 0.0
H72 H 0.80744 0.81514 0.94783 0.0
C73 C 0.793 0.67901 0.08449 0.0
N74 N 0.81305 0.72341 0.0671 0.0
C75 C 0.87868 0.75577 0.11859 0.0
C76 C 0.86262 0.7091 0.1364 0.0
C77 C 0.81734 0.67099 0.11925 0.0
C78 C 0.85452 0.7618 0.0836 0.0
H79 H 0.76255 0.64826 0.07065 0.0
H80 H 0.87432 0.79556 0.06921 0.0
C81 C 0.76787 0.85426 0.02178 0.0
C82 C 0.43866 0.82036 0.04022 0.0
N83 N 0.60028 0.7802 0.96518 0.0
C84 C 0.61528 0.82581 0.94821 0.0
C85 C 0.60395 0.83026 0.91188 0.0
C86 C 0.57748 0.78714 0.89238 0.0
C87 C 0.56585 0.74001 0.91051 0.0
C88 C 0.57561 0.73775 0.94688 0.0
C89 C 0.953 0.67117 1.00251 0.0
O90 O 0.58266 0.68912 0.02349 0.0
O91 O 0.69609 0.65712 1.00322 0.0
O92 O 0.80681 0.81393 1.01299 0.0
O93 O 0.69427 0.85215 0.02919 0.0
O94 O 0.47337 0.78575 0.05832 0.0
O95 O 0.47857 0.8406 0.01562 0.0
O96 O 0.93713 0.71439 0.9879 0.0
O97 O 0.89572 0.64779 0.01715 0.0
H98 H 0.63199 0.85974 0.96312 0.0
H99 H 0.55914 0.70252 0.96023 0.0
H100 H 0.59672 0.69308 0.15427 0.0
H101 H 0.63441 0.85943 0.15452 0.0
H102 H 0.83724 0.65944 0.87405 0.0
H103 H 0.85336 0.82597 0.88743 0.0
H104 H 0.91491 0.78558 0.13068 0.0
H105 H 0.80408 0.63435 0.13209 0.0
H106 H 0.61228 0.86796 0.89971 0.0
H107 H 0.54686 0.70524 0.89703 0.0
Cd108 Cd 0.29757 0.77957 0.52205 0.0
Cd109 Cd 0.09626 0.70347 0.50705 0.0
C110 C 0.30805 0.82467 0.44458 0.0
N111 N 0.30234 0.77736 0.4605 0.0
C112 C 0.34904 0.73503 0.40859 0.0
C113 C 0.36125 0.78369 0.39258 0.0
C114 C 0.33717 0.82872 0.41046 0.0
C115 C 0.32019 0.73274 0.44297 0.0
H116 H 0.29629 0.85963 0.45938 0.0
H117 H 0.31779 0.69562 0.45633 0.0
C118 C 0.27115 0.6397 0.5198 0.0
C119 C 0.10155 0.67604 0.58835 0.0
C120 C 0.08958 0.67999 0.62449 0.0
C121 C 0.08527 0.72926 0.63998 0.0
C122 C 0.09557 0.77349 0.61879 0.0
C123 C 0.10531 0.7678 0.58264 0.0
N124 N 0.10743 0.71958 0.568 0.0
H125 H 0.10215 0.63808 0.57624 0.0
H126 H 0.10811 0.80217 0.56653 0.0
C127 C 0.11007 0.65043 0.43202 0.0
N128 N 0.12065 0.69808 0.44653 0.0
C129 C 0.11206 0.73872 0.38989 0.0
C130 C 0.09667 0.69029 0.37436 0.0
C131 C 0.09831 0.64558 0.39588 0.0
C132 C 0.12345 0.74179 0.42618 0.0
H133 H 0.10486 0.61656 0.44883 0.0
H134 H 0.13008 0.77951 0.43809 0.0
C135 C 0.12092 0.84123 0.50285 0.0
C136 C 0.45179 0.82219 0.52325 0.0
N137 N 0.29568 0.77579 0.58391 0.0
C138 C 0.2896 0.82274 0.60001 0.0
C139 C 0.31549 0.82861 0.63465 0.0
C140 C 0.3475 0.78568 0.65301 0.0
C141 C 0.34671 0.73675 0.6368 0.0
C142 C 0.32129 0.73273 0.60186 0.0
C143 C 0.93672 0.66757 0.50699 0.0
O144 O 0.3069 0.68291 0.52353 0.0
O145 O 0.19718 0.638 0.51272 0.0
O146 O 0.08866 0.79691 0.50024 0.0
O147 O 0.19284 0.84561 0.51302 0.0
O148 O 0.43445 0.77844 0.51039 0.0
O149 O 0.3956 0.84883 0.53627 0.0
O150 O -0.03804 0.70363 0.48743 0.0
O151 O -0.01184 0.64412 0.5258 0.0
H152 H 0.27082 0.85661 0.58504 0.0
H153 H 0.32818 0.69606 0.58851 0.0
H154 H 0.36766 0.69945 0.39582 0.0
H155 H 0.34539 0.86697 0.39897 0.0
H156 H 0.08213 0.64496 0.64005 0.0
H157 H 0.09209 0.81221 0.6298 0.0
H158 H 0.11248 0.77414 0.37435 0.0
H159 H 0.08551 0.60748 0.38533 0.0
H160 H 0.31465 0.86695 0.64633 0.0
H161 H 0.37158 0.70282 0.64999 0.0
Cd162 Cd 0.81556 0.28869 0.52111 0.0
Cd163 Cd 0.59832 0.19915 0.51694 0.0
C164 C 0.78716 0.32141 0.44026 0.0
N165 N 0.82279 0.28378 0.46014 0.0
C166 C 0.88404 0.24688 0.40945 0.0
C167 C 0.84959 0.28598 0.38814 0.0
C168 C 0.79998 0.32339 0.40414 0.0
C169 C 0.87112 0.24715 0.44553 0.0
H170 H 0.75116 0.35112 0.4526 0.0
H171 H 0.90184 0.21891 0.46194 0.0
C172 C 0.78002 0.14826 0.50604 0.0
C173 C 0.58824 0.16155 0.59695 0.0
C174 C 0.5642 0.16474 0.63194 0.0
C175 C 0.55956 0.21363 0.64802 0.0
C176 C 0.58746 0.25732 0.62978 0.0
C177 C 0.61066 0.25243 0.59497 0.0
N178 N 0.60694 0.20546 0.57866 0.0
H179 H 0.58555 0.12458 0.58363 0.0
H180 H 0.62639 0.2871 0.58085 0.0
C181 C 0.5668 0.16347 0.43828 0.0
N182 N 0.59284 0.20622 0.45572 0.0
C183 C 0.57522 0.25892 0.40437 0.0
C184 C 0.54307 0.21625 0.38642 0.0
C185 C 0.54191 0.16754 0.40331 0.0
C186 C 0.59969 0.25306 0.43922 0.0
H187 H 0.56035 0.12696 0.45223 0.0
H188 H 0.61952 0.28675 0.45345 0.0
C189 C 0.63775 0.3397 0.51941 0.0
C190 C -0.02875 0.32495 0.53039 0.0
N191 N 0.80466 0.272 0.58125 0.0
C192 C 0.81934 0.31354 0.60218 0.0
C193 C 0.84397 0.30606 0.63694 0.0
C194 C 0.85422 0.25524 0.65019 0.0
C195 C 0.83258 0.21324 0.62869 0.0
C196 C 0.80858 0.22249 0.59404 0.0
C197 C 0.43991 0.16468 0.51954 0.0
O198 O 0.80837 0.19366 0.51014 0.0
O199 O 0.7056 0.13996 0.508 0.0
O200 O 0.62384 0.29133 0.51856 0.0
O201 O 0.70965 0.35458 0.52074 0.0
O202 O 0.94979 0.27835 0.53495 0.0
O203 O 0.91909 0.35778 0.5202 0.0
O204 O 0.46031 0.20983 0.50968 0.0
O205 O 0.49478 0.13275 0.52817 0.0
H206 H 0.8189 0.35234 0.59097 0.0
H207 H 0.79882 0.1899 0.57686 0.0
H208 H 0.92181 0.21671 0.39862 0.0
H209 H 0.77359 0.35523 0.38932 0.0
H210 H 0.54317 0.13007 0.6452 0.0
H211 H 0.58627 0.29557 0.64159 0.0
H212 H 0.57797 0.29701 0.3921 0.0
H213 H 0.51691 0.13379 0.39049 0.0
H214 H 0.86082 0.33961 0.65229 0.0
H215 H 0.83832 0.17344 0.63794 0.0
H216 H 0.59822 0.15828 0.06095 0.0
H217 H 0.55345 0.15046 0.94924 0.0
H218 H 0.66922 0.20733 0.93846 0.0
H219 H 0.62163 0.28542 0.0628 0.0
H220 H 0.69932 0.28896 0.09564 0.0
H221 H 0.63164 0.23482 0.09553 0.0
H222 H 0.74719 0.16709 0.09047 0.0
H223 H 0.81539 0.22059 0.09467 0.0
H224 H 0.82359 0.17701 0.058 0.0
H225 H 0.77565 0.27714 0.94123 0.0
H226 H 0.89229 0.33098 0.95673 0.0
H227 H 0.84635 0.30438 0.06683 0.0
C228 C 0.61613 0.16579 0.03414 0.0
C229 C 0.56672 0.15112 1.006 0.0
C230 C 0.59096 0.16151 0.97118 0.0
C231 C 0.6554 0.19488 0.96488 0.0
C232 C 0.69459 0.2161 0.99374 0.0
C233 C 0.67794 0.20032 0.02763 0.0
C234 C 0.72268 0.23205 0.05435 0.0
C235 C 0.66536 0.26207 0.07848 0.0
C236 C 0.78068 0.19713 0.0756 0.0
C237 C 0.76659 0.26863 0.0303 0.0
C238 C 0.74986 0.25896 0.9954 0.0
C239 C 0.78932 0.28496 0.96845 0.0
C240 C 0.85407 0.31673 0.97747 0.0
C241 C 0.87807 0.32086 1.01294 0.0
C242 C 0.82816 0.30193 0.03957 0.0
H243 H 0.0816 0.67891 0.9607 0.0
H244 H 0.00835 0.64687 0.06721 0.0
H245 H 0.12424 0.69516 0.08951 0.0
H246 H 0.31042 0.68441 0.98034 0.0
H247 H 0.31834 0.73499 0.94761 0.0
H248 H 0.24627 0.68386 0.94221 0.0
H249 H 0.13826 0.75619 0.93461 0.0
H250 H 0.208 0.80729 0.94396 0.0
H251 H 0.11937 0.8004 0.9702 0.0
H252 H 0.22449 0.76517 0.09942 0.0
H253 H 0.34291 0.8219 0.09737 0.0
H254 H 0.3424 0.81357 0.98403 0.0
C255 C 0.09386 0.67857 0.98862 0.0
C256 C 0.03583 0.66082 1.01232 0.0
C257 C 0.05246 0.66068 0.0487 0.0
C258 C 0.11703 0.68924 0.06161 0.0
C259 C 0.16521 0.71484 0.03746 0.0
C260 C 0.15757 0.70723 1.00174 0.0
C261 C 0.21299 0.74216 0.98128 0.0
C262 C 0.27575 0.70942 0.96173 0.0
C263 C 0.16682 0.77863 0.95604 0.0
C264 C 0.25021 0.77222 1.01097 0.0
C265 C 0.22145 0.75613 0.04313 0.0
C266 C 0.24871 0.77729 0.07445 0.0
C267 C 0.31436 0.81065 0.07302 0.0
C268 C 0.35171 0.82113 0.04059 0.0
C269 C 0.31422 0.80647 1.0091 0.0
H270 H 0.56161 0.82937 0.47326 0.0
H271 H 0.52823 0.83318 0.58539 0.0
H272 H 0.65043 0.78024 0.5939 0.0
H273 H 0.59144 0.70505 0.46995 0.0
H274 H 0.66554 0.70193 0.4359 0.0
H275 H 0.59658 0.75585 0.43722 0.0
H276 H 0.71029 0.82408 0.44085 0.0
H277 H 0.77958 0.77096 0.4352 0.0
H278 H 0.79071 0.81419 0.47192 0.0
H279 H 0.75606 0.71016 0.58878 0.0
H280 H 0.86971 0.65462 0.57126 0.0
H281 H 0.81558 0.68612 0.462 0.0
C282 C 0.58409 0.82266 0.49962 0.0
C283 C 0.53571 0.83377 0.52862 0.0
C284 C 0.56516 0.82452 0.56289 0.0
C285 C 0.63317 0.79314 0.56786 0.0
C286 C 0.67083 0.77362 0.53817 0.0
C287 C 0.64955 0.78983 0.50471 0.0
C288 C 0.69203 0.75865 0.47699 0.0
C289 C 0.63282 0.72863 0.45367 0.0
C290 C 0.74642 0.79406 0.45497 0.0
C291 C 0.73978 0.72194 0.50001 0.0
C292 C 0.72664 0.73089 0.5352 0.0
C293 C 0.7676 0.70329 0.56131 0.0
C294 C 0.83064 0.67063 0.5511 0.0
C295 C 0.85171 0.66735 0.51531 0.0
C296 C 0.80019 0.68823 0.48952 0.0
H297 H 0.0735 0.31903 0.47768 0.0
H298 H 0.05684 0.3466 0.58896 0.0
H299 H 0.17106 0.28725 0.59961 0.0
H300 H 0.0883 0.19102 0.48606 0.0
H301 H 0.15615 0.17789 0.45063 0.0
H302 H 0.09209 0.23444 0.44885 0.0
H303 H 0.21147 0.29815 0.44274 0.0
H304 H 0.27478 0.24153 0.43985 0.0
H305 H 0.29617 0.29092 0.47188 0.0
H306 H 0.26621 0.21138 0.59871 0.0
H307 H 0.37768 0.15251 0.58395 0.0
H308 H 0.31711 0.16622 0.474 0.0
C309 C 0.09831 0.31585 0.50394 0.0
C310 C 0.05593 0.33569 0.53266 0.0
C311 C 0.08884 0.33097 0.56672 0.0
C312 C 0.15179 0.29591 0.57307 0.0
C313 C 0.18152 0.26813 0.54471 0.0
C314 C 0.15856 0.27942 0.5106 0.0
C315 C 0.19413 0.24125 0.48501 0.0
C316 C 0.12877 0.20929 0.46657 0.0
C317 C 0.24736 0.26964 0.45833 0.0
C318 C 0.24235 0.2075 0.50996 0.0
C319 C 0.23256 0.22278 0.54438 0.0
C320 C 0.27497 0.19942 0.57185 0.0
C321 C 0.33667 0.16473 0.56333 0.0
C322 C 0.35632 0.15659 0.52781 0.0
C323 C 0.30245 0.17221 0.50132 0.0
H324 H 0.4833 0.61603 0.04055 0.0
H325 H 0.68071 0.57037 0.97362 0.0
H326 H 0.61965 0.48433 0.96543 0.0
H327 H 0.46456 0.49115 0.08299 0.0
H328 H 0.35715 0.49452 0.0859 0.0
H329 H 0.41496 0.55346 0.08605 0.0
H330 H 0.3331 0.58862 0.03297 0.0
H331 H 0.27495 0.52986 0.03271 0.0
H332 H 0.32654 0.55026 0.99366 0.0
H333 H 0.54131 0.40278 0.96601 0.0
H334 H 0.44682 0.33035 0.97414 0.0
H335 H 0.29844 0.42867 0.03962 0.0
C336 C 0.51341 0.58799 0.02404 0.0
C337 C 0.58686 0.59979 1.00782 0.0
C338 C 0.62476 0.562 0.98658 0.0
C339 C 0.59045 0.51309 0.98164 0.0
C340 C 0.51844 0.50255 0.99818 0.0
C341 C 0.4802 0.53877 0.01896 0.0
C342 C 0.40441 0.51672 0.03453 0.0
C343 C 0.41067 0.5138 0.07475 0.0
C344 C 0.3304 0.54824 0.02274 0.0
C345 C 0.40539 0.46286 0.0186 0.0
C346 C 0.47222 0.4554 0.99806 0.0
C347 C 0.48841 0.40815 0.98182 0.0
C348 C 0.43469 0.36727 0.9867 0.0
C349 C 0.36539 0.37425 1.00729 0.0
C350 C 0.35046 0.4227 0.02331 0.0
H351 H 0.64071 0.4431 0.5016 0.0
H352 H 0.48518 0.32199 0.54142 0.0
H353 H 0.37564 0.38636 0.54709 0.0
H354 H 0.57416 0.54753 0.55469 0.0
H355 H 0.57754 0.59583 0.52022 0.0
H356 H 0.64341 0.54018 0.51898 0.0
H357 H 0.58984 0.5167 0.45724 0.0
H358 H 0.52434 0.57264 0.45825 0.0
H359 H 0.48384 0.50881 0.4506 0.0
H360 H 0.28389 0.46353 0.54881 0.0
H361 H 0.21335 0.54807 0.54437 0.0
H362 H 0.42822 0.61962 0.50357 0.0
C363 C 0.5836 0.43023 0.51157 0.0
C364 C 0.57141 0.37773 0.52128 0.0
C365 C 0.49561 0.36205 0.53373 0.0
C366 C 0.43321 0.39834 0.53717 0.0
C367 C 0.44741 0.44992 0.52764 0.0
C368 C 0.52036 0.4658 0.51471 0.0
C369 C 0.51897 0.52321 0.50519 0.0
C370 C 0.58225 0.55346 0.52604 0.0
C371 C 0.52989 0.53078 0.46547 0.0
C372 C 0.43484 0.53763 0.51619 0.0
C373 C 0.39435 0.49457 0.52862 0.0
C374 C 0.31491 0.49752 0.53914 0.0
C375 C 0.27538 0.54561 0.53648 0.0
C376 C 0.31554 0.59022 0.52378 0.0
C377 C 0.39655 0.58623 0.51384 0.0
H378 H 0.11048 0.06003 0.9845 0.0
H379 H 0.042 0.13745 0.08042 0.0
H380 H 0.9321 0.07434 0.08857 0.0
H381 H 0.90198 0.03482 0.95745 0.0
H382 H 0.92781 0.97418 0.93676 0.0
H383 H -0.00047 0.02623 0.93846 0.0
H384 H 0.10201 0.96408 0.96869 0.0
H385 H 0.0307 0.91202 0.9671 0.0
H386 H 0.07448 0.93052 1.00844 0.0
H387 H 0.83257 0.00103 0.08674 0.0
H388 H 0.75089 0.92288 0.07527 0.0
H389 H 0.884 0.89447 0.98005 0.0
C390 C 0.07243 0.06329 1.00727 0.0
C391 C 0.08481 0.10266 0.0322 0.0
C392 C 0.03318 0.10712 0.06124 0.0
C393 C -0.02926 0.07161 0.06599 0.0
C394 C 0.95997 0.03297 0.04092 0.0
C395 C 0.00879 0.02903 1.01191 0.0
C396 C -0.01672 0.98493 0.98835 0.0
C397 C 0.95128 0.00631 0.95317 0.0
C398 C 0.05169 0.94555 0.98287 0.0
C399 C 0.91632 0.9622 1.00991 0.0
C400 C 0.90228 0.9913 0.03965 0.0
C401 C 0.84258 0.97821 0.0634 0.0
C402 C 0.79634 0.93402 0.05662 0.0
C403 C 0.81128 0.90317 0.02675 0.0
C404 C 0.87174 0.91756 1.00309 0.0
H405 H 0.92952 0.12292 0.53182 0.0
H406 H 0.74663 0.07548 0.45776 0.0
H407 H 0.8255 -0.00266 0.44339 0.0
H408 H 0.10686 0.06851 0.48384 0.0
H409 H 0.15454 0.04605 0.52369 0.0
H410 H 0.09175 0.10333 0.52417 0.0
H411 H 0.00581 0.06237 0.57312 0.0
H412 H 0.06795 0.00493 0.57295 0.0
H413 H -0.03844 -0.00064 0.56635 0.0
H414 H 0.91027 0.92005 0.44292 0.0
H415 H -5e-05 0.84605 0.45568 0.0
H416 H 0.13105 0.94007 0.5304 0.0
C417 C 0.90766 0.09664 0.5119 0.0
C418 C 0.83242 0.10494 0.49573 0.0
C419 C 0.80411 0.06942 0.47045 0.0
C420 C 0.8487 0.02522 0.46193 0.0
C421 C 0.9214 0.01701 0.47903 0.0
C422 C 0.9512 0.05159 0.50343 0.0
C423 C 0.02632 0.02988 0.52086 0.0
C424 C 0.09916 0.06397 0.51262 0.0
C425 C 0.01467 0.02377 0.56067 0.0
C426 C 0.03237 0.97726 0.50308 0.0
C427 C -0.02849 0.97119 0.4788 0.0
C428 C 0.95927 0.92456 0.46127 0.0
C429 C 0.01014 0.88266 0.46889 0.0
C430 C 0.07262 0.88759 0.4938 0.0
C431 C 0.08475 0.93576 0.5107 0.0
H432 H 0.55577 0.15566 0.32728 0.0
H433 H 0.4378 0.29324 0.36822 0.0
H434 H 0.36433 0.30432 0.31239 0.0
H435 H 0.57928 0.20509 0.23919 0.0
H436 H 0.56146 0.14308 0.2188 0.0
H437 H 0.60406 0.14558 0.2622 0.0
H438 H 0.49027 0.08691 0.28536 0.0
H439 H 0.44702 0.08448 0.24205 0.0
H440 H 0.38765 0.10649 0.27841 0.0
H441 H 0.30211 0.29998 0.25288 0.0
H442 H 0.26156 0.28388 0.19165 0.0
H443 H 0.42214 0.1505 0.1883 0.0
C444 C 0.51449 0.18809 0.3244 0.0
C445 C 0.50283 0.22379 0.35198 0.0
C446 C 0.44863 0.26592 0.34723 0.0
C447 C 0.4061 0.27229 0.31575 0.0
C448 C 0.41863 0.23633 0.28916 0.0
C449 C 0.47197 0.19532 0.29297 0.0
C450 C 0.4757 0.16309 0.25985 0.0
C451 C 0.56012 0.16431 0.24407 0.0
C452 C 0.44853 0.10692 0.26685 0.0
C453 C 0.41587 0.19232 0.23696 0.0
C454 C 0.38334 0.23422 0.25451 0.0
C455 C 0.3272 0.26733 0.23883 0.0
C456 C 0.30469 0.25793 0.20403 0.0
C457 C 0.33856 0.21594 0.18516 0.0
C458 C 0.39415 0.18239 0.20215 0.0
H459 H 0.49358 0.7247 0.19463 0.0
H460 H 0.68679 0.83429 0.21091 0.0
H461 H 0.64229 0.84744 0.2717 0.0
H462 H 0.34626 0.78975 0.24434 0.0
H463 H 0.3037 0.73176 0.26318 0.0
H464 H 0.35167 0.72891 0.2211 0.0
H465 H 0.44615 0.65588 0.24398 0.0
H466 H 0.39801 0.65826 0.28608 0.0
H467 H 0.50472 0.66643 0.28308 0.0
H468 H 0.57235 0.85378 0.32889 0.0
H469 H 0.48838 0.84683 0.38156 0.0
H470 H 0.34319 0.73002 0.3303 0.0
C471 C 0.52768 0.75058 0.21119 0.0
C472 C 0.59365 0.77871 0.1978 0.0
C473 C 0.63554 0.81287 0.2203 0.0
C474 C 0.61084 0.8205 0.25493 0.0
C475 C 0.54453 0.7933 0.26695 0.0
C476 C 0.50411 0.75841 0.24603 0.0
C477 C 0.43451 0.7343 0.26566 0.0
C478 C 0.35432 0.74696 0.24747 0.0
C479 C 0.4466 0.67521 0.26996 0.0
C480 C 0.44147 0.76186 0.30063 0.0
C481 C 0.50523 0.79585 0.30061 0.0
C482 C 0.52261 0.82705 0.32932 0.0
C483 C 0.47411 0.82315 0.359 0.0
C484 C 0.40894 0.78818 0.35994 0.0
C485 C 0.39275 0.75695 0.33034 0.0
H486 H 0.33124 0.73064 0.71493 0.0
H487 H 0.4622 0.85741 0.66701 0.0
H488 H 0.53885 0.86921 0.7219 0.0
H489 H 0.31345 0.78873 0.79982 0.0
H490 H 0.32548 0.72817 0.82347 0.0
H491 H 0.28368 0.7284 0.77987 0.0
H492 H 0.39242 0.66248 0.76035 0.0
H493 H 0.43487 0.66235 0.80388 0.0
H494 H 0.49645 0.67796 0.76671 0.0
H495 H 0.60471 0.86522 0.78138 0.0
H496 H 0.64553 0.85212 0.84288 0.0
H497 H 0.46297 0.73335 0.85408 0.0
C498 C 0.37615 0.76078 0.71609 0.0
C499 C 0.39057 0.79328 0.68679 0.0
C500 C 0.4495 0.83253 0.6893 0.0
C501 C 0.49381 0.83924 0.72026 0.0
C502 C 0.47824 0.80663 0.74868 0.0
C503 C 0.42026 0.76855 0.74705 0.0
C504 C 0.41332 0.74017 0.78186 0.0
C505 C 0.329 0.74679 0.79717 0.0
C506 C 0.43559 0.68231 0.77795 0.0
C507 C 0.47564 0.76874 0.8034 0.0
C508 C 0.51346 0.80618 0.78354 0.0
C509 C 0.5747 0.83649 0.79736 0.0
C510 C 0.59703 0.82899 0.83258 0.0
C511 C 0.55726 0.79214 0.85409 0.0
C512 C 0.49597 0.76147 0.83881 0.0
H513 H 0.42653 0.15231 0.84505 0.0
H514 H 0.24735 0.27416 0.83213 0.0
H515 H 0.29266 0.28898 0.77152 0.0
H516 H 0.58033 0.21392 0.79656 0.0
H517 H 0.61708 0.15503 0.77671 0.0
H518 H 0.56937 0.1523 0.81886 0.0
H519 H 0.46782 0.08519 0.79508 0.0
H520 H 0.51567 0.08744 0.75292 0.0
H521 H 0.41004 0.10068 0.75632 0.0
H522 H 0.36139 0.29412 0.714 0.0
H523 H 0.44226 0.28443 0.66063 0.0
H524 H 0.57496 0.15745 0.70959 0.0
C525 C 0.39562 0.18131 0.82923 0.0
C526 C 0.33314 0.21201 0.84332 0.0
C527 C 0.29559 0.25042 0.82198 0.0
C528 C 0.32086 0.2591 0.78753 0.0
C529 C 0.38366 0.22898 0.77476 0.0
C530 C 0.42008 0.19047 0.79473 0.0
C531 C 0.4868 0.16399 0.77462 0.0
C532 C 0.56818 0.1718 0.79279 0.0
C533 C 0.46898 0.10588 0.76943 0.0
C534 C 0.48214 0.19375 0.74027 0.0
C535 C 0.42263 0.23132 0.74111 0.0
C536 C 0.40793 0.26472 0.71294 0.0
C537 C 0.45465 0.2592 0.68289 0.0
C538 C 0.51517 0.22044 0.68114 0.0
C539 C 0.52896 0.18729 0.71025 0.0
H540 H 0.00028 0.75713 0.33544 0.0
H541 H 0.13969 0.61444 0.32766 0.0
H542 H 0.09268 0.60358 0.2668 0.0
H543 H 0.8322 0.71602 0.28462 0.0
H544 H 0.81663 0.77797 0.26313 0.0
H545 H 0.86107 0.77529 0.30623 0.0
H546 H -0.01634 0.82639 0.28367 0.0
H547 H 0.93937 0.8295 0.24055 0.0
H548 H 0.03825 0.80236 0.24645 0.0
H549 H 0.02626 0.60556 0.20796 0.0
H550 H 0.95348 0.6243 0.15277 0.0
H551 H 0.86206 0.76801 0.19676 0.0
C552 C 0.02209 0.72403 0.3208 0.0
C553 C 0.07361 0.68644 0.33659 0.0
C554 C 0.09942 0.64333 0.31649 0.0
C555 C 0.07322 0.6369 0.28181 0.0
C556 C 0.02148 0.67405 0.26735 0.0
C557 C -0.00323 0.71711 0.286 0.0
C558 C 0.94142 0.75144 0.26398 0.0
C559 C 0.8579 0.75539 0.28049 0.0
C560 C -0.02212 0.80563 0.25832 0.0
C561 C 0.93888 0.72082 0.2301 0.0
C562 C -0.01509 0.67605 0.23283 0.0
C563 C -0.00965 0.6406 0.20545 0.0
C564 C 0.94833 0.65136 0.17432 0.0
C565 C 0.90193 0.69741 0.17059 0.0
C566 C 0.89733 0.7326 0.19891 0.0
H567 H -0.01108 0.25642 0.35429 0.0
H568 H 0.75259 0.32264 0.33466 0.0
H569 H 0.78717 0.33509 0.27269 0.0
H570 H 0.10041 0.334 0.29642 0.0
H571 H 0.16328 0.28179 0.28099 0.0
H572 H 0.12137 0.27853 0.32427 0.0
H573 H 0.05775 0.18948 0.30965 0.0
H574 H 0.10015 0.19256 0.26638 0.0
H575 H -0.00599 0.1839 0.2716 0.0
H576 H 0.8492 0.34546 0.21391 0.0
H577 H 0.92952 0.34339 0.15985 0.0
H578 H 0.11993 0.26214 0.21569 0.0
C579 C 0.94344 0.2726 0.33706 0.0
C580 C 0.86816 0.28933 0.34995 0.0
C581 C 0.81153 0.31095 0.32605 0.0
C582 C 0.8303 0.3178 0.29061 0.0
C583 C 0.90527 0.30176 0.27911 0.0
C584 C 0.96037 0.27856 0.30139 0.0
C585 C 0.03575 0.26319 0.28191 0.0
C586 C 0.10952 0.29108 0.2968 0.0
C587 C 0.04757 0.20375 0.28242 0.0
C588 C 0.01502 0.28277 0.24542 0.0
C589 C 0.93964 0.30517 0.24453 0.0
C590 C 0.90802 0.32766 0.21417 0.0
C591 C 0.95428 0.3267 0.18373 0.0
C592 C 0.03096 0.303 0.18381 0.0
C593 C 0.06153 0.28057 0.21504 0.0
H594 H -0.02448 0.31217 0.84996 0.0
H595 H 0.14076 0.18175 0.84353 0.0
H596 H 0.10058 0.16803 0.78182 0.0
H597 H 0.81948 0.25525 0.79861 0.0
H598 H 0.79036 0.3154 0.77742 0.0
H599 H 0.83426 0.3164 0.82062 0.0
H600 H 0.94394 0.37922 0.79856 0.0
H601 H 0.90032 0.37847 0.75529 0.0
H602 H 0.00405 0.36108 0.76146 0.0
H603 H 0.04046 0.16739 0.72138 0.0
H604 H -0.03313 0.18062 0.66589 0.0
H605 H 0.83733 0.31015 0.71187 0.0
C606 C 0.00394 0.28118 0.83537 0.0
C607 C 0.06157 0.24812 0.8514 0.0
C608 C 0.09628 0.20733 0.83173 0.0
C609 C 0.07395 0.19933 0.7967 0.0
C610 C 0.0162 0.23215 0.7818 0.0
C611 C -0.01837 0.27228 0.80047 0.0
C612 C 0.91961 0.30115 0.77847 0.0
C613 C 0.83599 0.29677 0.79476 0.0
C614 C 0.94343 0.35837 0.77313 0.0
C615 C 0.92471 0.27097 0.74453 0.0
C616 C -0.0192 0.23137 0.74705 0.0
C617 C -0.00391 0.19811 0.71917 0.0
C618 C 0.95324 0.20564 0.68782 0.0
C619 C 0.89535 0.24605 0.68449 0.0
C620 C 0.88118 0.27901 0.71342 0.0
H621 H 0.9584 0.68717 0.67503 0.0
H622 H 0.1663 0.78498 0.6893 0.0
H623 H 0.12929 0.79839 0.75137 0.0
H624 H 0.82594 0.76331 0.72815 0.0
H625 H 0.77373 0.70805 0.74591 0.0
H626 H 0.81798 0.70427 0.70307 0.0
H627 H 0.89885 0.62259 0.7225 0.0
H628 H 0.85467 0.62608 0.76537 0.0
H629 H -0.03809 0.62569 0.76091 0.0
H630 H 0.06738 0.80338 0.81101 0.0
H631 H -0.01276 0.79797 0.86496 0.0
H632 H 0.81802 0.69742 0.81217 0.0
C633 C -0.00345 0.71084 0.69144 0.0
C634 C 0.06548 0.73488 0.6776 0.0
C635 C 0.11325 0.76641 0.69951 0.0
C636 C 0.09268 0.77416 0.73472 0.0
C637 C 0.02371 0.75053 0.74745 0.0
C638 C -0.02369 0.71948 0.72653 0.0
C639 C 0.90419 0.69976 0.74651 0.0
C640 C 0.82585 0.72007 0.72991 0.0
C641 C 0.90501 0.63998 0.74897 0.0
C642 C 0.91875 0.72425 0.782 0.0
C643 C -0.01218 0.75356 0.78188 0.0
C644 C 0.01312 0.78066 0.81137 0.0
C645 C -0.03321 0.77768 0.84181 0.0
C646 C 0.89588 0.74772 0.84268 0.0
C647 C 0.87193 0.72054 0.81231 0.0
loop_
_geom_bond_atom_site_label_1
_geom_bond_atom_site_label_2
_geom_bond_distance
_geom_bond_site_symmetry_2
_ccdc_geom_bond_type
Cd0 N3 2.334 . S
Cd0 N29 2.304 1_554 S
Cd0 O36 2.268 . S
Cd0 O39 2.273 . S
Cd0 O40 2.417 1_455 S
Cd0 O41 2.329 1_455 S
Cd1 N16 2.304 1_554 S
Cd1 N20 2.334 . S
Cd1 O37 2.273 . S
Cd1 O38 2.268 . S
Cd1 O42 2.417 . S
Cd1 O43 2.330 . S
C2 N3 1.332 . S
C2 C6 1.381 . S
C2 H8 0.931 . S
N3 Cd0 2.334 . S
N3 C2 1.332 . S
N3 C7 1.328 . S
C4 C5 1.396 . S
C4 C7 1.378 . S
C4 H46 0.931 . S
C5 C4 1.396 . S
C5 C6 1.382 . S
C6 C2 1.381 . S
C6 C5 1.382 . S
C6 H47 0.930 . S
C7 N3 1.328 . S
C7 C4 1.378 . S
C7 H9 0.930 . S
H8 C2 0.931 . S
H9 C7 0.930 . S
C10 O36 1.238 . S
C10 O37 1.253 . S
C11 C12 1.379 . S
C11 N16 1.337 . S
C11 H17 0.929 . S
C12 C11 1.379 . S
C12 C13 1.380 . S
C12 H48 0.929 . S
C13 C12 1.380 . S
C13 C14 1.399 . S
C14 C13 1.399 . S
C14 C15 1.376 . S
C14 H49 0.931 . S
C15 C14 1.376 . S
C15 N16 1.338 . S
C15 H18 0.930 . S
N16 Cd1 2.304 1_556 S
N16 C11 1.337 . S
N16 C15 1.338 . S
H17 C11 0.929 . S
H18 C15 0.930 . S
C19 N20 1.332 . S
C19 C23 1.381 . S
C19 H25 0.931 . S
N20 Cd1 2.334 . S
N20 C19 1.332 . S
N20 C24 1.328 . S
C21 C22 1.396 . S
C21 C24 1.378 . S
C21 H50 0.931 . S
C22 C21 1.396 . S
C22 C23 1.382 . S
C23 C19 1.381 . S
C23 C22 1.382 . S
C23 H51 0.930 . S
C24 N20 1.328 . S
C24 C21 1.378 . S
C24 H26 0.930 . S
H25 C19 0.931 . S
H26 C24 0.930 . S
C27 O38 1.238 . S
C27 O39 1.253 . S
C28 O40 1.239 . S
C28 O41 1.230 . S
N29 Cd0 2.304 1_556 S
N29 C30 1.337 . S
N29 C34 1.338 . S
C30 N29 1.337 . S
C30 C31 1.379 . S
C30 H44 0.929 . S
C31 C30 1.379 . S
C31 C32 1.380 . S
C31 H52 0.929 . S
C32 C31 1.380 . S
C32 C33 1.399 . S
C33 C32 1.399 . S
C33 C34 1.376 . S
C33 H53 0.931 . S
C34 N29 1.338 . S
C34 C33 1.376 . S
C34 H45 0.930 . S
C35 O42 1.239 . S
C35 O43 1.230 . S
O36 Cd0 2.268 . S
O36 C10 1.238 . S
O37 Cd1 2.273 . S
O37 C10 1.253 . S
O38 Cd1 2.268 . S
O38 C27 1.238 . S
O39 Cd0 2.273 . S
O39 C27 1.253 . S
O40 Cd0 2.417 1_655 S
O40 C28 1.239 . S
O41 Cd0 2.329 1_655 S
O41 C28 1.230 . S
O42 Cd1 2.417 . S
O42 C35 1.239 . S
O43 Cd1 2.330 . S
O43 C35 1.230 . S
H44 C30 0.929 . S
H45 C34 0.930 . S
H46 C4 0.931 . S
H47 C6 0.930 . S
H48 C12 0.929 . S
H49 C14 0.931 . S
H50 C21 0.931 . S
H51 C23 0.930 . S
H52 C31 0.929 . S
H53 C33 0.931 . S
Cd54 N57 2.334 . S
Cd54 N83 2.304 1_554 S
Cd54 O90 2.268 . S
Cd54 O93 2.273 . S
Cd54 O94 2.417 . S
Cd54 O95 2.330 . S
Cd55 N70 2.304 1_554 S
Cd55 N74 2.334 . S
Cd55 O91 2.273 . S
Cd55 O92 2.268 . S
Cd55 O96 2.417 1_655 S
Cd55 O97 2.329 1_655 S
C56 N57 1.332 . S
C56 C60 1.381 . S
C56 H62 0.931 . S
N57 Cd54 2.334 . S
N57 C56 1.332 . S
N57 C61 1.328 . S
C58 C59 1.396 . S
C58 C61 1.378 . S
C58 H100 0.931 . S
C59 C58 1.396 . S
C59 C60 1.382 . S
C60 C56 1.381 . S
C60 C59 1.382 . S
C60 H101 0.930 . S
C61 N57 1.328 . S
C61 C58 1.378 . S
C61 H63 0.930 . S
H62 C56 0.931 . S
H63 C61 0.930 . S
C64 O90 1.238 . S
C64 O91 1.253 . S
C65 C66 1.379 . S
C65 N70 1.337 . S
C65 H71 0.929 . S
C66 C65 1.379 . S
C66 C67 1.380 . S
C66 H102 0.929 . S
C67 C66 1.380 . S
C67 C68 1.399 . S
C68 C67 1.399 . S
C68 C69 1.376 . S
C68 H103 0.931 . S
C69 C68 1.376 . S
C69 N70 1.338 . S
C69 H72 0.930 . S
N70 Cd55 2.304 1_556 S
N70 C65 1.337 . S
N70 C69 1.338 . S
H71 C65 0.929 . S
H72 C69 0.930 . S
C73 N74 1.332 . S
C73 C77 1.381 . S
C73 H79 0.931 . S
N74 Cd55 2.334 . S
N74 C73 1.332 . S
N74 C78 1.328 . S
C75 C76 1.396 . S
C75 C78 1.378 . S
C75 H104 0.931 . S
C76 C75 1.396 . S
C76 C77 1.382 . S
C77 C73 1.381 . S
C77 C76 1.382 . S
C77 H105 0.930 . S
C78 N74 1.328 . S
C78 C75 1.378 . S
C78 H80 0.930 . S
H79 C73 0.931 . S
H80 C78 0.930 . S
C81 O92 1.238 . S
C81 O93 1.253 . S
C82 O94 1.239 . S
C82 O95 1.230 . S
N83 Cd54 2.304 1_556 S
N83 C84 1.337 . S
N83 C88 1.338 . S
C84 N83 1.337 . S
C84 C85 1.379 . S
C84 H98 0.929 . S
C85 C84 1.379 . S
C85 C86 1.380 . S
C85 H106 0.929 . S
C86 C85 1.380 . S
C86 C87 1.399 . S
C87 C86 1.399 . S
C87 C88 1.376 . S
C87 H107 0.931 . S
C88 N83 1.338 . S
C88 C87 1.376 . S
C88 H99 0.930 . S
C89 O96 1.239 . S
C89 O97 1.230 . S
O90 Cd54 2.268 . S
O90 C64 1.238 . S
O91 Cd55 2.273 . S
O91 C64 1.253 . S
O92 Cd55 2.268 . S
O92 C81 1.238 . S
O93 Cd54 2.273 . S
O93 C81 1.253 . S
O94 Cd54 2.417 . S
O94 C82 1.239 . S
O95 Cd54 2.330 . S
O95 C82 1.230 . S
O96 Cd55 2.417 1_455 S
O96 C89 1.239 . S
O97 Cd55 2.329 1_455 S
O97 C89 1.230 . S
H98 C84 0.929 . S
H99 C88 0.930 . S
H100 C58 0.931 . S
H101 C60 0.930 . S
H102 C66 0.929 . S
H103 C68 0.931 . S
H104 C75 0.931 . S
H105 C77 0.930 . S
H106 C85 0.929 . S
H107 C87 0.931 . S
Cd108 N111 2.334 . S
Cd108 N137 2.304 . S
Cd108 O144 2.268 . S
Cd108 O147 2.273 . S
Cd108 O148 2.417 . S
Cd108 O149 2.330 . S
Cd109 N124 2.304 . S
Cd109 N128 2.334 . S
Cd109 O145 2.273 . S
Cd109 O146 2.268 . S
Cd109 O150 2.417 1_455 S
Cd109 O151 2.329 1_455 S
C110 N111 1.332 . S
C110 C114 1.381 . S
C110 H116 0.931 . S
N111 Cd108 2.334 . S
N111 C110 1.332 . S
N111 C115 1.328 . S
C112 C113 1.396 . S
C112 C115 1.378 . S
C112 H154 0.931 . S
C113 C112 1.396 . S
C113 C114 1.382 . S
C114 C110 1.381 . S
C114 C113 1.382 . S
C114 H155 0.930 . S
C115 N111 1.328 . S
C115 C112 1.378 . S
C115 H117 0.930 . S
H116 C110 0.931 . S
H117 C115 0.930 . S
C118 O144 1.238 . S
C118 O145 1.253 . S
C119 C120 1.379 . S
C119 N124 1.337 . S
C119 H125 0.929 . S
C120 C119 1.379 . S
C120 C121 1.380 . S
C120 H156 0.929 . S
C121 C120 1.380 . S
C121 C122 1.399 . S
C122 C121 1.399 . S
C122 C123 1.376 . S
C122 H157 0.931 . S
C123 C122 1.376 . S
C123 N124 1.338 . S
C123 H126 0.930 . S
N124 Cd109 2.304 . S
N124 C119 1.337 . S
N124 C123 1.338 . S
H125 C119 0.929 . S
H126 C123 0.930 . S
C127 N128 1.332 . S
C127 C131 1.381 . S
C127 H133 0.931 . S
N128 Cd109 2.334 . S
N128 C127 1.332 . S
N128 C132 1.328 . S
C129 C130 1.396 . S
C129 C132 1.378 . S
C129 H158 0.931 . S
C130 C129 1.396 . S
C130 C131 1.382 . S
C131 C127 1.381 . S
C131 C130 1.382 . S
C131 H159 0.930 . S
C132 N128 1.328 . S
C132 C129 1.378 . S
C132 H134 0.930 . S
H133 C127 0.931 . S
H134 C132 0.930 . S
C135 O146 1.238 . S
C135 O147 1.253 . S
C136 O148 1.239 . S
C136 O149 1.230 . S
N137 Cd108 2.304 . S
N137 C138 1.337 . S
N137 C142 1.338 . S
C138 N137 1.337 . S
C138 C139 1.379 . S
C138 H152 0.929 . S
C139 C138 1.379 . S
C139 C140 1.380 . S
C139 H160 0.929 . S
C140 C139 1.380 . S
C140 C141 1.399 . S
C141 C140 1.399 . S
C141 C142 1.376 . S
C141 H161 0.931 . S
C142 N137 1.338 . S
C142 C141 1.376 . S
C142 H153 0.930 . S
C143 O150 1.239 . S
C143 O151 1.230 . S
O144 Cd108 2.268 . S
O144 C118 1.238 . S
O145 Cd109 2.273 . S
O145 C118 1.253 . S
O146 Cd109 2.268 . S
O146 C135 1.238 . S
O147 Cd108 2.273 . S
O147 C135 1.253 . S
O148 Cd108 2.417 . S
O148 C136 1.239 . S
O149 Cd108 2.330 . S
O149 C136 1.230 . S
O150 Cd109 2.417 1_655 S
O150 C143 1.239 . S
O151 Cd109 2.329 1_655 S
O151 C143 1.230 . S
H152 C138 0.929 . S
H153 C142 0.930 . S
H154 C112 0.931 . S
H155 C114 0.930 . S
H156 C120 0.929 . S
H157 C122 0.931 . S
H158 C129 0.931 . S
H159 C131 0.930 . S
H160 C139 0.929 . S
H161 C141 0.931 . S
Cd162 N165 2.334 . S
Cd162 N191 2.304 . S
Cd162 O198 2.268 . S
Cd162 O201 2.273 . S
Cd162 O202 2.417 1_655 S
Cd162 O203 2.329 1_655 S
Cd163 N178 2.304 . S
Cd163 N182 2.334 . S
Cd163 O199 2.273 . S
Cd163 O200 2.268 . S
Cd163 O204 2.417 . S
Cd163 O205 2.330 . S
C164 N165 1.332 . S
C164 C168 1.381 . S
C164 H170 0.931 . S
N165 Cd162 2.334 . S
N165 C164 1.332 . S
N165 C169 1.328 . S
C166 C167 1.396 . S
C166 C169 1.378 . S
C166 H208 0.931 . S
C167 C166 1.396 . S
C167 C168 1.382 . S
C168 C164 1.381 . S
C168 C167 1.382 . S
C168 H209 0.930 . S
C169 N165 1.328 . S
C169 C166 1.378 . S
C169 H171 0.930 . S
H170 C164 0.931 . S
H171 C169 0.930 . S
C172 O198 1.238 . S
C172 O199 1.253 . S
C173 C174 1.379 . S
C173 N178 1.337 . S
C173 H179 0.929 . S
C174 C173 1.379 . S
C174 C175 1.380 . S
C174 H210 0.929 . S
C175 C174 1.380 . S
C175 C176 1.399 . S
C176 C175 1.399 . S
C176 C177 1.376 . S
C176 H211 0.931 . S
C177 C176 1.376 . S
C177 N178 1.338 . S
C177 H180 0.930 . S
N178 Cd163 2.304 . S
N178 C173 1.337 . S
N178 C177 1.338 . S
H179 C173 0.929 . S
H180 C177 0.930 . S
C181 N182 1.332 . S
C181 C185 1.381 . S
C181 H187 0.931 . S
N182 Cd163 2.334 . S
N182 C181 1.332 . S
N182 C186 1.328 . S
C183 C184 1.396 . S
C183 C186 1.378 . S
C183 H212 0.931 . S
C184 C183 1.396 . S
C184 C185 1.382 . S
C185 C181 1.381 . S
C185 C184 1.382 . S
C185 H213 0.930 . S
C186 N182 1.328 . S
C186 C183 1.378 . S
C186 H188 0.930 . S
H187 C181 0.931 . S
H188 C186 0.930 . S
C189 O200 1.238 . S
C189 O201 1.253 . S
C190 O202 1.239 . S
C190 O203 1.230 . S
N191 Cd162 2.304 . S
N191 C192 1.337 . S
N191 C196 1.338 . S
C192 N191 1.337 . S
C192 C193 1.379 . S
C192 H206 0.929 . S
C193 C192 1.379 . S
C193 C194 1.380 . S
C193 H214 0.929 . S
C194 C193 1.380 . S
C194 C195 1.399 . S
C195 C194 1.399 . S
C195 C196 1.376 . S
C195 H215 0.931 . S
C196 N191 1.338 . S
C196 C195 1.376 . S
C196 H207 0.930 . S
C197 O204 1.239 . S
C197 O205 1.230 . S
O198 Cd162 2.268 . S
O198 C172 1.238 . S
O199 Cd163 2.273 . S
O199 C172 1.253 . S
O200 Cd163 2.268 . S
O200 C189 1.238 . S
O201 Cd162 2.273 . S
O201 C189 1.253 . S
O202 Cd162 2.417 1_455 S
O202 C190 1.239 . S
O203 Cd162 2.329 1_455 S
O203 C190 1.230 . S
O204 Cd163 2.417 . S
O204 C197 1.239 . S
O205 Cd163 2.330 . S
O205 C197 1.230 . S
H206 C192 0.929 . S
H207 C196 0.930 . S
H208 C166 0.931 . S
H209 C168 0.930 . S
H210 C174 0.929 . S
H211 C176 0.931 . S
H212 C183 0.931 . S
H213 C185 0.930 . S
H214 C193 0.929 . S
H215 C195 0.931 . S
H216 C228 0.930 . S
H217 C230 0.930 . S
H218 C231 0.930 . S
H219 C235 0.959 . S
H220 C235 0.959 . S
H221 C235 0.961 . S
H222 C236 0.960 . S
H223 C236 0.961 . S
H224 C236 0.959 . S
H225 C239 0.929 . S
H226 C240 0.931 . S
H227 C242 0.930 . S
C228 H216 0.930 . S
C228 C229 1.393 1_554 S
C228 C233 1.399 . S
C229 C228 1.393 1_556 S
C229 C230 1.384 . S
C230 H217 0.930 . S
C230 C229 1.384 . S
C230 C231 1.388 . S
C231 H218 0.930 . S
C231 C230 1.388 . S
C231 C232 1.390 . S
C232 C231 1.390 . S
C232 C233 1.394 1_556 S
C232 C238 1.465 . S
C233 C228 1.399 . S
C233 C232 1.394 1_554 S
C233 C234 1.516 . S
C234 C233 1.516 . S
C234 C235 1.502 . S
C234 C236 1.561 . S
C234 C237 1.526 . S
C235 H219 0.959 . S
C235 H220 0.959 . S
C235 H221 0.961 . S
C235 C234 1.502 . S
C236 H222 0.960 . S
C236 H223 0.961 . S
C236 H224 0.959 . S
C236 C234 1.561 . S
C237 C234 1.526 . S
C237 C238 1.396 1_554 S
C237 C242 1.390 . S
C238 C232 1.465 . S
C238 C237 1.396 1_556 S
C238 C239 1.399 . S
C239 H225 0.929 . S
C239 C238 1.399 . S
C239 C240 1.385 . S
C240 H226 0.931 . S
C240 C239 1.385 . S
C240 C241 1.393 . S
C241 C240 1.393 . S
C241 C242 1.384 1_556 S
C242 H227 0.930 . S
C242 C237 1.390 . S
C242 C241 1.384 1_554 S
H243 C255 0.930 . S
H244 C257 0.930 . S
H245 C258 0.930 . S
H246 C262 0.959 . S
H247 C262 0.959 . S
H248 C262 0.961 . S
H249 C263 0.960 . S
H250 C263 0.961 . S
H251 C263 0.959 . S
H252 C266 0.929 . S
H253 C267 0.931 . S
H254 C269 0.930 . S
C255 H243 0.930 . S
C255 C256 1.399 1_556 S
C255 C260 1.399 . S
C256 C255 1.399 1_554 S
C256 C257 1.376 . S
C257 H244 0.930 . S
C257 C256 1.376 . S
C257 C258 1.388 . S
C258 H245 0.930 . S
C258 C257 1.388 . S
C258 C259 1.390 . S
C259 C258 1.390 . S
C259 C260 1.394 1_554 S
C259 C265 1.465 . S
C260 C255 1.399 . S
C260 C259 1.394 1_556 S
C260 C261 1.516 . S
C261 C260 1.516 . S
C261 C262 1.502 . S
C261 C263 1.561 . S
C261 C264 1.526 . S
C262 H246 0.959 . S
C262 H247 0.959 . S
C262 H248 0.961 . S
C262 C261 1.502 . S
C263 H249 0.960 . S
C263 H250 0.961 . S
C263 H251 0.959 . S
C263 C261 1.561 . S
C264 C261 1.526 . S
C264 C265 1.396 1_556 S
C264 C269 1.390 . S
C265 C259 1.465 . S
C265 C264 1.396 1_554 S
C265 C266 1.399 . S
C266 H252 0.929 . S
C266 C265 1.399 . S
C266 C267 1.385 . S
C267 H253 0.931 . S
C267 C266 1.385 . S
C267 C268 1.389 . S
C268 C267 1.389 . S
C268 C269 1.387 1_554 S
C269 H254 0.930 . S
C269 C264 1.390 . S
C269 C268 1.387 1_556 S
H270 C282 0.930 . S
H271 C284 0.930 . S
H272 C285 0.930 . S
H273 C289 0.959 . S
H274 C289 0.959 . S
H275 C289 0.961 . S
H276 C290 0.960 . S
H277 C290 0.961 . S
H278 C290 0.959 . S
H279 C293 0.929 . S
H280 C294 0.931 . S
H281 C296 0.930 . S
C282 H270 0.930 . S
C282 C283 1.399 . S
C282 C287 1.399 . S
C283 C282 1.399 . S
C283 C284 1.376 . S
C284 H271 0.930 . S
C284 C283 1.376 . S
C284 C285 1.388 . S
C285 H272 0.930 . S
C285 C284 1.388 . S
C285 C286 1.390 . S
C286 C285 1.390 . S
C286 C287 1.394 . S
C286 C292 1.465 . S
C287 C282 1.399 . S
C287 C286 1.394 . S
C287 C288 1.516 . S
C288 C287 1.516 . S
C288 C289 1.502 . S
C288 C290 1.561 . S
C288 C291 1.526 . S
C289 H273 0.959 . S
C289 H274 0.959 . S
C289 H275 0.961 . S
C289 C288 1.502 . S
C290 H276 0.960 . S
C290 H277 0.961 . S
C290 H278 0.959 . S
C290 C288 1.561 . S
C291 C288 1.526 . S
C291 C292 1.396 . S
C291 C296 1.390 . S
C292 C286 1.465 . S
C292 C291 1.396 . S
C292 C293 1.399 . S
C293 H279 0.929 . S
C293 C292 1.399 . S
C293 C294 1.385 . S
C294 H280 0.931 . S
C294 C293 1.385 . S
C294 C295 1.389 . S
C295 C294 1.389 . S
C295 C296 1.387 . S
C296 H281 0.930 . S
C296 C291 1.390 . S
C296 C295 1.387 . S
H297 C309 0.930 . S
H298 C311 0.930 . S
H299 C312 0.930 . S
H300 C316 0.959 . S
H301 C316 0.959 . S
H302 C316 0.961 . S
H303 C317 0.960 . S
H304 C317 0.961 . S
H305 C317 0.959 . S
H306 C320 0.929 . S
H307 C321 0.931 . S
H308 C323 0.930 . S
C309 H297 0.930 . S
C309 C310 1.399 . S
C309 C314 1.399 . S
C310 C309 1.399 . S
C310 C311 1.376 . S
C311 H298 0.930 . S
C311 C310 1.376 . S
C311 C312 1.388 . S
C312 H299 0.930 . S
C312 C311 1.388 . S
C312 C313 1.390 . S
C313 C312 1.390 . S
C313 C314 1.394 . S
C313 C319 1.465 . S
C314 C309 1.399 . S
C314 C313 1.394 . S
C314 C315 1.516 . S
C315 C314 1.516 . S
C315 C316 1.502 . S
C315 C317 1.561 . S
C315 C318 1.526 . S
C316 H300 0.959 . S
C316 H301 0.959 . S
C316 H302 0.961 . S
C316 C315 1.502 . S
C317 H303 0.960 . S
C317 H304 0.961 . S
C317 H305 0.959 . S
C317 C315 1.561 . S
C318 C315 1.526 . S
C318 C319 1.396 . S
C318 C323 1.390 . S
C319 C313 1.465 . S
C319 C318 1.396 . S
C319 C320 1.399 . S
C320 H306 0.929 . S
C320 C319 1.399 . S
C320 C321 1.385 . S
C321 H307 0.931 . S
C321 C320 1.385 . S
C321 C322 1.389 . S
C322 C321 1.389 . S
C322 C323 1.387 . S
C323 H308 0.930 . S
C323 C318 1.390 . S
C323 C322 1.387 . S
H324 C336 0.930 . S
H325 C338 0.930 . S
H326 C339 0.930 . S
H327 C343 0.959 . S
H328 C343 0.959 . S
H329 C343 0.961 . S
H330 C344 0.960 . S
H331 C344 0.961 . S
H332 C344 0.959 . S
H333 C347 0.929 . S
H334 C348 0.931 . S
H335 C350 0.930 . S
C336 H324 0.930 . S
C336 C337 1.373 1_554 S
C336 C341 1.399 . S
C337 C336 1.373 1_556 S
C337 C338 1.409 . S
C338 H325 0.930 . S
C338 C337 1.409 . S
C338 C339 1.388 . S
C339 H326 0.930 . S
C339 C338 1.388 . S
C339 C340 1.390 . S
C340 C339 1.390 . S
C340 C341 1.394 1_556 S
C340 C346 1.465 . S
C341 C336 1.399 . S
C341 C340 1.394 1_554 S
C341 C342 1.516 . S
C342 C341 1.516 . S
C342 C343 1.502 . S
C342 C344 1.561 . S
C342 C345 1.526 . S
C343 H327 0.959 . S
C343 H328 0.959 . S
C343 H329 0.961 . S
C343 C342 1.502 . S
C344 H330 0.960 . S
C344 H331 0.961 . S
C344 H332 0.959 . S
C344 C342 1.561 . S
C345 C342 1.526 . S
C345 C346 1.396 1_554 S
C345 C350 1.390 . S
C346 C340 1.465 . S
C346 C345 1.396 1_556 S
C346 C347 1.399 . S
C347 H333 0.929 . S
C347 C346 1.399 . S
C347 C348 1.385 . S
C348 H334 0.931 . S
C348 C347 1.385 . S
C348 C349 1.389 . S
C349 C348 1.389 . S
C349 C350 1.387 1_556 S
C350 H335 0.930 . S
C350 C345 1.390 . S
C350 C349 1.387 1_554 S
H351 C363 0.930 . S
H352 C365 0.930 . S
H353 C366 0.930 . S
H354 C370 0.959 . S
H355 C370 0.959 . S
H356 C370 0.961 . S
H357 C371 0.960 . S
H358 C371 0.961 . S
H359 C371 0.959 . S
H360 C374 0.929 . S
H361 C375 0.931 . S
H362 C377 0.930 . S
C363 H351 0.930 . S
C363 C364 1.399 . S
C363 C368 1.399 . S
C364 C363 1.399 . S
C364 C365 1.376 . S
C365 H352 0.930 . S
C365 C364 1.376 . S
C365 C366 1.388 . S
C366 H353 0.930 . S
C366 C365 1.388 . S
C366 C367 1.390 . S
C367 C366 1.390 . S
C367 C368 1.394 . S
C367 C373 1.465 . S
C368 C363 1.399 . S
C368 C367 1.394 . S
C368 C369 1.516 . S
C369 C368 1.516 . S
C369 C370 1.502 . S
C369 C371 1.561 . S
C369 C372 1.526 . S
C370 H354 0.959 . S
C370 H355 0.959 . S
C370 H356 0.961 . S
C370 C369 1.502 . S
C371 H357 0.960 . S
C371 H358 0.961 . S
C371 H359 0.959 . S
C371 C369 1.561 . S
C372 C369 1.526 . S
C372 C373 1.396 . S
C372 C377 1.390 . S
C373 C367 1.465 . S
C373 C372 1.396 . S
C373 C374 1.399 . S
C374 H360 0.929 . S
C374 C373 1.399 . S
C374 C375 1.385 . S
C375 H361 0.931 . S
C375 C374 1.385 . S
C375 C376 1.389 . S
C376 C375 1.389 . S
C376 C377 1.387 . S
C377 H362 0.930 . S
C377 C372 1.390 . S
C377 C376 1.387 . S
H378 C390 0.930 . S
H379 C392 0.930 . S
H380 C393 0.930 . S
H381 C397 0.959 . S
H382 C397 0.959 . S
H383 C397 0.961 . S
H384 C398 0.960 . S
H385 C398 0.961 . S
H386 C398 0.959 . S
H387 C401 0.929 . S
H388 C402 0.931 . S
H389 C404 0.930 . S
C390 H378 0.930 . S
C390 C391 1.399 1_556 S
C390 C395 1.399 . S
C391 C390 1.399 1_554 S
C391 C392 1.376 . S
C392 H379 0.930 . S
C392 C391 1.376 . S
C392 C393 1.388 . S
C393 H380 0.930 . S
C393 C392 1.388 . S
C393 C394 1.390 . S
C394 C393 1.390 . S
C394 C395 1.394 1_554 S
C394 C400 1.465 1_445 S
C395 C390 1.399 . S
C395 C394 1.394 1_556 S
C395 C396 1.524 1_455 S
C396 C395 1.524 1_655 S
C396 C397 1.510 . S
C396 C398 1.553 1_645 S
C396 C399 1.517 1_545 S
C397 H381 0.959 . S
C397 H382 0.959 . S
C397 H383 0.961 . S
C397 C396 1.510 . S
C398 H384 0.960 . S
C398 H385 0.961 . S
C398 H386 0.959 . S
C398 C396 1.553 1_465 S
C399 C396 1.517 1_565 S
C399 C400 1.396 1_556 S
C399 C404 1.390 . S
C400 C394 1.465 1_665 S
C400 C399 1.396 1_554 S
C400 C401 1.399 . S
C401 H387 0.929 . S
C401 C400 1.399 . S
C401 C402 1.385 . S
C402 H388 0.931 . S
C402 C401 1.385 . S
C402 C403 1.389 . S
C403 C402 1.389 . S
C403 C404 1.387 1_554 S
C404 H389 0.930 . S
C404 C399 1.390 . S
C404 C403 1.387 1_556 S
H405 C417 0.930 . S
H406 C419 0.930 . S
H407 C420 0.930 . S
H408 C424 0.959 . S
H409 C424 0.959 . S
H410 C424 0.961 . S
H411 C425 0.960 1_545 S
H412 C425 0.961 1_455 S
H413 C425 0.959 . S
H414 C428 0.929 1_655 S
H415 C429 0.931 . S
H416 C431 0.930 . S
C417 H405 0.930 . S
C417 C418 1.399 . S
C417 C422 1.399 . S
C418 C417 1.399 . S
C418 C419 1.376 . S
C419 H406 0.930 . S
C419 C418 1.376 . S
C419 C420 1.388 . S
C420 H407 0.930 . S
C420 C419 1.388 . S
C420 C421 1.390 . S
C421 C420 1.390 . S
C421 C422 1.394 . S
C421 C427 1.465 1_645 S
C422 C417 1.399 . S
C422 C421 1.394 . S
C422 C423 1.516 1_655 S
C423 C422 1.516 1_455 S
C423 C424 1.502 . S
C423 C425 1.561 1_445 S
C423 C426 1.526 1_545 S
C424 H408 0.959 . S
C424 H409 0.959 . S
C424 H410 0.961 . S
C424 C423 1.502 . S
C425 H411 0.960 1_565 S
C425 H412 0.961 1_655 S
C425 H413 0.959 . S
C425 C423 1.561 1_665 S
C426 C423 1.526 1_565 S
C426 C427 1.396 . S
C426 C431 1.390 . S
C427 C421 1.465 1_465 S
C427 C426 1.396 . S
C427 C428 1.399 . S
C428 H414 0.929 1_455 S
C428 C427 1.399 . S
C428 C429 1.385 . S
C429 H415 0.931 . S
C429 C428 1.385 . S
C429 C430 1.389 . S
C430 C429 1.389 . S
C430 C431 1.387 . S
C431 H416 0.930 . S
C431 C426 1.390 . S
C431 C430 1.387 . S
H432 C444 0.930 . S
H433 C446 0.930 . S
H434 C447 0.930 . S
H435 C451 0.959 . S
H436 C451 0.959 . S
H437 C451 0.961 . S
H438 C452 0.960 . S
H439 C452 0.961 . S
H440 C452 0.959 . S
H441 C455 0.929 . S
H442 C456 0.931 . S
H443 C458 0.930 . S
C444 H432 0.930 . S
C444 C445 1.399 . S
C444 C449 1.399 . S
C445 C444 1.399 . S
C445 C446 1.376 . S
C446 H433 0.930 . S
C446 C445 1.376 . S
C446 C447 1.388 . S
C447 H434 0.930 . S
C447 C446 1.388 . S
C447 C448 1.390 . S
C448 C447 1.390 . S
C448 C449 1.394 . S
C448 C454 1.465 . S
C449 C444 1.399 . S
C449 C448 1.394 . S
C449 C450 1.516 . S
C450 C449 1.516 . S
C450 C451 1.502 . S
C450 C452 1.561 . S
C450 C453 1.526 . S
C451 H435 0.959 . S
C451 H436 0.959 . S
C451 H437 0.961 . S
C451 C450 1.502 . S
C452 H438 0.960 . S
C452 H439 0.961 . S
C452 H440 0.959 . S
C452 C450 1.561 . S
C453 C450 1.526 . S
C453 C454 1.396 . S
C453 C458 1.390 . S
C454 C448 1.465 . S
C454 C453 1.396 . S
C454 C455 1.399 . S
C455 H441 0.929 . S
C455 C454 1.399 . S
C455 C456 1.385 . S
C456 H442 0.931 . S
C456 C455 1.385 . S
C456 C457 1.389 . S
C457 C456 1.389 . S
C457 C458 1.387 . S
C458 H443 0.930 . S
C458 C453 1.390 . S
C458 C457 1.387 . S
H459 C471 0.930 . S
H460 C473 0.930 . S
H461 C474 0.930 . S
H462 C478 0.959 . S
H463 C478 0.959 . S
H464 C478 0.961 . S
H465 C479 0.960 . S
H466 C479 0.961 . S
H467 C479 0.959 . S
H468 C482 0.929 . S
H469 C483 0.931 . S
H470 C485 0.930 . S
C471 H459 0.930 . S
C471 C472 1.399 . S
C471 C476 1.399 . S
C472 C471 1.399 . S
C472 C473 1.376 . S
C473 H460 0.930 . S
C473 C472 1.376 . S
C473 C474 1.388 . S
C474 H461 0.930 . S
C474 C473 1.388 . S
C474 C475 1.390 . S
C475 C474 1.390 . S
C475 C476 1.394 . S
C475 C481 1.465 . S
C476 C471 1.399 . S
C476 C475 1.394 . S
C476 C477 1.516 . S
C477 C476 1.516 . S
C477 C478 1.502 . S
C477 C479 1.561 . S
C477 C480 1.526 . S
C478 H462 0.959 . S
C478 H463 0.959 . S
C478 H464 0.961 . S
C478 C477 1.502 . S
C479 H465 0.960 . S
C479 H466 0.961 . S
C479 H467 0.959 . S
C479 C477 1.561 . S
C480 C477 1.526 . S
C480 C481 1.396 . S
C480 C485 1.390 . S
C481 C475 1.465 . S
C481 C480 1.396 . S
C481 C482 1.399 . S
C482 H468 0.929 . S
C482 C481 1.399 . S
C482 C483 1.385 . S
C483 H469 0.931 . S
C483 C482 1.385 . S
C483 C484 1.389 . S
C484 C483 1.389 . S
C484 C485 1.387 . S
C485 H470 0.930 . S
C485 C480 1.390 . S
C485 C484 1.387 . S
H486 C498 0.930 . S
H487 C500 0.930 . S
H488 C501 0.930 . S
H489 C505 0.959 . S
H490 C505 0.959 . S
H491 C505 0.961 . S
H492 C506 0.960 . S
H493 C506 0.961 . S
H494 C506 0.959 . S
H495 C509 0.929 . S
H496 C510 0.931 . S
H497 C512 0.930 . S
C498 H486 0.930 . S
C498 C499 1.399 . S
C498 C503 1.399 . S
C499 C498 1.399 . S
C499 C500 1.376 . S
C500 H487 0.930 . S
C500 C499 1.376 . S
C500 C501 1.388 . S
C501 H488 0.930 . S
C501 C500 1.388 . S
C501 C502 1.390 . S
C502 C501 1.390 . S
C502 C503 1.394 . S
C502 C508 1.465 . S
C503 C498 1.399 . S
C503 C502 1.394 . S
C503 C504 1.516 . S
C504 C503 1.516 . S
C504 C505 1.502 . S
C504 C506 1.561 . S
C504 C507 1.526 . S
C505 H489 0.959 . S
C505 H490 0.959 . S
C505 H491 0.961 . S
C505 C504 1.502 . S
C506 H492 0.960 . S
C506 H493 0.961 . S
C506 H494 0.959 . S
C506 C504 1.561 . S
C507 C504 1.526 . S
C507 C508 1.396 . S
C507 C512 1.390 . S
C508 C502 1.465 . S
C508 C507 1.396 . S
C508 C509 1.399 . S
C509 H495 0.929 . S
C509 C508 1.399 . S
C509 C510 1.385 . S
C510 H496 0.931 . S
C510 C509 1.385 . S
C510 C511 1.389 . S
C511 C510 1.389 . S
C511 C512 1.387 . S
C512 H497 0.930 . S
C512 C507 1.390 . S
C512 C511 1.387 . S
H513 C525 0.930 . S
H514 C527 0.930 . S
H515 C528 0.930 . S
H516 C532 0.959 . S
H517 C532 0.959 . S
H518 C532 0.961 . S
H519 C533 0.960 . S
H520 C533 0.961 . S
H521 C533 0.959 . S
H522 C536 0.929 . S
H523 C537 0.931 . S
H524 C539 0.930 . S
C525 H513 0.930 . S
C525 C526 1.399 . S
C525 C530 1.399 . S
C526 C525 1.399 . S
C526 C527 1.376 . S
C527 H514 0.930 . S
C527 C526 1.376 . S
C527 C528 1.388 . S
C528 H515 0.930 . S
C528 C527 1.388 . S
C528 C529 1.390 . S
C529 C528 1.390 . S
C529 C530 1.394 . S
C529 C535 1.465 . S
C530 C525 1.399 . S
C530 C529 1.394 . S
C530 C531 1.516 . S
C531 C530 1.516 . S
C531 C532 1.502 . S
C531 C533 1.561 . S
C531 C534 1.526 . S
C532 H516 0.959 . S
C532 H517 0.959 . S
C532 H518 0.961 . S
C532 C531 1.502 . S
C533 H519 0.960 . S
C533 H520 0.961 . S
C533 H521 0.959 . S
C533 C531 1.561 . S
C534 C531 1.526 . S
C534 C535 1.396 . S
C534 C539 1.390 . S
C535 C529 1.465 . S
C535 C534 1.396 . S
C535 C536 1.399 . S
C536 H522 0.929 . S
C536 C535 1.399 . S
C536 C537 1.385 . S
C537 H523 0.931 . S
C537 C536 1.385 . S
C537 C538 1.389 . S
C538 C537 1.389 . S
C538 C539 1.387 . S
C539 H524 0.930 . S
C539 C534 1.390 . S
C539 C538 1.387 . S
H540 C552 0.930 . S
H541 C554 0.930 . S
H542 C555 0.930 . S
H543 C559 0.959 . S
H544 C559 0.959 . S
H545 C559 0.961 . S
H546 C560 0.960 . S
H547 C560 0.961 . S
H548 C560 0.959 1_455 S
H549 C563 0.929 . S
H550 C564 0.931 . S
H551 C566 0.930 . S
C552 H540 0.930 . S
C552 C553 1.399 . S
C552 C557 1.399 . S
C553 C552 1.399 . S
C553 C554 1.376 . S
C554 H541 0.930 . S
C554 C553 1.376 . S
C554 C555 1.388 . S
C555 H542 0.930 . S
C555 C554 1.388 . S
C555 C556 1.390 . S
C556 C555 1.390 . S
C556 C557 1.394 . S
C556 C562 1.465 . S
C557 C552 1.399 . S
C557 C556 1.394 . S
C557 C558 1.516 1_455 S
C558 C557 1.516 1_655 S
C558 C559 1.502 . S
C558 C560 1.561 . S
C558 C561 1.526 . S
C559 H543 0.959 . S
C559 H544 0.959 . S
C559 H545 0.961 . S
C559 C558 1.502 . S
C560 H546 0.960 . S
C560 H547 0.961 . S
C560 H548 0.959 1_655 S
C560 C558 1.561 . S
C561 C558 1.526 . S
C561 C562 1.396 1_655 S
C561 C566 1.390 . S
C562 C556 1.465 . S
C562 C561 1.396 1_455 S
C562 C563 1.399 . S
C563 H549 0.929 . S
C563 C562 1.399 . S
C563 C564 1.385 1_455 S
C564 H550 0.931 . S
C564 C563 1.385 1_655 S
C564 C565 1.389 . S
C565 C564 1.389 . S
C565 C566 1.387 . S
C566 H551 0.930 . S
C566 C561 1.390 . S
C566 C565 1.387 . S
H567 C579 0.935 . S
H568 C581 0.930 . S
H569 C582 0.930 . S
H570 C586 0.959 . S
H571 C586 0.959 . S
H572 C586 0.961 . S
H573 C587 0.960 . S
H574 C587 0.961 . S
H575 C587 0.959 . S
H576 C590 0.929 . S
H577 C591 0.931 . S
H578 C593 0.930 . S
C579 H567 0.935 . S
C579 C580 1.399 . S
C579 C584 1.399 . S
C580 C579 1.399 . S
C580 C581 1.376 . S
C581 H568 0.930 . S
C581 C580 1.376 . S
C581 C582 1.388 . S
C582 H569 0.930 . S
C582 C581 1.388 . S
C582 C583 1.390 . S
C583 C582 1.390 . S
C583 C584 1.394 . S
C583 C589 1.465 . S
C584 C579 1.399 . S
C584 C583 1.394 . S
C584 C585 1.516 1_655 S
C585 C584 1.516 1_455 S
C585 C586 1.502 . S
C585 C587 1.561 . S
C585 C588 1.526 . S
C586 H570 0.959 . S
C586 H571 0.959 . S
C586 H572 0.961 . S
C586 C585 1.502 . S
C587 H573 0.960 . S
C587 H574 0.961 . S
C587 H575 0.959 . S
C587 C585 1.561 . S
C588 C585 1.526 . S
C588 C589 1.396 1_455 S
C588 C593 1.390 . S
C589 C583 1.465 . S
C589 C588 1.396 1_655 S
C589 C590 1.399 . S
C590 H576 0.929 . S
C590 C589 1.399 . S
C590 C591 1.385 1_655 S
C591 H577 0.931 . S
C591 C590 1.385 1_455 S
C591 C592 1.389 . S
C592 C591 1.389 . S
C592 C593 1.387 . S
C593 H578 0.930 . S
C593 C588 1.390 . S
C593 C592 1.387 . S
H594 C606 0.930 . S
H595 C608 0.930 . S
H596 C609 0.930 . S
H597 C613 0.959 . S
H598 C613 0.959 . S
H599 C613 0.961 . S
H600 C614 0.960 . S
H601 C614 0.961 . S
H602 C614 0.959 1_455 S
H603 C617 0.929 . S
H604 C618 0.931 . S
H605 C620 0.930 . S
C606 H594 0.930 . S
C606 C607 1.399 . S
C606 C611 1.399 . S
C607 C606 1.399 . S
C607 C608 1.376 . S
C608 H595 0.930 . S
C608 C607 1.376 . S
C608 C609 1.388 . S
C609 H596 0.930 . S
C609 C608 1.388 . S
C609 C610 1.390 . S
C610 C609 1.390 . S
C610 C611 1.394 . S
C610 C616 1.465 . S
C611 C606 1.399 . S
C611 C610 1.394 . S
C611 C612 1.516 1_455 S
C612 C611 1.516 1_655 S
C612 C613 1.502 . S
C612 C614 1.561 . S
C612 C615 1.526 . S
C613 H597 0.959 . S
C613 H598 0.959 . S
C613 H599 0.961 . S
C613 C612 1.502 . S
C614 H600 0.960 . S
C614 H601 0.961 . S
C614 H602 0.959 1_655 S
C614 C612 1.561 . S
C615 C612 1.526 . S
C615 C616 1.396 1_655 S
C615 C620 1.390 . S
C616 C610 1.465 . S
C616 C615 1.396 1_455 S
C616 C617 1.399 . S
C617 H603 0.929 . S
C617 C616 1.399 . S
C617 C618 1.385 1_455 S
C618 H604 0.931 . S
C618 C617 1.385 1_655 S
C618 C619 1.389 . S
C619 C618 1.389 . S
C619 C620 1.387 . S
C620 H605 0.930 . S
C620 C615 1.390 . S
C620 C619 1.387 . S
H621 C633 0.930 1_655 S
H622 C635 0.930 . S
H623 C636 0.930 . S
H624 C640 0.959 . S
H625 C640 0.959 . S
H626 C640 0.961 . S
H627 C641 0.960 . S
H628 C641 0.961 . S
H629 C641 0.959 . S
H630 C644 0.929 . S
H631 C645 0.931 1_455 S
H632 C647 0.930 . S
C633 H621 0.930 1_455 S
C633 C634 1.399 . S
C633 C638 1.399 . S
C634 C633 1.399 . S
C634 C635 1.376 . S
C635 H622 0.930 . S
C635 C634 1.376 . S
C635 C636 1.388 . S
C636 H623 0.930 . S
C636 C635 1.388 . S
C636 C637 1.390 . S
C637 C636 1.390 . S
C637 C638 1.394 . S
C637 C643 1.465 . S
C638 C633 1.399 . S
C638 C637 1.394 . S
C638 C639 1.516 1_455 S
C639 C638 1.516 1_655 S
C639 C640 1.502 . S
C639 C641 1.561 . S
C639 C642 1.526 . S
C640 H624 0.959 . S
C640 H625 0.959 . S
C640 H626 0.961 . S
C640 C639 1.502 . S
C641 H627 0.960 . S
C641 H628 0.961 . S
C641 H629 0.959 . S
C641 C639 1.561 . S
C642 C639 1.526 . S
C642 C643 1.396 1_655 S
C642 C647 1.390 . S
C643 C637 1.465 . S
C643 C642 1.396 1_455 S
C643 C644 1.399 . S
C644 H630 0.929 . S
C644 C643 1.399 . S
C644 C645 1.385 1_455 S
C645 H631 0.931 1_655 S
C645 C644 1.385 1_655 S
C645 C646 1.389 . S
C646 C645 1.389 . S
C646 C647 1.387 . S
C647 H632 0.930 . S
C647 C642 1.390 . S
C647 C646 1.387 . S
C229 C35 0.504 1_556 S
C241 C28 0.507 1_556 S
C256 C89 0.374 . S
C268 C82 0.549 . S
C283 C136 0.550 . S
C295 C143 0.458 . S
C310 C190 0.595 . S
C322 C197 0.362 . S
C337 C64 1.697 1_556 S
C349 C27 1.702 1_556 S
C364 C189 1.694 . S
C376 C118 1.708 . S
C391 C10 1.708 . S
C403 C81 1.700 . S
C418 C172 1.711 . S
C430 C135 1.696 . S
C445 C184 1.727 . S
C457 C22 1.770 . S
C472 C59 1.777 . S
C484 C113 1.734 . S
C499 C140 1.714 . S
C511 C86 1.757 . S
C526 C13 1.766 . S
C538 C175 1.715 . S
C553 C130 1.780 . S
C565 C76 1.730 . S
C580 C167 1.783 . S
C592 C5 1.724 . S
C607 C32 1.768 . S
C619 C194 1.712 . S
C634 C121 1.769 . S
C646 C67 1.708 . S
