# Generated by pormake.
# Topology ofo, (3)-cn, num edge types: 1
# Building blocks:
#     Node 0, Type 0, BuildingBlock: WUSLED_clean_sbu_0, # of connection points: 3
#     Node 1, Type 0, BuildingBlock: WUSLED_clean_sbu_0, # of connection points: 3
#     Node 2, Type 0, BuildingBlock: WUSLED_clean_sbu_0, # of connection points: 3
#     Node 3, Type 0, BuildingBlock: WUSLED_clean_sbu_0, # of connection points: 3
#     Node 4, Type 0, BuildingBlock: WUSLED_clean_sbu_0, # of connection points: 3
#     Node 5, Type 0, BuildingBlock: WUSLED_clean_sbu_0, # of connection points: 3
#     Node 6, Type 0, BuildingBlock: WUSLED_clean_sbu_0, # of connection points: 3
#     Node 7, Type 0, BuildingBlock: WUSLED_clean_sbu_0, # of connection points: 3
#     Node 8, Type 0, BuildingBlock: WUSLED_clean_sbu_0, # of connection points: 3
#     Node 9, Type 0, BuildingBlock: WUSLED_clean_sbu_0, # of connection points: 3
#     Node 10, Type 0, BuildingBlock: WUSLED_clean_sbu_0, # of connection points: 3
#     Node 11, Type 0, BuildingBlock: WUSLED_clean_sbu_0, # of connection points: 3
#     Edge 12, Type (0, 0), BuildingBlock: AJUNOK_clean_linker_0, # of connection points: 2
#     Edge 13, Type (0, 0), BuildingBlock: AJUNOK_clean_linker_0, # of connection points: 2
#     Edge 14, Type (0, 0), BuildingBlock: AJUNOK_clean_linker_0, # of connection points: 2
#     Edge 15, Type (0, 0), BuildingBlock: AJUNOK_clean_linker_0, # of connection points: 2
#     Edge 16, Type (0, 0), BuildingBlock: AJUNOK_clean_linker_0, # of connection points: 2
#     Edge 17, Type (0, 0), BuildingBlock: AJUNOK_clean_linker_0, # of connection points: 2
#     Edge 18, Type (0, 0), BuildingBlock: AJUNOK_clean_linker_0, # of connection points: 2
#     Edge 19, Type (0, 0), BuildingBlock: AJUNOK_clean_linker_0, # of connection points: 2
#     Edge 20, Type (0, 0), BuildingBlock: AJUNOK_clean_linker_0, # of connection points: 2
#     Edge 21, Type (0, 0), BuildingBlock: AJUNOK_clean_linker_0, # of connection points: 2
#     Edge 22, Type (0, 0), BuildingBlock: AJUNOK_clean_linker_0, # of connection points: 2
#     Edge 23, Type (0, 0), BuildingBlock: AJUNOK_clean_linker_0, # of connection points: 2
#     Edge 24, Type (0, 0), BuildingBlock: AJUNOK_clean_linker_0, # of connection points: 2
#     Edge 25, Type (0, 0), BuildingBlock: AJUNOK_clean_linker_0, # of connection points: 2
#     Edge 26, Type (0, 0), BuildingBlock: AJUNOK_clean_linker_0, # of connection points: 2
#     Edge 27, Type (0, 0), BuildingBlock: AJUNOK_clean_linker_0, # of connection points: 2
#     Edge 28, Type (0, 0), BuildingBlock: AJUNOK_clean_linker_0, # of connection points: 2
#     Edge 29, Type (0, 0), BuildingBlock: AJUNOK_clean_linker_0, # of connection points: 2
# Relax obj value: 0.052
# Max RMSD: 0.063
# Mean RMSD: 0.063
data_MOF--net-ofo--node1-WUSLED_clean_sbu_0--edge1-AJUNOK_clean_linker_0
_symmetry_space_group_name_H-M    P1
_symmetry_Int_Tables_number       1
_symmetry_cell_setting            triclinic
loop_
_symmetry_equiv_pos_as_xyz
'x, y, z'
_cell_length_a     29.874443
_cell_length_b     29.872671
_cell_length_c     74.240518
_cell_angle_alpha  89.948854
_cell_angle_beta   89.984555
_cell_angle_gamma 120.07948
loop_
_atom_site_label
_atom_site_type_symbol
_atom_site_fract_x
_atom_site_fract_y
_atom_site_fract_z
_atom_type_partial_charge
C0 C 0.44596 0.36815 0.11936 0.0
C1 C 0.4928 0.37044 0.1238 0.0
C2 C 0.50272 0.42403 0.14988 0.0
C3 C 0.52116 0.3985 0.13887 0.0
C4 C 0.45623 0.42218 0.14523 0.0
C5 C 0.42811 0.39451 0.13011 0.0
U6 U 0.40393 0.2537 0.08807 0.0
O7 O 0.32687 0.19511 0.07858 0.0
O8 O 0.38635 0.24462 0.05898 0.0
C9 C 0.33762 0.20942 0.06163 0.0
C10 C 0.41419 0.33649 0.10415 0.0
C11 C 0.29879 0.21663 0.05174 0.0
C12 C 0.23 0.23782 0.05089 0.0
C13 C 0.26966 0.23568 0.06024 0.0
C14 C 0.24948 0.20394 0.02427 0.0
C15 C 0.21874 0.2209 0.03292 0.0
C16 C 0.28893 0.20165 0.03362 0.0
C17 C 0.4695 0.17136 0.09692 0.0
C18 C 0.48602 0.1154 0.07757 0.0
C19 C 0.48892 0.10845 0.11 0.0
C20 C 0.47675 0.14757 0.11204 0.0
C21 C 0.49415 0.09219 0.09277 0.0
C22 C 0.47373 0.15471 0.07962 0.0
C23 C 0.46039 0.21499 0.09986 0.0
O24 O 0.43956 0.33836 0.08942 0.0
O25 O 0.37805 0.28934 0.10844 0.0
O26 O 0.41543 0.2033 0.10687 0.0
O27 O 0.47587 0.25047 0.08718 0.0
H28 H 0.50707 0.34994 0.11577 0.0
H29 H 0.55679 0.39917 0.14219 0.0
H30 H 0.44157 0.442 0.15336 0.0
H31 H 0.39203 0.39312 0.12694 0.0
H32 H 0.20707 0.2512 0.05789 0.0
H33 H 0.27678 0.24778 0.0742 0.0
H34 H 0.24263 0.19188 1.01031 0.0
H35 H 0.31118 0.18719 0.02677 0.0
H36 H 0.49041 0.10409 0.06412 0.0
H37 H 0.4945 0.09099 0.12196 0.0
H38 H 0.47374 0.15986 0.12549 0.0
H39 H 0.46841 0.17258 0.06773 0.0
C40 C 0.10039 0.43904 0.79664 0.0
C41 C 0.14119 0.45451 0.80901 0.0
C42 C 0.11095 0.50407 0.82582 0.0
C43 C 0.1461 0.48635 0.82357 0.0
C44 C 0.07033 0.48884 0.81341 0.0
C45 C 0.06507 0.45651 0.79894 0.0
U46 U 0.1646 0.39793 0.76192 0.0
O47 O 0.14718 0.32122 0.75224 0.0
O48 O 0.14908 0.37836 0.73317 0.0
C49 C 0.13918 0.33063 0.73561 0.0
C50 C 0.09535 0.40591 0.78114 0.0
C51 C 0.09215 0.28957 0.7269 0.0
C52 C 0.99968 0.24584 0.72082 0.0
C53 C 0.04365 0.28561 0.72929 0.0
C54 C 0.0523 0.21365 0.70765 0.0
C55 C 1.00361 0.20945 0.70989 0.0
C56 C 0.09609 0.25335 0.71605 0.0
C57 C 0.31408 0.47107 0.76518 0.0
C58 C 0.37208 0.45244 0.748 0.0
C59 C 0.40661 0.52053 0.77041 0.0
C60 C 0.3567 0.51053 0.77423 0.0
C61 C 0.41488 0.49117 0.75745 0.0
C62 C 0.32192 0.44234 0.75189 0.0
C63 C 0.26207 0.45978 0.77045 0.0
O64 O 0.11328 0.4304 0.76578 0.0
O65 O 0.10865 0.37078 0.78422 0.0
O66 O 0.23275 0.41464 0.77815 0.0
O67 O 0.23708 0.47219 0.75875 0.0
H68 H 0.16929 0.44198 0.80742 0.0
H69 H 0.17763 0.49754 0.833 0.0
H70 H 0.04221 0.50125 0.81508 0.0
H71 H 0.03343 0.44514 0.78955 0.0
H72 H 0.96255 0.24305 0.72306 0.0
H73 H 0.0398 0.31304 0.73774 0.0
H74 H 0.05659 0.18636 0.69927 0.0
H75 H 0.13317 0.25575 0.71407 0.0
H76 H 0.37736 0.42977 0.73773 0.0
H77 H 0.43867 0.5503 0.77801 0.0
H78 H 0.35127 0.53301 0.78456 0.0
H79 H 0.28931 0.41182 0.74472 0.0
C80 C 0.6603 0.09251 0.45284 0.0
C81 C 0.67456 0.13981 0.46134 0.0
C82 C 0.60156 0.09644 0.4819 0.0
C83 C 0.64537 0.14175 0.47578 0.0
C84 C 0.58694 0.04945 0.47314 0.0
C85 C 0.61611 0.04745 0.45874 0.0
U86 U 0.77438 0.15911 0.42082 0.0
O87 O 0.83171 0.13797 0.41213 0.0
O88 O 0.78181 0.14535 0.39206 0.0
C89 C 0.81639 0.13139 0.39524 0.0
C90 C 0.69172 0.08974 0.43807 0.0
C91 C 0.80762 0.08329 0.38635 0.0
C92 C 0.79188 0.99499 0.38751 0.0
C93 C 0.79653 0.03872 0.39625 0.0
C94 C 0.80794 0.03913 0.35883 0.0
C95 C 0.79769 0.99477 0.3687 0.0
C96 C 0.81285 0.08286 0.36758 0.0
C97 C 0.85664 0.30861 0.42589 0.0
C98 C 0.9431 0.36653 0.41434 0.0
C99 C 0.89584 0.40153 0.4297 0.0
C100 C 0.85405 0.35154 0.43207 0.0
C101 C 0.94124 0.40963 0.4211 0.0
C102 C 0.90111 0.31631 0.41675 0.0
C103 C 0.81351 0.25657 0.43013 0.0
O104 O 0.68963 0.11087 0.4228 0.0
O105 O 0.73899 0.10166 0.44254 0.0
O106 O 0.82589 0.22484 0.438 0.0
O107 O 0.77762 0.23411 0.41774 0.0
H108 H 0.7086 0.17503 0.45695 0.0
H109 H 0.65765 0.17839 0.48241 0.0
H110 H 0.55283 1.01436 0.47744 0.0
H111 H 0.60436 1.01067 0.45229 0.0
H112 H 0.78394 0.96136 0.39545 0.0
H113 H 0.79217 0.03787 0.41075 0.0
H114 H 0.81369 0.04059 0.3444 0.0
H115 H 0.82176 0.11686 0.35968 0.0
H116 H 0.97717 0.3716 0.40736 0.0
H117 H 0.89329 0.4338 0.43516 0.0
H118 H 0.82006 0.34632 0.43918 0.0
H119 H 0.90368 0.28357 0.4118 0.0
C120 C 0.60955 0.67251 0.13463 0.0
C121 C 0.56093 0.66752 0.13792 0.0
C122 C 0.55242 0.62012 0.16565 0.0
C123 C 0.53252 0.64136 0.15327 0.0
C124 C 0.60126 0.62565 0.16235 0.0
C125 C 0.62946 0.65139 0.14695 0.0
U126 U 0.64524 0.77578 0.09874 0.0
O127 O 0.72142 0.83536 0.08854 0.0
O128 O 0.66434 0.7778 0.07003 0.0
C129 C 0.71189 0.81639 0.07213 0.0
C130 C 0.64073 0.70132 0.11885 0.0
C131 C 0.75323 0.81064 0.06352 0.0
C132 C 0.79321 0.75965 0.05547 0.0
C133 C 0.75387 0.76396 0.0642 0.0
C134 C 0.83188 0.84868 0.04556 0.0
C135 C 0.83252 0.80195 0.04598 0.0
C136 C 0.79258 0.85289 0.05421 0.0
C137 C 0.57105 0.85107 0.09998 0.0
C138 C 0.59903 0.93972 0.09114 0.0
C139 C 0.50826 0.87966 0.09674 0.0
C140 C 0.51981 0.84071 0.10055 0.0
C141 C 0.54784 0.92982 0.09227 0.0
C142 C 0.61055 0.90063 0.09488 0.0
C143 C 0.58244 0.81091 0.1062 0.0
O144 O 0.61546 0.69288 0.10357 0.0
O145 O 0.67374 0.75052 0.12172 0.0
O146 O 0.62727 0.82741 0.11419 0.0
O147 O 0.57003 0.77196 0.0952 0.0
H148 H 0.54514 0.68421 0.12871 0.0
H149 H 0.49539 0.63851 0.15562 0.0
H150 H 0.61753 0.60981 0.17163 0.0
H151 H 0.66704 0.65515 0.14473 0.0
H152 H 0.79323 0.72346 0.05633 0.0
H153 H 0.72401 0.73095 0.07143 0.0
H154 H 0.8615 0.88186 0.03833 0.0
H155 H 0.79277 0.88923 0.05353 0.0
H156 H 0.63027 0.97803 0.08772 0.0
H157 H 0.46864 0.8711 0.09809 0.0
H158 H 0.48883 0.80285 0.10457 0.0
H159 H 0.65042 0.90954 0.0943 0.0
C160 C 0.94906 0.59443 0.79198 0.0
C161 C 0.90141 0.55693 0.79927 0.0
C162 C 0.94596 0.5322 0.82113 0.0
C163 C 0.89986 0.52607 0.81375 0.0
C164 C 0.99337 0.56987 0.81376 0.0
C165 C 0.99499 0.60067 0.7993 0.0
U166 U 0.87886 0.63439 0.75918 0.0
O167 O 0.8947 0.71138 0.75029 0.0
O168 O 0.89183 0.65547 0.73048 0.0
C169 C 0.90225 0.70315 0.73347 0.0
C170 C 0.95105 0.62768 0.77701 0.0
C171 C 0.9493 0.74479 0.72482 0.0
C172 C 0.03824 0.78171 0.7144 0.0
C173 C 0.99445 0.74165 0.72287 0.0
C174 C 0.99244 0.82858 0.70991 0.0
C175 C 0.03778 0.82577 0.70795 0.0
C176 C 0.94871 0.78852 0.71827 0.0
C177 C 0.7294 0.55783 0.7642 0.0
C178 C 0.66683 0.56749 0.74616 0.0
C179 C 0.63832 0.51012 0.772 0.0
C180 C 0.68926 0.52275 0.77534 0.0
C181 C 0.62641 0.53208 0.75734 0.0
C182 C 0.71809 0.58022 0.74954 0.0
C183 C 0.78246 0.57069 0.76855 0.0
O184 O 0.93199 0.60376 0.76166 0.0
O185 O 0.93599 0.66089 0.7811 0.0
O186 O 0.81158 0.61577 0.77626 0.0
O187 O 0.80702 0.55955 0.75625 0.0
H188 H 0.86548 0.55185 0.79384 0.0
H189 H 0.86271 0.49806 0.81934 0.0
H190 H 0.02914 0.57515 0.81916 0.0
H191 H 0.03212 0.62945 0.79389 0.0
H192 H 0.07268 0.77857 0.71308 0.0
H193 H 0.99586 0.7083 0.72788 0.0
H194 H 0.99059 0.86157 0.70478 0.0
H195 H 0.91422 0.79161 0.71956 0.0
H196 H 0.65875 0.58527 0.73485 0.0
H197 H 0.60834 0.48399 0.78118 0.0
H198 H 0.69742 0.50549 0.7868 0.0
H199 H 0.74879 0.60762 0.74086 0.0
C200 C 0.37678 0.94209 0.4612 0.0
C201 C 0.38292 0.89863 0.46309 0.0
C202 C 0.43162 0.93395 0.49077 0.0
C203 C 0.41042 0.89477 0.4777 0.0
C204 C 0.42551 0.97741 0.48885 0.0
C205 C 0.39846 0.98152 0.47414 0.0
U206 U 0.26561 0.87518 0.42837 0.0
O207 O 0.20594 0.89322 0.41978 0.0
O208 O 0.25796 0.88955 0.39972 0.0
C209 C 0.22104 0.90028 0.40287 0.0
C210 C 0.34577 0.94542 0.44633 0.0
C211 C 0.22683 0.9473 0.39419 0.0
C212 C 0.26517 0.04085 0.39242 0.0
C213 C 0.26233 0.99701 0.40051 0.0
C214 C 0.19782 0.9857 0.37146 0.0
C215 C 0.23229 0.03555 0.37799 0.0
C216 C 0.19507 0.94206 0.37952 0.0
C217 C 0.18851 0.72509 0.43313 0.0
C218 C 0.12554 0.66032 0.41277 0.0
C219 C 0.13577 0.63596 0.44296 0.0
C220 C 0.17392 0.68697 0.44642 0.0
C221 C 0.11157 0.62183 0.42604 0.0
C222 C 0.16392 0.71165 0.41627 0.0
C223 C 0.22996 0.77797 0.43739 0.0
O224 O 0.34974 0.9268 0.43074 0.0
O225 O 0.29782 0.93157 0.45055 0.0
O226 O 0.2155 0.80792 0.44535 0.0
O227 O 0.26588 0.8021 0.42508 0.0
H228 H 0.36593 0.86737 0.4534 0.0
H229 H 0.41417 0.86068 0.479 0.0
H230 H 0.44172 1.00821 0.49873 0.0
H231 H 0.39394 1.0152 0.47298 0.0
H232 H 0.29215 0.07879 0.3977 0.0
H233 H 0.28728 1.0018 0.41182 0.0
H234 H 0.17282 0.98043 0.36013 0.0
H235 H 0.16766 0.90405 0.37438 0.0
H236 H 0.10721 0.65056 0.39966 0.0
H237 H 0.12481 0.60759 0.45363 0.0
H238 H 0.19217 0.69668 0.45956 0.0
H239 H 0.17451 0.74066 0.40585 0.0
C240 C 0.6726 0.59585 0.24435 0.0
C241 C 0.6755 0.61977 0.22777 0.0
C242 C 0.61684 0.53638 0.21403 0.0
C243 C 0.64846 0.5904 0.21277 0.0
C244 C 0.61402 0.51232 0.23063 0.0
C245 C 0.64151 0.5417 0.24563 0.0
U246 U 0.78165 0.63897 0.27883 0.0
O247 O 0.83922 0.71713 0.28807 0.0
O248 O 0.78628 0.65939 0.30751 0.0
C249 C 0.82235 0.7078 0.30477 0.0
C250 C 0.70249 0.62805 0.25995 0.0
C251 C 0.81499 0.74816 0.31348 0.0
C252 C 0.76032 0.78008 0.32553 0.0
C253 C 0.76563 0.74155 0.31664 0.0
C254 C 0.85347 0.83241 0.32798 0.0
C255 C 0.80425 0.82598 0.33132 0.0
C256 C 0.85873 0.79395 0.31916 0.0
C257 C 0.86439 0.57195 0.27516 0.0
C258 C 0.91239 0.55107 0.29688 0.0
C259 C 0.9329 0.55645 0.26511 0.0
C260 C 0.89452 0.56869 0.2613 0.0
C261 C 0.94205 0.54706 0.2829 0.0
C262 C 0.87388 0.56347 0.29305 0.0
C263 C 0.8216 0.58096 0.27025 0.0
O264 O 0.69746 0.60401 0.27533 0.0
O265 O 0.75056 0.66369 0.25649 0.0
O266 O 0.83488 0.62525 0.26233 0.0
O267 O 0.78371 0.56675 0.28193 0.0
H268 H 0.69899 0.66139 0.22636 0.0
H269 H 0.6519 0.61025 0.20022 0.0
H270 H 0.59121 0.47069 0.23199 0.0
H271 H 0.63856 0.52185 0.25817 0.0
H272 H 0.72184 0.77353 0.32816 0.0
H273 H 0.73124 0.7065 0.3124 0.0
H274 H 0.88805 0.8674 0.33214 0.0
H275 H 0.89716 0.79987 0.31686 0.0
H276 H 0.91804 0.54334 0.31069 0.0
H277 H 0.95538 0.55407 0.25408 0.0
H278 H 0.88777 0.57485 0.24741 0.0
H279 H 0.85104 0.56551 0.30401 0.0
C280 C 0.09993 0.67141 0.91874 0.0
C281 C 0.13771 0.65646 0.91818 0.0
C282 C 0.11067 0.62216 0.88793 0.0
C283 C 0.14269 0.63167 0.90298 0.0
C284 C 0.07303 0.63725 0.88848 0.0
C285 C 0.06766 0.66154 0.90377 0.0
U286 U 0.1637 0.77534 0.95423 0.0
O287 O 0.1447 0.83251 0.96483 0.0
O288 O 0.14821 0.77667 0.98321 0.0
C289 C 0.1367 0.81349 0.98127 0.0
C290 C 0.09516 0.69906 0.93447 0.0
C291 C 0.08917 0.80514 0.99042 0.0
C292 C 1.00113 0.79005 0.98986 0.0
C293 C 0.04428 0.79421 0.98082 0.0
C294 C 0.04663 0.80623 1.01823 0.0
C295 C 1.00198 0.79639 1.00867 0.0
C296 C 0.0897 0.81054 1.0092 0.0
C297 C 0.31356 0.85411 0.95085 0.0
C298 C 0.3731 0.94152 0.96111 0.0
C299 C 0.4063 0.88851 0.94905 0.0
C300 C 0.35578 0.84791 0.94651 0.0
C301 C 0.41554 0.93623 0.95591 0.0
C302 C 0.32241 0.90075 0.95856 0.0
C303 C 0.26143 0.81313 0.94563 0.0
O304 O 0.11242 0.69192 0.94989 0.0
O305 O 0.1087 0.74764 0.93156 0.0
O306 O 0.23154 0.82865 0.93824 0.0
O307 O 0.23689 0.77462 0.95701 0.0
H308 H 0.16361 0.66415 0.92945 0.0
H309 H 0.17201 0.62045 0.90288 0.0
H310 H 0.04733 0.62969 0.87717 0.0
H311 H 0.03842 0.67287 0.90388 0.0
H312 H 0.96773 0.78341 0.98206 0.0
H313 H 0.04289 0.78991 0.96631 0.0
H314 H 0.0484 0.81105 0.03272 0.0
H315 H 0.12389 0.81896 1.01687 0.0
H316 H 0.3791 0.97754 0.96676 0.0
H317 H 0.43815 0.88334 0.94485 0.0
H318 H 0.34968 0.81222 0.94051 0.0
H319 H 0.29026 0.90618 0.9621 0.0
C320 C 0.42933 0.08758 0.57685 0.0
C321 C 0.46736 0.13598 0.57024 0.0
C322 C 0.48555 0.09408 0.54543 0.0
C323 C 0.49532 0.13921 0.55465 0.0
C324 C 0.44733 0.04585 0.55215 0.0
C325 C 0.41946 0.04261 0.5677 0.0
U326 U 0.39702 0.15248 0.6144 0.0
O327 O 0.32263 0.13498 0.62635 0.0
O328 O 0.38249 0.1344 0.64337 0.0
C329 C 0.33452 0.12475 0.64231 0.0
C330 C 0.39961 0.08364 0.59318 0.0
C331 C 0.29478 0.07734 0.65148 0.0
C332 C 0.21346 0.99528 0.6515 0.0
C333 C 0.25307 0.03718 0.64211 0.0
C334 C 0.25753 0.03199 0.67964 0.0
C335 C 0.21471 0.99283 0.67041 0.0
C336 C 0.29696 0.07386 0.67028 0.0
C337 C 0.47126 0.3024 0.61342 0.0
C338 C 0.44548 0.36474 0.6221 0.0
C339 C 0.53589 0.39327 0.61681 0.0
C340 C 0.52301 0.34237 0.61304 0.0
C341 C 0.49715 0.40515 0.62102 0.0
C342 C 0.43261 0.31372 0.6184 0.0
C343 C 0.45854 0.25074 0.60688 0.0
O344 O 0.42681 0.10023 0.60809 0.0
O345 O 0.36594 0.0994 0.59133 0.0
O346 O 0.41256 0.22246 0.59963 0.0
O347 O 0.47255 0.22407 0.61718 0.0
H348 H 0.47553 0.17117 0.57718 0.0
H349 H 0.52509 0.17687 0.54999 0.0
H350 H 0.43869 1.0106 0.54527 0.0
H351 H 0.39015 1.00496 0.57256 0.0
H352 H 0.18101 0.96561 0.64402 0.0
H353 H 0.25042 0.03868 0.6276 0.0
H354 H 0.26024 0.03058 0.69416 0.0
H355 H 0.32877 0.10422 0.6778 0.0
H356 H 0.41489 0.37287 0.62532 0.0
H357 H 0.57587 0.42367 0.61551 0.0
H358 H 0.55335 0.33452 0.60911 0.0
H359 H 0.39237 0.28351 0.61884 0.0
C360 C 0.38294 0.45556 0.26124 0.0
C361 C 0.36009 0.47373 0.2489 0.0
C362 C 0.4392 0.51457 0.23101 0.0
C363 C 0.38793 0.50295 0.23395 0.0
C364 C 0.4629 0.49894 0.24403 0.0
C365 C 0.43482 0.46922 0.2589 0.0
U366 U 0.27004 0.40851 0.29356 0.0
O367 O 0.21216 0.33019 0.3023 0.0
O368 O 0.26228 0.38744 0.32235 0.0
C369 C 0.22667 0.33913 0.31926 0.0
C370 C 0.3527 0.42198 0.27639 0.0
C371 C 0.23334 0.29896 0.32839 0.0
C372 C 0.26167 0.2354 0.32867 0.0
C373 C 0.25981 0.2765 0.32023 0.0
C374 C 0.21211 0.23997 0.3537 0.0
C375 C 0.23686 0.21599 0.34532 0.0
C376 C 0.21027 0.28091 0.34528 0.0
C377 C 0.18706 0.47481 0.28801 0.0
C378 C 0.09501 0.44365 0.29143 0.0
C379 C 0.15577 0.53573 0.29019 0.0
C380 C 0.19659 0.52579 0.28853 0.0
C381 C 0.10444 0.49478 0.2914 0.0
C382 C 0.13597 0.43371 0.28981 0.0
C383 C 0.2305 0.46612 0.28391 0.0
O384 O 0.35499 0.44591 0.2915 0.0
O385 O 0.30553 0.38537 0.27231 0.0
O386 O 0.21897 0.42226 0.276 0.0
O387 O 0.26653 0.48024 0.29629 0.0
H388 H 0.3204 0.46466 0.25068 0.0
H389 H 0.36915 0.51623 0.22464 0.0
H390 H 0.50269 0.50828 0.24245 0.0
H391 H 0.4534 0.45625 0.26843 0.0
H392 H 0.28113 0.21775 0.32194 0.0
H393 H 0.27803 0.28999 0.3072 0.0
H394 H 0.19367 0.22668 0.3667 0.0
H395 H 0.18991 0.29789 0.35184 0.0
H396 H 0.05583 0.41136 0.29234 0.0
H397 H 0.16425 0.57547 0.28971 0.0
H398 H 0.23562 0.55805 0.28699 0.0
H399 H 0.12752 0.39398 0.28945 0.0
C400 C 0.95292 0.35559 0.91254 0.0
C401 C 0.90507 0.3478 0.90637 0.0
C402 C 0.94836 0.41138 0.88258 0.0
C403 C 0.90282 0.37555 0.89153 0.0
C404 C 0.99608 0.41901 0.88886 0.0
C405 C 0.99837 0.39135 0.9037 0.0
U406 U 0.8833 0.24799 0.9463 0.0
O407 O 0.89856 0.18713 0.95582 0.0
O408 O 0.89688 0.24187 0.97512 0.0
C409 C 0.90613 0.2037 0.97254 0.0
C410 C 0.95538 0.3256 0.92785 0.0
C411 C 0.95273 0.20887 0.98131 0.0
C412 C 0.04604 0.25312 0.98557 0.0
C413 C 1.00235 0.2502 0.97735 0.0
C414 C 0.9908 0.17377 1.00181 0.0
C415 C 0.04071 0.21449 0.9977 0.0
C416 C 0.9473 0.17096 0.99365 0.0
C417 C 0.73361 0.17411 0.94154 0.0
C418 C 0.667 0.11809 0.96286 0.0
C419 C 0.64526 0.1188 0.93146 0.0
C420 C 0.69664 0.15546 0.92776 0.0
C421 C 0.62966 0.10028 0.94908 0.0
C422 C 0.7187 0.15493 0.95913 0.0
C423 C 0.78678 0.21435 0.93701 0.0
O424 O 0.93669 0.3316 0.94312 0.0
O425 O 0.9402 0.27699 0.92425 0.0
O426 O 0.81584 0.19819 0.92942 0.0
O427 O 0.81159 0.25112 0.94896 0.0
H428 H 0.8695 0.32019 0.91303 0.0
H429 H 0.86555 0.36933 0.88714 0.0
H430 H 0.03155 0.44577 0.88208 0.0
H431 H 0.03558 0.39762 0.90819 0.0
H432 H 0.08403 0.28495 0.98218 0.0
H433 H 1.00726 0.27985 0.96783 0.0
H434 H 0.98537 0.14407 1.01138 0.0
H435 H 0.9093 0.13892 0.99693 0.0
H436 H 0.65603 0.10409 0.97653 0.0
H437 H 0.6177 0.1047 0.92048 0.0
H438 H 0.7075 0.16953 0.91409 0.0
H439 H 0.74679 0.16867 0.96994 0.0
C440 C 0.60679 0.94004 0.58423 0.0
C441 C 0.5914 0.89895 0.57203 0.0
C442 C 0.54615 0.93172 0.55388 0.0
C443 C 0.5615 0.89493 0.55696 0.0
C444 C 0.5605 0.97202 0.5664 0.0
C445 C 0.59078 0.97627 0.58139 0.0
U446 U 0.64967 0.87574 0.61836 0.0
O447 O 0.72614 0.89679 0.62918 0.0
O448 O 0.66456 0.88787 0.64757 0.0
C449 C 0.7137 0.90204 0.64573 0.0
C450 C 0.63847 0.94459 0.60008 0.0
C451 C 0.75111 0.94963 0.65527 0.0
C452 C 0.819 0.04018 0.65527 0.0
C453 C 0.78079 0.99675 0.64612 0.0
C454 C 0.7972 0.99045 0.6829 0.0
C455 C 0.82795 0.03738 0.67374 0.0
C456 C 0.7592 0.94707 0.67375 0.0
C457 C 0.5854 0.7267 0.61172 0.0
C458 C 0.56612 0.65584 0.63233 0.0
C459 C 0.56477 0.64256 0.6001 0.0
C460 C 0.57837 0.69397 0.59717 0.0
C461 C 0.55789 0.62273 0.61768 0.0
C462 C 0.5798 0.70755 0.62938 0.0
C463 C 0.59499 0.77913 0.60777 0.0
O464 O 0.61231 0.92278 0.61486 0.0
O465 O 0.67622 0.93494 0.59713 0.0
O466 O 0.64058 0.81191 0.60102 0.0
O467 O 0.57821 0.80015 0.61957 0.0
H468 H 0.60256 0.86998 0.57414 0.0
H469 H 0.55003 0.86281 0.54779 0.0
H470 H 0.54894 1.00071 0.56448 0.0
H471 H 0.60177 1.00789 0.59075 0.0
H472 H 0.84265 0.07541 0.64774 0.0
H473 H 0.77529 0.99966 0.63184 0.0
H474 H 0.80297 0.98713 0.69713 0.0
H475 H 0.73675 0.91112 0.68106 0.0
H476 H 0.56056 0.64139 0.64602 0.0
H477 H 0.55915 0.61807 0.58858 0.0
H478 H 0.5824 0.70794 0.58345 0.0
H479 H 0.58492 0.73212 0.64082 0.0
C480 C 0.58411 0.48899 0.16552 0.0
C481 C 0.53128 0.45156 0.1664 0.0
C482 C 0.61151 0.51567 0.18099 0.0
C483 C 0.58725 0.50574 0.19797 0.0
H484 H 0.60426 0.49823 0.15272 0.0
H485 H 0.65208 0.54437 0.17962 0.0
S486 S 0.45006 0.40862 0.20757 0.0
N487 N 0.45616 0.40417 0.18565 0.0
N488 N 0.50743 0.45392 0.21469 0.0
C489 C 0.53463 0.46743 0.19904 0.0
C490 C 0.50668 0.44064 0.18327 0.0
C491 C 0.11338 0.51863 0.85905 0.0
C492 C 0.11549 0.53693 0.84145 0.0
C493 C 0.11356 0.54729 0.87405 0.0
C494 C 0.11526 0.59492 0.87193 0.0
H495 H 0.11012 0.48123 0.86121 0.0
H496 H 0.11045 0.53118 0.88737 0.0
S497 S 0.13201 0.6644 0.82883 0.0
N498 N 0.12764 0.60907 0.82285 0.0
N499 N 0.12605 0.66218 0.85099 0.0
C500 C 0.12024 0.61487 0.85443 0.0
C501 C 0.1208 0.58604 0.83919 0.0
C502 C 0.56545 0.06497 0.51266 0.0
C503 C 0.57235 0.09739 0.49793 0.0
C504 C 0.53806 0.0649 0.52799 0.0
C505 C 0.51584 0.09665 0.52914 0.0
H506 H 0.58196 0.03989 0.51242 0.0
H507 H 0.53463 0.04018 0.53914 0.0
S508 S 0.52115 0.18717 0.49384 0.0
N509 N 0.55433 0.16165 0.48524 0.0
N510 N 0.50172 0.16066 0.51396 0.0
C511 C 0.52243 0.12927 0.51447 0.0
C512 C 0.55085 0.12975 0.49889 0.0
C513 C 0.51925 0.58156 0.21489 0.0
C514 C 0.46729 0.54144 0.21418 0.0
C515 C 0.54635 0.60687 0.19917 0.0
C516 C 0.52277 0.59287 0.18211 0.0
H517 H 0.53901 0.59399 0.22771 0.0
H518 H 0.58592 0.63818 0.20039 0.0
S519 S 0.38876 0.48832 0.17267 0.0
N520 N 0.3942 0.48739 0.19477 0.0
N521 N 0.44513 0.53522 0.16537 0.0
C522 C 0.47111 0.55259 0.18117 0.0
C523 C 0.44346 0.52681 0.19715 0.0
C524 C 0.97748 0.52435 0.85164 0.0
C525 C 0.94519 0.50038 0.83671 0.0
C526 C 0.97801 0.49535 0.86643 0.0
C527 C 0.94645 0.44119 0.86684 0.0
H528 H 1.00218 0.56601 0.85198 0.0
H529 H 1.00283 0.51548 0.87774 0.0
S530 S 0.85757 0.35929 0.83066 0.0
N531 N 0.88248 0.41896 0.82294 0.0
N532 N 0.88356 0.36447 0.85073 0.0
C533 C 0.91427 0.41665 0.85196 0.0
C534 C 0.91365 0.44619 0.8369 0.0
C535 C 0.4707 0.93235 0.53932 0.0
C536 C 0.51556 0.9285 0.53762 0.0
C537 C 0.4432 0.93297 0.52409 0.0
C538 C 0.45924 0.9293 0.50663 0.0
H539 H 0.4572 0.9357 0.55252 0.0
H540 H 0.40919 0.93661 0.52595 0.0
S541 S 0.57274 0.91635 0.4948 0.0
N542 N 0.57419 0.92004 0.51701 0.0
N543 N 0.52118 0.9191 0.48849 0.0
C544 C 0.50269 0.92326 0.50475 0.0
C545 C 0.53118 0.92339 0.52022 0.0
C546 C 0.55153 0.05672 0.10108 0.0
C547 C 0.50953 0.05212 0.09099 0.0
C548 C 0.56477 0.01788 0.10083 0.0
C549 C 0.53634 0.97265 0.09058 0.0
H550 H 0.57399 0.09041 0.10945 0.0
H551 H 0.59644 0.02253 0.10925 0.0
S552 S 0.42481 0.94288 0.06096 0.0
N553 N 0.4408 0.99961 0.06988 0.0
N554 N 0.46604 0.9267 0.06929 0.0
C555 C 0.49524 0.96819 0.07999 0.0
C556 C 0.48186 1.00794 0.08018 0.0
C557 C 0.51015 0.55065 0.75303 0.0
C558 C 0.46801 0.49991 0.75468 0.0
C559 C 0.56129 0.56057 0.75292 0.0
C560 C 0.57223 0.52011 0.75457 0.0
H561 H 0.50358 0.58315 0.75233 0.0
H562 H 0.59247 0.60036 0.7524 0.0
S563 S 0.47592 0.38004 0.75762 0.0
N564 N 0.44075 0.40852 0.75696 0.0
N565 N 0.53675 0.42708 0.75632 0.0
C566 C 0.53044 0.46903 0.75528 0.0
C567 C 0.47839 0.45892 0.75541 0.0
C568 C 1.02203 0.55601 0.41604 0.0
C569 C 0.07067 0.56726 0.42267 0.0
C570 C 0.98091 0.5048 0.41491 0.0
C571 C 0.98698 0.46284 0.42022 0.0
H572 H 1.01503 0.58712 0.4124 0.0
H573 H 0.9437 0.49806 0.41023 0.0
S574 S 0.108 0.47147 0.43709 0.0
N575 N 0.12373 0.53211 0.43333 0.0
N576 N 0.04636 0.43612 0.43157 0.0
C577 C 0.03611 0.4735 0.42612 0.0
C578 C 0.0779 0.5256 0.42728 0.0
C579 C 0.98232 0.49294 0.276 0.0
C580 C 0.98158 0.53176 0.28653 0.0
C581 C 1.02104 0.47995 0.27818 0.0
C582 C 0.06083 0.50544 0.29089 0.0
H583 H 0.95301 0.47281 0.26583 0.0
H584 H 1.02077 0.45088 0.26938 0.0
S585 S 0.07509 0.60789 0.32252 0.0
N586 N 1.0231 0.5943 0.31061 0.0
N587 N 0.09557 0.56937 0.31486 0.0
C588 C 0.05974 0.54325 0.30189 0.0
C589 C 1.02014 0.5564 0.29971 0.0
C590 C 0.56167 1.01491 0.9616 0.0
C591 C 0.57463 0.06156 0.95277 0.0
C592 C 0.50992 0.97524 0.96321 0.0
C593 C 0.46924 0.98099 0.95622 0.0
H594 H 0.59182 1.00818 0.96662 0.0
H595 H 0.50174 0.93929 0.9696 0.0
S596 S 0.48262 0.09735 0.93315 0.0
N597 N 0.54252 0.1127 0.93809 0.0
N598 N 0.44553 0.03796 0.94081 0.0
C599 C 0.48164 0.02834 0.94806 0.0
C600 C 0.53424 0.0686 0.94639 0.0
C601 C 0.49784 0.52962 0.61048 0.0
C602 C 0.54037 0.56705 0.62036 0.0
C603 C 0.48285 0.47712 0.61143 0.0
C604 C 0.51001 0.45997 0.62221 0.0
H605 H 0.47645 0.54114 0.60168 0.0
H606 H 0.45096 0.45003 0.6031 0.0
S607 S 0.622 0.5418 0.65164 0.0
N608 N 0.60799 0.58305 0.64193 0.0
N609 N 0.57953 0.48408 0.64382 0.0
C610 C 0.5515 0.49669 0.63265 0.0
C611 C 0.56664 0.55026 0.63175 0.0
C612 C 0.12439 0.26109 1.01489 0.0
C613 C 0.08691 0.21621 1.00602 0.0
C614 C 0.16693 0.26244 0.02355 0.0
C615 C 0.17393 0.21918 0.02343 0.0
H616 H 0.12027 0.2951 1.01545 0.0
H617 H 0.19464 0.29765 0.03031 0.0
S618 S 0.08738 0.09271 1.00171 0.0
N619 N 0.06031 0.12797 0.99728 0.0
N620 N 0.13955 0.13019 1.01368 0.0
C621 C 0.137 0.17433 1.01442 0.0
C622 C 0.09369 0.1729 1.0057 0.0
C623 C 0.90571 0.07409 0.69388 0.0
C624 C 0.87122 0.08202 0.68327 0.0
C625 C 0.9479 0.11537 0.70253 0.0
C626 C 0.95726 0.16633 0.70106 0.0
H627 H 0.90065 0.0357 0.69524 0.0
H628 H 0.97348 0.10729 0.71046 0.0
S629 S 0.87798 0.20792 0.67527 0.0
N630 N 0.84858 0.14471 0.67217 0.0
N631 N 0.92837 0.22244 0.68824 0.0
C632 C 0.92277 0.17482 0.6907 0.0
C633 C 0.87979 0.13272 0.68181 0.0
C634 C 0.82628 0.92911 0.36598 0.0
C635 C 0.79595 0.94957 0.3595 0.0
C636 C 0.82814 0.88885 0.35691 0.0
C637 C 0.79942 0.86702 0.34108 0.0
H638 H 0.84981 0.94522 0.37791 0.0
H639 H 0.85249 0.87478 0.36234 0.0
S640 S 0.71211 0.90519 0.31897 0.0
N641 N 0.73493 0.94362 0.33667 0.0
N642 N 0.73889 0.86843 0.31951 0.0
C643 C 0.76802 0.88635 0.33468 0.0
C644 C 0.7663 0.92754 0.34388 0.0
C645 C 0.92662 0.83693 0.03944 0.0
C646 C 0.8748 0.79826 0.03672 0.0
C647 C 0.96726 0.83558 0.03048 0.0
C648 C 0.9578 0.79568 1.0183 0.0
H649 H 0.93591 0.8686 0.04863 0.0
H650 H 1.00641 0.86659 0.0329 0.0
S651 S 0.82907 0.68477 1.00648 0.0
N652 N 0.8162 0.71881 1.02095 0.0
N653 N 0.89264 0.71586 1.00427 0.0
C654 C 0.90618 0.75653 1.01552 0.0
C655 C 0.86473 0.75781 0.02472 0.0
C656 C 0.15044 0.89851 0.67544 0.0
C657 C 0.17061 0.95055 0.68051 0.0
C658 C 0.10824 0.85827 0.68461 0.0
C659 C 0.08418 0.86862 0.69904 0.0
H660 H 0.16752 0.88881 0.66432 0.0
H661 H 0.09367 0.81884 0.68015 0.0
S662 S 0.12222 0.99805 0.71769 0.0
N663 N 0.16311 1.01005 0.70094 0.0
N664 N 0.08442 0.93457 0.71823 0.0
C665 C 0.10421 0.9204 0.70432 0.0
C666 C 0.14725 0.96127 0.69506 0.0
C667 C 0.27986 0.12457 0.36418 0.0
C668 C 0.23303 0.08165 0.36993 0.0
C669 C 0.28088 0.1677 0.35609 0.0
C670 C 0.23521 0.16983 0.35371 0.0
H671 H 0.31588 0.12448 0.36571 0.0
H672 H 0.31773 0.19984 0.35184 0.0
S673 S 0.10272 0.0678 0.36664 0.0
N674 N 0.14002 0.04442 0.37289 0.0
N675 N 0.14185 0.1249 0.35759 0.0
C676 C 0.18824 0.12725 0.35949 0.0
C677 C 0.18717 0.08335 0.3676 0.0
loop_
_geom_bond_atom_site_label_1
_geom_bond_atom_site_label_2
_geom_bond_distance
_geom_bond_site_symmetry_2
_ccdc_geom_bond_type
C0 C1 1.264 . S
C0 C5 1.479 . S
C0 C10 1.465 . S
C1 C0 1.264 . S
C1 C3 1.339 . S
C1 H28 0.931 . S
C2 C3 1.395 . S
C2 C4 1.320 . S
C3 C1 1.339 . S
C3 C2 1.395 . S
C3 H29 0.929 . S
C4 C2 1.320 . S
C4 C5 1.405 . S
C4 H30 0.930 . S
C5 C0 1.479 . S
C5 C4 1.405 . S
C5 H31 0.931 . S
U6 O7 2.454 . S
U6 O8 2.458 . S
U6 C9 2.984 . S
U6 C10 2.847 . S
U6 C23 2.882 . S
U6 O24 2.441 . S
U6 O25 2.420 . S
U6 O26 2.455 . S
U6 O27 2.449 . S
O7 U6 2.454 . S
O7 C9 1.353 . S
O8 U6 2.458 . S
O8 C9 1.286 . S
C9 U6 2.984 . S
C9 O7 1.353 . S
C9 O8 1.286 . S
C9 C11 1.363 . S
C10 C0 1.465 . S
C10 U6 2.847 . S
C10 O24 1.249 . S
C10 O25 1.202 . S
C11 C9 1.363 . S
C11 C13 1.408 . S
C11 C16 1.342 . S
C12 C13 1.310 . S
C12 C15 1.461 1_554 S
C12 H32 0.932 . S
C13 C11 1.408 . S
C13 C12 1.310 . S
C13 H33 0.930 . S
C14 C15 1.474 . S
C14 C16 1.285 1_556 S
C14 H34 0.929 . S
C15 C12 1.461 1_556 S
C15 C14 1.474 . S
C16 C11 1.342 . S
C16 C14 1.285 1_554 S
C16 H35 0.930 . S
C17 C20 1.424 . S
C17 C22 1.245 . S
C17 C23 1.428 . S
C18 C21 1.260 . S
C18 C22 1.477 . S
C18 H36 0.932 . S
C19 C20 1.384 . S
C19 C21 1.479 . S
C19 H37 0.929 . S
C20 C17 1.424 . S
C20 C19 1.384 . S
C20 H38 0.928 . S
C21 C18 1.260 . S
C21 C19 1.479 . S
C22 C17 1.245 . S
C22 C18 1.477 . S
C22 H39 0.932 . S
C23 U6 2.882 . S
C23 C17 1.428 . S
C23 O26 1.301 . S
C23 O27 1.282 . S
O24 U6 2.441 . S
O24 C10 1.249 . S
O25 U6 2.420 . S
O25 C10 1.202 . S
O26 U6 2.455 . S
O26 C23 1.301 . S
O27 U6 2.449 . S
O27 C23 1.282 . S
H28 C1 0.931 . S
H29 C3 0.929 . S
H30 C4 0.930 . S
H31 C5 0.931 . S
H32 C12 0.932 . S
H33 C13 0.930 . S
H34 C14 0.929 . S
H35 C16 0.930 . S
H36 C18 0.932 . S
H37 C19 0.929 . S
H38 C20 0.928 . S
H39 C22 0.932 . S
C40 C41 1.264 . S
C40 C45 1.479 . S
C40 C50 1.465 . S
C41 C40 1.264 . S
C41 C43 1.339 . S
C41 H68 0.931 . S
C42 C43 1.395 . S
C42 C44 1.320 . S
C43 C41 1.339 . S
C43 C42 1.395 . S
C43 H69 0.929 . S
C44 C42 1.320 . S
C44 C45 1.405 . S
C44 H70 0.930 . S
C45 C40 1.479 . S
C45 C44 1.405 . S
C45 H71 0.931 . S
U46 O47 2.454 . S
U46 O48 2.458 . S
U46 C49 2.984 . S
U46 C50 2.847 . S
U46 C63 2.882 . S
U46 O64 2.441 . S
U46 O65 2.420 . S
U46 O66 2.455 . S
U46 O67 2.449 . S
O47 U46 2.454 . S
O47 C49 1.353 . S
O48 U46 2.458 . S
O48 C49 1.286 . S
C49 U46 2.984 . S
C49 O47 1.353 . S
C49 O48 1.286 . S
C49 C51 1.363 . S
C50 C40 1.465 . S
C50 U46 2.847 . S
C50 O64 1.249 . S
C50 O65 1.202 . S
C51 C49 1.363 . S
C51 C53 1.408 1_455 S
C51 C56 1.342 . S
C52 C53 1.310 . S
C52 C55 1.461 . S
C52 H72 0.932 . S
C53 C51 1.408 1_655 S
C53 C52 1.310 . S
C53 H73 0.930 . S
C54 C55 1.474 1_455 S
C54 C56 1.285 . S
C54 H74 0.929 . S
C55 C52 1.461 . S
C55 C54 1.474 1_655 S
C56 C51 1.342 . S
C56 C54 1.285 . S
C56 H75 0.930 . S
C57 C60 1.424 . S
C57 C62 1.245 . S
C57 C63 1.428 . S
C58 C61 1.260 . S
C58 C62 1.477 . S
C58 H76 0.932 . S
C59 C60 1.384 . S
C59 C61 1.479 . S
C59 H77 0.929 . S
C60 C57 1.424 . S
C60 C59 1.384 . S
C60 H78 0.928 . S
C61 C58 1.260 . S
C61 C59 1.479 . S
C62 C57 1.245 . S
C62 C58 1.477 . S
C62 H79 0.932 . S
C63 U46 2.882 . S
C63 C57 1.428 . S
C63 O66 1.301 . S
C63 O67 1.282 . S
O64 U46 2.441 . S
O64 C50 1.249 . S
O65 U46 2.420 . S
O65 C50 1.202 . S
O66 U46 2.455 . S
O66 C63 1.301 . S
O67 U46 2.449 . S
O67 C63 1.282 . S
H68 C41 0.931 . S
H69 C43 0.929 . S
H70 C44 0.930 . S
H71 C45 0.931 . S
H72 C52 0.932 . S
H73 C53 0.930 . S
H74 C54 0.929 . S
H75 C56 0.930 . S
H76 C58 0.932 . S
H77 C59 0.929 . S
H78 C60 0.928 . S
H79 C62 0.932 . S
C80 C81 1.264 . S
C80 C85 1.479 . S
C80 C90 1.465 . S
C81 C80 1.264 . S
C81 C83 1.339 . S
C81 H108 0.931 . S
C82 C83 1.395 . S
C82 C84 1.320 . S
C83 C81 1.339 . S
C83 C82 1.395 . S
C83 H109 0.929 . S
C84 C82 1.320 . S
C84 C85 1.405 . S
C84 H110 0.930 . S
C85 C80 1.479 . S
C85 C84 1.405 . S
C85 H111 0.931 . S
U86 O87 2.454 . S
U86 O88 2.458 . S
U86 C89 2.984 . S
U86 C90 2.847 . S
U86 C103 2.882 . S
U86 O104 2.441 . S
U86 O105 2.420 . S
U86 O106 2.455 . S
U86 O107 2.449 . S
O87 U86 2.454 . S
O87 C89 1.353 . S
O88 U86 2.458 . S
O88 C89 1.286 . S
C89 U86 2.984 . S
C89 O87 1.353 . S
C89 O88 1.286 . S
C89 C91 1.363 . S
C90 C80 1.465 . S
C90 U86 2.847 . S
C90 O104 1.249 . S
C90 O105 1.202 . S
C91 C89 1.363 . S
C91 C93 1.408 1_545 S
C91 C96 1.342 . S
C92 C93 1.310 . S
C92 C95 1.461 . S
C92 H112 0.932 . S
C93 C91 1.408 1_565 S
C93 C92 1.310 . S
C93 H113 0.930 . S
C94 C95 1.474 1_545 S
C94 C96 1.285 . S
C94 H114 0.929 . S
C95 C92 1.461 . S
C95 C94 1.474 1_565 S
C96 C91 1.342 . S
C96 C94 1.285 . S
C96 H115 0.930 . S
C97 C100 1.424 . S
C97 C102 1.245 . S
C97 C103 1.428 . S
C98 C101 1.260 . S
C98 C102 1.477 . S
C98 H116 0.932 . S
C99 C100 1.384 . S
C99 C101 1.479 . S
C99 H117 0.929 . S
C100 C97 1.424 . S
C100 C99 1.384 . S
C100 H118 0.928 . S
C101 C98 1.260 . S
C101 C99 1.479 . S
C102 C97 1.245 . S
C102 C98 1.477 . S
C102 H119 0.932 . S
C103 U86 2.882 . S
C103 C97 1.428 . S
C103 O106 1.301 . S
C103 O107 1.282 . S
O104 U86 2.441 . S
O104 C90 1.249 . S
O105 U86 2.420 . S
O105 C90 1.202 . S
O106 U86 2.455 . S
O106 C103 1.301 . S
O107 U86 2.449 . S
O107 C103 1.282 . S
H108 C81 0.931 . S
H109 C83 0.929 . S
H110 C84 0.930 . S
H111 C85 0.931 . S
H112 C92 0.932 . S
H113 C93 0.930 . S
H114 C94 0.929 . S
H115 C96 0.930 . S
H116 C98 0.932 . S
H117 C99 0.929 . S
H118 C100 0.928 . S
H119 C102 0.932 . S
C120 C121 1.264 . S
C120 C125 1.479 . S
C120 C130 1.465 . S
C121 C120 1.264 . S
C121 C123 1.339 . S
C121 H148 0.931 . S
C122 C123 1.395 . S
C122 C124 1.320 . S
C123 C121 1.339 . S
C123 C122 1.395 . S
C123 H149 0.929 . S
C124 C122 1.320 . S
C124 C125 1.405 . S
C124 H150 0.930 . S
C125 C120 1.479 . S
C125 C124 1.405 . S
C125 H151 0.931 . S
U126 O127 2.454 . S
U126 O128 2.458 . S
U126 C129 2.984 . S
U126 C130 2.847 . S
U126 C143 2.882 . S
U126 O144 2.441 . S
U126 O145 2.420 . S
U126 O146 2.455 . S
U126 O147 2.449 . S
O127 U126 2.454 . S
O127 C129 1.353 . S
O128 U126 2.458 . S
O128 C129 1.286 . S
C129 U126 2.984 . S
C129 O127 1.353 . S
C129 O128 1.286 . S
C129 C131 1.363 . S
C130 C120 1.465 . S
C130 U126 2.847 . S
C130 O144 1.249 . S
C130 O145 1.202 . S
C131 C129 1.363 . S
C131 C133 1.408 . S
C131 C136 1.342 . S
C132 C133 1.310 . S
C132 C135 1.461 1_554 S
C132 H152 0.932 . S
C133 C131 1.408 . S
C133 C132 1.310 . S
C133 H153 0.930 . S
C134 C135 1.474 . S
C134 C136 1.285 1_556 S
C134 H154 0.929 . S
C135 C132 1.461 1_556 S
C135 C134 1.474 . S
C136 C131 1.342 . S
C136 C134 1.285 1_554 S
C136 H155 0.930 . S
C137 C140 1.424 . S
C137 C142 1.245 . S
C137 C143 1.428 . S
C138 C141 1.260 . S
C138 C142 1.477 . S
C138 H156 0.932 . S
C139 C140 1.384 . S
C139 C141 1.479 . S
C139 H157 0.929 . S
C140 C137 1.424 . S
C140 C139 1.384 . S
C140 H158 0.928 . S
C141 C138 1.260 . S
C141 C139 1.479 . S
C142 C137 1.245 . S
C142 C138 1.477 . S
C142 H159 0.932 . S
C143 U126 2.882 . S
C143 C137 1.428 . S
C143 O146 1.301 . S
C143 O147 1.282 . S
O144 U126 2.441 . S
O144 C130 1.249 . S
O145 U126 2.420 . S
O145 C130 1.202 . S
O146 U126 2.455 . S
O146 C143 1.301 . S
O147 U126 2.449 . S
O147 C143 1.282 . S
H148 C121 0.931 . S
H149 C123 0.929 . S
H150 C124 0.930 . S
H151 C125 0.931 . S
H152 C132 0.932 . S
H153 C133 0.930 . S
H154 C134 0.929 . S
H155 C136 0.930 . S
H156 C138 0.932 . S
H157 C139 0.929 . S
H158 C140 0.928 . S
H159 C142 0.932 . S
C160 C161 1.264 . S
C160 C165 1.479 . S
C160 C170 1.465 . S
C161 C160 1.264 . S
C161 C163 1.339 . S
C161 H188 0.931 . S
C162 C163 1.395 . S
C162 C164 1.320 . S
C163 C161 1.339 . S
C163 C162 1.395 . S
C163 H189 0.929 . S
C164 C162 1.320 . S
C164 C165 1.405 . S
C164 H190 0.930 . S
C165 C160 1.479 . S
C165 C164 1.405 . S
C165 H191 0.931 . S
U166 O167 2.454 . S
U166 O168 2.458 . S
U166 C169 2.984 . S
U166 C170 2.847 . S
U166 C183 2.882 . S
U166 O184 2.441 . S
U166 O185 2.420 . S
U166 O186 2.455 . S
U166 O187 2.449 . S
O167 U166 2.454 . S
O167 C169 1.353 . S
O168 U166 2.458 . S
O168 C169 1.286 . S
C169 U166 2.984 . S
C169 O167 1.353 . S
C169 O168 1.286 . S
C169 C171 1.363 . S
C170 C160 1.465 . S
C170 U166 2.847 . S
C170 O184 1.249 . S
C170 O185 1.202 . S
C171 C169 1.363 . S
C171 C173 1.408 1_655 S
C171 C176 1.342 . S
C172 C173 1.310 . S
C172 C175 1.461 . S
C172 H192 0.932 . S
C173 C171 1.408 1_455 S
C173 C172 1.310 . S
C173 H193 0.930 . S
C174 C175 1.474 1_655 S
C174 C176 1.285 . S
C174 H194 0.929 . S
C175 C172 1.461 . S
C175 C174 1.474 1_455 S
C176 C171 1.342 . S
C176 C174 1.285 . S
C176 H195 0.930 . S
C177 C180 1.424 . S
C177 C182 1.245 . S
C177 C183 1.428 . S
C178 C181 1.260 . S
C178 C182 1.477 . S
C178 H196 0.932 . S
C179 C180 1.384 . S
C179 C181 1.479 . S
C179 H197 0.929 . S
C180 C177 1.424 . S
C180 C179 1.384 . S
C180 H198 0.928 . S
C181 C178 1.260 . S
C181 C179 1.479 . S
C182 C177 1.245 . S
C182 C178 1.477 . S
C182 H199 0.932 . S
C183 U166 2.882 . S
C183 C177 1.428 . S
C183 O186 1.301 . S
C183 O187 1.282 . S
O184 U166 2.441 . S
O184 C170 1.249 . S
O185 U166 2.420 . S
O185 C170 1.202 . S
O186 U166 2.455 . S
O186 C183 1.301 . S
O187 U166 2.449 . S
O187 C183 1.282 . S
H188 C161 0.931 . S
H189 C163 0.929 . S
H190 C164 0.930 . S
H191 C165 0.931 . S
H192 C172 0.932 . S
H193 C173 0.930 . S
H194 C174 0.929 . S
H195 C176 0.930 . S
H196 C178 0.932 . S
H197 C179 0.929 . S
H198 C180 0.928 . S
H199 C182 0.932 . S
C200 C201 1.264 . S
C200 C205 1.479 . S
C200 C210 1.465 . S
C201 C200 1.264 . S
C201 C203 1.339 . S
C201 H228 0.931 . S
C202 C203 1.395 . S
C202 C204 1.320 . S
C203 C201 1.339 . S
C203 C202 1.395 . S
C203 H229 0.929 . S
C204 C202 1.320 . S
C204 C205 1.405 . S
C204 H230 0.930 . S
C205 C200 1.479 . S
C205 C204 1.405 . S
C205 H231 0.931 . S
U206 O207 2.454 . S
U206 O208 2.458 . S
U206 C209 2.984 . S
U206 C210 2.847 . S
U206 C223 2.882 . S
U206 O224 2.441 . S
U206 O225 2.420 . S
U206 O226 2.455 . S
U206 O227 2.449 . S
O207 U206 2.454 . S
O207 C209 1.353 . S
O208 U206 2.458 . S
O208 C209 1.286 . S
C209 U206 2.984 . S
C209 O207 1.353 . S
C209 O208 1.286 . S
C209 C211 1.363 . S
C210 C200 1.465 . S
C210 U206 2.847 . S
C210 O224 1.249 . S
C210 O225 1.202 . S
C211 C209 1.363 . S
C211 C213 1.408 1_565 S
C211 C216 1.342 . S
C212 C213 1.310 . S
C212 C215 1.461 . S
C212 H232 0.932 . S
C213 C211 1.408 1_545 S
C213 C212 1.310 . S
C213 H233 0.930 . S
C214 C215 1.474 1_565 S
C214 C216 1.285 . S
C214 H234 0.929 . S
C215 C212 1.461 . S
C215 C214 1.474 1_545 S
C216 C211 1.342 . S
C216 C214 1.285 . S
C216 H235 0.930 . S
C217 C220 1.424 . S
C217 C222 1.245 . S
C217 C223 1.428 . S
C218 C221 1.260 . S
C218 C222 1.477 . S
C218 H236 0.932 . S
C219 C220 1.384 . S
C219 C221 1.479 . S
C219 H237 0.929 . S
C220 C217 1.424 . S
C220 C219 1.384 . S
C220 H238 0.928 . S
C221 C218 1.260 . S
C221 C219 1.479 . S
C222 C217 1.245 . S
C222 C218 1.477 . S
C222 H239 0.932 . S
C223 U206 2.882 . S
C223 C217 1.428 . S
C223 O226 1.301 . S
C223 O227 1.282 . S
O224 U206 2.441 . S
O224 C210 1.249 . S
O225 U206 2.420 . S
O225 C210 1.202 . S
O226 U206 2.455 . S
O226 C223 1.301 . S
O227 U206 2.449 . S
O227 C223 1.282 . S
H228 C201 0.931 . S
H229 C203 0.929 . S
H230 C204 0.930 . S
H231 C205 0.931 . S
H232 C212 0.932 . S
H233 C213 0.930 . S
H234 C214 0.929 . S
H235 C216 0.930 . S
H236 C218 0.932 . S
H237 C219 0.929 . S
H238 C220 0.928 . S
H239 C222 0.932 . S
C240 C241 1.264 . S
C240 C245 1.479 . S
C240 C250 1.465 . S
C241 C240 1.264 . S
C241 C243 1.339 . S
C241 H268 0.931 . S
C242 C243 1.395 . S
C242 C244 1.320 . S
C243 C241 1.339 . S
C243 C242 1.395 . S
C243 H269 0.929 . S
C244 C242 1.320 . S
C244 C245 1.405 . S
C244 H270 0.930 . S
C245 C240 1.479 . S
C245 C244 1.405 . S
C245 H271 0.931 . S
U246 O247 2.454 . S
U246 O248 2.458 . S
U246 C249 2.984 . S
U246 C250 2.847 . S
U246 C263 2.882 . S
U246 O264 2.441 . S
U246 O265 2.420 . S
U246 O266 2.455 . S
U246 O267 2.449 . S
O247 U246 2.454 . S
O247 C249 1.353 . S
O248 U246 2.458 . S
O248 C249 1.286 . S
C249 U246 2.984 . S
C249 O247 1.353 . S
C249 O248 1.286 . S
C249 C251 1.363 . S
C250 C240 1.465 . S
C250 U246 2.847 . S
C250 O264 1.249 . S
C250 O265 1.202 . S
C251 C249 1.363 . S
C251 C253 1.408 . S
C251 C256 1.342 . S
C252 C253 1.310 . S
C252 C255 1.461 . S
C252 H272 0.932 . S
C253 C251 1.408 . S
C253 C252 1.310 . S
C253 H273 0.930 . S
C254 C255 1.474 . S
C254 C256 1.285 . S
C254 H274 0.929 . S
C255 C252 1.461 . S
C255 C254 1.474 . S
C256 C251 1.342 . S
C256 C254 1.285 . S
C256 H275 0.930 . S
C257 C260 1.424 . S
C257 C262 1.245 . S
C257 C263 1.428 . S
C258 C261 1.260 . S
C258 C262 1.477 . S
C258 H276 0.932 . S
C259 C260 1.384 . S
C259 C261 1.479 . S
C259 H277 0.929 . S
C260 C257 1.424 . S
C260 C259 1.384 . S
C260 H278 0.928 . S
C261 C258 1.260 . S
C261 C259 1.479 . S
C262 C257 1.245 . S
C262 C258 1.477 . S
C262 H279 0.932 . S
C263 U246 2.882 . S
C263 C257 1.428 . S
C263 O266 1.301 . S
C263 O267 1.282 . S
O264 U246 2.441 . S
O264 C250 1.249 . S
O265 U246 2.420 . S
O265 C250 1.202 . S
O266 U246 2.455 . S
O266 C263 1.301 . S
O267 U246 2.449 . S
O267 C263 1.282 . S
H268 C241 0.931 . S
H269 C243 0.929 . S
H270 C244 0.930 . S
H271 C245 0.931 . S
H272 C252 0.932 . S
H273 C253 0.930 . S
H274 C254 0.929 . S
H275 C256 0.930 . S
H276 C258 0.932 . S
H277 C259 0.929 . S
H278 C260 0.928 . S
H279 C262 0.932 . S
C280 C281 1.264 . S
C280 C285 1.479 . S
C280 C290 1.465 . S
C281 C280 1.264 . S
C281 C283 1.339 . S
C281 H308 0.931 . S
C282 C283 1.395 . S
C282 C284 1.320 . S
C283 C281 1.339 . S
C283 C282 1.395 . S
C283 H309 0.929 . S
C284 C282 1.320 . S
C284 C285 1.405 . S
C284 H310 0.930 . S
C285 C280 1.479 . S
C285 C284 1.405 . S
C285 H311 0.931 . S
U286 O287 2.454 . S
U286 O288 2.458 . S
U286 C289 2.984 . S
U286 C290 2.847 . S
U286 C303 2.882 . S
U286 O304 2.441 . S
U286 O305 2.420 . S
U286 O306 2.455 . S
U286 O307 2.449 . S
O287 U286 2.454 . S
O287 C289 1.353 . S
O288 U286 2.458 . S
O288 C289 1.286 . S
C289 U286 2.984 . S
C289 O287 1.353 . S
C289 O288 1.286 . S
C289 C291 1.363 . S
C290 C280 1.465 . S
C290 U286 2.847 . S
C290 O304 1.249 . S
C290 O305 1.202 . S
C291 C289 1.363 . S
C291 C293 1.408 1_455 S
C291 C296 1.342 . S
C292 C293 1.310 . S
C292 C295 1.461 1_556 S
C292 H312 0.932 . S
C293 C291 1.408 1_655 S
C293 C292 1.310 . S
C293 H313 0.930 . S
C294 C295 1.474 1_455 S
C294 C296 1.285 1_554 S
C294 H314 0.929 . S
C295 C292 1.461 1_554 S
C295 C294 1.474 1_655 S
C296 C291 1.342 . S
C296 C294 1.285 1_556 S
C296 H315 0.930 . S
C297 C300 1.424 . S
C297 C302 1.245 . S
C297 C303 1.428 . S
C298 C301 1.260 . S
C298 C302 1.477 . S
C298 H316 0.932 . S
C299 C300 1.384 . S
C299 C301 1.479 . S
C299 H317 0.929 . S
C300 C297 1.424 . S
C300 C299 1.384 . S
C300 H318 0.928 . S
C301 C298 1.260 . S
C301 C299 1.479 . S
C302 C297 1.245 . S
C302 C298 1.477 . S
C302 H319 0.932 . S
C303 U286 2.882 . S
C303 C297 1.428 . S
C303 O306 1.301 . S
C303 O307 1.282 . S
O304 U286 2.441 . S
O304 C290 1.249 . S
O305 U286 2.420 . S
O305 C290 1.202 . S
O306 U286 2.455 . S
O306 C303 1.301 . S
O307 U286 2.449 . S
O307 C303 1.282 . S
H308 C281 0.931 . S
H309 C283 0.929 . S
H310 C284 0.930 . S
H311 C285 0.931 . S
H312 C292 0.932 . S
H313 C293 0.930 . S
H314 C294 0.929 . S
H315 C296 0.930 . S
H316 C298 0.932 . S
H317 C299 0.929 . S
H318 C300 0.928 . S
H319 C302 0.932 . S
C320 C321 1.264 . S
C320 C325 1.479 . S
C320 C330 1.465 . S
C321 C320 1.264 . S
C321 C323 1.339 . S
C321 H348 0.931 . S
C322 C323 1.395 . S
C322 C324 1.320 . S
C323 C321 1.339 . S
C323 C322 1.395 . S
C323 H349 0.929 . S
C324 C322 1.320 . S
C324 C325 1.405 . S
C324 H350 0.930 . S
C325 C320 1.479 . S
C325 C324 1.405 . S
C325 H351 0.931 . S
U326 O327 2.454 . S
U326 O328 2.458 . S
U326 C329 2.984 . S
U326 C330 2.847 . S
U326 C343 2.882 . S
U326 O344 2.441 . S
U326 O345 2.420 . S
U326 O346 2.455 . S
U326 O347 2.449 . S
O327 U326 2.454 . S
O327 C329 1.353 . S
O328 U326 2.458 . S
O328 C329 1.286 . S
C329 U326 2.984 . S
C329 O327 1.353 . S
C329 O328 1.286 . S
C329 C331 1.363 . S
C330 C320 1.465 . S
C330 U326 2.847 . S
C330 O344 1.249 . S
C330 O345 1.202 . S
C331 C329 1.363 . S
C331 C333 1.408 1_545 S
C331 C336 1.342 . S
C332 C333 1.310 . S
C332 C335 1.461 . S
C332 H352 0.932 . S
C333 C331 1.408 1_565 S
C333 C332 1.310 . S
C333 H353 0.930 . S
C334 C335 1.474 1_545 S
C334 C336 1.285 . S
C334 H354 0.929 . S
C335 C332 1.461 . S
C335 C334 1.474 1_565 S
C336 C331 1.342 . S
C336 C334 1.285 . S
C336 H355 0.930 . S
C337 C340 1.424 . S
C337 C342 1.245 . S
C337 C343 1.428 . S
C338 C341 1.260 . S
C338 C342 1.477 . S
C338 H356 0.932 . S
C339 C340 1.384 . S
C339 C341 1.479 . S
C339 H357 0.929 . S
C340 C337 1.424 . S
C340 C339 1.384 . S
C340 H358 0.928 . S
C341 C338 1.260 . S
C341 C339 1.479 . S
C342 C337 1.245 . S
C342 C338 1.477 . S
C342 H359 0.932 . S
C343 U326 2.882 . S
C343 C337 1.428 . S
C343 O346 1.301 . S
C343 O347 1.282 . S
O344 U326 2.441 . S
O344 C330 1.249 . S
O345 U326 2.420 . S
O345 C330 1.202 . S
O346 U326 2.455 . S
O346 C343 1.301 . S
O347 U326 2.449 . S
O347 C343 1.282 . S
H348 C321 0.931 . S
H349 C323 0.929 . S
H350 C324 0.930 . S
H351 C325 0.931 . S
H352 C332 0.932 . S
H353 C333 0.930 . S
H354 C334 0.929 . S
H355 C336 0.930 . S
H356 C338 0.932 . S
H357 C339 0.929 . S
H358 C340 0.928 . S
H359 C342 0.932 . S
C360 C361 1.264 . S
C360 C365 1.479 . S
C360 C370 1.465 . S
C361 C360 1.264 . S
C361 C363 1.339 . S
C361 H388 0.931 . S
C362 C363 1.395 . S
C362 C364 1.320 . S
C363 C361 1.339 . S
C363 C362 1.395 . S
C363 H389 0.929 . S
C364 C362 1.320 . S
C364 C365 1.405 . S
C364 H390 0.930 . S
C365 C360 1.479 . S
C365 C364 1.405 . S
C365 H391 0.931 . S
U366 O367 2.454 . S
U366 O368 2.458 . S
U366 C369 2.984 . S
U366 C370 2.847 . S
U366 C383 2.882 . S
U366 O384 2.441 . S
U366 O385 2.420 . S
U366 O386 2.455 . S
U366 O387 2.449 . S
O367 U366 2.454 . S
O367 C369 1.353 . S
O368 U366 2.458 . S
O368 C369 1.286 . S
C369 U366 2.984 . S
C369 O367 1.353 . S
C369 O368 1.286 . S
C369 C371 1.363 . S
C370 C360 1.465 . S
C370 U366 2.847 . S
C370 O384 1.249 . S
C370 O385 1.202 . S
C371 C369 1.363 . S
C371 C373 1.408 . S
C371 C376 1.342 . S
C372 C373 1.310 . S
C372 C375 1.461 . S
C372 H392 0.932 . S
C373 C371 1.408 . S
C373 C372 1.310 . S
C373 H393 0.930 . S
C374 C375 1.474 . S
C374 C376 1.285 . S
C374 H394 0.929 . S
C375 C372 1.461 . S
C375 C374 1.474 . S
C376 C371 1.342 . S
C376 C374 1.285 . S
C376 H395 0.930 . S
C377 C380 1.424 . S
C377 C382 1.245 . S
C377 C383 1.428 . S
C378 C381 1.260 . S
C378 C382 1.477 . S
C378 H396 0.932 . S
C379 C380 1.384 . S
C379 C381 1.479 . S
C379 H397 0.929 . S
C380 C377 1.424 . S
C380 C379 1.384 . S
C380 H398 0.928 . S
C381 C378 1.260 . S
C381 C379 1.479 . S
C382 C377 1.245 . S
C382 C378 1.477 . S
C382 H399 0.932 . S
C383 U366 2.882 . S
C383 C377 1.428 . S
C383 O386 1.301 . S
C383 O387 1.282 . S
O384 U366 2.441 . S
O384 C370 1.249 . S
O385 U366 2.420 . S
O385 C370 1.202 . S
O386 U366 2.455 . S
O386 C383 1.301 . S
O387 U366 2.449 . S
O387 C383 1.282 . S
H388 C361 0.931 . S
H389 C363 0.929 . S
H390 C364 0.930 . S
H391 C365 0.931 . S
H392 C372 0.932 . S
H393 C373 0.930 . S
H394 C374 0.929 . S
H395 C376 0.930 . S
H396 C378 0.932 . S
H397 C379 0.929 . S
H398 C380 0.928 . S
H399 C382 0.932 . S
C400 C401 1.264 . S
C400 C405 1.479 . S
C400 C410 1.465 . S
C401 C400 1.264 . S
C401 C403 1.339 . S
C401 H428 0.931 . S
C402 C403 1.395 . S
C402 C404 1.320 . S
C403 C401 1.339 . S
C403 C402 1.395 . S
C403 H429 0.929 . S
C404 C402 1.320 . S
C404 C405 1.405 . S
C404 H430 0.930 . S
C405 C400 1.479 . S
C405 C404 1.405 . S
C405 H431 0.931 . S
U406 O407 2.454 . S
U406 O408 2.458 . S
U406 C409 2.984 . S
U406 C410 2.847 . S
U406 C423 2.882 . S
U406 O424 2.441 . S
U406 O425 2.420 . S
U406 O426 2.455 . S
U406 O427 2.449 . S
O407 U406 2.454 . S
O407 C409 1.353 . S
O408 U406 2.458 . S
O408 C409 1.286 . S
C409 U406 2.984 . S
C409 O407 1.353 . S
C409 O408 1.286 . S
C409 C411 1.363 . S
C410 C400 1.465 . S
C410 U406 2.847 . S
C410 O424 1.249 . S
C410 O425 1.202 . S
C411 C409 1.363 . S
C411 C413 1.408 1_655 S
C411 C416 1.342 . S
C412 C413 1.310 . S
C412 C415 1.461 1_556 S
C412 H432 0.932 . S
C413 C411 1.408 1_455 S
C413 C412 1.310 . S
C413 H433 0.930 . S
C414 C415 1.474 1_655 S
C414 C416 1.285 1_554 S
C414 H434 0.929 . S
C415 C412 1.461 1_554 S
C415 C414 1.474 1_455 S
C416 C411 1.342 . S
C416 C414 1.285 1_556 S
C416 H435 0.930 . S
C417 C420 1.424 . S
C417 C422 1.245 . S
C417 C423 1.428 . S
C418 C421 1.260 . S
C418 C422 1.477 . S
C418 H436 0.932 . S
C419 C420 1.384 . S
C419 C421 1.479 . S
C419 H437 0.929 . S
C420 C417 1.424 . S
C420 C419 1.384 . S
C420 H438 0.928 . S
C421 C418 1.260 . S
C421 C419 1.479 . S
C422 C417 1.245 . S
C422 C418 1.477 . S
C422 H439 0.932 . S
C423 U406 2.882 . S
C423 C417 1.428 . S
C423 O426 1.301 . S
C423 O427 1.282 . S
O424 U406 2.441 . S
O424 C410 1.249 . S
O425 U406 2.420 . S
O425 C410 1.202 . S
O426 U406 2.455 . S
O426 C423 1.301 . S
O427 U406 2.449 . S
O427 C423 1.282 . S
H428 C401 0.931 . S
H429 C403 0.929 . S
H430 C404 0.930 . S
H431 C405 0.931 . S
H432 C412 0.932 . S
H433 C413 0.930 . S
H434 C414 0.929 . S
H435 C416 0.930 . S
H436 C418 0.932 . S
H437 C419 0.929 . S
H438 C420 0.928 . S
H439 C422 0.932 . S
C440 C441 1.264 . S
C440 C445 1.479 . S
C440 C450 1.465 . S
C441 C440 1.264 . S
C441 C443 1.339 . S
C441 H468 0.931 . S
C442 C443 1.395 . S
C442 C444 1.320 . S
C443 C441 1.339 . S
C443 C442 1.395 . S
C443 H469 0.929 . S
C444 C442 1.320 . S
C444 C445 1.405 . S
C444 H470 0.930 . S
C445 C440 1.479 . S
C445 C444 1.405 . S
C445 H471 0.931 . S
U446 O447 2.454 . S
U446 O448 2.458 . S
U446 C449 2.984 . S
U446 C450 2.847 . S
U446 C463 2.882 . S
U446 O464 2.441 . S
U446 O465 2.420 . S
U446 O466 2.455 . S
U446 O467 2.449 . S
O447 U446 2.454 . S
O447 C449 1.353 . S
O448 U446 2.458 . S
O448 C449 1.286 . S
C449 U446 2.984 . S
C449 O447 1.353 . S
C449 O448 1.286 . S
C449 C451 1.363 . S
C450 C440 1.465 . S
C450 U446 2.847 . S
C450 O464 1.249 . S
C450 O465 1.202 . S
C451 C449 1.363 . S
C451 C453 1.408 1_565 S
C451 C456 1.342 . S
C452 C453 1.310 . S
C452 C455 1.461 . S
C452 H472 0.932 . S
C453 C451 1.408 1_545 S
C453 C452 1.310 . S
C453 H473 0.930 . S
C454 C455 1.474 1_565 S
C454 C456 1.285 . S
C454 H474 0.929 . S
C455 C452 1.461 . S
C455 C454 1.474 1_545 S
C456 C451 1.342 . S
C456 C454 1.285 . S
C456 H475 0.930 . S
C457 C460 1.424 . S
C457 C462 1.245 . S
C457 C463 1.428 . S
C458 C461 1.260 . S
C458 C462 1.477 . S
C458 H476 0.932 . S
C459 C460 1.384 . S
C459 C461 1.479 . S
C459 H477 0.929 . S
C460 C457 1.424 . S
C460 C459 1.384 . S
C460 H478 0.928 . S
C461 C458 1.260 . S
C461 C459 1.479 . S
C462 C457 1.245 . S
C462 C458 1.477 . S
C462 H479 0.932 . S
C463 U446 2.882 . S
C463 C457 1.428 . S
C463 O466 1.301 . S
C463 O467 1.282 . S
O464 U446 2.441 . S
O464 C450 1.249 . S
O465 U446 2.420 . S
O465 C450 1.202 . S
O466 U446 2.455 . S
O466 C463 1.301 . S
O467 U446 2.449 . S
O467 C463 1.282 . S
H468 C441 0.931 . S
H469 C443 0.929 . S
H470 C444 0.930 . S
H471 C445 0.931 . S
H472 C452 0.932 . S
H473 C453 0.930 . S
H474 C454 0.929 . S
H475 C456 0.930 . S
H476 C458 0.932 . S
H477 C459 0.929 . S
H478 C460 0.928 . S
H479 C462 0.932 . S
C480 C481 1.369 . S
C480 C482 1.419 . S
C480 H484 0.930 . S
C481 C480 1.369 . S
C481 C490 1.429 . S
C482 C480 1.419 . S
C482 C483 1.363 . S
C482 H485 0.929 . S
C483 C482 1.363 . S
C483 C489 1.428 . S
H484 C480 0.930 . S
H485 C482 0.929 . S
S486 N487 1.613 . S
S486 N488 1.610 . S
N487 S486 1.613 . S
N487 C490 1.350 . S
N488 S486 1.610 . S
N488 C489 1.351 . S
C489 C483 1.428 . S
C489 N488 1.351 . S
C489 C490 1.434 . S
C490 C481 1.429 . S
C490 N487 1.350 . S
C490 C489 1.434 . S
C491 C492 1.369 . S
C491 C493 1.419 . S
C491 H495 0.930 . S
C492 C491 1.369 . S
C492 C501 1.429 . S
C493 C491 1.419 . S
C493 C494 1.363 . S
C493 H496 0.929 . S
C494 C493 1.363 . S
C494 C500 1.428 . S
H495 C491 0.930 . S
H496 C493 0.929 . S
S497 N498 1.613 . S
S497 N499 1.610 . S
N498 S497 1.613 . S
N498 C501 1.350 . S
N499 S497 1.610 . S
N499 C500 1.351 . S
C500 C494 1.428 . S
C500 N499 1.351 . S
C500 C501 1.434 . S
C501 C492 1.429 . S
C501 N498 1.350 . S
C501 C500 1.434 . S
C502 C503 1.369 . S
C502 C504 1.419 . S
C502 H506 0.930 . S
C503 C502 1.369 . S
C503 C512 1.429 . S
C504 C502 1.419 . S
C504 C505 1.363 . S
C504 H507 0.929 . S
C505 C504 1.363 . S
C505 C511 1.428 . S
H506 C502 0.930 . S
H507 C504 0.929 . S
S508 N509 1.613 . S
S508 N510 1.610 . S
N509 S508 1.613 . S
N509 C512 1.350 . S
N510 S508 1.610 . S
N510 C511 1.351 . S
C511 C505 1.428 . S
C511 N510 1.351 . S
C511 C512 1.434 . S
C512 C503 1.429 . S
C512 N509 1.350 . S
C512 C511 1.434 . S
C513 C514 1.369 . S
C513 C515 1.419 . S
C513 H517 0.930 . S
C514 C513 1.369 . S
C514 C523 1.429 . S
C515 C513 1.419 . S
C515 C516 1.363 . S
C515 H518 0.929 . S
C516 C515 1.363 . S
C516 C522 1.428 . S
H517 C513 0.930 . S
H518 C515 0.929 . S
S519 N520 1.613 . S
S519 N521 1.610 . S
N520 S519 1.613 . S
N520 C523 1.350 . S
N521 S519 1.610 . S
N521 C522 1.351 . S
C522 C516 1.428 . S
C522 N521 1.351 . S
C522 C523 1.434 . S
C523 C514 1.429 . S
C523 N520 1.350 . S
C523 C522 1.434 . S
C524 C525 1.369 . S
C524 C526 1.419 . S
C524 H528 0.930 . S
C525 C524 1.369 . S
C525 C534 1.429 . S
C526 C524 1.419 . S
C526 C527 1.363 . S
C526 H529 0.929 . S
C527 C526 1.363 . S
C527 C533 1.428 . S
H528 C524 0.930 . S
H529 C526 0.929 . S
S530 N531 1.613 . S
S530 N532 1.610 . S
N531 S530 1.613 . S
N531 C534 1.350 . S
N532 S530 1.610 . S
N532 C533 1.351 . S
C533 C527 1.428 . S
C533 N532 1.351 . S
C533 C534 1.434 . S
C534 C525 1.429 . S
C534 N531 1.350 . S
C534 C533 1.434 . S
C535 C536 1.369 . S
C535 C537 1.419 . S
C535 H539 0.930 . S
C536 C535 1.369 . S
C536 C545 1.429 . S
C537 C535 1.419 . S
C537 C538 1.363 . S
C537 H540 0.929 . S
C538 C537 1.363 . S
C538 C544 1.428 . S
H539 C535 0.930 . S
H540 C537 0.929 . S
S541 N542 1.613 . S
S541 N543 1.610 . S
N542 S541 1.613 . S
N542 C545 1.350 . S
N543 S541 1.610 . S
N543 C544 1.351 . S
C544 C538 1.428 . S
C544 N543 1.351 . S
C544 C545 1.434 . S
C545 C536 1.429 . S
C545 N542 1.350 . S
C545 C544 1.434 . S
C546 C547 1.369 . S
C546 C548 1.419 1_545 S
C546 H550 0.930 . S
C547 C546 1.369 . S
C547 C556 1.429 . S
C548 C546 1.419 1_565 S
C548 C549 1.363 . S
C548 H551 0.929 . S
C549 C548 1.363 . S
C549 C555 1.428 . S
H550 C546 0.930 . S
H551 C548 0.929 . S
S552 N553 1.613 1_565 S
S552 N554 1.610 . S
N553 S552 1.613 1_545 S
N553 C556 1.350 . S
N554 S552 1.610 . S
N554 C555 1.351 . S
C555 C549 1.428 . S
C555 N554 1.351 . S
C555 C556 1.434 1_565 S
C556 C547 1.429 . S
C556 N553 1.350 . S
C556 C555 1.434 1_545 S
C557 C558 1.369 . S
C557 C559 1.419 . S
C557 H561 0.930 . S
C558 C557 1.369 . S
C558 C567 1.429 . S
C559 C557 1.419 . S
C559 C560 1.363 . S
C559 H562 0.929 . S
C560 C559 1.363 . S
C560 C566 1.428 . S
H561 C557 0.930 . S
H562 C559 0.929 . S
S563 N564 1.613 . S
S563 N565 1.610 . S
N564 S563 1.613 . S
N564 C567 1.350 . S
N565 S563 1.610 . S
N565 C566 1.351 . S
C566 C560 1.428 . S
C566 N565 1.351 . S
C566 C567 1.434 . S
C567 C558 1.429 . S
C567 N564 1.350 . S
C567 C566 1.434 . S
C568 C569 1.369 . S
C568 C570 1.419 1_455 S
C568 H572 0.930 . S
C569 C568 1.369 . S
C569 C578 1.429 . S
C570 C568 1.419 1_655 S
C570 C571 1.363 . S
C570 H573 0.929 . S
C571 C570 1.363 . S
C571 C577 1.428 . S
H572 C568 0.930 . S
H573 C570 0.929 . S
S574 N575 1.613 . S
S574 N576 1.610 1_455 S
N575 S574 1.613 . S
N575 C578 1.350 . S
N576 S574 1.610 1_655 S
N576 C577 1.351 . S
C577 C571 1.428 . S
C577 N576 1.351 . S
C577 C578 1.434 1_655 S
C578 C569 1.429 . S
C578 N575 1.350 . S
C578 C577 1.434 1_455 S
C579 C580 1.369 . S
C579 C581 1.419 1_655 S
C579 H583 0.930 . S
C580 C579 1.369 . S
C580 C589 1.429 . S
C581 C579 1.419 1_455 S
C581 C582 1.363 . S
C581 H584 0.929 . S
C582 C581 1.363 . S
C582 C588 1.428 . S
H583 C579 0.930 . S
H584 C581 0.929 . S
S585 N586 1.613 1_455 S
S585 N587 1.610 . S
N586 S585 1.613 1_655 S
N586 C589 1.350 . S
N587 S585 1.610 . S
N587 C588 1.351 . S
C588 C582 1.428 . S
C588 N587 1.351 . S
C588 C589 1.434 1_455 S
C589 C580 1.429 . S
C589 N586 1.350 . S
C589 C588 1.434 1_655 S
C590 C591 1.369 . S
C590 C592 1.419 1_545 S
C590 H594 0.930 . S
C591 C590 1.369 . S
C591 C600 1.429 . S
C592 C590 1.419 1_565 S
C592 C593 1.363 . S
C592 H595 0.929 . S
C593 C592 1.363 . S
C593 C599 1.428 . S
H594 C590 0.930 . S
H595 C592 0.929 . S
S596 N597 1.613 . S
S596 N598 1.610 1_545 S
N597 S596 1.613 . S
N597 C600 1.350 . S
N598 S596 1.610 1_565 S
N598 C599 1.351 . S
C599 C593 1.428 . S
C599 N598 1.351 . S
C599 C600 1.434 1_565 S
C600 C591 1.429 . S
C600 N597 1.350 . S
C600 C599 1.434 1_545 S
C601 C602 1.369 . S
C601 C603 1.419 . S
C601 H605 0.930 . S
C602 C601 1.369 . S
C602 C611 1.429 . S
C603 C601 1.419 . S
C603 C604 1.363 . S
C603 H606 0.929 . S
C604 C603 1.363 . S
C604 C610 1.428 . S
H605 C601 0.930 . S
H606 C603 0.929 . S
S607 N608 1.613 . S
S607 N609 1.610 . S
N608 S607 1.613 . S
N608 C611 1.350 . S
N609 S607 1.610 . S
N609 C610 1.351 . S
C610 C604 1.428 . S
C610 N609 1.351 . S
C610 C611 1.434 . S
C611 C602 1.429 . S
C611 N608 1.350 . S
C611 C610 1.434 . S
C612 C613 1.369 . S
C612 C614 1.419 . S
C612 H616 0.930 . S
C613 C612 1.369 . S
C613 C622 1.429 1_554 S
C614 C612 1.419 . S
C614 C615 1.363 1_554 S
C614 H617 0.929 . S
C615 C614 1.363 1_556 S
C615 C621 1.428 . S
H616 C612 0.930 . S
H617 C614 0.929 . S
S618 N619 1.613 . S
S618 N620 1.610 . S
N619 S618 1.613 . S
N619 C622 1.350 . S
N620 S618 1.610 . S
N620 C621 1.351 . S
C621 C615 1.428 . S
C621 N620 1.351 . S
C621 C622 1.434 . S
C622 C613 1.429 1_556 S
C622 N619 1.350 . S
C622 C621 1.434 . S
C623 C624 1.369 . S
C623 C625 1.419 . S
C623 H627 0.930 . S
C624 C623 1.369 . S
C624 C633 1.429 . S
C625 C623 1.419 . S
C625 C626 1.363 . S
C625 H628 0.929 . S
C626 C625 1.363 . S
C626 C632 1.428 . S
H627 C623 0.930 . S
H628 C625 0.929 . S
S629 N630 1.613 . S
S629 N631 1.610 . S
N630 S629 1.613 . S
N630 C633 1.350 . S
N631 S629 1.610 . S
N631 C632 1.351 . S
C632 C626 1.428 . S
C632 N631 1.351 . S
C632 C633 1.434 . S
C633 C624 1.429 . S
C633 N630 1.350 . S
C633 C632 1.434 . S
C634 C635 1.369 . S
C634 C636 1.419 . S
C634 H638 0.930 . S
C635 C634 1.369 . S
C635 C644 1.429 . S
C636 C634 1.419 . S
C636 C637 1.363 . S
C636 H639 0.929 . S
C637 C636 1.363 . S
C637 C643 1.428 . S
H638 C634 0.930 . S
H639 C636 0.929 . S
S640 N641 1.613 . S
S640 N642 1.610 . S
N641 S640 1.613 . S
N641 C644 1.350 . S
N642 S640 1.610 . S
N642 C643 1.351 . S
C643 C637 1.428 . S
C643 N642 1.351 . S
C643 C644 1.434 . S
C644 C635 1.429 . S
C644 N641 1.350 . S
C644 C643 1.434 . S
C645 C646 1.369 1_554 S
C645 C647 1.419 . S
C645 H649 0.930 . S
C646 C645 1.369 1_556 S
C646 C655 1.429 . S
C647 C645 1.419 . S
C647 C648 1.363 . S
C647 H650 0.929 . S
C648 C647 1.363 . S
C648 C654 1.428 1_554 S
H649 C645 0.930 . S
H650 C647 0.929 . S
S651 N652 1.613 . S
S651 N653 1.610 . S
N652 S651 1.613 . S
N652 C655 1.350 . S
N653 S651 1.610 . S
N653 C654 1.351 . S
C654 C648 1.428 1_556 S
C654 N653 1.351 . S
C654 C655 1.434 . S
C655 C646 1.429 . S
C655 N652 1.350 . S
C655 C654 1.434 . S
C656 C657 1.369 . S
C656 C658 1.419 . S
C656 H660 0.930 . S
C657 C656 1.369 . S
C657 C666 1.429 . S
C658 C656 1.419 . S
C658 C659 1.363 . S
C658 H661 0.929 . S
C659 C658 1.363 . S
C659 C665 1.428 . S
H660 C656 0.930 . S
H661 C658 0.929 . S
S662 N663 1.613 . S
S662 N664 1.610 . S
N663 S662 1.613 . S
N663 C666 1.350 . S
N664 S662 1.610 . S
N664 C665 1.351 . S
C665 C659 1.428 . S
C665 N664 1.351 . S
C665 C666 1.434 . S
C666 C657 1.429 . S
C666 N663 1.350 . S
C666 C665 1.434 . S
C667 C668 1.369 . S
C667 C669 1.419 . S
C667 H671 0.930 . S
C668 C667 1.369 . S
C668 C677 1.429 . S
C669 C667 1.419 . S
C669 C670 1.363 . S
C669 H672 0.929 . S
C670 C669 1.363 . S
C670 C676 1.428 . S
H671 C667 0.930 . S
H672 C669 0.929 . S
S673 N674 1.613 . S
S673 N675 1.610 . S
N674 S673 1.613 . S
N674 C677 1.350 . S
N675 S673 1.610 . S
N675 C676 1.351 . S
C676 C670 1.428 . S
C676 N675 1.351 . S
C676 C677 1.434 . S
C677 C668 1.429 . S
C677 N674 1.350 . S
C677 C676 1.434 . S
C481 C2 2.094 . S
C483 C242 2.091 . S
C492 C42 2.099 . S
C494 C282 2.089 . S
C503 C82 2.093 . S
C505 C322 2.093 . S
C514 C362 2.088 . S
C516 C122 2.096 . S
C525 C162 2.095 . S
C527 C402 2.091 . S
C536 C442 2.088 . S
C538 C202 2.097 . S
C547 C21 1.781 . S
C549 C141 1.787 . S
C558 C61 1.782 . S
C560 C181 1.786 . S
C569 C221 1.789 . S
C571 C101 1.783 . S
C580 C261 1.781 . S
C582 C381 1.787 . S
C591 C421 1.788 . S
C593 C301 1.783 . S
C602 C461 1.781 . S
C604 C341 1.787 . S
C613 C415 2.052 . S
C615 C15 2.051 . S
C624 C455 2.050 . S
C626 C55 2.055 . S
C635 C95 2.056 . S
C637 C255 2.050 . S
C646 C135 2.053 . S
C648 C295 2.053 . S
C657 C335 2.055 . S
C659 C175 2.049 . S
C668 C215 2.052 . S
C670 C375 2.051 . S
