# Generated by pormake.
# Topology unu, (4)-cn, num edge types: 1
# Building blocks:
#     Node 0, Type 0, BuildingBlock: QUQFOY_clean_sbu_1, # of connection points: 4
#     Node 1, Type 0, BuildingBlock: QUQFOY_clean_sbu_1, # of connection points: 4
#     Node 2, Type 0, BuildingBlock: QUQFOY_clean_sbu_1, # of connection points: 4
#     Node 3, Type 0, BuildingBlock: QUQFOY_clean_sbu_1, # of connection points: 4
#     Node 4, Type 0, BuildingBlock: QUQFOY_clean_sbu_1, # of connection points: 4
#     Node 5, Type 0, BuildingBlock: QUQFOY_clean_sbu_1, # of connection points: 4
#     Node 6, Type 0, BuildingBlock: QUQFOY_clean_sbu_1, # of connection points: 4
#     Node 7, Type 0, BuildingBlock: QUQFOY_clean_sbu_1, # of connection points: 4
#     Node 8, Type 0, BuildingBlock: QUQFOY_clean_sbu_1, # of connection points: 4
#     Node 9, Type 0, BuildingBlock: QUQFOY_clean_sbu_1, # of connection points: 4
#     Node 10, Type 0, BuildingBlock: QUQFOY_clean_sbu_1, # of connection points: 4
#     Node 11, Type 0, BuildingBlock: QUQFOY_clean_sbu_1, # of connection points: 4
#     Node 12, Type 0, BuildingBlock: QUQFOY_clean_sbu_1, # of connection points: 4
#     Node 13, Type 0, BuildingBlock: QUQFOY_clean_sbu_1, # of connection points: 4
#     Node 14, Type 0, BuildingBlock: QUQFOY_clean_sbu_1, # of connection points: 4
#     Node 15, Type 0, BuildingBlock: QUQFOY_clean_sbu_1, # of connection points: 4
#     Node 16, Type 0, BuildingBlock: QUQFOY_clean_sbu_1, # of connection points: 4
#     Node 17, Type 0, BuildingBlock: QUQFOY_clean_sbu_1, # of connection points: 4
#     Node 18, Type 0, BuildingBlock: QUQFOY_clean_sbu_1, # of connection points: 4
#     Node 19, Type 0, BuildingBlock: QUQFOY_clean_sbu_1, # of connection points: 4
#     Node 20, Type 0, BuildingBlock: QUQFOY_clean_sbu_1, # of connection points: 4
#     Node 21, Type 0, BuildingBlock: QUQFOY_clean_sbu_1, # of connection points: 4
#     Node 22, Type 0, BuildingBlock: QUQFOY_clean_sbu_1, # of connection points: 4
#     Node 23, Type 0, BuildingBlock: QUQFOY_clean_sbu_1, # of connection points: 4
#     Node 24, Type 0, BuildingBlock: QUQFOY_clean_sbu_1, # of connection points: 4
#     Node 25, Type 0, BuildingBlock: QUQFOY_clean_sbu_1, # of connection points: 4
#     Node 26, Type 0, BuildingBlock: QUQFOY_clean_sbu_1, # of connection points: 4
#     Node 27, Type 0, BuildingBlock: QUQFOY_clean_sbu_1, # of connection points: 4
#     Node 28, Type 0, BuildingBlock: QUQFOY_clean_sbu_1, # of connection points: 4
#     Node 29, Type 0, BuildingBlock: QUQFOY_clean_sbu_1, # of connection points: 4
#     Node 30, Type 0, BuildingBlock: QUQFOY_clean_sbu_1, # of connection points: 4
#     Node 31, Type 0, BuildingBlock: QUQFOY_clean_sbu_1, # of connection points: 4
#     Node 32, Type 0, BuildingBlock: QUQFOY_clean_sbu_1, # of connection points: 4
#     Node 33, Type 0, BuildingBlock: QUQFOY_clean_sbu_1, # of connection points: 4
#     Node 34, Type 0, BuildingBlock: QUQFOY_clean_sbu_1, # of connection points: 4
#     Node 35, Type 0, BuildingBlock: QUQFOY_clean_sbu_1, # of connection points: 4
#     Edge 36, Type (0, 0), BuildingBlock: OJICUG_clean_linker_0, # of connection points: 2
#     Edge 37, Type (0, 0), BuildingBlock: OJICUG_clean_linker_0, # of connection points: 2
#     Edge 38, Type (0, 0), BuildingBlock: OJICUG_clean_linker_0, # of connection points: 2
#     Edge 39, Type (0, 0), BuildingBlock: OJICUG_clean_linker_0, # of connection points: 2
#     Edge 40, Type (0, 0), BuildingBlock: OJICUG_clean_linker_0, # of connection points: 2
#     Edge 41, Type (0, 0), BuildingBlock: OJICUG_clean_linker_0, # of connection points: 2
#     Edge 42, Type (0, 0), BuildingBlock: OJICUG_clean_linker_0, # of connection points: 2
#     Edge 43, Type (0, 0), BuildingBlock: OJICUG_clean_linker_0, # of connection points: 2
#     Edge 44, Type (0, 0), BuildingBlock: OJICUG_clean_linker_0, # of connection points: 2
#     Edge 45, Type (0, 0), BuildingBlock: OJICUG_clean_linker_0, # of connection points: 2
#     Edge 46, Type (0, 0), BuildingBlock: OJICUG_clean_linker_0, # of connection points: 2
#     Edge 47, Type (0, 0), BuildingBlock: OJICUG_clean_linker_0, # of connection points: 2
#     Edge 48, Type (0, 0), BuildingBlock: OJICUG_clean_linker_0, # of connection points: 2
#     Edge 49, Type (0, 0), BuildingBlock: OJICUG_clean_linker_0, # of connection points: 2
#     Edge 50, Type (0, 0), BuildingBlock: OJICUG_clean_linker_0, # of connection points: 2
#     Edge 51, Type (0, 0), BuildingBlock: OJICUG_clean_linker_0, # of connection points: 2
#     Edge 52, Type (0, 0), BuildingBlock: OJICUG_clean_linker_0, # of connection points: 2
#     Edge 53, Type (0, 0), BuildingBlock: OJICUG_clean_linker_0, # of connection points: 2
#     Edge 54, Type (0, 0), BuildingBlock: OJICUG_clean_linker_0, # of connection points: 2
#     Edge 55, Type (0, 0), BuildingBlock: OJICUG_clean_linker_0, # of connection points: 2
#     Edge 56, Type (0, 0), BuildingBlock: OJICUG_clean_linker_0, # of connection points: 2
#     Edge 57, Type (0, 0), BuildingBlock: OJICUG_clean_linker_0, # of connection points: 2
#     Edge 58, Type (0, 0), BuildingBlock: OJICUG_clean_linker_0, # of connection points: 2
#     Edge 59, Type (0, 0), BuildingBlock: OJICUG_clean_linker_0, # of connection points: 2
#     Edge 60, Type (0, 0), BuildingBlock: OJICUG_clean_linker_0, # of connection points: 2
#     Edge 61, Type (0, 0), BuildingBlock: OJICUG_clean_linker_0, # of connection points: 2
#     Edge 62, Type (0, 0), BuildingBlock: OJICUG_clean_linker_0, # of connection points: 2
#     Edge 63, Type (0, 0), BuildingBlock: OJICUG_clean_linker_0, # of connection points: 2
#     Edge 64, Type (0, 0), BuildingBlock: OJICUG_clean_linker_0, # of connection points: 2
#     Edge 65, Type (0, 0), BuildingBlock: OJICUG_clean_linker_0, # of connection points: 2
#     Edge 66, Type (0, 0), BuildingBlock: OJICUG_clean_linker_0, # of connection points: 2
#     Edge 67, Type (0, 0), BuildingBlock: OJICUG_clean_linker_0, # of connection points: 2
#     Edge 68, Type (0, 0), BuildingBlock: OJICUG_clean_linker_0, # of connection points: 2
#     Edge 69, Type (0, 0), BuildingBlock: OJICUG_clean_linker_0, # of connection points: 2
#     Edge 70, Type (0, 0), BuildingBlock: OJICUG_clean_linker_0, # of connection points: 2
#     Edge 71, Type (0, 0), BuildingBlock: OJICUG_clean_linker_0, # of connection points: 2
#     Edge 72, Type (0, 0), BuildingBlock: OJICUG_clean_linker_0, # of connection points: 2
#     Edge 73, Type (0, 0), BuildingBlock: OJICUG_clean_linker_0, # of connection points: 2
#     Edge 74, Type (0, 0), BuildingBlock: OJICUG_clean_linker_0, # of connection points: 2
#     Edge 75, Type (0, 0), BuildingBlock: OJICUG_clean_linker_0, # of connection points: 2
#     Edge 76, Type (0, 0), BuildingBlock: OJICUG_clean_linker_0, # of connection points: 2
#     Edge 77, Type (0, 0), BuildingBlock: OJICUG_clean_linker_0, # of connection points: 2
#     Edge 78, Type (0, 0), BuildingBlock: OJICUG_clean_linker_0, # of connection points: 2
#     Edge 79, Type (0, 0), BuildingBlock: OJICUG_clean_linker_0, # of connection points: 2
#     Edge 80, Type (0, 0), BuildingBlock: OJICUG_clean_linker_0, # of connection points: 2
#     Edge 81, Type (0, 0), BuildingBlock: OJICUG_clean_linker_0, # of connection points: 2
#     Edge 82, Type (0, 0), BuildingBlock: OJICUG_clean_linker_0, # of connection points: 2
#     Edge 83, Type (0, 0), BuildingBlock: OJICUG_clean_linker_0, # of connection points: 2
#     Edge 84, Type (0, 0), BuildingBlock: OJICUG_clean_linker_0, # of connection points: 2
#     Edge 85, Type (0, 0), BuildingBlock: OJICUG_clean_linker_0, # of connection points: 2
#     Edge 86, Type (0, 0), BuildingBlock: OJICUG_clean_linker_0, # of connection points: 2
#     Edge 87, Type (0, 0), BuildingBlock: OJICUG_clean_linker_0, # of connection points: 2
#     Edge 88, Type (0, 0), BuildingBlock: OJICUG_clean_linker_0, # of connection points: 2
#     Edge 89, Type (0, 0), BuildingBlock: OJICUG_clean_linker_0, # of connection points: 2
#     Edge 90, Type (0, 0), BuildingBlock: OJICUG_clean_linker_0, # of connection points: 2
#     Edge 91, Type (0, 0), BuildingBlock: OJICUG_clean_linker_0, # of connection points: 2
#     Edge 92, Type (0, 0), BuildingBlock: OJICUG_clean_linker_0, # of connection points: 2
#     Edge 93, Type (0, 0), BuildingBlock: OJICUG_clean_linker_0, # of connection points: 2
#     Edge 94, Type (0, 0), BuildingBlock: OJICUG_clean_linker_0, # of connection points: 2
#     Edge 95, Type (0, 0), BuildingBlock: OJICUG_clean_linker_0, # of connection points: 2
#     Edge 96, Type (0, 0), BuildingBlock: OJICUG_clean_linker_0, # of connection points: 2
#     Edge 97, Type (0, 0), BuildingBlock: OJICUG_clean_linker_0, # of connection points: 2
#     Edge 98, Type (0, 0), BuildingBlock: OJICUG_clean_linker_0, # of connection points: 2
#     Edge 99, Type (0, 0), BuildingBlock: OJICUG_clean_linker_0, # of connection points: 2
#     Edge 100, Type (0, 0), BuildingBlock: OJICUG_clean_linker_0, # of connection points: 2
#     Edge 101, Type (0, 0), BuildingBlock: OJICUG_clean_linker_0, # of connection points: 2
#     Edge 102, Type (0, 0), BuildingBlock: OJICUG_clean_linker_0, # of connection points: 2
#     Edge 103, Type (0, 0), BuildingBlock: OJICUG_clean_linker_0, # of connection points: 2
#     Edge 104, Type (0, 0), BuildingBlock: OJICUG_clean_linker_0, # of connection points: 2
#     Edge 105, Type (0, 0), BuildingBlock: OJICUG_clean_linker_0, # of connection points: 2
#     Edge 106, Type (0, 0), BuildingBlock: OJICUG_clean_linker_0, # of connection points: 2
#     Edge 107, Type (0, 0), BuildingBlock: OJICUG_clean_linker_0, # of connection points: 2
# Relax obj value: 0.078
# Max RMSD: 0.135
# Mean RMSD: 0.135
data_MOF--net-unu--node1-QUQFOY_clean_sbu_1--edge1-OJICUG_clean_linker_0
_symmetry_space_group_name_H-M    P1
_symmetry_Int_Tables_number       1
_symmetry_cell_setting            triclinic
loop_
_symmetry_equiv_pos_as_xyz
'x, y, z'
_cell_length_a     31.388826
_cell_length_b     31.38983
_cell_length_c     92.352393
_cell_angle_alpha  90.000595
_cell_angle_beta   89.998471
_cell_angle_gamma 119.99896
loop_
_atom_site_label
_atom_site_type_symbol
_atom_site_fract_x
_atom_site_fract_y
_atom_site_fract_z
_atom_type_partial_charge
O0 O 0.19372 1.01724 0.13741 0.0
Cd1 Cd 0.25617 0.08517 0.1362 0.0
Cd2 Cd 0.24507 0.08191 0.16448 0.0
O3 O 0.19907 1.00684 0.16082 0.0
O4 O 0.29652 0.08394 0.11953 0.0
O5 O 0.31742 0.08549 0.14251 0.0
C6 C 0.32543 0.08118 0.129 0.0
C7 C 0.30275 0.12114 0.18287 0.0
C8 C 0.17852 0.99003 0.14859 0.0
C9 C 0.22043 0.14884 0.14768 0.0
O10 O 0.21497 0.12416 0.15909 0.0
O11 O 0.24224 0.14377 0.13672 0.0
O12 O 0.25638 0.09539 0.18572 0.0
O13 O 0.31673 0.12003 0.16979 0.0
O14 O 0.04416 0.18854 0.13737 0.0
Cd15 Cd 0.97623 0.18306 0.13614 0.0
Cd16 Cd 0.97941 0.17523 0.16442 0.0
O17 O 0.05449 0.20428 0.16079 0.0
O18 O 0.9775 0.22465 0.11947 0.0
O19 O 0.97589 0.24398 0.14245 0.0
C20 C 0.98024 0.25631 0.12894 0.0
C21 C 0.94018 0.19369 0.18282 0.0
C22 C 0.07134 0.20054 0.14856 0.0
C23 C 0.91251 0.08366 0.14762 0.0
O24 O 0.93715 0.10288 0.15903 0.0
O25 O 0.91762 0.11053 0.13665 0.0
O26 O 0.96591 0.17305 0.18567 0.0
O27 O 0.9413 0.20879 0.16974 0.0
O28 O 0.87288 0.8677 0.13735 0.0
Cd29 Cd 0.87836 0.80526 0.13614 0.0
Cd30 Cd 0.88611 0.8163 0.16442 0.0
O31 O 0.85704 0.8623 0.16076 0.0
O32 O 0.8368 0.7649 0.11947 0.0
O33 O 0.81743 0.74401 0.14245 0.0
C34 C 0.80513 0.736 0.12894 0.0
C35 C 0.86763 0.75862 0.18282 0.0
C36 C 0.86083 0.88288 0.14853 0.0
C37 C 0.97773 0.84096 0.14765 0.0
O38 O 0.95847 0.8464 0.15905 0.0
O39 O 0.95089 0.81917 0.13668 0.0
O40 O 0.88824 0.80499 0.18567 0.0
O41 O 0.85256 0.74464 0.16974 0.0
O42 O 1.02977 0.18149 0.43687 0.0
Cd43 Cd 0.0977 0.24393 0.43809 0.0
Cd44 Cd 0.09445 0.23292 0.4098 0.0
O45 O 1.01938 0.18692 0.41346 0.0
O46 O 0.09647 0.28428 0.45476 0.0
O47 O 0.09804 0.30519 0.43178 0.0
C48 C 0.09372 0.31319 0.44529 0.0
C49 C 0.13367 0.29059 0.39141 0.0
C50 C 1.00256 0.16633 0.42569 0.0
C51 C 0.16138 0.20822 0.42659 0.0
O52 O 0.1367 0.20281 0.41518 0.0
O53 O 0.15631 0.23 0.43756 0.0
O54 O 0.10791 0.24423 0.38856 0.0
O55 O 0.13257 0.30458 0.40449 0.0
O56 O 0.88022 0.86067 0.43682 0.0
Cd57 Cd 0.81777 0.86615 0.43804 0.0
Cd58 Cd 0.82883 0.874 0.40976 0.0
O59 O 0.87485 0.84494 0.4134 0.0
O60 O 0.77743 0.82455 0.45471 0.0
O61 O 0.75652 0.80524 0.43172 0.0
C62 C 0.74852 0.7929 0.44523 0.0
C63 C 0.77114 0.85553 0.39136 0.0
C64 C 0.89542 0.84868 0.42564 0.0
C65 C 0.85347 0.96556 0.42657 0.0
O66 O 0.8589 0.94634 0.41515 0.0
O67 O 0.83169 0.93867 0.43753 0.0
O68 O 0.81751 0.87618 0.38851 0.0
O69 O 0.75716 0.84043 0.40444 0.0
O70 O 0.20107 0.03193 0.43682 0.0
Cd71 Cd 0.19559 0.964 0.43802 0.0
Cd72 Cd 0.18778 0.96729 0.40975 0.0
O73 O 0.21686 0.04236 0.41341 0.0
O74 O 0.23718 0.96523 0.45469 0.0
O75 O 0.25653 0.9637 0.43171 0.0
C76 C 0.26884 0.968 0.44522 0.0
C77 C 0.20624 0.92806 0.39135 0.0
C78 C 0.2131 0.05916 0.42564 0.0
C79 C 0.0962 0.90035 0.42654 0.0
O80 O 0.11543 0.92503 0.41513 0.0
O81 O 0.12307 0.9054 0.4375 0.0
O82 O 0.18563 0.95381 0.3885 0.0
O83 O 0.22132 0.92916 0.40443 0.0
O84 O 0.88019 0.03184 0.93689 0.0
Cd85 Cd 0.81775 0.9639 0.93812 0.0
Cd86 Cd 0.82873 0.96713 0.90984 0.0
O87 O 0.87471 0.04221 0.91348 0.0
O88 O 0.7774 0.96515 0.95479 0.0
O89 O 0.7565 0.96357 0.9318 0.0
C90 C 0.74849 0.96789 0.94531 0.0
C91 C 0.77106 0.92789 0.89144 0.0
C92 C 0.89533 0.05904 0.92571 0.0
C93 C 0.85344 0.90022 0.92662 0.0
O94 O 0.85886 0.92489 0.91521 0.0
O95 O 0.83167 0.9053 0.93759 0.0
O96 O 0.81742 0.95366 0.88859 0.0
O97 O 0.75707 0.92898 0.90452 0.0
O98 O 1.02974 0.86052 0.93682 0.0
Cd99 Cd 0.09767 0.866 0.93801 0.0
Cd100 Cd 0.09433 0.87376 0.90973 0.0
O101 O 1.01926 0.84469 0.91341 0.0
O102 O 0.09648 0.82445 0.95469 0.0
O103 O 0.09797 0.80506 0.93171 0.0
C104 C 0.09368 0.79276 0.94522 0.0
C105 C 0.13354 0.85528 0.89134 0.0
C106 C 1.00249 0.84847 0.92565 0.0
C107 C 0.16129 0.96538 0.92651 0.0
O108 O 0.13658 0.94613 0.91511 0.0
O109 O 0.15627 0.93853 0.93748 0.0
O110 O 0.10778 0.87587 0.88849 0.0
O111 O 0.13246 0.84022 0.90443 0.0
O112 O 0.20101 0.18138 0.93678 0.0
Cd113 Cd 0.19553 0.24383 0.938 0.0
Cd114 Cd 0.18762 0.23275 0.90972 0.0
O115 O 0.21666 0.18671 0.91336 0.0
O116 O 0.23713 0.28415 0.95467 0.0
O117 O 0.25645 0.30509 0.93169 0.0
C118 C 0.26878 0.31308 0.9452 0.0
C119 C 0.20608 0.29042 0.89132 0.0
C120 C 0.21296 0.16616 0.92559 0.0
C121 C 0.0961 0.20814 0.92655 0.0
O122 O 0.11529 0.20271 0.91513 0.0
O123 O 0.12301 0.22991 0.93751 0.0
O124 O 0.18541 0.24405 0.88847 0.0
O125 O 0.22121 0.30441 0.9044 0.0
O126 O 0.04439 0.86805 0.63739 0.0
Cd127 Cd 0.97645 0.80561 0.63618 0.0
Cd128 Cd 0.97964 0.81671 0.66446 0.0
O129 O 0.05472 0.86272 0.66081 0.0
O130 O 0.97771 0.76526 0.61951 0.0
O131 O 0.9761 0.74435 0.64249 0.0
C132 C 0.98043 0.73635 0.62898 0.0
C133 C 0.94042 0.75904 0.68286 0.0
C134 C 0.07157 0.88326 0.64858 0.0
C135 C 0.91274 0.84133 0.64763 0.0
O136 O 0.93737 0.84677 0.65905 0.0
O137 O 0.91785 0.81954 0.63667 0.0
O138 O 0.96614 0.80541 0.6857 0.0
O139 O 0.94155 0.74505 0.66978 0.0
O140 O 0.19398 0.18889 0.63734 0.0
Cd141 Cd 0.25643 0.1834 0.63614 0.0
Cd142 Cd 0.24533 0.17566 0.66442 0.0
O143 O 0.19933 0.20472 0.66075 0.0
O144 O 0.2968 0.22496 0.61947 0.0
O145 O 0.31766 0.24434 0.64245 0.0
C146 C 0.32568 0.25664 0.62894 0.0
C147 C 0.30303 0.19415 0.68281 0.0
C148 C 0.17878 0.20094 0.64851 0.0
C149 C 0.22068 0.08403 0.64765 0.0
O150 O 0.21523 0.10329 0.65905 0.0
O151 O 0.2425 0.11087 0.63668 0.0
O152 O 0.25667 0.17355 0.68567 0.0
O153 O 0.317 0.2092 0.66973 0.0
O154 O 0.87313 1.01763 0.63729 0.0
Cd155 Cd 0.87862 0.08556 0.63606 0.0
Cd156 Cd 0.88639 0.08236 0.66434 0.0
O157 O 0.8573 1.00728 0.6607 0.0
O158 O 0.837 0.0843 0.61939 0.0
O159 O 0.8177 0.0859 0.64238 0.0
C160 C 0.80535 0.08155 0.62887 0.0
C161 C 0.86797 0.12162 0.68273 0.0
C162 C 0.86108 0.99044 0.64847 0.0
C163 C 0.978 0.14925 0.64755 0.0
O164 O 0.95875 0.12459 0.65896 0.0
O165 O 0.95114 0.14417 0.63658 0.0
O166 O 0.88856 0.09585 0.68558 0.0
O167 O 0.85288 0.12051 0.66965 0.0
O168 O 0.86051 0.35081 0.47074 0.0
Cd169 Cd 0.92296 0.41873 0.46953 0.0
Cd170 Cd 0.91186 0.4155 0.49781 0.0
O171 O 0.86584 0.34042 0.49416 0.0
O172 O 0.96331 0.41749 0.45286 0.0
O173 O 0.98421 0.41905 0.47585 0.0
C174 C 0.99221 0.41473 0.46234 0.0
C175 C 0.96954 0.45473 0.5162 0.0
C176 C 0.84529 0.3236 0.48192 0.0
C177 C 0.88722 0.48241 0.481 0.0
O178 O 0.88177 0.45775 0.49242 0.0
O179 O 0.90903 0.47733 0.47004 0.0
O180 O 0.92317 0.429 0.51906 0.0
O181 O 0.98352 0.45361 0.50313 0.0
O182 O 0.71093 0.52208 0.47069 0.0
Cd183 Cd 0.643 0.5166 0.46946 0.0
Cd184 Cd 0.64618 0.50877 0.49774 0.0
O185 O 0.72126 0.53782 0.4941 0.0
O186 O 0.64426 0.5582 0.45279 0.0
O187 O 0.64266 0.57751 0.47577 0.0
C188 C 0.647 0.58984 0.46227 0.0
C189 C 0.60697 0.52724 0.51614 0.0
C190 C 0.73811 0.53408 0.48187 0.0
C191 C 0.57927 0.4172 0.48094 0.0
O192 O 0.60391 0.43643 0.49235 0.0
O193 O 0.58439 0.44408 0.46997 0.0
O194 O 0.63269 0.5066 0.51899 0.0
O195 O 0.60809 0.54234 0.50306 0.0
O196 O 0.53964 0.20126 0.47067 0.0
Cd197 Cd 0.54513 0.13882 0.46947 0.0
Cd198 Cd 0.55286 0.14986 0.49775 0.0
O199 O 0.52378 0.19585 0.49408 0.0
O200 O 0.50357 0.09845 0.4528 0.0
O201 O 0.4842 0.07757 0.47578 0.0
C202 C 0.4719 0.06955 0.46227 0.0
C203 C 0.53438 0.09218 0.51614 0.0
C204 C 0.52757 0.21643 0.48185 0.0
C205 C 0.6445 0.17454 0.48098 0.0
O206 O 0.62523 0.17998 0.49238 0.0
O207 O 0.61766 0.15275 0.47001 0.0
O208 O 0.55498 0.13854 0.519 0.0
O209 O 0.51933 0.0782 0.50306 0.0
O210 O 0.69671 0.51491 0.77021 0.0
Cd211 Cd 0.76463 0.57738 0.77142 0.0
Cd212 Cd 0.76136 0.56641 0.74314 0.0
O213 O 0.6863 0.52035 0.7468 0.0
O214 O 0.76339 0.6177 0.7881 0.0
O215 O 0.76492 0.63862 0.76512 0.0
C216 C 0.76062 0.64661 0.77863 0.0
C217 C 0.80051 0.6241 0.72474 0.0
C218 C 0.66949 0.49975 0.75903 0.0
C219 C 0.82835 0.54177 0.75991 0.0
O220 O 0.80368 0.53636 0.7485 0.0
O221 O 0.82326 0.5635 0.77088 0.0
O222 O 0.77478 0.57773 0.72189 0.0
O223 O 0.79942 0.63808 0.73782 0.0
O224 O 0.54713 0.19404 0.77009 0.0
Cd225 Cd 0.48468 0.19952 0.77133 0.0
Cd226 Cd 0.49567 0.20743 0.74305 0.0
O227 O 0.54172 0.17839 0.74667 0.0
O228 O 0.44441 0.15792 0.78801 0.0
O229 O 0.42339 0.1386 0.76504 0.0
C230 C 0.41546 0.12626 0.77855 0.0
C231 C 0.43798 0.18903 0.72467 0.0
C232 C 0.56231 0.18209 0.75889 0.0
C233 C 0.52038 0.29896 0.75989 0.0
O234 O 0.52577 0.27977 0.74846 0.0
O235 O 0.49862 0.27205 0.77085 0.0
O236 O 0.48434 0.20968 0.72181 0.0
O237 O 0.424 0.17389 0.73774 0.0
O238 O 0.86803 0.36546 0.77008 0.0
Cd239 Cd 0.86253 0.29751 0.77127 0.0
Cd240 Cd 0.85474 0.30091 0.74299 0.0
O241 O 0.88385 0.37597 0.74667 0.0
O242 O 0.90407 0.29866 0.78793 0.0
O243 O 0.92346 0.29721 0.76495 0.0
C244 C 0.93575 0.30146 0.77846 0.0
C245 C 0.87321 0.26171 0.72459 0.0
C246 C 0.88008 0.39272 0.75892 0.0
C247 C 0.76314 0.23391 0.75977 0.0
O248 O 0.78238 0.25866 0.74837 0.0
O249 O 0.79 0.23892 0.77073 0.0
O250 O 0.85262 0.28749 0.72174 0.0
O251 O 0.88826 0.26277 0.73768 0.0
O252 O 0.54679 0.36513 0.27018 0.0
Cd253 Cd 0.48434 0.2972 0.2714 0.0
Cd254 Cd 0.49535 0.30043 0.24312 0.0
O255 O 0.54137 0.3755 0.24677 0.0
O256 O 0.444 0.29845 0.28808 0.0
O257 O 0.42308 0.29688 0.2651 0.0
C258 C 0.41509 0.30121 0.27861 0.0
C259 C 0.43766 0.2612 0.22473 0.0
C260 C 0.56196 0.39233 0.259 0.0
C261 C 0.52003 0.23351 0.25992 0.0
O262 O 0.52545 0.25817 0.2485 0.0
O263 O 0.49825 0.2386 0.27088 0.0
O264 O 0.48402 0.28695 0.22188 0.0
O265 O 0.42368 0.26231 0.23781 0.0
O266 O 0.69635 0.19385 0.27016 0.0
Cd267 Cd 0.76428 0.19933 0.27136 0.0
Cd268 Cd 0.76099 0.20712 0.24308 0.0
O269 O 0.68593 0.17807 0.24675 0.0
O270 O 0.76307 0.15776 0.28803 0.0
O271 O 0.7646 0.1384 0.26505 0.0
C272 C 0.7603 0.12609 0.27856 0.0
C273 C 0.80019 0.18863 0.22469 0.0
C274 C 0.66913 0.18183 0.25898 0.0
C275 C 0.82795 0.29872 0.25987 0.0
O276 O 0.80327 0.27948 0.24846 0.0
O277 O 0.82289 0.27185 0.27084 0.0
O278 O 0.77445 0.20926 0.22184 0.0
O279 O 0.79909 0.17356 0.23777 0.0
O280 O 0.86765 0.51468 0.27015 0.0
Cd281 Cd 0.86216 0.57712 0.27137 0.0
Cd282 Cd 0.85433 0.56607 0.24309 0.0
O283 O 0.8834 0.52007 0.24673 0.0
O284 O 0.90374 0.61746 0.28804 0.0
O285 O 0.92308 0.63838 0.26506 0.0
C286 C 0.9354 0.64638 0.27857 0.0
C287 C 0.87276 0.62374 0.22469 0.0
C288 C 0.87966 0.4995 0.25896 0.0
C289 C 0.76275 0.5414 0.25989 0.0
O290 O 0.78198 0.53597 0.24848 0.0
O291 O 0.78963 0.56319 0.27085 0.0
O292 O 0.85214 0.57737 0.22184 0.0
O293 O 0.88786 0.63773 0.23777 0.0
O294 O 0.71084 0.20112 0.97074 0.0
Cd295 Cd 0.64292 0.13866 0.96952 0.0
Cd296 Cd 0.64613 0.14975 0.9978 0.0
O297 O 0.72121 0.19577 0.99415 0.0
O298 O 0.64418 0.0983 0.95286 0.0
O299 O 0.6426 0.07742 0.97584 0.0
C300 C 0.64693 0.06941 0.96233 0.0
C301 C 0.60691 0.09207 1.0162 0.0
C302 C 0.73804 0.21633 0.98192 0.0
C303 C 0.57921 0.17437 0.98099 0.0
O304 O 0.60385 0.17981 0.9924 0.0
O305 O 0.58431 0.15258 0.97003 0.0
O306 O 0.63263 0.13844 1.01905 0.0
O307 O 0.60804 0.07809 1.00312 0.0
O308 O 0.86042 0.52199 0.9707 0.0
Cd309 Cd 0.92287 0.5165 0.9695 0.0
Cd310 Cd 0.9118 0.50872 0.99777 0.0
O311 O 0.8658 0.53779 0.99412 0.0
O312 O 0.96322 0.55806 0.95282 0.0
O313 O 0.98413 0.57743 0.9758 0.0
C314 C 0.99213 0.58973 0.96229 0.0
C315 C 0.96948 0.52719 1.01617 0.0
C316 C 0.84523 0.53402 0.98188 0.0
C317 C 0.88713 0.41711 0.98099 0.0
O318 O 0.88169 0.43636 0.9924 0.0
O319 O 0.90893 0.44397 0.97002 0.0
O320 O 0.92312 0.50658 1.01902 0.0
O321 O 0.98346 0.54226 1.00309 0.0
O322 O 0.53957 0.35067 0.97068 0.0
Cd323 Cd 0.54506 0.4186 0.96945 0.0
Cd324 Cd 0.55283 0.41537 0.99774 0.0
O325 O 0.52376 0.34029 0.99409 0.0
O326 O 0.50349 0.41736 0.95278 0.0
O327 O 0.48414 0.41893 0.97576 0.0
C328 C 0.47182 0.41461 0.96225 0.0
C329 C 0.53437 0.45459 1.01613 0.0
C330 C 0.52753 0.32347 0.98186 0.0
C331 C 0.64444 0.48229 0.98095 0.0
O332 O 0.62519 0.45762 0.99236 0.0
O333 O 0.61758 0.4772 0.96998 0.0
O334 O 0.55498 0.42884 1.01898 0.0
O335 O 0.51929 0.45349 1.00305 0.0
O336 O 0.52732 0.68406 0.80408 0.0
Cd337 Cd 0.58976 0.75201 0.8029 0.0
Cd338 Cd 0.57858 0.74862 0.83117 0.0
O339 O 0.53264 0.67356 0.82749 0.0
O340 O 0.63017 0.75086 0.78623 0.0
O341 O 0.651 0.75232 0.80922 0.0
C342 C 0.65905 0.74807 0.7957 0.0
C343 C 0.63624 0.78782 0.84957 0.0
C344 C 0.51211 0.6568 0.81525 0.0
C345 C 0.55397 0.81561 0.8144 0.0
O346 O 0.54846 0.79087 0.8258 0.0
O347 O 0.57583 0.81061 0.80344 0.0
O348 O 0.58987 0.76204 0.85242 0.0
O349 O 0.65023 0.78676 0.83649 0.0
O350 O 0.37782 0.85545 0.80408 0.0
Cd351 Cd 0.30989 0.84997 0.80283 0.0
Cd352 Cd 0.31297 0.84206 0.83111 0.0
O353 O 0.38806 0.87112 0.8275 0.0
O354 O 0.31122 0.89157 0.78615 0.0
O355 O 0.30952 0.91089 0.80912 0.0
C356 C 0.31392 0.92322 0.79561 0.0
C357 C 0.27366 0.86045 0.8495 0.0
C358 C 0.40495 0.86741 0.81527 0.0
C359 C 0.24616 0.75053 0.81427 0.0
O360 O 0.27074 0.76973 0.8257 0.0
O361 O 0.2513 0.77743 0.80331 0.0
O362 O 0.29939 0.83982 0.85235 0.0
O363 O 0.27482 0.87559 0.83642 0.0
O364 O 0.20656 0.53458 0.80397 0.0
Cd365 Cd 0.21201 0.47211 0.80275 0.0
Cd366 Cd 0.21972 0.48308 0.83104 0.0
O367 O 0.19072 0.52915 0.82738 0.0
O368 O 0.17046 0.4318 0.78607 0.0
O369 O 0.15106 0.41087 0.80905 0.0
C370 C 0.13877 0.40288 0.79554 0.0
C371 C 0.20117 0.42539 0.84943 0.0
C372 C 0.19452 0.54975 0.81515 0.0
C373 C 0.31135 0.50772 0.81426 0.0
O374 O 0.29209 0.51313 0.82567 0.0
O375 O 0.28452 0.48599 0.80329 0.0
O376 O 0.22182 0.47176 0.85228 0.0
O377 O 0.1861 0.41142 0.83635 0.0
O378 O 0.36302 0.84798 0.10352 0.0
Cd379 Cd 0.43095 0.91042 0.10474 0.0
Cd380 Cd 0.42771 0.89942 0.07646 0.0
O381 O 0.35264 0.85339 0.08011 0.0
O382 O 0.42971 0.95076 0.12141 0.0
O383 O 0.43128 0.97168 0.09843 0.0
C384 C 0.42696 0.97967 0.11194 0.0
C385 C 0.46691 0.95712 0.05806 0.0
C386 C 0.33582 0.8328 0.09234 0.0
C387 C 0.49465 0.87475 0.09324 0.0
O388 O 0.46999 0.86934 0.08183 0.0
O389 O 0.48956 0.89651 0.10421 0.0
O390 O 0.44118 0.91076 0.05521 0.0
O391 O 0.46581 0.97109 0.07114 0.0
O392 O 0.21347 0.52712 0.10348 0.0
Cd393 Cd 0.15102 0.53261 0.1047 0.0
Cd394 Cd 0.16207 0.54045 0.07642 0.0
O395 O 0.20808 0.51138 0.08006 0.0
O396 O 0.11069 0.49101 0.12137 0.0
O397 O 0.08977 0.47169 0.09839 0.0
C398 C 0.08177 0.45936 0.1119 0.0
C399 C 0.10439 0.52202 0.05803 0.0
C400 C 0.22866 0.51512 0.09229 0.0
C401 C 0.18674 0.63202 0.09323 0.0
O402 O 0.19217 0.6128 0.08181 0.0
O403 O 0.16495 0.60514 0.10419 0.0
O404 O 0.15076 0.54264 0.05517 0.0
O405 O 0.09041 0.50692 0.0711 0.0
O406 O 0.53433 0.69844 0.10348 0.0
Cd407 Cd 0.52884 0.63051 0.10468 0.0
Cd408 Cd 0.52104 0.63381 0.0764 0.0
O409 O 0.55012 0.70887 0.08006 0.0
O410 O 0.57042 0.63172 0.12135 0.0
O411 O 0.58978 0.6302 0.09837 0.0
C412 C 0.60209 0.63449 0.11188 0.0
C413 C 0.53951 0.5946 0.058 0.0
C414 C 0.54635 0.72567 0.0923 0.0
C415 C 0.42945 0.56685 0.09319 0.0
O416 O 0.44869 0.59154 0.08178 0.0
O417 O 0.45632 0.57191 0.10415 0.0
O418 O 0.5189 0.62036 0.05515 0.0
O419 O 0.55459 0.59569 0.07108 0.0
O420 O 0.21362 0.69871 0.60351 0.0
Cd421 Cd 0.15117 0.63079 0.60473 0.0
Cd422 Cd 0.16218 0.63401 0.57645 0.0
O423 O 0.20819 0.70909 0.5801 0.0
O424 O 0.11084 0.63204 0.62141 0.0
O425 O 0.08992 0.63046 0.59843 0.0
C426 C 0.08192 0.63478 0.61194 0.0
C427 C 0.10448 0.59478 0.55806 0.0
C428 C 0.22879 0.72591 0.59233 0.0
C429 C 0.18686 0.56709 0.59324 0.0
O430 O 0.19227 0.59175 0.58183 0.0
O431 O 0.16509 0.57218 0.60421 0.0
O432 O 0.15084 0.62053 0.55521 0.0
O433 O 0.09051 0.5959 0.57114 0.0
O434 O 0.36317 0.52742 0.60349 0.0
Cd435 Cd 0.43111 0.53291 0.60469 0.0
Cd436 Cd 0.42781 0.5407 0.57641 0.0
O437 O 0.35275 0.51164 0.58007 0.0
O438 O 0.42991 0.49134 0.62136 0.0
O439 O 0.43143 0.47199 0.59838 0.0
C440 C 0.42715 0.45968 0.61189 0.0
C441 C 0.467 0.52221 0.55801 0.0
C442 C 0.33595 0.5154 0.59231 0.0
C443 C 0.49477 0.63229 0.5932 0.0
O444 O 0.47009 0.61305 0.58179 0.0
O445 O 0.48971 0.60544 0.60416 0.0
O446 O 0.44126 0.54283 0.55516 0.0
O447 O 0.46591 0.50714 0.57109 0.0
O448 O 0.53448 0.84827 0.60347 0.0
Cd449 Cd 0.529 0.91072 0.60468 0.0
Cd450 Cd 0.52114 0.89964 0.5764 0.0
O451 O 0.55022 0.85364 0.58005 0.0
O452 O 0.57062 0.9511 0.62134 0.0
O453 O 0.58991 0.97196 0.59835 0.0
C454 C 0.60226 0.97998 0.61186 0.0
C455 C 0.53956 0.9573 0.55801 0.0
C456 C 0.54648 0.83308 0.59228 0.0
C457 C 0.42958 0.87499 0.59321 0.0
O458 O 0.44879 0.86954 0.5818 0.0
O459 O 0.45646 0.89679 0.60417 0.0
O460 O 0.51894 0.91094 0.55516 0.0
O461 O 0.55466 0.97129 0.57108 0.0
O462 O 0.37756 0.53447 0.30406 0.0
Cd463 Cd 0.30962 0.47203 0.30286 0.0
Cd464 Cd 0.3129 0.48312 0.33113 0.0
O465 O 0.38797 0.52911 0.32748 0.0
O466 O 0.31084 0.43167 0.28619 0.0
O467 O 0.3093 0.41078 0.30917 0.0
C468 C 0.3136 0.40277 0.29566 0.0
C469 C 0.27368 0.42546 0.34953 0.0
C470 C 0.40477 0.54967 0.31524 0.0
C471 C 0.24596 0.50776 0.31434 0.0
O472 O 0.27064 0.51322 0.32575 0.0
O473 O 0.25102 0.48596 0.30338 0.0
O474 O 0.29944 0.47182 0.35238 0.0
O475 O 0.27478 0.41147 0.33645 0.0
O476 O 0.52708 0.85529 0.30403 0.0
Cd477 Cd 0.58953 0.84982 0.30282 0.0
Cd478 Cd 0.57849 0.84204 0.3311 0.0
O479 O 0.53246 0.87108 0.32744 0.0
O480 O 0.62988 0.89139 0.28615 0.0
O481 O 0.65078 0.91075 0.30913 0.0
C482 C 0.65878 0.92306 0.29562 0.0
C483 C 0.63618 0.86054 0.34949 0.0
C484 C 0.51189 0.86732 0.31521 0.0
C485 C 0.55385 0.75044 0.31431 0.0
O486 O 0.54842 0.76968 0.32572 0.0
O487 O 0.57562 0.7773 0.30334 0.0
O488 O 0.58982 0.83991 0.35235 0.0
O489 O 0.65016 0.87562 0.33641 0.0
O490 O 0.20622 0.684 0.30405 0.0
Cd491 Cd 0.2117 0.75193 0.30283 0.0
Cd492 Cd 0.21952 0.74873 0.33111 0.0
O493 O 0.19046 0.67365 0.32747 0.0
O494 O 0.17011 0.75067 0.28615 0.0
O495 O 0.15077 0.75226 0.30913 0.0
C496 C 0.13845 0.74793 0.29562 0.0
C497 C 0.20108 0.78798 0.3495 0.0
C498 C 0.19421 0.65682 0.31523 0.0
C499 C 0.3111 0.81562 0.3143 0.0
O500 O 0.29187 0.79098 0.32572 0.0
O501 O 0.28423 0.81053 0.30334 0.0
O502 O 0.2217 0.76224 0.35235 0.0
O503 O 0.18598 0.78686 0.33642 0.0
C504 C 0.38731 0.18731 0.19016 0.0
C505 C 0.33782 0.15529 0.19381 0.0
H506 H 0.45733 0.24644 0.19691 0.0
C507 C 0.3211 0.15959 0.20757 0.0
H508 H 0.40131 0.18541 0.1796 0.0
C509 C 0.35309 0.19503 0.21744 0.0
C510 C 0.40259 0.22705 0.21379 0.0
H511 H 0.28307 0.1359 0.2107 0.0
H512 H 0.3391 0.19693 0.228 0.0
C513 C 0.41931 0.22275 0.20003 0.0
C514 C 0.86632 0.17019 0.21739 0.0
C515 C 0.83432 0.18769 0.21374 0.0
H516 H 0.92543 0.15926 0.21064 0.0
C517 C 0.83861 0.2087 0.19998 0.0
H518 H 0.86442 0.1543 0.22795 0.0
C519 C 0.87403 0.21212 0.19011 0.0
C520 C 0.90604 0.19462 0.19376 0.0
H521 H 0.81493 0.22304 0.19686 0.0
H522 H 0.87593 0.22801 0.17955 0.0
C523 C 0.90174 0.17361 0.20752 0.0
C524 C 0.89115 0.7083 0.2174 0.0
C525 C 0.87368 0.6588 0.21375 0.0
H526 H 0.90203 0.77831 0.21065 0.0
C527 C 0.85267 0.64207 0.19999 0.0
H528 H 0.90704 0.7223 0.22795 0.0
C529 C 0.84923 0.67406 0.19011 0.0
C530 C 0.8667 0.72356 0.19376 0.0
H531 H 0.83835 0.60405 0.19687 0.0
H532 H 0.83334 0.66006 0.17956 0.0
C533 C 0.88771 0.74028 0.20752 0.0
C534 C 0.19984 0.37515 0.38411 0.0
C535 C 0.16781 0.32566 0.38046 0.0
H536 H 0.25897 0.44516 0.37736 0.0
C537 C 0.17209 0.30892 0.3667 0.0
H538 H 0.19795 0.38915 0.39467 0.0
C539 C 0.20751 0.3409 0.35683 0.0
C540 C 0.23954 0.3904 0.36048 0.0
H541 H 0.14838 0.2709 0.36358 0.0
H542 H 0.2094 0.3269 0.34627 0.0
C543 C 0.23526 0.40713 0.37424 0.0
C544 C 0.68656 0.83708 0.38407 0.0
C545 C 0.73606 0.85459 0.38042 0.0
H546 H 0.61652 0.82614 0.37732 0.0
C547 C 0.75278 0.8756 0.36666 0.0
H548 H 0.67257 0.82119 0.39463 0.0
C549 C 0.72077 0.87901 0.35679 0.0
C550 C 0.67127 0.8615 0.36044 0.0
H551 H 0.79081 0.88995 0.36354 0.0
H552 H 0.73476 0.8949 0.34623 0.0
C553 C 0.65455 0.84049 0.3742 0.0
C554 C 0.18614 0.8896 0.36665 0.0
C555 C 0.20716 0.89391 0.38041 0.0
H556 H 0.16679 0.85226 0.34623 0.0
C557 C 0.22463 0.86188 0.38406 0.0
H558 H 0.17181 0.9133 0.36353 0.0
C559 C 0.22118 0.82644 0.3742 0.0
C560 C 0.20016 0.82214 0.36044 0.0
H561 H 0.24053 0.86379 0.39462 0.0
H562 H 0.23551 0.80274 0.37732 0.0
C563 C 0.18269 0.85416 0.35678 0.0
C564 C 0.65454 0.82623 0.87428 0.0
C565 C 0.67129 0.82197 0.86052 0.0
H566 H 0.67251 0.86355 0.89471 0.0
C567 C 0.72078 0.85402 0.85687 0.0
H568 H 0.61652 0.80251 0.8774 0.0
C569 C 0.75275 0.88947 0.86674 0.0
C570 C 0.736 0.89373 0.8805 0.0
H571 H 0.73478 0.85215 0.84631 0.0
H572 H 0.79076 0.91319 0.86362 0.0
C573 C 0.68651 0.86167 0.88415 0.0
C574 C 0.17201 0.87538 0.86664 0.0
C575 C 0.1677 0.85435 0.8804 0.0
H576 H 0.20937 0.89472 0.84622 0.0
C577 C 0.19971 0.83687 0.88406 0.0
H578 H 0.14831 0.8897 0.86352 0.0
C579 C 0.23516 0.84032 0.87419 0.0
C580 C 0.23948 0.86135 0.86043 0.0
H581 H 0.1978 0.82097 0.89461 0.0
H582 H 0.25886 0.82599 0.87732 0.0
C583 C 0.20746 0.87882 0.85678 0.0
C584 C 0.22458 0.37501 0.88402 0.0
C585 C 0.20705 0.3255 0.88037 0.0
H586 H 0.23556 0.44505 0.87726 0.0
C587 C 0.18602 0.30878 0.86661 0.0
H588 H 0.24047 0.389 0.89458 0.0
C589 C 0.18264 0.34079 0.85674 0.0
C590 C 0.20018 0.3903 0.86038 0.0
H591 H 0.17166 0.27075 0.86349 0.0
H592 H 0.16675 0.3268 0.84618 0.0
C593 C 0.22119 0.40702 0.87414 0.0
C594 C 0.8666 0.70869 0.71744 0.0
C595 C 0.83461 0.65918 0.71379 0.0
H596 H 0.92567 0.77872 0.71068 0.0
C597 C 0.8389 0.64246 0.70003 0.0
H598 H 0.8647 0.72268 0.72799 0.0
C599 C 0.87431 0.67447 0.69015 0.0
C600 C 0.9063 0.72397 0.6938 0.0
H601 H 0.81523 0.60443 0.69691 0.0
H602 H 0.87621 0.66047 0.6796 0.0
C603 C 0.902 0.74069 0.70756 0.0
C604 C 0.41961 0.20915 0.69997 0.0
C605 C 0.4029 0.18812 0.71373 0.0
H606 H 0.4016 0.22848 0.67955 0.0
C607 C 0.3534 0.17064 0.71738 0.0
H608 H 0.45763 0.22348 0.69685 0.0
C609 C 0.3214 0.17407 0.70752 0.0
C610 C 0.33811 0.19509 0.69376 0.0
H611 H 0.33941 0.15474 0.72794 0.0
H612 H 0.28337 0.15974 0.71064 0.0
C613 C 0.38761 0.21258 0.6901 0.0
C614 C 0.85311 0.22328 0.69989 0.0
C615 C 0.87412 0.22756 0.71365 0.0
H616 H 0.83375 0.18596 0.67946 0.0
C617 C 0.89156 0.19551 0.7173 0.0
H618 H 0.83881 0.247 0.69677 0.0
C619 C 0.88809 0.16006 0.70743 0.0
C620 C 0.86707 0.15579 0.69367 0.0
H621 H 0.90744 0.19739 0.72786 0.0
H622 H 0.90239 0.13634 0.71055 0.0
C623 C 0.84964 0.18784 0.69002 0.0
C624 C 1.0199 0.52862 0.55077 0.0
C625 C 0.0694 0.56064 0.54712 0.0
H626 H 0.94987 0.4695 0.54403 0.0
C627 C 0.08611 0.55633 0.53336 0.0
H628 H 1.00591 0.53053 0.56133 0.0
C629 C 0.05411 0.52089 0.52349 0.0
C630 C 1.00462 0.48888 0.52715 0.0
H631 H 0.12414 0.58002 0.53024 0.0
H632 H 0.0681 0.51899 0.51294 0.0
C633 C 0.9879 0.49319 0.54091 0.0
C634 C 0.50542 0.54227 0.53331 0.0
C635 C 0.50113 0.52125 0.54707 0.0
H636 H 0.54273 0.56158 0.51288 0.0
C637 C 0.53313 0.50375 0.55072 0.0
H638 H 0.48173 0.55662 0.53019 0.0
C639 C 0.56854 0.50717 0.54084 0.0
C640 C 0.57284 0.52819 0.52708 0.0
H641 H 0.53123 0.48786 0.56127 0.0
H642 H 0.59223 0.49282 0.54396 0.0
C643 C 0.54083 0.54568 0.52343 0.0
C644 C 0.516 1.00762 0.52343 0.0
C645 C 0.53346 0.05711 0.52709 0.0
H646 H 0.50513 0.93761 0.53018 0.0
C647 C 0.55448 0.07384 0.54085 0.0
H648 H 0.50011 0.99362 0.51288 0.0
C649 C 0.55793 0.04186 0.55072 0.0
C650 C 0.54047 0.99236 0.54706 0.0
H651 H 0.56879 0.11186 0.54397 0.0
H652 H 0.57382 0.05585 0.56127 0.0
C653 C 0.51945 0.97563 0.5333 0.0
C654 C 0.50535 0.97549 1.03336 0.0
C655 C 0.50105 0.9922 0.04712 0.0
H656 H 0.54268 0.9935 1.01293 0.0
C657 C 0.53304 0.0417 0.05077 0.0
H658 H 0.48167 0.93746 1.03024 0.0
C659 C 0.56846 0.07371 0.0409 0.0
C660 C 0.57277 0.05699 1.02714 0.0
H661 H 0.53114 0.05569 0.06133 0.0
H662 H 0.59214 0.11174 0.04402 0.0
C663 C 0.54077 1.00749 1.02349 0.0
C664 C 0.98783 0.50709 0.04087 0.0
C665 C 1.00456 0.52811 1.02711 0.0
H666 H 1.00583 0.48774 0.06129 0.0
C667 C 0.05405 0.54558 1.02346 0.0
H668 H 0.94981 0.49276 0.04399 0.0
C669 C 0.08604 0.54213 1.03332 0.0
C670 C 0.06932 0.52111 0.04708 0.0
H671 H 0.06805 0.56147 1.0129 0.0
H672 H 0.12407 0.55645 1.0302 0.0
C673 C 1.01982 0.50364 0.05074 0.0
C674 C 0.55446 0.49301 0.04083 0.0
C675 C 0.53345 0.48873 1.02707 0.0
H676 H 0.57379 0.53032 0.06126 0.0
C677 C 0.51598 0.52076 1.02343 0.0
H678 H 0.56878 0.46931 0.04396 0.0
C679 C 0.51942 0.55618 1.0333 0.0
C680 C 0.54043 0.56046 0.04706 0.0
H681 H 0.50009 0.51887 1.01287 0.0
H682 H 0.5051 0.57989 1.03018 0.0
C683 C 0.5579 0.52844 0.05071 0.0
C684 C 0.38223 0.04912 0.13514 0.0
C685 C 0.36154 0.06597 0.12466 0.0
H686 H 0.4195 1.00886 0.13936 0.0
C687 C 0.36987 0.06106 0.10995 0.0
H688 H 0.37665 0.05232 0.14657 0.0
C689 C 0.39492 0.03649 0.10581 0.0
C690 C 0.41175 1.01578 0.11629 0.0
H691 H 0.35467 0.07378 0.10159 0.0
H692 H 0.39814 0.03093 0.09438 0.0
C693 C 0.40681 1.02408 0.131 0.0
C694 C 1.02497 0.3705 0.10576 0.0
C695 C 0.04566 0.40803 0.11623 0.0
H696 H 0.98769 0.29297 0.10153 0.0
C697 C 0.03734 0.39478 0.13094 0.0
H698 H 1.03055 0.37929 0.09432 0.0
C699 C 1.01229 0.34517 0.13508 0.0
C700 C 0.99546 0.30763 0.1246 0.0
H701 H 0.05254 0.42269 0.1393 0.0
H702 H 1.00907 0.33638 0.14651 0.0
C703 C 1.00039 0.32088 0.10989 0.0
C704 C 0.66664 0.65461 0.13093 0.0
C705 C 0.65341 0.6497 0.11622 0.0
H706 H 0.72503 0.68475 0.1465 0.0
C707 C 0.69096 0.66655 0.10574 0.0
H708 H 0.63872 0.6419 0.13929 0.0
C709 C 0.74057 0.69159 0.10988 0.0
C710 C 0.7538 0.69989 0.1246 0.0
H711 H 0.68218 0.66335 0.09431 0.0
H712 H 0.76849 0.7068 0.10153 0.0
C713 C 0.71626 0.67918 0.13507 0.0
C714 C 0.04901 0.38266 0.46848 0.0
C715 C 1.02832 0.39951 0.458 0.0
H716 H 0.08627 0.34239 0.4727 0.0
C717 C 1.03665 0.39459 0.44329 0.0
H718 H 0.04342 0.38586 0.47991 0.0
C719 C 0.06169 0.37002 0.43915 0.0
C720 C 0.07852 0.3493 0.44963 0.0
H721 H 1.02146 0.40731 0.43493 0.0
H722 H 0.06491 0.36445 0.42772 0.0
C723 C 0.07358 0.35761 0.46434 0.0
C724 C 0.66714 0.65443 0.44322 0.0
C725 C 0.66221 0.64117 0.45793 0.0
H726 H 0.6973 0.71284 0.42765 0.0
C727 C 0.67903 0.6787 0.46841 0.0
H728 H 0.65444 0.62652 0.43486 0.0
C729 C 0.70408 0.72832 0.46428 0.0
C730 C 0.7124 0.74157 0.44957 0.0
H731 H 0.67581 0.6699 0.47984 0.0
H732 H 0.71927 0.75622 0.47264 0.0
C733 C 0.69171 0.70405 0.43909 0.0
C734 C 0.38303 1.01273 0.46841 0.0
C735 C 0.42057 0.03343 0.45793 0.0
H736 H 0.3055 0.97543 0.47263 0.0
C737 C 0.40733 0.02512 0.44322 0.0
H738 H 0.39182 1.0183 0.47984 0.0
C739 C 0.35771 1.00006 0.43908 0.0
C740 C 0.32017 0.98322 0.44956 0.0
H741 H 0.43524 0.04033 0.43486 0.0
H742 H 0.34893 0.99686 0.42765 0.0
C743 C 0.33342 0.98814 0.46427 0.0
C744 C 0.69166 0.99992 0.93916 0.0
C745 C 0.71237 0.9831 0.94965 0.0
H746 H 0.65437 0.04015 0.93493 0.0
C747 C 0.70406 0.98805 0.96436 0.0
H748 H 0.69724 0.99669 0.92773 0.0
C749 C 0.679 1.01262 0.96849 0.0
C750 C 0.66215 0.0333 0.958 0.0
H751 H 0.71927 0.97536 0.97272 0.0
H752 H 0.67579 1.01822 0.97992 0.0
C753 C 0.66708 0.02496 0.94329 0.0
C754 C 0.04896 0.6786 0.96842 0.0
C755 C 1.02824 0.64105 0.95794 0.0
H756 H 0.08626 0.75613 0.97263 0.0
C757 C 1.03655 0.65428 0.94323 0.0
H758 H 0.04339 0.66983 0.97985 0.0
C759 C 0.06161 0.70389 0.93909 0.0
C760 C 0.07846 0.74144 0.94956 0.0
H761 H 1.02134 0.62635 0.93487 0.0
H762 H 0.06481 0.71266 0.92766 0.0
C763 C 0.07354 0.72821 0.96428 0.0
C764 C 0.38296 0.38257 0.96838 0.0
C765 C 0.4205 0.3994 0.95791 0.0
H766 H 0.30543 0.34232 0.97261 0.0
C767 C 0.40726 0.39446 0.9432 0.0
H768 H 0.39174 0.38579 0.97982 0.0
C769 C 0.35764 0.36989 0.93906 0.0
C770 C 0.3201 0.3492 0.94954 0.0
H771 H 0.43517 0.40717 0.93484 0.0
H772 H 0.34886 0.36431 0.92763 0.0
C773 C 0.33334 0.35752 0.96425 0.0
C774 C 1.01248 0.67953 0.63512 0.0
C775 C 0.99564 0.70022 0.62464 0.0
H776 H 0.05273 0.64226 0.63935 0.0
C777 C 1.00055 0.69189 0.60993 0.0
H778 H 1.00928 0.68513 0.64656 0.0
C779 C 1.02511 0.66683 0.6058 0.0
C780 C 0.04582 0.65 0.61628 0.0
H781 H 0.98783 0.70708 0.60157 0.0
H782 H 1.03067 0.66361 0.59437 0.0
C783 C 0.03751 0.65495 0.63099 0.0
C784 C 0.3701 0.3212 0.60989 0.0
C785 C 0.36179 0.30797 0.6246 0.0
H786 H 0.39832 0.3796 0.59432 0.0
C787 C 0.38248 0.34551 0.63508 0.0
H788 H 0.35489 0.29329 0.60153 0.0
C789 C 0.40704 0.39512 0.63094 0.0
C790 C 0.41195 0.40836 0.61623 0.0
H791 H 0.37692 0.33673 0.64651 0.0
H792 H 0.41974 0.42304 0.6393 0.0
C793 C 0.39513 0.37082 0.60575 0.0
C794 C 0.7165 0.04951 0.63502 0.0
C795 C 0.75402 0.06633 0.62454 0.0
H796 H 0.63898 1.00927 0.63926 0.0
C797 C 0.74074 0.06136 0.60983 0.0
H798 H 0.72532 0.05275 0.64645 0.0
C799 C 0.69111 0.03678 0.6057 0.0
C800 C 0.6536 1.01611 0.61619 0.0
H801 H 0.76863 0.07405 0.60146 0.0
H802 H 0.6823 0.03118 0.59427 0.0
C803 C 0.66687 1.02446 0.6309 0.0
C804 C 0.72857 0.70344 0.77251 0.0
C805 C 0.7454 0.68271 0.78298 0.0
H806 H 0.68832 0.74072 0.76829 0.0
C807 C 0.74045 0.69099 0.79769 0.0
H808 H 0.7318 0.69789 0.76107 0.0
C809 C 0.71587 0.71602 0.80184 0.0
C810 C 0.69518 0.73288 0.79136 0.0
H811 H 0.75315 0.67576 0.80605 0.0
H812 H 0.71027 0.7192 0.81327 0.0
C813 C 0.70352 0.728 0.77665 0.0
C814 C 0.35866 0.03739 0.77242 0.0
C815 C 0.37936 0.07494 0.78289 0.0
H816 H 0.32138 0.95986 0.7682 0.0
C817 C 0.37105 0.06171 0.7976 0.0
H818 H 0.36423 0.04617 0.76098 0.0
C819 C 0.346 1.01209 0.80174 0.0
C820 C 0.32915 0.97455 0.79127 0.0
H821 H 0.38625 0.08963 0.80596 0.0
H822 H 0.34279 1.00332 0.81318 0.0
C823 C 0.33409 0.98778 0.77656 0.0
C824 C 1.02462 0.3335 0.77233 0.0
C825 C 0.98707 0.31664 0.78281 0.0
H826 H 0.10216 0.37374 0.76812 0.0
C827 C 1.00029 0.32152 0.79752 0.0
H828 H 1.01585 0.33032 0.7609 0.0
C829 C 0.0499 0.34607 0.80166 0.0
C830 C 0.08745 0.36679 0.79119 0.0
H831 H 0.97236 0.30879 0.80587 0.0
H832 H 0.05867 0.35161 0.8131 0.0
C833 C 0.07423 0.35851 0.77648 0.0
C834 C 0.37069 0.32137 0.29766 0.0
C835 C 0.37899 0.31643 0.28295 0.0
H836 H 0.34246 0.35154 0.31323 0.0
C837 C 0.35828 0.33326 0.27247 0.0
H838 H 0.3859 0.30867 0.30602 0.0
C839 C 0.33371 0.35831 0.27661 0.0
C840 C 0.3288 0.36665 0.29132 0.0
H841 H 0.36384 0.33004 0.26104 0.0
H842 H 0.321 0.37351 0.26825 0.0
C843 C 0.34565 0.34595 0.3018 0.0
C844 C 0.70321 0.98762 0.27656 0.0
C845 C 0.6949 0.97438 0.29128 0.0
H846 H 0.73145 0.04601 0.26099 0.0
C847 C 0.71561 1.01192 0.30175 0.0
H848 H 0.68799 0.9597 0.26821 0.0
C849 C 0.74018 0.06154 0.29761 0.0
C850 C 0.74509 0.07477 0.2829 0.0
H851 H 0.71004 1.00314 0.31318 0.0
H852 H 0.75289 0.08945 0.30597 0.0
C853 C 0.72825 0.03723 0.27243 0.0
C854 C 0.99996 0.69081 0.29762 0.0
C855 C 0.98673 0.68249 0.28291 0.0
H856 H 0.05836 0.71907 0.31319 0.0
C857 C 1.02427 0.70319 0.27243 0.0
H858 H 0.97205 0.6756 0.30598 0.0
C859 C 0.07389 0.72777 0.27657 0.0
C860 C 0.08712 0.7327 0.29128 0.0
H861 H 1.01549 0.69761 0.261 0.0
H862 H 0.1018 0.74048 0.26821 0.0
C863 C 0.04958 0.71587 0.30176 0.0
C864 C 0.13526 0.19234 0.13439 0.0
C865 C 0.11918 0.20172 0.14766 0.0
H866 H 0.18115 0.16896 0.12388 0.0
C867 C 0.14506 0.20425 0.16032 0.0
H868 H 0.11656 0.19071 0.12437 0.0
C869 C 0.18213 0.19197 0.15999 0.0
C870 C 0.19429 0.1771 0.14699 0.0
H871 H 0.13421 0.21194 0.17069 0.0
H872 H 0.19871 0.19052 0.17013 0.0
C873 C 0.17258 0.1802 0.13405 0.0
C874 C 0.86933 1.00223 0.15993 0.0
C875 C 0.88425 0.02926 0.14693 0.0
H876 H 0.84933 0.93437 0.17064 0.0
C877 C 0.88121 1.00445 0.134 0.0
H878 H 0.87074 1.02028 0.17007 0.0
C879 C 0.86907 0.95499 0.13434 0.0
C880 C 0.85964 0.92954 0.14761 0.0
H881 H 0.89248 1.02424 0.12383 0.0
H882 H 0.87074 0.93791 0.12433 0.0
C883 C 0.85706 0.95289 0.16027 0.0
C884 C 0.05698 0.88883 0.13405 0.0
C885 C 1.03214 0.86709 0.14697 0.0
H886 H 0.12355 0.94487 0.12438 0.0
C887 C 0.05912 0.87921 0.15998 0.0
H888 H 0.03721 0.88029 0.12387 0.0
C889 C 0.10847 0.91628 0.16033 0.0
C890 C 0.13186 0.94218 0.14767 0.0
H891 H 0.04105 0.8626 0.17012 0.0
H892 H 0.12697 0.92709 0.1707 0.0
C893 C 0.10645 0.92614 0.1344 0.0
C894 C 0.19273 0.16034 0.44019 0.0
C895 C 0.18964 0.18209 0.42726 0.0
H896 H 0.20325 0.10429 0.44985 0.0
C897 C 0.20453 0.16998 0.41425 0.0
H898 H 0.1815 0.16887 0.45036 0.0
C899 C 0.21681 0.13292 0.4139 0.0
C900 C 0.21428 0.107 0.42656 0.0
H901 H 0.20308 0.18661 0.40412 0.0
H902 H 0.22451 0.12211 0.40353 0.0
C903 C 0.20489 0.12303 0.43984 0.0
C904 C 0.9288 0.09634 0.41393 0.0
C905 C 0.95471 0.11967 0.42659 0.0
H906 H 0.87513 0.02897 0.40412 0.0
C907 C 0.93866 0.09421 0.43986 0.0
H908 H 0.93963 0.11489 0.40356 0.0
C909 C 0.90134 0.04474 0.4402 0.0
C910 C 0.87961 1.01996 0.42726 0.0
H911 H 0.95738 0.11127 0.44988 0.0
H912 H 0.89279 0.02494 0.45036 0.0
C913 C 0.89173 0.047 0.41426 0.0
C914 C 1.01478 0.85722 0.41422 0.0
C915 C 0.04179 0.87209 0.42722 0.0
H916 H 0.94692 0.83727 0.40351 0.0
C917 C 1.01698 0.869 0.44015 0.0
H918 H 1.03283 0.85867 0.40408 0.0
C919 C 0.96751 0.85686 0.43981 0.0
C920 C 0.94208 0.84749 0.42654 0.0
H921 H 1.03676 0.88022 0.45033 0.0
H922 H 0.95043 0.85849 0.44983 0.0
C923 C 0.96544 0.84495 0.41388 0.0
C924 C 0.89165 0.85705 0.91428 0.0
C925 C 0.87957 0.87194 0.92729 0.0
H926 H 0.93949 0.83706 0.90354 0.0
C927 C 0.90134 0.86886 0.94021 0.0
H928 H 0.87501 0.85849 0.90415 0.0
C929 C 0.93865 0.8567 0.93985 0.0
C930 C 0.95465 0.8473 0.92657 0.0
H931 H 0.89283 0.8801 0.95039 0.0
H932 H 0.9574 0.85833 0.94986 0.0
C933 C 0.92871 0.84476 0.91392 0.0
C934 C 0.19267 0.04462 0.94012 0.0
C935 C 0.18955 1.01979 0.92718 0.0
H936 H 0.2032 0.11117 0.94979 0.0
C937 C 0.20438 0.04678 0.91418 0.0
H938 H 0.18147 0.02484 0.95029 0.0
C939 C 0.21665 0.09612 0.91383 0.0
C940 C 0.21415 0.1195 0.9265 0.0
H941 H 0.20291 0.02871 0.90404 0.0
H942 H 0.22431 0.11463 0.90346 0.0
C943 C 0.20481 0.09408 0.93977 0.0
C944 C 1.01695 0.16027 0.94019 0.0
C945 C 0.0417 0.182 0.92725 0.0
H946 H 0.95045 0.10423 0.94989 0.0
C947 C 1.01463 0.16986 0.91426 0.0
H948 H 1.03678 0.16883 0.95035 0.0
C949 C 0.96528 0.13279 0.91394 0.0
C950 C 0.94199 0.10689 0.9266 0.0
H951 H 1.03263 0.18647 0.90412 0.0
H952 H 0.94671 0.12196 0.90357 0.0
C953 C 0.96748 0.12295 0.93987 0.0
C954 C 0.8693 0.92652 0.63432 0.0
C955 C 0.85988 0.94259 0.64758 0.0
H956 H 0.8927 0.88063 0.62382 0.0
C957 C 0.8573 0.9167 0.66025 0.0
H958 H 0.87097 0.94523 0.6243 0.0
C959 C 0.86957 0.87963 0.65992 0.0
C960 C 0.88448 0.86747 0.64693 0.0
H961 H 0.84958 0.92755 0.67061 0.0
H962 H 0.87098 0.86303 0.67007 0.0
C963 C 0.88144 0.88919 0.63399 0.0
C964 C 0.17282 1.00479 0.63405 0.0
C965 C 0.19453 0.02963 0.64698 0.0
H966 H 0.11679 0.93824 0.62438 0.0
C967 C 0.18238 1.00264 0.65998 0.0
H968 H 0.18139 1.02456 0.62387 0.0
C969 C 0.1453 0.9533 0.66033 0.0
C970 C 0.11942 0.92992 0.64767 0.0
H971 H 0.19898 1.02071 0.67012 0.0
H972 H 0.13446 0.9348 0.6707 0.0
C973 C 0.13549 0.95533 0.63439 0.0
C974 C 0.10671 0.19271 0.6343 0.0
C975 C 0.13212 0.20213 0.64758 0.0
H976 H 0.03749 0.16931 0.62377 0.0
C977 C 0.10873 0.2047 0.66023 0.0
H978 H 0.12382 0.19105 0.6243 0.0
C979 C 0.05939 0.19243 0.65988 0.0
C980 C 1.0324 0.17752 0.64687 0.0
H981 H 0.12724 0.21242 0.67061 0.0
H982 H 0.04132 0.19101 0.67001 0.0
C983 C 0.05725 0.18057 0.63395 0.0
C984 C 0.80203 0.52587 0.4677 0.0
C985 C 0.78596 0.53527 0.48097 0.0
H986 H 0.84792 0.50249 0.4572 0.0
C987 C 0.81185 0.53783 0.49364 0.0
H988 H 0.78332 0.52422 0.45769 0.0
C989 C 0.84893 0.52556 0.49331 0.0
C990 C 0.86108 0.51067 0.48031 0.0
H991 H 0.801 0.54553 0.50401 0.0
H992 H 0.86552 0.52413 0.50345 0.0
C993 C 0.83936 0.51374 0.46737 0.0
C994 C 0.53582 0.28853 0.46766 0.0
C995 C 0.52638 0.26309 0.48094 0.0
H996 H 0.55923 0.35778 0.45715 0.0
C997 C 0.5238 0.28644 0.49359 0.0
H998 H 0.53748 0.27145 0.45765 0.0
C999 C 0.53608 0.33578 0.49325 0.0
C1000 C 0.551 0.3628 0.48025 0.0
H1001 H 0.51607 0.26791 0.50396 0.0
H1002 H 0.53749 0.35383 0.50339 0.0
C1003 C 0.54796 0.33799 0.46732 0.0
C1004 C 0.77523 0.24987 0.49367 0.0
C1005 C 0.79863 0.27576 0.48101 0.0
H1006 H 0.7078 0.19621 0.50346 0.0
C1007 C 0.77323 0.25972 0.46773 0.0
H1008 H 0.79373 0.2607 0.50404 0.0
C1009 C 0.72376 0.2224 0.46738 0.0
C1010 C 0.69891 0.20068 0.48031 0.0
H1011 H 0.79034 0.27843 0.45772 0.0
H1012 H 0.70401 0.21385 0.4572 0.0
C1013 C 0.72588 0.21281 0.49332 0.0
C1014 C 0.85972 0.49387 0.77349 0.0
C1015 C 0.85664 0.51565 0.76057 0.0
H1016 H 0.87022 0.43779 0.78314 0.0
C1017 C 0.87155 0.5036 0.74756 0.0
H1018 H 0.84846 0.50236 0.78367 0.0
C1019 C 0.88384 0.46654 0.7472 0.0
C1020 C 0.88128 0.44057 0.75985 0.0
H1021 H 0.87012 0.52025 0.73743 0.0
H1022 H 0.89155 0.45576 0.73682 0.0
C1023 C 0.87187 0.45656 0.77313 0.0
C1024 C 0.56831 0.37812 0.77353 0.0
C1025 C 0.54654 0.35336 0.76059 0.0
H1026 H 0.62438 0.44462 0.78321 0.0
C1027 C 0.55864 0.38043 0.7476 0.0
H1028 H 0.55978 0.35829 0.78369 0.0
C1029 C 0.59572 0.42977 0.74727 0.0
C1030 C 0.62165 0.45307 0.75993 0.0
H1031 H 0.542 0.36242 0.73746 0.0
H1032 H 0.60651 0.44834 0.7369 0.0
C1033 C 0.60564 0.42758 0.7732 0.0
C1034 C 0.68173 0.19084 0.74744 0.0
C1035 C 0.70873 0.20563 0.76045 0.0
H1036 H 0.61386 0.1709 0.73674 0.0
C1037 C 0.6839 0.20242 0.77338 0.0
H1038 H 0.6998 0.19238 0.73729 0.0
C1039 C 0.63442 0.19024 0.77305 0.0
C1040 C 0.60899 0.18094 0.75978 0.0
H1041 H 0.70368 0.21358 0.78356 0.0
H1042 H 0.61733 0.19178 0.78307 0.0
C1043 C 0.63237 0.17852 0.74711 0.0
C1044 C 0.59535 0.17808 0.24724 0.0
C1045 C 0.62128 0.18064 0.2599 0.0
H1046 H 0.54165 0.19178 0.23745 0.0
C1047 C 0.60526 0.19005 0.27318 0.0
H1048 H 0.60616 0.17037 0.23687 0.0
C1049 C 0.56793 0.20218 0.27352 0.0
C1050 C 0.54617 0.20525 0.26059 0.0
H1051 H 0.62399 0.19169 0.28319 0.0
H1052 H 0.5594 0.21343 0.2837 0.0
C1053 C 0.55828 0.19035 0.24759 0.0
C1054 C 0.87109 0.38012 0.24755 0.0
C1055 C 0.85623 0.35312 0.26055 0.0
H1056 H 0.89105 0.44798 0.23684 0.0
C1057 C 0.85933 0.37794 0.27349 0.0
H1058 H 0.86963 0.36207 0.23741 0.0
C1059 C 0.87148 0.4274 0.27314 0.0
C1060 C 0.88085 0.45283 0.25987 0.0
H1061 H 0.8481 0.35816 0.28366 0.0
H1062 H 0.86986 0.44449 0.28316 0.0
C1063 C 0.88337 0.42947 0.24721 0.0
C1064 C 0.68355 0.49353 0.27351 0.0
C1065 C 0.70835 0.51526 0.26058 0.0
H1066 H 0.61701 0.43751 0.28319 0.0
C1067 C 0.68132 0.50313 0.24758 0.0
H1068 H 0.70335 0.50209 0.28368 0.0
C1069 C 0.63197 0.46606 0.24724 0.0
C1070 C 0.60863 0.44017 0.25991 0.0
H1071 H 0.69936 0.51973 0.23744 0.0
H1072 H 0.61344 0.45524 0.23687 0.0
C1073 C 0.63408 0.45622 0.27318 0.0
C1074 C 0.5479 0.22224 0.96736 0.0
C1075 C 0.55094 0.2005 0.98029 0.0
H1076 H 0.53743 0.27828 0.95767 0.0
C1077 C 0.53602 0.21264 0.99329 0.0
H1078 H 0.55916 0.21368 0.95719 0.0
C1079 C 0.52375 0.24971 0.99362 0.0
C1080 C 0.52634 0.27561 0.98096 0.0
H1081 H 0.53743 0.19602 1.00343 0.0
H1082 H 0.51603 0.26054 1.00399 0.0
C1083 C 0.53576 0.25956 0.96769 0.0
C1084 C 0.84884 0.33572 0.99332 0.0
C1085 C 0.86098 0.36271 0.98031 0.0
H1086 H 0.80095 0.26787 1.00404 0.0
C1087 C 0.83925 0.33787 0.96738 0.0
H1088 H 0.86545 0.35378 1.00346 0.0
C1089 C 0.80193 0.28841 0.96773 0.0
C1090 C 0.78588 0.263 0.98101 0.0
H1091 H 0.8478 0.35765 0.95721 0.0
H1092 H 0.78321 0.27132 0.95772 0.0
C1093 C 0.81178 0.28637 0.99367 0.0
C1094 C 0.77315 0.52581 0.96769 0.0
C1095 C 0.79857 0.5352 0.98097 0.0
H1096 H 0.70391 0.50241 0.95717 0.0
C1097 C 0.77518 0.53773 0.99362 0.0
H1098 H 0.79025 0.52418 0.95768 0.0
C1099 C 0.72584 0.52545 0.99327 0.0
C1100 C 0.69884 0.51056 0.98027 0.0
H1101 H 0.7937 0.54544 1.004 0.0
H1102 H 0.70777 0.524 1.00341 0.0
C1103 C 0.72368 0.51366 0.96734 0.0
C1104 C 0.46893 0.85927 0.80111 0.0
C1105 C 0.45279 0.86857 0.81438 0.0
H1106 H 0.51484 0.83594 0.79061 0.0
C1107 C 0.47858 0.87099 0.82706 0.0
H1108 H 0.45029 0.85774 0.79109 0.0
C1109 C 0.51563 0.85868 0.82673 0.0
C1110 C 0.52785 0.84389 0.81372 0.0
H1111 H 0.46768 0.87861 0.83743 0.0
H1112 H 0.53215 0.85714 0.83687 0.0
C1113 C 0.50623 0.8471 0.80078 0.0
C1114 C 0.20297 0.66907 0.82657 0.0
C1115 C 0.21792 0.69612 0.81357 0.0
H1116 H 0.18296 0.60117 0.83727 0.0
C1117 C 0.21494 0.67136 0.80064 0.0
H1118 H 0.20434 0.68708 0.83671 0.0
C1119 C 0.20282 0.6219 0.80097 0.0
C1120 C 0.19335 0.59642 0.81424 0.0
H1121 H 0.22624 0.69118 0.79048 0.0
H1122 H 0.20452 0.60486 0.79096 0.0
C1123 C 0.19071 0.61973 0.8269 0.0
C1124 C 0.44008 0.59296 0.80104 0.0
C1125 C 0.46546 0.60894 0.81432 0.0
H1126 H 0.37088 0.54715 0.7905 0.0
C1127 C 0.44206 0.58297 0.82697 0.0
H1128 H 0.4572 0.61173 0.79103 0.0
C1129 C 0.39272 0.5459 0.8266 0.0
C1130 C 0.36576 0.53384 0.81359 0.0
H1131 H 0.46055 0.59375 0.83734 0.0
H1132 H 0.37463 0.52924 0.83674 0.0
C1133 C 0.39062 0.55564 0.80067 0.0
C1134 C 0.52599 0.82685 0.10684 0.0
C1135 C 0.52292 0.84861 0.09392 0.0
H1136 H 0.53649 0.7708 0.11651 0.0
C1137 C 0.53781 0.83651 0.08091 0.0
H1138 H 0.51475 0.83538 0.11702 0.0
C1139 C 0.55009 0.79944 0.08056 0.0
C1140 C 0.54754 0.77352 0.09322 0.0
H1141 H 0.53638 0.85314 0.07078 0.0
H1142 H 0.5578 0.78864 0.07019 0.0
C1143 C 0.53814 0.78954 0.1065 0.0
C1144 C 0.23462 0.71121 0.10685 0.0
C1145 C 0.21288 0.68642 0.09392 0.0
H1146 H 0.29065 0.77774 0.11653 0.0
C1147 C 0.22501 0.71345 0.08092 0.0
H1148 H 0.22607 0.69141 0.11702 0.0
C1149 C 0.26207 0.7628 0.08058 0.0
C1150 C 0.28798 0.78614 0.09324 0.0
H1151 H 0.20839 0.69542 0.07078 0.0
H1152 H 0.2729 0.78134 0.07021 0.0
C1153 C 0.27193 0.76068 0.10651 0.0
C1154 C 0.35023 0.53547 0.10681 0.0
C1155 C 0.37505 0.53858 0.09387 0.0
H1156 H 0.28368 0.52493 0.11648 0.0
C1157 C 0.34804 0.52372 0.08087 0.0
H1158 H 0.37002 0.54669 0.11698 0.0
C1159 C 0.29869 0.51143 0.08053 0.0
C1160 C 0.27532 0.51394 0.09319 0.0
H1161 H 0.36609 0.52518 0.07073 0.0
H1162 H 0.28016 0.50375 0.07016 0.0
C1163 C 0.30076 0.52331 0.10647 0.0
C1164 C 0.23476 0.53576 0.60685 0.0
C1165 C 0.213 0.53883 0.59392 0.0
H1166 H 0.29082 0.52527 0.61651 0.0
C1167 C 0.2251 0.52393 0.58092 0.0
H1168 H 0.22623 0.54701 0.61702 0.0
C1169 C 0.26217 0.51165 0.58057 0.0
C1170 C 0.2881 0.51421 0.59323 0.0
H1171 H 0.20847 0.52536 0.57078 0.0
H1172 H 0.27298 0.50394 0.5702 0.0
C1173 C 0.27208 0.52362 0.6065 0.0
C1174 C 0.52614 0.71152 0.60681 0.0
C1175 C 0.52304 0.6867 0.59388 0.0
H1176 H 0.53666 0.77807 0.61648 0.0
C1177 C 0.53791 0.7137 0.58087 0.0
H1178 H 0.51491 0.69174 0.61698 0.0
C1179 C 0.55019 0.76305 0.58053 0.0
C1180 C 0.54767 0.78641 0.59319 0.0
H1181 H 0.53646 0.69565 0.57073 0.0
H1182 H 0.55788 0.78157 0.57016 0.0
C1183 C 0.53829 0.76098 0.60647 0.0
C1184 C 0.35038 0.82712 0.60684 0.0
C1185 C 0.37517 0.84885 0.5939 0.0
H1186 H 0.28385 0.77109 0.61652 0.0
C1187 C 0.34814 0.83672 0.5809 0.0
H1188 H 0.37019 0.83568 0.617 0.0
C1189 C 0.29879 0.79965 0.58057 0.0
C1190 C 0.27545 0.77376 0.59323 0.0
H1191 H 0.36617 0.85333 0.57076 0.0
H1192 H 0.28025 0.78883 0.5702 0.0
C1193 C 0.30091 0.78981 0.6065 0.0
C1194 C 0.21458 0.5556 0.30072 0.0
C1195 C 0.21768 0.5339 0.31366 0.0
H1196 H 0.20404 0.61161 0.29104 0.0
C1197 C 0.20281 0.54604 0.32666 0.0
H1198 H 0.2258 0.54703 0.29055 0.0
C1199 C 0.19052 0.5831 0.327 0.0
C1200 C 0.19304 0.60897 0.31433 0.0
H1201 H 0.20427 0.52945 0.3368 0.0
H1202 H 0.18283 0.59394 0.33737 0.0
C1203 C 0.20241 0.59291 0.30106 0.0
C1204 C 0.5156 0.66904 0.32664 0.0
C1205 C 0.52772 0.69604 0.31363 0.0
H1206 H 0.46773 0.60119 0.33736 0.0
C1207 C 0.50597 0.67121 0.3007 0.0
H1208 H 0.53223 0.68711 0.33677 0.0
C1209 C 0.46865 0.62175 0.30105 0.0
C1210 C 0.45262 0.59633 0.31433 0.0
H1211 H 0.51451 0.69099 0.29053 0.0
H1212 H 0.44992 0.60466 0.29104 0.0
C1213 C 0.47854 0.6197 0.32698 0.0
C1214 C 0.44187 0.87106 0.32696 0.0
C1215 C 0.46522 0.8685 0.3143 0.0
H1216 H 0.37448 0.85737 0.33676 0.0
C1217 C 0.43978 0.85908 0.30103 0.0
H1218 H 0.4604 0.87878 0.33733 0.0
C1219 C 0.39031 0.84694 0.30069 0.0
C1220 C 0.3655 0.84388 0.31362 0.0
H1221 H 0.45686 0.85743 0.29101 0.0
H1222 H 0.37052 0.83569 0.29052 0.0
C1223 C 0.39253 0.85879 0.32662 0.0
loop_
_geom_bond_atom_site_label_1
_geom_bond_atom_site_label_2
_geom_bond_distance
_geom_bond_site_symmetry_2
_ccdc_geom_bond_type
O0 Cd1 2.223 1_565 S
O0 C8 1.315 . S
Cd1 O0 2.223 1_545 S
Cd1 O4 2.297 1_545 S
Cd1 O5 2.439 . S
Cd1 O11 2.240 . S
Cd2 O3 2.240 1_545 S
Cd2 O10 2.223 . S
Cd2 O12 2.297 . S
Cd2 O13 2.439 . S
O3 Cd2 2.240 1_565 S
O3 C8 1.279 . S
O4 Cd1 2.297 1_565 S
O4 C6 1.247 . S
O5 Cd1 2.439 . S
O5 C6 1.208 1_545 S
C6 O4 1.247 . S
C6 O5 1.208 1_565 S
C7 O12 1.247 . S
C7 O13 1.208 . S
C8 O0 1.315 . S
C8 O3 1.279 . S
C9 O10 1.315 . S
C9 O11 1.279 . S
O10 Cd2 2.223 . S
O10 C9 1.315 . S
O11 Cd1 2.240 . S
O11 C9 1.279 . S
O12 Cd2 2.297 . S
O12 C7 1.247 . S
O13 Cd2 2.439 . S
O13 C7 1.208 . S
O14 Cd15 2.223 1_455 S
O14 C22 1.315 . S
Cd15 O14 2.223 1_655 S
Cd15 O18 2.297 1_655 S
Cd15 O19 2.439 . S
Cd15 O25 2.240 . S
Cd16 O17 2.240 1_655 S
Cd16 O24 2.223 . S
Cd16 O26 2.297 . S
Cd16 O27 2.439 . S
O17 Cd16 2.240 1_455 S
O17 C22 1.279 . S
O18 Cd15 2.297 1_455 S
O18 C20 1.247 . S
O19 Cd15 2.439 . S
O19 C20 1.208 1_655 S
C20 O18 1.247 . S
C20 O19 1.208 1_455 S
C21 O26 1.247 . S
C21 O27 1.208 . S
C22 O14 1.315 . S
C22 O17 1.279 . S
C23 O24 1.315 . S
C23 O25 1.279 . S
O24 Cd16 2.223 . S
O24 C23 1.315 . S
O25 Cd15 2.240 . S
O25 C23 1.279 . S
O26 Cd16 2.297 . S
O26 C21 1.247 . S
O27 Cd16 2.439 . S
O27 C21 1.208 . S
O28 Cd29 2.223 . S
O28 C36 1.315 . S
Cd29 O28 2.223 . S
Cd29 O32 2.297 . S
Cd29 O33 2.439 . S
Cd29 O39 2.240 . S
Cd30 O31 2.240 . S
Cd30 O38 2.223 . S
Cd30 O40 2.297 . S
Cd30 O41 2.439 . S
O31 Cd30 2.240 . S
O31 C36 1.279 . S
O32 Cd29 2.297 . S
O32 C34 1.247 . S
O33 Cd29 2.439 . S
O33 C34 1.208 . S
C34 O32 1.247 . S
C34 O33 1.208 . S
C35 O40 1.247 . S
C35 O41 1.208 . S
C36 O28 1.315 . S
C36 O31 1.279 . S
C37 O38 1.315 . S
C37 O39 1.279 . S
O38 Cd30 2.223 . S
O38 C37 1.315 . S
O39 Cd29 2.240 . S
O39 C37 1.279 . S
O40 Cd30 2.297 . S
O40 C35 1.247 . S
O41 Cd30 2.439 . S
O41 C35 1.208 . S
O42 Cd43 2.223 1_655 S
O42 C50 1.315 . S
Cd43 O42 2.223 1_455 S
Cd43 O46 2.297 1_455 S
Cd43 O47 2.439 . S
Cd43 O53 2.240 . S
Cd44 O45 2.240 1_455 S
Cd44 O52 2.223 . S
Cd44 O54 2.297 . S
Cd44 O55 2.439 . S
O45 Cd44 2.240 1_655 S
O45 C50 1.279 . S
O46 Cd43 2.297 1_655 S
O46 C48 1.247 . S
O47 Cd43 2.439 . S
O47 C48 1.208 1_455 S
C48 O46 1.247 . S
C48 O47 1.208 1_655 S
C49 O54 1.247 . S
C49 O55 1.208 . S
C50 O42 1.315 . S
C50 O45 1.279 . S
C51 O52 1.315 . S
C51 O53 1.279 . S
O52 Cd44 2.223 . S
O52 C51 1.315 . S
O53 Cd43 2.240 . S
O53 C51 1.279 . S
O54 Cd44 2.297 . S
O54 C49 1.247 . S
O55 Cd44 2.439 . S
O55 C49 1.208 . S
O56 Cd57 2.223 . S
O56 C64 1.315 . S
Cd57 O56 2.223 . S
Cd57 O60 2.297 . S
Cd57 O61 2.439 . S
Cd57 O67 2.240 . S
Cd58 O59 2.240 . S
Cd58 O66 2.223 . S
Cd58 O68 2.297 . S
Cd58 O69 2.439 . S
O59 Cd58 2.240 . S
O59 C64 1.279 . S
O60 Cd57 2.297 . S
O60 C62 1.247 . S
O61 Cd57 2.439 . S
O61 C62 1.208 . S
C62 O60 1.247 . S
C62 O61 1.208 . S
C63 O68 1.247 . S
C63 O69 1.208 . S
C64 O56 1.315 . S
C64 O59 1.279 . S
C65 O66 1.315 . S
C65 O67 1.279 . S
O66 Cd58 2.223 . S
O66 C65 1.315 . S
O67 Cd57 2.240 . S
O67 C65 1.279 . S
O68 Cd58 2.297 . S
O68 C63 1.247 . S
O69 Cd58 2.439 . S
O69 C63 1.208 . S
O70 Cd71 2.223 1_545 S
O70 C78 1.315 . S
Cd71 O70 2.223 1_565 S
Cd71 O74 2.297 1_565 S
Cd71 O75 2.439 . S
Cd71 O81 2.240 . S
Cd72 O73 2.240 1_565 S
Cd72 O80 2.223 . S
Cd72 O82 2.297 . S
Cd72 O83 2.439 . S
O73 Cd72 2.240 1_545 S
O73 C78 1.279 . S
O74 Cd71 2.297 1_545 S
O74 C76 1.247 . S
O75 Cd71 2.439 . S
O75 C76 1.208 1_565 S
C76 O74 1.247 . S
C76 O75 1.208 1_545 S
C77 O82 1.247 . S
C77 O83 1.208 . S
C78 O70 1.315 . S
C78 O73 1.279 . S
C79 O80 1.315 . S
C79 O81 1.279 . S
O80 Cd72 2.223 . S
O80 C79 1.315 . S
O81 Cd71 2.240 . S
O81 C79 1.279 . S
O82 Cd72 2.297 . S
O82 C77 1.247 . S
O83 Cd72 2.439 . S
O83 C77 1.208 . S
O84 Cd85 2.223 1_545 S
O84 C92 1.315 . S
Cd85 O84 2.223 1_565 S
Cd85 O88 2.297 1_565 S
Cd85 O89 2.439 . S
Cd85 O95 2.240 . S
Cd86 O87 2.240 1_565 S
Cd86 O94 2.223 . S
Cd86 O96 2.297 . S
Cd86 O97 2.439 . S
O87 Cd86 2.240 1_545 S
O87 C92 1.279 . S
O88 Cd85 2.297 1_545 S
O88 C90 1.247 . S
O89 Cd85 2.439 . S
O89 C90 1.208 1_565 S
C90 O88 1.247 . S
C90 O89 1.208 1_545 S
C91 O96 1.247 . S
C91 O97 1.208 . S
C92 O84 1.315 . S
C92 O87 1.279 . S
C93 O94 1.315 . S
C93 O95 1.279 . S
O94 Cd86 2.223 . S
O94 C93 1.315 . S
O95 Cd85 2.240 . S
O95 C93 1.279 . S
O96 Cd86 2.297 . S
O96 C91 1.247 . S
O97 Cd86 2.439 . S
O97 C91 1.208 . S
O98 Cd99 2.223 1_655 S
O98 C106 1.315 . S
Cd99 O98 2.223 1_455 S
Cd99 O102 2.297 1_455 S
Cd99 O103 2.439 . S
Cd99 O109 2.240 . S
Cd100 O101 2.240 1_455 S
Cd100 O108 2.223 . S
Cd100 O110 2.297 . S
Cd100 O111 2.439 . S
O101 Cd100 2.240 1_655 S
O101 C106 1.279 . S
O102 Cd99 2.297 1_655 S
O102 C104 1.247 . S
O103 Cd99 2.439 . S
O103 C104 1.208 1_455 S
C104 O102 1.247 . S
C104 O103 1.208 1_655 S
C105 O110 1.247 . S
C105 O111 1.208 . S
C106 O98 1.315 . S
C106 O101 1.279 . S
C107 O108 1.315 . S
C107 O109 1.279 . S
O108 Cd100 2.223 . S
O108 C107 1.315 . S
O109 Cd99 2.240 . S
O109 C107 1.279 . S
O110 Cd100 2.297 . S
O110 C105 1.247 . S
O111 Cd100 2.439 . S
O111 C105 1.208 . S
O112 Cd113 2.223 . S
O112 C120 1.315 . S
Cd113 O112 2.223 . S
Cd113 O116 2.297 . S
Cd113 O117 2.439 . S
Cd113 O123 2.240 . S
Cd114 O115 2.240 . S
Cd114 O122 2.223 . S
Cd114 O124 2.297 . S
Cd114 O125 2.439 . S
O115 Cd114 2.240 . S
O115 C120 1.279 . S
O116 Cd113 2.297 . S
O116 C118 1.247 . S
O117 Cd113 2.439 . S
O117 C118 1.208 . S
C118 O116 1.247 . S
C118 O117 1.208 . S
C119 O124 1.247 . S
C119 O125 1.208 . S
C120 O112 1.315 . S
C120 O115 1.279 . S
C121 O122 1.315 . S
C121 O123 1.279 . S
O122 Cd114 2.223 . S
O122 C121 1.315 . S
O123 Cd113 2.240 . S
O123 C121 1.279 . S
O124 Cd114 2.297 . S
O124 C119 1.247 . S
O125 Cd114 2.439 . S
O125 C119 1.208 . S
O126 Cd127 2.223 1_455 S
O126 C134 1.315 . S
Cd127 O126 2.223 1_655 S
Cd127 O130 2.297 1_655 S
Cd127 O131 2.439 . S
Cd127 O137 2.240 . S
Cd128 O129 2.240 1_655 S
Cd128 O136 2.223 . S
Cd128 O138 2.297 . S
Cd128 O139 2.439 . S
O129 Cd128 2.240 1_455 S
O129 C134 1.279 . S
O130 Cd127 2.297 1_455 S
O130 C132 1.247 . S
O131 Cd127 2.439 . S
O131 C132 1.208 1_655 S
C132 O130 1.247 . S
C132 O131 1.208 1_455 S
C133 O138 1.247 . S
C133 O139 1.208 . S
C134 O126 1.315 . S
C134 O129 1.279 . S
C135 O136 1.315 . S
C135 O137 1.279 . S
O136 Cd128 2.223 . S
O136 C135 1.315 . S
O137 Cd127 2.240 . S
O137 C135 1.279 . S
O138 Cd128 2.297 . S
O138 C133 1.247 . S
O139 Cd128 2.439 . S
O139 C133 1.208 . S
O140 Cd141 2.223 . S
O140 C148 1.315 . S
Cd141 O140 2.223 . S
Cd141 O144 2.297 . S
Cd141 O145 2.439 . S
Cd141 O151 2.240 . S
Cd142 O143 2.240 . S
Cd142 O150 2.223 . S
Cd142 O152 2.297 . S
Cd142 O153 2.439 . S
O143 Cd142 2.240 . S
O143 C148 1.279 . S
O144 Cd141 2.297 . S
O144 C146 1.247 . S
O145 Cd141 2.439 . S
O145 C146 1.208 . S
C146 O144 1.247 . S
C146 O145 1.208 . S
C147 O152 1.247 . S
C147 O153 1.208 . S
C148 O140 1.315 . S
C148 O143 1.279 . S
C149 O150 1.315 . S
C149 O151 1.279 . S
O150 Cd142 2.223 . S
O150 C149 1.315 . S
O151 Cd141 2.240 . S
O151 C149 1.279 . S
O152 Cd142 2.297 . S
O152 C147 1.247 . S
O153 Cd142 2.439 . S
O153 C147 1.208 . S
O154 Cd155 2.223 1_565 S
O154 C162 1.315 . S
Cd155 O154 2.223 1_545 S
Cd155 O158 2.297 1_545 S
Cd155 O159 2.439 . S
Cd155 O165 2.240 . S
Cd156 O157 2.240 1_545 S
Cd156 O164 2.223 . S
Cd156 O166 2.297 . S
Cd156 O167 2.439 . S
O157 Cd156 2.240 1_565 S
O157 C162 1.279 . S
O158 Cd155 2.297 1_565 S
O158 C160 1.247 . S
O159 Cd155 2.439 . S
O159 C160 1.208 1_545 S
C160 O158 1.247 . S
C160 O159 1.208 1_565 S
C161 O166 1.247 . S
C161 O167 1.208 . S
C162 O154 1.315 . S
C162 O157 1.279 . S
C163 O164 1.315 . S
C163 O165 1.279 . S
O164 Cd156 2.223 . S
O164 C163 1.315 . S
O165 Cd155 2.240 . S
O165 C163 1.279 . S
O166 Cd156 2.297 . S
O166 C161 1.247 . S
O167 Cd156 2.439 . S
O167 C161 1.208 . S
O168 Cd169 2.223 . S
O168 C176 1.315 . S
Cd169 O168 2.223 . S
Cd169 O172 2.297 . S
Cd169 O173 2.439 . S
Cd169 O179 2.240 . S
Cd170 O171 2.240 . S
Cd170 O178 2.223 . S
Cd170 O180 2.297 . S
Cd170 O181 2.439 . S
O171 Cd170 2.240 . S
O171 C176 1.279 . S
O172 Cd169 2.297 . S
O172 C174 1.247 . S
O173 Cd169 2.439 . S
O173 C174 1.208 . S
C174 O172 1.247 . S
C174 O173 1.208 . S
C175 O180 1.247 . S
C175 O181 1.208 . S
C176 O168 1.315 . S
C176 O171 1.279 . S
C177 O178 1.315 . S
C177 O179 1.279 . S
O178 Cd170 2.223 . S
O178 C177 1.315 . S
O179 Cd169 2.240 . S
O179 C177 1.279 . S
O180 Cd170 2.297 . S
O180 C175 1.247 . S
O181 Cd170 2.439 . S
O181 C175 1.208 . S
O182 Cd183 2.223 . S
O182 C190 1.315 . S
Cd183 O182 2.223 . S
Cd183 O186 2.297 . S
Cd183 O187 2.439 . S
Cd183 O193 2.240 . S
Cd184 O185 2.240 . S
Cd184 O192 2.223 . S
Cd184 O194 2.297 . S
Cd184 O195 2.439 . S
O185 Cd184 2.240 . S
O185 C190 1.279 . S
O186 Cd183 2.297 . S
O186 C188 1.247 . S
O187 Cd183 2.439 . S
O187 C188 1.208 . S
C188 O186 1.247 . S
C188 O187 1.208 . S
C189 O194 1.247 . S
C189 O195 1.208 . S
C190 O182 1.315 . S
C190 O185 1.279 . S
C191 O192 1.315 . S
C191 O193 1.279 . S
O192 Cd184 2.223 . S
O192 C191 1.315 . S
O193 Cd183 2.240 . S
O193 C191 1.279 . S
O194 Cd184 2.297 . S
O194 C189 1.247 . S
O195 Cd184 2.439 . S
O195 C189 1.208 . S
O196 Cd197 2.223 . S
O196 C204 1.315 . S
Cd197 O196 2.223 . S
Cd197 O200 2.297 . S
Cd197 O201 2.439 . S
Cd197 O207 2.240 . S
Cd198 O199 2.240 . S
Cd198 O206 2.223 . S
Cd198 O208 2.297 . S
Cd198 O209 2.439 . S
O199 Cd198 2.240 . S
O199 C204 1.279 . S
O200 Cd197 2.297 . S
O200 C202 1.247 . S
O201 Cd197 2.439 . S
O201 C202 1.208 . S
C202 O200 1.247 . S
C202 O201 1.208 . S
C203 O208 1.247 . S
C203 O209 1.208 . S
C204 O196 1.315 . S
C204 O199 1.279 . S
C205 O206 1.315 . S
C205 O207 1.279 . S
O206 Cd198 2.223 . S
O206 C205 1.315 . S
O207 Cd197 2.240 . S
O207 C205 1.279 . S
O208 Cd198 2.297 . S
O208 C203 1.247 . S
O209 Cd198 2.439 . S
O209 C203 1.208 . S
O210 Cd211 2.223 . S
O210 C218 1.315 . S
Cd211 O210 2.223 . S
Cd211 O214 2.297 . S
Cd211 O215 2.439 . S
Cd211 O221 2.240 . S
Cd212 O213 2.240 . S
Cd212 O220 2.223 . S
Cd212 O222 2.297 . S
Cd212 O223 2.439 . S
O213 Cd212 2.240 . S
O213 C218 1.279 . S
O214 Cd211 2.297 . S
O214 C216 1.247 . S
O215 Cd211 2.439 . S
O215 C216 1.208 . S
C216 O214 1.247 . S
C216 O215 1.208 . S
C217 O222 1.247 . S
C217 O223 1.208 . S
C218 O210 1.315 . S
C218 O213 1.279 . S
C219 O220 1.315 . S
C219 O221 1.279 . S
O220 Cd212 2.223 . S
O220 C219 1.315 . S
O221 Cd211 2.240 . S
O221 C219 1.279 . S
O222 Cd212 2.297 . S
O222 C217 1.247 . S
O223 Cd212 2.439 . S
O223 C217 1.208 . S
O224 Cd225 2.223 . S
O224 C232 1.315 . S
Cd225 O224 2.223 . S
Cd225 O228 2.297 . S
Cd225 O229 2.439 . S
Cd225 O235 2.240 . S
Cd226 O227 2.240 . S
Cd226 O234 2.223 . S
Cd226 O236 2.297 . S
Cd226 O237 2.439 . S
O227 Cd226 2.240 . S
O227 C232 1.279 . S
O228 Cd225 2.297 . S
O228 C230 1.247 . S
O229 Cd225 2.439 . S
O229 C230 1.208 . S
C230 O228 1.247 . S
C230 O229 1.208 . S
C231 O236 1.247 . S
C231 O237 1.208 . S
C232 O224 1.315 . S
C232 O227 1.279 . S
C233 O234 1.315 . S
C233 O235 1.279 . S
O234 Cd226 2.223 . S
O234 C233 1.315 . S
O235 Cd225 2.240 . S
O235 C233 1.279 . S
O236 Cd226 2.297 . S
O236 C231 1.247 . S
O237 Cd226 2.439 . S
O237 C231 1.208 . S
O238 Cd239 2.223 . S
O238 C246 1.315 . S
Cd239 O238 2.223 . S
Cd239 O242 2.297 . S
Cd239 O243 2.439 . S
Cd239 O249 2.240 . S
Cd240 O241 2.240 . S
Cd240 O248 2.223 . S
Cd240 O250 2.297 . S
Cd240 O251 2.439 . S
O241 Cd240 2.240 . S
O241 C246 1.279 . S
O242 Cd239 2.297 . S
O242 C244 1.247 . S
O243 Cd239 2.439 . S
O243 C244 1.208 . S
C244 O242 1.247 . S
C244 O243 1.208 . S
C245 O250 1.247 . S
C245 O251 1.208 . S
C246 O238 1.315 . S
C246 O241 1.279 . S
C247 O248 1.315 . S
C247 O249 1.279 . S
O248 Cd240 2.223 . S
O248 C247 1.315 . S
O249 Cd239 2.240 . S
O249 C247 1.279 . S
O250 Cd240 2.297 . S
O250 C245 1.247 . S
O251 Cd240 2.439 . S
O251 C245 1.208 . S
O252 Cd253 2.223 . S
O252 C260 1.315 . S
Cd253 O252 2.223 . S
Cd253 O256 2.297 . S
Cd253 O257 2.439 . S
Cd253 O263 2.240 . S
Cd254 O255 2.240 . S
Cd254 O262 2.223 . S
Cd254 O264 2.297 . S
Cd254 O265 2.439 . S
O255 Cd254 2.240 . S
O255 C260 1.279 . S
O256 Cd253 2.297 . S
O256 C258 1.247 . S
O257 Cd253 2.439 . S
O257 C258 1.208 . S
C258 O256 1.247 . S
C258 O257 1.208 . S
C259 O264 1.247 . S
C259 O265 1.208 . S
C260 O252 1.315 . S
C260 O255 1.279 . S
C261 O262 1.315 . S
C261 O263 1.279 . S
O262 Cd254 2.223 . S
O262 C261 1.315 . S
O263 Cd253 2.240 . S
O263 C261 1.279 . S
O264 Cd254 2.297 . S
O264 C259 1.247 . S
O265 Cd254 2.439 . S
O265 C259 1.208 . S
O266 Cd267 2.223 . S
O266 C274 1.315 . S
Cd267 O266 2.223 . S
Cd267 O270 2.297 . S
Cd267 O271 2.439 . S
Cd267 O277 2.240 . S
Cd268 O269 2.240 . S
Cd268 O276 2.223 . S
Cd268 O278 2.297 . S
Cd268 O279 2.439 . S
O269 Cd268 2.240 . S
O269 C274 1.279 . S
O270 Cd267 2.297 . S
O270 C272 1.247 . S
O271 Cd267 2.439 . S
O271 C272 1.208 . S
C272 O270 1.247 . S
C272 O271 1.208 . S
C273 O278 1.247 . S
C273 O279 1.208 . S
C274 O266 1.315 . S
C274 O269 1.279 . S
C275 O276 1.315 . S
C275 O277 1.279 . S
O276 Cd268 2.223 . S
O276 C275 1.315 . S
O277 Cd267 2.240 . S
O277 C275 1.279 . S
O278 Cd268 2.297 . S
O278 C273 1.247 . S
O279 Cd268 2.439 . S
O279 C273 1.208 . S
O280 Cd281 2.223 . S
O280 C288 1.315 . S
Cd281 O280 2.223 . S
Cd281 O284 2.297 . S
Cd281 O285 2.439 . S
Cd281 O291 2.240 . S
Cd282 O283 2.240 . S
Cd282 O290 2.223 . S
Cd282 O292 2.297 . S
Cd282 O293 2.439 . S
O283 Cd282 2.240 . S
O283 C288 1.279 . S
O284 Cd281 2.297 . S
O284 C286 1.247 . S
O285 Cd281 2.439 . S
O285 C286 1.208 . S
C286 O284 1.247 . S
C286 O285 1.208 . S
C287 O292 1.247 . S
C287 O293 1.208 . S
C288 O280 1.315 . S
C288 O283 1.279 . S
C289 O290 1.315 . S
C289 O291 1.279 . S
O290 Cd282 2.223 . S
O290 C289 1.315 . S
O291 Cd281 2.240 . S
O291 C289 1.279 . S
O292 Cd282 2.297 . S
O292 C287 1.247 . S
O293 Cd282 2.439 . S
O293 C287 1.208 . S
O294 Cd295 2.223 . S
O294 C302 1.315 . S
Cd295 O294 2.223 . S
Cd295 O298 2.297 . S
Cd295 O299 2.439 . S
Cd295 O305 2.240 . S
Cd296 O297 2.240 . S
Cd296 O304 2.223 . S
Cd296 O306 2.297 . S
Cd296 O307 2.439 . S
O297 Cd296 2.240 . S
O297 C302 1.279 . S
O298 Cd295 2.297 . S
O298 C300 1.247 . S
O299 Cd295 2.439 . S
O299 C300 1.208 . S
C300 O298 1.247 . S
C300 O299 1.208 . S
C301 O306 1.247 . S
C301 O307 1.208 . S
C302 O294 1.315 . S
C302 O297 1.279 . S
C303 O304 1.315 . S
C303 O305 1.279 . S
O304 Cd296 2.223 . S
O304 C303 1.315 . S
O305 Cd295 2.240 . S
O305 C303 1.279 . S
O306 Cd296 2.297 . S
O306 C301 1.247 . S
O307 Cd296 2.439 . S
O307 C301 1.208 . S
O308 Cd309 2.223 . S
O308 C316 1.315 . S
Cd309 O308 2.223 . S
Cd309 O312 2.297 . S
Cd309 O313 2.439 . S
Cd309 O319 2.240 . S
Cd310 O311 2.240 . S
Cd310 O318 2.223 . S
Cd310 O320 2.297 . S
Cd310 O321 2.439 . S
O311 Cd310 2.240 . S
O311 C316 1.279 . S
O312 Cd309 2.297 . S
O312 C314 1.247 . S
O313 Cd309 2.439 . S
O313 C314 1.208 . S
C314 O312 1.247 . S
C314 O313 1.208 . S
C315 O320 1.247 . S
C315 O321 1.208 . S
C316 O308 1.315 . S
C316 O311 1.279 . S
C317 O318 1.315 . S
C317 O319 1.279 . S
O318 Cd310 2.223 . S
O318 C317 1.315 . S
O319 Cd309 2.240 . S
O319 C317 1.279 . S
O320 Cd310 2.297 . S
O320 C315 1.247 . S
O321 Cd310 2.439 . S
O321 C315 1.208 . S
O322 Cd323 2.223 . S
O322 C330 1.315 . S
Cd323 O322 2.223 . S
Cd323 O326 2.297 . S
Cd323 O327 2.439 . S
Cd323 O333 2.240 . S
Cd324 O325 2.240 . S
Cd324 O332 2.223 . S
Cd324 O334 2.297 . S
Cd324 O335 2.439 . S
O325 Cd324 2.240 . S
O325 C330 1.279 . S
O326 Cd323 2.297 . S
O326 C328 1.247 . S
O327 Cd323 2.439 . S
O327 C328 1.208 . S
C328 O326 1.247 . S
C328 O327 1.208 . S
C329 O334 1.247 . S
C329 O335 1.208 . S
C330 O322 1.315 . S
C330 O325 1.279 . S
C331 O332 1.315 . S
C331 O333 1.279 . S
O332 Cd324 2.223 . S
O332 C331 1.315 . S
O333 Cd323 2.240 . S
O333 C331 1.279 . S
O334 Cd324 2.297 . S
O334 C329 1.247 . S
O335 Cd324 2.439 . S
O335 C329 1.208 . S
O336 Cd337 2.223 . S
O336 C344 1.315 . S
Cd337 O336 2.223 . S
Cd337 O340 2.297 . S
Cd337 O341 2.439 . S
Cd337 O347 2.240 . S
Cd338 O339 2.240 . S
Cd338 O346 2.223 . S
Cd338 O348 2.297 . S
Cd338 O349 2.439 . S
O339 Cd338 2.240 . S
O339 C344 1.279 . S
O340 Cd337 2.297 . S
O340 C342 1.247 . S
O341 Cd337 2.439 . S
O341 C342 1.208 . S
C342 O340 1.247 . S
C342 O341 1.208 . S
C343 O348 1.247 . S
C343 O349 1.208 . S
C344 O336 1.315 . S
C344 O339 1.279 . S
C345 O346 1.315 . S
C345 O347 1.279 . S
O346 Cd338 2.223 . S
O346 C345 1.315 . S
O347 Cd337 2.240 . S
O347 C345 1.279 . S
O348 Cd338 2.297 . S
O348 C343 1.247 . S
O349 Cd338 2.439 . S
O349 C343 1.208 . S
O350 Cd351 2.223 . S
O350 C358 1.315 . S
Cd351 O350 2.223 . S
Cd351 O354 2.297 . S
Cd351 O355 2.439 . S
Cd351 O361 2.240 . S
Cd352 O353 2.240 . S
Cd352 O360 2.223 . S
Cd352 O362 2.297 . S
Cd352 O363 2.439 . S
O353 Cd352 2.240 . S
O353 C358 1.279 . S
O354 Cd351 2.297 . S
O354 C356 1.247 . S
O355 Cd351 2.439 . S
O355 C356 1.208 . S
C356 O354 1.247 . S
C356 O355 1.208 . S
C357 O362 1.247 . S
C357 O363 1.208 . S
C358 O350 1.315 . S
C358 O353 1.279 . S
C359 O360 1.315 . S
C359 O361 1.279 . S
O360 Cd352 2.223 . S
O360 C359 1.315 . S
O361 Cd351 2.240 . S
O361 C359 1.279 . S
O362 Cd352 2.297 . S
O362 C357 1.247 . S
O363 Cd352 2.439 . S
O363 C357 1.208 . S
O364 Cd365 2.223 . S
O364 C372 1.315 . S
Cd365 O364 2.223 . S
Cd365 O368 2.297 . S
Cd365 O369 2.439 . S
Cd365 O375 2.240 . S
Cd366 O367 2.240 . S
Cd366 O374 2.223 . S
Cd366 O376 2.297 . S
Cd366 O377 2.439 . S
O367 Cd366 2.240 . S
O367 C372 1.279 . S
O368 Cd365 2.297 . S
O368 C370 1.247 . S
O369 Cd365 2.439 . S
O369 C370 1.208 . S
C370 O368 1.247 . S
C370 O369 1.208 . S
C371 O376 1.247 . S
C371 O377 1.208 . S
C372 O364 1.315 . S
C372 O367 1.279 . S
C373 O374 1.315 . S
C373 O375 1.279 . S
O374 Cd366 2.223 . S
O374 C373 1.315 . S
O375 Cd365 2.240 . S
O375 C373 1.279 . S
O376 Cd366 2.297 . S
O376 C371 1.247 . S
O377 Cd366 2.439 . S
O377 C371 1.208 . S
O378 Cd379 2.223 . S
O378 C386 1.315 . S
Cd379 O378 2.223 . S
Cd379 O382 2.297 . S
Cd379 O383 2.439 . S
Cd379 O389 2.240 . S
Cd380 O381 2.240 . S
Cd380 O388 2.223 . S
Cd380 O390 2.297 . S
Cd380 O391 2.439 . S
O381 Cd380 2.240 . S
O381 C386 1.279 . S
O382 Cd379 2.297 . S
O382 C384 1.247 . S
O383 Cd379 2.439 . S
O383 C384 1.208 . S
C384 O382 1.247 . S
C384 O383 1.208 . S
C385 O390 1.247 . S
C385 O391 1.208 . S
C386 O378 1.315 . S
C386 O381 1.279 . S
C387 O388 1.315 . S
C387 O389 1.279 . S
O388 Cd380 2.223 . S
O388 C387 1.315 . S
O389 Cd379 2.240 . S
O389 C387 1.279 . S
O390 Cd380 2.297 . S
O390 C385 1.247 . S
O391 Cd380 2.439 . S
O391 C385 1.208 . S
O392 Cd393 2.223 . S
O392 C400 1.315 . S
Cd393 O392 2.223 . S
Cd393 O396 2.297 . S
Cd393 O397 2.439 . S
Cd393 O403 2.240 . S
Cd394 O395 2.240 . S
Cd394 O402 2.223 . S
Cd394 O404 2.297 . S
Cd394 O405 2.439 . S
O395 Cd394 2.240 . S
O395 C400 1.279 . S
O396 Cd393 2.297 . S
O396 C398 1.247 . S
O397 Cd393 2.439 . S
O397 C398 1.208 . S
C398 O396 1.247 . S
C398 O397 1.208 . S
C399 O404 1.247 . S
C399 O405 1.208 . S
C400 O392 1.315 . S
C400 O395 1.279 . S
C401 O402 1.315 . S
C401 O403 1.279 . S
O402 Cd394 2.223 . S
O402 C401 1.315 . S
O403 Cd393 2.240 . S
O403 C401 1.279 . S
O404 Cd394 2.297 . S
O404 C399 1.247 . S
O405 Cd394 2.439 . S
O405 C399 1.208 . S
O406 Cd407 2.223 . S
O406 C414 1.315 . S
Cd407 O406 2.223 . S
Cd407 O410 2.297 . S
Cd407 O411 2.439 . S
Cd407 O417 2.240 . S
Cd408 O409 2.240 . S
Cd408 O416 2.223 . S
Cd408 O418 2.297 . S
Cd408 O419 2.439 . S
O409 Cd408 2.240 . S
O409 C414 1.279 . S
O410 Cd407 2.297 . S
O410 C412 1.247 . S
O411 Cd407 2.439 . S
O411 C412 1.208 . S
C412 O410 1.247 . S
C412 O411 1.208 . S
C413 O418 1.247 . S
C413 O419 1.208 . S
C414 O406 1.315 . S
C414 O409 1.279 . S
C415 O416 1.315 . S
C415 O417 1.279 . S
O416 Cd408 2.223 . S
O416 C415 1.315 . S
O417 Cd407 2.240 . S
O417 C415 1.279 . S
O418 Cd408 2.297 . S
O418 C413 1.247 . S
O419 Cd408 2.439 . S
O419 C413 1.208 . S
O420 Cd421 2.223 . S
O420 C428 1.315 . S
Cd421 O420 2.223 . S
Cd421 O424 2.297 . S
Cd421 O425 2.439 . S
Cd421 O431 2.240 . S
Cd422 O423 2.240 . S
Cd422 O430 2.223 . S
Cd422 O432 2.297 . S
Cd422 O433 2.439 . S
O423 Cd422 2.240 . S
O423 C428 1.279 . S
O424 Cd421 2.297 . S
O424 C426 1.247 . S
O425 Cd421 2.439 . S
O425 C426 1.208 . S
C426 O424 1.247 . S
C426 O425 1.208 . S
C427 O432 1.247 . S
C427 O433 1.208 . S
C428 O420 1.315 . S
C428 O423 1.279 . S
C429 O430 1.315 . S
C429 O431 1.279 . S
O430 Cd422 2.223 . S
O430 C429 1.315 . S
O431 Cd421 2.240 . S
O431 C429 1.279 . S
O432 Cd422 2.297 . S
O432 C427 1.247 . S
O433 Cd422 2.439 . S
O433 C427 1.208 . S
O434 Cd435 2.223 . S
O434 C442 1.315 . S
Cd435 O434 2.223 . S
Cd435 O438 2.297 . S
Cd435 O439 2.439 . S
Cd435 O445 2.240 . S
Cd436 O437 2.240 . S
Cd436 O444 2.223 . S
Cd436 O446 2.297 . S
Cd436 O447 2.439 . S
O437 Cd436 2.240 . S
O437 C442 1.279 . S
O438 Cd435 2.297 . S
O438 C440 1.247 . S
O439 Cd435 2.439 . S
O439 C440 1.208 . S
C440 O438 1.247 . S
C440 O439 1.208 . S
C441 O446 1.247 . S
C441 O447 1.208 . S
C442 O434 1.315 . S
C442 O437 1.279 . S
C443 O444 1.315 . S
C443 O445 1.279 . S
O444 Cd436 2.223 . S
O444 C443 1.315 . S
O445 Cd435 2.240 . S
O445 C443 1.279 . S
O446 Cd436 2.297 . S
O446 C441 1.247 . S
O447 Cd436 2.439 . S
O447 C441 1.208 . S
O448 Cd449 2.223 . S
O448 C456 1.315 . S
Cd449 O448 2.223 . S
Cd449 O452 2.297 . S
Cd449 O453 2.439 . S
Cd449 O459 2.240 . S
Cd450 O451 2.240 . S
Cd450 O458 2.223 . S
Cd450 O460 2.297 . S
Cd450 O461 2.439 . S
O451 Cd450 2.240 . S
O451 C456 1.279 . S
O452 Cd449 2.297 . S
O452 C454 1.247 . S
O453 Cd449 2.439 . S
O453 C454 1.208 . S
C454 O452 1.247 . S
C454 O453 1.208 . S
C455 O460 1.247 . S
C455 O461 1.208 . S
C456 O448 1.315 . S
C456 O451 1.279 . S
C457 O458 1.315 . S
C457 O459 1.279 . S
O458 Cd450 2.223 . S
O458 C457 1.315 . S
O459 Cd449 2.240 . S
O459 C457 1.279 . S
O460 Cd450 2.297 . S
O460 C455 1.247 . S
O461 Cd450 2.439 . S
O461 C455 1.208 . S
O462 Cd463 2.223 . S
O462 C470 1.315 . S
Cd463 O462 2.223 . S
Cd463 O466 2.297 . S
Cd463 O467 2.439 . S
Cd463 O473 2.240 . S
Cd464 O465 2.240 . S
Cd464 O472 2.223 . S
Cd464 O474 2.297 . S
Cd464 O475 2.439 . S
O465 Cd464 2.240 . S
O465 C470 1.279 . S
O466 Cd463 2.297 . S
O466 C468 1.247 . S
O467 Cd463 2.439 . S
O467 C468 1.208 . S
C468 O466 1.247 . S
C468 O467 1.208 . S
C469 O474 1.247 . S
C469 O475 1.208 . S
C470 O462 1.315 . S
C470 O465 1.279 . S
C471 O472 1.315 . S
C471 O473 1.279 . S
O472 Cd464 2.223 . S
O472 C471 1.315 . S
O473 Cd463 2.240 . S
O473 C471 1.279 . S
O474 Cd464 2.297 . S
O474 C469 1.247 . S
O475 Cd464 2.439 . S
O475 C469 1.208 . S
O476 Cd477 2.223 . S
O476 C484 1.315 . S
Cd477 O476 2.223 . S
Cd477 O480 2.297 . S
Cd477 O481 2.439 . S
Cd477 O487 2.240 . S
Cd478 O479 2.240 . S
Cd478 O486 2.223 . S
Cd478 O488 2.297 . S
Cd478 O489 2.439 . S
O479 Cd478 2.240 . S
O479 C484 1.279 . S
O480 Cd477 2.297 . S
O480 C482 1.247 . S
O481 Cd477 2.439 . S
O481 C482 1.208 . S
C482 O480 1.247 . S
C482 O481 1.208 . S
C483 O488 1.247 . S
C483 O489 1.208 . S
C484 O476 1.315 . S
C484 O479 1.279 . S
C485 O486 1.315 . S
C485 O487 1.279 . S
O486 Cd478 2.223 . S
O486 C485 1.315 . S
O487 Cd477 2.240 . S
O487 C485 1.279 . S
O488 Cd478 2.297 . S
O488 C483 1.247 . S
O489 Cd478 2.439 . S
O489 C483 1.208 . S
O490 Cd491 2.223 . S
O490 C498 1.315 . S
Cd491 O490 2.223 . S
Cd491 O494 2.297 . S
Cd491 O495 2.439 . S
Cd491 O501 2.240 . S
Cd492 O493 2.240 . S
Cd492 O500 2.223 . S
Cd492 O502 2.297 . S
Cd492 O503 2.439 . S
O493 Cd492 2.240 . S
O493 C498 1.279 . S
O494 Cd491 2.297 . S
O494 C496 1.247 . S
O495 Cd491 2.439 . S
O495 C496 1.208 . S
C496 O494 1.247 . S
C496 O495 1.208 . S
C497 O502 1.247 . S
C497 O503 1.208 . S
C498 O490 1.315 . S
C498 O493 1.279 . S
C499 O500 1.315 . S
C499 O501 1.279 . S
O500 Cd492 2.223 . S
O500 C499 1.315 . S
O501 Cd491 2.240 . S
O501 C499 1.279 . S
O502 Cd492 2.297 . S
O502 C497 1.247 . S
O503 Cd492 2.439 . S
O503 C497 1.208 . S
C504 C505 1.387 . S
C504 H508 0.950 . S
C504 C513 1.390 . S
C505 C504 1.387 . S
C505 C507 1.387 . S
H506 C513 0.950 . S
C507 C505 1.387 . S
C507 C509 1.390 . S
C507 H511 0.950 . S
H508 C504 0.950 . S
C509 C507 1.390 . S
C509 C510 1.387 . S
C509 H512 0.950 . S
C510 C509 1.387 . S
C510 C513 1.387 . S
H511 C507 0.950 . S
H512 C509 0.950 . S
C513 C504 1.390 . S
C513 H506 0.950 . S
C513 C510 1.387 . S
C514 C515 1.387 . S
C514 H518 0.950 . S
C514 C523 1.390 . S
C515 C514 1.387 . S
C515 C517 1.387 . S
H516 C523 0.950 . S
C517 C515 1.387 . S
C517 C519 1.390 . S
C517 H521 0.950 . S
H518 C514 0.950 . S
C519 C517 1.390 . S
C519 C520 1.387 . S
C519 H522 0.950 . S
C520 C519 1.387 . S
C520 C523 1.387 . S
H521 C517 0.950 . S
H522 C519 0.950 . S
C523 C514 1.390 . S
C523 H516 0.950 . S
C523 C520 1.387 . S
C524 C525 1.387 . S
C524 H528 0.950 . S
C524 C533 1.390 . S
C525 C524 1.387 . S
C525 C527 1.387 . S
H526 C533 0.950 . S
C527 C525 1.387 . S
C527 C529 1.390 . S
C527 H531 0.950 . S
H528 C524 0.950 . S
C529 C527 1.390 . S
C529 C530 1.387 . S
C529 H532 0.950 . S
C530 C529 1.387 . S
C530 C533 1.387 . S
H531 C527 0.950 . S
H532 C529 0.950 . S
C533 C524 1.390 . S
C533 H526 0.950 . S
C533 C530 1.387 . S
C534 C535 1.387 . S
C534 H538 0.950 . S
C534 C543 1.390 . S
C535 C534 1.387 . S
C535 C537 1.387 . S
H536 C543 0.950 . S
C537 C535 1.387 . S
C537 C539 1.390 . S
C537 H541 0.950 . S
H538 C534 0.950 . S
C539 C537 1.390 . S
C539 C540 1.387 . S
C539 H542 0.950 . S
C540 C539 1.387 . S
C540 C543 1.387 . S
H541 C537 0.950 . S
H542 C539 0.950 . S
C543 C534 1.390 . S
C543 H536 0.950 . S
C543 C540 1.387 . S
C544 C545 1.387 . S
C544 H548 0.950 . S
C544 C553 1.390 . S
C545 C544 1.387 . S
C545 C547 1.387 . S
H546 C553 0.950 . S
C547 C545 1.387 . S
C547 C549 1.390 . S
C547 H551 0.950 . S
H548 C544 0.950 . S
C549 C547 1.390 . S
C549 C550 1.387 . S
C549 H552 0.950 . S
C550 C549 1.387 . S
C550 C553 1.387 . S
H551 C547 0.950 . S
H552 C549 0.950 . S
C553 C544 1.390 . S
C553 H546 0.950 . S
C553 C550 1.387 . S
C554 C555 1.387 . S
C554 H558 0.950 . S
C554 C563 1.390 . S
C555 C554 1.387 . S
C555 C557 1.387 . S
H556 C563 0.950 . S
C557 C555 1.387 . S
C557 C559 1.390 . S
C557 H561 0.950 . S
H558 C554 0.950 . S
C559 C557 1.390 . S
C559 C560 1.387 . S
C559 H562 0.950 . S
C560 C559 1.387 . S
C560 C563 1.387 . S
H561 C557 0.950 . S
H562 C559 0.950 . S
C563 C554 1.390 . S
C563 H556 0.950 . S
C563 C560 1.387 . S
C564 C565 1.387 . S
C564 H568 0.950 . S
C564 C573 1.390 . S
C565 C564 1.387 . S
C565 C567 1.387 . S
H566 C573 0.950 . S
C567 C565 1.387 . S
C567 C569 1.390 . S
C567 H571 0.950 . S
H568 C564 0.950 . S
C569 C567 1.390 . S
C569 C570 1.387 . S
C569 H572 0.950 . S
C570 C569 1.387 . S
C570 C573 1.387 . S
H571 C567 0.950 . S
H572 C569 0.950 . S
C573 C564 1.390 . S
C573 H566 0.950 . S
C573 C570 1.387 . S
C574 C575 1.387 . S
C574 H578 0.950 . S
C574 C583 1.390 . S
C575 C574 1.387 . S
C575 C577 1.387 . S
H576 C583 0.950 . S
C577 C575 1.387 . S
C577 C579 1.390 . S
C577 H581 0.950 . S
H578 C574 0.950 . S
C579 C577 1.390 . S
C579 C580 1.387 . S
C579 H582 0.950 . S
C580 C579 1.387 . S
C580 C583 1.387 . S
H581 C577 0.950 . S
H582 C579 0.950 . S
C583 C574 1.390 . S
C583 H576 0.950 . S
C583 C580 1.387 . S
C584 C585 1.387 . S
C584 H588 0.950 . S
C584 C593 1.390 . S
C585 C584 1.387 . S
C585 C587 1.387 . S
H586 C593 0.950 . S
C587 C585 1.387 . S
C587 C589 1.390 . S
C587 H591 0.950 . S
H588 C584 0.950 . S
C589 C587 1.390 . S
C589 C590 1.387 . S
C589 H592 0.950 . S
C590 C589 1.387 . S
C590 C593 1.387 . S
H591 C587 0.950 . S
H592 C589 0.950 . S
C593 C584 1.390 . S
C593 H586 0.950 . S
C593 C590 1.387 . S
C594 C595 1.387 . S
C594 H598 0.950 . S
C594 C603 1.390 . S
C595 C594 1.387 . S
C595 C597 1.387 . S
H596 C603 0.950 . S
C597 C595 1.387 . S
C597 C599 1.390 . S
C597 H601 0.950 . S
H598 C594 0.950 . S
C599 C597 1.390 . S
C599 C600 1.387 . S
C599 H602 0.950 . S
C600 C599 1.387 . S
C600 C603 1.387 . S
H601 C597 0.950 . S
H602 C599 0.950 . S
C603 C594 1.390 . S
C603 H596 0.950 . S
C603 C600 1.387 . S
C604 C605 1.387 . S
C604 H608 0.950 . S
C604 C613 1.390 . S
C605 C604 1.387 . S
C605 C607 1.387 . S
H606 C613 0.950 . S
C607 C605 1.387 . S
C607 C609 1.390 . S
C607 H611 0.950 . S
H608 C604 0.950 . S
C609 C607 1.390 . S
C609 C610 1.387 . S
C609 H612 0.950 . S
C610 C609 1.387 . S
C610 C613 1.387 . S
H611 C607 0.950 . S
H612 C609 0.950 . S
C613 C604 1.390 . S
C613 H606 0.950 . S
C613 C610 1.387 . S
C614 C615 1.387 . S
C614 H618 0.950 . S
C614 C623 1.390 . S
C615 C614 1.387 . S
C615 C617 1.387 . S
H616 C623 0.950 . S
C617 C615 1.387 . S
C617 C619 1.390 . S
C617 H621 0.950 . S
H618 C614 0.950 . S
C619 C617 1.390 . S
C619 C620 1.387 . S
C619 H622 0.950 . S
C620 C619 1.387 . S
C620 C623 1.387 . S
H621 C617 0.950 . S
H622 C619 0.950 . S
C623 C614 1.390 . S
C623 H616 0.950 . S
C623 C620 1.387 . S
C624 C625 1.387 1_655 S
C624 H628 0.950 . S
C624 C633 1.390 . S
C625 C624 1.387 1_455 S
C625 C627 1.387 . S
H626 C633 0.950 . S
C627 C625 1.387 . S
C627 C629 1.390 . S
C627 H631 0.950 . S
H628 C624 0.950 . S
C629 C627 1.390 . S
C629 C630 1.387 1_455 S
C629 H632 0.950 . S
C630 C629 1.387 1_655 S
C630 C633 1.387 . S
H631 C627 0.950 . S
H632 C629 0.950 . S
C633 C624 1.390 . S
C633 H626 0.950 . S
C633 C630 1.387 . S
C634 C635 1.387 . S
C634 H638 0.950 . S
C634 C643 1.390 . S
C635 C634 1.387 . S
C635 C637 1.387 . S
H636 C643 0.950 . S
C637 C635 1.387 . S
C637 C639 1.390 . S
C637 H641 0.950 . S
H638 C634 0.950 . S
C639 C637 1.390 . S
C639 C640 1.387 . S
C639 H642 0.950 . S
C640 C639 1.387 . S
C640 C643 1.387 . S
H641 C637 0.950 . S
H642 C639 0.950 . S
C643 C634 1.390 . S
C643 H636 0.950 . S
C643 C640 1.387 . S
C644 C645 1.387 . S
C644 H648 0.950 . S
C644 C653 1.390 1_545 S
C645 C644 1.387 . S
C645 C647 1.387 . S
H646 C653 0.950 . S
C647 C645 1.387 . S
C647 C649 1.390 1_545 S
C647 H651 0.950 . S
H648 C644 0.950 . S
C649 C647 1.390 1_565 S
C649 C650 1.387 . S
C649 H652 0.950 . S
C650 C649 1.387 . S
C650 C653 1.387 . S
H651 C647 0.950 . S
H652 C649 0.950 . S
C653 C644 1.390 1_565 S
C653 H646 0.950 . S
C653 C650 1.387 . S
C654 C655 1.387 1_556 S
C654 H658 0.950 . S
C654 C663 1.390 . S
C655 C654 1.387 1_554 S
C655 C657 1.387 1_565 S
H656 C663 0.950 . S
C657 C655 1.387 1_545 S
C657 C659 1.390 . S
C657 H661 0.950 . S
H658 C654 0.950 . S
C659 C657 1.390 . S
C659 C660 1.387 1_554 S
C659 H662 0.950 . S
C660 C659 1.387 1_556 S
C660 C663 1.387 1_545 S
H661 C657 0.950 . S
H662 C659 0.950 . S
C663 C654 1.390 . S
C663 H656 0.950 . S
C663 C660 1.387 1_565 S
C664 C665 1.387 . S
C664 H668 0.950 . S
C664 C673 1.390 1_556 S
C665 C664 1.387 . S
C665 C667 1.387 1_655 S
H666 C673 0.950 . S
C667 C665 1.387 1_455 S
C667 C669 1.390 1_556 S
C667 H671 0.950 . S
H668 C664 0.950 . S
C669 C667 1.390 1_554 S
C669 C670 1.387 . S
C669 H672 0.950 . S
C670 C669 1.387 . S
C670 C673 1.387 1_455 S
H671 C667 0.950 . S
H672 C669 0.950 . S
C673 C664 1.390 1_554 S
C673 H666 0.950 . S
C673 C670 1.387 1_655 S
C674 C675 1.387 1_554 S
C674 H678 0.950 . S
C674 C683 1.390 . S
C675 C674 1.387 1_556 S
C675 C677 1.387 . S
H676 C683 0.950 . S
C677 C675 1.387 . S
C677 C679 1.390 . S
C677 H681 0.950 . S
H678 C674 0.950 . S
C679 C677 1.390 . S
C679 C680 1.387 1_556 S
C679 H682 0.950 . S
C680 C679 1.387 1_554 S
C680 C683 1.387 . S
H681 C677 0.950 . S
H682 C679 0.950 . S
C683 C674 1.390 . S
C683 H676 0.950 . S
C683 C680 1.387 . S
C684 C685 1.387 . S
C684 H688 0.950 1_565 S
C684 C693 1.390 . S
C685 C684 1.387 . S
C685 C687 1.387 . S
H686 C693 0.950 . S
C687 C685 1.387 . S
C687 C689 1.390 . S
C687 H691 0.950 . S
H688 C684 0.950 1_545 S
C689 C687 1.390 . S
C689 C690 1.387 . S
C689 H692 0.950 . S
C690 C689 1.387 . S
C690 C693 1.387 . S
H691 C687 0.950 . S
H692 C689 0.950 . S
C693 C684 1.390 . S
C693 H686 0.950 . S
C693 C690 1.387 . S
C694 C695 1.387 . S
C694 H698 0.950 . S
C694 C703 1.390 . S
C695 C694 1.387 . S
C695 C697 1.387 . S
H696 C703 0.950 . S
C697 C695 1.387 . S
C697 C699 1.390 . S
C697 H701 0.950 . S
H698 C694 0.950 . S
C699 C697 1.390 . S
C699 C700 1.387 . S
C699 H702 0.950 1_455 S
C700 C699 1.387 . S
C700 C703 1.387 . S
H701 C697 0.950 . S
H702 C699 0.950 1_655 S
C703 C694 1.390 . S
C703 H696 0.950 . S
C703 C700 1.387 . S
C704 C705 1.387 . S
C704 H708 0.950 . S
C704 C713 1.390 . S
C705 C704 1.387 . S
C705 C707 1.387 . S
H706 C713 0.950 . S
C707 C705 1.387 . S
C707 C709 1.390 . S
C707 H711 0.950 . S
H708 C704 0.950 . S
C709 C707 1.390 . S
C709 C710 1.387 . S
C709 H712 0.950 . S
C710 C709 1.387 . S
C710 C713 1.387 . S
H711 C707 0.950 . S
H712 C709 0.950 . S
C713 C704 1.390 . S
C713 H706 0.950 . S
C713 C710 1.387 . S
C714 C715 1.387 . S
C714 H718 0.950 . S
C714 C723 1.390 . S
C715 C714 1.387 . S
C715 C717 1.387 . S
H716 C723 0.950 . S
C717 C715 1.387 . S
C717 C719 1.390 . S
C717 H721 0.950 . S
H718 C714 0.950 . S
C719 C717 1.390 . S
C719 C720 1.387 . S
C719 H722 0.950 1_655 S
C720 C719 1.387 . S
C720 C723 1.387 . S
H721 C717 0.950 . S
H722 C719 0.950 1_455 S
C723 C714 1.390 . S
C723 H716 0.950 . S
C723 C720 1.387 . S
C724 C725 1.387 . S
C724 H728 0.950 . S
C724 C733 1.390 . S
C725 C724 1.387 . S
C725 C727 1.387 . S
H726 C733 0.950 . S
C727 C725 1.387 . S
C727 C729 1.390 . S
C727 H731 0.950 . S
H728 C724 0.950 . S
C729 C727 1.390 . S
C729 C730 1.387 . S
C729 H732 0.950 . S
C730 C729 1.387 . S
C730 C733 1.387 . S
H731 C727 0.950 . S
H732 C729 0.950 . S
C733 C724 1.390 . S
C733 H726 0.950 . S
C733 C730 1.387 . S
C734 C735 1.387 . S
C734 H738 0.950 . S
C734 C743 1.390 . S
C735 C734 1.387 . S
C735 C737 1.387 . S
H736 C743 0.950 1_565 S
C737 C735 1.387 . S
C737 C739 1.390 . S
C737 H741 0.950 . S
H738 C734 0.950 . S
C739 C737 1.390 . S
C739 C740 1.387 . S
C739 H742 0.950 . S
C740 C739 1.387 . S
C740 C743 1.387 . S
H741 C737 0.950 . S
H742 C739 0.950 . S
C743 C734 1.390 . S
C743 H736 0.950 1_545 S
C743 C740 1.387 . S
C744 C745 1.387 . S
C744 H748 0.950 . S
C744 C753 1.390 . S
C745 C744 1.387 . S
C745 C747 1.387 . S
H746 C753 0.950 . S
C747 C745 1.387 . S
C747 C749 1.390 . S
C747 H751 0.950 1_545 S
H748 C744 0.950 . S
C749 C747 1.390 . S
C749 C750 1.387 . S
C749 H752 0.950 . S
C750 C749 1.387 . S
C750 C753 1.387 . S
H751 C747 0.950 1_565 S
H752 C749 0.950 . S
C753 C744 1.390 . S
C753 H746 0.950 . S
C753 C750 1.387 . S
C754 C755 1.387 . S
C754 H758 0.950 . S
C754 C763 1.390 . S
C755 C754 1.387 . S
C755 C757 1.387 . S
H756 C763 0.950 1_455 S
C757 C755 1.387 . S
C757 C759 1.390 . S
C757 H761 0.950 . S
H758 C754 0.950 . S
C759 C757 1.390 . S
C759 C760 1.387 . S
C759 H762 0.950 . S
C760 C759 1.387 . S
C760 C763 1.387 . S
H761 C757 0.950 . S
H762 C759 0.950 . S
C763 C754 1.390 . S
C763 H756 0.950 1_655 S
C763 C760 1.387 . S
C764 C765 1.387 . S
C764 H768 0.950 . S
C764 C773 1.390 . S
C765 C764 1.387 . S
C765 C767 1.387 . S
H766 C773 0.950 . S
C767 C765 1.387 . S
C767 C769 1.390 . S
C767 H771 0.950 . S
H768 C764 0.950 . S
C769 C767 1.390 . S
C769 C770 1.387 . S
C769 H772 0.950 . S
C770 C769 1.387 . S
C770 C773 1.387 . S
H771 C767 0.950 . S
H772 C769 0.950 . S
C773 C764 1.390 . S
C773 H766 0.950 . S
C773 C770 1.387 . S
C774 C775 1.387 . S
C774 H778 0.950 . S
C774 C783 1.390 . S
C775 C774 1.387 . S
C775 C777 1.387 . S
H776 C783 0.950 . S
C777 C775 1.387 . S
C777 C779 1.390 . S
C777 H781 0.950 . S
H778 C774 0.950 . S
C779 C777 1.390 . S
C779 C780 1.387 . S
C779 H782 0.950 . S
C780 C779 1.387 . S
C780 C783 1.387 . S
H781 C777 0.950 . S
H782 C779 0.950 . S
C783 C774 1.390 . S
C783 H776 0.950 . S
C783 C780 1.387 . S
C784 C785 1.387 . S
C784 H788 0.950 . S
C784 C793 1.390 . S
C785 C784 1.387 . S
C785 C787 1.387 . S
H786 C793 0.950 . S
C787 C785 1.387 . S
C787 C789 1.390 . S
C787 H791 0.950 . S
H788 C784 0.950 . S
C789 C787 1.390 . S
C789 C790 1.387 . S
C789 H792 0.950 . S
C790 C789 1.387 . S
C790 C793 1.387 . S
H791 C787 0.950 . S
H792 C789 0.950 . S
C793 C784 1.390 . S
C793 H786 0.950 . S
C793 C790 1.387 . S
C794 C795 1.387 . S
C794 H798 0.950 . S
C794 C803 1.390 . S
C795 C794 1.387 . S
C795 C797 1.387 . S
H796 C803 0.950 . S
C797 C795 1.387 . S
C797 C799 1.390 . S
C797 H801 0.950 1_565 S
H798 C794 0.950 . S
C799 C797 1.390 . S
C799 C800 1.387 . S
C799 H802 0.950 . S
C800 C799 1.387 . S
C800 C803 1.387 . S
H801 C797 0.950 1_545 S
H802 C799 0.950 . S
C803 C794 1.390 . S
C803 H796 0.950 . S
C803 C800 1.387 . S
C804 C805 1.387 . S
C804 H808 0.950 . S
C804 C813 1.390 . S
C805 C804 1.387 . S
C805 C807 1.387 . S
H806 C813 0.950 . S
C807 C805 1.387 . S
C807 C809 1.390 . S
C807 H811 0.950 . S
H808 C804 0.950 . S
C809 C807 1.390 . S
C809 C810 1.387 . S
C809 H812 0.950 . S
C810 C809 1.387 . S
C810 C813 1.387 . S
H811 C807 0.950 . S
H812 C809 0.950 . S
C813 C804 1.390 . S
C813 H806 0.950 . S
C813 C810 1.387 . S
C814 C815 1.387 . S
C814 H818 0.950 . S
C814 C823 1.390 1_545 S
C815 C814 1.387 . S
C815 C817 1.387 . S
H816 C823 0.950 . S
C817 C815 1.387 . S
C817 C819 1.390 1_545 S
C817 H821 0.950 . S
H818 C814 0.950 . S
C819 C817 1.390 1_565 S
C819 C820 1.387 . S
C819 H822 0.950 . S
C820 C819 1.387 . S
C820 C823 1.387 . S
H821 C817 0.950 . S
H822 C819 0.950 . S
C823 C814 1.390 1_565 S
C823 H816 0.950 . S
C823 C820 1.387 . S
C824 C825 1.387 . S
C824 H828 0.950 . S
C824 C833 1.390 1_655 S
C825 C824 1.387 . S
C825 C827 1.387 . S
H826 C833 0.950 . S
C827 C825 1.387 . S
C827 C829 1.390 1_655 S
C827 H831 0.950 . S
H828 C824 0.950 . S
C829 C827 1.390 1_455 S
C829 C830 1.387 . S
C829 H832 0.950 . S
C830 C829 1.387 . S
C830 C833 1.387 . S
H831 C827 0.950 . S
H832 C829 0.950 . S
C833 C824 1.390 1_455 S
C833 H826 0.950 . S
C833 C830 1.387 . S
C834 C835 1.387 . S
C834 H838 0.950 . S
C834 C843 1.390 . S
C835 C834 1.387 . S
C835 C837 1.387 . S
H836 C843 0.950 . S
C837 C835 1.387 . S
C837 C839 1.390 . S
C837 H841 0.950 . S
H838 C834 0.950 . S
C839 C837 1.390 . S
C839 C840 1.387 . S
C839 H842 0.950 . S
C840 C839 1.387 . S
C840 C843 1.387 . S
H841 C837 0.950 . S
H842 C839 0.950 . S
C843 C834 1.390 . S
C843 H836 0.950 . S
C843 C840 1.387 . S
C844 C845 1.387 . S
C844 H848 0.950 . S
C844 C853 1.390 1_565 S
C845 C844 1.387 . S
C845 C847 1.387 . S
H846 C853 0.950 . S
C847 C845 1.387 . S
C847 C849 1.390 1_565 S
C847 H851 0.950 . S
H848 C844 0.950 . S
C849 C847 1.390 1_545 S
C849 C850 1.387 . S
C849 H852 0.950 . S
C850 C849 1.387 . S
C850 C853 1.387 . S
H851 C847 0.950 . S
H852 C849 0.950 . S
C853 C844 1.390 1_545 S
C853 H846 0.950 . S
C853 C850 1.387 . S
C854 C855 1.387 . S
C854 H858 0.950 . S
C854 C863 1.409 . S
C855 C854 1.387 . S
C855 C857 1.365 1_655 S
H856 C863 0.955 . S
C857 C855 1.365 1_455 S
C857 C859 1.408 . S
C857 H861 0.955 . S
H858 C854 0.950 . S
C859 C857 1.408 . S
C859 C860 1.387 . S
C859 H862 0.950 . S
C860 C859 1.387 . S
C860 C863 1.364 1_455 S
H861 C857 0.955 . S
H862 C859 0.950 . S
C863 C854 1.409 . S
C863 H856 0.955 . S
C863 C860 1.364 1_655 S
C864 C865 1.387 . S
C864 H868 0.950 . S
C864 C873 1.390 . S
C865 C864 1.387 . S
C865 C867 1.387 . S
H866 C873 0.950 . S
C867 C865 1.387 . S
C867 C869 1.390 . S
C867 H871 0.950 . S
H868 C864 0.950 . S
C869 C867 1.390 . S
C869 C870 1.387 . S
C869 H872 0.950 . S
C870 C869 1.387 . S
C870 C873 1.387 . S
H871 C867 0.950 . S
H872 C869 0.950 . S
C873 C864 1.390 . S
C873 H866 0.950 . S
C873 C870 1.387 . S
C874 C875 1.387 . S
C874 H878 0.950 . S
C874 C883 1.390 1_545 S
C875 C874 1.387 . S
C875 C877 1.387 . S
H876 C883 0.950 . S
C877 C875 1.387 . S
C877 C879 1.390 1_545 S
C877 H881 0.950 . S
H878 C874 0.950 . S
C879 C877 1.390 1_565 S
C879 C880 1.387 . S
C879 H882 0.950 . S
C880 C879 1.387 . S
C880 C883 1.387 . S
H881 C877 0.950 . S
H882 C879 0.950 . S
C883 C874 1.390 1_565 S
C883 H876 0.950 . S
C883 C880 1.387 . S
C884 C885 1.398 . S
C884 H888 0.960 . S
C884 C893 1.369 1_655 S
C885 C884 1.398 . S
C885 C887 1.387 . S
H886 C893 0.950 . S
C887 C885 1.387 . S
C887 C889 1.390 1_655 S
C887 H891 0.950 . S
H888 C884 0.960 . S
C889 C887 1.390 1_455 S
C889 C890 1.387 . S
C889 H892 0.950 . S
C890 C889 1.387 . S
C890 C893 1.387 . S
H891 C887 0.950 . S
H892 C889 0.950 . S
C893 C884 1.369 1_455 S
C893 H886 0.950 . S
C893 C890 1.387 . S
C894 C895 1.387 . S
C894 H898 0.950 . S
C894 C903 1.390 . S
C895 C894 1.387 . S
C895 C897 1.387 . S
H896 C903 0.950 . S
C897 C895 1.387 . S
C897 C899 1.390 . S
C897 H901 0.950 . S
H898 C894 0.950 . S
C899 C897 1.390 . S
C899 C900 1.387 . S
C899 H902 0.950 . S
C900 C899 1.387 . S
C900 C903 1.387 . S
H901 C897 0.950 . S
H902 C899 0.950 . S
C903 C894 1.390 . S
C903 H896 0.950 . S
C903 C900 1.387 . S
C904 C905 1.387 . S
C904 H908 0.950 . S
C904 C913 1.390 1_545 S
C905 C904 1.387 . S
C905 C907 1.387 . S
H906 C913 0.950 . S
C907 C905 1.387 . S
C907 C909 1.376 1_545 S
C907 H911 0.950 . S
H908 C904 0.950 . S
C909 C907 1.376 1_565 S
C909 C910 1.395 . S
C909 H912 0.956 . S
C910 C909 1.395 . S
C910 C913 1.387 . S
H911 C907 0.950 . S
H912 C909 0.956 . S
C913 C904 1.390 1_565 S
C913 H906 0.950 . S
C913 C910 1.387 . S
C914 C915 1.387 . S
C914 H918 0.950 . S
C914 C923 1.390 1_455 S
C915 C914 1.387 . S
C915 C917 1.387 1_455 S
H916 C923 0.950 . S
C917 C915 1.387 1_655 S
C917 C919 1.390 . S
C917 H921 0.950 1_655 S
H918 C914 0.950 . S
C919 C917 1.390 . S
C919 C920 1.387 . S
C919 H922 0.950 . S
C920 C919 1.387 . S
C920 C923 1.387 . S
H921 C917 0.950 1_455 S
H922 C919 0.950 . S
C923 C914 1.390 1_655 S
C923 H916 0.950 . S
C923 C920 1.387 . S
C924 C925 1.387 . S
C924 H928 0.950 . S
C924 C933 1.390 . S
C925 C924 1.387 . S
C925 C927 1.387 . S
H926 C933 0.950 . S
C927 C925 1.387 . S
C927 C929 1.390 . S
C927 H931 0.950 . S
H928 C924 0.950 . S
C929 C927 1.390 . S
C929 C930 1.387 . S
C929 H932 0.950 . S
C930 C929 1.387 . S
C930 C933 1.387 . S
H931 C927 0.950 . S
H932 C929 0.950 . S
C933 C924 1.390 . S
C933 H926 0.950 . S
C933 C930 1.387 . S
C934 C935 1.397 . S
C934 H938 0.958 . S
C934 C943 1.372 1_565 S
C935 C934 1.397 . S
C935 C937 1.387 . S
H936 C943 0.950 . S
C937 C935 1.387 . S
C937 C939 1.390 1_565 S
C937 H941 0.950 . S
H938 C934 0.958 . S
C939 C937 1.390 1_545 S
C939 C940 1.387 . S
C939 H942 0.950 . S
C940 C939 1.387 . S
C940 C943 1.387 . S
H941 C937 0.950 . S
H942 C939 0.950 . S
C943 C934 1.372 1_545 S
C943 H936 0.950 . S
C943 C940 1.387 . S
C944 C945 1.387 . S
C944 H948 0.950 . S
C944 C953 1.390 1_455 S
C945 C944 1.387 . S
C945 C947 1.387 . S
H946 C953 0.950 . S
C947 C945 1.387 . S
C947 C949 1.390 1_455 S
C947 H951 0.950 . S
H948 C944 0.950 . S
C949 C947 1.390 1_655 S
C949 C950 1.387 . S
C949 H952 0.950 . S
C950 C949 1.387 . S
C950 C953 1.387 . S
H951 C947 0.950 . S
H952 C949 0.950 . S
C953 C944 1.390 1_655 S
C953 H946 0.950 . S
C953 C950 1.387 . S
C954 C955 1.387 . S
C954 H958 0.950 . S
C954 C963 1.390 . S
C955 C954 1.387 . S
C955 C957 1.387 . S
H956 C963 0.950 . S
C957 C955 1.387 . S
C957 C959 1.390 . S
C957 H961 0.950 . S
H958 C954 0.950 . S
C959 C957 1.390 . S
C959 C960 1.387 . S
C959 H962 0.950 . S
C960 C959 1.387 . S
C960 C963 1.387 . S
H961 C957 0.950 . S
H962 C959 0.950 . S
C963 C954 1.390 . S
C963 H956 0.950 . S
C963 C960 1.387 . S
C964 C965 1.392 . S
C964 H968 0.953 . S
C964 C973 1.383 1_545 S
C965 C964 1.392 . S
C965 C967 1.387 . S
H966 C973 0.950 . S
C967 C965 1.387 . S
C967 C969 1.390 1_545 S
C967 H971 0.950 . S
H968 C964 0.953 . S
C969 C967 1.390 1_565 S
C969 C970 1.387 . S
C969 H972 0.950 . S
C970 C969 1.387 . S
C970 C973 1.387 . S
H971 C967 0.950 . S
H972 C969 0.950 . S
C973 C964 1.383 1_565 S
C973 H966 0.950 . S
C973 C970 1.387 . S
C974 C975 1.387 . S
C974 H978 0.950 . S
C974 C983 1.390 1_455 S
C975 C974 1.387 . S
C975 C977 1.387 . S
H976 C983 0.950 . S
C977 C975 1.387 . S
C977 C979 1.390 1_455 S
C977 H981 0.950 . S
H978 C974 0.950 . S
C979 C977 1.390 1_655 S
C979 C980 1.387 . S
C979 H982 0.950 . S
C980 C979 1.387 . S
C980 C983 1.387 . S
H981 C977 0.950 . S
H982 C979 0.950 . S
C983 C974 1.390 1_655 S
C983 H976 0.950 . S
C983 C980 1.387 . S
C984 C985 1.387 . S
C984 H988 0.950 . S
C984 C993 1.390 . S
C985 C984 1.387 . S
C985 C987 1.387 . S
H986 C993 0.950 . S
C987 C985 1.387 . S
C987 C989 1.390 . S
C987 H991 0.950 . S
H988 C984 0.950 . S
C989 C987 1.390 . S
C989 C990 1.387 . S
C989 H992 0.950 . S
C990 C989 1.387 . S
C990 C993 1.387 . S
H991 C987 0.950 . S
H992 C989 0.950 . S
C993 C984 1.390 . S
C993 H986 0.950 . S
C993 C990 1.387 . S
C994 C995 1.387 . S
C994 H998 0.950 . S
C994 C1003 1.390 . S
C995 C994 1.387 . S
C995 C997 1.387 . S
H996 C1003 0.950 . S
C997 C995 1.387 . S
C997 C999 1.390 . S
C997 H1001 0.950 . S
H998 C994 0.950 . S
C999 C997 1.390 . S
C999 C1000 1.387 . S
C999 H1002 0.950 . S
C1000 C999 1.387 . S
C1000 C1003 1.387 . S
H1001 C997 0.950 . S
H1002 C999 0.950 . S
C1003 C994 1.390 . S
C1003 H996 0.950 . S
C1003 C1000 1.387 . S
C1004 C1005 1.387 . S
C1004 H1008 0.950 . S
C1004 C1013 1.390 . S
C1005 C1004 1.387 . S
C1005 C1007 1.387 . S
H1006 C1013 0.950 . S
C1007 C1005 1.387 . S
C1007 C1009 1.390 . S
C1007 H1011 0.950 . S
H1008 C1004 0.950 . S
C1009 C1007 1.390 . S
C1009 C1010 1.387 . S
C1009 H1012 0.950 . S
C1010 C1009 1.387 . S
C1010 C1013 1.387 . S
H1011 C1007 0.950 . S
H1012 C1009 0.950 . S
C1013 C1004 1.390 . S
C1013 H1006 0.950 . S
C1013 C1010 1.387 . S
C1014 C1015 1.387 . S
C1014 H1018 0.950 . S
C1014 C1023 1.390 . S
C1015 C1014 1.387 . S
C1015 C1017 1.387 . S
H1016 C1023 0.950 . S
C1017 C1015 1.387 . S
C1017 C1019 1.390 . S
C1017 H1021 0.950 . S
H1018 C1014 0.950 . S
C1019 C1017 1.390 . S
C1019 C1020 1.387 . S
C1019 H1022 0.950 . S
C1020 C1019 1.387 . S
C1020 C1023 1.387 . S
H1021 C1017 0.950 . S
H1022 C1019 0.950 . S
C1023 C1014 1.390 . S
C1023 H1016 0.950 . S
C1023 C1020 1.387 . S
C1024 C1025 1.387 . S
C1024 H1028 0.950 . S
C1024 C1033 1.390 . S
C1025 C1024 1.387 . S
C1025 C1027 1.387 . S
H1026 C1033 0.950 . S
C1027 C1025 1.387 . S
C1027 C1029 1.390 . S
C1027 H1031 0.950 . S
H1028 C1024 0.950 . S
C1029 C1027 1.390 . S
C1029 C1030 1.387 . S
C1029 H1032 0.950 . S
C1030 C1029 1.387 . S
C1030 C1033 1.387 . S
H1031 C1027 0.950 . S
H1032 C1029 0.950 . S
C1033 C1024 1.390 . S
C1033 H1026 0.950 . S
C1033 C1030 1.387 . S
C1034 C1035 1.387 . S
C1034 H1038 0.950 . S
C1034 C1043 1.390 . S
C1035 C1034 1.387 . S
C1035 C1037 1.387 . S
H1036 C1043 0.950 . S
C1037 C1035 1.387 . S
C1037 C1039 1.390 . S
C1037 H1041 0.950 . S
H1038 C1034 0.950 . S
C1039 C1037 1.390 . S
C1039 C1040 1.387 . S
C1039 H1042 0.950 . S
C1040 C1039 1.387 . S
C1040 C1043 1.387 . S
H1041 C1037 0.950 . S
H1042 C1039 0.950 . S
C1043 C1034 1.390 . S
C1043 H1036 0.950 . S
C1043 C1040 1.387 . S
C1044 C1045 1.387 . S
C1044 H1048 0.950 . S
C1044 C1053 1.390 . S
C1045 C1044 1.387 . S
C1045 C1047 1.387 . S
H1046 C1053 0.950 . S
C1047 C1045 1.387 . S
C1047 C1049 1.390 . S
C1047 H1051 0.950 . S
H1048 C1044 0.950 . S
C1049 C1047 1.390 . S
C1049 C1050 1.387 . S
C1049 H1052 0.950 . S
C1050 C1049 1.387 . S
C1050 C1053 1.387 . S
H1051 C1047 0.950 . S
H1052 C1049 0.950 . S
C1053 C1044 1.390 . S
C1053 H1046 0.950 . S
C1053 C1050 1.387 . S
C1054 C1055 1.387 . S
C1054 H1058 0.950 . S
C1054 C1063 1.390 . S
C1055 C1054 1.387 . S
C1055 C1057 1.387 . S
H1056 C1063 0.950 . S
C1057 C1055 1.387 . S
C1057 C1059 1.390 . S
C1057 H1061 0.950 . S
H1058 C1054 0.950 . S
C1059 C1057 1.390 . S
C1059 C1060 1.387 . S
C1059 H1062 0.950 . S
C1060 C1059 1.387 . S
C1060 C1063 1.387 . S
H1061 C1057 0.950 . S
H1062 C1059 0.950 . S
C1063 C1054 1.390 . S
C1063 H1056 0.950 . S
C1063 C1060 1.387 . S
C1064 C1065 1.387 . S
C1064 H1068 0.950 . S
C1064 C1073 1.390 . S
C1065 C1064 1.387 . S
C1065 C1067 1.387 . S
H1066 C1073 0.950 . S
C1067 C1065 1.387 . S
C1067 C1069 1.390 . S
C1067 H1071 0.950 . S
H1068 C1064 0.950 . S
C1069 C1067 1.390 . S
C1069 C1070 1.387 . S
C1069 H1072 0.950 . S
C1070 C1069 1.387 . S
C1070 C1073 1.387 . S
H1071 C1067 0.950 . S
H1072 C1069 0.950 . S
C1073 C1064 1.390 . S
C1073 H1066 0.950 . S
C1073 C1070 1.387 . S
C1074 C1075 1.387 . S
C1074 H1078 0.950 . S
C1074 C1083 1.390 . S
C1075 C1074 1.387 . S
C1075 C1077 1.387 . S
H1076 C1083 0.950 . S
C1077 C1075 1.387 . S
C1077 C1079 1.390 . S
C1077 H1081 0.950 . S
H1078 C1074 0.950 . S
C1079 C1077 1.390 . S
C1079 C1080 1.387 . S
C1079 H1082 0.950 . S
C1080 C1079 1.387 . S
C1080 C1083 1.387 . S
H1081 C1077 0.950 . S
H1082 C1079 0.950 . S
C1083 C1074 1.390 . S
C1083 H1076 0.950 . S
C1083 C1080 1.387 . S
C1084 C1085 1.387 . S
C1084 H1088 0.950 . S
C1084 C1093 1.390 . S
C1085 C1084 1.387 . S
C1085 C1087 1.387 . S
H1086 C1093 0.950 . S
C1087 C1085 1.387 . S
C1087 C1089 1.390 . S
C1087 H1091 0.950 . S
H1088 C1084 0.950 . S
C1089 C1087 1.390 . S
C1089 C1090 1.387 . S
C1089 H1092 0.950 . S
C1090 C1089 1.387 . S
C1090 C1093 1.387 . S
H1091 C1087 0.950 . S
H1092 C1089 0.950 . S
C1093 C1084 1.390 . S
C1093 H1086 0.950 . S
C1093 C1090 1.387 . S
C1094 C1095 1.387 . S
C1094 H1098 0.950 . S
C1094 C1103 1.390 . S
C1095 C1094 1.387 . S
C1095 C1097 1.387 . S
H1096 C1103 0.950 . S
C1097 C1095 1.387 . S
C1097 C1099 1.390 . S
C1097 H1101 0.950 . S
H1098 C1094 0.950 . S
C1099 C1097 1.390 . S
C1099 C1100 1.387 . S
C1099 H1102 0.950 . S
C1100 C1099 1.387 . S
C1100 C1103 1.387 . S
H1101 C1097 0.950 . S
H1102 C1099 0.950 . S
C1103 C1094 1.390 . S
C1103 H1096 0.950 . S
C1103 C1100 1.387 . S
C1104 C1105 1.387 . S
C1104 H1108 0.950 . S
C1104 C1113 1.390 . S
C1105 C1104 1.387 . S
C1105 C1107 1.387 . S
H1106 C1113 0.950 . S
C1107 C1105 1.387 . S
C1107 C1109 1.390 . S
C1107 H1111 0.950 . S
H1108 C1104 0.950 . S
C1109 C1107 1.390 . S
C1109 C1110 1.387 . S
C1109 H1112 0.950 . S
C1110 C1109 1.387 . S
C1110 C1113 1.387 . S
H1111 C1107 0.950 . S
H1112 C1109 0.950 . S
C1113 C1104 1.390 . S
C1113 H1106 0.950 . S
C1113 C1110 1.387 . S
C1114 C1115 1.387 . S
C1114 H1118 0.950 . S
C1114 C1123 1.390 . S
C1115 C1114 1.387 . S
C1115 C1117 1.387 . S
H1116 C1123 0.950 . S
C1117 C1115 1.387 . S
C1117 C1119 1.390 . S
C1117 H1121 0.950 . S
H1118 C1114 0.950 . S
C1119 C1117 1.390 . S
C1119 C1120 1.387 . S
C1119 H1122 0.950 . S
C1120 C1119 1.387 . S
C1120 C1123 1.387 . S
H1121 C1117 0.950 . S
H1122 C1119 0.950 . S
C1123 C1114 1.390 . S
C1123 H1116 0.950 . S
C1123 C1120 1.387 . S
C1124 C1125 1.387 . S
C1124 H1128 0.950 . S
C1124 C1133 1.390 . S
C1125 C1124 1.387 . S
C1125 C1127 1.387 . S
H1126 C1133 0.950 . S
C1127 C1125 1.387 . S
C1127 C1129 1.390 . S
C1127 H1131 0.950 . S
H1128 C1124 0.950 . S
C1129 C1127 1.390 . S
C1129 C1130 1.387 . S
C1129 H1132 0.950 . S
C1130 C1129 1.387 . S
C1130 C1133 1.387 . S
H1131 C1127 0.950 . S
H1132 C1129 0.950 . S
C1133 C1124 1.390 . S
C1133 H1126 0.950 . S
C1133 C1130 1.387 . S
C1134 C1135 1.387 . S
C1134 H1138 0.950 . S
C1134 C1143 1.390 . S
C1135 C1134 1.387 . S
C1135 C1137 1.387 . S
H1136 C1143 0.950 . S
C1137 C1135 1.387 . S
C1137 C1139 1.390 . S
C1137 H1141 0.950 . S
H1138 C1134 0.950 . S
C1139 C1137 1.390 . S
C1139 C1140 1.387 . S
C1139 H1142 0.950 . S
C1140 C1139 1.387 . S
C1140 C1143 1.387 . S
H1141 C1137 0.950 . S
H1142 C1139 0.950 . S
C1143 C1134 1.390 . S
C1143 H1136 0.950 . S
C1143 C1140 1.387 . S
C1144 C1145 1.387 . S
C1144 H1148 0.950 . S
C1144 C1153 1.390 . S
C1145 C1144 1.387 . S
C1145 C1147 1.387 . S
H1146 C1153 0.950 . S
C1147 C1145 1.387 . S
C1147 C1149 1.390 . S
C1147 H1151 0.950 . S
H1148 C1144 0.950 . S
C1149 C1147 1.390 . S
C1149 C1150 1.387 . S
C1149 H1152 0.950 . S
C1150 C1149 1.387 . S
C1150 C1153 1.387 . S
H1151 C1147 0.950 . S
H1152 C1149 0.950 . S
C1153 C1144 1.390 . S
C1153 H1146 0.950 . S
C1153 C1150 1.387 . S
C1154 C1155 1.387 . S
C1154 H1158 0.950 . S
C1154 C1163 1.390 . S
C1155 C1154 1.387 . S
C1155 C1157 1.387 . S
H1156 C1163 0.950 . S
C1157 C1155 1.387 . S
C1157 C1159 1.390 . S
C1157 H1161 0.950 . S
H1158 C1154 0.950 . S
C1159 C1157 1.390 . S
C1159 C1160 1.387 . S
C1159 H1162 0.950 . S
C1160 C1159 1.387 . S
C1160 C1163 1.387 . S
H1161 C1157 0.950 . S
H1162 C1159 0.950 . S
C1163 C1154 1.390 . S
C1163 H1156 0.950 . S
C1163 C1160 1.387 . S
C1164 C1165 1.387 . S
C1164 H1168 0.950 . S
C1164 C1173 1.390 . S
C1165 C1164 1.387 . S
C1165 C1167 1.387 . S
H1166 C1173 0.950 . S
C1167 C1165 1.387 . S
C1167 C1169 1.390 . S
C1167 H1171 0.950 . S
H1168 C1164 0.950 . S
C1169 C1167 1.390 . S
C1169 C1170 1.387 . S
C1169 H1172 0.950 . S
C1170 C1169 1.387 . S
C1170 C1173 1.387 . S
H1171 C1167 0.950 . S
H1172 C1169 0.950 . S
C1173 C1164 1.390 . S
C1173 H1166 0.950 . S
C1173 C1170 1.387 . S
C1174 C1175 1.387 . S
C1174 H1178 0.950 . S
C1174 C1183 1.390 . S
C1175 C1174 1.387 . S
C1175 C1177 1.387 . S
H1176 C1183 0.950 . S
C1177 C1175 1.387 . S
C1177 C1179 1.390 . S
C1177 H1181 0.950 . S
H1178 C1174 0.950 . S
C1179 C1177 1.390 . S
C1179 C1180 1.387 . S
C1179 H1182 0.950 . S
C1180 C1179 1.387 . S
C1180 C1183 1.387 . S
H1181 C1177 0.950 . S
H1182 C1179 0.950 . S
C1183 C1174 1.390 . S
C1183 H1176 0.950 . S
C1183 C1180 1.387 . S
C1184 C1185 1.387 . S
C1184 H1188 0.950 . S
C1184 C1193 1.390 . S
C1185 C1184 1.387 . S
C1185 C1187 1.387 . S
H1186 C1193 0.950 . S
C1187 C1185 1.387 . S
C1187 C1189 1.390 . S
C1187 H1191 0.950 . S
H1188 C1184 0.950 . S
C1189 C1187 1.390 . S
C1189 C1190 1.387 . S
C1189 H1192 0.950 . S
C1190 C1189 1.387 . S
C1190 C1193 1.387 . S
H1191 C1187 0.950 . S
H1192 C1189 0.950 . S
C1193 C1184 1.390 . S
C1193 H1186 0.950 . S
C1193 C1190 1.387 . S
C1194 C1195 1.387 . S
C1194 H1198 0.950 . S
C1194 C1203 1.390 . S
C1195 C1194 1.387 . S
C1195 C1197 1.387 . S
H1196 C1203 0.950 . S
C1197 C1195 1.387 . S
C1197 C1199 1.390 . S
C1197 H1201 0.950 . S
H1198 C1194 0.950 . S
C1199 C1197 1.390 . S
C1199 C1200 1.387 . S
C1199 H1202 0.950 . S
C1200 C1199 1.387 . S
C1200 C1203 1.387 . S
H1201 C1197 0.950 . S
H1202 C1199 0.950 . S
C1203 C1194 1.390 . S
C1203 H1196 0.950 . S
C1203 C1200 1.387 . S
C1204 C1205 1.387 . S
C1204 H1208 0.950 . S
C1204 C1213 1.390 . S
C1205 C1204 1.387 . S
C1205 C1207 1.387 . S
H1206 C1213 0.950 . S
C1207 C1205 1.387 . S
C1207 C1209 1.390 . S
C1207 H1211 0.950 . S
H1208 C1204 0.950 . S
C1209 C1207 1.390 . S
C1209 C1210 1.387 . S
C1209 H1212 0.950 . S
C1210 C1209 1.387 . S
C1210 C1213 1.387 . S
H1211 C1207 0.950 . S
H1212 C1209 0.950 . S
C1213 C1204 1.390 . S
C1213 H1206 0.950 . S
C1213 C1210 1.387 . S
C1214 C1215 1.387 . S
C1214 H1218 0.950 . S
C1214 C1223 1.390 . S
C1215 C1214 1.387 . S
C1215 C1217 1.387 . S
H1216 C1223 0.950 . S
C1217 C1215 1.387 . S
C1217 C1219 1.390 . S
C1217 H1221 0.950 . S
H1218 C1214 0.950 . S
C1219 C1217 1.390 . S
C1219 C1220 1.387 . S
C1219 H1222 0.950 . S
C1220 C1219 1.387 . S
C1220 C1223 1.387 . S
H1221 C1217 0.950 . S
H1222 C1219 0.950 . S
C1223 C1214 1.390 . S
C1223 H1216 0.950 . S
C1223 C1220 1.387 . S
C505 C7 1.451 . S
C510 C259 1.451 . S
C515 C273 1.453 . S
C520 C21 1.453 . S
C525 C287 1.451 . S
C530 C35 1.451 . S
C535 C49 1.453 . S
C540 C469 1.453 . S
C545 C63 1.451 . S
C550 C483 1.451 . S
C555 C77 1.453 . S
C560 C497 1.453 . S
C565 C343 1.451 . S
C570 C91 1.451 . S
C575 C105 1.451 . S
C580 C357 1.451 . S
C585 C119 1.451 . S
C590 C371 1.451 . S
C595 C217 1.453 . S
C600 C133 1.453 . S
C605 C231 1.453 . S
C610 C147 1.453 . S
C615 C245 1.453 . S
C620 C161 1.453 . S
C625 C427 1.451 . S
C630 C175 1.451 . S
C635 C441 1.451 . S
C640 C189 1.451 . S
C645 C203 1.454 . S
C650 C455 1.454 . S
C655 C385 1.452 . S
C660 C301 1.452 . S
C665 C315 1.451 . S
C670 C399 1.451 . S
C675 C329 1.453 . S
C680 C413 1.453 . S
C685 C6 1.468 . S
C690 C384 1.468 . S
C695 C398 1.470 . S
C700 C20 1.470 . S
C705 C412 1.468 . S
C710 C34 1.469 . S
C715 C174 1.470 . S
C720 C48 1.470 . S
C725 C188 1.470 . S
C730 C62 1.470 . S
C735 C202 1.469 . S
C740 C76 1.468 . S
C745 C90 1.468 . S
C750 C300 1.469 . S
C755 C314 1.470 . S
C760 C104 1.470 . S
C765 C328 1.470 . S
C770 C118 1.470 . S
C775 C132 1.469 . S
C780 C426 1.470 . S
C785 C146 1.470 . S
C790 C440 1.470 . S
C795 C160 1.469 . S
C800 C454 1.469 . S
C805 C216 1.469 . S
C810 C342 1.468 . S
C815 C230 1.470 . S
C820 C356 1.470 . S
C825 C244 1.470 . S
C830 C370 1.470 . S
C835 C258 1.470 . S
C840 C468 1.469 . S
C845 C482 1.468 . S
C850 C272 1.468 . S
C855 C286 1.470 . S
C860 C496 1.469 . S
C865 C22 1.291 . S
C870 C9 1.284 . S
C875 C23 1.283 . S
C880 C36 1.292 . S
C885 C37 1.284 . S
C890 C8 1.291 . S
C895 C51 1.284 . S
C900 C78 1.291 . S
C905 C50 1.292 . S
C910 C65 1.283 . S
C915 C79 1.284 . S
C920 C64 1.293 . S
C925 C93 1.284 . S
C930 C106 1.291 . S
C935 C107 1.283 . S
C940 C120 1.292 . S
C945 C121 1.283 . S
C950 C92 1.292 . S
C955 C162 1.293 . S
C960 C135 1.283 . S
C965 C149 1.283 . S
C970 C134 1.292 . S
C975 C148 1.292 . S
C980 C163 1.282 . S
C985 C190 1.291 . S
C990 C177 1.284 . S
C995 C204 1.291 . S
C1000 C191 1.284 . S
C1005 C176 1.292 . S
C1010 C205 1.283 . S
C1015 C219 1.284 . S
C1020 C246 1.291 . S
C1025 C233 1.284 . S
C1030 C218 1.291 . S
C1035 C247 1.283 . S
C1040 C232 1.293 . S
C1045 C274 1.291 . S
C1050 C261 1.284 . S
C1055 C275 1.284 . S
C1060 C288 1.291 . S
C1065 C289 1.283 . S
C1070 C260 1.292 . S
C1075 C303 1.283 . S
C1080 C330 1.292 . S
C1085 C317 1.284 . S
C1090 C302 1.291 . S
C1095 C316 1.293 . S
C1100 C331 1.283 . S
C1105 C358 1.291 . S
C1110 C345 1.284 . S
C1115 C359 1.284 . S
C1120 C372 1.293 . S
C1125 C344 1.291 . S
C1130 C373 1.284 . S
C1135 C387 1.284 . S
C1140 C414 1.291 . S
C1145 C401 1.284 . S
C1150 C386 1.291 . S
C1155 C415 1.284 . S
C1160 C400 1.291 . S
C1165 C429 1.283 . S
C1170 C442 1.292 . S
C1175 C443 1.283 . S
C1180 C456 1.292 . S
C1185 C457 1.283 . S
C1190 C428 1.292 . S
C1195 C471 1.283 . S
C1200 C498 1.292 . S
C1205 C485 1.283 . S
C1210 C470 1.291 . S
C1215 C484 1.291 . S
C1220 C499 1.284 . S
