# Generated by pormake.
# Topology snp, (6)-cn, num edge types: 1
# Building blocks:
#     Node 0, Type 0, BuildingBlock: KUMBUR_clean_sbu_0, # of connection points: 6
#     Node 1, Type 0, BuildingBlock: KUMBUR_clean_sbu_0, # of connection points: 6
#     Node 2, Type 0, BuildingBlock: KUMBUR_clean_sbu_0, # of connection points: 6
#     Node 3, Type 0, BuildingBlock: KUMBUR_clean_sbu_0, # of connection points: 6
#     Edge 4, Type (0, 0), BuildingBlock: ZUJKAS_clean_linker_0, # of connection points: 2
#     Edge 5, Type (0, 0), BuildingBlock: ZUJKAS_clean_linker_0, # of connection points: 2
#     Edge 6, Type (0, 0), BuildingBlock: ZUJKAS_clean_linker_0, # of connection points: 2
#     Edge 7, Type (0, 0), BuildingBlock: ZUJKAS_clean_linker_0, # of connection points: 2
#     Edge 8, Type (0, 0), BuildingBlock: ZUJKAS_clean_linker_0, # of connection points: 2
#     Edge 9, Type (0, 0), BuildingBlock: ZUJKAS_clean_linker_0, # of connection points: 2
#     Edge 10, Type (0, 0), BuildingBlock: ZUJKAS_clean_linker_0, # of connection points: 2
#     Edge 11, Type (0, 0), BuildingBlock: ZUJKAS_clean_linker_0, # of connection points: 2
#     Edge 12, Type (0, 0), BuildingBlock: ZUJKAS_clean_linker_0, # of connection points: 2
#     Edge 13, Type (0, 0), BuildingBlock: ZUJKAS_clean_linker_0, # of connection points: 2
#     Edge 14, Type (0, 0), BuildingBlock: ZUJKAS_clean_linker_0, # of connection points: 2
#     Edge 15, Type (0, 0), BuildingBlock: ZUJKAS_clean_linker_0, # of connection points: 2
# Relax obj value: 0.223
# Max RMSD: 0.242
# Mean RMSD: 0.222
data_MOF--net-snp--node1-KUMBUR_clean_sbu_0--edge1-ZUJKAS_clean_linker_0
_symmetry_space_group_name_H-M    P1
_symmetry_Int_Tables_number       1
_symmetry_cell_setting            triclinic
loop_
_symmetry_equiv_pos_as_xyz
'x, y, z'
_cell_length_a     31.613401
_cell_length_b     32.977372
_cell_length_c     41.04484
_cell_angle_alpha  114.94896
_cell_angle_beta   100.33299
_cell_angle_gamma 93.221149
loop_
_atom_site_label
_atom_site_type_symbol
_atom_site_fract_x
_atom_site_fract_y
_atom_site_fract_z
_atom_type_partial_charge
Tb0 Tb 0.36974 0.13515 0.21997 0.0
C1 C 0.43404 0.95909 0.20738 0.0
C2 C 0.39544 0.90273 0.14717 0.0
C3 C 0.46703 0.89342 0.17415 0.0
C4 C 0.39814 0.94394 0.17863 0.0
C5 C 0.46874 0.93379 0.20586 0.0
C6 C 0.43042 0.87793 0.14481 0.0
C7 C 0.50299 0.98899 0.26771 0.0
N8 N 0.43447 0.99852 0.2373 0.0
C9 C 0.46772 0.01284 0.26794 0.0
C10 C 0.50374 0.94954 0.23641 0.0
Tb11 Tb 0.37464 0.0349 0.23528 0.0
N12 N 0.36496 0.96864 0.18231 0.0
C13 C 0.32664 0.95211 0.15643 0.0
C14 C 0.35723 0.88715 0.11956 0.0
C15 C 0.32246 0.91173 0.12444 0.0
H16 H 0.46771 0.04299 0.29251 0.0
H17 H 0.29235 0.89954 0.10367 0.0
H18 H 0.4291 0.84633 0.12077 0.0
H19 H 0.52953 1.001 0.29177 0.0
H20 H 0.29929 0.9703 0.1599 0.0
H21 H 0.50873 0.24076 0.33263 0.0
H22 H 0.35384 0.85573 0.0949 0.0
H23 H 0.27018 0.15997 0.19763 0.0
H24 H 0.47511 0.17749 0.27538 0.0
H25 H 0.22595 0.21824 0.22594 0.0
H26 H 0.49349 0.87363 0.1723 0.0
H27 H 0.46613 0.29819 0.3663 0.0
H28 H 0.39544 0.32709 0.3696 0.0
H29 H 0.53107 0.93111 0.23636 0.0
H30 H 0.31862 0.32064 0.34132 0.0
N31 N 0.41038 0.19589 0.27321 0.0
C32 C 0.4542 0.20104 0.28791 0.0
C33 C 0.45027 0.26995 0.34031 0.0
C34 C 0.40614 0.26578 0.32537 0.0
C35 C 0.47437 0.23765 0.32136 0.0
C36 C 0.3868 0.22818 0.29141 0.0
H37 H 0.2556 0.28078 0.28787 0.0
N38 N 0.32504 0.18789 0.2435 0.0
C39 C 0.25865 0.22012 0.24058 0.0
C40 C 0.34302 0.22404 0.27608 0.0
C41 C 0.28414 0.18714 0.22463 0.0
C42 C 0.27546 0.25526 0.27549 0.0
C43 C 0.31829 0.25809 0.29339 0.0
O44 O 0.33222 0.13394 0.17133 0.0
O45 O 0.35439 0.06159 0.19552 0.0
O46 O 0.43535 0.04781 0.22008 0.0
O47 O 0.43677 0.12114 0.22413 0.0
O48 O 0.38729 0.08867 0.16971 0.0
O49 O 0.39263 0.17968 0.20048 0.0
O50 O 0.36936 0.03464 0.28579 0.0
O51 O 0.37077 0.10623 0.25757 0.0
O52 O 0.30663 0.11427 0.22834 0.0
O53 O 0.3066 0.03888 0.21627 0.0
O54 O 0.4103 0.08602 0.29012 0.0
O55 O 0.32882 0.98574 0.23517 0.0
C56 C 0.36822 0.05135 0.16637 0.0
C57 C 0.34081 0.20117 0.16323 0.0
C58 C 0.3149 0.22801 0.11685 0.0
C59 C 0.32875 0.19339 0.12598 0.0
C60 C 0.31156 0.26972 0.1454 0.0
C61 C 0.33815 0.24356 0.19113 0.0
C62 C 0.32289 0.27726 0.18217 0.0
C63 C 0.45499 0.08443 0.22003 0.0
C64 C 0.35931 0.16606 0.17239 0.0
C65 C 0.3373 0.29463 0.32744 0.0
C66 C 0.38106 0.29837 0.34345 0.0
C67 C 0.39472 0.1207 0.2892 0.0
C68 C 0.34541 0.96457 0.28387 0.0
C69 C 0.32171 0.96202 0.30915 0.0
C70 C 0.32692 0.9288 0.32219 0.0
C71 C 0.35681 0.89877 0.30981 0.0
C72 C 0.37454 0.93389 0.27178 0.0
C73 C 0.38029 0.90134 0.28482 0.0
C74 C 0.2866 0.07469 0.22275 0.0
C75 C 0.33954 0.99949 0.27059 0.0
H76 H 0.33201 0.16124 0.10433 0.0
H77 H 0.3006 0.29679 0.13925 0.0
H78 H 0.3485 0.251 0.21987 0.0
H79 H 0.3207 0.30974 0.20388 0.0
H80 H 0.2988 0.98542 0.31813 0.0
H81 H 0.36245 0.87345 0.31974 0.0
H82 H 0.39283 0.93503 0.25228 0.0
H83 H 0.40308 0.87797 0.27553 0.0
Tb84 Tb 0.08358 0.29258 0.57943 0.0
C85 C 0.27461 0.34078 0.66296 0.0
C86 C 0.31524 0.28991 0.62294 0.0
C87 C 0.35046 0.36525 0.668 0.0
C88 C 0.27601 0.29977 0.63435 0.0
C89 C 0.31193 0.37383 0.6806 0.0
C90 C 0.35216 0.32326 0.63927 0.0
C91 C 0.27141 0.4194 0.72387 0.0
N92 N 0.23703 0.34738 0.67466 0.0
C93 C 0.23545 0.38533 0.70573 0.0
C94 C 0.30969 0.41387 0.71101 0.0
Tb95 Tb 0.17941 0.29032 0.64241 0.0
N96 N 0.23975 0.26835 0.61957 0.0
C97 C 0.24169 0.22507 0.59508 0.0
C98 C 0.31667 0.24632 0.59659 0.0
C99 C 0.27988 0.21359 0.583 0.0
H100 H 0.20594 0.39003 0.7158 0.0
H101 H 0.28088 0.17941 0.56324 0.0
H102 H 0.38246 0.31649 0.63058 0.0
H103 H 0.26959 0.44986 0.74781 0.0
H104 H 0.21381 0.19912 0.58419 0.0
H105 H 0.99789 0.3977 0.67999 0.0
H106 H 0.34632 0.23728 0.58739 0.0
H107 H 0.04525 0.20315 0.49974 0.0
H108 H 0.05781 0.38092 0.64797 0.0
H109 H 0.97871 0.14678 0.46883 0.0
H110 H 0.37943 0.39032 0.68098 0.0
H111 H 0.93267 0.34045 0.65929 0.0
H112 H 0.89106 0.2647 0.61246 0.0
H113 H 0.33761 0.44016 0.72527 0.0
H114 H 0.88549 0.19627 0.55439 0.0
N115 N 0.02812 0.31373 0.60979 0.0
C116 C 0.02978 0.3554 0.63832 0.0
C117 C 0.95906 0.33272 0.64509 0.0
C118 C 0.95616 0.29141 0.61428 0.0
C119 C 0.99574 0.36516 0.65674 0.0
C120 C 0.99161 0.28299 0.59703 0.0
H121 H 0.91783 0.15223 0.50021 0.0
N122 N 0.02292 0.23914 0.54866 0.0
C123 C 0.98122 0.17387 0.49606 0.0
C124 C 0.9887 0.24441 0.56499 0.0
C125 C 0.01887 0.20582 0.51367 0.0
C126 C 0.94695 0.17703 0.51386 0.0
C127 C 0.95001 0.21326 0.54843 0.0
O128 O 0.07995 0.29101 0.52707 0.0
O129 O 0.15275 0.29046 0.5903 0.0
O130 O 0.18915 0.35266 0.63596 0.0
O131 O 0.11704 0.36092 0.61854 0.0
O132 O 0.11812 0.25386 0.53716 0.0
O133 O 0.05804 0.3449 0.56921 0.0
O134 O 0.18691 0.29664 0.69658 0.0
O135 O 0.10985 0.28898 0.63037 0.0
O136 O 0.07718 0.22632 0.57735 0.0
O137 O 0.14831 0.22052 0.60258 0.0
O138 O 0.14234 0.32885 0.68271 0.0
O139 O 0.19489 0.23466 0.65236 0.0
C140 C 0.15635 0.2648 0.55816 0.0
C141 C 0.01696 0.31648 0.50715 0.0
C142 C 0.97709 0.2939 0.44334 0.0
C143 C 0.01674 0.30492 0.46975 0.0
C144 C 0.93788 0.29421 0.45517 0.0
C145 C 0.97715 0.31695 0.51788 0.0
C146 C 0.93803 0.30579 0.49203 0.0
C147 C 0.15886 0.37758 0.63233 0.0
C148 C 0.05843 0.32495 0.53421 0.0
C149 C 0.91528 0.22018 0.56633 0.0
C150 C 0.91847 0.25912 0.59938 0.0
C151 C 0.10399 0.31293 0.66205 0.0
C152 C 0.2359 0.25295 0.71253 0.0
C153 C 0.23125 0.24742 0.74409 0.0
C154 C 0.26798 0.2455 0.76848 0.0
C155 C 0.30913 0.24857 0.76041 0.0
C156 C 0.27737 0.25577 0.70526 0.0
C157 C 0.31367 0.25353 0.72904 0.0
C158 C 0.10796 0.20294 0.58283 0.0
C159 C 0.1975 0.25638 0.68775 0.0
H160 H 0.04737 0.30458 0.46136 0.0
H161 H 0.90678 0.28473 0.43579 0.0
H162 H 0.97611 0.32531 0.54618 0.0
H163 H 0.90757 0.30568 0.50056 0.0
H164 H 0.19932 0.2455 0.75 0.0
H165 H 0.33791 0.24672 0.77827 0.0
H166 H 0.28181 0.25958 0.68119 0.0
H167 H 0.34552 0.25569 0.72314 0.0
Tb168 Tb 0.84171 0.0918 0.98235 0.0
C169 C 0.89936 0.91432 0.95485 0.0
C170 C 0.84245 0.86282 0.90306 0.0
C171 C 0.91655 0.84638 0.90753 0.0
C172 C 0.85597 0.9029 0.93635 0.0
C173 C 0.9296 0.88497 0.94143 0.0
C174 C 0.87312 0.83548 0.88828 0.0
C175 C 0.98207 0.93047 0.9982 0.0
N176 N 0.91126 0.95214 0.98739 0.0
C177 C 0.95122 0.95873 1.01024 0.0
C178 C 0.97159 0.89409 0.96323 0.0
Tb179 Tb 0.85745 0.99611 1.00351 0.0
N180 N 0.82687 0.92996 0.95147 0.0
C181 C 0.78326 0.91649 0.93558 0.0
C182 C 0.79834 0.85074 0.88589 0.0
C183 C 0.76862 0.87729 0.90255 0.0
H184 H 0.9603 0.98745 0.0371 0.0
H185 H 0.73423 0.86756 0.88994 0.0
H186 H 0.86331 0.805 0.86254 0.0
H187 H 0.01404 0.93706 1.01579 0.0
H188 H 0.75874 0.93522 0.94735 0.0
H189 H 0.92688 0.23859 0.10512 0.0
H190 H 0.78677 0.82036 0.86029 0.0
H191 H 0.74243 0.07282 0.92978 0.0
H192 H 0.91949 0.16461 0.05178 0.0
H193 H 0.67681 0.10963 0.93194 0.0
H194 H 0.93951 0.82396 0.89651 0.0
H195 H 0.86292 0.27835 0.11547 0.0
H196 H 0.78395 0.28075 0.09301 0.0
H197 H 0.9956 0.87225 0.95392 0.0
H198 H 0.71592 0.24587 0.04554 0.0
N199 N 0.85165 0.16102 0.03249 0.0
C200 C 0.89125 0.18128 0.05584 0.0
C201 C 0.85945 0.24565 0.09203 0.0
C202 C 0.81952 0.22599 0.06687 0.0
C203 C 0.89561 0.22339 0.08622 0.0
C204 C 0.81681 0.18328 0.03697 0.0
H205 H 0.67575 0.18217 0.98513 0.0
N206 N 0.77852 0.12325 0.9819 0.0
C207 C 0.70527 0.12518 0.95434 0.0
C208 C 0.77889 0.16393 1.01048 0.0
C209 C 0.74272 0.10438 0.95325 0.0
C210 C 0.70478 0.16612 0.9844 0.0
C211 C 0.74206 0.1863 1.01281 0.0
O212 O 0.83693 0.0918 0.9303 0.0
O213 O 0.84904 0.02134 0.96296 0.0
O214 O 0.91871 0.01979 0.99407 0.0
O215 O 0.91135 0.09175 0.99831 0.0
O216 O 0.80642 0.03697 0.92906 0.0
O217 O 0.88581 0.13763 0.9767 0.0
O218 O 0.88937 0.99652 0.05351 0.0
O219 O 0.86772 0.06976 0.02414 0.0
O220 O 0.78656 0.0783 1.00362 0.0
O221 O 0.78842 1.00326 0.99367 0.0
O222 O 0.84539 0.04429 0.0558 0.0
O223 O 0.82926 0.95157 0.02073 0.0
C224 C 0.82434 1.0041 0.93144 0.0
C225 C 0.86139 0.16088 0.93017 0.0
C226 C 0.87724 0.20069 0.8938 0.0
C227 C 0.88332 0.16541 0.90444 0.0
C228 C 0.84827 0.23056 0.90888 0.0
C229 C 0.83297 0.19137 0.94474 0.0
C230 C 0.82637 0.22583 0.93402 0.0
C231 C 0.93441 0.05854 0.9949 0.0
C232 C 0.86872 0.12475 0.94202 0.0
C233 C 0.74394 0.22822 0.04308 0.0
C234 C 0.78264 0.24804 0.07012 0.0
C235 C 0.85734 0.0813 0.05483 0.0
C236 C 0.87782 0.92723 0.05805 0.0
C237 C 0.88666 0.93152 0.09451 0.0
C238 C 0.90179 0.8961 0.10215 0.0
C239 C 0.90805 0.85669 0.07259 0.0
C240 C 0.88374 0.88712 0.02933 0.0
C241 C 0.89915 0.85239 0.03665 0.0
C242 C 0.7693 0.04004 1.00247 0.0
C243 C 0.86083 0.96388 0.05006 0.0
H244 H 0.90562 0.14213 0.89334 0.0
H245 H 0.84216 0.2575 0.90095 0.0
H246 H 0.81595 0.18865 0.96446 0.0
H247 H 0.80421 0.2491 0.94534 0.0
H248 H 0.8817 0.96226 0.11677 0.0
H249 H 0.91875 0.82843 0.07702 0.0
H250 H 0.87587 0.88223 1.0011 0.0
H251 H 0.90356 0.82158 1.01422 0.0
Tb252 Tb 0.02298 0.78827 0.55695 0.0
C253 C 0.13044 0.97419 0.64635 0.0
C254 C 0.19387 0.97026 0.62056 0.0
C255 C 0.16618 0.04174 0.6469 0.0
C256 C 0.15966 0.94926 0.62848 0.0
C257 C 0.13403 0.02104 0.65691 0.0
C258 C 0.1961 0.01633 0.62871 0.0
C259 C 0.07777 0.0241 0.69038 0.0
N260 N 0.10071 0.953 0.65614 0.0
C261 C 0.0756 0.97747 0.67919 0.0
C262 C 0.10659 0.04587 0.67862 0.0
Tb263 Tb 0.09924 0.8767 0.63675 0.0
N264 N 0.15696 0.90533 0.62219 0.0
C265 C 0.18984 0.88145 0.61103 0.0
C266 C 0.22592 0.9449 0.60651 0.0
C267 C 0.22431 0.90053 0.60236 0.0
H268 H 0.05293 0.96078 0.68805 0.0
H269 H 0.24955 0.88096 0.59248 0.0
H270 H 0.2218 0.03299 0.62242 0.0
H271 H 0.05711 0.04314 0.70788 0.0
H272 H 0.18893 0.8471 0.60766 0.0
H273 H 0.86263 0.78381 0.58756 0.0
H274 H 0.2528 0.95975 0.6001 0.0
H275 H 0.07071 0.7 0.50798 0.0
H276 H 0.92394 0.81584 0.57327 0.0
H277 H 0.06587 0.61952 0.4928 0.0
H278 H 0.1692 0.07761 0.65433 0.0
H279 H 0.8603 0.7078 0.58555 0.0
H280 H 0.89232 0.63585 0.56862 0.0
H281 H 0.10834 0.08198 0.68741 0.0
H282 H 0.94705 0.59046 0.54161 0.0
N283 N 0.95994 0.7609 0.56647 0.0
C284 C 0.92494 0.78332 0.57309 0.0
C285 C 0.88813 0.7221 0.5798 0.0
C286 C 0.9215 0.69708 0.56885 0.0
C287 C 0.8893 0.76493 0.58089 0.0
C288 C 0.95712 0.7174 0.5618 0.0
H289 H 0.01101 0.58372 0.51228 0.0
N290 N 0.01982 0.71153 0.53755 0.0
C291 C 0.04391 0.63951 0.50816 0.0
C292 C 0.98773 0.69169 0.5464 0.0
C293 C 0.04652 0.68556 0.51701 0.0
C294 C 0.01296 0.61943 0.51925 0.0
C295 C 0.98383 0.64529 0.53797 0.0
O296 O 0.9817 0.75372 0.50396 0.0
O297 O 0.0805 0.83825 0.57724 0.0
O298 O 0.05269 0.9071 0.61033 0.0
O299 O 0.99346 0.84886 0.58149 0.0
O300 O 0.08071 0.77869 0.53337 0.0
O301 O 0.01609 0.81925 0.52069 0.0
O302 O 0.10598 0.89893 0.69387 0.0
O303 O 0.04106 0.82771 0.61574 0.0
O304 O 0.06283 0.75649 0.58601 0.0
O305 O 0.12394 0.81139 0.61958 0.0
O306 O 0.05055 0.87619 0.66841 0.0
O307 O 0.15669 0.86892 0.66731 0.0
C308 C 0.10283 0.81806 0.55422 0.0
C309 C 0.95083 0.79778 0.47488 0.0
C310 C 0.91953 0.82065 0.42675 0.0
C311 C 0.95574 0.81176 0.44739 0.0
C312 C 0.87857 0.81565 0.43481 0.0
C313 C 0.90959 0.79343 0.48211 0.0
C314 C 0.87386 0.80262 0.46237 0.0
C315 C 0.0109 0.89153 0.59384 0.0
C316 C 0.98866 0.78605 0.49452 0.0
C317 C 0.95019 0.62586 0.54738 0.0
C318 C 0.9191 0.65174 0.56285 0.0
C319 C 0.02515 0.84057 0.64406 0.0
C320 C 0.17752 0.92445 0.72963 0.0
C321 C 0.18623 0.92399 0.76437 0.0
C322 C 0.21613 0.95852 0.79463 0.0
C323 C 0.2366 0.99369 0.7894 0.0
C324 C 0.19885 0.95958 0.72521 0.0
C325 C 0.22809 0.99402 0.75496 0.0
C326 C 0.10312 0.76969 0.6062 0.0
C327 C 0.14515 0.88897 0.69865 0.0
H328 H 0.98777 0.81557 0.44218 0.0
H329 H 0.84964 0.82085 0.41933 0.0
H330 H 0.90485 0.78248 0.50277 0.0
H331 H 0.84209 0.7989 0.46804 0.0
H332 H 0.17003 0.89654 0.76764 0.0
H333 H 0.25891 0.02139 0.81207 0.0
H334 H 0.19282 0.96058 0.69888 0.0
H335 H 0.2441 0.02125 0.75136 0.0
H336 H 0.98386 0.14171 0.03225 0.0
H337 H 0.05644 0.15386 0.06959 0.0
H338 H 0.06475 0.01193 1.01147 0.0
H339 H 0.99239 0.99987 0.97323 0.0
H340 H 0.04036 0.09941 0.1059 0.0
H341 H 0.19334 0.07146 0.05634 0.0
H342 H 0.14903 0.09124 0.03537 0.0
H343 H 0.14656 0.03226 0.02464 0.0
C344 C 1.00198 0.1135 0.02599 0.0
C345 C 0.98173 0.06914 1.00207 0.0
C346 C 0.04371 0.12066 0.04719 0.0
C347 C 0.06501 0.08351 0.04406 0.0
C348 C 0.04849 0.04097 1.01455 0.0
H349 H 0.23271 0.99673 0.17517 0.0
H350 H 0.16505 0.9963 0.13604 0.0
C351 C 0.00682 0.0339 0.99323 0.0
C352 C 0.09283 0.08493 0.07728 0.0
H353 H 0.18904 0.05882 0.10906 0.0
C354 C 0.07325 0.09135 0.10698 0.0
C355 C 0.13504 0.07347 0.07798 0.0
C356 C 0.15743 0.06706 0.047 0.0
C357 C 0.09447 0.0851 0.13706 0.0
C358 C 0.13625 0.0725 0.1373 0.0
C359 C 0.15636 0.06744 0.10815 0.0
C360 C 0.16164 0.06702 0.16836 0.0
C361 C 0.07173 0.09069 0.16771 0.0
C362 C 0.1788 0.10555 0.20154 0.0
C363 C 0.21725 0.10564 0.22423 0.0
C364 C 0.23906 0.06787 0.21284 0.0
C365 C 0.21721 0.02683 0.18383 0.0
C366 C 0.17851 0.0265 0.16138 0.0
H367 H 0.03612 0.08961 0.15913 0.0
H368 H 0.07747 0.06394 0.177 0.0
H369 H 0.08493 0.12391 0.1916 0.0
H370 H 0.16593 0.13705 0.20751 0.0
H371 H 0.23274 0.13696 0.2478 0.0
H372 H 0.92685 0.8697 0.55331 0.0
H373 H 0.88611 0.91657 0.53077 0.0
H374 H 0.98913 0.02895 0.59578 0.0
H375 H 0.03031 0.98216 0.61685 0.0
H376 H 0.89859 0.05434 0.58029 0.0
H377 H 0.94421 0.93646 0.45449 0.0
H378 H 0.90488 0.91973 0.47535 0.0
H379 H 0.96227 0.92369 0.4927 0.0
C380 C 0.94022 0.9048 0.56386 0.0
C381 C 0.98226 0.92207 0.58683 0.0
C382 C 0.91647 0.93164 0.55109 0.0
C383 C 0.93439 0.97618 0.56147 0.0
C384 C 0.97416 0.99475 0.58764 0.0
H385 H 0.09508 0.15845 0.62277 0.0
H386 H 0.03166 0.10083 0.60202 0.0
C387 C 0.99811 0.9678 0.59971 0.0
C388 C 0.92043 0.99954 0.53861 0.0
H389 H 0.9896 0.01052 0.48783 0.0
C390 C 0.91628 0.04507 0.55847 0.0
C391 C 0.93906 0.98771 0.50759 0.0
C392 C 0.9373 0.9391 0.48085 0.0
C393 C 0.94505 0.07856 0.55793 0.0
C394 C 0.9754 0.06485 0.53521 0.0
C395 C 0.9684 0.02067 0.50706 0.0
C396 C 0.01843 0.09203 0.54547 0.0
C397 C 0.9465 0.12707 0.58507 0.0
C398 C 0.03553 0.1006 0.51944 0.0
C399 C 0.07309 0.13182 0.53108 0.0
C400 C 0.09293 0.15507 0.56876 0.0
C401 C 0.08015 0.14082 0.59357 0.0
C402 C 0.04298 0.10923 0.58191 0.0
H403 H 0.91302 0.13569 0.58469 0.0
H404 H 0.96062 0.13142 0.61334 0.0
H405 H 0.96618 0.15098 0.57913 0.0
H406 H 0.01807 0.08615 0.49088 0.0
H407 H 0.08298 0.14237 0.51155 0.0
H408 H 0.72378 0.96985 1.00684 0.0
H409 H 0.66894 0.97488 0.04289 0.0
H410 H 0.6734 0.11692 0.07114 0.0
H411 H 0.72765 0.1123 0.03508 0.0
H412 H 0.68358 0.02866 0.11796 0.0
H413 H 0.54353 0.07386 0.04426 0.0
H414 H 0.58778 0.05105 0.02341 0.0
H415 H 0.59355 0.11004 0.05474 0.0
C416 C 0.71234 1.00195 0.01991 0.0
C417 C 0.73023 0.04068 0.01789 0.0
C418 C 0.68111 1.00476 0.04066 0.0
C419 C 0.66692 0.04619 0.05954 0.0
C420 C 0.68323 0.0844 0.05625 0.0
H421 H 0.50771 0.15162 0.21781 0.0
H422 H 0.56311 0.14195 0.18181 0.0
C423 C 0.71439 0.08164 0.03552 0.0
C424 C 0.63801 0.0505 0.08518 0.0
H425 H 0.54218 0.08483 0.10534 0.0
C426 C 0.65245 0.04053 0.11504 0.0
C427 C 0.59756 0.06619 0.08138 0.0
C428 C 0.57944 0.0755 0.04902 0.0
C429 C 0.62797 0.04691 0.14174 0.0
C430 C 0.58787 0.06324 0.13822 0.0
C431 C 0.57321 0.07273 0.10815 0.0
C432 C 0.55989 0.07003 0.16488 0.0
C433 C 0.64566 0.03721 0.17396 0.0
C434 C 0.54082 0.03303 0.16834 0.0
C435 C 0.50916 0.03842 0.18904 0.0
C436 C 0.49569 0.08086 0.20641 0.0
C437 C 0.51706 0.11839 0.20481 0.0
C438 C 0.54867 0.11295 0.1841 0.0
H439 H 0.68112 0.03566 0.17747 0.0
H440 H 0.63964 0.06339 0.19994 0.0
H441 H 0.62896 1.00404 0.1692 0.0
H442 H 0.54856 0.99949 0.15331 0.0
H443 H 0.49331 1.00867 0.18923 0.0
H444 H 0.23859 0.41974 0.63688 0.0
H445 H 0.25587 0.49742 0.64467 0.0
H446 H 0.12545 0.52066 0.6568 0.0
H447 H 0.10797 0.44383 0.64884 0.0
H448 H 0.20785 0.52803 0.59508 0.0
H449 H 0.20142 0.637 0.7392 0.0
H450 H 0.2116 0.5791 0.72384 0.0
H451 H 0.15687 0.59142 0.71667 0.0
C452 C 0.21397 0.44183 0.64201 0.0
C453 C 0.17181 0.42566 0.64197 0.0
C454 C 0.2239 0.48609 0.64645 0.0
C455 C 0.19211 0.5149 0.65181 0.0
C456 C 0.15073 0.4993 0.65345 0.0
H457 H 0.06813 0.68515 0.59236 0.0
H458 H 0.10409 0.6287 0.60524 0.0
C459 C 0.14065 0.45517 0.64853 0.0
C460 C 0.19916 0.55906 0.65084 0.0
H461 H 0.17924 0.66739 0.69479 0.0
C462 C 0.20331 0.55903 0.61735 0.0
C463 C 0.19339 0.59947 0.67995 0.0
C464 C 0.19101 0.60192 0.71708 0.0
C465 C 0.19714 0.59708 0.61096 0.0
C466 C 0.1868 0.63581 0.63876 0.0
C467 C 0.18706 0.63746 0.67348 0.0
C468 C 0.16705 0.67039 0.62986 0.0
C469 C 0.19805 0.59451 0.57355 0.0
C470 C 0.19073 0.71259 0.63951 0.0
C471 C 0.17029 0.74498 0.63145 0.0
C472 C 0.12586 0.73557 0.61395 0.0
C473 C 0.10251 0.69325 0.60481 0.0
C474 C 0.12294 0.66097 0.61245 0.0
H475 H 0.21496 0.56648 0.55777 0.0
H476 H 0.16418 0.58868 0.55755 0.0
H477 H 0.21442 0.62688 0.57635 0.0
H478 H 0.22481 0.72039 0.65324 0.0
H479 H 0.18918 0.77735 0.63909 0.0
H480 H 0.16928 0.18926 0.50327 0.0
H481 H 0.22675 0.17946 0.46925 0.0
H482 H 0.28757 0.31652 0.54185 0.0
H483 H 0.22902 0.32664 0.57578 0.0
H484 H 0.27639 0.29702 0.46818 0.0
H485 H 0.35218 0.16142 0.491 0.0
H486 H 0.2941 0.14741 0.47671 0.0
H487 H 0.31854 0.1951 0.51993 0.0
C488 C 0.19553 0.21693 0.51253 0.0
C489 C 0.19546 0.25823 0.54272 0.0
C490 C 0.22852 0.21124 0.49321 0.0
C491 C 0.26212 0.24688 0.5034 0.0
C492 C 0.26233 0.28833 0.53379 0.0
H493 H 0.44633 0.16299 0.35832 0.0
H494 H 0.4233 0.20617 0.41597 0.0
C495 C 0.22917 0.294 0.55334 0.0
C496 C 0.29401 0.24144 0.47972 0.0
H497 H 0.35904 0.16729 0.43548 0.0
C498 C 0.29531 0.26931 0.46168 0.0
C499 C 0.31918 0.20565 0.47139 0.0
C500 C 0.3213 0.17594 0.49105 0.0
C501 C 0.3184 0.26019 0.43365 0.0
C502 C 0.34048 0.22208 0.42328 0.0
C503 C 0.3419 0.19637 0.44322 0.0
C504 C 0.35734 0.20456 0.38906 0.0
C505 C 0.31802 0.29061 0.41465 0.0
C506 C 0.32821 0.18994 0.35485 0.0
C507 C 0.34117 0.16506 0.32217 0.0
C508 C 0.38376 0.15475 0.32283 0.0
C509 C 0.41352 0.17111 0.35699 0.0
C510 C 0.40041 0.19574 0.38986 0.0
H511 H 0.31191 0.32495 0.43261 0.0
H512 H 0.34933 0.2936 0.40661 0.0
H513 H 0.29162 0.27615 0.38931 0.0
H514 H 0.29451 0.19505 0.35343 0.0
H515 H 0.31693 0.15182 0.29667 0.0
H516 H 0.04973 0.23169 0.63485 0.0
H517 H 0.00481 0.20737 0.66803 0.0
H518 H 0.03779 0.34001 0.75972 0.0
H519 H 0.08304 0.36432 0.72675 0.0
H520 H 0.03954 0.21006 0.74014 0.0
H521 H 0.90356 0.30971 0.74278 0.0
H522 H 0.93677 0.29764 0.70917 0.0
H523 H 0.95669 0.34164 0.75517 0.0
C524 C 0.04656 0.25604 0.66162 0.0
C525 C 0.06969 0.30018 0.67801 0.0
C526 C 0.02104 0.24196 0.68071 0.0
C527 C 0.0177 0.27187 0.71637 0.0
C528 C 0.03935 0.31644 0.7321 0.0
H529 H 0.91663 0.28009 0.89944 0.0
H530 H 0.9496 0.2928 0.8545 0.0
C531 C 0.06519 0.33034 0.71322 0.0
C532 C 0.99451 0.25607 0.73851 0.0
H533 H 0.91263 0.27706 0.78501 0.0
C534 C 0.01142 0.2242 0.74959 0.0
C535 C 0.95792 0.27458 0.75091 0.0
C536 C 0.93731 0.30751 0.7387 0.0
C537 C 0.994 0.21198 0.77408 0.0
C538 C 0.95799 0.23142 0.78731 0.0
C539 C 0.94032 0.26224 0.77519 0.0
C540 C 0.93941 0.2223 0.81512 0.0
C541 C 0.01566 0.17998 0.78684 0.0
C542 C 0.92284 0.17827 0.80841 0.0
C543 C 0.90402 0.17082 0.83438 0.0
C544 C 0.90077 0.20733 0.86739 0.0
C545 C 0.91801 0.25119 0.87416 0.0
C546 C 0.93696 0.25854 0.84843 0.0
H547 H 0.04898 0.17732 0.78177 0.0
H548 H 0.01766 0.19098 0.81671 0.0
H549 H 0.99625 0.14575 0.77143 0.0
H550 H 0.92343 0.1497 0.78271 0.0
H551 H 0.89065 0.1367 0.82804 0.0
H552 H 0.87254 0.87659 0.40485 0.0
H553 H 0.87446 0.89313 0.35272 0.0
H554 H 0.97897 0.81477 0.32818 0.0
H555 H 0.97579 0.79577 0.37924 0.0
H556 H 0.93463 0.93571 0.33499 0.0
H557 H 0.89463 0.75688 0.22978 0.0
H558 H 0.89102 0.77391 0.27698 0.0
H559 H 0.94286 0.76756 0.26451 0.0
C560 C 0.89564 0.86209 0.38823 0.0
C561 C 0.92354 0.83402 0.39641 0.0
C562 C 0.89698 0.87216 0.35847 0.0
C563 C 0.92617 0.85449 0.33577 0.0
C564 C 0.9553 0.82797 0.34457 0.0
H565 H 0.96814 0.86685 0.1357 0.0
H566 H 0.97549 0.86031 0.19348 0.0
C567 C 0.95386 0.81765 0.37432 0.0
C568 C 0.92538 0.86342 0.30275 0.0
H569 H 0.91238 0.81112 0.20892 0.0
C570 C 0.92969 0.9084 0.30744 0.0
C571 C 0.91866 0.82795 0.26658 0.0
C572 C 0.91109 0.77887 0.25899 0.0
C573 C 0.92809 0.91877 0.27724 0.0
C574 C 0.92161 0.88328 0.2412 0.0
C575 C 0.9175 0.83839 0.23652 0.0
C576 C 0.91898 0.89159 0.20781 0.0
C577 C 0.93406 0.96765 0.28419 0.0
C578 C 0.88507 0.91204 0.19661 0.0
C579 C 0.88052 0.91555 0.16321 0.0
C580 C 0.90967 0.89845 0.14012 0.0
C581 C 0.94456 0.87968 0.15229 0.0
C582 C 0.94896 0.87604 0.18549 0.0
H583 H 0.94865 0.99057 0.31363 0.0
H584 H 0.95507 0.97298 0.26695 0.0
H585 H 0.90192 0.97719 0.27672 0.0
H586 H 0.8611 0.92373 0.21301 0.0
H587 H 0.85303 0.92975 0.15468 0.0
H588 H 0.29508 0.9828 0.84343 0.0
H589 H 0.31113 0.98807 0.90559 0.0
H590 H 0.177 0.93883 0.89236 0.0
H591 H 0.16019 0.93446 0.83013 0.0
H592 H 0.27004 0.0415 0.96418 0.0
H593 H 0.2489 0.85856 0.93128 0.0
H594 H 0.25802 0.87839 0.8979 0.0
H595 H 0.20592 0.87847 0.90942 0.0
C596 C 0.26879 0.97325 0.85364 0.0
C597 C 0.22619 0.9585 0.83166 0.0
C598 C 0.27815 0.97602 0.88918 0.0
C599 C 0.24537 0.96358 0.90356 0.0
C600 C 0.20294 0.94799 0.88162 0.0
H601 H 0.28101 0.04216 0.14 0.0
H602 H 0.24459 0.01401 0.07485 0.0
C603 C 0.19343 0.94542 0.84599 0.0
C604 C 0.25575 0.96912 0.94215 0.0
H605 H 0.26912 0.91065 0.99427 0.0
C606 C 0.26942 0.01292 0.97078 0.0
C607 C 0.25508 0.93176 0.95067 0.0
C608 C 0.24147 0.88401 0.92081 0.0
C609 C 0.28318 0.02032 1.00758 0.0
C610 C 0.28305 0.98298 1.01609 0.0
C611 C 0.26878 0.93917 0.98762 0.0
C612 C 0.30095 0.9894 0.05421 0.0
C613 C 0.29916 0.06798 0.03711 0.0
C614 C 0.34403 0.98296 0.06401 0.0
C615 C 0.36488 0.99905 0.10116 0.0
C616 C 0.34273 0.02112 0.12901 0.0
C617 C 0.29848 0.02417 0.11906 0.0
C618 C 0.27776 1.00848 0.08188 0.0
H619 H 0.30252 0.09242 0.02532 0.0
H620 H 0.27592 0.07851 0.05543 0.0
H621 H 0.33117 0.06968 0.05441 0.0
H622 H 0.36254 0.96863 0.04306 0.0
H623 H 0.3992 0.99721 0.10823 0.0
H624 H 0.90429 0.97932 0.92309 0.0
H625 H 0.92522 0.93268 0.86596 0.0
H626 H 0.79233 0.90817 0.80608 0.0
H627 H 0.77078 0.95366 0.864 0.0
H628 H 0.84079 0.83119 0.77843 0.0
H629 H 0.9263 0.9933 0.79617 0.0
H630 H 0.94266 0.98076 0.8347 0.0
H631 H 0.88795 0.99098 0.82321 0.0
C632 C 0.87917 0.96271 0.89813 0.0
C633 C 0.83569 0.96952 0.89821 0.0
C634 C 0.89127 0.93628 0.86533 0.0
C635 C 0.86045 0.91734 0.83165 0.0
C636 C 0.81663 0.9223 0.83176 0.0
H637 H 0.95575 0.88338 0.64081 0.0
H638 H 0.90354 0.89221 0.67922 0.0
C639 C 0.80439 0.9484 0.86478 0.0
C640 C 0.87509 0.8979 0.79638 0.0
H641 H 0.93909 0.92665 0.7486 0.0
C642 C 0.86202 0.85198 0.77162 0.0
C643 C 0.90213 0.92526 0.78723 0.0
C644 C 0.9153 0.97539 0.8115 0.0
C645 C 0.87636 0.83252 0.73838 0.0
C646 C 0.90488 0.85961 0.73003 0.0
C647 C 0.91711 0.90567 0.75466 0.0
C648 C 0.92416 0.84181 0.69689 0.0
C649 C 0.86055 0.78338 0.71245 0.0
C650 C 0.95072 0.80768 0.69125 0.0
C651 C 0.9794 0.80108 0.66759 0.0
C652 C 0.98245 0.82893 0.64975 0.0
C653 C 0.95308 0.8601 0.6529 0.0
C654 C 0.92361 0.86572 0.6755 0.0
H655 H 0.82902 0.77173 0.71639 0.0
H656 H 0.85668 0.77719 0.68322 0.0
H657 H 0.88465 0.76267 0.71816 0.0
H658 H 0.95262 0.78935 0.70787 0.0
H659 H 0.00286 0.77815 0.66689 0.0
H660 H 0.28991 0.85149 0.32192 0.0
H661 H 0.25285 0.84439 0.36704 0.0
H662 H 0.26811 0.98943 0.42689 0.0
H663 H 0.3063 0.9971 0.38216 0.0
H664 H 0.29737 0.90573 0.45875 0.0
H665 H 0.12846 0.91605 0.39753 0.0
H666 H 0.16496 0.89039 0.36799 0.0
H667 H 0.1748 0.95009 0.3968 0.0
C668 C 0.28568 0.88201 0.34473 0.0
C669 C 0.30155 0.92491 0.34848 0.0
C670 C 0.26421 0.87782 0.37037 0.0
C671 C 0.25781 0.91633 0.40027 0.0
C672 C 0.27266 0.95928 0.4039 0.0
H673 H 0.10017 0.90041 0.55252 0.0
H674 H 0.14078 0.9309 0.51997 0.0
C675 C 0.29426 0.96357 0.37818 0.0
C676 C 0.23689 0.91101 0.42815 0.0
H677 H 0.13774 0.89618 0.44693 0.0
C678 C 0.26254 0.90417 0.45651 0.0
C679 C 0.19158 0.90939 0.42531 0.0
C680 C 0.163 0.9169 0.39537 0.0
C681 C 0.24388 0.89443 0.48152 0.0
C682 C 0.19813 0.89035 0.47754 0.0
C683 C 0.17273 0.89909 0.45002 0.0
C684 C 0.17582 0.87394 0.4998 0.0
C685 C 0.27349 0.88844 0.51184 0.0
C686 C 0.18174 0.83178 0.4993 0.0
C687 C 0.15903 0.8147 0.51817 0.0
C688 C 0.12988 0.83933 0.53804 0.0
C689 C 0.12348 0.88135 0.53835 0.0
C690 C 0.14639 0.89858 0.51951 0.0
H691 H 0.30643 0.90783 0.51918 0.0
H692 H 0.26021 0.89948 0.53698 0.0
H693 H 0.27706 0.85218 0.50222 0.0
H694 H 0.20308 0.81137 0.4834 0.0
H695 H 0.1637 0.78174 0.51675 0.0
H696 H 0.21044 0.18617 0.77648 0.0
H697 H 0.20909 0.1762 0.83254 0.0
H698 H 0.31671 0.28418 0.89324 0.0
H699 H 0.31814 0.29433 0.8378 0.0
H700 H 0.28284 0.1578 0.87853 0.0
H701 H 0.22197 0.31754 0.95556 0.0
H702 H 0.21504 0.29202 0.90604 0.0
H703 H 0.26626 0.32426 0.93541 0.0
C704 C 0.2334 0.20811 0.80193 0.0
C705 C 0.26441 0.24105 0.80267 0.0
C706 C 0.23281 0.20217 0.83385 0.0
C707 C 0.26267 0.2296 0.86717 0.0
C708 C 0.29313 0.26285 0.86798 0.0
H709 H 0.3482 0.28439 0.09196 0.0
H710 H 0.33186 0.27916 0.02978 0.0
C711 C 0.29402 0.26848 0.83619 0.0
C712 C 0.26307 0.22363 0.90127 0.0
H713 H 0.25522 0.2813 0.99079 0.0
C714 C 0.27619 0.18442 0.903 0.0
C715 C 0.25422 0.25829 0.9331 0.0
C716 C 0.23819 0.30026 0.93251 0.0
C717 C 0.28319 0.18019 0.93631 0.0
C718 C 0.2762 0.21589 0.96864 0.0
C719 C 0.26105 0.25407 0.96626 0.0
C720 C 0.28736 0.21643 1.00584 0.0
C721 C 0.30008 0.13857 0.93697 0.0
C722 C 0.26816 0.1827 1.01339 0.0
C723 C 0.2778 0.18555 0.04919 0.0
C724 C 0.30638 0.22244 0.07814 0.0
C725 C 0.32579 0.25574 0.07034 0.0
C726 C 0.31647 0.25274 0.03473 0.0
H727 H 0.31309 0.11939 0.91227 0.0
H728 H 0.32612 0.1477 0.96202 0.0
H729 H 0.27315 0.11586 0.9374 0.0
H730 H 0.24489 0.1548 0.99191 0.0
H731 H 0.26186 0.15977 0.05452 0.0
H732 H 0.94416 0.10366 0.08543 0.0
H733 H 0.97739 0.14951 0.15129 0.0
H734 H 0.85249 0.18662 0.17086 0.0
H735 H 0.81923 0.14037 0.10521 0.0
H736 H 0.93544 0.25975 0.2128 0.0
H737 H 0.93953 0.09687 0.22332 0.0
H738 H 0.9615 0.1033 0.18791 0.0
H739 H 0.90414 0.10082 0.18533 0.0
C740 C 0.92427 0.12321 0.10359 0.0
C741 C 0.87932 0.11941 0.09023 0.0
C742 C 0.94315 0.14897 0.14124 0.0
C743 C 0.91734 0.17124 0.16605 0.0
C744 C 0.87303 0.16987 0.15223 0.0
H745 H 0.92062 0.31546 0.39597 0.0
H746 H 0.91194 0.28772 0.32977 0.0
C747 C 0.85409 0.14375 0.11473 0.0
C748 C 0.93497 0.19168 0.20666 0.0
H749 H 0.95909 0.1636 0.27843 0.0
C750 C 0.94108 0.23883 0.22719 0.0
C751 C 0.94274 0.16438 0.22539 0.0
C752 C 0.93658 0.11349 0.2046 0.0
C753 C 0.95406 0.25938 0.26599 0.0
C754 C 0.9595 0.23198 0.28499 0.0
C755 C 0.95484 0.18481 0.2642 0.0
C756 C 0.96695 0.25105 0.32614 0.0
C757 C 0.96211 0.31033 0.28608 0.0
C758 C 1.00016 0.239 0.34669 0.0
C759 C 0.00454 0.25396 0.38486 0.0
C760 C 0.97564 0.28119 0.4034 0.0
C761 C 0.94317 0.29403 0.38281 0.0
C762 C 0.93859 0.27878 0.34478 0.0
H763 H 0.973 0.32524 0.26869 0.0
H764 H 0.93132 0.32285 0.29243 0.0
H765 H 0.98701 0.32259 0.31227 0.0
H766 H 0.02234 0.21735 0.33309 0.0
H767 H 0.02962 0.24286 0.39953 0.0
loop_
_geom_bond_atom_site_label_1
_geom_bond_atom_site_label_2
_geom_bond_distance
_geom_bond_site_symmetry_2
_ccdc_geom_bond_type
Tb0 N31 2.660 . S
Tb0 N38 2.600 . S
Tb0 O44 2.546 . S
Tb0 O45 2.610 1_545 S
Tb0 O47 2.320 . S
Tb0 O48 2.552 . S
Tb0 O49 2.413 . S
Tb0 O51 2.362 . S
Tb0 O52 2.421 . S
Tb0 C64 2.833 . S
C1 C4 1.432 . S
C1 C5 1.414 . S
C1 N8 1.359 . S
C2 C4 1.417 . S
C2 C6 1.432 . S
C2 C14 1.410 . S
C3 C5 1.444 . S
C3 C6 1.317 . S
C3 H26 0.929 . S
C4 C1 1.432 . S
C4 C2 1.417 . S
C4 N12 1.360 . S
C5 C1 1.414 . S
C5 C3 1.444 . S
C5 C10 1.385 . S
C6 C2 1.432 . S
C6 C3 1.317 . S
C6 H18 0.935 . S
C7 C9 1.392 . S
C7 C10 1.370 . S
C7 H19 0.931 . S
N8 C1 1.359 . S
N8 C9 1.327 . S
N8 Tb11 2.600 . S
C9 C7 1.392 . S
C9 N8 1.327 . S
C9 H16 0.930 . S
C10 C5 1.385 . S
C10 C7 1.370 . S
C10 H29 0.930 . S
Tb11 N8 2.600 . S
Tb11 N12 2.660 . S
Tb11 O45 2.362 . S
Tb11 O46 2.421 . S
Tb11 O50 2.546 . S
Tb11 O51 2.610 1_565 S
Tb11 O53 2.320 . S
Tb11 O54 2.552 1_565 S
Tb11 O55 2.413 . S
Tb11 C75 2.833 . S
N12 C4 1.360 . S
N12 Tb11 2.660 . S
N12 C13 1.305 . S
C13 N12 1.305 . S
C13 C15 1.407 . S
C13 H20 0.930 . S
C14 C2 1.410 . S
C14 C15 1.345 . S
C14 H22 0.930 . S
C15 C13 1.407 . S
C15 C14 1.345 . S
C15 H17 0.930 . S
H16 C9 0.930 . S
H17 C15 0.930 . S
H18 C6 0.935 . S
H19 C7 0.931 . S
H20 C13 0.930 . S
H21 C35 0.930 . S
H22 C14 0.930 . S
H23 C41 0.930 . S
H24 C32 0.930 . S
H25 C39 0.931 . S
H26 C3 0.929 . S
H27 C33 0.930 . S
H28 C66 0.930 . S
H29 C10 0.930 . S
H30 C65 0.929 . S
N31 Tb0 2.660 . S
N31 C32 1.305 . S
N31 C36 1.360 . S
C32 H24 0.930 . S
C32 N31 1.305 . S
C32 C35 1.407 . S
C33 H27 0.930 . S
C33 C34 1.410 . S
C33 C35 1.345 . S
C34 C33 1.410 . S
C34 C36 1.417 . S
C34 C66 1.432 . S
C35 H21 0.930 . S
C35 C32 1.407 . S
C35 C33 1.345 . S
C36 N31 1.360 . S
C36 C34 1.417 . S
C36 C40 1.432 . S
H37 C42 0.930 . S
N38 Tb0 2.600 . S
N38 C40 1.359 . S
N38 C41 1.327 . S
C39 H25 0.931 . S
C39 C41 1.392 . S
C39 C42 1.370 . S
C40 C36 1.432 . S
C40 N38 1.359 . S
C40 C43 1.414 . S
C41 H23 0.930 . S
C41 N38 1.327 . S
C41 C39 1.392 . S
C42 H37 0.930 . S
C42 C39 1.370 . S
C42 C43 1.385 . S
C43 C40 1.414 . S
C43 C42 1.385 . S
C43 C65 1.444 . S
O44 Tb0 2.546 . S
O44 C64 1.251 . S
O45 Tb0 2.610 1_565 S
O45 Tb11 2.362 . S
O45 C56 1.283 . S
O46 Tb11 2.421 . S
O46 C63 1.262 1_565 S
O47 Tb0 2.320 . S
O47 C63 1.260 . S
O48 Tb0 2.552 . S
O48 C56 1.243 1_545 S
O49 Tb0 2.413 . S
O49 C64 1.256 . S
O50 Tb11 2.546 . S
O50 C75 1.251 . S
O51 Tb0 2.362 . S
O51 Tb11 2.610 1_545 S
O51 C67 1.283 . S
O52 Tb0 2.421 . S
O52 C74 1.262 . S
O53 Tb11 2.320 . S
O53 C74 1.260 1_565 S
O54 Tb11 2.552 1_545 S
O54 C67 1.243 . S
O55 Tb11 2.413 . S
O55 C75 1.256 . S
C56 O45 1.283 . S
C56 O48 1.243 1_565 S
C57 C59 1.382 . S
C57 C61 1.393 . S
C57 C64 1.500 . S
C58 C59 1.400 . S
C58 C60 1.384 . S
C59 C57 1.382 . S
C59 C58 1.400 . S
C59 H76 0.930 . S
C60 C58 1.384 . S
C60 C62 1.392 . S
C60 H77 0.931 . S
C61 C57 1.393 . S
C61 C62 1.401 . S
C61 H78 0.930 . S
C62 C60 1.392 . S
C62 C61 1.401 . S
C62 H79 0.930 . S
C63 O46 1.262 1_545 S
C63 O47 1.260 . S
C64 Tb0 2.833 . S
C64 O44 1.251 . S
C64 O49 1.256 . S
C64 C57 1.500 . S
C65 H30 0.929 . S
C65 C43 1.444 . S
C65 C66 1.317 . S
C66 H28 0.930 . S
C66 C34 1.432 . S
C66 C65 1.317 . S
C67 O51 1.283 . S
C67 O54 1.243 . S
C68 C69 1.382 . S
C68 C72 1.393 . S
C68 C75 1.500 . S
C69 C68 1.382 . S
C69 C70 1.400 . S
C69 H80 0.930 . S
C70 C69 1.400 . S
C70 C71 1.384 . S
C71 C70 1.384 . S
C71 C73 1.392 . S
C71 H81 0.931 . S
C72 C68 1.393 . S
C72 C73 1.401 . S
C72 H82 0.930 . S
C73 C71 1.392 . S
C73 C72 1.401 . S
C73 H83 0.930 . S
C74 O52 1.262 . S
C74 O53 1.260 1_545 S
C75 Tb11 2.833 . S
C75 O50 1.251 . S
C75 O55 1.256 . S
C75 C68 1.500 . S
H76 C59 0.930 . S
H77 C60 0.931 . S
H78 C61 0.930 . S
H79 C62 0.930 . S
H80 C69 0.930 . S
H81 C71 0.931 . S
H82 C72 0.930 . S
H83 C73 0.930 . S
Tb84 N115 2.660 . S
Tb84 N122 2.600 . S
Tb84 O128 2.546 . S
Tb84 O129 2.610 . S
Tb84 O131 2.320 . S
Tb84 O132 2.552 . S
Tb84 O133 2.413 . S
Tb84 O135 2.362 . S
Tb84 O136 2.421 . S
Tb84 C148 2.833 . S
C85 C88 1.432 . S
C85 C89 1.414 . S
C85 N92 1.359 . S
C86 C88 1.417 . S
C86 C90 1.432 . S
C86 C98 1.410 . S
C87 C89 1.444 . S
C87 C90 1.317 . S
C87 H110 0.929 . S
C88 C85 1.432 . S
C88 C86 1.417 . S
C88 N96 1.360 . S
C89 C85 1.414 . S
C89 C87 1.444 . S
C89 C94 1.385 . S
C90 C86 1.432 . S
C90 C87 1.317 . S
C90 H102 0.930 . S
C91 C93 1.392 . S
C91 C94 1.370 . S
C91 H103 0.931 . S
N92 C85 1.359 . S
N92 C93 1.327 . S
N92 Tb95 2.600 . S
C93 C91 1.392 . S
C93 N92 1.327 . S
C93 H100 0.930 . S
C94 C89 1.385 . S
C94 C91 1.370 . S
C94 H113 0.930 . S
Tb95 N92 2.600 . S
Tb95 N96 2.660 . S
Tb95 O129 2.362 . S
Tb95 O130 2.421 . S
Tb95 O134 2.546 . S
Tb95 O135 2.610 . S
Tb95 O137 2.320 . S
Tb95 O138 2.552 . S
Tb95 O139 2.413 . S
Tb95 C159 2.833 . S
N96 C88 1.360 . S
N96 Tb95 2.660 . S
N96 C97 1.305 . S
C97 N96 1.305 . S
C97 C99 1.407 . S
C97 H104 0.930 . S
C98 C86 1.410 . S
C98 C99 1.345 . S
C98 H106 0.930 . S
C99 C97 1.407 . S
C99 C98 1.345 . S
C99 H101 0.930 . S
H100 C93 0.930 . S
H101 C99 0.930 . S
H102 C90 0.930 . S
H103 C91 0.931 . S
H104 C97 0.930 . S
H105 C119 0.930 . S
H106 C98 0.930 . S
H107 C125 0.930 . S
H108 C116 0.930 . S
H109 C123 0.931 . S
H110 C87 0.929 . S
H111 C117 0.930 . S
H112 C150 0.930 . S
H113 C94 0.930 . S
H114 C149 0.929 . S
N115 Tb84 2.660 . S
N115 C116 1.305 . S
N115 C120 1.360 . S
C116 H108 0.930 . S
C116 N115 1.305 . S
C116 C119 1.407 . S
C117 H111 0.930 . S
C117 C118 1.410 . S
C117 C119 1.345 1_655 S
C118 C117 1.410 . S
C118 C120 1.417 1_655 S
C118 C150 1.432 . S
C119 H105 0.930 . S
C119 C116 1.407 . S
C119 C117 1.345 1_455 S
C120 N115 1.360 . S
C120 C118 1.417 1_455 S
C120 C124 1.432 . S
H121 C126 0.930 . S
N122 Tb84 2.600 . S
N122 C124 1.359 . S
N122 C125 1.327 . S
C123 H109 0.931 . S
C123 C125 1.392 . S
C123 C126 1.370 1_455 S
C124 C120 1.432 . S
C124 N122 1.359 . S
C124 C127 1.414 1_455 S
C125 H107 0.930 . S
C125 N122 1.327 . S
C125 C123 1.392 . S
C126 H121 0.930 . S
C126 C123 1.370 1_655 S
C126 C127 1.385 . S
C127 C124 1.414 1_655 S
C127 C126 1.385 . S
C127 C149 1.444 . S
O128 Tb84 2.546 . S
O128 C148 1.251 . S
O129 Tb84 2.610 . S
O129 Tb95 2.362 . S
O129 C140 1.283 . S
O130 Tb95 2.421 . S
O130 C147 1.262 . S
O131 Tb84 2.320 . S
O131 C147 1.260 . S
O132 Tb84 2.552 . S
O132 C140 1.243 . S
O133 Tb84 2.413 . S
O133 C148 1.256 . S
O134 Tb95 2.546 . S
O134 C159 1.251 . S
O135 Tb84 2.362 . S
O135 Tb95 2.610 . S
O135 C151 1.283 . S
O136 Tb84 2.421 . S
O136 C158 1.262 . S
O137 Tb95 2.320 . S
O137 C158 1.260 . S
O138 Tb95 2.552 . S
O138 C151 1.243 . S
O139 Tb95 2.413 . S
O139 C159 1.256 . S
C140 O129 1.283 . S
C140 O132 1.243 . S
C141 C143 1.382 . S
C141 C145 1.393 . S
C141 C148 1.500 . S
C142 C143 1.400 . S
C142 C144 1.384 . S
C143 C141 1.382 . S
C143 C142 1.400 . S
C143 H160 0.930 . S
C144 C142 1.384 . S
C144 C146 1.387 1_455 S
C144 H161 0.931 1_455 S
C145 C141 1.393 . S
C145 C146 1.395 1_455 S
C145 H162 0.930 . S
C146 C144 1.387 1_655 S
C146 C145 1.395 1_655 S
C146 H163 0.942 . S
C147 O130 1.262 . S
C147 O131 1.260 . S
C148 Tb84 2.833 . S
C148 O128 1.251 . S
C148 O133 1.256 . S
C148 C141 1.500 . S
C149 H114 0.929 . S
C149 C127 1.444 . S
C149 C150 1.317 . S
C150 H112 0.930 . S
C150 C118 1.432 . S
C150 C149 1.317 . S
C151 O135 1.283 . S
C151 O138 1.243 . S
C152 C153 1.382 . S
C152 C156 1.393 . S
C152 C159 1.500 . S
C153 C152 1.382 . S
C153 C154 1.400 . S
C153 H164 0.930 . S
C154 C153 1.400 . S
C154 C155 1.384 . S
C155 C154 1.384 . S
C155 C157 1.392 . S
C155 H165 0.931 . S
C156 C152 1.393 . S
C156 C157 1.401 . S
C156 H166 0.930 . S
C157 C155 1.392 . S
C157 C156 1.401 . S
C157 H167 0.930 . S
C158 O136 1.262 . S
C158 O137 1.260 . S
C159 Tb95 2.833 . S
C159 O134 1.251 . S
C159 O139 1.256 . S
C159 C152 1.500 . S
H160 C143 0.930 . S
H161 C144 0.931 1_655 S
H162 C145 0.930 . S
H163 C146 0.942 . S
H164 C153 0.930 . S
H165 C155 0.931 . S
H166 C156 0.930 . S
H167 C157 0.930 . S
Tb168 N199 2.660 . S
Tb168 N206 2.600 . S
Tb168 O212 2.517 1_554 S
Tb168 O213 2.610 . S
Tb168 O215 2.320 . S
Tb168 O216 2.552 1_554 S
Tb168 O217 2.413 . S
Tb168 O219 2.362 . S
Tb168 O220 2.421 . S
Tb168 C232 2.833 1_554 S
C169 C172 1.432 . S
C169 C173 1.414 . S
C169 N176 1.359 1_556 S
C170 C172 1.417 . S
C170 C174 1.432 . S
C170 C182 1.410 . S
C171 C173 1.444 . S
C171 C174 1.317 . S
C171 H194 0.929 . S
C172 C169 1.432 . S
C172 C170 1.417 . S
C172 N180 1.360 . S
C173 C169 1.414 . S
C173 C171 1.444 . S
C173 C178 1.385 . S
C174 C170 1.432 . S
C174 C171 1.317 . S
C174 H186 0.930 . S
C175 C177 1.392 . S
C175 C178 1.370 1_554 S
C175 H187 0.925 1_655 S
N176 C169 1.359 1_554 S
N176 C177 1.327 . S
N176 Tb179 2.600 1_565 S
C177 C175 1.392 . S
C177 N176 1.327 . S
C177 H184 0.930 . S
C178 C173 1.385 . S
C178 C175 1.370 1_556 S
C178 H197 0.930 . S
Tb179 N176 2.600 1_545 S
Tb179 N180 2.660 1_544 S
Tb179 O213 2.362 . S
Tb179 O214 2.421 . S
Tb179 O218 2.546 . S
Tb179 O219 2.610 . S
Tb179 O221 2.320 . S
Tb179 O222 2.552 . S
Tb179 O223 2.413 . S
Tb179 C243 2.833 1_545 S
N180 C172 1.360 . S
N180 Tb179 2.660 1_566 S
N180 C181 1.305 . S
C181 N180 1.305 . S
C181 C183 1.407 . S
C181 H188 0.930 1_565 S
C182 C170 1.410 . S
C182 C183 1.345 . S
C182 H190 0.930 . S
C183 C181 1.407 . S
C183 C182 1.345 . S
C183 H185 0.930 . S
H184 C177 0.930 . S
H185 C183 0.930 . S
H186 C174 0.930 . S
H187 C175 0.925 1_455 S
H188 C181 0.930 1_545 S
H189 C203 0.930 1_455 S
H190 C182 0.930 . S
H191 C209 0.930 . S
H192 C200 0.930 . S
H193 C207 0.931 . S
H194 C171 0.929 . S
H195 C201 0.930 . S
H196 C234 0.930 . S
H197 C178 0.930 . S
H198 C233 0.929 . S
N199 Tb168 2.660 . S
N199 C200 1.305 . S
N199 C204 1.360 . S
C200 H192 0.930 . S
C200 N199 1.305 . S
C200 C203 1.407 . S
C201 H195 0.930 . S
C201 C202 1.410 . S
C201 C203 1.345 . S
C202 C201 1.410 . S
C202 C204 1.417 . S
C202 C234 1.432 . S
C203 H189 0.930 1_655 S
C203 C200 1.407 . S
C203 C201 1.345 . S
C204 N199 1.360 . S
C204 C202 1.417 . S
C204 C208 1.432 . S
H205 C210 0.930 . S
N206 Tb168 2.600 . S
N206 C208 1.359 . S
N206 C209 1.327 . S
C207 H193 0.931 . S
C207 C209 1.392 . S
C207 C210 1.370 . S
C208 C204 1.432 . S
C208 N206 1.359 . S
C208 C211 1.414 . S
C209 H191 0.930 . S
C209 N206 1.327 . S
C209 C207 1.392 . S
C210 H205 0.930 . S
C210 C207 1.370 . S
C210 C211 1.385 . S
C211 C208 1.414 . S
C211 C210 1.385 . S
C211 C233 1.444 . S
O212 Tb168 2.517 1_556 S
O212 C232 1.266 . S
O213 Tb168 2.610 . S
O213 Tb179 2.362 . S
O213 C224 1.283 1_554 S
O214 Tb179 2.421 . S
O214 C231 1.262 . S
O215 Tb168 2.320 . S
O215 C231 1.260 . S
O216 Tb168 2.552 1_556 S
O216 C224 1.243 . S
O217 Tb168 2.413 . S
O217 C232 1.256 1_554 S
O218 Tb179 2.546 . S
O218 C243 1.251 1_545 S
O219 Tb168 2.362 . S
O219 Tb179 2.610 . S
O219 C235 1.283 . S
O220 Tb168 2.421 . S
O220 C242 1.262 . S
O221 Tb179 2.320 . S
O221 C242 1.260 . S
O222 Tb179 2.552 . S
O222 C235 1.243 . S
O223 Tb179 2.413 . S
O223 C243 1.256 1_545 S
C224 O213 1.283 1_556 S
C224 O216 1.243 . S
C225 C227 1.382 . S
C225 C229 1.393 . S
C225 C232 1.500 . S
C226 C227 1.400 . S
C226 C228 1.384 . S
C227 C225 1.382 . S
C227 C226 1.400 . S
C227 H244 0.930 . S
C228 C226 1.384 . S
C228 C230 1.392 . S
C228 H245 0.931 . S
C229 C225 1.393 . S
C229 C230 1.401 . S
C229 H246 0.930 . S
C230 C228 1.392 . S
C230 C229 1.401 . S
C230 H247 0.930 . S
C231 O214 1.262 . S
C231 O215 1.260 . S
C232 Tb168 2.833 1_556 S
C232 O212 1.266 . S
C232 O217 1.256 1_556 S
C232 C225 1.500 . S
C233 H198 0.929 . S
C233 C211 1.444 . S
C233 C234 1.317 . S
C234 H196 0.930 . S
C234 C202 1.432 . S
C234 C233 1.317 . S
C235 O219 1.283 . S
C235 O222 1.243 . S
C236 C237 1.382 . S
C236 C240 1.393 . S
C236 C243 1.500 . S
C237 C236 1.382 . S
C237 C238 1.400 . S
C237 H248 0.930 . S
C238 C237 1.400 . S
C238 C239 1.384 . S
C239 C238 1.384 . S
C239 C241 1.392 . S
C239 H249 0.931 . S
C240 C236 1.393 . S
C240 C241 1.401 . S
C240 H250 0.930 . S
C241 C239 1.392 . S
C241 C240 1.401 . S
C241 H251 0.930 . S
C242 O220 1.262 . S
C242 O221 1.260 . S
C243 Tb179 2.833 1_565 S
C243 O218 1.251 1_565 S
C243 O223 1.256 1_565 S
C243 C236 1.500 . S
H244 C227 0.930 . S
H245 C228 0.931 . S
H246 C229 0.930 . S
H247 C230 0.930 . S
H248 C237 0.930 . S
H249 C239 0.931 . S
H250 C240 0.930 . S
H251 C241 0.930 . S
Tb252 N283 2.660 . S
Tb252 N290 2.600 . S
Tb252 O296 2.546 . S
Tb252 O297 2.610 1_655 S
Tb252 O299 2.320 . S
Tb252 O300 2.552 1_655 S
Tb252 O301 2.413 . S
Tb252 O303 2.362 . S
Tb252 O304 2.421 . S
Tb252 C316 2.833 . S
C253 C256 1.432 . S
C253 C257 1.414 . S
C253 N260 1.359 . S
C254 C256 1.417 . S
C254 C258 1.432 . S
C254 C266 1.410 . S
C255 C257 1.444 . S
C255 C258 1.317 . S
C255 H278 0.929 . S
C256 C253 1.432 . S
C256 C254 1.417 . S
C256 N264 1.360 . S
C257 C253 1.414 . S
C257 C255 1.444 . S
C257 C262 1.385 . S
C258 C254 1.432 . S
C258 C255 1.317 . S
C258 H270 0.930 . S
C259 C261 1.392 . S
C259 C262 1.370 . S
C259 H271 0.931 . S
N260 C253 1.359 . S
N260 C261 1.327 . S
N260 Tb263 2.600 . S
C261 C259 1.392 . S
C261 N260 1.327 . S
C261 H268 0.930 . S
C262 C257 1.385 . S
C262 C259 1.370 . S
C262 H281 0.930 . S
Tb263 N260 2.600 . S
Tb263 N264 2.660 . S
Tb263 O297 2.362 . S
Tb263 O298 2.421 . S
Tb263 O302 2.546 . S
Tb263 O303 2.610 1_455 S
Tb263 O305 2.320 . S
Tb263 O306 2.552 . S
Tb263 O307 2.413 . S
Tb263 C327 2.833 . S
N264 C256 1.360 . S
N264 Tb263 2.660 . S
N264 C265 1.305 . S
C265 N264 1.305 . S
C265 C267 1.407 . S
C265 H272 0.930 . S
C266 C254 1.410 . S
C266 C267 1.345 . S
C266 H274 0.930 . S
C267 C265 1.407 . S
C267 C266 1.345 . S
C267 H269 0.930 . S
H268 C261 0.930 . S
H269 C267 0.930 . S
H270 C258 0.930 . S
H271 C259 0.931 . S
H272 C265 0.930 . S
H273 C287 0.930 . S
H274 C266 0.930 . S
H275 C293 0.930 . S
H276 C284 0.930 . S
H277 C291 0.931 . S
H278 C255 0.929 . S
H279 C285 0.930 . S
H280 C318 0.930 . S
H281 C262 0.930 . S
H282 C317 0.929 . S
N283 Tb252 2.660 . S
N283 C284 1.305 . S
N283 C288 1.360 . S
C284 H276 0.930 . S
C284 N283 1.305 . S
C284 C287 1.407 . S
C285 H279 0.930 . S
C285 C286 1.410 . S
C285 C287 1.345 . S
C286 C285 1.410 . S
C286 C288 1.417 . S
C286 C318 1.432 . S
C287 H273 0.930 . S
C287 C284 1.407 . S
C287 C285 1.345 . S
C288 N283 1.360 . S
C288 C286 1.417 . S
C288 C292 1.432 . S
H289 C294 0.930 . S
N290 Tb252 2.600 . S
N290 C292 1.359 . S
N290 C293 1.327 . S
C291 H277 0.931 . S
C291 C293 1.392 . S
C291 C294 1.370 . S
C292 C288 1.432 . S
C292 N290 1.359 . S
C292 C295 1.414 . S
C293 H275 0.930 . S
C293 N290 1.327 . S
C293 C291 1.392 . S
C294 H289 0.930 . S
C294 C291 1.370 . S
C294 C295 1.385 . S
C295 C292 1.414 . S
C295 C294 1.385 . S
C295 C317 1.444 . S
O296 Tb252 2.546 . S
O296 C316 1.251 . S
O297 Tb252 2.610 1_455 S
O297 Tb263 2.362 . S
O297 C308 1.283 . S
O298 Tb263 2.421 . S
O298 C315 1.262 . S
O299 Tb252 2.320 . S
O299 C315 1.260 1_655 S
O300 Tb252 2.552 1_455 S
O300 C308 1.243 . S
O301 Tb252 2.413 . S
O301 C316 1.256 . S
O302 Tb263 2.546 . S
O302 C327 1.251 . S
O303 Tb252 2.362 . S
O303 Tb263 2.610 1_655 S
O303 C319 1.283 . S
O304 Tb252 2.421 . S
O304 C326 1.262 1_655 S
O305 Tb263 2.320 . S
O305 C326 1.260 . S
O306 Tb263 2.552 . S
O306 C319 1.243 1_455 S
O307 Tb263 2.413 . S
O307 C327 1.256 . S
C308 O297 1.283 . S
C308 O300 1.243 . S
C309 C311 1.382 . S
C309 C313 1.393 . S
C309 C316 1.500 . S
C310 C311 1.400 . S
C310 C312 1.384 . S
C311 C309 1.382 . S
C311 C310 1.400 . S
C311 H328 0.930 . S
C312 C310 1.384 . S
C312 C314 1.392 . S
C312 H329 0.931 . S
C313 C309 1.393 . S
C313 C314 1.401 . S
C313 H330 0.930 . S
C314 C312 1.392 . S
C314 C313 1.401 . S
C314 H331 0.930 . S
C315 O298 1.262 . S
C315 O299 1.260 1_455 S
C316 Tb252 2.833 . S
C316 O296 1.251 . S
C316 O301 1.256 . S
C316 C309 1.500 . S
C317 H282 0.929 . S
C317 C295 1.444 . S
C317 C318 1.317 . S
C318 H280 0.930 . S
C318 C286 1.432 . S
C318 C317 1.317 . S
C319 O303 1.283 . S
C319 O306 1.243 1_655 S
C320 C321 1.382 . S
C320 C324 1.393 . S
C320 C327 1.500 . S
C321 C320 1.382 . S
C321 C322 1.400 . S
C321 H332 0.930 . S
C322 C321 1.400 . S
C322 C323 1.384 . S
C323 C322 1.384 . S
C323 C325 1.392 . S
C323 H333 0.931 . S
C324 C320 1.393 . S
C324 C325 1.401 . S
C324 H334 0.930 . S
C325 C323 1.392 . S
C325 C324 1.401 . S
C325 H335 0.930 . S
C326 O304 1.262 1_455 S
C326 O305 1.260 . S
C327 Tb263 2.833 . S
C327 O302 1.251 . S
C327 O307 1.256 . S
C327 C320 1.500 . S
H328 C311 0.930 . S
H329 C312 0.931 . S
H330 C313 0.930 . S
H331 C314 0.930 . S
H332 C321 0.930 . S
H333 C323 0.931 . S
H334 C324 0.930 . S
H335 C325 0.930 . S
H336 C344 0.929 . S
H337 C346 0.930 . S
H338 C348 0.930 . S
H339 C351 0.929 1_556 S
H340 C354 0.930 . S
H341 C356 0.960 . S
H342 C356 0.960 . S
H343 C356 0.960 . S
C344 H336 0.929 . S
C344 C345 1.377 . S
C344 C346 1.384 . S
C345 C344 1.377 . S
C345 C351 1.390 . S
C346 H337 0.930 . S
C346 C344 1.384 . S
C346 C347 1.372 1_655 S
C347 C346 1.372 1_455 S
C347 C348 1.400 . S
C347 C352 1.490 . S
C348 H338 0.930 . S
C348 C347 1.400 . S
C348 C351 1.386 1_455 S
H349 C365 0.930 . S
H350 C366 0.931 1_565 S
C351 H339 0.929 1_554 S
C351 C345 1.390 . S
C351 C348 1.386 1_655 S
C352 C347 1.490 . S
C352 C354 1.395 . S
C352 C355 1.403 . S
H353 C359 0.930 . S
C354 H340 0.930 . S
C354 C352 1.395 . S
C354 C357 1.403 . S
C355 C352 1.403 . S
C355 C356 1.524 . S
C355 C359 1.400 . S
C356 H341 0.960 . S
C356 H342 0.960 . S
C356 H343 0.960 . S
C356 C355 1.524 . S
C357 C354 1.403 . S
C357 C358 1.392 . S
C357 C361 1.495 1_545 S
C358 C357 1.392 . S
C358 C359 1.385 . S
C358 C360 1.478 . S
C359 H353 0.930 . S
C359 C355 1.400 . S
C359 C358 1.385 . S
C360 C358 1.478 . S
C360 C362 1.381 . S
C360 C366 1.383 . S
C361 C357 1.495 1_565 S
C361 H367 0.959 . S
C361 H368 0.961 . S
C361 H369 0.960 . S
C362 C360 1.381 . S
C362 C363 1.394 . S
C362 H370 0.930 . S
C363 C362 1.394 . S
C363 C364 1.383 . S
C363 H371 0.929 . S
C364 C363 1.383 . S
C364 C365 1.377 1_545 S
C365 H349 0.930 . S
C365 C364 1.377 1_565 S
C365 C366 1.379 1_565 S
C366 H350 0.931 1_545 S
C366 C360 1.383 . S
C366 C365 1.379 1_545 S
H367 C361 0.959 . S
H368 C361 0.961 . S
H369 C361 0.960 . S
H370 C362 0.930 . S
H371 C363 0.929 . S
H372 C380 0.929 . S
H373 C382 0.930 . S
H374 C384 0.930 . S
H375 C387 0.929 . S
H376 C390 0.930 . S
H377 C392 0.960 . S
H378 C392 0.960 1_565 S
H379 C392 0.952 1_565 S
C380 H372 0.929 . S
C380 C381 1.377 . S
C380 C382 1.384 . S
C381 C380 1.377 . S
C381 C387 1.390 . S
C382 H373 0.930 . S
C382 C380 1.384 . S
C382 C383 1.372 . S
C383 C382 1.372 . S
C383 C384 1.400 . S
C383 C388 1.490 1_565 S
C384 H374 0.930 . S
C384 C383 1.400 . S
C384 C387 1.386 . S
H385 C401 0.930 . S
H386 C402 0.931 . S
C387 H375 0.929 . S
C387 C381 1.390 . S
C387 C384 1.386 . S
C388 C383 1.490 1_545 S
C388 C390 1.395 . S
C388 C391 1.403 . S
H389 C395 0.930 . S
C390 H376 0.930 . S
C390 C388 1.395 . S
C390 C393 1.403 . S
C391 C388 1.403 . S
C391 C392 1.524 . S
C391 C395 1.400 . S
C392 H377 0.960 . S
C392 H378 0.960 1_545 S
C392 H379 0.952 1_545 S
C392 C391 1.524 . S
C393 C390 1.403 . S
C393 C394 1.392 . S
C393 C397 1.495 . S
C394 C393 1.392 . S
C394 C395 1.385 . S
C394 C396 1.478 . S
C395 H389 0.930 . S
C395 C391 1.400 . S
C395 C394 1.385 . S
C396 C394 1.478 . S
C396 C398 1.381 . S
C396 C402 1.383 . S
C397 C393 1.495 . S
C397 H403 0.959 . S
C397 H404 0.961 . S
C397 H405 0.960 . S
C398 C396 1.381 . S
C398 C399 1.394 . S
C398 H406 0.930 . S
C399 C398 1.394 . S
C399 C400 1.383 . S
C399 H407 0.929 . S
C400 C399 1.383 . S
C400 C401 1.377 . S
C401 H385 0.930 . S
C401 C400 1.377 . S
C401 C402 1.379 . S
C402 H386 0.931 . S
C402 C396 1.383 . S
C402 C401 1.379 . S
H403 C397 0.959 . S
H404 C397 0.961 . S
H405 C397 0.960 . S
H406 C398 0.930 . S
H407 C399 0.929 . S
H408 C416 0.929 . S
H409 C418 0.930 . S
H410 C420 0.930 . S
H411 C423 0.929 . S
H412 C426 0.930 . S
H413 C428 0.960 . S
H414 C428 0.960 . S
H415 C428 0.960 . S
C416 H408 0.929 . S
C416 C417 1.377 . S
C416 C418 1.384 . S
C417 C416 1.377 . S
C417 C423 1.390 . S
C418 H409 0.930 . S
C418 C416 1.384 . S
C418 C419 1.372 . S
C419 C418 1.372 . S
C419 C420 1.400 . S
C419 C424 1.490 . S
C420 H410 0.930 . S
C420 C419 1.400 . S
C420 C423 1.386 . S
H421 C437 0.930 . S
H422 C438 0.931 . S
C423 H411 0.929 . S
C423 C417 1.390 . S
C423 C420 1.386 . S
C424 C419 1.490 . S
C424 C426 1.395 . S
C424 C427 1.403 . S
H425 C431 0.930 . S
C426 H412 0.930 . S
C426 C424 1.395 . S
C426 C429 1.403 . S
C427 C424 1.403 . S
C427 C428 1.524 . S
C427 C431 1.400 . S
C428 H413 0.960 . S
C428 H414 0.960 . S
C428 H415 0.960 . S
C428 C427 1.524 . S
C429 C426 1.403 . S
C429 C430 1.392 . S
C429 C433 1.495 1_545 S
C430 C429 1.392 . S
C430 C431 1.385 . S
C430 C432 1.478 . S
C431 H425 0.930 . S
C431 C427 1.400 . S
C431 C430 1.385 . S
C432 C430 1.478 . S
C432 C434 1.381 1_545 S
C432 C438 1.383 . S
C433 C429 1.495 1_565 S
C433 H439 0.959 . S
C433 H440 0.961 . S
C433 H441 0.960 . S
C434 C432 1.381 1_565 S
C434 C435 1.394 . S
C434 H442 0.930 . S
C435 C434 1.394 . S
C435 C436 1.383 1_565 S
C435 H443 0.929 . S
C436 C435 1.383 1_545 S
C436 C437 1.377 . S
C437 H421 0.930 . S
C437 C436 1.377 . S
C437 C438 1.379 . S
C438 H422 0.931 . S
C438 C432 1.383 . S
C438 C437 1.379 . S
H439 C433 0.959 . S
H440 C433 0.961 . S
H441 C433 0.960 . S
H442 C434 0.930 . S
H443 C435 0.929 . S
H444 C452 0.929 . S
H445 C454 0.930 . S
H446 C456 0.930 . S
H447 C459 0.929 . S
H448 C462 0.930 . S
H449 C464 0.960 . S
H450 C464 0.960 . S
H451 C464 0.960 . S
C452 H444 0.929 . S
C452 C453 1.377 . S
C452 C454 1.384 . S
C453 C452 1.377 . S
C453 C459 1.390 . S
C454 H445 0.930 . S
C454 C452 1.384 . S
C454 C455 1.372 . S
C455 C454 1.372 . S
C455 C456 1.400 . S
C455 C460 1.490 . S
C456 H446 0.930 . S
C456 C455 1.400 . S
C456 C459 1.386 . S
H457 C473 0.930 . S
H458 C474 0.931 . S
C459 H447 0.929 . S
C459 C453 1.390 . S
C459 C456 1.386 . S
C460 C455 1.490 . S
C460 C462 1.395 . S
C460 C463 1.403 . S
H461 C467 0.930 . S
C462 H448 0.930 . S
C462 C460 1.395 . S
C462 C465 1.403 . S
C463 C460 1.403 . S
C463 C464 1.524 . S
C463 C467 1.400 . S
C464 H449 0.960 . S
C464 H450 0.960 . S
C464 H451 0.960 . S
C464 C463 1.524 . S
C465 C462 1.403 . S
C465 C466 1.392 . S
C465 C469 1.495 . S
C466 C465 1.392 . S
C466 C467 1.385 . S
C466 C468 1.478 . S
C467 H461 0.930 . S
C467 C463 1.400 . S
C467 C466 1.385 . S
C468 C466 1.478 . S
C468 C470 1.381 . S
C468 C474 1.383 . S
C469 C465 1.495 . S
C469 H475 0.959 . S
C469 H476 0.961 . S
C469 H477 0.960 . S
C470 C468 1.381 . S
C470 C471 1.394 . S
C470 H478 0.930 . S
C471 C470 1.394 . S
C471 C472 1.383 . S
C471 H479 0.929 . S
C472 C471 1.383 . S
C472 C473 1.377 . S
C473 H457 0.930 . S
C473 C472 1.377 . S
C473 C474 1.379 . S
C474 H458 0.931 . S
C474 C468 1.383 . S
C474 C473 1.379 . S
H475 C469 0.959 . S
H476 C469 0.961 . S
H477 C469 0.960 . S
H478 C470 0.930 . S
H479 C471 0.929 . S
H480 C488 0.929 . S
H481 C490 0.930 . S
H482 C492 0.930 . S
H483 C495 0.929 . S
H484 C498 0.930 . S
H485 C500 0.960 . S
H486 C500 0.960 . S
H487 C500 0.960 . S
C488 H480 0.929 . S
C488 C489 1.377 . S
C488 C490 1.384 . S
C489 C488 1.377 . S
C489 C495 1.390 . S
C490 H481 0.930 . S
C490 C488 1.384 . S
C490 C491 1.372 . S
C491 C490 1.372 . S
C491 C492 1.400 . S
C491 C496 1.490 . S
C492 H482 0.930 . S
C492 C491 1.400 . S
C492 C495 1.386 . S
H493 C509 0.930 . S
H494 C510 0.931 . S
C495 H483 0.929 . S
C495 C489 1.390 . S
C495 C492 1.386 . S
C496 C491 1.490 . S
C496 C498 1.395 . S
C496 C499 1.403 . S
H497 C503 0.930 . S
C498 H484 0.930 . S
C498 C496 1.395 . S
C498 C501 1.403 . S
C499 C496 1.403 . S
C499 C500 1.524 . S
C499 C503 1.400 . S
C500 H485 0.960 . S
C500 H486 0.960 . S
C500 H487 0.960 . S
C500 C499 1.524 . S
C501 C498 1.403 . S
C501 C502 1.392 . S
C501 C505 1.495 . S
C502 C501 1.392 . S
C502 C503 1.385 . S
C502 C504 1.478 . S
C503 H497 0.930 . S
C503 C499 1.400 . S
C503 C502 1.385 . S
C504 C502 1.478 . S
C504 C506 1.381 . S
C504 C510 1.383 . S
C505 C501 1.495 . S
C505 H511 0.959 . S
C505 H512 0.961 . S
C505 H513 0.960 . S
C506 C504 1.381 . S
C506 C507 1.394 . S
C506 H514 0.930 . S
C507 C506 1.394 . S
C507 C508 1.383 . S
C507 H515 0.929 . S
C508 C507 1.383 . S
C508 C509 1.377 . S
C509 H493 0.930 . S
C509 C508 1.377 . S
C509 C510 1.379 . S
C510 H494 0.931 . S
C510 C504 1.383 . S
C510 C509 1.379 . S
H511 C505 0.959 . S
H512 C505 0.961 . S
H513 C505 0.960 . S
H514 C506 0.930 . S
H515 C507 0.929 . S
H516 C524 0.929 . S
H517 C526 0.930 . S
H518 C528 0.930 . S
H519 C531 0.929 . S
H520 C534 0.930 . S
H521 C536 0.960 . S
H522 C536 0.960 . S
H523 C536 0.960 . S
C524 H516 0.929 . S
C524 C525 1.377 . S
C524 C526 1.384 . S
C525 C524 1.377 . S
C525 C531 1.390 . S
C526 H517 0.930 . S
C526 C524 1.384 . S
C526 C527 1.372 . S
C527 C526 1.372 . S
C527 C528 1.400 . S
C527 C532 1.490 . S
C528 H518 0.930 . S
C528 C527 1.400 . S
C528 C531 1.386 . S
H529 C545 0.930 . S
H530 C546 0.931 . S
C531 H519 0.929 . S
C531 C525 1.390 . S
C531 C528 1.386 . S
C532 C527 1.490 . S
C532 C534 1.395 . S
C532 C535 1.403 . S
H533 C539 0.930 . S
C534 H520 0.930 . S
C534 C532 1.395 . S
C534 C537 1.403 . S
C535 C532 1.403 . S
C535 C536 1.524 . S
C535 C539 1.400 . S
C536 H521 0.960 . S
C536 H522 0.960 . S
C536 H523 0.960 . S
C536 C535 1.524 . S
C537 C534 1.403 . S
C537 C538 1.392 . S
C537 C541 1.495 . S
C538 C537 1.392 . S
C538 C539 1.385 . S
C538 C540 1.478 1_455 S
C539 H533 0.930 . S
C539 C535 1.400 . S
C539 C538 1.385 . S
C540 C538 1.478 1_655 S
C540 C542 1.381 . S
C540 C546 1.383 1_655 S
C541 C537 1.495 . S
C541 H547 0.959 . S
C541 H548 0.961 . S
C541 H549 0.960 1_455 S
C542 C540 1.381 . S
C542 C543 1.394 . S
C542 H550 0.930 . S
C543 C542 1.394 . S
C543 C544 1.383 . S
C543 H551 0.929 . S
C544 C543 1.383 . S
C544 C545 1.376 1_655 S
C545 H529 0.930 . S
C545 C544 1.376 1_455 S
C545 C546 1.380 . S
C546 H530 0.931 . S
C546 C540 1.383 1_455 S
C546 C545 1.380 . S
H547 C541 0.959 . S
H548 C541 0.961 . S
H549 C541 0.960 1_655 S
H550 C542 0.930 . S
H551 C543 0.929 . S
H552 C560 0.929 . S
H553 C562 0.930 . S
H554 C564 0.930 . S
H555 C567 0.929 . S
H556 C570 0.930 . S
H557 C572 0.960 . S
H558 C572 0.960 . S
H559 C572 0.960 . S
C560 H552 0.929 . S
C560 C561 1.377 . S
C560 C562 1.384 . S
C561 C560 1.377 . S
C561 C567 1.390 . S
C562 H553 0.930 . S
C562 C560 1.384 . S
C562 C563 1.372 . S
C563 C562 1.372 . S
C563 C564 1.400 . S
C563 C568 1.490 . S
C564 H554 0.930 . S
C564 C563 1.400 . S
C564 C567 1.386 . S
H565 C581 0.930 . S
H566 C582 0.931 . S
C567 H555 0.929 . S
C567 C561 1.390 . S
C567 C564 1.386 . S
C568 C563 1.490 . S
C568 C570 1.395 . S
C568 C571 1.403 . S
H569 C575 0.930 . S
C570 H556 0.930 . S
C570 C568 1.395 . S
C570 C573 1.403 . S
C571 C568 1.403 . S
C571 C572 1.524 . S
C571 C575 1.400 . S
C572 H557 0.960 . S
C572 H558 0.960 . S
C572 H559 0.960 . S
C572 C571 1.524 . S
C573 C570 1.403 . S
C573 C574 1.392 . S
C573 C577 1.495 . S
C574 C573 1.392 . S
C574 C575 1.385 . S
C574 C576 1.478 . S
C575 H569 0.930 . S
C575 C571 1.400 . S
C575 C574 1.385 . S
C576 C574 1.478 . S
C576 C578 1.381 . S
C576 C582 1.383 . S
C577 C573 1.495 . S
C577 H583 0.959 1_565 S
C577 H584 0.961 1_565 S
C577 H585 0.960 1_565 S
C578 C576 1.381 . S
C578 C579 1.394 . S
C578 H586 0.930 . S
C579 C578 1.394 . S
C579 C580 1.383 . S
C579 H587 0.929 . S
C580 C579 1.383 . S
C580 C581 1.377 . S
C581 H565 0.930 . S
C581 C580 1.377 . S
C581 C582 1.379 . S
C582 H566 0.931 . S
C582 C576 1.383 . S
C582 C581 1.379 . S
H583 C577 0.959 1_545 S
H584 C577 0.961 1_545 S
H585 C577 0.960 1_545 S
H586 C578 0.930 . S
H587 C579 0.929 . S
H588 C596 0.929 . S
H589 C598 0.930 . S
H590 C600 0.930 . S
H591 C603 0.929 . S
H592 C606 0.930 . S
H593 C608 0.960 . S
H594 C608 0.960 . S
H595 C608 0.960 . S
C596 H588 0.929 . S
C596 C597 1.377 . S
C596 C598 1.384 . S
C597 C596 1.377 . S
C597 C603 1.390 . S
C598 H589 0.930 . S
C598 C596 1.384 . S
C598 C599 1.372 . S
C599 C598 1.372 . S
C599 C600 1.400 . S
C599 C604 1.490 . S
C600 H590 0.930 . S
C600 C599 1.400 . S
C600 C603 1.386 . S
H601 C617 0.930 . S
H602 C618 0.931 1_556 S
C603 H591 0.929 . S
C603 C597 1.390 . S
C603 C600 1.386 . S
C604 C599 1.490 . S
C604 C606 1.395 . S
C604 C607 1.403 . S
H605 C611 0.930 . S
C606 H592 0.930 . S
C606 C604 1.395 . S
C606 C609 1.403 . S
C607 C604 1.403 . S
C607 C608 1.524 . S
C607 C611 1.400 . S
C608 H593 0.960 . S
C608 H594 0.960 . S
C608 H595 0.960 . S
C608 C607 1.524 . S
C609 C606 1.403 . S
C609 C610 1.392 . S
C609 C613 1.495 . S
C610 C609 1.392 . S
C610 C611 1.385 . S
C610 C612 1.478 . S
C611 H605 0.930 . S
C611 C607 1.400 . S
C611 C610 1.385 . S
C612 C610 1.478 . S
C612 C614 1.381 . S
C612 C618 1.383 1_556 S
C613 C609 1.495 . S
C613 H619 0.959 . S
C613 H620 0.961 . S
C613 H621 0.960 . S
C614 C612 1.381 . S
C614 C615 1.394 1_556 S
C614 H622 0.930 . S
C615 C614 1.394 1_554 S
C615 C616 1.383 . S
C615 H623 0.929 . S
C616 C615 1.383 . S
C616 C617 1.377 . S
C617 H601 0.930 . S
C617 C616 1.377 . S
C617 C618 1.379 . S
C618 H602 0.931 1_554 S
C618 C612 1.383 1_554 S
C618 C617 1.379 . S
H619 C613 0.959 . S
H620 C613 0.961 . S
H621 C613 0.960 . S
H622 C614 0.930 . S
H623 C615 0.929 . S
H624 C632 0.929 . S
H625 C634 0.930 . S
H626 C636 0.930 . S
H627 C639 0.929 . S
H628 C642 0.930 . S
H629 C644 0.960 . S
H630 C644 0.960 . S
H631 C644 0.960 . S
C632 H624 0.929 . S
C632 C633 1.377 1_565 S
C632 C634 1.384 . S
C633 C632 1.377 1_545 S
C633 C639 1.390 . S
C634 H625 0.930 . S
C634 C632 1.384 . S
C634 C635 1.372 . S
C635 C634 1.372 . S
C635 C636 1.400 . S
C635 C640 1.490 . S
C636 H626 0.930 . S
C636 C635 1.400 . S
C636 C639 1.386 1_565 S
H637 C653 0.930 . S
H638 C654 0.931 . S
C639 H627 0.929 . S
C639 C633 1.390 . S
C639 C636 1.386 1_545 S
C640 C635 1.490 . S
C640 C642 1.395 . S
C640 C643 1.403 . S
H641 C647 0.930 . S
C642 H628 0.930 . S
C642 C640 1.395 . S
C642 C645 1.403 . S
C643 C640 1.403 . S
C643 C644 1.524 1_565 S
C643 C647 1.400 . S
C644 H629 0.960 . S
C644 H630 0.960 . S
C644 H631 0.960 . S
C644 C643 1.524 1_545 S
C645 C642 1.403 . S
C645 C646 1.392 . S
C645 C649 1.495 . S
C646 C645 1.392 . S
C646 C647 1.385 . S
C646 C648 1.478 . S
C647 H641 0.930 . S
C647 C643 1.400 . S
C647 C646 1.385 . S
C648 C646 1.478 . S
C648 C650 1.381 . S
C648 C654 1.383 . S
C649 C645 1.495 . S
C649 H655 0.959 . S
C649 H656 0.961 . S
C649 H657 0.960 . S
C650 C648 1.381 . S
C650 C651 1.394 . S
C650 H658 0.930 . S
C651 C650 1.394 . S
C651 C652 1.383 . S
C651 H659 0.929 1_655 S
C652 C651 1.383 . S
C652 C653 1.377 . S
C653 H637 0.930 . S
C653 C652 1.377 . S
C653 C654 1.379 . S
C654 H638 0.931 . S
C654 C648 1.383 . S
C654 C653 1.379 . S
H655 C649 0.959 . S
H656 C649 0.961 . S
H657 C649 0.960 . S
H658 C650 0.930 . S
H659 C651 0.929 1_455 S
H660 C668 0.929 . S
H661 C670 0.930 . S
H662 C672 0.930 . S
H663 C675 0.929 . S
H664 C678 0.930 . S
H665 C680 0.960 . S
H666 C680 0.960 . S
H667 C680 0.960 . S
C668 H660 0.929 . S
C668 C669 1.377 . S
C668 C670 1.384 . S
C669 C668 1.377 . S
C669 C675 1.390 . S
C670 H661 0.930 . S
C670 C668 1.384 . S
C670 C671 1.372 . S
C671 C670 1.372 . S
C671 C672 1.400 . S
C671 C676 1.490 . S
C672 H662 0.930 . S
C672 C671 1.400 . S
C672 C675 1.386 . S
H673 C689 0.930 . S
H674 C690 0.931 . S
C675 H663 0.929 . S
C675 C669 1.390 . S
C675 C672 1.386 . S
C676 C671 1.490 . S
C676 C678 1.395 . S
C676 C679 1.403 . S
H677 C683 0.930 . S
C678 H664 0.930 . S
C678 C676 1.395 . S
C678 C681 1.403 . S
C679 C676 1.403 . S
C679 C680 1.524 . S
C679 C683 1.400 . S
C680 H665 0.960 . S
C680 H666 0.960 . S
C680 H667 0.960 . S
C680 C679 1.524 . S
C681 C678 1.403 . S
C681 C682 1.392 . S
C681 C685 1.495 . S
C682 C681 1.392 . S
C682 C683 1.385 . S
C682 C684 1.478 . S
C683 H677 0.930 . S
C683 C679 1.400 . S
C683 C682 1.385 . S
C684 C682 1.478 . S
C684 C686 1.381 . S
C684 C690 1.383 . S
C685 C681 1.495 . S
C685 H691 0.959 . S
C685 H692 0.961 . S
C685 H693 0.960 . S
C686 C684 1.381 . S
C686 C687 1.394 . S
C686 H694 0.930 . S
C687 C686 1.394 . S
C687 C688 1.383 . S
C687 H695 0.929 . S
C688 C687 1.383 . S
C688 C689 1.377 . S
C689 H673 0.930 . S
C689 C688 1.377 . S
C689 C690 1.379 . S
C690 H674 0.931 . S
C690 C684 1.383 . S
C690 C689 1.379 . S
H691 C685 0.959 . S
H692 C685 0.961 . S
H693 C685 0.960 . S
H694 C686 0.930 . S
H695 C687 0.929 . S
H696 C704 0.929 . S
H697 C706 0.930 . S
H698 C708 0.930 . S
H699 C711 0.929 . S
H700 C714 0.930 . S
H701 C716 0.960 . S
H702 C716 0.960 . S
H703 C716 0.960 . S
C704 H696 0.929 . S
C704 C705 1.377 . S
C704 C706 1.384 . S
C705 C704 1.377 . S
C705 C711 1.390 . S
C706 H697 0.930 . S
C706 C704 1.384 . S
C706 C707 1.372 . S
C707 C706 1.372 . S
C707 C708 1.400 . S
C707 C712 1.490 . S
C708 H698 0.930 . S
C708 C707 1.400 . S
C708 C711 1.386 . S
H709 C725 0.930 . S
H710 C726 0.931 . S
C711 H699 0.929 . S
C711 C705 1.390 . S
C711 C708 1.386 . S
C712 C707 1.490 . S
C712 C714 1.395 . S
C712 C715 1.403 . S
H713 C719 0.930 . S
C714 H700 0.930 . S
C714 C712 1.395 . S
C714 C717 1.403 . S
C715 C712 1.403 . S
C715 C716 1.524 . S
C715 C719 1.400 . S
C716 H701 0.960 . S
C716 H702 0.960 . S
C716 H703 0.960 . S
C716 C715 1.524 . S
C717 C714 1.403 . S
C717 C718 1.392 . S
C717 C721 1.495 . S
C718 C717 1.392 . S
C718 C719 1.385 . S
C718 C720 1.478 . S
C719 H713 0.930 . S
C719 C715 1.400 . S
C719 C718 1.385 . S
C720 C718 1.478 . S
C720 C722 1.381 . S
C720 C726 1.383 . S
C721 C717 1.495 . S
C721 H727 0.959 . S
C721 H728 0.961 . S
C721 H729 0.960 . S
C722 C720 1.381 . S
C722 C723 1.394 . S
C722 H730 0.930 . S
C723 C722 1.394 . S
C723 C724 1.383 1_556 S
C723 H731 0.929 . S
C724 C723 1.383 1_554 S
C724 C725 1.377 . S
C725 H709 0.930 . S
C725 C724 1.377 . S
C725 C726 1.379 1_554 S
C726 H710 0.931 . S
C726 C720 1.383 . S
C726 C725 1.379 1_556 S
H727 C721 0.959 . S
H728 C721 0.961 . S
H729 C721 0.960 . S
H730 C722 0.930 . S
H731 C723 0.929 . S
H732 C740 0.929 . S
H733 C742 0.930 . S
H734 C744 0.930 . S
H735 C747 0.929 . S
H736 C750 0.930 1_455 S
H737 C752 0.960 . S
H738 C752 0.960 . S
H739 C752 0.960 . S
C740 H732 0.929 . S
C740 C741 1.377 . S
C740 C742 1.384 . S
C741 C740 1.377 . S
C741 C747 1.390 . S
C742 H733 0.930 . S
C742 C740 1.384 . S
C742 C743 1.372 . S
C743 C742 1.372 . S
C743 C744 1.400 . S
C743 C748 1.490 . S
C744 H734 0.930 . S
C744 C743 1.400 . S
C744 C747 1.386 . S
H745 C761 0.923 1_655 S
H746 C762 0.931 . S
C747 H735 0.929 . S
C747 C741 1.390 . S
C747 C744 1.386 . S
C748 C743 1.490 . S
C748 C750 1.395 . S
C748 C751 1.403 . S
H749 C755 0.930 . S
C750 H736 0.930 1_655 S
C750 C748 1.395 . S
C750 C753 1.403 1_655 S
C751 C748 1.403 . S
C751 C752 1.524 . S
C751 C755 1.400 . S
C752 H737 0.960 . S
C752 H738 0.960 . S
C752 H739 0.960 . S
C752 C751 1.524 . S
C753 C750 1.403 1_455 S
C753 C754 1.392 1_455 S
C753 C757 1.495 . S
C754 C753 1.392 1_655 S
C754 C755 1.385 . S
C754 C756 1.478 1_655 S
C755 H749 0.930 . S
C755 C751 1.400 . S
C755 C754 1.385 . S
C756 C754 1.478 1_455 S
C756 C758 1.381 . S
C756 C762 1.383 1_455 S
C757 C753 1.495 . S
C757 H763 0.959 . S
C757 H764 0.961 . S
C757 H765 0.960 . S
C758 C756 1.381 . S
C758 C759 1.394 . S
C758 H766 0.930 . S
C759 C758 1.394 . S
C759 C760 1.383 . S
C759 H767 0.929 . S
C760 C759 1.383 . S
C760 C761 1.377 . S
C761 H745 0.923 1_455 S
C761 C760 1.377 . S
C761 C762 1.379 1_455 S
C762 H746 0.931 . S
C762 C756 1.383 1_655 S
C762 C761 1.379 1_655 S
H763 C757 0.959 . S
H764 C757 0.961 . S
H765 C757 0.960 . S
H766 C758 0.930 . S
H767 C759 0.929 . S
C345 C231 0.971 . S
C364 C74 1.028 . S
C381 C315 0.485 . S
C400 C158 0.443 . S
C417 C242 1.138 . S
C436 C63 1.151 . S
C453 C147 1.204 . S
C472 C326 1.191 . S
C489 C140 1.931 . S
C508 C67 2.064 . S
C525 C151 2.245 . S
C544 C226 2.261 . S
C561 C310 1.047 . S
C580 C238 0.930 . S
C597 C322 0.756 . S
C616 C56 0.699 . S
C633 C224 2.067 . S
C652 C319 1.946 . S
C669 C70 2.249 . S
C688 C308 2.257 . S
C705 C154 1.062 . S
C724 C58 0.981 . S
C741 C235 0.704 . S
C760 C142 0.821 . S
