# Generated by pormake.
# Topology cbo, (4)-cn, num edge types: 1
# Building blocks:
#     Node 0, Type 0, BuildingBlock: GALJAG_clean_sbu_0, # of connection points: 4
#     Node 1, Type 0, BuildingBlock: GALJAG_clean_sbu_0, # of connection points: 4
#     Node 2, Type 0, BuildingBlock: GALJAG_clean_sbu_0, # of connection points: 4
#     Node 3, Type 0, BuildingBlock: GALJAG_clean_sbu_0, # of connection points: 4
#     Node 4, Type 0, BuildingBlock: GALJAG_clean_sbu_0, # of connection points: 4
#     Node 5, Type 0, BuildingBlock: GALJAG_clean_sbu_0, # of connection points: 4
#     Node 6, Type 0, BuildingBlock: GALJAG_clean_sbu_0, # of connection points: 4
#     Node 7, Type 0, BuildingBlock: GALJAG_clean_sbu_0, # of connection points: 4
#     Node 8, Type 0, BuildingBlock: GALJAG_clean_sbu_0, # of connection points: 4
#     Node 9, Type 0, BuildingBlock: GALJAG_clean_sbu_0, # of connection points: 4
#     Node 10, Type 0, BuildingBlock: GALJAG_clean_sbu_0, # of connection points: 4
#     Node 11, Type 0, BuildingBlock: GALJAG_clean_sbu_0, # of connection points: 4
#     Node 12, Type 0, BuildingBlock: GALJAG_clean_sbu_0, # of connection points: 4
#     Node 13, Type 0, BuildingBlock: GALJAG_clean_sbu_0, # of connection points: 4
#     Node 14, Type 0, BuildingBlock: GALJAG_clean_sbu_0, # of connection points: 4
#     Node 15, Type 0, BuildingBlock: GALJAG_clean_sbu_0, # of connection points: 4
#     Node 16, Type 0, BuildingBlock: GALJAG_clean_sbu_0, # of connection points: 4
#     Node 17, Type 0, BuildingBlock: GALJAG_clean_sbu_0, # of connection points: 4
#     Node 18, Type 0, BuildingBlock: GALJAG_clean_sbu_0, # of connection points: 4
#     Node 19, Type 0, BuildingBlock: GALJAG_clean_sbu_0, # of connection points: 4
#     Node 20, Type 0, BuildingBlock: GALJAG_clean_sbu_0, # of connection points: 4
#     Node 21, Type 0, BuildingBlock: GALJAG_clean_sbu_0, # of connection points: 4
#     Node 22, Type 0, BuildingBlock: GALJAG_clean_sbu_0, # of connection points: 4
#     Node 23, Type 0, BuildingBlock: GALJAG_clean_sbu_0, # of connection points: 4
#     Edge 24, Type (0, 0), BuildingBlock: TEMPAE_clean_linker_10, # of connection points: 2
#     Edge 25, Type (0, 0), BuildingBlock: TEMPAE_clean_linker_10, # of connection points: 2
#     Edge 26, Type (0, 0), BuildingBlock: TEMPAE_clean_linker_10, # of connection points: 2
#     Edge 27, Type (0, 0), BuildingBlock: TEMPAE_clean_linker_10, # of connection points: 2
#     Edge 28, Type (0, 0), BuildingBlock: TEMPAE_clean_linker_10, # of connection points: 2
#     Edge 29, Type (0, 0), BuildingBlock: TEMPAE_clean_linker_10, # of connection points: 2
#     Edge 30, Type (0, 0), BuildingBlock: TEMPAE_clean_linker_10, # of connection points: 2
#     Edge 31, Type (0, 0), BuildingBlock: TEMPAE_clean_linker_10, # of connection points: 2
#     Edge 32, Type (0, 0), BuildingBlock: TEMPAE_clean_linker_10, # of connection points: 2
#     Edge 33, Type (0, 0), BuildingBlock: TEMPAE_clean_linker_10, # of connection points: 2
#     Edge 34, Type (0, 0), BuildingBlock: TEMPAE_clean_linker_10, # of connection points: 2
#     Edge 35, Type (0, 0), BuildingBlock: TEMPAE_clean_linker_10, # of connection points: 2
#     Edge 36, Type (0, 0), BuildingBlock: TEMPAE_clean_linker_10, # of connection points: 2
#     Edge 37, Type (0, 0), BuildingBlock: TEMPAE_clean_linker_10, # of connection points: 2
#     Edge 38, Type (0, 0), BuildingBlock: TEMPAE_clean_linker_10, # of connection points: 2
#     Edge 39, Type (0, 0), BuildingBlock: TEMPAE_clean_linker_10, # of connection points: 2
#     Edge 40, Type (0, 0), BuildingBlock: TEMPAE_clean_linker_10, # of connection points: 2
#     Edge 41, Type (0, 0), BuildingBlock: TEMPAE_clean_linker_10, # of connection points: 2
#     Edge 42, Type (0, 0), BuildingBlock: TEMPAE_clean_linker_10, # of connection points: 2
#     Edge 43, Type (0, 0), BuildingBlock: TEMPAE_clean_linker_10, # of connection points: 2
#     Edge 44, Type (0, 0), BuildingBlock: TEMPAE_clean_linker_10, # of connection points: 2
#     Edge 45, Type (0, 0), BuildingBlock: TEMPAE_clean_linker_10, # of connection points: 2
#     Edge 46, Type (0, 0), BuildingBlock: TEMPAE_clean_linker_10, # of connection points: 2
#     Edge 47, Type (0, 0), BuildingBlock: TEMPAE_clean_linker_10, # of connection points: 2
#     Edge 48, Type (0, 0), BuildingBlock: TEMPAE_clean_linker_10, # of connection points: 2
#     Edge 49, Type (0, 0), BuildingBlock: TEMPAE_clean_linker_10, # of connection points: 2
#     Edge 50, Type (0, 0), BuildingBlock: TEMPAE_clean_linker_10, # of connection points: 2
#     Edge 51, Type (0, 0), BuildingBlock: TEMPAE_clean_linker_10, # of connection points: 2
#     Edge 52, Type (0, 0), BuildingBlock: TEMPAE_clean_linker_10, # of connection points: 2
#     Edge 53, Type (0, 0), BuildingBlock: TEMPAE_clean_linker_10, # of connection points: 2
#     Edge 54, Type (0, 0), BuildingBlock: TEMPAE_clean_linker_10, # of connection points: 2
#     Edge 55, Type (0, 0), BuildingBlock: TEMPAE_clean_linker_10, # of connection points: 2
#     Edge 56, Type (0, 0), BuildingBlock: TEMPAE_clean_linker_10, # of connection points: 2
#     Edge 57, Type (0, 0), BuildingBlock: TEMPAE_clean_linker_10, # of connection points: 2
#     Edge 58, Type (0, 0), BuildingBlock: TEMPAE_clean_linker_10, # of connection points: 2
#     Edge 59, Type (0, 0), BuildingBlock: TEMPAE_clean_linker_10, # of connection points: 2
#     Edge 60, Type (0, 0), BuildingBlock: TEMPAE_clean_linker_10, # of connection points: 2
#     Edge 61, Type (0, 0), BuildingBlock: TEMPAE_clean_linker_10, # of connection points: 2
#     Edge 62, Type (0, 0), BuildingBlock: TEMPAE_clean_linker_10, # of connection points: 2
#     Edge 63, Type (0, 0), BuildingBlock: TEMPAE_clean_linker_10, # of connection points: 2
#     Edge 64, Type (0, 0), BuildingBlock: TEMPAE_clean_linker_10, # of connection points: 2
#     Edge 65, Type (0, 0), BuildingBlock: TEMPAE_clean_linker_10, # of connection points: 2
#     Edge 66, Type (0, 0), BuildingBlock: TEMPAE_clean_linker_10, # of connection points: 2
#     Edge 67, Type (0, 0), BuildingBlock: TEMPAE_clean_linker_10, # of connection points: 2
#     Edge 68, Type (0, 0), BuildingBlock: TEMPAE_clean_linker_10, # of connection points: 2
#     Edge 69, Type (0, 0), BuildingBlock: TEMPAE_clean_linker_10, # of connection points: 2
#     Edge 70, Type (0, 0), BuildingBlock: TEMPAE_clean_linker_10, # of connection points: 2
#     Edge 71, Type (0, 0), BuildingBlock: TEMPAE_clean_linker_10, # of connection points: 2
# Relax obj value: 0.104
# Max RMSD: 0.140
# Mean RMSD: 0.140
data_MOF--net-cbo--node1-GALJAG_clean_sbu_0--edge1-TEMPAE_clean_linker_10
_symmetry_space_group_name_H-M    P1
_symmetry_Int_Tables_number       1
_symmetry_cell_setting            triclinic
loop_
_symmetry_equiv_pos_as_xyz
'x, y, z'
_cell_length_a     52.886282
_cell_length_b     52.957513
_cell_length_c     52.903734
_cell_angle_alpha  90.011736
_cell_angle_beta   90.00328
_cell_angle_gamma 90.025829
loop_
_atom_site_label
_atom_site_type_symbol
_atom_site_fract_x
_atom_site_fract_y
_atom_site_fract_z
_atom_type_partial_charge
In0 In 0.04959 0.14588 0.29004 0.0
O1 O 0.02158 0.11311 0.28841 0.0
O2 O 0.00776 0.14906 0.2996 0.0
C3 C 0.09203 0.12166 0.27563 0.0
C4 C 0.0636 0.16044 0.33688 0.0
C5 C 0.0437 0.17583 0.24929 0.0
O6 O 0.07201 0.10991 0.28127 0.0
O7 O 0.09063 0.14533 0.27778 0.0
O8 O 0.04462 0.18454 0.2715 0.0
O9 O 0.04483 0.15208 0.24786 0.0
C10 C 0.00287 0.12613 0.29538 0.0
O11 O 0.06069 0.1759 0.31898 0.0
O12 O 0.05909 0.13775 0.33122 0.0
In13 In 0.43731 0.84681 0.79018 0.0
O14 O 0.42943 0.81752 0.82087 0.0
O15 O 0.42468 0.85627 0.83017 0.0
C16 C 0.44469 0.81631 0.75007 0.0
C17 C 0.48367 0.86694 0.79717 0.0
C18 C 0.39421 0.86864 0.77385 0.0
O19 O 0.43986 0.80788 0.77188 0.0
O20 O 0.44674 0.84002 0.74881 0.0
O21 O 0.41339 0.88154 0.77995 0.0
O22 O 0.3968 0.84513 0.77645 0.0
C23 C 0.42349 0.83361 0.83744 0.0
O24 O 0.4654 0.8797 0.78863 0.0
O25 O 0.4785 0.84419 0.80197 0.0
In26 In 0.57003 0.33562 0.69812 0.0
O27 O 0.5408 0.36686 0.70264 0.0
O28 O 0.52777 0.3302 0.69262 0.0
C29 C 0.60432 0.36977 0.71424 0.0
C30 C 0.57856 0.32201 0.64974 0.0
C31 C 0.57674 0.29908 0.73301 0.0
O32 O 0.58621 0.36227 0.72781 0.0
O33 O 0.60463 0.36071 0.69221 0.0
O34 O 0.55557 0.30929 0.72907 0.0
O35 O 0.59419 0.30649 0.71856 0.0
C36 C 0.5222 0.35287 0.69738 0.0
O37 O 0.58049 0.30656 0.66782 0.0
O38 O 0.57212 0.344 0.65613 0.0
In39 In 0.93688 0.6465 0.20471 0.0
O40 O 0.96492 0.61402 0.20062 0.0
O41 O 0.97973 0.65091 0.20577 0.0
C42 C 0.89587 0.61694 0.21123 0.0
C43 C 0.92861 0.66571 0.15835 0.0
C44 C 0.93348 0.67527 0.24672 0.0
O45 O 0.91693 0.61214 0.22139 0.0
O46 O 0.89571 0.63621 0.19724 0.0
O47 O 0.94007 0.6844 0.22569 0.0
O48 O 0.92927 0.65188 0.24648 0.0
C49 C 0.98428 0.62778 0.20251 0.0
O50 O 0.92428 0.67811 0.17829 0.0
O51 O 0.93742 0.64384 0.1619 0.0
In52 In 0.27913 0.05906 0.14677 0.0
O53 O 0.31196 0.06433 0.17442 0.0
O54 O 0.31877 0.07151 0.13555 0.0
C55 C 0.24024 0.05657 0.17957 0.0
C56 C 0.28377 0.01209 0.12764 0.0
C57 C 0.26188 0.1 0.12206 0.0
O58 O 0.2626 0.06116 0.18659 0.0
O59 O 0.23779 0.05232 0.15623 0.0
O60 O 0.26377 0.07868 0.11153 0.0
O61 O 0.26929 0.1007 0.14471 0.0
C62 C 0.32759 0.07095 0.15768 0.0
O63 O 0.28056 0.03126 0.11388 0.0
O64 O 0.28444 0.01661 0.15103 0.0
In65 In 0.20415 0.93293 0.64482 0.0
O66 O 0.17427 0.92432 0.67472 0.0
O67 O 0.16278 0.9255 0.63614 0.0
C68 C 0.24273 0.93008 0.67824 0.0
C69 C 0.19868 0.98072 0.62786 0.0
C70 C 0.21933 0.89457 0.61477 0.0
O71 O 0.22029 0.92456 0.68426 0.0
O72 O 0.24536 0.9377 0.65584 0.0
O73 O 0.22943 0.9161 0.61424 0.0
O74 O 0.20113 0.89246 0.62997 0.0
C75 C 0.15647 0.92206 0.65892 0.0
O76 O 0.19936 0.96189 0.61331 0.0
O77 O 0.20078 0.97547 0.65101 0.0
In78 In 0.79217 0.44013 0.83846 0.0
O79 O 0.78919 0.46817 0.87111 0.0
O80 O 0.79759 0.48256 0.83462 0.0
C81 C 0.77555 0.40398 0.87043 0.0
C82 C 0.84015 0.43199 0.82339 0.0
C83 C 0.75817 0.43344 0.80114 0.0
O84 O 0.76161 0.42166 0.86264 0.0
O85 O 0.79811 0.40505 0.86284 0.0
O86 O 0.77476 0.41724 0.80662 0.0
O87 O 0.75923 0.45351 0.81398 0.0
C88 C 0.79402 0.48726 0.8577 0.0
O89 O 0.82216 0.43441 0.8079 0.0
O90 O 0.8339 0.43393 0.84631 0.0
In91 In 0.70343 0.5576 0.33229 0.0
O92 O 0.70699 0.52772 0.36312 0.0
O93 O 0.69747 0.51539 0.32617 0.0
C94 C 0.72461 0.58923 0.36622 0.0
C95 C 0.65519 0.56963 0.32051 0.0
C96 C 0.73558 0.56609 0.29375 0.0
O97 O 0.73704 0.57244 0.35476 0.0
O98 O 0.70128 0.58952 0.36125 0.0
O99 O 0.72281 0.58338 0.30405 0.0
O100 O 0.73142 0.54419 0.30223 0.0
C101 C 0.70163 0.50942 0.34885 0.0
O102 O 0.67233 0.56807 0.30403 0.0
O103 O 0.66237 0.56497 0.34272 0.0
In104 In 0.13077 0.28751 0.06047 0.0
O105 O 0.09921 0.29164 0.03114 0.0
O106 O 0.13714 0.29048 0.01812 0.0
C107 C 0.10404 0.2746 0.10183 0.0
C108 C 0.14688 0.33445 0.07198 0.0
C109 C 0.16039 0.24618 0.05953 0.0
O110 O 0.09417 0.27523 0.08008 0.0
O111 O 0.12699 0.28106 0.1026 0.0
O112 O 0.16928 0.26828 0.06016 0.0
O113 O 0.13658 0.24497 0.05854 0.0
C114 C 0.11408 0.29242 0.01251 0.0
O115 O 0.1618 0.31619 0.06868 0.0
O116 O 0.1238 0.32908 0.0693 0.0
In117 In 0.65843 0.20926 0.93606 0.0
O118 O 0.62464 0.21113 0.96286 0.0
O119 O 0.66087 0.20377 0.97859 0.0
C120 C 0.62821 0.22269 0.89717 0.0
C121 C 0.67356 0.16116 0.92982 0.0
C122 C 0.69429 0.24521 0.93101 0.0
O123 O 0.63172 0.23679 0.91607 0.0
O124 O 0.63919 0.20164 0.89838 0.0
O125 O 0.69172 0.22726 0.91555 0.0
O126 O 0.67941 0.24448 0.94963 0.0
C127 C 0.63748 0.20646 0.98242 0.0
O128 O 0.6892 0.17901 0.93257 0.0
O129 O 0.65066 0.16768 0.93063 0.0
In130 In 0.84186 0.78268 0.43705 0.0
O131 O 0.81086 0.81261 0.43539 0.0
O132 O 0.84874 0.82416 0.42853 0.0
C133 C 0.81006 0.74292 0.43387 0.0
C134 C 0.86054 0.7874 0.48416 0.0
C135 C 0.8707 0.7701 0.39686 0.0
O136 O 0.80571 0.76386 0.42345 0.0
O137 O 0.83009 0.74221 0.4468 0.0
O138 O 0.87732 0.76517 0.41924 0.0
O139 O 0.85006 0.78177 0.39499 0.0
C140 C 0.82577 0.8304 0.42991 0.0
O141 O 0.87447 0.78688 0.46479 0.0
O142 O 0.83717 0.78525 0.47976 0.0
In143 In 0.34785 0.70371 0.56508 0.0
O144 O 0.37684 0.71193 0.53419 0.0
O145 O 0.34339 0.69205 0.52401 0.0
C146 C 0.37621 0.7234 0.60277 0.0
C147 C 0.33842 0.65519 0.57775 0.0
C148 C 0.31077 0.73858 0.56487 0.0
O149 O 0.38616 0.71428 0.58308 0.0
O150 O 0.35247 0.72224 0.60329 0.0
O151 O 0.31073 0.71969 0.57936 0.0
O152 O 0.32919 0.73958 0.54972 0.0
C153 C 0.36424 0.70126 0.51694 0.0
O154 O 0.32144 0.67004 0.57017 0.0
O155 O 0.36024 0.66472 0.57874 0.0
In156 In 0.93413 0.84182 0.70701 0.0
O157 O 0.9625 0.87423 0.70485 0.0
O158 O 0.97626 0.8368 0.69996 0.0
C159 C 0.89348 0.86815 0.72311 0.0
C160 C 0.92335 0.82897 0.65887 0.0
C161 C 0.93551 0.8095 0.74642 0.0
O162 O 0.91556 0.87724 0.72383 0.0
O163 O 0.89208 0.84629 0.71384 0.0
O164 O 0.92513 0.80411 0.72565 0.0
O165 O 0.94607 0.83085 0.74702 0.0
C166 C 0.98129 0.8601 0.70073 0.0
O167 O 0.93032 0.81299 0.67514 0.0
O168 O 0.92218 0.85139 0.66683 0.0
In169 In 0.5551 0.14098 0.19827 0.0
O170 O 0.56408 0.17229 0.1702 0.0
O171 O 0.56266 0.13455 0.15643 0.0
C172 C 0.55739 0.17249 0.23831 0.0
C173 C 0.50698 0.12479 0.19237 0.0
C174 C 0.59443 0.11132 0.21184 0.0
O175 O 0.56028 0.18008 0.21589 0.0
O176 O 0.55265 0.14926 0.24037 0.0
O177 O 0.57222 0.10762 0.2197 0.0
O178 O 0.59665 0.12944 0.19657 0.0
C179 C 0.56634 0.15761 0.15153 0.0
O180 O 0.52572 0.11014 0.19105 0.0
O181 O 0.51253 0.14751 0.19674 0.0
In182 In 0.43109 0.65196 0.29155 0.0
O183 O 0.45941 0.6196 0.28923 0.0
O184 O 0.47368 0.65675 0.29464 0.0
C185 C 0.38788 0.62653 0.28279 0.0
C186 C 0.4227 0.66719 0.3395 0.0
C187 C 0.43188 0.67959 0.24882 0.0
O188 O 0.40889 0.61542 0.28511 0.0
O189 O 0.38872 0.65017 0.28563 0.0
O190 O 0.43471 0.68955 0.27036 0.0
O191 O 0.42949 0.65591 0.24899 0.0
C192 C 0.47854 0.63356 0.29214 0.0
O193 O 0.42098 0.68205 0.32093 0.0
O194 O 0.4289 0.64492 0.33384 0.0
In195 In 0.06134 0.349 0.78485 0.0
O196 O 0.03392 0.38219 0.78266 0.0
O197 O 0.01856 0.34535 0.78663 0.0
C198 C 0.10519 0.37283 0.77477 0.0
C199 C 0.06722 0.33543 0.83364 0.0
C200 C 0.06195 0.31843 0.74418 0.0
O201 O 0.08427 0.38432 0.77524 0.0
O202 O 0.10394 0.34963 0.78001 0.0
O203 O 0.06272 0.31003 0.7665 0.0
O204 O 0.06001 0.34211 0.74249 0.0
C205 C 0.01437 0.36871 0.78477 0.0
O206 O 0.06376 0.31951 0.81623 0.0
O207 O 0.06766 0.3581 0.82641 0.0
In208 In 0.70606 0.9363 0.85535 0.0
O209 O 0.67721 0.92497 0.82533 0.0
O210 O 0.66339 0.93774 0.86083 0.0
C211 C 0.74652 0.93062 0.82458 0.0
C212 C 0.70741 0.98407 0.8731 0.0
C213 C 0.71326 0.89615 0.88578 0.0
O214 O 0.72524 0.93756 0.81631 0.0
O215 O 0.7473 0.9271 0.84809 0.0
O216 O 0.72317 0.91742 0.88998 0.0
O217 O 0.69914 0.89529 0.86658 0.0
C218 C 0.6582 0.9295 0.83905 0.0
O219 O 0.70503 0.96514 0.88732 0.0
O220 O 0.70909 0.97892 0.84989 0.0
In221 In 0.7806 0.04966 0.3463 0.0
O222 O 0.81052 0.05951 0.31657 0.0
O223 O 0.82261 0.05415 0.35439 0.0
C224 C 0.74706 0.05788 0.30877 0.0
C225 C 0.78072 0.00229 0.36506 0.0
C226 C 0.76358 0.08382 0.37995 0.0
O227 O 0.76006 0.0752 0.3187 0.0
O228 O 0.75157 0.036 0.31712 0.0
O229 O 0.74939 0.06756 0.36982 0.0
O230 O 0.78659 0.08223 0.37389 0.0
C231 C 0.82869 0.05946 0.332 0.0
O232 O 0.77553 0.02134 0.37837 0.0
O233 O 0.78535 0.00709 0.34218 0.0
In234 In 0.20695 0.55413 0.14927 0.0
O235 O 0.20202 0.52564 0.11723 0.0
O236 O 0.20255 0.51161 0.15472 0.0
C237 C 0.22317 0.59275 0.12012 0.0
C238 C 0.15956 0.56615 0.16298 0.0
C239 C 0.24394 0.55669 0.1843 0.0
O240 O 0.23406 0.5716 0.1206 0.0
O241 O 0.20381 0.59432 0.13389 0.0
O242 O 0.22105 0.56071 0.18969 0.0
O243 O 0.24791 0.55068 0.1616 0.0
C244 C 0.20042 0.5067 0.13153 0.0
O245 O 0.17696 0.56263 0.17897 0.0
O246 O 0.16613 0.56351 0.14017 0.0
In247 In 0.29884 0.42941 0.65202 0.0
O248 O 0.30085 0.459 0.62081 0.0
O249 O 0.30447 0.4715 0.65879 0.0
C250 C 0.28457 0.38876 0.62486 0.0
C251 C 0.34634 0.41656 0.66526 0.0
C252 C 0.25793 0.4319 0.68219 0.0
O253 O 0.28728 0.4103 0.61497 0.0
O254 O 0.28954 0.38776 0.64815 0.0
O255 O 0.2801 0.43015 0.6909 0.0
O256 O 0.2566 0.43325 0.65842 0.0
C257 C 0.30414 0.47733 0.63568 0.0
O258 O 0.32864 0.41804 0.68117 0.0
O259 O 0.34006 0.42169 0.64287 0.0
In260 In 0.84277 0.70844 0.93866 0.0
O261 O 0.87317 0.71658 0.96831 0.0
O262 O 0.83963 0.69819 0.98033 0.0
C263 C 0.87558 0.7286 0.9052 0.0
C264 C 0.82985 0.66089 0.92556 0.0
C265 C 0.80324 0.7399 0.93283 0.0
O266 O 0.86285 0.74177 0.92043 0.0
O267 O 0.8726 0.70508 0.90749 0.0
O268 O 0.81264 0.73527 0.95428 0.0
O269 O 0.81325 0.72806 0.91473 0.0
C270 C 0.86101 0.70682 0.98632 0.0
O271 O 0.81384 0.6784 0.92757 0.0
O272 O 0.8523 0.66733 0.93032 0.0
In273 In 0.34123 0.78962 0.05941 0.0
O274 O 0.37378 0.79165 0.03133 0.0
O275 O 0.33621 0.79322 0.01691 0.0
C276 C 0.37048 0.77512 0.09862 0.0
C277 C 0.32713 0.838 0.06643 0.0
C278 C 0.30768 0.75137 0.06307 0.0
O279 O 0.37628 0.77005 0.07602 0.0
O280 O 0.35061 0.78795 0.10112 0.0
O281 O 0.30645 0.77101 0.07643 0.0
O282 O 0.32534 0.75127 0.04707 0.0
C283 C 0.35962 0.79359 0.01218 0.0
O284 O 0.31151 0.82084 0.06091 0.0
O285 O 0.34979 0.83078 0.068 0.0
In286 In 0.15401 0.2061 0.55531 0.0
O287 O 0.12159 0.20797 0.52699 0.0
O288 O 0.15804 0.19868 0.51301 0.0
C289 C 0.12914 0.22126 0.59705 0.0
C290 C 0.16503 0.15789 0.56761 0.0
C291 C 0.18632 0.24543 0.55306 0.0
O292 O 0.11817 0.21841 0.57603 0.0
O293 O 0.15239 0.21595 0.59701 0.0
O294 O 0.19382 0.22291 0.55539 0.0
O295 O 0.1627 0.24786 0.55076 0.0
C296 C 0.13496 0.2022 0.50813 0.0
O297 O 0.18192 0.17398 0.56269 0.0
O298 O 0.14271 0.16608 0.56607 0.0
In299 In 0.65561 0.28557 0.42462 0.0
O300 O 0.68395 0.31737 0.41765 0.0
O301 O 0.64503 0.32514 0.41163 0.0
C302 C 0.68858 0.24721 0.42977 0.0
C303 C 0.63773 0.29108 0.47188 0.0
C304 C 0.62946 0.26737 0.38474 0.0
O305 O 0.69361 0.26684 0.41722 0.0
O306 O 0.66724 0.24727 0.4404 0.0
O307 O 0.61853 0.27505 0.40451 0.0
O308 O 0.65318 0.26925 0.38514 0.0
C309 C 0.66743 0.33325 0.41111 0.0
O310 O 0.6246 0.28176 0.45424 0.0
O311 O 0.65979 0.29769 0.46558 0.0
C312 C 0.06483 0.25934 0.1236 0.0
C313 C 0.09081 0.26455 0.12425 0.0
C314 C 0.05288 0.24723 0.14401 0.0
C315 C 0.06744 0.23973 0.16518 0.0
C316 C 0.09349 0.24584 0.16626 0.0
C317 C 0.10478 0.25839 0.14589 0.0
C318 C 0.02495 0.24159 0.1425 0.0
C319 C 0.10979 0.23792 0.18834 0.0
C320 C 0.04225 0.21833 0.22871 0.0
C321 C 0.04498 0.19208 0.22666 0.0
C322 C 0.04758 0.23417 0.20809 0.0
C323 C 0.05638 0.22345 0.1852 0.0
C324 C 0.05769 0.19687 0.18263 0.0
C325 C 0.05172 0.1815 0.20334 0.0
C326 C 0.04528 0.26239 0.2113 0.0
C327 C 0.06728 0.18466 0.15867 0.0
H328 H 0.05394 0.26424 0.10695 0.0
H329 H 0.12488 0.26237 0.14649 0.0
H330 H 0.02207 0.22104 0.13967 0.0
H331 H 0.01542 0.24684 0.16044 0.0
H332 H 0.0157 0.25181 0.12666 0.0
H333 H 0.12947 0.24508 0.18674 0.0
H334 H 0.10159 0.24491 0.20632 0.0
H335 H 0.11042 0.217 0.18947 0.0
H336 H 0.03682 0.22657 0.24667 0.0
H337 H 0.05383 0.16121 0.20165 0.0
H338 H 0.03623 0.27102 0.19447 0.0
H339 H 0.06441 0.27079 0.21318 0.0
H340 H 0.03413 0.26744 0.22836 0.0
H341 H 0.05707 0.19218 0.14199 0.0
H342 H 0.06513 0.1638 0.15897 0.0
H343 H 0.08762 0.18921 0.15616 0.0
C344 C 0.44396 0.81142 0.70322 0.0
C345 C 0.44381 0.80025 0.72724 0.0
C346 C 0.43745 0.79745 0.68166 0.0
C347 C 0.43083 0.77167 0.68423 0.0
C348 C 0.43305 0.75974 0.70809 0.0
C349 C 0.43942 0.77423 0.72938 0.0
C350 C 0.43531 0.81091 0.6566 0.0
C351 C 0.42655 0.73221 0.71155 0.0
C352 C 0.3777 0.74866 0.64225 0.0
C353 C 0.39071 0.73523 0.6235 0.0
C354 C 0.39064 0.76051 0.66202 0.0
C355 C 0.41731 0.75867 0.66331 0.0
C356 C 0.43063 0.74491 0.6446 0.0
C357 C 0.41713 0.73344 0.62473 0.0
C358 C 0.37569 0.77522 0.68143 0.0
C359 C 0.45902 0.74236 0.64557 0.0
H360 H 0.44753 0.8315 0.70141 0.0
H361 H 0.43953 0.76544 0.74788 0.0
H362 H 0.4435 0.79933 0.64117 0.0
H363 H 0.41505 0.81398 0.6521 0.0
H364 H 0.44494 0.82956 0.65687 0.0
H365 H 0.43357 0.72478 0.7299 0.0
H366 H 0.4057 0.72986 0.71102 0.0
H367 H 0.43461 0.72066 0.69602 0.0
H368 H 0.35728 0.7502 0.64133 0.0
H369 H 0.42722 0.723 0.61028 0.0
H370 H 0.38211 0.79517 0.68177 0.0
H371 H 0.37897 0.76727 0.70055 0.0
H372 H 0.35505 0.77492 0.67757 0.0
H373 H 0.46795 0.76129 0.6445 0.0
H374 H 0.46648 0.73053 0.62992 0.0
H375 H 0.46481 0.73384 0.66383 0.0
C376 C 0.56159 0.27492 0.77067 0.0
C377 C 0.58155 0.28261 0.75501 0.0
C378 C 0.56633 0.26259 0.79368 0.0
C379 C 0.59161 0.25821 0.80125 0.0
C380 C 0.61176 0.26486 0.78492 0.0
C381 C 0.60646 0.27684 0.76191 0.0
C382 C 0.54436 0.25532 0.81038 0.0
C383 C 0.63901 0.26057 0.79235 0.0
C384 C 0.60964 0.25679 0.87054 0.0
C385 C 0.61506 0.23115 0.87407 0.0
C386 C 0.60095 0.26571 0.84715 0.0
C387 C 0.5973 0.2485 0.82697 0.0
C388 C 0.60125 0.22238 0.83093 0.0
C389 C 0.61027 0.21402 0.85443 0.0
C390 C 0.59709 0.29375 0.84361 0.0
C391 C 0.59716 0.20341 0.81002 0.0
H392 H 0.54228 0.27926 0.76534 0.0
H393 H 0.62196 0.28276 0.74988 0.0
H394 H 0.54645 0.23556 0.81702 0.0
H395 H 0.54409 0.26761 0.82736 0.0
H396 H 0.52593 0.25721 0.80048 0.0
H397 H 0.65236 0.26549 0.77691 0.0
H398 H 0.64365 0.27226 0.80914 0.0
H399 H 0.64203 0.24054 0.79767 0.0
H400 H 0.61338 0.27009 0.88567 0.0
H401 H 0.61431 0.19414 0.85715 0.0
H402 H 0.57807 0.29753 0.83565 0.0
H403 H 0.61119 0.3011 0.82992 0.0
H404 H 0.59909 0.30439 0.8616 0.0
H405 H 0.57862 0.20658 0.80073 0.0
H406 H 0.59791 0.18366 0.81704 0.0
H407 H 0.61199 0.20581 0.79538 0.0
C408 C 0.91492 0.68055 0.28949 0.0
C409 C 0.92897 0.69073 0.26948 0.0
C410 C 0.90826 0.69532 0.31038 0.0
C411 C 0.91632 0.72078 0.31158 0.0
C412 C 0.9315 0.73088 0.29197 0.0
C413 C 0.93742 0.71578 0.27093 0.0
C414 C 0.89165 0.68394 0.33066 0.0
C415 C 0.94089 0.75778 0.29291 0.0
C416 C 0.87287 0.76183 0.35065 0.0
C417 C 0.88446 0.76077 0.37445 0.0
C418 C 0.88376 0.74996 0.32965 0.0
C419 C 0.90703 0.73708 0.33245 0.0
C420 C 0.91968 0.73741 0.35605 0.0
C421 C 0.90809 0.74906 0.3769 0.0
C422 C 0.86948 0.74977 0.30492 0.0
C423 C 0.94479 0.72436 0.35958 0.0
H424 H 0.90827 0.66121 0.2884 0.0
H425 H 0.94842 0.72363 0.25553 0.0
H426 H 0.90078 0.68585 0.34943 0.0
H427 H 0.8734 0.69425 0.33149 0.0
H428 H 0.88763 0.66363 0.32722 0.0
H429 H 0.9548 0.76184 0.27771 0.0
H430 H 0.92472 0.77094 0.29082 0.0
H431 H 0.94981 0.76174 0.31148 0.0
H432 H 0.85461 0.77091 0.34864 0.0
H433 H 0.9172 0.74839 0.39524 0.0
H434 H 0.86302 0.73027 0.30071 0.0
H435 H 0.88197 0.75576 0.28919 0.0
H436 H 0.85268 0.76236 0.30532 0.0
H437 H 0.94197 0.7036 0.35928 0.0
H438 H 0.95388 0.72955 0.37779 0.0
H439 H 0.95786 0.72915 0.34389 0.0
C440 C 0.19386 0.06084 0.18627 0.0
C441 C 0.21825 0.05942 0.19653 0.0
C442 C 0.17319 0.06801 0.20123 0.0
C443 C 0.17698 0.07347 0.22715 0.0
C444 C 0.20123 0.07021 0.23802 0.0
C445 C 0.22167 0.06343 0.2225 0.0
C446 C 0.1477 0.07151 0.18883 0.0
C447 C 0.20589 0.07534 0.2657 0.0
C448 C 0.13361 0.12366 0.25382 0.0
C449 C 0.11475 0.10911 0.2654 0.0
C450 C 0.15426 0.11224 0.24187 0.0
C451 C 0.15636 0.08558 0.24187 0.0
C452 C 0.13795 0.0708 0.25447 0.0
C453 C 0.11716 0.08275 0.2659 0.0
C454 C 0.17331 0.1287 0.22837 0.0
C455 C 0.13988 0.04238 0.25529 0.0
H456 H 0.1911 0.05774 0.16621 0.0
H457 H 0.24049 0.06217 0.23054 0.0
H458 H 0.13277 0.06174 0.19982 0.0
H459 H 0.14287 0.0919 0.18847 0.0
H460 H 0.14738 0.06426 0.16912 0.0
H461 H 0.2246 0.06819 0.27198 0.0
H462 H 0.20521 0.09598 0.26919 0.0
H463 H 0.19094 0.06649 0.27745 0.0
H464 H 0.13179 0.14405 0.25333 0.0
H465 H 0.10267 0.07146 0.27497 0.0
H466 H 0.17324 0.12425 0.20786 0.0
H467 H 0.19263 0.12482 0.23554 0.0
H468 H 0.16929 0.14915 0.23076 0.0
H469 H 0.13714 0.03457 0.23603 0.0
H470 H 0.12554 0.03384 0.26804 0.0
H471 H 0.15898 0.03658 0.26172 0.0
C472 C 0.35359 0.8641 0.7506 0.0
C473 C 0.37098 0.87975 0.76303 0.0
C474 C 0.33224 0.87416 0.73861 0.0
C475 C 0.32788 0.90052 0.73948 0.0
C476 C 0.34489 0.91636 0.75278 0.0
C477 C 0.36645 0.9058 0.7642 0.0
C478 C 0.31484 0.85665 0.72425 0.0
C479 C 0.34059 0.94448 0.7545 0.0
C480 C 0.28912 0.92572 0.68483 0.0
C481 C 0.26464 0.92559 0.69499 0.0
C482 C 0.31001 0.9185 0.69942 0.0
C483 C 0.30641 0.91142 0.72497 0.0
C484 C 0.28191 0.91259 0.73574 0.0
C485 C 0.26122 0.91942 0.72052 0.0
C486 C 0.33573 0.91712 0.68707 0.0
C487 C 0.27741 0.90565 0.76304 0.0
H488 H 0.35707 0.84395 0.74955 0.0
H489 H 0.3798 0.91792 0.77393 0.0
H490 H 0.29518 0.85859 0.73128 0.0
H491 H 0.31475 0.86185 0.70393 0.0
H492 H 0.32058 0.83654 0.72594 0.0
H493 H 0.35428 0.95382 0.76739 0.0
H494 H 0.34241 0.95308 0.73547 0.0
H495 H 0.32113 0.94841 0.76128 0.0
H496 H 0.29186 0.93041 0.66507 0.0
H497 H 0.24234 0.91944 0.72848 0.0
H498 H 0.34212 0.89717 0.68638 0.0
H499 H 0.34983 0.92779 0.69833 0.0
H500 H 0.33561 0.92474 0.66751 0.0
H501 H 0.28026 0.88506 0.76561 0.0
H502 H 0.25797 0.9105 0.76934 0.0
H503 H 0.2912 0.91546 0.77544 0.0
C504 C 0.73398 0.40338 0.77431 0.0
C505 C 0.73737 0.42801 0.78336 0.0
C506 C 0.71227 0.39676 0.76066 0.0
C507 C 0.6937 0.41534 0.75564 0.0
C508 C 0.6978 0.44063 0.7633 0.0
C509 C 0.71954 0.44664 0.7773 0.0
C510 C 0.70854 0.36953 0.75297 0.0
C511 C 0.67867 0.46104 0.75778 0.0
C512 C 0.6442 0.39436 0.70826 0.0
C513 C 0.62522 0.3852 0.72435 0.0
C514 C 0.66604 0.40576 0.71811 0.0
C515 C 0.66907 0.40758 0.74463 0.0
C516 C 0.64938 0.39951 0.76087 0.0
C517 C 0.62758 0.3886 0.7505 0.0
C518 C 0.6864 0.41465 0.70021 0.0
C519 C 0.65198 0.40089 0.78928 0.0
H520 H 0.74772 0.38891 0.77892 0.0
H521 H 0.7222 0.46576 0.78414 0.0
H522 H 0.69223 0.36146 0.76342 0.0
H523 H 0.70411 0.36826 0.73252 0.0
H524 H 0.72547 0.35777 0.7569 0.0
H525 H 0.68624 0.48019 0.76182 0.0
H526 H 0.67262 0.46022 0.73772 0.0
H527 H 0.66159 0.45803 0.76959 0.0
H528 H 0.64234 0.39189 0.688 0.0
H529 H 0.61296 0.38154 0.763 0.0
H530 H 0.70276 0.40158 0.70113 0.0
H531 H 0.69329 0.43366 0.70574 0.0
H532 H 0.67963 0.4154 0.68034 0.0
H533 H 0.66736 0.38808 0.79554 0.0
H534 H 0.63428 0.39541 0.79917 0.0
H535 H 0.65722 0.42029 0.79519 0.0
C536 C 0.85072 0.60591 0.20312 0.0
C537 C 0.87243 0.60354 0.21812 0.0
C538 C 0.82726 0.59685 0.21162 0.0
C539 C 0.82548 0.58592 0.23597 0.0
C540 C 0.84765 0.58226 0.25056 0.0
C541 C 0.87094 0.59084 0.24128 0.0
C542 C 0.80421 0.60031 0.19517 0.0
C543 C 0.84651 0.57109 0.2768 0.0
C544 C 0.76627 0.59606 0.27476 0.0
C545 C 0.75623 0.5716 0.27585 0.0
C546 C 0.78838 0.6011 0.26109 0.0
C547 C 0.80035 0.58132 0.24764 0.0
C548 C 0.78935 0.55694 0.24728 0.0
C549 C 0.76756 0.55226 0.26175 0.0
C550 C 0.7997 0.62728 0.26231 0.0
C551 C 0.80113 0.53561 0.23248 0.0
H552 H 0.85191 0.61557 0.18509 0.0
H553 H 0.8877 0.58908 0.25295 0.0
H554 H 0.79235 0.58302 0.1953 0.0
H555 H 0.79253 0.61599 0.20271 0.0
H556 H 0.80936 0.60486 0.17533 0.0
H557 H 0.86562 0.56781 0.28488 0.0
H558 H 0.83608 0.58412 0.28951 0.0
H559 H 0.83611 0.55292 0.27659 0.0
H560 H 0.75763 0.61104 0.28573 0.0
H561 H 0.75971 0.53336 0.26245 0.0
H562 H 0.8027 0.63481 0.24299 0.0
H563 H 0.81847 0.62644 0.27168 0.0
H564 H 0.78757 0.64073 0.27293 0.0
H565 H 0.80617 0.54198 0.21314 0.0
H566 H 0.7883 0.51905 0.23104 0.0
H567 H 0.81884 0.5295 0.24188 0.0
C568 C 0.24279 0.14286 0.12419 0.0
C569 C 0.24996 0.12194 0.10967 0.0
C570 C 0.22927 0.16288 0.11341 0.0
C571 C 0.22314 0.16213 0.08737 0.0
C572 C 0.2312 0.14152 0.07237 0.0
C573 C 0.24436 0.1215 0.08377 0.0
C574 C 0.22075 0.1844 0.13013 0.0
C575 C 0.22539 0.14033 0.04446 0.0
C576 C 0.16541 0.20062 0.06998 0.0
C577 C 0.17639 0.22361 0.06279 0.0
C578 C 0.18048 0.18002 0.07701 0.0
C579 C 0.20714 0.18239 0.07639 0.0
C580 C 0.21831 0.20504 0.06759 0.0
C581 C 0.20277 0.22551 0.06111 0.0
C582 C 0.16785 0.15629 0.08658 0.0
C583 C 0.24666 0.20808 0.06622 0.0
H584 H 0.247 0.14323 0.14424 0.0
H585 H 0.24998 0.10537 0.07248 0.0
H586 H 0.22766 0.20264 0.12248 0.0
H587 H 0.19979 0.18527 0.13042 0.0
H588 H 0.22762 0.18241 0.14987 0.0
H589 H 0.23484 0.12412 0.03506 0.0
H590 H 0.20468 0.13853 0.04162 0.0
H591 H 0.23145 0.15804 0.03504 0.0
H592 H 0.14501 0.19911 0.07136 0.0
H593 H 0.21131 0.24323 0.0554 0.0
H594 H 0.17204 0.15388 0.10699 0.0
H595 H 0.17541 0.13948 0.07662 0.0
H596 H 0.147 0.15678 0.08407 0.0
H597 H 0.25457 0.209 0.08562 0.0
H598 H 0.25225 0.2255 0.05594 0.0
H599 H 0.25535 0.19156 0.05669 0.0
C600 C 0.73943 0.37802 0.88579 0.0
C601 C 0.76557 0.38219 0.88467 0.0
C602 C 0.72965 0.3556 0.89594 0.0
C603 C 0.74642 0.33713 0.90562 0.0
C604 C 0.77276 0.34189 0.90588 0.0
C605 C 0.78206 0.3643 0.89515 0.0
C606 C 0.70145 0.35112 0.89503 0.0
C607 C 0.79117 0.32289 0.91652 0.0
C608 C 0.71436 0.2859 0.94421 0.0
C609 C 0.71096 0.26701 0.92594 0.0
C610 C 0.72719 0.30836 0.93831 0.0
C611 C 0.73637 0.31212 0.91346 0.0
C612 C 0.73398 0.29261 0.89531 0.0
C613 C 0.72148 0.2702 0.90185 0.0
C614 C 0.72989 0.32851 0.95831 0.0
C615 C 0.74331 0.29595 0.86852 0.0
H616 H 0.72662 0.39175 0.87762 0.0
H617 H 0.80229 0.36754 0.89442 0.0
H618 H 0.6973 0.33494 0.88235 0.0
H619 H 0.69426 0.34614 0.91408 0.0
H620 H 0.69093 0.36788 0.88807 0.0
H621 H 0.81058 0.33073 0.91818 0.0
H622 H 0.78486 0.31641 0.93544 0.0
H623 H 0.79186 0.30606 0.90405 0.0
H624 H 0.70636 0.28344 0.96292 0.0
H625 H 0.71887 0.25566 0.88765 0.0
H626 H 0.71744 0.34471 0.95365 0.0
H627 H 0.7496 0.3357 0.95887 0.0
H628 H 0.72472 0.32145 0.9774 0.0
H629 H 0.73237 0.31118 0.85914 0.0
H630 H 0.74136 0.27842 0.85715 0.0
H631 H 0.76345 0.30176 0.86848 0.0
C632 C 0.77889 0.71981 0.40739 0.0
C633 C 0.79459 0.7203 0.42871 0.0
C634 C 0.76663 0.69755 0.4 0.0
C635 C 0.76965 0.6754 0.41468 0.0
C636 C 0.78433 0.67616 0.43705 0.0
C637 C 0.79696 0.69857 0.44363 0.0
C638 C 0.75154 0.69743 0.37574 0.0
C639 C 0.78737 0.65311 0.45354 0.0
C640 C 0.7226 0.62386 0.39822 0.0
C641 C 0.73686 0.60896 0.38161 0.0
C642 C 0.73349 0.64472 0.41049 0.0
C643 C 0.75897 0.65116 0.40537 0.0
C644 C 0.77366 0.63559 0.3893 0.0
C645 C 0.76249 0.61447 0.37788 0.0
C646 C 0.71745 0.66046 0.42805 0.0
C647 C 0.80073 0.6421 0.38291 0.0
H648 H 0.77712 0.73656 0.39573 0.0
H649 H 0.80901 0.69896 0.46021 0.0
H650 H 0.7604 0.6843 0.36199 0.0
H651 H 0.73207 0.69054 0.37931 0.0
H652 H 0.75039 0.71645 0.36696 0.0
H653 H 0.79677 0.65762 0.47178 0.0
H654 H 0.76867 0.64447 0.45751 0.0
H655 H 0.7989 0.63876 0.44352 0.0
H656 H 0.70279 0.61952 0.40122 0.0
H657 H 0.77351 0.60306 0.36491 0.0
H658 H 0.71316 0.67887 0.41903 0.0
H659 H 0.72783 0.66445 0.44584 0.0
H660 H 0.69929 0.651 0.43276 0.0
H661 H 0.8013 0.66023 0.37241 0.0
H662 H 0.80993 0.62734 0.37116 0.0
H663 H 0.81196 0.64467 0.40042 0.0
C664 C 0.25619 0.87152 0.59732 0.0
C665 C 0.23007 0.87275 0.60133 0.0
C666 C 0.2675 0.84931 0.58842 0.0
C667 C 0.25213 0.8282 0.58252 0.0
C668 C 0.22552 0.83004 0.58475 0.0
C669 C 0.2148 0.85217 0.59469 0.0
C670 C 0.296 0.8479 0.58707 0.0
C671 C 0.20847 0.80829 0.57771 0.0
C672 C 0.28731 0.77599 0.54815 0.0
C673 C 0.29296 0.75965 0.56818 0.0
C674 C 0.27251 0.79766 0.55215 0.0
C675 C 0.26423 0.80352 0.57693 0.0
C676 C 0.26942 0.78667 0.59705 0.0
C677 C 0.28332 0.76469 0.59231 0.0
C678 C 0.26644 0.81465 0.53008 0.0
C679 C 0.26161 0.79256 0.62389 0.0
H680 H 0.268 0.88739 0.60268 0.0
H681 H 0.19454 0.85325 0.59765 0.0
H682 H 0.30298 0.83379 0.60093 0.0
H683 H 0.30212 0.84156 0.56807 0.0
H684 H 0.30512 0.86634 0.59122 0.0
H685 H 0.18834 0.81417 0.57642 0.0
H686 H 0.21431 0.80004 0.55933 0.0
H687 H 0.20999 0.79321 0.59217 0.0
H688 H 0.29469 0.77197 0.52946 0.0
H689 H 0.28791 0.75215 0.60785 0.0
H690 H 0.2776 0.83232 0.53153 0.0
H691 H 0.24615 0.81997 0.53031 0.0
H692 H 0.27085 0.80554 0.51168 0.0
H693 H 0.27089 0.81028 0.63021 0.0
H694 H 0.26677 0.77724 0.63727 0.0
H695 H 0.24091 0.79561 0.62495 0.0
C696 C 0.8846 0.76466 0.87655 0.0
C697 C 0.89005 0.73995 0.88423 0.0
C698 C 0.89518 0.77469 0.85445 0.0
C699 C 0.91217 0.75985 0.84005 0.0
C700 C 0.91894 0.73542 0.84855 0.0
C701 C 0.90748 0.72558 0.8704 0.0
C702 C 0.88706 0.80064 0.8458 0.0
C703 C 0.93754 0.71935 0.8341 0.0
C704 C 0.91271 0.77613 0.77039 0.0
C705 C 0.93246 0.79372 0.7692 0.0
C706 C 0.90659 0.76409 0.79317 0.0
C707 C 0.92101 0.7693 0.81512 0.0
C708 C 0.94215 0.78565 0.81356 0.0
C709 C 0.94742 0.79797 0.79066 0.0
C710 C 0.88363 0.74714 0.79411 0.0
C711 C 0.95842 0.79107 0.83637 0.0
H712 H 0.871 0.77577 0.88712 0.0
H713 H 0.9118 0.70649 0.87639 0.0
H714 H 0.90382 0.81286 0.84278 0.0
H715 H 0.87701 0.79913 0.82744 0.0
H716 H 0.87432 0.81004 0.8596 0.0
H717 H 0.94338 0.70238 0.84497 0.0
H718 H 0.92887 0.71303 0.81608 0.0
H719 H 0.95465 0.73049 0.82925 0.0
H720 H 0.90104 0.77288 0.75385 0.0
H721 H 0.96283 0.81145 0.78972 0.0
H722 H 0.86891 0.75592 0.80622 0.0
H723 H 0.88852 0.72867 0.80266 0.0
H724 H 0.87543 0.74375 0.77507 0.0
H725 H 0.94783 0.80315 0.84983 0.0
H726 H 0.97621 0.80095 0.83117 0.0
H727 H 0.96324 0.77329 0.84636 0.0
C728 C 0.56675 0.21461 0.25749 0.0
C729 C 0.56198 0.18876 0.26051 0.0
C730 C 0.57459 0.22947 0.27803 0.0
C731 C 0.57804 0.21805 0.30199 0.0
C732 C 0.57193 0.19225 0.30539 0.0
C733 C 0.56381 0.17794 0.28462 0.0
C734 C 0.58057 0.25702 0.27377 0.0
C735 C 0.57557 0.1793 0.33057 0.0
C736 C 0.62983 0.24353 0.34429 0.0
C737 C 0.61598 0.25598 0.36312 0.0
C738 C 0.61764 0.23143 0.32416 0.0
C739 C 0.59093 0.23208 0.32261 0.0
C740 C 0.57683 0.24517 0.34121 0.0
C741 C 0.58955 0.25684 0.36143 0.0
C742 C 0.63338 0.21741 0.30487 0.0
C743 C 0.54835 0.24654 0.33993 0.0
H744 H 0.56518 0.22308 0.23891 0.0
H745 H 0.5601 0.15796 0.28707 0.0
H746 H 0.57209 0.26879 0.28891 0.0
H747 H 0.60134 0.25987 0.27447 0.0
H748 H 0.57356 0.2638 0.25517 0.0
H749 H 0.56761 0.15988 0.33072 0.0
H750 H 0.59607 0.17813 0.33491 0.0
H751 H 0.56655 0.19036 0.34591 0.0
H752 H 0.65027 0.24274 0.34555 0.0
H753 H 0.57881 0.26655 0.37592 0.0
H754 H 0.62953 0.22483 0.28565 0.0
H755 H 0.62818 0.19711 0.30488 0.0
H756 H 0.65399 0.21903 0.30865 0.0
H757 H 0.54233 0.25394 0.32126 0.0
H758 H 0.5403 0.25876 0.35498 0.0
H759 H 0.54022 0.22732 0.34188 0.0
C760 C 0.41613 0.68362 0.20481 0.0
C761 C 0.42863 0.69448 0.22548 0.0
C762 C 0.40976 0.69807 0.18359 0.0
C763 C 0.41668 0.72389 0.18274 0.0
C764 C 0.43069 0.73458 0.2029 0.0
C765 C 0.43618 0.71981 0.22428 0.0
C766 C 0.39428 0.68606 0.16279 0.0
C767 C 0.439 0.76184 0.20231 0.0
C768 C 0.40798 0.7536 0.11798 0.0
C769 C 0.3841 0.76474 0.12064 0.0
C770 C 0.41968 0.74152 0.13855 0.0
C771 C 0.40683 0.74003 0.16199 0.0
C772 C 0.38309 0.75202 0.16492 0.0
C773 C 0.37218 0.76448 0.1443 0.0
C774 C 0.44532 0.72955 0.13494 0.0
C775 C 0.36849 0.75046 0.18943 0.0
H776 H 0.41016 0.66405 0.20572 0.0
H777 H 0.44601 0.72818 0.24019 0.0
H778 H 0.37544 0.69524 0.16184 0.0
H779 H 0.40357 0.68889 0.14422 0.0
H780 H 0.39148 0.66549 0.1658 0.0
H781 H 0.45278 0.76621 0.21755 0.0
H782 H 0.44771 0.76644 0.18379 0.0
H783 H 0.42233 0.77431 0.20468 0.0
H784 H 0.41731 0.75394 0.09973 0.0
H785 H 0.35368 0.77303 0.14643 0.0
H786 H 0.44338 0.7087 0.1349 0.0
H787 H 0.45807 0.73463 0.1508 0.0
H788 H 0.45429 0.73541 0.11688 0.0
H789 H 0.36343 0.7305 0.19334 0.0
H790 H 0.35082 0.7618 0.18895 0.0
H791 H 0.3803 0.75717 0.2054 0.0
C792 C 0.09008 0.23504 0.61987 0.0
C793 C 0.1164 0.23192 0.61945 0.0
C794 C 0.07815 0.24708 0.6403 0.0
C795 C 0.09301 0.25657 0.66044 0.0
C796 C 0.11951 0.25284 0.66037 0.0
C797 C 0.13085 0.24037 0.63997 0.0
C798 C 0.0498 0.25032 0.63998 0.0
C799 C 0.13606 0.26294 0.68136 0.0
C800 C 0.07181 0.31327 0.69847 0.0
C801 C 0.06612 0.30223 0.72186 0.0
C802 C 0.07959 0.29845 0.67795 0.0
C803 C 0.0813 0.27193 0.68081 0.0
C804 C 0.07407 0.26054 0.70391 0.0
C805 C 0.06675 0.27588 0.72428 0.0
C806 C 0.0874 0.31135 0.65371 0.0
C807 C 0.07521 0.23229 0.70748 0.0
H808 H 0.07885 0.22839 0.60407 0.0
H809 H 0.15122 0.23805 0.63968 0.0
H810 H 0.04154 0.24385 0.65814 0.0
H811 H 0.04505 0.27061 0.63787 0.0
H812 H 0.04078 0.2397 0.62427 0.0
H813 H 0.15623 0.25764 0.6789 0.0
H814 H 0.13472 0.28385 0.68196 0.0
H815 H 0.12946 0.25573 0.6999 0.0
H816 H 0.07138 0.33364 0.69652 0.0
H817 H 0.06222 0.26727 0.74232 0.0
H818 H 0.07754 0.30274 0.63733 0.0
H819 H 0.10801 0.30875 0.65069 0.0
H820 H 0.08327 0.33192 0.65396 0.0
H821 H 0.06604 0.22249 0.69137 0.0
H822 H 0.06591 0.2262 0.7253 0.0
H823 H 0.09525 0.2261 0.70801 0.0
C824 C 0.76836 0.93206 0.78253 0.0
C825 C 0.76851 0.92541 0.80817 0.0
C826 C 0.78875 0.92569 0.76671 0.0
C827 C 0.80944 0.91198 0.77675 0.0
C828 C 0.80985 0.90571 0.80275 0.0
C829 C 0.78948 0.91268 0.81816 0.0
C830 C 0.78787 0.93301 0.73915 0.0
C831 C 0.83136 0.89079 0.81415 0.0
C832 C 0.84818 0.86792 0.73587 0.0
C833 C 0.87121 0.88093 0.73411 0.0
C834 C 0.82754 0.87834 0.74878 0.0
C835 C 0.82989 0.9025 0.75998 0.0
C836 C 0.85265 0.91632 0.75712 0.0
C837 C 0.87316 0.90528 0.74432 0.0
C838 C 0.8037 0.86287 0.7516 0.0
C839 C 0.85571 0.94228 0.76849 0.0
H840 H 0.75223 0.94202 0.77478 0.0
H841 H 0.78967 0.90743 0.83797 0.0
H842 H 0.80566 0.94267 0.73365 0.0
H843 H 0.78621 0.9158 0.72731 0.0
H844 H 0.77167 0.94564 0.73483 0.0
H845 H 0.82922 0.88824 0.83489 0.0
H846 H 0.83234 0.87186 0.80519 0.0
H847 H 0.84963 0.9004 0.81046 0.0
H848 H 0.84654 0.84911 0.72797 0.0
H849 H 0.89089 0.91546 0.74288 0.0
H850 H 0.78698 0.87404 0.74573 0.0
H851 H 0.80101 0.85773 0.77176 0.0
H852 H 0.80427 0.84522 0.74026 0.0
H853 H 0.8393 0.95437 0.76357 0.0
H854 H 0.87331 0.95173 0.76199 0.0
H855 H 0.85632 0.94077 0.78939 0.0
C856 C 0.61492 0.08585 0.24568 0.0
C857 C 0.61655 0.0978 0.22212 0.0
C858 C 0.63666 0.07675 0.25782 0.0
C859 C 0.66048 0.07918 0.24581 0.0
C860 C 0.66192 0.08956 0.22119 0.0
C861 C 0.63995 0.09907 0.20976 0.0
C862 C 0.63435 0.06622 0.28425 0.0
C863 C 0.68685 0.09187 0.2075 0.0
C864 C 0.71678 0.08794 0.28921 0.0
C865 C 0.72641 0.06335 0.2908 0.0
C866 C 0.69554 0.09333 0.27435 0.0
C867 C 0.68399 0.07375 0.26023 0.0
C868 C 0.69427 0.04906 0.26093 0.0
C869 C 0.71521 0.04406 0.27652 0.0
C870 C 0.68492 0.11982 0.27451 0.0
C871 C 0.68284 0.02789 0.24562 0.0
H872 H 0.59685 0.08494 0.25533 0.0
H873 H 0.64121 0.10815 0.19143 0.0
H874 H 0.6442 0.0478 0.28569 0.0
H875 H 0.64357 0.0793 0.29782 0.0
H876 H 0.61433 0.06363 0.29005 0.0
H877 H 0.68427 0.0967 0.18722 0.0
H878 H 0.69842 0.10688 0.21646 0.0
H879 H 0.69768 0.07398 0.20885 0.0
H880 H 0.72527 0.10288 0.30037 0.0
H881 H 0.7227 0.02505 0.27767 0.0
H882 H 0.66524 0.11955 0.28178 0.0
H883 H 0.68427 0.12744 0.255 0.0
H884 H 0.69625 0.1329 0.28641 0.0
H885 H 0.66363 0.02352 0.25279 0.0
H886 H 0.69442 0.01041 0.24644 0.0
H887 H 0.68082 0.03371 0.22557 0.0
C888 C 0.36339 0.58712 0.27353 0.0
C889 C 0.3647 0.61355 0.27426 0.0
C890 C 0.34268 0.57486 0.2623 0.0
C891 C 0.32326 0.58943 0.25104 0.0
C892 C 0.32398 0.6161 0.25282 0.0
C893 C 0.34456 0.62781 0.26466 0.0
C894 C 0.34218 0.54638 0.2614 0.0
C895 C 0.30387 0.63238 0.24074 0.0
C896 C 0.28925 0.56558 0.19287 0.0
C897 C 0.26479 0.56151 0.20219 0.0
C898 C 0.30872 0.57372 0.20885 0.0
C899 C 0.30376 0.57727 0.23491 0.0
C900 C 0.2795 0.5716 0.24472 0.0
C901 C 0.26014 0.56411 0.22814 0.0
C902 C 0.33419 0.58001 0.19751 0.0
C903 C 0.27372 0.57447 0.27251 0.0
H904 H 0.37886 0.57604 0.28113 0.0
H905 H 0.34548 0.64825 0.26518 0.0
H906 H 0.32313 0.53919 0.26649 0.0
H907 H 0.34633 0.53991 0.2419 0.0
H908 H 0.35634 0.53788 0.27436 0.0
H909 H 0.30639 0.65273 0.24518 0.0
H910 H 0.30449 0.62999 0.21991 0.0
H911 H 0.28481 0.62646 0.24715 0.0
H912 H 0.29289 0.56366 0.1728 0.0
H913 H 0.24126 0.56079 0.2354 0.0
H914 H 0.34943 0.56988 0.20771 0.0
H915 H 0.33791 0.60054 0.19953 0.0
H916 H 0.33531 0.57503 0.17714 0.0
H917 H 0.28892 0.56584 0.2841 0.0
H918 H 0.25537 0.56566 0.27767 0.0
H919 H 0.27289 0.59481 0.27744 0.0
C920 C 0.2118 0.42414 0.68692 0.0
C921 C 0.23521 0.42935 0.69819 0.0
C922 C 0.19074 0.41773 0.70163 0.0
C923 C 0.19304 0.417 0.72829 0.0
C924 C 0.21618 0.42389 0.73985 0.0
C925 C 0.23713 0.42975 0.72461 0.0
C926 C 0.16649 0.41019 0.68854 0.0
C927 C 0.21915 0.4239 0.76822 0.0
C928 C 0.13031 0.41101 0.76262 0.0
C929 C 0.12887 0.38481 0.76615 0.0
C930 C 0.15182 0.42207 0.75165 0.0
C931 C 0.172 0.40646 0.74361 0.0
C932 C 0.17101 0.38012 0.74811 0.0
C933 C 0.14955 0.36966 0.75954 0.0
C934 C 0.1525 0.45029 0.74771 0.0
C935 C 0.192 0.36275 0.73955 0.0
H936 H 0.21023 0.42378 0.66649 0.0
H937 H 0.25518 0.43394 0.73338 0.0
H938 H 0.16264 0.38989 0.69205 0.0
H939 H 0.15032 0.42104 0.69628 0.0
H940 H 0.16733 0.4133 0.66779 0.0
H941 H 0.23697 0.43324 0.77427 0.0
H942 H 0.20295 0.43365 0.77731 0.0
H943 H 0.21931 0.40417 0.77525 0.0
H944 H 0.11441 0.4228 0.76788 0.0
H945 H 0.14851 0.34939 0.76223 0.0
H946 H 0.15052 0.45456 0.72728 0.0
H947 H 0.17091 0.45814 0.754 0.0
H948 H 0.13706 0.46005 0.75806 0.0
H949 H 0.1933 0.36308 0.71861 0.0
H950 H 0.18894 0.34293 0.74572 0.0
H951 H 0.21044 0.36932 0.74706 0.0
C952 C 0.78203 0.77055 0.90448 0.0
C953 C 0.78437 0.75994 0.9286 0.0
C954 C 0.76711 0.79199 0.90047 0.0
C955 C 0.75362 0.80265 0.92098 0.0
C956 C 0.75458 0.79102 0.94506 0.0
C957 C 0.77033 0.76996 0.94871 0.0
C958 C 0.76698 0.80404 0.87457 0.0
C959 C 0.73977 0.80135 0.96713 0.0
C960 C 0.744 0.87274 0.91239 0.0
C961 C 0.72081 0.87322 0.89963 0.0
C962 C 0.75423 0.84992 0.92101 0.0
C963 C 0.74057 0.8272 0.91735 0.0
C964 C 0.71605 0.82797 0.90667 0.0
C965 C 0.70659 0.85099 0.89752 0.0
C966 C 0.78063 0.84989 0.93193 0.0
C967 C 0.70053 0.80429 0.90331 0.0
H968 H 0.79294 0.7629 0.88891 0.0
H969 H 0.772 0.76164 0.96735 0.0
H970 H 0.74733 0.80593 0.86753 0.0
H971 H 0.77513 0.82333 0.87572 0.0
H972 H 0.77804 0.79301 0.86053 0.0
H973 H 0.73911 0.78783 0.98317 0.0
H974 H 0.74867 0.81909 0.97385 0.0
H975 H 0.72013 0.80595 0.96133 0.0
H976 H 0.75504 0.88992 0.91402 0.0
H977 H 0.6885 0.8514 0.88789 0.0
H978 H 0.79372 0.84053 0.91847 0.0
H979 H 0.78119 0.83903 0.94983 0.0
H980 H 0.78772 0.86929 0.93565 0.0
H981 H 0.70801 0.79328 0.88712 0.0
H982 H 0.68033 0.80865 0.89953 0.0
H983 H 0.70177 0.79215 0.92036 0.0
C984 C 0.21791 0.63444 0.09887 0.0
C985 C 0.2337 0.61471 0.1067 0.0
C986 C 0.2281 0.65659 0.08844 0.0
C987 C 0.25468 0.65934 0.08677 0.0
C988 C 0.27063 0.63913 0.09407 0.0
C989 C 0.25989 0.61686 0.10356 0.0
C990 C 0.21047 0.67738 0.08005 0.0
C991 C 0.29908 0.64157 0.09331 0.0
C992 C 0.2873 0.71108 0.04919 0.0
C993 C 0.29177 0.72909 0.06806 0.0
C994 C 0.274 0.68876 0.05466 0.0
C995 C 0.26596 0.68406 0.07976 0.0
C996 C 0.27013 0.70245 0.09875 0.0
C997 C 0.2826 0.72494 0.09254 0.0
C998 C 0.26908 0.66998 0.03376 0.0
C999 C 0.2625 0.69788 0.12589 0.0
H1000 H 0.19762 0.63266 0.10118 0.0
H1001 H 0.27209 0.60165 0.10984 0.0
H1002 H 0.2117 0.69347 0.09342 0.0
H1003 H 0.21605 0.68449 0.06112 0.0
H1004 H 0.19049 0.67095 0.07925 0.0
H1005 H 0.30876 0.62375 0.09869 0.0
H1006 H 0.30543 0.64709 0.07412 0.0
H1007 H 0.30519 0.65669 0.10651 0.0
H1008 H 0.29431 0.71439 0.03022 0.0
H1009 H 0.28629 0.73878 0.1072 0.0
H1010 H 0.24891 0.66421 0.03379 0.0
H1011 H 0.28053 0.65273 0.03694 0.0
H1012 H 0.27388 0.67775 0.01485 0.0
H1013 H 0.24195 0.69396 0.1271 0.0
H1014 H 0.26691 0.71423 0.1383 0.0
H1015 H 0.27253 0.68103 0.1333 0.0
C1016 C 0.27237 0.36723 0.58452 0.0
C1017 C 0.27426 0.3669 0.61095 0.0
C1018 C 0.26059 0.34732 0.57148 0.0
C1019 C 0.24999 0.32702 0.58531 0.0
C1020 C 0.25251 0.32632 0.61195 0.0
C1021 C 0.26485 0.34615 0.6244 0.0
C1022 C 0.25879 0.34838 0.54303 0.0
C1023 C 0.24116 0.3052 0.62745 0.0
C1024 C 0.19284 0.29114 0.56169 0.0
C1025 C 0.20323 0.26733 0.55665 0.0
C1026 C 0.20811 0.31119 0.56981 0.0
C1027 C 0.23448 0.30745 0.57245 0.0
C1028 C 0.24533 0.28401 0.56552 0.0
C1029 C 0.22951 0.26408 0.55794 0.0
C1030 C 0.19573 0.33578 0.57731 0.0
C1031 C 0.27344 0.27952 0.56749 0.0
H1032 H 0.2798 0.38319 0.57406 0.0
H1033 H 0.26622 0.34585 0.64485 0.0
H1034 H 0.26483 0.33014 0.53465 0.0
H1035 H 0.23886 0.35156 0.53734 0.0
H1036 H 0.27056 0.36376 0.53494 0.0
H1037 H 0.24554 0.30706 0.64791 0.0
H1038 H 0.22031 0.30511 0.62509 0.0
H1039 H 0.24829 0.28668 0.62076 0.0
H1040 H 0.17253 0.29374 0.56074 0.0
H1041 H 0.23763 0.24573 0.55388 0.0
H1042 H 0.2054 0.35194 0.56813 0.0
H1043 H 0.19744 0.33842 0.59806 0.0
H1044 H 0.17537 0.33633 0.5722 0.0
H1045 H 0.28409 0.29565 0.55937 0.0
H1046 H 0.27928 0.26192 0.55766 0.0
H1047 H 0.27887 0.27793 0.58768 0.0
C1048 C 0.70137 0.20508 0.44658 0.0
C1049 C 0.70451 0.22442 0.42878 0.0
C1050 C 0.71328 0.18162 0.44332 0.0
C1051 C 0.7279 0.1773 0.42134 0.0
C1052 C 0.73221 0.19726 0.40405 0.0
C1053 C 0.72073 0.22073 0.4082 0.0
C1054 C 0.70905 0.16109 0.46264 0.0
C1055 C 0.74731 0.19332 0.38013 0.0
C1056 C 0.76957 0.12032 0.40928 0.0
C1057 C 0.75352 0.10537 0.39441 0.0
C1058 C 0.76095 0.14308 0.41982 0.0
C1059 C 0.73604 0.15133 0.4146 0.0
C1060 C 0.71947 0.13569 0.40053 0.0
C1061 C 0.72833 0.1127 0.39093 0.0
C1062 C 0.77886 0.15882 0.43548 0.0
C1063 C 0.6929 0.144 0.3941 0.0
H1064 H 0.68897 0.20802 0.46264 0.0
H1065 H 0.7231 0.23565 0.39437 0.0
H1066 H 0.69552 0.147 0.45502 0.0
H1067 H 0.727 0.15105 0.46677 0.0
H1068 H 0.70124 0.16869 0.48058 0.0
H1069 H 0.75023 0.21118 0.36951 0.0
H1070 H 0.76604 0.18505 0.38456 0.0
H1071 H 0.73724 0.17976 0.36767 0.0
H1072 H 0.78903 0.11456 0.4121 0.0
H1073 H 0.71594 0.10123 0.37931 0.0
H1074 H 0.76917 0.16624 0.45254 0.0
H1075 H 0.78536 0.17528 0.42426 0.0
H1076 H 0.79574 0.14788 0.44149 0.0
H1077 H 0.68243 0.14907 0.41153 0.0
H1078 H 0.68211 0.12915 0.38392 0.0
H1079 H 0.69364 0.16112 0.38202 0.0
C1080 C 0.13983 0.19155 0.46242 0.0
C1081 C 0.12423 0.19868 0.4826 0.0
C1082 C 0.12966 0.18664 0.43843 0.0
C1083 C 0.10326 0.18891 0.4346 0.0
C1084 C 0.0875 0.19671 0.45475 0.0
C1085 C 0.09819 0.20152 0.47854 0.0
C1086 C 0.14708 0.17844 0.41736 0.0
C1087 C 0.05927 0.19936 0.45135 0.0
C1088 C 0.07952 0.19318 0.36698 0.0
C1089 C 0.07258 0.16808 0.36219 0.0
C1090 C 0.08927 0.20035 0.39059 0.0
C1091 C 0.09205 0.18196 0.40981 0.0
C1092 C 0.08464 0.15669 0.4052 0.0
C1093 C 0.07502 0.15005 0.38142 0.0
C1094 C 0.09701 0.22747 0.39485 0.0
C1095 C 0.08723 0.13657 0.42527 0.0
H1096 H 0.15999 0.18938 0.46547 0.0
H1097 H 0.08606 0.20708 0.49409 0.0
H1098 H 0.14218 0.15897 0.41132 0.0
H1099 H 0.14464 0.19091 0.40069 0.0
H1100 H 0.16728 0.17878 0.42311 0.0
H1101 H 0.04984 0.20684 0.46856 0.0
H1102 H 0.05509 0.21214 0.43528 0.0
H1103 H 0.05092 0.18069 0.44676 0.0
H1104 H 0.07767 0.20718 0.35215 0.0
H1105 H 0.06964 0.13062 0.37781 0.0
H1106 H 0.11756 0.22845 0.39893 0.0
H1107 H 0.08699 0.23528 0.41153 0.0
H1108 H 0.09289 0.23961 0.37823 0.0
H1109 H 0.10741 0.13439 0.43058 0.0
H1110 H 0.07992 0.11796 0.41888 0.0
H1111 H 0.07682 0.14227 0.44256 0.0
C1112 C 0.35302 0.79943 0.96583 0.0
C1113 C 0.36963 0.79707 0.98634 0.0
C1114 C 0.36213 0.80416 0.94139 0.0
C1115 C 0.38849 0.80663 0.93741 0.0
C1116 C 0.40539 0.80371 0.95795 0.0
C1117 C 0.39575 0.79894 0.9822 0.0
C1118 C 0.34353 0.8071 0.91993 0.0
C1119 C 0.43361 0.80621 0.95442 0.0
C1120 C 0.41302 0.80113 0.87013 0.0
C1121 C 0.41528 0.82658 0.86319 0.0
C1122 C 0.40455 0.7943 0.89433 0.0
C1123 C 0.39824 0.81341 0.91196 0.0
C1124 C 0.40078 0.83913 0.90513 0.0
C1125 C 0.40925 0.8454 0.88081 0.0
C1126 C 0.40205 0.76668 0.90096 0.0
C1127 C 0.39429 0.86005 0.92343 0.0
H1128 H 0.33281 0.79794 0.96892 0.0
H1129 H 0.40867 0.79711 -0.002 0.0
H1130 H 0.34467 0.82653 0.9122 0.0
H1131 H 0.34832 0.79392 0.90435 0.0
H1132 H 0.32374 0.80346 0.92597 0.0
H1133 H 0.44425 0.80222 0.97208 0.0
H1134 H 0.44022 0.79309 0.93947 0.0
H1135 H 0.43825 0.82565 0.94809 0.0
H1136 H 0.41767 0.78651 0.85656 0.0
H1137 H 0.41099 0.86511 0.87556 0.0
H1138 H 0.38207 0.76225 0.90555 0.0
H1139 H 0.41345 0.76234 0.91801 0.0
H1140 H 0.40828 0.75415 0.88531 0.0
H1141 H 0.37406 0.85874 0.92885 0.0
H1142 H 0.39783 0.87909 0.91535 0.0
H1143 H 0.40559 0.85802 0.94098 0.0
C1144 C 0.64365 0.30434 0.51671 0.0
C1145 C 0.62812 0.29397 0.49792 0.0
C1146 C 0.63477 0.30756 0.54146 0.0
C1147 C 0.60974 0.30025 0.54752 0.0
C1148 C 0.59406 0.28948 0.52871 0.0
C1149 C 0.60346 0.28647 0.50408 0.0
C1150 C 0.65205 0.31912 0.56103 0.0
C1151 C 0.56727 0.2815 0.53451 0.0
C1152 C 0.59515 0.29191 0.6173 0.0
C1153 C 0.58466 0.31545 0.62331 0.0
C1154 C 0.60281 0.28638 0.5925 0.0
C1155 C 0.59979 0.30483 0.57336 0.0
C1156 C 0.58844 0.32831 0.57921 0.0
C1157 C 0.58106 0.33335 0.60413 0.0
C1158 C 0.61485 0.26114 0.58693 0.0
C1159 C 0.58479 0.34841 0.55928 0.0
H1160 H 0.66276 0.3101 0.51205 0.0
H1161 H 0.5914 0.27838 0.4896 0.0
H1162 H 0.64383 0.33708 0.56803 0.0
H1163 H 0.65388 0.30629 0.5775 0.0
H1164 H 0.67124 0.32306 0.55343 0.0
H1165 H 0.55783 0.27263 0.51798 0.0
H1166 H 0.56712 0.26789 0.55045 0.0
H1167 H 0.55603 0.29814 0.54048 0.0
H1168 H 0.59795 0.27802 0.63209 0.0
H1169 H 0.57284 0.35154 0.60867 0.0
H1170 H 0.63484 0.26396 0.58122 0.0
H1171 H 0.60506 0.25182 0.5709 0.0
H1172 H 0.61439 0.2483 0.60352 0.0
H1173 H 0.60347 0.35483 0.55221 0.0
H1174 H 0.57435 0.36507 0.56661 0.0
H1175 H 0.57427 0.34058 0.54291 0.0
C1176 C 0.90972 0.6984 0.12998 0.0
C1177 C 0.9219 0.67507 0.13294 0.0
C1178 C 0.9009 0.7062 0.10621 0.0
C1179 C 0.90434 0.69025 0.08501 0.0
C1180 C 0.91757 0.66718 0.08774 0.0
C1181 C 0.9262 0.65988 0.11169 0.0
C1182 C 0.88701 0.731 0.10396 0.0
C1183 C 0.92166 0.64968 0.06556 0.0
C1184 C 0.85755 0.69193 0.03085 0.0
C1185 C 0.87142 0.70449 0.01211 0.0
C1186 C 0.86782 0.68785 0.05492 0.0
C1187 C 0.89252 0.69661 0.06037 0.0
C1188 C 0.9063 0.71004 0.04179 0.0
C1189 C 0.89558 0.71378 0.01781 0.0
C1190 C 0.85253 0.67343 0.07425 0.0
C1191 C 0.93262 0.71978 0.047 0.0
H1192 H 0.90642 0.71024 0.14637 0.0
H1193 H 0.9357 0.64187 0.11386 0.0
H1194 H 0.89491 0.74238 0.08822 0.0
H1195 H 0.86683 0.72738 0.09953 0.0
H1196 H 0.88804 0.74228 0.12164 0.0
H1197 H 0.93378 0.63328 0.07051 0.0
H1198 H 0.90316 0.64249 0.05876 0.0
H1199 H 0.93058 0.66003 0.04966 0.0
H1200 H 0.83883 0.68477 0.02655 0.0
H1201 H 0.90633 0.72358 0.00337 0.0
H1202 H 0.85102 0.68448 0.09201 0.0
H1203 H 0.86222 0.65544 0.07891 0.0
H1204 H 0.83316 0.66901 0.06744 0.0
H1205 H 0.93279 0.73119 0.06459 0.0
H1206 H 0.94001 0.73153 0.03125 0.0
H1207 H 0.94566 0.70365 0.04995 0.0
C1208 C 0.37027 0.0856 0.14398 0.0
C1209 C 0.35404 0.07785 0.16343 0.0
C1210 C 0.39529 0.0927 0.1491 0.0
C1211 C 0.40429 0.09199 0.17428 0.0
C1212 C 0.38807 0.08396 0.19399 0.0
C1213 C 0.36309 0.07699 0.18833 0.0
C1214 C 0.41203 0.10119 0.12758 0.0
C1215 C 0.39704 0.08293 0.22107 0.0
C1216 C 0.47548 0.09071 0.18355 0.0
C1217 C 0.48068 0.11617 0.18862 0.0
C1218 C 0.45063 0.08247 0.17923 0.0
C1219 C 0.43057 0.10015 0.17998 0.0
C1220 C 0.43568 0.12582 0.18542 0.0
C1221 C 0.4607 0.13352 0.18969 0.0
C1222 C 0.44587 0.05494 0.17351 0.0
C1223 C 0.41478 0.14522 0.18636 0.0
H1224 H 0.36337 0.08629 0.1247 0.0
H1225 H 0.3506 0.07097 0.20342 0.0
H1226 H 0.41835 0.12091 0.13083 0.0
H1227 H 0.42923 0.08924 0.12669 0.0
H1228 H 0.40226 0.10026 0.10901 0.0
H1229 H 0.38223 0.07574 0.23411 0.0
H1230 H 0.41391 0.07058 0.22257 0.0
H1231 H 0.4028 0.10207 0.22739 0.0
H1232 H 0.49088 0.07723 0.18274 0.0
H1233 H 0.46462 0.15322 0.19364 0.0
H1234 H 0.43761 0.05299 0.15433 0.0
H1235 H 0.43195 0.04708 0.18709 0.0
H1236 H 0.46343 0.04347 0.17445 0.0
H1237 H 0.40536 0.14643 0.16766 0.0
H1238 H 0.42185 0.16429 0.19155 0.0
H1239 H 0.40021 0.13946 0.2003 0.0
C1240 C 0.02701 0.8534 0.69111 0.0
C1241 C 0.00708 0.87001 0.69648 0.0
C1242 C 0.0514 0.86251 0.68604 0.0
C1243 C 0.05597 0.88885 0.68639 0.0
C1244 C 0.03602 0.90569 0.69226 0.0
C1245 C 0.01178 0.89606 0.69721 0.0
C1246 C 0.07217 0.84395 0.67985 0.0
C1247 C 0.0402 0.93389 0.69285 0.0
C1248 C 0.12443 0.91009 0.69161 0.0
C1249 C 0.13046 0.91489 0.66626 0.0
C1250 C 0.10009 0.90205 0.69855 0.0
C1251 C 0.08141 0.89873 0.67966 0.0
C1252 C 0.08729 0.90402 0.65409 0.0
C1253 C 0.11174 0.91204 0.64771 0.0
C1254 C 0.09449 0.89664 0.726 0.0
C1255 C 0.06788 0.90072 0.6334 0.0
H1256 H 0.02349 0.83325 0.69055 0.0
H1257 H 0.99644 0.90897 0.70141 0.0
H1258 H 0.0792 0.84738 0.66039 0.0
H1259 H 0.08838 0.84664 0.69288 0.0
H1260 H 0.06571 0.82403 0.68119 0.0
H1261 H 0.02299 0.94435 0.69877 0.0
H1262 H 0.05581 0.93859 0.70605 0.0
H1263 H 0.04591 0.94061 0.67383 0.0
H1264 H 0.13884 0.91229 0.70603 0.0
H1265 H 0.11629 0.91576 0.62808 0.0
H1266 H 0.08971 0.87638 0.72839 0.0
H1267 H 0.07784 0.90771 0.7323 0.0
H1268 H 0.11075 0.9012 0.7385 0.0
H1269 H 0.06193 0.88065 0.63238 0.0
H1270 H 0.07522 0.90648 0.61459 0.0
H1271 H 0.05077 0.91205 0.63769 0.0
C1272 C 0.98496 0.40562 0.78568 0.0
C1273 C 0.98868 0.37942 0.78648 0.0
C1274 C 0.96086 0.41604 0.78947 0.0
C1275 C 0.94012 0.39982 0.79423 0.0
C1276 C 0.94363 0.37333 0.79411 0.0
C1277 C 0.96789 0.36345 0.79021 0.0
C1278 C 0.95776 0.44438 0.78931 0.0
C1279 C 0.92196 0.35542 0.7991 0.0
C1280 C 0.88504 0.42247 0.83386 0.0
C1281 C 0.86622 0.42593 0.81554 0.0
C1282 C 0.90942 0.41474 0.82704 0.0
C1283 C 0.91511 0.41042 0.80126 0.0
C1284 C 0.89646 0.41473 0.78256 0.0
C1285 C 0.87216 0.42242 0.78995 0.0
C1286 C 0.92883 0.41037 0.84752 0.0
C1287 C 0.90193 0.41044 0.75489 0.0
H1288 H 0.00098 0.41803 0.7827 0.0
H1289 H 0.97066 0.34317 0.79074 0.0
H1290 H 0.94198 0.4499 0.77665 0.0
H1291 H 0.95291 0.45102 0.8086 0.0
H1292 H 0.97523 0.45423 0.78306 0.0
H1293 H 0.92754 0.33533 0.79677 0.0
H1294 H 0.91492 0.35815 0.81868 0.0
H1295 H 0.90601 0.35949 0.78611 0.0
H1296 H 0.88056 0.42525 0.85366 0.0
H1297 H 0.85766 0.42515 0.77572 0.0
H1298 H 0.94629 0.42124 0.84343 0.0
H1299 H 0.93409 0.39009 0.84803 0.0
H1300 H 0.92178 0.4159 0.86651 0.0
H1301 H 0.9193 0.42074 0.74922 0.0
H1302 H 0.88607 0.41662 0.7426 0.0
H1303 H 0.90542 0.39006 0.75149 0.0
C1304 C 0.5249 0.63986 0.29801 0.0
C1305 C 0.50455 0.62352 0.29347 0.0
C1306 C 0.54954 0.63052 0.3008 0.0
C1307 C 0.55389 0.60422 0.29895 0.0
C1308 C 0.53353 0.58768 0.29366 0.0
C1309 C 0.50905 0.59755 0.29101 0.0
C1310 C 0.57078 0.64874 0.30644 0.0
C1311 C 0.5375 0.55954 0.29146 0.0
C1312 C 0.62188 0.58302 0.28973 0.0
C1313 C 0.62898 0.5772 0.31459 0.0
C1314 C 0.59729 0.59136 0.28421 0.0
C1315 C 0.57952 0.59396 0.30405 0.0
C1316 C 0.58648 0.58765 0.3291 0.0
C1317 C 0.61113 0.57932 0.33405 0.0
C1318 C 0.59047 0.59785 0.25728 0.0
C1319 C 0.56805 0.59019 0.35076 0.0
H1320 H 0.52152 0.65996 0.29985 0.0
H1321 H 0.49336 0.58485 0.28741 0.0
H1322 H 0.57874 0.64468 0.32542 0.0
H1323 H 0.58629 0.64632 0.29254 0.0
H1324 H 0.56445 0.66873 0.30601 0.0
H1325 H 0.52 0.54946 0.28568 0.0
H1326 H 0.55258 0.55542 0.27748 0.0
H1327 H 0.54385 0.55186 0.30991 0.0
H1328 H 0.63563 0.58136 0.27463 0.0
H1329 H 0.61652 0.57481 0.3533 0.0
H1330 H 0.58581 0.61823 0.25588 0.0
H1331 H 0.57343 0.58717 0.25136 0.0
H1332 H 0.60608 0.59363 0.24387 0.0
H1333 H 0.56225 0.61022 0.35282 0.0
H1334 H 0.57621 0.58371 0.36899 0.0
H1335 H 0.55071 0.57906 0.34684 0.0
C1336 C 0.13823 0.37906 0.08441 0.0
C1337 C 0.15572 0.35989 0.07918 0.0
C1338 C 0.14633 0.40302 0.09226 0.0
C1339 C 0.17253 0.4079 0.09482 0.0
C1340 C 0.19028 0.38874 0.08915 0.0
C1341 C 0.18165 0.36491 0.08143 0.0
C1342 C 0.12683 0.423 0.0982 0.0
C1343 C 0.21837 0.39332 0.09157 0.0
C1344 C 0.1926 0.47668 0.09599 0.0
C1345 C 0.19499 0.48107 0.12201 0.0
C1346 C 0.18582 0.45276 0.0868 0.0
C1347 C 0.18125 0.43289 0.10409 0.0
C1348 C 0.18417 0.43709 0.13035 0.0
C1349 C 0.19107 0.46115 0.139 0.0
C1350 C 0.18302 0.44891 0.05866 0.0
C1351 C 0.17942 0.41634 0.14935 0.0
H1352 H 0.11817 0.37524 0.08269 0.0
H1353 H 0.19524 0.35014 0.07735 0.0
H1354 H 0.12845 0.42874 0.1183 0.0
H1355 H 0.13029 0.44007 0.08654 0.0
H1356 H 0.10722 0.41634 0.0947 0.0
H1357 H 0.2297 0.37671 0.08559 0.0
H1358 H 0.224 0.40981 0.07992 0.0
H1359 H 0.22314 0.39786 0.11148 0.0
H1360 H 0.19567 0.49202 0.08279 0.0
H1361 H 0.19289 0.46448 0.15914 0.0
H1362 H 0.16312 0.4441 0.05411 0.0
H1363 H 0.1949 0.43283 0.05236 0.0
H1364 H 0.18846 0.46596 0.0477 0.0
H1365 H 0.15942 0.41011 0.14819 0.0
H1366 H 0.18338 0.42247 0.16904 0.0
H1367 H 0.19139 0.39971 0.14498 0.0
C1368 C 0.70596 0.03056 0.86585 0.0
C1369 C 0.70693 0.01021 0.88274 0.0
C1370 C 0.70315 0.05536 0.87468 0.0
C1371 C 0.70147 0.05986 0.901 0.0
C1372 C 0.70371 0.0395 0.91818 0.0
C1373 C 0.7063 0.01485 0.90882 0.0
C1374 C 0.70072 0.07659 0.85577 0.0
C1375 C 0.70226 0.04362 0.94638 0.0
C1376 C 0.70668 0.12813 0.92256 0.0
C1377 C 0.68112 0.13488 0.92444 0.0
C1378 C 0.71373 0.10351 0.91562 0.0
C1379 C 0.69472 0.08542 0.91032 0.0
C1380 C 0.66892 0.09202 0.91284 0.0
C1381 C 0.66246 0.11663 0.91994 0.0
C1382 C 0.74142 0.09701 0.91335 0.0
C1383 C 0.64808 0.07328 0.90731 0.0
H1384 H 0.70655 0.02705 0.84567 0.0
H1385 H 0.70726 -0.00084 0.92194 0.0
H1386 H 0.68132 0.08452 0.8566 0.0
H1387 H 0.71404 0.09208 0.86046 0.0
H1388 H 0.70446 0.07022 0.83611 0.0
H1389 H 0.70721 0.02632 0.95718 0.0
H1390 H 0.71516 0.05909 0.95219 0.0
H1391 H 0.68279 0.04938 0.95164 0.0
H1392 H 0.72117 0.14219 0.92608 0.0
H1393 H 0.64266 0.12173 0.92142 0.0
H1394 H 0.74606 0.09276 0.89335 0.0
H1395 H 0.74575 0.07982 0.92453 0.0
H1396 H 0.75382 0.11262 0.91992 0.0
H1397 H 0.64909 0.06728 0.88724 0.0
H1398 H 0.62898 0.08122 0.91094 0.0
H1399 H 0.6505 0.05613 0.9191 0.0
C1400 C 0.78206 0.97301 0.40202 0.0
C1401 C 0.78309 0.97668 0.37579 0.0
C1402 C 0.78692 0.94921 0.41262 0.0
C1403 C 0.79278 0.92867 0.39655 0.0
C1404 C 0.79273 0.93204 0.37 0.0
C1405 C 0.78797 0.95606 0.35994 0.0
C1406 C 0.78686 0.94633 0.44101 0.0
C1407 C 0.79866 0.91051 0.35225 0.0
C1408 C 0.83459 0.87546 0.41973 0.0
C1409 C 0.81697 0.85612 0.42377 0.0
C1410 C 0.82682 0.89944 0.4117 0.0
C1411 C 0.80082 0.90409 0.4074 0.0
C1412 C 0.78284 0.88487 0.4122 0.0
C1413 C 0.79115 0.86108 0.42044 0.0
C1414 C 0.84654 0.91956 0.40704 0.0
C1415 C 0.75497 0.88915 0.40775 0.0
H1416 H 0.77827 0.98891 0.41434 0.0
H1417 H 0.78865 0.9588 0.33964 0.0
H1418 H 0.77489 0.93009 0.44668 0.0
H1419 H 0.80635 0.94236 0.44769 0.0
H1420 H 0.77987 0.96356 0.45074 0.0
H1421 H 0.79594 0.91579 0.33211 0.0
H1422 H 0.81857 0.90447 0.35491 0.0
H1423 H 0.78647 0.894 0.35655 0.0
H1424 H 0.85457 0.87173 0.42242 0.0
H1425 H 0.77747 0.84615 0.42352 0.0
H1426 H 0.84169 0.937 0.41759 0.0
H1427 H 0.84694 0.92447 0.38665 0.0
H1428 H 0.86578 0.91338 0.41278 0.0
H1429 H 0.74855 0.90636 0.41784 0.0
H1430 H 0.74331 0.87289 0.41409 0.0
H1431 H 0.75152 0.89227 0.3873 0.0
C1432 C 0.30973 0.52334 0.64413 0.0
C1433 C 0.30808 0.50343 0.62675 0.0
C1434 C 0.31422 0.54814 0.63599 0.0
C1435 C 0.31732 0.55305 0.60987 0.0
C1436 C 0.31552 0.53304 0.59223 0.0
C1437 C 0.31082 0.50845 0.60088 0.0
C1438 C 0.31582 0.56905 0.65534 0.0
C1439 C 0.31887 0.53757 0.56424 0.0
C1440 C 0.30807 0.62023 0.58672 0.0
C1441 C 0.33308 0.62891 0.58535 0.0
C1442 C 0.30266 0.59553 0.59461 0.0
C1443 C 0.32276 0.57912 0.60107 0.0
C1444 C 0.34806 0.58769 0.59942 0.0
C1445 C 0.35292 0.61255 0.59167 0.0
C1446 C 0.27543 0.58708 0.59631 0.0
C1447 C 0.36999 0.57065 0.60599 0.0
H1448 H 0.30758 0.51954 0.66415 0.0
H1449 H 0.30962 0.49309 0.58739 0.0
H1450 H 0.3348 0.57796 0.65466 0.0
H1451 H 0.30178 0.58397 0.65093 0.0
H1452 H 0.31237 0.56216 0.67487 0.0
H1453 H 0.31667 0.51999 0.55299 0.0
H1454 H 0.30485 0.5516 0.55751 0.0
H1455 H 0.33793 0.54554 0.56056 0.0
H1456 H 0.29268 0.63284 0.58191 0.0
H1457 H 0.37228 0.61919 0.59058 0.0
H1458 H 0.27094 0.58147 0.61602 0.0
H1459 H 0.27236 0.57025 0.5842 0.0
H1460 H 0.26202 0.6021 0.59041 0.0
H1461 H 0.36856 0.56461 0.62602 0.0
H1462 H 0.38856 0.58004 0.60314 0.0
H1463 H 0.36936 0.55333 0.5942 0.0
C1464 C 0.85441 0.79203 0.53073 0.0
C1465 C 0.87073 0.79126 0.50988 0.0
C1466 C 0.86365 0.79704 0.55507 0.0
C1467 C 0.88983 0.80143 0.55859 0.0
C1468 C 0.90648 0.80012 0.53769 0.0
C1469 C 0.89672 0.79503 0.51355 0.0
C1470 C 0.84533 0.79821 0.57694 0.0
C1471 C 0.9345 0.80469 0.54072 0.0
C1472 C 0.90847 0.84057 0.61567 0.0
C1473 C 0.91605 0.82192 0.63286 0.0
C1474 C 0.90027 0.83416 0.5913 0.0
C1475 C 0.89958 0.80846 0.58398 0.0
C1476 C 0.9076 0.78955 0.6011 0.0
C1477 C 0.91578 0.79652 0.62537 0.0
C1478 C 0.89194 0.85487 0.57352 0.0
C1479 C 0.90712 0.76195 0.59394 0.0
H1480 H 0.83432 0.78907 0.52799 0.0
H1481 H 0.90942 0.79442 0.49748 0.0
H1482 H 0.8514 0.78512 0.59214 0.0
H1483 H 0.84522 0.81752 0.58506 0.0
H1484 H 0.82574 0.79324 0.57121 0.0
H1485 H 0.94503 0.80183 0.52278 0.0
H1486 H 0.9378 0.82429 0.54735 0.0
H1487 H 0.94239 0.79183 0.55527 0.0
H1488 H 0.90868 0.86024 0.62136 0.0
H1489 H 0.92161 0.78203 0.63861 0.0
H1490 H 0.87174 0.85225 0.56852 0.0
H1491 H 0.90295 0.85392 0.5557 0.0
H1492 H 0.89434 0.87397 0.58187 0.0
H1493 H 0.88742 0.75604 0.58981 0.0
H1494 H 0.91477 0.74966 0.60914 0.0
H1495 H 0.91833 0.75884 0.57649 0.0
C1496 C 0.59965 0.20387 0.01066 0.0
C1497 C 0.62595 0.20268 0.00757 0.0
C1498 C 0.58841 0.19818 0.03401 0.0
C1499 C 0.60388 0.19113 0.05468 0.0
C1500 C 0.63049 0.19067 0.05185 0.0
C1501 C 0.64121 0.19646 0.02832 0.0
C1502 C 0.55997 0.19897 0.03638 0.0
C1503 C 0.64763 0.1833 0.07346 0.0
C1504 C 0.57902 0.19219 0.12199 0.0
C1505 C 0.5741 0.16652 0.12623 0.0
C1506 C 0.58808 0.20063 0.09853 0.0
C1507 C 0.59232 0.18295 0.07893 0.0
C1508 C 0.58672 0.1571 0.0829 0.0
C1509 C 0.57766 0.1492 0.10652 0.0
C1510 C 0.59376 0.22835 0.09494 0.0
C1511 C 0.59098 0.13767 0.06244 0.0
H1512 H 0.58779 0.2087 0.99466 0.0
H1513 H 0.66156 0.19557 0.02604 0.0
H1514 H 0.55265 0.17967 0.04002 0.0
H1515 H 0.55438 0.2109 0.05268 0.0
H1516 H 0.55075 0.20644 0.01905 0.0
H1517 H 0.66796 0.18509 0.06851 0.0
H1518 H 0.64373 0.19529 0.09021 0.0
H1519 H 0.64384 0.16345 0.079 0.0
H1520 H 0.57625 0.20566 0.13717 0.0
H1521 H 0.57383 0.12934 0.10969 0.0
H1522 H 0.58399 0.23559 0.07786 0.0
H1523 H 0.61435 0.231 0.09192 0.0
H1524 H 0.58789 0.23987 0.11148 0.0
H1525 H 0.58082 0.14322 0.04495 0.0
H1526 H 0.58453 0.11854 0.06815 0.0
H1527 H 0.61141 0.13671 0.05775 0.0
C1528 C 0.42092 0.65781 0.38562 0.0
C1529 C 0.41667 0.67473 0.3657 0.0
C1530 C 0.4136 0.66375 0.41037 0.0
C1531 C 0.40157 0.68711 0.41528 0.0
C1532 C 0.39788 0.7046 0.39538 0.0
C1533 C 0.40557 0.69822 0.37078 0.0
C1534 C 0.41805 0.64468 0.43113 0.0
C1535 C 0.38504 0.72965 0.3999 0.0
C1536 C 0.35809 0.68769 0.47223 0.0
C1537 C 0.37337 0.69906 0.49064 0.0
C1538 C 0.36683 0.68431 0.44745 0.0
C1539 C 0.3915 0.69243 0.44096 0.0
C1540 C 0.40683 0.70443 0.45932 0.0
C1541 C 0.39755 0.70765 0.48398 0.0
C1542 C 0.34987 0.67152 0.42837 0.0
C1543 C 0.43324 0.71328 0.45308 0.0
H1544 H 0.42964 0.63968 0.3818 0.0
H1545 H 0.40224 0.71135 0.35542 0.0
H1546 H 0.4283 0.65359 0.44711 0.0
H1547 H 0.39963 0.63789 0.43854 0.0
H1548 H 0.42908 0.62812 0.42449 0.0
H1549 H 0.38515 0.74182 0.3828 0.0
H1550 H 0.36514 0.72643 0.40569 0.0
H1551 H 0.39449 0.73992 0.41556 0.0
H1552 H 0.33934 0.68111 0.47726 0.0
H1553 H 0.40942 0.71648 0.49816 0.0
H1554 H 0.35853 0.65346 0.42219 0.0
H1555 H 0.34778 0.68356 0.41134 0.0
H1556 H 0.33077 0.66746 0.43611 0.0
H1557 H 0.44523 0.69682 0.44811 0.0
H1558 H 0.44222 0.72348 0.46909 0.0
H1559 H 0.43288 0.72594 0.43638 0.0
C1560 C 0.07972 0.29977 0.98085 0.0
C1561 C 0.10544 0.29638 0.98628 0.0
C1562 C 0.07162 0.305 0.95612 0.0
C1563 C 0.08971 0.30689 0.93649 0.0
C1564 C 0.11563 0.30289 0.94179 0.0
C1565 C 0.12317 0.29766 0.96663 0.0
C1566 C 0.04382 0.30907 0.95111 0.0
C1567 C 0.13548 0.30475 0.92135 0.0
C1568 C 0.0709 0.30263 0.8674 0.0
C1569 C 0.07128 0.32812 0.86025 0.0
C1570 C 0.07608 0.29543 0.89239 0.0
C1571 C 0.08185 0.3142 0.91056 0.0
C1572 C 0.0816 0.34 0.90358 0.0
C1573 C 0.07628 0.34665 0.8785 0.0
C1574 C 0.07608 0.26775 0.89921 0.0
C1575 C 0.08768 0.36055 0.92243 0.0
H1576 H 0.06595 0.29875 0.996 0.0
H1577 H 0.14308 0.29499 0.97072 0.0
H1578 H 0.0406 0.32878 0.94478 0.0
H1579 H 0.03731 0.29647 0.93567 0.0
H1580 H 0.03204 0.3055 0.96813 0.0
H1581 H 0.15471 0.30013 0.92843 0.0
H1582 H 0.13085 0.29174 0.90558 0.0
H1583 H 0.13577 0.32418 0.9135 0.0
H1584 H 0.06693 0.28824 0.85335 0.0
H1585 H 0.07652 0.36638 0.87308 0.0
H1586 H 0.06371 0.26436 0.9158 0.0
H1587 H 0.09546 0.26181 0.90457 0.0
H1588 H 0.06952 0.25566 0.88333 0.0
H1589 H 0.07526 0.35886 0.93924 0.0
H1590 H 0.08538 0.37975 0.91429 0.0
H1591 H 0.10747 0.35845 0.92906 0.0
C1592 C 0.61187 0.92731 0.84783 0.0
C1593 C 0.63204 0.92387 0.83098 0.0
C1594 C 0.58725 0.91986 0.84135 0.0
C1595 C 0.58271 0.90877 0.81743 0.0
C1596 C 0.60282 0.90619 0.79995 0.0
C1597 C 0.62728 0.91374 0.80696 0.0
C1598 C 0.56631 0.92291 0.86052 0.0
C1599 C 0.59868 0.89458 0.77421 0.0
C1600 C 0.5279 0.86281 0.81289 0.0
C1601 C 0.50907 0.8777 0.8017 0.0
C1602 C 0.55196 0.87269 0.81793 0.0
C1603 C 0.55739 0.89807 0.81152 0.0
C1604 C 0.53855 0.91316 0.79996 0.0
C1605 C 0.51454 0.90279 0.79524 0.0
C1606 C 0.57151 0.85602 0.83037 0.0
C1607 C 0.54371 0.94025 0.79277 0.0
H1608 H 0.61543 0.9352 0.8664 0.0
H1609 H 0.64279 0.91113 0.79383 0.0
H1610 H 0.54999 0.9329 0.85195 0.0
H1611 H 0.55953 0.90403 0.86661 0.0
H1612 H 0.57256 0.93354 0.87751 0.0
H1613 H 0.61576 0.8959 0.76206 0.0
H1614 H 0.59358 0.87436 0.77636 0.0
H1615 H 0.5827 0.904 0.76444 0.0
H1616 H 0.52378 0.8434 0.81794 0.0
H1617 H 0.50004 0.91436 0.78655 0.0
H1618 H 0.57744 0.86439 0.84866 0.0
H1619 H 0.5886 0.85473 0.81828 0.0
H1620 H 0.56434 0.83662 0.83392 0.0
H1621 H 0.54856 0.95136 0.80988 0.0
H1622 H 0.52725 0.94925 0.78335 0.0
H1623 H 0.56022 0.94124 0.77986 0.0
C1624 C 0.87398 0.06622 0.34314 0.0
C1625 C 0.85476 0.0665 0.3249 0.0
C1626 C 0.89842 0.07466 0.33734 0.0
C1627 C 0.90373 0.08363 0.31271 0.0
C1628 C 0.8846 0.08325 0.29398 0.0
C1629 C 0.86029 0.07467 0.30031 0.0
C1630 C 0.91835 0.0747 0.3578 0.0
C1631 C 0.88961 0.09263 0.2675 0.0
C1632 C 0.95746 0.13071 0.30718 0.0
C1633 C 0.97735 0.11535 0.29883 0.0
C1634 C 0.93329 0.12067 0.31135 0.0
C1635 C 0.92893 0.09465 0.30703 0.0
C1636 C 0.94883 0.07911 0.29819 0.0
C1637 C 0.97285 0.08967 0.29421 0.0
C1638 C 0.91253 0.13783 0.32079 0.0
C1639 C 0.94484 0.0513 0.29336 0.0
H1640 H 0.86981 0.05984 0.36216 0.0
H1641 H 0.84548 0.07489 0.28615 0.0
H1642 H 0.93543 0.06444 0.35128 0.0
H1643 H 0.92415 0.09439 0.36199 0.0
H1644 H 0.91154 0.06583 0.37557 0.0
H1645 H 0.87319 0.0896 0.25475 0.0
H1646 H 0.89399 0.11312 0.268 0.0
H1647 H 0.90633 0.08291 0.2594 0.0
H1648 H 0.96083 0.15058 0.31074 0.0
H1649 H 0.98818 0.07774 0.28769 0.0
H1650 H 0.90594 0.13134 0.33961 0.0
H1651 H 0.89606 0.13704 0.30781 0.0
H1652 H 0.91882 0.15778 0.32244 0.0
H1653 H 0.93959 0.04169 0.31124 0.0
H1654 H 0.962 0.04204 0.28556 0.0
H1655 H 0.92898 0.0485 0.27993 0.0
C1656 C 0.11594 0.57974 0.15153 0.0
C1657 C 0.13368 0.57365 0.17023 0.0
C1658 C 0.09157 0.58785 0.15801 0.0
C1659 C 0.08476 0.58975 0.18381 0.0
C1660 C 0.10244 0.5832 0.20279 0.0
C1661 C 0.12678 0.5753 0.19577 0.0
C1662 C 0.07325 0.59478 0.13723 0.0
C1663 C 0.09574 0.58484 0.23049 0.0
C1664 C 0.03079 0.63445 0.19854 0.0
C1665 C 0.01019 0.61783 0.19974 0.0
C1666 C 0.0553 0.62547 0.194 0.0
C1667 C 0.05929 0.59924 0.19078 0.0
C1668 C 0.03869 0.58229 0.19283 0.0
C1669 C 0.01433 0.59181 0.19719 0.0
C1670 C 0.0768 0.64414 0.19183 0.0
C1671 C 0.04228 0.55417 0.18972 0.0
H1672 H 0.1212 0.57851 0.13177 0.0
H1673 H 0.14044 0.57054 0.21028 0.0
H1674 H 0.05578 0.58331 0.1389 0.0
H1675 H 0.06768 0.61489 0.1391 0.0
H1676 H 0.08139 0.59185 0.11809 0.0
H1677 H 0.11132 0.57815 0.24286 0.0
H1678 H 0.09124 0.60466 0.23555 0.0
H1679 H 0.07861 0.5734 0.23443 0.0
H1680 H 0.02767 0.65459 0.20052 0.0
H1681 H -0.00154 0.57889 0.19821 0.0
H1682 H 0.08467 0.64361 0.17239 0.0
H1683 H 0.09229 0.63894 0.20497 0.0
H1684 H 0.07074 0.66377 0.19605 0.0
H1685 H 0.04846 0.54997 0.17013 0.0
H1686 H 0.02466 0.54343 0.19361 0.0
H1687 H 0.05734 0.54733 0.20261 0.0
C1688 C 0.37806 0.4012 0.69675 0.0
C1689 C 0.37223 0.40868 0.67201 0.0
C1690 C 0.40238 0.3926 0.70296 0.0
C1691 C 0.4212 0.39154 0.68396 0.0
C1692 C 0.41551 0.39954 0.65908 0.0
C1693 C 0.39108 0.40799 0.6534 0.0
C1694 C 0.40782 0.3842 0.72968 0.0
C1695 C 0.43512 0.39874 0.63833 0.0
C1696 C 0.49093 0.38805 0.70023 0.0
C1697 C 0.49606 0.36245 0.69588 0.0
C1698 C 0.4664 0.39768 0.69724 0.0
C1699 C 0.44666 0.38128 0.68971 0.0
C1700 C 0.4516 0.35527 0.68607 0.0
C1701 C 0.47627 0.34616 0.6892 0.0
C1702 C 0.4618 0.42552 0.70134 0.0
C1703 C 0.43098 0.3372 0.67808 0.0
H1704 H 0.36352 0.40172 0.71118 0.0
H1705 H 0.38667 0.41383 0.63426 0.0
H1706 H 0.41274 0.36384 0.72983 0.0
H1707 H 0.42434 0.39463 0.73732 0.0
H1708 H 0.39144 0.38722 0.74247 0.0
H1709 H 0.42786 0.40641 0.62018 0.0
H1710 H 0.45205 0.40976 0.64397 0.0
H1711 H 0.44133 0.37898 0.63518 0.0
H1712 H 0.50617 0.40069 0.7055 0.0
H1713 H 0.48015 0.32633 0.68592 0.0
H1714 H 0.44587 0.42836 0.71468 0.0
H1715 H 0.45639 0.4345 0.68318 0.0
H1716 H 0.47875 0.43536 0.70889 0.0
H1717 H 0.41468 0.33851 0.6912 0.0
H1718 H 0.43761 0.3173 0.67757 0.0
H1719 H 0.42405 0.34239 0.65898 0.0
C1720 C 0.79798 0.62918 0.91112 0.0
C1721 C 0.82304 0.6351 0.91743 0.0
C1722 C 0.79154 0.60506 0.90221 0.0
C1723 C 0.81063 0.58652 0.89958 0.0
C1724 C 0.83586 0.59227 0.90642 0.0
C1725 C 0.84176 0.61652 0.91526 0.0
C1726 C 0.76443 0.59957 0.89511 0.0
C1727 C 0.85673 0.57296 0.90391 0.0
C1728 C 0.79386 0.51704 0.89433 0.0
C1729 C 0.7965 0.51292 0.86829 0.0
C1730 C 0.7978 0.54108 0.90477 0.0
C1731 C 0.80453 0.5614 0.88874 0.0
C1732 C 0.80656 0.55747 0.86235 0.0
C1733 C 0.80253 0.53326 0.85244 0.0
C1734 C 0.7954 0.54461 0.93299 0.0
C1735 C 0.81365 0.5787 0.84465 0.0
H1736 H 0.78344 0.64349 0.91281 0.0
H1737 H 0.86116 0.62101 0.92017 0.0
H1738 H 0.7632 0.59533 0.87461 0.0
H1739 H 0.75756 0.58264 0.90538 0.0
H1740 H 0.75165 0.61566 0.89939 0.0
H1741 H 0.87517 0.58015 0.91095 0.0
H1742 H 0.85179 0.55562 0.91458 0.0
H1743 H 0.85894 0.5675 0.88379 0.0
H1744 H 0.78916 0.50136 0.90665 0.0
H1745 H 0.80453 0.53017 0.83229 0.0
H1746 H 0.78207 0.56021 0.93723 0.0
H1747 H 0.81402 0.54997 0.94105 0.0
H1748 H 0.78868 0.52723 0.94265 0.0
H1749 H 0.80048 0.59482 0.84711 0.0
H1750 H 0.81331 0.57277 0.82451 0.0
H1751 H 0.83292 0.58562 0.84924 0.0
C1752 C 0.33784 0.88251 0.0773 0.0
C1753 C 0.31944 0.86416 0.07217 0.0
C1754 C 0.33095 0.90694 0.08479 0.0
C1755 C 0.30503 0.91309 0.08732 0.0
C1756 C 0.28634 0.89488 0.08143 0.0
C1757 C 0.29378 0.87059 0.07386 0.0
C1758 C 0.35143 0.92592 0.09074 0.0
C1759 C 0.25853 0.90079 0.08394 0.0
C1760 C 0.2906 0.96588 0.13345 0.0
C1761 C 0.2875 0.98653 0.11718 0.0
C1762 C 0.29562 0.94171 0.12389 0.0
C1763 C 0.29767 0.93817 0.09745 0.0
C1764 C 0.29394 0.95882 0.08089 0.0
C1765 C 0.28885 0.9828 0.09098 0.0
C1766 C 0.29936 0.9201 0.14213 0.0
C1767 C 0.29601 0.95573 0.05259 0.0
H1768 H 0.3577 0.87765 0.07592 0.0
H1769 H 0.2795 0.85644 0.0699 0.0
H1770 H 0.34837 0.94352 0.07978 0.0
H1771 H 0.35067 0.931 0.11107 0.0
H1772 H 0.37063 0.91859 0.08642 0.0
H1773 H 0.24639 0.8851 0.07707 0.0
H1774 H 0.2539 0.90449 0.10405 0.0
H1775 H 0.2538 0.91813 0.07317 0.0
H1776 H 0.28946 0.96867 0.15372 0.0
H1777 H 0.28644 -0.00128 0.07834 0.0
H1778 H 0.319 0.9129 0.14062 0.0
H1779 H 0.2865 0.90427 0.1373 0.0
H1780 H 0.29586 0.92575 0.16205 0.0
H1781 H 0.3156 0.95022 0.04752 0.0
H1782 H 0.29115 0.97335 0.04228 0.0
H1783 H 0.28332 0.9404 0.04603 0.0
C1784 C 0.19303 0.01147 0.59255 0.0
C1785 C 0.19524 0.00677 0.61854 0.0
C1786 C 0.18902 0.03603 0.58346 0.0
C1787 C 0.18715 0.0563 0.6008 0.0
C1788 C 0.18972 0.05171 0.62703 0.0
C1789 C 0.19376 0.02697 0.63559 0.0
C1790 C 0.18641 0.04023 0.55535 0.0
C1791 C 0.18781 0.07287 0.64608 0.0
C1792 C 0.19593 0.12354 0.57741 0.0
C1793 C 0.17081 0.13171 0.57529 0.0
C1794 C 0.20157 0.09893 0.58549 0.0
C1795 C 0.18159 0.0822 0.59158 0.0
C1796 C 0.1562 0.09029 0.58921 0.0
C1797 C 0.15112 0.11496 0.58108 0.0
C1798 C 0.22887 0.0909 0.58775 0.0
C1799 C 0.13439 0.07297 0.59552 0.0
H1800 H 0.19422 -0.00408 0.57929 0.0
H1801 H 0.19549 0.02341 0.65571 0.0
H1802 H 0.16732 0.04778 0.55105 0.0
H1803 H 0.20036 0.05447 0.54887 0.0
H1804 H 0.18924 0.02259 0.54434 0.0
H1805 H 0.19103 0.06624 0.66574 0.0
H1806 H 0.20185 0.0878 0.64166 0.0
H1807 H 0.1688 0.08165 0.64502 0.0
H1808 H 0.21122 0.13644 0.57294 0.0
H1809 H 0.13167 0.12119 0.57946 0.0
H1810 H 0.23233 0.07391 0.57599 0.0
H1811 H 0.23313 0.08571 0.60761 0.0
H1812 H 0.24217 0.10601 0.58178 0.0
H1813 H 0.13545 0.05559 0.58386 0.0
H1814 H 0.11575 0.08206 0.59229 0.0
H1815 H 0.13556 0.0671 0.61561 0.0
C1816 C 0.699 0.36616 0.39881 0.0
C1817 C 0.67377 0.35913 0.40291 0.0
C1818 C 0.70511 0.39046 0.39016 0.0
C1819 C 0.68553 0.40813 0.38578 0.0
C1820 C 0.66006 0.40123 0.39025 0.0
C1821 C 0.65448 0.37675 0.39864 0.0
C1822 C 0.73246 0.39713 0.38539 0.0
C1823 C 0.63867 0.41965 0.38601 0.0
C1824 C 0.70003 0.47827 0.3842 0.0
C1825 C 0.69925 0.48327 0.35819 0.0
C1826 C 0.69609 0.45377 0.39345 0.0
C1827 C 0.69151 0.43382 0.37624 0.0
C1828 C 0.69148 0.43863 0.34992 0.0
C1829 C 0.69524 0.46336 0.34121 0.0
C1830 C 0.69609 0.44936 0.42165 0.0
C1831 C 0.68692 0.41777 0.33099 0.0
H1832 H 0.71396 0.35254 0.40202 0.0
H1833 H 0.63495 0.3714 0.40186 0.0
H1834 H 0.7351 0.40233 0.36525 0.0
H1835 H 0.73791 0.41379 0.39688 0.0
H1836 H 0.74546 0.3813 0.38998 0.0
H1837 H 0.61997 0.41149 0.39099 0.0
H1838 H 0.64172 0.43691 0.3975 0.0
H1839 H 0.63823 0.42554 0.36589 0.0
H1840 H 0.70311 0.49363 0.39739 0.0
H1841 H 0.69475 0.46715 0.32107 0.0
H1842 H 0.70974 0.43427 0.42662 0.0
H1843 H 0.6771 0.44286 0.42778 0.0
H1844 H 0.70103 0.46668 0.43244 0.0
H1845 H 0.70036 0.40202 0.33425 0.0
H1846 H 0.689 0.42438 0.31117 0.0
H1847 H 0.66756 0.41009 0.33345 0.0
loop_
_geom_bond_atom_site_label_1
_geom_bond_atom_site_label_2
_geom_bond_distance
_geom_bond_site_symmetry_2
_ccdc_geom_bond_type
In0 O1 2.294 . S
In0 O2 2.326 . S
In0 O6 2.266 . S
In0 O7 2.326 . S
In0 O8 2.266 . S
In0 O9 2.326 . S
In0 O11 2.294 . S
In0 O12 2.326 . S
O1 In0 2.294 . S
O1 C10 1.240 . S
O2 In0 2.326 . S
O2 C10 1.252 . S
C3 O6 1.252 . S
C3 O7 1.260 . S
C4 O11 1.240 . S
C4 O12 1.252 . S
C5 O8 1.252 . S
C5 O9 1.260 . S
O6 In0 2.266 . S
O6 C3 1.252 . S
O7 In0 2.326 . S
O7 C3 1.260 . S
O8 In0 2.266 . S
O8 C5 1.252 . S
O9 In0 2.326 . S
O9 C5 1.260 . S
C10 O1 1.240 . S
C10 O2 1.252 . S
O11 In0 2.294 . S
O11 C4 1.240 . S
O12 In0 2.326 . S
O12 C4 1.252 . S
In13 O14 2.294 . S
In13 O15 2.326 . S
In13 O19 2.266 . S
In13 O20 2.326 . S
In13 O21 2.266 . S
In13 O22 2.326 . S
In13 O24 2.294 . S
In13 O25 2.326 . S
O14 In13 2.294 . S
O14 C23 1.240 . S
O15 In13 2.326 . S
O15 C23 1.252 . S
C16 O19 1.252 . S
C16 O20 1.260 . S
C17 O24 1.240 . S
C17 O25 1.252 . S
C18 O21 1.252 . S
C18 O22 1.260 . S
O19 In13 2.266 . S
O19 C16 1.252 . S
O20 In13 2.326 . S
O20 C16 1.260 . S
O21 In13 2.266 . S
O21 C18 1.252 . S
O22 In13 2.326 . S
O22 C18 1.260 . S
C23 O14 1.240 . S
C23 O15 1.252 . S
O24 In13 2.294 . S
O24 C17 1.240 . S
O25 In13 2.326 . S
O25 C17 1.252 . S
In26 O27 2.294 . S
In26 O28 2.326 . S
In26 O32 2.266 . S
In26 O33 2.326 . S
In26 O34 2.266 . S
In26 O35 2.326 . S
In26 O37 2.294 . S
In26 O38 2.326 . S
O27 In26 2.294 . S
O27 C36 1.240 . S
O28 In26 2.326 . S
O28 C36 1.252 . S
C29 O32 1.252 . S
C29 O33 1.260 . S
C30 O37 1.240 . S
C30 O38 1.252 . S
C31 O34 1.252 . S
C31 O35 1.260 . S
O32 In26 2.266 . S
O32 C29 1.252 . S
O33 In26 2.326 . S
O33 C29 1.260 . S
O34 In26 2.266 . S
O34 C31 1.252 . S
O35 In26 2.326 . S
O35 C31 1.260 . S
C36 O27 1.240 . S
C36 O28 1.252 . S
O37 In26 2.294 . S
O37 C30 1.240 . S
O38 In26 2.326 . S
O38 C30 1.252 . S
In39 O40 2.294 . S
In39 O41 2.326 . S
In39 O45 2.266 . S
In39 O46 2.326 . S
In39 O47 2.266 . S
In39 O48 2.326 . S
In39 O50 2.294 . S
In39 O51 2.326 . S
O40 In39 2.294 . S
O40 C49 1.240 . S
O41 In39 2.326 . S
O41 C49 1.252 . S
C42 O45 1.252 . S
C42 O46 1.260 . S
C43 O50 1.240 . S
C43 O51 1.252 . S
C44 O47 1.252 . S
C44 O48 1.260 . S
O45 In39 2.266 . S
O45 C42 1.252 . S
O46 In39 2.326 . S
O46 C42 1.260 . S
O47 In39 2.266 . S
O47 C44 1.252 . S
O48 In39 2.326 . S
O48 C44 1.260 . S
C49 O40 1.240 . S
C49 O41 1.252 . S
O50 In39 2.294 . S
O50 C43 1.240 . S
O51 In39 2.326 . S
O51 C43 1.252 . S
In52 O53 2.294 . S
In52 O54 2.326 . S
In52 O58 2.266 . S
In52 O59 2.326 . S
In52 O60 2.266 . S
In52 O61 2.326 . S
In52 O63 2.294 . S
In52 O64 2.326 . S
O53 In52 2.294 . S
O53 C62 1.240 . S
O54 In52 2.326 . S
O54 C62 1.252 . S
C55 O58 1.252 . S
C55 O59 1.260 . S
C56 O63 1.240 . S
C56 O64 1.252 . S
C57 O60 1.252 . S
C57 O61 1.260 . S
O58 In52 2.266 . S
O58 C55 1.252 . S
O59 In52 2.326 . S
O59 C55 1.260 . S
O60 In52 2.266 . S
O60 C57 1.252 . S
O61 In52 2.326 . S
O61 C57 1.260 . S
C62 O53 1.240 . S
C62 O54 1.252 . S
O63 In52 2.294 . S
O63 C56 1.240 . S
O64 In52 2.326 . S
O64 C56 1.252 . S
In65 O66 2.294 . S
In65 O67 2.326 . S
In65 O71 2.266 . S
In65 O72 2.326 . S
In65 O73 2.266 . S
In65 O74 2.326 . S
In65 O76 2.294 . S
In65 O77 2.326 . S
O66 In65 2.294 . S
O66 C75 1.240 . S
O67 In65 2.326 . S
O67 C75 1.252 . S
C68 O71 1.252 . S
C68 O72 1.260 . S
C69 O76 1.240 . S
C69 O77 1.252 . S
C70 O73 1.252 . S
C70 O74 1.260 . S
O71 In65 2.266 . S
O71 C68 1.252 . S
O72 In65 2.326 . S
O72 C68 1.260 . S
O73 In65 2.266 . S
O73 C70 1.252 . S
O74 In65 2.326 . S
O74 C70 1.260 . S
C75 O66 1.240 . S
C75 O67 1.252 . S
O76 In65 2.294 . S
O76 C69 1.240 . S
O77 In65 2.326 . S
O77 C69 1.252 . S
In78 O79 2.294 . S
In78 O80 2.326 . S
In78 O84 2.266 . S
In78 O85 2.326 . S
In78 O86 2.266 . S
In78 O87 2.326 . S
In78 O89 2.294 . S
In78 O90 2.326 . S
O79 In78 2.294 . S
O79 C88 1.240 . S
O80 In78 2.326 . S
O80 C88 1.252 . S
C81 O84 1.252 . S
C81 O85 1.260 . S
C82 O89 1.240 . S
C82 O90 1.252 . S
C83 O86 1.252 . S
C83 O87 1.260 . S
O84 In78 2.266 . S
O84 C81 1.252 . S
O85 In78 2.326 . S
O85 C81 1.260 . S
O86 In78 2.266 . S
O86 C83 1.252 . S
O87 In78 2.326 . S
O87 C83 1.260 . S
C88 O79 1.240 . S
C88 O80 1.252 . S
O89 In78 2.294 . S
O89 C82 1.240 . S
O90 In78 2.326 . S
O90 C82 1.252 . S
In91 O92 2.294 . S
In91 O93 2.326 . S
In91 O97 2.266 . S
In91 O98 2.326 . S
In91 O99 2.266 . S
In91 O100 2.326 . S
In91 O102 2.294 . S
In91 O103 2.326 . S
O92 In91 2.294 . S
O92 C101 1.240 . S
O93 In91 2.326 . S
O93 C101 1.252 . S
C94 O97 1.252 . S
C94 O98 1.260 . S
C95 O102 1.240 . S
C95 O103 1.252 . S
C96 O99 1.252 . S
C96 O100 1.260 . S
O97 In91 2.266 . S
O97 C94 1.252 . S
O98 In91 2.326 . S
O98 C94 1.260 . S
O99 In91 2.266 . S
O99 C96 1.252 . S
O100 In91 2.326 . S
O100 C96 1.260 . S
C101 O92 1.240 . S
C101 O93 1.252 . S
O102 In91 2.294 . S
O102 C95 1.240 . S
O103 In91 2.326 . S
O103 C95 1.252 . S
In104 O105 2.294 . S
In104 O106 2.326 . S
In104 O110 2.266 . S
In104 O111 2.326 . S
In104 O112 2.266 . S
In104 O113 2.326 . S
In104 O115 2.294 . S
In104 O116 2.326 . S
O105 In104 2.294 . S
O105 C114 1.240 . S
O106 In104 2.326 . S
O106 C114 1.252 . S
C107 O110 1.252 . S
C107 O111 1.260 . S
C108 O115 1.240 . S
C108 O116 1.252 . S
C109 O112 1.252 . S
C109 O113 1.260 . S
O110 In104 2.266 . S
O110 C107 1.252 . S
O111 In104 2.326 . S
O111 C107 1.260 . S
O112 In104 2.266 . S
O112 C109 1.252 . S
O113 In104 2.326 . S
O113 C109 1.260 . S
C114 O105 1.240 . S
C114 O106 1.252 . S
O115 In104 2.294 . S
O115 C108 1.240 . S
O116 In104 2.326 . S
O116 C108 1.252 . S
In117 O118 2.294 . S
In117 O119 2.326 . S
In117 O123 2.266 . S
In117 O124 2.326 . S
In117 O125 2.266 . S
In117 O126 2.326 . S
In117 O128 2.294 . S
In117 O129 2.326 . S
O118 In117 2.294 . S
O118 C127 1.240 . S
O119 In117 2.326 . S
O119 C127 1.252 . S
C120 O123 1.252 . S
C120 O124 1.260 . S
C121 O128 1.240 . S
C121 O129 1.252 . S
C122 O125 1.252 . S
C122 O126 1.260 . S
O123 In117 2.266 . S
O123 C120 1.252 . S
O124 In117 2.326 . S
O124 C120 1.260 . S
O125 In117 2.266 . S
O125 C122 1.252 . S
O126 In117 2.326 . S
O126 C122 1.260 . S
C127 O118 1.240 . S
C127 O119 1.252 . S
O128 In117 2.294 . S
O128 C121 1.240 . S
O129 In117 2.326 . S
O129 C121 1.252 . S
In130 O131 2.294 . S
In130 O132 2.326 . S
In130 O136 2.266 . S
In130 O137 2.326 . S
In130 O138 2.266 . S
In130 O139 2.326 . S
In130 O141 2.294 . S
In130 O142 2.326 . S
O131 In130 2.294 . S
O131 C140 1.240 . S
O132 In130 2.326 . S
O132 C140 1.252 . S
C133 O136 1.252 . S
C133 O137 1.260 . S
C134 O141 1.240 . S
C134 O142 1.252 . S
C135 O138 1.252 . S
C135 O139 1.260 . S
O136 In130 2.266 . S
O136 C133 1.252 . S
O137 In130 2.326 . S
O137 C133 1.260 . S
O138 In130 2.266 . S
O138 C135 1.252 . S
O139 In130 2.326 . S
O139 C135 1.260 . S
C140 O131 1.240 . S
C140 O132 1.252 . S
O141 In130 2.294 . S
O141 C134 1.240 . S
O142 In130 2.326 . S
O142 C134 1.252 . S
In143 O144 2.294 . S
In143 O145 2.326 . S
In143 O149 2.266 . S
In143 O150 2.326 . S
In143 O151 2.266 . S
In143 O152 2.326 . S
In143 O154 2.294 . S
In143 O155 2.326 . S
O144 In143 2.294 . S
O144 C153 1.240 . S
O145 In143 2.326 . S
O145 C153 1.252 . S
C146 O149 1.252 . S
C146 O150 1.260 . S
C147 O154 1.240 . S
C147 O155 1.252 . S
C148 O151 1.252 . S
C148 O152 1.260 . S
O149 In143 2.266 . S
O149 C146 1.252 . S
O150 In143 2.326 . S
O150 C146 1.260 . S
O151 In143 2.266 . S
O151 C148 1.252 . S
O152 In143 2.326 . S
O152 C148 1.260 . S
C153 O144 1.240 . S
C153 O145 1.252 . S
O154 In143 2.294 . S
O154 C147 1.240 . S
O155 In143 2.326 . S
O155 C147 1.252 . S
In156 O157 2.294 . S
In156 O158 2.326 . S
In156 O162 2.266 . S
In156 O163 2.326 . S
In156 O164 2.266 . S
In156 O165 2.326 . S
In156 O167 2.294 . S
In156 O168 2.326 . S
O157 In156 2.294 . S
O157 C166 1.240 . S
O158 In156 2.326 . S
O158 C166 1.252 . S
C159 O162 1.252 . S
C159 O163 1.260 . S
C160 O167 1.240 . S
C160 O168 1.252 . S
C161 O164 1.252 . S
C161 O165 1.260 . S
O162 In156 2.266 . S
O162 C159 1.252 . S
O163 In156 2.326 . S
O163 C159 1.260 . S
O164 In156 2.266 . S
O164 C161 1.252 . S
O165 In156 2.326 . S
O165 C161 1.260 . S
C166 O157 1.240 . S
C166 O158 1.252 . S
O167 In156 2.294 . S
O167 C160 1.240 . S
O168 In156 2.326 . S
O168 C160 1.252 . S
In169 O170 2.294 . S
In169 O171 2.326 . S
In169 O175 2.266 . S
In169 O176 2.326 . S
In169 O177 2.266 . S
In169 O178 2.326 . S
In169 O180 2.294 . S
In169 O181 2.326 . S
O170 In169 2.294 . S
O170 C179 1.240 . S
O171 In169 2.326 . S
O171 C179 1.252 . S
C172 O175 1.252 . S
C172 O176 1.260 . S
C173 O180 1.240 . S
C173 O181 1.252 . S
C174 O177 1.252 . S
C174 O178 1.260 . S
O175 In169 2.266 . S
O175 C172 1.252 . S
O176 In169 2.326 . S
O176 C172 1.260 . S
O177 In169 2.266 . S
O177 C174 1.252 . S
O178 In169 2.326 . S
O178 C174 1.260 . S
C179 O170 1.240 . S
C179 O171 1.252 . S
O180 In169 2.294 . S
O180 C173 1.240 . S
O181 In169 2.326 . S
O181 C173 1.252 . S
In182 O183 2.294 . S
In182 O184 2.326 . S
In182 O188 2.266 . S
In182 O189 2.326 . S
In182 O190 2.266 . S
In182 O191 2.326 . S
In182 O193 2.294 . S
In182 O194 2.326 . S
O183 In182 2.294 . S
O183 C192 1.240 . S
O184 In182 2.326 . S
O184 C192 1.252 . S
C185 O188 1.252 . S
C185 O189 1.260 . S
C186 O193 1.240 . S
C186 O194 1.252 . S
C187 O190 1.252 . S
C187 O191 1.260 . S
O188 In182 2.266 . S
O188 C185 1.252 . S
O189 In182 2.326 . S
O189 C185 1.260 . S
O190 In182 2.266 . S
O190 C187 1.252 . S
O191 In182 2.326 . S
O191 C187 1.260 . S
C192 O183 1.240 . S
C192 O184 1.252 . S
O193 In182 2.294 . S
O193 C186 1.240 . S
O194 In182 2.326 . S
O194 C186 1.252 . S
In195 O196 2.294 . S
In195 O197 2.326 . S
In195 O201 2.266 . S
In195 O202 2.326 . S
In195 O203 2.266 . S
In195 O204 2.326 . S
In195 O206 2.294 . S
In195 O207 2.326 . S
O196 In195 2.294 . S
O196 C205 1.240 . S
O197 In195 2.326 . S
O197 C205 1.252 . S
C198 O201 1.252 . S
C198 O202 1.260 . S
C199 O206 1.240 . S
C199 O207 1.252 . S
C200 O203 1.252 . S
C200 O204 1.260 . S
O201 In195 2.266 . S
O201 C198 1.252 . S
O202 In195 2.326 . S
O202 C198 1.260 . S
O203 In195 2.266 . S
O203 C200 1.252 . S
O204 In195 2.326 . S
O204 C200 1.260 . S
C205 O196 1.240 . S
C205 O197 1.252 . S
O206 In195 2.294 . S
O206 C199 1.240 . S
O207 In195 2.326 . S
O207 C199 1.252 . S
In208 O209 2.294 . S
In208 O210 2.326 . S
In208 O214 2.266 . S
In208 O215 2.326 . S
In208 O216 2.266 . S
In208 O217 2.326 . S
In208 O219 2.294 . S
In208 O220 2.326 . S
O209 In208 2.294 . S
O209 C218 1.240 . S
O210 In208 2.326 . S
O210 C218 1.252 . S
C211 O214 1.252 . S
C211 O215 1.260 . S
C212 O219 1.240 . S
C212 O220 1.252 . S
C213 O216 1.252 . S
C213 O217 1.260 . S
O214 In208 2.266 . S
O214 C211 1.252 . S
O215 In208 2.326 . S
O215 C211 1.260 . S
O216 In208 2.266 . S
O216 C213 1.252 . S
O217 In208 2.326 . S
O217 C213 1.260 . S
C218 O209 1.240 . S
C218 O210 1.252 . S
O219 In208 2.294 . S
O219 C212 1.240 . S
O220 In208 2.326 . S
O220 C212 1.252 . S
In221 O222 2.294 . S
In221 O223 2.326 . S
In221 O227 2.266 . S
In221 O228 2.326 . S
In221 O229 2.266 . S
In221 O230 2.326 . S
In221 O232 2.294 . S
In221 O233 2.326 . S
O222 In221 2.294 . S
O222 C231 1.240 . S
O223 In221 2.326 . S
O223 C231 1.252 . S
C224 O227 1.252 . S
C224 O228 1.260 . S
C225 O232 1.240 . S
C225 O233 1.252 . S
C226 O229 1.252 . S
C226 O230 1.260 . S
O227 In221 2.266 . S
O227 C224 1.252 . S
O228 In221 2.326 . S
O228 C224 1.260 . S
O229 In221 2.266 . S
O229 C226 1.252 . S
O230 In221 2.326 . S
O230 C226 1.260 . S
C231 O222 1.240 . S
C231 O223 1.252 . S
O232 In221 2.294 . S
O232 C225 1.240 . S
O233 In221 2.326 . S
O233 C225 1.252 . S
In234 O235 2.294 . S
In234 O236 2.326 . S
In234 O240 2.266 . S
In234 O241 2.326 . S
In234 O242 2.266 . S
In234 O243 2.326 . S
In234 O245 2.294 . S
In234 O246 2.326 . S
O235 In234 2.294 . S
O235 C244 1.240 . S
O236 In234 2.326 . S
O236 C244 1.252 . S
C237 O240 1.252 . S
C237 O241 1.260 . S
C238 O245 1.240 . S
C238 O246 1.252 . S
C239 O242 1.252 . S
C239 O243 1.260 . S
O240 In234 2.266 . S
O240 C237 1.252 . S
O241 In234 2.326 . S
O241 C237 1.260 . S
O242 In234 2.266 . S
O242 C239 1.252 . S
O243 In234 2.326 . S
O243 C239 1.260 . S
C244 O235 1.240 . S
C244 O236 1.252 . S
O245 In234 2.294 . S
O245 C238 1.240 . S
O246 In234 2.326 . S
O246 C238 1.252 . S
In247 O248 2.294 . S
In247 O249 2.326 . S
In247 O253 2.266 . S
In247 O254 2.326 . S
In247 O255 2.266 . S
In247 O256 2.326 . S
In247 O258 2.294 . S
In247 O259 2.326 . S
O248 In247 2.294 . S
O248 C257 1.240 . S
O249 In247 2.326 . S
O249 C257 1.252 . S
C250 O253 1.252 . S
C250 O254 1.260 . S
C251 O258 1.240 . S
C251 O259 1.252 . S
C252 O255 1.252 . S
C252 O256 1.260 . S
O253 In247 2.266 . S
O253 C250 1.252 . S
O254 In247 2.326 . S
O254 C250 1.260 . S
O255 In247 2.266 . S
O255 C252 1.252 . S
O256 In247 2.326 . S
O256 C252 1.260 . S
C257 O248 1.240 . S
C257 O249 1.252 . S
O258 In247 2.294 . S
O258 C251 1.240 . S
O259 In247 2.326 . S
O259 C251 1.252 . S
In260 O261 2.294 . S
In260 O262 2.326 . S
In260 O266 2.266 . S
In260 O267 2.326 . S
In260 O268 2.266 . S
In260 O269 2.326 . S
In260 O271 2.294 . S
In260 O272 2.326 . S
O261 In260 2.294 . S
O261 C270 1.240 . S
O262 In260 2.326 . S
O262 C270 1.252 . S
C263 O266 1.252 . S
C263 O267 1.260 . S
C264 O271 1.240 . S
C264 O272 1.252 . S
C265 O268 1.252 . S
C265 O269 1.260 . S
O266 In260 2.266 . S
O266 C263 1.252 . S
O267 In260 2.326 . S
O267 C263 1.260 . S
O268 In260 2.266 . S
O268 C265 1.252 . S
O269 In260 2.326 . S
O269 C265 1.260 . S
C270 O261 1.240 . S
C270 O262 1.252 . S
O271 In260 2.294 . S
O271 C264 1.240 . S
O272 In260 2.326 . S
O272 C264 1.252 . S
In273 O274 2.294 . S
In273 O275 2.326 . S
In273 O279 2.266 . S
In273 O280 2.326 . S
In273 O281 2.266 . S
In273 O282 2.326 . S
In273 O284 2.294 . S
In273 O285 2.326 . S
O274 In273 2.294 . S
O274 C283 1.240 . S
O275 In273 2.326 . S
O275 C283 1.252 . S
C276 O279 1.252 . S
C276 O280 1.260 . S
C277 O284 1.240 . S
C277 O285 1.252 . S
C278 O281 1.252 . S
C278 O282 1.260 . S
O279 In273 2.266 . S
O279 C276 1.252 . S
O280 In273 2.326 . S
O280 C276 1.260 . S
O281 In273 2.266 . S
O281 C278 1.252 . S
O282 In273 2.326 . S
O282 C278 1.260 . S
C283 O274 1.240 . S
C283 O275 1.252 . S
O284 In273 2.294 . S
O284 C277 1.240 . S
O285 In273 2.326 . S
O285 C277 1.252 . S
In286 O287 2.294 . S
In286 O288 2.326 . S
In286 O292 2.266 . S
In286 O293 2.326 . S
In286 O294 2.266 . S
In286 O295 2.326 . S
In286 O297 2.294 . S
In286 O298 2.326 . S
O287 In286 2.294 . S
O287 C296 1.240 . S
O288 In286 2.326 . S
O288 C296 1.252 . S
C289 O292 1.252 . S
C289 O293 1.260 . S
C290 O297 1.240 . S
C290 O298 1.252 . S
C291 O294 1.252 . S
C291 O295 1.260 . S
O292 In286 2.266 . S
O292 C289 1.252 . S
O293 In286 2.326 . S
O293 C289 1.260 . S
O294 In286 2.266 . S
O294 C291 1.252 . S
O295 In286 2.326 . S
O295 C291 1.260 . S
C296 O287 1.240 . S
C296 O288 1.252 . S
O297 In286 2.294 . S
O297 C290 1.240 . S
O298 In286 2.326 . S
O298 C290 1.252 . S
In299 O300 2.294 . S
In299 O301 2.326 . S
In299 O305 2.266 . S
In299 O306 2.326 . S
In299 O307 2.266 . S
In299 O308 2.326 . S
In299 O310 2.294 . S
In299 O311 2.326 . S
O300 In299 2.294 . S
O300 C309 1.240 . S
O301 In299 2.326 . S
O301 C309 1.252 . S
C302 O305 1.252 . S
C302 O306 1.260 . S
C303 O310 1.240 . S
C303 O311 1.252 . S
C304 O307 1.252 . S
C304 O308 1.260 . S
O305 In299 2.266 . S
O305 C302 1.252 . S
O306 In299 2.326 . S
O306 C302 1.260 . S
O307 In299 2.266 . S
O307 C304 1.252 . S
O308 In299 2.326 . S
O308 C304 1.260 . S
C309 O300 1.240 . S
C309 O301 1.252 . S
O310 In299 2.294 . S
O310 C303 1.240 . S
O311 In299 2.326 . S
O311 C303 1.252 . S
C312 C313 1.391 . S
C312 C314 1.394 . S
C312 H328 0.931 . S
C313 C312 1.391 . S
C313 C317 1.376 . S
C314 C312 1.394 . S
C314 C315 1.369 . S
C314 C318 1.531 . S
C315 C314 1.369 . S
C315 C316 1.410 . S
C315 C323 1.503 . S
C316 C315 1.410 . S
C316 C317 1.392 . S
C316 C319 1.511 . S
C317 C313 1.376 . S
C317 C316 1.392 . S
C317 H329 0.929 . S
C318 C314 1.531 . S
C318 H330 0.960 . S
C318 H331 0.962 . S
C318 H332 0.960 . S
C319 C316 1.511 . S
C319 H333 0.961 . S
C319 H334 0.961 . S
C319 H335 0.961 . S
C320 C321 1.370 . S
C320 C322 1.363 . S
C320 H336 0.931 . S
C321 C320 1.370 . S
C321 C325 1.408 . S
C322 C320 1.363 . S
C322 C323 1.370 . S
C322 C326 1.524 . S
C323 C315 1.503 . S
C323 C322 1.370 . S
C323 C324 1.403 . S
C324 C323 1.403 . S
C324 C325 1.404 . S
C324 C327 1.539 . S
C325 C321 1.408 . S
C325 C324 1.404 . S
C325 H337 0.930 . S
C326 C322 1.524 . S
C326 H338 0.956 . S
C326 H339 0.961 . S
C326 H340 0.961 . S
C327 C324 1.539 . S
C327 H341 0.958 . S
C327 H342 0.961 . S
C327 H343 0.960 . S
H328 C312 0.931 . S
H329 C317 0.929 . S
H330 C318 0.960 . S
H331 C318 0.962 . S
H332 C318 0.960 . S
H333 C319 0.961 . S
H334 C319 0.961 . S
H335 C319 0.961 . S
H336 C320 0.931 . S
H337 C325 0.930 . S
H338 C326 0.956 . S
H339 C326 0.961 . S
H340 C326 0.961 . S
H341 C327 0.958 . S
H342 C327 0.961 . S
H343 C327 0.960 . S
C344 C345 1.391 . S
C344 C346 1.394 . S
C344 H360 0.931 . S
C345 C344 1.391 . S
C345 C349 1.376 . S
C346 C344 1.394 . S
C346 C347 1.369 . S
C346 C350 1.531 . S
C347 C346 1.369 . S
C347 C348 1.410 . S
C347 C355 1.503 . S
C348 C347 1.410 . S
C348 C349 1.392 . S
C348 C351 1.511 . S
C349 C345 1.376 . S
C349 C348 1.392 . S
C349 H361 0.929 . S
C350 C346 1.531 . S
C350 H362 0.960 . S
C350 H363 0.962 . S
C350 H364 0.960 . S
C351 C348 1.511 . S
C351 H365 0.961 . S
C351 H366 0.961 . S
C351 H367 0.961 . S
C352 C353 1.370 . S
C352 C354 1.363 . S
C352 H368 0.931 . S
C353 C352 1.370 . S
C353 C357 1.408 . S
C354 C352 1.363 . S
C354 C355 1.370 . S
C354 C358 1.524 . S
C355 C347 1.503 . S
C355 C354 1.370 . S
C355 C356 1.403 . S
C356 C355 1.403 . S
C356 C357 1.404 . S
C356 C359 1.539 . S
C357 C353 1.408 . S
C357 C356 1.404 . S
C357 H369 0.930 . S
C358 C354 1.524 . S
C358 H370 0.956 . S
C358 H371 0.961 . S
C358 H372 0.961 . S
C359 C356 1.539 . S
C359 H373 0.958 . S
C359 H374 0.961 . S
C359 H375 0.960 . S
H360 C344 0.931 . S
H361 C349 0.929 . S
H362 C350 0.960 . S
H363 C350 0.962 . S
H364 C350 0.960 . S
H365 C351 0.961 . S
H366 C351 0.961 . S
H367 C351 0.961 . S
H368 C352 0.931 . S
H369 C357 0.930 . S
H370 C358 0.956 . S
H371 C358 0.961 . S
H372 C358 0.961 . S
H373 C359 0.958 . S
H374 C359 0.961 . S
H375 C359 0.960 . S
C376 C377 1.391 . S
C376 C378 1.394 . S
C376 H392 0.931 . S
C377 C376 1.391 . S
C377 C381 1.376 . S
C378 C376 1.394 . S
C378 C379 1.369 . S
C378 C382 1.531 . S
C379 C378 1.369 . S
C379 C380 1.410 . S
C379 C387 1.503 . S
C380 C379 1.410 . S
C380 C381 1.392 . S
C380 C383 1.511 . S
C381 C377 1.376 . S
C381 C380 1.392 . S
C381 H393 0.929 . S
C382 C378 1.531 . S
C382 H394 0.960 . S
C382 H395 0.962 . S
C382 H396 0.960 . S
C383 C380 1.511 . S
C383 H397 0.961 . S
C383 H398 0.961 . S
C383 H399 0.961 . S
C384 C385 1.370 . S
C384 C386 1.363 . S
C384 H400 0.931 . S
C385 C384 1.370 . S
C385 C389 1.408 . S
C386 C384 1.363 . S
C386 C387 1.370 . S
C386 C390 1.524 . S
C387 C379 1.503 . S
C387 C386 1.370 . S
C387 C388 1.403 . S
C388 C387 1.403 . S
C388 C389 1.404 . S
C388 C391 1.539 . S
C389 C385 1.408 . S
C389 C388 1.404 . S
C389 H401 0.930 . S
C390 C386 1.524 . S
C390 H402 0.956 . S
C390 H403 0.961 . S
C390 H404 0.961 . S
C391 C388 1.539 . S
C391 H405 0.958 . S
C391 H406 0.961 . S
C391 H407 0.960 . S
H392 C376 0.931 . S
H393 C381 0.929 . S
H394 C382 0.960 . S
H395 C382 0.962 . S
H396 C382 0.960 . S
H397 C383 0.961 . S
H398 C383 0.961 . S
H399 C383 0.961 . S
H400 C384 0.931 . S
H401 C389 0.930 . S
H402 C390 0.956 . S
H403 C390 0.961 . S
H404 C390 0.961 . S
H405 C391 0.958 . S
H406 C391 0.961 . S
H407 C391 0.960 . S
C408 C409 1.391 . S
C408 C410 1.394 . S
C408 H424 0.931 . S
C409 C408 1.391 . S
C409 C413 1.376 . S
C410 C408 1.394 . S
C410 C411 1.369 . S
C410 C414 1.531 . S
C411 C410 1.369 . S
C411 C412 1.410 . S
C411 C419 1.503 . S
C412 C411 1.410 . S
C412 C413 1.392 . S
C412 C415 1.511 . S
C413 C409 1.376 . S
C413 C412 1.392 . S
C413 H425 0.929 . S
C414 C410 1.531 . S
C414 H426 0.960 . S
C414 H427 0.962 . S
C414 H428 0.960 . S
C415 C412 1.511 . S
C415 H429 0.961 . S
C415 H430 0.961 . S
C415 H431 0.961 . S
C416 C417 1.370 . S
C416 C418 1.363 . S
C416 H432 0.931 . S
C417 C416 1.370 . S
C417 C421 1.408 . S
C418 C416 1.363 . S
C418 C419 1.370 . S
C418 C422 1.524 . S
C419 C411 1.503 . S
C419 C418 1.370 . S
C419 C420 1.403 . S
C420 C419 1.403 . S
C420 C421 1.404 . S
C420 C423 1.539 . S
C421 C417 1.408 . S
C421 C420 1.404 . S
C421 H433 0.930 . S
C422 C418 1.524 . S
C422 H434 0.956 . S
C422 H435 0.961 . S
C422 H436 0.961 . S
C423 C420 1.539 . S
C423 H437 0.958 . S
C423 H438 0.961 . S
C423 H439 0.960 . S
H424 C408 0.931 . S
H425 C413 0.929 . S
H426 C414 0.960 . S
H427 C414 0.962 . S
H428 C414 0.960 . S
H429 C415 0.961 . S
H430 C415 0.961 . S
H431 C415 0.961 . S
H432 C416 0.931 . S
H433 C421 0.930 . S
H434 C422 0.956 . S
H435 C422 0.961 . S
H436 C422 0.961 . S
H437 C423 0.958 . S
H438 C423 0.961 . S
H439 C423 0.960 . S
C440 C441 1.391 . S
C440 C442 1.394 . S
C440 H456 0.931 . S
C441 C440 1.391 . S
C441 C445 1.376 . S
C442 C440 1.394 . S
C442 C443 1.369 . S
C442 C446 1.531 . S
C443 C442 1.369 . S
C443 C444 1.410 . S
C443 C451 1.503 . S
C444 C443 1.410 . S
C444 C445 1.392 . S
C444 C447 1.511 . S
C445 C441 1.376 . S
C445 C444 1.392 . S
C445 H457 0.929 . S
C446 C442 1.531 . S
C446 H458 0.960 . S
C446 H459 0.962 . S
C446 H460 0.960 . S
C447 C444 1.511 . S
C447 H461 0.961 . S
C447 H462 0.961 . S
C447 H463 0.961 . S
C448 C449 1.370 . S
C448 C450 1.363 . S
C448 H464 0.931 . S
C449 C448 1.370 . S
C449 C453 1.408 . S
C450 C448 1.363 . S
C450 C451 1.370 . S
C450 C454 1.524 . S
C451 C443 1.503 . S
C451 C450 1.370 . S
C451 C452 1.403 . S
C452 C451 1.403 . S
C452 C453 1.404 . S
C452 C455 1.539 . S
C453 C449 1.408 . S
C453 C452 1.404 . S
C453 H465 0.930 . S
C454 C450 1.524 . S
C454 H466 0.956 . S
C454 H467 0.961 . S
C454 H468 0.961 . S
C455 C452 1.539 . S
C455 H469 0.958 . S
C455 H470 0.961 . S
C455 H471 0.960 . S
H456 C440 0.931 . S
H457 C445 0.929 . S
H458 C446 0.960 . S
H459 C446 0.962 . S
H460 C446 0.960 . S
H461 C447 0.961 . S
H462 C447 0.961 . S
H463 C447 0.961 . S
H464 C448 0.931 . S
H465 C453 0.930 . S
H466 C454 0.956 . S
H467 C454 0.961 . S
H468 C454 0.961 . S
H469 C455 0.958 . S
H470 C455 0.961 . S
H471 C455 0.960 . S
C472 C473 1.391 . S
C472 C474 1.394 . S
C472 H488 0.931 . S
C473 C472 1.391 . S
C473 C477 1.376 . S
C474 C472 1.394 . S
C474 C475 1.369 . S
C474 C478 1.531 . S
C475 C474 1.369 . S
C475 C476 1.410 . S
C475 C483 1.503 . S
C476 C475 1.410 . S
C476 C477 1.392 . S
C476 C479 1.511 . S
C477 C473 1.376 . S
C477 C476 1.392 . S
C477 H489 0.929 . S
C478 C474 1.531 . S
C478 H490 0.960 . S
C478 H491 0.962 . S
C478 H492 0.960 . S
C479 C476 1.511 . S
C479 H493 0.961 . S
C479 H494 0.961 . S
C479 H495 0.961 . S
C480 C481 1.370 . S
C480 C482 1.363 . S
C480 H496 0.931 . S
C481 C480 1.370 . S
C481 C485 1.408 . S
C482 C480 1.363 . S
C482 C483 1.370 . S
C482 C486 1.524 . S
C483 C475 1.503 . S
C483 C482 1.370 . S
C483 C484 1.403 . S
C484 C483 1.403 . S
C484 C485 1.404 . S
C484 C487 1.539 . S
C485 C481 1.408 . S
C485 C484 1.404 . S
C485 H497 0.930 . S
C486 C482 1.524 . S
C486 H498 0.956 . S
C486 H499 0.961 . S
C486 H500 0.961 . S
C487 C484 1.539 . S
C487 H501 0.958 . S
C487 H502 0.961 . S
C487 H503 0.960 . S
H488 C472 0.931 . S
H489 C477 0.929 . S
H490 C478 0.960 . S
H491 C478 0.962 . S
H492 C478 0.960 . S
H493 C479 0.961 . S
H494 C479 0.961 . S
H495 C479 0.961 . S
H496 C480 0.931 . S
H497 C485 0.930 . S
H498 C486 0.956 . S
H499 C486 0.961 . S
H500 C486 0.961 . S
H501 C487 0.958 . S
H502 C487 0.961 . S
H503 C487 0.960 . S
C504 C505 1.391 . S
C504 C506 1.394 . S
C504 H520 0.931 . S
C505 C504 1.391 . S
C505 C509 1.376 . S
C506 C504 1.394 . S
C506 C507 1.369 . S
C506 C510 1.531 . S
C507 C506 1.369 . S
C507 C508 1.410 . S
C507 C515 1.503 . S
C508 C507 1.410 . S
C508 C509 1.392 . S
C508 C511 1.511 . S
C509 C505 1.376 . S
C509 C508 1.392 . S
C509 H521 0.929 . S
C510 C506 1.531 . S
C510 H522 0.960 . S
C510 H523 0.962 . S
C510 H524 0.960 . S
C511 C508 1.511 . S
C511 H525 0.961 . S
C511 H526 0.961 . S
C511 H527 0.961 . S
C512 C513 1.370 . S
C512 C514 1.363 . S
C512 H528 0.931 . S
C513 C512 1.370 . S
C513 C517 1.408 . S
C514 C512 1.363 . S
C514 C515 1.370 . S
C514 C518 1.524 . S
C515 C507 1.503 . S
C515 C514 1.370 . S
C515 C516 1.403 . S
C516 C515 1.403 . S
C516 C517 1.404 . S
C516 C519 1.539 . S
C517 C513 1.408 . S
C517 C516 1.404 . S
C517 H529 0.930 . S
C518 C514 1.524 . S
C518 H530 0.956 . S
C518 H531 0.961 . S
C518 H532 0.961 . S
C519 C516 1.539 . S
C519 H533 0.958 . S
C519 H534 0.961 . S
C519 H535 0.960 . S
H520 C504 0.931 . S
H521 C509 0.929 . S
H522 C510 0.960 . S
H523 C510 0.962 . S
H524 C510 0.960 . S
H525 C511 0.961 . S
H526 C511 0.961 . S
H527 C511 0.961 . S
H528 C512 0.931 . S
H529 C517 0.930 . S
H530 C518 0.956 . S
H531 C518 0.961 . S
H532 C518 0.961 . S
H533 C519 0.958 . S
H534 C519 0.961 . S
H535 C519 0.960 . S
C536 C537 1.391 . S
C536 C538 1.394 . S
C536 H552 0.931 . S
C537 C536 1.391 . S
C537 C541 1.376 . S
C538 C536 1.394 . S
C538 C539 1.369 . S
C538 C542 1.531 . S
C539 C538 1.369 . S
C539 C540 1.410 . S
C539 C547 1.503 . S
C540 C539 1.410 . S
C540 C541 1.392 . S
C540 C543 1.511 . S
C541 C537 1.376 . S
C541 C540 1.392 . S
C541 H553 0.929 . S
C542 C538 1.531 . S
C542 H554 0.960 . S
C542 H555 0.962 . S
C542 H556 0.960 . S
C543 C540 1.511 . S
C543 H557 0.961 . S
C543 H558 0.961 . S
C543 H559 0.961 . S
C544 C545 1.370 . S
C544 C546 1.363 . S
C544 H560 0.931 . S
C545 C544 1.370 . S
C545 C549 1.408 . S
C546 C544 1.363 . S
C546 C547 1.370 . S
C546 C550 1.524 . S
C547 C539 1.503 . S
C547 C546 1.370 . S
C547 C548 1.403 . S
C548 C547 1.403 . S
C548 C549 1.404 . S
C548 C551 1.539 . S
C549 C545 1.408 . S
C549 C548 1.404 . S
C549 H561 0.930 . S
C550 C546 1.524 . S
C550 H562 0.956 . S
C550 H563 0.961 . S
C550 H564 0.961 . S
C551 C548 1.539 . S
C551 H565 0.958 . S
C551 H566 0.961 . S
C551 H567 0.960 . S
H552 C536 0.931 . S
H553 C541 0.929 . S
H554 C542 0.960 . S
H555 C542 0.962 . S
H556 C542 0.960 . S
H557 C543 0.961 . S
H558 C543 0.961 . S
H559 C543 0.961 . S
H560 C544 0.931 . S
H561 C549 0.930 . S
H562 C550 0.956 . S
H563 C550 0.961 . S
H564 C550 0.961 . S
H565 C551 0.958 . S
H566 C551 0.961 . S
H567 C551 0.960 . S
C568 C569 1.391 . S
C568 C570 1.394 . S
C568 H584 0.931 . S
C569 C568 1.391 . S
C569 C573 1.376 . S
C570 C568 1.394 . S
C570 C571 1.369 . S
C570 C574 1.531 . S
C571 C570 1.369 . S
C571 C572 1.410 . S
C571 C579 1.503 . S
C572 C571 1.410 . S
C572 C573 1.392 . S
C572 C575 1.511 . S
C573 C569 1.376 . S
C573 C572 1.392 . S
C573 H585 0.929 . S
C574 C570 1.531 . S
C574 H586 0.960 . S
C574 H587 0.962 . S
C574 H588 0.960 . S
C575 C572 1.511 . S
C575 H589 0.961 . S
C575 H590 0.961 . S
C575 H591 0.961 . S
C576 C577 1.370 . S
C576 C578 1.363 . S
C576 H592 0.931 . S
C577 C576 1.370 . S
C577 C581 1.408 . S
C578 C576 1.363 . S
C578 C579 1.370 . S
C578 C582 1.524 . S
C579 C571 1.503 . S
C579 C578 1.370 . S
C579 C580 1.403 . S
C580 C579 1.403 . S
C580 C581 1.404 . S
C580 C583 1.539 . S
C581 C577 1.408 . S
C581 C580 1.404 . S
C581 H593 0.930 . S
C582 C578 1.524 . S
C582 H594 0.956 . S
C582 H595 0.961 . S
C582 H596 0.961 . S
C583 C580 1.539 . S
C583 H597 0.958 . S
C583 H598 0.961 . S
C583 H599 0.960 . S
H584 C568 0.931 . S
H585 C573 0.929 . S
H586 C574 0.960 . S
H587 C574 0.962 . S
H588 C574 0.960 . S
H589 C575 0.961 . S
H590 C575 0.961 . S
H591 C575 0.961 . S
H592 C576 0.931 . S
H593 C581 0.930 . S
H594 C582 0.956 . S
H595 C582 0.961 . S
H596 C582 0.961 . S
H597 C583 0.958 . S
H598 C583 0.961 . S
H599 C583 0.960 . S
C600 C601 1.391 . S
C600 C602 1.394 . S
C600 H616 0.931 . S
C601 C600 1.391 . S
C601 C605 1.376 . S
C602 C600 1.394 . S
C602 C603 1.369 . S
C602 C606 1.531 . S
C603 C602 1.369 . S
C603 C604 1.410 . S
C603 C611 1.503 . S
C604 C603 1.410 . S
C604 C605 1.392 . S
C604 C607 1.511 . S
C605 C601 1.376 . S
C605 C604 1.392 . S
C605 H617 0.929 . S
C606 C602 1.531 . S
C606 H618 0.960 . S
C606 H619 0.962 . S
C606 H620 0.960 . S
C607 C604 1.511 . S
C607 H621 0.961 . S
C607 H622 0.961 . S
C607 H623 0.961 . S
C608 C609 1.370 . S
C608 C610 1.363 . S
C608 H624 0.931 . S
C609 C608 1.370 . S
C609 C613 1.408 . S
C610 C608 1.363 . S
C610 C611 1.370 . S
C610 C614 1.524 . S
C611 C603 1.503 . S
C611 C610 1.370 . S
C611 C612 1.403 . S
C612 C611 1.403 . S
C612 C613 1.404 . S
C612 C615 1.539 . S
C613 C609 1.408 . S
C613 C612 1.404 . S
C613 H625 0.930 . S
C614 C610 1.524 . S
C614 H626 0.956 . S
C614 H627 0.961 . S
C614 H628 0.961 . S
C615 C612 1.539 . S
C615 H629 0.958 . S
C615 H630 0.961 . S
C615 H631 0.960 . S
H616 C600 0.931 . S
H617 C605 0.929 . S
H618 C606 0.960 . S
H619 C606 0.962 . S
H620 C606 0.960 . S
H621 C607 0.961 . S
H622 C607 0.961 . S
H623 C607 0.961 . S
H624 C608 0.931 . S
H625 C613 0.930 . S
H626 C614 0.956 . S
H627 C614 0.961 . S
H628 C614 0.961 . S
H629 C615 0.958 . S
H630 C615 0.961 . S
H631 C615 0.960 . S
C632 C633 1.391 . S
C632 C634 1.394 . S
C632 H648 0.931 . S
C633 C632 1.391 . S
C633 C637 1.376 . S
C634 C632 1.394 . S
C634 C635 1.369 . S
C634 C638 1.531 . S
C635 C634 1.369 . S
C635 C636 1.410 . S
C635 C643 1.503 . S
C636 C635 1.410 . S
C636 C637 1.392 . S
C636 C639 1.511 . S
C637 C633 1.376 . S
C637 C636 1.392 . S
C637 H649 0.929 . S
C638 C634 1.531 . S
C638 H650 0.960 . S
C638 H651 0.962 . S
C638 H652 0.960 . S
C639 C636 1.511 . S
C639 H653 0.961 . S
C639 H654 0.961 . S
C639 H655 0.961 . S
C640 C641 1.370 . S
C640 C642 1.363 . S
C640 H656 0.931 . S
C641 C640 1.370 . S
C641 C645 1.408 . S
C642 C640 1.363 . S
C642 C643 1.370 . S
C642 C646 1.524 . S
C643 C635 1.503 . S
C643 C642 1.370 . S
C643 C644 1.403 . S
C644 C643 1.403 . S
C644 C645 1.404 . S
C644 C647 1.539 . S
C645 C641 1.408 . S
C645 C644 1.404 . S
C645 H657 0.930 . S
C646 C642 1.524 . S
C646 H658 0.956 . S
C646 H659 0.961 . S
C646 H660 0.961 . S
C647 C644 1.539 . S
C647 H661 0.958 . S
C647 H662 0.961 . S
C647 H663 0.960 . S
H648 C632 0.931 . S
H649 C637 0.929 . S
H650 C638 0.960 . S
H651 C638 0.962 . S
H652 C638 0.960 . S
H653 C639 0.961 . S
H654 C639 0.961 . S
H655 C639 0.961 . S
H656 C640 0.931 . S
H657 C645 0.930 . S
H658 C646 0.956 . S
H659 C646 0.961 . S
H660 C646 0.961 . S
H661 C647 0.958 . S
H662 C647 0.961 . S
H663 C647 0.960 . S
C664 C665 1.391 . S
C664 C666 1.394 . S
C664 H680 0.931 . S
C665 C664 1.391 . S
C665 C669 1.376 . S
C666 C664 1.394 . S
C666 C667 1.369 . S
C666 C670 1.531 . S
C667 C666 1.369 . S
C667 C668 1.410 . S
C667 C675 1.503 . S
C668 C667 1.410 . S
C668 C669 1.392 . S
C668 C671 1.511 . S
C669 C665 1.376 . S
C669 C668 1.392 . S
C669 H681 0.929 . S
C670 C666 1.531 . S
C670 H682 0.960 . S
C670 H683 0.962 . S
C670 H684 0.960 . S
C671 C668 1.511 . S
C671 H685 0.961 . S
C671 H686 0.961 . S
C671 H687 0.961 . S
C672 C673 1.370 . S
C672 C674 1.363 . S
C672 H688 0.931 . S
C673 C672 1.370 . S
C673 C677 1.408 . S
C674 C672 1.363 . S
C674 C675 1.370 . S
C674 C678 1.524 . S
C675 C667 1.503 . S
C675 C674 1.370 . S
C675 C676 1.403 . S
C676 C675 1.403 . S
C676 C677 1.404 . S
C676 C679 1.539 . S
C677 C673 1.408 . S
C677 C676 1.404 . S
C677 H689 0.930 . S
C678 C674 1.524 . S
C678 H690 0.956 . S
C678 H691 0.961 . S
C678 H692 0.961 . S
C679 C676 1.539 . S
C679 H693 0.958 . S
C679 H694 0.961 . S
C679 H695 0.960 . S
H680 C664 0.931 . S
H681 C669 0.929 . S
H682 C670 0.960 . S
H683 C670 0.962 . S
H684 C670 0.960 . S
H685 C671 0.961 . S
H686 C671 0.961 . S
H687 C671 0.961 . S
H688 C672 0.931 . S
H689 C677 0.930 . S
H690 C678 0.956 . S
H691 C678 0.961 . S
H692 C678 0.961 . S
H693 C679 0.958 . S
H694 C679 0.961 . S
H695 C679 0.960 . S
C696 C697 1.391 . S
C696 C698 1.394 . S
C696 H712 0.931 . S
C697 C696 1.391 . S
C697 C701 1.376 . S
C698 C696 1.394 . S
C698 C699 1.369 . S
C698 C702 1.531 . S
C699 C698 1.369 . S
C699 C700 1.410 . S
C699 C707 1.503 . S
C700 C699 1.410 . S
C700 C701 1.392 . S
C700 C703 1.511 . S
C701 C697 1.376 . S
C701 C700 1.392 . S
C701 H713 0.929 . S
C702 C698 1.531 . S
C702 H714 0.960 . S
C702 H715 0.962 . S
C702 H716 0.960 . S
C703 C700 1.511 . S
C703 H717 0.961 . S
C703 H718 0.961 . S
C703 H719 0.961 . S
C704 C705 1.370 . S
C704 C706 1.363 . S
C704 H720 0.931 . S
C705 C704 1.370 . S
C705 C709 1.408 . S
C706 C704 1.363 . S
C706 C707 1.370 . S
C706 C710 1.524 . S
C707 C699 1.503 . S
C707 C706 1.370 . S
C707 C708 1.403 . S
C708 C707 1.403 . S
C708 C709 1.404 . S
C708 C711 1.539 . S
C709 C705 1.408 . S
C709 C708 1.404 . S
C709 H721 0.930 . S
C710 C706 1.524 . S
C710 H722 0.956 . S
C710 H723 0.961 . S
C710 H724 0.961 . S
C711 C708 1.539 . S
C711 H725 0.958 . S
C711 H726 0.961 . S
C711 H727 0.960 . S
H712 C696 0.931 . S
H713 C701 0.929 . S
H714 C702 0.960 . S
H715 C702 0.962 . S
H716 C702 0.960 . S
H717 C703 0.961 . S
H718 C703 0.961 . S
H719 C703 0.961 . S
H720 C704 0.931 . S
H721 C709 0.930 . S
H722 C710 0.956 . S
H723 C710 0.961 . S
H724 C710 0.961 . S
H725 C711 0.958 . S
H726 C711 0.961 . S
H727 C711 0.960 . S
C728 C729 1.391 . S
C728 C730 1.394 . S
C728 H744 0.931 . S
C729 C728 1.391 . S
C729 C733 1.376 . S
C730 C728 1.394 . S
C730 C731 1.369 . S
C730 C734 1.531 . S
C731 C730 1.369 . S
C731 C732 1.410 . S
C731 C739 1.503 . S
C732 C731 1.410 . S
C732 C733 1.392 . S
C732 C735 1.511 . S
C733 C729 1.376 . S
C733 C732 1.392 . S
C733 H745 0.929 . S
C734 C730 1.531 . S
C734 H746 0.960 . S
C734 H747 0.962 . S
C734 H748 0.960 . S
C735 C732 1.511 . S
C735 H749 0.961 . S
C735 H750 0.961 . S
C735 H751 0.961 . S
C736 C737 1.370 . S
C736 C738 1.363 . S
C736 H752 0.931 . S
C737 C736 1.370 . S
C737 C741 1.408 . S
C738 C736 1.363 . S
C738 C739 1.370 . S
C738 C742 1.524 . S
C739 C731 1.503 . S
C739 C738 1.370 . S
C739 C740 1.403 . S
C740 C739 1.403 . S
C740 C741 1.404 . S
C740 C743 1.539 . S
C741 C737 1.408 . S
C741 C740 1.404 . S
C741 H753 0.930 . S
C742 C738 1.524 . S
C742 H754 0.956 . S
C742 H755 0.961 . S
C742 H756 0.961 . S
C743 C740 1.539 . S
C743 H757 0.958 . S
C743 H758 0.961 . S
C743 H759 0.960 . S
H744 C728 0.931 . S
H745 C733 0.929 . S
H746 C734 0.960 . S
H747 C734 0.962 . S
H748 C734 0.960 . S
H749 C735 0.961 . S
H750 C735 0.961 . S
H751 C735 0.961 . S
H752 C736 0.931 . S
H753 C741 0.930 . S
H754 C742 0.956 . S
H755 C742 0.961 . S
H756 C742 0.961 . S
H757 C743 0.958 . S
H758 C743 0.961 . S
H759 C743 0.960 . S
C760 C761 1.391 . S
C760 C762 1.394 . S
C760 H776 0.931 . S
C761 C760 1.391 . S
C761 C765 1.376 . S
C762 C760 1.394 . S
C762 C763 1.369 . S
C762 C766 1.531 . S
C763 C762 1.369 . S
C763 C764 1.410 . S
C763 C771 1.503 . S
C764 C763 1.410 . S
C764 C765 1.392 . S
C764 C767 1.511 . S
C765 C761 1.376 . S
C765 C764 1.392 . S
C765 H777 0.929 . S
C766 C762 1.531 . S
C766 H778 0.960 . S
C766 H779 0.962 . S
C766 H780 0.960 . S
C767 C764 1.511 . S
C767 H781 0.961 . S
C767 H782 0.961 . S
C767 H783 0.961 . S
C768 C769 1.370 . S
C768 C770 1.363 . S
C768 H784 0.931 . S
C769 C768 1.370 . S
C769 C773 1.408 . S
C770 C768 1.363 . S
C770 C771 1.370 . S
C770 C774 1.524 . S
C771 C763 1.503 . S
C771 C770 1.370 . S
C771 C772 1.403 . S
C772 C771 1.403 . S
C772 C773 1.404 . S
C772 C775 1.539 . S
C773 C769 1.408 . S
C773 C772 1.404 . S
C773 H785 0.930 . S
C774 C770 1.524 . S
C774 H786 0.956 . S
C774 H787 0.961 . S
C774 H788 0.961 . S
C775 C772 1.539 . S
C775 H789 0.958 . S
C775 H790 0.961 . S
C775 H791 0.960 . S
H776 C760 0.931 . S
H777 C765 0.929 . S
H778 C766 0.960 . S
H779 C766 0.962 . S
H780 C766 0.960 . S
H781 C767 0.961 . S
H782 C767 0.961 . S
H783 C767 0.961 . S
H784 C768 0.931 . S
H785 C773 0.930 . S
H786 C774 0.956 . S
H787 C774 0.961 . S
H788 C774 0.961 . S
H789 C775 0.958 . S
H790 C775 0.961 . S
H791 C775 0.960 . S
C792 C793 1.391 . S
C792 C794 1.394 . S
C792 H808 0.931 . S
C793 C792 1.391 . S
C793 C797 1.376 . S
C794 C792 1.394 . S
C794 C795 1.369 . S
C794 C798 1.531 . S
C795 C794 1.369 . S
C795 C796 1.410 . S
C795 C803 1.503 . S
C796 C795 1.410 . S
C796 C797 1.392 . S
C796 C799 1.511 . S
C797 C793 1.376 . S
C797 C796 1.392 . S
C797 H809 0.929 . S
C798 C794 1.531 . S
C798 H810 0.960 . S
C798 H811 0.962 . S
C798 H812 0.960 . S
C799 C796 1.511 . S
C799 H813 0.961 . S
C799 H814 0.961 . S
C799 H815 0.961 . S
C800 C801 1.370 . S
C800 C802 1.363 . S
C800 H816 0.931 . S
C801 C800 1.370 . S
C801 C805 1.408 . S
C802 C800 1.363 . S
C802 C803 1.370 . S
C802 C806 1.524 . S
C803 C795 1.503 . S
C803 C802 1.370 . S
C803 C804 1.403 . S
C804 C803 1.403 . S
C804 C805 1.404 . S
C804 C807 1.539 . S
C805 C801 1.408 . S
C805 C804 1.404 . S
C805 H817 0.930 . S
C806 C802 1.524 . S
C806 H818 0.956 . S
C806 H819 0.961 . S
C806 H820 0.961 . S
C807 C804 1.539 . S
C807 H821 0.958 . S
C807 H822 0.961 . S
C807 H823 0.960 . S
H808 C792 0.931 . S
H809 C797 0.929 . S
H810 C798 0.960 . S
H811 C798 0.962 . S
H812 C798 0.960 . S
H813 C799 0.961 . S
H814 C799 0.961 . S
H815 C799 0.961 . S
H816 C800 0.931 . S
H817 C805 0.930 . S
H818 C806 0.956 . S
H819 C806 0.961 . S
H820 C806 0.961 . S
H821 C807 0.958 . S
H822 C807 0.961 . S
H823 C807 0.960 . S
C824 C825 1.391 . S
C824 C826 1.394 . S
C824 H840 0.931 . S
C825 C824 1.391 . S
C825 C829 1.376 . S
C826 C824 1.394 . S
C826 C827 1.369 . S
C826 C830 1.531 . S
C827 C826 1.369 . S
C827 C828 1.410 . S
C827 C835 1.503 . S
C828 C827 1.410 . S
C828 C829 1.392 . S
C828 C831 1.511 . S
C829 C825 1.376 . S
C829 C828 1.392 . S
C829 H841 0.929 . S
C830 C826 1.531 . S
C830 H842 0.960 . S
C830 H843 0.962 . S
C830 H844 0.960 . S
C831 C828 1.511 . S
C831 H845 0.961 . S
C831 H846 0.961 . S
C831 H847 0.961 . S
C832 C833 1.370 . S
C832 C834 1.363 . S
C832 H848 0.931 . S
C833 C832 1.370 . S
C833 C837 1.408 . S
C834 C832 1.363 . S
C834 C835 1.370 . S
C834 C838 1.524 . S
C835 C827 1.503 . S
C835 C834 1.370 . S
C835 C836 1.403 . S
C836 C835 1.403 . S
C836 C837 1.404 . S
C836 C839 1.539 . S
C837 C833 1.408 . S
C837 C836 1.404 . S
C837 H849 0.930 . S
C838 C834 1.524 . S
C838 H850 0.956 . S
C838 H851 0.961 . S
C838 H852 0.961 . S
C839 C836 1.539 . S
C839 H853 0.958 . S
C839 H854 0.961 . S
C839 H855 0.960 . S
H840 C824 0.931 . S
H841 C829 0.929 . S
H842 C830 0.960 . S
H843 C830 0.962 . S
H844 C830 0.960 . S
H845 C831 0.961 . S
H846 C831 0.961 . S
H847 C831 0.961 . S
H848 C832 0.931 . S
H849 C837 0.930 . S
H850 C838 0.956 . S
H851 C838 0.961 . S
H852 C838 0.961 . S
H853 C839 0.958 . S
H854 C839 0.961 . S
H855 C839 0.960 . S
C856 C857 1.391 . S
C856 C858 1.394 . S
C856 H872 0.931 . S
C857 C856 1.391 . S
C857 C861 1.376 . S
C858 C856 1.394 . S
C858 C859 1.369 . S
C858 C862 1.531 . S
C859 C858 1.369 . S
C859 C860 1.410 . S
C859 C867 1.503 . S
C860 C859 1.410 . S
C860 C861 1.392 . S
C860 C863 1.511 . S
C861 C857 1.376 . S
C861 C860 1.392 . S
C861 H873 0.929 . S
C862 C858 1.531 . S
C862 H874 0.960 . S
C862 H875 0.962 . S
C862 H876 0.960 . S
C863 C860 1.511 . S
C863 H877 0.961 . S
C863 H878 0.961 . S
C863 H879 0.961 . S
C864 C865 1.370 . S
C864 C866 1.363 . S
C864 H880 0.931 . S
C865 C864 1.370 . S
C865 C869 1.408 . S
C866 C864 1.363 . S
C866 C867 1.370 . S
C866 C870 1.524 . S
C867 C859 1.503 . S
C867 C866 1.370 . S
C867 C868 1.403 . S
C868 C867 1.403 . S
C868 C869 1.404 . S
C868 C871 1.539 . S
C869 C865 1.408 . S
C869 C868 1.404 . S
C869 H881 0.930 . S
C870 C866 1.524 . S
C870 H882 0.956 . S
C870 H883 0.961 . S
C870 H884 0.961 . S
C871 C868 1.539 . S
C871 H885 0.958 . S
C871 H886 0.961 . S
C871 H887 0.960 . S
H872 C856 0.931 . S
H873 C861 0.929 . S
H874 C862 0.960 . S
H875 C862 0.962 . S
H876 C862 0.960 . S
H877 C863 0.961 . S
H878 C863 0.961 . S
H879 C863 0.961 . S
H880 C864 0.931 . S
H881 C869 0.930 . S
H882 C870 0.956 . S
H883 C870 0.961 . S
H884 C870 0.961 . S
H885 C871 0.958 . S
H886 C871 0.961 . S
H887 C871 0.960 . S
C888 C889 1.391 . S
C888 C890 1.394 . S
C888 H904 0.931 . S
C889 C888 1.391 . S
C889 C893 1.376 . S
C890 C888 1.394 . S
C890 C891 1.369 . S
C890 C894 1.531 . S
C891 C890 1.369 . S
C891 C892 1.410 . S
C891 C899 1.503 . S
C892 C891 1.410 . S
C892 C893 1.392 . S
C892 C895 1.511 . S
C893 C889 1.376 . S
C893 C892 1.392 . S
C893 H905 0.929 . S
C894 C890 1.531 . S
C894 H906 0.960 . S
C894 H907 0.962 . S
C894 H908 0.960 . S
C895 C892 1.511 . S
C895 H909 0.961 . S
C895 H910 0.961 . S
C895 H911 0.961 . S
C896 C897 1.370 . S
C896 C898 1.363 . S
C896 H912 0.931 . S
C897 C896 1.370 . S
C897 C901 1.408 . S
C898 C896 1.363 . S
C898 C899 1.370 . S
C898 C902 1.524 . S
C899 C891 1.503 . S
C899 C898 1.370 . S
C899 C900 1.403 . S
C900 C899 1.403 . S
C900 C901 1.404 . S
C900 C903 1.539 . S
C901 C897 1.408 . S
C901 C900 1.404 . S
C901 H913 0.930 . S
C902 C898 1.524 . S
C902 H914 0.956 . S
C902 H915 0.961 . S
C902 H916 0.961 . S
C903 C900 1.539 . S
C903 H917 0.958 . S
C903 H918 0.961 . S
C903 H919 0.960 . S
H904 C888 0.931 . S
H905 C893 0.929 . S
H906 C894 0.960 . S
H907 C894 0.962 . S
H908 C894 0.960 . S
H909 C895 0.961 . S
H910 C895 0.961 . S
H911 C895 0.961 . S
H912 C896 0.931 . S
H913 C901 0.930 . S
H914 C902 0.956 . S
H915 C902 0.961 . S
H916 C902 0.961 . S
H917 C903 0.958 . S
H918 C903 0.961 . S
H919 C903 0.960 . S
C920 C921 1.391 . S
C920 C922 1.394 . S
C920 H936 0.931 . S
C921 C920 1.391 . S
C921 C925 1.376 . S
C922 C920 1.394 . S
C922 C923 1.369 . S
C922 C926 1.531 . S
C923 C922 1.369 . S
C923 C924 1.410 . S
C923 C931 1.503 . S
C924 C923 1.410 . S
C924 C925 1.392 . S
C924 C927 1.511 . S
C925 C921 1.376 . S
C925 C924 1.392 . S
C925 H937 0.929 . S
C926 C922 1.531 . S
C926 H938 0.960 . S
C926 H939 0.962 . S
C926 H940 0.960 . S
C927 C924 1.511 . S
C927 H941 0.961 . S
C927 H942 0.961 . S
C927 H943 0.961 . S
C928 C929 1.370 . S
C928 C930 1.363 . S
C928 H944 0.931 . S
C929 C928 1.370 . S
C929 C933 1.408 . S
C930 C928 1.363 . S
C930 C931 1.370 . S
C930 C934 1.524 . S
C931 C923 1.503 . S
C931 C930 1.370 . S
C931 C932 1.403 . S
C932 C931 1.403 . S
C932 C933 1.404 . S
C932 C935 1.539 . S
C933 C929 1.408 . S
C933 C932 1.404 . S
C933 H945 0.930 . S
C934 C930 1.524 . S
C934 H946 0.956 . S
C934 H947 0.961 . S
C934 H948 0.961 . S
C935 C932 1.539 . S
C935 H949 0.958 . S
C935 H950 0.961 . S
C935 H951 0.960 . S
H936 C920 0.931 . S
H937 C925 0.929 . S
H938 C926 0.960 . S
H939 C926 0.962 . S
H940 C926 0.960 . S
H941 C927 0.961 . S
H942 C927 0.961 . S
H943 C927 0.961 . S
H944 C928 0.931 . S
H945 C933 0.930 . S
H946 C934 0.956 . S
H947 C934 0.961 . S
H948 C934 0.961 . S
H949 C935 0.958 . S
H950 C935 0.961 . S
H951 C935 0.960 . S
C952 C953 1.391 . S
C952 C954 1.394 . S
C952 H968 0.931 . S
C953 C952 1.391 . S
C953 C957 1.376 . S
C954 C952 1.394 . S
C954 C955 1.369 . S
C954 C958 1.531 . S
C955 C954 1.369 . S
C955 C956 1.410 . S
C955 C963 1.503 . S
C956 C955 1.410 . S
C956 C957 1.392 . S
C956 C959 1.511 . S
C957 C953 1.376 . S
C957 C956 1.392 . S
C957 H969 0.929 . S
C958 C954 1.531 . S
C958 H970 0.960 . S
C958 H971 0.962 . S
C958 H972 0.960 . S
C959 C956 1.511 . S
C959 H973 0.961 . S
C959 H974 0.961 . S
C959 H975 0.961 . S
C960 C961 1.370 . S
C960 C962 1.363 . S
C960 H976 0.931 . S
C961 C960 1.370 . S
C961 C965 1.408 . S
C962 C960 1.363 . S
C962 C963 1.370 . S
C962 C966 1.524 . S
C963 C955 1.503 . S
C963 C962 1.370 . S
C963 C964 1.403 . S
C964 C963 1.403 . S
C964 C965 1.404 . S
C964 C967 1.539 . S
C965 C961 1.408 . S
C965 C964 1.404 . S
C965 H977 0.930 . S
C966 C962 1.524 . S
C966 H978 0.956 . S
C966 H979 0.961 . S
C966 H980 0.961 . S
C967 C964 1.539 . S
C967 H981 0.958 . S
C967 H982 0.961 . S
C967 H983 0.960 . S
H968 C952 0.931 . S
H969 C957 0.929 . S
H970 C958 0.960 . S
H971 C958 0.962 . S
H972 C958 0.960 . S
H973 C959 0.961 . S
H974 C959 0.961 . S
H975 C959 0.961 . S
H976 C960 0.931 . S
H977 C965 0.930 . S
H978 C966 0.956 . S
H979 C966 0.961 . S
H980 C966 0.961 . S
H981 C967 0.958 . S
H982 C967 0.961 . S
H983 C967 0.960 . S
C984 C985 1.391 . S
C984 C986 1.394 . S
C984 H1000 0.931 . S
C985 C984 1.391 . S
C985 C989 1.376 . S
C986 C984 1.394 . S
C986 C987 1.369 . S
C986 C990 1.531 . S
C987 C986 1.369 . S
C987 C988 1.410 . S
C987 C995 1.503 . S
C988 C987 1.410 . S
C988 C989 1.392 . S
C988 C991 1.511 . S
C989 C985 1.376 . S
C989 C988 1.392 . S
C989 H1001 0.929 . S
C990 C986 1.531 . S
C990 H1002 0.960 . S
C990 H1003 0.962 . S
C990 H1004 0.960 . S
C991 C988 1.511 . S
C991 H1005 0.961 . S
C991 H1006 0.961 . S
C991 H1007 0.961 . S
C992 C993 1.370 . S
C992 C994 1.363 . S
C992 H1008 0.931 . S
C993 C992 1.370 . S
C993 C997 1.408 . S
C994 C992 1.363 . S
C994 C995 1.370 . S
C994 C998 1.524 . S
C995 C987 1.503 . S
C995 C994 1.370 . S
C995 C996 1.403 . S
C996 C995 1.403 . S
C996 C997 1.404 . S
C996 C999 1.539 . S
C997 C993 1.408 . S
C997 C996 1.404 . S
C997 H1009 0.930 . S
C998 C994 1.524 . S
C998 H1010 0.956 . S
C998 H1011 0.961 . S
C998 H1012 0.961 . S
C999 C996 1.539 . S
C999 H1013 0.958 . S
C999 H1014 0.961 . S
C999 H1015 0.960 . S
H1000 C984 0.931 . S
H1001 C989 0.929 . S
H1002 C990 0.960 . S
H1003 C990 0.962 . S
H1004 C990 0.960 . S
H1005 C991 0.961 . S
H1006 C991 0.961 . S
H1007 C991 0.961 . S
H1008 C992 0.931 . S
H1009 C997 0.930 . S
H1010 C998 0.956 . S
H1011 C998 0.961 . S
H1012 C998 0.961 . S
H1013 C999 0.958 . S
H1014 C999 0.961 . S
H1015 C999 0.960 . S
C1016 C1017 1.391 . S
C1016 C1018 1.394 . S
C1016 H1032 0.931 . S
C1017 C1016 1.391 . S
C1017 C1021 1.376 . S
C1018 C1016 1.394 . S
C1018 C1019 1.369 . S
C1018 C1022 1.531 . S
C1019 C1018 1.369 . S
C1019 C1020 1.410 . S
C1019 C1027 1.503 . S
C1020 C1019 1.410 . S
C1020 C1021 1.392 . S
C1020 C1023 1.511 . S
C1021 C1017 1.376 . S
C1021 C1020 1.392 . S
C1021 H1033 0.929 . S
C1022 C1018 1.531 . S
C1022 H1034 0.960 . S
C1022 H1035 0.962 . S
C1022 H1036 0.960 . S
C1023 C1020 1.511 . S
C1023 H1037 0.961 . S
C1023 H1038 0.961 . S
C1023 H1039 0.961 . S
C1024 C1025 1.370 . S
C1024 C1026 1.363 . S
C1024 H1040 0.931 . S
C1025 C1024 1.370 . S
C1025 C1029 1.408 . S
C1026 C1024 1.363 . S
C1026 C1027 1.370 . S
C1026 C1030 1.524 . S
C1027 C1019 1.503 . S
C1027 C1026 1.370 . S
C1027 C1028 1.403 . S
C1028 C1027 1.403 . S
C1028 C1029 1.404 . S
C1028 C1031 1.539 . S
C1029 C1025 1.408 . S
C1029 C1028 1.404 . S
C1029 H1041 0.930 . S
C1030 C1026 1.524 . S
C1030 H1042 0.956 . S
C1030 H1043 0.961 . S
C1030 H1044 0.961 . S
C1031 C1028 1.539 . S
C1031 H1045 0.958 . S
C1031 H1046 0.961 . S
C1031 H1047 0.960 . S
H1032 C1016 0.931 . S
H1033 C1021 0.929 . S
H1034 C1022 0.960 . S
H1035 C1022 0.962 . S
H1036 C1022 0.960 . S
H1037 C1023 0.961 . S
H1038 C1023 0.961 . S
H1039 C1023 0.961 . S
H1040 C1024 0.931 . S
H1041 C1029 0.930 . S
H1042 C1030 0.956 . S
H1043 C1030 0.961 . S
H1044 C1030 0.961 . S
H1045 C1031 0.958 . S
H1046 C1031 0.961 . S
H1047 C1031 0.960 . S
C1048 C1049 1.391 . S
C1048 C1050 1.394 . S
C1048 H1064 0.931 . S
C1049 C1048 1.391 . S
C1049 C1053 1.376 . S
C1050 C1048 1.394 . S
C1050 C1051 1.369 . S
C1050 C1054 1.531 . S
C1051 C1050 1.369 . S
C1051 C1052 1.410 . S
C1051 C1059 1.503 . S
C1052 C1051 1.410 . S
C1052 C1053 1.392 . S
C1052 C1055 1.511 . S
C1053 C1049 1.376 . S
C1053 C1052 1.392 . S
C1053 H1065 0.929 . S
C1054 C1050 1.531 . S
C1054 H1066 0.960 . S
C1054 H1067 0.962 . S
C1054 H1068 0.960 . S
C1055 C1052 1.511 . S
C1055 H1069 0.961 . S
C1055 H1070 0.961 . S
C1055 H1071 0.961 . S
C1056 C1057 1.370 . S
C1056 C1058 1.363 . S
C1056 H1072 0.931 . S
C1057 C1056 1.370 . S
C1057 C1061 1.408 . S
C1058 C1056 1.363 . S
C1058 C1059 1.370 . S
C1058 C1062 1.524 . S
C1059 C1051 1.503 . S
C1059 C1058 1.370 . S
C1059 C1060 1.403 . S
C1060 C1059 1.403 . S
C1060 C1061 1.404 . S
C1060 C1063 1.539 . S
C1061 C1057 1.408 . S
C1061 C1060 1.404 . S
C1061 H1073 0.930 . S
C1062 C1058 1.524 . S
C1062 H1074 0.956 . S
C1062 H1075 0.961 . S
C1062 H1076 0.961 . S
C1063 C1060 1.539 . S
C1063 H1077 0.958 . S
C1063 H1078 0.961 . S
C1063 H1079 0.960 . S
H1064 C1048 0.931 . S
H1065 C1053 0.929 . S
H1066 C1054 0.960 . S
H1067 C1054 0.962 . S
H1068 C1054 0.960 . S
H1069 C1055 0.961 . S
H1070 C1055 0.961 . S
H1071 C1055 0.961 . S
H1072 C1056 0.931 . S
H1073 C1061 0.930 . S
H1074 C1062 0.956 . S
H1075 C1062 0.961 . S
H1076 C1062 0.961 . S
H1077 C1063 0.958 . S
H1078 C1063 0.961 . S
H1079 C1063 0.960 . S
C1080 C1081 1.391 . S
C1080 C1082 1.394 . S
C1080 H1096 0.931 . S
C1081 C1080 1.391 . S
C1081 C1085 1.376 . S
C1082 C1080 1.394 . S
C1082 C1083 1.369 . S
C1082 C1086 1.531 . S
C1083 C1082 1.369 . S
C1083 C1084 1.410 . S
C1083 C1091 1.503 . S
C1084 C1083 1.410 . S
C1084 C1085 1.392 . S
C1084 C1087 1.511 . S
C1085 C1081 1.376 . S
C1085 C1084 1.392 . S
C1085 H1097 0.929 . S
C1086 C1082 1.531 . S
C1086 H1098 0.960 . S
C1086 H1099 0.962 . S
C1086 H1100 0.960 . S
C1087 C1084 1.511 . S
C1087 H1101 0.961 . S
C1087 H1102 0.961 . S
C1087 H1103 0.961 . S
C1088 C1089 1.370 . S
C1088 C1090 1.363 . S
C1088 H1104 0.931 . S
C1089 C1088 1.370 . S
C1089 C1093 1.408 . S
C1090 C1088 1.363 . S
C1090 C1091 1.370 . S
C1090 C1094 1.524 . S
C1091 C1083 1.503 . S
C1091 C1090 1.370 . S
C1091 C1092 1.403 . S
C1092 C1091 1.403 . S
C1092 C1093 1.404 . S
C1092 C1095 1.539 . S
C1093 C1089 1.408 . S
C1093 C1092 1.404 . S
C1093 H1105 0.930 . S
C1094 C1090 1.524 . S
C1094 H1106 0.956 . S
C1094 H1107 0.961 . S
C1094 H1108 0.961 . S
C1095 C1092 1.539 . S
C1095 H1109 0.958 . S
C1095 H1110 0.961 . S
C1095 H1111 0.960 . S
H1096 C1080 0.931 . S
H1097 C1085 0.929 . S
H1098 C1086 0.960 . S
H1099 C1086 0.962 . S
H1100 C1086 0.960 . S
H1101 C1087 0.961 . S
H1102 C1087 0.961 . S
H1103 C1087 0.961 . S
H1104 C1088 0.931 . S
H1105 C1093 0.930 . S
H1106 C1094 0.956 . S
H1107 C1094 0.961 . S
H1108 C1094 0.961 . S
H1109 C1095 0.958 . S
H1110 C1095 0.961 . S
H1111 C1095 0.960 . S
C1112 C1113 1.391 . S
C1112 C1114 1.394 1_554 S
C1112 H1128 0.931 . S
C1113 C1112 1.391 . S
C1113 C1117 1.376 . S
C1114 C1112 1.394 1_556 S
C1114 C1115 1.369 . S
C1114 C1118 1.531 . S
C1115 C1114 1.369 . S
C1115 C1116 1.410 . S
C1115 C1123 1.503 . S
C1116 C1115 1.410 . S
C1116 C1117 1.392 1_556 S
C1116 C1119 1.511 . S
C1117 C1113 1.376 . S
C1117 C1116 1.392 1_554 S
C1117 H1129 0.929 . S
C1118 C1114 1.531 . S
C1118 H1130 0.960 . S
C1118 H1131 0.962 . S
C1118 H1132 0.960 . S
C1119 C1116 1.511 . S
C1119 H1133 0.961 . S
C1119 H1134 0.961 . S
C1119 H1135 0.961 . S
C1120 C1121 1.370 . S
C1120 C1122 1.363 . S
C1120 H1136 0.931 . S
C1121 C1120 1.370 . S
C1121 C1125 1.408 . S
C1122 C1120 1.363 . S
C1122 C1123 1.370 . S
C1122 C1126 1.524 . S
C1123 C1115 1.503 . S
C1123 C1122 1.370 . S
C1123 C1124 1.403 . S
C1124 C1123 1.403 . S
C1124 C1125 1.404 . S
C1124 C1127 1.539 . S
C1125 C1121 1.408 . S
C1125 C1124 1.404 . S
C1125 H1137 0.930 . S
C1126 C1122 1.524 . S
C1126 H1138 0.956 . S
C1126 H1139 0.961 . S
C1126 H1140 0.961 . S
C1127 C1124 1.539 . S
C1127 H1141 0.958 . S
C1127 H1142 0.961 . S
C1127 H1143 0.960 . S
H1128 C1112 0.931 . S
H1129 C1117 0.929 . S
H1130 C1118 0.960 . S
H1131 C1118 0.962 . S
H1132 C1118 0.960 . S
H1133 C1119 0.961 . S
H1134 C1119 0.961 . S
H1135 C1119 0.961 . S
H1136 C1120 0.931 . S
H1137 C1125 0.930 . S
H1138 C1126 0.956 . S
H1139 C1126 0.961 . S
H1140 C1126 0.961 . S
H1141 C1127 0.958 . S
H1142 C1127 0.961 . S
H1143 C1127 0.960 . S
C1144 C1145 1.391 . S
C1144 C1146 1.394 . S
C1144 H1160 0.931 . S
C1145 C1144 1.391 . S
C1145 C1149 1.376 . S
C1146 C1144 1.394 . S
C1146 C1147 1.369 . S
C1146 C1150 1.531 . S
C1147 C1146 1.369 . S
C1147 C1148 1.410 . S
C1147 C1155 1.503 . S
C1148 C1147 1.410 . S
C1148 C1149 1.392 . S
C1148 C1151 1.511 . S
C1149 C1145 1.376 . S
C1149 C1148 1.392 . S
C1149 H1161 0.929 . S
C1150 C1146 1.531 . S
C1150 H1162 0.960 . S
C1150 H1163 0.962 . S
C1150 H1164 0.960 . S
C1151 C1148 1.511 . S
C1151 H1165 0.961 . S
C1151 H1166 0.961 . S
C1151 H1167 0.961 . S
C1152 C1153 1.370 . S
C1152 C1154 1.363 . S
C1152 H1168 0.931 . S
C1153 C1152 1.370 . S
C1153 C1157 1.408 . S
C1154 C1152 1.363 . S
C1154 C1155 1.370 . S
C1154 C1158 1.524 . S
C1155 C1147 1.503 . S
C1155 C1154 1.370 . S
C1155 C1156 1.403 . S
C1156 C1155 1.403 . S
C1156 C1157 1.404 . S
C1156 C1159 1.539 . S
C1157 C1153 1.408 . S
C1157 C1156 1.404 . S
C1157 H1169 0.930 . S
C1158 C1154 1.524 . S
C1158 H1170 0.956 . S
C1158 H1171 0.961 . S
C1158 H1172 0.961 . S
C1159 C1156 1.539 . S
C1159 H1173 0.958 . S
C1159 H1174 0.961 . S
C1159 H1175 0.960 . S
H1160 C1144 0.931 . S
H1161 C1149 0.929 . S
H1162 C1150 0.960 . S
H1163 C1150 0.962 . S
H1164 C1150 0.960 . S
H1165 C1151 0.961 . S
H1166 C1151 0.961 . S
H1167 C1151 0.961 . S
H1168 C1152 0.931 . S
H1169 C1157 0.930 . S
H1170 C1158 0.956 . S
H1171 C1158 0.961 . S
H1172 C1158 0.961 . S
H1173 C1159 0.958 . S
H1174 C1159 0.961 . S
H1175 C1159 0.960 . S
C1176 C1177 1.391 . S
C1176 C1178 1.394 . S
C1176 H1192 0.931 . S
C1177 C1176 1.391 . S
C1177 C1181 1.376 . S
C1178 C1176 1.394 . S
C1178 C1179 1.369 . S
C1178 C1182 1.531 . S
C1179 C1178 1.369 . S
C1179 C1180 1.410 . S
C1179 C1187 1.503 . S
C1180 C1179 1.410 . S
C1180 C1181 1.392 . S
C1180 C1183 1.511 . S
C1181 C1177 1.376 . S
C1181 C1180 1.392 . S
C1181 H1193 0.929 . S
C1182 C1178 1.531 . S
C1182 H1194 0.960 . S
C1182 H1195 0.962 . S
C1182 H1196 0.960 . S
C1183 C1180 1.511 . S
C1183 H1197 0.961 . S
C1183 H1198 0.961 . S
C1183 H1199 0.961 . S
C1184 C1185 1.370 . S
C1184 C1186 1.363 1_556 S
C1184 H1200 0.931 . S
C1185 C1184 1.370 . S
C1185 C1189 1.408 . S
C1186 C1184 1.363 1_554 S
C1186 C1187 1.370 . S
C1186 C1190 1.524 . S
C1187 C1179 1.503 . S
C1187 C1186 1.370 . S
C1187 C1188 1.403 . S
C1188 C1187 1.403 . S
C1188 C1189 1.404 1_554 S
C1188 C1191 1.539 . S
C1189 C1185 1.408 . S
C1189 C1188 1.404 1_556 S
C1189 H1201 0.930 . S
C1190 C1186 1.524 . S
C1190 H1202 0.956 . S
C1190 H1203 0.961 . S
C1190 H1204 0.961 . S
C1191 C1188 1.539 . S
C1191 H1205 0.958 . S
C1191 H1206 0.961 . S
C1191 H1207 0.960 . S
H1192 C1176 0.931 . S
H1193 C1181 0.929 . S
H1194 C1182 0.960 . S
H1195 C1182 0.962 . S
H1196 C1182 0.960 . S
H1197 C1183 0.961 . S
H1198 C1183 0.961 . S
H1199 C1183 0.961 . S
H1200 C1184 0.931 . S
H1201 C1189 0.930 . S
H1202 C1190 0.956 . S
H1203 C1190 0.961 . S
H1204 C1190 0.961 . S
H1205 C1191 0.958 . S
H1206 C1191 0.961 . S
H1207 C1191 0.960 . S
C1208 C1209 1.391 . S
C1208 C1210 1.394 . S
C1208 H1224 0.931 . S
C1209 C1208 1.391 . S
C1209 C1213 1.376 . S
C1210 C1208 1.394 . S
C1210 C1211 1.369 . S
C1210 C1214 1.531 . S
C1211 C1210 1.369 . S
C1211 C1212 1.410 . S
C1211 C1219 1.503 . S
C1212 C1211 1.410 . S
C1212 C1213 1.392 . S
C1212 C1215 1.511 . S
C1213 C1209 1.376 . S
C1213 C1212 1.392 . S
C1213 H1225 0.929 . S
C1214 C1210 1.531 . S
C1214 H1226 0.960 . S
C1214 H1227 0.962 . S
C1214 H1228 0.960 . S
C1215 C1212 1.511 . S
C1215 H1229 0.961 . S
C1215 H1230 0.961 . S
C1215 H1231 0.961 . S
C1216 C1217 1.370 . S
C1216 C1218 1.363 . S
C1216 H1232 0.931 . S
C1217 C1216 1.370 . S
C1217 C1221 1.408 . S
C1218 C1216 1.363 . S
C1218 C1219 1.370 . S
C1218 C1222 1.524 . S
C1219 C1211 1.503 . S
C1219 C1218 1.370 . S
C1219 C1220 1.403 . S
C1220 C1219 1.403 . S
C1220 C1221 1.404 . S
C1220 C1223 1.539 . S
C1221 C1217 1.408 . S
C1221 C1220 1.404 . S
C1221 H1233 0.930 . S
C1222 C1218 1.524 . S
C1222 H1234 0.956 . S
C1222 H1235 0.961 . S
C1222 H1236 0.961 . S
C1223 C1220 1.539 . S
C1223 H1237 0.958 . S
C1223 H1238 0.961 . S
C1223 H1239 0.960 . S
H1224 C1208 0.931 . S
H1225 C1213 0.929 . S
H1226 C1214 0.960 . S
H1227 C1214 0.962 . S
H1228 C1214 0.960 . S
H1229 C1215 0.961 . S
H1230 C1215 0.961 . S
H1231 C1215 0.961 . S
H1232 C1216 0.931 . S
H1233 C1221 0.930 . S
H1234 C1222 0.956 . S
H1235 C1222 0.961 . S
H1236 C1222 0.961 . S
H1237 C1223 0.958 . S
H1238 C1223 0.961 . S
H1239 C1223 0.960 . S
C1240 C1241 1.391 . S
C1240 C1242 1.394 1_655 S
C1240 H1256 0.931 . S
C1241 C1240 1.391 . S
C1241 C1245 1.376 . S
C1242 C1240 1.394 1_455 S
C1242 C1243 1.369 . S
C1242 C1246 1.531 . S
C1243 C1242 1.369 . S
C1243 C1244 1.410 . S
C1243 C1251 1.503 . S
C1244 C1243 1.410 . S
C1244 C1245 1.392 1_455 S
C1244 C1247 1.511 . S
C1245 C1241 1.376 . S
C1245 C1244 1.392 1_655 S
C1245 H1257 0.929 . S
C1246 C1242 1.531 . S
C1246 H1258 0.960 . S
C1246 H1259 0.962 . S
C1246 H1260 0.960 . S
C1247 C1244 1.511 . S
C1247 H1261 0.961 . S
C1247 H1262 0.961 . S
C1247 H1263 0.961 . S
C1248 C1249 1.370 . S
C1248 C1250 1.363 . S
C1248 H1264 0.931 . S
C1249 C1248 1.370 . S
C1249 C1253 1.408 . S
C1250 C1248 1.363 . S
C1250 C1251 1.370 . S
C1250 C1254 1.524 . S
C1251 C1243 1.503 . S
C1251 C1250 1.370 . S
C1251 C1252 1.403 . S
C1252 C1251 1.403 . S
C1252 C1253 1.404 . S
C1252 C1255 1.539 . S
C1253 C1249 1.408 . S
C1253 C1252 1.404 . S
C1253 H1265 0.930 . S
C1254 C1250 1.524 . S
C1254 H1266 0.956 . S
C1254 H1267 0.961 . S
C1254 H1268 0.961 . S
C1255 C1252 1.539 . S
C1255 H1269 0.958 . S
C1255 H1270 0.961 . S
C1255 H1271 0.960 . S
H1256 C1240 0.931 . S
H1257 C1245 0.929 . S
H1258 C1246 0.960 . S
H1259 C1246 0.962 . S
H1260 C1246 0.960 . S
H1261 C1247 0.961 . S
H1262 C1247 0.961 . S
H1263 C1247 0.961 . S
H1264 C1248 0.931 . S
H1265 C1253 0.930 . S
H1266 C1254 0.956 . S
H1267 C1254 0.961 . S
H1268 C1254 0.961 . S
H1269 C1255 0.958 . S
H1270 C1255 0.961 . S
H1271 C1255 0.960 . S
C1272 C1273 1.391 . S
C1272 C1274 1.394 1_455 S
C1272 H1288 0.931 . S
C1273 C1272 1.391 . S
C1273 C1277 1.376 . S
C1274 C1272 1.394 1_655 S
C1274 C1275 1.369 . S
C1274 C1278 1.531 . S
C1275 C1274 1.369 . S
C1275 C1276 1.410 . S
C1275 C1283 1.503 . S
C1276 C1275 1.410 . S
C1276 C1277 1.392 1_655 S
C1276 C1279 1.511 . S
C1277 C1273 1.376 . S
C1277 C1276 1.392 1_455 S
C1277 H1289 0.929 . S
C1278 C1274 1.531 . S
C1278 H1290 0.960 . S
C1278 H1291 0.962 . S
C1278 H1292 0.960 . S
C1279 C1276 1.511 . S
C1279 H1293 0.961 . S
C1279 H1294 0.961 . S
C1279 H1295 0.961 . S
C1280 C1281 1.370 . S
C1280 C1282 1.363 . S
C1280 H1296 0.931 . S
C1281 C1280 1.370 . S
C1281 C1285 1.408 . S
C1282 C1280 1.363 . S
C1282 C1283 1.370 . S
C1282 C1286 1.524 . S
C1283 C1275 1.503 . S
C1283 C1282 1.370 . S
C1283 C1284 1.403 . S
C1284 C1283 1.403 . S
C1284 C1285 1.404 . S
C1284 C1287 1.539 . S
C1285 C1281 1.408 . S
C1285 C1284 1.404 . S
C1285 H1297 0.930 . S
C1286 C1282 1.524 . S
C1286 H1298 0.956 . S
C1286 H1299 0.961 . S
C1286 H1300 0.961 . S
C1287 C1284 1.539 . S
C1287 H1301 0.958 . S
C1287 H1302 0.961 . S
C1287 H1303 0.960 . S
H1288 C1272 0.931 . S
H1289 C1277 0.929 . S
H1290 C1278 0.960 . S
H1291 C1278 0.962 . S
H1292 C1278 0.960 . S
H1293 C1279 0.961 . S
H1294 C1279 0.961 . S
H1295 C1279 0.961 . S
H1296 C1280 0.931 . S
H1297 C1285 0.930 . S
H1298 C1286 0.956 . S
H1299 C1286 0.961 . S
H1300 C1286 0.961 . S
H1301 C1287 0.958 . S
H1302 C1287 0.961 . S
H1303 C1287 0.960 . S
C1304 C1305 1.391 . S
C1304 C1306 1.394 . S
C1304 H1320 0.931 . S
C1305 C1304 1.391 . S
C1305 C1309 1.376 . S
C1306 C1304 1.394 . S
C1306 C1307 1.369 . S
C1306 C1310 1.531 . S
C1307 C1306 1.369 . S
C1307 C1308 1.410 . S
C1307 C1315 1.503 . S
C1308 C1307 1.410 . S
C1308 C1309 1.392 . S
C1308 C1311 1.511 . S
C1309 C1305 1.376 . S
C1309 C1308 1.392 . S
C1309 H1321 0.929 . S
C1310 C1306 1.531 . S
C1310 H1322 0.960 . S
C1310 H1323 0.962 . S
C1310 H1324 0.960 . S
C1311 C1308 1.511 . S
C1311 H1325 0.961 . S
C1311 H1326 0.961 . S
C1311 H1327 0.961 . S
C1312 C1313 1.370 . S
C1312 C1314 1.363 . S
C1312 H1328 0.931 . S
C1313 C1312 1.370 . S
C1313 C1317 1.408 . S
C1314 C1312 1.363 . S
C1314 C1315 1.370 . S
C1314 C1318 1.524 . S
C1315 C1307 1.503 . S
C1315 C1314 1.370 . S
C1315 C1316 1.403 . S
C1316 C1315 1.403 . S
C1316 C1317 1.404 . S
C1316 C1319 1.539 . S
C1317 C1313 1.408 . S
C1317 C1316 1.404 . S
C1317 H1329 0.930 . S
C1318 C1314 1.524 . S
C1318 H1330 0.956 . S
C1318 H1331 0.961 . S
C1318 H1332 0.961 . S
C1319 C1316 1.539 . S
C1319 H1333 0.958 . S
C1319 H1334 0.961 . S
C1319 H1335 0.960 . S
H1320 C1304 0.931 . S
H1321 C1309 0.929 . S
H1322 C1310 0.960 . S
H1323 C1310 0.962 . S
H1324 C1310 0.960 . S
H1325 C1311 0.961 . S
H1326 C1311 0.961 . S
H1327 C1311 0.961 . S
H1328 C1312 0.931 . S
H1329 C1317 0.930 . S
H1330 C1318 0.956 . S
H1331 C1318 0.961 . S
H1332 C1318 0.961 . S
H1333 C1319 0.958 . S
H1334 C1319 0.961 . S
H1335 C1319 0.960 . S
C1336 C1337 1.391 . S
C1336 C1338 1.394 . S
C1336 H1352 0.931 . S
C1337 C1336 1.391 . S
C1337 C1341 1.376 . S
C1338 C1336 1.394 . S
C1338 C1339 1.369 . S
C1338 C1342 1.531 . S
C1339 C1338 1.369 . S
C1339 C1340 1.410 . S
C1339 C1347 1.503 . S
C1340 C1339 1.410 . S
C1340 C1341 1.392 . S
C1340 C1343 1.511 . S
C1341 C1337 1.376 . S
C1341 C1340 1.392 . S
C1341 H1353 0.929 . S
C1342 C1338 1.531 . S
C1342 H1354 0.960 . S
C1342 H1355 0.962 . S
C1342 H1356 0.960 . S
C1343 C1340 1.511 . S
C1343 H1357 0.961 . S
C1343 H1358 0.961 . S
C1343 H1359 0.961 . S
C1344 C1345 1.370 . S
C1344 C1346 1.363 . S
C1344 H1360 0.931 . S
C1345 C1344 1.370 . S
C1345 C1349 1.408 . S
C1346 C1344 1.363 . S
C1346 C1347 1.370 . S
C1346 C1350 1.524 . S
C1347 C1339 1.503 . S
C1347 C1346 1.370 . S
C1347 C1348 1.403 . S
C1348 C1347 1.403 . S
C1348 C1349 1.404 . S
C1348 C1351 1.539 . S
C1349 C1345 1.408 . S
C1349 C1348 1.404 . S
C1349 H1361 0.930 . S
C1350 C1346 1.524 . S
C1350 H1362 0.956 . S
C1350 H1363 0.961 . S
C1350 H1364 0.961 . S
C1351 C1348 1.539 . S
C1351 H1365 0.958 . S
C1351 H1366 0.961 . S
C1351 H1367 0.960 . S
H1352 C1336 0.931 . S
H1353 C1341 0.929 . S
H1354 C1342 0.960 . S
H1355 C1342 0.962 . S
H1356 C1342 0.960 . S
H1357 C1343 0.961 . S
H1358 C1343 0.961 . S
H1359 C1343 0.961 . S
H1360 C1344 0.931 . S
H1361 C1349 0.930 . S
H1362 C1350 0.956 . S
H1363 C1350 0.961 . S
H1364 C1350 0.961 . S
H1365 C1351 0.958 . S
H1366 C1351 0.961 . S
H1367 C1351 0.960 . S
C1368 C1369 1.391 . S
C1368 C1370 1.394 1_565 S
C1368 H1384 0.931 . S
C1369 C1368 1.391 . S
C1369 C1373 1.376 . S
C1370 C1368 1.394 1_545 S
C1370 C1371 1.369 . S
C1370 C1374 1.531 . S
C1371 C1370 1.369 . S
C1371 C1372 1.410 . S
C1371 C1379 1.503 . S
C1372 C1371 1.410 . S
C1372 C1373 1.392 1_545 S
C1372 C1375 1.511 . S
C1373 C1369 1.376 . S
C1373 C1372 1.392 1_565 S
C1373 H1385 0.929 . S
C1374 C1370 1.531 . S
C1374 H1386 0.960 . S
C1374 H1387 0.962 . S
C1374 H1388 0.960 . S
C1375 C1372 1.511 . S
C1375 H1389 0.961 . S
C1375 H1390 0.961 . S
C1375 H1391 0.961 . S
C1376 C1377 1.370 . S
C1376 C1378 1.363 . S
C1376 H1392 0.931 . S
C1377 C1376 1.370 . S
C1377 C1381 1.408 . S
C1378 C1376 1.363 . S
C1378 C1379 1.370 . S
C1378 C1382 1.524 . S
C1379 C1371 1.503 . S
C1379 C1378 1.370 . S
C1379 C1380 1.403 . S
C1380 C1379 1.403 . S
C1380 C1381 1.404 . S
C1380 C1383 1.539 . S
C1381 C1377 1.408 . S
C1381 C1380 1.404 . S
C1381 H1393 0.930 . S
C1382 C1378 1.524 . S
C1382 H1394 0.956 . S
C1382 H1395 0.961 . S
C1382 H1396 0.961 . S
C1383 C1380 1.539 . S
C1383 H1397 0.958 . S
C1383 H1398 0.961 . S
C1383 H1399 0.960 . S
H1384 C1368 0.931 . S
H1385 C1373 0.929 . S
H1386 C1374 0.960 . S
H1387 C1374 0.962 . S
H1388 C1374 0.960 . S
H1389 C1375 0.961 . S
H1390 C1375 0.961 . S
H1391 C1375 0.961 . S
H1392 C1376 0.931 . S
H1393 C1381 0.930 . S
H1394 C1382 0.956 . S
H1395 C1382 0.961 . S
H1396 C1382 0.961 . S
H1397 C1383 0.958 . S
H1398 C1383 0.961 . S
H1399 C1383 0.960 . S
C1400 C1401 1.391 . S
C1400 C1402 1.394 1_545 S
C1400 H1416 0.931 . S
C1401 C1400 1.391 . S
C1401 C1405 1.376 . S
C1402 C1400 1.394 1_565 S
C1402 C1403 1.369 . S
C1402 C1406 1.531 . S
C1403 C1402 1.369 . S
C1403 C1404 1.410 . S
C1403 C1411 1.503 . S
C1404 C1403 1.410 . S
C1404 C1405 1.392 1_565 S
C1404 C1407 1.511 . S
C1405 C1401 1.376 . S
C1405 C1404 1.392 1_545 S
C1405 H1417 0.929 . S
C1406 C1402 1.531 . S
C1406 H1418 0.960 . S
C1406 H1419 0.962 . S
C1406 H1420 0.960 . S
C1407 C1404 1.511 . S
C1407 H1421 0.961 . S
C1407 H1422 0.961 . S
C1407 H1423 0.961 . S
C1408 C1409 1.370 . S
C1408 C1410 1.363 . S
C1408 H1424 0.931 . S
C1409 C1408 1.370 . S
C1409 C1413 1.408 . S
C1410 C1408 1.363 . S
C1410 C1411 1.370 . S
C1410 C1414 1.524 . S
C1411 C1403 1.503 . S
C1411 C1410 1.370 . S
C1411 C1412 1.403 . S
C1412 C1411 1.403 . S
C1412 C1413 1.404 . S
C1412 C1415 1.539 . S
C1413 C1409 1.408 . S
C1413 C1412 1.404 . S
C1413 H1425 0.930 . S
C1414 C1410 1.524 . S
C1414 H1426 0.956 . S
C1414 H1427 0.961 . S
C1414 H1428 0.961 . S
C1415 C1412 1.539 . S
C1415 H1429 0.958 . S
C1415 H1430 0.961 . S
C1415 H1431 0.960 . S
H1416 C1400 0.931 . S
H1417 C1405 0.929 . S
H1418 C1406 0.960 . S
H1419 C1406 0.962 . S
H1420 C1406 0.960 . S
H1421 C1407 0.961 . S
H1422 C1407 0.961 . S
H1423 C1407 0.961 . S
H1424 C1408 0.931 . S
H1425 C1413 0.930 . S
H1426 C1414 0.956 . S
H1427 C1414 0.961 . S
H1428 C1414 0.961 . S
H1429 C1415 0.958 . S
H1430 C1415 0.961 . S
H1431 C1415 0.960 . S
C1432 C1433 1.391 . S
C1432 C1434 1.394 . S
C1432 H1448 0.931 . S
C1433 C1432 1.391 . S
C1433 C1437 1.376 . S
C1434 C1432 1.394 . S
C1434 C1435 1.369 . S
C1434 C1438 1.531 . S
C1435 C1434 1.369 . S
C1435 C1436 1.410 . S
C1435 C1443 1.503 . S
C1436 C1435 1.410 . S
C1436 C1437 1.392 . S
C1436 C1439 1.511 . S
C1437 C1433 1.376 . S
C1437 C1436 1.392 . S
C1437 H1449 0.929 . S
C1438 C1434 1.531 . S
C1438 H1450 0.960 . S
C1438 H1451 0.962 . S
C1438 H1452 0.960 . S
C1439 C1436 1.511 . S
C1439 H1453 0.961 . S
C1439 H1454 0.961 . S
C1439 H1455 0.961 . S
C1440 C1441 1.370 . S
C1440 C1442 1.363 . S
C1440 H1456 0.931 . S
C1441 C1440 1.370 . S
C1441 C1445 1.408 . S
C1442 C1440 1.363 . S
C1442 C1443 1.370 . S
C1442 C1446 1.524 . S
C1443 C1435 1.503 . S
C1443 C1442 1.370 . S
C1443 C1444 1.403 . S
C1444 C1443 1.403 . S
C1444 C1445 1.404 . S
C1444 C1447 1.539 . S
C1445 C1441 1.408 . S
C1445 C1444 1.404 . S
C1445 H1457 0.930 . S
C1446 C1442 1.524 . S
C1446 H1458 0.956 . S
C1446 H1459 0.961 . S
C1446 H1460 0.961 . S
C1447 C1444 1.539 . S
C1447 H1461 0.958 . S
C1447 H1462 0.961 . S
C1447 H1463 0.960 . S
H1448 C1432 0.931 . S
H1449 C1437 0.929 . S
H1450 C1438 0.960 . S
H1451 C1438 0.962 . S
H1452 C1438 0.960 . S
H1453 C1439 0.961 . S
H1454 C1439 0.961 . S
H1455 C1439 0.961 . S
H1456 C1440 0.931 . S
H1457 C1445 0.930 . S
H1458 C1446 0.956 . S
H1459 C1446 0.961 . S
H1460 C1446 0.961 . S
H1461 C1447 0.958 . S
H1462 C1447 0.961 . S
H1463 C1447 0.960 . S
C1464 C1465 1.391 . S
C1464 C1466 1.394 . S
C1464 H1480 0.931 . S
C1465 C1464 1.391 . S
C1465 C1469 1.376 . S
C1466 C1464 1.394 . S
C1466 C1467 1.369 . S
C1466 C1470 1.531 . S
C1467 C1466 1.369 . S
C1467 C1468 1.410 . S
C1467 C1475 1.503 . S
C1468 C1467 1.410 . S
C1468 C1469 1.392 . S
C1468 C1471 1.511 . S
C1469 C1465 1.376 . S
C1469 C1468 1.392 . S
C1469 H1481 0.929 . S
C1470 C1466 1.531 . S
C1470 H1482 0.960 . S
C1470 H1483 0.962 . S
C1470 H1484 0.960 . S
C1471 C1468 1.511 . S
C1471 H1485 0.961 . S
C1471 H1486 0.961 . S
C1471 H1487 0.961 . S
C1472 C1473 1.370 . S
C1472 C1474 1.363 . S
C1472 H1488 0.931 . S
C1473 C1472 1.370 . S
C1473 C1477 1.408 . S
C1474 C1472 1.363 . S
C1474 C1475 1.370 . S
C1474 C1478 1.524 . S
C1475 C1467 1.503 . S
C1475 C1474 1.370 . S
C1475 C1476 1.403 . S
C1476 C1475 1.403 . S
C1476 C1477 1.404 . S
C1476 C1479 1.539 . S
C1477 C1473 1.408 . S
C1477 C1476 1.404 . S
C1477 H1489 0.930 . S
C1478 C1474 1.524 . S
C1478 H1490 0.956 . S
C1478 H1491 0.961 . S
C1478 H1492 0.961 . S
C1479 C1476 1.539 . S
C1479 H1493 0.958 . S
C1479 H1494 0.961 . S
C1479 H1495 0.960 . S
H1480 C1464 0.931 . S
H1481 C1469 0.929 . S
H1482 C1470 0.960 . S
H1483 C1470 0.962 . S
H1484 C1470 0.960 . S
H1485 C1471 0.961 . S
H1486 C1471 0.961 . S
H1487 C1471 0.961 . S
H1488 C1472 0.931 . S
H1489 C1477 0.930 . S
H1490 C1478 0.956 . S
H1491 C1478 0.961 . S
H1492 C1478 0.961 . S
H1493 C1479 0.958 . S
H1494 C1479 0.961 . S
H1495 C1479 0.960 . S
C1496 C1497 1.391 . S
C1496 C1498 1.394 1_556 S
C1496 H1512 0.931 . S
C1497 C1496 1.391 . S
C1497 C1501 1.376 . S
C1498 C1496 1.394 1_554 S
C1498 C1499 1.369 . S
C1498 C1502 1.531 . S
C1499 C1498 1.369 . S
C1499 C1500 1.410 . S
C1499 C1507 1.503 . S
C1500 C1499 1.410 . S
C1500 C1501 1.392 1_554 S
C1500 C1503 1.511 . S
C1501 C1497 1.376 . S
C1501 C1500 1.392 1_556 S
C1501 H1513 0.929 . S
C1502 C1498 1.531 . S
C1502 H1514 0.960 . S
C1502 H1515 0.962 . S
C1502 H1516 0.960 . S
C1503 C1500 1.511 . S
C1503 H1517 0.961 . S
C1503 H1518 0.961 . S
C1503 H1519 0.961 . S
C1504 C1505 1.370 . S
C1504 C1506 1.363 . S
C1504 H1520 0.931 . S
C1505 C1504 1.370 . S
C1505 C1509 1.408 . S
C1506 C1504 1.363 . S
C1506 C1507 1.370 . S
C1506 C1510 1.524 . S
C1507 C1499 1.503 . S
C1507 C1506 1.370 . S
C1507 C1508 1.403 . S
C1508 C1507 1.403 . S
C1508 C1509 1.404 . S
C1508 C1511 1.539 . S
C1509 C1505 1.408 . S
C1509 C1508 1.404 . S
C1509 H1521 0.930 . S
C1510 C1506 1.524 . S
C1510 H1522 0.956 . S
C1510 H1523 0.961 . S
C1510 H1524 0.961 . S
C1511 C1508 1.539 . S
C1511 H1525 0.958 . S
C1511 H1526 0.961 . S
C1511 H1527 0.960 . S
H1512 C1496 0.931 . S
H1513 C1501 0.929 . S
H1514 C1502 0.960 . S
H1515 C1502 0.962 . S
H1516 C1502 0.960 . S
H1517 C1503 0.961 . S
H1518 C1503 0.961 . S
H1519 C1503 0.961 . S
H1520 C1504 0.931 . S
H1521 C1509 0.930 . S
H1522 C1510 0.956 . S
H1523 C1510 0.961 . S
H1524 C1510 0.961 . S
H1525 C1511 0.958 . S
H1526 C1511 0.961 . S
H1527 C1511 0.960 . S
C1528 C1529 1.391 . S
C1528 C1530 1.394 . S
C1528 H1544 0.931 . S
C1529 C1528 1.391 . S
C1529 C1533 1.376 . S
C1530 C1528 1.394 . S
C1530 C1531 1.369 . S
C1530 C1534 1.531 . S
C1531 C1530 1.369 . S
C1531 C1532 1.410 . S
C1531 C1539 1.503 . S
C1532 C1531 1.410 . S
C1532 C1533 1.392 . S
C1532 C1535 1.511 . S
C1533 C1529 1.376 . S
C1533 C1532 1.392 . S
C1533 H1545 0.929 . S
C1534 C1530 1.531 . S
C1534 H1546 0.960 . S
C1534 H1547 0.962 . S
C1534 H1548 0.960 . S
C1535 C1532 1.511 . S
C1535 H1549 0.961 . S
C1535 H1550 0.961 . S
C1535 H1551 0.961 . S
C1536 C1537 1.370 . S
C1536 C1538 1.363 . S
C1536 H1552 0.931 . S
C1537 C1536 1.370 . S
C1537 C1541 1.408 . S
C1538 C1536 1.363 . S
C1538 C1539 1.370 . S
C1538 C1542 1.524 . S
C1539 C1531 1.503 . S
C1539 C1538 1.370 . S
C1539 C1540 1.403 . S
C1540 C1539 1.403 . S
C1540 C1541 1.404 . S
C1540 C1543 1.539 . S
C1541 C1537 1.408 . S
C1541 C1540 1.404 . S
C1541 H1553 0.930 . S
C1542 C1538 1.524 . S
C1542 H1554 0.956 . S
C1542 H1555 0.961 . S
C1542 H1556 0.961 . S
C1543 C1540 1.539 . S
C1543 H1557 0.958 . S
C1543 H1558 0.961 . S
C1543 H1559 0.960 . S
H1544 C1528 0.931 . S
H1545 C1533 0.929 . S
H1546 C1534 0.960 . S
H1547 C1534 0.962 . S
H1548 C1534 0.960 . S
H1549 C1535 0.961 . S
H1550 C1535 0.961 . S
H1551 C1535 0.961 . S
H1552 C1536 0.931 . S
H1553 C1541 0.930 . S
H1554 C1542 0.956 . S
H1555 C1542 0.961 . S
H1556 C1542 0.961 . S
H1557 C1543 0.958 . S
H1558 C1543 0.961 . S
H1559 C1543 0.960 . S
C1560 C1561 1.391 . S
C1560 C1562 1.394 1_554 S
C1560 H1576 0.931 . S
C1561 C1560 1.391 . S
C1561 C1565 1.376 . S
C1562 C1560 1.394 1_556 S
C1562 C1563 1.369 . S
C1562 C1566 1.531 . S
C1563 C1562 1.369 . S
C1563 C1564 1.410 . S
C1563 C1571 1.503 . S
C1564 C1563 1.410 . S
C1564 C1565 1.392 1_556 S
C1564 C1567 1.511 . S
C1565 C1561 1.376 . S
C1565 C1564 1.392 1_554 S
C1565 H1577 0.929 . S
C1566 C1562 1.531 . S
C1566 H1578 0.960 . S
C1566 H1579 0.962 . S
C1566 H1580 0.960 . S
C1567 C1564 1.511 . S
C1567 H1581 0.961 . S
C1567 H1582 0.961 . S
C1567 H1583 0.961 . S
C1568 C1569 1.370 . S
C1568 C1570 1.363 . S
C1568 H1584 0.931 . S
C1569 C1568 1.370 . S
C1569 C1573 1.408 . S
C1570 C1568 1.363 . S
C1570 C1571 1.370 . S
C1570 C1574 1.524 . S
C1571 C1563 1.503 . S
C1571 C1570 1.370 . S
C1571 C1572 1.403 . S
C1572 C1571 1.403 . S
C1572 C1573 1.404 . S
C1572 C1575 1.539 . S
C1573 C1569 1.408 . S
C1573 C1572 1.404 . S
C1573 H1585 0.930 . S
C1574 C1570 1.524 . S
C1574 H1586 0.956 . S
C1574 H1587 0.961 . S
C1574 H1588 0.961 . S
C1575 C1572 1.539 . S
C1575 H1589 0.958 . S
C1575 H1590 0.961 . S
C1575 H1591 0.960 . S
H1576 C1560 0.931 . S
H1577 C1565 0.929 . S
H1578 C1566 0.960 . S
H1579 C1566 0.962 . S
H1580 C1566 0.960 . S
H1581 C1567 0.961 . S
H1582 C1567 0.961 . S
H1583 C1567 0.961 . S
H1584 C1568 0.931 . S
H1585 C1573 0.930 . S
H1586 C1574 0.956 . S
H1587 C1574 0.961 . S
H1588 C1574 0.961 . S
H1589 C1575 0.958 . S
H1590 C1575 0.961 . S
H1591 C1575 0.960 . S
C1592 C1593 1.391 . S
C1592 C1594 1.394 . S
C1592 H1608 0.931 . S
C1593 C1592 1.391 . S
C1593 C1597 1.376 . S
C1594 C1592 1.394 . S
C1594 C1595 1.369 . S
C1594 C1598 1.531 . S
C1595 C1594 1.369 . S
C1595 C1596 1.410 . S
C1595 C1603 1.503 . S
C1596 C1595 1.410 . S
C1596 C1597 1.392 . S
C1596 C1599 1.511 . S
C1597 C1593 1.376 . S
C1597 C1596 1.392 . S
C1597 H1609 0.929 . S
C1598 C1594 1.531 . S
C1598 H1610 0.960 . S
C1598 H1611 0.962 . S
C1598 H1612 0.960 . S
C1599 C1596 1.511 . S
C1599 H1613 0.961 . S
C1599 H1614 0.961 . S
C1599 H1615 0.961 . S
C1600 C1601 1.370 . S
C1600 C1602 1.363 . S
C1600 H1616 0.931 . S
C1601 C1600 1.370 . S
C1601 C1605 1.408 . S
C1602 C1600 1.363 . S
C1602 C1603 1.370 . S
C1602 C1606 1.524 . S
C1603 C1595 1.503 . S
C1603 C1602 1.370 . S
C1603 C1604 1.403 . S
C1604 C1603 1.403 . S
C1604 C1605 1.404 . S
C1604 C1607 1.539 . S
C1605 C1601 1.408 . S
C1605 C1604 1.404 . S
C1605 H1617 0.930 . S
C1606 C1602 1.524 . S
C1606 H1618 0.956 . S
C1606 H1619 0.961 . S
C1606 H1620 0.961 . S
C1607 C1604 1.539 . S
C1607 H1621 0.958 . S
C1607 H1622 0.961 . S
C1607 H1623 0.960 . S
H1608 C1592 0.931 . S
H1609 C1597 0.929 . S
H1610 C1598 0.960 . S
H1611 C1598 0.962 . S
H1612 C1598 0.960 . S
H1613 C1599 0.961 . S
H1614 C1599 0.961 . S
H1615 C1599 0.961 . S
H1616 C1600 0.931 . S
H1617 C1605 0.930 . S
H1618 C1606 0.956 . S
H1619 C1606 0.961 . S
H1620 C1606 0.961 . S
H1621 C1607 0.958 . S
H1622 C1607 0.961 . S
H1623 C1607 0.960 . S
C1624 C1625 1.391 . S
C1624 C1626 1.394 . S
C1624 H1640 0.931 . S
C1625 C1624 1.391 . S
C1625 C1629 1.376 . S
C1626 C1624 1.394 . S
C1626 C1627 1.369 . S
C1626 C1630 1.531 . S
C1627 C1626 1.369 . S
C1627 C1628 1.410 . S
C1627 C1635 1.503 . S
C1628 C1627 1.410 . S
C1628 C1629 1.392 . S
C1628 C1631 1.511 . S
C1629 C1625 1.376 . S
C1629 C1628 1.392 . S
C1629 H1641 0.929 . S
C1630 C1626 1.531 . S
C1630 H1642 0.960 . S
C1630 H1643 0.962 . S
C1630 H1644 0.960 . S
C1631 C1628 1.511 . S
C1631 H1645 0.961 . S
C1631 H1646 0.961 . S
C1631 H1647 0.961 . S
C1632 C1633 1.370 . S
C1632 C1634 1.363 1_455 S
C1632 H1648 0.931 . S
C1633 C1632 1.370 . S
C1633 C1637 1.408 . S
C1634 C1632 1.363 1_655 S
C1634 C1635 1.370 . S
C1634 C1638 1.524 . S
C1635 C1627 1.503 . S
C1635 C1634 1.370 . S
C1635 C1636 1.403 . S
C1636 C1635 1.403 . S
C1636 C1637 1.404 1_655 S
C1636 C1639 1.539 . S
C1637 C1633 1.408 . S
C1637 C1636 1.404 1_455 S
C1637 H1649 0.930 . S
C1638 C1634 1.524 . S
C1638 H1650 0.956 . S
C1638 H1651 0.961 . S
C1638 H1652 0.961 . S
C1639 C1636 1.539 . S
C1639 H1653 0.958 . S
C1639 H1654 0.961 . S
C1639 H1655 0.960 . S
H1640 C1624 0.931 . S
H1641 C1629 0.929 . S
H1642 C1630 0.960 . S
H1643 C1630 0.962 . S
H1644 C1630 0.960 . S
H1645 C1631 0.961 . S
H1646 C1631 0.961 . S
H1647 C1631 0.961 . S
H1648 C1632 0.931 . S
H1649 C1637 0.930 . S
H1650 C1638 0.956 . S
H1651 C1638 0.961 . S
H1652 C1638 0.961 . S
H1653 C1639 0.958 . S
H1654 C1639 0.961 . S
H1655 C1639 0.960 . S
C1656 C1657 1.391 . S
C1656 C1658 1.394 . S
C1656 H1672 0.931 . S
C1657 C1656 1.391 . S
C1657 C1661 1.376 . S
C1658 C1656 1.394 . S
C1658 C1659 1.369 . S
C1658 C1662 1.531 . S
C1659 C1658 1.369 . S
C1659 C1660 1.410 . S
C1659 C1667 1.503 . S
C1660 C1659 1.410 . S
C1660 C1661 1.392 . S
C1660 C1663 1.511 . S
C1661 C1657 1.376 . S
C1661 C1660 1.392 . S
C1661 H1673 0.929 . S
C1662 C1658 1.531 . S
C1662 H1674 0.960 . S
C1662 H1675 0.962 . S
C1662 H1676 0.960 . S
C1663 C1660 1.511 . S
C1663 H1677 0.961 . S
C1663 H1678 0.961 . S
C1663 H1679 0.961 . S
C1664 C1665 1.370 . S
C1664 C1666 1.363 1_655 S
C1664 H1680 0.931 . S
C1665 C1664 1.370 . S
C1665 C1669 1.408 . S
C1666 C1664 1.363 1_455 S
C1666 C1667 1.370 . S
C1666 C1670 1.524 . S
C1667 C1659 1.503 . S
C1667 C1666 1.370 . S
C1667 C1668 1.403 . S
C1668 C1667 1.403 . S
C1668 C1669 1.404 1_455 S
C1668 C1671 1.539 . S
C1669 C1665 1.408 . S
C1669 C1668 1.404 1_655 S
C1669 H1681 0.930 . S
C1670 C1666 1.524 . S
C1670 H1682 0.956 . S
C1670 H1683 0.961 . S
C1670 H1684 0.961 . S
C1671 C1668 1.539 . S
C1671 H1685 0.958 . S
C1671 H1686 0.964 . S
C1671 H1687 0.960 . S
H1672 C1656 0.931 . S
H1673 C1661 0.929 . S
H1674 C1662 0.960 . S
H1675 C1662 0.962 . S
H1676 C1662 0.960 . S
H1677 C1663 0.961 . S
H1678 C1663 0.961 . S
H1679 C1663 0.961 . S
H1680 C1664 0.931 . S
H1681 C1669 0.930 . S
H1682 C1670 0.956 . S
H1683 C1670 0.961 . S
H1684 C1670 0.961 . S
H1685 C1671 0.958 . S
H1686 C1671 0.964 . S
H1687 C1671 0.960 . S
C1688 C1689 1.391 . S
C1688 C1690 1.394 . S
C1688 H1704 0.931 . S
C1689 C1688 1.391 . S
C1689 C1693 1.376 . S
C1690 C1688 1.394 . S
C1690 C1691 1.369 . S
C1690 C1694 1.531 . S
C1691 C1690 1.369 . S
C1691 C1692 1.410 . S
C1691 C1699 1.503 . S
C1692 C1691 1.410 . S
C1692 C1693 1.392 . S
C1692 C1695 1.511 . S
C1693 C1689 1.376 . S
C1693 C1692 1.392 . S
C1693 H1705 0.929 . S
C1694 C1690 1.531 . S
C1694 H1706 0.960 . S
C1694 H1707 0.962 . S
C1694 H1708 0.960 . S
C1695 C1692 1.511 . S
C1695 H1709 0.961 . S
C1695 H1710 0.961 . S
C1695 H1711 0.961 . S
C1696 C1697 1.370 . S
C1696 C1698 1.363 . S
C1696 H1712 0.931 . S
C1697 C1696 1.370 . S
C1697 C1701 1.408 . S
C1698 C1696 1.363 . S
C1698 C1699 1.370 . S
C1698 C1702 1.524 . S
C1699 C1691 1.503 . S
C1699 C1698 1.370 . S
C1699 C1700 1.403 . S
C1700 C1699 1.403 . S
C1700 C1701 1.404 . S
C1700 C1703 1.539 . S
C1701 C1697 1.408 . S
C1701 C1700 1.404 . S
C1701 H1713 0.930 . S
C1702 C1698 1.524 . S
C1702 H1714 0.956 . S
C1702 H1715 0.961 . S
C1702 H1716 0.961 . S
C1703 C1700 1.539 . S
C1703 H1717 0.958 . S
C1703 H1718 0.961 . S
C1703 H1719 0.960 . S
H1704 C1688 0.931 . S
H1705 C1693 0.929 . S
H1706 C1694 0.960 . S
H1707 C1694 0.962 . S
H1708 C1694 0.960 . S
H1709 C1695 0.961 . S
H1710 C1695 0.961 . S
H1711 C1695 0.961 . S
H1712 C1696 0.931 . S
H1713 C1701 0.930 . S
H1714 C1702 0.956 . S
H1715 C1702 0.961 . S
H1716 C1702 0.961 . S
H1717 C1703 0.958 . S
H1718 C1703 0.961 . S
H1719 C1703 0.960 . S
C1720 C1721 1.391 . S
C1720 C1722 1.394 . S
C1720 H1736 0.931 . S
C1721 C1720 1.391 . S
C1721 C1725 1.376 . S
C1722 C1720 1.394 . S
C1722 C1723 1.369 . S
C1722 C1726 1.531 . S
C1723 C1722 1.369 . S
C1723 C1724 1.410 . S
C1723 C1731 1.503 . S
C1724 C1723 1.410 . S
C1724 C1725 1.392 . S
C1724 C1727 1.511 . S
C1725 C1721 1.376 . S
C1725 C1724 1.392 . S
C1725 H1737 0.929 . S
C1726 C1722 1.531 . S
C1726 H1738 0.960 . S
C1726 H1739 0.962 . S
C1726 H1740 0.960 . S
C1727 C1724 1.511 . S
C1727 H1741 0.961 . S
C1727 H1742 0.961 . S
C1727 H1743 0.961 . S
C1728 C1729 1.370 . S
C1728 C1730 1.363 . S
C1728 H1744 0.931 . S
C1729 C1728 1.370 . S
C1729 C1733 1.408 . S
C1730 C1728 1.363 . S
C1730 C1731 1.370 . S
C1730 C1734 1.524 . S
C1731 C1723 1.503 . S
C1731 C1730 1.370 . S
C1731 C1732 1.403 . S
C1732 C1731 1.403 . S
C1732 C1733 1.404 . S
C1732 C1735 1.539 . S
C1733 C1729 1.408 . S
C1733 C1732 1.404 . S
C1733 H1745 0.930 . S
C1734 C1730 1.524 . S
C1734 H1746 0.956 . S
C1734 H1747 0.961 . S
C1734 H1748 0.961 . S
C1735 C1732 1.539 . S
C1735 H1749 0.958 . S
C1735 H1750 0.961 . S
C1735 H1751 0.960 . S
H1736 C1720 0.931 . S
H1737 C1725 0.929 . S
H1738 C1726 0.960 . S
H1739 C1726 0.962 . S
H1740 C1726 0.960 . S
H1741 C1727 0.961 . S
H1742 C1727 0.961 . S
H1743 C1727 0.961 . S
H1744 C1728 0.931 . S
H1745 C1733 0.930 . S
H1746 C1734 0.956 . S
H1747 C1734 0.961 . S
H1748 C1734 0.961 . S
H1749 C1735 0.958 . S
H1750 C1735 0.961 . S
H1751 C1735 0.960 . S
C1752 C1753 1.391 . S
C1752 C1754 1.394 . S
C1752 H1768 0.931 . S
C1753 C1752 1.391 . S
C1753 C1757 1.376 . S
C1754 C1752 1.394 . S
C1754 C1755 1.369 . S
C1754 C1758 1.531 . S
C1755 C1754 1.369 . S
C1755 C1756 1.410 . S
C1755 C1763 1.503 . S
C1756 C1755 1.410 . S
C1756 C1757 1.392 . S
C1756 C1759 1.511 . S
C1757 C1753 1.376 . S
C1757 C1756 1.392 . S
C1757 H1769 0.929 . S
C1758 C1754 1.531 . S
C1758 H1770 0.960 . S
C1758 H1771 0.962 . S
C1758 H1772 0.960 . S
C1759 C1756 1.511 . S
C1759 H1773 0.961 . S
C1759 H1774 0.961 . S
C1759 H1775 0.961 . S
C1760 C1761 1.370 . S
C1760 C1762 1.363 1_545 S
C1760 H1776 0.931 . S
C1761 C1760 1.370 . S
C1761 C1765 1.408 . S
C1762 C1760 1.363 1_565 S
C1762 C1763 1.370 . S
C1762 C1766 1.524 . S
C1763 C1755 1.503 . S
C1763 C1762 1.370 . S
C1763 C1764 1.403 . S
C1764 C1763 1.403 . S
C1764 C1765 1.404 1_565 S
C1764 C1767 1.539 . S
C1765 C1761 1.408 . S
C1765 C1764 1.404 1_545 S
C1765 H1777 0.930 . S
C1766 C1762 1.524 . S
C1766 H1778 0.956 . S
C1766 H1779 0.961 . S
C1766 H1780 0.961 . S
C1767 C1764 1.539 . S
C1767 H1781 0.958 . S
C1767 H1782 0.961 . S
C1767 H1783 0.960 . S
H1768 C1752 0.931 . S
H1769 C1757 0.929 . S
H1770 C1758 0.960 . S
H1771 C1758 0.962 . S
H1772 C1758 0.960 . S
H1773 C1759 0.961 . S
H1774 C1759 0.961 . S
H1775 C1759 0.961 . S
H1776 C1760 0.931 . S
H1777 C1765 0.930 . S
H1778 C1766 0.956 . S
H1779 C1766 0.961 . S
H1780 C1766 0.961 . S
H1781 C1767 0.958 . S
H1782 C1767 0.961 . S
H1783 C1767 0.960 . S
C1784 C1785 1.391 . S
C1784 C1786 1.394 1_565 S
C1784 H1800 0.931 . S
C1785 C1784 1.391 . S
C1785 C1789 1.376 . S
C1786 C1784 1.394 1_545 S
C1786 C1787 1.369 . S
C1786 C1790 1.531 . S
C1787 C1786 1.369 . S
C1787 C1788 1.410 . S
C1787 C1795 1.503 . S
C1788 C1787 1.410 . S
C1788 C1789 1.392 1_545 S
C1788 C1791 1.511 . S
C1789 C1785 1.376 . S
C1789 C1788 1.392 1_565 S
C1789 H1801 0.929 . S
C1790 C1786 1.531 . S
C1790 H1802 0.960 . S
C1790 H1803 0.962 . S
C1790 H1804 0.960 . S
C1791 C1788 1.511 . S
C1791 H1805 0.961 . S
C1791 H1806 0.961 . S
C1791 H1807 0.961 . S
C1792 C1793 1.370 . S
C1792 C1794 1.363 . S
C1792 H1808 0.931 . S
C1793 C1792 1.370 . S
C1793 C1797 1.408 . S
C1794 C1792 1.363 . S
C1794 C1795 1.370 . S
C1794 C1798 1.524 . S
C1795 C1787 1.503 . S
C1795 C1794 1.370 . S
C1795 C1796 1.403 . S
C1796 C1795 1.403 . S
C1796 C1797 1.404 . S
C1796 C1799 1.539 . S
C1797 C1793 1.408 . S
C1797 C1796 1.404 . S
C1797 H1809 0.930 . S
C1798 C1794 1.524 . S
C1798 H1810 0.956 . S
C1798 H1811 0.961 . S
C1798 H1812 0.961 . S
C1799 C1796 1.539 . S
C1799 H1813 0.958 . S
C1799 H1814 0.961 . S
C1799 H1815 0.960 . S
H1800 C1784 0.931 . S
H1801 C1789 0.929 . S
H1802 C1790 0.960 . S
H1803 C1790 0.962 . S
H1804 C1790 0.960 . S
H1805 C1791 0.961 . S
H1806 C1791 0.961 . S
H1807 C1791 0.961 . S
H1808 C1792 0.931 . S
H1809 C1797 0.930 . S
H1810 C1798 0.956 . S
H1811 C1798 0.961 . S
H1812 C1798 0.961 . S
H1813 C1799 0.958 . S
H1814 C1799 0.961 . S
H1815 C1799 0.960 . S
C1816 C1817 1.391 . S
C1816 C1818 1.394 . S
C1816 H1832 0.931 . S
C1817 C1816 1.391 . S
C1817 C1821 1.376 . S
C1818 C1816 1.394 . S
C1818 C1819 1.369 . S
C1818 C1822 1.531 . S
C1819 C1818 1.369 . S
C1819 C1820 1.410 . S
C1819 C1827 1.503 . S
C1820 C1819 1.410 . S
C1820 C1821 1.392 . S
C1820 C1823 1.511 . S
C1821 C1817 1.376 . S
C1821 C1820 1.392 . S
C1821 H1833 0.929 . S
C1822 C1818 1.531 . S
C1822 H1834 0.960 . S
C1822 H1835 0.962 . S
C1822 H1836 0.960 . S
C1823 C1820 1.511 . S
C1823 H1837 0.961 . S
C1823 H1838 0.961 . S
C1823 H1839 0.961 . S
C1824 C1825 1.370 . S
C1824 C1826 1.363 . S
C1824 H1840 0.931 . S
C1825 C1824 1.370 . S
C1825 C1829 1.408 . S
C1826 C1824 1.363 . S
C1826 C1827 1.370 . S
C1826 C1830 1.524 . S
C1827 C1819 1.503 . S
C1827 C1826 1.370 . S
C1827 C1828 1.403 . S
C1828 C1827 1.403 . S
C1828 C1829 1.404 . S
C1828 C1831 1.539 . S
C1829 C1825 1.408 . S
C1829 C1828 1.404 . S
C1829 H1841 0.930 . S
C1830 C1826 1.524 . S
C1830 H1842 0.956 . S
C1830 H1843 0.961 . S
C1830 H1844 0.961 . S
C1831 C1828 1.539 . S
C1831 H1845 0.958 . S
C1831 H1846 0.961 . S
C1831 H1847 0.960 . S
H1832 C1816 0.931 . S
H1833 C1821 0.929 . S
H1834 C1822 0.960 . S
H1835 C1822 0.962 . S
H1836 C1822 0.960 . S
H1837 C1823 0.961 . S
H1838 C1823 0.961 . S
H1839 C1823 0.961 . S
H1840 C1824 0.931 . S
H1841 C1829 0.930 . S
H1842 C1830 0.956 . S
H1843 C1830 0.961 . S
H1844 C1830 0.961 . S
H1845 C1831 0.958 . S
H1846 C1831 0.961 . S
H1847 C1831 0.960 . S
C313 C107 1.131 . S
C321 C5 1.167 . S
C345 C16 1.174 . S
C353 C146 1.164 . S
C377 C31 1.171 . S
C385 C120 1.152 . S
C409 C44 1.180 . S
C417 C135 1.167 . S
C441 C55 1.177 . S
C449 C3 1.166 . S
C473 C18 1.149 . S
C481 C68 1.173 . S
C505 C83 1.158 . S
C513 C29 1.147 . S
C537 C42 1.166 . S
C545 C96 1.172 . S
C569 C57 1.180 . S
C577 C109 1.177 . S
C601 C81 1.131 . S
C609 C122 1.169 . S
C633 C133 1.158 . S
C641 C94 1.148 . S
C665 C70 1.140 . S
C673 C148 1.171 . S
C697 C263 1.164 . S
C705 C161 1.173 . S
C729 C172 1.180 . S
C737 C304 1.167 . S
C761 C187 1.160 . S
C769 C276 1.146 . S
C793 C289 1.146 . S
C801 C200 1.171 . S
C825 C211 1.164 . S
C833 C159 1.151 . S
C857 C174 1.170 . S
C865 C224 1.174 . S
C889 C185 1.178 . S
C897 C239 1.176 . S
C921 C252 1.170 . S
C929 C198 1.156 . S
C953 C265 1.169 . S
C961 C213 1.154 . S
C985 C237 1.135 . S
C993 C278 1.169 . S
C1017 C250 1.177 . S
C1025 C291 1.176 . S
C1049 C302 1.157 . S
C1057 C226 1.143 . S
C1081 C296 1.475 . S
C1089 C4 1.485 . S
C1113 C283 1.477 . S
C1121 C23 1.485 . S
C1145 C303 1.483 . S
C1153 C30 1.483 . S
C1177 C43 1.474 . S
C1185 C270 1.483 . S
C1209 C62 1.484 . S
C1217 C173 1.481 . S
C1241 C166 1.484 . S
C1249 C75 1.483 . S
C1273 C205 1.484 . S
C1281 C82 1.481 . S
C1305 C192 1.482 . S
C1313 C95 1.484 . S
C1337 C108 1.484 . S
C1345 C244 1.482 . S
C1369 C212 1.481 . S
C1377 C121 1.484 . S
C1401 C225 1.480 . S
C1409 C140 1.481 . S
C1433 C257 1.483 . S
C1441 C147 1.483 . S
C1465 C134 1.483 . S
C1473 C160 1.481 . S
C1497 C127 1.474 . S
C1505 C179 1.484 . S
C1529 C186 1.474 . S
C1537 C153 1.482 . S
C1561 C114 1.476 . S
C1569 C199 1.485 . S
C1593 C218 1.474 . S
C1601 C17 1.483 . S
C1625 C231 1.474 . S
C1633 C10 1.484 . S
C1657 C238 1.479 . S
C1665 C49 1.485 . S
C1689 C251 1.476 . S
C1697 C36 1.481 . S
C1721 C264 1.482 . S
C1729 C88 1.481 . S
C1753 C277 1.474 . S
C1761 C56 1.484 . S
C1785 C69 1.484 . S
C1793 C290 1.483 . S
C1817 C309 1.483 . S
C1825 C101 1.481 . S
