# Generated by pormake.
# Topology lcy, (6)-cn, num edge types: 1
# Building blocks:
#     Node 0, Type 0, BuildingBlock: OJICUG_clean_sbu_0, # of connection points: 6
#     Node 1, Type 0, BuildingBlock: OJICUG_clean_sbu_0, # of connection points: 6
#     Node 2, Type 0, BuildingBlock: OJICUG_clean_sbu_0, # of connection points: 6
#     Node 3, Type 0, BuildingBlock: OJICUG_clean_sbu_0, # of connection points: 6
#     Edge 4, Type (0, 0), BuildingBlock: KIFKEQ_clean_linker_1, # of connection points: 2
#     Edge 5, Type (0, 0), BuildingBlock: KIFKEQ_clean_linker_1, # of connection points: 2
#     Edge 6, Type (0, 0), BuildingBlock: KIFKEQ_clean_linker_1, # of connection points: 2
#     Edge 7, Type (0, 0), BuildingBlock: KIFKEQ_clean_linker_1, # of connection points: 2
#     Edge 8, Type (0, 0), BuildingBlock: KIFKEQ_clean_linker_1, # of connection points: 2
#     Edge 9, Type (0, 0), BuildingBlock: KIFKEQ_clean_linker_1, # of connection points: 2
#     Edge 10, Type (0, 0), BuildingBlock: KIFKEQ_clean_linker_1, # of connection points: 2
#     Edge 11, Type (0, 0), BuildingBlock: KIFKEQ_clean_linker_1, # of connection points: 2
#     Edge 12, Type (0, 0), BuildingBlock: KIFKEQ_clean_linker_1, # of connection points: 2
#     Edge 13, Type (0, 0), BuildingBlock: KIFKEQ_clean_linker_1, # of connection points: 2
#     Edge 14, Type (0, 0), BuildingBlock: KIFKEQ_clean_linker_1, # of connection points: 2
#     Edge 15, Type (0, 0), BuildingBlock: KIFKEQ_clean_linker_1, # of connection points: 2
# Relax obj value: 0.357
# Max RMSD: 0.279
# Mean RMSD: 0.279
data_MOF--net-lcy--node1-OJICUG_clean_sbu_0--edge1-KIFKEQ_clean_linker_1
_symmetry_space_group_name_H-M    P1
_symmetry_Int_Tables_number       1
_symmetry_cell_setting            triclinic
loop_
_symmetry_equiv_pos_as_xyz
'x, y, z'
_cell_length_a     26.623848
_cell_length_b     25.787611
_cell_length_c     26.606635
_cell_angle_alpha  90.070867
_cell_angle_beta   89.998225
_cell_angle_gamma 90.048407
loop_
_atom_site_label
_atom_site_type_symbol
_atom_site_fract_x
_atom_site_fract_y
_atom_site_fract_z
_atom_type_partial_charge
Sc0 Sc 0.33539 0.44683 0.38795 0.0
Sc1 Sc 0.34305 0.31464 0.39318 0.0
Sc2 Sc 0.41953 0.38229 0.3102 0.0
O3 O 0.36659 0.38126 0.36312 0.0
C4 C 0.33194 0.4596 0.27173 0.0
C5 C 0.24343 0.36599 0.39005 0.0
C6 C 0.36928 0.27734 0.28126 0.0
C7 C 0.33972 0.39359 0.48666 0.0
C8 C 0.44646 0.4868 0.36235 0.0
C9 C 0.45946 0.30425 0.39645 0.0
O10 O 0.31058 0.46279 0.31436 0.0
O11 O 0.26881 0.33095 0.36825 0.0
O12 O 0.38556 0.32131 0.26789 0.0
O13 O 0.36077 0.42955 0.46187 0.0
O14 O 0.46064 0.44334 0.34547 0.0
O15 O 0.41691 0.2997 0.41768 0.0
O16 O 0.40115 0.49525 0.37516 0.0
O17 O 0.32599 0.35143 0.46547 0.0
O18 O 0.466 0.32773 0.35432 0.0
O19 O 0.26386 0.40832 0.40446 0.0
O20 O 0.37441 0.43693 0.26477 0.0
O21 O 0.35653 0.26785 0.32641 0.0
Sc22 Sc 0.9193 0.12751 0.66871 0.0
Sc23 Sc 0.83537 0.06301 0.59055 0.0
Sc24 Sc 0.84281 0.19526 0.58597 0.0
O25 O 0.86643 0.12858 0.61573 0.0
C26 C 0.86894 0.2322 0.69801 0.0
C27 C 0.83183 0.04964 0.70672 0.0
C28 C 0.74327 0.14356 0.58884 0.0
C29 C 0.94647 0.02329 0.61621 0.0
C30 C 0.95921 0.20596 0.58276 0.0
C31 C 0.83963 0.11682 0.4921 0.0
O32 O 0.88525 0.18824 0.71125 0.0
O33 O 0.81056 0.04654 0.66404 0.0
O34 O 0.76861 0.17855 0.61082 0.0
O35 O 0.96053 0.06673 0.63329 0.0
O36 O 0.91666 0.21054 0.56156 0.0
O37 O 0.86071 0.08077 0.51668 0.0
O38 O 0.96576 0.18234 0.6248 0.0
O39 O 0.90122 0.01476 0.60318 0.0
O40 O 0.82583 0.1588 0.51353 0.0
O41 O 0.87418 0.07255 0.71387 0.0
O42 O 0.85619 0.24181 0.65289 0.0
O43 O 0.76376 0.10138 0.57421 0.0
Sc44 Sc 0.1426 0.56315 0.88815 0.0
Sc45 Sc 0.1356 0.69541 0.89327 0.0
Sc46 Sc 0.05867 0.62784 0.81045 0.0
O47 O 0.11169 0.6288 0.8633 0.0
C48 C 0.14594 0.55011 0.7719 0.0
C49 C 0.23496 0.64349 0.88999 0.0
C50 C 0.1092 0.73255 0.78141 0.0
C51 C 0.13866 0.61675 0.98682 0.0
C52 C 0.03137 0.52358 0.8627 0.0
C53 C 0.01923 0.70632 0.89674 0.0
O54 O 0.16722 0.54682 0.81454 0.0
O55 O 0.20974 0.67865 0.86825 0.0
O56 O 0.09277 0.68859 0.76809 0.0
O57 O 0.11739 0.58084 0.96208 0.0
O58 O 0.01735 0.56701 0.8457 0.0
O59 O 0.06184 0.71079 0.91787 0.0
O60 O 0.07663 0.51502 0.87555 0.0
O61 O 0.15262 0.65876 0.96558 0.0
O62 O 0.01249 0.68267 0.85468 0.0
O63 O 0.21432 0.60135 0.90447 0.0
O64 O 0.10358 0.57298 0.76493 0.0
O65 O 0.12216 0.7421 0.82652 0.0
Sc66 Sc 0.63583 0.81464 0.08591 0.0
Sc67 Sc 0.64262 0.94695 0.09035 0.0
Sc68 Sc 0.55886 0.88235 0.16845 0.0
O69 O 0.61183 0.88133 0.11556 0.0
C70 C 0.51946 0.80343 0.08248 0.0
C71 C 0.63877 0.89275 -0.00804 0.0
C72 C 0.53137 0.98632 0.11581 0.0
C73 C 0.73511 0.8669 0.08893 0.0
C74 C 0.60949 0.7779 0.1979 0.0
C75 C 0.64602 0.96061 0.20655 0.0
O76 O 0.56209 0.79891 0.06141 0.0
O77 O 0.61747 0.92877 0.01648 0.0
O78 O 0.51745 0.94292 0.13303 0.0
O79 O 0.70992 0.83181 0.11086 0.0
O80 O 0.59299 0.82185 0.21106 0.0
O81 O 0.66723 0.96381 0.16386 0.0
O82 O 0.62248 0.76823 0.15284 0.0
O83 O 0.71441 0.9089 0.07421 0.0
O84 O 0.60376 0.93752 0.21369 0.0
O85 O 0.65277 0.85093 0.01345 0.0
O86 O 0.5127 0.82726 0.12444 0.0
O87 O 0.57658 0.99494 0.10277 0.0
H88 H 0.10997 0.53845 0.04895 0.0
H89 H 0.22011 0.66067 0.03323 0.0
H90 H 0.15869 0.50121 0.11722 0.0
H91 H 0.26903 0.62305 0.10181 0.0
H92 H 0.36826 0.495 0.18047 0.0
H93 H 0.31956 0.53874 0.11424 0.0
H94 H 0.18495 0.52228 0.20339 0.0
H95 H 0.23229 0.47851 0.26801 0.0
C96 C 0.14399 0.55804 0.06083 0.0
C97 C 0.16121 0.60237 0.03554 0.0
C98 C 0.17204 0.53657 0.09977 0.0
C99 C 0.21802 0.55884 0.11423 0.0
C100 C 0.23413 0.60465 0.09076 0.0
C101 C 0.20567 0.62657 0.05208 0.0
C102 C 0.32824 0.50045 0.18547 0.0
C103 C 0.30426 0.48337 0.22946 0.0
C104 C 0.30054 0.52592 0.148 0.0
C105 C 0.24852 0.53393 0.1539 0.0
C106 C 0.22482 0.51635 0.19763 0.0
C107 C 0.25222 0.49142 0.23478 0.0
H108 H 0.60999 0.99484 0.29842 0.0
H109 H 0.74542 0.98137 0.20951 0.0
H110 H 0.65875 0.03852 0.36481 0.0
H111 H 0.79279 0.02495 0.27438 0.0
H112 H 0.86821 0.03896 0.42924 0.0
H113 H 0.81938 1.00223 0.3606 0.0
H114 H 0.70906 0.12371 0.37746 0.0
H115 H 0.75815 0.16092 0.44626 0.0
C116 C 0.64989 1.00098 0.29312 0.0
C117 C 0.6737 0.98471 0.24873 0.0
C118 C 0.67762 0.02638 0.3307 0.0
C119 C 0.7295 0.03511 0.3245 0.0
C120 C 0.75302 0.01845 0.28033 0.0
C121 C 0.7256 0.99362 0.24305 0.0
C122 C 0.83419 0.05859 0.41758 0.0
C123 C 0.81702 0.1027 0.44331 0.0
C124 C 0.80607 0.03741 0.37846 0.0
C125 C 0.76007 0.05973 0.36433 0.0
C126 C 0.74399 0.10531 0.38826 0.0
C127 C 0.77254 0.12698 0.42708 0.0
H128 H 0.10971 0.51477 0.68049 0.0
H129 H 0.24559 0.53129 0.76821 0.0
H130 H 0.15854 0.47123 0.61411 0.0
H131 H 0.29306 0.48777 0.70341 0.0
H132 H 0.36803 0.4722 0.5488 0.0
H133 H 0.31916 0.50929 0.61715 0.0
H134 H 0.20939 0.38688 0.60164 0.0
H135 H 0.25849 0.34938 0.53303 0.0
C136 C 0.14973 0.50936 0.68551 0.0
C137 C 0.17366 0.52638 0.72959 0.0
C138 C 0.17751 0.48402 0.64795 0.0
C139 C 0.22954 0.47611 0.65385 0.0
C140 C 0.25317 0.49363 0.69767 0.0
C141 C 0.2257 0.51841 0.73492 0.0
C142 C 0.33412 0.45246 0.56068 0.0
C143 C 0.31711 0.40799 0.53538 0.0
C144 C 0.30597 0.47384 0.59965 0.0
C145 C 0.26011 0.45135 0.6141 0.0
C146 C 0.2442 0.40544 0.5906 0.0
C147 C 0.27276 0.38359 0.55189 0.0
H148 H 0.60974 0.9702 0.92903 0.0
H149 H 0.72052 0.849 0.94614 0.0
H150 H 0.65839 0.00709 0.86045 0.0
H151 H 0.76943 0.88634 0.87736 0.0
H152 H 0.86793 0.01545 0.79849 0.0
H153 H 0.81931 0.97154 0.86472 0.0
H154 H 0.68522 0.98479 0.77435 0.0
H155 H 0.73245 0.02865 0.70966 0.0
C156 C 0.64389 0.95076 0.9174 0.0
C157 C 0.66131 0.90683 0.94315 0.0
C158 C 0.6719 0.97203 0.8783 0.0
C159 C 0.71805 0.94998 0.86419 0.0
C160 C 0.73438 0.90455 0.88813 0.0
C161 C 0.70594 0.8828 0.92694 0.0
C162 C 0.82805 0.00921 0.79317 0.0
C163 C 0.80418 0.02548 0.74885 0.0
C164 C 0.8004 0.98367 0.83066 0.0
C165 C 0.74854 0.97476 0.82443 0.0
C166 C 0.72497 0.99142 0.78033 0.0
C167 C 0.75231 0.01642 0.74315 0.0
H168 H 0.04964 0.24278 0.61979 0.0
H169 H 0.96463 0.2217 0.48278 0.0
H170 H 0.11608 0.28646 0.5712 0.0
H171 H 0.02943 0.26541 0.43545 0.0
H172 H 0.18366 0.28541 0.3618 0.0
H173 H 0.11612 0.24664 0.41044 0.0
H174 H 0.12755 0.37001 0.5198 0.0
H175 H 0.19548 0.40912 0.47104 0.0
C176 C 0.04531 0.24714 0.57954 0.0
C177 C 0.00192 0.22896 0.55521 0.0
C178 C 0.08287 0.27257 0.55188 0.0
C179 C 0.07767 0.27941 0.49959 0.0
C180 C 0.03466 0.26044 0.47554 0.0
C181 C -0.0026 0.23556 0.50289 0.0
C182 C 0.17109 0.30497 0.3956 0.0
C183 C 0.19508 0.35022 0.41257 0.0
C184 C 0.13256 0.28261 0.42361 0.0
C185 C 0.11717 0.30493 0.46928 0.0
C186 C 0.13935 0.35155 0.48516 0.0
C187 C 0.17765 0.37432 0.45677 0.0
H188 H 0.0861 0.72581 0.68137 0.0
H189 H 0.12072 0.8369 0.79824 0.0
H190 H 0.05776 0.79587 0.62713 0.0
H191 H 0.09216 0.90678 0.74391 0.0
H192 H 0.92733 0.91921 0.60627 0.0
H193 H 0.98064 0.84862 0.63515 0.0
H194 H 0.10026 0.95743 0.66548 0.0
H195 H 0.04705 0.02818 0.63683 0.0
C196 C 0.08883 0.76525 0.69517 0.0
C197 C 0.10479 0.77558 0.74468 0.0
C198 C 0.07237 0.80535 0.66402 0.0
C199 C 0.07189 0.85671 0.68148 0.0
C200 C 0.09221 0.8676 0.7292 0.0
C201 C 0.10852 0.82745 0.76048 0.0
C202 C 0.96549 0.92799 0.61757 0.0
C203 C 0.98243 0.97954 0.62018 0.0
C204 C -0.00382 0.88744 0.63409 0.0
C205 C 0.0444 0.89763 0.65347 0.0
C206 C 0.06296 0.94853 0.65167 0.0
C207 C 0.03241 0.98902 0.63503 0.0
H208 H 0.28249 0.6005 0.97113 0.0
H209 H 0.29545 0.72329 0.86135 0.0
H210 H 0.35064 0.63939 0.01982 0.0
H211 H 0.36331 0.7618 0.90988 0.0
H212 H 0.51477 0.78595 0.98265 0.0
H213 H 0.44997 0.74209 0.93536 0.0
H214 H 0.36221 0.7237 0.07071 0.0
H215 H 0.42861 0.76758 0.11928 0.0
C216 C 0.30063 0.63503 0.95673 0.0
C217 C 0.28344 0.65898 0.91242 0.0
C218 C 0.33906 0.65767 0.98507 0.0
C219 C 0.36164 0.70397 0.969 0.0
C220 C 0.34653 0.72608 0.92319 0.0
C221 C 0.30783 0.70388 0.89524 0.0
C222 C 0.48177 0.77263 0.0027 0.0
C223 C 0.4769 0.78008 0.0549 0.0
C224 C 0.44452 0.74767 0.97536 0.0
C225 C 0.40119 0.72943 -0.00068 0.0
C226 C 0.39568 0.73703 0.05149 0.0
C227 C 0.43323 0.76256 0.07913 0.0
H228 H 0.39192 0.28388 0.18111 0.0
H229 H 0.3578 0.17306 0.29809 0.0
H230 H 0.41985 0.21367 0.12666 0.0
H231 H 0.38598 0.10304 0.24358 0.0
H232 H 0.55021 0.09034 0.1053 0.0
H233 H 0.4969 0.16098 0.13417 0.0
H234 H 0.3776 0.05212 0.16535 0.0
H235 H 0.43085 0.9813 0.13675 0.0
C236 C 0.38922 0.24447 0.19489 0.0
C237 C 0.37352 0.23425 0.24448 0.0
C238 C 0.40544 0.20429 0.16362 0.0
C239 C 0.40596 0.15296 0.18106 0.0
C240 C 0.38589 0.14219 0.22888 0.0
C241 C 0.3698 0.18242 0.26028 0.0
C242 C 0.51211 0.08155 0.11678 0.0
C243 C 0.4953 0.02998 0.11968 0.0
C244 C 0.48142 0.12214 0.13329 0.0
C245 C 0.43331 0.11196 0.15293 0.0
C246 C 0.41483 0.06102 0.15135 0.0
C247 C 0.44539 0.02049 0.13473 0.0
H248 H 0.68356 0.22395 0.6174 0.0
H249 H 0.69521 0.10063 0.50776 0.0
H250 H 0.61614 0.26292 0.56887 0.0
H251 H 0.62734 0.1399 0.45913 0.0
H252 H 0.54972 0.2672 0.35937 0.0
H253 H 0.61599 0.22332 0.40791 0.0
H254 H 0.52956 0.24474 0.54373 0.0
H255 H 0.46496 0.28871 0.49646 0.0
C256 C 0.67096 0.20451 0.58354 0.0
C257 C 0.6949 0.15933 0.56641 0.0
C258 C 0.63249 0.22698 0.55559 0.0
C259 C 0.61707 0.20483 0.50984 0.0
C260 C 0.63916 0.15824 0.49383 0.0
C261 C 0.67743 0.13537 0.52215 0.0
C262 C 0.54541 0.2629 0.39963 0.0
C263 C 0.50214 0.28126 0.42399 0.0
C264 C 0.58287 0.23734 0.42726 0.0
C265 C 0.57768 0.23053 0.47956 0.0
C266 C 0.53479 0.24969 0.50364 0.0
C267 C 0.49765 0.27472 0.47632 0.0
H268 H 0.05032 0.41961 0.87306 0.0
H269 H 0.93075 0.52837 0.84219 0.0
H270 H -0.00309 0.34883 0.84457 0.0
H271 H 0.87736 0.45739 0.814 0.0
H272 H 0.85688 0.33643 0.68145 0.0
H273 H 0.88516 0.4065 0.73586 0.0
H274 H 0.9201 0.29588 0.85244 0.0
H275 H 0.89211 0.2256 0.79805 0.0
C276 C 0.01217 0.42831 0.86178 0.0
C277 C -0.00469 0.47984 0.85893 0.0
C278 C 0.9814 0.38764 0.8455 0.0
C279 C 0.93317 0.39768 0.82615 0.0
C280 C 0.91467 0.44859 0.82778 0.0
C281 C 0.94533 0.48921 0.84416 0.0
C282 C 0.86915 0.32707 0.71918 0.0
C283 C 0.87317 0.27523 0.73486 0.0
C284 C 0.88528 0.36734 0.75052 0.0
C285 C 0.90569 0.3566 0.7982 0.0
C286 C 0.90543 0.30524 0.81557 0.0
C287 C 0.88918 0.26502 0.78435 0.0
H288 H 0.01437 0.72341 -0.00337 0.0
H289 H 0.92861 0.74253 0.85987 0.0
H290 H 0.94977 0.76752 0.04388 0.0
H291 H 0.86238 0.78659 0.9084 0.0
H292 H 0.78284 0.90973 0.00775 0.0
H293 H 0.85093 0.87068 0.95919 0.0
H294 H 0.86321 0.7485 0.06941 0.0
H295 H 0.79547 0.78721 0.11783 0.0
C296 C 0.98149 0.73692 0.97655 0.0
C297 C 0.97669 0.72964 0.92432 0.0
C298 C 0.94435 0.76204 0.00386 0.0
C299 C 0.90118 0.78055 0.97986 0.0
C300 C 0.89572 0.77307 0.92767 0.0
C301 C 0.93316 0.74741 0.90005 0.0
C302 C 0.80089 0.87523 0.02225 0.0
C303 C 0.78361 0.8514 0.0666 0.0
C304 C 0.83929 0.85249 -0.00602 0.0
C305 C 0.86173 0.80619 0.01015 0.0
C306 C 0.84655 0.78422 0.05601 0.0
C307 C 0.80791 0.80654 0.0839 0.0
H308 H 0.62165 0.67362 0.18141 0.0
H309 H 0.58579 0.78474 0.29782 0.0
H310 H 0.59301 0.60369 0.23565 0.0
H311 H 0.55741 0.71462 0.35201 0.0
H312 H 0.54714 0.48218 0.34221 0.0
H313 H 0.6005 0.5531 0.314 0.0
H314 H 0.48058 0.66156 0.34363 0.0
H315 H 0.42716 0.59082 0.37212 0.0
C316 C 0.60917 0.68308 0.21906 0.0
C317 C 0.6051 0.73496 0.23473 0.0
C318 C 0.59282 0.64289 0.25031 0.0
C319 C 0.57212 0.65376 0.29786 0.0
C320 C 0.57229 0.70515 0.31524 0.0
C321 C 0.58879 0.74529 0.28412 0.0
C322 C 0.53246 0.5213 0.34395 0.0
C323 C 0.48239 0.53064 0.35849 0.0
C324 C 0.5631 0.56189 0.32756 0.0
C325 C 0.54451 0.61275 0.32569 0.0
C326 C 0.49615 0.62279 0.34476 0.0
C327 C 0.4654 0.58214 0.36104 0.0
loop_
_geom_bond_atom_site_label_1
_geom_bond_atom_site_label_2
_geom_bond_distance
_geom_bond_site_symmetry_2
_ccdc_geom_bond_type
Sc0 O3 2.025 . S
Sc0 O10 2.105 . S
Sc0 O13 2.105 . S
Sc0 O16 2.105 . S
Sc0 O19 2.105 . S
Sc1 O3 2.025 . S
Sc1 O11 2.105 . S
Sc1 O15 2.105 . S
Sc1 O17 2.105 . S
Sc1 O21 2.105 . S
Sc2 O3 2.025 . S
Sc2 O12 2.105 . S
Sc2 O14 2.105 . S
Sc2 O18 2.105 . S
Sc2 O20 2.105 . S
O3 Sc0 2.025 . S
O3 Sc1 2.025 . S
O3 Sc2 2.025 . S
C4 O10 1.268 . S
C4 O20 1.268 . S
C5 O11 1.268 . S
C5 O19 1.268 . S
C6 O12 1.268 . S
C6 O21 1.268 . S
C7 O13 1.268 . S
C7 O17 1.268 . S
C8 O14 1.268 . S
C8 O16 1.268 . S
C9 O15 1.268 . S
C9 O18 1.268 . S
O10 Sc0 2.105 . S
O10 C4 1.268 . S
O11 Sc1 2.105 . S
O11 C5 1.268 . S
O12 Sc2 2.105 . S
O12 C6 1.268 . S
O13 Sc0 2.105 . S
O13 C7 1.268 . S
O14 Sc2 2.105 . S
O14 C8 1.268 . S
O15 Sc1 2.105 . S
O15 C9 1.268 . S
O16 Sc0 2.105 . S
O16 C8 1.268 . S
O17 Sc1 2.105 . S
O17 C7 1.268 . S
O18 Sc2 2.105 . S
O18 C9 1.268 . S
O19 Sc0 2.105 . S
O19 C5 1.268 . S
O20 Sc2 2.105 . S
O20 C4 1.268 . S
O21 Sc1 2.105 . S
O21 C6 1.268 . S
Sc22 O25 2.025 . S
Sc22 O32 2.105 . S
Sc22 O35 2.105 . S
Sc22 O38 2.105 . S
Sc22 O41 2.105 . S
Sc23 O25 2.025 . S
Sc23 O33 2.105 . S
Sc23 O37 2.105 . S
Sc23 O39 2.105 . S
Sc23 O43 2.105 . S
Sc24 O25 2.025 . S
Sc24 O34 2.105 . S
Sc24 O36 2.105 . S
Sc24 O40 2.105 . S
Sc24 O42 2.105 . S
O25 Sc22 2.025 . S
O25 Sc23 2.025 . S
O25 Sc24 2.025 . S
C26 O32 1.268 . S
C26 O42 1.268 . S
C27 O33 1.268 . S
C27 O41 1.268 . S
C28 O34 1.268 . S
C28 O43 1.268 . S
C29 O35 1.268 . S
C29 O39 1.268 . S
C30 O36 1.268 . S
C30 O38 1.268 . S
C31 O37 1.268 . S
C31 O40 1.268 . S
O32 Sc22 2.105 . S
O32 C26 1.268 . S
O33 Sc23 2.105 . S
O33 C27 1.268 . S
O34 Sc24 2.105 . S
O34 C28 1.268 . S
O35 Sc22 2.105 . S
O35 C29 1.268 . S
O36 Sc24 2.105 . S
O36 C30 1.268 . S
O37 Sc23 2.105 . S
O37 C31 1.268 . S
O38 Sc22 2.105 . S
O38 C30 1.268 . S
O39 Sc23 2.105 . S
O39 C29 1.268 . S
O40 Sc24 2.105 . S
O40 C31 1.268 . S
O41 Sc22 2.105 . S
O41 C27 1.268 . S
O42 Sc24 2.105 . S
O42 C26 1.268 . S
O43 Sc23 2.105 . S
O43 C28 1.268 . S
Sc44 O47 2.025 . S
Sc44 O54 2.105 . S
Sc44 O57 2.105 . S
Sc44 O60 2.105 . S
Sc44 O63 2.105 . S
Sc45 O47 2.025 . S
Sc45 O55 2.105 . S
Sc45 O59 2.105 . S
Sc45 O61 2.105 . S
Sc45 O65 2.105 . S
Sc46 O47 2.025 . S
Sc46 O56 2.105 . S
Sc46 O58 2.105 . S
Sc46 O62 2.105 . S
Sc46 O64 2.105 . S
O47 Sc44 2.025 . S
O47 Sc45 2.025 . S
O47 Sc46 2.025 . S
C48 O54 1.268 . S
C48 O64 1.268 . S
C49 O55 1.268 . S
C49 O63 1.268 . S
C50 O56 1.268 . S
C50 O65 1.268 . S
C51 O57 1.268 . S
C51 O61 1.268 . S
C52 O58 1.268 . S
C52 O60 1.268 . S
C53 O59 1.268 . S
C53 O62 1.268 . S
O54 Sc44 2.105 . S
O54 C48 1.268 . S
O55 Sc45 2.105 . S
O55 C49 1.268 . S
O56 Sc46 2.105 . S
O56 C50 1.268 . S
O57 Sc44 2.105 . S
O57 C51 1.268 . S
O58 Sc46 2.105 . S
O58 C52 1.268 . S
O59 Sc45 2.105 . S
O59 C53 1.268 . S
O60 Sc44 2.105 . S
O60 C52 1.268 . S
O61 Sc45 2.105 . S
O61 C51 1.268 . S
O62 Sc46 2.105 . S
O62 C53 1.268 . S
O63 Sc44 2.105 . S
O63 C49 1.268 . S
O64 Sc46 2.105 . S
O64 C48 1.268 . S
O65 Sc45 2.105 . S
O65 C50 1.268 . S
Sc66 O69 2.025 . S
Sc66 O76 2.105 . S
Sc66 O79 2.105 . S
Sc66 O82 2.105 . S
Sc66 O85 2.105 . S
Sc67 O69 2.025 . S
Sc67 O77 2.105 . S
Sc67 O81 2.105 . S
Sc67 O83 2.105 . S
Sc67 O87 2.105 . S
Sc68 O69 2.025 . S
Sc68 O78 2.105 . S
Sc68 O80 2.105 . S
Sc68 O84 2.105 . S
Sc68 O86 2.105 . S
O69 Sc66 2.025 . S
O69 Sc67 2.025 . S
O69 Sc68 2.025 . S
C70 O76 1.268 . S
C70 O86 1.268 . S
C71 O77 1.268 . S
C71 O85 1.268 . S
C72 O78 1.268 . S
C72 O87 1.268 . S
C73 O79 1.268 . S
C73 O83 1.268 . S
C74 O80 1.268 . S
C74 O82 1.268 . S
C75 O81 1.268 . S
C75 O84 1.268 . S
O76 Sc66 2.105 . S
O76 C70 1.268 . S
O77 Sc67 2.105 . S
O77 C71 1.268 . S
O78 Sc68 2.105 . S
O78 C72 1.268 . S
O79 Sc66 2.105 . S
O79 C73 1.268 . S
O80 Sc68 2.105 . S
O80 C74 1.268 . S
O81 Sc67 2.105 . S
O81 C75 1.268 . S
O82 Sc66 2.105 . S
O82 C74 1.268 . S
O83 Sc67 2.105 . S
O83 C73 1.268 . S
O84 Sc68 2.105 . S
O84 C75 1.268 . S
O85 Sc66 2.105 . S
O85 C71 1.268 . S
O86 Sc68 2.105 . S
O86 C70 1.268 . S
O87 Sc67 2.105 . S
O87 C72 1.268 . S
H88 C96 0.950 . S
H89 C101 0.950 . S
H90 C98 0.950 . S
H91 C100 0.950 . S
H92 C102 0.950 . S
H93 C104 0.950 . S
H94 C106 0.950 . S
H95 C107 0.950 . S
C96 H88 0.950 . S
C96 C97 1.386 . S
C96 C98 1.391 . S
C97 C96 1.386 . S
C97 C101 1.393 . S
C98 H90 0.950 . S
C98 C96 1.391 . S
C98 C99 1.400 . S
C99 C98 1.400 . S
C99 C100 1.398 . S
C99 C105 1.491 . S
C100 H91 0.950 . S
C100 C99 1.398 . S
C100 C101 1.391 . S
C101 H89 0.950 . S
C101 C97 1.393 . S
C101 C100 1.391 . S
C102 H92 0.950 . S
C102 C103 1.386 . S
C102 C104 1.391 . S
C103 C102 1.386 . S
C103 C107 1.393 . S
C104 H93 0.950 . S
C104 C102 1.391 . S
C104 C105 1.400 . S
C105 C99 1.491 . S
C105 C104 1.400 . S
C105 C106 1.398 . S
C106 H94 0.950 . S
C106 C105 1.398 . S
C106 C107 1.391 . S
C107 H95 0.950 . S
C107 C103 1.393 . S
C107 C106 1.391 . S
H108 C116 0.950 . S
H109 C121 0.950 . S
H110 C118 0.950 1_545 S
H111 C120 0.950 . S
H112 C122 0.945 1_565 S
H113 C124 0.950 . S
H114 C126 0.950 . S
H115 C127 0.950 . S
C116 H108 0.950 . S
C116 C117 1.386 . S
C116 C118 1.391 . S
C117 C116 1.386 . S
C117 C121 1.393 . S
C118 H110 0.950 1_565 S
C118 C116 1.391 . S
C118 C119 1.400 . S
C119 C118 1.400 . S
C119 C120 1.398 . S
C119 C125 1.491 . S
C120 H111 0.950 . S
C120 C119 1.398 . S
C120 C121 1.391 . S
C121 H109 0.950 . S
C121 C117 1.393 . S
C121 C120 1.391 . S
C122 H112 0.945 1_545 S
C122 C123 1.396 . S
C122 C124 1.386 1_545 S
C123 C122 1.396 . S
C123 C127 1.393 . S
C124 H113 0.950 . S
C124 C122 1.386 1_565 S
C124 C125 1.400 . S
C125 C119 1.491 . S
C125 C124 1.400 . S
C125 C126 1.398 1_565 S
C126 H114 0.950 . S
C126 C125 1.398 1_545 S
C126 C127 1.391 . S
C127 H115 0.950 . S
C127 C123 1.393 . S
C127 C126 1.391 . S
H128 C136 0.950 . S
H129 C141 0.950 . S
H130 C138 0.950 . S
H131 C140 0.950 . S
H132 C142 0.950 . S
H133 C144 0.950 . S
H134 C146 0.950 . S
H135 C147 0.950 . S
C136 H128 0.950 . S
C136 C137 1.386 . S
C136 C138 1.391 . S
C137 C136 1.386 . S
C137 C141 1.393 . S
C138 H130 0.950 . S
C138 C136 1.391 . S
C138 C139 1.400 . S
C139 C138 1.400 . S
C139 C140 1.398 . S
C139 C145 1.491 . S
C140 H131 0.950 . S
C140 C139 1.398 . S
C140 C141 1.391 . S
C141 H129 0.950 . S
C141 C137 1.393 . S
C141 C140 1.391 . S
C142 H132 0.950 . S
C142 C143 1.386 . S
C142 C144 1.391 . S
C143 C142 1.386 . S
C143 C147 1.393 . S
C144 H133 0.950 . S
C144 C142 1.391 . S
C144 C145 1.400 . S
C145 C139 1.491 . S
C145 C144 1.400 . S
C145 C146 1.398 . S
C146 H134 0.950 . S
C146 C145 1.398 . S
C146 C147 1.391 . S
C147 H135 0.950 . S
C147 C143 1.393 . S
C147 C146 1.391 . S
H148 C156 0.950 . S
H149 C161 0.950 1_554 S
H150 C158 0.940 1_545 S
H151 C160 0.950 . S
H152 C162 0.950 . S
H153 C164 0.950 . S
H154 C166 0.950 . S
H155 C167 0.950 . S
C156 H148 0.950 . S
C156 C157 1.386 . S
C156 C158 1.403 . S
C157 C156 1.386 . S
C157 C161 1.393 . S
C158 H150 0.940 1_565 S
C158 C156 1.403 . S
C158 C159 1.398 1_565 S
C159 C158 1.398 1_545 S
C159 C160 1.398 1_545 S
C159 C165 1.491 . S
C160 H151 0.950 . S
C160 C159 1.398 1_565 S
C160 C161 1.391 . S
C161 H149 0.950 1_556 S
C161 C157 1.393 . S
C161 C160 1.391 . S
C162 H152 0.950 . S
C162 C163 1.386 . S
C162 C164 1.391 . S
C163 C162 1.386 . S
C163 C167 1.393 . S
C164 H153 0.950 . S
C164 C162 1.391 . S
C164 C165 1.400 . S
C165 C159 1.491 . S
C165 C164 1.400 . S
C165 C166 1.398 . S
C166 H154 0.950 . S
C166 C165 1.398 . S
C166 C167 1.391 . S
C167 H155 0.950 . S
C167 C163 1.393 . S
C167 C166 1.391 . S
H168 C176 0.950 1_655 S
H169 C181 0.950 . S
H170 C178 0.950 . S
H171 C180 0.950 . S
H172 C182 0.950 . S
H173 C184 0.950 . S
H174 C186 0.950 . S
H175 C187 0.950 . S
C176 H168 0.950 1_455 S
C176 C177 1.386 . S
C176 C178 1.391 . S
C177 C176 1.386 . S
C177 C181 1.393 . S
C178 H170 0.950 . S
C178 C176 1.391 . S
C178 C179 1.400 . S
C179 C178 1.400 . S
C179 C180 1.398 . S
C179 C185 1.491 . S
C180 H171 0.950 . S
C180 C179 1.398 . S
C180 C181 1.391 . S
C181 H169 0.950 . S
C181 C177 1.393 . S
C181 C180 1.391 . S
C182 H172 0.950 . S
C182 C183 1.386 . S
C182 C184 1.391 . S
C183 C182 1.386 . S
C183 C187 1.393 . S
C184 H173 0.950 . S
C184 C182 1.391 . S
C184 C185 1.400 . S
C185 C179 1.491 . S
C185 C184 1.400 . S
C185 C186 1.398 . S
C186 H174 0.950 . S
C186 C185 1.398 . S
C186 C187 1.391 . S
C187 H175 0.950 . S
C187 C183 1.393 . S
C187 C186 1.391 . S
H188 C196 0.950 . S
H189 C201 0.950 . S
H190 C198 0.950 . S
H191 C200 0.950 1_655 S
H192 C202 0.950 . S
H193 C204 0.950 . S
H194 C206 0.950 . S
H195 C207 0.953 . S
C196 H188 0.950 . S
C196 C197 1.386 . S
C196 C198 1.391 . S
C197 C196 1.386 . S
C197 C201 1.393 . S
C198 H190 0.950 . S
C198 C196 1.391 . S
C198 C199 1.400 . S
C199 C198 1.400 . S
C199 C200 1.398 . S
C199 C205 1.491 . S
C200 H191 0.950 1_455 S
C200 C199 1.398 . S
C200 C201 1.391 . S
C201 H189 0.950 . S
C201 C197 1.393 . S
C201 C200 1.391 . S
C202 H192 0.950 . S
C202 C203 1.386 . S
C202 C204 1.391 . S
C203 C202 1.386 . S
C203 C207 1.386 1_655 S
C204 H193 0.950 . S
C204 C202 1.391 . S
C204 C205 1.400 1_655 S
C205 C199 1.491 . S
C205 C204 1.400 1_455 S
C205 C206 1.398 . S
C206 H194 0.950 . S
C206 C205 1.398 . S
C206 C207 1.394 . S
C207 H195 0.953 . S
C207 C203 1.386 1_455 S
C207 C206 1.394 . S
H208 C216 0.950 . S
H209 C221 0.950 . S
H210 C218 0.950 1_554 S
H211 C220 0.950 . S
H212 C222 0.950 1_556 S
H213 C224 0.950 . S
H214 C226 0.950 . S
H215 C227 0.950 . S
C216 H208 0.950 . S
C216 C217 1.386 . S
C216 C218 1.391 . S
C217 C216 1.386 . S
C217 C221 1.393 . S
C218 H210 0.950 1_556 S
C218 C216 1.391 . S
C218 C219 1.400 . S
C219 C218 1.400 . S
C219 C220 1.398 . S
C219 C225 1.491 . S
C220 H211 0.950 . S
C220 C219 1.398 . S
C220 C221 1.391 . S
C221 H209 0.950 . S
C221 C217 1.393 . S
C221 C220 1.391 . S
C222 H212 0.950 1_554 S
C222 C223 1.386 . S
C222 C224 1.391 1_554 S
C223 C222 1.386 . S
C223 C227 1.393 . S
C224 H213 0.950 . S
C224 C222 1.391 1_556 S
C224 C225 1.400 . S
C225 C219 1.491 . S
C225 C224 1.400 . S
C225 C226 1.398 1_556 S
C226 H214 0.950 . S
C226 C225 1.398 1_554 S
C226 C227 1.391 . S
C227 H215 0.950 . S
C227 C223 1.393 . S
C227 C226 1.391 . S
H228 C236 0.950 . S
H229 C241 0.950 . S
H230 C238 0.950 . S
H231 C240 0.950 . S
H232 C242 0.950 . S
H233 C244 0.950 . S
H234 C246 0.950 . S
H235 C247 0.950 . S
C236 H228 0.950 . S
C236 C237 1.386 . S
C236 C238 1.391 . S
C237 C236 1.386 . S
C237 C241 1.393 . S
C238 H230 0.950 . S
C238 C236 1.391 . S
C238 C239 1.400 . S
C239 C238 1.400 . S
C239 C240 1.398 . S
C239 C245 1.491 . S
C240 H231 0.950 . S
C240 C239 1.398 . S
C240 C241 1.391 . S
C241 H229 0.950 . S
C241 C237 1.393 . S
C241 C240 1.391 . S
C242 H232 0.950 . S
C242 C243 1.386 . S
C242 C244 1.391 . S
C243 C242 1.386 . S
C243 C247 1.393 . S
C244 H233 0.950 . S
C244 C242 1.391 . S
C244 C245 1.400 . S
C245 C239 1.491 . S
C245 C244 1.400 . S
C245 C246 1.398 . S
C246 H234 0.950 . S
C246 C245 1.398 . S
C246 C247 1.391 . S
C247 H235 0.950 . S
C247 C243 1.393 . S
C247 C246 1.391 . S
H248 C256 0.950 . S
H249 C261 0.950 . S
H250 C258 0.950 . S
H251 C260 0.950 . S
H252 C262 0.950 . S
H253 C264 0.950 . S
H254 C266 0.950 . S
H255 C267 0.950 . S
C256 H248 0.950 . S
C256 C257 1.386 . S
C256 C258 1.391 . S
C257 C256 1.386 . S
C257 C261 1.393 . S
C258 H250 0.950 . S
C258 C256 1.391 . S
C258 C259 1.400 . S
C259 C258 1.400 . S
C259 C260 1.398 . S
C259 C265 1.491 . S
C260 H251 0.950 . S
C260 C259 1.398 . S
C260 C261 1.391 . S
C261 H249 0.950 . S
C261 C257 1.393 . S
C261 C260 1.391 . S
C262 H252 0.950 . S
C262 C263 1.386 . S
C262 C264 1.391 . S
C263 C262 1.386 . S
C263 C267 1.393 . S
C264 H253 0.950 . S
C264 C262 1.391 . S
C264 C265 1.400 . S
C265 C259 1.491 . S
C265 C264 1.400 . S
C265 C266 1.398 . S
C266 H254 0.950 . S
C266 C265 1.398 . S
C266 C267 1.391 . S
C267 H255 0.950 . S
C267 C263 1.393 . S
C267 C266 1.391 . S
H268 C276 0.950 . S
H269 C281 0.950 . S
H270 C278 0.950 . S
H271 C280 0.950 . S
H272 C282 0.950 . S
H273 C284 0.950 . S
H274 C286 0.950 . S
H275 C287 0.950 . S
C276 H268 0.950 . S
C276 C277 1.386 . S
C276 C278 1.391 . S
C277 C276 1.386 . S
C277 C281 1.393 . S
C278 H270 0.950 . S
C278 C276 1.391 . S
C278 C279 1.400 1_455 S
C279 C278 1.400 1_655 S
C279 C280 1.398 . S
C279 C285 1.491 . S
C280 H271 0.950 . S
C280 C279 1.398 . S
C280 C281 1.391 1_655 S
C281 H269 0.950 . S
C281 C277 1.393 . S
C281 C280 1.391 1_455 S
C282 H272 0.950 . S
C282 C283 1.386 . S
C282 C284 1.391 . S
C283 C282 1.386 . S
C283 C287 1.393 . S
C284 H273 0.950 . S
C284 C282 1.391 . S
C284 C285 1.400 . S
C285 C279 1.491 . S
C285 C284 1.400 . S
C285 C286 1.398 . S
C286 H274 0.950 . S
C286 C285 1.398 . S
C286 C287 1.391 . S
C287 H275 0.950 . S
C287 C283 1.393 . S
C287 C286 1.391 . S
H288 C296 0.950 . S
H289 C301 0.950 . S
H290 C298 0.950 . S
H291 C300 0.950 . S
H292 C302 0.950 . S
H293 C304 0.960 . S
H294 C306 0.950 . S
H295 C307 0.950 . S
C296 H288 0.950 . S
C296 C297 1.386 . S
C296 C298 1.391 1_556 S
C297 C296 1.386 . S
C297 C301 1.393 . S
C298 H290 0.950 . S
C298 C296 1.391 1_554 S
C298 C299 1.400 . S
C299 C298 1.400 . S
C299 C300 1.398 1_554 S
C299 C305 1.491 . S
C300 H291 0.950 . S
C300 C299 1.398 1_556 S
C300 C301 1.391 . S
C301 H289 0.950 . S
C301 C297 1.393 . S
C301 C300 1.391 . S
C302 H292 0.950 . S
C302 C303 1.386 . S
C302 C304 1.391 . S
C303 C302 1.386 . S
C303 C307 1.393 . S
C304 H293 0.960 . S
C304 C302 1.391 . S
C304 C305 1.400 . S
C305 C299 1.491 . S
C305 C304 1.400 . S
C305 C306 1.398 . S
C306 H294 0.950 . S
C306 C305 1.398 . S
C306 C307 1.391 . S
C307 H295 0.950 . S
C307 C303 1.393 . S
C307 C306 1.391 . S
H308 C316 0.950 . S
H309 C321 0.950 . S
H310 C318 0.950 . S
H311 C320 0.950 . S
H312 C322 0.950 . S
H313 C324 0.950 . S
H314 C326 0.950 . S
H315 C327 0.950 . S
C316 H308 0.950 . S
C316 C317 1.386 . S
C316 C318 1.391 . S
C317 C316 1.386 . S
C317 C321 1.393 . S
C318 H310 0.950 . S
C318 C316 1.391 . S
C318 C319 1.400 . S
C319 C318 1.400 . S
C319 C320 1.398 . S
C319 C325 1.491 . S
C320 H311 0.950 . S
C320 C319 1.398 . S
C320 C321 1.391 . S
C321 H309 0.950 . S
C321 C317 1.393 . S
C321 C320 1.391 . S
C322 H312 0.950 . S
C322 C323 1.386 . S
C322 C324 1.391 . S
C323 C322 1.386 . S
C323 C327 1.393 . S
C324 H313 0.950 . S
C324 C322 1.391 . S
C324 C325 1.400 . S
C325 C319 1.491 . S
C325 C324 1.400 . S
C325 C326 1.398 . S
C326 H314 0.950 . S
C326 C325 1.398 . S
C326 C327 1.391 . S
C327 H315 0.950 . S
C327 C323 1.393 . S
C327 C326 1.391 . S
C97 C51 1.287 1_554 S
C103 C4 1.298 . S
C117 C75 1.312 . S
C123 C31 1.321 . S
C137 C48 1.303 . S
C143 C7 1.323 . S
C157 C71 1.301 1_556 S
C163 C27 1.286 . S
C177 C30 1.303 1_455 S
C183 C5 1.323 . S
C197 C50 1.296 . S
C203 C29 1.288 1_565 S
C217 C49 1.317 . S
C223 C70 1.318 . S
C237 C6 1.292 . S
C243 C72 1.290 1_545 S
C257 C28 1.300 . S
C263 C9 1.287 . S
C277 C52 1.315 . S
C283 C26 1.289 . S
C297 C53 1.295 1_655 S
C303 C73 1.288 . S
C317 C74 1.323 . S
C323 C8 1.303 . S
