# Generated by pormake.
# Topology unf, (4)-cn, num edge types: 1
# Building blocks:
#     Node 0, Type 0, BuildingBlock: UXUYUI_clean_sbu_0, # of connection points: 4
#     Node 1, Type 0, BuildingBlock: UXUYUI_clean_sbu_0, # of connection points: 4
#     Node 2, Type 0, BuildingBlock: UXUYUI_clean_sbu_0, # of connection points: 4
#     Node 3, Type 0, BuildingBlock: UXUYUI_clean_sbu_0, # of connection points: 4
#     Node 4, Type 0, BuildingBlock: UXUYUI_clean_sbu_0, # of connection points: 4
#     Node 5, Type 0, BuildingBlock: UXUYUI_clean_sbu_0, # of connection points: 4
#     Node 6, Type 0, BuildingBlock: UXUYUI_clean_sbu_0, # of connection points: 4
#     Node 7, Type 0, BuildingBlock: UXUYUI_clean_sbu_0, # of connection points: 4
#     Node 8, Type 0, BuildingBlock: UXUYUI_clean_sbu_0, # of connection points: 4
#     Node 9, Type 0, BuildingBlock: UXUYUI_clean_sbu_0, # of connection points: 4
#     Node 10, Type 0, BuildingBlock: UXUYUI_clean_sbu_0, # of connection points: 4
#     Node 11, Type 0, BuildingBlock: UXUYUI_clean_sbu_0, # of connection points: 4
#     Edge 12, Type (0, 0), BuildingBlock: MIFKUJ_clean_linker_0, # of connection points: 2
#     Edge 13, Type (0, 0), BuildingBlock: MIFKUJ_clean_linker_0, # of connection points: 2
#     Edge 14, Type (0, 0), BuildingBlock: MIFKUJ_clean_linker_0, # of connection points: 2
#     Edge 15, Type (0, 0), BuildingBlock: MIFKUJ_clean_linker_0, # of connection points: 2
#     Edge 16, Type (0, 0), BuildingBlock: MIFKUJ_clean_linker_0, # of connection points: 2
#     Edge 17, Type (0, 0), BuildingBlock: MIFKUJ_clean_linker_0, # of connection points: 2
#     Edge 18, Type (0, 0), BuildingBlock: MIFKUJ_clean_linker_0, # of connection points: 2
#     Edge 19, Type (0, 0), BuildingBlock: MIFKUJ_clean_linker_0, # of connection points: 2
#     Edge 20, Type (0, 0), BuildingBlock: MIFKUJ_clean_linker_0, # of connection points: 2
#     Edge 21, Type (0, 0), BuildingBlock: MIFKUJ_clean_linker_0, # of connection points: 2
#     Edge 22, Type (0, 0), BuildingBlock: MIFKUJ_clean_linker_0, # of connection points: 2
#     Edge 23, Type (0, 0), BuildingBlock: MIFKUJ_clean_linker_0, # of connection points: 2
#     Edge 24, Type (0, 0), BuildingBlock: MIFKUJ_clean_linker_0, # of connection points: 2
#     Edge 25, Type (0, 0), BuildingBlock: MIFKUJ_clean_linker_0, # of connection points: 2
#     Edge 26, Type (0, 0), BuildingBlock: MIFKUJ_clean_linker_0, # of connection points: 2
#     Edge 27, Type (0, 0), BuildingBlock: MIFKUJ_clean_linker_0, # of connection points: 2
#     Edge 28, Type (0, 0), BuildingBlock: MIFKUJ_clean_linker_0, # of connection points: 2
#     Edge 29, Type (0, 0), BuildingBlock: MIFKUJ_clean_linker_0, # of connection points: 2
#     Edge 30, Type (0, 0), BuildingBlock: MIFKUJ_clean_linker_0, # of connection points: 2
#     Edge 31, Type (0, 0), BuildingBlock: MIFKUJ_clean_linker_0, # of connection points: 2
#     Edge 32, Type (0, 0), BuildingBlock: MIFKUJ_clean_linker_0, # of connection points: 2
#     Edge 33, Type (0, 0), BuildingBlock: MIFKUJ_clean_linker_0, # of connection points: 2
#     Edge 34, Type (0, 0), BuildingBlock: MIFKUJ_clean_linker_0, # of connection points: 2
#     Edge 35, Type (0, 0), BuildingBlock: MIFKUJ_clean_linker_0, # of connection points: 2
# Relax obj value: 0.347
# Max RMSD: 0.227
# Mean RMSD: 0.226
data_MOF--net-unf--node1-UXUYUI_clean_sbu_0--edge1-MIFKUJ_clean_linker_0
_symmetry_space_group_name_H-M    P1
_symmetry_Int_Tables_number       1
_symmetry_cell_setting            triclinic
loop_
_symmetry_equiv_pos_as_xyz
'x, y, z'
_cell_length_a     66.081419
_cell_length_b     66.044721
_cell_length_c     63.337735
_cell_angle_alpha  90.039062
_cell_angle_beta   89.913302
_cell_angle_gamma 120.02099
loop_
_atom_site_label
_atom_site_type_symbol
_atom_site_fract_x
_atom_site_fract_y
_atom_site_fract_z
_atom_type_partial_charge
Li0 Li 0.02573 0.3637 0.09956 0.0
Li1 Li 0.0465 0.35082 0.12385 0.0
Li2 Li 0.04435 0.34059 0.08687 0.0
Li3 Li 0.00995 0.32389 0.11041 0.0
C4 C 0.07176 0.38906 0.08436 0.0
N5 N 0.09635 0.42249 0.05394 0.0
C6 C 0.09384 0.40798 0.08896 0.0
C7 C 0.06221 0.38707 0.06425 0.0
C8 C 0.10599 0.42471 0.07337 0.0
C9 C 0.07491 0.40417 0.04911 0.0
C10 C 0.99724 0.34281 0.14058 0.0
C11 C 0.97176 0.31716 0.1678 0.0
N12 N 0.95661 0.32503 0.16409 0.0
C13 C 0.98157 0.35088 0.13724 0.0
C14 C 0.99245 0.32604 0.15617 0.0
C15 C 0.96107 0.34159 0.14921 0.0
C16 C 0.99674 0.37914 0.08331 0.0
N17 N 0.01864 0.38701 0.09088 0.0
C18 C 0.03047 0.42589 0.07959 0.0
C19 C 0.03516 0.41006 0.09003 0.0
C20 C 0.00848 0.41788 0.07022 0.0
C21 C 0.99123 0.39432 0.07287 0.0
H22 H 0.98375 0.36086 0.08486 0.0
H23 H 0.05234 0.41601 0.09653 0.0
C24 C 0.09055 0.3667 0.14046 0.0
N25 N 0.0682 0.35953 0.14636 0.0
C26 C 0.10732 0.37025 0.15556 0.0
C27 C 0.07805 0.36019 0.18271 0.0
C28 C 0.06174 0.35663 0.16701 0.0
C29 C 0.10111 0.36664 0.17703 0.0
H30 H 0.09506 0.36858 0.12387 0.0
H31 H 0.04381 0.35085 0.17123 0.0
C32 C 0.99648 0.31803 0.069 0.0
N33 N 0.96205 0.28062 0.04674 0.0
C34 C 0.99575 0.29649 0.0689 0.0
C35 C 0.9799 0.3206 0.05745 0.0
C36 C 0.97815 0.27777 0.05765 0.0
C37 C 0.9626 0.30148 0.04636 0.0
C38 C 0.04921 0.31237 0.124 0.0
C39 C 0.07054 0.31491 0.11736 0.0
C40 C 0.04034 0.30277 0.14386 0.0
C41 C 0.08293 0.30835 0.13091 0.0
C42 C 0.05326 0.29645 0.15697 0.0
N43 N 0.07414 0.29939 0.15029 0.0
C44 C 0.08553 0.35007 0.06686 0.0
C45 C 0.05221 0.32503 0.04651 0.0
C46 C 0.1003 0.34979 0.0513 0.0
N47 N 0.06196 0.33773 0.06431 0.0
C48 C 0.06635 0.32388 0.03067 0.0
C49 C 0.09079 0.33632 0.03297 0.0
H50 H 0.09288 0.36023 0.08106 0.0
H51 H 0.03352 0.31577 0.04448 0.0
C52 C 0.96096 0.2973 0.10957 0.0
N53 N 0.98044 0.29619 0.1143 0.0
C54 C 0.93975 0.27685 0.10613 0.0
C55 C 0.95875 0.25447 0.11368 0.0
C56 C 0.97958 0.27538 0.11717 0.0
C57 C 0.93876 0.25515 0.10727 0.0
H58 H 0.96234 0.31407 0.10662 0.0
H59 H 0.99545 0.27501 0.12034 0.0
O60 O 0.0598 0.37246 0.09946 0.0
O61 O 0.01733 0.35162 0.12889 0.0
O62 O 0.01296 0.33626 0.08077 0.0
O63 O 0.03715 0.31935 0.1112 0.0
H64 H 0.10151 0.40969 0.10442 0.0
H65 H 0.04519 0.37252 0.06034 0.0
H66 H 0.1231 0.43947 0.07672 0.0
H67 H 0.06773 0.40289 0.03351 0.0
H68 H 0.96775 0.30401 0.17979 0.0
H69 H 0.98518 0.36418 0.12555 0.0
H70 H 0.00449 0.31983 0.15918 0.0
H71 H 0.94873 0.34758 0.14669 0.0
H72 H 0.0443 0.44389 0.07794 0.0
H73 H 0.97385 0.38754 0.06644 0.0
H74 H 0.12468 0.37478 0.15032 0.0
H75 H 0.07254 0.35754 0.19907 0.0
H76 H 0.00849 0.29417 0.07767 0.0
H77 H 0.98037 0.33717 0.05691 0.0
H78 H 0.97724 0.26096 0.05766 0.0
H79 H 0.94962 0.30326 0.03746 0.0
H80 H 0.07756 0.32203 0.10199 0.0
H81 H 0.02374 0.30036 0.14916 0.0
H82 H 0.09956 0.31044 0.12603 0.0
H83 H 0.0467 0.28923 0.17245 0.0
H84 H 0.11899 0.36019 0.05364 0.0
H85 H 0.05814 0.3131 0.01694 0.0
H86 H 0.92486 0.27814 0.10081 0.0
H87 H 0.95863 0.23804 0.11466 0.0
Li88 Li 0.64478 0.69877 0.11557 0.0
Li89 Li 0.62924 0.66364 0.09064 0.0
Li90 Li 0.67006 0.68634 0.10024 0.0
Li91 Li 0.65387 0.70359 0.07796 0.0
C92 C 0.65026 0.65506 0.13113 0.0
N93 N 0.66573 0.6296 0.1537 0.0
C94 C 0.64017 0.631 0.12785 0.0
C95 C 0.66792 0.66609 0.14619 0.0
C96 C 0.6483 0.61845 0.13934 0.0
C97 C 0.67559 0.65295 0.15734 0.0
C98 C 0.61139 0.69645 0.07698 0.0
C99 C 0.59277 0.69172 0.04318 0.0
N100 N 0.59122 0.71116 0.047 0.0
C101 C 0.60952 0.71632 0.08062 0.0
C102 C 0.60291 0.68399 0.05814 0.0
C103 C 0.59929 0.7235 0.06525 0.0
C104 C 0.64275 0.73512 0.13482 0.0
N105 N 0.63851 0.71308 0.13848 0.0
C106 C 0.62767 0.71467 0.17418 0.0
C107 C 0.63112 0.70265 0.15764 0.0
C108 C 0.63177 0.73746 0.17077 0.0
C109 C 0.63938 0.74765 0.15078 0.0
H110 H 0.64912 0.74308 0.11953 0.0
H111 H 0.62813 0.68516 0.16009 0.0
C112 C 0.61161 0.61919 0.07422 0.0
N113 N 0.60485 0.63381 0.08262 0.0
C114 C 0.59519 0.5981 0.0651 0.0
C115 C 0.56499 0.6072 0.07394 0.0
C116 C 0.58205 0.62814 0.08301 0.0
C117 C 0.57158 0.59208 0.06447 0.0
H118 H 0.62993 0.62432 0.07405 0.0
H119 H 0.57726 0.64027 0.08963 0.0
C120 C 0.69418 0.73557 0.11168 0.0
N121 N 0.73318 0.7706 0.13169 0.0
C122 C 0.71181 0.75381 0.09995 0.0
C123 C 0.6963 0.73529 0.13362 0.0
C124 C 0.73142 0.77131 0.11035 0.0
C125 C 0.71616 0.75312 0.14343 0.0
C126 C 0.67324 0.68004 0.05706 0.0
C127 C 0.69399 0.70159 0.05672 0.0
C128 C 0.67004 0.6627 0.04261 0.0
C129 C 0.71126 0.7054 0.04196 0.0
C130 C 0.68772 0.66719 0.02806 0.0
N131 N 0.7078 0.68826 0.02805 0.0
C132 C 0.69211 0.66027 0.0978 0.0
C133 C 0.71881 0.69991 0.10592 0.0
C134 C 0.71039 0.65579 0.0948 0.0
N135 N 0.69657 0.68212 0.10287 0.0
C136 C 0.73769 0.69629 0.10275 0.0
C137 C 0.73361 0.67414 0.09644 0.0
H138 H 0.67434 0.64658 0.0949 0.0
H139 H 0.72213 0.71724 0.10952 0.0
C140 C 0.66685 0.74694 0.06039 0.0
N141 N 0.65915 0.72429 0.05519 0.0
C142 C 0.67088 0.76331 0.0447 0.0
C143 C 0.65858 0.73265 0.01857 0.0
C144 C 0.65497 0.71686 0.0348 0.0
C145 C 0.66676 0.75623 0.02348 0.0
H146 H 0.66962 0.7522 0.07679 0.0
H147 H 0.64863 0.69865 0.03119 0.0
O148 O 0.64267 0.66764 0.11982 0.0
O149 O 0.62203 0.68956 0.09151 0.0
O150 O 0.67481 0.7184 0.10169 0.0
O151 O 0.65628 0.67567 0.07172 0.0
H152 H 0.62623 0.62208 0.11654 0.0
H153 H 0.6758 0.68461 0.14911 0.0
H154 H 0.64074 0.59985 0.13685 0.0
H155 H 0.6894 0.66131 0.1689 0.0
H156 H 0.58629 0.68234 0.02847 0.0
H157 H 0.616 0.72618 0.09509 0.0
H158 H 0.60454 0.66878 0.05492 0.0
H159 H 0.59782 0.73891 0.06781 0.0
H160 H 0.62178 0.70623 0.18939 0.0
H161 H 0.64322 0.76535 0.14763 0.0
H162 H 0.60111 0.58717 0.05774 0.0
H163 H 0.54694 0.60312 0.07392 0.0
H164 H 0.71042 0.75443 0.08297 0.0
H165 H 0.68272 0.7216 0.14301 0.0
H166 H 0.74523 0.78546 0.10145 0.0
H167 H 0.71802 0.7531 0.1604 0.0
H168 H 0.69682 0.71517 0.06782 0.0
H169 H 0.65409 0.64591 0.04264 0.0
H170 H 0.72744 0.72197 0.04158 0.0
H171 H 0.6855 0.6539 0.01681 0.0
H172 H 0.70634 0.63834 0.09032 0.0
H173 H 0.75526 0.71106 0.10394 0.0
H174 H 0.67676 0.78124 0.04917 0.0
H175 H 0.65522 0.72655 0.00239 0.0
Li176 Li 0.2943 0.94744 0.11517 0.0
Li177 Li 0.33097 0.96831 0.09294 0.0
Li178 Li 0.30817 0.98721 0.10134 0.0
Li179 Li 0.29239 0.95468 0.07794 0.0
C180 C 0.33567 0.99602 0.13395 0.0
N181 N 0.35726 0.03635 0.1579 0.0
C182 C 0.3596 0.01162 0.13164 0.0
C183 C 0.32273 0.00085 0.14851 0.0
C184 C 0.37019 0.03193 0.14389 0.0
C185 C 0.33396 0.02137 0.16044 0.0
C186 C 0.30974 0.92268 0.07739 0.0
C187 C 0.32384 0.918 0.04365 0.0
N188 N 0.32135 0.89729 0.05027 0.0
C189 C 0.30726 0.90133 0.08387 0.0
C190 C 0.31805 0.93108 0.05712 0.0
C191 C 0.31324 0.88876 0.06992 0.0
C192 C 0.26561 0.90257 0.13064 0.0
N193 N 0.27884 0.92521 0.13684 0.0
C194 C 0.26692 0.91475 0.17269 0.0
C195 C 0.27998 0.93155 0.15741 0.0
C196 C 0.25256 0.89128 0.16666 0.0
C197 C 0.25225 0.88524 0.14534 0.0
H198 H 0.26507 0.89808 0.11414 0.0
H199 H 0.29066 0.94968 0.16189 0.0
C200 C 0.37633 0.9943 0.07788 0.0
N201 N 0.36127 0.97347 0.08697 0.0
C202 C 0.39755 0.99818 0.06967 0.0
C203 C 0.38802 0.95959 0.08151 0.0
C204 C 0.36692 0.95646 0.08951 0.0
C205 C 0.40337 0.98046 0.07093 0.0
H206 H 0.37137 0.00753 0.07618 0.0
H207 H 0.3547 0.94015 0.09702 0.0
C208 C 0.25481 0.95272 0.09285 0.0
N209 N 0.21234 0.93662 0.07284 0.0
C210 C 0.25069 0.96795 0.0807 0.0
C211 C 0.23726 0.92937 0.09499 0.0
C212 C 0.22912 0.95946 0.07068 0.0
C213 C 0.21593 0.92154 0.0847 0.0
C214 C 0.32416 0.99725 0.05577 0.0
C215 C 0.3139 0.01117 0.05308 0.0
C216 C 0.33844 0.99653 0.0398 0.0
C217 C 0.31796 0.02397 0.03447 0.0
C218 C 0.34202 0.00955 0.02139 0.0
N219 N 0.33181 0.0229 0.01913 0.0
C220 C 0.33242 0.03584 0.10042 0.0
C221 C 0.29326 0.01951 0.11227 0.0
C222 C 0.33478 0.05797 0.09922 0.0
N223 N 0.31166 0.01711 0.10615 0.0
C224 C 0.29486 0.0414 0.11134 0.0
C225 C 0.31558 0.06083 0.104 0.0
H226 H 0.34662 0.03326 0.09539 0.0
H227 H 0.27696 0.00424 0.11675 0.0
C228 C 0.26132 0.91631 0.05341 0.0
N229 N 0.27308 0.94008 0.05366 0.0
C230 C 0.2465 0.9041 0.03669 0.0
C231 C 0.25549 0.94099 0.02096 0.0
C232 C 0.27031 0.9525 0.03793 0.0
C233 C 0.24344 0.91648 0.02018 0.0
H234 H 0.26316 0.90676 0.06642 0.0
H235 H 0.27911 0.97127 0.03867 0.0
O236 O 0.3249 0.97632 0.12176 0.0
O237 O 0.30421 0.93532 0.09097 0.0
O238 O 0.27608 0.96052 0.10223 0.0
O239 O 0.32111 0.9852 0.07423 0.0
H240 H 0.36986 0.00813 0.12045 0.0
H241 H 0.30412 0.98914 0.15025 0.0
H242 H 0.38869 0.0442 0.14223 0.0
H243 H 0.32413 0.02543 0.17164 0.0
H244 H 0.33031 0.92432 0.02791 0.0
H245 H 0.30089 0.89462 0.09954 0.0
H246 H 0.31988 0.94744 0.05185 0.0
H247 H 0.31146 0.87223 0.07473 0.0
H248 H 0.26751 0.92019 0.18892 0.0
H249 H 0.24168 0.86733 0.14005 0.0
H250 H 0.40869 0.01443 0.06147 0.0
H251 H 0.39199 0.94562 0.08312 0.0
H252 H 0.26407 0.98606 0.07883 0.0
H253 H 0.24016 0.91734 0.10429 0.0
H254 H 0.22575 0.97101 0.0611 0.0
H255 H 0.20226 0.90346 0.08609 0.0
H256 H 0.30266 0.0119 0.06508 0.0
H257 H 0.34682 0.98616 0.04159 0.0
H258 H 0.31006 0.03475 0.0322 0.0
H259 H 0.35301 0.00912 0.00893 0.0
H260 H 0.35095 0.0723 0.09314 0.0
H261 H 0.27973 0.0429 0.11539 0.0
H262 H 0.23709 0.88516 0.03695 0.0
H263 H 0.25351 0.95117 0.00857 0.0
Li264 Li 0.66461 0.95523 0.41877 0.0
Li265 Li 0.68053 0.98938 0.39516 0.0
Li266 Li 0.64009 0.97074 0.40579 0.0
Li267 Li 0.65502 0.952 0.38182 0.0
C268 C 0.68504 0.99909 0.4385 0.0
N269 N 0.72049 0.02551 0.46672 0.0
C270 C 0.70653 -0.00017 0.43701 0.0
C271 C 0.68159 0.01173 0.45443 0.0
C272 C 0.72423 0.01333 0.45139 0.0
C273 C 0.69972 0.02497 0.46853 0.0
C274 C 0.69547 0.95356 0.38083 0.0
C275 C 0.71106 0.95296 0.3465 0.0
N276 N 0.71224 0.93375 0.35229 0.0
C277 C 0.69721 0.93405 0.38654 0.0
C278 C 0.70278 0.96329 0.36074 0.0
C279 C 0.70559 0.9242 0.37186 0.0
C280 C 0.66241 0.9163 0.4371 0.0
N281 N 0.668 0.93856 0.44181 0.0
C282 C 0.67422 0.93288 0.478 0.0
C283 C 0.67352 0.94694 0.46187 0.0
C284 C 0.66892 0.90991 0.47348 0.0
C285 C 0.66299 0.90171 0.45266 0.0
H286 H 0.65712 0.90975 0.42123 0.0
H287 H 0.67684 0.96427 0.4656 0.0
C288 C 0.70421 0.03777 0.39816 0.0
N289 N 0.70691 0.01972 0.39145 0.0
C290 C 0.72352 0.06011 0.40013 0.0
C291 C 0.74806 0.04513 0.38754 0.0
C292 C 0.72819 0.02299 0.3858 0.0
C293 C 0.74593 0.0639 0.39536 0.0
H294 H 0.6872 0.03447 0.40327 0.0
H295 H 0.72998 0.00823 0.38112 0.0
C296 C 0.617 0.92525 0.42117 0.0
N297 N 0.5841 0.89991 0.45177 0.0
C298 C 0.59938 0.90232 0.41708 0.0
C299 C 0.61794 0.93527 0.44087 0.0
C300 C 0.58289 0.8898 0.43275 0.0
C301 C 0.60113 0.92218 0.45612 0.0
C302 C 0.65953 0.00082 0.36607 0.0
C303 C 0.65096 0.0155 0.37207 0.0
C304 C 0.6752 0.00724 0.34918 0.0
C305 C 0.65863 0.03662 0.36139 0.0
C306 C 0.68247 0.02851 0.33891 0.0
N307 N 0.67413 0.04265 0.3452 0.0
C308 C 0.62136 0.99502 0.42574 0.0
C309 C 0.59247 0.95889 0.41129 0.0
C310 C 0.60429 0.99828 0.43546 0.0
N311 N 0.61523 0.97538 0.41434 0.0
C312 C 0.57475 0.96139 0.42081 0.0
C313 C 0.58064 0.98109 0.43345 0.0
H314 H 0.63962 0.00786 0.42776 0.0
H315 H 0.58813 0.94339 0.40217 0.0
C316 C 0.64133 0.90834 0.3653 0.0
N317 N 0.64744 0.93043 0.35937 0.0
C318 C 0.63756 0.89152 0.35015 0.0
C319 C 0.64587 0.92037 0.32296 0.0
C320 C 0.64946 0.93668 0.3387 0.0
C321 C 0.64016 0.89752 0.32865 0.0
H322 H 0.63996 0.90398 0.3819 0.0
H323 H 0.6545 0.95444 0.33449 0.0
O324 O 0.66758 0.98649 0.42427 0.0
O325 O 0.68663 0.96305 0.39476 0.0
O326 O 0.6333 0.93762 0.40596 0.0
O327 O 0.65245 0.9802 0.37654 0.0
H328 H 0.70961 0.99016 0.42491 0.0
H329 H 0.66508 0.01129 0.45595 0.0
H330 H 0.74095 0.01411 0.45035 0.0
H331 H 0.69727 0.03483 0.48092 0.0
H332 H 0.71652 0.96018 0.33083 0.0
H333 H 0.69222 0.92658 0.40213 0.0
H334 H 0.70183 0.97851 0.35612 0.0
H335 H 0.70685 0.90899 0.37604 0.0
H336 H 0.67834 0.93976 0.49391 0.0
H337 H 0.65891 0.88419 0.44835 0.0
H338 H 0.72106 0.07388 0.40669 0.0
H339 H 0.765 0.0473 0.38365 0.0
H340 H 0.59847 0.8943 0.40193 0.0
H341 H 0.63148 0.95296 0.4444 0.0
H342 H 0.56914 0.87205 0.42978 0.0
H343 H 0.60163 0.92973 0.4714 0.0
H344 H 0.63861 0.01075 0.38488 0.0
H345 H 0.68172 0.99599 0.34404 0.0
H346 H 0.65225 0.04821 0.36599 0.0
H347 H 0.69472 0.03375 0.32592 0.0
H348 H 0.60968 0.0136 0.44522 0.0
H349 H 0.55671 0.94785 0.41868 0.0
H350 H 0.63282 0.87405 0.35524 0.0
H351 H 0.64827 0.92578 0.30658 0.0
Li352 Li 0.04445 0.70255 0.41924 0.0
Li353 Li 0.01114 0.68487 0.39683 0.0
Li354 Li 0.02925 0.6623 0.40728 0.0
Li355 Li 0.04894 0.69708 0.38178 0.0
C356 C 0.00114 0.67894 0.43984 0.0
N357 N 0.97374 0.68678 0.46792 0.0
C358 C 0.00209 0.70056 0.44022 0.0
C359 C 0.98629 0.66133 0.45379 0.0
C360 C 0.98809 0.70418 0.45451 0.0
C361 C 0.97257 0.66563 0.46786 0.0
C362 C 0.03592 0.73376 0.38472 0.0
C363 C 0.03127 0.75054 0.35256 0.0
N364 N 0.03127 0.768 0.36395 0.0
C365 C 0.03607 0.75199 0.3961 0.0
C366 C 0.03366 0.73311 0.36276 0.0
C367 C 0.03361 0.76908 0.38531 0.0
C368 C 0.07386 0.74622 0.43714 0.0
N369 N 0.05951 0.72335 0.44203 0.0
C370 C 0.06847 0.73115 0.4787 0.0
C371 C 0.05651 0.71556 0.46229 0.0
C372 C 0.08331 0.75492 0.4741 0.0
C373 C 0.0859 0.76243 0.45303 0.0
H374 H 0.07616 0.75178 0.42083 0.0
H375 H 0.04508 0.69719 0.46566 0.0
C376 C 0.96303 0.65853 0.39901 0.0
N377 N 0.98033 0.68043 0.39396 0.0
C378 C 0.94021 0.65389 0.40199 0.0
C379 C 0.95314 0.69432 0.39399 0.0
C380 C 0.97572 0.69811 0.39086 0.0
C381 C 0.93518 0.67213 0.40032 0.0
H382 H 0.96723 0.64493 0.40195 0.0
H383 H 0.98964 0.71548 0.38727 0.0
C384 C 0.08033 0.69626 0.42047 0.0
N385 N 0.11603 0.71311 0.44979 0.0
C386 C 0.10153 0.71657 0.41625 0.0
C387 C 0.07731 0.68445 0.43956 0.0
C388 C 0.11936 0.72483 0.43129 0.0
C389 C 0.09557 0.69326 0.45418 0.0
C390 C -6e-05 0.65303 0.3664 0.0
C391 C 0.98629 0.6289 0.36952 0.0
C392 C 0.99315 0.6639 0.35132 0.0
C393 C 0.96578 0.61614 0.35786 0.0
C394 C 0.9725 0.65055 0.34 0.0
N395 N 0.95934 0.62714 0.34349 0.0
C396 C 0.0017 0.61798 0.42364 0.0
C397 C 0.0408 0.62717 0.41754 0.0
C398 C 0.99666 0.59723 0.43372 0.0
N399 N 0.02354 0.6326 0.41617 0.0
C400 C 0.03657 0.60659 0.42767 0.0
C401 C 0.01438 0.59161 0.43639 0.0
H402 H 0.98837 0.62285 0.42231 0.0
H403 H 0.05811 0.63932 0.41169 0.0
C404 C 0.08663 0.73339 0.36135 0.0
N405 N 0.06946 0.71084 0.35866 0.0
C406 C 0.1022 0.7454 0.34502 0.0
C407 C 0.08199 0.71079 0.32327 0.0
C408 C 0.06682 0.69937 0.34015 0.0
C409 C 0.09999 0.73413 0.32564 0.0
H410 H 0.08794 0.74216 0.37615 0.0
H411 H 0.05283 0.68147 0.33845 0.0
O412 O 0.01419 0.67475 0.42557 0.0
O413 O 0.03846 0.71699 0.39509 0.0
O414 O 0.06239 0.68829 0.40625 0.0
O415 O 0.01996 0.6658 0.37786 0.0
H416 H 0.01335 0.71433 0.42949 0.0
H417 H 0.98532 0.64448 0.4537 0.0
H418 H 0.9886 0.72081 0.4549 0.0
H419 H 0.96097 0.65214 0.47871 0.0
H420 H 0.02948 0.75022 0.33557 0.0
H421 H 0.03797 0.75291 0.41309 0.0
H422 H 0.03393 0.71944 0.35364 0.0
H423 H 0.03359 0.78322 0.39393 0.0
H424 H 0.06608 0.72476 0.49477 0.0
H425 H 0.0975 0.78056 0.44885 0.0
H426 H 0.92689 0.63641 0.4065 0.0
H427 H 0.95021 0.709 0.39276 0.0
H428 H 0.10417 0.72594 0.40159 0.0
H429 H 0.06088 0.66893 0.44324 0.0
H430 H 0.13583 0.74059 0.42828 0.0
H431 H 0.09341 0.68439 0.46907 0.0
H432 H 0.99147 0.62009 0.3808 0.0
H433 H 0.00352 0.68247 0.34853 0.0
H434 H 0.955 0.59748 0.36022 0.0
H435 H 0.96694 0.6588 0.32843 0.0
H436 H 0.97921 0.586 0.43982 0.0
H437 H 0.0508 0.60307 0.42954 0.0
H438 H 0.1155 0.76351 0.34738 0.0
H439 H 0.07975 0.70147 0.3086 0.0
Li440 Li 0.32192 0.3308 0.39149 0.0
Li441 Li 0.30394 0.34855 0.41389 0.0
Li442 Li 0.30945 0.35531 0.37648 0.0
Li443 Li 0.34441 0.37269 0.39935 0.0
C444 C 0.2695 0.31598 0.37998 0.0
N445 N 0.22927 0.2995 0.3562 0.0
C446 C 0.25096 0.3186 0.38724 0.0
C447 C 0.26744 0.30465 0.36079 0.0
C448 C 0.23079 0.31022 0.37495 0.0
C449 C 0.247 0.29654 0.34895 0.0
C450 C 0.33489 0.33753 0.43781 0.0
C451 C 0.35273 0.34267 0.4721 0.0
N452 N 0.34074 0.3191 0.47498 0.0
C453 C 0.32268 0.31337 0.44119 0.0
C454 C 0.35001 0.35231 0.45343 0.0
C455 C 0.3259 0.30439 0.46005 0.0
C456 C 0.34697 0.30756 0.39621 0.0
N457 N 0.32576 0.30422 0.3903 0.0
C458 C 0.30869 0.26282 0.39336 0.0
C459 C 0.30693 0.28243 0.38808 0.0
C460 C 0.32997 0.26587 0.40109 0.0
C461 C 0.34953 0.28851 0.40153 0.0
H462 H 0.36144 0.32512 0.3984 0.0
H463 H 0.29014 0.28036 0.38392 0.0
C464 C 0.27386 0.35827 0.43782 0.0
N465 N 0.28335 0.34417 0.43688 0.0
C466 C 0.25765 0.35502 0.45345 0.0
C467 C 0.26072 0.32239 0.46674 0.0
C468 C 0.27701 0.32638 0.45088 0.0
C469 C 0.25065 0.33669 0.46805 0.0
H470 H 0.27833 0.37169 0.42606 0.0
H471 H 0.28394 0.31475 0.44935 0.0
C472 C 0.35165 0.34845 0.36025 0.0
N473 N 0.37486 0.32971 0.33873 0.0
C474 C 0.37561 0.35757 0.36325 0.0
C475 C 0.33956 0.33002 0.34607 0.0
C476 C 0.38702 0.3478 0.35228 0.0
C477 C 0.35158 0.32071 0.33542 0.0
C478 C 0.32283 0.39744 0.41248 0.0
C479 C 0.32037 0.4162 0.40562 0.0
C480 C 0.33061 0.39747 0.433 0.0
C481 C 0.32585 0.43476 0.4194 0.0
C482 C 0.33593 0.41636 0.4463 0.0
N483 N 0.33347 0.43447 0.43928 0.0
C484 C 0.27861 0.36724 0.35926 0.0
C485 C 0.2974 0.35682 0.33301 0.0
C486 C 0.26424 0.36896 0.34417 0.0
N487 N 0.29437 0.36076 0.35354 0.0
C488 C 0.28357 0.35869 0.31727 0.0
C489 C 0.26643 0.36435 0.32293 0.0
H490 H 0.27662 0.37023 0.37574 0.0
H491 H 0.31002 0.35159 0.32894 0.0
C492 C 0.38891 0.39072 0.41568 0.0
N493 N 0.37461 0.39741 0.40652 0.0
C494 C 0.40958 0.40721 0.42535 0.0
C495 C 0.40123 0.43744 0.41476 0.0
C496 C 0.38071 0.42032 0.40517 0.0
C497 C 0.41559 0.43083 0.42557 0.0
H498 H 0.38358 0.37236 0.41646 0.0
H499 H 0.36916 0.42521 0.39756 0.0
O500 O 0.28967 0.3247 0.39149 0.0
O501 O 0.3326 0.34666 0.41912 0.0
O502 O 0.34011 0.35758 0.37106 0.0
O503 O 0.31776 0.37929 0.39903 0.0
H504 H 0.25222 0.32728 0.40206 0.0
H505 H 0.28155 0.30234 0.35499 0.0
H506 H 0.21639 0.31232 0.38028 0.0
H507 H 0.24526 0.28793 0.33397 0.0
H508 H 0.3644 0.35393 0.48428 0.0
H509 H 0.31053 0.30163 0.42956 0.0
H510 H 0.35961 0.37106 0.45122 0.0
H511 H 0.31654 0.28572 0.46283 0.0
H512 H 0.29313 0.2457 0.39302 0.0
H513 H 0.36629 0.29159 0.4072 0.0
H514 H 0.25043 0.36655 0.45389 0.0
H515 H 0.25543 0.30772 0.47735 0.0
H516 H 0.38529 0.37199 0.37398 0.0
H517 H 0.32105 0.32285 0.34347 0.0
H518 H 0.40554 0.35461 0.35454 0.0
H519 H 0.3424 0.30633 0.32453 0.0
H520 H 0.31435 0.41642 0.38977 0.0
H521 H 0.33245 0.38305 0.4386 0.0
H522 H 0.32407 0.44942 0.41429 0.0
H523 H 0.342 0.41661 0.4622 0.0
H524 H 0.25136 0.37358 0.34908 0.0
H525 H 0.28565 0.35494 0.30102 0.0
H526 H 0.41997 0.40128 0.43367 0.0
H527 H 0.40541 0.45552 0.41433 0.0
Li528 Li 0.95151 0.6533 0.92154 0.0
Li529 Li 0.96795 0.63123 0.90453 0.0
Li530 Li 0.98759 0.67308 0.90073 0.0
Li531 Li 0.94991 0.64725 0.88384 0.0
C532 C 0.98212 0.64533 0.94614 0.0
N533 N 0.98244 0.62427 0.98377 0.0
C534 C 0.96277 0.62397 0.95207 0.0
C535 C 0.00156 0.65598 0.95945 0.0
C536 C 0.9633 0.6136 0.97111 0.0
C537 C 0.00138 0.64507 0.97839 0.0
C538 C 0.91421 0.60732 0.89725 0.0
C539 C 0.89267 0.5787 0.87032 0.0
N540 N 0.87241 0.57636 0.87807 0.0
C541 C 0.89313 0.60438 0.90514 0.0
C542 C 0.91394 0.59414 0.87988 0.0
C543 C 0.8722 0.58873 0.89516 0.0
C544 C 0.91532 0.65753 0.93866 0.0
N545 N 0.93482 0.657 0.94444 0.0
C546 C 0.92789 0.66137 0.98079 0.0
C547 C 0.94167 0.65954 0.96499 0.0
C548 C 0.90709 0.66095 0.97533 0.0
C549 C 0.90109 0.65942 0.95388 0.0
H550 H 0.91076 0.65637 0.92213 0.0
H551 H 0.95773 0.66012 0.96927 0.0
C552 C 0.99611 0.61286 0.91612 0.0
N553 N 0.97403 0.60647 0.90993 0.0
C554 C 0.00078 0.59663 0.92564 0.0
C555 C 0.96013 0.5672 0.92124 0.0
C556 C 0.95623 0.58405 0.9118 0.0
C557 C 0.98248 0.57368 0.929 0.0
H558 H 0.00975 0.63097 0.91508 0.0
H559 H 0.9387 0.57961 0.90742 0.0
C560 C 0.96456 0.69784 0.90809 0.0
N561 N 0.97477 0.74013 0.92584 0.0
C562 C 0.95635 0.71149 0.89872 0.0
C563 C 0.97789 0.70564 0.92654 0.0
C564 C 0.96171 0.73284 0.90792 0.0
C565 C 0.98289 0.72709 0.93525 0.0
C566 C 0.99303 0.64011 0.86995 0.0
C567 C 0.01698 0.65054 0.87393 0.0
C568 C 0.98196 0.61974 0.85778 0.0
C569 C 0.02937 0.64015 0.86605 0.0
C570 C 0.99495 0.60987 0.85019 0.0
N571 N 0.01819 0.62017 0.85447 0.0
C572 C 0.03399 0.70216 0.91183 0.0
C573 C 0.01995 0.71972 0.88771 0.0
C574 C 0.05521 0.72294 0.91362 0.0
N575 N 0.01681 0.70105 0.89933 0.0
C576 C 0.04097 0.74096 0.88905 0.0
C577 C 0.05881 0.74284 0.90241 0.0
H578 H 0.03097 0.68697 0.92077 0.0
H579 H 0.00589 0.7183 0.87793 0.0
C580 C 0.91149 0.64572 0.86484 0.0
N581 N 0.93064 0.64388 0.86048 0.0
C582 C 0.89602 0.64327 0.84881 0.0
C583 C 0.92065 0.63777 0.8239 0.0
C584 C 0.93554 0.64003 0.84053 0.0
C585 C 0.90055 0.6393 0.82802 0.0
H586 H 0.90826 0.64907 0.88086 0.0
H587 H 0.95101 0.63882 0.83754 0.0
O588 O 0.98243 0.65546 0.92718 0.0
O589 O 0.93497 0.62298 0.9065 0.0
O590 O 0.95942 0.67692 0.89917 0.0
O591 O 0.98055 0.6499 0.87777 0.0
H592 H 0.9475 0.61541 0.94212 0.0
H593 H 0.01667 0.67252 0.95522 0.0
H594 H 0.9485 0.59705 0.97582 0.0
H595 H 0.01634 0.65313 0.98881 0.0
H596 H 0.89227 0.56857 0.85673 0.0
H597 H 0.89288 0.614 0.91883 0.0
H598 H 0.93002 0.59595 0.87378 0.0
H599 H 0.85578 0.58641 0.90102 0.0
H600 H 0.93326 0.66263 0.9971 0.0
H601 H 0.88559 0.65973 0.94887 0.0
H602 H 0.01828 0.60228 0.93127 0.0
H603 H 0.94549 0.54977 0.92379 0.0
H604 H 0.94595 0.70565 0.88446 0.0
H605 H 0.98437 0.69533 0.93408 0.0
H606 H 0.95549 0.7436 0.90082 0.0
H607 H 0.99323 0.73337 0.94949 0.0
H608 H 0.0259 0.66638 0.88315 0.0
H609 H 0.96358 0.61167 0.85414 0.0
H610 H 0.04788 0.64795 0.86917 0.0
H611 H 0.98657 0.59405 0.84084 0.0
H612 H 0.06824 0.72362 0.92439 0.0
H613 H 0.04308 0.75582 0.88003 0.0
H614 H 0.88092 0.64493 0.85257 0.0
H615 H 0.92468 0.63467 0.80805 0.0
Li616 Li 0.32509 0.30767 0.89718 0.0
Li617 Li 0.36659 0.3301 0.90127 0.0
Li618 Li 0.34766 0.29765 0.87485 0.0
Li619 Li 0.34463 0.28962 0.91349 0.0
C620 C 0.33973 0.33837 0.863 0.0
N621 N 0.32226 0.35982 0.83731 0.0
C622 C 0.34012 0.35872 0.86972 0.0
C623 C 0.33077 0.32911 0.84308 0.0
C624 C 0.33111 0.36925 0.85654 0.0
C625 C 0.32194 0.34016 0.83036 0.0
C626 C 0.3535 0.32356 0.94295 0.0
C627 C 0.38512 0.33101 0.96654 0.0
N628 N 0.37519 0.33777 0.98175 0.0
C629 C 0.34363 0.33063 0.9588 0.0
C630 C 0.37444 0.32378 0.94683 0.0
C631 C 0.35485 0.33773 0.97832 0.0
C632 C 0.28891 0.30359 0.92109 0.0
N633 N 0.2973 0.30951 0.90111 0.0
C634 C 0.2675 0.31866 0.8926 0.0
C635 C 0.28659 0.31625 0.88666 0.0
C636 C 0.25931 0.31384 0.91352 0.0
C637 C 0.26987 0.30556 0.92764 0.0
H638 H 0.29726 0.29757 0.93208 0.0
H639 H 0.29285 0.31998 0.87062 0.0
C640 C 0.41418 0.36515 0.90857 0.0
N641 N 0.39152 0.35997 0.90869 0.0
C642 C 0.4314 0.38582 0.91792 0.0
C643 C 0.40163 0.39558 0.92661 0.0
C644 C 0.38507 0.37478 0.91718 0.0
C645 C 0.42509 0.40111 0.92747 0.0
H646 H 0.4187 0.3528 0.90206 0.0
H647 H 0.36679 0.36977 0.91768 0.0
C648 C 0.29629 0.2643 0.88829 0.0
N649 N 0.24856 0.24235 0.88188 0.0
C650 C 0.28094 0.24822 0.90306 0.0
C651 C 0.28734 0.26896 0.8701 0.0
C652 C 0.25687 0.23737 0.89958 0.0
C653 C 0.26317 0.25775 0.86719 0.0
C654 C 0.38207 0.28978 0.89113 0.0
C655 C 0.36657 0.26601 0.88747 0.0
C656 C 0.40612 0.29851 0.88947 0.0
C657 C 0.37544 0.25138 0.88228 0.0
C658 C 0.4143 0.28329 0.88428 0.0
N659 N 0.39892 0.26025 0.88081 0.0
C660 C 0.37243 0.29693 0.83859 0.0
C661 C 0.33361 0.26527 0.84173 0.0
C662 C 0.37639 0.28638 0.82114 0.0
N663 N 0.35139 0.28609 0.8486 0.0
C664 C 0.33669 0.25429 0.82426 0.0
C665 C 0.35843 0.26463 0.81397 0.0
H666 H 0.3864 0.31326 0.84471 0.0
H667 H 0.31737 0.25661 0.85038 0.0
C668 C 0.32382 0.2615 0.94882 0.0
N669 N 0.3429 0.26965 0.93609 0.0
C670 C 0.32135 0.24744 0.96618 0.0
C671 C 0.35868 0.25113 0.95754 0.0
C672 C 0.36042 0.26514 0.94037 0.0
C673 C 0.33888 0.24197 0.97066 0.0
H674 H 0.31069 0.2663 0.94566 0.0
H675 H 0.37597 0.27263 0.93073 0.0
O676 O 0.34881 0.32801 0.87549 0.0
O677 O 0.34275 0.31679 0.92369 0.0
O678 O 0.31992 0.27547 0.89159 0.0
O679 O 0.37381 0.30465 0.89549 0.0
H680 H 0.34713 0.36621 0.88501 0.0
H681 H 0.33068 0.31358 0.83749 0.0
H682 H 0.33114 0.38491 0.8616 0.0
H683 H 0.31486 0.33314 0.81495 0.0
H684 H 0.40132 0.33127 0.96974 0.0
H685 H 0.32751 0.3307 0.95603 0.0
H686 H 0.38244 0.31851 0.93475 0.0
H687 H 0.34741 0.34325 0.99073 0.0
H688 H 0.25976 0.32492 0.88115 0.0
H689 H 0.26369 0.30093 0.94373 0.0
H690 H 0.44931 0.3895 0.91818 0.0
H691 H 0.39589 0.40656 0.93416 0.0
H692 H 0.2875 0.24403 0.91701 0.0
H693 H 0.29894 0.28134 0.8585 0.0
H694 H 0.24481 0.22496 0.91093 0.0
H695 H 0.25603 0.26138 0.85328 0.0
H696 H 0.3479 0.2589 0.88858 0.0
H697 H 0.41836 0.31686 0.89206 0.0
H698 H 0.36365 0.23298 0.87939 0.0
H699 H 0.43288 0.28982 0.88295 0.0
H700 H 0.39342 0.29484 0.81364 0.0
H701 H 0.32257 0.23728 0.81954 0.0
H702 H 0.30607 0.24123 0.97617 0.0
H703 H 0.37262 0.24736 0.96038 0.0
Li704 Li 0.69599 0.05192 0.88096 0.0
Li705 Li 0.70544 0.05038 0.91733 0.0
Li706 Li 0.68832 0.0155 0.89454 0.0
Li707 Li 0.66429 0.03154 0.90655 0.0
C708 C 0.73513 0.05184 0.87573 0.0
N709 N 0.76565 0.06848 0.84179 0.0
C710 C 0.75473 0.0743 0.87626 0.0
C711 C 0.73131 0.03778 0.85798 0.0
C712 C 0.76986 0.08244 0.85893 0.0
C713 C 0.74688 0.04648 0.841 0.0
C714 C 0.68437 0.07709 0.9216 0.0
C715 C 0.6725 0.0788 0.95729 0.0
N716 N 0.67569 0.10046 0.95337 0.0
C717 C 0.68755 0.09936 0.91794 0.0
C718 C 0.6768 0.06671 0.94144 0.0
C719 C 0.68307 0.11089 0.9342 0.0
C720 C 0.70508 0.0649 0.83752 0.0
N721 N 0.70699 0.07272 0.85767 0.0
C722 C 0.73205 0.11217 0.84669 0.0
C723 C 0.71966 0.09585 0.86243 0.0
C724 C 0.73156 0.10449 0.82593 0.0
C725 C 0.71745 0.0806 0.82129 0.0
H726 H 0.69504 0.04638 0.83425 0.0
H727 H 0.72122 0.10146 0.87869 0.0
C728 C 0.72225 0.05976 0.96019 0.0
N729 N 0.72617 0.06765 0.9399 0.0
C730 C 0.73791 0.07295 0.97614 0.0
C731 C 0.76084 0.10252 0.95023 0.0
C732 C 0.7446 0.0889 0.93487 0.0
C733 C 0.75769 0.09444 0.97112 0.0
H734 H 0.70691 0.04333 0.96411 0.0
H735 H 0.74649 0.09542 0.91896 0.0
C736 C 0.65296 0.00095 0.86711 0.0
N737 N 0.62572 0.95868 0.84687 0.0
C738 C 0.62991 0.98606 0.87358 0.0
C739 C 0.66195 0.99452 0.85002 0.0
C740 C 0.61647 0.96472 0.86323 0.0
C741 C 0.64798 0.97303 0.84009 0.0
C742 C 0.68615 0.00629 0.93726 0.0
C743 C 0.70888 0.0099 0.9362 0.0
C744 C 0.67016 0.9898 0.95143 0.0
C745 C 0.71515 0.99688 0.94923 0.0
C746 C 0.67712 0.97716 0.96422 0.0
N747 N 0.69927 0.9809 0.96285 0.0
C748 C 0.70732 0.9855 0.88903 0.0
C749 C 0.6668 0.96673 0.89664 0.0
C750 C 0.7074 0.96463 0.89219 0.0
N751 N 0.68726 0.98623 0.89156 0.0
C752 C 0.66608 0.94551 0.89997 0.0
C753 C 0.68674 0.94446 0.89842 0.0
H754 H 0.72363 0.00141 0.88612 0.0
H755 H 0.6514 0.96802 0.89972 0.0
C756 C 0.62667 0.04012 0.91382 0.0
N757 N 0.63441 0.0247 0.91644 0.0
C758 C 0.60619 0.03627 0.92383 0.0
C759 C 0.60148 0.00017 0.93803 0.0
C760 C 0.6221 0.00481 0.9279 0.0
C761 C 0.59355 0.01627 0.93643 0.0
H762 H 0.63683 0.05579 0.90457 0.0
H763 H 0.62859 0.99279 0.92949 0.0
O764 O 0.71953 0.04383 0.89221 0.0
O765 O 0.68869 0.06564 0.90575 0.0
O766 O 0.66643 0.02187 0.87716 0.0
O767 O 0.67933 0.01819 0.92403 0.0
H768 H 0.7582 0.08549 0.88976 0.0
H769 H 0.71635 0.02038 0.85721 0.0
H770 H 0.78494 0.09987 0.85909 0.0
H771 H 0.74397 0.03579 0.82714 0.0
H772 H 0.66659 0.07095 0.97269 0.0
H773 H 0.69336 0.10764 0.90267 0.0
H774 H 0.67415 0.04947 0.9446 0.0
H775 H 0.68543 0.12813 0.93158 0.0
H776 H 0.74301 0.13038 0.85094 0.0
H777 H 0.71663 0.07407 0.80544 0.0
H778 H 0.73478 0.06627 0.99214 0.0
H779 H 0.77554 0.11935 0.94589 0.0
H780 H 0.62244 0.99084 0.88646 0.0
H781 H 0.6795 0.00595 0.84443 0.0
H782 H 0.59867 0.95298 0.8682 0.0
H783 H 0.65481 0.96779 0.82696 0.0
H784 H 0.72156 0.02252 0.92538 0.0
H785 H 0.65252 0.98673 0.95256 0.0
H786 H 0.73264 -0.00056 0.94848 0.0
H787 H 0.66489 0.96433 0.97522 0.0
H788 H 0.72372 0.96459 0.89088 0.0
H789 H 0.6499 0.93059 0.90527 0.0
H790 H 0.60052 0.04898 0.92202 0.0
H791 H 0.59239 0.98464 0.94772 0.0
Li792 Li 0.34878 0.04754 0.58231 0.0
Li793 Li 0.35295 0.04567 0.61987 0.0
Li794 Li 0.3686 0.02694 0.59559 0.0
Li795 Li 0.32721 0.01114 0.60094 0.0
C796 C 0.39802 0.07342 0.58579 0.0
N797 N 0.43694 0.09792 0.5604 0.0
C798 C 0.41704 0.09432 0.59293 0.0
C799 C 0.39882 0.06503 0.56571 0.0
C800 C 0.43654 0.10645 0.57985 0.0
C801 C 0.41864 0.07764 0.55313 0.0
C802 C 0.32068 0.05776 0.60662 0.0
C803 C 0.29459 0.073 0.61158 0.0
N804 N 0.31322 0.09511 0.61157 0.0
C805 C 0.33958 0.08066 0.60661 0.0
C806 C 0.298 0.05389 0.60908 0.0
C807 C 0.33544 0.09929 0.60916 0.0
C808 C 0.32551 0.05865 0.55084 0.0
N809 N 0.34666 0.0666 0.56025 0.0
C810 C 0.36256 0.10223 0.54053 0.0
C811 C 0.36492 0.08819 0.55561 0.0
C812 C 0.34104 0.09428 0.53036 0.0
C813 C 0.32236 0.07212 0.53562 0.0
H814 H 0.31079 0.04221 0.55568 0.0
H815 H 0.3812 0.09506 0.56397 0.0
C816 C 0.37857 0.08192 0.64914 0.0
N817 N 0.35736 0.06298 0.64497 0.0
C818 C 0.38083 0.09761 0.66501 0.0
C819 C 0.33964 0.07323 0.67266 0.0
C820 C 0.33817 0.05807 0.65664 0.0
C821 C 0.36103 0.0937 0.67658 0.0
H822 H 0.39343 0.08546 0.63944 0.0
H823 H 0.32146 0.04305 0.65272 0.0
C824 C 0.33374 0.0088 0.55487 0.0
N825 N 0.31287 0.99254 0.51599 0.0
C826 C 0.31006 0.00139 0.55207 0.0
C827 C 0.34674 0.00771 0.53791 0.0
C828 C 0.29985 0.9933 0.53229 0.0
C829 C 0.33589 -0.00049 0.51838 0.0
C830 C 0.33894 0.99381 0.63236 0.0
C831 C 0.34327 0.9757 0.62741 0.0
C832 C 0.32166 0.99005 0.64712 0.0
C833 C 0.32998 0.95396 0.63715 0.0
C834 C 0.30873 0.96804 0.6565 0.0
N835 N 0.31312 0.9506 0.65135 0.0
C836 C 0.41456 0.03309 0.594 0.0
C837 C 0.38445 -0.00042 0.57692 0.0
C838 C 0.4315 0.02874 0.5854 0.0
N839 N 0.39166 0.01893 0.58907 0.0
C840 C 0.40072 0.99446 0.56815 0.0
C841 C 0.42464 0.00953 0.57186 0.0
H842 H 0.41977 0.04836 0.60375 0.0
H843 H 0.36609 0.9887 0.57326 0.0
C844 C 0.27859 0.98097 0.60799 0.0
N845 N 0.29874 0.9822 0.60133 0.0
C846 C 0.25726 0.96034 0.60527 0.0
C847 C 0.27809 0.94246 0.58992 0.0
C848 C 0.29894 0.96343 0.59282 0.0
C849 C 0.25682 0.94092 0.59567 0.0
H850 H 0.27903 0.99626 0.61465 0.0
H851 H 0.31525 0.96511 0.58741 0.0
O852 O 0.37897 0.06113 0.5986 0.0
O853 O 0.32417 0.03911 0.60424 0.0
O854 O 0.34406 0.01641 0.57421 0.0
O855 O 0.3514 0.01505 0.62265 0.0
H856 H 0.41678 0.10114 0.60839 0.0
H857 H 0.38431 0.049 0.55987 0.0
H858 H 0.45138 0.12265 0.58519 0.0
H859 H 0.41947 0.0713 0.53759 0.0
H860 H 0.27712 0.07024 0.61352 0.0
H861 H 0.35727 0.08409 0.6047 0.0
H862 H 0.28317 0.03629 0.60908 0.0
H863 H 0.34991 0.11708 0.60922 0.0
H864 H 0.37741 0.11928 0.53706 0.0
H865 H 0.30527 0.06561 0.52861 0.0
H866 H 0.3976 0.11326 0.66736 0.0
H867 H 0.32401 0.06938 0.68139 0.0
H868 H 0.29969 0.00215 0.56493 0.0
H869 H 0.36502 0.01308 0.53979 0.0
H870 H 0.28157 0.98764 0.52991 0.0
H871 H 0.34577 0.99864 0.50512 0.0
H872 H 0.35661 0.97835 0.61603 0.0
H873 H 0.31807 0.00388 0.65107 0.0
H874 H 0.33304 0.93973 0.63338 0.0
H875 H 0.29518 0.96482 0.66783 0.0
H876 H 0.44978 0.04064 0.58879 0.0
H877 H 0.39471 0.97961 0.55764 0.0
H878 H 0.24125 0.95979 0.61002 0.0
H879 H 0.27853 0.92808 0.58215 0.0
Li880 Li 0.98622 0.30837 0.60121 0.0
Li881 Li 0.96769 0.33179 0.59919 0.0
Li882 Li 0.95324 0.29731 0.62247 0.0
Li883 Li 0.949 0.29146 0.58387 0.0
C884 C 0.00234 0.33527 0.63672 0.0
N885 N 0.04157 0.3517 0.66193 0.0
C886 C 0.02344 0.3546 0.63036 0.0
C887 C 0.00115 0.32445 0.65602 0.0
C888 C 0.0431 0.36259 0.64329 0.0
C889 C 0.02118 0.33298 0.66851 0.0
C890 C 0.9766 0.32914 0.55708 0.0
C891 C 0.95433 0.33857 0.5329 0.0
N892 N 0.97344 0.34978 0.52023 0.0
C893 C 0.99603 0.34083 0.54385 0.0
C894 C 0.95558 0.32806 0.55161 0.0
C895 C 0.99407 0.35111 0.52527 0.0
C896 C 0.01882 0.30656 0.57626 0.0
N897 N 0.01535 0.30922 0.59697 0.0
C898 C 0.052 0.3124 0.60599 0.0
C899 C 0.03109 0.3114 0.61193 0.0
C900 C 0.05641 0.3107 0.58452 0.0
C901 C 0.03918 0.30717 0.56968 0.0
H902 H 0.0056 0.30375 0.56478 0.0
H903 H 0.02757 0.31236 0.62841 0.0
C904 C 0.95434 0.36545 0.58895 0.0
N905 N 0.97262 0.3619 0.59246 0.0
C906 C 0.95798 0.38581 0.57881 0.0
C907 C -0.00081 0.39857 0.57665 0.0
C908 C 0.99477 0.37808 0.58686 0.0
C909 C 0.98057 0.40232 0.57196 0.0
H910 H 0.93675 0.35182 0.59263 0.0
H911 H 0.00877 0.37432 0.58892 0.0
C912 C 0.97075 0.2646 0.60936 0.0
N913 N 0.99594 0.24256 0.61828 0.0
C914 C 0.97543 0.25286 0.59343 0.0
C915 C 0.97869 0.26493 0.62987 0.0
C916 C 0.98825 0.24188 0.59824 0.0
C917 C 0.99142 0.25372 0.63406 0.0
C918 C 0.91586 0.30008 0.61442 0.0
C919 C 0.89712 0.27712 0.61483 0.0
C920 C 0.9156 0.3169 0.62764 0.0
C921 C 0.87836 0.27139 0.62846 0.0
C922 C 0.89648 0.31048 0.641 0.0
N923 N 0.87843 0.28805 0.64114 0.0
C924 C 0.93633 0.29562 0.66464 0.0
C925 C 0.9246 0.25936 0.64775 0.0
C926 C 0.9222 0.28411 0.68208 0.0
N927 N 0.93705 0.2831 0.64791 0.0
C928 C 0.91037 0.24719 0.66479 0.0
C929 C 0.90887 0.25955 0.68219 0.0
H930 H 0.94626 0.31453 0.66421 0.0
H931 H 0.92516 0.24989 0.63404 0.0
C932 C 0.94215 0.26544 0.54711 0.0
N933 N 0.93134 0.27288 0.56074 0.0
C934 C 0.93015 0.25183 0.52966 0.0
C935 C 0.89642 0.25461 0.54015 0.0
C936 C 0.90903 0.26804 0.55749 0.0
C937 C 0.90694 0.24616 0.52608 0.0
H938 H 0.96017 0.27027 0.54973 0.0
H939 H 0.90109 0.27475 0.56825 0.0
O940 O 0.98277 0.32746 0.6245 0.0
O941 O 0.97856 0.31974 0.5757 0.0
O942 O 0.95889 0.27613 0.60486 0.0
O943 O 0.93478 0.30584 0.60175 0.0
H944 H 0.02475 0.36319 0.61551 0.0
H945 H 0.98495 0.30965 0.66134 0.0
H946 H 0.05957 0.37743 0.63848 0.0
H947 H 0.02051 0.32473 0.68344 0.0
H948 H 0.9382 0.33792 0.52853 0.0
H949 H 0.01253 0.34213 0.54798 0.0
H950 H 0.94048 0.31952 0.56181 0.0
H951 H 0.00899 0.36024 0.5149 0.0
H952 H 0.06468 0.31488 0.618 0.0
H953 H 0.04131 0.30481 0.55307 0.0
H954 H 0.9431 0.38785 0.57515 0.0
H955 H 0.01686 0.41089 0.57167 0.0
H956 H 0.9694 0.25237 0.57749 0.0
H957 H 0.97523 0.27391 0.64239 0.0
H958 H 0.99214 0.23287 0.58603 0.0
H959 H 0.99778 0.25397 0.64983 0.0
H960 H 0.89728 0.26374 0.60508 0.0
H961 H 0.93019 0.33463 0.62787 0.0
H962 H 0.86382 0.25365 0.62906 0.0
H963 H 0.89609 0.32329 0.65138 0.0
H964 H 0.9216 0.29429 0.69522 0.0
H965 H 0.90003 0.2283 0.66398 0.0
H966 H 0.93901 0.246 0.51897 0.0
H967 H 0.87852 0.25055 0.53798 0.0
Li968 Li 0.69863 0.64581 0.61748 0.0
Li969 Li 0.68469 0.67018 0.60084 0.0
Li970 Li 0.6632 0.62816 0.59895 0.0
Li971 Li 0.70017 0.64985 0.57945 0.0
C972 C 0.64895 0.63766 0.634 0.0
N973 N 0.60474 0.61621 0.65165 0.0
C974 C 0.63416 0.64677 0.63058 0.0
C975 C 0.64137 0.61786 0.64672 0.0
C976 C 0.61184 0.63562 0.63955 0.0
C977 C 0.61893 0.60721 0.65541 0.0
C978 C 0.73201 0.69517 0.59053 0.0
C979 C 0.7407 0.723 0.56245 0.0
N980 N 0.76257 0.73649 0.57041 0.0
C981 C 0.75458 0.70926 0.59839 0.0
C982 C 0.725 0.70203 0.57236 0.0
C983 C 0.76977 0.7301 0.58801 0.0
C984 C 0.73777 0.64694 0.63434 0.0
N985 N 0.71672 0.64428 0.63991 0.0
C986 C 0.72355 0.63981 0.67617 0.0
C987 C 0.70938 0.64082 0.66031 0.0
C988 C 0.74541 0.64238 0.67088 0.0
C989 C 0.75237 0.64587 0.64959 0.0
H990 H 0.74311 0.64973 0.61796 0.0
H991 H 0.69262 0.63899 0.66428 0.0
C992 C 0.66466 0.69751 0.59157 0.0
N993 N 0.68284 0.69787 0.60187 0.0
C994 C 0.66359 0.71794 0.58943 0.0
C995 C 0.6998 0.73872 0.60891 0.0
C996 C 0.69998 0.71774 0.61095 0.0
C997 C 0.68158 0.73898 0.59775 0.0
H998 H 0.65132 0.68143 0.58452 0.0
H999 H 0.71425 0.71749 0.61905 0.0
C1000 C 0.6951 0.60597 0.60458 0.0
N1001 N 0.70953 0.57732 0.62288 0.0
C1002 C 0.71279 0.60332 0.59518 0.0
C1003 C 0.68442 0.59362 0.62304 0.0
C1004 C 0.71992 0.58886 0.60472 0.0
C1005 C 0.69205 0.57936 0.63213 0.0
C1006 C 0.65919 0.63998 0.55732 0.0
C1007 C 0.65738 0.61872 0.55138 0.0
C1008 C 0.64815 0.64931 0.54518 0.0
C1009 C 0.64445 0.60712 0.53346 0.0
C1010 C 0.63542 0.63718 0.52735 0.0
N1011 N 0.63382 0.6165 0.52193 0.0
C1012 C 0.61593 0.60793 0.58927 0.0
C1013 C 0.62826 0.58029 0.59506 0.0
C1014 C 0.59495 0.59072 0.5806 0.0
N1015 N 0.63235 0.60259 0.59559 0.0
C1016 C 0.60737 0.56244 0.58668 0.0
C1017 C 0.59081 0.56777 0.57847 0.0
H1018 H 0.61997 0.62594 0.58926 0.0
H1019 H 0.64181 0.57661 0.59972 0.0
C1020 C 0.73998 0.65487 0.56041 0.0
N1021 N 0.7191 0.65298 0.55551 0.0
C1022 C 0.75536 0.65664 0.5445 0.0
C1023 C 0.72807 0.65574 0.51865 0.0
C1024 C 0.71319 0.65402 0.53513 0.0
C1025 C 0.74932 0.65668 0.52326 0.0
H1026 H 0.7446 0.65486 0.57678 0.0
H1027 H 0.697 0.65351 0.53152 0.0
O1028 O 0.67075 0.64814 0.62505 0.0
O1029 O 0.71703 0.67468 0.60055 0.0
O1030 O 0.68819 0.62044 0.59571 0.0
O1031 O 0.67072 0.65109 0.57544 0.0
H1032 H 0.63975 0.66216 0.62096 0.0
H1033 H 0.65268 0.61081 0.64993 0.0
H1034 H 0.60017 0.6424 0.63687 0.0
H1035 H 0.61281 0.59181 0.66519 0.0
H1036 H 0.73549 0.72855 0.54842 0.0
H1037 H 0.76029 0.70412 0.61239 0.0
H1038 H 0.70765 0.69133 0.56597 0.0
H1039 H 0.78729 0.7412 0.59394 0.0
H1040 H 0.71761 0.63743 0.6924 0.0
H1041 H 0.76884 0.64754 0.64468 0.0
H1042 H 0.64945 0.7175 0.58042 0.0
H1043 H 0.71399 0.75464 0.61551 0.0
H1044 H 0.72086 0.6122 0.58062 0.0
H1045 H 0.67051 0.59519 0.63035 0.0
H1046 H 0.73369 0.58677 0.59767 0.0
H1047 H 0.68408 0.56991 0.64654 0.0
H1048 H 0.66571 0.61114 0.56053 0.0
H1049 H 0.6493 0.66569 0.54953 0.0
H1050 H 0.64281 0.59061 0.52877 0.0
H1051 H 0.62674 0.64417 0.51786 0.0
H1052 H 0.58298 0.59581 0.57417 0.0
H1053 H 0.60479 0.54494 0.58561 0.0
H1054 H 0.77186 0.65802 0.54882 0.0
H1055 H 0.72278 0.65586 0.5025 0.0
H1056 H 0.08494 0.33296 0.98972 0.0
H1057 H 0.11084 0.33077 0.96323 0.0
H1058 H 0.15813 0.3358 0.01241 0.0
H1059 H 0.13197 0.33661 0.03903 0.0
H1060 H 0.17839 0.36821 0.97545 0.0
H1061 H 0.12665 0.28603 0.9951 0.0
H1062 H 0.0878 0.2507 0.99841 0.0
H1063 H 0.07622 0.25284 0.93195 0.0
H1064 H 0.1149 0.28841 0.92833 0.0
H1065 H 0.25759 0.33303 0.95101 0.0
H1066 H 0.22661 0.33905 0.96451 0.0
H1067 H 0.18815 0.3122 0.90648 0.0
H1068 H 0.21891 0.30502 0.89311 0.0
H1069 H 0.1598 0.29413 0.93941 0.0
H1070 H 0.21418 0.37073 0.91781 0.0
H1071 H 0.25251 0.40639 0.91327 0.0
H1072 H 0.25849 0.41663 0.98042 0.0
H1073 H 0.22036 0.38084 0.98541 0.0
C1074 C 0.10066 0.33326 0.99498 0.0
C1075 C 0.10635 0.33509 0.0166 0.0
C1076 C 0.11551 0.33221 0.97978 0.0
C1077 C 0.13638 0.3333 0.98595 0.0
C1078 C 0.14217 0.33521 0.00739 0.0
C1079 C 0.12722 0.33583 0.02258 0.0
C1080 C 0.15237 0.33222 0.9703 0.0
C1081 C 0.17441 0.35208 0.96749 0.0
C1082 C 0.14665 0.31142 0.9593 0.0
C1083 C 0.12349 0.29004 0.9615 0.0
C1084 C 0.11571 0.27911 0.98124 0.0
C1085 C 0.09375 0.25901 0.98316 0.0
C1086 C 0.07951 0.24958 0.96542 0.0
C1087 C 0.08724 0.26019 0.94569 0.0
C1088 C 0.10917 0.28032 0.9437 0.0
C1089 C 0.24249 0.3282 0.94112 0.0
C1090 C 0.24064 0.31834 0.92104 0.0
C1091 C 0.22492 0.332 0.94875 0.0
C1092 C 0.20523 0.32648 0.93636 0.0
C1093 C 0.20329 0.31676 0.91623 0.0
C1094 C 0.22092 0.3128 0.90857 0.0
C1095 C 0.18639 0.32992 0.94524 0.0
C1096 C 0.16374 0.31053 0.94679 0.0
C1097 C 0.19144 0.35132 0.95484 0.0
C1098 C 0.21439 0.37301 0.95198 0.0
C1099 C 0.22372 0.3805 0.93163 0.0
C1100 C 0.24542 0.40075 0.92897 0.0
C1101 C 0.25794 0.41376 0.94654 0.0
C1102 C 0.24876 0.40655 0.96681 0.0
C1103 C 0.22708 0.3863 0.96956 0.0
H1104 H 0.27474 0.42943 0.94446 0.0
H1105 H 0.06252 0.23401 0.96693 0.0
H1106 H 0.70425 0.80001 0.01885 0.0
H1107 H 0.7089 0.83003 0.99363 0.0
H1108 H 0.64268 0.78162 0.96527 0.0
H1109 H 0.638 0.75136 0.99045 0.0
H1110 H 0.67522 0.80936 0.93549 0.0
H1111 H 0.64475 0.81963 0.0007 0.0
H1112 H 0.64343 0.82386 0.03928 0.0
H1113 H 0.71053 0.88652 0.03744 0.0
H1114 H 0.71242 0.88245 0.99887 0.0
H1115 H 0.65439 0.8982 0.89177 0.0
H1116 H 0.65262 0.86426 0.90924 0.0
H1117 H 0.71829 0.90948 0.94005 0.0
H1118 H 0.71985 0.9434 0.92322 0.0
H1119 H 0.68474 0.88212 0.96772 0.0
H1120 H 0.71436 0.87179 0.90161 0.0
H1121 H 0.71463 0.86707 0.86301 0.0
H1122 H 0.64763 0.8044 0.86631 0.0
H1123 H 0.6468 0.80893 0.90492 0.0
C1124 C 0.69075 0.79573 0.00715 0.0
C1125 C 0.67063 0.77348 0.00677 0.0
C1126 C 0.69345 0.81285 0.99273 0.0
C1127 C 0.67594 0.80815 0.97783 0.0
C1128 C 0.65637 0.78559 0.97668 0.0
C1129 C 0.65372 0.76835 0.99105 0.0
C1130 C 0.67741 0.82729 0.96455 0.0
C1131 C 0.67704 0.82518 0.94248 0.0
C1132 C 0.67999 0.84799 0.97374 0.0
C1133 C 0.67882 0.85061 0.99692 0.0
C1134 C 0.6593 0.83422 0.00854 0.0
C1135 C 0.65844 0.83659 0.03041 0.0
C1136 C 0.67691 0.85541 0.04082 0.0
C1137 C 0.69625 0.87193 0.02936 0.0
C1138 C 0.69722 0.86961 0.0075 0.0
C1139 C 0.66858 0.90084 0.90206 0.0
C1140 C 0.68726 0.92349 0.9061 0.0
C1141 C 0.66763 0.88143 0.91191 0.0
C1142 C 0.68536 0.88437 0.9259 0.0
C1143 C 0.70446 0.90684 0.92927 0.0
C1144 C 0.70543 0.9262 0.91946 0.0
C1145 C 0.68306 0.86448 0.93859 0.0
C1146 C 0.68304 0.86637 0.96065 0.0
C1147 C 0.67994 0.8436 0.92934 0.0
C1148 C 0.68042 0.84084 0.90613 0.0
C1149 C 0.69958 0.85712 0.89409 0.0
C1150 C 0.69986 0.85445 0.87221 0.0
C1151 C 0.68113 0.83548 0.86221 0.0
C1152 C 0.66211 0.81911 0.87407 0.0
C1153 C 0.66174 0.8217 0.89596 0.0
H1154 H 0.68138 0.83345 0.84527 0.0
H1155 H 0.67621 0.85723 0.05774 0.0
H1156 H 0.23925 0.87893 0.99836 0.0
H1157 H 0.21014 0.8558 0.97159 0.0
H1158 H 0.18183 0.90206 0.97556 0.0
H1159 H 0.2107 0.92507 0.00267 0.0
H1160 H 0.14848 0.85651 0.97965 0.0
H1161 H 0.21041 0.90184 0.93155 0.0
H1162 H 0.25038 0.9199 0.9171 0.0
H1163 H 0.24238 0.85193 0.90734 0.0
H1164 H 0.20247 0.83344 0.92203 0.0
H1165 H 0.06255 0.78585 0.90667 0.0
H1166 H 0.09644 0.82184 0.91912 0.0
H1167 H 0.1371 0.78719 0.92045 0.0
H1168 H 0.10366 0.7515 0.907 0.0
H1169 H 0.16425 0.83239 0.91016 0.0
H1170 H 0.10677 0.78795 0.96388 0.0
H1171 H 0.06729 0.76851 0.97956 0.0
H1172 H 0.06786 0.83382 0.98013 0.0
H1173 H 0.10724 0.85358 0.96415 0.0
C1174 C 0.22691 0.88425 0.99342 0.0
C1175 C 0.22717 0.90373 0.00265 0.0
C1176 C 0.21046 0.87118 0.97797 0.0
C1177 C 0.19398 0.87736 0.97145 0.0
C1178 C 0.19451 0.89711 0.98029 0.0
C1179 C 0.21106 0.91028 0.99568 0.0
C1180 C 0.17496 0.86192 0.95686 0.0
C1181 C 0.15189 0.85169 0.96421 0.0
C1182 C 0.1795 0.85522 0.93697 0.0
C1183 C 0.20347 0.86626 0.92802 0.0
C1184 C 0.21723 0.89074 0.92647 0.0
C1185 C 0.23987 0.90105 0.91821 0.0
C1186 C 0.24892 0.88707 0.91133 0.0
C1187 C 0.23534 0.86274 0.91267 0.0
C1188 C 0.21269 0.85233 0.92093 0.0
C1189 C 0.07891 0.78609 0.90892 0.0
C1190 C 0.08029 0.76567 0.9062 0.0
C1191 C 0.09822 0.80664 0.91621 0.0
C1192 C 0.11911 0.80701 0.92119 0.0
C1193 C 0.12109 0.78725 0.91687 0.0
C1194 C 0.10188 0.76678 0.90941 0.0
C1195 C 0.13788 0.8268 0.93312 0.0
C1196 C 0.16086 0.83769 0.92536 0.0
C1197 C 0.13336 0.83397 0.9528 0.0
C1198 C 0.1098 0.82217 0.96259 0.0
C1199 C 0.0984 0.79812 0.96722 0.0
C1200 C 0.07605 0.78706 0.97617 0.0
C1201 C 0.06504 0.79991 0.98078 0.0
C1202 C 0.07639 0.82388 0.97651 0.0
C1203 C 0.09872 0.83502 0.9675 0.0
H1204 H 0.04773 0.79131 0.9877 0.0
H1205 H 0.26646 0.89509 0.90495 0.0
H1206 H 0.64631 0.74904 0.6011 0.0
H1207 H 0.64546 0.78257 0.58548 0.0
H1208 H 0.7175 0.81207 0.56662 0.0
H1209 H 0.71849 0.7787 0.58221 0.0
H1210 H 0.67441 0.83467 0.587 0.0
H1211 H 0.71561 0.82062 0.51311 0.0
H1212 H 0.72118 0.78984 0.49667 0.0
H1213 H 0.65737 0.73692 0.52495 0.0
H1214 H 0.65123 0.76738 0.54119 0.0
H1215 H 0.70022 0.92165 0.50604 0.0
H1216 H 0.70214 0.89545 0.53227 0.0
H1217 H 0.64113 0.8371 0.50483 0.0
H1218 H 0.63861 0.86314 0.479 0.0
H1219 H 0.67853 0.8295 0.50903 0.0
H1220 H 0.63596 0.85672 0.5507 0.0
H1221 H 0.62913 0.88647 0.5675 0.0
H1222 H 0.69216 0.91136 0.60355 0.0
H1223 H 0.69954 0.88195 0.58674 0.0
C1224 C 0.66212 0.76302 0.59412 0.0
C1225 C 0.6824 0.76123 0.59268 0.0
C1226 C 0.66167 0.7822 0.58538 0.0
C1227 C 0.68137 0.79962 0.57483 0.0
C1228 C 0.70215 0.79876 0.57476 0.0
C1229 C 0.7027 0.77973 0.58369 0.0
C1230 C 0.67907 0.81636 0.56101 0.0
C1231 C 0.67545 0.83371 0.56996 0.0
C1232 C 0.68004 0.81473 0.53882 0.0
C1233 C 0.68313 0.79627 0.52855 0.0
C1234 C 0.70273 0.80241 0.51571 0.0
C1235 C 0.70598 0.78502 0.50643 0.0
C1236 C 0.68968 0.76144 0.50982 0.0
C1237 C 0.67002 0.75519 0.52239 0.0
C1238 C 0.66665 0.7725 0.53164 0.0
C1239 C 0.68694 0.90332 0.50583 0.0
C1240 C 0.66939 0.89446 0.49027 0.0
C1241 C 0.68811 0.88839 0.5208 0.0
C1242 C 0.6718 0.86437 0.52041 0.0
C1243 C 0.65397 0.85558 0.50526 0.0
C1244 C 0.65267 0.87048 0.49043 0.0
C1245 C 0.67403 0.84808 0.53493 0.0
C1246 C 0.67767 0.8307 0.52607 0.0
C1247 C 0.67286 0.84964 0.55714 0.0
C1248 C 0.66843 0.86729 0.56729 0.0
C1249 C 0.64847 0.86868 0.56207 0.0
C1250 C 0.64448 0.88545 0.57162 0.0
C1251 C 0.66023 0.90084 0.58654 0.0
C1252 C 0.67998 0.89945 0.59197 0.0
C1253 C 0.68407 0.88272 0.58245 0.0
H1254 H 0.6571 0.91381 0.59392 0.0
H1255 H 0.69227 0.74801 0.50268 0.0
H1256 H 0.08729 0.79747 0.4808 0.0
H1257 H 0.11258 0.82731 0.50623 0.0
H1258 H 0.13511 0.78077 0.5305 0.0
H1259 H 0.10939 0.75063 0.50531 0.0
H1260 H 0.13108 0.80607 0.56201 0.0
H1261 H 0.16759 0.82151 0.49404 0.0
H1262 H 0.1704 0.82763 0.45551 0.0
H1263 H 0.16194 0.88757 0.46324 0.0
H1264 H 0.15871 0.88159 0.50183 0.0
H1265 H 0.24428 0.8947 0.59894 0.0
H1266 H 0.21016 0.86127 0.58299 0.0
H1267 H 0.18495 0.90683 0.56213 0.0
H1268 H 0.21911 0.9403 0.57765 0.0
H1269 H 0.18939 0.88166 0.53002 0.0
H1270 H 0.15571 0.86668 0.5995 0.0
H1271 H 0.15452 0.85995 0.63787 0.0
H1272 H 0.16025 0.7988 0.62723 0.0
H1273 H 0.16182 0.80535 0.58877 0.0
C1274 C 0.09748 0.79356 0.49171 0.0
C1275 C 0.09663 0.7719 0.49097 0.0
C1276 C 0.11189 0.81057 0.50622 0.0
C1277 C 0.12606 0.80641 0.51997 0.0
C1278 C 0.12435 0.78435 0.52 0.0
C1279 C 0.1097 0.76718 0.50562 0.0
C1280 C 0.14386 0.82565 0.53312 0.0
C1281 C 0.14397 0.82254 0.55504 0.0
C1282 C 0.16056 0.84719 0.524 0.0
C1283 C 0.16266 0.85095 0.50081 0.0
C1284 C 0.16615 0.83589 0.48751 0.0
C1285 C 0.16784 0.83935 0.46567 0.0
C1286 C 0.16629 0.85794 0.45693 0.0
C1287 C 0.1631 0.87316 0.47003 0.0
C1288 C 0.16135 0.86975 0.49189 0.0
C1289 C 0.23125 0.8975 0.59124 0.0
C1290 C 0.23442 0.92013 0.58946 0.0
C1291 C 0.21171 0.87838 0.58228 0.0
C1292 C 0.19504 0.8816 0.57141 0.0
C1293 C 0.1976 0.90399 0.5705 0.0
C1294 C 0.21705 0.92307 0.57952 0.0
C1295 C 0.17644 0.86227 0.55898 0.0
C1296 C 0.17635 0.8653 0.53708 0.0
C1297 C 0.16008 0.84063 0.56813 0.0
C1298 C 0.1591 0.83663 0.59125 0.0
C1299 C 0.15692 0.85191 0.60534 0.0
C1300 C 0.15614 0.84811 0.62711 0.0
C1301 C 0.15737 0.829 0.63499 0.0
C1302 C 0.15933 0.81361 0.6211 0.0
C1303 C 0.16014 0.81735 0.59932 0.0
H1304 H 0.15675 0.82608 0.65185 0.0
H1305 H 0.1676 0.86059 0.44001 0.0
H1306 H 0.08231 0.2934 0.60331 0.0
H1307 H 0.1176 0.29464 0.58917 0.0
H1308 H 0.11555 0.33302 0.53499 0.0
H1309 H 0.08128 0.33291 0.54926 0.0
H1310 H 0.11615 0.28747 0.52831 0.0
H1311 H 0.15355 0.36314 0.56524 0.0
H1312 H 0.16288 0.38727 0.59739 0.0
H1313 H 0.19316 0.3494 0.62544 0.0
H1314 H 0.18368 0.32481 0.59353 0.0
H1315 H 0.21082 0.33851 0.46158 0.0
H1316 H 0.17978 0.33027 0.48667 0.0
H1317 H 0.21591 0.31413 0.53458 0.0
H1318 H 0.24784 0.32339 0.50959 0.0
H1319 H 0.1982 0.34016 0.55058 0.0
H1320 H 0.16855 0.27004 0.51157 0.0
H1321 H 0.15937 0.24497 0.4801 0.0
H1322 H 0.11389 0.26907 0.45741 0.0
H1323 H 0.12306 0.29457 0.48857 0.0
C1324 C 0.08966 0.3025 0.5886 0.0
C1325 C 0.07873 0.31273 0.57724 0.0
C1326 C 0.10969 0.30306 0.58053 0.0
C1327 C 0.11889 0.31372 0.56099 0.0
C1328 C 0.10848 0.32451 0.55001 0.0
C1329 C 0.08879 0.32426 0.55814 0.0
C1330 C 0.13868 0.31291 0.55111 0.0
C1331 C 0.13412 0.29889 0.53316 0.0
C1332 C 0.16193 0.32714 0.55805 0.0
C1333 C 0.1676 0.34192 0.57716 0.0
C1334 C 0.16195 0.35978 0.57836 0.0
C1335 C 0.16732 0.37358 0.59651 0.0
C1336 C 0.17852 0.36981 0.61348 0.0
C1337 C 0.18443 0.35226 0.61231 0.0
C1338 C 0.17907 0.3384 0.5942 0.0
C1339 C 0.21242 0.33354 0.47751 0.0
C1340 C 0.23188 0.3317 0.48359 0.0
C1341 C 0.19447 0.32852 0.49178 0.0
C1342 C 0.19534 0.32118 0.51238 0.0
C1343 C 0.21484 0.3196 0.51869 0.0
C1344 C 0.23295 0.32473 0.50437 0.0
C1345 C 0.17575 0.31549 0.52709 0.0
C1346 C 0.18027 0.32819 0.54597 0.0
C1347 C 0.15235 0.29976 0.52117 0.0
C1348 C 0.14658 0.2843 0.50241 0.0
C1349 C 0.15669 0.27011 0.49982 0.0
C1350 C 0.15148 0.2558 0.48203 0.0
C1351 C 0.13607 0.25544 0.46676 0.0
C1352 C 0.12581 0.26936 0.46926 0.0
C1353 C 0.13098 0.28371 0.48701 0.0
H1354 H 0.13206 0.24436 0.45299 0.0
H1355 H 0.18268 0.38052 0.62752 0.0
H1356 H 0.73395 0.64795 0.06323 0.0
H1357 H 0.76656 0.6446 0.0497 0.0
H1358 H 0.81101 0.69053 0.09878 0.0
H1359 H 0.77803 0.69345 0.11303 0.0
H1360 H 0.82997 0.7036 0.05836 0.0
H1361 H 0.79702 0.63519 0.10105 0.0
H1362 H 0.76568 0.5981 0.11575 0.0
H1363 H 0.751 0.56727 0.05395 0.0
H1364 H 0.78202 0.60427 0.0388 0.0
H1365 H 0.91939 0.6873 0.01161 0.0
H1366 H 0.89327 0.6886 0.03835 0.0
H1367 H 0.83354 0.63826 0.0027 0.0
H1368 H 0.85942 0.63609 0.9765 0.0
H1369 H 0.82689 0.62833 0.04352 0.0
H1370 H 0.85365 0.69773 0.00032 0.0
H1371 H 0.8834 0.73488 0.98431 0.0
H1372 H 0.90824 0.76368 0.04596 0.0
H1373 H 0.87879 0.72656 0.06232 0.0
C1374 C 0.7504 0.65682 0.07163 0.0
C1375 C 0.75323 0.67081 0.08939 0.0
C1376 C 0.7691 0.65497 0.06376 0.0
C1377 C 0.79111 0.66712 0.07337 0.0
C1378 C 0.7941 0.68096 0.0912 0.0
C1379 C 0.77527 0.68267 0.09924 0.0
C1380 C 0.81114 0.66641 0.06367 0.0
C1381 C 0.82965 0.68723 0.05557 0.0
C1382 C 0.81041 0.64497 0.05972 0.0
C1383 C 0.7918 0.62258 0.06877 0.0
C1384 C 0.78701 0.62056 0.09056 0.0
C1385 C 0.76931 0.59953 0.09898 0.0
C1386 C 0.75634 0.58035 0.08579 0.0
C1387 C 0.76107 0.58214 0.06415 0.0
C1388 C 0.77874 0.60313 0.05565 0.0
C1389 C 0.9007 0.67629 0.00962 0.0
C1390 C 0.89149 0.66173 0.99181 0.0
C1391 C 0.8858 0.67719 0.02483 0.0
C1392 C 0.86145 0.66371 0.0224 0.0
C1393 C 0.85227 0.64884 0.00489 0.0
C1394 C 0.8671 0.64783 0.98978 0.0
C1395 C 0.8453 0.66543 0.03762 0.0
C1396 C 0.82752 0.64478 0.04674 0.0
C1397 C 0.84658 0.687 0.04235 0.0
C1398 C 0.86424 0.7093 0.03252 0.0
C1399 C 0.86559 0.71193 0.01045 0.0
C1400 C 0.88237 0.73299 0.00131 0.0
C1401 C 0.89776 0.7516 0.01411 0.0
C1402 C 0.89634 0.74923 0.03607 0.0
C1403 C 0.87961 0.72819 0.04528 0.0
H1404 H 0.91073 0.7679 0.00701 0.0
H1405 H 0.74264 0.56409 0.09234 0.0
H1406 H 0.29964 0.20224 0.98371 0.0
H1407 H 0.29618 0.17601 0.0124 0.0
H1408 H 0.36921 0.22049 0.02709 0.0
H1409 H 0.37277 0.24699 0.99852 0.0
H1410 H 0.35783 0.17544 0.02375 0.0
H1411 H 0.32746 0.21794 0.06008 0.0
H1412 H 0.30225 0.2352 0.06523 0.0
H1413 H 0.24124 0.1669 0.06257 0.0
H1414 H 0.26606 0.14923 0.0571 0.0
H1415 H 0.35178 0.10572 0.10952 0.0
H1416 H 0.35589 0.14107 0.09299 0.0
H1417 H 0.28546 0.10159 0.06924 0.0
H1418 H 0.28132 0.06618 0.0853 0.0
H1419 H 0.298 0.14756 0.08055 0.0
H1420 H 0.32729 0.10607 0.03942 0.0
H1421 H 0.35147 0.08774 0.03371 0.0
H1422 H 0.41368 0.15377 0.04441 0.0
H1423 H 0.3898 0.1724 0.05058 0.0
C1424 C 0.31487 0.20669 0.99328 0.0
C1425 C 0.3365 0.22668 0.98879 0.0
C1426 C 0.31287 0.19167 0.00968 0.0
C1427 C 0.33239 0.19641 0.02201 0.0
C1428 C 0.35393 0.21651 0.01777 0.0
C1429 C 0.35595 0.23155 0.00137 0.0
C1430 C 0.33063 0.17957 0.03837 0.0
C1431 C 0.3451 0.16976 0.03645 0.0
C1432 C 0.31363 0.17174 0.05463 0.0
C1433 C 0.29863 0.18228 0.05803 0.0
C1434 C 0.30866 0.20661 0.06044 0.0
C1435 C 0.29444 0.21646 0.06344 0.0
C1436 C 0.27016 0.20216 0.06418 0.0
C1437 C 0.26005 0.17796 0.06198 0.0
C1438 C 0.27419 0.16801 0.05896 0.0
C1439 C 0.33702 0.10466 0.1011 0.0
C1440 C 0.31635 0.08306 0.09847 0.0
C1441 C 0.33936 0.12488 0.09177 0.0
C1442 C 0.32109 0.12381 0.07966 0.0
C1443 C 0.29974 0.10276 0.07857 0.0
C1444 C 0.2974 0.08252 0.08783 0.0
C1445 C 0.32515 0.14354 0.06582 0.0
C1446 C 0.31103 0.15369 0.0681 0.0
C1447 C 0.34236 0.15163 0.04976 0.0
C1448 C 0.35676 0.14056 0.04571 0.0
C1449 C 0.34612 0.11664 0.04072 0.0
C1450 C 0.35976 0.10619 0.03739 0.0
C1451 C 0.3841 0.11957 0.03876 0.0
C1452 C 0.39483 0.14343 0.0434 0.0
C1453 C 0.38125 0.15393 0.04683 0.0
H1454 H 0.39464 0.11146 0.03617 0.0
H1455 H 0.25918 0.20982 0.06651 0.0
H1456 H 0.93943 0.22466 0.07894 0.0
H1457 H 0.90641 0.19432 0.05926 0.0
H1458 H 0.85906 0.2083 0.09485 0.0
H1459 H 0.89222 0.23895 0.11468 0.0
H1460 H 0.84341 0.15756 0.08505 0.0
H1461 H 0.8726 0.23363 0.05271 0.0
H1462 H 0.90315 0.2713 0.03823 0.0
H1463 H 0.92168 0.23512 0.99268 0.0
H1464 H 0.89146 0.19721 0.00712 0.0
H1465 H 0.7496 0.10612 0.01041 0.0
H1466 H 0.77872 0.13085 0.03671 0.0
H1467 H 0.83392 0.13847 0.99509 0.0
H1468 H 0.80492 0.11438 0.96863 0.0
H1469 H 0.84438 0.17878 0.00975 0.0
H1470 H 0.81677 0.10322 0.04077 0.0
H1471 H 0.78744 0.06466 0.05472 0.0
H1472 H 0.76744 0.09792 0.10204 0.0
H1473 H 0.79646 0.1367 0.08818 0.0
C1474 C 0.92194 0.22081 0.08306 0.0
C1475 C 0.91836 0.23411 0.09838 0.0
C1476 C 0.90313 0.20358 0.07172 0.0
C1477 C 0.88041 0.19924 0.07557 0.0
C1478 C 0.87652 0.21143 0.09174 0.0
C1479 C 0.89542 0.22893 0.10296 0.0
C1480 C 0.86128 0.18377 0.06119 0.0
C1481 C 0.84333 0.16223 0.06864 0.0
C1482 C 0.86164 0.18979 0.03974 0.0
C1483 C 0.87991 0.21259 0.03113 0.0
C1484 C 0.88334 0.2337 0.03975 0.0
C1485 C 0.90056 0.2551 0.03151 0.0
C1486 C 0.91434 0.2556 0.01454 0.0
C1487 C 0.91098 0.2347 0.00582 0.0
C1488 C 0.8938 0.21326 0.01401 0.0
C1489 C 0.76796 0.11294 0.00702 0.0
C1490 C 0.77507 0.10845 0.9875 0.0
C1491 C 0.78457 0.12699 0.02206 0.0
C1492 C 0.80854 0.13637 0.01797 0.0
C1493 C 0.81556 0.13152 0.99858 0.0
C1494 C 0.799 0.11779 0.98347 0.0
C1495 C 0.82645 0.15214 0.03337 0.0
C1496 C 0.84424 0.17393 0.02613 0.0
C1497 C 0.82605 0.14614 0.05492 0.0
C1498 C 0.80861 0.12285 0.06329 0.0
C1499 C 0.80599 0.10231 0.05404 0.0
C1500 C 0.78944 0.08042 0.06195 0.0
C1501 C 0.77554 0.07884 0.07921 0.0
C1502 C 0.7782 0.09917 0.08864 0.0
C1503 C 0.7947 0.12111 0.08078 0.0
H1504 H 0.76274 0.06188 0.08532 0.0
H1505 H 0.9276 0.27217 0.00812 0.0
H1506 H 0.35686 0.14097 0.53414 0.0
H1507 H 0.35182 0.16636 0.50941 0.0
H1508 H 0.31244 0.10776 0.46785 0.0
H1509 H 0.31796 0.08219 0.49242 0.0
H1510 H 0.34446 0.14727 0.44631 0.0
H1511 H 0.28376 0.12713 0.49663 0.0
H1512 H 0.26622 0.12129 0.53208 0.0
H1513 H 0.30983 0.19444 0.54546 0.0
H1514 H 0.32791 0.20068 0.51021 0.0
H1515 H 0.31065 0.22022 0.38773 0.0
H1516 H 0.30962 0.18749 0.4071 0.0
H1517 H 0.35002 0.23459 0.45728 0.0
H1518 H 0.35069 0.26701 0.43842 0.0
H1519 H 0.31139 0.19571 0.47194 0.0
H1520 H 0.37492 0.21454 0.42308 0.0
H1521 H 0.39276 0.22024 0.38777 0.0
H1522 H 0.34317 0.14917 0.37155 0.0
H1523 H 0.32483 0.14314 0.40669 0.0
C1524 C 0.34734 0.13349 0.51964 0.0
C1525 C 0.33786 0.10958 0.5152 0.0
C1526 C 0.34427 0.14798 0.50562 0.0
C1527 C 0.33152 0.13887 0.48692 0.0
C1528 C 0.32225 0.11508 0.48225 0.0
C1529 C 0.32528 0.1005 0.49635 0.0
C1530 C 0.32806 0.15446 0.47242 0.0
C1531 C 0.3368 0.15754 0.45174 0.0
C1532 C 0.31824 0.16796 0.47961 0.0
C1533 C 0.3073 0.16434 0.5008 0.0
C1534 C 0.28973 0.14195 0.50718 0.0
C1535 C 0.27967 0.13857 0.52724 0.0
C1536 C 0.28693 0.15747 0.54102 0.0
C1537 C 0.30423 0.17981 0.53477 0.0
C1538 C 0.31437 0.18329 0.51473 0.0
C1539 C 0.31942 0.22355 0.40283 0.0
C1540 C 0.33094 0.24623 0.41144 0.0
C1541 C 0.3189 0.2049 0.41382 0.0
C1542 C 0.3298 0.20866 0.4336 0.0
C1543 C 0.34152 0.23131 0.44204 0.0
C1544 C 0.34212 0.24988 0.4311 0.0
C1545 C 0.3285 0.1891 0.44608 0.0
C1546 C 0.31873 0.1852 0.46638 0.0
C1547 C 0.33731 0.17485 0.43851 0.0
C1548 C 0.34832 0.17848 0.4174 0.0
C1549 C 0.36768 0.20019 0.41191 0.0
C1550 C 0.37791 0.20347 0.39194 0.0
C1551 C 0.36906 0.18511 0.3774 0.0
C1552 C 0.34998 0.1634 0.38281 0.0
C1553 C 0.33967 0.16004 0.40275 0.0
H1554 H 0.37701 0.18767 0.36195 0.0
H1555 H 0.27913 0.15482 0.55655 0.0
H1556 H 0.87858 0.2523 0.49858 0.0
H1557 H 0.85474 0.226 0.47021 0.0
H1558 H 0.88113 0.17963 0.48478 0.0
H1559 H 0.90518 0.20598 0.51294 0.0
H1560 H 0.87767 0.18273 0.44303 0.0
H1561 H 0.82824 0.16967 0.5037 0.0
H1562 H 0.81022 0.18119 0.53188 0.0
H1563 H 0.77917 0.20449 0.48537 0.0
H1564 H 0.79729 0.19338 0.4569 0.0
H1565 H 0.78591 0.07046 0.41417 0.0
H1566 H 0.81711 0.10647 0.42937 0.0
H1567 H 0.78422 0.1443 0.406 0.0
H1568 H 0.75296 0.10825 0.39041 0.0
H1569 H 0.79191 0.14985 0.4479 0.0
H1570 H 0.83715 0.15641 0.38696 0.0
H1571 H 0.85453 0.14309 0.35971 0.0
H1572 H 0.89279 0.13007 0.40735 0.0
H1573 H 0.87538 0.14299 0.43494 0.0
C1574 C 0.87931 0.23651 0.49567 0.0
C1575 C 0.89358 0.23107 0.50806 0.0
C1576 C 0.86575 0.22155 0.47944 0.0
C1577 C 0.86593 0.2007 0.47556 0.0
C1578 C 0.88076 0.19565 0.48746 0.0
C1579 C 0.89448 0.2107 0.50355 0.0
C1580 C 0.84975 0.18344 0.45998 0.0
C1581 C 0.85891 0.17545 0.44412 0.0
C1582 C 0.82531 0.17436 0.46111 0.0
C1583 C 0.81434 0.18096 0.47819 0.0
C1584 C 0.81772 0.17742 0.49949 0.0
C1585 C 0.80747 0.18385 0.51551 0.0
C1586 C 0.79362 0.19364 0.51042 0.0
C1587 C 0.78994 0.19696 0.48929 0.0
C1588 C 0.80019 0.19059 0.47321 0.0
C1589 C 0.78568 0.08655 0.41159 0.0
C1590 C 0.76687 0.08645 0.40113 0.0
C1591 C 0.80355 0.10716 0.42035 0.0
C1592 C 0.80303 0.12808 0.41877 0.0
C1593 C 0.78493 0.12832 0.40741 0.0
C1594 C 0.76706 0.10771 0.39858 0.0
C1595 C 0.81977 0.14884 0.43109 0.0
C1596 C 0.8107 0.15745 0.44646 0.0
C1597 C 0.84422 0.15826 0.42961 0.0
C1598 C 0.85482 0.15055 0.41305 0.0
C1599 C 0.84913 0.15054 0.39166 0.0
C1600 C 0.85902 0.14309 0.37614 0.0
C1601 C 0.87473 0.13571 0.3818 0.0
C1602 C 0.88062 0.1358 0.40299 0.0
C1603 C 0.87077 0.14322 0.41857 0.0
H1604 H 0.88236 0.12994 0.36976 0.0
H1605 H 0.78569 0.1986 0.52285 0.0
H1606 H 0.90895 0.64609 0.43371 0.0
H1607 H 0.87279 0.64231 0.44715 0.0
H1608 H 0.87349 0.68751 0.39772 0.0
H1609 H 0.90967 0.69092 0.38359 0.0
H1610 H 0.86691 0.70054 0.43774 0.0
H1611 H 0.83269 0.63169 0.39578 0.0
H1612 H 0.82779 0.59482 0.38137 0.0
H1613 H 0.81248 0.56454 0.4434 0.0
H1614 H 0.81763 0.60134 0.45826 0.0
H1615 H 0.76077 0.68167 0.48621 0.0
H1616 H 0.78766 0.68328 0.4587 0.0
H1617 H 0.80056 0.63532 0.4945 0.0
H1618 H 0.77319 0.63296 0.52153 0.0
H1619 H 0.79603 0.6245 0.45354 0.0
H1620 H 0.83808 0.6949 0.49588 0.0
H1621 H 0.8446 0.73193 0.51146 0.0
H1622 H 0.8463 0.75915 0.44953 0.0
H1623 H 0.83948 0.72213 0.4336 0.0
C1624 C 0.90117 0.65472 0.42523 0.0
C1625 C 0.91216 0.66862 0.40738 0.0
C1626 C 0.88049 0.65262 0.43305 0.0
C1627 C 0.87032 0.6644 0.42329 0.0
C1628 C 0.88105 0.6782 0.40541 0.0
C1629 C 0.90175 0.68019 0.39743 0.0
C1630 C 0.84933 0.66328 0.43287 0.0
C1631 C 0.85113 0.68399 0.44072 0.0
C1632 C 0.82895 0.64163 0.43702 0.0
C1633 C 0.82564 0.61935 0.42815 0.0
C1634 C 0.82842 0.61723 0.40638 0.0
C1635 C 0.82558 0.59633 0.39812 0.0
C1636 C 0.81985 0.57736 0.41146 0.0
C1637 C 0.81691 0.57925 0.43308 0.0
C1638 C 0.81974 0.60011 0.44143 0.0
C1639 C 0.76911 0.67124 0.48805 0.0
C1640 C 0.76502 0.65736 0.50615 0.0
C1641 C 0.78458 0.6723 0.4724 0.0
C1642 C 0.79629 0.6596 0.47465 0.0
C1643 C 0.79174 0.64529 0.49243 0.0
C1644 C 0.77629 0.64417 0.508 0.0
C1645 C 0.81397 0.66165 0.45906 0.0
C1646 C 0.81154 0.64111 0.45008 0.0
C1647 C 0.83384 0.68343 0.45401 0.0
C1648 C 0.83796 0.70566 0.46357 0.0
C1649 C 0.83965 0.70871 0.4856 0.0
C1650 C 0.84343 0.72971 0.49449 0.0
C1651 C 0.84578 0.74785 0.4815 0.0
C1652 C 0.84442 0.74506 0.45958 0.0
C1653 C 0.8406 0.72408 0.45061 0.0
H1654 H 0.84872 0.7641 0.48841 0.0
H1655 H 0.81767 0.5612 0.40504 0.0
H1656 H 0.21906 0.34203 0.32518 0.0
H1657 H 0.19192 0.34318 0.29958 0.0
H1658 H 0.24989 0.38851 0.25945 0.0
H1659 H 0.27721 0.38723 0.28503 0.0
H1660 H 0.21597 0.40348 0.26752 0.0
H1661 H 0.2196 0.33603 0.24421 0.0
H1662 H 0.21772 0.29805 0.24877 0.0
H1663 H 0.14648 0.26712 0.2696 0.0
H1664 H 0.14805 0.30503 0.26547 0.0
H1665 H 0.1483 0.39779 0.17844 0.0
H1666 H 0.17689 0.39791 0.20278 0.0
H1667 H 0.12158 0.34022 0.23698 0.0
H1668 H 0.09303 0.33897 0.21187 0.0
H1669 H 0.15552 0.33204 0.23136 0.0
H1670 H 0.15092 0.398 0.25629 0.0
H1671 H 0.15177 0.43568 0.25378 0.0
H1672 H 0.22301 0.46913 0.23249 0.0
H1673 H 0.22248 0.43156 0.23461 0.0
C1674 C 0.22599 0.35224 0.31089 0.0
C1675 C 0.25018 0.36461 0.30704 0.0
C1676 C 0.2105 0.3528 0.29628 0.0
C1677 C 0.21895 0.36589 0.27766 0.0
C1678 C 0.2431 0.37832 0.27376 0.0
C1679 C 0.25862 0.37748 0.28826 0.0
C1680 C 0.20241 0.3667 0.26244 0.0
C1681 C 0.20296 0.38798 0.25931 0.0
C1682 C 0.18505 0.34628 0.25234 0.0
C1683 C 0.18402 0.32343 0.25472 0.0
C1684 C 0.2036 0.32118 0.24994 0.0
C1685 C 0.20257 0.29966 0.25241 0.0
C1686 C 0.18201 0.2802 0.25952 0.0
C1687 C 0.16241 0.28222 0.26412 0.0
C1688 C 0.16334 0.30371 0.2617 0.0
C1689 C 0.14218 0.38503 0.19108 0.0
C1690 C 0.1183 0.36833 0.19312 0.0
C1691 C 0.15856 0.38533 0.20517 0.0
C1692 C 0.1514 0.36924 0.22189 0.0
C1693 C 0.12754 0.35284 0.22423 0.0
C1694 C 0.11117 0.35235 0.20999 0.0
C1695 C 0.16885 0.36887 0.23644 0.0
C1696 C 0.16851 0.34763 0.23947 0.0
C1697 C 0.1862 0.38929 0.24669 0.0
C1698 C 0.18658 0.41191 0.2454 0.0
C1699 C 0.1667 0.41335 0.25091 0.0
C1700 C 0.16714 0.43469 0.24959 0.0
C1701 C 0.18741 0.45477 0.24293 0.0
C1702 C 0.20731 0.45355 0.23762 0.0
C1703 C 0.20696 0.43225 0.2389 0.0
H1704 H 0.18772 0.47128 0.24192 0.0
H1705 H 0.18126 0.26355 0.26142 0.0
H1706 H 0.61072 0.76393 0.16865 0.0
H1707 H 0.60939 0.78939 0.19598 0.0
H1708 H 0.64525 0.7674 0.23901 0.0
H1709 H 0.64647 0.74172 0.21172 0.0
H1710 H 0.61123 0.77129 0.25895 0.0
H1711 H 0.67497 0.81858 0.21224 0.0
H1712 H 0.69363 0.83437 0.17778 0.0
H1713 H 0.64893 0.86338 0.16818 0.0
H1714 H 0.62975 0.84745 0.20247 0.0
H1715 H 0.65613 0.86658 0.33039 0.0
H1716 H 0.65165 0.83772 0.30396 0.0
H1717 H 0.61446 0.86056 0.26352 0.0
H1718 H 0.61865 0.8894 0.29007 0.0
H1719 H 0.64755 0.85578 0.24212 0.0
H1720 H 0.58506 0.80966 0.29018 0.0
H1721 H 0.56725 0.7941 0.32496 0.0
H1722 H 0.61065 0.7633 0.3325 0.0
H1723 H 0.62898 0.77897 0.29788 0.0
C1724 C 0.61823 0.76446 0.18397 0.0
C1725 C 0.62891 0.75103 0.188 0.0
C1726 C 0.61746 0.779 0.19956 0.0
C1727 C 0.62761 0.78061 0.21939 0.0
C1728 C 0.63737 0.76646 0.22378 0.0
C1729 C 0.63801 0.75177 0.20821 0.0
C1730 C 0.6289 0.79777 0.23522 0.0
C1731 C 0.61938 0.7898 0.25536 0.0
C1732 C 0.63914 0.82186 0.23037 0.0
C1733 C 0.65077 0.83161 0.20982 0.0
C1734 C 0.669 0.82818 0.20271 0.0
C1735 C 0.67969 0.83717 0.18322 0.0
C1736 C 0.67243 0.84982 0.17077 0.0
C1737 C 0.65451 0.85355 0.17782 0.0
C1738 C 0.64373 0.84455 0.19729 0.0
C1739 C 0.64672 0.86528 0.316 0.0
C1740 C 0.63756 0.88016 0.31241 0.0
C1741 C 0.64422 0.8488 0.30089 0.0
C1742 C 0.63244 0.84678 0.28191 0.0
C1743 C 0.62356 0.86181 0.27811 0.0
C1744 C 0.62604 0.87832 0.29324 0.0
C1745 C 0.6299 0.82932 0.26587 0.0
C1746 C 0.63925 0.83726 0.24568 0.0
C1747 C 0.61962 0.80524 0.27073 0.0
C1748 C 0.60853 0.79567 0.29151 0.0
C1749 C 0.59093 0.79972 0.29932 0.0
C1750 C 0.58072 0.79086 0.319 0.0
C1751 C 0.58785 0.77777 0.33095 0.0
C1752 C 0.60516 0.77346 0.32323 0.0
C1753 C 0.61545 0.78231 0.30357 0.0
H1754 H 0.57993 0.77092 0.34618 0.0
H1755 H 0.68072 0.85678 0.15569 0.0
H1756 H 0.20714 0.85677 0.1616 0.0
H1757 H 0.18161 0.82782 0.18752 0.0
H1758 H 0.23749 0.85655 0.23316 0.0
H1759 H 0.26339 0.88529 0.20709 0.0
H1760 H 0.21366 0.80847 0.23318 0.0
H1761 H 0.19533 0.87019 0.23596 0.0
H1762 H 0.18421 0.89785 0.22137 0.0
H1763 H 0.11952 0.84052 0.19899 0.0
H1764 H 0.1304 0.81249 0.2132 0.0
H1765 H 0.14727 0.76338 0.32727 0.0
H1766 H 0.17313 0.78743 0.29883 0.0
H1767 H 0.115 0.75817 0.25551 0.0
H1768 H 0.08888 0.73442 0.28408 0.0
H1769 H 0.1395 0.80526 0.25327 0.0
H1770 H 0.15714 0.74336 0.25205 0.0
H1771 H 0.16835 0.71587 0.26691 0.0
H1772 H 0.23428 0.77344 0.28665 0.0
H1773 H 0.22333 0.8013 0.27218 0.0
C1774 C 0.21412 0.85676 0.17706 0.0
C1775 C 0.2373 0.87335 0.1823 0.0
C1776 C 0.19944 0.84032 0.1919 0.0
C1777 C 0.20759 0.8402 0.21232 0.0
C1778 C 0.23085 0.8564 0.2175 0.0
C1779 C 0.24555 0.87291 0.20266 0.0
C1780 C 0.19166 0.82349 0.22838 0.0
C1781 C 0.19757 0.80791 0.23777 0.0
C1782 C 0.17041 0.82244 0.23396 0.0
C1783 C 0.1638 0.83925 0.22545 0.0
C1784 C 0.17882 0.86348 0.22777 0.0
C1785 C 0.17254 0.87923 0.2196 0.0
C1786 C 0.1512 0.87095 0.2092 0.0
C1787 C 0.13606 0.8469 0.20701 0.0
C1788 C 0.14227 0.83108 0.21514 0.0
C1789 C 0.14001 0.76201 0.31167 0.0
C1790 C 0.11602 0.74707 0.30793 0.0
C1791 C 0.15484 0.77561 0.29539 0.0
C1792 C 0.14602 0.77448 0.27501 0.0
C1793 C 0.12217 0.75925 0.27111 0.0
C1794 C 0.10731 0.74558 0.2874 0.0
C1795 C 0.16146 0.79018 0.25813 0.0
C1796 C 0.1555 0.80565 0.2486 0.0
C1797 C 0.18266 0.79113 0.25248 0.0
C1798 C 0.18932 0.77443 0.26119 0.0
C1799 C 0.17395 0.75017 0.25972 0.0
C1800 C 0.18027 0.73452 0.26804 0.0
C1801 C 0.20199 0.74291 0.27776 0.0
C1802 C 0.21745 0.76697 0.27914 0.0
C1803 C 0.21121 0.7827 0.27085 0.0
H1804 H 0.20685 0.73076 0.28419 0.0
H1805 H 0.14637 0.88317 0.20289 0.0
H1806 H 0.85292 0.6136 0.82763 0.0
H1807 H 0.82647 0.61289 0.80023 0.0
H1808 H 0.88567 0.66024 0.76227 0.0
H1809 H 0.91224 0.66112 0.7897 0.0
H1810 H 0.85224 0.67403 0.76717 0.0
H1811 H 0.85518 0.60511 0.74785 0.0
H1812 H 0.85206 0.56681 0.7541 0.0
H1813 H 0.77997 0.53768 0.77155 0.0
H1814 H 0.78274 0.57593 0.76569 0.0
H1815 H 0.79306 0.66916 0.67331 0.0
H1816 H 0.81887 0.66719 0.69959 0.0
H1817 H 0.75922 0.61299 0.73271 0.0
H1818 H 0.73325 0.61396 0.70575 0.0
H1819 H 0.79264 0.60233 0.7307 0.0
H1820 H 0.7888 0.67005 0.75082 0.0
H1821 H 0.79104 0.70815 0.74589 0.0
H1822 H 0.86346 0.73937 0.72883 0.0
H1823 H 0.86158 0.70137 0.73338 0.0
C1824 C 0.86027 0.62376 0.81339 0.0
C1825 C 0.88461 0.63744 0.81077 0.0
C1826 C 0.84517 0.62324 0.79773 0.0
C1827 C 0.85415 0.63645 0.77923 0.0
C1828 C 0.87844 0.6499 0.77644 0.0
C1829 C 0.89357 0.65026 0.79202 0.0
C1830 C 0.83816 0.637 0.76319 0.0
C1831 C 0.83943 0.65843 0.75893 0.0
C1832 C 0.82096 0.61648 0.75306 0.0
C1833 C 0.81924 0.59345 0.75653 0.0
C1834 C 0.83872 0.5906 0.7532 0.0
C1835 C 0.837 0.56888 0.75663 0.0
C1836 C 0.81585 0.54984 0.76327 0.0
C1837 C 0.79635 0.55246 0.76643 0.0
C1838 C 0.79798 0.57414 0.76304 0.0
C1839 C 0.78538 0.65661 0.68603 0.0
C1840 C 0.76104 0.64168 0.68737 0.0
C1841 C 0.80018 0.65572 0.70122 0.0
C1842 C 0.79098 0.64018 0.71831 0.0
C1843 C 0.76671 0.6252 0.7197 0.0
C1844 C 0.75187 0.62594 0.70439 0.0
C1845 C 0.80676 0.63943 0.73454 0.0
C1846 C 0.80544 0.61796 0.7389 0.0
C1847 C 0.82377 0.65989 0.74496 0.0
C1848 C 0.82498 0.6828 0.74225 0.0
C1849 C 0.80516 0.685 0.74586 0.0
C1850 C 0.80637 0.70658 0.74316 0.0
C1851 C 0.82736 0.72616 0.737 0.0
C1852 C 0.84721 0.72419 0.73358 0.0
C1853 C 0.84608 0.70264 0.73624 0.0
H1854 H 0.82827 0.74285 0.73492 0.0
H1855 H 0.81455 0.53304 0.76592 0.0
H1856 H 0.33018 0.24159 0.78057 0.0
H1857 H 0.33377 0.21473 0.75632 0.0
H1858 H 0.39919 0.23083 0.78528 0.0
H1859 H 0.39575 0.25786 0.80956 0.0
H1860 H 0.3996 0.22484 0.7421 0.0
H1861 H 0.3508 0.18389 0.80119 0.0
H1862 H 0.3183 0.17287 0.82619 0.0
H1863 H 0.26905 0.14499 0.7752 0.0
H1864 H 0.30132 0.1562 0.74983 0.0
H1865 H 0.39561 0.12028 0.70507 0.0
H1866 H 0.39795 0.15128 0.72801 0.0
H1867 H 0.33166 0.13902 0.70408 0.0
H1868 H 0.32929 0.10831 0.68108 0.0
H1869 H 0.33366 0.14315 0.74634 0.0
H1870 H 0.38279 0.18518 0.68711 0.0
H1871 H 0.41545 0.19656 0.6622 0.0
H1872 H 0.46424 0.22214 0.71364 0.0
H1873 H 0.43181 0.21059 0.7389 0.0
C1874 C 0.34549 0.23964 0.78156 0.0
C1875 C 0.36257 0.2516 0.79707 0.0
C1876 C 0.34752 0.22432 0.76772 0.0
C1877 C 0.36651 0.22046 0.76931 0.0
C1878 C 0.38437 0.23352 0.78385 0.0
C1879 C 0.38241 0.24899 0.79766 0.0
C1880 C 0.36668 0.20149 0.75697 0.0
C1881 C 0.38535 0.20692 0.74319 0.0
C1882 C 0.34798 0.17816 0.75833 0.0
C1883 C 0.3285 0.17107 0.77359 0.0
C1884 C 0.33305 0.17555 0.79529 0.0
C1885 C 0.31467 0.16926 0.80953 0.0
C1886 C 0.29163 0.15828 0.80229 0.0
C1887 C 0.28691 0.15351 0.78079 0.0
C1888 C 0.30524 0.15982 0.76647 0.0
C1889 C 0.38158 0.12425 0.70468 0.0
C1890 C 0.36221 0.11174 0.69133 0.0
C1891 C 0.38294 0.14196 0.71777 0.0
C1892 C 0.36505 0.14756 0.71762 0.0
C1893 C 0.34561 0.13491 0.70451 0.0
C1894 C 0.34422 0.11725 0.69146 0.0
C1895 C 0.36635 0.16652 0.73111 0.0
C1896 C 0.34796 0.16105 0.74524 0.0
C1897 C 0.38534 0.18974 0.73009 0.0
C1898 C 0.40485 0.19679 0.71491 0.0
C1899 C 0.40046 0.19305 0.69312 0.0
C1900 C 0.41894 0.19956 0.67894 0.0
C1901 C 0.4419 0.21 0.68634 0.0
C1902 C 0.44644 0.21401 0.70794 0.0
C1903 C 0.42803 0.2075 0.72219 0.0
H1904 H 0.45618 0.21503 0.67533 0.0
H1905 H 0.27742 0.15343 0.81334 0.0
H1906 H 0.7606 0.09832 0.79967 0.0
H1907 H 0.79044 0.1272 0.77612 0.0
H1908 H 0.76916 0.17712 0.79285 0.0
H1909 H 0.73913 0.14819 0.8165 0.0
H1910 H 0.7787 0.1756 0.74839 0.0
H1911 H 0.81386 0.18282 0.81638 0.0
H1912 H 0.82325 0.16762 0.84818 0.0
H1913 H 0.86017 0.14275 0.81015 0.0
H1914 H 0.85063 0.15743 0.77806 0.0
H1915 H 0.87955 0.27085 0.70313 0.0
H1916 H 0.84984 0.24734 0.72946 0.0
H1917 H 0.87086 0.19518 0.72645 0.0
H1918 H 0.90116 0.219 0.70084 0.0
H1919 H 0.86112 0.2005 0.76591 0.0
H1920 H 0.8241 0.1897 0.69819 0.0
H1921 H 0.81373 0.20257 0.66545 0.0
H1922 H 0.77976 0.232 0.70172 0.0
H1923 H 0.79025 0.2196 0.73472 0.0
C1924 C 0.76194 0.11527 0.79798 0.0
C1925 C 0.74756 0.12104 0.80986 0.0
C1926 C 0.77908 0.13178 0.78467 0.0
C1927 C 0.78209 0.1543 0.78295 0.0
C1928 C 0.76709 0.15982 0.79404 0.0
C1929 C 0.75006 0.14336 0.80756 0.0
C1930 C 0.8017 0.17236 0.77039 0.0
C1931 C 0.79676 0.18139 0.75237 0.0
C1932 C 0.82517 0.17949 0.77547 0.0
C1933 C 0.83135 0.17106 0.79479 0.0
C1934 C 0.82384 0.17396 0.81478 0.0
C1935 C 0.8292 0.16545 0.83286 0.0
C1936 C 0.84225 0.15418 0.83118 0.0
C1937 C 0.85004 0.15147 0.81142 0.0
C1938 C 0.84467 0.1599 0.79328 0.0
C1939 C 0.87818 0.25463 0.70843 0.0
C1940 C 0.89255 0.24667 0.69975 0.0
C1941 C 0.86104 0.24109 0.72331 0.0
C1942 C 0.85785 0.21929 0.72962 0.0
C1943 C 0.87291 0.21187 0.72172 0.0
C1944 C 0.89009 0.22541 0.70695 0.0
C1945 C 0.8382 0.20362 0.74365 0.0
C1946 C 0.84311 0.19498 0.762 0.0
C1947 C 0.81469 0.19668 0.73874 0.0
C1948 C 0.80819 0.20397 0.71892 0.0
C1949 C 0.81457 0.19907 0.69919 0.0
C1950 C 0.80866 0.20626 0.68059 0.0
C1951 C 0.79616 0.21816 0.68151 0.0
C1952 C 0.78948 0.22282 0.70104 0.0
C1953 C 0.7954 0.21572 0.71969 0.0
H1954 H 0.79159 0.22371 0.66709 0.0
H1955 H 0.84637 0.14759 0.8452 0.0
H1956 H 0.02233 0.46422 0.07629 0.0
H1957 H 0.0173 0.49023 0.05208 0.0
H1958 H 0.97959 0.4328 0.00894 0.0
H1959 H 0.98527 0.40695 0.03261 0.0
H1960 H 0.01143 0.47058 0.98845 0.0
H1961 H 0.95113 0.45355 0.03921 0.0
H1962 H 0.93447 0.45046 0.07471 0.0
H1963 H 0.97896 0.52435 0.08384 0.0
H1964 H 0.99613 0.52784 0.04848 0.0
H1965 H 0.96623 0.5269 0.92286 0.0
H1966 H 0.97025 0.49996 0.94681 0.0
H1967 H 0.01061 0.55694 0.98968 0.0
H1968 H 0.00624 0.58375 0.96614 0.0
H1969 H 0.97673 0.51887 0.01006 0.0
H1970 H 0.03728 0.53557 0.95929 0.0
H1971 H 0.05361 0.53846 0.92367 0.0
H1972 H 0.00802 0.46476 0.91444 0.0
H1973 H 0.99117 0.46149 0.94993 0.0
C1974 C 0.01298 0.45714 0.06165 0.0
C1975 C 0.00411 0.43348 0.05644 0.0
C1976 C 0.00995 0.47197 0.04791 0.0
C1977 C 0.99789 0.46339 0.02879 0.0
C1978 C 0.9889 0.43977 0.02363 0.0
C1979 C 0.99194 0.42496 0.03731 0.0
C1980 C 0.99524 0.47915 0.01382 0.0
C1981 C 0.00353 0.48089 0.99309 0.0
C1982 C 0.98538 0.49295 0.02001 0.0
C1983 C 0.97508 0.49091 0.04127 0.0
C1984 C 0.9575 0.46911 0.04885 0.0
C1985 C 0.94794 0.46729 0.06894 0.0
C1986 C 0.9557 0.48718 0.08155 0.0
C1987 C 0.973 0.50895 0.07407 0.0
C1988 C 0.98264 0.51086 0.054 0.0
C1989 C 0.97601 0.53365 0.93736 0.0
C1990 C 0.9861 0.55746 0.94253 0.0
C1991 C 0.9784 0.5183 0.95096 0.0
C1992 C 0.99086 0.52651 0.96994 0.0
C1993 C 0.00098 0.55027 0.97508 0.0
C1994 C 0.99868 0.5656 0.9615 0.0
C1995 C 0.99297 0.51032 0.98475 0.0
C1996 C 0.98457 0.50851 0.00543 0.0
C1997 C 0.00267 0.49641 0.97851 0.0
C1998 C 0.01279 0.49833 0.95718 0.0
C1999 C 0.03059 0.52001 0.9496 0.0
C2000 C 0.03997 0.52172 0.92945 0.0
C2001 C 0.03181 0.50182 0.91678 0.0
C2002 C 0.01429 0.48017 0.92426 0.0
C2003 C 0.00484 0.47837 0.9444 0.0
H2004 H 0.0391 0.50317 0.90118 0.0
H2005 H 0.94827 0.48574 0.0971 0.0
H2006 H 0.53757 0.58825 0.03756 0.0
H2007 H 0.51219 0.55505 0.01514 0.0
H2008 H 0.54186 0.51545 0.0415 0.0
H2009 H 0.56728 0.54863 0.06407 0.0
H2010 H 0.54128 0.51365 0.9992 0.0
H2011 H 0.48637 0.5021 0.05379 0.0
H2012 H 0.46432 0.51319 0.07805 0.0
H2013 H 0.43371 0.52877 0.02526 0.0
H2014 H 0.45583 0.51808 0.00066 0.0
H2015 H 0.45825 0.40366 0.95479 0.0
H2016 H 0.48354 0.43619 0.97795 0.0
H2017 H 0.45549 0.47732 0.9518 0.0
H2018 H 0.43024 0.44489 0.92846 0.0
H2019 H 0.45516 0.47784 0.99443 0.0
H2020 H 0.51056 0.48978 0.9399 0.0
H2021 H 0.53257 0.47852 0.91575 0.0
H2022 H 0.56215 0.46193 0.96871 0.0
H2023 H 0.54006 0.47279 0.99318 0.0
C2024 C 0.53833 0.5723 0.03894 0.0
C2025 C 0.55444 0.57107 0.05261 0.0
C2026 C 0.52386 0.55335 0.02606 0.0
C2027 C 0.52507 0.53274 0.02671 0.0
C2028 C 0.54072 0.53124 0.04069 0.0
C2029 C 0.55523 0.5502 0.05356 0.0
C2030 C 0.51084 0.51321 0.01205 0.0
C2031 C 0.5224 0.50556 0.99838 0.0
C2032 C 0.48629 0.50308 0.01063 0.0
C2033 C 0.47294 0.5095 0.02538 0.0
C2034 C 0.47508 0.50808 0.04735 0.0
C2035 C 0.46255 0.51426 0.06116 0.0
C2036 C 0.44767 0.52174 0.0532 0.0
C2037 C 0.44526 0.523 0.03141 0.0
C2038 C 0.45778 0.51686 0.01752 0.0
C2039 C 0.45785 0.41981 0.95361 0.0
C2040 C 0.44226 0.42171 0.93977 0.0
C2041 C 0.47224 0.43836 0.96693 0.0
C2042 C 0.47143 0.45919 0.96655 0.0
C2043 C 0.4563 0.46135 0.9524 0.0
C2044 C 0.4419 0.44282 0.93909 0.0
C2045 C 0.48561 0.47835 0.98155 0.0
C2046 C 0.47403 0.48592 0.99528 0.0
C2047 C 0.51013 0.48837 0.98305 0.0
C2048 C 0.52347 0.48188 0.96837 0.0
C2049 C 0.52161 0.48355 0.94639 0.0
C2050 C 0.53413 0.47727 0.93265 0.0
C2051 C 0.5487 0.46945 0.94069 0.0
C2052 C 0.55083 0.46796 0.9625 0.0
C2053 C 0.53833 0.47419 0.97632 0.0
H2054 H 0.55838 0.4646 0.93002 0.0
H2055 H 0.43797 0.52651 0.06393 0.0
H2056 H 0.44683 0.01953 0.0684 0.0
H2057 H 0.47951 0.0252 0.04609 0.0
H2058 H 0.4401 0.95332 0.02583 0.0
H2059 H 0.40721 0.94756 0.0478 0.0
H2060 H 0.48663 0.96768 0.03341 0.0
H2061 H 0.44153 0.99437 0.99521 0.0
H2062 H 0.42194 0.01746 0.99016 0.0
H2063 H 0.48766 0.08107 0.99695 0.0
H2064 H 0.50759 0.05832 0.00238 0.0
H2065 H 0.55187 0.9758 0.94204 0.0
H2066 H 0.51967 0.96951 0.96534 0.0
H2067 H 0.55696 0.04247 0.98267 0.0
H2068 H 0.58916 0.04889 0.95935 0.0
H2069 H 0.5115 0.02747 0.97683 0.0
H2070 H 0.55679 0.00109 0.01487 0.0
H2071 H 0.57652 0.97818 0.02028 0.0
H2072 H 0.51088 0.91436 0.01418 0.0
H2073 H 0.4908 0.9369 0.00842 0.0
C2074 C 0.44515 0.0049 0.05927 0.0
C2075 C 0.42434 0.98315 0.05975 0.0
C2076 C 0.46384 0.00816 0.04657 0.0
C2077 C 0.46205 0.98976 0.0341 0.0
C2078 C 0.4418 0.96773 0.03535 0.0
C2079 C 0.42307 0.96445 0.048 0.0
C2080 C 0.48079 0.99381 0.01896 0.0
C2081 C 0.49191 0.98056 0.02089 0.0
C2082 C 0.48791 0.01092 0.00288 0.0
C2083 C 0.47601 0.02464 0.99941 0.0
C2084 C 0.45177 0.01328 0.99579 0.0
C2085 C 0.44061 0.0263 0.99284 0.0
C2086 C 0.45354 0.05072 0.99329 0.0
C2087 C 0.47767 0.06216 0.99664 0.0
C2088 C 0.4889 0.04921 -0.00036 0.0
C2089 C 0.55316 0.9905 0.95078 0.0
C2090 C 0.57308 0.01281 0.94895 0.0
C2091 C 0.53479 0.98688 0.96409 0.0
C2092 C 0.53611 0.00544 0.97601 0.0
C2093 C 0.5556 0.0279 0.97364 0.0
C2094 C 0.57394 0.03155 0.96025 0.0
C2095 C 0.51744 0.00138 0.99128 0.0
C2096 C 0.50628 0.01461 0.98937 0.0
C2097 C 0.51033 0.98429 0.0074 0.0
C2098 C 0.52233 0.97069 0.01101 0.0
C2099 C 0.54659 0.98217 0.01453 0.0
C2100 C 0.55783 0.96925 0.01768 0.0
C2101 C 0.54497 0.94483 0.01752 0.0
C2102 C 0.52083 0.93328 0.01427 0.0
C2103 C 0.5095 0.94611 0.01108 0.0
H2104 H 0.55371 0.93486 0.01997 0.0
H2105 H 0.44487 0.06077 0.991 0.0
H2106 H 0.54352 0.94655 0.45499 0.0
H2107 H 0.51633 0.9507 0.4783 0.0
H2108 H 0.55017 0.02432 0.46377 0.0
H2109 H 0.57725 0.02026 0.44017 0.0
H2110 H 0.54534 0.01604 0.50617 0.0
H2111 H 0.49674 0.98756 0.44451 0.0
H2112 H 0.47675 0.96038 0.41505 0.0
H2113 H 0.43831 0.90454 0.45905 0.0
H2114 H 0.45833 0.93133 0.48879 0.0
H2115 H 0.46356 0.0429 0.55172 0.0
H2116 H 0.49012 0.03716 0.52899 0.0
H2117 H 0.45175 0.96312 0.5421 0.0
H2118 H 0.42493 0.96876 0.5648 0.0
H2119 H 0.45888 0.97066 0.50099 0.0
H2120 H 0.5067 0.99884 0.5627 0.0
H2121 H 0.5267 0.02566 0.59238 0.0
H2122 H 0.56673 0.08147 0.5488 0.0
H2123 H 0.54673 0.05506 0.51885 0.0
C2124 C 0.54484 0.96352 0.45635 0.0
C2125 C 0.56257 0.98309 0.44574 0.0
C2126 C 0.52935 0.96588 0.46977 0.0
C2127 C 0.53125 0.98782 0.47274 0.0
C2128 C 0.54852 0.00726 0.46177 0.0
C2129 C 0.56398 0.00491 0.44832 0.0
C2130 C 0.51594 0.99072 0.48807 0.0
C2131 C 0.52644 0.00637 0.5049 0.0
C2132 C 0.49129 0.97753 0.48673 0.0
C2133 C 0.47922 0.9614 0.46887 0.0
C2134 C 0.48418 0.96944 0.4479 0.0
C2135 C 0.47281 0.95411 0.43115 0.0
C2136 C 0.45632 0.93073 0.43517 0.0
C2137 C 0.45112 0.92265 0.45596 0.0
C2138 C 0.46245 0.9379 0.47277 0.0
C2139 C 0.46109 0.02547 0.55015 0.0
C2140 C 0.44223 0.00629 0.56011 0.0
C2141 C 0.47625 0.0222 0.5371 0.0
C2142 C 0.47303 -0.00027 0.53396 0.0
C2143 C 0.45452 0.9806 0.54427 0.0
C2144 C 0.43925 0.98385 0.55723 0.0
C2145 C 0.48827 0.99609 0.51909 0.0
C2146 C 0.47778 0.9803 0.50233 0.0
C2147 C 0.51294 0.00908 0.52055 0.0
C2148 C 0.52506 0.02501 0.53853 0.0
C2149 C 0.51964 0.01688 0.55945 0.0
C2150 C 0.531 0.032 0.57632 0.0
C2151 C 0.54794 0.05527 0.57248 0.0
C2152 C 0.55359 0.06345 0.55175 0.0
C2153 C 0.54226 0.0484 0.53482 0.0
H2154 H 0.55671 0.06695 0.58557 0.0
H2155 H 0.44753 0.9189 0.42219 0.0
H2156 H 0.96299 0.43185 0.57693 0.0
H2157 H 0.96854 0.46372 0.55346 0.0
H2158 H 0.01177 0.44889 0.5125 0.0
H2159 H 0.00646 0.41726 0.53592 0.0
H2160 H 0.03086 0.49451 0.51791 0.0
H2161 H 0.95474 0.43132 0.50007 0.0
H2162 H 0.91424 0.40015 0.50703 0.0
H2163 H 0.8975 0.45101 0.53057 0.0
H2164 H 0.93802 0.48247 0.52403 0.0
H2165 H 0.02971 0.56042 0.42935 0.0
H2166 H 0.02379 0.52781 0.45195 0.0
H2167 H 0.98362 0.54402 0.49544 0.0
H2168 H 0.98964 0.57669 0.47319 0.0
H2169 H 0.96292 0.49734 0.48811 0.0
H2170 H 0.03963 0.56041 0.50614 0.0
H2171 H 0.08014 0.59128 0.4987 0.0
H2172 H 0.09561 0.53996 0.47398 0.0
H2173 H 0.05507 0.50881 0.48101 0.0
C2174 C 0.97366 0.43542 0.56291 0.0
C2175 C 0.98439 0.42216 0.55832 0.0
C2176 C 0.97679 0.45358 0.5495 0.0
C2177 C 0.99039 0.45853 0.5311 0.0
C2178 C 0.00129 0.44545 0.52663 0.0
C2179 C 0.9983 0.42744 0.54008 0.0
C2180 C 0.99327 0.4773 0.51642 0.0
C2181 C 0.01599 0.49495 0.51118 0.0
C2182 C 0.97389 0.47809 0.5079 0.0
C2183 C 0.94948 0.45922 0.51175 0.0
C2184 C 0.94247 0.43584 0.50688 0.0
C2185 C 0.91951 0.41812 0.51072 0.0
C2186 C 0.90332 0.42359 0.51928 0.0
C2187 C 0.91006 0.4468 0.52396 0.0
C2188 C 0.93302 0.46458 0.52018 0.0
C2189 C 0.01969 0.55708 0.44376 0.0
C2190 C 0.01012 0.57114 0.44943 0.0
C2191 C 0.01629 0.53843 0.45663 0.0
C2192 C 0.0034 0.53362 0.47544 0.0
C2193 C 0.99352 0.54736 0.48094 0.0
C2194 C 0.99691 0.56598 0.46813 0.0
C2195 C 0.00047 0.51452 0.48966 0.0
C2196 C 0.97775 0.49683 0.49482 0.0
C2197 C 0.01985 0.51363 0.49802 0.0
C2198 C 0.04426 0.53232 0.4939 0.0
C2199 C 0.05162 0.55573 0.49897 0.0
C2200 C 0.0746 0.57328 0.49485 0.0
C2201 C 0.09042 0.5676 0.48582 0.0
C2202 C 0.08332 0.54434 0.48095 0.0
C2203 C 0.06036 0.52674 0.48501 0.0
H2204 H 0.1082 0.5812 0.48264 0.0
H2205 H 0.88555 0.40985 0.52225 0.0
H2206 H 0.45897 0.43547 0.4297 0.0
H2207 H 0.48897 0.45922 0.45564 0.0
H2208 H 0.44669 0.4879 0.47758 0.0
H2209 H 0.41658 0.46416 0.45178 0.0
H2210 H 0.49301 0.521 0.47642 0.0
H2211 H 0.44526 0.44313 0.5033 0.0
H2212 H 0.42607 0.40011 0.50219 0.0
H2213 H 0.49302 0.40452 0.49792 0.0
H2214 H 0.51261 0.44761 0.49866 0.0
H2215 H 0.54619 0.56069 0.57635 0.0
H2216 H 0.51611 0.53708 0.5504 0.0
H2217 H 0.56035 0.5123 0.52501 0.0
H2218 H 0.59078 0.53634 0.5503 0.0
H2219 H 0.51283 0.47725 0.52828 0.0
H2220 H 0.56047 0.55523 0.50129 0.0
H2221 H 0.57955 0.59821 0.50292 0.0
H2222 H 0.5125 0.59351 0.50779 0.0
H2223 H 0.49303 0.55044 0.5066 0.0
C2224 C 0.45617 0.44701 0.43991 0.0
C2225 C 0.43533 0.44781 0.4388 0.0
C2226 C 0.47331 0.46056 0.45471 0.0
C2227 C 0.46983 0.47498 0.46877 0.0
C2228 C 0.44968 0.47684 0.46689 0.0
C2229 C 0.43254 0.46333 0.45207 0.0
C2230 C 0.48651 0.48702 0.48622 0.0
C2231 C 0.49714 0.51142 0.4879 0.0
C2232 C 0.4921 0.47451 0.50102 0.0
C2233 C 0.48039 0.4486 0.50083 0.0
C2234 C 0.45589 0.43493 0.50197 0.0
C2235 C 0.44494 0.41053 0.50142 0.0
C2236 C 0.45832 0.39959 0.49993 0.0
C2237 C 0.48268 0.41302 0.49904 0.0
C2238 C 0.49372 0.43743 0.49954 0.0
C2239 C 0.54948 0.55011 0.56534 0.0
C2240 C 0.571 0.55056 0.56536 0.0
C2241 C 0.53224 0.53658 0.55059 0.0
C2242 C 0.53618 0.52321 0.53569 0.0
C2243 C 0.55701 0.52251 0.53643 0.0
C2244 C 0.57433 0.53616 0.55103 0.0
C2245 C 0.5193 0.51117 0.51843 0.0
C2246 C 0.50865 0.4868 0.5168 0.0
C2247 C 0.51365 0.52369 0.50371 0.0
C2248 C 0.5253 0.5496 0.50409 0.0
C2249 C 0.5498 0.56335 0.50288 0.0
C2250 C 0.56069 0.58773 0.50371 0.0
C2251 C 0.54725 0.59859 0.50551 0.0
C2252 C 0.52289 0.58507 0.50643 0.0
C2253 C 0.51191 0.56067 0.50568 0.0
H2254 H 0.55571 0.61747 0.50614 0.0
H2255 H 0.44981 0.3807 0.49951 0.0
loop_
_geom_bond_atom_site_label_1
_geom_bond_atom_site_label_2
_geom_bond_distance
_geom_bond_site_symmetry_2
_ccdc_geom_bond_type
Li0 N17 1.990 . S
Li0 O60 1.956 . S
Li0 O61 1.970 . S
Li0 O62 1.961 . S
Li1 N25 1.990 . S
Li1 O60 1.970 . S
Li1 O61 1.956 . S
Li1 O63 1.961 . S
Li2 N47 1.990 . S
Li2 O60 1.961 . S
Li2 O62 1.956 . S
Li2 O63 1.970 . S
Li3 N53 1.990 1_455 S
Li3 O61 1.961 . S
Li3 O62 1.970 . S
Li3 O63 1.956 . S
C4 C6 1.348 . S
C4 C7 1.356 . S
C4 O60 1.325 . S
N5 C8 1.314 . S
N5 C9 1.279 . S
C6 C4 1.348 . S
C6 C8 1.353 . S
C6 H64 0.929 . S
C7 C4 1.356 . S
C7 C9 1.358 . S
C7 H65 0.930 . S
C8 N5 1.314 . S
C8 C6 1.353 . S
C8 H66 0.930 . S
C9 N5 1.279 . S
C9 C7 1.358 . S
C9 H67 0.930 . S
C10 C13 1.348 . S
C10 C14 1.356 1_455 S
C10 O61 1.325 . S
C11 N12 1.279 . S
C11 C14 1.358 . S
C11 H68 0.930 . S
N12 C11 1.279 . S
N12 C15 1.314 . S
C13 C10 1.348 . S
C13 C15 1.353 1_455 S
C13 H69 0.929 . S
C14 C10 1.356 1_655 S
C14 C11 1.358 . S
C14 H70 0.930 . S
C15 N12 1.314 . S
C15 C13 1.353 1_655 S
C15 H71 0.930 . S
C16 N17 1.314 . S
C16 C21 1.353 . S
C16 H22 0.930 . S
N17 Li0 1.990 . S
N17 C16 1.314 . S
N17 C19 1.279 . S
C18 C19 1.358 . S
C18 C20 1.356 . S
C18 H72 0.930 . S
C19 N17 1.279 . S
C19 C18 1.358 . S
C19 H23 0.930 . S
C20 C18 1.356 . S
C20 C21 1.348 . S
C21 C16 1.353 . S
C21 C20 1.348 . S
C21 H73 0.929 . S
H22 C16 0.930 . S
H23 C19 0.930 . S
C24 N25 1.314 . S
C24 C26 1.353 . S
C24 H30 0.930 . S
N25 Li1 1.990 . S
N25 C24 1.314 . S
N25 C28 1.279 . S
C26 C24 1.353 . S
C26 C29 1.348 . S
C26 H74 0.929 . S
C27 C28 1.358 . S
C27 C29 1.356 . S
C27 H75 0.930 . S
C28 N25 1.279 . S
C28 C27 1.358 . S
C28 H31 0.930 . S
C29 C26 1.348 . S
C29 C27 1.356 . S
H30 C24 0.930 . S
H31 C28 0.930 . S
C32 C34 1.348 . S
C32 C35 1.356 . S
C32 O62 1.325 . S
N33 C36 1.314 1_556 S
N33 C37 1.279 1_556 S
C34 C32 1.348 . S
C34 C36 1.353 . S
C34 H76 0.929 . S
C35 C32 1.356 . S
C35 C37 1.358 . S
C35 H77 0.930 . S
C36 N33 1.314 1_554 S
C36 C34 1.353 . S
C36 H78 0.930 1_454 S
C37 N33 1.279 1_554 S
C37 C35 1.358 . S
C37 H79 0.930 1_554 S
C38 C39 1.348 . S
C38 C40 1.356 . S
C38 O63 1.325 . S
C39 C38 1.348 . S
C39 C41 1.353 . S
C39 H80 0.929 . S
C40 C38 1.356 . S
C40 C42 1.358 . S
C40 H81 0.930 . S
C41 C39 1.353 . S
C41 N43 1.314 . S
C41 H82 0.930 . S
C42 C40 1.358 . S
C42 N43 1.279 . S
C42 H83 0.930 . S
N43 C41 1.314 . S
N43 C42 1.279 . S
C44 C46 1.353 . S
C44 N47 1.314 . S
C44 H50 0.930 . S
C45 N47 1.279 . S
C45 C48 1.358 . S
C45 H51 0.930 . S
C46 C44 1.353 . S
C46 C49 1.348 . S
C46 H84 0.929 . S
N47 Li2 1.990 . S
N47 C44 1.314 . S
N47 C45 1.279 . S
C48 C45 1.358 . S
C48 C49 1.356 . S
C48 H85 0.930 . S
C49 C46 1.348 . S
C49 C48 1.356 . S
H50 C44 0.930 . S
H51 C45 0.930 . S
C52 N53 1.314 . S
C52 C54 1.353 . S
C52 H58 0.930 . S
N53 Li3 1.990 1_655 S
N53 C52 1.314 . S
N53 C56 1.279 . S
C54 C52 1.353 . S
C54 C57 1.348 . S
C54 H86 0.929 . S
C55 C56 1.358 . S
C55 C57 1.356 . S
C55 H87 0.930 . S
C56 N53 1.279 . S
C56 C55 1.358 . S
C56 H59 0.930 . S
C57 C54 1.348 . S
C57 C55 1.356 . S
H58 C52 0.930 . S
H59 C56 0.930 . S
O60 Li0 1.956 . S
O60 Li1 1.970 . S
O60 Li2 1.961 . S
O60 C4 1.325 . S
O61 Li0 1.970 . S
O61 Li1 1.956 . S
O61 Li3 1.961 . S
O61 C10 1.325 . S
O62 Li0 1.961 . S
O62 Li2 1.956 . S
O62 Li3 1.970 . S
O62 C32 1.325 . S
O63 Li1 1.961 . S
O63 Li2 1.970 . S
O63 Li3 1.956 . S
O63 C38 1.325 . S
H64 C6 0.929 . S
H65 C7 0.930 . S
H66 C8 0.930 . S
H67 C9 0.930 . S
H68 C11 0.930 . S
H69 C13 0.929 . S
H70 C14 0.930 . S
H71 C15 0.930 . S
H72 C18 0.930 . S
H73 C21 0.929 . S
H74 C26 0.929 . S
H75 C27 0.930 . S
H76 C34 0.929 . S
H77 C35 0.930 . S
H78 C36 0.930 1_656 S
H79 C37 0.930 1_556 S
H80 C39 0.929 . S
H81 C40 0.930 . S
H82 C41 0.930 . S
H83 C42 0.930 . S
H84 C46 0.929 . S
H85 C48 0.930 . S
H86 C54 0.929 . S
H87 C55 0.930 . S
Li88 N105 1.990 . S
Li88 O148 1.956 . S
Li88 O149 1.970 . S
Li88 O150 1.961 . S
Li89 N113 1.990 . S
Li89 O148 1.970 . S
Li89 O149 1.956 . S
Li89 O151 1.961 . S
Li90 N135 1.990 . S
Li90 O148 1.961 . S
Li90 O150 1.956 . S
Li90 O151 1.970 . S
Li91 N141 1.990 . S
Li91 O149 1.961 . S
Li91 O150 1.970 . S
Li91 O151 1.956 . S
C92 C94 1.348 . S
C92 C95 1.356 . S
C92 O148 1.325 . S
N93 C96 1.314 . S
N93 C97 1.279 . S
C94 C92 1.348 . S
C94 C96 1.353 . S
C94 H152 0.929 . S
C95 C92 1.356 . S
C95 C97 1.358 . S
C95 H153 0.930 . S
C96 N93 1.314 . S
C96 C94 1.353 . S
C96 H154 0.930 . S
C97 N93 1.279 . S
C97 C95 1.358 . S
C97 H155 0.930 . S
C98 C101 1.348 . S
C98 C102 1.356 . S
C98 O149 1.325 . S
C99 N100 1.279 . S
C99 C102 1.358 . S
C99 H156 0.930 . S
N100 C99 1.279 . S
N100 C103 1.314 . S
C101 C98 1.348 . S
C101 C103 1.353 . S
C101 H157 0.929 . S
C102 C98 1.356 . S
C102 C99 1.358 . S
C102 H158 0.930 . S
C103 N100 1.314 . S
C103 C101 1.353 . S
C103 H159 0.930 . S
C104 N105 1.314 . S
C104 C109 1.353 . S
C104 H110 0.930 . S
N105 Li88 1.990 . S
N105 C104 1.314 . S
N105 C107 1.279 . S
C106 C107 1.358 . S
C106 C108 1.356 . S
C106 H160 0.930 . S
C107 N105 1.279 . S
C107 C106 1.358 . S
C107 H111 0.930 . S
C108 C106 1.356 . S
C108 C109 1.348 . S
C109 C104 1.353 . S
C109 C108 1.348 . S
C109 H161 0.929 . S
H110 C104 0.930 . S
H111 C107 0.930 . S
C112 N113 1.314 . S
C112 C114 1.353 . S
C112 H118 0.930 . S
N113 Li89 1.990 . S
N113 C112 1.314 . S
N113 C116 1.279 . S
C114 C112 1.353 . S
C114 C117 1.348 . S
C114 H162 0.929 . S
C115 C116 1.358 . S
C115 C117 1.356 . S
C115 H163 0.930 . S
C116 N113 1.279 . S
C116 C115 1.358 . S
C116 H119 0.930 . S
C117 C114 1.348 . S
C117 C115 1.356 . S
H118 C112 0.930 . S
H119 C116 0.930 . S
C120 C122 1.348 . S
C120 C123 1.356 . S
C120 O150 1.325 . S
N121 C124 1.314 . S
N121 C125 1.279 . S
C122 C120 1.348 . S
C122 C124 1.353 . S
C122 H164 0.929 . S
C123 C120 1.356 . S
C123 C125 1.358 . S
C123 H165 0.930 . S
C124 N121 1.314 . S
C124 C122 1.353 . S
C124 H166 0.930 . S
C125 N121 1.279 . S
C125 C123 1.358 . S
C125 H167 0.930 . S
C126 C127 1.348 . S
C126 C128 1.356 . S
C126 O151 1.325 . S
C127 C126 1.348 . S
C127 C129 1.353 . S
C127 H168 0.929 . S
C128 C126 1.356 . S
C128 C130 1.358 . S
C128 H169 0.930 . S
C129 C127 1.353 . S
C129 N131 1.314 1_554 S
C129 H170 0.930 1_554 S
C130 C128 1.358 . S
C130 N131 1.279 1_554 S
C130 H171 0.930 1_554 S
N131 C129 1.314 1_556 S
N131 C130 1.279 1_556 S
C132 C134 1.353 . S
C132 N135 1.314 . S
C132 H138 0.930 . S
C133 N135 1.279 . S
C133 C136 1.358 . S
C133 H139 0.930 . S
C134 C132 1.353 . S
C134 C137 1.348 . S
C134 H172 0.929 . S
N135 Li90 1.990 . S
N135 C132 1.314 . S
N135 C133 1.279 . S
C136 C133 1.358 . S
C136 C137 1.356 . S
C136 H173 0.930 . S
C137 C134 1.348 . S
C137 C136 1.356 . S
H138 C132 0.930 . S
H139 C133 0.930 . S
C140 N141 1.314 . S
C140 C142 1.353 . S
C140 H146 0.930 . S
N141 Li91 1.990 . S
N141 C140 1.314 . S
N141 C144 1.279 . S
C142 C140 1.353 . S
C142 C145 1.348 . S
C142 H174 0.929 . S
C143 C144 1.358 . S
C143 C145 1.356 . S
C143 H175 0.930 . S
C144 N141 1.279 . S
C144 C143 1.358 . S
C144 H147 0.930 . S
C145 C142 1.348 . S
C145 C143 1.356 . S
H146 C140 0.930 . S
H147 C144 0.930 . S
O148 Li88 1.956 . S
O148 Li89 1.970 . S
O148 Li90 1.961 . S
O148 C92 1.325 . S
O149 Li88 1.970 . S
O149 Li89 1.956 . S
O149 Li91 1.961 . S
O149 C98 1.325 . S
O150 Li88 1.961 . S
O150 Li90 1.956 . S
O150 Li91 1.970 . S
O150 C120 1.325 . S
O151 Li89 1.961 . S
O151 Li90 1.970 . S
O151 Li91 1.956 . S
O151 C126 1.325 . S
H152 C94 0.929 . S
H153 C95 0.930 . S
H154 C96 0.930 . S
H155 C97 0.930 . S
H156 C99 0.930 . S
H157 C101 0.929 . S
H158 C102 0.930 . S
H159 C103 0.930 . S
H160 C106 0.930 . S
H161 C109 0.929 . S
H162 C114 0.929 . S
H163 C115 0.930 . S
H164 C122 0.929 . S
H165 C123 0.930 . S
H166 C124 0.930 . S
H167 C125 0.930 . S
H168 C127 0.929 . S
H169 C128 0.930 . S
H170 C129 0.930 1_556 S
H171 C130 0.930 1_556 S
H172 C134 0.929 . S
H173 C136 0.930 . S
H174 C142 0.929 . S
H175 C143 0.930 . S
Li176 N193 1.990 . S
Li176 O236 1.956 . S
Li176 O237 1.970 . S
Li176 O238 1.961 . S
Li177 N201 1.990 . S
Li177 O236 1.970 . S
Li177 O237 1.956 . S
Li177 O239 1.961 . S
Li178 N223 1.990 1_565 S
Li178 O236 1.961 . S
Li178 O238 1.956 . S
Li178 O239 1.970 . S
Li179 N229 1.990 . S
Li179 O237 1.961 . S
Li179 O238 1.970 . S
Li179 O239 1.956 . S
C180 C182 1.348 . S
C180 C183 1.356 1_565 S
C180 O236 1.325 . S
N181 C184 1.314 . S
N181 C185 1.279 . S
C182 C180 1.348 . S
C182 C184 1.353 1_565 S
C182 H240 0.929 . S
C183 C180 1.356 1_545 S
C183 C185 1.358 . S
C183 H241 0.930 . S
C184 N181 1.314 . S
C184 C182 1.353 1_545 S
C184 H242 0.930 . S
C185 N181 1.279 . S
C185 C183 1.358 . S
C185 H243 0.930 . S
C186 C189 1.348 . S
C186 C190 1.356 . S
C186 O237 1.325 . S
C187 N188 1.279 . S
C187 C190 1.358 . S
C187 H244 0.930 . S
N188 C187 1.279 . S
N188 C191 1.314 . S
C189 C186 1.348 . S
C189 C191 1.353 . S
C189 H245 0.929 . S
C190 C186 1.356 . S
C190 C187 1.358 . S
C190 H246 0.930 . S
C191 N188 1.314 . S
C191 C189 1.353 . S
C191 H247 0.930 . S
C192 N193 1.314 . S
C192 C197 1.353 . S
C192 H198 0.930 . S
N193 Li176 1.990 . S
N193 C192 1.314 . S
N193 C195 1.279 . S
C194 C195 1.358 . S
C194 C196 1.356 . S
C194 H248 0.930 . S
C195 N193 1.279 . S
C195 C194 1.358 . S
C195 H199 0.930 . S
C196 C194 1.356 . S
C196 C197 1.348 . S
C197 C192 1.353 . S
C197 C196 1.348 . S
C197 H249 0.929 . S
H198 C192 0.930 . S
H199 C195 0.930 . S
C200 N201 1.314 . S
C200 C202 1.353 . S
C200 H206 0.930 . S
N201 Li177 1.990 . S
N201 C200 1.314 . S
N201 C204 1.279 . S
C202 C200 1.353 . S
C202 C205 1.348 . S
C202 H250 0.929 . S
C203 C204 1.358 . S
C203 C205 1.356 . S
C203 H251 0.930 . S
C204 N201 1.279 . S
C204 C203 1.358 . S
C204 H207 0.930 . S
C205 C202 1.348 . S
C205 C203 1.356 . S
H206 C200 0.930 . S
H207 C204 0.930 . S
C208 C210 1.348 . S
C208 C211 1.356 . S
C208 O238 1.325 . S
N209 C212 1.314 . S
N209 C213 1.279 . S
C210 C208 1.348 . S
C210 C212 1.353 . S
C210 H252 0.929 . S
C211 C208 1.356 . S
C211 C213 1.358 . S
C211 H253 0.930 . S
C212 N209 1.314 . S
C212 C210 1.353 . S
C212 H254 0.930 . S
C213 N209 1.279 . S
C213 C211 1.358 . S
C213 H255 0.930 . S
C214 C215 1.348 . S
C214 C216 1.356 . S
C214 O239 1.325 . S
C215 C214 1.348 . S
C215 C217 1.353 . S
C215 H256 0.929 . S
C216 C214 1.356 . S
C216 C218 1.358 . S
C216 H257 0.930 . S
C217 C215 1.353 . S
C217 N219 1.314 1_554 S
C217 H258 0.930 1_564 S
C218 C216 1.358 . S
C218 N219 1.279 1_554 S
C218 H259 0.930 1_554 S
N219 C217 1.314 1_556 S
N219 C218 1.279 1_556 S
C220 C222 1.353 . S
C220 N223 1.314 . S
C220 H226 0.930 . S
C221 N223 1.279 . S
C221 C224 1.358 . S
C221 H227 0.930 . S
C222 C220 1.353 . S
C222 C225 1.348 . S
C222 H260 0.929 . S
N223 Li178 1.990 1_545 S
N223 C220 1.314 . S
N223 C221 1.279 . S
C224 C221 1.358 . S
C224 C225 1.356 . S
C224 H261 0.930 . S
C225 C222 1.348 . S
C225 C224 1.356 . S
H226 C220 0.930 . S
H227 C221 0.930 . S
C228 N229 1.314 . S
C228 C230 1.353 . S
C228 H234 0.930 . S
N229 Li179 1.990 . S
N229 C228 1.314 . S
N229 C232 1.279 . S
C230 C228 1.353 . S
C230 C233 1.348 . S
C230 H262 0.929 . S
C231 C232 1.358 . S
C231 C233 1.356 . S
C231 H263 0.930 . S
C232 N229 1.279 . S
C232 C231 1.358 . S
C232 H235 0.930 . S
C233 C230 1.348 . S
C233 C231 1.356 . S
H234 C228 0.930 . S
H235 C232 0.930 . S
O236 Li176 1.956 . S
O236 Li177 1.970 . S
O236 Li178 1.961 . S
O236 C180 1.325 . S
O237 Li176 1.970 . S
O237 Li177 1.956 . S
O237 Li179 1.961 . S
O237 C186 1.325 . S
O238 Li176 1.961 . S
O238 Li178 1.956 . S
O238 Li179 1.970 . S
O238 C208 1.325 . S
O239 Li177 1.961 . S
O239 Li178 1.970 . S
O239 Li179 1.956 . S
O239 C214 1.325 . S
H240 C182 0.929 . S
H241 C183 0.930 . S
H242 C184 0.930 . S
H243 C185 0.930 . S
H244 C187 0.930 . S
H245 C189 0.929 . S
H246 C190 0.930 . S
H247 C191 0.930 . S
H248 C194 0.930 . S
H249 C197 0.929 . S
H250 C202 0.929 . S
H251 C203 0.930 . S
H252 C210 0.929 . S
H253 C211 0.930 . S
H254 C212 0.930 . S
H255 C213 0.930 . S
H256 C215 0.929 . S
H257 C216 0.930 . S
H258 C217 0.930 1_546 S
H259 C218 0.930 1_556 S
H260 C222 0.929 . S
H261 C224 0.930 . S
H262 C230 0.929 . S
H263 C231 0.930 . S
Li264 N281 1.990 . S
Li264 O324 1.956 . S
Li264 O325 1.970 . S
Li264 O326 1.961 . S
Li265 N289 1.990 1_565 S
Li265 O324 1.970 . S
Li265 O325 1.956 . S
Li265 O327 1.961 . S
Li266 N311 1.990 . S
Li266 O324 1.961 . S
Li266 O326 1.956 . S
Li266 O327 1.970 . S
Li267 N317 1.990 . S
Li267 O325 1.961 . S
Li267 O326 1.970 . S
Li267 O327 1.956 . S
C268 C270 1.348 . S
C268 C271 1.356 . S
C268 O324 1.325 . S
N269 C272 1.314 . S
N269 C273 1.279 . S
C270 C268 1.348 . S
C270 C272 1.353 . S
C270 H328 0.929 . S
C271 C268 1.356 . S
C271 C273 1.358 . S
C271 H329 0.930 . S
C272 N269 1.314 . S
C272 C270 1.353 . S
C272 H330 0.930 1_565 S
C273 N269 1.279 . S
C273 C271 1.358 . S
C273 H331 0.930 . S
C274 C277 1.348 . S
C274 C278 1.356 . S
C274 O325 1.325 . S
C275 N276 1.279 . S
C275 C278 1.358 . S
C275 H332 0.930 . S
N276 C275 1.279 . S
N276 C279 1.314 . S
C277 C274 1.348 . S
C277 C279 1.353 . S
C277 H333 0.929 . S
C278 C274 1.356 . S
C278 C275 1.358 . S
C278 H334 0.930 . S
C279 N276 1.314 . S
C279 C277 1.353 . S
C279 H335 0.930 . S
C280 N281 1.314 . S
C280 C285 1.353 . S
C280 H286 0.930 . S
N281 Li264 1.990 . S
N281 C280 1.314 . S
N281 C283 1.279 . S
C282 C283 1.358 . S
C282 C284 1.356 . S
C282 H336 0.930 . S
C283 N281 1.279 . S
C283 C282 1.358 . S
C283 H287 0.930 . S
C284 C282 1.356 . S
C284 C285 1.348 . S
C285 C280 1.353 . S
C285 C284 1.348 . S
C285 H337 0.929 . S
H286 C280 0.930 . S
H287 C283 0.930 . S
C288 N289 1.314 . S
C288 C290 1.353 . S
C288 H294 0.930 . S
N289 Li265 1.990 1_545 S
N289 C288 1.314 . S
N289 C292 1.279 . S
C290 C288 1.353 . S
C290 C293 1.348 . S
C290 H338 0.929 . S
C291 C292 1.358 . S
C291 C293 1.356 . S
C291 H339 0.930 . S
C292 N289 1.279 . S
C292 C291 1.358 . S
C292 H295 0.930 . S
C293 C290 1.348 . S
C293 C291 1.356 . S
H294 C288 0.930 . S
H295 C292 0.930 . S
C296 C298 1.348 . S
C296 C299 1.356 . S
C296 O326 1.325 . S
N297 C300 1.314 . S
N297 C301 1.279 . S
C298 C296 1.348 . S
C298 C300 1.353 . S
C298 H340 0.929 . S
C299 C296 1.356 . S
C299 C301 1.358 . S
C299 H341 0.930 . S
C300 N297 1.314 . S
C300 C298 1.353 . S
C300 H342 0.930 . S
C301 N297 1.279 . S
C301 C299 1.358 . S
C301 H343 0.930 . S
C302 C303 1.348 . S
C302 C304 1.356 1_565 S
C302 O327 1.325 . S
C303 C302 1.348 . S
C303 C305 1.353 1_565 S
C303 H344 0.929 . S
C304 C302 1.356 1_545 S
C304 C306 1.358 . S
C304 H345 0.930 . S
C305 C303 1.353 1_545 S
C305 N307 1.314 . S
C305 H346 0.930 . S
C306 C304 1.358 . S
C306 N307 1.279 . S
C306 H347 0.930 . S
N307 C305 1.314 . S
N307 C306 1.279 . S
C308 C310 1.353 . S
C308 N311 1.314 . S
C308 H314 0.930 . S
C309 N311 1.279 . S
C309 C312 1.358 . S
C309 H315 0.930 . S
C310 C308 1.353 . S
C310 C313 1.348 . S
C310 H348 0.929 . S
N311 Li266 1.990 . S
N311 C308 1.314 . S
N311 C309 1.279 . S
C312 C309 1.358 . S
C312 C313 1.356 . S
C312 H349 0.930 . S
C313 C310 1.348 . S
C313 C312 1.356 . S
H314 C308 0.930 . S
H315 C309 0.930 . S
C316 N317 1.314 . S
C316 C318 1.353 . S
C316 H322 0.930 . S
N317 Li267 1.990 . S
N317 C316 1.314 . S
N317 C320 1.279 . S
C318 C316 1.353 . S
C318 C321 1.348 . S
C318 H350 0.929 . S
C319 C320 1.358 . S
C319 C321 1.356 . S
C319 H351 0.930 . S
C320 N317 1.279 . S
C320 C319 1.358 . S
C320 H323 0.930 . S
C321 C318 1.348 . S
C321 C319 1.356 . S
H322 C316 0.930 . S
H323 C320 0.930 . S
O324 Li264 1.956 . S
O324 Li265 1.970 . S
O324 Li266 1.961 . S
O324 C268 1.325 . S
O325 Li264 1.970 . S
O325 Li265 1.956 . S
O325 Li267 1.961 . S
O325 C274 1.325 . S
O326 Li264 1.961 . S
O326 Li266 1.956 . S
O326 Li267 1.970 . S
O326 C296 1.325 . S
O327 Li265 1.961 . S
O327 Li266 1.970 . S
O327 Li267 1.956 . S
O327 C302 1.325 . S
H328 C270 0.929 . S
H329 C271 0.930 . S
H330 C272 0.930 1_545 S
H331 C273 0.930 . S
H332 C275 0.930 . S
H333 C277 0.929 . S
H334 C278 0.930 . S
H335 C279 0.930 . S
H336 C282 0.930 . S
H337 C285 0.929 . S
H338 C290 0.929 . S
H339 C291 0.930 . S
H340 C298 0.929 . S
H341 C299 0.930 . S
H342 C300 0.930 . S
H343 C301 0.930 . S
H344 C303 0.929 . S
H345 C304 0.930 . S
H346 C305 0.930 . S
H347 C306 0.930 . S
H348 C310 0.929 . S
H349 C312 0.930 . S
H350 C318 0.929 . S
H351 C319 0.930 . S
Li352 N369 1.990 . S
Li352 O412 1.956 . S
Li352 O413 1.970 . S
Li352 O414 1.961 . S
Li353 N377 1.990 1_455 S
Li353 O412 1.970 . S
Li353 O413 1.956 . S
Li353 O415 1.961 . S
Li354 N399 1.990 . S
Li354 O412 1.961 . S
Li354 O414 1.956 . S
Li354 O415 1.970 . S
Li355 N405 1.990 . S
Li355 O413 1.961 . S
Li355 O414 1.970 . S
Li355 O415 1.956 . S
C356 C358 1.348 . S
C356 C359 1.356 . S
C356 O412 1.325 . S
N357 C360 1.314 . S
N357 C361 1.279 . S
C358 C356 1.348 . S
C358 C360 1.353 . S
C358 H416 0.929 . S
C359 C356 1.356 . S
C359 C361 1.358 . S
C359 H417 0.930 . S
C360 N357 1.314 . S
C360 C358 1.353 . S
C360 H418 0.930 1_455 S
C361 N357 1.279 . S
C361 C359 1.358 . S
C361 H419 0.930 . S
C362 C365 1.348 . S
C362 C366 1.356 . S
C362 O413 1.325 . S
C363 N364 1.279 . S
C363 C366 1.358 . S
C363 H420 0.930 . S
N364 C363 1.279 . S
N364 C367 1.314 . S
C365 C362 1.348 . S
C365 C367 1.353 . S
C365 H421 0.929 . S
C366 C362 1.356 . S
C366 C363 1.358 . S
C366 H422 0.930 . S
C367 N364 1.314 . S
C367 C365 1.353 . S
C367 H423 0.930 . S
C368 N369 1.314 . S
C368 C373 1.353 . S
C368 H374 0.930 . S
N369 Li352 1.990 . S
N369 C368 1.314 . S
N369 C371 1.279 . S
C370 C371 1.358 . S
C370 C372 1.356 . S
C370 H424 0.930 . S
C371 N369 1.279 . S
C371 C370 1.358 . S
C371 H375 0.930 . S
C372 C370 1.356 . S
C372 C373 1.348 . S
C373 C368 1.353 . S
C373 C372 1.348 . S
C373 H425 0.929 . S
H374 C368 0.930 . S
H375 C371 0.930 . S
C376 N377 1.314 . S
C376 C378 1.353 . S
C376 H382 0.930 . S
N377 Li353 1.990 1_655 S
N377 C376 1.314 . S
N377 C380 1.279 . S
C378 C376 1.353 . S
C378 C381 1.348 . S
C378 H426 0.929 . S
C379 C380 1.358 . S
C379 C381 1.356 . S
C379 H427 0.930 . S
C380 N377 1.279 . S
C380 C379 1.358 . S
C380 H383 0.930 . S
C381 C378 1.348 . S
C381 C379 1.356 . S
H382 C376 0.930 . S
H383 C380 0.930 . S
C384 C386 1.348 . S
C384 C387 1.356 . S
C384 O414 1.325 . S
N385 C388 1.314 . S
N385 C389 1.279 . S
C386 C384 1.348 . S
C386 C388 1.353 . S
C386 H428 0.929 . S
C387 C384 1.356 . S
C387 C389 1.358 . S
C387 H429 0.930 . S
C388 N385 1.314 . S
C388 C386 1.353 . S
C388 H430 0.930 . S
C389 N385 1.279 . S
C389 C387 1.358 . S
C389 H431 0.930 . S
C390 C391 1.348 . S
C390 C392 1.356 1_455 S
C390 O415 1.325 . S
C391 C390 1.348 . S
C391 C393 1.353 1_455 S
C391 H432 0.929 . S
C392 C390 1.356 1_655 S
C392 C394 1.358 . S
C392 H433 0.930 . S
C393 C391 1.353 1_655 S
C393 N395 1.314 . S
C393 H434 0.930 . S
C394 C392 1.358 . S
C394 N395 1.279 . S
C394 H435 0.930 . S
N395 C393 1.314 . S
N395 C394 1.279 . S
C396 C398 1.353 . S
C396 N399 1.314 . S
C396 H402 0.930 . S
C397 N399 1.279 . S
C397 C400 1.358 . S
C397 H403 0.930 . S
C398 C396 1.353 . S
C398 C401 1.348 . S
C398 H436 0.929 . S
N399 Li354 1.990 . S
N399 C396 1.314 . S
N399 C397 1.279 . S
C400 C397 1.358 . S
C400 C401 1.356 . S
C400 H437 0.930 . S
C401 C398 1.348 . S
C401 C400 1.356 . S
H402 C396 0.930 . S
H403 C397 0.930 . S
C404 N405 1.314 . S
C404 C406 1.353 . S
C404 H410 0.930 . S
N405 Li355 1.990 . S
N405 C404 1.314 . S
N405 C408 1.279 . S
C406 C404 1.353 . S
C406 C409 1.348 . S
C406 H438 0.929 . S
C407 C408 1.358 . S
C407 C409 1.356 . S
C407 H439 0.930 . S
C408 N405 1.279 . S
C408 C407 1.358 . S
C408 H411 0.930 . S
C409 C406 1.348 . S
C409 C407 1.356 . S
H410 C404 0.930 . S
H411 C408 0.930 . S
O412 Li352 1.956 . S
O412 Li353 1.970 . S
O412 Li354 1.961 . S
O412 C356 1.325 . S
O413 Li352 1.970 . S
O413 Li353 1.956 . S
O413 Li355 1.961 . S
O413 C362 1.325 . S
O414 Li352 1.961 . S
O414 Li354 1.956 . S
O414 Li355 1.970 . S
O414 C384 1.325 . S
O415 Li353 1.961 . S
O415 Li354 1.970 . S
O415 Li355 1.956 . S
O415 C390 1.325 . S
H416 C358 0.929 . S
H417 C359 0.930 . S
H418 C360 0.930 1_655 S
H419 C361 0.930 . S
H420 C363 0.930 . S
H421 C365 0.929 . S
H422 C366 0.930 . S
H423 C367 0.930 . S
H424 C370 0.930 . S
H425 C373 0.929 . S
H426 C378 0.929 . S
H427 C379 0.930 . S
H428 C386 0.929 . S
H429 C387 0.930 . S
H430 C388 0.930 . S
H431 C389 0.930 . S
H432 C391 0.929 . S
H433 C392 0.930 . S
H434 C393 0.930 . S
H435 C394 0.930 . S
H436 C398 0.929 . S
H437 C400 0.930 . S
H438 C406 0.929 . S
H439 C407 0.930 . S
Li440 N457 1.990 . S
Li440 O500 1.956 . S
Li440 O501 1.970 . S
Li440 O502 1.961 . S
Li441 N465 1.990 . S
Li441 O500 1.970 . S
Li441 O501 1.956 . S
Li441 O503 1.961 . S
Li442 N487 1.990 . S
Li442 O500 1.961 . S
Li442 O502 1.956 . S
Li442 O503 1.970 . S
Li443 N493 1.990 . S
Li443 O501 1.961 . S
Li443 O502 1.970 . S
Li443 O503 1.956 . S
C444 C446 1.348 . S
C444 C447 1.356 . S
C444 O500 1.325 . S
N445 C448 1.314 . S
N445 C449 1.279 . S
C446 C444 1.348 . S
C446 C448 1.353 . S
C446 H504 0.929 . S
C447 C444 1.356 . S
C447 C449 1.358 . S
C447 H505 0.930 . S
C448 N445 1.314 . S
C448 C446 1.353 . S
C448 H506 0.930 . S
C449 N445 1.279 . S
C449 C447 1.358 . S
C449 H507 0.930 . S
C450 C453 1.348 . S
C450 C454 1.356 . S
C450 O501 1.325 . S
C451 N452 1.279 . S
C451 C454 1.358 . S
C451 H508 0.930 . S
N452 C451 1.279 . S
N452 C455 1.314 . S
C453 C450 1.348 . S
C453 C455 1.353 . S
C453 H509 0.929 . S
C454 C450 1.356 . S
C454 C451 1.358 . S
C454 H510 0.930 . S
C455 N452 1.314 . S
C455 C453 1.353 . S
C455 H511 0.930 . S
C456 N457 1.314 . S
C456 C461 1.353 . S
C456 H462 0.930 . S
N457 Li440 1.990 . S
N457 C456 1.314 . S
N457 C459 1.279 . S
C458 C459 1.358 . S
C458 C460 1.356 . S
C458 H512 0.930 . S
C459 N457 1.279 . S
C459 C458 1.358 . S
C459 H463 0.930 . S
C460 C458 1.356 . S
C460 C461 1.348 . S
C461 C456 1.353 . S
C461 C460 1.348 . S
C461 H513 0.929 . S
H462 C456 0.930 . S
H463 C459 0.930 . S
C464 N465 1.314 . S
C464 C466 1.353 . S
C464 H470 0.930 . S
N465 Li441 1.990 . S
N465 C464 1.314 . S
N465 C468 1.279 . S
C466 C464 1.353 . S
C466 C469 1.348 . S
C466 H514 0.929 . S
C467 C468 1.358 . S
C467 C469 1.356 . S
C467 H515 0.930 . S
C468 N465 1.279 . S
C468 C467 1.358 . S
C468 H471 0.930 . S
C469 C466 1.348 . S
C469 C467 1.356 . S
H470 C464 0.930 . S
H471 C468 0.930 . S
C472 C474 1.348 . S
C472 C475 1.356 . S
C472 O502 1.325 . S
N473 C476 1.314 . S
N473 C477 1.279 . S
C474 C472 1.348 . S
C474 C476 1.353 . S
C474 H516 0.929 . S
C475 C472 1.356 . S
C475 C477 1.358 . S
C475 H517 0.930 . S
C476 N473 1.314 . S
C476 C474 1.353 . S
C476 H518 0.930 . S
C477 N473 1.279 . S
C477 C475 1.358 . S
C477 H519 0.930 . S
C478 C479 1.348 . S
C478 C480 1.356 . S
C478 O503 1.325 . S
C479 C478 1.348 . S
C479 C481 1.353 . S
C479 H520 0.929 . S
C480 C478 1.356 . S
C480 C482 1.358 . S
C480 H521 0.930 . S
C481 C479 1.353 . S
C481 N483 1.314 . S
C481 H522 0.930 . S
C482 C480 1.358 . S
C482 N483 1.279 . S
C482 H523 0.930 . S
N483 C481 1.314 . S
N483 C482 1.279 . S
C484 C486 1.353 . S
C484 N487 1.314 . S
C484 H490 0.930 . S
C485 N487 1.279 . S
C485 C488 1.358 . S
C485 H491 0.930 . S
C486 C484 1.353 . S
C486 C489 1.348 . S
C486 H524 0.929 . S
N487 Li442 1.990 . S
N487 C484 1.314 . S
N487 C485 1.279 . S
C488 C485 1.358 . S
C488 C489 1.356 . S
C488 H525 0.930 . S
C489 C486 1.348 . S
C489 C488 1.356 . S
H490 C484 0.930 . S
H491 C485 0.930 . S
C492 N493 1.314 . S
C492 C494 1.353 . S
C492 H498 0.930 . S
N493 Li443 1.990 . S
N493 C492 1.314 . S
N493 C496 1.279 . S
C494 C492 1.353 . S
C494 C497 1.348 . S
C494 H526 0.929 . S
C495 C496 1.358 . S
C495 C497 1.356 . S
C495 H527 0.930 . S
C496 N493 1.279 . S
C496 C495 1.358 . S
C496 H499 0.930 . S
C497 C494 1.348 . S
C497 C495 1.356 . S
H498 C492 0.930 . S
H499 C496 0.930 . S
O500 Li440 1.956 . S
O500 Li441 1.970 . S
O500 Li442 1.961 . S
O500 C444 1.325 . S
O501 Li440 1.970 . S
O501 Li441 1.956 . S
O501 Li443 1.961 . S
O501 C450 1.325 . S
O502 Li440 1.961 . S
O502 Li442 1.956 . S
O502 Li443 1.970 . S
O502 C472 1.325 . S
O503 Li441 1.961 . S
O503 Li442 1.970 . S
O503 Li443 1.956 . S
O503 C478 1.325 . S
H504 C446 0.929 . S
H505 C447 0.930 . S
H506 C448 0.930 . S
H507 C449 0.930 . S
H508 C451 0.930 . S
H509 C453 0.929 . S
H510 C454 0.930 . S
H511 C455 0.930 . S
H512 C458 0.930 . S
H513 C461 0.929 . S
H514 C466 0.929 . S
H515 C467 0.930 . S
H516 C474 0.929 . S
H517 C475 0.930 . S
H518 C476 0.930 . S
H519 C477 0.930 . S
H520 C479 0.929 . S
H521 C480 0.930 . S
H522 C481 0.930 . S
H523 C482 0.930 . S
H524 C486 0.929 . S
H525 C488 0.930 . S
H526 C494 0.929 . S
H527 C495 0.930 . S
Li528 N545 1.990 . S
Li528 O588 1.956 . S
Li528 O589 1.970 . S
Li528 O590 1.961 . S
Li529 N553 1.990 . S
Li529 O588 1.970 . S
Li529 O589 1.956 . S
Li529 O591 1.961 . S
Li530 N575 1.990 1_655 S
Li530 O588 1.961 . S
Li530 O590 1.956 . S
Li530 O591 1.970 . S
Li531 N581 1.990 . S
Li531 O589 1.961 . S
Li531 O590 1.970 . S
Li531 O591 1.956 . S
C532 C534 1.348 . S
C532 C535 1.356 . S
C532 O588 1.325 . S
N533 C536 1.314 1_554 S
N533 C537 1.279 1_554 S
C534 C532 1.348 . S
C534 C536 1.353 . S
C534 H592 0.929 . S
C535 C532 1.356 . S
C535 C537 1.358 . S
C535 H593 0.930 . S
C536 N533 1.314 1_556 S
C536 C534 1.353 . S
C536 H594 0.930 1_556 S
C537 N533 1.279 1_556 S
C537 C535 1.358 . S
C537 H595 0.930 1_556 S
C538 C541 1.348 . S
C538 C542 1.356 . S
C538 O589 1.325 . S
C539 N540 1.279 . S
C539 C542 1.358 . S
C539 H596 0.930 . S
N540 C539 1.279 . S
N540 C543 1.314 . S
C541 C538 1.348 . S
C541 C543 1.353 . S
C541 H597 0.929 . S
C542 C538 1.356 . S
C542 C539 1.358 . S
C542 H598 0.930 . S
C543 N540 1.314 . S
C543 C541 1.353 . S
C543 H599 0.930 . S
C544 N545 1.314 . S
C544 C549 1.353 . S
C544 H550 0.930 . S
N545 Li528 1.990 . S
N545 C544 1.314 . S
N545 C547 1.279 . S
C546 C547 1.358 . S
C546 C548 1.356 . S
C546 H600 0.930 . S
C547 N545 1.279 . S
C547 C546 1.358 . S
C547 H551 0.930 . S
C548 C546 1.356 . S
C548 C549 1.348 . S
C549 C544 1.353 . S
C549 C548 1.348 . S
C549 H601 0.929 . S
H550 C544 0.930 . S
H551 C547 0.930 . S
C552 N553 1.314 . S
C552 C554 1.353 . S
C552 H558 0.930 . S
N553 Li529 1.990 . S
N553 C552 1.314 . S
N553 C556 1.279 . S
C554 C552 1.353 . S
C554 C557 1.348 . S
C554 H602 0.980 . S
C555 C556 1.358 . S
C555 C557 1.356 . S
C555 H603 0.930 . S
C556 N553 1.279 . S
C556 C555 1.358 . S
C556 H559 0.930 . S
C557 C554 1.348 . S
C557 C555 1.356 . S
H558 C552 0.930 . S
H559 C556 0.930 . S
C560 C562 1.348 . S
C560 C563 1.356 . S
C560 O590 1.325 . S
N561 C564 1.314 . S
N561 C565 1.279 . S
C562 C560 1.348 . S
C562 C564 1.353 . S
C562 H604 0.929 . S
C563 C560 1.356 . S
C563 C565 1.358 . S
C563 H605 0.930 . S
C564 N561 1.314 . S
C564 C562 1.353 . S
C564 H606 0.930 . S
C565 N561 1.279 . S
C565 C563 1.358 . S
C565 H607 0.930 . S
C566 C567 1.348 1_655 S
C566 C568 1.356 . S
C566 O591 1.325 . S
C567 C566 1.348 1_455 S
C567 C569 1.353 . S
C567 H608 0.929 . S
C568 C566 1.356 . S
C568 C570 1.358 1_655 S
C568 H609 0.930 . S
C569 C567 1.353 . S
C569 N571 1.314 . S
C569 H610 0.930 . S
C570 C568 1.358 1_455 S
C570 N571 1.279 . S
C570 H611 0.930 . S
N571 C569 1.314 . S
N571 C570 1.279 . S
C572 C574 1.353 . S
C572 N575 1.314 . S
C572 H578 0.930 . S
C573 N575 1.279 . S
C573 C576 1.358 . S
C573 H579 0.930 . S
C574 C572 1.353 . S
C574 C577 1.348 . S
C574 H612 0.929 . S
N575 Li530 1.990 1_455 S
N575 C572 1.314 . S
N575 C573 1.279 . S
C576 C573 1.358 . S
C576 C577 1.356 . S
C576 H613 0.930 . S
C577 C574 1.348 . S
C577 C576 1.356 . S
H578 C572 0.930 . S
H579 C573 0.930 . S
C580 N581 1.314 . S
C580 C582 1.353 . S
C580 H586 0.930 . S
N581 Li531 1.990 . S
N581 C580 1.314 . S
N581 C584 1.279 . S
C582 C580 1.353 . S
C582 C585 1.348 . S
C582 H614 0.929 . S
C583 C584 1.358 . S
C583 C585 1.356 . S
C583 H615 0.930 . S
C584 N581 1.279 . S
C584 C583 1.358 . S
C584 H587 0.930 . S
C585 C582 1.348 . S
C585 C583 1.356 . S
H586 C580 0.930 . S
H587 C584 0.930 . S
O588 Li528 1.956 . S
O588 Li529 1.970 . S
O588 Li530 1.961 . S
O588 C532 1.325 . S
O589 Li528 1.970 . S
O589 Li529 1.956 . S
O589 Li531 1.961 . S
O589 C538 1.325 . S
O590 Li528 1.961 . S
O590 Li530 1.956 . S
O590 Li531 1.970 . S
O590 C560 1.325 . S
O591 Li529 1.961 . S
O591 Li530 1.970 . S
O591 Li531 1.956 . S
O591 C566 1.325 . S
H592 C534 0.929 . S
H593 C535 0.930 . S
H594 C536 0.930 1_554 S
H595 C537 0.930 1_554 S
H596 C539 0.930 . S
H597 C541 0.929 . S
H598 C542 0.930 . S
H599 C543 0.930 . S
H600 C546 0.930 . S
H601 C549 0.929 . S
H602 C554 0.980 . S
H603 C555 0.930 . S
H604 C562 0.929 . S
H605 C563 0.930 . S
H606 C564 0.930 . S
H607 C565 0.930 . S
H608 C567 0.929 . S
H609 C568 0.930 . S
H610 C569 0.930 . S
H611 C570 0.930 . S
H612 C574 0.929 . S
H613 C576 0.930 . S
H614 C582 0.929 . S
H615 C583 0.930 . S
Li616 N633 1.990 . S
Li616 O676 1.956 . S
Li616 O677 1.970 . S
Li616 O678 1.961 . S
Li617 N641 1.990 . S
Li617 O676 1.970 . S
Li617 O677 1.956 . S
Li617 O679 1.961 . S
Li618 N663 1.990 . S
Li618 O676 1.961 . S
Li618 O678 1.956 . S
Li618 O679 1.970 . S
Li619 N669 1.990 . S
Li619 O677 1.961 . S
Li619 O678 1.970 . S
Li619 O679 1.956 . S
C620 C622 1.348 . S
C620 C623 1.356 . S
C620 O676 1.325 . S
N621 C624 1.314 . S
N621 C625 1.279 . S
C622 C620 1.348 . S
C622 C624 1.353 . S
C622 H680 0.929 . S
C623 C620 1.356 . S
C623 C625 1.358 . S
C623 H681 0.930 . S
C624 N621 1.314 . S
C624 C622 1.353 . S
C624 H682 0.930 . S
C625 N621 1.279 . S
C625 C623 1.358 . S
C625 H683 0.930 . S
C626 C629 1.348 . S
C626 C630 1.356 . S
C626 O677 1.325 . S
C627 N628 1.279 1_556 S
C627 C630 1.358 . S
C627 H684 0.930 1_556 S
N628 C627 1.279 1_554 S
N628 C631 1.314 1_554 S
C629 C626 1.348 . S
C629 C631 1.353 . S
C629 H685 0.929 . S
C630 C626 1.356 . S
C630 C627 1.358 . S
C630 H686 0.930 . S
C631 N628 1.314 1_556 S
C631 C629 1.353 . S
C631 H687 0.930 . S
C632 N633 1.314 . S
C632 C637 1.353 . S
C632 H638 0.930 . S
N633 Li616 1.990 . S
N633 C632 1.314 . S
N633 C635 1.279 . S
C634 C635 1.358 . S
C634 C636 1.356 . S
C634 H688 0.930 . S
C635 N633 1.279 . S
C635 C634 1.358 . S
C635 H639 0.930 . S
C636 C634 1.356 . S
C636 C637 1.348 . S
C637 C632 1.353 . S
C637 C636 1.348 . S
C637 H689 0.929 . S
H638 C632 0.930 . S
H639 C635 0.930 . S
C640 N641 1.314 . S
C640 C642 1.353 . S
C640 H646 0.930 . S
N641 Li617 1.990 . S
N641 C640 1.314 . S
N641 C644 1.279 . S
C642 C640 1.353 . S
C642 C645 1.348 . S
C642 H690 0.929 . S
C643 C644 1.358 . S
C643 C645 1.356 . S
C643 H691 0.930 . S
C644 N641 1.279 . S
C644 C643 1.358 . S
C644 H647 0.930 . S
C645 C642 1.348 . S
C645 C643 1.356 . S
H646 C640 0.930 . S
H647 C644 0.930 . S
C648 C650 1.348 . S
C648 C651 1.356 . S
C648 O678 1.325 . S
N649 C652 1.314 . S
N649 C653 1.279 . S
C650 C648 1.348 . S
C650 C652 1.353 . S
C650 H692 0.929 . S
C651 C648 1.356 . S
C651 C653 1.358 . S
C651 H693 0.930 . S
C652 N649 1.314 . S
C652 C650 1.353 . S
C652 H694 0.930 . S
C653 N649 1.279 . S
C653 C651 1.358 . S
C653 H695 0.930 . S
C654 C655 1.348 . S
C654 C656 1.356 . S
C654 O679 1.325 . S
C655 C654 1.348 . S
C655 C657 1.353 . S
C655 H696 0.929 . S
C656 C654 1.356 . S
C656 C658 1.358 . S
C656 H697 0.930 . S
C657 C655 1.353 . S
C657 N659 1.314 . S
C657 H698 0.930 . S
C658 C656 1.358 . S
C658 N659 1.279 . S
C658 H699 0.930 . S
N659 C657 1.314 . S
N659 C658 1.279 . S
C660 C662 1.353 . S
C660 N663 1.314 . S
C660 H666 0.930 . S
C661 N663 1.279 . S
C661 C664 1.358 . S
C661 H667 0.930 . S
C662 C660 1.353 . S
C662 C665 1.348 . S
C662 H700 0.929 . S
N663 Li618 1.990 . S
N663 C660 1.314 . S
N663 C661 1.279 . S
C664 C661 1.358 . S
C664 C665 1.356 . S
C664 H701 0.930 . S
C665 C662 1.348 . S
C665 C664 1.356 . S
H666 C660 0.930 . S
H667 C661 0.930 . S
C668 N669 1.314 . S
C668 C670 1.353 . S
C668 H674 0.930 . S
N669 Li619 1.990 . S
N669 C668 1.314 . S
N669 C672 1.279 . S
C670 C668 1.353 . S
C670 C673 1.348 . S
C670 H702 0.929 . S
C671 C672 1.358 . S
C671 C673 1.356 . S
C671 H703 0.930 . S
C672 N669 1.279 . S
C672 C671 1.358 . S
C672 H675 0.930 . S
C673 C670 1.348 . S
C673 C671 1.356 . S
H674 C668 0.930 . S
H675 C672 0.930 . S
O676 Li616 1.956 . S
O676 Li617 1.970 . S
O676 Li618 1.961 . S
O676 C620 1.325 . S
O677 Li616 1.970 . S
O677 Li617 1.956 . S
O677 Li619 1.961 . S
O677 C626 1.325 . S
O678 Li616 1.961 . S
O678 Li618 1.956 . S
O678 Li619 1.970 . S
O678 C648 1.325 . S
O679 Li617 1.961 . S
O679 Li618 1.970 . S
O679 Li619 1.956 . S
O679 C654 1.325 . S
H680 C622 0.929 . S
H681 C623 0.930 . S
H682 C624 0.930 . S
H683 C625 0.930 . S
H684 C627 0.930 1_554 S
H685 C629 0.929 . S
H686 C630 0.930 . S
H687 C631 0.930 . S
H688 C634 0.930 . S
H689 C637 0.929 . S
H690 C642 0.929 . S
H691 C643 0.930 . S
H692 C650 0.929 . S
H693 C651 0.930 . S
H694 C652 0.930 . S
H695 C653 0.930 . S
H696 C655 0.929 . S
H697 C656 0.930 . S
H698 C657 0.930 . S
H699 C658 0.930 . S
H700 C662 0.929 . S
H701 C664 0.930 . S
H702 C670 0.929 . S
H703 C671 0.930 . S
Li704 N721 1.990 . S
Li704 O764 1.956 . S
Li704 O765 1.970 . S
Li704 O766 1.961 . S
Li705 N729 1.990 . S
Li705 O764 1.970 . S
Li705 O765 1.956 . S
Li705 O767 1.961 . S
Li706 N751 1.990 1_545 S
Li706 O764 1.961 . S
Li706 O766 1.956 . S
Li706 O767 1.970 . S
Li707 N757 1.990 . S
Li707 O765 1.961 . S
Li707 O766 1.970 . S
Li707 O767 1.956 . S
C708 C710 1.348 . S
C708 C711 1.356 . S
C708 O764 1.325 . S
N709 C712 1.314 . S
N709 C713 1.279 . S
C710 C708 1.348 . S
C710 C712 1.353 . S
C710 H768 0.929 . S
C711 C708 1.356 . S
C711 C713 1.358 . S
C711 H769 0.930 . S
C712 N709 1.314 . S
C712 C710 1.353 . S
C712 H770 0.930 . S
C713 N709 1.279 . S
C713 C711 1.358 . S
C713 H771 0.930 . S
C714 C717 1.348 . S
C714 C718 1.356 . S
C714 O765 1.325 . S
C715 N716 1.279 . S
C715 C718 1.358 . S
C715 H772 0.930 . S
N716 C715 1.279 . S
N716 C719 1.314 . S
C717 C714 1.348 . S
C717 C719 1.353 . S
C717 H773 0.929 . S
C718 C714 1.356 . S
C718 C715 1.358 . S
C718 H774 0.930 . S
C719 N716 1.314 . S
C719 C717 1.353 . S
C719 H775 0.930 . S
C720 N721 1.314 . S
C720 C725 1.353 . S
C720 H726 0.930 . S
N721 Li704 1.990 . S
N721 C720 1.314 . S
N721 C723 1.279 . S
C722 C723 1.358 . S
C722 C724 1.356 . S
C722 H776 0.930 . S
C723 N721 1.279 . S
C723 C722 1.358 . S
C723 H727 0.930 . S
C724 C722 1.356 . S
C724 C725 1.348 . S
C725 C720 1.353 . S
C725 C724 1.348 . S
C725 H777 0.929 . S
H726 C720 0.930 . S
H727 C723 0.930 . S
C728 N729 1.314 . S
C728 C730 1.353 . S
C728 H734 0.930 . S
N729 Li705 1.990 . S
N729 C728 1.314 . S
N729 C732 1.279 . S
C730 C728 1.353 . S
C730 C733 1.348 . S
C730 H778 0.929 . S
C731 C732 1.358 . S
C731 C733 1.356 . S
C731 H779 0.930 . S
C732 N729 1.279 . S
C732 C731 1.358 . S
C732 H735 0.930 . S
C733 C730 1.348 . S
C733 C731 1.356 . S
H734 C728 0.930 . S
H735 C732 0.930 . S
C736 C738 1.348 1_545 S
C736 C739 1.356 1_545 S
C736 O766 1.325 . S
N737 C740 1.314 . S
N737 C741 1.279 . S
C738 C736 1.348 1_565 S
C738 C740 1.353 . S
C738 H780 0.929 . S
C739 C736 1.356 1_565 S
C739 C741 1.358 . S
C739 H781 0.930 . S
C740 N737 1.314 . S
C740 C738 1.353 . S
C740 H782 0.930 . S
C741 N737 1.279 . S
C741 C739 1.358 . S
C741 H783 0.930 . S
C742 C743 1.348 . S
C742 C744 1.356 . S
C742 O767 1.325 . S
C743 C742 1.348 . S
C743 C745 1.353 . S
C743 H784 0.929 1_545 S
C744 C742 1.356 . S
C744 C746 1.360 1_556 S
C744 H785 0.930 . S
C745 C743 1.353 . S
C745 N747 1.314 1_556 S
C745 H786 0.930 1_545 S
C746 C744 1.360 1_554 S
C746 N747 1.279 . S
C746 H787 0.929 . S
N747 C745 1.314 1_554 S
N747 C746 1.279 . S
C748 C750 1.353 . S
C748 N751 1.314 . S
C748 H754 0.930 . S
C749 N751 1.279 . S
C749 C752 1.358 . S
C749 H755 0.930 . S
C750 C748 1.353 . S
C750 C753 1.348 . S
C750 H788 0.929 . S
N751 Li706 1.990 1_565 S
N751 C748 1.314 . S
N751 C749 1.279 . S
C752 C749 1.358 . S
C752 C753 1.356 . S
C752 H789 0.930 . S
C753 C750 1.348 . S
C753 C752 1.356 . S
H754 C748 0.930 . S
H755 C749 0.930 . S
C756 N757 1.314 . S
C756 C758 1.353 . S
C756 H762 0.930 . S
N757 Li707 1.990 . S
N757 C756 1.314 . S
N757 C760 1.279 . S
C758 C756 1.353 . S
C758 C761 1.348 . S
C758 H790 0.929 . S
C759 C760 1.358 . S
C759 C761 1.356 . S
C759 H791 0.930 . S
C760 N757 1.279 . S
C760 C759 1.358 . S
C760 H763 0.930 . S
C761 C758 1.348 . S
C761 C759 1.356 . S
H762 C756 0.930 . S
H763 C760 0.930 . S
O764 Li704 1.956 . S
O764 Li705 1.970 . S
O764 Li706 1.961 . S
O764 C708 1.325 . S
O765 Li704 1.970 . S
O765 Li705 1.956 . S
O765 Li707 1.961 . S
O765 C714 1.325 . S
O766 Li704 1.961 . S
O766 Li706 1.956 . S
O766 Li707 1.970 . S
O766 C736 1.325 . S
O767 Li705 1.961 . S
O767 Li706 1.970 . S
O767 Li707 1.956 . S
O767 C742 1.325 . S
H768 C710 0.929 . S
H769 C711 0.930 . S
H770 C712 0.930 . S
H771 C713 0.930 . S
H772 C715 0.930 . S
H773 C717 0.929 . S
H774 C718 0.930 . S
H775 C719 0.930 . S
H776 C722 0.930 . S
H777 C725 0.929 . S
H778 C730 0.929 . S
H779 C731 0.930 . S
H780 C738 0.929 . S
H781 C739 0.930 . S
H782 C740 0.930 . S
H783 C741 0.930 . S
H784 C743 0.929 1_565 S
H785 C744 0.930 . S
H786 C745 0.930 1_565 S
H787 C746 0.929 . S
H788 C750 0.929 . S
H789 C752 0.930 . S
H790 C758 0.929 . S
H791 C759 0.930 . S
Li792 N809 1.990 . S
Li792 O852 1.956 . S
Li792 O853 1.970 . S
Li792 O854 1.961 . S
Li793 N817 1.990 . S
Li793 O852 1.970 . S
Li793 O853 1.956 . S
Li793 O855 1.961 . S
Li794 N839 1.990 . S
Li794 O852 1.961 . S
Li794 O854 1.956 . S
Li794 O855 1.970 . S
Li795 N845 1.990 1_545 S
Li795 O853 1.961 . S
Li795 O854 1.970 . S
Li795 O855 1.956 . S
C796 C798 1.348 . S
C796 C799 1.356 . S
C796 O852 1.325 . S
N797 C800 1.314 . S
N797 C801 1.279 . S
C798 C796 1.348 . S
C798 C800 1.353 . S
C798 H856 0.929 . S
C799 C796 1.356 . S
C799 C801 1.358 . S
C799 H857 0.930 . S
C800 N797 1.314 . S
C800 C798 1.353 . S
C800 H858 0.930 . S
C801 N797 1.279 . S
C801 C799 1.358 . S
C801 H859 0.930 . S
C802 C805 1.348 . S
C802 C806 1.356 . S
C802 O853 1.325 . S
C803 N804 1.279 . S
C803 C806 1.358 . S
C803 H860 0.930 . S
N804 C803 1.279 . S
N804 C807 1.314 . S
C805 C802 1.348 . S
C805 C807 1.353 . S
C805 H861 0.929 . S
C806 C802 1.356 . S
C806 C803 1.358 . S
C806 H862 0.930 . S
C807 N804 1.314 . S
C807 C805 1.353 . S
C807 H863 0.930 . S
C808 N809 1.314 . S
C808 C813 1.353 . S
C808 H814 0.930 . S
N809 Li792 1.990 . S
N809 C808 1.314 . S
N809 C811 1.279 . S
C810 C811 1.358 . S
C810 C812 1.356 . S
C810 H864 0.930 . S
C811 N809 1.279 . S
C811 C810 1.358 . S
C811 H815 0.930 . S
C812 C810 1.356 . S
C812 C813 1.348 . S
C813 C808 1.353 . S
C813 C812 1.348 . S
C813 H865 0.929 . S
H814 C808 0.930 . S
H815 C811 0.930 . S
C816 N817 1.314 . S
C816 C818 1.353 . S
C816 H822 0.930 . S
N817 Li793 1.990 . S
N817 C816 1.314 . S
N817 C820 1.279 . S
C818 C816 1.353 . S
C818 C821 1.348 . S
C818 H866 0.929 . S
C819 C820 1.358 . S
C819 C821 1.356 . S
C819 H867 0.930 . S
C820 N817 1.279 . S
C820 C819 1.358 . S
C820 H823 0.930 . S
C821 C818 1.348 . S
C821 C819 1.356 . S
H822 C816 0.930 . S
H823 C820 0.930 . S
C824 C826 1.348 . S
C824 C827 1.356 . S
C824 O854 1.325 . S
N825 C828 1.314 . S
N825 C829 1.279 . S
C826 C824 1.348 . S
C826 C828 1.353 . S
C826 H868 0.929 1_545 S
C827 C824 1.356 . S
C827 C829 1.358 . S
C827 H869 0.930 . S
C828 N825 1.314 . S
C828 C826 1.353 . S
C828 H870 0.930 1_545 S
C829 N825 1.279 . S
C829 C827 1.358 . S
C829 H871 0.930 . S
C830 C831 1.348 1_545 S
C830 C832 1.356 1_545 S
C830 O855 1.325 . S
C831 C830 1.348 1_565 S
C831 C833 1.353 . S
C831 H872 0.929 . S
C832 C830 1.356 1_565 S
C832 C834 1.358 . S
C832 H873 0.930 . S
C833 C831 1.353 . S
C833 N835 1.314 . S
C833 H874 0.930 . S
C834 C832 1.358 . S
C834 N835 1.279 . S
C834 H875 0.930 . S
N835 C833 1.314 . S
N835 C834 1.279 . S
C836 C838 1.353 . S
C836 N839 1.314 . S
C836 H842 0.930 . S
C837 N839 1.279 . S
C837 C840 1.358 . S
C837 H843 0.930 . S
C838 C836 1.353 . S
C838 C841 1.348 . S
C838 H876 0.929 . S
N839 Li794 1.990 . S
N839 C836 1.314 . S
N839 C837 1.279 . S
C840 C837 1.358 . S
C840 C841 1.356 . S
C840 H877 0.930 . S
C841 C838 1.348 . S
C841 C840 1.356 . S
H842 C836 0.930 . S
H843 C837 0.930 . S
C844 N845 1.314 . S
C844 C846 1.353 . S
C844 H850 0.930 . S
N845 Li795 1.990 1_565 S
N845 C844 1.314 . S
N845 C848 1.279 . S
C846 C844 1.353 . S
C846 C849 1.348 . S
C846 H878 0.929 . S
C847 C848 1.358 . S
C847 C849 1.356 . S
C847 H879 0.930 . S
C848 N845 1.279 . S
C848 C847 1.358 . S
C848 H851 0.930 . S
C849 C846 1.348 . S
C849 C847 1.356 . S
H850 C844 0.930 . S
H851 C848 0.930 . S
O852 Li792 1.956 . S
O852 Li793 1.970 . S
O852 Li794 1.961 . S
O852 C796 1.325 . S
O853 Li792 1.970 . S
O853 Li793 1.956 . S
O853 Li795 1.961 . S
O853 C802 1.325 . S
O854 Li792 1.961 . S
O854 Li794 1.956 . S
O854 Li795 1.970 . S
O854 C824 1.325 . S
O855 Li793 1.961 . S
O855 Li794 1.970 . S
O855 Li795 1.956 . S
O855 C830 1.325 . S
H856 C798 0.929 . S
H857 C799 0.930 . S
H858 C800 0.930 . S
H859 C801 0.930 . S
H860 C803 0.930 . S
H861 C805 0.929 . S
H862 C806 0.930 . S
H863 C807 0.930 . S
H864 C810 0.930 . S
H865 C813 0.929 . S
H866 C818 0.929 . S
H867 C819 0.930 . S
H868 C826 0.929 1_565 S
H869 C827 0.930 . S
H870 C828 0.930 1_565 S
H871 C829 0.930 . S
H872 C831 0.929 . S
H873 C832 0.930 . S
H874 C833 0.930 . S
H875 C834 0.930 . S
H876 C838 0.929 . S
H877 C840 0.930 . S
H878 C846 0.929 . S
H879 C847 0.930 . S
Li880 N897 1.990 1_655 S
Li880 O940 1.956 . S
Li880 O941 1.970 . S
Li880 O942 1.961 . S
Li881 N905 1.990 . S
Li881 O940 1.970 . S
Li881 O941 1.956 . S
Li881 O943 1.961 . S
Li882 N927 1.990 . S
Li882 O940 1.961 . S
Li882 O942 1.956 . S
Li882 O943 1.970 . S
Li883 N933 1.990 . S
Li883 O941 1.961 . S
Li883 O942 1.970 . S
Li883 O943 1.956 . S
C884 C886 1.348 1_655 S
C884 C887 1.356 1_655 S
C884 O940 1.325 . S
N885 C888 1.314 . S
N885 C889 1.279 . S
C886 C884 1.348 1_455 S
C886 C888 1.353 . S
C886 H944 0.929 . S
C887 C884 1.356 1_455 S
C887 C889 1.358 . S
C887 H945 0.930 . S
C888 N885 1.314 . S
C888 C886 1.353 . S
C888 H946 0.930 . S
C889 N885 1.279 . S
C889 C887 1.358 . S
C889 H947 0.930 . S
C890 C893 1.348 . S
C890 C894 1.356 . S
C890 O941 1.325 . S
C891 N892 1.279 . S
C891 C894 1.358 . S
C891 H948 0.930 . S
N892 C891 1.279 . S
N892 C895 1.314 . S
C893 C890 1.348 . S
C893 C895 1.353 . S
C893 H949 0.929 1_655 S
C894 C890 1.356 . S
C894 C891 1.358 . S
C894 H950 0.930 . S
C895 N892 1.314 . S
C895 C893 1.353 . S
C895 H951 0.930 1_655 S
C896 N897 1.314 . S
C896 C901 1.353 . S
C896 H902 0.930 . S
N897 Li880 1.990 1_455 S
N897 C896 1.314 . S
N897 C899 1.279 . S
C898 C899 1.358 . S
C898 C900 1.356 . S
C898 H952 0.930 . S
C899 N897 1.279 . S
C899 C898 1.358 . S
C899 H903 0.930 . S
C900 C898 1.356 . S
C900 C901 1.348 . S
C901 C896 1.353 . S
C901 C900 1.348 . S
C901 H953 0.929 . S
H902 C896 0.930 . S
H903 C899 0.930 . S
C904 N905 1.314 . S
C904 C906 1.353 . S
C904 H910 0.930 . S
N905 Li881 1.990 . S
N905 C904 1.314 . S
N905 C908 1.279 . S
C906 C904 1.353 . S
C906 C909 1.348 . S
C906 H954 0.929 . S
C907 C908 1.358 . S
C907 C909 1.356 . S
C907 H955 0.930 . S
C908 N905 1.279 . S
C908 C907 1.358 . S
C908 H911 0.930 . S
C909 C906 1.348 . S
C909 C907 1.356 . S
H910 C904 0.930 . S
H911 C908 0.930 . S
C912 C914 1.348 . S
C912 C915 1.356 . S
C912 O942 1.325 . S
N913 C916 1.314 . S
N913 C917 1.279 . S
C914 C912 1.348 . S
C914 C916 1.353 . S
C914 H956 0.929 . S
C915 C912 1.356 . S
C915 C917 1.358 . S
C915 H957 0.930 . S
C916 N913 1.314 . S
C916 C914 1.353 . S
C916 H958 0.930 . S
C917 N913 1.279 . S
C917 C915 1.358 . S
C917 H959 0.930 . S
C918 C919 1.348 . S
C918 C920 1.356 . S
C918 O943 1.325 . S
C919 C918 1.348 . S
C919 C921 1.353 . S
C919 H960 0.929 . S
C920 C918 1.356 . S
C920 C922 1.358 . S
C920 H961 0.930 . S
C921 C919 1.353 . S
C921 N923 1.314 . S
C921 H962 0.930 . S
C922 C920 1.358 . S
C922 N923 1.279 . S
C922 H963 0.930 . S
N923 C921 1.314 . S
N923 C922 1.279 . S
C924 C926 1.353 . S
C924 N927 1.314 . S
C924 H930 0.930 . S
C925 N927 1.279 . S
C925 C928 1.358 . S
C925 H931 0.930 . S
C926 C924 1.353 . S
C926 C929 1.348 . S
C926 H964 0.929 . S
N927 Li882 1.990 . S
N927 C924 1.314 . S
N927 C925 1.279 . S
C928 C925 1.358 . S
C928 C929 1.356 . S
C928 H965 0.930 . S
C929 C926 1.348 . S
C929 C928 1.356 . S
H930 C924 0.930 . S
H931 C925 0.930 . S
C932 N933 1.314 . S
C932 C934 1.353 . S
C932 H938 0.930 . S
N933 Li883 1.990 . S
N933 C932 1.314 . S
N933 C936 1.279 . S
C934 C932 1.353 . S
C934 C937 1.348 . S
C934 H966 0.929 . S
C935 C936 1.358 . S
C935 C937 1.356 . S
C935 H967 0.930 . S
C936 N933 1.279 . S
C936 C935 1.358 . S
C936 H939 0.930 . S
C937 C934 1.348 . S
C937 C935 1.356 . S
H938 C932 0.930 . S
H939 C936 0.930 . S
O940 Li880 1.956 . S
O940 Li881 1.970 . S
O940 Li882 1.961 . S
O940 C884 1.325 . S
O941 Li880 1.970 . S
O941 Li881 1.956 . S
O941 Li883 1.961 . S
O941 C890 1.325 . S
O942 Li880 1.961 . S
O942 Li882 1.956 . S
O942 Li883 1.970 . S
O942 C912 1.325 . S
O943 Li881 1.961 . S
O943 Li882 1.970 . S
O943 Li883 1.956 . S
O943 C918 1.325 . S
H944 C886 0.929 . S
H945 C887 0.930 . S
H946 C888 0.930 . S
H947 C889 0.930 . S
H948 C891 0.930 . S
H949 C893 0.929 1_455 S
H950 C894 0.930 . S
H951 C895 0.930 1_455 S
H952 C898 0.930 . S
H953 C901 0.929 . S
H954 C906 0.929 . S
H955 C907 0.930 . S
H956 C914 0.929 . S
H957 C915 0.930 . S
H958 C916 0.930 . S
H959 C917 0.930 . S
H960 C919 0.929 . S
H961 C920 0.930 . S
H962 C921 0.930 . S
H963 C922 0.930 . S
H964 C926 0.929 . S
H965 C928 0.930 . S
H966 C934 0.929 . S
H967 C935 0.930 . S
Li968 N985 1.990 . S
Li968 O1028 1.956 . S
Li968 O1029 1.970 . S
Li968 O1030 1.961 . S
Li969 N993 1.990 . S
Li969 O1028 1.970 . S
Li969 O1029 1.956 . S
Li969 O1031 1.961 . S
Li970 N1015 1.990 . S
Li970 O1028 1.961 . S
Li970 O1030 1.956 . S
Li970 O1031 1.970 . S
Li971 N1021 1.990 . S
Li971 O1029 1.961 . S
Li971 O1030 1.970 . S
Li971 O1031 1.956 . S
C972 C974 1.348 . S
C972 C975 1.356 . S
C972 O1028 1.325 . S
N973 C976 1.314 . S
N973 C977 1.279 . S
C974 C972 1.348 . S
C974 C976 1.353 . S
C974 H1032 0.929 . S
C975 C972 1.356 . S
C975 C977 1.358 . S
C975 H1033 0.930 . S
C976 N973 1.314 . S
C976 C974 1.353 . S
C976 H1034 0.930 . S
C977 N973 1.279 . S
C977 C975 1.358 . S
C977 H1035 0.930 . S
C978 C981 1.348 . S
C978 C982 1.356 . S
C978 O1029 1.325 . S
C979 N980 1.279 . S
C979 C982 1.358 . S
C979 H1036 0.930 . S
N980 C979 1.279 . S
N980 C983 1.314 . S
C981 C978 1.348 . S
C981 C983 1.353 . S
C981 H1037 0.929 . S
C982 C978 1.356 . S
C982 C979 1.358 . S
C982 H1038 0.930 . S
C983 N980 1.314 . S
C983 C981 1.353 . S
C983 H1039 0.930 . S
C984 N985 1.314 . S
C984 C989 1.353 . S
C984 H990 0.930 . S
N985 Li968 1.990 . S
N985 C984 1.314 . S
N985 C987 1.279 . S
C986 C987 1.358 . S
C986 C988 1.356 . S
C986 H1040 0.930 . S
C987 N985 1.279 . S
C987 C986 1.358 . S
C987 H991 0.930 . S
C988 C986 1.356 . S
C988 C989 1.348 . S
C989 C984 1.353 . S
C989 C988 1.348 . S
C989 H1041 0.929 . S
H990 C984 0.930 . S
H991 C987 0.930 . S
C992 N993 1.314 . S
C992 C994 1.353 . S
C992 H998 0.930 . S
N993 Li969 1.990 . S
N993 C992 1.314 . S
N993 C996 1.279 . S
C994 C992 1.353 . S
C994 C997 1.348 . S
C994 H1042 0.929 . S
C995 C996 1.358 . S
C995 C997 1.356 . S
C995 H1043 0.930 . S
C996 N993 1.279 . S
C996 C995 1.358 . S
C996 H999 0.930 . S
C997 C994 1.348 . S
C997 C995 1.356 . S
H998 C992 0.930 . S
H999 C996 0.930 . S
C1000 C1002 1.348 . S
C1000 C1003 1.356 . S
C1000 O1030 1.325 . S
N1001 C1004 1.314 . S
N1001 C1005 1.279 . S
C1002 C1000 1.348 . S
C1002 C1004 1.353 . S
C1002 H1044 0.929 . S
C1003 C1000 1.356 . S
C1003 C1005 1.358 . S
C1003 H1045 0.930 . S
C1004 N1001 1.314 . S
C1004 C1002 1.353 . S
C1004 H1046 0.930 . S
C1005 N1001 1.279 . S
C1005 C1003 1.358 . S
C1005 H1047 0.930 . S
C1006 C1007 1.348 . S
C1006 C1008 1.356 . S
C1006 O1031 1.325 . S
C1007 C1006 1.348 . S
C1007 C1009 1.353 . S
C1007 H1048 0.929 . S
C1008 C1006 1.356 . S
C1008 C1010 1.358 . S
C1008 H1049 0.930 . S
C1009 C1007 1.353 . S
C1009 N1011 1.314 . S
C1009 H1050 0.930 . S
C1010 C1008 1.358 . S
C1010 N1011 1.279 . S
C1010 H1051 0.930 . S
N1011 C1009 1.314 . S
N1011 C1010 1.279 . S
C1012 C1014 1.353 . S
C1012 N1015 1.314 . S
C1012 H1018 0.930 . S
C1013 N1015 1.279 . S
C1013 C1016 1.358 . S
C1013 H1019 0.930 . S
C1014 C1012 1.353 . S
C1014 C1017 1.348 . S
C1014 H1052 0.929 . S
N1015 Li970 1.990 . S
N1015 C1012 1.314 . S
N1015 C1013 1.279 . S
C1016 C1013 1.358 . S
C1016 C1017 1.356 . S
C1016 H1053 0.930 . S
C1017 C1014 1.348 . S
C1017 C1016 1.356 . S
H1018 C1012 0.930 . S
H1019 C1013 0.930 . S
C1020 N1021 1.314 . S
C1020 C1022 1.353 . S
C1020 H1026 0.930 . S
N1021 Li971 1.990 . S
N1021 C1020 1.314 . S
N1021 C1024 1.279 . S
C1022 C1020 1.353 . S
C1022 C1025 1.348 . S
C1022 H1054 0.929 . S
C1023 C1024 1.358 . S
C1023 C1025 1.356 . S
C1023 H1055 0.930 . S
C1024 N1021 1.279 . S
C1024 C1023 1.358 . S
C1024 H1027 0.930 . S
C1025 C1022 1.348 . S
C1025 C1023 1.356 . S
H1026 C1020 0.930 . S
H1027 C1024 0.930 . S
O1028 Li968 1.956 . S
O1028 Li969 1.970 . S
O1028 Li970 1.961 . S
O1028 C972 1.325 . S
O1029 Li968 1.970 . S
O1029 Li969 1.956 . S
O1029 Li971 1.961 . S
O1029 C978 1.325 . S
O1030 Li968 1.961 . S
O1030 Li970 1.956 . S
O1030 Li971 1.970 . S
O1030 C1000 1.325 . S
O1031 Li969 1.961 . S
O1031 Li970 1.970 . S
O1031 Li971 1.956 . S
O1031 C1006 1.325 . S
H1032 C974 0.929 . S
H1033 C975 0.930 . S
H1034 C976 0.930 . S
H1035 C977 0.930 . S
H1036 C979 0.930 . S
H1037 C981 0.929 . S
H1038 C982 0.930 . S
H1039 C983 0.930 . S
H1040 C986 0.930 . S
H1041 C989 0.929 . S
H1042 C994 0.929 . S
H1043 C995 0.930 . S
H1044 C1002 0.929 . S
H1045 C1003 0.930 . S
H1046 C1004 0.930 . S
H1047 C1005 0.930 . S
H1048 C1007 0.929 . S
H1049 C1008 0.930 . S
H1050 C1009 0.930 . S
H1051 C1010 0.930 . S
H1052 C1014 0.929 . S
H1053 C1016 0.930 . S
H1054 C1022 0.929 . S
H1055 C1023 0.930 . S
H1056 C1074 0.936 1_556 S
H1057 C1076 0.951 . S
H1058 C1078 0.950 . S
H1059 C1079 0.950 . S
H1060 C1081 0.950 1_554 S
H1061 C1084 0.950 1_554 S
H1062 C1085 0.950 1_554 S
H1063 C1087 0.950 . S
H1064 C1088 0.950 . S
H1065 C1089 0.951 . S
H1066 C1091 0.951 . S
H1067 C1093 0.950 . S
H1068 C1094 0.950 . S
H1069 C1096 0.950 . S
H1070 C1099 0.950 . S
H1071 C1100 0.950 . S
H1072 C1102 0.943 1_554 S
H1073 C1103 0.914 1_554 S
C1074 H1056 0.936 1_554 S
C1074 C1075 1.366 . S
C1074 C1076 1.388 1_554 S
C1075 C1074 1.366 . S
C1075 C1079 1.385 . S
C1076 H1057 0.951 . S
C1076 C1074 1.388 1_556 S
C1076 C1077 1.366 1_556 S
C1077 C1076 1.366 1_554 S
C1077 C1078 1.414 . S
C1077 C1080 1.499 1_554 S
C1078 H1058 0.950 . S
C1078 C1077 1.414 . S
C1078 C1079 1.374 . S
C1079 H1059 0.950 . S
C1079 C1075 1.385 . S
C1079 C1078 1.374 . S
C1080 C1077 1.499 1_556 S
C1080 C1081 1.373 . S
C1080 C1082 1.389 . S
C1081 H1060 0.950 1_556 S
C1081 C1080 1.373 . S
C1081 C1097 1.377 . S
C1082 C1080 1.389 . S
C1082 C1083 1.524 . S
C1082 C1096 1.377 . S
C1083 C1082 1.524 . S
C1083 C1084 1.397 . S
C1083 C1088 1.363 . S
C1084 H1061 0.950 1_556 S
C1084 C1083 1.397 . S
C1084 C1085 1.334 . S
C1085 H1062 0.950 1_556 S
C1085 C1084 1.334 . S
C1085 C1086 1.287 . S
C1086 C1085 1.287 . S
C1086 C1087 1.524 . S
C1086 H1105 0.913 . S
C1087 H1063 0.950 . S
C1087 C1086 1.524 . S
C1087 C1088 1.415 . S
C1088 H1064 0.950 . S
C1088 C1083 1.363 . S
C1088 C1087 1.415 . S
C1089 H1065 0.951 . S
C1089 C1090 1.366 . S
C1089 C1091 1.388 . S
C1090 C1089 1.366 . S
C1090 C1094 1.385 . S
C1091 H1066 0.951 . S
C1091 C1089 1.388 . S
C1091 C1092 1.366 . S
C1092 C1091 1.366 . S
C1092 C1093 1.414 . S
C1092 C1095 1.499 . S
C1093 H1067 0.950 . S
C1093 C1092 1.414 . S
C1093 C1094 1.374 . S
C1094 H1068 0.950 . S
C1094 C1090 1.385 . S
C1094 C1093 1.374 . S
C1095 C1092 1.499 . S
C1095 C1096 1.373 . S
C1095 C1097 1.389 . S
C1096 H1069 0.950 . S
C1096 C1082 1.377 . S
C1096 C1095 1.373 . S
C1097 C1081 1.377 . S
C1097 C1095 1.389 . S
C1097 C1098 1.524 . S
C1098 C1097 1.524 . S
C1098 C1099 1.397 . S
C1098 C1103 1.400 . S
C1099 H1070 0.950 . S
C1099 C1098 1.397 . S
C1099 C1100 1.334 . S
C1100 H1071 0.950 . S
C1100 C1099 1.334 . S
C1100 C1101 1.287 . S
C1101 C1100 1.287 . S
C1101 C1102 1.532 . S
C1101 H1104 0.999 . S
C1102 H1072 0.943 1_556 S
C1102 C1101 1.532 . S
C1102 C1103 1.414 . S
C1103 H1073 0.914 1_556 S
C1103 C1098 1.400 . S
C1103 C1102 1.414 . S
H1104 C1101 0.999 . S
H1105 C1086 0.913 . S
H1106 C1124 0.951 . S
H1107 C1126 0.951 . S
H1108 C1128 0.950 . S
H1109 C1129 0.950 . S
H1110 C1131 0.950 . S
H1111 C1134 0.950 . S
H1112 C1135 0.950 . S
H1113 C1137 0.950 . S
H1114 C1138 0.950 . S
H1115 C1139 0.951 . S
H1116 C1141 0.951 . S
H1117 C1143 0.950 . S
H1118 C1144 0.950 . S
H1119 C1146 0.950 . S
H1120 C1149 0.950 . S
H1121 C1150 0.950 . S
H1122 C1152 0.950 . S
H1123 C1153 0.950 . S
C1124 H1106 0.951 . S
C1124 C1125 1.366 . S
C1124 C1126 1.388 . S
C1125 C1124 1.366 . S
C1125 C1129 1.385 . S
C1126 H1107 0.951 . S
C1126 C1124 1.388 . S
C1126 C1127 1.366 . S
C1127 C1126 1.366 . S
C1127 C1128 1.414 1_554 S
C1127 C1130 1.499 1_554 S
C1128 H1108 0.950 . S
C1128 C1127 1.414 1_556 S
C1128 C1129 1.374 1_556 S
C1129 H1109 0.950 . S
C1129 C1125 1.385 . S
C1129 C1128 1.374 1_554 S
C1130 C1127 1.499 1_556 S
C1130 C1131 1.373 . S
C1130 C1132 1.398 . S
C1131 H1110 0.950 . S
C1131 C1130 1.373 . S
C1131 C1147 1.377 . S
C1132 C1130 1.398 . S
C1132 C1133 1.504 1_556 S
C1132 C1146 1.388 . S
C1133 C1132 1.504 1_554 S
C1133 C1134 1.397 . S
C1133 C1138 1.363 . S
C1134 H1111 0.950 . S
C1134 C1133 1.397 . S
C1134 C1135 1.334 . S
C1135 H1112 0.950 . S
C1135 C1134 1.334 . S
C1135 C1136 1.287 . S
C1136 C1135 1.287 . S
C1136 C1137 1.524 . S
C1136 H1155 0.913 . S
C1137 H1113 0.950 . S
C1137 C1136 1.524 . S
C1137 C1138 1.415 . S
C1138 H1114 0.950 . S
C1138 C1133 1.363 . S
C1138 C1137 1.415 . S
C1139 H1115 0.951 . S
C1139 C1140 1.366 . S
C1139 C1141 1.388 . S
C1140 C1139 1.366 . S
C1140 C1144 1.385 . S
C1141 H1116 0.951 . S
C1141 C1139 1.388 . S
C1141 C1142 1.366 . S
C1142 C1141 1.366 . S
C1142 C1143 1.414 . S
C1142 C1145 1.499 . S
C1143 H1117 0.950 . S
C1143 C1142 1.414 . S
C1143 C1144 1.374 . S
C1144 H1118 0.950 . S
C1144 C1140 1.385 . S
C1144 C1143 1.374 . S
C1145 C1142 1.499 . S
C1145 C1146 1.373 . S
C1145 C1147 1.389 . S
C1146 H1119 0.950 . S
C1146 C1132 1.388 . S
C1146 C1145 1.373 . S
C1147 C1131 1.377 . S
C1147 C1145 1.389 . S
C1147 C1148 1.524 . S
C1148 C1147 1.524 . S
C1148 C1149 1.397 . S
C1148 C1153 1.363 . S
C1149 H1120 0.950 . S
C1149 C1148 1.397 . S
C1149 C1150 1.334 . S
C1150 H1121 0.950 . S
C1150 C1149 1.334 . S
C1150 C1151 1.287 . S
C1151 C1150 1.287 . S
C1151 C1152 1.524 . S
C1151 H1154 0.999 . S
C1152 H1122 0.950 . S
C1152 C1151 1.524 . S
C1152 C1153 1.415 . S
C1153 H1123 0.950 . S
C1153 C1148 1.363 . S
C1153 C1152 1.415 . S
H1154 C1151 0.999 . S
H1155 C1136 0.913 . S
H1156 C1174 0.951 . S
H1157 C1176 0.951 . S
H1158 C1178 0.950 . S
H1159 C1179 0.950 . S
H1160 C1181 0.950 1_554 S
H1161 C1184 0.950 . S
H1162 C1185 0.950 . S
H1163 C1187 0.950 . S
H1164 C1188 0.950 . S
H1165 C1189 0.951 . S
H1166 C1191 0.951 . S
H1167 C1193 0.950 . S
H1168 C1194 0.950 . S
H1169 C1196 0.950 . S
H1170 C1199 0.959 . S
H1171 C1200 0.950 . S
H1172 C1202 0.950 . S
H1173 C1203 0.950 . S
C1174 H1156 0.951 . S
C1174 C1175 1.366 . S
C1174 C1176 1.388 . S
C1175 C1174 1.366 . S
C1175 C1179 1.385 . S
C1176 H1157 0.951 . S
C1176 C1174 1.388 . S
C1176 C1177 1.366 . S
C1177 C1176 1.366 . S
C1177 C1178 1.414 . S
C1177 C1180 1.499 1_554 S
C1178 H1158 0.950 . S
C1178 C1177 1.414 . S
C1178 C1179 1.374 . S
C1179 H1159 0.950 . S
C1179 C1175 1.385 . S
C1179 C1178 1.374 . S
C1180 C1177 1.499 1_556 S
C1180 C1181 1.373 . S
C1180 C1182 1.389 . S
C1181 H1160 0.950 1_556 S
C1181 C1180 1.373 . S
C1181 C1197 1.377 . S
C1182 C1180 1.389 . S
C1182 C1183 1.524 . S
C1182 C1196 1.377 . S
C1183 C1182 1.524 . S
C1183 C1184 1.397 . S
C1183 C1188 1.363 . S
C1184 H1161 0.950 . S
C1184 C1183 1.397 . S
C1184 C1185 1.334 . S
C1185 H1162 0.950 . S
C1185 C1184 1.334 . S
C1185 C1186 1.287 . S
C1186 C1185 1.287 . S
C1186 C1187 1.524 . S
C1186 H1205 0.913 . S
C1187 H1163 0.950 . S
C1187 C1186 1.524 . S
C1187 C1188 1.415 . S
C1188 H1164 0.950 . S
C1188 C1183 1.363 . S
C1188 C1187 1.415 . S
C1189 H1165 0.951 . S
C1189 C1190 1.366 . S
C1189 C1191 1.388 . S
C1190 C1189 1.366 . S
C1190 C1194 1.385 . S
C1191 H1166 0.951 . S
C1191 C1189 1.388 . S
C1191 C1192 1.366 . S
C1192 C1191 1.366 . S
C1192 C1193 1.414 . S
C1192 C1195 1.499 . S
C1193 H1167 0.950 . S
C1193 C1192 1.414 . S
C1193 C1194 1.374 . S
C1194 H1168 0.950 . S
C1194 C1190 1.385 . S
C1194 C1193 1.374 . S
C1195 C1192 1.499 . S
C1195 C1196 1.373 . S
C1195 C1197 1.389 . S
C1196 H1169 0.950 . S
C1196 C1182 1.377 . S
C1196 C1195 1.373 . S
C1197 C1181 1.377 . S
C1197 C1195 1.389 . S
C1197 C1198 1.524 . S
C1198 C1197 1.524 . S
C1198 C1199 1.409 . S
C1198 C1203 1.363 . S
C1199 H1170 0.959 . S
C1199 C1198 1.409 . S
C1199 C1200 1.315 1_556 S
C1200 H1171 0.950 . S
C1200 C1199 1.315 1_554 S
C1200 C1201 1.287 . S
C1201 C1200 1.287 . S
C1201 C1202 1.524 . S
C1201 H1204 0.999 . S
C1202 H1172 0.950 . S
C1202 C1201 1.524 . S
C1202 C1203 1.415 1_554 S
C1203 H1173 0.950 . S
C1203 C1198 1.363 . S
C1203 C1202 1.415 1_556 S
H1204 C1201 0.999 . S
H1205 C1186 0.913 . S
H1206 C1224 0.951 . S
H1207 C1226 0.951 . S
H1208 C1228 0.950 . S
H1209 C1229 0.950 . S
H1210 C1231 0.950 . S
H1211 C1234 0.950 . S
H1212 C1235 0.950 . S
H1213 C1237 0.950 . S
H1214 C1238 0.950 . S
H1215 C1239 0.951 . S
H1216 C1241 0.951 . S
H1217 C1243 0.950 . S
H1218 C1244 0.950 . S
H1219 C1246 0.950 . S
H1220 C1249 0.950 . S
H1221 C1250 0.950 . S
H1222 C1252 0.950 . S
H1223 C1253 0.950 . S
C1224 H1206 0.951 . S
C1224 C1225 1.366 . S
C1224 C1226 1.388 . S
C1225 C1224 1.366 . S
C1225 C1229 1.385 . S
C1226 H1207 0.951 . S
C1226 C1224 1.388 . S
C1226 C1227 1.366 . S
C1227 C1226 1.366 . S
C1227 C1228 1.414 . S
C1227 C1230 1.499 . S
C1228 H1208 0.950 . S
C1228 C1227 1.414 . S
C1228 C1229 1.374 . S
C1229 H1209 0.950 . S
C1229 C1225 1.385 . S
C1229 C1228 1.374 . S
C1230 C1227 1.499 . S
C1230 C1231 1.373 . S
C1230 C1232 1.389 . S
C1231 H1210 0.950 . S
C1231 C1230 1.373 . S
C1231 C1247 1.377 . S
C1232 C1230 1.389 . S
C1232 C1233 1.524 . S
C1232 C1246 1.377 . S
C1233 C1232 1.524 . S
C1233 C1234 1.397 . S
C1233 C1238 1.363 . S
C1234 H1211 0.950 . S
C1234 C1233 1.397 . S
C1234 C1235 1.334 . S
C1235 H1212 0.950 . S
C1235 C1234 1.334 . S
C1235 C1236 1.287 . S
C1236 C1235 1.287 . S
C1236 C1237 1.524 . S
C1236 H1255 0.913 . S
C1237 H1213 0.950 . S
C1237 C1236 1.524 . S
C1237 C1238 1.415 . S
C1238 H1214 0.950 . S
C1238 C1233 1.363 . S
C1238 C1237 1.415 . S
C1239 H1215 0.951 . S
C1239 C1240 1.366 . S
C1239 C1241 1.388 . S
C1240 C1239 1.366 . S
C1240 C1244 1.385 . S
C1241 H1216 0.951 . S
C1241 C1239 1.388 . S
C1241 C1242 1.366 . S
C1242 C1241 1.366 . S
C1242 C1243 1.414 . S
C1242 C1245 1.499 . S
C1243 H1217 0.950 . S
C1243 C1242 1.414 . S
C1243 C1244 1.374 . S
C1244 H1218 0.950 . S
C1244 C1240 1.385 . S
C1244 C1243 1.374 . S
C1245 C1242 1.499 . S
C1245 C1246 1.373 . S
C1245 C1247 1.389 . S
C1246 H1219 0.950 . S
C1246 C1232 1.377 . S
C1246 C1245 1.373 . S
C1247 C1231 1.377 . S
C1247 C1245 1.389 . S
C1247 C1248 1.524 . S
C1248 C1247 1.524 . S
C1248 C1249 1.397 . S
C1248 C1253 1.363 . S
C1249 H1220 0.950 . S
C1249 C1248 1.397 . S
C1249 C1250 1.334 . S
C1250 H1221 0.950 . S
C1250 C1249 1.334 . S
C1250 C1251 1.287 . S
C1251 C1250 1.287 . S
C1251 C1252 1.524 . S
C1251 H1254 0.999 . S
C1252 H1222 0.950 . S
C1252 C1251 1.524 . S
C1252 C1253 1.415 . S
C1253 H1223 0.950 . S
C1253 C1248 1.363 . S
C1253 C1252 1.415 . S
H1254 C1251 0.999 . S
H1255 C1236 0.913 . S
H1256 C1274 0.951 . S
H1257 C1276 0.951 . S
H1258 C1278 0.950 . S
H1259 C1279 0.950 . S
H1260 C1281 0.950 . S
H1261 C1284 0.950 . S
H1262 C1285 0.950 . S
H1263 C1287 0.950 . S
H1264 C1288 0.950 . S
H1265 C1289 0.951 . S
H1266 C1291 0.951 . S
H1267 C1293 0.950 . S
H1268 C1294 0.950 . S
H1269 C1296 0.950 . S
H1270 C1299 0.950 . S
H1271 C1300 0.950 . S
H1272 C1302 0.950 . S
H1273 C1303 0.950 . S
C1274 H1256 0.951 . S
C1274 C1275 1.366 . S
C1274 C1276 1.388 . S
C1275 C1274 1.366 . S
C1275 C1279 1.385 . S
C1276 H1257 0.951 . S
C1276 C1274 1.388 . S
C1276 C1277 1.366 . S
C1277 C1276 1.366 . S
C1277 C1278 1.414 . S
C1277 C1280 1.499 . S
C1278 H1258 0.950 . S
C1278 C1277 1.414 . S
C1278 C1279 1.374 . S
C1279 H1259 0.950 . S
C1279 C1275 1.385 . S
C1279 C1278 1.374 . S
C1280 C1277 1.499 . S
C1280 C1281 1.373 . S
C1280 C1282 1.389 . S
C1281 H1260 0.950 . S
C1281 C1280 1.373 . S
C1281 C1297 1.377 . S
C1282 C1280 1.389 . S
C1282 C1283 1.524 . S
C1282 C1296 1.377 . S
C1283 C1282 1.524 . S
C1283 C1284 1.397 . S
C1283 C1288 1.363 . S
C1284 H1261 0.950 . S
C1284 C1283 1.397 . S
C1284 C1285 1.334 . S
C1285 H1262 0.950 . S
C1285 C1284 1.334 . S
C1285 C1286 1.287 . S
C1286 C1285 1.287 . S
C1286 C1287 1.524 . S
C1286 H1305 0.913 . S
C1287 H1263 0.950 . S
C1287 C1286 1.524 . S
C1287 C1288 1.415 . S
C1288 H1264 0.950 . S
C1288 C1283 1.363 . S
C1288 C1287 1.415 . S
C1289 H1265 0.951 . S
C1289 C1290 1.366 . S
C1289 C1291 1.388 . S
C1290 C1289 1.366 . S
C1290 C1294 1.385 . S
C1291 H1266 0.951 . S
C1291 C1289 1.388 . S
C1291 C1292 1.366 . S
C1292 C1291 1.366 . S
C1292 C1293 1.414 . S
C1292 C1295 1.499 . S
C1293 H1267 0.950 . S
C1293 C1292 1.414 . S
C1293 C1294 1.374 . S
C1294 H1268 0.950 . S
C1294 C1290 1.385 . S
C1294 C1293 1.374 . S
C1295 C1292 1.499 . S
C1295 C1296 1.373 . S
C1295 C1297 1.389 . S
C1296 H1269 0.950 . S
C1296 C1282 1.377 . S
C1296 C1295 1.373 . S
C1297 C1281 1.377 . S
C1297 C1295 1.389 . S
C1297 C1298 1.524 . S
C1298 C1297 1.524 . S
C1298 C1299 1.397 . S
C1298 C1303 1.363 . S
C1299 H1270 0.950 . S
C1299 C1298 1.397 . S
C1299 C1300 1.334 . S
C1300 H1271 0.950 . S
C1300 C1299 1.334 . S
C1300 C1301 1.287 . S
C1301 C1300 1.287 . S
C1301 C1302 1.524 . S
C1301 H1304 0.999 . S
C1302 H1272 0.950 . S
C1302 C1301 1.524 . S
C1302 C1303 1.415 . S
C1303 H1273 0.950 . S
C1303 C1298 1.363 . S
C1303 C1302 1.415 . S
H1304 C1301 0.999 . S
H1305 C1286 0.913 . S
H1306 C1324 0.951 . S
H1307 C1326 0.951 . S
H1308 C1328 0.950 . S
H1309 C1329 0.950 . S
H1310 C1331 0.950 . S
H1311 C1334 0.950 . S
H1312 C1335 0.950 . S
H1313 C1337 0.950 . S
H1314 C1338 0.950 . S
H1315 C1339 0.951 . S
H1316 C1341 0.951 . S
H1317 C1343 0.950 . S
H1318 C1344 0.950 . S
H1319 C1346 0.950 . S
H1320 C1349 0.950 . S
H1321 C1350 0.950 . S
H1322 C1352 0.950 . S
H1323 C1353 0.950 . S
C1324 H1306 0.951 . S
C1324 C1325 1.366 . S
C1324 C1326 1.388 . S
C1325 C1324 1.366 . S
C1325 C1329 1.385 . S
C1326 H1307 0.951 . S
C1326 C1324 1.388 . S
C1326 C1327 1.366 . S
C1327 C1326 1.366 . S
C1327 C1328 1.414 . S
C1327 C1330 1.499 . S
C1328 H1308 0.950 . S
C1328 C1327 1.414 . S
C1328 C1329 1.374 . S
C1329 H1309 0.950 . S
C1329 C1325 1.385 . S
C1329 C1328 1.374 . S
C1330 C1327 1.499 . S
C1330 C1331 1.373 . S
C1330 C1332 1.389 . S
C1331 H1310 0.950 . S
C1331 C1330 1.373 . S
C1331 C1347 1.377 . S
C1332 C1330 1.389 . S
C1332 C1333 1.524 . S
C1332 C1346 1.377 . S
C1333 C1332 1.524 . S
C1333 C1334 1.397 . S
C1333 C1338 1.363 . S
C1334 H1311 0.950 . S
C1334 C1333 1.397 . S
C1334 C1335 1.334 . S
C1335 H1312 0.950 . S
C1335 C1334 1.334 . S
C1335 C1336 1.287 . S
C1336 C1335 1.287 . S
C1336 C1337 1.524 . S
C1336 H1355 0.913 . S
C1337 H1313 0.950 . S
C1337 C1336 1.524 . S
C1337 C1338 1.415 . S
C1338 H1314 0.950 . S
C1338 C1333 1.363 . S
C1338 C1337 1.415 . S
C1339 H1315 0.951 . S
C1339 C1340 1.366 . S
C1339 C1341 1.388 . S
C1340 C1339 1.366 . S
C1340 C1344 1.385 . S
C1341 H1316 0.951 . S
C1341 C1339 1.388 . S
C1341 C1342 1.366 . S
C1342 C1341 1.366 . S
C1342 C1343 1.414 . S
C1342 C1345 1.499 . S
C1343 H1317 0.950 . S
C1343 C1342 1.414 . S
C1343 C1344 1.374 . S
C1344 H1318 0.950 . S
C1344 C1340 1.385 . S
C1344 C1343 1.374 . S
C1345 C1342 1.499 . S
C1345 C1346 1.373 . S
C1345 C1347 1.389 . S
C1346 H1319 0.950 . S
C1346 C1332 1.377 . S
C1346 C1345 1.373 . S
C1347 C1331 1.377 . S
C1347 C1345 1.389 . S
C1347 C1348 1.524 . S
C1348 C1347 1.524 . S
C1348 C1349 1.397 . S
C1348 C1353 1.363 . S
C1349 H1320 0.950 . S
C1349 C1348 1.397 . S
C1349 C1350 1.334 . S
C1350 H1321 0.950 . S
C1350 C1349 1.334 . S
C1350 C1351 1.287 . S
C1351 C1350 1.287 . S
C1351 C1352 1.524 . S
C1351 H1354 0.999 . S
C1352 H1322 0.950 . S
C1352 C1351 1.524 . S
C1352 C1353 1.415 . S
C1353 H1323 0.950 . S
C1353 C1348 1.363 . S
C1353 C1352 1.415 . S
H1354 C1351 0.999 . S
H1355 C1336 0.913 . S
H1356 C1374 0.951 . S
H1357 C1376 0.951 . S
H1358 C1378 0.950 . S
H1359 C1379 0.950 . S
H1360 C1381 0.950 . S
H1361 C1384 0.950 . S
H1362 C1385 0.950 . S
H1363 C1387 0.950 . S
H1364 C1388 0.950 . S
H1365 C1389 0.951 . S
H1366 C1391 0.951 . S
H1367 C1393 0.950 . S
H1368 C1394 0.950 . S
H1369 C1396 0.950 . S
H1370 C1399 0.950 . S
H1371 C1400 0.950 . S
H1372 C1402 0.950 . S
H1373 C1403 0.950 . S
C1374 H1356 0.951 . S
C1374 C1375 1.366 . S
C1374 C1376 1.388 . S
C1375 C1374 1.366 . S
C1375 C1379 1.385 . S
C1376 H1357 0.951 . S
C1376 C1374 1.388 . S
C1376 C1377 1.366 . S
C1377 C1376 1.366 . S
C1377 C1378 1.414 . S
C1377 C1380 1.499 . S
C1378 H1358 0.950 . S
C1378 C1377 1.414 . S
C1378 C1379 1.374 . S
C1379 H1359 0.950 . S
C1379 C1375 1.385 . S
C1379 C1378 1.374 . S
C1380 C1377 1.499 . S
C1380 C1381 1.373 . S
C1380 C1382 1.389 . S
C1381 H1360 0.950 . S
C1381 C1380 1.373 . S
C1381 C1397 1.377 . S
C1382 C1380 1.389 . S
C1382 C1383 1.524 . S
C1382 C1396 1.377 . S
C1383 C1382 1.524 . S
C1383 C1384 1.397 . S
C1383 C1388 1.363 . S
C1384 H1361 0.950 . S
C1384 C1383 1.397 . S
C1384 C1385 1.334 . S
C1385 H1362 0.950 . S
C1385 C1384 1.334 . S
C1385 C1386 1.287 . S
C1386 C1385 1.287 . S
C1386 C1387 1.524 . S
C1386 H1405 0.913 . S
C1387 H1363 0.950 . S
C1387 C1386 1.524 . S
C1387 C1388 1.415 . S
C1388 H1364 0.950 . S
C1388 C1383 1.363 . S
C1388 C1387 1.415 . S
C1389 H1365 0.951 . S
C1389 C1390 1.366 . S
C1389 C1391 1.388 1_556 S
C1390 C1389 1.366 . S
C1390 C1394 1.385 . S
C1391 H1366 0.951 . S
C1391 C1389 1.388 1_554 S
C1391 C1392 1.366 1_554 S
C1392 C1391 1.366 1_556 S
C1392 C1393 1.414 . S
C1392 C1395 1.499 1_556 S
C1393 H1367 0.950 . S
C1393 C1392 1.414 . S
C1393 C1394 1.374 . S
C1394 H1368 0.950 . S
C1394 C1390 1.385 . S
C1394 C1393 1.374 . S
C1395 C1392 1.499 1_554 S
C1395 C1396 1.373 . S
C1395 C1397 1.389 . S
C1396 H1369 0.950 . S
C1396 C1382 1.377 . S
C1396 C1395 1.373 . S
C1397 C1381 1.377 . S
C1397 C1395 1.389 . S
C1397 C1398 1.524 . S
C1398 C1397 1.524 . S
C1398 C1399 1.397 1_554 S
C1398 C1403 1.363 . S
C1399 H1370 0.950 . S
C1399 C1398 1.397 1_556 S
C1399 C1400 1.334 . S
C1400 H1371 0.950 . S
C1400 C1399 1.334 . S
C1400 C1401 1.287 . S
C1401 C1400 1.287 . S
C1401 C1402 1.524 1_556 S
C1401 H1404 0.999 . S
C1402 H1372 0.950 . S
C1402 C1401 1.524 1_554 S
C1402 C1403 1.415 . S
C1403 H1373 0.950 . S
C1403 C1398 1.363 . S
C1403 C1402 1.415 . S
H1404 C1401 0.999 . S
H1405 C1386 0.913 . S
H1406 C1424 0.951 . S
H1407 C1426 0.951 . S
H1408 C1428 0.950 1_554 S
H1409 C1429 0.950 . S
H1410 C1431 0.967 . S
H1411 C1434 0.950 . S
H1412 C1435 0.950 . S
H1413 C1437 0.950 . S
H1414 C1438 0.950 . S
H1415 C1439 0.951 . S
H1416 C1441 0.951 . S
H1417 C1443 0.950 . S
H1418 C1444 0.950 . S
H1419 C1446 0.950 . S
H1420 C1449 0.950 . S
H1421 C1450 0.950 1_556 S
H1422 C1452 0.950 . S
H1423 C1453 0.950 . S
C1424 H1406 0.951 . S
C1424 C1425 1.366 . S
C1424 C1426 1.388 . S
C1425 C1424 1.366 . S
C1425 C1429 1.385 . S
C1426 H1407 0.951 . S
C1426 C1424 1.388 . S
C1426 C1427 1.366 . S
C1427 C1426 1.366 . S
C1427 C1428 1.414 . S
C1427 C1430 1.499 1_556 S
C1428 H1408 0.950 1_556 S
C1428 C1427 1.414 . S
C1428 C1429 1.374 . S
C1429 H1409 0.950 . S
C1429 C1425 1.385 . S
C1429 C1428 1.374 . S
C1430 C1427 1.499 1_554 S
C1430 C1431 1.373 . S
C1430 C1432 1.389 . S
C1431 H1410 0.967 . S
C1431 C1430 1.373 . S
C1431 C1447 1.377 . S
C1432 C1430 1.389 . S
C1432 C1433 1.524 . S
C1432 C1446 1.377 . S
C1433 C1432 1.524 . S
C1433 C1434 1.397 . S
C1433 C1438 1.363 . S
C1434 H1411 0.950 . S
C1434 C1433 1.397 . S
C1434 C1435 1.334 . S
C1435 H1412 0.950 . S
C1435 C1434 1.334 . S
C1435 C1436 1.287 . S
C1436 C1435 1.287 . S
C1436 C1437 1.524 . S
C1436 H1455 0.913 . S
C1437 H1413 0.950 . S
C1437 C1436 1.524 . S
C1437 C1438 1.415 . S
C1438 H1414 0.950 . S
C1438 C1433 1.363 . S
C1438 C1437 1.415 . S
C1439 H1415 0.951 . S
C1439 C1440 1.366 . S
C1439 C1441 1.388 . S
C1440 C1439 1.366 . S
C1440 C1444 1.385 . S
C1441 H1416 0.951 . S
C1441 C1439 1.388 . S
C1441 C1442 1.366 . S
C1442 C1441 1.366 . S
C1442 C1443 1.414 . S
C1442 C1445 1.499 . S
C1443 H1417 0.950 . S
C1443 C1442 1.414 . S
C1443 C1444 1.374 . S
C1444 H1418 0.950 . S
C1444 C1440 1.385 . S
C1444 C1443 1.374 . S
C1445 C1442 1.499 . S
C1445 C1446 1.373 . S
C1445 C1447 1.389 . S
C1446 H1419 0.950 . S
C1446 C1432 1.377 . S
C1446 C1445 1.373 . S
C1447 C1431 1.377 . S
C1447 C1445 1.389 . S
C1447 C1448 1.524 . S
C1448 C1447 1.524 . S
C1448 C1449 1.397 . S
C1448 C1453 1.363 . S
C1449 H1420 0.950 . S
C1449 C1448 1.397 . S
C1449 C1450 1.334 . S
C1450 H1421 0.950 1_554 S
C1450 C1449 1.334 . S
C1450 C1451 1.287 . S
C1451 C1450 1.287 . S
C1451 C1452 1.524 . S
C1451 H1454 0.993 1_554 S
C1452 H1422 0.950 . S
C1452 C1451 1.524 . S
C1452 C1453 1.415 . S
C1453 H1423 0.950 . S
C1453 C1448 1.363 . S
C1453 C1452 1.415 . S
H1454 C1451 0.993 1_556 S
H1455 C1436 0.913 . S
H1456 C1474 0.951 . S
H1457 C1476 0.951 . S
H1458 C1478 0.950 . S
H1459 C1479 0.950 . S
H1460 C1481 0.950 . S
H1461 C1484 0.950 . S
H1462 C1485 0.950 . S
H1463 C1487 0.950 . S
H1464 C1488 0.950 . S
H1465 C1489 0.951 1_554 S
H1466 C1491 0.951 . S
H1467 C1493 0.950 . S
H1468 C1494 0.950 . S
H1469 C1496 0.950 1_556 S
H1470 C1499 0.950 . S
H1471 C1500 0.950 . S
H1472 C1502 0.950 . S
H1473 C1503 0.950 . S
C1474 H1456 0.951 . S
C1474 C1475 1.366 . S
C1474 C1476 1.388 . S
C1475 C1474 1.366 . S
C1475 C1479 1.385 . S
C1476 H1457 0.951 . S
C1476 C1474 1.388 . S
C1476 C1477 1.366 . S
C1477 C1476 1.366 . S
C1477 C1478 1.414 . S
C1477 C1480 1.499 . S
C1478 H1458 0.950 . S
C1478 C1477 1.414 . S
C1478 C1479 1.374 . S
C1479 H1459 0.950 . S
C1479 C1475 1.385 . S
C1479 C1478 1.374 . S
C1480 C1477 1.499 . S
C1480 C1481 1.373 . S
C1480 C1482 1.389 . S
C1481 H1460 0.950 . S
C1481 C1480 1.373 . S
C1481 C1497 1.377 . S
C1482 C1480 1.389 . S
C1482 C1483 1.524 . S
C1482 C1496 1.377 . S
C1483 C1482 1.524 . S
C1483 C1484 1.397 . S
C1483 C1488 1.363 1_554 S
C1484 H1461 0.950 . S
C1484 C1483 1.397 . S
C1484 C1485 1.334 . S
C1485 H1462 0.950 . S
C1485 C1484 1.334 . S
C1485 C1486 1.287 . S
C1486 C1485 1.287 . S
C1486 C1487 1.524 1_554 S
C1486 H1505 0.912 1_554 S
C1487 H1463 0.950 . S
C1487 C1486 1.524 1_556 S
C1487 C1488 1.415 . S
C1488 H1464 0.950 . S
C1488 C1483 1.363 1_556 S
C1488 C1487 1.415 . S
C1489 H1465 0.951 1_556 S
C1489 C1490 1.366 . S
C1489 C1491 1.388 1_556 S
C1490 C1489 1.366 . S
C1490 C1494 1.385 . S
C1491 H1466 0.951 . S
C1491 C1489 1.388 1_554 S
C1491 C1492 1.366 1_554 S
C1492 C1491 1.366 1_556 S
C1492 C1493 1.414 . S
C1492 C1495 1.499 1_556 S
C1493 H1467 0.950 . S
C1493 C1492 1.414 . S
C1493 C1494 1.374 . S
C1494 H1468 0.950 . S
C1494 C1490 1.385 . S
C1494 C1493 1.374 . S
C1495 C1492 1.499 1_554 S
C1495 C1496 1.373 . S
C1495 C1497 1.389 . S
C1496 H1469 0.950 1_554 S
C1496 C1482 1.377 . S
C1496 C1495 1.373 . S
C1497 C1481 1.377 . S
C1497 C1495 1.389 . S
C1497 C1498 1.524 . S
C1498 C1497 1.524 . S
C1498 C1499 1.397 . S
C1498 C1503 1.363 . S
C1499 H1470 0.950 . S
C1499 C1498 1.397 . S
C1499 C1500 1.334 . S
C1500 H1471 0.950 . S
C1500 C1499 1.334 . S
C1500 C1501 1.287 . S
C1501 C1500 1.287 . S
C1501 C1502 1.524 . S
C1501 H1504 0.999 . S
C1502 H1472 0.950 . S
C1502 C1501 1.524 . S
C1502 C1503 1.415 . S
C1503 H1473 0.950 . S
C1503 C1498 1.363 . S
C1503 C1502 1.415 . S
H1504 C1501 0.999 . S
H1505 C1486 0.912 1_556 S
H1506 C1524 0.951 . S
H1507 C1526 0.951 . S
H1508 C1528 0.950 . S
H1509 C1529 0.950 . S
H1510 C1531 0.950 . S
H1511 C1534 0.950 . S
H1512 C1535 0.950 . S
H1513 C1537 0.950 . S
H1514 C1538 0.950 . S
H1515 C1539 0.951 . S
H1516 C1541 0.951 . S
H1517 C1543 0.950 . S
H1518 C1544 0.950 . S
H1519 C1546 0.950 . S
H1520 C1549 0.950 . S
H1521 C1550 0.950 . S
H1522 C1552 0.950 . S
H1523 C1553 0.950 . S
C1524 H1506 0.951 . S
C1524 C1525 1.366 . S
C1524 C1526 1.388 . S
C1525 C1524 1.366 . S
C1525 C1529 1.385 . S
C1526 H1507 0.951 . S
C1526 C1524 1.388 . S
C1526 C1527 1.366 . S
C1527 C1526 1.366 . S
C1527 C1528 1.414 . S
C1527 C1530 1.499 . S
C1528 H1508 0.950 . S
C1528 C1527 1.414 . S
C1528 C1529 1.374 . S
C1529 H1509 0.950 . S
C1529 C1525 1.385 . S
C1529 C1528 1.374 . S
C1530 C1527 1.499 . S
C1530 C1531 1.373 . S
C1530 C1532 1.389 . S
C1531 H1510 0.950 . S
C1531 C1530 1.373 . S
C1531 C1547 1.377 . S
C1532 C1530 1.389 . S
C1532 C1533 1.524 . S
C1532 C1546 1.377 . S
C1533 C1532 1.524 . S
C1533 C1534 1.397 . S
C1533 C1538 1.363 . S
C1534 H1511 0.950 . S
C1534 C1533 1.397 . S
C1534 C1535 1.334 . S
C1535 H1512 0.950 . S
C1535 C1534 1.334 . S
C1535 C1536 1.287 . S
C1536 C1535 1.287 . S
C1536 C1537 1.524 . S
C1536 H1555 0.913 . S
C1537 H1513 0.950 . S
C1537 C1536 1.524 . S
C1537 C1538 1.415 . S
C1538 H1514 0.950 . S
C1538 C1533 1.363 . S
C1538 C1537 1.415 . S
C1539 H1515 0.951 . S
C1539 C1540 1.366 . S
C1539 C1541 1.388 . S
C1540 C1539 1.366 . S
C1540 C1544 1.385 . S
C1541 H1516 0.951 . S
C1541 C1539 1.388 . S
C1541 C1542 1.366 . S
C1542 C1541 1.366 . S
C1542 C1543 1.414 . S
C1542 C1545 1.499 . S
C1543 H1517 0.950 . S
C1543 C1542 1.414 . S
C1543 C1544 1.374 . S
C1544 H1518 0.950 . S
C1544 C1540 1.385 . S
C1544 C1543 1.374 . S
C1545 C1542 1.499 . S
C1545 C1546 1.373 . S
C1545 C1547 1.389 . S
C1546 H1519 0.950 . S
C1546 C1532 1.377 . S
C1546 C1545 1.373 . S
C1547 C1531 1.377 . S
C1547 C1545 1.389 . S
C1547 C1548 1.524 . S
C1548 C1547 1.524 . S
C1548 C1549 1.397 . S
C1548 C1553 1.363 . S
C1549 H1520 0.950 . S
C1549 C1548 1.397 . S
C1549 C1550 1.334 . S
C1550 H1521 0.950 . S
C1550 C1549 1.334 . S
C1550 C1551 1.287 . S
C1551 C1550 1.287 . S
C1551 C1552 1.524 . S
C1551 H1554 0.999 . S
C1552 H1522 0.950 . S
C1552 C1551 1.524 . S
C1552 C1553 1.415 . S
C1553 H1523 0.950 . S
C1553 C1548 1.363 . S
C1553 C1552 1.415 . S
H1554 C1551 0.999 . S
H1555 C1536 0.913 . S
H1556 C1574 0.951 . S
H1557 C1576 0.951 . S
H1558 C1578 0.950 . S
H1559 C1579 0.950 . S
H1560 C1581 0.950 . S
H1561 C1584 0.950 . S
H1562 C1585 0.950 . S
H1563 C1587 0.950 . S
H1564 C1588 0.950 . S
H1565 C1589 0.951 . S
H1566 C1591 0.951 . S
H1567 C1593 0.950 . S
H1568 C1594 0.950 . S
H1569 C1596 0.950 . S
H1570 C1599 0.950 . S
H1571 C1600 0.950 . S
H1572 C1602 0.950 . S
H1573 C1603 0.950 . S
C1574 H1556 0.951 . S
C1574 C1575 1.366 . S
C1574 C1576 1.388 . S
C1575 C1574 1.366 . S
C1575 C1579 1.385 . S
C1576 H1557 0.951 . S
C1576 C1574 1.388 . S
C1576 C1577 1.366 . S
C1577 C1576 1.366 . S
C1577 C1578 1.414 . S
C1577 C1580 1.499 . S
C1578 H1558 0.950 . S
C1578 C1577 1.414 . S
C1578 C1579 1.374 . S
C1579 H1559 0.950 . S
C1579 C1575 1.385 . S
C1579 C1578 1.374 . S
C1580 C1577 1.499 . S
C1580 C1581 1.373 . S
C1580 C1582 1.389 . S
C1581 H1560 0.950 . S
C1581 C1580 1.373 . S
C1581 C1597 1.377 . S
C1582 C1580 1.389 . S
C1582 C1583 1.524 . S
C1582 C1596 1.377 . S
C1583 C1582 1.524 . S
C1583 C1584 1.397 . S
C1583 C1588 1.363 . S
C1584 H1561 0.950 . S
C1584 C1583 1.397 . S
C1584 C1585 1.334 . S
C1585 H1562 0.950 . S
C1585 C1584 1.334 . S
C1585 C1586 1.287 . S
C1586 C1585 1.287 . S
C1586 C1587 1.524 . S
C1586 H1605 0.913 . S
C1587 H1563 0.950 . S
C1587 C1586 1.524 . S
C1587 C1588 1.415 . S
C1588 H1564 0.950 . S
C1588 C1583 1.363 . S
C1588 C1587 1.415 . S
C1589 H1565 0.951 . S
C1589 C1590 1.366 . S
C1589 C1591 1.388 . S
C1590 C1589 1.366 . S
C1590 C1594 1.385 . S
C1591 H1566 0.951 . S
C1591 C1589 1.388 . S
C1591 C1592 1.366 . S
C1592 C1591 1.366 . S
C1592 C1593 1.414 . S
C1592 C1595 1.499 . S
C1593 H1567 0.950 . S
C1593 C1592 1.414 . S
C1593 C1594 1.374 . S
C1594 H1568 0.950 . S
C1594 C1590 1.385 . S
C1594 C1593 1.374 . S
C1595 C1592 1.499 . S
C1595 C1596 1.373 . S
C1595 C1597 1.389 . S
C1596 H1569 0.950 . S
C1596 C1582 1.377 . S
C1596 C1595 1.373 . S
C1597 C1581 1.377 . S
C1597 C1595 1.389 . S
C1597 C1598 1.524 . S
C1598 C1597 1.524 . S
C1598 C1599 1.397 . S
C1598 C1603 1.363 . S
C1599 H1570 0.950 . S
C1599 C1598 1.397 . S
C1599 C1600 1.334 . S
C1600 H1571 0.950 . S
C1600 C1599 1.334 . S
C1600 C1601 1.287 . S
C1601 C1600 1.287 . S
C1601 C1602 1.524 . S
C1601 H1604 0.999 . S
C1602 H1572 0.950 . S
C1602 C1601 1.524 . S
C1602 C1603 1.415 . S
C1603 H1573 0.950 . S
C1603 C1598 1.363 . S
C1603 C1602 1.415 . S
H1604 C1601 0.999 . S
H1605 C1586 0.913 . S
H1606 C1624 0.951 . S
H1607 C1626 0.951 . S
H1608 C1628 0.950 . S
H1609 C1629 0.950 . S
H1610 C1631 0.950 . S
H1611 C1634 0.950 . S
H1612 C1635 0.950 . S
H1613 C1637 0.950 . S
H1614 C1638 0.950 . S
H1615 C1639 0.951 . S
H1616 C1641 0.951 . S
H1617 C1643 0.950 . S
H1618 C1644 0.950 . S
H1619 C1646 0.950 . S
H1620 C1649 0.950 . S
H1621 C1650 0.950 . S
H1622 C1652 0.950 . S
H1623 C1653 0.950 . S
C1624 H1606 0.951 . S
C1624 C1625 1.366 . S
C1624 C1626 1.388 . S
C1625 C1624 1.366 . S
C1625 C1629 1.385 . S
C1626 H1607 0.951 . S
C1626 C1624 1.388 . S
C1626 C1627 1.366 . S
C1627 C1626 1.366 . S
C1627 C1628 1.414 . S
C1627 C1630 1.499 . S
C1628 H1608 0.950 . S
C1628 C1627 1.414 . S
C1628 C1629 1.374 . S
C1629 H1609 0.950 . S
C1629 C1625 1.385 . S
C1629 C1628 1.374 . S
C1630 C1627 1.499 . S
C1630 C1631 1.373 . S
C1630 C1632 1.389 . S
C1631 H1610 0.950 . S
C1631 C1630 1.373 . S
C1631 C1647 1.377 . S
C1632 C1630 1.389 . S
C1632 C1633 1.524 . S
C1632 C1646 1.377 . S
C1633 C1632 1.524 . S
C1633 C1634 1.397 . S
C1633 C1638 1.363 . S
C1634 H1611 0.950 . S
C1634 C1633 1.397 . S
C1634 C1635 1.334 . S
C1635 H1612 0.950 . S
C1635 C1634 1.334 . S
C1635 C1636 1.287 . S
C1636 C1635 1.287 . S
C1636 C1637 1.524 . S
C1636 H1655 0.913 . S
C1637 H1613 0.950 . S
C1637 C1636 1.524 . S
C1637 C1638 1.415 . S
C1638 H1614 0.950 . S
C1638 C1633 1.363 . S
C1638 C1637 1.415 . S
C1639 H1615 0.951 . S
C1639 C1640 1.366 . S
C1639 C1641 1.388 . S
C1640 C1639 1.366 . S
C1640 C1644 1.385 . S
C1641 H1616 0.951 . S
C1641 C1639 1.388 . S
C1641 C1642 1.366 . S
C1642 C1641 1.366 . S
C1642 C1643 1.414 . S
C1642 C1645 1.499 . S
C1643 H1617 0.950 . S
C1643 C1642 1.414 . S
C1643 C1644 1.374 . S
C1644 H1618 0.950 . S
C1644 C1640 1.385 . S
C1644 C1643 1.374 . S
C1645 C1642 1.499 . S
C1645 C1646 1.373 . S
C1645 C1647 1.389 . S
C1646 H1619 0.950 . S
C1646 C1632 1.377 . S
C1646 C1645 1.373 . S
C1647 C1631 1.377 . S
C1647 C1645 1.389 . S
C1647 C1648 1.524 . S
C1648 C1647 1.524 . S
C1648 C1649 1.397 . S
C1648 C1653 1.363 . S
C1649 H1620 0.950 . S
C1649 C1648 1.397 . S
C1649 C1650 1.334 . S
C1650 H1621 0.950 . S
C1650 C1649 1.334 . S
C1650 C1651 1.287 . S
C1651 C1650 1.287 . S
C1651 C1652 1.524 . S
C1651 H1654 0.999 . S
C1652 H1622 0.950 . S
C1652 C1651 1.524 . S
C1652 C1653 1.415 . S
C1653 H1623 0.950 . S
C1653 C1648 1.363 . S
C1653 C1652 1.415 . S
H1654 C1651 0.999 . S
H1655 C1636 0.913 . S
H1656 C1674 0.951 . S
H1657 C1676 0.951 . S
H1658 C1678 0.950 . S
H1659 C1679 0.950 . S
H1660 C1681 0.950 . S
H1661 C1684 0.950 . S
H1662 C1685 0.950 . S
H1663 C1687 0.950 . S
H1664 C1688 0.950 . S
H1665 C1689 0.951 . S
H1666 C1691 0.951 . S
H1667 C1693 0.950 . S
H1668 C1694 0.950 . S
H1669 C1696 0.950 . S
H1670 C1699 0.950 . S
H1671 C1700 0.950 . S
H1672 C1702 0.950 . S
H1673 C1703 0.950 . S
C1674 H1656 0.951 . S
C1674 C1675 1.366 . S
C1674 C1676 1.388 . S
C1675 C1674 1.366 . S
C1675 C1679 1.385 . S
C1676 H1657 0.951 . S
C1676 C1674 1.388 . S
C1676 C1677 1.366 . S
C1677 C1676 1.366 . S
C1677 C1678 1.414 . S
C1677 C1680 1.499 . S
C1678 H1658 0.950 . S
C1678 C1677 1.414 . S
C1678 C1679 1.374 . S
C1679 H1659 0.950 . S
C1679 C1675 1.385 . S
C1679 C1678 1.374 . S
C1680 C1677 1.499 . S
C1680 C1681 1.373 . S
C1680 C1682 1.389 . S
C1681 H1660 0.950 . S
C1681 C1680 1.373 . S
C1681 C1697 1.377 . S
C1682 C1680 1.389 . S
C1682 C1683 1.524 . S
C1682 C1696 1.377 . S
C1683 C1682 1.524 . S
C1683 C1684 1.397 . S
C1683 C1688 1.363 . S
C1684 H1661 0.950 . S
C1684 C1683 1.397 . S
C1684 C1685 1.334 . S
C1685 H1662 0.950 . S
C1685 C1684 1.334 . S
C1685 C1686 1.287 . S
C1686 C1685 1.287 . S
C1686 C1687 1.524 . S
C1686 H1705 0.913 . S
C1687 H1663 0.950 . S
C1687 C1686 1.524 . S
C1687 C1688 1.415 . S
C1688 H1664 0.950 . S
C1688 C1683 1.363 . S
C1688 C1687 1.415 . S
C1689 H1665 0.951 . S
C1689 C1690 1.366 . S
C1689 C1691 1.388 . S
C1690 C1689 1.366 . S
C1690 C1694 1.385 . S
C1691 H1666 0.951 . S
C1691 C1689 1.388 . S
C1691 C1692 1.366 . S
C1692 C1691 1.366 . S
C1692 C1693 1.414 . S
C1692 C1695 1.499 . S
C1693 H1667 0.950 . S
C1693 C1692 1.414 . S
C1693 C1694 1.374 . S
C1694 H1668 0.950 . S
C1694 C1690 1.385 . S
C1694 C1693 1.374 . S
C1695 C1692 1.499 . S
C1695 C1696 1.373 . S
C1695 C1697 1.389 . S
C1696 H1669 0.950 . S
C1696 C1682 1.377 . S
C1696 C1695 1.373 . S
C1697 C1681 1.377 . S
C1697 C1695 1.389 . S
C1697 C1698 1.524 . S
C1698 C1697 1.524 . S
C1698 C1699 1.397 . S
C1698 C1703 1.363 . S
C1699 H1670 0.950 . S
C1699 C1698 1.397 . S
C1699 C1700 1.334 . S
C1700 H1671 0.950 . S
C1700 C1699 1.334 . S
C1700 C1701 1.287 . S
C1701 C1700 1.287 . S
C1701 C1702 1.524 . S
C1701 H1704 0.999 . S
C1702 H1672 0.950 . S
C1702 C1701 1.524 . S
C1702 C1703 1.415 . S
C1703 H1673 0.950 . S
C1703 C1698 1.363 . S
C1703 C1702 1.415 . S
H1704 C1701 0.999 . S
H1705 C1686 0.913 . S
H1706 C1724 0.951 . S
H1707 C1726 0.951 . S
H1708 C1728 0.950 . S
H1709 C1729 0.950 . S
H1710 C1731 0.950 . S
H1711 C1734 0.950 . S
H1712 C1735 0.950 . S
H1713 C1737 0.950 . S
H1714 C1738 0.950 . S
H1715 C1739 0.951 . S
H1716 C1741 0.951 . S
H1717 C1743 0.950 . S
H1718 C1744 0.950 . S
H1719 C1746 0.950 . S
H1720 C1749 0.950 . S
H1721 C1750 0.950 . S
H1722 C1752 0.950 . S
H1723 C1753 0.950 . S
C1724 H1706 0.951 . S
C1724 C1725 1.366 . S
C1724 C1726 1.388 . S
C1725 C1724 1.366 . S
C1725 C1729 1.385 . S
C1726 H1707 0.951 . S
C1726 C1724 1.388 . S
C1726 C1727 1.366 . S
C1727 C1726 1.366 . S
C1727 C1728 1.414 . S
C1727 C1730 1.499 . S
C1728 H1708 0.950 . S
C1728 C1727 1.414 . S
C1728 C1729 1.374 . S
C1729 H1709 0.950 . S
C1729 C1725 1.385 . S
C1729 C1728 1.374 . S
C1730 C1727 1.499 . S
C1730 C1731 1.373 . S
C1730 C1732 1.389 . S
C1731 H1710 0.950 . S
C1731 C1730 1.373 . S
C1731 C1747 1.377 . S
C1732 C1730 1.389 . S
C1732 C1733 1.524 . S
C1732 C1746 1.377 . S
C1733 C1732 1.524 . S
C1733 C1734 1.397 . S
C1733 C1738 1.363 . S
C1734 H1711 0.950 . S
C1734 C1733 1.397 . S
C1734 C1735 1.334 . S
C1735 H1712 0.950 . S
C1735 C1734 1.334 . S
C1735 C1736 1.287 . S
C1736 C1735 1.287 . S
C1736 C1737 1.524 . S
C1736 H1755 0.913 . S
C1737 H1713 0.950 . S
C1737 C1736 1.524 . S
C1737 C1738 1.415 . S
C1738 H1714 0.950 . S
C1738 C1733 1.363 . S
C1738 C1737 1.415 . S
C1739 H1715 0.951 . S
C1739 C1740 1.366 . S
C1739 C1741 1.388 . S
C1740 C1739 1.366 . S
C1740 C1744 1.385 . S
C1741 H1716 0.951 . S
C1741 C1739 1.388 . S
C1741 C1742 1.366 . S
C1742 C1741 1.366 . S
C1742 C1743 1.414 . S
C1742 C1745 1.499 . S
C1743 H1717 0.950 . S
C1743 C1742 1.414 . S
C1743 C1744 1.374 . S
C1744 H1718 0.950 . S
C1744 C1740 1.385 . S
C1744 C1743 1.374 . S
C1745 C1742 1.499 . S
C1745 C1746 1.373 . S
C1745 C1747 1.389 . S
C1746 H1719 0.950 . S
C1746 C1732 1.377 . S
C1746 C1745 1.373 . S
C1747 C1731 1.377 . S
C1747 C1745 1.389 . S
C1747 C1748 1.524 . S
C1748 C1747 1.524 . S
C1748 C1749 1.397 . S
C1748 C1753 1.363 . S
C1749 H1720 0.950 . S
C1749 C1748 1.397 . S
C1749 C1750 1.334 . S
C1750 H1721 0.950 . S
C1750 C1749 1.334 . S
C1750 C1751 1.287 . S
C1751 C1750 1.287 . S
C1751 C1752 1.524 . S
C1751 H1754 0.999 . S
C1752 H1722 0.950 . S
C1752 C1751 1.524 . S
C1752 C1753 1.415 . S
C1753 H1723 0.950 . S
C1753 C1748 1.363 . S
C1753 C1752 1.415 . S
H1754 C1751 0.999 . S
H1755 C1736 0.913 . S
H1756 C1774 0.951 . S
H1757 C1776 0.951 . S
H1758 C1778 0.950 . S
H1759 C1779 0.950 . S
H1760 C1781 0.950 . S
H1761 C1784 0.950 . S
H1762 C1785 0.950 . S
H1763 C1787 0.950 . S
H1764 C1788 0.950 . S
H1765 C1789 0.951 . S
H1766 C1791 0.951 . S
H1767 C1793 0.950 . S
H1768 C1794 0.950 . S
H1769 C1796 0.950 . S
H1770 C1799 0.950 . S
H1771 C1800 0.950 . S
H1772 C1802 0.950 . S
H1773 C1803 0.950 . S
C1774 H1756 0.951 . S
C1774 C1775 1.366 . S
C1774 C1776 1.388 . S
C1775 C1774 1.366 . S
C1775 C1779 1.385 . S
C1776 H1757 0.951 . S
C1776 C1774 1.388 . S
C1776 C1777 1.366 . S
C1777 C1776 1.366 . S
C1777 C1778 1.414 . S
C1777 C1780 1.499 . S
C1778 H1758 0.950 . S
C1778 C1777 1.414 . S
C1778 C1779 1.374 . S
C1779 H1759 0.950 . S
C1779 C1775 1.385 . S
C1779 C1778 1.374 . S
C1780 C1777 1.499 . S
C1780 C1781 1.373 . S
C1780 C1782 1.389 . S
C1781 H1760 0.950 . S
C1781 C1780 1.373 . S
C1781 C1797 1.377 . S
C1782 C1780 1.389 . S
C1782 C1783 1.524 . S
C1782 C1796 1.377 . S
C1783 C1782 1.524 . S
C1783 C1784 1.397 . S
C1783 C1788 1.363 . S
C1784 H1761 0.950 . S
C1784 C1783 1.397 . S
C1784 C1785 1.334 . S
C1785 H1762 0.950 . S
C1785 C1784 1.334 . S
C1785 C1786 1.287 . S
C1786 C1785 1.287 . S
C1786 C1787 1.524 . S
C1786 H1805 0.913 . S
C1787 H1763 0.950 . S
C1787 C1786 1.524 . S
C1787 C1788 1.415 . S
C1788 H1764 0.950 . S
C1788 C1783 1.363 . S
C1788 C1787 1.415 . S
C1789 H1765 0.951 . S
C1789 C1790 1.366 . S
C1789 C1791 1.388 . S
C1790 C1789 1.366 . S
C1790 C1794 1.385 . S
C1791 H1766 0.951 . S
C1791 C1789 1.388 . S
C1791 C1792 1.366 . S
C1792 C1791 1.366 . S
C1792 C1793 1.414 . S
C1792 C1795 1.499 . S
C1793 H1767 0.950 . S
C1793 C1792 1.414 . S
C1793 C1794 1.374 . S
C1794 H1768 0.950 . S
C1794 C1790 1.385 . S
C1794 C1793 1.374 . S
C1795 C1792 1.499 . S
C1795 C1796 1.373 . S
C1795 C1797 1.389 . S
C1796 H1769 0.950 . S
C1796 C1782 1.377 . S
C1796 C1795 1.373 . S
C1797 C1781 1.377 . S
C1797 C1795 1.389 . S
C1797 C1798 1.524 . S
C1798 C1797 1.524 . S
C1798 C1799 1.397 . S
C1798 C1803 1.363 . S
C1799 H1770 0.950 . S
C1799 C1798 1.397 . S
C1799 C1800 1.334 . S
C1800 H1771 0.950 . S
C1800 C1799 1.334 . S
C1800 C1801 1.287 . S
C1801 C1800 1.287 . S
C1801 C1802 1.524 . S
C1801 H1804 0.999 . S
C1802 H1772 0.950 . S
C1802 C1801 1.524 . S
C1802 C1803 1.415 . S
C1803 H1773 0.950 . S
C1803 C1798 1.363 . S
C1803 C1802 1.415 . S
H1804 C1801 0.999 . S
H1805 C1786 0.913 . S
H1806 C1824 0.951 . S
H1807 C1826 0.951 . S
H1808 C1828 0.950 . S
H1809 C1829 0.950 . S
H1810 C1831 0.950 . S
H1811 C1834 0.950 . S
H1812 C1835 0.950 . S
H1813 C1837 0.950 . S
H1814 C1838 0.950 . S
H1815 C1839 0.951 . S
H1816 C1841 0.951 . S
H1817 C1843 0.950 . S
H1818 C1844 0.950 . S
H1819 C1846 0.950 . S
H1820 C1849 0.950 . S
H1821 C1850 0.950 . S
H1822 C1852 0.950 . S
H1823 C1853 0.950 . S
C1824 H1806 0.951 . S
C1824 C1825 1.366 . S
C1824 C1826 1.388 . S
C1825 C1824 1.366 . S
C1825 C1829 1.385 . S
C1826 H1807 0.951 . S
C1826 C1824 1.388 . S
C1826 C1827 1.366 . S
C1827 C1826 1.366 . S
C1827 C1828 1.414 . S
C1827 C1830 1.499 . S
C1828 H1808 0.950 . S
C1828 C1827 1.414 . S
C1828 C1829 1.374 . S
C1829 H1809 0.950 . S
C1829 C1825 1.385 . S
C1829 C1828 1.374 . S
C1830 C1827 1.499 . S
C1830 C1831 1.373 . S
C1830 C1832 1.389 . S
C1831 H1810 0.950 . S
C1831 C1830 1.373 . S
C1831 C1847 1.377 . S
C1832 C1830 1.389 . S
C1832 C1833 1.524 . S
C1832 C1846 1.377 . S
C1833 C1832 1.524 . S
C1833 C1834 1.397 . S
C1833 C1838 1.363 . S
C1834 H1811 0.950 . S
C1834 C1833 1.397 . S
C1834 C1835 1.334 . S
C1835 H1812 0.950 . S
C1835 C1834 1.334 . S
C1835 C1836 1.287 . S
C1836 C1835 1.287 . S
C1836 C1837 1.524 . S
C1836 H1855 0.913 . S
C1837 H1813 0.950 . S
C1837 C1836 1.524 . S
C1837 C1838 1.415 . S
C1838 H1814 0.950 . S
C1838 C1833 1.363 . S
C1838 C1837 1.415 . S
C1839 H1815 0.951 . S
C1839 C1840 1.366 . S
C1839 C1841 1.388 . S
C1840 C1839 1.366 . S
C1840 C1844 1.385 . S
C1841 H1816 0.951 . S
C1841 C1839 1.388 . S
C1841 C1842 1.366 . S
C1842 C1841 1.366 . S
C1842 C1843 1.414 . S
C1842 C1845 1.499 . S
C1843 H1817 0.950 . S
C1843 C1842 1.414 . S
C1843 C1844 1.374 . S
C1844 H1818 0.950 . S
C1844 C1840 1.385 . S
C1844 C1843 1.374 . S
C1845 C1842 1.499 . S
C1845 C1846 1.373 . S
C1845 C1847 1.389 . S
C1846 H1819 0.950 . S
C1846 C1832 1.377 . S
C1846 C1845 1.373 . S
C1847 C1831 1.377 . S
C1847 C1845 1.389 . S
C1847 C1848 1.524 . S
C1848 C1847 1.524 . S
C1848 C1849 1.397 . S
C1848 C1853 1.363 . S
C1849 H1820 0.950 . S
C1849 C1848 1.397 . S
C1849 C1850 1.334 . S
C1850 H1821 0.950 . S
C1850 C1849 1.334 . S
C1850 C1851 1.287 . S
C1851 C1850 1.287 . S
C1851 C1852 1.524 . S
C1851 H1854 0.999 . S
C1852 H1822 0.950 . S
C1852 C1851 1.524 . S
C1852 C1853 1.415 . S
C1853 H1823 0.950 . S
C1853 C1848 1.363 . S
C1853 C1852 1.415 . S
H1854 C1851 0.999 . S
H1855 C1836 0.913 . S
H1856 C1874 0.951 . S
H1857 C1876 0.951 . S
H1858 C1878 0.950 . S
H1859 C1879 0.950 . S
H1860 C1881 0.950 . S
H1861 C1884 0.950 . S
H1862 C1885 0.950 . S
H1863 C1887 0.950 . S
H1864 C1888 0.950 . S
H1865 C1889 0.951 . S
H1866 C1891 0.951 . S
H1867 C1893 0.950 . S
H1868 C1894 0.950 . S
H1869 C1896 0.950 . S
H1870 C1899 0.950 . S
H1871 C1900 0.950 . S
H1872 C1902 0.950 . S
H1873 C1903 0.950 . S
C1874 H1856 0.951 . S
C1874 C1875 1.366 . S
C1874 C1876 1.388 . S
C1875 C1874 1.366 . S
C1875 C1879 1.385 . S
C1876 H1857 0.951 . S
C1876 C1874 1.388 . S
C1876 C1877 1.366 . S
C1877 C1876 1.366 . S
C1877 C1878 1.414 . S
C1877 C1880 1.499 . S
C1878 H1858 0.950 . S
C1878 C1877 1.414 . S
C1878 C1879 1.374 . S
C1879 H1859 0.950 . S
C1879 C1875 1.385 . S
C1879 C1878 1.374 . S
C1880 C1877 1.499 . S
C1880 C1881 1.373 . S
C1880 C1882 1.389 . S
C1881 H1860 0.950 . S
C1881 C1880 1.373 . S
C1881 C1897 1.377 . S
C1882 C1880 1.389 . S
C1882 C1883 1.524 . S
C1882 C1896 1.377 . S
C1883 C1882 1.524 . S
C1883 C1884 1.397 . S
C1883 C1888 1.363 . S
C1884 H1861 0.950 . S
C1884 C1883 1.397 . S
C1884 C1885 1.334 . S
C1885 H1862 0.950 . S
C1885 C1884 1.334 . S
C1885 C1886 1.287 . S
C1886 C1885 1.287 . S
C1886 C1887 1.524 . S
C1886 H1905 0.913 . S
C1887 H1863 0.950 . S
C1887 C1886 1.524 . S
C1887 C1888 1.415 . S
C1888 H1864 0.950 . S
C1888 C1883 1.363 . S
C1888 C1887 1.415 . S
C1889 H1865 0.951 . S
C1889 C1890 1.366 . S
C1889 C1891 1.388 . S
C1890 C1889 1.366 . S
C1890 C1894 1.385 . S
C1891 H1866 0.951 . S
C1891 C1889 1.388 . S
C1891 C1892 1.366 . S
C1892 C1891 1.366 . S
C1892 C1893 1.414 . S
C1892 C1895 1.499 . S
C1893 H1867 0.950 . S
C1893 C1892 1.414 . S
C1893 C1894 1.374 . S
C1894 H1868 0.950 . S
C1894 C1890 1.385 . S
C1894 C1893 1.374 . S
C1895 C1892 1.499 . S
C1895 C1896 1.373 . S
C1895 C1897 1.389 . S
C1896 H1869 0.950 . S
C1896 C1882 1.377 . S
C1896 C1895 1.373 . S
C1897 C1881 1.377 . S
C1897 C1895 1.389 . S
C1897 C1898 1.524 . S
C1898 C1897 1.524 . S
C1898 C1899 1.397 . S
C1898 C1903 1.363 . S
C1899 H1870 0.950 . S
C1899 C1898 1.397 . S
C1899 C1900 1.334 . S
C1900 H1871 0.950 . S
C1900 C1899 1.334 . S
C1900 C1901 1.287 . S
C1901 C1900 1.287 . S
C1901 C1902 1.524 . S
C1901 H1904 0.999 . S
C1902 H1872 0.950 . S
C1902 C1901 1.524 . S
C1902 C1903 1.415 . S
C1903 H1873 0.950 . S
C1903 C1898 1.363 . S
C1903 C1902 1.415 . S
H1904 C1901 0.999 . S
H1905 C1886 0.913 . S
H1906 C1924 0.951 . S
H1907 C1926 0.951 . S
H1908 C1928 0.950 . S
H1909 C1929 0.950 . S
H1910 C1931 0.950 . S
H1911 C1934 0.950 . S
H1912 C1935 0.950 . S
H1913 C1937 0.950 . S
H1914 C1938 0.950 . S
H1915 C1939 0.951 . S
H1916 C1941 0.951 . S
H1917 C1943 0.950 . S
H1918 C1944 0.950 . S
H1919 C1946 0.950 . S
H1920 C1949 0.950 . S
H1921 C1950 0.950 . S
H1922 C1952 0.950 . S
H1923 C1953 0.950 . S
C1924 H1906 0.951 . S
C1924 C1925 1.366 . S
C1924 C1926 1.388 . S
C1925 C1924 1.366 . S
C1925 C1929 1.385 . S
C1926 H1907 0.951 . S
C1926 C1924 1.388 . S
C1926 C1927 1.366 . S
C1927 C1926 1.366 . S
C1927 C1928 1.414 . S
C1927 C1930 1.499 . S
C1928 H1908 0.950 . S
C1928 C1927 1.414 . S
C1928 C1929 1.374 . S
C1929 H1909 0.950 . S
C1929 C1925 1.385 . S
C1929 C1928 1.374 . S
C1930 C1927 1.499 . S
C1930 C1931 1.373 . S
C1930 C1932 1.389 . S
C1931 H1910 0.950 . S
C1931 C1930 1.373 . S
C1931 C1947 1.377 . S
C1932 C1930 1.389 . S
C1932 C1933 1.524 . S
C1932 C1946 1.377 . S
C1933 C1932 1.524 . S
C1933 C1934 1.397 . S
C1933 C1938 1.363 . S
C1934 H1911 0.950 . S
C1934 C1933 1.397 . S
C1934 C1935 1.334 . S
C1935 H1912 0.950 . S
C1935 C1934 1.334 . S
C1935 C1936 1.287 . S
C1936 C1935 1.287 . S
C1936 C1937 1.524 . S
C1936 H1955 0.913 . S
C1937 H1913 0.950 . S
C1937 C1936 1.524 . S
C1937 C1938 1.415 . S
C1938 H1914 0.950 . S
C1938 C1933 1.363 . S
C1938 C1937 1.415 . S
C1939 H1915 0.951 . S
C1939 C1940 1.366 . S
C1939 C1941 1.388 . S
C1940 C1939 1.366 . S
C1940 C1944 1.385 . S
C1941 H1916 0.951 . S
C1941 C1939 1.388 . S
C1941 C1942 1.366 . S
C1942 C1941 1.366 . S
C1942 C1943 1.414 . S
C1942 C1945 1.499 . S
C1943 H1917 0.950 . S
C1943 C1942 1.414 . S
C1943 C1944 1.374 . S
C1944 H1918 0.950 . S
C1944 C1940 1.385 . S
C1944 C1943 1.374 . S
C1945 C1942 1.499 . S
C1945 C1946 1.373 . S
C1945 C1947 1.389 . S
C1946 H1919 0.950 . S
C1946 C1932 1.377 . S
C1946 C1945 1.373 . S
C1947 C1931 1.377 . S
C1947 C1945 1.389 . S
C1947 C1948 1.524 . S
C1948 C1947 1.524 . S
C1948 C1949 1.397 . S
C1948 C1953 1.363 . S
C1949 H1920 0.950 . S
C1949 C1948 1.397 . S
C1949 C1950 1.334 . S
C1950 H1921 0.950 . S
C1950 C1949 1.334 . S
C1950 C1951 1.287 . S
C1951 C1950 1.287 . S
C1951 C1952 1.524 . S
C1951 H1954 0.999 . S
C1952 H1922 0.950 . S
C1952 C1951 1.524 . S
C1952 C1953 1.415 . S
C1953 H1923 0.950 . S
C1953 C1948 1.363 . S
C1953 C1952 1.415 . S
H1954 C1951 0.999 . S
H1955 C1936 0.913 . S
H1956 C1974 0.951 . S
H1957 C1976 0.951 . S
H1958 C1978 0.950 . S
H1959 C1979 0.950 . S
H1960 C1981 0.950 . S
H1961 C1984 0.950 . S
H1962 C1985 0.950 . S
H1963 C1987 0.950 . S
H1964 C1988 0.950 . S
H1965 C1989 0.951 . S
H1966 C1991 0.951 . S
H1967 C1993 0.950 . S
H1968 C1994 0.950 . S
H1969 C1996 0.950 . S
H1970 C1999 0.950 . S
H1971 C2000 0.950 . S
H1972 C2002 0.950 . S
H1973 C2003 0.950 . S
C1974 H1956 0.951 . S
C1974 C1975 1.366 . S
C1974 C1976 1.388 . S
C1975 C1974 1.366 . S
C1975 C1979 1.385 . S
C1976 H1957 0.951 . S
C1976 C1974 1.388 . S
C1976 C1977 1.366 . S
C1977 C1976 1.366 . S
C1977 C1978 1.414 . S
C1977 C1980 1.499 . S
C1978 H1958 0.950 . S
C1978 C1977 1.414 . S
C1978 C1979 1.374 . S
C1979 H1959 0.950 . S
C1979 C1975 1.385 . S
C1979 C1978 1.374 . S
C1980 C1977 1.499 . S
C1980 C1981 1.373 1_554 S
C1980 C1982 1.389 1_455 S
C1981 H1960 0.950 . S
C1981 C1980 1.373 1_556 S
C1981 C1997 1.377 . S
C1982 C1980 1.389 1_655 S
C1982 C1983 1.524 . S
C1982 C1996 1.377 . S
C1983 C1982 1.524 . S
C1983 C1984 1.397 . S
C1983 C1988 1.363 . S
C1984 H1961 0.950 . S
C1984 C1983 1.397 . S
C1984 C1985 1.334 . S
C1985 H1962 0.950 . S
C1985 C1984 1.334 . S
C1985 C1986 1.287 . S
C1986 C1985 1.287 . S
C1986 C1987 1.524 . S
C1986 H2005 0.913 . S
C1987 H1963 0.950 . S
C1987 C1986 1.524 . S
C1987 C1988 1.415 . S
C1988 H1964 0.950 . S
C1988 C1983 1.363 . S
C1988 C1987 1.415 . S
C1989 H1965 0.951 . S
C1989 C1990 1.366 . S
C1989 C1991 1.388 . S
C1990 C1989 1.366 . S
C1990 C1994 1.385 . S
C1991 H1966 0.951 . S
C1991 C1989 1.388 . S
C1991 C1992 1.366 . S
C1992 C1991 1.366 . S
C1992 C1993 1.414 . S
C1992 C1995 1.499 . S
C1993 H1967 0.950 . S
C1993 C1992 1.414 . S
C1993 C1994 1.374 . S
C1994 H1968 0.950 . S
C1994 C1990 1.385 . S
C1994 C1993 1.374 . S
C1995 C1992 1.499 . S
C1995 C1996 1.373 1_556 S
C1995 C1997 1.389 1_655 S
C1996 H1969 0.950 . S
C1996 C1982 1.377 . S
C1996 C1995 1.373 1_554 S
C1997 C1981 1.377 . S
C1997 C1995 1.389 1_455 S
C1997 C1998 1.524 . S
C1998 C1997 1.524 . S
C1998 C1999 1.397 . S
C1998 C2003 1.363 . S
C1999 H1970 0.950 . S
C1999 C1998 1.397 . S
C1999 C2000 1.334 . S
C2000 H1971 0.950 . S
C2000 C1999 1.334 . S
C2000 C2001 1.287 . S
C2001 C2000 1.287 . S
C2001 C2002 1.524 . S
C2001 H2004 0.999 . S
C2002 H1972 0.950 . S
C2002 C2001 1.524 . S
C2002 C2003 1.415 . S
C2003 H1973 0.950 . S
C2003 C1998 1.363 . S
C2003 C2002 1.415 . S
H2004 C2001 0.999 . S
H2005 C1986 0.913 . S
H2006 C2024 0.951 . S
H2007 C2026 0.951 . S
H2008 C2028 0.950 . S
H2009 C2029 0.950 . S
H2010 C2031 0.950 . S
H2011 C2034 0.950 . S
H2012 C2035 0.950 . S
H2013 C2037 0.950 . S
H2014 C2038 0.895 1_556 S
H2015 C2039 0.951 . S
H2016 C2041 0.951 . S
H2017 C2043 0.950 . S
H2018 C2044 0.950 . S
H2019 C2046 0.950 . S
H2020 C2049 0.950 . S
H2021 C2050 0.950 . S
H2022 C2052 0.950 . S
H2023 C2053 0.950 1_554 S
C2024 H2006 0.951 . S
C2024 C2025 1.366 . S
C2024 C2026 1.388 . S
C2025 C2024 1.366 . S
C2025 C2029 1.385 . S
C2026 H2007 0.951 . S
C2026 C2024 1.388 . S
C2026 C2027 1.366 . S
C2027 C2026 1.366 . S
C2027 C2028 1.414 . S
C2027 C2030 1.499 . S
C2028 H2008 0.950 . S
C2028 C2027 1.414 . S
C2028 C2029 1.374 . S
C2029 H2009 0.950 . S
C2029 C2025 1.385 . S
C2029 C2028 1.374 . S
C2030 C2027 1.499 . S
C2030 C2031 1.373 . S
C2030 C2032 1.389 . S
C2031 H2010 0.950 . S
C2031 C2030 1.373 . S
C2031 C2047 1.377 1_554 S
C2032 C2030 1.389 . S
C2032 C2033 1.524 . S
C2032 C2046 1.377 1_554 S
C2033 C2032 1.524 . S
C2033 C2034 1.397 . S
C2033 C2038 1.363 . S
C2034 H2011 0.950 . S
C2034 C2033 1.397 . S
C2034 C2035 1.334 . S
C2035 H2012 0.950 . S
C2035 C2034 1.334 . S
C2035 C2036 1.287 . S
C2036 C2035 1.287 . S
C2036 C2037 1.524 . S
C2036 H2055 0.913 . S
C2037 H2013 0.950 . S
C2037 C2036 1.524 . S
C2037 C2038 1.415 . S
C2038 H2014 0.895 1_554 S
C2038 C2033 1.363 . S
C2038 C2037 1.415 . S
C2039 H2015 0.951 . S
C2039 C2040 1.366 . S
C2039 C2041 1.388 . S
C2040 C2039 1.366 . S
C2040 C2044 1.385 . S
C2041 H2016 0.951 . S
C2041 C2039 1.388 . S
C2041 C2042 1.366 . S
C2042 C2041 1.366 . S
C2042 C2043 1.414 . S
C2042 C2045 1.499 . S
C2043 H2017 0.950 . S
C2043 C2042 1.414 . S
C2043 C2044 1.374 . S
C2044 H2018 0.950 . S
C2044 C2040 1.385 . S
C2044 C2043 1.374 . S
C2045 C2042 1.499 . S
C2045 C2046 1.373 . S
C2045 C2047 1.389 . S
C2046 H2019 0.950 . S
C2046 C2032 1.377 1_556 S
C2046 C2045 1.373 . S
C2047 C2031 1.377 1_556 S
C2047 C2045 1.389 . S
C2047 C2048 1.524 . S
C2048 C2047 1.524 . S
C2048 C2049 1.397 . S
C2048 C2053 1.363 . S
C2049 H2020 0.950 . S
C2049 C2048 1.397 . S
C2049 C2050 1.334 . S
C2050 H2021 0.950 . S
C2050 C2049 1.334 . S
C2050 C2051 1.287 . S
C2051 C2050 1.287 . S
C2051 C2052 1.524 . S
C2051 H2054 0.999 . S
C2052 H2022 0.950 . S
C2052 C2051 1.524 . S
C2052 C2053 1.415 . S
C2053 H2023 0.950 1_556 S
C2053 C2048 1.363 . S
C2053 C2052 1.415 . S
H2054 C2051 0.999 . S
H2055 C2036 0.913 . S
H2056 C2074 0.951 . S
H2057 C2076 0.951 1_545 S
H2058 C2078 0.950 . S
H2059 C2079 0.950 . S
H2060 C2081 0.950 . S
H2061 C2084 0.950 . S
H2062 C2085 0.950 . S
H2063 C2087 0.950 . S
H2064 C2088 0.950 . S
H2065 C2089 0.955 . S
H2066 C2091 0.951 1_565 S
H2067 C2093 0.950 . S
H2068 C2094 0.950 . S
H2069 C2096 0.950 . S
H2070 C2099 0.950 . S
H2071 C2100 0.950 . S
H2072 C2102 0.950 . S
H2073 C2103 0.950 . S
C2074 H2056 0.951 . S
C2074 C2075 1.366 . S
C2074 C2076 1.388 . S
C2075 C2074 1.366 . S
C2075 C2079 1.385 . S
C2076 H2057 0.951 1_565 S
C2076 C2074 1.388 . S
C2076 C2077 1.366 . S
C2077 C2076 1.366 . S
C2077 C2078 1.414 . S
C2077 C2080 1.499 . S
C2078 H2058 0.950 . S
C2078 C2077 1.414 . S
C2078 C2079 1.374 . S
C2079 H2059 0.950 . S
C2079 C2075 1.385 . S
C2079 C2078 1.374 . S
C2080 C2077 1.499 . S
C2080 C2081 1.373 . S
C2080 C2082 1.389 1_554 S
C2081 H2060 0.950 . S
C2081 C2080 1.373 . S
C2081 C2097 1.377 1_565 S
C2082 C2080 1.389 1_556 S
C2082 C2083 1.524 . S
C2082 C2096 1.377 1_565 S
C2083 C2082 1.524 . S
C2083 C2084 1.397 . S
C2083 C2088 1.363 1_565 S
C2084 H2061 0.950 . S
C2084 C2083 1.397 . S
C2084 C2085 1.334 . S
C2085 H2062 0.950 . S
C2085 C2084 1.334 . S
C2085 C2086 1.287 . S
C2086 C2085 1.287 . S
C2086 C2087 1.524 1_565 S
C2086 H2105 0.913 . S
C2087 H2063 0.950 . S
C2087 C2086 1.524 1_545 S
C2087 C2088 1.415 . S
C2088 H2064 0.950 . S
C2088 C2083 1.363 1_545 S
C2088 C2087 1.415 . S
C2089 H2065 0.955 . S
C2089 C2090 1.366 . S
C2089 C2091 1.388 . S
C2090 C2089 1.366 . S
C2090 C2094 1.385 . S
C2091 H2066 0.951 1_545 S
C2091 C2089 1.388 . S
C2091 C2092 1.366 . S
C2092 C2091 1.366 . S
C2092 C2093 1.414 . S
C2092 C2095 1.499 . S
C2093 H2067 0.950 . S
C2093 C2092 1.414 . S
C2093 C2094 1.374 . S
C2094 H2068 0.950 . S
C2094 C2090 1.385 . S
C2094 C2093 1.374 . S
C2095 C2092 1.499 . S
C2095 C2096 1.373 . S
C2095 C2097 1.389 1_556 S
C2096 H2069 0.950 . S
C2096 C2082 1.377 1_545 S
C2096 C2095 1.373 . S
C2097 C2081 1.377 1_545 S
C2097 C2095 1.389 1_554 S
C2097 C2098 1.524 . S
C2098 C2097 1.524 . S
C2098 C2099 1.397 . S
C2098 C2103 1.363 1_545 S
C2099 H2070 0.950 . S
C2099 C2098 1.397 . S
C2099 C2100 1.334 . S
C2100 H2071 0.950 . S
C2100 C2099 1.334 . S
C2100 C2101 1.287 . S
C2101 C2100 1.287 . S
C2101 C2102 1.524 1_545 S
C2101 H2104 0.999 . S
C2102 H2072 0.950 . S
C2102 C2101 1.524 1_565 S
C2102 C2103 1.415 . S
C2103 H2073 0.950 . S
C2103 C2098 1.363 1_565 S
C2103 C2102 1.415 . S
H2104 C2101 0.999 . S
H2105 C2086 0.913 . S
H2106 C2124 0.951 . S
H2107 C2126 0.951 . S
H2108 C2128 0.950 . S
H2109 C2129 0.950 1_545 S
H2110 C2131 0.950 . S
H2111 C2134 0.950 . S
H2112 C2135 0.950 . S
H2113 C2137 0.950 . S
H2114 C2138 0.950 . S
H2115 C2139 0.951 . S
H2116 C2141 0.951 . S
H2117 C2143 0.950 . S
H2118 C2144 0.950 1_565 S
H2119 C2146 0.950 . S
H2120 C2149 0.950 . S
H2121 C2150 0.950 . S
H2122 C2152 0.950 . S
H2123 C2153 0.950 . S
C2124 H2106 0.951 . S
C2124 C2125 1.366 . S
C2124 C2126 1.388 . S
C2125 C2124 1.366 . S
C2125 C2129 1.385 . S
C2126 H2107 0.951 . S
C2126 C2124 1.388 . S
C2126 C2127 1.366 . S
C2127 C2126 1.366 . S
C2127 C2128 1.414 1_565 S
C2127 C2130 1.499 . S
C2128 H2108 0.950 . S
C2128 C2127 1.414 1_545 S
C2128 C2129 1.374 1_545 S
C2129 H2109 0.950 1_565 S
C2129 C2125 1.385 . S
C2129 C2128 1.374 1_565 S
C2130 C2127 1.499 . S
C2130 C2131 1.373 1_565 S
C2130 C2132 1.389 . S
C2131 H2110 0.950 . S
C2131 C2130 1.373 1_545 S
C2131 C2147 1.377 . S
C2132 C2130 1.389 . S
C2132 C2133 1.524 . S
C2132 C2146 1.377 . S
C2133 C2132 1.524 . S
C2133 C2134 1.397 . S
C2133 C2138 1.363 . S
C2134 H2111 0.950 . S
C2134 C2133 1.397 . S
C2134 C2135 1.334 . S
C2135 H2112 0.950 . S
C2135 C2134 1.334 . S
C2135 C2136 1.287 . S
C2136 C2135 1.287 . S
C2136 C2137 1.524 . S
C2136 H2155 0.913 . S
C2137 H2113 0.950 . S
C2137 C2136 1.524 . S
C2137 C2138 1.415 . S
C2138 H2114 0.950 . S
C2138 C2133 1.363 . S
C2138 C2137 1.415 . S
C2139 H2115 0.951 . S
C2139 C2140 1.366 . S
C2139 C2141 1.388 . S
C2140 C2139 1.366 . S
C2140 C2144 1.385 . S
C2141 H2116 0.951 . S
C2141 C2139 1.388 . S
C2141 C2142 1.366 . S
C2142 C2141 1.366 . S
C2142 C2143 1.414 1_545 S
C2142 C2145 1.499 . S
C2143 H2117 0.950 . S
C2143 C2142 1.414 1_565 S
C2143 C2144 1.374 1_565 S
C2144 H2118 0.950 1_545 S
C2144 C2140 1.385 . S
C2144 C2143 1.374 1_545 S
C2145 C2142 1.499 . S
C2145 C2146 1.373 1_545 S
C2145 C2147 1.389 . S
C2146 H2119 0.950 . S
C2146 C2132 1.377 . S
C2146 C2145 1.373 1_565 S
C2147 C2131 1.377 . S
C2147 C2145 1.389 . S
C2147 C2148 1.524 . S
C2148 C2147 1.524 . S
C2148 C2149 1.397 . S
C2148 C2153 1.363 . S
C2149 H2120 0.950 . S
C2149 C2148 1.397 . S
C2149 C2150 1.334 . S
C2150 H2121 0.950 . S
C2150 C2149 1.334 . S
C2150 C2151 1.287 . S
C2151 C2150 1.287 . S
C2151 C2152 1.524 . S
C2151 H2154 0.999 . S
C2152 H2122 0.950 . S
C2152 C2151 1.524 . S
C2152 C2153 1.415 . S
C2153 H2123 0.950 . S
C2153 C2148 1.363 . S
C2153 C2152 1.415 . S
H2154 C2151 0.999 . S
H2155 C2136 0.913 . S
H2156 C2174 0.951 . S
H2157 C2176 0.951 . S
H2158 C2178 0.950 . S
H2159 C2179 0.950 . S
H2160 C2181 0.950 . S
H2161 C2184 0.950 . S
H2162 C2185 0.950 . S
H2163 C2187 0.950 . S
H2164 C2188 0.950 . S
H2165 C2189 0.951 . S
H2166 C2191 0.951 . S
H2167 C2193 0.950 . S
H2168 C2194 0.950 . S
H2169 C2196 0.950 . S
H2170 C2199 0.950 . S
H2171 C2200 0.950 . S
H2172 C2202 0.950 . S
H2173 C2203 0.950 . S
C2174 H2156 0.951 . S
C2174 C2175 1.366 . S
C2174 C2176 1.388 . S
C2175 C2174 1.366 . S
C2175 C2179 1.385 . S
C2176 H2157 0.951 . S
C2176 C2174 1.388 . S
C2176 C2177 1.366 . S
C2177 C2176 1.366 . S
C2177 C2178 1.414 . S
C2177 C2180 1.499 . S
C2178 H2158 0.950 . S
C2178 C2177 1.414 . S
C2178 C2179 1.374 . S
C2179 H2159 0.950 . S
C2179 C2175 1.385 . S
C2179 C2178 1.374 . S
C2180 C2177 1.499 . S
C2180 C2181 1.373 1_655 S
C2180 C2182 1.389 . S
C2181 H2160 0.950 . S
C2181 C2180 1.373 1_455 S
C2181 C2197 1.377 . S
C2182 C2180 1.389 . S
C2182 C2183 1.524 . S
C2182 C2196 1.377 . S
C2183 C2182 1.524 . S
C2183 C2184 1.397 . S
C2183 C2188 1.363 . S
C2184 H2161 0.950 . S
C2184 C2183 1.397 . S
C2184 C2185 1.334 . S
C2185 H2162 0.950 . S
C2185 C2184 1.334 . S
C2185 C2186 1.287 . S
C2186 C2185 1.287 . S
C2186 C2187 1.524 . S
C2186 H2205 0.913 . S
C2187 H2163 0.950 . S
C2187 C2186 1.524 . S
C2187 C2188 1.415 . S
C2188 H2164 0.950 . S
C2188 C2183 1.363 . S
C2188 C2187 1.415 . S
C2189 H2165 0.951 . S
C2189 C2190 1.366 . S
C2189 C2191 1.388 . S
C2190 C2189 1.366 . S
C2190 C2194 1.385 . S
C2191 H2166 0.951 . S
C2191 C2189 1.388 . S
C2191 C2192 1.366 . S
C2192 C2191 1.366 . S
C2192 C2193 1.414 . S
C2192 C2195 1.499 . S
C2193 H2167 0.950 . S
C2193 C2192 1.414 . S
C2193 C2194 1.374 . S
C2194 H2168 0.950 . S
C2194 C2190 1.385 . S
C2194 C2193 1.374 . S
C2195 C2192 1.499 . S
C2195 C2196 1.373 1_455 S
C2195 C2197 1.389 . S
C2196 H2169 0.950 . S
C2196 C2182 1.377 . S
C2196 C2195 1.373 1_655 S
C2197 C2181 1.377 . S
C2197 C2195 1.389 . S
C2197 C2198 1.524 . S
C2198 C2197 1.524 . S
C2198 C2199 1.397 . S
C2198 C2203 1.363 . S
C2199 H2170 0.950 . S
C2199 C2198 1.397 . S
C2199 C2200 1.334 . S
C2200 H2171 0.950 . S
C2200 C2199 1.334 . S
C2200 C2201 1.287 . S
C2201 C2200 1.287 . S
C2201 C2202 1.524 . S
C2201 H2204 0.999 . S
C2202 H2172 0.950 . S
C2202 C2201 1.524 . S
C2202 C2203 1.415 . S
C2203 H2173 0.950 . S
C2203 C2198 1.363 . S
C2203 C2202 1.415 . S
H2204 C2201 0.999 . S
H2205 C2186 0.913 . S
H2206 C2224 0.951 . S
H2207 C2226 0.951 . S
H2208 C2228 0.950 . S
H2209 C2229 0.950 . S
H2210 C2231 0.950 . S
H2211 C2234 0.950 . S
H2212 C2235 0.950 . S
H2213 C2237 0.950 . S
H2214 C2238 0.950 . S
H2215 C2239 0.951 . S
H2216 C2241 0.951 . S
H2217 C2243 0.950 . S
H2218 C2244 0.950 . S
H2219 C2246 0.950 . S
H2220 C2249 0.950 . S
H2221 C2250 0.950 . S
H2222 C2252 0.950 . S
H2223 C2253 0.950 . S
C2224 H2206 0.951 . S
C2224 C2225 1.366 . S
C2224 C2226 1.388 . S
C2225 C2224 1.366 . S
C2225 C2229 1.385 . S
C2226 H2207 0.951 . S
C2226 C2224 1.388 . S
C2226 C2227 1.366 . S
C2227 C2226 1.366 . S
C2227 C2228 1.414 . S
C2227 C2230 1.499 . S
C2228 H2208 0.950 . S
C2228 C2227 1.414 . S
C2228 C2229 1.374 . S
C2229 H2209 0.950 . S
C2229 C2225 1.385 . S
C2229 C2228 1.374 . S
C2230 C2227 1.499 . S
C2230 C2231 1.373 . S
C2230 C2232 1.389 . S
C2231 H2210 0.950 . S
C2231 C2230 1.373 . S
C2231 C2247 1.377 . S
C2232 C2230 1.389 . S
C2232 C2233 1.524 . S
C2232 C2246 1.377 . S
C2233 C2232 1.524 . S
C2233 C2234 1.397 . S
C2233 C2238 1.363 . S
C2234 H2211 0.950 . S
C2234 C2233 1.397 . S
C2234 C2235 1.334 . S
C2235 H2212 0.950 . S
C2235 C2234 1.334 . S
C2235 C2236 1.287 . S
C2236 C2235 1.287 . S
C2236 C2237 1.524 . S
C2236 H2255 0.913 . S
C2237 H2213 0.950 . S
C2237 C2236 1.524 . S
C2237 C2238 1.415 . S
C2238 H2214 0.950 . S
C2238 C2233 1.363 . S
C2238 C2237 1.415 . S
C2239 H2215 0.951 . S
C2239 C2240 1.366 . S
C2239 C2241 1.388 . S
C2240 C2239 1.366 . S
C2240 C2244 1.385 . S
C2241 H2216 0.951 . S
C2241 C2239 1.388 . S
C2241 C2242 1.366 . S
C2242 C2241 1.366 . S
C2242 C2243 1.414 . S
C2242 C2245 1.499 . S
C2243 H2217 0.950 . S
C2243 C2242 1.414 . S
C2243 C2244 1.374 . S
C2244 H2218 0.950 . S
C2244 C2240 1.385 . S
C2244 C2243 1.374 . S
C2245 C2242 1.499 . S
C2245 C2246 1.373 . S
C2245 C2247 1.389 . S
C2246 H2219 0.950 . S
C2246 C2232 1.377 . S
C2246 C2245 1.373 . S
C2247 C2231 1.377 . S
C2247 C2245 1.389 . S
C2247 C2248 1.524 . S
C2248 C2247 1.524 . S
C2248 C2249 1.397 . S
C2248 C2253 1.363 . S
C2249 H2220 0.950 . S
C2249 C2248 1.397 . S
C2249 C2250 1.334 . S
C2250 H2221 0.950 . S
C2250 C2249 1.334 . S
C2250 C2251 1.287 . S
C2251 C2250 1.287 . S
C2251 C2252 1.524 . S
C2251 H2254 0.999 . S
C2252 H2222 0.950 . S
C2252 C2251 1.524 . S
C2252 C2253 1.415 . S
C2253 H2223 0.950 . S
C2253 C2248 1.363 . S
C2253 C2252 1.415 . S
H2254 C2251 0.999 . S
H2255 C2236 0.913 . S
C1075 C49 0.274 . S
C1090 C636 0.394 . S
C1125 C145 0.270 . S
C1140 C753 0.389 . S
C1175 C233 0.291 . S
C1190 C577 0.442 . S
C1225 C997 0.442 . S
C1240 C284 0.290 . S
C1275 C372 0.270 . S
C1290 C849 0.389 . S
C1325 C900 0.393 . S
C1340 C469 0.274 . S
C1375 C137 0.403 . S
C1390 C548 0.307 . S
C1425 C673 0.291 . S
C1440 C225 0.409 . S
C1475 C57 0.402 . S
C1490 C733 0.278 . S
C1525 C812 0.278 . S
C1540 C460 0.401 . S
C1575 C937 0.290 . S
C1590 C293 0.407 . S
C1625 C381 0.403 . S
C1640 C1025 0.308 . S
C1675 C489 2.331 . S
C1690 C29 2.331 . S
C1725 C108 2.336 . S
C1740 C321 2.337 . S
C1775 C196 2.336 . S
C1790 C409 2.336 . S
C1825 C585 2.343 . S
C1840 C988 2.343 . S
C1875 C665 2.321 . S
C1890 C821 2.322 . S
C1925 C724 2.322 . S
C1940 C929 2.321 . S
C1975 C20 1.768 . S
C1990 C557 1.774 . S
C2025 C117 1.756 . S
C2040 C645 1.750 . S
C2075 C205 1.756 . S
C2090 C761 1.750 . S
C2125 C313 1.755 . S
C2140 C841 1.750 . S
C2175 C909 1.750 . S
C2190 C401 1.756 . S
C2225 C497 1.768 . S
C2240 C1017 1.774 . S
