# Generated by pormake.
# Topology upb, (4)-cn, num edge types: 1
# Building blocks:
#     Node 0, Type 0, BuildingBlock: TATPOV_clean_sbu_0, # of connection points: 4
#     Node 1, Type 0, BuildingBlock: TATPOV_clean_sbu_0, # of connection points: 4
#     Node 2, Type 0, BuildingBlock: TATPOV_clean_sbu_0, # of connection points: 4
#     Node 3, Type 0, BuildingBlock: TATPOV_clean_sbu_0, # of connection points: 4
#     Node 4, Type 0, BuildingBlock: TATPOV_clean_sbu_0, # of connection points: 4
#     Node 5, Type 0, BuildingBlock: TATPOV_clean_sbu_0, # of connection points: 4
#     Node 6, Type 0, BuildingBlock: TATPOV_clean_sbu_0, # of connection points: 4
#     Node 7, Type 0, BuildingBlock: TATPOV_clean_sbu_0, # of connection points: 4
#     Node 8, Type 0, BuildingBlock: TATPOV_clean_sbu_0, # of connection points: 4
#     Node 9, Type 0, BuildingBlock: TATPOV_clean_sbu_0, # of connection points: 4
#     Node 10, Type 0, BuildingBlock: TATPOV_clean_sbu_0, # of connection points: 4
#     Node 11, Type 0, BuildingBlock: TATPOV_clean_sbu_0, # of connection points: 4
#     Node 12, Type 0, BuildingBlock: TATPOV_clean_sbu_0, # of connection points: 4
#     Node 13, Type 0, BuildingBlock: TATPOV_clean_sbu_0, # of connection points: 4
#     Node 14, Type 0, BuildingBlock: TATPOV_clean_sbu_0, # of connection points: 4
#     Node 15, Type 0, BuildingBlock: TATPOV_clean_sbu_0, # of connection points: 4
#     Edge 16, Type (0, 0), BuildingBlock: XUDNAN_clean_linker_2, # of connection points: 2
#     Edge 17, Type (0, 0), BuildingBlock: XUDNAN_clean_linker_2, # of connection points: 2
#     Edge 18, Type (0, 0), BuildingBlock: XUDNAN_clean_linker_2, # of connection points: 2
#     Edge 19, Type (0, 0), BuildingBlock: XUDNAN_clean_linker_2, # of connection points: 2
#     Edge 20, Type (0, 0), BuildingBlock: XUDNAN_clean_linker_2, # of connection points: 2
#     Edge 21, Type (0, 0), BuildingBlock: XUDNAN_clean_linker_2, # of connection points: 2
#     Edge 22, Type (0, 0), BuildingBlock: XUDNAN_clean_linker_2, # of connection points: 2
#     Edge 23, Type (0, 0), BuildingBlock: XUDNAN_clean_linker_2, # of connection points: 2
#     Edge 24, Type (0, 0), BuildingBlock: XUDNAN_clean_linker_2, # of connection points: 2
#     Edge 25, Type (0, 0), BuildingBlock: XUDNAN_clean_linker_2, # of connection points: 2
#     Edge 26, Type (0, 0), BuildingBlock: XUDNAN_clean_linker_2, # of connection points: 2
#     Edge 27, Type (0, 0), BuildingBlock: XUDNAN_clean_linker_2, # of connection points: 2
#     Edge 28, Type (0, 0), BuildingBlock: XUDNAN_clean_linker_2, # of connection points: 2
#     Edge 29, Type (0, 0), BuildingBlock: XUDNAN_clean_linker_2, # of connection points: 2
#     Edge 30, Type (0, 0), BuildingBlock: XUDNAN_clean_linker_2, # of connection points: 2
#     Edge 31, Type (0, 0), BuildingBlock: XUDNAN_clean_linker_2, # of connection points: 2
#     Edge 32, Type (0, 0), BuildingBlock: XUDNAN_clean_linker_2, # of connection points: 2
#     Edge 33, Type (0, 0), BuildingBlock: XUDNAN_clean_linker_2, # of connection points: 2
#     Edge 34, Type (0, 0), BuildingBlock: XUDNAN_clean_linker_2, # of connection points: 2
#     Edge 35, Type (0, 0), BuildingBlock: XUDNAN_clean_linker_2, # of connection points: 2
#     Edge 36, Type (0, 0), BuildingBlock: XUDNAN_clean_linker_2, # of connection points: 2
#     Edge 37, Type (0, 0), BuildingBlock: XUDNAN_clean_linker_2, # of connection points: 2
#     Edge 38, Type (0, 0), BuildingBlock: XUDNAN_clean_linker_2, # of connection points: 2
#     Edge 39, Type (0, 0), BuildingBlock: XUDNAN_clean_linker_2, # of connection points: 2
#     Edge 40, Type (0, 0), BuildingBlock: XUDNAN_clean_linker_2, # of connection points: 2
#     Edge 41, Type (0, 0), BuildingBlock: XUDNAN_clean_linker_2, # of connection points: 2
#     Edge 42, Type (0, 0), BuildingBlock: XUDNAN_clean_linker_2, # of connection points: 2
#     Edge 43, Type (0, 0), BuildingBlock: XUDNAN_clean_linker_2, # of connection points: 2
#     Edge 44, Type (0, 0), BuildingBlock: XUDNAN_clean_linker_2, # of connection points: 2
#     Edge 45, Type (0, 0), BuildingBlock: XUDNAN_clean_linker_2, # of connection points: 2
#     Edge 46, Type (0, 0), BuildingBlock: XUDNAN_clean_linker_2, # of connection points: 2
#     Edge 47, Type (0, 0), BuildingBlock: XUDNAN_clean_linker_2, # of connection points: 2
# Relax obj value: 0.237
# Max RMSD: 0.114
# Mean RMSD: 0.114
data_MOF--net-upb--node1-TATPOV_clean_sbu_0--edge1-XUDNAN_clean_linker_2
_symmetry_space_group_name_H-M    P1
_symmetry_Int_Tables_number       1
_symmetry_cell_setting            triclinic
loop_
_symmetry_equiv_pos_as_xyz
'x, y, z'
_cell_length_a     39.897526
_cell_length_b     39.899382
_cell_length_c     44.833191
_cell_angle_alpha  90.008291
_cell_angle_beta   89.975384
_cell_angle_gamma 89.977381
loop_
_atom_site_label
_atom_site_type_symbol
_atom_site_fract_x
_atom_site_fract_y
_atom_site_fract_z
_atom_type_partial_charge
Zn0 Zn 0.00782 0.20016 0.33884 0.0
Zn1 Zn 0.01708 0.26188 0.3214 0.0
O2 O 0.01857 0.26669 0.36746 0.0
O3 O 0.0159 0.21391 0.38141 0.0
O4 O 0.02845 0.30781 0.30586 0.0
O5 O 0.04459 0.18214 0.31342 0.0
O6 O 0.05649 0.2346 0.30273 0.0
C7 C 0.01847 0.24465 0.38807 0.0
C8 C 0.95059 0.2263 0.30881 0.0
O9 O 0.96894 0.25221 0.30547 0.0
O10 O 0.96135 0.20103 0.32285 0.0
C11 C 0.02411 0.33564 0.31912 0.0
O12 O 0.00909 0.33617 0.3452 0.0
C13 C 0.06307 0.20343 0.30058 0.0
Zn14 Zn 0.76319 0.04466 0.37758 0.0
Zn15 Zn 0.72269 0.03209 0.33354 0.0
O16 O 0.69195 0.03058 0.37132 0.0
O17 O 0.72628 0.04594 0.40721 0.0
O18 O 0.68943 0.03154 0.2998 0.0
O19 O 0.77983 0.08786 0.36136 0.0
O20 O 0.7477 0.07655 0.32284 0.0
C21 C 0.69728 0.03772 0.39863 0.0
C22 C 0.77728 0.98178 0.34628 0.0
O23 O 0.75256 0.98991 0.32973 0.0
O24 O 0.78606 0.00086 0.36752 0.0
C25 C 0.66015 0.019 0.30062 0.0
O26 O 0.65111 0.00102 0.3238 0.0
C27 C 0.76871 0.09565 0.33591 0.0
Zn28 Zn 0.0015 0.77729 0.37678 0.0
Zn29 Zn 0.98215 0.73417 0.33712 0.0
O30 O 0.98575 0.70603 0.37632 0.0
O31 O 0.00164 0.74378 0.40926 0.0
O32 O 0.96476 0.69958 0.30843 0.0
O33 O 0.96166 0.80664 0.36976 0.0
O34 O 0.94472 0.77068 0.33582 0.0
C35 C 0.99406 0.71392 0.40286 0.0
C36 C 0.04993 0.76928 0.33043 0.0
O37 O 0.02811 0.74946 0.31937 0.0
O38 O 0.04425 0.78416 0.35482 0.0
C39 C 0.98049 0.6725 0.30319 0.0
O40 O 0.00991 0.66762 0.31561 0.0
C41 C 0.9404 0.79787 0.35034 0.0
Zn42 Zn 0.20012 0.98775 0.33809 0.0
Zn43 Zn 0.26143 0.98463 0.32079 0.0
O44 O 0.26603 0.9923 0.36667 0.0
O45 O 0.21349 0.00058 0.37944 0.0
O46 O 0.30873 0.97698 0.30592 0.0
O47 O 0.18942 0.94052 0.32855 0.0
O48 O 0.23935 0.93928 0.30762 0.0
C49 C 0.24418 0.99956 0.38644 0.0
C50 C 0.21473 0.03754 0.29466 0.0
O51 O 0.24475 0.02731 0.29838 0.0
O52 O 0.19077 0.02305 0.30787 0.0
C53 C 0.33485 0.97537 0.32214 0.0
O54 O 0.33245 0.98165 0.35082 0.0
C55 C 0.21132 0.92533 0.31338 0.0
Zn56 Zn 0.03569 0.77764 0.62028 0.0
Zn57 Zn 0.02194 0.73544 0.66239 0.0
O58 O 0.02006 0.70793 0.62275 0.0
O59 O 0.04121 0.74226 0.58937 0.0
O60 O 0.02191 0.69869 0.69347 0.0
O61 O 0.07612 0.79703 0.63932 0.0
O62 O 0.0656 0.76082 0.67514 0.0
C63 C 0.03014 0.71364 0.59627 0.0
C64 C 0.97066 0.78835 0.64983 0.0
O65 O 0.97926 0.76436 0.66706 0.0
O66 O 0.98992 0.79728 0.62875 0.0
C67 C 0.04508 0.67751 0.68831 0.0
O68 O 0.06371 0.68153 0.6644 0.0
C69 C 0.08371 0.78401 0.66405 0.0
Zn70 Zn 0.1962 0.03044 0.65122 0.0
Zn71 Zn 0.25881 0.03069 0.66896 0.0
O72 O 0.26452 0.03092 0.62307 0.0
O73 O 0.21186 0.03231 0.60855 0.0
O74 O 0.30602 0.03564 0.68435 0.0
O75 O 0.1845 0.07186 0.67327 0.0
O76 O 0.23731 0.07389 0.6874 0.0
C77 C 0.2428 0.03178 0.60222 0.0
C78 C 0.21242 0.97161 0.68428 0.0
O79 O 0.24162 0.98465 0.68489 0.0
O80 O 0.18852 0.98666 0.67148 0.0
C81 C 0.31969 0.01829 0.7048 0.0
O82 O 0.30333 0.99284 0.71634 0.0
C83 C 0.2078 0.08618 0.68741 0.0
Zn84 Zn 0.99171 0.20502 0.65658 0.0
Zn85 Zn 0.98286 0.26809 0.67049 0.0
O86 O 0.98929 0.27146 0.62469 0.0
O87 O 0.99844 0.21849 0.61373 0.0
O88 O 0.97052 0.31493 0.68342 0.0
O89 O 0.94712 0.19009 0.67106 0.0
O90 O 0.93957 0.24275 0.68419 0.0
C91 C 0.99588 0.24875 0.60551 0.0
C92 C 0.04205 0.22874 0.69646 0.0
O93 O 0.02749 0.25689 0.69268 0.0
O94 O 0.03061 0.20256 0.68426 0.0
C95 C 0.98927 0.33701 0.69522 0.0
O96 O 0.02133 0.33074 0.69882 0.0
C97 C 0.92924 0.21254 0.68292 0.0
Zn98 Zn 0.76561 0.01055 0.6133 0.0
Zn99 Zn 0.72357 0.99266 0.65512 0.0
O100 O 0.69387 0.99676 0.61685 0.0
O101 O 0.7303 0.01127 0.58224 0.0
O102 O 0.69007 0.97576 0.68518 0.0
O103 O 0.79389 0.96958 0.61995 0.0
O104 O 0.75911 0.95461 0.65555 0.0
C105 C 0.70062 0.00449 0.58992 0.0
C106 C 0.76163 0.05895 0.66045 0.0
O107 O 0.7416 0.0378 0.67223 0.0
O108 O 0.77474 0.05306 0.63529 0.0
C109 C 0.67649 0.94787 0.67868 0.0
O110 O 0.68506 0.93295 0.65368 0.0
C111 C 0.78544 0.94913 0.64017 0.0
Zn112 Zn 0.49365 0.70516 0.87328 0.0
Zn113 Zn 0.50784 0.75653 0.84283 0.0
O114 O 0.49369 0.77661 0.88378 0.0
O115 O 0.4726 0.73205 0.90584 0.0
O116 O 0.52303 0.79743 0.82037 0.0
O117 O 0.54081 0.68925 0.87646 0.0
O118 O 0.55101 0.7267 0.84176 0.0
C119 C 0.47809 0.76322 0.90554 0.0
C120 C 0.45544 0.70802 0.81998 0.0
O121 O 0.46752 0.73757 0.81866 0.0
O122 O 0.46503 0.688 0.84011 0.0
C123 C 0.53522 0.79485 0.7943 0.0
O124 O 0.53604 0.76525 0.78146 0.0
C125 C 0.56067 0.70197 0.85764 0.0
Zn126 Zn 0.29048 0.4993 0.86344 0.0
Zn127 Zn 0.23165 0.51167 0.84683 0.0
O128 O 0.2281 0.51259 0.89338 0.0
O129 O 0.28141 0.51205 0.90558 0.0
O130 O 0.18551 0.52519 0.83306 0.0
O131 O 0.31155 0.53169 0.83521 0.0
O132 O 0.2603 0.54985 0.82776 0.0
C133 C 0.25099 0.51412 0.91325 0.0
C134 C 0.26255 0.44296 0.83512 0.0
O135 O 0.23965 0.46402 0.82852 0.0
O136 O 0.28642 0.45144 0.85201 0.0
C137 C 0.18026 0.52573 0.80512 0.0
O138 O 0.20399 0.51498 0.78715 0.0
C139 C 0.29178 0.5527 0.82358 0.0
Zn140 Zn 0.4842 0.29872 0.83002 0.0
Zn141 Zn 0.47934 0.23822 0.81035 0.0
O142 O 0.48622 0.22878 0.85531 0.0
O143 O 0.49777 0.28008 0.87001 0.0
O144 O 0.47221 0.19304 0.79133 0.0
O145 O 0.4363 0.30974 0.82254 0.0
O146 O 0.43345 0.26073 0.80015 0.0
C147 C 0.49516 0.2491 0.87576 0.0
C148 C 0.53405 0.28631 0.78743 0.0
O149 O 0.52294 0.25656 0.7907 0.0
O150 O 0.51949 0.31059 0.80008 0.0
C151 C 0.47719 0.1645 0.80314 0.0
O152 O 0.49032 0.16271 0.82995 0.0
C153 C 0.41995 0.28844 0.80765 0.0
Zn154 Zn 0.72721 0.455 0.87034 0.0
Zn155 Zn 0.77262 0.46903 0.83114 0.0
O156 O 0.79827 0.46415 0.87174 0.0
O157 O 0.75967 0.44582 0.90268 0.0
O158 O 0.81023 0.47013 0.80111 0.0
O159 O 0.70772 0.41639 0.84847 0.0
O160 O 0.7446 0.42914 0.81383 0.0
C161 C 0.78976 0.4538 0.89758 0.0
C162 C 0.72268 0.52284 0.84518 0.0
O163 O 0.74737 0.51407 0.82885 0.0
O164 O 0.71052 0.50244 0.86399 0.0
C165 C 0.83954 0.48138 0.80593 0.0
O166 O 0.84579 0.49705 0.83109 0.0
C167 C 0.72054 0.41091 0.8232 0.0
Zn168 Zn 0.49953 0.28981 0.13711 0.0
Zn169 Zn 0.51889 0.23401 0.15835 0.0
O170 O 0.51728 0.2246 0.11252 0.0
O171 O 0.50937 0.27567 0.09547 0.0
O172 O 0.53613 0.19059 0.17548 0.0
O173 O 0.53359 0.31597 0.15985 0.0
O174 O 0.55616 0.26759 0.17184 0.0
C175 C 0.51494 0.24496 0.09066 0.0
C176 C 0.44915 0.26201 0.17312 0.0
O177 O 0.47255 0.24132 0.1792 0.0
O178 O 0.45363 0.28458 0.15378 0.0
C179 C 0.51824 0.16527 0.18202 0.0
O180 O 0.48575 0.16636 0.17736 0.0
C181 C 0.55701 0.29957 0.172 0.0
Zn182 Zn 0.72144 0.51722 0.11973 0.0
Zn183 Zn 0.76868 0.52559 0.1566 0.0
O184 O 0.79442 0.51617 0.11697 0.0
O185 O 0.7526 0.49921 0.08878 0.0
O186 O 0.80557 0.53807 0.18501 0.0
O187 O 0.70708 0.5652 0.1195 0.0
O188 O 0.73975 0.5691 0.15869 0.0
C189 C 0.78366 0.50359 0.09266 0.0
C190 C 0.71599 0.47265 0.16899 0.0
O191 O 0.74544 0.48337 0.17465 0.0
O192 O 0.69922 0.48534 0.14788 0.0
C193 C 0.83434 0.52447 0.18635 0.0
O194 O 0.84099 0.49845 0.16939 0.0
C195 C 0.71766 0.58187 0.14154 0.0
Zn196 Zn 0.46541 0.71903 0.14308 0.0
Zn197 Zn 0.47173 0.77223 0.17293 0.0
O198 O 0.46173 0.78809 0.12977 0.0
O199 O 0.44233 0.74209 0.10906 0.0
O200 O 0.46964 0.81568 0.19551 0.0
O201 O 0.43888 0.69536 0.1743 0.0
O202 O 0.43421 0.74517 0.19485 0.0
C203 C 0.44787 0.77323 0.10787 0.0
C204 C 0.53341 0.73095 0.1607 0.0
O205 O 0.52015 0.75338 0.17723 0.0
O206 O 0.51543 0.71462 0.14254 0.0
C207 C 0.48251 0.82156 0.22089 0.0
O208 O 0.50152 0.79869 0.23348 0.0
C209 C 0.42615 0.71428 0.19383 0.0
Zn210 Zn 0.31018 0.4818 0.17751 0.0
Zn211 Zn 0.24826 0.47844 0.19577 0.0
O212 O 0.24111 0.48578 0.15057 0.0
O213 O 0.2935 0.48917 0.13555 0.0
O214 O 0.20159 0.47089 0.2117 0.0
O215 O 0.32251 0.4366 0.1923 0.0
O216 O 0.26994 0.43222 0.20666 0.0
C217 C 0.26244 0.48993 0.12971 0.0
C218 C 0.29565 0.53397 0.21837 0.0
O219 O 0.2662 0.52153 0.21725 0.0
O220 O 0.31926 0.52065 0.20377 0.0
C221 C 0.1865 0.48752 0.23185 0.0
O222 O 0.20092 0.51415 0.24333 0.0
C223 C 0.29931 0.41985 0.20432 0.0
H224 H 0.06741 0.14896 0.26551 0.0
H225 H 0.12664 0.22917 0.30311 0.0
H226 H 0.17857 0.19853 0.29002 0.0
H227 H 0.10596 0.08748 0.29515 0.0
H228 H 0.10447 0.05798 0.26471 0.0
H229 H 0.07404 0.09072 0.2668 0.0
H230 H 0.09061 0.11082 0.21385 0.0
H231 H 0.12139 0.07778 0.2116 0.0
H232 H 0.13372 0.12071 0.20567 0.0
H233 H 0.22099 0.15256 0.28789 0.0
H234 H 0.24772 0.09764 0.29724 0.0
H235 H 0.16184 0.04767 0.25896 0.0
C236 C 0.09145 0.16073 0.26949 0.0
C237 C 0.09328 0.19128 0.28508 0.0
C238 C 0.12488 0.20597 0.29067 0.0
C239 C 0.15447 0.18869 0.28327 0.0
C240 C 0.15188 0.15728 0.26959 0.0
C241 C 0.12099 0.14389 0.26201 0.0
C242 C 0.12404 0.10767 0.25243 0.0
C243 C 0.10081 0.08467 0.27091 0.0
C244 C 0.11704 0.10405 0.21889 0.0
C245 C 0.16065 0.10151 0.25917 0.0
C246 C 0.17679 0.13067 0.26785 0.0
C247 C 0.20905 0.12986 0.28004 0.0
C248 C 0.22423 0.09855 0.28515 0.0
C249 C 0.2068 0.06867 0.27848 0.0
C250 C 0.17579 0.07037 0.26358 0.0
H251 H 0.8982 0.23679 0.34427 0.0
H252 H 0.92552 0.20867 0.25457 0.0
H253 H 0.86949 0.18359 0.24718 0.0
H254 H 0.86959 0.16596 0.36301 0.0
H255 H 0.83514 0.1784 0.38659 0.0
H256 H 0.8695 0.20643 0.38098 0.0
H257 H 0.82928 0.25254 0.36183 0.0
H258 H 0.79429 0.22476 0.368 0.0
H259 H 0.80063 0.24342 0.33182 0.0
H260 H 0.81931 0.14747 0.25473 0.0
H261 H 0.78208 0.10425 0.27639 0.0
H262 H 0.7889 0.153 0.3624 0.0
C263 C 0.89122 0.22758 0.32241 0.0
C264 C 0.91537 0.22563 0.29962 0.0
C265 C 0.90669 0.21153 0.27181 0.0
C266 C 0.87495 0.19705 0.26756 0.0
C267 C 0.85235 0.19691 0.29141 0.0
C268 C 0.85997 0.21244 0.31824 0.0
C269 C 0.83545 0.20257 0.34249 0.0
C270 C 0.85352 0.18742 0.36981 0.0
C271 C 0.81361 0.23261 0.35155 0.0
C272 C 0.81498 0.17661 0.32605 0.0
C273 C 0.82396 0.17469 0.29628 0.0
C274 C 0.81137 0.14947 0.27774 0.0
C275 C 0.79023 0.12499 0.29019 0.0
C276 C 0.78272 0.1255 0.32101 0.0
C277 C 0.79409 0.15239 0.33869 0.0
H278 H 0.82744 0.95718 0.38096 0.0
H279 H 0.77056 0.93506 0.30085 0.0
H280 H 0.80446 0.88346 0.29351 0.0
H281 H 0.90633 0.9319 0.35408 0.0
H282 H 0.91978 0.9149 0.38935 0.0
H283 H 0.8899 0.94866 0.38846 0.0
H284 H 0.84827 0.9131 0.41967 0.0
H285 H 0.87804 0.87919 0.42065 0.0
H286 H 0.83631 0.87206 0.40665 0.0
H287 H 0.84721 0.83441 0.29495 0.0
H288 H 0.89392 0.79466 0.30454 0.0
H289 H 0.92079 0.85136 0.38358 0.0
C290 C 0.82182 0.94156 0.36185 0.0
C291 C 0.79631 0.95027 0.34145 0.0
C292 C 0.78996 0.9289 0.31682 0.0
C293 C 0.80907 0.89955 0.31251 0.0
C294 C 0.83424 0.89194 0.3331 0.0
C295 C 0.84043 0.91246 0.35731 0.0
C296 C 0.86915 0.89971 0.37603 0.0
C297 C 0.89798 0.92531 0.37701 0.0
C298 C 0.85721 0.89046 0.40761 0.0
C299 C 0.87871 0.86894 0.35844 0.0
C300 C 0.85831 0.86448 0.33385 0.0
C301 C 0.86319 0.8377 0.31423 0.0
C302 C 0.88973 0.81523 0.31986 0.0
C303 C 0.91111 0.81991 0.34476 0.0
C304 C 0.90508 0.84701 0.36428 0.0
H305 H 0.11 0.77366 0.35668 0.0
H306 H 0.06069 0.78433 0.2714 0.0
H307 H 0.11026 0.81455 0.25181 0.0
H308 H 0.1345 0.84937 0.3633 0.0
H309 H 0.17456 0.84253 0.38091 0.0
H310 H 0.14245 0.81156 0.38421 0.0
H311 H 0.18224 0.76662 0.36214 0.0
H312 H 0.21486 0.7977 0.35891 0.0
H313 H 0.20226 0.77384 0.32667 0.0
H314 H 0.15543 0.85741 0.24719 0.0
H315 H 0.18986 0.90746 0.25814 0.0
H316 H 0.20996 0.86955 0.34651 0.0
C317 C 0.11056 0.78081 0.33338 0.0
C318 C 0.08194 0.77657 0.3154 0.0
C319 C 0.08278 0.7868 0.28527 0.0
C320 C 0.11087 0.80403 0.27405 0.0
C321 C 0.13796 0.8101 0.29314 0.0
C322 C 0.13824 0.79803 0.3221 0.0
C323 C 0.16665 0.81298 0.34007 0.0
C324 C 0.15373 0.83014 0.36875 0.0
C325 C 0.19308 0.78618 0.34737 0.0
C326 C 0.18016 0.83806 0.31785 0.0
C327 C 0.16434 0.83512 0.29045 0.0
C328 C 0.16892 0.85907 0.26807 0.0
C329 C 0.18864 0.88738 0.27437 0.0
C330 C 0.20319 0.89151 0.30284 0.0
C331 C 0.20013 0.86594 0.32423 0.0
H332 H 0.07847 0.83604 0.70129 0.0
H333 H 0.15015 0.7688 0.66094 0.0
H334 H 0.19644 0.80642 0.67609 0.0
H335 H 0.10847 0.90371 0.67238 0.0
H336 H 0.10141 0.9322 0.70297 0.0
H337 H 0.07629 0.89528 0.69963 0.0
H338 H 0.09349 0.87683 0.75287 0.0
H339 H 0.11869 0.91413 0.75651 0.0
H340 H 0.13725 0.87347 0.76241 0.0
H341 H 0.23205 0.85718 0.68329 0.0
H342 H 0.25194 0.91575 0.67897 0.0
H343 H 0.15674 0.95107 0.71285 0.0
C344 C 0.10418 0.82839 0.69749 0.0
C345 C 0.11115 0.7992 0.68104 0.0
C346 C 0.14467 0.79057 0.67454 0.0
C347 C 0.17104 0.81186 0.68305 0.0
C348 C 0.1633 0.84166 0.69793 0.0
C349 C 0.13053 0.8497 0.70541 0.0
C350 C 0.12762 0.88578 0.7155 0.0
C351 C 0.10199 0.90535 0.69646 0.0
C352 C 0.11875 0.88765 0.74881 0.0
C353 C 0.16309 0.89765 0.71002 0.0
C354 C 0.18374 0.87163 0.70112 0.0
C355 C 0.21641 0.87754 0.6911 0.0
C356 C 0.22762 0.91086 0.68879 0.0
C357 C 0.20585 0.93766 0.69581 0.0
C358 C 0.17395 0.93082 0.70787 0.0
H359 H 0.16204 0.09276 0.7305 0.0
H360 H 0.23236 0.149 0.67719 0.0
H361 H 0.20273 0.20151 0.69003 0.0
H362 H 0.09593 0.12437 0.70586 0.0
H363 H 0.07094 0.12649 0.73935 0.0
H364 H 0.10463 0.09722 0.73711 0.0
H365 H 0.13106 0.12235 0.78486 0.0
H366 H 0.09698 0.15196 0.78731 0.0
H367 H 0.1397 0.16663 0.78685 0.0
H368 H 0.15605 0.24225 0.6934 0.0
H369 H 0.09897 0.26467 0.68591 0.0
H370 H 0.05823 0.1832 0.73785 0.0
C371 C 0.17229 0.11654 0.72328 0.0
C372 C 0.19958 0.11724 0.70343 0.0
C373 C 0.21197 0.14827 0.69314 0.0
C374 C 0.19517 0.17818 0.70034 0.0
C375 C 0.16648 0.17653 0.71825 0.0
C376 C 0.15568 0.14639 0.73029 0.0
C377 C 0.12088 0.14951 0.74345 0.0
C378 C 0.09673 0.12288 0.73061 0.0
C379 C 0.12225 0.14751 0.77765 0.0
C380 C 0.11191 0.18458 0.73339 0.0
C381 C 0.13903 0.20052 0.72026 0.0
C382 C 0.13505 0.23062 0.70464 0.0
C383 C 0.10252 0.24341 0.70061 0.0
C384 C 0.07454 0.22571 0.71172 0.0
C385 C 0.07956 0.19744 0.72995 0.0
H386 H 0.87345 0.2141 0.64972 0.0
H387 H 0.91135 0.18572 0.73629 0.0
H388 H 0.85987 0.15287 0.7458 0.0
H389 H 0.77796 0.20935 0.66901 0.0
H390 H 0.76988 0.1917 0.6327 0.0
H391 H 0.80265 0.22239 0.63739 0.0
H392 H 0.84522 0.18117 0.61374 0.0
H393 H 0.81295 0.15049 0.60923 0.0
H394 H 0.85035 0.14004 0.62979 0.0
H395 H 0.81309 0.1119 0.74026 0.0
H396 H 0.77838 0.06609 0.71943 0.0
H397 H 0.77169 0.11956 0.63572 0.0
C398 C 0.86967 0.20271 0.67139 0.0
C399 C 0.89545 0.20324 0.69274 0.0
C400 C 0.89112 0.18646 0.72019 0.0
C401 C 0.86197 0.16772 0.7257 0.0
C402 C 0.83752 0.16603 0.70344 0.0
C403 C 0.84095 0.18354 0.67689 0.0
C404 C 0.81519 0.17244 0.65418 0.0
C405 C 0.78992 0.20065 0.64797 0.0
C406 C 0.83195 0.16029 0.62508 0.0
C407 C 0.79882 0.14394 0.671 0.0
C408 C 0.81093 0.14143 0.69982 0.0
C409 C 0.80265 0.11424 0.71809 0.0
C410 C 0.78282 0.08834 0.70617 0.0
C411 C 0.77228 0.08963 0.67612 0.0
C412 C 0.77907 0.11844 0.65894 0.0
H413 H 0.83761 0.92706 0.60638 0.0
H414 H 0.78285 0.90499 0.68767 0.0
H415 H 0.82262 0.85877 0.69863 0.0
H416 H 0.85827 0.84088 0.58712 0.0
H417 H 0.89889 0.85242 0.57282 0.0
H418 H 0.86463 0.88176 0.57095 0.0
H419 H 0.90031 0.92575 0.59934 0.0
H420 H 0.93457 0.89655 0.60142 0.0
H421 H 0.91805 0.91499 0.63506 0.0
H422 H 0.87197 0.81662 0.70161 0.0
H423 H 0.92425 0.78338 0.69575 0.0
H424 H 0.9443 0.83489 0.61237 0.0
C425 C 0.83364 0.91238 0.62639 0.0
C426 C 0.80713 0.91971 0.64619 0.0
C427 C 0.80294 0.89976 0.6721 0.0
C428 C 0.82543 0.87348 0.67851 0.0
C429 C 0.85171 0.86738 0.65865 0.0
C430 C 0.85559 0.88624 0.633 0.0
C431 C 0.88623 0.87582 0.61557 0.0
C432 C 0.8764 0.86189 0.5848 0.0
C433 C 0.91126 0.90501 0.61271 0.0
C434 C 0.89956 0.84855 0.63564 0.0
C435 C 0.87941 0.84367 0.66032 0.0
C436 C 0.88773 0.82015 0.68221 0.0
C437 C 0.91746 0.8014 0.67874 0.0
C438 C 0.93848 0.80651 0.65366 0.0
C439 C 0.92897 0.83026 0.63188 0.0
H440 H 0.59274 0.65975 0.89541 0.0
H441 H 0.60164 0.70557 0.8081 0.0
H442 H 0.65036 0.66896 0.79705 0.0
H443 H 0.6842 0.64433 0.90811 0.0
H444 H 0.67539 0.60509 0.92641 0.0
H445 H 0.64594 0.63924 0.92902 0.0
H446 H 0.59909 0.60053 0.90855 0.0
H447 H 0.62833 0.56649 0.90555 0.0
H448 H 0.60505 0.5798 0.8732 0.0
H449 H 0.69305 0.62069 0.79336 0.0
H450 H 0.72469 0.56727 0.79781 0.0
H451 H 0.68563 0.55429 0.88733 0.0
C452 C 0.60549 0.66283 0.87426 0.0
C453 C 0.59346 0.68551 0.85264 0.0
C454 C 0.61068 0.68858 0.82513 0.0
C455 C 0.63833 0.66783 0.81866 0.0
C456 C 0.64863 0.64461 0.84012 0.0
C457 C 0.63288 0.64248 0.86755 0.0
C458 C 0.6461 0.61359 0.88583 0.0
C459 C 0.66398 0.62634 0.91401 0.0
C460 C 0.61797 0.58865 0.89371 0.0
C461 C 0.67069 0.59868 0.86397 0.0
C462 C 0.67247 0.61708 0.8379 0.0
C463 C 0.69219 0.60647 0.81389 0.0
C464 C 0.71005 0.57612 0.81658 0.0
C465 C 0.70748 0.55659 0.84286 0.0
C466 C 0.68808 0.56858 0.86691 0.0
H467 H 0.45149 0.6503 0.78977 0.0
H468 H 0.3955 0.73956 0.81181 0.0
H469 H 0.34262 0.7101 0.80019 0.0
H470 H 0.38582 0.61297 0.73233 0.0
H471 H 0.39551 0.57166 0.74613 0.0
H472 H 0.42801 0.60295 0.74361 0.0
H473 H 0.44153 0.59376 0.79944 0.0
H474 H 0.40893 0.56329 0.80244 0.0
H475 H 0.40879 0.59925 0.8268 0.0
H476 H 0.29745 0.66695 0.80317 0.0
H477 H 0.26589 0.61632 0.81822 0.0
H478 H 0.35114 0.55463 0.79467 0.0
C479 C 0.42813 0.66414 0.79005 0.0
C480 C 0.42734 0.69712 0.80115 0.0
C481 C 0.39655 0.71452 0.80252 0.0
C482 C 0.36637 0.69781 0.79611 0.0
C483 C 0.36768 0.66405 0.78782 0.0
C484 C 0.39802 0.64768 0.78386 0.0
C485 C 0.39321 0.61021 0.78078 0.0
C486 C 0.40109 0.59878 0.74881 0.0
C487 C 0.41432 0.59055 0.80375 0.0
C488 C 0.35611 0.60758 0.78717 0.0
C489 C 0.3414 0.63885 0.78991 0.0
C490 C 0.30843 0.6424 0.80005 0.0
C491 C 0.29065 0.61351 0.80862 0.0
C492 C 0.30622 0.58169 0.8076 0.0
C493 C 0.33866 0.57872 0.79543 0.0
H494 H 0.27025 0.38518 0.86439 0.0
H495 H 0.26386 0.42727 0.7759 0.0
H496 H 0.2927 0.37749 0.75544 0.0
H497 H 0.34628 0.3662 0.86263 0.0
H498 H 0.3462 0.3272 0.88297 0.0
H499 H 0.31315 0.35668 0.8887 0.0
H500 H 0.26888 0.31199 0.87476 0.0
H501 H 0.302 0.28178 0.86947 0.0
H502 H 0.27235 0.28962 0.83996 0.0
H503 H 0.33805 0.33558 0.74796 0.0
H504 H 0.39209 0.30583 0.75422 0.0
H505 H 0.37034 0.29103 0.84765 0.0
C506 C 0.27288 0.38255 0.84046 0.0
C507 C 0.26447 0.40946 0.82159 0.0
C508 C 0.2693 0.40635 0.79053 0.0
C509 C 0.2859 0.37818 0.7788 0.0
C510 C 0.29688 0.35325 0.79846 0.0
C511 C 0.28965 0.35478 0.82868 0.0
C512 C 0.30979 0.32929 0.84615 0.0
C513 C 0.33005 0.34587 0.87153 0.0
C514 C 0.28689 0.30151 0.85829 0.0
C515 C 0.3323 0.31596 0.82175 0.0
C516 C 0.32362 0.32887 0.79412 0.0
C517 C 0.34421 0.32425 0.76919 0.0
C518 C 0.37485 0.3073 0.77285 0.0
C519 C 0.38461 0.29564 0.80127 0.0
C520 C 0.36256 0.29884 0.82557 0.0
H521 H 0.70264 0.34833 0.83959 0.0
H522 H 0.70098 0.41726 0.76519 0.0
H523 H 0.65981 0.38107 0.73939 0.0
H524 H 0.68516 0.26766 0.79241 0.0
H525 H 0.66026 0.25107 0.82254 0.0
H526 H 0.6965 0.27656 0.83052 0.0
H527 H 0.6595 0.31637 0.86217 0.0
H528 H 0.62342 0.2913 0.85426 0.0
H529 H 0.62306 0.33537 0.8454 0.0
H530 H 0.60709 0.34934 0.7308 0.0
H531 H 0.55204 0.32206 0.73811 0.0
H532 H 0.59089 0.26898 0.81457 0.0
C533 C 0.69487 0.3547 0.81715 0.0
C534 C 0.70499 0.38521 0.80414 0.0
C535 C 0.69391 0.39356 0.77517 0.0
C536 C 0.67049 0.37314 0.76042 0.0
C537 C 0.65936 0.34401 0.77462 0.0
C538 C 0.67209 0.33421 0.80199 0.0
C539 C 0.65295 0.30465 0.81456 0.0
C540 C 0.67504 0.27311 0.81502 0.0
C541 C 0.6389 0.31244 0.8459 0.0
C542 C 0.62535 0.30147 0.79157 0.0
C543 C 0.62979 0.32393 0.76833 0.0
C544 C 0.60414 0.33044 0.74791 0.0
C545 C 0.57296 0.31478 0.75209 0.0
C546 C 0.56799 0.29241 0.77608 0.0
C547 C 0.59492 0.28453 0.79509 0.0
H548 H 0.65253 0.46796 0.18836 0.0
H549 H 0.74519 0.41214 0.18216 0.0
H550 H 0.71437 0.35961 0.19323 0.0
H551 H 0.6093 0.41133 0.2465 0.0
H552 H 0.56971 0.41756 0.22796 0.0
H553 H 0.60034 0.45078 0.22859 0.0
H554 H 0.5978 0.454 0.17092 0.0
H555 H 0.56781 0.42063 0.16999 0.0
H556 H 0.60635 0.41687 0.14926 0.0
H557 H 0.67128 0.31259 0.19234 0.0
H558 H 0.62165 0.27723 0.18152 0.0
H559 H 0.55785 0.36478 0.18867 0.0
C560 C 0.66651 0.44485 0.19092 0.0
C561 C 0.70112 0.44394 0.18485 0.0
C562 C 0.71873 0.41333 0.18747 0.0
C563 C 0.70134 0.38339 0.1936 0.0
C564 C 0.6666 0.38483 0.19764 0.0
C565 C 0.64956 0.41507 0.1971 0.0
C566 C 0.61203 0.41 0.19763 0.0
C567 C 0.59697 0.42319 0.22692 0.0
C568 C 0.59506 0.42631 0.17033 0.0
C569 C 0.61039 0.37223 0.19624 0.0
C570 C 0.64195 0.35791 0.19703 0.0
C571 C 0.64645 0.32351 0.19255 0.0
C572 C 0.61814 0.30358 0.18639 0.0
C573 C 0.58594 0.3183 0.18425 0.0
C574 C 0.58213 0.35278 0.19032 0.0
H575 H 0.57231 0.70897 0.11571 0.0
H576 H 0.57435 0.73078 0.2103 0.0
H577 H 0.62984 0.7029 0.21419 0.0
H578 H 0.59901 0.63035 0.12022 0.0
H579 H 0.62384 0.63002 0.08663 0.0
H580 H 0.58943 0.65866 0.09005 0.0
H581 H 0.62909 0.70876 0.07962 0.0
H582 H 0.6638 0.68011 0.07584 0.0
H583 H 0.66616 0.7143 0.10205 0.0
H584 H 0.67918 0.66255 0.20895 0.0
H585 H 0.7163 0.61515 0.19539 0.0
H586 H 0.68072 0.62061 0.10419 0.0
C587 C 0.58502 0.70896 0.13706 0.0
C588 C 0.56926 0.72203 0.16269 0.0
C589 C 0.58632 0.72129 0.19033 0.0
C590 C 0.61779 0.70545 0.19269 0.0
C591 C 0.63193 0.69122 0.16708 0.0
C592 C 0.6162 0.69347 0.13967 0.0
C593 C 0.63384 0.67276 0.11621 0.0
C594 C 0.61012 0.6464 0.10252 0.0
C595 C 0.64914 0.69534 0.092 0.0
C596 C 0.66078 0.65666 0.13499 0.0
C597 C 0.65998 0.6681 0.16412 0.0
C598 C 0.6805 0.65406 0.18606 0.0
C599 C 0.70155 0.62715 0.17816 0.0
C600 C 0.7014 0.61425 0.14871 0.0
C601 C 0.68158 0.63008 0.12682 0.0
H602 H 0.43374 0.66059 0.22916 0.0
H603 H 0.36108 0.734 0.20037 0.0
H604 H 0.31523 0.69828 0.21967 0.0
H605 H 0.39768 0.59547 0.20446 0.0
H606 H 0.40684 0.56634 0.23412 0.0
H607 H 0.43315 0.60202 0.22873 0.0
H608 H 0.42291 0.62056 0.28335 0.0
H609 H 0.39641 0.58449 0.289 0.0
H610 H 0.38067 0.62592 0.29683 0.0
H611 H 0.27865 0.64807 0.22626 0.0
H612 H 0.25662 0.59059 0.21982 0.0
H613 H 0.35235 0.55016 0.24706 0.0
C614 C 0.40823 0.66986 0.22868 0.0
C615 C 0.40071 0.69999 0.21384 0.0
C616 C 0.3672 0.71127 0.2124 0.0
C617 C 0.34105 0.69106 0.22329 0.0
C618 C 0.34905 0.66015 0.23617 0.0
C619 C 0.38209 0.6501 0.23971 0.0
C620 C 0.38435 0.61379 0.24919 0.0
C621 C 0.40676 0.59325 0.22783 0.0
C622 C 0.39681 0.61104 0.28152 0.0
C623 C 0.34787 0.60381 0.24694 0.0
C624 C 0.32758 0.63105 0.24059 0.0
C625 C 0.29401 0.62679 0.23238 0.0
C626 C 0.28154 0.59403 0.22889 0.0
C627 C 0.30286 0.56616 0.2332 0.0
C628 C 0.33553 0.57123 0.24422 0.0
H629 H 0.35034 0.39994 0.23913 0.0
H630 H 0.26717 0.36272 0.18717 0.0
H631 H 0.29224 0.30606 0.18749 0.0
H632 H 0.40946 0.36687 0.20295 0.0
H633 H 0.43742 0.35538 0.23285 0.0
H634 H 0.40756 0.3881 0.23846 0.0
H635 H 0.3834 0.35676 0.28424 0.0
H636 H 0.41358 0.32365 0.27875 0.0
H637 H 0.3695 0.31399 0.28049 0.0
H638 H 0.33454 0.26239 0.17749 0.0
H639 H 0.38751 0.23642 0.16083 0.0
H640 H 0.44271 0.29828 0.22255 0.0
C641 C 0.33657 0.37922 0.22948 0.0
C642 C 0.30684 0.38527 0.21346 0.0
C643 C 0.28964 0.35824 0.20013 0.0
C644 C 0.3038 0.32599 0.20022 0.0
C645 C 0.33464 0.32117 0.21443 0.0
C646 C 0.35029 0.34695 0.22974 0.0
C647 C 0.38566 0.33743 0.23861 0.0
C648 C 0.41148 0.36345 0.2275 0.0
C649 C 0.38817 0.33266 0.27254 0.0
C650 C 0.38906 0.30419 0.2226 0.0
C651 C 0.359 0.29453 0.20967 0.0
C652 C 0.35774 0.26865 0.18868 0.0
C653 C 0.38792 0.25379 0.1794 0.0
C654 C 0.41878 0.26462 0.19137 0.0
C655 C 0.41908 0.28855 0.2144 0.0
H656 H 0.05903 0.34151 0.26697 0.0
H657 H 0.02588 0.39871 0.34388 0.0
H658 H 0.05867 0.44738 0.32615 0.0
H659 H 0.14061 0.36795 0.26809 0.0
H660 H 0.14603 0.36946 0.2282 0.0
H661 H 0.11576 0.34141 0.24422 0.0
H662 H 0.06898 0.36793 0.21177 0.0
H663 H 0.09922 0.39606 0.19548 0.0
H664 H 0.06211 0.41257 0.21312 0.0
H665 H 0.10111 0.48701 0.30339 0.0
H666 H 0.14903 0.51378 0.27777 0.0
H667 H 0.15368 0.4301 0.21602 0.0
C668 C 0.05791 0.3645 0.27976 0.0
C669 C 0.03979 0.3663 0.30679 0.0
C670 C 0.03943 0.39677 0.32302 0.0
C671 C 0.05794 0.42458 0.31308 0.0
C672 C 0.07637 0.42157 0.28677 0.0
C673 C 0.0762 0.39234 0.27022 0.0
C674 C 0.10036 0.39425 0.24426 0.0
C675 C 0.12727 0.36665 0.24634 0.0
C676 C 0.08153 0.39262 0.21439 0.0
C677 C 0.11515 0.42864 0.24941 0.0
C678 C 0.10072 0.44428 0.27374 0.0
C679 C 0.11218 0.47523 0.284 0.0
C680 C 0.13946 0.49023 0.26933 0.0
C681 C 0.15509 0.47412 0.24482 0.0
C682 C 0.14213 0.4433 0.23446 0.0
H683 H 0.66808 0.06658 0.2574 0.0
H684 H 0.59453 0.99873 0.29534 0.0
H685 H 0.55046 0.025 0.26438 0.0
H686 H 0.61895 0.13669 0.26019 0.0
H687 H 0.63386 0.15504 0.22593 0.0
H688 H 0.66044 0.12715 0.24668 0.0
H689 H 0.66731 0.08912 0.20021 0.0
H690 H 0.641 0.11716 0.17911 0.0
H691 H 0.63059 0.07328 0.18151 0.0
H692 H 0.5134 0.0635 0.23379 0.0
H693 H 0.48691 0.11042 0.20651 0.0
H694 H 0.58511 0.15351 0.19027 0.0
C695 C 0.64293 0.05647 0.2586 0.0
C696 C 0.63482 0.03041 0.27869 0.0
C697 C 0.6014 0.0185 0.27997 0.0
C698 C 0.5762 0.03327 0.26245 0.0
C699 C 0.58489 0.0598 0.2437 0.0
C700 C 0.61755 0.07108 0.24155 0.0
C701 C 0.62 0.10202 0.22216 0.0
C702 C 0.63413 0.13197 0.23981 0.0
C703 C 0.64096 0.09496 0.19408 0.0
C704 C 0.58346 0.1071 0.2145 0.0
C705 C 0.56359 0.08225 0.22668 0.0
C706 C 0.52879 0.08281 0.22382 0.0
C707 C 0.51396 0.1096 0.20833 0.0
C708 C 0.53391 0.13565 0.19624 0.0
C709 C 0.56912 0.13396 0.19912 0.0
H710 H 0.83081 0.58381 0.21665 0.0
H711 H 0.89815 0.50121 0.19695 0.0
H712 H 0.94323 0.5298 0.22506 0.0
H713 H 0.89064 0.6486 0.2078 0.0
H714 H 0.87407 0.67405 0.23758 0.0
H715 H 0.8468 0.64622 0.21735 0.0
H716 H 0.82903 0.61763 0.26681 0.0
H717 H 0.85604 0.64556 0.28723 0.0
H718 H 0.86075 0.60086 0.29125 0.0
H719 H 0.98128 0.56853 0.25476 0.0
H720 H 0.00875 0.61368 0.28361 0.0
H721 H 0.9162 0.67091 0.28205 0.0
C722 C 0.8549 0.57145 0.21846 0.0
C723 C 0.8609 0.54016 0.20469 0.0
C724 C 0.89294 0.52513 0.20738 0.0
C725 C 0.9187 0.54119 0.22328 0.0
C726 C 0.91199 0.57228 0.23621 0.0
C727 C 0.88082 0.58718 0.23397 0.0
C728 C 0.88014 0.62104 0.24911 0.0
C729 C 0.87247 0.64913 0.22661 0.0
C730 C 0.85501 0.62127 0.27515 0.0
C731 C 0.91585 0.62302 0.26018 0.0
C732 C 0.93386 0.59465 0.25267 0.0
C733 C 0.96739 0.59085 0.26075 0.0
C734 C 0.98279 0.61664 0.27709 0.0
C735 C 0.96468 0.64589 0.285 0.0
C736 C 0.93083 0.649 0.27622 0.0
H737 H 0.34671 0.95601 0.26453 0.0
H738 H 0.39334 0.96125 0.35184 0.0
H739 H 0.4416 0.92893 0.33283 0.0
H740 H 0.36536 0.87461 0.25066 0.0
H741 H 0.37329 0.87917 0.21129 0.0
H742 H 0.34584 0.90806 0.22993 0.0
H743 H 0.3821 0.95794 0.21174 0.0
H744 H 0.40966 0.92911 0.19281 0.0
H745 H 0.42642 0.95837 0.21955 0.0
H746 H 0.47974 0.88797 0.30678 0.0
H747 H 0.50482 0.8434 0.27558 0.0
H748 H 0.43367 0.86616 0.20524 0.0
C749 C 0.36752 0.9513 0.27945 0.0
C750 C 0.36622 0.96123 0.30967 0.0
C751 C 0.39379 0.95406 0.32855 0.0
C752 C 0.42139 0.93576 0.31793 0.0
C753 C 0.42125 0.9252 0.28829 0.0
C754 C 0.3952 0.93313 0.26921 0.0
C755 C 0.39928 0.91603 0.2393 0.0
C756 C 0.36917 0.89311 0.23243 0.0
C757 C 0.4047 0.94191 0.21438 0.0
C758 C 0.43079 0.89595 0.24499 0.0
C759 C 0.44345 0.9019 0.27319 0.0
C760 C 0.47052 0.88368 0.2844 0.0
C761 C 0.48455 0.85835 0.26656 0.0
C762 C 0.47138 0.85139 0.23789 0.0
C763 C 0.44474 0.87116 0.22683 0.0
H764 H 0.16512 0.53549 0.74644 0.0
H765 H 0.12854 0.55571 0.8358 0.0
H766 H 0.08356 0.59117 0.81474 0.0
H767 H 0.15718 0.61507 0.72025 0.0
H768 H 0.14452 0.60384 0.68297 0.0
H769 H 0.16948 0.57531 0.70456 0.0
H770 H 0.12475 0.52885 0.6975 0.0
H771 H 0.09962 0.55729 0.67569 0.0
H772 H 0.08186 0.53696 0.70793 0.0
H773 H 0.04758 0.63084 0.78406 0.0
H774 H 0.02509 0.67101 0.74694 0.0
H775 H 0.0861 0.6244 0.6784 0.0
C776 C 0.14711 0.54655 0.7616 0.0
C777 C 0.1503 0.5427 0.79275 0.0
C778 C 0.12649 0.55812 0.81181 0.0
C779 C 0.10079 0.57826 0.80004 0.0
C780 C 0.09907 0.58246 0.76919 0.0
C781 C 0.12149 0.56673 0.75025 0.0
C782 C 0.11671 0.57785 0.71831 0.0
C783 C 0.14887 0.59398 0.70582 0.0
C784 C 0.10503 0.54849 0.69871 0.0
C785 C 0.08912 0.60341 0.72234 0.0
C786 C 0.07871 0.60536 0.75169 0.0
C787 C 0.05513 0.62909 0.76093 0.0
C788 C 0.04247 0.65179 0.73972 0.0
C789 C 0.05384 0.6508 0.70981 0.0
C790 C 0.07678 0.62571 0.70106 0.0
H791 H 0.44684 0.16072 0.74865 0.0
H792 H 0.47522 0.10013 0.82496 0.0
H793 H 0.44425 0.05213 0.80368 0.0
H794 H 0.36606 0.13459 0.7449 0.0
H795 H 0.36279 0.13468 0.7048 0.0
H796 H 0.39232 0.16184 0.72292 0.0
H797 H 0.44066 0.13623 0.6917 0.0
H798 H 0.41115 0.10901 0.67327 0.0
H799 H 0.44716 0.09151 0.69191 0.0
H800 H 0.4028 0.014 0.77814 0.0
H801 H 0.35526 0.98926 0.75052 0.0
H802 H 0.35473 0.07504 0.69099 0.0
C803 C 0.44742 0.1371 0.76053 0.0
C804 C 0.46353 0.13419 0.78846 0.0
C805 C 0.46324 0.10293 0.80344 0.0
C806 C 0.44575 0.07548 0.79149 0.0
C807 C 0.42908 0.07962 0.76439 0.0
C808 C 0.43013 0.10959 0.74895 0.0
C809 C 0.40739 0.1089 0.72197 0.0
C810 C 0.38056 0.13663 0.72379 0.0
C811 C 0.42782 0.11156 0.693 0.0
C812 C 0.39213 0.07444 0.72538 0.0
C813 C 0.4053 0.05765 0.74966 0.0
C814 C 0.3928 0.02663 0.75872 0.0
C815 C 0.36573 0.0128 0.74292 0.0
C816 C 0.35132 0.03012 0.71851 0.0
C817 C 0.36542 0.06089 0.70928 0.0
H818 H 0.9234 0.35565 0.69291 0.0
H819 H 0.02004 0.38697 0.72745 0.0
H820 H 0.99255 0.43369 0.75423 0.0
H821 H 0.88569 0.44106 0.68606 0.0
H822 H 0.84518 0.42594 0.69771 0.0
H823 H 0.87318 0.39875 0.67742 0.0
H824 H 0.86924 0.35473 0.71981 0.0
H825 H 0.84139 0.38171 0.74018 0.0
H826 H 0.87942 0.36695 0.75745 0.0
H827 H 0.95339 0.47174 0.78289 0.0
H828 H 0.9064 0.49713 0.81087 0.0
H829 H 0.83586 0.44081 0.75688 0.0
C830 C 0.939 0.3728 0.70545 0.0
C831 C 0.97392 0.36766 0.708 0.0
C832 C 0.99326 0.39048 0.72502 0.0
C833 C 0.97787 0.41716 0.74025 0.0
C834 C 0.94319 0.42087 0.73796 0.0
C835 C 0.92407 0.39943 0.72074 0.0
C836 C 0.88702 0.40659 0.72415 0.0
C837 C 0.87188 0.41882 0.69457 0.0
C838 C 0.86819 0.37567 0.73612 0.0
C839 C 0.88812 0.43447 0.74698 0.0
C840 C 0.92071 0.44279 0.75436 0.0
C841 C 0.92779 0.46588 0.77686 0.0
C842 C 0.90092 0.48016 0.79266 0.0
C843 C 0.8674 0.47111 0.78602 0.0
C844 C 0.86111 0.44868 0.76228 0.0
H845 H 0.64741 0.88629 0.67241 0.0
H846 H 0.65084 0.97275 0.73114 0.0
H847 H 0.61156 0.94449 0.76564 0.0
H848 H 0.55927 0.86566 0.68417 0.0
H849 H 0.5669 0.82115 0.68306 0.0
H850 H 0.59331 0.84922 0.66212 0.0
H851 H 0.64577 0.82505 0.68861 0.0
H852 H 0.61957 0.79692 0.70958 0.0
H853 H 0.64757 0.82502 0.72879 0.0
H854 H 0.57396 0.90543 0.7948 0.0
H855 H 0.54272 0.85824 0.81708 0.0
H856 H 0.56474 0.79746 0.73914 0.0
C857 C 0.63967 0.89951 0.69236 0.0
C858 C 0.65213 0.93179 0.69904 0.0
C859 C 0.64158 0.94803 0.72553 0.0
C860 C 0.6192 0.93222 0.74521 0.0
C861 C 0.60761 0.90026 0.73801 0.0
C862 C 0.61751 0.88411 0.71221 0.0
C863 C 0.60279 0.84923 0.71025 0.0
C864 C 0.57916 0.84615 0.6833 0.0
C865 C 0.63058 0.82249 0.70926 0.0
C866 C 0.58355 0.84795 0.7393 0.0
C867 C 0.58631 0.87774 0.75486 0.0
C868 C 0.57146 0.88208 0.78272 0.0
C869 C 0.55375 0.85511 0.79518 0.0
C870 C 0.55125 0.82412 0.77986 0.0
C871 C 0.56603 0.82082 0.75138 0.0
H872 H 0.02655 0.20316 0.43569 0.0
H873 H 0.011 0.30767 0.41277 0.0
H874 H 0.00606 0.32153 0.46654 0.0
H875 H 0.96763 0.19915 0.49284 0.0
H876 H 0.99191 0.17133 0.516 0.0
H877 H 0.99729 0.17063 0.47618 0.0
H878 H 0.06095 0.18166 0.48244 0.0
H879 H 0.05584 0.1821 0.52235 0.0
H880 H 0.07481 0.21737 0.50376 0.0
H881 H 0.99848 0.3224 0.52369 0.0
H882 H 0.99105 0.31047 0.57762 0.0
H883 H 0.01166 0.20531 0.56081 0.0
C884 C 0.02258 0.22911 0.44185 0.0
C885 C 0.01916 0.25433 0.41999 0.0
C886 C 0.0139 0.28793 0.42915 0.0
C887 C 0.01098 0.29601 0.45963 0.0
C888 C 0.01367 0.27023 0.48057 0.0
C889 C 0.01968 0.23752 0.47193 0.0
C890 C 0.02026 0.21398 0.49828 0.0
C891 C 0.99262 0.18721 0.49566 0.0
C892 C 0.05503 0.19784 0.50192 0.0
C893 C 0.01297 0.23834 0.52321 0.0
C894 C 0.00939 0.27074 0.5128 0.0
C895 C 0.00153 0.29714 0.53204 0.0
C896 C 0.99728 0.29013 0.56261 0.0
C897 C 0.00076 0.25696 0.57353 0.0
C898 C 0.00886 0.23098 0.55337 0.0
H899 H 0.68229 0.06046 0.56204 0.0
H900 H 0.66479 0.95382 0.56438 0.0
H901 H 0.64078 0.95626 0.51362 0.0
H902 H 0.60968 0.08269 0.50401 0.0
H903 H 0.63713 0.11352 0.4877 0.0
H904 H 0.63768 0.10641 0.52744 0.0
H905 H 0.70159 0.09569 0.52493 0.0
H906 H 0.70122 0.10244 0.48563 0.0
H907 H 0.71743 0.06358 0.5003 0.0
H908 H 0.63868 0.96619 0.45935 0.0
H909 H 0.66049 0.98157 0.40966 0.0
H910 H 0.68031 0.08191 0.44101 0.0
C911 C 0.67111 0.0382 0.55244 0.0
C912 C 0.67453 0.00718 0.567 0.0
C913 C 0.66134 0.97796 0.55376 0.0
C914 C 0.64774 0.97922 0.52486 0.0
C915 C 0.64729 0.00995 0.5098 0.0
C916 C 0.65795 0.03921 0.52356 0.0
C917 C 0.66242 0.06731 0.50122 0.0
C918 C 0.63509 0.09405 0.50533 0.0
C919 C 0.69775 0.08306 0.50313 0.0
C920 C 0.65722 0.04825 0.47242 0.0
C921 C 0.64661 0.01571 0.47773 0.0
C922 C 0.64571 0.99188 0.45485 0.0
C923 C 0.65799 0.00082 0.42656 0.0
C924 C 0.67157 0.03303 0.42174 0.0
C925 C 0.66913 0.05745 0.44427 0.0
H926 H 0.0733 0.6992 0.55208 0.0
H927 H 0.97414 0.67655 0.58504 0.0
H928 H 0.95834 0.65453 0.53554 0.0
H929 H 0.05297 0.73515 0.493 0.0
H930 H 0.08487 0.72009 0.46782 0.0
H931 H 0.09262 0.72008 0.50699 0.0
H932 H 0.10524 0.65647 0.50556 0.0
H933 H 0.09771 0.6563 0.46588 0.0
H934 H 0.07502 0.62795 0.4898 0.0
H935 H 0.94751 0.6558 0.48124 0.0
H936 H 0.94411 0.6782 0.42988 0.0
H937 H 0.05048 0.69777 0.43097 0.0
C938 C 0.04901 0.68757 0.54916 0.0
C939 C 0.025 0.68925 0.5721 0.0
C940 C 0.99307 0.6748 0.56777 0.0
C941 C 0.98391 0.6623 0.53964 0.0
C942 C 0.00732 0.66366 0.51645 0.0
C943 C 0.03974 0.67497 0.52126 0.0
C944 C 0.05819 0.68026 0.49215 0.0
C945 C 0.07292 0.716 0.48989 0.0
C946 C 0.08566 0.65365 0.48811 0.0
C947 C 0.02989 0.67471 0.47028 0.0
C948 C 0.00107 0.66364 0.48447 0.0
C949 C 0.9702 0.66297 0.46966 0.0
C950 C 0.9684 0.6756 0.44042 0.0
C951 C 0.99726 0.68886 0.42661 0.0
C952 C 0.02847 0.68657 0.44102 0.0
H953 H 0.20347 0.04476 0.55413 0.0
H954 H 0.30455 0.01537 0.57834 0.0
H955 H 0.31827 0.00776 0.52477 0.0
H956 H 0.19172 0.98614 0.49838 0.0
H957 H 0.16779 0.01342 0.47444 0.0
H958 H 0.16763 0.02008 0.51409 0.0
H959 H 0.18771 0.08129 0.50635 0.0
H960 H 0.18772 0.07489 0.46657 0.0
H961 H 0.2252 0.08921 0.48503 0.0
H962 H 0.31852 0.99852 0.46774 0.0
H963 H 0.3054 0.98957 0.41418 0.0
H964 H 0.20415 0.02531 0.42974 0.0
C965 C 0.2287 0.0372 0.54828 0.0
C966 C 0.25293 0.03062 0.57043 0.0
C967 C 0.28563 0.02075 0.56171 0.0
C968 C 0.29361 0.01633 0.53135 0.0
C969 C 0.26872 0.02227 0.5101 0.0
C970 C 0.23703 0.03283 0.51834 0.0
C971 C 0.21399 0.03591 0.4918 0.0
C972 C 0.1835 0.01248 0.49487 0.0
C973 C 0.20302 0.0725 0.48716 0.0
C974 C 0.23724 0.02446 0.46729 0.0
C975 C 0.26885 0.017 0.47797 0.0
C976 C 0.29392 0.00466 0.45916 0.0
C977 C 0.28627 0.99963 0.4288 0.0
C978 C 0.25374 0.00664 0.41775 0.0
C979 C 0.22927 0.0196 0.43737 0.0
H980 H 0.5157 0.79211 0.94887 0.0
H981 H 0.41371 0.77466 0.92037 0.0
H982 H 0.39296 0.79212 0.96978 0.0
H983 H 0.5094 0.75439 0.01275 0.0
H984 H 0.53526 0.78146 0.03526 0.0
H985 H 0.54155 0.77978 0.99573 0.0
H986 H 0.53294 0.84398 0.99203 0.0
H987 H 0.52684 0.84593 0.03187 0.0
H988 H 0.49547 0.86273 0.0071 0.0
H989 H 0.38473 0.79352 0.02358 0.0
H990 H 0.38976 0.78071 0.07727 0.0
H991 H 0.4964 0.79925 0.07308 0.0
C992 C 0.48897 0.79414 0.95268 0.0
C993 C 0.46611 0.78313 0.93086 0.0
C994 C 0.43137 0.78397 0.93675 0.0
C995 C 0.41943 0.79388 0.96474 0.0
C996 C 0.44261 0.80284 0.9866 0.0
C997 C 0.47674 0.80363 0.98079 0.0
C998 C 0.49662 0.80783 0.00938 0.0
C999 C 0.52215 0.77915 0.0135 0.0
C1000 C 0.51399 0.84217 0.01013 0.0
C1001 C 0.46866 0.80611 0.03224 0.0
C1002 C 0.4376 0.80425 0.01859 0.0
C1003 C 0.40864 0.79647 0.03466 0.0
C1004 C 0.41164 0.78921 0.06511 0.0
C1005 C 0.44324 0.79024 0.07919 0.0
C1006 C 0.4718 0.80004 0.06289 0.0
H1007 H 0.29478 0.52489 0.95855 0.0
H1008 H 0.18958 0.50568 0.94105 0.0
H1009 H 0.17935 0.50105 0.99553 0.0
H1010 H 0.30423 0.46609 0.01446 0.0
H1011 H 0.33301 0.49075 0.03633 0.0
H1012 H 0.33075 0.49671 0.99664 0.0
H1013 H 0.31849 0.55997 0.00428 0.0
H1014 H 0.32106 0.5543 0.04407 0.0
H1015 H 0.28404 0.57261 0.02777 0.0
H1016 H 0.18262 0.4936 0.05271 0.0
H1017 H 0.19877 0.48516 0.10564 0.0
H1018 H 0.30197 0.50835 0.08308 0.0
C1019 C 0.26938 0.5203 0.96603 0.0
C1020 C 0.24296 0.51568 0.94551 0.0
C1021 C 0.21018 0.50956 0.95639 0.0
C1022 C 0.20418 0.50681 0.98728 0.0
C1023 C 0.23119 0.5105 0.00684 0.0
C1024 C 0.26307 0.51741 0.99647 0.0
C1025 C 0.28845 0.51824 0.02142 0.0
C1026 C 0.31569 0.49135 0.01693 0.0
C1027 C 0.30391 0.55337 0.02457 0.0
C1028 C 0.26613 0.51 0.04756 0.0
C1029 C 0.23311 0.5059 0.039 0.0
C1030 C 0.20838 0.49707 0.0596 0.0
C1031 C 0.21777 0.49227 0.0896 0.0
C1032 C 0.25165 0.49599 0.09853 0.0
C1033 C 0.27586 0.50522 0.0771 0.0
H1034 H 0.53814 0.28145 0.04451 0.0
H1035 H 0.497 0.18398 0.0662 0.0
H1036 H 0.49314 0.17072 0.01212 0.0
H1037 H 0.48632 0.29939 0.98682 0.0
H1038 H 0.51712 0.32052 0.9642 0.0
H1039 H 0.52187 0.31951 0.00401 0.0
H1040 H 0.58084 0.29287 0.99836 0.0
H1041 H 0.57645 0.29414 0.95837 0.0
H1042 H 0.58577 0.25507 0.97677 0.0
H1043 H 0.48649 0.17242 0.95484 0.0
H1044 H 0.47952 0.18808 0.9016 0.0
H1045 H 0.52562 0.28438 0.91978 0.0
C1046 C 0.52909 0.25694 0.03793 0.0
C1047 C 0.51783 0.23372 0.05939 0.0
C1048 C 0.50605 0.20197 0.05001 0.0
C1049 C 0.50372 0.19432 0.01938 0.0
C1050 C 0.5139 0.21848 0.99868 0.0
C1051 C 0.52689 0.24895 0.00777 0.0
C1052 C 0.53369 0.27191 0.98173 0.0
C1053 C 0.51354 0.30474 0.98436 0.0
C1054 C 0.57143 0.27889 0.97863 0.0
C1055 C 0.52109 0.25037 0.95649 0.0
C1056 C 0.51019 0.21941 0.96638 0.0
C1057 C 0.4955 0.19638 0.94688 0.0
C1058 C 0.49158 0.20548 0.9167 0.0
C1059 C 0.50194 0.23748 0.90655 0.0
C1060 C 0.51742 0.25972 0.92675 0.0
H1061 H 0.79118 0.41227 0.94476 0.0
H1062 H 0.83652 0.50224 0.9094 0.0
H1063 H 0.85602 0.51745 0.95991 0.0
H1064 H 0.75351 0.44604 0.99874 0.0
H1065 H 0.75812 0.414 0.0268 0.0
H1066 H 0.76056 0.40294 0.98827 0.0
H1067 H 0.81923 0.37676 0.99635 0.0
H1068 H 0.81681 0.38735 0.03542 0.0
H1069 H 0.85201 0.40119 0.01343 0.0
H1070 H 0.85361 0.5318 0.01411 0.0
H1071 H 0.8303 0.54272 0.06442 0.0
H1072 H 0.78514 0.44433 0.06472 0.0
C1073 C 0.80702 0.43409 0.94753 0.0
C1074 C 0.81256 0.45598 0.92339 0.0
C1075 C 0.8326 0.4848 0.92758 0.0
C1076 C 0.84366 0.49366 0.9563 0.0
C1077 C 0.83501 0.47305 0.98034 0.0
C1078 C 0.81782 0.44325 0.97602 0.0
C1079 C 0.80538 0.42888 0.00523 0.0
C1080 C 0.76717 0.42269 0.0047 0.0
C1081 C 0.82452 0.39664 0.01307 0.0
C1082 C 0.81475 0.457 0.02621 0.0
C1083 C 0.83319 0.48161 0.01188 0.0
C1084 C 0.84029 0.51218 0.02581 0.0
C1085 C 0.82703 0.51824 0.0544 0.0
C1086 C 0.8064 0.49408 0.06827 0.0
C1087 C 0.80154 0.46272 0.0546 0.0
loop_
_geom_bond_atom_site_label_1
_geom_bond_atom_site_label_2
_geom_bond_distance
_geom_bond_site_symmetry_2
_ccdc_geom_bond_type
Zn0 O3 2.031 . S
Zn0 O5 2.049 . S
Zn0 O10 2.067 1_455 S
Zn1 O2 1.962 . S
Zn1 O4 1.986 . S
Zn1 O6 1.996 . S
Zn1 O9 1.926 1_455 S
O2 Zn1 1.962 . S
O2 C7 1.254 . S
O3 Zn0 2.031 . S
O3 C7 1.269 . S
O4 Zn1 1.986 . S
O4 C11 1.262 . S
O5 Zn0 2.049 . S
O5 C13 1.260 . S
O6 Zn1 1.996 . S
O6 C13 1.257 . S
C7 O2 1.254 . S
C7 O3 1.269 . S
C8 O9 1.261 . S
C8 O10 1.270 . S
O9 Zn1 1.926 1_655 S
O9 C8 1.261 . S
O10 Zn0 2.067 1_655 S
O10 C8 1.270 . S
C11 O4 1.262 . S
C11 O12 1.232 . S
O12 C11 1.232 . S
C13 O5 1.260 . S
C13 O6 1.257 . S
Zn14 O17 2.031 . S
Zn14 O19 2.049 . S
Zn14 O24 2.067 1_545 S
Zn15 O16 1.962 . S
Zn15 O18 1.986 . S
Zn15 O20 1.996 . S
Zn15 O23 1.926 1_545 S
O16 Zn15 1.962 . S
O16 C21 1.254 . S
O17 Zn14 2.031 . S
O17 C21 1.269 . S
O18 Zn15 1.986 . S
O18 C25 1.262 . S
O19 Zn14 2.049 . S
O19 C27 1.260 . S
O20 Zn15 1.996 . S
O20 C27 1.257 . S
C21 O16 1.254 . S
C21 O17 1.269 . S
C22 O23 1.261 . S
C22 O24 1.270 . S
O23 Zn15 1.926 1_565 S
O23 C22 1.261 . S
O24 Zn14 2.067 1_565 S
O24 C22 1.270 . S
C25 O18 1.262 . S
C25 O26 1.232 . S
O26 C25 1.232 . S
C27 O19 1.260 . S
C27 O20 1.257 . S
Zn28 O31 2.031 . S
Zn28 O33 2.049 . S
Zn28 O38 2.067 1_655 S
Zn29 O30 1.962 . S
Zn29 O32 1.986 . S
Zn29 O34 1.996 . S
Zn29 O37 1.926 1_655 S
O30 Zn29 1.962 . S
O30 C35 1.254 . S
O31 Zn28 2.031 . S
O31 C35 1.269 . S
O32 Zn29 1.986 . S
O32 C39 1.262 . S
O33 Zn28 2.049 . S
O33 C41 1.260 . S
O34 Zn29 1.996 . S
O34 C41 1.257 . S
C35 O30 1.254 . S
C35 O31 1.269 . S
C36 O37 1.261 . S
C36 O38 1.270 . S
O37 Zn29 1.926 1_455 S
O37 C36 1.261 . S
O38 Zn28 2.067 1_455 S
O38 C36 1.270 . S
C39 O32 1.262 . S
C39 O40 1.232 . S
O40 C39 1.232 . S
C41 O33 1.260 . S
C41 O34 1.257 . S
Zn42 O45 2.031 . S
Zn42 O47 2.049 . S
Zn42 O52 2.067 1_565 S
Zn43 O44 1.962 . S
Zn43 O46 1.986 . S
Zn43 O48 1.996 . S
Zn43 O51 1.926 1_565 S
O44 Zn43 1.962 . S
O44 C49 1.254 . S
O45 Zn42 2.031 . S
O45 C49 1.269 . S
O46 Zn43 1.986 . S
O46 C53 1.262 . S
O47 Zn42 2.049 . S
O47 C55 1.260 . S
O48 Zn43 1.996 . S
O48 C55 1.257 . S
C49 O44 1.254 . S
C49 O45 1.269 . S
C50 O51 1.261 . S
C50 O52 1.270 . S
O51 Zn43 1.926 1_545 S
O51 C50 1.261 . S
O52 Zn42 2.067 1_545 S
O52 C50 1.270 . S
C53 O46 1.262 . S
C53 O54 1.232 . S
O54 C53 1.232 . S
C55 O47 1.260 . S
C55 O48 1.257 . S
Zn56 O59 2.031 . S
Zn56 O61 2.049 . S
Zn56 O66 2.067 1_455 S
Zn57 O58 1.962 . S
Zn57 O60 1.986 . S
Zn57 O62 1.996 . S
Zn57 O65 1.926 1_455 S
O58 Zn57 1.962 . S
O58 C63 1.254 . S
O59 Zn56 2.031 . S
O59 C63 1.269 . S
O60 Zn57 1.986 . S
O60 C67 1.262 . S
O61 Zn56 2.049 . S
O61 C69 1.260 . S
O62 Zn57 1.996 . S
O62 C69 1.257 . S
C63 O58 1.254 . S
C63 O59 1.269 . S
C64 O65 1.261 . S
C64 O66 1.270 . S
O65 Zn57 1.926 1_655 S
O65 C64 1.261 . S
O66 Zn56 2.067 1_655 S
O66 C64 1.270 . S
C67 O60 1.262 . S
C67 O68 1.232 . S
O68 C67 1.232 . S
C69 O61 1.260 . S
C69 O62 1.257 . S
Zn70 O73 2.031 . S
Zn70 O75 2.049 . S
Zn70 O80 2.067 1_545 S
Zn71 O72 1.962 . S
Zn71 O74 1.986 . S
Zn71 O76 1.996 . S
Zn71 O79 1.926 1_545 S
O72 Zn71 1.962 . S
O72 C77 1.254 . S
O73 Zn70 2.031 . S
O73 C77 1.269 . S
O74 Zn71 1.986 . S
O74 C81 1.262 . S
O75 Zn70 2.049 . S
O75 C83 1.260 . S
O76 Zn71 1.996 . S
O76 C83 1.257 . S
C77 O72 1.254 . S
C77 O73 1.269 . S
C78 O79 1.261 . S
C78 O80 1.270 . S
O79 Zn71 1.926 1_565 S
O79 C78 1.261 . S
O80 Zn70 2.067 1_565 S
O80 C78 1.270 . S
C81 O74 1.262 . S
C81 O82 1.232 . S
O82 C81 1.232 . S
C83 O75 1.260 . S
C83 O76 1.257 . S
Zn84 O87 2.031 . S
Zn84 O89 2.049 . S
Zn84 O94 2.067 1_655 S
Zn85 O86 1.962 . S
Zn85 O88 1.986 . S
Zn85 O90 1.996 . S
Zn85 O93 1.926 1_655 S
O86 Zn85 1.962 . S
O86 C91 1.254 . S
O87 Zn84 2.031 . S
O87 C91 1.269 . S
O88 Zn85 1.986 . S
O88 C95 1.262 . S
O89 Zn84 2.049 . S
O89 C97 1.260 . S
O90 Zn85 1.996 . S
O90 C97 1.257 . S
C91 O86 1.254 . S
C91 O87 1.269 . S
C92 O93 1.261 . S
C92 O94 1.270 . S
O93 Zn85 1.926 1_455 S
O93 C92 1.261 . S
O94 Zn84 2.067 1_455 S
O94 C92 1.270 . S
C95 O88 1.262 . S
C95 O96 1.232 . S
O96 C95 1.232 . S
C97 O89 1.260 . S
C97 O90 1.257 . S
Zn98 O101 2.031 . S
Zn98 O103 2.049 . S
Zn98 O108 2.067 1_565 S
Zn99 O100 1.962 . S
Zn99 O102 1.986 . S
Zn99 O104 1.996 . S
Zn99 O107 1.926 1_565 S
O100 Zn99 1.962 . S
O100 C105 1.254 . S
O101 Zn98 2.031 . S
O101 C105 1.269 . S
O102 Zn99 1.986 . S
O102 C109 1.262 . S
O103 Zn98 2.049 . S
O103 C111 1.260 . S
O104 Zn99 1.996 . S
O104 C111 1.257 . S
C105 O100 1.254 . S
C105 O101 1.269 . S
C106 O107 1.261 . S
C106 O108 1.270 . S
O107 Zn99 1.926 1_545 S
O107 C106 1.261 . S
O108 Zn98 2.067 1_545 S
O108 C106 1.270 . S
C109 O102 1.262 . S
C109 O110 1.232 . S
O110 C109 1.232 . S
C111 O103 1.260 . S
C111 O104 1.257 . S
Zn112 O115 2.031 . S
Zn112 O117 2.049 . S
Zn112 O122 2.067 . S
Zn113 O114 1.962 . S
Zn113 O116 1.986 . S
Zn113 O118 1.996 . S
Zn113 O121 1.943 . S
O114 Zn113 1.962 . S
O114 C119 1.254 . S
O115 Zn112 2.031 . S
O115 C119 1.269 . S
O116 Zn113 1.986 . S
O116 C123 1.262 . S
O117 Zn112 2.049 . S
O117 C125 1.260 . S
O118 Zn113 1.996 . S
O118 C125 1.257 . S
C119 O114 1.254 . S
C119 O115 1.269 . S
C120 O121 1.249 . S
C120 O122 1.270 . S
O121 Zn113 1.943 . S
O121 C120 1.249 . S
O122 Zn112 2.067 . S
O122 C120 1.270 . S
C123 O116 1.262 . S
C123 O124 1.232 . S
O124 C123 1.232 . S
C125 O117 1.260 . S
C125 O118 1.257 . S
Zn126 O129 2.031 . S
Zn126 O131 2.049 . S
Zn126 O136 2.067 . S
Zn127 O128 1.962 . S
Zn127 O130 1.986 . S
Zn127 O132 1.996 . S
Zn127 O135 1.943 . S
O128 Zn127 1.962 . S
O128 C133 1.254 . S
O129 Zn126 2.031 . S
O129 C133 1.269 . S
O130 Zn127 1.986 . S
O130 C137 1.262 . S
O131 Zn126 2.049 . S
O131 C139 1.260 . S
O132 Zn127 1.996 . S
O132 C139 1.257 . S
C133 O128 1.254 . S
C133 O129 1.269 . S
C134 O135 1.249 . S
C134 O136 1.270 . S
O135 Zn127 1.943 . S
O135 C134 1.249 . S
O136 Zn126 2.067 . S
O136 C134 1.270 . S
C137 O130 1.262 . S
C137 O138 1.232 . S
O138 C137 1.232 . S
C139 O131 1.260 . S
C139 O132 1.257 . S
Zn140 O143 2.031 . S
Zn140 O145 2.049 . S
Zn140 O150 2.067 . S
Zn141 O142 1.962 . S
Zn141 O144 1.986 . S
Zn141 O146 1.996 . S
Zn141 O149 1.943 . S
O142 Zn141 1.962 . S
O142 C147 1.254 . S
O143 Zn140 2.031 . S
O143 C147 1.269 . S
O144 Zn141 1.986 . S
O144 C151 1.262 . S
O145 Zn140 2.049 . S
O145 C153 1.260 . S
O146 Zn141 1.996 . S
O146 C153 1.257 . S
C147 O142 1.254 . S
C147 O143 1.269 . S
C148 O149 1.249 . S
C148 O150 1.270 . S
O149 Zn141 1.943 . S
O149 C148 1.249 . S
O150 Zn140 2.067 . S
O150 C148 1.270 . S
C151 O144 1.262 . S
C151 O152 1.232 . S
O152 C151 1.232 . S
C153 O145 1.260 . S
C153 O146 1.257 . S
Zn154 O157 2.031 . S
Zn154 O159 2.049 . S
Zn154 O164 2.067 . S
Zn155 O156 1.962 . S
Zn155 O158 1.986 . S
Zn155 O160 1.996 . S
Zn155 O163 1.943 . S
O156 Zn155 1.962 . S
O156 C161 1.254 . S
O157 Zn154 2.031 . S
O157 C161 1.269 . S
O158 Zn155 1.986 . S
O158 C165 1.262 . S
O159 Zn154 2.049 . S
O159 C167 1.260 . S
O160 Zn155 1.996 . S
O160 C167 1.257 . S
C161 O156 1.254 . S
C161 O157 1.269 . S
C162 O163 1.249 . S
C162 O164 1.270 . S
O163 Zn155 1.943 . S
O163 C162 1.249 . S
O164 Zn154 2.067 . S
O164 C162 1.270 . S
C165 O158 1.262 . S
C165 O166 1.232 . S
O166 C165 1.232 . S
C167 O159 1.260 . S
C167 O160 1.257 . S
Zn168 O171 2.031 . S
Zn168 O173 2.049 . S
Zn168 O178 2.067 . S
Zn169 O170 1.962 . S
Zn169 O172 1.986 . S
Zn169 O174 1.996 . S
Zn169 O177 1.943 . S
O170 Zn169 1.962 . S
O170 C175 1.254 . S
O171 Zn168 2.031 . S
O171 C175 1.269 . S
O172 Zn169 1.986 . S
O172 C179 1.262 . S
O173 Zn168 2.049 . S
O173 C181 1.260 . S
O174 Zn169 1.996 . S
O174 C181 1.257 . S
C175 O170 1.254 . S
C175 O171 1.269 . S
C176 O177 1.249 . S
C176 O178 1.270 . S
O177 Zn169 1.943 . S
O177 C176 1.249 . S
O178 Zn168 2.067 . S
O178 C176 1.270 . S
C179 O172 1.262 . S
C179 O180 1.232 . S
O180 C179 1.232 . S
C181 O173 1.260 . S
C181 O174 1.257 . S
Zn182 O185 2.031 . S
Zn182 O187 2.049 . S
Zn182 O192 2.067 . S
Zn183 O184 1.962 . S
Zn183 O186 1.986 . S
Zn183 O188 1.996 . S
Zn183 O191 1.943 . S
O184 Zn183 1.962 . S
O184 C189 1.254 . S
O185 Zn182 2.031 . S
O185 C189 1.269 . S
O186 Zn183 1.986 . S
O186 C193 1.262 . S
O187 Zn182 2.049 . S
O187 C195 1.260 . S
O188 Zn183 1.996 . S
O188 C195 1.257 . S
C189 O184 1.254 . S
C189 O185 1.269 . S
C190 O191 1.249 . S
C190 O192 1.270 . S
O191 Zn183 1.943 . S
O191 C190 1.249 . S
O192 Zn182 2.067 . S
O192 C190 1.270 . S
C193 O186 1.262 . S
C193 O194 1.232 . S
O194 C193 1.232 . S
C195 O187 1.260 . S
C195 O188 1.257 . S
Zn196 O199 2.031 . S
Zn196 O201 2.049 . S
Zn196 O206 2.067 . S
Zn197 O198 1.962 . S
Zn197 O200 1.986 . S
Zn197 O202 1.996 . S
Zn197 O205 1.943 . S
O198 Zn197 1.962 . S
O198 C203 1.254 . S
O199 Zn196 2.031 . S
O199 C203 1.269 . S
O200 Zn197 1.986 . S
O200 C207 1.262 . S
O201 Zn196 2.049 . S
O201 C209 1.260 . S
O202 Zn197 1.996 . S
O202 C209 1.257 . S
C203 O198 1.254 . S
C203 O199 1.269 . S
C204 O205 1.249 . S
C204 O206 1.270 . S
O205 Zn197 1.943 . S
O205 C204 1.249 . S
O206 Zn196 2.067 . S
O206 C204 1.270 . S
C207 O200 1.262 . S
C207 O208 1.232 . S
O208 C207 1.232 . S
C209 O201 1.260 . S
C209 O202 1.257 . S
Zn210 O213 2.031 . S
Zn210 O215 2.049 . S
Zn210 O220 2.067 . S
Zn211 O212 1.962 . S
Zn211 O214 1.986 . S
Zn211 O216 1.996 . S
Zn211 O219 1.943 . S
O212 Zn211 1.962 . S
O212 C217 1.254 . S
O213 Zn210 2.031 . S
O213 C217 1.269 . S
O214 Zn211 1.986 . S
O214 C221 1.262 . S
O215 Zn210 2.049 . S
O215 C223 1.260 . S
O216 Zn211 1.996 . S
O216 C223 1.257 . S
C217 O212 1.254 . S
C217 O213 1.269 . S
C218 O219 1.249 . S
C218 O220 1.270 . S
O219 Zn211 1.943 . S
O219 C218 1.249 . S
O220 Zn210 2.067 . S
O220 C218 1.270 . S
C221 O214 1.262 . S
C221 O222 1.232 . S
O222 C221 1.232 . S
C223 O215 1.260 . S
C223 O216 1.257 . S
H224 C236 0.930 . S
H225 C238 0.930 . S
H226 C239 0.930 . S
H227 C243 0.959 . S
H228 C243 0.959 . S
H229 C243 0.961 . S
H230 C244 0.960 . S
H231 C244 0.961 . S
H232 C244 0.959 . S
H233 C247 0.929 . S
H234 C248 0.931 . S
H235 C250 0.930 . S
C236 H224 0.930 . S
C236 C237 1.399 . S
C236 C241 1.399 . S
C237 C236 1.399 . S
C237 C238 1.376 . S
C238 H225 0.930 . S
C238 C237 1.376 . S
C238 C239 1.388 . S
C239 H226 0.930 . S
C239 C238 1.388 . S
C239 C240 1.390 . S
C240 C239 1.390 . S
C240 C241 1.394 . S
C240 C246 1.465 . S
C241 C236 1.399 . S
C241 C240 1.394 . S
C241 C242 1.516 . S
C242 C241 1.516 . S
C242 C243 1.502 . S
C242 C244 1.561 . S
C242 C245 1.526 . S
C243 H227 0.959 . S
C243 H228 0.959 . S
C243 H229 0.961 . S
C243 C242 1.502 . S
C244 H230 0.960 . S
C244 H231 0.961 . S
C244 H232 0.959 . S
C244 C242 1.561 . S
C245 C242 1.526 . S
C245 C246 1.396 . S
C245 C250 1.390 . S
C246 C240 1.465 . S
C246 C245 1.396 . S
C246 C247 1.399 . S
C247 H233 0.929 . S
C247 C246 1.399 . S
C247 C248 1.385 . S
C248 H234 0.931 . S
C248 C247 1.385 . S
C248 C249 1.389 . S
C249 C248 1.389 . S
C249 C250 1.387 . S
C250 H235 0.930 . S
C250 C245 1.390 . S
C250 C249 1.387 . S
H251 C263 0.930 . S
H252 C265 0.930 . S
H253 C266 0.930 . S
H254 C270 0.959 . S
H255 C270 0.959 . S
H256 C270 0.961 . S
H257 C271 0.960 . S
H258 C271 0.961 . S
H259 C271 0.959 . S
H260 C274 0.929 . S
H261 C275 0.931 . S
H262 C277 0.930 . S
C263 H251 0.930 . S
C263 C264 1.399 . S
C263 C268 1.399 . S
C264 C263 1.399 . S
C264 C265 1.376 . S
C265 H252 0.930 . S
C265 C264 1.376 . S
C265 C266 1.388 . S
C266 H253 0.930 . S
C266 C265 1.388 . S
C266 C267 1.390 . S
C267 C266 1.390 . S
C267 C268 1.394 . S
C267 C273 1.465 . S
C268 C263 1.399 . S
C268 C267 1.394 . S
C268 C269 1.516 . S
C269 C268 1.516 . S
C269 C270 1.502 . S
C269 C271 1.561 . S
C269 C272 1.526 . S
C270 H254 0.959 . S
C270 H255 0.959 . S
C270 H256 0.961 . S
C270 C269 1.502 . S
C271 H257 0.960 . S
C271 H258 0.961 . S
C271 H259 0.959 . S
C271 C269 1.561 . S
C272 C269 1.526 . S
C272 C273 1.396 . S
C272 C277 1.390 . S
C273 C267 1.465 . S
C273 C272 1.396 . S
C273 C274 1.399 . S
C274 H260 0.929 . S
C274 C273 1.399 . S
C274 C275 1.385 . S
C275 H261 0.931 . S
C275 C274 1.385 . S
C275 C276 1.389 . S
C276 C275 1.389 . S
C276 C277 1.387 . S
C277 H262 0.930 . S
C277 C272 1.390 . S
C277 C276 1.387 . S
H278 C290 0.930 . S
H279 C292 0.930 . S
H280 C293 0.930 . S
H281 C297 0.959 . S
H282 C297 0.959 . S
H283 C297 0.961 . S
H284 C298 0.960 . S
H285 C298 0.961 . S
H286 C298 0.959 . S
H287 C301 0.929 . S
H288 C302 0.931 . S
H289 C304 0.930 . S
C290 H278 0.930 . S
C290 C291 1.399 . S
C290 C295 1.399 . S
C291 C290 1.399 . S
C291 C292 1.376 . S
C292 H279 0.930 . S
C292 C291 1.376 . S
C292 C293 1.388 . S
C293 H280 0.930 . S
C293 C292 1.388 . S
C293 C294 1.390 . S
C294 C293 1.390 . S
C294 C295 1.394 . S
C294 C300 1.465 . S
C295 C290 1.399 . S
C295 C294 1.394 . S
C295 C296 1.516 . S
C296 C295 1.516 . S
C296 C297 1.502 . S
C296 C298 1.561 . S
C296 C299 1.526 . S
C297 H281 0.959 . S
C297 H282 0.959 . S
C297 H283 0.961 . S
C297 C296 1.502 . S
C298 H284 0.960 . S
C298 H285 0.961 . S
C298 H286 0.959 . S
C298 C296 1.561 . S
C299 C296 1.526 . S
C299 C300 1.396 . S
C299 C304 1.390 . S
C300 C294 1.465 . S
C300 C299 1.396 . S
C300 C301 1.399 . S
C301 H287 0.929 . S
C301 C300 1.399 . S
C301 C302 1.385 . S
C302 H288 0.931 . S
C302 C301 1.385 . S
C302 C303 1.389 . S
C303 C302 1.389 . S
C303 C304 1.387 . S
C304 H289 0.930 . S
C304 C299 1.390 . S
C304 C303 1.387 . S
H305 C317 0.930 . S
H306 C319 0.930 . S
H307 C320 0.930 . S
H308 C324 0.959 . S
H309 C324 0.959 . S
H310 C324 0.961 . S
H311 C325 0.960 . S
H312 C325 0.961 . S
H313 C325 0.959 . S
H314 C328 0.929 . S
H315 C329 0.931 . S
H316 C331 0.930 . S
C317 H305 0.930 . S
C317 C318 1.399 . S
C317 C322 1.399 . S
C318 C317 1.399 . S
C318 C319 1.376 . S
C319 H306 0.930 . S
C319 C318 1.376 . S
C319 C320 1.388 . S
C320 H307 0.930 . S
C320 C319 1.388 . S
C320 C321 1.390 . S
C321 C320 1.390 . S
C321 C322 1.394 . S
C321 C327 1.465 . S
C322 C317 1.399 . S
C322 C321 1.394 . S
C322 C323 1.516 . S
C323 C322 1.516 . S
C323 C324 1.502 . S
C323 C325 1.561 . S
C323 C326 1.526 . S
C324 H308 0.959 . S
C324 H309 0.959 . S
C324 H310 0.961 . S
C324 C323 1.502 . S
C325 H311 0.960 . S
C325 H312 0.961 . S
C325 H313 0.959 . S
C325 C323 1.561 . S
C326 C323 1.526 . S
C326 C327 1.396 . S
C326 C331 1.390 . S
C327 C321 1.465 . S
C327 C326 1.396 . S
C327 C328 1.399 . S
C328 H314 0.929 . S
C328 C327 1.399 . S
C328 C329 1.385 . S
C329 H315 0.931 . S
C329 C328 1.385 . S
C329 C330 1.389 . S
C330 C329 1.389 . S
C330 C331 1.387 . S
C331 H316 0.930 . S
C331 C326 1.390 . S
C331 C330 1.387 . S
H332 C344 0.930 . S
H333 C346 0.930 . S
H334 C347 0.930 . S
H335 C351 0.959 . S
H336 C351 0.959 . S
H337 C351 0.961 . S
H338 C352 0.960 . S
H339 C352 0.961 . S
H340 C352 0.959 . S
H341 C355 0.929 . S
H342 C356 0.931 . S
H343 C358 0.930 . S
C344 H332 0.930 . S
C344 C345 1.399 . S
C344 C349 1.399 . S
C345 C344 1.399 . S
C345 C346 1.376 . S
C346 H333 0.930 . S
C346 C345 1.376 . S
C346 C347 1.388 . S
C347 H334 0.930 . S
C347 C346 1.388 . S
C347 C348 1.390 . S
C348 C347 1.390 . S
C348 C349 1.394 . S
C348 C354 1.465 . S
C349 C344 1.399 . S
C349 C348 1.394 . S
C349 C350 1.516 . S
C350 C349 1.516 . S
C350 C351 1.502 . S
C350 C352 1.561 . S
C350 C353 1.526 . S
C351 H335 0.959 . S
C351 H336 0.959 . S
C351 H337 0.961 . S
C351 C350 1.502 . S
C352 H338 0.960 . S
C352 H339 0.961 . S
C352 H340 0.959 . S
C352 C350 1.561 . S
C353 C350 1.526 . S
C353 C354 1.396 . S
C353 C358 1.390 . S
C354 C348 1.465 . S
C354 C353 1.396 . S
C354 C355 1.399 . S
C355 H341 0.929 . S
C355 C354 1.399 . S
C355 C356 1.385 . S
C356 H342 0.931 . S
C356 C355 1.385 . S
C356 C357 1.389 . S
C357 C356 1.389 . S
C357 C358 1.387 . S
C358 H343 0.930 . S
C358 C353 1.390 . S
C358 C357 1.387 . S
H359 C371 0.930 . S
H360 C373 0.930 . S
H361 C374 0.930 . S
H362 C378 0.959 . S
H363 C378 0.959 . S
H364 C378 0.961 . S
H365 C379 0.960 . S
H366 C379 0.961 . S
H367 C379 0.959 . S
H368 C382 0.929 . S
H369 C383 0.931 . S
H370 C385 0.930 . S
C371 H359 0.930 . S
C371 C372 1.399 . S
C371 C376 1.399 . S
C372 C371 1.399 . S
C372 C373 1.376 . S
C373 H360 0.930 . S
C373 C372 1.376 . S
C373 C374 1.388 . S
C374 H361 0.930 . S
C374 C373 1.388 . S
C374 C375 1.390 . S
C375 C374 1.390 . S
C375 C376 1.394 . S
C375 C381 1.465 . S
C376 C371 1.399 . S
C376 C375 1.394 . S
C376 C377 1.516 . S
C377 C376 1.516 . S
C377 C378 1.502 . S
C377 C379 1.561 . S
C377 C380 1.526 . S
C378 H362 0.959 . S
C378 H363 0.959 . S
C378 H364 0.961 . S
C378 C377 1.502 . S
C379 H365 0.960 . S
C379 H366 0.961 . S
C379 H367 0.959 . S
C379 C377 1.561 . S
C380 C377 1.526 . S
C380 C381 1.396 . S
C380 C385 1.390 . S
C381 C375 1.465 . S
C381 C380 1.396 . S
C381 C382 1.399 . S
C382 H368 0.929 . S
C382 C381 1.399 . S
C382 C383 1.385 . S
C383 H369 0.931 . S
C383 C382 1.385 . S
C383 C384 1.389 . S
C384 C383 1.389 . S
C384 C385 1.387 . S
C385 H370 0.930 . S
C385 C380 1.390 . S
C385 C384 1.387 . S
H386 C398 0.930 . S
H387 C400 0.930 . S
H388 C401 0.930 . S
H389 C405 0.959 . S
H390 C405 0.959 . S
H391 C405 0.961 . S
H392 C406 0.960 . S
H393 C406 0.961 . S
H394 C406 0.959 . S
H395 C409 0.929 . S
H396 C410 0.931 . S
H397 C412 0.930 . S
C398 H386 0.930 . S
C398 C399 1.399 . S
C398 C403 1.399 . S
C399 C398 1.399 . S
C399 C400 1.376 . S
C400 H387 0.930 . S
C400 C399 1.376 . S
C400 C401 1.388 . S
C401 H388 0.930 . S
C401 C400 1.388 . S
C401 C402 1.390 . S
C402 C401 1.390 . S
C402 C403 1.394 . S
C402 C408 1.465 . S
C403 C398 1.399 . S
C403 C402 1.394 . S
C403 C404 1.516 . S
C404 C403 1.516 . S
C404 C405 1.502 . S
C404 C406 1.561 . S
C404 C407 1.526 . S
C405 H389 0.959 . S
C405 H390 0.959 . S
C405 H391 0.961 . S
C405 C404 1.502 . S
C406 H392 0.960 . S
C406 H393 0.961 . S
C406 H394 0.959 . S
C406 C404 1.561 . S
C407 C404 1.526 . S
C407 C408 1.396 . S
C407 C412 1.390 . S
C408 C402 1.465 . S
C408 C407 1.396 . S
C408 C409 1.399 . S
C409 H395 0.929 . S
C409 C408 1.399 . S
C409 C410 1.385 . S
C410 H396 0.931 . S
C410 C409 1.385 . S
C410 C411 1.389 . S
C411 C410 1.389 . S
C411 C412 1.387 . S
C412 H397 0.930 . S
C412 C407 1.390 . S
C412 C411 1.387 . S
H413 C425 0.930 . S
H414 C427 0.930 . S
H415 C428 0.930 . S
H416 C432 0.959 . S
H417 C432 0.959 . S
H418 C432 0.961 . S
H419 C433 0.960 . S
H420 C433 0.961 . S
H421 C433 0.959 . S
H422 C436 0.929 . S
H423 C437 0.931 . S
H424 C439 0.930 . S
C425 H413 0.930 . S
C425 C426 1.399 . S
C425 C430 1.399 . S
C426 C425 1.399 . S
C426 C427 1.376 . S
C427 H414 0.930 . S
C427 C426 1.376 . S
C427 C428 1.388 . S
C428 H415 0.930 . S
C428 C427 1.388 . S
C428 C429 1.390 . S
C429 C428 1.390 . S
C429 C430 1.394 . S
C429 C435 1.465 . S
C430 C425 1.399 . S
C430 C429 1.394 . S
C430 C431 1.516 . S
C431 C430 1.516 . S
C431 C432 1.502 . S
C431 C433 1.561 . S
C431 C434 1.526 . S
C432 H416 0.959 . S
C432 H417 0.959 . S
C432 H418 0.961 . S
C432 C431 1.502 . S
C433 H419 0.960 . S
C433 H420 0.961 . S
C433 H421 0.959 . S
C433 C431 1.561 . S
C434 C431 1.526 . S
C434 C435 1.396 . S
C434 C439 1.390 . S
C435 C429 1.465 . S
C435 C434 1.396 . S
C435 C436 1.399 . S
C436 H422 0.929 . S
C436 C435 1.399 . S
C436 C437 1.385 . S
C437 H423 0.931 . S
C437 C436 1.385 . S
C437 C438 1.389 . S
C438 C437 1.389 . S
C438 C439 1.387 . S
C439 H424 0.930 . S
C439 C434 1.390 . S
C439 C438 1.387 . S
H440 C452 0.930 . S
H441 C454 0.930 . S
H442 C455 0.930 . S
H443 C459 0.959 . S
H444 C459 0.959 . S
H445 C459 0.961 . S
H446 C460 0.960 . S
H447 C460 0.961 . S
H448 C460 0.959 . S
H449 C463 0.929 . S
H450 C464 0.931 . S
H451 C466 0.930 . S
C452 H440 0.930 . S
C452 C453 1.399 . S
C452 C457 1.399 . S
C453 C452 1.399 . S
C453 C454 1.376 . S
C454 H441 0.930 . S
C454 C453 1.376 . S
C454 C455 1.388 . S
C455 H442 0.930 . S
C455 C454 1.388 . S
C455 C456 1.390 . S
C456 C455 1.390 . S
C456 C457 1.394 . S
C456 C462 1.465 . S
C457 C452 1.399 . S
C457 C456 1.394 . S
C457 C458 1.516 . S
C458 C457 1.516 . S
C458 C459 1.502 . S
C458 C460 1.561 . S
C458 C461 1.526 . S
C459 H443 0.959 . S
C459 H444 0.959 . S
C459 H445 0.961 . S
C459 C458 1.502 . S
C460 H446 0.960 . S
C460 H447 0.961 . S
C460 H448 0.959 . S
C460 C458 1.561 . S
C461 C458 1.526 . S
C461 C462 1.396 . S
C461 C466 1.390 . S
C462 C456 1.465 . S
C462 C461 1.396 . S
C462 C463 1.399 . S
C463 H449 0.929 . S
C463 C462 1.399 . S
C463 C464 1.385 . S
C464 H450 0.931 . S
C464 C463 1.385 . S
C464 C465 1.389 . S
C465 C464 1.389 . S
C465 C466 1.387 . S
C466 H451 0.930 . S
C466 C461 1.390 . S
C466 C465 1.387 . S
H467 C479 0.930 . S
H468 C481 0.930 . S
H469 C482 0.930 . S
H470 C486 0.959 . S
H471 C486 0.959 . S
H472 C486 0.961 . S
H473 C487 0.960 . S
H474 C487 0.961 . S
H475 C487 0.959 . S
H476 C490 0.929 . S
H477 C491 0.931 . S
H478 C493 0.930 . S
C479 H467 0.930 . S
C479 C480 1.399 . S
C479 C484 1.399 . S
C480 C479 1.399 . S
C480 C481 1.376 . S
C481 H468 0.930 . S
C481 C480 1.376 . S
C481 C482 1.388 . S
C482 H469 0.930 . S
C482 C481 1.388 . S
C482 C483 1.390 . S
C483 C482 1.390 . S
C483 C484 1.394 . S
C483 C489 1.465 . S
C484 C479 1.399 . S
C484 C483 1.394 . S
C484 C485 1.516 . S
C485 C484 1.516 . S
C485 C486 1.502 . S
C485 C487 1.561 . S
C485 C488 1.526 . S
C486 H470 0.959 . S
C486 H471 0.959 . S
C486 H472 0.961 . S
C486 C485 1.502 . S
C487 H473 0.960 . S
C487 H474 0.961 . S
C487 H475 0.959 . S
C487 C485 1.561 . S
C488 C485 1.526 . S
C488 C489 1.396 . S
C488 C493 1.390 . S
C489 C483 1.465 . S
C489 C488 1.396 . S
C489 C490 1.399 . S
C490 H476 0.929 . S
C490 C489 1.399 . S
C490 C491 1.385 . S
C491 H477 0.931 . S
C491 C490 1.385 . S
C491 C492 1.389 . S
C492 C491 1.389 . S
C492 C493 1.387 . S
C493 H478 0.930 . S
C493 C488 1.390 . S
C493 C492 1.387 . S
H494 C506 0.930 . S
H495 C508 0.930 . S
H496 C509 0.930 . S
H497 C513 0.959 . S
H498 C513 0.959 . S
H499 C513 0.961 . S
H500 C514 0.960 . S
H501 C514 0.961 . S
H502 C514 0.959 . S
H503 C517 0.929 . S
H504 C518 0.931 . S
H505 C520 0.930 . S
C506 H494 0.930 . S
C506 C507 1.399 . S
C506 C511 1.399 . S
C507 C506 1.399 . S
C507 C508 1.376 . S
C508 H495 0.930 . S
C508 C507 1.376 . S
C508 C509 1.388 . S
C509 H496 0.930 . S
C509 C508 1.388 . S
C509 C510 1.390 . S
C510 C509 1.390 . S
C510 C511 1.394 . S
C510 C516 1.465 . S
C511 C506 1.399 . S
C511 C510 1.394 . S
C511 C512 1.516 . S
C512 C511 1.516 . S
C512 C513 1.502 . S
C512 C514 1.561 . S
C512 C515 1.526 . S
C513 H497 0.959 . S
C513 H498 0.959 . S
C513 H499 0.961 . S
C513 C512 1.502 . S
C514 H500 0.960 . S
C514 H501 0.961 . S
C514 H502 0.959 . S
C514 C512 1.561 . S
C515 C512 1.526 . S
C515 C516 1.396 . S
C515 C520 1.390 . S
C516 C510 1.465 . S
C516 C515 1.396 . S
C516 C517 1.399 . S
C517 H503 0.929 . S
C517 C516 1.399 . S
C517 C518 1.385 . S
C518 H504 0.931 . S
C518 C517 1.385 . S
C518 C519 1.389 . S
C519 C518 1.389 . S
C519 C520 1.387 . S
C520 H505 0.930 . S
C520 C515 1.390 . S
C520 C519 1.387 . S
H521 C533 0.930 . S
H522 C535 0.930 . S
H523 C536 0.930 . S
H524 C540 0.959 . S
H525 C540 0.959 . S
H526 C540 0.961 . S
H527 C541 0.960 . S
H528 C541 0.961 . S
H529 C541 0.959 . S
H530 C544 0.929 . S
H531 C545 0.931 . S
H532 C547 0.930 . S
C533 H521 0.930 . S
C533 C534 1.399 . S
C533 C538 1.399 . S
C534 C533 1.399 . S
C534 C535 1.376 . S
C535 H522 0.930 . S
C535 C534 1.376 . S
C535 C536 1.388 . S
C536 H523 0.930 . S
C536 C535 1.388 . S
C536 C537 1.390 . S
C537 C536 1.390 . S
C537 C538 1.394 . S
C537 C543 1.465 . S
C538 C533 1.399 . S
C538 C537 1.394 . S
C538 C539 1.516 . S
C539 C538 1.516 . S
C539 C540 1.502 . S
C539 C541 1.561 . S
C539 C542 1.526 . S
C540 H524 0.959 . S
C540 H525 0.959 . S
C540 H526 0.961 . S
C540 C539 1.502 . S
C541 H527 0.960 . S
C541 H528 0.961 . S
C541 H529 0.959 . S
C541 C539 1.561 . S
C542 C539 1.526 . S
C542 C543 1.396 . S
C542 C547 1.390 . S
C543 C537 1.465 . S
C543 C542 1.396 . S
C543 C544 1.399 . S
C544 H530 0.929 . S
C544 C543 1.399 . S
C544 C545 1.385 . S
C545 H531 0.931 . S
C545 C544 1.385 . S
C545 C546 1.389 . S
C546 C545 1.389 . S
C546 C547 1.387 . S
C547 H532 0.930 . S
C547 C542 1.390 . S
C547 C546 1.387 . S
H548 C560 0.930 . S
H549 C562 0.930 . S
H550 C563 0.930 . S
H551 C567 0.959 . S
H552 C567 0.959 . S
H553 C567 0.961 . S
H554 C568 0.960 . S
H555 C568 0.961 . S
H556 C568 0.959 . S
H557 C571 0.929 . S
H558 C572 0.931 . S
H559 C574 0.930 . S
C560 H548 0.930 . S
C560 C561 1.399 . S
C560 C565 1.399 . S
C561 C560 1.399 . S
C561 C562 1.376 . S
C562 H549 0.930 . S
C562 C561 1.376 . S
C562 C563 1.388 . S
C563 H550 0.930 . S
C563 C562 1.388 . S
C563 C564 1.390 . S
C564 C563 1.390 . S
C564 C565 1.394 . S
C564 C570 1.465 . S
C565 C560 1.399 . S
C565 C564 1.394 . S
C565 C566 1.516 . S
C566 C565 1.516 . S
C566 C567 1.502 . S
C566 C568 1.561 . S
C566 C569 1.526 . S
C567 H551 0.959 . S
C567 H552 0.959 . S
C567 H553 0.961 . S
C567 C566 1.502 . S
C568 H554 0.960 . S
C568 H555 0.961 . S
C568 H556 0.959 . S
C568 C566 1.561 . S
C569 C566 1.526 . S
C569 C570 1.396 . S
C569 C574 1.390 . S
C570 C564 1.465 . S
C570 C569 1.396 . S
C570 C571 1.399 . S
C571 H557 0.929 . S
C571 C570 1.399 . S
C571 C572 1.385 . S
C572 H558 0.931 . S
C572 C571 1.385 . S
C572 C573 1.389 . S
C573 C572 1.389 . S
C573 C574 1.387 . S
C574 H559 0.930 . S
C574 C569 1.390 . S
C574 C573 1.387 . S
H575 C587 0.930 . S
H576 C589 0.930 . S
H577 C590 0.930 . S
H578 C594 0.959 . S
H579 C594 0.959 . S
H580 C594 0.961 . S
H581 C595 0.960 . S
H582 C595 0.961 . S
H583 C595 0.959 . S
H584 C598 0.929 . S
H585 C599 0.931 . S
H586 C601 0.930 . S
C587 H575 0.930 . S
C587 C588 1.399 . S
C587 C592 1.399 . S
C588 C587 1.399 . S
C588 C589 1.376 . S
C589 H576 0.930 . S
C589 C588 1.376 . S
C589 C590 1.388 . S
C590 H577 0.930 . S
C590 C589 1.388 . S
C590 C591 1.390 . S
C591 C590 1.390 . S
C591 C592 1.394 . S
C591 C597 1.465 . S
C592 C587 1.399 . S
C592 C591 1.394 . S
C592 C593 1.516 . S
C593 C592 1.516 . S
C593 C594 1.502 . S
C593 C595 1.561 . S
C593 C596 1.526 . S
C594 H578 0.959 . S
C594 H579 0.959 . S
C594 H580 0.961 . S
C594 C593 1.502 . S
C595 H581 0.960 . S
C595 H582 0.961 . S
C595 H583 0.959 . S
C595 C593 1.561 . S
C596 C593 1.526 . S
C596 C597 1.396 . S
C596 C601 1.390 . S
C597 C591 1.465 . S
C597 C596 1.396 . S
C597 C598 1.399 . S
C598 H584 0.929 . S
C598 C597 1.399 . S
C598 C599 1.385 . S
C599 H585 0.931 . S
C599 C598 1.385 . S
C599 C600 1.389 . S
C600 C599 1.389 . S
C600 C601 1.387 . S
C601 H586 0.930 . S
C601 C596 1.390 . S
C601 C600 1.387 . S
H602 C614 0.930 . S
H603 C616 0.930 . S
H604 C617 0.930 . S
H605 C621 0.959 . S
H606 C621 0.959 . S
H607 C621 0.961 . S
H608 C622 0.960 . S
H609 C622 0.961 . S
H610 C622 0.959 . S
H611 C625 0.929 . S
H612 C626 0.931 . S
H613 C628 0.930 . S
C614 H602 0.930 . S
C614 C615 1.399 . S
C614 C619 1.399 . S
C615 C614 1.399 . S
C615 C616 1.376 . S
C616 H603 0.930 . S
C616 C615 1.376 . S
C616 C617 1.388 . S
C617 H604 0.930 . S
C617 C616 1.388 . S
C617 C618 1.390 . S
C618 C617 1.390 . S
C618 C619 1.394 . S
C618 C624 1.465 . S
C619 C614 1.399 . S
C619 C618 1.394 . S
C619 C620 1.516 . S
C620 C619 1.516 . S
C620 C621 1.502 . S
C620 C622 1.561 . S
C620 C623 1.526 . S
C621 H605 0.959 . S
C621 H606 0.959 . S
C621 H607 0.961 . S
C621 C620 1.502 . S
C622 H608 0.960 . S
C622 H609 0.961 . S
C622 H610 0.959 . S
C622 C620 1.561 . S
C623 C620 1.526 . S
C623 C624 1.396 . S
C623 C628 1.390 . S
C624 C618 1.465 . S
C624 C623 1.396 . S
C624 C625 1.399 . S
C625 H611 0.929 . S
C625 C624 1.399 . S
C625 C626 1.385 . S
C626 H612 0.931 . S
C626 C625 1.385 . S
C626 C627 1.389 . S
C627 C626 1.389 . S
C627 C628 1.387 . S
C628 H613 0.930 . S
C628 C623 1.390 . S
C628 C627 1.387 . S
H629 C641 0.930 . S
H630 C643 0.930 . S
H631 C644 0.930 . S
H632 C648 0.959 . S
H633 C648 0.959 . S
H634 C648 0.961 . S
H635 C649 0.960 . S
H636 C649 0.961 . S
H637 C649 0.959 . S
H638 C652 0.929 . S
H639 C653 0.931 . S
H640 C655 0.930 . S
C641 H629 0.930 . S
C641 C642 1.399 . S
C641 C646 1.399 . S
C642 C641 1.399 . S
C642 C643 1.376 . S
C643 H630 0.930 . S
C643 C642 1.376 . S
C643 C644 1.388 . S
C644 H631 0.930 . S
C644 C643 1.388 . S
C644 C645 1.390 . S
C645 C644 1.390 . S
C645 C646 1.394 . S
C645 C651 1.465 . S
C646 C641 1.399 . S
C646 C645 1.394 . S
C646 C647 1.516 . S
C647 C646 1.516 . S
C647 C648 1.502 . S
C647 C649 1.561 . S
C647 C650 1.526 . S
C648 H632 0.959 . S
C648 H633 0.959 . S
C648 H634 0.961 . S
C648 C647 1.502 . S
C649 H635 0.960 . S
C649 H636 0.961 . S
C649 H637 0.959 . S
C649 C647 1.561 . S
C650 C647 1.526 . S
C650 C651 1.396 . S
C650 C655 1.390 . S
C651 C645 1.465 . S
C651 C650 1.396 . S
C651 C652 1.399 . S
C652 H638 0.929 . S
C652 C651 1.399 . S
C652 C653 1.385 . S
C653 H639 0.931 . S
C653 C652 1.385 . S
C653 C654 1.389 . S
C654 C653 1.389 . S
C654 C655 1.387 . S
C655 H640 0.930 . S
C655 C650 1.390 . S
C655 C654 1.387 . S
H656 C668 0.930 . S
H657 C670 0.930 . S
H658 C671 0.930 . S
H659 C675 0.959 . S
H660 C675 0.959 . S
H661 C675 0.961 . S
H662 C676 0.960 . S
H663 C676 0.961 . S
H664 C676 0.959 . S
H665 C679 0.929 . S
H666 C680 0.931 . S
H667 C682 0.930 . S
C668 H656 0.930 . S
C668 C669 1.399 . S
C668 C673 1.399 . S
C669 C668 1.399 . S
C669 C670 1.376 . S
C670 H657 0.930 . S
C670 C669 1.376 . S
C670 C671 1.388 . S
C671 H658 0.930 . S
C671 C670 1.388 . S
C671 C672 1.390 . S
C672 C671 1.390 . S
C672 C673 1.394 . S
C672 C678 1.465 . S
C673 C668 1.399 . S
C673 C672 1.394 . S
C673 C674 1.516 . S
C674 C673 1.516 . S
C674 C675 1.502 . S
C674 C676 1.561 . S
C674 C677 1.526 . S
C675 H659 0.959 . S
C675 H660 0.959 . S
C675 H661 0.961 . S
C675 C674 1.502 . S
C676 H662 0.960 . S
C676 H663 0.961 . S
C676 H664 0.959 . S
C676 C674 1.561 . S
C677 C674 1.526 . S
C677 C678 1.396 . S
C677 C682 1.390 . S
C678 C672 1.465 . S
C678 C677 1.396 . S
C678 C679 1.399 . S
C679 H665 0.929 . S
C679 C678 1.399 . S
C679 C680 1.385 . S
C680 H666 0.931 . S
C680 C679 1.385 . S
C680 C681 1.389 . S
C681 C680 1.389 . S
C681 C682 1.387 . S
C682 H667 0.930 . S
C682 C677 1.390 . S
C682 C681 1.387 . S
H683 C695 0.930 . S
H684 C697 0.930 . S
H685 C698 0.930 . S
H686 C702 0.959 . S
H687 C702 0.959 . S
H688 C702 0.961 . S
H689 C703 0.960 . S
H690 C703 0.961 . S
H691 C703 0.959 . S
H692 C706 0.929 . S
H693 C707 0.931 . S
H694 C709 0.930 . S
C695 H683 0.930 . S
C695 C696 1.399 . S
C695 C700 1.399 . S
C696 C695 1.399 . S
C696 C697 1.376 . S
C697 H684 0.930 . S
C697 C696 1.376 . S
C697 C698 1.388 . S
C698 H685 0.930 . S
C698 C697 1.388 . S
C698 C699 1.390 . S
C699 C698 1.390 . S
C699 C700 1.394 . S
C699 C705 1.465 . S
C700 C695 1.399 . S
C700 C699 1.394 . S
C700 C701 1.516 . S
C701 C700 1.516 . S
C701 C702 1.502 . S
C701 C703 1.561 . S
C701 C704 1.526 . S
C702 H686 0.959 . S
C702 H687 0.959 . S
C702 H688 0.961 . S
C702 C701 1.502 . S
C703 H689 0.960 . S
C703 H690 0.961 . S
C703 H691 0.959 . S
C703 C701 1.561 . S
C704 C701 1.526 . S
C704 C705 1.396 . S
C704 C709 1.390 . S
C705 C699 1.465 . S
C705 C704 1.396 . S
C705 C706 1.399 . S
C706 H692 0.929 . S
C706 C705 1.399 . S
C706 C707 1.385 . S
C707 H693 0.931 . S
C707 C706 1.385 . S
C707 C708 1.389 . S
C708 C707 1.389 . S
C708 C709 1.387 . S
C709 H694 0.930 . S
C709 C704 1.390 . S
C709 C708 1.387 . S
H710 C722 0.930 . S
H711 C724 0.930 . S
H712 C725 0.930 . S
H713 C729 0.959 . S
H714 C729 0.959 . S
H715 C729 0.961 . S
H716 C730 0.960 . S
H717 C730 0.961 . S
H718 C730 0.959 . S
H719 C733 0.929 . S
H720 C734 0.931 . S
H721 C736 0.930 . S
C722 H710 0.930 . S
C722 C723 1.399 . S
C722 C727 1.399 . S
C723 C722 1.399 . S
C723 C724 1.376 . S
C724 H711 0.930 . S
C724 C723 1.376 . S
C724 C725 1.388 . S
C725 H712 0.930 . S
C725 C724 1.388 . S
C725 C726 1.390 . S
C726 C725 1.390 . S
C726 C727 1.394 . S
C726 C732 1.465 . S
C727 C722 1.399 . S
C727 C726 1.394 . S
C727 C728 1.516 . S
C728 C727 1.516 . S
C728 C729 1.502 . S
C728 C730 1.561 . S
C728 C731 1.526 . S
C729 H713 0.959 . S
C729 H714 0.959 . S
C729 H715 0.961 . S
C729 C728 1.502 . S
C730 H716 0.960 . S
C730 H717 0.961 . S
C730 H718 0.959 . S
C730 C728 1.561 . S
C731 C728 1.526 . S
C731 C732 1.396 . S
C731 C736 1.390 . S
C732 C726 1.465 . S
C732 C731 1.396 . S
C732 C733 1.399 . S
C733 H719 0.929 . S
C733 C732 1.399 . S
C733 C734 1.385 . S
C734 H720 0.931 . S
C734 C733 1.385 . S
C734 C735 1.389 . S
C735 C734 1.389 . S
C735 C736 1.387 . S
C736 H721 0.930 . S
C736 C731 1.390 . S
C736 C735 1.387 . S
H737 C749 0.930 . S
H738 C751 0.930 . S
H739 C752 0.930 . S
H740 C756 0.959 . S
H741 C756 0.959 . S
H742 C756 0.961 . S
H743 C757 0.960 . S
H744 C757 0.961 . S
H745 C757 0.959 . S
H746 C760 0.929 . S
H747 C761 0.931 . S
H748 C763 0.930 . S
C749 H737 0.930 . S
C749 C750 1.399 . S
C749 C754 1.399 . S
C750 C749 1.399 . S
C750 C751 1.376 . S
C751 H738 0.930 . S
C751 C750 1.376 . S
C751 C752 1.388 . S
C752 H739 0.930 . S
C752 C751 1.388 . S
C752 C753 1.390 . S
C753 C752 1.390 . S
C753 C754 1.394 . S
C753 C759 1.465 . S
C754 C749 1.399 . S
C754 C753 1.394 . S
C754 C755 1.516 . S
C755 C754 1.516 . S
C755 C756 1.502 . S
C755 C757 1.561 . S
C755 C758 1.526 . S
C756 H740 0.959 . S
C756 H741 0.959 . S
C756 H742 0.961 . S
C756 C755 1.502 . S
C757 H743 0.960 . S
C757 H744 0.961 . S
C757 H745 0.959 . S
C757 C755 1.561 . S
C758 C755 1.526 . S
C758 C759 1.396 . S
C758 C763 1.390 . S
C759 C753 1.465 . S
C759 C758 1.396 . S
C759 C760 1.399 . S
C760 H746 0.929 . S
C760 C759 1.399 . S
C760 C761 1.385 . S
C761 H747 0.931 . S
C761 C760 1.385 . S
C761 C762 1.389 . S
C762 C761 1.389 . S
C762 C763 1.387 . S
C763 H748 0.930 . S
C763 C758 1.390 . S
C763 C762 1.387 . S
H764 C776 0.930 . S
H765 C778 0.930 . S
H766 C779 0.930 . S
H767 C783 0.959 . S
H768 C783 0.959 . S
H769 C783 0.961 . S
H770 C784 0.960 . S
H771 C784 0.961 . S
H772 C784 0.959 . S
H773 C787 0.929 . S
H774 C788 0.931 . S
H775 C790 0.930 . S
C776 H764 0.930 . S
C776 C777 1.399 . S
C776 C781 1.399 . S
C777 C776 1.399 . S
C777 C778 1.376 . S
C778 H765 0.930 . S
C778 C777 1.376 . S
C778 C779 1.388 . S
C779 H766 0.930 . S
C779 C778 1.388 . S
C779 C780 1.390 . S
C780 C779 1.390 . S
C780 C781 1.394 . S
C780 C786 1.465 . S
C781 C776 1.399 . S
C781 C780 1.394 . S
C781 C782 1.516 . S
C782 C781 1.516 . S
C782 C783 1.502 . S
C782 C784 1.561 . S
C782 C785 1.526 . S
C783 H767 0.959 . S
C783 H768 0.959 . S
C783 H769 0.961 . S
C783 C782 1.502 . S
C784 H770 0.960 . S
C784 H771 0.961 . S
C784 H772 0.959 . S
C784 C782 1.561 . S
C785 C782 1.526 . S
C785 C786 1.396 . S
C785 C790 1.390 . S
C786 C780 1.465 . S
C786 C785 1.396 . S
C786 C787 1.399 . S
C787 H773 0.929 . S
C787 C786 1.399 . S
C787 C788 1.385 . S
C788 H774 0.931 . S
C788 C787 1.385 . S
C788 C789 1.389 . S
C789 C788 1.389 . S
C789 C790 1.387 . S
C790 H775 0.930 . S
C790 C785 1.390 . S
C790 C789 1.387 . S
H791 C803 0.930 . S
H792 C805 0.930 . S
H793 C806 0.930 . S
H794 C810 0.959 . S
H795 C810 0.959 . S
H796 C810 0.961 . S
H797 C811 0.960 . S
H798 C811 0.961 . S
H799 C811 0.959 . S
H800 C814 0.929 . S
H801 C815 0.931 . S
H802 C817 0.930 . S
C803 H791 0.930 . S
C803 C804 1.399 . S
C803 C808 1.399 . S
C804 C803 1.399 . S
C804 C805 1.376 . S
C805 H792 0.930 . S
C805 C804 1.376 . S
C805 C806 1.388 . S
C806 H793 0.930 . S
C806 C805 1.388 . S
C806 C807 1.390 . S
C807 C806 1.390 . S
C807 C808 1.394 . S
C807 C813 1.465 . S
C808 C803 1.399 . S
C808 C807 1.394 . S
C808 C809 1.516 . S
C809 C808 1.516 . S
C809 C810 1.502 . S
C809 C811 1.561 . S
C809 C812 1.526 . S
C810 H794 0.959 . S
C810 H795 0.959 . S
C810 H796 0.961 . S
C810 C809 1.502 . S
C811 H797 0.960 . S
C811 H798 0.961 . S
C811 H799 0.959 . S
C811 C809 1.561 . S
C812 C809 1.526 . S
C812 C813 1.396 . S
C812 C817 1.390 . S
C813 C807 1.465 . S
C813 C812 1.396 . S
C813 C814 1.399 . S
C814 H800 0.929 . S
C814 C813 1.399 . S
C814 C815 1.385 . S
C815 H801 0.931 . S
C815 C814 1.385 . S
C815 C816 1.389 . S
C816 C815 1.389 . S
C816 C817 1.387 . S
C817 H802 0.930 . S
C817 C812 1.390 . S
C817 C816 1.387 . S
H818 C830 0.930 . S
H819 C832 0.930 . S
H820 C833 0.930 . S
H821 C837 0.959 . S
H822 C837 0.959 . S
H823 C837 0.961 . S
H824 C838 0.960 . S
H825 C838 0.961 . S
H826 C838 0.959 . S
H827 C841 0.929 . S
H828 C842 0.931 . S
H829 C844 0.930 . S
C830 H818 0.930 . S
C830 C831 1.399 . S
C830 C835 1.399 . S
C831 C830 1.399 . S
C831 C832 1.376 . S
C832 H819 0.930 . S
C832 C831 1.376 . S
C832 C833 1.388 . S
C833 H820 0.930 . S
C833 C832 1.388 . S
C833 C834 1.390 . S
C834 C833 1.390 . S
C834 C835 1.394 . S
C834 C840 1.465 . S
C835 C830 1.399 . S
C835 C834 1.394 . S
C835 C836 1.516 . S
C836 C835 1.516 . S
C836 C837 1.502 . S
C836 C838 1.561 . S
C836 C839 1.526 . S
C837 H821 0.959 . S
C837 H822 0.959 . S
C837 H823 0.961 . S
C837 C836 1.502 . S
C838 H824 0.960 . S
C838 H825 0.961 . S
C838 H826 0.959 . S
C838 C836 1.561 . S
C839 C836 1.526 . S
C839 C840 1.396 . S
C839 C844 1.390 . S
C840 C834 1.465 . S
C840 C839 1.396 . S
C840 C841 1.399 . S
C841 H827 0.929 . S
C841 C840 1.399 . S
C841 C842 1.385 . S
C842 H828 0.931 . S
C842 C841 1.385 . S
C842 C843 1.389 . S
C843 C842 1.389 . S
C843 C844 1.387 . S
C844 H829 0.930 . S
C844 C839 1.390 . S
C844 C843 1.387 . S
H845 C857 0.930 . S
H846 C859 0.930 . S
H847 C860 0.930 . S
H848 C864 0.959 . S
H849 C864 0.959 . S
H850 C864 0.961 . S
H851 C865 0.960 . S
H852 C865 0.961 . S
H853 C865 0.959 . S
H854 C868 0.929 . S
H855 C869 0.931 . S
H856 C871 0.930 . S
C857 H845 0.930 . S
C857 C858 1.399 . S
C857 C862 1.399 . S
C858 C857 1.399 . S
C858 C859 1.376 . S
C859 H846 0.930 . S
C859 C858 1.376 . S
C859 C860 1.388 . S
C860 H847 0.930 . S
C860 C859 1.388 . S
C860 C861 1.390 . S
C861 C860 1.390 . S
C861 C862 1.394 . S
C861 C867 1.465 . S
C862 C857 1.399 . S
C862 C861 1.394 . S
C862 C863 1.516 . S
C863 C862 1.516 . S
C863 C864 1.502 . S
C863 C865 1.561 . S
C863 C866 1.526 . S
C864 H848 0.959 . S
C864 H849 0.959 . S
C864 H850 0.961 . S
C864 C863 1.502 . S
C865 H851 0.960 . S
C865 H852 0.961 . S
C865 H853 0.959 . S
C865 C863 1.561 . S
C866 C863 1.526 . S
C866 C867 1.396 . S
C866 C871 1.390 . S
C867 C861 1.465 . S
C867 C866 1.396 . S
C867 C868 1.399 . S
C868 H854 0.929 . S
C868 C867 1.399 . S
C868 C869 1.385 . S
C869 H855 0.931 . S
C869 C868 1.385 . S
C869 C870 1.389 . S
C870 C869 1.389 . S
C870 C871 1.387 . S
C871 H856 0.930 . S
C871 C866 1.390 . S
C871 C870 1.387 . S
H872 C884 0.930 1_655 S
H873 C886 0.930 . S
H874 C887 0.930 . S
H875 C891 0.959 . S
H876 C891 0.959 . S
H877 C891 0.961 . S
H878 C892 0.960 . S
H879 C892 0.961 . S
H880 C892 0.959 . S
H881 C895 0.929 . S
H882 C896 0.930 . S
H883 C898 0.930 . S
C884 H872 0.930 1_455 S
C884 C885 1.399 . S
C884 C889 1.399 . S
C885 C884 1.399 . S
C885 C886 1.376 . S
C886 H873 0.930 . S
C886 C885 1.376 . S
C886 C887 1.388 . S
C887 H874 0.930 . S
C887 C886 1.388 . S
C887 C888 1.390 . S
C888 C887 1.390 . S
C888 C889 1.394 . S
C888 C894 1.465 . S
C889 C884 1.399 . S
C889 C888 1.394 . S
C889 C890 1.516 1_455 S
C890 C889 1.516 1_655 S
C890 C891 1.502 . S
C890 C892 1.561 1_655 S
C890 C893 1.526 . S
C891 H875 0.959 . S
C891 H876 0.959 . S
C891 H877 0.961 . S
C891 C890 1.502 . S
C892 H878 0.960 . S
C892 H879 0.961 . S
C892 H880 0.959 . S
C892 C890 1.561 1_455 S
C893 C890 1.526 . S
C893 C894 1.396 1_655 S
C893 C898 1.390 . S
C894 C888 1.465 . S
C894 C893 1.396 1_455 S
C894 C895 1.399 . S
C895 H881 0.929 . S
C895 C894 1.399 . S
C895 C896 1.385 1_455 S
C896 H882 0.930 . S
C896 C895 1.385 1_655 S
C896 C897 1.389 . S
C897 C896 1.389 . S
C897 C898 1.387 . S
C898 H883 0.930 . S
C898 C893 1.390 . S
C898 C897 1.387 . S
H899 C911 0.930 . S
H900 C913 0.930 . S
H901 C914 0.930 . S
H902 C918 0.959 . S
H903 C918 0.959 . S
H904 C918 0.961 . S
H905 C919 0.960 . S
H906 C919 0.961 . S
H907 C919 0.959 . S
H908 C922 0.929 . S
H909 C923 0.931 . S
H910 C925 0.930 . S
C911 H899 0.930 . S
C911 C912 1.399 1_545 S
C911 C916 1.399 . S
C912 C911 1.399 1_565 S
C912 C913 1.376 . S
C913 H900 0.930 . S
C913 C912 1.376 . S
C913 C914 1.388 . S
C914 H901 0.930 . S
C914 C913 1.388 . S
C914 C915 1.390 . S
C915 C914 1.390 . S
C915 C916 1.394 1_565 S
C915 C921 1.465 . S
C916 C911 1.399 . S
C916 C915 1.394 1_545 S
C916 C917 1.516 . S
C917 C916 1.516 . S
C917 C918 1.502 . S
C917 C919 1.561 . S
C917 C920 1.526 . S
C918 H902 0.959 . S
C918 H903 0.959 . S
C918 H904 0.961 . S
C918 C917 1.502 . S
C919 H905 0.960 . S
C919 H906 0.961 . S
C919 H907 0.959 . S
C919 C917 1.561 . S
C920 C917 1.526 . S
C920 C921 1.396 1_545 S
C920 C925 1.390 . S
C921 C915 1.465 . S
C921 C920 1.396 1_565 S
C921 C922 1.399 . S
C922 H908 0.929 . S
C922 C921 1.399 . S
C922 C923 1.385 . S
C923 H909 0.931 . S
C923 C922 1.385 . S
C923 C924 1.389 1_565 S
C924 C923 1.389 1_545 S
C924 C925 1.387 . S
C925 H910 0.930 . S
C925 C920 1.390 . S
C925 C924 1.387 . S
H926 C938 0.930 . S
H927 C940 0.930 . S
H928 C941 0.930 . S
H929 C945 0.959 . S
H930 C945 0.959 . S
H931 C945 0.961 . S
H932 C946 0.960 . S
H933 C946 0.961 . S
H934 C946 0.959 . S
H935 C949 0.929 . S
H936 C950 0.931 . S
H937 C952 0.930 1_455 S
C938 H926 0.930 . S
C938 C939 1.399 . S
C938 C943 1.399 . S
C939 C938 1.399 . S
C939 C940 1.376 1_455 S
C940 H927 0.930 . S
C940 C939 1.376 1_655 S
C940 C941 1.388 . S
C941 H928 0.930 . S
C941 C940 1.388 . S
C941 C942 1.390 . S
C942 C941 1.390 . S
C942 C943 1.394 1_655 S
C942 C948 1.465 . S
C943 C938 1.399 . S
C943 C942 1.394 1_455 S
C943 C944 1.516 . S
C944 C943 1.516 . S
C944 C945 1.502 . S
C944 C946 1.561 1_455 S
C944 C947 1.526 1_455 S
C945 H929 0.959 . S
C945 H930 0.959 . S
C945 H931 0.961 . S
C945 C944 1.502 . S
C946 H932 0.960 . S
C946 H933 0.961 . S
C946 H934 0.959 . S
C946 C944 1.561 1_655 S
C947 C944 1.526 1_655 S
C947 C948 1.396 . S
C947 C952 1.390 . S
C948 C942 1.465 . S
C948 C947 1.396 . S
C948 C949 1.399 . S
C949 H935 0.929 . S
C949 C948 1.399 . S
C949 C950 1.385 . S
C950 H936 0.931 . S
C950 C949 1.385 . S
C950 C951 1.389 . S
C951 C950 1.389 . S
C951 C952 1.387 . S
C952 H937 0.930 1_655 S
C952 C947 1.390 . S
C952 C951 1.387 . S
H953 C965 0.930 . S
H954 C967 0.930 . S
H955 C968 0.930 . S
H956 C972 0.959 . S
H957 C972 0.959 . S
H958 C972 0.961 . S
H959 C973 0.960 . S
H960 C973 0.961 . S
H961 C973 0.959 . S
H962 C976 0.929 . S
H963 C977 0.931 . S
H964 C979 0.930 . S
C965 H953 0.930 . S
C965 C966 1.399 . S
C965 C970 1.399 . S
C966 C965 1.399 . S
C966 C967 1.376 1_545 S
C967 H954 0.930 . S
C967 C966 1.376 1_565 S
C967 C968 1.388 . S
C968 H955 0.930 . S
C968 C967 1.388 . S
C968 C969 1.390 . S
C969 C968 1.390 . S
C969 C970 1.394 1_565 S
C969 C975 1.465 . S
C970 C965 1.399 . S
C970 C969 1.394 1_545 S
C970 C971 1.516 . S
C971 C970 1.516 . S
C971 C972 1.502 . S
C971 C973 1.561 . S
C971 C974 1.526 . S
C972 H956 0.959 . S
C972 H957 0.959 . S
C972 H958 0.961 . S
C972 C971 1.502 . S
C973 H959 0.960 . S
C973 H960 0.961 . S
C973 H961 0.959 . S
C973 C971 1.561 . S
C974 C971 1.526 . S
C974 C975 1.396 1_545 S
C974 C979 1.390 . S
C975 C969 1.465 . S
C975 C974 1.396 1_565 S
C975 C976 1.399 . S
C976 H962 0.929 . S
C976 C975 1.399 . S
C976 C977 1.385 . S
C977 H963 0.931 . S
C977 C976 1.385 . S
C977 C978 1.389 . S
C978 C977 1.389 . S
C978 C979 1.387 1_565 S
C979 H964 0.930 . S
C979 C974 1.390 . S
C979 C978 1.387 1_545 S
H980 C992 0.930 . S
H981 C994 0.930 . S
H982 C995 0.930 . S
H983 C999 0.959 . S
H984 C999 0.959 . S
H985 C999 0.961 1_556 S
H986 C1000 0.960 . S
H987 C1000 0.961 1_554 S
H988 C1000 0.959 . S
H989 C1003 0.929 . S
H990 C1004 0.931 . S
H991 C1006 0.930 . S
C992 H980 0.930 . S
C992 C993 1.399 . S
C992 C997 1.399 . S
C993 C992 1.399 . S
C993 C994 1.376 . S
C994 H981 0.930 . S
C994 C993 1.376 . S
C994 C995 1.388 . S
C995 H982 0.930 . S
C995 C994 1.388 . S
C995 C996 1.390 . S
C996 C995 1.390 . S
C996 C997 1.394 . S
C996 C1002 1.465 1_556 S
C997 C992 1.399 . S
C997 C996 1.394 . S
C997 C998 1.516 1_556 S
C998 C997 1.516 1_554 S
C998 C999 1.502 . S
C998 C1000 1.561 1_554 S
C998 C1001 1.526 . S
C999 H983 0.959 . S
C999 H984 0.959 . S
C999 H985 0.961 1_554 S
C999 C998 1.502 . S
C1000 H986 0.960 . S
C1000 H987 0.961 1_556 S
C1000 H988 0.959 . S
C1000 C998 1.561 1_556 S
C1001 C998 1.526 . S
C1001 C1002 1.396 . S
C1001 C1006 1.390 . S
C1002 C996 1.465 1_554 S
C1002 C1001 1.396 . S
C1002 C1003 1.399 . S
C1003 H989 0.929 . S
C1003 C1002 1.399 . S
C1003 C1004 1.385 . S
C1004 H990 0.931 . S
C1004 C1003 1.385 . S
C1004 C1005 1.389 . S
C1005 C1004 1.389 . S
C1005 C1006 1.387 . S
C1006 H991 0.930 . S
C1006 C1001 1.390 . S
C1006 C1005 1.387 . S
H1007 C1019 0.930 . S
H1008 C1021 0.930 . S
H1009 C1022 0.930 . S
H1010 C1026 0.959 . S
H1011 C1026 0.959 1_554 S
H1012 C1026 0.961 . S
H1013 C1027 0.960 . S
H1014 C1027 0.961 1_554 S
H1015 C1027 0.959 . S
H1016 C1030 0.929 . S
H1017 C1031 0.931 . S
H1018 C1033 0.930 . S
C1019 H1007 0.930 . S
C1019 C1020 1.399 . S
C1019 C1024 1.399 . S
C1020 C1019 1.399 . S
C1020 C1021 1.376 . S
C1021 H1008 0.930 . S
C1021 C1020 1.376 . S
C1021 C1022 1.388 . S
C1022 H1009 0.930 . S
C1022 C1021 1.388 . S
C1022 C1023 1.390 . S
C1023 C1022 1.390 . S
C1023 C1024 1.394 . S
C1023 C1029 1.465 1_556 S
C1024 C1019 1.399 . S
C1024 C1023 1.394 . S
C1024 C1025 1.516 . S
C1025 C1024 1.516 . S
C1025 C1026 1.502 . S
C1025 C1027 1.561 . S
C1025 C1028 1.526 1_556 S
C1026 H1010 0.959 . S
C1026 H1011 0.959 1_556 S
C1026 H1012 0.961 . S
C1026 C1025 1.502 . S
C1027 H1013 0.960 . S
C1027 H1014 0.961 1_556 S
C1027 H1015 0.959 . S
C1027 C1025 1.561 . S
C1028 C1025 1.526 1_554 S
C1028 C1029 1.396 . S
C1028 C1033 1.390 . S
C1029 C1023 1.465 1_554 S
C1029 C1028 1.396 . S
C1029 C1030 1.399 . S
C1030 H1016 0.929 . S
C1030 C1029 1.399 . S
C1030 C1031 1.385 . S
C1031 H1017 0.931 . S
C1031 C1030 1.385 . S
C1031 C1032 1.389 . S
C1032 C1031 1.389 . S
C1032 C1033 1.387 . S
C1033 H1018 0.930 . S
C1033 C1028 1.390 . S
C1033 C1032 1.387 . S
H1034 C1046 0.930 . S
H1035 C1048 0.930 . S
H1036 C1049 0.930 . S
H1037 C1053 0.959 . S
H1038 C1053 0.959 . S
H1039 C1053 0.961 1_554 S
H1040 C1054 0.960 . S
H1041 C1054 0.961 1_556 S
H1042 C1054 0.959 . S
H1043 C1057 0.929 . S
H1044 C1058 0.931 . S
H1045 C1060 0.930 . S
C1046 H1034 0.930 . S
C1046 C1047 1.399 . S
C1046 C1051 1.399 . S
C1047 C1046 1.399 . S
C1047 C1048 1.376 . S
C1048 H1035 0.930 . S
C1048 C1047 1.376 . S
C1048 C1049 1.388 . S
C1049 H1036 0.930 . S
C1049 C1048 1.388 . S
C1049 C1050 1.390 . S
C1050 C1049 1.390 . S
C1050 C1051 1.394 . S
C1050 C1056 1.465 1_554 S
C1051 C1046 1.399 . S
C1051 C1050 1.394 . S
C1051 C1052 1.509 1_554 S
C1052 C1051 1.509 1_556 S
C1052 C1053 1.503 . S
C1052 C1054 1.560 1_556 S
C1052 C1055 1.533 . S
C1053 H1037 0.959 . S
C1053 H1038 0.959 . S
C1053 H1039 0.961 1_556 S
C1053 C1052 1.503 . S
C1054 H1040 0.960 . S
C1054 H1041 0.961 1_554 S
C1054 H1042 0.959 . S
C1054 C1052 1.560 1_554 S
C1055 C1052 1.533 . S
C1055 C1056 1.396 . S
C1055 C1060 1.390 . S
C1056 C1050 1.465 1_556 S
C1056 C1055 1.396 . S
C1056 C1057 1.399 . S
C1057 H1043 0.929 . S
C1057 C1056 1.399 . S
C1057 C1058 1.385 . S
C1058 H1044 0.931 . S
C1058 C1057 1.385 . S
C1058 C1059 1.389 . S
C1059 C1058 1.389 . S
C1059 C1060 1.387 . S
C1060 H1045 0.930 . S
C1060 C1055 1.390 . S
C1060 C1059 1.387 . S
H1061 C1073 0.930 . S
H1062 C1075 0.930 . S
H1063 C1076 0.930 . S
H1064 C1080 0.959 . S
H1065 C1080 0.959 . S
H1066 C1080 0.961 1_556 S
H1067 C1081 0.960 1_556 S
H1068 C1081 0.961 . S
H1069 C1081 0.959 . S
H1070 C1084 0.929 . S
H1071 C1085 0.931 . S
H1072 C1087 0.930 . S
C1073 H1061 0.930 . S
C1073 C1074 1.399 . S
C1073 C1078 1.399 . S
C1074 C1073 1.399 . S
C1074 C1075 1.376 . S
C1075 H1062 0.930 . S
C1075 C1074 1.376 . S
C1075 C1076 1.388 . S
C1076 H1063 0.930 . S
C1076 C1075 1.388 . S
C1076 C1077 1.390 . S
C1077 C1076 1.390 . S
C1077 C1078 1.394 . S
C1077 C1083 1.465 1_556 S
C1078 C1073 1.399 . S
C1078 C1077 1.394 . S
C1078 C1079 1.516 1_556 S
C1079 C1078 1.516 1_554 S
C1079 C1080 1.502 . S
C1079 C1081 1.561 . S
C1079 C1082 1.526 . S
C1080 H1064 0.959 . S
C1080 H1065 0.959 . S
C1080 H1066 0.961 1_554 S
C1080 C1079 1.502 . S
C1081 H1067 0.960 1_554 S
C1081 H1068 0.961 . S
C1081 H1069 0.959 . S
C1081 C1079 1.561 . S
C1082 C1079 1.526 . S
C1082 C1083 1.396 . S
C1082 C1087 1.390 . S
C1083 C1077 1.465 1_554 S
C1083 C1082 1.396 . S
C1083 C1084 1.399 . S
C1084 H1070 0.929 . S
C1084 C1083 1.399 . S
C1084 C1085 1.385 . S
C1085 H1071 0.931 . S
C1085 C1084 1.385 . S
C1085 C1086 1.389 . S
C1086 C1085 1.389 . S
C1086 C1087 1.387 . S
C1087 H1072 0.930 . S
C1087 C1082 1.390 . S
C1087 C1086 1.387 . S
C237 C13 1.265 . S
C249 C50 1.251 . S
C264 C8 1.313 . S
C276 C27 1.333 . S
C291 C22 1.305 . S
C303 C41 1.330 . S
C318 C36 1.265 . S
C330 C55 1.301 . S
C345 C69 1.262 . S
C357 C78 1.247 . S
C372 C83 1.298 . S
C384 C92 1.285 . S
C399 C97 1.286 . S
C411 C106 1.248 . S
C426 C111 1.305 . S
C438 C64 1.270 . S
C453 C125 1.224 . S
C465 C162 1.187 . S
C480 C120 1.183 . S
C492 C139 1.218 . S
C507 C134 1.314 . S
C519 C153 1.334 . S
C534 C167 1.283 . S
C546 C148 1.244 . S
C561 C190 1.184 . S
C573 C181 1.218 . S
C588 C204 1.311 . S
C600 C195 1.333 . S
C615 C209 1.265 . S
C627 C218 1.250 . S
C642 C223 1.266 . S
C654 C176 1.251 . S
C669 C11 1.027 . S
C681 C221 1.031 . S
C696 C25 1.037 . S
C708 C179 1.017 . S
C723 C193 1.035 . S
C735 C39 1.021 . S
C750 C53 0.997 . S
C762 C207 1.036 . S
C777 C137 0.969 . S
C789 C67 0.985 . S
C804 C151 1.020 . S
C816 C81 1.035 . S
C831 C95 1.035 . S
C843 C165 0.992 . S
C858 C109 0.972 . S
C870 C123 0.980 . S
C885 C7 1.409 . S
C897 C91 1.422 . S
C912 C105 1.351 . S
C924 C21 1.374 . S
C939 C63 1.362 . S
C951 C35 1.347 . S
C966 C77 1.420 . S
C978 C49 1.400 . S
C993 C119 1.364 . S
C1005 C203 1.348 . S
C1020 C133 1.349 . S
C1032 C217 1.370 . S
C1047 C175 1.357 . S
C1059 C147 1.346 . S
C1074 C161 1.415 . S
C1086 C189 1.392 . S
