# Generated by pormake.
# Topology why, (6)-cn, num edge types: 1
# Building blocks:
#     Node 0, Type 0, BuildingBlock: JUFBIX_clean_sbu_0, # of connection points: 6
#     Node 1, Type 0, BuildingBlock: JUFBIX_clean_sbu_0, # of connection points: 6
#     Node 2, Type 0, BuildingBlock: JUFBIX_clean_sbu_0, # of connection points: 6
#     Node 3, Type 0, BuildingBlock: JUFBIX_clean_sbu_0, # of connection points: 6
#     Node 4, Type 0, BuildingBlock: JUFBIX_clean_sbu_0, # of connection points: 6
#     Node 5, Type 0, BuildingBlock: JUFBIX_clean_sbu_0, # of connection points: 6
#     Node 6, Type 0, BuildingBlock: JUFBIX_clean_sbu_0, # of connection points: 6
#     Node 7, Type 0, BuildingBlock: JUFBIX_clean_sbu_0, # of connection points: 6
#     Node 8, Type 0, BuildingBlock: JUFBIX_clean_sbu_0, # of connection points: 6
#     Node 9, Type 0, BuildingBlock: JUFBIX_clean_sbu_0, # of connection points: 6
#     Node 10, Type 0, BuildingBlock: JUFBIX_clean_sbu_0, # of connection points: 6
#     Node 11, Type 0, BuildingBlock: JUFBIX_clean_sbu_0, # of connection points: 6
#     Node 12, Type 0, BuildingBlock: JUFBIX_clean_sbu_0, # of connection points: 6
#     Node 13, Type 0, BuildingBlock: JUFBIX_clean_sbu_0, # of connection points: 6
#     Node 14, Type 0, BuildingBlock: JUFBIX_clean_sbu_0, # of connection points: 6
#     Node 15, Type 0, BuildingBlock: JUFBIX_clean_sbu_0, # of connection points: 6
#     Edge 16, Type (0, 0), BuildingBlock: OJICUG_clean_linker_0, # of connection points: 2
#     Edge 17, Type (0, 0), BuildingBlock: OJICUG_clean_linker_0, # of connection points: 2
#     Edge 18, Type (0, 0), BuildingBlock: OJICUG_clean_linker_0, # of connection points: 2
#     Edge 19, Type (0, 0), BuildingBlock: OJICUG_clean_linker_0, # of connection points: 2
#     Edge 20, Type (0, 0), BuildingBlock: OJICUG_clean_linker_0, # of connection points: 2
#     Edge 21, Type (0, 0), BuildingBlock: OJICUG_clean_linker_0, # of connection points: 2
#     Edge 22, Type (0, 0), BuildingBlock: OJICUG_clean_linker_0, # of connection points: 2
#     Edge 23, Type (0, 0), BuildingBlock: OJICUG_clean_linker_0, # of connection points: 2
#     Edge 24, Type (0, 0), BuildingBlock: OJICUG_clean_linker_0, # of connection points: 2
#     Edge 25, Type (0, 0), BuildingBlock: OJICUG_clean_linker_0, # of connection points: 2
#     Edge 26, Type (0, 0), BuildingBlock: OJICUG_clean_linker_0, # of connection points: 2
#     Edge 27, Type (0, 0), BuildingBlock: OJICUG_clean_linker_0, # of connection points: 2
#     Edge 28, Type (0, 0), BuildingBlock: OJICUG_clean_linker_0, # of connection points: 2
#     Edge 29, Type (0, 0), BuildingBlock: OJICUG_clean_linker_0, # of connection points: 2
#     Edge 30, Type (0, 0), BuildingBlock: OJICUG_clean_linker_0, # of connection points: 2
#     Edge 31, Type (0, 0), BuildingBlock: OJICUG_clean_linker_0, # of connection points: 2
#     Edge 32, Type (0, 0), BuildingBlock: OJICUG_clean_linker_0, # of connection points: 2
#     Edge 33, Type (0, 0), BuildingBlock: OJICUG_clean_linker_0, # of connection points: 2
#     Edge 34, Type (0, 0), BuildingBlock: OJICUG_clean_linker_0, # of connection points: 2
#     Edge 35, Type (0, 0), BuildingBlock: OJICUG_clean_linker_0, # of connection points: 2
#     Edge 36, Type (0, 0), BuildingBlock: OJICUG_clean_linker_0, # of connection points: 2
#     Edge 37, Type (0, 0), BuildingBlock: OJICUG_clean_linker_0, # of connection points: 2
#     Edge 38, Type (0, 0), BuildingBlock: OJICUG_clean_linker_0, # of connection points: 2
#     Edge 39, Type (0, 0), BuildingBlock: OJICUG_clean_linker_0, # of connection points: 2
#     Edge 40, Type (0, 0), BuildingBlock: OJICUG_clean_linker_0, # of connection points: 2
#     Edge 41, Type (0, 0), BuildingBlock: OJICUG_clean_linker_0, # of connection points: 2
#     Edge 42, Type (0, 0), BuildingBlock: OJICUG_clean_linker_0, # of connection points: 2
#     Edge 43, Type (0, 0), BuildingBlock: OJICUG_clean_linker_0, # of connection points: 2
#     Edge 44, Type (0, 0), BuildingBlock: OJICUG_clean_linker_0, # of connection points: 2
#     Edge 45, Type (0, 0), BuildingBlock: OJICUG_clean_linker_0, # of connection points: 2
#     Edge 46, Type (0, 0), BuildingBlock: OJICUG_clean_linker_0, # of connection points: 2
#     Edge 47, Type (0, 0), BuildingBlock: OJICUG_clean_linker_0, # of connection points: 2
#     Edge 48, Type (0, 0), BuildingBlock: OJICUG_clean_linker_0, # of connection points: 2
#     Edge 49, Type (0, 0), BuildingBlock: OJICUG_clean_linker_0, # of connection points: 2
#     Edge 50, Type (0, 0), BuildingBlock: OJICUG_clean_linker_0, # of connection points: 2
#     Edge 51, Type (0, 0), BuildingBlock: OJICUG_clean_linker_0, # of connection points: 2
#     Edge 52, Type (0, 0), BuildingBlock: OJICUG_clean_linker_0, # of connection points: 2
#     Edge 53, Type (0, 0), BuildingBlock: OJICUG_clean_linker_0, # of connection points: 2
#     Edge 54, Type (0, 0), BuildingBlock: OJICUG_clean_linker_0, # of connection points: 2
#     Edge 55, Type (0, 0), BuildingBlock: OJICUG_clean_linker_0, # of connection points: 2
#     Edge 56, Type (0, 0), BuildingBlock: OJICUG_clean_linker_0, # of connection points: 2
#     Edge 57, Type (0, 0), BuildingBlock: OJICUG_clean_linker_0, # of connection points: 2
#     Edge 58, Type (0, 0), BuildingBlock: OJICUG_clean_linker_0, # of connection points: 2
#     Edge 59, Type (0, 0), BuildingBlock: OJICUG_clean_linker_0, # of connection points: 2
#     Edge 60, Type (0, 0), BuildingBlock: OJICUG_clean_linker_0, # of connection points: 2
#     Edge 61, Type (0, 0), BuildingBlock: OJICUG_clean_linker_0, # of connection points: 2
#     Edge 62, Type (0, 0), BuildingBlock: OJICUG_clean_linker_0, # of connection points: 2
#     Edge 63, Type (0, 0), BuildingBlock: OJICUG_clean_linker_0, # of connection points: 2
# Relax obj value: 0.411
# Max RMSD: 0.199
# Mean RMSD: 0.185
data_MOF--net-why--node1-JUFBIX_clean_sbu_0--edge1-OJICUG_clean_linker_0
_symmetry_space_group_name_H-M    P1
_symmetry_Int_Tables_number       1
_symmetry_cell_setting            triclinic
loop_
_symmetry_equiv_pos_as_xyz
'x, y, z'
_cell_length_a     38.662324
_cell_length_b     38.294875
_cell_length_c     20.557729
_cell_angle_alpha  93.450149
_cell_angle_beta   77.48778
_cell_angle_gamma 97.04265
loop_
_atom_site_label
_atom_site_type_symbol
_atom_site_fract_x
_atom_site_fract_y
_atom_site_fract_z
_atom_type_partial_charge
Co0 Co 0.3382 0.20503 0.04877 0.0
C1 C 0.36466 0.27349 1.00143 0.0
Co2 Co 0.37875 0.23179 0.09938 0.0
C3 C 0.27495 0.16282 1.01049 0.0
C4 C 0.31608 0.18334 0.93046 0.0
N5 N 0.30702 0.18257 0.99773 0.0
N6 N 0.26452 0.15088 0.95343 0.0
C7 C 0.29045 0.16391 0.90343 0.0
H8 H 0.2595 0.15759 0.0602 0.0
H9 H 0.33988 0.1977 0.90216 0.0
C10 C 0.35673 0.1623 0.14038 0.0
N11 N 0.4112 0.25439 0.14415 0.0
C12 C 0.4413 0.27349 0.11487 0.0
C13 C 0.41254 0.25425 0.20918 0.0
N14 N 0.46182 0.28506 0.15838 0.0
C15 C 0.44412 0.2729 0.21799 0.0
C16 C 0.30767 0.24367 0.16572 0.0
O17 O 0.33623 0.16245 0.09908 0.0
O18 O 0.37556 0.19084 0.15103 0.0
O19 O 0.3408 0.2506 0.16567 0.0
O20 O 0.2991 0.22333 0.11821 0.0
O21 O 0.38313 0.27319 0.04559 0.0
H22 H 0.3926 0.24033 0.24693 0.0
H23 H 0.44917 0.27682 0.06156 0.0
O24 O 0.34205 0.2469 0.99646 0.0
O25 O 0.37628 0.1875 0.98299 0.0
O26 O 0.41728 0.21242 0.03345 0.0
C27 C 0.40891 0.19301 0.98547 0.0
H28 H 0.28999 0.16115 0.85088 0.0
H29 H 0.45394 0.27609 0.26371 0.0
Co30 Co 0.58204 0.59774 0.29973 0.0
C31 C 0.5179 0.62367 0.29956 0.0
Co32 Co 0.56973 0.64088 0.37268 0.0
C33 C 0.61022 0.5333 0.24109 0.0
C34 C 0.59037 0.56155 0.17255 0.0
N35 N 0.59349 0.56189 0.23663 0.0
N36 N 0.61817 0.51566 0.18187 0.0
C37 C 0.60566 0.53332 0.13877 0.0
H38 H 0.61799 0.52659 0.28588 0.0
H39 H 0.57893 0.58135 0.15117 0.0
C40 C 0.63284 0.61605 0.37637 0.0
N41 N 0.55983 0.67534 0.43667 0.0
C42 C 0.55118 0.70727 0.42793 0.0
C43 C 0.55898 0.67423 0.5026 0.0
N44 N 0.54471 0.72611 0.48565 0.0
C45 C 0.54917 0.7055 0.53318 0.0
C46 C 0.54315 0.57399 0.42327 0.0
O47 O 0.62685 0.59656 0.32674 0.0
O48 O 0.6109 0.6373 0.40248 0.0
O49 O 0.54427 0.60694 0.43542 0.0
O50 O 0.55901 0.56318 0.36591 0.0
O51 O 0.52771 0.6449 0.34361 0.0
H52 H 0.56448 0.65189 0.52695 0.0
H53 H 0.54811 0.71597 0.38053 0.0
O54 O 0.53719 0.5995 0.27424 0.0
O55 O 0.60424 0.63309 0.23309 0.0
O56 O 0.5951 0.67557 0.30857 0.0
C57 C 0.60664 0.66604 0.24806 0.0
H58 H 0.60807 0.52662 0.08617 0.0
H59 H 0.54497 0.71235 0.58595 0.0
Co60 Co 0.1657 0.85246 0.45206 0.0
C61 C 0.17323 0.89117 0.56842 0.0
Co62 Co 0.17905 0.82155 0.52894 0.0
C63 C 0.12225 0.87599 0.36909 0.0
C64 C 0.16773 0.91303 0.37508 0.0
N65 N 0.15245 0.88043 0.39297 0.0
N66 N 0.11773 0.90478 0.33842 0.0
C67 C 0.14633 0.92813 0.34185 0.0
H68 H 0.1027 0.85307 0.37808 0.0
H69 H 0.19177 0.92583 0.38887 0.0
C70 C 0.16683 0.7822 0.4114 0.0
N71 N 0.19174 0.79413 0.59014 0.0
C72 C 0.21431 0.80279 0.63198 0.0
C73 C 0.17843 0.76051 0.60351 0.0
N74 N 0.21559 0.77584 0.67092 0.0
C75 C 0.19299 0.74922 0.65281 0.0
C76 C 0.10777 0.82213 0.54433 0.0
O77 O 0.16283 0.8124 0.39325 0.0
O78 O 0.17666 0.7803 0.46659 0.0
O79 O 0.13125 0.80948 0.56722 0.0
O80 O 0.11709 0.8409 0.49325 0.0
O81 O 0.17909 0.86241 0.59004 0.0
H82 H 0.15883 0.74531 0.57974 0.0
H83 H 0.22947 0.82841 0.63369 0.0
O84 O 0.16759 0.89161 0.51014 0.0
O85 O 0.21464 0.8651 0.41388 0.0
O86 O 0.22807 0.83556 0.49151 0.0
C87 C 0.23777 0.85709 0.4443 0.0
H88 H 0.15082 0.95459 0.32363 0.0
H89 H 0.18658 0.72364 0.67481 0.0
Co90 Co 0.93364 0.45698 0.81556 0.0
C91 C 0.99687 0.42339 0.76984 0.0
Co92 Co 0.94137 0.4157 0.88008 0.0
C93 C 0.91032 0.52199 0.76891 0.0
C94 C 0.9355 0.48837 0.69069 0.0
N95 N 0.92745 0.49229 0.75773 0.0
N96 N 0.90711 0.5361 0.71137 0.0
C97 C 0.92315 0.51481 0.66249 0.0
H98 H 0.89886 0.53204 0.8182 0.0
H99 H 0.94833 0.46668 0.66371 0.0
C100 C 0.87512 0.44064 0.91528 0.0
N101 N 0.9444 0.38333 0.93986 0.0
C102 C 0.95521 0.35112 0.92983 0.0
C103 C 0.93659 0.38863 1.00686 0.0
N104 N 0.95475 0.33639 0.98797 0.0
C105 C 0.9432 0.35983 0.0366 0.0
C106 C 0.96939 0.48232 0.92388 0.0
O107 O 0.88694 0.46182 0.86813 0.0
O108 O 0.89678 0.423 0.93326 0.0
O109 O 0.96503 0.44948 0.93129 0.0
O110 O 0.95767 0.49354 0.8754 0.0
O111 O 0.98594 0.40681 0.82376 0.0
H112 H 0.92736 0.41235 0.0325 0.0
H113 H 0.96457 0.3393 0.88097 0.0
O114 O 0.97984 0.44839 0.75898 0.0
O115 O 0.91056 0.41984 0.76183 0.0
O116 O 0.9176 0.38067 0.8299 0.0
C117 C 0.90587 0.38775 0.7795 0.0
H118 H 0.92546 0.51789 0.60966 0.0
H119 H 0.94037 0.35653 0.0895 0.0
Co120 Co 0.63081 0.81798 0.95042 0.0
C121 C 0.65278 0.88749 0.90944 0.0
Co122 Co 0.67155 0.84464 1.0007 0.0
C123 C 0.56801 0.7765 0.93547 0.0
C124 C 0.59689 0.79525 0.84087 0.0
N125 N 0.59819 0.7954 0.90594 0.0
N126 N 0.54749 0.76474 0.89204 0.0
C127 C 0.56527 0.7766 0.83225 0.0
H128 H 0.56014 0.77336 0.98883 0.0
H129 H 0.61691 0.80893 0.80291 0.0
C130 C 0.64505 0.77613 0.04819 0.0
N131 N 0.70281 0.86707 0.05166 0.0
C132 C 0.73444 0.88761 0.03917 0.0
C133 C 0.69398 0.86569 0.11887 0.0
N134 N 0.74482 0.89939 0.09638 0.0
C135 C 0.71932 0.88546 0.14615 0.0
C136 C 0.60099 0.85696 0.06423 0.0
O137 O 0.62637 0.77656 1.0044 0.0
O138 O 0.66781 0.80265 0.05281 0.0
O139 O 0.63363 0.86219 0.06672 0.0
O140 O 0.59246 0.83757 1.01637 0.0
O141 O 0.67336 0.8873 0.95061 0.0
H142 H 0.67045 0.85083 0.14695 0.0
H143 H 0.74955 0.8936 0.98955 0.0
O144 O 0.63401 0.85892 0.89866 0.0
O145 O 0.66864 0.79902 0.884 0.0
O146 O 0.71052 0.82638 0.93093 0.0
C147 C 0.70181 0.80598 0.8836 0.0
H148 H 0.55552 0.77315 0.78647 0.0
H149 H 0.71985 0.88792 0.19869 0.0
Co150 Co 0.44025 0.4098 0.67857 0.0
C151 C 0.37682 0.43187 0.6725 0.0
Co152 Co 0.42673 0.45259 0.75171 0.0
C153 C 0.47145 0.34938 0.62278 0.0
C154 C 0.45273 0.37493 0.54953 0.0
N155 N 0.45351 0.37603 0.615 0.0
N156 N 0.48297 0.33224 0.56471 0.0
C157 C 0.47086 0.34769 0.51827 0.0
H158 H 0.47692 0.34336 0.67008 0.0
H159 H 0.44131 0.39376 0.52566 0.0
C160 C 0.49113 0.42937 0.75464 0.0
N161 N 0.41291 0.48755 0.81513 0.0
C162 C 0.3961 0.51603 0.81041 0.0
C163 C 0.41468 0.48723 0.87986 0.0
N164 N 0.38681 0.53295 0.87008 0.0
C165 C 0.39857 0.51495 0.91371 0.0
C166 C 0.40367 0.3835 0.80178 0.0
O167 O 0.48218 0.4085 0.70954 0.0
O168 O 0.47102 0.45272 0.78046 0.0
O169 O 0.40483 0.41641 0.81688 0.0
O170 O 0.41624 0.3742 0.74154 0.0
O171 O 0.38243 0.45202 0.72166 0.0
H172 H 0.42604 0.46745 0.90145 0.0
H173 H 0.38948 0.52332 0.76488 0.0
O174 O 0.39917 0.41084 0.64717 0.0
O175 O 0.46441 0.44448 0.6165 0.0
O176 O 0.44946 0.48791 0.68675 0.0
C177 C 0.46525 0.47737 0.6291 0.0
H178 H 0.4762 0.34089 0.46544 0.0
H179 H 0.39535 0.52124 0.96659 0.0
Co180 Co 0.83049 0.22743 0.51968 0.0
C181 C 0.84234 0.26686 0.63777 0.0
Co182 Co 0.84381 0.19668 0.59678 0.0
C183 C 0.79571 0.2462 0.41583 0.0
C184 C 0.83102 0.28861 0.44562 0.0
N185 N 0.81787 0.25489 0.45842 0.0
N186 N 0.79468 0.27317 0.37674 0.0
C187 C 0.81687 0.29988 0.39578 0.0
H188 H 0.78128 0.22031 0.41265 0.0
H189 H 0.85008 0.30397 0.47046 0.0
C190 C 0.83684 0.15791 0.48001 0.0
N191 N 0.85689 0.16845 0.6556 0.0
C192 C 0.88734 0.17228 0.67855 0.0
C193 C 0.84139 0.13584 0.67305 0.0
N194 N 0.89182 0.14312 0.70811 0.0
C195 C 0.86292 0.12013 0.70502 0.0
C196 C 0.77177 0.19172 0.60398 0.0
O197 O 0.83096 0.1866 0.45813 0.0
O198 O 0.84209 0.1576 0.53856 0.0
O199 O 0.79487 0.184 0.63473 0.0
O200 O 0.78145 0.2131 0.55653 0.0
O201 O 0.84658 0.23672 0.65589 0.0
H202 H 0.81714 0.12339 0.65953 0.0
H203 H 0.90712 0.19503 0.66951 0.0
O204 O 0.83249 0.26864 0.58253 0.0
O205 O 0.87826 0.23979 0.48195 0.0
O206 O 0.89246 0.20831 0.55579 0.0
C207 C 0.90175 0.22716 0.5048 0.0
H208 H 0.82244 0.3259 0.3755 0.0
H209 H 0.85833 0.09353 0.72258 0.0
Co210 Co 0.06699 0.63439 0.16942 0.0
C211 C 0.13378 0.6107 0.1338 0.0
Co212 Co 0.07523 0.59275 0.23291 0.0
C213 C 0.04159 0.69344 0.12252 0.0
C214 C 0.07515 0.66609 0.04476 0.0
N215 N 0.06253 0.66731 0.11148 0.0
N216 N 0.04018 0.7081 0.06532 0.0
C217 C 0.06159 0.69132 1.01628 0.0
H218 H 0.02673 0.70078 0.1713 0.0
H219 H 0.09144 0.64668 1.01784 0.0
C220 C 0.01134 0.62484 0.27958 0.0
N221 N 0.08203 0.55726 0.28979 0.0
C222 C 0.0992 0.52759 0.27829 0.0
C223 C 0.07414 0.56109 0.35686 0.0
N224 N 0.10256 0.51343 0.33569 0.0
C225 C 0.0866 0.53465 0.38477 0.0
C226 C 0.1019 0.66202 0.2707 0.0
O227 O 0.02187 0.64134 0.22566 0.0
O228 O 0.02901 0.60041 0.29046 0.0
O229 O 0.0981 0.62975 0.28702 0.0
O230 O 0.08948 0.66939 0.2213 0.0
O231 O 0.12198 0.5887 0.17961 0.0
H232 H 0.0613 0.58271 0.38408 0.0
H233 H 0.11052 0.51756 0.22891 0.0
O234 O 0.11212 0.62877 0.11691 0.0
O235 O 0.0447 0.60069 0.11603 0.0
O236 O 0.05141 0.55648 0.17243 0.0
C237 C 0.04018 0.56783 0.12343 0.0
H238 H 0.06557 0.69565 0.9635 0.0
H239 H 0.08441 0.5315 0.43755 0.0
Co240 Co 0.83772 0.70484 0.54784 0.0
C241 C 0.86417 0.77332 0.50023 0.0
Co242 Co 0.87843 0.73158 0.59813 0.0
C243 C 0.77487 0.66179 0.5094 0.0
C244 C 0.81534 0.68367 0.42967 0.0
N245 N 0.80649 0.68234 0.4969 0.0
N246 N 0.76451 0.64995 0.4522 0.0
C247 C 0.79001 0.66385 0.40241 0.0
H248 H 0.75975 0.65584 0.55903 0.0
H249 H 0.83886 0.69853 0.40157 0.0
C250 C 0.8565 0.6621 0.63924 0.0
N251 N 0.91104 0.75423 0.64255 0.0
C252 C 0.94122 0.77311 0.61295 0.0
C253 C 0.91234 0.75446 0.70763 0.0
N254 N 0.96175 0.78492 0.65634 0.0
C255 C 0.94397 0.77313 0.71619 0.0
C256 C 0.8074 0.74354 0.66487 0.0
O257 O 0.83593 0.66224 0.59804 0.0
O258 O 0.87525 0.69068 0.64998 0.0
O259 O 0.84057 0.75054 0.66449 0.0
O260 O 0.79871 0.72312 0.61756 0.0
O261 O 0.88283 0.77295 0.54408 0.0
H262 H 0.89232 0.74083 0.74565 0.0
H263 H 0.94909 0.77619 0.55957 0.0
O264 O 0.84144 0.74678 0.49563 0.0
O265 O 0.87567 0.6873 0.4819 0.0
O266 O 0.91679 0.71201 0.53225 0.0
C267 C 0.90829 0.69259 0.4844 0.0
H268 H 0.78949 0.66136 0.34987 0.0
H269 H 0.95371 0.77665 0.76197 0.0
Co270 Co 0.08264 0.09731 0.79782 0.0
C271 C 0.01824 0.12068 0.79531 0.0
Co272 Co 0.06928 0.14011 0.87106 0.0
C273 C 0.11311 0.03383 0.73891 0.0
C274 C 0.09428 0.06259 0.66974 0.0
N275 N 0.09627 0.06231 0.73436 0.0
N276 N 0.1222 1.01687 0.67922 0.0
C277 C 0.1103 0.03485 0.63578 0.0
H278 H 0.11989 0.02656 0.7843 0.0
H279 H 0.08285 0.08237 0.64829 0.0
C280 C 0.13268 0.11786 0.8768 0.0
N281 N 0.05621 0.17395 0.93461 0.0
C282 C 0.03842 0.2007 0.9267 0.0
C283 C 0.05696 0.17506 1.00009 0.0
N284 N 0.02694 0.21789 0.98471 0.0
C285 C 0.03894 0.2024 0.03124 0.0
C286 C 0.04418 0.07257 0.92052 0.0
O287 O 0.12699 0.09778 0.8276 0.0
O288 O 0.11038 0.13892 0.90229 0.0
O289 O 0.04507 0.10547 0.9332 0.0
O290 O 0.05992 0.06205 0.86284 0.0
O291 O 0.02733 0.14155 0.84029 0.0
H292 H 0.06825 0.15617 1.02406 0.0
H293 H 0.03299 0.2067 0.87937 0.0
O294 O 0.03827 0.09728 0.76938 0.0
O295 O 0.10452 0.13345 0.73258 0.0
O296 O 0.09336 0.17566 0.80801 0.0
C297 C 0.10581 0.16636 0.74773 0.0
H298 H 0.11335 0.02854 0.58293 0.0
H299 H 0.03356 0.20922 0.08406 0.0
Co300 Co 0.66546 0.35289 0.95346 0.0
C301 C 0.67244 0.39123 0.07069 0.0
Co302 Co 0.67897 0.32189 0.02998 0.0
C303 C 0.62173 0.37757 0.87228 0.0
C304 C 0.66753 0.4141 0.87845 0.0
N305 N 0.65218 0.38136 0.89527 0.0
N306 N 0.61714 0.40687 0.84328 0.0
C307 C 0.64593 0.42992 0.84681 0.0
H308 H 0.60206 0.35472 0.88084 0.0
H309 H 0.69173 0.42653 0.89216 0.0
C310 C 0.66705 0.28285 0.91155 0.0
N311 N 0.69182 0.29421 0.09064 0.0
C312 C 0.71407 0.30279 0.13311 0.0
C313 C 0.67883 0.26041 0.10301 0.0
N314 N 0.71529 0.27567 0.17172 0.0
C315 C 0.69314 0.24898 0.15249 0.0
C316 C 0.60768 0.32199 0.04527 0.0
O317 O 0.66266 0.31304 0.89387 0.0
O318 O 0.67706 0.28093 0.96659 0.0
O319 O 0.63124 0.30925 0.06776 0.0
O320 O 0.61689 0.34108 0.9946 0.0
O321 O 0.6784 0.36246 0.09214 0.0
H322 H 0.65976 0.2451 0.07813 0.0
H323 H 0.72841 0.32869 0.13659 0.0
O324 O 0.66719 0.39176 1.01219 0.0
O325 O 0.71433 0.36576 0.91532 0.0
O326 O 0.72797 0.3365 0.99308 0.0
C327 C 0.73753 0.35801 0.94582 0.0
H328 H 0.65043 0.45661 0.8297 0.0
H329 H 0.68771 0.22288 0.17242 0.0
Co330 Co 0.43426 0.95702 0.31595 0.0
C331 C 0.49815 0.92496 0.26914 0.0
Co332 Co 0.44253 0.91538 0.37939 0.0
C333 C 0.41017 1.02213 0.27064 0.0
C334 C 0.43532 0.9887 0.19204 0.0
N335 N 0.4274 0.9925 0.25912 0.0
N336 N 0.40679 0.03628 0.21325 0.0
C337 C 0.42281 1.01511 0.16415 0.0
H338 H 0.39882 0.03212 0.32003 0.0
H339 H 0.44821 0.9671 0.1648 0.0
C340 C 0.37572 0.93901 0.41511 0.0
N341 N 0.44708 0.88247 0.43725 0.0
C342 C 0.46803 0.85636 0.42608 0.0
C343 C 0.4346 0.88375 0.504 0.0
N344 N 0.46962 0.84176 0.48324 0.0
C345 C 0.44829 0.85857 0.53238 0.0
C346 C 0.46931 0.98196 0.42542 0.0
O347 O 0.38751 0.96103 0.36933 0.0
O348 O 0.3974 0.92095 0.43197 0.0
O349 O 0.46481 0.94909 0.43278 0.0
O350 O 0.45808 0.99331 0.37643 0.0
O351 O 0.48765 0.90848 0.32308 0.0
H352 H 0.41835 0.90316 0.531 0.0
H353 H 0.48279 0.849 0.37722 0.0
O354 O 0.48048 0.94939 0.25831 0.0
O355 O 0.41139 0.92003 0.26186 0.0
O356 O 0.42006 0.88038 0.32751 0.0
C357 C 0.40761 0.88776 0.27815 0.0
H358 H 0.42501 1.01827 0.11137 0.0
H359 H 0.44445 0.85429 0.58516 0.0
Co360 Co 0.13062 0.31795 0.45003 0.0
C361 C 0.15253 0.38739 0.40877 0.0
Co362 Co 0.17119 0.34478 0.50053 0.0
C363 C 0.06809 0.2761 0.43506 0.0
C364 C 0.09681 0.29496 0.34044 0.0
N365 N 0.09814 0.29518 0.4055 0.0
N366 N 0.0476 0.26417 0.39169 0.0
C367 C 0.06528 0.27609 0.33187 0.0
H368 H 0.06025 0.27299 0.48844 0.0
H369 H 0.11673 0.30873 0.30245 0.0
C370 C 0.14484 0.27638 0.54811 0.0
N371 N 0.20241 0.36736 0.55142 0.0
C372 C 0.23456 0.38697 0.53853 0.0
C373 C 0.19332 0.36677 0.61871 0.0
N374 N 0.245 0.39901 0.59553 0.0
C375 C 0.21901 0.38619 0.64562 0.0
C376 C 0.10048 0.35679 0.56385 0.0
O377 O 0.12636 0.27663 0.50395 0.0
O378 O 0.16742 0.30299 0.55302 0.0
O379 O 0.13311 0.36234 0.56628 0.0
O380 O 0.0921 0.33732 0.51594 0.0
O381 O 0.17307 0.38729 0.45003 0.0
H382 H 0.16949 0.35252 0.64712 0.0
H383 H 0.25006 0.392 0.4888 0.0
O384 O 0.1337 0.35883 0.39822 0.0
O385 O 0.16857 0.29914 0.38372 0.0
O386 O 0.21028 0.32646 0.4311 0.0
C387 C 0.2017 0.30609 0.38363 0.0
H388 H 0.05549 0.27256 0.28613 0.0
H389 H 0.21947 0.38905 0.69816 0.0
Co390 Co 0.93965 0.9087 0.17592 0.0
C391 C 0.87649 0.93344 0.17223 0.0
Co392 Co 0.92721 0.95173 0.24903 0.0
C393 C 0.9584 0.84244 0.12033 0.0
C394 C 0.95077 0.87561 0.04572 0.0
N395 N 0.94971 0.87436 0.1117 0.0
N396 N 0.9651 0.82373 0.06251 0.0
C397 C 0.96076 0.84442 1.015 0.0
H398 H 0.96134 0.83365 0.16775 0.0
H399 H 0.94533 0.89799 1.02141 0.0
C400 C 0.99141 0.92588 0.24917 0.0
N401 N 0.91566 0.98739 0.31249 0.0
C402 C 0.89869 1.0159 0.30866 0.0
C403 C 0.91903 0.98759 0.3764 0.0
N404 N 0.89084 0.03334 0.36813 0.0
C405 C 0.90368 1.01564 0.4107 0.0
C406 C 0.9027 0.88332 0.30028 0.0
O407 O 0.98167 0.90469 0.20502 0.0
O408 O 0.97205 0.94998 0.27456 0.0
O409 O 0.90505 0.91625 0.31535 0.0
O410 O 0.91431 0.87385 0.23976 0.0
O411 O 0.88241 0.95289 0.22195 0.0
H412 H 0.93073 0.96781 0.39731 0.0
H413 H 0.89071 1.02271 0.26413 0.0
O414 O 0.89849 0.91225 0.14606 0.0
O415 O 0.96507 0.9428 0.11348 0.0
O416 O 0.9502 0.98645 0.18317 0.0
C417 C 0.96613 0.97573 0.12579 0.0
H418 H 0.96515 0.83768 0.96217 0.0
H419 H 0.90149 1.02221 0.4633 0.0
Co420 Co 0.33023 0.72835 1.02002 0.0
C421 C 0.34258 0.76765 0.1375 0.0
Co422 Co 0.34365 0.6974 0.09678 0.0
C423 C 0.29492 0.74715 0.91709 0.0
C424 C 0.33079 0.78943 0.94557 0.0
N425 N 0.3175 0.7558 0.95891 0.0
N426 N 0.29362 0.77411 0.87819 0.0
C427 C 0.31622 0.80073 0.89631 0.0
H428 H 0.27977 0.72153 0.91536 0.0
H429 H 0.35041 0.80463 0.96933 0.0
C430 C 0.33596 0.65873 0.98047 0.0
N431 N 0.35693 0.6694 0.15578 0.0
C432 C 0.38716 0.67378 0.17956 0.0
C433 C 0.3416 0.63683 0.17377 0.0
N434 N 0.39164 0.645 0.21027 0.0
C435 C 0.36299 0.6217 0.20695 0.0
C436 C 0.27157 0.69283 0.10477 0.0
O437 O 0.33012 0.68751 0.9589 0.0
O438 O 0.34166 0.65826 0.03871 0.0
O439 O 0.29473 0.68481 0.13512 0.0
O440 O 0.28124 0.71436 0.05757 0.0
O441 O 0.34661 0.73745 0.15558 0.0
H442 H 0.31751 0.62407 0.16008 0.0
H443 H 0.40675 0.69667 0.1705 0.0
O444 O 0.33269 0.76958 0.08238 0.0
O445 O 0.37802 0.7404 0.98161 0.0
O446 O 0.39223 0.70891 0.05543 0.0
C447 C 0.40151 0.7277 1.00437 0.0
H448 H 0.32262 0.82632 0.87433 0.0
H449 H 0.35845 0.59525 0.22526 0.0
Co450 Co 0.56795 0.13409 0.66908 0.0
C451 C 0.63418 0.10913 0.6339 0.0
Co452 Co 0.57568 0.09279 0.73357 0.0
C453 C 0.55428 0.19875 0.61935 0.0
C454 C 0.57272 0.16117 0.54231 0.0
N455 N 0.56494 0.16647 0.60931 0.0
N456 N 0.55483 0.21352 0.56122 0.0
C457 C 0.56625 0.19004 0.51258 0.0
H458 H 0.545 0.2106 0.66822 0.0
H459 H 0.58186 0.13742 0.51666 0.0
C460 C 0.51246 0.12641 0.77933 0.0
N461 N 0.58188 0.05747 0.79137 0.0
C462 C 0.59896 0.02773 0.78013 0.0
C463 C 0.57392 0.0614 0.85842 0.0
N464 N 0.60223 1.01362 0.83763 0.0
C465 C 0.58627 0.03495 0.88655 0.0
C466 C 0.60346 0.16204 0.76964 0.0
O467 O 0.52337 0.14297 0.7254 0.0
O468 O 0.52949 0.1014 0.79018 0.0
O469 O 0.5988 0.12994 0.78728 0.0
O470 O 0.59169 0.16912 0.71928 0.0
O471 O 0.62235 0.08793 0.68099 0.0
H472 H 0.56115 0.08312 0.88543 0.0
H473 H 0.61034 1.01765 0.73082 0.0
O474 O 0.61254 0.12679 0.61591 0.0
O475 O 0.5443 0.10031 0.61783 0.0
O476 O 0.55163 0.05624 0.67372 0.0
C477 C 0.53992 0.06747 0.62523 0.0
H478 H 0.56912 0.19336 0.45968 0.0
H479 H 0.58403 0.03188 0.93937 0.0
C480 C 0.5082 0.32256 0.08585 0.0
C481 C 0.49816 0.29972 0.13928 0.0
H482 H 0.55088 0.34722 1.0134 0.0
C483 C 0.52443 0.28676 0.16548 0.0
H484 H 0.48817 0.33299 0.06539 0.0
C485 C 0.56025 0.29457 0.13553 0.0
C486 C 0.57016 0.31555 0.0792 0.0
H487 H 0.5172 0.26881 0.20619 0.0
H488 H 0.58003 0.28321 0.15519 0.0
C489 C 0.54394 0.3304 0.0559 0.0
C490 C 0.50014 0.76361 0.54427 0.0
C491 C 0.53019 0.75887 0.49391 0.0
H492 H 0.45645 0.79386 0.57928 0.0
C493 C 0.5425 0.78403 0.4451 0.0
H494 H 0.49019 0.74417 0.58197 0.0
C495 C 0.52343 0.81222 0.44342 0.0
C496 C 0.49161 0.81546 0.49035 0.0
H497 H 0.56598 0.78084 0.40644 0.0
H498 H 0.53302 0.83085 0.4042 0.0
C499 C 0.48083 0.79179 0.54241 0.0
C500 C 0.06016 0.7953 0.63503 0.0
C501 C 0.07019 0.81575 0.57799 0.0
H502 H 0.01702 0.76982 0.70588 0.0
C503 C 0.04399 0.82998 0.55351 0.0
H504 H 0.07991 0.78443 0.65559 0.0
C505 C 0.0082 0.82202 0.58302 0.0
C506 C 0.99807 0.79967 0.6372 0.0
H507 H 0.051 0.84638 0.51041 0.0
H508 H 0.98823 0.83199 0.5617 0.0
C509 C 0.02429 0.78737 0.66454 0.0
C510 C 0.96265 0.27558 0.95207 0.0
C511 C 0.96827 0.30426 0.99533 0.0
H512 H 0.97616 0.22462 0.91671 0.0
C513 C 0.98992 0.30236 0.04145 0.0
H514 H 0.94541 0.27645 0.91723 0.0
C515 C 0.008 0.27298 0.04058 0.0
C516 C 1.00437 0.24539 0.99377 0.0
H517 H 0.99456 0.32443 0.07512 0.0
H518 H 0.02632 0.27273 0.07357 0.0
C519 C 0.98035 0.24621 0.95164 0.0
C520 C 0.50105 0.72756 0.96518 0.0
C521 C 0.51117 0.75001 0.91114 0.0
H522 H 0.45827 0.70318 0.0378 0.0
C523 C 0.48494 0.76243 0.88402 0.0
H524 H 0.52103 0.71749 0.98633 0.0
C525 C 0.44908 0.75455 0.91363 0.0
C526 C 0.43907 0.73402 0.97056 0.0
H527 H 0.49221 0.78005 0.84278 0.0
H528 H 0.42933 0.76553 0.89325 0.0
C529 C 0.46527 0.71964 0.99479 0.0
C530 C 0.5295 0.3038 0.59771 0.0
C531 C 0.50552 0.30473 0.55554 0.0
H532 H 0.56432 0.2734 0.6321 0.0
C533 C 0.50187 0.2772 0.50861 0.0
H534 H 0.53371 0.32534 0.63273 0.0
C535 C 0.51987 0.24777 0.50768 0.0
C536 C 0.54145 0.24574 0.55386 0.0
H537 H 0.48358 0.27754 0.4756 0.0
H538 H 0.5152 0.22574 0.47394 0.0
C539 C 0.54713 0.27436 0.59721 0.0
C540 C 0.96554 0.21914 0.49502 0.0
C541 C 0.93929 0.2335 0.47092 0.0
H542 H 0.02133 0.21697 0.48616 0.0
C543 C 0.9492 0.25394 0.41387 0.0
H544 H 0.95861 0.20273 0.5381 0.0
C545 C 0.98502 0.26177 0.38398 0.0
C546 C 0.01131 0.24937 0.41095 0.0
H547 H 0.9294 0.26489 0.39357 0.0
H548 H 0.99221 0.27934 0.34267 0.0
C549 C 1.00129 0.227 0.46511 0.0
C550 C 0.98627 0.73754 0.10458 0.0
C551 C 0.01824 0.73443 0.05804 0.0
H552 H 0.94358 0.7688 0.14115 0.0
C553 C 0.02922 0.75822 1.00622 0.0
H554 H 0.97654 0.71882 0.1436 0.0
C555 C 0.00992 0.7864 1.00423 0.0
C556 C 0.97968 0.79099 0.05422 0.0
H557 H 0.05374 0.75624 0.96965 0.0
H558 H 0.02 0.80592 0.96675 0.0
C559 C 0.96719 0.76572 0.10277 0.0
C560 C 0.19584 0.10544 0.86608 0.0
C561 C 0.16524 0.11879 0.90354 0.0
H562 H 0.25211 0.10463 0.85444 0.0
C563 C 0.16681 0.13659 0.96508 0.0
H564 H 0.19529 0.09123 0.81908 0.0
C565 C 0.19916 0.14415 0.98534 0.0
C566 C 0.23049 0.13418 0.94427 0.0
H567 H 0.14339 0.14655 0.99589 0.0
H568 H 0.20011 0.16036 0.03005 0.0
C569 C 0.22826 0.11311 0.88637 0.0
C570 C 0.64338 0.42368 0.17386 0.0
C571 C 0.6678 0.42382 0.11222 0.0
H572 H 0.60808 0.45379 0.24507 0.0
C573 C 0.67996 0.45599 0.08099 0.0
H574 H 0.63304 0.39911 0.19821 0.0
C575 C 0.66532 0.48668 0.1068 0.0
C576 C 0.63843 0.48605 0.16481 0.0
H577 H 0.69861 0.4568 0.03325 0.0
H578 H 0.67342 0.51058 0.0792 0.0
C579 C 0.62886 0.45479 0.20024 0.0
C580 C 0.31562 0.92707 0.38486 0.0
C581 C 0.33759 0.92411 0.4302 0.0
H582 H 0.26748 0.90757 0.35217 0.0
C583 C 0.32608 0.8991 0.48007 0.0
H584 H 0.32395 0.94539 0.34481 0.0
C585 C 0.29453 0.8766 0.48272 0.0
C586 C 0.27315 0.8786 0.43606 0.0
H587 H 0.34244 0.89571 0.51539 0.0
H588 H 0.28689 0.85762 0.52174 0.0
C589 C 0.28371 0.90467 0.38793 0.0
C590 C 0.88173 0.62914 0.71922 0.0
C591 C 0.86359 0.62843 0.6662 0.0
H592 H 0.90901 0.60045 0.77622 0.0
C593 C 0.8572 0.59575 0.63321 0.0
H594 H 0.88747 0.65376 0.74569 0.0
C595 C 0.87024 0.56541 0.64996 0.0
C596 C 0.88955 0.5664 0.70118 0.0
H597 H 0.84379 0.59394 0.59181 0.0
H598 H 0.86599 0.54115 0.62148 0.0
C599 C 0.89412 0.59853 0.73695 0.0
C600 C 0.78053 0.93713 0.16458 0.0
C601 C 0.77856 0.91687 0.10563 0.0
H602 H 0.81337 0.95851 0.23247 0.0
C603 C 0.81013 0.90837 0.06326 0.0
H604 H 0.75649 0.94458 0.1975 0.0
C605 C 0.84252 0.91632 0.08321 0.0
C606 C 0.84389 0.93302 0.14577 0.0
H607 H 0.80942 0.89286 1.01767 0.0
H608 H 0.86618 0.90733 0.05138 0.0
C609 C 0.81299 0.94516 0.1846 0.0
C610 C 0.32676 0.59403 0.97099 0.0
C611 C 0.3396 0.62596 0.93933 0.0
H612 H 0.33188 0.53915 0.973 0.0
C613 C 0.36358 0.62552 0.87726 0.0
H614 H 0.30838 0.59369 1.01903 0.0
C615 C 0.37718 0.594 0.85088 0.0
C616 C 0.36706 0.56291 0.88672 0.0
H617 H 0.37436 0.6499 0.85254 0.0
H618 H 0.39777 0.59454 0.80578 0.0
C619 C 0.34042 0.56291 0.94508 0.0
C620 C 0.69415 0.12172 0.66446 0.0
C621 C 0.67229 0.12411 0.61868 0.0
H622 H 0.74208 0.14187 0.69728 0.0
C623 C 0.68382 0.14872 0.56808 0.0
H624 H 0.68581 0.10372 0.70503 0.0
C625 C 0.71527 0.17143 0.56518 0.0
C626 C 0.7365 0.17002 0.6123 0.0
H627 H 0.66755 0.15167 0.53238 0.0
H628 H 0.72293 0.19009 0.52562 0.0
C629 C 0.72595 0.14432 0.66113 0.0
C630 C 0.15251 0.4538 0.41364 0.0
C631 C 0.14563 0.42101 0.38137 0.0
H632 H 0.14426 0.50854 0.42456 0.0
C633 C 0.12727 0.42021 0.32866 0.0
H634 H 0.16613 0.45568 0.45476 0.0
C635 C 0.11507 0.45085 0.31062 0.0
C636 C 0.12011 0.48311 0.34575 0.0
H637 H 0.12117 0.39552 0.30273 0.0
H638 H 0.09994 0.44889 0.27171 0.0
C639 C 0.13968 0.48418 0.39656 0.0
C640 C 0.69631 0.60424 0.36397 0.0
C641 C 0.66542 0.61641 0.40282 0.0
H642 H 0.7528 0.60477 0.35106 0.0
C643 C 0.66681 0.63308 0.46539 0.0
H644 H 0.69591 0.5909 0.31611 0.0
C645 C 0.69921 0.64099 0.48535 0.0
C646 C 0.73076 0.63248 0.44296 0.0
H647 H 0.64316 0.64208 0.49724 0.0
H648 H 0.69992 0.65649 0.53094 0.0
C649 C 0.72878 0.61223 0.384 0.0
C650 C 0.132 0.95584 0.69822 0.0
C651 C 0.14198 0.98693 0.66238 0.0
H652 H 0.13497 0.89996 0.69652 0.0
C653 C 0.16851 0.98698 0.60385 0.0
H654 H 0.1115 0.95528 0.74346 0.0
C655 C 0.18221 0.95589 0.57784 0.0
C656 C 0.16952 0.92395 0.60954 0.0
H657 H 0.17694 1.01074 0.57592 0.0
H658 H 0.20051 0.95626 0.52971 0.0
C659 C 0.14565 0.92435 0.67175 0.0
C660 C 0.79406 0.3784 0.98443 0.0
C661 C 0.77277 0.37977 0.9374 0.0
H662 H 0.84184 0.39819 1.01698 0.0
C663 C 0.78326 0.40545 0.88852 0.0
H664 H 0.78645 0.35976 1.02402 0.0
C665 C 0.81507 0.42805 0.88502 0.0
C666 C 0.83701 0.42569 0.93068 0.0
H667 H 0.76708 0.40787 0.85245 0.0
H668 H 0.82337 0.44602 0.84439 0.0
C669 C 0.82552 0.40112 0.98137 0.0
C670 C 0.3697 0.06553 0.1523 0.0
C671 C 0.3892 0.06658 0.20323 0.0
H672 H 0.3433 0.09404 0.09405 0.0
C673 C 0.39411 0.0988 0.23854 0.0
H674 H 0.36521 0.04119 0.12416 0.0
C675 C 0.38188 0.12943 0.22056 0.0
C676 C 0.3636 0.12866 0.16772 0.0
H677 H 0.40917 0.10075 0.27755 0.0
H678 H 0.38789 0.1541 0.24663 0.0
C679 C 0.35684 0.0959 0.13527 0.0
C680 C 0.28136 0.43687 0.66226 0.0
C681 C 0.27909 0.41559 0.60464 0.0
H682 H 0.31431 0.45891 0.72947 0.0
C683 C 0.31037 0.4053 0.56393 0.0
H684 H 0.25754 0.44559 0.69391 0.0
C685 C 0.3427 0.4128 0.58431 0.0
C686 C 0.34429 0.43086 0.6456 0.0
H687 H 0.30938 0.3889 0.51946 0.0
H688 H 0.36607 0.40261 0.55379 0.0
C689 C 0.31375 0.44449 0.68266 0.0
C690 C 0.82979 0.0931 0.47087 0.0
C691 C 0.84138 0.12515 0.43892 0.0
H692 H 0.83669 0.03862 0.47286 0.0
C693 C 0.86506 0.12513 0.37644 0.0
H694 H 0.81167 0.0924 0.5192 0.0
C695 C 0.87949 0.09401 0.34982 0.0
C696 C 0.87056 0.0629 0.38582 0.0
H697 H 0.87492 0.1496 0.35143 0.0
H698 H 0.89972 0.09491 0.3042 0.0
C699 C 0.84433 0.06241 0.4448 0.0
C700 C 0.18341 0.65055 0.06877 0.0
C701 C 0.1719 0.62561 0.11877 0.0
H702 H 0.22256 0.69205 0.02706 0.0
C703 C 0.19381 0.62278 0.16426 0.0
H704 H 0.1671 0.65384 0.03333 0.0
C705 C 0.22567 0.64526 0.16123 0.0
C706 C 0.23623 0.67126 0.11299 0.0
H707 H 0.18547 0.60452 0.20441 0.0
H708 H 0.24186 0.64246 0.19711 0.0
C709 C 0.21491 0.67313 0.06617 0.0
C710 C 0.63911 0.98423 0.89889 0.0
C711 C 0.61976 0.98328 0.84775 0.0
H712 H 0.66558 0.95564 0.95691 0.0
C713 C 0.61512 0.95116 0.81198 0.0
H714 H 0.64341 1.00848 0.92738 0.0
C715 C 0.6275 0.92052 0.82962 0.0
C716 C 0.64569 0.92119 0.88256 0.0
H717 H 0.6002 0.94928 0.77276 0.0
H718 H 0.62171 0.89592 0.80315 0.0
C719 C 0.65214 0.95386 0.91556 0.0
C720 C 0.43139 0.17208 0.86673 0.0
C721 C 0.43582 0.17607 0.93318 0.0
H722 H 0.45203 0.15384 0.7663 0.0
C723 C 0.46465 0.1617 0.94909 0.0
H724 H 0.40942 0.18263 0.85264 0.0
C725 C 0.48821 0.14371 0.89995 0.0
C726 C 0.48422 0.14049 0.83313 0.0
H727 H 0.46866 0.16387 0.99978 0.0
H728 H 0.51037 0.1334 0.91381 0.0
C729 C 0.45563 0.15525 0.81724 0.0
C730 C 0.61451 0.68622 0.12934 0.0
C731 C 0.6196 0.69315 0.19506 0.0
H732 H 0.61764 0.70662 0.03241 0.0
C733 C 0.63469 0.72722 0.21059 0.0
H734 H 0.60259 0.66055 0.11541 0.0
C735 C 0.64432 0.75339 0.16228 0.0
C736 C 0.63811 0.74686 0.09721 0.0
H737 H 0.63886 0.73379 0.26051 0.0
H738 H 0.65547 0.77929 0.17676 0.0
C739 C 0.62306 0.71276 0.0816 0.0
C740 C 0.03812 0.88851 0.26037 0.0
C741 C 0.02427 0.92117 0.27172 0.0
H742 H 0.07873 0.85777 0.27329 0.0
C743 C 0.042 0.94861 0.30464 0.0
H744 H 0.02497 0.86675 0.23541 0.0
C745 C 0.07318 0.9435 0.3253 0.0
C746 C 0.08667 0.91066 0.31461 0.0
H747 H 0.03193 0.97402 0.31402 0.0
H748 H 0.0863 0.96494 0.35098 0.0
C749 C 0.06878 0.88323 0.28218 0.0
C750 C 0.86343 0.29572 0.73808 0.0
C751 C 0.854 0.29934 0.67659 0.0
H752 H 0.88662 0.31982 0.8175 0.0
C753 C 0.86019 0.33335 0.65019 0.0
H754 H 0.85936 0.27023 0.76042 0.0
C755 C 0.87631 0.36239 0.68343 0.0
C756 C 0.88683 0.35821 0.74388 0.0
H757 H 0.85374 0.33733 0.60267 0.0
H758 H 0.88131 0.38787 0.66095 0.0
C759 C 0.87944 0.32443 0.77091 0.0
C760 C 0.54561 0.88886 0.09991 0.0
C761 C 0.57431 0.87439 0.11613 0.0
H762 H 0.50014 0.91758 0.13465 0.0
C763 C 0.57892 0.87886 0.18242 0.0
H764 H 0.54149 0.88635 0.0493 0.0
C765 C 0.55494 0.89618 0.23151 0.0
C766 C 0.52643 0.91096 0.21536 0.0
H767 H 0.60082 0.86827 0.19673 0.0
H768 H 0.5586 0.89782 0.28243 0.0
C769 C 0.52229 0.90732 0.14865 0.0
C770 C 0.395 0.36342 0.92064 0.0
C771 C 0.39071 0.35629 0.85449 0.0
H772 H 0.39105 0.3432 1.01799 0.0
C773 C 0.37622 0.32207 0.83847 0.0
H774 H 0.40642 0.38924 0.93493 0.0
C775 C 0.36637 0.29593 0.88679 0.0
C776 C 0.37177 0.30268 0.95232 0.0
H777 H 0.37264 0.31539 0.78822 0.0
H778 H 0.35568 0.2699 0.87199 0.0
C779 C 0.38625 0.33691 0.9684 0.0
C780 C 0.96769 0.0984 0.73909 0.0
C781 C 0.98552 0.12553 0.77249 0.0
H782 H 0.92309 0.0827 0.69311 0.0
C783 C 0.97176 0.15823 0.78479 0.0
H784 H 0.97771 0.07299 0.729 0.0
C785 C 0.94104 0.16384 0.76375 0.0
C786 C 0.92298 0.13675 0.73099 0.0
H787 H 0.98499 0.17979 0.81007 0.0
H788 H 0.93116 0.18932 0.77355 0.0
C789 C 0.93639 0.10387 0.7191 0.0
C790 C 0.14858 0.71583 0.39909 0.0
C791 C 0.15481 0.74986 0.37279 0.0
H792 H 0.12708 0.66143 0.38844 0.0
C793 C 0.14502 0.75369 0.31172 0.0
H794 H 0.15532 0.71173 0.4463 0.0
C795 C 0.12858 0.72516 0.27925 0.0
C796 C 0.12116 0.69138 0.30618 0.0
H797 H 0.14913 0.77921 0.28949 0.0
H798 H 0.12116 0.72991 0.23294 0.0
C799 C 0.13207 0.68696 0.36613 0.0
C800 C 0.93045 0.67078 0.3662 0.0
C801 C 0.93502 0.67521 0.43252 0.0
H802 H 0.95087 0.65189 0.26618 0.0
C803 C 0.96373 0.6608 0.44878 0.0
H804 H 0.90855 0.68133 0.35187 0.0
C805 C 0.98711 0.6424 0.40004 0.0
C806 C 0.98302 0.63879 0.33331 0.0
H807 H 0.96782 0.66329 0.49941 0.0
H808 H 0.00927 0.63217 0.41408 0.0
C809 C 0.95449 0.65353 0.31712 0.0
C810 C 0.11447 0.18646 0.6289 0.0
C811 C 0.11879 0.19357 0.69503 0.0
H812 H 0.1184 0.20669 0.53158 0.0
C813 C 0.13334 0.22777 0.71103 0.0
H814 H 0.10301 0.16065 0.61462 0.0
C815 C 0.1432 0.25392 0.66272 0.0
C816 C 0.13776 0.24719 0.59721 0.0
H817 H 0.13695 0.23444 0.76127 0.0
H818 H 0.15392 0.27993 0.6775 0.0
C819 C 0.12323 0.21297 0.58115 0.0
C820 C 0.54129 0.45152 0.81198 0.0
C821 C 0.52376 0.42451 0.77783 0.0
H822 H 0.58555 0.46711 0.85895 0.0
C823 C 0.53768 0.3919 0.76523 0.0
H824 H 0.53114 0.47686 0.82235 0.0
C825 C 0.56826 0.38626 0.7867 0.0
C826 C 0.58604 0.41324 0.82019 0.0
H827 H 0.52467 0.37042 0.73939 0.0
H828 H 0.57827 0.36085 0.77662 0.0
C829 C 0.57246 0.44603 0.83241 0.0
C830 C 0.36448 0.79611 0.23712 0.0
C831 C 0.35463 0.79997 0.17611 0.0
H832 H 0.38839 0.81985 0.31584 0.0
C833 C 0.36085 0.83401 0.14985 0.0
H834 H 0.36038 0.77058 0.25932 0.0
C835 C 0.37738 0.86286 0.1828 0.0
C836 C 0.38834 0.85842 0.24269 0.0
H837 H 0.35407 0.83813 0.10269 0.0
H838 H 0.38235 0.8884 0.16053 0.0
C839 C 0.38094 0.82462 0.26958 0.0
C840 C 0.07799 0.37778 0.68255 0.0
C841 C 0.07356 0.37373 0.61611 0.0
H842 H 0.05733 0.39604 0.78295 0.0
C843 C 0.04472 0.38806 0.60016 0.0
H844 H 0.09998 0.36726 0.69667 0.0
C845 C 0.02114 0.40605 0.64926 0.0
C846 C 0.02513 0.40932 0.71608 0.0
H847 H 0.0407 0.38585 0.54947 0.0
H848 H 0.99897 0.41633 0.63537 0.0
C849 C 0.05374 0.3946 0.732 0.0
C850 C 0.87481 0.82207 0.33759 0.0
C851 C 0.88974 0.85619 0.35321 0.0
H852 H 0.85412 0.76998 0.37141 0.0
C853 C 0.89463 0.86319 0.41904 0.0
H854 H 0.8708 0.81544 0.28759 0.0
C855 C 0.88603 0.83668 0.46682 0.0
C856 C 0.87113 0.80254 0.45113 0.0
H857 H 0.90641 0.88891 0.43305 0.0
H858 H 0.89129 0.84289 0.51611 0.0
C859 C 0.86514 0.79592 0.38595 0.0
C860 C 0.44067 0.66649 0.26635 0.0
C861 C 0.4227 0.63906 0.23406 0.0
H862 H 0.48454 0.68292 0.31302 0.0
C863 C 0.43608 0.60617 0.22355 0.0
H864 H 0.43081 0.692 0.27511 0.0
C865 C 0.46724 0.601 0.24423 0.0
C866 C 0.48505 0.62844 0.277 0.0
H867 H 0.42289 0.58473 0.19798 0.0
H868 H 0.47722 0.57554 0.23498 0.0
C869 C 0.47131 0.66116 0.28818 0.0
C870 C 0.64954 0.21633 0.89853 0.0
C871 C 0.65535 0.25044 0.87259 0.0
H872 H 0.62872 0.16175 0.88741 0.0
C873 C 0.64549 0.25418 0.81152 0.0
H874 H 0.65633 0.21226 0.94571 0.0
C875 C 0.62947 0.22548 0.77868 0.0
C876 C 0.62248 0.19159 0.80527 0.0
H877 H 0.64925 0.27974 0.78956 0.0
H878 H 0.62196 0.23018 0.73244 0.0
C879 C 0.6334 0.18731 0.86528 0.0
C880 C 0.29109 0.28169 0.27278 0.0
C881 C 0.28024 0.25952 0.22129 0.0
H882 H 0.27607 0.3134 0.36278 0.0
C883 C 0.24319 0.25308 0.22449 0.0
H884 H 0.31918 0.28758 0.27303 0.0
C885 C 0.21828 0.26807 0.27657 0.0
C886 C 0.22914 0.29024 0.32806 0.0
H887 H 0.2333 0.23636 0.18658 0.0
H888 H 0.19019 0.26218 0.27632 0.0
C889 C 0.26618 0.29668 0.32487 0.0
C890 C 0.52092 0.51248 0.46398 0.0
C891 C 0.52328 0.54913 0.47581 0.0
H892 H 0.50094 0.46142 0.50232 0.0
C893 C 0.50612 0.56206 0.53885 0.0
H894 H 0.53367 0.50147 0.41629 0.0
C895 C 0.48723 0.53905 0.5885 0.0
C896 C 0.4849 0.50238 0.57665 0.0
H897 H 0.50726 0.59012 0.55006 0.0
H898 H 0.4745 0.55003 0.63621 0.0
C899 C 0.50204 0.48948 0.51358 0.0
C900 C 0.24644 0.80692 0.75549 0.0
C901 C 0.23564 0.77551 0.72272 0.0
H902 H 0.27245 0.83107 0.83127 0.0
C903 C 0.24412 0.74357 0.74248 0.0
H904 H 0.23994 0.83194 0.74254 0.0
C905 C 0.26277 0.74304 0.79362 0.0
C906 C 0.27357 0.77444 0.82639 0.0
H907 H 0.23677 0.71888 0.71784 0.0
H908 H 0.26928 0.71802 0.80656 0.0
C909 C 0.2651 0.80639 0.80663 0.0
C910 C 0.01547 0.50824 0.07376 0.0
C911 C 0.02206 0.54518 0.07304 0.0
H912 H 0.99445 0.46038 0.02914 0.0
C913 C 0.011 0.56147 1.02144 0.0
H914 H 0.02324 0.49425 0.11158 0.0
C915 C 0.99425 0.54196 0.97328 0.0
C916 C 0.98767 0.50502 0.97401 0.0
H917 H 0.0153 0.58983 1.01795 0.0
H918 H 0.98645 0.55595 0.9355 0.0
C919 C 0.99875 0.48874 0.02559 0.0
C920 C 0.76622 0.79661 0.82423 0.0
C921 C 0.72915 0.79012 0.82782 0.0
H922 H 0.81916 0.78756 0.77191 0.0
C923 C 0.71816 0.7679 0.7765 0.0
H924 H 0.77622 0.81337 0.86198 0.0
C925 C 0.74298 0.75291 0.72422 0.0
C926 C 0.78006 0.75941 0.72064 0.0
H927 H 0.69004 0.76197 0.77654 0.0
H928 H 0.73299 0.73615 0.68647 0.0
C929 C 0.79104 0.78162 0.77195 0.0
C930 C 0.76647 0.29835 0.22308 0.0
C931 C 0.7353 0.27516 0.22352 0.0
H932 H 0.81008 0.31545 0.27014 0.0
C933 C 0.72414 0.25116 0.27531 0.0
H934 H 0.77622 0.31679 0.1836 0.0
C935 C 0.7436 0.25035 0.32517 0.0
C936 C 0.77474 0.27357 0.32478 0.0
H937 H 0.69999 0.23325 0.27808 0.0
H938 H 0.73383 0.23192 0.36466 0.0
C939 C 0.78593 0.29754 0.27294 0.0
C940 C 0.00732 0.06037 0.03597 0.0
C941 C 0.02449 0.04753 0.97287 0.0
H942 H 0.97561 0.04826 0.13315 0.0
C943 C 0.02215 1.01088 0.96085 0.0
H944 H 0.00842 0.08842 0.04735 0.0
C945 C 1.00322 0.98781 1.01035 0.0
C946 C 0.98602 1.00067 0.07342 0.0
H947 H 0.0349 0.99995 0.91311 0.0
H948 H 1.00208 0.95976 0.99901 0.0
C949 C 0.98839 0.03731 0.08544 0.0
C950 C 0.51059 0.06105 0.52349 0.0
C951 C 0.52169 0.04477 0.57504 0.0
H952 H 0.48613 0.05555 0.43745 0.0
C953 C 0.51516 1.00782 0.57568 0.0
H954 H 0.51484 0.08942 0.52001 0.0
C955 C 0.49846 0.98832 0.52744 0.0
C956 C 0.48739 1.00461 0.47587 0.0
H957 H 0.52298 0.99383 0.61343 0.0
H958 H 0.49422 0.95995 0.53087 0.0
C959 C 0.49391 0.04156 0.47524 0.0
loop_
_geom_bond_atom_site_label_1
_geom_bond_atom_site_label_2
_geom_bond_distance
_geom_bond_site_symmetry_2
_ccdc_geom_bond_type
Co0 N5 2.057 1_554 S
Co0 O17 2.021 . S
Co0 O20 2.062 . S
Co0 O24 2.117 1_554 S
Co0 O25 2.020 1_554 S
C1 O21 1.271 . S
C1 O24 1.258 . S
Co2 N11 2.057 . S
Co2 O18 2.117 . S
Co2 O19 2.020 . S
Co2 O21 2.010 1_554 S
Co2 O26 2.062 1_554 S
C3 N5 1.316 . S
C3 N6 1.347 . S
C3 H8 0.931 1_556 S
C4 N5 1.375 . S
C4 C7 1.350 . S
C4 H9 0.930 . S
N5 Co0 2.057 1_556 S
N5 C3 1.316 . S
N5 C4 1.375 . S
N6 C3 1.347 . S
N6 C7 1.373 . S
C7 C4 1.350 . S
C7 N6 1.373 . S
C7 H28 0.931 . S
H8 C3 0.931 1_554 S
H9 C4 0.930 . S
C10 O17 1.259 . S
C10 O18 1.258 . S
N11 Co2 2.057 . S
N11 C12 1.316 . S
N11 C13 1.375 . S
C12 N11 1.316 . S
C12 N14 1.347 . S
C12 H23 0.931 . S
C13 N11 1.375 . S
C13 C15 1.350 . S
C13 H22 0.930 . S
N14 C12 1.347 . S
N14 C15 1.373 . S
C15 C13 1.350 . S
C15 N14 1.373 . S
C15 H29 0.931 . S
C16 O19 1.256 . S
C16 O20 1.255 . S
O17 Co0 2.021 . S
O17 C10 1.259 . S
O18 Co2 2.117 . S
O18 C10 1.258 . S
O19 Co2 2.020 . S
O19 C16 1.256 . S
O20 Co0 2.062 . S
O20 C16 1.255 . S
O21 C1 1.271 . S
O21 Co2 2.010 1_556 S
H22 C13 0.930 . S
H23 C12 0.931 . S
O24 Co0 2.117 1_556 S
O24 C1 1.258 . S
O25 Co0 2.020 1_556 S
O25 C27 1.256 . S
O26 Co2 2.062 1_556 S
O26 C27 1.255 . S
C27 O25 1.256 . S
C27 O26 1.255 . S
H28 C7 0.931 . S
H29 C15 0.931 . S
Co30 N35 2.057 . S
Co30 O47 2.021 . S
Co30 O50 2.062 . S
Co30 O54 2.117 . S
Co30 O55 2.020 . S
C31 O51 1.259 . S
C31 O54 1.258 . S
Co32 N41 2.057 . S
Co32 O48 2.117 . S
Co32 O49 2.020 . S
Co32 O51 2.021 . S
Co32 O56 2.062 . S
C33 N35 1.316 . S
C33 N36 1.347 . S
C33 H38 0.931 . S
C34 N35 1.375 . S
C34 C37 1.350 . S
C34 H39 0.930 . S
N35 Co30 2.057 . S
N35 C33 1.316 . S
N35 C34 1.375 . S
N36 C33 1.347 . S
N36 C37 1.373 . S
C37 C34 1.350 . S
C37 N36 1.373 . S
C37 H58 0.931 . S
H38 C33 0.931 . S
H39 C34 0.930 . S
C40 O47 1.259 . S
C40 O48 1.258 . S
N41 Co32 2.057 . S
N41 C42 1.316 . S
N41 C43 1.375 . S
C42 N41 1.316 . S
C42 N44 1.347 . S
C42 H53 0.931 . S
C43 N41 1.375 . S
C43 C45 1.350 . S
C43 H52 0.930 . S
N44 C42 1.347 . S
N44 C45 1.373 . S
C45 C43 1.350 . S
C45 N44 1.373 . S
C45 H59 0.931 . S
C46 O49 1.256 . S
C46 O50 1.255 . S
O47 Co30 2.021 . S
O47 C40 1.259 . S
O48 Co32 2.117 . S
O48 C40 1.258 . S
O49 Co32 2.020 . S
O49 C46 1.256 . S
O50 Co30 2.062 . S
O50 C46 1.255 . S
O51 C31 1.259 . S
O51 Co32 2.021 . S
H52 C43 0.930 . S
H53 C42 0.931 . S
O54 Co30 2.117 . S
O54 C31 1.258 . S
O55 Co30 2.020 . S
O55 C57 1.256 . S
O56 Co32 2.062 . S
O56 C57 1.255 . S
C57 O55 1.256 . S
C57 O56 1.255 . S
H58 C37 0.931 . S
H59 C45 0.931 . S
Co60 N65 2.057 . S
Co60 O77 2.021 . S
Co60 O80 2.062 . S
Co60 O84 2.117 . S
Co60 O85 2.020 . S
C61 O81 1.259 . S
C61 O84 1.258 . S
Co62 N71 2.057 . S
Co62 O78 2.117 . S
Co62 O79 2.020 . S
Co62 O81 2.021 . S
Co62 O86 2.062 . S
C63 N65 1.316 . S
C63 N66 1.347 . S
C63 H68 0.931 . S
C64 N65 1.375 . S
C64 C67 1.350 . S
C64 H69 0.930 . S
N65 Co60 2.057 . S
N65 C63 1.316 . S
N65 C64 1.375 . S
N66 C63 1.347 . S
N66 C67 1.373 . S
C67 C64 1.350 . S
C67 N66 1.373 . S
C67 H88 0.931 . S
H68 C63 0.931 . S
H69 C64 0.930 . S
C70 O77 1.259 . S
C70 O78 1.258 . S
N71 Co62 2.057 . S
N71 C72 1.316 . S
N71 C73 1.375 . S
C72 N71 1.316 . S
C72 N74 1.347 . S
C72 H83 0.931 . S
C73 N71 1.375 . S
C73 C75 1.350 . S
C73 H82 0.930 . S
N74 C72 1.347 . S
N74 C75 1.373 . S
C75 C73 1.350 . S
C75 N74 1.373 . S
C75 H89 0.931 . S
C76 O79 1.256 . S
C76 O80 1.255 . S
O77 Co60 2.021 . S
O77 C70 1.259 . S
O78 Co62 2.117 . S
O78 C70 1.258 . S
O79 Co62 2.020 . S
O79 C76 1.256 . S
O80 Co60 2.062 . S
O80 C76 1.255 . S
O81 C61 1.259 . S
O81 Co62 2.021 . S
H82 C73 0.930 . S
H83 C72 0.931 . S
O84 Co60 2.117 . S
O84 C61 1.258 . S
O85 Co60 2.020 . S
O85 C87 1.256 . S
O86 Co62 2.062 . S
O86 C87 1.255 . S
C87 O85 1.256 . S
C87 O86 1.255 . S
H88 C67 0.931 . S
H89 C75 0.931 . S
Co90 N95 2.057 . S
Co90 O107 2.021 . S
Co90 O110 2.062 . S
Co90 O114 2.117 . S
Co90 O115 2.020 . S
C91 O111 1.259 . S
C91 O114 1.258 . S
Co92 N101 2.057 . S
Co92 O108 2.117 . S
Co92 O109 2.020 . S
Co92 O111 2.021 . S
Co92 O116 2.062 . S
C93 N95 1.316 . S
C93 N96 1.347 . S
C93 H98 0.931 . S
C94 N95 1.375 . S
C94 C97 1.350 . S
C94 H99 0.930 . S
N95 Co90 2.057 . S
N95 C93 1.316 . S
N95 C94 1.375 . S
N96 C93 1.347 . S
N96 C97 1.373 . S
C97 C94 1.350 . S
C97 N96 1.373 . S
C97 H118 0.931 . S
H98 C93 0.931 . S
H99 C94 0.930 . S
C100 O107 1.259 . S
C100 O108 1.258 . S
N101 Co92 2.057 . S
N101 C102 1.316 . S
N101 C103 1.375 . S
C102 N101 1.316 . S
C102 N104 1.347 . S
C102 H113 0.931 . S
C103 N101 1.375 . S
C103 C105 1.350 . S
C103 H112 0.930 . S
N104 C102 1.347 . S
N104 C105 1.373 . S
C105 C103 1.350 . S
C105 N104 1.373 . S
C105 H119 0.931 1_556 S
C106 O109 1.256 . S
C106 O110 1.255 . S
O107 Co90 2.021 . S
O107 C100 1.259 . S
O108 Co92 2.117 . S
O108 C100 1.258 . S
O109 Co92 2.020 . S
O109 C106 1.256 . S
O110 Co90 2.062 . S
O110 C106 1.255 . S
O111 C91 1.259 . S
O111 Co92 2.021 . S
H112 C103 0.930 . S
H113 C102 0.931 . S
O114 Co90 2.117 . S
O114 C91 1.258 . S
O115 Co90 2.020 . S
O115 C117 1.256 . S
O116 Co92 2.062 . S
O116 C117 1.255 . S
C117 O115 1.256 . S
C117 O116 1.255 . S
H118 C97 0.931 . S
H119 C105 0.931 1_554 S
Co120 N125 2.057 . S
Co120 O137 2.010 1_556 S
Co120 O140 2.062 1_556 S
Co120 O144 2.117 . S
Co120 O145 2.020 . S
C121 O141 1.259 . S
C121 O144 1.258 . S
Co122 N131 2.057 1_556 S
Co122 O138 2.117 1_556 S
Co122 O139 2.020 1_556 S
Co122 O141 2.021 . S
Co122 O146 2.062 . S
C123 N125 1.316 . S
C123 N126 1.347 . S
C123 H128 0.931 . S
C124 N125 1.375 . S
C124 C127 1.350 . S
C124 H129 0.930 . S
N125 Co120 2.057 . S
N125 C123 1.316 . S
N125 C124 1.375 . S
N126 C123 1.347 . S
N126 C127 1.373 . S
C127 C124 1.350 . S
C127 N126 1.373 . S
C127 H148 0.931 . S
H128 C123 0.931 . S
H129 C124 0.930 . S
C130 O137 1.271 . S
C130 O138 1.258 . S
N131 Co122 2.057 1_554 S
N131 C132 1.316 . S
N131 C133 1.375 . S
C132 N131 1.316 . S
C132 N134 1.347 . S
C132 H143 0.931 1_554 S
C133 N131 1.375 . S
C133 C135 1.350 . S
C133 H142 0.930 . S
N134 C132 1.347 . S
N134 C135 1.373 . S
C135 C133 1.350 . S
C135 N134 1.373 . S
C135 H149 0.931 . S
C136 O139 1.256 . S
C136 O140 1.255 . S
O137 Co120 2.010 1_554 S
O137 C130 1.271 . S
O138 Co122 2.117 1_554 S
O138 C130 1.258 . S
O139 Co122 2.020 1_554 S
O139 C136 1.256 . S
O140 Co120 2.062 1_554 S
O140 C136 1.255 . S
O141 C121 1.259 . S
O141 Co122 2.021 . S
H142 C133 0.930 . S
H143 C132 0.931 1_556 S
O144 Co120 2.117 . S
O144 C121 1.258 . S
O145 Co120 2.020 . S
O145 C147 1.256 . S
O146 Co122 2.062 . S
O146 C147 1.255 . S
C147 O145 1.256 . S
C147 O146 1.255 . S
H148 C127 0.931 . S
H149 C135 0.931 . S
Co150 N155 2.057 . S
Co150 O167 2.021 . S
Co150 O170 2.062 . S
Co150 O174 2.117 . S
Co150 O175 2.020 . S
C151 O171 1.259 . S
C151 O174 1.258 . S
Co152 N161 2.057 . S
Co152 O168 2.117 . S
Co152 O169 2.020 . S
Co152 O171 2.021 . S
Co152 O176 2.062 . S
C153 N155 1.316 . S
C153 N156 1.347 . S
C153 H158 0.931 . S
C154 N155 1.375 . S
C154 C157 1.350 . S
C154 H159 0.930 . S
N155 Co150 2.057 . S
N155 C153 1.316 . S
N155 C154 1.375 . S
N156 C153 1.347 . S
N156 C157 1.373 . S
C157 C154 1.350 . S
C157 N156 1.373 . S
C157 H178 0.931 . S
H158 C153 0.931 . S
H159 C154 0.930 . S
C160 O167 1.259 . S
C160 O168 1.258 . S
N161 Co152 2.057 . S
N161 C162 1.316 . S
N161 C163 1.375 . S
C162 N161 1.316 . S
C162 N164 1.347 . S
C162 H173 0.931 . S
C163 N161 1.375 . S
C163 C165 1.350 . S
C163 H172 0.930 . S
N164 C162 1.347 . S
N164 C165 1.373 . S
C165 C163 1.350 . S
C165 N164 1.373 . S
C165 H179 0.931 . S
C166 O169 1.256 . S
C166 O170 1.255 . S
O167 Co150 2.021 . S
O167 C160 1.259 . S
O168 Co152 2.117 . S
O168 C160 1.258 . S
O169 Co152 2.020 . S
O169 C166 1.256 . S
O170 Co150 2.062 . S
O170 C166 1.255 . S
O171 C151 1.259 . S
O171 Co152 2.021 . S
H172 C163 0.930 . S
H173 C162 0.931 . S
O174 Co150 2.117 . S
O174 C151 1.258 . S
O175 Co150 2.020 . S
O175 C177 1.256 . S
O176 Co152 2.062 . S
O176 C177 1.255 . S
C177 O175 1.256 . S
C177 O176 1.255 . S
H178 C157 0.931 . S
H179 C165 0.931 . S
Co180 N185 2.057 . S
Co180 O197 2.021 . S
Co180 O200 2.062 . S
Co180 O204 2.117 . S
Co180 O205 2.020 . S
C181 O201 1.259 . S
C181 O204 1.258 . S
Co182 N191 2.057 . S
Co182 O198 2.117 . S
Co182 O199 2.020 . S
Co182 O201 2.021 . S
Co182 O206 2.062 . S
C183 N185 1.316 . S
C183 N186 1.347 . S
C183 H188 0.931 . S
C184 N185 1.375 . S
C184 C187 1.350 . S
C184 H189 0.930 . S
N185 Co180 2.057 . S
N185 C183 1.316 . S
N185 C184 1.375 . S
N186 C183 1.347 . S
N186 C187 1.373 . S
C187 C184 1.350 . S
C187 N186 1.373 . S
C187 H208 0.931 . S
H188 C183 0.931 . S
H189 C184 0.930 . S
C190 O197 1.259 . S
C190 O198 1.258 . S
N191 Co182 2.057 . S
N191 C192 1.316 . S
N191 C193 1.375 . S
C192 N191 1.316 . S
C192 N194 1.347 . S
C192 H203 0.931 . S
C193 N191 1.375 . S
C193 C195 1.350 . S
C193 H202 0.930 . S
N194 C192 1.347 . S
N194 C195 1.373 . S
C195 C193 1.350 . S
C195 N194 1.373 . S
C195 H209 0.931 . S
C196 O199 1.256 . S
C196 O200 1.255 . S
O197 Co180 2.021 . S
O197 C190 1.259 . S
O198 Co182 2.117 . S
O198 C190 1.258 . S
O199 Co182 2.020 . S
O199 C196 1.256 . S
O200 Co180 2.062 . S
O200 C196 1.255 . S
O201 C181 1.259 . S
O201 Co182 2.021 . S
H202 C193 0.930 . S
H203 C192 0.931 . S
O204 Co180 2.117 . S
O204 C181 1.258 . S
O205 Co180 2.020 . S
O205 C207 1.256 . S
O206 Co182 2.062 . S
O206 C207 1.255 . S
C207 O205 1.256 . S
C207 O206 1.255 . S
H208 C187 0.931 . S
H209 C195 0.931 . S
Co210 N215 2.057 . S
Co210 O227 2.021 . S
Co210 O230 2.062 . S
Co210 O234 2.117 . S
Co210 O235 2.020 . S
C211 O231 1.259 . S
C211 O234 1.258 . S
Co212 N221 2.057 . S
Co212 O228 2.117 . S
Co212 O229 2.020 . S
Co212 O231 2.021 . S
Co212 O236 2.062 . S
C213 N215 1.316 . S
C213 N216 1.347 . S
C213 H218 0.931 . S
C214 N215 1.375 . S
C214 C217 1.350 . S
C214 H219 0.930 . S
N215 Co210 2.057 . S
N215 C213 1.316 . S
N215 C214 1.375 . S
N216 C213 1.347 . S
N216 C217 1.373 . S
C217 C214 1.350 . S
C217 N216 1.373 . S
C217 H238 0.931 1_554 S
H218 C213 0.931 . S
H219 C214 0.930 . S
C220 O227 1.259 . S
C220 O228 1.258 . S
N221 Co212 2.057 . S
N221 C222 1.316 . S
N221 C223 1.375 . S
C222 N221 1.316 . S
C222 N224 1.347 . S
C222 H233 0.931 . S
C223 N221 1.375 . S
C223 C225 1.350 . S
C223 H232 0.930 . S
N224 C222 1.347 . S
N224 C225 1.373 . S
C225 C223 1.350 . S
C225 N224 1.373 . S
C225 H239 0.931 . S
C226 O229 1.256 . S
C226 O230 1.255 . S
O227 Co210 2.021 . S
O227 C220 1.259 . S
O228 Co212 2.117 . S
O228 C220 1.258 . S
O229 Co212 2.020 . S
O229 C226 1.256 . S
O230 Co210 2.062 . S
O230 C226 1.255 . S
O231 C211 1.259 . S
O231 Co212 2.021 . S
H232 C223 0.930 . S
H233 C222 0.931 . S
O234 Co210 2.117 . S
O234 C211 1.258 . S
O235 Co210 2.020 . S
O235 C237 1.256 . S
O236 Co212 2.062 . S
O236 C237 1.255 . S
C237 O235 1.256 . S
C237 O236 1.255 . S
H238 C217 0.931 1_556 S
H239 C225 0.931 . S
Co240 N245 2.057 . S
Co240 O257 2.021 . S
Co240 O260 2.062 . S
Co240 O264 2.117 . S
Co240 O265 2.020 . S
C241 O261 1.259 . S
C241 O264 1.258 . S
Co242 N251 2.057 . S
Co242 O258 2.117 . S
Co242 O259 2.020 . S
Co242 O261 2.021 . S
Co242 O266 2.062 . S
C243 N245 1.316 . S
C243 N246 1.347 . S
C243 H248 0.931 . S
C244 N245 1.375 . S
C244 C247 1.350 . S
C244 H249 0.930 . S
N245 Co240 2.057 . S
N245 C243 1.316 . S
N245 C244 1.375 . S
N246 C243 1.347 . S
N246 C247 1.373 . S
C247 C244 1.350 . S
C247 N246 1.373 . S
C247 H268 0.931 . S
H248 C243 0.931 . S
H249 C244 0.930 . S
C250 O257 1.259 . S
C250 O258 1.258 . S
N251 Co242 2.057 . S
N251 C252 1.316 . S
N251 C253 1.375 . S
C252 N251 1.316 . S
C252 N254 1.347 . S
C252 H263 0.931 . S
C253 N251 1.375 . S
C253 C255 1.350 . S
C253 H262 0.930 . S
N254 C252 1.347 . S
N254 C255 1.373 . S
C255 C253 1.350 . S
C255 N254 1.373 . S
C255 H269 0.931 . S
C256 O259 1.256 . S
C256 O260 1.255 . S
O257 Co240 2.021 . S
O257 C250 1.259 . S
O258 Co242 2.117 . S
O258 C250 1.258 . S
O259 Co242 2.020 . S
O259 C256 1.256 . S
O260 Co240 2.062 . S
O260 C256 1.255 . S
O261 C241 1.259 . S
O261 Co242 2.021 . S
H262 C253 0.930 . S
H263 C252 0.931 . S
O264 Co240 2.117 . S
O264 C241 1.258 . S
O265 Co240 2.020 . S
O265 C267 1.256 . S
O266 Co242 2.062 . S
O266 C267 1.255 . S
C267 O265 1.256 . S
C267 O266 1.255 . S
H268 C247 0.931 . S
H269 C255 0.931 . S
Co270 N275 2.057 . S
Co270 O287 2.021 . S
Co270 O290 2.062 . S
Co270 O294 2.117 . S
Co270 O295 2.020 . S
C271 O291 1.259 . S
C271 O294 1.258 . S
Co272 N281 2.057 . S
Co272 O288 2.117 . S
Co272 O289 2.020 . S
Co272 O291 2.021 . S
Co272 O296 2.062 . S
C273 N275 1.316 . S
C273 N276 1.347 1_545 S
C273 H278 0.931 . S
C274 N275 1.375 . S
C274 C277 1.350 1_545 S
C274 H279 0.930 . S
N275 Co270 2.057 . S
N275 C273 1.316 . S
N275 C274 1.375 . S
N276 C273 1.347 1_565 S
N276 C277 1.373 . S
C277 C274 1.350 1_565 S
C277 N276 1.373 . S
C277 H298 0.931 . S
H278 C273 0.931 . S
H279 C274 0.930 . S
C280 O287 1.259 . S
C280 O288 1.258 . S
N281 Co272 2.057 . S
N281 C282 1.316 . S
N281 C283 1.375 . S
C282 N281 1.316 . S
C282 N284 1.347 . S
C282 H293 0.931 1_455 S
C283 N281 1.375 . S
C283 C285 1.350 . S
C283 H292 0.930 . S
N284 C282 1.347 . S
N284 C285 1.373 . S
C285 C283 1.350 . S
C285 N284 1.373 . S
C285 H299 0.931 1_556 S
C286 O289 1.256 . S
C286 O290 1.255 . S
O287 Co270 2.021 . S
O287 C280 1.259 . S
O288 Co272 2.117 . S
O288 C280 1.258 . S
O289 Co272 2.020 . S
O289 C286 1.256 . S
O290 Co270 2.062 . S
O290 C286 1.255 . S
O291 C271 1.259 . S
O291 Co272 2.021 . S
H292 C283 0.930 . S
H293 C282 0.931 1_655 S
O294 Co270 2.117 . S
O294 C271 1.258 . S
O295 Co270 2.020 . S
O295 C297 1.256 . S
O296 Co272 2.062 . S
O296 C297 1.255 . S
C297 O295 1.256 . S
C297 O296 1.255 . S
H298 C277 0.931 . S
H299 C285 0.931 1_554 S
Co300 N305 2.057 . S
Co300 O317 2.021 . S
Co300 O320 2.062 . S
Co300 O324 2.117 1_556 S
Co300 O325 2.020 . S
C301 O321 1.259 . S
C301 O324 1.258 . S
Co302 N311 2.057 . S
Co302 O318 2.117 1_554 S
Co302 O319 2.020 . S
Co302 O321 2.021 . S
Co302 O326 2.062 . S
C303 N305 1.316 . S
C303 N306 1.347 . S
C303 H308 0.931 . S
C304 N305 1.375 . S
C304 C307 1.350 . S
C304 H309 0.930 . S
N305 Co300 2.057 . S
N305 C303 1.316 . S
N305 C304 1.375 . S
N306 C303 1.347 . S
N306 C307 1.373 . S
C307 C304 1.350 . S
C307 N306 1.373 . S
C307 H328 0.931 . S
H308 C303 0.931 . S
H309 C304 0.930 . S
C310 O317 1.259 . S
C310 O318 1.258 . S
N311 Co302 2.057 . S
N311 C312 1.316 . S
N311 C313 1.375 . S
C312 N311 1.316 . S
C312 N314 1.347 . S
C312 H323 0.931 . S
C313 N311 1.375 . S
C313 C315 1.350 . S
C313 H322 0.930 . S
N314 C312 1.347 . S
N314 C315 1.373 . S
C315 C313 1.350 . S
C315 N314 1.373 . S
C315 H329 0.931 . S
C316 O319 1.256 . S
C316 O320 1.255 1_554 S
O317 Co300 2.021 . S
O317 C310 1.259 . S
O318 Co302 2.117 1_556 S
O318 C310 1.258 . S
O319 Co302 2.020 . S
O319 C316 1.256 . S
O320 Co300 2.062 . S
O320 C316 1.255 1_556 S
O321 C301 1.259 . S
O321 Co302 2.021 . S
H322 C313 0.930 . S
H323 C312 0.931 . S
O324 Co300 2.117 1_554 S
O324 C301 1.258 . S
O325 Co300 2.020 . S
O325 C327 1.256 . S
O326 Co302 2.062 . S
O326 C327 1.255 1_554 S
C327 O325 1.256 . S
C327 O326 1.255 1_556 S
H328 C307 0.931 . S
H329 C315 0.931 . S
Co330 N335 2.057 . S
Co330 O347 2.021 . S
Co330 O350 2.062 . S
Co330 O354 2.117 . S
Co330 O355 2.020 . S
C331 O351 1.259 . S
C331 O354 1.258 . S
Co332 N341 2.057 . S
Co332 O348 2.117 . S
Co332 O349 2.020 . S
Co332 O351 2.021 . S
Co332 O356 2.062 . S
C333 N335 1.316 . S
C333 N336 1.347 1_565 S
C333 H338 0.931 . S
C334 N335 1.375 . S
C334 C337 1.350 1_565 S
C334 H339 0.930 . S
N335 Co330 2.057 . S
N335 C333 1.316 . S
N335 C334 1.375 . S
N336 C333 1.347 1_545 S
N336 C337 1.373 . S
C337 C334 1.350 1_545 S
C337 N336 1.373 . S
C337 H358 0.931 . S
H338 C333 0.931 . S
H339 C334 0.930 . S
C340 O347 1.259 . S
C340 O348 1.258 . S
N341 Co332 2.057 . S
N341 C342 1.316 . S
N341 C343 1.375 . S
C342 N341 1.316 . S
C342 N344 1.347 . S
C342 H353 0.931 . S
C343 N341 1.375 . S
C343 C345 1.350 . S
C343 H352 0.930 . S
N344 C342 1.347 . S
N344 C345 1.373 . S
C345 C343 1.350 . S
C345 N344 1.373 . S
C345 H359 0.931 . S
C346 O349 1.256 . S
C346 O350 1.255 . S
O347 Co330 2.021 . S
O347 C340 1.259 . S
O348 Co332 2.117 . S
O348 C340 1.258 . S
O349 Co332 2.020 . S
O349 C346 1.256 . S
O350 Co330 2.062 . S
O350 C346 1.255 . S
O351 C331 1.259 . S
O351 Co332 2.021 . S
H352 C343 0.930 . S
H353 C342 0.931 . S
O354 Co330 2.117 . S
O354 C331 1.258 . S
O355 Co330 2.020 . S
O355 C357 1.256 . S
O356 Co332 2.062 . S
O356 C357 1.255 . S
C357 O355 1.256 . S
C357 O356 1.255 . S
H358 C337 0.931 . S
H359 C345 0.931 . S
Co360 N365 2.057 . S
Co360 O377 2.021 . S
Co360 O380 2.062 . S
Co360 O384 2.117 . S
Co360 O385 2.020 . S
C361 O381 1.259 . S
C361 O384 1.258 . S
Co362 N371 2.057 . S
Co362 O378 2.117 . S
Co362 O379 2.020 . S
Co362 O381 2.021 . S
Co362 O386 2.062 . S
C363 N365 1.316 . S
C363 N366 1.347 . S
C363 H368 0.931 . S
C364 N365 1.375 . S
C364 C367 1.350 . S
C364 H369 0.930 . S
N365 Co360 2.057 . S
N365 C363 1.316 . S
N365 C364 1.375 . S
N366 C363 1.347 . S
N366 C367 1.373 . S
C367 C364 1.350 . S
C367 N366 1.373 . S
C367 H388 0.931 . S
H368 C363 0.931 . S
H369 C364 0.930 . S
C370 O377 1.259 . S
C370 O378 1.258 . S
N371 Co362 2.057 . S
N371 C372 1.316 . S
N371 C373 1.375 . S
C372 N371 1.316 . S
C372 N374 1.347 . S
C372 H383 0.931 . S
C373 N371 1.375 . S
C373 C375 1.350 . S
C373 H382 0.930 . S
N374 C372 1.347 . S
N374 C375 1.373 . S
C375 C373 1.350 . S
C375 N374 1.373 . S
C375 H389 0.931 . S
C376 O379 1.256 . S
C376 O380 1.255 . S
O377 Co360 2.021 . S
O377 C370 1.259 . S
O378 Co362 2.117 . S
O378 C370 1.258 . S
O379 Co362 2.020 . S
O379 C376 1.256 . S
O380 Co360 2.062 . S
O380 C376 1.255 . S
O381 C361 1.259 . S
O381 Co362 2.021 . S
H382 C373 0.930 . S
H383 C372 0.931 . S
O384 Co360 2.117 . S
O384 C361 1.258 . S
O385 Co360 2.020 . S
O385 C387 1.256 . S
O386 Co362 2.062 . S
O386 C387 1.255 . S
C387 O385 1.256 . S
C387 O386 1.255 . S
H388 C367 0.931 . S
H389 C375 0.931 . S
Co390 N395 2.057 . S
Co390 O407 2.021 . S
Co390 O410 2.062 . S
Co390 O414 2.117 . S
Co390 O415 2.020 . S
C391 O411 1.259 . S
C391 O414 1.258 . S
Co392 N401 2.057 . S
Co392 O408 2.117 . S
Co392 O409 2.020 . S
Co392 O411 2.021 . S
Co392 O416 2.062 . S
C393 N395 1.316 . S
C393 N396 1.347 . S
C393 H398 0.931 1_655 S
C394 N395 1.375 . S
C394 C397 1.350 . S
C394 H399 0.930 . S
N395 Co390 2.057 . S
N395 C393 1.316 . S
N395 C394 1.375 . S
N396 C393 1.347 . S
N396 C397 1.373 . S
C397 C394 1.350 . S
C397 N396 1.373 . S
C397 H418 0.931 1_554 S
H398 C393 0.931 1_455 S
H399 C394 0.930 . S
C400 O407 1.259 . S
C400 O408 1.258 . S
N401 Co392 2.057 . S
N401 C402 1.316 . S
N401 C403 1.375 . S
C402 N401 1.316 . S
C402 N404 1.347 1_565 S
C402 H413 0.931 . S
C403 N401 1.375 . S
C403 C405 1.350 1_565 S
C403 H412 0.930 . S
N404 C402 1.347 1_545 S
N404 C405 1.373 . S
C405 C403 1.350 1_545 S
C405 N404 1.373 . S
C405 H419 0.931 . S
C406 O409 1.256 . S
C406 O410 1.255 . S
O407 Co390 2.021 . S
O407 C400 1.259 . S
O408 Co392 2.117 . S
O408 C400 1.258 . S
O409 Co392 2.020 . S
O409 C406 1.256 . S
O410 Co390 2.062 . S
O410 C406 1.255 . S
O411 C391 1.259 . S
O411 Co392 2.021 . S
H412 C403 0.930 . S
H413 C402 0.931 . S
O414 Co390 2.117 . S
O414 C391 1.258 . S
O415 Co390 2.020 . S
O415 C417 1.256 . S
O416 Co392 2.062 . S
O416 C417 1.255 . S
C417 O415 1.256 . S
C417 O416 1.255 . S
H418 C397 0.931 1_556 S
H419 C405 0.931 . S
Co420 N425 2.057 . S
Co420 O437 2.021 . S
Co420 O440 2.062 . S
Co420 O444 2.117 1_556 S
Co420 O445 2.020 . S
C421 O441 1.259 . S
C421 O444 1.258 . S
Co422 N431 2.057 . S
Co422 O438 2.117 1_554 S
Co422 O439 2.020 . S
Co422 O441 2.021 . S
Co422 O446 2.062 . S
C423 N425 1.316 . S
C423 N426 1.347 . S
C423 H428 0.931 . S
C424 N425 1.375 . S
C424 C427 1.350 . S
C424 H429 0.930 . S
N425 Co420 2.057 . S
N425 C423 1.316 . S
N425 C424 1.375 . S
N426 C423 1.347 . S
N426 C427 1.373 . S
C427 C424 1.350 . S
C427 N426 1.373 . S
C427 H448 0.931 . S
H428 C423 0.931 . S
H429 C424 0.930 . S
C430 O437 1.259 . S
C430 O438 1.258 . S
N431 Co422 2.057 . S
N431 C432 1.316 . S
N431 C433 1.375 . S
C432 N431 1.316 . S
C432 N434 1.347 . S
C432 H443 0.931 . S
C433 N431 1.375 . S
C433 C435 1.350 . S
C433 H442 0.930 . S
N434 C432 1.347 . S
N434 C435 1.373 . S
C435 C433 1.350 . S
C435 N434 1.373 . S
C435 H449 0.931 . S
C436 O439 1.256 . S
C436 O440 1.255 1_554 S
O437 Co420 2.021 . S
O437 C430 1.259 . S
O438 Co422 2.117 1_556 S
O438 C430 1.258 . S
O439 Co422 2.020 . S
O439 C436 1.256 . S
O440 Co420 2.062 . S
O440 C436 1.255 1_556 S
O441 C421 1.259 . S
O441 Co422 2.021 . S
H442 C433 0.930 . S
H443 C432 0.931 . S
O444 Co420 2.117 1_554 S
O444 C421 1.258 . S
O445 Co420 2.020 . S
O445 C447 1.256 . S
O446 Co422 2.062 . S
O446 C447 1.255 1_554 S
C447 O445 1.256 . S
C447 O446 1.255 1_556 S
H448 C427 0.931 . S
H449 C435 0.931 . S
Co450 N455 2.057 . S
Co450 O467 2.021 . S
Co450 O470 2.062 . S
Co450 O474 2.117 . S
Co450 O475 2.020 . S
C451 O471 1.259 . S
C451 O474 1.258 . S
Co452 N461 2.057 . S
Co452 O468 2.117 . S
Co452 O469 2.020 . S
Co452 O471 2.021 . S
Co452 O476 2.062 . S
C453 N455 1.316 . S
C453 N456 1.347 . S
C453 H458 0.931 . S
C454 N455 1.375 . S
C454 C457 1.350 . S
C454 H459 0.930 . S
N455 Co450 2.057 . S
N455 C453 1.316 . S
N455 C454 1.375 . S
N456 C453 1.347 . S
N456 C457 1.373 . S
C457 C454 1.350 . S
C457 N456 1.373 . S
C457 H478 0.931 . S
H458 C453 0.931 . S
H459 C454 0.930 . S
C460 O467 1.259 . S
C460 O468 1.258 . S
N461 Co452 2.057 . S
N461 C462 1.316 . S
N461 C463 1.375 . S
C462 N461 1.316 . S
C462 N464 1.347 1_545 S
C462 H473 0.931 . S
C463 N461 1.375 . S
C463 C465 1.350 1_545 S
C463 H472 0.930 . S
N464 C462 1.347 1_565 S
N464 C465 1.373 . S
C465 C463 1.350 1_565 S
C465 N464 1.373 . S
C465 H479 0.931 . S
C466 O469 1.256 . S
C466 O470 1.255 . S
O467 Co450 2.021 . S
O467 C460 1.259 . S
O468 Co452 2.117 . S
O468 C460 1.258 . S
O469 Co452 2.020 . S
O469 C466 1.256 . S
O470 Co450 2.062 . S
O470 C466 1.255 . S
O471 C451 1.259 . S
O471 Co452 2.021 . S
H472 C463 0.930 . S
H473 C462 0.931 . S
O474 Co450 2.117 . S
O474 C451 1.258 . S
O475 Co450 2.020 . S
O475 C477 1.256 . S
O476 Co452 2.062 . S
O476 C477 1.255 . S
C477 O475 1.256 . S
C477 O476 1.255 . S
H478 C457 0.931 . S
H479 C465 0.931 . S
C480 C481 1.387 . S
C480 H484 0.950 . S
C480 C489 1.390 . S
C481 C480 1.387 . S
C481 C483 1.387 . S
H482 C489 0.939 1_556 S
C483 C481 1.387 . S
C483 C485 1.390 . S
C483 H487 0.950 . S
H484 C480 0.950 . S
C485 C483 1.390 . S
C485 C486 1.387 . S
C485 H488 0.950 . S
C486 C485 1.387 . S
C486 C489 1.387 . S
H487 C483 0.950 . S
H488 C485 0.950 . S
C489 C480 1.390 . S
C489 H482 0.939 1_554 S
C489 C486 1.387 . S
C490 C491 1.387 . S
C490 H494 0.950 . S
C490 C499 1.390 . S
C491 C490 1.387 . S
C491 C493 1.387 . S
H492 C499 0.950 . S
C493 C491 1.387 . S
C493 C495 1.390 . S
C493 H497 0.950 . S
H494 C490 0.950 . S
C495 C493 1.390 . S
C495 C496 1.387 . S
C495 H498 0.950 . S
C496 C495 1.387 . S
C496 C499 1.387 . S
H497 C493 0.950 . S
H498 C495 0.950 . S
C499 C490 1.390 . S
C499 H492 0.950 . S
C499 C496 1.387 . S
C500 C501 1.387 . S
C500 H504 0.950 . S
C500 C509 1.390 . S
C501 C500 1.387 . S
C501 C503 1.387 . S
H502 C509 0.950 . S
C503 C501 1.387 . S
C503 C505 1.390 . S
C503 H507 0.950 . S
H504 C500 0.950 . S
C505 C503 1.390 . S
C505 C506 1.387 . S
C505 H508 0.950 1_455 S
C506 C505 1.387 . S
C506 C509 1.387 . S
H507 C503 0.950 . S
H508 C505 0.950 1_655 S
C509 C500 1.390 . S
C509 H502 0.950 . S
C509 C506 1.387 . S
C510 C511 1.387 . S
C510 H514 0.950 . S
C510 C519 1.406 . S
C511 C510 1.387 . S
C511 C513 1.387 . S
H512 C519 0.942 1_455 S
C513 C511 1.387 . S
C513 C515 1.390 1_556 S
C513 H517 0.950 1_556 S
H514 C510 0.950 . S
C515 C513 1.390 1_554 S
C515 C516 1.387 1_654 S
C515 H518 0.950 . S
C516 C515 1.387 1_456 S
C516 C519 1.380 1_455 S
H517 C513 0.950 1_554 S
H518 C515 0.950 . S
C519 C510 1.406 . S
C519 H512 0.942 1_655 S
C519 C516 1.380 1_655 S
C520 C521 1.387 . S
C520 H524 0.950 . S
C520 C529 1.390 . S
C521 C520 1.387 . S
C521 C523 1.387 . S
H522 C529 0.950 1_554 S
C523 C521 1.387 . S
C523 C525 1.390 . S
C523 H527 0.950 . S
H524 C520 0.950 . S
C525 C523 1.390 . S
C525 C526 1.387 . S
C525 H528 0.950 . S
C526 C525 1.387 . S
C526 C529 1.387 . S
H527 C523 0.950 . S
H528 C525 0.950 . S
C529 C520 1.390 . S
C529 H522 0.950 1_556 S
C529 C526 1.387 . S
C530 C531 1.387 . S
C530 H534 0.950 . S
C530 C539 1.390 . S
C531 C530 1.387 . S
C531 C533 1.387 . S
H532 C539 0.950 . S
C533 C531 1.387 . S
C533 C535 1.390 . S
C533 H537 0.950 . S
H534 C530 0.950 . S
C535 C533 1.390 . S
C535 C536 1.387 . S
C535 H538 0.950 . S
C536 C535 1.387 . S
C536 C539 1.387 . S
H537 C533 0.950 . S
H538 C535 0.950 . S
C539 C530 1.390 . S
C539 H532 0.950 . S
C539 C536 1.387 . S
C540 C541 1.387 . S
C540 H544 0.950 . S
C540 C549 1.390 . S
C541 C540 1.387 . S
C541 C543 1.387 . S
H542 C549 0.950 . S
C543 C541 1.387 . S
C543 C545 1.390 . S
C543 H547 0.950 . S
H544 C540 0.950 . S
C545 C543 1.390 . S
C545 C546 1.387 . S
C545 H548 0.950 . S
C546 C545 1.387 . S
C546 C549 1.387 . S
H547 C543 0.950 . S
H548 C545 0.950 . S
C549 C540 1.390 . S
C549 H542 0.950 . S
C549 C546 1.387 . S
C550 C551 1.387 . S
C550 H554 0.950 . S
C550 C559 1.390 1_455 S
C551 C550 1.387 . S
C551 C553 1.387 . S
H552 C559 0.950 . S
C553 C551 1.387 . S
C553 C555 1.390 1_554 S
C553 H557 0.950 1_554 S
H554 C550 0.950 . S
C555 C553 1.390 1_556 S
C555 C556 1.387 1_456 S
C555 H558 0.950 . S
C556 C555 1.387 1_654 S
C556 C559 1.387 . S
H557 C553 0.950 1_556 S
H558 C555 0.950 . S
C559 C550 1.390 1_655 S
C559 H552 0.950 . S
C559 C556 1.387 . S
C560 C561 1.387 . S
C560 H564 0.950 . S
C560 C569 1.390 . S
C561 C560 1.387 . S
C561 C563 1.387 . S
H562 C569 0.950 . S
C563 C561 1.387 . S
C563 C565 1.390 . S
C563 H567 0.950 . S
H564 C560 0.950 . S
C565 C563 1.390 . S
C565 C566 1.387 . S
C565 H568 0.950 . S
C566 C565 1.387 . S
C566 C569 1.387 . S
H567 C563 0.950 . S
H568 C565 0.950 . S
C569 C560 1.390 . S
C569 H562 0.950 . S
C569 C566 1.387 . S
C570 C571 1.387 . S
C570 H574 0.950 . S
C570 C579 1.390 . S
C571 C570 1.387 . S
C571 C573 1.387 . S
H572 C579 0.950 . S
C573 C571 1.387 . S
C573 C575 1.390 . S
C573 H577 0.950 . S
H574 C570 0.950 . S
C575 C573 1.390 . S
C575 C576 1.387 . S
C575 H578 0.950 . S
C576 C575 1.387 . S
C576 C579 1.387 . S
H577 C573 0.950 . S
H578 C575 0.950 . S
C579 C570 1.390 . S
C579 H572 0.950 . S
C579 C576 1.387 . S
C580 C581 1.387 . S
C580 H584 0.950 . S
C580 C589 1.390 . S
C581 C580 1.387 . S
C581 C583 1.387 . S
H582 C589 0.950 . S
C583 C581 1.387 . S
C583 C585 1.390 . S
C583 H587 0.950 . S
H584 C580 0.950 . S
C585 C583 1.390 . S
C585 C586 1.387 . S
C585 H588 0.950 . S
C586 C585 1.387 . S
C586 C589 1.387 . S
H587 C583 0.950 . S
H588 C585 0.950 . S
C589 C580 1.390 . S
C589 H582 0.950 . S
C589 C586 1.387 . S
C590 C591 1.387 . S
C590 H594 0.950 . S
C590 C599 1.390 . S
C591 C590 1.387 . S
C591 C593 1.387 . S
H592 C599 0.950 . S
C593 C591 1.387 . S
C593 C595 1.390 . S
C593 H597 0.950 . S
H594 C590 0.950 . S
C595 C593 1.390 . S
C595 C596 1.387 . S
C595 H598 0.950 . S
C596 C595 1.387 . S
C596 C599 1.387 . S
H597 C593 0.950 . S
H598 C595 0.950 . S
C599 C590 1.390 . S
C599 H592 0.950 . S
C599 C596 1.387 . S
C600 C601 1.387 . S
C600 H604 0.950 . S
C600 C609 1.390 . S
C601 C600 1.387 . S
C601 C603 1.387 . S
H602 C609 0.950 . S
C603 C601 1.387 . S
C603 C605 1.390 . S
C603 H607 0.950 . S
H604 C600 0.950 . S
C605 C603 1.390 . S
C605 C606 1.387 . S
C605 H608 0.950 . S
C606 C605 1.387 . S
C606 C609 1.387 . S
H607 C603 0.950 . S
H608 C605 0.950 . S
C609 C600 1.390 . S
C609 H602 0.950 . S
C609 C606 1.387 . S
C610 C611 1.387 . S
C610 H614 0.950 . S
C610 C619 1.390 . S
C611 C610 1.387 . S
C611 C613 1.387 . S
H612 C619 0.950 . S
C613 C611 1.387 . S
C613 C615 1.390 . S
C613 H617 0.950 . S
H614 C610 0.950 . S
C615 C613 1.390 . S
C615 C616 1.387 . S
C615 H618 0.950 . S
C616 C615 1.387 . S
C616 C619 1.387 . S
H617 C613 0.950 . S
H618 C615 0.950 . S
C619 C610 1.390 . S
C619 H612 0.950 . S
C619 C616 1.387 . S
C620 C621 1.387 . S
C620 H624 0.950 . S
C620 C629 1.390 . S
C621 C620 1.387 . S
C621 C623 1.387 . S
H622 C629 0.950 . S
C623 C621 1.387 . S
C623 C625 1.390 . S
C623 H627 0.950 . S
H624 C620 0.950 . S
C625 C623 1.390 . S
C625 C626 1.387 . S
C625 H628 0.950 . S
C626 C625 1.387 . S
C626 C629 1.387 . S
H627 C623 0.950 . S
H628 C625 0.950 . S
C629 C620 1.390 . S
C629 H622 0.950 . S
C629 C626 1.387 . S
C630 C631 1.387 . S
C630 H634 0.950 . S
C630 C639 1.390 . S
C631 C630 1.387 . S
C631 C633 1.387 . S
H632 C639 0.950 . S
C633 C631 1.387 . S
C633 C635 1.390 . S
C633 H637 0.950 . S
H634 C630 0.950 . S
C635 C633 1.390 . S
C635 C636 1.387 . S
C635 H638 0.950 . S
C636 C635 1.387 . S
C636 C639 1.387 . S
H637 C633 0.950 . S
H638 C635 0.950 . S
C639 C630 1.390 . S
C639 H632 0.950 . S
C639 C636 1.387 . S
C640 C641 1.387 . S
C640 H644 0.950 . S
C640 C649 1.390 . S
C641 C640 1.387 . S
C641 C643 1.387 . S
H642 C649 0.950 . S
C643 C641 1.387 . S
C643 C645 1.390 . S
C643 H647 0.950 . S
H644 C640 0.950 . S
C645 C643 1.390 . S
C645 C646 1.387 . S
C645 H648 0.950 . S
C646 C645 1.387 . S
C646 C649 1.387 . S
H647 C643 0.950 . S
H648 C645 0.950 . S
C649 C640 1.390 . S
C649 H642 0.950 . S
C649 C646 1.387 . S
C650 C651 1.387 . S
C650 H654 0.950 . S
C650 C659 1.390 . S
C651 C650 1.387 . S
C651 C653 1.387 . S
H652 C659 0.950 . S
C653 C651 1.387 . S
C653 C655 1.390 . S
C653 H657 0.950 . S
H654 C650 0.950 . S
C655 C653 1.390 . S
C655 C656 1.387 . S
C655 H658 0.950 . S
C656 C655 1.387 . S
C656 C659 1.387 . S
H657 C653 0.950 . S
H658 C655 0.950 . S
C659 C650 1.390 . S
C659 H652 0.950 . S
C659 C656 1.387 . S
C660 C661 1.387 . S
C660 H664 0.950 1_556 S
C660 C669 1.390 . S
C661 C660 1.387 . S
C661 C663 1.387 . S
H662 C669 0.950 1_554 S
C663 C661 1.387 . S
C663 C665 1.390 . S
C663 H667 0.950 . S
H664 C660 0.950 1_554 S
C665 C663 1.390 . S
C665 C666 1.387 . S
C665 H668 0.950 . S
C666 C665 1.387 . S
C666 C669 1.387 . S
H667 C663 0.950 . S
H668 C665 0.950 . S
C669 C660 1.390 . S
C669 H662 0.950 1_556 S
C669 C666 1.387 . S
C670 C671 1.387 . S
C670 H674 0.950 . S
C670 C679 1.390 . S
C671 C670 1.387 . S
C671 C673 1.387 . S
H672 C679 0.950 . S
C673 C671 1.387 . S
C673 C675 1.390 . S
C673 H677 0.950 . S
H674 C670 0.950 . S
C675 C673 1.390 . S
C675 C676 1.387 . S
C675 H678 0.950 . S
C676 C675 1.387 . S
C676 C679 1.387 . S
H677 C673 0.950 . S
H678 C675 0.950 . S
C679 C670 1.390 . S
C679 H672 0.950 . S
C679 C676 1.387 . S
C680 C681 1.387 . S
C680 H684 0.950 . S
C680 C689 1.390 . S
C681 C680 1.387 . S
C681 C683 1.387 . S
H682 C689 0.950 . S
C683 C681 1.387 . S
C683 C685 1.390 . S
C683 H687 0.950 . S
H684 C680 0.950 . S
C685 C683 1.390 . S
C685 C686 1.387 . S
C685 H688 0.950 . S
C686 C685 1.387 . S
C686 C689 1.387 . S
H687 C683 0.950 . S
H688 C685 0.950 . S
C689 C680 1.390 . S
C689 H682 0.950 . S
C689 C686 1.387 . S
C690 C691 1.387 . S
C690 H694 0.950 . S
C690 C699 1.390 . S
C691 C690 1.387 . S
C691 C693 1.387 . S
H692 C699 0.950 . S
C693 C691 1.387 . S
C693 C695 1.390 . S
C693 H697 0.950 . S
H694 C690 0.950 . S
C695 C693 1.390 . S
C695 C696 1.387 . S
C695 H698 0.950 . S
C696 C695 1.387 . S
C696 C699 1.387 . S
H697 C693 0.950 . S
H698 C695 0.950 . S
C699 C690 1.390 . S
C699 H692 0.950 . S
C699 C696 1.387 . S
C700 C701 1.387 . S
C700 H704 0.950 1_554 S
C700 C709 1.390 . S
C701 C700 1.387 . S
C701 C703 1.387 . S
H702 C709 0.950 1_556 S
C703 C701 1.387 . S
C703 C705 1.390 . S
C703 H707 0.950 . S
H704 C700 0.950 1_556 S
C705 C703 1.390 . S
C705 C706 1.387 . S
C705 H708 0.950 . S
C706 C705 1.387 . S
C706 C709 1.387 . S
H707 C703 0.950 . S
H708 C705 0.950 . S
C709 C700 1.390 . S
C709 H702 0.950 1_554 S
C709 C706 1.387 . S
C710 C711 1.387 . S
C710 H714 0.950 . S
C710 C719 1.390 . S
C711 C710 1.387 . S
C711 C713 1.387 . S
H712 C719 0.950 . S
C713 C711 1.387 . S
C713 C715 1.390 . S
C713 H717 0.950 . S
H714 C710 0.950 . S
C715 C713 1.390 . S
C715 C716 1.387 . S
C715 H718 0.950 . S
C716 C715 1.387 . S
C716 C719 1.387 . S
H717 C713 0.950 . S
H718 C715 0.950 . S
C719 C710 1.390 . S
C719 H712 0.950 . S
C719 C716 1.387 . S
C720 C721 1.387 . S
C720 H724 0.950 . S
C720 C729 1.390 . S
C721 C720 1.387 . S
C721 C723 1.387 . S
H722 C729 0.950 . S
C723 C721 1.387 . S
C723 C725 1.390 . S
C723 H727 0.950 . S
H724 C720 0.950 . S
C725 C723 1.390 . S
C725 C726 1.387 . S
C725 H728 0.950 . S
C726 C725 1.387 . S
C726 C729 1.387 . S
H727 C723 0.950 . S
H728 C725 0.950 . S
C729 C720 1.390 . S
C729 H722 0.950 . S
C729 C726 1.387 . S
C730 C731 1.387 . S
C730 H734 0.950 . S
C730 C739 1.390 . S
C731 C730 1.387 . S
C731 C733 1.387 . S
H732 C739 0.950 . S
C733 C731 1.387 . S
C733 C735 1.390 . S
C733 H737 0.950 . S
H734 C730 0.950 . S
C735 C733 1.390 . S
C735 C736 1.387 . S
C735 H738 0.950 . S
C736 C735 1.387 . S
C736 C739 1.387 . S
H737 C733 0.950 . S
H738 C735 0.950 . S
C739 C730 1.390 . S
C739 H732 0.950 . S
C739 C736 1.387 . S
C740 C741 1.387 . S
C740 H744 0.950 . S
C740 C749 1.390 . S
C741 C740 1.387 . S
C741 C743 1.387 . S
H742 C749 0.950 . S
C743 C741 1.387 . S
C743 C745 1.390 . S
C743 H747 0.950 . S
H744 C740 0.950 . S
C745 C743 1.390 . S
C745 C746 1.387 . S
C745 H748 0.950 . S
C746 C745 1.387 . S
C746 C749 1.387 . S
H747 C743 0.950 . S
H748 C745 0.950 . S
C749 C740 1.390 . S
C749 H742 0.950 . S
C749 C746 1.387 . S
C750 C751 1.387 . S
C750 H754 0.950 . S
C750 C759 1.390 . S
C751 C750 1.387 . S
C751 C753 1.387 . S
H752 C759 0.950 . S
C753 C751 1.387 . S
C753 C755 1.390 . S
C753 H757 0.950 . S
H754 C750 0.950 . S
C755 C753 1.390 . S
C755 C756 1.387 . S
C755 H758 0.950 . S
C756 C755 1.387 . S
C756 C759 1.387 . S
H757 C753 0.950 . S
H758 C755 0.950 . S
C759 C750 1.390 . S
C759 H752 0.950 . S
C759 C756 1.387 . S
C760 C761 1.387 . S
C760 H764 0.950 . S
C760 C769 1.390 . S
C761 C760 1.387 . S
C761 C763 1.387 . S
H762 C769 0.950 . S
C763 C761 1.387 . S
C763 C765 1.390 . S
C763 H767 0.950 . S
H764 C760 0.950 . S
C765 C763 1.390 . S
C765 C766 1.387 . S
C765 H768 0.950 . S
C766 C765 1.387 . S
C766 C769 1.387 . S
H767 C763 0.950 . S
H768 C765 0.950 . S
C769 C760 1.390 . S
C769 H762 0.950 . S
C769 C766 1.387 . S
C770 C771 1.387 . S
C770 H774 0.950 . S
C770 C779 1.390 . S
C771 C770 1.387 . S
C771 C773 1.387 . S
H772 C779 0.950 . S
C773 C771 1.387 . S
C773 C775 1.390 . S
C773 H777 0.950 . S
H774 C770 0.950 . S
C775 C773 1.390 . S
C775 C776 1.387 . S
C775 H778 0.950 . S
C776 C775 1.387 . S
C776 C779 1.387 . S
H777 C773 0.950 . S
H778 C775 0.950 . S
C779 C770 1.390 . S
C779 H772 0.950 . S
C779 C776 1.387 . S
C780 C781 1.387 . S
C780 H784 0.950 . S
C780 C789 1.390 . S
C781 C780 1.387 . S
C781 C783 1.387 . S
H782 C789 0.950 . S
C783 C781 1.387 . S
C783 C785 1.390 . S
C783 H787 0.950 . S
H784 C780 0.950 . S
C785 C783 1.390 . S
C785 C786 1.387 . S
C785 H788 0.950 . S
C786 C785 1.387 . S
C786 C789 1.387 . S
H787 C783 0.950 . S
H788 C785 0.950 . S
C789 C780 1.390 . S
C789 H782 0.950 . S
C789 C786 1.387 . S
C790 C791 1.387 . S
C790 H794 0.950 . S
C790 C799 1.390 . S
C791 C790 1.387 . S
C791 C793 1.387 . S
H792 C799 0.950 . S
C793 C791 1.387 . S
C793 C795 1.390 . S
C793 H797 0.950 . S
H794 C790 0.950 . S
C795 C793 1.390 . S
C795 C796 1.387 . S
C795 H798 0.950 . S
C796 C795 1.387 . S
C796 C799 1.387 . S
H797 C793 0.950 . S
H798 C795 0.950 . S
C799 C790 1.390 . S
C799 H792 0.950 . S
C799 C796 1.387 . S
C800 C801 1.387 . S
C800 H804 0.950 . S
C800 C809 1.390 . S
C801 C800 1.387 . S
C801 C803 1.387 . S
H802 C809 0.950 . S
C803 C801 1.387 . S
C803 C805 1.390 . S
C803 H807 0.950 . S
H804 C800 0.950 . S
C805 C803 1.390 . S
C805 C806 1.387 . S
C805 H808 0.950 1_655 S
C806 C805 1.387 . S
C806 C809 1.387 . S
H807 C803 0.950 . S
H808 C805 0.950 1_455 S
C809 C800 1.390 . S
C809 H802 0.950 . S
C809 C806 1.387 . S
C810 C811 1.387 . S
C810 H814 0.950 . S
C810 C819 1.390 . S
C811 C810 1.387 . S
C811 C813 1.387 . S
H812 C819 0.950 . S
C813 C811 1.387 . S
C813 C815 1.390 . S
C813 H817 0.950 . S
H814 C810 0.950 . S
C815 C813 1.390 . S
C815 C816 1.387 . S
C815 H818 0.950 . S
C816 C815 1.387 . S
C816 C819 1.387 . S
H817 C813 0.950 . S
H818 C815 0.950 . S
C819 C810 1.390 . S
C819 H812 0.950 . S
C819 C816 1.387 . S
C820 C821 1.387 . S
C820 H824 0.950 . S
C820 C829 1.390 . S
C821 C820 1.387 . S
C821 C823 1.387 . S
H822 C829 0.950 . S
C823 C821 1.387 . S
C823 C825 1.390 . S
C823 H827 0.950 . S
H824 C820 0.950 . S
C825 C823 1.390 . S
C825 C826 1.387 . S
C825 H828 0.950 . S
C826 C825 1.387 . S
C826 C829 1.387 . S
H827 C823 0.950 . S
H828 C825 0.950 . S
C829 C820 1.390 . S
C829 H822 0.950 . S
C829 C826 1.387 . S
C830 C831 1.387 . S
C830 H834 0.950 . S
C830 C839 1.390 . S
C831 C830 1.387 . S
C831 C833 1.387 . S
H832 C839 0.950 . S
C833 C831 1.387 . S
C833 C835 1.390 . S
C833 H837 0.950 . S
H834 C830 0.950 . S
C835 C833 1.390 . S
C835 C836 1.387 . S
C835 H838 0.950 . S
C836 C835 1.387 . S
C836 C839 1.387 . S
H837 C833 0.950 . S
H838 C835 0.950 . S
C839 C830 1.390 . S
C839 H832 0.950 . S
C839 C836 1.387 . S
C840 C841 1.387 . S
C840 H844 0.950 . S
C840 C849 1.390 . S
C841 C840 1.387 . S
C841 C843 1.387 . S
H842 C849 0.950 . S
C843 C841 1.387 . S
C843 C845 1.390 . S
C843 H847 0.950 . S
H844 C840 0.950 . S
C845 C843 1.390 . S
C845 C846 1.387 . S
C845 H848 0.950 1_455 S
C846 C845 1.387 . S
C846 C849 1.387 . S
H847 C843 0.950 . S
H848 C845 0.950 1_655 S
C849 C840 1.390 . S
C849 H842 0.950 . S
C849 C846 1.387 . S
C850 C851 1.387 . S
C850 H854 0.950 . S
C850 C859 1.390 . S
C851 C850 1.387 . S
C851 C853 1.387 . S
H852 C859 0.950 . S
C853 C851 1.387 . S
C853 C855 1.390 . S
C853 H857 0.950 . S
H854 C850 0.950 . S
C855 C853 1.390 . S
C855 C856 1.387 . S
C855 H858 0.950 . S
C856 C855 1.387 . S
C856 C859 1.387 . S
H857 C853 0.950 . S
H858 C855 0.950 . S
C859 C850 1.390 . S
C859 H852 0.950 . S
C859 C856 1.387 . S
C860 C861 1.387 . S
C860 H864 0.950 . S
C860 C869 1.390 . S
C861 C860 1.387 . S
C861 C863 1.387 . S
H862 C869 0.950 . S
C863 C861 1.387 . S
C863 C865 1.390 . S
C863 H867 0.950 . S
H864 C860 0.950 . S
C865 C863 1.390 . S
C865 C866 1.387 . S
C865 H868 0.950 . S
C866 C865 1.387 . S
C866 C869 1.387 . S
H867 C863 0.950 . S
H868 C865 0.950 . S
C869 C860 1.390 . S
C869 H862 0.950 . S
C869 C866 1.387 . S
C870 C871 1.387 . S
C870 H874 0.950 . S
C870 C879 1.390 . S
C871 C870 1.387 . S
C871 C873 1.387 . S
H872 C879 0.950 . S
C873 C871 1.387 . S
C873 C875 1.390 . S
C873 H877 0.950 . S
H874 C870 0.950 . S
C875 C873 1.390 . S
C875 C876 1.387 . S
C875 H878 0.950 . S
C876 C875 1.387 . S
C876 C879 1.387 . S
H877 C873 0.950 . S
H878 C875 0.950 . S
C879 C870 1.390 . S
C879 H872 0.950 . S
C879 C876 1.387 . S
C880 C881 1.387 . S
C880 H884 0.950 . S
C880 C889 1.390 . S
C881 C880 1.387 . S
C881 C883 1.387 . S
H882 C889 0.950 . S
C883 C881 1.387 . S
C883 C885 1.390 . S
C883 H887 0.950 . S
H884 C880 0.950 . S
C885 C883 1.390 . S
C885 C886 1.387 . S
C885 H888 0.950 . S
C886 C885 1.387 . S
C886 C889 1.387 . S
H887 C883 0.950 . S
H888 C885 0.950 . S
C889 C880 1.390 . S
C889 H882 0.950 . S
C889 C886 1.387 . S
C890 C891 1.387 . S
C890 H894 0.950 . S
C890 C899 1.390 . S
C891 C890 1.387 . S
C891 C893 1.387 . S
H892 C899 0.950 . S
C893 C891 1.387 . S
C893 C895 1.390 . S
C893 H897 0.950 . S
H894 C890 0.950 . S
C895 C893 1.390 . S
C895 C896 1.387 . S
C895 H898 0.950 . S
C896 C895 1.387 . S
C896 C899 1.387 . S
H897 C893 0.950 . S
H898 C895 0.950 . S
C899 C890 1.390 . S
C899 H892 0.950 . S
C899 C896 1.387 . S
C900 C901 1.387 . S
C900 H904 0.950 . S
C900 C909 1.390 . S
C901 C900 1.387 . S
C901 C903 1.387 . S
H902 C909 0.950 . S
C903 C901 1.387 . S
C903 C905 1.390 . S
C903 H907 0.950 . S
H904 C900 0.950 . S
C905 C903 1.390 . S
C905 C906 1.387 . S
C905 H908 0.950 . S
C906 C905 1.387 . S
C906 C909 1.387 . S
H907 C903 0.950 . S
H908 C905 0.950 . S
C909 C900 1.390 . S
C909 H902 0.950 . S
C909 C906 1.387 . S
C910 C911 1.399 . S
C910 H914 0.956 . S
C910 C919 1.373 1_455 S
C911 C910 1.399 . S
C911 C913 1.387 1_554 S
H912 C919 0.950 . S
C913 C911 1.387 1_556 S
C913 C915 1.373 1_455 S
C913 H917 0.950 . S
H914 C910 0.956 . S
C915 C913 1.373 1_655 S
C915 C916 1.399 . S
C915 H918 0.956 . S
C916 C915 1.399 . S
C916 C919 1.387 1_556 S
H917 C913 0.950 . S
H918 C915 0.956 . S
C919 C910 1.373 1_655 S
C919 H912 0.950 . S
C919 C916 1.387 1_554 S
C920 C921 1.387 . S
C920 H924 0.950 . S
C920 C929 1.390 . S
C921 C920 1.387 . S
C921 C923 1.387 . S
H922 C929 0.950 . S
C923 C921 1.387 . S
C923 C925 1.390 . S
C923 H927 0.950 . S
H924 C920 0.950 . S
C925 C923 1.390 . S
C925 C926 1.387 . S
C925 H928 0.950 . S
C926 C925 1.387 . S
C926 C929 1.387 . S
H927 C923 0.950 . S
H928 C925 0.950 . S
C929 C920 1.390 . S
C929 H922 0.950 . S
C929 C926 1.387 . S
C930 C931 1.387 . S
C930 H934 0.950 . S
C930 C939 1.390 . S
C931 C930 1.387 . S
C931 C933 1.387 . S
H932 C939 0.950 . S
C933 C931 1.387 . S
C933 C935 1.390 . S
C933 H937 0.950 . S
H934 C930 0.950 . S
C935 C933 1.390 . S
C935 C936 1.387 . S
C935 H938 0.950 . S
C936 C935 1.387 . S
C936 C939 1.387 . S
H937 C933 0.950 . S
H938 C935 0.950 . S
C939 C930 1.390 . S
C939 H932 0.950 . S
C939 C936 1.387 . S
C940 C941 1.387 1_654 S
C940 H944 0.950 . S
C940 C949 1.390 . S
C941 C940 1.387 1_456 S
C941 C943 1.387 1_545 S
H942 C949 0.950 . S
C943 C941 1.387 1_565 S
C943 C945 1.390 . S
C943 H947 0.950 . S
H944 C940 0.950 . S
C945 C943 1.390 . S
C945 C946 1.387 1_456 S
C945 H948 0.950 . S
C946 C945 1.387 1_654 S
C946 C949 1.387 1_565 S
H947 C943 0.950 . S
H948 C945 0.950 . S
C949 C940 1.390 . S
C949 H942 0.950 . S
C949 C946 1.387 1_545 S
C950 C951 1.387 . S
C950 H954 0.950 . S
C950 C959 1.390 . S
C951 C950 1.387 . S
C951 C953 1.387 1_545 S
H952 C959 0.950 . S
C953 C951 1.387 1_565 S
C953 C955 1.390 . S
C953 H957 0.950 . S
H954 C950 0.950 . S
C955 C953 1.390 . S
C955 C956 1.387 . S
C955 H958 0.950 . S
C956 C955 1.387 . S
C956 C959 1.387 1_565 S
H957 C953 0.950 . S
H958 C955 0.950 . S
C959 C950 1.390 . S
C959 H952 0.950 . S
C959 C956 1.387 1_545 S
C481 N14 0.889 . S
C486 C316 0.890 . S
C491 N44 0.903 . S
C496 N344 0.900 . S
C501 C76 1.017 . S
C506 N254 1.011 1_455 S
C511 N104 0.937 . S
C516 N284 0.940 . S
C521 N126 0.888 . S
C526 C447 0.888 . S
C531 N156 0.904 . S
C536 N456 0.900 . S
C541 C207 1.017 . S
C546 N366 1.010 1_655 S
C551 N216 0.934 . S
C556 N396 0.937 . S
C561 C280 1.223 . S
C566 N6 1.163 . S
C571 C301 1.065 . S
C576 N36 1.016 . S
C581 C340 1.205 . S
C586 C87 1.300 . S
C591 C250 1.657 . S
C596 N96 1.616 . S
C601 N134 1.165 . S
C606 C391 1.222 . S
C611 C430 1.063 . S
C616 N164 1.014 . S
C621 C451 1.203 . S
C626 C196 1.299 . S
C631 C361 1.657 . S
C636 N224 1.615 . S
C641 C40 1.267 . S
C646 N246 1.202 . S
C651 N276 1.182 . S
C656 C61 1.255 . S
C661 C327 1.424 . S
C666 C100 1.328 . S
C671 N336 1.575 . S
C676 C10 1.599 . S
C681 N374 1.205 . S
C686 C151 1.266 . S
C691 C190 1.257 . S
C696 N404 1.184 . S
C701 C211 1.330 . S
C706 C436 1.425 . S
C711 N464 1.576 . S
C716 C121 1.598 . S
C721 C27 1.846 . S
C726 C460 1.759 . S
C731 C57 1.894 . S
C736 C130 1.886 . S
C741 C400 1.220 1_455 S
C746 N66 1.208 . S
C751 C181 1.914 . S
C756 C117 1.956 . S
C761 C136 1.846 . S
C766 C331 1.760 . S
C771 C166 1.893 . S
C776 C1 1.887 . S
C781 C271 1.218 1_655 S
C786 N194 1.206 . S
C791 C70 1.915 . S
C796 C226 1.955 . S
C801 C267 1.847 . S
C806 C220 1.766 1_655 S
C811 C297 1.870 . S
C816 C370 1.862 . S
C821 C160 1.255 . S
C826 N306 1.253 . S
C831 C421 1.989 . S
C836 C357 2.030 . S
C841 C376 1.848 . S
C846 C91 1.767 1_455 S
C851 C406 1.871 . S
C856 C241 1.862 . S
C861 N434 1.251 . S
C866 C31 1.255 . S
C871 C310 1.989 . S
C876 C466 2.030 . S
C881 C16 2.198 . S
C886 C387 2.197 . S
C891 C46 1.504 . S
C896 C177 1.504 . S
C901 N74 1.321 . S
C906 N426 1.319 . S
C911 C237 2.304 . S
C916 C106 2.304 . S
C921 C147 2.198 . S
C926 C256 2.197 . S
C931 N314 1.321 . S
C936 N186 1.319 . S
C941 C286 1.488 . S
C946 C417 1.488 . S
C951 C477 2.439 . S
C956 C346 2.439 . S
