# Generated by pormake.
# Topology ume, (4)-cn, num edge types: 1
# Building blocks:
#     Node 0, Type 0, BuildingBlock: NAWXER_clean_sbu_0, # of connection points: 4
#     Node 1, Type 0, BuildingBlock: NAWXER_clean_sbu_0, # of connection points: 4
#     Node 2, Type 0, BuildingBlock: NAWXER_clean_sbu_0, # of connection points: 4
#     Node 3, Type 0, BuildingBlock: NAWXER_clean_sbu_0, # of connection points: 4
#     Node 4, Type 0, BuildingBlock: NAWXER_clean_sbu_0, # of connection points: 4
#     Node 5, Type 0, BuildingBlock: NAWXER_clean_sbu_0, # of connection points: 4
#     Node 6, Type 0, BuildingBlock: NAWXER_clean_sbu_0, # of connection points: 4
#     Node 7, Type 0, BuildingBlock: NAWXER_clean_sbu_0, # of connection points: 4
#     Node 8, Type 0, BuildingBlock: NAWXER_clean_sbu_0, # of connection points: 4
#     Node 9, Type 0, BuildingBlock: NAWXER_clean_sbu_0, # of connection points: 4
#     Node 10, Type 0, BuildingBlock: NAWXER_clean_sbu_0, # of connection points: 4
#     Node 11, Type 0, BuildingBlock: NAWXER_clean_sbu_0, # of connection points: 4
#     Node 12, Type 0, BuildingBlock: NAWXER_clean_sbu_0, # of connection points: 4
#     Node 13, Type 0, BuildingBlock: NAWXER_clean_sbu_0, # of connection points: 4
#     Node 14, Type 0, BuildingBlock: NAWXER_clean_sbu_0, # of connection points: 4
#     Node 15, Type 0, BuildingBlock: NAWXER_clean_sbu_0, # of connection points: 4
#     Edge 16, Type (0, 0), BuildingBlock: MIFKUJ_clean_linker_0, # of connection points: 2
#     Edge 17, Type (0, 0), BuildingBlock: MIFKUJ_clean_linker_0, # of connection points: 2
#     Edge 18, Type (0, 0), BuildingBlock: MIFKUJ_clean_linker_0, # of connection points: 2
#     Edge 19, Type (0, 0), BuildingBlock: MIFKUJ_clean_linker_0, # of connection points: 2
#     Edge 20, Type (0, 0), BuildingBlock: MIFKUJ_clean_linker_0, # of connection points: 2
#     Edge 21, Type (0, 0), BuildingBlock: MIFKUJ_clean_linker_0, # of connection points: 2
#     Edge 22, Type (0, 0), BuildingBlock: MIFKUJ_clean_linker_0, # of connection points: 2
#     Edge 23, Type (0, 0), BuildingBlock: MIFKUJ_clean_linker_0, # of connection points: 2
#     Edge 24, Type (0, 0), BuildingBlock: MIFKUJ_clean_linker_0, # of connection points: 2
#     Edge 25, Type (0, 0), BuildingBlock: MIFKUJ_clean_linker_0, # of connection points: 2
#     Edge 26, Type (0, 0), BuildingBlock: MIFKUJ_clean_linker_0, # of connection points: 2
#     Edge 27, Type (0, 0), BuildingBlock: MIFKUJ_clean_linker_0, # of connection points: 2
#     Edge 28, Type (0, 0), BuildingBlock: MIFKUJ_clean_linker_0, # of connection points: 2
#     Edge 29, Type (0, 0), BuildingBlock: MIFKUJ_clean_linker_0, # of connection points: 2
#     Edge 30, Type (0, 0), BuildingBlock: MIFKUJ_clean_linker_0, # of connection points: 2
#     Edge 31, Type (0, 0), BuildingBlock: MIFKUJ_clean_linker_0, # of connection points: 2
#     Edge 32, Type (0, 0), BuildingBlock: MIFKUJ_clean_linker_0, # of connection points: 2
#     Edge 33, Type (0, 0), BuildingBlock: MIFKUJ_clean_linker_0, # of connection points: 2
#     Edge 34, Type (0, 0), BuildingBlock: MIFKUJ_clean_linker_0, # of connection points: 2
#     Edge 35, Type (0, 0), BuildingBlock: MIFKUJ_clean_linker_0, # of connection points: 2
#     Edge 36, Type (0, 0), BuildingBlock: MIFKUJ_clean_linker_0, # of connection points: 2
#     Edge 37, Type (0, 0), BuildingBlock: MIFKUJ_clean_linker_0, # of connection points: 2
#     Edge 38, Type (0, 0), BuildingBlock: MIFKUJ_clean_linker_0, # of connection points: 2
#     Edge 39, Type (0, 0), BuildingBlock: MIFKUJ_clean_linker_0, # of connection points: 2
#     Edge 40, Type (0, 0), BuildingBlock: MIFKUJ_clean_linker_0, # of connection points: 2
#     Edge 41, Type (0, 0), BuildingBlock: MIFKUJ_clean_linker_0, # of connection points: 2
#     Edge 42, Type (0, 0), BuildingBlock: MIFKUJ_clean_linker_0, # of connection points: 2
#     Edge 43, Type (0, 0), BuildingBlock: MIFKUJ_clean_linker_0, # of connection points: 2
#     Edge 44, Type (0, 0), BuildingBlock: MIFKUJ_clean_linker_0, # of connection points: 2
#     Edge 45, Type (0, 0), BuildingBlock: MIFKUJ_clean_linker_0, # of connection points: 2
#     Edge 46, Type (0, 0), BuildingBlock: MIFKUJ_clean_linker_0, # of connection points: 2
#     Edge 47, Type (0, 0), BuildingBlock: MIFKUJ_clean_linker_0, # of connection points: 2
# Relax obj value: 0.054
# Max RMSD: 0.243
# Mean RMSD: 0.243
data_MOF--net-ume--node1-NAWXER_clean_sbu_0--edge1-MIFKUJ_clean_linker_0
_symmetry_space_group_name_H-M    P1
_symmetry_Int_Tables_number       1
_symmetry_cell_setting            triclinic
loop_
_symmetry_equiv_pos_as_xyz
'x, y, z'
_cell_length_a     37.330532
_cell_length_b     37.345544
_cell_length_c     146.99882
_cell_angle_alpha  89.920622
_cell_angle_beta   90.031686
_cell_angle_gamma 89.928236
loop_
_atom_site_label
_atom_site_type_symbol
_atom_site_fract_x
_atom_site_fract_y
_atom_site_fract_z
_atom_type_partial_charge
C0 C 0.24709 0.08961 0.33778 0.0
C1 C 0.25664 0.11776 0.30549 0.0
O2 O 0.24755 0.11981 0.33382 0.0
Zn3 Zn 0.24978 0.10249 0.32156 0.0
O4 O 0.24772 0.06093 0.33296 0.0
Zn5 Zn 0.24989 0.04856 0.31846 0.0
O6 O 0.29154 0.02026 0.31761 0.0
O7 O 0.30249 0.07655 0.32119 0.0
O8 O 0.25525 0.08377 0.30677 0.0
O9 O 0.25382 0.13854 0.31226 0.0
O10 O 0.19679 0.07894 0.31954 0.0
O11 O 0.20765 0.02244 0.31627 0.0
C12 C 0.31381 0.04467 0.31953 0.0
C13 C 0.18534 0.04743 0.31757 0.0
C14 C 0.95188 0.8107 0.57214 0.0
C15 C 0.95072 0.68316 0.56816 0.0
O16 O 0.97703 0.78913 0.57027 0.0
Zn17 Zn 0.94877 0.74748 0.56992 0.0
O18 O 0.91974 0.7989 0.57307 0.0
Zn19 Zn 0.89428 0.74613 0.57238 0.0
O20 O 0.87465 0.74154 0.58438 0.0
O21 O 0.93367 0.74202 0.58417 0.0
O22 O 0.91881 0.6939 0.57002 0.0
O23 O 0.97553 0.70594 0.56733 0.0
O24 O 0.91578 0.75656 0.55796 0.0
O25 O 0.86008 0.75216 0.56272 0.0
C26 C 0.90418 0.74048 0.58866 0.0
C27 C 0.88203 0.75784 0.5563 0.0
C28 C 0.19161 0.45409 0.82161 0.0
C29 C 0.31926 0.45276 0.81738 0.0
O30 O 0.21288 0.47925 0.81955 0.0
Zn31 Zn 0.25488 0.45119 0.81928 0.0
O32 O 0.20373 0.42211 0.82268 0.0
Zn33 Zn 0.25657 0.3968 0.82206 0.0
O34 O 0.26154 0.37851 0.83422 0.0
O35 O 0.26053 0.43744 0.8336 0.0
O36 O 0.30851 0.42106 0.81941 0.0
O37 O 0.29651 0.47766 0.8165 0.0
O38 O 0.24572 0.41712 0.80755 0.0
O39 O 0.25061 0.36182 0.8126 0.0
C40 C 0.26234 0.40846 0.83829 0.0
C41 C 0.24469 0.38325 0.80607 0.0
C42 C 0.54267 0.68588 0.07295 0.0
C43 C 0.53771 0.81378 0.06933 0.0
O44 O 0.51629 0.70631 0.07133 0.0
Zn45 Zn 0.54243 0.74942 0.07093 0.0
O46 O 0.5743 0.69918 0.07369 0.0
Zn47 Zn 0.59719 0.75309 0.07303 0.0
O48 O 0.61761 0.75806 0.08497 0.0
O49 O 0.55871 0.7546 0.08507 0.0
O50 O 0.57024 0.80417 0.07086 0.0
O51 O 0.5136 0.79014 0.06873 0.0
O52 O 0.5746 0.74263 0.05873 0.0
O53 O 0.63058 0.74923 0.06312 0.0
C54 C 0.58845 0.75733 0.08941 0.0
C55 C 0.60818 0.74303 0.05683 0.0
C56 C 0.24224 0.41007 0.93619 0.0
C57 C 0.24894 0.38304 0.96854 0.0
O58 O 0.24156 0.3801 0.94025 0.0
Zn59 Zn 0.24318 0.39792 0.95249 0.0
O60 O 0.24311 0.43895 0.94092 0.0
Zn61 Zn 0.24418 0.45196 0.95535 0.0
O62 O 0.28603 0.47963 0.95623 0.0
O63 O 0.29644 0.42265 0.95323 0.0
O64 O 0.24824 0.41705 0.9672 0.0
O65 O 0.24596 0.36211 0.96179 0.0
O66 O 0.19053 0.4226 0.95431 0.0
O67 O 0.20245 0.47919 0.9572 0.0
C68 C 0.30805 0.45453 0.95471 0.0
C69 C 0.17969 0.45458 0.95603 0.0
C70 C 0.59339 0.73985 0.18737 0.0
C71 C 0.61755 0.75567 0.21968 0.0
O72 O 0.62317 0.73989 0.19154 0.0
Zn73 Zn 0.60433 0.74461 0.20363 0.0
O74 O 0.56421 0.74195 0.19196 0.0
Zn75 Zn 0.54993 0.74701 0.20626 0.0
O76 O 0.52238 0.78927 0.20604 0.0
O77 O 0.57973 0.79792 0.20306 0.0
O78 O 0.5837 0.75531 0.21811 0.0
O79 O 0.63908 0.74951 0.2132 0.0
O80 O 0.57916 0.69288 0.20602 0.0
O81 O 0.52268 0.70564 0.20884 0.0
C82 C 0.54784 0.81035 0.20409 0.0
C83 C 0.5472 0.68254 0.20792 0.0
C84 C 0.23206 0.11505 0.46804 0.0
C85 C 0.24928 0.08807 0.43591 0.0
O86 O 0.23462 0.13603 0.46128 0.0
Zn87 Zn 0.24298 0.10047 0.45209 0.0
O88 O 0.23601 0.08122 0.46682 0.0
Zn89 Zn 0.2454 0.04652 0.45518 0.0
O90 O 0.2888 0.02287 0.45789 0.0
O91 O 0.29683 0.08004 0.45485 0.0
O92 O 0.24946 0.0593 0.44072 0.0
O93 O 0.24649 0.11811 0.43987 0.0
O94 O 0.19195 0.07174 0.45182 0.0
O95 O 0.20507 0.01597 0.45551 0.0
C96 C 0.30979 0.0492 0.45697 0.0
C97 C 0.18197 0.03933 0.45333 0.0
C98 C 0.95791 0.81102 0.70669 0.0
C99 C 0.95802 0.68333 0.70319 0.0
O100 O 0.98268 0.78808 0.70743 0.0
Zn101 Zn 0.95542 0.74653 0.70518 0.0
O102 O 0.92577 0.80048 0.7051 0.0
Zn103 Zn 0.90069 0.74857 0.70306 0.0
O104 O 0.8674 0.74431 0.71302 0.0
O105 O 0.92355 0.73771 0.71731 0.0
O106 O 0.92578 0.69524 0.70241 0.0
O107 O 0.98339 0.70488 0.70484 0.0
O108 O 0.93912 0.75085 0.69102 0.0
O109 O 0.88014 0.75285 0.69109 0.0
C110 C 0.89002 0.73774 0.71924 0.0
C111 C 0.90933 0.75273 0.68667 0.0
C112 C 0.81938 0.54321 0.82253 0.0
C113 C 0.69179 0.54526 0.81829 0.0
O114 O 0.79764 0.51819 0.82069 0.0
Zn115 Zn 0.75622 0.54662 0.82026 0.0
O116 O 0.80774 0.57549 0.82339 0.0
Zn117 Zn 0.75474 0.60124 0.8226 0.0
O118 O 0.74966 0.62087 0.83463 0.0
O119 O 0.7509 0.56189 0.83445 0.0
O120 O 0.70272 0.57706 0.8201 0.0
O121 O 0.71438 0.52014 0.81763 0.0
O122 O 0.76618 0.57929 0.80832 0.0
O123 O 0.76007 0.63522 0.81281 0.0
C124 C 0.749 0.59135 0.83892 0.0
C125 C 0.76667 0.61294 0.80652 0.0
C126 C 0.40649 0.24639 0.08771 0.0
C127 C 0.37747 0.26399 0.05572 0.0
O128 O 0.37611 0.24885 0.08388 0.0
Zn129 Zn 0.39309 0.25289 0.07162 0.0
O130 O 0.43495 0.24669 0.08279 0.0
Zn131 Zn 0.44683 0.25111 0.06828 0.0
O132 O 0.47705 0.29155 0.06799 0.0
O133 O 0.42144 0.30406 0.07196 0.0
O134 O 0.41142 0.26029 0.05678 0.0
O135 O 0.35699 0.26118 0.06255 0.0
O136 O 0.41415 0.19931 0.06894 0.0
O137 O 0.47089 0.20815 0.06554 0.0
C138 C 0.45374 0.31429 0.07042 0.0
C139 C 0.44505 0.18678 0.06674 0.0
C140 C 0.68466 0.95142 0.32264 0.0
C141 C 0.81252 0.95293 0.3188 0.0
O142 O 0.70548 0.97715 0.32075 0.0
Zn143 Zn 0.74811 0.94999 0.32048 0.0
O144 O 0.69734 0.9196 0.32357 0.0
Zn145 Zn 0.75066 0.89543 0.32303 0.0
O146 O 0.75559 0.87651 0.33515 0.0
O147 O 0.75308 0.93542 0.33472 0.0
O148 O 0.80224 0.92084 0.32058 0.0
O149 O 0.78939 0.97754 0.31804 0.0
O150 O 0.74068 0.91649 0.30854 0.0
O151 O 0.74552 0.86093 0.31344 0.0
C152 C 0.75533 0.90626 0.33932 0.0
C153 C 0.74007 0.88268 0.30695 0.0
C154 C 0.0913 0.249 0.58846 0.0
C155 C 0.11395 0.23726 0.55596 0.0
O156 O 0.12086 0.24842 0.5842 0.0
Zn157 Zn 0.10145 0.24596 0.57213 0.0
O158 O 0.06187 0.24857 0.58392 0.0
Zn159 Zn 0.04706 0.24624 0.56959 0.0
O160 O 0.01799 0.20521 0.56931 0.0
O161 O 0.07484 0.19365 0.57226 0.0
O162 O 0.08018 0.23928 0.55756 0.0
O163 O 0.13583 0.2406 0.56251 0.0
O164 O 0.07812 0.29913 0.57017 0.0
O165 O 0.02101 0.28862 0.56756 0.0
C166 C 0.04249 0.18276 0.57107 0.0
C167 C 0.04632 0.31075 0.56852 0.0
C168 C 0.7548 0.8857 0.46935 0.0
C169 C 0.73433 0.90792 0.43712 0.0
O170 O 0.74696 0.86397 0.46303 0.0
Zn171 Zn 0.74188 0.89805 0.45336 0.0
O172 O 0.75546 0.91943 0.46761 0.0
Zn173 Zn 0.74686 0.95262 0.45562 0.0
O174 O 0.70683 0.9819 0.45842 0.0
O175 O 0.6917 0.92564 0.45615 0.0
O176 O 0.7383 0.93732 0.44153 0.0
O177 O 0.73437 0.87846 0.44143 0.0
O178 O 0.796 0.91984 0.45217 0.0
O179 O 0.7906 0.97794 0.45463 0.0
C180 C 0.68276 0.95814 0.45792 0.0
C181 C 0.81009 0.95114 0.45275 0.0
C182 C 0.05095 0.18357 0.70729 0.0
C183 C 0.04698 0.31089 0.70295 0.0
O184 O 0.02557 0.20582 0.70807 0.0
Zn185 Zn 0.05139 0.24776 0.70535 0.0
O186 O 0.08256 0.19491 0.70536 0.0
Zn187 Zn 0.10588 0.24744 0.70277 0.0
O188 O 0.14026 0.25438 0.71235 0.0
O189 O 0.08462 0.25722 0.71724 0.0
O190 O 0.0793 0.29959 0.70197 0.0
O191 O 0.02234 0.28899 0.70498 0.0
O192 O 0.06609 0.242 0.69109 0.0
O193 O 0.12508 0.24261 0.69072 0.0
C194 C 0.11838 0.25924 0.71883 0.0
C195 C 0.09541 0.24077 0.68653 0.0
C196 C 0.68033 0.54676 0.95438 0.0
C197 C 0.808 0.55214 0.95779 0.0
O198 O 0.70294 0.52269 0.95637 0.0
Zn199 Zn 0.74368 0.55218 0.95623 0.0
O200 O 0.69099 0.5791 0.95305 0.0
Zn201 Zn 0.74311 0.60619 0.9533 0.0
O202 O 0.74661 0.62444 0.94114 0.0
O203 O 0.74823 0.56553 0.94181 0.0
O204 O 0.79632 0.58351 0.9557 0.0
O205 O 0.78593 0.52687 0.95891 0.0
O206 O 0.73474 0.58645 0.96795 0.0
O207 O 0.73674 0.64153 0.96264 0.0
C208 C 0.74873 0.59454 0.93709 0.0
C209 C 0.73251 0.62035 0.9693 0.0
C210 C 0.4573 0.18248 0.20302 0.0
C211 C 0.45293 0.31039 0.20623 0.0
O212 O 0.48173 0.20482 0.20489 0.0
Zn213 Zn 0.4526 0.24592 0.20473 0.0
O214 O 0.42498 0.19351 0.2018 0.0
Zn215 Zn 0.39833 0.24594 0.20199 0.0
O216 O 0.37977 0.24922 0.18983 0.0
O217 O 0.43872 0.24973 0.19037 0.0
O218 O 0.42137 0.29884 0.20432 0.0
O219 O 0.4783 0.28823 0.20717 0.0
O220 O 0.41869 0.23767 0.21658 0.0
O221 O 0.36333 0.24049 0.21147 0.0
C222 C 0.40961 0.25039 0.18571 0.0
C223 C 0.38482 0.23611 0.21807 0.0
H224 H 0.87016 0.90723 0.31812 0.0
H225 H 0.93364 0.92358 0.31736 0.0
H226 H 0.90478 0.03553 0.31733 0.0
H227 H 0.84169 0.01951 0.31778 0.0
H228 H 0.95599 0.02529 0.3057 0.0
H229 H 0.93521 0.99173 0.33679 0.0
H230 H 0.91576 0.95229 0.34931 0.0
H231 H 0.9928 0.8731 0.34118 0.0
H232 H 0.01238 0.9119 0.32852 0.0
H233 H 0.1284 0.09396 0.31896 0.0
H234 H 0.06443 0.07864 0.31872 0.0
H235 H 0.0913 0.96723 0.31509 0.0
H236 H 0.15471 0.98206 0.31529 0.0
H237 H 0.04139 0.97802 0.32864 0.0
H238 H 0.06194 0.01376 0.29749 0.0
H239 H 0.08131 0.05511 0.28536 0.0
H240 H 0.00432 0.13296 0.29431 0.0
H241 H 0.98482 0.09224 0.30658 0.0
C242 C 0.8774 0.93529 0.3179 0.0
C243 C 0.85091 0.96204 0.31804 0.0
C244 C 0.91366 0.94462 0.31752 0.0
C245 C 0.92398 0.98083 0.31742 0.0
C246 C 0.8975 0.00745 0.31739 0.0
C247 C 0.86139 0.99819 0.31767 0.0
C248 C 0.96229 0.99126 0.31747 0.0
C249 C 0.97455 0.01525 0.31079 0.0
C250 C 0.98664 0.97789 0.32403 0.0
C251 C 0.975 0.95456 0.33165 0.0
C252 C 0.94781 0.96579 0.33763 0.0
C253 C 0.93679 0.94357 0.34476 0.0
C254 C 0.95296 0.91017 0.34602 0.0
C255 C 0.98026 0.89896 0.34018 0.0
C256 C 0.99134 0.92106 0.33303 0.0
C257 C 0.12061 0.06626 0.31807 0.0
C258 C 0.14663 0.03927 0.31714 0.0
C259 C 0.08414 0.05757 0.31792 0.0
C260 C 0.07327 0.0218 0.31687 0.0
C261 C 0.09918 0.99495 0.31593 0.0
C262 C 0.13544 0.00357 0.31601 0.0
C263 C 0.03493 0.0119 0.31689 0.0
C264 C 0.02273 0.98804 0.32358 0.0
C265 C 0.01059 0.02568 0.3104 0.0
C266 C 0.0222 0.05011 0.30301 0.0
C267 C 0.04935 0.03982 0.29692 0.0
C268 C 0.06031 0.06312 0.29001 0.0
C269 C 0.04413 0.09668 0.28909 0.0
C270 C 0.01687 0.10698 0.29505 0.0
C271 C 0.00584 0.08379 0.30198 0.0
H272 H 0.05265 0.11468 0.28373 0.0
H273 H 0.9444 0.89301 0.35155 0.0
H274 H 0.90574 0.62537 0.57003 0.0
H275 H 0.92244 0.56186 0.5697 0.0
H276 H 0.03247 0.59092 0.56461 0.0
H277 H 0.01603 0.65389 0.56471 0.0
H278 H 0.01499 0.53639 0.55439 0.0
H279 H 0.00319 0.56681 0.58595 0.0
H280 H 0.97312 0.5895 0.59973 0.0
H281 H 0.8914 0.50946 0.59693 0.0
H282 H 0.92068 0.48663 0.58305 0.0
H283 H 0.09337 0.36735 0.5676 0.0
H284 H 0.07809 0.43141 0.56717 0.0
H285 H 0.96574 0.40503 0.56828 0.0
H286 H 0.98049 0.3416 0.56864 0.0
H287 H 0.986 0.45813 0.58066 0.0
H288 H -0.00099 0.42875 0.54882 0.0
H289 H 0.03127 0.40573 0.53541 0.0
H290 H 0.11377 0.48425 0.53931 0.0
H291 H 0.08222 0.50742 0.55283 0.0
C292 C 0.9334 0.61815 0.56877 0.0
C293 C 0.95955 0.64468 0.56744 0.0
C294 C 0.94295 0.58191 0.56863 0.0
C295 C 0.97882 0.57171 0.56725 0.0
C296 C 0.00468 0.59815 0.56569 0.0
C297 C 0.99518 0.63421 0.56578 0.0
C298 C 0.98982 0.5336 0.56758 0.0
C299 C 0.00898 0.51941 0.56019 0.0
C300 C 0.98174 0.51135 0.5751 0.0
C301 C 0.96393 0.52525 0.5834 0.0
C302 C 0.97863 0.55426 0.58822 0.0
C303 C 0.96176 0.5671 0.59606 0.0
C304 C 0.93034 0.55096 0.59919 0.0
C305 C 0.91572 0.52195 0.59449 0.0
C306 C 0.93244 0.50905 0.58664 0.0
C307 C 0.06546 0.37529 0.56773 0.0
C308 C 0.03817 0.34944 0.56812 0.0
C309 C 0.05679 0.41178 0.56747 0.0
C310 C 0.02078 0.42277 0.56769 0.0
C311 C 0.99365 0.39703 0.56813 0.0
C312 C 0.00221 0.36077 0.56829 0.0
C313 C 0.01093 0.46108 0.56748 0.0
C314 C 0.99202 0.47525 0.57489 0.0
C315 C 0.01954 0.48338 0.56003 0.0
C316 C 0.03847 0.46953 0.55189 0.0
C317 C 0.0242 0.44089 0.54687 0.0
C318 C 0.04232 0.42786 0.53923 0.0
C319 C 0.07461 0.44345 0.53652 0.0
C320 C 0.08879 0.47216 0.54142 0.0
C321 C 0.07079 0.48526 0.54907 0.0
H322 H 0.08859 0.43333 0.53061 0.0
H323 H 0.91737 0.56083 0.60526 0.0
H324 H 0.66134 0.47962 0.81625 0.0
H325 H 0.59804 0.46509 0.81524 0.0
H326 H 0.57127 0.57733 0.81689 0.0
H327 H 0.63506 0.59219 0.81816 0.0
H328 H 0.52986 0.53916 0.82784 0.0
H329 H 0.56464 0.53062 0.79667 0.0
H330 H 0.60131 0.51107 0.78364 0.0
H331 H 0.57517 0.40137 0.78932 0.0
H332 H 0.53872 0.42021 0.80247 0.0
H333 H 0.3492 0.51845 0.81496 0.0
H334 H 0.41255 0.53361 0.81443 0.0
H335 H 0.44029 0.42202 0.81724 0.0
H336 H 0.37645 0.40637 0.81784 0.0
H337 H 0.48048 0.46054 0.8037 0.0
H338 H 0.44651 0.47042 0.83516 0.0
H339 H 0.4091 0.49119 0.84793 0.0
H340 H 0.4332 0.60046 0.84121 0.0
H341 H 0.47034 0.58035 0.8283 0.0
C342 C 0.6421 0.50136 0.81634 0.0
C343 C 0.65326 0.53713 0.81727 0.0
C344 C 0.60586 0.49295 0.81571 0.0
C345 C 0.57994 0.52014 0.81584 0.0
C346 C 0.59089 0.55595 0.81674 0.0
C347 C 0.6273 0.56441 0.81744 0.0
C348 C 0.54142 0.51078 0.81542 0.0
C349 C 0.51896 0.5225 0.82247 0.0
C350 C 0.52739 0.48827 0.80854 0.0
C351 C 0.54918 0.47683 0.80061 0.0
C352 C 0.56692 0.5023 0.79519 0.0
C353 C 0.58763 0.49135 0.78777 0.0
C354 C 0.59063 0.455 0.78567 0.0
C355 C 0.57284 0.42952 0.79097 0.0
C356 C 0.55212 0.44032 0.79839 0.0
C357 C 0.36865 0.49698 0.81542 0.0
C358 C 0.35777 0.46116 0.8165 0.0
C359 C 0.40486 0.50577 0.81513 0.0
C360 C 0.43095 0.47898 0.81589 0.0
C361 C 0.42039 0.44304 0.81667 0.0
C362 C 0.384 0.43418 0.81703 0.0
C363 C 0.46922 0.48892 0.8161 0.0
C364 C 0.49151 0.4773 0.80903 0.0
C365 C 0.48307 0.51172 0.82292 0.0
C366 C 0.46092 0.52388 0.83071 0.0
C367 C 0.44359 0.49889 0.83636 0.0
C368 C 0.42248 0.51054 0.84363 0.0
C369 C 0.4187 0.54712 0.84537 0.0
C370 C 0.43611 0.57213 0.83985 0.0
C371 C 0.45722 0.56062 0.83256 0.0
H372 H 0.40235 0.55609 0.851 0.0
H373 H 0.60668 0.44657 0.77993 0.0
H374 H 0.39643 0.13164 0.06796 0.0
H375 H 0.40944 0.06724 0.06766 0.0
H376 H 0.52189 0.09007 0.06412 0.0
H377 H 0.50911 0.1538 0.06411 0.0
H378 H 0.50439 0.03733 0.05365 0.0
H379 H 0.48448 0.06723 0.08515 0.0
H380 H 0.45033 0.09088 0.09819 0.0
H381 H 0.36708 0.014 0.09334 0.0
H382 H 0.40052 0.99021 0.08018 0.0
H383 H 0.58201 0.87239 0.06855 0.0
H384 H 0.56407 0.93549 0.06752 0.0
H385 H 0.45287 0.9043 0.06747 0.0
H386 H 0.47035 0.84155 0.06848 0.0
H387 H 0.46698 0.95987 0.07938 0.0
H388 H 0.49012 0.92861 0.04813 0.0
H389 H 0.5264 0.90499 0.03547 0.0
H390 H 0.60651 0.98505 0.04042 0.0
H391 H 0.57092 0.00884 0.0532 0.0
C392 C 0.42384 0.12284 0.06704 0.0
C393 C 0.4517 0.14784 0.06609 0.0
C394 C 0.43128 0.08608 0.06692 0.0
C395 C 0.46674 0.07384 0.06599 0.0
C396 C 0.49435 0.09882 0.06484 0.0
C397 C 0.48693 0.13534 0.06486 0.0
C398 C 0.47567 0.03516 0.06636 0.0
C399 C 0.49645 0.02051 0.05932 0.0
C400 C 0.46487 0.01302 0.07369 0.0
C401 C 0.44481 0.02721 0.08162 0.0
C402 C 0.45876 0.05555 0.08682 0.0
C403 C 0.43956 0.06895 0.09424 0.0
C404 C 0.4065 0.05402 0.09657 0.0
C405 C 0.39265 0.02558 0.09151 0.0
C406 C 0.41172 0.01212 0.08407 0.0
C407 C 0.55377 0.879 0.0683 0.0
C408 C 0.52764 0.85197 0.06856 0.0
C409 C 0.54357 0.915 0.0677 0.0
C410 C 0.50714 0.92443 0.06738 0.0
C411 C 0.48109 0.89754 0.06771 0.0
C412 C 0.49121 0.86167 0.06825 0.0
C413 C 0.49598 0.96236 0.06673 0.0
C414 C 0.47476 0.97677 0.0737 0.0
C415 C 0.5067 0.9844 0.0594 0.0
C416 C 0.52801 0.97028 0.05168 0.0
C417 C 0.5156 0.941 0.04657 0.0
C418 C 0.53602 0.92761 0.03936 0.0
C419 C 0.56879 0.94345 0.03716 0.0
C420 C 0.58115 0.97278 0.04214 0.0
C421 C 0.56085 0.98625 0.04936 0.0
H422 H 0.58456 0.93304 0.03158 0.0
H423 H 0.39166 0.06441 0.10232 0.0
H424 H 0.15039 0.52109 0.95594 0.0
H425 H 0.08747 0.53735 0.95662 0.0
H426 H 0.05849 0.42563 0.95791 0.0
H427 H 0.12204 0.40892 0.95695 0.0
H428 H 0.01576 0.46072 0.94656 0.0
H429 H 0.05621 0.47985 0.97702 0.0
H430 H 0.0956 0.50325 0.98909 0.0
H431 H 0.07069 0.61097 0.981 0.0
H432 H 0.0315 0.58821 0.96879 0.0
H433 H 0.8389 0.48773 0.96137 0.0
H434 H 0.90225 0.47268 0.96131 0.0
H435 H 0.92876 0.58276 0.95558 0.0
H436 H 0.86476 0.59835 0.95558 0.0
H437 H 0.97223 0.54881 0.96929 0.0
H438 H 0.93128 0.52804 0.93875 0.0
H439 H 0.89095 0.50328 0.92706 0.0
H440 H 0.91608 0.39654 0.93591 0.0
H441 H 0.95615 0.4207 0.94775 0.0
C442 C 0.13074 0.49985 0.9564 0.0
C443 C 0.14121 0.46365 0.95647 0.0
C444 C 0.09472 0.50927 0.95683 0.0
C445 C 0.06831 0.48277 0.95751 0.0
C446 C 0.07852 0.44652 0.95745 0.0
C447 C 0.11475 0.437 0.95691 0.0
C448 C 0.03009 0.49325 0.95809 0.0
C449 C 0.00616 0.47953 0.95163 0.0
C450 C 0.01774 0.5185 0.96457 0.0
C451 C 0.04115 0.5323 0.97194 0.0
C452 C 0.05932 0.50852 0.97777 0.0
C453 C 0.08159 0.52168 0.98464 0.0
C454 C 0.08571 0.55858 0.9858 0.0
C455 C 0.06749 0.5824 0.98009 0.0
C456 C 0.04522 0.56938 0.9732 0.0
C457 C 0.85805 0.50894 0.96015 0.0
C458 C 0.84674 0.54427 0.95842 0.0
C459 C 0.89428 0.50019 0.96009 0.0
C460 C 0.92001 0.5265 0.95832 0.0
C461 C 0.90912 0.56209 0.95692 0.0
C462 C 0.87264 0.57092 0.95691 0.0
C463 C 0.95816 0.51627 0.95777 0.0
C464 C 0.98198 0.53001 0.96424 0.0
C465 C 0.97036 0.49082 0.95136 0.0
C466 C 0.94647 0.47621 0.94419 0.0
C467 C 0.92798 0.4993 0.93825 0.0
C468 C 0.90521 0.48537 0.93159 0.0
C469 C 0.90089 0.44836 0.93076 0.0
C470 C 0.91942 0.4252 0.93657 0.0
C471 C 0.94219 0.439 0.94325 0.0
H472 H 0.88324 0.43762 0.92559 0.0
H473 H 0.10296 0.56871 0.99112 0.0
H474 H 0.51818 0.34157 0.20822 0.0
H475 H 0.5321 0.4049 0.20923 0.0
H476 H 0.41965 0.43071 0.20731 0.0
H477 H 0.40537 0.36674 0.20605 0.0
H478 H 0.45825 0.47321 0.19659 0.0
H479 H 0.46508 0.43713 0.22768 0.0
H480 H 0.48378 0.39992 0.24072 0.0
H481 H 0.5939 0.42607 0.23557 0.0
H482 H 0.57591 0.46306 0.22242 0.0
H483 H 0.48078 0.6536 0.20983 0.0
H484 H 0.46448 0.59051 0.21009 0.0
H485 H 0.57582 0.56101 0.20781 0.0
H486 H 0.59262 0.62457 0.20749 0.0
H487 H 0.53602 0.5213 0.2211 0.0
H488 H 0.52799 0.55613 0.18963 0.0
H489 H 0.50816 0.594 0.17683 0.0
H490 H 0.39832 0.57077 0.18314 0.0
H491 H 0.41749 0.53317 0.19608 0.0
C492 C 0.49624 0.36058 0.20806 0.0
C493 C 0.46057 0.34907 0.20709 0.0
C494 C 0.50431 0.39686 0.20869 0.0
C495 C 0.4769 0.42253 0.20852 0.0
C496 C 0.4412 0.41127 0.20751 0.0
C497 C 0.43307 0.37478 0.20681 0.0
C498 C 0.48601 0.46108 0.20908 0.0
C499 C 0.4747 0.48384 0.20204 0.0
C500 C 0.5082 0.47477 0.21608 0.0
C501 C 0.51914 0.45265 0.22402 0.0
C502 C 0.4933 0.43475 0.22929 0.0
C503 C 0.50378 0.41373 0.23671 0.0
C504 C 0.54001 0.41057 0.23896 0.0
C505 C 0.56584 0.42851 0.23381 0.0
C506 C 0.55552 0.44955 0.22638 0.0
C507 C 0.50195 0.63381 0.20943 0.0
C508 C 0.53806 0.64412 0.2086 0.0
C509 C 0.4925 0.59775 0.20956 0.0
C510 C 0.51891 0.57125 0.20888 0.0
C511 C 0.55509 0.58124 0.20832 0.0
C512 C 0.56461 0.61747 0.20811 0.0
C513 C 0.50839 0.53314 0.2086 0.0
C514 C 0.51943 0.51056 0.21569 0.0
C515 C 0.48576 0.51968 0.20169 0.0
C516 C 0.47417 0.54213 0.19388 0.0
C517 C 0.4996 0.55935 0.18834 0.0
C518 C 0.48848 0.58072 0.18105 0.0
C519 C 0.452 0.58486 0.17918 0.0
C520 C 0.42657 0.56757 0.1846 0.0
C521 C 0.43754 0.5462 0.19191 0.0
H522 H 0.44345 0.60142 0.17354 0.0
H523 H 0.54806 0.39428 0.2447 0.0
H524 H 0.3436 0.98644 0.46079 0.0
H525 H 0.40749 0.97527 0.46198 0.0
H526 H 0.42889 0.08704 0.45693 0.0
H527 H 0.36431 0.09848 0.45551 0.0
H528 H 0.47186 0.04549 0.44698 0.0
H529 H 0.43987 0.05101 0.47825 0.0
H530 H 0.40489 0.03754 0.49206 0.0
H531 H 0.4331 0.92639 0.48989 0.0
H532 H 0.46786 0.93909 0.47599 0.0
H533 H 0.65554 0.02579 0.45868 0.0
H534 H 0.59278 0.04375 0.45937 0.0
H535 H 0.56085 0.93286 0.46005 0.0
H536 H 0.62391 0.91443 0.45927 0.0
H537 H 0.52471 0.97837 0.4729 0.0
H538 H 0.5537 0.97385 0.44095 0.0
H539 H 0.58924 0.98861 0.42732 0.0
H540 H 0.5672 0.10041 0.43122 0.0
H541 H 0.53197 0.08635 0.44497 0.0
C542 C 0.36174 0.00884 0.45999 0.0
C543 C 0.34879 0.04344 0.45808 0.0
C544 C 0.39836 0.00237 0.46072 0.0
C545 C 0.42299 0.03039 0.45969 0.0
C546 C 0.41029 0.06506 0.4578 0.0
C547 C 0.37343 0.07158 0.45701 0.0
C548 C 0.46194 0.02271 0.46022 0.0
C549 C 0.48354 0.03147 0.45274 0.0
C550 C 0.47706 0.00376 0.46765 0.0
C551 C 0.45627 0.99598 0.47603 0.0
C552 C 0.43841 0.02365 0.48068 0.0
C553 C 0.41865 0.01616 0.48853 0.0
C554 C 0.41672 0.98112 0.49184 0.0
C555 C 0.43461 0.95351 0.48731 0.0
C556 C 0.45439 0.96085 0.47945 0.0
C557 C 0.63527 0.00511 0.45903 0.0
C558 C 0.64472 0.96862 0.45889 0.0
C559 C 0.59941 0.01549 0.4594 0.0
C560 C 0.57229 0.98963 0.45969 0.0
C561 C 0.58152 0.95318 0.45982 0.0
C562 C 0.61749 0.94272 0.45935 0.0
C563 C 0.53426 0.00079 0.45964 0.0
C564 C 0.51295 0.99269 0.46721 0.0
C565 C 0.51948 0.02059 0.45233 0.0
C566 C 0.54054 0.02908 0.44404 0.0
C567 C 0.55671 0.00161 0.43895 0.0
C568 C 0.57675 0.00984 0.43119 0.0
C569 C 0.58057 0.04544 0.42842 0.0
C570 C 0.56427 0.07286 0.43339 0.0
C571 C 0.54425 0.06477 0.44116 0.0
H572 H 0.59608 0.05176 0.42241 0.0
H573 H 0.40141 0.97538 0.49791 0.0
H574 H 0.09776 0.12691 0.70607 0.0
H575 H 0.08286 0.06302 0.70662 0.0
H576 H 0.97146 0.0895 0.71069 0.0
H577 H 0.9861 0.15286 0.71039 0.0
H578 H 0.98908 0.03605 0.72128 0.0
H579 H 0.00431 0.06515 0.68966 0.0
H580 H 0.03603 0.08809 0.67614 0.0
H581 H 0.11941 0.01029 0.6801 0.0
H582 H 0.08841 0.9872 0.69371 0.0
H583 H 0.91198 0.86849 0.70748 0.0
H584 H 0.9283 0.93212 0.70816 0.0
H585 H 0.04027 0.90355 0.70786 0.0
H586 H 0.02444 0.84039 0.70723 0.0
H587 H 0.02268 0.95743 0.69547 0.0
H588 H 0.0047 0.92801 0.72713 0.0
H589 H 0.97038 0.90494 0.74021 0.0
H590 H 0.88871 0.98393 0.73555 0.0
H591 H 0.92232 0.00716 0.72235 0.0
C592 C 0.07017 0.11905 0.70715 0.0
C593 C 0.04312 0.14494 0.70814 0.0
C594 C 0.06166 0.08259 0.70743 0.0
C595 C 0.02595 0.07155 0.70858 0.0
C596 C -0.00084 0.09739 0.7098 0.0
C597 C 0.00763 0.13366 0.70959 0.0
C598 C 0.01603 0.03318 0.70832 0.0
C599 C 0.99614 0.01897 0.71559 0.0
C600 C 0.02553 0.01081 0.70094 0.0
C601 C 0.04424 0.0247 0.69276 0.0
C602 C 0.02956 0.05313 0.68769 0.0
C603 C 0.04737 0.06612 0.68 0.0
C604 C 0.07976 0.05071 0.67728 0.0
C605 C 0.09435 0.02224 0.68222 0.0
C606 C 0.07666 0.00917 0.68992 0.0
C607 C 0.94004 0.87582 0.70759 0.0
C608 C 0.96689 0.84943 0.70732 0.0
C609 C 0.9493 0.91208 0.70799 0.0
C610 C 0.98549 0.92236 0.70808 0.0
C611 C 0.01223 0.89609 0.70778 0.0
C612 C 0.00306 0.86 0.70746 0.0
C613 C 0.9958 0.9605 0.7084 0.0
C614 C 0.01572 0.9746 0.70115 0.0
C615 C 0.98596 0.98287 0.71573 0.0
C616 C 0.96584 0.96908 0.7237 0.0
C617 C 0.97928 0.94027 0.72885 0.0
C618 C 0.95998 0.9272 0.73629 0.0
C619 C 0.92734 0.94289 0.73869 0.0
C620 C 0.91398 0.97177 0.73367 0.0
C621 C 0.93315 0.98491 0.72621 0.0
H622 H 0.91244 0.93273 0.74446 0.0
H623 H 0.09352 0.06076 0.67132 0.0
H624 H 0.65296 0.01493 0.32662 0.0
H625 H 0.58891 0.02795 0.32733 0.0
H626 H 0.56519 0.91724 0.32159 0.0
H627 H 0.62953 0.90378 0.321 0.0
H628 H 0.53197 0.96884 0.30984 0.0
H629 H 0.5466 0.94404 0.3415 0.0
H630 H 0.57478 0.94909 0.35661 0.0
H631 H 0.54922 0.06118 0.35737 0.0
H632 H 0.52141 0.05695 0.34218 0.0
H633 H 0.34513 0.98111 0.31525 0.0
H634 H 0.40814 0.96511 0.31631 0.0
H635 H 0.43316 0.07161 0.32568 0.0
H636 H 0.36957 0.08793 0.32474 0.0
H637 H 0.46566 0.0205 0.33598 0.0
H638 H 0.45841 0.04798 0.30408 0.0
H639 H 0.43607 0.04606 0.2883 0.0
H640 H 0.4496 0.93191 0.28783 0.0
H641 H 0.47267 0.93324 0.30357 0.0
C642 C 0.63412 0.99327 0.32559 0.0
C643 C 0.6461 0.95839 0.32369 0.0
C644 C 0.59761 0.00071 0.32606 0.0
C645 C 0.57255 0.9735 0.32455 0.0
C646 C 0.58433 0.93849 0.32282 0.0
C647 C 0.62095 0.93087 0.32249 0.0
C648 C 0.53418 0.98252 0.32405 0.0
C649 C 0.51718 0.97945 0.3156 0.0
C650 C 0.51562 0.99758 0.3315 0.0
C651 C 0.5322 0.00024 0.34065 0.0
C652 C 0.54728 0.96985 0.34484 0.0
C653 C 0.56313 0.97255 0.35343 0.0
C654 C 0.56386 0.00546 0.35794 0.0
C655 C 0.54866 0.03572 0.35387 0.0
C656 C 0.53282 0.03317 0.34527 0.0
C657 C 0.36395 0.00129 0.3175 0.0
C658 C 0.35234 0.03584 0.31991 0.0
C659 C 0.40002 0.9921 0.31805 0.0
C660 C 0.42531 0.01728 0.32097 0.0
C661 C 0.41396 0.05184 0.32339 0.0
C662 C 0.37772 0.06114 0.32282 0.0
C663 C 0.46339 0.00684 0.32175 0.0
C664 C 0.48036 0.00968 0.33024 0.0
C665 C 0.48216 0.99182 0.31432 0.0
C666 C 0.46685 0.99067 0.30502 0.0
C667 C 0.45623 0.02244 0.30064 0.0
C668 C 0.44357 0.02147 0.2917 0.0
C669 C 0.4411 0.98886 0.28709 0.0
C670 C 0.45144 0.95714 0.29141 0.0
C671 C 0.46448 0.958 0.30033 0.0
H672 H 0.43139 0.98819 0.28016 0.0
H673 H 0.57614 0.00749 0.36459 0.0
H674 H 0.90445 0.86649 0.57343 0.0
H675 H 0.91884 0.93044 0.57421 0.0
H676 H 0.03165 0.90527 0.57378 0.0
H677 H 0.01768 0.84164 0.57305 0.0
H678 H 0.01498 0.95763 0.58629 0.0
H679 H 0.99221 0.93006 0.55473 0.0
H680 H 0.95649 0.90686 0.54191 0.0
H681 H 0.87304 0.98254 0.54783 0.0
H682 H 0.90807 0.00585 0.56077 0.0
H683 H 0.08812 0.12559 0.57287 0.0
H684 H 0.07179 0.06219 0.57386 0.0
H685 H 0.95988 0.09054 0.57213 0.0
H686 H 0.97585 0.15351 0.57095 0.0
H687 H 0.97465 0.03665 0.56111 0.0
H688 H 0.99788 0.066 0.59234 0.0
H689 H 0.03321 0.08922 0.60522 0.0
H690 H 0.11492 0.01075 0.60014 0.0
H691 H 0.0803 0.98736 0.58715 0.0
C692 C 0.93229 0.87461 0.57357 0.0
C693 C 0.95993 0.84911 0.5731 0.0
C694 C 0.94044 0.91107 0.574 0.0
C695 C 0.97629 0.9224 0.57397 0.0
C696 C 0.00385 0.89696 0.5738 0.0
C697 C 0.99576 0.86064 0.57333 0.0
C698 C 0.98533 0.9608 0.57374 0.0
C699 C 0.00644 0.97493 0.58076 0.0
C700 C 0.97358 0.98327 0.56659 0.0
C701 C 0.95258 0.96942 0.55878 0.0
C702 C 0.96611 0.94155 0.55334 0.0
C703 C 0.94602 0.92842 0.54605 0.0
C704 C 0.91247 0.94314 0.54407 0.0
C705 C 0.899 0.97111 0.54938 0.0
C706 C 0.91897 0.98431 0.55669 0.0
C707 C 0.06006 0.11826 0.57272 0.0
C708 C 0.0333 0.1445 0.57182 0.0
C709 C 0.05077 0.08211 0.57333 0.0
C710 C 0.0146 0.07179 0.57315 0.0
C711 C 0.98793 0.09797 0.57227 0.0
C712 C 0.99716 0.13396 0.5716 0.0
C713 C 0.00433 0.03367 0.57368 0.0
C714 C 0.98304 0.01951 0.56669 0.0
C715 C 0.01584 0.01124 0.58088 0.0
C716 C 0.03665 0.02516 0.58871 0.0
C717 C 0.02352 0.05387 0.59392 0.0
C718 C 0.04339 0.06704 0.60125 0.0
C719 C 0.07633 0.05153 0.60348 0.0
C720 C 0.08942 0.02276 0.5984 0.0
C721 C 0.06967 0.00952 0.59106 0.0
H722 H 0.09168 0.06176 0.60916 0.0
H723 H 0.89696 0.93294 0.53842 0.0
H724 H 0.16071 0.51949 0.82373 0.0
H725 H 0.09708 0.5332 0.82515 0.0
H726 H 0.07197 0.42068 0.82351 0.0
H727 H 0.13593 0.40656 0.82212 0.0
H728 H 0.03223 0.46446 0.8116 0.0
H729 H 0.06353 0.45907 0.84313 0.0
H730 H 0.09912 0.47334 0.85677 0.0
H731 H 0.07202 0.58458 0.85395 0.0
H732 H 0.03669 0.57105 0.84019 0.0
H733 H 0.85011 0.47721 0.82227 0.0
H734 H 0.91347 0.4625 0.82315 0.0
H735 H 0.93934 0.57451 0.82589 0.0
H736 H 0.87541 0.58969 0.8251 0.0
H737 H 0.97879 0.53061 0.83754 0.0
H738 H 0.94911 0.53658 0.80587 0.0
H739 H 0.91422 0.52292 0.79206 0.0
H740 H 0.93929 0.41125 0.79498 0.0
H741 H 0.97389 0.42418 0.8089 0.0
C742 C 0.14171 0.4976 0.82371 0.0
C743 C 0.15323 0.46194 0.82279 0.0
C744 C 0.10542 0.5055 0.82458 0.0
C745 C 0.08004 0.47792 0.8245 0.0
C746 C 0.09135 0.44225 0.82361 0.0
C747 C 0.12778 0.43426 0.82284 0.0
C748 C 0.04158 0.48673 0.82489 0.0
C749 C 0.02034 0.47835 0.81733 0.0
C750 C 0.02663 0.50586 0.83227 0.0
C751 C 0.04772 0.51408 0.84057 0.0
C752 C 0.0654 0.48662 0.84536 0.0
C753 C 0.08549 0.49457 0.85313 0.0
C754 C 0.0879 0.52985 0.85621 0.0
C755 C 0.07016 0.55726 0.85155 0.0
C756 C 0.05006 0.54946 0.84377 0.0
C757 C 0.86915 0.49884 0.82309 0.0
C758 C 0.85778 0.53471 0.82352 0.0
C759 C 0.90537 0.49031 0.82358 0.0
C760 C 0.93098 0.51746 0.82444 0.0
C761 C 0.91983 0.55324 0.82519 0.0
C762 C 0.8834 0.56185 0.82471 0.0
C763 C 0.96941 0.5082 0.82426 0.0
C764 C 0.99066 0.51659 0.83183 0.0
C765 C 0.98448 0.48917 0.81687 0.0
C766 C 0.9638 0.48132 0.80848 0.0
C767 C 0.94694 0.50907 0.80361 0.0
C768 C 0.92725 0.50147 0.79576 0.0
C769 C 0.92446 0.46622 0.79266 0.0
C770 C 0.94143 0.43853 0.7974 0.0
C771 C 0.9611 0.44598 0.80527 0.0
H772 H 0.90922 0.46039 0.78657 0.0
H773 H 0.10346 0.53595 0.86223 0.0
H774 H 0.4788 0.65209 0.07511 0.0
H775 H 0.46784 0.58791 0.07605 0.0
H776 H 0.58129 0.56749 0.07393 0.0
H777 H 0.59265 0.6321 0.07298 0.0
H778 H 0.53955 0.52758 0.06187 0.0
H779 H 0.54267 0.55394 0.09365 0.0
H780 H 0.52701 0.58679 0.10763 0.0
H781 H 0.41657 0.55762 0.10428 0.0
H782 H 0.43148 0.52503 0.0902 0.0
H783 H 0.52098 0.34218 0.06948 0.0
H784 H 0.53865 0.40461 0.07104 0.0
H785 H 0.42827 0.43466 0.07528 0.0
H786 H 0.41029 0.37183 0.0739 0.0
H787 H 0.47253 0.46897 0.08694 0.0
H788 H 0.46759 0.44722 0.05478 0.0
H789 H 0.48155 0.41565 0.04049 0.0
H790 H 0.59349 0.43756 0.04423 0.0
H791 H 0.58023 0.46884 0.05862 0.0
C792 C 0.50151 0.63402 0.07489 0.0
C793 C 0.53661 0.64709 0.07394 0.0
C794 C 0.49518 0.59738 0.07549 0.0
C795 C 0.52379 0.57312 0.07514 0.0
C796 C 0.55893 0.58596 0.07425 0.0
C797 C 0.56535 0.62277 0.07373 0.0
C798 C 0.51645 0.53432 0.07517 0.0
C799 C 0.52557 0.51451 0.06743 0.0
C800 C 0.49724 0.5178 0.08233 0.0
C801 C 0.48817 0.53726 0.09082 0.0
C802 C 0.515 0.55476 0.09585 0.0
C803 C 0.50626 0.5733 0.10381 0.0
C804 C 0.47081 0.57435 0.10683 0.0
C805 C 0.44403 0.5568 0.10192 0.0
C806 C 0.45261 0.53825 0.09396 0.0
C807 C 0.50038 0.362 0.07075 0.0
C808 C 0.46416 0.35213 0.0715 0.0
C809 C 0.51057 0.39769 0.07162 0.0
C810 C 0.48471 0.42424 0.07314 0.0
C811 C 0.4486 0.41448 0.07408 0.0
C812 C 0.43837 0.37865 0.07326 0.0
C813 C 0.49542 0.46227 0.0736 0.0
C814 C 0.48685 0.48193 0.08143 0.0
C815 C 0.51491 0.47878 0.06649 0.0
C816 C 0.52295 0.46003 0.05783 0.0
C817 C 0.49521 0.44504 0.0526 0.0
C818 C 0.50299 0.42725 0.04447 0.0
C819 C 0.53839 0.42451 0.04147 0.0
C820 C 0.56608 0.43965 0.04658 0.0
C821 C 0.55845 0.45744 0.05471 0.0
H822 H 0.54437 0.41074 0.03518 0.0
H823 H 0.4641 0.58872 0.11299 0.0
H824 H 0.3644 0.40778 0.9564 0.0
H825 H 0.42848 0.42278 0.95639 0.0
H826 H 0.4023 0.5344 0.95268 0.0
H827 H 0.33871 0.51984 0.95276 0.0
H828 H 0.45434 0.51034 0.94078 0.0
H829 H 0.42762 0.50842 0.97267 0.0
H830 H 0.40787 0.4848 0.98751 0.0
H831 H 0.48576 0.40044 0.98576 0.0
H832 H 0.50562 0.42321 0.97083 0.0
H833 H 0.62315 0.5911 0.951 0.0
H834 H 0.55966 0.57447 0.95065 0.0
H835 H 0.58797 0.46439 0.95602 0.0
H836 H 0.65103 0.48064 0.95647 0.0
H837 H 0.53492 0.4869 0.96697 0.0
H838 H 0.56169 0.48916 0.93504 0.0
H839 H 0.58391 0.51542 0.92075 0.0
H840 H 0.50688 0.60047 0.92285 0.0
H841 H 0.48436 0.57483 0.93723 0.0
C842 C 0.37241 0.43546 0.95557 0.0
C843 C 0.34665 0.46264 0.95458 0.0
C844 C 0.40888 0.44399 0.95561 0.0
C845 C 0.4199 0.4797 0.95457 0.0
C846 C 0.39422 0.50671 0.9535 0.0
C847 C 0.35793 0.49832 0.95357 0.0
C848 C 0.45823 0.48916 0.9544 0.0
C849 C 0.47194 0.50551 0.94654 0.0
C850 C 0.48112 0.48224 0.96185 0.0
C851 C 0.46782 0.46729 0.97058 0.0
C852 C 0.44017 0.48451 0.97538 0.0
C853 C 0.42911 0.47141 0.98383 0.0
C854 C 0.44568 0.44126 0.98759 0.0
C855 C 0.47307 0.42389 0.98286 0.0
C856 C 0.48419 0.43684 0.97439 0.0
C857 C 0.61581 0.56335 0.95206 0.0
C858 C 0.64207 0.53722 0.95378 0.0
C859 C 0.57961 0.55388 0.95183 0.0
C860 C 0.56926 0.51817 0.95327 0.0
C861 C 0.59545 0.49209 0.95491 0.0
C862 C 0.6315 0.50147 0.95515 0.0
C863 C 0.53108 0.50791 0.95335 0.0
C864 C 0.51737 0.49148 0.9612 0.0
C865 C 0.50819 0.51478 0.94589 0.0
C866 C 0.52161 0.53029 0.93726 0.0
C867 C 0.54968 0.51363 0.93249 0.0
C868 C 0.5623 0.52838 0.92437 0.0
C869 C 0.54694 0.55969 0.9209 0.0
C870 C 0.51881 0.57625 0.92555 0.0
C871 C 0.50607 0.5616 0.93368 0.0
H872 H 0.55678 0.57105 0.9146 0.0
H873 H 0.4372 0.43126 0.99416 0.0
H874 H 0.48265 0.84194 0.20218 0.0
H875 H 0.46943 0.90565 0.20086 0.0
H876 H 0.58228 0.92976 0.20225 0.0
H877 H 0.59591 0.86565 0.20355 0.0
H878 H 0.53982 0.97 0.21418 0.0
H879 H 0.54206 0.93864 0.18263 0.0
H880 H 0.52624 0.90329 0.16906 0.0
H881 H 0.41543 0.93102 0.17253 0.0
H882 H 0.43051 0.96613 0.18621 0.0
H883 H 0.52379 0.15281 0.20381 0.0
H884 H 0.5396 0.08967 0.20313 0.0
H885 H 0.42811 0.06195 0.20003 0.0
H886 H 0.41189 0.12558 0.20057 0.0
H887 H 0.4713 0.0236 0.1886 0.0
H888 H 0.46776 0.05251 0.22031 0.0
H889 H 0.48223 0.08686 0.23414 0.0
H890 H 0.59385 0.06251 0.2307 0.0
H891 H 0.5801 0.02844 0.21677 0.0
C892 C 0.50473 0.86073 0.20217 0.0
C893 C 0.54034 0.84885 0.20299 0.0
C894 C 0.49711 0.89708 0.20136 0.0
C895 C 0.52491 0.92222 0.20138 0.0
C896 C 0.56053 0.91058 0.20218 0.0
C897 C 0.56825 0.87406 0.2029 0.0
C898 C 0.51635 0.96075 0.20101 0.0
C899 C 0.52544 0.98195 0.20852 0.0
C900 C 0.49655 0.97577 0.19374 0.0
C901 C 0.48739 0.95477 0.1855 0.0
C902 C 0.51427 0.93696 0.18055 0.0
C903 C 0.50545 0.91701 0.17283 0.0
C904 C 0.46984 0.91484 0.16995 0.0
C905 C 0.443 0.9327 0.17477 0.0
C906 C 0.45168 0.95266 0.1825 0.0
C907 C 0.50252 0.13338 0.20297 0.0
C908 C 0.4665 0.14416 0.20232 0.0
C909 C 0.51166 0.09728 0.2026 0.0
C910 C 0.48498 0.07121 0.20167 0.0
C911 C 0.44905 0.08179 0.20079 0.0
C912 C 0.43983 0.11806 0.20112 0.0
C913 C 0.49482 0.0329 0.20177 0.0
C914 C 0.48588 0.01172 0.19424 0.0
C915 C 0.51457 0.01777 0.20905 0.0
C916 C 0.52293 0.03823 0.21744 0.0
C917 C 0.49543 0.05474 0.22246 0.0
C918 C 0.50349 0.07411 0.23032 0.0
C919 C 0.53895 0.07695 0.23328 0.0
C920 C 0.5664 0.06034 0.22839 0.0
C921 C 0.55849 0.04097 0.22051 0.0
H922 H 0.54514 0.09194 0.23938 0.0
H923 H 0.46307 0.89939 0.16397 0.0
H924 H 0.84369 0.01195 0.44732 0.0
H925 H 0.90812 0.02213 0.44598 0.0
H926 H 0.9284 0.91267 0.45386 0.0
H927 H 0.86366 0.90201 0.45505 0.0
H928 H 0.96526 0.96562 0.46428 0.0
H929 H 0.94776 0.93175 0.4334 0.0
H930 H 0.92118 0.93138 0.41805 0.0
H931 H 0.94764 0.04245 0.41469 0.0
H932 H 0.97417 0.04359 0.43007 0.0
H933 H 0.15253 0.97453 0.45738 0.0
H934 H 0.08975 0.95714 0.45638 0.0
H935 H 0.06231 0.06271 0.44666 0.0
H936 H 0.1254 0.08046 0.4476 0.0
H937 H 0.02974 0.00818 0.4368 0.0
H938 H 0.04562 0.04201 0.46804 0.0
H939 H 0.07419 0.04112 0.48316 0.0
H940 H 0.05055 0.92911 0.48584 0.0
H941 H 0.02231 0.9292 0.47066 0.0
C942 C 0.86186 0.98993 0.44868 0.0
C943 C 0.84879 0.95624 0.45133 0.0
C944 C 0.89858 0.99574 0.44785 0.0
C945 C 0.92284 0.9681 0.44979 0.0
C946 C 0.90994 0.93423 0.4523 0.0
C947 C 0.87308 0.92819 0.45296 0.0
C948 C 0.9616 0.97573 0.44988 0.0
C949 C 0.9796 0.97426 0.45824 0.0
C950 C 0.97978 0.98796 0.44204 0.0
C951 C 0.96268 0.98783 0.43293 0.0
C952 C 0.94752 0.95622 0.42944 0.0
C953 C 0.93261 0.95583 0.42072 0.0
C954 C 0.93275 0.98686 0.4154 0.0
C955 C 0.94761 0.01842 0.41882 0.0
C956 C 0.96264 0.01894 0.42753 0.0
C957 C 0.13322 0.99413 0.45501 0.0
C958 C 0.14391 0.02897 0.4526 0.0
C959 C 0.09735 0.98412 0.45447 0.0
C960 C 0.07146 0.00875 0.45153 0.0
C961 C 0.082 0.04337 0.44896 0.0
C962 C 0.11797 0.0535 0.44954 0.0
C963 C 0.03334 0.99826 0.45121 0.0
C964 C 0.01544 -0.00067 0.44282 0.0
C965 C 0.0152 0.98566 0.45903 0.0
C966 C 0.03221 0.98553 0.46816 0.0
C967 C 0.04682 0.01711 0.47181 0.0
C968 C 0.06289 0.01676 0.4804 0.0
C969 C 0.06428 0.98505 0.48545 0.0
C970 C 0.04951 0.95364 0.48192 0.0
C971 C 0.03346 0.95382 0.47332 0.0
H972 H 0.07672 0.98485 0.4921 0.0
H973 H 0.92139 0.98644 0.40863 0.0
H974 H 0.0933 0.36724 0.70119 0.0
H975 H 0.07779 0.43087 0.70014 0.0
H976 H 0.96545 0.4042 0.70112 0.0
H977 H 0.98055 0.34079 0.70213 0.0
H978 H 0.98077 0.45659 0.68833 0.0
H979 H 0.00462 0.43046 0.71988 0.0
H980 H 0.04061 0.4077 0.73273 0.0
H981 H 0.12389 0.48299 0.72645 0.0
H982 H 0.08858 0.50584 0.71348 0.0
H983 H 0.9108 0.62745 0.7015 0.0
H984 H 0.92556 0.56359 0.70045 0.0
H985 H 0.03821 0.58908 0.70146 0.0
H986 H 0.02387 0.6524 0.70266 0.0
H987 H 0.02243 0.53685 0.71303 0.0
H988 H 0.99843 0.56416 0.68167 0.0
H989 H 0.9628 0.58684 0.66875 0.0
H990 H 0.88044 0.50994 0.67452 0.0
H991 H 0.91537 0.48711 0.68755 0.0
C992 C 0.06532 0.37494 0.70111 0.0
C993 C 0.03815 0.34909 0.70182 0.0
C994 C 0.05653 0.41122 0.70053 0.0
C995 C 0.02051 0.42205 0.70064 0.0
C996 C 0.99338 0.39626 0.70103 0.0
C997 C 0.00211 0.36009 0.70166 0.0
C998 C 0.01098 0.46036 0.70078 0.0
C999 C 0.98956 0.47417 0.69376 0.0
C1000 C 0.02296 0.48314 0.70782 0.0
C1001 C 0.04412 0.46959 0.71565 0.0
C1002 C 0.03073 0.44196 0.7212 0.0
C1003 C 0.05098 0.42908 0.72851 0.0
C1004 C 0.08456 0.44382 0.73039 0.0
C1005 C 0.0979 0.47155 0.72498 0.0
C1006 C 0.07777 0.48449 0.71765 0.0
C1007 C 0.93868 0.61938 0.70146 0.0
C1008 C 0.96614 0.6449 0.70221 0.0
C1009 C 0.94707 0.58298 0.70082 0.0
C1010 C 0.98299 0.57174 0.70084 0.0
C1011 C 0.01034 0.59723 0.70147 0.0
C1012 C 0.00203 0.63343 0.70215 0.0
C1013 C 0.99241 0.53336 0.70053 0.0
C1014 C 0.01371 0.51942 0.70756 0.0
C1015 C 0.98037 0.51056 0.69349 0.0
C1016 C 0.95935 0.52418 0.68564 0.0
C1017 C 0.97258 0.55228 0.68023 0.0
C1018 C 0.95254 0.56513 0.67288 0.0
C1019 C 0.91933 0.54991 0.67083 0.0
C1020 C 0.90614 0.52174 0.67612 0.0
C1021 C 0.92606 0.50882 0.68348 0.0
H1022 H 0.90386 0.55988 0.66513 0.0
H1023 H 0.1002 0.43381 0.73605 0.0
H1024 H 0.2486 0.02964 0.3486 0.0
H1025 H 0.24997 0.02698 0.36523 0.0
H1026 H 0.24602 0.14231 0.36645 0.0
H1027 H 0.24517 0.14523 0.34986 0.0
H1028 H 0.29551 0.11701 0.37782 0.0
H1029 H 0.1722 0.09062 0.37121 0.0
H1030 H 0.12242 0.05797 0.36397 0.0
H1031 H 0.15688 0.96045 0.37679 0.0
H1032 H 0.20718 0.99245 0.38402 0.0
H1033 H 0.24873 0.14395 0.42387 0.0
H1034 H 0.24972 0.14136 0.4073 0.0
H1035 H 0.25502 0.02607 0.40842 0.0
H1036 H 0.2535 0.02837 0.42508 0.0
H1037 H 0.20702 0.04804 0.39589 0.0
H1038 H 0.32904 0.0755 0.40305 0.0
H1039 H 0.37828 0.10874 0.41036 0.0
H1040 H 0.34593 0.20478 0.3965 0.0
H1041 H 0.29616 0.17223 0.38921 0.0
C1042 C 0.24787 0.05444 0.3524 0.0
C1043 C 0.24673 0.08765 0.34788 0.0
C1044 C 0.24854 0.05287 0.36192 0.0
C1045 C 0.24783 0.08445 0.36711 0.0
C1046 C 0.24665 0.11758 0.3626 0.0
C1047 C 0.24603 0.11919 0.3531 0.0
C1048 C 0.2489 0.08317 0.37723 0.0
C1049 C 0.27591 0.10225 0.38177 0.0
C1050 C 0.22394 0.06313 0.3824 0.0
C1051 C 0.19369 0.04385 0.37807 0.0
C1052 C 0.16934 0.06215 0.37243 0.0
C1053 C 0.141 0.04378 0.36833 0.0
C1054 C 0.13655 0.00714 0.3699 0.0
C1055 C 0.16039 0.98882 0.37558 0.0
C1056 C 0.18881 0.00707 0.37968 0.0
C1057 C 0.25028 0.11799 0.42062 0.0
C1058 C 0.25117 0.08636 0.42583 0.0
C1059 C 0.25098 0.11658 0.41112 0.0
C1060 C 0.25287 0.08354 0.4066 0.0
C1061 C 0.25364 0.05187 0.41176 0.0
C1062 C 0.25291 0.05325 0.42129 0.0
C1063 C 0.25341 0.08221 0.39648 0.0
C1064 C 0.22675 0.06263 0.39194 0.0
C1065 C 0.27866 0.10185 0.3913 0.0
C1066 C 0.30868 0.12148 0.39565 0.0
C1067 C 0.33226 0.10377 0.40162 0.0
C1068 C 0.3603 0.12248 0.40575 0.0
C1069 C 0.36518 0.15887 0.40391 0.0
C1070 C 0.34209 0.1766 0.39793 0.0
C1071 C 0.31399 0.15803 0.39378 0.0
H1072 H 0.38691 0.1733 0.40712 0.0
H1073 H 0.11459 0.99296 0.36673 0.0
H1074 H 0.96237 0.73526 0.59996 0.0
H1075 H 0.96294 0.7366 0.61659 0.0
H1076 H 0.84769 0.74471 0.61686 0.0
H1077 H 0.84685 0.74358 0.60023 0.0
H1078 H 0.87813 0.79289 0.62826 0.0
H1079 H 0.88743 0.66736 0.62255 0.0
H1080 H 0.91237 0.61283 0.61559 0.0
H1081 H 0.01393 0.63314 0.6283 0.0
H1082 H 0.98968 0.68821 0.63524 0.0
H1083 H 0.85124 0.75733 0.67532 0.0
H1084 H 0.85073 0.75506 0.65871 0.0
H1085 H 0.96595 0.74641 0.6585 0.0
H1086 H 0.96671 0.7483 0.67513 0.0
H1087 H 0.93554 0.69842 0.64705 0.0
H1088 H 0.92505 0.82458 0.65283 0.0
H1089 H 0.89893 0.87888 0.65968 0.0
H1090 H 0.79815 0.85658 0.6468 0.0
H1091 H 0.82354 0.80185 0.63996 0.0
C1092 C 0.93711 0.73709 0.60355 0.0
C1093 C 0.90455 0.73926 0.59875 0.0
C1094 C 0.93748 0.73777 0.61306 0.0
C1095 C 0.90534 0.74058 0.61798 0.0
C1096 C 0.87282 0.74258 0.61321 0.0
C1097 C 0.87239 0.74175 0.6037 0.0
C1098 C 0.90569 0.7422 0.62808 0.0
C1099 C 0.89025 0.772 0.63238 0.0
C1100 C 0.92217 0.71532 0.63344 0.0
C1101 C 0.93684 0.68212 0.62934 0.0
C1102 C 0.91517 0.66037 0.6238 0.0
C1103 C 0.92918 0.62933 0.61987 0.0
C1104 C 0.96476 0.61955 0.62147 0.0
C1105 C 0.98638 0.64077 0.62705 0.0
C1106 C 0.97251 0.6719 0.63099 0.0
C1107 C 0.87652 0.75515 0.67175 0.0
C1108 C 0.90904 0.75311 0.67657 0.0
C1109 C 0.87618 0.75394 0.66224 0.0
C1110 C 0.90833 0.75084 0.65735 0.0
C1111 C 0.94082 0.74881 0.66213 0.0
C1112 C 0.9412 0.75007 0.67164 0.0
C1113 C 0.90802 0.74916 0.64724 0.0
C1114 C 0.92345 0.71934 0.64294 0.0
C1115 C 0.8914 0.77597 0.64187 0.0
C1116 C 0.87611 0.80893 0.64595 0.0
C1117 C 0.89724 0.8311 0.65151 0.0
C1118 C 0.88258 0.86198 0.65539 0.0
C1119 C 0.84688 0.87112 0.6537 0.0
C1120 C 0.82579 0.84944 0.64811 0.0
C1121 C 0.84031 0.8185 0.64423 0.0
H1122 H 0.83559 0.89505 0.6567 0.0
H1123 H 0.97555 0.59549 0.61842 0.0
H1124 H 0.25857 0.35247 0.85028 0.0
H1125 H 0.25543 0.35524 0.86686 0.0
H1126 H 0.26428 0.47028 0.8658 0.0
H1127 H 0.26754 0.46781 0.84917 0.0
H1128 H 0.30582 0.4408 0.87946 0.0
H1129 H 0.18444 0.43443 0.86919 0.0
H1130 H 0.13351 0.41006 0.8605 0.0
H1131 H 0.14352 0.30987 0.87465 0.0
H1132 H 0.19488 0.33349 0.88334 0.0
H1133 H 0.24914 0.46924 0.92526 0.0
H1134 H 0.25268 0.471 0.90863 0.0
H1135 H 0.2413 0.35616 0.90768 0.0
H1136 H 0.23744 0.35416 0.92426 0.0
H1137 H 0.19997 0.38854 0.89495 0.0
H1138 H 0.3226 0.39504 0.90498 0.0
H1139 H 0.37339 0.41994 0.91362 0.0
H1140 H 0.36064 0.52078 0.89992 0.0
H1141 H 0.3094 0.49662 0.89128 0.0
C1142 C 0.26013 0.37838 0.85356 0.0
C1143 C 0.26313 0.40994 0.84838 0.0
C1144 C 0.25817 0.37991 0.86304 0.0
C1145 C 0.25916 0.413 0.86756 0.0
C1146 C 0.26336 0.44447 0.86245 0.0
C1147 C 0.26515 0.443 0.85294 0.0
C1148 C 0.25497 0.41465 0.8776 0.0
C1149 C 0.28245 0.42985 0.88284 0.0
C1150 C 0.22471 0.39989 0.88203 0.0
C1151 C 0.19373 0.38563 0.87685 0.0
C1152 C 0.17597 0.40711 0.87039 0.0
C1153 C 0.14698 0.39345 0.86548 0.0
C1154 C 0.13534 0.35841 0.86701 0.0
C1155 C 0.1526 0.33699 0.87347 0.0
C1156 C 0.18163 0.35051 0.87839 0.0
C1157 C 0.24725 0.44436 0.92151 0.0
C1158 C 0.24312 0.41154 0.9261 0.0
C1159 C 0.24944 0.4454 0.91201 0.0
C1160 C 0.24764 0.41366 0.90691 0.0
C1161 C 0.2428 0.38098 0.91147 0.0
C1162 C 0.24069 0.37989 0.92096 0.0
C1163 C 0.25101 0.41433 0.89683 0.0
C1164 C 0.2233 0.3996 0.89158 0.0
C1165 C 0.28102 0.42962 0.8924 0.0
C1166 C 0.31192 0.44414 0.89756 0.0
C1167 C 0.33044 0.42262 0.90386 0.0
C1168 C 0.35934 0.43658 0.90875 0.0
C1169 C 0.37017 0.47196 0.90734 0.0
C1170 C 0.35218 0.49341 0.90102 0.0
C1171 C 0.32322 0.47958 0.89612 0.0
H1172 H 0.39255 0.48272 0.91114 0.0
H1173 H 0.11289 0.34788 0.86319 0.0
H1174 H 0.53092 0.75739 0.10096 0.0
H1175 H 0.53161 0.75472 0.11757 0.0
H1176 H 0.64714 0.7553 0.11736 0.0
H1177 H 0.64673 0.7577 0.10073 0.0
H1178 H 0.62121 0.70405 0.12862 0.0
H1179 H 0.60081 0.82929 0.1235 0.0
H1180 H 0.5703 0.88215 0.11705 0.0
H1181 H 0.47255 0.85166 0.13034 0.0
H1182 H 0.50235 0.7983 0.13676 0.0
H1183 H 0.65013 0.73795 0.17558 0.0
H1184 H 0.6485 0.74046 0.15899 0.0
H1185 H 0.533 0.74292 0.15965 0.0
H1186 H 0.53438 0.74097 0.17628 0.0
H1187 H 0.55832 0.79228 0.14813 0.0
H1188 H 0.57849 0.6672 0.1533 0.0
H1189 H 0.60878 0.61423 0.15975 0.0
H1190 H 0.70655 0.64409 0.14639 0.0
H1191 H 0.67697 0.69754 0.13995 0.0
C1192 C 0.55651 0.75721 0.10444 0.0
C1193 C 0.58878 0.75782 0.0995 0.0
C1194 C 0.55684 0.75577 0.11395 0.0
C1195 C 0.58943 0.75503 0.11872 0.0
C1196 C 0.62168 0.75583 0.11382 0.0
C1197 C 0.62138 0.75737 0.10431 0.0
C1198 C 0.5899 0.75252 0.12881 0.0
C1199 C 0.60787 0.72361 0.13289 0.0
C1200 C 0.5717 0.77751 0.13438 0.0
C1201 C 0.55372 0.80959 0.13053 0.0
C1202 C 0.57272 0.83368 0.12498 0.0
C1203 C 0.55558 0.86377 0.12135 0.0
C1204 C 0.51949 0.8702 0.12326 0.0
C1205 C 0.50049 0.84661 0.12885 0.0
C1206 C 0.5175 0.81645 0.13249 0.0
C1207 C 0.62433 0.73876 0.17221 0.0
C1208 C 0.59237 0.73918 0.17728 0.0
C1209 C 0.62346 0.74009 0.1627 0.0
C1210 C 0.59061 0.74156 0.15805 0.0
C1211 C 0.55866 0.74179 0.16308 0.0
C1212 C 0.5595 0.74052 0.1726 0.0
C1213 C 0.58967 0.74381 0.14795 0.0
C1214 C 0.57161 0.77267 0.14386 0.0
C1215 C 0.60774 0.71874 0.14237 0.0
C1216 C 0.62559 0.68656 0.14621 0.0
C1217 C 0.60653 0.66263 0.15179 0.0
C1218 C 0.62356 0.63249 0.15544 0.0
C1219 C 0.6596 0.62585 0.1535 0.0
C1220 C 0.67865 0.64929 0.14789 0.0
C1221 C 0.66176 0.6795 0.14423 0.0
H1222 H 0.67273 0.6025 0.15633 0.0
H1223 H 0.50626 0.89352 0.12044 0.0
H1224 H 0.74282 0.64848 0.8505 0.0
H1225 H 0.74348 0.64772 0.86712 0.0
H1226 H 0.7538 0.53266 0.86686 0.0
H1227 H 0.75247 0.53312 0.85023 0.0
H1228 H 0.70719 0.55273 0.87949 0.0
H1229 H 0.82621 0.58718 0.8711 0.0
H1230 H 0.87225 0.62305 0.86326 0.0
H1231 H 0.83615 0.7175 0.87715 0.0
H1232 H 0.78954 0.68228 0.88499 0.0
H1233 H 0.75579 0.53546 0.92615 0.0
H1234 H 0.75695 0.53367 0.90951 0.0
H1235 H 0.74634 0.64865 0.90857 0.0
H1236 H 0.7459 0.65075 0.92517 0.0
H1237 H 0.79453 0.62695 0.89652 0.0
H1238 H 0.67441 0.59187 0.90464 0.0
H1239 H 0.62865 0.55539 0.91237 0.0
H1240 H 0.66769 0.46111 0.89891 0.0
H1241 H 0.71405 0.49701 0.89119 0.0
C1242 C 0.74508 0.62298 0.85397 0.0
C1243 C 0.74772 0.59087 0.84902 0.0
C1244 C 0.74566 0.6226 0.86348 0.0
C1245 C 0.74928 0.59017 0.86825 0.0
C1246 C 0.75111 0.55802 0.86333 0.0
C1247 C 0.75038 0.55835 0.85382 0.0
C1248 C 0.75113 0.58977 0.87837 0.0
C1249 C 0.72663 0.56858 0.88321 0.0
C1250 C 0.77608 0.61091 0.88324 0.0
C1251 C 0.80416 0.63214 0.87857 0.0
C1252 C 0.82791 0.61565 0.87243 0.0
C1253 C 0.85414 0.63586 0.868 0.0
C1254 C 0.85706 0.67255 0.86969 0.0
C1255 C 0.83382 0.68909 0.87584 0.0
C1256 C 0.80751 0.66901 0.88028 0.0
C1257 C 0.75382 0.56038 0.9224 0.0
C1258 C 0.75061 0.59324 0.927 0.0
C1259 C 0.75431 0.5593 0.91288 0.0
C1260 C 0.75123 0.59099 0.90777 0.0
C1261 C 0.74871 0.62384 0.91235 0.0
C1262 C 0.74838 0.62497 0.92186 0.0
C1263 C 0.75042 0.5901 0.89764 0.0
C1264 C 0.77515 0.61104 0.8928 0.0
C1265 C 0.72576 0.56864 0.89276 0.0
C1266 C 0.69791 0.54706 0.89741 0.0
C1267 C 0.67341 0.56331 0.90338 0.0
C1268 C 0.64732 0.54273 0.90776 0.0
C1269 C 0.6453 0.50591 0.90615 0.0
C1270 C 0.66932 0.48962 0.90016 0.0
C1271 C 0.69549 0.51007 0.89578 0.0
H1272 H 0.6251 0.48996 0.90952 0.0
H1273 H 0.87739 0.68814 0.86625 0.0
H1274 H 0.46856 0.25623 0.17468 0.0
H1275 H 0.47036 0.25472 0.15804 0.0
H1276 H 0.35539 0.24402 0.15724 0.0
H1277 H 0.35332 0.24537 0.17385 0.0
H1278 H 0.38846 0.19647 0.14589 0.0
H1279 H 0.39417 0.32284 0.15217 0.0
H1280 H 0.41858 0.37741 0.15927 0.0
H1281 H 0.51999 0.35889 0.14632 0.0
H1282 H 0.49631 0.3039 0.13924 0.0
H1283 H 0.35173 0.23892 0.0999 0.0
H1284 H 0.35544 0.23812 0.11648 0.0
H1285 H 0.47028 0.24896 0.11497 0.0
H1286 H 0.46683 0.24992 0.09832 0.0
H1287 H 0.44088 0.29473 0.12747 0.0
H1288 H 0.43542 0.17015 0.1207 0.0
H1289 H 0.41186 0.11551 0.11348 0.0
H1290 H 0.31149 0.12983 0.12727 0.0
H1291 H 0.33431 0.18491 0.13448 0.0
C1292 C 0.44362 0.25373 0.17097 0.0
C1293 C 0.41078 0.25101 0.17561 0.0
C1294 C 0.4447 0.25294 0.16145 0.0
C1295 C 0.41298 0.24942 0.15639 0.0
C1296 C 0.38019 0.2467 0.161 0.0
C1297 C 0.37907 0.24765 0.17051 0.0
C1298 C 0.41389 0.24819 0.14628 0.0
C1299 C 0.39955 0.21814 0.14186 0.0
C1300 C 0.42934 0.27596 0.14103 0.0
C1301 C 0.44359 0.30905 0.14526 0.0
C1302 C 0.42177 0.33024 0.1509 0.0
C1303 C 0.43545 0.36127 0.15491 0.0
C1304 C 0.47084 0.37155 0.15327 0.0
C1305 C 0.4926 0.35086 0.14759 0.0
C1306 C 0.47905 0.31977 0.14358 0.0
C1307 C 0.37784 0.24096 0.10308 0.0
C1308 C 0.409 0.24441 0.09777 0.0
C1309 C 0.37991 0.24039 0.11257 0.0
C1310 C 0.41316 0.24322 0.11697 0.0
C1311 C 0.44435 0.24671 0.11171 0.0
C1312 C 0.44233 0.24708 0.1022 0.0
C1313 C 0.41509 0.2432 0.12707 0.0
C1314 C 0.42996 0.27297 0.1315 0.0
C1315 C 0.40029 0.2151 0.13233 0.0
C1316 C 0.38648 0.18185 0.12807 0.0
C1317 C 0.40822 0.16181 0.12214 0.0
C1318 C 0.39502 0.13073 0.11806 0.0
C1319 C 0.36016 0.11925 0.11989 0.0
C1320 C 0.33847 0.13878 0.12584 0.0
C1321 C 0.35155 0.16992 0.12994 0.0
H1322 H 0.34998 0.09517 0.11672 0.0
H1323 H 0.48139 0.3956 0.15637 0.0
H1324 H 0.75873 0.84968 0.35117 0.0
H1325 H 0.75422 0.85133 0.36775 0.0
H1326 H 0.74651 0.96654 0.36691 0.0
H1327 H 0.75153 0.9652 0.35033 0.0
H1328 H 0.78891 0.94552 0.38062 0.0
H1329 H 0.67191 0.91603 0.36985 0.0
H1330 H 0.62685 0.88248 0.36105 0.0
H1331 H 0.65428 0.78618 0.37547 0.0
H1332 H 0.69986 0.81909 0.38428 0.0
H1333 H 0.72754 0.96609 0.4259 0.0
H1334 H 0.72867 0.96691 0.40927 0.0
H1335 H 0.73809 0.85178 0.40892 0.0
H1336 H 0.73607 0.85064 0.42554 0.0
H1337 H 0.69357 0.87467 0.39576 0.0
H1338 H 0.81153 0.90721 0.40667 0.0
H1339 H 0.85241 0.94399 0.41594 0.0
H1340 H 0.8202 0.0381 0.40124 0.0
H1341 H 0.7785 0.002 0.39202 0.0
C1342 C 0.75635 0.87541 0.35451 0.0
C1343 C 0.75531 0.9073 0.34941 0.0
C1344 C 0.75358 0.87629 0.36399 0.0
C1345 C 0.74944 0.90902 0.36857 0.0
C1346 C 0.74956 0.94097 0.36353 0.0
C1347 C 0.75239 0.94013 0.35404 0.0
C1348 C 0.74431 0.90985 0.3786 0.0
C1349 C 0.76782 0.93035 0.38392 0.0
C1350 C 0.71697 0.88984 0.38292 0.0
C1351 C 0.68955 0.86995 0.37766 0.0
C1352 C 0.66853 0.88763 0.37109 0.0
C1353 C 0.64286 0.86875 0.36611 0.0
C1354 C 0.63777 0.8322 0.36768 0.0
C1355 C 0.65828 0.81448 0.37425 0.0
C1356 C 0.68402 0.83325 0.37925 0.0
C1357 C 0.72953 0.9409 0.42229 0.0
C1358 C 0.73202 0.90831 0.42705 0.0
C1359 C 0.73032 0.94143 0.41278 0.0
C1360 C 0.73417 0.90946 0.40785 0.0
C1361 C 0.73526 0.8768 0.41258 0.0
C1362 C 0.73417 0.87621 0.42209 0.0
C1363 C 0.73838 0.91002 0.39779 0.0
C1364 C 0.71469 0.88979 0.39246 0.0
C1365 C 0.76534 0.93057 0.39346 0.0
C1366 C 0.79164 0.95195 0.39871 0.0
C1367 C 0.8131 0.93577 0.40543 0.0
C1368 C 0.83639 0.9565 0.41069 0.0
C1369 C 0.83881 0.99338 0.4092 0.0
C1370 C 0.81821 0.00954 0.4024 0.0
C1371 C 0.79474 0.98896 0.39716 0.0
H1372 H 0.85663 0.00946 0.41332 0.0
H1373 H 0.61788 0.81762 0.36382 0.0
H1374 H 0.0367 0.23573 0.6754 0.0
H1375 H 0.03546 0.23603 0.65877 0.0
H1376 H 0.1508 0.24215 0.65817 0.0
H1377 H 0.1523 0.24216 0.67479 0.0
H1378 H 0.12102 0.29004 0.64669 0.0
H1379 H 0.10837 0.16494 0.65301 0.0
H1380 H 0.08166 0.11174 0.66024 0.0
H1381 H 0.98094 0.13454 0.64735 0.0
H1382 H 0.00692 0.18827 0.64014 0.0
H1383 H 0.14866 0.25143 0.60004 0.0
H1384 H 0.14811 0.24937 0.61664 0.0
H1385 H 0.03271 0.24411 0.61643 0.0
H1386 H 0.033 0.24579 0.59977 0.0
H1387 H 0.06138 0.19602 0.62832 0.0
H1388 H 0.07477 0.32132 0.62194 0.0
H1389 H 0.10203 0.37456 0.61484 0.0
H1390 H 0.20219 0.35089 0.62792 0.0
H1391 H 0.17565 0.29719 0.63501 0.0
C1392 C 0.06184 0.23689 0.67174 0.0
C1393 C 0.09461 0.2389 0.67645 0.0
C1394 C 0.06108 0.23697 0.66222 0.0
C1395 C 0.09306 0.23891 0.65721 0.0
C1396 C 0.1258 0.24067 0.66189 0.0
C1397 C 0.1266 0.24053 0.6714 0.0
C1398 C 0.09238 0.24004 0.6471 0.0
C1399 C 0.1084 0.26923 0.64267 0.0
C1400 C 0.07514 0.21334 0.64186 0.0
C1401 C 0.0595 0.18086 0.64611 0.0
C1402 C 0.08045 0.15878 0.65177 0.0
C1403 C 0.06545 0.1285 0.65586 0.0
C1404 C 0.0296 0.1198 0.65428 0.0
C1405 C 0.0087 0.14133 0.64858 0.0
C1406 C 0.02355 0.1717 0.64449 0.0
C1407 C 0.12311 0.24998 0.6035 0.0
C1408 C 0.09085 0.24894 0.59856 0.0
C1409 C 0.12285 0.24889 0.61301 0.0
C1410 C 0.09036 0.24692 0.61779 0.0
C1411 C 0.0581 0.24566 0.61288 0.0
C1412 C 0.05832 0.2468 0.60336 0.0
C1413 C 0.09016 0.24597 0.62791 0.0
C1414 C 0.07395 0.21685 0.63234 0.0
C1415 C 0.10731 0.27269 0.63316 0.0
C1416 C 0.1233 0.30504 0.62894 0.0
C1417 C 0.10269 0.32731 0.62325 0.0
C1418 C 0.118 0.3576 0.61924 0.0
C1419 C 0.15385 0.36605 0.62091 0.0
C1420 C 0.17444 0.34428 0.62662 0.0
C1421 C 0.15927 0.31393 0.63064 0.0
H1422 H 0.16565 0.38952 0.6178 0.0
H1423 H 0.01804 0.09635 0.65746 0.0
H1424 H 0.25134 0.08372 0.28904 0.0
H1425 H 0.26943 0.10657 0.27413 0.0
H1426 H 0.29902 0.20727 0.28635 0.0
H1427 H 0.27956 0.18513 0.30119 0.0
H1428 H 0.2715 0.21993 0.27044 0.0
H1429 H 0.36021 0.13872 0.282 0.0
H1430 H 0.3796 0.0808 0.28836 0.0
H1431 H 0.34853 0.02782 0.26368 0.0
H1432 H 0.32779 0.08534 0.25728 0.0
H1433 H 0.42318 0.22064 0.2335 0.0
H1434 H 0.39989 0.20354 0.24845 0.0
H1435 H 0.29183 0.21387 0.23838 0.0
H1436 H 0.31482 0.23139 0.22348 0.0
H1437 H 0.36081 0.14743 0.25354 0.0
H1438 H 0.2369 0.24113 0.25551 0.0
H1439 H 0.21845 0.30118 0.25026 0.0
H1440 H 0.32853 0.33412 0.24923 0.0
H1441 H 0.3476 0.27448 0.25459 0.0
C1442 C 0.26128 0.11088 0.28853 0.0
C1443 C 0.2643 0.13249 0.29632 0.0
C1444 C 0.27176 0.12389 0.28 0.0
C1445 C 0.28639 0.15842 0.27912 0.0
C1446 C 0.28796 0.18053 0.28683 0.0
C1447 C 0.27689 0.16777 0.29533 0.0
C1448 C 0.30188 0.17086 0.27032 0.0
C1449 C 0.29091 0.204 0.26674 0.0
C1450 C 0.32794 0.15056 0.26556 0.0
C1451 C 0.34214 0.11629 0.2692 0.0
C1452 C 0.35744 0.1147 0.27794 0.0
C1453 C 0.3686 0.08193 0.28156 0.0
C1454 C 0.36529 0.05062 0.27643 0.0
C1455 C 0.35102 0.05208 0.26765 0.0
C1456 C 0.33948 0.08476 0.26403 0.0
C1457 C 0.39445 0.2196 0.23449 0.0
C1458 C 0.37089 0.22752 0.22728 0.0
C1459 C 0.38117 0.20963 0.24303 0.0
C1460 C 0.34409 0.20762 0.24457 0.0
C1461 C 0.32053 0.21571 0.23741 0.0
C1462 C 0.33376 0.22564 0.22887 0.0
C1463 C 0.33001 0.19626 0.2536 0.0
C1464 C 0.3413 0.16332 0.25723 0.0
C1465 C 0.30489 0.21712 0.25851 0.0
C1466 C 0.29367 0.2532 0.25536 0.0
C1467 C 0.25715 0.26123 0.25419 0.0
C1468 C 0.24659 0.29519 0.25119 0.0
C1469 C 0.2723 0.32141 0.24938 0.0
C1470 C 0.30864 0.31375 0.2506 0.0
C1471 C 0.31934 0.27985 0.2536 0.0
H1472 H 0.26407 0.34767 0.24706 0.0
H1473 H 0.3737 0.02523 0.27926 0.0
H1474 H 0.7667 0.92389 0.48501 0.0
H1475 H 0.7875 0.90096 0.4997 0.0
H1476 H 0.78923 0.79373 0.48881 0.0
H1477 H 0.76734 0.81624 0.47425 0.0
H1478 H 0.76477 0.7906 0.50503 0.0
H1479 H 0.86672 0.84605 0.49139 0.0
H1480 H 0.90143 0.89455 0.48418 0.0
H1481 H 0.88901 0.9592 0.50811 0.0
H1482 H 0.85375 0.91128 0.51541 0.0
H1483 H 0.92071 0.76553 0.54056 0.0
H1484 H 0.89886 0.78497 0.52565 0.0
H1485 H 0.79195 0.79461 0.53652 0.0
H1486 H 0.81334 0.77414 0.55132 0.0
H1487 H 0.87121 0.84429 0.51989 0.0
H1488 H 0.72973 0.77953 0.52049 0.0
H1489 H 0.7001 0.72564 0.52662 0.0
H1490 H 0.80078 0.66991 0.52689 0.0
H1491 H 0.83091 0.72328 0.52065 0.0
C1492 C 0.77126 0.89539 0.48577 0.0
C1493 C 0.76541 0.87194 0.47844 0.0
C1494 C 0.7834 0.88232 0.49416 0.0
C1495 C 0.79056 0.84562 0.49535 0.0
C1496 C 0.78396 0.82213 0.48809 0.0
C1497 C 0.77145 0.83509 0.47975 0.0
C1498 C 0.80519 0.83157 0.5041 0.0
C1499 C 0.78801 0.80243 0.50828 0.0
C1500 C 0.83606 0.84633 0.50827 0.0
C1501 C 0.85727 0.87521 0.5039 0.0
C1502 C 0.87115 0.87072 0.49508 0.0
C1503 C 0.89095 0.89809 0.49099 0.0
C1504 C 0.89733 0.92997 0.49568 0.0
C1505 C 0.88399 0.93452 0.50448 0.0
C1506 C 0.8641 0.90725 0.5086 0.0
C1507 C 0.89247 0.77143 0.53975 0.0
C1508 C 0.86875 0.768 0.54713 0.0
C1509 C 0.88003 0.78273 0.53122 0.0
C1510 C 0.84365 0.79096 0.5299 0.0
C1511 C 0.81998 0.78773 0.53728 0.0
C1512 C 0.83231 0.77608 0.54577 0.0
C1513 C 0.83053 0.80359 0.52086 0.0
C1514 C 0.84794 0.83251 0.51665 0.0
C1515 C 0.80055 0.7879 0.51651 0.0
C1516 C 0.78261 0.75555 0.52019 0.0
C1517 C 0.74551 0.75573 0.52183 0.0
C1518 C 0.72864 0.72529 0.52533 0.0
C1519 C 0.74856 0.69442 0.52717 0.0
C1520 C 0.78539 0.69389 0.52549 0.0
C1521 C 0.80239 0.72424 0.52198 0.0
H1522 H 0.73545 0.67088 0.52989 0.0
H1523 H 0.91269 0.95112 0.4925 0.0
H1524 H 0.18645 0.27832 0.72367 0.0
H1525 H 0.2078 0.2975 0.73857 0.0
H1526 H 0.10224 0.28107 0.74976 0.0
H1527 H 0.08037 0.26299 0.73475 0.0
H1528 H 0.12712 0.34047 0.75599 0.0
H1529 H 0.1741 0.22191 0.75385 0.0
H1530 H 0.20682 0.17146 0.74691 0.0
H1531 H 0.30411 0.23264 0.74737 0.0
H1532 H 0.27186 0.28365 0.7542 0.0
H1533 H 0.23428 0.31342 0.8011 0.0
H1534 H 0.2128 0.29075 0.78651 0.0
H1535 H 0.21078 0.39834 0.7758 0.0
H1536 H 0.23151 0.42135 0.79045 0.0
H1537 H 0.23736 0.29018 0.76991 0.0
H1538 H 0.14119 0.4075 0.76097 0.0
H1539 H 0.10421 0.45256 0.76887 0.0
H1540 H 0.09761 0.38419 0.79231 0.0
H1541 H 0.13406 0.33851 0.78451 0.0
C1542 C 0.16778 0.27852 0.72931 0.0
C1543 C 0.1317 0.26894 0.72802 0.0
C1544 C 0.18009 0.28941 0.73785 0.0
C1545 C 0.15681 0.29031 0.74536 0.0
C1546 C 0.12078 0.28062 0.74409 0.0
C1547 C 0.10833 0.27013 0.73551 0.0
C1548 C 0.16988 0.30213 0.75446 0.0
C1549 C 0.15122 0.32942 0.75902 0.0
C1550 C 0.20097 0.28736 0.75855 0.0
C1551 C 0.22048 0.25671 0.75446 0.0
C1552 C 0.20242 0.22469 0.75241 0.0
C1553 C 0.22089 0.19599 0.74851 0.0
C1554 C 0.2575 0.19888 0.74668 0.0
C1555 C 0.27574 0.23046 0.74878 0.0
C1556 C 0.25739 0.25926 0.75268 0.0
C1557 C 0.22946 0.3323 0.79563 0.0
C1558 C 0.23445 0.36927 0.79698 0.0
C1559 C 0.21722 0.31925 0.78728 0.0
C1560 C 0.20965 0.34282 0.78008 0.0
C1561 C 0.21574 0.37964 0.7813 0.0
C1562 C 0.22781 0.39275 0.78968 0.0
C1563 C 0.19493 0.32888 0.77135 0.0
C1564 C 0.21329 0.30123 0.76686 0.0
C1565 C 0.163 0.3426 0.76746 0.0
C1566 C 0.14071 0.36977 0.77218 0.0
C1567 C 0.13175 0.40203 0.7678 0.0
C1568 C 0.11088 0.42769 0.77226 0.0
C1569 C 0.09868 0.4213 0.7811 0.0
C1570 C 0.10719 0.38917 0.78548 0.0
C1571 C 0.12798 0.3634 0.78104 0.0
H1572 H 0.08256 0.4412 0.78455 0.0
H1573 H 0.27175 0.17662 0.74366 0.0
H1574 H 0.73089 0.58456 0.98561 0.0
H1575 H 0.7109 0.60748 1.00034 0.0
H1576 H 0.69021 0.7107 0.98819 0.0
H1577 H 0.71142 0.68838 0.97356 0.0
H1578 H 0.71711 0.72113 1.00397 0.0
H1579 H 0.62212 0.64762 0.99269 0.0
H1580 H 0.59451 0.59266 0.98661 0.0
H1581 H 0.62345 0.53566 1.01092 0.0
H1582 H 0.65168 0.59018 0.0171 0.0
H1583 H 0.56774 0.72894 0.04167 0.0
H1584 H 0.5889 0.71107 0.02659 0.0
H1585 H 0.69825 0.7177 0.03593 0.0
H1586 H 0.6774 0.73629 0.05093 0.0
H1587 H 0.62411 0.65451 0.02112 0.0
H1588 H 0.75339 0.74069 0.01866 0.0
H1589 H 0.77535 0.79969 0.02372 0.0
H1590 H 0.66726 0.83873 0.02515 0.0
H1591 H 0.6447 0.78017 0.01998 0.0
C1592 C 0.72235 0.61222 0.98609 0.0
C1593 C 0.72264 0.63458 0.97839 0.0
C1594 C 0.71069 0.62526 0.99452 0.0
C1595 C 0.69834 0.6607 0.99537 0.0
C1596 C 0.69953 0.68328 0.98773 0.0
C1597 C 0.71164 0.67042 0.97935 0.0
C1598 C 0.68362 0.67418 1.00416 0.0
C1599 C 0.69683 0.70648 1.00772 0.0
C1600 C 0.65647 0.65565 1.00899 0.0
C1601 C 0.6393 0.62289 1.00532 0.0
C1602 C 0.62279 0.6233 0.99672 0.0
C1603 C 0.60701 0.59224 0.99326 0.0
C1604 C 0.6073 0.56067 0.99837 0.0
C1605 C 0.62329 0.56012 1.00697 0.0
C1606 C 0.63916 0.5911 1.01045 0.0
C1607 C 0.59632 0.72696 0.04049 0.0
C1608 C 0.62085 0.73421 0.04752 0.0
C1609 C 0.60837 0.71656 0.03187 0.0
C1610 C 0.6452 0.71324 0.03008 0.0
C1611 C 0.66973 0.72062 0.03708 0.0
C1612 C 0.65772 0.73118 0.04568 0.0
C1613 C 0.65797 0.70118 0.02098 0.0
C1614 C 0.64443 0.66912 0.01737 0.0
C1615 C 0.68402 0.72047 0.01597 0.0
C1616 C 0.69737 0.7559 0.01902 0.0
C1617 C 0.73433 0.76191 0.02002 0.0
C1618 C 0.74687 0.79527 0.02292 0.0
C1619 C 0.72271 0.8229 0.02478 0.0
C1620 C 0.68594 0.81727 0.02373 0.0
C1621 C 0.67326 0.78397 0.02084 0.0
H1622 H 0.73247 0.8487 0.02702 0.0
H1623 H 0.59507 0.53665 0.99568 0.0
H1624 H 0.31972 0.3062 0.05234 0.0
H1625 H 0.29601 0.32496 0.03764 0.0
H1626 H 0.37631 0.26109 0.02406 0.0
H1627 H 0.40179 0.24455 0.03886 0.0
H1628 H 0.37056 0.31656 0.01501 0.0
H1629 H 0.28139 0.23723 0.02615 0.0
H1630 H 0.23786 0.21156 0.03695 0.0
H1631 H 0.17788 0.30973 0.03665 0.0
H1632 H 0.22132 0.33618 0.02593 0.0
H1633 H 0.27511 0.3169 0.97275 0.0
H1634 H 0.29348 0.29464 0.98771 0.0
H1635 H 0.25753 0.39292 1.00005 0.0
H1636 H 0.23995 0.41596 0.98504 0.0
H1637 H 0.2396 0.31809 1.00918 0.0
H1638 H 0.33445 0.39362 0.99668 0.0
H1639 H 0.37422 0.40894 0.9839 0.0
H1640 H 0.42323 0.30505 0.98552 0.0
H1641 H 0.3824 0.28843 0.99802 0.0
C1642 C 0.33218 0.29602 0.04621 0.0
C1643 C 0.36239 0.27366 0.04674 0.0
C1644 C 0.31844 0.30656 0.03778 0.0
C1645 C 0.33362 0.29378 0.02965 0.0
C1646 C 0.36391 0.27135 0.03019 0.0
C1647 C 0.3784 0.26173 0.03864 0.0
C1648 C 0.31846 0.3046 0.02063 0.0
C1649 C 0.34193 0.31638 0.01376 0.0
C1650 C 0.28102 0.30457 0.01886 0.0
C1651 C 0.25481 0.28879 0.0253 0.0
C1652 C 0.25906 0.25343 0.02844 0.0
C1653 C 0.23438 0.23873 0.03454 0.0
C1654 C 0.20518 0.25903 0.0375 0.0
C1655 C 0.20054 0.29406 0.03435 0.0
C1656 C 0.22516 0.3089 0.02826 0.0
C1657 C 0.27062 0.33364 0.97866 0.0
C1658 C 0.25621 0.36828 0.97771 0.0
C1659 C 0.28115 0.32084 0.98719 0.0
C1660 C 0.27688 0.34218 0.99495 0.0
C1661 C 0.2609 0.37607 0.99412 0.0
C1662 C 0.25105 0.38922 0.98555 0.0
C1663 C 0.29168 0.33016 1.00379 0.0
C1664 C 0.26816 0.31815 1.01055 0.0
C1665 C 0.32903 0.32881 1.00535 0.0
C1666 C 0.355 0.33961 0.99821 0.0
C1667 C 0.35343 0.37389 0.99426 0.0
C1668 C 0.37613 0.38279 0.98705 0.0
C1669 C 0.40124 0.35798 0.98389 0.0
C1670 C 0.40372 0.32422 0.98796 0.0
C1671 C 0.38068 0.31499 0.99508 0.0
H1672 H 0.4188 0.36493 0.97831 0.0
H1673 H 0.1861 0.2476 0.04222 0.0
H1674 H 0.71953 0.81499 0.30228 0.0
H1675 H 0.70087 0.79334 0.28737 0.0
H1676 H 0.72187 0.89751 0.27581 0.0
H1677 H 0.73916 0.91976 0.29084 0.0
H1678 H 0.66285 0.87483 0.26923 0.0
H1679 H 0.77867 0.82211 0.27242 0.0
H1680 H 0.82681 0.7875 0.27986 0.0
H1681 H 0.7608 0.69343 0.27956 0.0
H1682 H 0.71207 0.7276 0.27223 0.0
H1683 H 0.68753 0.76284 0.22493 0.0
H1684 H 0.71035 0.78419 0.23952 0.0
H1685 H 0.60232 0.79216 0.24972 0.0
H1686 H 0.5792 0.77148 0.23507 0.0
H1687 H 0.70852 0.76092 0.25632 0.0
H1688 H 0.59558 0.86391 0.26386 0.0
H1689 H 0.55332 0.9024 0.2554 0.0
H1690 H 0.62427 0.90306 0.23242 0.0
H1691 H 0.66718 0.86507 0.24079 0.0
C1692 C 0.72047 0.83325 0.29655 0.0
C1693 C 0.73101 0.86909 0.29775 0.0
C1694 C 0.7099 0.82077 0.288 0.0
C1695 C 0.71042 0.84356 0.28039 0.0
C1696 C 0.72119 0.87933 0.28156 0.0
C1697 C 0.73124 0.89201 0.29015 0.0
C1698 C 0.69881 0.83033 0.27128 0.0
C1699 C 0.67292 0.84993 0.26642 0.0
C1700 C 0.71232 0.79818 0.26747 0.0
C1701 C 0.74161 0.7775 0.27185 0.0
C1702 C 0.77433 0.7941 0.274 0.0
C1703 C 0.80174 0.77456 0.27819 0.0
C1704 C 0.79684 0.73831 0.2802 0.0
C1705 C 0.76455 0.72152 0.27801 0.0
C1706 C 0.73704 0.74095 0.27382 0.0
C1707 C 0.66857 0.76891 0.23029 0.0
C1708 C 0.63147 0.76563 0.2288 0.0
C1709 C 0.68171 0.78108 0.23864 0.0
C1710 C 0.65809 0.79029 0.24569 0.0
C1711 C 0.62108 0.78586 0.24433 0.0
C1712 C 0.60789 0.77382 0.23596 0.0
C1713 C 0.67218 0.80511 0.25439 0.0
C1714 C 0.69849 0.7858 0.25915 0.0
C1715 C 0.65987 0.83808 0.25798 0.0
C1716 C 0.63439 0.8613 0.25293 0.0
C1717 C 0.60221 0.87238 0.25702 0.0
C1718 C 0.57814 0.89411 0.25223 0.0
C1719 C 0.58605 0.90507 0.24337 0.0
C1720 C 0.61811 0.89445 0.23927 0.0
C1721 C 0.6423 0.87278 0.24403 0.0
H1722 H 0.56736 0.92185 0.23967 0.0
H1723 H 0.81809 0.72323 0.28344 0.0
H1724 H 0.19696 0.17723 0.47185 0.0
H1725 H 0.17791 0.19941 0.48667 0.0
H1726 H 0.22755 0.10817 0.49965 0.0
H1727 H 0.24477 0.08479 0.48471 0.0
H1728 H 0.16902 0.11824 0.50754 0.0
H1729 H 0.26361 0.19841 0.49992 0.0
H1730 H 0.29787 0.24124 0.49058 0.0
H1731 H 0.20875 0.31404 0.49071 0.0
H1732 H 0.17377 0.27143 0.49996 0.0
H1733 H 0.17972 0.21111 0.55129 0.0
H1734 H 0.20024 0.19228 0.53622 0.0
H1735 H 0.09941 0.22517 0.52461 0.0
H1736 H 0.07812 0.2432 0.53974 0.0
H1737 H 0.18482 0.24525 0.51655 0.0
H1738 H 0.08976 0.1555 0.52338 0.0
H1739 H 0.06226 0.11223 0.53397 0.0
H1740 H 0.16285 0.05722 0.53657 0.0
H1741 H 0.19102 0.10059 0.52609 0.0
C1742 C 0.20406 0.16201 0.47787 0.0
C1743 C 0.22257 0.12936 0.47712 0.0
C1744 C 0.19331 0.17485 0.48637 0.0
C1745 C 0.20185 0.15596 0.49437 0.0
C1746 C 0.22059 0.12337 0.49362 0.0
C1747 C 0.23058 0.11006 0.48508 0.0
C1748 C 0.19022 0.1696 0.50346 0.0
C1749 C 0.17286 0.14599 0.50947 0.0
C1750 C 0.19499 0.20585 0.50612 0.0
C1751 C 0.21595 0.23157 0.50056 0.0
C1752 C 0.25123 0.22344 0.4979 0.0
C1753 C 0.27079 0.2477 0.49263 0.0
C1754 C 0.25547 0.2803 0.49003 0.0
C1755 C 0.22057 0.28875 0.49272 0.0
C1756 C 0.20087 0.26458 0.49798 0.0
C1757 C 0.16196 0.21463 0.54553 0.0
C1758 C 0.12723 0.22861 0.54672 0.0
C1759 C 0.17373 0.20379 0.53694 0.0
C1760 C 0.15126 0.20722 0.52935 0.0
C1761 C 0.11705 0.22223 0.53042 0.0
C1762 C 0.10495 0.23247 0.53906 0.0
C1763 C 0.1633 0.19406 0.52036 0.0
C1764 C 0.18096 0.21766 0.51447 0.0
C1765 C 0.15958 0.15776 0.51789 0.0
C1766 C 0.14254 0.13149 0.52406 0.0
C1767 C 0.10606 0.13439 0.52629 0.0
C1768 C 0.09034 0.10981 0.53225 0.0
C1769 C 0.11082 0.08206 0.53597 0.0
C1770 C 0.14703 0.07877 0.5337 0.0
C1771 C 0.16288 0.10332 0.52775 0.0
H1772 H 0.09861 0.06307 0.54059 0.0
H1773 H 0.27066 0.29904 0.48595 0.0
H1774 H 0.82589 0.75384 0.72728 0.0
H1775 H 0.80438 0.73432 0.74227 0.0
H1776 H 0.90381 0.67843 0.74687 0.0
H1777 H 0.926 0.6987 0.73203 0.0
H1778 H 0.82413 0.64084 0.74883 0.0
H1779 H 0.9065 0.73608 0.75861 0.0
H1780 H 0.92841 0.79832 0.75802 0.0
H1781 H 0.82378 0.83685 0.76522 0.0
H1782 H 0.80114 0.77479 0.76571 0.0
H1783 H 0.80814 0.57873 0.79399 0.0
H1784 H 0.82814 0.60127 0.77925 0.0
H1785 H 0.76691 0.69807 0.78339 0.0
H1786 H 0.74868 0.67639 0.7984 0.0
H1787 H 0.82524 0.71665 0.77651 0.0
H1788 H 0.74152 0.62674 0.76801 0.0
H1789 H 0.71319 0.56714 0.76776 0.0
H1790 H 0.81002 0.52108 0.75719 0.0
H1791 H 0.83911 0.58035 0.75748 0.0
C1792 C 0.8433 0.7377 0.73152 0.0
C1793 C 0.87769 0.72791 0.72849 0.0
C1794 C 0.83098 0.72658 0.74006 0.0
C1795 C 0.85255 0.70498 0.74563 0.0
C1796 C 0.88686 0.69518 0.74265 0.0
C1797 C 0.89952 0.70693 0.7342 0.0
C1798 C 0.83889 0.69178 0.75448 0.0
C1799 C 0.82471 0.65711 0.75493 0.0
C1800 C 0.83836 0.71367 0.76229 0.0
C1801 C 0.85205 0.75087 0.76208 0.0
C1802 C 0.88809 0.75785 0.75996 0.0
C1803 C 0.90066 0.79308 0.75967 0.0
C1804 C 0.87748 0.82154 0.76155 0.0
C1805 C 0.8417 0.81479 0.76375 0.0
C1806 C 0.82899 0.7796 0.76404 0.0
C1807 C 0.79872 0.6047 0.79172 0.0
C1808 C 0.77668 0.62571 0.79733 0.0
C1809 C 0.81002 0.61755 0.78325 0.0
C1810 C 0.79855 0.6512 0.78005 0.0
C1811 C 0.77622 0.67206 0.78565 0.0
C1812 C 0.76566 0.65959 0.79422 0.0
C1813 C 0.81071 0.66503 0.77103 0.0
C1814 C 0.82449 0.70003 0.77047 0.0
C1815 C 0.81 0.64365 0.76305 0.0
C1816 C 0.79259 0.60795 0.76284 0.0
C1817 C 0.75686 0.60386 0.76569 0.0
C1818 C 0.74065 0.57014 0.76553 0.0
C1819 C 0.75982 0.54033 0.76248 0.0
C1820 C 0.79521 0.5442 0.75956 0.0
C1821 C 0.81157 0.57785 0.75971 0.0
H1822 H 0.74722 0.51425 0.76237 0.0
H1823 H 0.88726 0.84879 0.76132 0.0
loop_
_geom_bond_atom_site_label_1
_geom_bond_atom_site_label_2
_geom_bond_distance
_geom_bond_site_symmetry_2
_ccdc_geom_bond_type
C0 O2 1.247 . S
C0 O4 1.258 . S
C1 O8 1.247 . S
C1 O9 1.258 . S
O2 C0 1.247 . S
O2 Zn3 2.028 . S
Zn3 O2 2.028 . S
Zn3 O7 2.035 . S
Zn3 O9 2.035 . S
Zn3 O10 2.028 . S
O4 C0 1.258 . S
O4 Zn5 2.035 . S
Zn5 O4 2.035 . S
Zn5 O6 2.028 . S
Zn5 O8 2.028 . S
Zn5 O11 2.035 . S
O6 Zn5 2.028 . S
O6 C12 1.247 . S
O7 Zn3 2.035 . S
O7 C12 1.258 . S
O8 C1 1.247 . S
O8 Zn5 2.028 . S
O9 C1 1.258 . S
O9 Zn3 2.035 . S
O10 Zn3 2.028 . S
O10 C13 1.247 . S
O11 Zn5 2.035 . S
O11 C13 1.258 . S
C12 O6 1.247 . S
C12 O7 1.258 . S
C13 O10 1.247 . S
C13 O11 1.258 . S
C14 O16 1.247 . S
C14 O18 1.258 . S
C15 O22 1.247 . S
C15 O23 1.258 . S
O16 C14 1.247 . S
O16 Zn17 2.028 . S
Zn17 O16 2.028 . S
Zn17 O21 2.035 . S
Zn17 O23 2.035 . S
Zn17 O24 2.028 . S
O18 C14 1.258 . S
O18 Zn19 2.035 . S
Zn19 O18 2.035 . S
Zn19 O20 2.028 . S
Zn19 O22 2.028 . S
Zn19 O25 2.035 . S
O20 Zn19 2.028 . S
O20 C26 1.247 . S
O21 Zn17 2.035 . S
O21 C26 1.258 . S
O22 C15 1.247 . S
O22 Zn19 2.028 . S
O23 C15 1.258 . S
O23 Zn17 2.035 . S
O24 Zn17 2.028 . S
O24 C27 1.247 . S
O25 Zn19 2.035 . S
O25 C27 1.258 . S
C26 O20 1.247 . S
C26 O21 1.258 . S
C27 O24 1.247 . S
C27 O25 1.258 . S
C28 O30 1.247 . S
C28 O32 1.258 . S
C29 O36 1.247 . S
C29 O37 1.258 . S
O30 C28 1.247 . S
O30 Zn31 2.028 . S
Zn31 O30 2.028 . S
Zn31 O35 2.035 . S
Zn31 O37 2.035 . S
Zn31 O38 2.028 . S
O32 C28 1.258 . S
O32 Zn33 2.035 . S
Zn33 O32 2.035 . S
Zn33 O34 2.028 . S
Zn33 O36 2.028 . S
Zn33 O39 2.035 . S
O34 Zn33 2.028 . S
O34 C40 1.247 . S
O35 Zn31 2.035 . S
O35 C40 1.258 . S
O36 C29 1.247 . S
O36 Zn33 2.028 . S
O37 C29 1.258 . S
O37 Zn31 2.035 . S
O38 Zn31 2.028 . S
O38 C41 1.247 . S
O39 Zn33 2.035 . S
O39 C41 1.258 . S
C40 O34 1.247 . S
C40 O35 1.258 . S
C41 O38 1.247 . S
C41 O39 1.258 . S
C42 O44 1.247 . S
C42 O46 1.258 . S
C43 O50 1.247 . S
C43 O51 1.258 . S
O44 C42 1.247 . S
O44 Zn45 2.028 . S
Zn45 O44 2.028 . S
Zn45 O49 2.035 . S
Zn45 O51 2.035 . S
Zn45 O52 2.028 . S
O46 C42 1.258 . S
O46 Zn47 2.035 . S
Zn47 O46 2.035 . S
Zn47 O48 2.028 . S
Zn47 O50 2.028 . S
Zn47 O53 2.035 . S
O48 Zn47 2.028 . S
O48 C54 1.247 . S
O49 Zn45 2.035 . S
O49 C54 1.258 . S
O50 C43 1.247 . S
O50 Zn47 2.028 . S
O51 C43 1.258 . S
O51 Zn45 2.035 . S
O52 Zn45 2.028 . S
O52 C55 1.247 . S
O53 Zn47 2.035 . S
O53 C55 1.258 . S
C54 O48 1.247 . S
C54 O49 1.258 . S
C55 O52 1.247 . S
C55 O53 1.258 . S
C56 O58 1.247 . S
C56 O60 1.258 . S
C57 O64 1.247 . S
C57 O65 1.258 . S
O58 C56 1.247 . S
O58 Zn59 2.028 . S
Zn59 O58 2.028 . S
Zn59 O63 2.035 . S
Zn59 O65 2.035 . S
Zn59 O66 2.028 . S
O60 C56 1.258 . S
O60 Zn61 2.035 . S
Zn61 O60 2.035 . S
Zn61 O62 2.028 . S
Zn61 O64 2.028 . S
Zn61 O67 2.035 . S
O62 Zn61 2.028 . S
O62 C68 1.247 . S
O63 Zn59 2.035 . S
O63 C68 1.258 . S
O64 C57 1.247 . S
O64 Zn61 2.028 . S
O65 C57 1.258 . S
O65 Zn59 2.035 . S
O66 Zn59 2.028 . S
O66 C69 1.247 . S
O67 Zn61 2.035 . S
O67 C69 1.258 . S
C68 O62 1.247 . S
C68 O63 1.258 . S
C69 O66 1.247 . S
C69 O67 1.258 . S
C70 O72 1.247 . S
C70 O74 1.258 . S
C71 O78 1.247 . S
C71 O79 1.258 . S
O72 C70 1.247 . S
O72 Zn73 2.028 . S
Zn73 O72 2.028 . S
Zn73 O77 2.035 . S
Zn73 O79 2.035 . S
Zn73 O80 2.028 . S
O74 C70 1.258 . S
O74 Zn75 2.035 . S
Zn75 O74 2.035 . S
Zn75 O76 2.028 . S
Zn75 O78 2.028 . S
Zn75 O81 2.035 . S
O76 Zn75 2.028 . S
O76 C82 1.247 . S
O77 Zn73 2.035 . S
O77 C82 1.258 . S
O78 C71 1.247 . S
O78 Zn75 2.028 . S
O79 C71 1.258 . S
O79 Zn73 2.035 . S
O80 Zn73 2.028 . S
O80 C83 1.247 . S
O81 Zn75 2.035 . S
O81 C83 1.258 . S
C82 O76 1.247 . S
C82 O77 1.258 . S
C83 O80 1.247 . S
C83 O81 1.258 . S
C84 O86 1.247 . S
C84 O88 1.258 . S
C85 O92 1.247 . S
C85 O93 1.258 . S
O86 C84 1.247 . S
O86 Zn87 2.028 . S
Zn87 O86 2.028 . S
Zn87 O91 2.035 . S
Zn87 O93 2.035 . S
Zn87 O94 2.028 . S
O88 C84 1.258 . S
O88 Zn89 2.035 . S
Zn89 O88 2.035 . S
Zn89 O90 2.028 . S
Zn89 O92 2.028 . S
Zn89 O95 2.035 . S
O90 Zn89 2.028 . S
O90 C96 1.247 . S
O91 Zn87 2.035 . S
O91 C96 1.258 . S
O92 C85 1.247 . S
O92 Zn89 2.028 . S
O93 C85 1.258 . S
O93 Zn87 2.035 . S
O94 Zn87 2.028 . S
O94 C97 1.247 . S
O95 Zn89 2.035 . S
O95 C97 1.258 . S
C96 O90 1.247 . S
C96 O91 1.258 . S
C97 O94 1.247 . S
C97 O95 1.258 . S
C98 O100 1.247 . S
C98 O102 1.258 . S
C99 O106 1.247 . S
C99 O107 1.258 . S
O100 C98 1.247 . S
O100 Zn101 2.028 . S
Zn101 O100 2.028 . S
Zn101 O105 2.035 . S
Zn101 O107 2.035 . S
Zn101 O108 2.028 . S
O102 C98 1.258 . S
O102 Zn103 2.035 . S
Zn103 O102 2.035 . S
Zn103 O104 2.028 . S
Zn103 O106 2.028 . S
Zn103 O109 2.035 . S
O104 Zn103 2.028 . S
O104 C110 1.247 . S
O105 Zn101 2.035 . S
O105 C110 1.258 . S
O106 C99 1.247 . S
O106 Zn103 2.028 . S
O107 C99 1.258 . S
O107 Zn101 2.035 . S
O108 Zn101 2.028 . S
O108 C111 1.247 . S
O109 Zn103 2.035 . S
O109 C111 1.258 . S
C110 O104 1.247 . S
C110 O105 1.258 . S
C111 O108 1.247 . S
C111 O109 1.258 . S
C112 O114 1.247 . S
C112 O116 1.258 . S
C113 O120 1.247 . S
C113 O121 1.258 . S
O114 C112 1.247 . S
O114 Zn115 2.028 . S
Zn115 O114 2.028 . S
Zn115 O119 2.035 . S
Zn115 O121 2.035 . S
Zn115 O122 2.028 . S
O116 C112 1.258 . S
O116 Zn117 2.035 . S
Zn117 O116 2.035 . S
Zn117 O118 2.028 . S
Zn117 O120 2.028 . S
Zn117 O123 2.035 . S
O118 Zn117 2.028 . S
O118 C124 1.247 . S
O119 Zn115 2.035 . S
O119 C124 1.258 . S
O120 C113 1.247 . S
O120 Zn117 2.028 . S
O121 C113 1.258 . S
O121 Zn115 2.035 . S
O122 Zn115 2.028 . S
O122 C125 1.247 . S
O123 Zn117 2.035 . S
O123 C125 1.258 . S
C124 O118 1.247 . S
C124 O119 1.258 . S
C125 O122 1.247 . S
C125 O123 1.258 . S
C126 O128 1.247 . S
C126 O130 1.258 . S
C127 O134 1.247 . S
C127 O135 1.258 . S
O128 C126 1.247 . S
O128 Zn129 2.028 . S
Zn129 O128 2.028 . S
Zn129 O133 2.035 . S
Zn129 O135 2.035 . S
Zn129 O136 2.028 . S
O130 C126 1.258 . S
O130 Zn131 2.035 . S
Zn131 O130 2.035 . S
Zn131 O132 2.028 . S
Zn131 O134 2.028 . S
Zn131 O137 2.035 . S
O132 Zn131 2.028 . S
O132 C138 1.247 . S
O133 Zn129 2.035 . S
O133 C138 1.258 . S
O134 C127 1.247 . S
O134 Zn131 2.028 . S
O135 C127 1.258 . S
O135 Zn129 2.035 . S
O136 Zn129 2.028 . S
O136 C139 1.247 . S
O137 Zn131 2.035 . S
O137 C139 1.258 . S
C138 O132 1.247 . S
C138 O133 1.258 . S
C139 O136 1.247 . S
C139 O137 1.258 . S
C140 O142 1.247 . S
C140 O144 1.258 . S
C141 O148 1.247 . S
C141 O149 1.258 . S
O142 C140 1.247 . S
O142 Zn143 2.028 . S
Zn143 O142 2.028 . S
Zn143 O147 2.035 . S
Zn143 O149 2.035 . S
Zn143 O150 2.028 . S
O144 C140 1.258 . S
O144 Zn145 2.035 . S
Zn145 O144 2.035 . S
Zn145 O146 2.028 . S
Zn145 O148 2.028 . S
Zn145 O151 2.035 . S
O146 Zn145 2.028 . S
O146 C152 1.247 . S
O147 Zn143 2.035 . S
O147 C152 1.258 . S
O148 C141 1.247 . S
O148 Zn145 2.028 . S
O149 C141 1.258 . S
O149 Zn143 2.035 . S
O150 Zn143 2.028 . S
O150 C153 1.247 . S
O151 Zn145 2.035 . S
O151 C153 1.258 . S
C152 O146 1.247 . S
C152 O147 1.258 . S
C153 O150 1.247 . S
C153 O151 1.258 . S
C154 O156 1.247 . S
C154 O158 1.258 . S
C155 O162 1.247 . S
C155 O163 1.258 . S
O156 C154 1.247 . S
O156 Zn157 2.028 . S
Zn157 O156 2.028 . S
Zn157 O161 2.035 . S
Zn157 O163 2.035 . S
Zn157 O164 2.028 . S
O158 C154 1.258 . S
O158 Zn159 2.035 . S
Zn159 O158 2.035 . S
Zn159 O160 2.028 . S
Zn159 O162 2.028 . S
Zn159 O165 2.035 . S
O160 Zn159 2.028 . S
O160 C166 1.247 . S
O161 Zn157 2.035 . S
O161 C166 1.258 . S
O162 C155 1.247 . S
O162 Zn159 2.028 . S
O163 C155 1.258 . S
O163 Zn157 2.035 . S
O164 Zn157 2.028 . S
O164 C167 1.247 . S
O165 Zn159 2.035 . S
O165 C167 1.258 . S
C166 O160 1.247 . S
C166 O161 1.258 . S
C167 O164 1.247 . S
C167 O165 1.258 . S
C168 O170 1.247 . S
C168 O172 1.258 . S
C169 O176 1.247 . S
C169 O177 1.258 . S
O170 C168 1.247 . S
O170 Zn171 2.028 . S
Zn171 O170 2.028 . S
Zn171 O175 2.035 . S
Zn171 O177 2.035 . S
Zn171 O178 2.028 . S
O172 C168 1.258 . S
O172 Zn173 2.035 . S
Zn173 O172 2.035 . S
Zn173 O174 2.028 . S
Zn173 O176 2.028 . S
Zn173 O179 2.035 . S
O174 Zn173 2.028 . S
O174 C180 1.247 . S
O175 Zn171 2.035 . S
O175 C180 1.258 . S
O176 C169 1.247 . S
O176 Zn173 2.028 . S
O177 C169 1.258 . S
O177 Zn171 2.035 . S
O178 Zn171 2.028 . S
O178 C181 1.247 . S
O179 Zn173 2.035 . S
O179 C181 1.258 . S
C180 O174 1.247 . S
C180 O175 1.258 . S
C181 O178 1.247 . S
C181 O179 1.258 . S
C182 O184 1.247 . S
C182 O186 1.258 . S
C183 O190 1.247 . S
C183 O191 1.258 . S
O184 C182 1.247 . S
O184 Zn185 2.028 . S
Zn185 O184 2.028 . S
Zn185 O189 2.035 . S
Zn185 O191 2.035 . S
Zn185 O192 2.028 . S
O186 C182 1.258 . S
O186 Zn187 2.035 . S
Zn187 O186 2.035 . S
Zn187 O188 2.028 . S
Zn187 O190 2.028 . S
Zn187 O193 2.035 . S
O188 Zn187 2.028 . S
O188 C194 1.247 . S
O189 Zn185 2.035 . S
O189 C194 1.258 . S
O190 C183 1.247 . S
O190 Zn187 2.028 . S
O191 C183 1.258 . S
O191 Zn185 2.035 . S
O192 Zn185 2.028 . S
O192 C195 1.247 . S
O193 Zn187 2.035 . S
O193 C195 1.258 . S
C194 O188 1.247 . S
C194 O189 1.258 . S
C195 O192 1.247 . S
C195 O193 1.258 . S
C196 O198 1.247 . S
C196 O200 1.258 . S
C197 O204 1.247 . S
C197 O205 1.258 . S
O198 C196 1.247 . S
O198 Zn199 2.028 . S
Zn199 O198 2.028 . S
Zn199 O203 2.035 . S
Zn199 O205 2.035 . S
Zn199 O206 2.028 . S
O200 C196 1.258 . S
O200 Zn201 2.035 . S
Zn201 O200 2.035 . S
Zn201 O202 2.028 . S
Zn201 O204 2.028 . S
Zn201 O207 2.035 . S
O202 Zn201 2.028 . S
O202 C208 1.247 . S
O203 Zn199 2.035 . S
O203 C208 1.258 . S
O204 C197 1.247 . S
O204 Zn201 2.028 . S
O205 C197 1.258 . S
O205 Zn199 2.035 . S
O206 Zn199 2.028 . S
O206 C209 1.247 . S
O207 Zn201 2.035 . S
O207 C209 1.258 . S
C208 O202 1.247 . S
C208 O203 1.258 . S
C209 O206 1.247 . S
C209 O207 1.258 . S
C210 O212 1.247 . S
C210 O214 1.258 . S
C211 O218 1.247 . S
C211 O219 1.258 . S
O212 C210 1.247 . S
O212 Zn213 2.028 . S
Zn213 O212 2.028 . S
Zn213 O217 2.035 . S
Zn213 O219 2.035 . S
Zn213 O220 2.028 . S
O214 C210 1.258 . S
O214 Zn215 2.035 . S
Zn215 O214 2.035 . S
Zn215 O216 2.028 . S
Zn215 O218 2.028 . S
Zn215 O221 2.035 . S
O216 Zn215 2.028 . S
O216 C222 1.247 . S
O217 Zn213 2.035 . S
O217 C222 1.258 . S
O218 C211 1.247 . S
O218 Zn215 2.028 . S
O219 C211 1.258 . S
O219 Zn213 2.035 . S
O220 Zn213 2.028 . S
O220 C223 1.247 . S
O221 Zn215 2.035 . S
O221 C223 1.258 . S
C222 O216 1.247 . S
C222 O217 1.258 . S
C223 O220 1.247 . S
C223 O221 1.258 . S
H224 C242 0.951 . S
H225 C244 0.951 . S
H226 C246 0.950 1_545 S
H227 C247 0.950 . S
H228 C249 0.950 . S
H229 C252 0.950 . S
H230 C253 0.950 . S
H231 C255 0.950 . S
H232 C256 0.950 . S
H233 C257 0.951 . S
H234 C259 0.951 . S
H235 C261 0.950 1_565 S
H236 C262 0.950 . S
H237 C264 0.950 . S
H238 C267 0.950 . S
H239 C268 0.950 . S
H240 C270 0.950 . S
H241 C271 0.950 . S
C242 H224 0.951 . S
C242 C243 1.366 . S
C242 C244 1.388 . S
C243 C242 1.366 . S
C243 C247 1.385 . S
C244 H225 0.951 . S
C244 C242 1.388 . S
C244 C245 1.366 . S
C245 C244 1.366 . S
C245 C246 1.414 . S
C245 C248 1.499 . S
C246 H226 0.950 1_565 S
C246 C245 1.414 . S
C246 C247 1.374 . S
C247 H227 0.950 . S
C247 C243 1.385 . S
C247 C246 1.374 . S
C248 C245 1.499 . S
C248 C249 1.373 1_565 S
C248 C250 1.389 . S
C249 H228 0.950 . S
C249 C248 1.373 1_545 S
C249 C265 1.377 1_655 S
C250 C248 1.389 . S
C250 C251 1.524 . S
C250 C264 1.377 1_655 S
C251 C250 1.524 . S
C251 C252 1.397 . S
C251 C256 1.363 1_655 S
C252 H229 0.950 . S
C252 C251 1.397 . S
C252 C253 1.334 . S
C253 H230 0.950 . S
C253 C252 1.334 . S
C253 C254 1.287 . S
C254 C253 1.287 . S
C254 C255 1.524 1_655 S
C254 H273 0.913 . S
C255 H231 0.950 . S
C255 C254 1.524 1_455 S
C255 C256 1.415 . S
C256 H232 0.950 . S
C256 C251 1.363 1_455 S
C256 C255 1.415 . S
C257 H233 0.951 . S
C257 C258 1.366 . S
C257 C259 1.388 . S
C258 C257 1.366 . S
C258 C262 1.385 . S
C259 H234 0.951 . S
C259 C257 1.388 . S
C259 C260 1.366 . S
C260 C259 1.366 . S
C260 C261 1.414 . S
C260 C263 1.499 . S
C261 H235 0.950 1_545 S
C261 C260 1.414 . S
C261 C262 1.374 . S
C262 H236 0.950 . S
C262 C258 1.385 . S
C262 C261 1.374 . S
C263 C260 1.499 . S
C263 C264 1.373 1_545 S
C263 C265 1.389 . S
C264 H237 0.950 . S
C264 C250 1.377 1_455 S
C264 C263 1.373 1_565 S
C265 C249 1.377 1_455 S
C265 C263 1.389 . S
C265 C266 1.524 . S
C266 C265 1.524 . S
C266 C267 1.397 . S
C266 C271 1.363 1_455 S
C267 H238 0.950 . S
C267 C266 1.397 . S
C267 C268 1.334 . S
C268 H239 0.950 . S
C268 C267 1.334 . S
C268 C269 1.287 . S
C269 C268 1.287 . S
C269 C270 1.524 1_455 S
C269 H272 0.999 . S
C270 H240 0.950 . S
C270 C269 1.524 1_655 S
C270 C271 1.415 . S
C271 H241 0.950 . S
C271 C266 1.363 1_655 S
C271 C270 1.415 . S
H272 C269 0.999 . S
H273 C254 0.913 . S
H274 C292 0.951 . S
H275 C294 0.951 . S
H276 C296 0.950 . S
H277 C297 0.950 . S
H278 C299 0.950 . S
H279 C302 0.950 . S
H280 C303 0.950 . S
H281 C305 0.950 . S
H282 C306 0.950 . S
H283 C307 0.951 . S
H284 C309 0.951 . S
H285 C311 0.950 . S
H286 C312 0.950 . S
H287 C314 0.950 . S
H288 C317 0.950 . S
H289 C318 0.950 . S
H290 C320 0.950 . S
H291 C321 0.950 . S
C292 H274 0.951 . S
C292 C293 1.366 . S
C292 C294 1.388 . S
C293 C292 1.366 . S
C293 C297 1.385 . S
C294 H275 0.951 . S
C294 C292 1.388 . S
C294 C295 1.366 . S
C295 C294 1.366 . S
C295 C296 1.414 . S
C295 C298 1.499 . S
C296 H276 0.950 . S
C296 C295 1.414 . S
C296 C297 1.374 . S
C297 H277 0.950 . S
C297 C293 1.385 . S
C297 C296 1.374 . S
C298 C295 1.499 . S
C298 C299 1.373 . S
C298 C300 1.389 1_655 S
C299 H278 0.950 . S
C299 C298 1.373 . S
C299 C315 1.377 . S
C300 C298 1.389 1_455 S
C300 C301 1.524 . S
C300 C314 1.377 . S
C301 C300 1.524 . S
C301 C302 1.397 . S
C301 C306 1.363 . S
C302 H279 0.950 . S
C302 C301 1.397 . S
C302 C303 1.334 . S
C303 H280 0.950 . S
C303 C302 1.334 . S
C303 C304 1.287 . S
C304 C303 1.287 . S
C304 C305 1.524 . S
C304 H323 0.913 . S
C305 H281 0.950 . S
C305 C304 1.524 . S
C305 C306 1.415 . S
C306 H282 0.950 . S
C306 C301 1.363 . S
C306 C305 1.415 . S
C307 H283 0.951 . S
C307 C308 1.366 . S
C307 C309 1.388 . S
C308 C307 1.366 . S
C308 C312 1.385 . S
C309 H284 0.951 . S
C309 C307 1.388 . S
C309 C310 1.366 . S
C310 C309 1.366 . S
C310 C311 1.414 . S
C310 C313 1.499 . S
C311 H285 0.950 . S
C311 C310 1.414 . S
C311 C312 1.374 . S
C312 H286 0.950 . S
C312 C308 1.385 . S
C312 C311 1.374 . S
C313 C310 1.499 . S
C313 C314 1.373 . S
C313 C315 1.389 1_455 S
C314 H287 0.950 . S
C314 C300 1.377 . S
C314 C313 1.373 . S
C315 C299 1.377 . S
C315 C313 1.389 1_655 S
C315 C316 1.524 . S
C316 C315 1.524 . S
C316 C317 1.397 . S
C316 C321 1.363 . S
C317 H288 0.950 . S
C317 C316 1.397 . S
C317 C318 1.334 . S
C318 H289 0.950 . S
C318 C317 1.334 . S
C318 C319 1.287 . S
C319 C318 1.287 . S
C319 C320 1.524 . S
C319 H322 0.999 . S
C320 H290 0.950 . S
C320 C319 1.524 . S
C320 C321 1.415 . S
C321 H291 0.950 . S
C321 C316 1.363 . S
C321 C320 1.415 . S
H322 C319 0.999 . S
H323 C304 0.913 . S
H324 C342 0.951 . S
H325 C344 0.951 . S
H326 C346 0.950 . S
H327 C347 0.950 . S
H328 C349 0.950 . S
H329 C352 0.950 . S
H330 C353 0.950 . S
H331 C355 0.950 . S
H332 C356 0.950 . S
H333 C357 0.951 . S
H334 C359 0.951 . S
H335 C361 0.950 . S
H336 C362 0.950 . S
H337 C364 0.950 . S
H338 C367 0.950 . S
H339 C368 0.950 . S
H340 C370 0.950 . S
H341 C371 0.950 . S
C342 H324 0.951 . S
C342 C343 1.366 . S
C342 C344 1.388 . S
C343 C342 1.366 . S
C343 C347 1.385 . S
C344 H325 0.951 . S
C344 C342 1.388 . S
C344 C345 1.366 . S
C345 C344 1.366 . S
C345 C346 1.414 . S
C345 C348 1.499 . S
C346 H326 0.950 . S
C346 C345 1.414 . S
C346 C347 1.374 . S
C347 H327 0.950 . S
C347 C343 1.385 . S
C347 C346 1.374 . S
C348 C345 1.499 . S
C348 C349 1.373 . S
C348 C350 1.389 . S
C349 H328 0.950 . S
C349 C348 1.373 . S
C349 C365 1.377 . S
C350 C348 1.389 . S
C350 C351 1.524 . S
C350 C364 1.377 . S
C351 C350 1.524 . S
C351 C352 1.397 . S
C351 C356 1.363 . S
C352 H329 0.950 . S
C352 C351 1.397 . S
C352 C353 1.334 . S
C353 H330 0.950 . S
C353 C352 1.334 . S
C353 C354 1.287 . S
C354 C353 1.287 . S
C354 C355 1.524 . S
C354 H373 0.913 . S
C355 H331 0.950 . S
C355 C354 1.524 . S
C355 C356 1.415 . S
C356 H332 0.950 . S
C356 C351 1.363 . S
C356 C355 1.415 . S
C357 H333 0.951 . S
C357 C358 1.366 . S
C357 C359 1.388 . S
C358 C357 1.366 . S
C358 C362 1.385 . S
C359 H334 0.951 . S
C359 C357 1.388 . S
C359 C360 1.366 . S
C360 C359 1.366 . S
C360 C361 1.414 . S
C360 C363 1.499 . S
C361 H335 0.950 . S
C361 C360 1.414 . S
C361 C362 1.374 . S
C362 H336 0.950 . S
C362 C358 1.385 . S
C362 C361 1.374 . S
C363 C360 1.499 . S
C363 C364 1.373 . S
C363 C365 1.389 . S
C364 H337 0.950 . S
C364 C350 1.377 . S
C364 C363 1.373 . S
C365 C349 1.377 . S
C365 C363 1.389 . S
C365 C366 1.524 . S
C366 C365 1.524 . S
C366 C367 1.397 . S
C366 C371 1.363 . S
C367 H338 0.950 . S
C367 C366 1.397 . S
C367 C368 1.334 . S
C368 H339 0.950 . S
C368 C367 1.334 . S
C368 C369 1.287 . S
C369 C368 1.287 . S
C369 C370 1.524 . S
C369 H372 0.999 . S
C370 H340 0.950 . S
C370 C369 1.524 . S
C370 C371 1.415 . S
C371 H341 0.950 . S
C371 C366 1.363 . S
C371 C370 1.415 . S
H372 C369 0.999 . S
H373 C354 0.913 . S
H374 C392 0.951 . S
H375 C394 0.951 . S
H376 C396 0.950 . S
H377 C397 0.950 . S
H378 C399 0.950 . S
H379 C402 0.950 . S
H380 C403 0.950 . S
H381 C405 0.965 . S
H382 C406 0.950 1_565 S
H383 C407 0.951 . S
H384 C409 0.951 . S
H385 C411 0.950 . S
H386 C412 0.950 . S
H387 C414 0.950 . S
H388 C417 0.950 . S
H389 C418 0.950 . S
H390 C420 0.965 . S
H391 C421 0.950 1_545 S
C392 H374 0.951 . S
C392 C393 1.366 . S
C392 C394 1.388 . S
C393 C392 1.366 . S
C393 C397 1.385 . S
C394 H375 0.951 . S
C394 C392 1.388 . S
C394 C395 1.366 . S
C395 C394 1.366 . S
C395 C396 1.414 . S
C395 C398 1.499 . S
C396 H376 0.950 . S
C396 C395 1.414 . S
C396 C397 1.374 . S
C397 H377 0.950 . S
C397 C393 1.385 . S
C397 C396 1.374 . S
C398 C395 1.499 . S
C398 C399 1.373 . S
C398 C400 1.389 . S
C399 H378 0.950 . S
C399 C398 1.373 . S
C399 C415 1.377 1_545 S
C400 C398 1.389 . S
C400 C401 1.524 . S
C400 C414 1.377 1_545 S
C401 C400 1.524 . S
C401 C402 1.397 . S
C401 C406 1.363 . S
C402 H379 0.950 . S
C402 C401 1.397 . S
C402 C403 1.334 . S
C403 H380 0.950 . S
C403 C402 1.334 . S
C403 C404 1.287 . S
C404 C403 1.287 . S
C404 C405 1.524 . S
C404 H423 0.913 . S
C405 H381 0.965 . S
C405 C404 1.524 . S
C405 C406 1.415 . S
C406 H382 0.950 1_545 S
C406 C401 1.363 . S
C406 C405 1.415 . S
C407 H383 0.951 . S
C407 C408 1.366 . S
C407 C409 1.388 . S
C408 C407 1.366 . S
C408 C412 1.385 . S
C409 H384 0.951 . S
C409 C407 1.388 . S
C409 C410 1.366 . S
C410 C409 1.366 . S
C410 C411 1.414 . S
C410 C413 1.499 . S
C411 H385 0.950 . S
C411 C410 1.414 . S
C411 C412 1.374 . S
C412 H386 0.950 . S
C412 C408 1.385 . S
C412 C411 1.374 . S
C413 C410 1.499 . S
C413 C414 1.373 . S
C413 C415 1.389 . S
C414 H387 0.950 . S
C414 C400 1.377 1_565 S
C414 C413 1.373 . S
C415 C399 1.377 1_565 S
C415 C413 1.389 . S
C415 C416 1.524 . S
C416 C415 1.524 . S
C416 C417 1.397 . S
C416 C421 1.363 . S
C417 H388 0.950 . S
C417 C416 1.397 . S
C417 C418 1.334 . S
C418 H389 0.950 . S
C418 C417 1.334 . S
C418 C419 1.287 . S
C419 C418 1.287 . S
C419 C420 1.524 . S
C419 H422 0.999 . S
C420 H390 0.965 . S
C420 C419 1.524 . S
C420 C421 1.415 . S
C421 H391 0.950 1_565 S
C421 C416 1.363 . S
C421 C420 1.415 . S
H422 C419 0.999 . S
H423 C404 0.913 . S
H424 C442 0.951 . S
H425 C444 0.951 . S
H426 C446 0.950 . S
H427 C447 0.950 . S
H428 C449 0.950 . S
H429 C452 0.950 . S
H430 C453 0.950 . S
H431 C455 0.950 . S
H432 C456 0.950 . S
H433 C457 0.951 . S
H434 C459 0.951 . S
H435 C461 0.950 . S
H436 C462 0.950 . S
H437 C464 0.950 . S
H438 C467 0.950 . S
H439 C468 0.950 . S
H440 C470 0.950 . S
H441 C471 0.950 . S
C442 H424 0.951 . S
C442 C443 1.366 . S
C442 C444 1.388 . S
C443 C442 1.366 . S
C443 C447 1.385 . S
C444 H425 0.951 . S
C444 C442 1.388 . S
C444 C445 1.366 . S
C445 C444 1.366 . S
C445 C446 1.414 . S
C445 C448 1.499 . S
C446 H426 0.950 . S
C446 C445 1.414 . S
C446 C447 1.374 . S
C447 H427 0.950 . S
C447 C443 1.385 . S
C447 C446 1.374 . S
C448 C445 1.499 . S
C448 C449 1.373 . S
C448 C450 1.389 . S
C449 H428 0.950 . S
C449 C448 1.373 . S
C449 C465 1.377 1_455 S
C450 C448 1.389 . S
C450 C451 1.524 . S
C450 C464 1.377 1_455 S
C451 C450 1.524 . S
C451 C452 1.397 . S
C451 C456 1.363 . S
C452 H429 0.950 . S
C452 C451 1.397 . S
C452 C453 1.334 . S
C453 H430 0.950 . S
C453 C452 1.334 . S
C453 C454 1.287 . S
C454 C453 1.287 . S
C454 C455 1.524 . S
C454 H473 0.913 . S
C455 H431 0.950 . S
C455 C454 1.524 . S
C455 C456 1.415 . S
C456 H432 0.950 . S
C456 C451 1.363 . S
C456 C455 1.415 . S
C457 H433 0.951 . S
C457 C458 1.366 . S
C457 C459 1.388 . S
C458 C457 1.366 . S
C458 C462 1.385 . S
C459 H434 0.951 . S
C459 C457 1.388 . S
C459 C460 1.366 . S
C460 C459 1.366 . S
C460 C461 1.414 . S
C460 C463 1.499 . S
C461 H435 0.950 . S
C461 C460 1.414 . S
C461 C462 1.374 . S
C462 H436 0.950 . S
C462 C458 1.385 . S
C462 C461 1.374 . S
C463 C460 1.499 . S
C463 C464 1.373 . S
C463 C465 1.389 . S
C464 H437 0.950 . S
C464 C450 1.377 1_655 S
C464 C463 1.373 . S
C465 C449 1.377 1_655 S
C465 C463 1.389 . S
C465 C466 1.524 . S
C466 C465 1.524 . S
C466 C467 1.397 . S
C466 C471 1.363 . S
C467 H438 0.950 . S
C467 C466 1.397 . S
C467 C468 1.334 . S
C468 H439 0.950 . S
C468 C467 1.334 . S
C468 C469 1.287 . S
C469 C468 1.287 . S
C469 C470 1.524 . S
C469 H472 0.999 . S
C470 H440 0.950 . S
C470 C469 1.524 . S
C470 C471 1.415 . S
C471 H441 0.950 . S
C471 C466 1.363 . S
C471 C470 1.415 . S
H472 C469 0.999 . S
H473 C454 0.913 . S
H474 C492 0.951 . S
H475 C494 0.951 . S
H476 C496 0.950 . S
H477 C497 0.950 . S
H478 C499 0.950 . S
H479 C502 0.950 . S
H480 C503 0.950 . S
H481 C505 0.950 . S
H482 C506 0.950 . S
H483 C507 0.951 . S
H484 C509 0.951 . S
H485 C511 0.950 . S
H486 C512 0.950 . S
H487 C514 0.950 . S
H488 C517 0.950 . S
H489 C518 0.950 . S
H490 C520 0.950 . S
H491 C521 0.950 . S
C492 H474 0.951 . S
C492 C493 1.366 . S
C492 C494 1.388 . S
C493 C492 1.366 . S
C493 C497 1.385 . S
C494 H475 0.951 . S
C494 C492 1.388 . S
C494 C495 1.366 . S
C495 C494 1.366 . S
C495 C496 1.414 . S
C495 C498 1.499 . S
C496 H476 0.950 . S
C496 C495 1.414 . S
C496 C497 1.374 . S
C497 H477 0.950 . S
C497 C493 1.385 . S
C497 C496 1.374 . S
C498 C495 1.499 . S
C498 C499 1.373 . S
C498 C500 1.389 . S
C499 H478 0.950 . S
C499 C498 1.373 . S
C499 C515 1.377 . S
C500 C498 1.389 . S
C500 C501 1.524 . S
C500 C514 1.377 . S
C501 C500 1.524 . S
C501 C502 1.397 . S
C501 C506 1.363 . S
C502 H479 0.950 . S
C502 C501 1.397 . S
C502 C503 1.334 . S
C503 H480 0.950 . S
C503 C502 1.334 . S
C503 C504 1.287 . S
C504 C503 1.287 . S
C504 C505 1.524 . S
C504 H523 0.913 . S
C505 H481 0.950 . S
C505 C504 1.524 . S
C505 C506 1.415 . S
C506 H482 0.950 . S
C506 C501 1.363 . S
C506 C505 1.415 . S
C507 H483 0.951 . S
C507 C508 1.366 . S
C507 C509 1.388 . S
C508 C507 1.366 . S
C508 C512 1.385 . S
C509 H484 0.951 . S
C509 C507 1.388 . S
C509 C510 1.366 . S
C510 C509 1.366 . S
C510 C511 1.414 . S
C510 C513 1.499 . S
C511 H485 0.950 . S
C511 C510 1.414 . S
C511 C512 1.374 . S
C512 H486 0.950 . S
C512 C508 1.385 . S
C512 C511 1.374 . S
C513 C510 1.499 . S
C513 C514 1.373 . S
C513 C515 1.389 . S
C514 H487 0.950 . S
C514 C500 1.377 . S
C514 C513 1.373 . S
C515 C499 1.377 . S
C515 C513 1.389 . S
C515 C516 1.524 . S
C516 C515 1.524 . S
C516 C517 1.397 . S
C516 C521 1.363 . S
C517 H488 0.950 . S
C517 C516 1.397 . S
C517 C518 1.334 . S
C518 H489 0.950 . S
C518 C517 1.334 . S
C518 C519 1.287 . S
C519 C518 1.287 . S
C519 C520 1.524 . S
C519 H522 0.999 . S
C520 H490 0.950 . S
C520 C519 1.524 . S
C520 C521 1.415 . S
C521 H491 0.950 . S
C521 C516 1.363 . S
C521 C520 1.415 . S
H522 C519 0.999 . S
H523 C504 0.913 . S
H524 C542 0.951 . S
H525 C544 0.940 1_565 S
H526 C546 0.950 . S
H527 C547 0.950 . S
H528 C549 0.950 . S
H529 C552 0.950 . S
H530 C553 0.950 . S
H531 C555 0.957 . S
H532 C556 0.950 . S
H533 C557 0.951 . S
H534 C559 0.940 1_545 S
H535 C561 0.950 . S
H536 C562 0.950 . S
H537 C564 0.950 . S
H538 C567 0.950 . S
H539 C568 0.950 . S
H540 C570 0.957 . S
H541 C571 0.950 . S
C542 H524 0.951 . S
C542 C543 1.366 . S
C542 C544 1.388 . S
C543 C542 1.366 . S
C543 C547 1.385 . S
C544 H525 0.940 1_545 S
C544 C542 1.388 . S
C544 C545 1.366 . S
C545 C544 1.366 . S
C545 C546 1.414 . S
C545 C548 1.499 . S
C546 H526 0.950 . S
C546 C545 1.414 . S
C546 C547 1.374 . S
C547 H527 0.950 . S
C547 C543 1.385 . S
C547 C546 1.374 . S
C548 C545 1.499 . S
C548 C549 1.373 . S
C548 C550 1.389 . S
C549 H528 0.950 . S
C549 C548 1.373 . S
C549 C565 1.377 1_545 S
C550 C548 1.389 . S
C550 C551 1.524 . S
C550 C564 1.377 1_545 S
C551 C550 1.524 . S
C551 C552 1.397 . S
C551 C556 1.363 1_545 S
C552 H529 0.950 . S
C552 C551 1.397 . S
C552 C553 1.334 . S
C553 H530 0.950 . S
C553 C552 1.334 . S
C553 C554 1.287 . S
C554 C553 1.287 . S
C554 C555 1.512 1_545 S
C554 H573 0.913 . S
C555 H531 0.957 . S
C555 C554 1.512 1_565 S
C555 C556 1.418 . S
C556 H532 0.950 . S
C556 C551 1.363 1_565 S
C556 C555 1.418 . S
C557 H533 0.951 . S
C557 C558 1.366 . S
C557 C559 1.388 . S
C558 C557 1.366 . S
C558 C562 1.385 . S
C559 H534 0.940 1_565 S
C559 C557 1.388 . S
C559 C560 1.366 . S
C560 C559 1.366 . S
C560 C561 1.414 . S
C560 C563 1.499 . S
C561 H535 0.950 . S
C561 C560 1.414 . S
C561 C562 1.374 . S
C562 H536 0.950 . S
C562 C558 1.385 . S
C562 C561 1.374 . S
C563 C560 1.499 . S
C563 C564 1.373 . S
C563 C565 1.389 . S
C564 H537 0.950 . S
C564 C550 1.377 1_565 S
C564 C563 1.373 . S
C565 C549 1.377 1_565 S
C565 C563 1.389 . S
C565 C566 1.524 . S
C566 C565 1.524 . S
C566 C567 1.397 . S
C566 C571 1.363 1_565 S
C567 H538 0.950 . S
C567 C566 1.397 . S
C567 C568 1.334 . S
C568 H539 0.950 . S
C568 C567 1.334 . S
C568 C569 1.287 . S
C569 C568 1.287 . S
C569 C570 1.512 1_565 S
C569 H572 0.999 . S
C570 H540 0.957 . S
C570 C569 1.512 1_545 S
C570 C571 1.418 . S
C571 H541 0.950 . S
C571 C566 1.363 1_545 S
C571 C570 1.418 . S
H572 C569 0.999 . S
H573 C554 0.913 . S
H574 C592 0.951 . S
H575 C594 0.951 . S
H576 C596 0.950 1_655 S
H577 C597 0.950 . S
H578 C599 0.950 . S
H579 C602 0.950 . S
H580 C603 0.950 . S
H581 C605 0.950 . S
H582 C606 0.950 . S
H583 C607 0.951 . S
H584 C609 0.951 . S
H585 C611 0.950 1_455 S
H586 C612 0.950 . S
H587 C614 0.950 . S
H588 C617 0.950 . S
H589 C618 0.950 . S
H590 C620 0.950 . S
H591 C621 0.950 . S
C592 H574 0.951 . S
C592 C593 1.366 . S
C592 C594 1.388 . S
C593 C592 1.366 . S
C593 C597 1.385 . S
C594 H575 0.951 . S
C594 C592 1.388 . S
C594 C595 1.366 . S
C595 C594 1.366 . S
C595 C596 1.414 . S
C595 C598 1.499 . S
C596 H576 0.950 1_455 S
C596 C595 1.414 . S
C596 C597 1.374 . S
C597 H577 0.950 . S
C597 C593 1.385 . S
C597 C596 1.374 . S
C598 C595 1.499 . S
C598 C599 1.373 1_455 S
C598 C600 1.389 . S
C599 H578 0.950 . S
C599 C598 1.373 1_655 S
C599 C615 1.377 1_545 S
C600 C598 1.389 . S
C600 C601 1.524 . S
C600 C614 1.377 1_545 S
C601 C600 1.524 . S
C601 C602 1.397 . S
C601 C606 1.363 1_545 S
C602 H579 0.950 . S
C602 C601 1.397 . S
C602 C603 1.334 . S
C603 H580 0.950 . S
C603 C602 1.334 . S
C603 C604 1.287 . S
C604 C603 1.287 . S
C604 C605 1.524 1_545 S
C604 H623 0.913 . S
C605 H581 0.950 . S
C605 C604 1.524 1_565 S
C605 C606 1.415 . S
C606 H582 0.950 . S
C606 C601 1.363 1_565 S
C606 C605 1.415 . S
C607 H583 0.951 . S
C607 C608 1.366 . S
C607 C609 1.388 . S
C608 C607 1.366 . S
C608 C612 1.385 . S
C609 H584 0.951 . S
C609 C607 1.388 . S
C609 C610 1.366 . S
C610 C609 1.366 . S
C610 C611 1.414 . S
C610 C613 1.499 . S
C611 H585 0.950 1_655 S
C611 C610 1.414 . S
C611 C612 1.374 . S
C612 H586 0.950 . S
C612 C608 1.385 . S
C612 C611 1.374 . S
C613 C610 1.499 . S
C613 C614 1.373 1_655 S
C613 C615 1.389 . S
C614 H587 0.950 . S
C614 C600 1.377 1_565 S
C614 C613 1.373 1_455 S
C615 C599 1.377 1_565 S
C615 C613 1.389 . S
C615 C616 1.524 . S
C616 C615 1.524 . S
C616 C617 1.397 . S
C616 C621 1.363 1_565 S
C617 H588 0.950 . S
C617 C616 1.397 . S
C617 C618 1.334 . S
C618 H589 0.950 . S
C618 C617 1.334 . S
C618 C619 1.287 . S
C619 C618 1.287 . S
C619 C620 1.524 1_565 S
C619 H622 0.999 . S
C620 H590 0.950 . S
C620 C619 1.524 1_545 S
C620 C621 1.415 . S
C621 H591 0.950 . S
C621 C616 1.363 1_545 S
C621 C620 1.415 . S
H622 C619 0.999 . S
H623 C604 0.913 . S
H624 C642 0.951 . S
H625 C644 0.951 . S
H626 C646 0.950 . S
H627 C647 0.950 . S
H628 C649 0.951 . S
H629 C652 0.950 . S
H630 C653 0.950 . S
H631 C655 0.950 . S
H632 C656 0.950 . S
H633 C657 0.951 . S
H634 C659 0.951 . S
H635 C661 0.950 . S
H636 C662 0.950 . S
H637 C664 0.951 . S
H638 C667 0.950 . S
H639 C668 0.950 . S
H640 C670 0.950 . S
H641 C671 0.950 . S
C642 H624 0.951 . S
C642 C643 1.366 . S
C642 C644 1.388 . S
C643 C642 1.366 . S
C643 C647 1.385 . S
C644 H625 0.951 . S
C644 C642 1.388 . S
C644 C645 1.366 . S
C645 C644 1.366 . S
C645 C646 1.414 . S
C645 C648 1.499 . S
C646 H626 0.950 . S
C646 C645 1.414 . S
C646 C647 1.374 . S
C647 H627 0.950 . S
C647 C643 1.385 . S
C647 C646 1.374 . S
C648 C645 1.499 . S
C648 C649 1.385 . S
C648 C650 1.389 . S
C649 H628 0.951 . S
C649 C648 1.385 . S
C649 C665 1.364 1_565 S
C650 C648 1.389 . S
C650 C651 1.524 . S
C650 C664 1.364 1_565 S
C651 C650 1.524 . S
C651 C652 1.397 . S
C651 C656 1.363 . S
C652 H629 0.950 . S
C652 C651 1.397 . S
C652 C653 1.334 . S
C653 H630 0.950 . S
C653 C652 1.334 . S
C653 C654 1.287 . S
C654 C653 1.287 . S
C654 C655 1.524 . S
C654 H673 0.913 . S
C655 H631 0.950 . S
C655 C654 1.524 . S
C655 C656 1.415 . S
C656 H632 0.950 . S
C656 C651 1.363 . S
C656 C655 1.415 . S
C657 H633 0.951 . S
C657 C658 1.366 . S
C657 C659 1.388 . S
C658 C657 1.366 . S
C658 C662 1.385 . S
C659 H634 0.951 . S
C659 C657 1.388 . S
C659 C660 1.366 . S
C660 C659 1.366 . S
C660 C661 1.414 . S
C660 C663 1.499 . S
C661 H635 0.950 . S
C661 C660 1.414 . S
C661 C662 1.374 . S
C662 H636 0.950 . S
C662 C658 1.385 . S
C662 C661 1.374 . S
C663 C660 1.499 . S
C663 C664 1.385 . S
C663 C665 1.389 . S
C664 H637 0.951 . S
C664 C650 1.364 1_545 S
C664 C663 1.385 . S
C665 C649 1.364 1_545 S
C665 C663 1.389 . S
C665 C666 1.524 . S
C666 C665 1.524 . S
C666 C667 1.397 . S
C666 C671 1.363 . S
C667 H638 0.950 . S
C667 C666 1.397 . S
C667 C668 1.334 . S
C668 H639 0.950 . S
C668 C667 1.334 . S
C668 C669 1.287 . S
C669 C668 1.287 . S
C669 C670 1.524 . S
C669 H672 0.999 . S
C670 H640 0.950 . S
C670 C669 1.524 . S
C670 C671 1.415 . S
C671 H641 0.950 . S
C671 C666 1.363 . S
C671 C670 1.415 . S
H672 C669 0.999 . S
H673 C654 0.913 . S
H674 C692 0.951 . S
H675 C694 0.951 . S
H676 C696 0.950 1_455 S
H677 C697 0.950 . S
H678 C699 0.950 . S
H679 C702 0.950 . S
H680 C703 0.950 . S
H681 C705 0.950 . S
H682 C706 0.950 . S
H683 C707 0.951 . S
H684 C709 0.951 . S
H685 C711 0.950 1_655 S
H686 C712 0.950 . S
H687 C714 0.950 . S
H688 C717 0.950 . S
H689 C718 0.950 . S
H690 C720 0.950 . S
H691 C721 0.950 . S
C692 H674 0.951 . S
C692 C693 1.366 . S
C692 C694 1.388 . S
C693 C692 1.366 . S
C693 C697 1.385 . S
C694 H675 0.951 . S
C694 C692 1.388 . S
C694 C695 1.366 . S
C695 C694 1.366 . S
C695 C696 1.414 . S
C695 C698 1.499 . S
C696 H676 0.950 1_655 S
C696 C695 1.414 . S
C696 C697 1.374 . S
C697 H677 0.950 . S
C697 C693 1.385 . S
C697 C696 1.374 . S
C698 C695 1.499 . S
C698 C699 1.373 1_655 S
C698 C700 1.418 . S
C699 H678 0.950 . S
C699 C698 1.373 1_455 S
C699 C715 1.347 1_565 S
C700 C698 1.418 . S
C700 C701 1.524 1_565 S
C700 C714 1.347 1_565 S
C701 C700 1.524 1_545 S
C701 C702 1.393 1_545 S
C701 C706 1.367 . S
C702 H679 0.950 . S
C702 C701 1.393 1_565 S
C702 C703 1.334 . S
C703 H680 0.950 . S
C703 C702 1.334 . S
C703 C704 1.287 1_565 S
C704 C703 1.287 1_545 S
C704 C705 1.524 . S
C704 H723 0.914 . S
C705 H681 0.950 . S
C705 C704 1.524 . S
C705 C706 1.415 . S
C706 H682 0.950 . S
C706 C701 1.367 . S
C706 C705 1.415 . S
C707 H683 0.951 . S
C707 C708 1.366 . S
C707 C709 1.388 . S
C708 C707 1.366 . S
C708 C712 1.385 . S
C709 H684 0.951 . S
C709 C707 1.388 . S
C709 C710 1.366 . S
C710 C709 1.366 . S
C710 C711 1.414 . S
C710 C713 1.499 . S
C711 H685 0.950 1_455 S
C711 C710 1.414 . S
C711 C712 1.374 . S
C712 H686 0.950 . S
C712 C708 1.385 . S
C712 C711 1.374 . S
C713 C710 1.499 . S
C713 C714 1.373 1_455 S
C713 C715 1.418 . S
C714 H687 0.950 . S
C714 C700 1.347 1_545 S
C714 C713 1.373 1_655 S
C715 C699 1.347 1_545 S
C715 C713 1.418 . S
C715 C716 1.524 1_545 S
C716 C715 1.524 1_565 S
C716 C717 1.393 1_565 S
C716 C721 1.367 . S
C717 H688 0.950 . S
C717 C716 1.393 1_545 S
C717 C718 1.334 . S
C718 H689 0.950 . S
C718 C717 1.334 . S
C718 C719 1.287 1_545 S
C719 C718 1.287 1_565 S
C719 C720 1.524 . S
C719 H722 0.999 . S
C720 H690 0.950 . S
C720 C719 1.524 . S
C720 C721 1.415 . S
C721 H691 0.950 . S
C721 C716 1.367 . S
C721 C720 1.415 . S
H722 C719 0.999 . S
H723 C704 0.914 . S
H724 C742 0.951 . S
H725 C744 0.951 . S
H726 C746 0.950 . S
H727 C747 0.950 . S
H728 C749 0.950 . S
H729 C752 0.950 . S
H730 C753 0.950 . S
H731 C755 0.950 . S
H732 C756 0.950 . S
H733 C757 0.951 . S
H734 C759 0.951 . S
H735 C761 0.950 . S
H736 C762 0.950 . S
H737 C764 0.950 . S
H738 C767 0.950 . S
H739 C768 0.950 . S
H740 C770 0.950 . S
H741 C771 0.950 . S
C742 H724 0.951 . S
C742 C743 1.366 . S
C742 C744 1.388 . S
C743 C742 1.366 . S
C743 C747 1.385 . S
C744 H725 0.951 . S
C744 C742 1.388 . S
C744 C745 1.366 . S
C745 C744 1.366 . S
C745 C746 1.414 . S
C745 C748 1.499 . S
C746 H726 0.950 . S
C746 C745 1.414 . S
C746 C747 1.374 . S
C747 H727 0.950 . S
C747 C743 1.385 . S
C747 C746 1.374 . S
C748 C745 1.499 . S
C748 C749 1.373 . S
C748 C750 1.389 . S
C749 H728 0.950 . S
C749 C748 1.373 . S
C749 C765 1.377 1_455 S
C750 C748 1.389 . S
C750 C751 1.524 . S
C750 C764 1.377 1_455 S
C751 C750 1.524 . S
C751 C752 1.397 . S
C751 C756 1.363 . S
C752 H729 0.950 . S
C752 C751 1.397 . S
C752 C753 1.334 . S
C753 H730 0.950 . S
C753 C752 1.334 . S
C753 C754 1.287 . S
C754 C753 1.287 . S
C754 C755 1.524 . S
C754 H773 0.913 . S
C755 H731 0.950 . S
C755 C754 1.524 . S
C755 C756 1.415 . S
C756 H732 0.950 . S
C756 C751 1.363 . S
C756 C755 1.415 . S
C757 H733 0.951 . S
C757 C758 1.366 . S
C757 C759 1.388 . S
C758 C757 1.366 . S
C758 C762 1.385 . S
C759 H734 0.951 . S
C759 C757 1.388 . S
C759 C760 1.366 . S
C760 C759 1.366 . S
C760 C761 1.414 . S
C760 C763 1.499 . S
C761 H735 0.950 . S
C761 C760 1.414 . S
C761 C762 1.374 . S
C762 H736 0.950 . S
C762 C758 1.385 . S
C762 C761 1.374 . S
C763 C760 1.499 . S
C763 C764 1.373 . S
C763 C765 1.389 . S
C764 H737 0.950 . S
C764 C750 1.377 1_655 S
C764 C763 1.373 . S
C765 C749 1.377 1_655 S
C765 C763 1.389 . S
C765 C766 1.524 . S
C766 C765 1.524 . S
C766 C767 1.397 . S
C766 C771 1.363 . S
C767 H738 0.950 . S
C767 C766 1.397 . S
C767 C768 1.334 . S
C768 H739 0.950 . S
C768 C767 1.334 . S
C768 C769 1.287 . S
C769 C768 1.287 . S
C769 C770 1.524 . S
C769 H772 0.999 . S
C770 H740 0.950 . S
C770 C769 1.524 . S
C770 C771 1.415 . S
C771 H741 0.950 . S
C771 C766 1.363 . S
C771 C770 1.415 . S
H772 C769 0.999 . S
H773 C754 0.913 . S
H774 C792 0.951 . S
H775 C794 0.951 . S
H776 C796 0.950 . S
H777 C797 0.950 . S
H778 C799 0.950 . S
H779 C802 0.950 . S
H780 C803 0.950 . S
H781 C805 0.950 . S
H782 C806 0.950 . S
H783 C807 0.951 . S
H784 C809 0.951 . S
H785 C811 0.950 . S
H786 C812 0.950 . S
H787 C814 0.950 . S
H788 C817 0.950 . S
H789 C818 0.950 . S
H790 C820 0.950 . S
H791 C821 0.950 . S
C792 H774 0.951 . S
C792 C793 1.366 . S
C792 C794 1.388 . S
C793 C792 1.366 . S
C793 C797 1.385 . S
C794 H775 0.951 . S
C794 C792 1.388 . S
C794 C795 1.366 . S
C795 C794 1.366 . S
C795 C796 1.414 . S
C795 C798 1.499 . S
C796 H776 0.950 . S
C796 C795 1.414 . S
C796 C797 1.374 . S
C797 H777 0.950 . S
C797 C793 1.385 . S
C797 C796 1.374 . S
C798 C795 1.499 . S
C798 C799 1.373 . S
C798 C800 1.389 . S
C799 H778 0.950 . S
C799 C798 1.373 . S
C799 C815 1.377 . S
C800 C798 1.389 . S
C800 C801 1.524 . S
C800 C814 1.377 . S
C801 C800 1.524 . S
C801 C802 1.397 . S
C801 C806 1.363 . S
C802 H779 0.950 . S
C802 C801 1.397 . S
C802 C803 1.334 . S
C803 H780 0.950 . S
C803 C802 1.334 . S
C803 C804 1.287 . S
C804 C803 1.287 . S
C804 C805 1.524 . S
C804 H823 0.913 . S
C805 H781 0.950 . S
C805 C804 1.524 . S
C805 C806 1.415 . S
C806 H782 0.950 . S
C806 C801 1.363 . S
C806 C805 1.415 . S
C807 H783 0.951 . S
C807 C808 1.366 . S
C807 C809 1.388 . S
C808 C807 1.366 . S
C808 C812 1.385 . S
C809 H784 0.951 . S
C809 C807 1.388 . S
C809 C810 1.366 . S
C810 C809 1.366 . S
C810 C811 1.414 . S
C810 C813 1.499 . S
C811 H785 0.950 . S
C811 C810 1.414 . S
C811 C812 1.374 . S
C812 H786 0.950 . S
C812 C808 1.385 . S
C812 C811 1.374 . S
C813 C810 1.499 . S
C813 C814 1.373 . S
C813 C815 1.389 . S
C814 H787 0.950 . S
C814 C800 1.377 . S
C814 C813 1.373 . S
C815 C799 1.377 . S
C815 C813 1.389 . S
C815 C816 1.524 . S
C816 C815 1.524 . S
C816 C817 1.397 . S
C816 C821 1.363 . S
C817 H788 0.950 . S
C817 C816 1.397 . S
C817 C818 1.334 . S
C818 H789 0.950 . S
C818 C817 1.334 . S
C818 C819 1.287 . S
C819 C818 1.287 . S
C819 C820 1.524 . S
C819 H822 0.999 . S
C820 H790 0.950 . S
C820 C819 1.524 . S
C820 C821 1.415 . S
C821 H791 0.950 . S
C821 C816 1.363 . S
C821 C820 1.415 . S
H822 C819 0.999 . S
H823 C804 0.913 . S
H824 C842 0.951 . S
H825 C844 0.951 . S
H826 C846 0.950 . S
H827 C847 0.950 . S
H828 C849 0.950 . S
H829 C852 0.950 . S
H830 C853 0.950 . S
H831 C855 0.950 . S
H832 C856 0.950 . S
H833 C857 0.951 . S
H834 C859 0.951 . S
H835 C861 0.950 . S
H836 C862 0.950 . S
H837 C864 0.950 . S
H838 C867 0.950 . S
H839 C868 0.950 . S
H840 C870 0.950 . S
H841 C871 0.950 . S
C842 H824 0.951 . S
C842 C843 1.366 . S
C842 C844 1.388 . S
C843 C842 1.366 . S
C843 C847 1.385 . S
C844 H825 0.951 . S
C844 C842 1.388 . S
C844 C845 1.366 . S
C845 C844 1.366 . S
C845 C846 1.414 . S
C845 C848 1.499 . S
C846 H826 0.950 . S
C846 C845 1.414 . S
C846 C847 1.374 . S
C847 H827 0.950 . S
C847 C843 1.385 . S
C847 C846 1.374 . S
C848 C845 1.499 . S
C848 C849 1.373 . S
C848 C850 1.389 . S
C849 H828 0.950 . S
C849 C848 1.373 . S
C849 C865 1.377 . S
C850 C848 1.389 . S
C850 C851 1.524 . S
C850 C864 1.377 . S
C851 C850 1.524 . S
C851 C852 1.397 . S
C851 C856 1.363 . S
C852 H829 0.950 . S
C852 C851 1.397 . S
C852 C853 1.334 . S
C853 H830 0.950 . S
C853 C852 1.334 . S
C853 C854 1.287 . S
C854 C853 1.287 . S
C854 C855 1.524 . S
C854 H873 0.913 . S
C855 H831 0.950 . S
C855 C854 1.524 . S
C855 C856 1.415 . S
C856 H832 0.950 . S
C856 C851 1.363 . S
C856 C855 1.415 . S
C857 H833 0.951 . S
C857 C858 1.366 . S
C857 C859 1.388 . S
C858 C857 1.366 . S
C858 C862 1.385 . S
C859 H834 0.951 . S
C859 C857 1.388 . S
C859 C860 1.366 . S
C860 C859 1.366 . S
C860 C861 1.414 . S
C860 C863 1.499 . S
C861 H835 0.950 . S
C861 C860 1.414 . S
C861 C862 1.374 . S
C862 H836 0.950 . S
C862 C858 1.385 . S
C862 C861 1.374 . S
C863 C860 1.499 . S
C863 C864 1.373 . S
C863 C865 1.389 . S
C864 H837 0.950 . S
C864 C850 1.377 . S
C864 C863 1.373 . S
C865 C849 1.377 . S
C865 C863 1.389 . S
C865 C866 1.524 . S
C866 C865 1.524 . S
C866 C867 1.397 . S
C866 C871 1.363 . S
C867 H838 0.950 . S
C867 C866 1.397 . S
C867 C868 1.334 . S
C868 H839 0.950 . S
C868 C867 1.334 . S
C868 C869 1.287 . S
C869 C868 1.287 . S
C869 C870 1.524 . S
C869 H872 0.999 . S
C870 H840 0.950 . S
C870 C869 1.524 . S
C870 C871 1.415 . S
C871 H841 0.950 . S
C871 C866 1.363 . S
C871 C870 1.415 . S
H872 C869 0.999 . S
H873 C854 0.913 . S
H874 C892 0.951 . S
H875 C894 0.951 . S
H876 C896 0.950 . S
H877 C897 0.950 . S
H878 C899 0.950 . S
H879 C902 0.950 . S
H880 C903 0.950 . S
H881 C905 0.950 . S
H882 C906 0.950 . S
H883 C907 0.951 . S
H884 C909 0.951 . S
H885 C911 0.950 . S
H886 C912 0.950 . S
H887 C914 0.950 . S
H888 C917 0.950 . S
H889 C918 0.950 . S
H890 C920 0.950 . S
H891 C921 0.950 . S
C892 H874 0.951 . S
C892 C893 1.366 . S
C892 C894 1.388 . S
C893 C892 1.366 . S
C893 C897 1.385 . S
C894 H875 0.951 . S
C894 C892 1.388 . S
C894 C895 1.366 . S
C895 C894 1.366 . S
C895 C896 1.414 . S
C895 C898 1.499 . S
C896 H876 0.950 . S
C896 C895 1.414 . S
C896 C897 1.374 . S
C897 H877 0.950 . S
C897 C893 1.385 . S
C897 C896 1.374 . S
C898 C895 1.499 . S
C898 C899 1.373 . S
C898 C900 1.389 . S
C899 H878 0.950 . S
C899 C898 1.373 . S
C899 C915 1.377 1_565 S
C900 C898 1.389 . S
C900 C901 1.524 . S
C900 C914 1.377 1_565 S
C901 C900 1.524 . S
C901 C902 1.397 . S
C901 C906 1.363 . S
C902 H879 0.950 . S
C902 C901 1.397 . S
C902 C903 1.334 . S
C903 H880 0.950 . S
C903 C902 1.334 . S
C903 C904 1.287 . S
C904 C903 1.287 . S
C904 C905 1.524 . S
C904 H923 0.913 . S
C905 H881 0.950 . S
C905 C904 1.524 . S
C905 C906 1.415 . S
C906 H882 0.950 . S
C906 C901 1.363 . S
C906 C905 1.415 . S
C907 H883 0.951 . S
C907 C908 1.366 . S
C907 C909 1.388 . S
C908 C907 1.366 . S
C908 C912 1.385 . S
C909 H884 0.951 . S
C909 C907 1.388 . S
C909 C910 1.366 . S
C910 C909 1.366 . S
C910 C911 1.414 . S
C910 C913 1.499 . S
C911 H885 0.950 . S
C911 C910 1.414 . S
C911 C912 1.374 . S
C912 H886 0.950 . S
C912 C908 1.385 . S
C912 C911 1.374 . S
C913 C910 1.499 . S
C913 C914 1.373 . S
C913 C915 1.389 . S
C914 H887 0.950 . S
C914 C900 1.377 1_545 S
C914 C913 1.373 . S
C915 C899 1.377 1_545 S
C915 C913 1.389 . S
C915 C916 1.524 . S
C916 C915 1.524 . S
C916 C917 1.397 . S
C916 C921 1.363 . S
C917 H888 0.950 . S
C917 C916 1.397 . S
C917 C918 1.334 . S
C918 H889 0.950 . S
C918 C917 1.334 . S
C918 C919 1.287 . S
C919 C918 1.287 . S
C919 C920 1.524 . S
C919 H922 0.999 . S
C920 H890 0.950 . S
C920 C919 1.524 . S
C920 C921 1.415 . S
C921 H891 0.950 . S
C921 C916 1.363 . S
C921 C920 1.415 . S
H922 C919 0.999 . S
H923 C904 0.913 . S
H924 C942 0.951 . S
H925 C944 0.951 . S
H926 C946 0.950 . S
H927 C947 0.950 . S
H928 C949 0.950 . S
H929 C952 0.950 . S
H930 C953 0.950 . S
H931 C955 0.946 1_455 S
H932 C956 0.949 1_455 S
H933 C957 0.951 . S
H934 C959 0.951 . S
H935 C961 0.950 . S
H936 C962 0.950 . S
H937 C964 0.950 . S
H938 C967 0.950 . S
H939 C968 0.950 . S
H940 C970 0.946 1_655 S
H941 C971 0.949 1_655 S
C942 H924 0.951 . S
C942 C943 1.366 . S
C942 C944 1.388 . S
C943 C942 1.366 . S
C943 C947 1.385 . S
C944 H925 0.951 . S
C944 C942 1.388 . S
C944 C945 1.366 . S
C945 C944 1.366 . S
C945 C946 1.414 . S
C945 C948 1.499 . S
C946 H926 0.950 . S
C946 C945 1.414 . S
C946 C947 1.374 . S
C947 H927 0.950 . S
C947 C943 1.385 . S
C947 C946 1.374 . S
C948 C945 1.499 . S
C948 C949 1.373 1_565 S
C948 C950 1.389 . S
C949 H928 0.950 . S
C949 C948 1.373 1_545 S
C949 C965 1.377 1_655 S
C950 C948 1.389 . S
C950 C951 1.524 . S
C950 C964 1.377 1_655 S
C951 C950 1.524 . S
C951 C952 1.397 . S
C951 C956 1.364 . S
C952 H929 0.950 . S
C952 C951 1.397 . S
C952 C953 1.334 . S
C953 H930 0.950 . S
C953 C952 1.334 . S
C953 C954 1.287 . S
C954 C953 1.287 . S
C954 C955 1.530 . S
C954 H973 0.913 . S
C955 H931 0.946 1_655 S
C955 C954 1.530 . S
C955 C956 1.415 . S
C956 H932 0.949 1_655 S
C956 C951 1.364 . S
C956 C955 1.415 . S
C957 H933 0.951 . S
C957 C958 1.366 . S
C957 C959 1.388 . S
C958 C957 1.366 . S
C958 C962 1.385 . S
C959 H934 0.951 . S
C959 C957 1.388 . S
C959 C960 1.366 . S
C960 C959 1.366 . S
C960 C961 1.414 . S
C960 C963 1.499 . S
C961 H935 0.950 . S
C961 C960 1.414 . S
C961 C962 1.374 . S
C962 H936 0.950 . S
C962 C958 1.385 . S
C962 C961 1.374 . S
C963 C960 1.499 . S
C963 C964 1.373 1_545 S
C963 C965 1.389 . S
C964 H937 0.950 . S
C964 C950 1.377 1_455 S
C964 C963 1.373 1_565 S
C965 C949 1.377 1_455 S
C965 C963 1.389 . S
C965 C966 1.524 . S
C966 C965 1.524 . S
C966 C967 1.397 . S
C966 C971 1.364 . S
C967 H938 0.950 . S
C967 C966 1.397 . S
C967 C968 1.334 . S
C968 H939 0.950 . S
C968 C967 1.334 . S
C968 C969 1.287 . S
C969 C968 1.287 . S
C969 C970 1.530 . S
C969 H972 0.999 . S
C970 H940 0.946 1_455 S
C970 C969 1.530 . S
C970 C971 1.415 . S
C971 H941 0.949 1_455 S
C971 C966 1.364 . S
C971 C970 1.415 . S
H972 C969 0.999 . S
H973 C954 0.913 . S
H974 C992 0.951 . S
H975 C994 0.951 . S
H976 C996 0.950 . S
H977 C997 0.950 . S
H978 C999 0.950 . S
H979 C1002 0.950 . S
H980 C1003 0.950 . S
H981 C1005 0.950 . S
H982 C1006 0.950 . S
H983 C1007 0.951 . S
H984 C1009 0.951 . S
H985 C1011 0.950 . S
H986 C1012 0.950 . S
H987 C1014 0.950 . S
H988 C1017 0.950 . S
H989 C1018 0.950 . S
H990 C1020 0.950 . S
H991 C1021 0.950 . S
C992 H974 0.951 . S
C992 C993 1.366 . S
C992 C994 1.388 . S
C993 C992 1.366 . S
C993 C997 1.385 . S
C994 H975 0.951 . S
C994 C992 1.388 . S
C994 C995 1.366 . S
C995 C994 1.366 . S
C995 C996 1.414 . S
C995 C998 1.499 . S
C996 H976 0.950 . S
C996 C995 1.414 . S
C996 C997 1.374 . S
C997 H977 0.950 . S
C997 C993 1.385 . S
C997 C996 1.374 . S
C998 C995 1.499 . S
C998 C999 1.373 . S
C998 C1000 1.389 . S
C999 H978 0.950 . S
C999 C998 1.373 . S
C999 C1015 1.377 1_455 S
C1000 C998 1.389 . S
C1000 C1001 1.524 . S
C1000 C1014 1.377 1_455 S
C1001 C1000 1.524 . S
C1001 C1002 1.397 1_455 S
C1001 C1006 1.363 . S
C1002 H979 0.950 . S
C1002 C1001 1.397 1_655 S
C1002 C1003 1.334 . S
C1003 H980 0.950 . S
C1003 C1002 1.334 . S
C1003 C1004 1.287 . S
C1004 C1003 1.287 . S
C1004 C1005 1.524 1_655 S
C1004 H1023 0.913 . S
C1005 H981 0.950 . S
C1005 C1004 1.524 1_455 S
C1005 C1006 1.415 . S
C1006 H982 0.950 . S
C1006 C1001 1.363 . S
C1006 C1005 1.415 . S
C1007 H983 0.951 . S
C1007 C1008 1.366 . S
C1007 C1009 1.388 . S
C1008 C1007 1.366 . S
C1008 C1012 1.385 . S
C1009 H984 0.951 . S
C1009 C1007 1.388 . S
C1009 C1010 1.366 . S
C1010 C1009 1.366 . S
C1010 C1011 1.414 . S
C1010 C1013 1.499 . S
C1011 H985 0.950 . S
C1011 C1010 1.414 . S
C1011 C1012 1.374 . S
C1012 H986 0.950 . S
C1012 C1008 1.385 . S
C1012 C1011 1.374 . S
C1013 C1010 1.499 . S
C1013 C1014 1.373 . S
C1013 C1015 1.389 . S
C1014 H987 0.950 . S
C1014 C1000 1.377 1_655 S
C1014 C1013 1.373 . S
C1015 C999 1.377 1_655 S
C1015 C1013 1.389 . S
C1015 C1016 1.524 . S
C1016 C1015 1.524 . S
C1016 C1017 1.397 1_655 S
C1016 C1021 1.363 . S
C1017 H988 0.950 . S
C1017 C1016 1.397 1_455 S
C1017 C1018 1.334 . S
C1018 H989 0.950 . S
C1018 C1017 1.334 . S
C1018 C1019 1.287 . S
C1019 C1018 1.287 . S
C1019 C1020 1.524 1_455 S
C1019 H1022 0.999 . S
C1020 H990 0.950 . S
C1020 C1019 1.524 1_655 S
C1020 C1021 1.415 . S
C1021 H991 0.950 . S
C1021 C1016 1.363 . S
C1021 C1020 1.415 . S
H1022 C1019 0.999 . S
H1023 C1004 0.913 . S
H1024 C1042 0.951 . S
H1025 C1044 0.951 . S
H1026 C1046 0.950 . S
H1027 C1047 0.950 . S
H1028 C1049 0.950 . S
H1029 C1052 0.950 . S
H1030 C1053 0.950 . S
H1031 C1055 0.950 . S
H1032 C1056 0.950 1_545 S
H1033 C1057 0.951 . S
H1034 C1059 0.951 . S
H1035 C1061 0.950 . S
H1036 C1062 0.950 . S
H1037 C1064 0.950 . S
H1038 C1067 0.950 . S
H1039 C1068 0.950 . S
H1040 C1070 0.950 . S
H1041 C1071 0.950 . S
C1042 H1024 0.951 . S
C1042 C1043 1.366 . S
C1042 C1044 1.388 . S
C1043 C1042 1.366 . S
C1043 C1047 1.385 . S
C1044 H1025 0.951 . S
C1044 C1042 1.388 . S
C1044 C1045 1.366 . S
C1045 C1044 1.366 . S
C1045 C1046 1.414 . S
C1045 C1048 1.499 . S
C1046 H1026 0.950 . S
C1046 C1045 1.414 . S
C1046 C1047 1.374 . S
C1047 H1027 0.950 . S
C1047 C1043 1.385 . S
C1047 C1046 1.374 . S
C1048 C1045 1.499 . S
C1048 C1049 1.373 . S
C1048 C1050 1.389 . S
C1049 H1028 0.950 . S
C1049 C1048 1.373 . S
C1049 C1065 1.377 . S
C1050 C1048 1.389 . S
C1050 C1051 1.524 . S
C1050 C1064 1.377 . S
C1051 C1050 1.524 . S
C1051 C1052 1.397 1_545 S
C1051 C1056 1.363 1_545 S
C1052 H1029 0.950 . S
C1052 C1051 1.397 1_565 S
C1052 C1053 1.334 . S
C1053 H1030 0.950 . S
C1053 C1052 1.334 . S
C1053 C1054 1.287 . S
C1054 C1053 1.287 . S
C1054 C1055 1.524 . S
C1054 H1073 0.913 . S
C1055 H1031 0.950 . S
C1055 C1054 1.524 . S
C1055 C1056 1.415 . S
C1056 H1032 0.950 1_565 S
C1056 C1051 1.363 1_565 S
C1056 C1055 1.415 . S
C1057 H1033 0.951 . S
C1057 C1058 1.366 . S
C1057 C1059 1.388 . S
C1058 C1057 1.366 . S
C1058 C1062 1.385 . S
C1059 H1034 0.951 . S
C1059 C1057 1.388 . S
C1059 C1060 1.366 . S
C1060 C1059 1.366 . S
C1060 C1061 1.414 . S
C1060 C1063 1.499 . S
C1061 H1035 0.950 . S
C1061 C1060 1.414 . S
C1061 C1062 1.374 . S
C1062 H1036 0.950 . S
C1062 C1058 1.385 . S
C1062 C1061 1.374 . S
C1063 C1060 1.499 . S
C1063 C1064 1.373 . S
C1063 C1065 1.389 . S
C1064 H1037 0.950 . S
C1064 C1050 1.377 . S
C1064 C1063 1.373 . S
C1065 C1049 1.377 . S
C1065 C1063 1.389 . S
C1065 C1066 1.524 . S
C1066 C1065 1.524 . S
C1066 C1067 1.397 . S
C1066 C1071 1.363 . S
C1067 H1038 0.950 . S
C1067 C1066 1.397 . S
C1067 C1068 1.334 . S
C1068 H1039 0.950 . S
C1068 C1067 1.334 . S
C1068 C1069 1.287 . S
C1069 C1068 1.287 . S
C1069 C1070 1.524 . S
C1069 H1072 0.999 . S
C1070 H1040 0.950 . S
C1070 C1069 1.524 . S
C1070 C1071 1.415 . S
C1071 H1041 0.950 . S
C1071 C1066 1.363 . S
C1071 C1070 1.415 . S
H1072 C1069 0.999 . S
H1073 C1054 0.913 . S
H1074 C1092 0.951 . S
H1075 C1094 0.951 . S
H1076 C1096 0.950 . S
H1077 C1097 0.950 . S
H1078 C1099 0.950 . S
H1079 C1102 0.950 . S
H1080 C1103 0.950 . S
H1081 C1105 0.950 . S
H1082 C1106 0.950 . S
H1083 C1107 0.951 . S
H1084 C1109 0.951 . S
H1085 C1111 0.950 . S
H1086 C1112 0.950 . S
H1087 C1114 0.950 . S
H1088 C1117 0.950 . S
H1089 C1118 0.950 . S
H1090 C1120 0.950 . S
H1091 C1121 0.950 . S
C1092 H1074 0.951 . S
C1092 C1093 1.366 . S
C1092 C1094 1.388 . S
C1093 C1092 1.366 . S
C1093 C1097 1.385 . S
C1094 H1075 0.951 . S
C1094 C1092 1.388 . S
C1094 C1095 1.366 . S
C1095 C1094 1.366 . S
C1095 C1096 1.414 . S
C1095 C1098 1.499 . S
C1096 H1076 0.950 . S
C1096 C1095 1.414 . S
C1096 C1097 1.374 . S
C1097 H1077 0.950 . S
C1097 C1093 1.385 . S
C1097 C1096 1.374 . S
C1098 C1095 1.499 . S
C1098 C1099 1.373 . S
C1098 C1100 1.389 . S
C1099 H1078 0.950 . S
C1099 C1098 1.373 . S
C1099 C1115 1.377 . S
C1100 C1098 1.389 . S
C1100 C1101 1.524 . S
C1100 C1114 1.377 . S
C1101 C1100 1.524 . S
C1101 C1102 1.397 . S
C1101 C1106 1.363 1_655 S
C1102 H1079 0.950 . S
C1102 C1101 1.397 . S
C1102 C1103 1.334 . S
C1103 H1080 0.950 . S
C1103 C1102 1.334 . S
C1103 C1104 1.287 1_655 S
C1104 C1103 1.287 1_455 S
C1104 C1105 1.524 . S
C1104 H1123 0.913 . S
C1105 H1081 0.950 . S
C1105 C1104 1.524 . S
C1105 C1106 1.415 . S
C1106 H1082 0.950 . S
C1106 C1101 1.363 1_455 S
C1106 C1105 1.415 . S
C1107 H1083 0.951 . S
C1107 C1108 1.366 . S
C1107 C1109 1.388 . S
C1108 C1107 1.366 . S
C1108 C1112 1.385 . S
C1109 H1084 0.951 . S
C1109 C1107 1.388 . S
C1109 C1110 1.366 . S
C1110 C1109 1.366 . S
C1110 C1111 1.414 . S
C1110 C1113 1.499 . S
C1111 H1085 0.950 . S
C1111 C1110 1.414 . S
C1111 C1112 1.374 . S
C1112 H1086 0.950 . S
C1112 C1108 1.385 . S
C1112 C1111 1.374 . S
C1113 C1110 1.499 . S
C1113 C1114 1.373 . S
C1113 C1115 1.389 . S
C1114 H1087 0.950 . S
C1114 C1100 1.377 . S
C1114 C1113 1.373 . S
C1115 C1099 1.377 . S
C1115 C1113 1.389 . S
C1115 C1116 1.524 . S
C1116 C1115 1.524 . S
C1116 C1117 1.397 . S
C1116 C1121 1.363 . S
C1117 H1088 0.950 . S
C1117 C1116 1.397 . S
C1117 C1118 1.334 . S
C1118 H1089 0.950 . S
C1118 C1117 1.334 . S
C1118 C1119 1.287 . S
C1119 C1118 1.287 . S
C1119 C1120 1.524 . S
C1119 H1122 0.999 . S
C1120 H1090 0.950 . S
C1120 C1119 1.524 . S
C1120 C1121 1.415 . S
C1121 H1091 0.950 . S
C1121 C1116 1.363 . S
C1121 C1120 1.415 . S
H1122 C1119 0.999 . S
H1123 C1104 0.913 . S
H1124 C1142 0.951 . S
H1125 C1144 0.951 . S
H1126 C1146 0.950 . S
H1127 C1147 0.950 . S
H1128 C1149 0.950 . S
H1129 C1152 0.950 . S
H1130 C1153 0.950 . S
H1131 C1155 0.950 . S
H1132 C1156 0.950 . S
H1133 C1157 0.951 . S
H1134 C1159 0.951 . S
H1135 C1161 0.950 . S
H1136 C1162 0.950 . S
H1137 C1164 0.950 . S
H1138 C1167 0.950 . S
H1139 C1168 0.950 . S
H1140 C1170 0.950 . S
H1141 C1171 0.950 . S
C1142 H1124 0.951 . S
C1142 C1143 1.366 . S
C1142 C1144 1.388 . S
C1143 C1142 1.366 . S
C1143 C1147 1.385 . S
C1144 H1125 0.951 . S
C1144 C1142 1.388 . S
C1144 C1145 1.366 . S
C1145 C1144 1.366 . S
C1145 C1146 1.414 . S
C1145 C1148 1.499 . S
C1146 H1126 0.950 . S
C1146 C1145 1.414 . S
C1146 C1147 1.374 . S
C1147 H1127 0.950 . S
C1147 C1143 1.385 . S
C1147 C1146 1.374 . S
C1148 C1145 1.499 . S
C1148 C1149 1.373 . S
C1148 C1150 1.389 . S
C1149 H1128 0.950 . S
C1149 C1148 1.373 . S
C1149 C1165 1.377 . S
C1150 C1148 1.389 . S
C1150 C1151 1.524 . S
C1150 C1164 1.377 . S
C1151 C1150 1.524 . S
C1151 C1152 1.397 . S
C1151 C1156 1.363 . S
C1152 H1129 0.950 . S
C1152 C1151 1.397 . S
C1152 C1153 1.334 . S
C1153 H1130 0.950 . S
C1153 C1152 1.334 . S
C1153 C1154 1.287 . S
C1154 C1153 1.287 . S
C1154 C1155 1.524 . S
C1154 H1173 0.913 . S
C1155 H1131 0.950 . S
C1155 C1154 1.524 . S
C1155 C1156 1.415 . S
C1156 H1132 0.950 . S
C1156 C1151 1.363 . S
C1156 C1155 1.415 . S
C1157 H1133 0.951 . S
C1157 C1158 1.366 . S
C1157 C1159 1.388 . S
C1158 C1157 1.366 . S
C1158 C1162 1.385 . S
C1159 H1134 0.951 . S
C1159 C1157 1.388 . S
C1159 C1160 1.366 . S
C1160 C1159 1.366 . S
C1160 C1161 1.414 . S
C1160 C1163 1.499 . S
C1161 H1135 0.950 . S
C1161 C1160 1.414 . S
C1161 C1162 1.374 . S
C1162 H1136 0.950 . S
C1162 C1158 1.385 . S
C1162 C1161 1.374 . S
C1163 C1160 1.499 . S
C1163 C1164 1.373 . S
C1163 C1165 1.389 . S
C1164 H1137 0.950 . S
C1164 C1150 1.377 . S
C1164 C1163 1.373 . S
C1165 C1149 1.377 . S
C1165 C1163 1.389 . S
C1165 C1166 1.524 . S
C1166 C1165 1.524 . S
C1166 C1167 1.397 . S
C1166 C1171 1.363 . S
C1167 H1138 0.950 . S
C1167 C1166 1.397 . S
C1167 C1168 1.334 . S
C1168 H1139 0.950 . S
C1168 C1167 1.334 . S
C1168 C1169 1.287 . S
C1169 C1168 1.287 . S
C1169 C1170 1.524 . S
C1169 H1172 0.999 . S
C1170 H1140 0.950 . S
C1170 C1169 1.524 . S
C1170 C1171 1.415 . S
C1171 H1141 0.950 . S
C1171 C1166 1.363 . S
C1171 C1170 1.415 . S
H1172 C1169 0.999 . S
H1173 C1154 0.913 . S
H1174 C1192 0.951 . S
H1175 C1194 0.951 . S
H1176 C1196 0.950 . S
H1177 C1197 0.950 . S
H1178 C1199 0.950 . S
H1179 C1202 0.950 . S
H1180 C1203 0.950 . S
H1181 C1205 0.950 . S
H1182 C1206 0.950 . S
H1183 C1207 0.951 . S
H1184 C1209 0.951 . S
H1185 C1211 0.950 . S
H1186 C1212 0.950 . S
H1187 C1214 0.950 . S
H1188 C1217 0.950 . S
H1189 C1218 0.950 . S
H1190 C1220 0.950 . S
H1191 C1221 0.950 . S
C1192 H1174 0.951 . S
C1192 C1193 1.366 . S
C1192 C1194 1.388 . S
C1193 C1192 1.366 . S
C1193 C1197 1.385 . S
C1194 H1175 0.951 . S
C1194 C1192 1.388 . S
C1194 C1195 1.366 . S
C1195 C1194 1.366 . S
C1195 C1196 1.414 . S
C1195 C1198 1.499 . S
C1196 H1176 0.950 . S
C1196 C1195 1.414 . S
C1196 C1197 1.374 . S
C1197 H1177 0.950 . S
C1197 C1193 1.385 . S
C1197 C1196 1.374 . S
C1198 C1195 1.499 . S
C1198 C1199 1.373 . S
C1198 C1200 1.389 . S
C1199 H1178 0.950 . S
C1199 C1198 1.373 . S
C1199 C1215 1.377 . S
C1200 C1198 1.389 . S
C1200 C1201 1.524 . S
C1200 C1214 1.377 . S
C1201 C1200 1.524 . S
C1201 C1202 1.397 . S
C1201 C1206 1.363 . S
C1202 H1179 0.950 . S
C1202 C1201 1.397 . S
C1202 C1203 1.334 . S
C1203 H1180 0.950 . S
C1203 C1202 1.334 . S
C1203 C1204 1.287 . S
C1204 C1203 1.287 . S
C1204 C1205 1.524 . S
C1204 H1223 0.913 . S
C1205 H1181 0.950 . S
C1205 C1204 1.524 . S
C1205 C1206 1.415 . S
C1206 H1182 0.950 . S
C1206 C1201 1.363 . S
C1206 C1205 1.415 . S
C1207 H1183 0.951 . S
C1207 C1208 1.366 . S
C1207 C1209 1.388 . S
C1208 C1207 1.366 . S
C1208 C1212 1.385 . S
C1209 H1184 0.951 . S
C1209 C1207 1.388 . S
C1209 C1210 1.366 . S
C1210 C1209 1.366 . S
C1210 C1211 1.414 . S
C1210 C1213 1.499 . S
C1211 H1185 0.950 . S
C1211 C1210 1.414 . S
C1211 C1212 1.374 . S
C1212 H1186 0.950 . S
C1212 C1208 1.385 . S
C1212 C1211 1.374 . S
C1213 C1210 1.499 . S
C1213 C1214 1.373 . S
C1213 C1215 1.389 . S
C1214 H1187 0.950 . S
C1214 C1200 1.377 . S
C1214 C1213 1.373 . S
C1215 C1199 1.377 . S
C1215 C1213 1.389 . S
C1215 C1216 1.524 . S
C1216 C1215 1.524 . S
C1216 C1217 1.397 . S
C1216 C1221 1.363 . S
C1217 H1188 0.950 . S
C1217 C1216 1.397 . S
C1217 C1218 1.334 . S
C1218 H1189 0.950 . S
C1218 C1217 1.334 . S
C1218 C1219 1.287 . S
C1219 C1218 1.287 . S
C1219 C1220 1.524 . S
C1219 H1222 0.999 . S
C1220 H1190 0.950 . S
C1220 C1219 1.524 . S
C1220 C1221 1.415 . S
C1221 H1191 0.950 . S
C1221 C1216 1.363 . S
C1221 C1220 1.415 . S
H1222 C1219 0.999 . S
H1223 C1204 0.913 . S
H1224 C1242 0.951 . S
H1225 C1244 0.951 . S
H1226 C1246 0.950 . S
H1227 C1247 0.950 . S
H1228 C1249 0.950 . S
H1229 C1252 0.950 . S
H1230 C1253 0.950 . S
H1231 C1255 0.950 . S
H1232 C1256 0.950 . S
H1233 C1257 0.951 . S
H1234 C1259 0.951 . S
H1235 C1261 0.950 . S
H1236 C1262 0.950 . S
H1237 C1264 0.950 . S
H1238 C1267 0.950 . S
H1239 C1268 0.950 . S
H1240 C1270 0.950 . S
H1241 C1271 0.950 . S
C1242 H1224 0.951 . S
C1242 C1243 1.366 . S
C1242 C1244 1.388 . S
C1243 C1242 1.366 . S
C1243 C1247 1.385 . S
C1244 H1225 0.951 . S
C1244 C1242 1.388 . S
C1244 C1245 1.366 . S
C1245 C1244 1.366 . S
C1245 C1246 1.414 . S
C1245 C1248 1.499 . S
C1246 H1226 0.950 . S
C1246 C1245 1.414 . S
C1246 C1247 1.374 . S
C1247 H1227 0.950 . S
C1247 C1243 1.385 . S
C1247 C1246 1.374 . S
C1248 C1245 1.499 . S
C1248 C1249 1.373 . S
C1248 C1250 1.389 . S
C1249 H1228 0.950 . S
C1249 C1248 1.373 . S
C1249 C1265 1.377 . S
C1250 C1248 1.389 . S
C1250 C1251 1.524 . S
C1250 C1264 1.377 . S
C1251 C1250 1.524 . S
C1251 C1252 1.397 . S
C1251 C1256 1.363 . S
C1252 H1229 0.950 . S
C1252 C1251 1.397 . S
C1252 C1253 1.334 . S
C1253 H1230 0.950 . S
C1253 C1252 1.334 . S
C1253 C1254 1.287 . S
C1254 C1253 1.287 . S
C1254 C1255 1.524 . S
C1254 H1273 0.913 . S
C1255 H1231 0.950 . S
C1255 C1254 1.524 . S
C1255 C1256 1.415 . S
C1256 H1232 0.950 . S
C1256 C1251 1.363 . S
C1256 C1255 1.415 . S
C1257 H1233 0.951 . S
C1257 C1258 1.366 . S
C1257 C1259 1.388 . S
C1258 C1257 1.366 . S
C1258 C1262 1.385 . S
C1259 H1234 0.951 . S
C1259 C1257 1.388 . S
C1259 C1260 1.366 . S
C1260 C1259 1.366 . S
C1260 C1261 1.414 . S
C1260 C1263 1.499 . S
C1261 H1235 0.950 . S
C1261 C1260 1.414 . S
C1261 C1262 1.374 . S
C1262 H1236 0.950 . S
C1262 C1258 1.385 . S
C1262 C1261 1.374 . S
C1263 C1260 1.499 . S
C1263 C1264 1.373 . S
C1263 C1265 1.389 . S
C1264 H1237 0.950 . S
C1264 C1250 1.377 . S
C1264 C1263 1.373 . S
C1265 C1249 1.377 . S
C1265 C1263 1.389 . S
C1265 C1266 1.524 . S
C1266 C1265 1.524 . S
C1266 C1267 1.397 . S
C1266 C1271 1.363 . S
C1267 H1238 0.950 . S
C1267 C1266 1.397 . S
C1267 C1268 1.334 . S
C1268 H1239 0.950 . S
C1268 C1267 1.334 . S
C1268 C1269 1.287 . S
C1269 C1268 1.287 . S
C1269 C1270 1.524 . S
C1269 H1272 0.999 . S
C1270 H1240 0.950 . S
C1270 C1269 1.524 . S
C1270 C1271 1.415 . S
C1271 H1241 0.950 . S
C1271 C1266 1.363 . S
C1271 C1270 1.415 . S
H1272 C1269 0.999 . S
H1273 C1254 0.913 . S
H1274 C1292 0.951 . S
H1275 C1294 0.951 . S
H1276 C1296 0.950 . S
H1277 C1297 0.950 . S
H1278 C1299 0.950 . S
H1279 C1302 0.950 . S
H1280 C1303 0.950 . S
H1281 C1305 0.950 . S
H1282 C1306 0.950 . S
H1283 C1307 0.951 . S
H1284 C1309 0.951 . S
H1285 C1311 0.950 . S
H1286 C1312 0.950 . S
H1287 C1314 0.950 . S
H1288 C1317 0.950 . S
H1289 C1318 0.950 . S
H1290 C1320 0.950 . S
H1291 C1321 0.950 . S
C1292 H1274 0.951 . S
C1292 C1293 1.366 . S
C1292 C1294 1.388 . S
C1293 C1292 1.366 . S
C1293 C1297 1.385 . S
C1294 H1275 0.951 . S
C1294 C1292 1.388 . S
C1294 C1295 1.366 . S
C1295 C1294 1.366 . S
C1295 C1296 1.414 . S
C1295 C1298 1.499 . S
C1296 H1276 0.950 . S
C1296 C1295 1.414 . S
C1296 C1297 1.374 . S
C1297 H1277 0.950 . S
C1297 C1293 1.385 . S
C1297 C1296 1.374 . S
C1298 C1295 1.499 . S
C1298 C1299 1.373 . S
C1298 C1300 1.389 . S
C1299 H1278 0.950 . S
C1299 C1298 1.373 . S
C1299 C1315 1.377 . S
C1300 C1298 1.389 . S
C1300 C1301 1.524 . S
C1300 C1314 1.377 . S
C1301 C1300 1.524 . S
C1301 C1302 1.397 . S
C1301 C1306 1.363 . S
C1302 H1279 0.950 . S
C1302 C1301 1.397 . S
C1302 C1303 1.334 . S
C1303 H1280 0.950 . S
C1303 C1302 1.334 . S
C1303 C1304 1.287 . S
C1304 C1303 1.287 . S
C1304 C1305 1.524 . S
C1304 H1323 0.913 . S
C1305 H1281 0.950 . S
C1305 C1304 1.524 . S
C1305 C1306 1.415 . S
C1306 H1282 0.950 . S
C1306 C1301 1.363 . S
C1306 C1305 1.415 . S
C1307 H1283 0.951 . S
C1307 C1308 1.366 . S
C1307 C1309 1.388 . S
C1308 C1307 1.366 . S
C1308 C1312 1.385 . S
C1309 H1284 0.951 . S
C1309 C1307 1.388 . S
C1309 C1310 1.366 . S
C1310 C1309 1.366 . S
C1310 C1311 1.414 . S
C1310 C1313 1.499 . S
C1311 H1285 0.950 . S
C1311 C1310 1.414 . S
C1311 C1312 1.374 . S
C1312 H1286 0.950 . S
C1312 C1308 1.385 . S
C1312 C1311 1.374 . S
C1313 C1310 1.499 . S
C1313 C1314 1.373 . S
C1313 C1315 1.389 . S
C1314 H1287 0.950 . S
C1314 C1300 1.377 . S
C1314 C1313 1.373 . S
C1315 C1299 1.377 . S
C1315 C1313 1.389 . S
C1315 C1316 1.524 . S
C1316 C1315 1.524 . S
C1316 C1317 1.397 . S
C1316 C1321 1.363 . S
C1317 H1288 0.950 . S
C1317 C1316 1.397 . S
C1317 C1318 1.334 . S
C1318 H1289 0.950 . S
C1318 C1317 1.334 . S
C1318 C1319 1.287 . S
C1319 C1318 1.287 . S
C1319 C1320 1.524 . S
C1319 H1322 0.999 . S
C1320 H1290 0.950 . S
C1320 C1319 1.524 . S
C1320 C1321 1.415 . S
C1321 H1291 0.950 . S
C1321 C1316 1.363 . S
C1321 C1320 1.415 . S
H1322 C1319 0.999 . S
H1323 C1304 0.913 . S
H1324 C1342 0.951 . S
H1325 C1344 0.951 . S
H1326 C1346 0.950 . S
H1327 C1347 0.950 . S
H1328 C1349 0.950 . S
H1329 C1352 0.950 . S
H1330 C1353 0.950 . S
H1331 C1355 0.950 . S
H1332 C1356 0.950 . S
H1333 C1357 0.951 . S
H1334 C1359 0.951 . S
H1335 C1361 0.950 . S
H1336 C1362 0.950 . S
H1337 C1364 0.950 . S
H1338 C1367 0.950 . S
H1339 C1368 0.950 . S
H1340 C1370 0.950 . S
H1341 C1371 0.950 . S
C1342 H1324 0.951 . S
C1342 C1343 1.366 . S
C1342 C1344 1.388 . S
C1343 C1342 1.366 . S
C1343 C1347 1.385 . S
C1344 H1325 0.951 . S
C1344 C1342 1.388 . S
C1344 C1345 1.366 . S
C1345 C1344 1.366 . S
C1345 C1346 1.414 . S
C1345 C1348 1.499 . S
C1346 H1326 0.950 . S
C1346 C1345 1.414 . S
C1346 C1347 1.374 . S
C1347 H1327 0.950 . S
C1347 C1343 1.385 . S
C1347 C1346 1.374 . S
C1348 C1345 1.499 . S
C1348 C1349 1.373 . S
C1348 C1350 1.389 . S
C1349 H1328 0.950 . S
C1349 C1348 1.373 . S
C1349 C1365 1.377 . S
C1350 C1348 1.389 . S
C1350 C1351 1.524 . S
C1350 C1364 1.377 . S
C1351 C1350 1.524 . S
C1351 C1352 1.397 . S
C1351 C1356 1.363 . S
C1352 H1329 0.950 . S
C1352 C1351 1.397 . S
C1352 C1353 1.334 . S
C1353 H1330 0.950 . S
C1353 C1352 1.334 . S
C1353 C1354 1.287 . S
C1354 C1353 1.287 . S
C1354 C1355 1.524 . S
C1354 H1373 0.913 . S
C1355 H1331 0.950 . S
C1355 C1354 1.524 . S
C1355 C1356 1.415 . S
C1356 H1332 0.950 . S
C1356 C1351 1.363 . S
C1356 C1355 1.415 . S
C1357 H1333 0.951 . S
C1357 C1358 1.366 . S
C1357 C1359 1.388 . S
C1358 C1357 1.366 . S
C1358 C1362 1.385 . S
C1359 H1334 0.951 . S
C1359 C1357 1.388 . S
C1359 C1360 1.366 . S
C1360 C1359 1.366 . S
C1360 C1361 1.414 . S
C1360 C1363 1.499 . S
C1361 H1335 0.950 . S
C1361 C1360 1.414 . S
C1361 C1362 1.374 . S
C1362 H1336 0.950 . S
C1362 C1358 1.385 . S
C1362 C1361 1.374 . S
C1363 C1360 1.499 . S
C1363 C1364 1.373 . S
C1363 C1365 1.389 . S
C1364 H1337 0.950 . S
C1364 C1350 1.377 . S
C1364 C1363 1.373 . S
C1365 C1349 1.377 . S
C1365 C1363 1.389 . S
C1365 C1366 1.524 . S
C1366 C1365 1.524 . S
C1366 C1367 1.397 . S
C1366 C1371 1.363 1_565 S
C1367 H1338 0.950 . S
C1367 C1366 1.397 . S
C1367 C1368 1.334 . S
C1368 H1339 0.950 . S
C1368 C1367 1.334 . S
C1368 C1369 1.287 1_565 S
C1369 C1368 1.287 1_545 S
C1369 C1370 1.524 . S
C1369 H1372 0.999 . S
C1370 H1340 0.950 . S
C1370 C1369 1.524 . S
C1370 C1371 1.415 . S
C1371 H1341 0.950 . S
C1371 C1366 1.363 1_545 S
C1371 C1370 1.415 . S
H1372 C1369 0.999 . S
H1373 C1354 0.913 . S
H1374 C1392 0.951 . S
H1375 C1394 0.951 . S
H1376 C1396 0.950 . S
H1377 C1397 0.950 . S
H1378 C1399 0.950 . S
H1379 C1402 0.950 . S
H1380 C1403 0.950 . S
H1381 C1405 0.950 . S
H1382 C1406 0.950 1_655 S
H1383 C1407 0.951 . S
H1384 C1409 0.951 . S
H1385 C1411 0.950 . S
H1386 C1412 0.950 . S
H1387 C1414 0.950 . S
H1388 C1417 0.950 . S
H1389 C1418 0.950 . S
H1390 C1420 0.950 . S
H1391 C1421 0.950 . S
C1392 H1374 0.951 . S
C1392 C1393 1.366 . S
C1392 C1394 1.388 . S
C1393 C1392 1.366 . S
C1393 C1397 1.385 . S
C1394 H1375 0.951 . S
C1394 C1392 1.388 . S
C1394 C1395 1.366 . S
C1395 C1394 1.366 . S
C1395 C1396 1.414 . S
C1395 C1398 1.499 . S
C1396 H1376 0.950 . S
C1396 C1395 1.414 . S
C1396 C1397 1.374 . S
C1397 H1377 0.950 . S
C1397 C1393 1.385 . S
C1397 C1396 1.374 . S
C1398 C1395 1.499 . S
C1398 C1399 1.373 . S
C1398 C1400 1.389 . S
C1399 H1378 0.950 . S
C1399 C1398 1.373 . S
C1399 C1415 1.377 . S
C1400 C1398 1.389 . S
C1400 C1401 1.524 . S
C1400 C1414 1.377 . S
C1401 C1400 1.524 . S
C1401 C1402 1.397 . S
C1401 C1406 1.363 . S
C1402 H1379 0.950 . S
C1402 C1401 1.397 . S
C1402 C1403 1.334 . S
C1403 H1380 0.950 . S
C1403 C1402 1.334 . S
C1403 C1404 1.287 . S
C1404 C1403 1.287 . S
C1404 C1405 1.524 1_455 S
C1404 H1423 0.913 . S
C1405 H1381 0.950 . S
C1405 C1404 1.524 1_655 S
C1405 C1406 1.415 1_655 S
C1406 H1382 0.950 1_455 S
C1406 C1401 1.363 . S
C1406 C1405 1.415 1_455 S
C1407 H1383 0.951 . S
C1407 C1408 1.366 . S
C1407 C1409 1.388 . S
C1408 C1407 1.366 . S
C1408 C1412 1.385 . S
C1409 H1384 0.951 . S
C1409 C1407 1.388 . S
C1409 C1410 1.366 . S
C1410 C1409 1.366 . S
C1410 C1411 1.414 . S
C1410 C1413 1.499 . S
C1411 H1385 0.950 . S
C1411 C1410 1.414 . S
C1411 C1412 1.374 . S
C1412 H1386 0.950 . S
C1412 C1408 1.385 . S
C1412 C1411 1.374 . S
C1413 C1410 1.499 . S
C1413 C1414 1.373 . S
C1413 C1415 1.389 . S
C1414 H1387 0.950 . S
C1414 C1400 1.377 . S
C1414 C1413 1.373 . S
C1415 C1399 1.377 . S
C1415 C1413 1.389 . S
C1415 C1416 1.524 . S
C1416 C1415 1.524 . S
C1416 C1417 1.397 . S
C1416 C1421 1.363 . S
C1417 H1388 0.950 . S
C1417 C1416 1.397 . S
C1417 C1418 1.334 . S
C1418 H1389 0.950 . S
C1418 C1417 1.334 . S
C1418 C1419 1.287 . S
C1419 C1418 1.287 . S
C1419 C1420 1.524 . S
C1419 H1422 0.999 . S
C1420 H1390 0.950 . S
C1420 C1419 1.524 . S
C1420 C1421 1.415 . S
C1421 H1391 0.950 . S
C1421 C1416 1.363 . S
C1421 C1420 1.415 . S
H1422 C1419 0.999 . S
H1423 C1404 0.913 . S
H1424 C1442 0.951 . S
H1425 C1444 0.951 . S
H1426 C1446 0.950 . S
H1427 C1447 0.950 . S
H1428 C1449 0.950 . S
H1429 C1452 0.950 . S
H1430 C1453 0.950 . S
H1431 C1455 0.950 . S
H1432 C1456 0.950 . S
H1433 C1457 0.951 . S
H1434 C1459 0.951 . S
H1435 C1461 0.950 . S
H1436 C1462 0.950 . S
H1437 C1464 0.950 . S
H1438 C1467 0.950 . S
H1439 C1468 0.950 . S
H1440 C1470 0.950 . S
H1441 C1471 0.950 . S
C1442 H1424 0.951 . S
C1442 C1443 1.366 . S
C1442 C1444 1.388 . S
C1443 C1442 1.366 . S
C1443 C1447 1.385 . S
C1444 H1425 0.951 . S
C1444 C1442 1.388 . S
C1444 C1445 1.366 . S
C1445 C1444 1.366 . S
C1445 C1446 1.414 . S
C1445 C1448 1.499 . S
C1446 H1426 0.950 . S
C1446 C1445 1.414 . S
C1446 C1447 1.374 . S
C1447 H1427 0.950 . S
C1447 C1443 1.385 . S
C1447 C1446 1.374 . S
C1448 C1445 1.499 . S
C1448 C1449 1.373 . S
C1448 C1450 1.389 . S
C1449 H1428 0.950 . S
C1449 C1448 1.373 . S
C1449 C1465 1.377 . S
C1450 C1448 1.389 . S
C1450 C1451 1.524 . S
C1450 C1464 1.377 . S
C1451 C1450 1.524 . S
C1451 C1452 1.397 . S
C1451 C1456 1.363 . S
C1452 H1429 0.950 . S
C1452 C1451 1.397 . S
C1452 C1453 1.334 . S
C1453 H1430 0.950 . S
C1453 C1452 1.334 . S
C1453 C1454 1.287 . S
C1454 C1453 1.287 . S
C1454 C1455 1.524 . S
C1454 H1473 0.913 1_545 S
C1455 H1431 0.950 . S
C1455 C1454 1.524 . S
C1455 C1456 1.415 . S
C1456 H1432 0.950 . S
C1456 C1451 1.363 . S
C1456 C1455 1.415 . S
C1457 H1433 0.951 . S
C1457 C1458 1.366 . S
C1457 C1459 1.388 . S
C1458 C1457 1.366 . S
C1458 C1462 1.385 . S
C1459 H1434 0.951 . S
C1459 C1457 1.388 . S
C1459 C1460 1.366 . S
C1460 C1459 1.366 . S
C1460 C1461 1.414 . S
C1460 C1463 1.499 . S
C1461 H1435 0.950 . S
C1461 C1460 1.414 . S
C1461 C1462 1.374 . S
C1462 H1436 0.950 . S
C1462 C1458 1.385 . S
C1462 C1461 1.374 . S
C1463 C1460 1.499 . S
C1463 C1464 1.373 . S
C1463 C1465 1.389 . S
C1464 H1437 0.950 . S
C1464 C1450 1.377 . S
C1464 C1463 1.373 . S
C1465 C1449 1.377 . S
C1465 C1463 1.389 . S
C1465 C1466 1.524 . S
C1466 C1465 1.524 . S
C1466 C1467 1.397 . S
C1466 C1471 1.363 . S
C1467 H1438 0.950 . S
C1467 C1466 1.397 . S
C1467 C1468 1.334 . S
C1468 H1439 0.950 . S
C1468 C1467 1.334 . S
C1468 C1469 1.287 . S
C1469 C1468 1.287 . S
C1469 C1470 1.524 . S
C1469 H1472 0.999 . S
C1470 H1440 0.950 . S
C1470 C1469 1.524 . S
C1470 C1471 1.415 . S
C1471 H1441 0.950 . S
C1471 C1466 1.363 . S
C1471 C1470 1.415 . S
H1472 C1469 0.999 . S
H1473 C1454 0.913 1_565 S
H1474 C1492 0.951 . S
H1475 C1494 0.951 . S
H1476 C1496 0.950 . S
H1477 C1497 0.950 . S
H1478 C1499 0.950 . S
H1479 C1502 0.950 . S
H1480 C1503 0.950 . S
H1481 C1505 0.950 . S
H1482 C1506 0.950 . S
H1483 C1507 0.951 . S
H1484 C1509 0.951 . S
H1485 C1511 0.950 . S
H1486 C1512 0.950 . S
H1487 C1514 0.950 . S
H1488 C1517 0.950 . S
H1489 C1518 0.950 . S
H1490 C1520 0.950 . S
H1491 C1521 0.950 . S
C1492 H1474 0.951 . S
C1492 C1493 1.366 . S
C1492 C1494 1.388 . S
C1493 C1492 1.366 . S
C1493 C1497 1.385 . S
C1494 H1475 0.951 . S
C1494 C1492 1.388 . S
C1494 C1495 1.366 . S
C1495 C1494 1.366 . S
C1495 C1496 1.414 . S
C1495 C1498 1.499 . S
C1496 H1476 0.950 . S
C1496 C1495 1.414 . S
C1496 C1497 1.374 . S
C1497 H1477 0.950 . S
C1497 C1493 1.385 . S
C1497 C1496 1.374 . S
C1498 C1495 1.499 . S
C1498 C1499 1.373 . S
C1498 C1500 1.389 . S
C1499 H1478 0.950 . S
C1499 C1498 1.373 . S
C1499 C1515 1.377 . S
C1500 C1498 1.389 . S
C1500 C1501 1.524 . S
C1500 C1514 1.377 . S
C1501 C1500 1.524 . S
C1501 C1502 1.397 . S
C1501 C1506 1.363 . S
C1502 H1479 0.950 . S
C1502 C1501 1.397 . S
C1502 C1503 1.334 . S
C1503 H1480 0.950 . S
C1503 C1502 1.334 . S
C1503 C1504 1.287 . S
C1504 C1503 1.287 . S
C1504 C1505 1.524 . S
C1504 H1523 0.913 1_565 S
C1505 H1481 0.950 . S
C1505 C1504 1.524 . S
C1505 C1506 1.415 . S
C1506 H1482 0.950 . S
C1506 C1501 1.363 . S
C1506 C1505 1.415 . S
C1507 H1483 0.951 . S
C1507 C1508 1.366 . S
C1507 C1509 1.388 . S
C1508 C1507 1.366 . S
C1508 C1512 1.385 . S
C1509 H1484 0.951 . S
C1509 C1507 1.388 . S
C1509 C1510 1.366 . S
C1510 C1509 1.366 . S
C1510 C1511 1.414 . S
C1510 C1513 1.499 . S
C1511 H1485 0.950 . S
C1511 C1510 1.414 . S
C1511 C1512 1.374 . S
C1512 H1486 0.950 . S
C1512 C1508 1.385 . S
C1512 C1511 1.374 . S
C1513 C1510 1.499 . S
C1513 C1514 1.373 . S
C1513 C1515 1.389 . S
C1514 H1487 0.950 . S
C1514 C1500 1.377 . S
C1514 C1513 1.373 . S
C1515 C1499 1.377 . S
C1515 C1513 1.389 . S
C1515 C1516 1.524 . S
C1516 C1515 1.524 . S
C1516 C1517 1.397 . S
C1516 C1521 1.363 . S
C1517 H1488 0.950 . S
C1517 C1516 1.397 . S
C1517 C1518 1.334 . S
C1518 H1489 0.950 . S
C1518 C1517 1.334 . S
C1518 C1519 1.287 . S
C1519 C1518 1.287 . S
C1519 C1520 1.524 . S
C1519 H1522 0.999 . S
C1520 H1490 0.950 . S
C1520 C1519 1.524 . S
C1520 C1521 1.415 . S
C1521 H1491 0.950 . S
C1521 C1516 1.363 . S
C1521 C1520 1.415 . S
H1522 C1519 0.999 . S
H1523 C1504 0.913 1_545 S
H1524 C1542 0.951 . S
H1525 C1544 0.951 . S
H1526 C1546 0.950 . S
H1527 C1547 0.950 . S
H1528 C1549 0.950 . S
H1529 C1552 0.950 . S
H1530 C1553 0.950 . S
H1531 C1555 0.950 . S
H1532 C1556 0.950 . S
H1533 C1557 0.951 . S
H1534 C1559 0.951 . S
H1535 C1561 0.950 . S
H1536 C1562 0.950 . S
H1537 C1564 0.950 . S
H1538 C1567 0.950 . S
H1539 C1568 0.950 . S
H1540 C1570 0.950 . S
H1541 C1571 0.950 . S
C1542 H1524 0.951 . S
C1542 C1543 1.366 . S
C1542 C1544 1.388 . S
C1543 C1542 1.366 . S
C1543 C1547 1.385 . S
C1544 H1525 0.951 . S
C1544 C1542 1.388 . S
C1544 C1545 1.366 . S
C1545 C1544 1.366 . S
C1545 C1546 1.414 . S
C1545 C1548 1.499 . S
C1546 H1526 0.950 . S
C1546 C1545 1.414 . S
C1546 C1547 1.374 . S
C1547 H1527 0.950 . S
C1547 C1543 1.385 . S
C1547 C1546 1.374 . S
C1548 C1545 1.499 . S
C1548 C1549 1.373 . S
C1548 C1550 1.389 . S
C1549 H1528 0.950 . S
C1549 C1548 1.373 . S
C1549 C1565 1.377 . S
C1550 C1548 1.389 . S
C1550 C1551 1.524 . S
C1550 C1564 1.377 . S
C1551 C1550 1.524 . S
C1551 C1552 1.397 . S
C1551 C1556 1.363 . S
C1552 H1529 0.950 . S
C1552 C1551 1.397 . S
C1552 C1553 1.334 . S
C1553 H1530 0.950 . S
C1553 C1552 1.334 . S
C1553 C1554 1.287 . S
C1554 C1553 1.287 . S
C1554 C1555 1.524 . S
C1554 H1573 0.913 . S
C1555 H1531 0.950 . S
C1555 C1554 1.524 . S
C1555 C1556 1.415 . S
C1556 H1532 0.950 . S
C1556 C1551 1.363 . S
C1556 C1555 1.415 . S
C1557 H1533 0.951 . S
C1557 C1558 1.366 . S
C1557 C1559 1.388 . S
C1558 C1557 1.366 . S
C1558 C1562 1.385 . S
C1559 H1534 0.951 . S
C1559 C1557 1.388 . S
C1559 C1560 1.366 . S
C1560 C1559 1.366 . S
C1560 C1561 1.414 . S
C1560 C1563 1.499 . S
C1561 H1535 0.950 . S
C1561 C1560 1.414 . S
C1561 C1562 1.374 . S
C1562 H1536 0.950 . S
C1562 C1558 1.385 . S
C1562 C1561 1.374 . S
C1563 C1560 1.499 . S
C1563 C1564 1.373 . S
C1563 C1565 1.389 . S
C1564 H1537 0.950 . S
C1564 C1550 1.377 . S
C1564 C1563 1.373 . S
C1565 C1549 1.377 . S
C1565 C1563 1.389 . S
C1565 C1566 1.524 . S
C1566 C1565 1.524 . S
C1566 C1567 1.397 . S
C1566 C1571 1.363 . S
C1567 H1538 0.950 . S
C1567 C1566 1.397 . S
C1567 C1568 1.334 . S
C1568 H1539 0.950 . S
C1568 C1567 1.334 . S
C1568 C1569 1.287 . S
C1569 C1568 1.287 . S
C1569 C1570 1.524 . S
C1569 H1572 0.999 . S
C1570 H1540 0.950 . S
C1570 C1569 1.524 . S
C1570 C1571 1.415 . S
C1571 H1541 0.950 . S
C1571 C1566 1.363 . S
C1571 C1570 1.415 . S
H1572 C1569 0.999 . S
H1573 C1554 0.913 . S
H1574 C1592 0.951 . S
H1575 C1594 0.951 . S
H1576 C1596 0.950 . S
H1577 C1597 0.950 . S
H1578 C1599 0.950 . S
H1579 C1602 0.950 . S
H1580 C1603 0.950 . S
H1581 C1605 0.950 . S
H1582 C1606 0.950 . S
H1583 C1607 0.951 . S
H1584 C1609 0.951 . S
H1585 C1611 0.950 . S
H1586 C1612 0.950 . S
H1587 C1614 0.950 . S
H1588 C1617 0.950 . S
H1589 C1618 0.950 . S
H1590 C1620 0.950 . S
H1591 C1621 0.950 . S
C1592 H1574 0.951 . S
C1592 C1593 1.366 . S
C1592 C1594 1.388 . S
C1593 C1592 1.366 . S
C1593 C1597 1.385 . S
C1594 H1575 0.951 . S
C1594 C1592 1.388 . S
C1594 C1595 1.366 . S
C1595 C1594 1.366 . S
C1595 C1596 1.414 . S
C1595 C1598 1.499 . S
C1596 H1576 0.950 . S
C1596 C1595 1.414 . S
C1596 C1597 1.374 . S
C1597 H1577 0.950 . S
C1597 C1593 1.385 . S
C1597 C1596 1.374 . S
C1598 C1595 1.499 . S
C1598 C1599 1.373 . S
C1598 C1600 1.378 . S
C1599 H1578 0.950 . S
C1599 C1598 1.373 . S
C1599 C1615 1.388 1_556 S
C1600 C1598 1.378 . S
C1600 C1601 1.523 1_556 S
C1600 C1614 1.388 1_556 S
C1601 C1600 1.523 1_554 S
C1601 C1602 1.360 1_554 S
C1601 C1606 1.407 . S
C1602 H1579 0.950 . S
C1602 C1601 1.360 1_556 S
C1602 C1603 1.334 . S
C1603 H1580 0.950 . S
C1603 C1602 1.334 . S
C1603 C1604 1.287 1_556 S
C1604 C1603 1.287 1_554 S
C1604 C1605 1.524 . S
C1604 H1623 0.924 . S
C1605 H1581 0.950 . S
C1605 C1604 1.524 . S
C1605 C1606 1.415 . S
C1606 H1582 0.950 . S
C1606 C1601 1.407 . S
C1606 C1605 1.415 . S
C1607 H1583 0.951 . S
C1607 C1608 1.366 . S
C1607 C1609 1.388 . S
C1608 C1607 1.366 . S
C1608 C1612 1.385 . S
C1609 H1584 0.951 . S
C1609 C1607 1.388 . S
C1609 C1610 1.366 . S
C1610 C1609 1.366 . S
C1610 C1611 1.414 . S
C1610 C1613 1.499 . S
C1611 H1585 0.950 . S
C1611 C1610 1.414 . S
C1611 C1612 1.374 . S
C1612 H1586 0.950 . S
C1612 C1608 1.385 . S
C1612 C1611 1.374 . S
C1613 C1610 1.499 . S
C1613 C1614 1.373 . S
C1613 C1615 1.378 . S
C1614 H1587 0.950 . S
C1614 C1600 1.388 1_554 S
C1614 C1613 1.373 . S
C1615 C1599 1.388 1_554 S
C1615 C1613 1.378 . S
C1615 C1616 1.523 1_554 S
C1616 C1615 1.523 1_556 S
C1616 C1617 1.360 1_556 S
C1616 C1621 1.407 . S
C1617 H1588 0.950 . S
C1617 C1616 1.360 1_554 S
C1617 C1618 1.334 . S
C1618 H1589 0.950 . S
C1618 C1617 1.334 . S
C1618 C1619 1.287 1_554 S
C1619 C1618 1.287 1_556 S
C1619 C1620 1.524 . S
C1619 H1622 0.999 . S
C1620 H1590 0.950 . S
C1620 C1619 1.524 . S
C1620 C1621 1.415 . S
C1621 H1591 0.950 . S
C1621 C1616 1.407 . S
C1621 C1620 1.415 . S
H1622 C1619 0.999 . S
H1623 C1604 0.924 . S
H1624 C1642 0.951 . S
H1625 C1644 0.951 . S
H1626 C1646 0.950 . S
H1627 C1647 0.950 . S
H1628 C1649 0.950 . S
H1629 C1652 0.950 . S
H1630 C1653 0.950 . S
H1631 C1655 0.950 . S
H1632 C1656 0.950 . S
H1633 C1657 0.951 . S
H1634 C1659 0.951 . S
H1635 C1661 0.950 . S
H1636 C1662 0.950 . S
H1637 C1664 0.950 . S
H1638 C1667 0.950 . S
H1639 C1668 0.950 . S
H1640 C1670 0.950 . S
H1641 C1671 0.950 . S
C1642 H1624 0.951 . S
C1642 C1643 1.366 . S
C1642 C1644 1.388 . S
C1643 C1642 1.366 . S
C1643 C1647 1.385 . S
C1644 H1625 0.951 . S
C1644 C1642 1.388 . S
C1644 C1645 1.366 . S
C1645 C1644 1.366 . S
C1645 C1646 1.414 . S
C1645 C1648 1.499 . S
C1646 H1626 0.950 . S
C1646 C1645 1.414 . S
C1646 C1647 1.374 . S
C1647 H1627 0.950 . S
C1647 C1643 1.385 . S
C1647 C1646 1.374 . S
C1648 C1645 1.499 . S
C1648 C1649 1.391 . S
C1648 C1650 1.389 . S
C1649 H1628 0.950 . S
C1649 C1648 1.391 . S
C1649 C1665 1.358 1_554 S
C1650 C1648 1.389 . S
C1650 C1651 1.524 . S
C1650 C1664 1.358 1_554 S
C1651 C1650 1.524 . S
C1651 C1652 1.397 . S
C1651 C1656 1.363 . S
C1652 H1629 0.950 . S
C1652 C1651 1.397 . S
C1652 C1653 1.334 . S
C1653 H1630 0.950 . S
C1653 C1652 1.334 . S
C1653 C1654 1.287 . S
C1654 C1653 1.287 . S
C1654 C1655 1.524 . S
C1654 H1673 0.913 . S
C1655 H1631 0.950 . S
C1655 C1654 1.524 . S
C1655 C1656 1.415 . S
C1656 H1632 0.950 . S
C1656 C1651 1.363 . S
C1656 C1655 1.415 . S
C1657 H1633 0.951 . S
C1657 C1658 1.366 . S
C1657 C1659 1.388 . S
C1658 C1657 1.366 . S
C1658 C1662 1.385 . S
C1659 H1634 0.951 . S
C1659 C1657 1.388 . S
C1659 C1660 1.366 . S
C1660 C1659 1.366 . S
C1660 C1661 1.414 . S
C1660 C1663 1.499 . S
C1661 H1635 0.950 . S
C1661 C1660 1.414 . S
C1661 C1662 1.374 . S
C1662 H1636 0.950 . S
C1662 C1658 1.385 . S
C1662 C1661 1.374 . S
C1663 C1660 1.499 . S
C1663 C1664 1.391 . S
C1663 C1665 1.389 . S
C1664 H1637 0.950 . S
C1664 C1650 1.358 1_556 S
C1664 C1663 1.391 . S
C1665 C1649 1.358 1_556 S
C1665 C1663 1.389 . S
C1665 C1666 1.524 . S
C1666 C1665 1.524 . S
C1666 C1667 1.397 . S
C1666 C1671 1.363 . S
C1667 H1638 0.950 . S
C1667 C1666 1.397 . S
C1667 C1668 1.334 . S
C1668 H1639 0.950 . S
C1668 C1667 1.334 . S
C1668 C1669 1.287 . S
C1669 C1668 1.287 . S
C1669 C1670 1.524 . S
C1669 H1672 0.999 . S
C1670 H1640 0.950 . S
C1670 C1669 1.524 . S
C1670 C1671 1.415 . S
C1671 H1641 0.950 . S
C1671 C1666 1.363 . S
C1671 C1670 1.415 . S
H1672 C1669 0.999 . S
H1673 C1654 0.913 . S
H1674 C1692 0.951 . S
H1675 C1694 0.951 . S
H1676 C1696 0.950 . S
H1677 C1697 0.950 . S
H1678 C1699 0.950 . S
H1679 C1702 0.950 . S
H1680 C1703 0.950 . S
H1681 C1705 0.950 . S
H1682 C1706 0.950 . S
H1683 C1707 0.951 . S
H1684 C1709 0.951 . S
H1685 C1711 0.950 . S
H1686 C1712 0.950 . S
H1687 C1714 0.950 . S
H1688 C1717 0.950 . S
H1689 C1718 0.950 . S
H1690 C1720 0.950 . S
H1691 C1721 0.950 . S
C1692 H1674 0.951 . S
C1692 C1693 1.366 . S
C1692 C1694 1.388 . S
C1693 C1692 1.366 . S
C1693 C1697 1.385 . S
C1694 H1675 0.951 . S
C1694 C1692 1.388 . S
C1694 C1695 1.366 . S
C1695 C1694 1.366 . S
C1695 C1696 1.414 . S
C1695 C1698 1.499 . S
C1696 H1676 0.950 . S
C1696 C1695 1.414 . S
C1696 C1697 1.374 . S
C1697 H1677 0.950 . S
C1697 C1693 1.385 . S
C1697 C1696 1.374 . S
C1698 C1695 1.499 . S
C1698 C1699 1.373 . S
C1698 C1700 1.389 . S
C1699 H1678 0.950 . S
C1699 C1698 1.373 . S
C1699 C1715 1.377 . S
C1700 C1698 1.389 . S
C1700 C1701 1.524 . S
C1700 C1714 1.377 . S
C1701 C1700 1.524 . S
C1701 C1702 1.397 . S
C1701 C1706 1.363 . S
C1702 H1679 0.950 . S
C1702 C1701 1.397 . S
C1702 C1703 1.334 . S
C1703 H1680 0.950 . S
C1703 C1702 1.334 . S
C1703 C1704 1.287 . S
C1704 C1703 1.287 . S
C1704 C1705 1.524 . S
C1704 H1723 0.913 . S
C1705 H1681 0.950 . S
C1705 C1704 1.524 . S
C1705 C1706 1.415 . S
C1706 H1682 0.950 . S
C1706 C1701 1.363 . S
C1706 C1705 1.415 . S
C1707 H1683 0.951 . S
C1707 C1708 1.366 . S
C1707 C1709 1.388 . S
C1708 C1707 1.366 . S
C1708 C1712 1.385 . S
C1709 H1684 0.951 . S
C1709 C1707 1.388 . S
C1709 C1710 1.366 . S
C1710 C1709 1.366 . S
C1710 C1711 1.414 . S
C1710 C1713 1.499 . S
C1711 H1685 0.950 . S
C1711 C1710 1.414 . S
C1711 C1712 1.374 . S
C1712 H1686 0.950 . S
C1712 C1708 1.385 . S
C1712 C1711 1.374 . S
C1713 C1710 1.499 . S
C1713 C1714 1.373 . S
C1713 C1715 1.389 . S
C1714 H1687 0.950 . S
C1714 C1700 1.377 . S
C1714 C1713 1.373 . S
C1715 C1699 1.377 . S
C1715 C1713 1.389 . S
C1715 C1716 1.524 . S
C1716 C1715 1.524 . S
C1716 C1717 1.397 . S
C1716 C1721 1.363 . S
C1717 H1688 0.950 . S
C1717 C1716 1.397 . S
C1717 C1718 1.334 . S
C1718 H1689 0.950 . S
C1718 C1717 1.334 . S
C1718 C1719 1.287 . S
C1719 C1718 1.287 . S
C1719 C1720 1.524 . S
C1719 H1722 0.999 . S
C1720 H1690 0.950 . S
C1720 C1719 1.524 . S
C1720 C1721 1.415 . S
C1721 H1691 0.950 . S
C1721 C1716 1.363 . S
C1721 C1720 1.415 . S
H1722 C1719 0.999 . S
H1723 C1704 0.913 . S
H1724 C1742 0.951 . S
H1725 C1744 0.951 . S
H1726 C1746 0.950 . S
H1727 C1747 0.950 . S
H1728 C1749 0.950 . S
H1729 C1752 0.950 . S
H1730 C1753 0.950 . S
H1731 C1755 0.950 . S
H1732 C1756 0.950 . S
H1733 C1757 0.951 . S
H1734 C1759 0.951 . S
H1735 C1761 0.950 . S
H1736 C1762 0.950 . S
H1737 C1764 0.950 . S
H1738 C1767 0.950 . S
H1739 C1768 0.950 . S
H1740 C1770 0.950 . S
H1741 C1771 0.950 . S
C1742 H1724 0.951 . S
C1742 C1743 1.366 . S
C1742 C1744 1.388 . S
C1743 C1742 1.366 . S
C1743 C1747 1.385 . S
C1744 H1725 0.951 . S
C1744 C1742 1.388 . S
C1744 C1745 1.366 . S
C1745 C1744 1.366 . S
C1745 C1746 1.414 . S
C1745 C1748 1.499 . S
C1746 H1726 0.950 . S
C1746 C1745 1.414 . S
C1746 C1747 1.374 . S
C1747 H1727 0.950 . S
C1747 C1743 1.385 . S
C1747 C1746 1.374 . S
C1748 C1745 1.499 . S
C1748 C1749 1.373 . S
C1748 C1750 1.389 . S
C1749 H1728 0.950 . S
C1749 C1748 1.373 . S
C1749 C1765 1.377 . S
C1750 C1748 1.389 . S
C1750 C1751 1.524 . S
C1750 C1764 1.377 . S
C1751 C1750 1.524 . S
C1751 C1752 1.397 . S
C1751 C1756 1.363 . S
C1752 H1729 0.950 . S
C1752 C1751 1.397 . S
C1752 C1753 1.334 . S
C1753 H1730 0.950 . S
C1753 C1752 1.334 . S
C1753 C1754 1.287 . S
C1754 C1753 1.287 . S
C1754 C1755 1.524 . S
C1754 H1773 0.913 . S
C1755 H1731 0.950 . S
C1755 C1754 1.524 . S
C1755 C1756 1.415 . S
C1756 H1732 0.950 . S
C1756 C1751 1.363 . S
C1756 C1755 1.415 . S
C1757 H1733 0.951 . S
C1757 C1758 1.366 . S
C1757 C1759 1.388 . S
C1758 C1757 1.366 . S
C1758 C1762 1.385 . S
C1759 H1734 0.951 . S
C1759 C1757 1.388 . S
C1759 C1760 1.366 . S
C1760 C1759 1.366 . S
C1760 C1761 1.414 . S
C1760 C1763 1.499 . S
C1761 H1735 0.950 . S
C1761 C1760 1.414 . S
C1761 C1762 1.374 . S
C1762 H1736 0.950 . S
C1762 C1758 1.385 . S
C1762 C1761 1.374 . S
C1763 C1760 1.499 . S
C1763 C1764 1.373 . S
C1763 C1765 1.389 . S
C1764 H1737 0.950 . S
C1764 C1750 1.377 . S
C1764 C1763 1.373 . S
C1765 C1749 1.377 . S
C1765 C1763 1.389 . S
C1765 C1766 1.524 . S
C1766 C1765 1.524 . S
C1766 C1767 1.397 . S
C1766 C1771 1.363 . S
C1767 H1738 0.950 . S
C1767 C1766 1.397 . S
C1767 C1768 1.334 . S
C1768 H1739 0.950 . S
C1768 C1767 1.334 . S
C1768 C1769 1.287 . S
C1769 C1768 1.287 . S
C1769 C1770 1.524 . S
C1769 H1772 0.999 . S
C1770 H1740 0.950 . S
C1770 C1769 1.524 . S
C1770 C1771 1.415 . S
C1771 H1741 0.950 . S
C1771 C1766 1.363 . S
C1771 C1770 1.415 . S
H1772 C1769 0.999 . S
H1773 C1754 0.913 . S
H1774 C1792 0.951 . S
H1775 C1794 0.951 . S
H1776 C1796 0.950 . S
H1777 C1797 0.950 . S
H1778 C1799 0.950 . S
H1779 C1802 0.950 . S
H1780 C1803 0.950 . S
H1781 C1805 0.950 . S
H1782 C1806 0.950 . S
H1783 C1807 0.951 . S
H1784 C1809 0.951 . S
H1785 C1811 0.950 . S
H1786 C1812 0.950 . S
H1787 C1814 0.950 . S
H1788 C1817 0.950 . S
H1789 C1818 0.950 . S
H1790 C1820 0.950 . S
H1791 C1821 0.950 . S
C1792 H1774 0.951 . S
C1792 C1793 1.366 . S
C1792 C1794 1.388 . S
C1793 C1792 1.366 . S
C1793 C1797 1.385 . S
C1794 H1775 0.951 . S
C1794 C1792 1.388 . S
C1794 C1795 1.366 . S
C1795 C1794 1.366 . S
C1795 C1796 1.414 . S
C1795 C1798 1.499 . S
C1796 H1776 0.950 . S
C1796 C1795 1.414 . S
C1796 C1797 1.374 . S
C1797 H1777 0.950 . S
C1797 C1793 1.385 . S
C1797 C1796 1.374 . S
C1798 C1795 1.499 . S
C1798 C1799 1.373 . S
C1798 C1800 1.389 . S
C1799 H1778 0.950 . S
C1799 C1798 1.373 . S
C1799 C1815 1.377 . S
C1800 C1798 1.389 . S
C1800 C1801 1.524 . S
C1800 C1814 1.377 . S
C1801 C1800 1.524 . S
C1801 C1802 1.397 . S
C1801 C1806 1.363 . S
C1802 H1779 0.950 . S
C1802 C1801 1.397 . S
C1802 C1803 1.334 . S
C1803 H1780 0.950 . S
C1803 C1802 1.334 . S
C1803 C1804 1.287 . S
C1804 C1803 1.287 . S
C1804 C1805 1.524 . S
C1804 H1823 0.913 . S
C1805 H1781 0.950 . S
C1805 C1804 1.524 . S
C1805 C1806 1.415 . S
C1806 H1782 0.950 . S
C1806 C1801 1.363 . S
C1806 C1805 1.415 . S
C1807 H1783 0.951 . S
C1807 C1808 1.366 . S
C1807 C1809 1.388 . S
C1808 C1807 1.366 . S
C1808 C1812 1.385 . S
C1809 H1784 0.951 . S
C1809 C1807 1.388 . S
C1809 C1810 1.366 . S
C1810 C1809 1.366 . S
C1810 C1811 1.414 . S
C1810 C1813 1.499 . S
C1811 H1785 0.950 . S
C1811 C1810 1.414 . S
C1811 C1812 1.374 . S
C1812 H1786 0.950 . S
C1812 C1808 1.385 . S
C1812 C1811 1.374 . S
C1813 C1810 1.499 . S
C1813 C1814 1.373 . S
C1813 C1815 1.389 . S
C1814 H1787 0.950 . S
C1814 C1800 1.377 . S
C1814 C1813 1.373 . S
C1815 C1799 1.377 . S
C1815 C1813 1.389 . S
C1815 C1816 1.524 . S
C1816 C1815 1.524 . S
C1816 C1817 1.397 . S
C1816 C1821 1.363 . S
C1817 H1788 0.950 . S
C1817 C1816 1.397 . S
C1817 C1818 1.334 . S
C1818 H1789 0.950 . S
C1818 C1817 1.334 . S
C1818 C1819 1.287 . S
C1819 C1818 1.287 . S
C1819 C1820 1.524 . S
C1819 H1822 0.999 . S
C1820 H1790 0.950 . S
C1820 C1819 1.524 . S
C1820 C1821 1.415 . S
C1821 H1791 0.950 . S
C1821 C1816 1.363 . S
C1821 C1820 1.415 . S
H1822 C1819 0.999 . S
H1823 C1804 0.913 . S
C243 C141 2.164 . S
C258 C13 2.164 . S
C293 C15 2.164 . S
C308 C167 2.164 . S
C343 C113 2.164 . S
C358 C29 2.164 . S
C393 C139 2.164 . S
C408 C43 2.164 . S
C443 C69 2.164 . S
C458 C197 2.164 . S
C493 C211 2.164 . S
C508 C83 2.164 . S
C543 C96 2.161 . S
C558 C180 2.160 . S
C593 C182 2.161 . S
C608 C98 2.161 . S
C643 C140 1.369 . S
C658 C12 1.369 . S
C693 C14 1.369 . S
C708 C166 1.369 . S
C743 C28 1.370 . S
C758 C112 1.370 . S
C793 C42 1.370 . S
C808 C138 1.369 . S
C843 C68 1.369 . S
C858 C196 1.370 . S
C893 C82 1.370 . S
C908 C210 1.369 . S
C943 C181 1.371 . S
C958 C97 1.371 . S
C993 C183 1.372 . S
C1008 C99 1.372 . S
C1043 C0 1.668 . S
C1058 C85 1.670 . S
C1093 C26 1.668 . S
C1108 C111 1.669 . S
C1143 C40 1.669 . S
C1158 C56 1.669 . S
C1193 C54 1.668 . S
C1208 C70 1.668 . S
C1243 C124 1.669 . S
C1258 C208 1.669 . S
C1293 C222 1.669 . S
C1308 C126 1.669 . S
C1343 C152 1.669 . S
C1358 C169 1.670 . S
C1393 C195 1.669 . S
C1408 C154 1.668 . S
C1443 C1 1.747 . S
C1458 C223 1.747 . S
C1493 C168 1.746 . S
C1508 C27 1.747 . S
C1543 C194 1.746 . S
C1558 C41 1.747 . S
C1593 C209 1.747 . S
C1608 C55 1.747 . S
C1643 C127 1.747 . S
C1658 C57 1.747 . S
C1693 C153 1.748 . S
C1708 C71 1.747 . S
C1743 C84 1.746 . S
C1758 C155 1.748 . S
C1793 C110 1.746 . S
C1808 C125 1.747 . S
