# Generated by pormake.
# Topology ure, (4)-cn, num edge types: 1
# Building blocks:
#     Node 0, Type 0, BuildingBlock: CEKHIL_clean_sbu_0, # of connection points: 4
#     Node 1, Type 0, BuildingBlock: CEKHIL_clean_sbu_0, # of connection points: 4
#     Node 2, Type 0, BuildingBlock: CEKHIL_clean_sbu_0, # of connection points: 4
#     Node 3, Type 0, BuildingBlock: CEKHIL_clean_sbu_0, # of connection points: 4
#     Node 4, Type 0, BuildingBlock: CEKHIL_clean_sbu_0, # of connection points: 4
#     Node 5, Type 0, BuildingBlock: CEKHIL_clean_sbu_0, # of connection points: 4
#     Node 6, Type 0, BuildingBlock: CEKHIL_clean_sbu_0, # of connection points: 4
#     Node 7, Type 0, BuildingBlock: CEKHIL_clean_sbu_0, # of connection points: 4
#     Node 8, Type 0, BuildingBlock: CEKHIL_clean_sbu_0, # of connection points: 4
#     Node 9, Type 0, BuildingBlock: CEKHIL_clean_sbu_0, # of connection points: 4
#     Node 10, Type 0, BuildingBlock: CEKHIL_clean_sbu_0, # of connection points: 4
#     Node 11, Type 0, BuildingBlock: CEKHIL_clean_sbu_0, # of connection points: 4
#     Node 12, Type 0, BuildingBlock: CEKHIL_clean_sbu_0, # of connection points: 4
#     Node 13, Type 0, BuildingBlock: CEKHIL_clean_sbu_0, # of connection points: 4
#     Node 14, Type 0, BuildingBlock: CEKHIL_clean_sbu_0, # of connection points: 4
#     Node 15, Type 0, BuildingBlock: CEKHIL_clean_sbu_0, # of connection points: 4
#     Edge 16, Type (0, 0), BuildingBlock: OJICUG_clean_linker_0, # of connection points: 2
#     Edge 17, Type (0, 0), BuildingBlock: OJICUG_clean_linker_0, # of connection points: 2
#     Edge 18, Type (0, 0), BuildingBlock: OJICUG_clean_linker_0, # of connection points: 2
#     Edge 19, Type (0, 0), BuildingBlock: OJICUG_clean_linker_0, # of connection points: 2
#     Edge 20, Type (0, 0), BuildingBlock: OJICUG_clean_linker_0, # of connection points: 2
#     Edge 21, Type (0, 0), BuildingBlock: OJICUG_clean_linker_0, # of connection points: 2
#     Edge 22, Type (0, 0), BuildingBlock: OJICUG_clean_linker_0, # of connection points: 2
#     Edge 23, Type (0, 0), BuildingBlock: OJICUG_clean_linker_0, # of connection points: 2
#     Edge 24, Type (0, 0), BuildingBlock: OJICUG_clean_linker_0, # of connection points: 2
#     Edge 25, Type (0, 0), BuildingBlock: OJICUG_clean_linker_0, # of connection points: 2
#     Edge 26, Type (0, 0), BuildingBlock: OJICUG_clean_linker_0, # of connection points: 2
#     Edge 27, Type (0, 0), BuildingBlock: OJICUG_clean_linker_0, # of connection points: 2
#     Edge 28, Type (0, 0), BuildingBlock: OJICUG_clean_linker_0, # of connection points: 2
#     Edge 29, Type (0, 0), BuildingBlock: OJICUG_clean_linker_0, # of connection points: 2
#     Edge 30, Type (0, 0), BuildingBlock: OJICUG_clean_linker_0, # of connection points: 2
#     Edge 31, Type (0, 0), BuildingBlock: OJICUG_clean_linker_0, # of connection points: 2
#     Edge 32, Type (0, 0), BuildingBlock: OJICUG_clean_linker_0, # of connection points: 2
#     Edge 33, Type (0, 0), BuildingBlock: OJICUG_clean_linker_0, # of connection points: 2
#     Edge 34, Type (0, 0), BuildingBlock: OJICUG_clean_linker_0, # of connection points: 2
#     Edge 35, Type (0, 0), BuildingBlock: OJICUG_clean_linker_0, # of connection points: 2
#     Edge 36, Type (0, 0), BuildingBlock: OJICUG_clean_linker_0, # of connection points: 2
#     Edge 37, Type (0, 0), BuildingBlock: OJICUG_clean_linker_0, # of connection points: 2
#     Edge 38, Type (0, 0), BuildingBlock: OJICUG_clean_linker_0, # of connection points: 2
#     Edge 39, Type (0, 0), BuildingBlock: OJICUG_clean_linker_0, # of connection points: 2
#     Edge 40, Type (0, 0), BuildingBlock: OJICUG_clean_linker_0, # of connection points: 2
#     Edge 41, Type (0, 0), BuildingBlock: OJICUG_clean_linker_0, # of connection points: 2
#     Edge 42, Type (0, 0), BuildingBlock: OJICUG_clean_linker_0, # of connection points: 2
#     Edge 43, Type (0, 0), BuildingBlock: OJICUG_clean_linker_0, # of connection points: 2
#     Edge 44, Type (0, 0), BuildingBlock: OJICUG_clean_linker_0, # of connection points: 2
#     Edge 45, Type (0, 0), BuildingBlock: OJICUG_clean_linker_0, # of connection points: 2
#     Edge 46, Type (0, 0), BuildingBlock: OJICUG_clean_linker_0, # of connection points: 2
#     Edge 47, Type (0, 0), BuildingBlock: OJICUG_clean_linker_0, # of connection points: 2
# Relax obj value: 0.214
# Max RMSD: 0.161
# Mean RMSD: 0.161
data_MOF--net-ure--node1-CEKHIL_clean_sbu_0--edge1-OJICUG_clean_linker_0
_symmetry_space_group_name_H-M    P1
_symmetry_Int_Tables_number       1
_symmetry_cell_setting            triclinic
loop_
_symmetry_equiv_pos_as_xyz
'x, y, z'
_cell_length_a     24.406619
_cell_length_b     21.004565
_cell_length_c     21.004067
_cell_angle_alpha  89.997082
_cell_angle_beta   90.007527
_cell_angle_gamma 89.989443
loop_
_atom_site_label
_atom_site_type_symbol
_atom_site_fract_x
_atom_site_fract_y
_atom_site_fract_z
_atom_type_partial_charge
Co0 Co 0.28737 0.23263 0.28398 0.0
O1 O 0.21154 0.21923 0.26052 0.0
O2 O 0.28075 0.20716 0.19449 0.0
C3 C 0.28007 0.17548 0.37559 0.0
O4 O 0.37243 0.24073 0.29267 0.0
Co5 Co 0.31341 0.30096 0.41093 0.0
O6 O 0.38874 0.27316 0.39285 0.0
C7 C 0.27446 0.37604 0.30189 0.0
C8 C 0.22812 0.20311 0.20435 0.0
C9 C 0.40586 0.25407 0.33885 0.0
O10 O 0.28022 0.3276 0.26414 0.0
O11 O 0.28025 0.3722 0.36213 0.0
O12 O 0.29026 0.14622 0.32245 0.0
O13 O 0.27211 0.23552 0.37078 0.0
Co14 Co 1.01328 0.03276 0.48279 0.0
O15 O 0.08907 0.00884 0.46984 0.0
O16 O 1.01975 0.94291 0.4584 0.0
C17 C 1.02144 0.12349 0.42432 0.0
O18 O 0.92818 0.04192 0.4908 0.0
Co19 Co 0.98711 0.16114 0.54839 0.0
O20 O 0.91198 0.1431 0.51996 0.0
C21 C 1.02473 0.05277 0.62601 0.0
C22 C 0.07241 0.95256 0.45429 0.0
C23 C 0.89477 0.08853 0.50271 0.0
O24 O 1.02027 0.01419 0.57805 0.0
O25 O 1.01837 0.11284 0.62109 0.0
O26 O 1.01073 0.07007 0.39583 0.0
O27 O 0.02902 0.11952 0.48447 0.0
Co28 Co 0.26135 0.77857 0.78496 0.0
O29 O 0.33715 0.79178 0.76136 0.0
O30 O 0.26797 0.80329 0.6952 0.0
C31 C 0.26906 0.83674 0.87596 0.0
O32 O 0.17626 0.77022 0.7939 0.0
Co33 Co 0.23532 0.71222 0.91306 0.0
O34 O 0.1601 0.74018 0.89485 0.0
C35 C 0.27304 0.63526 0.80425 0.0
C36 C 0.32061 0.80741 0.70505 0.0
C37 C 0.14287 0.75775 0.84038 0.0
O38 O 0.26853 0.68342 0.76593 0.0
O39 O 0.26668 0.63985 0.86435 0.0
O40 O 0.25852 0.86539 0.82258 0.0
O41 O 0.27687 0.77664 0.87177 0.0
Co42 Co 0.53652 0.97691 0.98395 0.0
O43 O 0.46077 1.00095 0.97092 0.0
O44 O 0.5302 0.06673 0.95943 0.0
C45 C 0.52833 0.88611 0.92563 0.0
O46 O 0.6216 0.96769 0.99188 0.0
Co47 Co 0.5627 0.84868 0.04978 0.0
O48 O 0.63779 0.86655 0.02118 0.0
C49 C 0.52496 0.95707 0.1272 0.0
C50 C 0.47754 0.05718 0.95527 0.0
C51 C 0.655 0.92106 1.00374 0.0
O52 O 0.52955 0.9956 0.0792 0.0
O53 O 0.53128 0.89698 0.12237 0.0
O54 O 0.53904 0.93948 0.89705 0.0
O55 O 0.52075 0.89016 0.98578 0.0
Co56 Co 0.28661 0.77757 0.22655 0.0
O57 O 0.21091 0.79058 0.25072 0.0
O58 O 0.28041 0.802 0.31642 0.0
C59 C 0.27834 0.83599 0.13577 0.0
O60 O 0.37165 0.76944 0.21706 0.0
Co61 Co 0.31218 0.71159 0.09821 0.0
O62 O 0.38745 0.73972 0.11594 0.0
C63 C 0.27509 0.63424 0.20693 0.0
C64 C 0.22772 0.80609 0.30696 0.0
C65 C 0.40487 0.7572 0.17036 0.0
O66 O 0.27971 0.68235 0.2453 0.0
O67 O 0.28115 0.63894 0.14679 0.0
O68 O 0.28912 0.86449 0.18916 0.0
O69 O 0.27065 0.77585 0.13983 0.0
Co70 Co 0.53607 0.03312 0.52888 0.0
O71 O 0.46025 0.00989 0.54263 0.0
O72 O 0.52931 0.94354 0.55416 0.0
C73 C 0.52927 0.1246 0.58635 0.0
O74 O 0.6211 0.04176 0.52013 0.0
Co75 Co 0.56142 0.16033 0.46044 0.0
O76 O 0.63714 0.14165 0.48651 0.0
C77 C 0.52233 0.05127 0.38559 0.0
C78 C 0.47671 0.95358 0.55844 0.0
C79 C 0.65441 0.08778 0.50583 0.0
O80 O 0.52851 0.01349 0.43392 0.0
O81 O 0.52778 0.11154 0.3895 0.0
O82 O 0.53947 0.07134 0.6154 0.0
O83 O 0.52092 0.11993 0.52638 0.0
Co84 Co 0.26383 0.23356 0.72761 0.0
O85 O 0.33957 0.22062 0.7518 0.0
O86 O 0.26997 0.20817 0.81718 0.0
C87 C 0.27222 0.17642 0.63614 0.0
O88 O 0.17879 0.24119 0.71826 0.0
Co89 Co 0.23799 0.30136 0.60042 0.0
O90 O 0.16277 0.27269 0.61775 0.0
C91 C 0.27595 0.37701 0.70951 0.0
C92 C 0.32268 0.2044 0.80782 0.0
C93 C 0.14549 0.25396 0.6718 0.0
O94 O 0.27037 0.32859 0.74732 0.0
O95 O 0.27041 0.37304 0.64924 0.0
O96 O 0.26164 0.14713 0.68917 0.0
O97 O 0.27974 0.23652 0.64096 0.0
Co98 Co 1.01365 0.97637 0.02772 0.0
O99 O 0.0894 0.99994 0.0414 0.0
O100 O 1.02007 0.06586 0.05328 0.0
C101 C 1.02097 0.88472 0.08482 0.0
O102 O 0.92864 0.96751 0.01923 0.0
Co103 Co 0.98815 0.84936 0.95916 0.0
O104 O 0.91257 0.8675 0.98609 0.0
C105 C 0.0271 0.95859 0.88441 0.0
C106 C 0.07271 0.05609 0.05747 0.0
C107 C 0.89532 0.9214 0.00533 0.0
O108 O 1.02097 0.9963 0.93281 0.0
O109 O 1.02161 0.89832 0.88822 0.0
O110 O 1.01058 0.93781 0.11409 0.0
O111 O 0.02909 0.88962 0.02483 0.0
Co112 Co 0.78671 0.27798 0.72545 0.0
O113 O 0.71089 0.2918 0.74866 0.0
O114 O 0.77997 0.30324 0.815 0.0
C115 C 0.77987 0.33549 0.63399 0.0
O116 O 0.87176 0.26925 0.71695 0.0
Co117 Co 0.8126 0.20987 0.5982 0.0
O118 O 0.88813 0.23661 0.61683 0.0
C119 C 0.77333 0.1347 0.70715 0.0
C120 C 0.72738 0.30762 0.80495 0.0
C121 C 0.90522 0.25552 0.67092 0.0
O122 O 0.77907 0.18302 0.74504 0.0
O123 O 0.7793 0.13869 0.64695 0.0
O124 O 0.7901 0.3645 0.68727 0.0
O125 O 0.77163 0.27549 0.63858 0.0
Co126 Co 0.03577 0.53294 0.02588 0.0
O127 O 0.96008 0.5087 0.03895 0.0
O128 O 0.02975 0.44329 0.05093 0.0
C129 C 0.02753 0.62418 0.08343 0.0
O130 O 0.12078 0.5423 0.01811 0.0
Co131 Co 0.06155 0.66042 0.95856 0.0
O132 O 0.13674 0.64306 0.98738 0.0
C133 C 1.02375 0.55149 0.88242 0.0
C134 C 0.97705 0.45263 0.05491 0.0
C135 C 0.15405 0.58888 0.00574 0.0
O136 O 0.02901 0.51354 0.93079 0.0
O137 O 0.02956 0.61171 0.88654 0.0
O138 O 0.03817 0.57102 0.11246 0.0
O139 O 1.01987 0.61964 0.02332 0.0
Co140 Co 0.7635 0.73094 0.22522 0.0
O141 O 0.83926 0.71723 0.24872 0.0
O142 O 0.77001 0.70565 0.31478 0.0
C143 C 0.7707 0.67351 0.13376 0.0
O144 O 0.67849 0.7396 0.21639 0.0
Co145 Co 0.73794 0.7991 0.09797 0.0
O146 O 0.66243 0.77189 0.11609 0.0
C147 C 0.77671 0.87427 0.20714 0.0
C148 C 0.82264 0.7014 0.30495 0.0
C149 C 0.64517 0.75313 0.17016 0.0
O150 O 0.77094 0.82587 0.24492 0.0
O151 O 0.77095 0.87038 0.1469 0.0
O152 O 0.76028 0.64446 0.18696 0.0
O153 O 0.77888 0.73352 0.13843 0.0
Co154 Co 0.03701 0.47449 0.48103 0.0
O155 O 0.96132 0.49825 0.46742 0.0
O156 O 0.03068 0.56419 0.45612 0.0
C157 C 0.02955 0.38336 0.42304 0.0
O158 O 0.122 0.46532 0.48976 0.0
Co159 Co 0.06232 0.34663 0.54823 0.0
O160 O 0.13778 0.36459 0.52087 0.0
C161 C 1.02459 0.45583 0.62442 0.0
C162 C 0.97804 0.55449 0.45179 0.0
C163 C 0.1552 0.41882 0.50282 0.0
O164 O 0.02962 0.49384 0.57609 0.0
O165 O 0.03057 0.39565 0.62019 0.0
O166 O 0.04014 0.43668 0.39432 0.0
O167 O 1.0214 0.38772 0.48308 0.0
Co168 Co 0.51264 0.53437 0.98118 0.0
O169 O 0.58841 0.51079 0.96759 0.0
O170 O 0.51912 0.44486 0.95568 0.0
C171 C 0.52002 0.62596 0.92397 0.0
O172 O 0.42762 0.54324 0.98969 0.0
Co173 Co 0.48699 0.66149 0.04951 0.0
O174 O 0.41149 0.64341 0.02231 0.0
C175 C 0.5255 0.55212 0.12461 0.0
C176 C 0.57176 0.45463 0.95154 0.0
C177 C 0.39427 0.58939 1.00338 0.0
O178 O 0.51991 0.51444 0.0761 0.0
O179 O 0.51972 0.61237 0.12083 0.0
O180 O 0.50962 0.57284 0.89477 0.0
O181 O 0.52807 0.62115 0.98399 0.0
Co182 Co 0.78454 0.73319 0.78269 0.0
O183 O 0.70896 0.71995 0.75822 0.0
O184 O 0.77874 0.70867 0.69286 0.0
C185 C 0.77626 0.67487 0.87349 0.0
O186 O 0.86949 0.74141 0.79245 0.0
Co187 Co 0.80963 0.79946 0.91098 0.0
O188 O 0.885 0.77131 0.89357 0.0
C189 C 0.77252 0.87651 0.80211 0.0
C190 C 0.72603 0.7044 0.70209 0.0
C191 C 0.90256 0.75365 0.83927 0.0
O192 O 0.77751 0.82838 0.76383 0.0
O193 O 0.77831 0.87191 0.8623 0.0
O194 O 0.78722 0.64633 0.82016 0.0
O195 O 0.76838 0.73497 0.86934 0.0
Co196 Co 0.76434 0.27575 0.28289 0.0
O197 O 0.83997 0.28888 0.2585 0.0
O198 O 0.77024 0.30048 0.19312 0.0
C199 C 0.77282 0.33384 0.37381 0.0
O200 O 0.67935 0.26772 0.29247 0.0
Co201 Co 0.73872 0.20955 0.41108 0.0
O202 O 0.6635 0.23812 0.39358 0.0
C203 C 0.77589 0.13241 0.30222 0.0
C204 C 0.82294 0.30464 0.20241 0.0
C205 C 0.64612 0.25567 0.33917 0.0
O206 O 0.77123 0.18057 0.2639 0.0
O207 O 0.76982 0.13701 0.36236 0.0
O208 O 0.76187 0.36253 0.32055 0.0
O209 O 0.78046 0.27371 0.36957 0.0
Co210 Co 0.5136 0.47573 0.52602 0.0
O211 O 0.58921 0.50033 0.53883 0.0
O212 O 0.51936 0.56552 0.55066 0.0
C213 C 0.52247 0.38484 0.58406 0.0
O214 O 0.4286 0.46596 0.51831 0.0
Co215 Co 0.48787 0.34763 0.45995 0.0
O216 O 0.41293 0.36452 0.48982 0.0
C217 C 0.52462 0.45651 0.3826 0.0
C218 C 0.5721 0.5564 0.55459 0.0
C219 C 0.39545 0.419 0.50699 0.0
O220 O 0.52016 0.49476 0.43083 0.0
O221 O 0.51851 0.39636 0.38715 0.0
O222 O 0.51148 0.43806 0.6128 0.0
O223 O 0.5299 0.38911 0.52389 0.0
C224 C 0.132 0.18422 0.16525 0.0
C225 C 0.18886 0.17471 0.15783 0.0
H226 H 0.05065 0.1557 0.13825 0.0
C227 C 0.20675 0.13151 0.1112 0.0
H228 H 0.11675 0.21714 0.20079 0.0
C229 C 0.16874 0.09548 0.07615 0.0
C230 C 0.11189 0.10268 0.08587 0.0
H231 H 0.25009 0.12268 0.10447 0.0
H232 H 0.184 0.06008 0.04309 0.0
C233 C 0.09398 0.14915 0.12924 0.0
C234 C 0.16848 0.91318 0.43568 0.0
C235 C 0.11161 0.90581 0.42615 0.0
H236 H 0.24984 0.88634 0.407 0.0
C237 C 0.09373 0.85921 0.38292 0.0
H238 H 0.18373 0.94869 0.46863 0.0
C239 C 0.13174 0.82426 0.34679 0.0
C240 C 0.1886 0.83404 0.35391 0.0
H241 H 0.05039 0.85252 0.37405 0.0
H242 H 0.11649 0.79129 0.3113 0.0
C243 C 0.2065 0.87728 0.4005 0.0
C244 C 0.45498 0.86045 0.62994 0.0
C245 C 0.43731 0.90711 0.58664 0.0
H246 H 0.43186 0.79251 0.70138 0.0
C247 C 0.38049 0.91465 0.57686 0.0
H248 H 0.49828 0.85363 0.63898 0.0
C249 C 0.34229 0.8788 0.61182 0.0
C250 C 0.35996 0.83544 0.65842 0.0
H251 H 0.36541 0.9502 0.54384 0.0
H252 H 0.29899 0.88794 0.60509 0.0
C253 C 0.41678 0.82555 0.66585 0.0
C254 C 0.38156 0.09671 0.93633 0.0
C255 C 0.43845 0.10398 0.92698 0.0
H256 H 0.30031 0.12383 0.9075 0.0
C257 C 0.4565 0.1506 0.88386 0.0
H258 H 0.36619 0.06119 0.96919 0.0
C259 C 0.41862 0.18572 0.84768 0.0
C260 C 0.36173 0.17607 0.85465 0.0
H261 H 0.49987 0.15722 0.87514 0.0
H262 H 0.434 0.21873 0.81231 0.0
C263 C 0.34367 0.13277 0.9011 0.0
C264 C 0.70589 0.37919 0.89809 0.0
C265 C 0.68807 0.33601 0.85141 0.0
H266 H 0.68303 0.45062 0.96616 0.0
C267 C 0.63122 0.32651 0.84387 0.0
H268 H 0.74922 0.38802 0.9049 0.0
C269 C 0.59314 0.36159 0.8798 0.0
C270 C 0.61098 0.40803 0.92322 0.0
H271 H 0.61602 0.2936 0.80829 0.0
H272 H 0.54982 0.35504 0.87071 0.0
C273 C 0.66783 0.41523 0.93306 0.0
C274 C 0.88121 0.41269 0.07394 0.0
C275 C 0.93814 0.40568 0.08323 0.0
H276 H 0.8001 0.38514 0.10281 0.0
C277 C 0.95641 0.35905 0.12623 0.0
H278 H 0.86567 0.4482 0.04116 0.0
C279 C 0.91871 0.32368 0.16236 0.0
C280 C 0.86178 0.33307 0.15546 0.0
H281 H 0.99981 0.35261 0.13489 0.0
H282 H 0.93425 0.29068 0.19766 0.0
C283 C 0.8435 0.37638 0.10912 0.0
C284 C 0.88203 0.59401 0.43331 0.0
C285 C 0.93888 0.60122 0.42358 0.0
H286 H 0.80066 0.62111 0.40495 0.0
C287 C 0.95677 0.64769 0.38021 0.0
H288 H 0.8668 0.55859 0.46637 0.0
C289 C 0.91873 0.68272 0.34419 0.0
C290 C 0.86187 0.67315 0.35158 0.0
H291 H 1.0001 0.65423 0.3712 0.0
H292 H 0.93396 0.71563 0.30863 0.0
C293 C 0.844 0.63 0.39825 0.0
C294 C 0.59261 0.65006 0.6258 0.0
C295 C 0.61093 0.60352 0.58275 0.0
H296 H 0.61473 0.71833 0.69732 0.0
C297 C 0.66785 0.59664 0.57338 0.0
H298 H 0.54921 0.65638 0.63451 0.0
C299 C 0.70554 0.63295 0.6086 0.0
C300 C 0.68722 0.67611 0.65504 0.0
H301 H 0.68342 0.56119 0.54055 0.0
H302 H 0.74895 0.62426 0.60226 0.0
C303 C 0.63029 0.68543 0.66196 0.0
C304 C 0.32776 0.14438 0.47471 0.0
C305 C 0.2793 0.14559 0.43893 0.0
H306 H 0.36307 0.15096 0.56783 0.0
C307 C 0.2288 0.13995 0.47059 0.0
H308 H 0.36709 0.15039 0.45152 0.0
C309 C 0.22646 0.14024 0.53725 0.0
C310 C 0.2747 0.14633 0.57296 0.0
H311 H 0.1909 0.14217 0.44395 0.0
H312 H 0.18685 0.14308 0.5604 0.0
C313 C 0.32542 0.14486 0.54132 0.0
C314 C 0.04155 0.94182 0.76724 0.0
C315 C 0.03534 0.98415 0.81914 0.0
H316 H 0.04288 0.92957 0.66582 0.0
C317 C 0.03146 0.04938 0.80662 0.0
H318 H 0.04539 0.89115 0.77491 0.0
C319 C 0.03053 0.07127 0.74383 0.0
C320 C 0.03317 0.02859 0.69181 0.0
H321 H 0.02678 0.08334 0.84505 0.0
H322 H 0.0254 0.1218 0.73632 0.0
C323 C 0.04017 0.96369 0.70436 0.0
C324 C 0.22258 0.87048 0.97507 0.0
C325 C 0.27078 0.86738 0.93893 0.0
H326 H 0.18769 0.86551 0.06853 0.0
C327 C 0.32157 0.87159 0.9702 0.0
H328 H 0.18299 0.86564 0.9522 0.0
C329 C 0.3243 0.87136 0.03683 0.0
C330 C 0.27616 0.86686 0.07293 0.0
H331 H 0.35925 0.868 0.9433 0.0
H332 H 0.36397 0.8672 0.05965 0.0
C333 C 0.22531 0.87018 0.04169 0.0
C334 C 0.50838 0.06818 0.26834 0.0
C335 C 0.51414 0.0258 0.32028 0.0
H336 H 0.50748 0.08044 0.16692 0.0
C337 C 0.51762 0.96053 0.30778 0.0
H338 H 0.5049 0.1189 0.27599 0.0
C339 C 0.51859 0.93863 0.245 0.0
C340 C 0.51642 0.98133 0.19295 0.0
H341 H 0.52193 0.92654 0.34624 0.0
H342 H 0.5234 0.88805 0.23753 0.0
C343 C 0.50982 0.0463 0.20547 0.0
C344 C 0.49765 0.25041 0.3894 0.0
C345 C 0.46727 0.25028 0.33264 0.0
H346 H 0.57408 0.26154 0.43549 0.0
C347 C 0.49683 0.25309 0.27474 0.0
H348 H 0.47756 0.24622 0.43522 0.0
C349 C 0.55522 0.25606 0.27486 0.0
C350 C 0.58465 0.25866 0.33288 0.0
H351 H 0.47509 0.25336 0.22982 0.0
H352 H 0.57705 0.25627 0.23 0.0
C353 C 0.55415 0.25781 0.38954 0.0
C354 C 0.07709 0.28441 0.39106 0.0
C355 C 0.02868 0.32027 0.39261 0.0
H356 H 0.1123 0.19121 0.39745 0.0
C357 C 0.97814 0.2887 0.38694 0.0
H358 H 0.11647 0.30752 0.39697 0.0
C359 C 0.9757 0.22205 0.3873 0.0
C360 C 1.02391 0.18626 0.39337 0.0
H361 H 0.94028 0.31541 0.3892 0.0
H362 H 0.93607 0.19899 0.39033 0.0
C363 C 0.07467 0.2178 0.3915 0.0
C364 C 0.9943 0.75106 0.89015 0.0
C365 C 0.96405 0.75068 0.8333 0.0
H366 H 0.07053 0.76285 0.93646 0.0
C367 C 0.99372 0.75395 0.77549 0.0
H368 H 0.97417 0.74691 0.93595 0.0
C369 C 0.0521 0.75742 0.77576 0.0
C370 C 0.08139 0.76018 0.83386 0.0
H371 H 0.97209 0.75406 0.7305 0.0
H372 H 0.07402 0.7579 0.73097 0.0
C373 C 0.05075 0.75895 0.89043 0.0
C374 C 0.57182 0.72076 0.88906 0.0
C375 C 0.52119 0.68925 0.89397 0.0
H376 H 0.61393 0.8104 0.89297 0.0
C377 C 0.47283 0.72517 0.89189 0.0
H378 H 0.60963 0.69401 0.89185 0.0
C379 C 0.47531 0.79178 0.89237 0.0
C380 C 0.52608 0.82326 0.89481 0.0
H381 H 0.43338 0.70211 0.89731 0.0
H382 H 0.43766 0.81843 0.89781 0.0
C383 C 0.5743 0.7874 0.88943 0.0
C384 C 0.55324 0.75095 0.11978 0.0
C385 C 0.58371 0.75011 0.17646 0.0
H386 H 0.47682 0.76321 0.07395 0.0
C387 C 0.55427 0.75294 0.23445 0.0
H388 H 0.5732 0.74688 0.07388 0.0
C389 C 0.49589 0.75656 0.2345 0.0
C390 C 0.46637 0.75979 0.17657 0.0
H391 H 0.57608 0.75269 0.27932 0.0
H392 H 0.47414 0.7567 0.27941 0.0
C393 C 0.49679 0.75898 0.11983 0.0
C394 C 0.57786 0.22341 0.61615 0.0
C395 C 0.52925 0.18791 0.6163 0.0
H396 H 0.61341 0.31625 0.60805 0.0
C397 C 0.47899 0.21989 0.62311 0.0
H398 H 0.61698 0.19997 0.6093 0.0
C399 C 0.47691 0.28658 0.6224 0.0
C400 C 0.52517 0.32194 0.61475 0.0
H401 H 0.44095 0.19345 0.62206 0.0
H402 H 0.43735 0.30995 0.6204 0.0
C403 C 0.57578 0.29001 0.61526 0.0
C404 C 0.05441 0.2532 0.73572 0.0
C405 C 0.08405 0.25021 0.67788 0.0
H406 H 0.9741 0.2566 0.7803 0.0
C407 C 0.05376 0.25031 0.62106 0.0
H408 H 0.07608 0.25354 0.78068 0.0
C409 C 0.99726 0.25779 0.62082 0.0
C410 C 0.96666 0.25871 0.67741 0.0
H411 H 0.07391 0.24607 0.57529 0.0
H412 H 0.97737 0.26165 0.57486 0.0
C413 C 0.996 0.2563 0.7355 0.0
C414 C 0.07221 0.78934 0.11925 0.0
C415 C 1.02179 0.82135 0.11463 0.0
H416 H 0.11369 0.69928 0.11527 0.0
C417 C 0.97318 0.7859 0.11682 0.0
H418 H 0.1102 0.81571 0.11626 0.0
C419 C 0.97519 0.71927 0.11627 0.0
C420 C 0.02574 0.6873 0.11373 0.0
H421 H 0.93388 0.80936 0.11158 0.0
H422 H 0.93734 0.69298 0.11099 0.0
C423 C 0.07423 0.72268 0.11889 0.0
C424 C 0.26103 0.49337 0.31875 0.0
C425 C 0.26602 0.44132 0.27639 0.0
H426 H 0.26009 0.59479 0.33075 0.0
C427 C 0.26813 0.45364 0.211 0.0
H428 H 0.25864 0.48589 0.36958 0.0
C429 C 0.26844 0.51638 0.18887 0.0
C430 C 0.26699 0.56852 0.23148 0.0
H431 H 0.27178 0.41509 0.17701 0.0
H432 H 0.27212 0.52375 0.13815 0.0
C433 C 0.26179 0.55616 0.29665 0.0
C434 C 0.76082 0.01731 0.68993 0.0
C435 C 0.76457 0.06939 0.73243 0.0
H436 H 0.76045 0.91591 0.67789 0.0
C437 C 0.76489 0.05708 0.79787 0.0
H438 H 0.75987 0.02474 0.63905 0.0
C439 C 0.76467 0.99433 0.82002 0.0
C440 C 0.76453 0.94218 0.77738 0.0
H441 H 0.76747 0.09565 0.83197 0.0
H442 H 0.7669 0.98695 0.87086 0.0
C443 C 0.76106 0.95454 0.71206 0.0
C444 C 0.30345 0.52499 1.00294 0.0
C445 C 0.33282 0.58303 1.00037 0.0
H446 H 0.22336 0.47992 0.00603 0.0
C447 C 0.30229 0.63967 1.00146 0.0
H448 H 0.32531 0.48015 1.00255 0.0
C449 C 0.24583 0.6395 0.00925 0.0
C450 C 0.21548 0.58273 0.00939 0.0
H451 H 0.32221 0.6856 0.99755 0.0
H452 H 0.22573 0.6853 0.01367 0.0
C453 C 0.24506 0.52485 0.0063 0.0
C454 C 0.78909 0.0544 0.2124 0.0
C455 C 0.78406 0.06673 0.27759 0.0
H456 H 0.79213 0.98417 0.13944 0.0
C457 C 0.78285 0.01455 0.32018 0.0
H458 H 0.79061 0.09306 0.1783 0.0
C459 C 0.7832 0.95183 0.29803 0.0
C460 C 0.78512 0.93954 0.23263 0.0
H461 H 0.77933 0.02188 0.37092 0.0
H462 H 0.77974 0.91325 0.33202 0.0
C463 C 0.7899 0.99163 0.19027 0.0
C464 C 0.80352 0.87085 0.00821 0.0
C465 C 0.83388 0.92759 0.00882 0.0
H466 H 0.72709 0.82486 0.99689 0.0
C467 C 0.8043 0.98551 0.00637 0.0
H468 H 0.82362 0.82499 0.01195 0.0
C469 C 0.74589 0.98543 1.00349 0.0
C470 C 0.71646 0.92744 1.0006 0.0
H471 H 0.82602 0.03043 0.00644 0.0
H472 H 0.72405 0.03029 1.00364 0.0
C473 C 0.747 0.87077 1.00097 0.0
C474 C 0.27941 0.51745 0.82229 0.0
C475 C 0.2815 0.56959 0.77973 0.0
H476 H 0.27624 0.41622 0.83422 0.0
C477 C 0.28791 0.55722 0.7147 0.0
H478 H 0.27467 0.5248 0.87287 0.0
C479 C 0.28932 0.49439 0.69266 0.0
C480 C 0.28379 0.44236 0.73498 0.0
H481 H 0.29014 0.59586 0.68065 0.0
H482 H 0.29268 0.48685 0.64189 0.0
C483 C 0.28041 0.45473 0.80027 0.0
C484 C 0.24715 0.36835 0.50148 0.0
C485 C 0.21668 0.42505 0.5003 0.0
H486 H 0.32357 0.32254 0.51386 0.0
C487 C 0.24611 0.48303 0.50316 0.0
H488 H 0.22721 0.32241 0.49759 0.0
C489 C 0.30447 0.48307 0.50669 0.0
C490 C 0.33399 0.42515 0.50999 0.0
H491 H 0.22431 0.5279 0.50271 0.0
H492 H 0.32622 0.52797 0.50661 0.0
C493 C 0.30358 0.36842 0.50958 0.0
C494 C 0.82344 0.63922 0.97158 0.0
C495 C 0.7748 0.64421 0.93644 0.0
H496 H 0.85978 0.64211 0.06442 0.0
C497 C 0.72439 0.64138 0.96867 0.0
H498 H 0.86279 0.643 0.94797 0.0
C499 C 0.72264 0.64091 0.03531 0.0
C500 C 0.77138 0.64346 0.0705 0.0
H501 H 0.68642 0.64644 0.94257 0.0
H502 H 0.68341 0.64599 0.05895 0.0
C503 C 0.82169 0.63894 0.03825 0.0
C504 C 0.53745 0.54652 0.30478 0.0
C505 C 0.5327 0.48127 0.31696 0.0
H506 H 0.54024 0.61965 0.23473 0.0
C507 C 0.53174 0.43878 0.2647 0.0
H508 H 0.53875 0.58054 0.3435 0.0
C509 C 0.5321 0.46108 0.20202 0.0
C510 C 0.53378 0.52652 0.18987 0.0
H511 H 0.52847 0.38801 0.27194 0.0
H512 H 0.52888 0.42715 0.16336 0.0
C513 C 0.53825 0.56879 0.24206 0.0
C514 C 0.82582 0.36589 0.46856 0.0
C515 C 0.77519 0.36452 0.43673 0.0
H516 H 0.86723 0.36029 0.5585 0.0
C517 C 0.72688 0.3711 0.47221 0.0
H518 H 0.86351 0.35956 0.44221 0.0
C519 C 0.72904 0.3716 0.53889 0.0
C520 C 0.77943 0.3656 0.57076 0.0
H521 H 0.68732 0.36843 0.44891 0.0
H522 H 0.69106 0.36976 0.56539 0.0
C523 C 0.82799 0.36652 0.53517 0.0
C524 C 1.01588 0.43844 0.74219 0.0
C525 C 1.01627 0.4809 0.68992 0.0
H526 H 1.01785 0.42671 0.84354 0.0
C527 C 1.01306 0.54629 0.70205 0.0
H528 H 1.01794 0.38759 0.73499 0.0
C529 C 1.01248 0.56862 0.76477 0.0
C530 C 1.01561 0.5262 0.817 0.0
H531 H 1.01288 0.58033 0.66331 0.0
H532 H 1.01173 0.61955 0.77207 0.0
C533 C 1.01574 0.46074 0.80486 0.0
C534 C 0.80393 0.02398 0.5029 0.0
C535 C 0.83327 0.08204 0.49999 0.0
H536 H 0.72386 0.97882 0.50627 0.0
C537 C 0.80265 0.13864 0.50082 0.0
H538 H 0.82583 0.97916 0.50272 0.0
C539 C 0.74617 0.13843 0.50847 0.0
C540 C 0.71588 0.08163 0.50906 0.0
H541 H 0.82246 0.18462 0.49678 0.0
H542 H 0.72604 0.18424 0.51248 0.0
C543 C 0.74553 0.02378 0.50622 0.0
loop_
_geom_bond_atom_site_label_1
_geom_bond_atom_site_label_2
_geom_bond_distance
_geom_bond_site_symmetry_2
_ccdc_geom_bond_type
Co0 O1 2.216 . S
Co0 O2 2.091 . S
Co0 O4 2.004 . S
Co0 O10 2.021 . S
Co0 O12 2.137 . S
Co0 O13 2.244 . S
O1 Co0 2.216 . S
O1 C8 1.247 . S
O2 Co0 2.091 . S
O2 C8 1.261 . S
C3 O12 1.247 . S
C3 O13 1.272 . S
O4 Co0 2.004 . S
O4 C9 1.259 . S
Co5 O6 2.061 . S
Co5 O11 2.052 . S
Co5 O13 2.135 . S
O6 Co5 2.061 . S
O6 C9 1.235 . S
C7 O10 1.238 . S
C7 O11 1.241 . S
C8 O1 1.247 . S
C8 O2 1.261 . S
C9 O4 1.259 . S
C9 O6 1.235 . S
O10 Co0 2.021 . S
O10 C7 1.238 . S
O11 Co5 2.052 . S
O11 C7 1.241 . S
O12 Co0 2.137 . S
O12 C3 1.247 . S
O13 Co0 2.244 . S
O13 C3 1.272 . S
O13 Co5 2.135 . S
Co14 O15 2.216 1_655 S
Co14 O16 2.091 1_545 S
Co14 O18 2.004 . S
Co14 O24 2.021 1_545 S
Co14 O26 2.137 . S
Co14 O27 2.244 . S
O15 Co14 2.216 1_455 S
O15 C22 1.247 1_545 S
O16 Co14 2.091 1_565 S
O16 C22 1.261 1_655 S
C17 O26 1.247 . S
C17 O27 1.272 . S
O18 Co14 2.004 . S
O18 C23 1.259 . S
Co19 O20 2.061 . S
Co19 O25 2.052 . S
Co19 O27 2.135 . S
O20 Co19 2.061 . S
O20 C23 1.235 . S
C21 O24 1.238 . S
C21 O25 1.241 1_565 S
C22 O15 1.247 1_565 S
C22 O16 1.261 1_455 S
C23 O18 1.259 . S
C23 O20 1.235 . S
O24 Co14 2.021 1_565 S
O24 C21 1.238 . S
O25 Co19 2.052 . S
O25 C21 1.241 1_545 S
O26 Co14 2.137 . S
O26 C17 1.247 . S
O27 Co14 2.244 . S
O27 C17 1.272 . S
O27 Co19 2.135 . S
Co28 O29 2.216 . S
Co28 O30 2.091 . S
Co28 O32 2.004 . S
Co28 O38 2.021 . S
Co28 O40 2.137 . S
Co28 O41 2.244 . S
O29 Co28 2.216 . S
O29 C36 1.247 . S
O30 Co28 2.091 . S
O30 C36 1.261 . S
C31 O40 1.247 . S
C31 O41 1.272 . S
O32 Co28 2.004 . S
O32 C37 1.259 . S
Co33 O34 2.061 . S
Co33 O39 2.052 . S
Co33 O41 2.135 . S
O34 Co33 2.061 . S
O34 C37 1.235 . S
C35 O38 1.238 . S
C35 O39 1.241 . S
C36 O29 1.247 . S
C36 O30 1.261 . S
C37 O32 1.259 . S
C37 O34 1.235 . S
O38 Co28 2.021 . S
O38 C35 1.238 . S
O39 Co33 2.052 . S
O39 C35 1.241 . S
O40 Co28 2.137 . S
O40 C31 1.247 . S
O41 Co28 2.244 . S
O41 C31 1.272 . S
O41 Co33 2.135 . S
Co42 O43 2.216 . S
Co42 O44 2.091 1_565 S
Co42 O46 2.004 . S
Co42 O52 2.021 1_566 S
Co42 O54 2.137 . S
Co42 O55 2.244 1_556 S
O43 Co42 2.216 . S
O43 C50 1.247 1_565 S
O44 Co42 2.091 1_545 S
O44 C50 1.261 . S
C45 O54 1.247 . S
C45 O55 1.272 1_556 S
O46 Co42 2.004 . S
O46 C51 1.259 . S
Co47 O48 2.061 . S
Co47 O53 2.052 . S
Co47 O55 2.135 . S
O48 Co47 2.061 . S
O48 C51 1.235 1_554 S
C49 O52 1.238 . S
C49 O53 1.241 1_545 S
C50 O43 1.247 1_545 S
C50 O44 1.261 . S
C51 O46 1.259 . S
C51 O48 1.235 1_556 S
O52 Co42 2.021 1_544 S
O52 C49 1.238 . S
O53 Co47 2.052 . S
O53 C49 1.241 1_565 S
O54 Co42 2.137 . S
O54 C45 1.247 . S
O55 Co42 2.244 1_554 S
O55 C45 1.272 1_554 S
O55 Co47 2.135 . S
Co56 O57 2.216 . S
Co56 O58 2.091 . S
Co56 O60 2.004 . S
Co56 O66 2.021 . S
Co56 O68 2.137 . S
Co56 O69 2.244 . S
O57 Co56 2.216 . S
O57 C64 1.247 . S
O58 Co56 2.091 . S
O58 C64 1.261 . S
C59 O68 1.247 . S
C59 O69 1.272 . S
O60 Co56 2.004 . S
O60 C65 1.259 . S
Co61 O62 2.061 . S
Co61 O67 2.052 . S
Co61 O69 2.135 . S
O62 Co61 2.061 . S
O62 C65 1.235 . S
C63 O66 1.238 . S
C63 O67 1.241 . S
C64 O57 1.247 . S
C64 O58 1.261 . S
C65 O60 1.259 . S
C65 O62 1.235 . S
O66 Co56 2.021 . S
O66 C63 1.238 . S
O67 Co61 2.052 . S
O67 C63 1.241 . S
O68 Co56 2.137 . S
O68 C59 1.247 . S
O69 Co56 2.244 . S
O69 C59 1.272 . S
O69 Co61 2.135 . S
Co70 O71 2.216 . S
Co70 O72 2.091 1_545 S
Co70 O74 2.004 . S
Co70 O80 2.021 1_545 S
Co70 O82 2.137 . S
Co70 O83 2.244 . S
O71 Co70 2.216 . S
O71 C78 1.247 1_545 S
O72 Co70 2.091 1_565 S
O72 C78 1.261 . S
C73 O82 1.247 . S
C73 O83 1.272 . S
O74 Co70 2.004 . S
O74 C79 1.259 . S
Co75 O76 2.061 . S
Co75 O81 2.052 . S
Co75 O83 2.135 . S
O76 Co75 2.061 . S
O76 C79 1.235 . S
C77 O80 1.238 . S
C77 O81 1.241 1_565 S
C78 O71 1.247 1_565 S
C78 O72 1.261 . S
C79 O74 1.259 . S
C79 O76 1.235 . S
O80 Co70 2.021 1_565 S
O80 C77 1.238 . S
O81 Co75 2.052 . S
O81 C77 1.241 1_545 S
O82 Co70 2.137 . S
O82 C73 1.247 . S
O83 Co70 2.244 . S
O83 C73 1.272 . S
O83 Co75 2.135 . S
Co84 O85 2.216 . S
Co84 O86 2.091 . S
Co84 O88 2.004 . S
Co84 O94 2.021 . S
Co84 O96 2.137 . S
Co84 O97 2.244 . S
O85 Co84 2.216 . S
O85 C92 1.247 . S
O86 Co84 2.091 . S
O86 C92 1.261 . S
C87 O96 1.247 . S
C87 O97 1.272 . S
O88 Co84 2.004 . S
O88 C93 1.259 . S
Co89 O90 2.061 . S
Co89 O95 2.052 . S
Co89 O97 2.135 . S
O90 Co89 2.061 . S
O90 C93 1.235 . S
C91 O94 1.238 . S
C91 O95 1.241 . S
C92 O85 1.247 . S
C92 O86 1.261 . S
C93 O88 1.259 . S
C93 O90 1.235 . S
O94 Co84 2.021 . S
O94 C91 1.238 . S
O95 Co89 2.052 . S
O95 C91 1.241 . S
O96 Co84 2.137 . S
O96 C87 1.247 . S
O97 Co84 2.244 . S
O97 C87 1.272 . S
O97 Co89 2.135 . S
Co98 O99 2.216 1_655 S
Co98 O100 2.091 1_565 S
Co98 O102 2.004 . S
Co98 O108 2.021 1_564 S
Co98 O110 2.137 . S
Co98 O111 2.244 1_554 S
O99 Co98 2.216 1_455 S
O99 C106 1.247 1_565 S
O100 Co98 2.091 1_545 S
O100 C106 1.261 1_655 S
C101 O110 1.247 . S
C101 O111 1.272 1_554 S
O102 Co98 2.004 . S
O102 C107 1.259 . S
Co103 O104 2.061 . S
Co103 O109 2.052 . S
Co103 O111 2.135 . S
O104 Co103 2.061 . S
O104 C107 1.235 1_556 S
C105 O108 1.238 . S
C105 O109 1.241 1_545 S
C106 O99 1.247 1_545 S
C106 O100 1.261 1_455 S
C107 O102 1.259 . S
C107 O104 1.235 1_554 S
O108 Co98 2.021 1_546 S
O108 C105 1.238 . S
O109 Co103 2.052 . S
O109 C105 1.241 1_565 S
O110 Co98 2.137 . S
O110 C101 1.247 . S
O111 Co98 2.244 1_556 S
O111 C101 1.272 1_556 S
O111 Co103 2.135 . S
Co112 O113 2.216 . S
Co112 O114 2.091 . S
Co112 O116 2.004 . S
Co112 O122 2.021 . S
Co112 O124 2.137 . S
Co112 O125 2.244 . S
O113 Co112 2.216 . S
O113 C120 1.247 . S
O114 Co112 2.091 . S
O114 C120 1.261 . S
C115 O124 1.247 . S
C115 O125 1.272 . S
O116 Co112 2.004 . S
O116 C121 1.259 . S
Co117 O118 2.061 . S
Co117 O123 2.052 . S
Co117 O125 2.135 . S
O118 Co117 2.061 . S
O118 C121 1.235 . S
C119 O122 1.238 . S
C119 O123 1.241 . S
C120 O113 1.247 . S
C120 O114 1.261 . S
C121 O116 1.259 . S
C121 O118 1.235 . S
O122 Co112 2.021 . S
O122 C119 1.238 . S
O123 Co117 2.052 . S
O123 C119 1.241 . S
O124 Co112 2.137 . S
O124 C115 1.247 . S
O125 Co112 2.244 . S
O125 C115 1.272 . S
O125 Co117 2.135 . S
Co126 O127 2.216 1_455 S
Co126 O128 2.091 . S
Co126 O130 2.004 . S
Co126 O136 2.021 1_554 S
Co126 O138 2.137 . S
Co126 O139 2.244 1_554 S
O127 Co126 2.216 1_655 S
O127 C134 1.247 . S
O128 Co126 2.091 . S
O128 C134 1.261 1_455 S
C129 O138 1.247 . S
C129 O139 1.272 1_554 S
O130 Co126 2.004 . S
O130 C135 1.259 . S
Co131 O132 2.061 . S
Co131 O137 2.052 . S
Co131 O139 2.135 . S
O132 Co131 2.061 . S
O132 C135 1.235 1_556 S
C133 O136 1.238 . S
C133 O137 1.241 . S
C134 O127 1.247 . S
C134 O128 1.261 1_655 S
C135 O130 1.259 . S
C135 O132 1.235 1_554 S
O136 Co126 2.021 1_556 S
O136 C133 1.238 . S
O137 Co131 2.052 . S
O137 C133 1.241 . S
O138 Co126 2.137 . S
O138 C129 1.247 . S
O139 Co126 2.244 1_556 S
O139 C129 1.272 1_556 S
O139 Co131 2.135 . S
Co140 O141 2.216 . S
Co140 O142 2.091 . S
Co140 O144 2.004 . S
Co140 O150 2.021 . S
Co140 O152 2.137 . S
Co140 O153 2.244 . S
O141 Co140 2.216 . S
O141 C148 1.247 . S
O142 Co140 2.091 . S
O142 C148 1.261 . S
C143 O152 1.247 . S
C143 O153 1.272 . S
O144 Co140 2.004 . S
O144 C149 1.259 . S
Co145 O146 2.061 . S
Co145 O151 2.052 . S
Co145 O153 2.135 . S
O146 Co145 2.061 . S
O146 C149 1.235 . S
C147 O150 1.238 . S
C147 O151 1.241 . S
C148 O141 1.247 . S
C148 O142 1.261 . S
C149 O144 1.259 . S
C149 O146 1.235 . S
O150 Co140 2.021 . S
O150 C147 1.238 . S
O151 Co145 2.052 . S
O151 C147 1.241 . S
O152 Co140 2.137 . S
O152 C143 1.247 . S
O153 Co140 2.244 . S
O153 C143 1.272 . S
O153 Co145 2.135 . S
Co154 O155 2.216 1_455 S
Co154 O156 2.091 . S
Co154 O158 2.004 . S
Co154 O164 2.021 . S
Co154 O166 2.137 . S
Co154 O167 2.244 . S
O155 Co154 2.216 1_655 S
O155 C162 1.247 . S
O156 Co154 2.091 . S
O156 C162 1.261 1_455 S
C157 O166 1.247 . S
C157 O167 1.272 . S
O158 Co154 2.004 . S
O158 C163 1.259 . S
Co159 O160 2.061 . S
Co159 O165 2.052 . S
Co159 O167 2.135 . S
O160 Co159 2.061 . S
O160 C163 1.235 . S
C161 O164 1.238 . S
C161 O165 1.241 . S
C162 O155 1.247 . S
C162 O156 1.261 1_655 S
C163 O158 1.259 . S
C163 O160 1.235 . S
O164 Co154 2.021 . S
O164 C161 1.238 . S
O165 Co159 2.052 . S
O165 C161 1.241 . S
O166 Co154 2.137 . S
O166 C157 1.247 . S
O167 Co154 2.244 . S
O167 C157 1.272 . S
O167 Co159 2.135 . S
Co168 O169 2.216 . S
Co168 O170 2.091 . S
Co168 O172 2.004 . S
Co168 O178 2.021 1_556 S
Co168 O180 2.137 . S
Co168 O181 2.244 1_556 S
O169 Co168 2.216 . S
O169 C176 1.247 . S
O170 Co168 2.091 . S
O170 C176 1.261 . S
C171 O180 1.247 . S
C171 O181 1.272 1_556 S
O172 Co168 2.004 . S
O172 C177 1.259 . S
Co173 O174 2.061 . S
Co173 O179 2.052 . S
Co173 O181 2.135 . S
O174 Co173 2.061 . S
O174 C177 1.235 1_554 S
C175 O178 1.238 . S
C175 O179 1.241 . S
C176 O169 1.247 . S
C176 O170 1.261 . S
C177 O172 1.259 . S
C177 O174 1.235 1_556 S
O178 Co168 2.021 1_554 S
O178 C175 1.238 . S
O179 Co173 2.052 . S
O179 C175 1.241 . S
O180 Co168 2.137 . S
O180 C171 1.247 . S
O181 Co168 2.244 1_554 S
O181 C171 1.272 1_554 S
O181 Co173 2.135 . S
Co182 O183 2.216 . S
Co182 O184 2.091 . S
Co182 O186 2.004 . S
Co182 O192 2.021 . S
Co182 O194 2.137 . S
Co182 O195 2.244 . S
O183 Co182 2.216 . S
O183 C190 1.247 . S
O184 Co182 2.091 . S
O184 C190 1.261 . S
C185 O194 1.247 . S
C185 O195 1.272 . S
O186 Co182 2.004 . S
O186 C191 1.259 . S
Co187 O188 2.061 . S
Co187 O193 2.052 . S
Co187 O195 2.135 . S
O188 Co187 2.061 . S
O188 C191 1.235 . S
C189 O192 1.238 . S
C189 O193 1.241 . S
C190 O183 1.247 . S
C190 O184 1.261 . S
C191 O186 1.259 . S
C191 O188 1.235 . S
O192 Co182 2.021 . S
O192 C189 1.238 . S
O193 Co187 2.052 . S
O193 C189 1.241 . S
O194 Co182 2.137 . S
O194 C185 1.247 . S
O195 Co182 2.244 . S
O195 C185 1.272 . S
O195 Co187 2.135 . S
Co196 O197 2.216 . S
Co196 O198 2.091 . S
Co196 O200 2.004 . S
Co196 O206 2.021 . S
Co196 O208 2.137 . S
Co196 O209 2.244 . S
O197 Co196 2.216 . S
O197 C204 1.247 . S
O198 Co196 2.091 . S
O198 C204 1.261 . S
C199 O208 1.247 . S
C199 O209 1.272 . S
O200 Co196 2.004 . S
O200 C205 1.259 . S
Co201 O202 2.061 . S
Co201 O207 2.052 . S
Co201 O209 2.135 . S
O202 Co201 2.061 . S
O202 C205 1.235 . S
C203 O206 1.238 . S
C203 O207 1.241 . S
C204 O197 1.247 . S
C204 O198 1.261 . S
C205 O200 1.259 . S
C205 O202 1.235 . S
O206 Co196 2.021 . S
O206 C203 1.238 . S
O207 Co201 2.052 . S
O207 C203 1.241 . S
O208 Co196 2.137 . S
O208 C199 1.247 . S
O209 Co196 2.244 . S
O209 C199 1.272 . S
O209 Co201 2.135 . S
Co210 O211 2.216 . S
Co210 O212 2.091 . S
Co210 O214 2.004 . S
Co210 O220 2.021 . S
Co210 O222 2.137 . S
Co210 O223 2.244 . S
O211 Co210 2.216 . S
O211 C218 1.247 . S
O212 Co210 2.091 . S
O212 C218 1.261 . S
C213 O222 1.247 . S
C213 O223 1.272 . S
O214 Co210 2.004 . S
O214 C219 1.259 . S
Co215 O216 2.061 . S
Co215 O221 2.052 . S
Co215 O223 2.135 . S
O216 Co215 2.061 . S
O216 C219 1.235 . S
C217 O220 1.238 . S
C217 O221 1.241 . S
C218 O211 1.247 . S
C218 O212 1.261 . S
C219 O214 1.259 . S
C219 O216 1.235 . S
O220 Co210 2.021 . S
O220 C217 1.238 . S
O221 Co215 2.052 . S
O221 C217 1.241 . S
O222 Co210 2.137 . S
O222 C213 1.247 . S
O223 Co210 2.244 . S
O223 C213 1.272 . S
O223 Co215 2.135 . S
C224 C225 1.387 . S
C224 H228 0.950 . S
C224 C233 1.390 . S
C225 C224 1.387 . S
C225 C227 1.387 . S
H226 C233 0.950 . S
C227 C225 1.387 . S
C227 C229 1.390 . S
C227 H231 0.950 . S
H228 C224 0.950 . S
C229 C227 1.390 . S
C229 C230 1.387 . S
C229 H232 0.950 . S
C230 C229 1.387 . S
C230 C233 1.387 . S
H231 C227 0.950 . S
H232 C229 0.950 . S
C233 C224 1.390 . S
C233 H226 0.950 . S
C233 C230 1.387 . S
C234 C235 1.387 . S
C234 H238 0.950 . S
C234 C243 1.390 . S
C235 C234 1.387 . S
C235 C237 1.387 . S
H236 C243 0.950 . S
C237 C235 1.387 . S
C237 C239 1.390 . S
C237 H241 0.950 . S
H238 C234 0.950 . S
C239 C237 1.390 . S
C239 C240 1.387 . S
C239 H242 0.950 . S
C240 C239 1.387 . S
C240 C243 1.387 . S
H241 C237 0.950 . S
H242 C239 0.950 . S
C243 C234 1.390 . S
C243 H236 0.950 . S
C243 C240 1.387 . S
C244 C245 1.387 . S
C244 H248 0.950 . S
C244 C253 1.390 . S
C245 C244 1.387 . S
C245 C247 1.387 . S
H246 C253 0.950 . S
C247 C245 1.387 . S
C247 C249 1.390 . S
C247 H251 0.950 . S
H248 C244 0.950 . S
C249 C247 1.390 . S
C249 C250 1.387 . S
C249 H252 0.950 . S
C250 C249 1.387 . S
C250 C253 1.387 . S
H251 C247 0.950 . S
H252 C249 0.950 . S
C253 C244 1.390 . S
C253 H246 0.950 . S
C253 C250 1.387 . S
C254 C255 1.387 . S
C254 H258 0.950 . S
C254 C263 1.390 . S
C255 C254 1.387 . S
C255 C257 1.387 . S
H256 C263 0.950 . S
C257 C255 1.387 . S
C257 C259 1.390 . S
C257 H261 0.950 . S
H258 C254 0.950 . S
C259 C257 1.390 . S
C259 C260 1.387 . S
C259 H262 0.950 . S
C260 C259 1.387 . S
C260 C263 1.387 . S
H261 C257 0.950 . S
H262 C259 0.950 . S
C263 C254 1.390 . S
C263 H256 0.950 . S
C263 C260 1.387 . S
C264 C265 1.387 . S
C264 H268 0.950 . S
C264 C273 1.390 . S
C265 C264 1.387 . S
C265 C267 1.387 . S
H266 C273 0.950 . S
C267 C265 1.387 . S
C267 C269 1.390 . S
C267 H271 0.950 . S
H268 C264 0.950 . S
C269 C267 1.390 . S
C269 C270 1.387 . S
C269 H272 0.950 . S
C270 C269 1.387 . S
C270 C273 1.387 . S
H271 C267 0.950 . S
H272 C269 0.950 . S
C273 C264 1.390 . S
C273 H266 0.950 . S
C273 C270 1.387 . S
C274 C275 1.387 . S
C274 H278 0.950 . S
C274 C283 1.390 . S
C275 C274 1.387 . S
C275 C277 1.387 . S
H276 C283 0.950 . S
C277 C275 1.387 . S
C277 C279 1.390 . S
C277 H281 0.950 . S
H278 C274 0.950 . S
C279 C277 1.390 . S
C279 C280 1.387 . S
C279 H282 0.950 . S
C280 C279 1.387 . S
C280 C283 1.387 . S
H281 C277 0.950 . S
H282 C279 0.950 . S
C283 C274 1.390 . S
C283 H276 0.950 . S
C283 C280 1.387 . S
C284 C285 1.387 . S
C284 H288 0.950 . S
C284 C293 1.390 . S
C285 C284 1.387 . S
C285 C287 1.387 . S
H286 C293 0.950 . S
C287 C285 1.387 . S
C287 C289 1.390 . S
C287 H291 0.950 . S
H288 C284 0.950 . S
C289 C287 1.390 . S
C289 C290 1.387 . S
C289 H292 0.950 . S
C290 C289 1.387 . S
C290 C293 1.387 . S
H291 C287 0.950 . S
H292 C289 0.950 . S
C293 C284 1.390 . S
C293 H286 0.950 . S
C293 C290 1.387 . S
C294 C295 1.387 . S
C294 H298 0.950 . S
C294 C303 1.390 . S
C295 C294 1.387 . S
C295 C297 1.387 . S
H296 C303 0.950 . S
C297 C295 1.387 . S
C297 C299 1.390 . S
C297 H301 0.950 . S
H298 C294 0.950 . S
C299 C297 1.390 . S
C299 C300 1.387 . S
C299 H302 0.950 . S
C300 C299 1.387 . S
C300 C303 1.387 . S
H301 C297 0.950 . S
H302 C299 0.950 . S
C303 C294 1.390 . S
C303 H296 0.950 . S
C303 C300 1.387 . S
C304 C305 1.387 . S
C304 H308 0.950 . S
C304 C313 1.390 . S
C305 C304 1.387 . S
C305 C307 1.387 . S
H306 C313 0.950 . S
C307 C305 1.387 . S
C307 C309 1.390 . S
C307 H311 0.950 . S
H308 C304 0.950 . S
C309 C307 1.390 . S
C309 C310 1.387 . S
C309 H312 0.950 . S
C310 C309 1.387 . S
C310 C313 1.387 . S
H311 C307 0.950 . S
H312 C309 0.950 . S
C313 C304 1.390 . S
C313 H306 0.950 . S
C313 C310 1.387 . S
C314 C315 1.387 1_455 S
C314 H318 0.950 . S
C314 C323 1.390 1_545 S
C315 C314 1.387 1_655 S
C315 C317 1.387 . S
H316 C323 0.950 . S
C317 C315 1.387 . S
C317 C319 1.390 1_545 S
C317 H321 0.950 . S
H318 C314 0.950 . S
C319 C317 1.390 1_565 S
C319 C320 1.387 . S
C319 H322 0.950 . S
C320 C319 1.387 . S
C320 C323 1.387 1_655 S
H321 C317 0.950 . S
H322 C319 0.950 . S
C323 C314 1.390 1_565 S
C323 H316 0.950 . S
C323 C320 1.387 1_455 S
C324 C325 1.387 . S
C324 H328 0.950 . S
C324 C333 1.390 1_556 S
C325 C324 1.387 . S
C325 C327 1.387 . S
H326 C333 0.950 . S
C327 C325 1.387 . S
C327 C329 1.390 1_556 S
C327 H331 0.950 . S
H328 C324 0.950 . S
C329 C327 1.390 1_554 S
C329 C330 1.387 . S
C329 H332 0.950 . S
C330 C329 1.387 . S
C330 C333 1.387 . S
H331 C327 0.950 . S
H332 C329 0.950 . S
C333 C324 1.390 1_554 S
C333 H326 0.950 . S
C333 C330 1.387 . S
C334 C335 1.387 . S
C334 H338 0.950 . S
C334 C343 1.390 1_565 S
C335 C334 1.387 . S
C335 C337 1.387 . S
H336 C343 0.950 . S
C337 C335 1.387 . S
C337 C339 1.390 1_565 S
C337 H341 0.950 . S
H338 C334 0.950 . S
C339 C337 1.390 1_545 S
C339 C340 1.387 . S
C339 H342 0.950 . S
C340 C339 1.387 . S
C340 C343 1.387 . S
H341 C337 0.950 . S
H342 C339 0.950 . S
C343 C334 1.390 1_545 S
C343 H336 0.950 . S
C343 C340 1.387 . S
C344 C345 1.387 . S
C344 H348 0.950 . S
C344 C353 1.390 . S
C345 C344 1.387 . S
C345 C347 1.387 . S
H346 C353 0.950 . S
C347 C345 1.387 . S
C347 C349 1.390 . S
C347 H351 0.950 . S
H348 C344 0.950 . S
C349 C347 1.390 . S
C349 C350 1.387 . S
C349 H352 0.950 . S
C350 C349 1.387 . S
C350 C353 1.387 . S
H351 C347 0.950 . S
H352 C349 0.950 . S
C353 C344 1.390 . S
C353 H346 0.950 . S
C353 C350 1.387 . S
C354 C355 1.387 . S
C354 H358 0.950 . S
C354 C363 1.390 1_455 S
C355 C354 1.387 . S
C355 C357 1.387 . S
H356 C363 0.950 . S
C357 C355 1.387 . S
C357 C359 1.390 1_455 S
C357 H361 0.950 . S
H358 C354 0.950 . S
C359 C357 1.390 1_655 S
C359 C360 1.387 . S
C359 H362 0.950 . S
C360 C359 1.387 . S
C360 C363 1.387 . S
H361 C357 0.950 . S
H362 C359 0.950 . S
C363 C354 1.390 1_655 S
C363 H356 0.950 . S
C363 C360 1.387 . S
C364 C365 1.387 . S
C364 H368 0.950 . S
C364 C373 1.390 1_655 S
C365 C364 1.387 . S
C365 C367 1.387 . S
H366 C373 0.950 . S
C367 C365 1.387 . S
C367 C369 1.390 1_655 S
C367 H371 0.950 . S
H368 C364 0.950 . S
C369 C367 1.390 1_455 S
C369 C370 1.387 . S
C369 H372 0.950 . S
C370 C369 1.387 . S
C370 C373 1.387 . S
H371 C367 0.950 . S
H372 C369 0.950 . S
C373 C364 1.390 1_455 S
C373 H366 0.950 . S
C373 C370 1.387 . S
C374 C375 1.387 1_554 S
C374 H378 0.950 . S
C374 C383 1.390 . S
C375 C374 1.387 1_556 S
C375 C377 1.387 . S
H376 C383 0.950 . S
C377 C375 1.387 . S
C377 C379 1.390 . S
C377 H381 0.950 . S
H378 C374 0.950 . S
C379 C377 1.390 . S
C379 C380 1.387 . S
C379 H382 0.950 . S
C380 C379 1.387 . S
C380 C383 1.387 1_556 S
H381 C377 0.950 . S
H382 C379 0.950 . S
C383 C374 1.390 . S
C383 H376 0.950 . S
C383 C380 1.387 1_554 S
C384 C385 1.387 . S
C384 H388 0.950 . S
C384 C393 1.390 . S
C385 C384 1.387 . S
C385 C387 1.387 . S
H386 C393 0.950 . S
C387 C385 1.387 . S
C387 C389 1.390 . S
C387 H391 0.950 . S
H388 C384 0.950 . S
C389 C387 1.390 . S
C389 C390 1.387 . S
C389 H392 0.950 . S
C390 C389 1.387 . S
C390 C393 1.387 . S
H391 C387 0.950 . S
H392 C389 0.950 . S
C393 C384 1.390 . S
C393 H386 0.950 . S
C393 C390 1.387 . S
C394 C395 1.387 . S
C394 H398 0.950 . S
C394 C403 1.390 . S
C395 C394 1.387 . S
C395 C397 1.387 . S
H396 C403 0.950 . S
C397 C395 1.387 . S
C397 C399 1.390 . S
C397 H401 0.950 . S
H398 C394 0.950 . S
C399 C397 1.390 . S
C399 C400 1.387 . S
C399 H402 0.950 . S
C400 C399 1.387 . S
C400 C403 1.387 . S
H401 C397 0.950 . S
H402 C399 0.950 . S
C403 C394 1.390 . S
C403 H396 0.950 . S
C403 C400 1.387 . S
C404 C405 1.387 . S
C404 H408 0.950 . S
C404 C413 1.390 1_455 S
C405 C404 1.387 . S
C405 C407 1.387 . S
H406 C413 0.950 . S
C407 C405 1.387 . S
C407 C409 1.390 1_455 S
C407 H411 0.950 . S
H408 C404 0.950 . S
C409 C407 1.390 1_655 S
C409 C410 1.387 . S
C409 H412 0.950 . S
C410 C409 1.387 . S
C410 C413 1.387 . S
H411 C407 0.950 . S
H412 C409 0.950 . S
C413 C404 1.390 1_655 S
C413 H406 0.950 . S
C413 C410 1.387 . S
C414 C415 1.387 . S
C414 H418 0.950 . S
C414 C423 1.390 1_655 S
C415 C414 1.387 . S
C415 C417 1.387 1_554 S
H416 C423 0.950 . S
C417 C415 1.387 1_556 S
C417 C419 1.390 1_655 S
C417 H421 0.950 . S
H418 C414 0.950 . S
C419 C417 1.390 1_455 S
C419 C420 1.387 1_556 S
C419 H422 0.950 . S
C420 C419 1.387 1_554 S
C420 C423 1.387 . S
H421 C417 0.950 . S
H422 C419 0.950 . S
C423 C414 1.390 1_455 S
C423 H416 0.950 . S
C423 C420 1.387 . S
C424 C425 1.387 . S
C424 H428 0.950 . S
C424 C433 1.390 . S
C425 C424 1.387 . S
C425 C427 1.387 . S
H426 C433 0.950 . S
C427 C425 1.387 . S
C427 C429 1.390 . S
C427 H431 0.950 . S
H428 C424 0.950 . S
C429 C427 1.390 . S
C429 C430 1.387 . S
C429 H432 0.950 . S
C430 C429 1.387 . S
C430 C433 1.387 . S
H431 C427 0.950 . S
H432 C429 0.950 . S
C433 C424 1.390 . S
C433 H426 0.950 . S
C433 C430 1.387 . S
C434 C435 1.387 . S
C434 H438 0.950 . S
C434 C443 1.390 1_545 S
C435 C434 1.387 . S
C435 C437 1.387 . S
H436 C443 0.950 . S
C437 C435 1.387 . S
C437 C439 1.390 1_545 S
C437 H441 0.950 . S
H438 C434 0.950 . S
C439 C437 1.390 1_565 S
C439 C440 1.387 . S
C439 H442 0.950 . S
C440 C439 1.387 . S
C440 C443 1.387 . S
H441 C437 0.950 . S
H442 C439 0.950 . S
C443 C434 1.390 1_565 S
C443 H436 0.950 . S
C443 C440 1.387 . S
C444 C445 1.387 . S
C444 H448 0.950 . S
C444 C453 1.390 1_556 S
C445 C444 1.387 . S
C445 C447 1.387 . S
H446 C453 0.950 . S
C447 C445 1.387 . S
C447 C449 1.390 1_556 S
C447 H451 0.950 . S
H448 C444 0.950 . S
C449 C447 1.390 1_554 S
C449 C450 1.387 . S
C449 H452 0.950 . S
C450 C449 1.387 . S
C450 C453 1.387 . S
H451 C447 0.950 . S
H452 C449 0.950 . S
C453 C444 1.390 1_554 S
C453 H446 0.950 . S
C453 C450 1.387 . S
C454 C455 1.387 . S
C454 H458 0.950 . S
C454 C463 1.390 1_545 S
C455 C454 1.387 . S
C455 C457 1.387 . S
H456 C463 0.950 . S
C457 C455 1.387 . S
C457 C459 1.390 1_545 S
C457 H461 0.950 . S
H458 C454 0.950 . S
C459 C457 1.390 1_565 S
C459 C460 1.387 . S
C459 H462 0.950 . S
C460 C459 1.387 . S
C460 C463 1.387 . S
H461 C457 0.950 . S
H462 C459 0.950 . S
C463 C454 1.390 1_565 S
C463 H456 0.950 . S
C463 C460 1.387 . S
C464 C465 1.387 . S
C464 H468 0.950 . S
C464 C473 1.390 1_554 S
C465 C464 1.387 . S
C465 C467 1.387 1_565 S
H466 C473 0.950 . S
C467 C465 1.387 1_545 S
C467 C469 1.390 1_554 S
C467 H471 0.950 . S
H468 C464 0.950 . S
C469 C467 1.390 1_556 S
C469 C470 1.387 1_545 S
C469 H472 0.950 . S
C470 C469 1.387 1_565 S
C470 C473 1.387 . S
H471 C467 0.950 . S
H472 C469 0.950 . S
C473 C464 1.390 1_556 S
C473 H466 0.950 . S
C473 C470 1.387 . S
C474 C475 1.387 . S
C474 H478 0.950 . S
C474 C483 1.390 . S
C475 C474 1.387 . S
C475 C477 1.387 . S
H476 C483 0.950 . S
C477 C475 1.387 . S
C477 C479 1.390 . S
C477 H481 0.950 . S
H478 C474 0.950 . S
C479 C477 1.390 . S
C479 C480 1.387 . S
C479 H482 0.950 . S
C480 C479 1.387 . S
C480 C483 1.387 . S
H481 C477 0.950 . S
H482 C479 0.950 . S
C483 C474 1.390 . S
C483 H476 0.950 . S
C483 C480 1.387 . S
C484 C485 1.387 . S
C484 H488 0.950 . S
C484 C493 1.390 . S
C485 C484 1.387 . S
C485 C487 1.387 . S
H486 C493 0.950 . S
C487 C485 1.387 . S
C487 C489 1.390 . S
C487 H491 0.950 . S
H488 C484 0.950 . S
C489 C487 1.390 . S
C489 C490 1.387 . S
C489 H492 0.950 . S
C490 C489 1.387 . S
C490 C493 1.387 . S
H491 C487 0.950 . S
H492 C489 0.950 . S
C493 C484 1.390 . S
C493 H486 0.950 . S
C493 C490 1.387 . S
C494 C495 1.387 . S
C494 H498 0.950 . S
C494 C503 1.390 1_556 S
C495 C494 1.387 . S
C495 C497 1.387 . S
H496 C503 0.950 . S
C497 C495 1.387 . S
C497 C499 1.390 1_556 S
C497 H501 0.950 . S
H498 C494 0.950 . S
C499 C497 1.390 1_554 S
C499 C500 1.387 . S
C499 H502 0.950 . S
C500 C499 1.387 . S
C500 C503 1.387 . S
H501 C497 0.950 . S
H502 C499 0.950 . S
C503 C494 1.390 1_554 S
C503 H496 0.950 . S
C503 C500 1.387 . S
C504 C505 1.387 . S
C504 H508 0.950 . S
C504 C513 1.390 . S
C505 C504 1.387 . S
C505 C507 1.387 . S
H506 C513 0.950 . S
C507 C505 1.387 . S
C507 C509 1.390 . S
C507 H511 0.950 . S
H508 C504 0.950 . S
C509 C507 1.390 . S
C509 C510 1.387 . S
C509 H512 0.950 . S
C510 C509 1.387 . S
C510 C513 1.387 . S
H511 C507 0.950 . S
H512 C509 0.950 . S
C513 C504 1.390 . S
C513 H506 0.950 . S
C513 C510 1.387 . S
C514 C515 1.387 . S
C514 H518 0.950 . S
C514 C523 1.390 . S
C515 C514 1.387 . S
C515 C517 1.387 . S
H516 C523 0.950 . S
C517 C515 1.387 . S
C517 C519 1.390 . S
C517 H521 0.950 . S
H518 C514 0.950 . S
C519 C517 1.390 . S
C519 C520 1.387 . S
C519 H522 0.950 . S
C520 C519 1.387 . S
C520 C523 1.387 . S
H521 C517 0.950 . S
H522 C519 0.950 . S
C523 C514 1.390 . S
C523 H516 0.950 . S
C523 C520 1.387 . S
C524 C525 1.387 . S
C524 H528 0.950 . S
C524 C533 1.390 . S
C525 C524 1.387 . S
C525 C527 1.387 1_455 S
H526 C533 0.950 . S
C527 C525 1.387 1_655 S
C527 C529 1.390 . S
C527 H531 0.950 . S
H528 C524 0.950 . S
C529 C527 1.390 . S
C529 C530 1.387 1_655 S
C529 H532 0.950 . S
C530 C529 1.387 1_455 S
C530 C533 1.387 . S
H531 C527 0.950 . S
H532 C529 0.950 . S
C533 C524 1.390 . S
C533 H526 0.950 . S
C533 C530 1.387 . S
C534 C535 1.387 1_565 S
C534 H538 0.950 . S
C534 C543 1.390 . S
C535 C534 1.387 1_545 S
C535 C537 1.387 . S
H536 C543 0.950 . S
C537 C535 1.387 . S
C537 C539 1.390 . S
C537 H541 0.950 . S
H538 C534 0.950 . S
C539 C537 1.390 . S
C539 C540 1.387 . S
C539 H542 0.950 . S
C540 C539 1.387 . S
C540 C543 1.387 1_545 S
H541 C537 0.950 . S
H542 C539 0.950 . S
C543 C534 1.390 . S
C543 H536 0.950 . S
C543 C540 1.387 1_565 S
C225 C8 1.683 . S
C230 C106 1.683 . S
C235 C22 1.682 . S
C240 C64 1.683 . S
C245 C78 1.683 . S
C250 C36 1.683 . S
C255 C50 1.683 . S
C260 C92 1.683 . S
C265 C120 1.683 . S
C270 C176 1.683 . S
C275 C134 1.682 . S
C280 C204 1.682 . S
C285 C162 1.683 . S
C290 C148 1.683 . S
C295 C218 1.683 . S
C300 C190 1.682 . S
C305 C3 1.015 . S
C310 C87 1.015 . S
C315 C105 1.503 . S
C320 C21 1.503 . S
C325 C31 1.015 . S
C330 C59 1.015 . S
C335 C77 1.503 . S
C340 C49 1.503 . S
C345 C9 1.418 . S
C350 C205 1.418 . S
C355 C157 1.015 . S
C360 C17 1.015 . S
C365 C191 1.418 . S
C370 C37 1.418 . S
C375 C171 1.015 . S
C380 C45 1.015 . S
C385 C149 1.418 . S
C390 C65 1.418 . S
C395 C73 1.015 . S
C400 C213 1.015 . S
C405 C93 1.420 . S
C410 C121 1.420 . S
C415 C101 1.015 . S
C420 C129 1.015 . S
C425 C7 1.503 . S
C430 C63 1.503 . S
C435 C119 1.503 . S
C440 C189 1.503 . S
C445 C177 1.420 . S
C450 C135 1.420 . S
C455 C203 1.503 . S
C460 C147 1.503 . S
C465 C107 1.418 . S
C470 C51 1.418 . S
C475 C35 1.499 . S
C480 C91 1.499 . S
C485 C163 1.418 . S
C490 C219 1.418 . S
C495 C185 1.015 . S
C500 C143 1.015 . S
C505 C217 1.503 . S
C510 C175 1.503 . S
C515 C199 1.015 . S
C520 C115 1.015 . S
C525 C161 1.499 . S
C530 C133 1.499 . S
C535 C23 1.420 . S
C540 C79 1.420 . S
