# Generated by pormake.
# Topology uki, (4)-cn, num edge types: 1
# Building blocks:
#     Node 0, Type 0, BuildingBlock: NAWXER_clean_sbu_0, # of connection points: 4
#     Node 1, Type 0, BuildingBlock: NAWXER_clean_sbu_0, # of connection points: 4
#     Node 2, Type 0, BuildingBlock: NAWXER_clean_sbu_0, # of connection points: 4
#     Node 3, Type 0, BuildingBlock: NAWXER_clean_sbu_0, # of connection points: 4
#     Node 4, Type 0, BuildingBlock: NAWXER_clean_sbu_0, # of connection points: 4
#     Node 5, Type 0, BuildingBlock: NAWXER_clean_sbu_0, # of connection points: 4
#     Node 6, Type 0, BuildingBlock: NAWXER_clean_sbu_0, # of connection points: 4
#     Node 7, Type 0, BuildingBlock: NAWXER_clean_sbu_0, # of connection points: 4
#     Node 8, Type 0, BuildingBlock: NAWXER_clean_sbu_0, # of connection points: 4
#     Node 9, Type 0, BuildingBlock: NAWXER_clean_sbu_0, # of connection points: 4
#     Node 10, Type 0, BuildingBlock: NAWXER_clean_sbu_0, # of connection points: 4
#     Node 11, Type 0, BuildingBlock: NAWXER_clean_sbu_0, # of connection points: 4
#     Node 12, Type 0, BuildingBlock: NAWXER_clean_sbu_0, # of connection points: 4
#     Node 13, Type 0, BuildingBlock: NAWXER_clean_sbu_0, # of connection points: 4
#     Node 14, Type 0, BuildingBlock: NAWXER_clean_sbu_0, # of connection points: 4
#     Node 15, Type 0, BuildingBlock: NAWXER_clean_sbu_0, # of connection points: 4
#     Edge 16, Type (0, 0), BuildingBlock: TEMPAE_clean_linker_10, # of connection points: 2
#     Edge 17, Type (0, 0), BuildingBlock: TEMPAE_clean_linker_10, # of connection points: 2
#     Edge 18, Type (0, 0), BuildingBlock: TEMPAE_clean_linker_10, # of connection points: 2
#     Edge 19, Type (0, 0), BuildingBlock: TEMPAE_clean_linker_10, # of connection points: 2
#     Edge 20, Type (0, 0), BuildingBlock: TEMPAE_clean_linker_10, # of connection points: 2
#     Edge 21, Type (0, 0), BuildingBlock: TEMPAE_clean_linker_10, # of connection points: 2
#     Edge 22, Type (0, 0), BuildingBlock: TEMPAE_clean_linker_10, # of connection points: 2
#     Edge 23, Type (0, 0), BuildingBlock: TEMPAE_clean_linker_10, # of connection points: 2
#     Edge 24, Type (0, 0), BuildingBlock: TEMPAE_clean_linker_10, # of connection points: 2
#     Edge 25, Type (0, 0), BuildingBlock: TEMPAE_clean_linker_10, # of connection points: 2
#     Edge 26, Type (0, 0), BuildingBlock: TEMPAE_clean_linker_10, # of connection points: 2
#     Edge 27, Type (0, 0), BuildingBlock: TEMPAE_clean_linker_10, # of connection points: 2
#     Edge 28, Type (0, 0), BuildingBlock: TEMPAE_clean_linker_10, # of connection points: 2
#     Edge 29, Type (0, 0), BuildingBlock: TEMPAE_clean_linker_10, # of connection points: 2
#     Edge 30, Type (0, 0), BuildingBlock: TEMPAE_clean_linker_10, # of connection points: 2
#     Edge 31, Type (0, 0), BuildingBlock: TEMPAE_clean_linker_10, # of connection points: 2
#     Edge 32, Type (0, 0), BuildingBlock: TEMPAE_clean_linker_10, # of connection points: 2
#     Edge 33, Type (0, 0), BuildingBlock: TEMPAE_clean_linker_10, # of connection points: 2
#     Edge 34, Type (0, 0), BuildingBlock: TEMPAE_clean_linker_10, # of connection points: 2
#     Edge 35, Type (0, 0), BuildingBlock: TEMPAE_clean_linker_10, # of connection points: 2
#     Edge 36, Type (0, 0), BuildingBlock: TEMPAE_clean_linker_10, # of connection points: 2
#     Edge 37, Type (0, 0), BuildingBlock: TEMPAE_clean_linker_10, # of connection points: 2
#     Edge 38, Type (0, 0), BuildingBlock: TEMPAE_clean_linker_10, # of connection points: 2
#     Edge 39, Type (0, 0), BuildingBlock: TEMPAE_clean_linker_10, # of connection points: 2
#     Edge 40, Type (0, 0), BuildingBlock: TEMPAE_clean_linker_10, # of connection points: 2
#     Edge 41, Type (0, 0), BuildingBlock: TEMPAE_clean_linker_10, # of connection points: 2
#     Edge 42, Type (0, 0), BuildingBlock: TEMPAE_clean_linker_10, # of connection points: 2
#     Edge 43, Type (0, 0), BuildingBlock: TEMPAE_clean_linker_10, # of connection points: 2
#     Edge 44, Type (0, 0), BuildingBlock: TEMPAE_clean_linker_10, # of connection points: 2
#     Edge 45, Type (0, 0), BuildingBlock: TEMPAE_clean_linker_10, # of connection points: 2
#     Edge 46, Type (0, 0), BuildingBlock: TEMPAE_clean_linker_10, # of connection points: 2
#     Edge 47, Type (0, 0), BuildingBlock: TEMPAE_clean_linker_10, # of connection points: 2
# Relax obj value: 0.074
# Max RMSD: 0.234
# Mean RMSD: 0.234
data_MOF--net-uki--node1-NAWXER_clean_sbu_0--edge1-TEMPAE_clean_linker_10
_symmetry_space_group_name_H-M    P1
_symmetry_Int_Tables_number       1
_symmetry_cell_setting            triclinic
loop_
_symmetry_equiv_pos_as_xyz
'x, y, z'
_cell_length_a     32.103682
_cell_length_b     32.112782
_cell_length_c     74.408606
_cell_angle_alpha  90.001057
_cell_angle_beta   90.016825
_cell_angle_gamma 89.99656
loop_
_atom_site_label
_atom_site_type_symbol
_atom_site_fract_x
_atom_site_fract_y
_atom_site_fract_z
_atom_type_partial_charge
C0 C 0.13625 0.2247 0.32955 0.0
C1 C 0.01843 0.25253 0.29026 0.0
O2 O 0.1026 0.24392 0.33283 0.0
Zn3 Zn 0.07698 0.23745 0.30968 0.0
O4 O 0.14193 0.20881 0.31392 0.0
Zn5 Zn 0.10758 0.20563 0.28903 0.0
O6 O 0.14386 0.23369 0.27245 0.0
O7 O 0.11485 0.27583 0.29222 0.0
O8 O 0.04675 0.23129 0.28219 0.0
O9 O 0.02354 0.26276 0.3066 0.0
O10 O 0.0623 0.17167 0.30779 0.0
O11 O 0.09989 0.14718 0.28538 0.0
C12 C 0.13862 0.27023 0.27855 0.0
C13 C 0.07343 0.14106 0.29776 0.0
C14 C 0.27004 0.86429 0.72319 0.0
C15 C 0.14082 0.92962 0.70408 0.0
O16 O 0.27562 0.88811 0.70955 0.0
Zn17 Zn 0.23719 0.92599 0.69211 0.0
O18 O 0.2335 0.859 0.7293 0.0
Zn19 Zn 0.2054 0.89536 0.71275 0.0
O20 O 0.20845 0.86109 0.68785 0.0
O21 O 0.24356 0.90041 0.66894 0.0
O22 O 0.14695 0.9031 0.71644 0.0
O23 O 0.17141 0.94073 0.69404 0.0
O24 O 0.26254 0.97938 0.69518 0.0
O25 O 0.23112 0.95615 0.7196 0.0
C26 C 0.2243 0.86678 0.67222 0.0
C27 C 0.25235 0.98448 0.71153 0.0
C28 C 0.86349 0.73361 0.27839 0.0
C29 C 0.92878 0.86266 0.2977 0.0
O30 O 0.85838 0.77017 0.27229 0.0
Zn31 Zn 0.89457 0.79817 0.28894 0.0
O32 O 0.88713 0.72796 0.2921 0.0
Zn33 Zn 0.92492 0.76625 0.30962 0.0
O34 O 0.89918 0.75984 0.33273 0.0
O35 O 0.86003 0.7951 0.31379 0.0
O36 O 0.9398 0.83203 0.30775 0.0
O37 O 0.90235 0.85658 0.2853 0.0
O38 O 0.9555 0.77254 0.28223 0.0
O39 O 0.97825 0.74073 0.30665 0.0
C40 C 0.8656 0.77917 0.32942 0.0
C41 C 0.98364 0.75115 0.29035 0.0
C42 C 0.77881 0.13735 0.67229 0.0
C43 C 0.75093 0.01957 0.71156 0.0
O44 O 0.79473 0.14303 0.68792 0.0
Zn45 Zn 0.79785 0.1087 0.71281 0.0
O46 O 0.75955 0.10372 0.66902 0.0
Zn47 Zn 0.76602 0.07812 0.69217 0.0
O48 O 0.72763 0.11597 0.70964 0.0
O49 O 0.7698 0.145 0.72939 0.0
O50 O 0.74069 0.02471 0.69522 0.0
O51 O 0.77217 0.04788 0.71964 0.0
O52 O 0.85631 0.10097 0.71649 0.0
O53 O 0.83181 0.06338 0.69407 0.0
C54 C 0.73324 0.13974 0.7233 0.0
C55 C 0.86242 0.07448 0.70411 0.0
C56 C 0.01814 0.25065 0.96119 0.0
C57 C 0.13603 0.27865 0.92198 0.0
O58 O 0.02332 0.24041 0.94485 0.0
Zn59 Zn 0.07675 0.26577 0.94183 0.0
O60 O 0.04642 0.27191 0.96928 0.0
Zn61 Zn 0.10726 0.29761 0.96248 0.0
O62 O 0.09952 0.35601 0.96617 0.0
O63 O 0.06198 0.33156 0.94372 0.0
O64 O 0.14164 0.29458 0.93761 0.0
O65 O 0.10245 0.2593 0.9187 0.0
O66 O 0.11458 0.2274 0.95933 0.0
O67 O 0.14354 0.26961 0.97908 0.0
C68 C 0.07307 0.36215 0.95377 0.0
C69 C 0.13832 0.23305 0.973 0.0
C70 C 0.2781 0.8675 0.08017 0.0
C71 C 0.24974 0.98472 0.04064 0.0
O72 O 0.29386 0.86166 0.06453 0.0
Zn73 Zn 0.29673 0.89564 0.03956 0.0
O74 O 0.25878 0.90113 0.08339 0.0
Zn75 Zn 0.26499 0.92643 0.06017 0.0
O76 O 0.22653 0.88826 0.04284 0.0
O77 O 0.26863 0.85909 0.0231 0.0
O78 O 0.23958 0.97978 0.057 0.0
O79 O 0.27097 0.95633 0.03262 0.0
O80 O 0.35515 0.90336 0.0358 0.0
O81 O 0.33077 0.94118 0.05817 0.0
C82 C 0.2321 0.86433 0.02923 0.0
C83 C 0.36132 0.92998 0.04812 0.0
C84 C 0.86636 0.72441 0.92226 0.0
C85 C 0.98369 0.75224 0.96181 0.0
O86 O 0.89996 0.7438 0.91908 0.0
Zn87 Zn 0.92534 0.73721 0.94227 0.0
O88 O 0.86055 0.7084 0.93786 0.0
Zn89 Zn 0.89458 0.70526 0.96284 0.0
O90 O 0.85805 0.73323 0.97935 0.0
O91 O 0.88724 0.77547 0.95968 0.0
O92 O 0.95531 0.73095 0.96981 0.0
O93 O 0.97872 0.76252 0.94547 0.0
O94 O 0.93999 0.67141 0.94411 0.0
O95 O 0.90231 0.64681 0.96647 0.0
C96 C 0.86332 0.7698 0.97329 0.0
C97 C 0.92882 0.64075 0.9541 0.0
C98 C 0.72387 0.13685 0.07944 0.0
C99 C 0.75147 0.01877 0.04031 0.0
O100 O 0.70795 0.14246 0.06381 0.0
Zn101 Zn 0.70473 0.10798 0.03896 0.0
O102 O 0.74309 0.10322 0.08275 0.0
Zn103 Zn 0.73655 0.0775 0.05963 0.0
O104 O 0.77497 0.11521 0.04211 0.0
O105 O 0.73278 0.14412 0.02233 0.0
O106 O 0.76176 0.02402 0.05663 0.0
O107 O 0.73026 0.04707 0.0322 0.0
O108 O 0.64625 0.10037 0.03532 0.0
O109 O 0.67071 0.06292 0.05778 0.0
C110 C 0.76935 0.1389 0.02842 0.0
C111 C 0.6401 0.07401 0.04774 0.0
C112 C 0.51915 0.75247 0.79023 0.0
C113 C 0.63696 0.72434 0.82948 0.0
O114 O 0.52426 0.76254 0.80658 0.0
Zn115 Zn 0.57773 0.73728 0.80961 0.0
O116 O 0.54751 0.73136 0.78212 0.0
Zn117 Zn 0.60835 0.70568 0.78891 0.0
O118 O 0.60065 0.64724 0.78515 0.0
O119 O 0.56307 0.67153 0.8076 0.0
O120 O 0.64269 0.70864 0.81381 0.0
O121 O 0.60327 0.74348 0.83278 0.0
O122 O 0.6156 0.77586 0.79222 0.0
O123 O 0.64464 0.7339 0.77239 0.0
C124 C 0.57417 0.64101 0.79752 0.0
C125 C 0.63939 0.77039 0.77855 0.0
C126 C 0.72413 0.36689 0.1719 0.0
C127 C 0.75206 0.48471 0.21115 0.0
O128 O 0.70827 0.36122 0.18753 0.0
Zn129 Zn 0.70521 0.39555 0.21242 0.0
O130 O 0.74339 0.40052 0.16862 0.0
Zn131 Zn 0.737 0.42611 0.19177 0.0
O132 O 0.77544 0.38824 0.20924 0.0
O133 O 0.73327 0.35928 0.229 0.0
O134 O 0.76231 0.47953 0.19481 0.0
O135 O 0.73084 0.4564 0.21923 0.0
O136 O 0.64677 0.40321 0.2161 0.0
O137 O 0.67118 0.44083 0.19369 0.0
C138 C 0.76982 0.36448 0.2229 0.0
C139 C 0.6406 0.42969 0.20373 0.0
C140 C 0.36632 0.27929 0.82965 0.0
C141 C 0.4842 0.25117 0.79044 0.0
O142 O 0.40001 0.26016 0.83297 0.0
Zn143 Zn 0.42562 0.26637 0.8098 0.0
O144 O 0.36064 0.29502 0.81398 0.0
Zn145 Zn 0.39503 0.29804 0.78912 0.0
O146 O 0.35877 0.26989 0.77255 0.0
O147 O 0.38774 0.22786 0.79238 0.0
O148 O 0.45588 0.27235 0.78234 0.0
O149 O 0.47905 0.24101 0.80679 0.0
O150 O 0.44042 0.3321 0.8078 0.0
O151 O 0.40275 0.35647 0.78538 0.0
C152 C 0.36398 0.23339 0.7787 0.0
C153 C 0.42931 0.36264 0.79773 0.0
C154 C 0.27854 0.63751 0.17261 0.0
C155 C 0.25046 0.5194 0.21165 0.0
O156 O 0.29446 0.643 0.18825 0.0
Zn157 Zn 0.29758 0.60835 0.21307 0.0
O158 O 0.25927 0.60392 0.16926 0.0
Zn159 Zn 0.26568 0.57812 0.19235 0.0
O160 O 0.22744 0.6161 0.20983 0.0
O161 O 0.26961 0.64445 0.22975 0.0
O162 O 0.24018 0.52475 0.19533 0.0
O163 O 0.2718 0.54755 0.21977 0.0
O164 O 0.35603 0.60049 0.21671 0.0
O165 O 0.33145 0.56329 0.19419 0.0
C166 C 0.23308 0.63962 0.22357 0.0
C167 C 0.3621 0.57421 0.20425 0.0
C168 C 0.51859 0.75126 0.4615 0.0
C169 C 0.63603 0.77928 0.42207 0.0
O170 O 0.52359 0.74108 0.44515 0.0
Zn171 Zn 0.577 0.76638 0.44203 0.0
O172 O 0.54697 0.77246 0.46955 0.0
Zn173 Zn 0.60775 0.79813 0.46265 0.0
O174 O 0.60006 0.85657 0.46637 0.0
O175 O 0.56234 0.83216 0.44397 0.0
O176 O 0.64185 0.79512 0.4377 0.0
O177 O 0.60238 0.76 0.41884 0.0
O178 O 0.61501 0.72792 0.45943 0.0
O179 O 0.64421 0.77002 0.47916 0.0
C180 C 0.57351 0.86273 0.45401 0.0
C181 C 0.63891 0.73349 0.47305 0.0
C182 C 0.77857 0.36704 0.57966 0.0
C183 C 0.7506 0.48469 0.5403 0.0
O184 O 0.79443 0.36131 0.56403 0.0
Zn185 Zn 0.79751 0.39554 0.53912 0.0
O186 O 0.7593 0.40068 0.58292 0.0
Zn187 Zn 0.7657 0.4262 0.55975 0.0
O188 O 0.72728 0.38826 0.5423 0.0
O189 O 0.76945 0.35919 0.52257 0.0
O190 O 0.74038 0.47961 0.55665 0.0
O191 O 0.77183 0.45634 0.53225 0.0
O192 O 0.85596 0.40324 0.53544 0.0
O193 O 0.83149 0.4409 0.55783 0.0
C194 C 0.7329 0.36445 0.52866 0.0
C195 C 0.86209 0.42975 0.54781 0.0
C196 C 0.42914 0.14133 0.45392 0.0
C197 C 0.36388 0.27052 0.47306 0.0
O198 O 0.40263 0.14747 0.46628 0.0
Zn199 Zn 0.39493 0.20591 0.46259 0.0
O200 O 0.44027 0.17191 0.44388 0.0
Zn201 Zn 0.42555 0.23769 0.44195 0.0
O202 O 0.47898 0.263 0.44502 0.0
O203 O 0.45576 0.23157 0.46943 0.0
O204 O 0.38767 0.27612 0.4594 0.0
O205 O 0.35862 0.23398 0.47915 0.0
O206 O 0.36062 0.209 0.4377 0.0
O207 O 0.39995 0.24409 0.41879 0.0
C208 C 0.4841 0.25278 0.46136 0.0
C209 C 0.36631 0.22486 0.42206 0.0
C210 C 0.26992 0.63946 0.52875 0.0
C211 C 0.14071 0.57412 0.54783 0.0
O212 O 0.27551 0.61564 0.54239 0.0
Zn213 Zn 0.23709 0.57769 0.55981 0.0
O214 O 0.23337 0.6447 0.52263 0.0
Zn215 Zn 0.20531 0.60833 0.53917 0.0
O216 O 0.20837 0.64257 0.56408 0.0
O217 O 0.24348 0.60322 0.58298 0.0
O218 O 0.14686 0.60062 0.53546 0.0
O219 O 0.1713 0.56299 0.55787 0.0
O220 O 0.26244 0.52428 0.55672 0.0
O221 O 0.23101 0.54756 0.53231 0.0
C222 C 0.22422 0.63686 0.57971 0.0
C223 C 0.25224 0.51921 0.54037 0.0
C224 C 0.14353 0.34679 0.27292 0.0
C225 C 0.15816 0.30639 0.26953 0.0
C226 C 0.15994 0.38122 0.26372 0.0
C227 C 0.19222 0.3752 0.25103 0.0
C228 C 0.20791 0.33463 0.24789 0.0
C229 C 0.19045 0.30065 0.25708 0.0
C230 C 0.14199 0.42392 0.26726 0.0
C231 C 0.24275 0.32709 0.23466 0.0
C232 C 0.20474 0.4567 0.21445 0.0
C233 C 0.23684 0.48159 0.2214 0.0
C234 C 0.19012 0.42185 0.22392 0.0
C235 C 0.20849 0.41123 0.2406 0.0
C236 C 0.24153 0.43567 0.2475 0.0
C237 C 0.25509 0.47077 0.23788 0.0
C238 C 0.15443 0.3969 0.21623 0.0
C239 C 0.2623 0.42493 0.26511 0.0
H240 H 0.11843 0.35146 0.28245 0.0
H241 H 0.20207 0.26953 0.25447 0.0
H242 H 0.16698 0.4456 0.27155 0.0
H243 H 0.12833 0.43665 0.25471 0.0
H244 H 0.11745 0.42342 0.27778 0.0
H245 H 0.25294 0.29403 0.23448 0.0
H246 H 0.23245 0.33582 0.22094 0.0
H247 H 0.26993 0.34696 0.23803 0.0
H248 H 0.19034 0.46499 0.20177 0.0
H249 H 0.28009 0.48973 0.24328 0.0
H250 H 0.1277 0.39746 0.22568 0.0
H251 H 0.16382 0.36389 0.21456 0.0
H252 H 0.14385 0.40905 0.20302 0.0
H253 H 0.23934 0.42703 0.27621 0.0
H254 H 0.28884 0.44594 0.2682 0.0
H255 H 0.27385 0.39238 0.26477 0.0
C256 C 0.45589 0.79748 0.78752 0.0
C257 C 0.48137 0.76604 0.78042 0.0
C258 C 0.42104 0.81206 0.77804 0.0
C259 C 0.41104 0.79434 0.76116 0.0
C260 C 0.43608 0.76196 0.75409 0.0
C261 C 0.47115 0.74841 0.76374 0.0
C262 C 0.39542 0.84702 0.78592 0.0
C263 C 0.42603 0.74191 0.73625 0.0
C264 C 0.30059 0.81183 0.74435 0.0
C265 C 0.30622 0.84475 0.7322 0.0
C266 C 0.33459 0.79433 0.75352 0.0
C267 C 0.37504 0.81065 0.75071 0.0
C268 C 0.38096 0.84359 0.73832 0.0
C269 C 0.34653 0.86 0.72911 0.0
C270 C 0.32717 0.75877 0.7664 0.0
C271 C 0.42352 0.86223 0.73514 0.0
H272 H 0.46369 0.8114 0.80036 0.0
H273 H 0.49056 0.72394 0.75822 0.0
H274 H 0.39583 0.87421 0.77672 0.0
H275 H 0.36249 0.83712 0.78736 0.0
H276 H 0.40711 0.85712 0.79928 0.0
H277 H 0.44745 0.71579 0.73303 0.0
H278 H 0.3936 0.72995 0.73634 0.0
H279 H 0.42811 0.7654 0.72536 0.0
H280 H 0.26954 0.79975 0.74672 0.0
H281 H 0.3511 0.8856 0.71982 0.0
H282 H 0.33544 0.7685 0.78026 0.0
H283 H 0.34749 0.73202 0.76289 0.0
H284 H 0.29424 0.74815 0.76633 0.0
H285 H 0.43577 0.87543 0.74787 0.0
H286 H 0.42295 0.88726 0.72483 0.0
H287 H 0.44562 0.83773 0.73073 0.0
C288 C 0.79762 0.54749 0.21405 0.0
C289 C 0.76557 0.52249 0.22095 0.0
C290 C 0.81215 0.58231 0.22356 0.0
C291 C 0.79372 0.59281 0.24025 0.0
C292 C 0.76071 0.56826 0.2471 0.0
C293 C 0.74725 0.53317 0.23744 0.0
C294 C 0.84781 0.60738 0.21593 0.0
C295 C 0.73988 0.57886 0.2647 0.0
C296 C 0.85859 0.65708 0.27268 0.0
C297 C 0.84395 0.6975 0.26933 0.0
C298 C 0.8422 0.6227 0.26344 0.0
C299 C 0.80993 0.62878 0.25073 0.0
C300 C 0.79423 0.66936 0.24764 0.0
C301 C 0.81168 0.7033 0.25686 0.0
C302 C 0.86017 0.57999 0.26694 0.0
C303 C 0.7594 0.67697 0.2344 0.0
H304 H 0.81208 0.53931 0.20137 0.0
H305 H 0.72229 0.51413 0.24279 0.0
H306 H 0.83837 0.64038 0.21429 0.0
H307 H 0.87453 0.6068 0.22539 0.0
H308 H 0.85843 0.59534 0.20271 0.0
H309 H 0.71334 0.55781 0.26774 0.0
H310 H 0.7628 0.5767 0.27582 0.0
H311 H 0.7283 0.61141 0.26439 0.0
H312 H 0.88368 0.65237 0.28222 0.0
H313 H 0.80006 0.73443 0.25429 0.0
H314 H 0.87386 0.56736 0.25438 0.0
H315 H 0.83519 0.55826 0.27118 0.0
H316 H 0.88469 0.58043 0.27748 0.0
H317 H 0.76974 0.66837 0.22067 0.0
H318 H 0.74916 0.71002 0.23427 0.0
H319 H 0.73224 0.65703 0.23772 0.0
C320 C 0.53255 0.25577 0.76411 0.0
C321 C 0.52197 0.23762 0.78064 0.0
C322 C 0.56763 0.24228 0.75445 0.0
C323 C 0.5923 0.20942 0.76136 0.0
C324 C 0.58192 0.19117 0.77809 0.0
C325 C 0.54708 0.20571 0.78759 0.0
C326 C 0.5781 0.26293 0.73679 0.0
C327 C 0.60712 0.15568 0.78579 0.0
C328 C 0.6567 0.14444 0.72904 0.0
C329 C 0.69709 0.15925 0.73233 0.0
C330 C 0.62228 0.16079 0.73827 0.0
C331 C 0.6283 0.19321 0.7509 0.0
C332 C 0.66884 0.20909 0.75393 0.0
C333 C 0.70282 0.19167 0.74472 0.0
C334 C 0.57961 0.14264 0.73483 0.0
C335 C 0.67638 0.24408 0.76709 0.0
H336 H 0.51342 0.28062 0.75871 0.0
H337 H 0.539 0.19139 0.80031 0.0
H338 H 0.61062 0.27462 0.73706 0.0
H339 H 0.57599 0.23987 0.72573 0.0
H340 H 0.55693 0.28934 0.7337 0.0
H341 H 0.59516 0.14517 0.79905 0.0
H342 H 0.6066 0.12886 0.77639 0.0
H343 H 0.64012 0.16523 0.7874 0.0
H344 H 0.65203 0.11923 0.71956 0.0
H345 H 0.73392 0.20342 0.74726 0.0
H346 H 0.55777 0.1675 0.73054 0.0
H347 H 0.56707 0.12905 0.74743 0.0
H348 H 0.5801 0.11802 0.72434 0.0
H349 H 0.65634 0.27113 0.76372 0.0
H350 H 0.7094 0.25442 0.76719 0.0
H351 H 0.66785 0.23387 0.78085 0.0
C352 C 0.20409 0.04741 0.0376 0.0
C353 C 0.23613 0.02233 0.03074 0.0
C354 C 0.18952 0.0821 0.02801 0.0
C355 C 0.20788 0.09236 0.01129 0.0
C356 C 0.24085 0.06771 0.00447 0.0
C357 C 0.25436 0.03277 0.01421 0.0
C358 C 0.1539 0.10728 0.0356 0.0
C359 C 0.26162 0.07807 0.98682 0.0
C360 C 0.14308 0.15653 0.97879 0.0
C361 C 0.15783 0.19694 0.98208 0.0
C362 C 0.1594 0.12218 0.98807 0.0
C363 C 0.19173 0.12828 1.00075 0.0
C364 C 0.20755 0.16883 0.00377 0.0
C365 C 0.19017 0.20275 0.99451 0.0
C366 C 0.14131 0.07949 0.98465 0.0
C367 C 0.24245 0.17646 0.01698 0.0
H368 H 0.1897 0.03941 0.05031 0.0
H369 H 0.27931 0.01366 0.00889 0.0
H370 H 0.1634 0.14028 0.0372 0.0
H371 H 0.12717 0.10668 0.02615 0.0
H372 H 0.14326 0.09537 0.04885 0.0
H373 H 0.28806 0.05689 0.98379 0.0
H374 H 0.23863 0.07589 0.97573 0.0
H375 H 0.27331 0.11058 0.98706 0.0
H376 H 0.11793 0.15182 0.96928 0.0
H377 H 0.20188 0.23386 0.99703 0.0
H378 H 0.12759 0.06703 0.99723 0.0
H379 H 0.16623 0.05764 0.98044 0.0
H380 H 0.11679 0.07991 0.97411 0.0
H381 H 0.23212 0.16802 0.03073 0.0
H382 H 0.25278 0.20948 0.01705 0.0
H383 H 0.26954 0.15641 0.01368 0.0
C384 C 0.20173 0.8121 0.00792 0.0
C385 C 0.19595 0.8446 0.02027 0.0
C386 C 0.16778 0.79455 0.99873 0.0
C387 C 0.12721 0.81037 0.00175 0.0
C388 C 0.12113 0.84281 0.01436 0.0
C389 C 0.15552 0.85931 0.02357 0.0
C390 C 0.17539 0.75953 0.9856 0.0
C391 C 0.07842 0.8609 0.01777 0.0
C392 C 0.0464 0.79785 0.96487 0.0
C393 C 0.02129 0.76585 0.97173 0.0
C394 C 0.08107 0.81245 0.97447 0.0
C395 C 0.09128 0.79418 0.99122 0.0
C396 C 0.0666 0.76126 0.99805 0.0
C397 C 0.03168 0.74771 0.98829 0.0
C398 C 0.1063 0.84801 0.96685 0.0
C399 C 0.07689 0.7406 0.01573 0.0
H400 H 0.23286 0.80041 0.00539 0.0
H401 H 0.15082 0.88456 0.03302 0.0
H402 H 0.15527 0.73251 0.98892 0.0
H403 H 0.16702 0.76975 0.97182 0.0
H404 H 0.2084 0.74914 0.98557 0.0
H405 H 0.07884 0.88542 0.0283 0.0
H406 H 0.06596 0.8746 0.00518 0.0
H407 H 0.05657 0.83599 0.02199 0.0
H408 H 0.03846 0.81218 0.95213 0.0
H409 H 0.01254 0.7228 0.99363 0.0
H410 H 0.1393 0.83848 0.96527 0.0
H411 H 0.10571 0.87477 0.97628 0.0
H412 H 0.0944 0.8586 0.95359 0.0
H413 H 0.10941 0.72888 0.01552 0.0
H414 H 0.05569 0.71419 0.01878 0.0
H415 H 0.07471 0.76364 0.02679 0.0
C416 C 0.8583 0.84633 0.97897 0.0
C417 C 0.84364 0.80591 0.98229 0.0
C418 C 0.84181 0.88071 0.98818 0.0
C419 C 0.80941 0.87462 1.00081 0.0
C420 C 0.79367 0.83405 0.00387 0.0
C421 C 0.81122 0.80011 0.99468 0.0
C422 C 0.85981 0.92342 0.98472 0.0
C423 C 0.7587 0.82643 0.01703 0.0
C424 C 0.79691 0.95589 0.03748 0.0
C425 C 0.76495 0.98094 0.03053 0.0
C426 C 0.81145 0.92104 0.02799 0.0
C427 C 0.79313 0.91059 0.01128 0.0
C428 C 0.7602 0.93518 0.00438 0.0
C429 C 0.74672 0.97029 0.01402 0.0
C430 C 0.84702 0.89592 0.03568 0.0
C431 C 0.73949 0.92463 0.98674 0.0
H432 H 0.8835 0.85105 0.9695 0.0
H433 H 0.79958 0.76898 0.99723 0.0
H434 H 0.83487 0.94517 0.98044 0.0
H435 H 0.87342 0.93602 0.9973 0.0
H436 H 0.8844 0.92299 0.97422 0.0
H437 H 0.74843 0.7934 0.01712 0.0
H438 H 0.76892 0.83498 0.03078 0.0
H439 H 0.7316 0.84642 0.01367 0.0
H440 H 0.81129 0.96404 0.05018 0.0
H441 H 0.72183 0.98937 0.00863 0.0
H442 H 0.87383 0.8965 0.02628 0.0
H443 H 0.83754 0.86291 0.03728 0.0
H444 H 0.85753 0.9079 0.04894 0.0
H445 H 0.76249 0.92681 0.97566 0.0
H446 H 0.71298 0.94569 0.98366 0.0
H447 H 0.72791 0.89208 0.98701 0.0
C448 C 0.84591 0.14376 0.02271 0.0
C449 C 0.80548 0.15841 0.01936 0.0
C450 C 0.8803 0.16014 0.01348 0.0
C451 C 0.87422 0.19242 1.00079 0.0
C452 C 0.83364 0.20813 0.99769 0.0
C453 C 0.79969 0.19069 0.00691 0.0
C454 C 0.92303 0.14218 0.01698 0.0
C455 C 0.82602 0.24297 0.98446 0.0
C456 C 0.96973 0.25526 0.9875 0.0
C457 C 0.9804 0.23703 0.971 0.0
C458 C 0.9347 0.2417 0.99717 0.0
C459 C 0.9102 0.20866 0.99031 0.0
C460 C 0.92069 0.19031 0.97361 0.0
C461 C 0.95546 0.20493 0.9641 0.0
C462 C 0.92411 0.26246 0.01479 0.0
C463 C 0.89567 0.15463 0.96597 0.0
H464 H 0.85062 0.11866 0.03224 0.0
H465 H 0.76855 0.20232 0.00433 0.0
H466 H 0.93566 0.1285 0.00441 0.0
H467 H 0.94476 0.16715 0.02123 0.0
H468 H 0.92258 0.11766 0.02751 0.0
H469 H 0.79296 0.25318 0.98432 0.0
H470 H 0.84594 0.27012 0.9878 0.0
H471 H 0.83465 0.23265 0.97073 0.0
H472 H 0.98874 0.28025 0.99286 0.0
H473 H 0.96363 0.19054 0.9514 0.0
H474 H 0.92627 0.2395 0.0259 0.0
H475 H 0.89155 0.27403 0.01449 0.0
H476 H 0.94517 0.28897 0.01786 0.0
H477 H 0.89627 0.12791 0.97542 0.0
H478 H 0.90773 0.14403 0.95274 0.0
H479 H 0.86264 0.16403 0.96432 0.0
C480 C 0.69141 0.80098 0.75722 0.0
C481 C 0.65895 0.80662 0.76959 0.0
C482 C 0.70886 0.83502 0.74806 0.0
C483 C 0.69297 0.87553 0.75114 0.0
C484 C 0.66052 0.88145 0.76377 0.0
C485 C 0.64414 0.84697 0.77294 0.0
C486 C 0.74389 0.82758 0.73491 0.0
C487 C 0.64236 0.92408 0.76725 0.0
C488 C 0.75551 0.97129 0.73793 0.0
C489 C 0.73736 0.98184 0.72139 0.0
C490 C 0.74201 0.93623 0.74759 0.0
C491 C 0.70913 0.91157 0.74069 0.0
C492 C 0.69085 0.92196 0.72396 0.0
C493 C 0.7054 0.95676 0.71445 0.0
C494 C 0.76268 0.92576 0.76525 0.0
C495 C 0.65533 0.89677 0.71627 0.0
H496 H 0.70317 0.76991 0.75464 0.0
H497 H 0.6189 0.85156 0.78242 0.0
H498 H 0.73366 0.83612 0.72115 0.0
H499 H 0.77091 0.84765 0.73829 0.0
H500 H 0.75429 0.79458 0.7348 0.0
H501 H 0.61778 0.92353 0.77776 0.0
H502 H 0.66722 0.94592 0.77153 0.0
H503 H 0.62869 0.93666 0.75467 0.0
H504 H 0.78039 0.9904 0.74332 0.0
H505 H 0.69107 0.96484 0.70173 0.0
H506 H 0.77444 0.89327 0.76497 0.0
H507 H 0.73962 0.92779 0.77632 0.0
H508 H 0.78907 0.94696 0.76836 0.0
H509 H 0.66491 0.8638 0.71463 0.0
H510 H 0.64475 0.90879 0.70303 0.0
H511 H 0.62854 0.89722 0.72569 0.0
C512 C 0.97013 0.24792 0.26389 0.0
C513 C 0.98073 0.26615 0.28041 0.0
C514 C 0.93514 0.26149 0.25418 0.0
C515 C 0.91061 0.29452 0.26102 0.0
C516 C 0.92103 0.31287 0.27773 0.0
C517 C 0.95575 0.29824 0.28729 0.0
C518 C 0.92463 0.24074 0.23655 0.0
C519 C 0.89597 0.34855 0.28535 0.0
C520 C 0.84639 0.35951 0.2286 0.0
C521 C 0.80595 0.34488 0.23193 0.0
C522 C 0.88077 0.34307 0.23784 0.0
C523 C 0.87466 0.31076 0.25052 0.0
C524 C 0.83407 0.29507 0.25358 0.0
C525 C 0.80014 0.31255 0.24436 0.0
C526 C 0.92351 0.36102 0.23437 0.0
C527 C 0.82643 0.2602 0.26679 0.0
H528 H 0.98916 0.22293 0.25855 0.0
H529 H 0.96387 0.31263 0.29999 0.0
H530 H 0.89207 0.22916 0.23682 0.0
H531 H 0.92682 0.26369 0.22545 0.0
H532 H 0.94571 0.21422 0.2335 0.0
H533 H 0.90798 0.35916 0.29859 0.0
H534 H 0.89659 0.37527 0.2759 0.0
H535 H 0.86294 0.33915 0.28697 0.0
H536 H 0.85112 0.38463 0.21909 0.0
H537 H 0.769 0.30094 0.24692 0.0
H538 H 0.94525 0.33604 0.23014 0.0
H539 H 0.9361 0.37471 0.24694 0.0
H540 H 0.92309 0.38553 0.22383 0.0
H541 H 0.84639 0.23306 0.26347 0.0
H542 H 0.79337 0.24996 0.26689 0.0
H543 H 0.83498 0.2705 0.28054 0.0
C544 C 0.24769 0.03279 0.73787 0.0
C545 C 0.26595 0.02217 0.72137 0.0
C546 C 0.26121 0.06781 0.74756 0.0
C547 C 0.29423 0.09236 0.74072 0.0
C548 C 0.31263 0.0819 0.72402 0.0
C549 C 0.29805 0.04714 0.71449 0.0
C550 C 0.24041 0.07837 0.76518 0.0
C551 C 0.3483 0.10696 0.7164 0.0
C552 C 0.31209 0.20291 0.75726 0.0
C553 C 0.34442 0.1972 0.7697 0.0
C554 C 0.29464 0.16891 0.74807 0.0
C555 C 0.3104 0.12837 0.75119 0.0
C556 C 0.3427 0.12237 0.76389 0.0
C557 C 0.35909 0.15681 0.77309 0.0
C558 C 0.25977 0.17644 0.73484 0.0
C559 C 0.36072 0.07969 0.76741 0.0
H560 H 0.22271 0.01376 0.74322 0.0
H561 H 0.31246 0.039 0.70179 0.0
H562 H 0.26337 0.07628 0.77629 0.0
H563 H 0.22876 0.11089 0.76487 0.0
H564 H 0.21394 0.05725 0.76824 0.0
H565 H 0.35897 0.0949 0.70319 0.0
H566 H 0.33884 0.13996 0.71474 0.0
H567 H 0.375 0.10644 0.72587 0.0
H568 H 0.30043 0.23401 0.75466 0.0
H569 H 0.38422 0.15216 0.78262 0.0
H570 H 0.23266 0.15645 0.73817 0.0
H571 H 0.27012 0.16784 0.72111 0.0
H572 H 0.24947 0.20946 0.73471 0.0
H573 H 0.33576 0.05793 0.77165 0.0
H574 H 0.3852 0.08019 0.77797 0.0
H575 H 0.37447 0.06706 0.75486 0.0
C576 C 0.04468 0.70359 0.2869 0.0
C577 C 0.02145 0.73758 0.28062 0.0
C578 C 0.07952 0.68906 0.27741 0.0
C579 C 0.09192 0.70953 0.26143 0.0
C580 C 0.06916 0.74446 0.25523 0.0
C581 C 0.03391 0.75782 0.26481 0.0
C582 C 0.10256 0.65127 0.2843 0.0
C583 C 0.08189 0.76753 0.23843 0.0
C584 C 0.20294 0.68965 0.24592 0.0
C585 C 0.19696 0.6594 0.23256 0.0
C586 C 0.16894 0.70708 0.25511 0.0
C587 C 0.12807 0.69354 0.25099 0.0
C588 C 0.1218 0.66348 0.23735 0.0
C589 C 0.15629 0.64696 0.22822 0.0
C590 C 0.1768 0.7395 0.26941 0.0
C591 C 0.07872 0.64792 0.2327 0.0
H592 H 0.03503 0.68764 0.29905 0.0
H593 H 0.01621 0.78429 0.25996 0.0
H594 H 0.10172 0.62617 0.27405 0.0
H595 H 0.13576 0.65907 0.28668 0.0
H596 H 0.08906 0.63907 0.29699 0.0
H597 H 0.06205 0.79525 0.23587 0.0
H598 H 0.1148 0.77778 0.23953 0.0
H599 H 0.07981 0.74647 0.22664 0.0
H600 H 0.23425 0.69958 0.24928 0.0
H601 H 0.15138 0.62351 0.21796 0.0
H602 H 0.16681 0.7274 0.28269 0.0
H603 H 0.1581 0.76783 0.26664 0.0
H604 H 0.21017 0.74842 0.27027 0.0
H605 H 0.06455 0.63278 0.24463 0.0
H606 H 0.07907 0.62516 0.22146 0.0
H607 H 0.05833 0.67439 0.22892 0.0
C608 C 0.7551 0.53281 0.51389 0.0
C609 C 0.73703 0.52239 0.53045 0.0
C610 C 0.74159 0.56783 0.50419 0.0
C611 C 0.70878 0.59257 0.51109 0.0
C612 C 0.69059 0.58234 0.52785 0.0
C613 C 0.70516 0.54757 0.53739 0.0
C614 C 0.76215 0.57814 0.48649 0.0
C615 C 0.65516 0.60763 0.53554 0.0
C616 C 0.69105 0.70304 0.49439 0.0
C617 C 0.6585 0.69733 0.48205 0.0
C618 C 0.70852 0.66907 0.50359 0.0
C619 C 0.69258 0.62855 0.50059 0.0
C620 C 0.66005 0.62254 0.48801 0.0
C621 C 0.64364 0.65695 0.47879 0.0
C622 C 0.74364 0.67659 0.5167 0.0
C623 C 0.64182 0.5799 0.48461 0.0
H624 H 0.77991 0.51363 0.50849 0.0
H625 H 0.69089 0.5396 0.55013 0.0
H626 H 0.73902 0.57602 0.47545 0.0
H627 H 0.77392 0.61063 0.48671 0.0
H628 H 0.78851 0.55691 0.4834 0.0
H629 H 0.64467 0.59574 0.54881 0.0
H630 H 0.66478 0.6406 0.53711 0.0
H631 H 0.6283 0.60711 0.52615 0.0
H632 H 0.70285 0.73413 0.4969 0.0
H633 H 0.61834 0.65231 0.46935 0.0
H634 H 0.77062 0.65646 0.51333 0.0
H635 H 0.73349 0.66818 0.53048 0.0
H636 H 0.75406 0.70958 0.51674 0.0
H637 H 0.66663 0.558 0.48034 0.0
H638 H 0.61716 0.58039 0.47414 0.0
H639 H 0.62823 0.56745 0.49723 0.0
C640 C 0.65634 0.35964 0.52292 0.0
C641 C 0.69675 0.34487 0.51963 0.0
C642 C 0.62194 0.34324 0.51368 0.0
C643 C 0.628 0.31082 0.50105 0.0
C644 C 0.66856 0.29498 0.49803 0.0
C645 C 0.70252 0.31244 0.50725 0.0
C646 C 0.57925 0.36135 0.5171 0.0
C647 C 0.67614 0.25999 0.48487 0.0
C648 C 0.53235 0.2482 0.48774 0.0
C649 C 0.52183 0.26635 0.4712 0.0
C650 C 0.56738 0.26171 0.49743 0.0
C651 C 0.59203 0.29461 0.49056 0.0
C652 C 0.5817 0.31287 0.47382 0.0
C653 C 0.54692 0.2983 0.46428 0.0
C654 C 0.57781 0.24106 0.5151 0.0
C655 C 0.60689 0.3484 0.46615 0.0
H656 H 0.65165 0.38485 0.53239 0.0
H657 H 0.73363 0.30072 0.50472 0.0
H658 H 0.56674 0.37497 0.5045 0.0
H659 H 0.55742 0.33647 0.52136 0.0
H660 H 0.57971 0.38594 0.5276 0.0
H661 H 0.70917 0.24966 0.4848 0.0
H662 H 0.65609 0.23294 0.48822 0.0
H663 H 0.66765 0.27021 0.47111 0.0
H664 H 0.51323 0.22332 0.49312 0.0
H665 H 0.53887 0.31263 0.45156 0.0
H666 H 0.57565 0.2641 0.52617 0.0
H667 H 0.61033 0.22938 0.51486 0.0
H668 H 0.55665 0.21463 0.51818 0.0
H669 H 0.60632 0.3752 0.47557 0.0
H670 H 0.59494 0.35893 0.4529 0.0
H671 H 0.63989 0.33887 0.46457 0.0
C672 C 0.29778 0.45641 0.53745 0.0
C673 C 0.26584 0.48153 0.53052 0.0
C674 C 0.31237 0.42167 0.5279 0.0
C675 C 0.29413 0.41138 0.51115 0.0
C676 C 0.26125 0.43607 0.50427 0.0
C677 C 0.24772 0.47106 0.51397 0.0
C678 C 0.34788 0.39645 0.53558 0.0
C679 C 0.24062 0.4257 0.48659 0.0
C680 C 0.35916 0.34705 0.47881 0.0
C681 C 0.34434 0.30667 0.48209 0.0
C682 C 0.34278 0.38145 0.48805 0.0
C683 C 0.31033 0.37542 0.50066 0.0
C684 C 0.29444 0.33489 0.50367 0.0
C685 C 0.31188 0.30093 0.49446 0.0
C686 C 0.36095 0.42411 0.48464 0.0
C687 C 0.25941 0.32733 0.51681 0.0
H688 H 0.31209 0.46442 0.55018 0.0
H689 H 0.22285 0.4902 0.50859 0.0
H690 H 0.33833 0.36346 0.53716 0.0
H691 H 0.3747 0.39699 0.52617 0.0
H692 H 0.35841 0.40837 0.54884 0.0
H693 H 0.21422 0.44689 0.4835 0.0
H694 H 0.26371 0.42783 0.47553 0.0
H695 H 0.2289 0.3932 0.48682 0.0
H696 H 0.38439 0.35172 0.46934 0.0
H697 H 0.30011 0.26983 0.49698 0.0
H698 H 0.37457 0.43659 0.49724 0.0
H699 H 0.3361 0.44597 0.48037 0.0
H700 H 0.38557 0.42364 0.47415 0.0
H701 H 0.26962 0.3358 0.53058 0.0
H702 H 0.24904 0.29433 0.51688 0.0
H703 H 0.23238 0.34741 0.51345 0.0
C704 C 0.45577 0.70576 0.46444 0.0
C705 C 0.48092 0.73767 0.47136 0.0
C706 C 0.42103 0.69118 0.47398 0.0
C707 C 0.41078 0.7094 0.49074 0.0
C708 C 0.43549 0.74224 0.49762 0.0
C709 C 0.47049 0.75577 0.48792 0.0
C710 C 0.39578 0.6557 0.4663 0.0
C711 C 0.42516 0.76284 0.51531 0.0
C712 C 0.30031 0.69158 0.50741 0.0
C713 C 0.30607 0.65907 0.51975 0.0
C714 C 0.33428 0.70908 0.49822 0.0
C715 C 0.37482 0.69319 0.50123 0.0
C716 C 0.38087 0.66071 0.51383 0.0
C717 C 0.34647 0.64428 0.52304 0.0
C718 C 0.32671 0.74414 0.4851 0.0
C719 C 0.42355 0.64255 0.51724 0.0
H720 H 0.46375 0.69148 0.45169 0.0
H721 H 0.48965 0.78061 0.4933 0.0
H722 H 0.39632 0.62888 0.47571 0.0
H723 H 0.36278 0.66528 0.46473 0.0
H724 H 0.40768 0.64519 0.45304 0.0
H725 H 0.44638 0.78922 0.5184 0.0
H726 H 0.39266 0.77458 0.51509 0.0
H727 H 0.42731 0.73975 0.52636 0.0
H728 H 0.2692 0.70333 0.50489 0.0
H729 H 0.35114 0.61901 0.53249 0.0
H730 H 0.33513 0.73397 0.47132 0.0
H731 H 0.34681 0.77115 0.48846 0.0
H732 H 0.2937 0.75453 0.48505 0.0
H733 H 0.43603 0.62894 0.50463 0.0
H734 H 0.4231 0.61793 0.52773 0.0
H735 H 0.44542 0.66739 0.5215 0.0
C736 C 0.29937 0.19498 0.41049 0.0
C737 C 0.33333 0.22195 0.40817 0.0
C738 C 0.2672 0.19305 0.39772 0.0
C739 C 0.26874 0.21913 0.38239 0.0
C740 C 0.30311 0.24614 0.3799 0.0
C741 C 0.33511 0.24702 0.39275 0.0
C742 C 0.23133 0.16343 0.40072 0.0
C743 C 0.30568 0.27477 0.36383 0.0
C744 C 0.20319 0.19482 0.34113 0.0
C745 C 0.16926 0.22184 0.34343 0.0
C746 C 0.23538 0.19294 0.3539 0.0
C747 C 0.23388 0.21912 0.36919 0.0
C748 C 0.19955 0.2462 0.37166 0.0
C749 C 0.16753 0.24703 0.35882 0.0
C750 C 0.27119 0.16325 0.35093 0.0
C751 C 0.19704 0.27494 0.38769 0.0
H752 H 0.29786 0.17534 0.42232 0.0
H753 H 0.36115 0.26807 0.39089 0.0
H754 H 0.20192 0.18123 0.40219 0.0
H755 H 0.22763 0.14269 0.3889 0.0
H756 H 0.23573 0.14389 0.41289 0.0
H757 H 0.33478 0.29349 0.36374 0.0
H758 H 0.30416 0.2564 0.35122 0.0
H759 H 0.27869 0.29635 0.36381 0.0
H760 H 0.20465 0.1751 0.32933 0.0
H761 H 0.14152 0.26812 0.36067 0.0
H762 H 0.27487 0.14256 0.36277 0.0
H763 H 0.30064 0.18099 0.34944 0.0
H764 H 0.26677 0.14365 0.33877 0.0
H765 H 0.19853 0.25666 0.40033 0.0
H766 H 0.16798 0.29372 0.38777 0.0
H767 H 0.22408 0.29646 0.38769 0.0
C768 C 0.24641 0.66802 0.60902 0.0
C769 C 0.22131 0.66981 0.5936 0.0
C770 C 0.24556 0.70001 0.62187 0.0
C771 C 0.21854 0.73438 0.61938 0.0
C772 C 0.19243 0.73593 0.60405 0.0
C773 C 0.19433 0.70377 0.59128 0.0
C774 C 0.27421 0.69744 0.63794 0.0
C775 C 0.1628 0.77179 0.60106 0.0
C776 C 0.19433 0.79991 0.66064 0.0
C777 C 0.22138 0.83382 0.65833 0.0
C778 C 0.1924 0.76774 0.64787 0.0
C779 C 0.21856 0.76923 0.63257 0.0
C780 C 0.24565 0.80354 0.63009 0.0
C781 C 0.24653 0.83554 0.64294 0.0
C782 C 0.16269 0.73195 0.65085 0.0
C783 C 0.27437 0.80604 0.61405 0.0
H784 H 0.26747 0.64199 0.61089 0.0
H785 H 0.17468 0.70527 0.57946 0.0
H786 H 0.29581 0.72442 0.63794 0.0
H787 H 0.25587 0.69898 0.65055 0.0
H788 H 0.29293 0.66834 0.63803 0.0
H789 H 0.14323 0.76739 0.58889 0.0
H790 H 0.14207 0.77551 0.61288 0.0
H791 H 0.18061 0.80119 0.59958 0.0
H792 H 0.17464 0.79846 0.67245 0.0
H793 H 0.26764 0.86153 0.64108 0.0
H794 H 0.18044 0.70251 0.65234 0.0
H795 H 0.14198 0.72828 0.63902 0.0
H796 H 0.1431 0.73639 0.66301 0.0
H797 H 0.2959 0.779 0.61406 0.0
H798 H 0.29315 0.83509 0.61397 0.0
H799 H 0.25605 0.80455 0.60143 0.0
C800 C 0.66692 0.75723 0.3927 0.0
C801 C 0.66886 0.78226 0.40813 0.0
C802 C 0.6988 0.75814 0.3798 0.0
C803 C 0.7332 0.78514 0.38225 0.0
C804 C 0.73487 0.81121 0.39758 0.0
C805 C 0.70282 0.80925 0.4104 0.0
C806 C 0.6961 0.72953 0.36373 0.0
C807 C 0.77077 0.84081 0.40054 0.0
C808 C 0.83428 0.75696 0.35868 0.0
C809 C 0.83258 0.78211 0.34328 0.0
C810 C 0.80229 0.7579 0.37152 0.0
C811 C 0.76801 0.78505 0.36905 0.0
C812 C 0.76654 0.81118 0.35373 0.0
C813 C 0.7987 0.8092 0.34097 0.0
C814 C 0.80477 0.7292 0.38757 0.0
C815 C 0.73078 0.84094 0.35076 0.0
H816 H 0.64088 0.73618 0.39086 0.0
H817 H 0.70443 0.82886 0.42224 0.0
H818 H 0.69765 0.74788 0.35112 0.0
H819 H 0.72302 0.70786 0.3637 0.0
H820 H 0.66694 0.7109 0.36364 0.0
H821 H 0.76642 0.86043 0.4127 0.0
H822 H 0.80016 0.82299 0.40203 0.0
H823 H 0.77447 0.86149 0.3887 0.0
H824 H 0.86024 0.73582 0.36054 0.0
H825 H 0.79727 0.82889 0.32915 0.0
H826 H 0.77767 0.70775 0.38759 0.0
H827 H 0.80338 0.74753 0.40019 0.0
H828 H 0.83378 0.71034 0.38765 0.0
H829 H 0.7013 0.82326 0.34929 0.0
H830 H 0.73521 0.86049 0.33859 0.0
H831 H 0.72719 0.86168 0.36258 0.0
C832 C 0.75634 0.16866 0.64305 0.0
C833 C 0.78167 0.17032 0.6584 0.0
C834 C 0.75717 0.20064 0.6302 0.0
C835 C 0.78442 0.23485 0.63261 0.0
C836 C 0.81076 0.23627 0.64787 0.0
C837 C 0.80886 0.20413 0.66065 0.0
C838 C 0.72826 0.19822 0.61422 0.0
C839 C 0.84064 0.27195 0.65077 0.0
C840 C 0.80838 0.30008 0.59123 0.0
C841 C 0.78153 0.33413 0.59357 0.0
C842 C 0.81034 0.26796 0.60402 0.0
C843 C 0.78443 0.26967 0.6194 0.0
C844 C 0.75755 0.30414 0.62192 0.0
C845 C 0.75663 0.33607 0.60904 0.0
C846 C 0.8398 0.23199 0.60099 0.0
C847 C 0.72911 0.30688 0.63804 0.0
H848 H 0.73511 0.14274 0.64125 0.0
H849 H 0.8287 0.20553 0.67242 0.0
H850 H 0.70685 0.22535 0.61425 0.0
H851 H 0.74643 0.19959 0.60155 0.0
H852 H 0.70934 0.16925 0.61419 0.0
H853 H 0.86034 0.26748 0.6629 0.0
H854 H 0.86124 0.2755 0.6389 0.0
H855 H 0.82304 0.30147 0.65228 0.0
H856 H 0.82788 0.29845 0.57936 0.0
H857 H 0.73569 0.36218 0.61093 0.0
H858 H 0.82187 0.20265 0.59956 0.0
H859 H 0.86065 0.22823 0.61278 0.0
H860 H 0.85925 0.23628 0.58879 0.0
H861 H 0.7074 0.27999 0.63811 0.0
H862 H 0.71052 0.33606 0.63816 0.0
H863 H 0.74761 0.30531 0.65062 0.0
C864 C 0.16787 0.25579 0.89292 0.0
C865 C 0.16903 0.28162 0.90812 0.0
C866 C 0.19993 0.25675 0.8801 0.0
C867 C 0.23367 0.28464 0.88239 0.0
C868 C 0.23456 0.31147 0.89749 0.0
C869 C 0.20238 0.30942 0.91024 0.0
C870 C 0.19811 0.22728 0.8643 0.0
C871 C 0.26971 0.34205 0.90025 0.0
C872 C 0.33553 0.25782 0.85913 0.0
C873 C 0.33328 0.28218 0.8435 0.0
C874 C 0.3035 0.25862 0.87196 0.0
C875 C 0.26858 0.28481 0.86923 0.0
C876 C 0.26655 0.31019 0.85369 0.0
C877 C 0.2988 0.30838 0.84096 0.0
C878 C 0.30662 0.23077 0.88826 0.0
C879 C 0.23008 0.33891 0.85043 0.0
H880 H 0.14232 0.23409 0.89122 0.0
H881 H 0.20337 0.32964 0.9219 0.0
H882 H 0.19926 0.24505 0.85153 0.0
H883 H 0.2256 0.20634 0.86451 0.0
H884 H 0.16946 0.20788 0.86435 0.0
H885 H 0.26481 0.36207 0.91224 0.0
H886 H 0.29952 0.32502 0.9019 0.0
H887 H 0.27297 0.36231 0.88825 0.0
H888 H 0.36197 0.23738 0.86118 0.0
H889 H 0.29691 0.32747 0.82897 0.0
H890 H 0.2801 0.20861 0.88843 0.0
H891 H 0.30464 0.24964 0.90071 0.0
H892 H 0.33612 0.21269 0.88853 0.0
H893 H 0.20106 0.32043 0.84906 0.0
H894 H 0.23412 0.35804 0.83811 0.0
H895 H 0.22586 0.36005 0.86208 0.0
C896 C 0.25594 0.66921 0.14348 0.0
C897 C 0.28138 0.67063 0.1588 0.0
C898 C 0.25677 0.70132 0.13069 0.0
C899 C 0.28413 0.73543 0.13314 0.0
C900 C 0.31056 0.73664 0.14837 0.0
C901 C 0.30865 0.70436 0.16109 0.0
C902 C 0.22776 0.69914 0.11473 0.0
C903 C 0.34055 0.77221 0.15131 0.0
C904 C 0.30801 0.80063 0.09176 0.0
C905 C 0.2812 0.8347 0.09412 0.0
C906 C 0.31003 0.76855 0.10456 0.0
C907 C 0.28422 0.77032 0.11997 0.0
C908 C 0.25743 0.80484 0.12252 0.0
C909 C 0.25645 0.83674 0.10963 0.0
C910 C 0.3394 0.73251 0.1015 0.0
C911 C 0.22911 0.80765 0.13868 0.0
H912 H 0.23465 0.64336 0.14164 0.0
H913 H 0.32857 0.70558 0.17284 0.0
H914 H 0.20649 0.72638 0.11481 0.0
H915 H 0.24588 0.70048 0.10206 0.0
H916 H 0.2087 0.67027 0.11469 0.0
H917 H 0.36025 0.7676 0.16343 0.0
H918 H 0.36115 0.77576 0.13944 0.0
H919 H 0.32304 0.80177 0.15285 0.0
H920 H 0.32742 0.79893 0.07986 0.0
H921 H 0.23554 0.86287 0.11153 0.0
H922 H 0.32138 0.70324 0.10002 0.0
H923 H 0.36022 0.72861 0.11328 0.0
H924 H 0.35888 0.73682 0.0893 0.0
H925 H 0.20724 0.78089 0.13874 0.0
H926 H 0.21069 0.83693 0.13885 0.0
H927 H 0.24767 0.80588 0.15123 0.0
C928 C 0.83483 0.74747 0.89316 0.0
C929 C 0.83355 0.72149 0.90831 0.0
C930 C 0.80293 0.74658 0.88027 0.0
C931 C 0.76922 0.71859 0.88242 0.0
C932 C 0.76823 0.69159 0.89746 0.0
C933 C 0.80025 0.69358 0.9103 0.0
C934 C 0.80487 0.77622 0.86453 0.0
C935 C 0.73311 0.6609 0.90007 0.0
C936 C 0.66754 0.74556 0.85904 0.0
C937 C 0.66993 0.72137 0.84337 0.0
C938 C 0.69947 0.74465 0.87192 0.0
C939 C 0.73443 0.71854 0.86919 0.0
C940 C 0.73663 0.69335 0.8536 0.0
C941 C 0.70448 0.69526 0.84082 0.0
C942 C 0.69617 0.77229 0.88828 0.0
C943 C 0.77317 0.66472 0.85034 0.0
H944 H 0.86036 0.76925 0.89157 0.0
H945 H 0.79917 0.67324 0.92191 0.0
H946 H 0.80384 0.7586 0.85172 0.0
H947 H 0.77735 0.79714 0.86473 0.0
H948 H 0.8335 0.79564 0.86468 0.0
H949 H 0.73794 0.64074 0.91202 0.0
H950 H 0.70325 0.67786 0.90171 0.0
H951 H 0.72998 0.64081 0.88802 0.0
H952 H 0.64104 0.76593 0.86109 0.0
H953 H 0.70648 0.67631 0.8288 0.0
H954 H 0.72268 0.79447 0.88856 0.0
H955 H 0.69805 0.75326 0.90069 0.0
H956 H 0.66666 0.79035 0.88854 0.0
H957 H 0.80217 0.68326 0.84907 0.0
H958 H 0.76927 0.64576 0.83796 0.0
H959 H 0.77731 0.64343 0.86194 0.0
C960 C 0.69406 0.20385 0.09096 0.0
C961 C 0.72102 0.16989 0.0933 0.0
C962 C 0.69218 0.23605 0.10372 0.0
C963 C 0.71828 0.23452 0.11904 0.0
C964 C 0.74529 0.20015 0.12155 0.0
C965 C 0.74613 0.16813 0.10872 0.0
C966 C 0.66256 0.27191 0.10071 0.0
C967 C 0.77395 0.1976 0.13762 0.0
C968 C 0.74632 0.33566 0.14261 0.0
C969 C 0.72119 0.33393 0.15801 0.0
C970 C 0.74542 0.30367 0.12976 0.0
C971 C 0.7183 0.26938 0.13223 0.0
C972 C 0.69215 0.2679 0.14754 0.0
C973 C 0.69411 0.30005 0.16031 0.0
C974 C 0.77412 0.30617 0.11372 0.0
C975 C 0.66242 0.23212 0.15051 0.0
H976 H 0.6744 0.20534 0.07914 0.0
H977 H 0.76717 0.14209 0.1106 0.0
H978 H 0.64182 0.27564 0.11252 0.0
H979 H 0.68038 0.30131 0.09923 0.0
H980 H 0.64301 0.26752 0.08854 0.0
H981 H 0.79268 0.16851 0.13772 0.0
H982 H 0.79553 0.22459 0.13763 0.0
H983 H 0.7556 0.19913 0.15023 0.0
H984 H 0.76745 0.36163 0.14076 0.0
H985 H 0.67442 0.2986 0.17213 0.0
H986 H 0.75581 0.30466 0.10109 0.0
H987 H 0.79566 0.27914 0.11373 0.0
H988 H 0.79291 0.33522 0.11363 0.0
H989 H 0.64172 0.22845 0.13867 0.0
H990 H 0.64282 0.23657 0.16267 0.0
H991 H 0.68015 0.20267 0.15201 0.0
C992 C 0.9809 0.91019 0.31221 0.0
C993 C 0.9483 0.90421 0.2999 0.0
C994 C 0.00163 0.94863 0.31342 0.0
C995 C 0.98941 0.98186 0.30209 0.0
C996 C 0.95575 0.97638 0.29002 0.0
C997 C 0.93565 0.93766 0.28907 0.0
C998 C 0.03735 0.95331 0.32647 0.0
C999 C 0.94168 0.01111 0.27774 0.0
C1000 C 0.02118 0.09352 0.31216 0.0
C1001 C 0.05399 0.09947 0.29996 0.0
C1002 C 1.00051 0.05506 0.31335 0.0
C1003 C 0.01301 0.02175 0.30211 0.0
C1004 C 0.04691 0.02718 0.29018 0.0
C1005 C 0.06694 0.06595 0.28923 0.0
C1006 C 0.96451 0.05043 0.32625 0.0
C1007 C 0.0613 0.99237 0.27802 0.0
H1008 H 0.99089 0.88456 0.32065 0.0
H1009 H 0.9104 0.93344 0.27956 0.0
H1010 H 0.06671 0.95866 0.31895 0.0
H1011 H 0.03232 0.98083 0.33521 0.0
H1012 H 0.04137 0.92537 0.3351 0.0
H1013 H 0.91371 0.00249 0.26978 0.0
H1014 H 0.93445 0.03942 0.2857 0.0
H1015 H 0.96716 0.01931 0.26831 0.0
H1016 H 0.01096 0.11921 0.32051 0.0
H1017 H 0.09236 0.07014 0.27982 0.0
H1018 H 0.96936 0.02295 0.33504 0.0
H1019 H 0.93532 0.04505 0.31861 0.0
H1020 H 0.96032 0.07841 0.33484 0.0
H1021 H 0.06833 0.96412 0.28605 0.0
H1022 H 0.08947 1.00094 0.27018 0.0
H1023 H 0.03606 0.9841 0.26847 0.0
C1024 C 0.93746 0.0677 0.71276 0.0
C1025 C 0.90399 0.05497 0.70194 0.0
C1026 C 0.9762 0.04759 0.71183 0.0
C1027 C 0.98166 0.01385 0.69982 0.0
C1028 C 0.94841 0.00155 0.6885 0.0
C1029 C 0.90997 0.02228 0.68968 0.0
C1030 C 0.01096 0.06176 0.72408 0.0
C1031 C 0.95308 0.96573 0.67552 0.0
C1032 C 0.09328 0.98191 0.6897 0.0
C1033 C 0.09925 0.94914 0.70192 0.0
C1034 C 0.05484 0.00264 0.68853 0.0
C1035 C 0.02157 0.99025 0.69981 0.0
C1036 C 0.02703 0.95643 0.71178 0.0
C1037 C 0.06577 0.93633 0.7127 0.0
C1038 C 0.05018 0.03856 0.67559 0.0
C1039 C 0.99225 0.94217 0.72399 0.0
H1040 H 0.93324 0.09301 0.72222 0.0
H1041 H 0.88432 0.01223 0.68126 0.0
H1042 H 0.01918 0.03636 0.73355 0.0
H1043 H 0.03926 0.06892 0.71611 0.0
H1044 H 0.00235 0.08979 0.732 0.0
H1045 H 0.92511 0.96162 0.6669 0.0
H1046 H 0.98057 0.97071 0.66675 0.0
H1047 H 0.95848 0.93645 0.68308 0.0
H1048 H 0.11894 0.99203 0.68131 0.0
H1049 H 0.06998 0.91095 0.72213 0.0
H1050 H 0.04478 0.06778 0.68319 0.0
H1051 H 0.02269 0.03365 0.6668 0.0
H1052 H 0.07816 0.04272 0.66699 0.0
H1053 H 0.98402 0.96749 0.7335 0.0
H1054 H 1.00085 0.91407 0.73188 0.0
H1055 H 0.96396 0.93506 0.71599 0.0
C1056 C 0.06654 0.4372 0.96237 0.0
C1057 C 0.05361 0.40374 0.9516 0.0
C1058 C 0.04651 0.47597 0.96146 0.0
C1059 C 0.01262 0.48146 0.94951 0.0
C1060 C 1.00013 0.44822 0.93824 0.0
C1061 C 0.0208 0.40974 0.9394 0.0
C1062 C 0.06089 0.51071 0.97366 0.0
C1063 C 0.96415 0.45293 0.92533 0.0
C1064 C 0.93545 0.56566 0.96264 0.0
C1065 C 0.94821 0.59915 0.95185 0.0
C1066 C 0.95542 0.52687 0.96163 0.0
C1067 C 0.98907 0.52139 0.94956 0.0
C1068 C 1.00138 0.55466 0.93827 0.0
C1069 C 0.98078 0.59315 0.93954 0.0
C1070 C 0.94125 0.49209 0.97385 0.0
C1071 C 0.03709 0.54996 0.92523 0.0
H1072 H 0.09196 0.43296 0.97178 0.0
H1073 H 0.01059 0.38409 0.93102 0.0
H1074 H 0.06798 0.53899 0.96566 0.0
H1075 H 0.03563 0.51897 0.98319 0.0
H1076 H 0.08903 0.50208 0.98151 0.0
H1077 H 0.95995 0.42499 0.91671 0.0
H1078 H 0.93495 0.4583 0.93296 0.0
H1079 H 0.96902 0.48044 0.91656 0.0
H1080 H 0.91022 0.56989 0.97214 0.0
H1081 H 0.99085 0.61882 0.93114 0.0
H1082 H 0.96668 0.4838 0.9833 0.0
H1083 H 0.93401 0.46384 0.96586 0.0
H1084 H 0.91326 0.50071 0.9818 0.0
H1085 H 0.06644 0.54455 0.93275 0.0
H1086 H 0.04114 0.57793 0.91662 0.0
H1087 H 0.03202 0.52248 0.91647 0.0
C1088 C 0.43636 0.93648 0.03946 0.0
C1089 C 0.40292 0.94945 0.05024 0.0
C1090 C 0.47515 0.9565 0.04035 0.0
C1091 C 0.48069 0.99039 0.05228 0.0
C1092 C 0.44747 0.00294 0.06355 0.0
C1093 C 0.40897 0.98229 0.06241 0.0
C1094 C 0.50987 0.94206 0.02815 0.0
C1095 C 0.45223 0.03894 0.07644 0.0
C1096 C 0.59243 0.02213 0.06229 0.0
C1097 C 0.59847 0.05468 0.04997 0.0
C1098 C 0.55391 0.00155 0.06354 0.0
C1099 C 0.52066 0.01388 0.05223 0.0
C1100 C 0.52619 0.0475 0.04016 0.0
C1101 C 0.565 0.06745 0.03917 0.0
C1102 C 0.54917 0.96586 0.07658 0.0
C1103 C 0.49144 0.06169 0.02791 0.0
H1104 H 0.43208 0.91105 0.03007 0.0
H1105 H 0.38335 0.99253 0.0708 0.0
H1106 H 0.51816 0.9673 0.01862 0.0
H1107 H 0.53815 0.93493 0.03615 0.0
H1108 H 0.50119 0.91394 0.0203 0.0
H1109 H 0.42427 0.04323 0.08504 0.0
H1110 H 0.47972 0.03402 0.08523 0.0
H1111 H 0.45769 0.0681 0.0688 0.0
H1112 H 0.61808 0.01205 0.07071 0.0
H1113 H 0.56927 0.09267 0.02966 0.0
H1114 H 0.54369 0.93653 0.06906 0.0
H1115 H 0.52169 0.97098 0.08535 0.0
H1116 H 0.57714 0.96176 0.0852 0.0
H1117 H 0.48312 0.03627 0.01847 0.0
H1118 H 0.5001 0.08965 0.01996 0.0
H1119 H 0.46318 0.06898 0.03589 0.0
C1120 C 0.43588 0.43768 0.78909 0.0
C1121 C 0.4489 0.40419 0.79982 0.0
C1122 C 0.45602 0.47641 0.78996 0.0
C1123 C 0.4901 0.48181 0.80181 0.0
C1124 C 0.50273 0.44851 0.81302 0.0
C1125 C 0.48194 0.4101 0.81192 0.0
C1126 C 0.4415 0.51122 0.77783 0.0
C1127 C 0.53893 0.45311 0.82583 0.0
C1128 C 0.56725 0.56609 0.78873 0.0
C1129 C 0.55469 0.59943 0.79965 0.0
C1130 C 0.54717 0.52734 0.78965 0.0
C1131 C 0.51365 0.52174 0.80177 0.0
C1132 C 0.50152 0.55486 0.81318 0.0
C1133 C 0.52221 0.59332 0.812 0.0
C1134 C 0.56114 0.49272 0.7773 0.0
C1135 C 0.46593 0.55004 0.82627 0.0
H1136 H 0.4103 0.43351 0.77976 0.0
H1137 H 0.49223 0.38442 0.82027 0.0
H1138 H 0.4345 0.53945 0.78587 0.0
H1139 H 0.46665 0.51954 0.76825 0.0
H1140 H 0.41327 0.50263 0.77002 0.0
H1141 H 0.54335 0.42507 0.83436 0.0
H1142 H 0.56799 0.45865 0.81811 0.0
H1143 H 0.53416 0.4805 0.83468 0.0
H1144 H 0.59239 0.57042 0.77919 0.0
H1145 H 0.51229 0.61886 0.8205 0.0
H1146 H 0.53557 0.48456 0.76791 0.0
H1147 H 0.5685 0.46437 0.7852 0.0
H1148 H 0.58901 0.50144 0.76929 0.0
H1149 H 0.43652 0.54461 0.8188 0.0
H1150 H 0.4619 0.57795 0.83492 0.0
H1151 H 0.47114 0.52253 0.835 0.0
C1152 C 0.59302 0.48207 0.18944 0.0
C1153 C 0.599 0.44914 0.20158 0.0
C1154 C 0.55454 0.50277 0.18831 0.0
C1155 C 0.52127 0.49016 0.19955 0.0
C1156 C 0.52674 0.45615 0.21142 0.0
C1157 C 0.5655 0.4361 0.2123 0.0
C1158 C 0.54987 0.53889 0.17548 0.0
C1159 C 0.49195 0.44164 0.22357 0.0
C1160 C 0.43717 0.56731 0.21281 0.0
C1161 C 0.40367 0.55476 0.20198 0.0
C1162 C 0.47592 0.54726 0.21178 0.0
C1163 C 0.48137 0.51376 0.19964 0.0
C1164 C 0.44808 0.50166 0.18831 0.0
C1165 C 0.40962 0.52233 0.18959 0.0
C1166 C 0.51071 0.56122 0.22406 0.0
C1167 C 0.45273 0.46609 0.17519 0.0
H1168 H 0.61869 0.49236 0.18109 0.0
H1169 H 0.56973 0.41058 0.22166 0.0
H1170 H 0.52234 0.53415 0.1667 0.0
H1171 H 0.54454 0.568 0.18318 0.0
H1172 H 0.57782 0.54316 0.16688 0.0
H1173 H 0.50055 0.41339 0.23135 0.0
H1174 H 0.48373 0.46677 0.23317 0.0
H1175 H 0.46366 0.43471 0.21554 0.0
H1176 H 0.43297 0.59243 0.22237 0.0
H1177 H 0.38395 0.51241 0.18115 0.0
H1178 H 0.53899 0.56852 0.21609 0.0
H1179 H 0.51896 0.53566 0.23344 0.0
H1180 H 0.50212 0.58911 0.23208 0.0
H1181 H 0.48023 0.47123 0.16644 0.0
H1182 H 0.42475 0.46218 0.16656 0.0
H1183 H 0.45811 0.43666 0.18264 0.0
C1184 C 0.43564 0.06625 0.4625 0.0
C1185 C 0.44861 0.09975 0.45176 0.0
C1186 C 0.45568 0.02749 0.46158 0.0
C1187 C 0.48962 0.02203 0.44967 0.0
C1188 C 0.50217 0.05531 0.43843 0.0
C1189 C 0.48149 0.09378 0.4396 0.0
C1190 C 0.44124 0.9927 0.47374 0.0
C1191 C 0.53821 0.05065 0.42556 0.0
C1192 C 0.56678 0.93772 0.46271 0.0
C1193 C 0.55408 0.90433 0.45185 0.0
C1194 C 0.54677 0.9765 0.46177 0.0
C1195 C 0.51314 0.98208 0.44969 0.0
C1196 C 0.50087 0.94891 0.43833 0.0
C1197 C 0.5215 0.91042 0.43953 0.0
C1198 C 0.5609 0.01117 0.47406 0.0
C1199 C 0.46517 0.95371 0.42528 0.0
H1200 H 0.41018 0.07047 0.47189 0.0
H1201 H 0.49173 0.11945 0.43124 0.0
H1202 H 0.43415 0.96447 0.46571 0.0
H1203 H 0.46647 0.98437 0.48328 0.0
H1204 H 0.41309 0.00131 0.48158 0.0
H1205 H 0.5425 0.07865 0.41699 0.0
H1206 H 0.56736 0.04516 0.43321 0.0
H1207 H 0.53333 0.02322 0.41674 0.0
H1208 H 0.59201 0.93341 0.47221 0.0
H1209 H 0.51147 0.88484 0.43108 0.0
H1210 H 0.53543 0.0194 0.48349 0.0
H1211 H 0.5682 0.03948 0.46612 0.0
H1212 H 0.58885 0.00247 0.48203 0.0
H1213 H 0.43582 0.95914 0.4328 0.0
H1214 H 0.46108 0.92579 0.41665 0.0
H1215 H 0.4703 0.98122 0.41654 0.0
C1216 C 0.90964 0.48205 0.56216 0.0
C1217 C 0.90369 0.4492 0.54998 0.0
C1218 C 0.94813 0.50272 0.56334 0.0
C1219 C 0.98143 0.49016 0.55212 0.0
C1220 C 0.97599 0.45624 0.54019 0.0
C1221 C 0.93721 0.43622 0.53926 0.0
C1222 C 0.95278 0.53874 0.57623 0.0
C1223 C 0.01081 0.4418 0.52805 0.0
C1224 C 0.06571 0.56735 0.53911 0.0
C1225 C 0.09912 0.55466 0.54998 0.0
C1226 C 0.02695 0.54731 0.54004 0.0
C1227 C 0.02138 0.51369 0.55211 0.0
C1228 C 0.05456 0.50144 0.56347 0.0
C1229 C 0.09304 0.5221 0.56229 0.0
C1230 C 0.99227 0.56142 0.52774 0.0
C1231 C 0.04977 0.46575 0.57652 0.0
H1232 H 0.88395 0.4923 0.57051 0.0
H1233 H 0.933 0.41077 0.52986 0.0
H1234 H 0.98021 0.53386 0.58505 0.0
H1235 H 0.95826 0.56789 0.56858 0.0
H1236 H 0.92476 0.54302 0.58479 0.0
H1237 H 0.0022 0.41365 0.5202 0.0
H1238 H 0.01913 0.46701 0.51851 0.0
H1239 H 0.03904 0.43472 0.53609 0.0
H1240 H 0.07001 0.59257 0.52961 0.0
H1241 H 0.11864 0.51208 0.57075 0.0
H1242 H 0.96394 0.5687 0.53567 0.0
H1243 H 0.98405 0.53594 0.5183 0.0
H1244 H 1.00096 0.58936 0.51977 0.0
H1245 H 0.02225 0.47085 0.58525 0.0
H1246 H 0.0777 0.46168 0.58516 0.0
H1247 H 0.04436 0.4364 0.569 0.0
loop_
_geom_bond_atom_site_label_1
_geom_bond_atom_site_label_2
_geom_bond_distance
_geom_bond_site_symmetry_2
_ccdc_geom_bond_type
C0 O2 1.247 . S
C0 O4 1.258 . S
C1 O8 1.247 . S
C1 O9 1.258 . S
O2 C0 1.247 . S
O2 Zn3 2.028 . S
Zn3 O2 2.028 . S
Zn3 O7 2.035 . S
Zn3 O9 2.035 . S
Zn3 O10 2.028 . S
O4 C0 1.258 . S
O4 Zn5 2.035 . S
Zn5 O4 2.035 . S
Zn5 O6 2.028 . S
Zn5 O8 2.028 . S
Zn5 O11 2.035 . S
O6 Zn5 2.028 . S
O6 C12 1.247 . S
O7 Zn3 2.035 . S
O7 C12 1.258 . S
O8 C1 1.247 . S
O8 Zn5 2.028 . S
O9 C1 1.258 . S
O9 Zn3 2.035 . S
O10 Zn3 2.028 . S
O10 C13 1.247 . S
O11 Zn5 2.035 . S
O11 C13 1.258 . S
C12 O6 1.247 . S
C12 O7 1.258 . S
C13 O10 1.247 . S
C13 O11 1.258 . S
C14 O16 1.247 . S
C14 O18 1.258 . S
C15 O22 1.247 . S
C15 O23 1.258 . S
O16 C14 1.247 . S
O16 Zn17 2.028 . S
Zn17 O16 2.028 . S
Zn17 O21 2.035 . S
Zn17 O23 2.035 . S
Zn17 O24 2.028 . S
O18 C14 1.258 . S
O18 Zn19 2.035 . S
Zn19 O18 2.035 . S
Zn19 O20 2.028 . S
Zn19 O22 2.028 . S
Zn19 O25 2.035 . S
O20 Zn19 2.028 . S
O20 C26 1.247 . S
O21 Zn17 2.035 . S
O21 C26 1.258 . S
O22 C15 1.247 . S
O22 Zn19 2.028 . S
O23 C15 1.258 . S
O23 Zn17 2.035 . S
O24 Zn17 2.028 . S
O24 C27 1.247 . S
O25 Zn19 2.035 . S
O25 C27 1.258 . S
C26 O20 1.247 . S
C26 O21 1.258 . S
C27 O24 1.247 . S
C27 O25 1.258 . S
C28 O30 1.247 . S
C28 O32 1.258 . S
C29 O36 1.247 . S
C29 O37 1.258 . S
O30 C28 1.247 . S
O30 Zn31 2.028 . S
Zn31 O30 2.028 . S
Zn31 O35 2.035 . S
Zn31 O37 2.035 . S
Zn31 O38 2.028 . S
O32 C28 1.258 . S
O32 Zn33 2.035 . S
Zn33 O32 2.035 . S
Zn33 O34 2.028 . S
Zn33 O36 2.028 . S
Zn33 O39 2.035 . S
O34 Zn33 2.028 . S
O34 C40 1.247 . S
O35 Zn31 2.035 . S
O35 C40 1.258 . S
O36 C29 1.247 . S
O36 Zn33 2.028 . S
O37 C29 1.258 . S
O37 Zn31 2.035 . S
O38 Zn31 2.028 . S
O38 C41 1.247 . S
O39 Zn33 2.035 . S
O39 C41 1.258 . S
C40 O34 1.247 . S
C40 O35 1.258 . S
C41 O38 1.247 . S
C41 O39 1.258 . S
C42 O44 1.247 . S
C42 O46 1.258 . S
C43 O50 1.247 . S
C43 O51 1.258 . S
O44 C42 1.247 . S
O44 Zn45 2.028 . S
Zn45 O44 2.028 . S
Zn45 O49 2.035 . S
Zn45 O51 2.035 . S
Zn45 O52 2.028 . S
O46 C42 1.258 . S
O46 Zn47 2.035 . S
Zn47 O46 2.035 . S
Zn47 O48 2.028 . S
Zn47 O50 2.028 . S
Zn47 O53 2.035 . S
O48 Zn47 2.028 . S
O48 C54 1.247 . S
O49 Zn45 2.035 . S
O49 C54 1.258 . S
O50 C43 1.247 . S
O50 Zn47 2.028 . S
O51 C43 1.258 . S
O51 Zn45 2.035 . S
O52 Zn45 2.028 . S
O52 C55 1.247 . S
O53 Zn47 2.035 . S
O53 C55 1.258 . S
C54 O48 1.247 . S
C54 O49 1.258 . S
C55 O52 1.247 . S
C55 O53 1.258 . S
C56 O58 1.247 . S
C56 O60 1.258 . S
C57 O64 1.247 . S
C57 O65 1.258 . S
O58 C56 1.247 . S
O58 Zn59 2.028 . S
Zn59 O58 2.028 . S
Zn59 O63 2.035 . S
Zn59 O65 2.035 . S
Zn59 O66 2.028 . S
O60 C56 1.258 . S
O60 Zn61 2.035 . S
Zn61 O60 2.035 . S
Zn61 O62 2.028 . S
Zn61 O64 2.028 . S
Zn61 O67 2.035 . S
O62 Zn61 2.028 . S
O62 C68 1.247 . S
O63 Zn59 2.035 . S
O63 C68 1.258 . S
O64 C57 1.247 . S
O64 Zn61 2.028 . S
O65 C57 1.258 . S
O65 Zn59 2.035 . S
O66 Zn59 2.028 . S
O66 C69 1.247 . S
O67 Zn61 2.035 . S
O67 C69 1.258 . S
C68 O62 1.247 . S
C68 O63 1.258 . S
C69 O66 1.247 . S
C69 O67 1.258 . S
C70 O72 1.247 . S
C70 O74 1.258 . S
C71 O78 1.247 . S
C71 O79 1.258 . S
O72 C70 1.247 . S
O72 Zn73 2.028 . S
Zn73 O72 2.028 . S
Zn73 O77 2.035 . S
Zn73 O79 2.035 . S
Zn73 O80 2.028 . S
O74 C70 1.258 . S
O74 Zn75 2.035 . S
Zn75 O74 2.035 . S
Zn75 O76 2.028 . S
Zn75 O78 2.028 . S
Zn75 O81 2.035 . S
O76 Zn75 2.028 . S
O76 C82 1.247 . S
O77 Zn73 2.035 . S
O77 C82 1.258 . S
O78 C71 1.247 . S
O78 Zn75 2.028 . S
O79 C71 1.258 . S
O79 Zn73 2.035 . S
O80 Zn73 2.028 . S
O80 C83 1.247 . S
O81 Zn75 2.035 . S
O81 C83 1.258 . S
C82 O76 1.247 . S
C82 O77 1.258 . S
C83 O80 1.247 . S
C83 O81 1.258 . S
C84 O86 1.247 . S
C84 O88 1.258 . S
C85 O92 1.247 . S
C85 O93 1.258 . S
O86 C84 1.247 . S
O86 Zn87 2.028 . S
Zn87 O86 2.028 . S
Zn87 O91 2.035 . S
Zn87 O93 2.035 . S
Zn87 O94 2.028 . S
O88 C84 1.258 . S
O88 Zn89 2.035 . S
Zn89 O88 2.035 . S
Zn89 O90 2.028 . S
Zn89 O92 2.028 . S
Zn89 O95 2.035 . S
O90 Zn89 2.028 . S
O90 C96 1.247 . S
O91 Zn87 2.035 . S
O91 C96 1.258 . S
O92 C85 1.247 . S
O92 Zn89 2.028 . S
O93 C85 1.258 . S
O93 Zn87 2.035 . S
O94 Zn87 2.028 . S
O94 C97 1.247 . S
O95 Zn89 2.035 . S
O95 C97 1.258 . S
C96 O90 1.247 . S
C96 O91 1.258 . S
C97 O94 1.247 . S
C97 O95 1.258 . S
C98 O100 1.247 . S
C98 O102 1.258 . S
C99 O106 1.247 . S
C99 O107 1.258 . S
O100 C98 1.247 . S
O100 Zn101 2.028 . S
Zn101 O100 2.028 . S
Zn101 O105 2.035 . S
Zn101 O107 2.035 . S
Zn101 O108 2.028 . S
O102 C98 1.258 . S
O102 Zn103 2.035 . S
Zn103 O102 2.035 . S
Zn103 O104 2.028 . S
Zn103 O106 2.028 . S
Zn103 O109 2.035 . S
O104 Zn103 2.028 . S
O104 C110 1.247 . S
O105 Zn101 2.035 . S
O105 C110 1.258 . S
O106 C99 1.247 . S
O106 Zn103 2.028 . S
O107 C99 1.258 . S
O107 Zn101 2.035 . S
O108 Zn101 2.028 . S
O108 C111 1.247 . S
O109 Zn103 2.035 . S
O109 C111 1.258 . S
C110 O104 1.247 . S
C110 O105 1.258 . S
C111 O108 1.247 . S
C111 O109 1.258 . S
C112 O114 1.247 . S
C112 O116 1.258 . S
C113 O120 1.247 . S
C113 O121 1.258 . S
O114 C112 1.247 . S
O114 Zn115 2.028 . S
Zn115 O114 2.028 . S
Zn115 O119 2.035 . S
Zn115 O121 2.035 . S
Zn115 O122 2.028 . S
O116 C112 1.258 . S
O116 Zn117 2.035 . S
Zn117 O116 2.035 . S
Zn117 O118 2.028 . S
Zn117 O120 2.028 . S
Zn117 O123 2.035 . S
O118 Zn117 2.028 . S
O118 C124 1.247 . S
O119 Zn115 2.035 . S
O119 C124 1.258 . S
O120 C113 1.247 . S
O120 Zn117 2.028 . S
O121 C113 1.258 . S
O121 Zn115 2.035 . S
O122 Zn115 2.028 . S
O122 C125 1.247 . S
O123 Zn117 2.035 . S
O123 C125 1.258 . S
C124 O118 1.247 . S
C124 O119 1.258 . S
C125 O122 1.247 . S
C125 O123 1.258 . S
C126 O128 1.247 . S
C126 O130 1.258 . S
C127 O134 1.247 . S
C127 O135 1.258 . S
O128 C126 1.247 . S
O128 Zn129 2.028 . S
Zn129 O128 2.028 . S
Zn129 O133 2.035 . S
Zn129 O135 2.035 . S
Zn129 O136 2.028 . S
O130 C126 1.258 . S
O130 Zn131 2.035 . S
Zn131 O130 2.035 . S
Zn131 O132 2.028 . S
Zn131 O134 2.028 . S
Zn131 O137 2.035 . S
O132 Zn131 2.028 . S
O132 C138 1.247 . S
O133 Zn129 2.035 . S
O133 C138 1.258 . S
O134 C127 1.247 . S
O134 Zn131 2.028 . S
O135 C127 1.258 . S
O135 Zn129 2.035 . S
O136 Zn129 2.028 . S
O136 C139 1.247 . S
O137 Zn131 2.035 . S
O137 C139 1.258 . S
C138 O132 1.247 . S
C138 O133 1.258 . S
C139 O136 1.247 . S
C139 O137 1.258 . S
C140 O142 1.247 . S
C140 O144 1.258 . S
C141 O148 1.247 . S
C141 O149 1.258 . S
O142 C140 1.247 . S
O142 Zn143 2.028 . S
Zn143 O142 2.028 . S
Zn143 O147 2.035 . S
Zn143 O149 2.035 . S
Zn143 O150 2.028 . S
O144 C140 1.258 . S
O144 Zn145 2.035 . S
Zn145 O144 2.035 . S
Zn145 O146 2.028 . S
Zn145 O148 2.028 . S
Zn145 O151 2.035 . S
O146 Zn145 2.028 . S
O146 C152 1.247 . S
O147 Zn143 2.035 . S
O147 C152 1.258 . S
O148 C141 1.247 . S
O148 Zn145 2.028 . S
O149 C141 1.258 . S
O149 Zn143 2.035 . S
O150 Zn143 2.028 . S
O150 C153 1.247 . S
O151 Zn145 2.035 . S
O151 C153 1.258 . S
C152 O146 1.247 . S
C152 O147 1.258 . S
C153 O150 1.247 . S
C153 O151 1.258 . S
C154 O156 1.247 . S
C154 O158 1.258 . S
C155 O162 1.247 . S
C155 O163 1.258 . S
O156 C154 1.247 . S
O156 Zn157 2.028 . S
Zn157 O156 2.028 . S
Zn157 O161 2.035 . S
Zn157 O163 2.035 . S
Zn157 O164 2.028 . S
O158 C154 1.258 . S
O158 Zn159 2.035 . S
Zn159 O158 2.035 . S
Zn159 O160 2.028 . S
Zn159 O162 2.028 . S
Zn159 O165 2.035 . S
O160 Zn159 2.028 . S
O160 C166 1.247 . S
O161 Zn157 2.035 . S
O161 C166 1.258 . S
O162 C155 1.247 . S
O162 Zn159 2.028 . S
O163 C155 1.258 . S
O163 Zn157 2.035 . S
O164 Zn157 2.028 . S
O164 C167 1.247 . S
O165 Zn159 2.035 . S
O165 C167 1.258 . S
C166 O160 1.247 . S
C166 O161 1.258 . S
C167 O164 1.247 . S
C167 O165 1.258 . S
C168 O170 1.247 . S
C168 O172 1.258 . S
C169 O176 1.247 . S
C169 O177 1.258 . S
O170 C168 1.247 . S
O170 Zn171 2.028 . S
Zn171 O170 2.028 . S
Zn171 O175 2.035 . S
Zn171 O177 2.035 . S
Zn171 O178 2.028 . S
O172 C168 1.258 . S
O172 Zn173 2.035 . S
Zn173 O172 2.035 . S
Zn173 O174 2.028 . S
Zn173 O176 2.028 . S
Zn173 O179 2.035 . S
O174 Zn173 2.028 . S
O174 C180 1.247 . S
O175 Zn171 2.035 . S
O175 C180 1.258 . S
O176 C169 1.247 . S
O176 Zn173 2.028 . S
O177 C169 1.258 . S
O177 Zn171 2.035 . S
O178 Zn171 2.028 . S
O178 C181 1.247 . S
O179 Zn173 2.035 . S
O179 C181 1.258 . S
C180 O174 1.247 . S
C180 O175 1.258 . S
C181 O178 1.247 . S
C181 O179 1.258 . S
C182 O184 1.247 . S
C182 O186 1.258 . S
C183 O190 1.247 . S
C183 O191 1.258 . S
O184 C182 1.247 . S
O184 Zn185 2.028 . S
Zn185 O184 2.028 . S
Zn185 O189 2.035 . S
Zn185 O191 2.035 . S
Zn185 O192 2.028 . S
O186 C182 1.258 . S
O186 Zn187 2.035 . S
Zn187 O186 2.035 . S
Zn187 O188 2.028 . S
Zn187 O190 2.028 . S
Zn187 O193 2.035 . S
O188 Zn187 2.028 . S
O188 C194 1.247 . S
O189 Zn185 2.035 . S
O189 C194 1.258 . S
O190 C183 1.247 . S
O190 Zn187 2.028 . S
O191 C183 1.258 . S
O191 Zn185 2.035 . S
O192 Zn185 2.028 . S
O192 C195 1.247 . S
O193 Zn187 2.035 . S
O193 C195 1.258 . S
C194 O188 1.247 . S
C194 O189 1.258 . S
C195 O192 1.247 . S
C195 O193 1.258 . S
C196 O198 1.247 . S
C196 O200 1.258 . S
C197 O204 1.247 . S
C197 O205 1.258 . S
O198 C196 1.247 . S
O198 Zn199 2.028 . S
Zn199 O198 2.028 . S
Zn199 O203 2.035 . S
Zn199 O205 2.035 . S
Zn199 O206 2.028 . S
O200 C196 1.258 . S
O200 Zn201 2.035 . S
Zn201 O200 2.035 . S
Zn201 O202 2.028 . S
Zn201 O204 2.028 . S
Zn201 O207 2.035 . S
O202 Zn201 2.028 . S
O202 C208 1.247 . S
O203 Zn199 2.035 . S
O203 C208 1.258 . S
O204 C197 1.247 . S
O204 Zn201 2.028 . S
O205 C197 1.258 . S
O205 Zn199 2.035 . S
O206 Zn199 2.028 . S
O206 C209 1.247 . S
O207 Zn201 2.035 . S
O207 C209 1.258 . S
C208 O202 1.247 . S
C208 O203 1.258 . S
C209 O206 1.247 . S
C209 O207 1.258 . S
C210 O212 1.247 . S
C210 O214 1.258 . S
C211 O218 1.247 . S
C211 O219 1.258 . S
O212 C210 1.247 . S
O212 Zn213 2.028 . S
Zn213 O212 2.028 . S
Zn213 O217 2.035 . S
Zn213 O219 2.035 . S
Zn213 O220 2.028 . S
O214 C210 1.258 . S
O214 Zn215 2.035 . S
Zn215 O214 2.035 . S
Zn215 O216 2.028 . S
Zn215 O218 2.028 . S
Zn215 O221 2.035 . S
O216 Zn215 2.028 . S
O216 C222 1.247 . S
O217 Zn213 2.035 . S
O217 C222 1.258 . S
O218 C211 1.247 . S
O218 Zn215 2.028 . S
O219 C211 1.258 . S
O219 Zn213 2.035 . S
O220 Zn213 2.028 . S
O220 C223 1.247 . S
O221 Zn215 2.035 . S
O221 C223 1.258 . S
C222 O216 1.247 . S
C222 O217 1.258 . S
C223 O220 1.247 . S
C223 O221 1.258 . S
C224 C225 1.391 . S
C224 C226 1.394 . S
C224 H240 0.931 . S
C225 C224 1.391 . S
C225 C229 1.376 . S
C226 C224 1.394 . S
C226 C227 1.369 . S
C226 C230 1.531 . S
C227 C226 1.369 . S
C227 C228 1.410 . S
C227 C235 1.503 . S
C228 C227 1.410 . S
C228 C229 1.392 . S
C228 C231 1.511 . S
C229 C225 1.376 . S
C229 C228 1.392 . S
C229 H241 0.929 . S
C230 C226 1.531 . S
C230 H242 0.960 . S
C230 H243 0.962 . S
C230 H244 0.960 . S
C231 C228 1.511 . S
C231 H245 0.961 . S
C231 H246 0.961 . S
C231 H247 0.961 . S
C232 C233 1.370 . S
C232 C234 1.363 . S
C232 H248 0.931 . S
C233 C232 1.370 . S
C233 C237 1.408 . S
C234 C232 1.363 . S
C234 C235 1.370 . S
C234 C238 1.524 . S
C235 C227 1.503 . S
C235 C234 1.370 . S
C235 C236 1.403 . S
C236 C235 1.403 . S
C236 C237 1.404 . S
C236 C239 1.539 . S
C237 C233 1.408 . S
C237 C236 1.404 . S
C237 H249 0.930 . S
C238 C234 1.524 . S
C238 H250 0.956 . S
C238 H251 0.961 . S
C238 H252 0.961 . S
C239 C236 1.539 . S
C239 H253 0.958 . S
C239 H254 0.961 . S
C239 H255 0.960 . S
H240 C224 0.931 . S
H241 C229 0.929 . S
H242 C230 0.960 . S
H243 C230 0.962 . S
H244 C230 0.960 . S
H245 C231 0.961 . S
H246 C231 0.961 . S
H247 C231 0.961 . S
H248 C232 0.931 . S
H249 C237 0.930 . S
H250 C238 0.956 . S
H251 C238 0.961 . S
H252 C238 0.961 . S
H253 C239 0.958 . S
H254 C239 0.961 . S
H255 C239 0.960 . S
C256 C257 1.391 . S
C256 C258 1.394 . S
C256 H272 0.931 . S
C257 C256 1.391 . S
C257 C261 1.376 . S
C258 C256 1.394 . S
C258 C259 1.369 . S
C258 C262 1.531 . S
C259 C258 1.369 . S
C259 C260 1.410 . S
C259 C267 1.503 . S
C260 C259 1.410 . S
C260 C261 1.392 . S
C260 C263 1.511 . S
C261 C257 1.376 . S
C261 C260 1.392 . S
C261 H273 0.929 . S
C262 C258 1.531 . S
C262 H274 0.960 . S
C262 H275 0.962 . S
C262 H276 0.960 . S
C263 C260 1.511 . S
C263 H277 0.961 . S
C263 H278 0.961 . S
C263 H279 0.961 . S
C264 C265 1.370 . S
C264 C266 1.363 . S
C264 H280 0.931 . S
C265 C264 1.370 . S
C265 C269 1.408 . S
C266 C264 1.363 . S
C266 C267 1.370 . S
C266 C270 1.524 . S
C267 C259 1.503 . S
C267 C266 1.370 . S
C267 C268 1.403 . S
C268 C267 1.403 . S
C268 C269 1.404 . S
C268 C271 1.539 . S
C269 C265 1.408 . S
C269 C268 1.404 . S
C269 H281 0.930 . S
C270 C266 1.524 . S
C270 H282 0.956 . S
C270 H283 0.961 . S
C270 H284 0.961 . S
C271 C268 1.539 . S
C271 H285 0.958 . S
C271 H286 0.961 . S
C271 H287 0.960 . S
H272 C256 0.931 . S
H273 C261 0.929 . S
H274 C262 0.960 . S
H275 C262 0.962 . S
H276 C262 0.960 . S
H277 C263 0.961 . S
H278 C263 0.961 . S
H279 C263 0.961 . S
H280 C264 0.931 . S
H281 C269 0.930 . S
H282 C270 0.956 . S
H283 C270 0.961 . S
H284 C270 0.961 . S
H285 C271 0.958 . S
H286 C271 0.961 . S
H287 C271 0.960 . S
C288 C289 1.391 . S
C288 C290 1.394 . S
C288 H304 0.931 . S
C289 C288 1.391 . S
C289 C293 1.376 . S
C290 C288 1.394 . S
C290 C291 1.369 . S
C290 C294 1.531 . S
C291 C290 1.369 . S
C291 C292 1.410 . S
C291 C299 1.503 . S
C292 C291 1.410 . S
C292 C293 1.392 . S
C292 C295 1.511 . S
C293 C289 1.376 . S
C293 C292 1.392 . S
C293 H305 0.929 . S
C294 C290 1.531 . S
C294 H306 0.960 . S
C294 H307 0.962 . S
C294 H308 0.960 . S
C295 C292 1.511 . S
C295 H309 0.961 . S
C295 H310 0.961 . S
C295 H311 0.961 . S
C296 C297 1.370 . S
C296 C298 1.363 . S
C296 H312 0.931 . S
C297 C296 1.370 . S
C297 C301 1.408 . S
C298 C296 1.363 . S
C298 C299 1.370 . S
C298 C302 1.524 . S
C299 C291 1.503 . S
C299 C298 1.370 . S
C299 C300 1.403 . S
C300 C299 1.403 . S
C300 C301 1.404 . S
C300 C303 1.539 . S
C301 C297 1.408 . S
C301 C300 1.404 . S
C301 H313 0.930 . S
C302 C298 1.524 . S
C302 H314 0.956 . S
C302 H315 0.961 . S
C302 H316 0.961 . S
C303 C300 1.539 . S
C303 H317 0.958 . S
C303 H318 0.961 . S
C303 H319 0.960 . S
H304 C288 0.931 . S
H305 C293 0.929 . S
H306 C294 0.960 . S
H307 C294 0.962 . S
H308 C294 0.960 . S
H309 C295 0.961 . S
H310 C295 0.961 . S
H311 C295 0.961 . S
H312 C296 0.931 . S
H313 C301 0.930 . S
H314 C302 0.956 . S
H315 C302 0.961 . S
H316 C302 0.961 . S
H317 C303 0.958 . S
H318 C303 0.961 . S
H319 C303 0.960 . S
C320 C321 1.391 . S
C320 C322 1.394 . S
C320 H336 0.931 . S
C321 C320 1.391 . S
C321 C325 1.376 . S
C322 C320 1.394 . S
C322 C323 1.369 . S
C322 C326 1.531 . S
C323 C322 1.369 . S
C323 C324 1.410 . S
C323 C331 1.503 . S
C324 C323 1.410 . S
C324 C325 1.392 . S
C324 C327 1.511 . S
C325 C321 1.376 . S
C325 C324 1.392 . S
C325 H337 0.929 . S
C326 C322 1.531 . S
C326 H338 0.960 . S
C326 H339 0.962 . S
C326 H340 0.960 . S
C327 C324 1.511 . S
C327 H341 0.961 . S
C327 H342 0.961 . S
C327 H343 0.961 . S
C328 C329 1.370 . S
C328 C330 1.363 . S
C328 H344 0.931 . S
C329 C328 1.370 . S
C329 C333 1.408 . S
C330 C328 1.363 . S
C330 C331 1.370 . S
C330 C334 1.524 . S
C331 C323 1.503 . S
C331 C330 1.370 . S
C331 C332 1.403 . S
C332 C331 1.403 . S
C332 C333 1.404 . S
C332 C335 1.539 . S
C333 C329 1.408 . S
C333 C332 1.404 . S
C333 H345 0.930 . S
C334 C330 1.524 . S
C334 H346 0.956 . S
C334 H347 0.961 . S
C334 H348 0.961 . S
C335 C332 1.539 . S
C335 H349 0.958 . S
C335 H350 0.961 . S
C335 H351 0.960 . S
H336 C320 0.931 . S
H337 C325 0.929 . S
H338 C326 0.960 . S
H339 C326 0.962 . S
H340 C326 0.960 . S
H341 C327 0.961 . S
H342 C327 0.961 . S
H343 C327 0.961 . S
H344 C328 0.931 . S
H345 C333 0.930 . S
H346 C334 0.956 . S
H347 C334 0.961 . S
H348 C334 0.961 . S
H349 C335 0.958 . S
H350 C335 0.961 . S
H351 C335 0.960 . S
C352 C353 1.391 . S
C352 C354 1.394 . S
C352 H368 0.931 1_545 S
C353 C352 1.391 . S
C353 C357 1.376 . S
C354 C352 1.394 . S
C354 C355 1.369 . S
C354 C358 1.531 . S
C355 C354 1.369 . S
C355 C356 1.410 . S
C355 C363 1.503 1_554 S
C356 C355 1.410 . S
C356 C357 1.392 . S
C356 C359 1.511 1_554 S
C357 C353 1.376 . S
C357 C356 1.392 . S
C357 H369 0.929 . S
C358 C354 1.531 . S
C358 H370 0.960 . S
C358 H371 0.962 1_554 S
C358 H372 0.960 . S
C359 C356 1.511 1_556 S
C359 H373 0.961 . S
C359 H374 0.961 . S
C359 H375 0.961 1_556 S
C360 C361 1.370 . S
C360 C362 1.363 . S
C360 H376 0.931 . S
C361 C360 1.370 . S
C361 C365 1.408 . S
C362 C360 1.363 . S
C362 C363 1.370 . S
C362 C366 1.524 . S
C363 C355 1.503 1_556 S
C363 C362 1.370 . S
C363 C364 1.403 . S
C364 C363 1.403 . S
C364 C365 1.404 . S
C364 C367 1.539 1_556 S
C365 C361 1.408 . S
C365 C364 1.404 . S
C365 H377 0.930 . S
C366 C362 1.524 . S
C366 H378 0.956 . S
C366 H379 0.961 . S
C366 H380 0.961 . S
C367 C364 1.539 1_554 S
C367 H381 0.958 . S
C367 H382 0.961 . S
C367 H383 0.960 . S
H368 C352 0.931 1_565 S
H369 C357 0.929 . S
H370 C358 0.960 . S
H371 C358 0.962 1_556 S
H372 C358 0.960 . S
H373 C359 0.961 . S
H374 C359 0.961 . S
H375 C359 0.961 1_554 S
H376 C360 0.931 . S
H377 C365 0.930 . S
H378 C366 0.956 . S
H379 C366 0.961 . S
H380 C366 0.961 . S
H381 C367 0.958 . S
H382 C367 0.961 . S
H383 C367 0.960 . S
C384 C385 1.391 . S
C384 C386 1.394 . S
C384 H400 0.931 . S
C385 C384 1.391 . S
C385 C389 1.376 . S
C386 C384 1.394 . S
C386 C387 1.369 . S
C386 C390 1.560 . S
C387 C386 1.369 . S
C387 C388 1.410 . S
C387 C395 1.503 . S
C388 C387 1.410 . S
C388 C389 1.392 . S
C388 C391 1.511 . S
C389 C385 1.376 . S
C389 C388 1.392 . S
C389 H401 0.929 . S
C390 C386 1.560 . S
C390 H402 0.962 . S
C390 H403 0.916 1_554 S
C390 H404 0.977 . S
C391 C388 1.511 . S
C391 H405 0.961 . S
C391 H406 0.961 . S
C391 H407 0.961 . S
C392 C393 1.370 . S
C392 C394 1.363 . S
C392 H408 0.931 . S
C393 C392 1.370 . S
C393 C397 1.408 1_556 S
C394 C392 1.363 . S
C394 C395 1.370 1_556 S
C394 C398 1.524 . S
C395 C387 1.503 . S
C395 C394 1.370 1_554 S
C395 C396 1.403 . S
C396 C395 1.403 . S
C396 C397 1.404 . S
C396 C399 1.539 . S
C397 C393 1.408 1_554 S
C397 C396 1.404 . S
C397 H409 0.930 . S
C398 C394 1.524 . S
C398 H410 0.956 . S
C398 H411 0.961 . S
C398 H412 0.961 . S
C399 C396 1.539 . S
C399 H413 0.958 . S
C399 H414 0.961 . S
C399 H415 0.960 . S
H400 C384 0.931 . S
H401 C389 0.929 . S
H402 C390 0.962 . S
H403 C390 0.916 1_556 S
H404 C390 0.977 . S
H405 C391 0.961 . S
H406 C391 0.961 . S
H407 C391 0.961 . S
H408 C392 0.931 . S
H409 C397 0.930 . S
H410 C398 0.956 . S
H411 C398 0.961 . S
H412 C398 0.961 . S
H413 C399 0.958 . S
H414 C399 0.961 . S
H415 C399 0.960 . S
C416 C417 1.391 . S
C416 C418 1.394 . S
C416 H432 0.931 . S
C417 C416 1.391 . S
C417 C421 1.376 . S
C418 C416 1.394 . S
C418 C419 1.369 . S
C418 C422 1.531 . S
C419 C418 1.369 . S
C419 C420 1.410 . S
C419 C427 1.503 . S
C420 C419 1.410 . S
C420 C421 1.392 . S
C420 C423 1.511 1_556 S
C421 C417 1.376 . S
C421 C420 1.392 . S
C421 H433 0.929 . S
C422 C418 1.531 . S
C422 H434 0.960 . S
C422 H435 0.962 . S
C422 H436 0.960 . S
C423 C420 1.511 1_554 S
C423 H437 0.961 . S
C423 H438 0.961 . S
C423 H439 0.961 . S
C424 C425 1.370 . S
C424 C426 1.363 . S
C424 H440 0.940 . S
C425 C424 1.370 . S
C425 C429 1.408 . S
C426 C424 1.363 . S
C426 C427 1.370 1_554 S
C426 C430 1.524 . S
C427 C419 1.503 . S
C427 C426 1.370 1_556 S
C427 C428 1.403 . S
C428 C427 1.403 . S
C428 C429 1.404 1_556 S
C428 C431 1.539 . S
C429 C425 1.408 . S
C429 C428 1.404 1_554 S
C429 H441 0.930 . S
C430 C426 1.524 . S
C430 H442 0.956 1_554 S
C430 H443 0.961 . S
C430 H444 0.961 . S
C431 C428 1.539 . S
C431 H445 0.958 . S
C431 H446 0.961 . S
C431 H447 0.960 . S
H432 C416 0.931 . S
H433 C421 0.929 . S
H434 C422 0.960 . S
H435 C422 0.962 . S
H436 C422 0.960 . S
H437 C423 0.961 . S
H438 C423 0.961 . S
H439 C423 0.961 . S
H440 C424 0.940 . S
H441 C429 0.930 . S
H442 C430 0.956 1_556 S
H443 C430 0.961 . S
H444 C430 0.961 . S
H445 C431 0.958 . S
H446 C431 0.961 . S
H447 C431 0.960 . S
C448 C449 1.391 . S
C448 C450 1.394 . S
C448 H464 0.931 . S
C449 C448 1.391 . S
C449 C453 1.376 . S
C450 C448 1.394 . S
C450 C451 1.369 . S
C450 C454 1.531 . S
C451 C450 1.369 . S
C451 C452 1.410 . S
C451 C459 1.503 . S
C452 C451 1.410 . S
C452 C453 1.392 . S
C452 C455 1.511 1_554 S
C453 C449 1.376 . S
C453 C452 1.392 . S
C453 H465 0.929 . S
C454 C450 1.531 . S
C454 H466 0.960 . S
C454 H467 0.962 . S
C454 H468 0.960 . S
C455 C452 1.511 1_556 S
C455 H469 0.961 . S
C455 H470 0.961 . S
C455 H471 0.961 . S
C456 C457 1.370 . S
C456 C458 1.363 1_556 S
C456 H472 0.931 . S
C457 C456 1.370 . S
C457 C461 1.408 . S
C458 C456 1.363 1_554 S
C458 C459 1.370 . S
C458 C462 1.524 . S
C459 C451 1.503 . S
C459 C458 1.370 . S
C459 C460 1.403 1_554 S
C460 C459 1.403 1_556 S
C460 C461 1.404 . S
C460 C463 1.539 . S
C461 C457 1.408 . S
C461 C460 1.404 . S
C461 H473 0.930 1_655 S
C462 C458 1.524 . S
C462 H474 0.956 . S
C462 H475 0.961 . S
C462 H476 0.961 . S
C463 C460 1.539 . S
C463 H477 0.958 . S
C463 H478 0.961 . S
C463 H479 0.960 . S
H464 C448 0.931 . S
H465 C453 0.929 . S
H466 C454 0.960 . S
H467 C454 0.962 . S
H468 C454 0.960 . S
H469 C455 0.961 . S
H470 C455 0.961 . S
H471 C455 0.961 . S
H472 C456 0.931 . S
H473 C461 0.930 1_455 S
H474 C462 0.956 . S
H475 C462 0.961 . S
H476 C462 0.961 . S
H477 C463 0.958 . S
H478 C463 0.961 . S
H479 C463 0.960 . S
C480 C481 1.391 . S
C480 C482 1.394 . S
C480 H496 0.931 . S
C481 C480 1.391 . S
C481 C485 1.376 . S
C482 C480 1.394 . S
C482 C483 1.369 . S
C482 C486 1.531 . S
C483 C482 1.369 . S
C483 C484 1.410 . S
C483 C491 1.503 . S
C484 C483 1.410 . S
C484 C485 1.392 . S
C484 C487 1.511 . S
C485 C481 1.376 . S
C485 C484 1.392 . S
C485 H497 0.929 . S
C486 C482 1.531 . S
C486 H498 0.960 . S
C486 H499 0.962 . S
C486 H500 0.960 . S
C487 C484 1.511 . S
C487 H501 0.961 . S
C487 H502 0.961 . S
C487 H503 0.961 . S
C488 C489 1.370 . S
C488 C490 1.363 . S
C488 H504 0.931 1_565 S
C489 C488 1.370 . S
C489 C493 1.408 . S
C490 C488 1.363 . S
C490 C491 1.370 . S
C490 C494 1.524 . S
C491 C483 1.503 . S
C491 C490 1.370 . S
C491 C492 1.403 . S
C492 C491 1.403 . S
C492 C493 1.404 . S
C492 C495 1.539 . S
C493 C489 1.408 . S
C493 C492 1.404 . S
C493 H505 0.930 . S
C494 C490 1.524 . S
C494 H506 0.956 . S
C494 H507 0.961 . S
C494 H508 0.961 . S
C495 C492 1.539 . S
C495 H509 0.958 . S
C495 H510 0.961 . S
C495 H511 0.960 . S
H496 C480 0.931 . S
H497 C485 0.929 . S
H498 C486 0.960 . S
H499 C486 0.962 . S
H500 C486 0.960 . S
H501 C487 0.961 . S
H502 C487 0.961 . S
H503 C487 0.961 . S
H504 C488 0.931 1_545 S
H505 C493 0.930 . S
H506 C494 0.956 . S
H507 C494 0.961 . S
H508 C494 0.961 . S
H509 C495 0.958 . S
H510 C495 0.961 . S
H511 C495 0.960 . S
C512 C513 1.391 . S
C512 C514 1.394 . S
C512 H528 0.931 . S
C513 C512 1.391 . S
C513 C517 1.376 . S
C514 C512 1.394 . S
C514 C515 1.369 . S
C514 C518 1.531 . S
C515 C514 1.369 . S
C515 C516 1.410 . S
C515 C523 1.503 . S
C516 C515 1.410 . S
C516 C517 1.392 . S
C516 C519 1.511 . S
C517 C513 1.376 . S
C517 C516 1.392 . S
C517 H529 0.929 1_655 S
C518 C514 1.531 . S
C518 H530 0.960 . S
C518 H531 0.962 . S
C518 H532 0.960 . S
C519 C516 1.511 . S
C519 H533 0.961 . S
C519 H534 0.961 . S
C519 H535 0.961 . S
C520 C521 1.370 . S
C520 C522 1.363 . S
C520 H536 0.931 . S
C521 C520 1.370 . S
C521 C525 1.408 . S
C522 C520 1.363 . S
C522 C523 1.370 . S
C522 C526 1.524 . S
C523 C515 1.503 . S
C523 C522 1.370 . S
C523 C524 1.403 . S
C524 C523 1.403 . S
C524 C525 1.404 . S
C524 C527 1.539 . S
C525 C521 1.408 . S
C525 C524 1.404 . S
C525 H537 0.930 . S
C526 C522 1.524 . S
C526 H538 0.956 . S
C526 H539 0.961 . S
C526 H540 0.961 . S
C527 C524 1.539 . S
C527 H541 0.958 . S
C527 H542 0.961 . S
C527 H543 0.960 . S
H528 C512 0.931 . S
H529 C517 0.929 1_455 S
H530 C518 0.960 . S
H531 C518 0.962 . S
H532 C518 0.960 . S
H533 C519 0.961 . S
H534 C519 0.961 . S
H535 C519 0.961 . S
H536 C520 0.931 . S
H537 C525 0.930 . S
H538 C526 0.956 . S
H539 C526 0.961 . S
H540 C526 0.961 . S
H541 C527 0.958 . S
H542 C527 0.961 . S
H543 C527 0.960 . S
C544 C545 1.391 . S
C544 C546 1.394 . S
C544 H560 0.931 . S
C545 C544 1.391 . S
C545 C549 1.376 . S
C546 C544 1.394 . S
C546 C547 1.369 . S
C546 C550 1.531 . S
C547 C546 1.369 . S
C547 C548 1.410 . S
C547 C555 1.503 . S
C548 C547 1.410 . S
C548 C549 1.392 . S
C548 C551 1.511 . S
C549 C545 1.376 . S
C549 C548 1.392 . S
C549 H561 0.929 1_545 S
C550 C546 1.531 . S
C550 H562 0.960 . S
C550 H563 0.962 . S
C550 H564 0.960 . S
C551 C548 1.511 . S
C551 H565 0.961 . S
C551 H566 0.961 . S
C551 H567 0.961 . S
C552 C553 1.370 . S
C552 C554 1.363 . S
C552 H568 0.931 . S
C553 C552 1.370 . S
C553 C557 1.408 . S
C554 C552 1.363 . S
C554 C555 1.370 . S
C554 C558 1.524 . S
C555 C547 1.503 . S
C555 C554 1.370 . S
C555 C556 1.403 . S
C556 C555 1.403 . S
C556 C557 1.404 . S
C556 C559 1.539 . S
C557 C553 1.408 . S
C557 C556 1.404 . S
C557 H569 0.930 . S
C558 C554 1.524 . S
C558 H570 0.956 . S
C558 H571 0.961 . S
C558 H572 0.961 . S
C559 C556 1.539 . S
C559 H573 0.958 . S
C559 H574 0.961 . S
C559 H575 0.960 . S
H560 C544 0.931 . S
H561 C549 0.929 1_565 S
H562 C550 0.960 . S
H563 C550 0.962 . S
H564 C550 0.960 . S
H565 C551 0.961 . S
H566 C551 0.961 . S
H567 C551 0.961 . S
H568 C552 0.931 . S
H569 C557 0.930 . S
H570 C558 0.956 . S
H571 C558 0.961 . S
H572 C558 0.961 . S
H573 C559 0.958 . S
H574 C559 0.961 . S
H575 C559 0.960 . S
C576 C577 1.392 . S
C576 C578 1.395 . S
C576 H592 0.929 1_455 S
C577 C576 1.392 . S
C577 C581 1.376 . S
C578 C576 1.395 . S
C578 C579 1.369 . S
C578 C582 1.531 . S
C579 C578 1.369 . S
C579 C580 1.410 . S
C579 C587 1.503 . S
C580 C579 1.410 . S
C580 C581 1.392 . S
C580 C583 1.511 . S
C581 C577 1.376 . S
C581 C580 1.392 . S
C581 H593 0.929 . S
C582 C578 1.531 . S
C582 H594 0.960 . S
C582 H595 0.962 . S
C582 H596 0.960 1_455 S
C583 C580 1.511 . S
C583 H597 0.961 . S
C583 H598 0.961 . S
C583 H599 0.961 . S
C584 C585 1.370 . S
C584 C586 1.363 . S
C584 H600 0.931 . S
C585 C584 1.370 . S
C585 C589 1.408 . S
C586 C584 1.363 . S
C586 C587 1.370 . S
C586 C590 1.524 . S
C587 C579 1.503 . S
C587 C586 1.370 . S
C587 C588 1.403 . S
C588 C587 1.403 . S
C588 C589 1.404 . S
C588 C591 1.539 . S
C589 C585 1.408 . S
C589 C588 1.404 . S
C589 H601 0.930 . S
C590 C586 1.524 . S
C590 H602 0.956 . S
C590 H603 0.961 . S
C590 H604 0.961 . S
C591 C588 1.539 . S
C591 H605 0.958 . S
C591 H606 0.961 . S
C591 H607 0.960 . S
H592 C576 0.929 1_655 S
H593 C581 0.929 . S
H594 C582 0.960 . S
H595 C582 0.962 . S
H596 C582 0.960 1_655 S
H597 C583 0.961 . S
H598 C583 0.961 . S
H599 C583 0.961 . S
H600 C584 0.931 . S
H601 C589 0.930 . S
H602 C590 0.956 . S
H603 C590 0.961 . S
H604 C590 0.961 . S
H605 C591 0.958 . S
H606 C591 0.961 . S
H607 C591 0.960 . S
C608 C609 1.391 . S
C608 C610 1.394 . S
C608 H624 0.931 . S
C609 C608 1.391 . S
C609 C613 1.376 . S
C610 C608 1.394 . S
C610 C611 1.369 . S
C610 C614 1.531 . S
C611 C610 1.369 . S
C611 C612 1.410 . S
C611 C619 1.503 . S
C612 C611 1.410 . S
C612 C613 1.392 . S
C612 C615 1.511 . S
C613 C609 1.376 . S
C613 C612 1.392 . S
C613 H625 0.929 . S
C614 C610 1.531 . S
C614 H626 0.960 . S
C614 H627 0.962 . S
C614 H628 0.960 . S
C615 C612 1.511 . S
C615 H629 0.961 . S
C615 H630 0.961 . S
C615 H631 0.961 . S
C616 C617 1.370 . S
C616 C618 1.363 . S
C616 H632 0.931 . S
C617 C616 1.370 . S
C617 C621 1.408 . S
C618 C616 1.363 . S
C618 C619 1.370 . S
C618 C622 1.524 . S
C619 C611 1.503 . S
C619 C618 1.370 . S
C619 C620 1.403 . S
C620 C619 1.403 . S
C620 C621 1.404 . S
C620 C623 1.539 . S
C621 C617 1.408 . S
C621 C620 1.404 . S
C621 H633 0.930 . S
C622 C618 1.524 . S
C622 H634 0.956 . S
C622 H635 0.961 . S
C622 H636 0.961 . S
C623 C620 1.539 . S
C623 H637 0.958 . S
C623 H638 0.961 . S
C623 H639 0.960 . S
H624 C608 0.931 . S
H625 C613 0.929 . S
H626 C614 0.960 . S
H627 C614 0.962 . S
H628 C614 0.960 . S
H629 C615 0.961 . S
H630 C615 0.961 . S
H631 C615 0.961 . S
H632 C616 0.931 . S
H633 C621 0.930 . S
H634 C622 0.956 . S
H635 C622 0.961 . S
H636 C622 0.961 . S
H637 C623 0.958 . S
H638 C623 0.961 . S
H639 C623 0.960 . S
C640 C641 1.391 . S
C640 C642 1.394 . S
C640 H656 0.931 . S
C641 C640 1.391 . S
C641 C645 1.376 . S
C642 C640 1.394 . S
C642 C643 1.369 . S
C642 C646 1.531 . S
C643 C642 1.369 . S
C643 C644 1.410 . S
C643 C651 1.503 . S
C644 C643 1.410 . S
C644 C645 1.392 . S
C644 C647 1.511 . S
C645 C641 1.376 . S
C645 C644 1.392 . S
C645 H657 0.929 . S
C646 C642 1.531 . S
C646 H658 0.960 . S
C646 H659 0.962 . S
C646 H660 0.960 . S
C647 C644 1.511 . S
C647 H661 0.961 . S
C647 H662 0.961 . S
C647 H663 0.961 . S
C648 C649 1.370 . S
C648 C650 1.363 . S
C648 H664 0.931 . S
C649 C648 1.370 . S
C649 C653 1.408 . S
C650 C648 1.363 . S
C650 C651 1.370 . S
C650 C654 1.524 . S
C651 C643 1.503 . S
C651 C650 1.370 . S
C651 C652 1.403 . S
C652 C651 1.403 . S
C652 C653 1.404 . S
C652 C655 1.539 . S
C653 C649 1.408 . S
C653 C652 1.404 . S
C653 H665 0.930 . S
C654 C650 1.524 . S
C654 H666 0.956 . S
C654 H667 0.961 . S
C654 H668 0.961 . S
C655 C652 1.539 . S
C655 H669 0.958 . S
C655 H670 0.961 . S
C655 H671 0.960 . S
H656 C640 0.931 . S
H657 C645 0.929 . S
H658 C646 0.960 . S
H659 C646 0.962 . S
H660 C646 0.960 . S
H661 C647 0.961 . S
H662 C647 0.961 . S
H663 C647 0.961 . S
H664 C648 0.931 . S
H665 C653 0.930 . S
H666 C654 0.956 . S
H667 C654 0.961 . S
H668 C654 0.961 . S
H669 C655 0.958 . S
H670 C655 0.961 . S
H671 C655 0.960 . S
C672 C673 1.391 . S
C672 C674 1.394 . S
C672 H688 0.931 . S
C673 C672 1.391 . S
C673 C677 1.376 . S
C674 C672 1.394 . S
C674 C675 1.369 . S
C674 C678 1.531 . S
C675 C674 1.369 . S
C675 C676 1.410 . S
C675 C683 1.503 . S
C676 C675 1.410 . S
C676 C677 1.392 . S
C676 C679 1.511 . S
C677 C673 1.376 . S
C677 C676 1.392 . S
C677 H689 0.929 . S
C678 C674 1.531 . S
C678 H690 0.960 . S
C678 H691 0.962 . S
C678 H692 0.960 . S
C679 C676 1.511 . S
C679 H693 0.961 . S
C679 H694 0.961 . S
C679 H695 0.961 . S
C680 C681 1.370 . S
C680 C682 1.363 . S
C680 H696 0.931 . S
C681 C680 1.370 . S
C681 C685 1.408 . S
C682 C680 1.363 . S
C682 C683 1.370 . S
C682 C686 1.524 . S
C683 C675 1.503 . S
C683 C682 1.370 . S
C683 C684 1.403 . S
C684 C683 1.403 . S
C684 C685 1.404 . S
C684 C687 1.539 . S
C685 C681 1.408 . S
C685 C684 1.404 . S
C685 H697 0.930 . S
C686 C682 1.524 . S
C686 H698 0.956 . S
C686 H699 0.961 . S
C686 H700 0.961 . S
C687 C684 1.539 . S
C687 H701 0.958 . S
C687 H702 0.961 . S
C687 H703 0.960 . S
H688 C672 0.931 . S
H689 C677 0.929 . S
H690 C678 0.960 . S
H691 C678 0.962 . S
H692 C678 0.960 . S
H693 C679 0.961 . S
H694 C679 0.961 . S
H695 C679 0.961 . S
H696 C680 0.931 . S
H697 C685 0.930 . S
H698 C686 0.956 . S
H699 C686 0.961 . S
H700 C686 0.961 . S
H701 C687 0.958 . S
H702 C687 0.961 . S
H703 C687 0.960 . S
C704 C705 1.391 . S
C704 C706 1.394 . S
C704 H720 0.931 . S
C705 C704 1.391 . S
C705 C709 1.376 . S
C706 C704 1.394 . S
C706 C707 1.369 . S
C706 C710 1.531 . S
C707 C706 1.369 . S
C707 C708 1.410 . S
C707 C715 1.503 . S
C708 C707 1.410 . S
C708 C709 1.392 . S
C708 C711 1.511 . S
C709 C705 1.376 . S
C709 C708 1.392 . S
C709 H721 0.929 . S
C710 C706 1.531 . S
C710 H722 0.960 . S
C710 H723 0.962 . S
C710 H724 0.960 . S
C711 C708 1.511 . S
C711 H725 0.961 . S
C711 H726 0.961 . S
C711 H727 0.961 . S
C712 C713 1.370 . S
C712 C714 1.363 . S
C712 H728 0.931 . S
C713 C712 1.370 . S
C713 C717 1.408 . S
C714 C712 1.363 . S
C714 C715 1.370 . S
C714 C718 1.524 . S
C715 C707 1.503 . S
C715 C714 1.370 . S
C715 C716 1.403 . S
C716 C715 1.403 . S
C716 C717 1.404 . S
C716 C719 1.539 . S
C717 C713 1.408 . S
C717 C716 1.404 . S
C717 H729 0.930 . S
C718 C714 1.524 . S
C718 H730 0.956 . S
C718 H731 0.961 . S
C718 H732 0.961 . S
C719 C716 1.539 . S
C719 H733 0.958 . S
C719 H734 0.961 . S
C719 H735 0.960 . S
H720 C704 0.931 . S
H721 C709 0.929 . S
H722 C710 0.960 . S
H723 C710 0.962 . S
H724 C710 0.960 . S
H725 C711 0.961 . S
H726 C711 0.961 . S
H727 C711 0.961 . S
H728 C712 0.931 . S
H729 C717 0.930 . S
H730 C718 0.956 . S
H731 C718 0.961 . S
H732 C718 0.961 . S
H733 C719 0.958 . S
H734 C719 0.961 . S
H735 C719 0.960 . S
C736 C737 1.391 . S
C736 C738 1.394 . S
C736 H752 0.931 . S
C737 C736 1.391 . S
C737 C741 1.376 . S
C738 C736 1.394 . S
C738 C739 1.369 . S
C738 C742 1.531 . S
C739 C738 1.369 . S
C739 C740 1.410 . S
C739 C747 1.503 . S
C740 C739 1.410 . S
C740 C741 1.392 . S
C740 C743 1.511 . S
C741 C737 1.376 . S
C741 C740 1.392 . S
C741 H753 0.929 . S
C742 C738 1.531 . S
C742 H754 0.960 . S
C742 H755 0.962 . S
C742 H756 0.960 . S
C743 C740 1.511 . S
C743 H757 0.961 . S
C743 H758 0.961 . S
C743 H759 0.961 . S
C744 C745 1.370 . S
C744 C746 1.363 . S
C744 H760 0.931 . S
C745 C744 1.370 . S
C745 C749 1.408 . S
C746 C744 1.363 . S
C746 C747 1.370 . S
C746 C750 1.524 . S
C747 C739 1.503 . S
C747 C746 1.370 . S
C747 C748 1.403 . S
C748 C747 1.403 . S
C748 C749 1.404 . S
C748 C751 1.539 . S
C749 C745 1.408 . S
C749 C748 1.404 . S
C749 H761 0.930 . S
C750 C746 1.524 . S
C750 H762 0.956 . S
C750 H763 0.961 . S
C750 H764 0.961 . S
C751 C748 1.539 . S
C751 H765 0.958 . S
C751 H766 0.961 . S
C751 H767 0.960 . S
H752 C736 0.931 . S
H753 C741 0.929 . S
H754 C742 0.960 . S
H755 C742 0.962 . S
H756 C742 0.960 . S
H757 C743 0.961 . S
H758 C743 0.961 . S
H759 C743 0.961 . S
H760 C744 0.931 . S
H761 C749 0.930 . S
H762 C750 0.956 . S
H763 C750 0.961 . S
H764 C750 0.961 . S
H765 C751 0.958 . S
H766 C751 0.961 . S
H767 C751 0.960 . S
C768 C769 1.391 . S
C768 C770 1.394 . S
C768 H784 0.931 . S
C769 C768 1.391 . S
C769 C773 1.376 . S
C770 C768 1.394 . S
C770 C771 1.369 . S
C770 C774 1.531 . S
C771 C770 1.369 . S
C771 C772 1.410 . S
C771 C779 1.503 . S
C772 C771 1.410 . S
C772 C773 1.392 . S
C772 C775 1.511 . S
C773 C769 1.376 . S
C773 C772 1.392 . S
C773 H785 0.929 . S
C774 C770 1.531 . S
C774 H786 0.960 . S
C774 H787 0.962 . S
C774 H788 0.960 . S
C775 C772 1.511 . S
C775 H789 0.961 . S
C775 H790 0.961 . S
C775 H791 0.961 . S
C776 C777 1.370 . S
C776 C778 1.363 . S
C776 H792 0.931 . S
C777 C776 1.370 . S
C777 C781 1.408 . S
C778 C776 1.363 . S
C778 C779 1.370 . S
C778 C782 1.524 . S
C779 C771 1.503 . S
C779 C778 1.370 . S
C779 C780 1.403 . S
C780 C779 1.403 . S
C780 C781 1.404 . S
C780 C783 1.539 . S
C781 C777 1.408 . S
C781 C780 1.404 . S
C781 H793 0.930 . S
C782 C778 1.524 . S
C782 H794 0.956 . S
C782 H795 0.961 . S
C782 H796 0.961 . S
C783 C780 1.539 . S
C783 H797 0.958 . S
C783 H798 0.961 . S
C783 H799 0.960 . S
H784 C768 0.931 . S
H785 C773 0.929 . S
H786 C774 0.960 . S
H787 C774 0.962 . S
H788 C774 0.960 . S
H789 C775 0.961 . S
H790 C775 0.961 . S
H791 C775 0.961 . S
H792 C776 0.931 . S
H793 C781 0.930 . S
H794 C782 0.956 . S
H795 C782 0.961 . S
H796 C782 0.961 . S
H797 C783 0.958 . S
H798 C783 0.961 . S
H799 C783 0.960 . S
C800 C801 1.391 . S
C800 C802 1.394 . S
C800 H816 0.931 . S
C801 C800 1.391 . S
C801 C805 1.376 . S
C802 C800 1.394 . S
C802 C803 1.369 . S
C802 C806 1.531 . S
C803 C802 1.369 . S
C803 C804 1.410 . S
C803 C811 1.503 . S
C804 C803 1.410 . S
C804 C805 1.392 . S
C804 C807 1.511 . S
C805 C801 1.376 . S
C805 C804 1.392 . S
C805 H817 0.929 . S
C806 C802 1.531 . S
C806 H818 0.960 . S
C806 H819 0.962 . S
C806 H820 0.960 . S
C807 C804 1.511 . S
C807 H821 0.961 . S
C807 H822 0.961 . S
C807 H823 0.961 . S
C808 C809 1.370 . S
C808 C810 1.363 . S
C808 H824 0.931 . S
C809 C808 1.370 . S
C809 C813 1.408 . S
C810 C808 1.363 . S
C810 C811 1.370 . S
C810 C814 1.524 . S
C811 C803 1.503 . S
C811 C810 1.370 . S
C811 C812 1.403 . S
C812 C811 1.403 . S
C812 C813 1.404 . S
C812 C815 1.539 . S
C813 C809 1.408 . S
C813 C812 1.404 . S
C813 H825 0.930 . S
C814 C810 1.524 . S
C814 H826 0.956 . S
C814 H827 0.961 . S
C814 H828 0.961 . S
C815 C812 1.539 . S
C815 H829 0.958 . S
C815 H830 0.961 . S
C815 H831 0.960 . S
H816 C800 0.931 . S
H817 C805 0.929 . S
H818 C806 0.960 . S
H819 C806 0.962 . S
H820 C806 0.960 . S
H821 C807 0.961 . S
H822 C807 0.961 . S
H823 C807 0.961 . S
H824 C808 0.931 . S
H825 C813 0.930 . S
H826 C814 0.956 . S
H827 C814 0.961 . S
H828 C814 0.961 . S
H829 C815 0.958 . S
H830 C815 0.961 . S
H831 C815 0.960 . S
C832 C833 1.391 . S
C832 C834 1.394 . S
C832 H848 0.931 . S
C833 C832 1.391 . S
C833 C837 1.376 . S
C834 C832 1.394 . S
C834 C835 1.369 . S
C834 C838 1.531 . S
C835 C834 1.369 . S
C835 C836 1.410 . S
C835 C843 1.503 . S
C836 C835 1.410 . S
C836 C837 1.392 . S
C836 C839 1.511 . S
C837 C833 1.376 . S
C837 C836 1.392 . S
C837 H849 0.929 . S
C838 C834 1.531 . S
C838 H850 0.960 . S
C838 H851 0.962 . S
C838 H852 0.960 . S
C839 C836 1.511 . S
C839 H853 0.961 . S
C839 H854 0.961 . S
C839 H855 0.961 . S
C840 C841 1.370 . S
C840 C842 1.363 . S
C840 H856 0.931 . S
C841 C840 1.370 . S
C841 C845 1.408 . S
C842 C840 1.363 . S
C842 C843 1.370 . S
C842 C846 1.524 . S
C843 C835 1.503 . S
C843 C842 1.370 . S
C843 C844 1.403 . S
C844 C843 1.403 . S
C844 C845 1.404 . S
C844 C847 1.539 . S
C845 C841 1.408 . S
C845 C844 1.404 . S
C845 H857 0.930 . S
C846 C842 1.524 . S
C846 H858 0.956 . S
C846 H859 0.961 . S
C846 H860 0.961 . S
C847 C844 1.539 . S
C847 H861 0.958 . S
C847 H862 0.961 . S
C847 H863 0.960 . S
H848 C832 0.931 . S
H849 C837 0.929 . S
H850 C838 0.960 . S
H851 C838 0.962 . S
H852 C838 0.960 . S
H853 C839 0.961 . S
H854 C839 0.961 . S
H855 C839 0.961 . S
H856 C840 0.931 . S
H857 C845 0.930 . S
H858 C846 0.956 . S
H859 C846 0.961 . S
H860 C846 0.961 . S
H861 C847 0.958 . S
H862 C847 0.961 . S
H863 C847 0.960 . S
C864 C865 1.391 . S
C864 C866 1.394 . S
C864 H880 0.931 . S
C865 C864 1.391 . S
C865 C869 1.376 . S
C866 C864 1.394 . S
C866 C867 1.369 . S
C866 C870 1.531 . S
C867 C866 1.369 . S
C867 C868 1.410 . S
C867 C875 1.503 . S
C868 C867 1.410 . S
C868 C869 1.392 . S
C868 C871 1.511 . S
C869 C865 1.376 . S
C869 C868 1.392 . S
C869 H881 0.929 . S
C870 C866 1.531 . S
C870 H882 0.960 . S
C870 H883 0.962 . S
C870 H884 0.960 . S
C871 C868 1.511 . S
C871 H885 0.961 . S
C871 H886 0.961 . S
C871 H887 0.961 . S
C872 C873 1.370 . S
C872 C874 1.363 . S
C872 H888 0.931 . S
C873 C872 1.370 . S
C873 C877 1.408 . S
C874 C872 1.363 . S
C874 C875 1.370 . S
C874 C878 1.524 . S
C875 C867 1.503 . S
C875 C874 1.370 . S
C875 C876 1.403 . S
C876 C875 1.403 . S
C876 C877 1.404 . S
C876 C879 1.539 . S
C877 C873 1.408 . S
C877 C876 1.404 . S
C877 H889 0.930 . S
C878 C874 1.524 . S
C878 H890 0.956 . S
C878 H891 0.961 . S
C878 H892 0.961 . S
C879 C876 1.539 . S
C879 H893 0.958 . S
C879 H894 0.961 . S
C879 H895 0.960 . S
H880 C864 0.931 . S
H881 C869 0.929 . S
H882 C870 0.960 . S
H883 C870 0.962 . S
H884 C870 0.960 . S
H885 C871 0.961 . S
H886 C871 0.961 . S
H887 C871 0.961 . S
H888 C872 0.931 . S
H889 C877 0.930 . S
H890 C878 0.956 . S
H891 C878 0.961 . S
H892 C878 0.961 . S
H893 C879 0.958 . S
H894 C879 0.961 . S
H895 C879 0.960 . S
C896 C897 1.391 . S
C896 C898 1.394 . S
C896 H912 0.931 . S
C897 C896 1.391 . S
C897 C901 1.376 . S
C898 C896 1.394 . S
C898 C899 1.369 . S
C898 C902 1.531 . S
C899 C898 1.369 . S
C899 C900 1.410 . S
C899 C907 1.503 . S
C900 C899 1.410 . S
C900 C901 1.392 . S
C900 C903 1.511 . S
C901 C897 1.376 . S
C901 C900 1.392 . S
C901 H913 0.929 . S
C902 C898 1.531 . S
C902 H914 0.960 . S
C902 H915 0.962 . S
C902 H916 0.960 . S
C903 C900 1.511 . S
C903 H917 0.961 . S
C903 H918 0.961 . S
C903 H919 0.961 . S
C904 C905 1.370 . S
C904 C906 1.363 . S
C904 H920 0.931 . S
C905 C904 1.370 . S
C905 C909 1.408 . S
C906 C904 1.363 . S
C906 C907 1.370 . S
C906 C910 1.524 . S
C907 C899 1.503 . S
C907 C906 1.370 . S
C907 C908 1.403 . S
C908 C907 1.403 . S
C908 C909 1.404 . S
C908 C911 1.539 . S
C909 C905 1.408 . S
C909 C908 1.404 . S
C909 H921 0.930 . S
C910 C906 1.524 . S
C910 H922 0.956 . S
C910 H923 0.961 . S
C910 H924 0.961 . S
C911 C908 1.539 . S
C911 H925 0.958 . S
C911 H926 0.961 . S
C911 H927 0.960 . S
H912 C896 0.931 . S
H913 C901 0.929 . S
H914 C902 0.960 . S
H915 C902 0.962 . S
H916 C902 0.960 . S
H917 C903 0.961 . S
H918 C903 0.961 . S
H919 C903 0.961 . S
H920 C904 0.931 . S
H921 C909 0.930 . S
H922 C910 0.956 . S
H923 C910 0.961 . S
H924 C910 0.961 . S
H925 C911 0.958 . S
H926 C911 0.961 . S
H927 C911 0.960 . S
C928 C929 1.391 . S
C928 C930 1.394 . S
C928 H944 0.931 . S
C929 C928 1.391 . S
C929 C933 1.376 . S
C930 C928 1.394 . S
C930 C931 1.369 . S
C930 C934 1.531 . S
C931 C930 1.369 . S
C931 C932 1.410 . S
C931 C939 1.503 . S
C932 C931 1.410 . S
C932 C933 1.392 . S
C932 C935 1.511 . S
C933 C929 1.376 . S
C933 C932 1.392 . S
C933 H945 0.929 . S
C934 C930 1.531 . S
C934 H946 0.960 . S
C934 H947 0.962 . S
C934 H948 0.960 . S
C935 C932 1.511 . S
C935 H949 0.961 . S
C935 H950 0.961 . S
C935 H951 0.961 . S
C936 C937 1.370 . S
C936 C938 1.363 . S
C936 H952 0.931 . S
C937 C936 1.370 . S
C937 C941 1.408 . S
C938 C936 1.363 . S
C938 C939 1.370 . S
C938 C942 1.524 . S
C939 C931 1.503 . S
C939 C938 1.370 . S
C939 C940 1.403 . S
C940 C939 1.403 . S
C940 C941 1.404 . S
C940 C943 1.539 . S
C941 C937 1.408 . S
C941 C940 1.404 . S
C941 H953 0.930 . S
C942 C938 1.524 . S
C942 H954 0.956 . S
C942 H955 0.961 . S
C942 H956 0.961 . S
C943 C940 1.539 . S
C943 H957 0.958 . S
C943 H958 0.961 . S
C943 H959 0.960 . S
H944 C928 0.931 . S
H945 C933 0.929 . S
H946 C934 0.960 . S
H947 C934 0.962 . S
H948 C934 0.960 . S
H949 C935 0.961 . S
H950 C935 0.961 . S
H951 C935 0.961 . S
H952 C936 0.931 . S
H953 C941 0.930 . S
H954 C942 0.956 . S
H955 C942 0.961 . S
H956 C942 0.961 . S
H957 C943 0.958 . S
H958 C943 0.961 . S
H959 C943 0.960 . S
C960 C961 1.391 . S
C960 C962 1.394 . S
C960 H976 0.931 . S
C961 C960 1.391 . S
C961 C965 1.376 . S
C962 C960 1.394 . S
C962 C963 1.369 . S
C962 C966 1.531 . S
C963 C962 1.369 . S
C963 C964 1.410 . S
C963 C971 1.503 . S
C964 C963 1.410 . S
C964 C965 1.392 . S
C964 C967 1.511 . S
C965 C961 1.376 . S
C965 C964 1.392 . S
C965 H977 0.929 . S
C966 C962 1.531 . S
C966 H978 0.960 . S
C966 H979 0.962 . S
C966 H980 0.960 . S
C967 C964 1.511 . S
C967 H981 0.961 . S
C967 H982 0.961 . S
C967 H983 0.961 . S
C968 C969 1.370 . S
C968 C970 1.363 . S
C968 H984 0.931 . S
C969 C968 1.370 . S
C969 C973 1.408 . S
C970 C968 1.363 . S
C970 C971 1.370 . S
C970 C974 1.524 . S
C971 C963 1.503 . S
C971 C970 1.370 . S
C971 C972 1.403 . S
C972 C971 1.403 . S
C972 C973 1.404 . S
C972 C975 1.539 . S
C973 C969 1.408 . S
C973 C972 1.404 . S
C973 H985 0.930 . S
C974 C970 1.524 . S
C974 H986 0.956 . S
C974 H987 0.961 . S
C974 H988 0.961 . S
C975 C972 1.539 . S
C975 H989 0.958 . S
C975 H990 0.961 . S
C975 H991 0.960 . S
H976 C960 0.931 . S
H977 C965 0.929 . S
H978 C966 0.960 . S
H979 C966 0.962 . S
H980 C966 0.960 . S
H981 C967 0.961 . S
H982 C967 0.961 . S
H983 C967 0.961 . S
H984 C968 0.931 . S
H985 C973 0.930 . S
H986 C974 0.956 . S
H987 C974 0.961 . S
H988 C974 0.961 . S
H989 C975 0.958 . S
H990 C975 0.961 . S
H991 C975 0.960 . S
C992 C993 1.391 . S
C992 C994 1.394 . S
C992 H1008 0.931 . S
C993 C992 1.391 . S
C993 C997 1.376 . S
C994 C992 1.394 . S
C994 C995 1.385 . S
C994 C998 1.531 . S
C995 C994 1.385 . S
C995 C996 1.402 1_655 S
C995 C1003 1.497 1_665 S
C996 C995 1.402 1_455 S
C996 C997 1.392 1_455 S
C996 C999 1.511 . S
C997 C993 1.376 . S
C997 C996 1.392 1_655 S
C997 H1009 0.929 1_655 S
C998 C994 1.531 . S
C998 H1010 0.960 1_565 S
C998 H1011 0.962 1_565 S
C998 H1012 0.960 . S
C999 C996 1.511 . S
C999 H1013 0.961 . S
C999 H1014 0.961 . S
C999 H1015 0.961 . S
C1000 C1001 1.370 . S
C1000 C1002 1.363 1_455 S
C1000 H1016 0.931 1_455 S
C1001 C1000 1.370 . S
C1001 C1005 1.408 . S
C1002 C1000 1.363 1_655 S
C1002 C1003 1.370 1_655 S
C1002 C1006 1.524 . S
C1003 C995 1.497 1_445 S
C1003 C1002 1.370 1_455 S
C1003 C1004 1.403 . S
C1004 C1003 1.403 . S
C1004 C1005 1.404 . S
C1004 C1007 1.539 . S
C1005 C1001 1.408 . S
C1005 C1004 1.404 . S
C1005 H1017 0.930 . S
C1006 C1002 1.524 . S
C1006 H1018 0.956 . S
C1006 H1019 0.961 . S
C1006 H1020 0.961 . S
C1007 C1004 1.539 . S
C1007 H1021 0.958 . S
C1007 H1022 0.961 . S
C1007 H1023 0.960 1_545 S
H1008 C992 0.931 . S
H1009 C997 0.929 1_455 S
H1010 C998 0.960 1_545 S
H1011 C998 0.962 1_545 S
H1012 C998 0.960 . S
H1013 C999 0.961 . S
H1014 C999 0.961 . S
H1015 C999 0.961 . S
H1016 C1000 0.931 1_655 S
H1017 C1005 0.930 . S
H1018 C1006 0.956 . S
H1019 C1006 0.961 . S
H1020 C1006 0.961 . S
H1021 C1007 0.958 . S
H1022 C1007 0.961 . S
H1023 C1007 0.960 1_565 S
C1024 C1025 1.391 . S
C1024 C1026 1.394 . S
C1024 H1040 0.931 . S
C1025 C1024 1.391 . S
C1025 C1029 1.376 . S
C1026 C1024 1.394 . S
C1026 C1027 1.365 1_545 S
C1026 C1030 1.531 . S
C1027 C1026 1.365 1_565 S
C1027 C1028 1.411 . S
C1027 C1035 1.505 1_655 S
C1028 C1027 1.411 . S
C1028 C1029 1.392 1_565 S
C1028 C1031 1.511 . S
C1029 C1025 1.376 . S
C1029 C1028 1.392 1_545 S
C1029 H1041 0.929 . S
C1030 C1026 1.531 . S
C1030 H1042 0.960 1_655 S
C1030 H1043 0.962 1_655 S
C1030 H1044 0.960 . S
C1031 C1028 1.511 . S
C1031 H1045 0.961 . S
C1031 H1046 0.961 . S
C1031 H1047 0.961 . S
C1032 C1033 1.355 1_545 S
C1032 C1034 1.368 . S
C1032 H1048 0.941 . S
C1033 C1032 1.355 1_565 S
C1033 C1037 1.408 . S
C1034 C1032 1.368 . S
C1034 C1035 1.370 1_545 S
C1034 C1038 1.524 . S
C1035 C1027 1.505 1_455 S
C1035 C1034 1.370 1_565 S
C1035 C1036 1.403 . S
C1036 C1035 1.403 . S
C1036 C1037 1.404 . S
C1036 C1039 1.529 1_455 S
C1037 C1033 1.408 . S
C1037 C1036 1.404 . S
C1037 H1049 0.930 . S
C1038 C1034 1.524 . S
C1038 H1050 0.956 . S
C1038 H1051 0.961 . S
C1038 H1052 0.961 . S
C1039 C1036 1.529 1_655 S
C1039 H1053 0.960 . S
C1039 H1054 0.957 1_655 S
C1039 H1055 0.973 . S
H1040 C1024 0.931 . S
H1041 C1029 0.929 . S
H1042 C1030 0.960 1_455 S
H1043 C1030 0.962 1_455 S
H1044 C1030 0.960 . S
H1045 C1031 0.961 . S
H1046 C1031 0.961 . S
H1047 C1031 0.961 . S
H1048 C1032 0.941 . S
H1049 C1037 0.930 . S
H1050 C1038 0.956 . S
H1051 C1038 0.961 . S
H1052 C1038 0.961 . S
H1053 C1039 0.960 . S
H1054 C1039 0.957 1_455 S
H1055 C1039 0.973 . S
C1056 C1057 1.391 . S
C1056 C1058 1.394 . S
C1056 H1072 0.931 . S
C1057 C1056 1.391 . S
C1057 C1061 1.376 1_455 S
C1058 C1056 1.394 . S
C1058 C1059 1.369 . S
C1058 C1062 1.531 . S
C1059 C1058 1.369 . S
C1059 C1060 1.410 1_455 S
C1059 C1067 1.503 1_455 S
C1060 C1059 1.410 1_655 S
C1060 C1061 1.392 . S
C1060 C1063 1.511 . S
C1061 C1057 1.376 1_655 S
C1061 C1060 1.392 . S
C1061 H1073 0.929 . S
C1062 C1058 1.531 . S
C1062 H1074 0.960 . S
C1062 H1075 0.962 . S
C1062 H1076 0.960 . S
C1063 C1060 1.511 . S
C1063 H1077 0.961 . S
C1063 H1078 0.961 . S
C1063 H1079 0.961 . S
C1064 C1065 1.370 . S
C1064 C1066 1.363 . S
C1064 H1080 0.931 . S
C1065 C1064 1.370 . S
C1065 C1069 1.408 . S
C1066 C1064 1.363 . S
C1066 C1067 1.370 . S
C1066 C1070 1.524 . S
C1067 C1059 1.503 1_655 S
C1067 C1066 1.370 . S
C1067 C1068 1.403 . S
C1068 C1067 1.403 . S
C1068 C1069 1.404 . S
C1068 C1071 1.539 . S
C1069 C1065 1.408 . S
C1069 C1068 1.404 . S
C1069 H1081 0.930 . S
C1070 C1066 1.524 . S
C1070 H1082 0.956 1_655 S
C1070 H1083 0.961 . S
C1070 H1084 0.961 . S
C1071 C1068 1.539 . S
C1071 H1085 0.958 1_655 S
C1071 H1086 0.961 . S
C1071 H1087 0.960 . S
H1072 C1056 0.931 . S
H1073 C1061 0.929 . S
H1074 C1062 0.960 . S
H1075 C1062 0.962 . S
H1076 C1062 0.960 . S
H1077 C1063 0.961 . S
H1078 C1063 0.961 . S
H1079 C1063 0.961 . S
H1080 C1064 0.931 . S
H1081 C1069 0.930 . S
H1082 C1070 0.956 1_455 S
H1083 C1070 0.961 . S
H1084 C1070 0.961 . S
H1085 C1071 0.958 1_455 S
H1086 C1071 0.961 . S
H1087 C1071 0.960 . S
C1088 C1089 1.391 . S
C1088 C1090 1.394 . S
C1088 H1104 0.931 . S
C1089 C1088 1.391 . S
C1089 C1093 1.376 1_565 S
C1090 C1088 1.394 . S
C1090 C1091 1.369 . S
C1090 C1094 1.531 . S
C1091 C1090 1.369 . S
C1091 C1092 1.410 1_565 S
C1091 C1099 1.503 1_565 S
C1092 C1091 1.410 1_545 S
C1092 C1093 1.392 . S
C1092 C1095 1.511 . S
C1093 C1089 1.376 1_545 S
C1093 C1092 1.392 . S
C1093 H1105 0.929 . S
C1094 C1090 1.531 . S
C1094 H1106 0.960 . S
C1094 H1107 0.962 . S
C1094 H1108 0.960 . S
C1095 C1092 1.511 . S
C1095 H1109 0.961 . S
C1095 H1110 0.961 . S
C1095 H1111 0.961 . S
C1096 C1097 1.370 . S
C1096 C1098 1.363 1_545 S
C1096 H1112 0.931 1_545 S
C1097 C1096 1.370 . S
C1097 C1101 1.408 . S
C1098 C1096 1.363 1_565 S
C1098 C1099 1.370 1_565 S
C1098 C1102 1.524 . S
C1099 C1091 1.503 1_545 S
C1099 C1098 1.370 1_545 S
C1099 C1100 1.403 . S
C1100 C1099 1.403 . S
C1100 C1101 1.404 . S
C1100 C1103 1.539 . S
C1101 C1097 1.408 . S
C1101 C1100 1.404 . S
C1101 H1113 0.930 . S
C1102 C1098 1.524 . S
C1102 H1114 0.956 . S
C1102 H1115 0.961 . S
C1102 H1116 0.961 . S
C1103 C1100 1.539 . S
C1103 H1117 0.958 . S
C1103 H1118 0.961 . S
C1103 H1119 0.960 . S
H1104 C1088 0.931 . S
H1105 C1093 0.929 . S
H1106 C1094 0.960 . S
H1107 C1094 0.962 . S
H1108 C1094 0.960 . S
H1109 C1095 0.961 . S
H1110 C1095 0.961 . S
H1111 C1095 0.961 . S
H1112 C1096 0.931 1_565 S
H1113 C1101 0.930 . S
H1114 C1102 0.956 . S
H1115 C1102 0.961 . S
H1116 C1102 0.961 . S
H1117 C1103 0.958 . S
H1118 C1103 0.961 . S
H1119 C1103 0.960 . S
C1120 C1121 1.391 . S
C1120 C1122 1.394 . S
C1120 H1136 0.931 . S
C1121 C1120 1.391 . S
C1121 C1125 1.376 . S
C1122 C1120 1.394 . S
C1122 C1123 1.369 . S
C1122 C1126 1.531 . S
C1123 C1122 1.369 . S
C1123 C1124 1.410 . S
C1123 C1131 1.503 . S
C1124 C1123 1.410 . S
C1124 C1125 1.392 . S
C1124 C1127 1.511 . S
C1125 C1121 1.376 . S
C1125 C1124 1.392 . S
C1125 H1137 0.929 . S
C1126 C1122 1.531 . S
C1126 H1138 0.960 . S
C1126 H1139 0.962 . S
C1126 H1140 0.960 . S
C1127 C1124 1.511 . S
C1127 H1141 0.961 . S
C1127 H1142 0.961 . S
C1127 H1143 0.961 . S
C1128 C1129 1.370 . S
C1128 C1130 1.363 . S
C1128 H1144 0.931 . S
C1129 C1128 1.370 . S
C1129 C1133 1.408 . S
C1130 C1128 1.363 . S
C1130 C1131 1.370 . S
C1130 C1134 1.524 . S
C1131 C1123 1.503 . S
C1131 C1130 1.370 . S
C1131 C1132 1.403 . S
C1132 C1131 1.403 . S
C1132 C1133 1.404 . S
C1132 C1135 1.539 . S
C1133 C1129 1.408 . S
C1133 C1132 1.404 . S
C1133 H1145 0.930 . S
C1134 C1130 1.524 . S
C1134 H1146 0.956 . S
C1134 H1147 0.961 . S
C1134 H1148 0.961 . S
C1135 C1132 1.539 . S
C1135 H1149 0.958 . S
C1135 H1150 0.961 . S
C1135 H1151 0.960 . S
H1136 C1120 0.931 . S
H1137 C1125 0.929 . S
H1138 C1126 0.960 . S
H1139 C1126 0.962 . S
H1140 C1126 0.960 . S
H1141 C1127 0.961 . S
H1142 C1127 0.961 . S
H1143 C1127 0.961 . S
H1144 C1128 0.931 . S
H1145 C1133 0.930 . S
H1146 C1134 0.956 . S
H1147 C1134 0.961 . S
H1148 C1134 0.961 . S
H1149 C1135 0.958 . S
H1150 C1135 0.961 . S
H1151 C1135 0.960 . S
C1152 C1153 1.391 . S
C1152 C1154 1.394 . S
C1152 H1168 0.931 . S
C1153 C1152 1.391 . S
C1153 C1157 1.376 . S
C1154 C1152 1.394 . S
C1154 C1155 1.369 . S
C1154 C1158 1.531 . S
C1155 C1154 1.369 . S
C1155 C1156 1.410 . S
C1155 C1163 1.503 . S
C1156 C1155 1.410 . S
C1156 C1157 1.392 . S
C1156 C1159 1.511 . S
C1157 C1153 1.376 . S
C1157 C1156 1.392 . S
C1157 H1169 0.929 . S
C1158 C1154 1.531 . S
C1158 H1170 0.960 . S
C1158 H1171 0.962 . S
C1158 H1172 0.960 . S
C1159 C1156 1.511 . S
C1159 H1173 0.961 . S
C1159 H1174 0.961 . S
C1159 H1175 0.961 . S
C1160 C1161 1.370 . S
C1160 C1162 1.363 . S
C1160 H1176 0.931 . S
C1161 C1160 1.370 . S
C1161 C1165 1.408 . S
C1162 C1160 1.363 . S
C1162 C1163 1.370 . S
C1162 C1166 1.524 . S
C1163 C1155 1.503 . S
C1163 C1162 1.370 . S
C1163 C1164 1.403 . S
C1164 C1163 1.403 . S
C1164 C1165 1.404 . S
C1164 C1167 1.539 . S
C1165 C1161 1.408 . S
C1165 C1164 1.404 . S
C1165 H1177 0.930 . S
C1166 C1162 1.524 . S
C1166 H1178 0.956 . S
C1166 H1179 0.961 . S
C1166 H1180 0.961 . S
C1167 C1164 1.539 . S
C1167 H1181 0.958 . S
C1167 H1182 0.961 . S
C1167 H1183 0.960 . S
H1168 C1152 0.931 . S
H1169 C1157 0.929 . S
H1170 C1158 0.960 . S
H1171 C1158 0.962 . S
H1172 C1158 0.960 . S
H1173 C1159 0.961 . S
H1174 C1159 0.961 . S
H1175 C1159 0.961 . S
H1176 C1160 0.931 . S
H1177 C1165 0.930 . S
H1178 C1166 0.956 . S
H1179 C1166 0.961 . S
H1180 C1166 0.961 . S
H1181 C1167 0.958 . S
H1182 C1167 0.961 . S
H1183 C1167 0.960 . S
C1184 C1185 1.391 . S
C1184 C1186 1.394 . S
C1184 H1200 0.931 . S
C1185 C1184 1.391 . S
C1185 C1189 1.376 . S
C1186 C1184 1.394 . S
C1186 C1187 1.369 . S
C1186 C1190 1.531 1_545 S
C1187 C1186 1.369 . S
C1187 C1188 1.410 . S
C1187 C1195 1.503 1_545 S
C1188 C1187 1.410 . S
C1188 C1189 1.392 . S
C1188 C1191 1.511 . S
C1189 C1185 1.376 . S
C1189 C1188 1.392 . S
C1189 H1201 0.929 . S
C1190 C1186 1.531 1_565 S
C1190 H1202 0.960 . S
C1190 H1203 0.962 . S
C1190 H1204 0.960 1_565 S
C1191 C1188 1.511 . S
C1191 H1205 0.961 . S
C1191 H1206 0.961 . S
C1191 H1207 0.961 . S
C1192 C1193 1.370 . S
C1192 C1194 1.363 . S
C1192 H1208 0.931 . S
C1193 C1192 1.370 . S
C1193 C1197 1.408 . S
C1194 C1192 1.363 . S
C1194 C1195 1.370 . S
C1194 C1198 1.524 . S
C1195 C1187 1.503 1_565 S
C1195 C1194 1.370 . S
C1195 C1196 1.403 . S
C1196 C1195 1.403 . S
C1196 C1197 1.404 . S
C1196 C1199 1.539 . S
C1197 C1193 1.408 . S
C1197 C1196 1.404 . S
C1197 H1209 0.930 . S
C1198 C1194 1.524 . S
C1198 H1210 0.956 . S
C1198 H1211 0.961 . S
C1198 H1212 0.961 . S
C1199 C1196 1.539 . S
C1199 H1213 0.958 . S
C1199 H1214 0.961 . S
C1199 H1215 0.960 1_565 S
H1200 C1184 0.931 . S
H1201 C1189 0.929 . S
H1202 C1190 0.960 . S
H1203 C1190 0.962 . S
H1204 C1190 0.960 1_545 S
H1205 C1191 0.961 . S
H1206 C1191 0.961 . S
H1207 C1191 0.961 . S
H1208 C1192 0.931 . S
H1209 C1197 0.930 . S
H1210 C1198 0.956 . S
H1211 C1198 0.961 . S
H1212 C1198 0.961 . S
H1213 C1199 0.958 . S
H1214 C1199 0.961 . S
H1215 C1199 0.960 1_545 S
C1216 C1217 1.391 . S
C1216 C1218 1.394 . S
C1216 H1232 0.931 . S
C1217 C1216 1.391 . S
C1217 C1221 1.376 . S
C1218 C1216 1.394 . S
C1218 C1219 1.369 . S
C1218 C1222 1.531 . S
C1219 C1218 1.369 . S
C1219 C1220 1.410 . S
C1219 C1227 1.503 1_655 S
C1220 C1219 1.410 . S
C1220 C1221 1.392 . S
C1220 C1223 1.511 . S
C1221 C1217 1.376 . S
C1221 C1220 1.392 . S
C1221 H1233 0.929 . S
C1222 C1218 1.531 . S
C1222 H1234 0.960 . S
C1222 H1235 0.962 . S
C1222 H1236 0.960 . S
C1223 C1220 1.511 . S
C1223 H1237 0.961 . S
C1223 H1238 0.961 1_655 S
C1223 H1239 0.961 . S
C1224 C1225 1.370 . S
C1224 C1226 1.363 . S
C1224 H1240 0.931 . S
C1225 C1224 1.370 . S
C1225 C1229 1.408 . S
C1226 C1224 1.363 . S
C1226 C1227 1.370 . S
C1226 C1230 1.524 . S
C1227 C1219 1.503 1_455 S
C1227 C1226 1.370 . S
C1227 C1228 1.403 . S
C1228 C1227 1.403 . S
C1228 C1229 1.404 . S
C1228 C1231 1.539 . S
C1229 C1225 1.408 . S
C1229 C1228 1.404 . S
C1229 H1241 0.930 . S
C1230 C1226 1.524 . S
C1230 H1242 0.956 . S
C1230 H1243 0.961 . S
C1230 H1244 0.961 . S
C1231 C1228 1.539 . S
C1231 H1245 0.958 1_455 S
C1231 H1246 0.961 . S
C1231 H1247 0.960 1_455 S
H1232 C1216 0.931 . S
H1233 C1221 0.929 . S
H1234 C1222 0.960 . S
H1235 C1222 0.962 . S
H1236 C1222 0.960 . S
H1237 C1223 0.961 . S
H1238 C1223 0.961 1_455 S
H1239 C1223 0.961 . S
H1240 C1224 0.931 . S
H1241 C1229 0.930 . S
H1242 C1230 0.956 . S
H1243 C1230 0.961 . S
H1244 C1230 0.961 . S
H1245 C1231 0.958 1_655 S
H1246 C1231 0.961 . S
H1247 C1231 0.960 1_655 S
C225 C12 1.606 . S
C233 C155 1.614 . S
C257 C112 1.594 . S
C265 C14 1.603 . S
C289 C127 1.602 . S
C297 C28 1.594 . S
C321 C141 1.614 . S
C329 C54 1.596 . S
C353 C71 1.598 1_545 S
C361 C69 1.597 . S
C385 C82 1.599 . S
C393 C85 1.615 1_455 S
C417 C96 1.588 . S
C425 C99 1.614 1_565 S
C449 C110 1.605 . S
C457 C56 1.605 1_655 S
C481 C125 1.588 . S
C489 C43 1.606 1_565 S
C513 C1 1.598 1_655 S
C521 C138 1.599 . S
C545 C27 1.615 1_545 S
C553 C152 1.606 . S
C577 C41 1.618 1_455 S
C585 C166 1.602 . S
C609 C183 1.595 . S
C617 C181 1.604 . S
C641 C194 1.593 . S
C649 C208 1.606 . S
C673 C223 1.611 . S
C681 C197 1.597 . S
C705 C168 1.600 . S
C713 C210 1.608 . S
C737 C209 1.784 . S
C745 C0 1.793 . S
C769 C222 1.794 . S
C777 C26 1.797 . S
C801 C169 1.809 . S
C809 C40 1.808 . S
C833 C42 1.812 . S
C841 C182 1.805 . S
C865 C57 1.782 . S
C873 C140 1.799 . S
C897 C154 1.812 . S
C905 C70 1.805 . S
C929 C84 1.779 . S
C937 C113 1.800 . S
C961 C98 1.808 . S
C969 C126 1.809 . S
C993 C29 1.671 . S
C1001 C13 1.669 . S
C1025 C55 1.651 . S
C1033 C15 1.661 . S
C1057 C68 1.678 . S
C1065 C97 1.672 . S
C1089 C83 1.644 . S
C1097 C111 1.658 . S
C1121 C153 1.674 . S
C1129 C124 1.669 . S
C1153 C139 1.678 . S
C1161 C167 1.671 . S
C1185 C196 1.675 . S
C1193 C180 1.670 . S
C1217 C195 1.673 . S
C1225 C211 1.670 . S
