# Generated by pormake.
# Topology noy, (5)-cn, num edge types: 1
# Building blocks:
#     Node 0, Type 0, BuildingBlock: XOMCOT_clean_sbu_0, # of connection points: 5
#     Node 1, Type 0, BuildingBlock: XOMCOT_clean_sbu_0, # of connection points: 5
#     Node 2, Type 0, BuildingBlock: XOMCOT_clean_sbu_0, # of connection points: 5
#     Node 3, Type 0, BuildingBlock: XOMCOT_clean_sbu_0, # of connection points: 5
#     Node 4, Type 0, BuildingBlock: XOMCOT_clean_sbu_0, # of connection points: 5
#     Node 5, Type 0, BuildingBlock: XOMCOT_clean_sbu_0, # of connection points: 5
#     Node 6, Type 0, BuildingBlock: XOMCOT_clean_sbu_0, # of connection points: 5
#     Node 7, Type 0, BuildingBlock: XOMCOT_clean_sbu_0, # of connection points: 5
#     Edge 8, Type (0, 0), BuildingBlock: TEMPAE_clean_linker_10, # of connection points: 2
#     Edge 9, Type (0, 0), BuildingBlock: TEMPAE_clean_linker_10, # of connection points: 2
#     Edge 10, Type (0, 0), BuildingBlock: TEMPAE_clean_linker_10, # of connection points: 2
#     Edge 11, Type (0, 0), BuildingBlock: TEMPAE_clean_linker_10, # of connection points: 2
#     Edge 12, Type (0, 0), BuildingBlock: TEMPAE_clean_linker_10, # of connection points: 2
#     Edge 13, Type (0, 0), BuildingBlock: TEMPAE_clean_linker_10, # of connection points: 2
#     Edge 14, Type (0, 0), BuildingBlock: TEMPAE_clean_linker_10, # of connection points: 2
#     Edge 15, Type (0, 0), BuildingBlock: TEMPAE_clean_linker_10, # of connection points: 2
#     Edge 16, Type (0, 0), BuildingBlock: TEMPAE_clean_linker_10, # of connection points: 2
#     Edge 17, Type (0, 0), BuildingBlock: TEMPAE_clean_linker_10, # of connection points: 2
#     Edge 18, Type (0, 0), BuildingBlock: TEMPAE_clean_linker_10, # of connection points: 2
#     Edge 19, Type (0, 0), BuildingBlock: TEMPAE_clean_linker_10, # of connection points: 2
#     Edge 20, Type (0, 0), BuildingBlock: TEMPAE_clean_linker_10, # of connection points: 2
#     Edge 21, Type (0, 0), BuildingBlock: TEMPAE_clean_linker_10, # of connection points: 2
#     Edge 22, Type (0, 0), BuildingBlock: TEMPAE_clean_linker_10, # of connection points: 2
#     Edge 23, Type (0, 0), BuildingBlock: TEMPAE_clean_linker_10, # of connection points: 2
#     Edge 24, Type (0, 0), BuildingBlock: TEMPAE_clean_linker_10, # of connection points: 2
#     Edge 25, Type (0, 0), BuildingBlock: TEMPAE_clean_linker_10, # of connection points: 2
#     Edge 26, Type (0, 0), BuildingBlock: TEMPAE_clean_linker_10, # of connection points: 2
#     Edge 27, Type (0, 0), BuildingBlock: TEMPAE_clean_linker_10, # of connection points: 2
# Relax obj value: 0.203
# Max RMSD: 0.216
# Mean RMSD: 0.216
data_MOF--net-noy--node1-XOMCOT_clean_sbu_0--edge1-TEMPAE_clean_linker_10
_symmetry_space_group_name_H-M    P1
_symmetry_Int_Tables_number       1
_symmetry_cell_setting            triclinic
loop_
_symmetry_equiv_pos_as_xyz
'x, y, z'
_cell_length_a     49.532732
_cell_length_b     47.990167
_cell_length_c     20.267987
_cell_angle_alpha  90.067034
_cell_angle_beta   89.990809
_cell_angle_gamma 90.023632
loop_
_atom_site_label
_atom_site_type_symbol
_atom_site_fract_x
_atom_site_fract_y
_atom_site_fract_z
_atom_type_partial_charge
Co0 Co 0.3094 0.3819 0.33634 0.0
C1 C 0.31904 0.42072 0.22028 0.0
C2 C 0.28449 0.39428 0.20935 0.0
C3 C 0.28636 0.4108 0.15446 0.0
N4 N 0.30553 0.39953 0.24991 0.0
N5 N 0.30807 0.42738 0.1612 0.0
H6 H 0.33576 0.43191 0.24164 0.0
H7 H 0.26825 0.3799 0.2198 0.0
C8 C 0.30071 0.33416 0.24489 0.0
O9 O 0.3206 0.34464 0.20987 0.0
N10 N 0.31141 0.36425 0.42198 0.0
C11 C 0.33108 0.36652 0.46742 0.0
C12 C 0.32444 0.34998 0.52069 0.0
C13 C 0.29303 0.34667 0.44819 0.0
N14 N 0.30046 0.33744 0.50867 0.0
C15 C 0.36571 0.38967 0.31061 0.0
C16 C 0.3813 0.33447 0.31699 0.0
C17 C 0.40104 0.35498 0.30686 0.0
C18 C 0.39288 0.38284 0.3039 0.0
C19 C 0.35415 0.34232 0.3244 0.0
N20 N 0.34641 0.36962 0.31827 0.0
H21 H 0.36054 0.41137 0.31305 0.0
H22 H 0.33948 0.32648 0.33658 0.0
H23 H 0.3491 0.37903 0.46187 0.0
H24 H 0.27448 0.34103 0.4234 0.0
O25 O 0.31836 0.41729 0.3749 0.0
O26 O 0.27661 0.40141 0.36474 0.0
O27 O 0.29326 0.34628 0.29834 0.0
C28 C 0.29278 0.42141 0.38351 0.0
H29 H 0.27209 0.41153 0.11402 0.0
H30 H 0.33672 0.34708 0.56427 0.0
H31 H 0.38691 0.31275 0.32154 0.0
H32 H 0.40751 0.39941 0.29743 0.0
Co33 Co 0.69837 0.6381 0.82783 0.0
C34 C 0.69267 0.6004 0.70659 0.0
C35 C 0.73074 0.62113 0.71677 0.0
C36 C 0.73183 0.60456 0.66189 0.0
N37 N 0.70614 0.61906 0.74477 0.0
N38 N 0.7079 0.59152 0.65498 0.0
H39 H 0.67257 0.59293 0.71614 0.0
H40 H 0.74718 0.6335 0.73619 0.0
C41 C 0.71019 0.6833 0.7325 0.0
O42 O 0.69215 0.67135 0.69424 0.0
N43 N 0.69307 0.6575 0.91056 0.0
C44 C 0.67324 0.65439 0.95525 0.0
C45 C 0.67842 0.67197 0.00786 0.0
C46 C 0.71 0.67666 0.93641 0.0
N47 N 0.70162 0.68605 0.99604 0.0
C48 C 0.64329 0.62874 0.79183 0.0
C49 C 0.62682 0.68367 0.78785 0.0
C50 C 0.60773 0.66265 0.77528 0.0
C51 C 0.61639 0.63489 0.77819 0.0
C52 C 0.65376 0.67651 0.80143 0.0
N53 N 0.66203 0.64928 0.80038 0.0
H54 H 0.64864 0.6072 0.7986 0.0
H55 H 0.6678 0.69289 0.81425 0.0
H56 H 0.6564 0.64018 0.95029 0.0
H57 H 0.72813 0.68352 0.91158 0.0
O58 O 0.68843 0.60329 0.8678 0.0
O59 O 0.73017 0.61967 0.86581 0.0
O60 O 0.71543 0.67302 0.7894 0.0
C61 C 0.71361 0.5997 0.88247 0.0
H62 H 0.74943 0.60151 0.63107 0.0
H63 H 0.66621 0.67369 0.05191 0.0
H64 H 0.621 0.70541 0.78785 0.0
H65 H 0.60224 0.61784 0.77262 0.0
Co66 Co 0.3145 0.63705 0.68526 0.0
C67 C 0.31859 0.59528 0.79734 0.0
C68 C 0.28679 0.62504 0.80891 0.0
C69 C 0.28541 0.6066 0.86019 0.0
N70 N 0.30814 0.6188 0.7702 0.0
N71 N 0.30528 0.58772 0.853 0.0
H72 H 0.33404 0.58262 0.77482 0.0
H73 H 0.27211 0.64115 0.79903 0.0
C74 C 0.30525 0.68484 0.77615 0.0
O75 O 0.32443 0.67406 0.81291 0.0
N76 N 0.31869 0.65536 0.60086 0.0
C77 C 0.33897 0.65301 0.55705 0.0
C78 C 0.33351 0.67023 0.50409 0.0
C79 C 0.30114 0.67362 0.57399 0.0
N80 N 0.30969 0.68325 0.51481 0.0
C81 C 0.36953 0.62828 0.7238 0.0
C82 C 0.38689 0.6828 0.71334 0.0
C83 C 0.40567 0.66221 0.73125 0.0
C84 C 0.39655 0.63463 0.73579 0.0
C85 C 0.35986 0.67546 0.70157 0.0
N86 N 0.3512 0.64855 0.70923 0.0
H87 H 0.36382 0.60672 0.72293 0.0
H88 H 0.34598 0.69141 0.68528 0.0
H89 H 0.35658 0.63998 0.56349 0.0
H90 H 0.28232 0.67943 0.59728 0.0
O91 O 0.32382 0.60186 0.64627 0.0
O92 O 0.28215 0.61834 0.65146 0.0
O93 O 0.29824 0.67274 0.72236 0.0
C94 C 0.2984 0.59821 0.63388 0.0
H95 H 0.27035 0.60673 0.89888 0.0
H96 H 0.34642 0.67322 0.46162 0.0
H97 H 0.393 0.70434 0.70799 0.0
H98 H 0.41042 0.61773 0.74597 0.0
Co99 Co 0.69065 0.38119 0.17884 0.0
C100 C 0.69389 0.42569 0.28375 0.0
C101 C 0.6937 0.38418 0.32292 0.0
C102 C 0.69489 0.40259 0.37467 0.0
N103 N 0.69352 0.39849 0.26562 0.0
N104 N 0.69495 0.42862 0.35012 0.0
H105 H 0.69327 0.44302 0.24974 0.0
H106 H 0.6922 0.3618 0.32731 0.0
C107 C 0.71348 0.32177 0.20207 0.0
O108 O 0.703 0.31154 0.14777 0.0
N109 N 0.68776 0.36384 0.0924 0.0
C110 C 0.66497 0.35981 0.05741 0.0
C111 C 0.67105 0.34429 1.00219 0.0
C112 C 0.70765 0.35215 0.05592 0.0
N113 N 0.69783 0.33906 1.00177 0.0
C114 C 0.6364 0.38861 0.21797 0.0
C115 C 0.61944 0.33379 0.21598 0.0
C116 C 0.60039 0.35485 0.22756 0.0
C117 C 0.60935 0.38248 0.22976 0.0
C118 C 0.64651 0.34088 0.2039 0.0
N119 N 0.65463 0.36813 0.20371 0.0
H120 H 0.64264 0.41016 0.21918 0.0
H121 H 0.66033 0.32444 0.1926 0.0
H122 H 0.64508 0.36671 0.07219 0.0
H123 H 0.72845 0.35095 0.07207 0.0
O124 O 0.67975 0.41597 0.13966 0.0
O125 O 0.72218 0.40206 0.14785 0.0
O126 O 0.70971 0.34733 0.2182 0.0
C127 C 0.70508 0.42109 0.1287 0.0
H128 H 0.6949 0.39728 0.42658 0.0
H129 H 0.65666 0.33651 0.96645 0.0
H130 H 0.61332 0.31213 0.21395 0.0
H131 H 0.59547 0.39939 0.24 0.0
Co132 Co 0.81837 0.882 0.32549 0.0
C133 C 0.81726 0.92452 0.21582 0.0
C134 C 0.81855 0.88237 0.18063 0.0
C135 C 0.81837 0.89987 0.12725 0.0
N136 N 0.81787 0.89765 0.23651 0.0
N137 N 0.81775 0.92644 0.14905 0.0
H138 H 0.81726 0.94228 0.24862 0.0
H139 H 0.81979 0.85991 0.17838 0.0
C140 C 0.80248 0.8219 0.28814 0.0
O141 O 0.82125 0.81119 0.32577 0.0
N142 N 0.81686 0.86627 0.41395 0.0
C143 C 0.83194 0.8735 0.4668 0.0
C144 C 0.82396 0.85769 0.52025 0.0
C145 C 0.79946 0.84683 0.43658 0.0
N146 N 0.80375 0.84079 0.50073 0.0
C147 C 0.87225 0.88193 0.27104 0.0
C148 C 0.89412 0.84035 0.34782 0.0
C149 C 0.91139 0.85571 0.30685 0.0
C150 C 0.89975 0.87611 0.26664 0.0
C151 C 0.86637 0.84635 0.34948 0.0
N152 N 0.85528 0.86695 0.31103 0.0
H153 H 0.86548 0.90001 0.24463 0.0
H154 H 0.85459 0.83527 0.38544 0.0
H155 H 0.84799 0.88879 0.46624 0.0
H156 H 0.7837 0.83738 0.40725 0.0
O157 O 0.82991 0.91686 0.36278 0.0
O158 O 0.78713 0.90498 0.34863 0.0
O159 O 0.79885 0.84832 0.28608 0.0
C160 C 0.80462 0.92321 0.37039 0.0
H161 H 0.81851 0.89332 0.07618 0.0
H162 H 0.83282 0.85798 0.56907 0.0
H163 H 0.90207 0.82477 0.38116 0.0
H164 H 0.91193 0.88851 0.23342 0.0
Co165 Co 0.19212 0.13705 0.83041 0.0
C166 C 0.18004 0.09801 0.71936 0.0
C167 C 0.2076 0.13042 0.69119 0.0
C168 C 0.20332 0.11348 0.63766 0.0
N169 N 0.19288 0.12095 0.74246 0.0
N170 N 0.18607 0.09308 0.65523 0.0
H171 H 0.16685 0.08504 0.74885 0.0
H172 H 0.2212 0.14799 0.69237 0.0
C173 C 0.20208 0.19791 0.7958 0.0
O174 O 0.18118 0.20539 0.83166 0.0
N175 N 0.1924 0.15331 0.91909 0.0
C176 C 0.18021 0.14356 0.97415 0.0
C177 C 0.18795 0.15951 0.02752 0.0
C178 C 0.20828 0.17437 0.94095 0.0
N179 N 0.2054 0.17903 1.00627 0.0
C180 C 0.13542 0.13923 0.85312 0.0
C181 C 0.12125 0.17345 0.74949 0.0
C182 C 0.10062 0.16331 0.791 0.0
C183 C 0.10833 0.14541 0.84243 0.0
C184 C 0.14827 0.16581 0.76067 0.0
N185 N 0.15526 0.14998 0.81409 0.0
H186 H 0.14016 0.12462 0.89148 0.0
H187 H 0.16347 0.1725 0.72591 0.0
H188 H 0.16752 0.12532 0.97678 0.0
H189 H 0.22279 0.18531 0.91083 0.0
O190 O 0.18308 0.10108 0.86642 0.0
O191 O 0.22487 0.11643 0.85366 0.0
O192 O 0.20907 0.17226 0.79283 0.0
C193 C 0.20872 0.09652 0.87291 0.0
H194 H 0.21318 0.11529 0.59017 0.0
H195 H 0.18143 0.15682 0.07809 0.0
H196 H 0.11677 0.18698 0.7083 0.0
H197 H 0.09359 0.13525 0.87357 0.0
Co198 Co 0.80646 0.13787 0.67586 0.0
C199 C 0.80969 0.09725 0.79193 0.0
C200 C 0.77214 0.11894 0.78201 0.0
C201 C 0.76979 0.10048 0.83325 0.0
N202 N 0.79717 0.11728 0.75591 0.0
N203 N 0.79337 0.08688 0.83952 0.0
H204 H 0.82958 0.08917 0.78278 0.0
H205 H 0.75629 0.13235 0.76365 0.0
C206 C 0.79514 0.18095 0.77724 0.0
O207 O 0.81148 0.16655 0.81521 0.0
N208 N 0.81339 0.15854 0.59591 0.0
C209 C 0.83404 0.15572 0.55328 0.0
C210 C 0.8299 0.1737 0.50111 0.0
C211 C 0.79695 0.17786 0.56922 0.0
N212 N 0.80651 0.1876 0.51113 0.0
C213 C 0.86083 0.12558 0.71366 0.0
C214 C 0.87992 0.17957 0.71388 0.0
C215 C 0.8985 0.15774 0.72405 0.0
C216 C 0.88809 0.13049 0.7259 0.0
C217 C 0.85235 0.17373 0.7053 0.0
N218 N 0.84297 0.14691 0.70597 0.0
H219 H 0.85456 0.10436 0.70629 0.0
H220 H 0.83883 0.19074 0.69397 0.0
H221 H 0.85066 0.14132 0.5592 0.0
H222 H 0.77828 0.1845 0.59201 0.0
O223 O 0.81508 0.1036 0.63099 0.0
O224 O 0.77414 0.1221 0.63459 0.0
O225 O 0.79087 0.17289 0.71781 0.0
C226 C 0.78989 0.10203 0.61447 0.0
H227 H 0.75198 0.09701 0.86311 0.0
H228 H 0.84278 0.17574 0.45826 0.0
H229 H 0.8865 0.20097 0.70961 0.0
H230 H 0.90082 0.11259 0.73457 0.0
Co231 Co 0.20123 0.88321 0.18944 0.0
C232 C 0.19163 0.9217 0.30316 0.0
C233 C 0.227 0.89627 0.3149 0.0
C234 C 0.22542 0.91419 0.36749 0.0
N235 N 0.20585 0.90085 0.27461 0.0
N236 N 0.20334 0.93031 0.36005 0.0
H237 H 0.17395 0.93121 0.28132 0.0
H238 H 0.24314 0.88166 0.30555 0.0
C239 C 0.21181 0.82346 0.2292 0.0
O240 O 0.18938 0.81609 0.19923 0.0
N241 N 0.1982 0.86544 0.10257 0.0
C242 C 0.18565 0.87541 0.04819 0.0
C243 C 0.192 0.85894 0.99465 0.0
C244 C 0.21295 0.84367 0.07988 0.0
N245 N 0.20902 0.83888 0.01496 0.0
C246 C 0.14425 0.877 0.17671 0.0
C247 C 0.13448 0.8494 0.29379 0.0
C248 C 0.11262 0.85515 0.25164 0.0
C249 C 0.11794 0.8696 0.19303 0.0
C250 C 0.16075 0.85745 0.27555 0.0
N251 N 0.1655 0.87009 0.21614 0.0
H252 H 0.14727 0.88926 0.13308 0.0
H253 H 0.17724 0.85354 0.30921 0.0
H254 H 0.17385 0.89431 0.04595 0.0
H255 H 0.22778 0.83257 0.10863 0.0
O256 O 0.19001 0.91837 0.15302 0.0
O257 O 0.23243 0.90391 0.156 0.0
O258 O 0.21978 0.84884 0.22684 0.0
C259 C 0.21516 0.92327 0.13961 0.0
H260 H 0.23984 0.91571 0.40746 0.0
H261 H 0.18514 0.86187 0.94443 0.0
H262 H 0.13139 0.8388 0.3403 0.0
H263 H 0.10176 0.876 0.16048 0.0
C264 C 0.43945 0.32833 0.25588 0.0
C265 C 0.43022 0.34808 0.30161 0.0
C266 C 0.46728 0.32484 0.24404 0.0
C267 C 0.48619 0.34135 0.27919 0.0
C268 C 0.4769 0.36002 0.32838 0.0
C269 C 0.44908 0.3632 0.33879 0.0
C270 C 0.47632 0.30471 0.19127 0.0
C271 C 0.49629 0.37784 0.36756 0.0
C272 C 0.56212 0.32807 0.27943 0.0
C273 C 0.57113 0.34868 0.23562 0.0
C274 C 0.53436 0.32447 0.29216 0.0
C275 C 0.51528 0.34176 0.25992 0.0
C276 C 0.5243 0.36155 0.21308 0.0
C277 C 0.55204 0.36479 0.20166 0.0
C278 C 0.52557 0.30313 0.34237 0.0
C279 C 0.50472 0.38025 0.17703 0.0
H280 H 0.4249 0.31664 0.22699 0.0
H281 H 0.442 0.37818 0.37494 0.0
H282 H 0.48369 0.31654 0.14785 0.0
H283 H 0.49333 0.29175 0.20923 0.0
H284 H 0.45968 0.29077 0.17498 0.0
H285 H 0.48607 0.38922 0.40826 0.0
H286 H 0.5126 0.36482 0.38882 0.0
H287 H 0.50593 0.39332 0.33444 0.0
H288 H 0.5768 0.31559 0.30583 0.0
H289 H 0.55889 0.38039 0.1668 0.0
H290 H 0.50874 0.29032 0.32271 0.0
H291 H 0.51801 0.31391 0.38715 0.0
H292 H 0.54237 0.2891 0.35698 0.0
H293 H 0.48858 0.36766 0.15351 0.0
H294 H 0.51478 0.39296 0.13841 0.0
H295 H 0.49486 0.39456 0.21268 0.0
C296 C 0.56388 0.6527 0.7178 0.0
C297 C 0.5786 0.66889 0.76301 0.0
C298 C 0.53577 0.65533 0.7119 0.0
C299 C 0.52185 0.67499 0.75141 0.0
C300 C 0.53672 0.69265 0.79416 0.0
C301 C 0.56489 0.68931 0.79973 0.0
C302 C 0.52082 0.63603 0.66567 0.0
C303 C 0.52273 0.71419 0.8363 0.0
C304 C 0.44871 0.68732 0.70041 0.0
C305 C 0.4349 0.66864 0.74174 0.0
C306 C 0.47688 0.69081 0.70523 0.0
C307 C 0.49167 0.67504 0.75195 0.0
C308 C 0.47768 0.65719 0.7958 0.0
C309 C 0.44955 0.6544 0.79051 0.0
C310 C 0.49095 0.71042 0.65831 0.0
C311 C 0.49256 0.63992 0.84635 0.0
H312 H 0.57432 0.63732 0.68805 0.0
H313 H 0.57596 0.70187 0.83501 0.0
H314 H 0.50752 0.622 0.69461 0.0
H315 H 0.50772 0.64817 0.63192 0.0
H316 H 0.53471 0.62303 0.63558 0.0
H317 H 0.53728 0.72875 0.85983 0.0
H318 H 0.50822 0.72642 0.80632 0.0
H319 H 0.51105 0.70364 0.87573 0.0
H320 H 0.43771 0.69836 0.66234 0.0
H321 H 0.43905 0.64043 0.82376 0.0
H322 H 0.50263 0.69821 0.6216 0.0
H323 H 0.50548 0.72384 0.68533 0.0
H324 H 0.47645 0.72393 0.63143 0.0
H325 H 0.50584 0.62471 0.82087 0.0
H326 H 0.47861 0.62829 0.87927 0.0
H327 H 0.50567 0.65342 0.87714 0.0
C328 C 0.06605 0.84001 0.21846 0.0
C329 C 0.08413 0.84778 0.26866 0.0
C330 C 0.03823 0.83787 0.23035 0.0
C331 C 0.02811 0.8428 0.2946 0.0
C332 C 0.04643 0.84818 0.34683 0.0
C333 C 0.07421 0.85089 0.33317 0.0
C334 C 0.01952 0.83234 0.17294 0.0
C335 C 0.03658 0.85269 0.41646 0.0
C336 C 0.95837 0.87538 0.30032 0.0
C337 C 0.94143 0.85213 0.30861 0.0
C338 C 0.98651 0.8726 0.2971 0.0
C339 C 0.99839 0.84598 0.30461 0.0
C340 C 0.98166 0.82258 0.31675 0.0
C341 C 0.95338 0.82586 0.31787 0.0
C342 C 1.00347 0.89814 0.28343 0.0
C343 C 0.99358 0.79398 0.32694 0.0
H344 H 0.07355 0.83667 0.16884 0.0
H345 H 0.08787 0.85682 0.37249 0.0
H346 H 0.00536 0.81518 0.18483 0.0
H347 H 0.00723 0.85122 0.16309 0.0
H348 H 0.03067 0.82682 0.12719 0.0
H349 H 0.0533 0.85145 0.45287 0.0
H350 H 0.02717 0.87359 0.42048 0.0
H351 H 0.02096 0.83706 0.42957 0.0
H352 H 0.94965 0.89598 0.29576 0.0
H353 H 0.94066 0.8077 0.32445 0.0
H354 H 0.01481 0.89527 0.23667 0.0
H355 H 0.0185 0.90116 0.32332 0.0
H356 H 0.99111 0.91738 0.27929 0.0
H357 H 1.00191 0.78611 0.27966 0.0
H358 H 0.97834 0.77882 0.34506 0.0
H359 H 0.0105 0.79493 0.36277 0.0
C360 C 0.05272 0.16818 0.83246 0.0
C361 C 0.07121 0.1696 0.77972 0.0
C362 C 0.02474 0.16927 0.82191 0.0
C363 C 0.01469 0.17386 0.75755 0.0
C364 C 0.03311 0.17834 0.70514 0.0
C365 C 0.06103 0.17542 0.71636 0.0
C366 C 0.00596 0.16412 0.87935 0.0
C367 C 0.02329 0.18542 0.63669 0.0
C368 C 0.94701 0.14166 0.71309 0.0
C369 C 0.92848 0.16284 0.72951 0.0
C370 C 0.97488 0.14501 0.72249 0.0
C371 C 0.98513 0.17095 0.74427 0.0
C372 C 0.96694 0.19313 0.7567 0.0
C373 C 0.93892 0.18859 0.75111 0.0
C374 C 0.99327 0.12033 0.71104 0.0
C375 C 0.97677 0.22163 0.77728 0.0
H376 H 0.05997 0.16535 0.88237 0.0
H377 H 0.07463 0.17682 0.67473 0.0
H378 H 0.99336 0.18281 0.88832 0.0
H379 H 0.99213 0.14656 0.86781 0.0
H380 H 0.01702 0.15912 0.92553 0.0
H381 H 0.03979 0.1938 0.6053 0.0
H382 H 0.01513 0.16647 0.61253 0.0
H383 H 0.00677 0.20101 0.63909 0.0
H384 H 0.93998 0.12208 0.69303 0.0
H385 H 0.92536 0.20531 0.76467 0.0
H386 H 0.0057 0.11643 0.75567 0.0
H387 H 0.0073 0.12475 0.66977 0.0
H388 H 0.9819 0.10101 0.69915 0.0
H389 H 0.97771 0.22271 0.83188 0.0
H390 H 0.96262 0.23811 0.76046 0.0
H391 H 0.99715 0.22626 0.75734 0.0
C392 C 0.28785 0.55194 0.92922 0.0
C393 C 0.30957 0.56359 0.89435 0.0
C394 C 0.29154 0.52962 0.97274 0.0
C395 C 0.31764 0.51822 0.98145 0.0
C396 C 0.33969 0.52945 0.94563 0.0
C397 C 0.33539 0.55204 0.90245 0.0
C398 C 0.26737 0.5182 0.00938 0.0
C399 C 0.36776 0.5177 0.95323 0.0
C400 C 0.32273 0.47571 0.13914 0.0
C401 C 0.31569 0.44917 0.11604 0.0
C402 C 0.32537 0.49826 0.09519 0.0
C403 C 0.32115 0.49397 0.02668 0.0
C404 C 0.31615 0.4667 1.00292 0.0
C405 C 0.31331 0.44472 0.04792 0.0
C406 C 0.33062 0.52699 0.12264 0.0
C407 C 0.31184 0.46103 0.93038 0.0
H408 H 0.26772 0.56017 0.92224 0.0
H409 H 0.3523 0.56102 0.87602 0.0
H410 H 0.26414 0.49604 0.99585 0.0
H411 H 0.27104 0.519 0.06335 0.0
H412 H 0.24857 0.52994 0.99844 0.0
H413 H 0.38269 0.52855 0.92142 0.0
H414 H 0.37434 0.51951 1.00538 0.0
H415 H 0.36778 0.49521 0.94056 0.0
H416 H 0.32444 0.4792 0.19181 0.0
H417 H 0.30824 0.42407 0.03007 0.0
H418 H 0.31186 0.53955 0.11952 0.0
H419 H 0.34629 0.53785 0.09322 0.0
H420 H 0.33718 0.5263 0.17504 0.0
H421 H 0.292 0.46957 0.91501 0.0
H422 H 0.31213 0.43838 0.91901 0.0
H423 H 0.32757 0.47152 0.90039 0.0
C424 C 0.67871 0.47641 0.3728 0.0
C425 C 0.6955 0.45388 0.38854 0.0
C426 C 0.67774 0.5002 0.41351 0.0
C427 C 0.69443 0.50165 0.47027 0.0
C428 C 0.71182 0.47911 0.48532 0.0
C429 C 0.71191 0.45545 0.4447 0.0
C430 C 0.65857 0.52354 0.39651 0.0
C431 C 0.73047 0.48002 0.54425 0.0
C432 C 0.71586 0.57065 0.54517 0.0
C433 C 0.70155 0.57092 0.60508 0.0
C434 C 0.71288 0.54885 0.49961 0.0
C435 C 0.69464 0.52693 0.51322 0.0
C436 C 0.67872 0.52798 0.57133 0.0
C437 C 0.68249 0.54985 0.61682 0.0
C438 C 0.73045 0.54852 0.43867 0.0
C439 C 0.65862 0.50529 0.587 0.0
H440 H 0.66577 0.475 0.32982 0.0
H441 H 0.72502 0.43809 0.45649 0.0
H442 H 0.6443 0.52696 0.43794 0.0
H443 H 0.66992 0.54324 0.38943 0.0
H444 H 0.6468 0.51912 0.35103 0.0
H445 H 0.74305 0.46094 0.54844 0.0
H446 H 0.74406 0.49835 0.54063 0.0
H447 H 0.71855 0.48238 0.59025 0.0
H448 H 0.73002 0.58721 0.53443 0.0
H449 H 0.67129 0.54975 0.66269 0.0
H450 H 0.718 0.54531 0.39385 0.0
H451 H 0.74486 0.53086 0.44164 0.0
H452 H 0.74216 0.56811 0.43281 0.0
H453 H 0.64588 0.50071 0.54327 0.0
H454 H 0.6453 0.51099 0.62901 0.0
H455 H 0.66954 0.48586 0.59985 0.0
C456 C 0.73765 0.57262 0.97109 0.0
C457 C 0.72204 0.57321 0.91349 0.0
C458 C 0.7403 0.54776 0.00785 0.0
C459 C 0.72735 0.52303 0.98572 0.0
C460 C 0.71347 0.52328 0.92463 0.0
C461 C 0.71074 0.54836 0.88985 0.0
C462 C 0.75518 0.54852 0.07273 0.0
C463 C 0.69969 0.49749 0.89824 0.0
C464 C 0.73705 0.45063 0.06126 0.0
C465 C 0.71324 0.44793 0.09815 0.0
C466 C 0.74278 0.47548 0.02661 0.0
C467 C 0.72447 0.4982 0.02994 0.0
C468 C 0.70126 0.49597 0.07043 0.0
C469 C 0.69585 0.47089 0.10336 0.0
C470 C 0.76764 0.47688 0.9838 0.0
C471 C 0.68132 0.51965 0.07655 0.0
H472 H 0.74619 0.59189 0.98974 0.0
H473 H 0.69875 0.5488 0.84506 0.0
H474 H 0.74035 0.54836 0.11376 0.0
H475 H 0.76815 0.52984 0.07838 0.0
H476 H 0.76789 0.56749 0.07754 0.0
H477 H 0.69296 0.50014 0.84633 0.0
H478 H 0.71342 0.47928 0.90084 0.0
H479 H 0.68173 0.49271 0.92896 0.0
H480 H 0.75056 0.43295 0.05708 0.0
H481 H 0.6776 0.46911 0.1326 0.0
H482 H 0.77854 0.49681 0.99179 0.0
H483 H 0.76158 0.47616 0.93112 0.0
H484 H 0.78168 0.45931 0.99351 0.0
H485 H 0.69196 0.53935 0.08858 0.0
H486 H 0.66587 0.51568 0.11516 0.0
H487 H 0.67083 0.52271 0.02874 0.0
C488 C 0.26518 0.44921 0.46443 0.0
C489 C 0.28361 0.44817 0.41207 0.0
C490 C 0.26152 0.47405 0.50085 0.0
C491 C 0.27641 0.4983 0.4837 0.0
C492 C 0.2932 0.49772 0.42713 0.0
C493 C 0.2968 0.47265 0.39262 0.0
C494 C 0.24343 0.47368 0.56067 0.0
C495 C 0.30916 0.52301 0.406 0.0
C496 C 0.26722 0.57082 0.55933 0.0
C497 C 0.28935 0.57188 0.60239 0.0
C498 C 0.26162 0.54644 0.52258 0.0
C499 C 0.27835 0.52261 0.52992 0.0
C500 C 0.29955 0.5232 0.57679 0.0
C501 C 0.30486 0.54779 0.61186 0.0
C502 C 0.23885 0.54674 0.47322 0.0
C503 C 0.31774 0.49832 0.58729 0.0
H504 H 0.25512 0.43024 0.47983 0.0
H505 H 0.31094 0.47189 0.35176 0.0
H506 H 0.25604 0.47264 0.60585 0.0
H507 H 0.23126 0.49304 0.5636 0.0
H508 H 0.22961 0.45544 0.56036 0.0
H509 H 0.31817 0.52034 0.35617 0.0
H510 H 0.29616 0.54182 0.40565 0.0
H511 H 0.32574 0.52678 0.44175 0.0
H512 H 0.25518 0.58941 0.55181 0.0
H513 H 0.32177 0.54836 0.64583 0.0
H514 H 0.22695 0.52719 0.4761 0.0
H515 H 0.24733 0.54808 0.42265 0.0
H516 H 0.22512 0.56475 0.48093 0.0
H517 H 0.30555 0.47922 0.59522 0.0
H518 H 0.33143 0.50115 0.6302 0.0
H519 H 0.33027 0.49491 0.54262 0.0
C520 C 0.77884 0.04483 0.89909 0.0
C521 C 0.79889 0.06457 0.88506 0.0
C522 C 0.78339 0.0233 0.94446 0.0
C523 C 0.80848 0.0217 0.97771 0.0
C524 C 0.82878 0.04173 0.96415 0.0
C525 C 0.82384 0.06278 0.91732 0.0
C526 C 0.76142 1.00202 0.95612 0.0
C527 C 0.85561 0.04102 0.99939 0.0
C528 C 0.80755 0.97665 0.13245 0.0
C529 C 0.81764 0.95125 0.10838 0.0
C530 C 0.80562 1.00021 0.09136 0.0
C531 C 0.81363 0.99826 0.02436 0.0
C532 C 0.82468 0.97303 1.00045 0.0
C533 C 0.8268 0.95003 0.04277 0.0
C534 C 0.79415 0.0269 0.11905 0.0
C535 C 0.83328 0.96992 0.92929 0.0
H536 H 0.75966 0.04603 0.87358 0.0
H537 H 0.83921 0.07823 0.90694 0.0
H538 H 0.76895 0.9809 0.94355 0.0
H539 H 0.7557 1.00179 0.00902 0.0
H540 H 0.74305 1.00626 0.92632 0.0
H541 H 0.86889 0.05865 0.98495 0.0
H542 H 0.85237 0.04179 0.05354 0.0
H543 H 0.86621 0.02121 0.98835 0.0
H544 H 0.80038 0.97797 0.1828 0.0
H545 H 0.83539 0.93091 0.02384 0.0
H546 H 0.77412 0.03099 0.09659 0.0
H547 H 0.80741 0.04476 0.10652 0.0
H548 H 0.7917 0.02602 0.17351 0.0
H549 H 0.81548 0.97237 0.89658 0.0
H550 H 0.84266 0.94933 0.91918 0.0
H551 H 0.84791 0.98648 0.91593 0.0
C552 C 0.17788 0.04257 0.64171 0.0
C553 C 0.17905 0.06943 0.61476 0.0
C554 C 0.17681 0.01894 0.60059 0.0
C555 C 0.17686 0.02234 0.53107 0.0
C556 C 0.17559 0.04949 0.50406 0.0
C557 C 0.17672 0.07266 0.54622 0.0
C558 C 0.17794 0.99037 0.63148 0.0
C559 C 0.17545 0.0542 0.43041 0.0
C560 C 0.21651 0.96968 0.43074 0.0
C561 C 0.19613 0.95365 0.40134 0.0
C562 C 0.21037 0.99185 0.47313 0.0
C563 C 0.18305 0.99823 0.48703 0.0
C564 C 0.16226 0.98226 0.45726 0.0
C565 C 0.16905 0.96021 0.41429 0.0
C566 C 0.23325 1.00856 0.50272 0.0
C567 C 0.13293 0.98833 0.47122 0.0
H568 H 0.17971 0.03996 0.69462 0.0
H569 H 0.1771 0.09343 0.52536 0.0
H570 H 0.16361 0.97599 0.60672 0.0
H571 H 0.19852 0.98163 0.62526 0.0
H572 H 0.17321 0.99103 0.68505 0.0
H573 H 0.1703 0.07606 0.41758 0.0
H574 H 0.19576 0.04946 0.41013 0.0
H575 H 0.16084 0.04008 0.40584 0.0
H576 H 0.23745 0.96505 0.4199 0.0
H577 H 0.15328 0.94772 0.39194 0.0
H578 H 0.23211 1.00791 0.55736 0.0
H579 H 0.23152 0.03071 0.48764 0.0
H580 H 0.25338 1.00071 0.48728 0.0
H581 H 0.12894 0.9864 0.52489 0.0
H582 H 0.11918 0.97401 0.44424 0.0
H583 H 0.12807 1.01008 0.45707 0.0
C584 C 0.20312 0.04576 0.892 0.0
C585 C 0.21805 0.07012 0.90315 0.0
C586 C 0.20801 0.02139 0.92833 0.0
C587 C 0.22794 0.02147 0.97848 0.0
C588 C 0.24416 0.04559 0.98742 0.0
C589 C 0.23916 0.06962 0.94915 0.0
C590 C 0.19053 0.99613 0.91585 0.0
C591 C 0.26547 0.0467 0.04049 0.0
C592 C 0.20763 0.97363 0.1189 0.0
C593 C 0.22263 0.94951 0.10566 0.0
C594 C 0.2107 0.9978 0.08074 0.0
C595 C 0.22883 0.9978 0.02665 0.0
C596 C 0.24508 0.97392 0.01502 0.0
C597 C 0.24195 0.95006 0.05513 0.0
C598 C 0.19328 0.02281 0.09607 0.0
C599 C 0.26446 0.97287 0.95768 0.0
H600 H 0.18689 0.04603 0.85607 0.0
H601 H 0.25059 0.08851 0.95827 0.0
H602 H 0.20311 0.97706 0.91244 0.0
H603 H 0.17635 0.9933 0.9577 0.0
H604 H 0.17855 0.99814 0.86976 0.0
H605 H 0.27909 0.06492 0.03444 0.0
H606 H 0.25554 0.04825 0.08944 0.0
H607 H 0.27775 0.02739 0.04041 0.0
H608 H 0.19279 0.97332 0.15825 0.0
H609 H 0.2534 0.93136 0.04437 0.0
H610 H 0.17794 0.02544 0.05666 0.0
H611 H 0.20569 0.04205 0.09736 0.0
H612 H 0.18262 0.02069 0.14404 0.0
H613 H 0.25287 0.97106 0.91102 0.0
H614 H 0.27845 0.95484 0.96112 0.0
H615 H 0.27648 0.99234 0.95486 0.0
C616 C 0.77398 0.05308 0.60682 0.0
C617 C 0.78051 0.07807 0.57506 0.0
C618 C 0.77271 0.02783 0.5715 0.0
C619 C 0.77841 0.02758 0.50289 0.0
C620 C 0.78307 0.05322 0.46998 0.0
C621 C 0.78428 0.07814 0.50662 0.0
C622 C 0.76772 1.00113 0.60884 0.0
C623 C 0.78918 0.05409 0.39707 0.0
C624 C 0.81704 0.96509 0.43656 0.0
C625 C 0.79699 0.94974 0.40371 0.0
C626 C 0.81108 0.99016 0.46906 0.0
C627 C 0.78434 1.00059 0.46853 0.0
C628 C 0.7639 0.98529 0.43535 0.0
C629 C 0.77043 0.95992 0.4036 0.0
C630 C 0.83356 1.00548 0.50417 0.0
C631 C 0.73523 0.99581 0.43314 0.0
H632 H 0.77167 0.05299 0.66004 0.0
H633 H 0.78992 0.09742 0.48238 0.0
H634 H 0.75358 0.98744 0.58141 0.0
H635 H 0.78704 0.98967 0.61432 0.0
H636 H 0.75935 1.00512 0.65884 0.0
H637 H 0.78787 0.07559 0.37703 0.0
H638 H 0.80991 0.04615 0.38836 0.0
H639 H 0.77506 0.04049 0.36929 0.0
H640 H 0.8376 0.95738 0.43746 0.0
H641 H 0.75483 0.94822 0.37827 0.0
H642 H 0.82842 1.00817 0.55708 0.0
H643 H 0.83606 0.02658 0.48273 0.0
H644 H 0.85318 0.99436 0.50075 0.0
H645 H 0.72737 0.99851 0.484 0.0
H646 H 0.72162 0.98146 0.40583 0.0
H647 H 0.73465 0.01656 0.40907 0.0
C648 C 0.30025 0.29038 0.17876 0.0
C649 C 0.28643 0.30925 0.2194 0.0
C650 C 0.28681 0.26802 0.14845 0.0
C651 C 0.25864 0.26477 0.15761 0.0
C652 C 0.24466 0.28339 0.19994 0.0
C653 C 0.2588 0.30525 0.23102 0.0
C654 C 0.30267 0.2483 0.10514 0.0
C655 C 0.21457 0.28096 0.21011 0.0
C656 C 0.22236 0.22708 0.01803 0.0
C657 C 0.21832 0.2005 0.04488 0.0
C658 C 0.23469 0.24837 0.05492 0.0
C659 C 0.24378 0.24282 0.1199 0.0
C660 C 0.23977 0.21597 0.14728 0.0
C661 C 0.22681 0.19523 0.10969 0.0
C662 C 0.23811 0.2768 0.02414 0.0
C663 C 0.24974 0.20897 0.21564 0.0
H664 H 0.32168 0.29325 0.17009 0.0
H665 H 0.24801 0.31992 0.26201 0.0
H666 H 0.29875 0.22641 0.11984 0.0
H667 H 0.2961 0.25058 0.05311 0.0
H668 H 0.32475 0.25223 0.1077 0.0
H669 H 0.20692 0.29612 0.24713 0.0
H670 H 0.20403 0.28468 0.16262 0.0
H671 H 0.20923 0.25961 0.22645 0.0
H672 H 0.21548 0.23129 0.96829 0.0
H673 H 0.2239 0.17464 0.13034 0.0
H674 H 0.2599 0.28168 0.0189 0.0
H675 H 0.22916 0.29299 0.0566 0.0
H676 H 0.22851 0.27818 0.97471 0.0
H677 H 0.27201 0.21137 0.21768 0.0
H678 H 0.24448 0.18735 0.23039 0.0
H679 H 0.24104 0.22363 0.25226 0.0
C680 C 0.70994 0.72784 0.6699 0.0
C681 C 0.72413 0.70854 0.70839 0.0
C682 C 0.72308 0.7507 0.64104 0.0
C683 C 0.75132 0.75384 0.64896 0.0
C684 C 0.76569 0.73467 0.68897 0.0
C685 C 0.75181 0.71244 0.71913 0.0
C686 C 0.7068 0.77107 0.60057 0.0
C687 C 0.79589 0.73683 0.6973 0.0
C688 C 0.78613 0.79299 0.50972 0.0
C689 C 0.79096 0.81907 0.53851 0.0
C690 C 0.77405 0.77136 0.54582 0.0
C691 C 0.76588 0.77615 0.6119 0.0
C692 C 0.77063 0.80255 0.64115 0.0
C693 C 0.7835 0.82358 0.60435 0.0
C694 C 0.76997 0.74338 0.51308 0.0
C695 C 0.76152 0.8088 0.71067 0.0
H696 H 0.68847 0.72493 0.662 0.0
H697 H 0.76283 0.69735 0.74841 0.0
H698 H 0.71115 0.79275 0.61646 0.0
H699 H 0.71258 0.76934 0.54786 0.0
H700 H 0.68474 0.76731 0.6048 0.0
H701 H 0.80388 0.72118 0.73261 0.0
H702 H 0.80588 0.73366 0.64884 0.0
H703 H 0.80154 0.75793 0.71487 0.0
H704 H 0.79227 0.7894 0.45909 0.0
H705 H 0.78715 0.84381 0.62638 0.0
H706 H 0.74809 0.73878 0.50897 0.0
H707 H 0.77913 0.72669 0.54362 0.0
H708 H 0.77898 0.74254 0.46291 0.0
H709 H 0.73928 0.80645 0.71418 0.0
H710 H 0.76705 0.83022 0.72653 0.0
H711 H 0.7706 0.7937 0.74559 0.0
C712 C 0.22551 0.79077 1.00176 0.0
C713 C 0.22148 0.81744 0.97546 0.0
C714 C 0.23788 0.76965 0.96447 0.0
C715 C 0.24704 0.77549 0.89968 0.0
C716 C 0.24291 0.80238 0.87273 0.0
C717 C 0.2299 0.82295 0.91071 0.0
C718 C 0.24142 0.74115 0.99476 0.0
C719 C 0.25294 0.80967 0.80457 0.0
C720 C 0.3042 0.72869 0.84187 0.0
C721 C 0.29072 0.7097 0.80086 0.0
C722 C 0.29043 0.7509 0.87182 0.0
C723 C 0.26227 0.75384 0.86196 0.0
C724 C 0.24865 0.73514 0.81915 0.0
C725 C 0.26312 0.71345 0.7884 0.0
C726 C 0.30592 0.77074 0.91564 0.0
C727 C 0.21858 0.73724 0.80827 0.0
H728 H 0.21871 0.78641 0.05151 0.0
H729 H 0.22702 0.84362 0.89052 0.0
H730 H 0.23285 0.72497 0.96166 0.0
H731 H 0.26322 0.73652 1.0007 0.0
H732 H 0.23153 0.73946 0.0438 0.0
H733 H 0.24727 0.83118 0.78983 0.0
H734 H 0.27526 0.80781 0.80296 0.0
H735 H 0.24468 0.79485 0.7677 0.0
H736 H 0.3256 0.72598 0.85118 0.0
H737 H 0.2526 0.69867 0.75713 0.0
H738 H 0.29923 0.76825 0.96754 0.0
H739 H 0.30176 0.79262 0.90117 0.0
H740 H 0.32805 0.76713 0.91339 0.0
H741 H 0.20788 0.7331 0.85537 0.0
H742 H 0.21127 0.72219 0.77058 0.0
H743 H 0.21305 0.7586 0.79249 0.0
C744 C 0.73268 0.27485 0.23011 0.0
C745 C 0.72853 0.30289 0.24726 0.0
C746 C 0.7461 0.25645 0.27289 0.0
C747 C 0.75559 0.26619 0.33465 0.0
C748 C 0.7518 0.29453 0.35201 0.0
C749 C 0.73842 0.31254 0.30809 0.0
C750 C 0.74983 0.22645 0.25223 0.0
C751 C 0.76158 0.30576 0.41739 0.0
C752 C 0.76584 0.21216 0.4699 0.0
C753 C 0.79387 0.20775 0.46784 0.0
C754 C 0.75323 0.23134 0.42756 0.0
C755 C 0.76893 0.24652 0.38156 0.0
C756 C 0.79723 0.24237 0.37942 0.0
C757 C 0.80933 0.22311 0.42254 0.0
C758 C 0.72301 0.2351 0.43151 0.0
C759 C 0.81471 0.25815 0.33119 0.0
H760 H 0.7253 0.26712 0.1832 0.0
H761 H 0.73553 0.33415 0.32182 0.0
H762 H 0.77155 0.22085 0.25362 0.0
H763 H 0.73922 0.21252 0.28737 0.0
H764 H 0.742 0.22233 0.20179 0.0
H765 H 0.75753 0.32841 0.42301 0.0
H766 H 0.75151 0.2945 0.45835 0.0
H767 H 0.78361 0.30218 0.42251 0.0
H768 H 0.75356 0.20022 0.5038 0.0
H769 H 0.831 0.22024 0.42101 0.0
H770 H 0.71362 0.22909 0.38387 0.0
H771 H 0.71805 0.25734 0.44037 0.0
H772 H 0.71378 0.2224 0.47138 0.0
H773 H 0.8083 0.2534 0.27995 0.0
H774 H 0.83645 0.25288 0.33637 0.0
H775 H 0.8122 0.2809 0.33862 0.0
C776 C 0.74215 0.71356 0.02818 0.0
C777 C 0.71492 0.70637 0.03831 0.0
C778 C 0.75533 0.73315 0.06864 0.0
C779 C 0.74121 0.7458 0.12153 0.0
C780 C 0.71378 0.73875 0.13226 0.0
C781 C 0.70098 0.71932 0.09048 0.0
C782 C 0.78455 0.74011 0.05511 0.0
C783 C 0.69801 0.75156 0.18833 0.0
C784 C 0.78458 0.77426 0.26173 0.0
C785 C 0.78531 0.80291 0.2478 0.0
C786 C 0.76974 0.75564 0.2222 0.0
C787 C 0.75546 0.76574 0.16659 0.0
C788 C 0.75573 0.79472 0.15285 0.0
C789 C 0.77047 0.81296 0.19384 0.0
C790 C 0.76973 0.72503 0.23938 0.0
C791 C 0.74102 0.80637 0.09379 0.0
H792 H 0.7535 0.70365 0.98911 0.0
H793 H 0.67993 0.71444 0.09878 0.0
H794 H 0.78696 0.76293 0.0486 0.0
H795 H 0.79717 0.73393 0.09786 0.0
H796 H 0.79237 0.72944 0.01034 0.0
H797 H 0.67679 0.74409 0.18994 0.0
H798 H 0.70785 0.74652 0.23602 0.0
H799 H 0.69792 0.77459 0.1836 0.0
H800 H 0.79575 0.76626 0.30362 0.0
H801 H 0.77093 0.83502 0.1825 0.0
H802 H 0.77957 0.71298 0.19931 0.0
H803 H 0.7487 0.71729 0.24382 0.0
H804 H 0.78052 0.72072 0.28632 0.0
H805 H 0.74965 0.79745 0.04786 0.0
H806 H 0.7424 0.82944 0.09112 0.0
H807 H 0.71942 0.80032 0.09546 0.0
C808 C 0.20698 0.24624 0.74925 0.0
C809 C 0.2171 0.21909 0.75648 0.0
C810 C 0.22031 0.26603 0.70965 0.0
C811 C 0.24453 0.25865 0.67675 0.0
C812 C 0.25508 0.23142 0.68471 0.0
C813 C 0.24123 0.212 0.72418 0.0
C814 C 0.20825 0.29474 0.70223 0.0
C815 C 0.28097 0.22273 0.65116 0.0
C816 C 0.26651 0.29987 0.5249 0.0
C817 C 0.28616 0.31796 0.55094 0.0
C818 C 0.25269 0.28073 0.56525 0.0
C819 C 0.25871 0.2793 0.6335 0.0
C820 C 0.27846 0.29743 0.66022 0.0
C821 C 0.2918 0.31655 0.61887 0.0
C822 C 0.2317 0.26189 0.53468 0.0
C823 C 0.28562 0.29654 0.73261 0.0
H824 H 0.18832 0.25196 0.7737 0.0
H825 H 0.24936 0.19116 0.7296 0.0
H826 H 0.22302 0.31077 0.71815 0.0
H827 H 0.20357 0.29876 0.64956 0.0
H828 H 0.18946 0.29733 0.73153 0.0
H829 H 0.28682 0.20099 0.6634 0.0
H830 H 0.2787 0.22444 0.59686 0.0
H831 H 0.29763 0.23688 0.66591 0.0
H832 H 0.26212 0.3003 0.47263 0.0
H833 H 0.30654 0.33055 0.64016 0.0
H834 H 0.21205 0.26466 0.56013 0.0
H835 H 0.23772 0.23979 0.54099 0.0
H836 H 0.22884 0.26603 0.48122 0.0
H837 H 0.26744 0.30087 0.7629 0.0
H838 H 0.30154 0.31189 0.74577 0.0
H839 H 0.29281 0.2754 0.74601 0.0
C840 C 0.76934 0.22595 0.76419 0.0
C841 C 0.78129 0.20585 0.80504 0.0
C842 C 0.75631 0.24947 0.79124 0.0
C843 C 0.75475 0.25269 0.86074 0.0
C844 C 0.76679 0.2324 0.90201 0.0
C845 C 0.78005 0.20946 0.87373 0.0
C846 C 0.74412 0.27082 0.74552 0.0
C847 C 0.7652 0.23461 0.97629 0.0
C848 C 0.73917 0.32182 0.94614 0.0
C849 C 0.71169 0.31878 0.9612 0.0
C850 C 0.7532 0.30109 0.9107 0.0
C851 C 0.73957 0.27645 0.89097 0.0
C852 C 0.71171 0.27355 0.90502 0.0
C853 C 0.69813 0.29476 0.93948 0.0
C854 C 0.78279 0.30523 0.89588 0.0
C855 C 0.69644 0.24746 0.8863 0.0
H856 H 0.77035 0.22342 0.71109 0.0
H857 H 0.78906 0.19398 0.90581 0.0
H858 H 0.72194 0.27168 0.75288 0.0
H859 H 0.75223 0.29182 0.75716 0.0
H860 H 0.74825 0.2661 0.6928 0.0
H861 H 0.77576 0.21719 1.00147 0.0
H862 H 0.77426 0.25454 0.99305 0.0
H863 H 0.74377 0.23464 0.99221 0.0
H864 H 0.74971 0.34038 0.96245 0.0
H865 H 0.67704 0.29194 0.95188 0.0
H866 H 0.78681 0.30141 0.84277 0.0
H867 H 0.79493 0.28997 0.92427 0.0
H868 H 0.78979 0.32655 0.90874 0.0
H869 H 0.69892 0.24304 0.83293 0.0
H870 H 0.67454 0.24908 0.89744 0.0
H871 H 0.7048 0.2294 0.91367 0.0
C872 C 0.25195 0.80962 0.29802 0.0
C873 C 0.22742 0.80246 0.26763 0.0
C874 C 0.26617 0.79031 0.33705 0.0
C875 C 0.25562 0.76314 0.34635 0.0
C876 C 0.23107 0.75567 0.31511 0.0
C877 C 0.21734 0.77534 0.27611 0.0
C878 C 0.29235 0.79911 0.36901 0.0
C879 C 0.21902 0.727 0.32384 0.0
C880 C 0.30214 0.70469 0.40476 0.0
C881 C 0.29632 0.7034 0.47258 0.0
C882 C 0.28927 0.72412 0.3633 0.0
C883 C 0.2699 0.74271 0.38992 0.0
C884 C 0.26394 0.74159 0.45823 0.0
C885 C 0.27724 0.7221 0.4986 0.0
C886 C 0.2963 0.72463 0.29082 0.0
C887 C 0.24342 0.76097 0.48876 0.0
H888 H 0.26001 0.83044 0.29175 0.0
H889 H 0.19841 0.76952 0.25308 0.0
H890 H 0.29043 0.79793 0.42347 0.0
H891 H 0.3088 0.78469 0.35436 0.0
H892 H 0.29827 0.82068 0.35537 0.0
H893 H 0.20011 0.72422 0.2951 0.0
H894 H 0.23371 0.71086 0.30814 0.0
H895 H 0.21454 0.72332 0.37676 0.0
H896 H 0.31654 0.69026 0.38364 0.0
H897 H 0.27281 0.72178 0.55088 0.0
H898 H 0.30338 0.74572 0.27659 0.0
H899 H 0.27806 0.72004 0.26096 0.0
H900 H 0.31223 0.70927 0.27797 0.0
H901 H 0.24955 0.78294 0.48074 0.0
H902 H 0.241 0.75745 0.54261 0.0
H903 H 0.22352 0.75807 0.46457 0.0
loop_
_geom_bond_atom_site_label_1
_geom_bond_atom_site_label_2
_geom_bond_distance
_geom_bond_site_symmetry_2
_ccdc_geom_bond_type
Co0 N4 2.148 . S
Co0 N10 2.128 . S
Co0 N20 2.194 . S
Co0 O25 2.351 . S
Co0 O26 2.155 . S
Co0 O27 2.096 . S
C1 N4 1.301 . S
C1 N5 1.328 . S
C1 H6 0.930 . S
C2 C3 1.333 . S
C2 N4 1.317 . S
C2 H7 0.930 . S
C3 C2 1.333 . S
C3 N5 1.350 . S
C3 H29 0.931 . S
N4 Co0 2.148 . S
N4 C1 1.301 . S
N4 C2 1.317 . S
N5 C1 1.328 . S
N5 C3 1.350 . S
H6 C1 0.930 . S
H7 C2 0.930 . S
C8 O9 1.224 . S
C8 O27 1.247 . S
O9 C8 1.224 . S
N10 Co0 2.128 . S
N10 C11 1.355 . S
N10 C13 1.311 . S
C11 N10 1.355 . S
C11 C12 1.363 . S
C11 H23 0.929 . S
C12 C11 1.363 . S
C12 N14 1.375 . S
C12 H30 0.931 . S
C13 N10 1.311 . S
C13 N14 1.347 . S
C13 H24 0.929 . S
N14 C12 1.375 . S
N14 C13 1.347 . S
C15 C18 1.365 . S
C15 N20 1.328 . S
C15 H21 0.929 . S
C16 C17 1.362 . S
C16 C19 1.378 . S
C16 H31 0.929 . S
C17 C16 1.362 . S
C17 C18 1.366 . S
C18 C15 1.365 . S
C18 C17 1.366 . S
C18 H32 0.930 . S
C19 C16 1.378 . S
C19 N20 1.315 . S
C19 H22 0.930 . S
N20 Co0 2.194 . S
N20 C15 1.328 . S
N20 C19 1.315 . S
H21 C15 0.929 . S
H22 C19 0.930 . S
H23 C11 0.929 . S
H24 C13 0.929 . S
O25 Co0 2.351 . S
O25 C28 1.244 . S
O26 Co0 2.155 . S
O26 C28 1.240 . S
O27 Co0 2.096 . S
O27 C8 1.247 . S
C28 O25 1.244 . S
C28 O26 1.240 . S
H29 C3 0.931 . S
H30 C12 0.931 . S
H31 C16 0.929 . S
H32 C18 0.930 . S
Co33 N37 2.148 . S
Co33 N43 2.128 . S
Co33 N53 2.194 . S
Co33 O58 2.351 . S
Co33 O59 2.155 . S
Co33 O60 2.096 . S
C34 N37 1.301 . S
C34 N38 1.328 . S
C34 H39 0.930 . S
C35 C36 1.333 . S
C35 N37 1.317 . S
C35 H40 0.930 . S
C36 C35 1.333 . S
C36 N38 1.350 . S
C36 H62 0.931 . S
N37 Co33 2.148 . S
N37 C34 1.301 . S
N37 C35 1.317 . S
N38 C34 1.328 . S
N38 C36 1.350 . S
H39 C34 0.930 . S
H40 C35 0.930 . S
C41 O42 1.224 . S
C41 O60 1.247 . S
O42 C41 1.224 . S
N43 Co33 2.128 . S
N43 C44 1.355 . S
N43 C46 1.311 . S
C44 N43 1.355 . S
C44 C45 1.363 . S
C44 H56 0.929 . S
C45 C44 1.363 . S
C45 N47 1.375 . S
C45 H63 0.931 . S
C46 N43 1.311 . S
C46 N47 1.347 . S
C46 H57 0.929 . S
N47 C45 1.375 . S
N47 C46 1.347 . S
C48 C51 1.365 . S
C48 N53 1.328 . S
C48 H54 0.929 . S
C49 C50 1.362 . S
C49 C52 1.378 . S
C49 H64 0.929 . S
C50 C49 1.362 . S
C50 C51 1.366 . S
C51 C48 1.365 . S
C51 C50 1.366 . S
C51 H65 0.930 . S
C52 C49 1.378 . S
C52 N53 1.315 . S
C52 H55 0.930 . S
N53 Co33 2.194 . S
N53 C48 1.328 . S
N53 C52 1.315 . S
H54 C48 0.929 . S
H55 C52 0.930 . S
H56 C44 0.929 . S
H57 C46 0.929 . S
O58 Co33 2.351 . S
O58 C61 1.244 . S
O59 Co33 2.155 . S
O59 C61 1.240 . S
O60 Co33 2.096 . S
O60 C41 1.247 . S
C61 O58 1.244 . S
C61 O59 1.240 . S
H62 C36 0.931 . S
H63 C45 0.931 . S
H64 C49 0.929 . S
H65 C51 0.930 . S
Co66 N70 2.148 . S
Co66 N76 2.128 . S
Co66 N86 2.194 . S
Co66 O91 2.351 . S
Co66 O92 2.155 . S
Co66 O93 2.096 . S
C67 N70 1.301 . S
C67 N71 1.328 . S
C67 H72 0.930 . S
C68 C69 1.333 . S
C68 N70 1.317 . S
C68 H73 0.930 . S
C69 C68 1.333 . S
C69 N71 1.350 . S
C69 H95 0.931 . S
N70 Co66 2.148 . S
N70 C67 1.301 . S
N70 C68 1.317 . S
N71 C67 1.328 . S
N71 C69 1.350 . S
H72 C67 0.930 . S
H73 C68 0.930 . S
C74 O75 1.224 . S
C74 O93 1.247 . S
O75 C74 1.224 . S
N76 Co66 2.128 . S
N76 C77 1.355 . S
N76 C79 1.311 . S
C77 N76 1.355 . S
C77 C78 1.363 . S
C77 H89 0.929 . S
C78 C77 1.363 . S
C78 N80 1.375 . S
C78 H96 0.931 . S
C79 N76 1.311 . S
C79 N80 1.347 . S
C79 H90 0.929 . S
N80 C78 1.375 . S
N80 C79 1.347 . S
C81 C84 1.365 . S
C81 N86 1.328 . S
C81 H87 0.929 . S
C82 C83 1.362 . S
C82 C85 1.378 . S
C82 H97 0.929 . S
C83 C82 1.362 . S
C83 C84 1.366 . S
C84 C81 1.365 . S
C84 C83 1.366 . S
C84 H98 0.930 . S
C85 C82 1.378 . S
C85 N86 1.315 . S
C85 H88 0.930 . S
N86 Co66 2.194 . S
N86 C81 1.328 . S
N86 C85 1.315 . S
H87 C81 0.929 . S
H88 C85 0.930 . S
H89 C77 0.929 . S
H90 C79 0.929 . S
O91 Co66 2.351 . S
O91 C94 1.244 . S
O92 Co66 2.155 . S
O92 C94 1.240 . S
O93 Co66 2.096 . S
O93 C74 1.247 . S
C94 O91 1.244 . S
C94 O92 1.240 . S
H95 C69 0.931 . S
H96 C78 0.931 . S
H97 C82 0.929 . S
H98 C84 0.930 . S
Co99 N103 2.148 . S
Co99 N109 2.128 . S
Co99 N119 2.194 . S
Co99 O124 2.351 . S
Co99 O125 2.155 . S
Co99 O126 2.096 . S
C100 N103 1.301 . S
C100 N104 1.328 . S
C100 H105 0.930 . S
C101 C102 1.333 . S
C101 N103 1.317 . S
C101 H106 0.930 . S
C102 C101 1.333 . S
C102 N104 1.350 . S
C102 H128 0.931 . S
N103 Co99 2.148 . S
N103 C100 1.301 . S
N103 C101 1.317 . S
N104 C100 1.328 . S
N104 C102 1.350 . S
H105 C100 0.930 . S
H106 C101 0.930 . S
C107 O108 1.224 . S
C107 O126 1.247 . S
O108 C107 1.224 . S
N109 Co99 2.128 . S
N109 C110 1.355 . S
N109 C112 1.311 . S
C110 N109 1.355 . S
C110 C111 1.363 . S
C110 H122 0.929 . S
C111 C110 1.363 . S
C111 N113 1.375 . S
C111 H129 0.931 . S
C112 N109 1.311 . S
C112 N113 1.347 . S
C112 H123 0.929 . S
N113 C111 1.375 . S
N113 C112 1.347 . S
C114 C117 1.365 . S
C114 N119 1.328 . S
C114 H120 0.929 . S
C115 C116 1.362 . S
C115 C118 1.378 . S
C115 H130 0.929 . S
C116 C115 1.362 . S
C116 C117 1.366 . S
C117 C114 1.365 . S
C117 C116 1.366 . S
C117 H131 0.930 . S
C118 C115 1.378 . S
C118 N119 1.315 . S
C118 H121 0.930 . S
N119 Co99 2.194 . S
N119 C114 1.328 . S
N119 C118 1.315 . S
H120 C114 0.929 . S
H121 C118 0.930 . S
H122 C110 0.929 . S
H123 C112 0.929 . S
O124 Co99 2.351 . S
O124 C127 1.244 . S
O125 Co99 2.155 . S
O125 C127 1.240 . S
O126 Co99 2.096 . S
O126 C107 1.247 . S
C127 O124 1.244 . S
C127 O125 1.240 . S
H128 C102 0.931 . S
H129 C111 0.931 . S
H130 C115 0.929 . S
H131 C117 0.930 . S
Co132 N136 2.148 . S
Co132 N142 2.128 . S
Co132 N152 2.194 . S
Co132 O157 2.351 . S
Co132 O158 2.155 . S
Co132 O159 2.096 . S
C133 N136 1.301 . S
C133 N137 1.328 . S
C133 H138 0.930 . S
C134 C135 1.333 . S
C134 N136 1.317 . S
C134 H139 0.930 . S
C135 C134 1.333 . S
C135 N137 1.350 . S
C135 H161 0.931 . S
N136 Co132 2.148 . S
N136 C133 1.301 . S
N136 C134 1.317 . S
N137 C133 1.328 . S
N137 C135 1.350 . S
H138 C133 0.930 . S
H139 C134 0.930 . S
C140 O141 1.224 . S
C140 O159 1.247 . S
O141 C140 1.224 . S
N142 Co132 2.128 . S
N142 C143 1.355 . S
N142 C145 1.311 . S
C143 N142 1.355 . S
C143 C144 1.363 . S
C143 H155 0.929 . S
C144 C143 1.363 . S
C144 N146 1.375 . S
C144 H162 0.931 . S
C145 N142 1.311 . S
C145 N146 1.347 . S
C145 H156 0.929 . S
N146 C144 1.375 . S
N146 C145 1.347 . S
C147 C150 1.365 . S
C147 N152 1.328 . S
C147 H153 0.929 . S
C148 C149 1.362 . S
C148 C151 1.378 . S
C148 H163 0.929 . S
C149 C148 1.362 . S
C149 C150 1.366 . S
C150 C147 1.365 . S
C150 C149 1.366 . S
C150 H164 0.930 . S
C151 C148 1.378 . S
C151 N152 1.315 . S
C151 H154 0.930 . S
N152 Co132 2.194 . S
N152 C147 1.328 . S
N152 C151 1.315 . S
H153 C147 0.929 . S
H154 C151 0.930 . S
H155 C143 0.929 . S
H156 C145 0.929 . S
O157 Co132 2.351 . S
O157 C160 1.244 . S
O158 Co132 2.155 . S
O158 C160 1.240 . S
O159 Co132 2.096 . S
O159 C140 1.247 . S
C160 O157 1.244 . S
C160 O158 1.240 . S
H161 C135 0.931 . S
H162 C144 0.931 . S
H163 C148 0.929 . S
H164 C150 0.930 . S
Co165 N169 2.148 . S
Co165 N175 2.128 . S
Co165 N185 2.194 . S
Co165 O190 2.351 . S
Co165 O191 2.155 . S
Co165 O192 2.096 . S
C166 N169 1.301 . S
C166 N170 1.328 . S
C166 H171 0.930 . S
C167 C168 1.333 . S
C167 N169 1.317 . S
C167 H172 0.930 . S
C168 C167 1.333 . S
C168 N170 1.350 . S
C168 H194 0.931 . S
N169 Co165 2.148 . S
N169 C166 1.301 . S
N169 C167 1.317 . S
N170 C166 1.328 . S
N170 C168 1.350 . S
H171 C166 0.930 . S
H172 C167 0.930 . S
C173 O174 1.224 . S
C173 O192 1.247 . S
O174 C173 1.224 . S
N175 Co165 2.128 . S
N175 C176 1.355 . S
N175 C178 1.311 . S
C176 N175 1.355 . S
C176 C177 1.363 . S
C176 H188 0.929 . S
C177 C176 1.363 . S
C177 N179 1.375 . S
C177 H195 0.931 . S
C178 N175 1.311 . S
C178 N179 1.347 . S
C178 H189 0.929 . S
N179 C177 1.375 . S
N179 C178 1.347 . S
C180 C183 1.365 . S
C180 N185 1.328 . S
C180 H186 0.929 . S
C181 C182 1.362 . S
C181 C184 1.378 . S
C181 H196 0.929 . S
C182 C181 1.362 . S
C182 C183 1.366 . S
C183 C180 1.365 . S
C183 C182 1.366 . S
C183 H197 0.930 . S
C184 C181 1.378 . S
C184 N185 1.315 . S
C184 H187 0.930 . S
N185 Co165 2.194 . S
N185 C180 1.328 . S
N185 C184 1.315 . S
H186 C180 0.929 . S
H187 C184 0.930 . S
H188 C176 0.929 . S
H189 C178 0.929 . S
O190 Co165 2.351 . S
O190 C193 1.244 . S
O191 Co165 2.155 . S
O191 C193 1.240 . S
O192 Co165 2.096 . S
O192 C173 1.247 . S
C193 O190 1.244 . S
C193 O191 1.240 . S
H194 C168 0.931 . S
H195 C177 0.931 . S
H196 C181 0.929 . S
H197 C183 0.930 . S
Co198 N202 2.148 . S
Co198 N208 2.128 . S
Co198 N218 2.194 . S
Co198 O223 2.351 . S
Co198 O224 2.155 . S
Co198 O225 2.096 . S
C199 N202 1.301 . S
C199 N203 1.328 . S
C199 H204 0.930 . S
C200 C201 1.333 . S
C200 N202 1.317 . S
C200 H205 0.930 . S
C201 C200 1.333 . S
C201 N203 1.350 . S
C201 H227 0.931 . S
N202 Co198 2.148 . S
N202 C199 1.301 . S
N202 C200 1.317 . S
N203 C199 1.328 . S
N203 C201 1.350 . S
H204 C199 0.930 . S
H205 C200 0.930 . S
C206 O207 1.224 . S
C206 O225 1.247 . S
O207 C206 1.224 . S
N208 Co198 2.128 . S
N208 C209 1.355 . S
N208 C211 1.311 . S
C209 N208 1.355 . S
C209 C210 1.363 . S
C209 H221 0.929 . S
C210 C209 1.363 . S
C210 N212 1.375 . S
C210 H228 0.931 . S
C211 N208 1.311 . S
C211 N212 1.347 . S
C211 H222 0.929 . S
N212 C210 1.375 . S
N212 C211 1.347 . S
C213 C216 1.365 . S
C213 N218 1.328 . S
C213 H219 0.929 . S
C214 C215 1.362 . S
C214 C217 1.378 . S
C214 H229 0.929 . S
C215 C214 1.362 . S
C215 C216 1.366 . S
C216 C213 1.365 . S
C216 C215 1.366 . S
C216 H230 0.930 . S
C217 C214 1.378 . S
C217 N218 1.315 . S
C217 H220 0.930 . S
N218 Co198 2.194 . S
N218 C213 1.328 . S
N218 C217 1.315 . S
H219 C213 0.929 . S
H220 C217 0.930 . S
H221 C209 0.929 . S
H222 C211 0.929 . S
O223 Co198 2.351 . S
O223 C226 1.244 . S
O224 Co198 2.155 . S
O224 C226 1.240 . S
O225 Co198 2.096 . S
O225 C206 1.247 . S
C226 O223 1.244 . S
C226 O224 1.240 . S
H227 C201 0.931 . S
H228 C210 0.931 . S
H229 C214 0.929 . S
H230 C216 0.930 . S
Co231 N235 2.148 . S
Co231 N241 2.128 . S
Co231 N251 2.194 . S
Co231 O256 2.351 . S
Co231 O257 2.155 . S
Co231 O258 2.096 . S
C232 N235 1.301 . S
C232 N236 1.328 . S
C232 H237 0.930 . S
C233 C234 1.333 . S
C233 N235 1.317 . S
C233 H238 0.930 . S
C234 C233 1.333 . S
C234 N236 1.350 . S
C234 H260 0.931 . S
N235 Co231 2.148 . S
N235 C232 1.301 . S
N235 C233 1.317 . S
N236 C232 1.328 . S
N236 C234 1.350 . S
H237 C232 0.930 . S
H238 C233 0.930 . S
C239 O240 1.224 . S
C239 O258 1.247 . S
O240 C239 1.224 . S
N241 Co231 2.128 . S
N241 C242 1.355 . S
N241 C244 1.311 . S
C242 N241 1.355 . S
C242 C243 1.363 . S
C242 H254 0.929 . S
C243 C242 1.363 . S
C243 N245 1.375 . S
C243 H261 0.931 . S
C244 N241 1.311 . S
C244 N245 1.347 . S
C244 H255 0.929 . S
N245 C243 1.375 . S
N245 C244 1.347 . S
C246 C249 1.365 . S
C246 N251 1.328 . S
C246 H252 0.929 . S
C247 C248 1.362 . S
C247 C250 1.378 . S
C247 H262 0.929 . S
C248 C247 1.362 . S
C248 C249 1.366 . S
C249 C246 1.365 . S
C249 C248 1.366 . S
C249 H263 0.930 . S
C250 C247 1.378 . S
C250 N251 1.315 . S
C250 H253 0.930 . S
N251 Co231 2.194 . S
N251 C246 1.328 . S
N251 C250 1.315 . S
H252 C246 0.929 . S
H253 C250 0.930 . S
H254 C242 0.929 . S
H255 C244 0.929 . S
O256 Co231 2.351 . S
O256 C259 1.244 . S
O257 Co231 2.155 . S
O257 C259 1.240 . S
O258 Co231 2.096 . S
O258 C239 1.247 . S
C259 O256 1.244 . S
C259 O257 1.240 . S
H260 C234 0.931 . S
H261 C243 0.931 . S
H262 C247 0.929 . S
H263 C249 0.930 . S
C264 C265 1.391 . S
C264 C266 1.394 . S
C264 H280 0.931 . S
C265 C264 1.391 . S
C265 C269 1.376 . S
C266 C264 1.394 . S
C266 C267 1.369 . S
C266 C270 1.531 . S
C267 C266 1.369 . S
C267 C268 1.410 . S
C267 C275 1.503 . S
C268 C267 1.410 . S
C268 C269 1.392 . S
C268 C271 1.511 . S
C269 C265 1.376 . S
C269 C268 1.392 . S
C269 H281 0.929 . S
C270 C266 1.531 . S
C270 H282 0.960 . S
C270 H283 0.962 . S
C270 H284 0.960 . S
C271 C268 1.511 . S
C271 H285 0.961 . S
C271 H286 0.961 . S
C271 H287 0.961 . S
C272 C273 1.370 . S
C272 C274 1.363 . S
C272 H288 0.931 . S
C273 C272 1.370 . S
C273 C277 1.408 . S
C274 C272 1.363 . S
C274 C275 1.370 . S
C274 C278 1.524 . S
C275 C267 1.503 . S
C275 C274 1.370 . S
C275 C276 1.403 . S
C276 C275 1.403 . S
C276 C277 1.404 . S
C276 C279 1.539 . S
C277 C273 1.408 . S
C277 C276 1.404 . S
C277 H289 0.930 . S
C278 C274 1.524 . S
C278 H290 0.956 . S
C278 H291 0.961 . S
C278 H292 0.961 . S
C279 C276 1.539 . S
C279 H293 0.958 . S
C279 H294 0.961 . S
C279 H295 0.960 . S
H280 C264 0.931 . S
H281 C269 0.929 . S
H282 C270 0.960 . S
H283 C270 0.962 . S
H284 C270 0.960 . S
H285 C271 0.961 . S
H286 C271 0.961 . S
H287 C271 0.961 . S
H288 C272 0.931 . S
H289 C277 0.930 . S
H290 C278 0.956 . S
H291 C278 0.961 . S
H292 C278 0.961 . S
H293 C279 0.958 . S
H294 C279 0.961 . S
H295 C279 0.960 . S
C296 C297 1.391 . S
C296 C298 1.394 . S
C296 H312 0.931 . S
C297 C296 1.391 . S
C297 C301 1.376 . S
C298 C296 1.394 . S
C298 C299 1.369 . S
C298 C302 1.531 . S
C299 C298 1.369 . S
C299 C300 1.410 . S
C299 C307 1.503 . S
C300 C299 1.410 . S
C300 C301 1.392 . S
C300 C303 1.511 . S
C301 C297 1.376 . S
C301 C300 1.392 . S
C301 H313 0.929 . S
C302 C298 1.531 . S
C302 H314 0.960 . S
C302 H315 0.962 . S
C302 H316 0.960 . S
C303 C300 1.511 . S
C303 H317 0.961 . S
C303 H318 0.961 . S
C303 H319 0.961 . S
C304 C305 1.370 . S
C304 C306 1.363 . S
C304 H320 0.931 . S
C305 C304 1.370 . S
C305 C309 1.408 . S
C306 C304 1.363 . S
C306 C307 1.370 . S
C306 C310 1.524 . S
C307 C299 1.503 . S
C307 C306 1.370 . S
C307 C308 1.403 . S
C308 C307 1.403 . S
C308 C309 1.404 . S
C308 C311 1.539 . S
C309 C305 1.408 . S
C309 C308 1.404 . S
C309 H321 0.930 . S
C310 C306 1.524 . S
C310 H322 0.956 . S
C310 H323 0.961 . S
C310 H324 0.961 . S
C311 C308 1.539 . S
C311 H325 0.958 . S
C311 H326 0.961 . S
C311 H327 0.960 . S
H312 C296 0.931 . S
H313 C301 0.929 . S
H314 C302 0.960 . S
H315 C302 0.962 . S
H316 C302 0.960 . S
H317 C303 0.961 . S
H318 C303 0.961 . S
H319 C303 0.961 . S
H320 C304 0.931 . S
H321 C309 0.930 . S
H322 C310 0.956 . S
H323 C310 0.961 . S
H324 C310 0.961 . S
H325 C311 0.958 . S
H326 C311 0.961 . S
H327 C311 0.960 . S
C328 C329 1.391 . S
C328 C330 1.394 . S
C328 H344 0.931 . S
C329 C328 1.391 . S
C329 C333 1.376 . S
C330 C328 1.394 . S
C330 C331 1.369 . S
C330 C334 1.531 . S
C331 C330 1.369 . S
C331 C332 1.410 . S
C331 C339 1.503 1_455 S
C332 C331 1.410 . S
C332 C333 1.392 . S
C332 C335 1.511 . S
C333 C329 1.376 . S
C333 C332 1.392 . S
C333 H345 0.929 . S
C334 C330 1.531 . S
C334 H346 0.960 1_455 S
C334 H347 0.962 . S
C334 H348 0.960 . S
C335 C332 1.511 . S
C335 H349 0.961 . S
C335 H350 0.961 . S
C335 H351 0.961 . S
C336 C337 1.370 . S
C336 C338 1.363 . S
C336 H352 0.931 . S
C337 C336 1.370 . S
C337 C341 1.408 . S
C338 C336 1.363 . S
C338 C339 1.370 . S
C338 C342 1.524 . S
C339 C331 1.503 1_655 S
C339 C338 1.370 . S
C339 C340 1.403 . S
C340 C339 1.403 . S
C340 C341 1.404 . S
C340 C343 1.539 . S
C341 C337 1.408 . S
C341 C340 1.404 . S
C341 H353 0.930 . S
C342 C338 1.524 . S
C342 H354 0.956 1_655 S
C342 H355 0.961 1_655 S
C342 H356 0.961 . S
C343 C340 1.539 . S
C343 H357 0.958 . S
C343 H358 0.961 . S
C343 H359 0.960 . S
H344 C328 0.931 . S
H345 C333 0.929 . S
H346 C334 0.960 1_655 S
H347 C334 0.962 . S
H348 C334 0.960 . S
H349 C335 0.961 . S
H350 C335 0.961 . S
H351 C335 0.961 . S
H352 C336 0.931 . S
H353 C341 0.930 . S
H354 C342 0.956 1_455 S
H355 C342 0.961 1_455 S
H356 C342 0.961 . S
H357 C343 0.958 . S
H358 C343 0.961 . S
H359 C343 0.960 . S
C360 C361 1.391 . S
C360 C362 1.394 . S
C360 H376 0.931 . S
C361 C360 1.391 . S
C361 C365 1.376 . S
C362 C360 1.394 . S
C362 C363 1.369 . S
C362 C366 1.531 . S
C363 C362 1.369 . S
C363 C364 1.410 . S
C363 C371 1.503 1_455 S
C364 C363 1.410 . S
C364 C365 1.392 . S
C364 C367 1.511 . S
C365 C361 1.376 . S
C365 C364 1.392 . S
C365 H377 0.929 . S
C366 C362 1.531 . S
C366 H378 0.960 1_455 S
C366 H379 0.962 . S
C366 H380 0.960 . S
C367 C364 1.511 . S
C367 H381 0.961 . S
C367 H382 0.961 . S
C367 H383 0.961 . S
C368 C369 1.370 . S
C368 C370 1.363 . S
C368 H384 0.931 . S
C369 C368 1.370 . S
C369 C373 1.408 . S
C370 C368 1.363 . S
C370 C371 1.370 . S
C370 C374 1.524 . S
C371 C363 1.503 1_655 S
C371 C370 1.370 . S
C371 C372 1.403 . S
C372 C371 1.403 . S
C372 C373 1.404 . S
C372 C375 1.539 . S
C373 C369 1.408 . S
C373 C372 1.404 . S
C373 H385 0.930 . S
C374 C370 1.524 . S
C374 H386 0.956 1_655 S
C374 H387 0.961 1_655 S
C374 H388 0.961 . S
C375 C372 1.539 . S
C375 H389 0.958 . S
C375 H390 0.961 . S
C375 H391 0.960 . S
H376 C360 0.931 . S
H377 C365 0.929 . S
H378 C366 0.960 1_655 S
H379 C366 0.962 . S
H380 C366 0.960 . S
H381 C367 0.961 . S
H382 C367 0.961 . S
H383 C367 0.961 . S
H384 C368 0.931 . S
H385 C373 0.930 . S
H386 C374 0.956 1_455 S
H387 C374 0.961 1_455 S
H388 C374 0.961 . S
H389 C375 0.958 . S
H390 C375 0.961 . S
H391 C375 0.960 . S
C392 C393 1.391 . S
C392 C394 1.394 . S
C392 H408 0.931 . S
C393 C392 1.391 . S
C393 C397 1.376 . S
C394 C392 1.394 . S
C394 C395 1.369 . S
C394 C398 1.531 . S
C395 C394 1.369 . S
C395 C396 1.410 . S
C395 C403 1.503 1_556 S
C396 C395 1.410 . S
C396 C397 1.392 . S
C396 C399 1.511 1_556 S
C397 C393 1.376 . S
C397 C396 1.392 . S
C397 H409 0.929 . S
C398 C394 1.531 . S
C398 H410 0.960 . S
C398 H411 0.962 . S
C398 H412 0.960 . S
C399 C396 1.511 1_554 S
C399 H413 0.961 . S
C399 H414 0.961 . S
C399 H415 0.961 . S
C400 C401 1.370 . S
C400 C402 1.363 . S
C400 H416 0.931 . S
C401 C400 1.370 . S
C401 C405 1.408 . S
C402 C400 1.363 . S
C402 C403 1.370 . S
C402 C406 1.524 . S
C403 C395 1.503 1_554 S
C403 C402 1.370 . S
C403 C404 1.403 . S
C404 C403 1.403 . S
C404 C405 1.404 . S
C404 C407 1.539 1_554 S
C405 C401 1.408 . S
C405 C404 1.404 . S
C405 H417 0.930 . S
C406 C402 1.524 . S
C406 H418 0.956 . S
C406 H419 0.961 . S
C406 H420 0.961 . S
C407 C404 1.539 1_556 S
C407 H421 0.958 . S
C407 H422 0.961 . S
C407 H423 0.960 . S
H408 C392 0.931 . S
H409 C397 0.929 . S
H410 C398 0.960 . S
H411 C398 0.962 . S
H412 C398 0.960 . S
H413 C399 0.961 . S
H414 C399 0.961 . S
H415 C399 0.961 . S
H416 C400 0.931 . S
H417 C405 0.930 . S
H418 C406 0.956 . S
H419 C406 0.961 . S
H420 C406 0.961 . S
H421 C407 0.958 . S
H422 C407 0.961 . S
H423 C407 0.960 . S
C424 C425 1.391 . S
C424 C426 1.394 . S
C424 H440 0.931 . S
C425 C424 1.391 . S
C425 C429 1.376 . S
C426 C424 1.394 . S
C426 C427 1.369 . S
C426 C430 1.531 . S
C427 C426 1.369 . S
C427 C428 1.410 . S
C427 C435 1.503 . S
C428 C427 1.410 . S
C428 C429 1.392 . S
C428 C431 1.511 . S
C429 C425 1.376 . S
C429 C428 1.392 . S
C429 H441 0.929 . S
C430 C426 1.531 . S
C430 H442 0.960 . S
C430 H443 0.962 . S
C430 H444 0.960 . S
C431 C428 1.511 . S
C431 H445 0.961 . S
C431 H446 0.961 . S
C431 H447 0.961 . S
C432 C433 1.370 . S
C432 C434 1.363 . S
C432 H448 0.931 . S
C433 C432 1.370 . S
C433 C437 1.408 . S
C434 C432 1.363 . S
C434 C435 1.370 . S
C434 C438 1.524 . S
C435 C427 1.503 . S
C435 C434 1.370 . S
C435 C436 1.403 . S
C436 C435 1.403 . S
C436 C437 1.404 . S
C436 C439 1.539 . S
C437 C433 1.408 . S
C437 C436 1.404 . S
C437 H449 0.930 . S
C438 C434 1.524 . S
C438 H450 0.956 . S
C438 H451 0.961 . S
C438 H452 0.961 . S
C439 C436 1.539 . S
C439 H453 0.958 . S
C439 H454 0.961 . S
C439 H455 0.960 . S
H440 C424 0.931 . S
H441 C429 0.929 . S
H442 C430 0.960 . S
H443 C430 0.962 . S
H444 C430 0.960 . S
H445 C431 0.961 . S
H446 C431 0.961 . S
H447 C431 0.961 . S
H448 C432 0.931 . S
H449 C437 0.930 . S
H450 C438 0.956 . S
H451 C438 0.961 . S
H452 C438 0.961 . S
H453 C439 0.958 . S
H454 C439 0.961 . S
H455 C439 0.960 . S
C456 C457 1.391 . S
C456 C458 1.394 1_556 S
C456 H472 0.931 . S
C457 C456 1.391 . S
C457 C461 1.376 . S
C458 C456 1.394 1_554 S
C458 C459 1.369 1_554 S
C458 C462 1.531 . S
C459 C458 1.369 1_556 S
C459 C460 1.410 . S
C459 C467 1.503 1_556 S
C460 C459 1.410 . S
C460 C461 1.392 . S
C460 C463 1.511 . S
C461 C457 1.376 . S
C461 C460 1.392 . S
C461 H473 0.929 . S
C462 C458 1.531 . S
C462 H474 0.960 . S
C462 H475 0.962 . S
C462 H476 0.960 . S
C463 C460 1.511 . S
C463 H477 0.961 . S
C463 H478 0.961 . S
C463 H479 0.961 . S
C464 C465 1.370 . S
C464 C466 1.363 . S
C464 H480 0.931 . S
C465 C464 1.370 . S
C465 C469 1.408 . S
C466 C464 1.363 . S
C466 C467 1.370 . S
C466 C470 1.524 1_554 S
C467 C459 1.503 1_554 S
C467 C466 1.370 . S
C467 C468 1.403 . S
C468 C467 1.403 . S
C468 C469 1.404 . S
C468 C471 1.539 . S
C469 C465 1.408 . S
C469 C468 1.404 . S
C469 H481 0.930 . S
C470 C466 1.524 1_556 S
C470 H482 0.956 . S
C470 H483 0.961 . S
C470 H484 0.961 . S
C471 C468 1.539 . S
C471 H485 0.958 . S
C471 H486 0.961 . S
C471 H487 0.960 . S
H472 C456 0.931 . S
H473 C461 0.929 . S
H474 C462 0.960 . S
H475 C462 0.962 . S
H476 C462 0.960 . S
H477 C463 0.961 . S
H478 C463 0.961 . S
H479 C463 0.961 . S
H480 C464 0.931 . S
H481 C469 0.930 . S
H482 C470 0.956 . S
H483 C470 0.961 . S
H484 C470 0.961 . S
H485 C471 0.958 . S
H486 C471 0.961 . S
H487 C471 0.960 . S
C488 C489 1.391 . S
C488 C490 1.394 . S
C488 H504 0.931 . S
C489 C488 1.391 . S
C489 C493 1.376 . S
C490 C488 1.394 . S
C490 C491 1.369 . S
C490 C494 1.531 . S
C491 C490 1.369 . S
C491 C492 1.410 . S
C491 C499 1.503 . S
C492 C491 1.410 . S
C492 C493 1.392 . S
C492 C495 1.511 . S
C493 C489 1.376 . S
C493 C492 1.392 . S
C493 H505 0.929 . S
C494 C490 1.531 . S
C494 H506 0.960 . S
C494 H507 0.962 . S
C494 H508 0.960 . S
C495 C492 1.511 . S
C495 H509 0.961 . S
C495 H510 0.961 . S
C495 H511 0.961 . S
C496 C497 1.370 . S
C496 C498 1.363 . S
C496 H512 0.931 . S
C497 C496 1.370 . S
C497 C501 1.408 . S
C498 C496 1.363 . S
C498 C499 1.370 . S
C498 C502 1.524 . S
C499 C491 1.503 . S
C499 C498 1.370 . S
C499 C500 1.403 . S
C500 C499 1.403 . S
C500 C501 1.404 . S
C500 C503 1.539 . S
C501 C497 1.408 . S
C501 C500 1.404 . S
C501 H513 0.930 . S
C502 C498 1.524 . S
C502 H514 0.956 . S
C502 H515 0.961 . S
C502 H516 0.961 . S
C503 C500 1.539 . S
C503 H517 0.958 . S
C503 H518 0.961 . S
C503 H519 0.960 . S
H504 C488 0.931 . S
H505 C493 0.929 . S
H506 C494 0.960 . S
H507 C494 0.962 . S
H508 C494 0.960 . S
H509 C495 0.961 . S
H510 C495 0.961 . S
H511 C495 0.961 . S
H512 C496 0.931 . S
H513 C501 0.930 . S
H514 C502 0.956 . S
H515 C502 0.961 . S
H516 C502 0.961 . S
H517 C503 0.958 . S
H518 C503 0.961 . S
H519 C503 0.960 . S
C520 C521 1.391 . S
C520 C522 1.394 . S
C520 H536 0.931 . S
C521 C520 1.391 . S
C521 C525 1.376 . S
C522 C520 1.394 . S
C522 C523 1.369 . S
C522 C526 1.531 1_545 S
C523 C522 1.369 . S
C523 C524 1.410 . S
C523 C531 1.503 1_546 S
C524 C523 1.410 . S
C524 C525 1.392 . S
C524 C527 1.511 1_556 S
C525 C521 1.376 . S
C525 C524 1.392 . S
C525 H537 0.929 . S
C526 C522 1.531 1_565 S
C526 H538 0.960 . S
C526 H539 0.962 . S
C526 H540 0.960 . S
C527 C524 1.511 1_554 S
C527 H541 0.961 . S
C527 H542 0.961 . S
C527 H543 0.961 1_554 S
C528 C529 1.370 . S
C528 C530 1.363 . S
C528 H544 0.931 . S
C529 C528 1.370 . S
C529 C533 1.408 . S
C530 C528 1.363 . S
C530 C531 1.370 . S
C530 C534 1.524 1_565 S
C531 C523 1.503 1_564 S
C531 C530 1.370 . S
C531 C532 1.403 . S
C532 C531 1.403 . S
C532 C533 1.404 . S
C532 C535 1.539 1_554 S
C533 C529 1.408 . S
C533 C532 1.404 . S
C533 H545 0.930 . S
C534 C530 1.524 1_545 S
C534 H546 0.956 . S
C534 H547 0.961 . S
C534 H548 0.961 . S
C535 C532 1.539 1_556 S
C535 H549 0.958 . S
C535 H550 0.961 . S
C535 H551 0.960 . S
H536 C520 0.931 . S
H537 C525 0.929 . S
H538 C526 0.960 . S
H539 C526 0.962 . S
H540 C526 0.960 . S
H541 C527 0.961 . S
H542 C527 0.961 . S
H543 C527 0.961 1_556 S
H544 C528 0.931 . S
H545 C533 0.930 . S
H546 C534 0.956 . S
H547 C534 0.961 . S
H548 C534 0.961 . S
H549 C535 0.958 . S
H550 C535 0.961 . S
H551 C535 0.960 . S
C552 C553 1.391 . S
C552 C554 1.394 . S
C552 H568 0.931 . S
C553 C552 1.391 . S
C553 C557 1.376 . S
C554 C552 1.394 . S
C554 C555 1.369 . S
C554 C558 1.531 1_545 S
C555 C554 1.369 . S
C555 C556 1.410 . S
C555 C563 1.503 1_545 S
C556 C555 1.410 . S
C556 C557 1.392 . S
C556 C559 1.511 . S
C557 C553 1.376 . S
C557 C556 1.392 . S
C557 H569 0.929 . S
C558 C554 1.531 1_565 S
C558 H570 0.960 . S
C558 H571 0.962 . S
C558 H572 0.960 . S
C559 C556 1.511 . S
C559 H573 0.961 . S
C559 H574 0.961 . S
C559 H575 0.961 . S
C560 C561 1.370 . S
C560 C562 1.363 . S
C560 H576 0.931 . S
C561 C560 1.370 . S
C561 C565 1.408 . S
C562 C560 1.363 . S
C562 C563 1.370 . S
C562 C566 1.524 1_565 S
C563 C555 1.503 1_565 S
C563 C562 1.370 . S
C563 C564 1.403 . S
C564 C563 1.403 . S
C564 C565 1.404 . S
C564 C567 1.539 . S
C565 C561 1.408 . S
C565 C564 1.404 . S
C565 H577 0.930 . S
C566 C562 1.524 1_545 S
C566 H578 0.956 . S
C566 H579 0.961 . S
C566 H580 0.961 . S
C567 C564 1.539 . S
C567 H581 0.958 . S
C567 H582 0.961 . S
C567 H583 0.960 . S
H568 C552 0.931 . S
H569 C557 0.929 . S
H570 C558 0.960 . S
H571 C558 0.962 . S
H572 C558 0.960 . S
H573 C559 0.961 . S
H574 C559 0.961 . S
H575 C559 0.961 . S
H576 C560 0.931 . S
H577 C565 0.930 . S
H578 C566 0.956 . S
H579 C566 0.961 . S
H580 C566 0.961 . S
H581 C567 0.958 . S
H582 C567 0.961 . S
H583 C567 0.960 . S
C584 C585 1.391 . S
C584 C586 1.394 . S
C584 H600 0.931 . S
C585 C584 1.391 . S
C585 C589 1.376 . S
C586 C584 1.394 . S
C586 C587 1.369 . S
C586 C590 1.527 1_545 S
C587 C586 1.369 . S
C587 C588 1.410 . S
C587 C595 1.503 1_546 S
C588 C587 1.410 . S
C588 C589 1.392 . S
C588 C591 1.511 1_556 S
C589 C585 1.376 . S
C589 C588 1.392 . S
C589 H601 0.929 . S
C590 C586 1.527 1_565 S
C590 H602 0.966 . S
C590 H603 0.960 1_565 S
C590 H604 0.959 1_565 S
C591 C588 1.511 1_554 S
C591 H605 0.961 . S
C591 H606 0.961 . S
C591 H607 0.961 1_554 S
C592 C593 1.370 . S
C592 C594 1.363 . S
C592 H608 0.931 . S
C593 C592 1.370 . S
C593 C597 1.408 . S
C594 C592 1.363 . S
C594 C595 1.370 . S
C594 C598 1.524 1_565 S
C595 C587 1.503 1_564 S
C595 C594 1.370 . S
C595 C596 1.403 1_554 S
C596 C595 1.403 1_556 S
C596 C597 1.404 1_556 S
C596 C599 1.539 . S
C597 C593 1.408 . S
C597 C596 1.404 1_554 S
C597 H609 0.930 . S
C598 C594 1.524 1_545 S
C598 H610 0.956 . S
C598 H611 0.961 . S
C598 H612 0.961 . S
C599 C596 1.539 . S
C599 H613 0.958 . S
C599 H614 0.961 . S
C599 H615 0.960 . S
H600 C584 0.931 . S
H601 C589 0.929 . S
H602 C590 0.966 . S
H603 C590 0.960 1_545 S
H604 C590 0.959 1_545 S
H605 C591 0.961 . S
H606 C591 0.961 . S
H607 C591 0.961 1_556 S
H608 C592 0.931 . S
H609 C597 0.930 . S
H610 C598 0.956 . S
H611 C598 0.961 . S
H612 C598 0.961 . S
H613 C599 0.958 . S
H614 C599 0.961 . S
H615 C599 0.960 . S
C616 C617 1.391 . S
C616 C618 1.394 . S
C616 H632 0.931 . S
C617 C616 1.391 . S
C617 C621 1.376 . S
C618 C616 1.394 . S
C618 C619 1.369 . S
C618 C622 1.531 1_545 S
C619 C618 1.369 . S
C619 C620 1.410 . S
C619 C627 1.503 1_545 S
C620 C619 1.410 . S
C620 C621 1.392 . S
C620 C623 1.511 . S
C621 C617 1.376 . S
C621 C620 1.392 . S
C621 H633 0.929 . S
C622 C618 1.531 1_565 S
C622 H634 0.960 . S
C622 H635 0.962 . S
C622 H636 0.960 . S
C623 C620 1.511 . S
C623 H637 0.961 . S
C623 H638 0.961 . S
C623 H639 0.961 . S
C624 C625 1.370 . S
C624 C626 1.363 . S
C624 H640 0.931 . S
C625 C624 1.370 . S
C625 C629 1.408 . S
C626 C624 1.363 . S
C626 C627 1.370 . S
C626 C630 1.524 . S
C627 C619 1.503 1_565 S
C627 C626 1.370 . S
C627 C628 1.403 . S
C628 C627 1.403 . S
C628 C629 1.404 . S
C628 C631 1.539 . S
C629 C625 1.408 . S
C629 C628 1.404 . S
C629 H641 0.930 . S
C630 C626 1.524 . S
C630 H642 0.956 . S
C630 H643 0.961 1_565 S
C630 H644 0.961 . S
C631 C628 1.539 . S
C631 H645 0.958 . S
C631 H646 0.961 . S
C631 H647 0.960 1_565 S
H632 C616 0.931 . S
H633 C621 0.929 . S
H634 C622 0.960 . S
H635 C622 0.962 . S
H636 C622 0.960 . S
H637 C623 0.961 . S
H638 C623 0.961 . S
H639 C623 0.961 . S
H640 C624 0.931 . S
H641 C629 0.930 . S
H642 C630 0.956 . S
H643 C630 0.961 1_545 S
H644 C630 0.961 . S
H645 C631 0.958 . S
H646 C631 0.961 . S
H647 C631 0.960 1_545 S
C648 C649 1.391 . S
C648 C650 1.394 . S
C648 H664 0.931 . S
C649 C648 1.391 . S
C649 C653 1.376 . S
C650 C648 1.394 . S
C650 C651 1.369 . S
C650 C654 1.531 . S
C651 C650 1.369 . S
C651 C652 1.410 . S
C651 C659 1.503 . S
C652 C651 1.410 . S
C652 C653 1.392 . S
C652 C655 1.511 . S
C653 C649 1.376 . S
C653 C652 1.392 . S
C653 H665 0.929 . S
C654 C650 1.531 . S
C654 H666 0.960 . S
C654 H667 0.962 . S
C654 H668 0.960 . S
C655 C652 1.511 . S
C655 H669 0.961 . S
C655 H670 0.961 . S
C655 H671 0.961 . S
C656 C657 1.370 . S
C656 C658 1.363 1_556 S
C656 H672 0.931 . S
C657 C656 1.370 . S
C657 C661 1.408 1_556 S
C658 C656 1.363 1_554 S
C658 C659 1.370 . S
C658 C662 1.524 1_554 S
C659 C651 1.503 . S
C659 C658 1.370 . S
C659 C660 1.403 . S
C660 C659 1.403 . S
C660 C661 1.404 . S
C660 C663 1.539 . S
C661 C657 1.408 1_554 S
C661 C660 1.404 . S
C661 H673 0.930 . S
C662 C658 1.524 1_556 S
C662 H674 0.956 . S
C662 H675 0.961 . S
C662 H676 0.961 . S
C663 C660 1.539 . S
C663 H677 0.958 . S
C663 H678 0.961 . S
C663 H679 0.960 . S
H664 C648 0.931 . S
H665 C653 0.929 . S
H666 C654 0.960 . S
H667 C654 0.962 . S
H668 C654 0.960 . S
H669 C655 0.961 . S
H670 C655 0.961 . S
H671 C655 0.961 . S
H672 C656 0.931 . S
H673 C661 0.930 . S
H674 C662 0.956 . S
H675 C662 0.961 . S
H676 C662 0.961 . S
H677 C663 0.958 . S
H678 C663 0.961 . S
H679 C663 0.960 . S
C680 C681 1.391 . S
C680 C682 1.394 . S
C680 H696 0.931 . S
C681 C680 1.391 . S
C681 C685 1.376 . S
C682 C680 1.394 . S
C682 C683 1.369 . S
C682 C686 1.531 . S
C683 C682 1.369 . S
C683 C684 1.410 . S
C683 C691 1.503 . S
C684 C683 1.410 . S
C684 C685 1.392 . S
C684 C687 1.511 . S
C685 C681 1.376 . S
C685 C684 1.392 . S
C685 H697 0.929 . S
C686 C682 1.531 . S
C686 H698 0.960 . S
C686 H699 0.962 . S
C686 H700 0.960 . S
C687 C684 1.511 . S
C687 H701 0.961 . S
C687 H702 0.961 . S
C687 H703 0.961 . S
C688 C689 1.370 . S
C688 C690 1.363 . S
C688 H704 0.931 . S
C689 C688 1.370 . S
C689 C693 1.408 . S
C690 C688 1.363 . S
C690 C691 1.370 . S
C690 C694 1.524 . S
C691 C683 1.503 . S
C691 C690 1.370 . S
C691 C692 1.403 . S
C692 C691 1.403 . S
C692 C693 1.404 . S
C692 C695 1.539 . S
C693 C689 1.408 . S
C693 C692 1.404 . S
C693 H705 0.930 . S
C694 C690 1.524 . S
C694 H706 0.956 . S
C694 H707 0.961 . S
C694 H708 0.961 . S
C695 C692 1.539 . S
C695 H709 0.958 . S
C695 H710 0.961 . S
C695 H711 0.960 . S
H696 C680 0.931 . S
H697 C685 0.929 . S
H698 C686 0.960 . S
H699 C686 0.962 . S
H700 C686 0.960 . S
H701 C687 0.961 . S
H702 C687 0.961 . S
H703 C687 0.961 . S
H704 C688 0.931 . S
H705 C693 0.930 . S
H706 C694 0.956 . S
H707 C694 0.961 . S
H708 C694 0.961 . S
H709 C695 0.958 . S
H710 C695 0.961 . S
H711 C695 0.960 . S
C712 C713 1.391 . S
C712 C714 1.394 . S
C712 H728 0.931 . S
C713 C712 1.391 . S
C713 C717 1.376 1_554 S
C714 C712 1.394 . S
C714 C715 1.369 1_554 S
C714 C718 1.531 . S
C715 C714 1.369 1_556 S
C715 C716 1.410 . S
C715 C723 1.503 . S
C716 C715 1.410 . S
C716 C717 1.392 . S
C716 C719 1.511 . S
C717 C713 1.376 1_556 S
C717 C716 1.392 . S
C717 H729 0.929 . S
C718 C714 1.531 . S
C718 H730 0.960 . S
C718 H731 0.962 . S
C718 H732 0.960 . S
C719 C716 1.511 . S
C719 H733 0.961 . S
C719 H734 0.961 . S
C719 H735 0.961 . S
C720 C721 1.370 . S
C720 C722 1.363 . S
C720 H736 0.931 . S
C721 C720 1.370 . S
C721 C725 1.408 . S
C722 C720 1.363 . S
C722 C723 1.370 . S
C722 C726 1.524 . S
C723 C715 1.503 . S
C723 C722 1.370 . S
C723 C724 1.403 . S
C724 C723 1.403 . S
C724 C725 1.404 . S
C724 C727 1.539 . S
C725 C721 1.408 . S
C725 C724 1.404 . S
C725 H737 0.930 . S
C726 C722 1.524 . S
C726 H738 0.956 . S
C726 H739 0.961 . S
C726 H740 0.961 . S
C727 C724 1.539 . S
C727 H741 0.958 . S
C727 H742 0.961 . S
C727 H743 0.960 . S
H728 C712 0.931 . S
H729 C717 0.929 . S
H730 C718 0.960 . S
H731 C718 0.962 . S
H732 C718 0.960 . S
H733 C719 0.961 . S
H734 C719 0.961 . S
H735 C719 0.961 . S
H736 C720 0.931 . S
H737 C725 0.930 . S
H738 C726 0.956 . S
H739 C726 0.961 . S
H740 C726 0.961 . S
H741 C727 0.958 . S
H742 C727 0.961 . S
H743 C727 0.960 . S
C744 C745 1.391 . S
C744 C746 1.394 . S
C744 H760 0.931 . S
C745 C744 1.391 . S
C745 C749 1.376 . S
C746 C744 1.394 . S
C746 C747 1.369 . S
C746 C750 1.531 . S
C747 C746 1.369 . S
C747 C748 1.410 . S
C747 C755 1.503 . S
C748 C747 1.410 . S
C748 C749 1.392 . S
C748 C751 1.511 . S
C749 C745 1.376 . S
C749 C748 1.392 . S
C749 H761 0.929 . S
C750 C746 1.531 . S
C750 H762 0.960 . S
C750 H763 0.962 . S
C750 H764 0.960 . S
C751 C748 1.511 . S
C751 H765 0.961 . S
C751 H766 0.961 . S
C751 H767 0.961 . S
C752 C753 1.370 . S
C752 C754 1.363 . S
C752 H768 0.931 . S
C753 C752 1.370 . S
C753 C757 1.408 . S
C754 C752 1.363 . S
C754 C755 1.370 . S
C754 C758 1.524 . S
C755 C747 1.503 . S
C755 C754 1.370 . S
C755 C756 1.403 . S
C756 C755 1.403 . S
C756 C757 1.404 . S
C756 C759 1.539 . S
C757 C753 1.408 . S
C757 C756 1.404 . S
C757 H769 0.930 . S
C758 C754 1.524 . S
C758 H770 0.956 . S
C758 H771 0.961 . S
C758 H772 0.961 . S
C759 C756 1.539 . S
C759 H773 0.958 . S
C759 H774 0.961 . S
C759 H775 0.960 . S
H760 C744 0.931 . S
H761 C749 0.929 . S
H762 C750 0.960 . S
H763 C750 0.962 . S
H764 C750 0.960 . S
H765 C751 0.961 . S
H766 C751 0.961 . S
H767 C751 0.961 . S
H768 C752 0.931 . S
H769 C757 0.930 . S
H770 C758 0.956 . S
H771 C758 0.961 . S
H772 C758 0.961 . S
H773 C759 0.958 . S
H774 C759 0.961 . S
H775 C759 0.960 . S
C776 C777 1.391 . S
C776 C778 1.394 1_556 S
C776 H792 0.931 . S
C777 C776 1.391 . S
C777 C781 1.376 1_556 S
C778 C776 1.394 1_554 S
C778 C779 1.369 . S
C778 C782 1.531 . S
C779 C778 1.369 . S
C779 C780 1.410 . S
C779 C787 1.503 . S
C780 C779 1.410 . S
C780 C781 1.392 . S
C780 C783 1.511 . S
C781 C777 1.376 1_554 S
C781 C780 1.392 . S
C781 H793 0.929 . S
C782 C778 1.531 . S
C782 H794 0.960 . S
C782 H795 0.962 . S
C782 H796 0.960 1_554 S
C783 C780 1.511 . S
C783 H797 0.961 . S
C783 H798 0.961 . S
C783 H799 0.961 . S
C784 C785 1.370 . S
C784 C786 1.363 . S
C784 H800 0.931 . S
C785 C784 1.370 . S
C785 C789 1.408 . S
C786 C784 1.363 . S
C786 C787 1.370 . S
C786 C790 1.524 . S
C787 C779 1.503 . S
C787 C786 1.370 . S
C787 C788 1.403 . S
C788 C787 1.403 . S
C788 C789 1.404 . S
C788 C791 1.539 . S
C789 C785 1.408 . S
C789 C788 1.404 . S
C789 H801 0.930 . S
C790 C786 1.524 . S
C790 H802 0.956 . S
C790 H803 0.961 . S
C790 H804 0.961 . S
C791 C788 1.539 . S
C791 H805 0.958 1_554 S
C791 H806 0.961 . S
C791 H807 0.960 1_554 S
H792 C776 0.931 . S
H793 C781 0.929 . S
H794 C782 0.960 . S
H795 C782 0.962 . S
H796 C782 0.960 1_556 S
H797 C783 0.961 . S
H798 C783 0.961 . S
H799 C783 0.961 . S
H800 C784 0.931 . S
H801 C789 0.930 . S
H802 C790 0.956 . S
H803 C790 0.961 . S
H804 C790 0.961 . S
H805 C791 0.958 1_556 S
H806 C791 0.961 . S
H807 C791 0.960 1_556 S
C808 C809 1.391 . S
C808 C810 1.394 . S
C808 H824 0.931 . S
C809 C808 1.391 . S
C809 C813 1.376 . S
C810 C808 1.394 . S
C810 C811 1.369 . S
C810 C814 1.531 . S
C811 C810 1.369 . S
C811 C812 1.410 . S
C811 C819 1.503 . S
C812 C811 1.410 . S
C812 C813 1.392 . S
C812 C815 1.511 . S
C813 C809 1.376 . S
C813 C812 1.392 . S
C813 H825 0.929 . S
C814 C810 1.531 . S
C814 H826 0.960 . S
C814 H827 0.962 . S
C814 H828 0.960 . S
C815 C812 1.511 . S
C815 H829 0.961 . S
C815 H830 0.961 . S
C815 H831 0.961 . S
C816 C817 1.370 . S
C816 C818 1.363 . S
C816 H832 0.931 . S
C817 C816 1.370 . S
C817 C821 1.408 . S
C818 C816 1.363 . S
C818 C819 1.370 . S
C818 C822 1.524 . S
C819 C811 1.503 . S
C819 C818 1.370 . S
C819 C820 1.403 . S
C820 C819 1.403 . S
C820 C821 1.404 . S
C820 C823 1.539 . S
C821 C817 1.408 . S
C821 C820 1.404 . S
C821 H833 0.930 . S
C822 C818 1.524 . S
C822 H834 0.956 . S
C822 H835 0.961 . S
C822 H836 0.961 . S
C823 C820 1.539 . S
C823 H837 0.958 . S
C823 H838 0.961 . S
C823 H839 0.960 . S
H824 C808 0.931 . S
H825 C813 0.929 . S
H826 C814 0.960 . S
H827 C814 0.962 . S
H828 C814 0.960 . S
H829 C815 0.961 . S
H830 C815 0.961 . S
H831 C815 0.961 . S
H832 C816 0.931 . S
H833 C821 0.930 . S
H834 C822 0.956 . S
H835 C822 0.961 . S
H836 C822 0.961 . S
H837 C823 0.958 . S
H838 C823 0.961 . S
H839 C823 0.960 . S
C840 C841 1.391 . S
C840 C842 1.394 . S
C840 H856 0.931 . S
C841 C840 1.391 . S
C841 C845 1.376 . S
C842 C840 1.394 . S
C842 C843 1.369 . S
C842 C846 1.531 . S
C843 C842 1.369 . S
C843 C844 1.410 . S
C843 C851 1.503 . S
C844 C843 1.410 . S
C844 C845 1.392 . S
C844 C847 1.511 . S
C845 C841 1.376 . S
C845 C844 1.392 . S
C845 H857 0.929 . S
C846 C842 1.531 . S
C846 H858 0.960 . S
C846 H859 0.962 . S
C846 H860 0.960 . S
C847 C844 1.511 . S
C847 H861 0.961 . S
C847 H862 0.961 . S
C847 H863 0.961 . S
C848 C849 1.370 . S
C848 C850 1.363 1_554 S
C848 H864 0.931 . S
C849 C848 1.370 . S
C849 C853 1.408 1_554 S
C850 C848 1.363 1_556 S
C850 C851 1.370 . S
C850 C854 1.524 . S
C851 C843 1.503 . S
C851 C850 1.370 . S
C851 C852 1.403 . S
C852 C851 1.403 . S
C852 C853 1.404 . S
C852 C855 1.539 . S
C853 C849 1.408 1_556 S
C853 C852 1.404 . S
C853 H865 0.930 . S
C854 C850 1.524 . S
C854 H866 0.956 . S
C854 H867 0.961 . S
C854 H868 0.961 1_556 S
C855 C852 1.539 . S
C855 H869 0.958 . S
C855 H870 0.961 . S
C855 H871 0.960 . S
H856 C840 0.931 . S
H857 C845 0.929 . S
H858 C846 0.960 . S
H859 C846 0.962 . S
H860 C846 0.960 . S
H861 C847 0.961 . S
H862 C847 0.961 . S
H863 C847 0.961 . S
H864 C848 0.931 . S
H865 C853 0.930 . S
H866 C854 0.956 . S
H867 C854 0.961 . S
H868 C854 0.961 1_554 S
H869 C855 0.958 . S
H870 C855 0.961 . S
H871 C855 0.960 . S
C872 C873 1.391 . S
C872 C874 1.394 . S
C872 H888 0.931 . S
C873 C872 1.391 . S
C873 C877 1.376 . S
C874 C872 1.394 . S
C874 C875 1.369 . S
C874 C878 1.531 . S
C875 C874 1.369 . S
C875 C876 1.410 . S
C875 C883 1.503 . S
C876 C875 1.410 . S
C876 C877 1.392 . S
C876 C879 1.511 . S
C877 C873 1.376 . S
C877 C876 1.392 . S
C877 H889 0.929 . S
C878 C874 1.531 . S
C878 H890 0.960 . S
C878 H891 0.962 . S
C878 H892 0.960 . S
C879 C876 1.511 . S
C879 H893 0.961 . S
C879 H894 0.961 . S
C879 H895 0.961 . S
C880 C881 1.370 . S
C880 C882 1.363 . S
C880 H896 0.931 . S
C881 C880 1.370 . S
C881 C885 1.408 . S
C882 C880 1.363 . S
C882 C883 1.370 . S
C882 C886 1.524 . S
C883 C875 1.503 . S
C883 C882 1.370 . S
C883 C884 1.403 . S
C884 C883 1.403 . S
C884 C885 1.404 . S
C884 C887 1.539 . S
C885 C881 1.408 . S
C885 C884 1.404 . S
C885 H897 0.930 . S
C886 C882 1.524 . S
C886 H898 0.956 . S
C886 H899 0.961 . S
C886 H900 0.961 . S
C887 C884 1.539 . S
C887 H901 0.958 . S
C887 H902 0.961 . S
C887 H903 0.960 . S
H888 C872 0.931 . S
H889 C877 0.929 . S
H890 C878 0.960 . S
H891 C878 0.962 . S
H892 C878 0.960 . S
H893 C879 0.961 . S
H894 C879 0.961 . S
H895 C879 0.961 . S
H896 C880 0.931 . S
H897 C885 0.930 . S
H898 C886 0.956 . S
H899 C886 0.961 . S
H900 C886 0.961 . S
H901 C887 0.958 . S
H902 C887 0.961 . S
H903 C887 0.960 . S
C265 C17 1.471 . S
C273 C116 1.491 . S
C297 C50 1.473 . S
C305 C83 1.486 . S
C329 C248 1.508 . S
C337 C149 1.496 . S
C361 C182 1.508 . S
C369 C215 1.497 . S
C393 N71 1.156 . S
C401 N5 1.119 . S
C425 N104 1.103 . S
C433 N38 1.134 . S
C457 C61 1.554 . S
C465 C127 1.563 . S
C489 C28 1.552 . S
C497 C94 1.562 . S
C521 N203 1.155 . S
C529 N137 1.117 . S
C553 N170 1.156 . S
C561 N236 1.120 . S
C585 C193 1.569 . S
C593 C259 1.572 . S
C617 C226 1.580 . S
C625 C160 1.574 . S
C649 C8 1.357 . S
C657 N179 1.339 . S
C681 C41 1.359 . S
C689 N146 1.339 . S
C713 N245 1.352 . S
C721 C74 1.356 . S
C745 C107 1.340 . S
C753 N212 1.337 . S
C777 N47 1.365 . S
C785 C140 1.350 . S
C809 C173 1.345 . S
C817 N14 1.337 . S
C841 C206 1.366 . S
C849 N113 1.344 . S
C873 C239 1.337 . S
C881 N80 1.356 . S
