# Generated by pormake.
# Topology acs-i, (5)-cn, num edge types: 1
# Building blocks:
#     Node 0, Type 0, BuildingBlock: XOMCOT_clean_sbu_1, # of connection points: 5
#     Node 1, Type 0, BuildingBlock: XOMCOT_clean_sbu_1, # of connection points: 5
#     Node 2, Type 0, BuildingBlock: XOMCOT_clean_sbu_1, # of connection points: 5
#     Node 3, Type 0, BuildingBlock: XOMCOT_clean_sbu_1, # of connection points: 5
#     Node 4, Type 0, BuildingBlock: XOMCOT_clean_sbu_1, # of connection points: 5
#     Node 5, Type 0, BuildingBlock: XOMCOT_clean_sbu_1, # of connection points: 5
#     Node 6, Type 0, BuildingBlock: XOMCOT_clean_sbu_1, # of connection points: 5
#     Node 7, Type 0, BuildingBlock: XOMCOT_clean_sbu_1, # of connection points: 5
#     Node 8, Type 0, BuildingBlock: XOMCOT_clean_sbu_1, # of connection points: 5
#     Node 9, Type 0, BuildingBlock: XOMCOT_clean_sbu_1, # of connection points: 5
#     Node 10, Type 0, BuildingBlock: XOMCOT_clean_sbu_1, # of connection points: 5
#     Node 11, Type 0, BuildingBlock: XOMCOT_clean_sbu_1, # of connection points: 5
#     Edge 12, Type (0, 0), BuildingBlock: EZIPEK_clean_linker_0, # of connection points: 2
#     Edge 13, Type (0, 0), BuildingBlock: EZIPEK_clean_linker_0, # of connection points: 2
#     Edge 14, Type (0, 0), BuildingBlock: EZIPEK_clean_linker_0, # of connection points: 2
#     Edge 15, Type (0, 0), BuildingBlock: EZIPEK_clean_linker_0, # of connection points: 2
#     Edge 16, Type (0, 0), BuildingBlock: EZIPEK_clean_linker_0, # of connection points: 2
#     Edge 17, Type (0, 0), BuildingBlock: EZIPEK_clean_linker_0, # of connection points: 2
#     Edge 18, Type (0, 0), BuildingBlock: EZIPEK_clean_linker_0, # of connection points: 2
#     Edge 19, Type (0, 0), BuildingBlock: EZIPEK_clean_linker_0, # of connection points: 2
#     Edge 20, Type (0, 0), BuildingBlock: EZIPEK_clean_linker_0, # of connection points: 2
#     Edge 21, Type (0, 0), BuildingBlock: EZIPEK_clean_linker_0, # of connection points: 2
#     Edge 22, Type (0, 0), BuildingBlock: EZIPEK_clean_linker_0, # of connection points: 2
#     Edge 23, Type (0, 0), BuildingBlock: EZIPEK_clean_linker_0, # of connection points: 2
#     Edge 24, Type (0, 0), BuildingBlock: EZIPEK_clean_linker_0, # of connection points: 2
#     Edge 25, Type (0, 0), BuildingBlock: EZIPEK_clean_linker_0, # of connection points: 2
#     Edge 26, Type (0, 0), BuildingBlock: EZIPEK_clean_linker_0, # of connection points: 2
#     Edge 27, Type (0, 0), BuildingBlock: EZIPEK_clean_linker_0, # of connection points: 2
#     Edge 28, Type (0, 0), BuildingBlock: EZIPEK_clean_linker_0, # of connection points: 2
#     Edge 29, Type (0, 0), BuildingBlock: EZIPEK_clean_linker_0, # of connection points: 2
#     Edge 30, Type (0, 0), BuildingBlock: EZIPEK_clean_linker_0, # of connection points: 2
#     Edge 31, Type (0, 0), BuildingBlock: EZIPEK_clean_linker_0, # of connection points: 2
#     Edge 32, Type (0, 0), BuildingBlock: EZIPEK_clean_linker_0, # of connection points: 2
#     Edge 33, Type (0, 0), BuildingBlock: EZIPEK_clean_linker_0, # of connection points: 2
#     Edge 34, Type (0, 0), BuildingBlock: EZIPEK_clean_linker_0, # of connection points: 2
#     Edge 35, Type (0, 0), BuildingBlock: EZIPEK_clean_linker_0, # of connection points: 2
#     Edge 36, Type (0, 0), BuildingBlock: EZIPEK_clean_linker_0, # of connection points: 2
#     Edge 37, Type (0, 0), BuildingBlock: EZIPEK_clean_linker_0, # of connection points: 2
#     Edge 38, Type (0, 0), BuildingBlock: EZIPEK_clean_linker_0, # of connection points: 2
#     Edge 39, Type (0, 0), BuildingBlock: EZIPEK_clean_linker_0, # of connection points: 2
#     Edge 40, Type (0, 0), BuildingBlock: EZIPEK_clean_linker_0, # of connection points: 2
#     Edge 41, Type (0, 0), BuildingBlock: EZIPEK_clean_linker_0, # of connection points: 2
# Relax obj value: 0.874
# Max RMSD: 0.208
# Mean RMSD: 0.208
data_MOF--net-acs-i--node1-XOMCOT_clean_sbu_1--edge1-EZIPEK_clean_linker_0
_symmetry_space_group_name_H-M    P1
_symmetry_Int_Tables_number       1
_symmetry_cell_setting            triclinic
loop_
_symmetry_equiv_pos_as_xyz
'x, y, z'
_cell_length_a     33.139993
_cell_length_b     33.065612
_cell_length_c     37.656415
_cell_angle_alpha  89.941484
_cell_angle_beta   89.981225
_cell_angle_gamma 119.96491
loop_
_atom_site_label
_atom_site_type_symbol
_atom_site_fract_x
_atom_site_fract_y
_atom_site_fract_z
_atom_type_partial_charge
C0 C 0.35984 0.55378 0.08229 0.0
C1 C 0.39364 0.60038 0.08205 0.0
N2 N 0.4184 0.60935 0.11224 0.0
N3 N 0.36328 0.534 0.11262 0.0
C4 C 0.39951 0.56885 0.13012 0.0
H5 H 0.33462 0.53553 0.06167 0.0
Co6 Co 0.32547 0.4728 0.12771 0.0
C7 C 0.36314 0.47201 0.19895 0.0
O8 O 0.35957 0.43152 0.19178 0.0
N9 N 0.28649 0.41088 0.14369 0.0
C10 C 0.24124 0.33377 0.1508 0.0
C11 C 0.27745 0.36852 0.13158 0.0
C12 C 0.25601 0.40067 0.17059 0.0
N13 N 0.22805 0.35454 0.17505 0.0
O14 O 0.27772 0.488 0.13705 0.0
H15 H 0.29451 0.36241 0.10958 0.0
H16 H 0.25311 0.4267 0.18601 0.0
O17 O 0.35024 0.49094 0.17537 0.0
C18 C 0.24336 0.47 0.11559 0.0
O19 O 0.23712 0.43471 0.09569 0.0
N20 N 0.37177 0.46012 0.11374 0.0
C21 C 0.44058 0.47498 0.06511 0.0
C22 C 0.45281 0.4933 0.09944 0.0
C23 C 0.41753 0.48448 0.12392 0.0
C24 C 0.35985 0.44014 0.08106 0.0
C25 C 0.39362 0.44553 0.05686 0.0
H26 H 0.42756 0.50268 0.14892 0.0
H27 H 0.32425 0.425 0.072 0.0
H28 H 0.41229 0.56524 0.15564 0.0
H29 H 0.3999 0.62558 0.06134 0.0
H30 H 0.22477 0.2965 0.14649 0.0
H31 H 0.48884 0.51705 0.1063 0.0
H32 H 0.38309 0.43152 0.03031 0.0
C33 C 0.74784 0.30733 0.59573 0.0
C34 C 0.73392 0.34015 0.59425 0.0
N35 N 0.76623 0.37864 0.61104 0.0
N36 N 0.78885 0.3254 0.61313 0.0
C37 C 0.79909 0.36905 0.62202 0.0
H38 H 0.72829 0.27182 0.58616 0.0
Co39 Co 0.81646 0.29131 0.62819 0.0
C40 C 0.89611 0.35765 0.67597 0.0
O41 O 0.91927 0.33508 0.67357 0.0
N42 N 0.84265 0.25558 0.64392 0.0
C43 C 0.86279 0.20058 0.64637 0.0
C44 C 0.86117 0.23391 0.62515 0.0
C45 C 0.83468 0.23587 0.67639 0.0
N46 N 0.84445 0.20114 0.67813 0.0
O47 O 0.77035 0.26612 0.66411 0.0
H48 H 0.86884 0.23866 0.59705 0.0
H49 H 0.81764 0.24353 0.69772 0.0
O50 O 0.85782 0.34313 0.65916 0.0
C51 C 0.73779 0.22604 0.65478 0.0
O52 O 0.74531 0.20677 0.62689 0.0
N53 N 0.85668 0.3132 0.58968 0.0
C54 C 0.89919 0.34132 0.52404 0.0
C55 C 0.92521 0.35939 0.55512 0.0
C56 C 0.90321 0.34453 0.58798 0.0
C57 C 0.83186 0.2933 0.55956 0.0
C58 C 0.85222 0.30745 0.52629 0.0
H59 H 0.92377 0.35861 0.61144 0.0
H60 H 0.79548 0.26696 0.56146 0.0
H61 H 0.82829 0.39268 0.63799 0.0
H62 H 0.7021 0.33583 0.58268 0.0
H63 H 0.87186 0.17482 0.63799 0.0
H64 H 0.96196 0.38508 0.55391 0.0
H65 H 0.83157 0.29241 0.50259 0.0
C66 C 0.50511 0.82372 0.10413 0.0
C67 C 0.4581 0.80365 0.09759 0.0
N68 N 0.43893 0.81409 0.12498 0.0
N69 N 0.51502 0.84651 0.13541 0.0
C70 C 0.47381 0.83989 0.14756 0.0
H71 H 0.53033 0.82089 0.08769 0.0
Co72 Co 0.57192 0.87143 0.15799 0.0
C73 C 0.56064 0.91082 0.22512 0.0
O74 O 0.60151 0.94817 0.22012 0.0
N75 N 0.62977 0.8946 0.18127 0.0
C76 C 0.70461 0.92094 0.19419 0.0
C77 C 0.67414 0.92588 0.17195 0.0
C78 C 0.63447 0.87262 0.20983 0.0
N79 N 0.67911 0.88684 0.21755 0.0
O80 O 0.55381 0.81024 0.17177 0.0
H81 H 0.68436 0.94851 0.14905 0.0
H82 H 0.60552 0.84351 0.22308 0.0
O83 O 0.54501 0.87933 0.2012 0.0
C84 C 0.56913 0.78702 0.1555 0.0
O85 O 0.61112 0.80901 0.14173 0.0
N86 N 0.58697 0.92974 0.14018 0.0
C87 C 0.5726 0.97517 0.08393 0.0
C88 C 0.5508 0.97134 0.11657 0.0
C89 C 0.5589 0.94878 0.14478 0.0
C90 C 0.61138 0.93699 0.10949 0.0
C91 C 0.60539 0.96048 0.08121 0.0
H92 H 0.53697 0.94063 0.16789 0.0
H93 H 0.62987 0.91828 0.10477 0.0
H94 H 0.46884 0.85245 0.17276 0.0
H95 H 0.43931 0.78263 0.07487 0.0
H96 H 0.74209 0.93798 0.19147 0.0
H97 H 0.52456 0.98156 0.11914 0.0
H98 H 0.62205 0.96222 0.05603 0.0
C99 C 0.62125 0.45286 0.59097 0.0
C100 C 0.58937 0.40554 0.59168 0.0
N101 N 0.56447 0.39662 0.62177 0.0
N102 N 0.61613 0.47287 0.62058 0.0
C103 C 0.58107 0.43745 0.6386 0.0
H104 H 0.64696 0.4713 0.57059 0.0
Co105 Co 0.65271 0.53405 0.63619 0.0
C106 C 0.60967 0.53136 0.70637 0.0
O107 O 0.60845 0.56979 0.70008 0.0
N108 N 0.69039 0.59591 0.65302 0.0
C109 C 0.73403 0.67329 0.65968 0.0
C110 C 0.69566 0.63771 0.64295 0.0
C111 C 0.72436 0.60732 0.67722 0.0
N112 N 0.75204 0.6536 0.68077 0.0
O113 O 0.69772 0.51747 0.64943 0.0
H114 H 0.67494 0.64295 0.62339 0.0
H115 H 0.73112 0.58229 0.69048 0.0
O116 O 0.62523 0.51587 0.6823 0.0
C117 C 0.73424 0.5311 0.63074 0.0
O118 O 0.74934 0.56876 0.61106 0.0
N119 N 0.60819 0.54714 0.61896 0.0
C120 C 0.54578 0.52787 0.56406 0.0
C121 C 0.52936 0.50966 0.59801 0.0
C122 C 0.56146 0.52075 0.6257 0.0
C123 C 0.62384 0.56768 0.58673 0.0
C124 C 0.59308 0.5598 0.55927 0.0
H125 H 0.54907 0.50246 0.6506 0.0
H126 H 0.66067 0.585 0.58075 0.0
H127 H 0.56789 0.4406 0.66405 0.0
H128 H 0.58528 0.37975 0.57217 0.0
H129 H 0.74946 0.71035 0.65474 0.0
H130 H 0.49297 0.48429 0.60228 0.0
H131 H 0.6068 0.57399 0.5332 0.0
C132 C 0.17201 0.65146 0.06681 0.0
C133 C 0.1764 0.61309 0.05991 0.0
N134 N 0.16726 0.58718 0.08989 0.0
N135 N 0.16177 0.6513 0.10128 0.0
C136 C 0.16107 0.61309 0.11486 0.0
H137 H 0.17702 0.67842 0.04812 0.0
Co138 Co 0.15008 0.69465 0.12399 0.0
C139 C 0.09017 0.62745 0.18276 0.0
O140 O 0.04972 0.61925 0.17052 0.0
N141 N 0.13903 0.73861 0.14737 0.0
C142 C 0.11606 0.76889 0.19017 0.0
C143 C 0.10257 0.73136 0.16789 0.0
C144 C 0.17234 0.78253 0.15516 0.0
N145 N 0.16057 0.80055 0.18269 0.0
O146 O 0.21163 0.72293 0.14363 0.0
H147 H 0.06955 0.69955 0.169 0.0
H148 H 0.20722 0.79826 0.14496 0.0
O149 O 0.12702 0.6542 0.16524 0.0
C150 C 0.24404 0.74692 0.12147 0.0
O151 O 0.23267 0.75367 0.08949 0.0
N152 N 0.09215 0.66821 0.10177 0.0
C153 C 0.03519 0.63595 0.04282 0.0
C154 C 0.03641 0.60424 0.0667 0.0
C155 C 0.06534 0.62118 0.09627 0.0
C156 C 0.08744 0.69904 0.08056 0.0
C157 C 0.0585 0.6835 0.051 0.0
H158 H 0.07055 0.59677 0.1119 0.0
H159 H 0.11033 0.73616 0.0839 0.0
H160 H 0.15816 0.60586 0.14293 0.0
H161 H 0.18786 0.60669 0.03476 0.0
H162 H 0.09643 0.77057 0.21255 0.0
H163 H 0.01903 0.5673 0.06064 0.0
H164 H 0.0584 0.70868 0.03261 0.0
C165 C 0.49432 0.18484 0.61783 0.0
C166 C 0.54115 0.19981 0.6138 0.0
N167 N 0.55273 0.17796 0.63848 0.0
N168 N 0.47723 0.1542 0.64507 0.0
C169 C 0.51374 0.15044 0.65663 0.0
H170 H 0.47476 0.19759 0.60332 0.0
Co171 Co 0.41998 0.13156 0.66753 0.0
C172 C 0.43774 0.09752 0.73859 0.0
O173 O 0.39667 0.07911 0.75387 0.0
N174 N 0.36251 0.11004 0.69063 0.0
C175 C 0.28753 0.08395 0.70304 0.0
C176 C 0.31821 0.07948 0.68069 0.0
C177 C 0.35761 0.13157 0.71932 0.0
N178 N 0.31293 0.11715 0.72695 0.0
O179 O 0.44191 0.19234 0.68527 0.0
H180 H 0.3084 0.05752 0.65744 0.0
H181 H 0.3864 0.15969 0.73341 0.0
O182 O 0.44456 0.11612 0.70804 0.0
C183 C 0.43012 0.21695 0.66686 0.0
O184 O 0.39972 0.19578 0.64129 0.0
N185 N 0.40052 0.07417 0.64664 0.0
C186 C 0.41291 0.02896 0.5897 0.0
C187 C 0.42913 0.02589 0.62335 0.0
C188 C 0.42165 0.04817 0.65201 0.0
C189 C 0.38048 0.07324 0.61492 0.0
C190 C 0.3856 0.05007 0.5861 0.0
H191 H 0.43855 0.04962 0.67682 0.0
H192 H 0.36613 0.09592 0.61062 0.0
H193 H 0.51309 0.12978 0.67906 0.0
H194 H 0.56526 0.22642 0.59574 0.0
H195 H 0.25004 0.06678 0.70043 0.0
H196 H 0.4506 0.00999 0.62676 0.0
H197 H 0.3729 0.05314 0.5603 0.0
C198 C 0.45624 0.6162 0.40925 0.0
C199 C 0.40818 0.58854 0.40909 0.0
N200 N 0.39388 0.58525 0.37525 0.0
N201 N 0.47121 0.62899 0.37556 0.0
C202 C 0.43218 0.61103 0.35601 0.0
H203 H 0.47884 0.62393 0.43199 0.0
Co204 Co 0.5304 0.65835 0.35576 0.0
C205 C 0.51077 0.61704 0.28036 0.0
O206 O 0.55113 0.64322 0.2648 0.0
N207 N 0.59065 0.68931 0.3352 0.0
C208 C 0.66449 0.71518 0.31864 0.0
C209 C 0.62666 0.68084 0.33696 0.0
C210 C 0.60752 0.72844 0.31523 0.0
N211 N 0.65179 0.74472 0.3051 0.0
O212 O 0.51861 0.70578 0.34003 0.0
H213 H 0.62596 0.65172 0.35055 0.0
H214 H 0.58803 0.74522 0.30755 0.0
O215 O 0.50453 0.62322 0.31274 0.0
C216 C 0.52416 0.73411 0.36483 0.0
O217 O 0.54173 0.72983 0.39497 0.0
N218 N 0.53941 0.61148 0.37456 0.0
C219 C 0.52271 0.54673 0.42735 0.0
C220 C 0.50102 0.53179 0.39432 0.0
C221 C 0.51015 0.56502 0.36786 0.0
C222 C 0.56407 0.62568 0.40533 0.0
C223 C 0.5566 0.59365 0.43203 0.0
H224 H 0.48907 0.55373 0.34415 0.0
H225 H 0.58542 0.66259 0.41078 0.0
H226 H 0.43141 0.61435 0.32767 0.0
H227 H 0.386 0.56987 0.43138 0.0
H228 H 0.69826 0.71805 0.31527 0.0
H229 H 0.47444 0.49573 0.39019 0.0
H230 H 0.57373 0.60608 0.45744 0.0
C231 C 0.83408 0.47382 0.86978 0.0
C232 C 0.82159 0.42943 0.88069 0.0
N233 N 0.82812 0.40625 0.85364 0.0
N234 N 0.84718 0.47861 0.83562 0.0
C235 C 0.84115 0.43668 0.82614 0.0
H236 H 0.83306 0.50067 0.88545 0.0
Co237 Co 0.86904 0.53171 0.8076 0.0
C238 C 0.93494 0.51593 0.76163 0.0
O239 O 0.9732 0.55485 0.76941 0.0
N240 N 0.89093 0.58573 0.77894 0.0
C241 C 0.93328 0.65718 0.75556 0.0
C242 C 0.93471 0.62242 0.77481 0.0
C243 C 0.86399 0.59886 0.76123 0.0
N244 N 0.88863 0.64176 0.74714 0.0
O245 O 0.81183 0.50085 0.78247 0.0
H246 H 0.96568 0.62522 0.78666 0.0
H247 H 0.82657 0.57844 0.75942 0.0
O248 O 0.89583 0.50647 0.7749 0.0
C249 C 0.7827 0.50598 0.80117 0.0
O250 O 0.79881 0.53667 0.82709 0.0
N251 N 0.92134 0.56081 0.83608 0.0
C252 C 0.9696 0.58853 0.89936 0.0
C253 C 0.97071 0.55375 0.87897 0.0
C254 C 0.94591 0.54008 0.84717 0.0
C255 C 0.92208 0.59631 0.85496 0.0
C256 C 0.94676 0.61133 0.88651 0.0
H257 H 0.94185 0.50937 0.83395 0.0
H258 H 0.89993 0.61016 0.84718 0.0
H259 H 0.84396 0.42866 0.79893 0.0
H260 H 0.80713 0.41513 0.90649 0.0
H261 H 0.96224 0.69134 0.74915 0.0
H262 H 0.9874 0.53498 0.88891 0.0
H263 H 0.94489 0.63782 0.90217 0.0
C264 C 0.37459 0.8451 0.4233 0.0
C265 C 0.39946 0.82228 0.42913 0.0
N266 N 0.41678 0.81884 0.39767 0.0
N267 N 0.3769 0.8558 0.38849 0.0
C268 C 0.4025 0.8389 0.37378 0.0
H269 H 0.35552 0.85276 0.44292 0.0
Co270 Co 0.34932 0.88333 0.36275 0.0
C271 C 0.41406 0.92018 0.29732 0.0
O272 O 0.39712 0.94252 0.27965 0.0
N273 N 0.32101 0.91079 0.33584 0.0
C274 C 0.31214 0.95827 0.2985 0.0
C275 C 0.33836 0.95593 0.32611 0.0
C276 C 0.2827 0.88732 0.31558 0.0
N277 N 0.2773 0.91477 0.29195 0.0
O278 O 0.31213 0.82387 0.34126 0.0
H279 H 0.37119 0.98458 0.3352 0.0
H280 H 0.26205 0.8498 0.31437 0.0
O281 O 0.39642 0.89995 0.32665 0.0
C282 C 0.27531 0.79729 0.35881 0.0
O283 O 0.25933 0.81644 0.38119 0.0
N284 N 0.38486 0.93831 0.38723 0.0
C285 C 0.42442 0.98638 0.44911 0.0
C286 C 0.45246 0.98186 0.42343 0.0
C287 C 0.43181 0.95766 0.39209 0.0
C288 C 0.35839 0.94668 0.41036 0.0
C289 C 0.37772 0.97122 0.44146 0.0
H290 H 0.45219 0.94934 0.37427 0.0
H291 H 0.32107 0.92955 0.40671 0.0
H292 H 0.40961 0.83956 0.34572 0.0
H293 H 0.40423 0.8091 0.45416 0.0
H294 H 0.32109 0.98844 0.282 0.0
H295 H 0.4886 0.99299 0.42896 0.0
H296 H 0.35532 0.97417 0.46102 0.0
C297 C 0.55893 0.38794 0.90495 0.0
C298 C 0.60587 0.41096 0.89675 0.0
N299 N 0.61051 0.39942 0.86333 0.0
N300 N 0.53461 0.36329 0.87631 0.0
C301 C 0.56728 0.3699 0.852 0.0
H302 H 0.54355 0.39186 0.92907 0.0
Co303 Co 0.47188 0.33497 0.86416 0.0
C304 C 0.476 0.38149 0.7938 0.0
O305 O 0.43125 0.36616 0.79024 0.0
N306 N 0.40839 0.30539 0.84995 0.0
C307 C 0.33122 0.27432 0.84437 0.0
C308 C 0.37068 0.30723 0.86188 0.0
C309 C 0.39079 0.27201 0.82466 0.0
N310 N 0.34447 0.25234 0.82125 0.0
O311 O 0.47734 0.28355 0.84769 0.0
H312 H 0.37088 0.33001 0.88243 0.0
H313 H 0.4113 0.26129 0.80913 0.0
O314 O 0.49128 0.36828 0.81971 0.0
C315 C 0.46077 0.2517 0.87137 0.0
O316 O 0.43155 0.25191 0.89488 0.0
N317 N 0.46864 0.38401 0.885 0.0
C318 C 0.48604 0.45077 0.93625 0.0
C319 C 0.50578 0.46453 0.90242 0.0
C320 C 0.49626 0.43029 0.87678 0.0
C321 C 0.44849 0.37061 0.91754 0.0
C322 C 0.45564 0.40346 0.94321 0.0
H323 H 0.51516 0.44094 0.85206 0.0
H324 H 0.42959 0.33395 0.92445 0.0
H325 H 0.55946 0.35661 0.82515 0.0
H326 H 0.63393 0.43667 0.91295 0.0
H327 H 0.29572 0.26627 0.84888 0.0
H328 H 0.53019 0.50084 0.89662 0.0
H329 H 0.44026 0.39177 0.96928 0.0
C330 C 0.20381 0.53353 0.37598 0.0
C331 C 0.22622 0.58069 0.38255 0.0
N332 N 0.20618 0.59943 0.36243 0.0
N333 N 0.17002 0.5227 0.35168 0.0
C334 C 0.17191 0.56366 0.34426 0.0
H335 H 0.21312 0.50901 0.38684 0.0
Co336 Co 0.13895 0.46519 0.32887 0.0
C337 C 0.10154 0.48574 0.26176 0.0
O338 O 0.08434 0.44479 0.24648 0.0
N339 N 0.10905 0.40671 0.30622 0.0
C340 C 0.07325 0.32959 0.29765 0.0
C341 C 0.07594 0.36479 0.31901 0.0
C342 C 0.12537 0.39592 0.27708 0.0
N343 N 0.10495 0.34977 0.27168 0.0
O344 O 0.19508 0.48198 0.30508 0.0
H345 H 0.05763 0.35957 0.34386 0.0
H346 H 0.15423 0.4212 0.26118 0.0
O347 O 0.12132 0.49372 0.29196 0.0
C348 C 0.21834 0.46515 0.31916 0.0
O349 O 0.19696 0.43169 0.34275 0.0
N350 N 0.08627 0.44947 0.35492 0.0
C351 C 0.01277 0.41686 0.40195 0.0
C352 C 0.00706 0.42755 0.367 0.0
C353 C 0.04476 0.44412 0.34359 0.0
C354 C 0.09219 0.43975 0.38897 0.0
C355 C 0.05586 0.4236 0.41307 0.0
H356 H 0.04002 0.45097 0.31643 0.0
H357 H 0.12511 0.44328 0.39704 0.0
H358 H 0.15028 0.56791 0.32482 0.0
H359 H 0.25577 0.60006 0.39993 0.0
H360 H 0.05278 0.29241 0.30249 0.0
H361 H 0.9737 0.42203 0.35783 0.0
H362 H 0.06088 0.4151 0.43992 0.0
C363 C 0.6325 0.1639 0.91949 0.0
C364 C 0.59991 0.17582 0.92955 0.0
N365 N 0.57144 0.16947 0.90169 0.0
N366 N 0.62644 0.15218 0.88502 0.0
C367 C 0.59066 0.15797 0.87467 0.0
H368 H 0.6583 0.16288 0.93643 0.0
Co369 Co 0.65607 0.1266 0.85929 0.0
C370 C 0.59087 0.08214 0.79738 0.0
O371 O 0.60111 0.04928 0.79085 0.0
N372 N 0.68653 0.10086 0.83279 0.0
C373 C 0.72867 0.06832 0.81624 0.0
C374 C 0.69915 0.06896 0.8417 0.0
C375 C 0.7077 0.11775 0.80121 0.0
N376 N 0.73401 0.0993 0.79106 0.0
O377 O 0.69526 0.18658 0.83926 0.0
H378 H 0.68991 0.04874 0.86582 0.0
H379 H 0.70573 0.14479 0.78656 0.0
O380 O 0.61146 0.11165 0.822 0.0
C381 C 0.73484 0.20764 0.85439 0.0
O382 O 0.74684 0.18383 0.8756 0.0
N383 N 0.61933 0.07091 0.88295 0.0
C384 C 0.57357 0.02269 0.94379 0.0
C385 C 0.54788 0.02291 0.91433 0.0
C386 C 0.57167 0.04737 0.88374 0.0
C387 C 0.64416 0.06891 0.91098 0.0
C388 C 0.62195 0.04398 0.94128 0.0
H389 H 0.55201 0.05219 0.86303 0.0
H390 H 0.68161 0.09124 0.91143 0.0
H391 H 0.57912 0.15444 0.84749 0.0
H392 H 0.59893 0.1889 0.95551 0.0
H393 H 0.7468 0.0487 0.81707 0.0
H394 H 0.51043 0.0076 0.916 0.0
H395 H 0.64267 0.04515 0.96395 0.0
C396 C 0.47486 0.50778 0.97177 0.0
C397 C 0.49926 0.48348 0.96644 0.0
C398 C 0.50539 0.47527 0.03021 0.0
C399 C 0.47411 0.49215 0.03521 0.0
N400 N 0.44476 0.54131 0.01428 0.0
N401 N 0.5552 0.46413 0.98864 0.0
C402 C 0.4652 0.5152 0.00706 0.0
C403 C 0.52143 0.4752 -0.00469 0.0
N404 N 0.45739 0.51956 0.94328 0.0
N405 N 0.51628 0.45577 0.05787 0.0
H406 H 0.56639 0.4639 0.96274 0.0
H407 H 0.57466 0.45978 0.00842 0.0
H408 H 0.50522 0.45583 0.08377 0.0
H409 H 0.53475 0.43813 0.05493 0.0
H410 H 0.43444 0.53232 0.94539 0.0
H411 H 0.4653 0.51531 0.91723 0.0
H412 H 0.4399 0.56152 -0.00458 0.0
H413 H 0.43603 0.54536 0.04015 0.0
C414 C 0.93306 0.40397 0.47805 0.0
C415 C 0.92117 0.35831 0.48907 0.0
C416 C 0.95427 0.34719 0.43459 0.0
C417 C 0.97361 0.39531 0.4271 0.0
N418 N 0.98285 0.47056 0.44105 0.0
N419 N 0.92229 0.28666 0.47941 0.0
C420 C 0.96281 0.42395 0.44832 0.0
C421 C 0.93157 0.32956 0.46751 0.0
N422 N 0.91553 0.42786 0.49585 0.0
N423 N 0.95828 0.31874 0.41026 0.0
H424 H 0.90601 0.27256 0.50362 0.0
H425 H 0.93387 0.26643 0.4666 0.0
H426 H 0.97495 0.33107 0.38586 0.0
H427 H 0.9414 0.28255 0.4127 0.0
H428 H 0.91944 0.45951 0.48713 0.0
H429 H 0.89346 0.41401 0.51776 0.0
H430 H 0.98098 0.49439 0.45805 0.0
H431 H 0.00353 0.4859 0.41868 0.0
C432 C 0.56384 0.04193 0.00548 0.0
C433 C 0.55255 0.00708 0.97936 0.0
C434 C 0.5319 0.94891 0.02589 0.0
C435 C 0.55559 0.98563 0.05073 0.0
N436 N 0.59083 0.06713 0.06562 0.0
N437 N 0.52123 0.92641 0.96381 0.0
C438 C 0.56952 0.03218 0.04124 0.0
C439 C 0.53392 0.95992 0.98932 0.0
N440 N 0.5705 0.08451 -0.00451 0.0
N441 N 0.50845 0.90378 0.0375 0.0
H442 H 0.52106 0.93366 0.93686 0.0
H443 H 0.51266 0.89214 0.96922 0.0
H444 H 0.50631 0.89549 0.06439 0.0
H445 H 0.48768 0.87547 0.0212 0.0
H446 H 0.57605 0.11082 0.01334 0.0
H447 H 0.56562 0.09135 0.96926 0.0
H448 H 0.60648 0.10243 0.05922 0.0
H449 H 0.59472 0.06075 0.09217 0.0
C450 C 0.48772 0.52563 0.52041 0.0
C451 C 0.51723 0.50875 0.53165 0.0
C452 C 0.52934 0.49303 0.47042 0.0
C453 C 0.50604 0.51666 0.45926 0.0
N454 N 0.44564 0.53456 0.47106 0.0
N455 N 0.54906 0.45887 0.51987 0.0
C456 C 0.47868 0.52522 0.4836 0.0
C457 C 0.53136 0.48551 0.50729 0.0
N458 N 0.47157 0.54513 0.54436 0.0
N459 N 0.55218 0.48122 0.44609 0.0
H460 H 0.55055 0.45365 0.54706 0.0
H461 H 0.55806 0.43906 0.50371 0.0
H462 H 0.54967 0.48559 0.41887 0.0
H463 H 0.57423 0.46848 0.45284 0.0
H464 H 0.45425 0.56288 0.53711 0.0
H465 H 0.4771 0.54478 0.57159 0.0
H466 H 0.42276 0.53906 0.48732 0.0
H467 H 0.43829 0.53248 0.44398 0.0
C468 C 0.0508 0.63216 0.97847 0.0
C469 C 0.01795 0.62085 0.00639 0.0
C470 C 0.95406 0.57988 0.96453 0.0
C471 C 0.98677 0.59708 0.9362 0.0
N472 N 0.06574 0.64356 0.9153 0.0
N473 N 0.93856 0.58773 0.0263 0.0
C474 C 0.03507 0.62417 0.94288 0.0
C475 C 0.96955 0.59552 -0.00043 0.0
N476 N 0.09684 0.64923 0.98608 0.0
N477 N 0.90847 0.54776 0.95794 0.0
H478 H 0.94885 0.59834 0.05242 0.0
H479 H 0.90301 0.57396 0.02212 0.0
H480 H 0.89603 0.53503 0.93257 0.0
H481 H 0.88396 0.53053 0.97787 0.0
H482 H 0.12149 0.6534 0.96709 0.0
H483 H 0.10974 0.6551 0.01191 0.0
H484 H 0.10081 0.66814 0.91875 0.0
H485 H 0.0555 0.63782 0.88873 0.0
C486 C 0.42267 0.96236 0.51155 0.0
C487 C 0.43991 -0.00103 0.48626 0.0
C488 C 0.45924 0.05533 0.5339 0.0
C489 C 0.43042 0.01797 0.55708 0.0
N490 N 0.38603 0.93531 0.569 0.0
N491 N 0.4786 0.08089 0.47271 0.0
C492 C 0.41341 0.97117 0.54657 0.0
C493 C 0.46046 0.04588 0.49733 0.0
N494 N 0.41441 0.91923 0.50158 0.0
N495 N 0.48471 0.09958 0.54701 0.0
H496 H 0.48127 0.0746 0.44589 0.0
H497 H 0.4892 0.11555 0.47861 0.0
H498 H 0.48479 0.10687 0.57397 0.0
H499 H 0.50891 0.12783 0.53203 0.0
H500 H 0.40463 0.89161 0.51924 0.0
H501 H 0.4226 0.91307 0.47616 0.0
H502 H 0.36832 0.90044 0.5612 0.0
H503 H 0.37882 0.94062 0.59497 0.0
C504 C 0.21073 0.50521 0.07306 0.0
C505 C 0.21544 0.49302 0.10856 0.0
C506 C 0.16662 0.52495 0.12908 0.0
C507 C 0.17121 0.54545 0.09513 0.0
N508 N 0.16306 0.5218 0.03415 0.0
N509 N 0.19325 0.48688 0.17035 0.0
C510 C 0.18298 0.52582 0.06657 0.0
C511 C 0.19185 0.50143 0.13665 0.0
N512 N 0.23457 0.49993 0.04553 0.0
N513 N 0.13271 0.52129 0.15157 0.0
H514 H 0.20806 0.46636 0.17644 0.0
H515 H 0.18119 0.49668 0.19241 0.0
H516 H 0.10818 0.53045 0.14354 0.0
H517 H 0.12421 0.50255 0.17525 0.0
H518 H 0.23536 0.51315 0.02022 0.0
H519 H 0.25695 0.48662 0.04825 0.0
H520 H 0.16742 0.50405 0.01296 0.0
H521 H 0.13667 0.52994 0.03051 0.0
C522 C 0.61115 0.15321 0.64335 0.0
C523 C 0.59823 0.1875 0.64889 0.0
C524 C 0.67318 0.2386 0.67739 0.0
C525 C 0.68869 0.20781 0.66615 0.0
N526 N 0.66697 0.12794 0.65616 0.0
N527 N 0.61298 0.25807 0.6794 0.0
C528 C 0.65556 0.16224 0.65501 0.0
C529 C 0.62772 0.22845 0.66843 0.0
N530 N 0.5818 0.11318 0.62554 0.0
N531 N 0.70093 0.27679 0.69756 0.0
H532 H 0.57949 0.25242 0.67488 0.0
H533 H 0.57949 0.25242 0.67488 0.0
H534 H 0.73179 0.28196 0.70901 0.0
H535 H 0.69074 0.30064 0.70541 0.0
H536 H 0.59096 0.08864 0.61772 0.0
H537 H 0.54915 0.10607 0.61645 0.0
H538 H 0.64363 0.09297 0.65073 0.0
H539 H 0.69887 0.1344 0.6665 0.0
C540 C 0.53264 0.72138 0.11012 0.0
C541 C 0.53472 0.73829 0.14534 0.0
C542 C 0.45698 0.67193 0.15691 0.0
C543 C 0.45773 0.65269 0.12352 0.0
N544 N 0.50285 0.65242 0.07356 0.0
N545 N 0.50331 0.72238 0.20487 0.0
C546 C 0.49774 0.67524 0.10181 0.0
C547 C 0.49829 0.71102 0.16965 0.0
N548 N 0.56065 0.74965 0.08353 0.0
N549 N 0.4164 0.65419 0.17569 0.0
H550 H 0.5346 0.74838 0.21563 0.0
H551 H 0.47814 0.70315 0.22383 0.0
H552 H 0.3849 0.62712 0.16616 0.0
H553 H 0.41297 0.66984 0.1986 0.0
H554 H 0.55652 0.73884 0.05712 0.0
H555 H 0.58358 0.78521 0.08619 0.0
H556 H 0.53349 0.66613 0.05873 0.0
H557 H 0.47868 0.61783 0.06771 0.0
C558 C 0.75526 0.48311 0.59065 0.0
C559 C 0.75197 0.4983 0.62546 0.0
C560 C 0.76015 0.43469 0.65118 0.0
C561 C 0.76533 0.42115 0.61657 0.0
N562 N 0.78215 0.44033 0.55493 0.0
N563 N 0.7638 0.49615 0.68849 0.0
C564 C 0.76776 0.44818 0.58686 0.0
C565 C 0.75858 0.47654 0.65566 0.0
N566 N 0.74286 0.49868 0.56124 0.0
N567 N 0.7543 0.40641 0.67947 0.0
H568 H 0.76413 0.52756 0.69239 0.0
H569 H 0.77257 0.48398 0.71106 0.0
H570 H 0.75443 0.3751 0.67694 0.0
H571 H 0.74545 0.41201 0.70481 0.0
H572 H 0.73974 0.48421 0.53613 0.0
H573 H 0.73092 0.52234 0.56182 0.0
H574 H 0.78906 0.46203 0.53296 0.0
H575 H 0.79187 0.41501 0.55164 0.0
C576 C 0.37404 0.82924 0.11819 0.0
C577 C 0.39065 0.79961 0.12957 0.0
C578 C 0.31127 0.73696 0.14205 0.0
C579 C 0.29412 0.76652 0.13015 0.0
N580 N 0.30988 0.84434 0.11569 0.0
N581 N 0.37843 0.73078 0.16005 0.0
C582 C 0.32582 0.81386 0.12102 0.0
C583 C 0.3602 0.75525 0.14417 0.0
N584 N 0.40442 0.8715 0.10346 0.0
N585 N 0.28133 0.69077 0.1489 0.0
H586 H 0.41421 0.74322 0.16108 0.0
H587 H 0.35865 0.70041 0.17471 0.0
H588 H 0.24532 0.67553 0.14827 0.0
H589 H 0.29215 0.66652 0.1531 0.0
H590 H 0.3941 0.89268 0.09053 0.0
H591 H 0.44022 0.8842 0.1023 0.0
H592 H 0.33159 0.88019 0.11266 0.0
H593 H 0.27485 0.83452 0.11743 0.0
C594 C 0.48227 0.33573 0.62644 0.0
C595 C 0.52933 0.35273 0.63583 0.0
C596 C 0.50564 0.29074 0.68017 0.0
C597 C 0.46005 0.26886 0.66575 0.0
N598 N 0.40091 0.28066 0.63922 0.0
N599 N 0.58715 0.34955 0.67225 0.0
C600 C 0.44702 0.29458 0.64306 0.0
C601 C 0.54138 0.33125 0.66316 0.0
N602 N 0.47177 0.3587 0.60119 0.0
N603 N 0.51373 0.27437 0.71109 0.0
H604 H 0.61388 0.3789 0.65974 0.0
H605 H 0.59916 0.33471 0.69078 0.0
H606 H 0.48654 0.24977 0.72675 0.0
H607 H 0.54594 0.28894 0.72364 0.0
H608 H 0.4387 0.3461 0.59047 0.0
H609 H 0.49711 0.3897 0.5895 0.0
H610 H 0.38847 0.299 0.6248 0.0
H611 H 0.37524 0.253 0.65399 0.0
C612 C 0.49313 0.82311 0.39706 0.0
C613 C 0.44489 0.79838 0.3892 0.0
C614 C 0.45637 0.74559 0.35059 0.0
C615 C 0.50215 0.76391 0.3641 0.0
N616 N 0.56767 0.82558 0.39472 0.0
N617 N 0.38045 0.73543 0.35765 0.0
C618 C 0.52168 0.80467 0.38559 0.0
C619 C 0.42659 0.75959 0.36596 0.0
N620 N 0.51167 0.86514 0.41404 0.0
N621 N 0.44092 0.71532 0.32267 0.0
H622 H 0.35555 0.74225 0.36869 0.0
H623 H 0.35555 0.74225 0.36869 0.0
H624 H 0.46326 0.70987 0.30661 0.0
H625 H 0.40712 0.70093 0.31272 0.0
H626 H 0.54717 0.88736 0.4179 0.0
H627 H 0.49146 0.87936 0.42254 0.0
H628 H 0.58331 0.8518 0.41368 0.0
H629 H 0.59031 0.81602 0.38311 0.0
C630 C 0.70239 0.49188 0.80513 0.0
C631 C 0.73196 0.47288 0.80041 0.0
C632 C 0.67696 0.40198 0.83201 0.0
C633 C 0.65028 0.42324 0.84046 0.0
N634 N 0.62897 0.48141 0.82753 0.0
N635 N 0.73771 0.40346 0.79503 0.0
C636 C 0.66011 0.46598 0.82432 0.0
C637 C 0.71595 0.42558 0.80903 0.0
N638 N 0.71628 0.5356 0.79235 0.0
N639 N 0.66578 0.36007 0.84705 0.0
H640 H 0.76391 0.41922 0.776 0.0
H641 H 0.72633 0.36818 0.79886 0.0
H642 H 0.63686 0.34199 0.86358 0.0
H643 H 0.68654 0.34475 0.845 0.0
H644 H 0.69931 0.55426 0.79754 0.0
H645 H 0.74583 0.55337 0.77635 0.0
H646 H 0.632 0.51045 0.81434 0.0
H647 H 0.5981 0.46324 0.8419 0.0
C648 C 0.2386 0.67349 0.32829 0.0
C649 C 0.22027 0.6482 0.36027 0.0
C650 C 0.24301 0.72086 0.39168 0.0
C651 C 0.25565 0.74577 0.35887 0.0
N652 N 0.2566 0.74295 0.2947 0.0
N653 N 0.19493 0.64631 0.42027 0.0
C654 C 0.25094 0.7213 0.32672 0.0
C655 C 0.21915 0.67149 0.39124 0.0
N656 N 0.24623 0.65253 0.29996 0.0
N657 N 0.2567 0.7438 0.42342 0.0
H658 H 0.17621 0.60988 0.42037 0.0
H659 H 0.18944 0.66157 0.4426 0.0
H660 H 0.2782 0.77974 0.42561 0.0
H661 H 0.25174 0.72652 0.44759 0.0
H662 H 0.26489 0.67092 0.27758 0.0
H663 H 0.23795 0.61773 0.30038 0.0
H664 H 0.24975 0.72537 0.27057 0.0
H665 H 0.26341 0.7772 0.29226 0.0
C666 C 0.52497 0.20442 0.92456 0.0
C667 C 0.53233 0.17793 0.89881 0.0
C668 C 0.4819 0.1901 0.85748 0.0
C669 C 0.48505 0.22576 0.88018 0.0
N670 N 0.51404 0.26988 0.93493 0.0
N671 N 0.49254 0.12282 0.85203 0.0
C672 C 0.50766 0.23368 0.91368 0.0
C673 C 0.50353 0.16403 0.8681 0.0
N674 N 0.5273 0.19625 0.95974 0.0
N675 N 0.45877 0.18153 0.8259 0.0
H676 H 0.50291 0.10029 0.86273 0.0
H677 H 0.46867 0.10822 0.83139 0.0
H678 H 0.4413 0.19897 0.81804 0.0
H679 H 0.45884 0.15891 0.80675 0.0
H680 H 0.51915 0.2128 0.97973 0.0
H681 H 0.5284 0.16677 0.96826 0.0
H682 H 0.53425 0.27888 0.95793 0.0
H683 H 0.50319 0.29347 0.92811 0.0
C684 C 0.32665 0.57168 0.33994 0.0
C685 C 0.35013 0.55316 0.35943 0.0
C686 C 0.29533 0.47492 0.33733 0.0
C687 C 0.26995 0.49366 0.32063 0.0
N688 N 0.2783 0.56058 0.28884 0.0
N689 N 0.36647 0.49036 0.36738 0.0
C690 C 0.2909 0.54243 0.31635 0.0
C691 C 0.33741 0.50553 0.35538 0.0
N692 N 0.33828 0.61714 0.34442 0.0
N693 N 0.27889 0.428 0.33567 0.0
H694 H 0.39785 0.51219 0.38015 0.0
H695 H 0.36132 0.45713 0.36255 0.0
H696 H 0.25119 0.40635 0.31907 0.0
H697 H 0.29218 0.41078 0.35058 0.0
H698 H 0.31959 0.63137 0.33278 0.0
H699 H 0.36385 0.63903 0.36241 0.0
H700 H 0.29557 0.59617 0.28304 0.0
H701 H 0.25569 0.53933 0.269 0.0
C702 C 0.77629 0.2842 0.88636 0.0
C703 C 0.76346 0.25923 0.85368 0.0
C704 C 0.81185 0.33255 0.82186 0.0
C705 C 0.81707 0.35757 0.85371 0.0
N706 N 0.83263 0.35502 0.91562 0.0
N707 N 0.76935 0.25997 0.78964 0.0
C708 C 0.80768 0.33283 0.88602 0.0
C709 C 0.78108 0.28351 0.82114 0.0
N710 N 0.75651 0.26235 0.91767 0.0
N711 N 0.8424 0.35373 0.7947 0.0
H712 H 0.74989 0.22378 0.78803 0.0
H713 H 0.77676 0.27672 0.76507 0.0
H714 H 0.87341 0.38494 0.79888 0.0
H715 H 0.84176 0.33701 0.77113 0.0
H716 H 0.76134 0.28045 0.94139 0.0
H717 H 0.73163 0.22713 0.91947 0.0
H718 H 0.83027 0.33772 0.93936 0.0
H719 H 0.86043 0.38927 0.91456 0.0
C720 C 0.11405 0.32865 0.2115 0.0
C721 C 0.1236 0.32927 0.24804 0.0
C722 C 0.1951 0.32781 0.23434 0.0
C723 C 0.18839 0.33393 0.19812 0.0
N724 N 0.13928 0.3338 0.15102 0.0
N725 N 0.16679 0.31946 0.29511 0.0
C726 C 0.14655 0.33098 0.18635 0.0
C727 C 0.16172 0.32454 0.25969 0.0
N728 N 0.07535 0.32914 0.20017 0.0
N729 N 0.2351 0.32851 0.24419 0.0
H730 H 0.14279 0.31756 0.31388 0.0
H731 H 0.19299 0.31475 0.30595 0.0
H732 H 0.25921 0.33029 0.2255 0.0
H733 H 0.24481 0.32764 0.2703 0.0
H734 H 0.05006 0.32784 0.21745 0.0
H735 H 0.05006 0.32784 0.21745 0.0
H736 H 0.1094 0.33314 0.14141 0.0
H737 H 0.16284 0.33603 0.13166 0.0
C738 C 0.81198 0.15727 0.76945 0.0
C739 C 0.76813 0.11712 0.7632 0.0
C740 C 0.78289 0.12363 0.69931 0.0
C741 C 0.82549 0.16588 0.70536 0.0
N742 N 0.8862 0.21643 0.74491 0.0
N743 N 0.71613 0.05525 0.72493 0.0
C744 C 0.84205 0.17998 0.74027 0.0
C745 C 0.75538 0.09777 0.72891 0.0
N746 N 0.82339 0.17488 0.80306 0.0
N747 N 0.76703 0.11027 0.66546 0.0
H748 H 0.69512 0.03675 0.74646 0.0
H749 H 0.70628 0.03673 0.70119 0.0
H750 H 0.78598 0.12777 0.64302 0.0
H751 H 0.7341 0.08273 0.6593 0.0
H752 H 0.85248 0.20686 0.80915 0.0
H753 H 0.80232 0.15807 0.82496 0.0
H754 H 0.90226 0.22742 0.76953 0.0
H755 H 0.90809 0.23332 0.72334 0.0
C756 C 0.69547 0.86643 0.27621 0.0
C757 C 0.69297 0.85997 0.23908 0.0
C758 C 0.67995 0.78083 0.24651 0.0
C759 C 0.67786 0.78571 0.28366 0.0
N760 N 0.69475 0.83462 0.33469 0.0
N761 N 0.69659 0.81785 0.18847 0.0
C762 C 0.6902 0.82956 0.29872 0.0
C763 C 0.6906 0.81954 0.22417 0.0
N764 N 0.69962 0.90671 0.28952 0.0
N765 N 0.66776 0.73807 0.23269 0.0
H766 H 0.70372 0.84575 0.17172 0.0
H767 H 0.69846 0.79081 0.17592 0.0
H768 H 0.66294 0.73032 0.20572 0.0
H769 H 0.66044 0.70941 0.24864 0.0
H770 H 0.69715 0.91257 0.31637 0.0
H771 H 0.70454 0.93417 0.27297 0.0
H772 H 0.70581 0.86607 0.34786 0.0
H773 H 0.69048 0.80732 0.35117 0.0
C774 C 0.80276 0.67958 0.73264 0.0
C775 C 0.7979 0.67407 0.69553 0.0
C776 C 0.86785 0.66703 0.69219 0.0
C777 C 0.8684 0.66593 0.72972 0.0
N778 N 0.84337 0.68047 0.78578 0.0
N779 N 0.83206 0.67657 0.63883 0.0
C780 C 0.83892 0.67663 0.74978 0.0
C781 C 0.83332 0.67344 0.6749 0.0
N782 N 0.77118 0.68454 0.7524 0.0
N783 N 0.8975 0.65762 0.6735 0.0
H784 H 0.80641 0.68056 0.62597 0.0
H785 H 0.85798 0.67893 0.62192 0.0
H786 H 0.92323 0.65325 0.68583 0.0
H787 H 0.89593 0.65268 0.64615 0.0
H788 H 0.74336 0.68653 0.74126 0.0
H789 H 0.74336 0.68653 0.74126 0.0
H790 H 0.82134 0.68685 0.80169 0.0
H791 H 0.86999 0.67853 0.79911 0.0
C792 C 0.21312 0.89808 0.24992 0.0
C793 C 0.25393 0.89686 0.25867 0.0
C794 C 0.23271 0.83231 0.21843 0.0
C795 C 0.19306 0.8348 0.20724 0.0
N796 N 0.15083 0.8766 0.20705 0.0
N797 N 0.31056 0.8761 0.24296 0.0
C798 C 0.18496 0.87001 0.22125 0.0
C799 C 0.26665 0.86889 0.23905 0.0
N800 N 0.2006 0.92447 0.26982 0.0
N801 N 0.23512 0.79264 0.21361 0.0
H802 H 0.32383 0.85852 0.22836 0.0
H803 H 0.32383 0.85852 0.22836 0.0
H804 H 0.20684 0.76143 0.20505 0.0
H805 H 0.2622 0.78844 0.2234 0.0
H806 H 0.16878 0.92333 0.26705 0.0
H807 H 0.22156 0.94577 0.29036 0.0
H808 H 0.14547 0.90389 0.21448 0.0
H809 H 0.13063 0.857 0.1856 0.0
C810 C 0.29774 0.13233 0.78747 0.0
C811 C 0.2989 0.14167 0.7508 0.0
C812 C 0.31139 0.21969 0.76312 0.0
C813 C 0.31641 0.21247 0.79942 0.0
N814 N 0.30435 0.16083 0.848 0.0
N815 N 0.29496 0.18784 0.70326 0.0
C816 C 0.30524 0.16784 0.81222 0.0
C817 C 0.30082 0.1831 0.73859 0.0
N818 N 0.29296 0.09063 0.79796 0.0
N819 N 0.32037 0.26282 0.75227 0.0
H820 H 0.288 0.16141 0.68505 0.0
H821 H 0.29391 0.21615 0.69224 0.0
H822 H 0.32725 0.28941 0.77036 0.0
H823 H 0.32188 0.27272 0.72587 0.0
H824 H 0.29562 0.08204 0.82409 0.0
H825 H 0.28664 0.06436 0.77969 0.0
H826 H 0.29503 0.12888 0.85978 0.0
H827 H 0.31051 0.18711 0.86616 0.0
C828 C 0.47089 0.53551 0.2558 0.0
C829 C 0.47137 0.57822 0.26113 0.0
C830 C 0.39175 0.54288 0.23807 0.0
C831 C 0.3932 0.50204 0.2288 0.0
N832 N 0.42335 0.4521 0.24666 0.0
N833 N 0.4304 0.62152 0.25984 0.0
C834 C 0.4297 0.49596 0.24274 0.0
C835 C 0.43116 0.58135 0.25323 0.0
N836 N 0.50976 0.53263 0.26319 0.0
N837 N 0.35222 0.54539 0.234 0.0
H838 H 0.459 0.65124 0.2701 0.0
H839 H 0.40122 0.62491 0.25489 0.0
H840 H 0.32033 0.5173 0.22612 0.0
H841 H 0.32033 0.5173 0.22612 0.0
H842 H 0.51341 0.50422 0.25598 0.0
H843 H 0.53981 0.56012 0.27423 0.0
H844 H 0.4475 0.44519 0.25877 0.0
H845 H 0.39098 0.42222 0.24331 0.0
C846 C 0.92056 0.4784 0.70201 0.0
C847 C 0.9362 0.48156 0.73733 0.0
C848 C 0.93184 0.40565 0.73166 0.0
C849 C 0.91582 0.40234 0.69612 0.0
N850 N 0.91513 0.44498 0.64419 0.0
N851 N 0.9708 0.45629 0.78193 0.0
C852 C 0.91626 0.44158 0.68024 0.0
C853 C 0.94686 0.44796 0.75078 0.0
N854 N 0.90887 0.50995 0.68936 0.0
N855 N 0.93003 0.36784 0.74803 0.0
H856 H 0.98281 0.48733 0.79601 0.0
H857 H 0.98308 0.43496 0.79169 0.0
H858 H 0.91693 0.33534 0.73602 0.0
H859 H 0.93722 0.36719 0.77487 0.0
H860 H 0.89178 0.50565 0.66523 0.0
H861 H 0.91371 0.53885 0.70398 0.0
H862 H 0.91979 0.47488 0.63122 0.0
H863 H 0.91402 0.41967 0.62723 0.0
C864 C 0.53712 0.9506 0.27186 0.0
C865 C 0.52784 0.90962 0.25314 0.0
C866 C 0.44545 0.87277 0.26968 0.0
C867 C 0.4534 0.91643 0.28271 0.0
N868 N 0.50628 0.9971 0.29714 0.0
N869 N 0.47969 0.82595 0.25217 0.0
C870 C 0.49917 0.95539 0.28427 0.0
C871 C 0.48379 0.86874 0.2574 0.0
N872 N 0.58184 0.98262 0.28081 0.0
N873 N 0.40103 0.83578 0.26745 0.0
H874 H 0.50855 0.82212 0.24699 0.0
H875 H 0.44951 0.79451 0.25762 0.0
H876 H 0.37196 0.83717 0.2764 0.0
H877 H 0.39257 0.80484 0.25432 0.0
H878 H 0.59076 0.01183 0.29646 0.0
H879 H 0.60932 0.97613 0.27743 0.0
H880 H 0.53789 0.02818 0.29496 0.0
H881 H 0.47969 0.00135 0.30805 0.0
C882 C 0.51262 0.46537 0.77333 0.0
C883 C 0.51113 0.4215 0.77246 0.0
C884 C 0.58634 0.45828 0.74167 0.0
C885 C 0.58332 0.49921 0.73661 0.0
N886 N 0.55874 0.54909 0.7638 0.0
N887 N 0.54538 0.37546 0.75399 0.0
C888 C 0.55056 0.50507 0.75688 0.0
C889 C 0.54797 0.41792 0.75644 0.0
N890 N 0.47831 0.46945 0.79025 0.0
N891 N 0.62728 0.45926 0.73458 0.0
H892 H 0.51688 0.34457 0.7631 0.0
H893 H 0.56958 0.3702 0.74023 0.0
H894 H 0.65749 0.49004 0.72753 0.0
H895 H 0.63325 0.43192 0.74049 0.0
H896 H 0.47366 0.49816 0.78739 0.0
H897 H 0.45296 0.44343 0.80619 0.0
H898 H 0.53807 0.55651 0.78027 0.0
H899 H 0.59027 0.57878 0.75757 0.0
C900 C 0.05181 0.55924 0.22556 0.0
C901 C 0.0928 0.59804 0.21201 0.0
C902 C 0.13975 0.56605 0.23588 0.0
C903 C 0.09819 0.52399 0.24431 0.0
N904 N 0.01408 0.47929 0.24634 0.0
N905 N 0.17489 0.64829 0.22203 0.0
C906 C 0.054 0.52022 0.23903 0.0
C907 C 0.13673 0.60453 0.22248 0.0
N908 N 0.01206 0.56172 0.2289 0.0
N909 N 0.18198 0.56834 0.23872 0.0
H910 H 0.17213 0.67792 0.21739 0.0
H911 H 0.20769 0.65597 0.23083 0.0
H912 H 0.18575 0.54072 0.24802 0.0
H913 H 0.21285 0.59594 0.22883 0.0
H914 H 0.98183 0.53598 0.24103 0.0
H915 H 0.01166 0.59268 0.22467 0.0
H916 H 0.9811 0.47277 0.23889 0.0
H917 H 0.01387 0.45038 0.25757 0.0
C918 C 0.55999 0.12671 0.7648 0.0
C919 C 0.55198 0.08355 0.779 0.0
C920 C 0.46922 0.04805 0.7637 0.0
C921 C 0.47618 0.09274 0.75442 0.0
N922 N 0.52751 0.17628 0.75165 0.0
N923 N 0.49679 0.00488 0.79795 0.0
C924 C 0.52145 0.1326 0.75651 0.0
C925 C 0.50604 0.04458 0.78005 0.0
N926 N 0.60452 0.16172 0.75836 0.0
N927 N 0.42842 0.00858 0.75538 0.0
H928 H 0.52225 0.0004 0.81054 0.0
H929 H 0.46304 0.97787 0.80296 0.0
H930 H 0.40104 0.0091 0.74219 0.0
H931 H 0.42368 0.97513 0.75819 0.0
H932 H 0.61235 0.19238 0.74499 0.0
H933 H 0.63357 0.15806 0.76305 0.0
H934 H 0.559 0.20679 0.75622 0.0
H935 H 0.5 0.18225 0.74649 0.0
loop_
_geom_bond_atom_site_label_1
_geom_bond_atom_site_label_2
_geom_bond_distance
_geom_bond_site_symmetry_2
_ccdc_geom_bond_type
C0 C1 1.351 . S
C0 N3 1.368 . S
C0 H5 0.931 . S
C1 C0 1.351 . S
C1 N2 1.373 . S
C1 H29 0.930 . S
N2 C1 1.373 . S
N2 C4 1.340 . S
N3 C0 1.368 . S
N3 C4 1.321 . S
N3 Co6 2.135 . S
C4 N2 1.340 . S
C4 N3 1.321 . S
C4 H28 0.930 . S
H5 C0 0.931 . S
Co6 N3 2.135 . S
Co6 N9 2.121 . S
Co6 O14 2.055 . S
Co6 O17 2.039 . S
Co6 N20 2.140 . S
C7 O8 1.227 . S
C7 O17 1.265 . S
O8 C7 1.227 . S
N9 Co6 2.121 . S
N9 C11 1.375 . S
N9 C12 1.313 . S
C10 C11 1.338 . S
C10 N13 1.377 . S
C10 H30 0.930 . S
C11 N9 1.375 . S
C11 C10 1.338 . S
C11 H15 0.931 . S
C12 N9 1.313 . S
C12 N13 1.344 . S
C12 H16 0.930 . S
N13 C10 1.377 . S
N13 C12 1.344 . S
O14 Co6 2.055 . S
O14 C18 1.253 . S
H15 C11 0.931 . S
H16 C12 0.930 . S
O17 Co6 2.039 . S
O17 C7 1.265 . S
C18 O14 1.253 . S
C18 O19 1.227 . S
O19 C18 1.227 . S
N20 Co6 2.140 . S
N20 C23 1.346 . S
N20 C24 1.345 . S
C21 C22 1.387 . S
C21 C25 1.391 . S
C22 C21 1.387 . S
C22 C23 1.369 . S
C22 H31 0.929 . S
C23 N20 1.346 . S
C23 C22 1.369 . S
C23 H26 0.928 . S
C24 N20 1.345 . S
C24 C25 1.371 . S
C24 H27 0.931 . S
C25 C21 1.391 . S
C25 C24 1.371 . S
C25 H32 0.930 . S
H26 C23 0.928 . S
H27 C24 0.931 . S
H28 C4 0.930 . S
H29 C1 0.930 . S
H30 C10 0.930 . S
H31 C22 0.929 . S
H32 C25 0.930 . S
C33 C34 1.351 . S
C33 N36 1.368 . S
C33 H38 0.931 . S
C34 C33 1.351 . S
C34 N35 1.373 . S
C34 H62 0.930 . S
N35 C34 1.373 . S
N35 C37 1.340 . S
N36 C33 1.368 . S
N36 C37 1.321 . S
N36 Co39 2.135 . S
C37 N35 1.340 . S
C37 N36 1.321 . S
C37 H61 0.930 . S
H38 C33 0.931 . S
Co39 N36 2.135 . S
Co39 N42 2.121 . S
Co39 O47 2.055 . S
Co39 O50 2.039 . S
Co39 N53 2.140 . S
C40 O41 1.227 . S
C40 O50 1.265 . S
O41 C40 1.227 . S
N42 Co39 2.121 . S
N42 C44 1.375 . S
N42 C45 1.313 . S
C43 C44 1.338 . S
C43 N46 1.377 . S
C43 H63 0.930 . S
C44 N42 1.375 . S
C44 C43 1.338 . S
C44 H48 0.931 . S
C45 N42 1.313 . S
C45 N46 1.344 . S
C45 H49 0.930 . S
N46 C43 1.377 . S
N46 C45 1.344 . S
O47 Co39 2.055 . S
O47 C51 1.253 . S
H48 C44 0.931 . S
H49 C45 0.930 . S
O50 Co39 2.039 . S
O50 C40 1.265 . S
C51 O47 1.253 . S
C51 O52 1.227 . S
O52 C51 1.227 . S
N53 Co39 2.140 . S
N53 C56 1.346 . S
N53 C57 1.345 . S
C54 C55 1.387 . S
C54 C58 1.391 . S
C55 C54 1.387 . S
C55 C56 1.369 . S
C55 H64 0.929 . S
C56 N53 1.346 . S
C56 C55 1.369 . S
C56 H59 0.928 . S
C57 N53 1.345 . S
C57 C58 1.371 . S
C57 H60 0.931 . S
C58 C54 1.391 . S
C58 C57 1.371 . S
C58 H65 0.930 . S
H59 C56 0.928 . S
H60 C57 0.931 . S
H61 C37 0.930 . S
H62 C34 0.930 . S
H63 C43 0.930 . S
H64 C55 0.929 . S
H65 C58 0.930 . S
C66 C67 1.351 . S
C66 N69 1.368 . S
C66 H71 0.931 . S
C67 C66 1.351 . S
C67 N68 1.373 . S
C67 H95 0.930 . S
N68 C67 1.373 . S
N68 C70 1.340 . S
N69 C66 1.368 . S
N69 C70 1.321 . S
N69 Co72 2.135 . S
C70 N68 1.340 . S
C70 N69 1.321 . S
C70 H94 0.930 . S
H71 C66 0.931 . S
Co72 N69 2.135 . S
Co72 N75 2.121 . S
Co72 O80 2.055 . S
Co72 O83 2.039 . S
Co72 N86 2.140 . S
C73 O74 1.227 . S
C73 O83 1.265 . S
O74 C73 1.227 . S
N75 Co72 2.121 . S
N75 C77 1.375 . S
N75 C78 1.313 . S
C76 C77 1.338 . S
C76 N79 1.377 . S
C76 H96 0.930 . S
C77 N75 1.375 . S
C77 C76 1.338 . S
C77 H81 0.931 . S
C78 N75 1.313 . S
C78 N79 1.344 . S
C78 H82 0.930 . S
N79 C76 1.377 . S
N79 C78 1.344 . S
O80 Co72 2.055 . S
O80 C84 1.253 . S
H81 C77 0.931 . S
H82 C78 0.930 . S
O83 Co72 2.039 . S
O83 C73 1.265 . S
C84 O80 1.253 . S
C84 O85 1.227 . S
O85 C84 1.227 . S
N86 Co72 2.140 . S
N86 C89 1.346 . S
N86 C90 1.345 . S
C87 C88 1.387 . S
C87 C91 1.391 . S
C88 C87 1.387 . S
C88 C89 1.369 . S
C88 H97 0.929 . S
C89 N86 1.346 . S
C89 C88 1.369 . S
C89 H92 0.928 . S
C90 N86 1.345 . S
C90 C91 1.371 . S
C90 H93 0.931 . S
C91 C87 1.391 . S
C91 C90 1.371 . S
C91 H98 0.930 . S
H92 C89 0.928 . S
H93 C90 0.931 . S
H94 C70 0.930 . S
H95 C67 0.930 . S
H96 C76 0.930 . S
H97 C88 0.929 . S
H98 C91 0.930 . S
C99 C100 1.351 . S
C99 N102 1.368 . S
C99 H104 0.931 . S
C100 C99 1.351 . S
C100 N101 1.373 . S
C100 H128 0.930 . S
N101 C100 1.373 . S
N101 C103 1.340 . S
N102 C99 1.368 . S
N102 C103 1.321 . S
N102 Co105 2.135 . S
C103 N101 1.340 . S
C103 N102 1.321 . S
C103 H127 0.930 . S
H104 C99 0.931 . S
Co105 N102 2.135 . S
Co105 N108 2.121 . S
Co105 O113 2.055 . S
Co105 O116 2.039 . S
Co105 N119 2.140 . S
C106 O107 1.227 . S
C106 O116 1.265 . S
O107 C106 1.227 . S
N108 Co105 2.121 . S
N108 C110 1.375 . S
N108 C111 1.313 . S
C109 C110 1.338 . S
C109 N112 1.377 . S
C109 H129 0.930 . S
C110 N108 1.375 . S
C110 C109 1.338 . S
C110 H114 0.931 . S
C111 N108 1.313 . S
C111 N112 1.344 . S
C111 H115 0.930 . S
N112 C109 1.377 . S
N112 C111 1.344 . S
O113 Co105 2.055 . S
O113 C117 1.253 . S
H114 C110 0.931 . S
H115 C111 0.930 . S
O116 Co105 2.039 . S
O116 C106 1.265 . S
C117 O113 1.253 . S
C117 O118 1.227 . S
O118 C117 1.227 . S
N119 Co105 2.140 . S
N119 C122 1.346 . S
N119 C123 1.345 . S
C120 C121 1.387 . S
C120 C124 1.391 . S
C121 C120 1.387 . S
C121 C122 1.369 . S
C121 H130 0.929 . S
C122 N119 1.346 . S
C122 C121 1.369 . S
C122 H125 0.928 . S
C123 N119 1.345 . S
C123 C124 1.371 . S
C123 H126 0.931 . S
C124 C120 1.391 . S
C124 C123 1.371 . S
C124 H131 0.930 . S
H125 C122 0.928 . S
H126 C123 0.931 . S
H127 C103 0.930 . S
H128 C100 0.930 . S
H129 C109 0.930 . S
H130 C121 0.929 . S
H131 C124 0.930 . S
C132 C133 1.351 . S
C132 N135 1.368 . S
C132 H137 0.931 . S
C133 C132 1.351 . S
C133 N134 1.373 . S
C133 H161 0.930 . S
N134 C133 1.373 . S
N134 C136 1.340 . S
N135 C132 1.368 . S
N135 C136 1.321 . S
N135 Co138 2.135 . S
C136 N134 1.340 . S
C136 N135 1.321 . S
C136 H160 0.930 . S
H137 C132 0.931 . S
Co138 N135 2.135 . S
Co138 N141 2.121 . S
Co138 O146 2.055 . S
Co138 O149 2.039 . S
Co138 N152 2.140 . S
C139 O140 1.227 . S
C139 O149 1.265 . S
O140 C139 1.227 . S
N141 Co138 2.121 . S
N141 C143 1.375 . S
N141 C144 1.313 . S
C142 C143 1.338 . S
C142 N145 1.377 . S
C142 H162 0.930 . S
C143 N141 1.375 . S
C143 C142 1.338 . S
C143 H147 0.931 . S
C144 N141 1.313 . S
C144 N145 1.344 . S
C144 H148 0.930 . S
N145 C142 1.377 . S
N145 C144 1.344 . S
O146 Co138 2.055 . S
O146 C150 1.253 . S
H147 C143 0.931 . S
H148 C144 0.930 . S
O149 Co138 2.039 . S
O149 C139 1.265 . S
C150 O146 1.253 . S
C150 O151 1.227 . S
O151 C150 1.227 . S
N152 Co138 2.140 . S
N152 C155 1.346 . S
N152 C156 1.345 . S
C153 C154 1.387 . S
C153 C157 1.391 . S
C154 C153 1.387 . S
C154 C155 1.369 . S
C154 H163 0.929 . S
C155 N152 1.346 . S
C155 C154 1.369 . S
C155 H158 0.928 . S
C156 N152 1.345 . S
C156 C157 1.371 . S
C156 H159 0.931 . S
C157 C153 1.391 . S
C157 C156 1.371 . S
C157 H164 0.930 . S
H158 C155 0.928 . S
H159 C156 0.931 . S
H160 C136 0.930 . S
H161 C133 0.930 . S
H162 C142 0.930 . S
H163 C154 0.929 . S
H164 C157 0.930 . S
C165 C166 1.351 . S
C165 N168 1.368 . S
C165 H170 0.931 . S
C166 C165 1.351 . S
C166 N167 1.373 . S
C166 H194 0.930 . S
N167 C166 1.373 . S
N167 C169 1.340 . S
N168 C165 1.368 . S
N168 C169 1.321 . S
N168 Co171 2.135 . S
C169 N167 1.340 . S
C169 N168 1.321 . S
C169 H193 0.930 . S
H170 C165 0.931 . S
Co171 N168 2.135 . S
Co171 N174 2.121 . S
Co171 O179 2.055 . S
Co171 O182 2.039 . S
Co171 N185 2.140 . S
C172 O173 1.227 . S
C172 O182 1.265 . S
O173 C172 1.227 . S
N174 Co171 2.121 . S
N174 C176 1.375 . S
N174 C177 1.313 . S
C175 C176 1.338 . S
C175 N178 1.377 . S
C175 H195 0.930 . S
C176 N174 1.375 . S
C176 C175 1.338 . S
C176 H180 0.931 . S
C177 N174 1.313 . S
C177 N178 1.344 . S
C177 H181 0.930 . S
N178 C175 1.377 . S
N178 C177 1.344 . S
O179 Co171 2.055 . S
O179 C183 1.253 . S
H180 C176 0.931 . S
H181 C177 0.930 . S
O182 Co171 2.039 . S
O182 C172 1.265 . S
C183 O179 1.253 . S
C183 O184 1.227 . S
O184 C183 1.227 . S
N185 Co171 2.140 . S
N185 C188 1.346 . S
N185 C189 1.345 . S
C186 C187 1.387 . S
C186 C190 1.391 . S
C187 C186 1.387 . S
C187 C188 1.369 . S
C187 H196 0.929 . S
C188 N185 1.346 . S
C188 C187 1.369 . S
C188 H191 0.928 . S
C189 N185 1.345 . S
C189 C190 1.371 . S
C189 H192 0.931 . S
C190 C186 1.391 . S
C190 C189 1.371 . S
C190 H197 0.930 . S
H191 C188 0.928 . S
H192 C189 0.931 . S
H193 C169 0.930 . S
H194 C166 0.930 . S
H195 C175 0.930 . S
H196 C187 0.929 . S
H197 C190 0.930 . S
C198 C199 1.351 . S
C198 N201 1.368 . S
C198 H203 0.931 . S
C199 C198 1.351 . S
C199 N200 1.373 . S
C199 H227 0.930 . S
N200 C199 1.373 . S
N200 C202 1.340 . S
N201 C198 1.368 . S
N201 C202 1.321 . S
N201 Co204 2.135 . S
C202 N200 1.340 . S
C202 N201 1.321 . S
C202 H226 0.930 . S
H203 C198 0.931 . S
Co204 N201 2.135 . S
Co204 N207 2.121 . S
Co204 O212 2.055 . S
Co204 O215 2.039 . S
Co204 N218 2.140 . S
C205 O206 1.227 . S
C205 O215 1.265 . S
O206 C205 1.227 . S
N207 Co204 2.121 . S
N207 C209 1.375 . S
N207 C210 1.313 . S
C208 C209 1.338 . S
C208 N211 1.377 . S
C208 H228 0.930 . S
C209 N207 1.375 . S
C209 C208 1.338 . S
C209 H213 0.931 . S
C210 N207 1.313 . S
C210 N211 1.344 . S
C210 H214 0.930 . S
N211 C208 1.377 . S
N211 C210 1.344 . S
O212 Co204 2.055 . S
O212 C216 1.253 . S
H213 C209 0.931 . S
H214 C210 0.930 . S
O215 Co204 2.039 . S
O215 C205 1.265 . S
C216 O212 1.253 . S
C216 O217 1.227 . S
O217 C216 1.227 . S
N218 Co204 2.140 . S
N218 C221 1.346 . S
N218 C222 1.345 . S
C219 C220 1.387 . S
C219 C223 1.391 . S
C220 C219 1.387 . S
C220 C221 1.369 . S
C220 H229 0.929 . S
C221 N218 1.346 . S
C221 C220 1.369 . S
C221 H224 0.928 . S
C222 N218 1.345 . S
C222 C223 1.371 . S
C222 H225 0.931 . S
C223 C219 1.391 . S
C223 C222 1.371 . S
C223 H230 0.930 . S
H224 C221 0.928 . S
H225 C222 0.931 . S
H226 C202 0.930 . S
H227 C199 0.930 . S
H228 C208 0.930 . S
H229 C220 0.929 . S
H230 C223 0.930 . S
C231 C232 1.351 . S
C231 N234 1.368 . S
C231 H236 0.931 . S
C232 C231 1.351 . S
C232 N233 1.373 . S
C232 H260 0.930 . S
N233 C232 1.373 . S
N233 C235 1.340 . S
N234 C231 1.368 . S
N234 C235 1.321 . S
N234 Co237 2.135 . S
C235 N233 1.340 . S
C235 N234 1.321 . S
C235 H259 0.930 . S
H236 C231 0.931 . S
Co237 N234 2.135 . S
Co237 N240 2.121 . S
Co237 O245 2.055 . S
Co237 O248 2.039 . S
Co237 N251 2.140 . S
C238 O239 1.227 . S
C238 O248 1.265 . S
O239 C238 1.227 . S
N240 Co237 2.121 . S
N240 C242 1.375 . S
N240 C243 1.313 . S
C241 C242 1.338 . S
C241 N244 1.377 . S
C241 H261 0.930 . S
C242 N240 1.375 . S
C242 C241 1.338 . S
C242 H246 0.931 . S
C243 N240 1.313 . S
C243 N244 1.344 . S
C243 H247 0.930 . S
N244 C241 1.377 . S
N244 C243 1.344 . S
O245 Co237 2.055 . S
O245 C249 1.253 . S
H246 C242 0.931 . S
H247 C243 0.930 . S
O248 Co237 2.039 . S
O248 C238 1.265 . S
C249 O245 1.253 . S
C249 O250 1.227 . S
O250 C249 1.227 . S
N251 Co237 2.140 . S
N251 C254 1.346 . S
N251 C255 1.345 . S
C252 C253 1.387 . S
C252 C256 1.391 . S
C253 C252 1.387 . S
C253 C254 1.369 . S
C253 H262 0.929 . S
C254 N251 1.346 . S
C254 C253 1.369 . S
C254 H257 0.928 . S
C255 N251 1.345 . S
C255 C256 1.371 . S
C255 H258 0.931 . S
C256 C252 1.391 . S
C256 C255 1.371 . S
C256 H263 0.930 . S
H257 C254 0.928 . S
H258 C255 0.931 . S
H259 C235 0.930 . S
H260 C232 0.930 . S
H261 C241 0.930 . S
H262 C253 0.929 . S
H263 C256 0.930 . S
C264 C265 1.351 . S
C264 N267 1.368 . S
C264 H269 0.931 . S
C265 C264 1.351 . S
C265 N266 1.373 . S
C265 H293 0.930 . S
N266 C265 1.373 . S
N266 C268 1.340 . S
N267 C264 1.368 . S
N267 C268 1.321 . S
N267 Co270 2.135 . S
C268 N266 1.340 . S
C268 N267 1.321 . S
C268 H292 0.930 . S
H269 C264 0.931 . S
Co270 N267 2.135 . S
Co270 N273 2.121 . S
Co270 O278 2.055 . S
Co270 O281 2.039 . S
Co270 N284 2.140 . S
C271 O272 1.227 . S
C271 O281 1.265 . S
O272 C271 1.227 . S
N273 Co270 2.121 . S
N273 C275 1.375 . S
N273 C276 1.313 . S
C274 C275 1.338 . S
C274 N277 1.377 . S
C274 H294 0.930 . S
C275 N273 1.375 . S
C275 C274 1.338 . S
C275 H279 0.931 . S
C276 N273 1.313 . S
C276 N277 1.344 . S
C276 H280 0.930 . S
N277 C274 1.377 . S
N277 C276 1.344 . S
O278 Co270 2.055 . S
O278 C282 1.253 . S
H279 C275 0.931 . S
H280 C276 0.930 . S
O281 Co270 2.039 . S
O281 C271 1.265 . S
C282 O278 1.253 . S
C282 O283 1.227 . S
O283 C282 1.227 . S
N284 Co270 2.140 . S
N284 C287 1.346 . S
N284 C288 1.345 . S
C285 C286 1.387 . S
C285 C289 1.391 . S
C286 C285 1.387 . S
C286 C287 1.369 . S
C286 H295 0.929 . S
C287 N284 1.346 . S
C287 C286 1.369 . S
C287 H290 0.928 . S
C288 N284 1.345 . S
C288 C289 1.371 . S
C288 H291 0.931 . S
C289 C285 1.391 . S
C289 C288 1.371 . S
C289 H296 0.930 . S
H290 C287 0.928 . S
H291 C288 0.931 . S
H292 C268 0.930 . S
H293 C265 0.930 . S
H294 C274 0.930 . S
H295 C286 0.929 . S
H296 C289 0.930 . S
C297 C298 1.351 . S
C297 N300 1.368 . S
C297 H302 0.931 . S
C298 C297 1.351 . S
C298 N299 1.373 . S
C298 H326 0.930 . S
N299 C298 1.373 . S
N299 C301 1.340 . S
N300 C297 1.368 . S
N300 C301 1.321 . S
N300 Co303 2.135 . S
C301 N299 1.340 . S
C301 N300 1.321 . S
C301 H325 0.930 . S
H302 C297 0.931 . S
Co303 N300 2.135 . S
Co303 N306 2.121 . S
Co303 O311 2.055 . S
Co303 O314 2.039 . S
Co303 N317 2.140 . S
C304 O305 1.227 . S
C304 O314 1.265 . S
O305 C304 1.227 . S
N306 Co303 2.121 . S
N306 C308 1.375 . S
N306 C309 1.313 . S
C307 C308 1.338 . S
C307 N310 1.377 . S
C307 H327 0.930 . S
C308 N306 1.375 . S
C308 C307 1.338 . S
C308 H312 0.931 . S
C309 N306 1.313 . S
C309 N310 1.344 . S
C309 H313 0.930 . S
N310 C307 1.377 . S
N310 C309 1.344 . S
O311 Co303 2.055 . S
O311 C315 1.253 . S
H312 C308 0.931 . S
H313 C309 0.930 . S
O314 Co303 2.039 . S
O314 C304 1.265 . S
C315 O311 1.253 . S
C315 O316 1.227 . S
O316 C315 1.227 . S
N317 Co303 2.140 . S
N317 C320 1.346 . S
N317 C321 1.345 . S
C318 C319 1.387 . S
C318 C322 1.391 . S
C319 C318 1.387 . S
C319 C320 1.369 . S
C319 H328 0.929 . S
C320 N317 1.346 . S
C320 C319 1.369 . S
C320 H323 0.928 . S
C321 N317 1.345 . S
C321 C322 1.371 . S
C321 H324 0.931 . S
C322 C318 1.391 . S
C322 C321 1.371 . S
C322 H329 0.930 . S
H323 C320 0.928 . S
H324 C321 0.931 . S
H325 C301 0.930 . S
H326 C298 0.930 . S
H327 C307 0.930 . S
H328 C319 0.929 . S
H329 C322 0.930 . S
C330 C331 1.351 . S
C330 N333 1.368 . S
C330 H335 0.931 . S
C331 C330 1.351 . S
C331 N332 1.373 . S
C331 H359 0.930 . S
N332 C331 1.373 . S
N332 C334 1.340 . S
N333 C330 1.368 . S
N333 C334 1.321 . S
N333 Co336 2.135 . S
C334 N332 1.340 . S
C334 N333 1.321 . S
C334 H358 0.930 . S
H335 C330 0.931 . S
Co336 N333 2.135 . S
Co336 N339 2.121 . S
Co336 O344 2.055 . S
Co336 O347 2.039 . S
Co336 N350 2.140 . S
C337 O338 1.227 . S
C337 O347 1.265 . S
O338 C337 1.227 . S
N339 Co336 2.121 . S
N339 C341 1.375 . S
N339 C342 1.313 . S
C340 C341 1.338 . S
C340 N343 1.377 . S
C340 H360 0.930 . S
C341 N339 1.375 . S
C341 C340 1.338 . S
C341 H345 0.931 . S
C342 N339 1.313 . S
C342 N343 1.344 . S
C342 H346 0.930 . S
N343 C340 1.377 . S
N343 C342 1.344 . S
O344 Co336 2.055 . S
O344 C348 1.253 . S
H345 C341 0.931 . S
H346 C342 0.930 . S
O347 Co336 2.039 . S
O347 C337 1.265 . S
C348 O344 1.253 . S
C348 O349 1.227 . S
O349 C348 1.227 . S
N350 Co336 2.140 . S
N350 C353 1.346 . S
N350 C354 1.345 . S
C351 C352 1.387 . S
C351 C355 1.391 . S
C352 C351 1.387 . S
C352 C353 1.369 . S
C352 H361 0.929 . S
C353 N350 1.346 . S
C353 C352 1.369 . S
C353 H356 0.928 . S
C354 N350 1.345 . S
C354 C355 1.371 . S
C354 H357 0.931 . S
C355 C351 1.391 . S
C355 C354 1.371 . S
C355 H362 0.930 . S
H356 C353 0.928 . S
H357 C354 0.931 . S
H358 C334 0.930 . S
H359 C331 0.930 . S
H360 C340 0.930 . S
H361 C352 0.929 . S
H362 C355 0.930 . S
C363 C364 1.351 . S
C363 N366 1.368 . S
C363 H368 0.931 . S
C364 C363 1.351 . S
C364 N365 1.373 . S
C364 H392 0.930 . S
N365 C364 1.373 . S
N365 C367 1.340 . S
N366 C363 1.368 . S
N366 C367 1.321 . S
N366 Co369 2.135 . S
C367 N365 1.340 . S
C367 N366 1.321 . S
C367 H391 0.930 . S
H368 C363 0.931 . S
Co369 N366 2.135 . S
Co369 N372 2.121 . S
Co369 O377 2.055 . S
Co369 O380 2.039 . S
Co369 N383 2.140 . S
C370 O371 1.227 . S
C370 O380 1.265 . S
O371 C370 1.227 . S
N372 Co369 2.121 . S
N372 C374 1.375 . S
N372 C375 1.313 . S
C373 C374 1.338 . S
C373 N376 1.377 . S
C373 H393 0.930 . S
C374 N372 1.375 . S
C374 C373 1.338 . S
C374 H378 0.931 . S
C375 N372 1.313 . S
C375 N376 1.344 . S
C375 H379 0.930 . S
N376 C373 1.377 . S
N376 C375 1.344 . S
O377 Co369 2.055 . S
O377 C381 1.253 . S
H378 C374 0.931 . S
H379 C375 0.930 . S
O380 Co369 2.039 . S
O380 C370 1.265 . S
C381 O377 1.253 . S
C381 O382 1.227 . S
O382 C381 1.227 . S
N383 Co369 2.140 . S
N383 C386 1.346 . S
N383 C387 1.345 . S
C384 C385 1.387 . S
C384 C388 1.391 . S
C385 C384 1.387 . S
C385 C386 1.369 . S
C385 H394 0.929 . S
C386 N383 1.346 . S
C386 C385 1.369 . S
C386 H389 0.928 . S
C387 N383 1.345 . S
C387 C388 1.371 . S
C387 H390 0.931 . S
C388 C384 1.391 . S
C388 C387 1.371 . S
C388 H395 0.930 . S
H389 C386 0.928 . S
H390 C387 0.931 . S
H391 C367 0.930 . S
H392 C364 0.930 . S
H393 C373 0.930 . S
H394 C385 0.929 . S
H395 C388 0.930 . S
C396 C397 1.363 . S
C396 C402 1.379 1_556 S
C396 N404 1.356 . S
C397 C396 1.363 . S
C397 C403 1.363 . S
C398 C399 1.363 . S
C398 C403 1.379 1_554 S
C398 N405 1.356 . S
C399 C398 1.363 . S
C399 C402 1.363 . S
N400 C402 1.356 . S
N400 H412 0.984 . S
N400 H413 0.985 . S
N401 C403 1.356 . S
N401 H406 0.984 . S
N401 H407 0.985 . S
C402 C396 1.379 1_554 S
C402 C399 1.363 . S
C402 N400 1.356 . S
C403 C397 1.363 . S
C403 C398 1.379 1_556 S
C403 N401 1.356 . S
N404 C396 1.356 . S
N404 H410 0.984 . S
N404 H411 0.984 . S
N405 C398 1.356 . S
N405 H408 0.984 . S
N405 H409 0.985 . S
H406 N401 0.984 . S
H407 N401 0.985 . S
H408 N405 0.984 . S
H409 N405 0.985 . S
H410 N404 0.984 . S
H411 N404 0.984 . S
H412 N400 0.984 . S
H413 N400 0.985 . S
C414 C415 1.363 . S
C414 C420 1.379 . S
C414 N422 1.356 . S
C415 C414 1.363 . S
C415 C421 1.363 1_655 S
C416 C417 1.363 . S
C416 C421 1.379 . S
C416 N423 1.356 . S
C417 C416 1.363 . S
C417 C420 1.363 1_455 S
N418 C420 1.356 . S
N418 H430 0.984 . S
N418 H431 0.985 1_655 S
N419 C421 1.356 . S
N419 H424 0.984 1_455 S
N419 H425 0.985 . S
C420 C414 1.379 . S
C420 C417 1.363 1_655 S
C420 N418 1.356 . S
C421 C415 1.363 1_455 S
C421 C416 1.379 . S
C421 N419 1.356 . S
N422 C414 1.356 . S
N422 H428 0.984 . S
N422 H429 0.984 . S
N423 C416 1.356 . S
N423 H426 0.984 . S
N423 H427 0.985 . S
H424 N419 0.984 1_655 S
H425 N419 0.985 . S
H426 N423 0.984 . S
H427 N423 0.985 . S
H428 N422 0.984 . S
H429 N422 0.984 . S
H430 N418 0.984 . S
H431 N418 0.985 1_455 S
C432 C433 1.363 . S
C432 C438 1.379 1_556 S
C432 N440 1.356 . S
C433 C432 1.363 . S
C433 C439 1.363 1_545 S
C434 C435 1.363 . S
C434 C439 1.379 1_554 S
C434 N441 1.356 . S
C435 C434 1.363 . S
C435 C438 1.363 1_565 S
N436 C438 1.356 . S
N436 H448 0.984 . S
N436 H449 0.985 . S
N437 C439 1.356 . S
N437 H442 0.984 . S
N437 H443 0.985 . S
C438 C432 1.379 1_554 S
C438 C435 1.363 1_545 S
C438 N436 1.356 . S
C439 C433 1.363 1_565 S
C439 C434 1.379 1_556 S
C439 N437 1.356 . S
N440 C432 1.356 . S
N440 H446 0.984 . S
N440 H447 0.984 . S
N441 C434 1.356 . S
N441 H444 0.984 . S
N441 H445 0.985 . S
H442 N437 0.984 . S
H443 N437 0.985 . S
H444 N441 0.984 . S
H445 N441 0.985 . S
H446 N440 0.984 . S
H447 N440 0.984 . S
H448 N436 0.984 . S
H449 N436 0.985 . S
C450 C451 1.363 . S
C450 C456 1.379 . S
C450 N458 1.356 . S
C451 C450 1.363 . S
C451 C457 1.363 . S
C452 C453 1.363 . S
C452 C457 1.379 . S
C452 N459 1.356 . S
C453 C452 1.363 . S
C453 C456 1.363 . S
N454 C456 1.356 . S
N454 H466 0.984 . S
N454 H467 0.985 . S
N455 C457 1.356 . S
N455 H460 0.984 . S
N455 H461 0.985 . S
C456 C450 1.379 . S
C456 C453 1.363 . S
C456 N454 1.356 . S
C457 C451 1.363 . S
C457 C452 1.379 . S
C457 N455 1.356 . S
N458 C450 1.356 . S
N458 H464 0.984 . S
N458 H465 0.984 . S
N459 C452 1.356 . S
N459 H462 0.984 . S
N459 H463 0.985 . S
H460 N455 0.984 . S
H461 N455 0.985 . S
H462 N459 0.984 . S
H463 N459 0.985 . S
H464 N458 0.984 . S
H465 N458 0.984 . S
H466 N454 0.984 . S
H467 N454 0.985 . S
C468 C469 1.363 . S
C468 C474 1.379 1_554 S
C468 N476 1.356 . S
C469 C468 1.363 . S
C469 C475 1.363 1_455 S
C470 C471 1.363 . S
C470 C475 1.379 1_556 S
C470 N477 1.356 . S
C471 C470 1.363 . S
C471 C474 1.363 1_655 S
N472 C474 1.356 . S
N472 H484 0.984 . S
N472 H485 0.985 1_455 S
N473 C475 1.356 . S
N473 H478 0.984 1_655 S
N473 H479 0.985 . S
C474 C468 1.379 1_556 S
C474 C471 1.363 1_455 S
C474 N472 1.356 . S
C475 C469 1.363 1_655 S
C475 C470 1.379 1_554 S
C475 N473 1.356 . S
N476 C468 1.356 . S
N476 H482 0.984 . S
N476 H483 0.984 . S
N477 C470 1.356 . S
N477 H480 0.984 . S
N477 H481 0.985 . S
H478 N473 0.984 1_455 S
H479 N473 0.985 . S
H480 N477 0.984 . S
H481 N477 0.985 . S
H482 N476 0.984 . S
H483 N476 0.984 . S
H484 N472 0.984 . S
H485 N472 0.985 1_655 S
C486 C487 1.363 . S
C486 C492 1.379 . S
C486 N494 1.356 . S
C487 C486 1.363 . S
C487 C493 1.363 1_565 S
C488 C489 1.363 . S
C488 C493 1.379 . S
C488 N495 1.356 . S
C489 C488 1.363 . S
C489 C492 1.363 1_545 S
N490 C492 1.356 . S
N490 H502 0.984 . S
N490 H503 0.985 . S
N491 C493 1.356 . S
N491 H496 0.984 . S
N491 H497 0.985 . S
C492 C486 1.379 . S
C492 C489 1.363 1_565 S
C492 N490 1.356 . S
C493 C487 1.363 1_545 S
C493 C488 1.379 . S
C493 N491 1.356 . S
N494 C486 1.356 . S
N494 H500 0.984 . S
N494 H501 0.984 . S
N495 C488 1.356 . S
N495 H498 0.984 . S
N495 H499 0.985 . S
H496 N491 0.984 . S
H497 N491 0.985 . S
H498 N495 0.984 . S
H499 N495 0.985 . S
H500 N494 0.984 . S
H501 N494 0.984 . S
H502 N490 0.984 . S
H503 N490 0.985 . S
C504 C505 1.363 . S
C504 C510 1.379 . S
C504 N512 1.356 . S
C505 C504 1.363 . S
C505 C511 1.363 . S
C506 C507 1.363 . S
C506 C511 1.379 . S
C506 N513 1.356 . S
C507 C506 1.363 . S
C507 C510 1.363 . S
N508 C510 1.356 . S
N508 H520 0.984 . S
N508 H521 0.985 . S
N509 C511 1.356 . S
N509 H514 0.984 . S
N509 H515 0.985 . S
C510 C504 1.379 . S
C510 C507 1.363 . S
C510 N508 1.356 . S
C511 C505 1.363 . S
C511 C506 1.379 . S
C511 N509 1.356 . S
N512 C504 1.356 . S
N512 H518 0.984 . S
N512 H519 0.984 . S
N513 C506 1.356 . S
N513 H516 0.984 . S
N513 H517 0.985 . S
H514 N509 0.984 . S
H515 N509 0.985 . S
H516 N513 0.984 . S
H517 N513 0.985 . S
H518 N512 0.984 . S
H519 N512 0.984 . S
H520 N508 0.984 . S
H521 N508 0.985 . S
C522 C523 1.363 . S
C522 C528 1.379 . S
C522 N530 1.356 . S
C523 C522 1.363 . S
C523 C529 1.363 . S
C524 C525 1.363 . S
C524 C529 1.379 . S
C524 N531 1.356 . S
C525 C524 1.363 . S
C525 C528 1.363 . S
N526 C528 1.356 . S
N526 H538 0.984 . S
N526 H539 0.985 . S
N527 C529 1.356 . S
N527 H532 0.984 . S
N527 H533 0.985 . S
C528 C522 1.379 . S
C528 C525 1.363 . S
C528 N526 1.356 . S
C529 C523 1.363 . S
C529 C524 1.379 . S
C529 N527 1.356 . S
N530 C522 1.356 . S
N530 H536 0.984 . S
N530 H537 0.984 . S
N531 C524 1.356 . S
N531 H534 0.984 . S
N531 H535 0.985 . S
H532 N527 0.984 . S
H533 N527 0.985 . S
H534 N531 0.984 . S
H535 N531 0.985 . S
H536 N530 0.984 . S
H537 N530 0.984 . S
H538 N526 0.984 . S
H539 N526 0.985 . S
C540 C541 1.363 . S
C540 C546 1.379 . S
C540 N548 1.356 . S
C541 C540 1.363 . S
C541 C547 1.363 . S
C542 C543 1.363 . S
C542 C547 1.379 . S
C542 N549 1.356 . S
C543 C542 1.363 . S
C543 C546 1.363 . S
N544 C546 1.356 . S
N544 H556 0.984 . S
N544 H557 0.985 . S
N545 C547 1.356 . S
N545 H550 0.984 . S
N545 H551 0.985 . S
C546 C540 1.379 . S
C546 C543 1.363 . S
C546 N544 1.356 . S
C547 C541 1.363 . S
C547 C542 1.379 . S
C547 N545 1.356 . S
N548 C540 1.356 . S
N548 H554 0.984 . S
N548 H555 0.984 . S
N549 C542 1.356 . S
N549 H552 0.984 . S
N549 H553 0.985 . S
H550 N545 0.984 . S
H551 N545 0.985 . S
H552 N549 0.984 . S
H553 N549 0.985 . S
H554 N548 0.984 . S
H555 N548 0.984 . S
H556 N544 0.984 . S
H557 N544 0.985 . S
C558 C559 1.363 . S
C558 C564 1.379 . S
C558 N566 1.356 . S
C559 C558 1.363 . S
C559 C565 1.363 . S
C560 C561 1.363 . S
C560 C565 1.379 . S
C560 N567 1.356 . S
C561 C560 1.363 . S
C561 C564 1.363 . S
N562 C564 1.356 . S
N562 H574 0.984 . S
N562 H575 0.985 . S
N563 C565 1.356 . S
N563 H568 0.984 . S
N563 H569 0.985 . S
C564 C558 1.379 . S
C564 C561 1.363 . S
C564 N562 1.356 . S
C565 C559 1.363 . S
C565 C560 1.379 . S
C565 N563 1.356 . S
N566 C558 1.356 . S
N566 H572 0.984 . S
N566 H573 0.984 . S
N567 C560 1.356 . S
N567 H570 0.984 . S
N567 H571 0.985 . S
H568 N563 0.984 . S
H569 N563 0.985 . S
H570 N567 0.984 . S
H571 N567 0.985 . S
H572 N566 0.984 . S
H573 N566 0.984 . S
H574 N562 0.984 . S
H575 N562 0.985 . S
C576 C577 1.363 . S
C576 C582 1.379 . S
C576 N584 1.356 . S
C577 C576 1.363 . S
C577 C583 1.363 . S
C578 C579 1.363 . S
C578 C583 1.379 . S
C578 N585 1.356 . S
C579 C578 1.363 . S
C579 C582 1.363 . S
N580 C582 1.356 . S
N580 H592 0.984 . S
N580 H593 0.985 . S
N581 C583 1.356 . S
N581 H586 0.984 . S
N581 H587 0.985 . S
C582 C576 1.379 . S
C582 C579 1.363 . S
C582 N580 1.356 . S
C583 C577 1.363 . S
C583 C578 1.379 . S
C583 N581 1.356 . S
N584 C576 1.356 . S
N584 H590 0.984 . S
N584 H591 0.984 . S
N585 C578 1.356 . S
N585 H588 0.984 . S
N585 H589 0.985 . S
H586 N581 0.984 . S
H587 N581 0.985 . S
H588 N585 0.984 . S
H589 N585 0.985 . S
H590 N584 0.984 . S
H591 N584 0.984 . S
H592 N580 0.984 . S
H593 N580 0.985 . S
C594 C595 1.363 . S
C594 C600 1.379 . S
C594 N602 1.356 . S
C595 C594 1.363 . S
C595 C601 1.363 . S
C596 C597 1.363 . S
C596 C601 1.379 . S
C596 N603 1.356 . S
C597 C596 1.363 . S
C597 C600 1.363 . S
N598 C600 1.356 . S
N598 H610 0.984 . S
N598 H611 0.985 . S
N599 C601 1.356 . S
N599 H604 0.984 . S
N599 H605 0.985 . S
C600 C594 1.379 . S
C600 C597 1.363 . S
C600 N598 1.356 . S
C601 C595 1.363 . S
C601 C596 1.379 . S
C601 N599 1.356 . S
N602 C594 1.356 . S
N602 H608 0.984 . S
N602 H609 0.984 . S
N603 C596 1.356 . S
N603 H606 0.984 . S
N603 H607 0.985 . S
H604 N599 0.984 . S
H605 N599 0.985 . S
H606 N603 0.984 . S
H607 N603 0.985 . S
H608 N602 0.984 . S
H609 N602 0.984 . S
H610 N598 0.984 . S
H611 N598 0.985 . S
C612 C613 1.363 . S
C612 C618 1.379 . S
C612 N620 1.356 . S
C613 C612 1.363 . S
C613 C619 1.363 . S
C614 C615 1.363 . S
C614 C619 1.379 . S
C614 N621 1.356 . S
C615 C614 1.363 . S
C615 C618 1.363 . S
N616 C618 1.356 . S
N616 H628 0.984 . S
N616 H629 0.985 . S
N617 C619 1.356 . S
N617 H622 0.984 . S
N617 H623 0.985 . S
C618 C612 1.379 . S
C618 C615 1.363 . S
C618 N616 1.356 . S
C619 C613 1.363 . S
C619 C614 1.379 . S
C619 N617 1.356 . S
N620 C612 1.356 . S
N620 H626 0.984 . S
N620 H627 0.984 . S
N621 C614 1.356 . S
N621 H624 0.984 . S
N621 H625 0.985 . S
H622 N617 0.984 . S
H623 N617 0.985 . S
H624 N621 0.984 . S
H625 N621 0.985 . S
H626 N620 0.984 . S
H627 N620 0.984 . S
H628 N616 0.984 . S
H629 N616 0.985 . S
C630 C631 1.363 . S
C630 C636 1.379 . S
C630 N638 1.356 . S
C631 C630 1.363 . S
C631 C637 1.363 . S
C632 C633 1.363 . S
C632 C637 1.379 . S
C632 N639 1.356 . S
C633 C632 1.363 . S
C633 C636 1.363 . S
N634 C636 1.356 . S
N634 H646 0.984 . S
N634 H647 0.985 . S
N635 C637 1.356 . S
N635 H640 0.984 . S
N635 H641 0.985 . S
C636 C630 1.379 . S
C636 C633 1.363 . S
C636 N634 1.356 . S
C637 C631 1.363 . S
C637 C632 1.379 . S
C637 N635 1.356 . S
N638 C630 1.356 . S
N638 H644 0.984 . S
N638 H645 0.984 . S
N639 C632 1.356 . S
N639 H642 0.984 . S
N639 H643 0.985 . S
H640 N635 0.984 . S
H641 N635 0.985 . S
H642 N639 0.984 . S
H643 N639 0.985 . S
H644 N638 0.984 . S
H645 N638 0.984 . S
H646 N634 0.984 . S
H647 N634 0.985 . S
C648 C649 1.363 . S
C648 C654 1.379 . S
C648 N656 1.356 . S
C649 C648 1.363 . S
C649 C655 1.363 . S
C650 C651 1.363 . S
C650 C655 1.379 . S
C650 N657 1.356 . S
C651 C650 1.363 . S
C651 C654 1.363 . S
N652 C654 1.356 . S
N652 H664 0.984 . S
N652 H665 0.985 . S
N653 C655 1.356 . S
N653 H658 0.984 . S
N653 H659 0.985 . S
C654 C648 1.379 . S
C654 C651 1.363 . S
C654 N652 1.356 . S
C655 C649 1.363 . S
C655 C650 1.379 . S
C655 N653 1.356 . S
N656 C648 1.356 . S
N656 H662 0.984 . S
N656 H663 0.984 . S
N657 C650 1.356 . S
N657 H660 0.984 . S
N657 H661 0.985 . S
H658 N653 0.984 . S
H659 N653 0.985 . S
H660 N657 0.984 . S
H661 N657 0.985 . S
H662 N656 0.984 . S
H663 N656 0.984 . S
H664 N652 0.984 . S
H665 N652 0.985 . S
C666 C667 1.363 . S
C666 C672 1.379 . S
C666 N674 1.356 . S
C667 C666 1.363 . S
C667 C673 1.363 . S
C668 C669 1.363 . S
C668 C673 1.379 . S
C668 N675 1.356 . S
C669 C668 1.363 . S
C669 C672 1.363 . S
N670 C672 1.356 . S
N670 H682 0.984 . S
N670 H683 0.985 . S
N671 C673 1.356 . S
N671 H676 0.984 . S
N671 H677 0.985 . S
C672 C666 1.379 . S
C672 C669 1.363 . S
C672 N670 1.356 . S
C673 C667 1.363 . S
C673 C668 1.379 . S
C673 N671 1.356 . S
N674 C666 1.356 . S
N674 H680 0.984 . S
N674 H681 0.984 . S
N675 C668 1.356 . S
N675 H678 0.984 . S
N675 H679 0.985 . S
H676 N671 0.984 . S
H677 N671 0.985 . S
H678 N675 0.984 . S
H679 N675 0.985 . S
H680 N674 0.984 . S
H681 N674 0.984 . S
H682 N670 0.984 . S
H683 N670 0.985 . S
C684 C685 1.363 . S
C684 C690 1.379 . S
C684 N692 1.356 . S
C685 C684 1.363 . S
C685 C691 1.363 . S
C686 C687 1.363 . S
C686 C691 1.379 . S
C686 N693 1.356 . S
C687 C686 1.363 . S
C687 C690 1.363 . S
N688 C690 1.356 . S
N688 H700 0.984 . S
N688 H701 0.985 . S
N689 C691 1.356 . S
N689 H694 0.984 . S
N689 H695 0.985 . S
C690 C684 1.379 . S
C690 C687 1.363 . S
C690 N688 1.356 . S
C691 C685 1.363 . S
C691 C686 1.379 . S
C691 N689 1.356 . S
N692 C684 1.356 . S
N692 H698 0.984 . S
N692 H699 0.984 . S
N693 C686 1.356 . S
N693 H696 0.984 . S
N693 H697 0.985 . S
H694 N689 0.984 . S
H695 N689 0.985 . S
H696 N693 0.984 . S
H697 N693 0.985 . S
H698 N692 0.984 . S
H699 N692 0.984 . S
H700 N688 0.984 . S
H701 N688 0.985 . S
C702 C703 1.363 . S
C702 C708 1.379 . S
C702 N710 1.356 . S
C703 C702 1.363 . S
C703 C709 1.363 . S
C704 C705 1.363 . S
C704 C709 1.379 . S
C704 N711 1.356 . S
C705 C704 1.363 . S
C705 C708 1.363 . S
N706 C708 1.356 . S
N706 H718 0.984 . S
N706 H719 0.985 . S
N707 C709 1.356 . S
N707 H712 0.984 . S
N707 H713 0.985 . S
C708 C702 1.379 . S
C708 C705 1.363 . S
C708 N706 1.356 . S
C709 C703 1.363 . S
C709 C704 1.379 . S
C709 N707 1.356 . S
N710 C702 1.356 . S
N710 H716 0.984 . S
N710 H717 0.984 . S
N711 C704 1.356 . S
N711 H714 0.984 . S
N711 H715 0.985 . S
H712 N707 0.984 . S
H713 N707 0.985 . S
H714 N711 0.984 . S
H715 N711 0.985 . S
H716 N710 0.984 . S
H717 N710 0.984 . S
H718 N706 0.984 . S
H719 N706 0.985 . S
C720 C721 1.363 . S
C720 C726 1.379 . S
C720 N728 1.356 . S
C721 C720 1.363 . S
C721 C727 1.363 . S
C722 C723 1.363 . S
C722 C727 1.379 . S
C722 N729 1.356 . S
C723 C722 1.363 . S
C723 C726 1.363 . S
N724 C726 1.356 . S
N724 H736 0.984 . S
N724 H737 0.985 . S
N725 C727 1.356 . S
N725 H730 0.984 . S
N725 H731 0.985 . S
C726 C720 1.379 . S
C726 C723 1.363 . S
C726 N724 1.356 . S
C727 C721 1.363 . S
C727 C722 1.379 . S
C727 N725 1.356 . S
N728 C720 1.356 . S
N728 H734 0.984 . S
N728 H735 0.984 . S
N729 C722 1.356 . S
N729 H732 0.984 . S
N729 H733 0.985 . S
H730 N725 0.984 . S
H731 N725 0.985 . S
H732 N729 0.984 . S
H733 N729 0.985 . S
H734 N728 0.984 . S
H735 N728 0.984 . S
H736 N724 0.984 . S
H737 N724 0.985 . S
C738 C739 1.363 . S
C738 C744 1.379 . S
C738 N746 1.356 . S
C739 C738 1.363 . S
C739 C745 1.363 . S
C740 C741 1.363 . S
C740 C745 1.379 . S
C740 N747 1.356 . S
C741 C740 1.363 . S
C741 C744 1.363 . S
N742 C744 1.356 . S
N742 H754 0.984 . S
N742 H755 0.985 . S
N743 C745 1.356 . S
N743 H748 0.984 . S
N743 H749 0.985 . S
C744 C738 1.379 . S
C744 C741 1.363 . S
C744 N742 1.356 . S
C745 C739 1.363 . S
C745 C740 1.379 . S
C745 N743 1.356 . S
N746 C738 1.356 . S
N746 H752 0.984 . S
N746 H753 0.984 . S
N747 C740 1.356 . S
N747 H750 0.984 . S
N747 H751 0.985 . S
H748 N743 0.984 . S
H749 N743 0.985 . S
H750 N747 0.984 . S
H751 N747 0.985 . S
H752 N746 0.984 . S
H753 N746 0.984 . S
H754 N742 0.984 . S
H755 N742 0.985 . S
C756 C757 1.363 . S
C756 C762 1.379 . S
C756 N764 1.356 . S
C757 C756 1.363 . S
C757 C763 1.363 . S
C758 C759 1.363 . S
C758 C763 1.379 . S
C758 N765 1.356 . S
C759 C758 1.363 . S
C759 C762 1.363 . S
N760 C762 1.356 . S
N760 H772 0.984 . S
N760 H773 0.985 . S
N761 C763 1.356 . S
N761 H766 0.984 . S
N761 H767 0.985 . S
C762 C756 1.379 . S
C762 C759 1.363 . S
C762 N760 1.356 . S
C763 C757 1.363 . S
C763 C758 1.379 . S
C763 N761 1.356 . S
N764 C756 1.356 . S
N764 H770 0.984 . S
N764 H771 0.984 . S
N765 C758 1.356 . S
N765 H768 0.984 . S
N765 H769 0.985 . S
H766 N761 0.984 . S
H767 N761 0.985 . S
H768 N765 0.984 . S
H769 N765 0.985 . S
H770 N764 0.984 . S
H771 N764 0.984 . S
H772 N760 0.984 . S
H773 N760 0.985 . S
C774 C775 1.363 . S
C774 C780 1.379 . S
C774 N782 1.356 . S
C775 C774 1.363 . S
C775 C781 1.363 . S
C776 C777 1.363 . S
C776 C781 1.379 . S
C776 N783 1.356 . S
C777 C776 1.363 . S
C777 C780 1.363 . S
N778 C780 1.356 . S
N778 H790 0.984 . S
N778 H791 0.985 . S
N779 C781 1.356 . S
N779 H784 0.984 . S
N779 H785 0.985 . S
C780 C774 1.379 . S
C780 C777 1.363 . S
C780 N778 1.356 . S
C781 C775 1.363 . S
C781 C776 1.379 . S
C781 N779 1.356 . S
N782 C774 1.356 . S
N782 H788 0.984 . S
N782 H789 0.984 . S
N783 C776 1.356 . S
N783 H786 0.984 . S
N783 H787 0.985 . S
H784 N779 0.984 . S
H785 N779 0.985 . S
H786 N783 0.984 . S
H787 N783 0.985 . S
H788 N782 0.984 . S
H789 N782 0.984 . S
H790 N778 0.984 . S
H791 N778 0.985 . S
C792 C793 1.363 . S
C792 C798 1.379 . S
C792 N800 1.356 . S
C793 C792 1.363 . S
C793 C799 1.363 . S
C794 C795 1.363 . S
C794 C799 1.379 . S
C794 N801 1.356 . S
C795 C794 1.363 . S
C795 C798 1.363 . S
N796 C798 1.356 . S
N796 H808 0.984 . S
N796 H809 0.985 . S
N797 C799 1.356 . S
N797 H802 0.984 . S
N797 H803 0.985 . S
C798 C792 1.379 . S
C798 C795 1.363 . S
C798 N796 1.356 . S
C799 C793 1.363 . S
C799 C794 1.379 . S
C799 N797 1.356 . S
N800 C792 1.356 . S
N800 H806 0.984 . S
N800 H807 0.984 . S
N801 C794 1.356 . S
N801 H804 0.984 . S
N801 H805 0.985 . S
H802 N797 0.984 . S
H803 N797 0.985 . S
H804 N801 0.984 . S
H805 N801 0.985 . S
H806 N800 0.984 . S
H807 N800 0.984 . S
H808 N796 0.984 . S
H809 N796 0.985 . S
C810 C811 1.363 . S
C810 C816 1.379 . S
C810 N818 1.356 . S
C811 C810 1.363 . S
C811 C817 1.363 . S
C812 C813 1.363 . S
C812 C817 1.379 . S
C812 N819 1.356 . S
C813 C812 1.363 . S
C813 C816 1.363 . S
N814 C816 1.356 . S
N814 H826 0.984 . S
N814 H827 0.985 . S
N815 C817 1.356 . S
N815 H820 0.984 . S
N815 H821 0.985 . S
C816 C810 1.379 . S
C816 C813 1.363 . S
C816 N814 1.356 . S
C817 C811 1.363 . S
C817 C812 1.379 . S
C817 N815 1.356 . S
N818 C810 1.356 . S
N818 H824 0.984 . S
N818 H825 0.984 . S
N819 C812 1.356 . S
N819 H822 0.984 . S
N819 H823 0.985 . S
H820 N815 0.984 . S
H821 N815 0.985 . S
H822 N819 0.984 . S
H823 N819 0.985 . S
H824 N818 0.984 . S
H825 N818 0.984 . S
H826 N814 0.984 . S
H827 N814 0.985 . S
C828 C829 1.363 . S
C828 C834 1.379 . S
C828 N836 1.356 . S
C829 C828 1.363 . S
C829 C835 1.363 . S
C830 C831 1.363 . S
C830 C835 1.379 . S
C830 N837 1.356 . S
C831 C830 1.363 . S
C831 C834 1.363 . S
N832 C834 1.356 . S
N832 H844 0.984 . S
N832 H845 0.985 . S
N833 C835 1.356 . S
N833 H838 0.984 . S
N833 H839 0.985 . S
C834 C828 1.379 . S
C834 C831 1.363 . S
C834 N832 1.356 . S
C835 C829 1.363 . S
C835 C830 1.379 . S
C835 N833 1.356 . S
N836 C828 1.356 . S
N836 H842 0.984 . S
N836 H843 0.984 . S
N837 C830 1.356 . S
N837 H840 0.984 . S
N837 H841 0.985 . S
H838 N833 0.984 . S
H839 N833 0.985 . S
H840 N837 0.984 . S
H841 N837 0.985 . S
H842 N836 0.984 . S
H843 N836 0.984 . S
H844 N832 0.984 . S
H845 N832 0.985 . S
C846 C847 1.363 . S
C846 C852 1.379 . S
C846 N854 1.356 . S
C847 C846 1.363 . S
C847 C853 1.363 . S
C848 C849 1.363 . S
C848 C853 1.379 . S
C848 N855 1.356 . S
C849 C848 1.363 . S
C849 C852 1.363 . S
N850 C852 1.356 . S
N850 H862 0.984 . S
N850 H863 0.985 . S
N851 C853 1.356 . S
N851 H856 0.984 . S
N851 H857 0.985 . S
C852 C846 1.379 . S
C852 C849 1.363 . S
C852 N850 1.356 . S
C853 C847 1.363 . S
C853 C848 1.379 . S
C853 N851 1.356 . S
N854 C846 1.356 . S
N854 H860 0.984 . S
N854 H861 0.984 . S
N855 C848 1.356 . S
N855 H858 0.984 . S
N855 H859 0.985 . S
H856 N851 0.984 . S
H857 N851 0.985 . S
H858 N855 0.984 . S
H859 N855 0.985 . S
H860 N854 0.984 . S
H861 N854 0.984 . S
H862 N850 0.984 . S
H863 N850 0.985 . S
C864 C865 1.363 . S
C864 C870 1.379 . S
C864 N872 1.356 . S
C865 C864 1.363 . S
C865 C871 1.363 . S
C866 C867 1.363 . S
C866 C871 1.379 . S
C866 N873 1.356 . S
C867 C866 1.363 . S
C867 C870 1.363 . S
N868 C870 1.356 . S
N868 H880 0.984 1_565 S
N868 H881 0.985 . S
N869 C871 1.356 . S
N869 H874 0.984 . S
N869 H875 0.985 . S
C870 C864 1.379 . S
C870 C867 1.363 . S
C870 N868 1.356 . S
C871 C865 1.363 . S
C871 C866 1.379 . S
C871 N869 1.356 . S
N872 C864 1.356 . S
N872 H878 0.984 1_565 S
N872 H879 0.984 . S
N873 C866 1.356 . S
N873 H876 0.984 . S
N873 H877 0.985 . S
H874 N869 0.984 . S
H875 N869 0.985 . S
H876 N873 0.984 . S
H877 N873 0.985 . S
H878 N872 0.984 1_545 S
H879 N872 0.984 . S
H880 N868 0.984 1_545 S
H881 N868 0.985 . S
C882 C883 1.363 . S
C882 C888 1.379 . S
C882 N890 1.356 . S
C883 C882 1.363 . S
C883 C889 1.363 . S
C884 C885 1.363 . S
C884 C889 1.379 . S
C884 N891 1.356 . S
C885 C884 1.363 . S
C885 C888 1.363 . S
N886 C888 1.356 . S
N886 H898 0.984 . S
N886 H899 0.985 . S
N887 C889 1.356 . S
N887 H892 0.984 . S
N887 H893 0.985 . S
C888 C882 1.379 . S
C888 C885 1.363 . S
C888 N886 1.356 . S
C889 C883 1.363 . S
C889 C884 1.379 . S
C889 N887 1.356 . S
N890 C882 1.356 . S
N890 H896 0.984 . S
N890 H897 0.984 . S
N891 C884 1.356 . S
N891 H894 0.984 . S
N891 H895 0.985 . S
H892 N887 0.984 . S
H893 N887 0.985 . S
H894 N891 0.984 . S
H895 N891 0.985 . S
H896 N890 0.984 . S
H897 N890 0.984 . S
H898 N886 0.984 . S
H899 N886 0.985 . S
C900 C901 1.363 . S
C900 C906 1.379 . S
C900 N908 1.361 . S
C901 C900 1.363 . S
C901 C907 1.363 . S
C902 C903 1.363 . S
C902 C907 1.379 . S
C902 N909 1.356 . S
C903 C902 1.363 . S
C903 C906 1.363 . S
N904 C906 1.358 . S
N904 H916 0.979 1_455 S
N904 H917 0.988 . S
N905 C907 1.356 . S
N905 H910 0.984 . S
N905 H911 0.985 . S
C906 C900 1.379 . S
C906 C903 1.363 . S
C906 N904 1.358 . S
C907 C901 1.363 . S
C907 C902 1.379 . S
C907 N905 1.356 . S
N908 C900 1.361 . S
N908 H914 0.980 1_455 S
N908 H915 0.984 . S
N909 C902 1.356 . S
N909 H912 0.984 . S
N909 H913 0.985 . S
H910 N905 0.984 . S
H911 N905 0.985 . S
H912 N909 0.984 . S
H913 N909 0.985 . S
H914 N908 0.980 1_655 S
H915 N908 0.984 . S
H916 N904 0.979 1_655 S
H917 N904 0.988 . S
C918 C919 1.363 . S
C918 C924 1.379 . S
C918 N926 1.356 . S
C919 C918 1.363 . S
C919 C925 1.363 . S
C920 C921 1.363 . S
C920 C925 1.379 . S
C920 N927 1.356 . S
C921 C920 1.363 . S
C921 C924 1.363 . S
N922 C924 1.356 . S
N922 H934 0.984 . S
N922 H935 0.985 . S
N923 C925 1.356 . S
N923 H928 0.984 . S
N923 H929 0.985 1_545 S
C924 C918 1.379 . S
C924 C921 1.363 . S
C924 N922 1.356 . S
C925 C919 1.363 . S
C925 C920 1.379 . S
C925 N923 1.356 . S
N926 C918 1.356 . S
N926 H932 0.984 . S
N926 H933 0.984 . S
N927 C920 1.356 . S
N927 H930 0.984 . S
N927 H931 0.985 1_545 S
H928 N923 0.984 . S
H929 N923 0.985 1_565 S
H930 N927 0.984 . S
H931 N927 0.985 1_565 S
H932 N926 0.984 . S
H933 N926 0.984 . S
H934 N922 0.984 . S
H935 N922 0.985 . S
C397 C318 1.188 . S
C399 C21 1.188 . S
C415 C54 1.189 . S
C417 C351 1.189 . S
C433 C384 1.188 . S
C435 C87 1.188 . S
C451 C120 1.189 . S
C453 C219 1.189 . S
C469 C153 1.189 . S
C471 C252 1.189 . S
C487 C285 1.188 . S
C489 C186 1.188 . S
C505 C18 1.537 . S
C507 N134 1.323 . S
C523 N167 1.323 . S
C525 C51 1.537 . S
C541 C84 1.537 . S
C543 N2 1.323 . S
C559 C117 1.537 . S
C561 N35 1.323 . S
C577 N68 1.323 . S
C579 C150 1.537 . S
C595 N101 1.323 . S
C597 C183 1.537 . S
C613 N266 1.323 . S
C615 C216 1.537 . S
C631 C249 1.537 . S
C633 N299 1.323 . S
C649 N332 1.323 . S
C651 C282 1.537 . S
C667 N365 1.323 . S
C669 C315 1.537 . S
C685 N200 1.323 . S
C687 C348 1.537 . S
C703 C381 1.537 . S
C705 N233 1.323 . S
C721 N343 1.022 . S
C723 N13 1.022 . S
C739 N376 1.022 . S
C741 N46 1.022 . S
C757 N79 1.022 . S
C759 N211 1.022 . S
C775 N112 1.022 . S
C777 N244 1.022 . S
C793 N277 1.022 . S
C795 N145 1.022 . S
C811 N178 1.022 . S
C813 N310 1.022 . S
C829 C205 1.224 . S
C831 C7 1.224 . S
C847 C238 1.224 . S
C849 C40 1.224 . S
C865 C73 1.224 . S
C867 C271 1.224 . S
C883 C304 1.224 . S
C885 C106 1.224 . S
C901 C139 1.224 . S
C903 C337 1.224 . S
C919 C370 1.224 . S
C921 C172 1.224 . S
