# Generated by pormake.
# Topology sml, (6)-cn, num edge types: 1
# Building blocks:
#     Node 0, Type 0, BuildingBlock: VOLQOD_clean_sbu_1, # of connection points: 6
#     Node 1, Type 0, BuildingBlock: VOLQOD_clean_sbu_1, # of connection points: 6
#     Node 2, Type 0, BuildingBlock: VOLQOD_clean_sbu_1, # of connection points: 6
#     Node 3, Type 0, BuildingBlock: VOLQOD_clean_sbu_1, # of connection points: 6
#     Node 4, Type 0, BuildingBlock: VOLQOD_clean_sbu_1, # of connection points: 6
#     Node 5, Type 0, BuildingBlock: VOLQOD_clean_sbu_1, # of connection points: 6
#     Edge 6, Type (0, 0), BuildingBlock: KIFKEQ_clean_linker_1, # of connection points: 2
#     Edge 7, Type (0, 0), BuildingBlock: KIFKEQ_clean_linker_1, # of connection points: 2
#     Edge 8, Type (0, 0), BuildingBlock: KIFKEQ_clean_linker_1, # of connection points: 2
#     Edge 9, Type (0, 0), BuildingBlock: KIFKEQ_clean_linker_1, # of connection points: 2
#     Edge 10, Type (0, 0), BuildingBlock: KIFKEQ_clean_linker_1, # of connection points: 2
#     Edge 11, Type (0, 0), BuildingBlock: KIFKEQ_clean_linker_1, # of connection points: 2
#     Edge 12, Type (0, 0), BuildingBlock: KIFKEQ_clean_linker_1, # of connection points: 2
#     Edge 13, Type (0, 0), BuildingBlock: KIFKEQ_clean_linker_1, # of connection points: 2
#     Edge 14, Type (0, 0), BuildingBlock: KIFKEQ_clean_linker_1, # of connection points: 2
#     Edge 15, Type (0, 0), BuildingBlock: KIFKEQ_clean_linker_1, # of connection points: 2
#     Edge 16, Type (0, 0), BuildingBlock: KIFKEQ_clean_linker_1, # of connection points: 2
#     Edge 17, Type (0, 0), BuildingBlock: KIFKEQ_clean_linker_1, # of connection points: 2
#     Edge 18, Type (0, 0), BuildingBlock: KIFKEQ_clean_linker_1, # of connection points: 2
#     Edge 19, Type (0, 0), BuildingBlock: KIFKEQ_clean_linker_1, # of connection points: 2
#     Edge 20, Type (0, 0), BuildingBlock: KIFKEQ_clean_linker_1, # of connection points: 2
#     Edge 21, Type (0, 0), BuildingBlock: KIFKEQ_clean_linker_1, # of connection points: 2
#     Edge 22, Type (0, 0), BuildingBlock: KIFKEQ_clean_linker_1, # of connection points: 2
#     Edge 23, Type (0, 0), BuildingBlock: KIFKEQ_clean_linker_1, # of connection points: 2
# Relax obj value: 0.293
# Max RMSD: 0.187
# Mean RMSD: 0.187
data_MOF--net-sml--node1-VOLQOD_clean_sbu_1--edge1-KIFKEQ_clean_linker_1
_symmetry_space_group_name_H-M    P1
_symmetry_Int_Tables_number       1
_symmetry_cell_setting            triclinic
loop_
_symmetry_equiv_pos_as_xyz
'x, y, z'
_cell_length_a     44.272291
_cell_length_b     44.296454
_cell_length_c     15.924379
_cell_angle_alpha  89.934277
_cell_angle_beta   90.199567
_cell_angle_gamma 119.83659
loop_
_atom_site_label
_atom_site_type_symbol
_atom_site_fract_x
_atom_site_fract_y
_atom_site_fract_z
_atom_type_partial_charge
O0 O 0.1094 0.38239 -0.00938 0.0
Zn1 Zn 0.15131 0.42451 0.94473 0.0
O2 O 0.19278 0.42014 0.96074 0.0
Zn3 Zn 0.22749 0.46108 0.01755 0.0
Zn4 Zn 0.18122 0.3789 0.02645 0.0
Zn5 Zn 0.21254 0.41692 0.85688 0.0
O6 O 0.27437 0.48274 0.96449 0.0
O7 O 0.26198 0.45633 0.84085 0.0
O8 O 0.15643 0.46826 -0.00172 0.0
O9 O 0.21324 0.49719 0.02376 0.0
O10 O 0.22939 0.45047 0.13668 0.0
O11 O 0.19454 0.39326 0.1456 0.0
O12 O 0.20336 0.35206 -0.02026 0.0
O13 O 0.14257 0.42726 0.82217 0.0
O14 O 0.21407 0.37271 0.84933 0.0
O15 O 0.18395 0.41915 0.76508 0.0
C16 C 0.10422 0.35335 0.01954 0.0
C17 C 0.28355 0.47938 0.8911 0.0
C18 C 0.21318 0.42286 0.1798 0.0
C19 C 0.18386 0.49579 0.02152 0.0
C20 C 0.21243 0.35109 0.90433 0.0
C21 C 0.15787 0.42371 0.75883 0.0
O22 O 0.12926 0.3474 0.03137 0.0
O23 O 0.72857 0.11271 0.33848 0.0
Zn24 Zn 0.73105 0.15686 0.29952 0.0
O25 O 0.77801 0.19635 0.31795 0.0
Zn26 Zn 0.77604 0.23023 0.39068 0.0
Zn27 Zn 0.80766 0.1798 0.36656 0.0
Zn28 Zn 0.79824 0.21988 0.21524 0.0
O29 O 0.80074 0.27924 0.34556 0.0
O30 O 0.80797 0.26909 0.21313 0.0
O31 O 0.69441 0.16394 0.35815 0.0
O32 O 0.72648 0.21784 0.40675 0.0
O33 O 0.79239 0.22684 0.5048 0.0
O34 O 0.81275 0.19035 0.4887 0.0
O35 O 0.85437 0.19956 0.30802 0.0
O36 O 0.71967 0.14931 0.17606 0.0
O37 O 0.84321 0.22149 0.19434 0.0
O38 O 0.76686 0.19444 0.12193 0.0
C39 C 0.75158 0.10465 0.35795 0.0
C40 C 0.80964 0.28981 0.27051 0.0
C41 C 0.80479 0.20867 0.5351 0.0
C42 C 0.69705 0.19071 0.39493 0.0
C43 C 0.8631 0.21396 0.23605 0.0
C44 C 0.73719 0.16743 0.11376 0.0
O45 O 0.78362 0.12749 0.36518 0.0
O46 O 0.61175 0.71957 0.65928 0.0
Zn47 Zn 0.57322 0.7219 0.59867 0.0
O48 O 0.57818 0.76741 0.6169 0.0
Zn49 Zn 0.54338 0.76419 0.69368 0.0
Zn50 Zn 0.6252 0.79756 0.65799 0.0
Zn51 Zn 0.57162 0.78632 0.51651 0.0
O52 O 0.5171 0.78761 0.65131 0.0
O53 O 0.52742 0.78801 0.51502 0.0
O54 O 0.52704 0.68347 0.64154 0.0
O55 O 0.50775 0.71405 0.71044 0.0
O56 O 0.56547 0.78164 0.80511 0.0
O57 O 0.62193 0.80239 0.78151 0.0
O58 O 0.64879 0.84484 0.60165 0.0
O59 O 0.57826 0.71505 0.47558 0.0
O60 O 0.60922 0.83543 0.50374 0.0
O61 O 0.5741 0.75935 0.42139 0.0
C62 C 0.64375 0.74259 0.66667 0.0
C63 C 0.51094 0.79197 0.57536 0.0
C64 C 0.5967 0.79461 0.83133 0.0
C65 C 0.50414 0.68499 0.68678 0.0
C66 C 0.63794 0.85541 0.5403 0.0
C67 C 0.57739 0.73259 0.41326 0.0
O68 O 0.6545 0.77451 0.65042 0.0
O69 O 0.88864 0.61734 0.0183 0.0
Zn70 Zn 0.84673 0.57509 -0.02782 0.0
O71 O 0.80495 0.57895 -0.01057 0.0
Zn72 Zn 0.77216 0.54143 0.0605 0.0
Zn73 Zn 0.81803 0.62373 0.03998 0.0
Zn74 Zn 0.78204 0.57606 0.88544 0.0
O75 O 0.72379 0.51466 0.01069 0.0
O76 O 0.73383 0.53524 0.88066 0.0
O77 O 0.84219 0.53185 0.02739 0.0
O78 O 0.78871 0.50741 0.07964 0.0
O79 O 0.77267 0.55957 0.17528 0.0
O80 O 0.80669 0.61669 0.16085 0.0
O81 O 0.79598 0.64873 -0.01686 0.0
O82 O 0.85618 0.57379 0.84901 0.0
O83 O 0.77794 0.61832 0.86479 0.0
O84 O 0.80931 0.57245 0.79336 0.0
C85 C 0.89433 0.64753 0.03884 0.0
C86 C 0.71347 0.51416 0.93562 0.0
C87 C 0.78936 0.59002 0.2065 0.0
C88 C 0.8169 0.50711 0.0665 0.0
C89 C 0.78287 0.64407 0.90978 0.0
C90 C 0.83769 0.57214 0.78612 0.0
O91 O 0.86986 0.65468 0.04218 0.0
O92 O 0.26984 0.88634 0.33219 0.0
Zn93 Zn 0.26894 0.84271 0.2953 0.0
O94 O 0.22254 0.80248 0.31407 0.0
Zn95 Zn 0.22652 0.76726 0.37659 0.0
Zn96 Zn 0.19358 0.81666 0.37519 0.0
Zn97 Zn 0.20012 0.78166 0.2103 0.0
O98 O 0.20623 0.72128 0.31866 0.0
O99 O 0.18895 0.73186 0.19722 0.0
O100 O 0.30615 0.83773 0.35719 0.0
O101 O 0.27638 0.78302 0.40116 0.0
O102 O 0.2063 0.7614 0.48938 0.0
O103 O 0.19309 0.80358 0.49545 0.0
O104 O 0.14536 0.7971 0.32313 0.0
O105 O 0.28148 0.84865 0.17296 0.0
O106 O 0.15597 0.78233 0.19789 0.0
O107 O 0.23139 0.80773 0.11783 0.0
C108 C 0.2471 0.89294 0.36204 0.0
C109 C 0.19268 0.71128 0.24635 0.0
C110 C 0.19886 0.78121 0.53115 0.0
C111 C 0.30486 0.81157 0.394 0.0
C112 C 0.1362 0.78689 0.24765 0.0
C113 C 0.26245 0.83255 0.11031 0.0
O114 O 0.21632 0.86888 0.37882 0.0
O115 O 0.38674 0.27481 0.68431 0.0
Zn116 Zn 0.42605 0.27312 0.62608 0.0
O117 O 0.42087 0.22735 0.64323 0.0
Zn118 Zn 0.45616 0.22907 0.71745 0.0
Zn119 Zn 0.37437 0.1969 0.68515 0.0
Zn120 Zn 0.4263 0.20877 0.54192 0.0
O121 O 0.48326 0.2072 0.66829 0.0
O122 O 0.47235 0.21143 0.53407 0.0
O123 O 0.47169 0.31071 0.67477 0.0
O124 O 0.49122 0.27903 0.73836 0.0
O125 O 0.43517 0.21085 0.83 0.0
O126 O 0.37906 0.19284 0.80832 0.0
O127 O 0.35091 0.14948 0.62902 0.0
O128 O 0.42199 0.28136 0.50219 0.0
O129 O 0.39039 0.15896 0.53151 0.0
O130 O 0.42034 0.23408 0.4485 0.0
C131 C 0.3549 0.25147 0.69272 0.0
C132 C 0.48989 0.20664 0.59057 0.0
C133 C 0.40439 0.19964 0.85747 0.0
C134 C 0.4945 0.30843 0.71924 0.0
C135 C 0.36188 0.13884 0.56833 0.0
C136 C 0.4192 0.26199 0.44019 0.0
O137 O 0.3446 0.21947 0.67857 0.0
H138 H 0.36994 0.30771 0.78916 0.0
H139 H 0.284 0.21752 0.6733 0.0
H140 H 0.32943 0.32405 0.84848 0.0
H141 H 0.24338 0.23458 0.73167 0.0
H142 H 0.20852 0.32295 0.75047 0.0
H143 H 0.23878 0.29249 0.70395 0.0
H144 H 0.27588 0.29583 0.95662 0.0
H145 H 0.24499 0.32573 0.00389 0.0
C146 C 0.3424 0.29147 0.77603 0.0
C147 C 0.33011 0.26149 0.72608 0.0
C148 C 0.31923 0.30061 0.81084 0.0
C149 C 0.28339 0.28032 0.79519 0.0
C150 C 0.27096 0.25044 0.74486 0.0
C151 C 0.29414 0.24082 0.71143 0.0
C152 C 0.2224 0.31636 0.79647 0.0
C153 C 0.22471 0.3269 0.88059 0.0
C154 C 0.23952 0.29883 0.76991 0.0
C155 C 0.25975 0.29216 0.82673 0.0
C156 C 0.26045 0.30087 0.9118 0.0
C157 C 0.2427 0.31778 0.93879 0.0
H158 H 0.08379 0.29458 0.11436 0.0
H159 H 0.04388 0.35238 -0.01972 0.0
H160 H 0.02489 0.25357 0.16287 0.0
H161 H 0.98562 0.3119 0.02916 0.0
H162 H 0.92308 0.22825 0.3199 0.0
H163 H 0.98196 0.25653 0.26125 0.0
H164 H 0.93949 0.25104 0.01346 0.0
H165 H 0.88113 0.22362 0.0718 0.0
C166 C 0.06246 0.29832 0.09447 0.0
C167 C 0.0685 0.32678 0.0436 0.0
C168 C 0.02884 0.27497 0.12265 0.0
C169 C 0.00069 0.27947 0.09956 0.0
C170 C 0.0067 0.3074 0.04697 0.0
C171 C 0.04017 0.33079 0.01943 0.0
C172 C 0.92636 0.23242 0.25273 0.0
C173 C 0.89768 0.22444 0.20064 0.0
C174 C 0.96001 0.2485 0.21912 0.0
C175 C 0.96528 0.25658 0.13303 0.0
C176 C 0.93625 0.24588 0.0803 0.0
C177 C 0.90285 0.23012 0.11376 0.0
H178 H 0.70173 0.04808 0.2765 0.0
H179 H 0.77579 0.07898 0.48018 0.0
H180 H 0.67823 0.98731 0.31451 0.0
H181 H 0.75078 0.01817 0.5226 0.0
H182 H 0.70838 0.90096 0.55136 0.0
H183 H 0.73991 0.96092 0.49913 0.0
H184 H 0.64218 0.95192 0.41972 0.0
H185 H 0.61154 0.89226 0.46707 0.0
C186 C 0.71292 0.04171 0.32953 0.0
C187 C 0.74026 0.06801 0.37593 0.0
C188 C 0.69932 0.00694 0.35194 0.0
C189 C 0.71197 0.99776 0.42307 0.0
C190 C 0.74048 0.02414 0.46726 0.0
C191 C 0.75473 0.05899 0.4433 0.0
C192 C 0.69389 0.91198 0.52229 0.0
C193 C 0.65763 0.89192 0.51237 0.0
C194 C 0.71186 0.9463 0.49262 0.0
C195 C 0.69371 0.96122 0.45388 0.0
C196 C 0.6573 0.94113 0.4463 0.0
C197 C 0.6396 0.90689 0.47426 0.0
H198 H 0.6283 0.68943 0.774 0.0
H199 H 0.71411 0.77333 0.64156 0.0
H200 H 0.66828 0.67314 0.838 0.0
H201 H 0.75411 0.75612 0.70439 0.0
H202 H 0.7811 0.66137 0.74701 0.0
H203 H 0.75208 0.69169 0.6901 0.0
H204 H 0.72665 0.70778 0.94131 0.0
H205 H 0.75652 0.67822 -0.00117 0.0
C206 C 0.65568 0.70423 0.75815 0.0
C207 C 0.66813 0.73246 0.70235 0.0
C208 C 0.67852 0.69515 0.7955 0.0
C209 C 0.71411 0.71367 0.77647 0.0
C210 C 0.72671 0.74172 0.72018 0.0
C211 C 0.7039 0.75141 0.68424 0.0
C212 C 0.77004 0.67214 0.79012 0.0
C213 C 0.77074 0.6673 0.87719 0.0
C214 C 0.75368 0.68959 0.75758 0.0
C215 C 0.7372 0.7018 0.81158 0.0
C216 C 0.73933 0.69852 0.8988 0.0
C217 C 0.75641 0.68175 0.93152 0.0
H218 H 0.07692 0.76783 0.33944 0.0
H219 H 0.11616 0.78363 0.08555 0.0
H220 H 0.01722 0.73973 0.28429 0.0
H221 H 0.05699 0.75584 0.03126 0.0
H222 H 0.95496 0.64991 -0.00257 0.0
H223 H 0.01331 0.69112 0.04678 0.0
H224 H 0.97256 0.74617 0.18762 0.0
H225 H 0.91375 0.70483 0.13761 0.0
C226 C 0.07286 0.7662 0.2721 0.0
C227 C 0.10107 0.77718 0.21684 0.0
C228 C 0.03878 0.7502 0.2406 0.0
C229 C 0.03268 0.74512 0.15367 0.0
C230 C 0.06105 0.75889 0.09857 0.0
C231 C 0.09488 0.77477 0.1298 0.0
C232 C 0.95843 0.67098 0.03819 0.0
C233 C 0.92985 0.67418 0.06359 0.0
C234 C 0.99183 0.69468 0.06605 0.0
C235 C 0.99733 0.72186 0.12064 0.0
C236 C 0.96889 0.7254 0.14556 0.0
C237 C 0.93539 0.70191 0.11655 0.0
H238 H 0.29155 0.09329 0.58099 0.0
H239 H 0.38756 0.1024 0.49012 0.0
H240 H 0.25929 0.03421 0.52331 0.0
H241 H 0.35609 0.0436 0.43654 0.0
H242 H 0.29482 0.95121 0.28162 0.0
H243 H 0.31855 0.01119 0.3273 0.0
H244 H 0.24882 0.9762 0.54009 0.0
H245 H 0.22373 0.91624 0.49103 0.0
C246 C 0.30572 0.08252 0.54951 0.0
C247 C 0.34196 0.10248 0.53927 0.0
C248 C 0.28732 0.04874 0.51656 0.0
C249 C 0.30499 0.03431 0.47386 0.0
C250 C 0.34138 0.05415 0.46629 0.0
C251 C 0.35954 0.08784 0.49783 0.0
C252 C 0.28421 0.95648 0.33732 0.0
C253 C 0.25777 0.92921 0.38335 0.0
C254 C 0.29795 0.99078 0.36402 0.0
C255 C 0.28625 0.9985 0.43871 0.0
C256 C 0.2584 0.97127 0.48221 0.0
C257 C 0.24408 0.93691 0.45431 0.0
H258 H 0.11138 0.37415 0.65499 0.0
H259 H 0.18701 0.48328 0.67377 0.0
H260 H 0.12099 0.37616 0.5038 0.0
H261 H 0.1987 0.48526 0.52517 0.0
H262 H 0.21572 0.47932 0.25146 0.0
H263 H 0.18959 0.48104 0.38279 0.0
H264 H 0.16925 0.37702 0.4402 0.0
H265 H 0.19312 0.37437 0.3046 0.0
C266 C 0.12864 0.39895 0.62565 0.0
C267 C 0.14864 0.42855 0.67465 0.0
C268 C 0.1349 0.39998 0.53975 0.0
C269 C 0.16181 0.43043 0.50329 0.0
C270 C 0.17795 0.46126 0.55087 0.0
C271 C 0.17107 0.46032 0.63614 0.0
C272 C 0.20637 0.45703 0.29283 0.0
C273 C 0.20672 0.42672 0.26822 0.0
C274 C 0.191 0.45792 0.36794 0.0
C275 C 0.17663 0.42895 0.42142 0.0
C276 C 0.17887 0.39935 0.399 0.0
C277 C 0.19338 0.39809 0.32252 0.0
H278 H 0.70634 0.18896 0.00099 0.0
H279 H 0.74961 0.12156 0.03529 0.0
H280 H 0.72104 0.19448 0.85229 0.0
H281 H 0.76664 0.12875 0.8888 0.0
H282 H 0.7894 0.14752 0.60875 0.0
H283 H 0.76059 0.12677 0.74286 0.0
H284 H 0.77779 0.22977 0.79833 0.0
H285 H 0.80476 0.24991 0.66158 0.0
C286 C 0.71728 0.17384 -0.02461 0.0
C287 C 0.72699 0.15494 0.0285 0.0
C288 C 0.72665 0.17774 0.89103 0.0
C289 C 0.7466 0.1635 0.85996 0.0
C290 C 0.75164 0.1404 0.9107 0.0
C291 C 0.74149 0.13586 -0.00546 0.0
C292 C 0.78794 0.16601 0.65063 0.0
C293 C 0.79922 0.20037 0.62483 0.0
C294 C 0.77099 0.15395 0.72716 0.0
C295 C 0.76574 0.17625 0.78 0.0
C296 C 0.77997 0.21146 0.75733 0.0
C297 C 0.79625 0.22332 0.68008 0.0
H298 H 0.52979 0.69448 0.29563 0.0
H299 H 0.63996 0.75816 0.34166 0.0
H300 H 0.53915 0.70916 0.14673 0.0
H301 H 0.64947 0.77412 0.19368 0.0
H302 H 0.64862 0.78758 0.90413 0.0
H303 H 0.64601 0.76252 0.04204 0.0
H304 H 0.55316 0.76749 0.09843 0.0
H305 H 0.55517 0.79163 0.96004 0.0
C306 C 0.55619 0.70999 0.27275 0.0
C307 C 0.5842 0.72527 0.3289 0.0
C308 C 0.56154 0.71905 0.1882 0.0
C309 C 0.59483 0.74391 0.15988 0.0
C310 C 0.62351 0.75516 0.21406 0.0
C311 C 0.61816 0.74573 0.29848 0.0
C312 C 0.62824 0.7843 0.94695 0.0
C313 C 0.60182 0.7912 0.92119 0.0
C314 C 0.62653 0.7695 0.02538 0.0
C315 C 0.59859 0.76174 0.07917 0.0
C316 C 0.57414 0.77179 0.05647 0.0
C317 C 0.57568 0.78629 -0.02192 0.0
H318 H 0.82174 0.52006 0.67596 0.0
H319 H 0.8786 0.63148 0.70572 0.0
H320 H 0.81432 0.5269 0.52666 0.0
H321 H 0.86928 0.63877 0.55893 0.0
H322 H 0.84805 0.64009 0.28133 0.0
H323 H 0.87144 0.63501 0.41468 0.0
H324 H 0.77418 0.5414 0.46892 0.0
H325 H 0.75165 0.54526 0.33217 0.0
C326 C 0.83426 0.54599 0.64927 0.0
C327 C 0.85062 0.57528 0.70122 0.0
C328 C 0.82917 0.55001 0.56454 0.0
C329 C 0.83964 0.58333 0.53199 0.0
C330 C 0.86054 0.61269 0.58177 0.0
C331 C 0.86633 0.60861 0.66588 0.0
C332 C 0.83127 0.61887 0.32257 0.0
C333 C 0.79797 0.59294 0.29628 0.0
C334 C 0.8449 0.61578 0.39885 0.0
C335 C 0.82517 0.58721 0.45143 0.0
C336 C 0.79071 0.56293 0.42822 0.0
C337 C 0.77737 0.56557 0.35095 0.0
H338 H 0.17748 0.80897 0.65514 0.0
H339 H 0.2474 0.76961 0.60332 0.0
H340 H 0.20601 0.83059 0.79059 0.0
H341 H 0.27758 0.79356 0.73368 0.0
H342 H 0.28448 0.79608 0.02313 0.0
H343 H 0.27246 0.78496 0.87504 0.0
H344 H 0.25664 0.87369 0.85644 0.0
H345 H 0.26651 0.88298 0.00748 0.0
C346 C 0.19857 0.80456 0.67331 0.0
C347 C 0.20967 0.78702 0.61955 0.0
C348 C 0.21561 0.81776 0.74967 0.0
C349 C 0.24467 0.8145 0.77237 0.0
C350 C 0.25516 0.79628 0.71901 0.0
C351 C 0.2375 0.78218 0.64432 0.0
C352 C 0.28042 0.81435 -0.01381 0.0
C353 C 0.27607 0.8401 0.02565 0.0
C354 C 0.27315 0.80784 0.90112 0.0
C355 C 0.26214 0.82761 0.8544 0.0
C356 C 0.26361 0.85712 0.89165 0.0
C357 C 0.27022 0.86313 -0.02255 0.0
H358 H 0.35713 0.23403 0.36421 0.0
H359 H 0.46689 0.30311 0.32607 0.0
H360 H 0.34983 0.21852 0.21624 0.0
H361 H 0.45969 0.28884 0.17666 0.0
H362 H 0.44952 0.20921 -0.01471 0.0
H363 H 0.45059 0.2337 0.12253 0.0
H364 H 0.35252 0.22874 0.06773 0.0
H365 H 0.35076 0.20312 0.9317 0.0
C366 C 0.37922 0.24771 0.32264 0.0
C367 C 0.41254 0.26963 0.35563 0.0
C368 C 0.37517 0.23851 0.23804 0.0
C369 C 0.40448 0.25145 0.18577 0.0
C370 C 0.43687 0.27758 0.21647 0.0
C371 C 0.44092 0.28648 0.30134 0.0
C372 C 0.42776 0.21251 0.00336 0.0
C373 C 0.40022 0.20441 0.94737 0.0
C374 C 0.42873 0.22728 0.08118 0.0
C375 C 0.40229 0.23442 0.1044 0.0
C376 C 0.37348 0.22395 0.05111 0.0
C377 C 0.37233 0.20887 -0.0265 0.0
H378 H 0.23375 0.55178 0.1061 0.0
H379 H 0.1293 0.50868 0.00659 0.0
H380 H 0.2305 0.60099 0.16195 0.0
H381 H 0.12628 0.55868 0.06308 0.0
H382 H 0.16498 0.68072 0.09411 0.0
H383 H 0.15871 0.62625 0.0396 0.0
H384 H 0.19475 0.60836 0.2766 0.0
H385 H 0.20109 0.66245 0.3313 0.0
C386 C 0.2101 0.55284 0.09571 0.0
C387 C 0.18174 0.52624 0.05185 0.0
C388 C 0.20818 0.58095 0.12842 0.0
C389 C 0.17801 0.58338 0.11758 0.0
C390 C 0.14981 0.5573 0.07227 0.0
C391 C 0.15155 0.52875 0.0402 0.0
C392 C 0.17104 0.66489 0.13504 0.0
C393 C 0.18402 0.67621 0.21669 0.0
C394 C 0.1673 0.63368 0.10386 0.0
C395 C 0.1767 0.61346 0.15362 0.0
C396 C 0.18782 0.6238 0.23658 0.0
C397 C 0.19135 0.65476 0.26788 0.0
H398 H 0.63381 0.13491 0.43799 0.0
H399 H 0.68952 0.24716 0.41999 0.0
H400 H 0.58244 0.13658 0.49029 0.0
H401 H 0.63825 0.24852 0.47014 0.0
H402 H 0.52374 0.22519 0.44148 0.0
H403 H 0.57289 0.21902 0.39653 0.0
H404 H 0.57132 0.17031 0.63239 0.0
H405 H 0.52208 0.17708 0.67913 0.0
C406 C 0.63502 0.15981 0.44484 0.0
C407 C 0.6656 0.19089 0.42478 0.0
C408 C 0.60583 0.16074 0.47526 0.0
C409 C 0.60668 0.19268 0.48415 0.0
C410 C 0.63712 0.22362 0.46372 0.0
C411 C 0.66638 0.22278 0.4351 0.0
C412 C 0.53365 0.21299 0.4839 0.0
C413 C 0.5191 0.2017 0.56406 0.0
C414 C 0.56179 0.20954 0.45804 0.0
C415 C 0.57563 0.19417 0.51105 0.0
C416 C 0.56078 0.18207 0.59047 0.0
C417 C 0.53288 0.18614 0.61723 0.0
H418 H 0.31027 0.48812 0.73185 0.0
H419 H 0.33711 0.52852 -0.01523 0.0
H420 H 0.36573 0.53586 0.68177 0.0
H421 H 0.39234 0.5757 0.93473 0.0
H422 H 0.4549 0.67916 0.7977 0.0
H423 H 0.40421 0.62661 0.84674 0.0
H424 H 0.43169 0.56443 0.69026 0.0
H425 H 0.48289 0.61749 0.64 0.0
C426 C 0.32821 0.50674 0.77696 0.0
C427 C 0.31901 0.50482 0.8621 0.0
C428 C 0.36 0.534 0.74827 0.0
C429 C 0.38304 0.55976 0.8042 0.0
C430 C 0.37474 0.55658 0.88996 0.0
C431 C 0.34311 0.52945 0.91859 0.0
C432 C 0.4503 0.65438 0.77345 0.0
C433 C 0.47305 0.65258 0.71491 0.0
C434 C 0.42134 0.62421 0.80219 0.0
C435 C 0.41422 0.59141 0.77303 0.0
C436 C 0.43659 0.58942 0.71369 0.0
C437 C 0.4659 0.61976 0.68519 0.0
H438 H 0.83367 0.32225 0.11941 0.0
H439 H 0.80629 0.33871 0.36886 0.0
H440 H 0.84019 0.37777 0.07472 0.0
H441 H 0.81327 0.39449 0.32403 0.0
H442 H 0.77267 0.45624 0.17306 0.0
H443 H 0.77713 0.40748 0.22787 0.0
H444 H 0.87329 0.44243 0.09267 0.0
H445 H 0.86879 0.49157 0.03669 0.0
C446 C 0.82964 0.33797 0.16517 0.0
C447 C 0.81897 0.32579 0.24745 0.0
C448 C 0.8336 0.3699 0.13958 0.0
C449 C 0.82684 0.39025 0.19561 0.0
C450 C 0.81812 0.37905 0.27915 0.0
C451 C 0.81431 0.34718 0.30491 0.0
C452 C 0.79486 0.45371 0.15491 0.0
C453 C 0.82029 0.47775 0.10002 0.0
C454 C 0.79758 0.4259 0.18715 0.0
C455 C 0.82569 0.42129 0.16508 0.0
C456 C 0.85129 0.44534 0.11054 0.0
C457 C 0.84872 0.47345 0.07864 0.0
H458 H 0.37273 0.86071 0.36204 0.0
H459 H 0.3092 0.76758 0.50642 0.0
H460 H 0.42516 0.86144 0.41415 0.0
H461 H 0.3613 0.76823 0.55746 0.0
H462 H 0.46212 0.79138 0.68175 0.0
H463 H 0.41429 0.80164 0.64555 0.0
H464 H 0.45017 0.82265 0.38894 0.0
H465 H 0.498 0.81278 0.42482 0.0
C466 C 0.36996 0.84063 0.40537 0.0
C467 C 0.33684 0.81387 0.42932 0.0
C468 C 0.39993 0.841 0.43494 0.0
C469 C 0.39727 0.81486 0.4897 0.0
C470 C 0.3642 0.78892 0.51605 0.0
C471 C 0.33432 0.78837 0.48603 0.0
C472 C 0.46003 0.79859 0.61786 0.0
C473 C 0.48363 0.80088 0.55596 0.0
C474 C 0.43261 0.80436 0.59716 0.0
C475 C 0.42848 0.81282 0.51439 0.0
C476 C 0.4529 0.81652 0.45342 0.0
C477 C 0.48012 0.81053 0.47389 0.0
H478 H 0.68214 0.50741 0.78326 0.0
H479 H 0.66467 0.45962 0.02851 0.0
H480 H 0.62712 0.45922 0.73422 0.0
H481 H 0.60923 0.41166 -0.02057 0.0
H482 H 0.54502 0.31219 0.82413 0.0
H483 H 0.59485 0.36378 0.88075 0.0
H484 H 0.56304 0.42867 0.74879 0.0
H485 H 0.51293 0.37671 0.69066 0.0
C486 C 0.66634 0.4869 0.82716 0.0
C487 C 0.67805 0.48717 0.90959 0.0
C488 C 0.63467 0.45939 0.79908 0.0
C489 C 0.61403 0.4315 0.85271 0.0
C490 C 0.6249 0.43255 0.93629 0.0
C491 C 0.65656 0.46013 0.9645 0.0
C492 C 0.54849 0.33738 0.80696 0.0
C493 C 0.52497 0.34026 0.75249 0.0
C494 C 0.57694 0.36699 0.84023 0.0
C495 C 0.58271 0.40027 0.81985 0.0
C496 C 0.5593 0.40332 0.76534 0.0
C497 C 0.53062 0.37358 0.73216 0.0
loop_
_geom_bond_atom_site_label_1
_geom_bond_atom_site_label_2
_geom_bond_distance
_geom_bond_site_symmetry_2
_ccdc_geom_bond_type
O0 Zn1 1.953 1_554 S
O0 C16 1.225 . S
Zn1 O0 1.953 1_556 S
Zn1 O2 1.949 1_556 S
Zn1 O8 1.919 1_556 S
Zn1 O13 1.924 . S
O2 Zn1 1.949 1_554 S
O2 Zn3 1.923 . S
O2 Zn4 1.950 . S
O2 Zn5 1.945 1_554 S
Zn3 O2 1.923 . S
Zn3 O6 1.933 . S
Zn3 O9 1.941 . S
Zn3 O10 1.965 . S
Zn4 O2 1.950 . S
Zn4 O11 1.938 . S
Zn4 O12 1.906 . S
Zn4 O22 1.953 . S
Zn5 O2 1.945 1_556 S
Zn5 O7 1.932 . S
Zn5 O14 1.977 . S
Zn5 O15 1.910 . S
O6 Zn3 1.933 . S
O6 C17 1.226 1_554 S
O7 Zn5 1.932 . S
O7 C17 1.307 . S
O8 Zn1 1.919 1_554 S
O8 C19 1.253 . S
O9 Zn3 1.941 . S
O9 C19 1.283 . S
O10 Zn3 1.965 . S
O10 C18 1.303 . S
O11 Zn4 1.938 . S
O11 C18 1.247 . S
O12 Zn4 1.906 . S
O12 C20 1.304 1_554 S
O13 Zn1 1.924 . S
O13 C21 1.311 . S
O14 Zn5 1.977 . S
O14 C20 1.272 . S
O15 Zn5 1.910 . S
O15 C21 1.231 . S
C16 O0 1.225 . S
C16 O22 1.298 . S
C17 O6 1.226 1_556 S
C17 O7 1.307 . S
C18 O10 1.303 . S
C18 O11 1.247 . S
C19 O8 1.253 . S
C19 O9 1.283 . S
C20 O12 1.304 1_556 S
C20 O14 1.272 . S
C21 O13 1.311 . S
C21 O15 1.231 . S
O22 Zn4 1.953 . S
O22 C16 1.298 . S
O23 Zn24 1.953 . S
O23 C39 1.225 . S
Zn24 O23 1.953 . S
Zn24 O25 1.949 . S
Zn24 O31 1.919 . S
Zn24 O36 1.924 . S
O25 Zn24 1.949 . S
O25 Zn26 1.923 . S
O25 Zn27 1.950 . S
O25 Zn28 1.945 . S
Zn26 O25 1.923 . S
Zn26 O29 1.933 . S
Zn26 O32 1.941 . S
Zn26 O33 1.965 . S
Zn27 O25 1.950 . S
Zn27 O34 1.938 . S
Zn27 O35 1.906 . S
Zn27 O45 1.953 . S
Zn28 O25 1.945 . S
Zn28 O30 1.932 . S
Zn28 O37 1.977 . S
Zn28 O38 1.910 . S
O29 Zn26 1.933 . S
O29 C40 1.226 . S
O30 Zn28 1.932 . S
O30 C40 1.307 . S
O31 Zn24 1.919 . S
O31 C42 1.253 . S
O32 Zn26 1.941 . S
O32 C42 1.283 . S
O33 Zn26 1.965 . S
O33 C41 1.303 . S
O34 Zn27 1.938 . S
O34 C41 1.247 . S
O35 Zn27 1.906 . S
O35 C43 1.304 . S
O36 Zn24 1.924 . S
O36 C44 1.311 . S
O37 Zn28 1.977 . S
O37 C43 1.272 . S
O38 Zn28 1.910 . S
O38 C44 1.231 . S
C39 O23 1.225 . S
C39 O45 1.298 . S
C40 O29 1.226 . S
C40 O30 1.307 . S
C41 O33 1.303 . S
C41 O34 1.247 . S
C42 O31 1.253 . S
C42 O32 1.283 . S
C43 O35 1.304 . S
C43 O37 1.272 . S
C44 O36 1.311 . S
C44 O38 1.231 . S
O45 Zn27 1.953 . S
O45 C39 1.298 . S
O46 Zn47 1.953 . S
O46 C62 1.225 . S
Zn47 O46 1.953 . S
Zn47 O48 1.949 . S
Zn47 O54 1.919 . S
Zn47 O59 1.924 . S
O48 Zn47 1.949 . S
O48 Zn49 1.923 . S
O48 Zn50 1.950 . S
O48 Zn51 1.945 . S
Zn49 O48 1.923 . S
Zn49 O52 1.933 . S
Zn49 O55 1.941 . S
Zn49 O56 1.965 . S
Zn50 O48 1.950 . S
Zn50 O57 1.938 . S
Zn50 O58 1.906 . S
Zn50 O68 1.953 . S
Zn51 O48 1.945 . S
Zn51 O53 1.932 . S
Zn51 O60 1.977 . S
Zn51 O61 1.910 . S
O52 Zn49 1.933 . S
O52 C63 1.226 . S
O53 Zn51 1.932 . S
O53 C63 1.307 . S
O54 Zn47 1.919 . S
O54 C65 1.253 . S
O55 Zn49 1.941 . S
O55 C65 1.283 . S
O56 Zn49 1.965 . S
O56 C64 1.303 . S
O57 Zn50 1.938 . S
O57 C64 1.247 . S
O58 Zn50 1.906 . S
O58 C66 1.304 . S
O59 Zn47 1.924 . S
O59 C67 1.311 . S
O60 Zn51 1.977 . S
O60 C66 1.272 . S
O61 Zn51 1.910 . S
O61 C67 1.231 . S
C62 O46 1.225 . S
C62 O68 1.298 . S
C63 O52 1.226 . S
C63 O53 1.307 . S
C64 O56 1.303 . S
C64 O57 1.247 . S
C65 O54 1.253 . S
C65 O55 1.283 . S
C66 O58 1.304 . S
C66 O60 1.272 . S
C67 O59 1.311 . S
C67 O61 1.231 . S
O68 Zn50 1.953 . S
O68 C62 1.298 . S
O69 Zn70 1.953 1_554 S
O69 C85 1.225 . S
Zn70 O69 1.953 1_556 S
Zn70 O71 1.949 1_556 S
Zn70 O77 1.919 1_556 S
Zn70 O82 1.924 . S
O71 Zn70 1.949 1_554 S
O71 Zn72 1.923 . S
O71 Zn73 1.950 . S
O71 Zn74 1.945 1_554 S
Zn72 O71 1.923 . S
Zn72 O75 1.933 . S
Zn72 O78 1.941 . S
Zn72 O79 1.965 . S
Zn73 O71 1.950 . S
Zn73 O80 1.938 . S
Zn73 O81 1.906 . S
Zn73 O91 1.953 . S
Zn74 O71 1.945 1_556 S
Zn74 O76 1.932 . S
Zn74 O83 1.977 . S
Zn74 O84 1.910 . S
O75 Zn72 1.933 . S
O75 C86 1.226 1_554 S
O76 Zn74 1.932 . S
O76 C86 1.307 . S
O77 Zn70 1.919 1_554 S
O77 C88 1.253 . S
O78 Zn72 1.941 . S
O78 C88 1.283 . S
O79 Zn72 1.965 . S
O79 C87 1.303 . S
O80 Zn73 1.938 . S
O80 C87 1.247 . S
O81 Zn73 1.906 . S
O81 C89 1.304 1_554 S
O82 Zn70 1.924 . S
O82 C90 1.311 . S
O83 Zn74 1.977 . S
O83 C89 1.272 . S
O84 Zn74 1.910 . S
O84 C90 1.231 . S
C85 O69 1.225 . S
C85 O91 1.298 . S
C86 O75 1.226 1_556 S
C86 O76 1.307 . S
C87 O79 1.303 . S
C87 O80 1.247 . S
C88 O77 1.253 . S
C88 O78 1.283 . S
C89 O81 1.304 1_556 S
C89 O83 1.272 . S
C90 O82 1.311 . S
C90 O84 1.231 . S
O91 Zn73 1.953 . S
O91 C85 1.298 . S
O92 Zn93 1.953 . S
O92 C108 1.225 . S
Zn93 O92 1.953 . S
Zn93 O94 1.949 . S
Zn93 O100 1.919 . S
Zn93 O105 1.924 . S
O94 Zn93 1.949 . S
O94 Zn95 1.923 . S
O94 Zn96 1.950 . S
O94 Zn97 1.945 . S
Zn95 O94 1.923 . S
Zn95 O98 1.933 . S
Zn95 O101 1.941 . S
Zn95 O102 1.965 . S
Zn96 O94 1.950 . S
Zn96 O103 1.938 . S
Zn96 O104 1.906 . S
Zn96 O114 1.953 . S
Zn97 O94 1.945 . S
Zn97 O99 1.932 . S
Zn97 O106 1.977 . S
Zn97 O107 1.910 . S
O98 Zn95 1.933 . S
O98 C109 1.226 . S
O99 Zn97 1.932 . S
O99 C109 1.307 . S
O100 Zn93 1.919 . S
O100 C111 1.253 . S
O101 Zn95 1.941 . S
O101 C111 1.283 . S
O102 Zn95 1.965 . S
O102 C110 1.303 . S
O103 Zn96 1.938 . S
O103 C110 1.247 . S
O104 Zn96 1.906 . S
O104 C112 1.304 . S
O105 Zn93 1.924 . S
O105 C113 1.311 . S
O106 Zn97 1.977 . S
O106 C112 1.272 . S
O107 Zn97 1.910 . S
O107 C113 1.231 . S
C108 O92 1.225 . S
C108 O114 1.298 . S
C109 O98 1.226 . S
C109 O99 1.307 . S
C110 O102 1.303 . S
C110 O103 1.247 . S
C111 O100 1.253 . S
C111 O101 1.283 . S
C112 O104 1.304 . S
C112 O106 1.272 . S
C113 O105 1.311 . S
C113 O107 1.231 . S
O114 Zn96 1.953 . S
O114 C108 1.298 . S
O115 Zn116 1.953 . S
O115 C131 1.225 . S
Zn116 O115 1.953 . S
Zn116 O117 1.949 . S
Zn116 O123 1.919 . S
Zn116 O128 1.924 . S
O117 Zn116 1.949 . S
O117 Zn118 1.923 . S
O117 Zn119 1.950 . S
O117 Zn120 1.945 . S
Zn118 O117 1.923 . S
Zn118 O121 1.933 . S
Zn118 O124 1.941 . S
Zn118 O125 1.965 . S
Zn119 O117 1.950 . S
Zn119 O126 1.938 . S
Zn119 O127 1.906 . S
Zn119 O137 1.953 . S
Zn120 O117 1.945 . S
Zn120 O122 1.932 . S
Zn120 O129 1.977 . S
Zn120 O130 1.910 . S
O121 Zn118 1.933 . S
O121 C132 1.226 . S
O122 Zn120 1.932 . S
O122 C132 1.307 . S
O123 Zn116 1.919 . S
O123 C134 1.253 . S
O124 Zn118 1.941 . S
O124 C134 1.283 . S
O125 Zn118 1.965 . S
O125 C133 1.303 . S
O126 Zn119 1.938 . S
O126 C133 1.247 . S
O127 Zn119 1.906 . S
O127 C135 1.304 . S
O128 Zn116 1.924 . S
O128 C136 1.311 . S
O129 Zn120 1.977 . S
O129 C135 1.272 . S
O130 Zn120 1.910 . S
O130 C136 1.231 . S
C131 O115 1.225 . S
C131 O137 1.298 . S
C132 O121 1.226 . S
C132 O122 1.307 . S
C133 O125 1.303 . S
C133 O126 1.247 . S
C134 O123 1.253 . S
C134 O124 1.283 . S
C135 O127 1.304 . S
C135 O129 1.272 . S
C136 O128 1.311 . S
C136 O130 1.231 . S
O137 Zn119 1.953 . S
O137 C131 1.298 . S
H138 C146 0.950 . S
H139 C151 0.950 . S
H140 C148 0.950 . S
H141 C150 0.950 . S
H142 C152 0.950 . S
H143 C154 0.950 . S
H144 C156 0.950 . S
H145 C157 0.950 1_554 S
C146 H138 0.950 . S
C146 C147 1.386 . S
C146 C148 1.391 . S
C147 C146 1.386 . S
C147 C151 1.393 . S
C148 H140 0.950 . S
C148 C146 1.391 . S
C148 C149 1.400 . S
C149 C148 1.400 . S
C149 C150 1.398 . S
C149 C155 1.491 . S
C150 H141 0.950 . S
C150 C149 1.398 . S
C150 C151 1.391 . S
C151 H139 0.950 . S
C151 C147 1.393 . S
C151 C150 1.391 . S
C152 H142 0.950 . S
C152 C153 1.386 . S
C152 C154 1.391 . S
C153 C152 1.386 . S
C153 C157 1.393 . S
C154 H143 0.950 . S
C154 C152 1.391 . S
C154 C155 1.400 . S
C155 C149 1.491 . S
C155 C154 1.400 . S
C155 C156 1.398 . S
C156 H144 0.950 . S
C156 C155 1.398 . S
C156 C157 1.391 . S
C157 H145 0.950 1_556 S
C157 C153 1.393 . S
C157 C156 1.391 . S
H158 C166 0.950 1_556 S
H159 C171 0.950 . S
H160 C168 0.950 1_655 S
H161 C170 0.950 . S
H162 C172 0.950 . S
H163 C174 0.950 . S
H164 C176 0.950 . S
H165 C177 0.950 . S
C166 H158 0.950 1_554 S
C166 C167 1.386 . S
C166 C168 1.391 . S
C167 C166 1.386 . S
C167 C171 1.393 . S
C168 H160 0.950 1_455 S
C168 C166 1.391 . S
C168 C169 1.400 1_455 S
C169 C168 1.400 1_655 S
C169 C170 1.380 1_655 S
C169 C175 1.509 . S
C170 H161 0.950 . S
C170 C169 1.380 1_455 S
C170 C171 1.391 . S
C171 H159 0.950 . S
C171 C167 1.393 . S
C171 C170 1.391 . S
C172 H162 0.950 . S
C172 C173 1.386 . S
C172 C174 1.391 . S
C173 C172 1.386 . S
C173 C177 1.393 . S
C174 H163 0.950 . S
C174 C172 1.391 . S
C174 C175 1.400 . S
C175 C169 1.509 . S
C175 C174 1.400 . S
C175 C176 1.398 . S
C176 H164 0.950 . S
C176 C175 1.398 . S
C176 C177 1.391 . S
C177 H165 0.950 . S
C177 C173 1.393 . S
C177 C176 1.391 . S
H178 C186 0.950 . S
H179 C191 0.950 . S
H180 C188 0.950 1_565 S
H181 C190 0.950 . S
H182 C192 0.950 . S
H183 C194 0.950 . S
H184 C196 0.950 . S
H185 C197 0.950 . S
C186 H178 0.950 . S
C186 C187 1.386 . S
C186 C188 1.391 . S
C187 C186 1.386 . S
C187 C191 1.393 . S
C188 H180 0.950 1_545 S
C188 C186 1.391 . S
C188 C189 1.387 1_545 S
C189 C188 1.387 1_565 S
C189 C190 1.389 1_565 S
C189 C195 1.514 . S
C190 H181 0.950 . S
C190 C189 1.389 1_545 S
C190 C191 1.391 . S
C191 H179 0.950 . S
C191 C187 1.393 . S
C191 C190 1.391 . S
C192 H182 0.950 . S
C192 C193 1.386 . S
C192 C194 1.391 . S
C193 C192 1.386 . S
C193 C197 1.393 . S
C194 H183 0.950 . S
C194 C192 1.391 . S
C194 C195 1.400 . S
C195 C189 1.514 . S
C195 C194 1.400 . S
C195 C196 1.398 . S
C196 H184 0.950 . S
C196 C195 1.398 . S
C196 C197 1.391 . S
C197 H185 0.950 . S
C197 C193 1.393 . S
C197 C196 1.391 . S
H198 C206 0.950 . S
H199 C211 0.950 . S
H200 C208 0.950 . S
H201 C210 0.950 . S
H202 C212 0.950 . S
H203 C214 0.950 . S
H204 C216 0.950 . S
H205 C217 0.950 1_554 S
C206 H198 0.950 . S
C206 C207 1.386 . S
C206 C208 1.391 . S
C207 C206 1.386 . S
C207 C211 1.393 . S
C208 H200 0.950 . S
C208 C206 1.391 . S
C208 C209 1.400 . S
C209 C208 1.400 . S
C209 C210 1.398 . S
C209 C215 1.491 . S
C210 H201 0.950 . S
C210 C209 1.398 . S
C210 C211 1.391 . S
C211 H199 0.950 . S
C211 C207 1.393 . S
C211 C210 1.391 . S
C212 H202 0.950 . S
C212 C213 1.386 . S
C212 C214 1.391 . S
C213 C212 1.386 . S
C213 C217 1.393 . S
C214 H203 0.950 . S
C214 C212 1.391 . S
C214 C215 1.400 . S
C215 C209 1.491 . S
C215 C214 1.400 . S
C215 C216 1.398 . S
C216 H204 0.950 . S
C216 C215 1.398 . S
C216 C217 1.391 . S
C217 H205 0.950 1_556 S
C217 C213 1.393 . S
C217 C216 1.391 . S
H218 C226 0.950 . S
H219 C231 0.950 . S
H220 C228 0.950 . S
H221 C230 0.950 . S
H222 C232 0.950 1_556 S
H223 C234 0.950 1_455 S
H224 C236 0.950 . S
H225 C237 0.950 . S
C226 H218 0.950 . S
C226 C227 1.386 . S
C226 C228 1.391 . S
C227 C226 1.386 . S
C227 C231 1.393 . S
C228 H220 0.950 . S
C228 C226 1.391 . S
C228 C229 1.400 . S
C229 C228 1.400 . S
C229 C230 1.398 . S
C229 C235 1.502 . S
C230 H221 0.950 . S
C230 C229 1.398 . S
C230 C231 1.391 . S
C231 H219 0.950 . S
C231 C227 1.393 . S
C231 C230 1.391 . S
C232 H222 0.950 1_554 S
C232 C233 1.386 . S
C232 C234 1.391 . S
C233 C232 1.386 . S
C233 C237 1.393 . S
C234 H223 0.950 1_655 S
C234 C232 1.391 . S
C234 C235 1.402 1_655 S
C235 C229 1.502 . S
C235 C234 1.402 1_455 S
C235 C236 1.384 1_455 S
C236 H224 0.950 . S
C236 C235 1.384 1_655 S
C236 C237 1.391 . S
C237 H225 0.950 . S
C237 C233 1.393 . S
C237 C236 1.391 . S
H238 C246 0.950 . S
H239 C251 0.950 . S
H240 C248 0.950 . S
H241 C250 0.950 . S
H242 C252 0.950 . S
H243 C254 0.950 1_545 S
H244 C256 0.950 . S
H245 C257 0.950 . S
C246 H238 0.950 . S
C246 C247 1.386 . S
C246 C248 1.391 . S
C247 C246 1.386 . S
C247 C251 1.393 . S
C248 H240 0.950 . S
C248 C246 1.391 . S
C248 C249 1.400 . S
C249 C248 1.400 . S
C249 C250 1.398 . S
C249 C255 1.500 . S
C250 H241 0.950 . S
C250 C249 1.398 . S
C250 C251 1.391 . S
C251 H239 0.950 . S
C251 C247 1.393 . S
C251 C250 1.391 . S
C252 H242 0.950 . S
C252 C253 1.386 . S
C252 C254 1.391 . S
C253 C252 1.386 . S
C253 C257 1.393 . S
C254 H243 0.950 1_565 S
C254 C252 1.391 . S
C254 C255 1.393 1_565 S
C255 C249 1.500 . S
C255 C254 1.393 1_545 S
C255 C256 1.396 1_545 S
C256 H244 0.950 . S
C256 C255 1.396 1_565 S
C256 C257 1.391 . S
C257 H245 0.950 . S
C257 C253 1.393 . S
C257 C256 1.391 . S
H258 C266 0.950 . S
H259 C271 0.950 . S
H260 C268 0.950 . S
H261 C270 0.950 . S
H262 C272 0.950 . S
H263 C274 0.950 . S
H264 C276 0.950 . S
H265 C277 0.950 . S
C266 H258 0.950 . S
C266 C267 1.386 . S
C266 C268 1.391 . S
C267 C266 1.386 . S
C267 C271 1.393 . S
C268 H260 0.950 . S
C268 C266 1.391 . S
C268 C269 1.400 . S
C269 C268 1.400 . S
C269 C270 1.398 . S
C269 C275 1.491 . S
C270 H261 0.950 . S
C270 C269 1.398 . S
C270 C271 1.391 . S
C271 H259 0.950 . S
C271 C267 1.393 . S
C271 C270 1.391 . S
C272 H262 0.950 . S
C272 C273 1.386 . S
C272 C274 1.391 . S
C273 C272 1.386 . S
C273 C277 1.393 . S
C274 H263 0.950 . S
C274 C272 1.391 . S
C274 C275 1.400 . S
C275 C269 1.491 . S
C275 C274 1.400 . S
C275 C276 1.398 . S
C276 H264 0.950 . S
C276 C275 1.398 . S
C276 C277 1.391 . S
C277 H265 0.950 . S
C277 C273 1.393 . S
C277 C276 1.391 . S
H278 C286 0.950 . S
H279 C291 0.950 . S
H280 C288 0.950 . S
H281 C290 0.950 . S
H282 C292 0.950 . S
H283 C294 0.950 . S
H284 C296 0.950 . S
H285 C297 0.950 . S
C286 H278 0.950 . S
C286 C287 1.386 . S
C286 C288 1.391 1_554 S
C287 C286 1.386 . S
C287 C291 1.393 . S
C288 H280 0.950 . S
C288 C286 1.391 1_556 S
C288 C289 1.400 . S
C289 C288 1.400 . S
C289 C290 1.398 . S
C289 C295 1.491 . S
C290 H281 0.950 . S
C290 C289 1.398 . S
C290 C291 1.391 1_556 S
C291 H279 0.950 . S
C291 C287 1.393 . S
C291 C290 1.391 1_554 S
C292 H282 0.950 . S
C292 C293 1.386 . S
C292 C294 1.391 . S
C293 C292 1.386 . S
C293 C297 1.393 . S
C294 H283 0.950 . S
C294 C292 1.391 . S
C294 C295 1.400 . S
C295 C289 1.491 . S
C295 C294 1.400 . S
C295 C296 1.398 . S
C296 H284 0.950 . S
C296 C295 1.398 . S
C296 C297 1.391 . S
C297 H285 0.950 . S
C297 C293 1.393 . S
C297 C296 1.391 . S
H298 C306 0.950 . S
H299 C311 0.950 . S
H300 C308 0.950 . S
H301 C310 0.950 . S
H302 C312 0.950 . S
H303 C314 0.950 . S
H304 C316 0.950 . S
H305 C317 0.950 1_556 S
C306 H298 0.950 . S
C306 C307 1.386 . S
C306 C308 1.391 . S
C307 C306 1.386 . S
C307 C311 1.393 . S
C308 H300 0.950 . S
C308 C306 1.391 . S
C308 C309 1.400 . S
C309 C308 1.400 . S
C309 C310 1.398 . S
C309 C315 1.491 . S
C310 H301 0.950 . S
C310 C309 1.398 . S
C310 C311 1.391 . S
C311 H299 0.950 . S
C311 C307 1.393 . S
C311 C310 1.391 . S
C312 H302 0.950 . S
C312 C313 1.386 . S
C312 C314 1.391 1_556 S
C313 C312 1.386 . S
C313 C317 1.393 1_556 S
C314 H303 0.950 . S
C314 C312 1.391 1_554 S
C314 C315 1.400 . S
C315 C309 1.491 . S
C315 C314 1.400 . S
C315 C316 1.398 . S
C316 H304 0.950 . S
C316 C315 1.398 . S
C316 C317 1.391 . S
C317 H305 0.950 1_554 S
C317 C313 1.393 1_554 S
C317 C316 1.391 . S
H318 C326 0.950 . S
H319 C331 0.950 . S
H320 C328 0.950 . S
H321 C330 0.950 . S
H322 C332 0.950 . S
H323 C334 0.950 . S
H324 C336 0.950 . S
H325 C337 0.950 . S
C326 H318 0.950 . S
C326 C327 1.386 . S
C326 C328 1.391 . S
C327 C326 1.386 . S
C327 C331 1.393 . S
C328 H320 0.950 . S
C328 C326 1.391 . S
C328 C329 1.400 . S
C329 C328 1.400 . S
C329 C330 1.398 . S
C329 C335 1.491 . S
C330 H321 0.950 . S
C330 C329 1.398 . S
C330 C331 1.391 . S
C331 H319 0.950 . S
C331 C327 1.393 . S
C331 C330 1.391 . S
C332 H322 0.950 . S
C332 C333 1.386 . S
C332 C334 1.391 . S
C333 C332 1.386 . S
C333 C337 1.393 . S
C334 H323 0.950 . S
C334 C332 1.391 . S
C334 C335 1.400 . S
C335 C329 1.491 . S
C335 C334 1.400 . S
C335 C336 1.398 . S
C336 H324 0.950 . S
C336 C335 1.398 . S
C336 C337 1.391 . S
C337 H325 0.950 . S
C337 C333 1.393 . S
C337 C336 1.391 . S
H338 C346 0.950 . S
H339 C351 0.950 . S
H340 C348 0.950 . S
H341 C350 0.950 . S
H342 C352 0.950 . S
H343 C354 0.950 . S
H344 C356 0.950 . S
H345 C357 0.950 . S
C346 H338 0.950 . S
C346 C347 1.386 . S
C346 C348 1.391 . S
C347 C346 1.386 . S
C347 C351 1.393 . S
C348 H340 0.950 . S
C348 C346 1.391 . S
C348 C349 1.400 . S
C349 C348 1.400 . S
C349 C350 1.398 . S
C349 C355 1.491 . S
C350 H341 0.950 . S
C350 C349 1.398 . S
C350 C351 1.391 . S
C351 H339 0.950 . S
C351 C347 1.393 . S
C351 C350 1.391 . S
C352 H342 0.950 . S
C352 C353 1.386 . S
C352 C354 1.391 1_554 S
C353 C352 1.386 . S
C353 C357 1.393 . S
C354 H343 0.950 . S
C354 C352 1.391 1_556 S
C354 C355 1.400 . S
C355 C349 1.491 . S
C355 C354 1.400 . S
C355 C356 1.398 . S
C356 H344 0.950 . S
C356 C355 1.398 . S
C356 C357 1.391 1_556 S
C357 H345 0.950 . S
C357 C353 1.393 . S
C357 C356 1.391 1_554 S
H358 C366 0.950 . S
H359 C371 0.950 . S
H360 C368 0.950 . S
H361 C370 0.950 . S
H362 C372 0.950 1_556 S
H363 C374 0.950 . S
H364 C376 0.950 . S
H365 C377 0.950 . S
C366 H358 0.950 . S
C366 C367 1.386 . S
C366 C368 1.391 . S
C367 C366 1.386 . S
C367 C371 1.393 . S
C368 H360 0.950 . S
C368 C366 1.391 . S
C368 C369 1.400 . S
C369 C368 1.400 . S
C369 C370 1.398 . S
C369 C375 1.491 . S
C370 H361 0.950 . S
C370 C369 1.398 . S
C370 C371 1.391 . S
C371 H359 0.950 . S
C371 C367 1.393 . S
C371 C370 1.391 . S
C372 H362 0.950 1_554 S
C372 C373 1.386 1_554 S
C372 C374 1.391 . S
C373 C372 1.386 1_556 S
C373 C377 1.393 . S
C374 H363 0.950 . S
C374 C372 1.391 . S
C374 C375 1.400 . S
C375 C369 1.491 . S
C375 C374 1.400 . S
C375 C376 1.398 . S
C376 H364 0.950 . S
C376 C375 1.398 . S
C376 C377 1.391 1_554 S
C377 H365 0.950 . S
C377 C373 1.393 . S
C377 C376 1.391 1_556 S
H378 C386 0.950 . S
H379 C391 0.950 1_556 S
H380 C388 0.950 . S
H381 C390 0.950 . S
H382 C392 0.950 . S
H383 C394 0.950 . S
H384 C396 0.950 . S
H385 C397 0.950 . S
C386 H378 0.950 . S
C386 C387 1.386 . S
C386 C388 1.391 . S
C387 C386 1.386 . S
C387 C391 1.393 . S
C388 H380 0.950 . S
C388 C386 1.391 . S
C388 C389 1.400 . S
C389 C388 1.400 . S
C389 C390 1.398 . S
C389 C395 1.491 . S
C390 H381 0.950 . S
C390 C389 1.398 . S
C390 C391 1.391 . S
C391 H379 0.950 1_554 S
C391 C387 1.393 . S
C391 C390 1.391 . S
C392 H382 0.950 . S
C392 C393 1.386 . S
C392 C394 1.391 . S
C393 C392 1.386 . S
C393 C397 1.393 . S
C394 H383 0.950 . S
C394 C392 1.391 . S
C394 C395 1.400 . S
C395 C389 1.491 . S
C395 C394 1.400 . S
C395 C396 1.398 . S
C396 H384 0.950 . S
C396 C395 1.398 . S
C396 C397 1.391 . S
C397 H385 0.950 . S
C397 C393 1.393 . S
C397 C396 1.391 . S
H398 C406 0.950 . S
H399 C411 0.950 . S
H400 C408 0.950 . S
H401 C410 0.950 . S
H402 C412 0.950 . S
H403 C414 0.950 . S
H404 C416 0.950 . S
H405 C417 0.950 . S
C406 H398 0.950 . S
C406 C407 1.386 . S
C406 C408 1.391 . S
C407 C406 1.386 . S
C407 C411 1.393 . S
C408 H400 0.950 . S
C408 C406 1.391 . S
C408 C409 1.400 . S
C409 C408 1.400 . S
C409 C410 1.398 . S
C409 C415 1.491 . S
C410 H401 0.950 . S
C410 C409 1.398 . S
C410 C411 1.391 . S
C411 H399 0.950 . S
C411 C407 1.393 . S
C411 C410 1.391 . S
C412 H402 0.950 . S
C412 C413 1.386 . S
C412 C414 1.391 . S
C413 C412 1.386 . S
C413 C417 1.393 . S
C414 H403 0.950 . S
C414 C412 1.391 . S
C414 C415 1.400 . S
C415 C409 1.491 . S
C415 C414 1.400 . S
C415 C416 1.398 . S
C416 H404 0.950 . S
C416 C415 1.398 . S
C416 C417 1.391 . S
C417 H405 0.950 . S
C417 C413 1.393 . S
C417 C416 1.391 . S
H418 C426 0.950 . S
H419 C431 0.950 . S
H420 C428 0.950 . S
H421 C430 0.950 . S
H422 C432 0.950 . S
H423 C434 0.950 . S
H424 C436 0.950 . S
H425 C437 0.950 . S
C426 H418 0.950 . S
C426 C427 1.386 . S
C426 C428 1.391 . S
C427 C426 1.386 . S
C427 C431 1.393 . S
C428 H420 0.950 . S
C428 C426 1.391 . S
C428 C429 1.400 . S
C429 C428 1.400 . S
C429 C430 1.398 . S
C429 C435 1.491 . S
C430 H421 0.950 . S
C430 C429 1.398 . S
C430 C431 1.391 . S
C431 H419 0.950 . S
C431 C427 1.393 . S
C431 C430 1.391 . S
C432 H422 0.950 . S
C432 C433 1.386 . S
C432 C434 1.391 . S
C433 C432 1.386 . S
C433 C437 1.393 . S
C434 H423 0.950 . S
C434 C432 1.391 . S
C434 C435 1.400 . S
C435 C429 1.491 . S
C435 C434 1.400 . S
C435 C436 1.398 . S
C436 H424 0.950 . S
C436 C435 1.398 . S
C436 C437 1.391 . S
C437 H425 0.950 . S
C437 C433 1.393 . S
C437 C436 1.391 . S
H438 C446 0.950 . S
H439 C451 0.950 . S
H440 C448 0.950 . S
H441 C450 0.950 . S
H442 C452 0.950 . S
H443 C454 0.950 . S
H444 C456 0.950 . S
H445 C457 0.950 1_556 S
C446 H438 0.950 . S
C446 C447 1.386 . S
C446 C448 1.391 . S
C447 C446 1.386 . S
C447 C451 1.393 . S
C448 H440 0.950 . S
C448 C446 1.391 . S
C448 C449 1.400 . S
C449 C448 1.400 . S
C449 C450 1.398 . S
C449 C455 1.491 . S
C450 H441 0.950 . S
C450 C449 1.398 . S
C450 C451 1.391 . S
C451 H439 0.950 . S
C451 C447 1.393 . S
C451 C450 1.391 . S
C452 H442 0.950 . S
C452 C453 1.386 . S
C452 C454 1.391 . S
C453 C452 1.386 . S
C453 C457 1.393 . S
C454 H443 0.950 . S
C454 C452 1.391 . S
C454 C455 1.400 . S
C455 C449 1.491 . S
C455 C454 1.400 . S
C455 C456 1.398 . S
C456 H444 0.950 . S
C456 C455 1.398 . S
C456 C457 1.391 . S
C457 H445 0.950 1_554 S
C457 C453 1.393 . S
C457 C456 1.391 . S
H458 C466 0.950 . S
H459 C471 0.950 . S
H460 C468 0.950 . S
H461 C470 0.950 . S
H462 C472 0.950 . S
H463 C474 0.950 . S
H464 C476 0.950 . S
H465 C477 0.950 . S
C466 H458 0.950 . S
C466 C467 1.386 . S
C466 C468 1.391 . S
C467 C466 1.386 . S
C467 C471 1.393 . S
C468 H460 0.950 . S
C468 C466 1.391 . S
C468 C469 1.400 . S
C469 C468 1.400 . S
C469 C470 1.398 . S
C469 C475 1.491 . S
C470 H461 0.950 . S
C470 C469 1.398 . S
C470 C471 1.391 . S
C471 H459 0.950 . S
C471 C467 1.393 . S
C471 C470 1.391 . S
C472 H462 0.950 . S
C472 C473 1.386 . S
C472 C474 1.391 . S
C473 C472 1.386 . S
C473 C477 1.393 . S
C474 H463 0.950 . S
C474 C472 1.391 . S
C474 C475 1.400 . S
C475 C469 1.491 . S
C475 C474 1.400 . S
C475 C476 1.398 . S
C476 H464 0.950 . S
C476 C475 1.398 . S
C476 C477 1.391 . S
C477 H465 0.950 . S
C477 C473 1.393 . S
C477 C476 1.391 . S
H478 C486 0.950 . S
H479 C491 0.950 1_554 S
H480 C488 0.950 . S
H481 C490 0.950 . S
H482 C492 0.950 . S
H483 C494 0.950 . S
H484 C496 0.950 . S
H485 C497 0.950 . S
C486 H478 0.950 . S
C486 C487 1.386 . S
C486 C488 1.391 . S
C487 C486 1.386 . S
C487 C491 1.393 . S
C488 H480 0.950 . S
C488 C486 1.391 . S
C488 C489 1.400 . S
C489 C488 1.400 . S
C489 C490 1.398 . S
C489 C495 1.491 . S
C490 H481 0.950 . S
C490 C489 1.398 . S
C490 C491 1.391 . S
C491 H479 0.950 1_556 S
C491 C487 1.393 . S
C491 C490 1.391 . S
C492 H482 0.950 . S
C492 C493 1.386 . S
C492 C494 1.391 . S
C493 C492 1.386 . S
C493 C497 1.393 . S
C494 H483 0.950 . S
C494 C492 1.391 . S
C494 C495 1.400 . S
C495 C489 1.491 . S
C495 C494 1.400 . S
C495 C496 1.398 . S
C496 H484 0.950 . S
C496 C495 1.398 . S
C496 C497 1.391 . S
C497 H485 0.950 . S
C497 C493 1.393 . S
C497 C496 1.391 . S
C147 C131 1.469 . S
C153 C20 1.468 . S
C167 C16 1.474 . S
C173 C43 1.462 . S
C187 C39 1.475 . S
C193 C66 1.467 . S
C207 C62 1.467 . S
C213 C89 1.466 . S
C227 C112 1.452 . S
C233 C85 1.457 . S
C247 C135 1.449 . S
C253 C108 1.458 . S
C267 C21 0.753 . S
C273 C18 0.702 . S
C287 C44 0.710 . S
C293 C41 0.706 . S
C307 C67 0.729 . S
C313 C64 0.704 . S
C327 C90 0.690 . S
C333 C87 0.708 . S
C347 C110 0.702 . S
C353 C113 0.749 . S
C367 C136 0.710 . S
C373 C133 0.707 . S
C387 C19 1.589 . S
C393 C109 1.620 . S
C407 C42 1.579 . S
C413 C132 1.616 . S
C427 C17 1.609 . S
C433 C65 1.569 . S
C447 C40 1.610 . S
C453 C88 1.571 . S
C467 C111 1.576 . S
C473 C63 1.612 . S
C487 C86 1.611 . S
C493 C134 1.575 . S
