# Generated by pormake.
# Topology umx, (4)-cn, num edge types: 1
# Building blocks:
#     Node 0, Type 0, BuildingBlock: QUQFOY_clean_sbu_1, # of connection points: 4
#     Node 1, Type 0, BuildingBlock: QUQFOY_clean_sbu_1, # of connection points: 4
#     Node 2, Type 0, BuildingBlock: QUQFOY_clean_sbu_1, # of connection points: 4
#     Node 3, Type 0, BuildingBlock: QUQFOY_clean_sbu_1, # of connection points: 4
#     Node 4, Type 0, BuildingBlock: QUQFOY_clean_sbu_1, # of connection points: 4
#     Node 5, Type 0, BuildingBlock: QUQFOY_clean_sbu_1, # of connection points: 4
#     Node 6, Type 0, BuildingBlock: QUQFOY_clean_sbu_1, # of connection points: 4
#     Node 7, Type 0, BuildingBlock: QUQFOY_clean_sbu_1, # of connection points: 4
#     Edge 8, Type (0, 0), BuildingBlock: TEMPAE_clean_linker_10, # of connection points: 2
#     Edge 9, Type (0, 0), BuildingBlock: TEMPAE_clean_linker_10, # of connection points: 2
#     Edge 10, Type (0, 0), BuildingBlock: TEMPAE_clean_linker_10, # of connection points: 2
#     Edge 11, Type (0, 0), BuildingBlock: TEMPAE_clean_linker_10, # of connection points: 2
#     Edge 12, Type (0, 0), BuildingBlock: TEMPAE_clean_linker_10, # of connection points: 2
#     Edge 13, Type (0, 0), BuildingBlock: TEMPAE_clean_linker_10, # of connection points: 2
#     Edge 14, Type (0, 0), BuildingBlock: TEMPAE_clean_linker_10, # of connection points: 2
#     Edge 15, Type (0, 0), BuildingBlock: TEMPAE_clean_linker_10, # of connection points: 2
#     Edge 16, Type (0, 0), BuildingBlock: TEMPAE_clean_linker_10, # of connection points: 2
#     Edge 17, Type (0, 0), BuildingBlock: TEMPAE_clean_linker_10, # of connection points: 2
#     Edge 18, Type (0, 0), BuildingBlock: TEMPAE_clean_linker_10, # of connection points: 2
#     Edge 19, Type (0, 0), BuildingBlock: TEMPAE_clean_linker_10, # of connection points: 2
#     Edge 20, Type (0, 0), BuildingBlock: TEMPAE_clean_linker_10, # of connection points: 2
#     Edge 21, Type (0, 0), BuildingBlock: TEMPAE_clean_linker_10, # of connection points: 2
#     Edge 22, Type (0, 0), BuildingBlock: TEMPAE_clean_linker_10, # of connection points: 2
#     Edge 23, Type (0, 0), BuildingBlock: TEMPAE_clean_linker_10, # of connection points: 2
# Relax obj value: 0.070
# Max RMSD: 0.141
# Mean RMSD: 0.140
data_MOF--net-umx--node1-QUQFOY_clean_sbu_1--edge1-TEMPAE_clean_linker_10
_symmetry_space_group_name_H-M    P1
_symmetry_Int_Tables_number       1
_symmetry_cell_setting            triclinic
loop_
_symmetry_equiv_pos_as_xyz
'x, y, z'
_cell_length_a     41.115194
_cell_length_b     41.03074
_cell_length_c     29.140475
_cell_angle_alpha  90.000896
_cell_angle_beta   90.02942
_cell_angle_gamma 90.040836
loop_
_atom_site_label
_atom_site_type_symbol
_atom_site_fract_x
_atom_site_fract_y
_atom_site_fract_z
_atom_type_partial_charge
O0 O 0.19192 0.4465 0.10758 0.0
Cd1 Cd 0.17697 0.42616 0.04691 0.0
Cd2 Cd 0.19609 0.48446 0.01565 0.0
O3 O 0.2164 0.49035 0.08069 0.0
O4 O 0.17983 0.37813 0.0569 0.0
O5 O 0.21099 0.40496 1.00781 0.0
C6 C 0.20378 0.37795 0.02827 0.0
C7 C 0.22242 0.49548 0.94645 0.0
C8 C 0.20891 0.47194 0.11428 0.0
C9 C 0.12395 0.46821 1.0136 0.0
O10 O 0.1462 0.48959 1.01017 0.0
O11 O 0.13091 0.43915 0.02519 0.0
O12 O 0.21232 0.51868 0.9727 0.0
O13 O 0.21998 0.46591 0.96126 0.0
O14 O 0.57099 0.19414 0.61131 0.0
Cd15 Cd 0.59097 0.17846 0.55098 0.0
Cd16 Cd 0.53282 0.19732 0.51911 0.0
O17 O 0.52862 0.22012 0.58298 0.0
O18 O 0.63908 0.18055 0.56125 0.0
O19 O 0.61289 0.21216 0.51211 0.0
C20 C 0.63966 0.20463 0.53273 0.0
C21 C 0.52824 0.222 0.44733 0.0
C22 C 0.54642 0.2124 0.61711 0.0
C23 C 0.54714 0.12532 0.51987 0.0
O24 O 0.52555 0.14744 0.51703 0.0
O25 O 0.57649 0.13259 0.52951 0.0
O26 O 0.50288 0.21757 0.47272 0.0
O27 O 0.55634 0.21461 0.46415 0.0
O28 O 0.82576 0.5723 0.10692 0.0
Cd29 Cd 0.84052 0.59287 0.04632 0.0
Cd30 Cd 0.82174 0.53453 0.01475 0.0
O31 O 0.80153 0.52837 0.07981 0.0
O32 O 0.83731 0.64089 0.05634 0.0
O33 O 0.80638 0.61386 1.00712 0.0
C34 C 0.81341 0.64092 0.02759 0.0
C35 C 0.79549 0.52327 0.94551 0.0
C36 C 0.80896 0.54673 0.1135 0.0
C37 C 0.8938 0.55125 1.01293 0.0
O38 O 0.87166 0.52976 1.00931 0.0
O39 O 0.88667 0.58023 0.02468 0.0
O40 O 0.80579 0.50017 0.97178 0.0
O41 O 0.79766 0.55287 0.96032 0.0
O42 O 0.44687 0.82206 0.60943 0.0
Cd43 Cd 0.42688 0.83847 0.54945 0.0
Cd44 Cd 0.48515 0.82011 0.51723 0.0
O45 O 0.48976 0.79713 0.58088 0.0
O46 O 0.37883 0.83658 0.56019 0.0
O47 O 0.4045 0.80528 0.51014 0.0
C48 C 0.37792 0.81276 0.53126 0.0
C49 C 0.48956 0.79561 0.44534 0.0
C50 C 0.47171 0.80413 0.61502 0.0
C51 C 0.47051 0.89203 0.51892 0.0
O52 O 0.49216 0.87001 0.5154 0.0
O53 O 0.44127 0.88459 0.52891 0.0
O54 O 0.51499 0.80015 0.47057 0.0
O55 O 0.46147 0.80279 0.46237 0.0
O56 O 0.18972 0.57243 0.44604 0.0
Cd57 Cd 0.17585 0.59335 0.50675 0.0
Cd58 Cd 0.19553 0.53557 0.53866 0.0
O59 O 0.21559 0.52955 0.47347 0.0
O60 O 0.17944 0.64135 0.49669 0.0
O61 O 0.21072 0.61393 0.54502 0.0
C62 C 0.20375 0.64108 0.52477 0.0
C63 C 0.22211 0.52448 0.60771 0.0
C64 C 0.20715 0.54729 0.4396 0.0
C65 C 0.1233 0.55154 0.54147 0.0
O66 O 0.14565 0.53027 0.54454 0.0
O67 O 0.13007 0.58063 0.52976 0.0
O68 O 0.21189 0.50131 0.58147 0.0
O69 O 0.21967 0.55407 0.59297 0.0
O70 O 0.44468 0.19153 0.94599 0.0
Cd71 Cd 0.42394 0.17714 1.00641 0.0
Cd72 Cd 0.48131 0.19727 0.03898 0.0
O73 O 0.4856 0.21962 0.97475 0.0
O74 O 0.3759 0.17946 0.99559 0.0
O75 O 0.40225 0.21175 0.04376 0.0
C76 C 0.37548 0.20408 0.02321 0.0
C77 C 0.48563 0.22229 0.11059 0.0
C78 C 0.46876 0.21049 0.94032 0.0
C79 C 0.46773 0.12506 0.0397 0.0
O80 O 0.48909 0.14749 0.0419 0.0
O81 O 0.43831 0.13183 0.02986 0.0
O82 O 0.51103 0.21803 0.08526 0.0
O83 O 0.4576 0.21463 0.09374 0.0
O84 O 0.82746 0.44526 0.44513 0.0
Cd85 Cd 0.8414 0.42436 0.50588 0.0
Cd86 Cd 0.82189 0.48225 0.53777 0.0
O87 O 0.80193 0.48834 0.47249 0.0
O88 O 0.8377 0.37635 0.49597 0.0
O89 O 0.80659 0.40389 0.54433 0.0
C90 C 0.81348 0.37669 0.52417 0.0
C91 C 0.79537 0.49353 0.60678 0.0
C92 C 0.8102 0.47051 0.43864 0.0
C93 C 0.89407 0.46605 0.5407 0.0
O94 O 0.87177 0.48737 0.54382 0.0
O95 O 0.88724 0.437 0.52883 0.0
O96 O 0.80565 0.51662 0.58048 0.0
O97 O 0.79767 0.46392 0.59209 0.0
O98 O 0.57244 0.82858 0.94381 0.0
Cd99 Cd 0.59355 0.84242 1.00424 0.0
Cd100 Cd 0.53658 0.82182 0.03719 0.0
O101 O 0.53236 0.79948 0.97291 0.0
O102 O 0.64159 0.83978 0.9935 0.0
O103 O 0.61492 0.80738 0.04115 0.0
C104 C 0.64178 0.81499 0.02082 0.0
C105 C 0.53215 0.79666 0.1087 0.0
C106 C 0.54868 0.8092 0.93833 0.0
C107 C 0.54983 0.89411 0.03838 0.0
O108 O 0.52857 0.87158 0.04029 0.0
O109 O 0.57927 0.88751 0.02853 0.0
O110 O 0.5068 0.80089 0.08322 0.0
O111 O 0.5602 0.80445 0.09207 0.0
C112 C 0.20227 0.46436 0.19864 0.0
C113 C 0.21725 0.48101 0.1622 0.0
C114 C 0.20607 0.47469 0.24411 0.0
C115 C 0.22594 0.502 0.25379 0.0
C116 C 0.24301 0.51755 0.21764 0.0
C117 C 0.23815 0.50712 0.1721 0.0
C118 C 0.18691 0.4577 0.28137 0.0
C119 C 0.26516 0.54615 0.22681 0.0
C120 C 0.19645 0.55074 0.35568 0.0
C121 C 0.21499 0.53776 0.39177 0.0
C122 C 0.2008 0.54024 0.31042 0.0
C123 C 0.22487 0.51664 0.30053 0.0
C124 C 0.24499 0.50473 0.33631 0.0
C125 C 0.23949 0.51508 0.38175 0.0
C126 C 0.17827 0.55309 0.27362 0.0
C127 C 0.27155 0.48029 0.32685 0.0
H128 H 0.18616 0.44406 0.19155 0.0
H129 H 0.25013 0.51988 0.14426 0.0
H130 H 0.20309 0.45071 0.31016 0.0
H131 H 0.1683 0.47461 0.29528 0.0
H132 H 0.17438 0.43546 0.26865 0.0
H133 H 0.28093 0.55172 0.19687 0.0
H134 H 0.25034 0.56804 0.23457 0.0
H135 H 0.28079 0.54133 0.25713 0.0
H136 H 0.1774 0.56823 0.36301 0.0
H137 H 0.25413 0.50521 0.40939 0.0
H138 H 0.16321 0.53284 0.2599 0.0
H139 H 0.1925 0.56318 0.2446 0.0
H140 H 0.16176 0.5724 0.28664 0.0
H141 H 0.26058 0.45619 0.31921 0.0
H142 H 0.28827 0.4775 0.35655 0.0
H143 H 0.28589 0.4877 0.29632 0.0
C144 C 0.55393 0.20747 0.70175 0.0
C145 C 0.53735 0.22174 0.66469 0.0
C146 C 0.54324 0.21166 0.74697 0.0
C147 C 0.51563 0.23123 0.75577 0.0
C148 C 0.50029 0.24785 0.71901 0.0
C149 C 0.51109 0.2426 0.67373 0.0
C150 C 0.56008 0.19301 0.78488 0.0
C151 C 0.47143 0.26976 0.72721 0.0
C152 C 0.46611 0.20055 0.85615 0.0
C153 C 0.47838 0.21912 0.89276 0.0
C154 C 0.47703 0.20535 0.81117 0.0
C155 C 0.5003 0.22992 0.80206 0.0
C156 C 0.51135 0.25016 0.8383 0.0
C157 C 0.50062 0.24421 0.88346 0.0
C158 C 0.46504 0.18268 0.7739 0.0
C159 C 0.53537 0.27729 0.82966 0.0
H160 H 0.57441 0.1915 0.69537 0.0
H161 H 0.49838 0.25408 0.64543 0.0
H162 H 0.56635 0.20949 0.8137 0.0
H163 H 0.5434 0.17406 0.79851 0.0
H164 H 0.58268 0.18088 0.77289 0.0
H165 H 0.46637 0.28562 0.69714 0.0
H166 H 0.44954 0.25468 0.73392 0.0
H167 H 0.4755 0.28535 0.75781 0.0
H168 H 0.44893 0.18108 0.86284 0.0
H169 H 0.50995 0.25888 0.91146 0.0
H170 H 0.48565 0.16799 0.76064 0.0
H171 H 0.45511 0.19686 0.74471 0.0
H172 H 0.44586 0.16575 0.78631 0.0
H173 H 0.55984 0.26682 0.82353 0.0
H174 H 0.53699 0.2943 0.85924 0.0
H175 H 0.52849 0.29128 0.79854 0.0
C176 C 0.77843 0.50334 0.38079 0.0
C177 C 0.80239 0.48006 0.39079 0.0
C178 C 0.7731 0.5138 0.33535 0.0
C179 C 0.79284 0.50137 0.29952 0.0
C180 C 0.81629 0.47714 0.30936 0.0
C181 C 0.82048 0.46656 0.35464 0.0
C182 C 0.74719 0.53894 0.32595 0.0
C183 C 0.8384 0.4637 0.27251 0.0
C184 C 0.7794 0.51172 0.17117 0.0
C185 C 0.80082 0.53742 0.16138 0.0
C186 C 0.77453 0.50115 0.21665 0.0
C187 C 0.79212 0.51612 0.25282 0.0
C188 C 0.81263 0.54296 0.24324 0.0
C189 C 0.81643 0.55346 0.19786 0.0
C190 C 0.75169 0.47309 0.22571 0.0
C191 C 0.83237 0.55927 0.28052 0.0
H192 H 0.76413 0.51362 0.40845 0.0
H193 H 0.8391 0.4486 0.36192 0.0
H194 H 0.75878 0.56275 0.31835 0.0
H195 H 0.73262 0.53195 0.29543 0.0
H196 H 0.73059 0.54215 0.35567 0.0
H197 H 0.85433 0.44387 0.28545 0.0
H198 H 0.82386 0.4541 0.24344 0.0
H199 H 0.85404 0.48351 0.25888 0.0
H200 H 0.76696 0.49943 0.14329 0.0
H201 H 0.83298 0.57341 0.19084 0.0
H202 H 0.73621 0.47825 0.25604 0.0
H203 H 0.76597 0.45083 0.23342 0.0
H204 H 0.73577 0.46795 0.19575 0.0
H205 H 0.81646 0.56672 0.30936 0.0
H206 H 0.84557 0.58113 0.26786 0.0
H207 H 0.85047 0.54177 0.29436 0.0
C208 C 0.54809 0.82136 0.85479 0.0
C209 C 0.53878 0.80073 0.89088 0.0
C210 C 0.53726 0.81603 0.80989 0.0
C211 C 0.5172 0.78883 0.80029 0.0
C212 C 0.50901 0.76687 0.83605 0.0
C213 C 0.51947 0.77338 0.88121 0.0
C214 C 0.546 0.84057 0.77319 0.0
C215 C 0.48854 0.73706 0.82683 0.0
C216 C 0.46204 0.80573 0.6995 0.0
C217 C 0.48076 0.79441 0.66247 0.0
C218 C 0.47257 0.80198 0.7449 0.0
C219 C 0.50233 0.78592 0.75383 0.0
C220 C 0.51997 0.77189 0.71701 0.0
C221 C 0.50914 0.77657 0.67161 0.0
C222 C 0.45314 0.81774 0.7829 0.0
C223 C 0.5513 0.7537 0.72529 0.0
H224 H 0.56288 0.84265 0.86191 0.0
H225 H 0.51246 0.75718 0.90888 0.0
H226 H 0.55792 0.82822 0.74384 0.0
H227 H 0.52357 0.85232 0.75999 0.0
H228 H 0.56257 0.85991 0.78609 0.0
H229 H 0.48872 0.71986 0.85628 0.0
H230 H 0.46303 0.74446 0.82018 0.0
H231 H 0.49738 0.72414 0.7958 0.0
H232 H 0.43984 0.81921 0.69305 0.0
H233 H 0.52357 0.76735 0.64335 0.0
H234 H 0.46688 0.83884 0.7968 0.0
H235 H 0.44926 0.80039 0.81153 0.0
H236 H 0.42905 0.82652 0.77085 0.0
H237 H 0.57107 0.77136 0.73261 0.0
H238 H 0.5585 0.73892 0.69501 0.0
H239 H 0.54904 0.73741 0.75553 0.0
C240 C 0.76438 0.48038 0.67873 0.0
C241 C 0.78616 0.50047 0.65486 0.0
C242 C 0.75929 0.48451 0.72618 0.0
C243 C 0.77767 0.50811 0.75051 0.0
C244 C 0.79897 0.52903 0.72613 0.0
C245 C 0.80239 0.52538 0.67851 0.0
C246 C 0.73519 0.46279 0.75047 0.0
C247 C 0.81998 0.55373 0.75068 0.0
C248 C 0.76434 0.53625 0.8736 0.0
C249 C 0.78634 0.51637 0.89738 0.0
C250 C 0.75919 0.53212 0.82616 0.0
C251 C 0.77775 0.50874 0.80173 0.0
C252 C 0.7993 0.48804 0.82602 0.0
C253 C 0.80277 0.49167 0.87363 0.0
C254 C 0.73483 0.55358 0.80197 0.0
C255 C 0.82049 0.46359 0.80137 0.0
H256 H 0.75171 0.46117 0.66046 0.0
H257 H 0.81955 0.5407 0.66026 0.0
H258 H 0.74838 0.44383 0.77018 0.0
H259 H 0.72047 0.47709 0.77522 0.0
H260 H 0.71857 0.45042 0.72595 0.0
H261 H 0.83472 0.56862 0.72656 0.0
H262 H 0.80474 0.57035 0.77152 0.0
H263 H 0.83675 0.54098 0.77455 0.0
H264 H 0.75151 0.55529 0.89195 0.0
H265 H 0.8201 0.47651 0.89182 0.0
H266 H 0.72015 0.53912 0.77731 0.0
H267 H 0.74779 0.57266 0.78216 0.0
H268 H 0.71818 0.5658 0.82656 0.0
H269 H 0.80534 0.44677 0.78063 0.0
H270 H 0.83547 0.44889 0.82541 0.0
H271 H 0.83703 0.47653 0.77738 0.0
C272 C 0.54703 0.8049 0.1904 0.0
C273 C 0.52862 0.78801 0.15767 0.0
C274 C 0.54036 0.80184 0.23743 0.0
C275 C 0.51562 0.78019 0.25225 0.0
C276 C 0.49855 0.76128 0.21939 0.0
C277 C 0.50465 0.76607 0.17232 0.0
C278 C 0.55836 0.82341 0.27094 0.0
C279 C 0.47314 0.73679 0.23382 0.0
C280 C 0.51744 0.76588 0.38132 0.0
C281 C 0.49298 0.78712 0.39629 0.0
C282 C 0.52347 0.76138 0.33419 0.0
C283 C 0.50579 0.7799 0.30156 0.0
C284 C 0.48051 0.80076 0.31669 0.0
C285 C 0.47396 0.80353 0.3638 0.0
C286 C 0.54951 0.7377 0.31944 0.0
C287 C 0.46182 0.82191 0.28344 0.0
H288 H 0.56527 0.82222 0.17906 0.0
H289 H 0.49044 0.75295 0.14698 0.0
H290 H 0.54085 0.83977 0.28854 0.0
H291 H 0.57033 0.80846 0.29772 0.0
H292 H 0.57715 0.83865 0.25389 0.0
H293 H 0.46633 0.72021 0.20524 0.0
H294 H 0.48209 0.72196 0.26307 0.0
H295 H 0.45094 0.7497 0.24543 0.0
H296 H 0.53211 0.7531 0.40646 0.0
H297 H 0.45533 0.82031 0.37538 0.0
H298 H 0.57134 0.7513 0.30791 0.0
H299 H 0.54093 0.72277 0.29006 0.0
H300 H 0.55682 0.72118 0.34783 0.0
H301 H 0.47878 0.83899 0.2661 0.0
H302 H 0.44252 0.83637 0.30066 0.0
H303 H 0.45037 0.80674 0.25643 0.0
C304 C 0.21529 0.52706 0.87453 0.0
C305 C 0.23159 0.50229 0.89833 0.0
C306 C 0.21872 0.53059 0.8269 0.0
C307 C 0.24011 0.50972 0.80266 0.0
C308 C 0.25857 0.48627 0.82715 0.0
C309 C 0.25345 0.48225 0.8746 0.0
C310 C 0.19763 0.55511 0.80219 0.0
C311 C 0.28277 0.46463 0.803 0.0
C312 C 0.21509 0.49287 0.67963 0.0
C313 C 0.23139 0.51764 0.6558 0.0
C314 C 0.2186 0.48934 0.72724 0.0
C315 C 0.24007 0.5102 0.75144 0.0
C316 C 0.25851 0.53365 0.72693 0.0
C317 C 0.25332 0.53768 0.67949 0.0
C318 C 0.19752 0.46481 0.75199 0.0
C319 C 0.28279 0.5553 0.75102 0.0
H320 H 0.19806 0.54235 0.89268 0.0
H321 H 0.26618 0.46315 0.893 0.0
H322 H 0.21283 0.57178 0.78134 0.0
H323 H 0.18096 0.54222 0.77832 0.0
H324 H 0.18278 0.56996 0.82621 0.0
H325 H 0.29943 0.45242 0.82761 0.0
H326 H 0.26968 0.44553 0.78338 0.0
H327 H 0.29745 0.47894 0.77819 0.0
H328 H 0.19781 0.47759 0.66151 0.0
H329 H 0.26604 0.55678 0.66107 0.0
H330 H 0.18091 0.47771 0.77589 0.0
H331 H 0.21273 0.44814 0.77283 0.0
H332 H 0.18262 0.44996 0.72801 0.0
H333 H 0.26976 0.57441 0.77065 0.0
H334 H 0.29944 0.56749 0.72638 0.0
H335 H 0.29748 0.54099 0.77583 0.0
C336 C 0.54339 0.21395 0.36568 0.0
C337 C 0.52469 0.23056 0.39832 0.0
C338 C 0.53678 0.21692 0.31861 0.0
C339 C 0.51177 0.23819 0.30366 0.0
C340 C 0.49439 0.25685 0.33644 0.0
C341 C 0.50046 0.25215 0.38353 0.0
C342 C 0.55511 0.19561 0.2852 0.0
C343 C 0.46866 0.28094 0.32188 0.0
C344 C 0.51328 0.25243 0.17454 0.0
C345 C 0.48907 0.23084 0.15962 0.0
C346 C 0.51933 0.25703 0.22167 0.0
C347 C 0.50193 0.23826 0.25433 0.0
C348 C 0.47692 0.21701 0.23925 0.0
C349 C 0.47034 0.21415 0.19216 0.0
C350 C 0.54505 0.28111 0.23637 0.0
C351 C 0.45856 0.19559 0.27254 0.0
H352 H 0.56184 0.19691 0.37712 0.0
H353 H 0.48604 0.26507 0.4088 0.0
H354 H 0.53787 0.17892 0.26764 0.0
H355 H 0.56685 0.21072 0.25838 0.0
H356 H 0.57415 0.18074 0.30233 0.0
H357 H 0.4616 0.29744 0.35041 0.0
H358 H 0.47743 0.29587 0.29262 0.0
H359 H 0.44664 0.26769 0.31024 0.0
H360 H 0.52773 0.26542 0.14936 0.0
H361 H 0.4519 0.19709 0.18062 0.0
H362 H 0.56707 0.26785 0.24794 0.0
H363 H 0.53629 0.29594 0.26572 0.0
H364 H 0.55211 0.29771 0.20795 0.0
H365 H 0.47579 0.17885 0.28999 0.0
H366 H 0.43951 0.18077 0.25533 0.0
H367 H 0.44685 0.21061 0.29946 0.0
C368 C 0.93583 0.51566 0.97678 0.0
C369 C 0.92809 0.54137 1.00655 0.0
C370 C 0.96774 0.50368 0.97368 0.0
C371 C 0.99228 0.51706 1.00213 0.0
C372 C 0.98469 0.54342 0.03169 0.0
C373 C 0.95275 0.55558 0.03304 0.0
C374 C 0.97504 0.47629 0.94067 0.0
C375 C 0.00999 0.55792 0.06325 0.0
C376 C 0.0649 0.46397 0.03315 0.0
C377 C 0.08972 0.47828 1.00709 0.0
C378 C 0.03299 0.4762 0.0316 0.0
C379 C 0.0256 0.50276 1.00227 0.0
C380 C 0.0503 0.51627 0.97428 0.0
C381 C 0.08217 0.5042 0.97757 0.0
C382 C 0.00751 0.46154 0.06268 0.0
C383 C 0.04321 0.54388 0.94152 0.0
H384 H 0.91681 0.50473 0.95607 0.0
H385 H 0.94676 0.57521 0.05645 0.0
H386 H 0.99614 0.48276 0.91874 0.0
H387 H 0.9817 0.45401 0.96005 0.0
H388 H 0.95396 0.47053 0.91821 0.0
H389 H 1.00029 0.57857 0.08373 0.0
H390 H 0.01903 0.53892 0.08716 0.0
H391 H 0.03114 0.56668 0.04313 0.0
H392 H 0.07074 0.44417 0.05636 0.0
H393 H 0.1013 0.51521 0.95719 0.0
H394 H 0.98649 0.45286 0.04218 0.0
H395 H 0.9983 0.48043 0.08664 0.0
H396 H 0.0171 0.4408 0.0831 0.0
H397 H 0.02226 0.53754 0.9192 0.0
H398 H 0.06443 0.5498 0.91945 0.0
H399 H 0.03641 0.56603 0.96109 0.0
C400 C 0.46526 0.95065 0.54085 0.0
C401 C 0.48009 0.9266 0.51391 0.0
C402 C 0.47636 0.98304 0.53988 0.0
C403 C 0.50221 0.99175 0.51014 0.0
C404 C 0.51635 0.96777 0.48146 0.0
C405 C 0.5055 0.93536 0.48428 0.0
C406 C 0.46118 1.00766 0.57186 0.0
C407 C 0.5432 0.97627 0.44821 0.0
C408 C 0.51139 0.08238 0.48573 0.0
C409 C 0.5374 0.09081 0.51454 0.0
C410 C 0.50044 0.05001 0.48267 0.0
C411 C 0.51513 0.02571 0.51027 0.0
C412 C 0.54159 0.03409 0.53916 0.0
C413 C 0.55274 0.06646 0.54038 0.0
C414 C 0.4729 0.04189 0.45033 0.0
C415 C 0.5574 0.00911 0.56998 0.0
H416 H 0.44584 0.94386 0.56413 0.0
H417 H 0.51687 0.91681 0.46322 0.0
H418 H 0.48002 0.01758 0.59533 0.0
H419 H 0.45125 0.02845 0.55199 0.0
H420 H 0.44128 0.99699 0.59281 0.0
H421 H 0.54978 0.9554 0.42578 0.0
H422 H 0.5357 0.99706 0.42627 0.0
H423 H 0.56521 0.984 0.46737 0.0
H424 H 0.49962 0.10115 0.4655 0.0
H425 H 0.57263 0.07298 0.56304 0.0
H426 H 0.4513 0.03393 0.47019 0.0
H427 H 0.47993 0.02136 0.42763 0.0
H428 H 0.46585 0.06301 0.42865 0.0
H429 H 0.53904 0.99892 0.59394 0.0
H430 H 0.57771 0.01956 0.59041 0.0
H431 H 0.56693 0.98856 0.54927 0.0
C432 C 0.06418 0.55529 0.52216 0.0
C433 C 0.08915 0.54126 0.54825 0.0
C434 C 0.0324 0.5427 0.5237 0.0
C435 C 0.02527 0.51608 0.55305 0.0
C436 C 0.05009 0.50292 0.58116 0.0
C437 C 0.08185 0.51533 0.57787 0.0
C438 C 1.00679 0.557 0.49249 0.0
C439 C 0.04328 0.47527 0.61397 0.0
C440 C 0.93555 0.50199 0.57761 0.0
C441 C 0.92824 0.47622 0.54768 0.0
C442 C 0.96732 0.51433 0.58112 0.0
C443 C 0.99215 0.50129 0.55295 0.0
C444 C 0.985 0.47483 0.5233 0.0
C445 C 0.9532 0.4623 0.52153 0.0
C446 C 0.97415 0.5418 0.61424 0.0
C447 C 0.01062 0.46066 0.49202 0.0
H448 H 0.06983 0.5751 0.49886 0.0
H449 H 0.1011 0.50454 0.59827 0.0
H450 H 0.9979 0.538 0.46844 0.0
H451 H 0.98561 0.56534 0.51288 0.0
H452 H 0.01614 0.57791 0.47216 0.0
H453 H 0.06448 0.46977 0.6363 0.0
H454 H 0.02212 0.48128 0.63603 0.0
H455 H 0.03693 0.45296 0.59442 0.0
H456 H 0.9163 0.5127 0.59806 0.0
H457 H 0.94754 0.44261 0.49802 0.0
H458 H 0.98049 0.56422 0.59494 0.0
H459 H 0.9953 0.53567 0.63627 0.0
H460 H 0.95294 0.54719 0.6366 0.0
H461 H 0.01951 0.47976 0.46815 0.0
H462 H 1.00127 0.43984 0.4715 0.0
H463 H 0.0318 0.45223 0.51237 0.0
C464 C 0.51365 0.93594 0.07408 0.0
C465 C 0.53951 0.92833 0.04464 0.0
C466 C 0.50192 0.96799 0.07766 0.0
C467 C 0.51565 0.99276 0.04991 0.0
C468 C 0.54204 0.98523 0.02048 0.0
C469 C 0.554 0.95319 0.01878 0.0
C470 C 0.47453 0.97523 0.11059 0.0
C471 C 0.55682 0.01073 0.98947 0.0
C472 C 0.46343 0.06611 0.01935 0.0
C473 C 0.47792 0.09077 0.04561 0.0
C474 C 0.47533 0.03404 0.02069 0.0
C475 C 0.50165 0.02626 0.05014 0.0
C476 C 0.51536 0.05081 0.07832 0.0
C477 C 0.50371 0.08291 0.0751 0.0
C478 C 0.46057 0.00879 0.98923 0.0
C479 C 0.54268 0.0433 0.11129 0.0
H480 H 0.50254 0.91675 0.09431 0.0
H481 H 0.57378 0.94729 0.99564 0.0
H482 H 0.48109 0.99613 0.13295 0.0
H483 H 0.45241 0.98226 0.09118 0.0
H484 H 0.46854 0.95396 0.13262 0.0
H485 H 0.57731 1.00097 0.96877 0.0
H486 H 0.53798 0.0203 0.96575 0.0
H487 H 0.56585 0.03159 1.01005 0.0
H488 H 0.44372 0.07221 0.99617 0.0
H489 H 0.51482 0.10194 0.09564 0.0
H490 H 0.45155 0.98775 1.00944 0.0
H491 H 0.47944 0.99943 0.9654 0.0
H492 H 0.44009 0.01871 0.96865 0.0
H493 H 0.53608 0.02221 0.13325 0.0
H494 H 0.54862 0.06438 0.13371 0.0
H495 H 0.56484 0.03645 0.09189 0.0
C496 C 0.25138 0.34901 0.99342 0.0
C497 C 0.22441 0.34854 0.02285 0.0
C498 C 0.27374 0.32314 0.99283 0.0
C499 C 0.26909 0.29618 0.02252 0.0
C500 C 0.24114 0.29489 0.05079 0.0
C501 C 0.2191 0.32104 0.05054 0.0
C502 C 0.30308 0.32531 0.96183 0.0
C503 C 0.23528 0.26659 0.08286 0.0
C504 C 0.31947 0.22036 0.99817 0.0
C505 C 0.34624 0.22502 0.02739 0.0
C506 C 0.29368 0.24282 0.99708 0.0
C507 C 0.2946 0.2705 0.02605 0.0
C508 C 0.32082 0.27453 0.05708 0.0
C509 C 0.34634 0.2518 0.05731 0.0
C510 C 0.26614 0.23763 0.96357 0.0
C511 C 0.32257 0.30354 0.08889 0.0
H512 H 0.25565 0.37011 0.97184 0.0
H513 H 0.19834 0.32043 0.07343 0.0
H514 H 0.32546 0.32734 0.98293 0.0
H515 H 0.30529 0.30284 0.94089 0.0
H516 H 0.3019 0.34665 0.93842 0.0
H517 H 0.21107 0.2679 0.09966 0.0
H518 H 0.2371 0.24317 0.06402 0.0
H519 H 0.25427 0.26637 0.10993 0.0
H520 H 0.31921 0.1998 0.97483 0.0
H521 H 0.36686 0.25557 0.08007 0.0
H522 H 0.26655 0.25714 0.93721 0.0
H523 H 0.24239 0.23921 0.98146 0.0
H524 H 0.26773 0.21367 0.94597 0.0
H525 H 0.32486 0.32624 0.06846 0.0
H526 H 0.34353 0.30208 0.11288 0.0
H527 H 0.29987 0.30548 0.10926 0.0
C528 C 0.79721 0.31997 0.50206 0.0
C529 C 0.79232 0.34764 0.52957 0.0
C530 C 0.77482 0.29408 0.50207 0.0
C531 C 0.74693 0.29582 0.53041 0.0
C532 C 0.74263 0.32299 0.55979 0.0
C533 C 0.76533 0.34859 0.55896 0.0
C534 C 0.7803 0.26555 0.47029 0.0
C535 C 0.71336 0.32563 0.59085 0.0
C536 C 0.66912 0.25168 0.49718 0.0
C537 C 0.66911 0.22523 0.52766 0.0
C538 C 0.69486 0.27419 0.49665 0.0
C539 C 0.72122 0.27026 0.52749 0.0
C540 C 0.72203 0.24285 0.55698 0.0
C541 C 0.69601 0.22062 0.55664 0.0
C542 C 0.69321 0.3029 0.46431 0.0
C543 C 0.74971 0.23777 0.59029 0.0
H544 H 0.81797 0.319 0.47919 0.0
H545 H 0.76137 0.36981 0.58038 0.0
H546 H 0.77844 0.24227 0.48948 0.0
H547 H 0.76115 0.26524 0.44345 0.0
H548 H 0.80442 0.26661 0.45319 0.0
H549 H 0.71471 0.3472 0.61382 0.0
H550 H 0.69094 0.32754 0.5698 0.0
H551 H 0.71105 0.3034 0.61226 0.0
H552 H 0.64849 0.25541 0.47461 0.0
H553 H 0.69621 0.2003 0.5804 0.0
H554 H 0.71588 0.30455 0.4438 0.0
H555 H 0.69111 0.32581 0.48434 0.0
H556 H 0.67218 0.30131 0.44046 0.0
H557 H 0.77338 0.23904 0.57214 0.0
H558 H 0.74802 0.21397 0.60831 0.0
H559 H 0.74958 0.2575 0.61633 0.0
C560 C 0.79782 0.69781 0.04959 0.0
C561 C 0.79269 0.67025 0.02194 0.0
C562 C 0.77574 0.72392 0.04951 0.0
C563 C 0.74793 0.72254 0.02094 0.0
C564 C 0.74345 0.69552 0.99132 0.0
C565 C 0.76584 0.66967 0.99225 0.0
C566 C 0.78142 0.75229 0.08154 0.0
C567 C 0.71426 0.69325 0.96001 0.0
C568 C 0.6706 0.76707 0.05493 0.0
C569 C 0.67089 0.79386 0.02504 0.0
C570 C 0.69605 0.74426 0.0549 0.0
C571 C 0.72239 0.74822 0.02409 0.0
C572 C 0.72346 0.77588 0.99508 0.0
C573 C 0.69774 0.79842 0.99599 0.0
C574 C 0.69413 0.71527 0.08672 0.0
C575 C 0.75113 0.78098 0.96179 0.0
H576 H 0.81849 0.6985 0.07268 0.0
H577 H 0.76171 0.64853 0.9707 0.0
H578 H 0.77974 0.77566 0.06256 0.0
H579 H 0.76226 0.75259 0.10834 0.0
H580 H 0.80552 0.75101 0.09868 0.0
H581 H 0.71557 0.67187 0.93669 0.0
H582 H 0.69178 0.69125 0.98086 0.0
H583 H 0.71212 0.71567 0.93895 0.0
H584 H 0.65001 0.76337 0.07755 0.0
H585 H 0.69814 0.81899 0.97266 0.0
H586 H 0.71672 0.71337 0.10739 0.0
H587 H 0.69198 0.69254 0.0663 0.0
H588 H 0.67303 0.71674 0.11044 0.0
H589 H 0.77481 0.77952 0.97993 0.0
H590 H 0.74957 0.80487 0.94399 0.0
H591 H 0.75087 0.76136 0.93559 0.0
C592 C 0.32164 0.79697 0.55566 0.0
C593 C 0.34834 0.79232 0.52636 0.0
C594 C 0.29556 0.77482 0.55625 0.0
C595 C 0.29611 0.74744 0.52671 0.0
C596 C 0.32223 0.74348 0.49552 0.0
C597 C 0.34804 0.76592 0.49578 0.0
C598 C 0.26814 0.77993 0.58993 0.0
C599 C 0.32359 0.71479 0.46311 0.0
C600 C 0.25216 0.66918 0.55888 0.0
C601 C 0.22495 0.67014 0.52988 0.0
C602 C 0.2749 0.69475 0.55935 0.0
C603 C 0.2704 0.7219 0.52999 0.0
C604 C 0.24228 0.72365 0.50207 0.0
C605 C 0.21987 0.69779 0.50241 0.0
C606 C 0.30443 0.69208 0.58997 0.0
C607 C 0.23657 0.75219 0.47036 0.0
H608 H 0.32167 0.81725 0.57948 0.0
H609 H 0.36851 0.76215 0.47296 0.0
H610 H 0.24433 0.77865 0.57211 0.0
H611 H 0.26847 0.76023 0.616 0.0
H612 H 0.26997 0.80375 0.60788 0.0
H613 H 0.34442 0.71639 0.43895 0.0
H614 H 0.32585 0.69187 0.48308 0.0
H615 H 0.30075 0.71317 0.44295 0.0
H616 H 0.25628 0.64796 0.58027 0.0
H617 H 0.19893 0.69877 0.47984 0.0
H618 H 0.30692 0.71431 0.61135 0.0
H619 H 0.32667 0.69016 0.56859 0.0
H620 H 0.30326 0.6705 0.61295 0.0
H621 H 0.23862 0.77547 0.4895 0.0
H622 H 0.21231 0.75114 0.45363 0.0
H623 H 0.2555 0.75247 0.44324 0.0
loop_
_geom_bond_atom_site_label_1
_geom_bond_atom_site_label_2
_geom_bond_distance
_geom_bond_site_symmetry_2
_ccdc_geom_bond_type
O0 Cd1 2.223 . S
O0 C8 1.315 . S
Cd1 O0 2.223 . S
Cd1 O4 2.297 . S
Cd1 O5 2.439 . S
Cd1 O11 2.240 . S
Cd2 O3 2.240 . S
Cd2 O10 2.223 . S
Cd2 O12 2.297 1_554 S
Cd2 O13 2.439 1_554 S
O3 Cd2 2.240 . S
O3 C8 1.279 . S
O4 Cd1 2.297 . S
O4 C6 1.247 . S
O5 Cd1 2.439 . S
O5 C6 1.208 . S
C6 O4 1.247 . S
C6 O5 1.208 . S
C7 O12 1.247 . S
C7 O13 1.208 . S
C8 O0 1.315 . S
C8 O3 1.279 . S
C9 O10 1.315 . S
C9 O11 1.279 . S
O10 Cd2 2.223 . S
O10 C9 1.315 . S
O11 Cd1 2.240 . S
O11 C9 1.279 . S
O12 Cd2 2.297 1_556 S
O12 C7 1.247 . S
O13 Cd2 2.439 1_556 S
O13 C7 1.208 . S
O14 Cd15 2.223 . S
O14 C22 1.315 . S
Cd15 O14 2.223 . S
Cd15 O18 2.297 . S
Cd15 O19 2.439 . S
Cd15 O25 2.240 . S
Cd16 O17 2.240 . S
Cd16 O24 2.223 . S
Cd16 O26 2.297 . S
Cd16 O27 2.439 . S
O17 Cd16 2.240 . S
O17 C22 1.279 . S
O18 Cd15 2.297 . S
O18 C20 1.247 . S
O19 Cd15 2.439 . S
O19 C20 1.208 . S
C20 O18 1.247 . S
C20 O19 1.208 . S
C21 O26 1.247 . S
C21 O27 1.208 . S
C22 O14 1.315 . S
C22 O17 1.279 . S
C23 O24 1.315 . S
C23 O25 1.279 . S
O24 Cd16 2.223 . S
O24 C23 1.315 . S
O25 Cd15 2.240 . S
O25 C23 1.279 . S
O26 Cd16 2.297 . S
O26 C21 1.247 . S
O27 Cd16 2.439 . S
O27 C21 1.208 . S
O28 Cd29 2.223 . S
O28 C36 1.315 . S
Cd29 O28 2.223 . S
Cd29 O32 2.297 . S
Cd29 O33 2.439 . S
Cd29 O39 2.240 . S
Cd30 O31 2.240 . S
Cd30 O38 2.223 . S
Cd30 O40 2.297 1_554 S
Cd30 O41 2.439 1_554 S
O31 Cd30 2.240 . S
O31 C36 1.279 . S
O32 Cd29 2.297 . S
O32 C34 1.247 . S
O33 Cd29 2.439 . S
O33 C34 1.208 . S
C34 O32 1.247 . S
C34 O33 1.208 . S
C35 O40 1.247 . S
C35 O41 1.208 . S
C36 O28 1.315 . S
C36 O31 1.279 . S
C37 O38 1.315 . S
C37 O39 1.279 . S
O38 Cd30 2.223 . S
O38 C37 1.315 . S
O39 Cd29 2.240 . S
O39 C37 1.279 . S
O40 Cd30 2.297 1_556 S
O40 C35 1.247 . S
O41 Cd30 2.439 1_556 S
O41 C35 1.208 . S
O42 Cd43 2.223 . S
O42 C50 1.315 . S
Cd43 O42 2.223 . S
Cd43 O46 2.297 . S
Cd43 O47 2.439 . S
Cd43 O53 2.240 . S
Cd44 O45 2.240 . S
Cd44 O52 2.223 . S
Cd44 O54 2.297 . S
Cd44 O55 2.439 . S
O45 Cd44 2.240 . S
O45 C50 1.279 . S
O46 Cd43 2.297 . S
O46 C48 1.247 . S
O47 Cd43 2.439 . S
O47 C48 1.208 . S
C48 O46 1.247 . S
C48 O47 1.208 . S
C49 O54 1.247 . S
C49 O55 1.208 . S
C50 O42 1.315 . S
C50 O45 1.279 . S
C51 O52 1.315 . S
C51 O53 1.279 . S
O52 Cd44 2.223 . S
O52 C51 1.315 . S
O53 Cd43 2.240 . S
O53 C51 1.279 . S
O54 Cd44 2.297 . S
O54 C49 1.247 . S
O55 Cd44 2.439 . S
O55 C49 1.208 . S
O56 Cd57 2.223 . S
O56 C64 1.315 . S
Cd57 O56 2.223 . S
Cd57 O60 2.297 . S
Cd57 O61 2.439 . S
Cd57 O67 2.240 . S
Cd58 O59 2.240 . S
Cd58 O66 2.223 . S
Cd58 O68 2.297 . S
Cd58 O69 2.439 . S
O59 Cd58 2.240 . S
O59 C64 1.279 . S
O60 Cd57 2.297 . S
O60 C62 1.247 . S
O61 Cd57 2.439 . S
O61 C62 1.208 . S
C62 O60 1.247 . S
C62 O61 1.208 . S
C63 O68 1.247 . S
C63 O69 1.208 . S
C64 O56 1.315 . S
C64 O59 1.279 . S
C65 O66 1.315 . S
C65 O67 1.279 . S
O66 Cd58 2.223 . S
O66 C65 1.315 . S
O67 Cd57 2.240 . S
O67 C65 1.279 . S
O68 Cd58 2.297 . S
O68 C63 1.247 . S
O69 Cd58 2.439 . S
O69 C63 1.208 . S
O70 Cd71 2.223 . S
O70 C78 1.315 . S
Cd71 O70 2.223 . S
Cd71 O74 2.297 . S
Cd71 O75 2.439 1_556 S
Cd71 O81 2.240 1_556 S
Cd72 O73 2.240 1_554 S
Cd72 O80 2.223 . S
Cd72 O82 2.297 . S
Cd72 O83 2.439 . S
O73 Cd72 2.240 1_556 S
O73 C78 1.279 . S
O74 Cd71 2.297 . S
O74 C76 1.247 . S
O75 Cd71 2.439 1_554 S
O75 C76 1.208 1_554 S
C76 O74 1.247 . S
C76 O75 1.208 1_556 S
C77 O82 1.247 . S
C77 O83 1.208 . S
C78 O70 1.315 . S
C78 O73 1.279 . S
C79 O80 1.315 . S
C79 O81 1.279 . S
O80 Cd72 2.223 . S
O80 C79 1.315 . S
O81 Cd71 2.240 1_554 S
O81 C79 1.279 . S
O82 Cd72 2.297 . S
O82 C77 1.247 . S
O83 Cd72 2.439 . S
O83 C77 1.208 . S
O84 Cd85 2.223 . S
O84 C92 1.315 . S
Cd85 O84 2.223 . S
Cd85 O88 2.297 . S
Cd85 O89 2.439 . S
Cd85 O95 2.240 . S
Cd86 O87 2.240 . S
Cd86 O94 2.223 . S
Cd86 O96 2.297 . S
Cd86 O97 2.439 . S
O87 Cd86 2.240 . S
O87 C92 1.279 . S
O88 Cd85 2.297 . S
O88 C90 1.247 . S
O89 Cd85 2.439 . S
O89 C90 1.208 . S
C90 O88 1.247 . S
C90 O89 1.208 . S
C91 O96 1.247 . S
C91 O97 1.208 . S
C92 O84 1.315 . S
C92 O87 1.279 . S
C93 O94 1.315 . S
C93 O95 1.279 . S
O94 Cd86 2.223 . S
O94 C93 1.315 . S
O95 Cd85 2.240 . S
O95 C93 1.279 . S
O96 Cd86 2.297 . S
O96 C91 1.247 . S
O97 Cd86 2.439 . S
O97 C91 1.208 . S
O98 Cd99 2.223 . S
O98 C106 1.315 . S
Cd99 O98 2.223 . S
Cd99 O102 2.297 . S
Cd99 O103 2.439 1_556 S
Cd99 O109 2.240 1_556 S
Cd100 O101 2.240 1_554 S
Cd100 O108 2.223 . S
Cd100 O110 2.297 . S
Cd100 O111 2.439 . S
O101 Cd100 2.240 1_556 S
O101 C106 1.279 . S
O102 Cd99 2.297 . S
O102 C104 1.247 . S
O103 Cd99 2.439 1_554 S
O103 C104 1.208 1_554 S
C104 O102 1.247 . S
C104 O103 1.208 1_556 S
C105 O110 1.247 . S
C105 O111 1.208 . S
C106 O98 1.315 . S
C106 O101 1.279 . S
C107 O108 1.315 . S
C107 O109 1.279 . S
O108 Cd100 2.223 . S
O108 C107 1.315 . S
O109 Cd99 2.240 1_554 S
O109 C107 1.279 . S
O110 Cd100 2.297 . S
O110 C105 1.247 . S
O111 Cd100 2.439 . S
O111 C105 1.208 . S
C112 C113 1.391 . S
C112 C114 1.394 . S
C112 H128 0.931 . S
C113 C112 1.391 . S
C113 C117 1.376 . S
C114 C112 1.394 . S
C114 C115 1.369 . S
C114 C118 1.531 . S
C115 C114 1.369 . S
C115 C116 1.410 . S
C115 C123 1.503 . S
C116 C115 1.410 . S
C116 C117 1.392 . S
C116 C119 1.511 . S
C117 C113 1.376 . S
C117 C116 1.392 . S
C117 H129 0.929 . S
C118 C114 1.531 . S
C118 H130 0.960 . S
C118 H131 0.962 . S
C118 H132 0.960 . S
C119 C116 1.511 . S
C119 H133 0.961 . S
C119 H134 0.961 . S
C119 H135 0.961 . S
C120 C121 1.370 . S
C120 C122 1.363 . S
C120 H136 0.931 . S
C121 C120 1.370 . S
C121 C125 1.408 . S
C122 C120 1.363 . S
C122 C123 1.370 . S
C122 C126 1.524 . S
C123 C115 1.503 . S
C123 C122 1.370 . S
C123 C124 1.403 . S
C124 C123 1.403 . S
C124 C125 1.404 . S
C124 C127 1.539 . S
C125 C121 1.408 . S
C125 C124 1.404 . S
C125 H137 0.930 . S
C126 C122 1.524 . S
C126 H138 0.956 . S
C126 H139 0.961 . S
C126 H140 0.961 . S
C127 C124 1.539 . S
C127 H141 0.958 . S
C127 H142 0.961 . S
C127 H143 0.960 . S
H128 C112 0.931 . S
H129 C117 0.929 . S
H130 C118 0.960 . S
H131 C118 0.962 . S
H132 C118 0.960 . S
H133 C119 0.961 . S
H134 C119 0.961 . S
H135 C119 0.961 . S
H136 C120 0.931 . S
H137 C125 0.930 . S
H138 C126 0.956 . S
H139 C126 0.961 . S
H140 C126 0.961 . S
H141 C127 0.958 . S
H142 C127 0.961 . S
H143 C127 0.960 . S
C144 C145 1.391 . S
C144 C146 1.394 . S
C144 H160 0.931 . S
C145 C144 1.391 . S
C145 C149 1.376 . S
C146 C144 1.394 . S
C146 C147 1.369 . S
C146 C150 1.531 . S
C147 C146 1.369 . S
C147 C148 1.410 . S
C147 C155 1.503 . S
C148 C147 1.410 . S
C148 C149 1.392 . S
C148 C151 1.511 . S
C149 C145 1.376 . S
C149 C148 1.392 . S
C149 H161 0.929 . S
C150 C146 1.531 . S
C150 H162 0.960 . S
C150 H163 0.962 . S
C150 H164 0.960 . S
C151 C148 1.511 . S
C151 H165 0.961 . S
C151 H166 0.961 . S
C151 H167 0.961 . S
C152 C153 1.370 . S
C152 C154 1.363 . S
C152 H168 0.931 . S
C153 C152 1.370 . S
C153 C157 1.408 . S
C154 C152 1.363 . S
C154 C155 1.370 . S
C154 C158 1.524 . S
C155 C147 1.503 . S
C155 C154 1.370 . S
C155 C156 1.403 . S
C156 C155 1.403 . S
C156 C157 1.404 . S
C156 C159 1.539 . S
C157 C153 1.408 . S
C157 C156 1.404 . S
C157 H169 0.930 . S
C158 C154 1.524 . S
C158 H170 0.956 . S
C158 H171 0.961 . S
C158 H172 0.961 . S
C159 C156 1.539 . S
C159 H173 0.958 . S
C159 H174 0.961 . S
C159 H175 0.960 . S
H160 C144 0.931 . S
H161 C149 0.929 . S
H162 C150 0.960 . S
H163 C150 0.962 . S
H164 C150 0.960 . S
H165 C151 0.961 . S
H166 C151 0.961 . S
H167 C151 0.961 . S
H168 C152 0.931 . S
H169 C157 0.930 . S
H170 C158 0.956 . S
H171 C158 0.961 . S
H172 C158 0.961 . S
H173 C159 0.958 . S
H174 C159 0.961 . S
H175 C159 0.960 . S
C176 C177 1.391 . S
C176 C178 1.394 . S
C176 H192 0.931 . S
C177 C176 1.391 . S
C177 C181 1.376 . S
C178 C176 1.394 . S
C178 C179 1.369 . S
C178 C182 1.531 . S
C179 C178 1.369 . S
C179 C180 1.410 . S
C179 C187 1.503 . S
C180 C179 1.410 . S
C180 C181 1.392 . S
C180 C183 1.511 . S
C181 C177 1.376 . S
C181 C180 1.392 . S
C181 H193 0.929 . S
C182 C178 1.531 . S
C182 H194 0.960 . S
C182 H195 0.962 . S
C182 H196 0.960 . S
C183 C180 1.511 . S
C183 H197 0.961 . S
C183 H198 0.961 . S
C183 H199 0.961 . S
C184 C185 1.370 . S
C184 C186 1.363 . S
C184 H200 0.931 . S
C185 C184 1.370 . S
C185 C189 1.408 . S
C186 C184 1.363 . S
C186 C187 1.370 . S
C186 C190 1.524 . S
C187 C179 1.503 . S
C187 C186 1.370 . S
C187 C188 1.403 . S
C188 C187 1.403 . S
C188 C189 1.404 . S
C188 C191 1.539 . S
C189 C185 1.408 . S
C189 C188 1.404 . S
C189 H201 0.930 . S
C190 C186 1.524 . S
C190 H202 0.956 . S
C190 H203 0.961 . S
C190 H204 0.961 . S
C191 C188 1.539 . S
C191 H205 0.958 . S
C191 H206 0.961 . S
C191 H207 0.960 . S
H192 C176 0.931 . S
H193 C181 0.929 . S
H194 C182 0.960 . S
H195 C182 0.962 . S
H196 C182 0.960 . S
H197 C183 0.961 . S
H198 C183 0.961 . S
H199 C183 0.961 . S
H200 C184 0.931 . S
H201 C189 0.930 . S
H202 C190 0.956 . S
H203 C190 0.961 . S
H204 C190 0.961 . S
H205 C191 0.958 . S
H206 C191 0.961 . S
H207 C191 0.960 . S
C208 C209 1.391 . S
C208 C210 1.394 . S
C208 H224 0.931 . S
C209 C208 1.391 . S
C209 C213 1.376 . S
C210 C208 1.394 . S
C210 C211 1.369 . S
C210 C214 1.531 . S
C211 C210 1.369 . S
C211 C212 1.410 . S
C211 C219 1.503 . S
C212 C211 1.410 . S
C212 C213 1.392 . S
C212 C215 1.511 . S
C213 C209 1.376 . S
C213 C212 1.392 . S
C213 H225 0.929 . S
C214 C210 1.531 . S
C214 H226 0.960 . S
C214 H227 0.962 . S
C214 H228 0.960 . S
C215 C212 1.511 . S
C215 H229 0.961 . S
C215 H230 0.961 . S
C215 H231 0.961 . S
C216 C217 1.370 . S
C216 C218 1.363 . S
C216 H232 0.931 . S
C217 C216 1.370 . S
C217 C221 1.408 . S
C218 C216 1.363 . S
C218 C219 1.370 . S
C218 C222 1.524 . S
C219 C211 1.503 . S
C219 C218 1.370 . S
C219 C220 1.403 . S
C220 C219 1.403 . S
C220 C221 1.404 . S
C220 C223 1.539 . S
C221 C217 1.408 . S
C221 C220 1.404 . S
C221 H233 0.930 . S
C222 C218 1.524 . S
C222 H234 0.956 . S
C222 H235 0.961 . S
C222 H236 0.961 . S
C223 C220 1.539 . S
C223 H237 0.958 . S
C223 H238 0.961 . S
C223 H239 0.960 . S
H224 C208 0.931 . S
H225 C213 0.929 . S
H226 C214 0.960 . S
H227 C214 0.962 . S
H228 C214 0.960 . S
H229 C215 0.961 . S
H230 C215 0.961 . S
H231 C215 0.961 . S
H232 C216 0.931 . S
H233 C221 0.930 . S
H234 C222 0.956 . S
H235 C222 0.961 . S
H236 C222 0.961 . S
H237 C223 0.958 . S
H238 C223 0.961 . S
H239 C223 0.960 . S
C240 C241 1.391 . S
C240 C242 1.394 . S
C240 H256 0.931 . S
C241 C240 1.391 . S
C241 C245 1.376 . S
C242 C240 1.394 . S
C242 C243 1.369 . S
C242 C246 1.531 . S
C243 C242 1.369 . S
C243 C244 1.410 . S
C243 C251 1.503 . S
C244 C243 1.410 . S
C244 C245 1.392 . S
C244 C247 1.511 . S
C245 C241 1.376 . S
C245 C244 1.392 . S
C245 H257 0.929 . S
C246 C242 1.531 . S
C246 H258 0.960 . S
C246 H259 0.962 . S
C246 H260 0.960 . S
C247 C244 1.511 . S
C247 H261 0.961 . S
C247 H262 0.961 . S
C247 H263 0.961 . S
C248 C249 1.370 . S
C248 C250 1.363 . S
C248 H264 0.931 . S
C249 C248 1.370 . S
C249 C253 1.408 . S
C250 C248 1.363 . S
C250 C251 1.370 . S
C250 C254 1.524 . S
C251 C243 1.503 . S
C251 C250 1.370 . S
C251 C252 1.403 . S
C252 C251 1.403 . S
C252 C253 1.404 . S
C252 C255 1.539 . S
C253 C249 1.408 . S
C253 C252 1.404 . S
C253 H265 0.930 . S
C254 C250 1.524 . S
C254 H266 0.956 . S
C254 H267 0.961 . S
C254 H268 0.961 . S
C255 C252 1.539 . S
C255 H269 0.958 . S
C255 H270 0.961 . S
C255 H271 0.960 . S
H256 C240 0.931 . S
H257 C245 0.929 . S
H258 C246 0.960 . S
H259 C246 0.962 . S
H260 C246 0.960 . S
H261 C247 0.961 . S
H262 C247 0.961 . S
H263 C247 0.961 . S
H264 C248 0.931 . S
H265 C253 0.930 . S
H266 C254 0.956 . S
H267 C254 0.961 . S
H268 C254 0.961 . S
H269 C255 0.958 . S
H270 C255 0.961 . S
H271 C255 0.960 . S
C272 C273 1.391 . S
C272 C274 1.394 . S
C272 H288 0.931 . S
C273 C272 1.391 . S
C273 C277 1.376 . S
C274 C272 1.394 . S
C274 C275 1.369 . S
C274 C278 1.531 . S
C275 C274 1.369 . S
C275 C276 1.410 . S
C275 C283 1.503 . S
C276 C275 1.410 . S
C276 C277 1.392 . S
C276 C279 1.511 . S
C277 C273 1.376 . S
C277 C276 1.392 . S
C277 H289 0.929 . S
C278 C274 1.531 . S
C278 H290 0.960 . S
C278 H291 0.962 . S
C278 H292 0.960 . S
C279 C276 1.511 . S
C279 H293 0.961 . S
C279 H294 0.961 . S
C279 H295 0.961 . S
C280 C281 1.370 . S
C280 C282 1.363 . S
C280 H296 0.931 . S
C281 C280 1.370 . S
C281 C285 1.408 . S
C282 C280 1.363 . S
C282 C283 1.370 . S
C282 C286 1.524 . S
C283 C275 1.503 . S
C283 C282 1.370 . S
C283 C284 1.403 . S
C284 C283 1.403 . S
C284 C285 1.404 . S
C284 C287 1.539 . S
C285 C281 1.408 . S
C285 C284 1.404 . S
C285 H297 0.930 . S
C286 C282 1.524 . S
C286 H298 0.956 . S
C286 H299 0.961 . S
C286 H300 0.961 . S
C287 C284 1.539 . S
C287 H301 0.958 . S
C287 H302 0.961 . S
C287 H303 0.960 . S
H288 C272 0.931 . S
H289 C277 0.929 . S
H290 C278 0.960 . S
H291 C278 0.962 . S
H292 C278 0.960 . S
H293 C279 0.961 . S
H294 C279 0.961 . S
H295 C279 0.961 . S
H296 C280 0.931 . S
H297 C285 0.930 . S
H298 C286 0.956 . S
H299 C286 0.961 . S
H300 C286 0.961 . S
H301 C287 0.958 . S
H302 C287 0.961 . S
H303 C287 0.960 . S
C304 C305 1.391 . S
C304 C306 1.394 . S
C304 H320 0.931 . S
C305 C304 1.391 . S
C305 C309 1.376 . S
C306 C304 1.394 . S
C306 C307 1.369 . S
C306 C310 1.531 . S
C307 C306 1.369 . S
C307 C308 1.410 . S
C307 C315 1.503 . S
C308 C307 1.410 . S
C308 C309 1.392 . S
C308 C311 1.511 . S
C309 C305 1.376 . S
C309 C308 1.392 . S
C309 H321 0.929 . S
C310 C306 1.531 . S
C310 H322 0.960 . S
C310 H323 0.962 . S
C310 H324 0.960 . S
C311 C308 1.511 . S
C311 H325 0.961 . S
C311 H326 0.961 . S
C311 H327 0.961 . S
C312 C313 1.370 . S
C312 C314 1.363 . S
C312 H328 0.931 . S
C313 C312 1.370 . S
C313 C317 1.408 . S
C314 C312 1.363 . S
C314 C315 1.370 . S
C314 C318 1.524 . S
C315 C307 1.503 . S
C315 C314 1.370 . S
C315 C316 1.403 . S
C316 C315 1.403 . S
C316 C317 1.404 . S
C316 C319 1.539 . S
C317 C313 1.408 . S
C317 C316 1.404 . S
C317 H329 0.930 . S
C318 C314 1.524 . S
C318 H330 0.956 . S
C318 H331 0.961 . S
C318 H332 0.961 . S
C319 C316 1.539 . S
C319 H333 0.958 . S
C319 H334 0.961 . S
C319 H335 0.960 . S
H320 C304 0.931 . S
H321 C309 0.929 . S
H322 C310 0.960 . S
H323 C310 0.962 . S
H324 C310 0.960 . S
H325 C311 0.961 . S
H326 C311 0.961 . S
H327 C311 0.961 . S
H328 C312 0.931 . S
H329 C317 0.930 . S
H330 C318 0.956 . S
H331 C318 0.961 . S
H332 C318 0.961 . S
H333 C319 0.958 . S
H334 C319 0.961 . S
H335 C319 0.960 . S
C336 C337 1.391 . S
C336 C338 1.394 . S
C336 H352 0.931 . S
C337 C336 1.391 . S
C337 C341 1.376 . S
C338 C336 1.394 . S
C338 C339 1.369 . S
C338 C342 1.531 . S
C339 C338 1.369 . S
C339 C340 1.410 . S
C339 C347 1.503 . S
C340 C339 1.410 . S
C340 C341 1.392 . S
C340 C343 1.511 . S
C341 C337 1.376 . S
C341 C340 1.392 . S
C341 H353 0.929 . S
C342 C338 1.531 . S
C342 H354 0.960 . S
C342 H355 0.962 . S
C342 H356 0.960 . S
C343 C340 1.511 . S
C343 H357 0.961 . S
C343 H358 0.961 . S
C343 H359 0.961 . S
C344 C345 1.370 . S
C344 C346 1.363 . S
C344 H360 0.931 . S
C345 C344 1.370 . S
C345 C349 1.408 . S
C346 C344 1.363 . S
C346 C347 1.370 . S
C346 C350 1.524 . S
C347 C339 1.503 . S
C347 C346 1.370 . S
C347 C348 1.403 . S
C348 C347 1.403 . S
C348 C349 1.404 . S
C348 C351 1.539 . S
C349 C345 1.408 . S
C349 C348 1.404 . S
C349 H361 0.930 . S
C350 C346 1.524 . S
C350 H362 0.956 . S
C350 H363 0.961 . S
C350 H364 0.961 . S
C351 C348 1.539 . S
C351 H365 0.958 . S
C351 H366 0.961 . S
C351 H367 0.960 . S
H352 C336 0.931 . S
H353 C341 0.929 . S
H354 C342 0.960 . S
H355 C342 0.962 . S
H356 C342 0.960 . S
H357 C343 0.961 . S
H358 C343 0.961 . S
H359 C343 0.961 . S
H360 C344 0.931 . S
H361 C349 0.930 . S
H362 C350 0.956 . S
H363 C350 0.961 . S
H364 C350 0.961 . S
H365 C351 0.958 . S
H366 C351 0.961 . S
H367 C351 0.960 . S
C368 C369 1.391 1_556 S
C368 C370 1.394 . S
C368 H384 0.931 . S
C369 C368 1.391 1_554 S
C369 C373 1.376 . S
C370 C368 1.394 . S
C370 C371 1.369 1_556 S
C370 C374 1.531 . S
C371 C370 1.369 1_554 S
C371 C372 1.410 . S
C371 C379 1.503 1_655 S
C372 C371 1.410 . S
C372 C373 1.392 . S
C372 C375 1.511 . S
C373 C369 1.376 . S
C373 C372 1.392 . S
C373 H385 0.929 . S
C374 C370 1.531 . S
C374 H386 0.960 1_655 S
C374 H387 0.962 . S
C374 H388 0.960 . S
C375 C372 1.511 . S
C375 H389 0.961 . S
C375 H390 0.961 1_655 S
C375 H391 0.961 1_655 S
C376 C377 1.370 . S
C376 C378 1.363 . S
C376 H392 0.931 . S
C377 C376 1.370 . S
C377 C381 1.408 . S
C378 C376 1.363 . S
C378 C379 1.370 . S
C378 C382 1.524 1_455 S
C379 C371 1.503 1_455 S
C379 C378 1.370 . S
C379 C380 1.403 . S
C380 C379 1.403 . S
C380 C381 1.404 . S
C380 C383 1.539 . S
C381 C377 1.408 . S
C381 C380 1.404 . S
C381 H393 0.930 . S
C382 C378 1.524 1_655 S
C382 H394 0.956 . S
C382 H395 0.961 . S
C382 H396 0.961 . S
C383 C380 1.539 . S
C383 H397 0.958 1_554 S
C383 H398 0.961 . S
C383 H399 0.960 . S
H384 C368 0.931 . S
H385 C373 0.929 . S
H386 C374 0.960 1_455 S
H387 C374 0.962 . S
H388 C374 0.960 . S
H389 C375 0.961 . S
H390 C375 0.961 1_455 S
H391 C375 0.961 1_455 S
H392 C376 0.931 . S
H393 C381 0.930 . S
H394 C382 0.956 . S
H395 C382 0.961 . S
H396 C382 0.961 . S
H397 C383 0.958 1_556 S
H398 C383 0.961 . S
H399 C383 0.960 . S
C400 C401 1.391 . S
C400 C402 1.394 . S
C400 H416 0.931 . S
C401 C400 1.391 . S
C401 C405 1.376 . S
C402 C400 1.394 . S
C402 C403 1.369 . S
C402 C406 1.531 . S
C403 C402 1.369 . S
C403 C404 1.410 . S
C403 C411 1.503 1_565 S
C404 C403 1.410 . S
C404 C405 1.392 . S
C404 C407 1.511 . S
C405 C401 1.376 . S
C405 C404 1.392 . S
C405 H417 0.929 . S
C406 C402 1.531 . S
C406 H418 0.960 1_565 S
C406 H419 0.962 1_565 S
C406 H420 0.960 . S
C407 C404 1.511 . S
C407 H421 0.961 . S
C407 H422 0.961 . S
C407 H423 0.961 . S
C408 C409 1.370 . S
C408 C410 1.363 . S
C408 H424 0.931 . S
C409 C408 1.370 . S
C409 C413 1.408 . S
C410 C408 1.363 . S
C410 C411 1.370 . S
C410 C414 1.524 . S
C411 C403 1.503 1_545 S
C411 C410 1.370 . S
C411 C412 1.403 . S
C412 C411 1.403 . S
C412 C413 1.404 . S
C412 C415 1.539 1_545 S
C413 C409 1.408 . S
C413 C412 1.404 . S
C413 H425 0.930 . S
C414 C410 1.524 . S
C414 H426 0.956 . S
C414 H427 0.961 . S
C414 H428 0.961 . S
C415 C412 1.539 1_565 S
C415 H429 0.958 . S
C415 H430 0.961 . S
C415 H431 0.960 . S
H416 C400 0.931 . S
H417 C405 0.929 . S
H418 C406 0.960 1_545 S
H419 C406 0.962 1_545 S
H420 C406 0.960 . S
H421 C407 0.961 . S
H422 C407 0.961 . S
H423 C407 0.961 . S
H424 C408 0.931 . S
H425 C413 0.930 . S
H426 C414 0.956 . S
H427 C414 0.961 . S
H428 C414 0.961 . S
H429 C415 0.958 . S
H430 C415 0.961 . S
H431 C415 0.960 . S
C432 C433 1.391 . S
C432 C434 1.394 . S
C432 H448 0.931 . S
C433 C432 1.391 . S
C433 C437 1.376 . S
C434 C432 1.394 . S
C434 C435 1.369 . S
C434 C438 1.531 . S
C435 C434 1.369 . S
C435 C436 1.410 . S
C435 C443 1.503 1_455 S
C436 C435 1.410 . S
C436 C437 1.392 . S
C436 C439 1.511 . S
C437 C433 1.376 . S
C437 C436 1.392 . S
C437 H449 0.929 . S
C438 C434 1.531 . S
C438 H450 0.968 . S
C438 H451 0.951 1_455 S
C438 H452 0.960 . S
C439 C436 1.511 . S
C439 H453 0.961 . S
C439 H454 0.961 . S
C439 H455 0.961 . S
C440 C441 1.370 . S
C440 C442 1.363 . S
C440 H456 0.931 . S
C441 C440 1.370 . S
C441 C445 1.408 . S
C442 C440 1.363 . S
C442 C443 1.370 . S
C442 C446 1.524 . S
C443 C435 1.503 1_655 S
C443 C442 1.370 . S
C443 C444 1.403 . S
C444 C443 1.403 . S
C444 C445 1.404 . S
C444 C447 1.539 1_655 S
C445 C441 1.408 . S
C445 C444 1.404 . S
C445 H457 0.930 . S
C446 C442 1.524 . S
C446 H458 0.956 . S
C446 H459 0.961 . S
C446 H460 0.961 . S
C447 C444 1.539 1_455 S
C447 H461 0.958 . S
C447 H462 0.961 . S
C447 H463 0.960 . S
H448 C432 0.931 . S
H449 C437 0.929 . S
H450 C438 0.968 . S
H451 C438 0.951 1_655 S
H452 C438 0.960 . S
H453 C439 0.961 . S
H454 C439 0.961 . S
H455 C439 0.961 . S
H456 C440 0.931 . S
H457 C445 0.930 . S
H458 C446 0.956 . S
H459 C446 0.961 . S
H460 C446 0.961 . S
H461 C447 0.958 . S
H462 C447 0.961 . S
H463 C447 0.960 . S
C464 C465 1.391 . S
C464 C466 1.394 . S
C464 H480 0.931 . S
C465 C464 1.391 . S
C465 C469 1.376 1_554 S
C466 C464 1.394 . S
C466 C467 1.369 . S
C466 C470 1.531 . S
C467 C466 1.369 . S
C467 C468 1.410 1_554 S
C467 C475 1.503 1_565 S
C468 C467 1.410 1_556 S
C468 C469 1.392 . S
C468 C471 1.511 1_565 S
C469 C465 1.376 1_556 S
C469 C468 1.392 . S
C469 H481 0.929 . S
C470 C466 1.531 . S
C470 H482 0.960 . S
C470 H483 0.962 . S
C470 H484 0.960 . S
C471 C468 1.511 1_545 S
C471 H485 0.961 . S
C471 H486 0.961 . S
C471 H487 0.961 1_556 S
C472 C473 1.360 1_556 S
C472 C474 1.363 . S
C472 H488 0.931 . S
C473 C472 1.360 1_554 S
C473 C477 1.420 . S
C474 C472 1.363 . S
C474 C475 1.370 1_556 S
C474 C478 1.524 . S
C475 C467 1.503 1_545 S
C475 C474 1.370 1_554 S
C475 C476 1.403 . S
C476 C475 1.403 . S
C476 C477 1.404 . S
C476 C479 1.539 . S
C477 C473 1.420 . S
C477 C476 1.404 . S
C477 H489 0.930 . S
C478 C474 1.524 . S
C478 H490 0.956 1_545 S
C478 H491 0.952 1_545 S
C478 H492 0.961 . S
C479 C476 1.539 . S
C479 H493 0.958 . S
C479 H494 0.961 . S
C479 H495 0.960 . S
H480 C464 0.931 . S
H481 C469 0.929 . S
H482 C470 0.960 . S
H483 C470 0.962 . S
H484 C470 0.960 . S
H485 C471 0.961 . S
H486 C471 0.961 . S
H487 C471 0.961 1_554 S
H488 C472 0.931 . S
H489 C477 0.930 . S
H490 C478 0.956 1_565 S
H491 C478 0.952 1_565 S
H492 C478 0.961 . S
H493 C479 0.958 . S
H494 C479 0.961 . S
H495 C479 0.960 . S
C496 C497 1.391 . S
C496 C498 1.394 . S
C496 H512 0.931 . S
C497 C496 1.391 . S
C497 C501 1.376 . S
C498 C496 1.394 . S
C498 C499 1.369 . S
C498 C502 1.531 . S
C499 C498 1.369 . S
C499 C500 1.410 . S
C499 C507 1.503 . S
C500 C499 1.410 . S
C500 C501 1.392 . S
C500 C503 1.511 . S
C501 C497 1.376 . S
C501 C500 1.392 . S
C501 H513 0.929 . S
C502 C498 1.531 . S
C502 H514 0.960 . S
C502 H515 0.962 . S
C502 H516 0.960 . S
C503 C500 1.511 . S
C503 H517 0.961 . S
C503 H518 0.961 . S
C503 H519 0.961 . S
C504 C505 1.370 . S
C504 C506 1.363 . S
C504 H520 0.931 . S
C505 C504 1.370 . S
C505 C509 1.408 1_556 S
C506 C504 1.363 . S
C506 C507 1.370 1_556 S
C506 C510 1.524 . S
C507 C499 1.503 . S
C507 C506 1.370 1_554 S
C507 C508 1.403 . S
C508 C507 1.403 . S
C508 C509 1.404 . S
C508 C511 1.539 . S
C509 C505 1.408 1_554 S
C509 C508 1.404 . S
C509 H521 0.930 . S
C510 C506 1.524 . S
C510 H522 0.956 . S
C510 H523 0.961 . S
C510 H524 0.961 . S
C511 C508 1.539 . S
C511 H525 0.958 . S
C511 H526 0.961 . S
C511 H527 0.960 . S
H512 C496 0.931 . S
H513 C501 0.929 . S
H514 C502 0.960 . S
H515 C502 0.962 . S
H516 C502 0.960 . S
H517 C503 0.961 . S
H518 C503 0.961 . S
H519 C503 0.961 . S
H520 C504 0.931 . S
H521 C509 0.930 . S
H522 C510 0.956 . S
H523 C510 0.961 . S
H524 C510 0.961 . S
H525 C511 0.958 . S
H526 C511 0.961 . S
H527 C511 0.960 . S
C528 C529 1.391 . S
C528 C530 1.394 . S
C528 H544 0.931 . S
C529 C528 1.391 . S
C529 C533 1.376 . S
C530 C528 1.394 . S
C530 C531 1.369 . S
C530 C534 1.531 . S
C531 C530 1.369 . S
C531 C532 1.410 . S
C531 C539 1.503 . S
C532 C531 1.410 . S
C532 C533 1.392 . S
C532 C535 1.511 . S
C533 C529 1.376 . S
C533 C532 1.392 . S
C533 H545 0.929 . S
C534 C530 1.531 . S
C534 H546 0.960 . S
C534 H547 0.962 . S
C534 H548 0.960 . S
C535 C532 1.511 . S
C535 H549 0.961 . S
C535 H550 0.961 . S
C535 H551 0.961 . S
C536 C537 1.370 . S
C536 C538 1.363 . S
C536 H552 0.931 . S
C537 C536 1.370 . S
C537 C541 1.408 . S
C538 C536 1.363 . S
C538 C539 1.370 . S
C538 C542 1.524 . S
C539 C531 1.503 . S
C539 C538 1.370 . S
C539 C540 1.403 . S
C540 C539 1.403 . S
C540 C541 1.404 . S
C540 C543 1.539 . S
C541 C537 1.408 . S
C541 C540 1.404 . S
C541 H553 0.930 . S
C542 C538 1.524 . S
C542 H554 0.956 . S
C542 H555 0.961 . S
C542 H556 0.961 . S
C543 C540 1.539 . S
C543 H557 0.958 . S
C543 H558 0.961 . S
C543 H559 0.960 . S
H544 C528 0.931 . S
H545 C533 0.929 . S
H546 C534 0.960 . S
H547 C534 0.962 . S
H548 C534 0.960 . S
H549 C535 0.961 . S
H550 C535 0.961 . S
H551 C535 0.961 . S
H552 C536 0.931 . S
H553 C541 0.930 . S
H554 C542 0.956 . S
H555 C542 0.961 . S
H556 C542 0.961 . S
H557 C543 0.958 . S
H558 C543 0.961 . S
H559 C543 0.960 . S
C560 C561 1.391 . S
C560 C562 1.394 . S
C560 H576 0.931 . S
C561 C560 1.391 . S
C561 C565 1.376 1_554 S
C562 C560 1.394 . S
C562 C563 1.369 . S
C562 C566 1.531 . S
C563 C562 1.369 . S
C563 C564 1.410 1_554 S
C563 C571 1.503 . S
C564 C563 1.410 1_556 S
C564 C565 1.392 . S
C564 C567 1.511 . S
C565 C561 1.376 1_556 S
C565 C564 1.392 . S
C565 H577 0.929 . S
C566 C562 1.531 . S
C566 H578 0.960 . S
C566 H579 0.962 . S
C566 H580 0.960 . S
C567 C564 1.511 . S
C567 H581 0.961 . S
C567 H582 0.961 . S
C567 H583 0.961 . S
C568 C569 1.370 1_554 S
C568 C570 1.363 . S
C568 H584 0.931 . S
C569 C568 1.370 1_556 S
C569 C573 1.408 . S
C570 C568 1.363 . S
C570 C571 1.370 . S
C570 C574 1.524 . S
C571 C563 1.503 . S
C571 C570 1.370 . S
C571 C572 1.399 1_554 S
C572 C571 1.399 1_556 S
C572 C573 1.407 . S
C572 C575 1.542 . S
C573 C569 1.408 . S
C573 C572 1.407 . S
C573 H585 0.930 . S
C574 C570 1.524 . S
C574 H586 0.956 . S
C574 H587 0.960 . S
C574 H588 0.961 . S
C575 C572 1.542 . S
C575 H589 0.958 1_556 S
C575 H590 0.961 . S
C575 H591 0.960 . S
H576 C560 0.931 . S
H577 C565 0.929 . S
H578 C566 0.960 . S
H579 C566 0.962 . S
H580 C566 0.960 . S
H581 C567 0.961 . S
H582 C567 0.961 . S
H583 C567 0.961 . S
H584 C568 0.931 . S
H585 C573 0.930 . S
H586 C574 0.956 . S
H587 C574 0.960 . S
H588 C574 0.961 . S
H589 C575 0.958 1_554 S
H590 C575 0.961 . S
H591 C575 0.960 . S
C592 C593 1.391 . S
C592 C594 1.394 . S
C592 H608 0.931 . S
C593 C592 1.391 . S
C593 C597 1.376 . S
C594 C592 1.394 . S
C594 C595 1.369 . S
C594 C598 1.531 . S
C595 C594 1.369 . S
C595 C596 1.410 . S
C595 C603 1.503 . S
C596 C595 1.410 . S
C596 C597 1.392 . S
C596 C599 1.511 . S
C597 C593 1.376 . S
C597 C596 1.392 . S
C597 H609 0.929 . S
C598 C594 1.531 . S
C598 H610 0.960 . S
C598 H611 0.962 . S
C598 H612 0.960 . S
C599 C596 1.511 . S
C599 H613 0.961 . S
C599 H614 0.961 . S
C599 H615 0.961 . S
C600 C601 1.370 . S
C600 C602 1.363 . S
C600 H616 0.931 . S
C601 C600 1.370 . S
C601 C605 1.408 . S
C602 C600 1.363 . S
C602 C603 1.370 . S
C602 C606 1.524 . S
C603 C595 1.503 . S
C603 C602 1.370 . S
C603 C604 1.403 . S
C604 C603 1.403 . S
C604 C605 1.404 . S
C604 C607 1.539 . S
C605 C601 1.408 . S
C605 C604 1.404 . S
C605 H617 0.930 . S
C606 C602 1.524 . S
C606 H618 0.956 . S
C606 H619 0.961 . S
C606 H620 0.961 . S
C607 C604 1.539 . S
C607 H621 0.958 . S
C607 H622 0.961 . S
C607 H623 0.960 . S
H608 C592 0.931 . S
H609 C597 0.929 . S
H610 C598 0.960 . S
H611 C598 0.962 . S
H612 C598 0.960 . S
H613 C599 0.961 . S
H614 C599 0.961 . S
H615 C599 0.961 . S
H616 C600 0.931 . S
H617 C605 0.930 . S
H618 C606 0.956 . S
H619 C606 0.961 . S
H620 C606 0.961 . S
H621 C607 0.958 . S
H622 C607 0.961 . S
H623 C607 0.960 . S
C113 C8 1.705 . S
C121 C64 1.700 . S
C145 C22 1.705 . S
C153 C78 1.700 . S
C177 C92 1.714 . S
C185 C36 1.692 . S
C209 C106 1.676 . S
C217 C50 1.707 . S
C241 C91 1.049 . S
C249 C35 1.041 . S
C273 C105 1.031 . S
C281 C49 1.051 . S
C305 C7 1.041 . S
C313 C63 1.053 . S
C337 C21 1.032 . S
C345 C77 1.048 . S
C369 C37 1.319 . S
C377 C9 1.270 . S
C401 C51 1.251 . S
C409 C23 1.302 . S
C433 C65 1.248 . S
C441 C93 1.301 . S
C465 C107 1.279 . S
C473 C79 1.274 . S
C497 C6 1.462 . S
C505 C76 1.460 . S
C529 C90 1.446 . S
C537 C20 1.457 . S
C561 C34 1.446 . S
C569 C104 1.458 . S
C593 C48 1.446 . S
C601 C62 1.460 . S
