# Generated by pormake.
# Topology gis, (4)-cn, num edge types: 1
# Building blocks:
#     Node 0, Type 0, BuildingBlock: CEKHIL_clean_sbu_0, # of connection points: 4
#     Node 1, Type 0, BuildingBlock: CEKHIL_clean_sbu_0, # of connection points: 4
#     Node 2, Type 0, BuildingBlock: CEKHIL_clean_sbu_0, # of connection points: 4
#     Node 3, Type 0, BuildingBlock: CEKHIL_clean_sbu_0, # of connection points: 4
#     Node 4, Type 0, BuildingBlock: CEKHIL_clean_sbu_0, # of connection points: 4
#     Node 5, Type 0, BuildingBlock: CEKHIL_clean_sbu_0, # of connection points: 4
#     Node 6, Type 0, BuildingBlock: CEKHIL_clean_sbu_0, # of connection points: 4
#     Node 7, Type 0, BuildingBlock: CEKHIL_clean_sbu_0, # of connection points: 4
#     Node 8, Type 0, BuildingBlock: CEKHIL_clean_sbu_0, # of connection points: 4
#     Node 9, Type 0, BuildingBlock: CEKHIL_clean_sbu_0, # of connection points: 4
#     Node 10, Type 0, BuildingBlock: CEKHIL_clean_sbu_0, # of connection points: 4
#     Node 11, Type 0, BuildingBlock: CEKHIL_clean_sbu_0, # of connection points: 4
#     Node 12, Type 0, BuildingBlock: CEKHIL_clean_sbu_0, # of connection points: 4
#     Node 13, Type 0, BuildingBlock: CEKHIL_clean_sbu_0, # of connection points: 4
#     Node 14, Type 0, BuildingBlock: CEKHIL_clean_sbu_0, # of connection points: 4
#     Node 15, Type 0, BuildingBlock: CEKHIL_clean_sbu_0, # of connection points: 4
#     Edge 16, Type (0, 0), BuildingBlock: EZIPEK_clean_linker_0, # of connection points: 2
#     Edge 17, Type (0, 0), BuildingBlock: EZIPEK_clean_linker_0, # of connection points: 2
#     Edge 18, Type (0, 0), BuildingBlock: EZIPEK_clean_linker_0, # of connection points: 2
#     Edge 19, Type (0, 0), BuildingBlock: EZIPEK_clean_linker_0, # of connection points: 2
#     Edge 20, Type (0, 0), BuildingBlock: EZIPEK_clean_linker_0, # of connection points: 2
#     Edge 21, Type (0, 0), BuildingBlock: EZIPEK_clean_linker_0, # of connection points: 2
#     Edge 22, Type (0, 0), BuildingBlock: EZIPEK_clean_linker_0, # of connection points: 2
#     Edge 23, Type (0, 0), BuildingBlock: EZIPEK_clean_linker_0, # of connection points: 2
#     Edge 24, Type (0, 0), BuildingBlock: EZIPEK_clean_linker_0, # of connection points: 2
#     Edge 25, Type (0, 0), BuildingBlock: EZIPEK_clean_linker_0, # of connection points: 2
#     Edge 26, Type (0, 0), BuildingBlock: EZIPEK_clean_linker_0, # of connection points: 2
#     Edge 27, Type (0, 0), BuildingBlock: EZIPEK_clean_linker_0, # of connection points: 2
#     Edge 28, Type (0, 0), BuildingBlock: EZIPEK_clean_linker_0, # of connection points: 2
#     Edge 29, Type (0, 0), BuildingBlock: EZIPEK_clean_linker_0, # of connection points: 2
#     Edge 30, Type (0, 0), BuildingBlock: EZIPEK_clean_linker_0, # of connection points: 2
#     Edge 31, Type (0, 0), BuildingBlock: EZIPEK_clean_linker_0, # of connection points: 2
#     Edge 32, Type (0, 0), BuildingBlock: EZIPEK_clean_linker_0, # of connection points: 2
#     Edge 33, Type (0, 0), BuildingBlock: EZIPEK_clean_linker_0, # of connection points: 2
#     Edge 34, Type (0, 0), BuildingBlock: EZIPEK_clean_linker_0, # of connection points: 2
#     Edge 35, Type (0, 0), BuildingBlock: EZIPEK_clean_linker_0, # of connection points: 2
#     Edge 36, Type (0, 0), BuildingBlock: EZIPEK_clean_linker_0, # of connection points: 2
#     Edge 37, Type (0, 0), BuildingBlock: EZIPEK_clean_linker_0, # of connection points: 2
#     Edge 38, Type (0, 0), BuildingBlock: EZIPEK_clean_linker_0, # of connection points: 2
#     Edge 39, Type (0, 0), BuildingBlock: EZIPEK_clean_linker_0, # of connection points: 2
#     Edge 40, Type (0, 0), BuildingBlock: EZIPEK_clean_linker_0, # of connection points: 2
#     Edge 41, Type (0, 0), BuildingBlock: EZIPEK_clean_linker_0, # of connection points: 2
#     Edge 42, Type (0, 0), BuildingBlock: EZIPEK_clean_linker_0, # of connection points: 2
#     Edge 43, Type (0, 0), BuildingBlock: EZIPEK_clean_linker_0, # of connection points: 2
#     Edge 44, Type (0, 0), BuildingBlock: EZIPEK_clean_linker_0, # of connection points: 2
#     Edge 45, Type (0, 0), BuildingBlock: EZIPEK_clean_linker_0, # of connection points: 2
#     Edge 46, Type (0, 0), BuildingBlock: EZIPEK_clean_linker_0, # of connection points: 2
#     Edge 47, Type (0, 0), BuildingBlock: EZIPEK_clean_linker_0, # of connection points: 2
# Relax obj value: 0.063
# Max RMSD: 0.132
# Mean RMSD: 0.127
data_MOF--net-gis--node1-CEKHIL_clean_sbu_0--edge1-EZIPEK_clean_linker_0
_symmetry_space_group_name_H-M    P1
_symmetry_Int_Tables_number       1
_symmetry_cell_setting            triclinic
loop_
_symmetry_equiv_pos_as_xyz
'x, y, z'
_cell_length_a     39.958923
_cell_length_b     37.511847
_cell_length_c     25.762217
_cell_angle_alpha  90.496843
_cell_angle_beta   90.486005
_cell_angle_gamma 90.023964
loop_
_atom_site_label
_atom_site_type_symbol
_atom_site_fract_x
_atom_site_fract_y
_atom_site_fract_z
_atom_type_partial_charge
Co0 Co 0.1496 0.60495 0.1352 0.0
O1 O 0.19781 0.60695 0.13769 0.0
O2 O 0.16518 0.60489 0.20674 0.0
C3 C 0.14678 0.56165 0.07355 0.0
O4 O 0.09934 0.60107 0.14833 0.0
Co5 Co 0.11163 0.62581 0.03536 0.0
O6 O 0.07082 0.61686 0.07634 0.0
C7 C 0.13899 0.68225 0.10162 0.0
C8 C 0.19524 0.60559 0.18775 0.0
C9 C 0.07187 0.60644 0.12315 0.0
O10 O 0.14702 0.65879 0.13573 0.0
O11 O 0.12734 0.67444 0.05661 0.0
O12 O 0.15116 0.55376 0.1221 0.0
O13 O 0.14673 0.59534 0.06305 0.0
Co14 Co 0.65104 0.89432 0.35998 0.0
O15 O 0.69898 0.891 0.35736 0.0
O16 O 0.66528 0.89186 0.28841 0.0
C17 C 0.64976 0.93911 0.41816 0.0
O18 O 0.60048 0.89891 0.34827 0.0
Co19 Co 0.61426 0.87773 0.46268 0.0
O20 O 0.57349 0.89226 0.42412 0.0
C21 C 0.63862 0.81854 0.39782 0.0
C22 C 0.69559 0.89111 0.30731 0.0
C23 C 0.57353 0.89828 0.37554 0.0
O24 O 0.6472 0.84082 0.36271 0.0
O25 O 0.62733 0.82782 0.44228 0.0
O26 O 0.65447 0.94559 0.3694 0.0
O27 O 0.64921 0.90582 0.43092 0.0
Co28 Co 0.35956 0.39914 0.63255 0.0
O29 O 0.31149 0.39635 0.63131 0.0
O30 O 0.34294 0.39559 0.70269 0.0
C31 C 0.36255 0.44473 0.5768 0.0
O32 O 0.40982 0.40297 0.6487 0.0
Co33 Co 0.39971 0.384 0.5328 0.0
O34 O 0.43958 0.39609 0.57548 0.0
C35 C 0.37029 0.32441 0.5899 0.0
C36 C 0.31325 0.39512 0.68147 0.0
C37 C 0.43785 0.40171 0.6242 0.0
O38 O 0.36242 0.34574 0.62703 0.0
O39 O 0.38314 0.33455 0.5472 0.0
O40 O 0.35723 0.45055 0.62577 0.0
O41 O 0.36339 0.41165 0.56224 0.0
Co42 Co 0.8493 0.09789 0.86262 0.0
O43 O 0.80134 0.10094 0.85896 0.0
O44 O 0.83501 0.10361 0.79106 0.0
C45 C 0.85047 0.05041 0.9158 0.0
O46 O 0.90002 0.09421 0.8523 0.0
Co47 Co 0.88473 0.10976 0.96953 0.0
O48 O 0.92555 0.09677 0.93069 0.0
C49 C 0.85987 0.17146 0.91105 0.0
C50 C 0.8047 0.10343 0.80919 0.0
C51 C 0.92646 0.09357 0.88143 0.0
O52 O 0.85285 0.1512 0.87196 0.0
O53 O 0.87031 0.15996 0.95489 0.0
O54 O 0.84616 0.04608 0.8662 0.0
O55 O 0.8508 0.08313 0.93191 0.0
Co56 Co 0.15031 0.40481 0.85916 0.0
O57 O 0.19788 0.40145 0.85136 0.0
O58 O 0.16127 0.40006 0.78611 0.0
C59 C 0.15187 0.4513 0.91512 0.0
O60 O 0.09905 0.40906 0.85443 0.0
Co61 Co 0.12158 0.3898 0.96872 0.0
O62 O 0.07837 0.40164 0.93492 0.0
C63 C 0.14425 0.33028 0.90385 0.0
C64 C 0.19234 0.39937 0.80191 0.0
C65 C 0.07441 0.40758 0.88659 0.0
O66 O 0.14723 0.35144 0.86525 0.0
O67 O 0.1375 0.34069 0.94997 0.0
O68 O 0.1539 0.45651 0.86554 0.0
O69 O 0.15244 0.41831 0.92917 0.0
Co70 Co 0.86106 0.89971 0.13528 0.0
O71 O 0.8132 0.89721 0.13903 0.0
O72 O 0.84734 0.90149 0.20727 0.0
C73 C 0.86174 0.94074 0.07154 0.0
O74 O 0.91188 0.90421 0.14547 0.0
Co75 Co 0.89474 0.87426 0.03529 0.0
O76 O 0.93691 0.88155 0.07486 0.0
C77 C 0.86711 0.82155 0.10478 0.0
C78 C 0.81696 0.89892 0.18889 0.0
C79 C 0.93836 0.89529 0.12021 0.0
O80 O 0.86342 0.84614 0.13911 0.0
O81 O 0.8765 0.82752 0.05844 0.0
O82 O 0.85898 0.95033 0.11987 0.0
O83 O 0.86132 0.90673 0.06275 0.0
Co84 Co 0.36451 0.59644 0.3578 0.0
O85 O 0.31645 0.60065 0.35637 0.0
O86 O 0.34813 0.59376 0.28676 0.0
C87 C 0.36487 0.55684 0.42411 0.0
O88 O 0.41447 0.5901 0.34354 0.0
Co89 Co 0.40565 0.61902 0.45313 0.0
O90 O 0.44481 0.59971 0.41619 0.0
C91 C 0.37862 0.67393 0.3847 0.0
C92 C 0.31844 0.59762 0.30639 0.0
C93 C 0.44255 0.59131 0.36839 0.0
O94 O 0.36907 0.64964 0.35241 0.0
O95 O 0.39123 0.66732 0.42934 0.0
O96 O 0.36123 0.54642 0.37611 0.0
O97 O 0.36725 0.59094 0.43056 0.0
Co98 Co 0.6389 0.09635 0.63142 0.0
O99 O 0.68689 0.10046 0.6343 0.0
O100 O 0.65382 0.09929 0.70301 0.0
C101 C 0.63792 0.05137 0.57253 0.0
O102 O 0.58867 0.09091 0.64365 0.0
Co103 Co 0.60166 0.11375 0.52969 0.0
O104 O 0.56074 0.10402 0.56993 0.0
C105 C 0.62703 0.17225 0.59366 0.0
C106 C 0.68393 0.10111 0.68433 0.0
C107 C 0.56143 0.09461 0.61722 0.0
O108 O 0.63479 0.1498 0.62909 0.0
O109 O 0.61584 0.16333 0.54881 0.0
O110 O 0.64218 0.04501 0.6216 0.0
O111 O 0.63702 0.0847 0.55991 0.0
Co112 Co 0.85766 0.39812 0.86455 0.0
O113 O 0.80997 0.39346 0.85846 0.0
O114 O 0.84487 0.39367 0.79192 0.0
C115 C 0.85586 0.44442 0.92105 0.0
O116 O 0.9087 0.40375 0.85732 0.0
Co117 Co 0.89081 0.38493 0.97235 0.0
O118 O 0.93195 0.40108 0.93735 0.0
C119 C 0.86615 0.32427 0.91006 0.0
C120 C 0.81425 0.39235 0.80875 0.0
C121 C 0.93424 0.4052 0.88845 0.0
O122 O 0.86185 0.34476 0.87083 0.0
O123 O 0.87473 0.33545 0.9553 0.0
O124 O 0.8528 0.44967 0.87155 0.0
O125 O 0.85706 0.41138 0.93473 0.0
Co126 Co 0.34881 0.09743 0.62998 0.0
O127 O 0.30089 0.10212 0.63355 0.0
O128 O 0.33504 0.09945 0.70179 0.0
C129 C 0.34758 0.05304 0.5691 0.0
O130 O 0.39912 0.09131 0.64176 0.0
Co131 Co 0.38612 0.11258 0.52785 0.0
O132 O 0.42557 0.09367 0.56508 0.0
C133 C 0.36162 0.17238 0.59113 0.0
C134 C 0.30467 0.10173 0.68355 0.0
C135 C 0.42569 0.08922 0.61399 0.0
O136 O 0.35386 0.15099 0.62791 0.0
O137 O 0.37228 0.16215 0.54681 0.0
O138 O 0.34462 0.04615 0.61819 0.0
O139 O 0.34963 0.08654 0.55869 0.0
Co140 Co 0.64534 0.59196 0.36818 0.0
O141 O 0.64528 0.54209 0.38494 0.0
O142 O 0.6348 0.58619 0.44062 0.0
C143 C 0.69397 0.59161 0.32419 0.0
O144 O 0.64434 0.6462 0.36588 0.0
Co145 Co 0.63972 0.6163 0.2542 0.0
O146 O 0.64599 0.66509 0.28318 0.0
C147 C 0.5793 0.59179 0.30708 0.0
C148 C 0.63826 0.55222 0.43188 0.0
C149 C 0.64556 0.6711 0.3319 0.0
O150 O 0.59628 0.58975 0.34953 0.0
O151 O 0.59242 0.59885 0.26319 0.0
O152 O 0.69388 0.59313 0.37452 0.0
O153 O 0.66498 0.58671 0.30225 0.0
Co154 Co 0.14777 0.90873 0.14288 0.0
O155 O 0.1498 0.95887 0.1281 0.0
O156 O 0.13977 0.91597 0.06989 0.0
C157 C 0.19468 0.9066 0.19103 0.0
O158 O 0.14512 0.85412 0.14225 0.0
Co159 Co 0.13635 0.88066 0.2514 0.0
O160 O 0.14616 0.83281 0.22347 0.0
C161 C 0.07777 0.90008 0.18843 0.0
C162 C 0.14375 0.94966 0.08025 0.0
C163 C 0.14645 0.82812 0.17462 0.0
O164 O 0.09844 0.91288 0.15574 0.0
O165 O 0.08768 0.88507 0.2302 0.0
O166 O 0.19575 0.90591 0.14075 0.0
O167 O 0.16538 0.91215 0.21144 0.0
Co168 Co 0.85867 0.59435 0.14682 0.0
O169 O 0.81062 0.59488 0.15176 0.0
O170 O 0.84556 0.59436 0.21909 0.0
C171 C 0.86035 0.55117 0.08473 0.0
O172 O 0.9095 0.5923 0.15691 0.0
Co173 Co 0.89218 0.61584 0.04386 0.0
O174 O 0.93453 0.61003 0.0834 0.0
C175 C 0.86403 0.67116 0.11107 0.0
C176 C 0.8149 0.59445 0.20165 0.0
C177 C 0.93571 0.59954 0.13021 0.0
O178 O 0.85985 0.64821 0.14723 0.0
O179 O 0.87343 0.66301 0.06521 0.0
O180 O 0.85793 0.54294 0.13343 0.0
O181 O 0.85927 0.58484 0.07482 0.0
Co182 Co 0.141 0.10159 0.8626 0.0
O183 O 0.18915 0.1016 0.85991 0.0
O184 O 0.15546 0.10158 0.79104 0.0
C185 C 0.13684 0.0583 0.92291 0.0
O186 O 0.09032 0.09982 0.84979 0.0
Co187 Co 0.10533 0.12423 0.96279 0.0
O188 O 0.06353 0.11688 0.92241 0.0
C189 C 0.13711 0.17864 0.90009 0.0
C190 C 0.18579 0.10159 0.80983 0.0
C191 C 0.06341 0.10619 0.87543 0.0
O192 O 0.14136 0.15544 0.86376 0.0
O193 O 0.12615 0.1709 0.94501 0.0
O194 O 0.14056 0.05029 0.87416 0.0
O195 O 0.13867 0.09188 0.93448 0.0
Co196 Co 0.64255 0.39741 0.64379 0.0
O197 O 0.64498 0.44813 0.63376 0.0
O198 O 0.63423 0.40816 0.57172 0.0
C199 C 0.69004 0.39239 0.69189 0.0
O200 O 0.63942 0.34363 0.63786 0.0
Co201 Co 0.63113 0.36707 0.75161 0.0
O202 O 0.62929 0.3199 0.71601 0.0
C203 C 0.57408 0.39727 0.69725 0.0
C204 C 0.63854 0.44131 0.58522 0.0
C205 C 0.63397 0.31695 0.6674 0.0
O206 O 0.59293 0.40063 0.65741 0.0
O207 O 0.58534 0.38812 0.74174 0.0
O208 O 0.69098 0.39356 0.64162 0.0
O209 O 0.66088 0.39798 0.71233 0.0
Co210 Co 0.36745 0.89872 0.35516 0.0
O211 O 0.3644 0.9483 0.37314 0.0
O212 O 0.37404 0.90493 0.42927 0.0
C213 C 0.32046 0.89782 0.30516 0.0
O214 O 0.37049 0.84487 0.35224 0.0
Co215 Co 0.37948 0.87525 0.2434 0.0
O216 O 0.37785 0.8258 0.27019 0.0
C217 C 0.4366 0.90038 0.30392 0.0
C218 C 0.3687 0.93861 0.42093 0.0
C219 C 0.37404 0.81999 0.31829 0.0
O220 O 0.41734 0.9029 0.34358 0.0
O221 O 0.42581 0.89324 0.2582 0.0
O222 O 0.31908 0.8946 0.35515 0.0
O223 O 0.34997 0.90431 0.2866 0.0
C224 C 0.11391 0.77783 0.13391 0.0
C225 C 0.14459 0.79104 0.15468 0.0
C226 C 0.17223 0.7351 0.13159 0.0
C227 C 0.14103 0.72032 0.11666 0.0
N228 N 0.0808 0.72567 0.11168 0.0
N229 N 0.20017 0.77802 0.18696 0.0
C230 C 0.11142 0.74121 0.1196 0.0
C231 C 0.173 0.7685 0.15755 0.0
N232 N 0.08694 0.79998 0.12894 0.0
N233 N 0.20123 0.71787 0.11939 0.0
H234 H 0.20069 0.80105 0.2098 0.0
H235 H 0.22036 0.76098 0.19346 0.0
H236 H 0.20155 0.69361 0.09924 0.0
H237 H 0.22477 0.72936 0.125 0.0
H238 H 0.06532 0.79305 0.10835 0.0
H239 H 0.08682 0.82613 0.14293 0.0
H240 H 0.05825 0.73855 0.11915 0.0
H241 H 0.07774 0.69882 0.10197 0.0
C242 C 0.49418 0.87274 0.30207 0.0
C243 C 0.47332 0.90258 0.31305 0.0
C244 C 0.51893 0.93075 0.36237 0.0
C245 C 0.5404 0.90184 0.34945 0.0
N246 N 0.55019 0.84817 0.29912 0.0
N247 N 0.4689 0.9639 0.33994 0.0
C248 C 0.5287 0.87405 0.31611 0.0
C249 C 0.48673 0.93286 0.33886 0.0
N250 N 0.48069 0.84202 0.28189 0.0
N251 N 0.52863 0.95551 0.39865 0.0
H252 H 0.44555 0.96638 0.32183 0.0
H253 H 0.47866 0.98791 0.35398 0.0
H254 H 0.55176 0.95474 0.41742 0.0
H255 H 0.51259 0.97491 0.41348 0.0
H256 H 0.49369 0.81802 0.27968 0.0
H257 H 0.45561 0.83927 0.27135 0.0
H258 H 0.54403 0.82993 0.26985 0.0
H259 H 0.57503 0.84626 0.31136 0.0
C260 C 0.395 0.26571 0.6132 0.0
C261 C 0.36653 0.28579 0.5982 0.0
C262 C 0.33261 0.23136 0.59353 0.0
C263 C 0.36208 0.21109 0.60144 0.0
N264 N 0.42139 0.20763 0.61868 0.0
N265 N 0.30834 0.28908 0.57347 0.0
C266 C 0.39325 0.22792 0.61195 0.0
C267 C 0.33516 0.26905 0.58893 0.0
N268 N 0.42356 0.28292 0.629 0.0
N269 N 0.30236 0.21441 0.5901 0.0
H270 H 0.30931 0.3168 0.57069 0.0
H271 H 0.28565 0.27839 0.56083 0.0
H272 H 0.30002 0.18675 0.59216 0.0
H273 H 0.27946 0.22758 0.5891 0.0
H274 H 0.44406 0.27018 0.64571 0.0
H275 H 0.42595 0.31061 0.62889 0.0
H276 H 0.44555 0.21795 0.62026 0.0
H277 H 0.42076 0.17987 0.62026 0.0
C278 C 0.00973 0.12359 0.83163 0.0
C279 C 0.03029 0.09673 0.85314 0.0
C280 C 0.98124 0.06146 0.87513 0.0
C281 C 0.96032 0.08984 0.8584 0.0
N282 N 0.95391 0.1421 0.80525 0.0
N283 N 0.0369 0.03538 0.87632 0.0
C284 C 0.97433 0.11882 0.83081 0.0
C285 C 0.01632 0.06384 0.86787 0.0
N286 N 0.02413 0.1543 0.81468 0.0
N287 N 0.96773 0.03336 0.90096 0.0
H288 H 0.06269 0.03695 0.8706 0.0
H289 H 0.02827 0.00977 0.88385 0.0
H290 H 0.94206 0.03069 0.90602 0.0
H291 H 0.98187 0.01395 0.91968 0.0
H292 H 0.01073 0.17701 0.80443 0.0
H293 H 0.05004 0.15704 0.81233 0.0
H294 H 0.96268 0.16235 0.78158 0.0
H295 H 0.92799 0.13924 0.80393 0.0
C296 C 0.17299 0.2717 0.91536 0.0
C297 C 0.14612 0.29153 0.89397 0.0
C298 C 0.12039 0.23657 0.86068 0.0
C299 C 0.14394 0.21663 0.88985 0.0
N300 N 0.19358 0.214 0.9433 0.0
N301 N 0.09294 0.29348 0.84887 0.0
C302 C 0.17077 0.23388 0.91631 0.0
C303 C 0.11973 0.27422 0.86646 0.0
N304 N 0.20072 0.28914 0.93392 0.0
N305 N 0.09846 0.21948 0.82798 0.0
H306 H 0.09133 0.3211 0.85264 0.0
H307 H 0.0711 0.28198 0.8341 0.0
H308 H 0.09822 0.1919 0.82312 0.0
H309 H 0.08279 0.23266 0.80199 0.0
H310 H 0.2225 0.2763 0.94587 0.0
H311 H 0.20297 0.31685 0.9333 0.0
H312 H 0.2114 0.22485 0.96854 0.0
H313 H 0.19383 0.18618 0.94181 0.0
C314 C 0.9986 0.91 0.10717 0.0
C315 C 0.97267 0.90187 0.14229 0.0
C316 C 0.01531 0.90142 0.21172 0.0
C317 C 0.04125 0.90081 0.17397 0.0
N318 N 0.05321 0.89098 0.08223 0.0
N319 N 0.95852 0.88306 0.22938 0.0
C320 C 0.03178 0.90132 0.12057 0.0
C321 C 0.98144 0.89578 0.19523 0.0
N322 N 0.99183 0.9261 0.06099 0.0
N323 N 0.02233 0.90863 0.26266 0.0
H324 H 0.93403 0.87659 0.219 0.0
H325 H 0.96505 0.8754 0.26694 0.0
H326 H 0.04605 0.91607 0.27588 0.0
H327 H 0.00366 0.91176 0.29036 0.0
H328 H 0.01074 0.93393 0.03579 0.0
H329 H 0.9681 0.93576 0.0517 0.0
H330 H 0.0458 0.88965 0.04332 0.0
H331 H 0.07614 0.87874 0.08945 0.0
C332 C 0.40717 0.73146 0.36519 0.0
C333 C 0.37709 0.71143 0.3681 0.0
C334 C 0.34518 0.76209 0.33453 0.0
C335 C 0.3748 0.7829 0.33622 0.0
N336 N 0.43263 0.78994 0.36186 0.0
N337 N 0.31677 0.70902 0.36423 0.0
C338 C 0.4054 0.76837 0.35428 0.0
C339 C 0.34584 0.72704 0.35496 0.0
N340 N 0.43752 0.71494 0.3704 0.0
N341 N 0.31658 0.77572 0.31302 0.0
H342 H 0.31627 0.68348 0.37991 0.0
H343 H 0.29312 0.72037 0.36037 0.0
H344 H 0.31484 0.80183 0.29963 0.0
H345 H 0.29531 0.76048 0.30519 0.0
H346 H 0.46021 0.72743 0.36278 0.0
H347 H 0.44007 0.68776 0.37755 0.0
H348 H 0.4546 0.78154 0.38005 0.0
H349 H 0.4323 0.81719 0.35416 0.0
C350 C 0.51029 0.11384 0.6646 0.0
C351 C 0.52877 0.0862 0.64057 0.0
C352 C 0.47747 0.05284 0.62204 0.0
C353 C 0.45879 0.0829 0.63859 0.0
N354 N 0.45588 0.13599 0.69156 0.0
N355 N 0.53228 0.02523 0.61261 0.0
C356 C 0.47475 0.11126 0.66592 0.0
C357 C 0.51298 0.054 0.62531 0.0
N358 N 0.52676 0.14334 0.68293 0.0
N359 N 0.46101 0.02425 0.60071 0.0
H360 H 0.55836 0.02602 0.6156 0.0
H361 H 0.5228 0.00016 0.60315 0.0
H362 H 0.43492 0.02249 0.60044 0.0
H363 H 0.47281 0.00276 0.58284 0.0
H364 H 0.51495 0.16652 0.69552 0.0
H365 H 0.55285 0.14467 0.68439 0.0
H366 H 0.46584 0.15633 0.71464 0.0
H367 H 0.42988 0.13438 0.69323 0.0
C368 C 0.83045 0.23035 0.91487 0.0
C369 C 0.85966 0.21044 0.90359 0.0
C370 C 0.89027 0.26539 0.88464 0.0
C371 C 0.86251 0.28539 0.90251 0.0
N372 N 0.80623 0.28823 0.935 0.0
N373 N 0.91788 0.2079 0.87988 0.0
C374 C 0.83244 0.26823 0.91732 0.0
C375 C 0.88964 0.22764 0.88845 0.0
N376 N 0.80089 0.21293 0.92276 0.0
N377 N 0.91719 0.2826 0.86404 0.0
H378 H 0.91819 0.18013 0.88136 0.0
H379 H 0.9415 0.21886 0.87441 0.0
H380 H 0.91885 0.31029 0.86228 0.0
H381 H 0.9367 0.26966 0.84515 0.0
H382 H 0.77793 0.22571 0.92658 0.0
H383 H 0.7989 0.18519 0.92169 0.0
H384 H 0.78499 0.27751 0.95199 0.0
H385 H 0.80635 0.31605 0.93484 0.0
C386 C 0.67273 0.73052 0.34861 0.0
C387 C 0.64385 0.7086 0.35004 0.0
C388 C 0.61076 0.75944 0.38107 0.0
C389 C 0.64049 0.7801 0.38481 0.0
N390 N 0.70073 0.78246 0.3845 0.0
N391 N 0.58598 0.7006 0.37381 0.0
C392 C 0.6718 0.76479 0.37221 0.0
C393 C 0.61308 0.72251 0.36858 0.0
N394 N 0.70073 0.7192 0.32333 0.0
N395 N 0.58022 0.77541 0.38664 0.0
H396 H 0.58609 0.6738 0.36275 0.0
H397 H 0.56409 0.70836 0.39245 0.0
H398 H 0.57734 0.80245 0.39519 0.0
H399 H 0.55764 0.7626 0.37836 0.0
H400 H 0.72139 0.73553 0.31712 0.0
H401 H 0.70189 0.69481 0.30383 0.0
H402 H 0.72434 0.77095 0.38092 0.0
H403 H 0.70095 0.80741 0.40276 0.0
C404 C 0.83293 0.72836 0.12459 0.0
C405 C 0.8636 0.70946 0.12429 0.0
C406 C 0.89486 0.76544 0.13082 0.0
C407 C 0.86477 0.78408 0.12082 0.0
N408 N 0.80478 0.78525 0.11232 0.0
N409 N 0.92393 0.70884 0.12916 0.0
C410 C 0.83352 0.76617 0.1199 0.0
C411 C 0.89464 0.72769 0.12897 0.0
N412 N 0.80353 0.71002 0.12868 0.0
N413 N 0.92351 0.78402 0.1421 0.0
H414 H 0.92464 0.68107 0.12983 0.0
H415 H 0.94749 0.72043 0.12611 0.0
H416 H 0.92425 0.81182 0.14378 0.0
H417 H 0.94571 0.77215 0.15439 0.0
H418 H 0.78029 0.72212 0.13297 0.0
H419 H 0.80273 0.68231 0.13177 0.0
H420 H 0.78139 0.77378 0.10597 0.0
H421 H 0.8046 0.81305 0.11072 0.0
C422 C 0.60061 0.26551 0.63384 0.0
C423 C 0.63233 0.28114 0.64373 0.0
C424 C 0.66027 0.22757 0.61078 0.0
C425 C 0.62871 0.21044 0.60717 0.0
N426 N 0.56882 0.21135 0.61871 0.0
N427 N 0.69257 0.27741 0.64493 0.0
C428 C 0.5988 0.22899 0.61929 0.0
C429 C 0.66229 0.26237 0.6328 0.0
N430 N 0.57232 0.28591 0.63713 0.0
N431 N 0.68806 0.21087 0.59182 0.0
H432 H 0.69501 0.30338 0.65924 0.0
H433 H 0.71512 0.26354 0.64381 0.0
H434 H 0.68729 0.18532 0.57546 0.0
H435 H 0.7113 0.22316 0.58858 0.0
H436 H 0.54869 0.2771 0.62553 0.0
H437 H 0.57289 0.31291 0.64716 0.0
H438 H 0.54678 0.22214 0.63328 0.0
H439 H 0.56629 0.18485 0.60676 0.0
C440 C 0.02105 0.44191 0.89538 0.0
C441 C 0.03929 0.41469 0.86935 0.0
C442 C 0.98641 0.38766 0.83903 0.0
C443 C 0.9685 0.41314 0.86895 0.0
N444 N 0.96767 0.47055 0.91051 0.0
N445 N 0.03988 0.36828 0.80407 0.0
C446 C 0.98564 0.44248 0.89159 0.0
C447 C 0.02212 0.38997 0.83654 0.0
N448 N 0.03753 0.46593 0.92654 0.0
N449 N 0.96954 0.36005 0.81588 0.0
H450 H 0.06585 0.36936 0.80152 0.0
H451 H 0.02891 0.35157 0.77632 0.0
H452 H 0.94351 0.35877 0.81464 0.0
H453 H 0.98117 0.3379 0.79944 0.0
H454 H 0.02565 0.48358 0.95176 0.0
H455 H 0.06348 0.46679 0.92948 0.0
H456 H 0.97822 0.49452 0.92312 0.0
H457 H 0.94167 0.47074 0.90893 0.0
C458 C 0.52846 0.55661 0.33099 0.0
C459 C 0.54235 0.58833 0.3107 0.0
C460 C 0.48665 0.61591 0.31067 0.0
C461 C 0.47438 0.58687 0.33989 0.0
N462 N 0.48289 0.52923 0.37806 0.0
N463 N 0.53519 0.6496 0.28434 0.0
C464 C 0.49502 0.5569 0.34963 0.0
C465 C 0.52148 0.61816 0.30031 0.0
N466 N 0.54718 0.52613 0.33154 0.0
N467 N 0.46514 0.64173 0.29373 0.0
H468 H 0.5605 0.65279 0.27629 0.0
H469 H 0.52196 0.67349 0.28292 0.0
H470 H 0.43962 0.64156 0.30167 0.0
H471 H 0.47197 0.66157 0.26785 0.0
H472 H 0.5377 0.50131 0.34162 0.0
H473 H 0.5716 0.5252 0.31752 0.0
H474 H 0.49778 0.5086 0.39206 0.0
H475 H 0.45796 0.52783 0.38967 0.0
C476 C 0.52581 0.43259 0.66267 0.0
C477 C 0.53739 0.40206 0.68935 0.0
C478 C 0.48003 0.37821 0.68859 0.0
C479 C 0.47018 0.40518 0.65316 0.0
N480 N 0.48512 0.45685 0.60282 0.0
N481 N 0.52586 0.34291 0.72187 0.0
C482 C 0.49342 0.4322 0.63944 0.0
C483 C 0.51452 0.37433 0.7017 0.0
N484 N 0.5457 0.46216 0.6601 0.0
N485 N 0.45683 0.35552 0.7087 0.0
H486 H 0.55082 0.33792 0.73096 0.0
H487 H 0.51091 0.32029 0.72504 0.0
H488 H 0.43154 0.35609 0.69886 0.0
H489 H 0.46222 0.3381 0.73892 0.0
H490 H 0.53753 0.4864 0.64519 0.0
H491 H 0.56927 0.4635 0.67779 0.0
H492 H 0.50234 0.47444 0.58695 0.0
H493 H 0.46159 0.45803 0.58535 0.0
C494 C 0.02359 0.56587 0.13568 0.0
C495 C 0.03937 0.59877 0.14758 0.0
C496 C 0.9859 0.62368 0.1759 0.0
C497 C 0.96954 0.59418 0.15245 0.0
N498 N 0.97125 0.53451 0.11834 0.0
N499 N 0.03758 0.65754 0.18527 0.0
C500 C 0.98803 0.56399 0.1361 0.0
C501 C 0.0212 0.62699 0.17092 0.0
N502 N 0.04278 0.53707 0.12265 0.0
N503 N 0.96735 0.64857 0.20174 0.0
H504 H 0.06361 0.6597 0.18387 0.0
H505 H 0.02561 0.68079 0.19724 0.0
H506 H 0.94153 0.64571 0.20611 0.0
H507 H 0.97753 0.67005 0.22223 0.0
H508 H 0.03334 0.51163 0.11568 0.0
H509 H 0.06889 0.53828 0.12261 0.0
H510 H 0.98261 0.51272 0.10055 0.0
H511 H 0.94528 0.53226 0.12117 0.0
C512 C 0.17677 0.51076 0.03001 0.0
C513 C 0.14873 0.53398 0.03208 0.0
C514 C 0.12752 0.50827 0.95052 0.0
C515 C 0.15219 0.48114 0.95324 0.0
N516 N 0.20107 0.45645 0.99573 0.0
N517 N 0.09393 0.54939 -0.00016 0.0
C518 C 0.17688 0.48217 0.99335 0.0
C519 C 0.12332 0.53152 0.99355 0.0
N520 N 0.20422 0.5173 0.06074 0.0
N521 N 0.10788 0.51213 0.90725 0.0
H522 H 0.08905 0.56421 0.03304 0.0
H523 H 0.07313 0.54574 0.97567 0.0
H524 H 0.10805 0.4946 0.87575 0.0
H525 H 0.09257 0.53426 0.90149 0.0
H526 H 0.22674 0.50358 0.05716 0.0
H527 H 0.20592 0.53888 0.08637 0.0
H528 H 0.21651 0.45283 0.02803 0.0
H529 H 0.20509 0.43783 0.96618 0.0
C530 C 0.73523 0.92525 0.25191 0.0
C531 C 0.72552 0.89233 0.27401 0.0
C532 C 0.77675 0.86386 0.24196 0.0
C533 C 0.78728 0.89726 0.22246 0.0
N534 N 0.77931 0.96044 0.21278 0.0
N535 N 0.73638 0.8306 0.29225 0.0
C536 C 0.76721 0.92816 0.22841 0.0
C537 C 0.74618 0.86171 0.2697 0.0
N538 N 0.71369 0.95359 0.25306 0.0
N539 N 0.79546 0.83404 0.23225 0.0
H540 H 0.71273 0.82735 0.30827 0.0
H541 H 0.75171 0.80838 0.2965 0.0
H542 H 0.81868 0.83491 0.21417 0.0
H543 H 0.78759 0.80818 0.23982 0.0
H544 H 0.71752 0.9772 0.23309 0.0
H545 H 0.69054 0.95281 0.27136 0.0
H546 H 0.76763 0.98471 0.22015 0.0
H547 H 0.80266 0.96339 0.19549 0.0
C548 C 0.38378 0.50361 0.5462 0.0
C549 C 0.36179 0.47432 0.53921 0.0
C550 C 0.33719 0.50269 0.46236 0.0
C551 C 0.36024 0.53149 0.46822 0.0
N552 N 0.39349 0.56579 0.53007 0.0
N553 N 0.31139 0.45047 0.50002 0.0
C554 C 0.38014 0.53399 0.51423 0.0
C555 C 0.33685 0.47491 0.49965 0.0
N556 N 0.40839 0.50248 0.58331 0.0
N557 N 0.3144 0.50277 0.42249 0.0
H558 H 0.30923 0.43075 0.52803 0.0
H559 H 0.29057 0.45139 0.47555 0.0
H560 H 0.30837 0.52574 0.40192 0.0
H561 H 0.3012 0.48028 0.41014 0.0
H562 H 0.42794 0.52084 0.58543 0.0
H563 H 0.41098 0.48159 0.60944 0.0
H564 H 0.40645 0.5693 0.56499 0.0
H565 H 0.38658 0.58991 0.51403 0.0
C566 C 0.72417 0.07149 0.74503 0.0
C567 C 0.71409 0.10254 0.71808 0.0
C568 C 0.76376 0.13464 0.75071 0.0
C569 C 0.77476 0.10293 0.77502 0.0
N570 N 0.76883 0.03981 0.78915 0.0
N571 N 0.72469 0.16288 0.6912 0.0
C572 C 0.75581 0.071 0.77066 0.0
C573 C 0.73411 0.13388 0.71959 0.0
N574 N 0.70348 0.04244 0.74617 0.0
N575 N 0.78096 0.16572 0.75915 0.0
H576 H 0.70188 0.16422 0.67137 0.0
H577 H 0.73989 0.18498 0.68533 0.0
H578 H 0.80308 0.167 0.78092 0.0
H579 H 0.77247 0.19062 0.74743 0.0
H580 H 0.7074 0.02067 0.77023 0.0
H581 H 0.68096 0.0409 0.72556 0.0
H582 H 0.75815 0.01488 0.78242 0.0
H583 H 0.7921 0.03831 0.80759 0.0
C584 C 0.83156 0.47169 0.0021 0.0
C585 C 0.85422 0.47389 0.95987 0.0
C586 C 0.88187 0.5246 0.00168 0.0
C587 C 0.85846 0.52391 0.04258 0.0
N588 N 0.8052 0.50285 0.07366 0.0
N589 N 0.89218 0.51152 0.91175 0.0
C590 C 0.83168 0.49901 0.04082 0.0
C591 C 0.87641 0.50329 0.9569 0.0
N592 N 0.80906 0.44432 0.0044 0.0
N593 N 0.9107 0.54373 0.00689 0.0
H594 H 0.88984 0.49674 0.87762 0.0
H595 H 0.9057 0.53506 0.90723 0.0
H596 H 0.91691 0.55663 0.04137 0.0
H597 H 0.9301 0.54253 0.98013 0.0
H598 H 0.79552 0.43848 0.03765 0.0
H599 H 0.80444 0.42681 0.97352 0.0
H600 H 0.78344 0.48764 0.07084 0.0
H601 H 0.80324 0.52381 0.10022 0.0
C602 C 0.22489 0.13273 0.74946 0.0
C603 C 0.21562 0.10131 0.7761 0.0
C604 C 0.2648 0.07006 0.74175 0.0
C605 C 0.27512 0.1021 0.71778 0.0
N606 N 0.26827 0.16505 0.70388 0.0
N607 N 0.22751 0.04095 0.80195 0.0
C608 C 0.25597 0.13375 0.72285 0.0
C609 C 0.2359 0.07026 0.77365 0.0
N610 N 0.20392 0.16155 0.74958 0.0
N611 N 0.28176 0.03905 0.73202 0.0
H612 H 0.20511 0.03889 0.82217 0.0
H613 H 0.24335 0.01927 0.80754 0.0
H614 H 0.30333 0.0379 0.70957 0.0
H615 H 0.27337 0.01401 0.7431 0.0
H616 H 0.20727 0.18384 0.72644 0.0
H617 H 0.18172 0.16239 0.77055 0.0
H618 H 0.25738 0.18985 0.71041 0.0
H619 H 0.29115 0.16669 0.68486 0.0
C620 C 0.66656 0.51915 0.50318 0.0
C621 C 0.63701 0.52603 0.4742 0.0
C622 C 0.60734 0.4792 0.52121 0.0
C623 C 0.63782 0.47018 0.54659 0.0
N624 N 0.69757 0.47727 0.55595 0.0
N625 N 0.57969 0.51234 0.45249 0.0
C626 C 0.66772 0.48915 0.5363 0.0
C627 C 0.60746 0.50597 0.48235 0.0
N628 N 0.69346 0.5415 0.49929 0.0
N629 N 0.57821 0.46301 0.53553 0.0
H630 H 0.57838 0.53331 0.42624 0.0
H631 H 0.55858 0.49609 0.45188 0.0
H632 H 0.57731 0.44302 0.56337 0.0
H633 H 0.55463 0.47088 0.52261 0.0
H634 H 0.71436 0.54025 0.52362 0.0
H635 H 0.6938 0.56337 0.47458 0.0
H636 H 0.72071 0.4876 0.54545 0.0
H637 H 0.69961 0.45473 0.57914 0.0
C638 C 0.26501 0.92774 0.28822 0.0
C639 C 0.28908 0.90151 0.27388 0.0
C640 C 0.24993 0.87728 0.20861 0.0
C641 C 0.22628 0.90416 0.22169 0.0
N642 N 0.2149 0.96033 0.26452 0.0
N643 N 0.30677 0.85579 0.2138 0.0
C644 C 0.23459 0.9307 0.25931 0.0
C645 C 0.28227 0.8778 0.23191 0.0
N646 N 0.27146 0.95054 0.32879 0.0
N647 N 0.24113 0.85028 0.17515 0.0
H648 H 0.33 0.8539 0.23149 0.0
H649 H 0.30515 0.84155 0.17902 0.0
H650 H 0.21775 0.84829 0.15726 0.0
H651 H 0.2557 0.82771 0.16868 0.0
H652 H 0.25313 0.96616 0.34632 0.0
H653 H 0.29493 0.95314 0.34635 0.0
H654 H 0.22155 0.98248 0.28693 0.0
H655 H 0.19336 0.9647 0.24245 0.0
C656 C 0.66963 1e-05 0.53338 0.0
C657 C 0.64111 0.02262 0.53291 0.0
C658 C 0.62174 0.99421 0.45219 0.0
C659 C 0.64733 0.96824 0.45697 0.0
N660 N 0.69524 0.94511 0.50377 0.0
N661 N 0.58641 0.03557 0.49796 0.0
C662 C 0.67095 0.97051 0.49842 0.0
C663 C 0.6163 0.01838 0.49374 0.0
N664 N 0.69647 0.00801 0.56471 0.0
N665 N 0.60246 0.99607 0.40825 0.0
H666 H 0.58074 0.05119 0.53003 0.0
H667 H 0.56603 0.03069 0.47337 0.0
H668 H 0.60359 0.97761 0.37791 0.0
H669 H 0.5865 0.0174 0.40066 0.0
H670 H 0.71928 0.99467 0.56276 0.0
H671 H 0.69742 0.03038 0.58893 0.0
H672 H 0.71008 0.94276 0.53701 0.0
H673 H 0.69965 0.92523 0.47618 0.0
C674 C 0.26084 0.36538 0.71238 0.0
C675 C 0.2823 0.39562 0.71259 0.0
C676 C 0.24101 0.4298 0.7622 0.0
C677 C 0.22099 0.39873 0.766 0.0
N678 N 0.21237 0.33613 0.74938 0.0
N679 N 0.29471 0.45572 0.7409 0.0
C680 C 0.23088 0.36631 0.74196 0.0
C681 C 0.27296 0.42756 0.73856 0.0
N682 N 0.2692 0.33582 0.68389 0.0
N683 N 0.22883 0.46176 0.7797 0.0
H684 H 0.31764 0.45592 0.72191 0.0
H685 H 0.29118 0.47808 0.76441 0.0
H686 H 0.20528 0.4644 0.79645 0.0
H687 H 0.24049 0.48615 0.77352 0.0
H688 H 0.25301 0.31453 0.67697 0.0
H689 H 0.29199 0.33327 0.66479 0.0
H690 H 0.22008 0.31074 0.73815 0.0
H691 H 0.18986 0.33616 0.7696 0.0
C692 C 0.87486 0.9921 0.94606 0.0
C693 C 0.85117 0.02 0.95228 0.0
C694 C 0.82975 0.99067 0.03011 0.0
C695 C 0.85738 0.96689 0.02905 0.0
N696 N 0.90845 0.9474 0.98859 0.0
N697 N 0.80466 0.04532 -0.00055 0.0
C698 C 0.8803 0.96796 0.9874 0.0
C699 C 0.82835 0.01926 0.99432 0.0
N700 N 0.89213 0.98821 0.90082 0.0
N701 N 0.80366 0.98452 0.06295 0.0
H702 H 0.79929 0.06382 0.9706 0.0
H703 H 0.79091 0.04926 0.03319 0.0
H704 H 0.80262 0.96258 0.08742 0.0
H705 H 0.78132 -0.00123 0.06201 0.0
H706 H 0.90636 0.96569 0.89219 0.0
H707 H 0.89075 0.00607 0.87024 0.0
H708 H 0.92814 0.95025 0.96268 0.0
H709 H 0.91355 0.92982 0.01851 0.0
C710 C 0.24634 0.63483 0.22593 0.0
C711 C 0.22571 0.60413 0.22105 0.0
C712 C 0.26745 0.56848 0.26816 0.0
C713 C 0.2878 0.59931 0.27375 0.0
N714 N 0.29743 0.66188 0.26026 0.0
N715 N 0.21406 0.54281 0.24133 0.0
C716 C 0.27753 0.63251 0.25298 0.0
C717 C 0.2355 0.57125 0.24344 0.0
N718 N 0.23569 0.66623 0.20494 0.0
N719 N 0.27934 0.53636 0.28505 0.0
H720 H 0.19105 0.5435 0.22197 0.0
H721 H 0.21784 0.51909 0.26111 0.0
H722 H 0.3027 0.5335 0.30294 0.0
H723 H 0.26745 0.51206 0.27849 0.0
H724 H 0.25018 0.68912 0.20213 0.0
H725 H 0.21162 0.66937 0.18982 0.0
H726 H 0.29075 0.68773 0.2504 0.0
H727 H 0.32106 0.66061 0.27761 0.0
C728 C 0.36972 0.02852 0.48406 0.0
C729 C 0.34946 0.02409 0.52858 0.0
C730 C 0.33989 0.96164 0.50139 0.0
C731 C 0.36519 0.96527 0.46332 0.0
N732 N 0.40993 0.00025 0.428 0.0
N733 N 0.31195 0.98616 0.57667 0.0
C734 C 0.38215 0.99803 0.45823 0.0
C735 C 0.33394 0.99036 0.53686 0.0
N736 N 0.37434 0.06121 0.46257 0.0
N737 N 0.3198 0.93211 0.50129 0.0
H738 H 0.30094 0.00757 0.59608 0.0
H739 H 0.30443 0.96131 0.59007 0.0
H740 H 0.32274 0.91072 0.47572 0.0
H741 H 0.29844 0.92982 0.52388 0.0
H742 H 0.38819 0.06497 0.42893 0.0
H743 H 0.35892 0.08273 0.47123 0.0
H744 H 0.4246 0.02321 0.42628 0.0
H745 H 0.4202 0.97792 0.40976 0.0
C746 C 0.7651 0.56198 0.23544 0.0
C747 C 0.78568 0.59277 0.23653 0.0
C748 C 0.74881 0.62061 0.30076 0.0
C749 C 0.72584 0.59179 0.29461 0.0
N750 N 0.71202 0.53455 0.25606 0.0
N751 N 0.79558 0.65321 0.26497 0.0
C752 C 0.73387 0.56243 0.26163 0.0
C753 C 0.77731 0.62247 0.26812 0.0
N754 N 0.77636 0.5316 0.21157 0.0
N755 N 0.74374 0.64617 0.33798 0.0
H756 H 0.8168 0.65553 0.24194 0.0
H757 H 0.78825 0.67725 0.2819 0.0
H758 H 0.72224 0.64773 0.36042 0.0
H759 H 0.7618 0.66491 0.34872 0.0
H760 H 0.76433 0.50705 0.21349 0.0
H761 H 0.79966 0.53001 0.19378 0.0
H762 H 0.71405 0.51514 0.22714 0.0
H763 H 0.69099 0.53125 0.27915 0.0
C764 C 0.11074 0.99307 0.02804 0.0
C765 C 0.14182 0.97665 0.03918 0.0
C766 C 0.16929 0.01248 0.97274 0.0
C767 C 0.13851 0.03045 0.96348 0.0
N768 N 0.08102 0.04117 0.98626 0.0
N769 N 0.20138 0.97221 0.02724 0.0
C770 C 0.10954 0.02168 0.99233 0.0
C771 C 0.1713 0.98666 0.01278 0.0
N772 N 0.08223 0.9807 0.05081 0.0
N773 N 0.19661 0.0201 0.94317 0.0
H774 H 0.20361 0.9524 0.05523 0.0
H775 H 0.22442 0.9811 0.01402 0.0
H776 H 0.19715 0.04094 0.91675 0.0
H777 H 0.21839 0.00491 0.94295 0.0
H778 H 0.0582 0.98853 0.04003 0.0
H779 H 0.08235 0.96052 0.07838 0.0
H780 H 0.06025 0.03928 0.01019 0.0
H781 H 0.07896 0.06106 0.95882 0.0
C782 C 0.73101 0.36265 0.75273 0.0
C783 C 0.72168 0.39277 0.7229 0.0
C784 C 0.77476 0.42224 0.74677 0.0
C785 C 0.7847 0.39115 0.77382 0.0
N786 N 0.77545 0.32979 0.79585 0.0
N787 N 0.73512 0.4507 0.68862 0.0
C788 C 0.76368 0.36078 0.77484 0.0
C789 C 0.74385 0.42231 0.71881 0.0
N790 N 0.70835 0.33613 0.76092 0.0
N791 N 0.79401 0.45236 0.75026 0.0
H792 H 0.71129 0.45383 0.67257 0.0
H793 H 0.75176 0.47062 0.67789 0.0
H794 H 0.81713 0.45313 0.76929 0.0
H795 H 0.78637 0.47723 0.73708 0.0
H796 H 0.71212 0.31526 0.78668 0.0
H797 H 0.68446 0.3367 0.74503 0.0
H798 H 0.76287 0.30553 0.79328 0.0
H799 H 0.79941 0.32753 0.81195 0.0
loop_
_geom_bond_atom_site_label_1
_geom_bond_atom_site_label_2
_geom_bond_distance
_geom_bond_site_symmetry_2
_ccdc_geom_bond_type
Co0 O1 2.216 . S
Co0 O2 2.091 . S
Co0 O4 2.004 . S
Co0 O10 2.021 . S
Co0 O12 2.137 . S
Co0 O13 2.244 . S
O1 Co0 2.216 . S
O1 C8 1.247 . S
O2 Co0 2.091 . S
O2 C8 1.261 . S
C3 O12 1.247 . S
C3 O13 1.272 . S
O4 Co0 2.004 . S
O4 C9 1.259 . S
Co5 O6 2.061 . S
Co5 O11 2.052 . S
Co5 O13 2.135 . S
O6 Co5 2.061 . S
O6 C9 1.235 . S
C7 O10 1.238 . S
C7 O11 1.241 . S
C8 O1 1.247 . S
C8 O2 1.261 . S
C9 O4 1.259 . S
C9 O6 1.235 . S
O10 Co0 2.021 . S
O10 C7 1.238 . S
O11 Co5 2.052 . S
O11 C7 1.241 . S
O12 Co0 2.137 . S
O12 C3 1.247 . S
O13 Co0 2.244 . S
O13 C3 1.272 . S
O13 Co5 2.135 . S
Co14 O15 2.216 . S
Co14 O16 2.091 . S
Co14 O18 2.004 . S
Co14 O24 2.021 . S
Co14 O26 2.137 . S
Co14 O27 2.244 . S
O15 Co14 2.216 . S
O15 C22 1.247 . S
O16 Co14 2.091 . S
O16 C22 1.261 . S
C17 O26 1.247 . S
C17 O27 1.272 . S
O18 Co14 2.004 . S
O18 C23 1.259 . S
Co19 O20 2.061 . S
Co19 O25 2.052 . S
Co19 O27 2.135 . S
O20 Co19 2.061 . S
O20 C23 1.235 . S
C21 O24 1.238 . S
C21 O25 1.241 . S
C22 O15 1.247 . S
C22 O16 1.261 . S
C23 O18 1.259 . S
C23 O20 1.235 . S
O24 Co14 2.021 . S
O24 C21 1.238 . S
O25 Co19 2.052 . S
O25 C21 1.241 . S
O26 Co14 2.137 . S
O26 C17 1.247 . S
O27 Co14 2.244 . S
O27 C17 1.272 . S
O27 Co19 2.135 . S
Co28 O29 2.216 . S
Co28 O30 2.091 . S
Co28 O32 2.004 . S
Co28 O38 2.021 . S
Co28 O40 2.137 . S
Co28 O41 2.244 . S
O29 Co28 2.216 . S
O29 C36 1.247 . S
O30 Co28 2.091 . S
O30 C36 1.261 . S
C31 O40 1.247 . S
C31 O41 1.272 . S
O32 Co28 2.004 . S
O32 C37 1.259 . S
Co33 O34 2.061 . S
Co33 O39 2.052 . S
Co33 O41 2.135 . S
O34 Co33 2.061 . S
O34 C37 1.235 . S
C35 O38 1.238 . S
C35 O39 1.241 . S
C36 O29 1.247 . S
C36 O30 1.261 . S
C37 O32 1.259 . S
C37 O34 1.235 . S
O38 Co28 2.021 . S
O38 C35 1.238 . S
O39 Co33 2.052 . S
O39 C35 1.241 . S
O40 Co28 2.137 . S
O40 C31 1.247 . S
O41 Co28 2.244 . S
O41 C31 1.272 . S
O41 Co33 2.135 . S
Co42 O43 2.216 . S
Co42 O44 2.091 . S
Co42 O46 2.004 . S
Co42 O52 2.021 . S
Co42 O54 2.137 . S
Co42 O55 2.244 . S
O43 Co42 2.216 . S
O43 C50 1.247 . S
O44 Co42 2.091 . S
O44 C50 1.261 . S
C45 O54 1.247 . S
C45 O55 1.272 . S
O46 Co42 2.004 . S
O46 C51 1.259 . S
Co47 O48 2.061 . S
Co47 O53 2.052 . S
Co47 O55 2.135 . S
O48 Co47 2.061 . S
O48 C51 1.235 . S
C49 O52 1.238 . S
C49 O53 1.241 . S
C50 O43 1.247 . S
C50 O44 1.261 . S
C51 O46 1.259 . S
C51 O48 1.235 . S
O52 Co42 2.021 . S
O52 C49 1.238 . S
O53 Co47 2.052 . S
O53 C49 1.241 . S
O54 Co42 2.137 . S
O54 C45 1.247 . S
O55 Co42 2.244 . S
O55 C45 1.272 . S
O55 Co47 2.135 . S
Co56 O57 2.216 . S
Co56 O58 2.091 . S
Co56 O60 2.004 . S
Co56 O66 2.021 . S
Co56 O68 2.137 . S
Co56 O69 2.244 . S
O57 Co56 2.216 . S
O57 C64 1.247 . S
O58 Co56 2.091 . S
O58 C64 1.261 . S
C59 O68 1.247 . S
C59 O69 1.272 . S
O60 Co56 2.004 . S
O60 C65 1.259 . S
Co61 O62 2.061 . S
Co61 O67 2.052 . S
Co61 O69 2.135 . S
O62 Co61 2.061 . S
O62 C65 1.235 . S
C63 O66 1.238 . S
C63 O67 1.241 . S
C64 O57 1.247 . S
C64 O58 1.261 . S
C65 O60 1.259 . S
C65 O62 1.235 . S
O66 Co56 2.021 . S
O66 C63 1.238 . S
O67 Co61 2.052 . S
O67 C63 1.241 . S
O68 Co56 2.137 . S
O68 C59 1.247 . S
O69 Co56 2.244 . S
O69 C59 1.272 . S
O69 Co61 2.135 . S
Co70 O71 2.216 . S
Co70 O72 2.091 . S
Co70 O74 2.004 . S
Co70 O80 2.021 . S
Co70 O82 2.137 . S
Co70 O83 2.244 . S
O71 Co70 2.216 . S
O71 C78 1.247 . S
O72 Co70 2.091 . S
O72 C78 1.261 . S
C73 O82 1.247 . S
C73 O83 1.272 . S
O74 Co70 2.004 . S
O74 C79 1.259 . S
Co75 O76 2.061 . S
Co75 O81 2.052 . S
Co75 O83 2.135 . S
O76 Co75 2.061 . S
O76 C79 1.235 . S
C77 O80 1.238 . S
C77 O81 1.241 . S
C78 O71 1.247 . S
C78 O72 1.261 . S
C79 O74 1.259 . S
C79 O76 1.235 . S
O80 Co70 2.021 . S
O80 C77 1.238 . S
O81 Co75 2.052 . S
O81 C77 1.241 . S
O82 Co70 2.137 . S
O82 C73 1.247 . S
O83 Co70 2.244 . S
O83 C73 1.272 . S
O83 Co75 2.135 . S
Co84 O85 2.216 . S
Co84 O86 2.091 . S
Co84 O88 2.004 . S
Co84 O94 2.021 . S
Co84 O96 2.137 . S
Co84 O97 2.244 . S
O85 Co84 2.216 . S
O85 C92 1.247 . S
O86 Co84 2.091 . S
O86 C92 1.261 . S
C87 O96 1.247 . S
C87 O97 1.272 . S
O88 Co84 2.004 . S
O88 C93 1.259 . S
Co89 O90 2.061 . S
Co89 O95 2.052 . S
Co89 O97 2.135 . S
O90 Co89 2.061 . S
O90 C93 1.235 . S
C91 O94 1.238 . S
C91 O95 1.241 . S
C92 O85 1.247 . S
C92 O86 1.261 . S
C93 O88 1.259 . S
C93 O90 1.235 . S
O94 Co84 2.021 . S
O94 C91 1.238 . S
O95 Co89 2.052 . S
O95 C91 1.241 . S
O96 Co84 2.137 . S
O96 C87 1.247 . S
O97 Co84 2.244 . S
O97 C87 1.272 . S
O97 Co89 2.135 . S
Co98 O99 2.216 . S
Co98 O100 2.091 . S
Co98 O102 2.004 . S
Co98 O108 2.021 . S
Co98 O110 2.137 . S
Co98 O111 2.244 . S
O99 Co98 2.216 . S
O99 C106 1.247 . S
O100 Co98 2.091 . S
O100 C106 1.261 . S
C101 O110 1.247 . S
C101 O111 1.272 . S
O102 Co98 2.004 . S
O102 C107 1.259 . S
Co103 O104 2.061 . S
Co103 O109 2.052 . S
Co103 O111 2.135 . S
O104 Co103 2.061 . S
O104 C107 1.235 . S
C105 O108 1.238 . S
C105 O109 1.241 . S
C106 O99 1.247 . S
C106 O100 1.261 . S
C107 O102 1.259 . S
C107 O104 1.235 . S
O108 Co98 2.021 . S
O108 C105 1.238 . S
O109 Co103 2.052 . S
O109 C105 1.241 . S
O110 Co98 2.137 . S
O110 C101 1.247 . S
O111 Co98 2.244 . S
O111 C101 1.272 . S
O111 Co103 2.135 . S
Co112 O113 2.216 . S
Co112 O114 2.091 . S
Co112 O116 2.004 . S
Co112 O122 2.021 . S
Co112 O124 2.137 . S
Co112 O125 2.244 . S
O113 Co112 2.216 . S
O113 C120 1.247 . S
O114 Co112 2.091 . S
O114 C120 1.261 . S
C115 O124 1.247 . S
C115 O125 1.272 . S
O116 Co112 2.004 . S
O116 C121 1.259 . S
Co117 O118 2.061 . S
Co117 O123 2.052 . S
Co117 O125 2.135 . S
O118 Co117 2.061 . S
O118 C121 1.235 . S
C119 O122 1.238 . S
C119 O123 1.241 . S
C120 O113 1.247 . S
C120 O114 1.261 . S
C121 O116 1.259 . S
C121 O118 1.235 . S
O122 Co112 2.021 . S
O122 C119 1.238 . S
O123 Co117 2.052 . S
O123 C119 1.241 . S
O124 Co112 2.137 . S
O124 C115 1.247 . S
O125 Co112 2.244 . S
O125 C115 1.272 . S
O125 Co117 2.135 . S
Co126 O127 2.216 . S
Co126 O128 2.091 . S
Co126 O130 2.004 . S
Co126 O136 2.021 . S
Co126 O138 2.137 . S
Co126 O139 2.244 . S
O127 Co126 2.216 . S
O127 C134 1.247 . S
O128 Co126 2.091 . S
O128 C134 1.261 . S
C129 O138 1.247 . S
C129 O139 1.272 . S
O130 Co126 2.004 . S
O130 C135 1.259 . S
Co131 O132 2.061 . S
Co131 O137 2.052 . S
Co131 O139 2.135 . S
O132 Co131 2.061 . S
O132 C135 1.235 . S
C133 O136 1.238 . S
C133 O137 1.241 . S
C134 O127 1.247 . S
C134 O128 1.261 . S
C135 O130 1.259 . S
C135 O132 1.235 . S
O136 Co126 2.021 . S
O136 C133 1.238 . S
O137 Co131 2.052 . S
O137 C133 1.241 . S
O138 Co126 2.137 . S
O138 C129 1.247 . S
O139 Co126 2.244 . S
O139 C129 1.272 . S
O139 Co131 2.135 . S
Co140 O141 2.216 . S
Co140 O142 2.091 . S
Co140 O144 2.004 . S
Co140 O150 2.021 . S
Co140 O152 2.137 . S
Co140 O153 2.244 . S
O141 Co140 2.216 . S
O141 C148 1.247 . S
O142 Co140 2.091 . S
O142 C148 1.261 . S
C143 O152 1.247 . S
C143 O153 1.272 . S
O144 Co140 2.004 . S
O144 C149 1.259 . S
Co145 O146 2.061 . S
Co145 O151 2.052 . S
Co145 O153 2.135 . S
O146 Co145 2.061 . S
O146 C149 1.235 . S
C147 O150 1.238 . S
C147 O151 1.241 . S
C148 O141 1.247 . S
C148 O142 1.261 . S
C149 O144 1.259 . S
C149 O146 1.235 . S
O150 Co140 2.021 . S
O150 C147 1.238 . S
O151 Co145 2.052 . S
O151 C147 1.241 . S
O152 Co140 2.137 . S
O152 C143 1.247 . S
O153 Co140 2.244 . S
O153 C143 1.272 . S
O153 Co145 2.135 . S
Co154 O155 2.216 . S
Co154 O156 2.091 . S
Co154 O158 2.004 . S
Co154 O164 2.021 . S
Co154 O166 2.137 . S
Co154 O167 2.244 . S
O155 Co154 2.216 . S
O155 C162 1.247 . S
O156 Co154 2.091 . S
O156 C162 1.261 . S
C157 O166 1.247 . S
C157 O167 1.272 . S
O158 Co154 2.004 . S
O158 C163 1.259 . S
Co159 O160 2.061 . S
Co159 O165 2.052 . S
Co159 O167 2.135 . S
O160 Co159 2.061 . S
O160 C163 1.235 . S
C161 O164 1.238 . S
C161 O165 1.241 . S
C162 O155 1.247 . S
C162 O156 1.261 . S
C163 O158 1.259 . S
C163 O160 1.235 . S
O164 Co154 2.021 . S
O164 C161 1.238 . S
O165 Co159 2.052 . S
O165 C161 1.241 . S
O166 Co154 2.137 . S
O166 C157 1.247 . S
O167 Co154 2.244 . S
O167 C157 1.272 . S
O167 Co159 2.135 . S
Co168 O169 2.216 . S
Co168 O170 2.091 . S
Co168 O172 2.004 . S
Co168 O178 2.021 . S
Co168 O180 2.137 . S
Co168 O181 2.244 . S
O169 Co168 2.216 . S
O169 C176 1.247 . S
O170 Co168 2.091 . S
O170 C176 1.261 . S
C171 O180 1.247 . S
C171 O181 1.272 . S
O172 Co168 2.004 . S
O172 C177 1.259 . S
Co173 O174 2.061 . S
Co173 O179 2.052 . S
Co173 O181 2.135 . S
O174 Co173 2.061 . S
O174 C177 1.235 . S
C175 O178 1.238 . S
C175 O179 1.241 . S
C176 O169 1.247 . S
C176 O170 1.261 . S
C177 O172 1.259 . S
C177 O174 1.235 . S
O178 Co168 2.021 . S
O178 C175 1.238 . S
O179 Co173 2.052 . S
O179 C175 1.241 . S
O180 Co168 2.137 . S
O180 C171 1.247 . S
O181 Co168 2.244 . S
O181 C171 1.272 . S
O181 Co173 2.135 . S
Co182 O183 2.216 . S
Co182 O184 2.091 . S
Co182 O186 2.004 . S
Co182 O192 2.021 . S
Co182 O194 2.137 . S
Co182 O195 2.244 . S
O183 Co182 2.216 . S
O183 C190 1.247 . S
O184 Co182 2.091 . S
O184 C190 1.261 . S
C185 O194 1.247 . S
C185 O195 1.272 . S
O186 Co182 2.004 . S
O186 C191 1.259 . S
Co187 O188 2.061 . S
Co187 O193 2.052 . S
Co187 O195 2.135 . S
O188 Co187 2.061 . S
O188 C191 1.235 . S
C189 O192 1.238 . S
C189 O193 1.241 . S
C190 O183 1.247 . S
C190 O184 1.261 . S
C191 O186 1.259 . S
C191 O188 1.235 . S
O192 Co182 2.021 . S
O192 C189 1.238 . S
O193 Co187 2.052 . S
O193 C189 1.241 . S
O194 Co182 2.137 . S
O194 C185 1.247 . S
O195 Co182 2.244 . S
O195 C185 1.272 . S
O195 Co187 2.135 . S
Co196 O197 2.216 . S
Co196 O198 2.091 . S
Co196 O200 2.004 . S
Co196 O206 2.021 . S
Co196 O208 2.137 . S
Co196 O209 2.244 . S
O197 Co196 2.216 . S
O197 C204 1.247 . S
O198 Co196 2.091 . S
O198 C204 1.261 . S
C199 O208 1.247 . S
C199 O209 1.272 . S
O200 Co196 2.004 . S
O200 C205 1.259 . S
Co201 O202 2.061 . S
Co201 O207 2.052 . S
Co201 O209 2.135 . S
O202 Co201 2.061 . S
O202 C205 1.235 . S
C203 O206 1.238 . S
C203 O207 1.241 . S
C204 O197 1.247 . S
C204 O198 1.261 . S
C205 O200 1.259 . S
C205 O202 1.235 . S
O206 Co196 2.021 . S
O206 C203 1.238 . S
O207 Co201 2.052 . S
O207 C203 1.241 . S
O208 Co196 2.137 . S
O208 C199 1.247 . S
O209 Co196 2.244 . S
O209 C199 1.272 . S
O209 Co201 2.135 . S
Co210 O211 2.216 . S
Co210 O212 2.091 . S
Co210 O214 2.004 . S
Co210 O220 2.021 . S
Co210 O222 2.137 . S
Co210 O223 2.244 . S
O211 Co210 2.216 . S
O211 C218 1.247 . S
O212 Co210 2.091 . S
O212 C218 1.261 . S
C213 O222 1.247 . S
C213 O223 1.272 . S
O214 Co210 2.004 . S
O214 C219 1.259 . S
Co215 O216 2.061 . S
Co215 O221 2.052 . S
Co215 O223 2.135 . S
O216 Co215 2.061 . S
O216 C219 1.235 . S
C217 O220 1.238 . S
C217 O221 1.241 . S
C218 O211 1.247 . S
C218 O212 1.261 . S
C219 O214 1.259 . S
C219 O216 1.235 . S
O220 Co210 2.021 . S
O220 C217 1.238 . S
O221 Co215 2.052 . S
O221 C217 1.241 . S
O222 Co210 2.137 . S
O222 C213 1.247 . S
O223 Co210 2.244 . S
O223 C213 1.272 . S
O223 Co215 2.135 . S
C224 C225 1.363 . S
C224 C230 1.379 . S
C224 N232 1.356 . S
C225 C224 1.363 . S
C225 C231 1.363 . S
C226 C227 1.363 . S
C226 C231 1.379 . S
C226 N233 1.356 . S
C227 C226 1.363 . S
C227 C230 1.363 . S
N228 C230 1.356 . S
N228 H240 0.984 . S
N228 H241 0.985 . S
N229 C231 1.356 . S
N229 H234 0.984 . S
N229 H235 0.985 . S
C230 C224 1.379 . S
C230 C227 1.363 . S
C230 N228 1.356 . S
C231 C225 1.363 . S
C231 C226 1.379 . S
C231 N229 1.356 . S
N232 C224 1.356 . S
N232 H238 0.984 . S
N232 H239 0.984 . S
N233 C226 1.356 . S
N233 H236 0.984 . S
N233 H237 0.985 . S
H234 N229 0.984 . S
H235 N229 0.985 . S
H236 N233 0.984 . S
H237 N233 0.985 . S
H238 N232 0.984 . S
H239 N232 0.984 . S
H240 N228 0.984 . S
H241 N228 0.985 . S
C242 C243 1.363 . S
C242 C248 1.379 . S
C242 N250 1.356 . S
C243 C242 1.363 . S
C243 C249 1.363 . S
C244 C245 1.363 . S
C244 C249 1.379 . S
C244 N251 1.356 . S
C245 C244 1.363 . S
C245 C248 1.363 . S
N246 C248 1.356 . S
N246 H258 0.984 . S
N246 H259 0.985 . S
N247 C249 1.356 . S
N247 H252 0.984 . S
N247 H253 0.985 . S
C248 C242 1.379 . S
C248 C245 1.363 . S
C248 N246 1.356 . S
C249 C243 1.363 . S
C249 C244 1.379 . S
C249 N247 1.356 . S
N250 C242 1.356 . S
N250 H256 0.984 . S
N250 H257 0.984 . S
N251 C244 1.356 . S
N251 H254 0.984 . S
N251 H255 0.985 . S
H252 N247 0.984 . S
H253 N247 0.985 . S
H254 N251 0.984 . S
H255 N251 0.985 . S
H256 N250 0.984 . S
H257 N250 0.984 . S
H258 N246 0.984 . S
H259 N246 0.985 . S
C260 C261 1.363 . S
C260 C266 1.379 . S
C260 N268 1.356 . S
C261 C260 1.363 . S
C261 C267 1.363 . S
C262 C263 1.363 . S
C262 C267 1.379 . S
C262 N269 1.356 . S
C263 C262 1.363 . S
C263 C266 1.363 . S
N264 C266 1.356 . S
N264 H276 0.984 . S
N264 H277 0.985 . S
N265 C267 1.356 . S
N265 H270 0.984 . S
N265 H271 0.985 . S
C266 C260 1.379 . S
C266 C263 1.363 . S
C266 N264 1.356 . S
C267 C261 1.363 . S
C267 C262 1.379 . S
C267 N265 1.356 . S
N268 C260 1.356 . S
N268 H274 0.984 . S
N268 H275 0.984 . S
N269 C262 1.356 . S
N269 H272 0.984 . S
N269 H273 0.985 . S
H270 N265 0.984 . S
H271 N265 0.985 . S
H272 N269 0.984 . S
H273 N269 0.985 . S
H274 N268 0.984 . S
H275 N268 0.984 . S
H276 N264 0.984 . S
H277 N264 0.985 . S
C278 C279 1.363 . S
C278 C284 1.379 1_455 S
C278 N286 1.356 . S
C279 C278 1.363 . S
C279 C285 1.363 . S
C280 C281 1.363 . S
C280 C285 1.379 1_655 S
C280 N287 1.356 . S
C281 C280 1.363 . S
C281 C284 1.363 . S
N282 C284 1.356 . S
N282 H294 0.984 . S
N282 H295 0.985 . S
N283 C285 1.356 . S
N283 H288 0.984 . S
N283 H289 0.985 . S
C284 C278 1.379 1_655 S
C284 C281 1.363 . S
C284 N282 1.356 . S
C285 C279 1.363 . S
C285 C280 1.379 1_455 S
C285 N283 1.356 . S
N286 C278 1.356 . S
N286 H292 0.984 . S
N286 H293 0.984 . S
N287 C280 1.356 . S
N287 H290 0.984 . S
N287 H291 0.985 . S
H288 N283 0.984 . S
H289 N283 0.985 . S
H290 N287 0.984 . S
H291 N287 0.985 . S
H292 N286 0.984 . S
H293 N286 0.984 . S
H294 N282 0.984 . S
H295 N282 0.985 . S
C296 C297 1.363 . S
C296 C302 1.379 . S
C296 N304 1.356 . S
C297 C296 1.363 . S
C297 C303 1.363 . S
C298 C299 1.363 . S
C298 C303 1.379 . S
C298 N305 1.356 . S
C299 C298 1.363 . S
C299 C302 1.363 . S
N300 C302 1.356 . S
N300 H312 0.984 . S
N300 H313 0.985 . S
N301 C303 1.356 . S
N301 H306 0.984 . S
N301 H307 0.985 . S
C302 C296 1.379 . S
C302 C299 1.363 . S
C302 N300 1.356 . S
C303 C297 1.363 . S
C303 C298 1.379 . S
C303 N301 1.356 . S
N304 C296 1.356 . S
N304 H310 0.984 . S
N304 H311 0.984 . S
N305 C298 1.356 . S
N305 H308 0.984 . S
N305 H309 0.985 . S
H306 N301 0.984 . S
H307 N301 0.985 . S
H308 N305 0.984 . S
H309 N305 0.985 . S
H310 N304 0.984 . S
H311 N304 0.984 . S
H312 N300 0.984 . S
H313 N300 0.985 . S
C314 C315 1.363 . S
C314 C320 1.379 1_655 S
C314 N322 1.356 . S
C315 C314 1.363 . S
C315 C321 1.363 . S
C316 C317 1.363 . S
C316 C321 1.379 1_455 S
C316 N323 1.356 . S
C317 C316 1.363 . S
C317 C320 1.363 . S
N318 C320 1.356 . S
N318 H330 0.984 . S
N318 H331 0.985 . S
N319 C321 1.356 . S
N319 H324 0.984 . S
N319 H325 0.985 . S
C320 C314 1.379 1_455 S
C320 C317 1.363 . S
C320 N318 1.356 . S
C321 C315 1.363 . S
C321 C316 1.379 1_655 S
C321 N319 1.356 . S
N322 C314 1.356 . S
N322 H328 0.984 . S
N322 H329 0.984 . S
N323 C316 1.356 . S
N323 H326 0.984 . S
N323 H327 0.985 . S
H324 N319 0.984 . S
H325 N319 0.985 . S
H326 N323 0.984 . S
H327 N323 0.985 . S
H328 N322 0.984 . S
H329 N322 0.984 . S
H330 N318 0.984 . S
H331 N318 0.985 . S
C332 C333 1.363 . S
C332 C338 1.379 . S
C332 N340 1.356 . S
C333 C332 1.363 . S
C333 C339 1.363 . S
C334 C335 1.363 . S
C334 C339 1.379 . S
C334 N341 1.356 . S
C335 C334 1.363 . S
C335 C338 1.363 . S
N336 C338 1.356 . S
N336 H348 0.984 . S
N336 H349 0.985 . S
N337 C339 1.356 . S
N337 H342 0.984 . S
N337 H343 0.985 . S
C338 C332 1.379 . S
C338 C335 1.363 . S
C338 N336 1.356 . S
C339 C333 1.363 . S
C339 C334 1.379 . S
C339 N337 1.356 . S
N340 C332 1.356 . S
N340 H346 0.984 . S
N340 H347 0.984 . S
N341 C334 1.356 . S
N341 H344 0.984 . S
N341 H345 0.985 . S
H342 N337 0.984 . S
H343 N337 0.985 . S
H344 N341 0.984 . S
H345 N341 0.985 . S
H346 N340 0.984 . S
H347 N340 0.984 . S
H348 N336 0.984 . S
H349 N336 0.985 . S
C350 C351 1.363 . S
C350 C356 1.379 . S
C350 N358 1.356 . S
C351 C350 1.363 . S
C351 C357 1.363 . S
C352 C353 1.363 . S
C352 C357 1.379 . S
C352 N359 1.356 . S
C353 C352 1.363 . S
C353 C356 1.363 . S
N354 C356 1.356 . S
N354 H366 0.984 . S
N354 H367 0.985 . S
N355 C357 1.356 . S
N355 H360 0.984 . S
N355 H361 0.985 . S
C356 C350 1.379 . S
C356 C353 1.363 . S
C356 N354 1.356 . S
C357 C351 1.363 . S
C357 C352 1.379 . S
C357 N355 1.356 . S
N358 C350 1.356 . S
N358 H364 0.984 . S
N358 H365 0.984 . S
N359 C352 1.356 . S
N359 H362 0.984 . S
N359 H363 0.985 . S
H360 N355 0.984 . S
H361 N355 0.985 . S
H362 N359 0.984 . S
H363 N359 0.985 . S
H364 N358 0.984 . S
H365 N358 0.984 . S
H366 N354 0.984 . S
H367 N354 0.985 . S
C368 C369 1.363 . S
C368 C374 1.379 . S
C368 N376 1.356 . S
C369 C368 1.363 . S
C369 C375 1.363 . S
C370 C371 1.363 . S
C370 C375 1.379 . S
C370 N377 1.356 . S
C371 C370 1.363 . S
C371 C374 1.363 . S
N372 C374 1.356 . S
N372 H384 0.984 . S
N372 H385 0.985 . S
N373 C375 1.356 . S
N373 H378 0.984 . S
N373 H379 0.985 . S
C374 C368 1.379 . S
C374 C371 1.363 . S
C374 N372 1.356 . S
C375 C369 1.363 . S
C375 C370 1.379 . S
C375 N373 1.356 . S
N376 C368 1.356 . S
N376 H382 0.984 . S
N376 H383 0.984 . S
N377 C370 1.356 . S
N377 H380 0.984 . S
N377 H381 0.985 . S
H378 N373 0.984 . S
H379 N373 0.985 . S
H380 N377 0.984 . S
H381 N377 0.985 . S
H382 N376 0.984 . S
H383 N376 0.984 . S
H384 N372 0.984 . S
H385 N372 0.985 . S
C386 C387 1.363 . S
C386 C392 1.379 . S
C386 N394 1.356 . S
C387 C386 1.363 . S
C387 C393 1.363 . S
C388 C389 1.363 . S
C388 C393 1.379 . S
C388 N395 1.356 . S
C389 C388 1.363 . S
C389 C392 1.363 . S
N390 C392 1.356 . S
N390 H402 0.984 . S
N390 H403 0.985 . S
N391 C393 1.356 . S
N391 H396 0.984 . S
N391 H397 0.985 . S
C392 C386 1.379 . S
C392 C389 1.363 . S
C392 N390 1.356 . S
C393 C387 1.363 . S
C393 C388 1.379 . S
C393 N391 1.356 . S
N394 C386 1.356 . S
N394 H400 0.984 . S
N394 H401 0.984 . S
N395 C388 1.356 . S
N395 H398 0.984 . S
N395 H399 0.985 . S
H396 N391 0.984 . S
H397 N391 0.985 . S
H398 N395 0.984 . S
H399 N395 0.985 . S
H400 N394 0.984 . S
H401 N394 0.984 . S
H402 N390 0.984 . S
H403 N390 0.985 . S
C404 C405 1.363 . S
C404 C410 1.379 . S
C404 N412 1.356 . S
C405 C404 1.363 . S
C405 C411 1.363 . S
C406 C407 1.363 . S
C406 C411 1.379 . S
C406 N413 1.356 . S
C407 C406 1.363 . S
C407 C410 1.363 . S
N408 C410 1.356 . S
N408 H420 0.984 . S
N408 H421 0.985 . S
N409 C411 1.356 . S
N409 H414 0.984 . S
N409 H415 0.985 . S
C410 C404 1.379 . S
C410 C407 1.363 . S
C410 N408 1.356 . S
C411 C405 1.363 . S
C411 C406 1.379 . S
C411 N409 1.356 . S
N412 C404 1.356 . S
N412 H418 0.984 . S
N412 H419 0.984 . S
N413 C406 1.356 . S
N413 H416 0.984 . S
N413 H417 0.985 . S
H414 N409 0.984 . S
H415 N409 0.985 . S
H416 N413 0.984 . S
H417 N413 0.985 . S
H418 N412 0.984 . S
H419 N412 0.984 . S
H420 N408 0.984 . S
H421 N408 0.985 . S
C422 C423 1.363 . S
C422 C428 1.379 . S
C422 N430 1.356 . S
C423 C422 1.363 . S
C423 C429 1.363 . S
C424 C425 1.363 . S
C424 C429 1.379 . S
C424 N431 1.356 . S
C425 C424 1.363 . S
C425 C428 1.363 . S
N426 C428 1.356 . S
N426 H438 0.984 . S
N426 H439 0.985 . S
N427 C429 1.356 . S
N427 H432 0.984 . S
N427 H433 0.985 . S
C428 C422 1.379 . S
C428 C425 1.363 . S
C428 N426 1.356 . S
C429 C423 1.363 . S
C429 C424 1.379 . S
C429 N427 1.356 . S
N430 C422 1.356 . S
N430 H436 0.984 . S
N430 H437 0.984 . S
N431 C424 1.356 . S
N431 H434 0.984 . S
N431 H435 0.985 . S
H432 N427 0.984 . S
H433 N427 0.985 . S
H434 N431 0.984 . S
H435 N431 0.985 . S
H436 N430 0.984 . S
H437 N430 0.984 . S
H438 N426 0.984 . S
H439 N426 0.985 . S
C440 C441 1.363 . S
C440 C446 1.379 1_455 S
C440 N448 1.356 . S
C441 C440 1.363 . S
C441 C447 1.363 . S
C442 C443 1.363 . S
C442 C447 1.379 1_655 S
C442 N449 1.356 . S
C443 C442 1.363 . S
C443 C446 1.363 . S
N444 C446 1.356 . S
N444 H456 0.984 . S
N444 H457 0.985 . S
N445 C447 1.356 . S
N445 H450 0.984 . S
N445 H451 0.985 . S
C446 C440 1.379 1_655 S
C446 C443 1.363 . S
C446 N444 1.356 . S
C447 C441 1.363 . S
C447 C442 1.379 1_455 S
C447 N445 1.356 . S
N448 C440 1.356 . S
N448 H454 0.984 . S
N448 H455 0.984 . S
N449 C442 1.356 . S
N449 H452 0.984 . S
N449 H453 0.985 . S
H450 N445 0.984 . S
H451 N445 0.985 . S
H452 N449 0.984 . S
H453 N449 0.985 . S
H454 N448 0.984 . S
H455 N448 0.984 . S
H456 N444 0.984 . S
H457 N444 0.985 . S
C458 C459 1.363 . S
C458 C464 1.379 . S
C458 N466 1.356 . S
C459 C458 1.363 . S
C459 C465 1.363 . S
C460 C461 1.363 . S
C460 C465 1.379 . S
C460 N467 1.356 . S
C461 C460 1.363 . S
C461 C464 1.363 . S
N462 C464 1.356 . S
N462 H474 0.984 . S
N462 H475 0.985 . S
N463 C465 1.356 . S
N463 H468 0.984 . S
N463 H469 0.985 . S
C464 C458 1.379 . S
C464 C461 1.363 . S
C464 N462 1.356 . S
C465 C459 1.363 . S
C465 C460 1.379 . S
C465 N463 1.356 . S
N466 C458 1.356 . S
N466 H472 0.984 . S
N466 H473 0.984 . S
N467 C460 1.356 . S
N467 H470 0.984 . S
N467 H471 0.985 . S
H468 N463 0.984 . S
H469 N463 0.985 . S
H470 N467 0.984 . S
H471 N467 0.985 . S
H472 N466 0.984 . S
H473 N466 0.984 . S
H474 N462 0.984 . S
H475 N462 0.985 . S
C476 C477 1.363 . S
C476 C482 1.379 . S
C476 N484 1.356 . S
C477 C476 1.363 . S
C477 C483 1.363 . S
C478 C479 1.363 . S
C478 C483 1.379 . S
C478 N485 1.356 . S
C479 C478 1.363 . S
C479 C482 1.363 . S
N480 C482 1.356 . S
N480 H492 0.984 . S
N480 H493 0.985 . S
N481 C483 1.356 . S
N481 H486 0.984 . S
N481 H487 0.985 . S
C482 C476 1.379 . S
C482 C479 1.363 . S
C482 N480 1.356 . S
C483 C477 1.363 . S
C483 C478 1.379 . S
C483 N481 1.356 . S
N484 C476 1.356 . S
N484 H490 0.984 . S
N484 H491 0.984 . S
N485 C478 1.356 . S
N485 H488 0.984 . S
N485 H489 0.985 . S
H486 N481 0.984 . S
H487 N481 0.985 . S
H488 N485 0.984 . S
H489 N485 0.985 . S
H490 N484 0.984 . S
H491 N484 0.984 . S
H492 N480 0.984 . S
H493 N480 0.985 . S
C494 C495 1.363 . S
C494 C500 1.379 1_455 S
C494 N502 1.356 . S
C495 C494 1.363 . S
C495 C501 1.363 . S
C496 C497 1.363 . S
C496 C501 1.379 1_655 S
C496 N503 1.356 . S
C497 C496 1.363 . S
C497 C500 1.363 . S
N498 C500 1.356 . S
N498 H510 0.984 . S
N498 H511 0.985 . S
N499 C501 1.356 . S
N499 H504 0.984 . S
N499 H505 0.985 . S
C500 C494 1.379 1_655 S
C500 C497 1.363 . S
C500 N498 1.356 . S
C501 C495 1.363 . S
C501 C496 1.379 1_455 S
C501 N499 1.356 . S
N502 C494 1.356 . S
N502 H508 0.984 . S
N502 H509 0.984 . S
N503 C496 1.356 . S
N503 H506 0.984 . S
N503 H507 0.985 . S
H504 N499 0.984 . S
H505 N499 0.985 . S
H506 N503 0.984 . S
H507 N503 0.985 . S
H508 N502 0.984 . S
H509 N502 0.984 . S
H510 N498 0.984 . S
H511 N498 0.985 . S
C512 C513 1.363 . S
C512 C518 1.379 . S
C512 N520 1.356 . S
C513 C512 1.363 . S
C513 C519 1.363 1_554 S
C514 C515 1.363 . S
C514 C519 1.379 . S
C514 N521 1.356 . S
C515 C514 1.363 . S
C515 C518 1.363 1_556 S
N516 C518 1.356 . S
N516 H528 0.984 . S
N516 H529 0.985 1_554 S
N517 C519 1.356 . S
N517 H522 0.984 1_556 S
N517 H523 0.985 . S
C518 C512 1.379 . S
C518 C515 1.363 1_554 S
C518 N516 1.356 . S
C519 C513 1.363 1_556 S
C519 C514 1.379 . S
C519 N517 1.356 . S
N520 C512 1.356 . S
N520 H526 0.984 . S
N520 H527 0.984 . S
N521 C514 1.356 . S
N521 H524 0.984 . S
N521 H525 0.985 . S
H522 N517 0.984 1_554 S
H523 N517 0.985 . S
H524 N521 0.984 . S
H525 N521 0.985 . S
H526 N520 0.984 . S
H527 N520 0.984 . S
H528 N516 0.984 . S
H529 N516 0.985 1_556 S
C530 C531 1.363 . S
C530 C536 1.379 . S
C530 N538 1.356 . S
C531 C530 1.363 . S
C531 C537 1.363 . S
C532 C533 1.363 . S
C532 C537 1.379 . S
C532 N539 1.356 . S
C533 C532 1.363 . S
C533 C536 1.363 . S
N534 C536 1.356 . S
N534 H546 0.984 . S
N534 H547 0.985 . S
N535 C537 1.356 . S
N535 H540 0.984 . S
N535 H541 0.985 . S
C536 C530 1.379 . S
C536 C533 1.363 . S
C536 N534 1.356 . S
C537 C531 1.363 . S
C537 C532 1.379 . S
C537 N535 1.356 . S
N538 C530 1.356 . S
N538 H544 0.984 . S
N538 H545 0.984 . S
N539 C532 1.356 . S
N539 H542 0.984 . S
N539 H543 0.985 . S
H540 N535 0.984 . S
H541 N535 0.985 . S
H542 N539 0.984 . S
H543 N539 0.985 . S
H544 N538 0.984 . S
H545 N538 0.984 . S
H546 N534 0.984 . S
H547 N534 0.985 . S
C548 C549 1.363 . S
C548 C554 1.379 . S
C548 N556 1.356 . S
C549 C548 1.363 . S
C549 C555 1.363 . S
C550 C551 1.363 . S
C550 C555 1.379 . S
C550 N557 1.356 . S
C551 C550 1.363 . S
C551 C554 1.363 . S
N552 C554 1.356 . S
N552 H564 0.984 . S
N552 H565 0.985 . S
N553 C555 1.356 . S
N553 H558 0.984 . S
N553 H559 0.985 . S
C554 C548 1.379 . S
C554 C551 1.363 . S
C554 N552 1.356 . S
C555 C549 1.363 . S
C555 C550 1.379 . S
C555 N553 1.356 . S
N556 C548 1.356 . S
N556 H562 0.984 . S
N556 H563 0.984 . S
N557 C550 1.356 . S
N557 H560 0.984 . S
N557 H561 0.985 . S
H558 N553 0.984 . S
H559 N553 0.985 . S
H560 N557 0.984 . S
H561 N557 0.985 . S
H562 N556 0.984 . S
H563 N556 0.984 . S
H564 N552 0.984 . S
H565 N552 0.985 . S
C566 C567 1.363 . S
C566 C572 1.379 . S
C566 N574 1.356 . S
C567 C566 1.363 . S
C567 C573 1.363 . S
C568 C569 1.363 . S
C568 C573 1.379 . S
C568 N575 1.356 . S
C569 C568 1.363 . S
C569 C572 1.363 . S
N570 C572 1.356 . S
N570 H582 0.984 . S
N570 H583 0.985 . S
N571 C573 1.356 . S
N571 H576 0.984 . S
N571 H577 0.985 . S
C572 C566 1.379 . S
C572 C569 1.363 . S
C572 N570 1.356 . S
C573 C567 1.363 . S
C573 C568 1.379 . S
C573 N571 1.356 . S
N574 C566 1.356 . S
N574 H580 0.984 . S
N574 H581 0.984 . S
N575 C568 1.356 . S
N575 H578 0.984 . S
N575 H579 0.985 . S
H576 N571 0.984 . S
H577 N571 0.985 . S
H578 N575 0.984 . S
H579 N575 0.985 . S
H580 N574 0.984 . S
H581 N574 0.984 . S
H582 N570 0.984 . S
H583 N570 0.985 . S
C584 C585 1.363 1_554 S
C584 C590 1.379 . S
C584 N592 1.356 . S
C585 C584 1.363 1_556 S
C585 C591 1.363 . S
C586 C587 1.363 1_556 S
C586 C591 1.379 . S
C586 N593 1.356 . S
C587 C586 1.363 1_554 S
C587 C590 1.363 . S
N588 C590 1.356 . S
N588 H600 0.984 . S
N588 H601 0.985 . S
N589 C591 1.356 . S
N589 H594 0.984 . S
N589 H595 0.985 . S
C590 C584 1.379 . S
C590 C587 1.363 . S
C590 N588 1.356 . S
C591 C585 1.363 . S
C591 C586 1.379 . S
C591 N589 1.356 . S
N592 C584 1.356 . S
N592 H598 0.984 . S
N592 H599 0.984 1_554 S
N593 C586 1.356 . S
N593 H596 0.984 1_556 S
N593 H597 0.985 . S
H594 N589 0.984 . S
H595 N589 0.985 . S
H596 N593 0.984 1_554 S
H597 N593 0.985 . S
H598 N592 0.984 . S
H599 N592 0.984 1_556 S
H600 N588 0.984 . S
H601 N588 0.985 . S
C602 C603 1.363 . S
C602 C608 1.379 . S
C602 N610 1.356 . S
C603 C602 1.363 . S
C603 C609 1.363 . S
C604 C605 1.363 . S
C604 C609 1.379 . S
C604 N611 1.356 . S
C605 C604 1.363 . S
C605 C608 1.363 . S
N606 C608 1.356 . S
N606 H618 0.984 . S
N606 H619 0.985 . S
N607 C609 1.356 . S
N607 H612 0.984 . S
N607 H613 0.985 . S
C608 C602 1.379 . S
C608 C605 1.363 . S
C608 N606 1.356 . S
C609 C603 1.363 . S
C609 C604 1.379 . S
C609 N607 1.356 . S
N610 C602 1.356 . S
N610 H616 0.984 . S
N610 H617 0.984 . S
N611 C604 1.356 . S
N611 H614 0.984 . S
N611 H615 0.985 . S
H612 N607 0.984 . S
H613 N607 0.985 . S
H614 N611 0.984 . S
H615 N611 0.985 . S
H616 N610 0.984 . S
H617 N610 0.984 . S
H618 N606 0.984 . S
H619 N606 0.985 . S
C620 C621 1.363 . S
C620 C626 1.379 . S
C620 N628 1.356 . S
C621 C620 1.363 . S
C621 C627 1.363 . S
C622 C623 1.363 . S
C622 C627 1.379 . S
C622 N629 1.356 . S
C623 C622 1.363 . S
C623 C626 1.363 . S
N624 C626 1.356 . S
N624 H636 0.984 . S
N624 H637 0.985 . S
N625 C627 1.356 . S
N625 H630 0.984 . S
N625 H631 0.985 . S
C626 C620 1.379 . S
C626 C623 1.363 . S
C626 N624 1.356 . S
C627 C621 1.363 . S
C627 C622 1.379 . S
C627 N625 1.356 . S
N628 C620 1.356 . S
N628 H634 0.984 . S
N628 H635 0.984 . S
N629 C622 1.356 . S
N629 H632 0.984 . S
N629 H633 0.985 . S
H630 N625 0.984 . S
H631 N625 0.985 . S
H632 N629 0.984 . S
H633 N629 0.985 . S
H634 N628 0.984 . S
H635 N628 0.984 . S
H636 N624 0.984 . S
H637 N624 0.985 . S
C638 C639 1.363 . S
C638 C644 1.379 . S
C638 N646 1.356 . S
C639 C638 1.363 . S
C639 C645 1.363 . S
C640 C641 1.363 . S
C640 C645 1.379 . S
C640 N647 1.356 . S
C641 C640 1.363 . S
C641 C644 1.363 . S
N642 C644 1.356 . S
N642 H654 0.984 . S
N642 H655 0.985 . S
N643 C645 1.356 . S
N643 H648 0.984 . S
N643 H649 0.985 . S
C644 C638 1.379 . S
C644 C641 1.363 . S
C644 N642 1.356 . S
C645 C639 1.363 . S
C645 C640 1.379 . S
C645 N643 1.356 . S
N646 C638 1.356 . S
N646 H652 0.984 . S
N646 H653 0.984 . S
N647 C640 1.356 . S
N647 H650 0.984 . S
N647 H651 0.985 . S
H648 N643 0.984 . S
H649 N643 0.985 . S
H650 N647 0.984 . S
H651 N647 0.985 . S
H652 N646 0.984 . S
H653 N646 0.984 . S
H654 N642 0.984 . S
H655 N642 0.985 . S
C656 C657 1.363 1_565 S
C656 C662 1.379 . S
C656 N664 1.356 . S
C657 C656 1.363 1_545 S
C657 C663 1.363 . S
C658 C659 1.363 1_545 S
C658 C663 1.379 . S
C658 N665 1.356 . S
C659 C658 1.363 1_565 S
C659 C662 1.363 . S
N660 C662 1.356 . S
N660 H672 0.984 . S
N660 H673 0.985 . S
N661 C663 1.356 . S
N661 H666 0.984 . S
N661 H667 0.985 . S
C662 C656 1.379 . S
C662 C659 1.363 . S
C662 N660 1.356 . S
C663 C657 1.363 . S
C663 C658 1.379 . S
C663 N661 1.356 . S
N664 C656 1.356 . S
N664 H670 0.984 . S
N664 H671 0.984 1_565 S
N665 C658 1.356 . S
N665 H668 0.984 1_545 S
N665 H669 0.985 . S
H666 N661 0.984 . S
H667 N661 0.985 . S
H668 N665 0.984 1_565 S
H669 N665 0.985 . S
H670 N664 0.984 . S
H671 N664 0.984 1_545 S
H672 N660 0.984 . S
H673 N660 0.985 . S
C674 C675 1.363 . S
C674 C680 1.379 . S
C674 N682 1.356 . S
C675 C674 1.363 . S
C675 C681 1.363 . S
C676 C677 1.363 . S
C676 C681 1.379 . S
C676 N683 1.356 . S
C677 C676 1.363 . S
C677 C680 1.363 . S
N678 C680 1.356 . S
N678 H690 0.984 . S
N678 H691 0.985 . S
N679 C681 1.356 . S
N679 H684 0.984 . S
N679 H685 0.985 . S
C680 C674 1.379 . S
C680 C677 1.363 . S
C680 N678 1.356 . S
C681 C675 1.363 . S
C681 C676 1.379 . S
C681 N679 1.356 . S
N682 C674 1.356 . S
N682 H688 0.984 . S
N682 H689 0.984 . S
N683 C676 1.356 . S
N683 H686 0.984 . S
N683 H687 0.985 . S
H684 N679 0.984 . S
H685 N679 0.985 . S
H686 N683 0.984 . S
H687 N683 0.985 . S
H688 N682 0.984 . S
H689 N682 0.984 . S
H690 N678 0.984 . S
H691 N678 0.985 . S
C692 C693 1.363 . S
C692 C698 1.379 1_546 S
C692 N700 1.356 . S
C693 C692 1.363 . S
C693 C699 1.363 1_556 S
C694 C695 1.363 . S
C694 C699 1.379 1_565 S
C694 N701 1.356 . S
C695 C694 1.363 . S
C695 C698 1.363 . S
N696 C698 1.356 . S
N696 H708 0.984 . S
N696 H709 0.985 . S
N697 C699 1.356 1_556 S
N697 H702 0.984 . S
N697 H703 0.985 1_556 S
C698 C692 1.379 1_564 S
C698 C695 1.363 . S
C698 N696 1.356 . S
C699 C693 1.363 1_554 S
C699 C694 1.379 1_545 S
C699 N697 1.356 1_554 S
N700 C692 1.356 . S
N700 H706 0.984 . S
N700 H707 0.984 . S
N701 C694 1.356 . S
N701 H704 0.984 . S
N701 H705 0.985 . S
H702 N697 0.984 . S
H703 N697 0.985 1_554 S
H704 N701 0.984 . S
H705 N701 0.985 . S
H706 N700 0.984 . S
H707 N700 0.984 . S
H708 N696 0.984 . S
H709 N696 0.985 . S
C710 C711 1.363 . S
C710 C716 1.379 . S
C710 N718 1.356 . S
C711 C710 1.363 . S
C711 C717 1.363 . S
C712 C713 1.363 . S
C712 C717 1.379 . S
C712 N719 1.356 . S
C713 C712 1.363 . S
C713 C716 1.363 . S
N714 C716 1.356 . S
N714 H726 0.984 . S
N714 H727 0.985 . S
N715 C717 1.356 . S
N715 H720 0.984 . S
N715 H721 0.985 . S
C716 C710 1.379 . S
C716 C713 1.363 . S
C716 N714 1.356 . S
C717 C711 1.363 . S
C717 C712 1.379 . S
C717 N715 1.356 . S
N718 C710 1.356 . S
N718 H724 0.984 . S
N718 H725 0.984 . S
N719 C712 1.356 . S
N719 H722 0.984 . S
N719 H723 0.985 . S
H720 N715 0.984 . S
H721 N715 0.985 . S
H722 N719 0.984 . S
H723 N719 0.985 . S
H724 N718 0.984 . S
H725 N718 0.984 . S
H726 N714 0.984 . S
H727 N714 0.985 . S
C728 C729 1.363 . S
C728 C734 1.379 . S
C728 N736 1.356 . S
C729 C728 1.363 . S
C729 C735 1.363 . S
C730 C731 1.363 . S
C730 C735 1.379 1_565 S
C730 N737 1.356 . S
C731 C730 1.363 . S
C731 C734 1.363 1_565 S
N732 C734 1.356 . S
N732 H744 0.984 . S
N732 H745 0.985 1_545 S
N733 C735 1.356 . S
N733 H738 0.984 . S
N733 H739 0.985 1_545 S
C734 C728 1.379 . S
C734 C731 1.363 1_545 S
C734 N732 1.356 . S
C735 C729 1.363 . S
C735 C730 1.379 1_545 S
C735 N733 1.356 . S
N736 C728 1.356 . S
N736 H742 0.984 . S
N736 H743 0.984 . S
N737 C730 1.356 . S
N737 H740 0.984 . S
N737 H741 0.985 . S
H738 N733 0.984 . S
H739 N733 0.985 1_565 S
H740 N737 0.984 . S
H741 N737 0.985 . S
H742 N736 0.984 . S
H743 N736 0.984 . S
H744 N732 0.984 . S
H745 N732 0.985 1_565 S
C746 C747 1.363 . S
C746 C752 1.379 . S
C746 N754 1.356 . S
C747 C746 1.363 . S
C747 C753 1.363 . S
C748 C749 1.363 . S
C748 C753 1.379 . S
C748 N755 1.356 . S
C749 C748 1.363 . S
C749 C752 1.363 . S
N750 C752 1.356 . S
N750 H762 0.984 . S
N750 H763 0.985 . S
N751 C753 1.356 . S
N751 H756 0.984 . S
N751 H757 0.985 . S
C752 C746 1.379 . S
C752 C749 1.363 . S
C752 N750 1.356 . S
C753 C747 1.363 . S
C753 C748 1.379 . S
C753 N751 1.356 . S
N754 C746 1.356 . S
N754 H760 0.984 . S
N754 H761 0.984 . S
N755 C748 1.356 . S
N755 H758 0.984 . S
N755 H759 0.985 . S
H756 N751 0.984 . S
H757 N751 0.985 . S
H758 N755 0.984 . S
H759 N755 0.985 . S
H760 N754 0.984 . S
H761 N754 0.984 . S
H762 N750 0.984 . S
H763 N750 0.985 . S
C764 C765 1.363 1_545 S
C764 C770 1.379 . S
C764 N772 1.356 . S
C765 C764 1.363 1_565 S
C765 C771 1.363 1_554 S
C766 C767 1.363 . S
C766 C771 1.379 1_545 S
C766 N773 1.356 . S
C767 C766 1.363 . S
C767 C770 1.363 1_556 S
N768 C770 1.356 . S
N768 H780 0.984 . S
N768 H781 0.985 1_554 S
N769 C771 1.356 . S
N769 H774 0.984 1_556 S
N769 H775 0.985 . S
C770 C764 1.379 . S
C770 C767 1.363 1_554 S
C770 N768 1.356 . S
C771 C765 1.363 1_556 S
C771 C766 1.379 1_565 S
C771 N769 1.356 . S
N772 C764 1.356 . S
N772 H778 0.984 . S
N772 H779 0.984 1_545 S
N773 C766 1.356 . S
N773 H776 0.984 . S
N773 H777 0.985 1_545 S
H774 N769 0.984 1_554 S
H775 N769 0.985 . S
H776 N773 0.984 . S
H777 N773 0.985 1_565 S
H778 N772 0.984 . S
H779 N772 0.984 1_565 S
H780 N768 0.984 . S
H781 N768 0.985 1_556 S
C782 C783 1.363 . S
C782 C788 1.379 . S
C782 N790 1.356 . S
C783 C782 1.363 . S
C783 C789 1.363 . S
C784 C785 1.363 . S
C784 C789 1.379 . S
C784 N791 1.356 . S
C785 C784 1.363 . S
C785 C788 1.363 . S
N786 C788 1.356 . S
N786 H798 0.984 . S
N786 H799 0.985 . S
N787 C789 1.356 . S
N787 H792 0.984 . S
N787 H793 0.985 . S
C788 C782 1.379 . S
C788 C785 1.363 . S
C788 N786 1.356 . S
C789 C783 1.363 . S
C789 C784 1.379 . S
C789 N787 1.356 . S
N790 C782 1.356 . S
N790 H796 0.984 . S
N790 H797 0.984 . S
N791 C784 1.356 . S
N791 H794 0.984 . S
N791 H795 0.985 . S
H792 N787 0.984 . S
H793 N787 0.985 . S
H794 N791 0.984 . S
H795 N791 0.985 . S
H796 N790 0.984 . S
H797 N790 0.984 . S
H798 N786 0.984 . S
H799 N786 0.985 . S
C225 C163 1.418 . S
C227 C7 1.424 . S
C243 C217 1.438 . S
C245 C23 1.411 . S
C261 C35 1.426 . S
C263 C133 1.426 . S
C279 C191 1.328 . S
C281 C51 1.327 . S
C297 C63 1.414 . S
C299 C189 1.418 . S
C315 C79 1.430 . S
C317 C161 1.448 . S
C333 C91 1.436 . S
C335 C219 1.431 . S
C351 C107 1.309 . S
C353 C135 1.320 . S
C369 C49 1.460 . S
C371 C119 1.457 . S
C387 C149 1.386 . S
C389 C21 1.391 . S
C405 C175 1.474 . S
C407 C77 1.480 . S
C423 C205 1.372 . S
C425 C105 1.372 . S
C441 C65 1.370 . S
C443 C121 1.383 . S
C459 C147 1.388 . S
C461 C93 1.366 . S
C477 C203 1.392 . S
C479 C37 1.372 . S
C495 C9 1.364 . S
C497 C177 1.375 . S
C513 C3 1.356 . S
C515 C59 1.355 . S
C531 C22 1.384 . S
C533 C78 1.386 . S
C549 C31 1.455 . S
C551 C87 1.456 . S
C567 C106 1.321 . S
C569 C50 1.323 . S
C585 C115 1.407 . S
C587 C171 1.406 . S
C603 C190 1.307 . S
C605 C134 1.308 . S
C621 C148 1.315 . S
C623 C204 1.316 . S
C639 C213 1.421 . S
C641 C157 1.419 . S
C657 C101 1.398 . S
C659 C17 1.400 . S
C675 C36 1.397 . S
C677 C64 1.397 . S
C693 C45 1.413 . S
C695 C73 1.415 . S
C711 C8 1.308 . S
C713 C92 1.308 . S
C729 C129 1.346 . S
C731 C218 1.355 . S
C747 C176 1.382 . S
C749 C143 1.362 . S
C765 C162 1.374 . S
C767 C185 1.363 . S
C783 C199 1.345 . S
C785 C120 1.363 . S
