# Generated by pormake.
# Topology unj, (4)-cn, num edge types: 1
# Building blocks:
#     Node 0, Type 0, BuildingBlock: QUQFOY_clean_sbu_3, # of connection points: 4
#     Node 1, Type 0, BuildingBlock: QUQFOY_clean_sbu_3, # of connection points: 4
#     Node 2, Type 0, BuildingBlock: QUQFOY_clean_sbu_3, # of connection points: 4
#     Node 3, Type 0, BuildingBlock: QUQFOY_clean_sbu_3, # of connection points: 4
#     Node 4, Type 0, BuildingBlock: QUQFOY_clean_sbu_3, # of connection points: 4
#     Node 5, Type 0, BuildingBlock: QUQFOY_clean_sbu_3, # of connection points: 4
#     Edge 6, Type (0, 0), BuildingBlock: XUDNAN_clean_linker_2, # of connection points: 2
#     Edge 7, Type (0, 0), BuildingBlock: XUDNAN_clean_linker_2, # of connection points: 2
#     Edge 8, Type (0, 0), BuildingBlock: XUDNAN_clean_linker_2, # of connection points: 2
#     Edge 9, Type (0, 0), BuildingBlock: XUDNAN_clean_linker_2, # of connection points: 2
#     Edge 10, Type (0, 0), BuildingBlock: XUDNAN_clean_linker_2, # of connection points: 2
#     Edge 11, Type (0, 0), BuildingBlock: XUDNAN_clean_linker_2, # of connection points: 2
#     Edge 12, Type (0, 0), BuildingBlock: XUDNAN_clean_linker_2, # of connection points: 2
#     Edge 13, Type (0, 0), BuildingBlock: XUDNAN_clean_linker_2, # of connection points: 2
#     Edge 14, Type (0, 0), BuildingBlock: XUDNAN_clean_linker_2, # of connection points: 2
#     Edge 15, Type (0, 0), BuildingBlock: XUDNAN_clean_linker_2, # of connection points: 2
#     Edge 16, Type (0, 0), BuildingBlock: XUDNAN_clean_linker_2, # of connection points: 2
#     Edge 17, Type (0, 0), BuildingBlock: XUDNAN_clean_linker_2, # of connection points: 2
# Relax obj value: 0.028
# Max RMSD: 0.079
# Mean RMSD: 0.079
data_MOF--net-unj--node1-QUQFOY_clean_sbu_3--edge1-XUDNAN_clean_linker_2
_symmetry_space_group_name_H-M    P1
_symmetry_Int_Tables_number       1
_symmetry_cell_setting            triclinic
loop_
_symmetry_equiv_pos_as_xyz
'x, y, z'
_cell_length_a     34.392952
_cell_length_b     34.203485
_cell_length_c     38.035984
_cell_angle_alpha  90.245911
_cell_angle_beta   90.088859
_cell_angle_gamma 120.02594
loop_
_atom_site_label
_atom_site_type_symbol
_atom_site_fract_x
_atom_site_fract_y
_atom_site_fract_z
_atom_type_partial_charge
C0 C 0.54919 0.30281 0.51177 0.0
O1 O 0.5787 0.2956 0.52537 0.0
Cd2 Cd 0.55947 0.24133 0.57024 0.0
O3 O 0.5093 0.28367 0.52388 0.0
Cd4 Cd 0.46733 0.23537 0.57528 0.0
C5 C 0.46608 0.14847 0.5341 0.0
O6 O 0.53045 0.2689 0.61496 0.0
O7 O 0.47485 0.2063 0.63351 0.0
O8 O 0.44578 0.29182 0.58378 0.0
C9 C 0.51183 0.24186 0.64008 0.0
O10 O 0.50764 0.16887 0.54214 0.0
C11 C 0.40483 0.26487 0.59062 0.0
O12 O 0.44166 0.1652 0.54257 0.0
O13 O 0.39168 0.22293 0.58904 0.0
C14 C 0.24807 0.55399 0.68055 0.0
O15 O 0.28943 0.57088 0.68791 0.0
Cd16 Cd 0.31704 0.54358 0.73338 0.0
O17 O 0.21835 0.52001 0.69738 0.0
Cd18 Cd 0.21783 0.47093 0.74578 0.0
C19 C 0.28155 0.43754 0.70156 0.0
O20 O 0.26996 0.53227 0.78343 0.0
O21 O 0.25504 0.46593 0.7999 0.0
O22 O 0.14762 0.46408 0.76651 0.0
C23 C 0.27263 0.50766 0.80694 0.0
O24 O 0.31466 0.47638 0.70882 0.0
C25 C 0.12609 0.42124 0.76684 0.0
O26 O 0.24192 0.42734 0.71031 0.0
O27 O 0.14712 0.40147 0.75694 0.0
C28 C 0.68489 0.28741 0.85526 0.0
O29 O 0.71093 0.3251 0.8699 0.0
Cd30 Cd 0.76255 0.33808 0.91591 0.0
O31 O 0.68504 0.25174 0.86482 0.0
Cd32 Cd 0.72854 0.23637 0.91036 0.0
C33 C 0.82965 0.30627 0.8743 0.0
O34 O 0.7195 0.27912 0.95701 0.0
O35 O 0.77018 0.2613 0.96731 0.0
O36 O 0.66516 0.16128 0.92343 0.0
C37 C 0.74545 0.2761 0.97893 0.0
O38 O 0.82741 0.33875 0.88867 0.0
C39 C 0.68742 0.14109 0.91963 0.0
O40 O 0.79686 0.26614 0.87632 0.0
O41 O 0.72799 0.16497 0.91012 0.0
C42 C 0.4249 0.69368 0.0137 0.0
O43 O 0.40562 0.71542 0.02301 0.0
Cd44 Cd 0.43494 0.76993 0.06947 0.0
O45 O 0.46124 0.70109 0.0285 0.0
Cd46 Cd 0.51433 0.75011 0.07492 0.0
C47 C 0.53545 0.84471 0.0319 0.0
O48 O 0.45447 0.73494 0.1158 0.0
O49 O 0.52036 0.78756 0.13188 0.0
O50 O 0.52281 0.6843 0.07738 0.0
C51 C 0.47942 0.76186 0.13957 0.0
O52 O 0.4971 0.83671 0.04258 0.0
C53 C 0.56392 0.70479 0.0861 0.0
O54 O 0.54929 0.81722 0.03828 0.0
O55 O 0.58294 0.74734 0.09002 0.0
C56 C 0.71658 0.41995 0.19104 0.0
O57 O 0.67549 0.40137 0.19984 0.0
Cd58 Cd 0.64524 0.43267 0.23994 0.0
O59 O 0.74592 0.4577 0.2044 0.0
Cd60 Cd 0.75598 0.5171 0.24803 0.0
C61 C 0.68612 0.53601 0.19666 0.0
O62 O 0.70107 0.45953 0.28375 0.0
O63 O 0.73075 0.52519 0.30805 0.0
O64 O 0.82485 0.51537 0.25317 0.0
C65 C 0.70191 0.48349 0.30933 0.0
O66 O 0.65542 0.49647 0.20513 0.0
C67 C 0.85024 0.557 0.25996 0.0
O68 O 0.7261 0.55304 0.20853 0.0
O69 O 0.83188 0.58133 0.2613 0.0
C70 C 0.29843 0.72253 0.34884 0.0
O71 O 0.28118 0.68246 0.36019 0.0
Cd72 Cd 0.22469 0.65605 0.4042 0.0
O73 O 0.28721 0.7499 0.36173 0.0
Cd74 Cd 0.2395 0.75604 0.40811 0.0
C75 C 0.14979 0.68084 0.36188 0.0
O76 O 0.25266 0.7113 0.45028 0.0
O77 O 0.19901 0.72399 0.46367 0.0
O78 O 0.30955 0.82487 0.41482 0.0
C79 C 0.22391 0.70812 0.47254 0.0
O80 O 0.1624 0.65354 0.37215 0.0
C81 C 0.29404 0.85059 0.42207 0.0
O82 O 0.1719 0.72258 0.37027 0.0
O83 O 0.25147 0.83266 0.42236 0.0
H84 H 0.37677 0.08479 0.52359 0.0
H85 H 0.51235 0.11638 0.49752 0.0
H86 H 0.48189 0.04677 0.46213 0.0
H87 H 0.33273 0.96643 0.53381 0.0
H88 H 0.27848 0.95024 0.51516 0.0
H89 H 0.31057 0.00425 0.53663 0.0
H90 H 0.30575 0.04402 0.48033 0.0
H91 H 0.27385 0.99007 0.4586 0.0
H92 H 0.32489 0.03367 0.43909 0.0
H93 H 0.43828 0.97385 0.43141 0.0
H94 H 0.38363 0.89788 0.41002 0.0
H95 H 0.27509 0.91076 0.45616 0.0
C96 C 0.39999 0.07718 0.51021 0.0
C97 C 0.44699 0.10615 0.51327 0.0
C98 C 0.47627 0.09472 0.4957 0.0
C99 C 0.4593 0.05538 0.47532 0.0
C100 C 0.41294 0.02763 0.47283 0.0
C101 C 0.38358 0.03765 0.48993 0.0
C102 C 0.33527 0.0004 0.48437 0.0
C103 C 0.31296 0.97907 0.51959 0.0
C104 C 0.30836 0.01811 0.4644 0.0
C105 C 0.34228 0.96769 0.46188 0.0
C106 C 0.3874 0.98456 0.45528 0.0
C107 C 0.40283 0.9603 0.43623 0.0
C108 C 0.37145 0.91712 0.42422 0.0
C109 C 0.32508 0.89839 0.43139 0.0
C110 C 0.31024 0.92442 0.44992 0.0
H111 H 0.42908 0.35255 0.60301 0.0
H112 H 0.31471 0.2165 0.60639 0.0
H113 H 0.26851 0.24639 0.63202 0.0
H114 H 0.41077 0.38724 0.68441 0.0
H115 H 0.42896 0.44439 0.67124 0.0
H116 H 0.45112 0.41292 0.64956 0.0
H117 H 0.42505 0.42673 0.58922 0.0
H118 H 0.4031 0.45863 0.61069 0.0
H119 H 0.36708 0.41117 0.58298 0.0
H120 H 0.23663 0.29149 0.66095 0.0
H121 H 0.22207 0.34718 0.69095 0.0
H122 H 0.35892 0.45245 0.66965 0.0
C123 C 0.39407 0.32901 0.60846 0.0
C124 C 0.37536 0.28221 0.60249 0.0
C125 C 0.32962 0.25253 0.61056 0.0
C126 C 0.30317 0.26921 0.6251 0.0
C127 C 0.32308 0.31555 0.63135 0.0
C128 C 0.3675 0.34497 0.62314 0.0
C129 C 0.38199 0.39279 0.63441 0.0
C130 C 0.42047 0.41033 0.66152 0.0
C131 C 0.39506 0.42417 0.60241 0.0
C132 C 0.33903 0.38571 0.65087 0.0
C133 C 0.30522 0.34111 0.64855 0.0
C134 C 0.2628 0.32654 0.6627 0.0
C135 C 0.25488 0.35841 0.67971 0.0
C136 C 0.28939 0.40417 0.68274 0.0
C137 C 0.33184 0.41776 0.6679 0.0
H138 H 0.90489 0.38814 0.86106 0.0
H139 H 0.84737 0.24377 0.84469 0.0
H140 H 0.91611 0.25768 0.8139 0.0
H141 H 0.96137 0.42256 0.77709 0.0
H142 H 0.00963 0.47187 0.79501 0.0
H143 H 0.95543 0.45068 0.81517 0.0
H144 H -0.01153 0.44498 0.87497 0.0
H145 H 0.04274 0.46616 0.85501 0.0
H146 H 0.01699 0.41294 0.87775 0.0
H147 H -0.00807 0.28688 0.7867 0.0
H148 H 0.06955 0.32979 0.76429 0.0
H149 H 0.07695 0.45496 0.79752 0.0
C150 C 0.90663 0.35943 0.85092 0.0
C151 C 0.87069 0.31487 0.85534 0.0
C152 C 0.8744 0.27825 0.84163 0.0
C153 C 0.91331 0.28576 0.82407 0.0
C154 C 0.94811 0.33006 0.82028 0.0
C155 C 0.94513 0.3663 0.8332 0.0
C156 C 0.98759 0.41054 0.82598 0.0
C157 C 0.97791 0.44068 0.80187 0.0
C158 C 0.01028 0.43508 0.86048 0.0
C159 C 0.01504 0.39345 0.80728 0.0
C160 C -0.00834 0.34694 0.80423 0.0
C161 C 0.01052 0.32334 0.78873 0.0
C162 C 0.05459 0.34798 0.77613 0.0
C163 C 0.07917 0.39567 0.77905 0.0
C164 C 0.05889 0.41855 0.79466 0.0
H165 H 0.51898 0.91355 0.01724 0.0
H166 H 0.61566 0.86912 -0.00037 0.0
H167 H 0.6622 0.93764 0.96475 0.0
H168 H 0.5286 0.96376 0.9313 0.0
H169 H 0.52355 0.01013 0.94867 0.0
H170 H 0.49659 0.95642 0.97068 0.0
H171 H 0.53806 -0.0047 0.02859 0.0
H172 H 0.56488 0.04909 0.00684 0.0
H173 H 0.59845 0.0295 0.02869 0.0
H174 H 0.69963 0.01231 0.93389 0.0
H175 H 0.72708 0.08946 0.91176 0.0
H176 H 0.60578 0.08481 0.94954 0.0
C177 C 0.54978 0.91798 0.00589 0.0
C178 C 0.5636 0.88586 0.01114 0.0
C179 C 0.60436 0.89323 -0.00399 0.0
C180 C 0.63092 0.93194 0.97601 0.0
C181 C 0.61623 0.96285 0.97134 0.0
C182 C 0.5767 0.95638 -0.01406 0.0
C183 C 0.56948 -0.00429 0.97836 0.0
C184 C 0.52704 0.98058 0.95591 0.0
C185 C 0.56764 0.01876 0.01266 0.0
C186 C 0.61153 0.02569 0.95767 0.0
C187 C 0.63784 0.00594 0.95362 0.0
C188 C 0.67917 0.02798 0.93666 0.0
C189 C 0.69444 0.07177 0.92416 0.0
C190 C 0.66848 0.09305 0.92881 0.0
C191 C 0.62615 0.06926 0.94523 0.0
H192 H 0.70675 0.62494 0.19772 0.0
H193 H 0.63788 0.50036 0.13758 0.0
H194 H 0.60894 0.5356 0.09683 0.0
H195 H 0.62027 0.64765 0.19557 0.0
H196 H 0.65389 0.70814 0.19154 0.0
H197 H 0.6772 0.67707 0.21194 0.0
H198 H 0.74311 0.71064 0.16772 0.0
H199 H 0.72006 0.7421 0.14723 0.0
H200 H 0.73138 0.7048 0.12118 0.0
H201 H 0.57771 0.57797 0.06895 0.0
H202 H 0.54566 0.62625 0.05474 0.0
H203 H 0.6336 0.72506 0.13181 0.0
C204 C 0.68687 0.60586 0.17521 0.0
C205 C 0.67477 0.5602 0.17041 0.0
C206 C 0.64751 0.53548 0.14149 0.0
C207 C 0.63117 0.55526 0.11811 0.0
C208 C 0.64232 0.59984 0.12406 0.0
C209 C 0.66966 0.62508 0.15174 0.0
C210 C 0.67167 0.67036 0.15448 0.0
C211 C 0.65473 0.6761 0.19051 0.0
C212 C 0.7194 0.70928 0.14721 0.0
C213 C 0.6396 0.66555 0.12511 0.0
C214 C 0.62378 0.62485 0.1076 0.0
C215 C 0.59055 0.61041 0.08184 0.0
C216 C 0.57238 0.63791 0.0741 0.0
C217 C 0.58754 0.67943 0.09195 0.0
C218 C 0.62228 0.69393 0.11722 0.0
H219 H 0.08666 0.70824 0.35636 0.0
H220 H 0.12272 0.61194 0.31556 0.0
H221 H 0.05351 0.57565 0.2802 0.0
H222 H 0.97257 0.63038 0.36702 0.0
H223 H 0.95205 0.66748 0.35412 0.0
H224 H 0.00745 0.69061 0.3727 0.0
H225 H 0.04144 0.74112 0.31792 0.0
H226 H 0.98602 0.7182 0.29919 0.0
H227 H 0.02954 0.71556 0.27479 0.0
H228 H 0.97846 0.54449 0.25459 0.0
H229 H 0.89981 0.5195 0.23963 0.0
H230 H 0.9094 0.63463 0.29607 0.0
C231 C 0.08035 0.68024 0.33928 0.0
C232 C 0.11008 0.66297 0.33857 0.0
C233 C 0.10033 0.62562 0.31658 0.0
C234 C 0.06123 0.6049 0.29621 0.0
C235 C 0.03203 0.62185 0.29807 0.0
C236 C 0.04091 0.65868 0.31888 0.0
C237 C 0.00165 0.66728 0.31813 0.0
C238 C 0.98229 0.6637 0.35519 0.0
C239 C 0.0155 0.71328 0.30151 0.0
C240 C 0.96903 0.6287 0.29457 0.0
C241 C 0.98772 0.60339 0.28303 0.0
C242 C 0.96359 0.56435 0.26296 0.0
C243 C 0.91887 0.55033 0.25473 0.0
C244 C 0.89864 0.57525 0.26652 0.0
C245 C 0.92431 0.61539 0.28622 0.0
H246 H 0.6321 0.37305 0.49625 0.0
H247 H 0.49436 0.30098 0.45878 0.0
H248 H 0.51736 0.34735 0.40484 0.0
H249 H 0.65976 0.4852 0.45926 0.0
H250 H 0.71634 0.49888 0.44906 0.0
H251 H 0.68791 0.46373 0.48631 0.0
H252 H 0.70252 0.40151 0.46162 0.0
H253 H 0.73083 0.4363 0.42438 0.0
H254 H 0.68394 0.38014 0.4177 0.0
H255 H 0.55762 0.39164 0.35141 0.0
H256 H 0.61124 0.43536 0.30424 0.0
H257 H 0.72152 0.48359 0.37845 0.0
C258 C 0.60665 0.36761 0.47696 0.0
C259 C 0.56153 0.33339 0.48145 0.0
C260 C 0.52908 0.32722 0.4558 0.0
C261 C 0.54184 0.3534 0.42517 0.0
C262 C 0.58688 0.38626 0.42118 0.0
C263 C 0.61864 0.39404 0.4467 0.0
C264 C 0.6652 0.42967 0.43532 0.0
C265 C 0.68336 0.47188 0.45889 0.0
C266 C 0.69749 0.41075 0.43471 0.0
C267 C 0.65512 0.43916 0.39865 0.0
C268 C 0.60968 0.4139 0.39103 0.0
C269 C 0.59299 0.41268 0.35738 0.0
C270 C 0.62356 0.43743 0.33081 0.0
C271 C 0.66999 0.46348 0.33826 0.0
C272 C 0.68587 0.46514 0.37266 0.0
H273 H 0.28594 0.69436 0.50568 0.0
H274 H 0.14952 0.66889 0.51487 0.0
H275 H 0.14007 0.62611 0.56971 0.0
H276 H 0.26685 0.58854 0.53629 0.0
H277 H 0.31916 0.61189 0.56015 0.0
H278 H 0.31481 0.64051 0.52204 0.0
H279 H 0.34127 0.71345 0.55903 0.0
H280 H 0.34591 0.68511 0.59723 0.0
H281 H 0.31161 0.71125 0.59869 0.0
H282 H 0.14498 0.58226 0.62189 0.0
H283 H 0.16583 0.54699 0.66959 0.0
H284 H 0.30031 0.60582 0.62677 0.0
C285 C 0.25408 0.67984 0.51926 0.0
C286 C 0.21831 0.68452 0.50606 0.0
C287 C 0.17731 0.6656 0.5247 0.0
C288 C 0.17164 0.6412 0.55573 0.0
C289 C 0.20756 0.63681 0.56787 0.0
C290 C 0.24816 0.6562 0.5504 0.0
C291 C 0.28189 0.64749 0.56903 0.0
C292 C 0.29651 0.62049 0.54547 0.0
C293 C 0.32256 0.69197 0.58175 0.0
C294 C 0.25379 0.61955 0.59951 0.0
C295 C 0.21091 0.6134 0.59836 0.0
C296 C 0.1786 0.58726 0.62323 0.0
C297 C 0.19066 0.56724 0.65009 0.0
C298 C 0.23475 0.574 0.65198 0.0
C299 C 0.26651 0.6005 0.62629 0.0
H300 H 0.62731 0.21483 0.81319 0.0
H301 H 0.67551 0.35737 0.83197 0.0
H302 H 0.63046 0.35816 0.78229 0.0
H303 H 0.63015 0.22014 0.72108 0.0
H304 H 0.57945 0.16693 0.71374 0.0
H305 H 0.61206 0.17566 0.75305 0.0
H306 H 0.5421 0.15524 0.79111 0.0
H307 H 0.5092 0.14639 0.75185 0.0
H308 H 0.51222 0.18555 0.78509 0.0
H309 H 0.5885 0.34717 0.72771 0.0
H310 H 0.54812 0.32339 0.6711 0.0
H311 H 0.52246 0.18708 0.68739 0.0
C312 C 0.6278 0.24598 0.80716 0.0
C313 C 0.65509 0.28604 0.82655 0.0
C314 C 0.65505 0.32622 0.8176 0.0
C315 C 0.6294 0.32706 0.78945 0.0
C316 C 0.60351 0.28737 0.77059 0.0
C317 C 0.60206 0.24743 0.77906 0.0
C318 C 0.57294 0.21029 0.75307 0.0
C319 C 0.6003 0.19221 0.73411 0.0
C320 C 0.53166 0.17211 0.77138 0.0
C321 C 0.55959 0.23617 0.72816 0.0
C322 C 0.57757 0.28054 0.73905 0.0
C323 C 0.57342 0.31233 0.7192 0.0
C324 C 0.55064 0.2986 0.6871 0.0
C325 C 0.53187 0.25343 0.67538 0.0
C326 C 0.53567 0.22155 0.69637 0.0
H327 H 0.28584 0.58489 0.83815 0.0
H328 H 0.31323 0.47495 0.85054 0.0
H329 H 0.35588 0.5107 0.90525 0.0
H330 H 0.39061 0.67408 0.8693 0.0
H331 H 0.36634 0.70304 0.89204 0.0
H332 H 0.3386 0.66888 0.85394 0.0
H333 H 0.266 0.62235 0.89021 0.0
H334 H 0.29348 0.65646 0.92841 0.0
H335 H 0.26844 0.59595 0.93044 0.0
H336 H 0.39925 0.5615 0.95673 0.0
H337 H 0.43349 0.61905 0.00398 0.0
H338 H 0.37221 0.69195 0.9594 0.0
C339 C 0.30087 0.56836 0.85237 0.0
C340 C 0.29674 0.52747 0.84013 0.0
C341 C 0.31616 0.50638 0.85962 0.0
C342 C 0.34049 0.52648 0.89057 0.0
C343 C 0.34421 0.5671 0.90181 0.0
C344 C 0.32433 0.58739 0.88354 0.0
C345 C 0.33203 0.63018 0.90157 0.0
C346 C 0.35848 0.67147 0.87779 0.0
C347 C 0.28733 0.62596 0.91336 0.0
C348 C 0.35989 0.63123 0.93268 0.0
C349 C 0.367 0.59486 0.93223 0.0
C350 C 0.39347 0.58982 0.95757 0.0
C351 C 0.41288 0.62269 0.98416 0.0
C352 C 0.40507 0.65959 0.98542 0.0
C353 C 0.37817 0.66371 0.95935 0.0
H354 H 0.68017 0.27803 0.01689 0.0
H355 H 0.82063 0.31574 0.02106 0.0
H356 H 0.82847 0.35388 0.07848 0.0
H357 H 0.69069 0.37693 0.05105 0.0
H358 H 0.63962 0.34996 0.07628 0.0
H359 H 0.64471 0.32292 0.03732 0.0
H360 H 0.62622 0.25146 0.07328 0.0
H361 H 0.62068 0.27817 0.11239 0.0
H362 H 0.65904 0.2567 0.11187 0.0
H363 H 0.82204 0.39582 0.1318 0.0
H364 H 0.80036 0.43111 0.17918 0.0
H365 H 0.66299 0.36064 0.14073 0.0
C366 C 0.71242 0.29376 0.03017 0.0
C367 C 0.74987 0.29429 0.01473 0.0
C368 C 0.79153 0.31491 0.03275 0.0
C369 C 0.79626 0.33668 0.06522 0.0
C370 C 0.75872 0.33643 0.07941 0.0
C371 C 0.71741 0.31467 0.0627 0.0
C372 C 0.68239 0.31981 0.0828 0.0
C373 C 0.66326 0.34385 0.06053 0.0
C374 C 0.64487 0.2738 0.09587 0.0
C375 C 0.71067 0.34918 0.11293 0.0
C376 C 0.75464 0.35859 0.11062 0.0
C377 C 0.78752 0.38792 0.13424 0.0
C378 C 0.77498 0.40796 0.16091 0.0
C379 C 0.72992 0.39814 0.16381 0.0
C380 C 0.69751 0.36809 0.13962 0.0
H381 H 0.30261 0.67127 0.29557 0.0
H382 H 0.36876 0.80766 0.33772 0.0
H383 H 0.425 0.8324 0.29001 0.0
H384 H 0.40128 0.66955 0.26586 0.0
H385 H 0.37468 0.63827 0.22629 0.0
H386 H 0.34153 0.631 0.26492 0.0
H387 H 0.29015 0.65158 0.22907 0.0
H388 H 0.32305 0.6588 0.19034 0.0
H389 H 0.31483 0.70416 0.20544 0.0
H390 H 0.47505 0.84132 0.23824 0.0
H391 H 0.50986 0.8357 0.18284 0.0
H392 H 0.4066 0.69497 0.17256 0.0
C393 C 0.32918 0.70625 0.2949 0.0
C394 C 0.3318 0.73753 0.3204 0.0
C395 C 0.36637 0.78323 0.31835 0.0
C396 C 0.39849 0.79749 0.2915 0.0
C397 C 0.39499 0.76574 0.26671 0.0
C398 C 0.3608 0.72122 0.26791 0.0
C399 C 0.36277 0.69439 0.23695 0.0
C400 C 0.37054 0.65604 0.24925 0.0
C401 C 0.32018 0.67618 0.2141 0.0
C402 C 0.40344 0.73072 0.21813 0.0
C403 C 0.42206 0.77148 0.23596 0.0
C404 C 0.46057 0.80967 0.22393 0.0
C405 C 0.48017 0.80616 0.19259 0.0
C406 C 0.46059 0.76504 0.17347 0.0
C407 C 0.42191 0.72694 0.18654 0.0
loop_
_geom_bond_atom_site_label_1
_geom_bond_atom_site_label_2
_geom_bond_distance
_geom_bond_site_symmetry_2
_ccdc_geom_bond_type
C0 O1 1.306 . S
C0 O3 1.160 . S
O1 C0 1.306 . S
O1 Cd2 2.228 . S
Cd2 O1 2.228 . S
Cd2 O6 2.273 . S
Cd2 O10 2.277 . S
O3 C0 1.160 . S
O3 Cd4 2.203 . S
Cd4 O3 2.203 . S
Cd4 O6 2.411 . S
Cd4 O7 2.333 . S
Cd4 O8 2.352 . S
Cd4 O12 2.277 . S
Cd4 O13 2.356 . S
C5 O10 1.209 . S
C5 O12 1.226 . S
O6 Cd2 2.273 . S
O6 Cd4 2.411 . S
O6 C9 1.320 . S
O7 Cd4 2.333 . S
O7 C9 1.214 . S
O8 Cd4 2.352 . S
O8 C11 1.258 . S
C9 O6 1.320 . S
C9 O7 1.214 . S
O10 Cd2 2.277 . S
O10 C5 1.209 . S
C11 O8 1.258 . S
C11 O13 1.282 . S
O12 Cd4 2.277 . S
O12 C5 1.226 . S
O13 Cd4 2.356 . S
O13 C11 1.282 . S
C14 O15 1.306 . S
C14 O17 1.160 . S
O15 C14 1.306 . S
O15 Cd16 2.228 . S
Cd16 O15 2.228 . S
Cd16 O20 2.273 . S
Cd16 O24 2.277 . S
O17 C14 1.160 . S
O17 Cd18 2.203 . S
Cd18 O17 2.203 . S
Cd18 O20 2.411 . S
Cd18 O21 2.333 . S
Cd18 O22 2.352 . S
Cd18 O26 2.277 . S
Cd18 O27 2.356 . S
C19 O24 1.209 . S
C19 O26 1.226 . S
O20 Cd16 2.273 . S
O20 Cd18 2.411 . S
O20 C23 1.320 . S
O21 Cd18 2.333 . S
O21 C23 1.214 . S
O22 Cd18 2.352 . S
O22 C25 1.258 . S
C23 O20 1.320 . S
C23 O21 1.214 . S
O24 Cd16 2.277 . S
O24 C19 1.209 . S
C25 O22 1.258 . S
C25 O27 1.282 . S
O26 Cd18 2.277 . S
O26 C19 1.226 . S
O27 Cd18 2.356 . S
O27 C25 1.282 . S
C28 O29 1.306 . S
C28 O31 1.160 . S
O29 C28 1.306 . S
O29 Cd30 2.228 . S
Cd30 O29 2.228 . S
Cd30 O34 2.273 . S
Cd30 O38 2.277 . S
O31 C28 1.160 . S
O31 Cd32 2.203 . S
Cd32 O31 2.203 . S
Cd32 O34 2.411 . S
Cd32 O35 2.333 . S
Cd32 O36 2.352 . S
Cd32 O40 2.277 . S
Cd32 O41 2.356 . S
C33 O38 1.209 . S
C33 O40 1.226 . S
O34 Cd30 2.273 . S
O34 Cd32 2.411 . S
O34 C37 1.320 . S
O35 Cd32 2.333 . S
O35 C37 1.214 . S
O36 Cd32 2.352 . S
O36 C39 1.258 . S
C37 O34 1.320 . S
C37 O35 1.214 . S
O38 Cd30 2.277 . S
O38 C33 1.209 . S
C39 O36 1.258 . S
C39 O41 1.282 . S
O40 Cd32 2.277 . S
O40 C33 1.226 . S
O41 Cd32 2.356 . S
O41 C39 1.282 . S
C42 O43 1.306 . S
C42 O45 1.160 . S
O43 C42 1.306 . S
O43 Cd44 2.228 . S
Cd44 O43 2.228 . S
Cd44 O48 2.273 . S
Cd44 O52 2.277 . S
O45 C42 1.160 . S
O45 Cd46 2.203 . S
Cd46 O45 2.203 . S
Cd46 O48 2.411 . S
Cd46 O49 2.333 . S
Cd46 O50 2.352 . S
Cd46 O54 2.277 . S
Cd46 O55 2.356 . S
C47 O52 1.209 . S
C47 O54 1.226 . S
O48 Cd44 2.273 . S
O48 Cd46 2.411 . S
O48 C51 1.320 . S
O49 Cd46 2.333 . S
O49 C51 1.214 . S
O50 Cd46 2.352 . S
O50 C53 1.258 . S
C51 O48 1.320 . S
C51 O49 1.214 . S
O52 Cd44 2.277 . S
O52 C47 1.209 . S
C53 O50 1.258 . S
C53 O55 1.282 . S
O54 Cd46 2.277 . S
O54 C47 1.226 . S
O55 Cd46 2.356 . S
O55 C53 1.282 . S
C56 O57 1.306 . S
C56 O59 1.160 . S
O57 C56 1.306 . S
O57 Cd58 2.228 . S
Cd58 O57 2.228 . S
Cd58 O62 2.273 . S
Cd58 O66 2.277 . S
O59 C56 1.160 . S
O59 Cd60 2.203 . S
Cd60 O59 2.203 . S
Cd60 O62 2.411 . S
Cd60 O63 2.333 . S
Cd60 O64 2.352 . S
Cd60 O68 2.277 . S
Cd60 O69 2.356 . S
C61 O66 1.209 . S
C61 O68 1.226 . S
O62 Cd58 2.273 . S
O62 Cd60 2.411 . S
O62 C65 1.320 . S
O63 Cd60 2.333 . S
O63 C65 1.214 . S
O64 Cd60 2.352 . S
O64 C67 1.258 . S
C65 O62 1.320 . S
C65 O63 1.214 . S
O66 Cd58 2.277 . S
O66 C61 1.209 . S
C67 O64 1.258 . S
C67 O69 1.282 . S
O68 Cd60 2.277 . S
O68 C61 1.226 . S
O69 Cd60 2.356 . S
O69 C67 1.282 . S
C70 O71 1.306 . S
C70 O73 1.160 . S
O71 C70 1.306 . S
O71 Cd72 2.228 . S
Cd72 O71 2.228 . S
Cd72 O76 2.273 . S
Cd72 O80 2.277 . S
O73 C70 1.160 . S
O73 Cd74 2.203 . S
Cd74 O73 2.203 . S
Cd74 O76 2.411 . S
Cd74 O77 2.333 . S
Cd74 O78 2.352 . S
Cd74 O82 2.277 . S
Cd74 O83 2.356 . S
C75 O80 1.209 . S
C75 O82 1.226 . S
O76 Cd72 2.273 . S
O76 Cd74 2.411 . S
O76 C79 1.320 . S
O77 Cd74 2.333 . S
O77 C79 1.214 . S
O78 Cd74 2.352 . S
O78 C81 1.258 . S
C79 O76 1.320 . S
C79 O77 1.214 . S
O80 Cd72 2.277 . S
O80 C75 1.209 . S
C81 O78 1.258 . S
C81 O83 1.282 . S
O82 Cd74 2.277 . S
O82 C75 1.226 . S
O83 Cd74 2.356 . S
O83 C81 1.282 . S
H84 C96 0.930 . S
H85 C98 0.930 . S
H86 C99 0.930 . S
H87 C103 0.959 . S
H88 C103 0.959 . S
H89 C103 0.961 . S
H90 C104 0.960 . S
H91 C104 0.961 . S
H92 C104 0.959 . S
H93 C107 0.929 . S
H94 C108 0.931 . S
H95 C110 0.930 . S
C96 H84 0.930 . S
C96 C97 1.399 . S
C96 C101 1.399 . S
C97 C96 1.399 . S
C97 C98 1.376 . S
C98 H85 0.930 . S
C98 C97 1.376 . S
C98 C99 1.388 . S
C99 H86 0.930 . S
C99 C98 1.388 . S
C99 C100 1.390 . S
C100 C99 1.390 . S
C100 C101 1.394 . S
C100 C106 1.465 1_545 S
C101 C96 1.399 . S
C101 C100 1.394 . S
C101 C102 1.516 . S
C102 C101 1.516 . S
C102 C103 1.502 . S
C102 C104 1.561 . S
C102 C105 1.526 1_545 S
C103 H87 0.959 . S
C103 H88 0.959 . S
C103 H89 0.961 . S
C103 C102 1.502 . S
C104 H90 0.960 . S
C104 H91 0.961 . S
C104 H92 0.959 . S
C104 C102 1.561 . S
C105 C102 1.526 1_565 S
C105 C106 1.396 . S
C105 C110 1.390 . S
C106 C100 1.465 1_565 S
C106 C105 1.396 . S
C106 C107 1.399 . S
C107 H93 0.929 . S
C107 C106 1.399 . S
C107 C108 1.385 . S
C108 H94 0.931 . S
C108 C107 1.385 . S
C108 C109 1.389 . S
C109 C108 1.389 . S
C109 C110 1.387 . S
C110 H95 0.930 . S
C110 C105 1.390 . S
C110 C109 1.387 . S
H111 C123 0.930 . S
H112 C125 0.930 . S
H113 C126 0.930 . S
H114 C130 0.959 . S
H115 C130 0.959 . S
H116 C130 0.961 . S
H117 C131 0.960 . S
H118 C131 0.961 . S
H119 C131 0.959 . S
H120 C134 0.929 . S
H121 C135 0.931 . S
H122 C137 0.930 . S
C123 H111 0.930 . S
C123 C124 1.399 . S
C123 C128 1.399 . S
C124 C123 1.399 . S
C124 C125 1.376 . S
C125 H112 0.930 . S
C125 C124 1.376 . S
C125 C126 1.388 . S
C126 H113 0.930 . S
C126 C125 1.388 . S
C126 C127 1.390 . S
C127 C126 1.390 . S
C127 C128 1.394 . S
C127 C133 1.465 . S
C128 C123 1.399 . S
C128 C127 1.394 . S
C128 C129 1.516 . S
C129 C128 1.516 . S
C129 C130 1.502 . S
C129 C131 1.561 . S
C129 C132 1.526 . S
C130 H114 0.959 . S
C130 H115 0.959 . S
C130 H116 0.961 . S
C130 C129 1.502 . S
C131 H117 0.960 . S
C131 H118 0.961 . S
C131 H119 0.959 . S
C131 C129 1.561 . S
C132 C129 1.526 . S
C132 C133 1.396 . S
C132 C137 1.390 . S
C133 C127 1.465 . S
C133 C132 1.396 . S
C133 C134 1.399 . S
C134 H120 0.929 . S
C134 C133 1.399 . S
C134 C135 1.385 . S
C135 H121 0.931 . S
C135 C134 1.385 . S
C135 C136 1.389 . S
C136 C135 1.389 . S
C136 C137 1.387 . S
C137 H122 0.930 . S
C137 C132 1.390 . S
C137 C136 1.387 . S
H138 C150 0.930 . S
H139 C152 0.930 . S
H140 C153 0.930 . S
H141 C157 0.959 . S
H142 C157 0.959 . S
H143 C157 0.961 . S
H144 C158 0.960 . S
H145 C158 0.961 . S
H146 C158 0.959 . S
H147 C161 0.929 . S
H148 C162 0.931 . S
H149 C164 0.930 . S
C150 H138 0.930 . S
C150 C151 1.399 . S
C150 C155 1.399 . S
C151 C150 1.399 . S
C151 C152 1.376 . S
C152 H139 0.930 . S
C152 C151 1.376 . S
C152 C153 1.388 . S
C153 H140 0.930 . S
C153 C152 1.388 . S
C153 C154 1.390 . S
C154 C153 1.390 . S
C154 C155 1.394 . S
C154 C160 1.465 1_655 S
C155 C150 1.399 . S
C155 C154 1.394 . S
C155 C156 1.516 . S
C156 C155 1.516 . S
C156 C157 1.502 . S
C156 C158 1.561 . S
C156 C159 1.526 1_655 S
C157 H141 0.959 . S
C157 H142 0.959 . S
C157 H143 0.961 . S
C157 C156 1.502 . S
C158 H144 0.960 . S
C158 H145 0.961 . S
C158 H146 0.959 . S
C158 C156 1.561 . S
C159 C156 1.526 1_455 S
C159 C160 1.396 . S
C159 C164 1.390 . S
C160 C154 1.465 1_455 S
C160 C159 1.396 . S
C160 C161 1.399 . S
C161 H147 0.929 . S
C161 C160 1.399 . S
C161 C162 1.385 . S
C162 H148 0.931 . S
C162 C161 1.385 . S
C162 C163 1.389 . S
C163 C162 1.389 . S
C163 C164 1.387 . S
C164 H149 0.930 . S
C164 C159 1.390 . S
C164 C163 1.387 . S
H165 C177 0.930 . S
H166 C179 0.930 1_556 S
H167 C180 0.930 . S
H168 C184 0.959 . S
H169 C184 0.959 . S
H170 C184 0.962 . S
H171 C185 0.960 . S
H172 C185 0.961 . S
H173 C185 0.959 . S
H174 C188 0.929 1_565 S
H175 C189 0.931 . S
H176 C191 0.930 1_554 S
C177 H165 0.930 . S
C177 C178 1.399 . S
C177 C182 1.399 . S
C178 C177 1.399 . S
C178 C179 1.376 . S
C179 H166 0.930 1_554 S
C179 C178 1.376 . S
C179 C180 1.388 1_554 S
C180 H167 0.930 . S
C180 C179 1.388 1_556 S
C180 C181 1.390 . S
C181 C180 1.390 . S
C181 C182 1.394 1_556 S
C181 C187 1.465 1_565 S
C182 C177 1.399 . S
C182 C181 1.394 1_554 S
C182 C183 1.516 1_565 S
C183 C182 1.516 1_545 S
C183 C184 1.502 . S
C183 C185 1.561 . S
C183 C186 1.526 . S
C184 H168 0.959 . S
C184 H169 0.959 . S
C184 H170 0.962 . S
C184 C183 1.502 . S
C185 H171 0.960 . S
C185 H172 0.961 . S
C185 H173 0.959 . S
C185 C183 1.561 . S
C186 C183 1.526 . S
C186 C187 1.396 1_554 S
C186 C191 1.390 1_554 S
C187 C181 1.465 1_545 S
C187 C186 1.396 1_556 S
C187 C188 1.399 . S
C188 H174 0.929 1_545 S
C188 C187 1.399 . S
C188 C189 1.385 . S
C189 H175 0.931 . S
C189 C188 1.385 . S
C189 C190 1.389 . S
C190 C189 1.389 . S
C190 C191 1.387 . S
C191 H176 0.930 1_556 S
C191 C186 1.390 1_556 S
C191 C190 1.387 . S
H192 C204 0.930 . S
H193 C206 0.930 . S
H194 C207 0.930 . S
H195 C211 0.959 . S
H196 C211 0.959 . S
H197 C211 0.961 . S
H198 C212 0.960 . S
H199 C212 0.961 . S
H200 C212 0.959 . S
H201 C215 0.929 . S
H202 C216 0.931 . S
H203 C218 0.930 . S
C204 H192 0.930 . S
C204 C205 1.399 . S
C204 C209 1.399 . S
C205 C204 1.399 . S
C205 C206 1.376 . S
C206 H193 0.930 . S
C206 C205 1.376 . S
C206 C207 1.388 . S
C207 H194 0.930 . S
C207 C206 1.388 . S
C207 C208 1.390 . S
C208 C207 1.390 . S
C208 C209 1.394 . S
C208 C214 1.465 . S
C209 C204 1.399 . S
C209 C208 1.394 . S
C209 C210 1.516 . S
C210 C209 1.516 . S
C210 C211 1.502 . S
C210 C212 1.561 . S
C210 C213 1.526 . S
C211 H195 0.959 . S
C211 H196 0.959 . S
C211 H197 0.961 . S
C211 C210 1.502 . S
C212 H198 0.960 . S
C212 H199 0.961 . S
C212 H200 0.959 . S
C212 C210 1.561 . S
C213 C210 1.526 . S
C213 C214 1.396 . S
C213 C218 1.390 . S
C214 C208 1.465 . S
C214 C213 1.396 . S
C214 C215 1.399 . S
C215 H201 0.929 . S
C215 C214 1.399 . S
C215 C216 1.385 . S
C216 H202 0.931 . S
C216 C215 1.385 . S
C216 C217 1.389 . S
C217 C216 1.389 . S
C217 C218 1.387 . S
C218 H203 0.930 . S
C218 C213 1.390 . S
C218 C217 1.387 . S
H219 C231 0.930 . S
H220 C233 0.930 . S
H221 C234 0.930 . S
H222 C238 0.959 . S
H223 C238 0.959 . S
H224 C238 0.961 . S
H225 C239 0.960 . S
H226 C239 0.961 . S
H227 C239 0.959 . S
H228 C242 0.929 . S
H229 C243 0.931 . S
H230 C245 0.930 . S
C231 H219 0.930 . S
C231 C232 1.399 . S
C231 C236 1.399 . S
C232 C231 1.399 . S
C232 C233 1.376 . S
C233 H220 0.930 . S
C233 C232 1.376 . S
C233 C234 1.388 . S
C234 H221 0.930 . S
C234 C233 1.388 . S
C234 C235 1.390 . S
C235 C234 1.390 . S
C235 C236 1.394 . S
C235 C241 1.465 1_455 S
C236 C231 1.399 . S
C236 C235 1.394 . S
C236 C237 1.516 . S
C237 C236 1.516 . S
C237 C238 1.502 . S
C237 C239 1.561 . S
C237 C240 1.526 1_455 S
C238 H222 0.959 . S
C238 H223 0.959 . S
C238 H224 0.961 . S
C238 C237 1.502 . S
C239 H225 0.960 . S
C239 H226 0.961 . S
C239 H227 0.959 . S
C239 C237 1.561 . S
C240 C237 1.526 1_655 S
C240 C241 1.396 . S
C240 C245 1.390 . S
C241 C235 1.465 1_655 S
C241 C240 1.396 . S
C241 C242 1.399 . S
C242 H228 0.929 . S
C242 C241 1.399 . S
C242 C243 1.385 . S
C243 H229 0.931 . S
C243 C242 1.385 . S
C243 C244 1.389 . S
C244 C243 1.389 . S
C244 C245 1.387 . S
C245 H230 0.930 . S
C245 C240 1.390 . S
C245 C244 1.387 . S
H246 C258 0.930 . S
H247 C260 0.930 . S
H248 C261 0.930 . S
H249 C265 0.959 . S
H250 C265 0.959 . S
H251 C265 0.961 . S
H252 C266 0.960 . S
H253 C266 0.961 . S
H254 C266 0.959 . S
H255 C269 0.929 . S
H256 C270 0.931 . S
H257 C272 0.930 . S
C258 H246 0.930 . S
C258 C259 1.399 . S
C258 C263 1.399 . S
C259 C258 1.399 . S
C259 C260 1.376 . S
C260 H247 0.930 . S
C260 C259 1.376 . S
C260 C261 1.388 . S
C261 H248 0.930 . S
C261 C260 1.388 . S
C261 C262 1.390 . S
C262 C261 1.390 . S
C262 C263 1.394 . S
C262 C268 1.465 . S
C263 C258 1.399 . S
C263 C262 1.394 . S
C263 C264 1.516 . S
C264 C263 1.516 . S
C264 C265 1.502 . S
C264 C266 1.561 . S
C264 C267 1.526 . S
C265 H249 0.959 . S
C265 H250 0.959 . S
C265 H251 0.961 . S
C265 C264 1.502 . S
C266 H252 0.960 . S
C266 H253 0.961 . S
C266 H254 0.959 . S
C266 C264 1.561 . S
C267 C264 1.526 . S
C267 C268 1.396 . S
C267 C272 1.390 . S
C268 C262 1.465 . S
C268 C267 1.396 . S
C268 C269 1.399 . S
C269 H255 0.929 . S
C269 C268 1.399 . S
C269 C270 1.385 . S
C270 H256 0.931 . S
C270 C269 1.385 . S
C270 C271 1.389 . S
C271 C270 1.389 . S
C271 C272 1.387 . S
C272 H257 0.930 . S
C272 C267 1.390 . S
C272 C271 1.387 . S
H273 C285 0.930 . S
H274 C287 0.930 . S
H275 C288 0.930 . S
H276 C292 0.959 . S
H277 C292 0.959 . S
H278 C292 0.961 . S
H279 C293 0.960 . S
H280 C293 0.961 . S
H281 C293 0.959 . S
H282 C296 0.929 . S
H283 C297 0.931 . S
H284 C299 0.930 . S
C285 H273 0.930 . S
C285 C286 1.399 . S
C285 C290 1.399 . S
C286 C285 1.399 . S
C286 C287 1.376 . S
C287 H274 0.930 . S
C287 C286 1.376 . S
C287 C288 1.388 . S
C288 H275 0.930 . S
C288 C287 1.388 . S
C288 C289 1.390 . S
C289 C288 1.390 . S
C289 C290 1.394 . S
C289 C295 1.465 . S
C290 C285 1.399 . S
C290 C289 1.394 . S
C290 C291 1.516 . S
C291 C290 1.516 . S
C291 C292 1.502 . S
C291 C293 1.561 . S
C291 C294 1.526 . S
C292 H276 0.959 . S
C292 H277 0.959 . S
C292 H278 0.961 . S
C292 C291 1.502 . S
C293 H279 0.960 . S
C293 H280 0.961 . S
C293 H281 0.959 . S
C293 C291 1.561 . S
C294 C291 1.526 . S
C294 C295 1.396 . S
C294 C299 1.390 . S
C295 C289 1.465 . S
C295 C294 1.396 . S
C295 C296 1.399 . S
C296 H282 0.929 . S
C296 C295 1.399 . S
C296 C297 1.385 . S
C297 H283 0.931 . S
C297 C296 1.385 . S
C297 C298 1.389 . S
C298 C297 1.389 . S
C298 C299 1.387 . S
C299 H284 0.930 . S
C299 C294 1.390 . S
C299 C298 1.387 . S
H300 C312 0.930 . S
H301 C314 0.930 . S
H302 C315 0.930 . S
H303 C319 0.959 . S
H304 C319 0.959 . S
H305 C319 0.961 . S
H306 C320 0.960 . S
H307 C320 0.961 . S
H308 C320 0.959 . S
H309 C323 0.929 . S
H310 C324 0.931 . S
H311 C326 0.930 . S
C312 H300 0.930 . S
C312 C313 1.399 . S
C312 C317 1.399 . S
C313 C312 1.399 . S
C313 C314 1.376 . S
C314 H301 0.930 . S
C314 C313 1.376 . S
C314 C315 1.388 . S
C315 H302 0.930 . S
C315 C314 1.388 . S
C315 C316 1.390 . S
C316 C315 1.390 . S
C316 C317 1.394 . S
C316 C322 1.465 . S
C317 C312 1.399 . S
C317 C316 1.394 . S
C317 C318 1.516 . S
C318 C317 1.516 . S
C318 C319 1.502 . S
C318 C320 1.561 . S
C318 C321 1.526 . S
C319 H303 0.959 . S
C319 H304 0.959 . S
C319 H305 0.961 . S
C319 C318 1.502 . S
C320 H306 0.960 . S
C320 H307 0.961 . S
C320 H308 0.959 . S
C320 C318 1.561 . S
C321 C318 1.526 . S
C321 C322 1.396 . S
C321 C326 1.390 . S
C322 C316 1.465 . S
C322 C321 1.396 . S
C322 C323 1.399 . S
C323 H309 0.929 . S
C323 C322 1.399 . S
C323 C324 1.385 . S
C324 H310 0.931 . S
C324 C323 1.385 . S
C324 C325 1.389 . S
C325 C324 1.389 . S
C325 C326 1.387 . S
C326 H311 0.930 . S
C326 C321 1.390 . S
C326 C325 1.387 . S
H327 C339 0.930 . S
H328 C341 0.930 . S
H329 C342 0.930 . S
H330 C346 0.959 . S
H331 C346 0.959 . S
H332 C346 0.961 . S
H333 C347 0.960 . S
H334 C347 0.961 . S
H335 C347 0.959 . S
H336 C350 0.929 . S
H337 C351 0.931 . S
H338 C353 0.930 . S
C339 H327 0.930 . S
C339 C340 1.399 . S
C339 C344 1.399 . S
C340 C339 1.399 . S
C340 C341 1.376 . S
C341 H328 0.930 . S
C341 C340 1.376 . S
C341 C342 1.388 . S
C342 H329 0.930 . S
C342 C341 1.388 . S
C342 C343 1.390 . S
C343 C342 1.390 . S
C343 C344 1.394 . S
C343 C349 1.465 . S
C344 C339 1.399 . S
C344 C343 1.394 . S
C344 C345 1.516 . S
C345 C344 1.516 . S
C345 C346 1.502 . S
C345 C347 1.561 . S
C345 C348 1.526 . S
C346 H330 0.959 . S
C346 H331 0.959 . S
C346 H332 0.961 . S
C346 C345 1.502 . S
C347 H333 0.960 . S
C347 H334 0.961 . S
C347 H335 0.959 . S
C347 C345 1.561 . S
C348 C345 1.526 . S
C348 C349 1.396 . S
C348 C353 1.390 . S
C349 C343 1.465 . S
C349 C348 1.396 . S
C349 C350 1.399 . S
C350 H336 0.929 . S
C350 C349 1.399 . S
C350 C351 1.385 . S
C351 H337 0.931 . S
C351 C350 1.385 . S
C351 C352 1.389 . S
C352 C351 1.389 . S
C352 C353 1.387 . S
C353 H338 0.930 . S
C353 C348 1.390 . S
C353 C352 1.387 . S
H354 C366 0.930 . S
H355 C368 0.930 1_556 S
H356 C369 0.930 . S
H357 C373 0.959 . S
H358 C373 0.959 . S
H359 C373 0.961 . S
H360 C374 0.960 . S
H361 C374 0.961 . S
H362 C374 0.959 . S
H363 C377 0.929 . S
H364 C378 0.931 . S
H365 C380 0.930 . S
C366 H354 0.930 . S
C366 C367 1.399 . S
C366 C371 1.399 . S
C367 C366 1.399 . S
C367 C368 1.376 . S
C368 H355 0.930 1_554 S
C368 C367 1.376 . S
C368 C369 1.388 . S
C369 H356 0.930 . S
C369 C368 1.388 . S
C369 C370 1.390 . S
C370 C369 1.390 . S
C370 C371 1.394 . S
C370 C376 1.465 . S
C371 C366 1.399 . S
C371 C370 1.394 . S
C371 C372 1.516 . S
C372 C371 1.516 . S
C372 C373 1.502 . S
C372 C374 1.561 . S
C372 C375 1.526 . S
C373 H357 0.959 . S
C373 H358 0.959 . S
C373 H359 0.961 . S
C373 C372 1.502 . S
C374 H360 0.960 . S
C374 H361 0.961 . S
C374 H362 0.959 . S
C374 C372 1.561 . S
C375 C372 1.526 . S
C375 C376 1.396 . S
C375 C380 1.390 . S
C376 C370 1.465 . S
C376 C375 1.396 . S
C376 C377 1.399 . S
C377 H363 0.929 . S
C377 C376 1.399 . S
C377 C378 1.385 . S
C378 H364 0.931 . S
C378 C377 1.385 . S
C378 C379 1.389 . S
C379 C378 1.389 . S
C379 C380 1.387 . S
C380 H365 0.930 . S
C380 C375 1.390 . S
C380 C379 1.387 . S
H381 C393 0.930 . S
H382 C395 0.930 . S
H383 C396 0.930 . S
H384 C400 0.959 . S
H385 C400 0.959 . S
H386 C400 0.961 . S
H387 C401 0.960 . S
H388 C401 0.961 . S
H389 C401 0.959 . S
H390 C404 0.929 . S
H391 C405 0.931 . S
H392 C407 0.930 . S
C393 H381 0.930 . S
C393 C394 1.399 . S
C393 C398 1.399 . S
C394 C393 1.399 . S
C394 C395 1.376 . S
C395 H382 0.930 . S
C395 C394 1.376 . S
C395 C396 1.388 . S
C396 H383 0.930 . S
C396 C395 1.388 . S
C396 C397 1.390 . S
C397 C396 1.390 . S
C397 C398 1.394 . S
C397 C403 1.465 . S
C398 C393 1.399 . S
C398 C397 1.394 . S
C398 C399 1.516 . S
C399 C398 1.516 . S
C399 C400 1.502 . S
C399 C401 1.561 . S
C399 C402 1.526 . S
C400 H384 0.959 . S
C400 H385 0.959 . S
C400 H386 0.961 . S
C400 C399 1.502 . S
C401 H387 0.960 . S
C401 H388 0.961 . S
C401 H389 0.959 . S
C401 C399 1.561 . S
C402 C399 1.526 . S
C402 C403 1.396 . S
C402 C407 1.390 . S
C403 C397 1.465 . S
C403 C402 1.396 . S
C403 C404 1.399 . S
C404 H390 0.929 . S
C404 C403 1.399 . S
C404 C405 1.385 . S
C405 H391 0.931 . S
C405 C404 1.385 . S
C405 C406 1.389 . S
C406 C405 1.389 . S
C406 C407 1.387 . S
C407 H392 0.930 . S
C407 C402 1.390 . S
C407 C406 1.387 . S
C97 C5 1.604 . S
C109 C81 1.596 . S
C124 C11 1.592 . S
C136 C19 1.598 . S
C151 C33 1.604 . S
C163 C25 1.582 . S
C178 C47 1.597 . S
C190 C39 1.595 . S
C205 C61 1.597 . S
C217 C53 1.604 . S
C232 C75 1.603 . S
C244 C67 1.601 . S
C259 C0 1.424 . S
C271 C65 1.453 . S
C286 C79 1.461 . S
C298 C14 1.455 . S
C313 C28 1.427 . S
C325 C9 1.444 . S
C340 C23 1.453 . S
C352 C42 1.461 1_556 S
C367 C37 1.458 1_554 S
C379 C56 1.461 . S
C394 C70 1.457 . S
C406 C51 1.461 . S
