# Generated by pormake.
# Topology dia, (4)-cn, num edge types: 1
# Building blocks:
#     Node 0, Type 0, BuildingBlock: KUFVIS_clean_sbu_0, # of connection points: 4
#     Node 1, Type 0, BuildingBlock: KUFVIS_clean_sbu_0, # of connection points: 4
#     Node 2, Type 0, BuildingBlock: KUFVIS_clean_sbu_0, # of connection points: 4
#     Node 3, Type 0, BuildingBlock: KUFVIS_clean_sbu_0, # of connection points: 4
#     Node 4, Type 0, BuildingBlock: KUFVIS_clean_sbu_0, # of connection points: 4
#     Node 5, Type 0, BuildingBlock: KUFVIS_clean_sbu_0, # of connection points: 4
#     Node 6, Type 0, BuildingBlock: KUFVIS_clean_sbu_0, # of connection points: 4
#     Node 7, Type 0, BuildingBlock: KUFVIS_clean_sbu_0, # of connection points: 4
#     Edge 8, Type (0, 0), BuildingBlock: XIVTED_clean_linker_0, # of connection points: 2
#     Edge 9, Type (0, 0), BuildingBlock: XIVTED_clean_linker_0, # of connection points: 2
#     Edge 10, Type (0, 0), BuildingBlock: XIVTED_clean_linker_0, # of connection points: 2
#     Edge 11, Type (0, 0), BuildingBlock: XIVTED_clean_linker_0, # of connection points: 2
#     Edge 12, Type (0, 0), BuildingBlock: XIVTED_clean_linker_0, # of connection points: 2
#     Edge 13, Type (0, 0), BuildingBlock: XIVTED_clean_linker_0, # of connection points: 2
#     Edge 14, Type (0, 0), BuildingBlock: XIVTED_clean_linker_0, # of connection points: 2
#     Edge 15, Type (0, 0), BuildingBlock: XIVTED_clean_linker_0, # of connection points: 2
#     Edge 16, Type (0, 0), BuildingBlock: XIVTED_clean_linker_0, # of connection points: 2
#     Edge 17, Type (0, 0), BuildingBlock: XIVTED_clean_linker_0, # of connection points: 2
#     Edge 18, Type (0, 0), BuildingBlock: XIVTED_clean_linker_0, # of connection points: 2
#     Edge 19, Type (0, 0), BuildingBlock: XIVTED_clean_linker_0, # of connection points: 2
#     Edge 20, Type (0, 0), BuildingBlock: XIVTED_clean_linker_0, # of connection points: 2
#     Edge 21, Type (0, 0), BuildingBlock: XIVTED_clean_linker_0, # of connection points: 2
#     Edge 22, Type (0, 0), BuildingBlock: XIVTED_clean_linker_0, # of connection points: 2
#     Edge 23, Type (0, 0), BuildingBlock: XIVTED_clean_linker_0, # of connection points: 2
# Relax obj value: 0.070
# Max RMSD: 0.124
# Mean RMSD: 0.124
data_MOF--net-dia--node1-KUFVIS_clean_sbu_0--edge1-XIVTED_clean_linker_0
_symmetry_space_group_name_H-M    P1
_symmetry_Int_Tables_number       1
_symmetry_cell_setting            triclinic
loop_
_symmetry_equiv_pos_as_xyz
'x, y, z'
_cell_length_a     38.017063
_cell_length_b     32.752662
_cell_length_c     32.754465
_cell_angle_alpha  91.357864
_cell_angle_beta   91.760312
_cell_angle_gamma 91.764228
loop_
_atom_site_label
_atom_site_type_symbol
_atom_site_fract_x
_atom_site_fract_y
_atom_site_fract_z
_atom_type_partial_charge
Mn0 Mn 0.13162 0.13829 0.62989 0.0
Mn1 Mn 0.16198 0.06104 0.57154 0.0
C2 C 0.09814 0.11089 0.57509 0.0
C3 C 0.1003 0.16357 0.68503 0.0
C4 C 0.18675 0.14899 0.56371 0.0
O5 O 0.17082 0.11603 0.66661 0.0
O6 O 0.18825 0.06544 0.62467 0.0
C7 C 0.13845 0.9927 0.62278 0.0
N8 N 0.13867 0.01111 0.58593 0.0
C9 C 0.10251 0.9567 0.55462 0.0
C10 C 0.10206 0.93706 0.59218 0.0
C11 C 0.12002 0.95521 0.62643 0.0
C12 C 0.12127 0.99406 0.55286 0.0
H13 H 0.15219 0.00654 0.64919 0.0
C14 C 0.19046 0.08606 0.65843 0.0
O15 O 0.12468 0.18547 0.66825 0.0
O16 O 0.09527 0.12635 0.67112 0.0
N17 N 0.1387 0.05275 0.51921 0.0
C18 C 0.14058 0.07641 0.48563 0.0
C19 C 0.12353 0.0629 0.44889 0.0
C20 C 0.10509 0.02504 0.44692 0.0
C21 C 0.10397 1.00095 0.4817 0.0
C22 C 0.1216 0.01591 0.5174 0.0
H23 H 0.15488 0.10543 0.48688 0.0
O24 O 0.09269 0.14762 0.58866 0.0
O25 O 0.12298 0.09158 0.59365 0.0
O26 O 0.16799 0.16339 0.59202 0.0
O27 O 0.18674 0.11108 0.5537 0.0
C28 C 0.08554 0.96299 0.48253 0.0
C29 C 0.08466 0.94099 0.51902 0.0
H30 H 0.08781 0.90818 0.59515 0.0
H31 H 0.11966 0.94032 0.65556 0.0
H32 H 0.12458 0.08165 0.42217 0.0
H33 H 0.09173 0.01489 0.41864 0.0
H34 H 0.07148 0.95077 0.45546 0.0
H35 H 0.06991 0.91218 0.51945 0.0
Mn36 Mn 0.90213 0.38071 0.87284 0.0
Mn37 Mn 0.87012 0.43907 0.94908 0.0
C38 C 0.93474 0.43605 0.90061 0.0
C39 C 0.93424 0.32604 0.84803 0.0
C40 C 0.84639 0.44606 0.86077 0.0
O41 O 0.86305 0.34349 0.89459 0.0
O42 O 0.84409 0.38579 0.94407 0.0
C43 C 0.89268 0.38802 0.01798 0.0
N44 N 0.89266 0.42484 0.99952 0.0
C45 C 0.92785 0.45637 0.05463 0.0
C46 C 0.9281 0.41884 0.07433 0.0
C47 C 0.91052 0.3845 0.05586 0.0
C48 C 0.90969 0.45801 0.01688 0.0
H49 H 0.87923 0.36154 1.0039 0.0
C50 C 0.84256 0.35187 0.92371 0.0
O51 O 0.90985 0.34245 0.82587 0.0
O52 O 0.93889 0.34005 0.88527 0.0
N53 N 0.89303 0.49155 0.95785 0.0
C54 C 0.89131 0.52513 0.93417 0.0
C55 C 0.90797 0.56198 0.94802 0.0
C56 C 0.92584 0.56406 0.98622 0.0
C57 C 0.92678 0.52928 0.01033 0.0
C58 C 0.90956 0.49346 0.99502 0.0
H59 H 0.87744 0.52378 0.90488 0.0
O60 O 0.94073 0.42253 0.864 0.0
O61 O 0.90981 0.41722 0.91954 0.0
O62 O 0.8655 0.41778 0.84704 0.0
O63 O 0.84606 0.45667 0.8985 0.0
C64 C 0.94463 0.52856 0.04864 0.0
C65 C 0.94532 0.49208 0.07068 0.0
H66 H 0.94188 0.41597 0.10351 0.0
H67 H 0.91072 0.35538 0.0708 0.0
H68 H 0.90706 0.58871 0.92927 0.0
H69 H 0.93891 0.59244 0.99665 0.0
H70 H 0.95838 0.55572 0.06114 0.0
H71 H 0.9596 0.49175 0.09979 0.0
Mn72 Mn 0.63132 0.14351 0.13024 0.0
Mn73 Mn 0.66258 0.06354 0.07632 0.0
C74 C 0.59812 0.11275 0.07696 0.0
C75 C 0.60016 0.1728 0.18345 0.0
C76 C 0.68643 0.15095 0.06356 0.0
O77 O 0.6708 0.12408 0.16833 0.0
O78 O 0.68882 0.07155 0.12918 0.0
C79 C 0.63987 0.99815 0.13157 0.0
N80 N 0.63991 0.01429 0.09363 0.0
C81 C 0.6046 0.95758 0.06544 0.0
C82 C 0.60434 0.94025 0.10417 0.0
C83 C 0.62197 0.96069 0.13739 0.0
C84 C 0.62282 0.99502 0.06152 0.0
H85 H 0.65337 0.01376 0.15719 0.0
C86 C 0.69084 0.09411 0.1617 0.0
O87 O 0.62418 0.19324 0.16457 0.0
O88 O 0.59539 0.13448 0.17295 0.0
N89 N 0.63953 0.05175 0.02442 0.0
C90 C 0.64134 0.07324 0.98937 0.0
C91 C 0.6247 0.05721 0.95334 0.0
C92 C 0.60677 0.01908 0.95357 0.0
C93 C 0.60577 0.99721 0.98983 0.0
C94 C 0.62299 0.01463 0.02474 0.0
H95 H 0.65527 0.10245 0.98894 0.0
O96 O 0.59235 0.15003 0.08852 0.0
O97 O 0.62302 0.09457 0.09673 0.0
O98 O 0.66734 0.16648 0.09088 0.0
O99 O 0.68687 0.11266 0.05553 0.0
C100 C 0.58784 0.95916 0.99287 0.0
C101 C 0.58709 0.93946 0.0307 0.0
H102 H 0.59052 0.91139 0.1088 0.0
H103 H 0.62176 0.94758 0.16741 0.0
H104 H 0.62567 0.07423 0.92546 0.0
H105 H 0.5937 0.00699 0.92582 0.0
H106 H 0.57407 0.94508 0.96646 0.0
H107 H 0.57277 0.91052 0.0328 0.0
Mn108 Mn 0.89665 0.88471 0.37166 0.0
Mn109 Mn 0.86699 0.9397 0.45182 0.0
C110 C 0.93063 0.93801 0.40119 0.0
C111 C 0.92687 0.83105 0.34179 0.0
C112 C 0.84206 0.95193 0.36471 0.0
O113 O 0.85733 0.84713 0.39236 0.0
O114 O 0.84048 0.8869 0.44497 0.0
C115 C 0.89044 0.885 0.51735 0.0
N116 N 0.89027 0.92277 0.50084 0.0
C117 C 0.92611 0.95147 0.55685 0.0
C118 C 0.92651 0.91292 0.57457 0.0
C119 C 0.9087 0.87953 0.55465 0.0
C120 C 0.90757 0.95503 0.51958 0.0
H121 H 0.87677 0.85926 0.50217 0.0
C122 C 0.83794 0.85411 0.42285 0.0
O123 O 0.90253 0.84999 0.32198 0.0
O124 O 0.93251 0.84171 0.37996 0.0
N125 N 0.89038 0.99159 0.46265 0.0
C126 C 0.8884 0.02641 0.44084 0.0
C127 C 0.90516 0.06258 0.45635 0.0
C128 C 0.92338 0.06272 0.49432 0.0
C129 C 0.92459 0.02667 0.5165 0.0
C130 C 0.90725 0.99161 0.4996 0.0
H131 H 0.87421 0.02659 0.41178 0.0
O132 O 0.9357 0.92602 0.36387 0.0
O133 O 0.90597 0.91863 0.42017 0.0
O134 O 0.86065 0.9242 0.34913 0.0
O135 O 0.84208 0.96024 0.40297 0.0
C136 C 0.94275 0.02402 0.55445 0.0
C137 C 0.94371 0.98638 0.57448 0.0
H138 H 0.94058 0.90857 0.60332 0.0
H139 H 0.909 0.84965 0.56805 0.0
H140 H 0.90405 0.09029 0.43908 0.0
H141 H 0.93651 0.09059 0.50604 0.0
H142 H 0.95654 0.05058 0.56819 0.0
H143 H 0.95825 0.98458 0.60331 0.0
Mn144 Mn 0.13086 0.64317 0.13011 0.0
Mn145 Mn 0.16304 0.56424 0.07547 0.0
C146 C 0.09812 0.61274 0.07627 0.0
C147 C 0.09942 0.67185 0.18338 0.0
C148 C 0.18617 0.65203 0.06383 0.0
O149 O 0.1703 0.62371 0.16823 0.0
O150 O 0.18903 0.57199 0.12854 0.0
C151 C 0.14073 0.49796 0.12991 0.0
N152 N 0.14078 0.5145 0.09215 0.0
C153 C 0.10628 0.45753 0.06314 0.0
C154 C 0.10602 0.43979 0.10168 0.0
C155 C 0.12323 0.46016 0.13522 0.0
C156 C 0.12408 0.4953 0.05974 0.0
H157 H 0.15392 0.51352 0.15576 0.0
C158 C 0.19068 0.59412 0.16135 0.0
O159 O 0.12346 0.69252 0.16478 0.0
O160 O 0.09475 0.63359 0.17256 0.0
N161 N 0.14033 0.55268 0.02333 0.0
C162 C 0.14213 0.57453 0.98852 0.0
C163 C 0.12595 0.55857 0.9522 0.0
C164 C 0.10849 0.52014 0.95191 0.0
C165 C 0.10747 0.49793 0.98796 0.0
C166 C 0.12424 0.51529 0.02317 0.0
H167 H 0.15571 0.60397 0.98847 0.0
O168 O 0.09206 0.64982 0.08824 0.0
O169 O 0.12303 0.59451 0.096 0.0
O170 O 0.16688 0.6669 0.09129 0.0
O171 O 0.18698 0.61387 0.05528 0.0
C172 C 0.09001 0.45954 0.99048 0.0
C173 C 0.08923 0.43947 0.0281 0.0
H174 H 0.09252 0.41066 0.10592 0.0
H175 H 0.12302 0.44674 0.16509 0.0
H176 H 0.12691 0.57587 0.92449 0.0
H177 H 0.09578 0.50808 0.92393 0.0
H178 H 0.07664 0.44546 0.9638 0.0
H179 H 0.07525 0.41027 0.02978 0.0
Mn180 Mn 0.39627 0.38464 0.37154 0.0
Mn181 Mn 0.36648 0.43943 0.45176 0.0
C182 C 0.43033 0.43755 0.40164 0.0
C183 C 0.4266 0.33114 0.3415 0.0
C184 C 0.34205 0.45233 0.36462 0.0
O185 O 0.3567 0.34712 0.39183 0.0
O186 O 0.33951 0.38698 0.44424 0.0
C187 C 0.38902 0.38389 0.51698 0.0
N188 N 0.38935 0.4218 0.50077 0.0
C189 C 0.42558 0.44946 0.55695 0.0
C190 C 0.42547 0.41075 0.57436 0.0
C191 C 0.40719 0.37781 0.55421 0.0
C192 C 0.40706 0.45364 0.51975 0.0
H193 H 0.37502 0.35847 0.5016 0.0
C194 C 0.33699 0.35426 0.422 0.0
O195 O 0.40234 0.35021 0.32168 0.0
O196 O 0.43198 0.34148 0.37979 0.0
N197 N 0.39032 0.49095 0.46318 0.0
C198 C 0.38876 0.52601 0.44167 0.0
C199 C 0.40604 0.56177 0.45743 0.0
C200 C 0.42433 0.56128 0.49532 0.0
C201 C 0.42506 0.52503 0.51721 0.0
C202 C 0.4072 0.49039 0.50008 0.0
H203 H 0.37456 0.52665 0.41265 0.0
O204 O 0.43551 0.42583 0.36426 0.0
O205 O 0.40548 0.41818 0.42029 0.0
O206 O 0.36047 0.42442 0.34906 0.0
O207 O 0.34206 0.46062 0.40288 0.0
C208 C 0.44332 0.52172 0.55503 0.0
C209 C 0.44373 0.48391 0.57478 0.0
H210 H 0.4395 0.40592 0.60304 0.0
H211 H 0.40711 0.34781 0.56737 0.0
H212 H 0.40528 0.58965 0.44038 0.0
H213 H 0.43789 0.58882 0.5072 0.0
H214 H 0.45757 0.54792 0.56889 0.0
H215 H 0.4583 0.48161 0.60353 0.0
Mn216 Mn 0.40249 0.88138 0.87261 0.0
Mn217 Mn 0.37007 0.93937 0.94888 0.0
C218 C 0.43482 0.93693 0.90039 0.0
C219 C 0.43462 0.82667 0.84795 0.0
C220 C 0.34646 0.94634 0.86051 0.0
O221 O 0.3635 0.84395 0.89418 0.0
O222 O 0.34451 0.88581 0.94395 0.0
C223 C 0.39305 0.88865 0.01786 0.0
N224 N 0.39267 0.92546 0.99938 0.0
C225 C 0.42711 0.95758 0.05477 0.0
C226 C 0.42772 0.92007 0.0745 0.0
C227 C 0.41072 0.88544 0.05588 0.0
C228 C 0.40918 0.9589 0.01686 0.0
H229 H 0.38001 0.86196 1.00368 0.0
C230 C 0.34312 0.85197 0.92347 0.0
O231 O 0.41032 0.84313 0.82569 0.0
O232 O 0.43928 0.84079 0.88516 0.0
N233 N 0.39247 0.99212 0.95765 0.0
C234 C 0.39049 0.02565 0.93393 0.0
C235 C 0.40655 0.06279 0.94792 0.0
C236 C 0.4241 0.06519 0.98632 0.0
C237 C 0.42535 0.03044 0.01043 0.0
C238 C 0.40873 0.99432 0.99497 0.0
H239 H 0.37683 0.02406 0.90451 0.0
O240 O 0.44095 0.92335 0.86384 0.0
O241 O 0.40998 0.91794 0.91935 0.0
O242 O 0.36582 0.91833 0.84673 0.0
O243 O 0.34589 0.9567 0.89829 0.0
C244 C 0.44288 0.03006 0.04895 0.0
C245 C 0.44394 0.9936 0.07099 0.0
H246 H 0.44134 0.91745 0.10381 0.0
H247 H 0.41119 0.85634 0.07084 0.0
H248 H 0.40542 0.08949 0.92915 0.0
H249 H 0.43669 0.0938 0.99687 0.0
H250 H 0.45613 0.05748 0.0616 0.0
H251 H 0.458 0.99354 0.10025 0.0
Mn252 Mn 0.63097 0.6377 0.63051 0.0
Mn253 Mn 0.66194 0.56163 0.57106 0.0
C254 C 0.59781 0.61104 0.57509 0.0
C255 C 0.59953 0.66226 0.68581 0.0
C256 C 0.68641 0.64985 0.56495 0.0
O257 O 0.67006 0.615 0.66708 0.0
O258 O 0.68788 0.56521 0.62445 0.0
C259 C 0.63841 0.49216 0.62083 0.0
N260 N 0.63877 0.51127 0.58436 0.0
C261 C 0.60327 0.45705 0.55171 0.0
C262 C 0.60268 0.43669 0.58887 0.0
C263 C 0.62023 0.4544 0.6236 0.0
C264 C 0.62174 0.49465 0.55083 0.0
H265 H 0.65186 0.50565 0.6476 0.0
C266 C 0.68983 0.58524 0.65856 0.0
O267 O 0.62398 0.68433 0.6694 0.0
O268 O 0.59443 0.62522 0.6714 0.0
N269 N 0.639 0.55416 0.51845 0.0
C270 C 0.64096 0.57848 0.48535 0.0
C271 C 0.62435 0.56544 0.44821 0.0
C272 C 0.60626 0.52738 0.44534 0.0
C273 C 0.60501 0.50265 0.47966 0.0
C274 C 0.62219 0.51717 0.5158 0.0
H275 H 0.65501 0.60765 0.48728 0.0
O276 O 0.59222 0.64754 0.5892 0.0
O277 O 0.62263 0.59151 0.59347 0.0
O278 O 0.66743 0.66356 0.59335 0.0
O279 O 0.68664 0.61214 0.55425 0.0
C280 C 0.58693 0.46444 0.47959 0.0
C281 C 0.58589 0.44176 0.51564 0.0
H282 H 0.58865 0.40758 0.59115 0.0
H283 H 0.61977 0.43895 0.65243 0.0
H284 H 0.62547 0.58469 0.42185 0.0
H285 H 0.59325 0.51757 0.41674 0.0
H286 H 0.57325 0.45251 0.45214 0.0
H287 H 0.5714 0.41276 0.51538 0.0
H288 H 0.27736 0.36712 0.46314 0.0
H289 H 0.23426 0.13141 0.5044 0.0
H290 H 0.33744 0.27029 0.41097 0.0
H291 H 0.18854 0.23266 0.56839 0.0
H292 H 0.26835 0.18012 0.46455 0.0
H293 H 0.23962 0.31654 0.4946 0.0
C294 C 0.28241 0.33507 0.45793 0.0
C295 C 0.31088 0.32295 0.43469 0.0
C296 C 0.25083 0.19155 0.48732 0.0
C297 C 0.26773 0.2645 0.47136 0.0
C298 C 0.23139 0.16381 0.5102 0.0
C299 C 0.20852 0.17787 0.54008 0.0
C300 C 0.2472 0.23366 0.49412 0.0
C301 C 0.20589 0.22023 0.54598 0.0
C302 C 0.26087 0.30614 0.47611 0.0
C303 C 0.31578 0.28095 0.42863 0.0
N304 N 0.22491 0.24648 0.52323 0.0
N305 N 0.29461 0.25313 0.44727 0.0
H306 H 0.69347 0.60128 0.74202 0.0
H307 H 0.84218 0.43643 0.77745 0.0
H308 H 0.7446 0.53541 0.64592 0.0
H309 H 0.79998 0.50707 0.87659 0.0
H310 H 0.8063 0.47379 0.72932 0.0
H311 H 0.73273 0.56951 0.79234 0.0
C312 C 0.71314 0.58062 0.73145 0.0
C313 C 0.71547 0.57078 0.68966 0.0
C314 C 0.80485 0.48125 0.76159 0.0
C315 C 0.76006 0.53414 0.74688 0.0
C316 C 0.82533 0.45975 0.78921 0.0
C317 C 0.82411 0.46839 0.83129 0.0
C318 C 0.78273 0.5117 0.77592 0.0
C319 C 0.80175 0.49921 0.84446 0.0
C320 C 0.7354 0.56235 0.76017 0.0
C321 C 0.74142 0.54366 0.67776 0.0
N322 N 0.78186 0.51968 0.81688 0.0
N323 N 0.76242 0.52623 0.70614 0.0
H324 H 0.56325 0.0434 0.09556 0.0
H325 H 0.46093 0.01244 0.87923 0.0
H326 H 0.57292 0.13121 1.0004 0.0
H327 H 0.46863 0.92093 0.97111 0.0
H328 H 0.50044 0.05817 0.92195 0.0
H329 H 0.52377 1.00129 0.05097 0.0
C330 C 0.55696 0.05365 0.06505 0.0
C331 C 0.57222 0.08972 0.05077 0.0
C332 C 0.49353 0.02802 0.93259 0.0
C333 C 0.527 0.04206 0.99953 0.0
C334 C 0.47118 1.00205 0.90826 0.0
C335 C 0.4607 0.96379 0.92271 0.0
C336 C 0.50548 0.01505 0.97108 0.0
C337 C 0.4752 0.95092 0.95978 0.0
C338 C 0.53443 0.02971 0.03958 0.0
C339 C 0.56222 0.10283 0.01182 0.0
N340 N 0.49654 0.97665 0.9829 0.0
N341 N 0.5405 0.07861 0.9871 0.0
H342 H 0.93716 0.82599 0.26023 0.0
H343 H 0.05865 0.63847 0.24331 0.0
H344 H 0.96974 0.77226 0.37378 0.0
H345 H 0.08541 0.75253 0.18689 0.0
H346 H 0.0157 0.67451 0.28513 0.0
H347 H 0.97996 0.78515 0.22464 0.0
C348 C 0.95288 0.80508 0.27763 0.0
C349 C 0.94993 0.80261 0.3201 0.0
C350 C 0.03134 0.69142 0.26378 0.0
C351 C 0.99863 0.7555 0.27927 0.0
C352 C 0.05571 0.67101 0.23997 0.0
C353 C 0.0757 0.69261 0.21172 0.0
C354 C 0.02627 0.7332 0.25808 0.0
C355 C 0.07078 0.73472 0.20845 0.0
C356 C 0.97741 0.78204 0.25729 0.0
C357 C 0.97129 0.77515 0.34103 0.0
N358 N 0.04619 0.75346 0.23081 0.0
N359 N 0.99475 0.75238 0.32034 0.0
H360 H 0.34315 0.93783 0.77708 0.0
H361 H 0.19339 0.10142 0.74197 0.0
H362 H 0.2994 0.00659 0.87653 0.0
H363 H 0.24618 0.03778 0.64571 0.0
H364 H 0.2326 0.06961 0.79232 0.0
H365 H 0.30758 0.97563 0.729 0.0
C366 C 0.32601 0.96081 0.78891 0.0
C367 C 0.32427 0.9688 0.83106 0.0
C368 C 0.23567 0.06296 0.76011 0.0
C369 C 0.28326 0.01263 0.77577 0.0
C370 C 0.21345 0.08128 0.73139 0.0
C371 C 0.21623 0.072 0.68954 0.0
C372 C 0.26074 0.03529 0.74676 0.0
C373 C 0.24264 0.04553 0.6776 0.0
C374 C 0.30572 0.98258 0.76133 0.0
C375 C 0.30157 0.99923 0.84433 0.0
N376 N 0.2636 0.02802 0.70598 0.0
N377 N 0.28187 0.01996 0.81679 0.0
H378 H 0.96886 0.41783 0.97039 0.0
H379 H 0.07315 0.633 1.00018 0.0
H380 H 0.96154 0.51181 0.881 0.0
H381 H 0.06396 0.54212 0.09248 0.0
H382 H 0.03391 0.59016 0.9543 0.0
H383 H 1.00861 0.46216 0.01232 0.0
C384 C 0.97578 0.44801 0.95971 0.0
C385 C 0.96111 0.46203 0.92319 0.0
C386 C 0.04047 0.57973 0.98463 0.0
C387 C 1.00659 0.51305 0.97079 0.0
C388 C 0.06267 0.60411 0.01068 0.0
C389 C 0.07268 0.58996 0.04923 0.0
C390 C 0.02813 0.54148 0.9978 0.0
C391 C 0.05782 0.55315 0.06226 0.0
C392 C 0.99844 0.47335 0.98359 0.0
C393 C 0.97182 0.50057 0.90966 0.0
N394 N 0.0366 0.52996 0.03644 0.0
N395 N 0.99365 0.52521 0.93385 0.0
H396 H 0.43784 0.32732 0.26008 0.0
H397 H 0.55976 0.13979 0.24382 0.0
H398 H 0.46918 0.27196 0.37323 0.0
H399 H 0.58591 0.2535 0.18641 0.0
H400 H 0.51671 0.17585 0.28541 0.0
H401 H 0.48108 0.28706 0.22457 0.0
C402 C 0.45339 0.30618 0.2774 0.0
C403 C 0.44993 0.30305 0.31975 0.0
C404 C 0.53223 0.19271 0.26391 0.0
C405 C 0.49918 0.25663 0.279 0.0
C406 C 0.55667 0.17228 0.24022 0.0
C407 C 0.57652 0.19375 0.21175 0.0
C408 C 0.52693 0.23438 0.25788 0.0
C409 C 0.5714 0.23579 0.20815 0.0
C410 C 0.47819 0.28349 0.25711 0.0
C411 C 0.4711 0.27533 0.34057 0.0
N412 N 0.54673 0.25455 0.2304 0.0
N413 N 0.49481 0.2529 0.31992 0.0
H414 H 0.83709 0.7705 0.40825 0.0
H415 H 0.68894 0.73327 0.57303 0.0
H416 H 0.78062 0.86577 0.46862 0.0
H417 H 0.73312 0.63417 0.50418 0.0
H418 H 0.72311 0.78167 0.53405 0.0
H419 H 0.79892 0.71935 0.44055 0.0
C420 C 0.81636 0.78067 0.42766 0.0
C421 C 0.8123 0.82248 0.43605 0.0
C422 C 0.72537 0.74935 0.52733 0.0
C423 C 0.76908 0.76442 0.4734 0.0
C424 C 0.70592 0.72158 0.54982 0.0
C425 C 0.70816 0.67943 0.54211 0.0
C426 C 0.74752 0.73512 0.49686 0.0
C427 C 0.7306 0.66636 0.51133 0.0
C428 C 0.79477 0.7515 0.4463 0.0
C429 C 0.78512 0.83391 0.46165 0.0
N430 N 0.7495 0.69409 0.48991 0.0
N431 N 0.76485 0.80515 0.47956 0.0
H432 H 0.25237 0.5573 0.14885 0.0
H433 H 0.29345 0.51017 0.38379 0.0
H434 H 0.1884 0.60288 0.24541 0.0
H435 H 0.34193 0.45164 0.28117 0.0
H436 H 0.25904 0.55086 0.3359 0.0
H437 H 0.29077 0.52686 0.19941 0.0
C438 C 0.2466 0.56127 0.18087 0.0
C439 C 0.21688 0.58229 0.1929 0.0
C440 C 0.27728 0.52913 0.32404 0.0
C441 C 0.26074 0.54674 0.25131 0.0
C442 C 0.2969 0.50582 0.35129 0.0
C443 C 0.32053 0.47713 0.33656 0.0
C444 C 0.28159 0.52396 0.28182 0.0
C445 C 0.32394 0.47303 0.29413 0.0
C446 C 0.26852 0.5437 0.20979 0.0
C447 C 0.21104 0.5869 0.23487 0.0
N448 N 0.30476 0.49612 0.26843 0.0
N449 N 0.23259 0.56879 0.26267 0.0
H450 H 0.78258 0.36602 0.96376 0.0
H451 H 0.7353 0.13147 1.00623 0.0
H452 H 0.84255 0.26763 0.91437 0.0
H453 H 0.68791 0.23454 0.06529 0.0
H454 H 0.77119 0.17903 0.96695 0.0
H455 H 0.74332 0.31643 0.99418 0.0
C456 C 0.78738 0.33384 0.95904 0.0
C457 C 0.81621 0.32101 0.93683 0.0
C458 C 0.75287 0.1911 0.98848 0.0
C459 C 0.77118 0.26363 0.97223 0.0
C460 C 0.73238 0.16401 0.01099 0.0
C461 C 0.7086 0.17894 0.03941 0.0
C462 C 0.74937 0.23337 0.99423 0.0
C463 C 0.70594 0.22143 0.04405 0.0
C464 C 0.76491 0.30545 0.97657 0.0
C465 C 0.82067 0.27884 0.9313 0.0
N466 N 0.72602 0.24699 0.02177 0.0
N467 N 0.79856 0.25155 0.94929 0.0
H468 H 0.79355 0.00984 0.38397 0.0
H469 H 0.75247 0.05727 0.14912 0.0
H470 H 0.84162 0.95099 0.28125 0.0
H471 H 0.68865 0.103 0.24574 0.0
H472 H 0.79081 0.02664 0.19963 0.0
H473 H 0.75921 0.05067 0.33615 0.0
C474 C 0.79691 1.00543 0.35146 0.0
C475 C 0.82043 0.97663 0.33668 0.0
C476 C 0.76861 0.04356 0.21004 0.0
C477 C 0.78158 0.02364 0.28203 0.0
C478 C 0.74674 0.06125 0.18115 0.0
C479 C 0.71708 0.08235 0.19321 0.0
C480 C 0.76083 0.04658 0.25156 0.0
C481 C 0.71126 0.08697 0.23518 0.0
C482 C 0.77733 0.02882 0.32425 0.0
C483 C 0.82373 0.97247 0.29424 0.0
N484 N 0.73275 0.06874 0.26296 0.0
N485 N 0.8046 0.99566 0.26858 0.0
H486 H 0.95597 0.01384 0.38052 0.0
H487 H 0.06333 0.04174 0.59378 0.0
H488 H 0.96608 0.92095 0.47067 0.0
H489 H 0.07107 0.13087 0.4996 0.0
H490 H 0.02278 1.0004 0.54991 0.0
H491 H 0.99642 0.05904 0.42257 0.0
C492 C 0.96692 1.00305 0.40906 0.0
C493 C 0.95684 0.96457 0.42329 0.0
C494 C 0.03321 0.02895 0.53858 0.0
C495 C 1.00273 0.01521 0.47086 0.0
C496 C 0.05633 0.05249 0.56365 0.0
C497 C 0.07134 0.08872 0.54941 0.0
C498 C 0.02488 0.04186 0.49897 0.0
C499 C 0.06052 0.1024 0.51097 0.0
C500 C 0.98981 0.02872 0.433 0.0
C501 C 0.97229 0.95115 0.45962 0.0
N502 N 0.03817 0.07856 0.48661 0.0
N503 N 0.99415 0.9766 0.48239 0.0
H504 H 1.00221 0.31153 0.87156 0.0
H505 H 0.03288 0.13938 0.7013 0.0
H506 H 0.92081 0.27309 0.78306 0.0
H507 H 0.1138 0.22959 0.7368 0.0
H508 H 0.99177 0.17483 0.74521 0.0
H509 H 0.04362 0.26795 0.83606 0.0
C510 C 0.99288 0.29332 0.84514 0.0
C511 C 0.95805 0.29594 0.83014 0.0
C512 C 0.01866 0.18648 0.74369 0.0
C513 C 1.00509 0.2459 0.78987 0.0
C514 C 0.04219 0.16619 0.71892 0.0
C515 C 0.07679 0.18166 0.71536 0.0
C516 C 0.03005 0.22191 0.76582 0.0
C517 C 0.08732 0.21676 0.73857 0.0
C518 C 0.01657 0.26876 0.82481 0.0
C519 C 0.94747 0.27204 0.79552 0.0
N520 N 0.06407 0.23566 0.76294 0.0
N521 N 0.97086 0.24789 0.77661 0.0
H522 H 0.53175 0.63878 0.70131 0.0
H523 H 0.50223 0.81099 0.87209 0.0
H524 H 0.61358 0.72717 0.73868 0.0
H525 H 0.42092 0.77383 0.78298 0.0
H526 H 0.54323 0.76651 0.83708 0.0
H527 H 0.49078 0.6745 0.74523 0.0
C528 C 0.54128 0.66521 0.71937 0.0
C529 C 0.57609 0.68014 0.71631 0.0
C530 C 0.51627 0.7678 0.82559 0.0
C531 C 0.52953 0.7207 0.76673 0.0
C532 C 0.49282 0.79289 0.84564 0.0
C533 C 0.45815 0.79615 0.8303 0.0
C534 C 0.50472 0.74506 0.7906 0.0
C535 C 0.44746 0.77232 0.79567 0.0
C536 C 0.51784 0.68567 0.74414 0.0
C537 C 0.58693 0.71477 0.74006 0.0
N538 N 0.47063 0.74768 0.77702 0.0
N539 N 0.56375 0.73385 0.76437 0.0
H540 H 0.18687 0.73551 0.06728 0.0
H541 H 0.34261 0.76802 0.91111 0.0
H542 H 0.23519 0.63434 1.00604 0.0
H543 H 0.28459 0.86478 0.96683 0.0
H544 H 0.30282 0.71776 0.94229 0.0
H545 H 0.22243 0.7826 0.02858 0.0
C546 C 0.20501 0.72309 0.04573 0.0
C547 C 0.20807 0.68075 0.0402 0.0
C548 C 0.29873 0.75004 0.94728 0.0
C549 C 0.24919 0.73499 0.99532 0.0
C550 C 0.32127 0.77869 0.92933 0.0
C551 C 0.31719 0.82068 0.93672 0.0
C552 C 0.27202 0.76364 0.97263 0.0
C553 C 0.28916 0.83278 0.9607 0.0
C554 C 0.22531 0.75012 0.02342 0.0
C555 C 0.232 0.66672 0.01147 0.0
N556 N 0.26793 0.8045 0.97791 0.0
N557 N 0.25178 0.69379 0.99022 0.0
H558 H 0.46566 0.41834 0.47044 0.0
H559 H 0.57091 0.63299 0.50017 0.0
H560 H 0.45633 0.51368 0.38277 0.0
H561 H 0.56345 0.5408 0.5914 0.0
H562 H 0.53032 0.59105 0.45499 0.0
H563 H 0.50614 0.46222 0.51197 0.0
C564 C 0.47225 0.44874 0.46009 0.0
C565 C 0.45682 0.46329 0.42424 0.0
C566 C 0.53752 0.58017 0.48496 0.0
C567 C 0.50316 0.51374 0.47127 0.0
C568 C 0.56048 0.60406 0.51062 0.0
C569 C 0.57132 0.58928 0.54861 0.0
C570 C 0.52532 0.5418 0.49799 0.0
C571 C 0.55659 0.55237 0.56158 0.0
C572 C 0.49534 0.47381 0.48372 0.0
C573 C 0.46718 0.50207 0.41099 0.0
N574 N 0.53466 0.52968 0.53616 0.0
N575 N 0.48945 0.52642 0.43491 0.0
loop_
_geom_bond_atom_site_label_1
_geom_bond_atom_site_label_2
_geom_bond_distance
_geom_bond_site_symmetry_2
_ccdc_geom_bond_type
Mn0 O5 2.095 . S
Mn0 O15 2.162 . S
Mn0 O16 2.297 . S
Mn0 O24 2.385 . S
Mn0 O25 2.209 . S
Mn0 O26 2.094 . S
Mn1 O6 2.121 . S
Mn1 N8 2.257 1_545 S
Mn1 N17 2.282 . S
Mn1 O25 2.215 . S
Mn1 O27 2.117 . S
C2 O24 1.234 . S
C2 O25 1.283 . S
C3 O15 1.281 . S
C3 O16 1.236 . S
C4 O26 1.240 . S
C4 O27 1.264 . S
O5 Mn0 2.095 . S
O5 C14 1.250 . S
O6 Mn1 2.121 . S
O6 C14 1.258 . S
C7 N8 1.326 . S
C7 C11 1.460 . S
C7 H13 0.929 . S
N8 Mn1 2.257 1_565 S
N8 C7 1.326 . S
N8 C12 1.362 . S
C9 C10 1.258 . S
C9 C12 1.431 . S
C9 C29 1.449 . S
C10 C9 1.258 . S
C10 C11 1.477 . S
C10 H30 0.931 . S
C11 C7 1.460 . S
C11 C10 1.477 . S
C11 H31 0.930 . S
C12 N8 1.362 . S
C12 C9 1.431 . S
C12 C22 1.476 1_565 S
H13 C7 0.929 . S
C14 O5 1.250 . S
C14 O6 1.258 . S
O15 Mn0 2.162 . S
O15 C3 1.281 . S
O16 Mn0 2.297 . S
O16 C3 1.236 . S
N17 Mn1 2.282 . S
N17 C18 1.328 . S
N17 C22 1.318 . S
C18 N17 1.328 . S
C18 C19 1.457 . S
C18 H23 0.929 . S
C19 C18 1.457 . S
C19 C20 1.291 . S
C19 H32 0.931 . S
C20 C19 1.291 . S
C20 C21 1.373 . S
C20 H33 0.929 . S
C21 C20 1.373 . S
C21 C22 1.396 . S
C21 C28 1.403 1_545 S
C22 C12 1.476 1_545 S
C22 N17 1.318 . S
C22 C21 1.396 . S
H23 C18 0.929 . S
O24 Mn0 2.385 . S
O24 C2 1.234 . S
O25 Mn0 2.209 . S
O25 Mn1 2.215 . S
O25 C2 1.283 . S
O26 Mn0 2.094 . S
O26 C4 1.240 . S
O27 Mn1 2.117 . S
O27 C4 1.264 . S
C28 C21 1.403 1_565 S
C28 C29 1.399 . S
C28 H34 0.929 . S
C29 C9 1.449 . S
C29 C28 1.399 . S
C29 H35 0.930 . S
H30 C10 0.931 . S
H31 C11 0.930 . S
H32 C19 0.931 . S
H33 C20 0.929 . S
H34 C28 0.929 . S
H35 C29 0.930 . S
Mn36 O41 2.095 . S
Mn36 O51 2.162 . S
Mn36 O52 2.297 . S
Mn36 O60 2.385 . S
Mn36 O61 2.209 . S
Mn36 O62 2.094 . S
Mn37 O42 2.121 . S
Mn37 N44 2.257 1_556 S
Mn37 N53 2.282 . S
Mn37 O61 2.215 . S
Mn37 O63 2.117 . S
C38 O60 1.234 . S
C38 O61 1.283 . S
C39 O51 1.281 . S
C39 O52 1.236 . S
C40 O62 1.240 . S
C40 O63 1.264 . S
O41 Mn36 2.095 . S
O41 C50 1.250 . S
O42 Mn37 2.121 . S
O42 C50 1.258 . S
C43 N44 1.326 . S
C43 C47 1.460 . S
C43 H49 0.929 . S
N44 Mn37 2.257 1_554 S
N44 C43 1.326 . S
N44 C48 1.362 . S
C45 C46 1.258 . S
C45 C48 1.431 . S
C45 C65 1.449 . S
C46 C45 1.258 . S
C46 C47 1.477 . S
C46 H66 0.931 . S
C47 C43 1.460 . S
C47 C46 1.477 . S
C47 H67 0.930 . S
C48 N44 1.362 . S
C48 C45 1.431 . S
C48 C58 1.476 1_554 S
H49 C43 0.929 . S
C50 O41 1.250 . S
C50 O42 1.258 . S
O51 Mn36 2.162 . S
O51 C39 1.281 . S
O52 Mn36 2.297 . S
O52 C39 1.236 . S
N53 Mn37 2.282 . S
N53 C54 1.328 . S
N53 C58 1.318 . S
C54 N53 1.328 . S
C54 C55 1.457 . S
C54 H59 0.929 . S
C55 C54 1.457 . S
C55 C56 1.291 . S
C55 H68 0.931 . S
C56 C55 1.291 . S
C56 C57 1.373 . S
C56 H69 0.929 . S
C57 C56 1.373 . S
C57 C58 1.396 . S
C57 C64 1.403 1_556 S
C58 C48 1.476 1_556 S
C58 N53 1.318 . S
C58 C57 1.396 . S
H59 C54 0.929 . S
O60 Mn36 2.385 . S
O60 C38 1.234 . S
O61 Mn36 2.209 . S
O61 Mn37 2.215 . S
O61 C38 1.283 . S
O62 Mn36 2.094 . S
O62 C40 1.240 . S
O63 Mn37 2.117 . S
O63 C40 1.264 . S
C64 C57 1.403 1_554 S
C64 C65 1.399 . S
C64 H70 0.929 . S
C65 C45 1.449 . S
C65 C64 1.399 . S
C65 H71 0.930 . S
H66 C46 0.931 . S
H67 C47 0.930 . S
H68 C55 0.931 . S
H69 C56 0.929 . S
H70 C64 0.929 . S
H71 C65 0.930 . S
Mn72 O77 2.095 . S
Mn72 O87 2.162 . S
Mn72 O88 2.297 . S
Mn72 O96 2.385 . S
Mn72 O97 2.209 . S
Mn72 O98 2.094 . S
Mn73 O78 2.121 . S
Mn73 N80 2.257 1_545 S
Mn73 N89 2.282 . S
Mn73 O97 2.215 . S
Mn73 O99 2.117 . S
C74 O96 1.234 . S
C74 O97 1.283 . S
C75 O87 1.281 . S
C75 O88 1.236 . S
C76 O98 1.240 . S
C76 O99 1.264 . S
O77 Mn72 2.095 . S
O77 C86 1.250 . S
O78 Mn73 2.121 . S
O78 C86 1.258 . S
C79 N80 1.326 . S
C79 C83 1.460 . S
C79 H85 0.929 . S
N80 Mn73 2.257 1_565 S
N80 C79 1.326 . S
N80 C84 1.362 . S
C81 C82 1.258 . S
C81 C84 1.431 . S
C81 C101 1.449 1_554 S
C82 C81 1.258 . S
C82 C83 1.477 . S
C82 H102 0.931 . S
C83 C79 1.460 . S
C83 C82 1.477 . S
C83 H103 0.930 . S
C84 N80 1.362 . S
C84 C81 1.431 . S
C84 C94 1.476 1_565 S
H85 C79 0.929 . S
C86 O77 1.250 . S
C86 O78 1.258 . S
O87 Mn72 2.162 . S
O87 C75 1.281 . S
O88 Mn72 2.297 . S
O88 C75 1.236 . S
N89 Mn73 2.282 . S
N89 C90 1.328 1_554 S
N89 C94 1.318 . S
C90 N89 1.328 1_556 S
C90 C91 1.457 . S
C90 H95 0.929 . S
C91 C90 1.457 . S
C91 C92 1.291 . S
C91 H104 0.931 . S
C92 C91 1.291 . S
C92 C93 1.373 . S
C92 H105 0.929 . S
C93 C92 1.373 . S
C93 C94 1.396 1_556 S
C93 C100 1.403 1_545 S
C94 C84 1.476 1_545 S
C94 N89 1.318 . S
C94 C93 1.396 1_554 S
H95 C90 0.929 . S
O96 Mn72 2.385 . S
O96 C74 1.234 . S
O97 Mn72 2.209 . S
O97 Mn73 2.215 . S
O97 C74 1.283 . S
O98 Mn72 2.094 . S
O98 C76 1.240 . S
O99 Mn73 2.117 . S
O99 C76 1.264 . S
C100 C93 1.403 1_565 S
C100 C101 1.399 . S
C100 H106 0.929 . S
C101 C81 1.449 1_556 S
C101 C100 1.399 . S
C101 H107 0.930 . S
H102 C82 0.931 . S
H103 C83 0.930 . S
H104 C91 0.931 . S
H105 C92 0.929 . S
H106 C100 0.929 . S
H107 C101 0.930 . S
Mn108 O113 2.095 . S
Mn108 O123 2.162 . S
Mn108 O124 2.297 . S
Mn108 O132 2.385 . S
Mn108 O133 2.209 . S
Mn108 O134 2.094 . S
Mn109 O114 2.121 . S
Mn109 N116 2.257 . S
Mn109 N125 2.282 . S
Mn109 O133 2.215 . S
Mn109 O135 2.117 . S
C110 O132 1.234 . S
C110 O133 1.283 . S
C111 O123 1.281 . S
C111 O124 1.236 . S
C112 O134 1.240 . S
C112 O135 1.264 . S
O113 Mn108 2.095 . S
O113 C122 1.250 . S
O114 Mn109 2.121 . S
O114 C122 1.258 . S
C115 N116 1.326 . S
C115 C119 1.460 . S
C115 H121 0.929 . S
N116 Mn109 2.257 . S
N116 C115 1.326 . S
N116 C120 1.362 . S
C117 C118 1.258 . S
C117 C120 1.431 . S
C117 C137 1.449 1_565 S
C118 C117 1.258 . S
C118 C119 1.477 . S
C118 H138 0.931 . S
C119 C115 1.460 . S
C119 C118 1.477 . S
C119 H139 0.930 . S
C120 N116 1.362 . S
C120 C117 1.431 . S
C120 C130 1.476 . S
H121 C115 0.929 . S
C122 O113 1.250 . S
C122 O114 1.258 . S
O123 Mn108 2.162 . S
O123 C111 1.281 . S
O124 Mn108 2.297 . S
O124 C111 1.236 . S
N125 Mn109 2.282 . S
N125 C126 1.328 1_565 S
N125 C130 1.318 . S
C126 N125 1.328 1_545 S
C126 C127 1.457 . S
C126 H131 0.929 . S
C127 C126 1.457 . S
C127 C128 1.291 . S
C127 H140 0.931 . S
C128 C127 1.291 . S
C128 C129 1.373 . S
C128 H141 0.929 . S
C129 C128 1.373 . S
C129 C130 1.396 1_545 S
C129 C136 1.403 . S
C130 C120 1.476 . S
C130 N125 1.318 . S
C130 C129 1.396 1_565 S
H131 C126 0.929 . S
O132 Mn108 2.385 . S
O132 C110 1.234 . S
O133 Mn108 2.209 . S
O133 Mn109 2.215 . S
O133 C110 1.283 . S
O134 Mn108 2.094 . S
O134 C112 1.240 . S
O135 Mn109 2.117 . S
O135 C112 1.264 . S
C136 C129 1.403 . S
C136 C137 1.399 . S
C136 H142 0.929 . S
C137 C117 1.449 1_545 S
C137 C136 1.399 . S
C137 H143 0.930 . S
H138 C118 0.931 . S
H139 C119 0.930 . S
H140 C127 0.931 . S
H141 C128 0.929 . S
H142 C136 0.929 . S
H143 C137 0.930 . S
Mn144 O149 2.095 . S
Mn144 O159 2.162 . S
Mn144 O160 2.297 . S
Mn144 O168 2.385 . S
Mn144 O169 2.209 . S
Mn144 O170 2.094 . S
Mn145 O150 2.121 . S
Mn145 N152 2.257 . S
Mn145 N161 2.282 . S
Mn145 O169 2.215 . S
Mn145 O171 2.117 . S
C146 O168 1.234 . S
C146 O169 1.283 . S
C147 O159 1.281 . S
C147 O160 1.236 . S
C148 O170 1.240 . S
C148 O171 1.264 . S
O149 Mn144 2.095 . S
O149 C158 1.250 . S
O150 Mn145 2.121 . S
O150 C158 1.258 . S
C151 N152 1.326 . S
C151 C155 1.460 . S
C151 H157 0.929 . S
N152 Mn145 2.257 . S
N152 C151 1.326 . S
N152 C156 1.362 . S
C153 C154 1.258 . S
C153 C156 1.431 . S
C153 C173 1.449 1_554 S
C154 C153 1.258 . S
C154 C155 1.477 . S
C154 H174 0.931 . S
C155 C151 1.460 . S
C155 C154 1.477 . S
C155 H175 0.930 . S
C156 N152 1.362 . S
C156 C153 1.431 . S
C156 C166 1.476 . S
H157 C151 0.929 . S
C158 O149 1.250 . S
C158 O150 1.258 . S
O159 Mn144 2.162 . S
O159 C147 1.281 . S
O160 Mn144 2.297 . S
O160 C147 1.236 . S
N161 Mn145 2.282 . S
N161 C162 1.328 1_554 S
N161 C166 1.318 . S
C162 N161 1.328 1_556 S
C162 C163 1.457 . S
C162 H167 0.929 . S
C163 C162 1.457 . S
C163 C164 1.291 . S
C163 H176 0.931 . S
C164 C163 1.291 . S
C164 C165 1.373 . S
C164 H177 0.929 . S
C165 C164 1.373 . S
C165 C166 1.396 1_556 S
C165 C172 1.403 . S
C166 C156 1.476 . S
C166 N161 1.318 . S
C166 C165 1.396 1_554 S
H167 C162 0.929 . S
O168 Mn144 2.385 . S
O168 C146 1.234 . S
O169 Mn144 2.209 . S
O169 Mn145 2.215 . S
O169 C146 1.283 . S
O170 Mn144 2.094 . S
O170 C148 1.240 . S
O171 Mn145 2.117 . S
O171 C148 1.264 . S
C172 C165 1.403 . S
C172 C173 1.399 . S
C172 H178 0.929 . S
C173 C153 1.449 1_556 S
C173 C172 1.399 . S
C173 H179 0.930 . S
H174 C154 0.931 . S
H175 C155 0.930 . S
H176 C163 0.931 . S
H177 C164 0.929 . S
H178 C172 0.929 . S
H179 C173 0.930 . S
Mn180 O185 2.095 . S
Mn180 O195 2.162 . S
Mn180 O196 2.297 . S
Mn180 O204 2.385 . S
Mn180 O205 2.209 . S
Mn180 O206 2.094 . S
Mn181 O186 2.121 . S
Mn181 N188 2.257 . S
Mn181 N197 2.282 . S
Mn181 O205 2.215 . S
Mn181 O207 2.117 . S
C182 O204 1.234 . S
C182 O205 1.283 . S
C183 O195 1.281 . S
C183 O196 1.236 . S
C184 O206 1.240 . S
C184 O207 1.264 . S
O185 Mn180 2.095 . S
O185 C194 1.250 . S
O186 Mn181 2.121 . S
O186 C194 1.258 . S
C187 N188 1.326 . S
C187 C191 1.460 . S
C187 H193 0.929 . S
N188 Mn181 2.257 . S
N188 C187 1.326 . S
N188 C192 1.362 . S
C189 C190 1.258 . S
C189 C192 1.431 . S
C189 C209 1.449 . S
C190 C189 1.258 . S
C190 C191 1.477 . S
C190 H210 0.931 . S
C191 C187 1.460 . S
C191 C190 1.477 . S
C191 H211 0.930 . S
C192 N188 1.362 . S
C192 C189 1.431 . S
C192 C202 1.476 . S
H193 C187 0.929 . S
C194 O185 1.250 . S
C194 O186 1.258 . S
O195 Mn180 2.162 . S
O195 C183 1.281 . S
O196 Mn180 2.297 . S
O196 C183 1.236 . S
N197 Mn181 2.282 . S
N197 C198 1.328 . S
N197 C202 1.318 . S
C198 N197 1.328 . S
C198 C199 1.457 . S
C198 H203 0.929 . S
C199 C198 1.457 . S
C199 C200 1.291 . S
C199 H212 0.931 . S
C200 C199 1.291 . S
C200 C201 1.373 . S
C200 H213 0.929 . S
C201 C200 1.373 . S
C201 C202 1.396 . S
C201 C208 1.403 . S
C202 C192 1.476 . S
C202 N197 1.318 . S
C202 C201 1.396 . S
H203 C198 0.929 . S
O204 Mn180 2.385 . S
O204 C182 1.234 . S
O205 Mn180 2.209 . S
O205 Mn181 2.215 . S
O205 C182 1.283 . S
O206 Mn180 2.094 . S
O206 C184 1.240 . S
O207 Mn181 2.117 . S
O207 C184 1.264 . S
C208 C201 1.403 . S
C208 C209 1.399 . S
C208 H214 0.929 . S
C209 C189 1.449 . S
C209 C208 1.399 . S
C209 H215 0.930 . S
H210 C190 0.931 . S
H211 C191 0.930 . S
H212 C199 0.931 . S
H213 C200 0.929 . S
H214 C208 0.929 . S
H215 C209 0.930 . S
Mn216 O221 2.095 . S
Mn216 O231 2.162 . S
Mn216 O232 2.297 . S
Mn216 O240 2.385 . S
Mn216 O241 2.209 . S
Mn216 O242 2.094 . S
Mn217 O222 2.121 . S
Mn217 N224 2.257 1_556 S
Mn217 N233 2.282 . S
Mn217 O241 2.215 . S
Mn217 O243 2.117 . S
C218 O240 1.234 . S
C218 O241 1.283 . S
C219 O231 1.281 . S
C219 O232 1.236 . S
C220 O242 1.240 . S
C220 O243 1.264 . S
O221 Mn216 2.095 . S
O221 C230 1.250 . S
O222 Mn217 2.121 . S
O222 C230 1.258 . S
C223 N224 1.326 . S
C223 C227 1.460 . S
C223 H229 0.929 . S
N224 Mn217 2.257 1_554 S
N224 C223 1.326 . S
N224 C228 1.362 . S
C225 C226 1.258 . S
C225 C228 1.431 . S
C225 C245 1.449 1_565 S
C226 C225 1.258 . S
C226 C227 1.477 . S
C226 H246 0.931 . S
C227 C223 1.460 . S
C227 C226 1.477 . S
C227 H247 0.930 . S
C228 N224 1.362 . S
C228 C225 1.431 . S
C228 C238 1.476 1_554 S
H229 C223 0.929 . S
C230 O221 1.250 . S
C230 O222 1.258 . S
O231 Mn216 2.162 . S
O231 C219 1.281 . S
O232 Mn216 2.297 . S
O232 C219 1.236 . S
N233 Mn217 2.282 . S
N233 C234 1.328 1_565 S
N233 C238 1.318 . S
C234 N233 1.328 1_545 S
C234 C235 1.457 . S
C234 H239 0.929 . S
C235 C234 1.457 . S
C235 C236 1.291 . S
C235 H248 0.931 . S
C236 C235 1.291 . S
C236 C237 1.373 . S
C236 H249 0.929 . S
C237 C236 1.373 . S
C237 C238 1.396 1_545 S
C237 C244 1.403 1_556 S
C238 C228 1.476 1_556 S
C238 N233 1.318 . S
C238 C237 1.396 1_565 S
H239 C234 0.929 . S
O240 Mn216 2.385 . S
O240 C218 1.234 . S
O241 Mn216 2.209 . S
O241 Mn217 2.215 . S
O241 C218 1.283 . S
O242 Mn216 2.094 . S
O242 C220 1.240 . S
O243 Mn217 2.117 . S
O243 C220 1.264 . S
C244 C237 1.403 1_554 S
C244 C245 1.399 . S
C244 H250 0.929 . S
C245 C225 1.449 1_545 S
C245 C244 1.399 . S
C245 H251 0.930 . S
H246 C226 0.931 . S
H247 C227 0.930 . S
H248 C235 0.931 . S
H249 C236 0.929 . S
H250 C244 0.929 . S
H251 C245 0.930 . S
Mn252 O257 2.095 . S
Mn252 O267 2.162 . S
Mn252 O268 2.297 . S
Mn252 O276 2.385 . S
Mn252 O277 2.209 . S
Mn252 O278 2.094 . S
Mn253 O258 2.121 . S
Mn253 N260 2.257 . S
Mn253 N269 2.282 . S
Mn253 O277 2.215 . S
Mn253 O279 2.117 . S
C254 O276 1.234 . S
C254 O277 1.283 . S
C255 O267 1.281 . S
C255 O268 1.236 . S
C256 O278 1.240 . S
C256 O279 1.264 . S
O257 Mn252 2.095 . S
O257 C266 1.250 . S
O258 Mn253 2.121 . S
O258 C266 1.258 . S
C259 N260 1.326 . S
C259 C263 1.460 . S
C259 H265 0.929 . S
N260 Mn253 2.257 . S
N260 C259 1.326 . S
N260 C264 1.362 . S
C261 C262 1.258 . S
C261 C264 1.431 . S
C261 C281 1.449 . S
C262 C261 1.258 . S
C262 C263 1.477 . S
C262 H282 0.931 . S
C263 C259 1.460 . S
C263 C262 1.477 . S
C263 H283 0.930 . S
C264 N260 1.362 . S
C264 C261 1.431 . S
C264 C274 1.476 . S
H265 C259 0.929 . S
C266 O257 1.250 . S
C266 O258 1.258 . S
O267 Mn252 2.162 . S
O267 C255 1.281 . S
O268 Mn252 2.297 . S
O268 C255 1.236 . S
N269 Mn253 2.282 . S
N269 C270 1.328 . S
N269 C274 1.318 . S
C270 N269 1.328 . S
C270 C271 1.457 . S
C270 H275 0.929 . S
C271 C270 1.457 . S
C271 C272 1.291 . S
C271 H284 0.931 . S
C272 C271 1.291 . S
C272 C273 1.373 . S
C272 H285 0.929 . S
C273 C272 1.373 . S
C273 C274 1.396 . S
C273 C280 1.403 . S
C274 C264 1.476 . S
C274 N269 1.318 . S
C274 C273 1.396 . S
H275 C270 0.929 . S
O276 Mn252 2.385 . S
O276 C254 1.234 . S
O277 Mn252 2.209 . S
O277 Mn253 2.215 . S
O277 C254 1.283 . S
O278 Mn252 2.094 . S
O278 C256 1.240 . S
O279 Mn253 2.117 . S
O279 C256 1.264 . S
C280 C273 1.403 . S
C280 C281 1.399 . S
C280 H286 0.929 . S
C281 C261 1.449 . S
C281 C280 1.399 . S
C281 H287 0.930 . S
H282 C262 0.931 . S
H283 C263 0.930 . S
H284 C271 0.931 . S
H285 C272 0.929 . S
H286 C280 0.929 . S
H287 C281 0.930 . S
H288 C294 0.930 . S
H289 C298 0.930 . S
H290 C303 0.929 . S
H291 C301 0.929 . S
H292 C296 0.929 . S
H293 C302 0.929 . S
C294 H288 0.930 . S
C294 C295 1.367 . S
C294 C302 1.378 . S
C295 C294 1.367 . S
C295 C303 1.433 . S
C296 H292 0.929 . S
C296 C298 1.378 . S
C296 C300 1.350 . S
C297 C300 1.463 . S
C297 C302 1.350 . S
C297 N305 1.427 . S
C298 H289 0.930 . S
C298 C296 1.378 . S
C298 C299 1.367 . S
C299 C298 1.367 . S
C299 C301 1.433 . S
C300 C296 1.350 . S
C300 C297 1.463 . S
C300 N304 1.427 . S
C301 H291 0.929 . S
C301 C299 1.433 . S
C301 N304 1.384 . S
C302 H293 0.929 . S
C302 C294 1.378 . S
C302 C297 1.350 . S
C303 H290 0.929 . S
C303 C295 1.433 . S
C303 N305 1.384 . S
N304 C300 1.427 . S
N304 C301 1.384 . S
N305 C297 1.427 . S
N305 C303 1.384 . S
H306 C312 0.930 . S
H307 C316 0.930 . S
H308 C321 0.929 . S
H309 C319 0.929 . S
H310 C314 0.929 . S
H311 C320 0.929 . S
C312 H306 0.930 . S
C312 C313 1.367 . S
C312 C320 1.378 . S
C313 C312 1.367 . S
C313 C321 1.433 . S
C314 H310 0.929 . S
C314 C316 1.378 . S
C314 C318 1.350 . S
C315 C318 1.463 . S
C315 C320 1.350 . S
C315 N323 1.427 . S
C316 H307 0.930 . S
C316 C314 1.378 . S
C316 C317 1.367 . S
C317 C316 1.367 . S
C317 C319 1.433 . S
C318 C314 1.350 . S
C318 C315 1.463 . S
C318 N322 1.427 . S
C319 H309 0.929 . S
C319 C317 1.433 . S
C319 N322 1.384 . S
C320 H311 0.929 . S
C320 C312 1.378 . S
C320 C315 1.350 . S
C321 H308 0.929 . S
C321 C313 1.433 . S
C321 N323 1.384 . S
N322 C318 1.427 . S
N322 C319 1.384 . S
N323 C315 1.427 . S
N323 C321 1.384 . S
H324 C330 0.930 . S
H325 C334 0.931 . S
H326 C339 0.929 . S
H327 C337 0.929 . S
H328 C332 0.929 . S
H329 C338 0.929 1_565 S
C330 H324 0.930 . S
C330 C331 1.367 . S
C330 C338 1.378 . S
C331 C330 1.367 . S
C331 C339 1.433 . S
C332 H328 0.929 . S
C332 C334 1.378 1_545 S
C332 C336 1.350 1_545 S
C333 C336 1.463 1_544 S
C333 C338 1.350 . S
C333 N341 1.427 1_554 S
C334 H325 0.931 . S
C334 C332 1.378 1_565 S
C334 C335 1.367 . S
C335 C334 1.367 . S
C335 C337 1.433 . S
C336 C332 1.350 1_565 S
C336 C333 1.463 1_566 S
C336 N340 1.427 . S
C337 H327 0.929 . S
C337 C335 1.433 . S
C337 N340 1.384 . S
C338 H329 0.929 1_545 S
C338 C330 1.378 . S
C338 C333 1.350 . S
C339 H326 0.929 . S
C339 C331 1.433 . S
C339 N341 1.384 1_554 S
N340 C336 1.427 . S
N340 C337 1.384 . S
N341 C333 1.427 1_556 S
N341 C339 1.384 1_556 S
H342 C348 0.930 . S
H343 C352 0.930 . S
H344 C357 0.929 . S
H345 C355 0.929 . S
H346 C350 0.929 . S
H347 C356 0.929 . S
C348 H342 0.930 . S
C348 C349 1.367 . S
C348 C356 1.378 . S
C349 C348 1.367 . S
C349 C357 1.433 . S
C350 H346 0.929 . S
C350 C352 1.378 . S
C350 C354 1.350 . S
C351 C354 1.463 1_655 S
C351 C356 1.350 . S
C351 N359 1.427 . S
C352 H343 0.930 . S
C352 C350 1.378 . S
C352 C353 1.367 . S
C353 C352 1.367 . S
C353 C355 1.433 . S
C354 C350 1.350 . S
C354 C351 1.463 1_455 S
C354 N358 1.427 . S
C355 H345 0.929 . S
C355 C353 1.433 . S
C355 N358 1.384 . S
C356 H347 0.929 . S
C356 C348 1.378 . S
C356 C351 1.350 . S
C357 H344 0.929 . S
C357 C349 1.433 . S
C357 N359 1.384 . S
N358 C354 1.427 . S
N358 C355 1.384 . S
N359 C351 1.427 . S
N359 C357 1.384 . S
H360 C366 0.930 . S
H361 C370 0.930 . S
H362 C375 0.927 1_545 S
H363 C373 0.929 . S
H364 C368 0.929 . S
H365 C374 0.929 . S
C366 H360 0.930 . S
C366 C367 1.367 . S
C366 C374 1.378 . S
C367 C366 1.367 . S
C367 C375 1.433 . S
C368 H364 0.929 . S
C368 C370 1.378 . S
C368 C372 1.350 . S
C369 C372 1.463 1_565 S
C369 C374 1.350 . S
C369 N377 1.427 1_565 S
C370 H361 0.930 . S
C370 C368 1.378 . S
C370 C371 1.367 . S
C371 C370 1.367 . S
C371 C373 1.433 . S
C372 C368 1.350 . S
C372 C369 1.463 1_545 S
C372 N376 1.427 . S
C373 H363 0.929 . S
C373 C371 1.433 . S
C373 N376 1.384 . S
C374 H365 0.929 . S
C374 C366 1.378 . S
C374 C369 1.350 . S
C375 H362 0.927 1_565 S
C375 C367 1.433 . S
C375 N377 1.384 1_565 S
N376 C372 1.427 . S
N376 C373 1.384 . S
N377 C369 1.427 1_545 S
N377 C375 1.384 1_545 S
H378 C384 0.930 . S
H379 C388 0.930 . S
H380 C393 0.929 . S
H381 C391 0.929 . S
H382 C386 0.929 . S
H383 C392 0.929 1_554 S
C384 H378 0.930 . S
C384 C385 1.367 . S
C384 C392 1.378 . S
C385 C384 1.367 . S
C385 C393 1.433 . S
C386 H382 0.929 . S
C386 C388 1.378 1_556 S
C386 C390 1.350 1_556 S
C387 C390 1.463 1_656 S
C387 C392 1.350 . S
C387 N395 1.441 . S
C388 H379 0.930 . S
C388 C386 1.378 1_554 S
C388 C389 1.367 . S
C389 C388 1.367 . S
C389 C391 1.433 . S
C390 C386 1.350 1_554 S
C390 C387 1.463 1_454 S
C390 N394 1.441 . S
C391 H381 0.929 . S
C391 C389 1.433 . S
C391 N394 1.404 . S
C392 H383 0.929 1_556 S
C392 C384 1.378 . S
C392 C387 1.350 . S
C393 H380 0.929 . S
C393 C385 1.433 . S
C393 N395 1.404 . S
N394 C390 1.441 . S
N394 C391 1.404 . S
N395 C387 1.441 . S
N395 C393 1.404 . S
H396 C402 0.930 . S
H397 C406 0.930 . S
H398 C411 0.929 . S
H399 C409 0.929 . S
H400 C404 0.929 . S
H401 C410 0.929 . S
C402 H396 0.930 . S
C402 C403 1.367 . S
C402 C410 1.378 . S
C403 C402 1.367 . S
C403 C411 1.433 . S
C404 H400 0.929 . S
C404 C406 1.378 . S
C404 C408 1.350 . S
C405 C408 1.463 . S
C405 C410 1.350 . S
C405 N413 1.427 . S
C406 H397 0.930 . S
C406 C404 1.378 . S
C406 C407 1.367 . S
C407 C406 1.367 . S
C407 C409 1.433 . S
C408 C404 1.350 . S
C408 C405 1.463 . S
C408 N412 1.427 . S
C409 H399 0.929 . S
C409 C407 1.433 . S
C409 N412 1.384 . S
C410 H401 0.929 . S
C410 C402 1.378 . S
C410 C405 1.350 . S
C411 H398 0.929 . S
C411 C403 1.433 . S
C411 N413 1.384 . S
N412 C408 1.427 . S
N412 C409 1.384 . S
N413 C405 1.427 . S
N413 C411 1.384 . S
H414 C420 0.930 . S
H415 C424 0.930 . S
H416 C429 0.929 . S
H417 C427 0.929 . S
H418 C422 0.929 . S
H419 C428 0.929 . S
C420 H414 0.930 . S
C420 C421 1.367 . S
C420 C428 1.378 . S
C421 C420 1.367 . S
C421 C429 1.433 . S
C422 H418 0.929 . S
C422 C424 1.378 . S
C422 C426 1.350 . S
C423 C426 1.463 . S
C423 C428 1.350 . S
C423 N431 1.427 . S
C424 H415 0.930 . S
C424 C422 1.378 . S
C424 C425 1.367 . S
C425 C424 1.367 . S
C425 C427 1.433 . S
C426 C422 1.350 . S
C426 C423 1.463 . S
C426 N430 1.427 . S
C427 H417 0.929 . S
C427 C425 1.433 . S
C427 N430 1.384 . S
C428 H419 0.929 . S
C428 C420 1.378 . S
C428 C423 1.350 . S
C429 H416 0.929 . S
C429 C421 1.433 . S
C429 N431 1.384 . S
N430 C426 1.427 . S
N430 C427 1.384 . S
N431 C423 1.427 . S
N431 C429 1.384 . S
H432 C438 0.930 . S
H433 C442 0.930 . S
H434 C447 0.929 . S
H435 C445 0.929 . S
H436 C440 0.929 . S
H437 C446 0.929 . S
C438 H432 0.930 . S
C438 C439 1.367 . S
C438 C446 1.378 . S
C439 C438 1.367 . S
C439 C447 1.433 . S
C440 H436 0.929 . S
C440 C442 1.378 . S
C440 C444 1.350 . S
C441 C444 1.463 . S
C441 C446 1.350 . S
C441 N449 1.427 . S
C442 H433 0.930 . S
C442 C440 1.378 . S
C442 C443 1.367 . S
C443 C442 1.367 . S
C443 C445 1.433 . S
C444 C440 1.350 . S
C444 C441 1.463 . S
C444 N448 1.427 . S
C445 H435 0.929 . S
C445 C443 1.433 . S
C445 N448 1.384 . S
C446 H437 0.929 . S
C446 C438 1.378 . S
C446 C441 1.350 . S
C447 H434 0.929 . S
C447 C439 1.433 . S
C447 N449 1.384 . S
N448 C444 1.427 . S
N448 C445 1.384 . S
N449 C441 1.427 . S
N449 C447 1.384 . S
H450 C456 0.930 . S
H451 C460 0.930 . S
H452 C465 0.929 . S
H453 C463 0.929 . S
H454 C458 0.933 . S
H455 C464 0.929 . S
C456 H450 0.930 . S
C456 C457 1.367 . S
C456 C464 1.378 . S
C457 C456 1.367 . S
C457 C465 1.433 . S
C458 H454 0.933 . S
C458 C460 1.373 1_556 S
C458 C462 1.350 1_556 S
C459 C462 1.453 1_556 S
C459 C464 1.350 . S
C459 N467 1.427 . S
C460 H451 0.930 . S
C460 C458 1.373 1_554 S
C460 C461 1.367 . S
C461 C460 1.367 . S
C461 C463 1.433 . S
C462 C458 1.350 1_554 S
C462 C459 1.453 1_554 S
C462 N466 1.437 . S
C463 H453 0.929 . S
C463 C461 1.433 . S
C463 N466 1.384 . S
C464 H455 0.929 . S
C464 C456 1.378 . S
C464 C459 1.350 . S
C465 H452 0.929 . S
C465 C457 1.433 . S
C465 N467 1.384 . S
N466 C462 1.437 . S
N466 C463 1.384 . S
N467 C459 1.427 . S
N467 C465 1.384 . S
H468 C474 0.930 . S
H469 C478 0.930 . S
H470 C483 0.929 1_545 S
H471 C481 0.929 . S
H472 C476 0.929 . S
H473 C482 0.929 . S
C474 H468 0.930 . S
C474 C475 1.367 . S
C474 C482 1.378 . S
C475 C474 1.367 . S
C475 C483 1.433 . S
C476 H472 0.929 . S
C476 C478 1.378 . S
C476 C480 1.350 . S
C477 C480 1.463 1_565 S
C477 C482 1.350 . S
C477 N485 1.427 1_565 S
C478 H469 0.930 . S
C478 C476 1.378 . S
C478 C479 1.367 . S
C479 C478 1.367 . S
C479 C481 1.433 . S
C480 C476 1.350 . S
C480 C477 1.463 1_545 S
C480 N484 1.427 . S
C481 H471 0.929 . S
C481 C479 1.433 . S
C481 N484 1.384 . S
C482 H473 0.929 . S
C482 C474 1.378 . S
C482 C477 1.350 . S
C483 H470 0.929 1_565 S
C483 C475 1.433 . S
C483 N485 1.384 1_565 S
N484 C480 1.427 . S
N484 C481 1.384 . S
N485 C477 1.427 1_545 S
N485 C483 1.384 1_545 S
H486 C492 0.930 . S
H487 C496 0.930 . S
H488 C501 0.929 . S
H489 C499 0.929 . S
H490 C494 0.929 1_565 S
H491 C500 0.929 . S
C492 H486 0.930 . S
C492 C493 1.367 . S
C492 C500 1.378 1_565 S
C493 C492 1.367 . S
C493 C501 1.433 . S
C494 H490 0.929 1_545 S
C494 C496 1.378 . S
C494 C498 1.350 . S
C495 C498 1.463 1_665 S
C495 C500 1.350 1_565 S
C495 N503 1.427 . S
C496 H487 0.930 . S
C496 C494 1.378 . S
C496 C497 1.367 . S
C497 C496 1.367 . S
C497 C499 1.433 . S
C498 C494 1.350 . S
C498 C495 1.463 1_445 S
C498 N502 1.427 . S
C499 H489 0.929 . S
C499 C497 1.433 . S
C499 N502 1.384 . S
C500 H491 0.929 . S
C500 C492 1.378 1_545 S
C500 C495 1.350 1_545 S
C501 H488 0.929 . S
C501 C493 1.433 . S
C501 N503 1.384 . S
N502 C498 1.427 . S
N502 C499 1.384 . S
N503 C495 1.427 . S
N503 C501 1.384 . S
H504 C510 0.930 . S
H505 C514 0.930 . S
H506 C519 0.929 . S
H507 C517 0.929 . S
H508 C512 0.929 1_655 S
H509 C518 0.929 1_455 S
C510 H504 0.930 . S
C510 C511 1.367 . S
C510 C518 1.378 . S
C511 C510 1.367 . S
C511 C519 1.433 . S
C512 H508 0.929 1_455 S
C512 C514 1.378 . S
C512 C516 1.350 . S
C513 C516 1.463 1_655 S
C513 C518 1.350 . S
C513 N521 1.427 . S
C514 H505 0.930 . S
C514 C512 1.378 . S
C514 C515 1.367 . S
C515 C514 1.367 . S
C515 C517 1.433 . S
C516 C512 1.350 . S
C516 C513 1.463 1_455 S
C516 N520 1.427 . S
C517 H507 0.929 . S
C517 C515 1.433 . S
C517 N520 1.384 . S
C518 H509 0.929 1_655 S
C518 C510 1.378 . S
C518 C513 1.350 . S
C519 H506 0.929 . S
C519 C511 1.433 . S
C519 N521 1.384 . S
N520 C516 1.427 . S
N520 C517 1.384 . S
N521 C513 1.427 . S
N521 C519 1.384 . S
H522 C528 0.930 . S
H523 C532 0.930 . S
H524 C537 0.929 . S
H525 C535 0.929 . S
H526 C530 0.929 . S
H527 C536 0.929 . S
C528 H522 0.930 . S
C528 C529 1.367 . S
C528 C536 1.378 . S
C529 C528 1.367 . S
C529 C537 1.433 . S
C530 H526 0.929 . S
C530 C532 1.378 . S
C530 C534 1.350 . S
C531 C534 1.463 . S
C531 C536 1.350 . S
C531 N539 1.427 . S
C532 H523 0.930 . S
C532 C530 1.378 . S
C532 C533 1.367 . S
C533 C532 1.367 . S
C533 C535 1.433 . S
C534 C530 1.350 . S
C534 C531 1.463 . S
C534 N538 1.427 . S
C535 H525 0.929 . S
C535 C533 1.433 . S
C535 N538 1.384 . S
C536 H527 0.929 . S
C536 C528 1.378 . S
C536 C531 1.350 . S
C537 H524 0.929 . S
C537 C529 1.433 . S
C537 N539 1.384 . S
N538 C534 1.427 . S
N538 C535 1.384 . S
N539 C531 1.427 . S
N539 C537 1.384 . S
H540 C546 0.930 1_556 S
H541 C550 0.930 . S
H542 C555 0.929 . S
H543 C553 0.929 . S
H544 C548 0.929 1_554 S
H545 C554 0.929 . S
C546 H540 0.930 1_554 S
C546 C547 1.367 . S
C546 C554 1.378 1_554 S
C547 C546 1.367 . S
C547 C555 1.433 . S
C548 H544 0.929 1_556 S
C548 C550 1.378 . S
C548 C552 1.350 . S
C549 C552 1.464 1_554 S
C549 C554 1.351 1_554 S
C549 N557 1.424 . S
C550 H541 0.930 . S
C550 C548 1.378 . S
C550 C551 1.367 . S
C551 C550 1.367 . S
C551 C553 1.433 . S
C552 C548 1.350 . S
C552 C549 1.464 1_556 S
C552 N556 1.427 . S
C553 H543 0.929 . S
C553 C551 1.433 . S
C553 N556 1.384 . S
C554 H545 0.929 . S
C554 C546 1.378 1_556 S
C554 C549 1.351 1_556 S
C555 H542 0.929 . S
C555 C547 1.433 . S
C555 N557 1.384 . S
N556 C552 1.427 . S
N556 C553 1.384 . S
N557 C549 1.424 . S
N557 C555 1.384 . S
H558 C564 0.930 . S
H559 C568 0.930 . S
H560 C573 0.929 . S
H561 C571 0.929 . S
H562 C566 0.929 . S
H563 C572 0.929 . S
C564 H558 0.930 . S
C564 C565 1.367 . S
C564 C572 1.378 . S
C565 C564 1.367 . S
C565 C573 1.433 . S
C566 H562 0.929 . S
C566 C568 1.378 . S
C566 C570 1.350 . S
C567 C570 1.463 . S
C567 C572 1.350 . S
C567 N575 1.427 . S
C568 H559 0.930 . S
C568 C566 1.378 . S
C568 C569 1.367 . S
C569 C568 1.367 . S
C569 C571 1.433 . S
C570 C566 1.350 . S
C570 C567 1.463 . S
C570 N574 1.427 . S
C571 H561 0.929 . S
C571 C569 1.433 . S
C571 N574 1.384 . S
C572 H563 0.929 . S
C572 C564 1.378 . S
C572 C567 1.350 . S
C573 H560 0.929 . S
C573 C565 1.433 . S
C573 N575 1.384 . S
N574 C570 1.427 . S
N574 C571 1.384 . S
N575 C567 1.427 . S
N575 C573 1.384 . S
C295 C194 1.455 . S
C299 C4 1.525 . S
C313 C266 1.457 . S
C317 C40 1.525 . S
C331 C74 1.516 . S
C335 C218 1.513 . S
C349 C111 1.527 . S
C353 C147 1.531 . S
C367 C220 1.525 . S
C371 C14 1.463 . S
C385 C38 1.515 . S
C389 C146 1.515 . S
C403 C183 1.527 . S
C407 C75 1.531 . S
C421 C122 1.455 . S
C425 C256 1.524 . S
C439 C158 1.450 . S
C443 C184 1.524 . S
C457 C50 1.447 . S
C461 C76 1.524 . S
C475 C112 1.525 . S
C479 C86 1.457 . S
C493 C110 1.513 . S
C497 C2 1.515 . S
C511 C39 1.532 . S
C515 C3 1.529 . S
C529 C255 1.530 . S
C533 C219 1.531 . S
C547 C148 1.524 . S
C551 C230 1.454 . S
C565 C182 1.514 . S
C569 C254 1.512 . S
