# Generated by pormake.
# Topology smm, (6)-cn, num edge types: 1
# Building blocks:
#     Node 0, Type 0, BuildingBlock: BETDAH_clean_sbu_0, # of connection points: 6
#     Node 1, Type 0, BuildingBlock: BETDAH_clean_sbu_0, # of connection points: 6
#     Node 2, Type 0, BuildingBlock: BETDAH_clean_sbu_0, # of connection points: 6
#     Node 3, Type 0, BuildingBlock: BETDAH_clean_sbu_0, # of connection points: 6
#     Node 4, Type 0, BuildingBlock: BETDAH_clean_sbu_0, # of connection points: 6
#     Node 5, Type 0, BuildingBlock: BETDAH_clean_sbu_0, # of connection points: 6
#     Node 6, Type 0, BuildingBlock: BETDAH_clean_sbu_0, # of connection points: 6
#     Node 7, Type 0, BuildingBlock: BETDAH_clean_sbu_0, # of connection points: 6
#     Node 8, Type 0, BuildingBlock: BETDAH_clean_sbu_0, # of connection points: 6
#     Edge 9, Type (0, 0), BuildingBlock: CIFDUS_clean_linker_0, # of connection points: 2
#     Edge 10, Type (0, 0), BuildingBlock: CIFDUS_clean_linker_0, # of connection points: 2
#     Edge 11, Type (0, 0), BuildingBlock: CIFDUS_clean_linker_0, # of connection points: 2
#     Edge 12, Type (0, 0), BuildingBlock: CIFDUS_clean_linker_0, # of connection points: 2
#     Edge 13, Type (0, 0), BuildingBlock: CIFDUS_clean_linker_0, # of connection points: 2
#     Edge 14, Type (0, 0), BuildingBlock: CIFDUS_clean_linker_0, # of connection points: 2
#     Edge 15, Type (0, 0), BuildingBlock: CIFDUS_clean_linker_0, # of connection points: 2
#     Edge 16, Type (0, 0), BuildingBlock: CIFDUS_clean_linker_0, # of connection points: 2
#     Edge 17, Type (0, 0), BuildingBlock: CIFDUS_clean_linker_0, # of connection points: 2
#     Edge 18, Type (0, 0), BuildingBlock: CIFDUS_clean_linker_0, # of connection points: 2
#     Edge 19, Type (0, 0), BuildingBlock: CIFDUS_clean_linker_0, # of connection points: 2
#     Edge 20, Type (0, 0), BuildingBlock: CIFDUS_clean_linker_0, # of connection points: 2
#     Edge 21, Type (0, 0), BuildingBlock: CIFDUS_clean_linker_0, # of connection points: 2
#     Edge 22, Type (0, 0), BuildingBlock: CIFDUS_clean_linker_0, # of connection points: 2
#     Edge 23, Type (0, 0), BuildingBlock: CIFDUS_clean_linker_0, # of connection points: 2
#     Edge 24, Type (0, 0), BuildingBlock: CIFDUS_clean_linker_0, # of connection points: 2
#     Edge 25, Type (0, 0), BuildingBlock: CIFDUS_clean_linker_0, # of connection points: 2
#     Edge 26, Type (0, 0), BuildingBlock: CIFDUS_clean_linker_0, # of connection points: 2
#     Edge 27, Type (0, 0), BuildingBlock: CIFDUS_clean_linker_0, # of connection points: 2
#     Edge 28, Type (0, 0), BuildingBlock: CIFDUS_clean_linker_0, # of connection points: 2
#     Edge 29, Type (0, 0), BuildingBlock: CIFDUS_clean_linker_0, # of connection points: 2
#     Edge 30, Type (0, 0), BuildingBlock: CIFDUS_clean_linker_0, # of connection points: 2
#     Edge 31, Type (0, 0), BuildingBlock: CIFDUS_clean_linker_0, # of connection points: 2
#     Edge 32, Type (0, 0), BuildingBlock: CIFDUS_clean_linker_0, # of connection points: 2
#     Edge 33, Type (0, 0), BuildingBlock: CIFDUS_clean_linker_0, # of connection points: 2
#     Edge 34, Type (0, 0), BuildingBlock: CIFDUS_clean_linker_0, # of connection points: 2
#     Edge 35, Type (0, 0), BuildingBlock: CIFDUS_clean_linker_0, # of connection points: 2
# Relax obj value: 0.043
# Max RMSD: 0.122
# Mean RMSD: 0.122
data_MOF--net-smm--node1-BETDAH_clean_sbu_0--edge1-CIFDUS_clean_linker_0
_symmetry_space_group_name_H-M    P1
_symmetry_Int_Tables_number       1
_symmetry_cell_setting            triclinic
loop_
_symmetry_equiv_pos_as_xyz
'x, y, z'
_cell_length_a     64.63866
_cell_length_b     64.348969
_cell_length_c     12.421288
_cell_angle_alpha  89.935862
_cell_angle_beta   89.821349
_cell_angle_gamma 120.20755
loop_
_atom_site_label
_atom_site_type_symbol
_atom_site_fract_x
_atom_site_fract_y
_atom_site_fract_z
_atom_type_partial_charge
Ho0 Ho 0.06506 0.22959 -0.01046 0.0
Ho1 Ho 1.02321 0.17989 0.04048 0.0
C2 C 1.01353 0.22375 0.05763 0.0
C3 C 0.09402 0.27091 0.90042 0.0
C4 C 0.0998 0.29621 0.88337 0.0
C5 C 0.089 0.30227 0.80026 0.0
C6 C 0.0972 0.32642 0.77398 0.0
C7 C 0.11657 0.34517 0.82942 0.0
C8 C 0.12687 0.33906 0.91454 0.0
C9 C 0.11866 0.31495 0.94084 0.0
C10 C 0.0611 0.21686 0.20025 0.0
C11 C 0.07602 0.18649 -0.00168 0.0
C12 C 0.99356 0.13694 0.11223 0.0
C13 C 0.9863 0.11125 0.09478 0.0
C14 C 0.99126 0.09874 0.17388 0.0
C15 C 0.98261 0.07401 0.16415 0.0
C16 C 0.9686 0.06103 0.07528 0.0
C17 C 0.96394 0.07364 -0.00473 0.0
C18 C 0.97264 0.09841 0.00489 0.0
C19 C 1.0283 0.19266 0.82905 0.0
O20 O 0.03397 0.23675 0.00435 0.0
O21 O 1.00733 0.20209 0.09484 0.0
O22 O 0.09729 0.26463 -0.00372 0.0
O23 O 0.07523 0.25364 0.85227 0.0
O24 O 0.0813 0.23021 0.15076 0.0
O25 O 0.04402 0.21241 0.13767 0.0
O26 O 0.05442 0.17333 0.04095 0.0
O27 O 0.08327 0.20818 0.95841 0.0
O28 O 0.98825 0.14778 0.03744 0.0
O29 O 1.01461 0.151 0.15454 0.0
O30 O 1.00794 0.17992 0.87745 0.0
O31 O 0.0449 0.19674 0.8936 0.0
H32 H 0.07471 0.28836 0.75289 0.0
H33 H 0.08894 0.33036 0.70734 0.0
H34 H 0.14154 0.35295 0.96033 0.0
H35 H 0.12763 0.311 0.00429 0.0
H36 H 1.00139 0.108 0.24488 0.0
H37 H 0.98634 0.06493 0.22811 0.0
H38 H 0.9535 0.06437 0.92502 0.0
H39 H 0.9683 0.10736 0.94258 0.0
Ho40 Ho 0.85101 0.86332 0.97807 0.0
Ho41 Ho 0.9021 0.86979 0.0165 0.0
C42 C 0.85657 0.81583 0.00915 0.0
C43 C 0.81121 0.85483 0.88997 0.0
C44 C 0.78565 0.83707 0.87391 0.0
C45 C 0.77587 0.81245 0.89573 0.0
C46 C 0.75152 0.79622 0.87566 0.0
C47 C 0.73657 0.80437 0.83355 0.0
C48 C 0.74668 0.82909 0.81191 0.0
C49 C 0.77086 0.84518 0.83209 0.0
C50 C 0.86423 0.86546 0.18418 0.0
C51 C 0.8956 0.91699 0.01066 0.0
C52 C 0.94378 0.87874 0.08305 0.0
C53 C 0.9697 0.894 0.0572 0.0
C54 C 0.98429 0.91484 0.11712 0.0
C55 C 1.00911 0.92789 0.10016 0.0
C56 C 1.02001 0.92032 0.0234 0.0
C57 C 1.00535 0.89968 0.96241 0.0
C58 C 0.98056 0.88667 0.9792 0.0
C59 C 0.88943 0.8696 0.80998 0.0
O60 O 0.84327 0.8246 0.9712 0.0
O61 O 0.87852 0.8301 0.04612 0.0
O62 O 0.81787 0.86403 -0.01371 0.0
O63 O 0.82693 0.85076 0.84223 0.0
O64 O 0.84923 0.87208 0.15278 0.0
O65 O 0.86892 0.85572 0.10818 0.0
O66 O 0.90854 0.90747 0.04422 0.0
O67 O 0.87407 0.90366 0.9674 0.0
O68 O 0.9307 0.86178 0.01439 0.0
O69 O 0.93248 0.88912 0.1234 0.0
O70 O 0.90401 0.86246 0.83982 0.0
O71 O 0.88464 0.87858 0.88845 0.0
H72 H 0.78703 0.80581 0.92785 0.0
H73 H 0.74436 0.77737 0.89408 0.0
H74 H 0.73601 0.83605 0.77745 0.0
H75 H 0.7781 0.86408 0.81379 0.0
H76 H 0.9766 0.92077 0.17903 0.0
H77 H 1.01984 0.94351 0.1497 0.0
H78 H 1.01304 0.89347 0.90177 0.0
H79 H 0.96998 0.87057 0.9322 0.0
Ho80 Ho 0.21441 1.01617 -0.00139 0.0
Ho81 Ho 0.21086 0.06068 0.04386 0.0
C82 C 0.26238 0.06654 0.0677 0.0
C83 C 0.22394 0.98478 0.91562 0.0
C84 C 0.24161 0.97644 0.9064 0.0
C85 C 0.25047 0.97543 0.80425 0.0
C86 C 0.26434 0.96448 0.79002 0.0
C87 C 0.26967 0.95407 0.87763 0.0
C88 C 0.26134 0.95569 0.98056 0.0
C89 C 0.24748 0.9667 -0.00522 0.0
C90 C 0.20568 1.02127 0.20759 0.0
C91 C 0.16209 1.00985 0.00047 0.0
C92 C 0.20021 0.09251 0.10906 0.0
C93 C 0.18212 0.09996 0.09006 0.0
C94 C 0.16522 0.09606 0.17055 0.0
C95 C 0.14907 0.10435 0.15773 0.0
C96 C 0.14945 0.11693 0.0642 0.0
C97 C 0.16632 0.12075 -0.0167 0.0
C98 C 0.18246 0.11238 -0.00398 0.0
C99 C 0.2188 0.0545 0.83465 0.0
O100 O 0.25376 0.04569 0.01626 0.0
O101 O 0.24803 0.07424 0.10173 0.0
O102 O 0.21288 0.98184 0.00758 0.0
O103 O 0.22872 1.0048 0.86706 0.0
O104 O 0.1975 1.00073 0.15962 0.0
O105 O 0.21951 0.03795 0.14463 0.0
O106 O 0.17221 0.03168 0.04176 0.0
O107 O 0.175 1.00055 0.96444 0.0
O108 O 0.21556 0.09635 0.03191 0.0
O109 O 0.19293 0.07192 0.15787 0.0
O110 O 0.22807 0.07513 0.88222 0.0
O111 O 0.20483 0.03828 0.8989 0.0
H112 H 0.24594 0.98239 0.73428 0.0
H113 H 0.27009 0.96336 0.70935 0.0
H114 H 0.26534 0.94823 0.05027 0.0
H115 H 0.24085 0.967 0.07462 0.0
H116 H 0.16473 0.08691 0.24461 0.0
H117 H 0.13662 0.10137 0.22255 0.0
H118 H 0.167 0.13014 0.90978 0.0
H119 H 0.19533 0.11589 0.93252 0.0
Ho120 Ho 0.73279 0.56158 0.31379 0.0
Ho121 Ho 0.68872 0.51392 0.36631 0.0
C122 C 0.68295 0.56007 0.3683 0.0
C123 C 0.76488 0.60211 0.2291 0.0
C124 C 0.77013 0.62614 0.1926 0.0
C125 C 0.78811 0.63806 0.11496 0.0
C126 C 0.79525 0.66163 0.08419 0.0
C127 C 0.7846 0.67393 0.13054 0.0
C128 C 0.76591 0.66162 0.20584 0.0
C129 C 0.75877 0.63792 0.23688 0.0
C130 C 0.7277 0.54891 0.52495 0.0
C131 C 0.74011 0.51642 0.32656 0.0
C132 C 0.65762 0.47178 0.44091 0.0
C133 C 0.65064 0.44609 0.42617 0.0
C134 C 0.6555 0.43391 0.50741 0.0
C135 C 0.64754 0.40929 0.49844 0.0
C136 C 0.63432 0.39611 0.40829 0.0
C137 C 0.62977 0.4084 0.32628 0.0
C138 C 0.63779 0.43303 0.3351 0.0
C139 C 0.69449 0.52605 0.15419 0.0
O140 O 0.70305 0.5705 0.31129 0.0
O141 O 0.67532 0.53884 0.41436 0.0
O142 O 0.76259 0.59779 0.33259 0.0
O143 O 0.74972 0.58358 0.17237 0.0
O144 O 0.74808 0.56001 0.47459 0.0
O145 O 0.71115 0.54612 0.46239 0.0
O146 O 0.7181 0.50436 0.36652 0.0
O147 O 0.74909 0.53848 0.28849 0.0
O148 O 0.65326 0.48248 0.36194 0.0
O149 O 0.67823 0.48588 0.48683 0.0
O150 O 0.674 0.51483 0.20306 0.0
O151 O 0.71074 0.52899 0.2188 0.0
H152 H 0.79704 0.62928 0.07948 0.0
H153 H 0.80934 0.67032 0.02457 0.0
H154 H 0.75737 0.67056 0.24342 0.0
H155 H 0.74479 0.62901 0.29687 0.0
H156 H 0.66509 0.44335 0.57917 0.0
H157 H 0.65116 0.40044 0.56381 0.0
H158 H 0.61994 0.39896 0.25499 0.0
H159 H 0.6336 0.44172 0.27098 0.0
Ho160 Ho 0.51808 0.19907 0.30663 0.0
Ho161 Ho 0.5681 0.2039 0.34782 0.0
C162 C 0.52196 0.15051 0.33265 0.0
C163 C 0.47846 0.19103 0.21856 0.0
C164 C 0.45315 0.17262 0.20178 0.0
C165 C 0.43682 0.18031 0.17989 0.0
C166 C 0.41285 0.16366 0.15895 0.0
C167 C 0.40454 0.1388 0.15976 0.0
C168 C 0.42101 0.13108 0.18159 0.0
C169 C 0.44513 0.14787 0.20261 0.0
C170 C 0.53021 0.19975 0.51394 0.0
C171 C 0.56296 0.25216 0.34018 0.0
C172 C 0.60926 0.21254 0.42006 0.0
C173 C 0.63497 0.2303 0.40733 0.0
C174 C 0.64305 0.25418 0.37625 0.0
C175 C 0.66765 0.27053 0.36488 0.0
C176 C 0.68459 0.26327 0.38376 0.0
C177 C 0.67627 0.23927 0.41426 0.0
C178 C 0.65176 0.22301 0.42589 0.0
C179 C 0.55624 0.20448 0.14052 0.0
O180 O 0.50986 0.16041 0.29269 0.0
O181 O 0.54379 0.16392 0.37295 0.0
O182 O 0.48482 0.19952 0.31613 0.0
O183 O 0.49462 0.18794 0.16891 0.0
O184 O 0.51626 0.20761 0.48182 0.0
O185 O 0.53468 0.18993 0.43745 0.0
O186 O 0.57562 0.24222 0.3729 0.0
O187 O 0.54141 0.23917 0.29718 0.0
O188 O 0.59875 0.19895 0.33658 0.0
O189 O 0.59588 0.21968 0.46856 0.0
O190 O 0.56965 0.19598 0.17151 0.0
O191 O 0.55186 0.21392 0.21865 0.0
H192 H 0.44269 0.19933 0.17775 0.0
H193 H 0.40088 0.17034 0.14041 0.0
H194 H 0.4152 0.1121 0.18357 0.0
H195 H 0.4575 0.14157 0.21898 0.0
H196 H 0.63038 0.26016 0.36071 0.0
H197 H 0.67338 0.2888 0.34027 0.0
H198 H 0.68874 0.23311 0.43109 0.0
H199 H 0.64588 0.20466 0.44993 0.0
Ho200 Ho 0.88157 0.3487 0.31649 0.0
Ho201 Ho 0.87438 0.39068 0.36764 0.0
C202 C 0.9278 0.40041 0.38168 0.0
C203 C 0.89262 0.3193 0.22491 0.0
C204 C 0.91037 0.31142 0.2117 0.0
C205 C 0.93518 0.32732 0.21824 0.0
C206 C 0.95127 0.3191 0.1975 0.0
C207 C 0.94283 0.29487 0.16977 0.0
C208 C 0.91792 0.27915 0.16429 0.0
C209 C 0.90197 0.28732 0.18523 0.0
C210 C 0.87337 0.35262 0.52803 0.0
C211 C 0.82779 0.33806 0.32511 0.0
C212 C 0.86135 0.42018 0.44033 0.0
C213 C 0.84269 0.42681 0.42239 0.0
C214 C 0.82769 0.4251 0.50811 0.0
C215 C 0.81125 0.43305 0.49618 0.0
C216 C 0.8095 0.44309 0.39826 0.0
C217 C 0.82424 0.44439 0.31177 0.0
C218 C 0.84062 0.43632 0.32357 0.0
C219 C 0.88169 0.3857 0.15569 0.0
O220 O 0.92006 0.37964 0.33103 0.0
O221 O 0.91263 0.40687 0.41843 0.0
O222 O 0.88118 0.31477 0.31673 0.0
O223 O 0.89762 0.34005 0.18357 0.0
O224 O 0.86645 0.33237 0.47915 0.0
O225 O 0.88593 0.36977 0.46457 0.0
O226 O 0.83642 0.35943 0.37014 0.0
O227 O 0.84214 0.33112 0.28285 0.0
O228 O 0.87742 0.42569 0.36472 0.0
O229 O 0.85449 0.39913 0.48356 0.0
O230 O 0.88951 0.40611 0.20373 0.0
O231 O 0.86911 0.36899 0.22082 0.0
H232 H 0.94209 0.34604 0.23828 0.0
H233 H 0.97029 0.33169 0.20354 0.0
H234 H 0.91064 0.26054 0.14114 0.0
H235 H 0.88292 0.27481 0.17855 0.0
H236 H 0.82905 0.41806 0.58541 0.0
H237 H 0.80041 0.43201 0.5649 0.0
H238 H 0.82317 0.45172 0.23484 0.0
H239 H 0.85189 0.4379 0.25571 0.0
Ho240 Ho 0.40075 0.89943 0.65328 0.0
Ho241 Ho 0.35584 0.84887 0.69572 0.0
C242 C 0.35211 0.89794 0.70993 0.0
C243 C 0.43819 0.93672 0.57302 0.0
C244 C 0.44816 0.96196 0.53855 0.0
C245 C 0.47119 0.97394 0.49347 0.0
C246 C 0.48217 0.9983 0.4664 0.0
C247 C 0.47035 1.01135 0.48366 0.0
C248 C 0.44688 0.99912 0.52597 0.0
C249 C 0.43589 0.97461 0.55368 0.0
C250 C 0.39063 0.88602 0.86036 0.0
C251 C 0.40553 0.8508 0.65082 0.0
C252 C 0.31916 0.80883 0.76025 0.0
C253 C 0.31098 0.78262 0.75483 0.0
C254 C 0.31817 0.77156 0.83235 0.0
C255 C 0.30977 0.74677 0.82856 0.0
C256 C 0.29386 0.73225 0.74746 0.0
C257 C 0.28669 0.74336 0.67009 0.0
C258 C 0.29505 0.76813 0.67397 0.0
C259 C 0.36671 0.86261 0.48882 0.0
O260 O 0.37263 0.90982 0.65663 0.0
O261 O 0.3437 0.87545 0.74466 0.0
O262 O 0.43455 0.93225 0.6762 0.0
O263 O 0.42128 0.91997 0.51414 0.0
O264 O 0.39987 0.90816 0.82816 0.0
O265 O 0.38873 0.87263 0.7829 0.0
O266 O 0.38373 0.83791 0.6919 0.0
O267 O 0.41447 0.87364 0.62166 0.0
O268 O 0.31969 0.81955 0.66978 0.0
O269 O 0.33755 0.82236 0.82161 0.0
O270 O 0.35819 0.84061 0.52121 0.0
O271 O 0.36791 0.8757 0.56616 0.0
H272 H 0.48092 0.96449 0.48079 0.0
H273 H 0.50005 1.007 0.43245 0.0
H274 H 0.43733 1.00866 0.54076 0.0
H275 H 0.41809 0.96567 0.58857 0.0
H276 H 0.33015 0.78202 0.89676 0.0
H277 H 0.31545 0.73891 0.89064 0.0
H278 H 0.27473 0.73296 0.60556 0.0
H279 H 0.28893 0.77592 0.61346 0.0
Ho280 Ho 0.18281 0.53329 0.66538 0.0
Ho281 Ho 0.23452 0.54163 0.70423 0.0
C282 C 0.19024 0.48683 0.69607 0.0
C283 C 0.14208 0.52202 0.57833 0.0
C284 C 0.11717 0.50198 0.56093 0.0
C285 C 0.11122 0.48775 0.46755 0.0
C286 C 0.08728 0.47121 0.44315 0.0
C287 C 0.06864 0.46862 0.51095 0.0
C288 C 0.07467 0.48232 0.606 0.0
C289 C 0.09859 0.49883 0.63045 0.0
C290 C 0.19611 0.53576 0.87148 0.0
C291 C 0.22595 0.58779 0.6965 0.0
C292 C 0.27632 0.5521 0.77549 0.0
C293 C 0.30202 0.56946 0.75929 0.0
C294 C 0.31021 0.59251 0.71634 0.0
C295 C 0.33483 0.60835 0.70111 0.0
C296 C 0.35165 0.60136 0.72801 0.0
C297 C 0.34319 0.57819 0.77073 0.0
C298 C 0.31868 0.56246 0.78608 0.0
C299 C 0.22165 0.54084 0.4977 0.0
O300 O 0.17653 0.4951 0.658 0.0
O301 O 0.21218 0.50161 0.73215 0.0
O302 O 0.14819 0.53082 0.67572 0.0
O303 O 0.15941 0.52117 0.52714 0.0
O304 O 0.18086 0.54204 0.83991 0.0
O305 O 0.20119 0.52634 0.79538 0.0
O306 O 0.23986 0.57913 0.72737 0.0
O307 O 0.20422 0.57371 0.6564 0.0
O308 O 0.26549 0.5372 0.69622 0.0
O309 O 0.26313 0.55997 0.81981 0.0
O310 O 0.23656 0.53412 0.52792 0.0
O311 O 0.2165 0.5496 0.57592 0.0
H312 H 0.125 0.48996 0.41113 0.0
H313 H 0.08335 0.46119 0.36874 0.0
H314 H 0.06083 0.48056 0.66098 0.0
H315 H 0.10244 0.50964 0.70239 0.0
H316 H 0.29762 0.59822 0.69438 0.0
H317 H 0.34067 0.62596 0.66716 0.0
H318 H 0.35555 0.57229 0.7941 0.0
H319 H 0.31271 0.54474 0.81929 0.0
Ho320 Ho 0.54828 0.681 0.66937 0.0
Ho321 Ho 0.54178 0.72579 0.69666 0.0
C322 C 0.59475 0.73371 0.72254 0.0
C323 C 0.55831 0.64911 0.59802 0.0
C324 C 0.57668 0.64187 0.58407 0.0
C325 C 0.58459 0.64067 0.47988 0.0
C326 C 0.59857 0.62996 0.46202 0.0
C327 C 0.6049 0.61999 0.54791 0.0
C328 C 0.59779 0.62209 0.65279 0.0
C329 C 0.58382 0.63282 0.67065 0.0
C330 C 0.5384 0.68925 0.86982 0.0
C331 C 0.49479 0.67238 0.66636 0.0
C332 C 0.52959 0.75699 0.7534 0.0
C333 C 0.51076 0.76337 0.73296 0.0
C334 C 0.49325 0.75855 0.81182 0.0
C335 C 0.4767 0.76633 0.79844 0.0
C336 C 0.47727 0.77931 0.70601 0.0
C337 C 0.4946 0.78385 0.62635 0.0
C338 C 0.51115 0.77603 0.63968 0.0
C339 C 0.55051 0.71651 0.49542 0.0
O340 O 0.58683 0.712 0.68031 0.0
O341 O 0.57991 0.74145 0.7499 0.0
O342 O 0.55002 0.64864 0.69485 0.0
O343 O 0.56012 0.66688 0.53944 0.0
O344 O 0.53275 0.66806 0.8348 0.0
O345 O 0.55161 0.70502 0.80247 0.0
O346 O 0.50362 0.69492 0.69817 0.0
O347 O 0.50875 0.66372 0.63719 0.0
O348 O 0.54473 0.76057 0.67556 0.0
O349 O 0.5233 0.73712 0.80683 0.0
O350 O 0.55665 0.73786 0.52921 0.0
O351 O 0.53756 0.70124 0.56479 0.0
H352 H 0.57909 0.6471 0.41123 0.0
H353 H 0.60345 0.6285 0.38007 0.0
H354 H 0.60263 0.615 0.7212 0.0
H355 H 0.57794 0.63326 0.75194 0.0
H356 H 0.49267 0.7492 0.88536 0.0
H357 H 0.46389 0.76278 0.86234 0.0
H358 H 0.49544 0.79353 0.55356 0.0
H359 H 0.52448 0.78026 0.57749 0.0
H360 H 0.16353 0.3806 0.81694 0.0
H361 H 0.09205 0.36781 0.76652 0.0
H362 H 0.10836 0.40986 0.71386 0.0
H363 H 0.14303 0.45089 0.68862 0.0
H364 H 0.21429 0.46336 0.74434 0.0
H365 H 0.19794 0.42104 0.78862 0.0
C366 C 0.15145 0.387 0.79549 0.0
C367 C 0.12652 0.37092 0.79666 0.0
C368 C 0.16094 0.41128 0.76592 0.0
C369 C 0.11129 0.3796 0.76587 0.0
C370 C 0.12062 0.40374 0.73609 0.0
C371 C 0.15501 0.44432 0.70935 0.0
C372 C 0.17993 0.46048 0.71315 0.0
C373 C 0.14544 0.41982 0.73631 0.0
C374 C 0.19508 0.45151 0.74097 0.0
C375 C 0.18573 0.42723 0.76658 0.0
H376 H 0.69912 0.81185 0.86706 0.0
H377 H 0.7154 0.75863 0.74924 0.0
H378 H 0.67319 0.73196 0.70492 0.0
H379 H 0.63154 0.72417 0.69519 0.0
H380 H 0.61644 0.77858 0.80975 0.0
H381 H 0.65822 0.80434 0.85717 0.0
C382 C 0.69357 0.79452 0.83073 0.0
C383 C 0.71062 0.78744 0.81109 0.0
C384 C 0.66936 0.77944 0.80393 0.0
C385 C 0.70277 0.76457 0.76641 0.0
C386 C 0.6786 0.74935 0.74016 0.0
C387 C 0.63738 0.74168 0.73025 0.0
C388 C 0.62065 0.7493 0.74839 0.0
C389 C 0.66171 0.75665 0.75783 0.0
C390 C 0.62871 0.77208 0.7944 0.0
C391 C 0.6527 0.78692 0.82191 0.0
H392 H 0.30789 0.96609 0.74401 0.0
H393 H 0.26148 0.91195 0.9726 0.0
H394 H 0.2824 0.8897 0.94146 0.0
H395 H 0.31381 0.8852 0.84695 0.0
H396 H 0.35983 0.93975 0.61831 0.0
H397 H 0.33896 0.96174 0.65065 0.0
C398 C 0.30219 0.94934 0.78662 0.0
C399 C 0.28304 0.94085 0.86069 0.0
C400 C 0.31421 0.93649 0.76785 0.0
C401 C 0.27632 0.91923 0.91622 0.0
C402 C 0.28818 0.90633 0.8978 0.0
C403 C 0.3192 0.90184 0.80387 0.0
C404 C 0.33845 0.91064 0.73005 0.0
C405 C 0.30714 0.91472 0.82345 0.0
C406 C 0.3452 0.9324 0.67581 0.0
C407 C 0.33324 0.9451 0.69418 0.0
H408 H 0.36598 0.14074 0.23295 0.0
H409 H 0.385 0.09745 0.03785 0.0
H410 H 0.34272 0.07058 -0.00599 0.0
H411 H 0.30014 0.06048 0.00504 0.0
H412 H 0.28279 0.10556 0.19805 0.0
H413 H 0.32444 0.13061 0.24656 0.0
C414 C 0.36097 0.12554 0.18012 0.0
C415 C 0.37875 0.12134 0.138 0.0
C416 C 0.33678 0.11046 0.15397 0.0
C417 C 0.37173 0.10111 0.07203 0.0
C418 C 0.34753 0.08581 0.04626 0.0
C419 C 0.30549 0.07575 0.05783 0.0
C420 C 0.28816 0.08107 0.09683 0.0
C421 C 0.32986 0.09045 0.08581 0.0
C422 C 0.29554 0.10096 0.16559 0.0
C423 C 0.31946 0.11539 0.19396 0.0
H424 H 0.93794 0.25145 0.2231 0.0
H425 H 0.98565 0.31788 0.05896 0.0
H426 H 1.01184 0.30211 0.01014 0.0
H427 H 1.02066 0.26876 0.00972 0.0
H428 H 0.97164 0.20216 0.17045 0.0
H429 H 0.94644 0.21854 0.2222 0.0
C430 C 0.95394 0.26248 0.17575 0.0
C431 C 0.95962 0.28584 0.14453 0.0
C432 C 0.9687 0.25316 0.14632 0.0
C433 C 0.98084 0.29995 0.0854 0.0
C434 C 0.99576 0.29085 0.05654 0.0
C435 C 1.00444 0.25781 0.05579 0.0
C436 C 0.99816 0.23417 0.0856 0.0
C437 C 0.9898 0.26737 0.08584 0.0
C438 C 0.97705 0.22035 0.14579 0.0
C439 C 0.96255 0.22972 0.17585 0.0
H440 H 0.80906 0.78039 0.01618 0.0
H441 H 0.88078 0.79194 0.0363 0.0
H442 H 0.86488 0.74947 0.07436 0.0
H443 H 0.831 0.70933 0.10876 0.0
H444 H 0.75898 0.69681 0.09212 0.0
H445 H 0.77458 0.73928 0.04763 0.0
C446 C 0.82117 0.77354 0.0277 0.0
C447 C 0.84613 0.78945 0.02323 0.0
C448 C 0.81188 0.74892 0.05145 0.0
C449 C 0.86153 0.78024 0.03957 0.0
C450 C 0.85246 0.75589 0.06152 0.0
C451 C 0.81864 0.71576 0.09408 0.0
C452 C 0.79382 0.69977 0.10326 0.0
C453 C 0.82771 0.74013 0.06866 0.0
C454 C 0.77817 0.70869 0.08643 0.0
C455 C 0.78709 0.73298 0.06036 0.0
H456 H 1.03206 0.47786 0.53023 0.0
H457 H 0.04757 0.42355 0.42036 0.0
H458 H 1.00575 0.39795 0.36694 0.0
H459 H 0.96439 0.39072 0.35397 0.0
H460 H 0.94957 0.44535 0.46762 0.0
H461 H 0.99129 0.4708 0.5175 0.0
C462 C 1.02629 0.4603 0.49588 0.0
C463 C 0.04302 0.45266 0.48015 0.0
C464 C 1.00223 0.44565 0.46566 0.0
C465 C 0.03519 0.43003 0.43292 0.0
C466 C 1.01122 0.41532 0.40265 0.0
C467 C 0.97031 0.40823 0.38917 0.0
C468 C 0.95368 0.41598 0.40697 0.0
C469 C 0.99453 0.42293 0.41864 0.0
C470 C 0.96179 0.43876 0.45308 0.0
C471 C 0.98573 0.45341 0.48184 0.0
H472 H 0.64155 0.63063 0.40574 0.0
H473 H 0.59656 0.57804 0.64312 0.0
H474 H 0.61622 0.55481 0.60791 0.0
H475 H 0.64607 0.54907 0.50893 0.0
H476 H 0.69103 0.60169 0.27141 0.0
H477 H 0.67128 0.62483 0.30626 0.0
C478 C 0.63592 0.61402 0.44941 0.0
C479 C 0.6176 0.60627 0.52749 0.0
C480 C 0.64723 0.60056 0.42824 0.0
C481 C 0.61085 0.58478 0.58399 0.0
C482 C 0.62197 0.57131 0.56323 0.0
C483 C 0.65147 0.56552 0.46422 0.0
C484 C 0.67001 0.57347 0.38723 0.0
C485 C 0.64016 0.57898 0.4854 0.0
C486 C 0.67683 0.595 0.33101 0.0
C487 C 0.66555 0.60834 0.35099 0.0
H488 H 0.53911 0.12367 0.42544 0.0
H489 H 0.47629 0.11715 0.2721 0.0
H490 H 0.45468 0.07391 0.30629 0.0
H491 H 0.45327 0.03768 0.38275 0.0
H492 H 0.51629 0.04459 0.53542 0.0
H493 H 0.53799 0.08767 0.49832 0.0
C494 C 0.52075 0.11283 0.39871 0.0
C495 C 0.50944 0.12386 0.34629 0.0
C496 C 0.50833 0.08789 0.41895 0.0
C497 C 0.48557 0.10933 0.31261 0.0
C498 C 0.47311 0.08451 0.33242 0.0
C499 C 0.47171 0.04865 0.40836 0.0
C500 C 0.4831 0.03779 0.46156 0.0
C501 C 0.48423 0.07358 0.38634 0.0
C502 C 0.50711 0.05232 0.49317 0.0
C503 C 0.51955 0.07703 0.47233 0.0
H504 H 0.15842 0.16031 0.98204 0.0
H505 H 0.10201 0.09426 0.11962 0.0
H506 H 0.07449 0.1097 0.1095 0.0
H507 H 0.06652 0.14217 0.06596 0.0
H508 H 0.12259 0.20827 0.92698 0.0
H509 H 0.14992 0.19243 0.9319 0.0
C510 C 0.14003 0.14916 0.00859 0.0
C511 C 0.13245 0.12616 0.0523 0.0
C512 C 0.12417 0.15816 0.0024 0.0
C513 C 0.10855 0.11215 0.08738 0.0
C514 C 0.09272 0.12093 0.0811 0.0
C515 C 0.08468 0.15315 0.03623 0.0
C516 C 0.0924 0.17648 -0.00362 0.0
C517 C 0.10037 0.14398 0.03967 0.0
C518 C 0.11605 0.19029 0.95812 0.0
C519 C 0.13175 0.18124 0.96106 0.0
H520 H 0.9404 0.95113 0.07785 0.0
H521 H 0.87416 0.94294 0.95664 0.0
H522 H 0.89083 0.98634 0.96459 0.0
H523 H 0.92402 0.02678 0.00746 0.0
H524 H 0.99047 0.03519 0.12617 0.0
H525 H 0.97383 0.99172 0.11846 0.0
C526 C 0.92956 0.95878 0.05319 0.0
C527 C 0.90598 0.94358 0.01666 0.0
C528 C 0.93929 0.98392 0.05769 0.0
C529 C 0.89233 0.95402 -0.015 0.0
C530 C 0.90187 0.97893 -0.01051 0.0
C531 C 0.935 1.01918 0.03052 0.0
C532 C 0.95853 0.03442 0.06746 0.0
C533 C 0.92533 0.99408 0.02558 0.0
C534 C 0.97224 1.02402 0.09871 0.0
C535 C 0.96276 0.9991 0.09384 0.0
H536 H 0.05053 0.96882 0.021 0.0
H537 H 0.04939 0.90143 -0.00604 0.0
H538 H 0.09298 0.92291 0.97674 0.0
H539 H 0.13193 0.96108 0.97826 0.0
H540 H 0.13232 0.02807 0.0111 0.0
H541 H 0.08885 1.00656 0.01758 0.0
C542 C 0.05979 0.95879 0.01192 0.0
C543 C 0.04658 0.93351 0.00919 0.0
C544 C 0.0849 0.97123 0.00324 0.0
C545 C 0.05898 0.9209 -0.00475 0.0
C546 C 0.08399 0.93318 -0.01399 0.0
C547 C 0.12247 0.97094 -0.01432 0.0
C548 C 0.13551 0.99617 -0.00525 0.0
C549 C 0.09721 0.95838 -0.00922 0.0
C550 C 0.12288 1.00865 0.00489 0.0
C551 C 0.09793 0.99636 0.00861 0.0
H552 H 0.72973 0.47289 0.41132 0.0
H553 H 0.78481 0.53438 0.23935 0.0
H554 H 0.81057 0.51683 0.2432 0.0
H555 H 0.81825 0.48481 0.30084 0.0
H556 H 0.76345 0.42336 0.47335 0.0
H557 H 0.73699 0.44019 0.46429 0.0
C558 C 0.74731 0.48243 0.37411 0.0
C559 C 0.75524 0.50501 0.3253 0.0
C560 C 0.76222 0.47229 0.37718 0.0
C561 C 0.77815 0.51703 0.27779 0.0
C562 C 0.79297 0.50701 0.27992 0.0
C563 C 0.8004 0.47491 0.33522 0.0
C564 C 0.79293 0.45283 0.38788 0.0
C565 C 0.78527 0.48474 0.33003 0.0
C566 C 0.76983 0.44052 0.43347 0.0
C567 C 0.75463 0.45009 0.42794 0.0
H568 H 0.59044 0.36152 0.33707 0.0
H569 H 0.65655 0.3708 0.46465 0.0
H570 H 0.64053 0.32736 0.45618 0.0
H571 H 0.60756 0.28646 0.41198 0.0
H572 H 0.54176 0.27798 0.28286 0.0
H573 H 0.55797 0.32117 0.29155 0.0
C574 C 0.6015 0.35414 0.3619 0.0
C575 C 0.62474 0.36958 0.40121 0.0
C576 C 0.5922 0.32913 0.35663 0.0
C577 C 0.63853 0.35944 0.43503 0.0
C578 C 0.62941 0.33455 0.42975 0.0
C579 C 0.59676 0.29404 0.38572 0.0
C580 C 0.5734 0.27875 0.34671 0.0
C581 C 0.60622 0.31916 0.39086 0.0
C582 C 0.55977 0.28908 0.31314 0.0
C583 C 0.56902 0.3139 0.31805 0.0
H584 H 0.7191 0.25562 0.29641 0.0
H585 H 0.70928 0.31016 0.4503 0.0
H586 H 0.75236 0.33821 0.44213 0.0
H587 H 0.793 0.34686 0.39762 0.0
H588 H 0.80298 0.29215 0.24605 0.0
H589 H 0.75976 0.2646 0.24802 0.0
C590 C 0.72637 0.27361 0.32868 0.0
C591 C 0.71085 0.28067 0.37422 0.0
C592 C 0.75126 0.28964 0.32455 0.0
C593 C 0.72066 0.30424 0.41374 0.0
C594 C 0.74536 0.32028 0.40978 0.0
C595 C 0.78578 0.32895 0.36458 0.0
C596 C 0.80138 0.32164 0.32205 0.0
C597 C 0.76085 0.31312 0.36615 0.0
C598 C 0.79153 0.29833 0.27942 0.0
C599 C 0.76676 0.28251 0.28061 0.0
H600 H 0.48649 0.82291 0.6267 0.0
H601 H 0.42963 0.75662 0.76023 0.0
H602 H 0.40237 0.77245 0.75183 0.0
H603 H 0.3949 0.80557 0.71207 0.0
H604 H 0.45174 0.87176 0.5771 0.0
H605 H 0.47847 0.85531 0.57888 0.0
C606 C 0.46805 0.81175 0.65252 0.0
C607 C 0.46028 0.78859 0.69466 0.0
C608 C 0.45237 0.82096 0.64729 0.0
C609 C 0.43633 0.77462 0.7291 0.0
C610 C 0.42064 0.78362 0.72379 0.0
C611 C 0.41308 0.81639 0.68225 0.0
C612 C 0.4212 0.83998 0.64485 0.0
C613 C 0.42851 0.80686 0.68405 0.0
C614 C 0.44488 0.8536 0.60658 0.0
C615 C 0.46027 0.84421 0.60771 0.0
H616 H 0.27099 0.62378 0.75319 0.0
H617 H 0.20189 0.61162 0.65222 0.0
H618 H 0.2166 0.65465 0.65934 0.0
H619 H 0.24886 0.69591 0.69496 0.0
H620 H 0.31832 0.70852 0.79166 0.0
H621 H 0.30356 0.66536 0.78686 0.0
C622 C 0.2591 0.63049 0.73286 0.0
C623 C 0.23528 0.61424 0.70216 0.0
C624 C 0.26771 0.65548 0.73674 0.0
C625 C 0.22028 0.6235 0.67595 0.0
C626 C 0.22868 0.64821 0.68004 0.0
C627 C 0.26091 0.68933 0.71394 0.0
C628 C 0.28474 0.7057 0.74377 0.0
C629 C 0.25237 0.6644 0.71011 0.0
C630 C 0.29982 0.69652 0.76991 0.0
C631 C 0.29142 0.67175 0.76653 0.0
H632 H 0.46062 0.68367 0.72046 0.0
H633 H 0.46912 0.62489 0.60814 0.0
H634 H 0.42578 0.59815 0.61347 0.0
H635 H 0.38546 0.59106 0.65488 0.0
H636 H 0.37713 0.64965 0.7707 0.0
H637 H 0.42031 0.67685 0.75727 0.0
C638 C 0.45307 0.66504 0.69656 0.0
C639 C 0.46829 0.65638 0.66425 0.0
C640 C 0.42807 0.64968 0.70025 0.0
C641 C 0.45798 0.63214 0.63352 0.0
C642 C 0.43314 0.61678 0.63665 0.0
C643 C 0.39308 0.60975 0.6777 0.0
C644 C 0.37794 0.61819 0.71421 0.0
C645 C 0.41802 0.62529 0.67089 0.0
C646 C 0.38819 0.64263 0.74129 0.0
C647 C 0.41296 0.65819 0.73436 0.0
H648 H 0.06929 0.21159 0.7073 0.0
H649 H 0.99293 0.18161 0.68418 0.0
H650 H 0.99606 0.18583 0.48848 0.0
H651 H 1.02041 0.19787 0.32256 0.0
H652 H 0.09681 0.22809 0.34461 0.0
H653 H 0.09375 0.22381 0.54066 0.0
C654 C 0.05338 0.20607 0.65932 0.0
C655 C 1.0309 0.19628 0.71047 0.0
C656 C 0.05529 0.20847 0.54613 0.0
C657 C 1.01045 0.18918 0.64703 0.0
C658 C 1.0122 0.19155 0.53489 0.0
C659 C 0.03637 0.20344 0.3703 0.0
C660 C 0.05881 0.21329 0.31888 0.0
C661 C 0.0345 0.20108 0.48336 0.0
C662 C 0.07931 0.22046 0.38206 0.0
C663 C 0.07759 0.21806 0.49434 0.0
H664 H 0.90147 0.8538 0.63339 0.0
H665 H 0.86328 0.88918 0.73798 0.0
H666 H 0.85215 0.89129 0.55222 0.0
H667 H 0.85305 0.88269 0.35996 0.0
H668 H 0.89231 0.84833 0.25613 0.0
H669 H 0.90353 0.84647 0.44152 0.0
C670 C 0.89072 0.86196 0.61524 0.0
C671 C 0.88291 0.87102 0.69852 0.0
C672 C 0.8847 0.8634 0.50854 0.0
C673 C 0.86918 0.88176 0.67468 0.0
C674 C 0.86291 0.88308 0.56865 0.0
C675 C 0.86411 0.87488 0.37828 0.0
C676 C 0.87172 0.86552 0.29538 0.0
C677 C 0.87052 0.87389 0.48498 0.0
C678 C 0.88615 0.85554 0.31922 0.0
C679 C 0.89256 0.85445 0.42504 0.0
H680 H 0.19303 1.01387 0.7146 0.0
H681 H 0.24596 0.08919 0.68896 0.0
H682 H 0.24619 0.08589 0.49313 0.0
H683 H 0.23119 0.0617 0.3281 0.0
H684 H 0.17844 0.98633 0.35289 0.0
H685 H 0.17811 0.98958 0.54901 0.0
C686 C 0.20466 0.02951 0.66603 0.0
C687 C 0.21944 0.05175 0.71634 0.0
C688 C 0.20461 0.02752 0.55295 0.0
C689 C 0.23439 0.07186 0.6523 0.0
C690 C 0.2345 0.07002 0.54017 0.0
C691 C 0.21956 0.04603 0.37646 0.0
C692 C 0.20485 1.02381 0.32596 0.0
C693 C 0.21961 0.04798 0.48945 0.0
C694 C 0.18994 1.00364 0.3898 0.0
C695 C 0.18977 1.00547 0.50204 0.0
H696 H 0.6874 0.53322 0.64797 0.0
H697 H 0.76255 0.55657 0.66868 0.0
H698 H 0.75929 0.55202 0.86458 0.0
H699 H 0.73502 0.54151 0.03154 0.0
H700 H 0.65991 0.51836 0.00992 0.0
H701 H 0.66322 0.5228 0.8143 0.0
C702 C 0.70304 0.53724 0.69539 0.0
C703 C 0.7252 0.54524 0.64358 0.0
C704 C 0.70106 0.53471 0.80843 0.0
C705 C 0.74528 0.5504 0.70638 0.0
C706 C 0.74344 0.54783 0.8186 0.0
C707 C 0.71943 0.53754 -0.01607 0.0
C708 C 0.69725 0.52962 0.03553 0.0
C709 C 0.72144 0.54007 0.87077 0.0
C710 C 0.6772 0.52446 0.97248 0.0
C711 C 0.67906 0.52697 0.86037 0.0
H712 H 0.52117 0.21901 0.68912 0.0
H713 H 0.55506 0.17911 0.58805 0.0
H714 H 0.56609 0.17697 0.77351 0.0
H715 H 0.56568 0.18598 0.96489 0.0
H716 H 0.53264 0.2266 0.06652 0.0
H717 H 0.52155 0.22881 0.8808 0.0
C718 C 0.53099 0.20989 0.70805 0.0
C719 C 0.53723 0.19918 0.62569 0.0
C720 C 0.53731 0.20876 0.81488 0.0
C721 C 0.55003 0.18748 0.65051 0.0
C722 C 0.55633 0.18621 0.75645 0.0
C723 C 0.55606 0.1953 0.9461 0.0
C724 C 0.54976 0.20589 0.0287 0.0
C725 C 0.54998 0.1967 0.83929 0.0
C726 C 0.53743 0.21807 0.00389 0.0
C727 C 0.53116 0.21941 0.89784 0.0
H728 H 0.8948 0.39359 0.64867 0.0
H729 H 0.84917 0.3167 0.67405 0.0
H730 H 0.84786 0.3198 0.86994 0.0
H731 H 0.85988 0.34445 0.03556 0.0
H732 H 0.90572 0.42132 0.0092 0.0
H733 H 0.90687 0.41814 0.81362 0.0
C734 C 0.88453 0.37753 0.69711 0.0
C735 C 0.87211 0.35494 0.64664 0.0
C736 C 0.88397 0.37944 0.81011 0.0
C737 C 0.85891 0.33431 0.71073 0.0
C738 C 0.85817 0.33607 0.82294 0.0
C739 C 0.87015 0.36047 -0.01311 0.0
C740 C 0.88267 0.3831 0.03712 0.0
C741 C 0.8707 0.35853 0.87377 0.0
C742 C 0.89589 0.40368 0.9728 0.0
C743 C 0.89654 0.4019 0.86072 0.0
H744 H 0.36643 0.83674 0.31721 0.0
H745 H 0.37857 0.90662 0.40913 0.0
H746 H 0.38721 0.92017 0.22202 0.0
H747 H 0.39104 0.91199 0.03199 0.0
H748 H 0.37875 0.84205 0.9402 0.0
H749 H 0.37016 0.82853 0.12728 0.0
C750 C 0.37098 0.85492 0.29602 0.0
C751 C 0.37206 0.87073 0.37633 0.0
C752 C 0.37573 0.8625 0.18839 0.0
C753 C 0.37789 0.89422 0.34839 0.0
C754 C 0.38273 0.90194 0.24153 0.0
C755 C 0.38648 0.89381 0.05324 0.0
C756 C 0.38535 0.87797 0.97295 0.0
C757 C 0.38169 0.88623 0.16088 0.0
C758 C 0.37944 0.85446 0.00088 0.0
C759 C 0.37464 0.84676 0.10776 0.0
H760 H 0.18491 0.5531 0.04688 0.0
H761 H 0.224 0.51848 0.9444 0.0
H762 H 0.23531 0.51686 0.12989 0.0
H763 H 0.23349 0.52462 0.3216 0.0
H764 H 0.19541 0.56021 0.42468 0.0
H765 H 0.1841 0.56195 0.23887 0.0
C766 C 0.19594 0.54528 0.06552 0.0
C767 C 0.20353 0.53583 -0.01711 0.0
C768 C 0.2024 0.54443 0.17231 0.0
C769 C 0.2179 0.52581 0.0072 0.0
C770 C 0.22436 0.52485 0.11311 0.0
C771 C 0.22272 0.53274 0.3031 0.0
C772 C 0.21501 0.54198 0.38605 0.0
C773 C 0.21659 0.53396 0.19631 0.0
C774 C 0.20124 0.55265 0.36171 0.0
C775 C 0.19486 0.55376 0.25564 0.0
H776 H 0.52368 0.71831 0.33499 0.0
H777 H 0.57952 0.70246 0.4044 0.0
H778 H 0.58003 0.69146 0.21596 0.0
H779 H 0.56467 0.68677 0.03078 0.0
H780 H 0.50959 0.70364 0.96008 0.0
H781 H 0.50861 0.71403 0.14925 0.0
C782 C 0.53591 0.71245 0.30809 0.0
C783 C 0.55126 0.71071 0.38225 0.0
C784 C 0.53622 0.70646 0.19979 0.0
C785 C 0.5672 0.7033 0.34812 0.0
C786 C 0.56759 0.6972 0.24062 0.0
C787 C 0.55243 0.69263 0.05763 0.0
C788 C 0.53725 0.69458 -0.01675 0.0
C789 C 0.55214 0.69865 0.16586 0.0
C790 C 0.52152 0.70229 0.01697 0.0
C791 C 0.52094 0.70814 0.12475 0.0
loop_
_geom_bond_atom_site_label_1
_geom_bond_atom_site_label_2
_geom_bond_distance
_geom_bond_site_symmetry_2
_ccdc_geom_bond_type
Ho0 C3 2.811 1_554 S
Ho0 O20 2.322 . S
Ho0 O22 2.378 . S
Ho0 O23 2.524 1_554 S
Ho0 O24 2.381 . S
Ho0 O25 2.669 . S
Ho0 O27 2.346 . S
Ho0 O31 2.305 1_554 S
Ho1 C12 2.811 1_556 S
Ho1 O21 2.346 1_556 S
Ho1 O25 2.305 1_656 S
Ho1 O26 2.322 1_655 S
Ho1 O28 2.378 . S
Ho1 O29 2.524 1_556 S
Ho1 O30 2.381 . S
Ho1 O31 2.669 1_655 S
C2 O20 1.259 1_655 S
C2 O21 1.268 . S
C3 Ho0 2.811 1_556 S
C3 C4 1.488 . S
C3 O22 1.215 1_556 S
C3 O23 1.289 . S
C4 C3 1.488 . S
C4 C5 1.348 . S
C4 C9 1.413 1_556 S
C5 C4 1.348 . S
C5 C6 1.442 . S
C5 H32 0.930 . S
C6 C5 1.442 . S
C6 C7 1.381 . S
C6 H33 0.931 . S
C7 C6 1.381 . S
C7 C8 1.321 1_556 S
C8 C7 1.321 1_554 S
C8 C9 1.403 . S
C8 H34 0.934 . S
C9 C4 1.413 1_554 S
C9 C8 1.403 . S
C9 H35 0.930 . S
C10 O24 1.275 . S
C10 O25 1.256 . S
C11 O26 1.259 . S
C11 O27 1.268 1_556 S
C12 Ho1 2.811 1_554 S
C12 C13 1.488 . S
C12 O28 1.215 1_554 S
C12 O29 1.289 . S
C13 C12 1.488 . S
C13 C14 1.348 . S
C13 C18 1.413 1_554 S
C14 C13 1.348 . S
C14 C15 1.442 . S
C14 H36 0.930 . S
C15 C14 1.442 . S
C15 C16 1.381 . S
C15 H37 0.931 . S
C16 C15 1.381 . S
C16 C17 1.321 1_554 S
C17 C16 1.321 1_556 S
C17 C18 1.403 . S
C17 H38 0.934 . S
C18 C13 1.413 1_556 S
C18 C17 1.403 . S
C18 H39 0.930 . S
C19 O30 1.275 1_455 S
C19 O31 1.256 . S
O20 Ho0 2.322 . S
O20 C2 1.259 1_455 S
O21 Ho1 2.346 1_554 S
O21 C2 1.268 . S
O22 Ho0 2.378 . S
O22 C3 1.215 1_554 S
O23 Ho0 2.524 1_556 S
O23 C3 1.289 . S
O24 Ho0 2.381 . S
O24 C10 1.275 . S
O25 Ho0 2.669 . S
O25 Ho1 2.305 1_454 S
O25 C10 1.256 . S
O26 Ho1 2.322 1_455 S
O26 C11 1.259 . S
O27 Ho0 2.346 . S
O27 C11 1.268 1_554 S
O28 Ho1 2.378 . S
O28 C12 1.215 1_556 S
O29 Ho1 2.524 1_554 S
O29 C12 1.289 . S
O30 Ho1 2.381 . S
O30 C19 1.275 1_655 S
O31 Ho0 2.305 1_556 S
O31 Ho1 2.669 1_455 S
O31 C19 1.256 . S
H32 C5 0.930 . S
H33 C6 0.931 . S
H34 C8 0.934 . S
H35 C9 0.930 . S
H36 C14 0.930 . S
H37 C15 0.931 . S
H38 C17 0.934 . S
H39 C18 0.930 . S
Ho40 C43 2.811 1_554 S
Ho40 O60 2.322 . S
Ho40 O62 2.378 . S
Ho40 O63 2.524 1_554 S
Ho40 O64 2.381 . S
Ho40 O65 2.669 . S
Ho40 O67 2.346 . S
Ho40 O71 2.305 1_554 S
Ho41 C52 2.811 1_556 S
Ho41 O61 2.346 1_556 S
Ho41 O65 2.305 1_556 S
Ho41 O66 2.322 . S
Ho41 O68 2.378 . S
Ho41 O69 2.524 1_556 S
Ho41 O70 2.381 . S
Ho41 O71 2.669 . S
C42 O60 1.259 . S
C42 O61 1.268 . S
C43 Ho40 2.811 1_556 S
C43 C44 1.488 . S
C43 O62 1.215 1_556 S
C43 O63 1.289 . S
C44 C43 1.488 . S
C44 C45 1.348 . S
C44 C49 1.413 1_556 S
C45 C44 1.348 . S
C45 C46 1.442 . S
C45 H72 0.930 . S
C46 C45 1.442 . S
C46 C47 1.381 . S
C46 H73 0.931 . S
C47 C46 1.381 . S
C47 C48 1.321 1_556 S
C48 C47 1.321 1_554 S
C48 C49 1.403 . S
C48 H74 0.934 . S
C49 C44 1.413 1_554 S
C49 C48 1.403 . S
C49 H75 0.930 . S
C50 O64 1.275 . S
C50 O65 1.256 . S
C51 O66 1.259 . S
C51 O67 1.268 1_556 S
C52 Ho41 2.811 1_554 S
C52 C53 1.488 . S
C52 O68 1.215 1_554 S
C52 O69 1.289 . S
C53 C52 1.488 . S
C53 C54 1.348 . S
C53 C58 1.413 1_554 S
C54 C53 1.348 . S
C54 C55 1.442 . S
C54 H76 0.930 . S
C55 C54 1.442 . S
C55 C56 1.381 . S
C55 H77 0.931 . S
C56 C55 1.381 . S
C56 C57 1.321 1_554 S
C57 C56 1.321 1_556 S
C57 C58 1.403 . S
C57 H78 0.934 . S
C58 C53 1.413 1_556 S
C58 C57 1.403 . S
C58 H79 0.930 . S
C59 O70 1.275 . S
C59 O71 1.256 . S
O60 Ho40 2.322 . S
O60 C42 1.259 . S
O61 Ho41 2.346 1_554 S
O61 C42 1.268 . S
O62 Ho40 2.378 . S
O62 C43 1.215 1_554 S
O63 Ho40 2.524 1_556 S
O63 C43 1.289 . S
O64 Ho40 2.381 . S
O64 C50 1.275 . S
O65 Ho40 2.669 . S
O65 Ho41 2.305 1_554 S
O65 C50 1.256 . S
O66 Ho41 2.322 . S
O66 C51 1.259 . S
O67 Ho40 2.346 . S
O67 C51 1.268 1_554 S
O68 Ho41 2.378 . S
O68 C52 1.215 1_556 S
O69 Ho41 2.524 1_554 S
O69 C52 1.289 . S
O70 Ho41 2.381 . S
O70 C59 1.275 . S
O71 Ho40 2.305 1_556 S
O71 Ho41 2.669 . S
O71 C59 1.256 . S
H72 C45 0.930 . S
H73 C46 0.931 . S
H74 C48 0.934 . S
H75 C49 0.930 . S
H76 C54 0.930 . S
H77 C55 0.931 . S
H78 C57 0.934 . S
H79 C58 0.930 . S
Ho80 C83 2.811 1_554 S
Ho80 O100 2.322 1_565 S
Ho80 O102 2.378 . S
Ho80 O103 2.524 1_554 S
Ho80 O104 2.381 . S
Ho80 O105 2.669 1_565 S
Ho80 O107 2.346 . S
Ho80 O111 2.305 1_564 S
Ho81 C92 2.811 1_556 S
Ho81 O101 2.346 1_556 S
Ho81 O105 2.305 1_556 S
Ho81 O106 2.322 . S
Ho81 O108 2.378 . S
Ho81 O109 2.524 1_556 S
Ho81 O110 2.381 . S
Ho81 O111 2.669 . S
C82 O100 1.259 . S
C82 O101 1.268 . S
C83 Ho80 2.811 1_556 S
C83 C84 1.488 . S
C83 O102 1.215 1_556 S
C83 O103 1.289 . S
C84 C83 1.488 . S
C84 C85 1.348 . S
C84 C89 1.413 1_556 S
C85 C84 1.348 . S
C85 C86 1.442 . S
C85 H112 0.930 . S
C86 C85 1.442 . S
C86 C87 1.381 . S
C86 H113 0.931 . S
C87 C86 1.381 . S
C87 C88 1.321 1_556 S
C88 C87 1.321 1_554 S
C88 C89 1.403 . S
C88 H114 0.934 . S
C89 C84 1.413 1_554 S
C89 C88 1.403 . S
C89 H115 0.930 . S
C90 O104 1.275 1_545 S
C90 O105 1.256 . S
C91 O106 1.259 1_565 S
C91 O107 1.268 1_556 S
C92 Ho81 2.811 1_554 S
C92 C93 1.488 . S
C92 O108 1.215 1_554 S
C92 O109 1.289 . S
C93 C92 1.488 . S
C93 C94 1.348 . S
C93 C98 1.413 1_554 S
C94 C93 1.348 . S
C94 C95 1.442 . S
C94 H116 0.930 . S
C95 C94 1.442 . S
C95 C96 1.381 . S
C95 H117 0.931 . S
C96 C95 1.381 . S
C96 C97 1.321 1_554 S
C97 C96 1.321 1_556 S
C97 C98 1.403 . S
C97 H118 0.934 . S
C98 C93 1.413 1_556 S
C98 C97 1.403 . S
C98 H119 0.930 . S
C99 O110 1.275 . S
C99 O111 1.256 . S
O100 Ho80 2.322 1_545 S
O100 C82 1.259 . S
O101 Ho81 2.346 1_554 S
O101 C82 1.268 . S
O102 Ho80 2.378 . S
O102 C83 1.215 1_554 S
O103 Ho80 2.524 1_556 S
O103 C83 1.289 . S
O104 Ho80 2.381 . S
O104 C90 1.275 1_565 S
O105 Ho80 2.669 1_545 S
O105 Ho81 2.305 1_554 S
O105 C90 1.256 . S
O106 Ho81 2.322 . S
O106 C91 1.259 1_545 S
O107 Ho80 2.346 . S
O107 C91 1.268 1_554 S
O108 Ho81 2.378 . S
O108 C92 1.215 1_556 S
O109 Ho81 2.524 1_554 S
O109 C92 1.289 . S
O110 Ho81 2.381 . S
O110 C99 1.275 . S
O111 Ho80 2.305 1_546 S
O111 Ho81 2.669 . S
O111 C99 1.256 . S
H112 C85 0.930 . S
H113 C86 0.931 . S
H114 C88 0.934 . S
H115 C89 0.930 . S
H116 C94 0.930 . S
H117 C95 0.931 . S
H118 C97 0.934 . S
H119 C98 0.930 . S
Ho120 C123 2.811 . S
Ho120 O140 2.322 . S
Ho120 O142 2.378 . S
Ho120 O143 2.524 . S
Ho120 O144 2.381 . S
Ho120 O145 2.669 . S
Ho120 O147 2.346 . S
Ho120 O151 2.305 . S
Ho121 C132 2.811 . S
Ho121 O141 2.346 . S
Ho121 O145 2.305 . S
Ho121 O146 2.322 . S
Ho121 O148 2.378 . S
Ho121 O149 2.524 . S
Ho121 O150 2.381 . S
Ho121 O151 2.669 . S
C122 O140 1.259 . S
C122 O141 1.268 . S
C123 Ho120 2.811 . S
C123 C124 1.488 . S
C123 O142 1.215 . S
C123 O143 1.289 . S
C124 C123 1.488 . S
C124 C125 1.348 . S
C124 C129 1.413 . S
C125 C124 1.348 . S
C125 C126 1.442 . S
C125 H152 0.930 . S
C126 C125 1.442 . S
C126 C127 1.381 . S
C126 H153 0.931 . S
C127 C126 1.381 . S
C127 C128 1.321 . S
C128 C127 1.321 . S
C128 C129 1.403 . S
C128 H154 0.934 . S
C129 C124 1.413 . S
C129 C128 1.403 . S
C129 H155 0.930 . S
C130 O144 1.275 . S
C130 O145 1.256 . S
C131 O146 1.259 . S
C131 O147 1.268 . S
C132 Ho121 2.811 . S
C132 C133 1.488 . S
C132 O148 1.215 . S
C132 O149 1.289 . S
C133 C132 1.488 . S
C133 C134 1.348 . S
C133 C138 1.413 . S
C134 C133 1.348 . S
C134 C135 1.442 . S
C134 H156 0.930 . S
C135 C134 1.442 . S
C135 C136 1.381 . S
C135 H157 0.931 . S
C136 C135 1.381 . S
C136 C137 1.321 . S
C137 C136 1.321 . S
C137 C138 1.403 . S
C137 H158 0.934 . S
C138 C133 1.413 . S
C138 C137 1.403 . S
C138 H159 0.930 . S
C139 O150 1.275 . S
C139 O151 1.256 . S
O140 Ho120 2.322 . S
O140 C122 1.259 . S
O141 Ho121 2.346 . S
O141 C122 1.268 . S
O142 Ho120 2.378 . S
O142 C123 1.215 . S
O143 Ho120 2.524 . S
O143 C123 1.289 . S
O144 Ho120 2.381 . S
O144 C130 1.275 . S
O145 Ho120 2.669 . S
O145 Ho121 2.305 . S
O145 C130 1.256 . S
O146 Ho121 2.322 . S
O146 C131 1.259 . S
O147 Ho120 2.346 . S
O147 C131 1.268 . S
O148 Ho121 2.378 . S
O148 C132 1.215 . S
O149 Ho121 2.524 . S
O149 C132 1.289 . S
O150 Ho121 2.381 . S
O150 C139 1.275 . S
O151 Ho120 2.305 . S
O151 Ho121 2.669 . S
O151 C139 1.256 . S
H152 C125 0.930 . S
H153 C126 0.931 . S
H154 C128 0.934 . S
H155 C129 0.930 . S
H156 C134 0.930 . S
H157 C135 0.931 . S
H158 C137 0.934 . S
H159 C138 0.930 . S
Ho160 C163 2.811 . S
Ho160 O180 2.322 . S
Ho160 O182 2.378 . S
Ho160 O183 2.524 . S
Ho160 O184 2.381 . S
Ho160 O185 2.669 . S
Ho160 O187 2.346 . S
Ho160 O191 2.305 . S
Ho161 C172 2.811 . S
Ho161 O181 2.346 . S
Ho161 O185 2.305 . S
Ho161 O186 2.322 . S
Ho161 O188 2.378 . S
Ho161 O189 2.524 . S
Ho161 O190 2.381 . S
Ho161 O191 2.669 . S
C162 O180 1.259 . S
C162 O181 1.268 . S
C163 Ho160 2.811 . S
C163 C164 1.488 . S
C163 O182 1.215 . S
C163 O183 1.289 . S
C164 C163 1.488 . S
C164 C165 1.348 . S
C164 C169 1.413 . S
C165 C164 1.348 . S
C165 C166 1.442 . S
C165 H192 0.930 . S
C166 C165 1.442 . S
C166 C167 1.381 . S
C166 H193 0.931 . S
C167 C166 1.381 . S
C167 C168 1.321 . S
C168 C167 1.321 . S
C168 C169 1.403 . S
C168 H194 0.934 . S
C169 C164 1.413 . S
C169 C168 1.403 . S
C169 H195 0.930 . S
C170 O184 1.275 . S
C170 O185 1.256 . S
C171 O186 1.259 . S
C171 O187 1.268 . S
C172 Ho161 2.811 . S
C172 C173 1.488 . S
C172 O188 1.215 . S
C172 O189 1.289 . S
C173 C172 1.488 . S
C173 C174 1.348 . S
C173 C178 1.413 . S
C174 C173 1.348 . S
C174 C175 1.442 . S
C174 H196 0.930 . S
C175 C174 1.442 . S
C175 C176 1.381 . S
C175 H197 0.931 . S
C176 C175 1.381 . S
C176 C177 1.321 . S
C177 C176 1.321 . S
C177 C178 1.403 . S
C177 H198 0.934 . S
C178 C173 1.413 . S
C178 C177 1.403 . S
C178 H199 0.930 . S
C179 O190 1.275 . S
C179 O191 1.256 . S
O180 Ho160 2.322 . S
O180 C162 1.259 . S
O181 Ho161 2.346 . S
O181 C162 1.268 . S
O182 Ho160 2.378 . S
O182 C163 1.215 . S
O183 Ho160 2.524 . S
O183 C163 1.289 . S
O184 Ho160 2.381 . S
O184 C170 1.275 . S
O185 Ho160 2.669 . S
O185 Ho161 2.305 . S
O185 C170 1.256 . S
O186 Ho161 2.322 . S
O186 C171 1.259 . S
O187 Ho160 2.346 . S
O187 C171 1.268 . S
O188 Ho161 2.378 . S
O188 C172 1.215 . S
O189 Ho161 2.524 . S
O189 C172 1.289 . S
O190 Ho161 2.381 . S
O190 C179 1.275 . S
O191 Ho160 2.305 . S
O191 Ho161 2.669 . S
O191 C179 1.256 . S
H192 C165 0.930 . S
H193 C166 0.931 . S
H194 C168 0.934 . S
H195 C169 0.930 . S
H196 C174 0.930 . S
H197 C175 0.931 . S
H198 C177 0.934 . S
H199 C178 0.930 . S
Ho200 C203 2.811 . S
Ho200 O220 2.322 . S
Ho200 O222 2.378 . S
Ho200 O223 2.524 . S
Ho200 O224 2.381 . S
Ho200 O225 2.669 . S
Ho200 O227 2.346 . S
Ho200 O231 2.305 . S
Ho201 C212 2.811 . S
Ho201 O221 2.346 . S
Ho201 O225 2.305 . S
Ho201 O226 2.322 . S
Ho201 O228 2.378 . S
Ho201 O229 2.524 . S
Ho201 O230 2.381 . S
Ho201 O231 2.669 . S
C202 O220 1.259 . S
C202 O221 1.268 . S
C203 Ho200 2.811 . S
C203 C204 1.488 . S
C203 O222 1.215 . S
C203 O223 1.289 . S
C204 C203 1.488 . S
C204 C205 1.348 . S
C204 C209 1.413 . S
C205 C204 1.348 . S
C205 C206 1.442 . S
C205 H232 0.930 . S
C206 C205 1.442 . S
C206 C207 1.381 . S
C206 H233 0.931 . S
C207 C206 1.381 . S
C207 C208 1.321 . S
C208 C207 1.321 . S
C208 C209 1.403 . S
C208 H234 0.934 . S
C209 C204 1.413 . S
C209 C208 1.403 . S
C209 H235 0.930 . S
C210 O224 1.275 . S
C210 O225 1.256 . S
C211 O226 1.259 . S
C211 O227 1.268 . S
C212 Ho201 2.811 . S
C212 C213 1.488 . S
C212 O228 1.215 . S
C212 O229 1.289 . S
C213 C212 1.488 . S
C213 C214 1.348 . S
C213 C218 1.413 . S
C214 C213 1.348 . S
C214 C215 1.442 . S
C214 H236 0.930 . S
C215 C214 1.442 . S
C215 C216 1.381 . S
C215 H237 0.931 . S
C216 C215 1.381 . S
C216 C217 1.321 . S
C217 C216 1.321 . S
C217 C218 1.403 . S
C217 H238 0.934 . S
C218 C213 1.413 . S
C218 C217 1.403 . S
C218 H239 0.930 . S
C219 O230 1.275 . S
C219 O231 1.256 . S
O220 Ho200 2.322 . S
O220 C202 1.259 . S
O221 Ho201 2.346 . S
O221 C202 1.268 . S
O222 Ho200 2.378 . S
O222 C203 1.215 . S
O223 Ho200 2.524 . S
O223 C203 1.289 . S
O224 Ho200 2.381 . S
O224 C210 1.275 . S
O225 Ho200 2.669 . S
O225 Ho201 2.305 . S
O225 C210 1.256 . S
O226 Ho201 2.322 . S
O226 C211 1.259 . S
O227 Ho200 2.346 . S
O227 C211 1.268 . S
O228 Ho201 2.378 . S
O228 C212 1.215 . S
O229 Ho201 2.524 . S
O229 C212 1.289 . S
O230 Ho201 2.381 . S
O230 C219 1.275 . S
O231 Ho200 2.305 . S
O231 Ho201 2.669 . S
O231 C219 1.256 . S
H232 C205 0.930 . S
H233 C206 0.931 . S
H234 C208 0.934 . S
H235 C209 0.930 . S
H236 C214 0.930 . S
H237 C215 0.931 . S
H238 C217 0.934 . S
H239 C218 0.930 . S
Ho240 C243 2.811 . S
Ho240 O260 2.322 . S
Ho240 O262 2.378 . S
Ho240 O263 2.524 . S
Ho240 O264 2.381 . S
Ho240 O265 2.669 . S
Ho240 O267 2.346 . S
Ho240 O271 2.305 . S
Ho241 C252 2.811 . S
Ho241 O261 2.346 . S
Ho241 O265 2.305 . S
Ho241 O266 2.322 . S
Ho241 O268 2.378 . S
Ho241 O269 2.524 . S
Ho241 O270 2.381 . S
Ho241 O271 2.669 . S
C242 O260 1.259 . S
C242 O261 1.268 . S
C243 Ho240 2.811 . S
C243 C244 1.488 . S
C243 O262 1.215 . S
C243 O263 1.289 . S
C244 C243 1.488 . S
C244 C245 1.348 . S
C244 C249 1.413 . S
C245 C244 1.348 . S
C245 C246 1.442 . S
C245 H272 0.930 . S
C246 C245 1.442 . S
C246 C247 1.381 . S
C246 H273 0.931 . S
C247 C246 1.381 . S
C247 C248 1.321 . S
C248 C247 1.321 . S
C248 C249 1.403 . S
C248 H274 0.934 . S
C249 C244 1.413 . S
C249 C248 1.403 . S
C249 H275 0.930 . S
C250 O264 1.275 . S
C250 O265 1.256 . S
C251 O266 1.259 . S
C251 O267 1.268 . S
C252 Ho241 2.811 . S
C252 C253 1.488 . S
C252 O268 1.215 . S
C252 O269 1.289 . S
C253 C252 1.488 . S
C253 C254 1.348 . S
C253 C258 1.413 . S
C254 C253 1.348 . S
C254 C255 1.442 . S
C254 H276 0.930 . S
C255 C254 1.442 . S
C255 C256 1.381 . S
C255 H277 0.931 . S
C256 C255 1.381 . S
C256 C257 1.321 . S
C257 C256 1.321 . S
C257 C258 1.403 . S
C257 H278 0.934 . S
C258 C253 1.413 . S
C258 C257 1.403 . S
C258 H279 0.930 . S
C259 O270 1.275 . S
C259 O271 1.256 . S
O260 Ho240 2.322 . S
O260 C242 1.259 . S
O261 Ho241 2.346 . S
O261 C242 1.268 . S
O262 Ho240 2.378 . S
O262 C243 1.215 . S
O263 Ho240 2.524 . S
O263 C243 1.289 . S
O264 Ho240 2.381 . S
O264 C250 1.275 . S
O265 Ho240 2.669 . S
O265 Ho241 2.305 . S
O265 C250 1.256 . S
O266 Ho241 2.322 . S
O266 C251 1.259 . S
O267 Ho240 2.346 . S
O267 C251 1.268 . S
O268 Ho241 2.378 . S
O268 C252 1.215 . S
O269 Ho241 2.524 . S
O269 C252 1.289 . S
O270 Ho241 2.381 . S
O270 C259 1.275 . S
O271 Ho240 2.305 . S
O271 Ho241 2.669 . S
O271 C259 1.256 . S
H272 C245 0.930 . S
H273 C246 0.931 . S
H274 C248 0.934 . S
H275 C249 0.930 . S
H276 C254 0.930 . S
H277 C255 0.931 . S
H278 C257 0.934 . S
H279 C258 0.930 . S
Ho280 C283 2.811 . S
Ho280 O300 2.322 . S
Ho280 O302 2.378 . S
Ho280 O303 2.524 . S
Ho280 O304 2.381 . S
Ho280 O305 2.669 . S
Ho280 O307 2.346 . S
Ho280 O311 2.305 . S
Ho281 C292 2.811 . S
Ho281 O301 2.346 . S
Ho281 O305 2.305 . S
Ho281 O306 2.322 . S
Ho281 O308 2.378 . S
Ho281 O309 2.524 . S
Ho281 O310 2.381 . S
Ho281 O311 2.669 . S
C282 O300 1.259 . S
C282 O301 1.268 . S
C283 Ho280 2.811 . S
C283 C284 1.488 . S
C283 O302 1.215 . S
C283 O303 1.289 . S
C284 C283 1.488 . S
C284 C285 1.348 . S
C284 C289 1.413 . S
C285 C284 1.348 . S
C285 C286 1.442 . S
C285 H312 0.930 . S
C286 C285 1.442 . S
C286 C287 1.381 . S
C286 H313 0.931 . S
C287 C286 1.381 . S
C287 C288 1.321 . S
C288 C287 1.321 . S
C288 C289 1.403 . S
C288 H314 0.934 . S
C289 C284 1.413 . S
C289 C288 1.403 . S
C289 H315 0.930 . S
C290 O304 1.275 . S
C290 O305 1.256 . S
C291 O306 1.259 . S
C291 O307 1.268 . S
C292 Ho281 2.811 . S
C292 C293 1.488 . S
C292 O308 1.215 . S
C292 O309 1.289 . S
C293 C292 1.488 . S
C293 C294 1.348 . S
C293 C298 1.413 . S
C294 C293 1.348 . S
C294 C295 1.442 . S
C294 H316 0.930 . S
C295 C294 1.442 . S
C295 C296 1.381 . S
C295 H317 0.931 . S
C296 C295 1.381 . S
C296 C297 1.321 . S
C297 C296 1.321 . S
C297 C298 1.403 . S
C297 H318 0.934 . S
C298 C293 1.413 . S
C298 C297 1.403 . S
C298 H319 0.930 . S
C299 O310 1.275 . S
C299 O311 1.256 . S
O300 Ho280 2.322 . S
O300 C282 1.259 . S
O301 Ho281 2.346 . S
O301 C282 1.268 . S
O302 Ho280 2.378 . S
O302 C283 1.215 . S
O303 Ho280 2.524 . S
O303 C283 1.289 . S
O304 Ho280 2.381 . S
O304 C290 1.275 . S
O305 Ho280 2.669 . S
O305 Ho281 2.305 . S
O305 C290 1.256 . S
O306 Ho281 2.322 . S
O306 C291 1.259 . S
O307 Ho280 2.346 . S
O307 C291 1.268 . S
O308 Ho281 2.378 . S
O308 C292 1.215 . S
O309 Ho281 2.524 . S
O309 C292 1.289 . S
O310 Ho281 2.381 . S
O310 C299 1.275 . S
O311 Ho280 2.305 . S
O311 Ho281 2.669 . S
O311 C299 1.256 . S
H312 C285 0.930 . S
H313 C286 0.931 . S
H314 C288 0.934 . S
H315 C289 0.930 . S
H316 C294 0.930 . S
H317 C295 0.931 . S
H318 C297 0.934 . S
H319 C298 0.930 . S
Ho320 C323 2.811 . S
Ho320 O340 2.322 . S
Ho320 O342 2.378 . S
Ho320 O343 2.524 . S
Ho320 O344 2.381 . S
Ho320 O345 2.669 . S
Ho320 O347 2.346 . S
Ho320 O351 2.305 . S
Ho321 C332 2.811 . S
Ho321 O341 2.346 . S
Ho321 O345 2.305 . S
Ho321 O346 2.322 . S
Ho321 O348 2.378 . S
Ho321 O349 2.524 . S
Ho321 O350 2.381 . S
Ho321 O351 2.669 . S
C322 O340 1.259 . S
C322 O341 1.268 . S
C323 Ho320 2.811 . S
C323 C324 1.488 . S
C323 O342 1.215 . S
C323 O343 1.289 . S
C324 C323 1.488 . S
C324 C325 1.348 . S
C324 C329 1.413 . S
C325 C324 1.348 . S
C325 C326 1.442 . S
C325 H352 0.930 . S
C326 C325 1.442 . S
C326 C327 1.381 . S
C326 H353 0.931 . S
C327 C326 1.381 . S
C327 C328 1.321 . S
C328 C327 1.321 . S
C328 C329 1.403 . S
C328 H354 0.934 . S
C329 C324 1.413 . S
C329 C328 1.403 . S
C329 H355 0.930 . S
C330 O344 1.275 . S
C330 O345 1.256 . S
C331 O346 1.259 . S
C331 O347 1.268 . S
C332 Ho321 2.811 . S
C332 C333 1.488 . S
C332 O348 1.215 . S
C332 O349 1.289 . S
C333 C332 1.488 . S
C333 C334 1.348 . S
C333 C338 1.413 . S
C334 C333 1.348 . S
C334 C335 1.442 . S
C334 H356 0.930 . S
C335 C334 1.442 . S
C335 C336 1.381 . S
C335 H357 0.931 . S
C336 C335 1.381 . S
C336 C337 1.321 . S
C337 C336 1.321 . S
C337 C338 1.403 . S
C337 H358 0.934 . S
C338 C333 1.413 . S
C338 C337 1.403 . S
C338 H359 0.930 . S
C339 O350 1.275 . S
C339 O351 1.256 . S
O340 Ho320 2.322 . S
O340 C322 1.259 . S
O341 Ho321 2.346 . S
O341 C322 1.268 . S
O342 Ho320 2.378 . S
O342 C323 1.215 . S
O343 Ho320 2.524 . S
O343 C323 1.289 . S
O344 Ho320 2.381 . S
O344 C330 1.275 . S
O345 Ho320 2.669 . S
O345 Ho321 2.305 . S
O345 C330 1.256 . S
O346 Ho321 2.322 . S
O346 C331 1.259 . S
O347 Ho320 2.346 . S
O347 C331 1.268 . S
O348 Ho321 2.378 . S
O348 C332 1.215 . S
O349 Ho321 2.524 . S
O349 C332 1.289 . S
O350 Ho321 2.381 . S
O350 C339 1.275 . S
O351 Ho320 2.305 . S
O351 Ho321 2.669 . S
O351 C339 1.256 . S
H352 C325 0.930 . S
H353 C326 0.931 . S
H354 C328 0.934 . S
H355 C329 0.930 . S
H356 C334 0.930 . S
H357 C335 0.931 . S
H358 C337 0.934 . S
H359 C338 0.930 . S
H360 C366 0.930 . S
H361 C369 0.930 . S
H362 C370 0.930 . S
H363 C371 0.930 . S
H364 C374 0.930 . S
H365 C375 0.930 . S
C366 H360 0.930 . S
C366 C367 1.355 . S
C366 C368 1.415 . S
C367 C366 1.355 . S
C367 C369 1.419 . S
C368 C366 1.415 . S
C368 C373 1.425 . S
C368 C375 1.409 . S
C369 H361 0.930 . S
C369 C367 1.419 . S
C369 C370 1.362 . S
C370 H362 0.930 . S
C370 C369 1.362 . S
C370 C373 1.409 . S
C371 H363 0.930 . S
C371 C372 1.355 . S
C371 C373 1.415 . S
C372 C371 1.355 . S
C372 C374 1.419 . S
C373 C368 1.425 . S
C373 C370 1.409 . S
C373 C371 1.415 . S
C374 H364 0.930 . S
C374 C372 1.419 . S
C374 C375 1.362 . S
C375 H365 0.930 . S
C375 C368 1.409 . S
C375 C374 1.362 . S
H376 C382 0.930 1_554 S
H377 C385 0.930 . S
H378 C386 0.930 . S
H379 C387 0.930 . S
H380 C390 0.930 . S
H381 C391 0.930 . S
C382 H376 0.930 1_556 S
C382 C383 1.355 . S
C382 C384 1.415 . S
C383 C382 1.355 . S
C383 C385 1.419 . S
C384 C382 1.415 . S
C384 C389 1.425 . S
C384 C391 1.409 . S
C385 H377 0.930 . S
C385 C383 1.419 . S
C385 C386 1.362 . S
C386 H378 0.930 . S
C386 C385 1.362 . S
C386 C389 1.409 . S
C387 H379 0.930 . S
C387 C388 1.355 . S
C387 C389 1.415 . S
C388 C387 1.355 . S
C388 C390 1.419 . S
C389 C384 1.425 . S
C389 C386 1.409 . S
C389 C387 1.415 . S
C390 H380 0.930 . S
C390 C388 1.419 . S
C390 C391 1.362 . S
C391 H381 0.930 . S
C391 C384 1.409 . S
C391 C390 1.362 . S
H392 C398 0.930 . S
H393 C401 0.930 . S
H394 C402 0.930 . S
H395 C403 0.930 . S
H396 C406 0.930 . S
H397 C407 0.930 . S
C398 H392 0.930 . S
C398 C399 1.355 . S
C398 C400 1.415 . S
C399 C398 1.355 . S
C399 C401 1.419 . S
C400 C398 1.415 . S
C400 C405 1.425 . S
C400 C407 1.409 . S
C401 H393 0.930 . S
C401 C399 1.419 . S
C401 C402 1.362 . S
C402 H394 0.930 . S
C402 C401 1.362 . S
C402 C405 1.409 . S
C403 H395 0.930 . S
C403 C404 1.355 . S
C403 C405 1.415 . S
C404 C403 1.355 . S
C404 C406 1.419 . S
C405 C400 1.425 . S
C405 C402 1.409 . S
C405 C403 1.415 . S
C406 H396 0.930 . S
C406 C404 1.419 . S
C406 C407 1.362 . S
C407 H397 0.930 . S
C407 C400 1.409 . S
C407 C406 1.362 . S
H408 C414 0.930 . S
H409 C417 0.930 . S
H410 C418 0.930 . S
H411 C419 0.930 . S
H412 C422 0.930 . S
H413 C423 0.930 1_556 S
C414 H408 0.930 . S
C414 C415 1.355 . S
C414 C416 1.415 . S
C415 C414 1.355 . S
C415 C417 1.419 . S
C416 C414 1.415 . S
C416 C421 1.425 . S
C416 C423 1.409 . S
C417 H409 0.930 . S
C417 C415 1.419 . S
C417 C418 1.362 . S
C418 H410 0.930 . S
C418 C417 1.362 . S
C418 C421 1.409 . S
C419 H411 0.930 . S
C419 C420 1.355 . S
C419 C421 1.415 . S
C420 C419 1.355 . S
C420 C422 1.419 1_554 S
C421 C416 1.425 . S
C421 C418 1.409 . S
C421 C419 1.415 . S
C422 H412 0.930 . S
C422 C420 1.419 1_556 S
C422 C423 1.362 1_556 S
C423 H413 0.930 1_554 S
C423 C416 1.409 . S
C423 C422 1.362 1_554 S
H424 C430 0.930 . S
H425 C433 0.930 . S
H426 C434 0.930 1_556 S
H427 C435 0.930 1_556 S
H428 C438 0.938 . S
H429 C439 0.930 . S
C430 H424 0.930 . S
C430 C431 1.355 . S
C430 C432 1.415 . S
C431 C430 1.355 . S
C431 C433 1.419 . S
C432 C430 1.415 . S
C432 C437 1.425 . S
C432 C439 1.409 . S
C433 H425 0.930 . S
C433 C431 1.419 . S
C433 C434 1.362 . S
C434 H426 0.930 1_554 S
C434 C433 1.362 . S
C434 C437 1.409 . S
C435 H427 0.930 1_554 S
C435 C436 1.355 . S
C435 C437 1.415 . S
C436 C435 1.355 . S
C436 C438 1.419 . S
C437 C432 1.425 . S
C437 C434 1.409 . S
C437 C435 1.415 . S
C438 H428 0.938 . S
C438 C436 1.419 . S
C438 C439 1.362 . S
C439 H429 0.930 . S
C439 C432 1.409 . S
C439 C438 1.362 . S
H440 C446 0.930 . S
H441 C449 0.930 . S
H442 C450 0.930 1_556 S
H443 C451 0.930 . S
H444 C454 0.930 . S
H445 C455 0.930 . S
C446 H440 0.930 . S
C446 C447 1.355 . S
C446 C448 1.415 . S
C447 C446 1.355 . S
C447 C449 1.419 1_554 S
C448 C446 1.415 . S
C448 C453 1.425 . S
C448 C455 1.409 . S
C449 H441 0.930 . S
C449 C447 1.419 1_556 S
C449 C450 1.362 1_556 S
C450 H442 0.930 1_554 S
C450 C449 1.362 1_554 S
C450 C453 1.409 . S
C451 H443 0.930 . S
C451 C452 1.355 . S
C451 C453 1.415 . S
C452 C451 1.355 . S
C452 C454 1.419 . S
C453 C448 1.425 . S
C453 C450 1.409 . S
C453 C451 1.415 . S
C454 H444 0.930 . S
C454 C452 1.419 . S
C454 C455 1.362 . S
C455 H445 0.930 . S
C455 C448 1.409 . S
C455 C454 1.362 . S
H456 C462 0.930 . S
H457 C465 0.930 . S
H458 C466 0.930 . S
H459 C467 0.930 . S
H460 C470 0.930 . S
H461 C471 0.930 . S
C462 H456 0.930 . S
C462 C463 1.355 . S
C462 C464 1.415 . S
C463 C462 1.355 . S
C463 C465 1.419 . S
C464 C462 1.415 . S
C464 C469 1.425 . S
C464 C471 1.409 . S
C465 H457 0.930 . S
C465 C463 1.419 . S
C465 C466 1.362 . S
C466 H458 0.930 . S
C466 C465 1.362 . S
C466 C469 1.409 . S
C467 H459 0.930 . S
C467 C468 1.355 . S
C467 C469 1.415 . S
C468 C467 1.355 . S
C468 C470 1.419 . S
C469 C464 1.425 . S
C469 C466 1.409 . S
C469 C467 1.415 . S
C470 H460 0.930 . S
C470 C468 1.419 . S
C470 C471 1.362 . S
C471 H461 0.930 . S
C471 C464 1.409 . S
C471 C470 1.362 . S
H472 C478 0.930 . S
H473 C481 0.930 . S
H474 C482 0.930 . S
H475 C483 0.930 . S
H476 C486 0.930 . S
H477 C487 0.930 . S
C478 H472 0.930 . S
C478 C479 1.355 . S
C478 C480 1.415 . S
C479 C478 1.355 . S
C479 C481 1.419 . S
C480 C478 1.415 . S
C480 C485 1.425 . S
C480 C487 1.409 . S
C481 H473 0.930 . S
C481 C479 1.419 . S
C481 C482 1.362 . S
C482 H474 0.930 . S
C482 C481 1.362 . S
C482 C485 1.409 . S
C483 H475 0.930 . S
C483 C484 1.355 . S
C483 C485 1.415 . S
C484 C483 1.355 . S
C484 C486 1.419 . S
C485 C480 1.425 . S
C485 C482 1.409 . S
C485 C483 1.415 . S
C486 H476 0.930 . S
C486 C484 1.419 . S
C486 C487 1.362 . S
C487 H477 0.930 . S
C487 C480 1.409 . S
C487 C486 1.362 . S
H488 C494 0.930 . S
H489 C497 0.930 . S
H490 C498 0.930 . S
H491 C499 0.930 . S
H492 C502 0.930 . S
H493 C503 0.930 . S
C494 H488 0.930 . S
C494 C495 1.355 . S
C494 C496 1.415 . S
C495 C494 1.355 . S
C495 C497 1.419 . S
C496 C494 1.415 . S
C496 C501 1.425 . S
C496 C503 1.409 . S
C497 H489 0.930 . S
C497 C495 1.419 . S
C497 C498 1.362 . S
C498 H490 0.930 . S
C498 C497 1.362 . S
C498 C501 1.409 . S
C499 H491 0.930 . S
C499 C500 1.355 . S
C499 C501 1.415 . S
C500 C499 1.355 . S
C500 C502 1.419 . S
C501 C496 1.425 . S
C501 C498 1.409 . S
C501 C499 1.415 . S
C502 H492 0.930 . S
C502 C500 1.419 . S
C502 C503 1.362 . S
C503 H493 0.930 . S
C503 C496 1.409 . S
C503 C502 1.362 . S
H504 C510 0.930 . S
H505 C513 0.930 . S
H506 C514 0.930 . S
H507 C515 0.930 1_556 S
H508 C518 0.930 . S
H509 C519 0.930 . S
C510 H504 0.930 . S
C510 C511 1.355 . S
C510 C512 1.415 . S
C511 C510 1.355 . S
C511 C513 1.419 . S
C512 C510 1.415 . S
C512 C517 1.425 . S
C512 C519 1.409 . S
C513 H505 0.930 . S
C513 C511 1.419 . S
C513 C514 1.362 . S
C514 H506 0.930 . S
C514 C513 1.362 . S
C514 C517 1.409 . S
C515 H507 0.930 1_554 S
C515 C516 1.355 . S
C515 C517 1.415 . S
C516 C515 1.355 . S
C516 C518 1.419 . S
C517 C512 1.425 . S
C517 C514 1.409 . S
C517 C515 1.415 . S
C518 H508 0.930 . S
C518 C516 1.419 . S
C518 C519 1.362 . S
C519 H509 0.930 . S
C519 C512 1.409 . S
C519 C518 1.362 . S
H520 C526 0.930 . S
H521 C529 0.930 . S
H522 C530 0.930 . S
H523 C531 0.930 . S
H524 C534 0.930 1_545 S
H525 C535 0.930 . S
C526 H520 0.930 . S
C526 C527 1.355 . S
C526 C528 1.415 . S
C527 C526 1.355 . S
C527 C529 1.419 1_554 S
C528 C526 1.415 . S
C528 C533 1.421 1_554 S
C528 C535 1.409 . S
C529 H521 0.930 . S
C529 C527 1.419 1_556 S
C529 C530 1.362 . S
C530 H522 0.930 . S
C530 C529 1.362 . S
C530 C533 1.413 . S
C531 H523 0.930 . S
C531 C532 1.355 1_566 S
C531 C533 1.415 . S
C532 C531 1.355 1_544 S
C532 C534 1.419 1_545 S
C533 C528 1.421 1_556 S
C533 C530 1.413 . S
C533 C531 1.415 . S
C534 H524 0.930 1_565 S
C534 C532 1.419 1_565 S
C534 C535 1.362 . S
C535 H525 0.930 . S
C535 C528 1.409 . S
C535 C534 1.362 . S
H536 C542 0.930 . S
H537 C545 0.930 . S
H538 C546 0.930 . S
H539 C547 0.930 . S
H540 C550 0.930 1_545 S
H541 C551 0.930 1_545 S
C542 H536 0.930 . S
C542 C543 1.355 . S
C542 C544 1.415 . S
C543 C542 1.355 . S
C543 C545 1.419 . S
C544 C542 1.415 . S
C544 C549 1.425 . S
C544 C551 1.409 . S
C545 H537 0.930 . S
C545 C543 1.419 . S
C545 C546 1.362 . S
C546 H538 0.930 . S
C546 C545 1.362 . S
C546 C549 1.409 . S
C547 H539 0.930 . S
C547 C548 1.355 . S
C547 C549 1.415 . S
C548 C547 1.355 . S
C548 C550 1.419 . S
C549 C544 1.425 . S
C549 C546 1.409 . S
C549 C547 1.415 . S
C550 H540 0.930 1_565 S
C550 C548 1.419 . S
C550 C551 1.362 . S
C551 H541 0.930 1_565 S
C551 C544 1.409 . S
C551 C550 1.362 . S
H552 C558 0.930 . S
H553 C561 0.930 . S
H554 C562 0.930 . S
H555 C563 0.930 . S
H556 C566 0.930 . S
H557 C567 0.930 . S
C558 H552 0.930 . S
C558 C559 1.355 . S
C558 C560 1.415 . S
C559 C558 1.355 . S
C559 C561 1.419 . S
C560 C558 1.415 . S
C560 C565 1.425 . S
C560 C567 1.409 . S
C561 H553 0.930 . S
C561 C559 1.419 . S
C561 C562 1.362 . S
C562 H554 0.930 . S
C562 C561 1.362 . S
C562 C565 1.409 . S
C563 H555 0.930 . S
C563 C564 1.355 . S
C563 C565 1.415 . S
C564 C563 1.355 . S
C564 C566 1.419 . S
C565 C560 1.425 . S
C565 C562 1.409 . S
C565 C563 1.415 . S
C566 H556 0.930 . S
C566 C564 1.419 . S
C566 C567 1.362 . S
C567 H557 0.930 . S
C567 C560 1.409 . S
C567 C566 1.362 . S
H568 C574 0.930 . S
H569 C577 0.930 . S
H570 C578 0.930 . S
H571 C579 0.930 . S
H572 C582 0.930 . S
H573 C583 0.930 . S
C574 H568 0.930 . S
C574 C575 1.355 . S
C574 C576 1.415 . S
C575 C574 1.355 . S
C575 C577 1.419 . S
C576 C574 1.415 . S
C576 C581 1.425 . S
C576 C583 1.409 . S
C577 H569 0.930 . S
C577 C575 1.419 . S
C577 C578 1.362 . S
C578 H570 0.930 . S
C578 C577 1.362 . S
C578 C581 1.409 . S
C579 H571 0.930 . S
C579 C580 1.355 . S
C579 C581 1.415 . S
C580 C579 1.355 . S
C580 C582 1.419 . S
C581 C576 1.425 . S
C581 C578 1.409 . S
C581 C579 1.415 . S
C582 H572 0.930 . S
C582 C580 1.419 . S
C582 C583 1.362 . S
C583 H573 0.930 . S
C583 C576 1.409 . S
C583 C582 1.362 . S
H584 C590 0.930 . S
H585 C593 0.930 . S
H586 C594 0.930 . S
H587 C595 0.930 . S
H588 C598 0.930 . S
H589 C599 0.930 . S
C590 H584 0.930 . S
C590 C591 1.355 . S
C590 C592 1.415 . S
C591 C590 1.355 . S
C591 C593 1.419 . S
C592 C590 1.415 . S
C592 C597 1.425 . S
C592 C599 1.409 . S
C593 H585 0.930 . S
C593 C591 1.419 . S
C593 C594 1.362 . S
C594 H586 0.930 . S
C594 C593 1.362 . S
C594 C597 1.409 . S
C595 H587 0.930 . S
C595 C596 1.355 . S
C595 C597 1.415 . S
C596 C595 1.355 . S
C596 C598 1.419 . S
C597 C592 1.425 . S
C597 C594 1.409 . S
C597 C595 1.415 . S
C598 H588 0.930 . S
C598 C596 1.419 . S
C598 C599 1.362 . S
C599 H589 0.930 . S
C599 C592 1.409 . S
C599 C598 1.362 . S
H600 C606 0.930 . S
H601 C609 0.930 . S
H602 C610 0.930 . S
H603 C611 0.930 . S
H604 C614 0.930 . S
H605 C615 0.930 . S
C606 H600 0.930 . S
C606 C607 1.355 . S
C606 C608 1.415 . S
C607 C606 1.355 . S
C607 C609 1.419 . S
C608 C606 1.415 . S
C608 C613 1.425 . S
C608 C615 1.409 . S
C609 H601 0.930 . S
C609 C607 1.419 . S
C609 C610 1.362 . S
C610 H602 0.930 . S
C610 C609 1.362 . S
C610 C613 1.409 . S
C611 H603 0.930 . S
C611 C612 1.355 . S
C611 C613 1.415 . S
C612 C611 1.355 . S
C612 C614 1.419 . S
C613 C608 1.425 . S
C613 C610 1.409 . S
C613 C611 1.415 . S
C614 H604 0.930 . S
C614 C612 1.419 . S
C614 C615 1.362 . S
C615 H605 0.930 . S
C615 C608 1.409 . S
C615 C614 1.362 . S
H616 C622 0.930 . S
H617 C625 0.930 . S
H618 C626 0.930 . S
H619 C627 0.930 . S
H620 C630 0.930 . S
H621 C631 0.930 . S
C622 H616 0.930 . S
C622 C623 1.355 . S
C622 C624 1.415 . S
C623 C622 1.355 . S
C623 C625 1.419 . S
C624 C622 1.415 . S
C624 C629 1.425 . S
C624 C631 1.409 . S
C625 H617 0.930 . S
C625 C623 1.419 . S
C625 C626 1.362 . S
C626 H618 0.930 . S
C626 C625 1.362 . S
C626 C629 1.409 . S
C627 H619 0.930 . S
C627 C628 1.355 . S
C627 C629 1.415 . S
C628 C627 1.355 . S
C628 C630 1.419 . S
C629 C624 1.425 . S
C629 C626 1.409 . S
C629 C627 1.415 . S
C630 H620 0.930 . S
C630 C628 1.419 . S
C630 C631 1.362 . S
C631 H621 0.930 . S
C631 C624 1.409 . S
C631 C630 1.362 . S
H632 C638 0.930 . S
H633 C641 0.930 . S
H634 C642 0.930 . S
H635 C643 0.930 . S
H636 C646 0.930 . S
H637 C647 0.930 . S
C638 H632 0.930 . S
C638 C639 1.355 . S
C638 C640 1.415 . S
C639 C638 1.355 . S
C639 C641 1.419 . S
C640 C638 1.415 . S
C640 C645 1.425 . S
C640 C647 1.409 . S
C641 H633 0.930 . S
C641 C639 1.419 . S
C641 C642 1.362 . S
C642 H634 0.930 . S
C642 C641 1.362 . S
C642 C645 1.409 . S
C643 H635 0.930 . S
C643 C644 1.355 . S
C643 C645 1.415 . S
C644 C643 1.355 . S
C644 C646 1.419 . S
C645 C640 1.425 . S
C645 C642 1.409 . S
C645 C643 1.415 . S
C646 H636 0.930 . S
C646 C644 1.419 . S
C646 C647 1.362 . S
C647 H637 0.930 . S
C647 C640 1.409 . S
C647 C646 1.362 . S
H648 C654 0.930 . S
H649 C657 0.938 . S
H650 C658 0.957 . S
H651 C659 0.933 1_655 S
H652 C662 0.930 . S
H653 C663 0.930 . S
C654 H648 0.930 . S
C654 C655 1.355 . S
C654 C656 1.415 . S
C655 C654 1.355 . S
C655 C657 1.410 1_455 S
C656 C654 1.415 . S
C656 C661 1.425 . S
C656 C663 1.409 . S
C657 H649 0.938 . S
C657 C655 1.410 1_655 S
C657 C658 1.361 . S
C658 H650 0.957 . S
C658 C657 1.361 . S
C658 C661 1.386 1_655 S
C659 H651 0.933 1_455 S
C659 C660 1.355 . S
C659 C661 1.415 . S
C660 C659 1.355 . S
C660 C662 1.419 . S
C661 C656 1.425 . S
C661 C658 1.386 1_455 S
C661 C659 1.415 . S
C662 H652 0.930 . S
C662 C660 1.419 . S
C662 C663 1.362 . S
C663 H653 0.930 . S
C663 C656 1.409 . S
C663 C662 1.362 . S
H664 C670 0.930 . S
H665 C673 0.930 . S
H666 C674 0.930 . S
H667 C675 0.930 . S
H668 C678 0.930 . S
H669 C679 0.930 . S
C670 H664 0.930 . S
C670 C671 1.355 . S
C670 C672 1.415 . S
C671 C670 1.355 . S
C671 C673 1.419 . S
C672 C670 1.415 . S
C672 C677 1.425 . S
C672 C679 1.409 . S
C673 H665 0.930 . S
C673 C671 1.419 . S
C673 C674 1.362 . S
C674 H666 0.930 . S
C674 C673 1.362 . S
C674 C677 1.409 . S
C675 H667 0.930 . S
C675 C676 1.355 . S
C675 C677 1.415 . S
C676 C675 1.355 . S
C676 C678 1.419 . S
C677 C672 1.425 . S
C677 C674 1.409 . S
C677 C675 1.415 . S
C678 H668 0.930 . S
C678 C676 1.419 . S
C678 C679 1.362 . S
C679 H669 0.930 . S
C679 C672 1.409 . S
C679 C678 1.362 . S
H680 C686 0.930 . S
H681 C689 0.930 . S
H682 C690 0.930 . S
H683 C691 0.930 . S
H684 C694 0.930 . S
H685 C695 0.930 . S
C686 H680 0.930 . S
C686 C687 1.355 . S
C686 C688 1.415 . S
C687 C686 1.355 . S
C687 C689 1.419 . S
C688 C686 1.415 . S
C688 C693 1.425 . S
C688 C695 1.409 . S
C689 H681 0.930 . S
C689 C687 1.419 . S
C689 C690 1.362 . S
C690 H682 0.930 . S
C690 C689 1.362 . S
C690 C693 1.409 . S
C691 H683 0.930 . S
C691 C692 1.355 . S
C691 C693 1.415 . S
C692 C691 1.355 . S
C692 C694 1.419 . S
C693 C688 1.425 . S
C693 C690 1.409 . S
C693 C691 1.415 . S
C694 H684 0.930 . S
C694 C692 1.419 . S
C694 C695 1.362 . S
C695 H685 0.930 . S
C695 C688 1.409 . S
C695 C694 1.362 . S
H696 C702 0.930 . S
H697 C705 0.930 . S
H698 C706 0.930 . S
H699 C707 0.930 1_554 S
H700 C710 0.930 1_554 S
H701 C711 0.930 . S
C702 H696 0.930 . S
C702 C703 1.355 . S
C702 C704 1.415 . S
C703 C702 1.355 . S
C703 C705 1.419 . S
C704 C702 1.415 . S
C704 C709 1.425 . S
C704 C711 1.409 . S
C705 H697 0.930 . S
C705 C703 1.419 . S
C705 C706 1.362 . S
C706 H698 0.930 . S
C706 C705 1.362 . S
C706 C709 1.409 . S
C707 H699 0.930 1_556 S
C707 C708 1.355 1_556 S
C707 C709 1.415 . S
C708 C707 1.355 1_554 S
C708 C710 1.419 1_554 S
C709 C704 1.425 . S
C709 C706 1.409 . S
C709 C707 1.415 . S
C710 H700 0.930 1_556 S
C710 C708 1.419 1_556 S
C710 C711 1.362 . S
C711 H701 0.930 . S
C711 C704 1.409 . S
C711 C710 1.362 . S
H712 C718 0.930 . S
H713 C721 0.930 . S
H714 C722 0.930 . S
H715 C723 0.930 . S
H716 C726 0.930 . S
H717 C727 0.930 . S
C718 H712 0.930 . S
C718 C719 1.355 . S
C718 C720 1.415 . S
C719 C718 1.355 . S
C719 C721 1.419 . S
C720 C718 1.415 . S
C720 C725 1.425 . S
C720 C727 1.409 . S
C721 H713 0.930 . S
C721 C719 1.419 . S
C721 C722 1.362 . S
C722 H714 0.930 . S
C722 C721 1.362 . S
C722 C725 1.409 . S
C723 H715 0.930 . S
C723 C724 1.355 1_556 S
C723 C725 1.415 . S
C724 C723 1.355 1_554 S
C724 C726 1.419 . S
C725 C720 1.425 . S
C725 C722 1.409 . S
C725 C723 1.415 . S
C726 H716 0.930 . S
C726 C724 1.419 . S
C726 C727 1.362 1_554 S
C727 H717 0.930 . S
C727 C720 1.409 . S
C727 C726 1.362 1_556 S
H728 C734 0.930 . S
H729 C737 0.930 . S
H730 C738 0.930 . S
H731 C739 0.930 1_554 S
H732 C742 0.931 1_554 S
H733 C743 0.930 . S
C734 H728 0.930 . S
C734 C735 1.355 . S
C734 C736 1.415 . S
C735 C734 1.355 . S
C735 C737 1.419 . S
C736 C734 1.415 . S
C736 C741 1.425 . S
C736 C743 1.409 . S
C737 H729 0.930 . S
C737 C735 1.419 . S
C737 C738 1.362 . S
C738 H730 0.930 . S
C738 C737 1.362 . S
C738 C741 1.409 . S
C739 H731 0.930 1_556 S
C739 C740 1.355 1_556 S
C739 C741 1.415 . S
C740 C739 1.355 1_554 S
C740 C742 1.420 1_554 S
C741 C736 1.425 . S
C741 C738 1.409 . S
C741 C739 1.415 . S
C742 H732 0.931 1_556 S
C742 C740 1.420 1_556 S
C742 C743 1.361 . S
C743 H733 0.930 . S
C743 C736 1.409 . S
C743 C742 1.361 . S
H744 C750 0.930 . S
H745 C753 0.930 . S
H746 C754 0.930 . S
H747 C755 0.930 . S
H748 C758 0.930 1_556 S
H749 C759 0.930 . S
C750 H744 0.930 . S
C750 C751 1.355 . S
C750 C752 1.415 . S
C751 C750 1.355 . S
C751 C753 1.419 . S
C752 C750 1.415 . S
C752 C757 1.425 . S
C752 C759 1.409 . S
C753 H745 0.930 . S
C753 C751 1.419 . S
C753 C754 1.362 . S
C754 H746 0.930 . S
C754 C753 1.362 . S
C754 C757 1.409 . S
C755 H747 0.930 . S
C755 C756 1.355 1_554 S
C755 C757 1.415 . S
C756 C755 1.355 1_556 S
C756 C758 1.419 1_556 S
C757 C752 1.425 . S
C757 C754 1.409 . S
C757 C755 1.415 . S
C758 H748 0.930 1_554 S
C758 C756 1.419 1_554 S
C758 C759 1.362 . S
C759 H749 0.930 . S
C759 C752 1.409 . S
C759 C758 1.362 . S
H760 C766 0.930 . S
H761 C769 0.930 . S
H762 C770 0.930 . S
H763 C771 0.930 . S
H764 C774 0.930 . S
H765 C775 0.930 . S
C766 H760 0.930 . S
C766 C767 1.355 1_554 S
C766 C768 1.415 . S
C767 C766 1.355 1_556 S
C767 C769 1.419 . S
C768 C766 1.415 . S
C768 C773 1.425 . S
C768 C775 1.409 . S
C769 H761 0.930 . S
C769 C767 1.419 . S
C769 C770 1.362 1_556 S
C770 H762 0.930 . S
C770 C769 1.362 1_554 S
C770 C773 1.409 . S
C771 H763 0.930 . S
C771 C772 1.355 . S
C771 C773 1.415 . S
C772 C771 1.355 . S
C772 C774 1.419 . S
C773 C768 1.425 . S
C773 C770 1.409 . S
C773 C771 1.415 . S
C774 H764 0.930 . S
C774 C772 1.419 . S
C774 C775 1.362 . S
C775 H765 0.930 . S
C775 C768 1.409 . S
C775 C774 1.362 . S
H776 C782 0.930 . S
H777 C785 0.930 . S
H778 C786 0.930 . S
H779 C787 0.930 . S
H780 C790 0.930 1_556 S
H781 C791 0.930 . S
C782 H776 0.930 . S
C782 C783 1.355 . S
C782 C784 1.415 . S
C783 C782 1.355 . S
C783 C785 1.419 . S
C784 C782 1.415 . S
C784 C789 1.425 . S
C784 C791 1.409 . S
C785 H777 0.930 . S
C785 C783 1.419 . S
C785 C786 1.362 . S
C786 H778 0.930 . S
C786 C785 1.362 . S
C786 C789 1.409 . S
C787 H779 0.930 . S
C787 C788 1.355 1_554 S
C787 C789 1.415 . S
C788 C787 1.355 1_556 S
C788 C790 1.419 1_556 S
C789 C784 1.425 . S
C789 C786 1.409 . S
C789 C787 1.415 . S
C790 H780 0.930 1_554 S
C790 C788 1.419 1_554 S
C790 C791 1.362 . S
C791 H781 0.930 . S
C791 C784 1.409 . S
C791 C790 1.362 . S
C367 C7 1.890 . S
C372 C282 1.806 . S
C383 C47 1.873 . S
C388 C322 1.792 . S
C399 C87 1.883 . S
C404 C242 1.831 . S
C415 C167 1.913 . S
C420 C82 1.855 . S
C431 C207 1.872 . S
C436 C2 1.794 . S
C447 C42 1.845 . S
C452 C127 1.911 . S
C463 C287 1.908 1_655 S
C468 C202 1.837 . S
C479 C327 1.879 . S
C484 C122 1.822 . S
C495 C162 1.808 . S
C500 C247 1.872 1_545 S
C511 C96 1.687 . S
C516 C11 1.679 1_554 S
C527 C51 1.678 1_554 S
C532 C16 1.689 . S
C543 C56 1.662 1_455 S
C548 C91 1.692 1_554 S
C559 C131 1.684 . S
C564 C216 1.677 . S
C575 C136 1.689 . S
C580 C171 1.678 . S
C591 C176 1.668 . S
C596 C211 1.689 . S
C607 C336 1.691 . S
C612 C251 1.677 . S
C623 C291 1.678 . S
C628 C256 1.689 . S
C639 C331 1.683 . S
C644 C296 1.680 . S
C655 C19 1.066 . S
C660 C10 1.066 . S
C671 C59 1.025 . S
C676 C50 1.025 . S
C687 C99 1.075 . S
C692 C90 1.075 . S
C703 C130 1.046 . S
C708 C139 1.046 . S
C719 C170 1.022 . S
C724 C179 1.022 . S
C735 C210 1.007 . S
C740 C219 1.007 . S
C751 C259 1.021 . S
C756 C250 1.021 . S
C767 C290 1.076 . S
C772 C299 1.076 . S
C783 C339 1.075 . S
C788 C330 1.075 . S
