# Generated by pormake.
# Topology vmg, (6)-cn, num edge types: 1
# Building blocks:
#     Node 0, Type 0, BuildingBlock: VOLQOD_clean_sbu_1, # of connection points: 6
#     Node 1, Type 0, BuildingBlock: VOLQOD_clean_sbu_1, # of connection points: 6
#     Node 2, Type 0, BuildingBlock: VOLQOD_clean_sbu_1, # of connection points: 6
#     Node 3, Type 0, BuildingBlock: VOLQOD_clean_sbu_1, # of connection points: 6
#     Node 4, Type 0, BuildingBlock: VOLQOD_clean_sbu_1, # of connection points: 6
#     Node 5, Type 0, BuildingBlock: VOLQOD_clean_sbu_1, # of connection points: 6
#     Node 6, Type 0, BuildingBlock: VOLQOD_clean_sbu_1, # of connection points: 6
#     Node 7, Type 0, BuildingBlock: VOLQOD_clean_sbu_1, # of connection points: 6
#     Edge 8, Type (0, 0), BuildingBlock: CIFDUS_clean_linker_0, # of connection points: 2
#     Edge 9, Type (0, 0), BuildingBlock: CIFDUS_clean_linker_0, # of connection points: 2
#     Edge 10, Type (0, 0), BuildingBlock: CIFDUS_clean_linker_0, # of connection points: 2
#     Edge 11, Type (0, 0), BuildingBlock: CIFDUS_clean_linker_0, # of connection points: 2
#     Edge 12, Type (0, 0), BuildingBlock: CIFDUS_clean_linker_0, # of connection points: 2
#     Edge 13, Type (0, 0), BuildingBlock: CIFDUS_clean_linker_0, # of connection points: 2
#     Edge 14, Type (0, 0), BuildingBlock: CIFDUS_clean_linker_0, # of connection points: 2
#     Edge 15, Type (0, 0), BuildingBlock: CIFDUS_clean_linker_0, # of connection points: 2
#     Edge 16, Type (0, 0), BuildingBlock: CIFDUS_clean_linker_0, # of connection points: 2
#     Edge 17, Type (0, 0), BuildingBlock: CIFDUS_clean_linker_0, # of connection points: 2
#     Edge 18, Type (0, 0), BuildingBlock: CIFDUS_clean_linker_0, # of connection points: 2
#     Edge 19, Type (0, 0), BuildingBlock: CIFDUS_clean_linker_0, # of connection points: 2
#     Edge 20, Type (0, 0), BuildingBlock: CIFDUS_clean_linker_0, # of connection points: 2
#     Edge 21, Type (0, 0), BuildingBlock: CIFDUS_clean_linker_0, # of connection points: 2
#     Edge 22, Type (0, 0), BuildingBlock: CIFDUS_clean_linker_0, # of connection points: 2
#     Edge 23, Type (0, 0), BuildingBlock: CIFDUS_clean_linker_0, # of connection points: 2
#     Edge 24, Type (0, 0), BuildingBlock: CIFDUS_clean_linker_0, # of connection points: 2
#     Edge 25, Type (0, 0), BuildingBlock: CIFDUS_clean_linker_0, # of connection points: 2
#     Edge 26, Type (0, 0), BuildingBlock: CIFDUS_clean_linker_0, # of connection points: 2
#     Edge 27, Type (0, 0), BuildingBlock: CIFDUS_clean_linker_0, # of connection points: 2
#     Edge 28, Type (0, 0), BuildingBlock: CIFDUS_clean_linker_0, # of connection points: 2
#     Edge 29, Type (0, 0), BuildingBlock: CIFDUS_clean_linker_0, # of connection points: 2
#     Edge 30, Type (0, 0), BuildingBlock: CIFDUS_clean_linker_0, # of connection points: 2
#     Edge 31, Type (0, 0), BuildingBlock: CIFDUS_clean_linker_0, # of connection points: 2
# Relax obj value: 0.363
# Max RMSD: 0.272
# Mean RMSD: 0.272
data_MOF--net-vmg--node1-VOLQOD_clean_sbu_1--edge1-CIFDUS_clean_linker_0
_symmetry_space_group_name_H-M    P1
_symmetry_Int_Tables_number       1
_symmetry_cell_setting            triclinic
loop_
_symmetry_equiv_pos_as_xyz
'x, y, z'
_cell_length_a     25.55294
_cell_length_b     42.410831
_cell_length_c     24.66195
_cell_angle_alpha  89.972817
_cell_angle_beta   96.520157
_cell_angle_gamma 90.050581
loop_
_atom_site_label
_atom_site_type_symbol
_atom_site_fract_x
_atom_site_fract_y
_atom_site_fract_z
_atom_type_partial_charge
O0 O 0.14333 0.4479 0.0958 0.0
Zn1 Zn 0.21991 0.43939 0.1173 0.0
O2 O 0.22875 0.39444 0.12095 0.0
Zn3 Zn 0.24422 0.37988 0.19521 0.0
Zn4 Zn 0.16702 0.37401 0.08616 0.0
Zn5 Zn 0.28411 0.38372 0.07906 0.0
O6 O 0.31482 0.35648 0.20185 0.0
O7 O 0.34827 0.37582 0.12878 0.0
O8 O 0.24536 0.45997 0.19082 0.0
O9 O 0.25699 0.41779 0.24447 0.0
O10 O 0.17969 0.35646 0.21971 0.0
O11 O 0.12495 0.359 0.14317 0.0
O12 O 0.185 0.33472 0.04522 0.0
O13 O 0.25365 0.45739 0.05306 0.0
O14 O 0.27039 0.34269 0.04299 0.0
O15 O 0.29302 0.41578 0.02143 0.0
C16 C 0.11192 0.43394 0.05958 0.0
C17 C 0.35348 0.36074 0.17374 0.0
C18 C 0.13404 0.35209 0.19345 0.0
C19 C 0.25738 0.44762 0.23796 0.0
C20 C 0.22968 0.32566 0.03287 0.0
C21 C 0.27856 0.44444 0.01692 0.0
O22 O 0.12088 0.40597 0.04372 0.0
O23 O 0.85517 0.44797 0.39625 0.0
Zn24 Zn 0.77824 0.4415 0.37366 0.0
O25 O 0.7643 0.39713 0.37365 0.0
Zn26 Zn 0.7465 0.3819 0.3 0.0
Zn27 Zn 0.82466 0.37555 0.40843 0.0
Zn28 Zn 0.70937 0.38932 0.41814 0.0
O29 O 0.67559 0.35906 0.29713 0.0
O30 O 0.64436 0.38077 0.36959 0.0
O31 O 0.75491 0.46123 0.30024 0.0
O32 O 0.73333 0.41921 0.24873 0.0
O33 O 0.80984 0.35753 0.275 0.0
O34 O 0.86504 0.35903 0.35131 0.0
O35 O 0.80413 0.33773 0.45108 0.0
O36 O 0.7437 0.46335 0.43254 0.0
O37 O 0.72083 0.34916 0.45906 0.0
O38 O 0.70246 0.42465 0.47107 0.0
C39 C 0.88503 0.43365 0.43333 0.0
C40 C 0.63778 0.36454 0.32587 0.0
C41 C 0.85534 0.3523 0.30102 0.0
C42 C 0.73788 0.44902 0.25434 0.0
C43 C 0.75999 0.33072 0.4673 0.0
C44 C 0.71757 0.45324 0.46998 0.0
O45 O 0.87342 0.40634 0.45025 0.0
O46 O 0.84976 0.53607 0.91051 0.0
Zn47 Zn 0.77574 0.5451 0.88 0.0
O48 O 0.7666 0.58988 0.87792 0.0
Zn49 Zn 0.76049 0.60502 0.80355 0.0
Zn50 Zn 0.82518 0.60967 0.9199 0.0
Zn51 Zn 0.70507 0.59938 0.91218 0.0
O52 O 0.69022 0.62762 0.78737 0.0
O53 O 0.64645 0.60749 0.85303 0.0
O54 O 0.7582 0.52546 0.80579 0.0
O55 O 0.75234 0.56789 0.75269 0.0
O56 O 0.82807 0.62854 0.78746 0.0
O57 O 0.87391 0.62594 0.86936 0.0
O58 O 0.80124 0.64786 0.95957 0.0
O59 O 0.73321 0.52503 0.93421 0.0
O60 O 0.71473 0.64027 0.95109 0.0
O61 O 0.6907 0.56524 0.96662 0.0
C62 C 0.87793 0.5494 0.94999 0.0
C63 C 0.64721 0.62221 0.80789 0.0
C64 C 0.87078 0.63306 0.81904 0.0
C65 C 0.75062 0.5381 0.75866 0.0
C66 C 0.75493 0.65696 0.96659 0.0
C67 C 0.7042 0.53627 0.96814 0.0
O68 O 0.86775 0.57723 0.96567 0.0
O69 O 0.14899 0.53415 0.58482 0.0
Zn70 Zn 0.22264 0.544 0.61791 0.0
O71 O 0.23082 0.58898 0.6138 0.0
Zn72 Zn 0.23487 0.60863 0.68421 0.0
Zn73 Zn 0.17355 0.60691 0.56819 0.0
Zn74 Zn 0.29226 0.59722 0.57934 0.0
O75 O 0.30694 0.62957 0.70015 0.0
O76 O 0.35076 0.60562 0.63813 0.0
O77 O 0.23616 0.52841 0.69727 0.0
O78 O 0.23661 0.57465 0.73992 0.0
O79 O 0.16739 0.63384 0.69434 0.0
O80 O 0.12148 0.62349 0.6145 0.0
O81 O 0.19771 0.64449 0.52749 0.0
O82 O 0.26626 0.52183 0.56547 0.0
O83 O 0.2843 0.63755 0.53859 0.0
O84 O 0.30381 0.56197 0.52666 0.0
C85 C 0.12371 0.54589 0.54185 0.0
C86 C 0.35007 0.62217 0.68135 0.0
C87 C 0.12408 0.6345 0.66263 0.0
C88 C 0.2385 0.5447 0.74114 0.0
C89 C 0.24412 0.65379 0.52137 0.0
C90 C 0.29172 0.53281 0.52798 0.0
O91 O 0.13548 0.57285 0.5235 0.0
O92 O 0.65485 0.95717 0.11698 0.0
Zn93 Zn 0.72911 0.94397 0.14178 0.0
O94 O 0.73259 0.8991 0.13137 0.0
Zn95 Zn 0.73687 0.87678 0.19965 0.0
Zn96 Zn 0.673 0.8851 0.0836 0.0
Zn97 Zn 0.79262 0.89062 0.09507 0.0
O98 O 0.80629 0.85259 0.21056 0.0
O99 O 0.85091 0.87762 0.15046 0.0
O100 O 0.74987 0.95587 0.22198 0.0
O101 O 0.74449 0.90854 0.25996 0.0
O102 O 0.66804 0.85254 0.20745 0.0
O103 O 0.62295 0.86486 0.12799 0.0
O104 O 0.69258 0.85053 0.03291 0.0
O105 O 0.77047 0.9668 0.0881 0.0
O106 O 0.77967 0.8532 0.0479 0.0
O107 O 0.80759 0.92728 0.04757 0.0
C108 C 0.62515 0.94836 0.07453 0.0
C109 C 0.84946 0.85918 0.19119 0.0
C110 C 0.62529 0.85222 0.17488 0.0
C111 C 0.75145 0.93821 0.2642 0.0
C112 C 0.73803 0.83995 0.02599 0.0
C113 C 0.79609 0.95641 0.05035 0.0
O114 O 0.63342 0.9226 0.04994 0.0
O115 O 0.33607 0.96007 0.39324 0.0
Zn116 Zn 0.26218 0.94583 0.37117 0.0
O117 O 0.26095 0.90071 0.37247 0.0
Zn118 Zn 0.25631 0.88353 0.29947 0.0
Zn119 Zn 0.32224 0.8858 0.41715 0.0
Zn120 Zn 0.20108 0.88854 0.40688 0.0
O121 O 0.18904 0.85749 0.28518 0.0
O122 O 0.14341 0.87634 0.35014 0.0
O123 O 0.23588 0.96224 0.29562 0.0
O124 O 0.24345 0.91923 0.24547 0.0
O125 O 0.3256 0.861 0.28674 0.0
O126 O 0.37023 0.86702 0.36878 0.0
O127 O 0.30465 0.84948 0.46572 0.0
O128 O 0.22305 0.9633 0.43128 0.0
O129 O 0.21742 0.8499 0.44935 0.0
O130 O 0.18244 0.92134 0.46008 0.0
C131 C 0.36847 0.94989 0.43249 0.0
C132 C 0.14579 0.86084 0.30617 0.0
C133 C 0.36779 0.85769 0.31963 0.0
C134 C 0.2331 0.94851 0.24927 0.0
C135 C 0.25979 0.83741 0.47102 0.0
C136 C 0.19536 0.95028 0.46493 0.0
O137 O 0.36313 0.9226 0.45332 0.0
O138 O 0.33856 0.02616 0.89051 0.0
Zn139 Zn 0.26453 0.03966 0.86538 0.0
O140 O 0.26115 0.08445 0.87646 0.0
Zn141 Zn 0.25805 0.10729 0.80875 0.0
Zn142 Zn 0.32029 0.09793 0.9252 0.0
Zn143 Zn 0.20041 0.09274 0.91175 0.0
O144 O 0.1891 0.13199 0.79744 0.0
O145 O 0.14321 0.10651 0.85594 0.0
O146 O 0.24393 0.02841 0.78501 0.0
O147 O 0.25019 0.07593 0.74792 0.0
O148 O 0.32759 0.13111 0.80219 0.0
O149 O 0.37144 0.11822 0.88199 0.0
O150 O 0.29992 0.13215 0.97609 0.0
O151 O 0.22261 0.01658 0.91819 0.0
O152 O 0.21282 0.12949 0.96039 0.0
O153 O 0.18405 0.05588 0.95779 0.0
C154 C 0.36758 0.03456 0.93368 0.0
C155 C 0.1455 0.12538 0.81593 0.0
C156 C 0.36999 0.13104 0.8353 0.0
C157 C 0.24271 0.04632 0.74316 0.0
C158 C 0.25433 0.14251 0.98305 0.0
C159 C 0.19594 0.02681 0.95521 0.0
O160 O 0.35894 0.06009 0.95875 0.0
O161 O 0.6561 0.02779 0.6144 0.0
Zn162 Zn 0.73052 0.04092 0.63576 0.0
O163 O 0.7332 0.08606 0.635 0.0
Zn164 Zn 0.7388 0.10258 0.70858 0.0
Zn165 Zn 0.67193 0.10199 0.59115 0.0
Zn166 Zn 0.7933 0.0976 0.60014 0.0
O167 O 0.80642 0.12828 0.72257 0.0
O168 O 0.85131 0.10975 0.65673 0.0
O169 O 0.75669 0.02366 0.71084 0.0
O170 O 0.75138 0.06647 0.76197 0.0
O171 O 0.67004 0.12525 0.72266 0.0
O172 O 0.625 0.12112 0.64047 0.0
O173 O 0.69055 0.13799 0.54211 0.0
O174 O 0.76836 0.02308 0.57493 0.0
O175 O 0.77786 0.13606 0.55667 0.0
O176 O 0.81115 0.06441 0.54702 0.0
C177 C 0.62342 0.03842 0.57581 0.0
C178 C 0.84939 0.12502 0.70103 0.0
C179 C 0.62789 0.12956 0.69015 0.0
C180 C 0.76045 0.03707 0.75751 0.0
C181 C 0.7358 0.14911 0.53547 0.0
C182 C 0.79681 0.03573 0.54162 0.0
O183 O 0.62923 0.0657 0.55512 0.0
H184 H 0.59702 0.34885 0.22275 0.0
H185 H 0.55724 0.35677 0.38767 0.0
H186 H 0.46418 0.35045 0.35553 0.0
H187 H 0.39364 0.35195 0.27939 0.0
H188 H 0.43339 0.34691 0.11421 0.0
H189 H 0.52651 0.34215 0.14759 0.0
C190 C 0.56808 0.34842 0.2517 0.0
C191 C 0.58377 0.35402 0.30717 0.0
C192 C 0.5144 0.34562 0.23285 0.0
C193 C 0.54592 0.3532 0.34442 0.0
C194 C 0.49266 0.34958 0.32616 0.0
C195 C 0.4226 0.34894 0.25087 0.0
C196 C 0.40698 0.35045 0.19461 0.0
C197 C 0.47628 0.34721 0.27024 0.0
C198 C 0.44477 0.34644 0.15789 0.0
C199 C 0.49803 0.34376 0.17686 0.0
H200 H 0.55388 0.6321 0.84744 0.0
H201 H 0.62636 0.63002 0.69771 0.0
H202 H 0.53973 0.63348 0.64479 0.0
H203 H 0.4435 0.63013 0.64139 0.0
H204 H 0.37086 0.63243 0.79096 0.0
H205 H 0.45762 0.63631 0.84375 0.0
C206 C 0.55072 0.63288 0.80322 0.0
C207 C 0.59632 0.63028 0.77647 0.0
C208 C 0.50085 0.63468 0.77312 0.0
C209 C 0.59183 0.6319 0.71924 0.0
C210 C 0.5423 0.63368 0.68896 0.0
C211 C 0.44667 0.63195 0.68552 0.0
C212 C 0.40102 0.63046 0.71237 0.0
C213 C 0.49655 0.634 0.7155 0.0
C214 C 0.40549 0.63344 0.76942 0.0
C215 C 0.45507 0.63545 0.79961 0.0
H216 H 0.05624 0.8458 0.34901 0.0
H217 H 0.12331 0.85172 0.19643 0.0
H218 H 0.03565 0.84632 0.14622 0.0
H219 H 0.9398 0.84944 0.14658 0.0
H220 H 0.87261 0.84487 0.29919 0.0
H221 H 0.96067 0.8396 0.34866 0.0
C222 C 0.05172 0.84525 0.30474 0.0
C223 C 0.09587 0.84983 0.27636 0.0
C224 C 0.00126 0.8427 0.27629 0.0
C225 C 0.08982 0.84841 0.21912 0.0
C226 C 0.03969 0.84557 0.19043 0.0
C227 C 0.94444 0.84663 0.1906 0.0
C228 C 0.90008 0.84821 0.21942 0.0
C229 C 0.99507 0.84417 0.21868 0.0
C230 C 0.90628 0.84389 0.27622 0.0
C231 C 0.95661 0.84112 0.30451 0.0
H232 H 0.05558 0.13638 0.86035 0.0
H233 H 0.12291 0.1394 0.70776 0.0
H234 H 0.03493 0.14493 0.65811 0.0
H235 H 0.93924 0.13922 0.65786 0.0
H236 H 0.87213 0.13476 0.81059 0.0
H237 H 0.95983 0.14009 0.86065 0.0
C238 C 0.05099 0.13895 0.81629 0.0
C239 C 0.09531 0.13683 0.78753 0.0
C240 C 0.00042 0.1415 0.78815 0.0
C241 C 0.08924 0.14082 0.73066 0.0
C242 C 0.03895 0.14371 0.70229 0.0
C243 C 0.94376 0.14006 0.70211 0.0
C244 C 0.89956 0.13589 0.73059 0.0
C245 C 0.99426 0.14258 0.73052 0.0
C246 C 0.90564 0.13771 0.7878 0.0
C247 C 0.95579 0.14053 0.81643 0.0
H248 H 0.17335 0.27377 0.0545 0.0
H249 H 0.30594 0.3045 0.97408 0.0
H250 H 0.32993 0.24983 0.9589 0.0
H251 H 0.31336 0.19342 0.96831 0.0
H252 H 0.17907 0.16218 0.04499 0.0
H253 H 0.15663 0.21694 0.0638 0.0
C254 C 0.20681 0.26845 0.03267 0.0
C255 C 0.2375 0.29307 0.01491 0.0
C256 C 0.22107 0.23694 0.02508 0.0
C257 C 0.28147 0.28588 0.98774 0.0
C258 C 0.29557 0.25467 0.97957 0.0
C259 C 0.28012 0.19862 0.99056 0.0
C260 C 0.24852 0.17398 0.00637 0.0
C261 C 0.2661 0.23004 0.99873 0.0
C262 C 0.20443 0.18093 0.03344 0.0
C263 C 0.1912 0.21217 0.04342 0.0
H264 H 0.81466 0.2777 0.45006 0.0
H265 H 0.68259 0.31186 0.52763 0.0
H266 H 0.65912 0.25786 0.5496 0.0
H267 H 0.67664 0.20086 0.54732 0.0
H268 H 0.80963 0.16706 0.47124 0.0
H269 H 0.83126 0.22093 0.44645 0.0
C270 C 0.78127 0.27337 0.47258 0.0
C271 C 0.75081 0.29873 0.48778 0.0
C272 C 0.76731 0.24228 0.48396 0.0
C273 C 0.70696 0.29269 0.5159 0.0
C274 C 0.69321 0.26183 0.52803 0.0
C275 C 0.70944 0.20532 0.52403 0.0
C276 C 0.74106 0.18017 0.5103 0.0
C277 C 0.72278 0.23642 0.51176 0.0
C278 C 0.78443 0.18617 0.48155 0.0
C279 C 0.79716 0.21693 0.46798 0.0
H280 H 0.6729 0.79011 0.0309 0.0
H281 H 0.81797 0.81904 0.97167 0.0
H282 H 0.83806 0.76423 0.95153 0.0
H283 H 0.81639 0.70797 0.95496 0.0
H284 H 0.67177 0.67895 0.01523 0.0
H285 H 0.65018 0.73391 0.03229 0.0
C286 C 0.70817 0.78446 0.01219 0.0
C287 C 0.74361 0.80851 0.00211 0.0
C288 C 0.72037 0.75285 0.00263 0.0
C289 C 0.78987 0.80085 0.97921 0.0
C290 C 0.80168 0.76953 0.96834 0.0
C291 C 0.78062 0.71365 0.97274 0.0
C292 C 0.74611 0.68946 0.9846 0.0
C293 C 0.76783 0.7453 0.98112 0.0
C294 C 0.69923 0.6972 0.00632 0.0
C295 C 0.68661 0.7286 0.01557 0.0
H296 H 0.18396 0.70427 0.53732 0.0
H297 H 0.3258 0.67641 0.47062 0.0
H298 H 0.34722 0.73177 0.45555 0.0
H299 H 0.3248 0.78807 0.46072 0.0
H300 H 0.18304 0.81538 0.52809 0.0
H301 H 0.16334 0.7602 0.54556 0.0
C302 C 0.21902 0.7103 0.51849 0.0
C303 C 0.25272 0.68639 0.50403 0.0
C304 C 0.23189 0.74205 0.51172 0.0
C305 C 0.29888 0.69452 0.48126 0.0
C306 C 0.31143 0.72611 0.47324 0.0
C307 C 0.29047 0.78191 0.48066 0.0
C308 C 0.25569 0.80561 0.49373 0.0
C309 C 0.27847 0.75009 0.48883 0.0
C310 C 0.21057 0.79741 0.51825 0.0
C311 C 0.19895 0.76591 0.52756 0.0
H312 H 0.90626 0.48937 0.93021 0.0
H313 H 0.95169 0.57012 0.03163 0.0
H314 H 0.02771 0.54108 0.07512 0.0
H315 H 0.08168 0.4933 0.08293 0.0
H316 H 0.03599 0.4128 0.98092 0.0
H317 H 0.95919 0.4415 0.93896 0.0
C318 C 0.93267 0.50073 0.96185 0.0
C319 C 0.92337 0.53194 0.9775 0.0
C320 C 0.97616 0.484 0.98648 0.0
C321 C 0.95795 0.54613 0.01876 0.0
C322 C 0.00143 0.52957 0.0436 0.0
C323 C 0.05494 0.48194 0.0516 0.0
C324 C 0.06471 0.45095 0.03501 0.0
C325 C 0.01098 0.49856 0.02756 0.0
C326 C 0.02951 0.43664 0.99442 0.0
C327 C 0.98559 0.45302 0.97038 0.0
H328 H 0.09024 0.48745 0.56676 0.0
H329 H 0.05683 0.56443 0.45324 0.0
H330 H 0.981 0.53584 0.4088 0.0
H331 H 0.92297 0.49003 0.40399 0.0
H332 H 0.95566 0.41309 0.5177 0.0
H333 H 0.03347 0.44082 0.56021 0.0
C334 C 0.0665 0.498 0.53222 0.0
C335 C 0.07905 0.52812 0.51358 0.0
C336 C 0.02289 0.48153 0.50698 0.0
C337 C 0.048 0.54132 0.46855 0.0
C338 C 0.0046 0.52502 0.44312 0.0
C339 C 0.94709 0.47921 0.438 0.0
C340 C 0.93332 0.44961 0.45782 0.0
C341 C 0.99149 0.49526 0.46232 0.0
C342 C 0.96528 0.4359 0.5017 0.0
C343 C 0.00973 0.45174 0.52608 0.0
H344 H 0.54986 0.93587 0.99021 0.0
H345 H 0.59805 0.00563 0.11352 0.0
H346 H 0.52229 0.03814 0.08129 0.0
H347 H 0.44257 0.04686 0.01831 0.0
H348 H 0.39441 0.97717 0.89489 0.0
H349 H 0.47004 0.94457 0.92727 0.0
C350 C 0.54393 0.95821 0.01001 0.0
C351 C 0.57967 0.96825 0.05418 0.0
C352 C 0.50024 0.97681 0.99142 0.0
C353 C 0.5712 -0.00274 0.07941 0.0
C354 C 0.52785 0.01591 0.06107 0.0
C355 C 0.44845 0.02451 0.99854 0.0
C356 C 0.41281 0.01453 0.95425 0.0
C357 C 0.4921 0.00589 0.01717 0.0
C358 C 0.42123 0.9855 0.92906 0.0
C359 C 0.4645 0.96681 0.9475 0.0
H360 H 0.44698 0.93651 0.51331 0.0
H361 H 0.39007 0.00954 0.39947 0.0
H362 H 0.46356 0.04334 0.43369 0.0
H363 H 0.5443 0.05223 0.49558 0.0
H364 H 0.60104 0.97907 0.60926 0.0
H365 H 0.52733 0.94546 0.57534 0.0
C366 C 0.45056 0.95982 0.49598 0.0
C367 C 0.41301 0.97036 0.45386 0.0
C368 C 0.49297 0.97922 0.51575 0.0
C369 C 0.41838 0.0007 0.43192 0.0
C370 C 0.46044 0.02012 0.45144 0.0
C371 C 0.54059 0.02895 0.51295 0.0
C372 C 0.57827 0.01829 0.55487 0.0
C373 C 0.49802 0.00961 0.49328 0.0
C374 C 0.57269 0.988 0.57692 0.0
C375 C 0.5305 0.96868 0.55758 0.0
H376 H 0.03383 0.34134 0.14751 0.0
H377 H 0.13015 0.34221 0.30328 0.0
H378 H 0.05099 0.33694 0.34985 0.0
H379 H 0.95505 0.33974 0.34642 0.0
H380 H 0.85875 0.3437 0.19079 0.0
H381 H 0.9378 0.33886 0.14395 0.0
C382 C 0.03787 0.33992 0.1917 0.0
C383 C 0.08813 0.34268 0.22188 0.0
C384 C 0.99215 0.338 0.21815 0.0
C385 C 0.0922 0.34035 0.279 0.0
C386 C 0.04686 0.3375 0.30563 0.0
C387 C 0.95097 0.33906 0.30218 0.0
C388 C 0.90078 0.34259 0.27218 0.0
C389 C 0.99665 0.33749 0.27563 0.0
C390 C 0.89665 0.34121 0.21496 0.0
C391 C 0.94194 0.33865 0.18818 0.0
H392 H 0.10507 0.6469 0.76788 0.0
H393 H 0.02861 0.6426 0.60269 0.0
H394 H 0.94271 0.64551 0.63581 0.0
H395 H 0.88875 0.64149 0.71217 0.0
H396 H 0.96533 0.64653 0.87729 0.0
H397 H 0.05064 0.65157 0.84361 0.0
C398 C 0.06972 0.64739 0.73903 0.0
C399 C 0.07365 0.64388 0.68295 0.0
C400 C 0.01991 0.64876 0.75834 0.0
C401 C 0.02711 0.64476 0.64625 0.0
C402 C 0.97767 0.64634 0.66511 0.0
C403 C 0.92391 0.64439 0.74077 0.0
C404 C 0.9203 0.64292 0.7972 0.0
C405 C 0.97347 0.6471 0.72119 0.0
C406 C 0.96658 0.64703 0.83355 0.0
C407 C 0.01572 0.64987 0.81438 0.0
H408 H 0.38861 0.84556 0.21482 0.0
H409 H 0.4597 0.84396 0.38226 0.0
H410 H 0.54623 0.8369 0.35242 0.0
H411 H 0.60337 0.84013 0.27898 0.0
H412 H 0.53265 0.84123 0.11151 0.0
H413 H 0.4452 0.83877 0.14125 0.0
C414 C 0.42282 0.84292 0.24479 0.0
C415 C 0.4175 0.84618 0.30058 0.0
C416 C 0.47308 0.83907 0.22743 0.0
C417 C 0.46244 0.84227 0.33885 0.0
C418 C 0.51225 0.83822 0.32191 0.0
C419 C 0.56896 0.83889 0.24897 0.0
C420 C 0.57476 0.84166 0.19322 0.0
C421 C 0.51835 0.83795 0.26628 0.0
C422 C 0.5295 0.83976 0.15488 0.0
C423 C 0.47924 0.83847 0.17178 0.0
H424 H 0.6072 0.13817 0.79596 0.0
H425 H 0.53644 0.14599 0.62898 0.0
H426 H 0.44989 0.15199 0.65945 0.0
H427 H 0.39254 0.14619 0.7324 0.0
H428 H 0.46318 0.13895 0.89946 0.0
H429 H 0.55064 0.14223 0.87005 0.0
C430 C 0.57308 0.14197 0.76631 0.0
C431 C 0.57847 0.14077 0.71027 0.0
C432 C 0.52283 0.14516 0.78401 0.0
C433 C 0.53362 0.14612 0.67248 0.0
C434 C 0.48382 0.14953 0.68978 0.0
C435 C 0.42696 0.1462 0.76249 0.0
C436 C 0.42102 0.14153 0.81786 0.0
C437 C 0.47762 0.14771 0.74533 0.0
C438 C 0.46633 0.1419 0.85632 0.0
C439 C 0.51663 0.14369 0.8396 0.0
H440 H 0.24041 0.50243 0.98627 0.0
H441 H 0.32514 0.4234 0.92886 0.0
H442 H 0.31908 0.44667 0.83783 0.0
H443 H 0.28557 0.48848 0.77276 0.0
H444 H 0.20203 0.56741 0.83205 0.0
H445 H 0.21117 0.54494 0.92341 0.0
C446 C 0.25833 0.49046 0.95419 0.0
C447 C 0.28305 0.46114 0.96467 0.0
C448 C 0.25408 0.50371 0.90168 0.0
C449 C 0.30586 0.44603 0.92222 0.0
C450 C 0.30208 0.4592 0.86988 0.0
C451 C 0.26916 0.50057 0.80568 0.0
C452 C 0.24286 0.52943 0.79546 0.0
C453 C 0.27534 0.48775 0.85879 0.0
C454 C 0.22249 0.54513 0.83875 0.0
C455 C 0.22777 0.53236 0.89114 0.0
H456 H 0.70978 0.43514 0.57407 0.0
H457 H 0.71694 0.51751 0.47238 0.0
H458 H 0.72516 0.55126 0.55319 0.0
H459 H 0.73798 0.55682 0.65255 0.0
H460 H 0.73603 0.47411 0.7546 0.0
H461 H 0.71842 0.441 0.67365 0.0
C462 C 0.71193 0.46053 0.56951 0.0
C463 C 0.71259 0.47384 0.51735 0.0
C464 C 0.71861 0.47965 0.61621 0.0
C465 C 0.7163 0.50674 0.51214 0.0
C466 C 0.72132 0.526 0.55832 0.0
C467 C 0.73351 0.53157 0.65725 0.0
C468 C 0.73882 0.51799 0.70969 0.0
C469 C 0.72393 0.51263 0.61058 0.0
C470 C 0.73264 0.48521 0.7148 0.0
C471 C 0.72237 0.46624 0.66851 0.0
H472 H 0.71207 0.43154 0.14821 0.0
H473 H 0.73234 0.51351 0.25229 0.0
H474 H 0.71502 0.54787 0.17289 0.0
H475 H 0.70253 0.55475 0.07316 0.0
H476 H 0.68868 0.47282 0.9691 0.0
H477 H 0.69374 0.43842 0.0491 0.0
C478 C 0.71226 0.45691 0.1537 0.0
C479 C 0.72406 0.46983 0.20629 0.0
C480 C 0.70308 0.47661 0.10772 0.0
C481 C 0.72395 0.50282 0.21237 0.0
C482 C 0.71388 0.52255 0.16693 0.0
C483 C 0.69908 0.52941 0.06805 0.0
C484 C 0.69484 0.51633 0.01532 0.0
C485 C 0.70438 0.50973 0.11431 0.0
C486 C 0.69166 0.48341 0.0093 0.0
C487 C 0.695 0.46374 0.05504 0.0
H488 H 0.2762 0.4292 0.34435 0.0
H489 H 0.26871 0.51207 0.24198 0.0
H490 H 0.28593 0.54545 0.32288 0.0
H491 H 0.29615 0.55137 0.42294 0.0
H492 H 0.29803 0.46855 0.52479 0.0
H493 H 0.29101 0.43492 0.44381 0.0
C494 C 0.27869 0.45455 0.33947 0.0
C495 C 0.27075 0.46802 0.28683 0.0
C496 C 0.28786 0.47365 0.38623 0.0
C497 C 0.27427 0.50097 0.28177 0.0
C498 C 0.28422 0.52011 0.32811 0.0
C499 C 0.29634 0.52593 0.42752 0.0
C500 C 0.29799 0.51251 0.48004 0.0
C501 C 0.2903 0.50675 0.38059 0.0
C502 C 0.29706 0.4795 0.485 0.0
C503 C 0.29268 0.46026 0.43864 0.0
H504 H 0.81166 0.93828 0.94777 0.0
H505 H 0.79131 0.0209 0.04535 0.0
H506 H 0.78169 0.0535 0.96306 0.0
H507 H 0.76986 0.05756 0.86308 0.0
H508 H 0.78528 0.97425 0.76547 0.0
H509 H 0.80572 0.94295 0.84822 0.0
C510 C 0.80641 0.96354 0.95133 0.0
C511 C 0.80225 0.97708 0.00286 0.0
C512 C 0.7989 0.98195 0.90367 0.0
C513 C 0.79475 0.00983 0.00634 0.0
C514 C 0.78882 0.02846 0.9592 0.0
C515 C 0.77797 0.03259 0.85973 0.0
C516 C 0.77539 0.01829 0.80785 0.0
C517 C 0.78917 0.0146 0.90755 0.0
C518 C 0.78645 0.98591 0.80466 0.0
C519 C 0.7983 0.96796 0.85204 0.0
H520 H 0.1928 0.99117 0.71008 0.0
H521 H 0.26995 0.07259 0.65011 0.0
H522 H 0.25557 0.0521 0.55755 0.0
H523 H 0.22673 0.00973 0.49437 0.0
H524 H 0.14952 0.92788 0.55271 0.0
H525 H 0.1568 0.95035 0.64437 0.0
C526 C 0.20643 0.00435 0.67671 0.0
C527 C 0.23294 0.03318 0.68724 0.0
C528 C 0.19752 -0.00741 0.62301 0.0
C529 C 0.24958 0.05028 0.64334 0.0
C530 C 0.2413 0.03863 0.59023 0.0
C531 C 0.21049 -0.00301 0.52676 0.0
C532 C 0.18806 0.96699 0.51646 0.0
C533 C 0.21585 0.00968 0.57965 0.0
C534 C 0.1671 0.95101 0.55922 0.0
C535 C 0.17171 0.9637 0.61193 0.0
H536 H 0.22505 0.92719 0.1443 0.0
H537 H 0.20517 0.0108 0.2398 0.0
H538 H 0.18328 0.0412 0.15627 0.0
H539 H 0.17769 0.04514 0.05679 0.0
H540 H 0.20284 0.96239 0.96125 0.0
H541 H 0.21329 0.9304 0.04426 0.0
C542 C 0.21566 0.95203 0.14702 0.0
C543 C 0.21745 0.96671 0.19851 0.0
C544 C 0.20365 0.96949 0.09877 0.0
C545 C 0.20469 -0.00111 0.20091 0.0
C546 C 0.19199 0.0163 0.1531 0.0
C547 C 0.18414 0.01996 0.05379 0.0
C548 C 0.18951 0.00623 0.00268 0.0
C549 C 0.19226 0.00198 0.10185 0.0
C550 C 0.19847 0.97359 0.99995 0.0
C551 C 0.20491 0.95533 0.04749 0.0
H552 H 0.76544 0.97619 0.51246 0.0
H553 H 0.84206 0.05804 0.45338 0.0
H554 H 0.83524 0.03522 0.36199 0.0
H555 H 0.80025 -0.00612 0.29669 0.0
H556 H 0.72407 0.91235 0.35751 0.0
H557 H 0.73745 0.93341 0.44972 0.0
C558 C 0.7816 0.98886 0.47995 0.0
C559 C 0.80384 0.01895 0.49002 0.0
C560 C 0.77664 0.97593 0.42721 0.0
C561 C 0.82469 0.03484 0.4471 0.0
C562 C 0.82035 0.02194 0.39453 0.0
C563 C 0.78661 0.98079 0.33017 0.0
C564 C 0.7607 0.95174 0.31994 0.0
C565 C 0.79499 -0.00711 0.38372 0.0
C566 C 0.74403 0.93481 0.364 0.0
C567 C 0.75171 0.94679 0.41693 0.0
loop_
_geom_bond_atom_site_label_1
_geom_bond_atom_site_label_2
_geom_bond_distance
_geom_bond_site_symmetry_2
_ccdc_geom_bond_type
O0 Zn1 1.953 . S
O0 C16 1.225 . S
Zn1 O0 1.953 . S
Zn1 O2 1.949 . S
Zn1 O8 1.919 . S
Zn1 O13 1.924 . S
O2 Zn1 1.949 . S
O2 Zn3 1.923 . S
O2 Zn4 1.950 . S
O2 Zn5 1.945 . S
Zn3 O2 1.923 . S
Zn3 O6 1.933 . S
Zn3 O9 1.941 . S
Zn3 O10 1.965 . S
Zn4 O2 1.950 . S
Zn4 O11 1.938 . S
Zn4 O12 1.906 . S
Zn4 O22 1.953 . S
Zn5 O2 1.945 . S
Zn5 O7 1.932 . S
Zn5 O14 1.977 . S
Zn5 O15 1.910 . S
O6 Zn3 1.933 . S
O6 C17 1.226 . S
O7 Zn5 1.932 . S
O7 C17 1.307 . S
O8 Zn1 1.919 . S
O8 C19 1.253 . S
O9 Zn3 1.941 . S
O9 C19 1.283 . S
O10 Zn3 1.965 . S
O10 C18 1.303 . S
O11 Zn4 1.938 . S
O11 C18 1.247 . S
O12 Zn4 1.906 . S
O12 C20 1.304 . S
O13 Zn1 1.924 . S
O13 C21 1.311 . S
O14 Zn5 1.977 . S
O14 C20 1.272 . S
O15 Zn5 1.910 . S
O15 C21 1.231 . S
C16 O0 1.225 . S
C16 O22 1.298 . S
C17 O6 1.226 . S
C17 O7 1.307 . S
C18 O10 1.303 . S
C18 O11 1.247 . S
C19 O8 1.253 . S
C19 O9 1.283 . S
C20 O12 1.304 . S
C20 O14 1.272 . S
C21 O13 1.311 . S
C21 O15 1.231 . S
O22 Zn4 1.953 . S
O22 C16 1.298 . S
O23 Zn24 1.953 . S
O23 C39 1.225 . S
Zn24 O23 1.953 . S
Zn24 O25 1.949 . S
Zn24 O31 1.919 . S
Zn24 O36 1.924 . S
O25 Zn24 1.949 . S
O25 Zn26 1.923 . S
O25 Zn27 1.950 . S
O25 Zn28 1.945 . S
Zn26 O25 1.923 . S
Zn26 O29 1.933 . S
Zn26 O32 1.941 . S
Zn26 O33 1.965 . S
Zn27 O25 1.950 . S
Zn27 O34 1.938 . S
Zn27 O35 1.906 . S
Zn27 O45 1.953 . S
Zn28 O25 1.945 . S
Zn28 O30 1.932 . S
Zn28 O37 1.977 . S
Zn28 O38 1.910 . S
O29 Zn26 1.933 . S
O29 C40 1.226 . S
O30 Zn28 1.932 . S
O30 C40 1.307 . S
O31 Zn24 1.919 . S
O31 C42 1.253 . S
O32 Zn26 1.941 . S
O32 C42 1.283 . S
O33 Zn26 1.965 . S
O33 C41 1.303 . S
O34 Zn27 1.938 . S
O34 C41 1.247 . S
O35 Zn27 1.906 . S
O35 C43 1.304 . S
O36 Zn24 1.924 . S
O36 C44 1.311 . S
O37 Zn28 1.977 . S
O37 C43 1.272 . S
O38 Zn28 1.910 . S
O38 C44 1.231 . S
C39 O23 1.225 . S
C39 O45 1.298 . S
C40 O29 1.226 . S
C40 O30 1.307 . S
C41 O33 1.303 . S
C41 O34 1.247 . S
C42 O31 1.253 . S
C42 O32 1.283 . S
C43 O35 1.304 . S
C43 O37 1.272 . S
C44 O36 1.311 . S
C44 O38 1.231 . S
O45 Zn27 1.953 . S
O45 C39 1.298 . S
O46 Zn47 1.953 . S
O46 C62 1.225 . S
Zn47 O46 1.953 . S
Zn47 O48 1.949 . S
Zn47 O54 1.919 . S
Zn47 O59 1.924 . S
O48 Zn47 1.949 . S
O48 Zn49 1.923 . S
O48 Zn50 1.950 . S
O48 Zn51 1.945 . S
Zn49 O48 1.923 . S
Zn49 O52 1.933 . S
Zn49 O55 1.941 . S
Zn49 O56 1.965 . S
Zn50 O48 1.950 . S
Zn50 O57 1.938 . S
Zn50 O58 1.906 . S
Zn50 O68 1.953 . S
Zn51 O48 1.945 . S
Zn51 O53 1.932 . S
Zn51 O60 1.977 . S
Zn51 O61 1.910 . S
O52 Zn49 1.933 . S
O52 C63 1.226 . S
O53 Zn51 1.932 . S
O53 C63 1.307 . S
O54 Zn47 1.919 . S
O54 C65 1.253 . S
O55 Zn49 1.941 . S
O55 C65 1.283 . S
O56 Zn49 1.965 . S
O56 C64 1.303 . S
O57 Zn50 1.938 . S
O57 C64 1.247 . S
O58 Zn50 1.906 . S
O58 C66 1.304 . S
O59 Zn47 1.924 . S
O59 C67 1.311 . S
O60 Zn51 1.977 . S
O60 C66 1.272 . S
O61 Zn51 1.910 . S
O61 C67 1.231 . S
C62 O46 1.225 . S
C62 O68 1.298 . S
C63 O52 1.226 . S
C63 O53 1.307 . S
C64 O56 1.303 . S
C64 O57 1.247 . S
C65 O54 1.253 . S
C65 O55 1.283 . S
C66 O58 1.304 . S
C66 O60 1.272 . S
C67 O59 1.311 . S
C67 O61 1.231 . S
O68 Zn50 1.953 . S
O68 C62 1.298 . S
O69 Zn70 1.953 . S
O69 C85 1.225 . S
Zn70 O69 1.953 . S
Zn70 O71 1.949 . S
Zn70 O77 1.919 . S
Zn70 O82 1.924 . S
O71 Zn70 1.949 . S
O71 Zn72 1.923 . S
O71 Zn73 1.950 . S
O71 Zn74 1.945 . S
Zn72 O71 1.923 . S
Zn72 O75 1.933 . S
Zn72 O78 1.941 . S
Zn72 O79 1.965 . S
Zn73 O71 1.950 . S
Zn73 O80 1.938 . S
Zn73 O81 1.906 . S
Zn73 O91 1.953 . S
Zn74 O71 1.945 . S
Zn74 O76 1.932 . S
Zn74 O83 1.977 . S
Zn74 O84 1.910 . S
O75 Zn72 1.933 . S
O75 C86 1.226 . S
O76 Zn74 1.932 . S
O76 C86 1.307 . S
O77 Zn70 1.919 . S
O77 C88 1.253 . S
O78 Zn72 1.941 . S
O78 C88 1.283 . S
O79 Zn72 1.965 . S
O79 C87 1.303 . S
O80 Zn73 1.938 . S
O80 C87 1.247 . S
O81 Zn73 1.906 . S
O81 C89 1.304 . S
O82 Zn70 1.924 . S
O82 C90 1.311 . S
O83 Zn74 1.977 . S
O83 C89 1.272 . S
O84 Zn74 1.910 . S
O84 C90 1.231 . S
C85 O69 1.225 . S
C85 O91 1.298 . S
C86 O75 1.226 . S
C86 O76 1.307 . S
C87 O79 1.303 . S
C87 O80 1.247 . S
C88 O77 1.253 . S
C88 O78 1.283 . S
C89 O81 1.304 . S
C89 O83 1.272 . S
C90 O82 1.311 . S
C90 O84 1.231 . S
O91 Zn73 1.953 . S
O91 C85 1.298 . S
O92 Zn93 1.953 . S
O92 C108 1.225 . S
Zn93 O92 1.953 . S
Zn93 O94 1.949 . S
Zn93 O100 1.919 . S
Zn93 O105 1.924 . S
O94 Zn93 1.949 . S
O94 Zn95 1.923 . S
O94 Zn96 1.950 . S
O94 Zn97 1.945 . S
Zn95 O94 1.923 . S
Zn95 O98 1.933 . S
Zn95 O101 1.941 . S
Zn95 O102 1.965 . S
Zn96 O94 1.950 . S
Zn96 O103 1.938 . S
Zn96 O104 1.906 . S
Zn96 O114 1.953 . S
Zn97 O94 1.945 . S
Zn97 O99 1.932 . S
Zn97 O106 1.977 . S
Zn97 O107 1.910 . S
O98 Zn95 1.933 . S
O98 C109 1.226 . S
O99 Zn97 1.932 . S
O99 C109 1.307 . S
O100 Zn93 1.919 . S
O100 C111 1.253 . S
O101 Zn95 1.941 . S
O101 C111 1.283 . S
O102 Zn95 1.965 . S
O102 C110 1.303 . S
O103 Zn96 1.938 . S
O103 C110 1.247 . S
O104 Zn96 1.906 . S
O104 C112 1.304 . S
O105 Zn93 1.924 . S
O105 C113 1.311 . S
O106 Zn97 1.977 . S
O106 C112 1.272 . S
O107 Zn97 1.910 . S
O107 C113 1.231 . S
C108 O92 1.225 . S
C108 O114 1.298 . S
C109 O98 1.226 . S
C109 O99 1.307 . S
C110 O102 1.303 . S
C110 O103 1.247 . S
C111 O100 1.253 . S
C111 O101 1.283 . S
C112 O104 1.304 . S
C112 O106 1.272 . S
C113 O105 1.311 . S
C113 O107 1.231 . S
O114 Zn96 1.953 . S
O114 C108 1.298 . S
O115 Zn116 1.953 . S
O115 C131 1.225 . S
Zn116 O115 1.953 . S
Zn116 O117 1.949 . S
Zn116 O123 1.919 . S
Zn116 O128 1.924 . S
O117 Zn116 1.949 . S
O117 Zn118 1.923 . S
O117 Zn119 1.950 . S
O117 Zn120 1.945 . S
Zn118 O117 1.923 . S
Zn118 O121 1.933 . S
Zn118 O124 1.941 . S
Zn118 O125 1.965 . S
Zn119 O117 1.950 . S
Zn119 O126 1.938 . S
Zn119 O127 1.906 . S
Zn119 O137 1.953 . S
Zn120 O117 1.945 . S
Zn120 O122 1.932 . S
Zn120 O129 1.977 . S
Zn120 O130 1.910 . S
O121 Zn118 1.933 . S
O121 C132 1.226 . S
O122 Zn120 1.932 . S
O122 C132 1.307 . S
O123 Zn116 1.919 . S
O123 C134 1.253 . S
O124 Zn118 1.941 . S
O124 C134 1.283 . S
O125 Zn118 1.965 . S
O125 C133 1.303 . S
O126 Zn119 1.938 . S
O126 C133 1.247 . S
O127 Zn119 1.906 . S
O127 C135 1.304 . S
O128 Zn116 1.924 . S
O128 C136 1.311 . S
O129 Zn120 1.977 . S
O129 C135 1.272 . S
O130 Zn120 1.910 . S
O130 C136 1.231 . S
C131 O115 1.225 . S
C131 O137 1.298 . S
C132 O121 1.226 . S
C132 O122 1.307 . S
C133 O125 1.303 . S
C133 O126 1.247 . S
C134 O123 1.253 . S
C134 O124 1.283 . S
C135 O127 1.304 . S
C135 O129 1.272 . S
C136 O128 1.311 . S
C136 O130 1.231 . S
O137 Zn119 1.953 . S
O137 C131 1.298 . S
O138 Zn139 1.953 . S
O138 C154 1.225 . S
Zn139 O138 1.953 . S
Zn139 O140 1.949 . S
Zn139 O146 1.919 . S
Zn139 O151 1.924 . S
O140 Zn139 1.949 . S
O140 Zn141 1.923 . S
O140 Zn142 1.950 . S
O140 Zn143 1.945 . S
Zn141 O140 1.923 . S
Zn141 O144 1.933 . S
Zn141 O147 1.941 . S
Zn141 O148 1.965 . S
Zn142 O140 1.950 . S
Zn142 O149 1.938 . S
Zn142 O150 1.906 . S
Zn142 O160 1.953 . S
Zn143 O140 1.945 . S
Zn143 O145 1.932 . S
Zn143 O152 1.977 . S
Zn143 O153 1.910 . S
O144 Zn141 1.933 . S
O144 C155 1.226 . S
O145 Zn143 1.932 . S
O145 C155 1.307 . S
O146 Zn139 1.919 . S
O146 C157 1.253 . S
O147 Zn141 1.941 . S
O147 C157 1.283 . S
O148 Zn141 1.965 . S
O148 C156 1.303 . S
O149 Zn142 1.938 . S
O149 C156 1.247 . S
O150 Zn142 1.906 . S
O150 C158 1.304 . S
O151 Zn139 1.924 . S
O151 C159 1.311 . S
O152 Zn143 1.977 . S
O152 C158 1.272 . S
O153 Zn143 1.910 . S
O153 C159 1.231 . S
C154 O138 1.225 . S
C154 O160 1.298 . S
C155 O144 1.226 . S
C155 O145 1.307 . S
C156 O148 1.303 . S
C156 O149 1.247 . S
C157 O146 1.253 . S
C157 O147 1.283 . S
C158 O150 1.304 . S
C158 O152 1.272 . S
C159 O151 1.311 . S
C159 O153 1.231 . S
O160 Zn142 1.953 . S
O160 C154 1.298 . S
O161 Zn162 1.953 . S
O161 C177 1.225 . S
Zn162 O161 1.953 . S
Zn162 O163 1.949 . S
Zn162 O169 1.919 . S
Zn162 O174 1.924 . S
O163 Zn162 1.949 . S
O163 Zn164 1.923 . S
O163 Zn165 1.950 . S
O163 Zn166 1.945 . S
Zn164 O163 1.923 . S
Zn164 O167 1.933 . S
Zn164 O170 1.941 . S
Zn164 O171 1.965 . S
Zn165 O163 1.950 . S
Zn165 O172 1.938 . S
Zn165 O173 1.906 . S
Zn165 O183 1.953 . S
Zn166 O163 1.945 . S
Zn166 O168 1.932 . S
Zn166 O175 1.977 . S
Zn166 O176 1.910 . S
O167 Zn164 1.933 . S
O167 C178 1.226 . S
O168 Zn166 1.932 . S
O168 C178 1.307 . S
O169 Zn162 1.919 . S
O169 C180 1.253 . S
O170 Zn164 1.941 . S
O170 C180 1.283 . S
O171 Zn164 1.965 . S
O171 C179 1.303 . S
O172 Zn165 1.938 . S
O172 C179 1.247 . S
O173 Zn165 1.906 . S
O173 C181 1.304 . S
O174 Zn162 1.924 . S
O174 C182 1.311 . S
O175 Zn166 1.977 . S
O175 C181 1.272 . S
O176 Zn166 1.910 . S
O176 C182 1.231 . S
C177 O161 1.225 . S
C177 O183 1.298 . S
C178 O167 1.226 . S
C178 O168 1.307 . S
C179 O171 1.303 . S
C179 O172 1.247 . S
C180 O169 1.253 . S
C180 O170 1.283 . S
C181 O173 1.304 . S
C181 O175 1.272 . S
C182 O174 1.311 . S
C182 O176 1.231 . S
O183 Zn165 1.953 . S
O183 C177 1.298 . S
H184 C190 0.930 . S
H185 C193 0.930 . S
H186 C194 0.930 . S
H187 C195 0.930 . S
H188 C198 0.930 . S
H189 C199 0.930 . S
C190 H184 0.930 . S
C190 C191 1.355 . S
C190 C192 1.415 . S
C191 C190 1.355 . S
C191 C193 1.419 . S
C192 C190 1.415 . S
C192 C197 1.425 . S
C192 C199 1.409 . S
C193 H185 0.930 . S
C193 C191 1.419 . S
C193 C194 1.362 . S
C194 H186 0.930 . S
C194 C193 1.362 . S
C194 C197 1.409 . S
C195 H187 0.930 . S
C195 C196 1.355 . S
C195 C197 1.415 . S
C196 C195 1.355 . S
C196 C198 1.419 . S
C197 C192 1.425 . S
C197 C194 1.409 . S
C197 C195 1.415 . S
C198 H188 0.930 . S
C198 C196 1.419 . S
C198 C199 1.362 . S
C199 H189 0.930 . S
C199 C192 1.409 . S
C199 C198 1.362 . S
H200 C206 0.930 . S
H201 C209 0.930 . S
H202 C210 0.930 . S
H203 C211 0.930 . S
H204 C214 0.930 . S
H205 C215 0.930 . S
C206 H200 0.930 . S
C206 C207 1.355 . S
C206 C208 1.415 . S
C207 C206 1.355 . S
C207 C209 1.419 . S
C208 C206 1.415 . S
C208 C213 1.425 . S
C208 C215 1.409 . S
C209 H201 0.930 . S
C209 C207 1.419 . S
C209 C210 1.362 . S
C210 H202 0.930 . S
C210 C209 1.362 . S
C210 C213 1.409 . S
C211 H203 0.930 . S
C211 C212 1.355 . S
C211 C213 1.415 . S
C212 C211 1.355 . S
C212 C214 1.419 . S
C213 C208 1.425 . S
C213 C210 1.409 . S
C213 C211 1.415 . S
C214 H204 0.930 . S
C214 C212 1.419 . S
C214 C215 1.362 . S
C215 H205 0.930 . S
C215 C208 1.409 . S
C215 C214 1.362 . S
H216 C222 0.930 . S
H217 C225 0.930 . S
H218 C226 0.930 . S
H219 C227 0.930 . S
H220 C230 0.930 . S
H221 C231 0.930 . S
C222 H216 0.930 . S
C222 C223 1.355 . S
C222 C224 1.415 . S
C223 C222 1.355 . S
C223 C225 1.419 . S
C224 C222 1.415 . S
C224 C229 1.425 1_455 S
C224 C231 1.409 1_455 S
C225 H217 0.930 . S
C225 C223 1.419 . S
C225 C226 1.362 . S
C226 H218 0.930 . S
C226 C225 1.362 . S
C226 C229 1.409 1_455 S
C227 H219 0.930 . S
C227 C228 1.355 . S
C227 C229 1.415 . S
C228 C227 1.355 . S
C228 C230 1.419 . S
C229 C224 1.425 1_655 S
C229 C226 1.409 1_655 S
C229 C227 1.415 . S
C230 H220 0.930 . S
C230 C228 1.419 . S
C230 C231 1.362 . S
C231 H221 0.930 . S
C231 C224 1.409 1_655 S
C231 C230 1.362 . S
H232 C238 0.930 . S
H233 C241 0.930 . S
H234 C242 0.930 . S
H235 C243 0.930 . S
H236 C246 0.930 . S
H237 C247 0.930 . S
C238 H232 0.930 . S
C238 C239 1.355 . S
C238 C240 1.415 . S
C239 C238 1.355 . S
C239 C241 1.419 . S
C240 C238 1.415 . S
C240 C245 1.425 1_455 S
C240 C247 1.409 1_455 S
C241 H233 0.930 . S
C241 C239 1.419 . S
C241 C242 1.362 . S
C242 H234 0.930 . S
C242 C241 1.362 . S
C242 C245 1.409 1_455 S
C243 H235 0.930 . S
C243 C244 1.355 . S
C243 C245 1.415 . S
C244 C243 1.355 . S
C244 C246 1.419 . S
C245 C240 1.425 1_655 S
C245 C242 1.409 1_655 S
C245 C243 1.415 . S
C246 H236 0.930 . S
C246 C244 1.419 . S
C246 C247 1.362 . S
C247 H237 0.930 . S
C247 C240 1.409 1_655 S
C247 C246 1.362 . S
H248 C254 0.930 . S
H249 C257 0.930 . S
H250 C258 0.930 . S
H251 C259 0.930 . S
H252 C262 0.930 . S
H253 C263 0.930 . S
C254 H248 0.930 . S
C254 C255 1.355 1_556 S
C254 C256 1.415 . S
C255 C254 1.355 1_554 S
C255 C257 1.419 . S
C256 C254 1.415 . S
C256 C261 1.425 1_556 S
C256 C263 1.409 . S
C257 H249 0.930 . S
C257 C255 1.419 . S
C257 C258 1.362 . S
C258 H250 0.930 . S
C258 C257 1.362 . S
C258 C261 1.409 . S
C259 H251 0.930 . S
C259 C260 1.355 1_554 S
C259 C261 1.415 . S
C260 C259 1.355 1_556 S
C260 C262 1.419 . S
C261 C256 1.425 1_554 S
C261 C258 1.409 . S
C261 C259 1.415 . S
C262 H252 0.930 . S
C262 C260 1.419 . S
C262 C263 1.362 . S
C263 H253 0.930 . S
C263 C256 1.409 . S
C263 C262 1.362 . S
H264 C270 0.930 . S
H265 C273 0.930 . S
H266 C274 0.930 . S
H267 C275 0.930 . S
H268 C278 0.930 . S
H269 C279 0.930 . S
C270 H264 0.930 . S
C270 C271 1.355 . S
C270 C272 1.415 . S
C271 C270 1.355 . S
C271 C273 1.419 . S
C272 C270 1.415 . S
C272 C277 1.425 . S
C272 C279 1.409 . S
C273 H265 0.930 . S
C273 C271 1.419 . S
C273 C274 1.362 . S
C274 H266 0.930 . S
C274 C273 1.362 . S
C274 C277 1.409 . S
C275 H267 0.930 . S
C275 C276 1.355 . S
C275 C277 1.415 . S
C276 C275 1.355 . S
C276 C278 1.419 . S
C277 C272 1.425 . S
C277 C274 1.409 . S
C277 C275 1.415 . S
C278 H268 0.930 . S
C278 C276 1.419 . S
C278 C279 1.362 . S
C279 H269 0.930 . S
C279 C272 1.409 . S
C279 C278 1.362 . S
H280 C286 0.930 . S
H281 C289 0.930 . S
H282 C290 0.930 . S
H283 C291 0.930 . S
H284 C294 0.930 . S
H285 C295 0.930 . S
C286 H280 0.930 . S
C286 C287 1.355 1_556 S
C286 C288 1.415 . S
C287 C286 1.355 1_554 S
C287 C289 1.419 . S
C288 C286 1.415 . S
C288 C293 1.425 1_556 S
C288 C295 1.409 . S
C289 H281 0.930 . S
C289 C287 1.419 . S
C289 C290 1.362 . S
C290 H282 0.930 . S
C290 C289 1.362 . S
C290 C293 1.409 . S
C291 H283 0.930 . S
C291 C292 1.355 1_554 S
C291 C293 1.415 . S
C292 C291 1.355 1_556 S
C292 C294 1.419 . S
C293 C288 1.425 1_554 S
C293 C290 1.409 . S
C293 C291 1.415 . S
C294 H284 0.930 . S
C294 C292 1.419 . S
C294 C295 1.362 . S
C295 H285 0.930 . S
C295 C288 1.409 . S
C295 C294 1.362 . S
H296 C302 0.930 . S
H297 C305 0.930 . S
H298 C306 0.930 . S
H299 C307 0.930 . S
H300 C310 0.930 . S
H301 C311 0.930 . S
C302 H296 0.930 . S
C302 C303 1.355 . S
C302 C304 1.415 . S
C303 C302 1.355 . S
C303 C305 1.419 . S
C304 C302 1.415 . S
C304 C309 1.425 . S
C304 C311 1.409 . S
C305 H297 0.930 . S
C305 C303 1.419 . S
C305 C306 1.362 . S
C306 H298 0.930 . S
C306 C305 1.362 . S
C306 C309 1.409 . S
C307 H299 0.930 . S
C307 C308 1.355 . S
C307 C309 1.415 . S
C308 C307 1.355 . S
C308 C310 1.419 . S
C309 C304 1.425 . S
C309 C306 1.409 . S
C309 C307 1.415 . S
C310 H300 0.930 . S
C310 C308 1.419 . S
C310 C311 1.362 . S
C311 H301 0.930 . S
C311 C304 1.409 . S
C311 C310 1.362 . S
H312 C318 0.930 1_455 S
H313 C321 0.927 1_554 S
H314 C322 0.930 . S
H315 C323 0.930 1_655 S
H316 C326 0.927 1_556 S
H317 C327 0.930 . S
C318 H312 0.930 1_655 S
C318 C319 1.355 . S
C318 C320 1.415 1_655 S
C319 C318 1.355 . S
C319 C321 1.426 . S
C320 C318 1.415 1_455 S
C320 C325 1.425 1_456 S
C320 C327 1.409 . S
C321 H313 0.927 1_556 S
C321 C319 1.426 . S
C321 C322 1.359 1_556 S
C322 H314 0.930 . S
C322 C321 1.359 1_554 S
C322 C325 1.409 . S
C323 H315 0.930 1_455 S
C323 C324 1.355 . S
C323 C325 1.415 1_455 S
C324 C323 1.355 . S
C324 C326 1.426 . S
C325 C320 1.425 1_654 S
C325 C322 1.409 . S
C325 C323 1.415 1_655 S
C326 H316 0.927 1_554 S
C326 C324 1.426 . S
C326 C327 1.359 1_554 S
C327 H317 0.930 . S
C327 C320 1.409 . S
C327 C326 1.359 1_556 S
H328 C334 0.930 . S
H329 C337 0.931 . S
H330 C338 0.930 . S
H331 C339 0.930 . S
H332 C342 0.931 . S
H333 C343 0.930 . S
C334 H328 0.930 . S
C334 C335 1.355 . S
C334 C336 1.415 . S
C335 C334 1.355 . S
C335 C337 1.419 . S
C336 C334 1.415 . S
C336 C341 1.425 1_455 S
C336 C343 1.409 . S
C337 H329 0.931 . S
C337 C335 1.419 . S
C337 C338 1.362 1_455 S
C338 H330 0.930 . S
C338 C337 1.362 1_655 S
C338 C341 1.409 . S
C339 H331 0.930 . S
C339 C340 1.355 . S
C339 C341 1.415 . S
C340 C339 1.355 . S
C340 C342 1.419 . S
C341 C336 1.425 1_655 S
C341 C338 1.409 . S
C341 C339 1.415 . S
C342 H332 0.931 . S
C342 C340 1.419 . S
C342 C343 1.362 1_655 S
C343 H333 0.930 . S
C343 C336 1.409 . S
C343 C342 1.362 1_455 S
H344 C350 0.930 . S
H345 C353 0.930 . S
H346 C354 0.930 . S
H347 C355 0.930 . S
H348 C358 0.930 . S
H349 C359 0.930 . S
C350 H344 0.930 . S
C350 C351 1.355 1_556 S
C350 C352 1.415 . S
C351 C350 1.355 1_554 S
C351 C353 1.419 . S
C352 C350 1.415 . S
C352 C357 1.425 1_566 S
C352 C359 1.409 . S
C353 H345 0.930 . S
C353 C351 1.419 . S
C353 C354 1.362 1_565 S
C354 H346 0.930 . S
C354 C353 1.362 1_545 S
C354 C357 1.409 . S
C355 H347 0.930 . S
C355 C356 1.355 1_554 S
C355 C357 1.415 . S
C356 C355 1.355 1_556 S
C356 C358 1.419 . S
C357 C352 1.425 1_544 S
C357 C354 1.409 . S
C357 C355 1.415 . S
C358 H348 0.930 . S
C358 C356 1.419 . S
C358 C359 1.362 1_545 S
C359 H349 0.930 . S
C359 C352 1.409 . S
C359 C358 1.362 1_565 S
H360 C366 0.930 . S
H361 C369 0.930 . S
H362 C370 0.930 . S
H363 C371 0.930 . S
H364 C374 0.930 . S
H365 C375 0.930 . S
C366 H360 0.930 . S
C366 C367 1.355 . S
C366 C368 1.415 . S
C367 C366 1.355 . S
C367 C369 1.419 . S
C368 C366 1.415 . S
C368 C373 1.425 1_565 S
C368 C375 1.409 . S
C369 H361 0.930 . S
C369 C367 1.419 . S
C369 C370 1.362 1_565 S
C370 H362 0.930 . S
C370 C369 1.362 1_545 S
C370 C373 1.409 . S
C371 H363 0.930 . S
C371 C372 1.355 . S
C371 C373 1.415 . S
C372 C371 1.355 . S
C372 C374 1.419 . S
C373 C368 1.425 1_545 S
C373 C370 1.409 . S
C373 C371 1.415 . S
C374 H364 0.930 . S
C374 C372 1.419 . S
C374 C375 1.362 1_545 S
C375 H365 0.930 . S
C375 C368 1.409 . S
C375 C374 1.362 1_565 S
H376 C382 0.930 . S
H377 C385 0.930 . S
H378 C386 0.930 . S
H379 C387 0.930 . S
H380 C390 0.930 . S
H381 C391 0.930 . S
C382 H376 0.930 . S
C382 C383 1.355 . S
C382 C384 1.415 . S
C383 C382 1.355 . S
C383 C385 1.419 . S
C384 C382 1.415 . S
C384 C389 1.425 1_455 S
C384 C391 1.409 1_455 S
C385 H377 0.930 . S
C385 C383 1.419 . S
C385 C386 1.362 . S
C386 H378 0.930 . S
C386 C385 1.362 . S
C386 C389 1.409 1_455 S
C387 H379 0.930 . S
C387 C388 1.355 . S
C387 C389 1.415 . S
C388 C387 1.355 . S
C388 C390 1.419 . S
C389 C384 1.425 1_655 S
C389 C386 1.409 1_655 S
C389 C387 1.415 . S
C390 H380 0.930 . S
C390 C388 1.419 . S
C390 C391 1.362 . S
C391 H381 0.930 . S
C391 C384 1.409 1_655 S
C391 C390 1.362 . S
H392 C398 0.930 . S
H393 C401 0.930 . S
H394 C402 0.923 1_655 S
H395 C403 0.930 . S
H396 C406 0.930 . S
H397 C407 0.923 1_455 S
C398 H392 0.930 . S
C398 C399 1.355 . S
C398 C400 1.415 . S
C399 C398 1.355 . S
C399 C401 1.419 . S
C400 C398 1.415 . S
C400 C405 1.425 1_455 S
C400 C407 1.403 1_455 S
C401 H393 0.930 . S
C401 C399 1.419 . S
C401 C402 1.375 . S
C402 H394 0.923 1_455 S
C402 C401 1.375 . S
C402 C405 1.403 1_455 S
C403 H395 0.930 . S
C403 C404 1.355 . S
C403 C405 1.415 . S
C404 C403 1.355 . S
C404 C406 1.419 . S
C405 C400 1.425 1_655 S
C405 C402 1.403 1_655 S
C405 C403 1.415 . S
C406 H396 0.930 . S
C406 C404 1.419 . S
C406 C407 1.375 . S
C407 H397 0.923 1_655 S
C407 C400 1.403 1_655 S
C407 C406 1.375 . S
H408 C414 0.930 . S
H409 C417 0.930 . S
H410 C418 0.930 . S
H411 C419 0.930 . S
H412 C422 0.930 . S
H413 C423 0.930 . S
C414 H408 0.930 . S
C414 C415 1.355 . S
C414 C416 1.415 . S
C415 C414 1.355 . S
C415 C417 1.419 . S
C416 C414 1.415 . S
C416 C421 1.425 . S
C416 C423 1.409 . S
C417 H409 0.930 . S
C417 C415 1.419 . S
C417 C418 1.362 . S
C418 H410 0.930 . S
C418 C417 1.362 . S
C418 C421 1.409 . S
C419 H411 0.930 . S
C419 C420 1.355 . S
C419 C421 1.415 . S
C420 C419 1.355 . S
C420 C422 1.419 . S
C421 C416 1.425 . S
C421 C418 1.409 . S
C421 C419 1.415 . S
C422 H412 0.930 . S
C422 C420 1.419 . S
C422 C423 1.362 . S
C423 H413 0.930 . S
C423 C416 1.409 . S
C423 C422 1.362 . S
H424 C430 0.930 . S
H425 C433 0.930 . S
H426 C434 0.930 . S
H427 C435 0.930 . S
H428 C438 0.930 . S
H429 C439 0.930 . S
C430 H424 0.930 . S
C430 C431 1.355 . S
C430 C432 1.415 . S
C431 C430 1.355 . S
C431 C433 1.419 . S
C432 C430 1.415 . S
C432 C437 1.425 . S
C432 C439 1.409 . S
C433 H425 0.930 . S
C433 C431 1.419 . S
C433 C434 1.362 . S
C434 H426 0.930 . S
C434 C433 1.362 . S
C434 C437 1.409 . S
C435 H427 0.930 . S
C435 C436 1.355 . S
C435 C437 1.415 . S
C436 C435 1.355 . S
C436 C438 1.419 . S
C437 C432 1.425 . S
C437 C434 1.409 . S
C437 C435 1.415 . S
C438 H428 0.930 . S
C438 C436 1.419 . S
C438 C439 1.362 . S
C439 H429 0.930 . S
C439 C432 1.409 . S
C439 C438 1.362 . S
H440 C446 0.930 . S
H441 C449 0.930 . S
H442 C450 0.930 . S
H443 C451 0.930 . S
H444 C454 0.930 . S
H445 C455 0.930 . S
C446 H440 0.930 . S
C446 C447 1.355 . S
C446 C448 1.415 . S
C447 C446 1.355 . S
C447 C449 1.419 . S
C448 C446 1.415 . S
C448 C453 1.425 . S
C448 C455 1.409 . S
C449 H441 0.930 . S
C449 C447 1.419 . S
C449 C450 1.362 . S
C450 H442 0.930 . S
C450 C449 1.362 . S
C450 C453 1.409 . S
C451 H443 0.930 . S
C451 C452 1.355 . S
C451 C453 1.415 . S
C452 C451 1.355 . S
C452 C454 1.419 . S
C453 C448 1.425 . S
C453 C450 1.409 . S
C453 C451 1.415 . S
C454 H444 0.930 . S
C454 C452 1.419 . S
C454 C455 1.362 . S
C455 H445 0.930 . S
C455 C448 1.409 . S
C455 C454 1.362 . S
H456 C462 0.930 . S
H457 C465 0.930 . S
H458 C466 0.930 . S
H459 C467 0.930 . S
H460 C470 0.930 . S
H461 C471 0.930 . S
C462 H456 0.930 . S
C462 C463 1.355 . S
C462 C464 1.415 . S
C463 C462 1.355 . S
C463 C465 1.419 . S
C464 C462 1.415 . S
C464 C469 1.425 . S
C464 C471 1.409 . S
C465 H457 0.930 . S
C465 C463 1.419 . S
C465 C466 1.362 . S
C466 H458 0.930 . S
C466 C465 1.362 . S
C466 C469 1.409 . S
C467 H459 0.930 . S
C467 C468 1.355 . S
C467 C469 1.415 . S
C468 C467 1.355 . S
C468 C470 1.419 . S
C469 C464 1.425 . S
C469 C466 1.409 . S
C469 C467 1.415 . S
C470 H460 0.930 . S
C470 C468 1.419 . S
C470 C471 1.362 . S
C471 H461 0.930 . S
C471 C464 1.409 . S
C471 C470 1.362 . S
H472 C478 0.930 . S
H473 C481 0.930 . S
H474 C482 0.930 . S
H475 C483 0.930 . S
H476 C486 0.930 . S
H477 C487 0.930 . S
C478 H472 0.930 . S
C478 C479 1.355 . S
C478 C480 1.415 . S
C479 C478 1.355 . S
C479 C481 1.419 . S
C480 C478 1.415 . S
C480 C485 1.425 . S
C480 C487 1.409 . S
C481 H473 0.930 . S
C481 C479 1.419 . S
C481 C482 1.362 . S
C482 H474 0.930 . S
C482 C481 1.362 . S
C482 C485 1.409 . S
C483 H475 0.930 . S
C483 C484 1.355 . S
C483 C485 1.415 . S
C484 C483 1.355 . S
C484 C486 1.419 . S
C485 C480 1.425 . S
C485 C482 1.409 . S
C485 C483 1.415 . S
C486 H476 0.930 . S
C486 C484 1.419 . S
C486 C487 1.362 . S
C487 H477 0.930 . S
C487 C480 1.409 . S
C487 C486 1.362 . S
H488 C494 0.930 . S
H489 C497 0.930 . S
H490 C498 0.930 . S
H491 C499 0.930 . S
H492 C502 0.930 . S
H493 C503 0.930 . S
C494 H488 0.930 . S
C494 C495 1.355 . S
C494 C496 1.415 . S
C495 C494 1.355 . S
C495 C497 1.419 . S
C496 C494 1.415 . S
C496 C501 1.425 . S
C496 C503 1.409 . S
C497 H489 0.930 . S
C497 C495 1.419 . S
C497 C498 1.362 . S
C498 H490 0.930 . S
C498 C497 1.362 . S
C498 C501 1.409 . S
C499 H491 0.930 . S
C499 C500 1.355 . S
C499 C501 1.415 . S
C500 C499 1.355 . S
C500 C502 1.419 . S
C501 C496 1.425 . S
C501 C498 1.409 . S
C501 C499 1.415 . S
C502 H492 0.930 . S
C502 C500 1.419 . S
C502 C503 1.362 . S
C503 H493 0.930 . S
C503 C496 1.409 . S
C503 C502 1.362 . S
H504 C510 0.930 . S
H505 C513 0.930 . S
H506 C514 0.930 . S
H507 C515 0.930 . S
H508 C518 0.930 . S
H509 C519 0.930 . S
C510 H504 0.930 . S
C510 C511 1.355 . S
C510 C512 1.415 . S
C511 C510 1.355 . S
C511 C513 1.419 . S
C512 C510 1.415 . S
C512 C517 1.425 . S
C512 C519 1.409 . S
C513 H505 0.930 . S
C513 C511 1.419 . S
C513 C514 1.362 . S
C514 H506 0.930 . S
C514 C513 1.362 . S
C514 C517 1.409 . S
C515 H507 0.930 . S
C515 C516 1.355 . S
C515 C517 1.415 1_545 S
C516 C515 1.355 . S
C516 C518 1.419 . S
C517 C512 1.425 . S
C517 C514 1.409 . S
C517 C515 1.415 1_565 S
C518 H508 0.930 . S
C518 C516 1.419 . S
C518 C519 1.362 1_545 S
C519 H509 0.930 . S
C519 C512 1.409 . S
C519 C518 1.362 1_565 S
H520 C526 0.930 . S
H521 C529 0.930 . S
H522 C530 0.930 . S
H523 C531 0.930 1_545 S
H524 C534 0.930 . S
H525 C535 0.930 . S
C526 H520 0.930 . S
C526 C527 1.355 1_565 S
C526 C528 1.415 . S
C527 C526 1.355 1_545 S
C527 C529 1.419 . S
C528 C526 1.415 . S
C528 C533 1.425 . S
C528 C535 1.409 . S
C529 H521 0.930 . S
C529 C527 1.419 . S
C529 C530 1.362 . S
C530 H522 0.930 . S
C530 C529 1.362 . S
C530 C533 1.409 1_545 S
C531 H523 0.930 1_565 S
C531 C532 1.355 . S
C531 C533 1.415 . S
C532 C531 1.355 . S
C532 C534 1.419 . S
C533 C528 1.425 . S
C533 C530 1.409 1_565 S
C533 C531 1.415 . S
C534 H524 0.930 . S
C534 C532 1.419 . S
C534 C535 1.362 . S
C535 H525 0.930 . S
C535 C528 1.409 . S
C535 C534 1.362 . S
H536 C542 0.930 . S
H537 C545 0.930 . S
H538 C546 0.930 . S
H539 C547 0.930 . S
H540 C550 0.930 . S
H541 C551 0.930 . S
C542 H536 0.930 . S
C542 C543 1.355 . S
C542 C544 1.415 1_565 S
C543 C542 1.355 . S
C543 C545 1.419 1_565 S
C544 C542 1.415 1_545 S
C544 C549 1.425 . S
C544 C551 1.409 1_545 S
C545 H537 0.930 . S
C545 C543 1.419 1_545 S
C545 C546 1.362 . S
C546 H538 0.930 . S
C546 C545 1.362 . S
C546 C549 1.409 . S
C547 H539 0.930 . S
C547 C548 1.355 . S
C547 C549 1.415 . S
C548 C547 1.355 . S
C548 C550 1.419 . S
C549 C544 1.425 . S
C549 C546 1.409 . S
C549 C547 1.415 . S
C550 H540 0.930 . S
C550 C548 1.419 . S
C550 C551 1.362 1_545 S
C551 H541 0.930 . S
C551 C544 1.409 1_565 S
C551 C550 1.362 1_565 S
H552 C558 0.930 1_565 S
H553 C561 0.930 . S
H554 C562 0.930 . S
H555 C563 0.930 . S
H556 C566 0.930 . S
H557 C567 0.930 . S
C558 H552 0.930 1_545 S
C558 C559 1.355 . S
C558 C560 1.415 . S
C559 C558 1.355 . S
C559 C561 1.419 . S
C560 C558 1.415 . S
C560 C565 1.427 . S
C560 C567 1.407 1_545 S
C561 H553 0.930 . S
C561 C559 1.419 . S
C561 C562 1.362 . S
C562 H554 0.930 . S
C562 C561 1.362 . S
C562 C565 1.409 . S
C563 H555 0.930 . S
C563 C564 1.355 1_545 S
C563 C565 1.415 . S
C564 C563 1.355 1_565 S
C564 C566 1.419 . S
C565 C560 1.427 . S
C565 C562 1.409 . S
C565 C563 1.415 . S
C566 H556 0.930 . S
C566 C564 1.419 . S
C566 C567 1.362 . S
C567 H557 0.930 . S
C567 C560 1.407 1_565 S
C567 C566 1.362 . S
C191 C40 1.444 . S
C196 C17 1.458 . S
C207 C63 1.464 . S
C212 C86 1.474 . S
C223 C132 1.471 . S
C228 C109 1.440 . S
C239 C155 1.460 . S
C244 C178 1.477 . S
C255 C20 1.395 . S
C260 C158 1.395 . S
C271 C43 1.395 . S
C276 C181 1.395 . S
C287 C112 1.391 . S
C292 C66 1.391 . S
C303 C89 1.389 . S
C308 C135 1.389 . S
C319 C62 1.193 . S
C324 C16 1.193 . S
C335 C85 1.277 . S
C340 C39 1.277 . S
C351 C108 1.186 . S
C356 C154 1.186 . S
C367 C131 1.185 . S
C372 C177 1.185 . S
C383 C18 1.386 . S
C388 C41 1.391 . S
C399 C87 1.363 . S
C404 C64 1.365 . S
C415 C133 1.370 . S
C420 C110 1.374 . S
C431 C179 1.364 . S
C436 C156 1.363 . S
C447 C21 1.575 1_556 S
C452 C88 1.533 . S
C463 C44 1.599 . S
C468 C65 1.507 . S
C479 C42 1.470 . S
C484 C67 1.592 1_554 S
C495 C19 1.473 . S
C500 C90 1.595 . S
C511 C113 1.594 1_556 S
C516 C180 1.471 . S
C527 C157 1.493 . S
C532 C136 1.576 . S
C543 C134 1.550 . S
C548 C159 1.586 1_554 S
C559 C182 1.589 . S
C564 C111 1.467 . S
