# Generated by pormake.
# Topology rob, (6)-cn, num edge types: 1
# Building blocks:
#     Node 0, Type 0, BuildingBlock: KUMBUR_clean_sbu_1, # of connection points: 6
#     Node 1, Type 0, BuildingBlock: KUMBUR_clean_sbu_1, # of connection points: 6
#     Node 2, Type 0, BuildingBlock: KUMBUR_clean_sbu_1, # of connection points: 6
#     Node 3, Type 0, BuildingBlock: KUMBUR_clean_sbu_1, # of connection points: 6
#     Edge 4, Type (0, 0), BuildingBlock: EYOCIG_clean_linker_4, # of connection points: 2
#     Edge 5, Type (0, 0), BuildingBlock: EYOCIG_clean_linker_4, # of connection points: 2
#     Edge 6, Type (0, 0), BuildingBlock: EYOCIG_clean_linker_4, # of connection points: 2
#     Edge 7, Type (0, 0), BuildingBlock: EYOCIG_clean_linker_4, # of connection points: 2
#     Edge 8, Type (0, 0), BuildingBlock: EYOCIG_clean_linker_4, # of connection points: 2
#     Edge 9, Type (0, 0), BuildingBlock: EYOCIG_clean_linker_4, # of connection points: 2
#     Edge 10, Type (0, 0), BuildingBlock: EYOCIG_clean_linker_4, # of connection points: 2
#     Edge 11, Type (0, 0), BuildingBlock: EYOCIG_clean_linker_4, # of connection points: 2
#     Edge 12, Type (0, 0), BuildingBlock: EYOCIG_clean_linker_4, # of connection points: 2
#     Edge 13, Type (0, 0), BuildingBlock: EYOCIG_clean_linker_4, # of connection points: 2
#     Edge 14, Type (0, 0), BuildingBlock: EYOCIG_clean_linker_4, # of connection points: 2
#     Edge 15, Type (0, 0), BuildingBlock: EYOCIG_clean_linker_4, # of connection points: 2
# Relax obj value: 0.024
# Max RMSD: 0.129
# Mean RMSD: 0.129
data_MOF--net-rob--node1-KUMBUR_clean_sbu_1--edge1-EYOCIG_clean_linker_4
_symmetry_space_group_name_H-M    P1
_symmetry_Int_Tables_number       1
_symmetry_cell_setting            triclinic
loop_
_symmetry_equiv_pos_as_xyz
'x, y, z'
_cell_length_a     15.370465
_cell_length_b     18.168638
_cell_length_c     28.704001
_cell_angle_alpha  110.6292
_cell_angle_beta   90.045964
_cell_angle_gamma 89.992621
loop_
_atom_site_label
_atom_site_type_symbol
_atom_site_fract_x
_atom_site_fract_y
_atom_site_fract_z
_atom_type_partial_charge
Tb0 Tb 0.35122 0.16691 0.97663 0.0
C1 C 0.05924 0.45372 0.08717 0.0
N2 N 0.14416 0.44388 0.09609 0.0
C3 C 0.1672 0.58339 0.12159 0.0
C4 C 0.02397 0.52909 0.09677 0.0
C5 C 0.19841 0.50753 0.11357 0.0
C6 C 0.07945 0.5943 0.11317 0.0
C7 C 0.9183 0.39512 0.05925 0.0
C8 C 1.00758 0.38769 0.06788 0.0
C9 C 0.88183 0.47012 0.07085 0.0
C10 C 0.93464 0.53665 0.08968 0.0
Tb11 Tb 0.18649 0.31697 0.08099 0.0
N12 N 0.04508 0.31609 0.05704 0.0
C13 C 0.86852 0.32696 0.03894 0.0
C14 C 0.99653 0.24935 0.0376 0.0
C15 C 0.90798 0.2537 0.02795 0.0
H16 H 0.26545 0.50055 0.12245 0.0
H17 H 0.87053 0.2004 1.01194 0.0
H18 H 0.27081 0.9834 0.93543 0.0
H19 H 0.66476 0.2847 0.04743 0.0
H20 H 0.02509 0.19243 0.02916 0.0
H21 H 0.80012 0.33039 0.03109 0.0
H22 H 0.50899 0.29234 0.03144 0.0
H23 H 0.21041 0.6335 0.13514 0.0
H24 H 0.81319 0.47732 0.06493 0.0
H25 H 0.90543 0.59337 0.0987 0.0
H26 H 0.32662 0.85031 0.92167 0.0
H27 H 0.05508 0.65317 0.12011 0.0
H28 H 0.73587 0.15469 0.02696 0.0
N29 N 0.39172 0.0402 0.96258 0.0
C30 C 0.47667 0.03066 0.97172 0.0
C31 C 0.36948 0.90059 0.93576 0.0
C32 C 0.51255 0.95531 0.961 0.0
C33 C 0.33776 0.97648 0.94449 0.0
C34 C 0.45744 0.88985 0.94391 0.0
N35 N 0.49007 0.16863 1.00378 0.0
C36 C 0.5383 0.23557 0.02298 0.0
C37 C 0.61757 0.08973 0.99958 0.0
C38 C 0.52801 0.09698 0.99183 0.0
C39 C 0.66714 0.15806 0.01993 0.0
C40 C 0.62723 0.23135 0.03176 0.0
H41 H 0.48225 0.83094 0.93619 0.0
H42 H 0.63201 0.89142 0.9572 0.0
H43 H 0.72358 0.00767 0.99183 0.0
O44 O 0.39582 0.22073 0.92625 0.0
O45 O 0.37699 0.17722 0.05421 0.0
O46 O 0.32221 0.29821 0.08739 0.0
O47 O 0.37129 0.09401 0.90249 0.0
O48 O 0.36753 0.29424 0.98994 0.0
O49 O 0.30798 0.37303 0.06611 0.0
O50 O 0.15092 0.26421 0.13322 0.0
O51 O 0.16166 0.3047 1.00269 0.0
O52 O 0.21575 0.18229 0.96509 0.0
O53 O 0.17904 0.38938 0.15637 0.0
O54 O 0.16715 0.18959 0.06573 0.0
O55 O 0.2271 0.11226 0.98915 0.0
C56 C 0.35216 0.23612 0.0935 0.0
C57 C 0.42058 0.14242 0.83857 0.0
C58 C 0.51182 0.16811 0.77672 0.0
C59 C 0.4668 0.1099 0.73932 0.0
C60 C 0.37134 0.08997 0.80004 0.0
C61 C 0.3952 0.07307 0.75066 0.0
C62 C 0.48991 0.18412 0.82696 0.0
C63 C 0.35748 0.36286 0.02613 0.0
C64 C 0.39693 0.15292 0.89009 0.0
C65 C 0.60217 0.94804 0.9674 0.0
C66 C 0.65464 0.01476 0.9867 0.0
C67 C 0.18428 0.24636 0.96207 0.0
C68 C 0.11889 0.34407 0.21912 0.0
C69 C 0.01892 0.31658 0.27704 0.0
C70 C 0.05619 0.3783 0.316 0.0
C71 C 0.1604 0.39952 0.25991 0.0
C72 C 0.04863 0.29983 0.22769 0.0
C73 C 0.12816 0.41762 0.30776 0.0
C74 C 0.17707 0.1217 0.02883 0.0
C75 C 0.15981 0.33044 0.17029 0.0
H76 H 0.48581 0.09461 0.70099 0.0
H77 H 0.31437 0.0617 0.80823 0.0
H78 H 0.35783 0.03182 0.72101 0.0
H79 H 0.52567 0.2281 0.85632 0.0
H80 H 0.0321 0.39347 0.35355 0.0
H81 H 0.21911 0.42859 0.25467 0.0
H82 H 0.02002 0.25218 0.1972 0.0
H83 H 0.1605 0.4607 0.33881 0.0
Tb84 Tb 0.84898 0.66942 0.97723 0.0
C85 C 0.56138 0.95205 0.0833 0.0
N86 N 0.64633 0.94223 0.09231 0.0
C87 C 0.66849 0.082 0.12007 0.0
C88 C 0.52547 0.02751 0.09467 0.0
C89 C 0.70018 0.00596 0.11092 0.0
C90 C 0.58056 0.09293 0.11205 0.0
C91 C 0.41999 0.89341 0.05632 0.0
C92 C 0.50981 0.88592 0.06334 0.0
C93 C 0.383 0.96847 0.06973 0.0
C94 C 0.4357 0.03499 0.08905 0.0
Tb95 Tb 0.68609 0.81532 0.07887 0.0
N96 N 0.54752 0.81422 0.05146 0.0
C97 C 0.36994 0.82524 0.03666 0.0
C98 C 0.49871 0.74754 0.03331 0.0
C99 C 0.40959 0.75189 0.02507 0.0
H100 H 0.76698 -0.00092 0.12025 0.0
H101 H 0.37162 0.69863 1.01027 0.0
H102 H 0.76802 0.48577 0.93574 0.0
H103 H 0.1634 0.78605 0.04584 0.0
H104 H 0.52779 0.69101 0.02561 0.0
H105 H 0.30094 0.82874 0.03035 0.0
H106 H 1.00746 0.79373 0.02992 0.0
H107 H 0.71131 0.13224 0.13455 0.0
H108 H 0.31386 0.97577 0.06535 0.0
H109 H 0.40586 0.09163 0.10037 0.0
H110 H 0.82311 0.35268 0.9223 0.0
H111 H 0.55561 0.15196 0.12033 0.0
H112 H 0.23367 0.65596 0.0268 0.0
N113 N 0.88849 0.54257 0.96409 0.0
C114 C 0.97323 0.53275 0.97357 0.0
C115 C 0.86598 0.40289 0.93681 0.0
C116 C 1.00881 0.45731 0.96287 0.0
C117 C 0.8346 0.47888 0.94544 0.0
C118 C 0.95365 0.39195 0.94543 0.0
N119 N 0.98743 0.67058 1.00478 0.0
C120 C 0.03635 0.73721 0.02268 0.0
C121 C 0.11456 0.59132 1.00085 0.0
C122 C 0.02489 0.59886 0.99342 0.0
C123 C 0.16476 0.65947 0.02022 0.0
C124 C 0.12535 0.73282 0.03122 0.0
H125 H 0.97834 0.33294 0.93761 0.0
H126 H 0.12774 0.39309 0.95911 0.0
H127 H 0.22017 0.50888 0.99318 0.0
O128 O 0.89613 0.72393 0.9274 0.0
O129 O 0.8727 0.68418 0.05608 0.0
O130 O 0.82119 0.80816 0.09548 0.0
O131 O 0.87477 0.59676 0.90405 0.0
O132 O 0.8567 0.7966 0.98848 0.0
O133 O 0.81073 0.8702 0.06828 0.0
O134 O 0.63915 0.76071 0.12871 0.0
O135 O 0.66218 0.80053 1.00004 0.0
O136 O 0.71395 0.67663 0.96051 0.0
O137 O 0.66062 0.88785 0.15212 0.0
O138 O 0.67827 0.68806 0.06749 0.0
O139 O 0.7242 0.61471 0.98765 0.0
C140 C 0.85623 0.74435 0.09703 0.0
C141 C 0.92288 0.64382 0.83979 0.0
C142 C 1.01288 0.66898 0.77734 0.0
C143 C 0.96798 0.61017 0.74023 0.0
C144 C 0.87367 0.59053 0.80157 0.0
C145 C 0.89708 0.57302 0.75204 0.0
C146 C 0.99158 0.68549 0.82767 0.0
C147 C 0.8562 0.86226 0.02744 0.0
C148 C 0.90026 0.65572 0.89165 0.0
C149 C 0.0983 0.44977 0.96933 0.0
C150 C 0.1512 0.51624 0.98828 0.0
C151 C 0.6788 0.74045 0.95905 0.0
C152 C 0.61261 0.84073 0.21638 0.0
C153 C 0.52255 0.81582 0.27891 0.0
C154 C 0.56775 0.87443 0.31598 0.0
C155 C 0.66201 0.89392 0.25457 0.0
C156 C 0.54376 0.79927 0.22856 0.0
C157 C 0.63875 0.91141 0.30412 0.0
C158 C 0.67867 0.62251 0.02844 0.0
C159 C 0.63509 0.8289 0.16449 0.0
H160 H 0.98646 0.59468 0.70178 0.0
H161 H 0.81708 0.56218 0.8101 0.0
H162 H 0.85981 0.53121 0.7226 0.0
H163 H 0.02721 0.73006 0.85675 0.0
H164 H 0.54936 0.88994 0.35445 0.0
H165 H 0.71855 0.92227 0.24599 0.0
H166 H 0.5079 0.75487 0.1995 0.0
H167 H 0.67615 0.95314 0.33353 0.0
Tb168 Tb 0.34898 0.81674 0.57901 0.0
C169 C 0.06093 0.53252 0.4724 0.0
N170 N 0.14588 0.54236 0.46347 0.0
C171 C 0.16774 0.40252 0.43506 0.0
C172 C 0.02491 0.45704 0.46085 0.0
C173 C 0.19968 0.47864 0.4448 0.0
C174 C 0.07977 0.39157 0.44287 0.0
C175 C 0.91985 0.59125 0.49993 0.0
C176 C 1.00959 0.59869 0.49271 0.0
C177 C 0.8828 0.5162 0.48665 0.0
C178 C 0.93531 0.44958 0.46712 0.0
Tb179 Tb 0.18621 0.66938 0.47767 0.0
N180 N 0.04751 0.67037 0.50488 0.0
C181 C 0.87001 0.65948 0.51991 0.0
C182 C 0.99896 0.73714 0.52358 0.0
C183 C 0.90985 0.73281 0.53182 0.0
H184 H 0.26662 0.48564 0.43583 0.0
H185 H 0.87205 0.7861 0.54697 0.0
H186 H 0.26848 0.00043 0.62027 0.0
H187 H 0.6633 0.69979 0.50996 0.0
H188 H 0.02817 0.7938 0.53179 0.0
H189 H 0.80105 0.65605 0.52633 0.0
H190 H 0.50724 0.69211 0.52511 0.0
H191 H 0.21049 0.35228 0.42047 0.0
H192 H 0.8138 0.50898 0.49147 0.0
H193 H 0.90554 0.39288 0.45648 0.0
H194 H 0.32414 0.13354 0.63435 0.0
H195 H 0.05478 0.33252 0.4344 0.0
H196 H 0.73425 0.82983 0.53039 0.0
N197 N 0.38921 0.94359 0.59272 0.0
C198 C 0.47415 0.95336 0.58373 0.0
C199 C 0.36698 0.0833 0.62003 0.0
C200 C 0.50997 0.02879 0.5947 0.0
C201 C 0.33531 0.00731 0.61106 0.0
C202 C 0.45486 0.09419 0.61194 0.0
N203 N 0.48778 0.81553 0.55187 0.0
C204 C 0.53636 0.74876 0.53326 0.0
C205 C 0.61535 0.89462 0.55657 0.0
C206 C 0.52561 0.88719 0.56379 0.0
C207 C 0.66528 0.8264 0.53681 0.0
C208 C 0.62547 0.75308 0.52502 0.0
H209 H 0.47973 0.15319 0.61996 0.0
H210 H 0.62918 0.09293 0.59871 0.0
H211 H 0.72129 0.97691 0.56474 0.0
O212 O 0.39395 0.76223 0.62913 0.0
O213 O 0.37154 0.80346 0.50043 0.0
O214 O 0.32124 0.67922 0.46224 0.0
O215 O 0.37291 0.88954 0.65253 0.0
O216 O 0.36165 0.68957 0.56703 0.0
O217 O 0.3108 0.61441 0.48836 0.0
O218 O 0.14071 0.72456 0.4279 0.0
O219 O 0.1636 0.6825 0.55619 0.0
O220 O 0.21394 0.80667 0.59432 0.0
O221 O 0.16225 0.59735 0.40419 0.0
O222 O 0.17407 0.79648 0.4895 0.0
O223 O 0.22427 0.8715 0.5683 0.0
C224 C 0.35405 0.74322 0.45978 0.0
C225 C 0.42043 0.84157 0.71666 0.0
C226 C 0.50958 0.81455 0.77873 0.0
C227 C 0.46649 0.87454 0.81597 0.0
C228 C 0.37267 0.89592 0.75501 0.0
C229 C 0.39655 0.91307 0.80442 0.0
C230 C 0.48781 0.79829 0.72849 0.0
C231 C 0.35764 0.62284 0.52888 0.0
C232 C 0.39704 0.83033 0.66505 0.0
C233 C 0.59958 0.03624 0.58853 0.0
C234 C 0.65229 0.96967 0.56954 0.0
C235 C 0.18126 0.74266 0.59683 0.0
C236 C 0.1149 0.64544 0.34019 0.0
C237 C 0.02525 0.67117 0.27785 0.0
C238 C 0.0687 0.6112 0.2408 0.0
C239 C 0.16333 0.59151 0.302 0.0
C240 C 0.04698 0.68796 0.32815 0.0
C241 C 0.13924 0.57354 0.25253 0.0
C242 C 0.17777 0.86314 0.52768 0.0
C243 C 0.13757 0.6566 0.39188 0.0
H244 H 0.4855 0.88986 0.85434 0.0
H245 H 0.3167 0.92521 0.74663 0.0
H246 H 0.36026 0.95556 0.83392 0.0
H247 H 0.5221 0.75281 0.69929 0.0
H248 H 0.04941 0.59522 0.20245 0.0
H249 H 0.21951 0.5627 0.3106 0.0
H250 H 1.01221 0.73321 0.35723 0.0
H251 H 0.17558 0.53083 0.22315 0.0
Tb252 Tb 0.84995 0.31598 0.57856 0.0
C253 C 0.56165 0.03268 0.47251 0.0
N254 N 0.64651 0.04259 0.46339 0.0
C255 C 0.66896 0.90289 0.43604 0.0
C256 C 0.52593 0.95718 0.46145 0.0
C257 C 0.70047 0.97893 0.44496 0.0
C258 C 0.58111 0.89186 0.44414 0.0
C259 C 0.42043 0.0912 0.49987 0.0
C260 C 0.51013 0.09878 0.49258 0.0
C261 C 0.38358 0.01609 0.48677 0.0
C262 C 0.43633 0.94957 0.46759 0.0
Tb263 Tb 0.68618 0.16954 0.47677 0.0
N264 N 0.54784 0.17051 0.50452 0.0
C265 C 0.37046 0.15936 0.51981 0.0
C266 C 0.49916 0.23719 0.52316 0.0
C267 C 0.41013 0.23274 0.53159 0.0
H268 H 0.76723 0.98587 0.43567 0.0
H269 H 0.37224 0.28598 0.54674 0.0
H270 H 0.76885 0.49963 0.62026 0.0
H271 H 0.16434 0.19988 0.50984 0.0
H272 H 0.52819 0.29384 0.53113 0.0
H273 H 0.30155 0.15583 0.52634 0.0
H274 H 1.00822 0.19191 0.52497 0.0
H275 H 0.71187 0.85271 0.42171 0.0
H276 H 0.31459 0.00876 0.49157 0.0
H277 H 0.40681 0.89279 0.45716 0.0
H278 H 0.82429 0.63294 0.63482 0.0
H279 H 0.55635 0.83282 0.43611 0.0
H280 H 0.2349 0.33009 0.53018 0.0
N281 N 0.88952 0.44303 0.59228 0.0
C282 C 0.97441 0.45302 0.58327 0.0
C283 C 0.86717 0.58278 0.62027 0.0
C284 C 1.01018 0.52857 0.59468 0.0
C285 C 0.8356 0.50666 0.61098 0.0
C286 C 0.95503 0.59388 0.61224 0.0
N287 N 0.98838 0.31519 0.55115 0.0
C288 C 0.0372 0.24856 0.53282 0.0
C289 C 0.11577 0.39461 0.55611 0.0
C290 C 0.02601 0.38696 0.56316 0.0
C291 C 0.16589 0.32649 0.53643 0.0
C292 C 0.12631 0.25308 0.52469 0.0
H293 H 0.97983 0.65297 0.62056 0.0
H294 H 0.12941 0.59302 0.59947 0.0
H295 H 0.22165 0.47714 0.56486 0.0
O296 O 0.89725 0.2613 0.62846 0.0
O297 O 0.87246 0.30246 0.49958 0.0
O298 O 0.82104 0.17856 0.4602 0.0
O299 O 0.87523 0.38822 0.65196 0.0
O300 O 0.85988 0.18862 0.56634 0.0
O301 O 0.81149 0.11508 0.48686 0.0
O302 O 0.63905 0.22421 0.42692 0.0
O303 O 0.66413 0.18269 0.55552 0.0
O304 O 0.71507 0.30673 0.59476 0.0
O305 O 0.66033 0.09709 0.4035 0.0
O306 O 0.67561 0.29694 0.48911 0.0
O307 O 0.72489 0.37076 0.56837 0.0
C308 C 0.85485 0.24275 0.45844 0.0
C309 C 0.92286 0.34126 0.71651 0.0
C310 C 1.01184 0.3169 0.77996 0.0
C311 C 0.96596 0.37551 0.81658 0.0
C312 C 0.87296 0.3945 0.75435 0.0
C313 C 0.89531 0.41221 0.80409 0.0
C314 C 0.99148 0.30003 0.72935 0.0
C315 C 0.85773 0.12282 0.52748 0.0
C316 C 0.90143 0.32939 0.66431 0.0
C317 C 0.09982 0.53623 0.58872 0.0
C318 C 0.1526 0.46975 0.56943 0.0
C319 C 0.68159 0.24248 0.59653 0.0
C320 C 0.61201 0.14418 0.33915 0.0
C321 C 0.52256 0.16947 0.27626 0.0
C322 C 0.56668 0.10967 0.23945 0.0
C323 C 0.66046 0.08992 0.30106 0.0
C324 C 0.54403 0.18647 0.32673 0.0
C325 C 0.63697 0.07204 0.2515 0.0
C326 C 0.67831 0.36291 0.52785 0.0
C327 C 0.6348 0.15607 0.3911 0.0
H328 H 0.98348 0.39129 0.85523 0.0
H329 H 0.81668 0.42277 0.74538 0.0
H330 H 0.85743 0.45392 0.83321 0.0
H331 H 0.02786 0.25567 0.70059 0.0
H332 H 0.54794 0.09356 0.201 0.0
H333 H 0.71653 0.06107 0.30973 0.0
H334 H 0.50895 0.23169 0.35566 0.0
H335 H 0.67368 0.02948 0.22221 0.0
C336 C 0.55253 0.51909 0.02676 0.0
C337 C 0.61069 0.56468 0.02609 0.0
C338 C 0.48097 0.46836 0.02768 0.0
C339 C 0.42347 0.42239 0.02871 0.0
C340 C 0.48215 0.51823 0.52783 0.0
C341 C 0.4245 0.56406 0.52667 0.0
C342 C 0.55341 0.46739 0.52924 0.0
C343 C 0.6112 0.4216 0.53026 0.0
C344 C 0.05351 0.01604 0.02686 0.0
C345 C 0.11122 0.0618 0.02577 0.0
C346 C 0.98196 0.96561 0.02832 0.0
C347 C 0.9239 0.92021 0.02949 0.0
C348 C 0.98238 0.01841 0.52652 0.0
C349 C 0.9247 0.06413 0.52526 0.0
C350 C 0.05348 0.96765 0.52827 0.0
C351 C 0.11103 0.9219 0.52968 0.0
C352 C 0.42022 0.23323 0.22917 0.0
C353 C 0.46052 0.21366 0.25901 0.0
C354 C 0.38991 0.24074 0.1845 0.0
C355 C 0.37225 0.23958 0.14323 0.0
C356 C 0.4202 0.75207 0.32549 0.0
C357 C 0.46008 0.77173 0.29568 0.0
C358 C 0.39171 0.74428 0.37025 0.0
C359 C 0.37472 0.74427 0.41125 0.0
C360 C 0.63781 0.74114 0.86992 0.0
C361 C 0.65611 0.74177 0.91089 0.0
C362 C 0.60936 0.74857 0.82509 0.0
C363 C 0.57037 0.76886 0.79526 0.0
C364 C 0.64332 0.24012 0.68577 0.0
C365 C 0.66054 0.24063 0.64487 0.0
C366 C 0.61473 0.232 0.73047 0.0
C367 C 0.57472 0.21232 0.76027 0.0
C368 C 0.89678 0.74355 0.1862 0.0
C369 C 0.87867 0.74298 0.14521 0.0
C370 C 0.92512 0.73626 0.2311 0.0
C371 C 0.96419 0.71634 0.26107 0.0
C372 C 0.89304 0.24339 0.36855 0.0
C373 C 0.87617 0.24435 0.40991 0.0
C374 C 0.92001 0.24937 0.3228 0.0
C375 C 0.95844 0.26866 0.29221 0.0
C376 C 0.11439 0.25452 0.82771 0.0
C377 C 0.07441 0.2736 0.79755 0.0
C378 C 0.14421 0.24663 0.87237 0.0
C379 C 0.16252 0.24644 0.91328 0.0
C380 C 0.14341 0.7415 0.68629 0.0
C381 C 0.16053 0.74165 0.64534 0.0
C382 C 0.11485 0.73339 0.73094 0.0
C383 C 0.07505 0.71341 0.76064 0.0
loop_
_geom_bond_atom_site_label_1
_geom_bond_atom_site_label_2
_geom_bond_distance
_geom_bond_site_symmetry_2
_ccdc_geom_bond_type
Tb0 N29 2.617 . S
Tb0 N35 2.572 . S
Tb0 O44 2.465 . S
Tb0 O45 2.387 1_556 S
Tb0 O47 2.428 . S
Tb0 O48 2.308 1_556 S
Tb0 O52 2.349 . S
Tb0 O55 2.393 . S
Tb0 C64 2.802 . S
C1 N2 1.379 . S
C1 C4 1.416 . S
C1 C8 1.424 1_455 S
N2 C1 1.379 . S
N2 C5 1.334 . S
N2 Tb11 2.617 . S
C3 C5 1.390 . S
C3 C6 1.339 . S
C3 H23 0.930 . S
C4 C1 1.416 . S
C4 C6 1.416 . S
C4 C10 1.448 1_455 S
C5 N2 1.334 . S
C5 C3 1.390 . S
C5 H16 0.930 . S
C6 C3 1.339 . S
C6 C4 1.416 . S
C6 H27 0.930 . S
C7 C8 1.413 . S
C7 C9 1.427 . S
C7 C13 1.416 . S
C8 C1 1.424 1_655 S
C8 C7 1.413 . S
C8 N12 1.361 1_655 S
C9 C7 1.427 . S
C9 C10 1.328 . S
C9 H24 0.929 . S
C10 C4 1.448 1_655 S
C10 C9 1.328 . S
C10 H25 0.930 . S
Tb11 N2 2.617 . S
Tb11 N12 2.572 . S
Tb11 O46 2.349 . S
Tb11 O49 2.393 . S
Tb11 O50 2.465 . S
Tb11 O51 2.387 1_554 S
Tb11 O53 2.428 . S
Tb11 O54 2.308 . S
Tb11 C75 2.802 . S
N12 C8 1.361 1_455 S
N12 Tb11 2.572 . S
N12 C14 1.340 1_455 S
C13 C7 1.416 . S
C13 C15 1.332 . S
C13 H21 0.931 1_554 S
C14 N12 1.340 1_655 S
C14 C15 1.407 . S
C14 H20 0.930 . S
C15 C13 1.332 . S
C15 C14 1.407 . S
C15 H17 0.929 . S
H16 C5 0.930 . S
H17 C15 0.929 . S
H18 C33 0.930 . S
H19 C40 0.929 . S
H20 C14 0.930 . S
H21 C13 0.931 1_556 S
H22 C36 0.930 . S
H23 C3 0.930 . S
H24 C9 0.929 . S
H25 C10 0.930 . S
H26 C31 0.930 . S
H27 C6 0.930 . S
H28 C39 0.931 . S
N29 Tb0 2.617 . S
N29 C30 1.379 . S
N29 C33 1.334 1_545 S
C30 N29 1.379 . S
C30 C32 1.416 1_545 S
C30 C38 1.424 . S
C31 H26 0.930 . S
C31 C33 1.390 . S
C31 C34 1.339 . S
C32 C30 1.416 1_565 S
C32 C34 1.416 . S
C32 C65 1.448 . S
C33 H18 0.930 . S
C33 N29 1.334 1_565 S
C33 C31 1.390 . S
C34 C31 1.339 . S
C34 C32 1.416 . S
C34 H41 0.930 . S
N35 Tb0 2.572 . S
N35 C36 1.340 . S
N35 C38 1.361 . S
C36 H22 0.930 . S
C36 N35 1.340 . S
C36 C40 1.407 1_556 S
C37 C38 1.413 1_554 S
C37 C39 1.416 . S
C37 C66 1.427 . S
C38 C30 1.424 . S
C38 N35 1.361 . S
C38 C37 1.413 1_556 S
C39 H28 0.931 . S
C39 C37 1.416 . S
C39 C40 1.332 . S
C40 H19 0.929 . S
C40 C36 1.407 1_554 S
C40 C39 1.332 . S
H41 C34 0.930 . S
H42 C65 0.920 1_554 S
H43 C66 0.929 . S
O44 Tb0 2.465 . S
O44 C64 1.264 . S
O45 Tb0 2.387 1_554 S
O45 C56 1.264 . S
O46 Tb11 2.349 . S
O46 C56 1.243 . S
O47 Tb0 2.428 . S
O47 C64 1.256 . S
O48 Tb0 2.308 1_554 S
O48 C63 1.266 . S
O49 Tb11 2.393 . S
O49 C63 1.248 . S
O50 Tb11 2.465 . S
O50 C75 1.264 . S
O51 Tb11 2.387 1_556 S
O51 C67 1.264 . S
O52 Tb0 2.349 . S
O52 C67 1.243 . S
O53 Tb11 2.428 . S
O53 C75 1.256 . S
O54 Tb11 2.308 . S
O54 C74 1.266 . S
O55 Tb0 2.393 . S
O55 C74 1.248 1_556 S
C56 O45 1.264 . S
C56 O46 1.243 . S
C57 C60 1.399 . S
C57 C62 1.383 . S
C57 C64 1.496 . S
C58 C59 1.399 . S
C58 C62 1.389 . S
C59 C58 1.399 . S
C59 C61 1.380 . S
C59 H76 0.929 . S
C60 C57 1.399 . S
C60 C61 1.392 . S
C60 H77 0.929 1_545 S
C61 C59 1.380 . S
C61 C60 1.392 . S
C61 H78 0.929 1_545 S
C62 C57 1.383 . S
C62 C58 1.389 . S
C62 H79 0.931 . S
C63 O48 1.266 . S
C63 O49 1.248 . S
C64 Tb0 2.802 . S
C64 O44 1.264 . S
C64 O47 1.256 . S
C64 C57 1.496 . S
C65 C32 1.448 . S
C65 H42 0.920 1_556 S
C65 C66 1.328 1_566 S
C66 C37 1.427 . S
C66 H43 0.929 . S
C66 C65 1.328 1_544 S
C67 O51 1.264 . S
C67 O52 1.243 . S
C68 C71 1.399 . S
C68 C72 1.383 . S
C68 C75 1.496 . S
C69 C70 1.399 1_655 S
C69 C72 1.389 1_655 S
C70 C69 1.399 1_455 S
C70 C73 1.380 . S
C70 H80 0.929 1_455 S
C71 C68 1.399 . S
C71 C73 1.392 . S
C71 H81 0.929 . S
C72 C68 1.383 . S
C72 C69 1.389 1_455 S
C72 H82 0.931 . S
C73 C70 1.380 . S
C73 C71 1.392 . S
C73 H83 0.929 . S
C74 O54 1.266 . S
C74 O55 1.248 1_554 S
C75 Tb11 2.802 . S
C75 O50 1.264 . S
C75 O53 1.256 . S
C75 C68 1.496 . S
H76 C59 0.929 . S
H77 C60 0.929 1_565 S
H78 C61 0.929 1_565 S
H79 C62 0.931 . S
H80 C70 0.929 1_655 S
H81 C71 0.929 . S
H82 C72 0.931 . S
H83 C73 0.929 . S
Tb84 N113 2.617 . S
Tb84 N119 2.572 . S
Tb84 O128 2.465 . S
Tb84 O129 2.387 1_556 S
Tb84 O131 2.428 . S
Tb84 O132 2.308 1_556 S
Tb84 O136 2.349 . S
Tb84 O139 2.393 . S
Tb84 C148 2.802 . S
C85 N86 1.379 . S
C85 C88 1.416 1_565 S
C85 C92 1.424 . S
N86 C85 1.379 . S
N86 C89 1.334 1_565 S
N86 Tb95 2.617 . S
C87 C89 1.390 . S
C87 C90 1.339 . S
C87 H107 0.930 . S
C88 C85 1.416 1_545 S
C88 C90 1.416 . S
C88 C94 1.448 . S
C89 N86 1.334 1_545 S
C89 C87 1.390 . S
C89 H100 0.930 . S
C90 C87 1.339 . S
C90 C88 1.416 . S
C90 H111 0.930 . S
C91 C92 1.413 . S
C91 C93 1.427 . S
C91 C97 1.416 . S
C92 C85 1.424 . S
C92 C91 1.413 . S
C92 N96 1.361 . S
C93 C91 1.427 . S
C93 C94 1.328 1_565 S
C93 H108 0.929 . S
C94 C88 1.448 . S
C94 C93 1.328 1_545 S
C94 H109 0.930 . S
Tb95 N86 2.617 . S
Tb95 N96 2.572 . S
Tb95 O130 2.349 . S
Tb95 O133 2.393 . S
Tb95 O134 2.465 . S
Tb95 O135 2.387 1_554 S
Tb95 O137 2.428 . S
Tb95 O138 2.308 . S
Tb95 C159 2.802 . S
N96 C92 1.361 . S
N96 Tb95 2.572 . S
N96 C98 1.340 . S
C97 C91 1.416 . S
C97 C99 1.332 . S
C97 H105 0.931 1_554 S
C98 N96 1.340 . S
C98 C99 1.407 . S
C98 H104 0.930 . S
C99 C97 1.332 . S
C99 C98 1.407 . S
C99 H101 0.929 . S
H100 C89 0.930 . S
H101 C99 0.929 . S
H102 C117 0.930 . S
H103 C124 0.929 . S
H104 C98 0.930 . S
H105 C97 0.931 1_556 S
H106 C120 0.930 . S
H107 C87 0.930 . S
H108 C93 0.929 . S
H109 C94 0.930 . S
H110 C115 0.930 . S
H111 C90 0.930 . S
H112 C123 0.931 . S
N113 Tb84 2.617 . S
N113 C114 1.379 . S
N113 C117 1.334 . S
C114 N113 1.379 . S
C114 C116 1.416 . S
C114 C122 1.424 1_655 S
C115 H110 0.930 . S
C115 C117 1.390 . S
C115 C118 1.339 . S
C116 C114 1.416 . S
C116 C118 1.416 . S
C116 C149 1.448 1_655 S
C117 H102 0.930 . S
C117 N113 1.334 . S
C117 C115 1.390 . S
C118 C115 1.339 . S
C118 C116 1.416 . S
C118 H125 0.930 . S
N119 Tb84 2.572 . S
N119 C120 1.340 1_655 S
N119 C122 1.361 1_655 S
C120 H106 0.930 . S
C120 N119 1.340 1_455 S
C120 C124 1.407 1_556 S
C121 C122 1.413 1_554 S
C121 C123 1.416 . S
C121 C150 1.427 . S
C122 C114 1.424 1_455 S
C122 N119 1.361 1_455 S
C122 C121 1.413 1_556 S
C123 H112 0.931 . S
C123 C121 1.416 . S
C123 C124 1.332 . S
C124 H103 0.929 . S
C124 C120 1.407 1_554 S
C124 C123 1.332 . S
H125 C118 0.930 . S
H126 C149 0.920 1_554 S
H127 C150 0.929 . S
O128 Tb84 2.465 . S
O128 C148 1.264 . S
O129 Tb84 2.387 1_554 S
O129 C140 1.264 . S
O130 Tb95 2.349 . S
O130 C140 1.243 . S
O131 Tb84 2.428 . S
O131 C148 1.256 . S
O132 Tb84 2.308 1_554 S
O132 C147 1.266 . S
O133 Tb95 2.393 . S
O133 C147 1.248 . S
O134 Tb95 2.465 . S
O134 C159 1.264 . S
O135 Tb95 2.387 1_556 S
O135 C151 1.264 . S
O136 Tb84 2.349 . S
O136 C151 1.243 . S
O137 Tb95 2.428 . S
O137 C159 1.256 . S
O138 Tb95 2.308 . S
O138 C158 1.266 . S
O139 Tb84 2.393 . S
O139 C158 1.248 1_556 S
C140 O129 1.264 . S
C140 O130 1.243 . S
C141 C144 1.399 . S
C141 C146 1.383 . S
C141 C148 1.496 . S
C142 C143 1.399 1_455 S
C142 C146 1.389 1_455 S
C143 C142 1.399 1_655 S
C143 C145 1.380 . S
C143 H160 0.929 1_655 S
C144 C141 1.399 . S
C144 C145 1.392 . S
C144 H161 0.929 . S
C145 C143 1.380 . S
C145 C144 1.392 . S
C145 H162 0.929 . S
C146 C141 1.383 . S
C146 C142 1.389 1_655 S
C146 H163 0.931 . S
C147 O132 1.266 . S
C147 O133 1.248 . S
C148 Tb84 2.802 . S
C148 O128 1.264 . S
C148 O131 1.256 . S
C148 C141 1.496 . S
C149 C116 1.448 1_455 S
C149 H126 0.920 1_556 S
C149 C150 1.328 1_556 S
C150 C121 1.427 . S
C150 H127 0.929 . S
C150 C149 1.328 1_554 S
C151 O135 1.264 . S
C151 O136 1.243 . S
C152 C155 1.399 . S
C152 C156 1.383 . S
C152 C159 1.496 . S
C153 C154 1.399 . S
C153 C156 1.389 . S
C154 C153 1.399 . S
C154 C157 1.380 . S
C154 H164 0.929 . S
C155 C152 1.399 . S
C155 C157 1.392 . S
C155 H165 0.929 1_565 S
C156 C152 1.383 . S
C156 C153 1.389 . S
C156 H166 0.931 . S
C157 C154 1.380 . S
C157 C155 1.392 . S
C157 H167 0.929 1_565 S
C158 O138 1.266 . S
C158 O139 1.248 1_554 S
C159 Tb95 2.802 . S
C159 O134 1.264 . S
C159 O137 1.256 . S
C159 C152 1.496 . S
H160 C143 0.929 1_455 S
H161 C144 0.929 . S
H162 C145 0.929 . S
H163 C146 0.931 . S
H164 C154 0.929 . S
H165 C155 0.929 1_545 S
H166 C156 0.931 . S
H167 C157 0.929 1_545 S
Tb168 N197 2.617 . S
Tb168 N203 2.572 . S
Tb168 O212 2.465 . S
Tb168 O213 2.387 . S
Tb168 O215 2.428 . S
Tb168 O216 2.308 . S
Tb168 O220 2.349 . S
Tb168 O223 2.393 . S
Tb168 C232 2.802 . S
C169 N170 1.379 . S
C169 C172 1.416 . S
C169 C176 1.424 1_455 S
N170 C169 1.379 . S
N170 C173 1.334 . S
N170 Tb179 2.617 . S
C171 C173 1.390 . S
C171 C174 1.339 . S
C171 H191 0.930 . S
C172 C169 1.416 . S
C172 C174 1.416 . S
C172 C178 1.448 1_455 S
C173 N170 1.334 . S
C173 C171 1.390 . S
C173 H184 0.930 . S
C174 C171 1.339 . S
C174 C172 1.416 . S
C174 H195 0.930 . S
C175 C176 1.413 . S
C175 C177 1.427 . S
C175 C181 1.416 . S
C176 C169 1.424 1_655 S
C176 C175 1.413 . S
C176 N180 1.361 1_655 S
C177 C175 1.427 . S
C177 C178 1.328 . S
C177 H192 0.929 . S
C178 C172 1.448 1_655 S
C178 C177 1.328 . S
C178 H193 0.930 . S
Tb179 N170 2.617 . S
Tb179 N180 2.572 . S
Tb179 O214 2.349 . S
Tb179 O217 2.393 . S
Tb179 O218 2.465 . S
Tb179 O219 2.387 . S
Tb179 O221 2.428 . S
Tb179 O222 2.308 . S
Tb179 C243 2.802 . S
N180 C176 1.361 1_455 S
N180 Tb179 2.572 . S
N180 C182 1.340 1_455 S
C181 C175 1.416 . S
C181 C183 1.332 . S
C181 H189 0.931 . S
C182 N180 1.340 1_655 S
C182 C183 1.407 . S
C182 H188 0.930 . S
C183 C181 1.332 . S
C183 C182 1.407 . S
C183 H185 0.929 . S
H184 C173 0.930 . S
H185 C183 0.929 . S
H186 C201 0.930 . S
H187 C208 0.929 . S
H188 C182 0.930 . S
H189 C181 0.931 . S
H190 C204 0.930 . S
H191 C171 0.930 . S
H192 C177 0.929 . S
H193 C178 0.930 . S
H194 C199 0.930 . S
H195 C174 0.930 . S
H196 C207 0.931 . S
N197 Tb168 2.617 . S
N197 C198 1.379 . S
N197 C201 1.334 1_565 S
C198 N197 1.379 . S
C198 C200 1.416 1_565 S
C198 C206 1.424 . S
C199 H194 0.930 . S
C199 C201 1.390 . S
C199 C202 1.339 . S
C200 C198 1.416 1_545 S
C200 C202 1.416 . S
C200 C233 1.448 . S
C201 H186 0.930 . S
C201 N197 1.334 1_545 S
C201 C199 1.390 . S
C202 C199 1.339 . S
C202 C200 1.416 . S
C202 H209 0.930 . S
N203 Tb168 2.572 . S
N203 C204 1.340 . S
N203 C206 1.361 . S
C204 H190 0.930 . S
C204 N203 1.340 . S
C204 C208 1.407 . S
C205 C206 1.413 . S
C205 C207 1.416 . S
C205 C234 1.427 . S
C206 C198 1.424 . S
C206 N203 1.361 . S
C206 C205 1.413 . S
C207 H196 0.931 . S
C207 C205 1.416 . S
C207 C208 1.332 . S
C208 H187 0.929 . S
C208 C204 1.407 . S
C208 C207 1.332 . S
H209 C202 0.930 . S
H210 C233 0.930 . S
H211 C234 0.929 . S
O212 Tb168 2.465 . S
O212 C232 1.264 . S
O213 Tb168 2.387 . S
O213 C224 1.264 . S
O214 Tb179 2.349 . S
O214 C224 1.243 . S
O215 Tb168 2.428 . S
O215 C232 1.256 . S
O216 Tb168 2.308 . S
O216 C231 1.266 . S
O217 Tb179 2.393 . S
O217 C231 1.248 . S
O218 Tb179 2.465 . S
O218 C243 1.264 . S
O219 Tb179 2.387 . S
O219 C235 1.264 . S
O220 Tb168 2.349 . S
O220 C235 1.243 . S
O221 Tb179 2.428 . S
O221 C243 1.256 . S
O222 Tb179 2.308 . S
O222 C242 1.266 . S
O223 Tb168 2.393 . S
O223 C242 1.248 . S
C224 O213 1.264 . S
C224 O214 1.243 . S
C225 C228 1.399 . S
C225 C230 1.383 . S
C225 C232 1.496 . S
C226 C227 1.399 . S
C226 C230 1.389 . S
C227 C226 1.399 . S
C227 C229 1.380 . S
C227 H244 0.929 . S
C228 C225 1.399 . S
C228 C229 1.392 . S
C228 H245 0.929 1_565 S
C229 C227 1.380 . S
C229 C228 1.392 . S
C229 H246 0.929 1_565 S
C230 C225 1.383 . S
C230 C226 1.389 . S
C230 H247 0.931 . S
C231 O216 1.266 . S
C231 O217 1.248 . S
C232 Tb168 2.802 . S
C232 O212 1.264 . S
C232 O215 1.256 . S
C232 C225 1.496 . S
C233 C200 1.448 . S
C233 H210 0.930 . S
C233 C234 1.328 1_545 S
C234 C205 1.427 . S
C234 H211 0.929 . S
C234 C233 1.328 1_565 S
C235 O219 1.264 . S
C235 O220 1.243 . S
C236 C239 1.399 . S
C236 C240 1.383 . S
C236 C243 1.496 . S
C237 C238 1.399 1_655 S
C237 C240 1.389 1_655 S
C238 C237 1.399 1_455 S
C238 C241 1.380 . S
C238 H248 0.929 1_455 S
C239 C236 1.399 . S
C239 C241 1.392 . S
C239 H249 0.929 . S
C240 C236 1.383 . S
C240 C237 1.389 1_455 S
C240 H250 0.931 . S
C241 C238 1.380 . S
C241 C239 1.392 . S
C241 H251 0.929 . S
C242 O222 1.266 . S
C242 O223 1.248 . S
C243 Tb179 2.802 . S
C243 O218 1.264 . S
C243 O221 1.256 . S
C243 C236 1.496 . S
H244 C227 0.929 . S
H245 C228 0.929 1_545 S
H246 C229 0.929 1_545 S
H247 C230 0.931 . S
H248 C238 0.929 1_655 S
H249 C239 0.929 . S
H250 C240 0.931 . S
H251 C241 0.929 . S
Tb252 N281 2.617 . S
Tb252 N287 2.572 . S
Tb252 O296 2.465 . S
Tb252 O297 2.387 . S
Tb252 O299 2.428 . S
Tb252 O300 2.308 . S
Tb252 O304 2.349 . S
Tb252 O307 2.393 . S
Tb252 C316 2.802 . S
C253 N254 1.379 . S
C253 C256 1.416 1_545 S
C253 C260 1.424 . S
N254 C253 1.379 . S
N254 C257 1.334 1_545 S
N254 Tb263 2.617 . S
C255 C257 1.390 . S
C255 C258 1.339 . S
C255 H275 0.930 . S
C256 C253 1.416 1_565 S
C256 C258 1.416 . S
C256 C262 1.448 . S
C257 N254 1.334 1_565 S
C257 C255 1.390 . S
C257 H268 0.930 . S
C258 C255 1.339 . S
C258 C256 1.416 . S
C258 H279 0.930 . S
C259 C260 1.413 . S
C259 C261 1.427 . S
C259 C265 1.416 . S
C260 C253 1.424 . S
C260 C259 1.413 . S
C260 N264 1.361 . S
C261 C259 1.427 . S
C261 C262 1.328 1_545 S
C261 H276 0.929 . S
C262 C256 1.448 . S
C262 C261 1.328 1_565 S
C262 H277 0.930 . S
Tb263 N254 2.617 . S
Tb263 N264 2.572 . S
Tb263 O298 2.349 . S
Tb263 O301 2.393 . S
Tb263 O302 2.465 . S
Tb263 O303 2.387 . S
Tb263 O305 2.428 . S
Tb263 O306 2.308 . S
Tb263 C327 2.802 . S
N264 C260 1.361 . S
N264 Tb263 2.572 . S
N264 C266 1.340 . S
C265 C259 1.416 . S
C265 C267 1.332 . S
C265 H273 0.931 . S
C266 N264 1.340 . S
C266 C267 1.407 . S
C266 H272 0.930 . S
C267 C265 1.332 . S
C267 C266 1.407 . S
C267 H269 0.929 . S
H268 C257 0.930 . S
H269 C267 0.929 . S
H270 C285 0.930 . S
H271 C292 0.929 . S
H272 C266 0.930 . S
H273 C265 0.931 . S
H274 C288 0.930 . S
H275 C255 0.930 . S
H276 C261 0.929 . S
H277 C262 0.930 . S
H278 C283 0.930 . S
H279 C258 0.930 . S
H280 C291 0.931 . S
N281 Tb252 2.617 . S
N281 C282 1.379 . S
N281 C285 1.334 . S
C282 N281 1.379 . S
C282 C284 1.416 . S
C282 C290 1.424 1_655 S
C283 H278 0.930 . S
C283 C285 1.390 . S
C283 C286 1.339 . S
C284 C282 1.416 . S
C284 C286 1.416 . S
C284 C317 1.448 1_655 S
C285 H270 0.930 . S
C285 N281 1.334 . S
C285 C283 1.390 . S
C286 C283 1.339 . S
C286 C284 1.416 . S
C286 H293 0.930 . S
N287 Tb252 2.572 . S
N287 C288 1.340 1_655 S
N287 C290 1.361 1_655 S
C288 H274 0.930 . S
C288 N287 1.340 1_455 S
C288 C292 1.407 . S
C289 C290 1.413 . S
C289 C291 1.416 . S
C289 C318 1.427 . S
C290 C282 1.424 1_455 S
C290 N287 1.361 1_455 S
C290 C289 1.413 . S
C291 H280 0.931 . S
C291 C289 1.416 . S
C291 C292 1.332 . S
C292 H271 0.929 . S
C292 C288 1.407 . S
C292 C291 1.332 . S
H293 C286 0.930 . S
H294 C317 0.930 . S
H295 C318 0.929 . S
O296 Tb252 2.465 . S
O296 C316 1.264 . S
O297 Tb252 2.387 . S
O297 C308 1.264 . S
O298 Tb263 2.349 . S
O298 C308 1.243 . S
O299 Tb252 2.428 . S
O299 C316 1.256 . S
O300 Tb252 2.308 . S
O300 C315 1.266 . S
O301 Tb263 2.393 . S
O301 C315 1.248 . S
O302 Tb263 2.465 . S
O302 C327 1.264 . S
O303 Tb263 2.387 . S
O303 C319 1.264 . S
O304 Tb252 2.349 . S
O304 C319 1.243 . S
O305 Tb263 2.428 . S
O305 C327 1.256 . S
O306 Tb263 2.308 . S
O306 C326 1.266 . S
O307 Tb252 2.393 . S
O307 C326 1.248 . S
C308 O297 1.264 . S
C308 O298 1.243 . S
C309 C312 1.399 . S
C309 C314 1.383 . S
C309 C316 1.496 . S
C310 C311 1.399 1_455 S
C310 C314 1.389 1_455 S
C311 C310 1.399 1_655 S
C311 C313 1.380 . S
C311 H328 0.929 1_655 S
C312 C309 1.399 . S
C312 C313 1.392 . S
C312 H329 0.929 . S
C313 C311 1.380 . S
C313 C312 1.392 . S
C313 H330 0.929 . S
C314 C309 1.383 . S
C314 C310 1.389 1_655 S
C314 H331 0.931 . S
C315 O300 1.266 . S
C315 O301 1.248 . S
C316 Tb252 2.802 . S
C316 O296 1.264 . S
C316 O299 1.256 . S
C316 C309 1.496 . S
C317 C284 1.448 1_455 S
C317 H294 0.930 . S
C317 C318 1.328 . S
C318 C289 1.427 . S
C318 H295 0.929 . S
C318 C317 1.328 . S
C319 O303 1.264 . S
C319 O304 1.243 . S
C320 C323 1.399 . S
C320 C324 1.383 . S
C320 C327 1.496 . S
C321 C322 1.399 . S
C321 C324 1.389 . S
C322 C321 1.399 . S
C322 C325 1.380 . S
C322 H332 0.929 . S
C323 C320 1.399 . S
C323 C325 1.392 . S
C323 H333 0.929 1_545 S
C324 C320 1.383 . S
C324 C321 1.389 . S
C324 H334 0.931 . S
C325 C322 1.380 . S
C325 C323 1.392 . S
C325 H335 0.929 1_545 S
C326 O306 1.266 . S
C326 O307 1.248 . S
C327 Tb263 2.802 . S
C327 O302 1.264 . S
C327 O305 1.256 . S
C327 C320 1.496 . S
H328 C311 0.929 1_455 S
H329 C312 0.929 . S
H330 C313 0.929 . S
H331 C314 0.931 . S
H332 C322 0.929 . S
H333 C323 0.929 1_565 S
H334 C324 0.931 . S
H335 C325 0.929 1_565 S
C336 C337 1.170 . S
C336 C338 1.380 . S
C337 C336 1.170 . S
C338 C336 1.380 . S
C338 C339 1.170 . S
C339 C338 1.170 . S
C340 C341 1.170 . S
C340 C342 1.380 . S
C341 C340 1.170 . S
C342 C340 1.380 . S
C342 C343 1.170 . S
C343 C342 1.170 . S
C344 C345 1.170 . S
C344 C346 1.380 1_445 S
C345 C344 1.170 . S
C346 C344 1.380 1_665 S
C346 C347 1.170 . S
C347 C346 1.170 . S
C348 C349 1.170 . S
C348 C350 1.380 1_645 S
C349 C348 1.170 . S
C350 C348 1.380 1_465 S
C350 C351 1.170 . S
C351 C350 1.170 . S
C352 C353 1.170 . S
C352 C354 1.380 . S
C353 C352 1.170 . S
C354 C352 1.380 . S
C354 C355 1.170 . S
C355 C354 1.170 . S
C356 C357 1.170 . S
C356 C358 1.380 . S
C357 C356 1.170 . S
C358 C356 1.380 . S
C358 C359 1.170 . S
C359 C358 1.170 . S
C360 C361 1.170 . S
C360 C362 1.380 . S
C361 C360 1.170 . S
C362 C360 1.380 . S
C362 C363 1.170 . S
C363 C362 1.170 . S
C364 C365 1.170 . S
C364 C366 1.380 . S
C365 C364 1.170 . S
C366 C364 1.380 . S
C366 C367 1.170 . S
C367 C366 1.170 . S
C368 C369 1.170 . S
C368 C370 1.380 . S
C369 C368 1.170 . S
C370 C368 1.380 . S
C370 C371 1.170 . S
C371 C370 1.170 . S
C372 C373 1.170 . S
C372 C374 1.380 . S
C373 C372 1.170 . S
C374 C372 1.380 . S
C374 C375 1.170 . S
C375 C374 1.170 . S
C376 C377 1.170 . S
C376 C378 1.380 . S
C377 C376 1.170 . S
C378 C376 1.380 . S
C378 C379 1.170 . S
C379 C378 1.170 . S
C380 C381 1.170 . S
C380 C382 1.380 . S
C381 C380 1.170 . S
C382 C380 1.380 . S
C382 C383 1.170 . S
C383 C382 1.170 . S
C337 C158 1.520 . S
C339 C63 1.540 . S
C341 C231 1.531 . S
C343 C326 1.532 . S
C345 C74 1.541 . S
C347 C147 1.518 . S
C349 C315 1.515 . S
C351 C242 1.539 . S
C353 C321 1.278 . S
C355 C56 1.371 . S
C357 C153 1.330 . S
C359 C224 1.356 . S
C361 C151 1.379 . S
C363 C226 1.311 . S
C365 C319 1.355 . S
C367 C58 1.301 . S
C369 C140 1.378 . S
C371 C237 1.300 . S
C373 C308 1.358 . S
C375 C69 1.301 . S
C377 C310 1.287 . S
C379 C67 1.354 . S
C381 C235 1.362 . S
C383 C142 1.319 . S
