# Generated by pormake.
# Topology ict, (4)-cn, num edge types: 1
# Building blocks:
#     Node 0, Type 0, BuildingBlock: KUFVIS_clean_sbu_0, # of connection points: 4
#     Node 1, Type 0, BuildingBlock: KUFVIS_clean_sbu_0, # of connection points: 4
#     Node 2, Type 0, BuildingBlock: KUFVIS_clean_sbu_0, # of connection points: 4
#     Node 3, Type 0, BuildingBlock: KUFVIS_clean_sbu_0, # of connection points: 4
#     Node 4, Type 0, BuildingBlock: KUFVIS_clean_sbu_0, # of connection points: 4
#     Node 5, Type 0, BuildingBlock: KUFVIS_clean_sbu_0, # of connection points: 4
#     Node 6, Type 0, BuildingBlock: KUFVIS_clean_sbu_0, # of connection points: 4
#     Node 7, Type 0, BuildingBlock: KUFVIS_clean_sbu_0, # of connection points: 4
#     Node 8, Type 0, BuildingBlock: KUFVIS_clean_sbu_0, # of connection points: 4
#     Node 9, Type 0, BuildingBlock: KUFVIS_clean_sbu_0, # of connection points: 4
#     Node 10, Type 0, BuildingBlock: KUFVIS_clean_sbu_0, # of connection points: 4
#     Node 11, Type 0, BuildingBlock: KUFVIS_clean_sbu_0, # of connection points: 4
#     Node 12, Type 0, BuildingBlock: KUFVIS_clean_sbu_0, # of connection points: 4
#     Node 13, Type 0, BuildingBlock: KUFVIS_clean_sbu_0, # of connection points: 4
#     Node 14, Type 0, BuildingBlock: KUFVIS_clean_sbu_0, # of connection points: 4
#     Node 15, Type 0, BuildingBlock: KUFVIS_clean_sbu_0, # of connection points: 4
#     Node 16, Type 0, BuildingBlock: KUFVIS_clean_sbu_0, # of connection points: 4
#     Node 17, Type 0, BuildingBlock: KUFVIS_clean_sbu_0, # of connection points: 4
#     Node 18, Type 0, BuildingBlock: KUFVIS_clean_sbu_0, # of connection points: 4
#     Node 19, Type 0, BuildingBlock: KUFVIS_clean_sbu_0, # of connection points: 4
#     Node 20, Type 0, BuildingBlock: KUFVIS_clean_sbu_0, # of connection points: 4
#     Node 21, Type 0, BuildingBlock: KUFVIS_clean_sbu_0, # of connection points: 4
#     Node 22, Type 0, BuildingBlock: KUFVIS_clean_sbu_0, # of connection points: 4
#     Node 23, Type 0, BuildingBlock: KUFVIS_clean_sbu_0, # of connection points: 4
#     Node 24, Type 0, BuildingBlock: KUFVIS_clean_sbu_0, # of connection points: 4
#     Node 25, Type 0, BuildingBlock: KUFVIS_clean_sbu_0, # of connection points: 4
#     Node 26, Type 0, BuildingBlock: KUFVIS_clean_sbu_0, # of connection points: 4
#     Node 27, Type 0, BuildingBlock: KUFVIS_clean_sbu_0, # of connection points: 4
#     Node 28, Type 0, BuildingBlock: KUFVIS_clean_sbu_0, # of connection points: 4
#     Node 29, Type 0, BuildingBlock: KUFVIS_clean_sbu_0, # of connection points: 4
#     Node 30, Type 0, BuildingBlock: KUFVIS_clean_sbu_0, # of connection points: 4
#     Node 31, Type 0, BuildingBlock: KUFVIS_clean_sbu_0, # of connection points: 4
#     Node 32, Type 0, BuildingBlock: KUFVIS_clean_sbu_0, # of connection points: 4
#     Node 33, Type 0, BuildingBlock: KUFVIS_clean_sbu_0, # of connection points: 4
#     Node 34, Type 0, BuildingBlock: KUFVIS_clean_sbu_0, # of connection points: 4
#     Node 35, Type 0, BuildingBlock: KUFVIS_clean_sbu_0, # of connection points: 4
#     Edge 36, Type (0, 0), BuildingBlock: AJUNOK_clean_linker_0, # of connection points: 2
#     Edge 37, Type (0, 0), BuildingBlock: AJUNOK_clean_linker_0, # of connection points: 2
#     Edge 38, Type (0, 0), BuildingBlock: AJUNOK_clean_linker_0, # of connection points: 2
#     Edge 39, Type (0, 0), BuildingBlock: AJUNOK_clean_linker_0, # of connection points: 2
#     Edge 40, Type (0, 0), BuildingBlock: AJUNOK_clean_linker_0, # of connection points: 2
#     Edge 41, Type (0, 0), BuildingBlock: AJUNOK_clean_linker_0, # of connection points: 2
#     Edge 42, Type (0, 0), BuildingBlock: AJUNOK_clean_linker_0, # of connection points: 2
#     Edge 43, Type (0, 0), BuildingBlock: AJUNOK_clean_linker_0, # of connection points: 2
#     Edge 44, Type (0, 0), BuildingBlock: AJUNOK_clean_linker_0, # of connection points: 2
#     Edge 45, Type (0, 0), BuildingBlock: AJUNOK_clean_linker_0, # of connection points: 2
#     Edge 46, Type (0, 0), BuildingBlock: AJUNOK_clean_linker_0, # of connection points: 2
#     Edge 47, Type (0, 0), BuildingBlock: AJUNOK_clean_linker_0, # of connection points: 2
#     Edge 48, Type (0, 0), BuildingBlock: AJUNOK_clean_linker_0, # of connection points: 2
#     Edge 49, Type (0, 0), BuildingBlock: AJUNOK_clean_linker_0, # of connection points: 2
#     Edge 50, Type (0, 0), BuildingBlock: AJUNOK_clean_linker_0, # of connection points: 2
#     Edge 51, Type (0, 0), BuildingBlock: AJUNOK_clean_linker_0, # of connection points: 2
#     Edge 52, Type (0, 0), BuildingBlock: AJUNOK_clean_linker_0, # of connection points: 2
#     Edge 53, Type (0, 0), BuildingBlock: AJUNOK_clean_linker_0, # of connection points: 2
#     Edge 54, Type (0, 0), BuildingBlock: AJUNOK_clean_linker_0, # of connection points: 2
#     Edge 55, Type (0, 0), BuildingBlock: AJUNOK_clean_linker_0, # of connection points: 2
#     Edge 56, Type (0, 0), BuildingBlock: AJUNOK_clean_linker_0, # of connection points: 2
#     Edge 57, Type (0, 0), BuildingBlock: AJUNOK_clean_linker_0, # of connection points: 2
#     Edge 58, Type (0, 0), BuildingBlock: AJUNOK_clean_linker_0, # of connection points: 2
#     Edge 59, Type (0, 0), BuildingBlock: AJUNOK_clean_linker_0, # of connection points: 2
#     Edge 60, Type (0, 0), BuildingBlock: AJUNOK_clean_linker_0, # of connection points: 2
#     Edge 61, Type (0, 0), BuildingBlock: AJUNOK_clean_linker_0, # of connection points: 2
#     Edge 62, Type (0, 0), BuildingBlock: AJUNOK_clean_linker_0, # of connection points: 2
#     Edge 63, Type (0, 0), BuildingBlock: AJUNOK_clean_linker_0, # of connection points: 2
#     Edge 64, Type (0, 0), BuildingBlock: AJUNOK_clean_linker_0, # of connection points: 2
#     Edge 65, Type (0, 0), BuildingBlock: AJUNOK_clean_linker_0, # of connection points: 2
#     Edge 66, Type (0, 0), BuildingBlock: AJUNOK_clean_linker_0, # of connection points: 2
#     Edge 67, Type (0, 0), BuildingBlock: AJUNOK_clean_linker_0, # of connection points: 2
#     Edge 68, Type (0, 0), BuildingBlock: AJUNOK_clean_linker_0, # of connection points: 2
#     Edge 69, Type (0, 0), BuildingBlock: AJUNOK_clean_linker_0, # of connection points: 2
#     Edge 70, Type (0, 0), BuildingBlock: AJUNOK_clean_linker_0, # of connection points: 2
#     Edge 71, Type (0, 0), BuildingBlock: AJUNOK_clean_linker_0, # of connection points: 2
#     Edge 72, Type (0, 0), BuildingBlock: AJUNOK_clean_linker_0, # of connection points: 2
#     Edge 73, Type (0, 0), BuildingBlock: AJUNOK_clean_linker_0, # of connection points: 2
#     Edge 74, Type (0, 0), BuildingBlock: AJUNOK_clean_linker_0, # of connection points: 2
#     Edge 75, Type (0, 0), BuildingBlock: AJUNOK_clean_linker_0, # of connection points: 2
#     Edge 76, Type (0, 0), BuildingBlock: AJUNOK_clean_linker_0, # of connection points: 2
#     Edge 77, Type (0, 0), BuildingBlock: AJUNOK_clean_linker_0, # of connection points: 2
#     Edge 78, Type (0, 0), BuildingBlock: AJUNOK_clean_linker_0, # of connection points: 2
#     Edge 79, Type (0, 0), BuildingBlock: AJUNOK_clean_linker_0, # of connection points: 2
#     Edge 80, Type (0, 0), BuildingBlock: AJUNOK_clean_linker_0, # of connection points: 2
#     Edge 81, Type (0, 0), BuildingBlock: AJUNOK_clean_linker_0, # of connection points: 2
#     Edge 82, Type (0, 0), BuildingBlock: AJUNOK_clean_linker_0, # of connection points: 2
#     Edge 83, Type (0, 0), BuildingBlock: AJUNOK_clean_linker_0, # of connection points: 2
#     Edge 84, Type (0, 0), BuildingBlock: AJUNOK_clean_linker_0, # of connection points: 2
#     Edge 85, Type (0, 0), BuildingBlock: AJUNOK_clean_linker_0, # of connection points: 2
#     Edge 86, Type (0, 0), BuildingBlock: AJUNOK_clean_linker_0, # of connection points: 2
#     Edge 87, Type (0, 0), BuildingBlock: AJUNOK_clean_linker_0, # of connection points: 2
#     Edge 88, Type (0, 0), BuildingBlock: AJUNOK_clean_linker_0, # of connection points: 2
#     Edge 89, Type (0, 0), BuildingBlock: AJUNOK_clean_linker_0, # of connection points: 2
#     Edge 90, Type (0, 0), BuildingBlock: AJUNOK_clean_linker_0, # of connection points: 2
#     Edge 91, Type (0, 0), BuildingBlock: AJUNOK_clean_linker_0, # of connection points: 2
#     Edge 92, Type (0, 0), BuildingBlock: AJUNOK_clean_linker_0, # of connection points: 2
#     Edge 93, Type (0, 0), BuildingBlock: AJUNOK_clean_linker_0, # of connection points: 2
#     Edge 94, Type (0, 0), BuildingBlock: AJUNOK_clean_linker_0, # of connection points: 2
#     Edge 95, Type (0, 0), BuildingBlock: AJUNOK_clean_linker_0, # of connection points: 2
#     Edge 96, Type (0, 0), BuildingBlock: AJUNOK_clean_linker_0, # of connection points: 2
#     Edge 97, Type (0, 0), BuildingBlock: AJUNOK_clean_linker_0, # of connection points: 2
#     Edge 98, Type (0, 0), BuildingBlock: AJUNOK_clean_linker_0, # of connection points: 2
#     Edge 99, Type (0, 0), BuildingBlock: AJUNOK_clean_linker_0, # of connection points: 2
#     Edge 100, Type (0, 0), BuildingBlock: AJUNOK_clean_linker_0, # of connection points: 2
#     Edge 101, Type (0, 0), BuildingBlock: AJUNOK_clean_linker_0, # of connection points: 2
#     Edge 102, Type (0, 0), BuildingBlock: AJUNOK_clean_linker_0, # of connection points: 2
#     Edge 103, Type (0, 0), BuildingBlock: AJUNOK_clean_linker_0, # of connection points: 2
#     Edge 104, Type (0, 0), BuildingBlock: AJUNOK_clean_linker_0, # of connection points: 2
#     Edge 105, Type (0, 0), BuildingBlock: AJUNOK_clean_linker_0, # of connection points: 2
#     Edge 106, Type (0, 0), BuildingBlock: AJUNOK_clean_linker_0, # of connection points: 2
#     Edge 107, Type (0, 0), BuildingBlock: AJUNOK_clean_linker_0, # of connection points: 2
# Relax obj value: 0.085
# Max RMSD: 0.112
# Mean RMSD: 0.112
data_MOF--net-ict--node1-KUFVIS_clean_sbu_0--edge1-AJUNOK_clean_linker_0
_symmetry_space_group_name_H-M    P1
_symmetry_Int_Tables_number       1
_symmetry_cell_setting            triclinic
loop_
_symmetry_equiv_pos_as_xyz
'x, y, z'
_cell_length_a     47.238988
_cell_length_b     47.219149
_cell_length_c     26.809023
_cell_angle_alpha  89.974483
_cell_angle_beta   90.007439
_cell_angle_gamma 119.98786
loop_
_atom_site_label
_atom_site_type_symbol
_atom_site_fract_x
_atom_site_fract_y
_atom_site_fract_z
_atom_type_partial_charge
Mn0 Mn 0.23644 0.22786 0.07865 0.0
Mn1 Mn 0.20732 0.20214 0.96246 0.0
C2 C 0.20085 0.24257 0.04075 0.0
C3 C 0.23344 0.22362 0.16629 0.0
C4 C 0.27805 0.2534 0.98427 0.0
O5 O 0.24393 0.18858 0.06793 0.0
O6 O 0.21792 0.17056 0.99377 0.0
C7 C 0.14501 0.14298 0.98962 0.0
N8 N 0.16128 0.17209 0.96514 0.0
C9 C 0.11075 0.16723 0.93637 0.0
C10 C 0.09354 0.13679 0.96019 0.0
C11 C 0.11075 0.12471 0.98718 0.0
C12 C 0.14492 0.18425 0.9399 0.0
H13 H 0.15806 0.13411 1.01162 0.0
C14 C 0.23294 0.16788 0.03178 0.0
O15 O 0.26085 0.24086 0.14291 0.0
O16 O 0.20775 0.20685 0.13861 0.0
N17 N 0.19581 0.2308 0.9289 0.0
C18 C 0.21586 0.26162 0.91141 0.0
C19 C 0.2024 0.27779 0.88502 0.0
C20 C 0.1685 0.26217 0.87701 0.0
C21 C 0.14837 0.2304 0.89521 0.0
C22 C 0.16323 0.21529 0.92047 0.0
H23 H 0.24192 0.27378 0.91749 0.0
O24 O 0.22009 0.26028 0.0765 0.0
O25 O 0.20397 0.21788 0.02808 0.0
O26 O 0.27386 0.25534 0.03076 0.0
O27 O 0.25498 0.23367 0.95544 0.0
C28 C 0.11408 0.21339 0.89007 0.0
C29 C 0.09527 0.18188 0.9108 0.0
H30 H 0.06708 0.12282 0.95891 0.0
H31 H 0.09762 0.10155 1.00653 0.0
H32 H 0.21809 0.30233 0.87117 0.0
H33 H 0.15817 0.2749 0.85724 0.0
H34 H 0.10188 0.22454 0.871 0.0
H35 H 0.06889 0.16935 0.90758 0.0
Mn36 Mn 0.78994 0.01197 0.08053 0.0
Mn37 Mn 0.81131 1.00484 0.96308 0.0
C38 C 0.77266 0.96034 0.04459 0.0
C39 C 0.79727 0.01465 0.16786 0.0
C40 C 0.76245 0.02709 0.98724 0.0
O41 O 0.82974 0.05794 0.06628 0.0
O42 O 0.8444 0.04746 0.99116 0.0
C43 C 0.86945 0.9997 0.98969 0.0
N44 N 0.8404 0.98766 0.96534 0.0
C45 C 0.8433 0.94074 0.93731 0.0
C46 C 0.87399 0.95347 0.96012 0.0
C47 C 0.887 0.98298 0.98676 0.0
C48 C 0.82714 0.95873 0.94106 0.0
H49 H 0.87862 0.02133 1.01244 0.0
C50 C 0.84912 0.06631 0.02848 0.0
O51 O 0.77973 0.02509 0.14597 0.0
O52 O 0.81242 1.0046 0.13878 0.0
N53 N 0.78114 0.96426 0.93203 0.0
C54 C 0.75006 0.95386 0.91625 0.0
C55 C 0.73279 0.92393 0.89091 0.0
C56 C 0.74768 0.90504 0.88196 0.0
C57 C 0.77974 0.91629 0.8984 0.0
C58 C 0.79588 0.94652 0.92289 0.0
H59 H 0.73855 0.96834 0.92284 0.0
O60 O 0.75656 0.96334 0.08146 0.0
O61 O 0.79712 0.9876 0.02974 0.0
O62 O 0.76184 0.02215 0.03406 0.0
O63 O 0.78057 0.02201 0.95728 0.0
C64 C 0.79599 0.89828 0.89266 0.0
C65 C 0.82767 0.91041 0.91238 0.0
H66 H 0.88734 0.94036 0.95862 0.0
H67 H 0.91018 0.99245 1.00585 0.0
H68 H 0.70804 0.91539 0.87837 0.0
H69 H 0.73415 0.8818 0.86288 0.0
H70 H 0.78406 0.87474 0.87415 0.0
H71 H 0.83956 0.89595 0.90888 0.0
Mn72 Mn 1.00176 0.77886 0.07944 0.0
Mn73 Mn 1.00598 0.80777 0.96275 0.0
C74 C 0.05227 0.81533 0.04282 0.0
C75 C 0.99934 0.78163 0.16708 0.0
C76 C 0.98819 0.73753 0.98506 0.0
O77 O 0.9547 0.77013 0.06704 0.0
O78 O 0.96292 0.79551 0.99228 0.0
C79 C 1.00611 0.86876 0.98893 0.0
N80 N 0.02026 0.85346 0.96529 0.0
C81 C 0.06499 0.90489 0.93723 0.0
C82 C 0.0504 0.9211 0.96014 0.0
C83 C 0.02093 0.90296 0.98637 0.0
C84 C 0.04896 0.87074 0.9408 0.0
H85 H 0.98403 0.85502 1.01034 0.0
C86 C 0.9449 0.78028 0.0299 0.0
O87 O 0.99005 0.75437 0.14369 0.0
O88 O 0.00802 0.80727 0.13934 0.0
N89 N 0.04691 0.8208 0.93067 0.0
C90 C 0.05902 0.80169 0.91404 0.0
C91 C 0.08905 0.81619 0.88868 0.0
C92 C 0.10633 0.85014 0.88075 0.0
C93 C 0.09331 0.86929 0.89797 0.0
C94 C 0.06301 0.85341 0.92226 0.0
H95 H 0.04588 0.77559 0.92009 0.0
O96 O 0.05072 0.79625 0.07886 0.0
O97 O 0.02441 0.81169 0.02914 0.0
O98 O 0.99325 0.74165 0.03181 0.0
O99 O 0.9916 0.76049 0.95589 0.0
C100 C 0.10947 0.90357 0.89278 0.0
C101 C 0.09538 0.92137 0.91254 0.0
H102 H 0.06195 0.94751 0.95875 0.0
H103 H 0.00984 0.91532 1.00502 0.0
H104 H 0.09897 0.80125 0.87556 0.0
H105 H 0.1297 0.86128 0.86178 0.0
H106 H 0.13302 0.91655 0.87442 0.0
H107 H 0.10838 0.94777 0.90927 0.0
Mn108 Mn 0.22689 0.23394 0.47096 0.0
Mn109 Mn 0.19944 0.20203 0.58541 0.0
C110 C 0.24103 0.19745 0.50724 0.0
C111 C 0.22331 0.2323 0.38322 0.0
C112 C 0.25175 0.27304 0.5679 0.0
O113 O 0.18783 0.24166 0.48166 0.0
O114 O 0.16922 0.21473 0.55495 0.0
C115 C 0.13973 0.14155 0.55392 0.0
N116 N 0.16844 0.15636 0.57958 0.0
C117 C 0.1614 0.10436 0.60531 0.0
C118 C 0.13135 0.0886 0.58017 0.0
C119 C 0.12057 0.10729 0.55413 0.0
C120 C 0.17935 0.13859 0.60397 0.0
H121 H 0.13181 0.15575 0.53275 0.0
C122 C 0.16706 0.23057 0.51765 0.0
O123 O 0.24057 0.25938 0.40749 0.0
O124 O 0.20629 0.20626 0.41006 0.0
N125 N 0.22661 0.1884 0.61842 0.0
C126 C 0.25724 0.20719 0.63736 0.0
C127 C 0.27214 0.1922 0.66319 0.0
C128 C 0.25547 0.15807 0.6691 0.0
C129 C 0.22393 0.13923 0.64939 0.0
C130 C 0.21008 0.15559 0.62482 0.0
H131 H 0.27024 0.2334 0.63271 0.0
O132 O 0.25917 0.21743 0.4725 0.0
O133 O 0.21612 0.20022 0.51985 0.0
O134 O 0.25384 0.27042 0.5209 0.0
O135 O 0.23183 0.24914 0.59534 0.0
C136 C 0.20593 0.10483 0.65236 0.0
C137 C 0.17475 0.0874 0.63015 0.0
H138 H 0.1167 0.06217 0.57977 0.0
H139 H 0.09771 0.09531 0.53386 0.0
H140 H 0.29653 0.2069 0.67816 0.0
H141 H 0.26724 0.14657 0.6884 0.0
H142 H 0.21609 0.0915 0.67086 0.0
H143 H 0.16147 0.06093 0.6317 0.0
Mn144 Mn 0.78367 0.99914 0.47218 0.0
Mn145 Mn 0.81356 0.00622 0.58875 0.0
C146 C 0.81841 0.05062 0.50767 0.0
C147 C 0.78787 0.99628 0.3848 0.0
C148 C 0.74252 0.98558 0.56703 0.0
O149 O 0.77702 0.95295 0.48596 0.0
O150 O 0.80244 0.96303 0.56077 0.0
C151 C 0.87555 0.00943 0.55949 0.0
N152 N 0.85954 0.02206 0.58517 0.0
C153 C 0.91038 0.06793 0.61254 0.0
C154 C 0.92731 0.05449 0.58847 0.0
C155 C 0.90982 0.02529 0.56137 0.0
C156 C 0.87618 0.05081 0.60974 0.0
H157 H 0.8623 0.98799 0.53657 0.0
C158 C 0.78784 0.94424 0.52358 0.0
O159 O 0.76002 0.98623 0.40691 0.0
O160 O 0.81315 0.00617 0.41363 0.0
N161 N 0.82557 0.04723 0.61984 0.0
C162 C 0.80585 0.05873 0.63597 0.0
C163 C 0.81962 0.08878 0.66122 0.0
C164 C 0.85352 0.10678 0.66935 0.0
C165 C 0.87334 0.09448 0.65235 0.0
C166 C 0.85815 0.06407 0.62835 0.0
H167 H 0.77984 0.04516 0.62946 0.0
O168 O 0.79904 0.04777 0.4713 0.0
O169 O 0.816 0.02342 0.52215 0.0
O170 O 0.74583 0.98935 0.51982 0.0
O171 O 0.76611 0.99057 0.59601 0.0
C172 C 0.90764 0.11155 0.65729 0.0
C173 C 0.92616 0.09835 0.6372 0.0
H174 H 0.95377 0.06692 0.58917 0.0
H175 H 0.92274 0.01532 0.54127 0.0
H176 H 0.80418 0.09819 0.67398 0.0
H177 H 0.8641 0.13019 0.68811 0.0
H178 H 0.92008 0.1352 0.67546 0.0
H179 H 0.95257 0.11214 0.63995 0.0
Mn180 Mn 0.01299 0.78608 0.47225 0.0
Mn181 Mn 1.00521 0.80978 0.58789 0.0
C182 C 0.96131 0.76919 0.50722 0.0
C183 C 0.01608 0.79116 0.38459 0.0
C184 C 0.02681 0.7599 0.56837 0.0
O185 O 0.05885 0.82631 0.48552 0.0
O186 O 0.04822 0.84185 0.55972 0.0
C187 C 1.00118 0.86776 0.55614 0.0
N188 N 0.98887 0.83948 0.58276 0.0
C189 C 0.94273 0.84427 0.60925 0.0
C190 C 0.95582 0.87428 0.58416 0.0
C191 C 0.985 0.88589 0.55702 0.0
C192 C 0.96012 0.82742 0.6073 0.0
H193 H 0.02263 0.87587 0.53326 0.0
C194 C 0.06716 0.84611 0.52275 0.0
O195 O 0.02667 0.7745 0.40871 0.0
O196 O 1.00571 0.80696 0.41164 0.0
N197 N 0.9643 0.78083 0.61926 0.0
C198 C 0.95329 0.74999 0.63685 0.0
C199 C 0.92342 0.73389 0.66258 0.0
C200 C 0.90512 0.74958 0.66978 0.0
C201 C 0.91696 0.78134 0.6514 0.0
C202 C 0.94721 0.79642 0.62694 0.0
H203 H 0.96716 0.73775 0.63125 0.0
O204 O 0.96447 0.75233 0.47165 0.0
O205 O 0.9883 0.79433 0.52129 0.0
O206 O 0.02311 0.75907 0.5212 0.0
O207 O 0.02142 0.77847 0.5968 0.0
C208 C 0.89962 0.79836 0.65549 0.0
C209 C 0.91241 0.82973 0.63419 0.0
H210 H 0.94314 0.88809 0.58414 0.0
H211 H 0.9947 0.90849 0.53618 0.0
H212 H 0.91438 0.70932 0.6765 0.0
H213 H 0.88186 0.73688 0.68897 0.0
H214 H 0.87607 0.78725 0.67395 0.0
H215 H 0.8984 0.84216 0.63629 0.0
Mn216 Mn 0.78181 0.78534 0.97347 0.0
Mn217 Mn 0.8126 0.80884 0.08947 0.0
C218 C 0.81689 0.7688 1.00878 0.0
C219 C 0.78538 0.79174 0.88582 0.0
C220 C 0.74123 0.75877 0.0692 0.0
O221 O 0.77553 0.82519 0.98682 0.0
O222 O 0.80142 0.84072 0.06121 0.0
C223 C 0.87446 0.86726 0.05867 0.0
N224 N 0.85857 0.83878 0.08485 0.0
C225 C 0.90954 0.84367 0.11127 0.0
C226 C 0.92638 0.87384 0.08658 0.0
C227 C 0.90875 0.88551 0.05972 0.0
C228 C 0.87532 0.82672 0.10922 0.0
H229 H 0.86108 0.87545 0.03603 0.0
C230 C 0.78669 0.84488 1.02421 0.0
O231 O 0.75769 0.77421 0.90849 0.0
O232 O 0.81087 0.80721 0.91423 0.0
N233 N 0.82466 0.77997 0.12083 0.0
C234 C 0.80493 0.74903 0.13811 0.0
C235 C 0.81878 0.7329 0.16359 0.0
C236 C 0.85276 0.74866 0.17083 0.0
C237 C 0.87258 0.78052 0.15276 0.0
C238 C 0.85732 0.79562 0.12858 0.0
H239 H 0.77883 0.73675 0.13246 0.0
O240 O 0.79717 0.75199 0.97292 0.0
O241 O 0.81446 0.79359 1.02303 0.0
O242 O 0.74421 0.75783 1.02197 0.0
O243 O 0.76515 0.77736 0.09768 0.0
C244 C 0.90692 0.7976 0.15686 0.0
C245 C 0.9254 0.82909 0.13591 0.0
H246 H 0.95284 0.88773 0.08666 0.0
H247 H 0.92157 0.90824 0.03921 0.0
H248 H 0.80333 0.70826 0.17726 0.0
H249 H 0.86339 0.73594 0.1898 0.0
H250 H 0.91942 0.78647 0.17508 0.0
H251 H 0.95183 0.84159 0.13803 0.0
Mn252 Mn 0.22713 1.00004 0.97052 0.0
Mn253 Mn 0.20337 1.00354 0.08802 0.0
C254 C 0.24227 0.0504 1.00853 0.0
C255 C 0.22054 0.9983 0.88324 0.0
C256 C 0.25483 0.9848 0.06324 0.0
O257 O 0.18852 0.95312 0.98255 0.0
O258 O 0.17157 0.96102 0.05771 0.0
C259 C 0.14321 0.00561 0.06428 0.0
N260 N 0.17284 0.01896 0.08723 0.0
C261 C 0.16791 0.06445 0.11676 0.0
C262 C 0.13696 0.05071 0.09451 0.0
C263 C 0.12465 0.02126 0.06791 0.0
C264 C 0.18518 0.04759 0.11218 0.0
H265 H 0.13412 0.98355 0.0426 0.0
C266 C 0.1685 0.94327 1.01958 0.0
O267 O 0.23884 0.98871 0.90491 0.0
O268 O 0.20443 0.00718 0.91244 0.0
N269 N 0.23228 0.04394 0.1207 0.0
C270 C 0.26352 0.05521 0.13653 0.0
C271 C 0.27998 0.0851 0.16215 0.0
C272 C 0.26419 0.10314 0.1711 0.0
C273 C 0.23199 0.09099 0.15464 0.0
C274 C 0.21662 0.06076 0.13009 0.0
H275 H 0.27582 0.04152 0.12964 0.0
O276 O 0.25927 0.04885 0.9717 0.0
O277 O 0.21788 0.02257 1.02203 0.0
O278 O 0.25589 0.9906 1.01668 0.0
O279 O 0.23545 0.98803 0.09299 0.0
C280 C 0.21476 0.10798 0.16078 0.0
C281 C 0.18278 0.09477 0.14171 0.0
H282 H 0.12275 0.06292 0.0967 0.0
H283 H 0.10106 0.01082 0.04979 0.0
H284 H 0.30485 0.09435 0.17466 0.0
H285 H 0.27713 0.12641 0.19025 0.0
H286 H 0.22609 0.13151 0.17932 0.0
H287 H 0.17007 0.1084 0.14569 0.0
Mn288 Mn 0.01565 0.23184 0.97062 0.0
Mn289 Mn 0.01115 0.20065 0.08563 0.0
C290 C 0.96499 0.19529 1.00699 0.0
C291 C 0.0178 0.22881 0.88293 0.0
C292 C 0.02907 0.27138 0.0671 0.0
O293 O 0.06257 0.24015 0.98196 0.0
O294 O 0.05431 0.21378 0.05572 0.0
C295 C 0.01165 0.14056 0.05539 0.0
N296 N 0.99706 0.15508 0.08001 0.0
C297 C 0.95234 0.10284 0.10528 0.0
C298 C 0.96732 0.08739 0.08121 0.0
C299 C 0.99706 0.10634 0.05599 0.0
C300 C 0.96819 0.13705 0.10371 0.0
H301 H 0.03393 0.15493 0.0347 0.0
C302 C 0.07235 0.22948 1.0184 0.0
O303 O 0.02711 0.25627 0.90591 0.0
O304 O 0.00897 0.20337 0.91101 0.0
N305 N 0.97013 0.18659 0.11811 0.0
C306 C 0.95788 0.20511 0.13673 0.0
C307 C 0.92787 0.18984 0.1622 0.0
C308 C 0.91079 0.15572 0.16827 0.0
C309 C 0.9239 0.13715 0.14885 0.0
C310 C 0.95411 0.15377 0.12438 0.0
H311 H 0.97086 0.23133 0.13212 0.0
O312 O 0.96678 0.21487 0.97161 0.0
O313 O 0.99279 0.19854 1.02005 0.0
O314 O 0.02473 0.26864 1.01995 0.0
O315 O 0.02518 0.24763 0.09489 0.0
C316 C 0.90783 0.10276 0.15181 0.0
C317 C 0.92196 0.08561 0.12981 0.0
H318 H 0.95594 0.06099 0.08109 0.0
H319 H 0.00848 0.09459 0.03652 0.0
H320 H 0.91787 0.20433 0.17696 0.0
H321 H 0.88749 0.144 0.18744 0.0
H322 H 0.88433 0.08922 0.17017 0.0
H323 H 0.90909 0.05914 0.13151 0.0
Mn324 Mn 0.78627 0.77765 0.58096 0.0
Mn325 Mn 0.80981 0.80619 0.46383 0.0
C326 C 0.77163 0.81386 0.54448 0.0
C327 C 0.7931 0.78194 0.66851 0.0
C328 C 0.7582 0.73579 0.487 0.0
O329 O 0.82462 0.76911 0.56782 0.0
O330 O 0.84096 0.79426 0.49276 0.0
C331 C 0.87063 0.86742 0.48931 0.0
N332 N 0.84092 0.85198 0.46645 0.0
C333 C 0.8469 0.90331 0.43929 0.0
C334 C 0.87793 0.91966 0.46146 0.0
C335 C 0.88978 0.90163 0.48675 0.0
C336 C 0.82904 0.86914 0.44277 0.0
H337 H 0.87933 0.85379 0.51019 0.0
C338 C 0.8442 0.77922 0.53025 0.0
O339 O 0.77461 0.75421 0.64652 0.0
O340 O 0.80929 0.80699 0.63946 0.0
N341 N 0.78151 0.81896 0.43236 0.0
C342 C 0.7503 0.79967 0.4159 0.0
C343 C 0.73447 0.81399 0.39084 0.0
C344 C 0.75089 0.84795 0.3829 0.0
C345 C 0.78305 0.8673 0.40001 0.0
C346 C 0.79771 0.85161 0.42423 0.0
H347 H 0.73761 0.77356 0.42178 0.0
O348 O 0.75459 0.79496 0.58099 0.0
O349 O 0.79554 0.80992 0.53022 0.0
O350 O 0.75741 0.74 0.53385 0.0
O351 O 0.77719 0.75881 0.45742 0.0
C352 C 0.80086 0.90161 0.39504 0.0
C353 C 0.8327 0.91961 0.4149 0.0
H354 H 0.8926 0.94608 0.46008 0.0
H355 H 0.91342 0.91411 0.50483 0.0
H356 H 0.70963 0.79891 0.37778 0.0
H357 H 0.73847 0.85894 0.36401 0.0
H358 H 0.79009 0.91445 0.37679 0.0
H359 H 0.8459 0.94602 0.4117 0.0
Mn360 Mn 0.23218 0.01339 0.5789 0.0
Mn361 Mn 0.20174 0.00793 0.46314 0.0
C362 C 0.19602 0.96238 0.54313 0.0
C363 C 0.22874 0.01613 0.66634 0.0
C364 C 0.27243 0.02649 0.48336 0.0
O365 O 0.2402 0.0601 0.56633 0.0
O366 O 0.2143 0.05125 0.49204 0.0
C367 C 0.14119 0.00808 0.49137 0.0
N368 N 0.15609 0.99352 0.46772 0.0
C369 C 0.10423 0.94826 0.44245 0.0
C370 C 0.0884 0.9632 0.46549 0.0
C371 C 0.10697 0.9932 0.49022 0.0
C372 C 0.13842 0.96442 0.44447 0.0
H373 H 0.15526 0.03055 0.51174 0.0
C374 C 0.22966 0.06955 0.52931 0.0
O375 O 0.25631 0.02547 0.64374 0.0
O376 O 0.20337 0.00694 0.63797 0.0
N377 N 0.18825 0.9667 0.43167 0.0
C378 C 0.20708 0.95444 0.41439 0.0
C379 C 0.1922 0.92419 0.3896 0.0
C380 C 0.15815 0.90684 0.38293 0.0
C381 C 0.13925 0.91992 0.4011 0.0
C382 C 0.15549 0.95039 0.42488 0.0
H383 H 0.23322 0.96758 0.41963 0.0
O384 O 0.21547 0.96453 0.57895 0.0
O385 O 0.19924 0.99004 0.52926 0.0
O386 O 0.26934 0.02238 0.53051 0.0
O387 O 0.24886 0.02228 0.4549 0.0
C388 C 0.10489 0.90354 0.39767 0.0
C389 C 0.08738 0.91762 0.41856 0.0
H390 H 0.06199 0.95158 0.46523 0.0
H391 H 0.09493 1.00459 0.50892 0.0
H392 H 0.20694 0.91419 0.37589 0.0
H393 H 0.14673 0.88334 0.36432 0.0
H394 H 0.09164 0.87982 0.37986 0.0
H395 H 0.06094 0.9045 0.41656 0.0
Mn396 Mn 1.00096 0.22776 0.57866 0.0
Mn397 Mn 1.00479 0.20402 0.46124 0.0
C398 C 0.05141 0.24314 0.54061 0.0
C399 C 0.9994 0.22113 0.66602 0.0
C400 C 0.98501 0.25477 0.48577 0.0
O401 O 0.95426 0.18878 0.56672 0.0
O402 O 0.96255 0.17196 0.4917 0.0
C403 C 0.00791 0.14447 0.4857 0.0
N404 N 0.0208 0.17395 0.46232 0.0
C405 C 0.06662 0.16963 0.43277 0.0
C406 C 0.05334 0.13881 0.45541 0.0
C407 C 0.02396 0.12628 0.48226 0.0
C408 C 0.0494 0.18654 0.43724 0.0
H409 H 0.98595 0.13525 0.50764 0.0
C410 C 0.9447 0.16873 0.52975 0.0
O411 O 0.98956 0.23927 0.64447 0.0
O412 O 0.00844 0.20522 0.63668 0.0
N413 N 0.04502 0.23324 0.42839 0.0
C414 C 0.05582 0.26433 0.41214 0.0
C415 C 0.08554 0.28096 0.38612 0.0
C416 C 0.10389 0.2655 0.3772 0.0
C417 C 0.09224 0.23345 0.39412 0.0
C418 C 0.06215 0.21789 0.41904 0.0
H419 H 0.04185 0.27635 0.41894 0.0
O420 O 0.04975 0.26015 0.57733 0.0
O421 O 0.02364 0.21876 0.52715 0.0
O422 O 0.99102 0.25614 0.53232 0.0
O423 O 0.98864 0.23558 0.4561 0.0
C424 C 0.10958 0.21657 0.38806 0.0
C425 C 0.09684 0.18473 0.40754 0.0
H426 H 0.06586 0.12489 0.45338 0.0
H427 H 0.01389 0.10282 0.50073 0.0
H428 H 0.09441 0.30571 0.37324 0.0
H429 H 0.12703 0.27858 0.35773 0.0
H430 H 0.13301 0.22806 0.36925 0.0
H431 H 0.11075 0.17229 0.40364 0.0
Mn432 Mn 0.90176 0.56138 0.41149 0.0
Mn433 Mn 0.8722 0.53939 0.29457 0.0
C434 C 0.86642 0.57778 0.37643 0.0
C435 C 0.89888 0.55535 0.49916 0.0
C436 C 0.94326 0.58911 0.31707 0.0
O437 O 0.90821 0.52169 0.39709 0.0
O438 O 0.88278 0.50696 0.32221 0.0
C439 C 0.80976 0.48064 0.32256 0.0
N440 N 0.82611 0.50964 0.29784 0.0
C441 C 0.77562 0.50548 0.27046 0.0
C442 C 0.75834 0.47481 0.29362 0.0
C443 C 0.7755 0.46246 0.32013 0.0
C444 C 0.8098 0.52228 0.27374 0.0
H445 H 0.82272 0.47197 0.34522 0.0
C446 C 0.89717 0.50233 0.35923 0.0
O447 O 0.92629 0.57251 0.47575 0.0
O448 O 0.8731 0.53942 0.47137 0.0
N449 N 0.86075 0.56893 0.26392 0.0
C450 C 0.88084 0.60009 0.24779 0.0
C451 C 0.86746 0.61676 0.22257 0.0
C452 C 0.8336 0.6012 0.21407 0.0
C453 C 0.81342 0.56907 0.23086 0.0
C454 C 0.8282 0.55356 0.25524 0.0
H455 H 0.90689 0.6121 0.25399 0.0
O456 O 0.88589 0.59432 0.41271 0.0
O457 O 0.86944 0.55347 0.36152 0.0
O458 O 0.93931 0.58952 0.364 0.0
O459 O 0.91989 0.57077 0.28756 0.0
C460 C 0.77913 0.55217 0.22556 0.0
C461 C 0.76024 0.52047 0.24563 0.0
H462 H 0.73189 0.46097 0.29249 0.0
H463 H 0.76232 0.43931 0.3395 0.0
H464 H 0.88319 0.64156 0.20977 0.0
H465 H 0.82335 0.61427 0.19507 0.0
H466 H 0.76699 0.5636 0.20713 0.0
H467 H 0.73385 0.50807 0.24248 0.0
Mn468 Mn 0.45357 0.34413 0.41213 0.0
Mn469 Mn 0.47671 0.34021 0.29436 0.0
C470 C 0.43842 0.29363 0.37444 0.0
C471 C 0.46063 0.34617 0.49942 0.0
C472 C 0.42543 0.35912 0.31961 0.0
O473 O 0.49209 0.39103 0.39951 0.0
O474 O 0.50856 0.38282 0.32415 0.0
C475 C 0.53705 0.33835 0.31755 0.0
N476 N 0.50732 0.32489 0.29489 0.0
C477 C 0.51226 0.27941 0.26533 0.0
C478 C 0.54332 0.29327 0.28724 0.0
C479 C 0.55567 0.32278 0.31372 0.0
C480 C 0.49493 0.29619 0.2701 0.0
H481 H 0.54618 0.36045 0.33917 0.0
C482 C 0.51185 0.40074 0.36215 0.0
O483 O 0.44218 0.35564 0.47791 0.0
O484 O 0.47662 0.33724 0.47005 0.0
N485 N 0.44769 0.29966 0.26213 0.0
C486 C 0.41636 0.28828 0.24668 0.0
C487 C 0.39985 0.25831 0.22125 0.0
C488 C 0.41567 0.24034 0.2121 0.0
C489 C 0.44797 0.25261 0.22819 0.0
C490 C 0.46338 0.28289 0.25256 0.0
H491 H 0.40404 0.30194 0.25371 0.0
O492 O 0.42155 0.29525 0.4114 0.0
O493 O 0.46262 0.32146 0.36058 0.0
O494 O 0.42455 0.35343 0.36621 0.0
O495 O 0.44459 0.35566 0.28968 0.0
C496 C 0.46525 0.23569 0.22185 0.0
C497 C 0.49733 0.24903 0.24054 0.0
H498 H 0.55758 0.28112 0.28491 0.0
H499 H 0.57934 0.33331 0.33161 0.0
H500 H 0.3749 0.24897 0.20903 0.0
H501 H 0.40269 0.21702 0.1931 0.0
H502 H 0.4539 0.21212 0.20343 0.0
H503 H 0.51009 0.23544 0.23642 0.0
Mn504 Mn 0.66669 0.11187 0.41324 0.0
Mn505 Mn 0.67092 0.144 0.29899 0.0
C506 C 0.71729 0.14887 0.37686 0.0
C507 C 0.6651 0.11361 0.50121 0.0
C508 C 0.65264 0.07303 0.3159 0.0
O509 O 0.61974 0.10387 0.40269 0.0
O510 O 0.62798 0.13092 0.32954 0.0
C511 C 0.67095 0.20414 0.33061 0.0
N512 N 0.6853 0.18959 0.3054 0.0
C513 C 0.73008 0.24184 0.28027 0.0
C514 C 0.71536 0.25731 0.305 0.0
C515 C 0.68571 0.23837 0.33042 0.0
C516 C 0.71408 0.20761 0.28147 0.0
H517 H 0.64874 0.18976 0.35145 0.0
C518 C 0.60999 0.11497 0.36675 0.0
O519 O 0.6554 0.08653 0.477 0.0
O520 O 0.67369 0.1395 0.47424 0.0
N521 N 0.71176 0.158 0.26598 0.0
C522 C 0.72372 0.13942 0.24655 0.0
C523 C 0.75358 0.15467 0.22071 0.0
C524 C 0.77082 0.18883 0.21507 0.0
C525 C 0.75798 0.20745 0.23525 0.0
C526 C 0.72792 0.19086 0.2601 0.0
H527 H 0.71058 0.11317 0.25073 0.0
O528 O 0.71561 0.1289 0.41151 0.0
O529 O 0.68944 0.14566 0.36435 0.0
O530 O 0.65736 0.07552 0.36294 0.0
O531 O 0.6565 0.09699 0.28869 0.0
C532 C 0.7742 0.24186 0.23268 0.0
C533 C 0.76034 0.25905 0.25541 0.0
H534 H 0.72688 0.28373 0.30545 0.0
H535 H 0.67447 0.25013 0.35038 0.0
H536 H 0.76335 0.14014 0.20529 0.0
H537 H 0.794 0.20052 0.19557 0.0
H538 H 0.7976 0.25538 0.21404 0.0
H539 H 0.77333 0.28552 0.25399 0.0
Mn540 Mn 0.89497 0.56579 0.80441 0.0
Mn541 Mn 0.87177 0.53461 0.92044 0.0
C542 C 0.91108 0.53019 0.83881 0.0
C543 C 0.88953 0.5637 0.71669 0.0
C544 C 0.92276 0.60561 0.90056 0.0
O545 O 0.85543 0.57248 0.81841 0.0
O546 O 0.84077 0.54731 0.89341 0.0
C547 C 0.81205 0.47396 0.88948 0.0
N548 N 0.84068 0.48892 0.91535 0.0
C549 C 0.83395 0.43704 0.94106 0.0
C550 C 0.80364 0.42117 0.91666 0.0
C551 C 0.79281 0.43972 0.89032 0.0
C552 C 0.85192 0.47127 0.93921 0.0
H553 H 0.80441 0.48802 0.86734 0.0
C554 C 0.83634 0.56196 0.85658 0.0
O555 O 0.90667 0.59093 0.74061 0.0
O556 O 0.87341 0.53769 0.74398 0.0
N557 N 0.89975 0.52102 0.95082 0.0
C558 C 0.93086 0.53986 0.96795 0.0
C559 C 0.94619 0.525 0.99293 0.0
C560 C 0.92944 0.49094 0.99987 0.0
C561 C 0.8974 0.47206 0.98202 0.0
C562 C 0.88315 0.48831 0.9583 0.0
H563 H 0.9439 0.566 0.96251 0.0
O564 O 0.928 0.55009 0.80317 0.0
O565 O 0.88635 0.53262 0.8534 0.0
O566 O 0.92273 0.60282 0.85325 0.0
O567 O 0.90444 0.58171 0.92926 0.0
C568 C 0.87929 0.43771 0.98597 0.0
C569 C 0.84764 0.42019 0.96527 0.0
H570 H 0.78896 0.39474 0.91662 0.0
H571 H 0.76994 0.42763 0.87008 0.0
H572 H 0.97096 0.53972 1.00645 0.0
H573 H 0.94153 0.47953 1.01847 0.0
H574 H 0.88973 0.42445 1.00389 0.0
H575 H 0.83434 0.39373 0.96729 0.0
Mn576 Mn 0.45016 0.33157 0.80411 0.0
Mn577 Mn 0.48067 0.337 0.91989 0.0
C578 C 0.48635 0.38255 0.83998 0.0
C579 C 0.45342 0.32885 0.71655 0.0
C580 C 0.40998 0.31846 0.89975 0.0
O581 O 0.4421 0.28482 0.81668 0.0
O582 O 0.46801 0.29367 0.89098 0.0
C583 C 0.54117 0.33671 0.89167 0.0
N584 N 0.52631 0.35132 0.91532 0.0
C585 C 0.5782 0.39635 0.94106 0.0
C586 C 0.59398 0.38135 0.91801 0.0
C587 C 0.57537 0.35145 0.89305 0.0
C588 C 0.54402 0.38034 0.93877 0.0
H589 H 0.52707 0.31432 0.87113 0.0
C590 C 0.4526 0.27536 0.85375 0.0
O591 O 0.42592 0.3195 0.73934 0.0
O592 O 0.47885 0.33802 0.74479 0.0
N593 N 0.49426 0.37823 0.95144 0.0
C594 C 0.47549 0.39054 0.96877 0.0
C595 C 0.49041 0.42071 0.99376 0.0
C596 C 0.52445 0.43794 1.00061 0.0
C597 C 0.54329 0.42481 0.98241 0.0
C598 C 0.52701 0.39442 0.95838 0.0
H599 H 0.44935 0.37748 0.96344 0.0
O600 O 0.46691 0.38044 0.80416 0.0
O601 O 0.48315 0.35488 0.85376 0.0
O602 O 0.41304 0.32257 0.8526 0.0
O603 O 0.43357 0.32272 0.92819 0.0
C604 C 0.57764 0.44104 0.98609 0.0
C605 C 0.5951 0.42689 0.96521 0.0
H606 H 0.62038 0.39286 0.91848 0.0
H607 H 0.58738 0.34002 0.87435 0.0
H608 H 0.47572 0.43076 1.0075 0.0
H609 H 0.53591 0.46138 1.01939 0.0
H610 H 0.59093 0.46467 1.00414 0.0
H611 H 0.62154 0.43989 0.96745 0.0
Mn612 Mn 0.68215 0.11879 0.80616 0.0
Mn613 Mn 0.6753 0.14386 0.92122 0.0
C614 C 0.63072 0.10225 0.84193 0.0
C615 C 0.68429 0.12319 0.71833 0.0
C616 C 0.69719 0.09406 0.90272 0.0
O617 O 0.72811 0.15923 0.81826 0.0
O618 O 0.71783 0.17592 0.89173 0.0
C619 C 0.67004 0.20096 0.88838 0.0
N620 N 0.65833 0.17301 0.91569 0.0
C621 C 0.61193 0.17726 0.94244 0.0
C622 C 0.62442 0.20696 0.91661 0.0
C623 C 0.65342 0.21867 0.889 0.0
C624 C 0.62974 0.16084 0.94073 0.0
H625 H 0.69134 0.20909 0.86514 0.0
C626 C 0.73656 0.17966 0.85469 0.0
O627 O 0.69513 0.10667 0.74225 0.0
O628 O 0.67427 0.13919 0.74558 0.0
N629 N 0.63487 0.11488 0.95377 0.0
C630 C 0.62453 0.0844 0.97241 0.0
C631 C 0.59494 0.06826 0.99886 0.0
C632 C 0.57624 0.08355 1.00572 0.0
C633 C 0.58741 0.11496 0.98632 0.0
C634 C 0.61743 0.13012 0.9612 0.0
H635 H 0.63876 0.0725 0.9672 0.0
O636 O 0.63361 0.08503 0.80668 0.0
O637 O 0.65785 0.12748 0.85527 0.0
O638 O 0.69274 0.0923 0.85563 0.0
O639 O 0.69217 0.11315 0.93051 0.0
C640 C 0.56963 0.13155 0.99008 0.0
C641 C 0.5818 0.16261 0.96792 0.0
H642 H 0.61139 0.22043 0.91639 0.0
H643 H 0.66265 0.241 0.86759 0.0
H644 H 0.58645 0.04399 1.01364 0.0
H645 H 0.55319 0.07081 0.02549 0.0
H646 H 0.54624 0.12035 1.00899 0.0
H647 H 0.56746 0.17469 0.96979 0.0
Mn648 Mn 0.44614 0.11703 0.30479 0.0
Mn649 Mn 0.47495 0.14294 0.42108 0.0
C650 C 0.48178 0.10251 0.34314 0.0
C651 C 0.44929 0.12117 0.21708 0.0
C652 C 0.40438 0.09141 0.39904 0.0
O653 O 0.43838 0.15616 0.31523 0.0
O654 O 0.46411 0.1743 0.38955 0.0
C655 C 0.53708 0.20237 0.39415 0.0
N656 N 0.52093 0.17324 0.41861 0.0
C657 C 0.57156 0.17848 0.4477 0.0
C658 C 0.58865 0.20893 0.42387 0.0
C659 C 0.57133 0.22083 0.39674 0.0
C660 C 0.5374 0.16127 0.44405 0.0
H661 H 0.52396 0.2111 0.37205 0.0
C662 C 0.44911 0.17685 0.35141 0.0
O663 O 0.42187 0.10387 0.24039 0.0
O664 O 0.47491 0.13805 0.24484 0.0
N665 N 0.48665 0.11451 0.45488 0.0
C666 C 0.46673 0.08363 0.47226 0.0
C667 C 0.48032 0.06759 0.49869 0.0
C668 C 0.51422 0.08342 0.50685 0.0
C669 C 0.53421 0.11524 0.48877 0.0
C670 C 0.51921 0.13021 0.46347 0.0
H671 H 0.44068 0.07131 0.46602 0.0
O672 O 0.46268 0.08475 0.30731 0.0
O673 O 0.47857 0.12719 0.35558 0.0
O674 O 0.40865 0.08947 0.35258 0.0
O675 O 0.42736 0.1112 0.42793 0.0
C676 C 0.56848 0.13244 0.49401 0.0
C677 C 0.58716 0.16398 0.47332 0.0
H678 H 0.61509 0.22304 0.42524 0.0
H679 H 0.58436 0.244 0.3774 0.0
H680 H 0.46474 0.04301 0.51245 0.0
H681 H 0.52465 0.07079 0.52663 0.0
H682 H 0.58078 0.1214 0.51308 0.0
H683 H 0.61354 0.17665 0.47659 0.0
Mn684 Mn 0.89163 0.33333 0.30502 0.0
Mn685 Mn 0.8679 0.34123 0.42049 0.0
C686 C 0.90842 0.38518 0.33974 0.0
C687 C 0.88547 0.33027 0.2174 0.0
C688 C 0.91828 0.32021 0.40142 0.0
O689 O 0.85179 0.28728 0.31856 0.0
O690 O 0.83638 0.29786 0.39282 0.0
C691 C 0.80905 0.34358 0.38867 0.0
N692 N 0.8377 0.35689 0.41445 0.0
C693 C 0.83242 0.40315 0.43854 0.0
C694 C 0.80217 0.38919 0.41404 0.0
C695 C 0.79055 0.35937 0.3887 0.0
C696 C 0.84959 0.38607 0.43763 0.0
H697 H 0.80086 0.32156 0.36714 0.0
C698 C 0.83219 0.27882 0.35605 0.0
O699 O 0.90287 0.32006 0.24041 0.0
O700 O 0.86993 0.34036 0.24549 0.0
N701 N 0.89633 0.38245 0.45139 0.0
C702 C 0.92709 0.39389 0.46953 0.0
C703 C 0.94288 0.4241 0.49443 0.0
C704 C 0.92687 0.44219 0.50046 0.0
C705 C 0.89516 0.42988 0.48161 0.0
C706 C 0.88048 0.39941 0.45778 0.0
H707 H 0.93949 0.38008 0.46503 0.0
O708 O 0.92507 0.38191 0.304 0.0
O709 O 0.88347 0.35808 0.35409 0.0
O710 O 0.91896 0.32352 0.35408 0.0
O711 O 0.89974 0.32575 0.42971 0.0
C712 C 0.8779 0.44704 0.48434 0.0
C713 C 0.84664 0.43378 0.46251 0.0
H714 H 0.78807 0.40156 0.41334 0.0
H715 H 0.76769 0.34889 0.36846 0.0
H716 H 0.96737 0.43347 0.50878 0.0
H717 H 0.93928 0.46566 0.51914 0.0
H718 H 0.88873 0.47078 0.50217 0.0
H719 H 0.83397 0.44758 0.46373 0.0
Mn720 Mn 0.68028 0.56408 0.30507 0.0
Mn721 Mn 0.67334 0.53293 0.42082 0.0
C722 C 0.62883 0.52822 0.34007 0.0
C723 C 0.68336 0.56084 0.21737 0.0
C724 C 0.69306 0.60401 0.40118 0.0
O725 O 0.72679 0.57141 0.31863 0.0
O726 O 0.71671 0.54525 0.39277 0.0
C727 C 0.67168 0.47192 0.38988 0.0
N728 N 0.65836 0.48716 0.41588 0.0
C729 C 0.61306 0.43555 0.44207 0.0
C730 C 0.62712 0.41938 0.41744 0.0
C731 C 0.6564 0.43765 0.39081 0.0
C732 C 0.62958 0.46977 0.44011 0.0
H733 H 0.69333 0.48579 0.36757 0.0
C734 C 0.73561 0.56051 0.35603 0.0
O735 O 0.69292 0.5884 0.24014 0.0
O736 O 0.67384 0.53537 0.24571 0.0
N737 N 0.63217 0.51983 0.45213 0.0
C738 C 0.6204 0.53897 0.46989 0.0
C739 C 0.59039 0.52441 0.49533 0.0
C740 C 0.57278 0.49036 0.50214 0.0
C741 C 0.58547 0.47117 0.48378 0.0
C742 C 0.6158 0.48711 0.45959 0.0
H743 H 0.6338 0.56514 0.46471 0.0
O744 O 0.63145 0.54788 0.30427 0.0
O745 O 0.65619 0.53097 0.35434 0.0
O746 O 0.6894 0.60128 0.35388 0.0
O747 O 0.68819 0.58008 0.42932 0.0
C748 C 0.56894 0.43681 0.48773 0.0
C749 C 0.58265 0.41899 0.46668 0.0
H750 H 0.61515 0.39293 0.41749 0.0
H751 H 0.6669 0.42534 0.37045 0.0
H752 H 0.58074 0.53938 0.50935 0.0
H753 H 0.54942 0.47918 0.52113 0.0
H754 H 0.54536 0.42378 0.506 0.0
H755 H 0.5693 0.39254 0.46878 0.0
Mn756 Mn 0.45521 0.11082 0.91227 0.0
Mn757 Mn 0.48155 0.14246 0.79726 0.0
C758 C 0.44089 0.14736 0.87658 0.0
C759 C 0.45932 0.11248 1.00001 0.0
C760 C 0.42927 0.07162 0.81553 0.0
O761 O 0.49411 0.10296 0.90055 0.0
O762 O 0.51161 0.12923 0.82658 0.0
C763 C 0.54199 0.2025 0.82792 0.0
N764 N 0.51305 0.188 0.80285 0.0
C765 C 0.52064 0.24026 0.77741 0.0
C766 C 0.55091 0.25569 0.80193 0.0
C767 C 0.56154 0.23672 0.82754 0.0
C768 C 0.5023 0.20604 0.7789 0.0
H769 H 0.54983 0.18808 0.84874 0.0
C770 C 0.51425 0.11358 0.86371 0.0
O771 O 0.44194 0.08542 0.97578 0.0
O772 O 0.47623 0.13851 0.97309 0.0
N773 N 0.4545 0.15658 0.7652 0.0
C774 C 0.42367 0.13809 0.74679 0.0
C775 C 0.40891 0.15339 0.72143 0.0
C776 C 0.42594 0.18752 0.71543 0.0
C777 C 0.45768 0.20604 0.73455 0.0
C778 C 0.47136 0.18938 0.75867 0.0
H779 H 0.41042 0.11188 0.75153 0.0
O780 O 0.42299 0.12744 0.91157 0.0
O781 O 0.46564 0.1445 0.86336 0.0
O782 O 0.42787 0.07427 0.86265 0.0
O783 O 0.44871 0.0955 0.78766 0.0
C784 C 0.47606 0.24042 0.73141 0.0
C785 C 0.50746 0.25753 0.75302 0.0
H786 H 0.56588 0.2821 0.8022 0.0
H787 H 0.58459 0.24846 0.84733 0.0
H788 H 0.38437 0.13894 0.7069 0.0
H789 H 0.41428 0.19926 0.69649 0.0
H790 H 0.46604 0.25399 0.71325 0.0
H791 H 0.52104 0.28399 0.75136 0.0
Mn792 Mn 0.90145 0.34607 0.91299 0.0
Mn793 Mn 0.8736 0.34139 0.79552 0.0
C794 C 0.86573 0.29532 0.87605 0.0
C795 C 0.8966 0.34842 1.00035 0.0
C796 C 0.94385 0.36021 0.8198 0.0
O797 O 0.91001 0.39298 0.89978 0.0
O798 O 0.88507 0.38437 0.82458 0.0
C799 C 0.81202 0.34066 0.8194 0.0
N800 N 0.82776 0.32647 0.79726 0.0
C801 C 0.77682 0.28096 0.76949 0.0
C802 C 0.76014 0.29552 0.79098 0.0
C803 C 0.77783 0.32546 0.81618 0.0
C804 C 0.81094 0.29744 0.77353 0.0
H805 H 0.82538 0.36305 0.84019 0.0
C806 C 0.90001 0.40255 0.86218 0.0
O807 O 0.92447 0.35773 0.9788 0.0
O808 O 0.87172 0.33959 0.97098 0.0
N809 N 0.86135 0.30047 0.76397 0.0
C810 C 0.88092 0.28875 0.74796 0.0
C811 C 0.86695 0.2586 0.72297 0.0
C812 C 0.83306 0.24084 0.71466 0.0
C813 C 0.81343 0.25345 0.73131 0.0
C814 C 0.82877 0.28382 0.75545 0.0
H815 H 0.90698 0.30232 0.75416 0.0
O816 O 0.88437 0.29714 0.91292 0.0
O817 O 0.86953 0.32315 0.86185 0.0
O818 O 0.9394 0.35499 0.86657 0.0
O819 O 0.92102 0.35638 0.79 0.0
C820 C 0.77916 0.23673 0.72595 0.0
C821 C 0.76086 0.25041 0.74524 0.0
H822 H 0.73374 0.28365 0.78913 0.0
H823 H 0.76511 0.33656 0.8337 0.0
H824 H 0.88226 0.24902 0.71026 0.0
H825 H 0.82235 0.21744 0.69584 0.0
H826 H 0.76658 0.21309 0.7078 0.0
H827 H 0.73448 0.23705 0.7417 0.0
Mn828 Mn 0.66903 0.55902 0.9122 0.0
Mn829 Mn 0.67684 0.53553 0.79652 0.0
C830 C 0.72091 0.57607 0.87707 0.0
C831 C 0.6662 0.55247 0.99991 0.0
C832 C 0.65465 0.58504 0.81631 0.0
O833 O 0.62314 0.51886 0.89862 0.0
O834 O 0.63411 0.50309 0.82492 0.0
C835 C 0.68171 0.47792 0.82771 0.0
N836 N 0.69385 0.50639 0.80164 0.0
C837 C 0.74062 0.50262 0.77555 0.0
C838 C 0.7278 0.47249 0.80023 0.0
C839 C 0.69833 0.46022 0.82675 0.0
C840 C 0.72276 0.51898 0.77746 0.0
H841 H 0.66005 0.46933 0.85026 0.0
C842 C 0.61503 0.49888 0.86165 0.0
O843 O 0.65581 0.56987 0.97736 0.0
O844 O 0.67636 0.53721 0.97134 0.0
N845 N 0.7175 0.5649 0.76494 0.0
C846 C 0.72796 0.59559 0.74708 0.0
C847 C 0.7578 0.61208 0.72132 0.0
C848 C 0.77653 0.59685 0.7141 0.0
C849 C 0.76522 0.5652 0.73264 0.0
C850 C 0.73507 0.5498 0.75742 0.0
H851 H 0.71361 0.60736 0.75236 0.0
O852 O 0.71765 0.59261 0.913 0.0
O853 O 0.6938 0.55124 0.86273 0.0
O854 O 0.65881 0.58636 0.86353 0.0
O855 O 0.65997 0.56629 0.78813 0.0
C856 C 0.78308 0.5487 0.72874 0.0
C857 C 0.7709 0.51753 0.75049 0.0
H858 H 0.74083 0.45903 0.80022 0.0
H859 H 0.68878 0.4375 0.84723 0.0
H860 H 0.76638 0.6365 0.70715 0.0
H861 H 0.79971 0.6098 0.69471 0.0
H862 H 0.80658 0.56009 0.71012 0.0
H863 H 0.78527 0.50548 0.74843 0.0
Mn864 Mn 0.56807 0.89256 0.74404 0.0
Mn865 Mn 0.53979 0.86818 0.62721 0.0
C866 C 0.53209 0.90714 0.70674 0.0
C867 C 0.56381 0.8861 0.83148 0.0
C868 C 0.61018 0.91995 0.65037 0.0
O869 O 0.5766 0.85411 0.73187 0.0
O870 O 0.55105 0.83671 0.65731 0.0
C871 C 0.47804 0.80779 0.65233 0.0
N872 N 0.49389 0.83749 0.62943 0.0
C873 C 0.443 0.83221 0.6017 0.0
C874 C 0.42621 0.80122 0.62397 0.0
C875 C 0.44382 0.78901 0.64953 0.0
C876 C 0.47715 0.84967 0.60534 0.0
H877 H 0.49135 0.79882 0.67339 0.0
C878 C 0.56617 0.83392 0.69509 0.0
O879 O 0.59152 0.90454 0.8094 0.0
O880 O 0.53871 0.86982 0.8026 0.0
N881 N 0.5277 0.89674 0.59483 0.0
C882 C 0.54735 0.9279 0.57834 0.0
C883 C 0.53347 0.94406 0.55302 0.0
C884 C 0.49956 0.92804 0.5449 0.0
C885 C 0.47982 0.89593 0.5621 0.0
C886 C 0.49509 0.88093 0.58656 0.0
H887 H 0.57342 0.94033 0.58443 0.0
O888 O 0.55089 0.92432 0.74323 0.0
O889 O 0.53591 0.88301 0.69312 0.0
O890 O 0.60577 0.92126 0.69702 0.0
O891 O 0.58732 0.9004 0.62105 0.0
C892 C 0.44553 0.87855 0.55708 0.0
C893 C 0.42712 0.84678 0.57708 0.0
H894 H 0.39979 0.78686 0.62246 0.0
H895 H 0.43103 0.76539 0.66765 0.0
H896 H 0.54885 0.96886 0.53994 0.0
H897 H 0.48891 0.94072 0.52584 0.0
H898 H 0.43302 0.88962 0.53869 0.0
H899 H 0.40073 0.83391 0.57384 0.0
Mn900 Mn 0.12148 0.68004 0.74514 0.0
Mn901 Mn 0.14315 0.67287 0.62783 0.0
C902 C 0.10475 0.62853 0.70959 0.0
C903 C 0.12744 0.68267 0.83261 0.0
C904 C 0.09334 0.69392 0.65131 0.0
O905 O 0.1612 0.72622 0.731 0.0
O906 O 0.17551 0.71591 0.6555 0.0
C907 C 0.20196 0.66924 0.65552 0.0
N908 N 0.17311 0.65675 0.63046 0.0
C909 C 0.1774 0.61052 0.60279 0.0
C910 C 0.20796 0.6238 0.62621 0.0
C911 C 0.22011 0.65311 0.65316 0.0
C912 C 0.16056 0.62788 0.60612 0.0
H913 H 0.21052 0.69077 0.67836 0.0
C914 C 0.1803 0.73478 0.69281 0.0
O915 O 0.11044 0.69324 0.80952 0.0
O916 O 0.14335 0.67287 0.80461 0.0
N917 N 0.11371 0.63192 0.59705 0.0
C918 C 0.08256 0.62086 0.58092 0.0
C919 C 0.06595 0.59084 0.55564 0.0
C920 C 0.08148 0.5725 0.54729 0.0
C921 C 0.11359 0.58444 0.56404 0.0
C922 C 0.12915 0.61482 0.58814 0.0
H923 H 0.07051 0.63486 0.58719 0.0
O924 O 0.08826 0.63135 0.74604 0.0
O925 O 0.12931 0.65578 0.69485 0.0
O926 O 0.09334 0.68974 0.69821 0.0
O927 O 0.11151 0.68891 0.62142 0.0
C928 C 0.13054 0.56711 0.55863 0.0
C929 C 0.16236 0.58006 0.57822 0.0
H930 H 0.22179 0.61116 0.62512 0.0
H931 H 0.24315 0.66296 0.67277 0.0
H932 H 0.04115 0.58176 0.54288 0.0
H933 H 0.06841 0.54914 0.52842 0.0
H934 H 0.11907 0.54347 0.54041 0.0
H935 H 0.17477 0.56608 0.57509 0.0
Mn936 Mn 0.33449 0.44638 0.74816 0.0
Mn937 Mn 0.34191 0.47618 0.63143 0.0
C938 C 0.38619 0.48105 0.71262 0.0
C939 C 0.33172 0.44932 0.83582 0.0
C940 C 0.31948 0.40481 0.65373 0.0
O941 O 0.28861 0.44063 0.73433 0.0
O942 O 0.2993 0.46643 0.65971 0.0
C943 C 0.34713 0.53923 0.65995 0.0
N944 N 0.35912 0.52243 0.63484 0.0
C945 C 0.40594 0.57249 0.6073 0.0
C946 C 0.39326 0.59025 0.6309 0.0
C947 C 0.36383 0.57353 0.65769 0.0
C948 C 0.38799 0.53831 0.61046 0.0
H949 H 0.32554 0.52658 0.68275 0.0
C950 C 0.28038 0.45205 0.69685 0.0
O951 O 0.32101 0.42184 0.81241 0.0
O952 O 0.34186 0.47517 0.80806 0.0
N953 N 0.38249 0.48686 0.60014 0.0
C954 C 0.39284 0.4663 0.58352 0.0
C955 C 0.42269 0.47917 0.55788 0.0
C956 C 0.44153 0.51302 0.54948 0.0
C957 C 0.43032 0.5337 0.56676 0.0
C958 C 0.40018 0.51942 0.59153 0.0
H959 H 0.37839 0.44026 0.58964 0.0
O960 O 0.38308 0.46146 0.74886 0.0
O961 O 0.35901 0.47858 0.6981 0.0
O962 O 0.3243 0.40871 0.70057 0.0
O963 O 0.32469 0.4283 0.62431 0.0
C964 C 0.44826 0.56799 0.56157 0.0
C965 C 0.43618 0.58739 0.58211 0.0
H966 H 0.40635 0.61673 0.62988 0.0
H967 H 0.3544 0.58708 0.67737 0.0
H968 H 0.43119 0.46306 0.54468 0.0
H969 H 0.4647 0.52288 0.53016 0.0
H970 H 0.47174 0.57976 0.54286 0.0
H971 H 0.45061 0.61376 0.57904 0.0
Mn972 Mn 0.56131 0.89924 0.13593 0.0
Mn973 Mn 0.53699 0.87074 0.25278 0.0
C974 C 0.57628 0.86356 0.17334 0.0
C975 C 0.55493 0.8949 0.04849 0.0
C976 C 0.58814 0.94139 0.22964 0.0
O977 O 0.52257 0.90728 0.14797 0.0
O978 O 0.50546 0.88182 0.22268 0.0
C979 C 0.47689 0.80884 0.22725 0.0
N980 N 0.50651 0.82478 0.25034 0.0
C981 C 0.50136 0.77393 0.27819 0.0
C982 C 0.47047 0.75706 0.25569 0.0
C983 C 0.45824 0.7746 0.22997 0.0
C984 C 0.51871 0.8081 0.27455 0.0
H985 H 0.46789 0.82211 0.20612 0.0
C986 C 0.50248 0.8968 0.18487 0.0
O987 O 0.57313 0.92268 0.07053 0.0
O988 O 0.53885 0.86975 0.0774 0.0
N989 N 0.56561 0.85877 0.28524 0.0
C990 C 0.59667 0.87852 0.30194 0.0
C991 C 0.61284 0.86473 0.32747 0.0
C992 C 0.59691 0.83081 0.33562 0.0
C993 C 0.56489 0.81096 0.31821 0.0
C994 C 0.54989 0.82614 0.29351 0.0
H995 H 0.60901 0.90461 0.29586 0.0
O996 O 0.59342 0.88248 0.1369 0.0
O997 O 0.55202 0.86714 0.1869 0.0
O998 O 0.58958 0.9371 0.18298 0.0
O999 O 0.56897 0.91835 0.25905 0.0
C1000 C 0.5476 0.77666 0.32329 0.0
C1001 C 0.51592 0.75814 0.30308 0.0
H1002 H 0.45619 0.73061 0.25719 0.0
H1003 H 0.43469 0.76173 0.21169 0.0
H1004 H 0.63757 0.88019 0.34072 0.0
H1005 H 0.60959 0.82023 0.35486 0.0
H1006 H 0.55866 0.76421 0.3419 0.0
H1007 H 0.50312 0.73174 0.30638 0.0
Mn1008 Mn 0.11552 0.66578 0.13714 0.0
Mn1009 Mn 0.14657 0.6731 0.25294 0.0
C1010 C 0.15088 0.71732 0.17202 0.0
C1011 C 0.11795 0.66297 0.04953 0.0
C1012 C 0.07543 0.65274 0.23306 0.0
O1013 O 0.10908 0.61957 0.15052 0.0
O1014 O 0.13483 0.62977 0.22504 0.0
C1015 C 0.20797 0.67576 0.22163 0.0
N1016 N 0.19243 0.68861 0.24804 0.0
C1017 C 0.24376 0.73435 0.27408 0.0
C1018 C 0.26023 0.72069 0.24927 0.0
C1019 C 0.24225 0.69144 0.22247 0.0
C1020 C 0.20953 0.71742 0.27228 0.0
H1021 H 0.19433 0.65429 0.19891 0.0
C1022 C 0.12009 0.61092 0.18799 0.0
O1023 O 0.09061 0.65262 0.07324 0.0
O1024 O 0.14387 0.67276 0.07696 0.0
N1025 N 0.15923 0.71428 0.28397 0.0
C1026 C 0.13986 0.72596 0.30106 0.0
C1027 C 0.1541 0.75603 0.3263 0.0
C1028 C 0.1881 0.77386 0.33345 0.0
C1029 C 0.20755 0.76136 0.31552 0.0
C1030 C 0.1919 0.73092 0.29161 0.0
H1031 H 0.11376 0.71249 0.29536 0.0
O1032 O 0.13101 0.71447 0.13643 0.0
O1033 O 0.14851 0.69011 0.18627 0.0
O1034 O 0.07837 0.6562 0.18585 0.0
O1035 O 0.09924 0.65781 0.26161 0.0
C1036 C 0.2419 0.77826 0.31945 0.0
C1037 C 0.26001 0.76484 0.29851 0.0
H1038 H 0.28669 0.73299 0.24916 0.0
H1039 H 0.25479 0.6813 0.20179 0.0
H1040 H 0.13894 0.76558 0.33981 0.0
H1041 H 0.19904 0.7973 0.35221 0.0
H1042 H 0.25469 0.80194 0.33747 0.0
H1043 H 0.28645 0.77851 0.30044 0.0
Mn1044 Mn 0.34708 0.45328 0.1408 0.0
Mn1045 Mn 0.33965 0.47697 0.25664 0.0
C1046 C 0.29553 0.43706 0.17568 0.0
C1047 C 0.35003 0.45858 0.05312 0.0
C1048 C 0.35996 0.42615 0.23689 0.0
O1049 O 0.39328 0.49297 0.15424 0.0
O1050 O 0.38303 0.50841 0.2288 0.0
C1051 C 0.33736 0.53596 0.22537 0.0
N1052 N 0.32431 0.50749 0.25161 0.0
C1053 C 0.27869 0.51332 0.27756 0.0
C1054 C 0.29251 0.5435 0.25282 0.0
C1055 C 0.32181 0.5547 0.22616 0.0
C1056 C 0.29548 0.49587 0.27577 0.0
H1057 H 0.35893 0.5438 0.20288 0.0
C1058 C 0.40193 0.51254 0.19181 0.0
O1059 O 0.36028 0.4415 0.07689 0.0
O1060 O 0.34021 0.4747 0.08051 0.0
N1061 N 0.29844 0.44859 0.28766 0.0
C1062 C 0.28672 0.41759 0.30502 0.0
C1063 C 0.25664 0.40187 0.33023 0.0
C1064 C 0.23886 0.41813 0.33716 0.0
C1065 C 0.25144 0.45007 0.31907 0.0
C1066 C 0.28187 0.46473 0.29514 0.0
H1067 H 0.3002 0.40492 0.29961 0.0
O1068 O 0.29842 0.42009 0.14005 0.0
O1069 O 0.3227 0.46193 0.18993 0.0
O1070 O 0.35658 0.42569 0.18965 0.0
O1071 O 0.3548 0.44483 0.26543 0.0
C1072 C 0.23467 0.46767 0.32296 0.0
C1073 C 0.24821 0.49921 0.30199 0.0
H1074 H 0.28033 0.55778 0.25272 0.0
H1075 H 0.3321 0.57745 0.20561 0.0
H1076 H 0.24704 0.37718 0.34393 0.0
H1077 H 0.21543 0.40573 0.35594 0.0
H1078 H 0.21101 0.45689 0.34103 0.0
H1079 H 0.23465 0.51211 0.30395 0.0
Mn1080 Mn 0.11525 0.45401 0.63882 0.0
Mn1081 Mn 0.14624 0.4801 0.75408 0.0
C1082 C 0.15175 0.43971 0.67488 0.0
C1083 C 0.11833 0.45957 0.55115 0.0
C1084 C 0.07564 0.42736 0.73509 0.0
O1085 O 0.10679 0.4925 0.65081 0.0
O1086 O 0.13306 0.51025 0.72469 0.0
C1087 C 0.20628 0.54086 0.72433 0.0
N1088 N 0.19177 0.51163 0.74869 0.0
C1089 C 0.24398 0.51907 0.7738 0.0
C1090 C 0.25942 0.54962 0.75005 0.0
C1091 C 0.24047 0.5605 0.72505 0.0
C1092 C 0.20979 0.5007 0.77218 0.0
H1093 H 0.19191 0.54882 0.70374 0.0
C1094 C 0.1173 0.5127 0.68755 0.0
O1095 O 0.09089 0.44131 0.57406 0.0
O1096 O 0.14374 0.47613 0.5793 0.0
N1097 N 0.1603 0.45299 0.78616 0.0
C1098 C 0.14179 0.42212 0.8045 0.0
C1099 C 0.15706 0.40728 0.82972 0.0
C1100 C 0.19117 0.42431 0.83582 0.0
C1101 C 0.20972 0.45609 0.81671 0.0
C1102 C 0.1931 0.46978 0.79251 0.0
H1103 H 0.11559 0.4089 0.79985 0.0
O1104 O 0.13228 0.42214 0.63929 0.0
O1105 O 0.14849 0.4642 0.68826 0.0
O1106 O 0.07846 0.42601 0.68792 0.0
O1107 O 0.0993 0.44707 0.76309 0.0
C1108 C 0.24409 0.4744 0.81969 0.0
C1109 C 0.26122 0.5058 0.79802 0.0
H1110 H 0.28581 0.56465 0.74999 0.0
H1111 H 0.25221 0.58376 0.70579 0.0
H1112 H 0.14259 0.38272 0.84424 0.0
H1113 H 0.20289 0.41264 0.85479 0.0
H1114 H 0.25763 0.46434 0.83781 0.0
H1115 H 0.28767 0.51938 0.79971 0.0
Mn1116 Mn 0.55983 0.66542 0.63883 0.0
Mn1117 Mn 0.5388 0.67249 0.75659 0.0
C1118 C 0.57686 0.71693 0.67459 0.0
C1119 C 0.55225 0.66266 0.55155 0.0
C1120 C 0.58829 0.65115 0.73207 0.0
O1121 O 0.52039 0.61924 0.65331 0.0
O1122 O 0.50627 0.62943 0.72906 0.0
C1123 C 0.47982 0.67609 0.73005 0.0
N1124 N 0.50887 0.68865 0.75458 0.0
C1125 C 0.50487 0.73503 0.78227 0.0
C1126 C 0.47414 0.7217 0.75939 0.0
C1127 C 0.46173 0.69226 0.73271 0.0
C1128 C 0.52162 0.71761 0.77872 0.0
H1129 H 0.47105 0.65445 0.70741 0.0
C1130 C 0.50147 0.6106 0.69168 0.0
O1131 O 0.57004 0.65245 0.57327 0.0
O1132 O 0.53699 0.67253 0.58076 0.0
N1133 N 0.56845 0.71346 0.78716 0.0
C1134 C 0.59972 0.72456 0.80267 0.0
C1135 C 0.61659 0.75472 0.82752 0.0
C1136 C 0.60119 0.77316 0.83605 0.0
C1137 C 0.56894 0.76117 0.81992 0.0
C1138 C 0.55314 0.73066 0.79623 0.0
H1139 H 0.61168 0.7105 0.79618 0.0
O1140 O 0.59302 0.71409 0.63767 0.0
O1141 O 0.55242 0.68967 0.68961 0.0
O1142 O 0.58831 0.65556 0.68514 0.0
O1143 O 0.57039 0.65636 0.76226 0.0
C1144 C 0.55211 0.77861 0.82551 0.0
C1145 C 0.52015 0.76561 0.80649 0.0
H1146 H 0.46035 0.73438 0.7607 0.0
H1147 H 0.43854 0.68236 0.71352 0.0
H1148 H 0.6415 0.76384 0.83975 0.0
H1149 H 0.61446 0.79663 0.85456 0.0
H1150 H 0.56377 0.80235 0.84343 0.0
H1151 H 0.50781 0.77966 0.80978 0.0
Mn1152 Mn 0.348 0.89863 0.63528 0.0
Mn1153 Mn 0.34134 0.86858 0.7516 0.0
C1154 C 0.2965 0.86378 0.67125 0.0
C1155 C 0.35056 0.89614 0.54761 0.0
C1156 C 0.36302 0.93986 0.73002 0.0
O1157 O 0.3941 0.90467 0.64833 0.0
O1158 O 0.38394 0.87865 0.72268 0.0
C1159 C 0.33635 0.80579 0.7221 0.0
N1160 N 0.32434 0.82238 0.74775 0.0
C1161 C 0.27766 0.77209 0.77495 0.0
C1162 C 0.29039 0.75454 0.75081 0.0
C1163 C 0.31975 0.77148 0.72394 0.0
C1164 C 0.29552 0.80629 0.77225 0.0
H1165 H 0.35783 0.81862 0.69916 0.0
C1166 C 0.40265 0.89324 0.68541 0.0
O1167 O 0.36118 0.92348 0.57136 0.0
O1168 O 0.34058 0.87015 0.57502 0.0
N1169 N 0.30084 0.85759 0.78351 0.0
C1170 C 0.29044 0.87799 0.80075 0.0
C1171 C 0.26065 0.86488 0.8266 0.0
C1172 C 0.24192 0.83099 0.83455 0.0
C1173 C 0.25318 0.81048 0.81664 0.0
C1174 C 0.28328 0.82499 0.79174 0.0
H1175 H 0.3048 0.90407 0.79495 0.0
O1176 O 0.29938 0.88339 0.63518 0.0
O1177 O 0.32377 0.86621 0.68524 0.0
O1178 O 0.35806 0.93603 0.68323 0.0
O1179 O 0.35829 0.9164 0.75919 0.0
C1180 C 0.23531 0.77616 0.8213 0.0
C1181 C 0.24744 0.75697 0.80017 0.0
H1182 H 0.27737 0.72806 0.75146 0.0
H1183 H 0.32921 0.75811 0.70382 0.0
H1184 H 0.25211 0.88086 0.84029 0.0
H1185 H 0.21878 0.82094 0.854 0.0
H1186 H 0.21185 0.76423 0.84004 0.0
H1187 H 0.23307 0.73057 0.80282 0.0
Mn1188 Mn 0.11981 0.44507 0.24663 0.0
Mn1189 Mn 0.14401 0.47358 0.12975 0.0
C1190 C 0.10497 0.48093 0.20941 0.0
C1191 C 0.1263 0.44952 0.33411 0.0
C1192 C 0.0927 0.40302 0.15286 0.0
O1193 O 0.15842 0.43683 0.23434 0.0
O1194 O 0.17542 0.46229 0.15961 0.0
C1195 C 0.20423 0.53532 0.1554 0.0
N1196 N 0.17462 0.5195 0.13228 0.0
C1197 C 0.17989 0.57046 0.10482 0.0
C1198 C 0.21079 0.58722 0.12733 0.0
C1199 C 0.22295 0.56956 0.15287 0.0
C1200 C 0.16247 0.53628 0.10825 0.0
H1201 H 0.21318 0.52195 0.17643 0.0
C1202 C 0.17842 0.44723 0.19729 0.0
O1203 O 0.108 0.42171 0.3122 0.0
O1204 O 0.14244 0.47456 0.30505 0.0
N1205 N 0.11547 0.48572 0.09745 0.0
C1206 C 0.08442 0.46605 0.08061 0.0
C1207 C 0.06834 0.47996 0.05513 0.0
C1208 C 0.08434 0.5139 0.0472 0.0
C1209 C 0.11635 0.53365 0.06472 0.0
C1210 C 0.13128 0.51835 0.0893 0.0
H1211 H 0.07204 0.43994 0.08651 0.0
O1212 O 0.08785 0.46203 0.24586 0.0
O1213 O 0.12912 0.47721 0.1957 0.0
O1214 O 0.09137 0.40728 0.19957 0.0
O1215 O 0.11191 0.42605 0.12347 0.0
C1216 C 0.13371 0.56796 0.05984 0.0
C1217 C 0.16539 0.58637 0.08012 0.0
H1218 H 0.22511 0.61366 0.12601 0.0
H1219 H 0.2465 0.58234 0.17118 0.0
H1220 H 0.04363 0.46456 0.04175 0.0
H1221 H 0.07173 0.52457 0.02801 0.0
H1222 H 0.1227 0.5805 0.04137 0.0
H1223 H 0.17823 0.61278 0.07701 0.0
Mn1224 Mn 0.56654 0.67935 0.24736 0.0
Mn1225 Mn 0.53793 0.67242 0.13008 0.0
C1226 C 0.53177 0.62774 0.2116 0.0
C1227 C 0.56189 0.68206 0.33474 0.0
C1228 C 0.60894 0.69382 0.15379 0.0
O1229 O 0.57316 0.72554 0.23312 0.0
O1230 O 0.54792 0.71524 0.15811 0.0
C1231 C 0.47503 0.66788 0.15741 0.0
N1232 N 0.49175 0.65565 0.13267 0.0
C1233 C 0.44162 0.60887 0.10532 0.0
C1234 C 0.42397 0.62185 0.12843 0.0
C1235 C 0.44076 0.65137 0.15494 0.0
C1236 C 0.47578 0.62668 0.10856 0.0
H1237 H 0.48772 0.68945 0.1802 0.0
C1238 C 0.56222 0.73406 0.1954 0.0
O1239 O 0.58983 0.69225 0.3129 0.0
O1240 O 0.53677 0.67228 0.30559 0.0
N1241 N 0.52705 0.63168 0.0991 0.0
C1242 C 0.54747 0.62095 0.08325 0.0
C1243 C 0.53447 0.59091 0.05814 0.0
C1244 C 0.50066 0.57225 0.04951 0.0
C1245 C 0.48013 0.58383 0.06603 0.0
C1246 C 0.49454 0.61417 0.09024 0.0
H1247 H 0.57348 0.63523 0.08964 0.0
O1248 O 0.55087 0.63061 0.24839 0.0
O1249 O 0.5348 0.65511 0.19672 0.0
O1250 O 0.6047 0.68909 0.2007 0.0
O1251 O 0.58575 0.68907 0.12401 0.0
C1252 C 0.44586 0.56603 0.06075 0.0
C1253 C 0.42661 0.57844 0.08067 0.0
H1254 H 0.3975 0.60888 0.12733 0.0
H1255 H 0.4273 0.661 0.17434 0.0
H1256 H 0.55046 0.5821 0.04558 0.0
H1257 H 0.49069 0.54891 0.03066 0.0
H1258 H 0.43401 0.54239 0.04251 0.0
H1259 H 0.40024 0.56411 0.0776 0.0
Mn1260 Mn 0.33487 0.89277 0.2427 0.0
Mn1261 Mn 0.34012 0.86714 0.12717 0.0
C1262 C 0.38567 0.90739 0.20682 0.0
C1263 C 0.33246 0.88799 0.33038 0.0
C1264 C 0.32159 0.91934 0.14656 0.0
O1265 O 0.28814 0.85395 0.23062 0.0
O1266 O 0.29688 0.83665 0.15642 0.0
C1267 C 0.34017 0.80671 0.15667 0.0
N1268 N 0.35441 0.83579 0.13193 0.0
C1269 C 0.39925 0.8287 0.10586 0.0
C1270 C 0.38459 0.79826 0.12995 0.0
C1271 C 0.35502 0.78732 0.15572 0.0
C1272 C 0.3832 0.84686 0.10786 0.0
H1273 H 0.318 0.79867 0.17771 0.0
C1274 C 0.27863 0.8339 0.19367 0.0
O1275 O 0.3228 0.90559 0.30669 0.0
O1276 O 0.34152 0.87125 0.30296 0.0
N1277 N 0.38124 0.89462 0.09524 0.0
C1278 C 0.39349 0.92563 0.07759 0.0
C1279 C 0.42358 0.94077 0.05237 0.0
C1280 C 0.44082 0.92393 0.04577 0.0
C1281 C 0.42771 0.892 0.06418 0.0
C1282 C 0.39732 0.87796 0.08818 0.0
H1283 H 0.38046 0.93876 0.08283 0.0
O1284 O 0.38365 0.92503 0.24221 0.0
O1285 O 0.35809 0.88269 0.19337 0.0
O1286 O 0.32575 0.92052 0.19367 0.0
O1287 O 0.32581 0.89991 0.11835 0.0
C1288 C 0.44387 0.87381 0.06049 0.0
C1289 C 0.42972 0.84223 0.08148 0.0
H1290 H 0.39617 0.78341 0.1298 0.0
H1291 H 0.34387 0.76416 0.17525 0.0
H1292 H 0.43361 0.96546 0.03844 0.0
H1293 H 0.46426 0.93588 0.02697 0.0
H1294 H 0.46749 0.88411 0.04239 0.0
H1295 H 0.44273 0.82879 0.07942 0.0
C1296 C 0.34876 0.29007 0.89131 0.0
C1297 C 0.37673 0.30557 0.92195 0.0
C1298 C 0.31707 0.27428 0.91154 0.0
C1299 C 0.31179 0.27346 0.96337 0.0
H1300 H 0.35126 0.289 0.85129 0.0
H1301 H 0.29658 0.26196 0.88622 0.0
S1302 S 0.37667 0.31341 0.05984 0.0
N1303 N 0.39686 0.32117 1.00674 0.0
N1304 N 0.33764 0.29195 0.04475 0.0
C1305 C 0.33954 0.29032 0.99432 0.0
C1306 C 0.37184 0.30618 0.97368 0.0
C1307 C 0.72383 0.05948 0.89488 0.0
C1308 C 0.71076 0.07442 0.92558 0.0
C1309 C 0.73953 0.04347 0.91506 0.0
C1310 C 0.74275 0.04136 0.96697 0.0
H1311 H 0.72283 0.06092 0.85465 0.0
H1312 H 0.74976 0.03319 0.88951 0.0
S1313 S 0.71063 0.07417 0.06423 0.0
N1314 N 0.70057 0.08435 1.011 0.0
N1315 N 0.72982 0.05429 0.04887 0.0
C1316 C 0.72864 0.05506 0.99824 0.0
C1317 C 0.7128 0.07156 0.97763 0.0
C1318 C 0.9703 0.69855 0.91234 0.0
C1319 C 0.97538 0.70389 0.96409 0.0
C1320 C 0.95467 0.66687 0.89212 0.0
C1321 C 0.94309 0.63891 0.92267 0.0
H1322 H 0.97764 0.71897 0.88709 0.0
H1323 H 0.95053 0.66435 0.85222 0.0
S1324 S 0.95354 0.63918 0.06005 0.0
N1325 N 0.97005 0.67817 0.04511 0.0
N1326 N 0.9405 0.61891 1.00711 0.0
C1327 C 0.94943 0.64388 0.97421 0.0
C1328 C 0.96561 0.6762 0.99485 0.0
C1329 C 0.30249 0.36588 0.58097 0.0
C1330 C 0.30514 0.37095 0.63294 0.0
C1331 C 0.28635 0.33426 0.56048 0.0
C1332 C 0.2718 0.30611 0.59095 0.0
H1333 H 0.31241 0.38652 0.55565 0.0
H1334 H 0.2844 0.33201 0.52025 0.0
S1335 S 0.2738 0.30548 0.7295 0.0
N1336 N 0.29333 0.34462 0.71456 0.0
N1337 N 0.26297 0.28553 0.67605 0.0
C1338 C 0.27525 0.31074 0.64298 0.0
C1339 C 0.29191 0.34297 0.66391 0.0
C1340 C 0.64951 0.94078 0.57798 0.0
C1341 C 0.64398 0.94034 0.62972 0.0
C1342 C 0.68128 0.95658 0.55801 0.0
C1343 C 0.70912 0.97251 0.58882 0.0
H1344 H 0.62916 0.92809 0.55253 0.0
H1345 H 0.68396 0.9552 0.51811 0.0
S1346 S 0.7084 0.98172 0.72641 0.0
N1347 N 0.66945 0.95983 0.71106 0.0
N1348 N 0.72883 0.98906 0.67361 0.0
C1349 C 0.70397 0.97356 0.64041 0.0
C1350 C 0.67158 0.95769 0.66076 0.0
C1351 C 0.05568 0.72755 0.55942 0.0
C1352 C 0.0403 0.73999 0.59042 0.0
C1353 C 0.07168 0.71175 0.57922 0.0
C1354 C 0.07291 0.70738 0.631 0.0
H1355 H 0.05642 0.73098 0.5194 0.0
H1356 H 0.08387 0.70362 0.55356 0.0
S1357 S 0.03316 0.73197 0.72835 0.0
N1358 N 0.02509 0.74442 0.6755 0.0
N1359 N 0.05472 0.71458 0.71275 0.0
C1360 C 0.05614 0.71821 0.66234 0.0
C1361 C 0.04004 0.73454 0.64211 0.0
C1362 C 0.64816 0.71113 0.08122 0.0
C1363 C 0.64279 0.70733 0.13314 0.0
C1364 C 0.67986 0.72654 0.06096 0.0
C1365 C 0.70785 0.73915 0.09161 0.0
H1366 H 0.62771 0.70274 0.05576 0.0
H1367 H 0.68237 0.7295 1.02086 0.0
S1368 S 0.70762 0.73323 0.22991 0.0
N1369 N 0.66861 0.71576 0.21471 0.0
N1370 N 0.72784 0.74474 0.17673 0.0
C1371 C 0.70287 0.73445 0.14351 0.0
C1372 C 0.67054 0.71856 0.16418 0.0
C1373 C 0.29362 0.95252 0.15527 0.0
C1374 C 0.3085 0.93952 0.12434 0.0
C1375 C 0.27743 0.96807 0.13531 0.0
C1376 C 0.27553 0.97166 0.08345 0.0
H1377 H 0.29332 0.94961 0.19538 0.0
H1378 H 0.26562 0.97664 0.16095 0.0
S1379 S 0.31375 0.94539 0.98609 0.0
N1380 N 0.32257 0.93378 0.03911 0.0
N1381 N 0.29248 0.96311 1.00159 0.0
C1382 C 0.29185 0.96036 0.05211 0.0
C1383 C 0.30816 0.94427 0.0725 0.0
C1384 C 0.0704 0.36415 0.08016 0.0
C1385 C 0.07283 0.36921 0.13215 0.0
C1386 C 0.05506 0.33254 0.05963 0.0
C1387 C 0.04162 0.30441 0.09008 0.0
H1388 H 0.0811 0.3848 0.05485 0.0
H1389 H 0.0548 0.3303 1.01941 0.0
S1390 S 0.03901 0.30379 0.22869 0.0
N1391 N 0.05845 0.34293 0.21374 0.0
N1392 N 0.02991 0.28384 0.17524 0.0
C1393 C 0.0427 0.30903 0.14215 0.0
C1394 C 0.05815 0.34126 0.1631 0.0
C1395 C 0.71884 0.66527 0.39378 0.0
C1396 C 0.70594 0.63713 0.42419 0.0
C1397 C 0.73457 0.69691 0.41433 0.0
C1398 C 0.73796 0.70199 0.46632 0.0
H1399 H 0.71784 0.66301 0.35353 0.0
H1400 H 0.74481 0.71757 0.38904 0.0
S1401 S 0.70631 0.63664 0.56289 0.0
N1402 N 0.69599 0.61666 0.50947 0.0
N1403 N 0.72533 0.67576 0.54791 0.0
C1404 C 0.72388 0.67405 0.49727 0.0
C1405 C 0.708 0.64182 0.47632 0.0
C1406 C 0.33363 0.0547 0.49188 0.0
C1407 C 0.30567 0.03932 0.4612 0.0
C1408 C 0.36532 0.07043 0.4717 0.0
C1409 C 0.37063 0.07131 0.41986 0.0
H1410 H 0.33112 0.05572 0.5319 0.0
H1411 H 0.3858 0.08267 0.49705 0.0
S1412 S 0.3058 0.03163 0.32328 0.0
N1413 N 0.28558 0.02386 0.37635 0.0
N1414 N 0.34482 0.05299 0.33843 0.0
C1415 C 0.34289 0.05455 0.38887 0.0
C1416 C 0.31059 0.03875 0.40946 0.0
C1417 C 0.95207 0.29277 0.39334 0.0
C1418 C 0.93829 0.30699 0.42407 0.0
C1419 C 0.96798 0.27699 0.41352 0.0
C1420 C 0.97116 0.27483 0.46543 0.0
H1421 H 0.94968 0.29282 0.35317 0.0
H1422 H 0.97728 0.26579 0.38798 0.0
S1423 S 0.94205 0.31058 0.56259 0.0
N1424 N 0.93089 0.31967 0.50939 0.0
N1425 N 0.96079 0.29026 0.54725 0.0
C1426 C 0.95879 0.29022 0.49665 0.0
C1427 C 0.94238 0.30615 0.47605 0.0
C1428 C 0.01422 0.62473 0.22448 0.0
C1429 C 0.04217 0.64006 0.25521 0.0
C1430 C 0.98249 0.60948 0.24454 0.0
C1431 C 0.97711 0.60901 0.29631 0.0
H1432 H 0.01673 0.62342 0.18452 0.0
H1433 H 0.96205 0.59723 0.21913 0.0
S1434 S 0.04193 0.64912 0.39285 0.0
N1435 N 0.0622 0.65612 0.33993 0.0
N1436 N 1.00291 0.62796 0.37763 0.0
C1437 C 1.00487 0.6258 0.3273 0.0
C1438 C 0.03721 0.64111 0.30683 0.0
C1439 C 0.40333 0.37658 0.24775 0.0
C1440 C 0.40497 0.37261 0.29957 0.0
C1441 C 0.38758 0.39263 0.22796 0.0
C1442 C 0.37288 0.40575 0.259 0.0
H1443 H 0.41503 0.36795 0.22201 0.0
H1444 H 0.38805 0.39575 0.18789 0.0
S1445 S 0.36701 0.39899 0.39717 0.0
N1446 N 0.38793 0.38093 0.38148 0.0
N1447 N 0.35865 0.41117 0.34429 0.0
C1448 C 0.37294 0.40061 0.31079 0.0
C1449 C 0.38881 0.38404 0.331 0.0
C1450 C 0.61152 0.98026 0.30221 0.0
C1451 C 0.60798 0.97524 0.25026 0.0
C1452 C 0.62712 0.01185 0.32281 0.0
C1453 C 0.63969 0.04003 0.2925 0.0
H1454 H 0.60158 0.95957 0.32745 0.0
H1455 H 0.6283 0.01404 0.36306 0.0
S1456 S 0.63864 0.0407 0.15387 0.0
N1457 N 0.61998 1.00156 0.16872 0.0
N1458 N 0.64902 0.06064 0.20734 0.0
C1459 C 0.63735 0.03543 0.24038 0.0
C1460 C 0.62164 1.00322 0.21935 0.0
C1461 C 0.38035 0.97872 0.80289 0.0
C1462 C 0.37685 0.97362 0.75096 0.0
C1463 C 0.39605 0.01035 0.82333 0.0
C1464 C 0.40928 0.03846 0.79282 0.0
H1465 H 0.37149 0.95812 0.82818 0.0
H1466 H 0.39879 0.01267 0.86348 0.0
S1467 S 0.40438 0.03894 0.65453 0.0
N1468 N 0.38622 0.99983 0.66946 0.0
N1469 N 0.41579 0.05894 0.70789 0.0
C1470 C 0.40488 0.03377 0.74091 0.0
C1471 C 0.38867 1.00154 0.72004 0.0
C1472 C 0.01455 0.3925 0.72716 0.0
C1473 C 0.04256 0.40688 0.75782 0.0
C1474 C 0.9829 0.37644 0.74745 0.0
C1475 C 0.97767 0.37374 0.7994 0.0
H1476 H 0.01693 0.39463 0.68696 0.0
H1477 H 0.96237 0.36678 0.72198 0.0
S1478 S 0.0427 0.40422 0.89639 0.0
N1479 N 0.06284 0.41515 0.8431 0.0
N1480 N 1.00363 0.38497 0.88118 0.0
C1481 C 1.00548 0.38657 0.83056 0.0
C1482 C 0.03776 0.40313 0.80984 0.0
C1483 C 0.62836 0.62004 0.82424 0.0
C1484 C 0.64097 0.60467 0.79353 0.0
C1485 C 0.61238 0.63582 0.8041 0.0
C1486 C 0.60838 0.63723 0.75223 0.0
H1487 H 0.62992 0.61911 0.86445 0.0
H1488 H 0.60251 0.64644 0.82967 0.0
S1489 S 0.63877 0.60284 0.65487 0.0
N1490 N 0.64975 0.59351 0.70801 0.0
N1491 N 0.61994 0.62302 0.67033 0.0
C1492 C 0.622 0.62308 0.72092 0.0
C1493 C 0.63815 0.60686 0.74146 0.0
C1494 C 0.2125 0.0809 1.00712 0.0
C1495 C 0.2415 0.08087 1.01808 0.0
C1496 C 0.2099 0.10881 1.01401 0.0
C1497 C 0.23616 0.13813 0.03238 0.0
H1498 H 0.19156 0.05913 0.99241 0.0
H1499 H 0.18705 0.10736 1.00405 0.0
S1500 S 0.31827 0.15142 0.06458 0.0
N1501 N 0.29774 0.11284 0.04619 0.0
N1502 N 0.29265 0.1656 0.06046 0.0
C1503 C 0.26548 0.13856 0.0437 0.0
C1504 C 0.2683 0.10996 0.03577 0.0
C1505 C 0.90692 0.15901 0.03782 0.0
C1506 C 0.93498 0.16315 1.01293 0.0
C1507 C 0.87949 0.12748 0.04486 0.0
C1508 C 0.87896 0.09939 0.02565 0.0
H1509 H 0.90646 0.18007 0.05277 0.0
H1510 H 0.8584 0.12518 0.06448 0.0
S1511 S 0.94558 0.09853 0.95256 0.0
N1512 N 0.95994 0.13733 0.96654 0.0
N1513 N 0.90887 0.0789 0.97779 0.0
C1514 C 0.90674 0.10386 0.99913 0.0
C1515 C 0.93452 0.13553 0.99305 0.0
C1516 C 0.8769 0.7981 1.00174 0.0
C1517 C 0.8483 0.76943 1.01549 0.0
C1518 C 0.90766 0.80129 1.00813 0.0
C1519 C 0.9115 0.77604 0.02897 0.0
H1520 H 0.87551 0.81845 0.98571 0.0
H1521 H 0.92868 0.82396 0.99635 0.0
S1522 S 0.84395 0.69453 0.06705 0.0
N1523 N 0.82516 0.7141 0.04746 0.0
N1524 N 0.88357 0.72039 0.06097 0.0
C1525 C 0.88301 0.74683 0.04229 0.0
C1526 C 0.85128 0.74335 0.0348 0.0
C1527 C 0.10854 0.20927 0.53745 0.0
C1528 C 0.13789 0.23478 0.51779 0.0
C1529 C 0.08112 0.21268 0.54426 0.0
C1530 C 0.08164 0.2418 0.53198 0.0
H1531 H 0.10665 0.18632 0.54831 0.0
H1532 H 0.05924 0.19224 0.55976 0.0
S1533 S 0.15265 0.317 0.48232 0.0
N1534 N 0.1661 0.29082 0.48744 0.0
N1535 N 0.11425 0.29746 0.50159 0.0
C1536 C 0.11083 0.26794 0.51324 0.0
C1537 C 0.13892 0.26427 0.50539 0.0
C1538 C 0.75074 0.85118 0.51476 0.0
C1539 C 0.77454 0.84639 0.53872 0.0
C1540 C 0.75556 0.88301 0.50783 0.0
C1541 C 0.78377 0.9108 0.52624 0.0
H1542 H 0.72874 0.83038 0.50041 0.0
H1543 H 0.73684 0.88581 0.48894 0.0
S1544 S 0.85148 0.9101 0.59634 0.0
N1545 N 0.82608 0.87138 0.5831 0.0
N1546 N 0.83477 0.93037 0.57208 0.0
C1547 C 0.80702 0.90572 0.55172 0.0
C1548 C 0.80241 0.87374 0.55767 0.0
C1549 C 0.1284 0.87639 0.50675 0.0
C1550 C 0.10024 0.87601 0.52527 0.0
C1551 C 0.15989 0.90394 0.51355 0.0
C1552 C 0.16392 0.93226 0.53746 0.0
H1553 H 0.12619 0.8551 0.48787 0.0
H1554 H 0.181 0.90335 0.49915 0.0
S1555 S 0.09907 0.94338 0.59579 0.0
N1556 N 0.07957 0.90639 0.57146 0.0
N1557 N 0.13791 0.95764 0.58225 0.0
C1558 C 0.13622 0.93196 0.55666 0.0
C1559 C 0.1046 0.90407 0.55083 0.0
C1560 C 0.75084 0.90196 1.01478 0.0
C1561 C 0.7746 0.93015 0.03963 0.0
C1562 C 0.75523 0.87468 1.00785 0.0
C1563 C 0.78298 0.87447 0.027 0.0
H1564 H 0.72928 0.90132 0.99965 0.0
H1565 H 0.73659 0.85349 0.98825 0.0
S1566 S 0.85027 0.94164 0.09962 0.0
N1567 N 0.82548 0.95559 0.08575 0.0
N1568 N 0.83344 0.90489 0.07456 0.0
C1569 C 0.80614 0.90239 0.0534 0.0
C1570 C 0.80192 0.92998 0.05947 0.0
C1571 C 0.10976 0.90641 0.0389 0.0
C1572 C 0.13914 0.91002 1.01984 0.0
C1573 C 0.08217 0.87565 0.04571 0.0
C1574 C 0.08258 0.8469 0.03411 0.0
H1575 H 0.10798 0.9276 0.0492 0.0
H1576 H 0.06025 0.87438 0.06068 0.0
S1577 S 0.1537 0.84214 0.98639 0.0
N1578 N 0.16728 0.88183 0.99088 0.0
N1579 N 0.11519 0.82351 1.00515 0.0
C1580 C 0.11184 0.84975 1.01605 0.0
C1581 C 0.14006 0.88142 1.00814 0.0
C1582 C 0.14078 0.21231 0.04621 0.0
C1583 C 0.16922 0.24118 0.03262 0.0
C1584 C 0.10989 0.20879 0.03969 0.0
C1585 C 0.1058 0.2339 1.01893 0.0
H1586 H 0.14239 0.19213 0.06245 0.0
H1587 H 0.089 0.18604 0.05154 0.0
S1588 S 0.17284 0.31552 0.98015 0.0
N1589 N 0.19191 0.29632 1.0001 0.0
N1590 N 0.13328 0.28942 0.98637 0.0
C1591 C 0.13411 0.26319 1.00535 0.0
C1592 C 0.16595 0.267 1.01296 0.0
C1593 C 0.92992 0.79772 0.50026 0.0
C1594 C 0.9303 0.76928 0.51401 0.0
C1595 C 0.90223 0.8006 0.50722 0.0
C1596 C 0.87348 0.77525 0.52863 0.0
H1597 H 0.95141 0.81817 0.48391 0.0
H1598 H 0.90354 0.82312 0.49546 0.0
S1599 S 0.86067 0.69412 0.56658 0.0
N1600 N 0.89886 0.71397 0.54635 0.0
N1601 N 0.84647 0.71966 0.56088 0.0
C1602 C 0.87317 0.74621 0.5418 0.0
C1603 C 0.90155 0.74305 0.53375 0.0
C1604 C 0.21161 0.13737 0.50059 0.0
C1605 C 0.24011 0.16598 0.51482 0.0
C1606 C 0.20854 0.10663 0.50689 0.0
C1607 C 0.23372 0.10287 0.52816 0.0
H1608 H 0.19136 0.13874 0.48415 0.0
H1609 H 0.18604 0.08559 0.49468 0.0
S1610 S 0.31464 0.17052 0.5681 0.0
N1611 N 0.29512 0.18923 0.54797 0.0
N1612 N 0.289 0.13088 0.56147 0.0
C1613 C 0.26269 0.13137 0.54215 0.0
C1614 C 0.26608 0.16306 0.53468 0.0
C1615 C 0.90888 0.10997 0.51015 0.0
C1616 C 0.91179 0.13899 0.52952 0.0
C1617 C 0.87849 0.08197 0.50339 0.0
C1618 C 0.84942 0.08157 0.51544 0.0
H1619 H 0.93033 0.10876 0.49959 0.0
H1620 H 0.87777 0.06034 0.48823 0.0
S1621 S 0.84276 0.15158 0.56344 0.0
N1622 N 0.88257 0.16604 0.55875 0.0
N1623 N 0.82488 0.11308 0.54468 0.0
C1624 C 0.85152 0.11049 0.53359 0.0
C1625 C 0.88284 0.13918 0.5414 0.0
C1626 C 0.92757 0.47148 0.37592 0.0
C1627 C 0.90036 0.47243 0.35609 0.0
C1628 C 0.93125 0.44374 0.36932 0.0
C1629 C 0.90727 0.41581 0.34424 0.0
H1630 H 0.94629 0.49239 0.39594 0.0
H1631 H 0.95242 0.44382 0.38498 0.0
S1632 S 0.83314 0.40637 0.28172 0.0
N1633 N 0.85044 0.4431 0.3069 0.0
N1634 N 0.857 0.39151 0.29667 0.0
C1635 C 0.88059 0.41677 0.32346 0.0
C1636 C 0.87714 0.44485 0.32905 0.0
C1637 C 0.59801 0.46809 0.33439 0.0
C1638 C 0.59809 0.49688 0.34745 0.0
C1639 C 0.57029 0.43743 0.34101 0.0
C1640 C 0.54126 0.43395 0.36137 0.0
H1641 H 0.6197 0.46925 0.31864 0.0
H1642 H 0.57175 0.41622 0.32973 0.0
S1643 S 0.52783 0.50207 0.39803 0.0
N1644 N 0.56619 0.52053 0.37857 0.0
N1645 N 0.51383 0.46235 0.39249 0.0
C1646 C 0.54074 0.46261 0.37417 0.0
C1647 C 0.56912 0.49421 0.36645 0.0
C1648 C 0.54191 0.1327 0.33901 0.0
C1649 C 0.51332 0.10378 0.35193 0.0
C1650 C 0.57271 0.13608 0.346 0.0
C1651 C 0.57659 0.11076 0.36647 0.0
H1652 H 0.54049 0.153 0.32289 0.0
H1653 H 0.5937 0.15888 0.3346 0.0
S1654 S 0.5091 0.02899 0.40368 0.0
N1655 N 0.49027 0.04843 0.38371 0.0
N1656 N 0.54873 0.05503 0.39815 0.0
C1657 C 0.54813 0.08144 0.37946 0.0
C1658 C 0.51637 0.07779 0.37144 0.0
C1659 C 0.80644 0.59334 0.83988 0.0
C1660 C 0.80699 0.56605 0.86033 0.0
C1661 C 0.77917 0.59777 0.84673 0.0
C1662 C 0.75133 0.57448 0.87283 0.0
H1663 H 0.82726 0.61151 0.81902 0.0
H1664 H 0.77949 0.61889 0.83037 0.0
S1665 S 0.74103 0.50049 0.93721 0.0
N1666 N 0.77743 0.51684 0.91111 0.0
N1667 N 0.72675 0.52481 0.92195 0.0
C1668 C 0.75195 0.54778 0.89431 0.0
C1669 C 0.77954 0.54356 0.88838 0.0
C1670 C 0.47053 0.20748 0.88248 0.0
C1671 C 0.4418 0.17884 0.86906 0.0
C1672 C 0.47371 0.23824 0.87585 0.0
C1673 C 0.4484 0.24199 0.85507 0.0
H1674 H 0.4909 0.20612 0.89847 0.0
H1675 H 0.49639 0.2593 0.88742 0.0
S1676 S 0.36687 0.17432 0.81755 0.0
N1677 N 0.38644 0.15559 0.83736 0.0
N1678 N 0.39274 0.21397 0.8233 0.0
C1679 C 0.41918 0.21347 0.84199 0.0
C1680 C 0.41571 0.18177 0.84978 0.0
C1681 C 0.79784 0.20955 0.83905 0.0
C1682 C 0.76965 0.20957 0.85647 0.0
C1683 C 0.82939 0.23695 0.84621 0.0
C1684 C 0.83348 0.26549 0.86946 0.0
H1685 H 0.7956 0.18801 0.821 0.0
H1686 H 0.85052 0.23602 0.83277 0.0
S1687 S 0.76848 0.27784 0.92424 0.0
N1688 N 0.74893 0.24075 0.90029 0.0
N1689 N 0.80741 0.29161 0.91206 0.0
C1690 C 0.80572 0.26566 0.88727 0.0
C1691 C 0.77403 0.23797 0.88096 0.0
C1692 C 0.47161 0.23586 0.36905 0.0
C1693 C 0.44552 0.20639 0.35079 0.0
C1694 C 0.46867 0.26358 0.37596 0.0
C1695 C 0.43947 0.26325 0.36516 0.0
H1696 H 0.49461 0.23758 0.37887 0.0
H1697 H 0.48951 0.2855 0.39053 0.0
S1698 S 0.36297 0.19213 0.31915 0.0
N1699 N 0.38894 0.17835 0.32311 0.0
N1700 N 0.3832 0.23074 0.33739 0.0
C1701 C 0.41282 0.23399 0.34763 0.0
C1702 C 0.41599 0.20559 0.33969 0.0
C1703 C 0.80244 0.21763 0.33916 0.0
C1704 C 0.80272 0.24543 0.35916 0.0
C1705 C 0.77526 0.18588 0.34597 0.0
C1706 C 0.7472 0.18121 0.3715 0.0
H1707 H 0.82349 0.22033 0.31893 0.0
H1708 H 0.77589 0.1651 0.33024 0.0
S1709 S 0.736 0.24484 0.43407 0.0
N1710 N 0.77255 0.26502 0.40844 0.0
N1711 N 0.72202 0.20621 0.41938 0.0
C1712 C 0.74744 0.20852 0.39227 0.0
C1713 C 0.77496 0.2404 0.38635 0.0
C1714 C 0.82885 0.59854 0.34706 0.0
C1715 C 0.834 0.57529 0.37213 0.0
C1716 C 0.79687 0.59332 0.34004 0.0
C1717 C 0.7693 0.5652 0.35923 0.0
H1718 H 0.84944 0.62029 0.33168 0.0
H1719 H 0.79379 0.61158 0.32018 0.0
S1720 S 0.77105 0.49908 0.43264 0.0
N1721 N 0.80963 0.52459 0.41876 0.0
N1722 N 0.7504 0.51504 0.40726 0.0
C1723 C 0.77479 0.54262 0.38599 0.0
C1724 C 0.8069 0.54769 0.39223 0.0
C1725 C 0.5996 0.13097 0.8335 0.0
C1726 C 0.59987 0.10268 0.84851 0.0
C1727 C 0.57207 0.13418 0.84013 0.0
C1728 C 0.54336 0.10929 0.86238 0.0
H1729 H 0.62106 0.15105 0.81642 0.0
H1730 H 0.57348 0.1566 0.82747 0.0
S1731 S 0.53035 0.02871 0.90399 0.0
N1732 N 0.56841 0.04801 0.88316 0.0
N1733 N 0.51631 0.0543 0.89695 0.0
C1734 C 0.54295 0.0804 0.87686 0.0
C1735 C 0.57118 0.07692 0.86921 0.0
C1736 C 0.88176 0.47012 0.83318 0.0
C1737 C 0.91061 0.49888 0.84573 0.0
C1738 C 0.87865 0.43943 0.84027 0.0
C1739 C 0.90416 0.43588 0.86063 0.0
H1740 H 0.86119 0.47131 0.81767 0.0
H1741 H 0.85584 0.41826 0.82948 0.0
S1742 S 0.98621 0.50388 0.89524 0.0
N1743 N 0.96638 0.52244 0.87581 0.0
N1744 N 0.96026 0.46418 0.89058 0.0
C1745 C 0.93357 0.46452 0.87259 0.0
C1746 C 0.93696 0.49615 0.8644 0.0
C1747 C 0.55373 0.46849 0.87713 0.0
C1748 C 0.582 0.46893 0.85897 0.0
C1749 C 0.52228 0.44094 0.86994 0.0
C1750 C 0.51839 0.4127 0.84594 0.0
H1751 H 0.55583 0.48973 0.89601 0.0
H1752 H 0.50109 0.44148 0.8841 0.0
S1753 S 0.58356 0.40178 0.78838 0.0
N1754 N 0.60293 0.43867 0.81306 0.0
N1755 N 0.54465 0.38748 0.8014 0.0
C1756 C 0.5462 0.41307 0.82708 0.0
C1757 C 0.57778 0.44094 0.83336 0.0
C1758 C 0.54719 0.74742 0.66977 0.0
C1759 C 0.57618 0.74764 0.68191 0.0
C1760 C 0.54424 0.77516 0.67594 0.0
C1761 C 0.57005 0.80455 0.69491 0.0
H1762 H 0.52647 0.72548 0.65497 0.0
H1763 H 0.52137 0.77345 0.66531 0.0
S1764 S 0.65225 0.81877 0.72901 0.0
N1765 N 0.63217 0.78013 0.71084 0.0
N1766 N 0.62635 0.83257 0.72396 0.0
C1767 C 0.59947 0.80534 0.70692 0.0
C1768 C 0.60269 0.77693 0.69964 0.0
C1769 C 0.21083 0.79608 0.70933 0.0
C1770 C 0.21004 0.76799 0.68949 0.0
C1771 C 0.23827 0.82763 0.70215 0.0
C1772 C 0.26609 0.83181 0.67638 0.0
H1773 H 0.18998 0.79374 0.72973 0.0
H1774 H 0.23807 0.84864 0.71787 0.0
S1775 S 0.27593 0.76728 0.61404 0.0
N1776 N 0.23945 0.74764 0.63999 0.0
N1777 N 0.29047 0.80604 0.62849 0.0
C1778 C 0.2653 0.80421 0.65575 0.0
C1779 C 0.23753 0.77255 0.66201 0.0
C1780 C 0.21914 0.42135 0.71272 0.0
C1781 C 0.24737 0.449 0.69406 0.0
C1782 C 0.18771 0.41745 0.70552 0.0
C1783 C 0.1838 0.44165 0.681 0.0
H1784 H 0.22127 0.40234 0.73202 0.0
H1785 H 0.16654 0.39585 0.72004 0.0
S1786 S 0.24884 0.51718 0.62194 0.0
N1787 N 0.26823 0.4998 0.64704 0.0
N1788 N 0.20996 0.49275 0.63542 0.0
C1789 C 0.21155 0.4689 0.66163 0.0
C1790 C 0.24313 0.4726 0.6679 0.0
C1791 C 0.41622 0.8778 0.21172 0.0
C1792 C 0.41625 0.90661 0.19898 0.0
C1793 C 0.44394 0.87487 0.2052 0.0
C1794 C 0.47308 0.90056 0.18532 0.0
H1795 H 0.39447 0.8572 0.2272 0.0
H1796 H 0.44241 0.85214 0.21628 0.0
S1797 S 0.48672 0.98231 0.1494 0.0
N1798 N 0.44829 0.96233 0.16851 0.0
N1799 N 0.50068 0.95655 0.15479 0.0
C1800 C 0.47368 0.92981 0.17273 0.0
C1801 C 0.4453 0.93301 0.18035 0.0
C1802 C 0.08834 0.54964 0.17191 0.0
C1803 C 0.11628 0.57755 0.19068 0.0
C1804 C 0.08379 0.5179 0.17892 0.0
C1805 C 0.10761 0.51334 0.20332 0.0
H1806 H 0.06961 0.55225 0.15269 0.0
H1807 H 0.06199 0.49701 0.16431 0.0
S1808 S 0.18391 0.5774 0.26198 0.0
N1809 N 0.16705 0.59743 0.23733 0.0
N1810 N 0.15886 0.53865 0.24846 0.0
C1811 C 0.13522 0.5408 0.2226 0.0
C1812 C 0.13955 0.57267 0.21657 0.0
C1813 C 0.4949 0.56935 0.18196 0.0
C1814 C 0.49952 0.59763 0.20674 0.0
C1815 C 0.46317 0.54212 0.17527 0.0
C1816 C 0.43533 0.54202 0.19468 0.0
H1817 H 0.51572 0.56859 0.16668 0.0
H1818 H 0.4605 0.52089 0.15561 0.0
S1819 S 0.43573 0.60939 0.26753 0.0
N1820 N 0.47437 0.62324 0.25318 0.0
N1821 N 0.41564 0.5726 0.24265 0.0
C1822 C 0.4403 0.57 0.22115 0.0
C1823 C 0.47215 0.59757 0.22688 0.0
C1824 C 0.13466 0.59838 0.71533 0.0
C1825 C 0.10564 0.59791 0.70262 0.0
C1826 C 0.1381 0.57097 0.70868 0.0
C1827 C 0.11277 0.54168 0.68859 0.0
H1828 H 0.15508 0.62029 0.73079 0.0
H1829 H 0.16101 0.5729 0.71971 0.0
S1830 S 0.03051 0.52675 0.65318 0.0
N1831 N 0.05 0.56519 0.67232 0.0
N1832 N 0.05674 0.51336 0.65832 0.0
C1833 C 0.08325 0.54057 0.67624 0.0
C1834 C 0.07952 0.56866 0.68401 0.0
C1835 C 0.44446 0.51765 0.68243 0.0
C1836 C 0.41648 0.51314 0.70803 0.0
C1837 C 0.47166 0.54935 0.67536 0.0
C1838 C 0.47201 0.57724 0.69509 0.0
H1839 H 0.44496 0.49679 0.6667 0.0
H1840 H 0.49265 0.55196 0.65504 0.0
S1841 S 0.40554 0.57712 0.76996 0.0
N1842 N 0.39146 0.53842 0.7556 0.0
N1843 N 0.44208 0.59712 0.74425 0.0
C1844 C 0.44438 0.57238 0.72242 0.0
C1845 C 0.41685 0.54056 0.7286 0.0
C1846 C 0.4639 0.92452 0.6692 0.0
C1847 C 0.43582 0.89655 0.68753 0.0
C1848 C 0.49551 0.92877 0.67624 0.0
C1849 C 0.49977 0.90462 0.70021 0.0
H1850 H 0.46154 0.94355 0.65046 0.0
H1851 H 0.51654 0.95064 0.66209 0.0
S1852 S 0.43515 0.82808 0.75762 0.0
N1853 N 0.41544 0.84534 0.73321 0.0
N1854 N 0.47398 0.85301 0.74449 0.0
C1855 C 0.47213 0.87695 0.71897 0.0
C1856 C 0.44039 0.87291 0.71289 0.0
C1857 C 0.23681 0.46898 0.17617 0.0
C1858 C 0.20778 0.44339 0.1965 0.0
C1859 C 0.26454 0.4661 0.16957 0.0
C1860 C 0.26466 0.43742 0.18266 0.0
H1861 H 0.23827 0.49165 0.1649 0.0
H1862 H 0.28622 0.48668 0.15389 0.0
S1863 S 0.19441 0.3618 0.23287 0.0
N1864 N 0.18035 0.38747 0.22738 0.0
N1865 N 0.2328 0.38179 0.21356 0.0
C1866 C 0.23569 0.41104 0.20152 0.0
C1867 C 0.20727 0.41419 0.2092 0.0
C1868 C 0.59784 0.82698 0.20411 0.0
C1869 C 0.57387 0.83127 0.17967 0.0
C1870 C 0.59353 0.79535 0.2113 0.0
C1871 C 0.56569 0.76728 0.19266 0.0
H1872 H 0.61959 0.848 0.21859 0.0
H1873 H 0.61239 0.79294 0.23052 0.0
S1874 S 0.49774 0.76671 0.12131 0.0
N1875 N 0.52257 0.80554 0.13464 0.0
N1876 N 0.51485 0.74696 0.14609 0.0
C1877 C 0.54227 0.77189 0.16674 0.0
C1878 C 0.54635 0.80365 0.16054 0.0
C1879 C 0.21089 0.74805 0.16544 0.0
C1880 C 0.18223 0.74812 0.17875 0.0
C1881 C 0.2416 0.77565 0.17199 0.0
C1882 C 0.24528 0.80473 0.19253 0.0
H1883 H 0.2096 0.7263 0.14966 0.0
H1884 H 0.2627 0.77403 0.16059 0.0
S1885 S 0.17752 0.81867 0.22923 0.0
N1886 N 0.15886 0.78028 0.20985 0.0
N1887 N 0.21717 0.83247 0.22364 0.0
C1888 C 0.21673 0.80546 0.20534 0.0
C1889 C 0.18507 0.77718 0.19769 0.0
C1890 C 0.20433 0.20153 0.24845 0.0
C1891 C 0.23131 0.22567 0.22166 0.0
C1892 C 0.20171 0.20384 0.30054 0.0
C1893 C 0.22555 0.23079 0.32778 0.0
H1894 H 0.18522 0.18052 0.22911 0.0
H1895 H 0.18074 0.18443 0.31956 0.0
S1896 S 0.30071 0.30112 0.27528 0.0
N1897 N 0.28229 0.27758 0.22668 0.0
N1898 N 0.27703 0.28223 0.32355 0.0
C1899 C 0.25243 0.25527 0.30126 0.0
C1900 C 0.25541 0.25262 0.24857 0.0
C1901 C 0.7703 0.00918 0.2506 0.0
C1902 C 0.79656 0.01085 0.22326 0.0
C1903 C 0.76736 1.00351 0.30229 0.0
C1904 C 0.7909 0.99989 0.32939 0.0
H1905 H 0.75138 0.01173 0.23181 0.0
H1906 H 0.74667 1.00257 0.32129 0.0
S1907 S 0.86459 1.00232 0.27601 0.0
N1908 N 0.84651 0.00804 0.2274 0.0
N1909 N 0.84153 0.9984 0.32481 0.0
C1910 C 0.81748 1.00174 0.30273 0.0
C1911 C 0.82015 0.00691 0.24971 0.0
C1912 C 0.00898 0.8126 0.30169 0.0
C1913 C 0.01282 0.78921 0.32902 0.0
C1914 C 1.00456 0.81011 0.24943 0.0
C1915 C 1.00298 0.78368 0.22258 0.0
H1916 H 0.00957 0.83311 0.32075 0.0
H1917 H 1.00208 0.82887 0.23001 0.0
S1918 S 0.01126 0.71557 0.27642 0.0
N1919 N 0.01476 0.73872 0.32477 0.0
N1920 N 1.00582 0.7337 0.22771 0.0
C1921 C 1.00655 0.76003 0.24961 0.0
C1922 C 0.01165 0.76289 0.30243 0.0
C1923 C 0.76363 0.76419 0.80339 0.0
C1924 C 0.78798 0.79091 0.83029 0.0
C1925 C 0.7661 0.76123 0.75161 0.0
C1926 C 0.79271 0.78515 0.72397 0.0
H1927 H 0.74264 0.74495 0.8226 0.0
H1928 H 0.74657 0.74014 0.73299 0.0
S1929 S 0.8629 0.86034 0.77607 0.0
N1930 N 0.83975 0.84188 0.82511 0.0
N1931 N 0.84391 0.83679 0.72765 0.0
C1932 C 0.81712 0.81222 0.75022 0.0
C1933 C 0.8149 0.81496 0.8033 0.0
C1934 C 0.25059 0.01087 0.74888 0.0
C1935 C 0.22605 0.01276 0.72178 0.0
C1936 C 0.24803 0.00542 0.8006 0.0
C1937 C 0.2211 1.00218 0.82792 0.0
H1938 H 0.27182 0.01303 0.72989 0.0
H1939 H 0.2677 1.00421 0.81941 0.0
S1940 S 0.1502 0.00559 0.77519 0.0
N1941 N 0.1737 0.01085 0.72639 0.0
N1942 N 0.16934 1.00147 0.82382 0.0
C1943 C 0.19648 1.00436 0.8015 0.0
C1944 C 0.19882 0.00938 0.74848 0.0
C1945 C 1.00646 0.24837 0.74898 0.0
C1946 C 1.00333 0.22157 0.72135 0.0
C1947 C 0.01205 0.25081 0.80069 0.0
C1948 C 0.01419 0.22628 0.82747 0.0
H1949 H 1.00508 0.26803 0.73041 0.0
H1950 H 0.01415 0.27194 0.81993 0.0
S1951 S 1.00725 0.15071 0.77319 0.0
N1952 N 1.00289 0.16992 0.72486 0.0
N1953 N 0.01254 0.17405 0.8222 0.0
C1954 C 0.01087 0.19917 0.80046 0.0
C1955 C 1.0057 0.19695 0.74747 0.0
C1956 C 0.8699 0.53301 0.58161 0.0
C1957 C 0.8969 0.55708 0.55471 0.0
C1958 C 0.86745 0.53524 0.63385 0.0
C1959 C 0.89144 0.56209 0.6611 0.0
H1960 H 0.85064 0.51213 0.56225 0.0
H1961 H 0.84648 0.51589 0.65295 0.0
S1962 S 0.96673 0.63219 0.60838 0.0
N1963 N 0.94809 0.60878 0.55978 0.0
N1964 N 0.94311 0.61332 0.65672 0.0
C1965 C 0.91833 0.58649 0.63446 0.0
C1966 C 0.92116 0.58389 0.5817 0.0
C1967 C 0.43351 0.33919 0.5824 0.0
C1968 C 0.46036 0.34248 0.55479 0.0
C1969 C 0.4312 0.33387 0.63416 0.0
C1970 C 0.45593 0.33219 0.66106 0.0
H1971 H 0.41369 0.34023 0.56378 0.0
H1972 H 0.41 0.33164 0.65334 0.0
S1973 S 0.53173 0.33967 0.60686 0.0
N1974 N 0.51228 0.34352 0.55841 0.0
N1975 N 0.50841 0.33442 0.65591 0.0
C1976 C 0.4831 0.33566 0.63407 0.0
C1977 C 0.48518 0.34054 0.58099 0.0
C1978 C 0.67639 0.14449 0.63596 0.0
C1979 C 0.68043 0.12106 0.66282 0.0
C1980 C 0.67132 0.14193 0.58388 0.0
C1981 C 0.6692 0.11539 0.55666 0.0
H1982 H 0.67736 0.1651 0.65526 0.0
H1983 H 0.66877 0.16079 0.56486 0.0
S1984 S 0.67773 0.04714 0.60917 0.0
N1985 N 0.682 0.07041 0.65776 0.0
N1986 N 0.67176 0.06525 0.56091 0.0
C1987 C 0.67294 0.09168 0.58319 0.0
C1988 C 0.67875 0.09462 0.63589 0.0
C1989 C 0.47837 0.14331 0.13483 0.0
C1990 C 0.45148 0.11909 0.16169 0.0
C1991 C 0.48097 0.141 0.08271 0.0
C1992 C 0.45721 0.11398 0.05551 0.0
H1993 H 0.49742 0.1644 0.15413 0.0
H1994 H 0.50185 0.16049 0.06364 0.0
S1995 S 0.38236 0.04336 0.10822 0.0
N1996 N 0.40071 0.06698 0.15677 0.0
N1997 N 0.40592 0.06234 0.05989 0.0
C1998 C 0.43044 0.0894 0.08211 0.0
C1999 C 0.42749 0.09204 0.13482 0.0
C2000 C 0.91304 0.33539 0.13523 0.0
C2001 C 0.88657 0.33376 0.1619 0.0
C2002 C 0.91636 0.341 0.08351 0.0
C2003 C 0.89305 0.34463 0.05573 0.0
H2004 H 0.93182 0.33291 0.15458 0.0
H2005 H 0.93722 0.34197 0.06505 0.0
S2006 S 0.81884 0.34205 0.10719 0.0
N2007 N 0.83657 0.33642 0.15635 0.0
N2008 N 0.84232 0.34599 0.05897 0.0
C2009 C 0.86624 0.34273 0.08172 0.0
C2010 C 0.86315 0.33759 0.13474 0.0
C2011 C 0.67638 0.58181 0.13483 0.0
C2012 C 0.68002 0.55821 0.16183 0.0
C2013 C 0.67099 0.57912 0.083 0.0
C2014 C 0.66962 0.55306 0.05545 0.0
H2015 H 0.67711 0.60235 0.15402 0.0
H2016 H 0.66843 0.59805 0.06427 0.0
S2017 S 0.6783 0.48497 0.10785 0.0
N2018 N 0.68185 0.50776 0.15682 0.0
N2019 N 0.67268 0.50321 0.05936 0.0
C2020 C 0.67355 0.52941 0.08184 0.0
C2021 C 0.67847 0.53185 0.13491 0.0
C2022 C 0.58206 0.91614 0.9658 0.0
C2023 C 0.55553 0.89187 0.99309 0.0
C2024 C 0.58477 0.91347 0.91407 0.0
C2025 C 0.56077 0.88668 0.88688 0.0
H2026 H 0.60134 0.9373 0.98464 0.0
H2027 H 0.60572 0.93297 0.89514 0.0
S2028 S 0.48609 0.81645 0.94011 0.0
N2029 N 0.5047 0.83988 0.98881 0.0
N2030 N 0.50933 0.83531 0.89134 0.0
C2031 C 0.5339 0.86228 0.9135 0.0
C2032 C 0.53141 0.86474 0.96656 0.0
C2033 C 0.14695 0.67032 0.96702 0.0
C2034 C 0.1198 0.6669 0.99407 0.0
C2035 C 0.14948 0.67553 0.91493 0.0
C2036 C 0.1254 0.67842 0.88802 0.0
H2037 H 0.16632 0.66878 0.98619 0.0
H2038 H 0.17059 0.67758 0.89569 0.0
S2039 S 0.04953 0.67168 0.94115 0.0
N2040 N 0.06827 0.66673 0.98948 0.0
N2041 N 0.07335 0.6772 0.89277 0.0
C2042 C 0.09828 0.67529 0.91478 0.0
C2043 C 0.09539 0.66934 0.96739 0.0
C2044 C 0.34406 0.48101 0.97037 0.0
C2045 C 0.34628 0.45663 0.99762 0.0
C2046 C 0.33923 0.47858 0.91818 0.0
C2047 C 0.33552 0.45124 0.89134 0.0
H2048 H 0.34631 0.50226 0.98943 0.0
H2049 H 0.33815 0.49815 0.89879 0.0
S2050 S 0.33875 0.38028 0.94513 0.0
N2051 N 0.34428 0.40419 0.99339 0.0
N2052 N 0.33449 0.39927 0.8965 0.0
C2053 C 0.33737 0.42658 0.91834 0.0
C2054 C 0.34295 0.42938 0.97106 0.0
C2055 C 0.0968 0.43169 0.4689 0.0
C2056 C 0.12093 0.45862 0.49569 0.0
C2057 C 0.09934 0.42869 0.41716 0.0
C2058 C 0.12582 0.45277 0.38951 0.0
H2059 H 0.07592 0.41233 0.48815 0.0
H2060 H 0.07998 0.40744 0.39859 0.0
S2061 S 0.19551 0.52845 0.44138 0.0
N2062 N 0.1724 0.50992 0.49041 0.0
N2063 N 0.17671 0.50471 0.39304 0.0
C2064 C 0.15004 0.48003 0.41566 0.0
C2065 C 0.14772 0.48283 0.46866 0.0
C2066 C 0.58304 0.6761 0.4175 0.0
C2067 C 0.55865 0.67812 0.39014 0.0
C2068 C 0.58012 0.67018 0.46912 0.0
C2069 C 0.55297 0.66663 0.49618 0.0
H2070 H 0.60448 0.67855 0.39878 0.0
H2071 H 0.59972 0.66896 0.48811 0.0
S2072 S 0.48222 0.66999 0.44272 0.0
N2073 N 0.50609 0.67575 0.3942 0.0
N2074 N 0.50111 0.66566 0.49151 0.0
C2075 C 0.52846 0.66886 0.46951 0.0
C2076 C 0.53114 0.67429 0.41653 0.0
C2077 C 0.33804 0.86505 0.41279 0.0
C2078 C 0.33619 0.88974 0.38586 0.0
C2079 C 0.34281 0.8672 0.46497 0.0
C2080 C 0.34679 0.89452 0.49211 0.0
H2081 H 0.33554 0.84377 0.39349 0.0
H2082 H 0.34362 0.8474 0.48409 0.0
S2083 S 0.34453 0.96621 0.43921 0.0
N2084 N 0.33881 0.94245 0.39068 0.0
N2085 N 0.34846 0.94683 0.4876 0.0
C2086 C 0.34529 0.91949 0.46543 0.0
C2087 C 0.3398 0.917 0.41271 0.0
loop_
_geom_bond_atom_site_label_1
_geom_bond_atom_site_label_2
_geom_bond_distance
_geom_bond_site_symmetry_2
_ccdc_geom_bond_type
Mn0 O5 2.095 . S
Mn0 O15 2.162 . S
Mn0 O16 2.297 . S
Mn0 O24 2.385 . S
Mn0 O25 2.209 . S
Mn0 O26 2.094 . S
Mn1 O6 2.121 . S
Mn1 N8 2.257 . S
Mn1 N17 2.282 . S
Mn1 O25 2.215 1_556 S
Mn1 O27 2.117 . S
C2 O24 1.234 . S
C2 O25 1.283 . S
C3 O15 1.281 . S
C3 O16 1.236 . S
C4 O26 1.240 1_556 S
C4 O27 1.264 . S
O5 Mn0 2.095 . S
O5 C14 1.250 . S
O6 Mn1 2.121 . S
O6 C14 1.258 1_556 S
C7 N8 1.326 . S
C7 C11 1.460 . S
C7 H13 0.929 . S
N8 Mn1 2.257 . S
N8 C7 1.326 . S
N8 C12 1.362 . S
C9 C10 1.258 . S
C9 C12 1.431 . S
C9 C29 1.449 . S
C10 C9 1.258 . S
C10 C11 1.477 . S
C10 H30 0.931 . S
C11 C7 1.460 . S
C11 C10 1.477 . S
C11 H31 0.930 . S
C12 N8 1.362 . S
C12 C9 1.431 . S
C12 C22 1.476 . S
H13 C7 0.929 . S
C14 O5 1.250 . S
C14 O6 1.258 1_554 S
O15 Mn0 2.162 . S
O15 C3 1.281 . S
O16 Mn0 2.297 . S
O16 C3 1.236 . S
N17 Mn1 2.282 . S
N17 C18 1.328 . S
N17 C22 1.318 . S
C18 N17 1.328 . S
C18 C19 1.457 . S
C18 H23 0.929 . S
C19 C18 1.457 . S
C19 C20 1.291 . S
C19 H32 0.931 . S
C20 C19 1.291 . S
C20 C21 1.373 . S
C20 H33 0.929 . S
C21 C20 1.373 . S
C21 C22 1.396 . S
C21 C28 1.403 . S
C22 C12 1.476 . S
C22 N17 1.318 . S
C22 C21 1.396 . S
H23 C18 0.929 . S
O24 Mn0 2.385 . S
O24 C2 1.234 . S
O25 Mn0 2.209 . S
O25 Mn1 2.215 1_554 S
O25 C2 1.283 . S
O26 Mn0 2.094 . S
O26 C4 1.240 1_554 S
O27 Mn1 2.117 . S
O27 C4 1.264 . S
C28 C21 1.403 . S
C28 C29 1.399 . S
C28 H34 0.929 . S
C29 C9 1.449 . S
C29 C28 1.399 . S
C29 H35 0.930 . S
H30 C10 0.931 . S
H31 C11 0.930 . S
H32 C19 0.931 . S
H33 C20 0.929 . S
H34 C28 0.929 . S
H35 C29 0.930 . S
Mn36 O41 2.095 . S
Mn36 O51 2.162 . S
Mn36 O52 2.297 . S
Mn36 O60 2.385 1_545 S
Mn36 O61 2.209 1_545 S
Mn36 O62 2.094 . S
Mn37 O42 2.121 . S
Mn37 N44 2.257 . S
Mn37 N53 2.282 1_545 S
Mn37 O61 2.215 1_546 S
Mn37 O63 2.117 . S
C38 O60 1.234 . S
C38 O61 1.283 . S
C39 O51 1.281 . S
C39 O52 1.236 . S
C40 O62 1.240 1_556 S
C40 O63 1.264 . S
O41 Mn36 2.095 . S
O41 C50 1.250 . S
O42 Mn37 2.121 . S
O42 C50 1.258 1_556 S
C43 N44 1.326 . S
C43 C47 1.492 . S
C43 H49 0.929 . S
N44 Mn37 2.257 . S
N44 C43 1.326 . S
N44 C48 1.362 1_545 S
C45 C46 1.258 . S
C45 C48 1.431 . S
C45 C65 1.449 . S
C46 C45 1.258 . S
C46 C47 1.450 1_565 S
C46 H66 0.931 . S
C47 C43 1.492 . S
C47 C46 1.450 1_545 S
C47 H67 0.927 . S
C48 N44 1.362 1_565 S
C48 C45 1.431 . S
C48 C58 1.476 . S
H49 C43 0.929 . S
C50 O41 1.250 . S
C50 O42 1.258 1_554 S
O51 Mn36 2.162 . S
O51 C39 1.281 . S
O52 Mn36 2.297 . S
O52 C39 1.236 . S
N53 Mn37 2.282 1_565 S
N53 C54 1.328 . S
N53 C58 1.318 . S
C54 N53 1.328 . S
C54 C55 1.457 . S
C54 H59 0.929 . S
C55 C54 1.457 . S
C55 C56 1.291 . S
C55 H68 0.931 . S
C56 C55 1.291 . S
C56 C57 1.373 . S
C56 H69 0.929 . S
C57 C56 1.373 . S
C57 C58 1.396 . S
C57 C64 1.403 . S
C58 C48 1.476 . S
C58 N53 1.318 . S
C58 C57 1.396 . S
H59 C54 0.929 . S
O60 Mn36 2.385 1_565 S
O60 C38 1.234 . S
O61 Mn36 2.209 1_565 S
O61 Mn37 2.215 1_564 S
O61 C38 1.283 . S
O62 Mn36 2.094 . S
O62 C40 1.240 1_554 S
O63 Mn37 2.117 . S
O63 C40 1.264 . S
C64 C57 1.403 . S
C64 C65 1.399 . S
C64 H70 0.929 . S
C65 C45 1.449 . S
C65 C64 1.399 . S
C65 H71 0.930 . S
H66 C46 0.931 . S
H67 C47 0.927 . S
H68 C55 0.931 . S
H69 C56 0.929 . S
H70 C64 0.929 . S
H71 C65 0.930 . S
Mn72 O77 2.095 . S
Mn72 O87 2.162 . S
Mn72 O88 2.297 . S
Mn72 O96 2.385 1_655 S
Mn72 O97 2.209 1_655 S
Mn72 O98 2.094 . S
Mn73 O78 2.121 . S
Mn73 N80 2.257 . S
Mn73 N89 2.282 1_655 S
Mn73 O97 2.215 1_656 S
Mn73 O99 2.117 . S
C74 O96 1.234 . S
C74 O97 1.283 . S
C75 O87 1.281 . S
C75 O88 1.236 . S
C76 O98 1.240 1_556 S
C76 O99 1.264 . S
O77 Mn72 2.095 . S
O77 C86 1.250 . S
O78 Mn73 2.121 . S
O78 C86 1.258 1_556 S
C79 N80 1.326 . S
C79 C83 1.457 . S
C79 H85 0.929 . S
N80 Mn73 2.257 . S
N80 C79 1.326 . S
N80 C84 1.362 1_655 S
C81 C82 1.258 . S
C81 C84 1.431 . S
C81 C101 1.449 . S
C82 C81 1.258 . S
C82 C83 1.446 1_455 S
C82 H102 0.931 . S
C83 C79 1.457 . S
C83 C82 1.446 1_655 S
C83 H103 0.964 . S
C84 N80 1.362 1_455 S
C84 C81 1.431 . S
C84 C94 1.476 . S
H85 C79 0.929 . S
C86 O77 1.250 . S
C86 O78 1.258 1_554 S
O87 Mn72 2.162 . S
O87 C75 1.281 . S
O88 Mn72 2.297 . S
O88 C75 1.236 . S
N89 Mn73 2.282 1_455 S
N89 C90 1.328 . S
N89 C94 1.318 . S
C90 N89 1.328 . S
C90 C91 1.457 . S
C90 H95 0.929 . S
C91 C90 1.457 . S
C91 C92 1.291 . S
C91 H104 0.931 . S
C92 C91 1.291 . S
C92 C93 1.373 . S
C92 H105 0.929 . S
C93 C92 1.373 . S
C93 C94 1.396 . S
C93 C100 1.403 . S
C94 C84 1.476 . S
C94 N89 1.318 . S
C94 C93 1.396 . S
H95 C90 0.929 . S
O96 Mn72 2.385 1_455 S
O96 C74 1.234 . S
O97 Mn72 2.209 1_455 S
O97 Mn73 2.215 1_454 S
O97 C74 1.283 . S
O98 Mn72 2.094 . S
O98 C76 1.240 1_554 S
O99 Mn73 2.117 . S
O99 C76 1.264 . S
C100 C93 1.403 . S
C100 C101 1.399 . S
C100 H106 0.929 . S
C101 C81 1.449 . S
C101 C100 1.399 . S
C101 H107 0.930 . S
H102 C82 0.931 . S
H103 C83 0.964 . S
H104 C91 0.931 . S
H105 C92 0.929 . S
H106 C100 0.929 . S
H107 C101 0.930 . S
Mn108 O113 2.095 . S
Mn108 O123 2.162 . S
Mn108 O124 2.297 . S
Mn108 O132 2.385 . S
Mn108 O133 2.209 . S
Mn108 O134 2.094 . S
Mn109 O114 2.121 . S
Mn109 N116 2.257 . S
Mn109 N125 2.282 . S
Mn109 O133 2.215 . S
Mn109 O135 2.117 . S
C110 O132 1.234 . S
C110 O133 1.283 . S
C111 O123 1.281 . S
C111 O124 1.236 . S
C112 O134 1.240 . S
C112 O135 1.264 . S
O113 Mn108 2.095 . S
O113 C122 1.250 . S
O114 Mn109 2.121 . S
O114 C122 1.258 . S
C115 N116 1.326 . S
C115 C119 1.460 . S
C115 H121 0.929 . S
N116 Mn109 2.257 . S
N116 C115 1.326 . S
N116 C120 1.362 . S
C117 C118 1.258 . S
C117 C120 1.431 . S
C117 C137 1.449 . S
C118 C117 1.258 . S
C118 C119 1.477 . S
C118 H138 0.931 . S
C119 C115 1.460 . S
C119 C118 1.477 . S
C119 H139 0.930 . S
C120 N116 1.362 . S
C120 C117 1.431 . S
C120 C130 1.476 . S
H121 C115 0.929 . S
C122 O113 1.250 . S
C122 O114 1.258 . S
O123 Mn108 2.162 . S
O123 C111 1.281 . S
O124 Mn108 2.297 . S
O124 C111 1.236 . S
N125 Mn109 2.282 . S
N125 C126 1.328 . S
N125 C130 1.318 . S
C126 N125 1.328 . S
C126 C127 1.457 . S
C126 H131 0.929 . S
C127 C126 1.457 . S
C127 C128 1.291 . S
C127 H140 0.931 . S
C128 C127 1.291 . S
C128 C129 1.373 . S
C128 H141 0.929 . S
C129 C128 1.373 . S
C129 C130 1.396 . S
C129 C136 1.403 . S
C130 C120 1.476 . S
C130 N125 1.318 . S
C130 C129 1.396 . S
H131 C126 0.929 . S
O132 Mn108 2.385 . S
O132 C110 1.234 . S
O133 Mn108 2.209 . S
O133 Mn109 2.215 . S
O133 C110 1.283 . S
O134 Mn108 2.094 . S
O134 C112 1.240 . S
O135 Mn109 2.117 . S
O135 C112 1.264 . S
C136 C129 1.403 . S
C136 C137 1.399 . S
C136 H142 0.929 . S
C137 C117 1.449 . S
C137 C136 1.399 . S
C137 H143 0.930 . S
H138 C118 0.931 . S
H139 C119 0.930 . S
H140 C127 0.931 . S
H141 C128 0.929 . S
H142 C136 0.929 . S
H143 C137 0.930 . S
Mn144 O149 2.095 . S
Mn144 O159 2.162 . S
Mn144 O160 2.297 . S
Mn144 O168 2.385 1_565 S
Mn144 O169 2.209 1_565 S
Mn144 O170 2.094 . S
Mn145 O150 2.121 . S
Mn145 N152 2.257 . S
Mn145 N161 2.282 1_565 S
Mn145 O169 2.215 1_565 S
Mn145 O171 2.117 . S
C146 O168 1.234 . S
C146 O169 1.283 . S
C147 O159 1.281 . S
C147 O160 1.236 . S
C148 O170 1.240 . S
C148 O171 1.264 . S
O149 Mn144 2.095 . S
O149 C158 1.250 . S
O150 Mn145 2.121 . S
O150 C158 1.258 . S
C151 N152 1.326 . S
C151 C155 1.457 . S
C151 H157 0.929 . S
N152 Mn145 2.257 . S
N152 C151 1.326 . S
N152 C156 1.362 1_565 S
C153 C154 1.258 . S
C153 C156 1.431 . S
C153 C173 1.449 . S
C154 C153 1.258 . S
C154 C155 1.446 1_545 S
C154 H174 0.931 . S
C155 C151 1.457 . S
C155 C154 1.446 1_565 S
C155 H175 0.964 . S
C156 N152 1.362 1_545 S
C156 C153 1.431 . S
C156 C166 1.476 . S
H157 C151 0.929 . S
C158 O149 1.250 . S
C158 O150 1.258 . S
O159 Mn144 2.162 . S
O159 C147 1.281 . S
O160 Mn144 2.297 . S
O160 C147 1.236 . S
N161 Mn145 2.282 1_545 S
N161 C162 1.328 . S
N161 C166 1.318 . S
C162 N161 1.328 . S
C162 C163 1.457 . S
C162 H167 0.929 . S
C163 C162 1.457 . S
C163 C164 1.291 . S
C163 H176 0.931 . S
C164 C163 1.291 . S
C164 C165 1.373 . S
C164 H177 0.929 . S
C165 C164 1.373 . S
C165 C166 1.396 . S
C165 C172 1.403 . S
C166 C156 1.476 . S
C166 N161 1.318 . S
C166 C165 1.396 . S
H167 C162 0.929 . S
O168 Mn144 2.385 1_545 S
O168 C146 1.234 . S
O169 Mn144 2.209 1_545 S
O169 Mn145 2.215 1_545 S
O169 C146 1.283 . S
O170 Mn144 2.094 . S
O170 C148 1.240 . S
O171 Mn145 2.117 . S
O171 C148 1.264 . S
C172 C165 1.403 . S
C172 C173 1.399 . S
C172 H178 0.929 . S
C173 C153 1.449 . S
C173 C172 1.399 . S
C173 H179 0.930 . S
H174 C154 0.931 . S
H175 C155 0.964 . S
H176 C163 0.931 . S
H177 C164 0.929 . S
H178 C172 0.929 . S
H179 C173 0.930 . S
Mn180 O185 2.095 . S
Mn180 O195 2.162 . S
Mn180 O196 2.297 . S
Mn180 O204 2.385 1_455 S
Mn180 O205 2.209 1_455 S
Mn180 O206 2.094 . S
Mn181 O186 2.121 . S
Mn181 N188 2.257 . S
Mn181 N197 2.282 1_455 S
Mn181 O205 2.215 1_455 S
Mn181 O207 2.117 . S
C182 O204 1.234 . S
C182 O205 1.283 . S
C183 O195 1.281 . S
C183 O196 1.236 . S
C184 O206 1.240 . S
C184 O207 1.264 . S
O185 Mn180 2.095 . S
O185 C194 1.250 . S
O186 Mn181 2.121 . S
O186 C194 1.258 . S
C187 N188 1.326 . S
C187 C191 1.492 . S
C187 H193 0.929 . S
N188 Mn181 2.257 . S
N188 C187 1.326 . S
N188 C192 1.362 1_455 S
C189 C190 1.258 . S
C189 C192 1.431 . S
C189 C209 1.449 . S
C190 C189 1.258 . S
C190 C191 1.450 1_655 S
C190 H210 0.931 . S
C191 C187 1.492 . S
C191 C190 1.450 1_455 S
C191 H211 0.927 . S
C192 N188 1.362 1_655 S
C192 C189 1.431 . S
C192 C202 1.476 . S
H193 C187 0.929 . S
C194 O185 1.250 . S
C194 O186 1.258 . S
O195 Mn180 2.162 . S
O195 C183 1.281 . S
O196 Mn180 2.297 . S
O196 C183 1.236 . S
N197 Mn181 2.282 1_655 S
N197 C198 1.328 . S
N197 C202 1.318 . S
C198 N197 1.328 . S
C198 C199 1.457 . S
C198 H203 0.929 . S
C199 C198 1.457 . S
C199 C200 1.291 . S
C199 H212 0.931 . S
C200 C199 1.291 . S
C200 C201 1.373 . S
C200 H213 0.929 . S
C201 C200 1.373 . S
C201 C202 1.396 . S
C201 C208 1.403 . S
C202 C192 1.476 . S
C202 N197 1.318 . S
C202 C201 1.396 . S
H203 C198 0.929 . S
O204 Mn180 2.385 1_655 S
O204 C182 1.234 . S
O205 Mn180 2.209 1_655 S
O205 Mn181 2.215 1_655 S
O205 C182 1.283 . S
O206 Mn180 2.094 . S
O206 C184 1.240 . S
O207 Mn181 2.117 . S
O207 C184 1.264 . S
C208 C201 1.403 . S
C208 C209 1.399 . S
C208 H214 0.929 . S
C209 C189 1.449 . S
C209 C208 1.399 . S
C209 H215 0.930 . S
H210 C190 0.931 . S
H211 C191 0.927 . S
H212 C199 0.931 . S
H213 C200 0.929 . S
H214 C208 0.929 . S
H215 C209 0.930 . S
Mn216 O221 2.095 . S
Mn216 O231 2.162 . S
Mn216 O232 2.297 . S
Mn216 O240 2.385 . S
Mn216 O241 2.209 . S
Mn216 O242 2.094 . S
Mn217 O222 2.121 . S
Mn217 N224 2.257 . S
Mn217 N233 2.282 . S
Mn217 O241 2.215 1_554 S
Mn217 O243 2.117 . S
C218 O240 1.234 . S
C218 O241 1.283 . S
C219 O231 1.281 . S
C219 O232 1.236 . S
C220 O242 1.240 1_554 S
C220 O243 1.264 . S
O221 Mn216 2.095 . S
O221 C230 1.250 . S
O222 Mn217 2.121 . S
O222 C230 1.258 1_554 S
C223 N224 1.326 . S
C223 C227 1.460 . S
C223 H229 0.929 . S
N224 Mn217 2.257 . S
N224 C223 1.326 . S
N224 C228 1.362 . S
C225 C226 1.258 . S
C225 C228 1.431 . S
C225 C245 1.449 . S
C226 C225 1.258 . S
C226 C227 1.477 . S
C226 H246 0.931 . S
C227 C223 1.460 . S
C227 C226 1.477 . S
C227 H247 0.930 . S
C228 N224 1.362 . S
C228 C225 1.431 . S
C228 C238 1.476 . S
H229 C223 0.929 . S
C230 O221 1.250 . S
C230 O222 1.258 1_556 S
O231 Mn216 2.162 . S
O231 C219 1.281 . S
O232 Mn216 2.297 . S
O232 C219 1.236 . S
N233 Mn217 2.282 . S
N233 C234 1.328 . S
N233 C238 1.318 . S
C234 N233 1.328 . S
C234 C235 1.457 . S
C234 H239 0.929 . S
C235 C234 1.457 . S
C235 C236 1.291 . S
C235 H248 0.931 . S
C236 C235 1.291 . S
C236 C237 1.373 . S
C236 H249 0.929 . S
C237 C236 1.373 . S
C237 C238 1.396 . S
C237 C244 1.403 . S
C238 C228 1.476 . S
C238 N233 1.318 . S
C238 C237 1.396 . S
H239 C234 0.929 . S
O240 Mn216 2.385 . S
O240 C218 1.234 . S
O241 Mn216 2.209 . S
O241 Mn217 2.215 1_556 S
O241 C218 1.283 . S
O242 Mn216 2.094 . S
O242 C220 1.240 1_556 S
O243 Mn217 2.117 . S
O243 C220 1.264 . S
C244 C237 1.403 . S
C244 C245 1.399 . S
C244 H250 0.929 . S
C245 C225 1.449 . S
C245 C244 1.399 . S
C245 H251 0.930 . S
H246 C226 0.931 . S
H247 C227 0.930 . S
H248 C235 0.931 . S
H249 C236 0.929 . S
H250 C244 0.929 . S
H251 C245 0.930 . S
Mn252 O257 2.095 . S
Mn252 O267 2.162 . S
Mn252 O268 2.297 . S
Mn252 O276 2.385 1_565 S
Mn252 O277 2.209 1_565 S
Mn252 O278 2.094 . S
Mn253 O258 2.121 . S
Mn253 N260 2.257 . S
Mn253 N269 2.282 1_565 S
Mn253 O277 2.215 1_564 S
Mn253 O279 2.117 . S
C254 O276 1.234 . S
C254 O277 1.283 . S
C255 O267 1.281 . S
C255 O268 1.236 . S
C256 O278 1.240 1_554 S
C256 O279 1.264 . S
O257 Mn252 2.095 . S
O257 C266 1.250 . S
O258 Mn253 2.121 . S
O258 C266 1.258 1_554 S
C259 N260 1.326 . S
C259 C263 1.492 . S
C259 H265 0.929 . S
N260 Mn253 2.257 . S
N260 C259 1.326 . S
N260 C264 1.362 1_565 S
C261 C262 1.258 . S
C261 C264 1.431 . S
C261 C281 1.449 . S
C262 C261 1.258 . S
C262 C263 1.450 1_545 S
C262 H282 0.931 . S
C263 C259 1.492 . S
C263 C262 1.450 1_565 S
C263 H283 0.927 . S
C264 N260 1.362 1_545 S
C264 C261 1.431 . S
C264 C274 1.476 . S
H265 C259 0.929 . S
C266 O257 1.250 . S
C266 O258 1.258 1_556 S
O267 Mn252 2.162 . S
O267 C255 1.281 . S
O268 Mn252 2.297 . S
O268 C255 1.236 . S
N269 Mn253 2.282 1_545 S
N269 C270 1.328 . S
N269 C274 1.318 . S
C270 N269 1.328 . S
C270 C271 1.457 . S
C270 H275 0.929 . S
C271 C270 1.457 . S
C271 C272 1.291 . S
C271 H284 0.931 . S
C272 C271 1.291 . S
C272 C273 1.373 . S
C272 H285 0.929 . S
C273 C272 1.373 . S
C273 C274 1.396 . S
C273 C280 1.403 . S
C274 C264 1.476 . S
C274 N269 1.318 . S
C274 C273 1.396 . S
H275 C270 0.929 . S
O276 Mn252 2.385 1_545 S
O276 C254 1.234 . S
O277 Mn252 2.209 1_545 S
O277 Mn253 2.215 1_546 S
O277 C254 1.283 . S
O278 Mn252 2.094 . S
O278 C256 1.240 1_556 S
O279 Mn253 2.117 . S
O279 C256 1.264 . S
C280 C273 1.403 . S
C280 C281 1.399 . S
C280 H286 0.929 . S
C281 C261 1.449 . S
C281 C280 1.399 . S
C281 H287 0.930 . S
H282 C262 0.931 . S
H283 C263 0.927 . S
H284 C271 0.931 . S
H285 C272 0.929 . S
H286 C280 0.929 . S
H287 C281 0.930 . S
Mn288 O293 2.095 . S
Mn288 O303 2.162 . S
Mn288 O304 2.297 . S
Mn288 O312 2.385 1_455 S
Mn288 O313 2.209 1_455 S
Mn288 O314 2.094 . S
Mn289 O294 2.121 . S
Mn289 N296 2.257 . S
Mn289 N305 2.282 1_455 S
Mn289 O313 2.215 1_454 S
Mn289 O315 2.117 . S
C290 O312 1.234 . S
C290 O313 1.283 . S
C291 O303 1.281 . S
C291 O304 1.236 . S
C292 O314 1.240 1_554 S
C292 O315 1.264 . S
O293 Mn288 2.095 . S
O293 C302 1.250 . S
O294 Mn289 2.121 . S
O294 C302 1.258 1_554 S
C295 N296 1.326 . S
C295 C299 1.457 . S
C295 H301 0.929 . S
N296 Mn289 2.257 . S
N296 C295 1.326 . S
N296 C300 1.362 1_455 S
C297 C298 1.258 . S
C297 C300 1.431 . S
C297 C317 1.449 . S
C298 C297 1.258 . S
C298 C299 1.446 1_655 S
C298 H318 0.931 . S
C299 C295 1.457 . S
C299 C298 1.446 1_455 S
C299 H319 0.964 . S
C300 N296 1.362 1_655 S
C300 C297 1.431 . S
C300 C310 1.476 . S
H301 C295 0.929 . S
C302 O293 1.250 . S
C302 O294 1.258 1_556 S
O303 Mn288 2.162 . S
O303 C291 1.281 . S
O304 Mn288 2.297 . S
O304 C291 1.236 . S
N305 Mn289 2.282 1_655 S
N305 C306 1.328 . S
N305 C310 1.318 . S
C306 N305 1.328 . S
C306 C307 1.457 . S
C306 H311 0.929 . S
C307 C306 1.457 . S
C307 C308 1.291 . S
C307 H320 0.931 . S
C308 C307 1.291 . S
C308 C309 1.373 . S
C308 H321 0.929 . S
C309 C308 1.373 . S
C309 C310 1.396 . S
C309 C316 1.403 . S
C310 C300 1.476 . S
C310 N305 1.318 . S
C310 C309 1.396 . S
H311 C306 0.929 . S
O312 Mn288 2.385 1_655 S
O312 C290 1.234 . S
O313 Mn288 2.209 1_655 S
O313 Mn289 2.215 1_656 S
O313 C290 1.283 . S
O314 Mn288 2.094 . S
O314 C292 1.240 1_556 S
O315 Mn289 2.117 . S
O315 C292 1.264 . S
C316 C309 1.403 . S
C316 C317 1.399 . S
C316 H322 0.929 . S
C317 C297 1.449 . S
C317 C316 1.399 . S
C317 H323 0.930 . S
H318 C298 0.931 . S
H319 C299 0.964 . S
H320 C307 0.931 . S
H321 C308 0.929 . S
H322 C316 0.929 . S
H323 C317 0.930 . S
Mn324 O329 2.095 . S
Mn324 O339 2.162 . S
Mn324 O340 2.297 . S
Mn324 O348 2.385 . S
Mn324 O349 2.209 . S
Mn324 O350 2.094 . S
Mn325 O330 2.121 . S
Mn325 N332 2.257 . S
Mn325 N341 2.282 . S
Mn325 O349 2.215 . S
Mn325 O351 2.117 . S
C326 O348 1.234 . S
C326 O349 1.283 . S
C327 O339 1.281 . S
C327 O340 1.236 . S
C328 O350 1.240 . S
C328 O351 1.264 . S
O329 Mn324 2.095 . S
O329 C338 1.250 . S
O330 Mn325 2.121 . S
O330 C338 1.258 . S
C331 N332 1.326 . S
C331 C335 1.460 . S
C331 H337 0.929 . S
N332 Mn325 2.257 . S
N332 C331 1.326 . S
N332 C336 1.362 . S
C333 C334 1.258 . S
C333 C336 1.431 . S
C333 C353 1.449 . S
C334 C333 1.258 . S
C334 C335 1.477 . S
C334 H354 0.931 . S
C335 C331 1.460 . S
C335 C334 1.477 . S
C335 H355 0.930 . S
C336 N332 1.362 . S
C336 C333 1.431 . S
C336 C346 1.476 . S
H337 C331 0.929 . S
C338 O329 1.250 . S
C338 O330 1.258 . S
O339 Mn324 2.162 . S
O339 C327 1.281 . S
O340 Mn324 2.297 . S
O340 C327 1.236 . S
N341 Mn325 2.282 . S
N341 C342 1.328 . S
N341 C346 1.318 . S
C342 N341 1.328 . S
C342 C343 1.457 . S
C342 H347 0.929 . S
C343 C342 1.457 . S
C343 C344 1.291 . S
C343 H356 0.931 . S
C344 C343 1.291 . S
C344 C345 1.373 . S
C344 H357 0.929 . S
C345 C344 1.373 . S
C345 C346 1.396 . S
C345 C352 1.403 . S
C346 C336 1.476 . S
C346 N341 1.318 . S
C346 C345 1.396 . S
H347 C342 0.929 . S
O348 Mn324 2.385 . S
O348 C326 1.234 . S
O349 Mn324 2.209 . S
O349 Mn325 2.215 . S
O349 C326 1.283 . S
O350 Mn324 2.094 . S
O350 C328 1.240 . S
O351 Mn325 2.117 . S
O351 C328 1.264 . S
C352 C345 1.403 . S
C352 C353 1.399 . S
C352 H358 0.929 . S
C353 C333 1.449 . S
C353 C352 1.399 . S
C353 H359 0.930 . S
H354 C334 0.931 . S
H355 C335 0.930 . S
H356 C343 0.931 . S
H357 C344 0.929 . S
H358 C352 0.929 . S
H359 C353 0.930 . S
Mn360 O365 2.095 . S
Mn360 O375 2.162 . S
Mn360 O376 2.297 . S
Mn360 O384 2.385 1_545 S
Mn360 O385 2.209 1_545 S
Mn360 O386 2.094 . S
Mn361 O366 2.121 . S
Mn361 N368 2.257 . S
Mn361 N377 2.282 1_545 S
Mn361 O385 2.215 1_545 S
Mn361 O387 2.117 . S
C362 O384 1.234 . S
C362 O385 1.283 . S
C363 O375 1.281 . S
C363 O376 1.236 . S
C364 O386 1.240 . S
C364 O387 1.264 . S
O365 Mn360 2.095 . S
O365 C374 1.250 . S
O366 Mn361 2.121 . S
O366 C374 1.258 . S
C367 N368 1.326 . S
C367 C371 1.457 . S
C367 H373 0.929 . S
N368 Mn361 2.257 . S
N368 C367 1.326 . S
N368 C372 1.362 1_545 S
C369 C370 1.258 . S
C369 C372 1.431 . S
C369 C389 1.449 . S
C370 C369 1.258 . S
C370 C371 1.446 1_565 S
C370 H390 0.931 . S
C371 C367 1.457 . S
C371 C370 1.446 1_545 S
C371 H391 0.964 . S
C372 N368 1.362 1_565 S
C372 C369 1.431 . S
C372 C382 1.476 . S
H373 C367 0.929 . S
C374 O365 1.250 . S
C374 O366 1.258 . S
O375 Mn360 2.162 . S
O375 C363 1.281 . S
O376 Mn360 2.297 . S
O376 C363 1.236 . S
N377 Mn361 2.282 1_565 S
N377 C378 1.328 . S
N377 C382 1.318 . S
C378 N377 1.328 . S
C378 C379 1.457 . S
C378 H383 0.929 . S
C379 C378 1.457 . S
C379 C380 1.291 . S
C379 H392 0.931 . S
C380 C379 1.291 . S
C380 C381 1.373 . S
C380 H393 0.929 . S
C381 C380 1.373 . S
C381 C382 1.396 . S
C381 C388 1.403 . S
C382 C372 1.476 . S
C382 N377 1.318 . S
C382 C381 1.396 . S
H383 C378 0.929 . S
O384 Mn360 2.385 1_565 S
O384 C362 1.234 . S
O385 Mn360 2.209 1_565 S
O385 Mn361 2.215 1_565 S
O385 C362 1.283 . S
O386 Mn360 2.094 . S
O386 C364 1.240 . S
O387 Mn361 2.117 . S
O387 C364 1.264 . S
C388 C381 1.403 . S
C388 C389 1.399 . S
C388 H394 0.929 . S
C389 C369 1.449 . S
C389 C388 1.399 . S
C389 H395 0.930 . S
H390 C370 0.931 . S
H391 C371 0.964 . S
H392 C379 0.931 . S
H393 C380 0.929 . S
H394 C388 0.929 . S
H395 C389 0.930 . S
Mn396 O401 2.095 . S
Mn396 O411 2.162 . S
Mn396 O412 2.297 . S
Mn396 O420 2.385 1_655 S
Mn396 O421 2.209 1_655 S
Mn396 O422 2.094 . S
Mn397 O402 2.121 . S
Mn397 N404 2.257 . S
Mn397 N413 2.282 1_655 S
Mn397 O421 2.215 1_655 S
Mn397 O423 2.117 . S
C398 O420 1.234 . S
C398 O421 1.283 . S
C399 O411 1.281 . S
C399 O412 1.236 . S
C400 O422 1.240 . S
C400 O423 1.264 . S
O401 Mn396 2.095 . S
O401 C410 1.250 . S
O402 Mn397 2.121 . S
O402 C410 1.258 . S
C403 N404 1.326 . S
C403 C407 1.492 . S
C403 H409 0.929 . S
N404 Mn397 2.257 . S
N404 C403 1.326 . S
N404 C408 1.362 1_655 S
C405 C406 1.258 . S
C405 C408 1.431 . S
C405 C425 1.449 . S
C406 C405 1.258 . S
C406 C407 1.450 1_455 S
C406 H426 0.931 . S
C407 C403 1.492 . S
C407 C406 1.450 1_655 S
C407 H427 0.927 . S
C408 N404 1.362 1_455 S
C408 C405 1.431 . S
C408 C418 1.476 . S
H409 C403 0.929 . S
C410 O401 1.250 . S
C410 O402 1.258 . S
O411 Mn396 2.162 . S
O411 C399 1.281 . S
O412 Mn396 2.297 . S
O412 C399 1.236 . S
N413 Mn397 2.282 1_455 S
N413 C414 1.328 . S
N413 C418 1.318 . S
C414 N413 1.328 . S
C414 C415 1.457 . S
C414 H419 0.929 . S
C415 C414 1.457 . S
C415 C416 1.291 . S
C415 H428 0.931 . S
C416 C415 1.291 . S
C416 C417 1.373 . S
C416 H429 0.929 . S
C417 C416 1.373 . S
C417 C418 1.396 . S
C417 C424 1.403 . S
C418 C408 1.476 . S
C418 N413 1.318 . S
C418 C417 1.396 . S
H419 C414 0.929 . S
O420 Mn396 2.385 1_455 S
O420 C398 1.234 . S
O421 Mn396 2.209 1_455 S
O421 Mn397 2.215 1_455 S
O421 C398 1.283 . S
O422 Mn396 2.094 . S
O422 C400 1.240 . S
O423 Mn397 2.117 . S
O423 C400 1.264 . S
C424 C417 1.403 . S
C424 C425 1.399 . S
C424 H430 0.929 . S
C425 C405 1.449 . S
C425 C424 1.399 . S
C425 H431 0.930 . S
H426 C406 0.931 . S
H427 C407 0.927 . S
H428 C415 0.931 . S
H429 C416 0.929 . S
H430 C424 0.929 . S
H431 C425 0.930 . S
Mn432 O437 2.095 . S
Mn432 O447 2.162 . S
Mn432 O448 2.297 . S
Mn432 O456 2.385 . S
Mn432 O457 2.209 . S
Mn432 O458 2.094 . S
Mn433 O438 2.121 . S
Mn433 N440 2.257 . S
Mn433 N449 2.282 . S
Mn433 O457 2.215 . S
Mn433 O459 2.117 . S
C434 O456 1.234 . S
C434 O457 1.283 . S
C435 O447 1.281 . S
C435 O448 1.236 . S
C436 O458 1.240 . S
C436 O459 1.264 . S
O437 Mn432 2.095 . S
O437 C446 1.250 . S
O438 Mn433 2.121 . S
O438 C446 1.258 . S
C439 N440 1.326 . S
C439 C443 1.460 . S
C439 H445 0.929 . S
N440 Mn433 2.257 . S
N440 C439 1.326 . S
N440 C444 1.362 . S
C441 C442 1.258 . S
C441 C444 1.431 . S
C441 C461 1.449 . S
C442 C441 1.258 . S
C442 C443 1.477 . S
C442 H462 0.931 . S
C443 C439 1.460 . S
C443 C442 1.477 . S
C443 H463 0.930 . S
C444 N440 1.362 . S
C444 C441 1.431 . S
C444 C454 1.476 . S
H445 C439 0.929 . S
C446 O437 1.250 . S
C446 O438 1.258 . S
O447 Mn432 2.162 . S
O447 C435 1.281 . S
O448 Mn432 2.297 . S
O448 C435 1.236 . S
N449 Mn433 2.282 . S
N449 C450 1.328 . S
N449 C454 1.318 . S
C450 N449 1.328 . S
C450 C451 1.457 . S
C450 H455 0.929 . S
C451 C450 1.457 . S
C451 C452 1.291 . S
C451 H464 0.931 . S
C452 C451 1.291 . S
C452 C453 1.373 . S
C452 H465 0.929 . S
C453 C452 1.373 . S
C453 C454 1.396 . S
C453 C460 1.403 . S
C454 C444 1.476 . S
C454 N449 1.318 . S
C454 C453 1.396 . S
H455 C450 0.929 . S
O456 Mn432 2.385 . S
O456 C434 1.234 . S
O457 Mn432 2.209 . S
O457 Mn433 2.215 . S
O457 C434 1.283 . S
O458 Mn432 2.094 . S
O458 C436 1.240 . S
O459 Mn433 2.117 . S
O459 C436 1.264 . S
C460 C453 1.403 . S
C460 C461 1.399 . S
C460 H466 0.929 . S
C461 C441 1.449 . S
C461 C460 1.399 . S
C461 H467 0.930 . S
H462 C442 0.931 . S
H463 C443 0.930 . S
H464 C451 0.931 . S
H465 C452 0.929 . S
H466 C460 0.929 . S
H467 C461 0.930 . S
Mn468 O473 2.095 . S
Mn468 O483 2.162 . S
Mn468 O484 2.297 . S
Mn468 O492 2.385 . S
Mn468 O493 2.209 . S
Mn468 O494 2.094 . S
Mn469 O474 2.121 . S
Mn469 N476 2.257 . S
Mn469 N485 2.282 . S
Mn469 O493 2.215 . S
Mn469 O495 2.117 . S
C470 O492 1.234 . S
C470 O493 1.283 . S
C471 O483 1.281 . S
C471 O484 1.236 . S
C472 O494 1.240 . S
C472 O495 1.264 . S
O473 Mn468 2.095 . S
O473 C482 1.250 . S
O474 Mn469 2.121 . S
O474 C482 1.258 . S
C475 N476 1.326 . S
C475 C479 1.460 . S
C475 H481 0.929 . S
N476 Mn469 2.257 . S
N476 C475 1.326 . S
N476 C480 1.362 . S
C477 C478 1.258 . S
C477 C480 1.431 . S
C477 C497 1.449 . S
C478 C477 1.258 . S
C478 C479 1.477 . S
C478 H498 0.931 . S
C479 C475 1.460 . S
C479 C478 1.477 . S
C479 H499 0.930 . S
C480 N476 1.362 . S
C480 C477 1.431 . S
C480 C490 1.476 . S
H481 C475 0.929 . S
C482 O473 1.250 . S
C482 O474 1.258 . S
O483 Mn468 2.162 . S
O483 C471 1.281 . S
O484 Mn468 2.297 . S
O484 C471 1.236 . S
N485 Mn469 2.282 . S
N485 C486 1.328 . S
N485 C490 1.318 . S
C486 N485 1.328 . S
C486 C487 1.457 . S
C486 H491 0.929 . S
C487 C486 1.457 . S
C487 C488 1.291 . S
C487 H500 0.931 . S
C488 C487 1.291 . S
C488 C489 1.373 . S
C488 H501 0.929 . S
C489 C488 1.373 . S
C489 C490 1.396 . S
C489 C496 1.403 . S
C490 C480 1.476 . S
C490 N485 1.318 . S
C490 C489 1.396 . S
H491 C486 0.929 . S
O492 Mn468 2.385 . S
O492 C470 1.234 . S
O493 Mn468 2.209 . S
O493 Mn469 2.215 . S
O493 C470 1.283 . S
O494 Mn468 2.094 . S
O494 C472 1.240 . S
O495 Mn469 2.117 . S
O495 C472 1.264 . S
C496 C489 1.403 . S
C496 C497 1.399 . S
C496 H502 0.929 . S
C497 C477 1.449 . S
C497 C496 1.399 . S
C497 H503 0.930 . S
H498 C478 0.931 . S
H499 C479 0.930 . S
H500 C487 0.931 . S
H501 C488 0.929 . S
H502 C496 0.929 . S
H503 C497 0.930 . S
Mn504 O509 2.095 . S
Mn504 O519 2.162 . S
Mn504 O520 2.297 . S
Mn504 O528 2.385 . S
Mn504 O529 2.209 . S
Mn504 O530 2.094 . S
Mn505 O510 2.121 . S
Mn505 N512 2.257 . S
Mn505 N521 2.282 . S
Mn505 O529 2.215 . S
Mn505 O531 2.117 . S
C506 O528 1.234 . S
C506 O529 1.283 . S
C507 O519 1.281 . S
C507 O520 1.236 . S
C508 O530 1.240 . S
C508 O531 1.264 . S
O509 Mn504 2.095 . S
O509 C518 1.250 . S
O510 Mn505 2.121 . S
O510 C518 1.258 . S
C511 N512 1.326 . S
C511 C515 1.460 . S
C511 H517 0.929 . S
N512 Mn505 2.257 . S
N512 C511 1.326 . S
N512 C516 1.362 . S
C513 C514 1.258 . S
C513 C516 1.431 . S
C513 C533 1.449 . S
C514 C513 1.258 . S
C514 C515 1.477 . S
C514 H534 0.931 . S
C515 C511 1.460 . S
C515 C514 1.477 . S
C515 H535 0.930 . S
C516 N512 1.362 . S
C516 C513 1.431 . S
C516 C526 1.476 . S
H517 C511 0.929 . S
C518 O509 1.250 . S
C518 O510 1.258 . S
O519 Mn504 2.162 . S
O519 C507 1.281 . S
O520 Mn504 2.297 . S
O520 C507 1.236 . S
N521 Mn505 2.282 . S
N521 C522 1.328 . S
N521 C526 1.318 . S
C522 N521 1.328 . S
C522 C523 1.457 . S
C522 H527 0.929 . S
C523 C522 1.457 . S
C523 C524 1.291 . S
C523 H536 0.931 . S
C524 C523 1.291 . S
C524 C525 1.373 . S
C524 H537 0.929 . S
C525 C524 1.373 . S
C525 C526 1.396 . S
C525 C532 1.403 . S
C526 C516 1.476 . S
C526 N521 1.318 . S
C526 C525 1.396 . S
H527 C522 0.929 . S
O528 Mn504 2.385 . S
O528 C506 1.234 . S
O529 Mn504 2.209 . S
O529 Mn505 2.215 . S
O529 C506 1.283 . S
O530 Mn504 2.094 . S
O530 C508 1.240 . S
O531 Mn505 2.117 . S
O531 C508 1.264 . S
C532 C525 1.403 . S
C532 C533 1.399 . S
C532 H538 0.929 . S
C533 C513 1.449 . S
C533 C532 1.399 . S
C533 H539 0.930 . S
H534 C514 0.931 . S
H535 C515 0.930 . S
H536 C523 0.931 . S
H537 C524 0.929 . S
H538 C532 0.929 . S
H539 C533 0.930 . S
Mn540 O545 2.095 . S
Mn540 O555 2.162 . S
Mn540 O556 2.297 . S
Mn540 O564 2.385 . S
Mn540 O565 2.209 . S
Mn540 O566 2.094 . S
Mn541 O546 2.121 . S
Mn541 N548 2.257 . S
Mn541 N557 2.282 . S
Mn541 O565 2.215 . S
Mn541 O567 2.117 . S
C542 O564 1.234 . S
C542 O565 1.283 . S
C543 O555 1.281 . S
C543 O556 1.236 . S
C544 O566 1.240 . S
C544 O567 1.264 . S
O545 Mn540 2.095 . S
O545 C554 1.250 . S
O546 Mn541 2.121 . S
O546 C554 1.258 . S
C547 N548 1.326 . S
C547 C551 1.460 . S
C547 H553 0.929 . S
N548 Mn541 2.257 . S
N548 C547 1.326 . S
N548 C552 1.362 . S
C549 C550 1.258 . S
C549 C552 1.431 . S
C549 C569 1.449 . S
C550 C549 1.258 . S
C550 C551 1.477 . S
C550 H570 0.931 . S
C551 C547 1.460 . S
C551 C550 1.477 . S
C551 H571 0.930 . S
C552 N548 1.362 . S
C552 C549 1.431 . S
C552 C562 1.476 . S
H553 C547 0.929 . S
C554 O545 1.250 . S
C554 O546 1.258 . S
O555 Mn540 2.162 . S
O555 C543 1.281 . S
O556 Mn540 2.297 . S
O556 C543 1.236 . S
N557 Mn541 2.282 . S
N557 C558 1.328 . S
N557 C562 1.318 . S
C558 N557 1.328 . S
C558 C559 1.457 . S
C558 H563 0.929 . S
C559 C558 1.457 . S
C559 C560 1.291 . S
C559 H572 0.931 . S
C560 C559 1.291 . S
C560 C561 1.373 . S
C560 H573 0.929 . S
C561 C560 1.373 . S
C561 C562 1.396 . S
C561 C568 1.403 . S
C562 C552 1.476 . S
C562 N557 1.318 . S
C562 C561 1.396 . S
H563 C558 0.929 . S
O564 Mn540 2.385 . S
O564 C542 1.234 . S
O565 Mn540 2.209 . S
O565 Mn541 2.215 . S
O565 C542 1.283 . S
O566 Mn540 2.094 . S
O566 C544 1.240 . S
O567 Mn541 2.117 . S
O567 C544 1.264 . S
C568 C561 1.403 . S
C568 C569 1.399 . S
C568 H574 0.929 1_556 S
C569 C549 1.449 . S
C569 C568 1.399 . S
C569 H575 0.930 1_556 S
H570 C550 0.931 . S
H571 C551 0.930 . S
H572 C559 0.931 . S
H573 C560 0.929 . S
H574 C568 0.929 1_554 S
H575 C569 0.930 1_554 S
Mn576 O581 2.095 . S
Mn576 O591 2.162 . S
Mn576 O592 2.297 . S
Mn576 O600 2.385 . S
Mn576 O601 2.209 . S
Mn576 O602 2.094 . S
Mn577 O582 2.121 . S
Mn577 N584 2.257 . S
Mn577 N593 2.282 . S
Mn577 O601 2.215 . S
Mn577 O603 2.117 . S
C578 O600 1.234 . S
C578 O601 1.283 . S
C579 O591 1.281 . S
C579 O592 1.236 . S
C580 O602 1.240 . S
C580 O603 1.264 . S
O581 Mn576 2.095 . S
O581 C590 1.250 . S
O582 Mn577 2.121 . S
O582 C590 1.258 . S
C583 N584 1.326 . S
C583 C587 1.460 . S
C583 H589 0.929 . S
N584 Mn577 2.257 . S
N584 C583 1.326 . S
N584 C588 1.362 . S
C585 C586 1.258 . S
C585 C588 1.431 . S
C585 C605 1.449 . S
C586 C585 1.258 . S
C586 C587 1.477 . S
C586 H606 0.931 . S
C587 C583 1.460 . S
C587 C586 1.477 . S
C587 H607 0.930 . S
C588 N584 1.362 . S
C588 C585 1.431 . S
C588 C598 1.476 . S
H589 C583 0.929 . S
C590 O581 1.250 . S
C590 O582 1.258 . S
O591 Mn576 2.162 . S
O591 C579 1.281 . S
O592 Mn576 2.297 . S
O592 C579 1.236 . S
N593 Mn577 2.282 . S
N593 C594 1.328 . S
N593 C598 1.318 . S
C594 N593 1.328 . S
C594 C595 1.457 . S
C594 H599 0.929 . S
C595 C594 1.457 . S
C595 C596 1.291 . S
C595 H608 0.931 . S
C596 C595 1.291 . S
C596 C597 1.373 . S
C596 H609 0.929 . S
C597 C596 1.373 . S
C597 C598 1.396 . S
C597 C604 1.403 . S
C598 C588 1.476 . S
C598 N593 1.318 . S
C598 C597 1.396 . S
H599 C594 0.929 . S
O600 Mn576 2.385 . S
O600 C578 1.234 . S
O601 Mn576 2.209 . S
O601 Mn577 2.215 . S
O601 C578 1.283 . S
O602 Mn576 2.094 . S
O602 C580 1.240 . S
O603 Mn577 2.117 . S
O603 C580 1.264 . S
C604 C597 1.403 . S
C604 C605 1.399 . S
C604 H610 0.929 1_556 S
C605 C585 1.449 . S
C605 C604 1.399 . S
C605 H611 0.930 1_556 S
H606 C586 0.931 . S
H607 C587 0.930 . S
H608 C595 0.931 . S
H609 C596 0.929 . S
H610 C604 0.929 1_554 S
H611 C605 0.930 1_554 S
Mn612 O617 2.095 . S
Mn612 O627 2.162 . S
Mn612 O628 2.297 . S
Mn612 O636 2.385 . S
Mn612 O637 2.209 . S
Mn612 O638 2.094 . S
Mn613 O618 2.121 . S
Mn613 N620 2.257 . S
Mn613 N629 2.282 . S
Mn613 O637 2.215 . S
Mn613 O639 2.117 . S
C614 O636 1.234 . S
C614 O637 1.283 . S
C615 O627 1.281 . S
C615 O628 1.236 . S
C616 O638 1.240 . S
C616 O639 1.264 . S
O617 Mn612 2.095 . S
O617 C626 1.250 . S
O618 Mn613 2.121 . S
O618 C626 1.258 . S
C619 N620 1.326 . S
C619 C623 1.460 . S
C619 H625 0.929 . S
N620 Mn613 2.257 . S
N620 C619 1.326 . S
N620 C624 1.362 . S
C621 C622 1.258 . S
C621 C624 1.431 . S
C621 C641 1.449 . S
C622 C621 1.258 . S
C622 C623 1.477 . S
C622 H642 0.931 . S
C623 C619 1.460 . S
C623 C622 1.477 . S
C623 H643 0.930 . S
C624 N620 1.362 . S
C624 C621 1.431 . S
C624 C634 1.476 . S
H625 C619 0.929 . S
C626 O617 1.250 . S
C626 O618 1.258 . S
O627 Mn612 2.162 . S
O627 C615 1.281 . S
O628 Mn612 2.297 . S
O628 C615 1.236 . S
N629 Mn613 2.282 . S
N629 C630 1.328 . S
N629 C634 1.318 . S
C630 N629 1.328 . S
C630 C631 1.457 . S
C630 H635 0.929 . S
C631 C630 1.457 . S
C631 C632 1.291 . S
C631 H644 0.931 . S
C632 C631 1.291 . S
C632 C633 1.373 . S
C632 H645 0.929 . S
C633 C632 1.373 . S
C633 C634 1.396 . S
C633 C640 1.403 . S
C634 C624 1.476 . S
C634 N629 1.318 . S
C634 C633 1.396 . S
H635 C630 0.929 . S
O636 Mn612 2.385 . S
O636 C614 1.234 . S
O637 Mn612 2.209 . S
O637 Mn613 2.215 . S
O637 C614 1.283 . S
O638 Mn612 2.094 . S
O638 C616 1.240 . S
O639 Mn613 2.117 . S
O639 C616 1.264 . S
C640 C633 1.403 . S
C640 C641 1.399 . S
C640 H646 0.929 1_556 S
C641 C621 1.449 . S
C641 C640 1.399 . S
C641 H647 0.930 1_556 S
H642 C622 0.931 . S
H643 C623 0.930 . S
H644 C631 0.931 . S
H645 C632 0.929 . S
H646 C640 0.929 1_554 S
H647 C641 0.930 1_554 S
Mn648 O653 2.095 . S
Mn648 O663 2.162 . S
Mn648 O664 2.297 . S
Mn648 O672 2.385 . S
Mn648 O673 2.209 . S
Mn648 O674 2.094 . S
Mn649 O654 2.121 . S
Mn649 N656 2.257 . S
Mn649 N665 2.282 . S
Mn649 O673 2.215 . S
Mn649 O675 2.117 . S
C650 O672 1.234 . S
C650 O673 1.283 . S
C651 O663 1.281 . S
C651 O664 1.236 . S
C652 O674 1.240 . S
C652 O675 1.264 . S
O653 Mn648 2.095 . S
O653 C662 1.250 . S
O654 Mn649 2.121 . S
O654 C662 1.258 . S
C655 N656 1.326 . S
C655 C659 1.460 . S
C655 H661 0.929 . S
N656 Mn649 2.257 . S
N656 C655 1.326 . S
N656 C660 1.362 . S
C657 C658 1.258 . S
C657 C660 1.431 . S
C657 C677 1.449 . S
C658 C657 1.258 . S
C658 C659 1.477 . S
C658 H678 0.931 . S
C659 C655 1.460 . S
C659 C658 1.477 . S
C659 H679 0.930 . S
C660 N656 1.362 . S
C660 C657 1.431 . S
C660 C670 1.476 . S
H661 C655 0.929 . S
C662 O653 1.250 . S
C662 O654 1.258 . S
O663 Mn648 2.162 . S
O663 C651 1.281 . S
O664 Mn648 2.297 . S
O664 C651 1.236 . S
N665 Mn649 2.282 . S
N665 C666 1.328 . S
N665 C670 1.318 . S
C666 N665 1.328 . S
C666 C667 1.457 . S
C666 H671 0.929 . S
C667 C666 1.457 . S
C667 C668 1.291 . S
C667 H680 0.931 . S
C668 C667 1.291 . S
C668 C669 1.373 . S
C668 H681 0.929 . S
C669 C668 1.373 . S
C669 C670 1.396 . S
C669 C676 1.403 . S
C670 C660 1.476 . S
C670 N665 1.318 . S
C670 C669 1.396 . S
H671 C666 0.929 . S
O672 Mn648 2.385 . S
O672 C650 1.234 . S
O673 Mn648 2.209 . S
O673 Mn649 2.215 . S
O673 C650 1.283 . S
O674 Mn648 2.094 . S
O674 C652 1.240 . S
O675 Mn649 2.117 . S
O675 C652 1.264 . S
C676 C669 1.403 . S
C676 C677 1.399 . S
C676 H682 0.929 . S
C677 C657 1.449 . S
C677 C676 1.399 . S
C677 H683 0.930 . S
H678 C658 0.931 . S
H679 C659 0.930 . S
H680 C667 0.931 . S
H681 C668 0.929 . S
H682 C676 0.929 . S
H683 C677 0.930 . S
Mn684 O689 2.095 . S
Mn684 O699 2.162 . S
Mn684 O700 2.297 . S
Mn684 O708 2.385 . S
Mn684 O709 2.209 . S
Mn684 O710 2.094 . S
Mn685 O690 2.121 . S
Mn685 N692 2.257 . S
Mn685 N701 2.282 . S
Mn685 O709 2.215 . S
Mn685 O711 2.117 . S
C686 O708 1.234 . S
C686 O709 1.283 . S
C687 O699 1.281 . S
C687 O700 1.236 . S
C688 O710 1.240 . S
C688 O711 1.264 . S
O689 Mn684 2.095 . S
O689 C698 1.250 . S
O690 Mn685 2.121 . S
O690 C698 1.258 . S
C691 N692 1.326 . S
C691 C695 1.460 . S
C691 H697 0.929 . S
N692 Mn685 2.257 . S
N692 C691 1.326 . S
N692 C696 1.362 . S
C693 C694 1.258 . S
C693 C696 1.431 . S
C693 C713 1.449 . S
C694 C693 1.258 . S
C694 C695 1.477 . S
C694 H714 0.931 . S
C695 C691 1.460 . S
C695 C694 1.477 . S
C695 H715 0.930 . S
C696 N692 1.362 . S
C696 C693 1.431 . S
C696 C706 1.476 . S
H697 C691 0.929 . S
C698 O689 1.250 . S
C698 O690 1.258 . S
O699 Mn684 2.162 . S
O699 C687 1.281 . S
O700 Mn684 2.297 . S
O700 C687 1.236 . S
N701 Mn685 2.282 . S
N701 C702 1.328 . S
N701 C706 1.318 . S
C702 N701 1.328 . S
C702 C703 1.457 . S
C702 H707 0.929 . S
C703 C702 1.457 . S
C703 C704 1.291 . S
C703 H716 0.931 . S
C704 C703 1.291 . S
C704 C705 1.373 . S
C704 H717 0.929 . S
C705 C704 1.373 . S
C705 C706 1.396 . S
C705 C712 1.403 . S
C706 C696 1.476 . S
C706 N701 1.318 . S
C706 C705 1.396 . S
H707 C702 0.929 . S
O708 Mn684 2.385 . S
O708 C686 1.234 . S
O709 Mn684 2.209 . S
O709 Mn685 2.215 . S
O709 C686 1.283 . S
O710 Mn684 2.094 . S
O710 C688 1.240 . S
O711 Mn685 2.117 . S
O711 C688 1.264 . S
C712 C705 1.403 . S
C712 C713 1.399 . S
C712 H718 0.929 . S
C713 C693 1.449 . S
C713 C712 1.399 . S
C713 H719 0.930 . S
H714 C694 0.931 . S
H715 C695 0.930 . S
H716 C703 0.931 . S
H717 C704 0.929 . S
H718 C712 0.929 . S
H719 C713 0.930 . S
Mn720 O725 2.095 . S
Mn720 O735 2.162 . S
Mn720 O736 2.297 . S
Mn720 O744 2.385 . S
Mn720 O745 2.209 . S
Mn720 O746 2.094 . S
Mn721 O726 2.121 . S
Mn721 N728 2.257 . S
Mn721 N737 2.282 . S
Mn721 O745 2.215 . S
Mn721 O747 2.117 . S
C722 O744 1.234 . S
C722 O745 1.283 . S
C723 O735 1.281 . S
C723 O736 1.236 . S
C724 O746 1.240 . S
C724 O747 1.264 . S
O725 Mn720 2.095 . S
O725 C734 1.250 . S
O726 Mn721 2.121 . S
O726 C734 1.258 . S
C727 N728 1.326 . S
C727 C731 1.460 . S
C727 H733 0.929 . S
N728 Mn721 2.257 . S
N728 C727 1.326 . S
N728 C732 1.362 . S
C729 C730 1.258 . S
C729 C732 1.431 . S
C729 C749 1.449 . S
C730 C729 1.258 . S
C730 C731 1.477 . S
C730 H750 0.931 . S
C731 C727 1.460 . S
C731 C730 1.477 . S
C731 H751 0.930 . S
C732 N728 1.362 . S
C732 C729 1.431 . S
C732 C742 1.476 . S
H733 C727 0.929 . S
C734 O725 1.250 . S
C734 O726 1.258 . S
O735 Mn720 2.162 . S
O735 C723 1.281 . S
O736 Mn720 2.297 . S
O736 C723 1.236 . S
N737 Mn721 2.282 . S
N737 C738 1.328 . S
N737 C742 1.318 . S
C738 N737 1.328 . S
C738 C739 1.457 . S
C738 H743 0.929 . S
C739 C738 1.457 . S
C739 C740 1.291 . S
C739 H752 0.931 . S
C740 C739 1.291 . S
C740 C741 1.373 . S
C740 H753 0.929 . S
C741 C740 1.373 . S
C741 C742 1.396 . S
C741 C748 1.403 . S
C742 C732 1.476 . S
C742 N737 1.318 . S
C742 C741 1.396 . S
H743 C738 0.929 . S
O744 Mn720 2.385 . S
O744 C722 1.234 . S
O745 Mn720 2.209 . S
O745 Mn721 2.215 . S
O745 C722 1.283 . S
O746 Mn720 2.094 . S
O746 C724 1.240 . S
O747 Mn721 2.117 . S
O747 C724 1.264 . S
C748 C741 1.403 . S
C748 C749 1.399 . S
C748 H754 0.929 . S
C749 C729 1.449 . S
C749 C748 1.399 . S
C749 H755 0.930 . S
H750 C730 0.931 . S
H751 C731 0.930 . S
H752 C739 0.931 . S
H753 C740 0.929 . S
H754 C748 0.929 . S
H755 C749 0.930 . S
Mn756 O761 2.095 . S
Mn756 O771 2.162 . S
Mn756 O772 2.297 . S
Mn756 O780 2.385 . S
Mn756 O781 2.209 . S
Mn756 O782 2.094 . S
Mn757 O762 2.121 . S
Mn757 N764 2.257 . S
Mn757 N773 2.282 . S
Mn757 O781 2.215 . S
Mn757 O783 2.117 . S
C758 O780 1.234 . S
C758 O781 1.283 . S
C759 O771 1.281 . S
C759 O772 1.236 . S
C760 O782 1.240 . S
C760 O783 1.264 . S
O761 Mn756 2.095 . S
O761 C770 1.250 . S
O762 Mn757 2.121 . S
O762 C770 1.258 . S
C763 N764 1.326 . S
C763 C767 1.460 . S
C763 H769 0.929 . S
N764 Mn757 2.257 . S
N764 C763 1.326 . S
N764 C768 1.362 . S
C765 C766 1.258 . S
C765 C768 1.431 . S
C765 C785 1.449 . S
C766 C765 1.258 . S
C766 C767 1.477 . S
C766 H786 0.931 . S
C767 C763 1.460 . S
C767 C766 1.477 . S
C767 H787 0.930 . S
C768 N764 1.362 . S
C768 C765 1.431 . S
C768 C778 1.476 . S
H769 C763 0.929 . S
C770 O761 1.250 . S
C770 O762 1.258 . S
O771 Mn756 2.162 . S
O771 C759 1.281 . S
O772 Mn756 2.297 . S
O772 C759 1.236 . S
N773 Mn757 2.282 . S
N773 C774 1.328 . S
N773 C778 1.318 . S
C774 N773 1.328 . S
C774 C775 1.457 . S
C774 H779 0.929 . S
C775 C774 1.457 . S
C775 C776 1.291 . S
C775 H788 0.931 . S
C776 C775 1.291 . S
C776 C777 1.373 . S
C776 H789 0.929 . S
C777 C776 1.373 . S
C777 C778 1.396 . S
C777 C784 1.403 . S
C778 C768 1.476 . S
C778 N773 1.318 . S
C778 C777 1.396 . S
H779 C774 0.929 . S
O780 Mn756 2.385 . S
O780 C758 1.234 . S
O781 Mn756 2.209 . S
O781 Mn757 2.215 . S
O781 C758 1.283 . S
O782 Mn756 2.094 . S
O782 C760 1.240 . S
O783 Mn757 2.117 . S
O783 C760 1.264 . S
C784 C777 1.403 . S
C784 C785 1.399 . S
C784 H790 0.929 . S
C785 C765 1.449 . S
C785 C784 1.399 . S
C785 H791 0.930 . S
H786 C766 0.931 . S
H787 C767 0.930 . S
H788 C775 0.931 . S
H789 C776 0.929 . S
H790 C784 0.929 . S
H791 C785 0.930 . S
Mn792 O797 2.095 . S
Mn792 O807 2.162 . S
Mn792 O808 2.297 . S
Mn792 O816 2.385 . S
Mn792 O817 2.209 . S
Mn792 O818 2.094 . S
Mn793 O798 2.121 . S
Mn793 N800 2.257 . S
Mn793 N809 2.282 . S
Mn793 O817 2.215 . S
Mn793 O819 2.117 . S
C794 O816 1.234 . S
C794 O817 1.283 . S
C795 O807 1.281 . S
C795 O808 1.236 . S
C796 O818 1.240 . S
C796 O819 1.264 . S
O797 Mn792 2.095 . S
O797 C806 1.250 . S
O798 Mn793 2.121 . S
O798 C806 1.258 . S
C799 N800 1.326 . S
C799 C803 1.460 . S
C799 H805 0.929 . S
N800 Mn793 2.257 . S
N800 C799 1.326 . S
N800 C804 1.362 . S
C801 C802 1.258 . S
C801 C804 1.431 . S
C801 C821 1.449 . S
C802 C801 1.258 . S
C802 C803 1.477 . S
C802 H822 0.931 . S
C803 C799 1.460 . S
C803 C802 1.477 . S
C803 H823 0.930 . S
C804 N800 1.362 . S
C804 C801 1.431 . S
C804 C814 1.476 . S
H805 C799 0.929 . S
C806 O797 1.250 . S
C806 O798 1.258 . S
O807 Mn792 2.162 . S
O807 C795 1.281 . S
O808 Mn792 2.297 . S
O808 C795 1.236 . S
N809 Mn793 2.282 . S
N809 C810 1.328 . S
N809 C814 1.318 . S
C810 N809 1.328 . S
C810 C811 1.457 . S
C810 H815 0.929 . S
C811 C810 1.457 . S
C811 C812 1.291 . S
C811 H824 0.931 . S
C812 C811 1.291 . S
C812 C813 1.373 . S
C812 H825 0.929 . S
C813 C812 1.373 . S
C813 C814 1.396 . S
C813 C820 1.403 . S
C814 C804 1.476 . S
C814 N809 1.318 . S
C814 C813 1.396 . S
H815 C810 0.929 . S
O816 Mn792 2.385 . S
O816 C794 1.234 . S
O817 Mn792 2.209 . S
O817 Mn793 2.215 . S
O817 C794 1.283 . S
O818 Mn792 2.094 . S
O818 C796 1.240 . S
O819 Mn793 2.117 . S
O819 C796 1.264 . S
C820 C813 1.403 . S
C820 C821 1.399 . S
C820 H826 0.929 . S
C821 C801 1.449 . S
C821 C820 1.399 . S
C821 H827 0.930 . S
H822 C802 0.931 . S
H823 C803 0.930 . S
H824 C811 0.931 . S
H825 C812 0.929 . S
H826 C820 0.929 . S
H827 C821 0.930 . S
Mn828 O833 2.095 . S
Mn828 O843 2.162 . S
Mn828 O844 2.297 . S
Mn828 O852 2.385 . S
Mn828 O853 2.209 . S
Mn828 O854 2.094 . S
Mn829 O834 2.121 . S
Mn829 N836 2.257 . S
Mn829 N845 2.282 . S
Mn829 O853 2.215 . S
Mn829 O855 2.117 . S
C830 O852 1.234 . S
C830 O853 1.283 . S
C831 O843 1.281 . S
C831 O844 1.236 . S
C832 O854 1.240 . S
C832 O855 1.264 . S
O833 Mn828 2.095 . S
O833 C842 1.250 . S
O834 Mn829 2.121 . S
O834 C842 1.258 . S
C835 N836 1.326 . S
C835 C839 1.460 . S
C835 H841 0.929 . S
N836 Mn829 2.257 . S
N836 C835 1.326 . S
N836 C840 1.362 . S
C837 C838 1.258 . S
C837 C840 1.431 . S
C837 C857 1.449 . S
C838 C837 1.258 . S
C838 C839 1.477 . S
C838 H858 0.931 . S
C839 C835 1.460 . S
C839 C838 1.477 . S
C839 H859 0.930 . S
C840 N836 1.362 . S
C840 C837 1.431 . S
C840 C850 1.476 . S
H841 C835 0.929 . S
C842 O833 1.250 . S
C842 O834 1.258 . S
O843 Mn828 2.162 . S
O843 C831 1.281 . S
O844 Mn828 2.297 . S
O844 C831 1.236 . S
N845 Mn829 2.282 . S
N845 C846 1.328 . S
N845 C850 1.318 . S
C846 N845 1.328 . S
C846 C847 1.457 . S
C846 H851 0.929 . S
C847 C846 1.457 . S
C847 C848 1.291 . S
C847 H860 0.931 . S
C848 C847 1.291 . S
C848 C849 1.373 . S
C848 H861 0.929 . S
C849 C848 1.373 . S
C849 C850 1.396 . S
C849 C856 1.403 . S
C850 C840 1.476 . S
C850 N845 1.318 . S
C850 C849 1.396 . S
H851 C846 0.929 . S
O852 Mn828 2.385 . S
O852 C830 1.234 . S
O853 Mn828 2.209 . S
O853 Mn829 2.215 . S
O853 C830 1.283 . S
O854 Mn828 2.094 . S
O854 C832 1.240 . S
O855 Mn829 2.117 . S
O855 C832 1.264 . S
C856 C849 1.403 . S
C856 C857 1.399 . S
C856 H862 0.929 . S
C857 C837 1.449 . S
C857 C856 1.399 . S
C857 H863 0.930 . S
H858 C838 0.931 . S
H859 C839 0.930 . S
H860 C847 0.931 . S
H861 C848 0.929 . S
H862 C856 0.929 . S
H863 C857 0.930 . S
Mn864 O869 2.095 . S
Mn864 O879 2.162 . S
Mn864 O880 2.297 . S
Mn864 O888 2.385 . S
Mn864 O889 2.209 . S
Mn864 O890 2.094 . S
Mn865 O870 2.121 . S
Mn865 N872 2.257 . S
Mn865 N881 2.282 . S
Mn865 O889 2.215 . S
Mn865 O891 2.117 . S
C866 O888 1.234 . S
C866 O889 1.283 . S
C867 O879 1.281 . S
C867 O880 1.236 . S
C868 O890 1.240 . S
C868 O891 1.264 . S
O869 Mn864 2.095 . S
O869 C878 1.250 . S
O870 Mn865 2.121 . S
O870 C878 1.258 . S
C871 N872 1.326 . S
C871 C875 1.460 . S
C871 H877 0.929 . S
N872 Mn865 2.257 . S
N872 C871 1.326 . S
N872 C876 1.362 . S
C873 C874 1.258 . S
C873 C876 1.431 . S
C873 C893 1.449 . S
C874 C873 1.258 . S
C874 C875 1.477 . S
C874 H894 0.931 . S
C875 C871 1.460 . S
C875 C874 1.477 . S
C875 H895 0.930 . S
C876 N872 1.362 . S
C876 C873 1.431 . S
C876 C886 1.476 . S
H877 C871 0.929 . S
C878 O869 1.250 . S
C878 O870 1.258 . S
O879 Mn864 2.162 . S
O879 C867 1.281 . S
O880 Mn864 2.297 . S
O880 C867 1.236 . S
N881 Mn865 2.282 . S
N881 C882 1.328 . S
N881 C886 1.318 . S
C882 N881 1.328 . S
C882 C883 1.457 . S
C882 H887 0.929 . S
C883 C882 1.457 . S
C883 C884 1.291 . S
C883 H896 0.931 . S
C884 C883 1.291 . S
C884 C885 1.373 . S
C884 H897 0.929 . S
C885 C884 1.373 . S
C885 C886 1.396 . S
C885 C892 1.403 . S
C886 C876 1.476 . S
C886 N881 1.318 . S
C886 C885 1.396 . S
H887 C882 0.929 . S
O888 Mn864 2.385 . S
O888 C866 1.234 . S
O889 Mn864 2.209 . S
O889 Mn865 2.215 . S
O889 C866 1.283 . S
O890 Mn864 2.094 . S
O890 C868 1.240 . S
O891 Mn865 2.117 . S
O891 C868 1.264 . S
C892 C885 1.403 . S
C892 C893 1.399 . S
C892 H898 0.929 . S
C893 C873 1.449 . S
C893 C892 1.399 . S
C893 H899 0.930 . S
H894 C874 0.931 . S
H895 C875 0.930 . S
H896 C883 0.931 . S
H897 C884 0.929 . S
H898 C892 0.929 . S
H899 C893 0.930 . S
Mn900 O905 2.095 . S
Mn900 O915 2.162 . S
Mn900 O916 2.297 . S
Mn900 O924 2.385 . S
Mn900 O925 2.209 . S
Mn900 O926 2.094 . S
Mn901 O906 2.121 . S
Mn901 N908 2.257 . S
Mn901 N917 2.282 . S
Mn901 O925 2.215 . S
Mn901 O927 2.117 . S
C902 O924 1.234 . S
C902 O925 1.283 . S
C903 O915 1.281 . S
C903 O916 1.236 . S
C904 O926 1.240 . S
C904 O927 1.264 . S
O905 Mn900 2.095 . S
O905 C914 1.250 . S
O906 Mn901 2.121 . S
O906 C914 1.258 . S
C907 N908 1.326 . S
C907 C911 1.460 . S
C907 H913 0.929 . S
N908 Mn901 2.257 . S
N908 C907 1.326 . S
N908 C912 1.362 . S
C909 C910 1.258 . S
C909 C912 1.431 . S
C909 C929 1.449 . S
C910 C909 1.258 . S
C910 C911 1.477 . S
C910 H930 0.931 . S
C911 C907 1.460 . S
C911 C910 1.477 . S
C911 H931 0.930 . S
C912 N908 1.362 . S
C912 C909 1.431 . S
C912 C922 1.476 . S
H913 C907 0.929 . S
C914 O905 1.250 . S
C914 O906 1.258 . S
O915 Mn900 2.162 . S
O915 C903 1.281 . S
O916 Mn900 2.297 . S
O916 C903 1.236 . S
N917 Mn901 2.282 . S
N917 C918 1.328 . S
N917 C922 1.318 . S
C918 N917 1.328 . S
C918 C919 1.457 . S
C918 H923 0.929 . S
C919 C918 1.457 . S
C919 C920 1.291 . S
C919 H932 0.931 . S
C920 C919 1.291 . S
C920 C921 1.373 . S
C920 H933 0.929 . S
C921 C920 1.373 . S
C921 C922 1.396 . S
C921 C928 1.403 . S
C922 C912 1.476 . S
C922 N917 1.318 . S
C922 C921 1.396 . S
H923 C918 0.929 . S
O924 Mn900 2.385 . S
O924 C902 1.234 . S
O925 Mn900 2.209 . S
O925 Mn901 2.215 . S
O925 C902 1.283 . S
O926 Mn900 2.094 . S
O926 C904 1.240 . S
O927 Mn901 2.117 . S
O927 C904 1.264 . S
C928 C921 1.403 . S
C928 C929 1.399 . S
C928 H934 0.929 . S
C929 C909 1.449 . S
C929 C928 1.399 . S
C929 H935 0.930 . S
H930 C910 0.931 . S
H931 C911 0.930 . S
H932 C919 0.931 . S
H933 C920 0.929 . S
H934 C928 0.929 . S
H935 C929 0.930 . S
Mn936 O941 2.095 . S
Mn936 O951 2.162 . S
Mn936 O952 2.297 . S
Mn936 O960 2.385 . S
Mn936 O961 2.209 . S
Mn936 O962 2.094 . S
Mn937 O942 2.121 . S
Mn937 N944 2.257 . S
Mn937 N953 2.282 . S
Mn937 O961 2.215 . S
Mn937 O963 2.117 . S
C938 O960 1.234 . S
C938 O961 1.283 . S
C939 O951 1.281 . S
C939 O952 1.236 . S
C940 O962 1.240 . S
C940 O963 1.264 . S
O941 Mn936 2.095 . S
O941 C950 1.250 . S
O942 Mn937 2.121 . S
O942 C950 1.258 . S
C943 N944 1.326 . S
C943 C947 1.460 . S
C943 H949 0.929 . S
N944 Mn937 2.257 . S
N944 C943 1.326 . S
N944 C948 1.362 . S
C945 C946 1.258 . S
C945 C948 1.431 . S
C945 C965 1.449 . S
C946 C945 1.258 . S
C946 C947 1.477 . S
C946 H966 0.931 . S
C947 C943 1.460 . S
C947 C946 1.477 . S
C947 H967 0.930 . S
C948 N944 1.362 . S
C948 C945 1.431 . S
C948 C958 1.476 . S
H949 C943 0.929 . S
C950 O941 1.250 . S
C950 O942 1.258 . S
O951 Mn936 2.162 . S
O951 C939 1.281 . S
O952 Mn936 2.297 . S
O952 C939 1.236 . S
N953 Mn937 2.282 . S
N953 C954 1.328 . S
N953 C958 1.318 . S
C954 N953 1.328 . S
C954 C955 1.457 . S
C954 H959 0.929 . S
C955 C954 1.457 . S
C955 C956 1.291 . S
C955 H968 0.931 . S
C956 C955 1.291 . S
C956 C957 1.373 . S
C956 H969 0.929 . S
C957 C956 1.373 . S
C957 C958 1.396 . S
C957 C964 1.403 . S
C958 C948 1.476 . S
C958 N953 1.318 . S
C958 C957 1.396 . S
H959 C954 0.929 . S
O960 Mn936 2.385 . S
O960 C938 1.234 . S
O961 Mn936 2.209 . S
O961 Mn937 2.215 . S
O961 C938 1.283 . S
O962 Mn936 2.094 . S
O962 C940 1.240 . S
O963 Mn937 2.117 . S
O963 C940 1.264 . S
C964 C957 1.403 . S
C964 C965 1.399 . S
C964 H970 0.929 . S
C965 C945 1.449 . S
C965 C964 1.399 . S
C965 H971 0.930 . S
H966 C946 0.931 . S
H967 C947 0.930 . S
H968 C955 0.931 . S
H969 C956 0.929 . S
H970 C964 0.929 . S
H971 C965 0.930 . S
Mn972 O977 2.095 . S
Mn972 O987 2.162 . S
Mn972 O988 2.297 . S
Mn972 O996 2.385 . S
Mn972 O997 2.209 . S
Mn972 O998 2.094 . S
Mn973 O978 2.121 . S
Mn973 N980 2.257 . S
Mn973 N989 2.282 . S
Mn973 O997 2.215 . S
Mn973 O999 2.117 . S
C974 O996 1.234 . S
C974 O997 1.283 . S
C975 O987 1.281 . S
C975 O988 1.236 . S
C976 O998 1.240 . S
C976 O999 1.264 . S
O977 Mn972 2.095 . S
O977 C986 1.250 . S
O978 Mn973 2.121 . S
O978 C986 1.258 . S
C979 N980 1.326 . S
C979 C983 1.460 . S
C979 H985 0.929 . S
N980 Mn973 2.257 . S
N980 C979 1.326 . S
N980 C984 1.362 . S
C981 C982 1.258 . S
C981 C984 1.431 . S
C981 C1001 1.449 . S
C982 C981 1.258 . S
C982 C983 1.477 . S
C982 H1002 0.931 . S
C983 C979 1.460 . S
C983 C982 1.477 . S
C983 H1003 0.930 . S
C984 N980 1.362 . S
C984 C981 1.431 . S
C984 C994 1.476 . S
H985 C979 0.929 . S
C986 O977 1.250 . S
C986 O978 1.258 . S
O987 Mn972 2.162 . S
O987 C975 1.281 . S
O988 Mn972 2.297 . S
O988 C975 1.236 . S
N989 Mn973 2.282 . S
N989 C990 1.328 . S
N989 C994 1.318 . S
C990 N989 1.328 . S
C990 C991 1.457 . S
C990 H995 0.929 . S
C991 C990 1.457 . S
C991 C992 1.291 . S
C991 H1004 0.931 . S
C992 C991 1.291 . S
C992 C993 1.373 . S
C992 H1005 0.929 . S
C993 C992 1.373 . S
C993 C994 1.396 . S
C993 C1000 1.403 . S
C994 C984 1.476 . S
C994 N989 1.318 . S
C994 C993 1.396 . S
H995 C990 0.929 . S
O996 Mn972 2.385 . S
O996 C974 1.234 . S
O997 Mn972 2.209 . S
O997 Mn973 2.215 . S
O997 C974 1.283 . S
O998 Mn972 2.094 . S
O998 C976 1.240 . S
O999 Mn973 2.117 . S
O999 C976 1.264 . S
C1000 C993 1.403 . S
C1000 C1001 1.399 . S
C1000 H1006 0.929 . S
C1001 C981 1.449 . S
C1001 C1000 1.399 . S
C1001 H1007 0.930 . S
H1002 C982 0.931 . S
H1003 C983 0.930 . S
H1004 C991 0.931 . S
H1005 C992 0.929 . S
H1006 C1000 0.929 . S
H1007 C1001 0.930 . S
Mn1008 O1013 2.095 . S
Mn1008 O1023 2.162 . S
Mn1008 O1024 2.297 . S
Mn1008 O1032 2.385 . S
Mn1008 O1033 2.209 . S
Mn1008 O1034 2.094 . S
Mn1009 O1014 2.121 . S
Mn1009 N1016 2.257 . S
Mn1009 N1025 2.282 . S
Mn1009 O1033 2.215 . S
Mn1009 O1035 2.117 . S
C1010 O1032 1.234 . S
C1010 O1033 1.283 . S
C1011 O1023 1.281 . S
C1011 O1024 1.236 . S
C1012 O1034 1.240 . S
C1012 O1035 1.264 . S
O1013 Mn1008 2.095 . S
O1013 C1022 1.250 . S
O1014 Mn1009 2.121 . S
O1014 C1022 1.258 . S
C1015 N1016 1.326 . S
C1015 C1019 1.460 . S
C1015 H1021 0.929 . S
N1016 Mn1009 2.257 . S
N1016 C1015 1.326 . S
N1016 C1020 1.362 . S
C1017 C1018 1.258 . S
C1017 C1020 1.431 . S
C1017 C1037 1.449 . S
C1018 C1017 1.258 . S
C1018 C1019 1.477 . S
C1018 H1038 0.931 . S
C1019 C1015 1.460 . S
C1019 C1018 1.477 . S
C1019 H1039 0.930 . S
C1020 N1016 1.362 . S
C1020 C1017 1.431 . S
C1020 C1030 1.476 . S
H1021 C1015 0.929 . S
C1022 O1013 1.250 . S
C1022 O1014 1.258 . S
O1023 Mn1008 2.162 . S
O1023 C1011 1.281 . S
O1024 Mn1008 2.297 . S
O1024 C1011 1.236 . S
N1025 Mn1009 2.282 . S
N1025 C1026 1.328 . S
N1025 C1030 1.318 . S
C1026 N1025 1.328 . S
C1026 C1027 1.457 . S
C1026 H1031 0.929 . S
C1027 C1026 1.457 . S
C1027 C1028 1.291 . S
C1027 H1040 0.931 . S
C1028 C1027 1.291 . S
C1028 C1029 1.373 . S
C1028 H1041 0.929 . S
C1029 C1028 1.373 . S
C1029 C1030 1.396 . S
C1029 C1036 1.403 . S
C1030 C1020 1.476 . S
C1030 N1025 1.318 . S
C1030 C1029 1.396 . S
H1031 C1026 0.929 . S
O1032 Mn1008 2.385 . S
O1032 C1010 1.234 . S
O1033 Mn1008 2.209 . S
O1033 Mn1009 2.215 . S
O1033 C1010 1.283 . S
O1034 Mn1008 2.094 . S
O1034 C1012 1.240 . S
O1035 Mn1009 2.117 . S
O1035 C1012 1.264 . S
C1036 C1029 1.403 . S
C1036 C1037 1.399 . S
C1036 H1042 0.929 . S
C1037 C1017 1.449 . S
C1037 C1036 1.399 . S
C1037 H1043 0.930 . S
H1038 C1018 0.931 . S
H1039 C1019 0.930 . S
H1040 C1027 0.931 . S
H1041 C1028 0.929 . S
H1042 C1036 0.929 . S
H1043 C1037 0.930 . S
Mn1044 O1049 2.095 . S
Mn1044 O1059 2.162 . S
Mn1044 O1060 2.297 . S
Mn1044 O1068 2.385 . S
Mn1044 O1069 2.209 . S
Mn1044 O1070 2.094 . S
Mn1045 O1050 2.121 . S
Mn1045 N1052 2.257 . S
Mn1045 N1061 2.282 . S
Mn1045 O1069 2.215 . S
Mn1045 O1071 2.117 . S
C1046 O1068 1.234 . S
C1046 O1069 1.283 . S
C1047 O1059 1.281 . S
C1047 O1060 1.236 . S
C1048 O1070 1.240 . S
C1048 O1071 1.264 . S
O1049 Mn1044 2.095 . S
O1049 C1058 1.250 . S
O1050 Mn1045 2.121 . S
O1050 C1058 1.258 . S
C1051 N1052 1.326 . S
C1051 C1055 1.460 . S
C1051 H1057 0.929 . S
N1052 Mn1045 2.257 . S
N1052 C1051 1.326 . S
N1052 C1056 1.362 . S
C1053 C1054 1.258 . S
C1053 C1056 1.431 . S
C1053 C1073 1.449 . S
C1054 C1053 1.258 . S
C1054 C1055 1.477 . S
C1054 H1074 0.931 . S
C1055 C1051 1.460 . S
C1055 C1054 1.477 . S
C1055 H1075 0.930 . S
C1056 N1052 1.362 . S
C1056 C1053 1.431 . S
C1056 C1066 1.476 . S
H1057 C1051 0.929 . S
C1058 O1049 1.250 . S
C1058 O1050 1.258 . S
O1059 Mn1044 2.162 . S
O1059 C1047 1.281 . S
O1060 Mn1044 2.297 . S
O1060 C1047 1.236 . S
N1061 Mn1045 2.282 . S
N1061 C1062 1.328 . S
N1061 C1066 1.318 . S
C1062 N1061 1.328 . S
C1062 C1063 1.457 . S
C1062 H1067 0.929 . S
C1063 C1062 1.457 . S
C1063 C1064 1.291 . S
C1063 H1076 0.931 . S
C1064 C1063 1.291 . S
C1064 C1065 1.373 . S
C1064 H1077 0.929 . S
C1065 C1064 1.373 . S
C1065 C1066 1.396 . S
C1065 C1072 1.403 . S
C1066 C1056 1.476 . S
C1066 N1061 1.318 . S
C1066 C1065 1.396 . S
H1067 C1062 0.929 . S
O1068 Mn1044 2.385 . S
O1068 C1046 1.234 . S
O1069 Mn1044 2.209 . S
O1069 Mn1045 2.215 . S
O1069 C1046 1.283 . S
O1070 Mn1044 2.094 . S
O1070 C1048 1.240 . S
O1071 Mn1045 2.117 . S
O1071 C1048 1.264 . S
C1072 C1065 1.403 . S
C1072 C1073 1.399 . S
C1072 H1078 0.929 . S
C1073 C1053 1.449 . S
C1073 C1072 1.399 . S
C1073 H1079 0.930 . S
H1074 C1054 0.931 . S
H1075 C1055 0.930 . S
H1076 C1063 0.931 . S
H1077 C1064 0.929 . S
H1078 C1072 0.929 . S
H1079 C1073 0.930 . S
Mn1080 O1085 2.095 . S
Mn1080 O1095 2.162 . S
Mn1080 O1096 2.297 . S
Mn1080 O1104 2.385 . S
Mn1080 O1105 2.209 . S
Mn1080 O1106 2.094 . S
Mn1081 O1086 2.121 . S
Mn1081 N1088 2.257 . S
Mn1081 N1097 2.282 . S
Mn1081 O1105 2.215 . S
Mn1081 O1107 2.117 . S
C1082 O1104 1.234 . S
C1082 O1105 1.283 . S
C1083 O1095 1.281 . S
C1083 O1096 1.236 . S
C1084 O1106 1.240 . S
C1084 O1107 1.264 . S
O1085 Mn1080 2.095 . S
O1085 C1094 1.250 . S
O1086 Mn1081 2.121 . S
O1086 C1094 1.258 . S
C1087 N1088 1.326 . S
C1087 C1091 1.460 . S
C1087 H1093 0.929 . S
N1088 Mn1081 2.257 . S
N1088 C1087 1.326 . S
N1088 C1092 1.362 . S
C1089 C1090 1.258 . S
C1089 C1092 1.431 . S
C1089 C1109 1.449 . S
C1090 C1089 1.258 . S
C1090 C1091 1.477 . S
C1090 H1110 0.931 . S
C1091 C1087 1.460 . S
C1091 C1090 1.477 . S
C1091 H1111 0.930 . S
C1092 N1088 1.362 . S
C1092 C1089 1.431 . S
C1092 C1102 1.476 . S
H1093 C1087 0.929 . S
C1094 O1085 1.250 . S
C1094 O1086 1.258 . S
O1095 Mn1080 2.162 . S
O1095 C1083 1.281 . S
O1096 Mn1080 2.297 . S
O1096 C1083 1.236 . S
N1097 Mn1081 2.282 . S
N1097 C1098 1.328 . S
N1097 C1102 1.318 . S
C1098 N1097 1.328 . S
C1098 C1099 1.457 . S
C1098 H1103 0.929 . S
C1099 C1098 1.457 . S
C1099 C1100 1.291 . S
C1099 H1112 0.931 . S
C1100 C1099 1.291 . S
C1100 C1101 1.373 . S
C1100 H1113 0.929 . S
C1101 C1100 1.373 . S
C1101 C1102 1.396 . S
C1101 C1108 1.403 . S
C1102 C1092 1.476 . S
C1102 N1097 1.318 . S
C1102 C1101 1.396 . S
H1103 C1098 0.929 . S
O1104 Mn1080 2.385 . S
O1104 C1082 1.234 . S
O1105 Mn1080 2.209 . S
O1105 Mn1081 2.215 . S
O1105 C1082 1.283 . S
O1106 Mn1080 2.094 . S
O1106 C1084 1.240 . S
O1107 Mn1081 2.117 . S
O1107 C1084 1.264 . S
C1108 C1101 1.403 . S
C1108 C1109 1.399 . S
C1108 H1114 0.929 . S
C1109 C1089 1.449 . S
C1109 C1108 1.399 . S
C1109 H1115 0.930 . S
H1110 C1090 0.931 . S
H1111 C1091 0.930 . S
H1112 C1099 0.931 . S
H1113 C1100 0.929 . S
H1114 C1108 0.929 . S
H1115 C1109 0.930 . S
Mn1116 O1121 2.095 . S
Mn1116 O1131 2.162 . S
Mn1116 O1132 2.297 . S
Mn1116 O1140 2.385 . S
Mn1116 O1141 2.209 . S
Mn1116 O1142 2.094 . S
Mn1117 O1122 2.121 . S
Mn1117 N1124 2.257 . S
Mn1117 N1133 2.282 . S
Mn1117 O1141 2.215 . S
Mn1117 O1143 2.117 . S
C1118 O1140 1.234 . S
C1118 O1141 1.283 . S
C1119 O1131 1.281 . S
C1119 O1132 1.236 . S
C1120 O1142 1.240 . S
C1120 O1143 1.264 . S
O1121 Mn1116 2.095 . S
O1121 C1130 1.250 . S
O1122 Mn1117 2.121 . S
O1122 C1130 1.258 . S
C1123 N1124 1.326 . S
C1123 C1127 1.460 . S
C1123 H1129 0.929 . S
N1124 Mn1117 2.257 . S
N1124 C1123 1.326 . S
N1124 C1128 1.362 . S
C1125 C1126 1.258 . S
C1125 C1128 1.431 . S
C1125 C1145 1.449 . S
C1126 C1125 1.258 . S
C1126 C1127 1.477 . S
C1126 H1146 0.931 . S
C1127 C1123 1.460 . S
C1127 C1126 1.477 . S
C1127 H1147 0.930 . S
C1128 N1124 1.362 . S
C1128 C1125 1.431 . S
C1128 C1138 1.476 . S
H1129 C1123 0.929 . S
C1130 O1121 1.250 . S
C1130 O1122 1.258 . S
O1131 Mn1116 2.162 . S
O1131 C1119 1.281 . S
O1132 Mn1116 2.297 . S
O1132 C1119 1.236 . S
N1133 Mn1117 2.282 . S
N1133 C1134 1.328 . S
N1133 C1138 1.318 . S
C1134 N1133 1.328 . S
C1134 C1135 1.457 . S
C1134 H1139 0.929 . S
C1135 C1134 1.457 . S
C1135 C1136 1.291 . S
C1135 H1148 0.931 . S
C1136 C1135 1.291 . S
C1136 C1137 1.373 . S
C1136 H1149 0.929 . S
C1137 C1136 1.373 . S
C1137 C1138 1.396 . S
C1137 C1144 1.403 . S
C1138 C1128 1.476 . S
C1138 N1133 1.318 . S
C1138 C1137 1.396 . S
H1139 C1134 0.929 . S
O1140 Mn1116 2.385 . S
O1140 C1118 1.234 . S
O1141 Mn1116 2.209 . S
O1141 Mn1117 2.215 . S
O1141 C1118 1.283 . S
O1142 Mn1116 2.094 . S
O1142 C1120 1.240 . S
O1143 Mn1117 2.117 . S
O1143 C1120 1.264 . S
C1144 C1137 1.403 . S
C1144 C1145 1.399 . S
C1144 H1150 0.929 . S
C1145 C1125 1.449 . S
C1145 C1144 1.399 . S
C1145 H1151 0.930 . S
H1146 C1126 0.931 . S
H1147 C1127 0.930 . S
H1148 C1135 0.931 . S
H1149 C1136 0.929 . S
H1150 C1144 0.929 . S
H1151 C1145 0.930 . S
Mn1152 O1157 2.095 . S
Mn1152 O1167 2.162 . S
Mn1152 O1168 2.297 . S
Mn1152 O1176 2.385 . S
Mn1152 O1177 2.209 . S
Mn1152 O1178 2.094 . S
Mn1153 O1158 2.121 . S
Mn1153 N1160 2.257 . S
Mn1153 N1169 2.282 . S
Mn1153 O1177 2.215 . S
Mn1153 O1179 2.117 . S
C1154 O1176 1.234 . S
C1154 O1177 1.283 . S
C1155 O1167 1.281 . S
C1155 O1168 1.236 . S
C1156 O1178 1.240 . S
C1156 O1179 1.264 . S
O1157 Mn1152 2.095 . S
O1157 C1166 1.250 . S
O1158 Mn1153 2.121 . S
O1158 C1166 1.258 . S
C1159 N1160 1.326 . S
C1159 C1163 1.460 . S
C1159 H1165 0.929 . S
N1160 Mn1153 2.257 . S
N1160 C1159 1.326 . S
N1160 C1164 1.362 . S
C1161 C1162 1.258 . S
C1161 C1164 1.431 . S
C1161 C1181 1.449 . S
C1162 C1161 1.258 . S
C1162 C1163 1.477 . S
C1162 H1182 0.931 . S
C1163 C1159 1.460 . S
C1163 C1162 1.477 . S
C1163 H1183 0.930 . S
C1164 N1160 1.362 . S
C1164 C1161 1.431 . S
C1164 C1174 1.476 . S
H1165 C1159 0.929 . S
C1166 O1157 1.250 . S
C1166 O1158 1.258 . S
O1167 Mn1152 2.162 . S
O1167 C1155 1.281 . S
O1168 Mn1152 2.297 . S
O1168 C1155 1.236 . S
N1169 Mn1153 2.282 . S
N1169 C1170 1.328 . S
N1169 C1174 1.318 . S
C1170 N1169 1.328 . S
C1170 C1171 1.457 . S
C1170 H1175 0.929 . S
C1171 C1170 1.457 . S
C1171 C1172 1.291 . S
C1171 H1184 0.931 . S
C1172 C1171 1.291 . S
C1172 C1173 1.373 . S
C1172 H1185 0.929 . S
C1173 C1172 1.373 . S
C1173 C1174 1.396 . S
C1173 C1180 1.403 . S
C1174 C1164 1.476 . S
C1174 N1169 1.318 . S
C1174 C1173 1.396 . S
H1175 C1170 0.929 . S
O1176 Mn1152 2.385 . S
O1176 C1154 1.234 . S
O1177 Mn1152 2.209 . S
O1177 Mn1153 2.215 . S
O1177 C1154 1.283 . S
O1178 Mn1152 2.094 . S
O1178 C1156 1.240 . S
O1179 Mn1153 2.117 . S
O1179 C1156 1.264 . S
C1180 C1173 1.403 . S
C1180 C1181 1.399 . S
C1180 H1186 0.929 . S
C1181 C1161 1.449 . S
C1181 C1180 1.399 . S
C1181 H1187 0.930 . S
H1182 C1162 0.931 . S
H1183 C1163 0.930 . S
H1184 C1171 0.931 . S
H1185 C1172 0.929 . S
H1186 C1180 0.929 . S
H1187 C1181 0.930 . S
Mn1188 O1193 2.095 . S
Mn1188 O1203 2.162 . S
Mn1188 O1204 2.297 . S
Mn1188 O1212 2.385 . S
Mn1188 O1213 2.209 . S
Mn1188 O1214 2.094 . S
Mn1189 O1194 2.121 . S
Mn1189 N1196 2.257 . S
Mn1189 N1205 2.282 . S
Mn1189 O1213 2.215 . S
Mn1189 O1215 2.117 . S
C1190 O1212 1.234 . S
C1190 O1213 1.283 . S
C1191 O1203 1.281 . S
C1191 O1204 1.236 . S
C1192 O1214 1.240 . S
C1192 O1215 1.264 . S
O1193 Mn1188 2.095 . S
O1193 C1202 1.250 . S
O1194 Mn1189 2.121 . S
O1194 C1202 1.258 . S
C1195 N1196 1.326 . S
C1195 C1199 1.460 . S
C1195 H1201 0.929 . S
N1196 Mn1189 2.257 . S
N1196 C1195 1.326 . S
N1196 C1200 1.362 . S
C1197 C1198 1.258 . S
C1197 C1200 1.431 . S
C1197 C1217 1.449 . S
C1198 C1197 1.258 . S
C1198 C1199 1.477 . S
C1198 H1218 0.931 . S
C1199 C1195 1.460 . S
C1199 C1198 1.477 . S
C1199 H1219 0.930 . S
C1200 N1196 1.362 . S
C1200 C1197 1.431 . S
C1200 C1210 1.476 . S
H1201 C1195 0.929 . S
C1202 O1193 1.250 . S
C1202 O1194 1.258 . S
O1203 Mn1188 2.162 . S
O1203 C1191 1.281 . S
O1204 Mn1188 2.297 . S
O1204 C1191 1.236 . S
N1205 Mn1189 2.282 . S
N1205 C1206 1.328 . S
N1205 C1210 1.318 . S
C1206 N1205 1.328 . S
C1206 C1207 1.457 . S
C1206 H1211 0.929 . S
C1207 C1206 1.457 . S
C1207 C1208 1.291 . S
C1207 H1220 0.931 . S
C1208 C1207 1.291 . S
C1208 C1209 1.373 . S
C1208 H1221 0.929 . S
C1209 C1208 1.373 . S
C1209 C1210 1.396 . S
C1209 C1216 1.403 . S
C1210 C1200 1.476 . S
C1210 N1205 1.318 . S
C1210 C1209 1.396 . S
H1211 C1206 0.929 . S
O1212 Mn1188 2.385 . S
O1212 C1190 1.234 . S
O1213 Mn1188 2.209 . S
O1213 Mn1189 2.215 . S
O1213 C1190 1.283 . S
O1214 Mn1188 2.094 . S
O1214 C1192 1.240 . S
O1215 Mn1189 2.117 . S
O1215 C1192 1.264 . S
C1216 C1209 1.403 . S
C1216 C1217 1.399 . S
C1216 H1222 0.929 1_554 S
C1217 C1197 1.449 . S
C1217 C1216 1.399 . S
C1217 H1223 0.930 1_554 S
H1218 C1198 0.931 . S
H1219 C1199 0.930 . S
H1220 C1207 0.931 . S
H1221 C1208 0.929 . S
H1222 C1216 0.929 1_556 S
H1223 C1217 0.930 1_556 S
Mn1224 O1229 2.095 . S
Mn1224 O1239 2.162 . S
Mn1224 O1240 2.297 . S
Mn1224 O1248 2.385 . S
Mn1224 O1249 2.209 . S
Mn1224 O1250 2.094 . S
Mn1225 O1230 2.121 . S
Mn1225 N1232 2.257 . S
Mn1225 N1241 2.282 . S
Mn1225 O1249 2.215 . S
Mn1225 O1251 2.117 . S
C1226 O1248 1.234 . S
C1226 O1249 1.283 . S
C1227 O1239 1.281 . S
C1227 O1240 1.236 . S
C1228 O1250 1.240 . S
C1228 O1251 1.264 . S
O1229 Mn1224 2.095 . S
O1229 C1238 1.250 . S
O1230 Mn1225 2.121 . S
O1230 C1238 1.258 . S
C1231 N1232 1.326 . S
C1231 C1235 1.460 . S
C1231 H1237 0.929 . S
N1232 Mn1225 2.257 . S
N1232 C1231 1.326 . S
N1232 C1236 1.362 . S
C1233 C1234 1.258 . S
C1233 C1236 1.431 . S
C1233 C1253 1.449 . S
C1234 C1233 1.258 . S
C1234 C1235 1.477 . S
C1234 H1254 0.931 . S
C1235 C1231 1.460 . S
C1235 C1234 1.477 . S
C1235 H1255 0.930 . S
C1236 N1232 1.362 . S
C1236 C1233 1.431 . S
C1236 C1246 1.476 . S
H1237 C1231 0.929 . S
C1238 O1229 1.250 . S
C1238 O1230 1.258 . S
O1239 Mn1224 2.162 . S
O1239 C1227 1.281 . S
O1240 Mn1224 2.297 . S
O1240 C1227 1.236 . S
N1241 Mn1225 2.282 . S
N1241 C1242 1.328 . S
N1241 C1246 1.318 . S
C1242 N1241 1.328 . S
C1242 C1243 1.457 . S
C1242 H1247 0.929 . S
C1243 C1242 1.457 . S
C1243 C1244 1.291 . S
C1243 H1256 0.931 . S
C1244 C1243 1.291 . S
C1244 C1245 1.373 . S
C1244 H1257 0.929 . S
C1245 C1244 1.373 . S
C1245 C1246 1.396 . S
C1245 C1252 1.403 . S
C1246 C1236 1.476 . S
C1246 N1241 1.318 . S
C1246 C1245 1.396 . S
H1247 C1242 0.929 . S
O1248 Mn1224 2.385 . S
O1248 C1226 1.234 . S
O1249 Mn1224 2.209 . S
O1249 Mn1225 2.215 . S
O1249 C1226 1.283 . S
O1250 Mn1224 2.094 . S
O1250 C1228 1.240 . S
O1251 Mn1225 2.117 . S
O1251 C1228 1.264 . S
C1252 C1245 1.403 . S
C1252 C1253 1.399 . S
C1252 H1258 0.929 1_554 S
C1253 C1233 1.449 . S
C1253 C1252 1.399 . S
C1253 H1259 0.930 1_554 S
H1254 C1234 0.931 . S
H1255 C1235 0.930 . S
H1256 C1243 0.931 . S
H1257 C1244 0.929 . S
H1258 C1252 0.929 1_556 S
H1259 C1253 0.930 1_556 S
Mn1260 O1265 2.095 . S
Mn1260 O1275 2.162 . S
Mn1260 O1276 2.297 . S
Mn1260 O1284 2.385 . S
Mn1260 O1285 2.209 . S
Mn1260 O1286 2.094 . S
Mn1261 O1266 2.121 . S
Mn1261 N1268 2.257 . S
Mn1261 N1277 2.282 . S
Mn1261 O1285 2.215 . S
Mn1261 O1287 2.117 . S
C1262 O1284 1.234 . S
C1262 O1285 1.283 . S
C1263 O1275 1.281 . S
C1263 O1276 1.236 . S
C1264 O1286 1.240 . S
C1264 O1287 1.264 . S
O1265 Mn1260 2.095 . S
O1265 C1274 1.250 . S
O1266 Mn1261 2.121 . S
O1266 C1274 1.258 . S
C1267 N1268 1.326 . S
C1267 C1271 1.460 . S
C1267 H1273 0.929 . S
N1268 Mn1261 2.257 . S
N1268 C1267 1.326 . S
N1268 C1272 1.362 . S
C1269 C1270 1.258 . S
C1269 C1272 1.431 . S
C1269 C1289 1.449 . S
C1270 C1269 1.258 . S
C1270 C1271 1.477 . S
C1270 H1290 0.931 . S
C1271 C1267 1.460 . S
C1271 C1270 1.477 . S
C1271 H1291 0.930 . S
C1272 N1268 1.362 . S
C1272 C1269 1.431 . S
C1272 C1282 1.476 . S
H1273 C1267 0.929 . S
C1274 O1265 1.250 . S
C1274 O1266 1.258 . S
O1275 Mn1260 2.162 . S
O1275 C1263 1.281 . S
O1276 Mn1260 2.297 . S
O1276 C1263 1.236 . S
N1277 Mn1261 2.282 . S
N1277 C1278 1.328 . S
N1277 C1282 1.318 . S
C1278 N1277 1.328 . S
C1278 C1279 1.457 . S
C1278 H1283 0.929 . S
C1279 C1278 1.457 . S
C1279 C1280 1.291 . S
C1279 H1292 0.931 . S
C1280 C1279 1.291 . S
C1280 C1281 1.373 . S
C1280 H1293 0.929 . S
C1281 C1280 1.373 . S
C1281 C1282 1.396 . S
C1281 C1288 1.403 . S
C1282 C1272 1.476 . S
C1282 N1277 1.318 . S
C1282 C1281 1.396 . S
H1283 C1278 0.929 . S
O1284 Mn1260 2.385 . S
O1284 C1262 1.234 . S
O1285 Mn1260 2.209 . S
O1285 Mn1261 2.215 . S
O1285 C1262 1.283 . S
O1286 Mn1260 2.094 . S
O1286 C1264 1.240 . S
O1287 Mn1261 2.117 . S
O1287 C1264 1.264 . S
C1288 C1281 1.403 . S
C1288 C1289 1.399 . S
C1288 H1294 0.929 1_554 S
C1289 C1269 1.449 . S
C1289 C1288 1.399 . S
C1289 H1295 0.930 1_554 S
H1290 C1270 0.931 . S
H1291 C1271 0.930 . S
H1292 C1279 0.931 . S
H1293 C1280 0.929 . S
H1294 C1288 0.929 1_556 S
H1295 C1289 0.930 1_556 S
C1296 C1297 1.369 . S
C1296 C1298 1.419 . S
C1296 H1300 0.930 . S
C1297 C1296 1.369 . S
C1297 C1306 1.429 . S
C1298 C1296 1.419 . S
C1298 C1299 1.363 . S
C1298 H1301 0.929 . S
C1299 C1298 1.363 . S
C1299 C1305 1.428 . S
H1300 C1296 0.930 . S
H1301 C1298 0.929 . S
S1302 N1303 1.613 1_554 S
S1302 N1304 1.610 . S
N1303 S1302 1.613 1_556 S
N1303 C1306 1.350 . S
N1304 S1302 1.610 . S
N1304 C1305 1.351 1_554 S
C1305 C1299 1.428 . S
C1305 N1304 1.351 1_556 S
C1305 C1306 1.434 . S
C1306 C1297 1.429 . S
C1306 N1303 1.350 . S
C1306 C1305 1.434 . S
C1307 C1308 1.369 . S
C1307 C1309 1.419 . S
C1307 H1311 0.930 . S
C1308 C1307 1.369 . S
C1308 C1317 1.429 . S
C1309 C1307 1.419 . S
C1309 C1310 1.363 . S
C1309 H1312 0.929 . S
C1310 C1309 1.363 . S
C1310 C1316 1.428 . S
H1311 C1307 0.930 . S
H1312 C1309 0.929 . S
S1313 N1314 1.613 . S
S1313 N1315 1.610 . S
N1314 S1313 1.613 . S
N1314 C1317 1.350 . S
N1315 S1313 1.610 . S
N1315 C1316 1.351 . S
C1316 C1310 1.428 . S
C1316 N1315 1.351 . S
C1316 C1317 1.434 . S
C1317 C1308 1.429 . S
C1317 N1314 1.350 . S
C1317 C1316 1.434 . S
C1318 C1319 1.369 . S
C1318 C1320 1.419 . S
C1318 H1322 0.930 . S
C1319 C1318 1.369 . S
C1319 C1328 1.429 . S
C1320 C1318 1.419 . S
C1320 C1321 1.363 . S
C1320 H1323 0.929 . S
C1321 C1320 1.363 . S
C1321 C1327 1.428 . S
H1322 C1318 0.930 . S
H1323 C1320 0.929 . S
S1324 N1325 1.613 . S
S1324 N1326 1.610 . S
N1325 S1324 1.613 . S
N1325 C1328 1.350 . S
N1326 S1324 1.610 . S
N1326 C1327 1.351 . S
C1327 C1321 1.428 . S
C1327 N1326 1.351 . S
C1327 C1328 1.434 . S
C1328 C1319 1.429 . S
C1328 N1325 1.350 . S
C1328 C1327 1.434 . S
C1329 C1330 1.369 . S
C1329 C1331 1.419 . S
C1329 H1333 0.930 . S
C1330 C1329 1.369 . S
C1330 C1339 1.429 . S
C1331 C1329 1.419 . S
C1331 C1332 1.363 . S
C1331 H1334 0.929 . S
C1332 C1331 1.363 . S
C1332 C1338 1.428 . S
H1333 C1329 0.930 . S
H1334 C1331 0.929 . S
S1335 N1336 1.613 . S
S1335 N1337 1.610 . S
N1336 S1335 1.613 . S
N1336 C1339 1.350 . S
N1337 S1335 1.610 . S
N1337 C1338 1.351 . S
C1338 C1332 1.428 . S
C1338 N1337 1.351 . S
C1338 C1339 1.434 . S
C1339 C1330 1.429 . S
C1339 N1336 1.350 . S
C1339 C1338 1.434 . S
C1340 C1341 1.369 . S
C1340 C1342 1.419 . S
C1340 H1344 0.930 . S
C1341 C1340 1.369 . S
C1341 C1350 1.429 . S
C1342 C1340 1.419 . S
C1342 C1343 1.363 . S
C1342 H1345 0.929 . S
C1343 C1342 1.363 . S
C1343 C1349 1.428 . S
H1344 C1340 0.930 . S
H1345 C1342 0.929 . S
S1346 N1347 1.613 1_545 S
S1346 N1348 1.610 . S
N1347 S1346 1.613 1_565 S
N1347 C1350 1.350 . S
N1348 S1346 1.610 . S
N1348 C1349 1.351 1_545 S
C1349 C1343 1.428 . S
C1349 N1348 1.351 1_565 S
C1349 C1350 1.434 . S
C1350 C1341 1.429 . S
C1350 N1347 1.350 . S
C1350 C1349 1.434 . S
C1351 C1352 1.369 . S
C1351 C1353 1.419 . S
C1351 H1355 0.930 . S
C1352 C1351 1.369 . S
C1352 C1361 1.429 . S
C1353 C1351 1.419 . S
C1353 C1354 1.363 . S
C1353 H1356 0.929 . S
C1354 C1353 1.363 . S
C1354 C1360 1.428 . S
H1355 C1351 0.930 . S
H1356 C1353 0.929 . S
S1357 N1358 1.613 . S
S1357 N1359 1.610 . S
N1358 S1357 1.613 . S
N1358 C1361 1.350 . S
N1359 S1357 1.610 . S
N1359 C1360 1.351 . S
C1360 C1354 1.428 . S
C1360 N1359 1.351 . S
C1360 C1361 1.434 . S
C1361 C1352 1.429 . S
C1361 N1358 1.350 . S
C1361 C1360 1.434 . S
C1362 C1363 1.369 . S
C1362 C1364 1.419 . S
C1362 H1366 0.930 . S
C1363 C1362 1.369 . S
C1363 C1372 1.429 . S
C1364 C1362 1.419 . S
C1364 C1365 1.363 . S
C1364 H1367 0.929 . S
C1365 C1364 1.363 . S
C1365 C1371 1.428 . S
H1366 C1362 0.930 . S
H1367 C1364 0.929 . S
S1368 N1369 1.613 . S
S1368 N1370 1.610 . S
N1369 S1368 1.613 . S
N1369 C1372 1.350 . S
N1370 S1368 1.610 . S
N1370 C1371 1.351 . S
C1371 C1365 1.428 . S
C1371 N1370 1.351 . S
C1371 C1372 1.434 . S
C1372 C1363 1.429 . S
C1372 N1369 1.350 . S
C1372 C1371 1.434 . S
C1373 C1374 1.369 . S
C1373 C1375 1.419 . S
C1373 H1377 0.930 . S
C1374 C1373 1.369 . S
C1374 C1383 1.429 . S
C1375 C1373 1.419 . S
C1375 C1376 1.363 . S
C1375 H1378 0.929 . S
C1376 C1375 1.363 . S
C1376 C1382 1.428 . S
H1377 C1373 0.930 . S
H1378 C1375 0.929 . S
S1379 N1380 1.613 . S
S1379 N1381 1.610 . S
N1380 S1379 1.613 . S
N1380 C1383 1.350 . S
N1381 S1379 1.610 . S
N1381 C1382 1.351 . S
C1382 C1376 1.428 . S
C1382 N1381 1.351 . S
C1382 C1383 1.434 . S
C1383 C1374 1.429 . S
C1383 N1380 1.350 . S
C1383 C1382 1.434 . S
C1384 C1385 1.369 . S
C1384 C1386 1.419 . S
C1384 H1388 0.930 . S
C1385 C1384 1.369 . S
C1385 C1394 1.429 . S
C1386 C1384 1.419 . S
C1386 C1387 1.363 . S
C1386 H1389 0.929 . S
C1387 C1386 1.363 . S
C1387 C1393 1.428 . S
H1388 C1384 0.930 . S
H1389 C1386 0.929 . S
S1390 N1391 1.613 1_655 S
S1390 N1392 1.610 . S
N1391 S1390 1.613 1_455 S
N1391 C1394 1.350 . S
N1392 S1390 1.610 . S
N1392 C1393 1.351 1_655 S
C1393 C1387 1.428 . S
C1393 N1392 1.351 1_455 S
C1393 C1394 1.434 . S
C1394 C1385 1.429 . S
C1394 N1391 1.350 . S
C1394 C1393 1.434 . S
C1395 C1396 1.369 . S
C1395 C1397 1.419 . S
C1395 H1399 0.930 . S
C1396 C1395 1.369 . S
C1396 C1405 1.429 . S
C1397 C1395 1.419 . S
C1397 C1398 1.363 . S
C1397 H1400 0.929 . S
C1398 C1397 1.363 . S
C1398 C1404 1.428 . S
H1399 C1395 0.930 . S
H1400 C1397 0.929 . S
S1401 N1402 1.613 . S
S1401 N1403 1.610 . S
N1402 S1401 1.613 . S
N1402 C1405 1.350 . S
N1403 S1401 1.610 . S
N1403 C1404 1.351 . S
C1404 C1398 1.428 . S
C1404 N1403 1.351 . S
C1404 C1405 1.434 . S
C1405 C1396 1.429 . S
C1405 N1402 1.350 . S
C1405 C1404 1.434 . S
C1406 C1407 1.369 . S
C1406 C1408 1.419 . S
C1406 H1410 0.930 . S
C1407 C1406 1.369 . S
C1407 C1416 1.429 . S
C1408 C1406 1.419 . S
C1408 C1409 1.363 . S
C1408 H1411 0.929 . S
C1409 C1408 1.363 . S
C1409 C1415 1.428 . S
H1410 C1406 0.930 . S
H1411 C1408 0.929 . S
S1412 N1413 1.613 . S
S1412 N1414 1.610 . S
N1413 S1412 1.613 . S
N1413 C1416 1.350 . S
N1414 S1412 1.610 . S
N1414 C1415 1.351 . S
C1415 C1409 1.428 . S
C1415 N1414 1.351 . S
C1415 C1416 1.434 . S
C1416 C1407 1.429 . S
C1416 N1413 1.350 . S
C1416 C1415 1.434 . S
C1417 C1418 1.369 . S
C1417 C1419 1.419 . S
C1417 H1421 0.930 . S
C1418 C1417 1.369 . S
C1418 C1427 1.429 . S
C1419 C1417 1.419 . S
C1419 C1420 1.363 . S
C1419 H1422 0.929 . S
C1420 C1419 1.363 . S
C1420 C1426 1.428 . S
H1421 C1417 0.930 . S
H1422 C1419 0.929 . S
S1423 N1424 1.613 . S
S1423 N1425 1.610 . S
N1424 S1423 1.613 . S
N1424 C1427 1.350 . S
N1425 S1423 1.610 . S
N1425 C1426 1.351 . S
C1426 C1420 1.428 . S
C1426 N1425 1.351 . S
C1426 C1427 1.434 . S
C1427 C1418 1.429 . S
C1427 N1424 1.350 . S
C1427 C1426 1.434 . S
C1428 C1429 1.369 . S
C1428 C1430 1.419 1_455 S
C1428 H1432 0.930 . S
C1429 C1428 1.369 . S
C1429 C1438 1.429 . S
C1430 C1428 1.419 1_655 S
C1430 C1431 1.363 . S
C1430 H1433 0.929 . S
C1431 C1430 1.363 . S
C1431 C1437 1.428 . S
H1432 C1428 0.930 . S
H1433 C1430 0.929 . S
S1434 N1435 1.613 1_655 S
S1434 N1436 1.610 . S
N1435 S1434 1.613 1_455 S
N1435 C1438 1.350 . S
N1436 S1434 1.610 . S
N1436 C1437 1.351 . S
C1437 C1431 1.428 . S
C1437 N1436 1.351 . S
C1437 C1438 1.434 1_655 S
C1438 C1429 1.429 . S
C1438 N1435 1.350 . S
C1438 C1437 1.434 1_455 S
C1439 C1440 1.369 . S
C1439 C1441 1.419 . S
C1439 H1443 0.930 . S
C1440 C1439 1.369 . S
C1440 C1449 1.429 . S
C1441 C1439 1.419 . S
C1441 C1442 1.363 . S
C1441 H1444 0.929 . S
C1442 C1441 1.363 . S
C1442 C1448 1.428 . S
H1443 C1439 0.930 . S
H1444 C1441 0.929 . S
S1445 N1446 1.613 . S
S1445 N1447 1.610 . S
N1446 S1445 1.613 . S
N1446 C1449 1.350 . S
N1447 S1445 1.610 . S
N1447 C1448 1.351 . S
C1448 C1442 1.428 . S
C1448 N1447 1.351 . S
C1448 C1449 1.434 . S
C1449 C1440 1.429 . S
C1449 N1446 1.350 . S
C1449 C1448 1.434 . S
C1450 C1451 1.369 . S
C1450 C1452 1.419 . S
C1450 H1454 0.930 . S
C1451 C1450 1.369 . S
C1451 C1460 1.429 1_565 S
C1452 C1450 1.419 . S
C1452 C1453 1.363 1_565 S
C1452 H1455 0.929 . S
C1453 C1452 1.363 1_545 S
C1453 C1459 1.428 . S
H1454 C1450 0.930 . S
H1455 C1452 0.929 . S
S1456 N1457 1.613 . S
S1456 N1458 1.610 . S
N1457 S1456 1.613 . S
N1457 C1460 1.350 . S
N1458 S1456 1.610 . S
N1458 C1459 1.351 . S
C1459 C1453 1.428 . S
C1459 N1458 1.351 . S
C1459 C1460 1.434 . S
C1460 C1451 1.429 1_545 S
C1460 N1457 1.350 . S
C1460 C1459 1.434 . S
C1461 C1462 1.369 . S
C1461 C1463 1.419 . S
C1461 H1465 0.930 . S
C1462 C1461 1.369 . S
C1462 C1471 1.429 1_565 S
C1463 C1461 1.419 . S
C1463 C1464 1.363 1_565 S
C1463 H1466 0.929 . S
C1464 C1463 1.363 1_545 S
C1464 C1470 1.428 . S
H1465 C1461 0.930 . S
H1466 C1463 0.929 . S
S1467 N1468 1.613 . S
S1467 N1469 1.610 . S
N1468 S1467 1.613 . S
N1468 C1471 1.350 . S
N1469 S1467 1.610 . S
N1469 C1470 1.351 . S
C1470 C1464 1.428 . S
C1470 N1469 1.351 . S
C1470 C1471 1.434 . S
C1471 C1462 1.429 1_545 S
C1471 N1468 1.350 . S
C1471 C1470 1.434 . S
C1472 C1473 1.369 . S
C1472 C1474 1.419 1_455 S
C1472 H1476 0.930 . S
C1473 C1472 1.369 . S
C1473 C1482 1.429 . S
C1474 C1472 1.419 1_655 S
C1474 C1475 1.363 . S
C1474 H1477 0.929 . S
C1475 C1474 1.363 . S
C1475 C1481 1.428 . S
H1476 C1472 0.930 . S
H1477 C1474 0.929 . S
S1478 N1479 1.613 . S
S1478 N1480 1.610 1_455 S
N1479 S1478 1.613 . S
N1479 C1482 1.350 . S
N1480 S1478 1.610 1_655 S
N1480 C1481 1.351 . S
C1481 C1475 1.428 . S
C1481 N1480 1.351 . S
C1481 C1482 1.434 1_655 S
C1482 C1473 1.429 . S
C1482 N1479 1.350 . S
C1482 C1481 1.434 1_455 S
C1483 C1484 1.369 . S
C1483 C1485 1.419 . S
C1483 H1487 0.930 . S
C1484 C1483 1.369 . S
C1484 C1493 1.429 . S
C1485 C1483 1.419 . S
C1485 C1486 1.363 . S
C1485 H1488 0.929 . S
C1486 C1485 1.363 . S
C1486 C1492 1.428 . S
H1487 C1483 0.930 . S
H1488 C1485 0.929 . S
S1489 N1490 1.613 . S
S1489 N1491 1.610 . S
N1490 S1489 1.613 . S
N1490 C1493 1.350 . S
N1491 S1489 1.610 . S
N1491 C1492 1.351 . S
C1492 C1486 1.428 . S
C1492 N1491 1.351 . S
C1492 C1493 1.434 . S
C1493 C1484 1.429 . S
C1493 N1490 1.350 . S
C1493 C1492 1.434 . S
C1494 C1495 1.369 1_554 S
C1494 C1496 1.419 . S
C1494 H1498 0.930 . S
C1495 C1494 1.369 1_556 S
C1495 C1504 1.429 . S
C1496 C1494 1.419 . S
C1496 C1497 1.363 . S
C1496 H1499 0.929 . S
C1497 C1496 1.363 . S
C1497 C1503 1.428 1_554 S
H1498 C1494 0.930 . S
H1499 C1496 0.929 . S
S1500 N1501 1.613 . S
S1500 N1502 1.610 . S
N1501 S1500 1.613 . S
N1501 C1504 1.350 . S
N1502 S1500 1.610 . S
N1502 C1503 1.351 . S
C1503 C1497 1.428 1_556 S
C1503 N1502 1.351 . S
C1503 C1504 1.434 . S
C1504 C1495 1.429 . S
C1504 N1501 1.350 . S
C1504 C1503 1.434 . S
C1505 C1506 1.369 1_554 S
C1505 C1507 1.419 . S
C1505 H1509 0.930 . S
C1506 C1505 1.369 1_556 S
C1506 C1515 1.429 . S
C1507 C1505 1.419 . S
C1507 C1508 1.363 . S
C1507 H1510 0.929 . S
C1508 C1507 1.363 . S
C1508 C1514 1.428 1_554 S
H1509 C1505 0.930 . S
H1510 C1507 0.929 . S
S1511 N1512 1.613 . S
S1511 N1513 1.610 . S
N1512 S1511 1.613 . S
N1512 C1515 1.350 . S
N1513 S1511 1.610 . S
N1513 C1514 1.351 . S
C1514 C1508 1.428 1_556 S
C1514 N1513 1.351 . S
C1514 C1515 1.434 . S
C1515 C1506 1.429 . S
C1515 N1512 1.350 . S
C1515 C1514 1.434 . S
C1516 C1517 1.369 . S
C1516 C1518 1.419 . S
C1516 H1520 0.930 . S
C1517 C1516 1.369 . S
C1517 C1526 1.429 1_556 S
C1518 C1516 1.419 . S
C1518 C1519 1.363 1_556 S
C1518 H1521 0.929 . S
C1519 C1518 1.363 1_554 S
C1519 C1525 1.428 . S
H1520 C1516 0.930 . S
H1521 C1518 0.929 . S
S1522 N1523 1.613 . S
S1522 N1524 1.610 . S
N1523 S1522 1.613 . S
N1523 C1526 1.350 . S
N1524 S1522 1.610 . S
N1524 C1525 1.351 . S
C1525 C1519 1.428 . S
C1525 N1524 1.351 . S
C1525 C1526 1.434 . S
C1526 C1517 1.429 1_554 S
C1526 N1523 1.350 . S
C1526 C1525 1.434 . S
C1527 C1528 1.369 . S
C1527 C1529 1.419 . S
C1527 H1531 0.930 . S
C1528 C1527 1.369 . S
C1528 C1537 1.429 . S
C1529 C1527 1.419 . S
C1529 C1530 1.363 . S
C1529 H1532 0.929 . S
C1530 C1529 1.363 . S
C1530 C1536 1.428 . S
H1531 C1527 0.930 . S
H1532 C1529 0.929 . S
S1533 N1534 1.613 . S
S1533 N1535 1.610 . S
N1534 S1533 1.613 . S
N1534 C1537 1.350 . S
N1535 S1533 1.610 . S
N1535 C1536 1.351 . S
C1536 C1530 1.428 . S
C1536 N1535 1.351 . S
C1536 C1537 1.434 . S
C1537 C1528 1.429 . S
C1537 N1534 1.350 . S
C1537 C1536 1.434 . S
C1538 C1539 1.369 . S
C1538 C1540 1.419 . S
C1538 H1542 0.930 . S
C1539 C1538 1.369 . S
C1539 C1548 1.429 . S
C1540 C1538 1.419 . S
C1540 C1541 1.363 . S
C1540 H1543 0.929 . S
C1541 C1540 1.363 . S
C1541 C1547 1.428 . S
H1542 C1538 0.930 . S
H1543 C1540 0.929 . S
S1544 N1545 1.613 . S
S1544 N1546 1.610 . S
N1545 S1544 1.613 . S
N1545 C1548 1.350 . S
N1546 S1544 1.610 . S
N1546 C1547 1.351 . S
C1547 C1541 1.428 . S
C1547 N1546 1.351 . S
C1547 C1548 1.434 . S
C1548 C1539 1.429 . S
C1548 N1545 1.350 . S
C1548 C1547 1.434 . S
C1549 C1550 1.369 . S
C1549 C1551 1.419 . S
C1549 H1553 0.930 . S
C1550 C1549 1.369 . S
C1550 C1559 1.429 . S
C1551 C1549 1.419 . S
C1551 C1552 1.363 . S
C1551 H1554 0.929 . S
C1552 C1551 1.363 . S
C1552 C1558 1.428 . S
H1553 C1549 0.930 . S
H1554 C1551 0.929 . S
S1555 N1556 1.613 . S
S1555 N1557 1.610 . S
N1556 S1555 1.613 . S
N1556 C1559 1.350 . S
N1557 S1555 1.610 . S
N1557 C1558 1.351 . S
C1558 C1552 1.428 . S
C1558 N1557 1.351 . S
C1558 C1559 1.434 . S
C1559 C1550 1.429 . S
C1559 N1556 1.350 . S
C1559 C1558 1.434 . S
C1560 C1561 1.369 1_556 S
C1560 C1562 1.419 . S
C1560 H1564 0.930 . S
C1561 C1560 1.369 1_554 S
C1561 C1570 1.429 . S
C1562 C1560 1.419 . S
C1562 C1563 1.363 . S
C1562 H1565 0.929 . S
C1563 C1562 1.363 . S
C1563 C1569 1.428 1_556 S
H1564 C1560 0.930 . S
H1565 C1562 0.929 . S
S1566 N1567 1.613 . S
S1566 N1568 1.610 . S
N1567 S1566 1.613 . S
N1567 C1570 1.350 . S
N1568 S1566 1.610 . S
N1568 C1569 1.351 . S
C1569 C1563 1.428 1_554 S
C1569 N1568 1.351 . S
C1569 C1570 1.434 . S
C1570 C1561 1.429 . S
C1570 N1567 1.350 . S
C1570 C1569 1.434 . S
C1571 C1572 1.369 . S
C1571 C1573 1.419 . S
C1571 H1575 0.930 . S
C1572 C1571 1.369 . S
C1572 C1581 1.429 1_556 S
C1573 C1571 1.419 . S
C1573 C1574 1.363 1_556 S
C1573 H1576 0.929 . S
C1574 C1573 1.363 1_554 S
C1574 C1580 1.428 . S
H1575 C1571 0.930 . S
H1576 C1573 0.929 . S
S1577 N1578 1.613 . S
S1577 N1579 1.610 . S
N1578 S1577 1.613 . S
N1578 C1581 1.350 . S
N1579 S1577 1.610 . S
N1579 C1580 1.351 . S
C1580 C1574 1.428 . S
C1580 N1579 1.351 . S
C1580 C1581 1.434 . S
C1581 C1572 1.429 1_554 S
C1581 N1578 1.350 . S
C1581 C1580 1.434 . S
C1582 C1583 1.369 1_556 S
C1582 C1584 1.419 . S
C1582 H1586 0.930 1_556 S
C1583 C1582 1.369 1_554 S
C1583 C1592 1.426 1_554 S
C1584 C1582 1.419 . S
C1584 C1585 1.363 . S
C1584 H1587 0.929 . S
C1585 C1584 1.363 . S
C1585 C1591 1.428 . S
H1586 C1582 0.930 1_554 S
H1587 C1584 0.929 . S
S1588 N1589 1.613 1_556 S
S1588 N1590 1.610 . S
N1589 S1588 1.613 1_554 S
N1589 C1592 1.346 1_554 S
N1590 S1588 1.610 . S
N1590 C1591 1.351 . S
C1591 C1585 1.428 . S
C1591 N1590 1.351 . S
C1591 C1592 1.440 . S
C1592 C1583 1.426 1_556 S
C1592 N1589 1.346 1_556 S
C1592 C1591 1.440 . S
C1593 C1594 1.369 . S
C1593 C1595 1.419 . S
C1593 H1597 0.930 . S
C1594 C1593 1.369 . S
C1594 C1603 1.429 . S
C1595 C1593 1.419 . S
C1595 C1596 1.363 . S
C1595 H1598 0.929 . S
C1596 C1595 1.363 . S
C1596 C1602 1.428 . S
H1597 C1593 0.930 . S
H1598 C1595 0.929 . S
S1599 N1600 1.613 . S
S1599 N1601 1.610 . S
N1600 S1599 1.613 . S
N1600 C1603 1.350 . S
N1601 S1599 1.610 . S
N1601 C1602 1.351 . S
C1602 C1596 1.428 . S
C1602 N1601 1.351 . S
C1602 C1603 1.434 . S
C1603 C1594 1.429 . S
C1603 N1600 1.350 . S
C1603 C1602 1.434 . S
C1604 C1605 1.369 . S
C1604 C1606 1.419 . S
C1604 H1608 0.930 . S
C1605 C1604 1.369 . S
C1605 C1614 1.429 . S
C1606 C1604 1.419 . S
C1606 C1607 1.363 . S
C1606 H1609 0.929 . S
C1607 C1606 1.363 . S
C1607 C1613 1.428 . S
H1608 C1604 0.930 . S
H1609 C1606 0.929 . S
S1610 N1611 1.613 . S
S1610 N1612 1.610 . S
N1611 S1610 1.613 . S
N1611 C1614 1.350 . S
N1612 S1610 1.610 . S
N1612 C1613 1.351 . S
C1613 C1607 1.428 . S
C1613 N1612 1.351 . S
C1613 C1614 1.434 . S
C1614 C1605 1.429 . S
C1614 N1611 1.350 . S
C1614 C1613 1.434 . S
C1615 C1616 1.369 . S
C1615 C1617 1.419 . S
C1615 H1619 0.930 . S
C1616 C1615 1.369 . S
C1616 C1625 1.429 . S
C1617 C1615 1.419 . S
C1617 C1618 1.363 . S
C1617 H1620 0.929 . S
C1618 C1617 1.363 . S
C1618 C1624 1.428 . S
H1619 C1615 0.930 . S
H1620 C1617 0.929 . S
S1621 N1622 1.613 . S
S1621 N1623 1.610 . S
N1622 S1621 1.613 . S
N1622 C1625 1.350 . S
N1623 S1621 1.610 . S
N1623 C1624 1.351 . S
C1624 C1618 1.428 . S
C1624 N1623 1.351 . S
C1624 C1625 1.434 . S
C1625 C1616 1.429 . S
C1625 N1622 1.350 . S
C1625 C1624 1.434 . S
C1626 C1627 1.369 . S
C1626 C1628 1.419 . S
C1626 H1630 0.930 . S
C1627 C1626 1.369 . S
C1627 C1636 1.429 . S
C1628 C1626 1.419 . S
C1628 C1629 1.363 . S
C1628 H1631 0.929 . S
C1629 C1628 1.363 . S
C1629 C1635 1.428 . S
H1630 C1626 0.930 . S
H1631 C1628 0.929 . S
S1632 N1633 1.613 . S
S1632 N1634 1.610 . S
N1633 S1632 1.613 . S
N1633 C1636 1.350 . S
N1634 S1632 1.610 . S
N1634 C1635 1.351 . S
C1635 C1629 1.428 . S
C1635 N1634 1.351 . S
C1635 C1636 1.434 . S
C1636 C1627 1.429 . S
C1636 N1633 1.350 . S
C1636 C1635 1.434 . S
C1637 C1638 1.369 . S
C1637 C1639 1.419 . S
C1637 H1641 0.930 . S
C1638 C1637 1.369 . S
C1638 C1647 1.429 . S
C1639 C1637 1.419 . S
C1639 C1640 1.363 . S
C1639 H1642 0.929 . S
C1640 C1639 1.363 . S
C1640 C1646 1.428 . S
H1641 C1637 0.930 . S
H1642 C1639 0.929 . S
S1643 N1644 1.613 . S
S1643 N1645 1.610 . S
N1644 S1643 1.613 . S
N1644 C1647 1.350 . S
N1645 S1643 1.610 . S
N1645 C1646 1.351 . S
C1646 C1640 1.428 . S
C1646 N1645 1.351 . S
C1646 C1647 1.434 . S
C1647 C1638 1.429 . S
C1647 N1644 1.350 . S
C1647 C1646 1.434 . S
C1648 C1649 1.369 . S
C1648 C1650 1.419 . S
C1648 H1652 0.930 . S
C1649 C1648 1.369 . S
C1649 C1658 1.429 . S
C1650 C1648 1.419 . S
C1650 C1651 1.363 . S
C1650 H1653 0.929 . S
C1651 C1650 1.363 . S
C1651 C1657 1.428 . S
H1652 C1648 0.930 . S
H1653 C1650 0.929 . S
S1654 N1655 1.613 . S
S1654 N1656 1.610 . S
N1655 S1654 1.613 . S
N1655 C1658 1.350 . S
N1656 S1654 1.610 . S
N1656 C1657 1.351 . S
C1657 C1651 1.428 . S
C1657 N1656 1.351 . S
C1657 C1658 1.434 . S
C1658 C1649 1.429 . S
C1658 N1655 1.350 . S
C1658 C1657 1.434 . S
C1659 C1660 1.369 . S
C1659 C1661 1.419 . S
C1659 H1663 0.930 . S
C1660 C1659 1.369 . S
C1660 C1669 1.429 . S
C1661 C1659 1.419 . S
C1661 C1662 1.363 . S
C1661 H1664 0.929 . S
C1662 C1661 1.363 . S
C1662 C1668 1.428 . S
H1663 C1659 0.930 . S
H1664 C1661 0.929 . S
S1665 N1666 1.613 . S
S1665 N1667 1.610 . S
N1666 S1665 1.613 . S
N1666 C1669 1.350 . S
N1667 S1665 1.610 . S
N1667 C1668 1.351 . S
C1668 C1662 1.428 . S
C1668 N1667 1.351 . S
C1668 C1669 1.434 . S
C1669 C1660 1.429 . S
C1669 N1666 1.350 . S
C1669 C1668 1.434 . S
C1670 C1671 1.369 . S
C1670 C1672 1.419 . S
C1670 H1674 0.930 . S
C1671 C1670 1.369 . S
C1671 C1680 1.429 . S
C1672 C1670 1.419 . S
C1672 C1673 1.363 . S
C1672 H1675 0.929 . S
C1673 C1672 1.363 . S
C1673 C1679 1.428 . S
H1674 C1670 0.930 . S
H1675 C1672 0.929 . S
S1676 N1677 1.613 . S
S1676 N1678 1.610 . S
N1677 S1676 1.613 . S
N1677 C1680 1.350 . S
N1678 S1676 1.610 . S
N1678 C1679 1.351 . S
C1679 C1673 1.428 . S
C1679 N1678 1.351 . S
C1679 C1680 1.434 . S
C1680 C1671 1.429 . S
C1680 N1677 1.350 . S
C1680 C1679 1.434 . S
C1681 C1682 1.369 . S
C1681 C1683 1.419 . S
C1681 H1685 0.930 . S
C1682 C1681 1.369 . S
C1682 C1691 1.429 . S
C1683 C1681 1.419 . S
C1683 C1684 1.363 . S
C1683 H1686 0.929 . S
C1684 C1683 1.363 . S
C1684 C1690 1.428 . S
H1685 C1681 0.930 . S
H1686 C1683 0.929 . S
S1687 N1688 1.613 . S
S1687 N1689 1.610 . S
N1688 S1687 1.613 . S
N1688 C1691 1.350 . S
N1689 S1687 1.610 . S
N1689 C1690 1.351 . S
C1690 C1684 1.428 . S
C1690 N1689 1.351 . S
C1690 C1691 1.434 . S
C1691 C1682 1.429 . S
C1691 N1688 1.350 . S
C1691 C1690 1.434 . S
C1692 C1693 1.369 . S
C1692 C1694 1.419 . S
C1692 H1696 0.930 . S
C1693 C1692 1.369 . S
C1693 C1702 1.429 . S
C1694 C1692 1.419 . S
C1694 C1695 1.363 . S
C1694 H1697 0.929 . S
C1695 C1694 1.363 . S
C1695 C1701 1.428 . S
H1696 C1692 0.930 . S
H1697 C1694 0.929 . S
S1698 N1699 1.613 . S
S1698 N1700 1.610 . S
N1699 S1698 1.613 . S
N1699 C1702 1.350 . S
N1700 S1698 1.610 . S
N1700 C1701 1.351 . S
C1701 C1695 1.428 . S
C1701 N1700 1.351 . S
C1701 C1702 1.434 . S
C1702 C1693 1.429 . S
C1702 N1699 1.350 . S
C1702 C1701 1.434 . S
C1703 C1704 1.369 . S
C1703 C1705 1.419 . S
C1703 H1707 0.930 . S
C1704 C1703 1.369 . S
C1704 C1713 1.429 . S
C1705 C1703 1.419 . S
C1705 C1706 1.363 . S
C1705 H1708 0.929 . S
C1706 C1705 1.363 . S
C1706 C1712 1.428 . S
H1707 C1703 0.930 . S
H1708 C1705 0.929 . S
S1709 N1710 1.613 . S
S1709 N1711 1.610 . S
N1710 S1709 1.613 . S
N1710 C1713 1.350 . S
N1711 S1709 1.610 . S
N1711 C1712 1.351 . S
C1712 C1706 1.428 . S
C1712 N1711 1.351 . S
C1712 C1713 1.434 . S
C1713 C1704 1.429 . S
C1713 N1710 1.350 . S
C1713 C1712 1.434 . S
C1714 C1715 1.369 . S
C1714 C1716 1.419 . S
C1714 H1718 0.930 . S
C1715 C1714 1.369 . S
C1715 C1724 1.429 . S
C1716 C1714 1.419 . S
C1716 C1717 1.363 . S
C1716 H1719 0.929 . S
C1717 C1716 1.363 . S
C1717 C1723 1.428 . S
H1718 C1714 0.930 . S
H1719 C1716 0.929 . S
S1720 N1721 1.613 . S
S1720 N1722 1.610 . S
N1721 S1720 1.613 . S
N1721 C1724 1.350 . S
N1722 S1720 1.610 . S
N1722 C1723 1.351 . S
C1723 C1717 1.428 . S
C1723 N1722 1.351 . S
C1723 C1724 1.434 . S
C1724 C1715 1.429 . S
C1724 N1721 1.350 . S
C1724 C1723 1.434 . S
C1725 C1726 1.369 . S
C1725 C1727 1.419 . S
C1725 H1729 0.930 . S
C1726 C1725 1.369 . S
C1726 C1735 1.429 . S
C1727 C1725 1.419 . S
C1727 C1728 1.363 . S
C1727 H1730 0.929 . S
C1728 C1727 1.363 . S
C1728 C1734 1.428 . S
H1729 C1725 0.930 . S
H1730 C1727 0.929 . S
S1731 N1732 1.613 . S
S1731 N1733 1.610 . S
N1732 S1731 1.613 . S
N1732 C1735 1.350 . S
N1733 S1731 1.610 . S
N1733 C1734 1.351 . S
C1734 C1728 1.428 . S
C1734 N1733 1.351 . S
C1734 C1735 1.434 . S
C1735 C1726 1.429 . S
C1735 N1732 1.350 . S
C1735 C1734 1.434 . S
C1736 C1737 1.369 . S
C1736 C1738 1.419 . S
C1736 H1740 0.930 . S
C1737 C1736 1.369 . S
C1737 C1746 1.429 . S
C1738 C1736 1.419 . S
C1738 C1739 1.363 . S
C1738 H1741 0.929 . S
C1739 C1738 1.363 . S
C1739 C1745 1.428 . S
H1740 C1736 0.930 . S
H1741 C1738 0.929 . S
S1742 N1743 1.613 . S
S1742 N1744 1.610 . S
N1743 S1742 1.613 . S
N1743 C1746 1.350 . S
N1744 S1742 1.610 . S
N1744 C1745 1.351 . S
C1745 C1739 1.428 . S
C1745 N1744 1.351 . S
C1745 C1746 1.434 . S
C1746 C1737 1.429 . S
C1746 N1743 1.350 . S
C1746 C1745 1.434 . S
C1747 C1748 1.369 . S
C1747 C1749 1.419 . S
C1747 H1751 0.930 . S
C1748 C1747 1.369 . S
C1748 C1757 1.429 . S
C1749 C1747 1.419 . S
C1749 C1750 1.363 . S
C1749 H1752 0.929 . S
C1750 C1749 1.363 . S
C1750 C1756 1.428 . S
H1751 C1747 0.930 . S
H1752 C1749 0.929 . S
S1753 N1754 1.613 . S
S1753 N1755 1.610 . S
N1754 S1753 1.613 . S
N1754 C1757 1.350 . S
N1755 S1753 1.610 . S
N1755 C1756 1.351 . S
C1756 C1750 1.428 . S
C1756 N1755 1.351 . S
C1756 C1757 1.434 . S
C1757 C1748 1.429 . S
C1757 N1754 1.350 . S
C1757 C1756 1.434 . S
C1758 C1759 1.369 . S
C1758 C1760 1.419 . S
C1758 H1762 0.930 . S
C1759 C1758 1.369 . S
C1759 C1768 1.429 . S
C1760 C1758 1.419 . S
C1760 C1761 1.363 . S
C1760 H1763 0.929 . S
C1761 C1760 1.363 . S
C1761 C1767 1.428 . S
H1762 C1758 0.930 . S
H1763 C1760 0.929 . S
S1764 N1765 1.613 . S
S1764 N1766 1.610 . S
N1765 S1764 1.613 . S
N1765 C1768 1.350 . S
N1766 S1764 1.610 . S
N1766 C1767 1.351 . S
C1767 C1761 1.428 . S
C1767 N1766 1.351 . S
C1767 C1768 1.434 . S
C1768 C1759 1.429 . S
C1768 N1765 1.350 . S
C1768 C1767 1.434 . S
C1769 C1770 1.369 . S
C1769 C1771 1.419 . S
C1769 H1773 0.930 . S
C1770 C1769 1.369 . S
C1770 C1779 1.429 . S
C1771 C1769 1.419 . S
C1771 C1772 1.363 . S
C1771 H1774 0.929 . S
C1772 C1771 1.363 . S
C1772 C1778 1.428 . S
H1773 C1769 0.930 . S
H1774 C1771 0.929 . S
S1775 N1776 1.613 . S
S1775 N1777 1.610 . S
N1776 S1775 1.613 . S
N1776 C1779 1.350 . S
N1777 S1775 1.610 . S
N1777 C1778 1.351 . S
C1778 C1772 1.428 . S
C1778 N1777 1.351 . S
C1778 C1779 1.434 . S
C1779 C1770 1.429 . S
C1779 N1776 1.350 . S
C1779 C1778 1.434 . S
C1780 C1781 1.369 . S
C1780 C1782 1.419 . S
C1780 H1784 0.930 . S
C1781 C1780 1.369 . S
C1781 C1790 1.429 . S
C1782 C1780 1.419 . S
C1782 C1783 1.363 . S
C1782 H1785 0.929 . S
C1783 C1782 1.363 . S
C1783 C1789 1.428 . S
H1784 C1780 0.930 . S
H1785 C1782 0.929 . S
S1786 N1787 1.613 . S
S1786 N1788 1.610 . S
N1787 S1786 1.613 . S
N1787 C1790 1.350 . S
N1788 S1786 1.610 . S
N1788 C1789 1.351 . S
C1789 C1783 1.428 . S
C1789 N1788 1.351 . S
C1789 C1790 1.434 . S
C1790 C1781 1.429 . S
C1790 N1787 1.350 . S
C1790 C1789 1.434 . S
C1791 C1792 1.369 . S
C1791 C1793 1.419 . S
C1791 H1795 0.930 . S
C1792 C1791 1.369 . S
C1792 C1801 1.429 . S
C1793 C1791 1.419 . S
C1793 C1794 1.363 . S
C1793 H1796 0.929 . S
C1794 C1793 1.363 . S
C1794 C1800 1.428 . S
H1795 C1791 0.930 . S
H1796 C1793 0.929 . S
S1797 N1798 1.613 . S
S1797 N1799 1.610 . S
N1798 S1797 1.613 . S
N1798 C1801 1.350 . S
N1799 S1797 1.610 . S
N1799 C1800 1.351 . S
C1800 C1794 1.428 . S
C1800 N1799 1.351 . S
C1800 C1801 1.434 . S
C1801 C1792 1.429 . S
C1801 N1798 1.350 . S
C1801 C1800 1.434 . S
C1802 C1803 1.369 . S
C1802 C1804 1.419 . S
C1802 H1806 0.930 . S
C1803 C1802 1.369 . S
C1803 C1812 1.429 . S
C1804 C1802 1.419 . S
C1804 C1805 1.363 . S
C1804 H1807 0.929 . S
C1805 C1804 1.363 . S
C1805 C1811 1.428 . S
H1806 C1802 0.930 . S
H1807 C1804 0.929 . S
S1808 N1809 1.613 . S
S1808 N1810 1.610 . S
N1809 S1808 1.613 . S
N1809 C1812 1.350 . S
N1810 S1808 1.610 . S
N1810 C1811 1.351 . S
C1811 C1805 1.428 . S
C1811 N1810 1.351 . S
C1811 C1812 1.434 . S
C1812 C1803 1.429 . S
C1812 N1809 1.350 . S
C1812 C1811 1.434 . S
C1813 C1814 1.369 . S
C1813 C1815 1.419 . S
C1813 H1817 0.930 . S
C1814 C1813 1.369 . S
C1814 C1823 1.429 . S
C1815 C1813 1.419 . S
C1815 C1816 1.363 . S
C1815 H1818 0.929 . S
C1816 C1815 1.363 . S
C1816 C1822 1.428 . S
H1817 C1813 0.930 . S
H1818 C1815 0.929 . S
S1819 N1820 1.613 . S
S1819 N1821 1.610 . S
N1820 S1819 1.613 . S
N1820 C1823 1.350 . S
N1821 S1819 1.610 . S
N1821 C1822 1.351 . S
C1822 C1816 1.428 . S
C1822 N1821 1.351 . S
C1822 C1823 1.434 . S
C1823 C1814 1.429 . S
C1823 N1820 1.350 . S
C1823 C1822 1.434 . S
C1824 C1825 1.369 . S
C1824 C1826 1.419 . S
C1824 H1828 0.930 . S
C1825 C1824 1.369 . S
C1825 C1834 1.429 . S
C1826 C1824 1.419 . S
C1826 C1827 1.363 . S
C1826 H1829 0.929 . S
C1827 C1826 1.363 . S
C1827 C1833 1.428 . S
H1828 C1824 0.930 . S
H1829 C1826 0.929 . S
S1830 N1831 1.613 . S
S1830 N1832 1.610 . S
N1831 S1830 1.613 . S
N1831 C1834 1.350 . S
N1832 S1830 1.610 . S
N1832 C1833 1.351 . S
C1833 C1827 1.428 . S
C1833 N1832 1.351 . S
C1833 C1834 1.434 . S
C1834 C1825 1.429 . S
C1834 N1831 1.350 . S
C1834 C1833 1.434 . S
C1835 C1836 1.369 . S
C1835 C1837 1.419 . S
C1835 H1839 0.930 . S
C1836 C1835 1.369 . S
C1836 C1845 1.429 . S
C1837 C1835 1.419 . S
C1837 C1838 1.363 . S
C1837 H1840 0.929 . S
C1838 C1837 1.363 . S
C1838 C1844 1.428 . S
H1839 C1835 0.930 . S
H1840 C1837 0.929 . S
S1841 N1842 1.613 . S
S1841 N1843 1.610 . S
N1842 S1841 1.613 . S
N1842 C1845 1.350 . S
N1843 S1841 1.610 . S
N1843 C1844 1.351 . S
C1844 C1838 1.428 . S
C1844 N1843 1.351 . S
C1844 C1845 1.434 . S
C1845 C1836 1.429 . S
C1845 N1842 1.350 . S
C1845 C1844 1.434 . S
C1846 C1847 1.369 . S
C1846 C1848 1.419 . S
C1846 H1850 0.930 . S
C1847 C1846 1.369 . S
C1847 C1856 1.429 . S
C1848 C1846 1.419 . S
C1848 C1849 1.363 . S
C1848 H1851 0.929 . S
C1849 C1848 1.363 . S
C1849 C1855 1.428 . S
H1850 C1846 0.930 . S
H1851 C1848 0.929 . S
S1852 N1853 1.613 . S
S1852 N1854 1.610 . S
N1853 S1852 1.613 . S
N1853 C1856 1.350 . S
N1854 S1852 1.610 . S
N1854 C1855 1.351 . S
C1855 C1849 1.428 . S
C1855 N1854 1.351 . S
C1855 C1856 1.434 . S
C1856 C1847 1.429 . S
C1856 N1853 1.350 . S
C1856 C1855 1.434 . S
C1857 C1858 1.369 . S
C1857 C1859 1.419 . S
C1857 H1861 0.930 . S
C1858 C1857 1.369 . S
C1858 C1867 1.429 . S
C1859 C1857 1.419 . S
C1859 C1860 1.363 . S
C1859 H1862 0.929 . S
C1860 C1859 1.363 . S
C1860 C1866 1.428 . S
H1861 C1857 0.930 . S
H1862 C1859 0.929 . S
S1863 N1864 1.613 . S
S1863 N1865 1.610 . S
N1864 S1863 1.613 . S
N1864 C1867 1.350 . S
N1865 S1863 1.610 . S
N1865 C1866 1.351 . S
C1866 C1860 1.428 . S
C1866 N1865 1.351 . S
C1866 C1867 1.434 . S
C1867 C1858 1.429 . S
C1867 N1864 1.350 . S
C1867 C1866 1.434 . S
C1868 C1869 1.369 . S
C1868 C1870 1.419 . S
C1868 H1872 0.930 . S
C1869 C1868 1.369 . S
C1869 C1878 1.429 . S
C1870 C1868 1.419 . S
C1870 C1871 1.363 . S
C1870 H1873 0.929 . S
C1871 C1870 1.363 . S
C1871 C1877 1.428 . S
H1872 C1868 0.930 . S
H1873 C1870 0.929 . S
S1874 N1875 1.613 . S
S1874 N1876 1.610 . S
N1875 S1874 1.613 . S
N1875 C1878 1.350 . S
N1876 S1874 1.610 . S
N1876 C1877 1.351 . S
C1877 C1871 1.428 . S
C1877 N1876 1.351 . S
C1877 C1878 1.434 . S
C1878 C1869 1.429 . S
C1878 N1875 1.350 . S
C1878 C1877 1.434 . S
C1879 C1880 1.369 . S
C1879 C1881 1.419 . S
C1879 H1883 0.930 . S
C1880 C1879 1.369 . S
C1880 C1889 1.429 . S
C1881 C1879 1.419 . S
C1881 C1882 1.363 . S
C1881 H1884 0.929 . S
C1882 C1881 1.363 . S
C1882 C1888 1.428 . S
H1883 C1879 0.930 . S
H1884 C1881 0.929 . S
S1885 N1886 1.613 . S
S1885 N1887 1.610 . S
N1886 S1885 1.613 . S
N1886 C1889 1.350 . S
N1887 S1885 1.610 . S
N1887 C1888 1.351 . S
C1888 C1882 1.428 . S
C1888 N1887 1.351 . S
C1888 C1889 1.434 . S
C1889 C1880 1.429 . S
C1889 N1886 1.350 . S
C1889 C1888 1.434 . S
C1890 C1891 1.369 . S
C1890 C1892 1.419 . S
C1890 H1894 0.930 . S
C1891 C1890 1.369 . S
C1891 C1900 1.429 . S
C1892 C1890 1.419 . S
C1892 C1893 1.363 . S
C1892 H1895 0.929 . S
C1893 C1892 1.363 . S
C1893 C1899 1.428 . S
H1894 C1890 0.930 . S
H1895 C1892 0.929 . S
S1896 N1897 1.613 . S
S1896 N1898 1.610 . S
N1897 S1896 1.613 . S
N1897 C1900 1.350 . S
N1898 S1896 1.610 . S
N1898 C1899 1.351 . S
C1899 C1893 1.428 . S
C1899 N1898 1.351 . S
C1899 C1900 1.434 . S
C1900 C1891 1.429 . S
C1900 N1897 1.350 . S
C1900 C1899 1.434 . S
C1901 C1902 1.369 1_565 S
C1901 C1903 1.419 . S
C1901 H1905 0.930 . S
C1902 C1901 1.369 1_545 S
C1902 C1911 1.429 . S
C1903 C1901 1.419 . S
C1903 C1904 1.363 . S
C1903 H1906 0.929 . S
C1904 C1903 1.363 . S
C1904 C1910 1.428 1_565 S
H1905 C1901 0.930 . S
H1906 C1903 0.929 . S
S1907 N1908 1.613 . S
S1907 N1909 1.610 . S
N1908 S1907 1.613 . S
N1908 C1911 1.350 . S
N1909 S1907 1.610 . S
N1909 C1910 1.351 . S
C1910 C1904 1.428 1_545 S
C1910 N1909 1.351 . S
C1910 C1911 1.434 . S
C1911 C1902 1.429 . S
C1911 N1908 1.350 . S
C1911 C1910 1.434 . S
C1912 C1913 1.369 . S
C1912 C1914 1.419 . S
C1912 H1916 0.930 . S
C1913 C1912 1.369 . S
C1913 C1922 1.429 1_455 S
C1914 C1912 1.419 . S
C1914 C1915 1.363 1_455 S
C1914 H1917 0.929 . S
C1915 C1914 1.363 1_655 S
C1915 C1921 1.428 . S
H1916 C1912 0.930 . S
H1917 C1914 0.929 . S
S1918 N1919 1.613 . S
S1918 N1920 1.610 . S
N1919 S1918 1.613 . S
N1919 C1922 1.350 . S
N1920 S1918 1.610 . S
N1920 C1921 1.351 . S
C1921 C1915 1.428 . S
C1921 N1920 1.351 . S
C1921 C1922 1.434 . S
C1922 C1913 1.429 1_655 S
C1922 N1919 1.350 . S
C1922 C1921 1.434 . S
C1923 C1924 1.369 . S
C1923 C1925 1.419 . S
C1923 H1927 0.930 . S
C1924 C1923 1.369 . S
C1924 C1933 1.429 . S
C1925 C1923 1.419 . S
C1925 C1926 1.363 . S
C1925 H1928 0.929 . S
C1926 C1925 1.363 . S
C1926 C1932 1.428 . S
H1927 C1923 0.930 . S
H1928 C1925 0.929 . S
S1929 N1930 1.613 . S
S1929 N1931 1.610 . S
N1930 S1929 1.613 . S
N1930 C1933 1.350 . S
N1931 S1929 1.610 . S
N1931 C1932 1.351 . S
C1932 C1926 1.428 . S
C1932 N1931 1.351 . S
C1932 C1933 1.434 . S
C1933 C1924 1.429 . S
C1933 N1930 1.350 . S
C1933 C1932 1.434 . S
C1934 C1935 1.369 1_565 S
C1934 C1936 1.419 . S
C1934 H1938 0.930 . S
C1935 C1934 1.369 1_545 S
C1935 C1944 1.429 . S
C1936 C1934 1.419 . S
C1936 C1937 1.363 . S
C1936 H1939 0.929 . S
C1937 C1936 1.363 . S
C1937 C1943 1.428 1_565 S
H1938 C1934 0.930 . S
H1939 C1936 0.929 . S
S1940 N1941 1.613 . S
S1940 N1942 1.610 . S
N1941 S1940 1.613 . S
N1941 C1944 1.350 . S
N1942 S1940 1.610 . S
N1942 C1943 1.351 . S
C1943 C1937 1.428 1_545 S
C1943 N1942 1.351 . S
C1943 C1944 1.434 . S
C1944 C1935 1.429 . S
C1944 N1941 1.350 . S
C1944 C1943 1.434 . S
C1945 C1946 1.369 . S
C1945 C1947 1.417 1_655 S
C1945 H1949 0.930 . S
C1946 C1945 1.369 . S
C1946 C1955 1.429 . S
C1947 C1945 1.417 1_455 S
C1947 C1948 1.369 . S
C1947 H1950 0.925 . S
C1948 C1947 1.369 . S
C1948 C1954 1.428 . S
H1949 C1945 0.930 . S
H1950 C1947 0.925 . S
S1951 N1952 1.613 1_455 S
S1951 N1953 1.610 . S
N1952 S1951 1.613 1_655 S
N1952 C1955 1.350 . S
N1953 S1951 1.610 . S
N1953 C1954 1.351 . S
C1954 C1948 1.428 . S
C1954 N1953 1.351 . S
C1954 C1955 1.434 1_455 S
C1955 C1946 1.429 . S
C1955 N1952 1.350 . S
C1955 C1954 1.434 1_655 S
C1956 C1957 1.369 . S
C1956 C1958 1.419 . S
C1956 H1960 0.930 . S
C1957 C1956 1.369 . S
C1957 C1966 1.429 . S
C1958 C1956 1.419 . S
C1958 C1959 1.363 . S
C1958 H1961 0.929 . S
C1959 C1958 1.363 . S
C1959 C1965 1.428 . S
H1960 C1956 0.930 . S
H1961 C1958 0.929 . S
S1962 N1963 1.613 . S
S1962 N1964 1.610 . S
N1963 S1962 1.613 . S
N1963 C1966 1.350 . S
N1964 S1962 1.610 . S
N1964 C1965 1.351 . S
C1965 C1959 1.428 . S
C1965 N1964 1.351 . S
C1965 C1966 1.434 . S
C1966 C1957 1.429 . S
C1966 N1963 1.350 . S
C1966 C1965 1.434 . S
C1967 C1968 1.369 . S
C1967 C1969 1.419 . S
C1967 H1971 0.930 . S
C1968 C1967 1.369 . S
C1968 C1977 1.429 . S
C1969 C1967 1.419 . S
C1969 C1970 1.363 . S
C1969 H1972 0.929 . S
C1970 C1969 1.363 . S
C1970 C1976 1.428 . S
H1971 C1967 0.930 . S
H1972 C1969 0.929 . S
S1973 N1974 1.613 . S
S1973 N1975 1.610 . S
N1974 S1973 1.613 . S
N1974 C1977 1.350 . S
N1975 S1973 1.610 . S
N1975 C1976 1.351 . S
C1976 C1970 1.428 . S
C1976 N1975 1.351 . S
C1976 C1977 1.434 . S
C1977 C1968 1.429 . S
C1977 N1974 1.350 . S
C1977 C1976 1.434 . S
C1978 C1979 1.369 . S
C1978 C1980 1.419 . S
C1978 H1982 0.930 . S
C1979 C1978 1.369 . S
C1979 C1988 1.429 . S
C1980 C1978 1.419 . S
C1980 C1981 1.363 . S
C1980 H1983 0.929 . S
C1981 C1980 1.363 . S
C1981 C1987 1.428 . S
H1982 C1978 0.930 . S
H1983 C1980 0.929 . S
S1984 N1985 1.613 . S
S1984 N1986 1.610 . S
N1985 S1984 1.613 . S
N1985 C1988 1.350 . S
N1986 S1984 1.610 . S
N1986 C1987 1.351 . S
C1987 C1981 1.428 . S
C1987 N1986 1.351 . S
C1987 C1988 1.434 . S
C1988 C1979 1.429 . S
C1988 N1985 1.350 . S
C1988 C1987 1.434 . S
C1989 C1990 1.369 . S
C1989 C1991 1.419 . S
C1989 H1993 0.930 . S
C1990 C1989 1.369 . S
C1990 C1999 1.429 . S
C1991 C1989 1.419 . S
C1991 C1992 1.363 . S
C1991 H1994 0.929 . S
C1992 C1991 1.363 . S
C1992 C1998 1.428 . S
H1993 C1989 0.930 . S
H1994 C1991 0.929 . S
S1995 N1996 1.613 . S
S1995 N1997 1.610 . S
N1996 S1995 1.613 . S
N1996 C1999 1.350 . S
N1997 S1995 1.610 . S
N1997 C1998 1.351 . S
C1998 C1992 1.428 . S
C1998 N1997 1.351 . S
C1998 C1999 1.434 . S
C1999 C1990 1.429 . S
C1999 N1996 1.350 . S
C1999 C1998 1.434 . S
C2000 C2001 1.369 . S
C2000 C2002 1.419 . S
C2000 H2004 0.930 . S
C2001 C2000 1.369 . S
C2001 C2010 1.429 . S
C2002 C2000 1.419 . S
C2002 C2003 1.363 . S
C2002 H2005 0.929 . S
C2003 C2002 1.363 . S
C2003 C2009 1.428 . S
H2004 C2000 0.930 . S
H2005 C2002 0.929 . S
S2006 N2007 1.613 . S
S2006 N2008 1.610 . S
N2007 S2006 1.613 . S
N2007 C2010 1.350 . S
N2008 S2006 1.610 . S
N2008 C2009 1.351 . S
C2009 C2003 1.428 . S
C2009 N2008 1.351 . S
C2009 C2010 1.434 . S
C2010 C2001 1.429 . S
C2010 N2007 1.350 . S
C2010 C2009 1.434 . S
C2011 C2012 1.369 . S
C2011 C2013 1.419 . S
C2011 H2015 0.930 . S
C2012 C2011 1.369 . S
C2012 C2021 1.429 . S
C2013 C2011 1.419 . S
C2013 C2014 1.363 . S
C2013 H2016 0.929 . S
C2014 C2013 1.363 . S
C2014 C2020 1.428 . S
H2015 C2011 0.930 . S
H2016 C2013 0.929 . S
S2017 N2018 1.613 . S
S2017 N2019 1.610 . S
N2018 S2017 1.613 . S
N2018 C2021 1.350 . S
N2019 S2017 1.610 . S
N2019 C2020 1.351 . S
C2020 C2014 1.428 . S
C2020 N2019 1.351 . S
C2020 C2021 1.434 . S
C2021 C2012 1.429 . S
C2021 N2018 1.350 . S
C2021 C2020 1.434 . S
C2022 C2023 1.369 . S
C2022 C2024 1.419 . S
C2022 H2026 0.930 . S
C2023 C2022 1.369 . S
C2023 C2032 1.429 . S
C2024 C2022 1.419 . S
C2024 C2025 1.363 . S
C2024 H2027 0.929 . S
C2025 C2024 1.363 . S
C2025 C2031 1.428 . S
H2026 C2022 0.930 . S
H2027 C2024 0.929 . S
S2028 N2029 1.613 . S
S2028 N2030 1.610 . S
N2029 S2028 1.613 . S
N2029 C2032 1.350 . S
N2030 S2028 1.610 . S
N2030 C2031 1.351 . S
C2031 C2025 1.428 . S
C2031 N2030 1.351 . S
C2031 C2032 1.434 . S
C2032 C2023 1.429 . S
C2032 N2029 1.350 . S
C2032 C2031 1.434 . S
C2033 C2034 1.369 . S
C2033 C2035 1.419 . S
C2033 H2037 0.930 . S
C2034 C2033 1.369 . S
C2034 C2043 1.429 . S
C2035 C2033 1.419 . S
C2035 C2036 1.363 . S
C2035 H2038 0.929 . S
C2036 C2035 1.363 . S
C2036 C2042 1.428 . S
H2037 C2033 0.930 . S
H2038 C2035 0.929 . S
S2039 N2040 1.613 . S
S2039 N2041 1.610 . S
N2040 S2039 1.613 . S
N2040 C2043 1.350 . S
N2041 S2039 1.610 . S
N2041 C2042 1.351 . S
C2042 C2036 1.428 . S
C2042 N2041 1.351 . S
C2042 C2043 1.434 . S
C2043 C2034 1.429 . S
C2043 N2040 1.350 . S
C2043 C2042 1.434 . S
C2044 C2045 1.369 . S
C2044 C2046 1.419 . S
C2044 H2048 0.930 . S
C2045 C2044 1.369 . S
C2045 C2054 1.429 . S
C2046 C2044 1.419 . S
C2046 C2047 1.363 . S
C2046 H2049 0.929 . S
C2047 C2046 1.363 . S
C2047 C2053 1.428 . S
H2048 C2044 0.930 . S
H2049 C2046 0.929 . S
S2050 N2051 1.613 . S
S2050 N2052 1.610 . S
N2051 S2050 1.613 . S
N2051 C2054 1.350 . S
N2052 S2050 1.610 . S
N2052 C2053 1.351 . S
C2053 C2047 1.428 . S
C2053 N2052 1.351 . S
C2053 C2054 1.434 . S
C2054 C2045 1.429 . S
C2054 N2051 1.350 . S
C2054 C2053 1.434 . S
C2055 C2056 1.369 . S
C2055 C2057 1.419 . S
C2055 H2059 0.930 . S
C2056 C2055 1.369 . S
C2056 C2065 1.429 . S
C2057 C2055 1.419 . S
C2057 C2058 1.363 . S
C2057 H2060 0.929 . S
C2058 C2057 1.363 . S
C2058 C2064 1.428 . S
H2059 C2055 0.930 . S
H2060 C2057 0.929 . S
S2061 N2062 1.613 . S
S2061 N2063 1.610 . S
N2062 S2061 1.613 . S
N2062 C2065 1.350 . S
N2063 S2061 1.610 . S
N2063 C2064 1.351 . S
C2064 C2058 1.428 . S
C2064 N2063 1.351 . S
C2064 C2065 1.434 . S
C2065 C2056 1.429 . S
C2065 N2062 1.350 . S
C2065 C2064 1.434 . S
C2066 C2067 1.369 . S
C2066 C2068 1.419 . S
C2066 H2070 0.930 . S
C2067 C2066 1.369 . S
C2067 C2076 1.429 . S
C2068 C2066 1.419 . S
C2068 C2069 1.363 . S
C2068 H2071 0.929 . S
C2069 C2068 1.363 . S
C2069 C2075 1.428 . S
H2070 C2066 0.930 . S
H2071 C2068 0.929 . S
S2072 N2073 1.613 . S
S2072 N2074 1.610 . S
N2073 S2072 1.613 . S
N2073 C2076 1.350 . S
N2074 S2072 1.610 . S
N2074 C2075 1.351 . S
C2075 C2069 1.428 . S
C2075 N2074 1.351 . S
C2075 C2076 1.434 . S
C2076 C2067 1.429 . S
C2076 N2073 1.350 . S
C2076 C2075 1.434 . S
C2077 C2078 1.369 . S
C2077 C2079 1.419 . S
C2077 H2081 0.930 . S
C2078 C2077 1.369 . S
C2078 C2087 1.429 . S
C2079 C2077 1.419 . S
C2079 C2080 1.363 . S
C2079 H2082 0.929 . S
C2080 C2079 1.363 . S
C2080 C2086 1.428 . S
H2081 C2077 0.930 . S
H2082 C2079 0.929 . S
S2083 N2084 1.613 . S
S2083 N2085 1.610 . S
N2084 S2083 1.613 . S
N2084 C2087 1.350 . S
N2085 S2083 1.610 . S
N2085 C2086 1.351 . S
C2086 C2080 1.428 . S
C2086 N2085 1.351 . S
C2086 C2087 1.434 . S
C2087 C2078 1.429 . S
C2087 N2084 1.350 . S
C2087 C2086 1.434 . S
C1297 C580 1.280 . S
C1299 C4 1.283 . S
C1308 C616 1.281 . S
C1310 C40 1.281 . S
C1319 C76 1.285 . S
C1321 C544 1.283 . S
C1330 C940 1.285 . S
C1332 C112 1.282 . S
C1341 C868 1.284 . S
C1343 C148 1.284 . S
C1352 C184 1.280 . S
C1354 C904 1.282 . S
C1363 C1228 1.283 . S
C1365 C220 1.281 . S
C1374 C1264 1.280 . S
C1376 C256 1.281 . S
C1385 C1192 1.285 . S
C1387 C292 1.282 . S
C1396 C724 1.280 . S
C1398 C328 1.283 . S
C1407 C364 1.281 . S
C1409 C652 1.284 . S
C1418 C688 1.282 . S
C1420 C400 1.284 . S
C1429 C1012 1.284 . S
C1431 C436 1.284 . S
C1440 C472 1.285 . S
C1442 C1048 1.282 . S
C1451 C976 1.285 . S
C1453 C508 1.282 . S
C1462 C1156 1.283 . S
C1464 C760 1.281 . S
C1473 C1084 1.280 . S
C1475 C796 1.283 . S
C1484 C832 1.280 . S
C1486 C1120 1.282 . S
C1495 C254 1.502 . S
C1497 C14 1.412 . S
C1506 C290 1.501 . S
C1508 C50 1.412 . S
C1517 C218 1.502 . S
C1519 C86 1.418 . S
C1528 C122 1.413 . S
C1530 C398 1.501 . S
C1539 C326 1.501 . S
C1541 C158 1.415 . S
C1550 C194 1.411 . S
C1552 C362 1.501 . S
C1561 C38 1.501 . S
C1563 C230 1.415 . S
C1572 C266 1.411 . S
C1574 C74 1.501 . S
C1583 C2 1.501 . S
C1585 C302 1.413 . S
C1594 C182 1.502 . S
C1596 C338 1.417 . S
C1605 C110 1.502 . S
C1607 C374 1.419 . S
C1616 C410 1.418 . S
C1618 C146 1.502 . S
C1627 C446 1.414 . S
C1629 C686 1.501 . S
C1638 C722 1.502 . S
C1640 C482 1.417 . S
C1649 C650 1.502 . S
C1651 C518 1.411 . S
C1660 C554 1.410 . S
C1662 C830 1.501 . S
C1671 C758 1.502 . S
C1673 C590 1.415 . S
C1682 C626 1.420 . S
C1684 C794 1.502 . S
C1693 C662 1.420 . S
C1695 C470 1.502 . S
C1704 C698 1.415 . S
C1706 C506 1.501 . S
C1715 C434 1.501 . S
C1717 C734 1.411 . S
C1726 C614 1.502 . S
C1728 C770 1.416 . S
C1737 C542 1.502 . S
C1739 C806 1.413 . S
C1748 C842 1.420 . S
C1750 C578 1.502 . S
C1759 C1118 1.502 . S
C1761 C878 1.418 . S
C1770 C914 1.409 . S
C1772 C1154 1.501 . S
C1781 C950 1.420 . S
C1783 C1082 1.502 . S
C1792 C1262 1.502 . S
C1794 C986 1.416 . S
C1803 C1022 1.413 . S
C1805 C1190 1.501 . S
C1814 C1226 1.501 . S
C1816 C1058 1.418 . S
C1825 C902 1.501 . S
C1827 C1094 1.410 . S
C1836 C938 1.501 . S
C1838 C1130 1.417 . S
C1847 C1166 1.412 . S
C1849 C866 1.501 . S
C1858 C1202 1.410 . S
C1860 C1046 1.502 . S
C1869 C974 1.501 . S
C1871 C1238 1.417 . S
C1880 C1010 1.501 . S
C1882 C1274 1.412 . S
C1891 C3 1.509 . S
C1893 C111 1.509 . S
C1902 C39 1.509 . S
C1904 C147 1.509 . S
C1913 C183 1.508 . S
C1915 C75 1.508 . S
C1924 C219 1.509 . S
C1926 C327 1.509 . S
C1935 C363 1.509 . S
C1937 C255 1.509 . S
C1946 C399 1.509 . S
C1948 C291 1.509 . S
C1957 C435 1.508 . S
C1959 C543 1.508 . S
C1968 C471 1.509 . S
C1970 C579 1.509 . S
C1979 C615 1.509 . S
C1981 C507 1.509 . S
C1990 C651 1.508 . S
C1992 C759 1.509 1_554 S
C2001 C687 1.509 . S
C2003 C795 1.509 1_554 S
C2012 C723 1.509 . S
C2014 C831 1.509 1_554 S
C2023 C975 1.509 1_556 S
C2025 C867 1.509 . S
C2034 C1011 1.509 1_556 S
C2036 C903 1.509 . S
C2045 C1047 1.509 1_556 S
C2047 C939 1.509 . S
C2056 C1083 1.509 . S
C2058 C1191 1.509 . S
C2067 C1227 1.509 . S
C2069 C1119 1.509 . S
C2078 C1263 1.509 . S
C2080 C1155 1.509 . S
