# Generated by pormake.
# Topology uki, (4)-cn, num edge types: 1
# Building blocks:
#     Node 0, Type 0, BuildingBlock: GALJAG_clean_sbu_0, # of connection points: 4
#     Node 1, Type 0, BuildingBlock: GALJAG_clean_sbu_0, # of connection points: 4
#     Node 2, Type 0, BuildingBlock: GALJAG_clean_sbu_0, # of connection points: 4
#     Node 3, Type 0, BuildingBlock: GALJAG_clean_sbu_0, # of connection points: 4
#     Node 4, Type 0, BuildingBlock: GALJAG_clean_sbu_0, # of connection points: 4
#     Node 5, Type 0, BuildingBlock: GALJAG_clean_sbu_0, # of connection points: 4
#     Node 6, Type 0, BuildingBlock: GALJAG_clean_sbu_0, # of connection points: 4
#     Node 7, Type 0, BuildingBlock: GALJAG_clean_sbu_0, # of connection points: 4
#     Node 8, Type 0, BuildingBlock: GALJAG_clean_sbu_0, # of connection points: 4
#     Node 9, Type 0, BuildingBlock: GALJAG_clean_sbu_0, # of connection points: 4
#     Node 10, Type 0, BuildingBlock: GALJAG_clean_sbu_0, # of connection points: 4
#     Node 11, Type 0, BuildingBlock: GALJAG_clean_sbu_0, # of connection points: 4
#     Node 12, Type 0, BuildingBlock: GALJAG_clean_sbu_0, # of connection points: 4
#     Node 13, Type 0, BuildingBlock: GALJAG_clean_sbu_0, # of connection points: 4
#     Node 14, Type 0, BuildingBlock: GALJAG_clean_sbu_0, # of connection points: 4
#     Node 15, Type 0, BuildingBlock: GALJAG_clean_sbu_0, # of connection points: 4
#     Edge 16, Type (0, 0), BuildingBlock: TEMPAE_clean_linker_10, # of connection points: 2
#     Edge 17, Type (0, 0), BuildingBlock: TEMPAE_clean_linker_10, # of connection points: 2
#     Edge 18, Type (0, 0), BuildingBlock: TEMPAE_clean_linker_10, # of connection points: 2
#     Edge 19, Type (0, 0), BuildingBlock: TEMPAE_clean_linker_10, # of connection points: 2
#     Edge 20, Type (0, 0), BuildingBlock: TEMPAE_clean_linker_10, # of connection points: 2
#     Edge 21, Type (0, 0), BuildingBlock: TEMPAE_clean_linker_10, # of connection points: 2
#     Edge 22, Type (0, 0), BuildingBlock: TEMPAE_clean_linker_10, # of connection points: 2
#     Edge 23, Type (0, 0), BuildingBlock: TEMPAE_clean_linker_10, # of connection points: 2
#     Edge 24, Type (0, 0), BuildingBlock: TEMPAE_clean_linker_10, # of connection points: 2
#     Edge 25, Type (0, 0), BuildingBlock: TEMPAE_clean_linker_10, # of connection points: 2
#     Edge 26, Type (0, 0), BuildingBlock: TEMPAE_clean_linker_10, # of connection points: 2
#     Edge 27, Type (0, 0), BuildingBlock: TEMPAE_clean_linker_10, # of connection points: 2
#     Edge 28, Type (0, 0), BuildingBlock: TEMPAE_clean_linker_10, # of connection points: 2
#     Edge 29, Type (0, 0), BuildingBlock: TEMPAE_clean_linker_10, # of connection points: 2
#     Edge 30, Type (0, 0), BuildingBlock: TEMPAE_clean_linker_10, # of connection points: 2
#     Edge 31, Type (0, 0), BuildingBlock: TEMPAE_clean_linker_10, # of connection points: 2
#     Edge 32, Type (0, 0), BuildingBlock: TEMPAE_clean_linker_10, # of connection points: 2
#     Edge 33, Type (0, 0), BuildingBlock: TEMPAE_clean_linker_10, # of connection points: 2
#     Edge 34, Type (0, 0), BuildingBlock: TEMPAE_clean_linker_10, # of connection points: 2
#     Edge 35, Type (0, 0), BuildingBlock: TEMPAE_clean_linker_10, # of connection points: 2
#     Edge 36, Type (0, 0), BuildingBlock: TEMPAE_clean_linker_10, # of connection points: 2
#     Edge 37, Type (0, 0), BuildingBlock: TEMPAE_clean_linker_10, # of connection points: 2
#     Edge 38, Type (0, 0), BuildingBlock: TEMPAE_clean_linker_10, # of connection points: 2
#     Edge 39, Type (0, 0), BuildingBlock: TEMPAE_clean_linker_10, # of connection points: 2
#     Edge 40, Type (0, 0), BuildingBlock: TEMPAE_clean_linker_10, # of connection points: 2
#     Edge 41, Type (0, 0), BuildingBlock: TEMPAE_clean_linker_10, # of connection points: 2
#     Edge 42, Type (0, 0), BuildingBlock: TEMPAE_clean_linker_10, # of connection points: 2
#     Edge 43, Type (0, 0), BuildingBlock: TEMPAE_clean_linker_10, # of connection points: 2
#     Edge 44, Type (0, 0), BuildingBlock: TEMPAE_clean_linker_10, # of connection points: 2
#     Edge 45, Type (0, 0), BuildingBlock: TEMPAE_clean_linker_10, # of connection points: 2
#     Edge 46, Type (0, 0), BuildingBlock: TEMPAE_clean_linker_10, # of connection points: 2
#     Edge 47, Type (0, 0), BuildingBlock: TEMPAE_clean_linker_10, # of connection points: 2
# Relax obj value: 0.105
# Max RMSD: 0.179
# Mean RMSD: 0.179
data_MOF--net-uki--node1-GALJAG_clean_sbu_0--edge1-TEMPAE_clean_linker_10
_symmetry_space_group_name_H-M    P1
_symmetry_Int_Tables_number       1
_symmetry_cell_setting            triclinic
loop_
_symmetry_equiv_pos_as_xyz
'x, y, z'
_cell_length_a     30.620137
_cell_length_b     30.627621
_cell_length_c     77.314451
_cell_angle_alpha  90.005687
_cell_angle_beta   90.003641
_cell_angle_gamma 90.029417
loop_
_atom_site_label
_atom_site_type_symbol
_atom_site_fract_x
_atom_site_fract_y
_atom_site_fract_z
_atom_type_partial_charge
In0 In 0.06085 0.23564 0.30755 0.0
O1 O 0.083 0.24307 0.33584 0.0
O2 O 0.13098 0.24707 0.31606 0.0
C3 C 0.9774 0.2634 0.3063 0.0
C4 C 0.05214 0.14841 0.30716 0.0
C5 C 0.08619 0.28388 0.28032 0.0
O6 O 0.00542 0.28187 0.31585 0.0
O7 O 0.99132 0.23046 0.29826 0.0
O8 O 0.0895 0.24267 0.28032 0.0
O9 O 0.07083 0.30009 0.29404 0.0
C10 C 0.12279 0.24804 0.33201 0.0
O11 O 0.07149 0.16876 0.29516 0.0
O12 O 0.03866 0.17202 0.31943 0.0
In13 In 0.236 0.93121 0.69366 0.0
O14 O 0.26037 0.90832 0.6671 0.0
O15 O 0.22415 0.86378 0.6826 0.0
C16 C 0.26873 0.01221 0.69736 0.0
C17 C 0.15151 0.95118 0.68947 0.0
C18 C 0.27615 0.8969 0.72155 0.0
O19 O 0.28664 0.98459 0.68747 0.0
O20 O 0.23459 -0.00101 0.70478 0.0
O21 O 0.23575 0.90525 0.72152 0.0
O22 O 0.29543 0.9048 0.70749 0.0
C23 C 0.24404 0.87055 0.66857 0.0
O24 O 0.16475 0.92723 0.70174 0.0
O25 O 0.18083 0.96395 0.67914 0.0
In26 In 0.93239 0.75106 0.30932 0.0
O27 O 0.93235 0.81744 0.29578 0.0
O28 O 0.97416 0.80817 0.31753 0.0
C29 C 0.89631 0.71645 0.28064 0.0
C30 C 0.87207 0.75221 0.33499 0.0
C31 C 0.00814 0.70522 0.31058 0.0
O32 O 0.92065 0.74977 0.28 0.0
O33 O 0.88957 0.70183 0.29567 0.0
O34 O 0.00385 0.74227 0.3174 0.0
O35 O 0.97343 0.69001 0.30427 0.0
C36 C 0.96086 0.8335 0.30579 0.0
O37 O 0.90346 0.72554 0.33492 0.0
O38 O 0.87182 0.77829 0.32243 0.0
In39 In 0.75186 0.06082 0.68817 0.0
O40 O 0.82194 0.07358 0.69697 0.0
O41 O 0.81144 0.03275 0.67505 0.0
C42 C 0.71319 0.09315 0.71662 0.0
C43 C 0.73606 0.1174 0.66214 0.0
C44 C 0.72076 0.97927 0.69255 0.0
O45 O 0.75433 0.09146 0.71519 0.0
O46 O 0.69227 0.07926 0.70367 0.0
O47 O 0.70118 0.00678 0.68314 0.0
O48 O 0.75606 0.99268 0.69899 0.0
C49 C 0.83853 0.04969 0.68535 0.0
O50 O 0.7411 0.07706 0.65951 0.0
O51 O 0.73843 0.12894 0.67773 0.0
In52 In 0.07408 0.25638 0.94452 0.0
O53 O 0.0993 0.22918 0.91867 0.0
O54 O 0.14251 0.26641 0.93443 0.0
C55 C 0.99284 0.22503 0.94919 0.0
C56 C 0.05594 0.34067 0.93887 0.0
C57 C 0.10738 0.21719 0.97269 0.0
O58 O 0.01886 0.20754 0.9385 0.0
O59 O 0.00756 0.25843 0.95671 0.0
O60 O 0.10069 0.2579 0.97223 0.0
O61 O 0.09831 0.19714 0.95891 0.0
C62 C 0.13711 0.24525 0.92061 0.0
O63 O 0.07843 0.32802 0.95165 0.0
O64 O 0.04333 0.31071 0.92878 0.0
In65 In 0.2637 0.93142 0.0584 0.0
O66 O 0.24074 0.90814 0.08512 0.0
O67 O 0.27433 0.86325 0.06889 0.0
C68 C 0.23352 0.01335 0.05515 0.0
C69 C 0.34863 0.95081 0.06161 0.0
C70 C 0.21982 0.89866 0.0311 0.0
O71 O 0.21577 0.98649 0.06543 0.0
O72 O 0.26614 0.99883 0.04706 0.0
O73 O 0.26092 0.90247 0.03101 0.0
O74 O 0.20162 0.91044 0.04496 0.0
C75 C 0.25571 0.86996 0.08319 0.0
O76 O 0.33423 0.92769 0.04929 0.0
O77 O 0.3203 0.96281 0.0725 0.0
In78 In 0.92814 0.7332 0.94521 0.0
O79 O 0.92311 0.66116 0.95158 0.0
O80 O 0.96079 0.67986 0.92954 0.0
C81 C 0.89223 0.77146 0.97311 0.0
C82 C 0.86714 0.74537 0.92059 0.0
C83 C 0.00926 0.76371 0.95094 0.0
O84 O 0.89984 0.73093 0.97267 0.0
O85 O 0.90169 0.79178 0.95944 0.0
O86 O 0.98457 0.78101 0.93972 0.0
O87 O 0.99323 0.73108 0.95857 0.0
C88 C 0.94713 0.6493 0.93912 0.0
O89 O 0.9042 0.76362 0.91976 0.0
O90 O 0.8615 0.72135 0.93365 0.0
In91 In 0.74811 0.06061 0.05963 0.0
O92 O 0.67818 0.07195 0.05032 0.0
O93 O 0.68824 0.03676 0.07377 0.0
C94 C 0.78959 0.088 0.03096 0.0
C95 C 0.76481 0.12106 0.08415 0.0
C96 C 0.77531 0.97726 0.05712 0.0
O97 O 0.74833 0.0881 0.03205 0.0
O98 O 0.80921 0.07461 0.04431 0.0
O99 O 0.79634 0.00518 0.06585 0.0
O100 O 0.74074 0.99136 0.05032 0.0
C101 C 0.66135 0.05113 0.06279 0.0
O102 O 0.76142 0.08098 0.08771 0.0
O103 O 0.76024 0.13039 0.06841 0.0
In104 In 0.56429 0.74444 0.80775 0.0
O105 O 0.59 0.7693 0.83392 0.0
O106 O 0.63406 0.73735 0.81684 0.0
C107 C 0.4821 0.77517 0.80527 0.0
C108 C 0.54935 0.65911 0.81243 0.0
C109 C 0.59365 0.78337 0.77876 0.0
O110 O 0.51098 0.79513 0.81392 0.0
O111 O 0.49456 0.7397 0.79869 0.0
O112 O 0.58719 0.74268 0.77952 0.0
O113 O 0.58612 0.8037 0.79262 0.0
C114 C 0.62851 0.75594 0.83121 0.0
O115 O 0.57013 0.67366 0.79952 0.0
O116 O 0.53688 0.68769 0.82316 0.0
In117 In 0.74809 0.42979 0.19349 0.0
O118 O 0.75916 0.40826 0.16536 0.0
O119 O 0.76067 0.35979 0.18498 0.0
C120 C 0.78126 0.51135 0.19539 0.0
C121 C 0.6615 0.44127 0.1905 0.0
C122 C 0.78448 0.40134 0.22306 0.0
O123 O 0.80165 0.48068 0.18804 0.0
O124 O 0.7441 0.50104 0.20101 0.0
O125 O 0.7435 0.4041 0.22129 0.0
O126 O 0.80635 0.41255 0.20996 0.0
C127 C 0.76368 0.36844 0.16913 0.0
O128 O 0.6782 0.42064 0.20303 0.0
O129 O 0.68845 0.45473 0.17935 0.0
In130 In 0.43481 0.26149 0.8056 0.0
O131 O 0.42852 0.33306 0.79849 0.0
O132 O 0.46632 0.31638 0.82076 0.0
C133 C 0.39995 0.22009 0.77819 0.0
C134 C 0.3737 0.25001 0.83023 0.0
C135 C 0.51631 0.23201 0.80012 0.0
O136 O 0.40631 0.26088 0.77815 0.0
O137 O 0.41015 0.20109 0.79208 0.0
O138 O 0.49181 0.21476 0.81143 0.0
O139 O 0.49995 0.26423 0.79233 0.0
C140 C 0.45215 0.3461 0.81089 0.0
O141 O 0.41145 0.23344 0.83157 0.0
O142 O 0.36744 0.27197 0.81666 0.0
In143 In 0.27235 0.58201 0.20229 0.0
O144 O 0.34513 0.58388 0.20809 0.0
O145 O 0.32279 0.5421 0.18785 0.0
C146 C 0.23673 0.62257 0.22979 0.0
C147 C 0.26434 0.64063 0.17657 0.0
C148 C 0.2345 0.5043 0.20842 0.0
O149 O 0.27484 0.60689 0.23027 0.0
O150 O 0.21777 0.61912 0.21538 0.0
O151 O 0.22131 0.52872 0.19627 0.0
O152 O 0.26646 0.51902 0.21685 0.0
C153 C 0.35467 0.55586 0.19668 0.0
O154 O 0.24269 0.6054 0.17674 0.0
O155 O 0.28988 0.64571 0.18924 0.0
In156 In 0.55606 0.76075 0.44305 0.0
O157 O 0.53481 0.81711 0.46022 0.0
O158 O 0.55555 0.83161 0.43449 0.0
C159 C 0.58235 0.7138 0.4707 0.0
C160 C 0.62218 0.75636 0.41996 0.0
C161 C 0.4745 0.72963 0.43692 0.0
O162 O 0.58084 0.75498 0.47107 0.0
O163 O 0.57102 0.69704 0.45653 0.0
O164 O 0.50777 0.70547 0.4371 0.0
O165 O 0.48299 0.76965 0.43831 0.0
C166 C 0.5409 0.8458 0.44871 0.0
O167 O 0.58317 0.74773 0.41583 0.0
O168 O 0.62736 0.76737 0.43553 0.0
In169 In 0.7568 0.41576 0.54843 0.0
O170 O 0.74208 0.39527 0.57633 0.0
O171 O 0.74922 0.34541 0.55738 0.0
C172 C 0.72226 0.4963 0.54535 0.0
C173 C 0.84233 0.43148 0.55311 0.0
C174 C 0.72042 0.38435 0.51932 0.0
O175 O 0.70447 0.46738 0.55466 0.0
O176 O 0.75728 0.4846 0.5382 0.0
O177 O 0.76116 0.39061 0.52054 0.0
O178 O 0.69883 0.39331 0.53278 0.0
C179 C 0.74204 0.35495 0.57297 0.0
O180 O 0.82845 0.40878 0.54059 0.0
O181 O 0.81321 0.4447 0.56338 0.0
In182 In 0.43537 0.24285 0.44096 0.0
O183 O 0.45311 0.18667 0.45886 0.0
O184 O 0.42599 0.17104 0.43427 0.0
C185 C 0.41121 0.29054 0.46865 0.0
C186 C 0.37294 0.25219 0.41649 0.0
C187 C 0.5183 0.2701 0.43495 0.0
O188 O 0.40285 0.25024 0.46754 0.0
O189 O 0.43126 0.30628 0.45585 0.0
O190 O 0.48557 0.29391 0.43199 0.0
O191 O 0.50874 0.23178 0.43939 0.0
C192 C 0.44192 0.15725 0.44831 0.0
O193 O 0.41118 0.23977 0.41286 0.0
O194 O 0.36653 0.26022 0.43226 0.0
In195 In 0.22605 0.58802 0.54732 0.0
O196 O 0.15348 0.58855 0.54111 0.0
O197 O 0.17559 0.54772 0.56166 0.0
C198 C 0.26131 0.62905 0.51983 0.0
C199 C 0.23466 0.64603 0.57332 0.0
C200 C 0.26352 0.51031 0.54092 0.0
O201 O 0.2219 0.61687 0.51998 0.0
O202 O 0.28192 0.62181 0.53365 0.0
O203 O 0.27694 0.53455 0.55308 0.0
O204 O 0.23157 0.52526 0.53254 0.0
C205 C 0.1439 0.56058 0.55253 0.0
O206 O 0.25537 0.6103 0.57313 0.0
O207 O 0.20971 0.65198 0.56054 0.0
C208 C 0.12052 0.29363 0.25112 0.0
C209 C 0.10103 0.31172 0.26588 0.0
C210 C 0.13871 0.32061 0.23828 0.0
C211 C 0.13771 0.36651 0.24046 0.0
C212 C 0.11564 0.38482 0.25482 0.0
C213 C 0.09744 0.35719 0.2673 0.0
C214 C 0.16109 0.29996 0.22295 0.0
C215 C 0.11385 0.43361 0.25767 0.0
C216 C 0.23149 0.43832 0.2269 0.0
C217 C 0.21237 0.46372 0.21386 0.0
C218 C 0.20839 0.40445 0.23484 0.0
C219 C 0.16515 0.39537 0.22948 0.0
C220 C 0.14693 0.4184 0.21532 0.0
C221 C 0.17077 0.45265 0.20769 0.0
C222 C 0.22913 0.38082 0.24991 0.0
C223 C 0.10131 0.40889 0.20899 0.0
H224 H 0.12285 0.25846 0.24985 0.0
H225 H 0.08186 0.37138 0.27857 0.0
H226 H 0.15292 0.31771 0.21086 0.0
H227 H 0.197 0.30186 0.2247 0.0
H228 H 0.15191 0.26508 0.22141 0.0
H229 H 0.09218 0.44264 0.26863 0.0
H230 H 0.14717 0.44605 0.26046 0.0
H231 H 0.10207 0.45038 0.24586 0.0
H232 H 0.2639 0.44635 0.23156 0.0
H233 H 0.15599 0.47203 0.19752 0.0
H234 H 0.2262 0.34498 0.24824 0.0
H235 H 0.21183 0.38964 0.26203 0.0
H236 H 0.26423 0.38915 0.25145 0.0
H237 H 0.09514 0.3732 0.20862 0.0
H238 H 0.09549 0.42273 0.19591 0.0
H239 H 0.07729 0.42352 0.21804 0.0
C240 C 0.40827 0.76804 0.79243 0.0
C241 C 0.43994 0.79465 0.8002 0.0
C242 C 0.37437 0.78619 0.78264 0.0
C243 C 0.37227 0.83204 0.78058 0.0
C244 C 0.40099 0.85917 0.79013 0.0
C245 C 0.43466 0.84007 0.7999 0.0
C246 C 0.3442 0.75599 0.77286 0.0
C247 C 0.39934 0.90824 0.78853 0.0
C248 C 0.34375 0.86826 0.73519 0.0
C249 C 0.29986 0.88039 0.73685 0.0
C250 C 0.36758 0.85318 0.74942 0.0
C251 C 0.34714 0.85036 0.76582 0.0
C252 C 0.30292 0.86303 0.76767 0.0
C253 C 0.27965 0.87777 0.7531 0.0
C254 C 0.41463 0.83972 0.7468 0.0
C255 C 0.28029 0.86087 0.78499 0.0
H256 H 0.41193 0.73284 0.79287 0.0
H257 H 0.45898 0.86076 0.80597 0.0
H258 H 0.31018 0.76834 0.77305 0.0
H259 H 0.35476 0.7543 0.75914 0.0
H260 H 0.3446 0.72239 0.77827 0.0
H261 H 0.4167 0.92452 0.79938 0.0
H262 H 0.41523 0.9182 0.77625 0.0
H263 H 0.3651 0.92003 0.78817 0.0
H264 H 0.35957 0.87032 0.72267 0.0
H265 H 0.24579 0.88748 0.75446 0.0
H266 H 0.41876 0.80477 0.7502 0.0
H267 H 0.43625 0.85892 0.75545 0.0
H268 H 0.42574 0.84451 0.73325 0.0
H269 H 0.27944 0.82664 0.78965 0.0
H270 H 0.2463 0.87345 0.7844 0.0
H271 H 0.29879 0.88013 0.79469 0.0
C272 C 0.77534 0.58773 0.20582 0.0
C273 C 0.80179 0.55295 0.20047 0.0
C274 C 0.79259 0.622 0.2157 0.0
C275 C 0.83714 0.62084 0.22056 0.0
C276 C 0.86493 0.58843 0.2135 0.0
C277 C 0.84689 0.55487 0.20338 0.0
C278 C 0.76201 0.65651 0.22258 0.0
C279 C 0.91263 0.58602 0.21831 0.0
C280 C 0.8856 0.71126 0.24849 0.0
C281 C 0.87972 0.69379 0.26511 0.0
C282 C 0.87156 0.68827 0.23374 0.0
C283 C 0.85188 0.64673 0.23574 0.0
C284 C 0.84576 0.62919 0.25252 0.0
C285 C 0.85946 0.65305 0.26696 0.0
C286 C 0.87802 0.70816 0.21607 0.0
C287 C 0.82509 0.58487 0.25527 0.0
H288 H 0.74047 0.58653 0.20338 0.0
H289 H 0.86744 0.52802 0.19923 0.0
H290 H 0.75311 0.64849 0.23613 0.0
H291 H 0.7779 0.68906 0.22263 0.0
H292 H 0.73147 0.6584 0.21486 0.0
H293 H 0.93125 0.56484 0.20928 0.0
H294 H 0.92766 0.61896 0.21844 0.0
H295 H 0.9157 0.57225 0.23154 0.0
H296 H 0.9013 0.74277 0.24702 0.0
H297 H 0.855 0.63928 0.27975 0.0
H298 H 0.84653 0.70916 0.20899 0.0
H299 H 0.90068 0.68763 0.20838 0.0
H300 H 0.89153 0.74178 0.21679 0.0
H301 H 0.79142 0.58467 0.24997 0.0
H302 H 0.82352 0.57567 0.26916 0.0
H303 H 0.84396 0.55949 0.24827 0.0
C304 C 0.58411 0.23653 0.78272 0.0
C305 C 0.55773 0.2126 0.7941 0.0
C306 C 0.6165 0.216 0.77288 0.0
C307 C 0.62276 0.17044 0.77456 0.0
C308 C 0.5997 0.14709 0.78749 0.0
C309 C 0.56719 0.16851 0.79714 0.0
C310 C 0.64044 0.24229 0.75934 0.0
C311 C 0.60627 0.09868 0.78998 0.0
C312 C 0.64512 0.11519 0.73176 0.0
C313 C 0.69062 0.11052 0.73205 0.0
C314 C 0.6227 0.13325 0.7458 0.0
C315 C 0.6463 0.14664 0.76064 0.0
C316 C 0.6921 0.14051 0.76132 0.0
C317 C 0.71385 0.12276 0.74692 0.0
C318 C 0.57382 0.13941 0.74446 0.0
C319 C 0.7182 0.15374 0.77703 0.0
H320 H 0.57733 0.27085 0.78054 0.0
H321 H 0.54706 0.14994 0.80603 0.0
H322 H 0.67571 0.23414 0.75927 0.0
H323 H 0.62718 0.2342 0.74636 0.0
H324 H 0.6368 0.27799 0.76143 0.0
H325 H 0.59352 0.08749 0.80268 0.0
H326 H 0.58866 0.08072 0.77964 0.0
H327 H 0.64135 0.08999 0.78902 0.0
H328 H 0.62695 0.10557 0.72034 0.0
H329 H 0.74902 0.11882 0.74725 0.0
H330 H 0.56582 0.17472 0.74504 0.0
H331 H 0.55723 0.12334 0.75551 0.0
H332 H 0.56025 0.12585 0.73226 0.0
H333 H 0.71983 0.18986 0.7778 0.0
H334 H 0.75208 0.14082 0.7766 0.0
H335 H 0.70214 0.14201 0.78902 0.0
C336 C 0.16942 0.06294 0.05178 0.0
C337 C 0.21448 0.0559 0.05049 0.0
C338 C 0.1495 0.09692 0.04246 0.0
C339 C 0.17548 0.12401 0.03173 0.0
C340 C 0.2215 0.12036 0.03227 0.0
C341 C 0.24046 0.08622 0.04164 0.0
C342 C 0.10037 0.1005 0.04255 0.0
C343 C 0.25054 0.14884 0.02122 0.0
C344 C 0.13299 0.14939 0.98699 0.0
C345 C 0.1237 0.19405 0.98813 0.0
C346 C 0.1487 0.12625 0.00127 0.0
C347 C 0.15508 0.14823 0.01719 0.0
C348 C 0.14475 0.19314 0.0186 0.0
C349 C 0.12938 0.2157 0.00397 0.0
C350 C 0.15944 0.07835 0.99914 0.0
C351 C 0.1507 0.21749 0.03541 0.0
H352 H 0.14929 0.03969 0.05873 0.0
H353 H 0.27548 0.08122 0.0409 0.0
H354 H 0.08989 0.13516 0.04214 0.0
H355 H 0.08704 0.08406 0.0309 0.0
H356 H 0.08597 0.0847 0.05417 0.0
H357 H 0.28519 0.14734 0.02544 0.0
H358 H 0.24872 0.13763 0.00758 0.0
H359 H 0.23958 0.18332 0.02158 0.0
H360 H 0.12845 0.13245 0.97481 0.0
H361 H 0.12187 0.25019 0.00492 0.0
H362 H 0.14107 0.05866 0.00874 0.0
H363 H 0.19476 0.07292 0.00155 0.0
H364 H 0.1515 0.066 0.986 0.0
H365 H 0.13708 0.19845 0.04636 0.0
H366 H 0.13485 0.2501 0.03512 0.0
H367 H 0.18605 0.22212 0.03796 0.0
C368 C 0.14891 0.87815 0.01773 0.0
C369 C 0.19436 0.88188 0.01627 0.0
C370 C 0.12379 0.86095 0.00423 0.0
C371 C 0.14459 0.84724 0.9888 0.0
C372 C 0.19032 0.85232 0.98697 0.0
C373 C 0.2148 0.86947 0.0008 0.0
C374 C 0.07507 0.85605 0.00676 0.0
C375 C 0.21349 0.83854 0.97063 0.0
C376 C 0.07776 0.75863 0.9679 0.0
C377 C 0.0509 0.78295 0.95682 0.0
C378 C 0.11137 0.77861 0.97727 0.0
C379 C 0.11834 0.82405 0.97548 0.0
C380 C 0.09429 0.84789 0.96298 0.0
C381 C 0.06063 0.82698 0.95377 0.0
C382 C 0.1363 0.75185 0.99038 0.0
C383 C 0.10138 0.89621 0.96045 0.0
H384 H 0.13286 0.88802 0.0296 0.0
H385 H 0.24991 0.87266 0.99957 0.0
H386 H 0.05721 0.87233 0.99608 0.0
H387 H 0.0661 0.82095 0.0065 0.0
H388 H 0.06378 0.87017 0.01922 0.0
H389 H 0.24795 0.84991 0.97035 0.0
H390 H 0.21328 0.80241 0.96964 0.0
H391 H 0.19627 0.85146 0.95909 0.0
H392 H 0.07072 0.72438 0.97011 0.0
H393 H 0.04007 0.84585 0.94514 0.0
H394 H 0.12506 0.7605 0.00359 0.0
H395 H 0.17175 0.75904 0.98968 0.0
H396 H 0.1314 0.71623 0.98847 0.0
H397 H 0.08562 0.9143 0.9712 0.0
H398 H 0.08709 0.90785 0.94808 0.0
H399 H 0.1367 0.90429 0.96065 0.0
C400 C 0.87114 0.77296 0.00448 0.0
C401 C 0.87513 0.79428 0.9885 0.0
C402 C 0.85635 0.79558 0.01919 0.0
C403 C 0.84516 0.84027 0.01775 0.0
C404 C 0.84912 0.86175 0.0016 0.0
C405 C 0.86413 0.83852 0.98722 0.0
C406 C 0.85286 0.77184 0.03624 0.0
C407 C 0.8372 0.90935 0.99942 0.0
C408 C 0.76503 0.90379 0.04436 0.0
C409 C 0.79287 0.93419 0.05224 0.0
C410 C 0.78189 0.86917 0.03461 0.0
C411 C 0.82765 0.86512 0.03271 0.0
C412 C 0.85581 0.89236 0.04248 0.0
C413 C 0.838 0.92677 0.0522 0.0
C414 C 0.75062 0.84059 0.02461 0.0
C415 C 0.9048 0.88857 0.04105 0.0
H416 H 0.87997 0.73879 0.00552 0.0
H417 H 0.86719 0.85516 0.97491 0.0
H418 H 0.87416 0.78781 0.04597 0.0
H419 H 0.81891 0.77367 0.0412 0.0
H420 H 0.86238 0.73696 0.03515 0.0
H421 H 0.84251 0.92114 0.98599 0.0
H422 H 0.80235 0.91442 0.0028 0.0
H423 H 0.857 0.92979 0.00831 0.0
H424 H 0.73002 0.90909 0.04462 0.0
H425 H 0.85961 0.95007 0.05839 0.0
H426 H 0.76176 0.80616 0.0245 0.0
H427 H 0.74921 0.85197 0.01099 0.0
H428 H 0.71707 0.84191 0.03006 0.0
H429 H 0.91508 0.85387 0.04053 0.0
H430 H 0.92155 0.90479 0.05206 0.0
H431 H 0.91577 0.90447 0.0289 0.0
C432 C 0.85925 0.10761 0.01642 0.0
C433 C 0.81372 0.10357 0.0156 0.0
C434 C 0.88303 0.12492 0.00258 0.0
C435 C 0.86083 0.13807 0.98737 0.0
C436 C 0.81507 0.13215 0.9861 0.0
C437 C 0.79191 0.11528 0.00034 0.0
C438 C 0.9318 0.1309 0.00456 0.0
C439 C 0.79043 0.14494 0.96998 0.0
C440 C 0.92399 0.22852 0.96599 0.0
C441 C 0.95146 0.20488 0.95492 0.0
C442 C 0.89122 0.20762 0.97551 0.0
C443 C 0.88556 0.16198 0.9738 0.0
C444 C 0.90988 0.13882 0.96118 0.0
C445 C 0.94284 0.16059 0.95189 0.0
C446 C 0.86603 0.2337 0.98876 0.0
C447 C 0.90391 0.09036 0.95863 0.0
H448 H 0.87635 0.09837 0.02814 0.0
H449 H 0.75673 0.11178 0.99958 0.0
H450 H 0.94927 0.11476 0.99375 0.0
H451 H 0.93999 0.16619 0.00408 0.0
H452 H 0.94426 0.11733 0.01694 0.0
H453 H 0.75674 0.13145 0.96988 0.0
H454 H 0.78828 0.18103 0.9692 0.0
H455 H 0.80787 0.13348 0.95825 0.0
H456 H 0.93011 0.26296 0.96817 0.0
H457 H 0.96379 0.14224 0.94324 0.0
H458 H 0.87791 0.22529 0.00191 0.0
H459 H 0.83076 0.22563 0.98823 0.0
H460 H 0.86996 0.26944 0.98686 0.0
H461 H 0.92087 0.07256 0.96917 0.0
H462 H 0.91772 0.07927 0.94609 0.0
H463 H 0.86884 0.08134 0.95917 0.0
C464 C 0.61768 0.85081 0.76369 0.0
C465 C 0.60881 0.80599 0.76301 0.0
C466 C 0.6333 0.87315 0.74918 0.0
C467 C 0.63998 0.85016 0.73351 0.0
C468 C 0.62975 0.80515 0.73253 0.0
C469 C 0.61448 0.78344 0.74738 0.0
C470 C 0.64388 0.92121 0.75082 0.0
C471 C 0.63591 0.77978 0.71598 0.0
C472 C 0.65568 0.93162 0.69746 0.0
C473 C 0.70092 0.93801 0.69847 0.0
C474 C 0.63524 0.89933 0.70752 0.0
C475 C 0.66082 0.8733 0.71878 0.0
C476 C 0.70691 0.87634 0.71823 0.0
C477 C 0.72641 0.90866 0.70803 0.0
C478 C 0.58606 0.89632 0.70745 0.0
C479 C 0.73549 0.84907 0.72991 0.0
H480 H 0.6131 0.86846 0.77571 0.0
H481 H 0.60728 0.74881 0.74677 0.0
H482 H 0.67926 0.92654 0.74853 0.0
H483 H 0.62579 0.94016 0.74092 0.0
H484 H 0.63552 0.93445 0.76378 0.0
H485 H 0.62076 0.74685 0.71665 0.0
H486 H 0.62166 0.79779 0.70488 0.0
H487 H 0.67129 0.77579 0.71335 0.0
H488 H 0.63588 0.95405 0.68997 0.0
H489 H 0.76152 0.91309 0.70861 0.0
H490 H 0.57289 0.9141 0.71881 0.0
H491 H 0.57515 0.86186 0.70842 0.0
H492 H 0.57189 0.91106 0.69558 0.0
H493 H 0.73302 0.86158 0.74335 0.0
H494 H 0.77034 0.85021 0.72593 0.0
H495 H 0.72456 0.81456 0.73001 0.0
C496 C 0.90584 0.25929 0.29142 0.0
C497 C 0.93509 0.28326 0.30164 0.0
C498 C 0.87321 0.28029 0.28186 0.0
C499 C 0.86969 0.3263 0.28267 0.0
C500 C 0.89514 0.34985 0.29481 0.0
C501 C 0.92785 0.32798 0.30416 0.0
C502 C 0.84647 0.25375 0.26925 0.0
C503 C 0.89123 0.39875 0.2965 0.0
C504 C 0.85091 0.37731 0.2388 0.0
C505 C 0.80584 0.38501 0.23893 0.0
C506 C 0.87205 0.35954 0.2532 0.0
C507 C 0.84763 0.34971 0.26827 0.0
C508 C 0.80238 0.35914 0.26879 0.0
C509 C 0.78184 0.37633 0.254 0.0
C510 C 0.92039 0.34984 0.252 0.0
C511 C 0.77542 0.34996 0.28471 0.0
H512 H 0.91085 0.22451 0.28969 0.0
H513 H 0.9501 0.34661 0.31221 0.0
H514 H 0.81185 0.26428 0.26937 0.0
H515 H 0.85923 0.25893 0.25597 0.0
H516 H 0.8479 0.21826 0.27218 0.0
H517 H 0.90518 0.41056 0.30891 0.0
H518 H 0.9093 0.41462 0.28576 0.0
H519 H 0.85661 0.4092 0.29563 0.0
H520 H 0.86968 0.38414 0.22722 0.0
H521 H 0.747 0.38259 0.25419 0.0
H522 H 0.92602 0.31425 0.2535 0.0
H523 H 0.9382 0.3666 0.26259 0.0
H524 H 0.93469 0.36038 0.23947 0.0
H525 H 0.76832 0.3145 0.28546 0.0
H526 H 0.74382 0.36777 0.28445 0.0
H527 H 0.79344 0.35915 0.29662 0.0
C528 C 0.2634 0.08497 0.71115 0.0
C529 C 0.2888 0.05413 0.70232 0.0
C530 C 0.28297 0.11897 0.72043 0.0
C531 C 0.32905 0.12206 0.72087 0.0
C532 C 0.35455 0.09411 0.71031 0.0
C533 C 0.33402 0.06027 0.70111 0.0
C534 C 0.25444 0.14822 0.73137 0.0
C535 C 0.40374 0.09691 0.71019 0.0
C536 C 0.37668 0.21589 0.7471 0.0
C537 C 0.38274 0.19569 0.7632 0.0
C538 C 0.36059 0.19211 0.73288 0.0
C539 C 0.34997 0.14743 0.73499 0.0
C540 C 0.35663 0.12691 0.75119 0.0
C541 C 0.37305 0.15125 0.76504 0.0
C542 C 0.35439 0.21483 0.71574 0.0
C543 C 0.34549 0.07935 0.75406 0.0
H544 H 0.22829 0.08066 0.71187 0.0
H545 H 0.35372 0.0366 0.69419 0.0
H546 H 0.25655 0.13771 0.74508 0.0
H547 H 0.26566 0.18259 0.73069 0.0
H548 H 0.21966 0.14676 0.72731 0.0
H549 H 0.41789 0.08013 0.69874 0.0
H550 H 0.41479 0.13141 0.71025 0.0
H551 H 0.4168 0.08106 0.72201 0.0
H552 H 0.38454 0.2502 0.7456 0.0
H553 H 0.37784 0.13542 0.77744 0.0
H554 H 0.31908 0.21683 0.71266 0.0
H555 H 0.37014 0.19584 0.70524 0.0
H556 H 0.36812 0.24841 0.71578 0.0
H557 H 0.31006 0.07402 0.75188 0.0
H558 H 0.35367 0.06817 0.76734 0.0
H559 H 0.3634 0.05861 0.74468 0.0
C560 C 0.08861 0.71323 0.30705 0.0
C561 C 0.05128 0.68674 0.30621 0.0
C562 C 0.12652 0.7022 0.29783 0.0
C563 C 0.12698 0.66364 0.28775 0.0
C564 C 0.09142 0.63414 0.28873 0.0
C565 C 0.05381 0.64618 0.2979 0.0
C566 C 0.16396 0.73423 0.29734 0.0
C567 C 0.09107 0.59209 0.27853 0.0
C568 C 0.17626 0.66481 0.24296 0.0
C569 C 0.21356 0.63906 0.24517 0.0
C570 C 0.14925 0.67501 0.25699 0.0
C571 C 0.15949 0.65849 0.27362 0.0
C572 C 0.19845 0.63442 0.27612 0.0
C573 C 0.22527 0.62512 0.26181 0.0
C574 C 0.10844 0.70156 0.25378 0.0
C575 C 0.21046 0.61617 0.29361 0.0
H576 H 0.08697 0.74452 0.31358 0.0
H577 H 0.02522 0.62531 0.29741 0.0
H578 H 0.19582 0.71703 0.29744 0.0
H579 H 0.16212 0.75351 0.28521 0.0
H580 H 0.16283 0.75725 0.30844 0.0
H581 H 0.06486 0.56961 0.28295 0.0
H582 H 0.08553 0.59953 0.26465 0.0
H583 H 0.12295 0.57513 0.2796 0.0
H584 H 0.16736 0.67587 0.23011 0.0
H585 H 0.25402 0.60494 0.26351 0.0
H586 H 0.1066 0.72921 0.26302 0.0
H587 H 0.07917 0.68084 0.25587 0.0
H588 H 0.10712 0.71482 0.24041 0.0
H589 H 0.20418 0.64035 0.304 0.0
H590 H 0.24529 0.60612 0.29416 0.0
H591 H 0.18995 0.5871 0.29632 0.0
C592 C 0.72439 0.56826 0.53069 0.0
C593 C 0.70129 0.53813 0.54082 0.0
C594 C 0.7029 0.60276 0.52245 0.0
C595 C 0.65723 0.6074 0.52451 0.0
C596 C 0.63462 0.58005 0.53627 0.0
C597 C 0.65696 0.54543 0.54427 0.0
C598 C 0.72839 0.63123 0.51009 0.0
C599 C 0.58614 0.58482 0.53919 0.0
C600 C 0.60901 0.70552 0.50124 0.0
C601 C 0.59766 0.68678 0.48531 0.0
C602 C 0.6262 0.67971 0.51466 0.0
C603 C 0.63273 0.63448 0.51188 0.0
C604 C 0.61972 0.61531 0.49603 0.0
C605 C 0.60214 0.64165 0.48301 0.0
C606 C 0.63884 0.70111 0.53151 0.0
C607 C 0.62626 0.56721 0.49245 0.0
H608 H 0.75888 0.56318 0.52822 0.0
H609 H 0.63906 0.52246 0.55225 0.0
H610 H 0.71982 0.62229 0.49659 0.0
H611 H 0.7199 0.66611 0.51191 0.0
H612 H 0.76422 0.62737 0.51173 0.0
H613 H 0.57552 0.56815 0.55124 0.0
H614 H 0.57674 0.61976 0.53991 0.0
H615 H 0.56826 0.57005 0.52816 0.0
H616 H 0.60519 0.74038 0.50312 0.0
H617 H 0.59311 0.62692 0.47076 0.0
H618 H 0.67486 0.70454 0.53213 0.0
H619 H 0.62861 0.68072 0.54267 0.0
H620 H 0.62412 0.73408 0.53287 0.0
H621 H 0.66167 0.55944 0.49258 0.0
H622 H 0.61262 0.55716 0.47974 0.0
H623 H 0.61053 0.54734 0.5027 0.0
C624 C 0.72085 0.36718 0.48754 0.0
C625 C 0.6989 0.36818 0.50346 0.0
C626 C 0.69945 0.35299 0.47242 0.0
C627 C 0.65538 0.33916 0.4734 0.0
C628 C 0.63335 0.33986 0.48953 0.0
C629 C 0.6553 0.35456 0.50428 0.0
C630 C 0.72367 0.35346 0.45543 0.0
C631 C 0.58646 0.32494 0.49126 0.0
C632 C 0.56799 0.33364 0.43942 0.0
C633 C 0.56218 0.2883 0.43841 0.0
C634 C 0.60253 0.35142 0.44908 0.0
C635 C 0.63147 0.32306 0.45791 0.0
C636 C 0.62947 0.2776 0.45472 0.0
C637 C 0.59488 0.26074 0.44489 0.0
C638 C 0.6044 0.40021 0.45167 0.0
C639 C 0.65996 0.24614 0.46366 0.0
H640 H 0.75449 0.37808 0.48684 0.0
H641 H 0.63821 0.35518 0.51656 0.0
H642 H 0.72076 0.3214 0.44885 0.0
H643 H 0.7089 0.37821 0.44675 0.0
H644 H 0.75884 0.36131 0.4571 0.0
H645 H 0.57445 0.32683 0.5048 0.0
H646 H 0.56498 0.34541 0.48303 0.0
H647 H 0.5832 0.2907 0.48675 0.0
H648 H 0.54321 0.35522 0.4342 0.0
H649 H 0.59104 0.22563 0.44387 0.0
H650 H 0.63867 0.41183 0.45232 0.0
H651 H 0.58833 0.40867 0.46409 0.0
H652 H 0.58723 0.41786 0.44112 0.0
H653 H 0.69374 0.25916 0.46409 0.0
H654 H 0.66038 0.2138 0.45714 0.0
H655 H 0.64889 0.24132 0.47719 0.0
C656 C 0.26594 0.44424 0.52247 0.0
C657 C 0.28538 0.46968 0.53543 0.0
C658 C 0.28881 0.41031 0.51448 0.0
C659 C 0.33215 0.40124 0.5197 0.0
C660 C 0.35066 0.42425 0.53382 0.0
C661 C 0.32703 0.45853 0.5415 0.0
C662 C 0.26775 0.38664 0.49948 0.0
C663 C 0.39636 0.41468 0.54003 0.0
C664 C 0.37652 0.29985 0.49778 0.0
C665 C 0.39631 0.31818 0.48313 0.0
C666 C 0.35842 0.32662 0.51069 0.0
C667 C 0.35943 0.37254 0.50862 0.0
C668 C 0.38153 0.39108 0.49431 0.0
C669 C 0.39999 0.36365 0.48182 0.0
C670 C 0.33624 0.30573 0.52603 0.0
C671 C 0.38307 0.4399 0.4915 0.0
H672 H 0.23345 0.4523 0.5179 0.0
H673 H 0.34204 0.47792 0.55162 0.0
H674 H 0.28484 0.39542 0.48731 0.0
H675 H 0.27066 0.35081 0.50115 0.0
H676 H 0.23263 0.39499 0.49804 0.0
H677 H 0.40242 0.4285 0.5531 0.0
H678 H 0.40244 0.37897 0.54039 0.0
H679 H 0.42027 0.42928 0.53093 0.0
H680 H 0.37418 0.26466 0.49896 0.0
H681 H 0.4156 0.37799 0.47059 0.0
H682 H 0.30032 0.30729 0.5243 0.0
H683 H 0.34432 0.32349 0.53812 0.0
H684 H 0.34572 0.27092 0.52753 0.0
H685 H 0.34962 0.45223 0.4889 0.0
H686 H 0.40436 0.44912 0.48045 0.0
H687 H 0.39517 0.45662 0.50328 0.0
C688 C 0.39629 0.74167 0.4442 0.0
C689 C 0.43019 0.71248 0.4403 0.0
C690 C 0.35989 0.72796 0.45378 0.0
C691 C 0.3575 0.68411 0.45945 0.0
C692 C 0.38825 0.65331 0.45327 0.0
C693 C 0.4244 0.66791 0.44373 0.0
C694 C 0.32723 0.76165 0.45972 0.0
C695 C 0.3862 0.60596 0.4586 0.0
C696 C 0.32505 0.66499 0.50604 0.0
C697 C 0.2832 0.64707 0.50439 0.0
C698 C 0.34881 0.67814 0.49149 0.0
C699 C 0.33038 0.67305 0.4748 0.0
C700 C 0.2875 0.65629 0.47304 0.0
C701 C 0.2643 0.6435 0.48791 0.0
C702 C 0.39428 0.69637 0.49403 0.0
C703 C 0.26681 0.65019 0.45549 0.0
H704 H 0.40017 0.7761 0.4413 0.0
H705 H 0.45013 0.64502 0.44049 0.0
H706 H 0.29365 0.74806 0.45979 0.0
H707 H 0.33523 0.77173 0.47314 0.0
H708 H 0.32787 0.79118 0.45138 0.0
H709 H 0.40665 0.58502 0.45012 0.0
H710 H 0.39831 0.60269 0.47207 0.0
H711 H 0.3521 0.59376 0.4583 0.0
H712 H 0.33969 0.66799 0.51875 0.0
H713 H 0.23201 0.62936 0.48659 0.0
H714 H 0.39697 0.72896 0.48785 0.0
H715 H 0.41856 0.67466 0.48774 0.0
H716 H 0.40307 0.69967 0.50791 0.0
H717 H 0.27307 0.67879 0.44705 0.0
H718 H 0.23099 0.64496 0.45646 0.0
H719 H 0.28143 0.62123 0.44911 0.0
C720 C 0.33681 0.22687 0.38934 0.0
C721 C 0.33751 0.25503 0.4036 0.0
C722 C 0.30125 0.22669 0.37785 0.0
C723 C 0.26639 0.25645 0.3804 0.0
C724 C 0.26779 0.286 0.39447 0.0
C725 C 0.30299 0.28438 0.40609 0.0
C726 C 0.30044 0.19388 0.36328 0.0
C727 C 0.23207 0.31923 0.39728 0.0
C728 C 0.19484 0.27771 0.34115 0.0
C729 C 0.15773 0.25278 0.34499 0.0
C730 C 0.2298 0.28046 0.35283 0.0
C731 C 0.22826 0.25627 0.36843 0.0
C732 C 0.19068 0.23112 0.37239 0.0
C733 C 0.15546 0.23033 0.36073 0.0
C734 C 0.26852 0.30891 0.34842 0.0
C735 C 0.18829 0.2039 0.38864 0.0
H736 H 0.36332 0.20386 0.38753 0.0
H737 H 0.30366 0.30631 0.4171 0.0
H738 H 0.27081 0.17315 0.36435 0.0
H739 H 0.29872 0.21096 0.35065 0.0
H740 H 0.32967 0.17242 0.36329 0.0
H741 H 0.23942 0.34162 0.40821 0.0
H742 H 0.22734 0.33895 0.38538 0.0
H743 H 0.20074 0.30241 0.4 0.0
H744 H 0.19643 0.29525 0.32898 0.0
H745 H 0.1269 0.21067 0.36359 0.0
H746 H 0.29799 0.28837 0.34661 0.0
H747 H 0.27545 0.33175 0.35922 0.0
H748 H 0.26314 0.32819 0.33644 0.0
H749 H 0.21543 0.17988 0.38876 0.0
H750 H 0.15688 0.18596 0.38976 0.0
H751 H 0.19228 0.22494 0.4002 0.0
C752 C 0.21106 0.71494 0.58771 0.0
C753 C 0.23902 0.67872 0.5873 0.0
C754 C 0.21414 0.74624 0.60089 0.0
C755 C 0.24628 0.74146 0.61391 0.0
C756 C 0.27508 0.70529 0.61344 0.0
C757 C 0.27095 0.67417 0.60017 0.0
C758 C 0.18249 0.78406 0.60103 0.0
C759 C 0.30999 0.69933 0.62702 0.0
C760 C 0.2721 0.84357 0.64003 0.0
C761 C 0.24667 0.83692 0.65487 0.0
C762 C 0.27341 0.81214 0.62678 0.0
C763 C 0.2483 0.77347 0.62838 0.0
C764 C 0.22312 0.76637 0.64346 0.0
C765 C 0.22279 0.79806 0.65655 0.0
C766 C 0.30101 0.82062 0.61096 0.0
C767 C 0.19557 0.72579 0.6456 0.0
H768 H 0.18629 0.71864 0.5778 0.0
H769 H 0.2928 0.64634 0.59985 0.0
H770 H 0.16279 0.78328 0.61307 0.0
H771 H 0.20061 0.81543 0.60091 0.0
H772 H 0.15993 0.78344 0.58978 0.0
H773 H 0.33103 0.67055 0.62439 0.0
H774 H 0.3309 0.72888 0.62771 0.0
H775 H 0.29464 0.69513 0.63991 0.0
H776 H 0.29079 0.87346 0.63872 0.0
H777 H 0.20305 0.7927 0.66799 0.0
H778 H 0.27972 0.82365 0.59941 0.0
H779 H 0.32335 0.79272 0.60863 0.0
H780 H 0.32076 0.8509 0.61219 0.0
H781 H 0.17029 0.72463 0.63532 0.0
H782 H 0.17904 0.72451 0.65838 0.0
H783 H 0.21609 0.69619 0.64415 0.0
C784 C 0.6537 0.73636 0.39112 0.0
C785 C 0.65917 0.75408 0.40769 0.0
C786 C 0.68887 0.73421 0.37947 0.0
C787 C 0.73026 0.75064 0.38448 0.0
C788 C 0.73593 0.76838 0.40122 0.0
C789 C 0.70039 0.76968 0.41265 0.0
C790 C 0.68168 0.7147 0.36176 0.0
C791 C 0.77938 0.7867 0.40698 0.0
C792 C 0.83185 0.71679 0.35948 0.0
C793 C 0.83709 0.75216 0.34817 0.0
C794 C 0.79701 0.71564 0.37131 0.0
C795 C 0.76721 0.75098 0.37197 0.0
C796 C 0.77287 0.78707 0.36076 0.0
C797 C 0.80756 0.78708 0.34893 0.0
C798 C 0.79176 0.67643 0.38296 0.0
C799 C 0.74221 0.82568 0.36124 0.0
H800 H 0.62195 0.72405 0.38727 0.0
H801 H 0.70481 0.78345 0.42545 0.0
H802 H 0.68741 0.73985 0.35169 0.0
H803 H 0.70539 0.68795 0.35946 0.0
H804 H 0.64809 0.70158 0.36015 0.0
H805 H 0.77861 0.79852 0.42056 0.0
H806 H 0.80516 0.76144 0.40581 0.0
H807 H 0.78888 0.81428 0.39846 0.0
H808 H 0.85446 0.68962 0.35884 0.0
H809 H 0.81155 0.81457 0.34024 0.0
H810 H 0.75942 0.66107 0.38073 0.0
H811 H 0.79284 0.68674 0.39671 0.0
H812 H 0.81756 0.65154 0.38078 0.0
H813 H 0.70845 0.81488 0.35828 0.0
H814 H 0.7516 0.8515 0.35186 0.0
H815 H 0.7418 0.84011 0.37441 0.0
C816 C 0.75802 0.14702 0.63352 0.0
C817 C 0.73117 0.14944 0.64813 0.0
C818 C 0.75789 0.18054 0.62114 0.0
C819 C 0.72885 0.21623 0.62312 0.0
C820 C 0.70003 0.21748 0.63744 0.0
C821 C 0.70231 0.18453 0.65001 0.0
C822 C 0.79021 0.17877 0.60641 0.0
C823 C 0.66733 0.25395 0.63962 0.0
C824 C 0.75809 0.3244 0.60205 0.0
C825 C 0.73609 0.32116 0.58625 0.0
C826 C 0.75618 0.29031 0.61416 0.0
C827 C 0.73007 0.25312 0.61062 0.0
C828 C 0.70624 0.25074 0.59496 0.0
C829 C 0.7104 0.2844 0.58275 0.0
C830 C 0.7833 0.2934 0.63043 0.0
C831 C 0.6766 0.21258 0.59105 0.0
H832 H 0.78073 0.12005 0.63226 0.0
H833 H 0.68151 0.18615 0.66135 0.0
H834 H 0.77287 0.18004 0.59383 0.0
H835 H 0.81209 0.20764 0.60699 0.0
H836 H 0.81057 0.14877 0.60674 0.0
H837 H 0.64418 0.24759 0.65039 0.0
H838 H 0.68464 0.28504 0.64228 0.0
H839 H 0.6484 0.2585 0.62751 0.0
H840 H 0.77833 0.35275 0.60459 0.0
H841 H 0.69326 0.28221 0.5705 0.0
H842 H 0.8061 0.26529 0.63112 0.0
H843 H 0.76196 0.29176 0.64199 0.0
H844 H 0.8026 0.32409 0.63103 0.0
H845 H 0.6962 0.18237 0.5896 0.0
H846 H 0.65743 0.2176 0.57901 0.0
H847 H 0.65361 0.20724 0.60195 0.0
C848 C 0.16811 0.21332 0.89334 0.0
C849 C 0.17245 0.24101 0.90767 0.0
C850 C 0.20138 0.21049 0.88084 0.0
C851 C 0.23944 0.23645 0.88264 0.0
C852 C 0.2442 0.26386 0.89725 0.0
C853 C 0.2108 0.26558 0.90962 0.0
C854 C 0.19544 0.18047 0.86554 0.0
C855 C 0.28396 0.29252 0.89955 0.0
C856 C 0.34322 0.21465 0.85692 0.0
C857 C 0.33919 0.24504 0.84347 0.0
C858 C 0.3103 0.21036 0.8695 0.0
C859 C 0.27296 0.23762 0.86871 0.0
C860 C 0.2687 0.2681 0.85506 0.0
C861 C 0.30168 0.2712 0.84256 0.0
C862 C 0.31566 0.1771 0.88374 0.0
C863 C 0.22979 0.29827 0.85388 0.0
H864 H 0.13865 0.19404 0.89184 0.0
H865 H 0.21439 0.28706 0.92068 0.0
H866 H 0.19277 0.20003 0.85351 0.0
H867 H 0.22432 0.1589 0.86411 0.0
H868 H 0.16574 0.15984 0.86676 0.0
H869 H 0.28345 0.31065 0.912 0.0
H870 H 0.31412 0.27254 0.89904 0.0
H871 H 0.28577 0.31652 0.88882 0.0
H872 H 0.37203 0.19416 0.8576 0.0
H873 H 0.2984 0.29482 0.8322 0.0
H874 H 0.28648 0.15566 0.88437 0.0
H875 H 0.31838 0.19393 0.8964 0.0
H876 H 0.34509 0.15643 0.88188 0.0
H877 H 0.1991 0.27904 0.85359 0.0
H878 H 0.23091 0.31939 0.84221 0.0
H879 H 0.22851 0.31951 0.8655 0.0
C880 C 0.22655 0.67157 0.15056 0.0
C881 C 0.26027 0.67384 0.16279 0.0
C882 C 0.22247 0.70348 0.13758 0.0
C883 C 0.2532 0.73801 0.13673 0.0
C884 C 0.28727 0.74038 0.14907 0.0
C885 C 0.29022 0.70843 0.162 0.0
C886 C 0.18547 0.70016 0.12474 0.0
C887 C 0.32103 0.77633 0.14847 0.0
C888 C 0.2742 0.79568 0.09412 0.0
C889 C 0.2529 0.83571 0.09663 0.0
C890 C 0.27369 0.76325 0.10692 0.0
C891 C 0.25102 0.77087 0.12258 0.0
C892 C 0.22846 0.81078 0.12502 0.0
C893 C 0.22984 0.84287 0.11203 0.0
C894 C 0.29845 0.72131 0.10386 0.0
C895 C 0.20361 0.81989 0.1415 0.0
H896 H 0.20317 0.64503 0.15119 0.0
H897 H 0.3164 0.7103 0.1714 0.0
H898 H 0.16612 0.73078 0.12479 0.0
H899 H 0.19875 0.69601 0.1115 0.0
H900 H 0.16331 0.67234 0.12759 0.0
H901 H 0.34514 0.77379 0.15916 0.0
H902 H 0.33886 0.77513 0.13599 0.0
H903 H 0.30485 0.80866 0.14926 0.0
H904 H 0.29205 0.7899 0.08224 0.0
H905 H 0.21314 0.87368 0.11399 0.0
H906 H 0.27647 0.69284 0.10556 0.0
H907 H 0.32507 0.71817 0.11352 0.0
H908 H 0.313 0.71979 0.09071 0.0
H909 H 0.18011 0.7931 0.14412 0.0
H910 H 0.18545 0.85124 0.14093 0.0
H911 H 0.22662 0.82116 0.15257 0.0
C912 C 0.83484 0.78452 0.89511 0.0
C913 C 0.83264 0.75095 0.9074 0.0
C914 C 0.80165 0.78976 0.8827 0.0
C915 C 0.766 0.76023 0.88244 0.0
C916 C 0.76371 0.72638 0.89486 0.0
C917 C 0.79685 0.72239 0.90725 0.0
C918 C 0.80483 0.82662 0.86981 0.0
C919 C 0.7267 0.69373 0.89485 0.0
C920 C 0.65903 0.78391 0.85923 0.0
C921 C 0.66437 0.75997 0.84393 0.0
C922 C 0.69263 0.78592 0.87162 0.0
C923 C 0.7321 0.76294 0.86868 0.0
C924 C 0.73793 0.73957 0.85307 0.0
C925 C 0.70412 0.73859 0.84086 0.0
C926 C 0.68548 0.81167 0.88802 0.0
C927 C 0.77926 0.71416 0.84953 0.0
H928 H 0.86231 0.80685 0.89527 0.0
H929 H 0.79504 0.6963 0.9167 0.0
H930 H 0.80787 0.81319 0.85654 0.0
H931 H 0.7746 0.84656 0.87014 0.0
H932 H 0.83327 0.84823 0.87235 0.0
H933 H 0.72942 0.66973 0.90557 0.0
H934 H 0.69495 0.71088 0.89603 0.0
H935 H 0.72629 0.67567 0.88241 0.0
H936 H 0.62846 0.80072 0.86161 0.0
H937 H 0.70851 0.72005 0.82904 0.0
H938 H 0.71325 0.83427 0.89026 0.0
H939 H 0.68404 0.7891 0.89923 0.0
H940 H 0.65475 0.83091 0.88764 0.0
H941 H 0.80821 0.73567 0.85085 0.0
H942 H 0.77951 0.69948 0.83639 0.0
H943 H 0.78271 0.68758 0.85918 0.0
C944 C 0.74613 0.15386 0.11262 0.0
C945 C 0.77063 0.15512 0.09736 0.0
C946 C 0.74707 0.18898 0.12428 0.0
C947 C 0.77459 0.22522 0.12089 0.0
C948 C 0.8011 0.22545 0.10588 0.0
C949 C 0.79799 0.19079 0.09407 0.0
C950 C 0.71721 0.18815 0.13983 0.0
C951 C 0.83222 0.26254 0.10218 0.0
C952 C 0.74503 0.33474 0.1408 0.0
C953 C 0.76945 0.33396 0.15608 0.0
C954 C 0.74639 0.29948 0.1292 0.0
C955 C 0.77425 0.26359 0.13269 0.0
C956 C 0.80057 0.26378 0.14775 0.0
C957 C 0.79707 0.29857 0.15949 0.0
C958 C 0.71673 0.29986 0.1136 0.0
C959 C 0.83202 0.22707 0.15156 0.0
H960 H 0.72457 0.1264 0.11498 0.0
H961 H 0.81699 0.19152 0.08223 0.0
H962 H 0.73649 0.19134 0.1519 0.0
H963 H 0.69451 0.21636 0.13929 0.0
H964 H 0.69767 0.15763 0.14054 0.0
H965 H 0.8537 0.25556 0.09093 0.0
H966 H 0.81356 0.29277 0.09943 0.0
H967 H 0.85297 0.26906 0.11366 0.0
H968 H 0.7233 0.36199 0.13833 0.0
H969 H 0.81606 0.29822 0.17133 0.0
H970 H 0.69452 0.27122 0.11405 0.0
H971 H 0.73624 0.29712 0.10157 0.0
H972 H 0.69666 0.33001 0.11286 0.0
H973 H 0.81367 0.19656 0.15418 0.0
H974 H 0.85311 0.23424 0.16291 0.0
H975 H 0.85318 0.22091 0.14016 0.0
C976 C 0.01528 0.89092 0.31312 0.0
C977 C 0.97747 0.87851 0.30416 0.0
C978 C 0.03053 0.93403 0.31256 0.0
C979 C 0.00697 0.96558 0.303 0.0
C980 C 0.96941 0.95299 0.29353 0.0
C981 C 0.95525 0.9094 0.29412 0.0
C982 C 0.07105 0.94607 0.32263 0.0
C983 C 0.94322 0.98588 0.28333 0.0
C984 C 0.01453 0.0825 0.31863 0.0
C985 C 0.04268 0.10119 0.3064 0.0
C986 C 0.00257 0.03846 0.31758 0.0
C987 C 0.01961 0.0123 0.30409 0.0
C988 C 0.0487 0.03073 0.29187 0.0
C989 C 0.05973 0.07515 0.29311 0.0
C990 C 0.97124 0.02005 0.33081 0.0
C991 C 0.06795 0.00359 0.27747 0.0
H992 H 0.03284 0.86695 0.32075 0.0
H993 H 0.92604 0.89983 0.28716 0.0
H994 H 0.09439 0.96389 0.31422 0.0
H995 H 0.0622 0.96822 0.33343 0.0
H996 H 0.08776 0.91698 0.32809 0.0
H997 H 0.91652 0.97033 0.2758 0.0
H998 H 0.92865 0.01014 0.29229 0.0
H999 H 0.96475 0.004 0.2743 0.0
H1000 H 0.00108 0.10255 0.32888 0.0
H1001 H 0.0815 0.08953 0.28363 0.0
H1002 H 0.98686 0.9927 0.33789 0.0
H1003 H 0.94192 0.00672 0.32423 0.0
H1004 H 0.96055 0.04495 0.34036 0.0
H1005 H 0.08571 0.97521 0.28294 0.0
H1006 H 0.09082 0.02262 0.26924 0.0
H1007 H 0.04146 0.99047 0.26917 0.0
C1008 C 0.90034 0.00679 0.6732 0.0
C1009 C 0.88548 0.03901 0.68466 0.0
C1010 C 0.94398 0.99309 0.67336 0.0
C1011 C 0.97352 0.01244 0.68515 0.0
C1012 C 0.95908 0.04603 0.69637 0.0
C1013 C 0.91506 0.05879 0.69605 0.0
C1014 C 0.95813 0.95701 0.66128 0.0
C1015 C 0.98989 0.06777 0.70896 0.0
C1016 C 0.07335 0.94735 0.69849 0.0
C1017 C 0.10573 0.96562 0.68794 0.0
C1018 C 0.03008 0.96219 0.69765 0.0
C1019 C 0.01919 0.99643 0.68613 0.0
C1020 C 0.05176 0.01493 0.67541 0.0
C1021 C 0.09464 -0.0009 0.67638 0.0
C1022 C 0.99603 0.94129 0.70911 0.0
C1023 C 0.04138 0.05172 0.66307 0.0
H1024 H 0.87756 0.99132 0.66438 0.0
H1025 H 0.90368 0.08377 0.7049 0.0
H1026 H 0.98619 0.96794 0.65331 0.0
H1027 H 0.96921 0.92839 0.6689 0.0
H1028 H 0.93142 0.94638 0.65251 0.0
H1029 H 0.9741 0.09499 0.7161 0.0
H1030 H 0.00184 0.04344 0.71847 0.0
H1031 H 0.01885 0.08068 0.70201 0.0
H1032 H 0.08184 0.92145 0.70744 0.0
H1033 H 0.11968 0.01351 0.66827 0.0
H1034 H 0.96924 0.9277 0.70108 0.0
H1035 H 0.98142 0.96621 0.71777 0.0
H1036 H 0.00976 0.91464 0.7172 0.0
H1037 H 0.016 0.04118 0.65372 0.0
H1038 H 0.07057 0.06275 0.65574 0.0
H1039 H 0.02794 0.07993 0.67033 0.0
C1040 C 0.05972 0.419 0.94748 0.0
C1041 C 0.04267 0.3866 0.93662 0.0
C1042 C 0.04467 0.46214 0.9465 0.0
C1043 C 0.01153 0.47291 0.93446 0.0
C1044 C 0.9951 0.44061 0.92311 0.0
C1045 C 0.01104 0.39778 0.92428 0.0
C1046 C 0.06332 0.49588 0.95869 0.0
C1047 C 0.95962 0.45091 0.91018 0.0
C1048 C 0.94215 0.57042 0.94677 0.0
C1049 C 0.96086 0.60356 0.93673 0.0
C1050 C 0.95744 0.52738 0.94572 0.0
C1051 C 0.99254 0.51747 0.93447 0.0
C1052 C 0.01075 0.55056 0.92393 0.0
C1053 C 0.99452 0.59327 0.92513 0.0
C1054 C 0.93686 0.49279 0.95701 0.0
C1055 C 0.04837 0.54119 0.91186 0.0
H1056 H 0.08433 0.4105 0.95698 0.0
H1057 H 0.99774 0.37277 0.91586 0.0
H1058 H 0.07503 0.52467 0.95131 0.0
H1059 H 0.03745 0.50741 0.96763 0.0
H1060 H 0.09085 0.48284 0.96649 0.0
H1061 H 0.95235 0.42279 0.90156 0.0
H1062 H 0.92926 0.46006 0.91712 0.0
H1063 H 0.9692 0.47924 0.90208 0.0
H1064 H 0.91598 0.57825 0.95569 0.0
H1065 H 0.00913 0.61886 0.91736 0.0
H1066 H 0.96121 0.48059 0.96647 0.0
H1067 H 0.92641 0.46455 0.94903 0.0
H1068 H 0.9081 0.50528 0.96424 0.0
H1069 H 0.0775 0.53154 0.91949 0.0
H1070 H 0.05704 0.56991 0.90378 0.0
H1071 H 0.04025 0.51345 0.90321 0.0
C1072 C 0.42627 0.94677 0.0519 0.0
C1073 C 0.39441 0.96555 0.06256 0.0
C1074 C 0.46952 0.9619 0.05222 0.0
C1075 C 0.48084 0.99706 0.06324 0.0
C1076 C 0.44874 0.01621 0.07399 0.0
C1077 C 0.40594 -4e-05 0.07362 0.0
C1078 C 0.5031 0.94021 0.04079 0.0
C1079 C 0.45951 0.05408 0.08576 0.0
C1080 C 0.59989 0.0091 0.07565 0.0
C1081 C 0.61444 0.04037 0.06372 0.0
C1082 C 0.55636 0.99504 0.07574 0.0
C1083 C 0.52653 0.0132 0.06377 0.0
C1084 C 0.54066 0.04586 0.05207 0.0
C1085 C 0.58464 0.05886 0.05209 0.0
C1086 C 0.54262 0.95983 0.0883 0.0
C1087 C 0.5095 0.06645 0.03932 0.0
H1088 H 0.41741 0.92017 0.04334 0.0
H1089 H 0.38127 0.01482 0.08177 0.0
H1090 H 0.51732 0.96448 0.03174 0.0
H1091 H 0.53025 0.92731 0.0488 0.0
H1092 H 0.48908 0.91292 0.03312 0.0
H1093 H 0.43054 0.06583 0.09305 0.0
H1094 H 0.48509 0.04434 0.09515 0.0
H1095 H 0.47285 0.0816 0.07806 0.0
H1096 H 0.62286 0.99455 0.08463 0.0
H1097 H 0.5958 0.08309 0.04287 0.0
H1098 H 0.53113 0.93072 0.08106 0.0
H1099 H 0.51493 0.97137 0.09633 0.0
H1100 H 0.56966 0.94975 0.09701 0.0
H1101 H 0.49733 0.04132 0.03018 0.0
H1102 H 0.52507 0.0931 0.03177 0.0
H1103 H 0.48071 0.07989 0.04622 0.0
C1104 C 0.49832 0.40384 0.82444 0.0
C1105 C 0.4646 0.3923 0.81305 0.0
C1106 C 0.51292 0.44715 0.82561 0.0
C1107 C 0.49291 0.47961 0.81528 0.0
C1108 C 0.45789 0.46836 0.80418 0.0
C1109 C 0.44432 0.42472 0.80312 0.0
C1110 C 0.5506 0.45791 0.83747 0.0
C1111 C 0.43539 0.50225 0.79315 0.0
C1112 C 0.50678 0.59939 0.82649 0.0
C1113 C 0.53765 0.6126 0.81416 0.0
C1114 C 0.49241 0.55594 0.82723 0.0
C1115 C 0.50974 0.52505 0.81548 0.0
C1116 C 0.54202 0.53793 0.80341 0.0
C1117 C 0.55543 0.58167 0.80283 0.0
C1118 C 0.45772 0.54341 0.8402 0.0
C1119 C 0.56164 0.50574 0.79081 0.0
H1120 H 0.51417 0.3788 0.8321 0.0
H1121 H 0.4181 0.41591 0.79436 0.0
H1122 H 0.57874 0.46972 0.82972 0.0
H1123 H 0.54136 0.48459 0.84645 0.0
H1124 H 0.5613 0.42926 0.84519 0.0
H1125 H 0.40709 0.48859 0.78596 0.0
H1126 H 0.42379 0.52966 0.80132 0.0
H1127 H 0.45888 0.51598 0.78367 0.0
H1128 H 0.49286 0.62328 0.83524 0.0
H1129 H 0.57943 0.59176 0.79333 0.0
H1130 H 0.46893 0.51543 0.84815 0.0
H1131 H 0.42777 0.53279 0.83329 0.0
H1132 H 0.4491 0.57085 0.84895 0.0
H1133 H 0.575 0.47717 0.79787 0.0
H1134 H 0.58817 0.52046 0.78293 0.0
H1135 H 0.53593 0.49342 0.78195 0.0
C1136 C 0.59975 0.48174 0.177 0.0
C1137 C 0.61476 0.45284 0.18975 0.0
C1138 C 0.55671 0.49726 0.17721 0.0
C1139 C 0.52795 0.48319 0.1904 0.0
C1140 C 0.54235 0.45254 0.20287 0.0
C1141 C 0.58574 0.43785 0.20244 0.0
C1142 C 0.54257 0.53003 0.16373 0.0
C1143 C 0.51236 0.43638 0.21698 0.0
C1144 C 0.43447 0.55772 0.20316 0.0
C1145 C 0.39925 0.53847 0.19448 0.0
C1146 C 0.47664 0.54023 0.2018 0.0
C1147 C 0.48353 0.50232 0.19167 0.0
C1148 C 0.44811 0.48287 0.1828 0.0
C1149 C 0.40637 0.50136 0.18423 0.0
C1150 C 0.51379 0.56218 0.21128 0.0
C1151 C 0.45419 0.44223 0.17201 0.0
H1152 H 0.62208 0.49345 0.16715 0.0
H1153 H 0.5972 0.41541 0.21228 0.0
H1154 H 0.51241 0.51871 0.15716 0.0
H1155 H 0.53486 0.5616 0.17007 0.0
H1156 H 0.56815 0.53575 0.15379 0.0
H1157 H 0.52758 0.41019 0.22488 0.0
H1158 H 0.50355 0.46386 0.22566 0.0
H1159 H 0.48157 0.4237 0.21132 0.0
H1160 H 0.42906 0.58644 0.21108 0.0
H1161 H 0.37913 0.48622 0.17757 0.0
H1162 H 0.53985 0.57142 0.202 0.0
H1163 H 0.52841 0.53914 0.22072 0.0
H1164 H 0.5031 0.59193 0.21832 0.0
H1165 H 0.47868 0.44826 0.16171 0.0
H1166 H 0.42327 0.43126 0.16587 0.0
H1167 H 0.46693 0.41537 0.1802 0.0
C1168 C 0.43234 0.07865 0.44085 0.0
C1169 C 0.45175 0.11072 0.45123 0.0
C1170 C 0.44541 0.03488 0.44203 0.0
C1171 C 0.47936 0.02324 0.45359 0.0
C1172 C 0.49802 0.05528 0.46451 0.0
C1173 C 0.48364 0.09865 0.46332 0.0
C1174 C 0.42405 0.0014 0.43044 0.0
C1175 C 0.53476 0.04426 0.47679 0.0
C1176 C 0.49651 0.903 0.46342 0.0
C1177 C 0.52804 0.89176 0.45106 0.0
C1178 C 0.48057 0.94586 0.46456 0.0
C1179 C 0.49736 0.97823 0.45331 0.0
C1180 C 0.53047 0.96732 0.44127 0.0
C1181 C 0.54503 0.92403 0.44015 0.0
C1182 C 0.44468 0.95612 0.47731 0.0
C1183 C 0.54987 0.00117 0.42931 0.0
H1184 H 0.40754 0.08794 0.43154 0.0
H1185 H 0.49891 0.12348 0.47128 0.0
H1186 H 0.448 0.98958 0.42075 0.0
H1187 H 0.41336 0.97274 0.43813 0.0
H1188 H 0.39535 0.01489 0.42347 0.0
H1189 H 0.54361 0.07222 0.48524 0.0
H1190 H 0.52566 0.01611 0.48506 0.0
H1191 H 0.56407 0.03455 0.46927 0.0
H1192 H 0.48306 0.87793 0.47177 0.0
H1193 H 0.56955 0.91535 0.43063 0.0
H1194 H 0.41486 0.9663 0.47023 0.0
H1195 H 0.45441 0.98379 0.48573 0.0
H1196 H 0.43645 0.92768 0.48562 0.0
H1197 H 0.5244 0.01337 0.42033 0.0
H1198 H 0.57738 0.98798 0.42154 0.0
H1199 H 0.56182 0.02955 0.43688 0.0
C1200 C 0.91983 0.43146 0.54289 0.0
C1201 C 0.88828 0.44549 0.55478 0.0
C1202 C 0.96242 0.44841 0.54333 0.0
C1203 C 0.97341 0.48034 0.55586 0.0
C1204 C 0.94207 0.4935 0.56824 0.0
C1205 C 0.89992 0.47576 0.56759 0.0
C1206 C 0.99523 0.43321 0.53006 0.0
C1207 C 0.95252 0.52758 0.58175 0.0
C1208 C 0.0929 0.50481 0.56459 0.0
C1209 C 0.09975 0.5417 0.55419 0.0
C1210 C 0.0519 0.48443 0.56528 0.0
C1211 C 0.01694 0.50167 0.55546 0.0
C1212 C 0.02346 0.53946 0.54522 0.0
C1213 C 0.06491 0.55891 0.54464 0.0
C1214 C 0.04619 0.44405 0.57626 0.0
C1215 C 0.98676 0.55909 0.53475 0.0
H1216 H 0.91097 0.408 0.53299 0.0
H1217 H 0.87564 0.48673 0.57682 0.0
H1218 H 0.00402 0.46076 0.52141 0.0
H1219 H 0.02566 0.4223 0.53653 0.0
H1220 H 0.98249 0.40599 0.52201 0.0
H1221 H 0.92524 0.53246 0.59101 0.0
H1222 H 0.98215 0.51812 0.5891 0.0
H1223 H 0.95963 0.55921 0.57534 0.0
H1224 H 0.11985 0.49124 0.57192 0.0
H1225 H 0.0701 0.58742 0.5366 0.0
H1226 H 0.03626 0.41614 0.56799 0.0
H1227 H 0.01978 0.44922 0.58586 0.0
H1228 H 0.07657 0.43508 0.58326 0.0
H1229 H 0.97479 0.53498 0.52514 0.0
H1230 H 0.99699 0.58911 0.52777 0.0
H1231 H 0.9589 0.5673 0.54333 0.0
loop_
_geom_bond_atom_site_label_1
_geom_bond_atom_site_label_2
_geom_bond_distance
_geom_bond_site_symmetry_2
_ccdc_geom_bond_type
In0 O1 2.294 . S
In0 O2 2.326 . S
In0 O6 2.266 . S
In0 O7 2.326 . S
In0 O8 2.266 . S
In0 O9 2.326 . S
In0 O11 2.294 . S
In0 O12 2.326 . S
O1 In0 2.294 . S
O1 C10 1.240 . S
O2 In0 2.326 . S
O2 C10 1.252 . S
C3 O6 1.256 . S
C3 O7 1.267 . S
C4 O11 1.240 . S
C4 O12 1.252 . S
C5 O8 1.252 . S
C5 O9 1.260 . S
O6 In0 2.266 . S
O6 C3 1.256 . S
O7 In0 2.326 . S
O7 C3 1.267 . S
O8 In0 2.266 . S
O8 C5 1.252 . S
O9 In0 2.326 . S
O9 C5 1.260 . S
C10 O1 1.240 . S
C10 O2 1.252 . S
O11 In0 2.294 . S
O11 C4 1.240 . S
O12 In0 2.326 . S
O12 C4 1.252 . S
In13 O14 2.294 . S
In13 O15 2.326 . S
In13 O19 2.266 . S
In13 O20 2.326 . S
In13 O21 2.266 . S
In13 O22 2.326 . S
In13 O24 2.294 . S
In13 O25 2.326 . S
O14 In13 2.294 . S
O14 C23 1.240 . S
O15 In13 2.326 . S
O15 C23 1.252 . S
C16 O19 1.256 . S
C16 O20 1.267 . S
C17 O24 1.240 . S
C17 O25 1.252 . S
C18 O21 1.252 . S
C18 O22 1.260 . S
O19 In13 2.266 . S
O19 C16 1.256 . S
O20 In13 2.326 . S
O20 C16 1.267 . S
O21 In13 2.266 . S
O21 C18 1.252 . S
O22 In13 2.326 . S
O22 C18 1.260 . S
C23 O14 1.240 . S
C23 O15 1.252 . S
O24 In13 2.294 . S
O24 C17 1.240 . S
O25 In13 2.326 . S
O25 C17 1.252 . S
In26 O27 2.294 . S
In26 O28 2.326 . S
In26 O32 2.266 . S
In26 O33 2.326 . S
In26 O34 2.266 . S
In26 O35 2.326 . S
In26 O37 2.294 . S
In26 O38 2.326 . S
O27 In26 2.294 . S
O27 C36 1.240 . S
O28 In26 2.326 . S
O28 C36 1.252 . S
C29 O32 1.252 . S
C29 O33 1.260 . S
C30 O37 1.240 . S
C30 O38 1.252 . S
C31 O34 1.256 . S
C31 O35 1.267 . S
O32 In26 2.266 . S
O32 C29 1.252 . S
O33 In26 2.326 . S
O33 C29 1.260 . S
O34 In26 2.266 . S
O34 C31 1.256 . S
O35 In26 2.326 . S
O35 C31 1.267 . S
C36 O27 1.240 . S
C36 O28 1.252 . S
O37 In26 2.294 . S
O37 C30 1.240 . S
O38 In26 2.326 . S
O38 C30 1.252 . S
In39 O40 2.294 . S
In39 O41 2.326 . S
In39 O45 2.266 . S
In39 O46 2.326 . S
In39 O47 2.266 . S
In39 O48 2.326 . S
In39 O50 2.294 . S
In39 O51 2.326 . S
O40 In39 2.294 . S
O40 C49 1.240 . S
O41 In39 2.326 . S
O41 C49 1.252 . S
C42 O45 1.252 . S
C42 O46 1.260 . S
C43 O50 1.240 . S
C43 O51 1.252 . S
C44 O47 1.256 . S
C44 O48 1.267 . S
O45 In39 2.266 . S
O45 C42 1.252 . S
O46 In39 2.326 . S
O46 C42 1.260 . S
O47 In39 2.266 . S
O47 C44 1.256 . S
O48 In39 2.326 . S
O48 C44 1.267 . S
C49 O40 1.240 . S
C49 O41 1.252 . S
O50 In39 2.294 . S
O50 C43 1.240 . S
O51 In39 2.326 . S
O51 C43 1.252 . S
In52 O53 2.294 . S
In52 O54 2.326 . S
In52 O58 2.266 . S
In52 O59 2.326 . S
In52 O60 2.266 . S
In52 O61 2.326 . S
In52 O63 2.294 . S
In52 O64 2.326 . S
O53 In52 2.294 . S
O53 C62 1.240 . S
O54 In52 2.326 . S
O54 C62 1.252 . S
C55 O58 1.256 . S
C55 O59 1.266 . S
C56 O63 1.240 . S
C56 O64 1.252 . S
C57 O60 1.252 . S
C57 O61 1.260 . S
O58 In52 2.266 . S
O58 C55 1.256 . S
O59 In52 2.326 . S
O59 C55 1.266 . S
O60 In52 2.266 . S
O60 C57 1.252 . S
O61 In52 2.326 . S
O61 C57 1.260 . S
C62 O53 1.240 . S
C62 O54 1.252 . S
O63 In52 2.294 . S
O63 C56 1.240 . S
O64 In52 2.326 . S
O64 C56 1.252 . S
In65 O66 2.294 . S
In65 O67 2.326 . S
In65 O71 2.266 . S
In65 O72 2.326 . S
In65 O73 2.266 . S
In65 O74 2.326 . S
In65 O76 2.294 . S
In65 O77 2.326 . S
O66 In65 2.294 . S
O66 C75 1.240 . S
O67 In65 2.326 . S
O67 C75 1.252 . S
C68 O71 1.256 . S
C68 O72 1.266 . S
C69 O76 1.240 . S
C69 O77 1.252 . S
C70 O73 1.252 . S
C70 O74 1.260 . S
O71 In65 2.266 . S
O71 C68 1.256 . S
O72 In65 2.326 . S
O72 C68 1.266 . S
O73 In65 2.266 . S
O73 C70 1.252 . S
O74 In65 2.326 . S
O74 C70 1.260 . S
C75 O66 1.240 . S
C75 O67 1.252 . S
O76 In65 2.294 . S
O76 C69 1.240 . S
O77 In65 2.326 . S
O77 C69 1.252 . S
In78 O79 2.294 . S
In78 O80 2.326 . S
In78 O84 2.266 . S
In78 O85 2.326 . S
In78 O86 2.266 . S
In78 O87 2.326 . S
In78 O89 2.294 . S
In78 O90 2.326 . S
O79 In78 2.294 . S
O79 C88 1.240 . S
O80 In78 2.326 . S
O80 C88 1.252 . S
C81 O84 1.252 . S
C81 O85 1.260 . S
C82 O89 1.240 . S
C82 O90 1.252 . S
C83 O86 1.256 . S
C83 O87 1.266 . S
O84 In78 2.266 . S
O84 C81 1.252 . S
O85 In78 2.326 . S
O85 C81 1.260 . S
O86 In78 2.266 . S
O86 C83 1.256 . S
O87 In78 2.326 . S
O87 C83 1.266 . S
C88 O79 1.240 . S
C88 O80 1.252 . S
O89 In78 2.294 . S
O89 C82 1.240 . S
O90 In78 2.326 . S
O90 C82 1.252 . S
In91 O92 2.294 . S
In91 O93 2.326 . S
In91 O97 2.266 . S
In91 O98 2.326 . S
In91 O99 2.266 . S
In91 O100 2.326 . S
In91 O102 2.294 . S
In91 O103 2.326 . S
O92 In91 2.294 . S
O92 C101 1.240 . S
O93 In91 2.326 . S
O93 C101 1.252 . S
C94 O97 1.252 . S
C94 O98 1.260 . S
C95 O102 1.240 . S
C95 O103 1.252 . S
C96 O99 1.256 . S
C96 O100 1.266 . S
O97 In91 2.266 . S
O97 C94 1.252 . S
O98 In91 2.326 . S
O98 C94 1.260 . S
O99 In91 2.266 . S
O99 C96 1.256 . S
O100 In91 2.326 . S
O100 C96 1.266 . S
C101 O92 1.240 . S
C101 O93 1.252 . S
O102 In91 2.294 . S
O102 C95 1.240 . S
O103 In91 2.326 . S
O103 C95 1.252 . S
In104 O105 2.294 . S
In104 O106 2.326 . S
In104 O110 2.266 . S
In104 O111 2.326 . S
In104 O112 2.266 . S
In104 O113 2.326 . S
In104 O115 2.294 . S
In104 O116 2.326 . S
O105 In104 2.294 . S
O105 C114 1.240 . S
O106 In104 2.326 . S
O106 C114 1.252 . S
C107 O110 1.252 . S
C107 O111 1.260 . S
C108 O115 1.240 . S
C108 O116 1.252 . S
C109 O112 1.252 . S
C109 O113 1.260 . S
O110 In104 2.266 . S
O110 C107 1.252 . S
O111 In104 2.326 . S
O111 C107 1.260 . S
O112 In104 2.266 . S
O112 C109 1.252 . S
O113 In104 2.326 . S
O113 C109 1.260 . S
C114 O105 1.240 . S
C114 O106 1.252 . S
O115 In104 2.294 . S
O115 C108 1.240 . S
O116 In104 2.326 . S
O116 C108 1.252 . S
In117 O118 2.294 . S
In117 O119 2.326 . S
In117 O123 2.266 . S
In117 O124 2.326 . S
In117 O125 2.266 . S
In117 O126 2.326 . S
In117 O128 2.294 . S
In117 O129 2.326 . S
O118 In117 2.294 . S
O118 C127 1.240 . S
O119 In117 2.326 . S
O119 C127 1.252 . S
C120 O123 1.252 . S
C120 O124 1.260 . S
C121 O128 1.240 . S
C121 O129 1.252 . S
C122 O125 1.252 . S
C122 O126 1.260 . S
O123 In117 2.266 . S
O123 C120 1.252 . S
O124 In117 2.326 . S
O124 C120 1.260 . S
O125 In117 2.266 . S
O125 C122 1.252 . S
O126 In117 2.326 . S
O126 C122 1.260 . S
C127 O118 1.240 . S
C127 O119 1.252 . S
O128 In117 2.294 . S
O128 C121 1.240 . S
O129 In117 2.326 . S
O129 C121 1.252 . S
In130 O131 2.294 . S
In130 O132 2.326 . S
In130 O136 2.266 . S
In130 O137 2.326 . S
In130 O138 2.266 . S
In130 O139 2.326 . S
In130 O141 2.294 . S
In130 O142 2.326 . S
O131 In130 2.294 . S
O131 C140 1.240 . S
O132 In130 2.326 . S
O132 C140 1.252 . S
C133 O136 1.252 . S
C133 O137 1.260 . S
C134 O141 1.240 . S
C134 O142 1.252 . S
C135 O138 1.252 . S
C135 O139 1.260 . S
O136 In130 2.266 . S
O136 C133 1.252 . S
O137 In130 2.326 . S
O137 C133 1.260 . S
O138 In130 2.266 . S
O138 C135 1.252 . S
O139 In130 2.326 . S
O139 C135 1.260 . S
C140 O131 1.240 . S
C140 O132 1.252 . S
O141 In130 2.294 . S
O141 C134 1.240 . S
O142 In130 2.326 . S
O142 C134 1.252 . S
In143 O144 2.294 . S
In143 O145 2.326 . S
In143 O149 2.266 . S
In143 O150 2.326 . S
In143 O151 2.266 . S
In143 O152 2.326 . S
In143 O154 2.294 . S
In143 O155 2.326 . S
O144 In143 2.294 . S
O144 C153 1.240 . S
O145 In143 2.326 . S
O145 C153 1.252 . S
C146 O149 1.252 . S
C146 O150 1.260 . S
C147 O154 1.240 . S
C147 O155 1.252 . S
C148 O151 1.252 . S
C148 O152 1.260 . S
O149 In143 2.266 . S
O149 C146 1.252 . S
O150 In143 2.326 . S
O150 C146 1.260 . S
O151 In143 2.266 . S
O151 C148 1.252 . S
O152 In143 2.326 . S
O152 C148 1.260 . S
C153 O144 1.240 . S
C153 O145 1.252 . S
O154 In143 2.294 . S
O154 C147 1.240 . S
O155 In143 2.326 . S
O155 C147 1.252 . S
In156 O157 2.294 . S
In156 O158 2.326 . S
In156 O162 2.266 . S
In156 O163 2.326 . S
In156 O164 2.266 . S
In156 O165 2.326 . S
In156 O167 2.294 . S
In156 O168 2.326 . S
O157 In156 2.294 . S
O157 C166 1.240 . S
O158 In156 2.326 . S
O158 C166 1.252 . S
C159 O162 1.252 . S
C159 O163 1.260 . S
C160 O167 1.240 . S
C160 O168 1.252 . S
C161 O164 1.252 . S
C161 O165 1.260 . S
O162 In156 2.266 . S
O162 C159 1.252 . S
O163 In156 2.326 . S
O163 C159 1.260 . S
O164 In156 2.266 . S
O164 C161 1.252 . S
O165 In156 2.326 . S
O165 C161 1.260 . S
C166 O157 1.240 . S
C166 O158 1.252 . S
O167 In156 2.294 . S
O167 C160 1.240 . S
O168 In156 2.326 . S
O168 C160 1.252 . S
In169 O170 2.294 . S
In169 O171 2.326 . S
In169 O175 2.266 . S
In169 O176 2.326 . S
In169 O177 2.266 . S
In169 O178 2.326 . S
In169 O180 2.294 . S
In169 O181 2.326 . S
O170 In169 2.294 . S
O170 C179 1.240 . S
O171 In169 2.326 . S
O171 C179 1.252 . S
C172 O175 1.252 . S
C172 O176 1.260 . S
C173 O180 1.240 . S
C173 O181 1.252 . S
C174 O177 1.252 . S
C174 O178 1.260 . S
O175 In169 2.266 . S
O175 C172 1.252 . S
O176 In169 2.326 . S
O176 C172 1.260 . S
O177 In169 2.266 . S
O177 C174 1.252 . S
O178 In169 2.326 . S
O178 C174 1.260 . S
C179 O170 1.240 . S
C179 O171 1.252 . S
O180 In169 2.294 . S
O180 C173 1.240 . S
O181 In169 2.326 . S
O181 C173 1.252 . S
In182 O183 2.294 . S
In182 O184 2.326 . S
In182 O188 2.266 . S
In182 O189 2.326 . S
In182 O190 2.266 . S
In182 O191 2.326 . S
In182 O193 2.294 . S
In182 O194 2.326 . S
O183 In182 2.294 . S
O183 C192 1.240 . S
O184 In182 2.326 . S
O184 C192 1.252 . S
C185 O188 1.252 . S
C185 O189 1.260 . S
C186 O193 1.240 . S
C186 O194 1.252 . S
C187 O190 1.252 . S
C187 O191 1.260 . S
O188 In182 2.266 . S
O188 C185 1.252 . S
O189 In182 2.326 . S
O189 C185 1.260 . S
O190 In182 2.266 . S
O190 C187 1.252 . S
O191 In182 2.326 . S
O191 C187 1.260 . S
C192 O183 1.240 . S
C192 O184 1.252 . S
O193 In182 2.294 . S
O193 C186 1.240 . S
O194 In182 2.326 . S
O194 C186 1.252 . S
In195 O196 2.294 . S
In195 O197 2.326 . S
In195 O201 2.266 . S
In195 O202 2.326 . S
In195 O203 2.266 . S
In195 O204 2.326 . S
In195 O206 2.294 . S
In195 O207 2.326 . S
O196 In195 2.294 . S
O196 C205 1.240 . S
O197 In195 2.326 . S
O197 C205 1.252 . S
C198 O201 1.252 . S
C198 O202 1.260 . S
C199 O206 1.240 . S
C199 O207 1.252 . S
C200 O203 1.252 . S
C200 O204 1.260 . S
O201 In195 2.266 . S
O201 C198 1.252 . S
O202 In195 2.326 . S
O202 C198 1.260 . S
O203 In195 2.266 . S
O203 C200 1.252 . S
O204 In195 2.326 . S
O204 C200 1.260 . S
C205 O196 1.240 . S
C205 O197 1.252 . S
O206 In195 2.294 . S
O206 C199 1.240 . S
O207 In195 2.326 . S
O207 C199 1.252 . S
C208 C209 1.391 . S
C208 C210 1.394 . S
C208 H224 0.931 . S
C209 C208 1.391 . S
C209 C213 1.376 . S
C210 C208 1.394 . S
C210 C211 1.369 . S
C210 C214 1.531 . S
C211 C210 1.369 . S
C211 C212 1.410 . S
C211 C219 1.503 . S
C212 C211 1.410 . S
C212 C213 1.392 . S
C212 C215 1.511 . S
C213 C209 1.376 . S
C213 C212 1.392 . S
C213 H225 0.929 . S
C214 C210 1.531 . S
C214 H226 0.960 . S
C214 H227 0.962 . S
C214 H228 0.960 . S
C215 C212 1.511 . S
C215 H229 0.961 . S
C215 H230 0.961 . S
C215 H231 0.961 . S
C216 C217 1.370 . S
C216 C218 1.363 . S
C216 H232 0.931 . S
C217 C216 1.370 . S
C217 C221 1.408 . S
C218 C216 1.363 . S
C218 C219 1.370 . S
C218 C222 1.524 . S
C219 C211 1.503 . S
C219 C218 1.370 . S
C219 C220 1.403 . S
C220 C219 1.403 . S
C220 C221 1.404 . S
C220 C223 1.539 . S
C221 C217 1.408 . S
C221 C220 1.404 . S
C221 H233 0.930 . S
C222 C218 1.524 . S
C222 H234 0.956 . S
C222 H235 0.961 . S
C222 H236 0.961 . S
C223 C220 1.539 . S
C223 H237 0.958 . S
C223 H238 0.961 . S
C223 H239 0.960 . S
H224 C208 0.931 . S
H225 C213 0.929 . S
H226 C214 0.960 . S
H227 C214 0.962 . S
H228 C214 0.960 . S
H229 C215 0.961 . S
H230 C215 0.961 . S
H231 C215 0.961 . S
H232 C216 0.931 . S
H233 C221 0.930 . S
H234 C222 0.956 . S
H235 C222 0.961 . S
H236 C222 0.961 . S
H237 C223 0.958 . S
H238 C223 0.961 . S
H239 C223 0.960 . S
C240 C241 1.391 . S
C240 C242 1.394 . S
C240 H256 0.931 . S
C241 C240 1.391 . S
C241 C245 1.376 . S
C242 C240 1.394 . S
C242 C243 1.369 . S
C242 C246 1.531 . S
C243 C242 1.369 . S
C243 C244 1.410 . S
C243 C251 1.503 . S
C244 C243 1.410 . S
C244 C245 1.392 . S
C244 C247 1.511 . S
C245 C241 1.376 . S
C245 C244 1.392 . S
C245 H257 0.929 . S
C246 C242 1.531 . S
C246 H258 0.960 . S
C246 H259 0.962 . S
C246 H260 0.960 . S
C247 C244 1.511 . S
C247 H261 0.961 . S
C247 H262 0.961 . S
C247 H263 0.961 . S
C248 C249 1.370 . S
C248 C250 1.363 . S
C248 H264 0.931 . S
C249 C248 1.370 . S
C249 C253 1.408 . S
C250 C248 1.363 . S
C250 C251 1.370 . S
C250 C254 1.524 . S
C251 C243 1.503 . S
C251 C250 1.370 . S
C251 C252 1.403 . S
C252 C251 1.403 . S
C252 C253 1.404 . S
C252 C255 1.539 . S
C253 C249 1.408 . S
C253 C252 1.404 . S
C253 H265 0.930 . S
C254 C250 1.524 . S
C254 H266 0.956 . S
C254 H267 0.961 . S
C254 H268 0.961 . S
C255 C252 1.539 . S
C255 H269 0.958 . S
C255 H270 0.961 . S
C255 H271 0.960 . S
H256 C240 0.931 . S
H257 C245 0.929 . S
H258 C246 0.960 . S
H259 C246 0.962 . S
H260 C246 0.960 . S
H261 C247 0.961 . S
H262 C247 0.961 . S
H263 C247 0.961 . S
H264 C248 0.931 . S
H265 C253 0.930 . S
H266 C254 0.956 . S
H267 C254 0.961 . S
H268 C254 0.961 . S
H269 C255 0.958 . S
H270 C255 0.961 . S
H271 C255 0.960 . S
C272 C273 1.391 . S
C272 C274 1.394 . S
C272 H288 0.931 . S
C273 C272 1.391 . S
C273 C277 1.376 . S
C274 C272 1.394 . S
C274 C275 1.369 . S
C274 C278 1.531 . S
C275 C274 1.369 . S
C275 C276 1.410 . S
C275 C283 1.503 . S
C276 C275 1.410 . S
C276 C277 1.392 . S
C276 C279 1.511 . S
C277 C273 1.376 . S
C277 C276 1.392 . S
C277 H289 0.929 . S
C278 C274 1.531 . S
C278 H290 0.960 . S
C278 H291 0.962 . S
C278 H292 0.960 . S
C279 C276 1.511 . S
C279 H293 0.961 . S
C279 H294 0.961 . S
C279 H295 0.961 . S
C280 C281 1.370 . S
C280 C282 1.363 . S
C280 H296 0.931 . S
C281 C280 1.370 . S
C281 C285 1.408 . S
C282 C280 1.363 . S
C282 C283 1.370 . S
C282 C286 1.524 . S
C283 C275 1.503 . S
C283 C282 1.370 . S
C283 C284 1.403 . S
C284 C283 1.403 . S
C284 C285 1.404 . S
C284 C287 1.539 . S
C285 C281 1.408 . S
C285 C284 1.404 . S
C285 H297 0.930 . S
C286 C282 1.524 . S
C286 H298 0.956 . S
C286 H299 0.961 . S
C286 H300 0.961 . S
C287 C284 1.539 . S
C287 H301 0.958 . S
C287 H302 0.961 . S
C287 H303 0.960 . S
H288 C272 0.931 . S
H289 C277 0.929 . S
H290 C278 0.960 . S
H291 C278 0.962 . S
H292 C278 0.960 . S
H293 C279 0.961 . S
H294 C279 0.961 . S
H295 C279 0.961 . S
H296 C280 0.931 . S
H297 C285 0.930 . S
H298 C286 0.956 . S
H299 C286 0.961 . S
H300 C286 0.961 . S
H301 C287 0.958 . S
H302 C287 0.961 . S
H303 C287 0.960 . S
C304 C305 1.391 . S
C304 C306 1.394 . S
C304 H320 0.931 . S
C305 C304 1.391 . S
C305 C309 1.376 . S
C306 C304 1.394 . S
C306 C307 1.369 . S
C306 C310 1.531 . S
C307 C306 1.369 . S
C307 C308 1.410 . S
C307 C315 1.503 . S
C308 C307 1.410 . S
C308 C309 1.392 . S
C308 C311 1.511 . S
C309 C305 1.376 . S
C309 C308 1.392 . S
C309 H321 0.929 . S
C310 C306 1.531 . S
C310 H322 0.960 . S
C310 H323 0.962 . S
C310 H324 0.960 . S
C311 C308 1.511 . S
C311 H325 0.961 . S
C311 H326 0.961 . S
C311 H327 0.961 . S
C312 C313 1.370 . S
C312 C314 1.363 . S
C312 H328 0.931 . S
C313 C312 1.370 . S
C313 C317 1.408 . S
C314 C312 1.363 . S
C314 C315 1.370 . S
C314 C318 1.524 . S
C315 C307 1.503 . S
C315 C314 1.370 . S
C315 C316 1.403 . S
C316 C315 1.403 . S
C316 C317 1.404 . S
C316 C319 1.539 . S
C317 C313 1.408 . S
C317 C316 1.404 . S
C317 H329 0.930 . S
C318 C314 1.524 . S
C318 H330 0.956 . S
C318 H331 0.961 . S
C318 H332 0.961 . S
C319 C316 1.539 . S
C319 H333 0.958 . S
C319 H334 0.961 . S
C319 H335 0.960 . S
H320 C304 0.931 . S
H321 C309 0.929 . S
H322 C310 0.960 . S
H323 C310 0.962 . S
H324 C310 0.960 . S
H325 C311 0.961 . S
H326 C311 0.961 . S
H327 C311 0.961 . S
H328 C312 0.931 . S
H329 C317 0.930 . S
H330 C318 0.956 . S
H331 C318 0.961 . S
H332 C318 0.961 . S
H333 C319 0.958 . S
H334 C319 0.961 . S
H335 C319 0.960 . S
C336 C337 1.391 . S
C336 C338 1.394 . S
C336 H352 0.931 . S
C337 C336 1.391 . S
C337 C341 1.376 . S
C338 C336 1.394 . S
C338 C339 1.369 . S
C338 C342 1.531 . S
C339 C338 1.369 . S
C339 C340 1.410 . S
C339 C347 1.503 . S
C340 C339 1.410 . S
C340 C341 1.392 . S
C340 C343 1.511 1_554 S
C341 C337 1.376 . S
C341 C340 1.392 . S
C341 H353 0.929 . S
C342 C338 1.531 . S
C342 H354 0.960 . S
C342 H355 0.962 . S
C342 H356 0.960 . S
C343 C340 1.511 1_556 S
C343 H357 0.961 . S
C343 H358 0.961 . S
C343 H359 0.961 1_556 S
C344 C345 1.370 . S
C344 C346 1.363 . S
C344 H360 0.931 . S
C345 C344 1.370 . S
C345 C349 1.408 . S
C346 C344 1.363 . S
C346 C347 1.370 1_556 S
C346 C350 1.524 . S
C347 C339 1.503 . S
C347 C346 1.370 1_554 S
C347 C348 1.403 . S
C348 C347 1.403 . S
C348 C349 1.404 1_554 S
C348 C351 1.539 . S
C349 C345 1.408 . S
C349 C348 1.404 1_556 S
C349 H361 0.930 . S
C350 C346 1.524 . S
C350 H362 0.956 . S
C350 H363 0.961 . S
C350 H364 0.961 . S
C351 C348 1.539 . S
C351 H365 0.958 . S
C351 H366 0.961 . S
C351 H367 0.960 . S
H352 C336 0.931 . S
H353 C341 0.929 . S
H354 C342 0.960 . S
H355 C342 0.962 . S
H356 C342 0.960 . S
H357 C343 0.961 . S
H358 C343 0.961 . S
H359 C343 0.961 1_554 S
H360 C344 0.931 . S
H361 C349 0.930 . S
H362 C350 0.956 . S
H363 C350 0.961 . S
H364 C350 0.961 . S
H365 C351 0.958 . S
H366 C351 0.961 . S
H367 C351 0.960 . S
C368 C369 1.391 . S
C368 C370 1.394 . S
C368 H384 0.931 . S
C369 C368 1.391 . S
C369 C373 1.376 . S
C370 C368 1.394 . S
C370 C371 1.369 1_554 S
C370 C374 1.531 1_554 S
C371 C370 1.369 1_556 S
C371 C372 1.410 1_556 S
C371 C379 1.503 . S
C372 C371 1.410 1_554 S
C372 C373 1.392 . S
C372 C375 1.499 1_554 S
C373 C369 1.376 . S
C373 C372 1.392 . S
C373 H385 0.929 . S
C374 C370 1.531 1_556 S
C374 H386 0.960 . S
C374 H387 0.962 . S
C374 H388 0.960 . S
C375 C372 1.499 1_556 S
C375 H389 0.920 1_556 S
C375 H390 0.975 . S
C375 H391 1.003 . S
C376 C377 1.370 . S
C376 C378 1.363 . S
C376 H392 0.931 1_455 S
C377 C376 1.370 . S
C377 C381 1.408 . S
C378 C376 1.363 . S
C378 C379 1.370 . S
C378 C382 1.524 1_556 S
C379 C371 1.503 . S
C379 C378 1.370 . S
C379 C380 1.403 . S
C380 C379 1.403 . S
C380 C381 1.404 . S
C380 C383 1.539 . S
C381 C377 1.408 . S
C381 C380 1.404 . S
C381 H393 0.930 . S
C382 C378 1.524 1_554 S
C382 H394 0.956 . S
C382 H395 0.961 . S
C382 H396 0.961 . S
C383 C380 1.539 . S
C383 H397 0.958 . S
C383 H398 0.961 . S
C383 H399 0.960 . S
H384 C368 0.931 . S
H385 C373 0.929 . S
H386 C374 0.960 . S
H387 C374 0.962 . S
H388 C374 0.960 . S
H389 C375 0.920 1_554 S
H390 C375 0.975 . S
H391 C375 1.003 . S
H392 C376 0.931 1_655 S
H393 C381 0.930 . S
H394 C382 0.956 . S
H395 C382 0.961 . S
H396 C382 0.961 . S
H397 C383 0.958 . S
H398 C383 0.961 . S
H399 C383 0.960 . S
C400 C401 1.391 . S
C400 C402 1.394 1_556 S
C400 H416 0.931 . S
C401 C400 1.391 . S
C401 C405 1.376 . S
C402 C400 1.394 1_554 S
C402 C403 1.369 1_554 S
C402 C406 1.531 . S
C403 C402 1.369 1_556 S
C403 C404 1.410 . S
C403 C411 1.503 1_556 S
C404 C403 1.410 . S
C404 C405 1.392 . S
C404 C407 1.511 . S
C405 C401 1.376 . S
C405 C404 1.392 . S
C405 H417 0.929 . S
C406 C402 1.531 . S
C406 H418 0.960 . S
C406 H419 0.962 . S
C406 H420 0.960 . S
C407 C404 1.511 . S
C407 H421 0.961 . S
C407 H422 0.961 . S
C407 H423 0.961 . S
C408 C409 1.370 . S
C408 C410 1.363 . S
C408 H424 0.931 . S
C409 C408 1.370 . S
C409 C413 1.408 . S
C410 C408 1.363 . S
C410 C411 1.370 . S
C410 C414 1.524 . S
C411 C403 1.503 1_554 S
C411 C410 1.370 . S
C411 C412 1.403 . S
C412 C411 1.403 . S
C412 C413 1.404 . S
C412 C415 1.539 1_554 S
C413 C409 1.408 . S
C413 C412 1.404 . S
C413 H425 0.930 1_565 S
C414 C410 1.524 . S
C414 H426 0.956 . S
C414 H427 0.961 . S
C414 H428 0.961 . S
C415 C412 1.539 1_556 S
C415 H429 0.958 1_556 S
C415 H430 0.961 1_565 S
C415 H431 0.960 . S
H416 C400 0.931 . S
H417 C405 0.929 . S
H418 C406 0.960 . S
H419 C406 0.962 . S
H420 C406 0.960 . S
H421 C407 0.961 . S
H422 C407 0.961 . S
H423 C407 0.961 . S
H424 C408 0.931 . S
H425 C413 0.930 1_545 S
H426 C414 0.956 . S
H427 C414 0.961 . S
H428 C414 0.961 . S
H429 C415 0.958 1_554 S
H430 C415 0.961 1_545 S
H431 C415 0.960 . S
C432 C433 1.391 . S
C432 C434 1.394 . S
C432 H448 0.931 . S
C433 C432 1.391 . S
C433 C437 1.376 . S
C434 C432 1.394 . S
C434 C435 1.369 1_554 S
C434 C438 1.531 . S
C435 C434 1.369 1_556 S
C435 C436 1.410 . S
C435 C443 1.503 . S
C436 C435 1.410 . S
C436 C437 1.392 1_556 S
C436 C439 1.511 . S
C437 C433 1.376 . S
C437 C436 1.392 1_554 S
C437 H449 0.929 . S
C438 C434 1.531 . S
C438 H450 0.960 1_554 S
C438 H451 0.962 . S
C438 H452 0.960 . S
C439 C436 1.511 . S
C439 H453 0.961 . S
C439 H454 0.961 . S
C439 H455 0.961 . S
C440 C441 1.370 . S
C440 C442 1.363 . S
C440 H456 0.931 . S
C441 C440 1.370 . S
C441 C445 1.408 . S
C442 C440 1.363 . S
C442 C443 1.370 . S
C442 C446 1.524 1_556 S
C443 C435 1.503 . S
C443 C442 1.370 . S
C443 C444 1.403 . S
C444 C443 1.403 . S
C444 C445 1.404 . S
C444 C447 1.539 . S
C445 C441 1.408 . S
C445 C444 1.404 . S
C445 H457 0.930 . S
C446 C442 1.524 1_554 S
C446 H458 0.956 . S
C446 H459 0.961 . S
C446 H460 0.961 . S
C447 C444 1.539 . S
C447 H461 0.958 . S
C447 H462 0.961 . S
C447 H463 0.960 . S
H448 C432 0.931 . S
H449 C437 0.929 . S
H450 C438 0.960 1_556 S
H451 C438 0.962 . S
H452 C438 0.960 . S
H453 C439 0.961 . S
H454 C439 0.961 . S
H455 C439 0.961 . S
H456 C440 0.931 . S
H457 C445 0.930 . S
H458 C446 0.956 . S
H459 C446 0.961 . S
H460 C446 0.961 . S
H461 C447 0.958 . S
H462 C447 0.961 . S
H463 C447 0.960 . S
C464 C465 1.391 . S
C464 C466 1.394 . S
C464 H480 0.931 . S
C465 C464 1.391 . S
C465 C469 1.376 . S
C466 C464 1.394 . S
C466 C467 1.369 . S
C466 C470 1.531 . S
C467 C466 1.369 . S
C467 C468 1.410 . S
C467 C475 1.503 . S
C468 C467 1.410 . S
C468 C469 1.392 . S
C468 C471 1.511 . S
C469 C465 1.376 . S
C469 C468 1.392 . S
C469 H481 0.929 . S
C470 C466 1.531 . S
C470 H482 0.960 . S
C470 H483 0.962 . S
C470 H484 0.960 . S
C471 C468 1.511 . S
C471 H485 0.961 . S
C471 H486 0.961 . S
C471 H487 0.961 . S
C472 C473 1.370 . S
C472 C474 1.363 . S
C472 H488 0.931 . S
C473 C472 1.370 . S
C473 C477 1.408 . S
C474 C472 1.363 . S
C474 C475 1.370 . S
C474 C478 1.524 . S
C475 C467 1.503 . S
C475 C474 1.370 . S
C475 C476 1.403 . S
C476 C475 1.403 . S
C476 C477 1.404 . S
C476 C479 1.539 . S
C477 C473 1.408 . S
C477 C476 1.404 . S
C477 H489 0.930 1_565 S
C478 C474 1.524 . S
C478 H490 0.956 . S
C478 H491 0.961 . S
C478 H492 0.961 . S
C479 C476 1.539 . S
C479 H493 0.958 . S
C479 H494 0.961 . S
C479 H495 0.960 . S
H480 C464 0.931 . S
H481 C469 0.929 . S
H482 C470 0.960 . S
H483 C470 0.962 . S
H484 C470 0.960 . S
H485 C471 0.961 . S
H486 C471 0.961 . S
H487 C471 0.961 . S
H488 C472 0.931 . S
H489 C477 0.930 1_545 S
H490 C478 0.956 . S
H491 C478 0.961 . S
H492 C478 0.961 . S
H493 C479 0.958 . S
H494 C479 0.961 . S
H495 C479 0.960 . S
C496 C497 1.391 . S
C496 C498 1.394 . S
C496 H512 0.931 . S
C497 C496 1.391 . S
C497 C501 1.376 . S
C498 C496 1.394 . S
C498 C499 1.369 . S
C498 C502 1.531 . S
C499 C498 1.369 . S
C499 C500 1.410 . S
C499 C507 1.503 . S
C500 C499 1.410 . S
C500 C501 1.392 . S
C500 C503 1.511 . S
C501 C497 1.376 . S
C501 C500 1.392 . S
C501 H513 0.929 . S
C502 C498 1.531 . S
C502 H514 0.960 . S
C502 H515 0.962 . S
C502 H516 0.960 . S
C503 C500 1.511 . S
C503 H517 0.961 . S
C503 H518 0.961 . S
C503 H519 0.961 . S
C504 C505 1.370 . S
C504 C506 1.363 . S
C504 H520 0.931 . S
C505 C504 1.370 . S
C505 C509 1.408 . S
C506 C504 1.363 . S
C506 C507 1.370 . S
C506 C510 1.524 . S
C507 C499 1.503 . S
C507 C506 1.370 . S
C507 C508 1.403 . S
C508 C507 1.403 . S
C508 C509 1.404 . S
C508 C511 1.539 . S
C509 C505 1.408 . S
C509 C508 1.404 . S
C509 H521 0.930 . S
C510 C506 1.524 . S
C510 H522 0.956 . S
C510 H523 0.961 . S
C510 H524 0.961 . S
C511 C508 1.539 . S
C511 H525 0.958 . S
C511 H526 0.961 . S
C511 H527 0.960 . S
H512 C496 0.931 . S
H513 C501 0.929 . S
H514 C502 0.960 . S
H515 C502 0.962 . S
H516 C502 0.960 . S
H517 C503 0.961 . S
H518 C503 0.961 . S
H519 C503 0.961 . S
H520 C504 0.931 . S
H521 C509 0.930 . S
H522 C510 0.956 . S
H523 C510 0.961 . S
H524 C510 0.961 . S
H525 C511 0.958 . S
H526 C511 0.961 . S
H527 C511 0.960 . S
C528 C529 1.391 . S
C528 C530 1.394 . S
C528 H544 0.931 . S
C529 C528 1.391 . S
C529 C533 1.376 . S
C530 C528 1.394 . S
C530 C531 1.369 . S
C530 C534 1.531 . S
C531 C530 1.369 . S
C531 C532 1.410 . S
C531 C539 1.503 . S
C532 C531 1.410 . S
C532 C533 1.392 . S
C532 C535 1.511 . S
C533 C529 1.376 . S
C533 C532 1.392 . S
C533 H545 0.929 . S
C534 C530 1.531 . S
C534 H546 0.960 . S
C534 H547 0.962 . S
C534 H548 0.960 . S
C535 C532 1.511 . S
C535 H549 0.961 . S
C535 H550 0.961 . S
C535 H551 0.961 . S
C536 C537 1.370 . S
C536 C538 1.363 . S
C536 H552 0.931 . S
C537 C536 1.370 . S
C537 C541 1.408 . S
C538 C536 1.363 . S
C538 C539 1.370 . S
C538 C542 1.524 . S
C539 C531 1.503 . S
C539 C538 1.370 . S
C539 C540 1.403 . S
C540 C539 1.403 . S
C540 C541 1.404 . S
C540 C543 1.539 . S
C541 C537 1.408 . S
C541 C540 1.404 . S
C541 H553 0.930 . S
C542 C538 1.524 . S
C542 H554 0.956 . S
C542 H555 0.961 . S
C542 H556 0.961 . S
C543 C540 1.539 . S
C543 H557 0.958 . S
C543 H558 0.961 . S
C543 H559 0.960 . S
H544 C528 0.931 . S
H545 C533 0.929 . S
H546 C534 0.960 . S
H547 C534 0.962 . S
H548 C534 0.960 . S
H549 C535 0.961 . S
H550 C535 0.961 . S
H551 C535 0.961 . S
H552 C536 0.931 . S
H553 C541 0.930 . S
H554 C542 0.956 . S
H555 C542 0.961 . S
H556 C542 0.961 . S
H557 C543 0.958 . S
H558 C543 0.961 . S
H559 C543 0.960 . S
C560 C561 1.391 . S
C560 C562 1.394 . S
C560 H576 0.931 . S
C561 C560 1.391 . S
C561 C565 1.376 . S
C562 C560 1.394 . S
C562 C563 1.369 . S
C562 C566 1.531 . S
C563 C562 1.369 . S
C563 C564 1.410 . S
C563 C571 1.503 . S
C564 C563 1.410 . S
C564 C565 1.392 . S
C564 C567 1.511 . S
C565 C561 1.376 . S
C565 C564 1.392 . S
C565 H577 0.929 1_455 S
C566 C562 1.531 . S
C566 H578 0.960 . S
C566 H579 0.962 . S
C566 H580 0.960 . S
C567 C564 1.511 . S
C567 H581 0.961 . S
C567 H582 0.961 . S
C567 H583 0.961 . S
C568 C569 1.370 . S
C568 C570 1.363 . S
C568 H584 0.931 . S
C569 C568 1.370 . S
C569 C573 1.408 . S
C570 C568 1.363 . S
C570 C571 1.370 . S
C570 C574 1.524 . S
C571 C563 1.503 . S
C571 C570 1.370 . S
C571 C572 1.403 . S
C572 C571 1.403 . S
C572 C573 1.404 . S
C572 C575 1.539 . S
C573 C569 1.408 . S
C573 C572 1.404 . S
C573 H585 0.930 . S
C574 C570 1.524 . S
C574 H586 0.956 . S
C574 H587 0.961 . S
C574 H588 0.961 . S
C575 C572 1.539 . S
C575 H589 0.958 . S
C575 H590 0.961 . S
C575 H591 0.960 . S
H576 C560 0.931 . S
H577 C565 0.929 1_655 S
H578 C566 0.960 . S
H579 C566 0.962 . S
H580 C566 0.960 . S
H581 C567 0.961 . S
H582 C567 0.961 . S
H583 C567 0.961 . S
H584 C568 0.931 . S
H585 C573 0.930 . S
H586 C574 0.956 . S
H587 C574 0.961 . S
H588 C574 0.961 . S
H589 C575 0.958 . S
H590 C575 0.961 . S
H591 C575 0.960 . S
C592 C593 1.391 . S
C592 C594 1.394 . S
C592 H608 0.931 . S
C593 C592 1.391 . S
C593 C597 1.376 . S
C594 C592 1.394 . S
C594 C595 1.369 . S
C594 C598 1.531 . S
C595 C594 1.369 . S
C595 C596 1.410 . S
C595 C603 1.503 . S
C596 C595 1.410 . S
C596 C597 1.392 . S
C596 C599 1.511 . S
C597 C593 1.376 . S
C597 C596 1.392 . S
C597 H609 0.929 . S
C598 C594 1.531 . S
C598 H610 0.960 . S
C598 H611 0.962 . S
C598 H612 0.960 . S
C599 C596 1.511 . S
C599 H613 0.961 . S
C599 H614 0.961 . S
C599 H615 0.961 . S
C600 C601 1.370 . S
C600 C602 1.363 . S
C600 H616 0.931 . S
C601 C600 1.370 . S
C601 C605 1.408 . S
C602 C600 1.363 . S
C602 C603 1.370 . S
C602 C606 1.524 . S
C603 C595 1.503 . S
C603 C602 1.370 . S
C603 C604 1.403 . S
C604 C603 1.403 . S
C604 C605 1.404 . S
C604 C607 1.539 . S
C605 C601 1.408 . S
C605 C604 1.404 . S
C605 H617 0.930 . S
C606 C602 1.524 . S
C606 H618 0.956 . S
C606 H619 0.961 . S
C606 H620 0.961 . S
C607 C604 1.539 . S
C607 H621 0.958 . S
C607 H622 0.961 . S
C607 H623 0.960 . S
H608 C592 0.931 . S
H609 C597 0.929 . S
H610 C598 0.960 . S
H611 C598 0.962 . S
H612 C598 0.960 . S
H613 C599 0.961 . S
H614 C599 0.961 . S
H615 C599 0.961 . S
H616 C600 0.931 . S
H617 C605 0.930 . S
H618 C606 0.956 . S
H619 C606 0.961 . S
H620 C606 0.961 . S
H621 C607 0.958 . S
H622 C607 0.961 . S
H623 C607 0.960 . S
C624 C625 1.391 . S
C624 C626 1.394 . S
C624 H640 0.931 . S
C625 C624 1.391 . S
C625 C629 1.376 . S
C626 C624 1.394 . S
C626 C627 1.369 . S
C626 C630 1.531 . S
C627 C626 1.369 . S
C627 C628 1.410 . S
C627 C635 1.503 . S
C628 C627 1.410 . S
C628 C629 1.392 . S
C628 C631 1.511 . S
C629 C625 1.376 . S
C629 C628 1.392 . S
C629 H641 0.929 . S
C630 C626 1.531 . S
C630 H642 0.960 . S
C630 H643 0.962 . S
C630 H644 0.960 . S
C631 C628 1.511 . S
C631 H645 0.961 . S
C631 H646 0.961 . S
C631 H647 0.961 . S
C632 C633 1.370 . S
C632 C634 1.363 . S
C632 H648 0.931 . S
C633 C632 1.370 . S
C633 C637 1.408 . S
C634 C632 1.363 . S
C634 C635 1.370 . S
C634 C638 1.524 . S
C635 C627 1.503 . S
C635 C634 1.370 . S
C635 C636 1.403 . S
C636 C635 1.403 . S
C636 C637 1.404 . S
C636 C639 1.539 . S
C637 C633 1.408 . S
C637 C636 1.404 . S
C637 H649 0.930 . S
C638 C634 1.524 . S
C638 H650 0.956 . S
C638 H651 0.961 . S
C638 H652 0.961 . S
C639 C636 1.539 . S
C639 H653 0.958 . S
C639 H654 0.961 . S
C639 H655 0.960 . S
H640 C624 0.931 . S
H641 C629 0.929 . S
H642 C630 0.960 . S
H643 C630 0.962 . S
H644 C630 0.960 . S
H645 C631 0.961 . S
H646 C631 0.961 . S
H647 C631 0.961 . S
H648 C632 0.931 . S
H649 C637 0.930 . S
H650 C638 0.956 . S
H651 C638 0.961 . S
H652 C638 0.961 . S
H653 C639 0.958 . S
H654 C639 0.961 . S
H655 C639 0.960 . S
C656 C657 1.391 . S
C656 C658 1.394 . S
C656 H672 0.931 . S
C657 C656 1.391 . S
C657 C661 1.376 . S
C658 C656 1.394 . S
C658 C659 1.369 . S
C658 C662 1.531 . S
C659 C658 1.369 . S
C659 C660 1.410 . S
C659 C667 1.503 . S
C660 C659 1.410 . S
C660 C661 1.392 . S
C660 C663 1.511 . S
C661 C657 1.376 . S
C661 C660 1.392 . S
C661 H673 0.929 . S
C662 C658 1.531 . S
C662 H674 0.960 . S
C662 H675 0.962 . S
C662 H676 0.960 . S
C663 C660 1.511 . S
C663 H677 0.961 . S
C663 H678 0.961 . S
C663 H679 0.961 . S
C664 C665 1.370 . S
C664 C666 1.363 . S
C664 H680 0.931 . S
C665 C664 1.370 . S
C665 C669 1.408 . S
C666 C664 1.363 . S
C666 C667 1.370 . S
C666 C670 1.524 . S
C667 C659 1.503 . S
C667 C666 1.370 . S
C667 C668 1.403 . S
C668 C667 1.403 . S
C668 C669 1.404 . S
C668 C671 1.539 . S
C669 C665 1.408 . S
C669 C668 1.404 . S
C669 H681 0.930 . S
C670 C666 1.524 . S
C670 H682 0.956 . S
C670 H683 0.961 . S
C670 H684 0.961 . S
C671 C668 1.539 . S
C671 H685 0.958 . S
C671 H686 0.961 . S
C671 H687 0.960 . S
H672 C656 0.931 . S
H673 C661 0.929 . S
H674 C662 0.960 . S
H675 C662 0.962 . S
H676 C662 0.960 . S
H677 C663 0.961 . S
H678 C663 0.961 . S
H679 C663 0.961 . S
H680 C664 0.931 . S
H681 C669 0.930 . S
H682 C670 0.956 . S
H683 C670 0.961 . S
H684 C670 0.961 . S
H685 C671 0.958 . S
H686 C671 0.961 . S
H687 C671 0.960 . S
C688 C689 1.391 . S
C688 C690 1.394 . S
C688 H704 0.931 . S
C689 C688 1.391 . S
C689 C693 1.376 . S
C690 C688 1.394 . S
C690 C691 1.369 . S
C690 C694 1.531 . S
C691 C690 1.369 . S
C691 C692 1.410 . S
C691 C699 1.503 . S
C692 C691 1.410 . S
C692 C693 1.392 . S
C692 C695 1.511 . S
C693 C689 1.376 . S
C693 C692 1.392 . S
C693 H705 0.929 . S
C694 C690 1.531 . S
C694 H706 0.960 . S
C694 H707 0.962 . S
C694 H708 0.960 . S
C695 C692 1.511 . S
C695 H709 0.961 . S
C695 H710 0.961 . S
C695 H711 0.961 . S
C696 C697 1.370 . S
C696 C698 1.363 . S
C696 H712 0.931 . S
C697 C696 1.370 . S
C697 C701 1.408 . S
C698 C696 1.363 . S
C698 C699 1.370 . S
C698 C702 1.524 . S
C699 C691 1.503 . S
C699 C698 1.370 . S
C699 C700 1.403 . S
C700 C699 1.403 . S
C700 C701 1.404 . S
C700 C703 1.539 . S
C701 C697 1.408 . S
C701 C700 1.404 . S
C701 H713 0.930 . S
C702 C698 1.524 . S
C702 H714 0.956 . S
C702 H715 0.961 . S
C702 H716 0.961 . S
C703 C700 1.539 . S
C703 H717 0.958 . S
C703 H718 0.961 . S
C703 H719 0.960 . S
H704 C688 0.931 . S
H705 C693 0.929 . S
H706 C694 0.960 . S
H707 C694 0.962 . S
H708 C694 0.960 . S
H709 C695 0.961 . S
H710 C695 0.961 . S
H711 C695 0.961 . S
H712 C696 0.931 . S
H713 C701 0.930 . S
H714 C702 0.956 . S
H715 C702 0.961 . S
H716 C702 0.961 . S
H717 C703 0.958 . S
H718 C703 0.961 . S
H719 C703 0.960 . S
C720 C721 1.391 . S
C720 C722 1.394 . S
C720 H736 0.931 . S
C721 C720 1.391 . S
C721 C725 1.376 . S
C722 C720 1.394 . S
C722 C723 1.369 . S
C722 C726 1.531 . S
C723 C722 1.369 . S
C723 C724 1.410 . S
C723 C731 1.503 . S
C724 C723 1.410 . S
C724 C725 1.392 . S
C724 C727 1.511 . S
C725 C721 1.376 . S
C725 C724 1.392 . S
C725 H737 0.929 . S
C726 C722 1.531 . S
C726 H738 0.960 . S
C726 H739 0.962 . S
C726 H740 0.960 . S
C727 C724 1.511 . S
C727 H741 0.961 . S
C727 H742 0.961 . S
C727 H743 0.961 . S
C728 C729 1.370 . S
C728 C730 1.363 . S
C728 H744 0.931 . S
C729 C728 1.370 . S
C729 C733 1.408 . S
C730 C728 1.363 . S
C730 C731 1.370 . S
C730 C734 1.524 . S
C731 C723 1.503 . S
C731 C730 1.370 . S
C731 C732 1.403 . S
C732 C731 1.403 . S
C732 C733 1.404 . S
C732 C735 1.539 . S
C733 C729 1.408 . S
C733 C732 1.404 . S
C733 H745 0.930 . S
C734 C730 1.524 . S
C734 H746 0.956 . S
C734 H747 0.961 . S
C734 H748 0.961 . S
C735 C732 1.539 . S
C735 H749 0.958 . S
C735 H750 0.961 . S
C735 H751 0.960 . S
H736 C720 0.931 . S
H737 C725 0.929 . S
H738 C726 0.960 . S
H739 C726 0.962 . S
H740 C726 0.960 . S
H741 C727 0.961 . S
H742 C727 0.961 . S
H743 C727 0.961 . S
H744 C728 0.931 . S
H745 C733 0.930 . S
H746 C734 0.956 . S
H747 C734 0.961 . S
H748 C734 0.961 . S
H749 C735 0.958 . S
H750 C735 0.961 . S
H751 C735 0.960 . S
C752 C753 1.391 . S
C752 C754 1.394 . S
C752 H768 0.931 . S
C753 C752 1.391 . S
C753 C757 1.376 . S
C754 C752 1.394 . S
C754 C755 1.369 . S
C754 C758 1.531 . S
C755 C754 1.369 . S
C755 C756 1.410 . S
C755 C763 1.503 . S
C756 C755 1.410 . S
C756 C757 1.392 . S
C756 C759 1.511 . S
C757 C753 1.376 . S
C757 C756 1.392 . S
C757 H769 0.929 . S
C758 C754 1.531 . S
C758 H770 0.960 . S
C758 H771 0.962 . S
C758 H772 0.960 . S
C759 C756 1.511 . S
C759 H773 0.961 . S
C759 H774 0.961 . S
C759 H775 0.961 . S
C760 C761 1.370 . S
C760 C762 1.363 . S
C760 H776 0.931 . S
C761 C760 1.370 . S
C761 C765 1.408 . S
C762 C760 1.363 . S
C762 C763 1.370 . S
C762 C766 1.524 . S
C763 C755 1.503 . S
C763 C762 1.370 . S
C763 C764 1.403 . S
C764 C763 1.403 . S
C764 C765 1.404 . S
C764 C767 1.539 . S
C765 C761 1.408 . S
C765 C764 1.404 . S
C765 H777 0.930 . S
C766 C762 1.524 . S
C766 H778 0.956 . S
C766 H779 0.961 . S
C766 H780 0.961 . S
C767 C764 1.539 . S
C767 H781 0.958 . S
C767 H782 0.961 . S
C767 H783 0.960 . S
H768 C752 0.931 . S
H769 C757 0.929 . S
H770 C758 0.960 . S
H771 C758 0.962 . S
H772 C758 0.960 . S
H773 C759 0.961 . S
H774 C759 0.961 . S
H775 C759 0.961 . S
H776 C760 0.931 . S
H777 C765 0.930 . S
H778 C766 0.956 . S
H779 C766 0.961 . S
H780 C766 0.961 . S
H781 C767 0.958 . S
H782 C767 0.961 . S
H783 C767 0.960 . S
C784 C785 1.391 . S
C784 C786 1.394 . S
C784 H800 0.931 . S
C785 C784 1.391 . S
C785 C789 1.376 . S
C786 C784 1.394 . S
C786 C787 1.369 . S
C786 C790 1.531 . S
C787 C786 1.369 . S
C787 C788 1.410 . S
C787 C795 1.503 . S
C788 C787 1.410 . S
C788 C789 1.392 . S
C788 C791 1.511 . S
C789 C785 1.376 . S
C789 C788 1.392 . S
C789 H801 0.929 . S
C790 C786 1.531 . S
C790 H802 0.960 . S
C790 H803 0.962 . S
C790 H804 0.960 . S
C791 C788 1.511 . S
C791 H805 0.961 . S
C791 H806 0.961 . S
C791 H807 0.961 . S
C792 C793 1.370 . S
C792 C794 1.363 . S
C792 H808 0.931 . S
C793 C792 1.370 . S
C793 C797 1.408 . S
C794 C792 1.363 . S
C794 C795 1.370 . S
C794 C798 1.524 . S
C795 C787 1.503 . S
C795 C794 1.370 . S
C795 C796 1.403 . S
C796 C795 1.403 . S
C796 C797 1.404 . S
C796 C799 1.539 . S
C797 C793 1.408 . S
C797 C796 1.404 . S
C797 H809 0.930 . S
C798 C794 1.524 . S
C798 H810 0.956 . S
C798 H811 0.961 . S
C798 H812 0.961 . S
C799 C796 1.539 . S
C799 H813 0.958 . S
C799 H814 0.961 . S
C799 H815 0.960 . S
H800 C784 0.931 . S
H801 C789 0.929 . S
H802 C790 0.960 . S
H803 C790 0.962 . S
H804 C790 0.960 . S
H805 C791 0.961 . S
H806 C791 0.961 . S
H807 C791 0.961 . S
H808 C792 0.931 . S
H809 C797 0.930 . S
H810 C798 0.956 . S
H811 C798 0.961 . S
H812 C798 0.961 . S
H813 C799 0.958 . S
H814 C799 0.961 . S
H815 C799 0.960 . S
C816 C817 1.391 . S
C816 C818 1.394 . S
C816 H832 0.931 . S
C817 C816 1.391 . S
C817 C821 1.376 . S
C818 C816 1.394 . S
C818 C819 1.369 . S
C818 C822 1.531 . S
C819 C818 1.369 . S
C819 C820 1.410 . S
C819 C827 1.503 . S
C820 C819 1.410 . S
C820 C821 1.392 . S
C820 C823 1.511 . S
C821 C817 1.376 . S
C821 C820 1.392 . S
C821 H833 0.929 . S
C822 C818 1.531 . S
C822 H834 0.960 . S
C822 H835 0.962 . S
C822 H836 0.960 . S
C823 C820 1.511 . S
C823 H837 0.961 . S
C823 H838 0.961 . S
C823 H839 0.961 . S
C824 C825 1.370 . S
C824 C826 1.363 . S
C824 H840 0.931 . S
C825 C824 1.370 . S
C825 C829 1.408 . S
C826 C824 1.363 . S
C826 C827 1.370 . S
C826 C830 1.524 . S
C827 C819 1.503 . S
C827 C826 1.370 . S
C827 C828 1.403 . S
C828 C827 1.403 . S
C828 C829 1.404 . S
C828 C831 1.539 . S
C829 C825 1.408 . S
C829 C828 1.404 . S
C829 H841 0.930 . S
C830 C826 1.524 . S
C830 H842 0.956 . S
C830 H843 0.961 . S
C830 H844 0.961 . S
C831 C828 1.539 . S
C831 H845 0.958 . S
C831 H846 0.961 . S
C831 H847 0.960 . S
H832 C816 0.931 . S
H833 C821 0.929 . S
H834 C822 0.960 . S
H835 C822 0.962 . S
H836 C822 0.960 . S
H837 C823 0.961 . S
H838 C823 0.961 . S
H839 C823 0.961 . S
H840 C824 0.931 . S
H841 C829 0.930 . S
H842 C830 0.956 . S
H843 C830 0.961 . S
H844 C830 0.961 . S
H845 C831 0.958 . S
H846 C831 0.961 . S
H847 C831 0.960 . S
C848 C849 1.391 . S
C848 C850 1.394 . S
C848 H864 0.931 . S
C849 C848 1.391 . S
C849 C853 1.376 . S
C850 C848 1.394 . S
C850 C851 1.369 . S
C850 C854 1.531 . S
C851 C850 1.369 . S
C851 C852 1.410 . S
C851 C859 1.503 . S
C852 C851 1.410 . S
C852 C853 1.392 . S
C852 C855 1.511 . S
C853 C849 1.376 . S
C853 C852 1.392 . S
C853 H865 0.929 . S
C854 C850 1.531 . S
C854 H866 0.960 . S
C854 H867 0.962 . S
C854 H868 0.960 . S
C855 C852 1.511 . S
C855 H869 0.961 . S
C855 H870 0.961 . S
C855 H871 0.961 . S
C856 C857 1.370 . S
C856 C858 1.363 . S
C856 H872 0.931 . S
C857 C856 1.370 . S
C857 C861 1.408 . S
C858 C856 1.363 . S
C858 C859 1.370 . S
C858 C862 1.524 . S
C859 C851 1.503 . S
C859 C858 1.370 . S
C859 C860 1.403 . S
C860 C859 1.403 . S
C860 C861 1.404 . S
C860 C863 1.539 . S
C861 C857 1.408 . S
C861 C860 1.404 . S
C861 H873 0.930 . S
C862 C858 1.524 . S
C862 H874 0.956 . S
C862 H875 0.961 . S
C862 H876 0.961 . S
C863 C860 1.539 . S
C863 H877 0.958 . S
C863 H878 0.961 . S
C863 H879 0.960 . S
H864 C848 0.931 . S
H865 C853 0.929 . S
H866 C854 0.960 . S
H867 C854 0.962 . S
H868 C854 0.960 . S
H869 C855 0.961 . S
H870 C855 0.961 . S
H871 C855 0.961 . S
H872 C856 0.931 . S
H873 C861 0.930 . S
H874 C862 0.956 . S
H875 C862 0.961 . S
H876 C862 0.961 . S
H877 C863 0.958 . S
H878 C863 0.961 . S
H879 C863 0.960 . S
C880 C881 1.391 . S
C880 C882 1.394 . S
C880 H896 0.931 . S
C881 C880 1.391 . S
C881 C885 1.376 . S
C882 C880 1.394 . S
C882 C883 1.369 . S
C882 C886 1.531 . S
C883 C882 1.369 . S
C883 C884 1.410 . S
C883 C891 1.503 . S
C884 C883 1.410 . S
C884 C885 1.392 . S
C884 C887 1.511 . S
C885 C881 1.376 . S
C885 C884 1.392 . S
C885 H897 0.929 . S
C886 C882 1.531 . S
C886 H898 0.960 . S
C886 H899 0.962 . S
C886 H900 0.960 . S
C887 C884 1.511 . S
C887 H901 0.961 . S
C887 H902 0.961 . S
C887 H903 0.961 . S
C888 C889 1.370 . S
C888 C890 1.363 . S
C888 H904 0.931 . S
C889 C888 1.370 . S
C889 C893 1.408 . S
C890 C888 1.363 . S
C890 C891 1.370 . S
C890 C894 1.524 . S
C891 C883 1.503 . S
C891 C890 1.370 . S
C891 C892 1.403 . S
C892 C891 1.403 . S
C892 C893 1.404 . S
C892 C895 1.539 . S
C893 C889 1.408 . S
C893 C892 1.404 . S
C893 H905 0.930 . S
C894 C890 1.524 . S
C894 H906 0.956 . S
C894 H907 0.961 . S
C894 H908 0.961 . S
C895 C892 1.539 . S
C895 H909 0.958 . S
C895 H910 0.961 . S
C895 H911 0.960 . S
H896 C880 0.931 . S
H897 C885 0.929 . S
H898 C886 0.960 . S
H899 C886 0.962 . S
H900 C886 0.960 . S
H901 C887 0.961 . S
H902 C887 0.961 . S
H903 C887 0.961 . S
H904 C888 0.931 . S
H905 C893 0.930 . S
H906 C894 0.956 . S
H907 C894 0.961 . S
H908 C894 0.961 . S
H909 C895 0.958 . S
H910 C895 0.961 . S
H911 C895 0.960 . S
C912 C913 1.391 . S
C912 C914 1.394 . S
C912 H928 0.931 . S
C913 C912 1.391 . S
C913 C917 1.376 . S
C914 C912 1.394 . S
C914 C915 1.369 . S
C914 C918 1.531 . S
C915 C914 1.369 . S
C915 C916 1.410 . S
C915 C923 1.503 . S
C916 C915 1.410 . S
C916 C917 1.392 . S
C916 C919 1.511 . S
C917 C913 1.376 . S
C917 C916 1.392 . S
C917 H929 0.929 . S
C918 C914 1.531 . S
C918 H930 0.960 . S
C918 H931 0.962 . S
C918 H932 0.960 . S
C919 C916 1.511 . S
C919 H933 0.961 . S
C919 H934 0.961 . S
C919 H935 0.961 . S
C920 C921 1.370 . S
C920 C922 1.363 . S
C920 H936 0.931 . S
C921 C920 1.370 . S
C921 C925 1.408 . S
C922 C920 1.363 . S
C922 C923 1.370 . S
C922 C926 1.524 . S
C923 C915 1.503 . S
C923 C922 1.370 . S
C923 C924 1.403 . S
C924 C923 1.403 . S
C924 C925 1.404 . S
C924 C927 1.539 . S
C925 C921 1.408 . S
C925 C924 1.404 . S
C925 H937 0.930 . S
C926 C922 1.524 . S
C926 H938 0.956 . S
C926 H939 0.961 . S
C926 H940 0.961 . S
C927 C924 1.539 . S
C927 H941 0.958 . S
C927 H942 0.961 . S
C927 H943 0.960 . S
H928 C912 0.931 . S
H929 C917 0.929 . S
H930 C918 0.960 . S
H931 C918 0.962 . S
H932 C918 0.960 . S
H933 C919 0.961 . S
H934 C919 0.961 . S
H935 C919 0.961 . S
H936 C920 0.931 . S
H937 C925 0.930 . S
H938 C926 0.956 . S
H939 C926 0.961 . S
H940 C926 0.961 . S
H941 C927 0.958 . S
H942 C927 0.961 . S
H943 C927 0.960 . S
C944 C945 1.391 . S
C944 C946 1.394 . S
C944 H960 0.931 . S
C945 C944 1.391 . S
C945 C949 1.376 . S
C946 C944 1.394 . S
C946 C947 1.369 . S
C946 C950 1.531 . S
C947 C946 1.369 . S
C947 C948 1.410 . S
C947 C955 1.503 . S
C948 C947 1.410 . S
C948 C949 1.392 . S
C948 C951 1.511 . S
C949 C945 1.376 . S
C949 C948 1.392 . S
C949 H961 0.929 . S
C950 C946 1.531 . S
C950 H962 0.960 . S
C950 H963 0.962 . S
C950 H964 0.960 . S
C951 C948 1.511 . S
C951 H965 0.961 . S
C951 H966 0.961 . S
C951 H967 0.961 . S
C952 C953 1.370 . S
C952 C954 1.363 . S
C952 H968 0.931 . S
C953 C952 1.370 . S
C953 C957 1.408 . S
C954 C952 1.363 . S
C954 C955 1.370 . S
C954 C958 1.524 . S
C955 C947 1.503 . S
C955 C954 1.370 . S
C955 C956 1.403 . S
C956 C955 1.403 . S
C956 C957 1.404 . S
C956 C959 1.539 . S
C957 C953 1.408 . S
C957 C956 1.404 . S
C957 H969 0.930 . S
C958 C954 1.524 . S
C958 H970 0.956 . S
C958 H971 0.961 . S
C958 H972 0.961 . S
C959 C956 1.539 . S
C959 H973 0.958 . S
C959 H974 0.961 . S
C959 H975 0.960 . S
H960 C944 0.931 . S
H961 C949 0.929 . S
H962 C950 0.960 . S
H963 C950 0.962 . S
H964 C950 0.960 . S
H965 C951 0.961 . S
H966 C951 0.961 . S
H967 C951 0.961 . S
H968 C952 0.931 . S
H969 C957 0.930 . S
H970 C958 0.956 . S
H971 C958 0.961 . S
H972 C958 0.961 . S
H973 C959 0.958 . S
H974 C959 0.961 . S
H975 C959 0.960 . S
C976 C977 1.391 . S
C976 C978 1.394 . S
C976 H992 0.931 . S
C977 C976 1.391 . S
C977 C981 1.376 . S
C978 C976 1.394 . S
C978 C979 1.377 . S
C978 C982 1.531 . S
C979 C978 1.377 . S
C979 C980 1.411 . S
C979 C987 1.496 1_665 S
C980 C979 1.411 . S
C980 C981 1.392 . S
C980 C983 1.511 1_655 S
C981 C977 1.376 . S
C981 C980 1.392 . S
C981 H993 0.929 . S
C982 C978 1.531 . S
C982 H994 0.960 1_655 S
C982 H995 0.978 . S
C982 H996 0.960 . S
C983 C980 1.511 1_455 S
C983 H997 0.961 1_455 S
C983 H998 0.971 . S
C983 H999 0.961 . S
C984 C985 1.370 . S
C984 C986 1.363 1_455 S
C984 H1000 0.931 1_455 S
C985 C984 1.370 . S
C985 C989 1.408 . S
C986 C984 1.363 1_655 S
C986 C987 1.370 1_655 S
C986 C990 1.524 . S
C987 C979 1.496 1_445 S
C987 C986 1.370 1_455 S
C987 C988 1.403 . S
C988 C987 1.403 . S
C988 C989 1.404 . S
C988 C991 1.539 1_545 S
C989 C985 1.408 . S
C989 C988 1.404 . S
C989 H1001 0.930 . S
C990 C986 1.524 . S
C990 H1002 0.956 . S
C990 H1003 0.961 . S
C990 H1004 0.961 . S
C991 C988 1.539 1_565 S
C991 H1005 0.958 . S
C991 H1006 0.961 . S
C991 H1007 0.960 . S
H992 C976 0.931 . S
H993 C981 0.929 . S
H994 C982 0.960 1_455 S
H995 C982 0.978 . S
H996 C982 0.960 . S
H997 C983 0.961 1_655 S
H998 C983 0.971 . S
H999 C983 0.961 . S
H1000 C984 0.931 1_655 S
H1001 C989 0.930 . S
H1002 C990 0.956 . S
H1003 C990 0.961 . S
H1004 C990 0.961 . S
H1005 C991 0.958 . S
H1006 C991 0.961 . S
H1007 C991 0.960 . S
C1008 C1009 1.391 . S
C1008 C1010 1.394 . S
C1008 H1024 0.931 . S
C1009 C1008 1.391 . S
C1009 C1013 1.376 . S
C1010 C1008 1.394 . S
C1010 C1011 1.369 . S
C1010 C1014 1.531 . S
C1011 C1010 1.369 . S
C1011 C1012 1.410 . S
C1011 C1019 1.503 1_645 S
C1012 C1011 1.410 . S
C1012 C1013 1.392 . S
C1012 C1015 1.511 . S
C1013 C1009 1.376 . S
C1013 C1012 1.392 . S
C1013 H1025 0.929 . S
C1014 C1010 1.531 . S
C1014 H1026 0.960 1_655 S
C1014 H1027 0.962 1_545 S
C1014 H1028 0.960 . S
C1015 C1012 1.511 . S
C1015 H1029 0.961 . S
C1015 H1030 0.961 1_655 S
C1015 H1031 0.961 1_655 S
C1016 C1017 1.370 . S
C1016 C1018 1.363 . S
C1016 H1032 0.931 . S
C1017 C1016 1.370 . S
C1017 C1021 1.403 1_565 S
C1018 C1016 1.363 . S
C1018 C1019 1.370 . S
C1018 C1022 1.524 1_455 S
C1019 C1011 1.503 1_465 S
C1019 C1018 1.370 . S
C1019 C1020 1.403 1_565 S
C1020 C1019 1.403 1_545 S
C1020 C1021 1.406 . S
C1020 C1023 1.539 . S
C1021 C1017 1.403 1_545 S
C1021 C1020 1.406 . S
C1021 H1033 0.933 . S
C1022 C1018 1.524 1_655 S
C1022 H1034 0.956 . S
C1022 H1035 0.961 . S
C1022 H1036 0.961 . S
C1023 C1020 1.539 . S
C1023 H1037 0.958 . S
C1023 H1038 0.961 . S
C1023 H1039 0.960 . S
H1024 C1008 0.931 . S
H1025 C1013 0.929 . S
H1026 C1014 0.960 1_455 S
H1027 C1014 0.962 1_565 S
H1028 C1014 0.960 . S
H1029 C1015 0.961 . S
H1030 C1015 0.961 1_455 S
H1031 C1015 0.961 1_455 S
H1032 C1016 0.931 . S
H1033 C1021 0.933 . S
H1034 C1022 0.956 . S
H1035 C1022 0.961 . S
H1036 C1022 0.961 . S
H1037 C1023 0.958 . S
H1038 C1023 0.961 . S
H1039 C1023 0.960 . S
C1040 C1041 1.391 . S
C1040 C1042 1.394 . S
C1040 H1056 0.931 . S
C1041 C1040 1.391 . S
C1041 C1045 1.376 . S
C1042 C1040 1.394 . S
C1042 C1043 1.369 . S
C1042 C1046 1.531 . S
C1043 C1042 1.369 . S
C1043 C1044 1.410 1_455 S
C1043 C1051 1.503 1_455 S
C1044 C1043 1.410 1_655 S
C1044 C1045 1.392 1_655 S
C1044 C1047 1.511 . S
C1045 C1041 1.376 . S
C1045 C1044 1.392 1_455 S
C1045 H1057 0.929 1_455 S
C1046 C1042 1.531 . S
C1046 H1058 0.960 . S
C1046 H1059 0.962 . S
C1046 H1060 0.960 . S
C1047 C1044 1.511 . S
C1047 H1061 0.961 . S
C1047 H1062 0.961 . S
C1047 H1063 0.961 . S
C1048 C1049 1.370 . S
C1048 C1050 1.363 . S
C1048 H1064 0.931 . S
C1049 C1048 1.370 . S
C1049 C1053 1.408 . S
C1050 C1048 1.363 . S
C1050 C1051 1.370 . S
C1050 C1054 1.524 . S
C1051 C1043 1.503 1_655 S
C1051 C1050 1.370 . S
C1051 C1052 1.403 . S
C1052 C1051 1.403 . S
C1052 C1053 1.404 . S
C1052 C1055 1.539 1_655 S
C1053 C1049 1.408 . S
C1053 C1052 1.404 . S
C1053 H1065 0.930 . S
C1054 C1050 1.524 . S
C1054 H1066 0.956 1_655 S
C1054 H1067 0.961 . S
C1054 H1068 0.961 . S
C1055 C1052 1.539 1_455 S
C1055 H1069 0.958 . S
C1055 H1070 0.961 1_455 S
C1055 H1071 0.960 . S
H1056 C1040 0.931 . S
H1057 C1045 0.929 1_655 S
H1058 C1046 0.960 . S
H1059 C1046 0.962 . S
H1060 C1046 0.960 . S
H1061 C1047 0.961 . S
H1062 C1047 0.961 . S
H1063 C1047 0.961 . S
H1064 C1048 0.931 . S
H1065 C1053 0.930 . S
H1066 C1054 0.956 1_455 S
H1067 C1054 0.961 . S
H1068 C1054 0.961 . S
H1069 C1055 0.958 . S
H1070 C1055 0.961 1_655 S
H1071 C1055 0.960 . S
C1072 C1073 1.391 . S
C1072 C1074 1.394 . S
C1072 H1088 0.931 . S
C1073 C1072 1.391 . S
C1073 C1077 1.376 . S
C1074 C1072 1.394 . S
C1074 C1075 1.369 . S
C1074 C1078 1.531 . S
C1075 C1074 1.369 . S
C1075 C1076 1.410 1_565 S
C1075 C1083 1.503 1_565 S
C1076 C1075 1.410 1_545 S
C1076 C1077 1.392 1_545 S
C1076 C1079 1.511 . S
C1077 C1073 1.376 . S
C1077 C1076 1.392 1_565 S
C1077 H1089 0.929 1_565 S
C1078 C1074 1.531 . S
C1078 H1090 0.960 . S
C1078 H1091 0.962 . S
C1078 H1092 0.960 . S
C1079 C1076 1.511 . S
C1079 H1093 0.961 . S
C1079 H1094 0.961 . S
C1079 H1095 0.961 . S
C1080 C1081 1.370 . S
C1080 C1082 1.363 . S
C1080 H1096 0.931 . S
C1081 C1080 1.370 . S
C1081 C1085 1.408 . S
C1082 C1080 1.363 . S
C1082 C1083 1.370 . S
C1082 C1086 1.524 1_545 S
C1083 C1075 1.503 1_545 S
C1083 C1082 1.370 . S
C1083 C1084 1.403 . S
C1084 C1083 1.403 . S
C1084 C1085 1.404 . S
C1084 C1087 1.539 . S
C1085 C1081 1.408 . S
C1085 C1084 1.404 . S
C1085 H1097 0.930 . S
C1086 C1082 1.524 1_565 S
C1086 H1098 0.956 . S
C1086 H1099 0.961 1_565 S
C1086 H1100 0.961 . S
C1087 C1084 1.539 . S
C1087 H1101 0.958 . S
C1087 H1102 0.961 . S
C1087 H1103 0.960 . S
H1088 C1072 0.931 . S
H1089 C1077 0.929 1_545 S
H1090 C1078 0.960 . S
H1091 C1078 0.962 . S
H1092 C1078 0.960 . S
H1093 C1079 0.961 . S
H1094 C1079 0.961 . S
H1095 C1079 0.961 . S
H1096 C1080 0.931 . S
H1097 C1085 0.930 . S
H1098 C1086 0.956 . S
H1099 C1086 0.961 1_545 S
H1100 C1086 0.961 . S
H1101 C1087 0.958 . S
H1102 C1087 0.961 . S
H1103 C1087 0.960 . S
C1104 C1105 1.391 . S
C1104 C1106 1.394 . S
C1104 H1120 0.931 . S
C1105 C1104 1.391 . S
C1105 C1109 1.376 . S
C1106 C1104 1.394 . S
C1106 C1107 1.369 . S
C1106 C1110 1.531 . S
C1107 C1106 1.369 . S
C1107 C1108 1.410 . S
C1107 C1115 1.503 . S
C1108 C1107 1.410 . S
C1108 C1109 1.392 . S
C1108 C1111 1.511 . S
C1109 C1105 1.376 . S
C1109 C1108 1.392 . S
C1109 H1121 0.929 . S
C1110 C1106 1.531 . S
C1110 H1122 0.960 . S
C1110 H1123 0.962 . S
C1110 H1124 0.960 . S
C1111 C1108 1.511 . S
C1111 H1125 0.961 . S
C1111 H1126 0.961 . S
C1111 H1127 0.961 . S
C1112 C1113 1.370 . S
C1112 C1114 1.363 . S
C1112 H1128 0.931 . S
C1113 C1112 1.370 . S
C1113 C1117 1.408 . S
C1114 C1112 1.363 . S
C1114 C1115 1.370 . S
C1114 C1118 1.524 . S
C1115 C1107 1.503 . S
C1115 C1114 1.370 . S
C1115 C1116 1.403 . S
C1116 C1115 1.403 . S
C1116 C1117 1.404 . S
C1116 C1119 1.539 . S
C1117 C1113 1.408 . S
C1117 C1116 1.404 . S
C1117 H1129 0.930 . S
C1118 C1114 1.524 . S
C1118 H1130 0.956 . S
C1118 H1131 0.961 . S
C1118 H1132 0.961 . S
C1119 C1116 1.539 . S
C1119 H1133 0.958 . S
C1119 H1134 0.961 . S
C1119 H1135 0.960 . S
H1120 C1104 0.931 . S
H1121 C1109 0.929 . S
H1122 C1110 0.960 . S
H1123 C1110 0.962 . S
H1124 C1110 0.960 . S
H1125 C1111 0.961 . S
H1126 C1111 0.961 . S
H1127 C1111 0.961 . S
H1128 C1112 0.931 . S
H1129 C1117 0.930 . S
H1130 C1118 0.956 . S
H1131 C1118 0.961 . S
H1132 C1118 0.961 . S
H1133 C1119 0.958 . S
H1134 C1119 0.961 . S
H1135 C1119 0.960 . S
C1136 C1137 1.391 . S
C1136 C1138 1.394 . S
C1136 H1152 0.931 . S
C1137 C1136 1.391 . S
C1137 C1141 1.376 . S
C1138 C1136 1.394 . S
C1138 C1139 1.369 . S
C1138 C1142 1.531 . S
C1139 C1138 1.369 . S
C1139 C1140 1.410 . S
C1139 C1147 1.503 . S
C1140 C1139 1.410 . S
C1140 C1141 1.392 . S
C1140 C1143 1.511 . S
C1141 C1137 1.376 . S
C1141 C1140 1.392 . S
C1141 H1153 0.929 . S
C1142 C1138 1.531 . S
C1142 H1154 0.960 . S
C1142 H1155 0.962 . S
C1142 H1156 0.960 . S
C1143 C1140 1.511 . S
C1143 H1157 0.961 . S
C1143 H1158 0.961 . S
C1143 H1159 0.961 . S
C1144 C1145 1.370 . S
C1144 C1146 1.363 . S
C1144 H1160 0.931 . S
C1145 C1144 1.370 . S
C1145 C1149 1.408 . S
C1146 C1144 1.363 . S
C1146 C1147 1.370 . S
C1146 C1150 1.524 . S
C1147 C1139 1.503 . S
C1147 C1146 1.370 . S
C1147 C1148 1.403 . S
C1148 C1147 1.403 . S
C1148 C1149 1.404 . S
C1148 C1151 1.539 . S
C1149 C1145 1.408 . S
C1149 C1148 1.404 . S
C1149 H1161 0.930 . S
C1150 C1146 1.524 . S
C1150 H1162 0.956 . S
C1150 H1163 0.961 . S
C1150 H1164 0.961 . S
C1151 C1148 1.539 . S
C1151 H1165 0.958 . S
C1151 H1166 0.961 . S
C1151 H1167 0.960 . S
H1152 C1136 0.931 . S
H1153 C1141 0.929 . S
H1154 C1142 0.960 . S
H1155 C1142 0.962 . S
H1156 C1142 0.960 . S
H1157 C1143 0.961 . S
H1158 C1143 0.961 . S
H1159 C1143 0.961 . S
H1160 C1144 0.931 . S
H1161 C1149 0.930 . S
H1162 C1150 0.956 . S
H1163 C1150 0.961 . S
H1164 C1150 0.961 . S
H1165 C1151 0.958 . S
H1166 C1151 0.961 . S
H1167 C1151 0.960 . S
C1168 C1169 1.391 . S
C1168 C1170 1.394 . S
C1168 H1184 0.931 . S
C1169 C1168 1.391 . S
C1169 C1173 1.376 . S
C1170 C1168 1.394 . S
C1170 C1171 1.369 . S
C1170 C1174 1.531 . S
C1171 C1170 1.369 . S
C1171 C1172 1.410 . S
C1171 C1179 1.503 1_545 S
C1172 C1171 1.410 . S
C1172 C1173 1.392 . S
C1172 C1175 1.511 . S
C1173 C1169 1.376 . S
C1173 C1172 1.392 . S
C1173 H1185 0.929 . S
C1174 C1170 1.531 . S
C1174 H1186 0.960 1_545 S
C1174 H1187 0.962 1_545 S
C1174 H1188 0.960 . S
C1175 C1172 1.511 . S
C1175 H1189 0.961 . S
C1175 H1190 0.961 . S
C1175 H1191 0.961 . S
C1176 C1177 1.370 . S
C1176 C1178 1.363 . S
C1176 H1192 0.931 . S
C1177 C1176 1.370 . S
C1177 C1181 1.408 . S
C1178 C1176 1.363 . S
C1178 C1179 1.370 . S
C1178 C1182 1.524 . S
C1179 C1171 1.503 1_565 S
C1179 C1178 1.370 . S
C1179 C1180 1.403 . S
C1180 C1179 1.403 . S
C1180 C1181 1.404 . S
C1180 C1183 1.539 1_565 S
C1181 C1177 1.408 . S
C1181 C1180 1.404 . S
C1181 H1193 0.930 . S
C1182 C1178 1.524 . S
C1182 H1194 0.956 . S
C1182 H1195 0.961 . S
C1182 H1196 0.961 . S
C1183 C1180 1.539 1_545 S
C1183 H1197 0.959 . S
C1183 H1198 0.961 1_545 S
C1183 H1199 0.960 . S
H1184 C1168 0.931 . S
H1185 C1173 0.929 . S
H1186 C1174 0.960 1_565 S
H1187 C1174 0.962 1_565 S
H1188 C1174 0.960 . S
H1189 C1175 0.961 . S
H1190 C1175 0.961 . S
H1191 C1175 0.961 . S
H1192 C1176 0.931 . S
H1193 C1181 0.930 . S
H1194 C1182 0.956 . S
H1195 C1182 0.961 . S
H1196 C1182 0.961 . S
H1197 C1183 0.959 . S
H1198 C1183 0.961 1_565 S
H1199 C1183 0.960 . S
C1200 C1201 1.391 . S
C1200 C1202 1.394 . S
C1200 H1216 0.931 . S
C1201 C1200 1.391 . S
C1201 C1205 1.376 . S
C1202 C1200 1.394 . S
C1202 C1203 1.369 . S
C1202 C1206 1.531 . S
C1203 C1202 1.369 . S
C1203 C1204 1.410 . S
C1203 C1211 1.503 1_655 S
C1204 C1203 1.410 . S
C1204 C1205 1.392 . S
C1204 C1207 1.511 . S
C1205 C1201 1.376 . S
C1205 C1204 1.392 . S
C1205 H1217 0.929 . S
C1206 C1202 1.531 . S
C1206 H1218 0.960 . S
C1206 H1219 0.962 . S
C1206 H1220 0.960 . S
C1207 C1204 1.511 . S
C1207 H1221 0.961 . S
C1207 H1222 0.961 1_655 S
C1207 H1223 0.961 . S
C1208 C1209 1.370 . S
C1208 C1210 1.363 . S
C1208 H1224 0.931 . S
C1209 C1208 1.370 . S
C1209 C1213 1.408 . S
C1210 C1208 1.363 . S
C1210 C1211 1.370 . S
C1210 C1214 1.524 . S
C1211 C1203 1.503 1_455 S
C1211 C1210 1.370 . S
C1211 C1212 1.403 . S
C1212 C1211 1.403 . S
C1212 C1213 1.404 . S
C1212 C1215 1.539 1_455 S
C1213 C1209 1.408 . S
C1213 C1212 1.404 . S
C1213 H1225 0.930 . S
C1214 C1210 1.524 . S
C1214 H1226 0.956 . S
C1214 H1227 0.961 . S
C1214 H1228 0.961 . S
C1215 C1212 1.539 1_655 S
C1215 H1229 0.958 . S
C1215 H1230 0.961 . S
C1215 H1231 0.960 . S
H1216 C1200 0.931 . S
H1217 C1205 0.929 . S
H1218 C1206 0.960 . S
H1219 C1206 0.962 . S
H1220 C1206 0.960 . S
H1221 C1207 0.961 . S
H1222 C1207 0.961 1_455 S
H1223 C1207 0.961 . S
H1224 C1208 0.931 . S
H1225 C1213 0.930 . S
H1226 C1214 0.956 . S
H1227 C1214 0.961 . S
H1228 C1214 0.961 . S
H1229 C1215 0.958 . S
H1230 C1215 0.961 . S
H1231 C1215 0.960 . S
C209 C5 1.180 . S
C217 C148 1.181 . S
C241 C107 1.185 . S
C249 C18 1.182 . S
C273 C120 1.147 . S
C281 C29 1.182 . S
C305 C135 1.192 . S
C313 C42 1.191 . S
C337 C68 1.179 1_545 S
C345 C57 1.193 . S
C369 C70 1.187 . S
C377 C83 1.172 1_455 S
C401 C81 1.172 . S
C409 C96 1.152 1_565 S
C433 C94 1.182 . S
C441 C55 1.173 1_655 S
C465 C109 1.182 . S
C473 C44 1.147 1_565 S
C497 C3 1.187 1_655 S
C505 C122 1.186 . S
C529 C16 1.129 1_545 S
C537 C133 1.185 . S
C561 C31 1.174 1_455 S
C569 C146 1.182 . S
C593 C172 1.154 . S
C601 C159 1.182 . S
C625 C174 1.198 . S
C633 C187 1.161 . S
C657 C200 1.138 . S
C665 C185 1.189 . S
C689 C161 1.190 . S
C697 C198 1.191 . S
C721 C186 1.708 . S
C729 C10 1.731 . S
C753 C199 1.741 . S
C761 C23 1.716 . S
C785 C160 1.720 . S
C793 C30 1.726 . S
C817 C43 1.736 . S
C825 C179 1.719 . S
C849 C62 1.718 . S
C857 C134 1.727 . S
C881 C147 1.702 . S
C889 C75 1.731 . S
C913 C82 1.741 . S
C921 C114 1.716 . S
C945 C95 1.739 . S
C953 C127 1.717 . S
C977 C36 1.351 . S
C985 C4 1.375 . S
C1009 C49 1.379 . S
C1017 C17 1.363 . S
C1041 C56 1.369 . S
C1049 C88 1.369 . S
C1073 C69 1.361 . S
C1081 C101 1.371 . S
C1105 C140 1.371 . S
C1113 C108 1.365 . S
C1137 C121 1.375 . S
C1145 C153 1.364 . S
C1169 C192 1.355 . S
C1177 C166 1.374 . S
C1201 C173 1.351 . S
C1209 C205 1.374 . S
