# Generated by pormake.
# Topology vbm, (6)-cn, num edge types: 1
# Building blocks:
#     Node 0, Type 0, BuildingBlock: INOVEN_clean_sbu_0, # of connection points: 6
#     Node 1, Type 0, BuildingBlock: INOVEN_clean_sbu_0, # of connection points: 6
#     Node 2, Type 0, BuildingBlock: INOVEN_clean_sbu_0, # of connection points: 6
#     Node 3, Type 0, BuildingBlock: INOVEN_clean_sbu_0, # of connection points: 6
#     Node 4, Type 0, BuildingBlock: INOVEN_clean_sbu_0, # of connection points: 6
#     Node 5, Type 0, BuildingBlock: INOVEN_clean_sbu_0, # of connection points: 6
#     Node 6, Type 0, BuildingBlock: INOVEN_clean_sbu_0, # of connection points: 6
#     Node 7, Type 0, BuildingBlock: INOVEN_clean_sbu_0, # of connection points: 6
#     Node 8, Type 0, BuildingBlock: INOVEN_clean_sbu_0, # of connection points: 6
#     Node 9, Type 0, BuildingBlock: INOVEN_clean_sbu_0, # of connection points: 6
#     Node 10, Type 0, BuildingBlock: INOVEN_clean_sbu_0, # of connection points: 6
#     Node 11, Type 0, BuildingBlock: INOVEN_clean_sbu_0, # of connection points: 6
#     Node 12, Type 0, BuildingBlock: INOVEN_clean_sbu_0, # of connection points: 6
#     Node 13, Type 0, BuildingBlock: INOVEN_clean_sbu_0, # of connection points: 6
#     Node 14, Type 0, BuildingBlock: INOVEN_clean_sbu_0, # of connection points: 6
#     Node 15, Type 0, BuildingBlock: INOVEN_clean_sbu_0, # of connection points: 6
#     Edge 16, Type (0, 0), BuildingBlock: CIFDUS_clean_linker_0, # of connection points: 2
#     Edge 17, Type (0, 0), BuildingBlock: CIFDUS_clean_linker_0, # of connection points: 2
#     Edge 18, Type (0, 0), BuildingBlock: CIFDUS_clean_linker_0, # of connection points: 2
#     Edge 19, Type (0, 0), BuildingBlock: CIFDUS_clean_linker_0, # of connection points: 2
#     Edge 20, Type (0, 0), BuildingBlock: CIFDUS_clean_linker_0, # of connection points: 2
#     Edge 21, Type (0, 0), BuildingBlock: CIFDUS_clean_linker_0, # of connection points: 2
#     Edge 22, Type (0, 0), BuildingBlock: CIFDUS_clean_linker_0, # of connection points: 2
#     Edge 23, Type (0, 0), BuildingBlock: CIFDUS_clean_linker_0, # of connection points: 2
#     Edge 24, Type (0, 0), BuildingBlock: CIFDUS_clean_linker_0, # of connection points: 2
#     Edge 25, Type (0, 0), BuildingBlock: CIFDUS_clean_linker_0, # of connection points: 2
#     Edge 26, Type (0, 0), BuildingBlock: CIFDUS_clean_linker_0, # of connection points: 2
#     Edge 27, Type (0, 0), BuildingBlock: CIFDUS_clean_linker_0, # of connection points: 2
#     Edge 28, Type (0, 0), BuildingBlock: CIFDUS_clean_linker_0, # of connection points: 2
#     Edge 29, Type (0, 0), BuildingBlock: CIFDUS_clean_linker_0, # of connection points: 2
#     Edge 30, Type (0, 0), BuildingBlock: CIFDUS_clean_linker_0, # of connection points: 2
#     Edge 31, Type (0, 0), BuildingBlock: CIFDUS_clean_linker_0, # of connection points: 2
#     Edge 32, Type (0, 0), BuildingBlock: CIFDUS_clean_linker_0, # of connection points: 2
#     Edge 33, Type (0, 0), BuildingBlock: CIFDUS_clean_linker_0, # of connection points: 2
#     Edge 34, Type (0, 0), BuildingBlock: CIFDUS_clean_linker_0, # of connection points: 2
#     Edge 35, Type (0, 0), BuildingBlock: CIFDUS_clean_linker_0, # of connection points: 2
#     Edge 36, Type (0, 0), BuildingBlock: CIFDUS_clean_linker_0, # of connection points: 2
#     Edge 37, Type (0, 0), BuildingBlock: CIFDUS_clean_linker_0, # of connection points: 2
#     Edge 38, Type (0, 0), BuildingBlock: CIFDUS_clean_linker_0, # of connection points: 2
#     Edge 39, Type (0, 0), BuildingBlock: CIFDUS_clean_linker_0, # of connection points: 2
#     Edge 40, Type (0, 0), BuildingBlock: CIFDUS_clean_linker_0, # of connection points: 2
#     Edge 41, Type (0, 0), BuildingBlock: CIFDUS_clean_linker_0, # of connection points: 2
#     Edge 42, Type (0, 0), BuildingBlock: CIFDUS_clean_linker_0, # of connection points: 2
#     Edge 43, Type (0, 0), BuildingBlock: CIFDUS_clean_linker_0, # of connection points: 2
#     Edge 44, Type (0, 0), BuildingBlock: CIFDUS_clean_linker_0, # of connection points: 2
#     Edge 45, Type (0, 0), BuildingBlock: CIFDUS_clean_linker_0, # of connection points: 2
#     Edge 46, Type (0, 0), BuildingBlock: CIFDUS_clean_linker_0, # of connection points: 2
#     Edge 47, Type (0, 0), BuildingBlock: CIFDUS_clean_linker_0, # of connection points: 2
#     Edge 48, Type (0, 0), BuildingBlock: CIFDUS_clean_linker_0, # of connection points: 2
#     Edge 49, Type (0, 0), BuildingBlock: CIFDUS_clean_linker_0, # of connection points: 2
#     Edge 50, Type (0, 0), BuildingBlock: CIFDUS_clean_linker_0, # of connection points: 2
#     Edge 51, Type (0, 0), BuildingBlock: CIFDUS_clean_linker_0, # of connection points: 2
#     Edge 52, Type (0, 0), BuildingBlock: CIFDUS_clean_linker_0, # of connection points: 2
#     Edge 53, Type (0, 0), BuildingBlock: CIFDUS_clean_linker_0, # of connection points: 2
#     Edge 54, Type (0, 0), BuildingBlock: CIFDUS_clean_linker_0, # of connection points: 2
#     Edge 55, Type (0, 0), BuildingBlock: CIFDUS_clean_linker_0, # of connection points: 2
#     Edge 56, Type (0, 0), BuildingBlock: CIFDUS_clean_linker_0, # of connection points: 2
#     Edge 57, Type (0, 0), BuildingBlock: CIFDUS_clean_linker_0, # of connection points: 2
#     Edge 58, Type (0, 0), BuildingBlock: CIFDUS_clean_linker_0, # of connection points: 2
#     Edge 59, Type (0, 0), BuildingBlock: CIFDUS_clean_linker_0, # of connection points: 2
#     Edge 60, Type (0, 0), BuildingBlock: CIFDUS_clean_linker_0, # of connection points: 2
#     Edge 61, Type (0, 0), BuildingBlock: CIFDUS_clean_linker_0, # of connection points: 2
#     Edge 62, Type (0, 0), BuildingBlock: CIFDUS_clean_linker_0, # of connection points: 2
#     Edge 63, Type (0, 0), BuildingBlock: CIFDUS_clean_linker_0, # of connection points: 2
# Relax obj value: 0.060
# Max RMSD: 0.140
# Mean RMSD: 0.140
data_MOF--net-vbm--node1-INOVEN_clean_sbu_0--edge1-CIFDUS_clean_linker_0
_symmetry_space_group_name_H-M    P1
_symmetry_Int_Tables_number       1
_symmetry_cell_setting            triclinic
loop_
_symmetry_equiv_pos_as_xyz
'x, y, z'
_cell_length_a     48.048904
_cell_length_b     23.936096
_cell_length_c     48.21489
_cell_angle_alpha  89.94565
_cell_angle_beta   90.022139
_cell_angle_gamma 90.187549
loop_
_atom_site_label
_atom_site_type_symbol
_atom_site_fract_x
_atom_site_fract_y
_atom_site_fract_z
_atom_type_partial_charge
Gd0 Gd 0.13562 0.08217 0.15948 0.0
Gd1 Gd 0.10884 0.20152 0.16613 0.0
C2 C 0.0683 0.10165 0.1534 0.0
C3 C 0.15233 0.98328 0.17307 0.0
C4 C 0.14689 0.92424 0.16635 0.0
C5 C 0.12259 0.90784 0.15236 0.0
C6 C 0.16548 0.88333 0.17567 0.0
C7 C 0.13487 0.80964 0.15848 0.0
C8 C 0.15958 0.8266 0.17177 0.0
C9 C 0.11664 0.85105 0.14846 0.0
C10 C 0.12524 0.12458 0.10817 0.0
C11 C 0.17553 0.19018 0.16156 0.0
C12 C 0.09417 0.30548 0.16671 0.0
C13 C 0.10442 0.36243 0.16049 0.0
C14 C 0.13051 0.38142 0.16983 0.0
C15 C 0.08674 0.3999 0.14679 0.0
C16 C 0.12015 0.47564 0.15343 0.0
C17 C 0.09451 0.45581 0.14323 0.0
C18 C 0.1383 0.43744 0.1663 0.0
C19 C 0.11206 0.13516 0.21198 0.0
O20 O 0.08875 0.06643 0.15969 0.0
O21 O 0.0722 0.15583 0.15072 0.0
O22 O 0.16466 1.01371 0.15401 0.0
O23 O 0.13217 1.00962 0.18586 0.0
O24 O 0.1357 0.0755 0.11268 0.0
O25 O 0.12083 0.14795 0.13125 0.0
O26 O 0.15337 0.2216 0.15764 0.0
O27 O 0.17389 0.13552 0.16573 0.0
O28 O 0.10521 0.27979 0.18802 0.0
O29 O 0.08924 0.27224 0.14567 0.0
O30 O 0.0907 0.16614 0.20621 0.0
O31 O 0.13034 0.14163 0.19357 0.0
H32 H 0.10798 0.93889 0.14499 0.0
H33 H 0.18427 0.89523 0.18664 0.0
H34 H 0.17391 0.79603 0.18008 0.0
H35 H 0.09761 0.83955 0.13782 0.0
H36 H 0.14454 0.35344 0.18055 0.0
H37 H 0.06654 0.3862 0.1394 0.0
H38 H 0.08024 0.48368 0.13275 0.0
H39 H 0.15811 0.45121 0.17459 0.0
Gd40 Gd 0.8547 0.97001 0.16011 0.0
Gd41 Gd 0.88101 0.85047 0.16099 0.0
C42 C 0.92089 0.95023 0.1467 0.0
C43 C 0.84066 0.06851 0.17707 0.0
C44 C 0.84535 0.12759 0.16986 0.0
C45 C 0.86762 0.14391 0.15283 0.0
C46 C 0.82803 0.16854 0.18128 0.0
C47 C 0.85593 0.24211 0.15986 0.0
C48 C 0.83322 0.22524 0.17634 0.0
C49 C 0.87287 0.20066 0.14789 0.0
C50 C 0.85754 0.93246 0.10698 0.0
C51 C 0.81422 0.86348 0.16395 0.0
C52 C 0.89511 0.74629 0.15832 0.0
C53 C 0.88409 0.68945 0.15339 0.0
C54 C 0.85947 0.67044 0.16604 0.0
C55 C 0.89995 0.6519 0.13772 0.0
C56 C 0.86798 0.57595 0.14909 0.0
C57 C 0.89199 0.59583 0.13553 0.0
C58 C 0.85147 0.61426 0.16388 0.0
C59 C 0.88398 0.91246 0.20831 0.0
O60 O 0.90129 0.98459 0.15595 0.0
O61 O 0.91639 0.89657 0.14272 0.0
O62 O 0.82544 0.03897 0.15989 0.0
O63 O 0.86235 0.04131 0.18648 0.0
O64 O 0.84749 0.98051 0.11419 0.0
O65 O 0.86568 0.90699 0.12849 0.0
O66 O 0.83565 0.8319 0.15733 0.0
O67 O 0.81674 0.91754 0.16929 0.0
O68 O 0.88745 0.77117 0.18124 0.0
O69 O 0.89682 0.78031 0.13706 0.0
O70 O 0.90425 0.88217 0.19897 0.0
O71 O 0.86334 0.90795 0.19234 0.0
H72 H 0.8812 0.11284 0.14376 0.0
H73 H 0.8108 0.1567 0.19457 0.0
H74 H 0.81996 0.25588 0.18618 0.0
H75 H 0.89031 0.21209 0.13482 0.0
H76 H 0.84689 0.69849 0.17836 0.0
H77 H 0.91902 0.66562 0.12779 0.0
H78 H 0.90491 0.56783 0.12353 0.0
H79 H 0.83296 0.60046 0.17474 0.0
Gd80 Gd 0.12665 0.97974 0.39822 0.0
Gd81 Gd 0.10311 0.86686 0.39111 0.0
C82 C 0.05969 0.95926 0.40179 0.0
C83 C 0.14189 0.08365 0.39565 0.0
C84 C 0.13231 0.14174 0.3929 0.0
C85 C 0.10871 0.16147 0.40694 0.0
C86 C 0.14857 0.1792 0.37746 0.0
C87 C 0.11889 0.2564 0.39141 0.0
C88 C 0.14194 0.23592 0.37668 0.0
C89 C 0.10204 0.21838 0.40618 0.0
C90 C 0.12728 0.91927 0.44601 0.0
C91 C 0.16929 0.88112 0.39034 0.0
C92 C 0.0881 0.76277 0.39049 0.0
C93 C 0.09802 0.70496 0.39381 0.0
C94 C 0.12209 0.68549 0.38047 0.0
C95 C 0.08168 0.66743 0.40913 0.0
C96 C 0.11211 0.59063 0.39623 0.0
C97 C 0.08866 0.61093 0.4104 0.0
C98 C 0.12908 0.62876 0.38168 0.0
C99 C 0.10113 0.93263 0.34494 0.0
O100 O 0.07982 0.99551 0.39601 0.0
O101 O 0.06476 0.90618 0.40571 0.0
O102 O 0.13631 0.0576 0.41883 0.0
O103 O 0.13993 0.05149 0.37384 0.0
O104 O 0.14757 0.95031 0.43718 0.0
O105 O 0.10748 0.92063 0.42864 0.0
O106 O 0.14824 0.84821 0.39659 0.0
O107 O 0.16578 0.93508 0.38627 0.0
O108 O 0.09607 0.79024 0.36841 0.0
O109 O 0.08711 0.79387 0.41274 0.0
O110 O 0.08101 0.90049 0.35309 0.0
O111 O 0.12152 0.92776 0.36123 0.0
H112 H 0.09585 0.13325 0.41901 0.0
H113 H 0.16685 0.16474 0.36648 0.0
H114 H 0.15503 0.26384 0.36468 0.0
H115 H 0.08423 0.23284 0.41786 0.0
H116 H 0.13509 0.71371 0.36854 0.0
H117 H 0.06305 0.68163 0.41962 0.0
H118 H 0.07547 0.58299 0.42228 0.0
H119 H 0.14723 0.61451 0.37045 0.0
Gd120 Gd 0.84044 0.06479 0.39662 0.0
Gd121 Gd 0.86673 0.17568 0.38893 0.0
C122 C 0.9069 0.08203 0.40705 0.0
C123 C 0.82415 0.96126 0.39466 0.0
C124 C 0.83292 0.90221 0.39377 0.0
C125 C 0.81641 0.86222 0.40731 0.0
C126 C 0.85602 0.88446 0.37832 0.0
C127 C 0.84505 0.78689 0.389 0.0
C128 C 0.86204 0.82731 0.37598 0.0
C129 C 0.82236 0.80529 0.40497 0.0
C130 C 0.83617 0.12966 0.44244 0.0
C131 C 0.80056 0.16618 0.38358 0.0
C132 C 0.88378 0.27879 0.38639 0.0
C133 C 0.87487 0.33772 0.38693 0.0
C134 C 0.89158 0.3778 0.37373 0.0
C135 C 0.85128 0.35521 0.4017 0.0
C136 C 0.86222 0.45283 0.39118 0.0
C137 C 0.84502 0.41228 0.40382 0.0
C138 C 0.88536 0.43467 0.3758 0.0
C139 C 0.8684 0.10588 0.34401 0.0
O140 O 0.88711 0.04707 0.39871 0.0
O141 O 0.90227 0.13565 0.40921 0.0
O142 O 0.82786 0.98852 0.41783 0.0
O143 O 0.82865 0.99198 0.37265 0.0
O144 O 0.81651 0.09824 0.43259 0.0
O145 O 0.8577 0.12585 0.4273 0.0
O146 O 0.82172 0.19805 0.3908 0.0
O147 O 0.80327 0.1116 0.38081 0.0
O148 O 0.87738 0.24927 0.36453 0.0
O149 O 0.88169 0.25039 0.40946 0.0
O150 O 0.88952 0.13523 0.3524 0.0
O151 O 0.84802 0.11492 0.35964 0.0
H152 H 0.79837 0.875 0.41917 0.0
H153 H 0.8691 0.91458 0.3677 0.0
H154 H 0.87991 0.81481 0.36383 0.0
H155 H 0.80855 0.77563 0.41496 0.0
H156 H 0.90996 0.36518 0.36235 0.0
H157 H 0.83802 0.32491 0.41198 0.0
H158 H 0.82681 0.42466 0.41549 0.0
H159 H 0.89928 0.4645 0.3661 0.0
Gd160 Gd 0.88504 0.84722 0.88972 0.0
Gd161 Gd 0.85707 0.96629 0.89265 0.0
C162 C 0.81806 0.85812 0.88612 0.0
C163 C 0.90085 0.74385 0.89153 0.0
C164 C 0.89025 0.6862 0.89426 0.0
C165 C 0.86344 0.67129 0.8853 0.0
C166 C 0.90819 0.64449 0.90398 0.0
C167 C 0.87331 0.57283 0.89425 0.0
C168 C 0.89986 0.58842 0.90395 0.0
C169 C 0.855 0.61519 0.8854 0.0
C170 C 0.88695 0.91223 0.84342 0.0
C171 C 0.92336 0.94873 0.90558 0.0
C172 C 0.84182 0.06529 0.87757 0.0
C173 C 0.84577 0.1244 0.88534 0.0
C174 C 0.87076 0.14354 0.89714 0.0
C175 C 0.82458 0.16284 0.87961 0.0
C176 C 0.85366 0.23952 0.89627 0.0
C177 C 0.82844 0.21977 0.88503 0.0
C178 C 0.87467 0.20054 0.90253 0.0
C179 C 0.8621 0.9246 0.94497 0.0
O180 O 0.83972 0.82639 0.89195 0.0
O181 O 0.82011 0.91274 0.88219 0.0
O182 O 0.89456 0.7702 0.86858 0.0
O183 O 0.89994 0.77597 0.91351 0.0
O184 O 0.90752 0.88182 0.85206 0.0
O185 O 0.86645 0.9064 0.85949 0.0
O186 O 0.90345 0.98266 0.8966 0.0
O187 O 0.91958 0.89459 0.90878 0.0
O188 O 0.82713 0.03403 0.89451 0.0
O189 O 0.86357 0.03957 0.8673 0.0
O190 O 0.85085 0.97243 0.93919 0.0
O191 O 0.86947 0.90172 0.92259 0.0
H192 H 0.84934 0.70281 0.87753 0.0
H193 H 0.92905 0.65508 0.91076 0.0
H194 H 0.9147 0.55714 0.91053 0.0
H195 H 0.83427 0.60496 0.87816 0.0
H196 H 0.88744 0.11459 0.90171 0.0
H197 H 0.80512 0.1489 0.87056 0.0
H198 H 0.81163 0.24832 0.88039 0.0
H199 H 0.89446 0.21422 0.91093 0.0
Gd200 Gd 0.11025 0.20472 0.88881 0.0
Gd201 Gd 0.13614 0.08528 0.89697 0.0
C202 C 0.17659 0.19245 0.89668 0.0
C203 C 0.09523 0.30822 0.8863 0.0
C204 C 0.10478 0.36605 0.89087 0.0
C205 C 0.09896 0.40588 0.87038 0.0
C206 C 0.1185 0.38282 0.91525 0.0
C207 C 0.11986 0.47909 0.89857 0.0
C208 C 0.12589 0.43904 0.91911 0.0
C209 C 0.10642 0.46169 0.87414 0.0
C210 C 0.11461 0.13786 0.84341 0.0
C211 C 0.06903 0.10552 0.90156 0.0
C212 C 0.15313 0.98714 0.88267 0.0
C213 C 0.14823 0.92633 0.88572 0.0
C214 C 0.15764 0.8963 0.909 0.0
C215 C 0.13628 0.89688 0.86351 0.0
C216 C 0.14442 0.80841 0.887 0.0
C217 C 0.13429 0.83877 0.86419 0.0
C218 C 0.15561 0.83783 0.90968 0.0
C219 C 0.12561 0.1294 0.94764 0.0
O220 O 0.15451 0.22483 0.89859 0.0
O221 O 0.17485 0.13771 0.893 0.0
O222 O 0.1065 0.28155 0.86547 0.0
O223 O 0.09079 0.27645 0.90804 0.0
O224 O 0.09308 0.16867 0.84859 0.0
O225 O 0.13242 0.14419 0.86233 0.0
O226 O 0.08949 0.06983 0.89624 0.0
O227 O 0.07293 0.15984 0.90347 0.0
O228 O 0.16392 1.01507 0.90353 0.0
O229 O 0.13425 1.01534 0.86894 0.0
O230 O 0.13574 0.07975 0.94382 0.0
O231 O 0.12107 0.15197 0.92436 0.0
H232 H 0.08824 0.39389 0.85151 0.0
H233 H 0.12329 0.35274 0.93133 0.0
H234 H 0.13639 0.45115 0.93806 0.0
H235 H 0.10102 0.49152 0.85813 0.0
H236 H 0.16723 0.91772 0.92634 0.0
H237 H 0.12909 0.91871 0.84517 0.0
H238 H 0.12511 0.81748 0.84658 0.0
H239 H 0.16372 0.81557 0.92749 0.0
Gd240 Gd 0.87368 0.16798 0.6606 0.0
Gd241 Gd 0.84474 0.05742 0.65396 0.0
C242 C 0.80628 0.16292 0.66389 0.0
C243 C 0.89097 0.27107 0.65851 0.0
C244 C 0.88144 0.32989 0.65989 0.0
C245 C 0.89883 0.36998 0.67222 0.0
C246 C 0.85616 0.34733 0.64809 0.0
C247 C 0.86641 0.44465 0.66023 0.0
C248 C 0.84873 0.40407 0.64828 0.0
C249 C 0.89145 0.42655 0.67243 0.0
C250 C 0.87111 0.10406 0.70722 0.0
C251 C 0.91258 0.06586 0.64869 0.0
C252 C 0.82754 0.95439 0.65764 0.0
C253 C 0.83673 0.89532 0.65639 0.0
C254 C 0.81917 0.85556 0.64399 0.0
C255 C 0.8618 0.87731 0.66839 0.0
C256 C 0.85113 0.78022 0.65614 0.0
C257 C 0.86892 0.82042 0.66826 0.0
C258 C 0.82625 0.79882 0.64383 0.0
C259 C 0.84761 0.11839 0.60647 0.0
O260 O 0.82866 0.19308 0.65852 0.0
O261 O 0.80757 0.10804 0.66665 0.0
O262 O 0.89012 0.24178 0.68139 0.0
O263 O 0.88397 0.24191 0.63663 0.0
O264 O 0.89276 0.13319 0.70004 0.0
O265 O 0.85172 0.11144 0.68995 0.0
O266 O 0.89067 0.03405 0.65439 0.0
O267 O 0.91038 0.12041 0.64606 0.0
O268 O 0.82753 0.98284 0.6345 0.0
O269 O 0.8355 0.98427 0.67895 0.0
O270 O 0.82606 0.08965 0.61431 0.0
O271 O 0.86698 0.11289 0.62407 0.0
H272 H 0.91842 0.35757 0.68149 0.0
H273 H 0.84235 0.31728 0.6384 0.0
H274 H 0.82938 0.41622 0.63848 0.0
H275 H 0.90537 0.45609 0.68233 0.0
H276 H 0.79971 0.86839 0.63461 0.0
H277 H 0.87573 0.90705 0.67817 0.0
H278 H 0.88813 0.80784 0.67818 0.0
H279 H 0.81224 0.76955 0.63386 0.0
Gd280 Gd 0.11004 0.87712 0.66189 0.0
Gd281 Gd 0.13914 0.99639 0.66147 0.0
C282 C 0.17725 0.8866 0.66869 0.0
C283 C 0.09413 0.7739 0.65718 0.0
C284 C 0.105 0.71627 0.6557 0.0
C285 C 0.13013 0.70128 0.66854 0.0
C286 C 0.08866 0.67452 0.64333 0.0
C287 C 0.12139 0.60273 0.65828 0.0
C288 C 0.09673 0.6184 0.64459 0.0
C289 C 0.13828 0.64512 0.66976 0.0
C290 C 0.10701 0.93944 0.70892 0.0
C291 C 0.07268 0.98171 0.64754 0.0
C292 C 0.15441 0.09479 0.67793 0.0
C293 C 0.15063 0.15418 0.67053 0.0
C294 C 0.12764 0.17211 0.65494 0.0
C295 C 0.16979 0.19391 0.68022 0.0
C296 C 0.14268 0.26938 0.65956 0.0
C297 C 0.16591 0.25084 0.67479 0.0
C298 C 0.1237 0.22913 0.64951 0.0
C299 C 0.13557 0.95658 0.60857 0.0
O300 O 0.15538 0.8553 0.66261 0.0
O301 O 0.17561 0.94145 0.67228 0.0
O302 O 0.09714 0.79965 0.68094 0.0
O303 O 0.09815 0.80672 0.63575 0.0
O304 O 0.08677 0.90881 0.6995 0.0
O305 O 0.128 0.93462 0.69338 0.0
O306 O 0.09312 1.01452 0.65654 0.0
O307 O 0.07566 0.92736 0.64389 0.0
O308 O 0.16932 0.06423 0.66099 0.0
O309 O 0.13239 0.06858 0.68746 0.0
O310 O 0.14713 1.0038 0.61519 0.0
O311 O 0.12692 0.93371 0.63052 0.0
H312 H 0.14304 0.73276 0.67833 0.0
H313 H 0.06909 0.68512 0.63349 0.0
H314 H 0.08301 0.58711 0.6358 0.0
H315 H 0.15762 0.63486 0.68008 0.0
H316 H 0.11253 0.14213 0.64732 0.0
H317 H 0.18769 0.18092 0.69226 0.0
H318 H 0.1812 0.28034 0.68248 0.0
H319 H 0.10543 0.24174 0.63798 0.0
Gd320 Gd 0.64114 0.56153 0.14842 0.0
Gd321 Gd 0.61291 0.67232 0.15654 0.0
C322 C 0.57339 0.57022 0.14581 0.0
C323 C 0.65825 0.45861 0.15115 0.0
C324 C 0.64894 0.39955 0.1502 0.0
C325 C 0.66594 0.36 0.1371 0.0
C326 C 0.6244 0.38131 0.16328 0.0
C327 C 0.63456 0.28436 0.15074 0.0
C328 C 0.61729 0.32435 0.16354 0.0
C329 C 0.65887 0.30319 0.13733 0.0
C330 C 0.63594 0.62283 0.10111 0.0
C331 C 0.68022 0.66651 0.15794 0.0
C332 C 0.59558 0.77512 0.15533 0.0
C333 C 0.60516 0.83398 0.1565 0.0
C334 C 0.58822 0.8737 0.16954 0.0
C335 C 0.62997 0.85182 0.1438 0.0
C336 C 0.62009 0.94887 0.15638 0.0
C337 C 0.63735 0.90865 0.14375 0.0
C338 C 0.59558 0.93035 0.16953 0.0
C339 C 0.61629 0.6071 0.2026 0.0
O340 O 0.59528 0.53819 0.1508 0.0
O341 O 0.5758 0.62471 0.14293 0.0
O342 O 0.65734 0.48723 0.12808 0.0
O343 O 0.65123 0.48823 0.17282 0.0
O344 O 0.65784 0.59417 0.10777 0.0
O345 O 0.61772 0.61735 0.11985 0.0
O346 O 0.65794 0.69711 0.1532 0.0
O347 O 0.67869 0.61165 0.16041 0.0
O348 O 0.59728 0.74566 0.1781 0.0
O349 O 0.60179 0.74629 0.13313 0.0
O350 O 0.59471 0.63692 0.19622 0.0
O351 O 0.63532 0.61483 0.18494 0.0
H352 H 0.68498 0.37303 0.1269 0.0
H353 H 0.61093 0.41092 0.17363 0.0
H354 H 0.59855 0.31154 0.1743 0.0
H355 H 0.67243 0.27403 0.12682 0.0
H356 H 0.56902 0.86093 0.17951 0.0
H357 H 0.64341 0.82203 0.13357 0.0
H358 H 0.65628 0.92117 0.13323 0.0
H359 H 0.58203 0.95965 0.17996 0.0
Gd360 Gd 0.34632 0.5023 0.15878 0.0
Gd361 Gd 0.37573 0.38242 0.16156 0.0
C362 C 0.41311 0.4882 0.14852 0.0
C363 C 0.32968 0.60076 0.17316 0.0
C364 C 0.33586 0.6599 0.16634 0.0
C365 C 0.31396 0.69805 0.16326 0.0
C366 C 0.36338 0.67938 0.16398 0.0
C367 C 0.34695 0.77471 0.15628 0.0
C368 C 0.36885 0.73606 0.15912 0.0
C369 C 0.3194 0.75476 0.15823 0.0
C370 C 0.35592 0.46164 0.10659 0.0
C371 C 0.30811 0.39163 0.16367 0.0
C372 C 0.39303 0.28016 0.15786 0.0
C373 C 0.38349 0.22176 0.15516 0.0
C374 C 0.4031 0.17879 0.15735 0.0
C375 C 0.35527 0.208 0.15194 0.0
C376 C 0.36639 0.10845 0.15417 0.0
C377 C 0.34676 0.15182 0.15156 0.0
C378 C 0.3947 0.1228 0.15681 0.0
C379 C 0.37673 0.44682 0.20794 0.0
O380 O 0.39253 0.52081 0.15714 0.0
O381 O 0.41016 0.43392 0.14447 0.0
O382 O 0.31704 0.57085 0.15411 0.0
O383 O 0.34919 0.57311 0.18633 0.0
O384 O 0.34566 0.5107 0.1117 0.0
O385 O 0.3602 0.43848 0.12964 0.0
O386 O 0.33046 0.36026 0.16032 0.0
O387 O 0.30908 0.44686 0.16584 0.0
O388 O 0.38742 0.3049 0.1814 0.0
O389 O 0.39014 0.31313 0.13631 0.0
O390 O 0.39722 0.4155 0.19993 0.0
O391 O 0.35645 0.44126 0.19147 0.0
H392 H 0.29256 0.68404 0.16497 0.0
H393 H 0.38074 0.65099 0.16628 0.0
H394 H 0.39034 0.7497 0.15818 0.0
H395 H 0.30197 0.78288 0.15574 0.0
H396 H 0.42497 0.18856 0.16003 0.0
H397 H 0.33987 0.24063 0.15005 0.0
H398 H 0.32482 0.14234 0.14922 0.0
H399 H 0.41036 0.09074 0.15931 0.0
Gd400 Gd 0.62717 0.4623 0.38903 0.0
Gd401 Gd 0.6002 0.34983 0.38481 0.0
C402 C 0.5599 0.44863 0.39631 0.0
C403 C 0.64354 0.5653 0.38337 0.0
C404 C 0.63425 0.62402 0.38305 0.0
C405 C 0.61126 0.64224 0.39851 0.0
C406 C 0.64978 0.66318 0.36788 0.0
C407 C 0.62019 0.7388 0.38432 0.0
C408 C 0.64285 0.71987 0.36846 0.0
C409 C 0.60428 0.69912 0.39913 0.0
C410 C 0.62698 0.40455 0.43757 0.0
C411 C 0.66682 0.35912 0.37993 0.0
C412 C 0.5836 0.24662 0.38795 0.0
C413 C 0.59334 0.18818 0.38904 0.0
C414 C 0.61665 0.16991 0.37404 0.0
C415 C 0.57795 0.14924 0.40449 0.0
C416 C 0.60814 0.07372 0.38905 0.0
C417 C 0.58525 0.09274 0.40455 0.0
C418 C 0.62399 0.1132 0.37406 0.0
C419 C 0.5996 0.41206 0.33752 0.0
O420 O 0.58082 0.48186 0.38905 0.0
O421 O 0.56347 0.39489 0.40028 0.0
O422 O 0.64286 0.53897 0.40711 0.0
O423 O 0.63615 0.53372 0.36251 0.0
O424 O 0.64777 0.43399 0.42845 0.0
O425 O 0.60703 0.40707 0.42047 0.0
O426 O 0.64536 0.32809 0.38723 0.0
O427 O 0.66444 0.41335 0.3757 0.0
O428 O 0.58671 0.27366 0.36458 0.0
O429 O 0.5883 0.27782 0.40971 0.0
O430 O 0.57869 0.3825 0.34626 0.0
O431 O 0.6199 0.4064 0.35384 0.0
H432 H 0.59898 0.6127 0.41041 0.0
H433 H 0.66757 0.64995 0.35577 0.0
H434 H 0.65524 0.74887 0.35637 0.0
H435 H 0.58681 0.71215 0.41172 0.0
H436 H 0.62887 0.19921 0.36194 0.0
H437 H 0.55994 0.16247 0.41628 0.0
H438 H 0.5729 0.06392 0.41679 0.0
H439 H 0.64165 0.10013 0.36175 0.0
Gd440 Gd 0.3475 0.59406 0.39629 0.0
Gd441 Gd 0.37342 0.70702 0.38892 0.0
C442 C 0.4152 0.60803 0.39508 0.0
C443 C 0.33023 0.49158 0.39133 0.0
C444 C 0.33798 0.43223 0.39321 0.0
C445 C 0.36279 0.41462 0.4058 0.0
C446 C 0.31956 0.39224 0.38249 0.0
C447 C 0.35021 0.31697 0.39729 0.0
C448 C 0.32554 0.33531 0.38452 0.0
C449 C 0.36884 0.35741 0.40785 0.0
C450 C 0.35511 0.65036 0.44476 0.0
C451 C 0.30667 0.69681 0.39103 0.0
C452 C 0.3907 0.8098 0.39125 0.0
C453 C 0.38183 0.86869 0.39171 0.0
C454 C 0.35662 0.8862 0.3799 0.0
C455 C 0.39989 0.90861 0.40312 0.0
C456 C 0.36837 0.98363 0.38989 0.0
C457 C 0.39328 0.96541 0.40223 0.0
C458 C 0.34994 0.94321 0.379 0.0
C459 C 0.36722 0.64601 0.34168 0.0
O460 O 0.3936 0.574 0.39175 0.0
O461 O 0.41209 0.662 0.39863 0.0
O462 O 0.32888 0.51992 0.41444 0.0
O463 O 0.34073 0.52049 0.37081 0.0
O464 O 0.33327 0.62073 0.43879 0.0
O465 O 0.37204 0.64836 0.4247 0.0
O466 O 0.32855 0.72862 0.39597 0.0
O467 O 0.30912 0.64276 0.38643 0.0
O468 O 0.3873 0.78227 0.36808 0.0
O469 O 0.38543 0.77959 0.41326 0.0
O470 O 0.38903 0.67605 0.34722 0.0
O471 O 0.3496 0.65111 0.36087 0.0
H472 H 0.37733 0.44497 0.41411 0.0
H473 H 0.30026 0.40508 0.37278 0.0
H474 H 0.31048 0.30561 0.37657 0.0
H475 H 0.38817 0.34487 0.41754 0.0
H476 H 0.34233 0.85598 0.37105 0.0
H477 H 0.4195 0.89591 0.41223 0.0
H478 H 0.40816 0.99515 0.41047 0.0
H479 H 0.33041 0.95562 0.36967 0.0
Gd480 Gd 0.37739 0.36684 0.8873 0.0
Gd481 Gd 0.3548 0.48701 0.89499 0.0
C482 C 0.31234 0.3839 0.89697 0.0
C483 C 0.38903 0.2617 0.88406 0.0
C484 C 0.37974 0.2057 0.89308 0.0
C485 C 0.39892 0.17038 0.90617 0.0
C486 C 0.35311 0.18498 0.88658 0.0
C487 C 0.36599 0.09296 0.90399 0.0
C488 C 0.34631 0.12913 0.89201 0.0
C489 C 0.39211 0.11469 0.91167 0.0
C490 C 0.37442 0.43341 0.84147 0.0
C491 C 0.42134 0.45998 0.89944 0.0
C492 C 0.33917 0.58666 0.88177 0.0
C493 C 0.34455 0.64531 0.88897 0.0
C494 C 0.32502 0.68588 0.88145 0.0
C495 C 0.36945 0.66173 0.90186 0.0
C496 C 0.35581 0.75951 0.89812 0.0
C497 C 0.37504 0.71842 0.90638 0.0
C498 C 0.33055 0.74247 0.88598 0.0
C499 C 0.36403 0.44484 0.94625 0.0
O500 O 0.33397 0.35138 0.90116 0.0
O501 O 0.31509 0.43741 0.89056 0.0
O502 O 0.37355 0.28803 0.86592 0.0
O503 O 0.39979 0.29473 0.90292 0.0
O504 O 0.39542 0.40148 0.84695 0.0
O505 O 0.35653 0.42844 0.86032 0.0
O506 O 0.40195 0.49756 0.89324 0.0
O507 O 0.41561 0.40668 0.90259 0.0
O508 O 0.32625 0.55616 0.90037 0.0
O509 O 0.35949 0.56024 0.86928 0.0
O510 O 0.35544 0.49522 0.94147 0.0
O511 O 0.36824 0.41977 0.92352 0.0
H512 H 0.41958 0.1854 0.91136 0.0
H513 H 0.33787 0.21125 0.87644 0.0
H514 H 0.32606 0.11375 0.88566 0.0
H515 H 0.40757 0.08832 0.92141 0.0
H516 H 0.30573 0.67387 0.87139 0.0
H517 H 0.38475 0.63086 0.9079 0.0
H518 H 0.39454 0.73013 0.91607 0.0
H519 H 0.31546 0.77296 0.87905 0.0
Gd520 Gd 0.61607 0.68431 0.87916 0.0
Gd521 Gd 0.63962 0.56478 0.88764 0.0
C522 C 0.68195 0.66797 0.88399 0.0
C523 C 0.60231 0.78846 0.87503 0.0
C524 C 0.61076 0.84577 0.88205 0.0
C525 C 0.59087 0.88825 0.88034 0.0
C526 C 0.63837 0.85936 0.88878 0.0
C527 C 0.62632 0.95824 0.89037 0.0
C528 C 0.64613 0.91525 0.89281 0.0
C529 C 0.59853 0.94392 0.88449 0.0
C530 C 0.61664 0.61475 0.83438 0.0
C531 C 0.5735 0.59128 0.89616 0.0
C532 C 0.65375 0.46358 0.87582 0.0
C533 C 0.64828 0.4054 0.88453 0.0
C534 C 0.6708 0.37011 0.8903 0.0
C535 C 0.62112 0.38351 0.88551 0.0
C536 C 0.63931 0.29102 0.89639 0.0
C537 C 0.6167 0.3269 0.89131 0.0
C538 C 0.66639 0.31359 0.89626 0.0
C539 C 0.63415 0.61124 0.93852 0.0
O540 O 0.66065 0.70131 0.88852 0.0
O541 O 0.67889 0.61373 0.87954 0.0
O542 O 0.61743 0.7623 0.8566 0.0
O543 O 0.59406 0.75624 0.89541 0.0
O544 O 0.59592 0.647 0.84042 0.0
O545 O 0.63551 0.62104 0.85214 0.0
O546 O 0.59256 0.55354 0.8894 0.0
O547 O 0.57922 0.64482 0.89779 0.0
O548 O 0.668 0.49518 0.89294 0.0
O549 O 0.63341 0.49012 0.86336 0.0
O550 O 0.64328 0.56114 0.93411 0.0
O551 O 0.628 0.63416 0.91563 0.0
H552 H 0.56948 0.87849 0.87506 0.0
H553 H 0.65392 0.82697 0.89042 0.0
H554 H 0.66765 0.92487 0.89759 0.0
H555 H 0.58283 0.97593 0.88206 0.0
H556 H 0.69192 0.38607 0.88967 0.0
H557 H 0.60331 0.40972 0.88116 0.0
H558 H 0.59559 0.31096 0.89089 0.0
H559 H 0.68425 0.28748 0.90054 0.0
Gd560 Gd 0.37961 0.70669 0.66443 0.0
Gd561 Gd 0.35574 0.59099 0.65822 0.0
C562 C 0.31299 0.69433 0.66665 0.0
C563 C 0.39389 0.81136 0.66415 0.0
C564 C 0.38363 0.86882 0.65904 0.0
C565 C 0.35834 0.88795 0.67012 0.0
C566 C 0.4007 0.90668 0.64466 0.0
C567 C 0.36817 0.98269 0.65367 0.0
C568 C 0.39309 0.96286 0.64197 0.0
C569 C 0.35067 0.94421 0.66741 0.0
C570 C 0.38443 0.63913 0.70978 0.0
C571 C 0.42149 0.60975 0.65114 0.0
C572 C 0.33419 0.49242 0.66547 0.0
C573 C 0.34039 0.43286 0.66057 0.0
C574 C 0.36487 0.41596 0.64719 0.0
C575 C 0.32215 0.3921 0.67097 0.0
C576 C 0.35312 0.31772 0.65548 0.0
C577 C 0.3284 0.33522 0.66848 0.0
C578 C 0.37115 0.35895 0.6446 0.0
C579 C 0.36826 0.64075 0.60903 0.0
O580 O 0.33465 0.72809 0.66677 0.0
O581 O 0.31567 0.63952 0.66399 0.0
O582 O 0.3844 0.78518 0.68607 0.0
O583 O 0.39719 0.77842 0.6427 0.0
O584 O 0.404 0.672 0.70103 0.0
O585 O 0.36343 0.64399 0.6944 0.0
O586 O 0.40209 0.5749 0.66034 0.0
O587 O 0.41597 0.66264 0.64608 0.0
O588 O 0.32893 0.52366 0.64378 0.0
O589 O 0.34986 0.51765 0.68384 0.0
O590 O 0.37254 0.58846 0.6147 0.0
O591 O 0.35711 0.66438 0.62975 0.0
H592 H 0.34483 0.85982 0.6815 0.0
H593 H 0.42034 0.89302 0.63599 0.0
H594 H 0.40686 0.99088 0.63083 0.0
H595 H 0.33143 0.95788 0.67689 0.0
H596 H 0.3793 0.44682 0.63911 0.0
H597 H 0.30326 0.40432 0.6816 0.0
H598 H 0.31421 0.30507 0.67752 0.0
H599 H 0.39019 0.34723 0.63416 0.0
Gd600 Gd 0.60759 0.35688 0.65223 0.0
Gd601 Gd 0.63521 0.46859 0.65029 0.0
C602 C 0.67418 0.36405 0.66148 0.0
C603 C 0.59085 0.25384 0.64762 0.0
C604 C 0.60031 0.19509 0.64794 0.0
C605 C 0.62314 0.17755 0.66391 0.0
C606 C 0.58518 0.15524 0.63283 0.0
C607 C 0.61481 0.08041 0.6503 0.0
C608 C 0.59231 0.09864 0.63397 0.0
C609 C 0.63035 0.12077 0.66504 0.0
C610 C 0.60424 0.41793 0.69975 0.0
C611 C 0.56817 0.45678 0.63983 0.0
C612 C 0.65137 0.57175 0.6562 0.0
C613 C 0.64162 0.63026 0.65757 0.0
C614 C 0.61846 0.64885 0.6424 0.0
C615 C 0.65708 0.66912 0.673 0.0
C616 C 0.62726 0.74514 0.65716 0.0
C617 C 0.65001 0.72583 0.67284 0.0
C618 C 0.61136 0.70569 0.6422 0.0
C619 C 0.6393 0.41069 0.60215 0.0
O620 O 0.65272 0.33348 0.65365 0.0
O621 O 0.67203 0.41866 0.66501 0.0
O622 O 0.59151 0.28116 0.67106 0.0
O623 O 0.59815 0.28469 0.62642 0.0
O624 O 0.5838 0.38897 0.68958 0.0
O625 O 0.62548 0.41241 0.68471 0.0
O626 O 0.58884 0.48899 0.64874 0.0
O627 O 0.57199 0.40341 0.63485 0.0
O628 O 0.64944 0.54643 0.63228 0.0
O629 O 0.6456 0.53889 0.67713 0.0
O630 O 0.65922 0.43957 0.61332 0.0
O631 O 0.61757 0.41387 0.61698 0.0
H632 H 0.63509 0.20754 0.67583 0.0
H633 H 0.56752 0.16785 0.62035 0.0
H634 H 0.5802 0.06914 0.62191 0.0
H635 H 0.64769 0.10837 0.67797 0.0
H636 H 0.60622 0.61966 0.63027 0.0
H637 H 0.67502 0.65571 0.68486 0.0
H638 H 0.66242 0.75456 0.68504 0.0
H639 H 0.59383 0.7189 0.62972 0.0
H640 H 0.18501 0.3017 0.15841 0.0
H641 H 0.22748 0.14369 0.16679 0.0
H642 H 0.27216 0.1928 0.16906 0.0
H643 H 0.29875 0.28019 0.16876 0.0
H644 H 0.25611 0.43786 0.16023 0.0
H645 H 0.21146 0.38879 0.15862 0.0
C646 C 0.20396 0.27769 0.16072 0.0
C647 C 0.20284 0.21891 0.16236 0.0
C648 C 0.22942 0.30611 0.16223 0.0
C649 C 0.22771 0.18886 0.16542 0.0
C650 C 0.25324 0.21693 0.16678 0.0
C651 C 0.27977 0.30398 0.16638 0.0
C652 C 0.28086 0.36269 0.16435 0.0
C653 C 0.25428 0.27551 0.16521 0.0
C654 C 0.25592 0.39273 0.16186 0.0
C655 C 0.2304 0.36468 0.1608 0.0
H656 H 0.80387 0.75246 0.16445 0.0
H657 H 0.76254 0.91236 0.16565 0.0
H658 H 0.71725 0.86505 0.16435 0.0
H659 H 0.6898 0.77839 0.16135 0.0
H660 H 0.73178 0.61901 0.1604 0.0
H661 H 0.77672 0.66648 0.16314 0.0
C662 C 0.78502 0.77722 0.16449 0.0
C663 C 0.78662 0.83597 0.16496 0.0
C664 C 0.75926 0.74986 0.16371 0.0
C665 C 0.7619 0.86713 0.16531 0.0
C666 C 0.73604 0.8401 0.16448 0.0
C667 C 0.70875 0.75393 0.16176 0.0
C668 C 0.70741 0.69513 0.1605 0.0
C669 C 0.73452 0.78149 0.16341 0.0
C670 C 0.73219 0.66421 0.16131 0.0
C671 C 0.75789 0.69133 0.16285 0.0
H672 H 0.29499 0.80764 0.38984 0.0
H673 H 0.25617 0.64455 0.3896 0.0
H674 H 0.21029 0.68785 0.38856 0.0
H675 H 0.18147 0.77127 0.3887 0.0
H676 H 0.21977 0.93478 0.38853 0.0
H677 H 0.26591 0.89168 0.3885 0.0
C678 C 0.27651 0.78151 0.38959 0.0
C679 C 0.27897 0.72294 0.38996 0.0
C680 C 0.25024 0.80664 0.38886 0.0
C681 C 0.25484 0.68971 0.38934 0.0
C682 C 0.22861 0.71441 0.38877 0.0
C683 C 0.19987 0.79767 0.38865 0.0
C684 C 0.19724 0.85615 0.38883 0.0
C685 C 0.22612 0.77274 0.38867 0.0
C686 C 0.22128 0.88964 0.38841 0.0
C687 C 0.24762 0.86504 0.38848 0.0
H688 H 0.79067 0.27663 0.37838 0.0
H689 H 0.7494 0.11603 0.37994 0.0
H690 H 0.70416 0.16231 0.37734 0.0
H691 H 0.6767 0.24811 0.3775 0.0
H692 H 0.71806 0.40864 0.37637 0.0
H693 H 0.76328 0.36217 0.3758 0.0
C694 C 0.7718 0.2516 0.37807 0.0
C695 C 0.77332 0.19299 0.37967 0.0
C696 C 0.74603 0.27838 0.37673 0.0
C697 C 0.74874 0.1612 0.3788 0.0
C698 C 0.72291 0.18762 0.3774 0.0
C699 C 0.69558 0.27306 0.37702 0.0
C700 C 0.69408 0.33176 0.37728 0.0
C701 C 0.72137 0.24616 0.37682 0.0
C702 C 0.7187 0.36341 0.37625 0.0
C703 C 0.74452 0.33689 0.376 0.0
H704 H 0.69391 0.77681 0.87619 0.0
H705 H 0.73256 0.61683 0.89044 0.0
H706 H 0.77836 0.66211 0.89195 0.0
H707 H 0.80667 0.74732 0.89088 0.0
H708 H 0.76756 0.90712 0.87654 0.0
H709 H 0.72218 0.86136 0.87393 0.0
C710 C 0.71229 0.75176 0.87985 0.0
C711 C 0.70985 0.69368 0.8836 0.0
C712 C 0.73828 0.77799 0.8808 0.0
C713 C 0.73394 0.66164 0.88755 0.0
C714 C 0.76005 0.68752 0.88852 0.0
C715 C 0.78832 0.77228 0.88701 0.0
C716 C 0.79058 0.83066 0.8839 0.0
C717 C 0.76237 0.74572 0.88541 0.0
C718 C 0.76647 0.86218 0.87901 0.0
C719 C 0.74051 0.83606 0.8775 0.0
H720 H 0.30103 0.27356 0.90126 0.0
H721 H 0.26123 0.43474 0.89517 0.0
H722 H 0.21556 0.38909 0.89537 0.0
H723 H 0.18745 0.3037 0.89598 0.0
H724 H 0.22766 0.14264 0.90048 0.0
H725 H 0.2731 0.18859 0.90209 0.0
C726 C 0.28243 0.29901 0.90011 0.0
C727 C 0.28454 0.3576 0.89821 0.0
C728 C 0.25646 0.27256 0.89982 0.0
C729 C 0.26018 0.38963 0.89661 0.0
C730 C 0.23411 0.36355 0.8967 0.0
C731 C 0.2061 0.27846 0.89744 0.0
C732 C 0.20415 0.21971 0.89811 0.0
C733 C 0.23207 0.30505 0.89809 0.0
C734 C 0.22857 0.18785 0.89985 0.0
C735 C 0.25453 0.21408 0.90081 0.0
H736 H 0.68308 0.25253 0.66507 0.0
H737 H 0.7262 0.41108 0.66585 0.0
H738 H 0.7709 0.36241 0.66775 0.0
H739 H 0.79754 0.27501 0.66682 0.0
H740 H 0.75412 0.11668 0.66601 0.0
H741 H 0.70953 0.16546 0.66661 0.0
C742 C 0.70221 0.27664 0.66579 0.0
C743 C 0.70126 0.33548 0.66511 0.0
C744 C 0.72773 0.24844 0.66678 0.0
C745 C 0.7263 0.36584 0.66637 0.0
C746 C 0.75186 0.33801 0.66735 0.0
C747 C 0.77835 0.25102 0.66686 0.0
C748 C 0.77922 0.19213 0.66614 0.0
C749 C 0.7528 0.27933 0.66718 0.0
C750 C 0.75411 0.16192 0.66652 0.0
C751 C 0.72859 0.1898 0.6668 0.0
H752 H 0.18801 0.77522 0.66395 0.0
H753 H 0.22826 0.93422 0.67853 0.0
H754 H 0.27343 0.88791 0.6802 0.0
H755 H 0.3014 0.80347 0.67609 0.0
H756 H 0.26163 0.64422 0.66119 0.0
H757 H 0.21606 0.68979 0.66146 0.0
C758 C 0.20658 0.79991 0.66769 0.0
C759 C 0.20462 0.85835 0.67107 0.0
C760 C 0.2325 0.77302 0.66858 0.0
C761 C 0.22904 0.88934 0.67585 0.0
C762 C 0.2549 0.86286 0.67679 0.0
C763 C 0.28284 0.77841 0.67296 0.0
C764 C 0.28504 0.72037 0.66845 0.0
C765 C 0.25686 0.80487 0.67295 0.0
C766 C 0.26062 0.68886 0.66468 0.0
C767 C 0.23456 0.71495 0.66475 0.0
H768 H 0.1434 0.97718 0.31343 0.0
H769 H 0.05418 0.976 0.32263 0.0
H770 H 0.04953 0.03947 0.28317 0.0
H771 H 0.07066 0.09486 0.24534 0.0
H772 H 0.15952 0.09049 0.23357 0.0
H773 H 0.16448 0.02995 0.27426 0.0
C774 C 0.12299 0.99102 0.30679 0.0
C775 C 0.09917 0.97197 0.32106 0.0
C776 C 0.12039 1.02653 0.28344 0.0
C777 C 0.07284 0.98984 0.31201 0.0
C778 C 0.07015 1.02625 0.28941 0.0
C779 C 0.0911 0.08071 0.25174 0.0
C780 C 0.1147 0.09755 0.23651 0.0
C781 C 0.09374 0.04476 0.27486 0.0
C782 C 0.14101 0.07827 0.24491 0.0
C783 C 0.14387 0.04364 0.26824 0.0
H784 H 0.91164 0.06484 0.31286 0.0
H785 H 0.82208 0.06692 0.31806 0.0
H786 H 0.81876 1.00965 0.27627 0.0
H787 H 0.84121 0.95781 0.23806 0.0
H788 H 0.93071 0.95022 0.23438 0.0
H789 H 0.93417 1.0104 0.27529 0.0
C790 C 0.89143 0.05281 0.30477 0.0
C791 C 0.86714 0.07055 0.31856 0.0
C792 C 0.88965 1.01868 0.28086 0.0
C793 C 0.84112 0.05401 0.30792 0.0
C794 C 0.83919 1.02122 0.28395 0.0
C795 C 0.86145 0.96945 0.24621 0.0
C796 C 0.88567 0.94959 0.23309 0.0
C797 C 0.86328 1.00319 0.27021 0.0
C798 C 0.91174 0.96476 0.24407 0.0
C799 C 0.91373 0.99928 0.2675 0.0
H800 H 0.91359 0.06675 0.73972 0.0
H801 H 0.8243 0.06118 0.7316 0.0
H802 H 0.82096 1.00383 0.77361 0.0
H803 H 0.84362 0.95409 0.8128 0.0
H804 H 0.93314 0.95471 0.81867 0.0
H805 H 0.9362 1.01503 0.77782 0.0
C806 C 0.89339 0.05306 0.74719 0.0
C807 C 0.86921 0.06858 0.73259 0.0
C808 C 0.89169 1.01911 0.77112 0.0
C809 C 0.84324 0.04993 0.74242 0.0
C810 C 0.84132 1.01715 0.7665 0.0
C811 C 0.86376 0.96766 0.80514 0.0
C812 C 0.88813 0.95001 0.81887 0.0
C813 C 0.86541 1.00138 0.78107 0.0
C814 C 0.91408 0.96752 0.80852 0.0
C815 C 0.91585 1.00209 0.78512 0.0
H816 H 0.07418 0.09956 0.80841 0.0
H817 H 0.16254 0.09247 0.82321 0.0
H818 H 0.16848 0.03287 0.78237 0.0
H819 H 0.14839 0.9818 0.74218 0.0
H820 H 0.05956 0.98386 0.72971 0.0
H821 H 0.05399 0.04618 0.76944 0.0
C822 C 0.09473 0.08501 0.80265 0.0
C823 C 0.1179 0.10076 0.8188 0.0
C824 C 0.09791 0.04976 0.77939 0.0
C825 C 0.14435 0.08105 0.81117 0.0
C826 C 0.14777 0.04697 0.78776 0.0
C827 C 0.12786 0.99611 0.74816 0.0
C828 C 0.10443 0.97831 0.73289 0.0
C829 C 0.12471 0.03099 0.77164 0.0
C830 C 0.07793 0.99677 0.7411 0.0
C831 C 0.07472 0.0325 0.76385 0.0
H832 H 0.64329 0.45313 0.30681 0.0
H833 H 0.55377 0.45491 0.31276 0.0
H834 H 0.55104 0.51601 0.27224 0.0
H835 H 0.57388 0.56865 0.23466 0.0
H836 H 0.66308 0.56245 0.22623 0.0
H837 H 0.6662 0.50349 0.26777 0.0
C838 C 0.62323 0.46704 0.2992 0.0
C839 C 0.59875 0.44954 0.31287 0.0
C840 C 0.62176 0.50133 0.27531 0.0
C841 C 0.57291 0.46754 0.30262 0.0
C842 C 0.57132 0.50259 0.27943 0.0
C843 C 0.59401 0.55445 0.24195 0.0
C844 C 0.61823 0.5703 0.22746 0.0
C845 C 0.59557 0.51967 0.26554 0.0
C846 C 0.64412 0.55095 0.237 0.0
C847 C 0.64591 0.51727 0.2608 0.0
H848 H 0.40759 0.61109 0.30626 0.0
H849 H 0.31942 0.59884 0.32143 0.0
H850 H 0.31397 0.53896 0.28053 0.0
H851 H 0.33464 0.48812 0.24054 0.0
H852 H 0.4234 0.49556 0.22804 0.0
H853 H 0.42824 0.55917 0.26734 0.0
C854 C 0.38716 0.59549 0.30054 0.0
C855 C 0.36392 0.60973 0.31681 0.0
C856 C 0.3843 0.56008 0.27732 0.0
C857 C 0.33765 0.58859 0.30927 0.0
C858 C 0.33453 0.55435 0.28583 0.0
C859 C 0.35497 0.50402 0.24639 0.0
C860 C 0.37864 0.48723 0.2313 0.0
C861 C 0.35772 0.5396 0.26968 0.0
C862 C 0.40488 0.50766 0.23932 0.0
C863 C 0.40767 0.54411 0.26183 0.0
H864 H 0.4159 0.47422 0.80814 0.0
H865 H 0.32711 0.47904 0.82049 0.0
H866 H 0.32203 0.54083 0.78035 0.0
H867 H 0.34285 0.5943 0.74153 0.0
H868 H 0.43196 0.5959 0.73155 0.0
H869 H 0.43692 0.53115 0.77059 0.0
C870 C 0.39546 0.48873 0.80196 0.0
C871 C 0.37189 0.47158 0.81717 0.0
C872 C 0.39276 0.52557 0.77918 0.0
C873 C 0.34558 0.49143 0.80913 0.0
C874 C 0.34265 0.52678 0.78613 0.0
C875 C 0.36333 0.58034 0.74791 0.0
C876 C 0.387 0.59974 0.73356 0.0
C877 C 0.36607 0.54419 0.77095 0.0
C878 C 0.41342 0.58173 0.74227 0.0
C879 C 0.41626 0.5446 0.7646 0.0
H880 H 0.57463 0.57746 0.80066 0.0
H881 H 0.66334 0.56761 0.81296 0.0
H882 H 0.66768 0.50782 0.77209 0.0
H883 H 0.64629 0.45786 0.7325 0.0
H884 H 0.55723 0.46199 0.72215 0.0
H885 H 0.55299 0.52411 0.76222 0.0
C886 C 0.59488 0.56221 0.79434 0.0
C887 C 0.61865 0.57738 0.80977 0.0
C888 C 0.59717 0.52668 0.77105 0.0
C889 C 0.64471 0.55672 0.80147 0.0
C890 C 0.64723 0.52252 0.77804 0.0
C891 C 0.62598 0.47243 0.73905 0.0
C892 C 0.60211 0.45539 0.72429 0.0
C893 C 0.62363 0.5072 0.76261 0.0
C894 C 0.57592 0.47427 0.73318 0.0
C895 C 0.57348 0.50993 0.7561 0.0
H896 H 0.08729 0.10018 0.98587 0.0
H897 H 0.15746 0.20891 0.97243 0.0
H898 H 0.16113 0.2257 1.02253 0.0
H899 H 0.14939 0.19501 0.07053 0.0
H900 H 0.07918 0.08577 0.08323 0.0
H901 H 0.06994 0.08458 0.03338 0.0
C902 C 0.10261 0.12939 0.99389 0.0
C903 C 0.12186 0.15387 0.97555 0.0
C904 C 0.10472 0.13821 1.02274 0.0
C905 C 0.14207 0.19056 0.98615 0.0
C906 C 0.14436 0.19958 1.01484 0.0
C907 C 0.13134 0.17313 0.06241 0.0
C908 C 0.1147 0.14115 0.08054 0.0
C909 C 0.12649 0.1718 0.03345 0.0
C910 C 0.09192 0.11148 0.06971 0.0
C911 C 0.08684 0.11026 0.04115 0.0
H912 H 0.82206 0.91642 0.98328 0.0
H913 H 0.90972 0.88996 0.97133 0.0
H914 H 0.91626 0.88119 1.02179 0.0
H915 H 0.89747 0.89648 0.0698 0.0
H916 H 0.8094 0.92331 0.0799 0.0
H917 H 0.80239 0.91503 0.03004 0.0
C918 C 0.84244 0.90688 0.99172 0.0
C919 C 0.86534 0.90361 0.97371 0.0
C920 C 0.84594 0.90232 1.02059 0.0
C921 C 0.89171 0.89181 0.9848 0.0
C922 C 0.89546 0.88742 1.0137 0.0
C923 C 0.87669 0.89827 0.06107 0.0
C924 C 0.8539 0.91016 0.07853 0.0
C925 C 0.87283 0.8946 0.03193 0.0
C926 C 0.82717 0.91378 0.06691 0.0
C927 C 0.82317 0.90951 0.03834 0.0
H928 H 0.16772 0.91427 0.48479 0.0
H929 H 0.07869 0.9038 0.47549 0.0
H930 H 0.0731 0.90614 0.5261 0.0
H931 H 0.09366 0.92415 0.57298 0.0
H932 H 0.18273 0.93862 0.58062 0.0
H933 H 0.18824 0.92092 0.5311 0.0
C934 C 0.1471 0.91141 0.49384 0.0
C935 C 0.12368 0.90937 0.47633 0.0
C936 C 0.14407 0.91376 0.52286 0.0
C937 C 0.0971 0.90539 0.48844 0.0
C938 C 0.0939 0.90709 0.51743 0.0
C939 C 0.11423 0.92154 0.56384 0.0
C940 C 0.13784 0.93204 0.58046 0.0
C941 C 0.11721 0.913 0.53489 0.0
C942 C 0.16434 0.93009 0.56828 0.0
C943 C 0.16749 0.92038 0.53991 0.0
H944 H 0.8079 0.14442 0.56915 0.0
H945 H 0.89663 0.12505 0.57708 0.0
H946 H 0.90188 0.13371 0.52659 0.0
H947 H 0.88017 0.13545 0.47946 0.0
H948 H 0.79117 0.15463 0.47293 0.0
H949 H 0.78718 0.15846 0.52326 0.0
C950 C 0.82845 0.14307 0.55986 0.0
C951 C 0.85177 0.13354 0.57681 0.0
C952 C 0.83124 0.14784 0.53089 0.0
C953 C 0.8783 0.13234 0.5645 0.0
C954 C 0.88128 0.137 0.53558 0.0
C955 C 0.86005 0.14197 0.4891 0.0
C956 C 0.83594 0.14437 0.47241 0.0
C957 C 0.85779 0.14322 0.51841 0.0
C958 C 0.81 0.15238 0.48526 0.0
C959 C 0.80767 0.1543 0.5141 0.0
H960 H 0.67181 0.65278 0.06014 0.0
H961 H 0.58505 0.61916 0.0757 0.0
H962 H 0.57546 0.62157 0.02584 0.0
H963 H 0.59328 0.61952 0.97742 0.0
H964 H 0.67984 0.65482 0.96228 0.0
H965 H 0.68791 0.66684 1.01202 0.0
C966 C 0.65071 0.64722 0.05261 0.0
C967 C 0.62926 0.63515 0.0716 0.0
C968 C 0.64531 0.64902 1.02385 0.0
C969 C 0.60196 0.62844 0.06156 0.0
C970 C 0.59648 0.62956 0.03298 0.0
C971 C 0.61357 0.6323 0.98501 0.0
C972 C 0.63585 0.63741 0.96621 0.0
C973 C 0.61814 0.63812 1.01385 0.0
C974 C 0.66228 0.65202 0.97633 0.0
C975 C 0.66697 0.6581 1.00482 0.0
H976 H 0.39743 0.48757 0.98541 0.0
H977 H 0.33708 0.35757 0.97125 0.0
H978 H 0.33201 0.34394 1.02155 0.0
H979 H 0.33881 0.38189 0.0694 0.0
H980 H 0.39896 0.51319 0.08222 0.0
H981 H 0.41063 0.51271 0.03295 0.0
C982 C 0.38402 0.45471 0.99339 0.0
C983 C 0.36785 0.42325 0.97476 0.0
C984 C 0.38098 0.44792 1.02223 0.0
C985 C 0.35014 0.3815 0.98523 0.0
C986 C 0.34699 0.3743 1.01401 0.0
C987 C 0.35525 0.40864 0.06148 0.0
C988 C 0.36821 0.44729 0.0794 0.0
C989 C 0.36146 0.40893 0.03276 0.0
C990 C 0.38896 0.48277 0.06884 0.0
C991 C 0.39546 0.48284 0.04061 0.0
H992 H 0.66794 0.39137 0.47532 0.0
H993 H 0.57862 0.39241 0.46758 0.0
H994 H 0.57395 0.38873 0.51825 0.0
H995 H 0.59575 0.39549 0.56521 0.0
H996 H 0.68532 0.3945 0.57152 0.0
H997 H 0.68934 0.38715 0.52133 0.0
C998 C 0.64743 0.3899 0.48471 0.0
C999 C 0.6237 0.3927 0.4677 0.0
C1000 C 0.64494 0.38817 0.51379 0.0
C1001 C 0.59726 0.39032 0.48018 0.0
C1002 C 0.59459 0.38853 0.50921 0.0
C1003 C 0.61607 0.39251 0.55558 0.0
C1004 C 0.64022 0.39618 0.57215 0.0
C1005 C 0.61832 0.3889 0.52632 0.0
C1006 C 0.66641 0.39234 0.5593 0.0
C1007 C 0.66877 0.38825 0.53053 0.0
H1008 H 0.40344 0.6257 0.56577 0.0
H1009 H 0.32332 0.69382 0.58681 0.0
H1010 H 0.31249 0.70599 0.53749 0.0
H1011 H 0.32407 0.68783 0.48813 0.0
H1012 H 0.40574 0.62702 0.46726 0.0
H1013 H 0.41788 0.62203 0.51649 0.0
C1014 C 0.38389 0.64441 0.55949 0.0
C1015 C 0.36417 0.65869 0.57985 0.0
C1016 C 0.37801 0.65213 0.53107 0.0
C1017 C 0.33891 0.68291 0.57153 0.0
C1018 C 0.33263 0.68945 0.5433 0.0
C1019 C 0.3447 0.67462 0.49442 0.0
C1020 C 0.36391 0.65749 0.47409 0.0
C1021 C 0.35174 0.67287 0.52285 0.0
C1022 C 0.39063 0.64066 0.48246 0.0
C1023 C 0.39752 0.63745 0.51066 0.0
H1024 H 0.93931 0.05731 0.15047 0.0
H1025 H 0.96747 0.88862 0.13609 0.0
H1026 H 0.01566 0.92024 0.1365 0.0
H1027 H 0.05018 0.99521 0.14359 0.0
H1028 H 0.02138 0.16374 0.15721 0.0
H1029 H 0.97337 0.13258 0.15446 0.0
C1030 C 0.95594 0.02751 0.14716 0.0
C1031 C 0.94972 0.97075 0.14351 0.0
C1032 C 0.98367 0.04578 0.14751 0.0
C1033 C 0.97159 0.93273 0.13903 0.0
C1034 C -0.00075 0.95064 0.13938 0.0
C1035 C 0.03337 1.02498 0.1459 0.0
C1036 C 0.0394 0.08149 0.15074 0.0
C1037 C 0.00557 1.00695 0.1441 0.0
C1038 C 0.01739 0.11985 0.15339 0.0
C1039 C 0.98984 0.10217 0.15188 0.0
H1040 H 0.93022 0.98413 0.391 0.0
H1041 H 0.94833 0.13961 0.43271 0.0
H1042 H -0.00238 0.11701 0.43383 0.0
H1043 H 0.0362 0.05468 0.42116 0.0
H1044 H 0.01773 0.89819 0.38079 0.0
H1045 H 0.96825 0.91982 0.38066 0.0
C1046 C 0.9449 1.01255 0.40072 0.0
C1047 C 0.93569 0.06346 0.4115 0.0
C1048 C 0.97331 0.99961 0.40116 0.0
C1049 C 0.95496 0.10013 0.424 0.0
C1050 C 0.9832 0.08748 0.42458 0.0
C1051 C 0.02125 1.02574 0.41225 0.0
C1052 C 0.03036 0.97529 0.40097 0.0
C1053 C -0.00729 0.03782 0.41275 0.0
C1054 C 0.01097 0.9374 0.38973 0.0
C1055 C 0.98271 0.94957 0.38966 0.0
H1056 H 0.05167 0.99936 0.91208 0.0
H1057 H 0.02169 0.16659 0.89701 0.0
H1058 H 0.97385 0.1336 0.89897 0.0
H1059 H 0.94052 0.05671 0.90222 0.0
H1060 H 0.97022 0.88942 0.91788 0.0
H1061 H 0.01798 0.92329 0.91879 0.0
C1062 C 0.03465 0.0285 0.90931 0.0
C1063 C 0.04024 0.08508 0.90419 0.0
C1064 C 0.00707 1.00941 0.9106 0.0
C1065 C 0.01798 0.12265 0.90099 0.0
C1066 C 0.99056 0.10391 0.90206 0.0
C1067 C 0.95739 0.02772 0.9061 0.0
C1068 C 0.95177 0.97065 0.90963 0.0
C1069 C 0.98487 0.04728 0.90649 0.0
C1070 C 0.9739 0.93369 0.91492 0.0
C1071 C 0.0013 0.95289 0.91536 0.0
H1072 H 0.96182 0.12025 0.64302 0.0
H1073 H 0.92615 0.95468 0.64829 0.0
H1074 H 0.97271 0.91401 0.64608 0.0
H1075 H 0.02345 0.92586 0.64526 0.0
H1076 H 0.05889 0.09183 0.6423 0.0
H1077 H 0.01226 0.13199 0.64077 0.0
C1078 C 0.96411 0.0752 0.64348 0.0
C1079 C 0.94048 0.04057 0.64588 0.0
C1080 C 0.99087 0.05222 0.64265 0.0
C1081 C 0.94396 0.98232 0.64653 0.0
C1082 C 0.97058 0.95904 0.64527 0.0
C1083 C 0.02102 0.97081 0.6439 0.0
C1084 C 0.04464 1.00582 0.64387 0.0
C1085 C -0.00583 0.99365 0.64366 0.0
C1086 C 0.04108 0.06396 0.64241 0.0
C1087 C 0.01443 0.08696 0.64158 0.0
H1088 H 0.46183 0.43205 0.14522 0.0
H1089 H 0.42734 0.59853 0.14466 0.0
H1090 H 0.47419 0.63816 0.14229 0.0
H1091 H 0.52452 0.62552 0.14262 0.0
H1092 H 0.55922 0.45928 0.14528 0.0
H1093 H 0.51232 0.41936 0.1445 0.0
C1094 C 0.46448 0.47703 0.14428 0.0
C1095 C 0.44114 0.51235 0.14512 0.0
C1096 C 0.4914 0.49945 0.14345 0.0
C1097 C 0.44498 0.57048 0.14415 0.0
C1098 C 0.47173 0.59314 0.1428 0.0
C1099 C 0.52193 0.58049 0.14282 0.0
C1100 C 0.54534 0.54539 0.14402 0.0
C1101 C 0.49504 0.55799 0.1428 0.0
C1102 C 0.54154 0.4872 0.14442 0.0
C1103 C 0.51476 0.46438 0.14397 0.0
H1104 H 0.43183 0.50091 0.40323 0.0
H1105 H 0.46261 0.66733 0.38668 0.0
H1106 H 0.51022 0.63326 0.38651 0.0
H1107 H 0.54319 0.55617 0.39025 0.0
H1108 H 0.51259 0.38983 0.4076 0.0
H1109 H 0.46505 0.4241 0.40847 0.0
C1110 C 0.44898 0.52956 0.39954 0.0
C1111 C 0.44374 0.58632 0.39496 0.0
C1112 C 0.47641 0.50989 0.39971 0.0
C1113 C 0.46613 0.62328 0.39042 0.0
C1114 C 0.49339 0.60394 0.39027 0.0
C1115 C 0.52614 0.5275 0.39437 0.0
C1116 C 0.53146 0.47067 0.39872 0.0
C1117 C 0.49878 0.54733 0.39485 0.0
C1118 C 0.50913 0.43397 0.40413 0.0
C1119 C 0.48186 0.45339 0.40457 0.0
H1120 H 0.44331 0.56475 0.90329 0.0
H1121 H 0.46595 0.39042 0.89914 0.0
H1122 H 0.51496 0.41514 0.89906 0.0
H1123 H 0.55166 0.48618 0.89785 0.0
H1124 H 0.52913 0.6605 0.90297 0.0
H1125 H 0.4802 0.63561 0.90519 0.0
C1126 C 0.45898 0.53226 0.90248 0.0
C1127 C 0.45092 0.47607 0.90105 0.0
C1128 C 0.48731 0.54657 0.90258 0.0
C1129 C 0.4715 0.43426 0.90028 0.0
C1130 C 0.49963 0.44821 0.90016 0.0
C1131 C 0.53607 0.51865 0.89965 0.0
C1132 C 0.54414 0.57492 0.89999 0.0
C1133 C 0.5078 0.50424 0.90097 0.0
C1134 C 0.52362 0.6166 0.90257 0.0
C1135 C 0.49551 0.60257 0.90377 0.0
H1136 H 0.43922 0.50388 0.64189 0.0
H1137 H 0.46864 0.67291 0.65271 0.0
H1138 H 0.51677 0.64139 0.64908 0.0
H1139 H 0.55069 0.56497 0.64465 0.0
H1140 H 0.5207 0.39656 0.63191 0.0
H1141 H 0.4729 0.4288 0.63418 0.0
C1142 C 0.45619 0.53374 0.6434 0.0
C1143 C 0.45042 0.59043 0.64774 0.0
C1144 C 0.48381 0.51552 0.64088 0.0
C1145 C 0.47257 0.62891 0.6493 0.0
C1146 C 0.50012 0.61095 0.64729 0.0
C1147 C 0.5337 0.53546 0.64212 0.0
C1148 C 0.5394 0.47845 0.63828 0.0
C1149 C 0.50602 0.55424 0.64329 0.0
C1150 C 0.51707 0.44078 0.63488 0.0
C1151 C 0.4896 0.45906 0.63629 0.0
H1152 H 0.16913 0.72162 0.14649 0.0
H1153 H 0.08391 0.7613 0.16656 0.0
H1154 H 0.07182 0.66233 0.16579 0.0
H1155 H 0.08569 0.56432 0.16163 0.0
H1156 H 0.17083 0.52367 0.14181 0.0
H1157 H 0.18278 0.62302 0.141 0.0
C1158 C 0.14792 0.70864 0.15077 0.0
C1159 C 0.12748 0.74915 0.15652 0.0
C1160 C 0.14112 0.65137 0.15062 0.0
C1161 C 0.10002 0.73137 0.16164 0.0
C1162 C 0.0931 0.67463 0.16144 0.0
C1163 C 0.10679 0.57706 0.15669 0.0
C1164 C 0.1273 0.5363 0.15177 0.0
C1165 C 0.1135 0.63426 0.15615 0.0
C1166 C 0.15466 0.55392 0.146 0.0
C1167 C 0.16149 0.61081 0.14539 0.0
H1168 H 0.81991 0.32893 0.15132 0.0
H1169 H 0.90723 0.29166 0.16097 0.0
H1170 H 0.91857 0.39077 0.15747 0.0
H1171 H 0.90371 0.48831 0.15384 0.0
H1172 H 0.81651 0.52655 0.14442 0.0
H1173 H 0.80511 0.42699 0.14634 0.0
C1174 C 0.84142 0.34248 0.15274 0.0
C1175 C 0.86266 0.30262 0.15637 0.0
C1176 C 0.84783 0.39982 0.151 0.0
C1177 C 0.89045 0.32108 0.15777 0.0
C1178 C 0.89697 0.37791 0.15599 0.0
C1179 C 0.88223 0.47496 0.15175 0.0
C1180 C 0.86103 0.51512 0.14896 0.0
C1181 C 0.87583 0.41766 0.15279 0.0
C1182 C 0.83325 0.49678 0.1469 0.0
C1183 C 0.82672 0.43977 0.14786 0.0
H1184 H 0.15609 0.34178 0.39683 0.0
H1185 H 0.06832 0.30805 0.38723 0.0
H1186 H 0.05859 0.40816 0.38815 0.0
H1187 H 0.07505 0.5051 0.39083 0.0
H1188 H 0.16279 0.53905 0.40065 0.0
H1189 H 0.17256 0.43892 0.3997 0.0
C1190 C 0.13485 0.35632 0.39466 0.0
C1191 C 0.11297 0.31737 0.39188 0.0
C1192 C 0.12942 0.41394 0.39508 0.0
C1193 C 0.08552 0.337 0.38965 0.0
C1194 C 0.07996 0.39426 0.39003 0.0
C1195 C 0.0963 0.49066 0.3931 0.0
C1196 C 0.11814 0.52967 0.39591 0.0
C1197 C 0.10174 0.43307 0.39273 0.0
C1198 C 0.1456 0.51008 0.3982 0.0
C1199 C 0.15119 0.45279 0.39782 0.0
H1200 H 0.86721 0.5364 0.35268 0.0
H1201 H 0.84565 0.50694 0.43836 0.0
H1202 H 0.83882 0.60695 0.44531 0.0
H1203 H 0.83999 0.70316 0.42745 0.0
H1204 H 0.86128 0.73261 0.34169 0.0
H1205 H 0.86812 0.63263 0.33475 0.0
C1206 C 0.86117 0.5518 0.37294 0.0
C1207 C 0.85691 0.51384 0.39493 0.0
C1208 C 0.85756 0.6096 0.37691 0.0
C1209 C 0.84866 0.53481 0.42091 0.0
C1210 C 0.84499 0.59217 0.42499 0.0
C1211 C 0.84593 0.68779 0.40716 0.0
C1212 C 0.85017 0.72579 0.38517 0.0
C1213 C 0.84946 0.62999 0.40317 0.0
C1214 C 0.85831 0.70478 0.35916 0.0
C1215 C 0.86198 0.64741 0.35508 0.0
H1216 H 0.83816 0.32583 0.86264 0.0
H1217 H 0.87963 0.29082 0.94011 0.0
H1218 H 0.88856 0.39045 0.94677 0.0
H1219 H 0.88513 0.48755 0.93032 0.0
H1220 H 0.8442 0.5219 0.85244 0.0
H1221 H 0.83368 0.42288 0.84682 0.0
C1222 C 0.84881 0.33994 0.88119 0.0
C1223 C 0.85824 0.30058 0.9008 0.0
C1224 C 0.85381 0.39737 0.88495 0.0
C1225 C 0.87246 0.31989 0.92446 0.0
C1226 C 0.87744 0.37697 0.92838 0.0
C1227 C 0.874 0.47344 0.91205 0.0
C1228 C 0.86551 0.51254 0.89187 0.0
C1229 C 0.86839 0.41609 0.90866 0.0
C1230 C 0.85067 0.49323 0.86857 0.0
C1231 C 0.84484 0.43638 0.86518 0.0
H1232 H 0.14236 0.55031 0.86091 0.0
H1233 H 0.11239 0.54301 0.94513 0.0
H1234 H 0.11893 0.64407 0.94976 0.0
H1235 H 0.12977 0.73571 0.92845 0.0
H1236 H 0.15891 0.7415 0.84383 0.0
H1237 H 0.15564 0.64013 0.84066 0.0
C1238 C 0.13727 0.57082 0.8803 0.0
C1239 C 0.12665 0.53924 0.90253 0.0
C1240 C 0.14062 0.62885 0.88264 0.0
C1241 C 0.12074 0.56627 0.92773 0.0
C1242 C 0.12427 0.62414 0.93031 0.0
C1243 C 0.13571 0.71465 0.90946 0.0
C1244 C 0.14416 0.74628 0.88628 0.0
C1245 C 0.13372 0.65604 0.90772 0.0
C1246 C 0.15174 0.71833 0.86178 0.0
C1247 C 0.15004 0.6603 0.85998 0.0
H1248 H 0.81641 0.69012 0.66376 0.0
H1249 H 0.90247 0.73256 0.64865 0.0
H1250 H 0.91465 0.63366 0.64875 0.0
H1251 H 0.90095 0.53479 0.65233 0.0
H1252 H 0.81493 0.49215 0.66751 0.0
H1253 H 0.80268 0.59107 0.66729 0.0
C1254 C 0.83781 0.67788 0.66021 0.0
C1255 C 0.85845 0.71931 0.65624 0.0
C1256 C 0.84472 0.62062 0.66008 0.0
C1257 C 0.88614 0.7021 0.65217 0.0
C1258 C 0.89313 0.64534 0.65203 0.0
C1259 C 0.87954 0.54697 0.65589 0.0
C1260 C 0.85895 0.5055 0.65995 0.0
C1261 C 0.87261 0.60419 0.65598 0.0
C1262 C 0.83124 0.52265 0.66396 0.0
C1263 C 0.82421 0.57942 0.66403 0.0
H1264 H 0.15143 0.35611 0.69547 0.0
H1265 H 0.12357 0.32033 0.61223 0.0
H1266 H 0.11511 0.41963 0.60428 0.0
H1267 H 0.11536 0.51692 0.62099 0.0
H1268 H 0.14305 0.55207 0.70438 0.0
H1269 H 0.15265 0.45324 0.71179 0.0
C1270 C 0.14384 0.36996 0.67544 0.0
C1271 C 0.13812 0.33038 0.65453 0.0
C1272 C 0.13916 0.4273 0.67091 0.0
C1273 C 0.1278 0.34945 0.62889 0.0
C1274 C 0.12312 0.4064 0.62424 0.0
C1275 C 0.1234 0.50302 0.64084 0.0
C1276 C 0.1285 0.54235 0.66203 0.0
C1277 C 0.12858 0.44573 0.64515 0.0
C1278 C 0.13932 0.52326 0.68747 0.0
C1279 C 0.1446 0.46651 0.69185 0.0
H1280 H 0.5851 0.03807 0.14955 0.0
H1281 H 0.67171 0.99741 0.16179 0.0
H1282 H 0.68374 0.09658 0.16085 0.0
H1283 H 0.66969 0.19523 0.15745 0.0
H1284 H 0.58305 0.23572 0.14534 0.0
H1285 H 0.57106 0.13656 0.14621 0.0
C1286 C 0.6066 0.05075 0.15232 0.0
C1287 C 0.62741 1.0098 0.15576 0.0
C1288 C 0.61341 0.10808 0.152 0.0
C1289 C 0.65522 0.02754 0.15874 0.0
C1290 C 0.66213 0.08444 0.1584 0.0
C1291 C 0.64819 0.18249 0.15473 0.0
C1292 C 0.62735 0.22339 0.15135 0.0
C1293 C 0.64141 0.12512 0.15505 0.0
C1294 C 0.59955 0.20561 0.14836 0.0
C1295 C 0.59267 0.14873 0.14867 0.0
H1296 H 0.31924 0.8653 0.17744 0.0
H1297 H 0.38825 0.82148 0.12448 0.0
H1298 H 0.39984 0.92001 0.11873 0.0
H1299 H 0.39112 1.01882 0.12936 0.0
H1300 H 0.32182 0.06309 0.18169 0.0
H1301 H 0.30913 0.96455 0.18621 0.0
C1302 C 0.33658 0.87716 0.16429 0.0
C1303 C 0.35295 0.83546 0.15165 0.0
C1304 C 0.34303 0.93422 0.1608 0.0
C1305 C 0.37556 0.85218 0.13499 0.0
C1306 C 0.38212 0.90871 0.1315 0.0
C1307 C 0.37326 1.00696 0.14181 0.0
C1308 C 0.35756 0.04856 0.15526 0.0
C1309 C 0.36619 0.95009 0.14451 0.0
C1310 C 0.33417 0.03225 0.17088 0.0
C1311 C 0.32701 0.97575 0.17365 0.0
H1312 H 0.57221 0.98514 0.38622 0.0
H1313 H 0.65979 1.0251 0.39012 0.0
H1314 H 0.67115 0.92572 0.38889 0.0
H1315 H 0.65625 0.8273 0.38744 0.0
H1316 H 0.56864 0.78754 0.38359 0.0
H1317 H 0.55733 0.88687 0.38495 0.0
C1318 C 0.5938 0.97222 0.38711 0.0
C1319 C 0.61508 1.01289 0.3883 0.0
C1320 C 0.6002 0.91489 0.38661 0.0
C1321 C 0.64295 0.99503 0.38886 0.0
C1322 C 0.64947 0.93808 0.38834 0.0
C1323 C 0.63467 0.84027 0.38664 0.0
C1324 C 0.61335 0.79965 0.38539 0.0
C1325 C 0.62828 0.89763 0.38721 0.0
C1326 C 0.5855 0.81756 0.38489 0.0
C1327 C 0.579 0.87449 0.38548 0.0
H1328 H 0.37777 0.06571 0.42831 0.0
H1329 H 0.34577 0.03923 0.34568 0.0
H1330 H 0.33764 0.13931 0.34064 0.0
H1331 H 0.3406 0.2347 0.35915 0.0
H1332 H 0.37255 0.26146 0.44177 0.0
H1333 H 0.38058 0.16128 0.44691 0.0
C1334 C 0.36917 0.08179 0.40911 0.0
C1335 C 0.36236 0.04464 0.38744 0.0
C1336 C 0.36484 0.13964 0.4062 0.0
C1337 C 0.35081 0.06644 0.3629 0.0
C1338 C 0.34638 0.12385 0.35989 0.0
C1339 C 0.34912 0.21868 0.37839 0.0
C1340 C 0.35596 0.25591 0.40002 0.0
C1341 C 0.35339 0.16086 0.38136 0.0
C1342 C 0.36745 0.23416 0.4246 0.0
C1343 C 0.37184 0.17671 0.42765 0.0
H1344 H 0.32164 0.84449 0.91432 0.0
H1345 H 0.4054 0.81054 0.88688 0.0
H1346 H 0.41617 0.91013 0.88762 0.0
H1347 H 0.40112 1.00694 0.89325 0.0
H1348 H 0.31739 0.04203 0.92035 0.0
H1349 H 0.30711 0.94194 0.92189 0.0
C1350 C 0.34224 0.85891 0.90849 0.0
C1351 C 0.36267 0.81997 0.90055 0.0
C1352 C 0.34823 0.91645 0.90861 0.0
C1353 C 0.38938 0.83938 0.89344 0.0
C1354 C 0.39551 0.89642 0.89363 0.0
C1355 C 0.38076 0.99281 0.90001 0.0
C1356 C 0.36008 0.0321 0.9067 0.0
C1357 C 0.37502 0.93532 0.9009 0.0
C1358 C 0.33362 1.01281 0.9148 0.0
C1359 C 0.32776 0.95556 0.9158 0.0
H1360 H 0.67057 0.20503 0.87643 0.0
H1361 H 0.59748 0.23938 0.92552 0.0
H1362 H 0.58782 0.13947 0.92916 0.0
H1363 H 0.59902 0.04252 0.91676 0.0
H1364 H 0.67215 1.00843 0.86778 0.0
H1365 H 0.68345 0.10795 0.86667 0.0
C1366 C 0.65281 0.19078 0.88839 0.0
C1367 C 0.63469 0.22996 0.90051 0.0
C1368 C 0.64744 0.1332 0.89054 0.0
C1369 C 0.61152 0.21039 0.91554 0.0
C1370 C 0.60606 0.15318 0.91778 0.0
C1371 C 0.61747 0.05688 0.90589 0.0
C1372 C 0.63462 1.01804 0.89225 0.0
C1373 C 0.62365 0.11426 0.90502 0.0
C1374 C 0.65871 0.03727 0.87867 0.0
C1375 C 0.66507 0.09426 0.87782 0.0
H1376 H 0.4029 0.07266 0.65955 0.0
H1377 H 0.31689 0.02975 0.64462 0.0
H1378 H 0.30477 0.12879 0.64338 0.0
H1379 H 0.31852 0.22787 0.64664 0.0
H1380 H 0.40453 0.27022 0.66224 0.0
H1381 H 0.41672 0.17144 0.66218 0.0
C1382 C 0.38154 0.08484 0.65566 0.0
C1383 C 0.36088 0.0434 0.65219 0.0
C1384 C 0.37469 0.14201 0.6549 0.0
C1385 C 0.33323 0.06041 0.64771 0.0
C1386 C 0.32628 0.11718 0.64684 0.0
C1387 C 0.33992 0.21561 0.6502 0.0
C1388 C 0.36052 0.25698 0.65438 0.0
C1389 C 0.34681 0.15839 0.65054 0.0
C1390 C 0.38822 0.23981 0.6585 0.0
C1391 C 0.39522 0.18311 0.65871 0.0
H1392 H 0.66326 0.83411 0.65479 0.0
H1393 H 0.57565 0.7939 0.65743 0.0
H1394 H 0.56423 0.89312 0.65545 0.0
H1395 H 0.57895 0.99154 0.65349 0.0
H1396 H 0.66652 0.03195 0.65095 0.0
H1397 H 0.67801 0.9327 0.65321 0.0
C1398 C 0.64164 0.84693 0.65525 0.0
C1399 C 0.62038 0.80611 0.65624 0.0
C1400 C 0.63517 0.9043 0.6543 0.0
C1401 C 0.5925 0.82397 0.65629 0.0
C1402 C 0.58592 0.88087 0.65534 0.0
C1403 C 0.60058 0.97874 0.65317 0.0
C1404 C 0.62181 1.01957 0.65199 0.0
C1405 C 0.60707 0.92142 0.65428 0.0
C1406 C 0.6497 1.00183 0.65216 0.0
C1407 C 0.65631 0.94491 0.65327 0.0
loop_
_geom_bond_atom_site_label_1
_geom_bond_atom_site_label_2
_geom_bond_distance
_geom_bond_site_symmetry_2
_ccdc_geom_bond_type
Gd0 C3 2.818 1_545 S
Gd0 O20 2.377 . S
Gd0 O22 2.448 1_545 S
Gd0 O23 2.506 1_545 S
Gd0 O24 2.435 . S
Gd0 O25 2.717 . S
Gd0 O27 2.395 . S
Gd0 O31 2.327 . S
Gd1 C12 2.818 . S
Gd1 O21 2.395 . S
Gd1 O25 2.327 . S
Gd1 O26 2.377 . S
Gd1 O28 2.448 . S
Gd1 O29 2.506 . S
Gd1 O30 2.435 . S
Gd1 O31 2.717 . S
C2 O20 1.240 . S
C2 O21 1.240 . S
C3 Gd0 2.818 1_565 S
C3 C4 1.510 . S
C3 O22 1.249 . S
C3 O23 1.252 . S
C4 C3 1.510 . S
C4 C5 1.404 . S
C4 C6 1.352 . S
C5 C4 1.404 . S
C5 C9 1.389 . S
C5 H32 0.930 . S
C6 C4 1.352 . S
C6 C8 1.374 . S
C6 H33 0.931 . S
C7 C8 1.359 . S
C7 C9 1.364 . S
C8 C6 1.374 . S
C8 C7 1.359 . S
C8 H34 0.931 . S
C9 C5 1.389 . S
C9 C7 1.364 . S
C9 H35 0.931 . S
C10 O24 1.256 . S
C10 O25 1.257 . S
C11 O26 1.240 . S
C11 O27 1.240 . S
C12 Gd1 2.818 . S
C12 C13 1.510 . S
C12 O28 1.249 . S
C12 O29 1.252 . S
C13 C12 1.510 . S
C13 C14 1.404 . S
C13 C15 1.352 . S
C14 C13 1.404 . S
C14 C18 1.389 . S
C14 H36 0.930 . S
C15 C13 1.352 . S
C15 C17 1.374 . S
C15 H37 0.931 . S
C16 C17 1.359 . S
C16 C18 1.364 . S
C17 C15 1.374 . S
C17 C16 1.359 . S
C17 H38 0.931 . S
C18 C14 1.389 . S
C18 C16 1.364 . S
C18 H39 0.931 . S
C19 O30 1.256 . S
C19 O31 1.257 . S
O20 Gd0 2.377 . S
O20 C2 1.240 . S
O21 Gd1 2.395 . S
O21 C2 1.240 . S
O22 Gd0 2.448 1_565 S
O22 C3 1.249 . S
O23 Gd0 2.506 1_565 S
O23 C3 1.252 . S
O24 Gd0 2.435 . S
O24 C10 1.256 . S
O25 Gd0 2.717 . S
O25 Gd1 2.327 . S
O25 C10 1.257 . S
O26 Gd1 2.377 . S
O26 C11 1.240 . S
O27 Gd0 2.395 . S
O27 C11 1.240 . S
O28 Gd1 2.448 . S
O28 C12 1.249 . S
O29 Gd1 2.506 . S
O29 C12 1.252 . S
O30 Gd1 2.435 . S
O30 C19 1.256 . S
O31 Gd0 2.327 . S
O31 Gd1 2.717 . S
O31 C19 1.257 . S
H32 C5 0.930 . S
H33 C6 0.931 . S
H34 C8 0.931 . S
H35 C9 0.931 . S
H36 C14 0.930 . S
H37 C15 0.931 . S
H38 C17 0.931 . S
H39 C18 0.931 . S
Gd40 C43 2.818 1_565 S
Gd40 O60 2.377 . S
Gd40 O62 2.448 1_565 S
Gd40 O63 2.506 1_565 S
Gd40 O64 2.435 . S
Gd40 O65 2.717 . S
Gd40 O67 2.395 . S
Gd40 O71 2.327 . S
Gd41 C52 2.818 . S
Gd41 O61 2.395 . S
Gd41 O65 2.327 . S
Gd41 O66 2.377 . S
Gd41 O68 2.448 . S
Gd41 O69 2.506 . S
Gd41 O70 2.435 . S
Gd41 O71 2.717 . S
C42 O60 1.240 . S
C42 O61 1.240 . S
C43 Gd40 2.818 1_545 S
C43 C44 1.510 . S
C43 O62 1.249 . S
C43 O63 1.252 . S
C44 C43 1.510 . S
C44 C45 1.404 . S
C44 C46 1.352 . S
C45 C44 1.404 . S
C45 C49 1.389 . S
C45 H72 0.930 . S
C46 C44 1.352 . S
C46 C48 1.374 . S
C46 H73 0.931 . S
C47 C48 1.359 . S
C47 C49 1.364 . S
C48 C46 1.374 . S
C48 C47 1.359 . S
C48 H74 0.931 . S
C49 C45 1.389 . S
C49 C47 1.364 . S
C49 H75 0.931 . S
C50 O64 1.256 . S
C50 O65 1.257 . S
C51 O66 1.240 . S
C51 O67 1.240 . S
C52 Gd41 2.818 . S
C52 C53 1.510 . S
C52 O68 1.249 . S
C52 O69 1.252 . S
C53 C52 1.510 . S
C53 C54 1.404 . S
C53 C55 1.352 . S
C54 C53 1.404 . S
C54 C58 1.389 . S
C54 H76 0.930 . S
C55 C53 1.352 . S
C55 C57 1.374 . S
C55 H77 0.931 . S
C56 C57 1.359 . S
C56 C58 1.364 . S
C57 C55 1.374 . S
C57 C56 1.359 . S
C57 H78 0.931 . S
C58 C54 1.389 . S
C58 C56 1.364 . S
C58 H79 0.931 . S
C59 O70 1.256 . S
C59 O71 1.257 . S
O60 Gd40 2.377 . S
O60 C42 1.240 . S
O61 Gd41 2.395 . S
O61 C42 1.240 . S
O62 Gd40 2.448 1_545 S
O62 C43 1.249 . S
O63 Gd40 2.506 1_545 S
O63 C43 1.252 . S
O64 Gd40 2.435 . S
O64 C50 1.256 . S
O65 Gd40 2.717 . S
O65 Gd41 2.327 . S
O65 C50 1.257 . S
O66 Gd41 2.377 . S
O66 C51 1.240 . S
O67 Gd40 2.395 . S
O67 C51 1.240 . S
O68 Gd41 2.448 . S
O68 C52 1.249 . S
O69 Gd41 2.506 . S
O69 C52 1.252 . S
O70 Gd41 2.435 . S
O70 C59 1.256 . S
O71 Gd40 2.327 . S
O71 Gd41 2.717 . S
O71 C59 1.257 . S
H72 C45 0.930 . S
H73 C46 0.931 . S
H74 C48 0.931 . S
H75 C49 0.931 . S
H76 C54 0.930 . S
H77 C55 0.931 . S
H78 C57 0.931 . S
H79 C58 0.931 . S
Gd80 C83 2.818 1_565 S
Gd80 O100 2.377 . S
Gd80 O102 2.448 1_565 S
Gd80 O103 2.506 1_565 S
Gd80 O104 2.435 . S
Gd80 O105 2.717 . S
Gd80 O107 2.395 . S
Gd80 O111 2.327 . S
Gd81 C92 2.818 . S
Gd81 O101 2.395 . S
Gd81 O105 2.327 . S
Gd81 O106 2.377 . S
Gd81 O108 2.448 . S
Gd81 O109 2.506 . S
Gd81 O110 2.435 . S
Gd81 O111 2.717 . S
C82 O100 1.240 . S
C82 O101 1.240 . S
C83 Gd80 2.818 1_545 S
C83 C84 1.510 . S
C83 O102 1.249 . S
C83 O103 1.252 . S
C84 C83 1.510 . S
C84 C85 1.404 . S
C84 C86 1.352 . S
C85 C84 1.404 . S
C85 C89 1.389 . S
C85 H112 0.930 . S
C86 C84 1.352 . S
C86 C88 1.374 . S
C86 H113 0.931 . S
C87 C88 1.359 . S
C87 C89 1.364 . S
C88 C86 1.374 . S
C88 C87 1.359 . S
C88 H114 0.931 . S
C89 C85 1.389 . S
C89 C87 1.364 . S
C89 H115 0.931 . S
C90 O104 1.256 . S
C90 O105 1.257 . S
C91 O106 1.240 . S
C91 O107 1.240 . S
C92 Gd81 2.818 . S
C92 C93 1.510 . S
C92 O108 1.249 . S
C92 O109 1.252 . S
C93 C92 1.510 . S
C93 C94 1.404 . S
C93 C95 1.352 . S
C94 C93 1.404 . S
C94 C98 1.389 . S
C94 H116 0.930 . S
C95 C93 1.352 . S
C95 C97 1.374 . S
C95 H117 0.931 . S
C96 C97 1.359 . S
C96 C98 1.364 . S
C97 C95 1.374 . S
C97 C96 1.359 . S
C97 H118 0.931 . S
C98 C94 1.389 . S
C98 C96 1.364 . S
C98 H119 0.931 . S
C99 O110 1.256 . S
C99 O111 1.257 . S
O100 Gd80 2.377 . S
O100 C82 1.240 . S
O101 Gd81 2.395 . S
O101 C82 1.240 . S
O102 Gd80 2.448 1_545 S
O102 C83 1.249 . S
O103 Gd80 2.506 1_545 S
O103 C83 1.252 . S
O104 Gd80 2.435 . S
O104 C90 1.256 . S
O105 Gd80 2.717 . S
O105 Gd81 2.327 . S
O105 C90 1.257 . S
O106 Gd81 2.377 . S
O106 C91 1.240 . S
O107 Gd80 2.395 . S
O107 C91 1.240 . S
O108 Gd81 2.448 . S
O108 C92 1.249 . S
O109 Gd81 2.506 . S
O109 C92 1.252 . S
O110 Gd81 2.435 . S
O110 C99 1.256 . S
O111 Gd80 2.327 . S
O111 Gd81 2.717 . S
O111 C99 1.257 . S
H112 C85 0.930 . S
H113 C86 0.931 . S
H114 C88 0.931 . S
H115 C89 0.931 . S
H116 C94 0.930 . S
H117 C95 0.931 . S
H118 C97 0.931 . S
H119 C98 0.931 . S
Gd120 C123 2.818 1_545 S
Gd120 O140 2.377 . S
Gd120 O142 2.448 1_545 S
Gd120 O143 2.506 1_545 S
Gd120 O144 2.435 . S
Gd120 O145 2.717 . S
Gd120 O147 2.395 . S
Gd120 O151 2.327 . S
Gd121 C132 2.818 . S
Gd121 O141 2.395 . S
Gd121 O145 2.327 . S
Gd121 O146 2.377 . S
Gd121 O148 2.448 . S
Gd121 O149 2.506 . S
Gd121 O150 2.435 . S
Gd121 O151 2.717 . S
C122 O140 1.240 . S
C122 O141 1.240 . S
C123 Gd120 2.818 1_565 S
C123 C124 1.510 . S
C123 O142 1.249 . S
C123 O143 1.252 . S
C124 C123 1.510 . S
C124 C125 1.404 . S
C124 C126 1.352 . S
C125 C124 1.404 . S
C125 C129 1.389 . S
C125 H152 0.930 . S
C126 C124 1.352 . S
C126 C128 1.374 . S
C126 H153 0.931 . S
C127 C128 1.359 . S
C127 C129 1.364 . S
C128 C126 1.374 . S
C128 C127 1.359 . S
C128 H154 0.931 . S
C129 C125 1.389 . S
C129 C127 1.364 . S
C129 H155 0.931 . S
C130 O144 1.256 . S
C130 O145 1.257 . S
C131 O146 1.240 . S
C131 O147 1.240 . S
C132 Gd121 2.818 . S
C132 C133 1.510 . S
C132 O148 1.249 . S
C132 O149 1.252 . S
C133 C132 1.510 . S
C133 C134 1.404 . S
C133 C135 1.352 . S
C134 C133 1.404 . S
C134 C138 1.389 . S
C134 H156 0.930 . S
C135 C133 1.352 . S
C135 C137 1.374 . S
C135 H157 0.931 . S
C136 C137 1.359 . S
C136 C138 1.364 . S
C137 C135 1.374 . S
C137 C136 1.359 . S
C137 H158 0.931 . S
C138 C134 1.389 . S
C138 C136 1.364 . S
C138 H159 0.931 . S
C139 O150 1.256 . S
C139 O151 1.257 . S
O140 Gd120 2.377 . S
O140 C122 1.240 . S
O141 Gd121 2.395 . S
O141 C122 1.240 . S
O142 Gd120 2.448 1_565 S
O142 C123 1.249 . S
O143 Gd120 2.506 1_565 S
O143 C123 1.252 . S
O144 Gd120 2.435 . S
O144 C130 1.256 . S
O145 Gd120 2.717 . S
O145 Gd121 2.327 . S
O145 C130 1.257 . S
O146 Gd121 2.377 . S
O146 C131 1.240 . S
O147 Gd120 2.395 . S
O147 C131 1.240 . S
O148 Gd121 2.448 . S
O148 C132 1.249 . S
O149 Gd121 2.506 . S
O149 C132 1.252 . S
O150 Gd121 2.435 . S
O150 C139 1.256 . S
O151 Gd120 2.327 . S
O151 Gd121 2.717 . S
O151 C139 1.257 . S
H152 C125 0.930 . S
H153 C126 0.931 . S
H154 C128 0.931 . S
H155 C129 0.931 . S
H156 C134 0.930 . S
H157 C135 0.931 . S
H158 C137 0.931 . S
H159 C138 0.931 . S
Gd160 C163 2.818 . S
Gd160 O180 2.377 . S
Gd160 O182 2.448 . S
Gd160 O183 2.506 . S
Gd160 O184 2.435 . S
Gd160 O185 2.717 . S
Gd160 O187 2.395 . S
Gd160 O191 2.327 . S
Gd161 C172 2.818 1_565 S
Gd161 O181 2.395 . S
Gd161 O185 2.327 . S
Gd161 O186 2.377 . S
Gd161 O188 2.448 1_565 S
Gd161 O189 2.506 1_565 S
Gd161 O190 2.435 . S
Gd161 O191 2.717 . S
C162 O180 1.240 . S
C162 O181 1.240 . S
C163 Gd160 2.818 . S
C163 C164 1.510 . S
C163 O182 1.249 . S
C163 O183 1.252 . S
C164 C163 1.510 . S
C164 C165 1.404 . S
C164 C166 1.352 . S
C165 C164 1.404 . S
C165 C169 1.389 . S
C165 H192 0.930 . S
C166 C164 1.352 . S
C166 C168 1.374 . S
C166 H193 0.931 . S
C167 C168 1.359 . S
C167 C169 1.364 . S
C168 C166 1.374 . S
C168 C167 1.359 . S
C168 H194 0.931 . S
C169 C165 1.389 . S
C169 C167 1.364 . S
C169 H195 0.931 . S
C170 O184 1.256 . S
C170 O185 1.257 . S
C171 O186 1.240 . S
C171 O187 1.240 . S
C172 Gd161 2.818 1_545 S
C172 C173 1.510 . S
C172 O188 1.249 . S
C172 O189 1.252 . S
C173 C172 1.510 . S
C173 C174 1.404 . S
C173 C175 1.352 . S
C174 C173 1.404 . S
C174 C178 1.389 . S
C174 H196 0.930 . S
C175 C173 1.352 . S
C175 C177 1.374 . S
C175 H197 0.931 . S
C176 C177 1.359 . S
C176 C178 1.364 . S
C177 C175 1.374 . S
C177 C176 1.359 . S
C177 H198 0.931 . S
C178 C174 1.389 . S
C178 C176 1.364 . S
C178 H199 0.931 . S
C179 O190 1.256 . S
C179 O191 1.257 . S
O180 Gd160 2.377 . S
O180 C162 1.240 . S
O181 Gd161 2.395 . S
O181 C162 1.240 . S
O182 Gd160 2.448 . S
O182 C163 1.249 . S
O183 Gd160 2.506 . S
O183 C163 1.252 . S
O184 Gd160 2.435 . S
O184 C170 1.256 . S
O185 Gd160 2.717 . S
O185 Gd161 2.327 . S
O185 C170 1.257 . S
O186 Gd161 2.377 . S
O186 C171 1.240 . S
O187 Gd160 2.395 . S
O187 C171 1.240 . S
O188 Gd161 2.448 1_545 S
O188 C172 1.249 . S
O189 Gd161 2.506 1_545 S
O189 C172 1.252 . S
O190 Gd161 2.435 . S
O190 C179 1.256 . S
O191 Gd160 2.327 . S
O191 Gd161 2.717 . S
O191 C179 1.257 . S
H192 C165 0.930 . S
H193 C166 0.931 . S
H194 C168 0.931 . S
H195 C169 0.931 . S
H196 C174 0.930 . S
H197 C175 0.931 . S
H198 C177 0.931 . S
H199 C178 0.931 . S
Gd200 C203 2.818 . S
Gd200 O220 2.377 . S
Gd200 O222 2.448 . S
Gd200 O223 2.506 . S
Gd200 O224 2.435 . S
Gd200 O225 2.717 . S
Gd200 O227 2.395 . S
Gd200 O231 2.327 . S
Gd201 C212 2.818 1_545 S
Gd201 O221 2.395 . S
Gd201 O225 2.327 . S
Gd201 O226 2.377 . S
Gd201 O228 2.448 1_545 S
Gd201 O229 2.506 1_545 S
Gd201 O230 2.435 . S
Gd201 O231 2.717 . S
C202 O220 1.240 . S
C202 O221 1.240 . S
C203 Gd200 2.818 . S
C203 C204 1.510 . S
C203 O222 1.249 . S
C203 O223 1.252 . S
C204 C203 1.510 . S
C204 C205 1.404 . S
C204 C206 1.352 . S
C205 C204 1.404 . S
C205 C209 1.389 . S
C205 H232 0.930 . S
C206 C204 1.352 . S
C206 C208 1.374 . S
C206 H233 0.931 . S
C207 C208 1.359 . S
C207 C209 1.364 . S
C208 C206 1.374 . S
C208 C207 1.359 . S
C208 H234 0.931 . S
C209 C205 1.389 . S
C209 C207 1.364 . S
C209 H235 0.931 . S
C210 O224 1.256 . S
C210 O225 1.257 . S
C211 O226 1.240 . S
C211 O227 1.240 . S
C212 Gd201 2.818 1_565 S
C212 C213 1.510 . S
C212 O228 1.249 . S
C212 O229 1.252 . S
C213 C212 1.510 . S
C213 C214 1.404 . S
C213 C215 1.352 . S
C214 C213 1.404 . S
C214 C218 1.389 . S
C214 H236 0.930 . S
C215 C213 1.352 . S
C215 C217 1.374 . S
C215 H237 0.931 . S
C216 C217 1.359 . S
C216 C218 1.364 . S
C217 C215 1.374 . S
C217 C216 1.359 . S
C217 H238 0.931 . S
C218 C214 1.389 . S
C218 C216 1.364 . S
C218 H239 0.931 . S
C219 O230 1.256 . S
C219 O231 1.257 . S
O220 Gd200 2.377 . S
O220 C202 1.240 . S
O221 Gd201 2.395 . S
O221 C202 1.240 . S
O222 Gd200 2.448 . S
O222 C203 1.249 . S
O223 Gd200 2.506 . S
O223 C203 1.252 . S
O224 Gd200 2.435 . S
O224 C210 1.256 . S
O225 Gd200 2.717 . S
O225 Gd201 2.327 . S
O225 C210 1.257 . S
O226 Gd201 2.377 . S
O226 C211 1.240 . S
O227 Gd200 2.395 . S
O227 C211 1.240 . S
O228 Gd201 2.448 1_565 S
O228 C212 1.249 . S
O229 Gd201 2.506 1_565 S
O229 C212 1.252 . S
O230 Gd201 2.435 . S
O230 C219 1.256 . S
O231 Gd200 2.327 . S
O231 Gd201 2.717 . S
O231 C219 1.257 . S
H232 C205 0.930 . S
H233 C206 0.931 . S
H234 C208 0.931 . S
H235 C209 0.931 . S
H236 C214 0.930 . S
H237 C215 0.931 . S
H238 C217 0.931 . S
H239 C218 0.931 . S
Gd240 C243 2.818 . S
Gd240 O260 2.377 . S
Gd240 O262 2.448 . S
Gd240 O263 2.506 . S
Gd240 O264 2.435 . S
Gd240 O265 2.717 . S
Gd240 O267 2.395 . S
Gd240 O271 2.327 . S
Gd241 C252 2.818 1_545 S
Gd241 O261 2.395 . S
Gd241 O265 2.327 . S
Gd241 O266 2.377 . S
Gd241 O268 2.448 1_545 S
Gd241 O269 2.506 1_545 S
Gd241 O270 2.435 . S
Gd241 O271 2.717 . S
C242 O260 1.240 . S
C242 O261 1.240 . S
C243 Gd240 2.818 . S
C243 C244 1.510 . S
C243 O262 1.249 . S
C243 O263 1.252 . S
C244 C243 1.510 . S
C244 C245 1.404 . S
C244 C246 1.352 . S
C245 C244 1.404 . S
C245 C249 1.389 . S
C245 H272 0.930 . S
C246 C244 1.352 . S
C246 C248 1.374 . S
C246 H273 0.931 . S
C247 C248 1.359 . S
C247 C249 1.364 . S
C248 C246 1.374 . S
C248 C247 1.359 . S
C248 H274 0.931 . S
C249 C245 1.389 . S
C249 C247 1.364 . S
C249 H275 0.931 . S
C250 O264 1.256 . S
C250 O265 1.257 . S
C251 O266 1.240 . S
C251 O267 1.240 . S
C252 Gd241 2.818 1_565 S
C252 C253 1.510 . S
C252 O268 1.249 . S
C252 O269 1.252 . S
C253 C252 1.510 . S
C253 C254 1.404 . S
C253 C255 1.352 . S
C254 C253 1.404 . S
C254 C258 1.389 . S
C254 H276 0.930 . S
C255 C253 1.352 . S
C255 C257 1.374 . S
C255 H277 0.931 . S
C256 C257 1.359 . S
C256 C258 1.364 . S
C257 C255 1.374 . S
C257 C256 1.359 . S
C257 H278 0.931 . S
C258 C254 1.389 . S
C258 C256 1.364 . S
C258 H279 0.931 . S
C259 O270 1.256 . S
C259 O271 1.257 . S
O260 Gd240 2.377 . S
O260 C242 1.240 . S
O261 Gd241 2.395 . S
O261 C242 1.240 . S
O262 Gd240 2.448 . S
O262 C243 1.249 . S
O263 Gd240 2.506 . S
O263 C243 1.252 . S
O264 Gd240 2.435 . S
O264 C250 1.256 . S
O265 Gd240 2.717 . S
O265 Gd241 2.327 . S
O265 C250 1.257 . S
O266 Gd241 2.377 . S
O266 C251 1.240 . S
O267 Gd240 2.395 . S
O267 C251 1.240 . S
O268 Gd241 2.448 1_565 S
O268 C252 1.249 . S
O269 Gd241 2.506 1_565 S
O269 C252 1.252 . S
O270 Gd241 2.435 . S
O270 C259 1.256 . S
O271 Gd240 2.327 . S
O271 Gd241 2.717 . S
O271 C259 1.257 . S
H272 C245 0.930 . S
H273 C246 0.931 . S
H274 C248 0.931 . S
H275 C249 0.931 . S
H276 C254 0.930 . S
H277 C255 0.931 . S
H278 C257 0.931 . S
H279 C258 0.931 . S
Gd280 C283 2.818 . S
Gd280 O300 2.377 . S
Gd280 O302 2.448 . S
Gd280 O303 2.506 . S
Gd280 O304 2.435 . S
Gd280 O305 2.717 . S
Gd280 O307 2.395 . S
Gd280 O311 2.327 . S
Gd281 C292 2.818 1_565 S
Gd281 O301 2.395 . S
Gd281 O305 2.327 . S
Gd281 O306 2.377 . S
Gd281 O308 2.448 1_565 S
Gd281 O309 2.506 1_565 S
Gd281 O310 2.435 . S
Gd281 O311 2.717 . S
C282 O300 1.240 . S
C282 O301 1.240 . S
C283 Gd280 2.818 . S
C283 C284 1.510 . S
C283 O302 1.249 . S
C283 O303 1.252 . S
C284 C283 1.510 . S
C284 C285 1.404 . S
C284 C286 1.352 . S
C285 C284 1.404 . S
C285 C289 1.389 . S
C285 H312 0.930 . S
C286 C284 1.352 . S
C286 C288 1.374 . S
C286 H313 0.931 . S
C287 C288 1.359 . S
C287 C289 1.364 . S
C288 C286 1.374 . S
C288 C287 1.359 . S
C288 H314 0.931 . S
C289 C285 1.389 . S
C289 C287 1.364 . S
C289 H315 0.931 . S
C290 O304 1.256 . S
C290 O305 1.257 . S
C291 O306 1.240 . S
C291 O307 1.240 . S
C292 Gd281 2.818 1_545 S
C292 C293 1.510 . S
C292 O308 1.249 . S
C292 O309 1.252 . S
C293 C292 1.510 . S
C293 C294 1.404 . S
C293 C295 1.352 . S
C294 C293 1.404 . S
C294 C298 1.389 . S
C294 H316 0.930 . S
C295 C293 1.352 . S
C295 C297 1.374 . S
C295 H317 0.931 . S
C296 C297 1.359 . S
C296 C298 1.364 . S
C297 C295 1.374 . S
C297 C296 1.359 . S
C297 H318 0.931 . S
C298 C294 1.389 . S
C298 C296 1.364 . S
C298 H319 0.931 . S
C299 O310 1.256 . S
C299 O311 1.257 . S
O300 Gd280 2.377 . S
O300 C282 1.240 . S
O301 Gd281 2.395 . S
O301 C282 1.240 . S
O302 Gd280 2.448 . S
O302 C283 1.249 . S
O303 Gd280 2.506 . S
O303 C283 1.252 . S
O304 Gd280 2.435 . S
O304 C290 1.256 . S
O305 Gd280 2.717 . S
O305 Gd281 2.327 . S
O305 C290 1.257 . S
O306 Gd281 2.377 . S
O306 C291 1.240 . S
O307 Gd280 2.395 . S
O307 C291 1.240 . S
O308 Gd281 2.448 1_545 S
O308 C292 1.249 . S
O309 Gd281 2.506 1_545 S
O309 C292 1.252 . S
O310 Gd281 2.435 . S
O310 C299 1.256 . S
O311 Gd280 2.327 . S
O311 Gd281 2.717 . S
O311 C299 1.257 . S
H312 C285 0.930 . S
H313 C286 0.931 . S
H314 C288 0.931 . S
H315 C289 0.931 . S
H316 C294 0.930 . S
H317 C295 0.931 . S
H318 C297 0.931 . S
H319 C298 0.931 . S
Gd320 C323 2.818 . S
Gd320 O340 2.377 . S
Gd320 O342 2.448 . S
Gd320 O343 2.506 . S
Gd320 O344 2.435 . S
Gd320 O345 2.717 . S
Gd320 O347 2.395 . S
Gd320 O351 2.327 . S
Gd321 C332 2.818 . S
Gd321 O341 2.395 . S
Gd321 O345 2.327 . S
Gd321 O346 2.377 . S
Gd321 O348 2.448 . S
Gd321 O349 2.506 . S
Gd321 O350 2.435 . S
Gd321 O351 2.717 . S
C322 O340 1.240 . S
C322 O341 1.240 . S
C323 Gd320 2.818 . S
C323 C324 1.510 . S
C323 O342 1.249 . S
C323 O343 1.252 . S
C324 C323 1.510 . S
C324 C325 1.404 . S
C324 C326 1.352 . S
C325 C324 1.404 . S
C325 C329 1.389 . S
C325 H352 0.930 . S
C326 C324 1.352 . S
C326 C328 1.374 . S
C326 H353 0.931 . S
C327 C328 1.359 . S
C327 C329 1.364 . S
C328 C326 1.374 . S
C328 C327 1.359 . S
C328 H354 0.931 . S
C329 C325 1.389 . S
C329 C327 1.364 . S
C329 H355 0.931 . S
C330 O344 1.256 . S
C330 O345 1.257 . S
C331 O346 1.240 . S
C331 O347 1.240 . S
C332 Gd321 2.818 . S
C332 C333 1.510 . S
C332 O348 1.249 . S
C332 O349 1.252 . S
C333 C332 1.510 . S
C333 C334 1.404 . S
C333 C335 1.352 . S
C334 C333 1.404 . S
C334 C338 1.389 . S
C334 H356 0.930 . S
C335 C333 1.352 . S
C335 C337 1.374 . S
C335 H357 0.931 . S
C336 C337 1.359 . S
C336 C338 1.364 . S
C337 C335 1.374 . S
C337 C336 1.359 . S
C337 H358 0.931 . S
C338 C334 1.389 . S
C338 C336 1.364 . S
C338 H359 0.931 . S
C339 O350 1.256 . S
C339 O351 1.257 . S
O340 Gd320 2.377 . S
O340 C322 1.240 . S
O341 Gd321 2.395 . S
O341 C322 1.240 . S
O342 Gd320 2.448 . S
O342 C323 1.249 . S
O343 Gd320 2.506 . S
O343 C323 1.252 . S
O344 Gd320 2.435 . S
O344 C330 1.256 . S
O345 Gd320 2.717 . S
O345 Gd321 2.327 . S
O345 C330 1.257 . S
O346 Gd321 2.377 . S
O346 C331 1.240 . S
O347 Gd320 2.395 . S
O347 C331 1.240 . S
O348 Gd321 2.448 . S
O348 C332 1.249 . S
O349 Gd321 2.506 . S
O349 C332 1.252 . S
O350 Gd321 2.435 . S
O350 C339 1.256 . S
O351 Gd320 2.327 . S
O351 Gd321 2.717 . S
O351 C339 1.257 . S
H352 C325 0.930 . S
H353 C326 0.931 . S
H354 C328 0.931 . S
H355 C329 0.931 . S
H356 C334 0.930 . S
H357 C335 0.931 . S
H358 C337 0.931 . S
H359 C338 0.931 . S
Gd360 C363 2.818 . S
Gd360 O380 2.377 . S
Gd360 O382 2.448 . S
Gd360 O383 2.506 . S
Gd360 O384 2.435 . S
Gd360 O385 2.717 . S
Gd360 O387 2.395 . S
Gd360 O391 2.327 . S
Gd361 C372 2.818 . S
Gd361 O381 2.395 . S
Gd361 O385 2.327 . S
Gd361 O386 2.377 . S
Gd361 O388 2.448 . S
Gd361 O389 2.506 . S
Gd361 O390 2.435 . S
Gd361 O391 2.717 . S
C362 O380 1.240 . S
C362 O381 1.240 . S
C363 Gd360 2.818 . S
C363 C364 1.510 . S
C363 O382 1.249 . S
C363 O383 1.252 . S
C364 C363 1.510 . S
C364 C365 1.404 . S
C364 C366 1.352 . S
C365 C364 1.404 . S
C365 C369 1.389 . S
C365 H392 0.930 . S
C366 C364 1.352 . S
C366 C368 1.374 . S
C366 H393 0.931 . S
C367 C368 1.359 . S
C367 C369 1.364 . S
C368 C366 1.374 . S
C368 C367 1.359 . S
C368 H394 0.931 . S
C369 C365 1.389 . S
C369 C367 1.364 . S
C369 H395 0.931 . S
C370 O384 1.256 . S
C370 O385 1.257 . S
C371 O386 1.240 . S
C371 O387 1.240 . S
C372 Gd361 2.818 . S
C372 C373 1.510 . S
C372 O388 1.249 . S
C372 O389 1.252 . S
C373 C372 1.510 . S
C373 C374 1.404 . S
C373 C375 1.352 . S
C374 C373 1.404 . S
C374 C378 1.389 . S
C374 H396 0.930 . S
C375 C373 1.352 . S
C375 C377 1.374 . S
C375 H397 0.931 . S
C376 C377 1.359 . S
C376 C378 1.364 . S
C377 C375 1.374 . S
C377 C376 1.359 . S
C377 H398 0.931 . S
C378 C374 1.389 . S
C378 C376 1.364 . S
C378 H399 0.931 . S
C379 O390 1.256 . S
C379 O391 1.257 . S
O380 Gd360 2.377 . S
O380 C362 1.240 . S
O381 Gd361 2.395 . S
O381 C362 1.240 . S
O382 Gd360 2.448 . S
O382 C363 1.249 . S
O383 Gd360 2.506 . S
O383 C363 1.252 . S
O384 Gd360 2.435 . S
O384 C370 1.256 . S
O385 Gd360 2.717 . S
O385 Gd361 2.327 . S
O385 C370 1.257 . S
O386 Gd361 2.377 . S
O386 C371 1.240 . S
O387 Gd360 2.395 . S
O387 C371 1.240 . S
O388 Gd361 2.448 . S
O388 C372 1.249 . S
O389 Gd361 2.506 . S
O389 C372 1.252 . S
O390 Gd361 2.435 . S
O390 C379 1.256 . S
O391 Gd360 2.327 . S
O391 Gd361 2.717 . S
O391 C379 1.257 . S
H392 C365 0.930 . S
H393 C366 0.931 . S
H394 C368 0.931 . S
H395 C369 0.931 . S
H396 C374 0.930 . S
H397 C375 0.931 . S
H398 C377 0.931 . S
H399 C378 0.931 . S
Gd400 C403 2.818 . S
Gd400 O420 2.377 . S
Gd400 O422 2.448 . S
Gd400 O423 2.506 . S
Gd400 O424 2.435 . S
Gd400 O425 2.717 . S
Gd400 O427 2.395 . S
Gd400 O431 2.327 . S
Gd401 C412 2.818 . S
Gd401 O421 2.395 . S
Gd401 O425 2.327 . S
Gd401 O426 2.377 . S
Gd401 O428 2.448 . S
Gd401 O429 2.506 . S
Gd401 O430 2.435 . S
Gd401 O431 2.717 . S
C402 O420 1.240 . S
C402 O421 1.240 . S
C403 Gd400 2.818 . S
C403 C404 1.510 . S
C403 O422 1.249 . S
C403 O423 1.252 . S
C404 C403 1.510 . S
C404 C405 1.404 . S
C404 C406 1.352 . S
C405 C404 1.404 . S
C405 C409 1.389 . S
C405 H432 0.930 . S
C406 C404 1.352 . S
C406 C408 1.374 . S
C406 H433 0.931 . S
C407 C408 1.359 . S
C407 C409 1.364 . S
C408 C406 1.374 . S
C408 C407 1.359 . S
C408 H434 0.931 . S
C409 C405 1.389 . S
C409 C407 1.364 . S
C409 H435 0.931 . S
C410 O424 1.256 . S
C410 O425 1.257 . S
C411 O426 1.240 . S
C411 O427 1.240 . S
C412 Gd401 2.818 . S
C412 C413 1.510 . S
C412 O428 1.249 . S
C412 O429 1.252 . S
C413 C412 1.510 . S
C413 C414 1.404 . S
C413 C415 1.352 . S
C414 C413 1.404 . S
C414 C418 1.389 . S
C414 H436 0.930 . S
C415 C413 1.352 . S
C415 C417 1.374 . S
C415 H437 0.931 . S
C416 C417 1.359 . S
C416 C418 1.364 . S
C417 C415 1.374 . S
C417 C416 1.359 . S
C417 H438 0.931 . S
C418 C414 1.389 . S
C418 C416 1.364 . S
C418 H439 0.931 . S
C419 O430 1.256 . S
C419 O431 1.257 . S
O420 Gd400 2.377 . S
O420 C402 1.240 . S
O421 Gd401 2.395 . S
O421 C402 1.240 . S
O422 Gd400 2.448 . S
O422 C403 1.249 . S
O423 Gd400 2.506 . S
O423 C403 1.252 . S
O424 Gd400 2.435 . S
O424 C410 1.256 . S
O425 Gd400 2.717 . S
O425 Gd401 2.327 . S
O425 C410 1.257 . S
O426 Gd401 2.377 . S
O426 C411 1.240 . S
O427 Gd400 2.395 . S
O427 C411 1.240 . S
O428 Gd401 2.448 . S
O428 C412 1.249 . S
O429 Gd401 2.506 . S
O429 C412 1.252 . S
O430 Gd401 2.435 . S
O430 C419 1.256 . S
O431 Gd400 2.327 . S
O431 Gd401 2.717 . S
O431 C419 1.257 . S
H432 C405 0.930 . S
H433 C406 0.931 . S
H434 C408 0.931 . S
H435 C409 0.931 . S
H436 C414 0.930 . S
H437 C415 0.931 . S
H438 C417 0.931 . S
H439 C418 0.931 . S
Gd440 C443 2.818 . S
Gd440 O460 2.377 . S
Gd440 O462 2.448 . S
Gd440 O463 2.506 . S
Gd440 O464 2.435 . S
Gd440 O465 2.717 . S
Gd440 O467 2.395 . S
Gd440 O471 2.327 . S
Gd441 C452 2.818 . S
Gd441 O461 2.395 . S
Gd441 O465 2.327 . S
Gd441 O466 2.377 . S
Gd441 O468 2.448 . S
Gd441 O469 2.506 . S
Gd441 O470 2.435 . S
Gd441 O471 2.717 . S
C442 O460 1.240 . S
C442 O461 1.240 . S
C443 Gd440 2.818 . S
C443 C444 1.510 . S
C443 O462 1.249 . S
C443 O463 1.252 . S
C444 C443 1.510 . S
C444 C445 1.404 . S
C444 C446 1.352 . S
C445 C444 1.404 . S
C445 C449 1.389 . S
C445 H472 0.930 . S
C446 C444 1.352 . S
C446 C448 1.374 . S
C446 H473 0.931 . S
C447 C448 1.359 . S
C447 C449 1.364 . S
C448 C446 1.374 . S
C448 C447 1.359 . S
C448 H474 0.931 . S
C449 C445 1.389 . S
C449 C447 1.364 . S
C449 H475 0.931 . S
C450 O464 1.256 . S
C450 O465 1.257 . S
C451 O466 1.240 . S
C451 O467 1.240 . S
C452 Gd441 2.818 . S
C452 C453 1.510 . S
C452 O468 1.249 . S
C452 O469 1.252 . S
C453 C452 1.510 . S
C453 C454 1.404 . S
C453 C455 1.352 . S
C454 C453 1.404 . S
C454 C458 1.389 . S
C454 H476 0.930 . S
C455 C453 1.352 . S
C455 C457 1.374 . S
C455 H477 0.931 . S
C456 C457 1.359 . S
C456 C458 1.364 . S
C457 C455 1.374 . S
C457 C456 1.359 . S
C457 H478 0.931 . S
C458 C454 1.389 . S
C458 C456 1.364 . S
C458 H479 0.931 . S
C459 O470 1.256 . S
C459 O471 1.257 . S
O460 Gd440 2.377 . S
O460 C442 1.240 . S
O461 Gd441 2.395 . S
O461 C442 1.240 . S
O462 Gd440 2.448 . S
O462 C443 1.249 . S
O463 Gd440 2.506 . S
O463 C443 1.252 . S
O464 Gd440 2.435 . S
O464 C450 1.256 . S
O465 Gd440 2.717 . S
O465 Gd441 2.327 . S
O465 C450 1.257 . S
O466 Gd441 2.377 . S
O466 C451 1.240 . S
O467 Gd440 2.395 . S
O467 C451 1.240 . S
O468 Gd441 2.448 . S
O468 C452 1.249 . S
O469 Gd441 2.506 . S
O469 C452 1.252 . S
O470 Gd441 2.435 . S
O470 C459 1.256 . S
O471 Gd440 2.327 . S
O471 Gd441 2.717 . S
O471 C459 1.257 . S
H472 C445 0.930 . S
H473 C446 0.931 . S
H474 C448 0.931 . S
H475 C449 0.931 . S
H476 C454 0.930 . S
H477 C455 0.931 . S
H478 C457 0.931 . S
H479 C458 0.931 . S
Gd480 C483 2.818 . S
Gd480 O500 2.377 . S
Gd480 O502 2.448 . S
Gd480 O503 2.506 . S
Gd480 O504 2.435 . S
Gd480 O505 2.717 . S
Gd480 O507 2.395 . S
Gd480 O511 2.327 . S
Gd481 C492 2.818 . S
Gd481 O501 2.395 . S
Gd481 O505 2.327 . S
Gd481 O506 2.377 . S
Gd481 O508 2.448 . S
Gd481 O509 2.506 . S
Gd481 O510 2.435 . S
Gd481 O511 2.717 . S
C482 O500 1.240 . S
C482 O501 1.240 . S
C483 Gd480 2.818 . S
C483 C484 1.510 . S
C483 O502 1.249 . S
C483 O503 1.252 . S
C484 C483 1.510 . S
C484 C485 1.404 . S
C484 C486 1.352 . S
C485 C484 1.404 . S
C485 C489 1.389 . S
C485 H512 0.930 . S
C486 C484 1.352 . S
C486 C488 1.374 . S
C486 H513 0.931 . S
C487 C488 1.359 . S
C487 C489 1.364 . S
C488 C486 1.374 . S
C488 C487 1.359 . S
C488 H514 0.931 . S
C489 C485 1.389 . S
C489 C487 1.364 . S
C489 H515 0.931 . S
C490 O504 1.256 . S
C490 O505 1.257 . S
C491 O506 1.240 . S
C491 O507 1.240 . S
C492 Gd481 2.818 . S
C492 C493 1.510 . S
C492 O508 1.249 . S
C492 O509 1.252 . S
C493 C492 1.510 . S
C493 C494 1.404 . S
C493 C495 1.352 . S
C494 C493 1.404 . S
C494 C498 1.389 . S
C494 H516 0.930 . S
C495 C493 1.352 . S
C495 C497 1.374 . S
C495 H517 0.931 . S
C496 C497 1.359 . S
C496 C498 1.364 . S
C497 C495 1.374 . S
C497 C496 1.359 . S
C497 H518 0.931 . S
C498 C494 1.389 . S
C498 C496 1.364 . S
C498 H519 0.931 . S
C499 O510 1.256 . S
C499 O511 1.257 . S
O500 Gd480 2.377 . S
O500 C482 1.240 . S
O501 Gd481 2.395 . S
O501 C482 1.240 . S
O502 Gd480 2.448 . S
O502 C483 1.249 . S
O503 Gd480 2.506 . S
O503 C483 1.252 . S
O504 Gd480 2.435 . S
O504 C490 1.256 . S
O505 Gd480 2.717 . S
O505 Gd481 2.327 . S
O505 C490 1.257 . S
O506 Gd481 2.377 . S
O506 C491 1.240 . S
O507 Gd480 2.395 . S
O507 C491 1.240 . S
O508 Gd481 2.448 . S
O508 C492 1.249 . S
O509 Gd481 2.506 . S
O509 C492 1.252 . S
O510 Gd481 2.435 . S
O510 C499 1.256 . S
O511 Gd480 2.327 . S
O511 Gd481 2.717 . S
O511 C499 1.257 . S
H512 C485 0.930 . S
H513 C486 0.931 . S
H514 C488 0.931 . S
H515 C489 0.931 . S
H516 C494 0.930 . S
H517 C495 0.931 . S
H518 C497 0.931 . S
H519 C498 0.931 . S
Gd520 C523 2.818 . S
Gd520 O540 2.377 . S
Gd520 O542 2.448 . S
Gd520 O543 2.506 . S
Gd520 O544 2.435 . S
Gd520 O545 2.717 . S
Gd520 O547 2.395 . S
Gd520 O551 2.327 . S
Gd521 C532 2.818 . S
Gd521 O541 2.395 . S
Gd521 O545 2.327 . S
Gd521 O546 2.377 . S
Gd521 O548 2.448 . S
Gd521 O549 2.506 . S
Gd521 O550 2.435 . S
Gd521 O551 2.717 . S
C522 O540 1.240 . S
C522 O541 1.240 . S
C523 Gd520 2.818 . S
C523 C524 1.510 . S
C523 O542 1.249 . S
C523 O543 1.252 . S
C524 C523 1.510 . S
C524 C525 1.404 . S
C524 C526 1.352 . S
C525 C524 1.404 . S
C525 C529 1.389 . S
C525 H552 0.930 . S
C526 C524 1.352 . S
C526 C528 1.374 . S
C526 H553 0.931 . S
C527 C528 1.359 . S
C527 C529 1.364 . S
C528 C526 1.374 . S
C528 C527 1.359 . S
C528 H554 0.931 . S
C529 C525 1.389 . S
C529 C527 1.364 . S
C529 H555 0.931 . S
C530 O544 1.256 . S
C530 O545 1.257 . S
C531 O546 1.240 . S
C531 O547 1.240 . S
C532 Gd521 2.818 . S
C532 C533 1.510 . S
C532 O548 1.249 . S
C532 O549 1.252 . S
C533 C532 1.510 . S
C533 C534 1.404 . S
C533 C535 1.352 . S
C534 C533 1.404 . S
C534 C538 1.389 . S
C534 H556 0.930 . S
C535 C533 1.352 . S
C535 C537 1.374 . S
C535 H557 0.931 . S
C536 C537 1.359 . S
C536 C538 1.364 . S
C537 C535 1.374 . S
C537 C536 1.359 . S
C537 H558 0.931 . S
C538 C534 1.389 . S
C538 C536 1.364 . S
C538 H559 0.931 . S
C539 O550 1.256 . S
C539 O551 1.257 . S
O540 Gd520 2.377 . S
O540 C522 1.240 . S
O541 Gd521 2.395 . S
O541 C522 1.240 . S
O542 Gd520 2.448 . S
O542 C523 1.249 . S
O543 Gd520 2.506 . S
O543 C523 1.252 . S
O544 Gd520 2.435 . S
O544 C530 1.256 . S
O545 Gd520 2.717 . S
O545 Gd521 2.327 . S
O545 C530 1.257 . S
O546 Gd521 2.377 . S
O546 C531 1.240 . S
O547 Gd520 2.395 . S
O547 C531 1.240 . S
O548 Gd521 2.448 . S
O548 C532 1.249 . S
O549 Gd521 2.506 . S
O549 C532 1.252 . S
O550 Gd521 2.435 . S
O550 C539 1.256 . S
O551 Gd520 2.327 . S
O551 Gd521 2.717 . S
O551 C539 1.257 . S
H552 C525 0.930 . S
H553 C526 0.931 . S
H554 C528 0.931 . S
H555 C529 0.931 . S
H556 C534 0.930 . S
H557 C535 0.931 . S
H558 C537 0.931 . S
H559 C538 0.931 . S
Gd560 C563 2.818 . S
Gd560 O580 2.377 . S
Gd560 O582 2.448 . S
Gd560 O583 2.506 . S
Gd560 O584 2.435 . S
Gd560 O585 2.717 . S
Gd560 O587 2.395 . S
Gd560 O591 2.327 . S
Gd561 C572 2.818 . S
Gd561 O581 2.395 . S
Gd561 O585 2.327 . S
Gd561 O586 2.377 . S
Gd561 O588 2.448 . S
Gd561 O589 2.506 . S
Gd561 O590 2.435 . S
Gd561 O591 2.717 . S
C562 O580 1.240 . S
C562 O581 1.240 . S
C563 Gd560 2.818 . S
C563 C564 1.510 . S
C563 O582 1.249 . S
C563 O583 1.252 . S
C564 C563 1.510 . S
C564 C565 1.404 . S
C564 C566 1.352 . S
C565 C564 1.404 . S
C565 C569 1.389 . S
C565 H592 0.930 . S
C566 C564 1.352 . S
C566 C568 1.374 . S
C566 H593 0.931 . S
C567 C568 1.359 . S
C567 C569 1.364 . S
C568 C566 1.374 . S
C568 C567 1.359 . S
C568 H594 0.931 . S
C569 C565 1.389 . S
C569 C567 1.364 . S
C569 H595 0.931 . S
C570 O584 1.256 . S
C570 O585 1.257 . S
C571 O586 1.240 . S
C571 O587 1.240 . S
C572 Gd561 2.818 . S
C572 C573 1.510 . S
C572 O588 1.249 . S
C572 O589 1.252 . S
C573 C572 1.510 . S
C573 C574 1.404 . S
C573 C575 1.352 . S
C574 C573 1.404 . S
C574 C578 1.389 . S
C574 H596 0.930 . S
C575 C573 1.352 . S
C575 C577 1.374 . S
C575 H597 0.931 . S
C576 C577 1.359 . S
C576 C578 1.364 . S
C577 C575 1.374 . S
C577 C576 1.359 . S
C577 H598 0.931 . S
C578 C574 1.389 . S
C578 C576 1.364 . S
C578 H599 0.931 . S
C579 O590 1.256 . S
C579 O591 1.257 . S
O580 Gd560 2.377 . S
O580 C562 1.240 . S
O581 Gd561 2.395 . S
O581 C562 1.240 . S
O582 Gd560 2.448 . S
O582 C563 1.249 . S
O583 Gd560 2.506 . S
O583 C563 1.252 . S
O584 Gd560 2.435 . S
O584 C570 1.256 . S
O585 Gd560 2.717 . S
O585 Gd561 2.327 . S
O585 C570 1.257 . S
O586 Gd561 2.377 . S
O586 C571 1.240 . S
O587 Gd560 2.395 . S
O587 C571 1.240 . S
O588 Gd561 2.448 . S
O588 C572 1.249 . S
O589 Gd561 2.506 . S
O589 C572 1.252 . S
O590 Gd561 2.435 . S
O590 C579 1.256 . S
O591 Gd560 2.327 . S
O591 Gd561 2.717 . S
O591 C579 1.257 . S
H592 C565 0.930 . S
H593 C566 0.931 . S
H594 C568 0.931 . S
H595 C569 0.931 . S
H596 C574 0.930 . S
H597 C575 0.931 . S
H598 C577 0.931 . S
H599 C578 0.931 . S
Gd600 C603 2.818 . S
Gd600 O620 2.377 . S
Gd600 O622 2.448 . S
Gd600 O623 2.506 . S
Gd600 O624 2.435 . S
Gd600 O625 2.717 . S
Gd600 O627 2.395 . S
Gd600 O631 2.327 . S
Gd601 C612 2.818 . S
Gd601 O621 2.395 . S
Gd601 O625 2.327 . S
Gd601 O626 2.377 . S
Gd601 O628 2.448 . S
Gd601 O629 2.506 . S
Gd601 O630 2.435 . S
Gd601 O631 2.717 . S
C602 O620 1.240 . S
C602 O621 1.240 . S
C603 Gd600 2.818 . S
C603 C604 1.510 . S
C603 O622 1.249 . S
C603 O623 1.252 . S
C604 C603 1.510 . S
C604 C605 1.404 . S
C604 C606 1.352 . S
C605 C604 1.404 . S
C605 C609 1.389 . S
C605 H632 0.930 . S
C606 C604 1.352 . S
C606 C608 1.374 . S
C606 H633 0.931 . S
C607 C608 1.359 . S
C607 C609 1.364 . S
C608 C606 1.374 . S
C608 C607 1.359 . S
C608 H634 0.931 . S
C609 C605 1.389 . S
C609 C607 1.364 . S
C609 H635 0.931 . S
C610 O624 1.256 . S
C610 O625 1.257 . S
C611 O626 1.240 . S
C611 O627 1.240 . S
C612 Gd601 2.818 . S
C612 C613 1.510 . S
C612 O628 1.249 . S
C612 O629 1.252 . S
C613 C612 1.510 . S
C613 C614 1.404 . S
C613 C615 1.352 . S
C614 C613 1.404 . S
C614 C618 1.389 . S
C614 H636 0.930 . S
C615 C613 1.352 . S
C615 C617 1.374 . S
C615 H637 0.931 . S
C616 C617 1.359 . S
C616 C618 1.364 . S
C617 C615 1.374 . S
C617 C616 1.359 . S
C617 H638 0.931 . S
C618 C614 1.389 . S
C618 C616 1.364 . S
C618 H639 0.931 . S
C619 O630 1.256 . S
C619 O631 1.257 . S
O620 Gd600 2.377 . S
O620 C602 1.240 . S
O621 Gd601 2.395 . S
O621 C602 1.240 . S
O622 Gd600 2.448 . S
O622 C603 1.249 . S
O623 Gd600 2.506 . S
O623 C603 1.252 . S
O624 Gd600 2.435 . S
O624 C610 1.256 . S
O625 Gd600 2.717 . S
O625 Gd601 2.327 . S
O625 C610 1.257 . S
O626 Gd601 2.377 . S
O626 C611 1.240 . S
O627 Gd600 2.395 . S
O627 C611 1.240 . S
O628 Gd601 2.448 . S
O628 C612 1.249 . S
O629 Gd601 2.506 . S
O629 C612 1.252 . S
O630 Gd601 2.435 . S
O630 C619 1.256 . S
O631 Gd600 2.327 . S
O631 Gd601 2.717 . S
O631 C619 1.257 . S
H632 C605 0.930 . S
H633 C606 0.931 . S
H634 C608 0.931 . S
H635 C609 0.931 . S
H636 C614 0.930 . S
H637 C615 0.931 . S
H638 C617 0.931 . S
H639 C618 0.931 . S
H640 C646 0.930 . S
H641 C649 0.930 . S
H642 C650 0.930 . S
H643 C651 0.930 . S
H644 C654 0.930 . S
H645 C655 0.930 . S
C646 H640 0.930 . S
C646 C647 1.355 . S
C646 C648 1.415 . S
C647 C646 1.355 . S
C647 C649 1.419 . S
C648 C646 1.415 . S
C648 C653 1.425 . S
C648 C655 1.409 . S
C649 H641 0.930 . S
C649 C647 1.419 . S
C649 C650 1.362 . S
C650 H642 0.930 . S
C650 C649 1.362 . S
C650 C653 1.409 . S
C651 H643 0.930 . S
C651 C652 1.355 . S
C651 C653 1.415 . S
C652 C651 1.355 . S
C652 C654 1.419 . S
C653 C648 1.425 . S
C653 C650 1.409 . S
C653 C651 1.415 . S
C654 H644 0.930 . S
C654 C652 1.419 . S
C654 C655 1.362 . S
C655 H645 0.930 . S
C655 C648 1.409 . S
C655 C654 1.362 . S
H656 C662 0.930 . S
H657 C665 0.930 . S
H658 C666 0.930 . S
H659 C667 0.930 . S
H660 C670 0.930 . S
H661 C671 0.930 . S
C662 H656 0.930 . S
C662 C663 1.355 . S
C662 C664 1.415 . S
C663 C662 1.355 . S
C663 C665 1.419 . S
C664 C662 1.415 . S
C664 C669 1.425 . S
C664 C671 1.409 . S
C665 H657 0.930 . S
C665 C663 1.419 . S
C665 C666 1.362 . S
C666 H658 0.930 . S
C666 C665 1.362 . S
C666 C669 1.409 . S
C667 H659 0.930 . S
C667 C668 1.355 . S
C667 C669 1.415 . S
C668 C667 1.355 . S
C668 C670 1.419 . S
C669 C664 1.425 . S
C669 C666 1.409 . S
C669 C667 1.415 . S
C670 H660 0.930 . S
C670 C668 1.419 . S
C670 C671 1.362 . S
C671 H661 0.930 . S
C671 C664 1.409 . S
C671 C670 1.362 . S
H672 C678 0.930 . S
H673 C681 0.930 . S
H674 C682 0.930 . S
H675 C683 0.930 . S
H676 C686 0.930 . S
H677 C687 0.930 . S
C678 H672 0.930 . S
C678 C679 1.355 . S
C678 C680 1.415 . S
C679 C678 1.355 . S
C679 C681 1.419 . S
C680 C678 1.415 . S
C680 C685 1.425 . S
C680 C687 1.409 . S
C681 H673 0.930 . S
C681 C679 1.419 . S
C681 C682 1.362 . S
C682 H674 0.930 . S
C682 C681 1.362 . S
C682 C685 1.409 . S
C683 H675 0.930 . S
C683 C684 1.355 . S
C683 C685 1.415 . S
C684 C683 1.355 . S
C684 C686 1.419 . S
C685 C680 1.425 . S
C685 C682 1.409 . S
C685 C683 1.415 . S
C686 H676 0.930 . S
C686 C684 1.419 . S
C686 C687 1.362 . S
C687 H677 0.930 . S
C687 C680 1.409 . S
C687 C686 1.362 . S
H688 C694 0.930 . S
H689 C697 0.930 . S
H690 C698 0.930 . S
H691 C699 0.930 . S
H692 C702 0.930 . S
H693 C703 0.930 . S
C694 H688 0.930 . S
C694 C695 1.355 . S
C694 C696 1.415 . S
C695 C694 1.355 . S
C695 C697 1.419 . S
C696 C694 1.415 . S
C696 C701 1.425 . S
C696 C703 1.409 . S
C697 H689 0.930 . S
C697 C695 1.419 . S
C697 C698 1.362 . S
C698 H690 0.930 . S
C698 C697 1.362 . S
C698 C701 1.409 . S
C699 H691 0.930 . S
C699 C700 1.355 . S
C699 C701 1.415 . S
C700 C699 1.355 . S
C700 C702 1.419 . S
C701 C696 1.425 . S
C701 C698 1.409 . S
C701 C699 1.415 . S
C702 H692 0.930 . S
C702 C700 1.419 . S
C702 C703 1.362 . S
C703 H693 0.930 . S
C703 C696 1.409 . S
C703 C702 1.362 . S
H704 C710 0.930 . S
H705 C713 0.930 . S
H706 C714 0.930 . S
H707 C715 0.930 . S
H708 C718 0.930 . S
H709 C719 0.930 . S
C710 H704 0.930 . S
C710 C711 1.355 . S
C710 C712 1.415 . S
C711 C710 1.355 . S
C711 C713 1.419 . S
C712 C710 1.415 . S
C712 C717 1.425 . S
C712 C719 1.409 . S
C713 H705 0.930 . S
C713 C711 1.419 . S
C713 C714 1.362 . S
C714 H706 0.930 . S
C714 C713 1.362 . S
C714 C717 1.409 . S
C715 H707 0.930 . S
C715 C716 1.355 . S
C715 C717 1.415 . S
C716 C715 1.355 . S
C716 C718 1.419 . S
C717 C712 1.425 . S
C717 C714 1.409 . S
C717 C715 1.415 . S
C718 H708 0.930 . S
C718 C716 1.419 . S
C718 C719 1.362 . S
C719 H709 0.930 . S
C719 C712 1.409 . S
C719 C718 1.362 . S
H720 C726 0.930 . S
H721 C729 0.930 . S
H722 C730 0.930 . S
H723 C731 0.930 . S
H724 C734 0.930 . S
H725 C735 0.930 . S
C726 H720 0.930 . S
C726 C727 1.355 . S
C726 C728 1.415 . S
C727 C726 1.355 . S
C727 C729 1.419 . S
C728 C726 1.415 . S
C728 C733 1.425 . S
C728 C735 1.409 . S
C729 H721 0.930 . S
C729 C727 1.419 . S
C729 C730 1.362 . S
C730 H722 0.930 . S
C730 C729 1.362 . S
C730 C733 1.409 . S
C731 H723 0.930 . S
C731 C732 1.355 . S
C731 C733 1.415 . S
C732 C731 1.355 . S
C732 C734 1.419 . S
C733 C728 1.425 . S
C733 C730 1.409 . S
C733 C731 1.415 . S
C734 H724 0.930 . S
C734 C732 1.419 . S
C734 C735 1.362 . S
C735 H725 0.930 . S
C735 C728 1.409 . S
C735 C734 1.362 . S
H736 C742 0.930 . S
H737 C745 0.930 . S
H738 C746 0.930 . S
H739 C747 0.930 . S
H740 C750 0.930 . S
H741 C751 0.930 . S
C742 H736 0.930 . S
C742 C743 1.355 . S
C742 C744 1.415 . S
C743 C742 1.355 . S
C743 C745 1.419 . S
C744 C742 1.415 . S
C744 C749 1.425 . S
C744 C751 1.409 . S
C745 H737 0.930 . S
C745 C743 1.419 . S
C745 C746 1.362 . S
C746 H738 0.930 . S
C746 C745 1.362 . S
C746 C749 1.409 . S
C747 H739 0.930 . S
C747 C748 1.355 . S
C747 C749 1.415 . S
C748 C747 1.355 . S
C748 C750 1.419 . S
C749 C744 1.425 . S
C749 C746 1.409 . S
C749 C747 1.415 . S
C750 H740 0.930 . S
C750 C748 1.419 . S
C750 C751 1.362 . S
C751 H741 0.930 . S
C751 C744 1.409 . S
C751 C750 1.362 . S
H752 C758 0.930 . S
H753 C761 0.930 . S
H754 C762 0.930 . S
H755 C763 0.930 . S
H756 C766 0.930 . S
H757 C767 0.930 . S
C758 H752 0.930 . S
C758 C759 1.355 . S
C758 C760 1.415 . S
C759 C758 1.355 . S
C759 C761 1.419 . S
C760 C758 1.415 . S
C760 C765 1.425 . S
C760 C767 1.409 . S
C761 H753 0.930 . S
C761 C759 1.419 . S
C761 C762 1.362 . S
C762 H754 0.930 . S
C762 C761 1.362 . S
C762 C765 1.409 . S
C763 H755 0.930 . S
C763 C764 1.355 . S
C763 C765 1.415 . S
C764 C763 1.355 . S
C764 C766 1.419 . S
C765 C760 1.425 . S
C765 C762 1.409 . S
C765 C763 1.415 . S
C766 H756 0.930 . S
C766 C764 1.419 . S
C766 C767 1.362 . S
C767 H757 0.930 . S
C767 C760 1.409 . S
C767 C766 1.362 . S
H768 C774 0.930 1_545 S
H769 C777 0.930 . S
H770 C778 0.930 . S
H771 C779 0.930 1_565 S
H772 C782 0.930 . S
H773 C783 0.930 . S
C774 H768 0.930 1_565 S
C774 C775 1.355 . S
C774 C776 1.415 1_565 S
C775 C774 1.355 . S
C775 C777 1.419 . S
C776 C774 1.415 1_545 S
C776 C781 1.425 1_545 S
C776 C783 1.409 . S
C777 H769 0.930 . S
C777 C775 1.419 . S
C777 C778 1.362 . S
C778 H770 0.930 . S
C778 C777 1.362 . S
C778 C781 1.409 . S
C779 H771 0.930 1_545 S
C779 C780 1.355 . S
C779 C781 1.415 1_545 S
C780 C779 1.355 . S
C780 C782 1.419 . S
C781 C776 1.425 1_565 S
C781 C778 1.409 . S
C781 C779 1.415 1_565 S
C782 H772 0.930 . S
C782 C780 1.419 . S
C782 C783 1.362 . S
C783 H773 0.930 . S
C783 C776 1.409 . S
C783 C782 1.362 . S
H784 C790 0.930 . S
H785 C793 0.930 . S
H786 C794 0.930 . S
H787 C795 0.930 . S
H788 C798 0.930 . S
H789 C799 0.930 . S
C790 H784 0.930 . S
C790 C791 1.355 . S
C790 C792 1.415 . S
C791 C790 1.355 . S
C791 C793 1.419 . S
C792 C790 1.415 . S
C792 C797 1.425 1_545 S
C792 C799 1.409 . S
C793 H785 0.930 . S
C793 C791 1.419 . S
C793 C794 1.362 1_545 S
C794 H786 0.930 . S
C794 C793 1.362 1_565 S
C794 C797 1.409 . S
C795 H787 0.930 . S
C795 C796 1.355 . S
C795 C797 1.415 . S
C796 C795 1.355 . S
C796 C798 1.419 . S
C797 C792 1.425 1_565 S
C797 C794 1.409 . S
C797 C795 1.415 . S
C798 H788 0.930 . S
C798 C796 1.419 . S
C798 C799 1.362 1_565 S
C799 H789 0.930 . S
C799 C792 1.409 . S
C799 C798 1.362 1_545 S
H800 C806 0.930 . S
H801 C809 0.930 . S
H802 C810 0.930 . S
H803 C811 0.930 . S
H804 C814 0.930 . S
H805 C815 0.930 . S
C806 H800 0.930 . S
C806 C807 1.355 . S
C806 C808 1.415 . S
C807 C806 1.355 . S
C807 C809 1.419 1_545 S
C808 C806 1.415 . S
C808 C813 1.425 1_545 S
C808 C815 1.409 . S
C809 H801 0.930 . S
C809 C807 1.419 1_565 S
C809 C810 1.362 . S
C810 H802 0.930 . S
C810 C809 1.362 . S
C810 C813 1.409 . S
C811 H803 0.930 . S
C811 C812 1.355 . S
C811 C813 1.415 . S
C812 C811 1.355 . S
C812 C814 1.419 1_565 S
C813 C808 1.425 1_565 S
C813 C810 1.409 . S
C813 C811 1.415 . S
C814 H804 0.930 . S
C814 C812 1.419 1_545 S
C814 C815 1.362 . S
C815 H805 0.930 . S
C815 C808 1.409 . S
C815 C814 1.362 . S
H816 C822 0.930 . S
H817 C825 0.930 . S
H818 C826 0.930 . S
H819 C827 0.930 . S
H820 C830 0.930 . S
H821 C831 0.930 . S
C822 H816 0.930 . S
C822 C823 1.355 . S
C822 C824 1.415 . S
C823 C822 1.355 . S
C823 C825 1.419 1_545 S
C824 C822 1.415 . S
C824 C829 1.425 1_545 S
C824 C831 1.409 . S
C825 H817 0.930 . S
C825 C823 1.419 1_565 S
C825 C826 1.362 . S
C826 H818 0.930 . S
C826 C825 1.362 . S
C826 C829 1.409 . S
C827 H819 0.930 . S
C827 C828 1.355 . S
C827 C829 1.415 . S
C828 C827 1.355 . S
C828 C830 1.419 1_565 S
C829 C824 1.425 1_565 S
C829 C826 1.409 . S
C829 C827 1.415 . S
C830 H820 0.930 . S
C830 C828 1.419 1_545 S
C830 C831 1.362 . S
C831 H821 0.930 . S
C831 C824 1.409 . S
C831 C830 1.362 . S
H832 C838 0.930 . S
H833 C841 0.930 . S
H834 C842 0.930 . S
H835 C843 0.930 . S
H836 C846 0.930 . S
H837 C847 0.930 . S
C838 H832 0.930 . S
C838 C839 1.355 . S
C838 C840 1.415 . S
C839 C838 1.355 . S
C839 C841 1.419 . S
C840 C838 1.415 . S
C840 C845 1.425 . S
C840 C847 1.409 . S
C841 H833 0.930 . S
C841 C839 1.419 . S
C841 C842 1.362 . S
C842 H834 0.930 . S
C842 C841 1.362 . S
C842 C845 1.409 . S
C843 H835 0.930 . S
C843 C844 1.355 . S
C843 C845 1.415 . S
C844 C843 1.355 . S
C844 C846 1.419 . S
C845 C840 1.425 . S
C845 C842 1.409 . S
C845 C843 1.415 . S
C846 H836 0.930 . S
C846 C844 1.419 . S
C846 C847 1.362 . S
C847 H837 0.930 . S
C847 C840 1.409 . S
C847 C846 1.362 . S
H848 C854 0.930 . S
H849 C857 0.930 . S
H850 C858 0.930 . S
H851 C859 0.930 . S
H852 C862 0.930 . S
H853 C863 0.930 . S
C854 H848 0.930 . S
C854 C855 1.355 . S
C854 C856 1.415 . S
C855 C854 1.355 . S
C855 C857 1.419 . S
C856 C854 1.415 . S
C856 C861 1.425 . S
C856 C863 1.409 . S
C857 H849 0.930 . S
C857 C855 1.419 . S
C857 C858 1.362 . S
C858 H850 0.930 . S
C858 C857 1.362 . S
C858 C861 1.409 . S
C859 H851 0.930 . S
C859 C860 1.355 . S
C859 C861 1.415 . S
C860 C859 1.355 . S
C860 C862 1.419 . S
C861 C856 1.425 . S
C861 C858 1.409 . S
C861 C859 1.415 . S
C862 H852 0.930 . S
C862 C860 1.419 . S
C862 C863 1.362 . S
C863 H853 0.930 . S
C863 C856 1.409 . S
C863 C862 1.362 . S
H864 C870 0.930 . S
H865 C873 0.930 . S
H866 C874 0.930 . S
H867 C875 0.930 . S
H868 C878 0.930 . S
H869 C879 0.930 . S
C870 H864 0.930 . S
C870 C871 1.355 . S
C870 C872 1.415 . S
C871 C870 1.355 . S
C871 C873 1.419 . S
C872 C870 1.415 . S
C872 C877 1.425 . S
C872 C879 1.409 . S
C873 H865 0.930 . S
C873 C871 1.419 . S
C873 C874 1.362 . S
C874 H866 0.930 . S
C874 C873 1.362 . S
C874 C877 1.409 . S
C875 H867 0.930 . S
C875 C876 1.355 . S
C875 C877 1.415 . S
C876 C875 1.355 . S
C876 C878 1.419 . S
C877 C872 1.425 . S
C877 C874 1.409 . S
C877 C875 1.415 . S
C878 H868 0.930 . S
C878 C876 1.419 . S
C878 C879 1.362 . S
C879 H869 0.930 . S
C879 C872 1.409 . S
C879 C878 1.362 . S
H880 C886 0.930 . S
H881 C889 0.930 . S
H882 C890 0.930 . S
H883 C891 0.930 . S
H884 C894 0.930 . S
H885 C895 0.930 . S
C886 H880 0.930 . S
C886 C887 1.355 . S
C886 C888 1.415 . S
C887 C886 1.355 . S
C887 C889 1.419 . S
C888 C886 1.415 . S
C888 C893 1.425 . S
C888 C895 1.409 . S
C889 H881 0.930 . S
C889 C887 1.419 . S
C889 C890 1.362 . S
C890 H882 0.930 . S
C890 C889 1.362 . S
C890 C893 1.409 . S
C891 H883 0.930 . S
C891 C892 1.355 . S
C891 C893 1.415 . S
C892 C891 1.355 . S
C892 C894 1.419 . S
C893 C888 1.425 . S
C893 C890 1.409 . S
C893 C891 1.415 . S
C894 H884 0.930 . S
C894 C892 1.419 . S
C894 C895 1.362 . S
C895 H885 0.930 . S
C895 C888 1.409 . S
C895 C894 1.362 . S
H896 C902 0.930 . S
H897 C905 0.930 . S
H898 C906 0.930 . S
H899 C907 0.930 . S
H900 C910 0.930 . S
H901 C911 0.930 . S
C902 H896 0.930 . S
C902 C903 1.355 . S
C902 C904 1.415 . S
C903 C902 1.355 . S
C903 C905 1.419 . S
C904 C902 1.415 . S
C904 C909 1.425 1_556 S
C904 C911 1.409 1_556 S
C905 H897 0.930 . S
C905 C903 1.419 . S
C905 C906 1.362 . S
C906 H898 0.930 . S
C906 C905 1.362 . S
C906 C909 1.409 1_556 S
C907 H899 0.930 . S
C907 C908 1.355 . S
C907 C909 1.415 . S
C908 C907 1.355 . S
C908 C910 1.419 . S
C909 C904 1.425 1_554 S
C909 C906 1.409 1_554 S
C909 C907 1.415 . S
C910 H900 0.930 . S
C910 C908 1.419 . S
C910 C911 1.362 . S
C911 H901 0.930 . S
C911 C904 1.409 1_554 S
C911 C910 1.362 . S
H912 C918 0.930 . S
H913 C921 0.930 . S
H914 C922 0.930 . S
H915 C923 0.930 . S
H916 C926 0.930 . S
H917 C927 0.930 . S
C918 H912 0.930 . S
C918 C919 1.355 . S
C918 C920 1.415 . S
C919 C918 1.355 . S
C919 C921 1.419 . S
C920 C918 1.415 . S
C920 C925 1.425 1_556 S
C920 C927 1.409 1_556 S
C921 H913 0.930 . S
C921 C919 1.419 . S
C921 C922 1.362 . S
C922 H914 0.930 . S
C922 C921 1.362 . S
C922 C925 1.409 1_556 S
C923 H915 0.930 . S
C923 C924 1.355 . S
C923 C925 1.415 . S
C924 C923 1.355 . S
C924 C926 1.419 . S
C925 C920 1.425 1_554 S
C925 C922 1.409 1_554 S
C925 C923 1.415 . S
C926 H916 0.930 . S
C926 C924 1.419 . S
C926 C927 1.362 . S
C927 H917 0.930 . S
C927 C920 1.409 1_554 S
C927 C926 1.362 . S
H928 C934 0.930 . S
H929 C937 0.930 . S
H930 C938 0.930 . S
H931 C939 0.930 . S
H932 C942 0.930 . S
H933 C943 0.930 . S
C934 H928 0.930 . S
C934 C935 1.355 . S
C934 C936 1.415 . S
C935 C934 1.355 . S
C935 C937 1.419 . S
C936 C934 1.415 . S
C936 C941 1.425 . S
C936 C943 1.409 . S
C937 H929 0.930 . S
C937 C935 1.419 . S
C937 C938 1.362 . S
C938 H930 0.930 . S
C938 C937 1.362 . S
C938 C941 1.409 . S
C939 H931 0.930 . S
C939 C940 1.355 . S
C939 C941 1.415 . S
C940 C939 1.355 . S
C940 C942 1.419 . S
C941 C936 1.425 . S
C941 C938 1.409 . S
C941 C939 1.415 . S
C942 H932 0.930 . S
C942 C940 1.419 . S
C942 C943 1.362 . S
C943 H933 0.930 . S
C943 C936 1.409 . S
C943 C942 1.362 . S
H944 C950 0.930 . S
H945 C953 0.930 . S
H946 C954 0.930 . S
H947 C955 0.930 . S
H948 C958 0.930 . S
H949 C959 0.930 . S
C950 H944 0.930 . S
C950 C951 1.355 . S
C950 C952 1.415 . S
C951 C950 1.355 . S
C951 C953 1.419 . S
C952 C950 1.415 . S
C952 C957 1.425 . S
C952 C959 1.409 . S
C953 H945 0.930 . S
C953 C951 1.419 . S
C953 C954 1.362 . S
C954 H946 0.930 . S
C954 C953 1.362 . S
C954 C957 1.409 . S
C955 H947 0.930 . S
C955 C956 1.355 . S
C955 C957 1.415 . S
C956 C955 1.355 . S
C956 C958 1.419 . S
C957 C952 1.425 . S
C957 C954 1.409 . S
C957 C955 1.415 . S
C958 H948 0.930 . S
C958 C956 1.419 . S
C958 C959 1.362 . S
C959 H949 0.930 . S
C959 C952 1.409 . S
C959 C958 1.362 . S
H960 C966 0.930 . S
H961 C969 0.930 . S
H962 C970 0.930 . S
H963 C971 0.930 . S
H964 C974 0.930 . S
H965 C975 0.930 . S
C966 H960 0.930 . S
C966 C967 1.355 . S
C966 C968 1.415 . S
C967 C966 1.355 . S
C967 C969 1.419 . S
C968 C966 1.415 . S
C968 C973 1.425 1_554 S
C968 C975 1.409 1_554 S
C969 H961 0.930 . S
C969 C967 1.419 . S
C969 C970 1.362 . S
C970 H962 0.930 . S
C970 C969 1.362 . S
C970 C973 1.409 1_554 S
C971 H963 0.930 . S
C971 C972 1.355 . S
C971 C973 1.415 . S
C972 C971 1.355 . S
C972 C974 1.419 . S
C973 C968 1.425 1_556 S
C973 C970 1.409 1_556 S
C973 C971 1.415 . S
C974 H964 0.930 . S
C974 C972 1.419 . S
C974 C975 1.362 . S
C975 H965 0.930 . S
C975 C968 1.409 1_556 S
C975 C974 1.362 . S
H976 C982 0.930 . S
H977 C985 0.930 . S
H978 C986 0.930 . S
H979 C987 0.930 . S
H980 C990 0.930 . S
H981 C991 0.930 . S
C982 H976 0.930 . S
C982 C983 1.355 . S
C982 C984 1.415 . S
C983 C982 1.355 . S
C983 C985 1.419 . S
C984 C982 1.415 . S
C984 C989 1.425 1_556 S
C984 C991 1.409 1_556 S
C985 H977 0.930 . S
C985 C983 1.419 . S
C985 C986 1.362 . S
C986 H978 0.930 . S
C986 C985 1.362 . S
C986 C989 1.409 1_556 S
C987 H979 0.930 . S
C987 C988 1.355 . S
C987 C989 1.415 . S
C988 C987 1.355 . S
C988 C990 1.419 . S
C989 C984 1.425 1_554 S
C989 C986 1.409 1_554 S
C989 C987 1.415 . S
C990 H980 0.930 . S
C990 C988 1.419 . S
C990 C991 1.362 . S
C991 H981 0.930 . S
C991 C984 1.409 1_554 S
C991 C990 1.362 . S
H992 C998 0.930 . S
H993 C1001 0.930 . S
H994 C1002 0.930 . S
H995 C1003 0.930 . S
H996 C1006 0.930 . S
H997 C1007 0.930 . S
C998 H992 0.930 . S
C998 C999 1.355 . S
C998 C1000 1.415 . S
C999 C998 1.355 . S
C999 C1001 1.419 . S
C1000 C998 1.415 . S
C1000 C1005 1.425 . S
C1000 C1007 1.409 . S
C1001 H993 0.930 . S
C1001 C999 1.419 . S
C1001 C1002 1.362 . S
C1002 H994 0.930 . S
C1002 C1001 1.362 . S
C1002 C1005 1.409 . S
C1003 H995 0.930 . S
C1003 C1004 1.355 . S
C1003 C1005 1.415 . S
C1004 C1003 1.355 . S
C1004 C1006 1.419 . S
C1005 C1000 1.425 . S
C1005 C1002 1.409 . S
C1005 C1003 1.415 . S
C1006 H996 0.930 . S
C1006 C1004 1.419 . S
C1006 C1007 1.362 . S
C1007 H997 0.930 . S
C1007 C1000 1.409 . S
C1007 C1006 1.362 . S
H1008 C1014 0.930 . S
H1009 C1017 0.930 . S
H1010 C1018 0.930 . S
H1011 C1019 0.930 . S
H1012 C1022 0.930 . S
H1013 C1023 0.930 . S
C1014 H1008 0.930 . S
C1014 C1015 1.355 . S
C1014 C1016 1.415 . S
C1015 C1014 1.355 . S
C1015 C1017 1.419 . S
C1016 C1014 1.415 . S
C1016 C1021 1.425 . S
C1016 C1023 1.409 . S
C1017 H1009 0.930 . S
C1017 C1015 1.419 . S
C1017 C1018 1.362 . S
C1018 H1010 0.930 . S
C1018 C1017 1.362 . S
C1018 C1021 1.409 . S
C1019 H1011 0.930 . S
C1019 C1020 1.355 . S
C1019 C1021 1.415 . S
C1020 C1019 1.355 . S
C1020 C1022 1.419 . S
C1021 C1016 1.425 . S
C1021 C1018 1.409 . S
C1021 C1019 1.415 . S
C1022 H1012 0.930 . S
C1022 C1020 1.419 . S
C1022 C1023 1.362 . S
C1023 H1013 0.930 . S
C1023 C1016 1.409 . S
C1023 C1022 1.362 . S
H1024 C1030 0.930 . S
H1025 C1033 0.930 . S
H1026 C1034 0.930 . S
H1027 C1035 0.930 . S
H1028 C1038 0.930 . S
H1029 C1039 0.930 . S
C1030 H1024 0.930 . S
C1030 C1031 1.355 1_545 S
C1030 C1032 1.415 . S
C1031 C1030 1.355 1_565 S
C1031 C1033 1.419 . S
C1032 C1030 1.415 . S
C1032 C1037 1.425 1_645 S
C1032 C1039 1.409 1_655 S
C1033 H1025 0.930 . S
C1033 C1031 1.419 . S
C1033 C1034 1.362 . S
C1034 H1026 0.930 . S
C1034 C1033 1.362 . S
C1034 C1037 1.409 1_655 S
C1035 H1027 0.930 . S
C1035 C1036 1.355 1_565 S
C1035 C1037 1.415 . S
C1036 C1035 1.355 1_545 S
C1036 C1038 1.419 . S
C1037 C1032 1.425 1_465 S
C1037 C1034 1.409 1_455 S
C1037 C1035 1.415 . S
C1038 H1028 0.930 . S
C1038 C1036 1.419 . S
C1038 C1039 1.362 . S
C1039 H1029 0.930 . S
C1039 C1032 1.409 1_455 S
C1039 C1038 1.362 . S
H1040 C1046 0.930 . S
H1041 C1049 0.930 . S
H1042 C1050 0.939 . S
H1043 C1051 0.930 . S
H1044 C1054 0.930 . S
H1045 C1055 0.939 . S
C1046 H1040 0.930 . S
C1046 C1047 1.355 1_565 S
C1046 C1048 1.415 . S
C1047 C1046 1.355 1_545 S
C1047 C1049 1.419 . S
C1048 C1046 1.415 . S
C1048 C1053 1.425 1_665 S
C1048 C1055 1.409 1_655 S
C1049 H1041 0.930 . S
C1049 C1047 1.419 . S
C1049 C1050 1.362 . S
C1050 H1042 0.939 . S
C1050 C1049 1.362 . S
C1050 C1053 1.409 1_655 S
C1051 H1043 0.930 . S
C1051 C1052 1.355 1_545 S
C1051 C1053 1.415 . S
C1052 C1051 1.355 1_565 S
C1052 C1054 1.419 . S
C1053 C1048 1.425 1_445 S
C1053 C1050 1.409 1_455 S
C1053 C1051 1.415 . S
C1054 H1044 0.930 . S
C1054 C1052 1.419 . S
C1054 C1055 1.362 . S
C1055 H1045 0.939 . S
C1055 C1048 1.409 1_455 S
C1055 C1054 1.362 . S
H1056 C1062 0.930 . S
H1057 C1065 0.930 . S
H1058 C1066 0.947 . S
H1059 C1067 0.930 . S
H1060 C1070 0.930 . S
H1061 C1071 0.947 . S
C1062 H1056 0.930 . S
C1062 C1063 1.355 1_565 S
C1062 C1064 1.415 . S
C1063 C1062 1.355 1_545 S
C1063 C1065 1.419 . S
C1064 C1062 1.415 . S
C1064 C1069 1.425 1_465 S
C1064 C1071 1.409 1_455 S
C1065 H1057 0.930 . S
C1065 C1063 1.419 . S
C1065 C1066 1.362 . S
C1066 H1058 0.947 . S
C1066 C1065 1.362 . S
C1066 C1069 1.409 1_455 S
C1067 H1059 0.930 . S
C1067 C1068 1.355 1_545 S
C1067 C1069 1.415 . S
C1068 C1067 1.355 1_565 S
C1068 C1070 1.419 . S
C1069 C1064 1.425 1_645 S
C1069 C1066 1.409 1_655 S
C1069 C1067 1.415 . S
C1070 H1060 0.930 . S
C1070 C1068 1.419 . S
C1070 C1071 1.362 . S
C1071 H1061 0.947 . S
C1071 C1064 1.409 1_655 S
C1071 C1070 1.362 . S
H1072 C1078 0.930 . S
H1073 C1081 0.930 . S
H1074 C1082 0.930 . S
H1075 C1083 0.930 . S
H1076 C1086 0.930 . S
H1077 C1087 0.930 . S
C1078 H1072 0.930 . S
C1078 C1079 1.355 . S
C1078 C1080 1.415 . S
C1079 C1078 1.355 . S
C1079 C1081 1.419 1_545 S
C1080 C1078 1.415 . S
C1080 C1085 1.425 1_645 S
C1080 C1087 1.409 1_655 S
C1081 H1073 0.930 . S
C1081 C1079 1.419 1_565 S
C1081 C1082 1.362 . S
C1082 H1074 0.930 . S
C1082 C1081 1.362 . S
C1082 C1085 1.409 1_655 S
C1083 H1075 0.930 . S
C1083 C1084 1.355 . S
C1083 C1085 1.415 . S
C1084 C1083 1.355 . S
C1084 C1086 1.419 1_565 S
C1085 C1080 1.425 1_465 S
C1085 C1082 1.409 1_455 S
C1085 C1083 1.415 . S
C1086 H1076 0.930 . S
C1086 C1084 1.419 1_545 S
C1086 C1087 1.362 . S
C1087 H1077 0.930 . S
C1087 C1080 1.409 1_455 S
C1087 C1086 1.362 . S
H1088 C1094 0.930 . S
H1089 C1097 0.930 . S
H1090 C1098 0.930 . S
H1091 C1099 0.930 . S
H1092 C1102 0.930 . S
H1093 C1103 0.930 . S
C1094 H1088 0.930 . S
C1094 C1095 1.355 . S
C1094 C1096 1.415 . S
C1095 C1094 1.355 . S
C1095 C1097 1.419 . S
C1096 C1094 1.415 . S
C1096 C1101 1.425 . S
C1096 C1103 1.409 . S
C1097 H1089 0.930 . S
C1097 C1095 1.419 . S
C1097 C1098 1.362 . S
C1098 H1090 0.930 . S
C1098 C1097 1.362 . S
C1098 C1101 1.409 . S
C1099 H1091 0.930 . S
C1099 C1100 1.355 . S
C1099 C1101 1.415 . S
C1100 C1099 1.355 . S
C1100 C1102 1.419 . S
C1101 C1096 1.425 . S
C1101 C1098 1.409 . S
C1101 C1099 1.415 . S
C1102 H1092 0.930 . S
C1102 C1100 1.419 . S
C1102 C1103 1.362 . S
C1103 H1093 0.930 . S
C1103 C1096 1.409 . S
C1103 C1102 1.362 . S
H1104 C1110 0.930 . S
H1105 C1113 0.930 . S
H1106 C1114 0.930 . S
H1107 C1115 0.930 . S
H1108 C1118 0.930 . S
H1109 C1119 0.930 . S
C1110 H1104 0.930 . S
C1110 C1111 1.355 . S
C1110 C1112 1.415 . S
C1111 C1110 1.355 . S
C1111 C1113 1.419 . S
C1112 C1110 1.415 . S
C1112 C1117 1.425 . S
C1112 C1119 1.409 . S
C1113 H1105 0.930 . S
C1113 C1111 1.419 . S
C1113 C1114 1.362 . S
C1114 H1106 0.930 . S
C1114 C1113 1.362 . S
C1114 C1117 1.409 . S
C1115 H1107 0.930 . S
C1115 C1116 1.355 . S
C1115 C1117 1.415 . S
C1116 C1115 1.355 . S
C1116 C1118 1.419 . S
C1117 C1112 1.425 . S
C1117 C1114 1.409 . S
C1117 C1115 1.415 . S
C1118 H1108 0.930 . S
C1118 C1116 1.419 . S
C1118 C1119 1.362 . S
C1119 H1109 0.930 . S
C1119 C1112 1.409 . S
C1119 C1118 1.362 . S
H1120 C1126 0.930 . S
H1121 C1129 0.930 . S
H1122 C1130 0.930 . S
H1123 C1131 0.930 . S
H1124 C1134 0.930 . S
H1125 C1135 0.930 . S
C1126 H1120 0.930 . S
C1126 C1127 1.355 . S
C1126 C1128 1.415 . S
C1127 C1126 1.355 . S
C1127 C1129 1.419 . S
C1128 C1126 1.415 . S
C1128 C1133 1.425 . S
C1128 C1135 1.409 . S
C1129 H1121 0.930 . S
C1129 C1127 1.419 . S
C1129 C1130 1.362 . S
C1130 H1122 0.930 . S
C1130 C1129 1.362 . S
C1130 C1133 1.409 . S
C1131 H1123 0.930 . S
C1131 C1132 1.355 . S
C1131 C1133 1.415 . S
C1132 C1131 1.355 . S
C1132 C1134 1.419 . S
C1133 C1128 1.425 . S
C1133 C1130 1.409 . S
C1133 C1131 1.415 . S
C1134 H1124 0.930 . S
C1134 C1132 1.419 . S
C1134 C1135 1.362 . S
C1135 H1125 0.930 . S
C1135 C1128 1.409 . S
C1135 C1134 1.362 . S
H1136 C1142 0.930 . S
H1137 C1145 0.930 . S
H1138 C1146 0.930 . S
H1139 C1147 0.930 . S
H1140 C1150 0.930 . S
H1141 C1151 0.930 . S
C1142 H1136 0.930 . S
C1142 C1143 1.355 . S
C1142 C1144 1.415 . S
C1143 C1142 1.355 . S
C1143 C1145 1.419 . S
C1144 C1142 1.415 . S
C1144 C1149 1.425 . S
C1144 C1151 1.409 . S
C1145 H1137 0.930 . S
C1145 C1143 1.419 . S
C1145 C1146 1.362 . S
C1146 H1138 0.930 . S
C1146 C1145 1.362 . S
C1146 C1149 1.409 . S
C1147 H1139 0.930 . S
C1147 C1148 1.355 . S
C1147 C1149 1.415 . S
C1148 C1147 1.355 . S
C1148 C1150 1.419 . S
C1149 C1144 1.425 . S
C1149 C1146 1.409 . S
C1149 C1147 1.415 . S
C1150 H1140 0.930 . S
C1150 C1148 1.419 . S
C1150 C1151 1.362 . S
C1151 H1141 0.930 . S
C1151 C1144 1.409 . S
C1151 C1150 1.362 . S
H1152 C1158 0.930 . S
H1153 C1161 0.930 . S
H1154 C1162 0.930 . S
H1155 C1163 0.930 . S
H1156 C1166 0.930 . S
H1157 C1167 0.930 . S
C1158 H1152 0.930 . S
C1158 C1159 1.355 . S
C1158 C1160 1.415 . S
C1159 C1158 1.355 . S
C1159 C1161 1.419 . S
C1160 C1158 1.415 . S
C1160 C1165 1.425 . S
C1160 C1167 1.409 . S
C1161 H1153 0.930 . S
C1161 C1159 1.419 . S
C1161 C1162 1.362 . S
C1162 H1154 0.930 . S
C1162 C1161 1.362 . S
C1162 C1165 1.409 . S
C1163 H1155 0.930 . S
C1163 C1164 1.355 . S
C1163 C1165 1.415 . S
C1164 C1163 1.355 . S
C1164 C1166 1.419 . S
C1165 C1160 1.425 . S
C1165 C1162 1.409 . S
C1165 C1163 1.415 . S
C1166 H1156 0.930 . S
C1166 C1164 1.419 . S
C1166 C1167 1.362 . S
C1167 H1157 0.930 . S
C1167 C1160 1.409 . S
C1167 C1166 1.362 . S
H1168 C1174 0.930 . S
H1169 C1177 0.930 . S
H1170 C1178 0.930 . S
H1171 C1179 0.930 . S
H1172 C1182 0.930 . S
H1173 C1183 0.930 . S
C1174 H1168 0.930 . S
C1174 C1175 1.355 . S
C1174 C1176 1.415 . S
C1175 C1174 1.355 . S
C1175 C1177 1.419 . S
C1176 C1174 1.415 . S
C1176 C1181 1.425 . S
C1176 C1183 1.409 . S
C1177 H1169 0.930 . S
C1177 C1175 1.419 . S
C1177 C1178 1.362 . S
C1178 H1170 0.930 . S
C1178 C1177 1.362 . S
C1178 C1181 1.409 . S
C1179 H1171 0.930 . S
C1179 C1180 1.355 . S
C1179 C1181 1.415 . S
C1180 C1179 1.355 . S
C1180 C1182 1.419 . S
C1181 C1176 1.425 . S
C1181 C1178 1.409 . S
C1181 C1179 1.415 . S
C1182 H1172 0.930 . S
C1182 C1180 1.419 . S
C1182 C1183 1.362 . S
C1183 H1173 0.930 . S
C1183 C1176 1.409 . S
C1183 C1182 1.362 . S
H1184 C1190 0.930 . S
H1185 C1193 0.930 . S
H1186 C1194 0.930 . S
H1187 C1195 0.930 . S
H1188 C1198 0.930 . S
H1189 C1199 0.930 . S
C1190 H1184 0.930 . S
C1190 C1191 1.355 . S
C1190 C1192 1.415 . S
C1191 C1190 1.355 . S
C1191 C1193 1.419 . S
C1192 C1190 1.415 . S
C1192 C1197 1.425 . S
C1192 C1199 1.409 . S
C1193 H1185 0.930 . S
C1193 C1191 1.419 . S
C1193 C1194 1.362 . S
C1194 H1186 0.930 . S
C1194 C1193 1.362 . S
C1194 C1197 1.409 . S
C1195 H1187 0.930 . S
C1195 C1196 1.355 . S
C1195 C1197 1.415 . S
C1196 C1195 1.355 . S
C1196 C1198 1.419 . S
C1197 C1192 1.425 . S
C1197 C1194 1.409 . S
C1197 C1195 1.415 . S
C1198 H1188 0.930 . S
C1198 C1196 1.419 . S
C1198 C1199 1.362 . S
C1199 H1189 0.930 . S
C1199 C1192 1.409 . S
C1199 C1198 1.362 . S
H1200 C1206 0.930 . S
H1201 C1209 0.930 . S
H1202 C1210 0.930 . S
H1203 C1211 0.930 . S
H1204 C1214 0.930 . S
H1205 C1215 0.930 . S
C1206 H1200 0.930 . S
C1206 C1207 1.355 . S
C1206 C1208 1.415 . S
C1207 C1206 1.355 . S
C1207 C1209 1.419 . S
C1208 C1206 1.415 . S
C1208 C1213 1.425 . S
C1208 C1215 1.409 . S
C1209 H1201 0.930 . S
C1209 C1207 1.419 . S
C1209 C1210 1.362 . S
C1210 H1202 0.930 . S
C1210 C1209 1.362 . S
C1210 C1213 1.409 . S
C1211 H1203 0.930 . S
C1211 C1212 1.355 . S
C1211 C1213 1.415 . S
C1212 C1211 1.355 . S
C1212 C1214 1.419 . S
C1213 C1208 1.425 . S
C1213 C1210 1.409 . S
C1213 C1211 1.415 . S
C1214 H1204 0.930 . S
C1214 C1212 1.419 . S
C1214 C1215 1.362 . S
C1215 H1205 0.930 . S
C1215 C1208 1.409 . S
C1215 C1214 1.362 . S
H1216 C1222 0.930 . S
H1217 C1225 0.930 . S
H1218 C1226 0.930 . S
H1219 C1227 0.930 . S
H1220 C1230 0.930 . S
H1221 C1231 0.930 . S
C1222 H1216 0.930 . S
C1222 C1223 1.355 . S
C1222 C1224 1.415 . S
C1223 C1222 1.355 . S
C1223 C1225 1.419 . S
C1224 C1222 1.415 . S
C1224 C1229 1.425 . S
C1224 C1231 1.409 . S
C1225 H1217 0.930 . S
C1225 C1223 1.419 . S
C1225 C1226 1.362 . S
C1226 H1218 0.930 . S
C1226 C1225 1.362 . S
C1226 C1229 1.409 . S
C1227 H1219 0.930 . S
C1227 C1228 1.355 . S
C1227 C1229 1.415 . S
C1228 C1227 1.355 . S
C1228 C1230 1.419 . S
C1229 C1224 1.425 . S
C1229 C1226 1.409 . S
C1229 C1227 1.415 . S
C1230 H1220 0.930 . S
C1230 C1228 1.419 . S
C1230 C1231 1.362 . S
C1231 H1221 0.930 . S
C1231 C1224 1.409 . S
C1231 C1230 1.362 . S
H1232 C1238 0.930 . S
H1233 C1241 0.930 . S
H1234 C1242 0.930 . S
H1235 C1243 0.930 . S
H1236 C1246 0.930 . S
H1237 C1247 0.930 . S
C1238 H1232 0.930 . S
C1238 C1239 1.355 . S
C1238 C1240 1.415 . S
C1239 C1238 1.355 . S
C1239 C1241 1.419 . S
C1240 C1238 1.415 . S
C1240 C1245 1.425 . S
C1240 C1247 1.409 . S
C1241 H1233 0.930 . S
C1241 C1239 1.419 . S
C1241 C1242 1.362 . S
C1242 H1234 0.930 . S
C1242 C1241 1.362 . S
C1242 C1245 1.409 . S
C1243 H1235 0.930 . S
C1243 C1244 1.355 . S
C1243 C1245 1.415 . S
C1244 C1243 1.355 . S
C1244 C1246 1.419 . S
C1245 C1240 1.425 . S
C1245 C1242 1.409 . S
C1245 C1243 1.415 . S
C1246 H1236 0.930 . S
C1246 C1244 1.419 . S
C1246 C1247 1.362 . S
C1247 H1237 0.930 . S
C1247 C1240 1.409 . S
C1247 C1246 1.362 . S
H1248 C1254 0.930 . S
H1249 C1257 0.930 . S
H1250 C1258 0.930 . S
H1251 C1259 0.930 . S
H1252 C1262 0.930 . S
H1253 C1263 0.930 . S
C1254 H1248 0.930 . S
C1254 C1255 1.355 . S
C1254 C1256 1.415 . S
C1255 C1254 1.355 . S
C1255 C1257 1.419 . S
C1256 C1254 1.415 . S
C1256 C1261 1.425 . S
C1256 C1263 1.409 . S
C1257 H1249 0.930 . S
C1257 C1255 1.419 . S
C1257 C1258 1.362 . S
C1258 H1250 0.930 . S
C1258 C1257 1.362 . S
C1258 C1261 1.409 . S
C1259 H1251 0.930 . S
C1259 C1260 1.355 . S
C1259 C1261 1.415 . S
C1260 C1259 1.355 . S
C1260 C1262 1.419 . S
C1261 C1256 1.425 . S
C1261 C1258 1.409 . S
C1261 C1259 1.415 . S
C1262 H1252 0.930 . S
C1262 C1260 1.419 . S
C1262 C1263 1.362 . S
C1263 H1253 0.930 . S
C1263 C1256 1.409 . S
C1263 C1262 1.362 . S
H1264 C1270 0.930 . S
H1265 C1273 0.930 . S
H1266 C1274 0.930 . S
H1267 C1275 0.930 . S
H1268 C1278 0.930 . S
H1269 C1279 0.930 . S
C1270 H1264 0.930 . S
C1270 C1271 1.355 . S
C1270 C1272 1.415 . S
C1271 C1270 1.355 . S
C1271 C1273 1.419 . S
C1272 C1270 1.415 . S
C1272 C1277 1.425 . S
C1272 C1279 1.409 . S
C1273 H1265 0.930 . S
C1273 C1271 1.419 . S
C1273 C1274 1.362 . S
C1274 H1266 0.930 . S
C1274 C1273 1.362 . S
C1274 C1277 1.409 . S
C1275 H1267 0.930 . S
C1275 C1276 1.355 . S
C1275 C1277 1.415 . S
C1276 C1275 1.355 . S
C1276 C1278 1.419 . S
C1277 C1272 1.425 . S
C1277 C1274 1.409 . S
C1277 C1275 1.415 . S
C1278 H1268 0.930 . S
C1278 C1276 1.419 . S
C1278 C1279 1.362 . S
C1279 H1269 0.930 . S
C1279 C1272 1.409 . S
C1279 C1278 1.362 . S
H1280 C1286 0.930 . S
H1281 C1289 0.930 . S
H1282 C1290 0.930 . S
H1283 C1291 0.930 . S
H1284 C1294 0.930 . S
H1285 C1295 0.930 . S
C1286 H1280 0.930 . S
C1286 C1287 1.355 1_545 S
C1286 C1288 1.415 . S
C1287 C1286 1.355 1_565 S
C1287 C1289 1.419 1_565 S
C1288 C1286 1.415 . S
C1288 C1293 1.425 . S
C1288 C1295 1.409 . S
C1289 H1281 0.930 . S
C1289 C1287 1.419 1_545 S
C1289 C1290 1.362 . S
C1290 H1282 0.930 . S
C1290 C1289 1.362 . S
C1290 C1293 1.409 . S
C1291 H1283 0.930 . S
C1291 C1292 1.355 . S
C1291 C1293 1.415 . S
C1292 C1291 1.355 . S
C1292 C1294 1.419 . S
C1293 C1288 1.425 . S
C1293 C1290 1.409 . S
C1293 C1291 1.415 . S
C1294 H1284 0.930 . S
C1294 C1292 1.419 . S
C1294 C1295 1.362 . S
C1295 H1285 0.930 . S
C1295 C1288 1.409 . S
C1295 C1294 1.362 . S
H1296 C1302 0.930 . S
H1297 C1305 0.930 . S
H1298 C1306 0.930 . S
H1299 C1307 0.930 . S
H1300 C1310 0.930 . S
H1301 C1311 0.930 . S
C1302 H1296 0.930 . S
C1302 C1303 1.355 . S
C1302 C1304 1.415 . S
C1303 C1302 1.355 . S
C1303 C1305 1.419 . S
C1304 C1302 1.415 . S
C1304 C1309 1.425 . S
C1304 C1311 1.409 . S
C1305 H1297 0.930 . S
C1305 C1303 1.419 . S
C1305 C1306 1.362 . S
C1306 H1298 0.930 . S
C1306 C1305 1.362 . S
C1306 C1309 1.409 . S
C1307 H1299 0.930 . S
C1307 C1308 1.355 1_565 S
C1307 C1309 1.415 . S
C1308 C1307 1.355 1_545 S
C1308 C1310 1.419 1_545 S
C1309 C1304 1.425 . S
C1309 C1306 1.409 . S
C1309 C1307 1.415 . S
C1310 H1300 0.930 . S
C1310 C1308 1.419 1_565 S
C1310 C1311 1.362 . S
C1311 H1301 0.930 . S
C1311 C1304 1.409 . S
C1311 C1310 1.362 . S
H1312 C1318 0.930 . S
H1313 C1321 0.930 1_545 S
H1314 C1322 0.930 . S
H1315 C1323 0.930 . S
H1316 C1326 0.930 . S
H1317 C1327 0.930 . S
C1318 H1312 0.930 . S
C1318 C1319 1.355 1_565 S
C1318 C1320 1.415 . S
C1319 C1318 1.355 1_545 S
C1319 C1321 1.419 1_545 S
C1320 C1318 1.415 . S
C1320 C1325 1.425 . S
C1320 C1327 1.409 . S
C1321 H1313 0.930 1_565 S
C1321 C1319 1.419 1_565 S
C1321 C1322 1.362 . S
C1322 H1314 0.930 . S
C1322 C1321 1.362 . S
C1322 C1325 1.409 . S
C1323 H1315 0.930 . S
C1323 C1324 1.355 . S
C1323 C1325 1.415 . S
C1324 C1323 1.355 . S
C1324 C1326 1.419 . S
C1325 C1320 1.425 . S
C1325 C1322 1.409 . S
C1325 C1323 1.415 . S
C1326 H1316 0.930 . S
C1326 C1324 1.419 . S
C1326 C1327 1.362 . S
C1327 H1317 0.930 . S
C1327 C1320 1.409 . S
C1327 C1326 1.362 . S
H1328 C1334 0.930 . S
H1329 C1337 0.930 1_565 S
H1330 C1338 0.930 . S
H1331 C1339 0.930 . S
H1332 C1342 0.930 . S
H1333 C1343 0.930 . S
C1334 H1328 0.930 . S
C1334 C1335 1.355 1_545 S
C1334 C1336 1.415 . S
C1335 C1334 1.355 1_565 S
C1335 C1337 1.419 1_565 S
C1336 C1334 1.415 . S
C1336 C1341 1.425 . S
C1336 C1343 1.409 . S
C1337 H1329 0.930 1_545 S
C1337 C1335 1.419 1_545 S
C1337 C1338 1.362 . S
C1338 H1330 0.930 . S
C1338 C1337 1.362 . S
C1338 C1341 1.409 . S
C1339 H1331 0.930 . S
C1339 C1340 1.355 . S
C1339 C1341 1.415 . S
C1340 C1339 1.355 . S
C1340 C1342 1.419 . S
C1341 C1336 1.425 . S
C1341 C1338 1.409 . S
C1341 C1339 1.415 . S
C1342 H1332 0.930 . S
C1342 C1340 1.419 . S
C1342 C1343 1.362 . S
C1343 H1333 0.930 . S
C1343 C1336 1.409 . S
C1343 C1342 1.362 . S
H1344 C1350 0.930 . S
H1345 C1353 0.930 . S
H1346 C1354 0.930 . S
H1347 C1355 0.930 . S
H1348 C1358 0.930 1_545 S
H1349 C1359 0.930 . S
C1350 H1344 0.930 . S
C1350 C1351 1.355 . S
C1350 C1352 1.415 . S
C1351 C1350 1.355 . S
C1351 C1353 1.419 . S
C1352 C1350 1.415 . S
C1352 C1357 1.425 . S
C1352 C1359 1.409 . S
C1353 H1345 0.930 . S
C1353 C1351 1.419 . S
C1353 C1354 1.362 . S
C1354 H1346 0.930 . S
C1354 C1353 1.362 . S
C1354 C1357 1.409 . S
C1355 H1347 0.930 . S
C1355 C1356 1.355 1_565 S
C1355 C1357 1.415 . S
C1356 C1355 1.355 1_545 S
C1356 C1358 1.419 1_545 S
C1357 C1352 1.425 . S
C1357 C1354 1.409 . S
C1357 C1355 1.415 . S
C1358 H1348 0.930 1_565 S
C1358 C1356 1.419 1_565 S
C1358 C1359 1.362 . S
C1359 H1349 0.930 . S
C1359 C1352 1.409 . S
C1359 C1358 1.362 . S
H1360 C1366 0.930 . S
H1361 C1369 0.930 . S
H1362 C1370 0.930 . S
H1363 C1371 0.930 . S
H1364 C1374 0.930 . S
H1365 C1375 0.930 . S
C1366 H1360 0.930 . S
C1366 C1367 1.355 . S
C1366 C1368 1.415 . S
C1367 C1366 1.355 . S
C1367 C1369 1.419 . S
C1368 C1366 1.415 . S
C1368 C1373 1.425 . S
C1368 C1375 1.409 . S
C1369 H1361 0.930 . S
C1369 C1367 1.419 . S
C1369 C1370 1.362 . S
C1370 H1362 0.930 . S
C1370 C1369 1.362 . S
C1370 C1373 1.409 . S
C1371 H1363 0.930 . S
C1371 C1372 1.355 1_545 S
C1371 C1373 1.415 . S
C1372 C1371 1.355 1_565 S
C1372 C1374 1.419 1_565 S
C1373 C1368 1.425 . S
C1373 C1370 1.409 . S
C1373 C1371 1.415 . S
C1374 H1364 0.930 . S
C1374 C1372 1.419 1_545 S
C1374 C1375 1.362 . S
C1375 H1365 0.930 . S
C1375 C1368 1.409 . S
C1375 C1374 1.362 . S
H1376 C1382 0.930 . S
H1377 C1385 0.930 . S
H1378 C1386 0.930 . S
H1379 C1387 0.930 . S
H1380 C1390 0.930 . S
H1381 C1391 0.930 . S
C1382 H1376 0.930 . S
C1382 C1383 1.355 1_545 S
C1382 C1384 1.415 . S
C1383 C1382 1.355 1_565 S
C1383 C1385 1.419 1_565 S
C1384 C1382 1.415 . S
C1384 C1389 1.425 . S
C1384 C1391 1.409 . S
C1385 H1377 0.930 . S
C1385 C1383 1.419 1_545 S
C1385 C1386 1.362 . S
C1386 H1378 0.930 . S
C1386 C1385 1.362 . S
C1386 C1389 1.409 . S
C1387 H1379 0.930 . S
C1387 C1388 1.355 . S
C1387 C1389 1.415 . S
C1388 C1387 1.355 . S
C1388 C1390 1.419 . S
C1389 C1384 1.425 . S
C1389 C1386 1.409 . S
C1389 C1387 1.415 . S
C1390 H1380 0.930 . S
C1390 C1388 1.419 . S
C1390 C1391 1.362 . S
C1391 H1381 0.930 . S
C1391 C1384 1.409 . S
C1391 C1390 1.362 . S
H1392 C1398 0.930 . S
H1393 C1401 0.930 . S
H1394 C1402 0.930 . S
H1395 C1403 0.930 . S
H1396 C1406 0.930 1_545 S
H1397 C1407 0.930 . S
C1398 H1392 0.930 . S
C1398 C1399 1.355 . S
C1398 C1400 1.415 . S
C1399 C1398 1.355 . S
C1399 C1401 1.419 . S
C1400 C1398 1.415 . S
C1400 C1405 1.425 . S
C1400 C1407 1.409 . S
C1401 H1393 0.930 . S
C1401 C1399 1.419 . S
C1401 C1402 1.362 . S
C1402 H1394 0.930 . S
C1402 C1401 1.362 . S
C1402 C1405 1.409 . S
C1403 H1395 0.930 . S
C1403 C1404 1.355 1_565 S
C1403 C1405 1.415 . S
C1404 C1403 1.355 1_545 S
C1404 C1406 1.419 1_545 S
C1405 C1400 1.425 . S
C1405 C1402 1.409 . S
C1405 C1403 1.415 . S
C1406 H1396 0.930 1_565 S
C1406 C1404 1.419 1_565 S
C1406 C1407 1.362 . S
C1407 H1397 0.930 . S
C1407 C1400 1.409 . S
C1407 C1406 1.362 . S
C647 C11 1.541 . S
C652 C371 1.553 . S
C663 C51 1.541 . S
C668 C331 1.552 . S
C679 C451 1.550 . S
C684 C91 1.552 . S
C695 C131 1.554 . S
C700 C411 1.548 . S
C711 C522 1.547 . S
C716 C162 1.546 . S
C727 C482 1.550 . S
C732 C202 1.543 . S
C743 C602 1.541 . S
C748 C242 1.553 . S
C759 C282 1.556 . S
C764 C562 1.540 . S
C775 C99 1.696 . S
C780 C19 1.708 . S
C791 C139 1.714 . S
C796 C59 1.692 . S
C807 C250 1.702 . S
C812 C170 1.707 . S
C823 C210 1.702 . S
C828 C290 1.707 . S
C839 C419 1.692 . S
C844 C339 1.713 . S
C855 C459 1.714 . S
C860 C379 1.693 . S
C871 C490 1.703 . S
C876 C570 1.706 . S
C887 C530 1.714 . S
C892 C610 1.694 . S
C903 C219 1.500 . S
C908 C10 1.554 . S
C919 C179 1.555 . S
C924 C50 1.500 . S
C935 C90 1.559 . S
C940 C299 1.496 . S
C951 C259 1.489 . S
C956 C130 1.565 . S
C967 C330 1.512 . S
C972 C539 1.543 . S
C983 C499 1.505 . S
C988 C370 1.550 . S
C999 C410 1.562 . S
C1004 C619 1.492 . S
C1015 C579 1.492 . S
C1020 C450 1.563 . S
C1031 C42 1.602 . S
C1036 C2 1.590 . S
C1047 C122 1.587 . S
C1052 C82 1.588 . S
C1063 C211 1.587 . S
C1068 C171 1.588 . S
C1079 C251 1.645 . S
C1084 C291 1.648 . S
C1095 C362 1.644 . S
C1100 C322 1.648 . S
C1111 C442 1.587 . S
C1116 C402 1.595 . S
C1127 C491 1.593 . S
C1132 C531 1.586 . S
C1143 C571 1.596 . S
C1148 C611 1.587 . S
C1159 C7 1.598 . S
C1164 C16 1.598 . S
C1175 C47 1.588 . S
C1180 C56 1.588 . S
C1191 C87 1.573 . S
C1196 C96 1.573 . S
C1207 C136 1.556 . S
C1212 C127 1.556 . S
C1223 C176 1.581 . S
C1228 C167 1.581 . S
C1239 C207 1.556 . S
C1244 C216 1.556 . S
C1255 C256 1.590 . S
C1260 C247 1.590 . S
C1271 C296 1.559 . S
C1276 C287 1.559 . S
C1287 C336 1.588 . S
C1292 C327 1.588 . S
C1303 C367 1.601 . S
C1308 C376 1.601 . S
C1319 C416 1.593 . S
C1324 C407 1.593 . S
C1335 C456 1.559 . S
C1340 C447 1.559 . S
C1351 C496 1.563 . S
C1356 C487 1.563 . S
C1367 C536 1.584 . S
C1372 C527 1.584 . S
C1383 C567 1.599 . S
C1388 C576 1.599 . S
C1399 C616 1.594 . S
C1404 C607 1.594 . S
