# Generated by pormake.
# Topology whk, (6)-cn, num edge types: 1
# Building blocks:
#     Node 0, Type 0, BuildingBlock: PAMTUU_clean_sbu_0, # of connection points: 6
#     Node 1, Type 0, BuildingBlock: PAMTUU_clean_sbu_0, # of connection points: 6
#     Node 2, Type 0, BuildingBlock: PAMTUU_clean_sbu_0, # of connection points: 6
#     Node 3, Type 0, BuildingBlock: PAMTUU_clean_sbu_0, # of connection points: 6
#     Node 4, Type 0, BuildingBlock: PAMTUU_clean_sbu_0, # of connection points: 6
#     Node 5, Type 0, BuildingBlock: PAMTUU_clean_sbu_0, # of connection points: 6
#     Node 6, Type 0, BuildingBlock: PAMTUU_clean_sbu_0, # of connection points: 6
#     Node 7, Type 0, BuildingBlock: PAMTUU_clean_sbu_0, # of connection points: 6
#     Node 8, Type 0, BuildingBlock: PAMTUU_clean_sbu_0, # of connection points: 6
#     Node 9, Type 0, BuildingBlock: PAMTUU_clean_sbu_0, # of connection points: 6
#     Node 10, Type 0, BuildingBlock: PAMTUU_clean_sbu_0, # of connection points: 6
#     Node 11, Type 0, BuildingBlock: PAMTUU_clean_sbu_0, # of connection points: 6
#     Node 12, Type 0, BuildingBlock: PAMTUU_clean_sbu_0, # of connection points: 6
#     Node 13, Type 0, BuildingBlock: PAMTUU_clean_sbu_0, # of connection points: 6
#     Node 14, Type 0, BuildingBlock: PAMTUU_clean_sbu_0, # of connection points: 6
#     Node 15, Type 0, BuildingBlock: PAMTUU_clean_sbu_0, # of connection points: 6
#     Edge 16, Type (0, 0), BuildingBlock: XIVTED_clean_linker_0, # of connection points: 2
#     Edge 17, Type (0, 0), BuildingBlock: XIVTED_clean_linker_0, # of connection points: 2
#     Edge 18, Type (0, 0), BuildingBlock: XIVTED_clean_linker_0, # of connection points: 2
#     Edge 19, Type (0, 0), BuildingBlock: XIVTED_clean_linker_0, # of connection points: 2
#     Edge 20, Type (0, 0), BuildingBlock: XIVTED_clean_linker_0, # of connection points: 2
#     Edge 21, Type (0, 0), BuildingBlock: XIVTED_clean_linker_0, # of connection points: 2
#     Edge 22, Type (0, 0), BuildingBlock: XIVTED_clean_linker_0, # of connection points: 2
#     Edge 23, Type (0, 0), BuildingBlock: XIVTED_clean_linker_0, # of connection points: 2
#     Edge 24, Type (0, 0), BuildingBlock: XIVTED_clean_linker_0, # of connection points: 2
#     Edge 25, Type (0, 0), BuildingBlock: XIVTED_clean_linker_0, # of connection points: 2
#     Edge 26, Type (0, 0), BuildingBlock: XIVTED_clean_linker_0, # of connection points: 2
#     Edge 27, Type (0, 0), BuildingBlock: XIVTED_clean_linker_0, # of connection points: 2
#     Edge 28, Type (0, 0), BuildingBlock: XIVTED_clean_linker_0, # of connection points: 2
#     Edge 29, Type (0, 0), BuildingBlock: XIVTED_clean_linker_0, # of connection points: 2
#     Edge 30, Type (0, 0), BuildingBlock: XIVTED_clean_linker_0, # of connection points: 2
#     Edge 31, Type (0, 0), BuildingBlock: XIVTED_clean_linker_0, # of connection points: 2
#     Edge 32, Type (0, 0), BuildingBlock: XIVTED_clean_linker_0, # of connection points: 2
#     Edge 33, Type (0, 0), BuildingBlock: XIVTED_clean_linker_0, # of connection points: 2
#     Edge 34, Type (0, 0), BuildingBlock: XIVTED_clean_linker_0, # of connection points: 2
#     Edge 35, Type (0, 0), BuildingBlock: XIVTED_clean_linker_0, # of connection points: 2
#     Edge 36, Type (0, 0), BuildingBlock: XIVTED_clean_linker_0, # of connection points: 2
#     Edge 37, Type (0, 0), BuildingBlock: XIVTED_clean_linker_0, # of connection points: 2
#     Edge 38, Type (0, 0), BuildingBlock: XIVTED_clean_linker_0, # of connection points: 2
#     Edge 39, Type (0, 0), BuildingBlock: XIVTED_clean_linker_0, # of connection points: 2
#     Edge 40, Type (0, 0), BuildingBlock: XIVTED_clean_linker_0, # of connection points: 2
#     Edge 41, Type (0, 0), BuildingBlock: XIVTED_clean_linker_0, # of connection points: 2
#     Edge 42, Type (0, 0), BuildingBlock: XIVTED_clean_linker_0, # of connection points: 2
#     Edge 43, Type (0, 0), BuildingBlock: XIVTED_clean_linker_0, # of connection points: 2
#     Edge 44, Type (0, 0), BuildingBlock: XIVTED_clean_linker_0, # of connection points: 2
#     Edge 45, Type (0, 0), BuildingBlock: XIVTED_clean_linker_0, # of connection points: 2
#     Edge 46, Type (0, 0), BuildingBlock: XIVTED_clean_linker_0, # of connection points: 2
#     Edge 47, Type (0, 0), BuildingBlock: XIVTED_clean_linker_0, # of connection points: 2
#     Edge 48, Type (0, 0), BuildingBlock: XIVTED_clean_linker_0, # of connection points: 2
#     Edge 49, Type (0, 0), BuildingBlock: XIVTED_clean_linker_0, # of connection points: 2
#     Edge 50, Type (0, 0), BuildingBlock: XIVTED_clean_linker_0, # of connection points: 2
#     Edge 51, Type (0, 0), BuildingBlock: XIVTED_clean_linker_0, # of connection points: 2
#     Edge 52, Type (0, 0), BuildingBlock: XIVTED_clean_linker_0, # of connection points: 2
#     Edge 53, Type (0, 0), BuildingBlock: XIVTED_clean_linker_0, # of connection points: 2
#     Edge 54, Type (0, 0), BuildingBlock: XIVTED_clean_linker_0, # of connection points: 2
#     Edge 55, Type (0, 0), BuildingBlock: XIVTED_clean_linker_0, # of connection points: 2
#     Edge 56, Type (0, 0), BuildingBlock: XIVTED_clean_linker_0, # of connection points: 2
#     Edge 57, Type (0, 0), BuildingBlock: XIVTED_clean_linker_0, # of connection points: 2
#     Edge 58, Type (0, 0), BuildingBlock: XIVTED_clean_linker_0, # of connection points: 2
#     Edge 59, Type (0, 0), BuildingBlock: XIVTED_clean_linker_0, # of connection points: 2
#     Edge 60, Type (0, 0), BuildingBlock: XIVTED_clean_linker_0, # of connection points: 2
#     Edge 61, Type (0, 0), BuildingBlock: XIVTED_clean_linker_0, # of connection points: 2
#     Edge 62, Type (0, 0), BuildingBlock: XIVTED_clean_linker_0, # of connection points: 2
#     Edge 63, Type (0, 0), BuildingBlock: XIVTED_clean_linker_0, # of connection points: 2
# Relax obj value: 0.602
# Max RMSD: 0.319
# Mean RMSD: 0.319
data_MOF--net-whk--node1-PAMTUU_clean_sbu_0--edge1-XIVTED_clean_linker_0
_symmetry_space_group_name_H-M    P1
_symmetry_Int_Tables_number       1
_symmetry_cell_setting            triclinic
loop_
_symmetry_equiv_pos_as_xyz
'x, y, z'
_cell_length_a     46.330425
_cell_length_b     46.344827
_cell_length_c     40.458752
_cell_angle_alpha  89.96068
_cell_angle_beta   90.070629
_cell_angle_gamma 90.11793
loop_
_atom_site_label
_atom_site_type_symbol
_atom_site_fract_x
_atom_site_fract_y
_atom_site_fract_z
_atom_type_partial_charge
Tb0 Tb 0.5636 0.21734 0.41946 0.0
Tb1 Tb 0.61833 0.25074 0.38521 0.0
C2 C 0.60042 0.26494 0.45694 0.0
C3 C 0.49718 0.16699 0.434 0.0
C4 C 0.45132 0.12647 0.42474 0.0
C5 C 0.45196 0.14492 0.45241 0.0
C6 C 0.47456 0.1648 0.45696 0.0
C7 C 0.49735 0.14781 0.40703 0.0
C8 C 0.47482 0.12766 0.4026 0.0
C9 C 0.51644 0.19282 0.43534 0.0
O10 O 0.54671 0.2569 0.3962 0.0
O11 O 0.58672 0.28538 0.38747 0.0
O12 O 0.59178 0.23052 0.34765 0.0
O13 O 0.58138 0.19165 0.37827 0.0
O14 O 0.65339 0.2797 0.3857 0.0
O15 O 0.64452 0.25348 0.34302 0.0
O16 O 0.635 0.20927 0.40343 0.0
O17 O 0.60103 0.19626 0.44244 0.0
O18 O 0.57425 0.25392 0.4528 0.0
O19 O 0.62183 0.25688 0.438 0.0
C20 C 0.55864 0.28237 0.39075 0.0
O21 O 0.52137 0.20579 0.40732 0.0
O22 O 0.53894 0.19371 0.45494 0.0
C23 C 0.58853 0.20261 0.34948 0.0
C24 C 0.69198 0.25289 0.36381 0.0
C25 C 0.73368 0.21435 0.38875 0.0
C26 C 0.71681 0.20681 0.36117 0.0
C27 C 0.6964 0.22594 0.34867 0.0
C28 C 0.71071 0.26154 0.38928 0.0
C29 C 0.73138 0.24247 0.4016 0.0
C30 C 0.66416 0.26791 0.35919 0.0
C31 C 0.62705 0.19374 0.4293 0.0
H32 H 0.43463 0.14442 0.47033 0.0
H33 H 0.47357 0.17954 0.47771 0.0
H34 H 0.5142 0.14926 0.38856 0.0
H35 H 0.47513 0.11399 0.38091 0.0
H36 H 0.71783 0.18545 0.35049 0.0
H37 H 0.68249 0.21852 0.32886 0.0
H38 H 0.70801 0.28225 0.40128 0.0
H39 H 0.74486 0.2495 0.42196 0.0
Tb40 Tb 0.34115 0.57042 0.41799 0.0
Tb41 Tb 0.30955 0.62467 0.38094 0.0
C42 C 0.2928 0.60812 0.45478 0.0
C43 C 0.39076 0.50416 0.43282 0.0
C44 C 0.43115 0.45842 0.42303 0.0
C45 C 0.41517 0.46069 0.45255 0.0
C46 C 0.39535 0.4832 0.45734 0.0
C47 C 0.40756 0.50281 0.40385 0.0
C48 C 0.42764 0.48034 0.39913 0.0
C49 C 0.36508 0.52343 0.43568 0.0
O50 O 0.30017 0.55439 0.39692 0.0
O51 O 0.27316 0.59501 0.38612 0.0
O52 O 0.33029 0.59705 0.34479 0.0
O53 O 0.36816 0.58563 0.37652 0.0
O54 O 0.29705 0.66819 0.38107 0.0
O55 O 0.29571 0.6433 0.33614 0.0
O56 O 0.35204 0.63924 0.39789 0.0
O57 O 0.36143 0.6083 0.44083 0.0
O58 O 0.30707 0.5833 0.45347 0.0
O59 O 0.29404 0.62767 0.43128 0.0
C60 C 0.27506 0.56699 0.39123 0.0
O61 O 0.34978 0.52691 0.40895 0.0
O62 O 0.3663 0.54712 0.45317 0.0
C63 C 0.35793 0.5924 0.3473 0.0
C64 C 0.31896 0.68864 0.3352 0.0
C65 C 0.36647 0.72573 0.32619 0.0
C66 C 0.36997 0.69589 0.32308 0.0
C67 C 0.34636 0.67755 0.32738 0.0
C68 C 0.31516 0.71855 0.33671 0.0
C69 C 0.33871 0.737 0.33191 0.0
C70 C 0.29694 0.66913 0.34892 0.0
C71 C 0.36529 0.63332 0.42589 0.0
H72 H 0.41752 0.44463 0.47182 0.0
H73 H 0.38254 0.48342 0.47973 0.0
H74 H 0.40427 0.51839 0.38425 0.0
H75 H 0.43938 0.47938 0.37603 0.0
H76 H 0.39116 0.68676 0.31894 0.0
H77 H 0.3499 0.65457 0.32677 0.0
H78 H 0.29442 0.72756 0.34341 0.0
H79 H 0.33559 0.76001 0.33491 0.0
Tb80 Tb 0.9857 0.34694 0.42228 0.0
Tb81 Tb 0.93409 0.30699 0.39125 0.0
C82 C 0.95123 0.30013 0.46545 0.0
C83 C 0.04957 0.40196 0.43486 0.0
C84 C 0.09571 0.44251 0.42572 0.0
C85 C 0.09214 0.42756 0.45584 0.0
C86 C 0.06946 0.40768 0.4603 0.0
C87 C 0.05218 0.41783 0.40525 0.0
C88 C 0.07479 0.43797 0.40085 0.0
C89 C 0.0309 0.37558 0.43732 0.0
O90 O 1.00577 0.30934 0.39814 0.0
O91 O 0.96879 0.27782 0.404 0.0
O92 O 0.95222 0.33169 0.35062 0.0
O93 O 0.96626 0.37073 0.38045 0.0
O94 O 0.92517 0.27647 0.35431 0.0
O95 O 0.8924 0.28916 0.38928 0.0
O96 O 0.91233 0.34727 0.4039 0.0
O97 O 0.94551 0.36658 0.44084 0.0
O98 O 0.97663 0.31274 0.46002 0.0
O99 O 0.93009 0.30217 0.44414 0.0
C100 C 0.99624 0.28268 0.40007 0.0
O101 O 1.0273 0.36071 0.41034 0.0
O102 O 1.00809 0.37445 0.45635 0.0
C103 C 0.95667 0.35948 0.35264 0.0
C104 C 0.89896 0.23975 0.37978 0.0
C105 C 0.89229 0.18411 0.40674 0.0
C106 C 0.87922 0.19158 0.37627 0.0
C107 C 0.88255 0.21921 0.36295 0.0
C108 C 0.91395 0.23172 0.40858 0.0
C109 C 0.91094 0.20408 0.42174 0.0
C110 C 0.90066 0.26967 0.36804 0.0
C111 C 0.91916 0.36546 0.4279 0.0
H112 H 0.10737 0.43067 0.47585 0.0
H113 H 0.06841 0.39558 0.48319 0.0
H114 H 0.03758 0.41368 0.38487 0.0
H115 H 0.07671 0.44885 0.37727 0.0
H116 H 0.86436 0.17704 0.36401 0.0
H117 H 0.87121 0.2249 0.34044 0.0
H118 H 0.92688 0.24723 0.42191 0.0
H119 H 0.92136 0.19909 0.44502 0.0
Tb120 Tb 0.21098 0.99028 0.41729 0.0
Tb121 Tb 0.24898 0.93524 0.39119 0.0
C122 C 0.25765 0.95936 0.4622 0.0
C123 C 0.1596 0.05669 0.43073 0.0
C124 C 0.12106 0.10422 0.42357 0.0
C125 C 0.13845 0.10126 0.45195 0.0
C126 C 0.15736 0.07782 0.45547 0.0
C127 C 0.14143 0.05885 0.40294 0.0
C128 C 0.12224 0.08221 0.39953 0.0
C129 C 0.18472 0.03669 0.43156 0.0
O130 O 0.24946 1.00755 0.39205 0.0
O131 O 0.28038 0.96969 0.39775 0.0
O132 O 0.22607 0.95181 0.34812 0.0
O133 O 0.18748 0.97142 0.37497 0.0
O134 O 0.27735 0.91827 0.35593 0.0
O135 O 0.26319 0.89255 0.39751 0.0
O136 O 0.2065 0.91748 0.40188 0.0
O137 O 0.19 0.95161 0.43879 0.0
O138 O 0.24615 0.98436 0.45374 0.0
O139 O 0.25341 0.93622 0.44441 0.0
C140 C 0.27593 0.99732 0.39352 0.0
O141 O 0.19768 0.03157 0.40364 0.0
O142 O 0.18577 1.01455 0.45161 0.0
C143 C 0.19888 0.95963 0.34837 0.0
C144 C 0.31223 0.88921 0.38278 0.0
C145 C 0.3703 0.87505 0.39592 0.0
C146 C 0.34781 0.85575 0.40402 0.0
C147 C 0.31913 0.86273 0.39736 0.0
C148 C 0.33433 0.90953 0.37718 0.0
C149 C 0.36313 0.90246 0.38359 0.0
C150 C 0.28198 0.89527 0.37376 0.0
C151 C 0.18915 0.92521 0.4261 0.0
H152 H 0.13788 0.11743 0.47125 0.0
H153 H 0.17138 0.077 0.47691 0.0
H154 H 0.14297 0.0432 0.38315 0.0
H155 H 0.10934 0.08372 0.37726 0.0
H156 H 0.35237 0.83424 0.41309 0.0
H157 H 0.30243 0.84693 0.40244 0.0
H158 H 0.32956 0.9305 0.3667 0.0
H159 H 0.37989 0.9178 0.37719 0.0
Tb160 Tb 0.06736 0.84405 0.09438 0.0
Tb161 Tb 0.11936 0.8083 0.13165 0.0
C162 C 0.10085 0.79228 0.05804 0.0
C163 C 1.00237 0.896 0.07845 0.0
C164 C 0.9559 0.93575 0.08705 0.0
C165 C 0.95833 0.91905 0.05809 0.0
C166 C 0.98122 0.89955 0.05387 0.0
C167 C 1.00081 0.91354 0.10681 0.0
C168 C 0.978 0.93331 0.11093 0.0
C169 C 1.02153 0.87018 0.07687 0.0
O170 O 0.04803 0.80514 0.11687 0.0
O171 O 0.08663 0.77517 0.12515 0.0
O172 O 0.09405 0.83231 0.16734 0.0
O173 O 0.08519 0.8705 0.13491 0.0
O174 O 0.13316 0.79234 0.17732 0.0
O175 O 0.16069 0.78953 0.13438 0.0
O176 O 0.13955 0.84803 0.11291 0.0
O177 O 0.10673 0.86276 0.07316 0.0
O178 O 0.07808 0.80967 0.05839 0.0
O179 O 0.11981 0.79097 0.08215 0.0
C180 C 0.0588 0.77914 0.1216 0.0
O181 O 1.02482 0.85581 0.10427 0.0
O182 O 0.04501 0.86997 0.05892 0.0
C183 C 0.09153 0.86016 0.16418 0.0
C184 C 0.16147 0.75016 0.17208 0.0
C185 C 0.17707 0.69482 0.19501 0.0
C186 C 0.19426 0.70946 0.17162 0.0
C187 C 0.1866 0.73689 0.16044 0.0
C188 C 0.14282 0.73446 0.19293 0.0
C189 C 0.15058 0.70704 0.20429 0.0
C190 C 0.15633 0.78096 0.16468 0.0
C191 C 0.13274 0.86376 0.08672 0.0
H192 H 0.94212 0.92057 0.03886 0.0
H193 H 0.98154 0.88608 0.03199 0.0
H194 H 1.01646 0.911 0.12651 0.0
H195 H 0.97692 0.94562 0.13363 0.0
H196 H 0.21504 0.70102 0.16419 0.0
H197 H 0.20123 0.7484 0.1442 0.0
H198 H 0.12299 0.7439 0.20197 0.0
H199 H 0.13684 0.6963 0.22213 0.0
Tb200 Tb 0.7158 0.07395 0.10019 0.0
Tb201 Tb 0.75505 0.12624 0.13265 0.0
C202 C 0.76198 0.10982 0.05731 0.0
C203 C 0.66216 1.00882 0.08725 0.0
C204 C 0.62229 0.96183 0.09486 0.0
C205 C 0.63676 0.96674 0.06469 0.0
C206 C 0.65631 0.98982 0.06099 0.0
C207 C 0.64682 1.00482 0.11699 0.0
C208 C 0.62705 0.98181 0.12065 0.0
C209 C 0.68809 1.02818 0.08515 0.0
O210 O 0.75474 0.05455 0.12222 0.0
O211 O 0.78551 0.09268 0.11927 0.0
O212 O 0.73009 0.10726 0.17273 0.0
O213 O 0.69165 0.09283 0.14191 0.0
O214 O 0.78858 0.13599 0.16597 0.0
O215 O 0.76648 0.16971 0.13938 0.0
O216 O 0.71498 0.14709 0.117 0.0
O217 O 0.69583 0.11344 0.08057 0.0
O218 O 0.74859 0.08467 0.06178 0.0
O219 O 0.76227 0.13008 0.07995 0.0
C220 C 0.78117 0.06487 0.12077 0.0
O221 O 0.70279 0.0321 0.11223 0.0
O222 O 0.6888 0.051 0.06608 0.0
C223 C 0.70233 0.10239 0.17004 0.0
C224 C 0.81664 0.17289 0.14185 0.0
C225 C 0.85548 0.19693 0.09607 0.0
C226 C 0.84375 0.21396 0.12163 0.0
C227 C 0.82429 0.20202 0.1442 0.0
C228 C 0.83143 0.15508 0.11942 0.0
C229 C 0.85086 0.16698 0.09683 0.0
C230 C 0.78934 0.16288 0.15648 0.0
C231 C 0.69713 0.13996 0.09277 0.0
H232 H 0.63346 0.95232 0.04398 0.0
H233 H 0.66801 0.99194 0.03794 0.0
H234 H 0.65107 1.0187 0.13797 0.0
H235 H 0.61659 0.97888 0.14433 0.0
H236 H 0.84665 0.23716 0.12178 0.0
H237 H 0.81309 0.21612 0.16124 0.0
H238 H 0.82595 0.13247 0.11711 0.0
H239 H 0.85971 0.15328 0.07768 0.0
Tb240 Tb 0.48754 0.71691 0.09711 0.0
Tb241 Tb 0.43779 0.75077 0.13845 0.0
C242 C 0.45251 0.76975 0.06447 0.0
C243 C 0.55212 0.66568 0.08096 0.0
C244 C 0.59752 0.62519 0.09151 0.0
C245 C 0.5963 0.64196 0.06248 0.0
C246 C 0.57393 0.66186 0.05731 0.0
C247 C 0.55241 0.64804 0.10931 0.0
C248 C 0.57473 0.62791 0.11441 0.0
C249 C 0.53346 0.69173 0.0786 0.0
O250 O 0.50697 0.75753 0.1156 0.0
O251 O 0.46893 0.78556 0.1327 0.0
O252 O 0.46473 0.72571 0.17137 0.0
O253 O 0.47057 0.68889 0.13686 0.0
O254 O 0.39475 0.76323 0.14546 0.0
O255 O 0.42611 0.76779 0.18464 0.0
O256 O 0.41712 0.71257 0.11606 0.0
O257 O 0.44873 0.69809 0.07528 0.0
O258 O 0.47312 0.75002 0.06125 0.0
O259 O 0.4369 0.77293 0.09142 0.0
C260 C 0.4962 0.78276 0.12446 0.0
O261 O 0.53066 0.7066 0.10572 0.0
O262 O 0.50959 0.6914 0.06128 0.0
C263 C 0.46571 0.698 0.16694 0.0
C264 C 0.38093 0.74898 0.19855 0.0
C265 C 0.34348 0.71377 0.23613 0.0
C266 C 0.34654 0.74354 0.24304 0.0
C267 C 0.36478 0.76101 0.22411 0.0
C268 C 0.37998 0.71911 0.19327 0.0
C269 C 0.36131 0.70174 0.21154 0.0
C270 C 0.39878 0.76716 0.17706 0.0
C271 C 0.42296 0.69752 0.08912 0.0
H272 H 0.61308 0.6402 0.04398 0.0
H273 H 0.57453 0.67539 0.03546 0.0
H274 H 0.53617 0.65081 0.12828 0.0
H275 H 0.57489 0.61554 0.13712 0.0
H276 H 0.33437 0.75384 0.26245 0.0
H277 H 0.36587 0.78395 0.22906 0.0
H278 H 0.39289 0.70928 0.17409 0.0
H279 H 0.35994 0.67925 0.20472 0.0
Tb280 Tb 0.83751 0.48895 0.09952 0.0
Tb281 Tb 0.79744 0.4335 0.12345 0.0
C282 C 0.79209 0.45845 0.05375 0.0
C283 C 0.89187 0.55424 0.08942 0.0
C284 C 0.93226 0.60067 0.09622 0.0
C285 C 0.91547 0.59746 0.06735 0.0
C286 C 0.89565 0.57461 0.06403 0.0
C287 C 0.90947 0.55659 0.11773 0.0
C288 C 0.92951 0.57936 0.12097 0.0
C289 C 0.86601 0.53488 0.08848 0.0
O290 O 0.79896 0.50784 0.12236 0.0
O291 O 0.76753 0.46958 0.12297 0.0
O292 O 0.81827 0.44894 0.16831 0.0
O293 O 0.85807 0.46718 0.142 0.0
O294 O 0.75563 0.41584 0.12495 0.0
O295 O 0.79215 0.39128 0.14191 0.0
O296 O 0.83782 0.41458 0.1064 0.0
O297 O 0.85898 0.45148 0.07631 0.0
O298 O 0.80176 0.48388 0.06343 0.0
O299 O 0.79914 0.43534 0.07018 0.0
C300 C 0.77259 0.49737 0.12444 0.0
O301 O 0.85387 0.52823 0.11653 0.0
O302 O 0.86278 0.51456 0.0663 0.0
C303 C 0.84584 0.45574 0.16844 0.0
C304 C 0.76115 0.36895 0.10384 0.0
C305 C 0.77405 0.33248 0.05057 0.0
C306 C 0.77323 0.32154 0.08301 0.0
C307 C 0.76705 0.33976 0.10956 0.0
C308 C 0.75824 0.37876 0.07096 0.0
C309 C 0.76521 0.36077 0.04452 0.0
C310 C 0.76579 0.39013 0.13055 0.0
C311 C 0.85728 0.42393 0.08515 0.0
H312 H 0.9172 0.61301 0.04746 0.0
H313 H 0.88219 0.5737 0.04214 0.0
H314 H 0.90686 0.54156 0.13803 0.0
H315 H 0.94184 0.58102 0.14365 0.0
H316 H 0.78034 0.29973 0.08814 0.0
H317 H 0.76959 0.33174 0.13456 0.0
H318 H 0.75326 0.40109 0.06568 0.0
H319 H 0.76584 0.36949 0.0197 0.0
Tb320 Tb 0.42308 0.79527 0.60564 0.0
Tb321 Tb 0.47963 0.83915 0.59764 0.0
C322 C 0.43785 0.83767 0.66194 0.0
C323 C 0.3624 0.7598 0.56895 0.0
C324 C 0.32726 0.77277 0.51421 0.0
C325 C 0.31485 0.76573 0.54498 0.0
C326 C 0.33234 0.75953 0.57227 0.0
C327 C 0.3745 0.76378 0.53737 0.0
C328 C 0.35716 0.77056 0.51029 0.0
C329 C 0.38108 0.76145 0.59844 0.0
O330 O 0.40492 0.83777 0.59687 0.0
O331 O 0.44342 0.86236 0.57374 0.0
O332 O 0.48072 0.80543 0.55869 0.0
O333 O 0.43252 0.80572 0.55483 0.0
O334 O 0.51266 0.86062 0.62317 0.0
O335 O 0.50891 0.86518 0.56948 0.0
O336 O 0.49809 0.7997 0.61861 0.0
O337 O 0.46037 0.76744 0.61349 0.0
O338 O 0.42997 0.81092 0.65551 0.0
O339 O 0.4537 0.85273 0.64084 0.0
C340 C 0.41549 0.85992 0.58044 0.0
O341 O 0.40782 0.75386 0.59382 0.0
O342 O 0.3794 0.78546 0.61517 0.0
C343 C 0.45718 0.79801 0.54253 0.0
C344 C 0.5486 0.89211 0.59771 0.0
C345 C 0.59842 0.92843 0.60253 0.0
C346 C 0.59156 0.91406 0.57278 0.0
C347 C 0.56685 0.89632 0.57033 0.0
C348 C 0.55549 0.90641 0.62738 0.0
C349 C 0.57986 0.92439 0.6297 0.0
C350 C 0.52318 0.87212 0.5963 0.0
C351 C 0.48776 0.77316 0.61901 0.0
H352 H 0.29178 0.76774 0.54874 0.0
H353 H 0.32251 0.75667 0.59633 0.0
H354 H 0.39757 0.76379 0.53411 0.0
H355 H 0.36719 0.77606 0.48694 0.0
H356 H 0.60514 0.91676 0.55123 0.0
H357 H 0.56229 0.88554 0.54716 0.0
H358 H 0.54202 0.90367 0.64902 0.0
H359 H 0.58444 0.93473 0.65312 0.0
Tb360 Tb 0.75077 0.43226 0.61756 0.0
Tb361 Tb 0.71501 0.49047 0.59793 0.0
C362 C 0.70618 0.45608 0.66542 0.0
C363 C 0.76843 0.3601 0.60132 0.0
C364 C 0.73726 0.32313 0.55923 0.0
C365 C 0.73814 0.318 0.59348 0.0
C366 C 0.75371 0.33623 0.61433 0.0
C367 C 0.76975 0.36356 0.56664 0.0
C368 C 0.7543 0.34511 0.54572 0.0
C369 C 0.77518 0.38462 0.62334 0.0
O370 O 0.70767 0.41716 0.60323 0.0
O371 O 0.69045 0.45589 0.57327 0.0
O372 O 0.74976 0.48374 0.56089 0.0
O373 O 0.74667 0.43522 0.56457 0.0
O374 O 0.70086 0.53014 0.61631 0.0
O375 O 0.69219 0.5185 0.5654 0.0
O376 O 0.75473 0.50566 0.62202 0.0
O377 O 0.78399 0.46603 0.6177 0.0
O378 O 0.7336 0.44916 0.66364 0.0
O379 O 0.69349 0.46845 0.63983 0.0
C380 C 0.68908 0.42844 0.5822 0.0
O381 O 0.7876 0.4068 0.60943 0.0
O382 O 0.75394 0.39255 0.64247 0.0
C383 C 0.75593 0.45798 0.54899 0.0
C384 C 0.66345 0.55705 0.58967 0.0
C385 C 0.62168 0.60161 0.59784 0.0
C386 C 0.64029 0.6013 0.57033 0.0
C387 C 0.6608 0.57933 0.56632 0.0
C388 C 0.64416 0.55656 0.61653 0.0
C389 C 0.62338 0.57846 0.62042 0.0
C390 C 0.68945 0.5382 0.58831 0.0
C391 C 0.78064 0.49401 0.62152 0.0
H392 H 0.72554 0.30068 0.60429 0.0
H393 H 0.75222 0.33311 0.64082 0.0
H394 H 0.78085 0.38178 0.55568 0.0
H395 H 0.75413 0.3492 0.51936 0.0
H396 H 0.63939 0.6184 0.55211 0.0
H397 H 0.67556 0.58051 0.5456 0.0
H398 H 0.64588 0.53991 0.63522 0.0
H399 H 0.60956 0.57795 0.64197 0.0
Tb400 Tb 0.12419 0.76333 0.62628 0.0
Tb401 Tb 0.07179 0.71996 0.6016 0.0
C402 C 0.10673 0.71198 0.66868 0.0
C403 C 0.17106 0.82497 0.62286 0.0
C404 C 0.19257 0.85741 0.56957 0.0
C405 C 0.21093 0.84906 0.59568 0.0
C406 C 0.20023 0.83277 0.62206 0.0
C407 C 0.15206 0.83665 0.59926 0.0
C408 C 0.16274 0.85292 0.57289 0.0
C409 C 0.16205 0.79971 0.64231 0.0
O410 O 0.14571 0.72389 0.60973 0.0
O411 O 0.11047 0.70199 0.5776 0.0
O412 O 0.07541 0.75273 0.56172 0.0
O413 O 0.12168 0.76891 0.57324 0.0
O414 O 0.03697 0.69899 0.62382 0.0
O415 O 0.04545 0.69231 0.57118 0.0
O416 O 0.05086 0.75892 0.6219 0.0
O417 O 0.08772 0.79155 0.61746 0.0
O418 O 0.10969 0.74 0.66975 0.0
O419 O 0.0973 0.69971 0.64143 0.0
C420 C 0.13777 0.705 0.58694 0.0
O421 O 0.13578 0.80012 0.65379 0.0
O422 O 0.16793 0.77511 0.62834 0.0
C423 C 0.09891 0.76776 0.55396 0.0
C424 C 1.00278 0.66696 0.59645 0.0
C425 C 0.9541 0.62866 0.60005 0.0
C426 C 0.97417 0.62691 0.57382 0.0
C427 C 0.99807 0.64588 0.57196 0.0
C428 C 0.98264 0.66879 0.62243 0.0
C429 C 0.95875 0.65012 0.62414 0.0
C430 C 0.02911 0.686 0.59666 0.0
C431 C 0.0602 0.7858 0.62048 0.0
H432 H 0.23407 0.85196 0.59384 0.0
H433 H 0.21523 0.82385 0.6399 0.0
H434 H 0.1294 0.83089 0.59929 0.0
H435 H 0.14811 0.85933 0.55334 0.0
H436 H 0.97136 0.61095 0.55456 0.0
H437 H 1.01314 0.64369 0.55168 0.0
H438 H 0.98545 0.68462 0.64186 0.0
H439 H 0.94425 0.65212 0.64498 0.0
Tb440 Tb 0.79797 0.12214 0.62999 0.0
Tb441 Tb 0.83775 0.07135 0.59563 0.0
C442 C 0.85248 0.0994 0.66553 0.0
C443 C 0.7339 0.16343 0.64246 0.0
C444 C 0.68829 0.17815 0.59996 0.0
C445 C 0.69661 0.14932 0.60318 0.0
C446 C 0.71915 0.14198 0.62447 0.0
C447 C 0.72346 0.19174 0.64197 0.0
C448 C 0.70059 0.19902 0.62102 0.0
C449 C 0.76327 0.15762 0.65468 0.0
O450 O 0.83678 0.14448 0.61233 0.0
O451 O 0.85527 0.11174 0.57465 0.0
O452 O 0.80198 0.07851 0.55989 0.0
O453 O 0.78527 0.12265 0.57849 0.0
O454 O 0.85135 0.02946 0.60579 0.0
O455 O 0.86515 0.05019 0.56062 0.0
O456 O 0.8012 0.04987 0.62033 0.0
O457 O 0.76854 0.0864 0.62149 0.0
O458 O 0.82485 0.10437 0.6691 0.0
O459 O 0.8626 0.09024 0.63698 0.0
C460 C 0.8539 0.13815 0.5872 0.0
O461 O 0.76763 0.13195 0.66693 0.0
O462 O 0.78366 0.16498 0.63412 0.0
C463 C 0.78536 0.10167 0.55673 0.0
C464 C 0.89193 1.00775 0.58011 0.0
C465 C 0.93168 0.9613 0.58922 0.0
C466 C 0.91492 0.96354 0.56025 0.0
C467 C 0.89543 0.98642 0.55577 0.0
C468 C 0.9095 1.00636 0.60849 0.0
C469 C 0.92927 0.98357 0.61286 0.0
C470 C 0.86593 1.02667 0.57852 0.0
C471 C 0.77436 0.05886 0.62194 0.0
H472 H 0.68747 0.13298 0.58718 0.0
H473 H 0.72663 0.11997 0.62447 0.0
H474 H 0.73464 0.20865 0.65535 0.0
H475 H 0.69481 0.22157 0.61851 0.0
H476 H 0.9164 0.9472 0.54121 0.0
H477 H 0.88188 0.98657 0.53392 0.0
H478 H 0.90696 1.0221 0.62804 0.0
H479 H 0.94162 0.98266 0.63557 0.0
Tb480 Tb 0.94075 0.25439 0.87797 0.0
Tb481 Tb 0.98545 0.2137 0.92023 0.0
C482 C 0.96282 0.19822 0.84771 0.0
C483 C 0.9101 0.32112 0.85068 0.0
C484 C 0.89966 0.37737 0.87381 0.0
C485 C 0.88245 0.36522 0.84848 0.0
C486 C 0.88755 0.33722 0.83719 0.0
C487 C 0.92912 0.33428 0.87323 0.0
C488 C 0.92408 0.36221 0.88458 0.0
C489 C 0.91192 0.2899 0.84482 0.0
O490 O 0.91468 0.21814 0.8972 0.0
O491 O 0.94307 0.20501 0.94168 0.0
O492 O 0.97235 0.24728 0.95669 0.0
O493 O 0.93867 0.27339 0.92637 0.0
O494 O 0.99781 0.17186 0.93536 0.0
O495 O 1.02509 0.20832 0.94521 0.0
O496 O 1.0119 0.24498 0.89246 0.0
O497 O 0.97817 0.28036 0.89042 0.0
O498 O 0.96085 0.22589 0.84254 0.0
O499 O 0.96894 0.18866 0.87754 0.0
C500 C 0.91821 0.20435 0.92565 0.0
O501 O 0.93731 0.28067 0.83591 0.0
O502 O 0.90071 0.27383 0.86805 0.0
C503 C 0.95326 0.26856 0.95358 0.0
C504 C 0.04847 0.16268 0.93697 0.0
C505 C 0.0978 0.12816 0.922 0.0
C506 C 0.07639 0.11841 0.94412 0.0
C507 C 0.05218 0.1354 0.95146 0.0
C508 C 0.06966 0.17262 0.91477 0.0
C509 C 0.09404 0.15561 0.90744 0.0
C510 C 1.02281 0.18032 0.9464 0.0
C511 C 1.0052 0.27251 0.89028 0.0
H512 H 0.86316 0.37602 0.83979 0.0
H513 H 0.8727 0.32748 0.81973 0.0
H514 H 0.94672 0.32234 0.88396 0.0
H515 H 0.93769 0.37086 0.90401 0.0
H516 H 0.07853 0.09775 0.95637 0.0
H517 H 0.03636 0.12724 0.96884 0.0
H518 H 0.06745 0.19355 0.90312 0.0
H519 H 0.10977 0.16385 0.89005 0.0
Tb520 Tb 0.29154 0.92977 0.89979 0.0
Tb521 Tb 0.33532 0.98522 0.9121 0.0
C522 C 0.33588 0.94492 0.84667 0.0
C523 C 0.24308 0.87726 0.93225 0.0
C524 C 0.22267 0.8583 0.99453 0.0
C525 C 0.25245 0.85906 0.98745 0.0
C526 C 0.26248 0.86854 0.95692 0.0
C527 C 0.21339 0.87728 0.93923 0.0
C528 C 0.20326 0.86789 0.97006 0.0
C529 C 0.25408 0.89069 0.90169 0.0
O530 O 0.33317 0.91023 0.91154 0.0
O531 O 0.35732 0.94854 0.93588 0.0
O532 O 0.30234 0.98367 0.95244 0.0
O533 O 0.29934 0.93498 0.95181 0.0
O534 O 0.35808 1.01803 0.88781 0.0
O535 O 0.36135 1.01379 0.9415 0.0
O536 O 0.2965 1.00485 0.89067 0.0
O537 O 0.26451 0.9682 0.90086 0.0
O538 O 0.30853 0.93856 0.85114 0.0
O539 O 0.35059 0.95923 0.86948 0.0
C540 C 0.35472 0.92063 0.92933 0.0
O541 O 0.24778 0.91787 0.89888 0.0
O542 O 0.281 0.8858 0.89403 0.0
C543 C 0.2937 0.95926 0.96636 0.0
C544 C 0.39046 0.05261 0.91415 0.0
C545 C 0.42917 0.10082 0.91035 0.0
C546 C 0.41303 0.09521 0.93926 0.0
C547 C 0.39413 0.07132 0.94122 0.0
C548 C 0.40661 0.05816 0.88535 0.0
C549 C 0.42576 0.08171 0.88355 0.0
C550 C 0.36944 1.02794 0.91504 0.0
C551 C 0.26987 0.99527 0.8936 0.0
H552 H 0.2683 0.85131 1.005 0.0
H553 H 0.28558 0.86914 0.95278 0.0
H554 H 0.19808 0.88492 0.92098 0.0
H555 H 0.18024 0.86794 0.97457 0.0
H556 H 0.41516 0.10919 0.96056 0.0
H557 H 0.38204 0.06777 0.96375 0.0
H558 H 0.40441 0.04426 0.86398 0.0
H559 H 0.43745 0.0853 0.86074 0.0
Tb560 Tb 0.62445 0.30479 0.8891 0.0
Tb561 Tb 0.56893 0.34056 0.91686 0.0
C562 C 0.59773 0.35161 0.84732 0.0
C563 C 0.69952 0.29545 0.88288 0.0
C564 C 0.74171 0.33472 0.90486 0.0
C565 C 0.73892 0.32835 0.87104 0.0
C566 C 0.71811 0.30873 0.86016 0.0
C567 C 0.704 0.30003 0.91696 0.0
C568 C 0.72509 0.31939 0.92786 0.0
C569 C 0.67159 0.28421 0.87103 0.0
O570 O 0.6411 0.34669 0.90559 0.0
O571 O 0.60526 0.36341 0.94011 0.0
O572 O 0.5781 0.30562 0.95287 0.0
O573 O 0.62642 0.30421 0.94245 0.0
O574 O 0.52788 0.35371 0.90197 0.0
O575 O 0.54338 0.36436 0.95104 0.0
O576 O 0.55164 0.30061 0.89511 0.0
O577 O 0.59133 0.27117 0.89062 0.0
O578 O 0.602 0.32373 0.84725 0.0
O579 O 0.58873 0.36379 0.87479 0.0
C580 C 0.63208 0.36431 0.92903 0.0
O581 O 0.6552 0.27156 0.89293 0.0
O582 O 0.65706 0.30265 0.85325 0.0
C583 C 0.60442 0.29718 0.96095 0.0
C584 C 0.50346 0.39241 0.9286 0.0
C585 C 0.45869 0.43382 0.91995 0.0
C586 C 0.45953 0.41592 0.94808 0.0
C587 C 0.48161 0.39557 0.95233 0.0
C588 C 0.50353 0.41112 0.90117 0.0
C589 C 0.48151 0.43173 0.89702 0.0
C590 C 0.52198 0.36623 0.93001 0.0
C591 C 0.56317 0.27478 0.89168 0.0
H592 H 0.75208 0.33942 0.8529 0.0
H593 H 0.71497 0.30579 0.83383 0.0
H594 H 0.68982 0.2904 0.93519 0.0
H595 H 0.72705 0.32379 0.95407 0.0
H596 H 0.44269 0.41717 0.96656 0.0
H597 H 0.48078 0.38124 0.97349 0.0
H598 H 0.51984 0.40896 0.88219 0.0
H599 H 0.4816 0.44501 0.875 0.0
Tb600 Tb 0.25945 0.6275 0.89942 0.0
Tb601 Tb 0.21921 0.57092 0.9175 0.0
C602 C 0.21416 0.60759 0.85035 0.0
C603 C 0.28522 0.69318 0.92702 0.0
C604 C 0.26448 0.71488 0.98762 0.0
C605 C 0.25026 0.72131 0.95781 0.0
C606 C 0.26062 0.71084 0.92785 0.0
C607 C 0.30112 0.68926 0.95648 0.0
C608 C 0.29084 0.70009 0.98654 0.0
C609 C 0.28866 0.67247 0.89941 0.0
O610 O 0.21733 0.64485 0.91292 0.0
O611 O 0.19603 0.60705 0.94128 0.0
O612 O 0.25386 0.57488 0.95546 0.0
O613 O 0.25337 0.62341 0.95201 0.0
O614 O 0.1991 0.5364 0.89378 0.0
O615 O 0.19527 0.54082 0.94745 0.0
O616 O 0.25842 0.55306 0.89527 0.0
O617 O 0.28963 0.59166 0.89706 0.0
O618 O 0.24172 0.61395 0.85229 0.0
O619 O 0.20083 0.59566 0.87576 0.0
C620 C 0.1972 0.63473 0.93283 0.0
O621 O 0.29944 0.6476 0.90804 0.0
O622 O 0.26624 0.66916 0.88003 0.0
C623 C 0.26163 0.60027 0.96741 0.0
C624 C 0.16982 0.4993 0.91993 0.0
C625 C 0.13597 0.44761 0.91502 0.0
C626 C 0.14869 0.45602 0.9453 0.0
C627 C 0.16524 0.4816 0.94776 0.0
C628 C 0.15717 0.49082 0.88979 0.0
C629 C 0.14053 0.46557 0.88739 0.0
C630 C 0.18862 0.52572 0.92109 0.0
C631 C 0.28471 0.56389 0.89398 0.0
H632 H 0.23056 0.73388 0.9577 0.0
H633 H 0.24795 0.71465 0.90576 0.0
H634 H 0.32023 0.67584 0.95679 0.0
H635 H 0.3027 0.69564 0.00905 0.0
H636 H 0.14558 0.44299 0.96723 0.0
H637 H 0.17476 0.48732 0.97133 0.0
H638 H 0.16022 0.50372 0.86773 0.0
H639 H 0.13162 0.45987 0.86352 0.0
H640 H 0.62027 0.15296 0.35677 0.0
H641 H 0.64738 0.12408 0.16426 0.0
H642 H 0.58812 0.21095 0.28209 0.0
H643 H 0.71276 0.10575 0.23712 0.0
H644 H 0.61783 0.14668 0.20757 0.0
H645 H 0.64667 0.12637 0.31373 0.0
C646 C 0.6182 0.15974 0.33124 0.0
C647 C 0.6016 0.18412 0.32307 0.0
C648 C 0.63851 0.13741 0.21411 0.0
C649 C 0.63177 0.15352 0.27353 0.0
C650 C 0.65531 0.12424 0.18946 0.0
C651 C 0.68264 0.11275 0.19696 0.0
C652 C 0.64864 0.13856 0.24687 0.0
C653 C 0.69187 0.1142 0.2301 0.0
C654 C 0.63354 0.14469 0.30674 0.0
C655 C 0.60043 0.19221 0.28956 0.0
N656 N 0.6749 0.12663 0.25377 0.0
N657 N 0.61505 0.17688 0.26608 0.0
H658 H 0.43423 0.64796 0.15917 0.0
H659 H 0.41204 0.61654 0.35248 0.0
H660 H 0.46786 0.70459 0.23441 0.0
H661 H 0.34738 0.59385 0.28032 0.0
H662 H 0.44003 0.64049 0.30871 0.0
H663 H 0.40943 0.61988 0.20237 0.0
C664 C 0.43697 0.65413 0.1848 0.0
C665 C 0.45356 0.67853 0.1931 0.0
C666 C 0.41993 0.62988 0.30238 0.0
C667 C 0.4252 0.64627 0.24283 0.0
C668 C 0.40407 0.61588 0.32731 0.0
C669 C 0.37738 0.60274 0.32013 0.0
C670 C 0.40949 0.63031 0.26972 0.0
C671 C 0.36791 0.60338 0.28704 0.0
C672 C 0.42255 0.63824 0.20943 0.0
C673 C 0.45558 0.68583 0.22681 0.0
N674 N 0.38395 0.61674 0.26314 0.0
N675 N 0.44182 0.66973 0.25034 0.0
H676 H 0.92533 0.4094 0.35857 0.0
H677 H 0.90199 0.43752 0.16583 0.0
H678 H 0.95916 0.35097 0.28554 0.0
H679 H 0.83214 0.44979 0.23465 0.0
H680 H 0.93109 0.41645 0.21051 0.0
H681 H 0.89912 0.43517 0.31447 0.0
C682 C 0.92788 0.40246 0.33318 0.0
C683 C 0.94479 0.37815 0.32573 0.0
C684 C 0.90951 0.42405 0.21587 0.0
C685 C 0.91489 0.40765 0.27515 0.0
C686 C 0.89291 0.43629 0.19045 0.0
C687 C 0.8645 0.44561 0.1964 0.0
C688 C 0.89808 0.42175 0.2479 0.0
C689 C 0.85388 0.44295 0.22885 0.0
C690 C 0.91264 0.41697 0.30811 0.0
C691 C 0.94661 0.36971 0.29241 0.0
N692 N 0.8707 0.43151 0.25338 0.0
N693 N 0.93208 0.38452 0.2684 0.0
H694 H 0.21295 0.9566 0.28248 0.0
H695 H 0.08616 0.85233 0.2311 0.0
H696 H 0.14267 0.94049 0.34969 0.0
H697 H 0.12328 0.91022 0.15938 0.0
H698 H 0.10959 0.88014 0.27546 0.0
H699 H 0.18394 0.93592 0.23732 0.0
C700 C 0.19127 0.94908 0.28767 0.0
C701 C 0.18017 0.95065 0.31996 0.0
C702 C 0.11229 0.88699 0.25005 0.0
C703 C 0.14717 0.92591 0.26845 0.0
C704 C 0.09889 0.87115 0.22471 0.0
C705 C 0.10239 0.87913 0.19142 0.0
C706 C 0.13026 0.91048 0.24214 0.0
C707 C 0.11954 0.90353 0.18466 0.0
C708 C 0.17473 0.93727 0.26187 0.0
C709 C 0.15199 0.94018 0.32517 0.0
N710 N 0.1332 0.918 0.20967 0.0
N711 N 0.13671 0.92785 0.29991 0.0
H712 H 0.39086 0.95629 0.82287 0.0
H713 H 0.39247 0.81995 0.70081 0.0
H714 H 0.31689 0.90165 0.80559 0.0
H715 H 0.45277 0.89031 0.6896 0.0
H716 H 0.3682 0.84679 0.74471 0.0
H717 H 0.41684 0.93043 0.77887 0.0
C718 C 0.37996 0.93907 0.80974 0.0
C719 C 0.35144 0.9314 0.81804 0.0
C720 C 0.38683 0.85635 0.73279 0.0
C721 C 0.38147 0.90114 0.76803 0.0
C722 C 0.40093 0.84088 0.7078 0.0
C723 C 0.4249 0.85271 0.69127 0.0
C724 C 0.39681 0.88389 0.74197 0.0
C725 C 0.43445 0.8802 0.70151 0.0
C726 C 0.39486 0.92426 0.78463 0.0
C727 C 0.33866 0.90866 0.80011 0.0
N728 N 0.42049 0.89476 0.72617 0.0
N729 N 0.35376 0.8943 0.77635 0.0
H730 H 0.59775 0.34047 0.78041 0.0
H731 H 0.72083 0.45058 0.73127 0.0
H732 H 0.62763 0.40276 0.8517 0.0
H733 H 0.65143 0.43332 0.66308 0.0
H734 H 0.69252 0.42735 0.77555 0.0
H735 H 0.62233 0.36803 0.73649 0.0
C736 C 0.60921 0.36008 0.7868 0.0
C737 C 0.61015 0.36949 0.81982 0.0
C738 C 0.68342 0.42889 0.75094 0.0
C739 C 0.63942 0.40056 0.76972 0.0
C740 C 0.69956 0.44215 0.72565 0.0
C741 C 0.6884 0.44435 0.6934 0.0
C742 C 0.65629 0.41665 0.74382 0.0
C743 C 0.66076 0.43262 0.68761 0.0
C744 C 0.62326 0.37579 0.76171 0.0
C745 C 0.6258 0.39493 0.82658 0.0
N746 N 0.64593 0.41895 0.71232 0.0
N747 N 0.64012 0.40926 0.80196 0.0
H748 H 0.13667 0.66133 0.66239 0.0
H749 H 0.1597 0.63001 0.85361 0.0
H750 H 0.1081 0.72232 0.73568 0.0
H751 H 0.2288 0.61468 0.78462 0.0
H752 H 0.13241 0.65441 0.80966 0.0
H753 H 0.16246 0.63453 0.70588 0.0
C754 C 0.13538 0.66881 0.6877 0.0
C755 C 0.11999 0.69407 0.6954 0.0
C756 C 0.15343 0.64547 0.80411 0.0
C757 C 0.14924 0.66322 0.74531 0.0
C758 C 0.16896 0.63132 0.82908 0.0
C759 C 0.1966 0.62007 0.82281 0.0
C760 C 0.16513 0.64776 0.77223 0.0
C761 C 0.2076 0.62294 0.79058 0.0
C762 C 0.15033 0.65364 0.71241 0.0
C763 C 0.11958 0.70297 0.72861 0.0
N764 N 0.19176 0.63622 0.76644 0.0
N765 N 0.1337 0.68745 0.75235 0.0
H766 H 0.90797 0.12026 0.66043 0.0
H767 H 0.93228 0.14755 0.85446 0.0
H768 H 0.84249 0.10052 0.7326 0.0
H769 H 0.96728 0.20449 0.78035 0.0
H770 H 0.90755 0.12019 0.81057 0.0
H771 H 0.93794 0.14126 0.70461 0.0
C772 C 0.90012 0.11975 0.68563 0.0
C773 C 0.87261 0.10845 0.6927 0.0
C774 C 0.92102 0.1384 0.80391 0.0
C775 C 0.90706 0.13237 0.74357 0.0
C776 C 0.93543 0.15386 0.82893 0.0
C777 C 0.95214 0.17832 0.82117 0.0
C778 C 0.92379 0.14696 0.77068 0.0
C779 C 0.95478 0.18576 0.78755 0.0
C780 C 0.91717 0.13198 0.7108 0.0
C781 C 0.8635 0.10892 0.7259 0.0
N782 N 0.94091 0.17016 0.76366 0.0
N783 N 0.88065 0.12052 0.75001 0.0
H784 H 0.45021 0.07029 0.40143 0.0
H785 H 0.27676 0.05664 0.40058 0.0
H786 H 0.39349 0.13853 0.43311 0.0
H787 H 0.33362 0.98385 0.38853 0.0
H788 H 0.31911 0.08808 0.40687 0.0
H789 H 0.40788 0.03957 0.39133 0.0
C790 C 0.42891 0.07892 0.40617 0.0
C791 C 0.42567 0.10715 0.4184 0.0
C792 C 0.32233 0.06525 0.40265 0.0
C793 C 0.37674 0.07187 0.40667 0.0
C794 C 0.29809 0.04726 0.3988 0.0
C795 C 0.3014 1.0174 0.39391 0.0
C796 C 0.35032 0.0535 0.40137 0.0
C797 C 0.3298 1.00665 0.39221 0.0
C798 C 0.40468 0.06127 0.40051 0.0
C799 C 0.3973 0.11686 0.42421 0.0
N800 N 0.353 1.02458 0.39593 0.0
N801 N 0.37411 0.09939 0.41825 0.0
H802 H 0.42001 0.40149 0.43764 0.0
H803 H 0.57355 0.33949 0.37946 0.0
H804 H 0.48526 0.45568 0.39359 0.0
H805 H 0.50047 0.28582 0.4041 0.0
H806 H 0.54287 0.38233 0.38571 0.0
H807 H 0.45042 0.35941 0.42766 0.0
C808 C 0.44084 0.40467 0.42607 0.0
C809 C 0.44999 0.43249 0.41673 0.0
C810 C 0.53351 0.36116 0.38947 0.0
C811 C 0.48524 0.38373 0.40487 0.0
C812 C 0.55103 0.33658 0.3858 0.0
C813 C 0.53973 0.30871 0.39106 0.0
C814 C 0.50443 0.35807 0.3989 0.0
C815 C 0.51032 0.30664 0.39957 0.0
C816 C 0.45817 0.38046 0.42011 0.0
C817 C 0.47711 0.4348 0.40115 0.0
N818 N 0.49391 0.33083 0.40341 0.0
N819 N 0.49377 0.41088 0.39594 0.0
H820 H 0.15201 0.43253 0.44451 0.0
H821 H 0.21817 0.58242 0.37823 0.0
H822 H 0.10007 0.49524 0.39298 0.0
H823 H 0.2698 0.50991 0.40917 0.0
H824 H 0.17451 0.55274 0.38552 0.0
H825 H 0.19465 0.46241 0.43469 0.0
C826 C 0.1494 0.45271 0.43135 0.0
C827 C 0.12202 0.46124 0.41982 0.0
C828 C 0.19543 0.54329 0.39049 0.0
C829 C 0.17155 0.49594 0.40813 0.0
C830 C 0.22047 0.56025 0.38625 0.0
C831 C 0.24805 0.54881 0.39284 0.0
C832 C 0.19771 0.51465 0.40187 0.0
C833 C 0.24928 0.51987 0.4035 0.0
C834 C 0.17397 0.46974 0.42549 0.0
C835 C 0.12057 0.48754 0.40228 0.0
N836 N 0.22468 0.50403 0.40782 0.0
N837 N 0.14481 0.50393 0.39718 0.0
H838 H 0.0657 0.10805 0.39855 0.0
H839 H 0.05566 0.28138 0.40889 0.0
H840 H 0.13464 0.16106 0.43685 0.0
H841 H 0.98231 0.2257 0.39243 0.0
H842 H 0.0865 0.23833 0.41355 0.0
H843 H 0.03645 0.15152 0.39066 0.0
C844 C 0.07479 0.1288 0.4052 0.0
C845 C 0.10274 0.13066 0.4186 0.0
C846 C 0.06367 0.2356 0.40875 0.0
C847 C 0.06917 0.18092 0.40946 0.0
C848 C 0.04606 0.26021 0.40588 0.0
C849 C 1.01625 0.25733 0.40022 0.0
C850 C 0.05149 0.20784 0.40562 0.0
C851 C 1.0051 0.22917 0.39685 0.0
C852 C 0.05798 0.15368 0.40081 0.0
C853 C 0.1131 0.15835 0.42692 0.0
N854 N 1.02262 0.20571 0.39956 0.0
N855 N 0.09644 0.18227 0.42215 0.0
H856 H 0.89881 0.92381 0.07308 0.0
H857 H 0.8385 0.07868 0.12809 0.0
H858 H 0.95291 0.99039 0.11464 0.0
H859 H 0.78276 1.00612 0.10801 0.0
H860 H 0.88048 0.04745 0.1209 0.0
H861 H 0.85648 0.95423 0.08271 0.0
C862 C 0.90191 0.94491 0.08403 0.0
C863 C 0.92977 0.95445 0.09284 0.0
C864 C 0.85911 0.03825 0.11825 0.0
C865 C 0.88086 0.98961 0.10421 0.0
C866 C 0.83498 0.05612 0.12236 0.0
C867 C 0.80678 0.04514 0.1188 0.0
C868 C 0.85535 1.00902 0.11002 0.0
C869 C 0.80393 1.01562 0.11126 0.0
C870 C 0.87759 0.96221 0.08977 0.0
C871 C 0.93203 0.98189 0.10756 0.0
N872 N 0.82781 0.99872 0.10692 0.0
N873 N 0.90805 0.99847 0.11254 0.0
H874 H 0.48382 0.83877 0.14363 0.0
H875 H 0.63123 0.90642 0.07194 0.0
H876 H 0.55196 0.78774 0.10088 0.0
H877 H 0.57067 0.95598 0.12938 0.0
H878 H 0.60131 0.86351 0.08024 0.0
H879 H 0.51405 0.88199 0.13728 0.0
C880 C 0.50519 0.83649 0.13315 0.0
C881 C 0.51521 0.8092 0.123 0.0
C882 C 0.59448 0.88374 0.09106 0.0
C883 C 0.55007 0.85921 0.11514 0.0
C884 C 0.61152 0.90848 0.08609 0.0
C885 C 0.60362 0.93529 0.09974 0.0
C886 C 0.56893 0.88542 0.10972 0.0
C887 C 0.57795 0.93597 0.11846 0.0
C888 C 0.52247 0.86132 0.12946 0.0
C889 C 0.54316 0.80804 0.10934 0.0
N890 N 0.56158 0.91161 0.12271 0.0
N891 N 0.55939 0.83252 0.1057 0.0
H892 H 0.59877 0.57054 0.11916 0.0
H893 H 0.77191 0.55622 0.11379 0.0
H894 H 0.65508 0.63649 0.08021 0.0
H895 H 0.71513 0.48449 0.13412 0.0
H896 H 0.72962 0.58744 0.1074 0.0
H897 H 0.64115 0.54029 0.13022 0.0
C898 C 0.61999 0.57876 0.11302 0.0
C899 C 0.62312 0.60616 0.09845 0.0
C900 C 0.72641 0.56491 0.1135 0.0
C901 C 0.67204 0.57149 0.11127 0.0
C902 C 0.75063 0.54705 0.11743 0.0
C903 C 0.74731 0.51753 0.12462 0.0
C904 C 0.69844 0.55337 0.11696 0.0
C905 C 0.71895 0.50704 0.12862 0.0
C906 C 0.64423 0.56138 0.11924 0.0
C907 C 0.65136 0.6154 0.09092 0.0
N908 N 0.69576 0.52484 0.12471 0.0
N909 N 0.67457 0.59823 0.09745 0.0
H910 H 1.00097 0.77657 0.10528 0.0
H911 H 0.9866 0.60408 0.12485 0.0
H912 H 0.07176 0.7222 0.13534 0.0
H913 H 0.92165 0.65733 0.07899 0.0
H914 H 1.01675 0.64715 0.13282 0.0
H915 H 0.97045 0.73359 0.09984 0.0
C916 C 1.0101 0.75569 0.11111 0.0
C917 C 0.03914 0.75328 0.12093 0.0
C918 C 0.99591 0.64941 0.12097 0.0
C919 C 1.00401 0.7035 0.11447 0.0
C920 C 0.97856 0.62476 0.11651 0.0
C921 C 0.9514 0.62676 0.10101 0.0
C922 C 0.98608 0.67658 0.11025 0.0
C923 C 0.9425 0.65438 0.09057 0.0
C924 C 0.99262 0.73103 0.10778 0.0
C925 C 0.04957 0.72534 0.12777 0.0
N926 N 0.95964 0.67802 0.09545 0.0
N927 N 0.03212 0.70171 0.12444 0.0
H928 H 0.77392 1.00112 0.60408 0.0
H929 H 0.60319 0.98111 0.63355 0.0
H930 H 0.71782 0.06885 0.63845 0.0
H931 H 0.65379 0.91969 0.57858 0.0
H932 H 0.64607 1.01149 0.63975 0.0
H933 H 0.73169 0.96903 0.59921 0.0
C934 C 0.75286 1.00919 0.61099 0.0
C935 C 0.74963 0.03788 0.62176 0.0
C936 C 0.64788 0.99138 0.6263 0.0
C937 C 0.70098 1.00114 0.61606 0.0
C938 C 0.62333 0.97388 0.62286 0.0
C939 C 0.62464 0.9476 0.60553 0.0
C940 C 0.67438 0.98265 0.61266 0.0
C941 C 0.65151 0.93981 0.59189 0.0
C942 C 0.72868 0.99089 0.60795 0.0
C943 C 0.72157 0.04706 0.62995 0.0
N944 N 0.67524 0.9571 0.59589 0.0
N945 N 0.69854 0.02886 0.62699 0.0
H946 H 0.56511 0.60107 0.61977 0.0
H947 H 0.54728 0.77383 0.61648 0.0
H948 H 0.63251 0.65958 0.58926 0.0
H949 H 0.47524 0.71527 0.62605 0.0
H950 H 0.57983 0.73234 0.61327 0.0
H951 H 0.53304 0.64253 0.62836 0.0
C952 C 0.57326 0.62259 0.615 0.0
C953 C 0.60163 0.62663 0.6035 0.0
C954 C 0.55692 0.72856 0.61634 0.0
C955 C 0.56489 0.67446 0.61351 0.0
C956 C 0.53827 0.75232 0.61845 0.0
C957 C 0.50829 0.74827 0.62162 0.0
C958 C 0.54574 0.70032 0.61761 0.0
C959 C 0.4981 0.71965 0.62366 0.0
C960 C 0.55486 0.64629 0.6198 0.0
C961 C 0.61076 0.65519 0.59761 0.0
N962 N 0.51669 0.6969 0.62157 0.0
N963 N 0.59257 0.67786 0.60272 0.0
H964 H 0.95116 0.57019 0.58539 0.0
H965 H 0.78328 0.55259 0.63368 0.0
H966 H 0.89848 0.64007 0.62128 0.0
H967 H 0.83771 0.48048 0.60869 0.0
H968 H 0.82504 0.58476 0.62861 0.0
H969 H 0.90992 0.53736 0.59201 0.0
C970 C 0.93095 0.57879 0.59443 0.0
C971 C 0.92866 0.60821 0.60281 0.0
C972 C 0.82796 0.56188 0.62443 0.0
C973 C 0.88094 0.57026 0.61078 0.0
C974 C 0.80403 0.54337 0.62746 0.0
C975 C 0.80672 0.51351 0.62186 0.0
C976 C 0.85508 0.55076 0.61538 0.0
C977 C 0.8344 0.50319 0.61359 0.0
C978 C 0.90738 0.55987 0.59847 0.0
C979 C 0.90172 0.61765 0.61487 0.0
N980 N 0.8573 0.52169 0.61045 0.0
N981 N 0.87913 0.59889 0.61838 0.0
H982 H 0.98628 0.95898 0.61688 0.0
H983 H 1.00117 0.78579 0.60844 0.0
H984 H 0.92025 0.90394 0.57575 0.0
H985 H 0.07227 0.84325 0.62913 0.0
H986 H 0.96954 0.82803 0.60176 0.0
H987 H 1.01633 0.91633 0.62664 0.0
C988 C 0.97798 0.93797 0.60999 0.0
C989 C 0.95058 0.93534 0.59525 0.0
C990 C 0.99204 0.83135 0.60796 0.0
C991 C 0.98514 0.88594 0.60656 0.0
C992 C 1.0101 0.80718 0.61202 0.0
C993 C 0.03956 0.81074 0.61948 0.0
C994 C 1.00334 0.85943 0.61167 0.0
C995 C 0.0498 0.8392 0.6234 0.0
C996 C 0.99526 0.91354 0.61546 0.0
C997 C 0.94131 0.9073 0.58669 0.0
N998 N 0.03184 0.86224 0.6195 0.0
N999 N 0.95842 0.88384 0.59254 0.0
H1000 H 0.15477 0.14468 0.91177 0.0
H1001 H 0.2123 0.98183 0.89395 0.0
H1002 H 0.10041 0.06903 0.91475 0.0
H1003 H 0.26955 0.05535 0.89219 0.0
H1004 H 0.17127 1.01427 0.89844 0.0
H1005 H 0.19665 0.1135 0.90162 0.0
C1006 C 0.15148 0.12159 0.91007 0.0
C1007 C 0.12373 0.10966 0.91443 0.0
C1008 C 0.19273 1.02347 0.89687 0.0
C1009 C 0.17201 0.07362 0.90296 0.0
C1010 C 0.21635 1.00485 0.89418 0.0
C1011 C 0.24473 1.01567 0.89266 0.0
C1012 C 0.1971 0.05346 0.89819 0.0
C1013 C 0.24819 0.04588 0.89314 0.0
C1014 C 0.17554 0.10376 0.90443 0.0
C1015 C 0.12123 0.07943 0.91224 0.0
N1016 N 0.22475 0.06365 0.89604 0.0
N1017 N 0.14487 0.06264 0.90676 0.0
H1018 H 0.42051 0.15656 0.9325 0.0
H1019 H 0.57637 0.2175 0.87894 0.0
H1020 H 0.48348 0.10432 0.88207 0.0
H1021 H 0.50492 0.27239 0.90519 0.0
H1022 H 0.54423 0.1754 0.88312 0.0
H1023 H 0.45264 0.19839 0.92675 0.0
C1024 C 0.44116 0.15374 0.92042 0.0
C1025 C 0.44908 0.1266 0.90777 0.0
C1026 C 0.53555 0.19668 0.88777 0.0
C1027 C 0.48631 0.17491 0.90099 0.0
C1028 C 0.55393 0.22083 0.88532 0.0
C1029 C 0.54351 0.24884 0.89146 0.0
C1030 C 0.50647 0.20027 0.89697 0.0
C1031 C 0.5141 0.25145 0.89991 0.0
C1032 C 0.45947 0.17779 0.91692 0.0
C1033 C 0.47614 0.1247 0.89197 0.0
N1034 N 0.49683 0.22763 0.9026 0.0
N1035 N 0.49371 0.14834 0.88919 0.0
H1036 H 0.45825 0.48977 0.89598 0.0
H1037 H 0.28524 0.50459 0.8995 0.0
H1038 H 0.40103 0.42238 0.92959 0.0
H1039 H 0.34236 0.57739 0.88668 0.0
H1040 H 0.32735 0.473 0.90403 0.0
H1041 H 0.4162 0.52092 0.88649 0.0
C1042 C 0.43689 0.48144 0.90127 0.0
C1043 C 0.43337 0.45336 0.91389 0.0
C1044 C 0.33069 0.49586 0.89999 0.0
C1045 C 0.3849 0.48901 0.90285 0.0
C1046 C 0.30657 0.51396 0.89714 0.0
C1047 C 0.31003 0.54387 0.89262 0.0
C1048 C 0.3587 0.50754 0.89812 0.0
C1049 C 0.33845 0.55456 0.89011 0.0
C1050 C 0.41286 0.49931 0.89595 0.0
C1051 C 0.40501 0.44396 0.92039 0.0
N1052 N 0.36156 0.5365 0.89293 0.0
N1053 N 0.38202 0.46162 0.91475 0.0
H1054 H 0.14417 0.3935 0.94344 0.0
H1055 H 0.99959 0.32633 0.86437 0.0
H1056 H 0.08604 0.43962 0.8791 0.0
H1057 H 0.06088 0.27352 0.9169 0.0
H1058 H 0.03171 0.36759 0.87029 0.0
H1059 H 0.11461 0.34973 0.93585 0.0
C1060 C 0.12518 0.39458 0.92787 0.0
C1061 C 0.11786 0.42058 0.91181 0.0
C1062 C 0.03844 0.34703 0.88037 0.0
C1063 C 0.08385 0.37017 0.90284 0.0
C1064 C 1.02003 0.32327 0.87691 0.0
C1065 C 1.02741 0.29615 0.89004 0.0
C1066 C 0.06469 0.34421 0.89751 0.0
C1067 C 0.05434 0.29383 0.90603 0.0
C1068 C 0.10842 0.36943 0.92335 0.0
C1069 C 0.09304 0.42024 0.89167 0.0
N1070 N 0.07185 0.31755 0.90958 0.0
N1071 N 0.07709 0.39569 0.88791 0.0
H1072 H 0.7471 0.20786 0.45471 0.0
H1073 H 0.87853 0.18362 0.47295 0.0
H1074 H 0.76368 0.17033 0.35888 0.0
H1075 H 0.87632 0.12836 0.38769 0.0
H1076 H 0.83014 0.16936 0.48638 0.0
H1077 H 0.78374 0.1767 0.47844 0.0
C1078 C 0.75854 0.19319 0.43856 0.0
C1079 C 0.75322 0.19289 0.40434 0.0
C1080 C 0.8401 0.15951 0.46506 0.0
C1081 C 0.795 0.15638 0.4316 0.0
C1082 C 0.86842 0.16734 0.45762 0.0
C1083 C 0.87983 0.16011 0.42654 0.0
C1084 C 0.82389 0.14513 0.44065 0.0
C1085 C 0.86675 0.13696 0.41 0.0
C1086 C 0.77931 0.17502 0.45228 0.0
C1087 C 0.76723 0.17192 0.38523 0.0
N1088 N 0.83849 0.13135 0.41606 0.0
N1089 N 0.78769 0.15491 0.39905 0.0
H1090 H 0.41251 0.72096 0.36803 0.0
H1091 H 0.4007 0.83961 0.43851 0.0
H1092 H 0.37758 0.77473 0.29101 0.0
H1093 H 0.40869 0.88368 0.34521 0.0
H1094 H 0.42909 0.80022 0.41661 0.0
H1095 H 0.44334 0.76112 0.3857 0.0
C1096 C 0.41217 0.74086 0.354 0.0
C1097 C 0.39179 0.745 0.32872 0.0
C1098 C 0.42594 0.81896 0.40117 0.0
C1099 C 0.42632 0.79093 0.34903 0.0
C1100 C 0.4096 0.84165 0.41386 0.0
C1101 C 0.40007 0.86359 0.39259 0.0
C1102 C 0.43162 0.81823 0.36701 0.0
C1103 C 0.41376 0.86607 0.36179 0.0
C1104 C 0.42969 0.76381 0.36418 0.0
C1105 C 0.39252 0.77087 0.311 0.0
N1106 N 0.42788 0.84292 0.34925 0.0
N1107 N 0.40908 0.79302 0.32185 0.0
H1108 H 0.33775 0.65386 0.24293 0.0
H1109 H 0.21021 0.64862 0.1747 0.0
H1110 H 0.29244 0.73352 0.26344 0.0
H1111 H 0.17549 0.68836 0.26228 0.0
H1112 H 0.25222 0.63363 0.20638 0.0
H1113 H 0.29208 0.62787 0.24889 0.0
C1114 C 0.31864 0.66605 0.24909 0.0
C1115 C 0.31912 0.69651 0.25045 0.0
C1116 C 0.23469 0.64415 0.2193 0.0
C1117 C 0.2674 0.66634 0.25974 0.0
C1118 C 0.21067 0.65291 0.20102 0.0
C1119 C 0.1905 0.67171 0.21527 0.0
C1120 C 0.23856 0.65522 0.25134 0.0
C1121 C 0.19143 0.67533 0.24972 0.0
C1122 C 0.29271 0.65093 0.25317 0.0
C1123 C 0.29381 0.71039 0.26106 0.0
N1124 N 0.21587 0.66839 0.26639 0.0
N1125 N 0.26908 0.69523 0.26486 0.0
H1126 H 0.82668 0.34642 0.02666 0.0
H1127 H 0.83785 0.18275 0.03421 0.0
H1128 H 0.75997 0.28187 0.01978 0.0
H1129 H 0.89027 0.24488 0.086 0.0
H1130 H 0.82779 0.21842 0.99205 0.0
H1131 H 0.8623 0.3104 0.00993 0.0
C1132 C 0.81932 0.32503 0.01978 0.0
C1133 C 0.79069 0.31655 0.02567 0.0
C1134 C 0.84292 0.2238 0.01153 0.0
C1135 C 0.83111 0.27559 1.0072 0.0
C1136 C 0.84886 0.20328 0.03574 0.0
C1137 C 0.8637 0.21129 0.06462 0.0
C1138 C 0.85129 0.25248 0.01688 0.0
C1139 C 0.87745 0.23828 0.06492 0.0
C1140 C 0.83968 0.30451 0.01031 0.0
C1141 C 0.78208 0.28885 0.01633 0.0
N1142 N 0.86998 0.25841 0.04205 0.0
N1143 N 0.8024 0.26904 0.00829 0.0
H1144 H 0.2386 0.89184 0.55177 0.0
H1145 H 0.27698 0.75609 0.484 0.0
H1146 H 0.17671 0.83169 0.51222 0.0
H1147 H 0.3374 0.82662 0.49021 0.0
H1148 H 0.2394 0.78991 0.46794 0.0
H1149 H 0.27136 0.8797 0.5068 0.0
C1150 C 0.23127 0.87722 0.53263 0.0
C1151 C 0.2053 0.86202 0.53636 0.0
C1152 C 0.26108 0.79811 0.47157 0.0
C1153 C 0.24305 0.84701 0.48581 0.0
C1154 C 0.28256 0.77861 0.48062 0.0
C1155 C 0.30979 0.78885 0.48992 0.0
C1156 C 0.26664 0.82795 0.47411 0.0
C1157 C 0.31623 0.81806 0.48438 0.0
C1158 C 0.25 0.8702 0.50684 0.0
C1159 C 0.19665 0.84369 0.51058 0.0
N1160 N 0.29446 0.83688 0.4782 0.0
N1161 N 0.21585 0.83594 0.48697 0.0
H1162 H 0.6372 0.20753 0.59224 0.0
H1163 H 0.74845 0.28908 0.50504 0.0
H1164 H 0.70916 0.17311 0.53809 0.0
H1165 H 0.67963 0.31958 0.56701 0.0
H1166 H 0.71688 0.25005 0.48558 0.0
H1167 H 0.63181 0.24491 0.55027 0.0
C1168 C 0.65091 0.20698 0.57058 0.0
C1169 C 0.67448 0.1882 0.56924 0.0
C1170 C 0.70819 0.26603 0.50235 0.0
C1171 C 0.67031 0.23221 0.52329 0.0
C1172 C 0.7263 0.28819 0.51353 0.0
C1173 C 0.7168 0.30654 0.53873 0.0
C1174 C 0.6811 0.26196 0.51755 0.0
C1175 C 0.68786 0.30516 0.5483 0.0
C1176 C 0.648 0.22841 0.54656 0.0
C1177 C 0.69128 0.18794 0.54047 0.0
N1178 N 0.67119 0.28281 0.5383 0.0
N1179 N 0.68962 0.21041 0.51908 0.0
H1180 H 0.87217 0.42798 0.85547 0.0
H1181 H 0.745 0.38943 0.88055 0.0
H1182 H 0.89744 0.37984 0.94169 0.0
H1183 H 0.78179 0.33367 0.95459 0.0
H1184 H 0.78274 0.4247 0.89117 0.0
H1185 H 0.82661 0.43893 0.88165 0.0
C1186 C 0.86861 0.4207 0.88059 0.0
C1187 C 0.88705 0.40027 0.89491 0.0
C1188 C 0.78284 0.40491 0.90528 0.0
C1189 C 0.83452 0.41092 0.92421 0.0
C1190 C 0.76118 0.38472 0.89913 0.0
C1191 C 0.76126 0.35809 0.91559 0.0
C1192 C 0.80536 0.39788 0.92723 0.0
C1193 C 0.78157 0.35361 0.94066 0.0
C1194 C 0.84212 0.42646 0.89552 0.0
C1195 C 0.88255 0.39358 0.92838 0.0
N1196 N 0.80325 0.37297 0.94512 0.0
N1197 N 0.85594 0.39757 0.94146 0.0
H1198 H 0.17303 0.82574 1.00375 0.0
H1199 H 0.29181 0.74244 0.03897 0.0
H1200 H 0.24769 0.85635 0.057 0.0
H1201 H 0.20859 0.71004 0.00899 0.0
H1202 H 0.26805 0.77537 0.07695 0.0
H1203 H 0.17193 0.78361 0.03892 0.0
C1204 C 0.18884 0.82422 0.02337 0.0
C1205 C 0.21255 0.8431 0.02491 0.0
C1206 C 0.2548 0.76046 0.06295 0.0
C1207 C 0.21262 0.79359 0.06311 0.0
C1208 C 0.26852 0.74158 0.04117 0.0
C1209 C 0.25196 0.72518 0.01911 0.0
C1210 C 0.22461 0.76388 0.06092 0.0
C1211 C 0.22201 0.72398 0.02405 0.0
C1212 C 0.18823 0.79985 0.04362 0.0
C1213 C 0.23087 0.84061 0.05251 0.0
N1214 N 0.20913 0.74386 0.04367 0.0
N1215 N 0.23142 0.81548 0.06973 0.0
H1216 H 0.67936 0.17684 0.40391 0.0
H1217 H 0.72856 0.09158 0.56718 0.0
H1218 H 0.62448 0.16359 0.48851 0.0
H1219 H 0.78781 0.1182 0.49136 0.0
H1220 H 0.68815 0.10821 0.53298 0.0
H1221 H 0.71643 0.14688 0.43004 0.0
C1222 C 0.67506 0.16776 0.42803 0.0
C1223 C 0.64873 0.17337 0.44413 0.0
C1224 C 0.7099 0.10996 0.52342 0.0
C1225 C 0.69165 0.13891 0.47451 0.0
C1226 C 0.73301 0.1001 0.54277 0.0
C1227 C 0.76166 0.10317 0.5319 0.0
C1228 C 0.71532 0.12356 0.493 0.0
C1229 C 0.76609 0.11503 0.50043 0.0
C1230 C 0.69635 0.15062 0.44295 0.0
C1231 C 0.64436 0.16016 0.47507 0.0
N1232 N 0.74325 0.12502 0.48225 0.0
N1233 N 0.66557 0.1438 0.48925 0.0
H1234 H 0.43492 0.79959 0.48049 0.0
H1235 H 0.39921 0.63085 0.48247 0.0
H1236 H 0.47281 0.74154 0.55127 0.0
H1237 H 0.37602 0.68787 0.40241 0.0
H1238 H 0.42839 0.6699 0.5067 0.0
H1239 H 0.41665 0.75807 0.44932 0.0
C1240 C 0.44056 0.77804 0.48861 0.0
C1241 C 0.45607 0.7741 0.51809 0.0
C1242 C 0.41714 0.67372 0.48365 0.0
C1243 C 0.43372 0.72618 0.48345 0.0
C1244 C 0.40039 0.6514 0.46979 0.0
C1245 C 0.38493 0.65586 0.44027 0.0
C1246 C 0.41835 0.70091 0.4681 0.0
C1247 C 0.38741 0.68316 0.42515 0.0
C1248 C 0.42972 0.75428 0.47108 0.0
C1249 C 0.46157 0.7456 0.52827 0.0
N1250 N 0.40348 0.70451 0.43929 0.0
N1251 N 0.45001 0.7228 0.51135 0.0
H1252 H 0.92294 0.40841 0.47548 0.0
H1253 H 0.75243 0.42037 0.49797 0.0
H1254 H 0.86146 0.36546 0.41209 0.0
H1255 H 0.81066 0.48097 0.5436 0.0
H1256 H 0.79235 0.40139 0.46518 0.0
H1257 H 0.88312 0.43598 0.50014 0.0
C1258 C 0.9012 0.40488 0.46649 0.0
C1259 C 0.89576 0.38432 0.44162 0.0
C1260 C 0.79645 0.41929 0.48174 0.0
C1261 C 0.84987 0.41583 0.4701 0.0
C1262 C 0.77351 0.43037 0.50023 0.0
C1263 C 0.77801 0.45278 0.523 0.0
C1264 C 0.82454 0.43006 0.48652 0.0
C1265 C 0.80605 0.46422 0.52571 0.0
C1266 C 0.87844 0.42073 0.4806 0.0
C1267 C 0.86696 0.38089 0.43115 0.0
N1268 N 0.82833 0.45246 0.50809 0.0
N1269 N 0.84527 0.39618 0.44558 0.0
H1270 H 0.0761 0.82168 0.55213 0.0
H1271 H 0.18242 0.86926 0.40539 0.0
H1272 H 0.12746 0.76254 0.49534 0.0
H1273 H 0.15037 0.92888 0.47848 0.0
H1274 H 0.15332 0.83111 0.43008 0.0
H1275 H 0.0931 0.8615 0.51697 0.0
C1276 C 0.08979 0.81684 0.53118 0.0
C1277 C 0.09965 0.78853 0.52603 0.0
C1278 C 0.15232 0.85259 0.44054 0.0
C1279 C 0.12015 0.83427 0.48636 0.0
C1280 C 0.16905 0.87456 0.42644 0.0
C1281 C 0.16916 0.90262 0.43982 0.0
C1282 C 0.13528 0.85834 0.46842 0.0
C1283 C 0.15115 0.90772 0.46722 0.0
C1284 C 0.09991 0.83969 0.51146 0.0
C1285 C 0.11861 0.78382 0.49957 0.0
N1286 N 0.13514 0.88582 0.4807 0.0
N1287 N 0.1283 0.80637 0.48089 0.0
H1288 H 0.29799 0.93271 0.02592 0.0
H1289 H 0.12992 0.89731 0.03014 0.0
H1290 H 0.2373 0.97665 0.96314 0.0
H1291 H 0.18757 0.87516 0.10998 0.0
H1292 H 0.16829 0.92696 1.00563 0.0
H1293 H 0.25779 0.9131 0.0582 0.0
C1294 C 0.2762 0.93935 0.01988 0.0
C1295 C 0.27118 0.95728 0.99246 0.0
C1296 C 0.17242 0.91591 0.02874 0.0
C1297 C 0.22456 0.93321 0.02815 0.0
C1298 C 0.15048 0.89882 0.04276 0.0
C1299 C 0.15532 0.88339 0.07225 0.0
C1300 C 0.19967 0.91756 0.04403 0.0
C1301 C 0.18263 0.8864 0.08722 0.0
C1302 C 0.25315 0.92772 0.03801 0.0
C1303 C 0.2423 0.9638 0.98474 0.0
N1304 N 0.20367 0.90285 0.0729 0.0
N1305 N 0.22014 0.95144 1.00208 0.0
H1306 H 0.69994 0.19815 0.10475 0.0
H1307 H 0.5782 0.24497 0.97351 0.0
H1308 H 0.65277 0.13575 0.04669 0.0
H1309 H 0.64638 0.30084 0.00761 0.0
H1310 H 0.59761 0.20602 0.00875 0.0
H1311 H 0.67316 0.23679 0.07774 0.0
C1312 C 0.68374 0.19242 0.08657 0.0
C1313 C 0.67886 0.16338 0.07802 0.0
C1314 C 0.60792 0.22701 0.00903 0.0
C1315 C 0.64774 0.20814 0.04676 0.0
C1316 C 0.59656 0.24937 0.98935 0.0
C1317 C 0.61037 0.27638 0.98812 0.0
C1318 C 0.63306 0.23182 0.02787 0.0
C1319 C 0.63479 0.28052 0.0082 0.0
C1320 C 0.66846 0.21465 0.07103 0.0
C1321 C 0.65747 0.1577 0.05408 0.0
N1322 N 0.64529 0.2586 0.02712 0.0
N1323 N 0.64277 0.17982 0.03928 0.0
H1324 H 0.31761 0.58076 0.96724 0.0
H1325 H 0.36576 0.69498 0.10698 0.0
H1326 H 0.25841 0.63341 0.02249 0.0
H1327 H 0.42591 0.65783 0.03777 0.0
H1328 H 0.32701 0.66667 0.0819 0.0
H1329 H 0.35795 0.60187 0.99894 0.0
C1330 C 0.31297 0.59575 0.98707 0.0
C1331 C 0.28444 0.60465 0.99289 0.0
C1332 C 0.34869 0.66452 0.07225 0.0
C1333 C 0.33062 0.62976 0.02852 0.0
C1334 C 0.37098 0.68075 0.08663 0.0
C1335 C 0.39941 0.67908 0.07453 0.0
C1336 C 0.35455 0.64602 0.04556 0.0
C1337 C 0.40445 0.66006 0.04798 0.0
C1338 C 0.33606 0.60825 1.00473 0.0
C1339 C 0.27992 0.62529 0.01779 0.0
N1340 N 0.38234 0.64437 0.03443 0.0
N1341 N 0.30261 0.63708 0.03454 0.0
H1342 H 0.86036 0.36616 0.09992 0.0
H1343 H 0.96348 0.32562 0.94836 0.0
H1344 H 0.89715 0.42964 0.03413 0.0
H1345 H 0.92944 0.26242 0.01595 0.0
H1346 H 0.94337 0.3641 0.98256 0.0
H1347 H 0.88818 0.3287 0.07233 0.0
C1348 C 0.8745 0.37244 0.07986 0.0
C1349 C 0.87628 0.40148 0.06955 0.0
C1350 C 0.94078 0.34192 0.99049 0.0
C1351 C 0.90856 0.35793 0.03749 0.0
C1352 C 0.95258 0.31989 0.97114 0.0
C1353 C 0.9487 0.29071 0.97966 0.0
C1354 C 0.92447 0.33495 0.01862 0.0
C1355 C 0.9336 0.28457 0.00889 0.0
C1356 C 0.89048 0.35083 0.06409 0.0
C1357 C 0.89504 0.40777 0.04319 0.0
N1358 N 0.92185 0.30646 0.02714 0.0
N1359 N 0.91025 0.38623 0.02805 0.0
H1360 H 0.36012 0.86768 0.60149 0.0
H1361 H 0.31421 0.97302 0.45399 0.0
H1362 H 0.42118 0.90102 0.53059 0.0
H1363 H 0.25483 0.93726 0.52463 0.0
H1364 H 0.35464 0.95333 0.48599 0.0
H1365 H 0.32289 0.89825 0.57776 0.0
C1366 C 0.36587 0.88163 0.58103 0.0
C1367 C 0.39402 0.88145 0.56795 0.0
C1368 C 0.33285 0.95037 0.49505 0.0
C1369 C 0.35081 0.91694 0.54031 0.0
C1370 C 0.30974 0.96201 0.47702 0.0
C1371 C 0.2811 0.95714 0.48699 0.0
C1372 C 0.3273 0.93349 0.52323 0.0
C1373 C 0.27657 0.94183 0.51639 0.0
C1374 C 0.34444 0.8992 0.56747 0.0
C1375 C 0.3999 0.90035 0.54157 0.0
N1376 N 0.29932 0.93037 0.53328 0.0
N1377 N 0.37844 0.91708 0.52842 0.0
H1378 H 0.66839 0.4305 0.5186 0.0
H1379 H 0.58984 0.27495 0.52399 0.0
H1380 H 0.66351 0.37971 0.60768 0.0
H1381 H 0.6242 0.31471 0.43615 0.0
H1382 H 0.60619 0.31742 0.55625 0.0
H1383 H 0.64127 0.39281 0.48934 0.0
C1384 C 0.66104 0.41176 0.53223 0.0
C1385 C 0.66843 0.40827 0.56564 0.0
C1386 C 0.60972 0.31693 0.52981 0.0
C1387 C 0.63714 0.36485 0.53222 0.0
C1388 C 0.60027 0.29278 0.51144 0.0
C1389 C 0.60578 0.29122 0.47736 0.0
C1390 C 0.62425 0.33981 0.51381 0.0
C1391 C 0.61967 0.31487 0.4624 0.0
C1392 C 0.6457 0.39009 0.51544 0.0
C1393 C 0.65848 0.38325 0.58186 0.0
N1394 N 0.62836 0.33798 0.48058 0.0
N1395 N 0.64334 0.36259 0.56508 0.0
H1396 H 0.23965 0.58437 0.46687 0.0
H1397 H 0.1964 0.70956 0.59523 0.0
H1398 H 0.2983 0.6498 0.5016 0.0
H1399 H 0.13271 0.65934 0.5426 0.0
H1400 H 0.23448 0.68232 0.56797 0.0
H1401 H 0.20134 0.60539 0.50157 0.0
C1402 C 0.24476 0.60245 0.48282 0.0
C1403 C 0.27247 0.61484 0.48212 0.0
C1404 C 0.2122 0.67708 0.56244 0.0
C1405 C 0.22849 0.63966 0.52104 0.0
C1406 C 0.19027 0.69266 0.57811 0.0
C1407 C 0.16099 0.68699 0.57129 0.0
C1408 C 0.20519 0.65527 0.53968 0.0
C1409 C 0.15483 0.66468 0.54868 0.0
C1410 C 0.22276 0.61475 0.50219 0.0
C1411 C 0.2775 0.63911 0.50208 0.0
N1412 N 0.17667 0.64971 0.53371 0.0
N1413 N 0.25584 0.65066 0.52061 0.0
H1414 H 0.85116 0.1962 0.60071 0.0
H1415 H 0.97438 0.24608 0.47224 0.0
H1416 H 0.89778 0.13564 0.54009 0.0
H1417 H 0.91265 0.30374 0.51599 0.0
H1418 H 0.95295 0.20583 0.50372 0.0
H1419 H 0.87884 0.23558 0.57616 0.0
C1420 C 0.86735 0.19101 0.58239 0.0
C1421 C 0.87191 0.1622 0.57265 0.0
C1422 C 0.94459 0.22742 0.50716 0.0
C1423 C 0.90426 0.20797 0.54417 0.0
C1424 C 0.95725 0.25056 0.4897 0.0
C1425 C 0.94605 0.27867 0.49236 0.0
C1426 C 0.92044 0.2323 0.52752 0.0
C1427 C 0.92265 0.28272 0.51395 0.0
C1428 C 0.88321 0.2137 0.56827 0.0
C1429 C 0.89332 0.15733 0.54852 0.0
N1430 N 0.9107 0.25996 0.53053 0.0
N1431 N 0.90865 0.17986 0.53523 0.0
H1432 H 0.85998 0.2055 0.90975 0.0
H1433 H 0.81452 0.08576 0.04474 0.0
H1434 H 0.92042 0.16351 0.97502 0.0
H1435 H 0.7553 0.14964 0.00807 0.0
H1436 H 0.85234 0.10597 0.00883 0.0
H1437 H 0.8206 0.17787 0.93565 0.0
C1438 C 0.86509 0.19036 0.92929 0.0
C1439 C 0.89376 0.18713 0.94022 0.0
C1440 C 0.83084 0.11506 0.00787 0.0
C1441 C 0.84855 0.15495 0.96976 0.0
C1442 C 0.80909 0.10318 0.02798 0.0
C1443 C 0.78137 0.11538 0.02863 0.0
C1444 C 0.82491 0.13933 0.98802 0.0
C1445 C 0.77608 0.139 0.00762 0.0
C1446 C 0.84253 0.17454 0.94406 0.0
C1447 C 0.89878 0.16708 0.96581 0.0
N1448 N 0.79754 0.15017 0.98827 0.0
N1449 N 0.87656 0.15186 0.97957 0.0
H1450 H 0.3959 0.92995 0.97758 0.0
H1451 H 0.43399 0.76155 1.0003 0.0
H1452 H 0.35979 0.86255 0.91661 0.0
H1453 H 0.45639 0.82765 0.07059 0.0
H1454 H 0.41418 0.79905 0.96344 0.0
H1455 H 0.42518 0.89368 1.00615 0.0
C1456 C 0.39434 0.90763 0.96987 0.0
C1457 C 0.37507 0.89945 0.9447 0.0
C1458 C 0.42395 0.8054 0.98665 0.0
C1459 C 0.40869 0.85753 0.97754 0.0
C1460 C 0.43557 0.78401 0.00746 0.0
C1461 C 0.44709 0.79157 0.03834 0.0
C1462 C 0.42395 0.83451 0.99683 0.0
C1463 C 0.44787 0.82095 0.04685 0.0
C1464 C 0.41103 0.88685 0.98631 0.0
C1465 C 0.3741 0.87001 0.93598 0.0
N1466 N 0.43637 0.84124 0.02639 0.0
N1467 N 0.39047 0.85021 0.95242 0.0
H1468 H 0.79583 0.42518 0.99915 0.0
H1469 H 0.62639 0.40154 0.98262 0.0
H1470 H 0.73653 0.47912 0.05259 0.0
H1471 H 0.68814 0.3729 0.91002 0.0
H1472 H 0.6648 0.43033 0.00913 0.0
H1473 H 0.75543 0.40597 0.96718 0.0
C1474 C 0.77446 0.43402 1.003 0.0
C1475 C 0.76976 0.45458 0.02778 0.0
C1476 C 0.66976 0.41795 0.98718 0.0
C1477 C 0.723 0.43171 0.99157 0.0
C1478 C 0.64783 0.40147 0.97201 0.0
C1479 C 0.65389 0.38439 0.94408 0.0
C1480 C 0.69806 0.41717 0.97457 0.0
C1481 C 0.68224 0.38529 0.93162 0.0
C1482 C 0.75134 0.42286 0.98481 0.0
C1483 C 0.74124 0.46405 0.03289 0.0
N1484 N 0.7031 0.40103 0.94705 0.0
N1485 N 0.71887 0.45229 0.01526 0.0
H1486 H 0.12338 0.79802 0.99557 0.0
H1487 H 0.15758 0.62802 0.98379 0.0
H1488 H 0.09046 0.7352 0.0643 0.0
H1489 H 0.19106 0.69167 0.91593 0.0
H1490 H 0.12858 0.66596 0.01011 0.0
H1491 H 0.14338 0.75859 0.962 0.0
C1492 C 0.11932 0.77587 1.00282 0.0
C1493 C 0.10462 0.76984 0.03229 0.0
C1494 C 0.1421 0.67153 0.98924 0.0
C1495 C 0.12844 0.7245 0.99483 0.0
C1496 C 0.15862 0.64979 0.97412 0.0
C1497 C 0.17698 0.65643 0.94755 0.0
C1498 C 0.14383 0.70023 0.97777 0.0
C1499 C 0.17742 0.68528 0.93637 0.0
C1500 C 0.13114 0.75333 0.98397 0.0
C1501 C 0.1011 0.74074 0.04133 0.0
N1502 N 0.16134 0.70596 0.95155 0.0
N1503 N 0.11306 0.71926 0.02291 0.0
loop_
_geom_bond_atom_site_label_1
_geom_bond_atom_site_label_2
_geom_bond_distance
_geom_bond_site_symmetry_2
_ccdc_geom_bond_type
Tb0 C9 2.764 . S
Tb0 O10 2.325 . S
Tb0 O13 2.303 . S
Tb0 O17 2.322 . S
Tb0 O18 2.349 . S
Tb0 O21 2.415 . S
Tb0 O22 2.399 . S
Tb1 O11 2.322 . S
Tb1 O12 2.349 . S
Tb1 O14 2.415 . S
Tb1 O15 2.399 . S
Tb1 O16 2.325 . S
Tb1 O19 2.303 . S
Tb1 C30 2.764 . S
C2 O18 1.261 . S
C2 O19 1.257 . S
C3 C6 1.358 . S
C3 C7 1.332 . S
C3 C9 1.504 . S
C4 C5 1.373 . S
C4 C8 1.308 . S
C5 C4 1.373 . S
C5 C6 1.429 . S
C5 H32 0.932 . S
C6 C3 1.358 . S
C6 C5 1.429 . S
C6 H33 0.930 . S
C7 C3 1.332 . S
C7 C8 1.394 . S
C7 H34 0.932 . S
C8 C4 1.308 . S
C8 C7 1.394 . S
C8 H35 0.929 . S
C9 Tb0 2.764 . S
C9 C3 1.504 . S
C9 O21 1.239 . S
C9 O22 1.263 . S
O10 Tb0 2.325 . S
O10 C20 1.236 . S
O11 Tb1 2.322 . S
O11 C20 1.257 . S
O12 Tb1 2.349 . S
O12 C23 1.261 . S
O13 Tb0 2.303 . S
O13 C23 1.257 . S
O14 Tb1 2.415 . S
O14 C30 1.239 . S
O15 Tb1 2.399 . S
O15 C30 1.263 . S
O16 Tb1 2.325 . S
O16 C31 1.236 . S
O17 Tb0 2.322 . S
O17 C31 1.257 . S
O18 Tb0 2.349 . S
O18 C2 1.261 . S
O19 Tb1 2.303 . S
O19 C2 1.257 . S
C20 O10 1.236 . S
C20 O11 1.257 . S
O21 Tb0 2.415 . S
O21 C9 1.239 . S
O22 Tb0 2.399 . S
O22 C9 1.263 . S
C23 O12 1.261 . S
C23 O13 1.257 . S
C24 C27 1.358 . S
C24 C28 1.332 . S
C24 C30 1.504 . S
C25 C26 1.373 . S
C25 C29 1.308 . S
C26 C25 1.373 . S
C26 C27 1.429 . S
C26 H36 0.932 . S
C27 C24 1.358 . S
C27 C26 1.429 . S
C27 H37 0.930 . S
C28 C24 1.332 . S
C28 C29 1.394 . S
C28 H38 0.932 . S
C29 C25 1.308 . S
C29 C28 1.394 . S
C29 H39 0.929 . S
C30 Tb1 2.764 . S
C30 O14 1.239 . S
C30 O15 1.263 . S
C30 C24 1.504 . S
C31 O16 1.236 . S
C31 O17 1.257 . S
H32 C5 0.932 . S
H33 C6 0.930 . S
H34 C7 0.932 . S
H35 C8 0.929 . S
H36 C26 0.932 . S
H37 C27 0.930 . S
H38 C28 0.932 . S
H39 C29 0.929 . S
Tb40 C49 2.764 . S
Tb40 O50 2.325 . S
Tb40 O53 2.303 . S
Tb40 O57 2.322 . S
Tb40 O58 2.349 . S
Tb40 O61 2.415 . S
Tb40 O62 2.399 . S
Tb41 O51 2.322 . S
Tb41 O52 2.349 . S
Tb41 O54 2.415 . S
Tb41 O55 2.399 . S
Tb41 O56 2.325 . S
Tb41 O59 2.303 . S
Tb41 C70 2.764 . S
C42 O58 1.261 . S
C42 O59 1.257 . S
C43 C46 1.358 . S
C43 C47 1.332 . S
C43 C49 1.504 . S
C44 C45 1.373 . S
C44 C48 1.308 . S
C45 C44 1.373 . S
C45 C46 1.429 . S
C45 H72 0.932 . S
C46 C43 1.358 . S
C46 C45 1.429 . S
C46 H73 0.930 . S
C47 C43 1.332 . S
C47 C48 1.394 . S
C47 H74 0.932 . S
C48 C44 1.308 . S
C48 C47 1.394 . S
C48 H75 0.929 . S
C49 Tb40 2.764 . S
C49 C43 1.504 . S
C49 O61 1.239 . S
C49 O62 1.263 . S
O50 Tb40 2.325 . S
O50 C60 1.236 . S
O51 Tb41 2.322 . S
O51 C60 1.257 . S
O52 Tb41 2.349 . S
O52 C63 1.261 . S
O53 Tb40 2.303 . S
O53 C63 1.257 . S
O54 Tb41 2.415 . S
O54 C70 1.239 . S
O55 Tb41 2.399 . S
O55 C70 1.263 . S
O56 Tb41 2.325 . S
O56 C71 1.236 . S
O57 Tb40 2.322 . S
O57 C71 1.257 . S
O58 Tb40 2.349 . S
O58 C42 1.261 . S
O59 Tb41 2.303 . S
O59 C42 1.257 . S
C60 O50 1.236 . S
C60 O51 1.257 . S
O61 Tb40 2.415 . S
O61 C49 1.239 . S
O62 Tb40 2.399 . S
O62 C49 1.263 . S
C63 O52 1.261 . S
C63 O53 1.257 . S
C64 C67 1.358 . S
C64 C68 1.332 . S
C64 C70 1.504 . S
C65 C66 1.373 . S
C65 C69 1.308 . S
C66 C65 1.373 . S
C66 C67 1.429 . S
C66 H76 0.932 . S
C67 C64 1.358 . S
C67 C66 1.429 . S
C67 H77 0.930 . S
C68 C64 1.332 . S
C68 C69 1.394 . S
C68 H78 0.932 . S
C69 C65 1.308 . S
C69 C68 1.394 . S
C69 H79 0.929 . S
C70 Tb41 2.764 . S
C70 O54 1.239 . S
C70 O55 1.263 . S
C70 C64 1.504 . S
C71 O56 1.236 . S
C71 O57 1.257 . S
H72 C45 0.932 . S
H73 C46 0.930 . S
H74 C47 0.932 . S
H75 C48 0.929 . S
H76 C66 0.932 . S
H77 C67 0.930 . S
H78 C68 0.932 . S
H79 C69 0.929 . S
Tb80 C89 2.764 1_655 S
Tb80 O90 2.325 1_655 S
Tb80 O93 2.303 . S
Tb80 O97 2.322 . S
Tb80 O98 2.349 . S
Tb80 O101 2.415 1_655 S
Tb80 O102 2.399 1_655 S
Tb81 O91 2.322 . S
Tb81 O92 2.349 . S
Tb81 O94 2.415 . S
Tb81 O95 2.399 . S
Tb81 O96 2.325 . S
Tb81 O99 2.303 . S
Tb81 C110 2.764 . S
C82 O98 1.261 . S
C82 O99 1.257 . S
C83 C86 1.358 . S
C83 C87 1.332 . S
C83 C89 1.504 . S
C84 C85 1.373 . S
C84 C88 1.308 . S
C85 C84 1.373 . S
C85 C86 1.429 . S
C85 H112 0.932 . S
C86 C83 1.358 . S
C86 C85 1.429 . S
C86 H113 0.930 . S
C87 C83 1.332 . S
C87 C88 1.394 . S
C87 H114 0.932 . S
C88 C84 1.308 . S
C88 C87 1.394 . S
C88 H115 0.929 . S
C89 Tb80 2.764 1_455 S
C89 C83 1.504 . S
C89 O101 1.239 . S
C89 O102 1.263 . S
O90 Tb80 2.325 1_455 S
O90 C100 1.236 1_455 S
O91 Tb81 2.322 . S
O91 C100 1.257 . S
O92 Tb81 2.349 . S
O92 C103 1.261 . S
O93 Tb80 2.303 . S
O93 C103 1.257 . S
O94 Tb81 2.415 . S
O94 C110 1.239 . S
O95 Tb81 2.399 . S
O95 C110 1.263 . S
O96 Tb81 2.325 . S
O96 C111 1.236 . S
O97 Tb80 2.322 . S
O97 C111 1.257 . S
O98 Tb80 2.349 . S
O98 C82 1.261 . S
O99 Tb81 2.303 . S
O99 C82 1.257 . S
C100 O90 1.236 1_655 S
C100 O91 1.257 . S
O101 Tb80 2.415 1_455 S
O101 C89 1.239 . S
O102 Tb80 2.399 1_455 S
O102 C89 1.263 . S
C103 O92 1.261 . S
C103 O93 1.257 . S
C104 C107 1.358 . S
C104 C108 1.332 . S
C104 C110 1.504 . S
C105 C106 1.373 . S
C105 C109 1.308 . S
C106 C105 1.373 . S
C106 C107 1.429 . S
C106 H116 0.932 . S
C107 C104 1.358 . S
C107 C106 1.429 . S
C107 H117 0.930 . S
C108 C104 1.332 . S
C108 C109 1.394 . S
C108 H118 0.932 . S
C109 C105 1.308 . S
C109 C108 1.394 . S
C109 H119 0.929 . S
C110 Tb81 2.764 . S
C110 O94 1.239 . S
C110 O95 1.263 . S
C110 C104 1.504 . S
C111 O96 1.236 . S
C111 O97 1.257 . S
H112 C85 0.932 . S
H113 C86 0.930 . S
H114 C87 0.932 . S
H115 C88 0.929 . S
H116 C106 0.932 . S
H117 C107 0.930 . S
H118 C108 0.932 . S
H119 C109 0.929 . S
Tb120 C129 2.764 1_565 S
Tb120 O130 2.325 1_565 S
Tb120 O133 2.303 . S
Tb120 O137 2.322 . S
Tb120 O138 2.349 . S
Tb120 O141 2.415 1_565 S
Tb120 O142 2.399 1_565 S
Tb121 O131 2.322 . S
Tb121 O132 2.349 . S
Tb121 O134 2.415 . S
Tb121 O135 2.399 . S
Tb121 O136 2.325 . S
Tb121 O139 2.303 . S
Tb121 C150 2.764 . S
C122 O138 1.261 . S
C122 O139 1.257 . S
C123 C126 1.358 . S
C123 C127 1.332 . S
C123 C129 1.504 . S
C124 C125 1.373 . S
C124 C128 1.308 . S
C125 C124 1.373 . S
C125 C126 1.429 . S
C125 H152 0.932 . S
C126 C123 1.358 . S
C126 C125 1.429 . S
C126 H153 0.930 . S
C127 C123 1.332 . S
C127 C128 1.394 . S
C127 H154 0.932 . S
C128 C124 1.308 . S
C128 C127 1.394 . S
C128 H155 0.929 . S
C129 Tb120 2.764 1_545 S
C129 C123 1.504 . S
C129 O141 1.239 . S
C129 O142 1.263 . S
O130 Tb120 2.325 1_545 S
O130 C140 1.236 1_545 S
O131 Tb121 2.322 . S
O131 C140 1.257 . S
O132 Tb121 2.349 . S
O132 C143 1.261 . S
O133 Tb120 2.303 . S
O133 C143 1.257 . S
O134 Tb121 2.415 . S
O134 C150 1.239 . S
O135 Tb121 2.399 . S
O135 C150 1.263 . S
O136 Tb121 2.325 . S
O136 C151 1.236 . S
O137 Tb120 2.322 . S
O137 C151 1.257 . S
O138 Tb120 2.349 . S
O138 C122 1.261 . S
O139 Tb121 2.303 . S
O139 C122 1.257 . S
C140 O130 1.236 1_565 S
C140 O131 1.257 . S
O141 Tb120 2.415 1_545 S
O141 C129 1.239 . S
O142 Tb120 2.399 1_545 S
O142 C129 1.263 . S
C143 O132 1.261 . S
C143 O133 1.257 . S
C144 C147 1.358 . S
C144 C148 1.332 . S
C144 C150 1.504 . S
C145 C146 1.373 . S
C145 C149 1.308 . S
C146 C145 1.373 . S
C146 C147 1.429 . S
C146 H156 0.932 . S
C147 C144 1.358 . S
C147 C146 1.429 . S
C147 H157 0.930 . S
C148 C144 1.332 . S
C148 C149 1.394 . S
C148 H158 0.932 . S
C149 C145 1.308 . S
C149 C148 1.394 . S
C149 H159 0.929 . S
C150 Tb121 2.764 . S
C150 O134 1.239 . S
C150 O135 1.263 . S
C150 C144 1.504 . S
C151 O136 1.236 . S
C151 O137 1.257 . S
H152 C125 0.932 . S
H153 C126 0.930 . S
H154 C127 0.932 . S
H155 C128 0.929 . S
H156 C146 0.932 . S
H157 C147 0.930 . S
H158 C148 0.932 . S
H159 C149 0.929 . S
Tb160 C169 2.764 1_455 S
Tb160 O170 2.325 1_455 S
Tb160 O173 2.303 . S
Tb160 O177 2.322 . S
Tb160 O178 2.349 . S
Tb160 O181 2.415 1_455 S
Tb160 O182 2.399 1_455 S
Tb161 O171 2.322 . S
Tb161 O172 2.349 . S
Tb161 O174 2.415 . S
Tb161 O175 2.399 . S
Tb161 O176 2.325 . S
Tb161 O179 2.303 . S
Tb161 C190 2.764 . S
C162 O178 1.261 . S
C162 O179 1.257 . S
C163 C166 1.358 . S
C163 C167 1.332 . S
C163 C169 1.504 . S
C164 C165 1.373 . S
C164 C168 1.308 . S
C165 C164 1.373 . S
C165 C166 1.429 . S
C165 H192 0.932 . S
C166 C163 1.358 . S
C166 C165 1.429 . S
C166 H193 0.930 . S
C167 C163 1.332 . S
C167 C168 1.394 . S
C167 H194 0.932 . S
C168 C164 1.308 . S
C168 C167 1.394 . S
C168 H195 0.929 . S
C169 Tb160 2.764 1_655 S
C169 C163 1.504 . S
C169 O181 1.239 . S
C169 O182 1.263 . S
O170 Tb160 2.325 1_655 S
O170 C180 1.236 1_655 S
O171 Tb161 2.322 . S
O171 C180 1.257 . S
O172 Tb161 2.349 . S
O172 C183 1.261 . S
O173 Tb160 2.303 . S
O173 C183 1.257 . S
O174 Tb161 2.415 . S
O174 C190 1.239 . S
O175 Tb161 2.399 . S
O175 C190 1.263 . S
O176 Tb161 2.325 . S
O176 C191 1.236 . S
O177 Tb160 2.322 . S
O177 C191 1.257 . S
O178 Tb160 2.349 . S
O178 C162 1.261 . S
O179 Tb161 2.303 . S
O179 C162 1.257 . S
C180 O170 1.236 1_455 S
C180 O171 1.257 . S
O181 Tb160 2.415 1_655 S
O181 C169 1.239 . S
O182 Tb160 2.399 1_655 S
O182 C169 1.263 . S
C183 O172 1.261 . S
C183 O173 1.257 . S
C184 C187 1.358 . S
C184 C188 1.332 . S
C184 C190 1.504 . S
C185 C186 1.373 . S
C185 C189 1.308 . S
C186 C185 1.373 . S
C186 C187 1.429 . S
C186 H196 0.932 . S
C187 C184 1.358 . S
C187 C186 1.429 . S
C187 H197 0.930 . S
C188 C184 1.332 . S
C188 C189 1.394 . S
C188 H198 0.932 . S
C189 C185 1.308 . S
C189 C188 1.394 . S
C189 H199 0.929 . S
C190 Tb161 2.764 . S
C190 O174 1.239 . S
C190 O175 1.263 . S
C190 C184 1.504 . S
C191 O176 1.236 . S
C191 O177 1.257 . S
H192 C165 0.932 . S
H193 C166 0.930 . S
H194 C167 0.932 . S
H195 C168 0.929 . S
H196 C186 0.932 . S
H197 C187 0.930 . S
H198 C188 0.932 . S
H199 C189 0.929 . S
Tb200 C209 2.764 1_545 S
Tb200 O210 2.325 1_545 S
Tb200 O213 2.303 . S
Tb200 O217 2.322 . S
Tb200 O218 2.349 . S
Tb200 O221 2.415 1_545 S
Tb200 O222 2.399 1_545 S
Tb201 O211 2.322 . S
Tb201 O212 2.349 . S
Tb201 O214 2.415 . S
Tb201 O215 2.399 . S
Tb201 O216 2.325 . S
Tb201 O219 2.303 . S
Tb201 C230 2.764 . S
C202 O218 1.261 . S
C202 O219 1.257 . S
C203 C206 1.358 . S
C203 C207 1.332 . S
C203 C209 1.504 . S
C204 C205 1.373 . S
C204 C208 1.308 . S
C205 C204 1.373 . S
C205 C206 1.429 . S
C205 H232 0.932 . S
C206 C203 1.358 . S
C206 C205 1.429 . S
C206 H233 0.930 . S
C207 C203 1.332 . S
C207 C208 1.394 . S
C207 H234 0.932 . S
C208 C204 1.308 . S
C208 C207 1.394 . S
C208 H235 0.929 . S
C209 Tb200 2.764 1_565 S
C209 C203 1.504 . S
C209 O221 1.239 . S
C209 O222 1.263 . S
O210 Tb200 2.325 1_565 S
O210 C220 1.236 1_565 S
O211 Tb201 2.322 . S
O211 C220 1.257 . S
O212 Tb201 2.349 . S
O212 C223 1.261 . S
O213 Tb200 2.303 . S
O213 C223 1.257 . S
O214 Tb201 2.415 . S
O214 C230 1.239 . S
O215 Tb201 2.399 . S
O215 C230 1.263 . S
O216 Tb201 2.325 . S
O216 C231 1.236 . S
O217 Tb200 2.322 . S
O217 C231 1.257 . S
O218 Tb200 2.349 . S
O218 C202 1.261 . S
O219 Tb201 2.303 . S
O219 C202 1.257 . S
C220 O210 1.236 1_545 S
C220 O211 1.257 . S
O221 Tb200 2.415 1_565 S
O221 C209 1.239 . S
O222 Tb200 2.399 1_565 S
O222 C209 1.263 . S
C223 O212 1.261 . S
C223 O213 1.257 . S
C224 C227 1.358 . S
C224 C228 1.332 . S
C224 C230 1.504 . S
C225 C226 1.373 . S
C225 C229 1.308 . S
C226 C225 1.373 . S
C226 C227 1.429 . S
C226 H236 0.932 . S
C227 C224 1.358 . S
C227 C226 1.429 . S
C227 H237 0.930 . S
C228 C224 1.332 . S
C228 C229 1.394 . S
C228 H238 0.932 . S
C229 C225 1.308 . S
C229 C228 1.394 . S
C229 H239 0.929 . S
C230 Tb201 2.764 . S
C230 O214 1.239 . S
C230 O215 1.263 . S
C230 C224 1.504 . S
C231 O216 1.236 . S
C231 O217 1.257 . S
H232 C205 0.932 . S
H233 C206 0.930 . S
H234 C207 0.932 . S
H235 C208 0.929 . S
H236 C226 0.932 . S
H237 C227 0.930 . S
H238 C228 0.932 . S
H239 C229 0.929 . S
Tb240 C249 2.764 . S
Tb240 O250 2.325 . S
Tb240 O253 2.303 . S
Tb240 O257 2.322 . S
Tb240 O258 2.349 . S
Tb240 O261 2.415 . S
Tb240 O262 2.399 . S
Tb241 O251 2.322 . S
Tb241 O252 2.349 . S
Tb241 O254 2.415 . S
Tb241 O255 2.399 . S
Tb241 O256 2.325 . S
Tb241 O259 2.303 . S
Tb241 C270 2.764 . S
C242 O258 1.261 . S
C242 O259 1.257 . S
C243 C246 1.358 . S
C243 C247 1.332 . S
C243 C249 1.504 . S
C244 C245 1.373 . S
C244 C248 1.308 . S
C245 C244 1.373 . S
C245 C246 1.429 . S
C245 H272 0.932 . S
C246 C243 1.358 . S
C246 C245 1.429 . S
C246 H273 0.930 . S
C247 C243 1.332 . S
C247 C248 1.394 . S
C247 H274 0.932 . S
C248 C244 1.308 . S
C248 C247 1.394 . S
C248 H275 0.929 . S
C249 Tb240 2.764 . S
C249 C243 1.504 . S
C249 O261 1.239 . S
C249 O262 1.263 . S
O250 Tb240 2.325 . S
O250 C260 1.236 . S
O251 Tb241 2.322 . S
O251 C260 1.257 . S
O252 Tb241 2.349 . S
O252 C263 1.261 . S
O253 Tb240 2.303 . S
O253 C263 1.257 . S
O254 Tb241 2.415 . S
O254 C270 1.239 . S
O255 Tb241 2.399 . S
O255 C270 1.263 . S
O256 Tb241 2.325 . S
O256 C271 1.236 . S
O257 Tb240 2.322 . S
O257 C271 1.257 . S
O258 Tb240 2.349 . S
O258 C242 1.261 . S
O259 Tb241 2.303 . S
O259 C242 1.257 . S
C260 O250 1.236 . S
C260 O251 1.257 . S
O261 Tb240 2.415 . S
O261 C249 1.239 . S
O262 Tb240 2.399 . S
O262 C249 1.263 . S
C263 O252 1.261 . S
C263 O253 1.257 . S
C264 C267 1.358 . S
C264 C268 1.332 . S
C264 C270 1.504 . S
C265 C266 1.373 . S
C265 C269 1.308 . S
C266 C265 1.373 . S
C266 C267 1.429 . S
C266 H276 0.932 . S
C267 C264 1.358 . S
C267 C266 1.429 . S
C267 H277 0.930 . S
C268 C264 1.332 . S
C268 C269 1.394 . S
C268 H278 0.932 . S
C269 C265 1.308 . S
C269 C268 1.394 . S
C269 H279 0.929 . S
C270 Tb241 2.764 . S
C270 O254 1.239 . S
C270 O255 1.263 . S
C270 C264 1.504 . S
C271 O256 1.236 . S
C271 O257 1.257 . S
H272 C245 0.932 . S
H273 C246 0.930 . S
H274 C247 0.932 . S
H275 C248 0.929 . S
H276 C266 0.932 . S
H277 C267 0.930 . S
H278 C268 0.932 . S
H279 C269 0.929 . S
Tb280 C289 2.764 . S
Tb280 O290 2.325 . S
Tb280 O293 2.303 . S
Tb280 O297 2.322 . S
Tb280 O298 2.349 . S
Tb280 O301 2.415 . S
Tb280 O302 2.399 . S
Tb281 O291 2.322 . S
Tb281 O292 2.349 . S
Tb281 O294 2.415 . S
Tb281 O295 2.399 . S
Tb281 O296 2.325 . S
Tb281 O299 2.303 . S
Tb281 C310 2.764 . S
C282 O298 1.261 . S
C282 O299 1.257 . S
C283 C286 1.358 . S
C283 C287 1.332 . S
C283 C289 1.504 . S
C284 C285 1.373 . S
C284 C288 1.308 . S
C285 C284 1.373 . S
C285 C286 1.429 . S
C285 H312 0.932 . S
C286 C283 1.358 . S
C286 C285 1.429 . S
C286 H313 0.930 . S
C287 C283 1.332 . S
C287 C288 1.394 . S
C287 H314 0.932 . S
C288 C284 1.308 . S
C288 C287 1.394 . S
C288 H315 0.929 . S
C289 Tb280 2.764 . S
C289 C283 1.504 . S
C289 O301 1.239 . S
C289 O302 1.263 . S
O290 Tb280 2.325 . S
O290 C300 1.236 . S
O291 Tb281 2.322 . S
O291 C300 1.257 . S
O292 Tb281 2.349 . S
O292 C303 1.261 . S
O293 Tb280 2.303 . S
O293 C303 1.257 . S
O294 Tb281 2.415 . S
O294 C310 1.239 . S
O295 Tb281 2.399 . S
O295 C310 1.263 . S
O296 Tb281 2.325 . S
O296 C311 1.236 . S
O297 Tb280 2.322 . S
O297 C311 1.257 . S
O298 Tb280 2.349 . S
O298 C282 1.261 . S
O299 Tb281 2.303 . S
O299 C282 1.257 . S
C300 O290 1.236 . S
C300 O291 1.257 . S
O301 Tb280 2.415 . S
O301 C289 1.239 . S
O302 Tb280 2.399 . S
O302 C289 1.263 . S
C303 O292 1.261 . S
C303 O293 1.257 . S
C304 C307 1.358 . S
C304 C308 1.332 . S
C304 C310 1.504 . S
C305 C306 1.373 . S
C305 C309 1.308 . S
C306 C305 1.373 . S
C306 C307 1.429 . S
C306 H316 0.932 . S
C307 C304 1.358 . S
C307 C306 1.429 . S
C307 H317 0.930 . S
C308 C304 1.332 . S
C308 C309 1.394 . S
C308 H318 0.932 . S
C309 C305 1.308 . S
C309 C308 1.394 . S
C309 H319 0.929 . S
C310 Tb281 2.764 . S
C310 O294 1.239 . S
C310 O295 1.263 . S
C310 C304 1.504 . S
C311 O296 1.236 . S
C311 O297 1.257 . S
H312 C285 0.932 . S
H313 C286 0.930 . S
H314 C287 0.932 . S
H315 C288 0.929 . S
H316 C306 0.932 . S
H317 C307 0.930 . S
H318 C308 0.932 . S
H319 C309 0.929 . S
Tb320 C329 2.764 . S
Tb320 O330 2.325 . S
Tb320 O333 2.303 . S
Tb320 O337 2.322 . S
Tb320 O338 2.349 . S
Tb320 O341 2.415 . S
Tb320 O342 2.399 . S
Tb321 O331 2.322 . S
Tb321 O332 2.349 . S
Tb321 O334 2.415 . S
Tb321 O335 2.399 . S
Tb321 O336 2.325 . S
Tb321 O339 2.303 . S
Tb321 C350 2.764 . S
C322 O338 1.261 . S
C322 O339 1.257 . S
C323 C326 1.358 . S
C323 C327 1.332 . S
C323 C329 1.504 . S
C324 C325 1.373 . S
C324 C328 1.308 . S
C325 C324 1.373 . S
C325 C326 1.429 . S
C325 H352 0.932 . S
C326 C323 1.358 . S
C326 C325 1.429 . S
C326 H353 0.930 . S
C327 C323 1.332 . S
C327 C328 1.394 . S
C327 H354 0.932 . S
C328 C324 1.308 . S
C328 C327 1.394 . S
C328 H355 0.929 . S
C329 Tb320 2.764 . S
C329 C323 1.504 . S
C329 O341 1.239 . S
C329 O342 1.263 . S
O330 Tb320 2.325 . S
O330 C340 1.236 . S
O331 Tb321 2.322 . S
O331 C340 1.257 . S
O332 Tb321 2.349 . S
O332 C343 1.261 . S
O333 Tb320 2.303 . S
O333 C343 1.257 . S
O334 Tb321 2.415 . S
O334 C350 1.239 . S
O335 Tb321 2.399 . S
O335 C350 1.263 . S
O336 Tb321 2.325 . S
O336 C351 1.236 . S
O337 Tb320 2.322 . S
O337 C351 1.257 . S
O338 Tb320 2.349 . S
O338 C322 1.261 . S
O339 Tb321 2.303 . S
O339 C322 1.257 . S
C340 O330 1.236 . S
C340 O331 1.257 . S
O341 Tb320 2.415 . S
O341 C329 1.239 . S
O342 Tb320 2.399 . S
O342 C329 1.263 . S
C343 O332 1.261 . S
C343 O333 1.257 . S
C344 C347 1.358 . S
C344 C348 1.332 . S
C344 C350 1.504 . S
C345 C346 1.373 . S
C345 C349 1.308 . S
C346 C345 1.373 . S
C346 C347 1.429 . S
C346 H356 0.932 . S
C347 C344 1.358 . S
C347 C346 1.429 . S
C347 H357 0.930 . S
C348 C344 1.332 . S
C348 C349 1.394 . S
C348 H358 0.932 . S
C349 C345 1.308 . S
C349 C348 1.394 . S
C349 H359 0.929 . S
C350 Tb321 2.764 . S
C350 O334 1.239 . S
C350 O335 1.263 . S
C350 C344 1.504 . S
C351 O336 1.236 . S
C351 O337 1.257 . S
H352 C325 0.932 . S
H353 C326 0.930 . S
H354 C327 0.932 . S
H355 C328 0.929 . S
H356 C346 0.932 . S
H357 C347 0.930 . S
H358 C348 0.932 . S
H359 C349 0.929 . S
Tb360 C369 2.764 . S
Tb360 O370 2.325 . S
Tb360 O373 2.303 . S
Tb360 O377 2.322 . S
Tb360 O378 2.349 . S
Tb360 O381 2.415 . S
Tb360 O382 2.399 . S
Tb361 O371 2.322 . S
Tb361 O372 2.349 . S
Tb361 O374 2.415 . S
Tb361 O375 2.399 . S
Tb361 O376 2.325 . S
Tb361 O379 2.303 . S
Tb361 C390 2.764 . S
C362 O378 1.261 . S
C362 O379 1.257 . S
C363 C366 1.358 . S
C363 C367 1.332 . S
C363 C369 1.504 . S
C364 C365 1.373 . S
C364 C368 1.308 . S
C365 C364 1.373 . S
C365 C366 1.429 . S
C365 H392 0.932 . S
C366 C363 1.358 . S
C366 C365 1.429 . S
C366 H393 0.930 . S
C367 C363 1.332 . S
C367 C368 1.394 . S
C367 H394 0.932 . S
C368 C364 1.308 . S
C368 C367 1.394 . S
C368 H395 0.929 . S
C369 Tb360 2.764 . S
C369 C363 1.504 . S
C369 O381 1.239 . S
C369 O382 1.263 . S
O370 Tb360 2.325 . S
O370 C380 1.236 . S
O371 Tb361 2.322 . S
O371 C380 1.257 . S
O372 Tb361 2.349 . S
O372 C383 1.261 . S
O373 Tb360 2.303 . S
O373 C383 1.257 . S
O374 Tb361 2.415 . S
O374 C390 1.239 . S
O375 Tb361 2.399 . S
O375 C390 1.263 . S
O376 Tb361 2.325 . S
O376 C391 1.236 . S
O377 Tb360 2.322 . S
O377 C391 1.257 . S
O378 Tb360 2.349 . S
O378 C362 1.261 . S
O379 Tb361 2.303 . S
O379 C362 1.257 . S
C380 O370 1.236 . S
C380 O371 1.257 . S
O381 Tb360 2.415 . S
O381 C369 1.239 . S
O382 Tb360 2.399 . S
O382 C369 1.263 . S
C383 O372 1.261 . S
C383 O373 1.257 . S
C384 C387 1.358 . S
C384 C388 1.332 . S
C384 C390 1.504 . S
C385 C386 1.373 . S
C385 C389 1.308 . S
C386 C385 1.373 . S
C386 C387 1.429 . S
C386 H396 0.932 . S
C387 C384 1.358 . S
C387 C386 1.429 . S
C387 H397 0.930 . S
C388 C384 1.332 . S
C388 C389 1.394 . S
C388 H398 0.932 . S
C389 C385 1.308 . S
C389 C388 1.394 . S
C389 H399 0.929 . S
C390 Tb361 2.764 . S
C390 O374 1.239 . S
C390 O375 1.263 . S
C390 C384 1.504 . S
C391 O376 1.236 . S
C391 O377 1.257 . S
H392 C365 0.932 . S
H393 C366 0.930 . S
H394 C367 0.932 . S
H395 C368 0.929 . S
H396 C386 0.932 . S
H397 C387 0.930 . S
H398 C388 0.932 . S
H399 C389 0.929 . S
Tb400 C409 2.764 . S
Tb400 O410 2.325 . S
Tb400 O413 2.303 . S
Tb400 O417 2.322 . S
Tb400 O418 2.349 . S
Tb400 O421 2.415 . S
Tb400 O422 2.399 . S
Tb401 O411 2.322 . S
Tb401 O412 2.349 . S
Tb401 O414 2.415 1_455 S
Tb401 O415 2.399 1_455 S
Tb401 O416 2.325 1_455 S
Tb401 O419 2.303 . S
Tb401 C430 2.764 1_455 S
C402 O418 1.261 . S
C402 O419 1.257 . S
C403 C406 1.358 . S
C403 C407 1.332 . S
C403 C409 1.504 . S
C404 C405 1.373 . S
C404 C408 1.308 . S
C405 C404 1.373 . S
C405 C406 1.429 . S
C405 H432 0.932 . S
C406 C403 1.358 . S
C406 C405 1.429 . S
C406 H433 0.930 . S
C407 C403 1.332 . S
C407 C408 1.394 . S
C407 H434 0.932 . S
C408 C404 1.308 . S
C408 C407 1.394 . S
C408 H435 0.929 . S
C409 Tb400 2.764 . S
C409 C403 1.504 . S
C409 O421 1.239 . S
C409 O422 1.263 . S
O410 Tb400 2.325 . S
O410 C420 1.236 . S
O411 Tb401 2.322 . S
O411 C420 1.257 . S
O412 Tb401 2.349 . S
O412 C423 1.261 . S
O413 Tb400 2.303 . S
O413 C423 1.257 . S
O414 Tb401 2.415 1_655 S
O414 C430 1.239 . S
O415 Tb401 2.399 1_655 S
O415 C430 1.263 . S
O416 Tb401 2.325 1_655 S
O416 C431 1.236 1_655 S
O417 Tb400 2.322 . S
O417 C431 1.257 . S
O418 Tb400 2.349 . S
O418 C402 1.261 . S
O419 Tb401 2.303 . S
O419 C402 1.257 . S
C420 O410 1.236 . S
C420 O411 1.257 . S
O421 Tb400 2.415 . S
O421 C409 1.239 . S
O422 Tb400 2.399 . S
O422 C409 1.263 . S
C423 O412 1.261 . S
C423 O413 1.257 . S
C424 C427 1.358 . S
C424 C428 1.332 . S
C424 C430 1.504 . S
C425 C426 1.373 . S
C425 C429 1.308 . S
C426 C425 1.373 . S
C426 C427 1.429 . S
C426 H436 0.932 . S
C427 C424 1.358 . S
C427 C426 1.429 . S
C427 H437 0.930 . S
C428 C424 1.332 . S
C428 C429 1.394 . S
C428 H438 0.932 . S
C429 C425 1.308 . S
C429 C428 1.394 . S
C429 H439 0.929 . S
C430 Tb401 2.764 1_655 S
C430 O414 1.239 . S
C430 O415 1.263 . S
C430 C424 1.504 . S
C431 O416 1.236 1_455 S
C431 O417 1.257 . S
H432 C405 0.932 . S
H433 C406 0.930 . S
H434 C407 0.932 . S
H435 C408 0.929 . S
H436 C426 0.932 . S
H437 C427 0.930 . S
H438 C428 0.932 . S
H439 C429 0.929 . S
Tb440 C449 2.764 . S
Tb440 O450 2.325 . S
Tb440 O453 2.303 . S
Tb440 O457 2.322 . S
Tb440 O458 2.349 . S
Tb440 O461 2.415 . S
Tb440 O462 2.399 . S
Tb441 O451 2.322 . S
Tb441 O452 2.349 . S
Tb441 O454 2.415 1_545 S
Tb441 O455 2.399 1_545 S
Tb441 O456 2.325 1_545 S
Tb441 O459 2.303 . S
Tb441 C470 2.764 1_545 S
C442 O458 1.261 . S
C442 O459 1.257 . S
C443 C446 1.358 . S
C443 C447 1.332 . S
C443 C449 1.504 . S
C444 C445 1.373 . S
C444 C448 1.308 . S
C445 C444 1.373 . S
C445 C446 1.429 . S
C445 H472 0.932 . S
C446 C443 1.358 . S
C446 C445 1.429 . S
C446 H473 0.930 . S
C447 C443 1.332 . S
C447 C448 1.394 . S
C447 H474 0.932 . S
C448 C444 1.308 . S
C448 C447 1.394 . S
C448 H475 0.929 . S
C449 Tb440 2.764 . S
C449 C443 1.504 . S
C449 O461 1.239 . S
C449 O462 1.263 . S
O450 Tb440 2.325 . S
O450 C460 1.236 . S
O451 Tb441 2.322 . S
O451 C460 1.257 . S
O452 Tb441 2.349 . S
O452 C463 1.261 . S
O453 Tb440 2.303 . S
O453 C463 1.257 . S
O454 Tb441 2.415 1_565 S
O454 C470 1.239 . S
O455 Tb441 2.399 1_565 S
O455 C470 1.263 . S
O456 Tb441 2.325 1_565 S
O456 C471 1.236 1_565 S
O457 Tb440 2.322 . S
O457 C471 1.257 . S
O458 Tb440 2.349 . S
O458 C442 1.261 . S
O459 Tb441 2.303 . S
O459 C442 1.257 . S
C460 O450 1.236 . S
C460 O451 1.257 . S
O461 Tb440 2.415 . S
O461 C449 1.239 . S
O462 Tb440 2.399 . S
O462 C449 1.263 . S
C463 O452 1.261 . S
C463 O453 1.257 . S
C464 C467 1.358 . S
C464 C468 1.332 . S
C464 C470 1.504 . S
C465 C466 1.373 . S
C465 C469 1.308 . S
C466 C465 1.373 . S
C466 C467 1.429 . S
C466 H476 0.932 . S
C467 C464 1.358 . S
C467 C466 1.429 . S
C467 H477 0.930 . S
C468 C464 1.332 . S
C468 C469 1.394 . S
C468 H478 0.932 . S
C469 C465 1.308 . S
C469 C468 1.394 . S
C469 H479 0.929 . S
C470 Tb441 2.764 1_565 S
C470 O454 1.239 . S
C470 O455 1.263 . S
C470 C464 1.504 . S
C471 O456 1.236 1_545 S
C471 O457 1.257 . S
H472 C445 0.932 . S
H473 C446 0.930 . S
H474 C447 0.932 . S
H475 C448 0.929 . S
H476 C466 0.932 . S
H477 C467 0.930 . S
H478 C468 0.932 . S
H479 C469 0.929 . S
Tb480 C489 2.764 . S
Tb480 O490 2.325 . S
Tb480 O493 2.303 . S
Tb480 O497 2.322 . S
Tb480 O498 2.349 . S
Tb480 O501 2.415 . S
Tb480 O502 2.399 . S
Tb481 O491 2.322 . S
Tb481 O492 2.349 . S
Tb481 O494 2.415 1_655 S
Tb481 O495 2.399 1_655 S
Tb481 O496 2.325 1_655 S
Tb481 O499 2.303 . S
Tb481 C510 2.764 1_655 S
C482 O498 1.261 . S
C482 O499 1.257 . S
C483 C486 1.358 . S
C483 C487 1.332 . S
C483 C489 1.504 . S
C484 C485 1.373 . S
C484 C488 1.308 . S
C485 C484 1.373 . S
C485 C486 1.429 . S
C485 H512 0.932 . S
C486 C483 1.358 . S
C486 C485 1.429 . S
C486 H513 0.930 . S
C487 C483 1.332 . S
C487 C488 1.394 . S
C487 H514 0.932 . S
C488 C484 1.308 . S
C488 C487 1.394 . S
C488 H515 0.929 . S
C489 Tb480 2.764 . S
C489 C483 1.504 . S
C489 O501 1.239 . S
C489 O502 1.263 . S
O490 Tb480 2.325 . S
O490 C500 1.236 . S
O491 Tb481 2.322 . S
O491 C500 1.257 . S
O492 Tb481 2.349 . S
O492 C503 1.261 . S
O493 Tb480 2.303 . S
O493 C503 1.257 . S
O494 Tb481 2.415 1_455 S
O494 C510 1.239 . S
O495 Tb481 2.399 1_455 S
O495 C510 1.263 . S
O496 Tb481 2.325 1_455 S
O496 C511 1.236 1_455 S
O497 Tb480 2.322 . S
O497 C511 1.257 . S
O498 Tb480 2.349 . S
O498 C482 1.261 . S
O499 Tb481 2.303 . S
O499 C482 1.257 . S
C500 O490 1.236 . S
C500 O491 1.257 . S
O501 Tb480 2.415 . S
O501 C489 1.239 . S
O502 Tb480 2.399 . S
O502 C489 1.263 . S
C503 O492 1.261 . S
C503 O493 1.257 . S
C504 C507 1.358 . S
C504 C508 1.332 . S
C504 C510 1.504 . S
C505 C506 1.373 . S
C505 C509 1.308 . S
C506 C505 1.373 . S
C506 C507 1.429 . S
C506 H516 0.932 . S
C507 C504 1.358 . S
C507 C506 1.429 . S
C507 H517 0.930 . S
C508 C504 1.332 . S
C508 C509 1.394 . S
C508 H518 0.932 . S
C509 C505 1.308 . S
C509 C508 1.394 . S
C509 H519 0.929 . S
C510 Tb481 2.764 1_455 S
C510 O494 1.239 . S
C510 O495 1.263 . S
C510 C504 1.504 . S
C511 O496 1.236 1_655 S
C511 O497 1.257 . S
H512 C485 0.932 . S
H513 C486 0.930 . S
H514 C487 0.932 . S
H515 C488 0.929 . S
H516 C506 0.932 . S
H517 C507 0.930 . S
H518 C508 0.932 . S
H519 C509 0.929 . S
Tb520 C529 2.764 . S
Tb520 O530 2.325 . S
Tb520 O533 2.303 . S
Tb520 O537 2.322 . S
Tb520 O538 2.349 . S
Tb520 O541 2.415 . S
Tb520 O542 2.399 . S
Tb521 O531 2.322 . S
Tb521 O532 2.349 . S
Tb521 O534 2.415 1_565 S
Tb521 O535 2.399 1_565 S
Tb521 O536 2.325 1_565 S
Tb521 O539 2.303 . S
Tb521 C550 2.764 1_565 S
C522 O538 1.261 . S
C522 O539 1.257 . S
C523 C526 1.358 . S
C523 C527 1.332 . S
C523 C529 1.504 . S
C524 C525 1.373 . S
C524 C528 1.308 . S
C525 C524 1.373 . S
C525 C526 1.429 . S
C525 H552 0.932 . S
C526 C523 1.358 . S
C526 C525 1.429 . S
C526 H553 0.930 . S
C527 C523 1.332 . S
C527 C528 1.394 . S
C527 H554 0.932 . S
C528 C524 1.308 . S
C528 C527 1.394 . S
C528 H555 0.929 . S
C529 Tb520 2.764 . S
C529 C523 1.504 . S
C529 O541 1.239 . S
C529 O542 1.263 . S
O530 Tb520 2.325 . S
O530 C540 1.236 . S
O531 Tb521 2.322 . S
O531 C540 1.257 . S
O532 Tb521 2.349 . S
O532 C543 1.261 . S
O533 Tb520 2.303 . S
O533 C543 1.257 . S
O534 Tb521 2.415 1_545 S
O534 C550 1.239 . S
O535 Tb521 2.399 1_545 S
O535 C550 1.263 . S
O536 Tb521 2.325 1_545 S
O536 C551 1.236 1_545 S
O537 Tb520 2.322 . S
O537 C551 1.257 . S
O538 Tb520 2.349 . S
O538 C522 1.261 . S
O539 Tb521 2.303 . S
O539 C522 1.257 . S
C540 O530 1.236 . S
C540 O531 1.257 . S
O541 Tb520 2.415 . S
O541 C529 1.239 . S
O542 Tb520 2.399 . S
O542 C529 1.263 . S
C543 O532 1.261 . S
C543 O533 1.257 . S
C544 C547 1.358 . S
C544 C548 1.332 . S
C544 C550 1.504 . S
C545 C546 1.373 . S
C545 C549 1.308 . S
C546 C545 1.373 . S
C546 C547 1.429 . S
C546 H556 0.932 . S
C547 C544 1.358 . S
C547 C546 1.429 . S
C547 H557 0.930 . S
C548 C544 1.332 . S
C548 C549 1.394 . S
C548 H558 0.932 . S
C549 C545 1.308 . S
C549 C548 1.394 . S
C549 H559 0.929 . S
C550 Tb521 2.764 1_545 S
C550 O534 1.239 . S
C550 O535 1.263 . S
C550 C544 1.504 . S
C551 O536 1.236 1_565 S
C551 O537 1.257 . S
H552 C525 0.932 . S
H553 C526 0.930 . S
H554 C527 0.932 . S
H555 C528 0.929 . S
H556 C546 0.932 . S
H557 C547 0.930 . S
H558 C548 0.932 . S
H559 C549 0.929 . S
Tb560 C569 2.764 . S
Tb560 O570 2.325 . S
Tb560 O573 2.303 . S
Tb560 O577 2.322 . S
Tb560 O578 2.349 . S
Tb560 O581 2.415 . S
Tb560 O582 2.399 . S
Tb561 O571 2.322 . S
Tb561 O572 2.349 . S
Tb561 O574 2.415 . S
Tb561 O575 2.399 . S
Tb561 O576 2.325 . S
Tb561 O579 2.303 . S
Tb561 C590 2.764 . S
C562 O578 1.261 . S
C562 O579 1.257 . S
C563 C566 1.358 . S
C563 C567 1.332 . S
C563 C569 1.504 . S
C564 C565 1.373 . S
C564 C568 1.308 . S
C565 C564 1.373 . S
C565 C566 1.429 . S
C565 H592 0.932 . S
C566 C563 1.358 . S
C566 C565 1.429 . S
C566 H593 0.930 . S
C567 C563 1.332 . S
C567 C568 1.394 . S
C567 H594 0.932 . S
C568 C564 1.308 . S
C568 C567 1.394 . S
C568 H595 0.929 . S
C569 Tb560 2.764 . S
C569 C563 1.504 . S
C569 O581 1.239 . S
C569 O582 1.263 . S
O570 Tb560 2.325 . S
O570 C580 1.236 . S
O571 Tb561 2.322 . S
O571 C580 1.257 . S
O572 Tb561 2.349 . S
O572 C583 1.261 . S
O573 Tb560 2.303 . S
O573 C583 1.257 . S
O574 Tb561 2.415 . S
O574 C590 1.239 . S
O575 Tb561 2.399 . S
O575 C590 1.263 . S
O576 Tb561 2.325 . S
O576 C591 1.236 . S
O577 Tb560 2.322 . S
O577 C591 1.257 . S
O578 Tb560 2.349 . S
O578 C562 1.261 . S
O579 Tb561 2.303 . S
O579 C562 1.257 . S
C580 O570 1.236 . S
C580 O571 1.257 . S
O581 Tb560 2.415 . S
O581 C569 1.239 . S
O582 Tb560 2.399 . S
O582 C569 1.263 . S
C583 O572 1.261 . S
C583 O573 1.257 . S
C584 C587 1.358 . S
C584 C588 1.332 . S
C584 C590 1.504 . S
C585 C586 1.373 . S
C585 C589 1.308 . S
C586 C585 1.373 . S
C586 C587 1.429 . S
C586 H596 0.932 . S
C587 C584 1.358 . S
C587 C586 1.429 . S
C587 H597 0.930 . S
C588 C584 1.332 . S
C588 C589 1.394 . S
C588 H598 0.932 . S
C589 C585 1.308 . S
C589 C588 1.394 . S
C589 H599 0.929 . S
C590 Tb561 2.764 . S
C590 O574 1.239 . S
C590 O575 1.263 . S
C590 C584 1.504 . S
C591 O576 1.236 . S
C591 O577 1.257 . S
H592 C565 0.932 . S
H593 C566 0.930 . S
H594 C567 0.932 . S
H595 C568 0.929 . S
H596 C586 0.932 . S
H597 C587 0.930 . S
H598 C588 0.932 . S
H599 C589 0.929 . S
Tb600 C609 2.764 . S
Tb600 O610 2.325 . S
Tb600 O613 2.303 . S
Tb600 O617 2.322 . S
Tb600 O618 2.349 . S
Tb600 O621 2.415 . S
Tb600 O622 2.399 . S
Tb601 O611 2.322 . S
Tb601 O612 2.349 . S
Tb601 O614 2.415 . S
Tb601 O615 2.399 . S
Tb601 O616 2.325 . S
Tb601 O619 2.303 . S
Tb601 C630 2.764 . S
C602 O618 1.261 . S
C602 O619 1.257 . S
C603 C606 1.358 . S
C603 C607 1.332 . S
C603 C609 1.504 . S
C604 C605 1.373 . S
C604 C608 1.308 . S
C605 C604 1.373 . S
C605 C606 1.429 . S
C605 H632 0.932 . S
C606 C603 1.358 . S
C606 C605 1.429 . S
C606 H633 0.930 . S
C607 C603 1.332 . S
C607 C608 1.394 . S
C607 H634 0.932 . S
C608 C604 1.308 . S
C608 C607 1.394 . S
C608 H635 0.929 . S
C609 Tb600 2.764 . S
C609 C603 1.504 . S
C609 O621 1.239 . S
C609 O622 1.263 . S
O610 Tb600 2.325 . S
O610 C620 1.236 . S
O611 Tb601 2.322 . S
O611 C620 1.257 . S
O612 Tb601 2.349 . S
O612 C623 1.261 . S
O613 Tb600 2.303 . S
O613 C623 1.257 . S
O614 Tb601 2.415 . S
O614 C630 1.239 . S
O615 Tb601 2.399 . S
O615 C630 1.263 . S
O616 Tb601 2.325 . S
O616 C631 1.236 . S
O617 Tb600 2.322 . S
O617 C631 1.257 . S
O618 Tb600 2.349 . S
O618 C602 1.261 . S
O619 Tb601 2.303 . S
O619 C602 1.257 . S
C620 O610 1.236 . S
C620 O611 1.257 . S
O621 Tb600 2.415 . S
O621 C609 1.239 . S
O622 Tb600 2.399 . S
O622 C609 1.263 . S
C623 O612 1.261 . S
C623 O613 1.257 . S
C624 C627 1.358 . S
C624 C628 1.332 . S
C624 C630 1.504 . S
C625 C626 1.373 . S
C625 C629 1.308 . S
C626 C625 1.373 . S
C626 C627 1.429 . S
C626 H636 0.932 . S
C627 C624 1.358 . S
C627 C626 1.429 . S
C627 H637 0.930 . S
C628 C624 1.332 . S
C628 C629 1.394 . S
C628 H638 0.932 . S
C629 C625 1.308 . S
C629 C628 1.394 . S
C629 H639 0.929 . S
C630 Tb601 2.764 . S
C630 O614 1.239 . S
C630 O615 1.263 . S
C630 C624 1.504 . S
C631 O616 1.236 . S
C631 O617 1.257 . S
H632 C605 0.932 . S
H633 C606 0.930 . S
H634 C607 0.932 . S
H635 C608 0.929 . S
H636 C626 0.932 . S
H637 C627 0.930 . S
H638 C628 0.932 . S
H639 C629 0.929 . S
H640 C646 0.930 . S
H641 C650 0.930 . S
H642 C655 0.929 . S
H643 C653 0.929 . S
H644 C648 0.929 . S
H645 C654 0.929 . S
C646 H640 0.930 . S
C646 C647 1.367 . S
C646 C654 1.378 . S
C647 C646 1.367 . S
C647 C655 1.433 . S
C648 H644 0.929 . S
C648 C650 1.378 . S
C648 C652 1.350 . S
C649 C652 1.463 . S
C649 C654 1.350 . S
C649 N657 1.427 . S
C650 H641 0.930 . S
C650 C648 1.378 . S
C650 C651 1.367 . S
C651 C650 1.367 . S
C651 C653 1.433 . S
C652 C648 1.350 . S
C652 C649 1.463 . S
C652 N656 1.427 . S
C653 H643 0.929 . S
C653 C651 1.433 . S
C653 N656 1.384 . S
C654 H645 0.929 . S
C654 C646 1.378 . S
C654 C649 1.350 . S
C655 H642 0.929 . S
C655 C647 1.433 . S
C655 N657 1.384 . S
N656 C652 1.427 . S
N656 C653 1.384 . S
N657 C649 1.427 . S
N657 C655 1.384 . S
H658 C664 0.930 . S
H659 C668 0.930 . S
H660 C673 0.929 . S
H661 C671 0.929 . S
H662 C666 0.929 . S
H663 C672 0.929 . S
C664 H658 0.930 . S
C664 C665 1.367 . S
C664 C672 1.378 . S
C665 C664 1.367 . S
C665 C673 1.433 . S
C666 H662 0.929 . S
C666 C668 1.378 . S
C666 C670 1.350 . S
C667 C670 1.463 . S
C667 C672 1.350 . S
C667 N675 1.427 . S
C668 H659 0.930 . S
C668 C666 1.378 . S
C668 C669 1.367 . S
C669 C668 1.367 . S
C669 C671 1.433 . S
C670 C666 1.350 . S
C670 C667 1.463 . S
C670 N674 1.427 . S
C671 H661 0.929 . S
C671 C669 1.433 . S
C671 N674 1.384 . S
C672 H663 0.929 . S
C672 C664 1.378 . S
C672 C667 1.350 . S
C673 H660 0.929 . S
C673 C665 1.433 . S
C673 N675 1.384 . S
N674 C670 1.427 . S
N674 C671 1.384 . S
N675 C667 1.427 . S
N675 C673 1.384 . S
H676 C682 0.930 . S
H677 C686 0.930 . S
H678 C691 0.929 . S
H679 C689 0.929 . S
H680 C684 0.929 . S
H681 C690 0.929 . S
C682 H676 0.930 . S
C682 C683 1.367 . S
C682 C690 1.378 . S
C683 C682 1.367 . S
C683 C691 1.433 . S
C684 H680 0.929 . S
C684 C686 1.378 . S
C684 C688 1.350 . S
C685 C688 1.463 . S
C685 C690 1.350 . S
C685 N693 1.427 . S
C686 H677 0.930 . S
C686 C684 1.378 . S
C686 C687 1.367 . S
C687 C686 1.367 . S
C687 C689 1.433 . S
C688 C684 1.350 . S
C688 C685 1.463 . S
C688 N692 1.427 . S
C689 H679 0.929 . S
C689 C687 1.433 . S
C689 N692 1.384 . S
C690 H681 0.929 . S
C690 C682 1.378 . S
C690 C685 1.350 . S
C691 H678 0.929 . S
C691 C683 1.433 . S
C691 N693 1.384 . S
N692 C688 1.427 . S
N692 C689 1.384 . S
N693 C685 1.427 . S
N693 C691 1.384 . S
H694 C700 0.930 . S
H695 C704 0.930 . S
H696 C709 0.929 . S
H697 C707 0.929 . S
H698 C702 0.929 . S
H699 C708 0.929 . S
C700 H694 0.930 . S
C700 C701 1.367 . S
C700 C708 1.378 . S
C701 C700 1.367 . S
C701 C709 1.433 . S
C702 H698 0.929 . S
C702 C704 1.378 . S
C702 C706 1.350 . S
C703 C706 1.463 . S
C703 C708 1.350 . S
C703 N711 1.427 . S
C704 H695 0.930 . S
C704 C702 1.378 . S
C704 C705 1.367 . S
C705 C704 1.367 . S
C705 C707 1.433 . S
C706 C702 1.350 . S
C706 C703 1.463 . S
C706 N710 1.427 . S
C707 H697 0.929 . S
C707 C705 1.433 . S
C707 N710 1.384 . S
C708 H699 0.929 . S
C708 C700 1.378 . S
C708 C703 1.350 . S
C709 H696 0.929 . S
C709 C701 1.433 . S
C709 N711 1.384 . S
N710 C706 1.427 . S
N710 C707 1.384 . S
N711 C703 1.427 . S
N711 C709 1.384 . S
H712 C718 0.930 . S
H713 C722 0.930 . S
H714 C727 0.929 . S
H715 C725 0.929 . S
H716 C720 0.929 . S
H717 C726 0.929 . S
C718 H712 0.930 . S
C718 C719 1.367 . S
C718 C726 1.378 . S
C719 C718 1.367 . S
C719 C727 1.433 . S
C720 H716 0.929 . S
C720 C722 1.378 . S
C720 C724 1.350 . S
C721 C724 1.463 . S
C721 C726 1.350 . S
C721 N729 1.427 . S
C722 H713 0.930 . S
C722 C720 1.378 . S
C722 C723 1.367 . S
C723 C722 1.367 . S
C723 C725 1.433 . S
C724 C720 1.350 . S
C724 C721 1.463 . S
C724 N728 1.427 . S
C725 H715 0.929 . S
C725 C723 1.433 . S
C725 N728 1.384 . S
C726 H717 0.929 . S
C726 C718 1.378 . S
C726 C721 1.350 . S
C727 H714 0.929 . S
C727 C719 1.433 . S
C727 N729 1.384 . S
N728 C724 1.427 . S
N728 C725 1.384 . S
N729 C721 1.427 . S
N729 C727 1.384 . S
H730 C736 0.930 . S
H731 C740 0.930 . S
H732 C745 0.929 . S
H733 C743 0.929 . S
H734 C738 0.929 . S
H735 C744 0.929 . S
C736 H730 0.930 . S
C736 C737 1.367 . S
C736 C744 1.378 . S
C737 C736 1.367 . S
C737 C745 1.433 . S
C738 H734 0.929 . S
C738 C740 1.378 . S
C738 C742 1.350 . S
C739 C742 1.463 . S
C739 C744 1.350 . S
C739 N747 1.427 . S
C740 H731 0.930 . S
C740 C738 1.378 . S
C740 C741 1.367 . S
C741 C740 1.367 . S
C741 C743 1.433 . S
C742 C738 1.350 . S
C742 C739 1.463 . S
C742 N746 1.427 . S
C743 H733 0.929 . S
C743 C741 1.433 . S
C743 N746 1.384 . S
C744 H735 0.929 . S
C744 C736 1.378 . S
C744 C739 1.350 . S
C745 H732 0.929 . S
C745 C737 1.433 . S
C745 N747 1.384 . S
N746 C742 1.427 . S
N746 C743 1.384 . S
N747 C739 1.427 . S
N747 C745 1.384 . S
H748 C754 0.930 . S
H749 C758 0.930 . S
H750 C763 0.929 . S
H751 C761 0.929 . S
H752 C756 0.929 . S
H753 C762 0.929 . S
C754 H748 0.930 . S
C754 C755 1.367 . S
C754 C762 1.378 . S
C755 C754 1.367 . S
C755 C763 1.433 . S
C756 H752 0.929 . S
C756 C758 1.378 . S
C756 C760 1.350 . S
C757 C760 1.463 . S
C757 C762 1.350 . S
C757 N765 1.427 . S
C758 H749 0.930 . S
C758 C756 1.378 . S
C758 C759 1.367 . S
C759 C758 1.367 . S
C759 C761 1.433 . S
C760 C756 1.350 . S
C760 C757 1.463 . S
C760 N764 1.427 . S
C761 H751 0.929 . S
C761 C759 1.433 . S
C761 N764 1.384 . S
C762 H753 0.929 . S
C762 C754 1.378 . S
C762 C757 1.350 . S
C763 H750 0.929 . S
C763 C755 1.433 . S
C763 N765 1.384 . S
N764 C760 1.427 . S
N764 C761 1.384 . S
N765 C757 1.427 . S
N765 C763 1.384 . S
H766 C772 0.930 . S
H767 C776 0.930 . S
H768 C781 0.929 . S
H769 C779 0.929 . S
H770 C774 0.929 . S
H771 C780 0.929 . S
C772 H766 0.930 . S
C772 C773 1.367 . S
C772 C780 1.378 . S
C773 C772 1.367 . S
C773 C781 1.433 . S
C774 H770 0.929 . S
C774 C776 1.378 . S
C774 C778 1.350 . S
C775 C778 1.463 . S
C775 C780 1.350 . S
C775 N783 1.427 . S
C776 H767 0.930 . S
C776 C774 1.378 . S
C776 C777 1.367 . S
C777 C776 1.367 . S
C777 C779 1.433 . S
C778 C774 1.350 . S
C778 C775 1.463 . S
C778 N782 1.427 . S
C779 H769 0.929 . S
C779 C777 1.433 . S
C779 N782 1.384 . S
C780 H771 0.929 . S
C780 C772 1.378 . S
C780 C775 1.350 . S
C781 H768 0.929 . S
C781 C773 1.433 . S
C781 N783 1.384 . S
N782 C778 1.427 . S
N782 C779 1.384 . S
N783 C775 1.427 . S
N783 C781 1.384 . S
H784 C790 0.930 . S
H785 C794 0.930 . S
H786 C799 0.929 . S
H787 C797 0.929 . S
H788 C792 0.929 . S
H789 C798 0.929 . S
C790 H784 0.930 . S
C790 C791 1.367 . S
C790 C798 1.378 . S
C791 C790 1.367 . S
C791 C799 1.433 . S
C792 H788 0.929 . S
C792 C794 1.378 . S
C792 C796 1.350 . S
C793 C796 1.463 . S
C793 C798 1.350 . S
C793 N801 1.427 . S
C794 H785 0.930 . S
C794 C792 1.378 . S
C794 C795 1.367 . S
C795 C794 1.367 . S
C795 C797 1.433 . S
C796 C792 1.350 . S
C796 C793 1.463 . S
C796 N800 1.427 . S
C797 H787 0.929 . S
C797 C795 1.433 . S
C797 N800 1.384 . S
C798 H789 0.929 . S
C798 C790 1.378 . S
C798 C793 1.350 . S
C799 H786 0.929 . S
C799 C791 1.433 . S
C799 N801 1.384 . S
N800 C796 1.427 . S
N800 C797 1.384 . S
N801 C793 1.427 . S
N801 C799 1.384 . S
H802 C808 0.930 . S
H803 C812 0.930 . S
H804 C817 0.929 . S
H805 C815 0.929 . S
H806 C810 0.929 . S
H807 C816 0.929 . S
C808 H802 0.930 . S
C808 C809 1.367 . S
C808 C816 1.378 . S
C809 C808 1.367 . S
C809 C817 1.433 . S
C810 H806 0.929 . S
C810 C812 1.378 . S
C810 C814 1.350 . S
C811 C814 1.463 . S
C811 C816 1.350 . S
C811 N819 1.427 . S
C812 H803 0.930 . S
C812 C810 1.378 . S
C812 C813 1.367 . S
C813 C812 1.367 . S
C813 C815 1.433 . S
C814 C810 1.350 . S
C814 C811 1.463 . S
C814 N818 1.427 . S
C815 H805 0.929 . S
C815 C813 1.433 . S
C815 N818 1.384 . S
C816 H807 0.929 . S
C816 C808 1.378 . S
C816 C811 1.350 . S
C817 H804 0.929 . S
C817 C809 1.433 . S
C817 N819 1.384 . S
N818 C814 1.427 . S
N818 C815 1.384 . S
N819 C811 1.427 . S
N819 C817 1.384 . S
H820 C826 0.930 . S
H821 C830 0.930 . S
H822 C835 0.929 . S
H823 C833 0.929 . S
H824 C828 0.929 . S
H825 C834 0.929 . S
C826 H820 0.930 . S
C826 C827 1.367 . S
C826 C834 1.378 . S
C827 C826 1.367 . S
C827 C835 1.433 . S
C828 H824 0.929 . S
C828 C830 1.378 . S
C828 C832 1.350 . S
C829 C832 1.463 . S
C829 C834 1.350 . S
C829 N837 1.427 . S
C830 H821 0.930 . S
C830 C828 1.378 . S
C830 C831 1.367 . S
C831 C830 1.367 . S
C831 C833 1.433 . S
C832 C828 1.350 . S
C832 C829 1.463 . S
C832 N836 1.427 . S
C833 H823 0.929 . S
C833 C831 1.433 . S
C833 N836 1.384 . S
C834 H825 0.929 . S
C834 C826 1.378 . S
C834 C829 1.350 . S
C835 H822 0.929 . S
C835 C827 1.433 . S
C835 N837 1.384 . S
N836 C832 1.427 . S
N836 C833 1.384 . S
N837 C829 1.427 . S
N837 C835 1.384 . S
H838 C844 0.930 . S
H839 C848 0.930 . S
H840 C853 0.929 . S
H841 C851 0.929 . S
H842 C846 0.929 . S
H843 C852 0.929 . S
C844 H838 0.930 . S
C844 C845 1.367 . S
C844 C852 1.378 . S
C845 C844 1.367 . S
C845 C853 1.433 . S
C846 H842 0.929 . S
C846 C848 1.378 . S
C846 C850 1.350 . S
C847 C850 1.463 . S
C847 C852 1.350 . S
C847 N855 1.427 . S
C848 H839 0.930 . S
C848 C846 1.378 . S
C848 C849 1.367 . S
C849 C848 1.367 . S
C849 C851 1.433 . S
C850 C846 1.350 . S
C850 C847 1.463 . S
C850 N854 1.427 . S
C851 H841 0.929 . S
C851 C849 1.433 . S
C851 N854 1.384 . S
C852 H843 0.929 . S
C852 C844 1.378 . S
C852 C847 1.350 . S
C853 H840 0.929 . S
C853 C845 1.433 . S
C853 N855 1.384 . S
N854 C850 1.427 . S
N854 C851 1.384 . S
N855 C847 1.427 . S
N855 C853 1.384 . S
H856 C862 0.930 . S
H857 C866 0.930 . S
H858 C871 0.929 . S
H859 C869 0.929 . S
H860 C864 0.929 . S
H861 C870 0.929 . S
C862 H856 0.930 . S
C862 C863 1.367 . S
C862 C870 1.378 . S
C863 C862 1.367 . S
C863 C871 1.433 . S
C864 H860 0.929 . S
C864 C866 1.378 . S
C864 C868 1.350 . S
C865 C868 1.463 . S
C865 C870 1.350 . S
C865 N873 1.427 . S
C866 H857 0.930 . S
C866 C864 1.378 . S
C866 C867 1.367 . S
C867 C866 1.367 . S
C867 C869 1.433 . S
C868 C864 1.350 . S
C868 C865 1.463 . S
C868 N872 1.427 . S
C869 H859 0.929 . S
C869 C867 1.433 . S
C869 N872 1.384 . S
C870 H861 0.929 . S
C870 C862 1.378 . S
C870 C865 1.350 . S
C871 H858 0.929 . S
C871 C863 1.433 . S
C871 N873 1.384 . S
N872 C868 1.427 . S
N872 C869 1.384 . S
N873 C865 1.427 . S
N873 C871 1.384 . S
H874 C880 0.930 . S
H875 C884 0.930 . S
H876 C889 0.929 . S
H877 C887 0.929 . S
H878 C882 0.929 . S
H879 C888 0.929 . S
C880 H874 0.930 . S
C880 C881 1.367 . S
C880 C888 1.378 . S
C881 C880 1.367 . S
C881 C889 1.433 . S
C882 H878 0.929 . S
C882 C884 1.378 . S
C882 C886 1.350 . S
C883 C886 1.463 . S
C883 C888 1.350 . S
C883 N891 1.427 . S
C884 H875 0.930 . S
C884 C882 1.378 . S
C884 C885 1.367 . S
C885 C884 1.367 . S
C885 C887 1.433 . S
C886 C882 1.350 . S
C886 C883 1.463 . S
C886 N890 1.427 . S
C887 H877 0.929 . S
C887 C885 1.433 . S
C887 N890 1.384 . S
C888 H879 0.929 . S
C888 C880 1.378 . S
C888 C883 1.350 . S
C889 H876 0.929 . S
C889 C881 1.433 . S
C889 N891 1.384 . S
N890 C886 1.427 . S
N890 C887 1.384 . S
N891 C883 1.427 . S
N891 C889 1.384 . S
H892 C898 0.930 . S
H893 C902 0.930 . S
H894 C907 0.929 . S
H895 C905 0.929 . S
H896 C900 0.929 . S
H897 C906 0.929 . S
C898 H892 0.930 . S
C898 C899 1.367 . S
C898 C906 1.378 . S
C899 C898 1.367 . S
C899 C907 1.433 . S
C900 H896 0.929 . S
C900 C902 1.378 . S
C900 C904 1.350 . S
C901 C904 1.463 . S
C901 C906 1.350 . S
C901 N909 1.427 . S
C902 H893 0.930 . S
C902 C900 1.378 . S
C902 C903 1.367 . S
C903 C902 1.367 . S
C903 C905 1.433 . S
C904 C900 1.350 . S
C904 C901 1.463 . S
C904 N908 1.427 . S
C905 H895 0.929 . S
C905 C903 1.433 . S
C905 N908 1.384 . S
C906 H897 0.929 . S
C906 C898 1.378 . S
C906 C901 1.350 . S
C907 H894 0.929 . S
C907 C899 1.433 . S
C907 N909 1.384 . S
N908 C904 1.427 . S
N908 C905 1.384 . S
N909 C901 1.427 . S
N909 C907 1.384 . S
H910 C916 0.930 . S
H911 C920 0.930 . S
H912 C925 0.929 . S
H913 C923 0.929 . S
H914 C918 0.929 . S
H915 C924 0.929 . S
C916 H910 0.930 . S
C916 C917 1.367 . S
C916 C924 1.378 . S
C917 C916 1.367 . S
C917 C925 1.433 . S
C918 H914 0.929 . S
C918 C920 1.378 . S
C918 C922 1.350 . S
C919 C922 1.463 . S
C919 C924 1.350 . S
C919 N927 1.427 . S
C920 H911 0.930 . S
C920 C918 1.378 . S
C920 C921 1.367 . S
C921 C920 1.367 . S
C921 C923 1.433 . S
C922 C918 1.350 . S
C922 C919 1.463 . S
C922 N926 1.427 . S
C923 H913 0.929 . S
C923 C921 1.433 . S
C923 N926 1.384 . S
C924 H915 0.929 . S
C924 C916 1.378 . S
C924 C919 1.350 . S
C925 H912 0.929 . S
C925 C917 1.433 . S
C925 N927 1.384 . S
N926 C922 1.427 . S
N926 C923 1.384 . S
N927 C919 1.427 . S
N927 C925 1.384 . S
H928 C934 0.930 1_545 S
H929 C938 0.930 . S
H930 C943 0.929 . S
H931 C941 0.929 . S
H932 C936 0.929 . S
H933 C942 0.929 . S
C934 H928 0.930 1_565 S
C934 C935 1.367 . S
C934 C942 1.378 . S
C935 C934 1.367 . S
C935 C943 1.433 . S
C936 H932 0.929 . S
C936 C938 1.378 . S
C936 C940 1.350 . S
C937 C940 1.463 . S
C937 C942 1.350 . S
C937 N945 1.427 . S
C938 H929 0.930 . S
C938 C936 1.378 . S
C938 C939 1.367 . S
C939 C938 1.367 . S
C939 C941 1.433 . S
C940 C936 1.350 . S
C940 C937 1.463 . S
C940 N944 1.427 . S
C941 H931 0.929 . S
C941 C939 1.433 . S
C941 N944 1.384 . S
C942 H933 0.929 . S
C942 C934 1.378 . S
C942 C937 1.350 . S
C943 H930 0.929 . S
C943 C935 1.433 . S
C943 N945 1.384 . S
N944 C940 1.427 . S
N944 C941 1.384 . S
N945 C937 1.427 . S
N945 C943 1.384 . S
H946 C952 0.930 . S
H947 C956 0.930 . S
H948 C961 0.929 . S
H949 C959 0.929 . S
H950 C954 0.929 . S
H951 C960 0.929 . S
C952 H946 0.930 . S
C952 C953 1.367 . S
C952 C960 1.378 . S
C953 C952 1.367 . S
C953 C961 1.433 . S
C954 H950 0.929 . S
C954 C956 1.378 . S
C954 C958 1.350 . S
C955 C958 1.463 . S
C955 C960 1.350 . S
C955 N963 1.427 . S
C956 H947 0.930 . S
C956 C954 1.378 . S
C956 C957 1.367 . S
C957 C956 1.367 . S
C957 C959 1.433 . S
C958 C954 1.350 . S
C958 C955 1.463 . S
C958 N962 1.427 . S
C959 H949 0.929 . S
C959 C957 1.433 . S
C959 N962 1.384 . S
C960 H951 0.929 . S
C960 C952 1.378 . S
C960 C955 1.350 . S
C961 H948 0.929 . S
C961 C953 1.433 . S
C961 N963 1.384 . S
N962 C958 1.427 . S
N962 C959 1.384 . S
N963 C955 1.427 . S
N963 C961 1.384 . S
H964 C970 0.930 . S
H965 C974 0.930 . S
H966 C979 0.929 . S
H967 C977 0.929 . S
H968 C972 0.929 . S
H969 C978 0.929 . S
C970 H964 0.930 . S
C970 C971 1.367 . S
C970 C978 1.378 . S
C971 C970 1.367 . S
C971 C979 1.433 . S
C972 H968 0.929 . S
C972 C974 1.378 . S
C972 C976 1.350 . S
C973 C976 1.463 . S
C973 C978 1.350 . S
C973 N981 1.427 . S
C974 H965 0.930 . S
C974 C972 1.378 . S
C974 C975 1.367 . S
C975 C974 1.367 . S
C975 C977 1.433 . S
C976 C972 1.350 . S
C976 C973 1.463 . S
C976 N980 1.427 . S
C977 H967 0.929 . S
C977 C975 1.433 . S
C977 N980 1.384 . S
C978 H969 0.929 . S
C978 C970 1.378 . S
C978 C973 1.350 . S
C979 H966 0.929 . S
C979 C971 1.433 . S
C979 N981 1.384 . S
N980 C976 1.427 . S
N980 C977 1.384 . S
N981 C973 1.427 . S
N981 C979 1.384 . S
H982 C988 0.930 . S
H983 C992 0.930 . S
H984 C997 0.929 . S
H985 C995 0.929 . S
H986 C990 0.929 . S
H987 C996 0.929 . S
C988 H982 0.930 . S
C988 C989 1.367 . S
C988 C996 1.378 . S
C989 C988 1.367 . S
C989 C997 1.433 . S
C990 H986 0.929 . S
C990 C992 1.378 . S
C990 C994 1.350 . S
C991 C994 1.463 . S
C991 C996 1.350 . S
C991 N999 1.427 . S
C992 H983 0.930 . S
C992 C990 1.378 . S
C992 C993 1.367 . S
C993 C992 1.367 . S
C993 C995 1.433 . S
C994 C990 1.350 . S
C994 C991 1.463 . S
C994 N998 1.427 . S
C995 H985 0.929 . S
C995 C993 1.433 . S
C995 N998 1.384 . S
C996 H987 0.929 . S
C996 C988 1.378 . S
C996 C991 1.350 . S
C997 H984 0.929 . S
C997 C989 1.433 . S
C997 N999 1.384 . S
N998 C994 1.427 . S
N998 C995 1.384 . S
N999 C991 1.427 . S
N999 C997 1.384 . S
H1000 C1006 0.930 . S
H1001 C1010 0.930 1_565 S
H1002 C1015 0.929 . S
H1003 C1013 0.929 . S
H1004 C1008 0.929 . S
H1005 C1014 0.929 . S
C1006 H1000 0.930 . S
C1006 C1007 1.367 . S
C1006 C1014 1.378 . S
C1007 C1006 1.367 . S
C1007 C1015 1.433 . S
C1008 H1004 0.929 . S
C1008 C1010 1.378 . S
C1008 C1012 1.350 . S
C1009 C1012 1.463 . S
C1009 C1014 1.350 . S
C1009 N1017 1.427 . S
C1010 H1001 0.930 1_545 S
C1010 C1008 1.378 . S
C1010 C1011 1.367 . S
C1011 C1010 1.367 . S
C1011 C1013 1.433 . S
C1012 C1008 1.350 . S
C1012 C1009 1.463 . S
C1012 N1016 1.427 . S
C1013 H1003 0.929 . S
C1013 C1011 1.433 . S
C1013 N1016 1.384 . S
C1014 H1005 0.929 . S
C1014 C1006 1.378 . S
C1014 C1009 1.350 . S
C1015 H1002 0.929 . S
C1015 C1007 1.433 . S
C1015 N1017 1.384 . S
N1016 C1012 1.427 . S
N1016 C1013 1.384 . S
N1017 C1009 1.427 . S
N1017 C1015 1.384 . S
H1018 C1024 0.930 . S
H1019 C1028 0.930 . S
H1020 C1033 0.929 . S
H1021 C1031 0.929 . S
H1022 C1026 0.929 . S
H1023 C1032 0.929 . S
C1024 H1018 0.930 . S
C1024 C1025 1.367 . S
C1024 C1032 1.378 . S
C1025 C1024 1.367 . S
C1025 C1033 1.433 . S
C1026 H1022 0.929 . S
C1026 C1028 1.378 . S
C1026 C1030 1.350 . S
C1027 C1030 1.463 . S
C1027 C1032 1.350 . S
C1027 N1035 1.427 . S
C1028 H1019 0.930 . S
C1028 C1026 1.378 . S
C1028 C1029 1.367 . S
C1029 C1028 1.367 . S
C1029 C1031 1.433 . S
C1030 C1026 1.350 . S
C1030 C1027 1.463 . S
C1030 N1034 1.427 . S
C1031 H1021 0.929 . S
C1031 C1029 1.433 . S
C1031 N1034 1.384 . S
C1032 H1023 0.929 . S
C1032 C1024 1.378 . S
C1032 C1027 1.350 . S
C1033 H1020 0.929 . S
C1033 C1025 1.433 . S
C1033 N1035 1.384 . S
N1034 C1030 1.427 . S
N1034 C1031 1.384 . S
N1035 C1027 1.427 . S
N1035 C1033 1.384 . S
H1036 C1042 0.930 . S
H1037 C1046 0.930 . S
H1038 C1051 0.929 . S
H1039 C1049 0.929 . S
H1040 C1044 0.929 . S
H1041 C1050 0.929 . S
C1042 H1036 0.930 . S
C1042 C1043 1.367 . S
C1042 C1050 1.378 . S
C1043 C1042 1.367 . S
C1043 C1051 1.433 . S
C1044 H1040 0.929 . S
C1044 C1046 1.378 . S
C1044 C1048 1.350 . S
C1045 C1048 1.463 . S
C1045 C1050 1.350 . S
C1045 N1053 1.427 . S
C1046 H1037 0.930 . S
C1046 C1044 1.378 . S
C1046 C1047 1.367 . S
C1047 C1046 1.367 . S
C1047 C1049 1.433 . S
C1048 C1044 1.350 . S
C1048 C1045 1.463 . S
C1048 N1052 1.427 . S
C1049 H1039 0.929 . S
C1049 C1047 1.433 . S
C1049 N1052 1.384 . S
C1050 H1041 0.929 . S
C1050 C1042 1.378 . S
C1050 C1045 1.350 . S
C1051 H1038 0.929 . S
C1051 C1043 1.433 . S
C1051 N1053 1.384 . S
N1052 C1048 1.427 . S
N1052 C1049 1.384 . S
N1053 C1045 1.427 . S
N1053 C1051 1.384 . S
H1054 C1060 0.930 . S
H1055 C1064 0.930 1_655 S
H1056 C1069 0.929 . S
H1057 C1067 0.929 . S
H1058 C1062 0.929 . S
H1059 C1068 0.929 . S
C1060 H1054 0.930 . S
C1060 C1061 1.367 . S
C1060 C1068 1.378 . S
C1061 C1060 1.367 . S
C1061 C1069 1.433 . S
C1062 H1058 0.929 . S
C1062 C1064 1.378 . S
C1062 C1066 1.350 . S
C1063 C1066 1.463 . S
C1063 C1068 1.350 . S
C1063 N1071 1.427 . S
C1064 H1055 0.930 1_455 S
C1064 C1062 1.378 . S
C1064 C1065 1.367 . S
C1065 C1064 1.367 . S
C1065 C1067 1.433 . S
C1066 C1062 1.350 . S
C1066 C1063 1.463 . S
C1066 N1070 1.427 . S
C1067 H1057 0.929 . S
C1067 C1065 1.433 . S
C1067 N1070 1.384 . S
C1068 H1059 0.929 . S
C1068 C1060 1.378 . S
C1068 C1063 1.350 . S
C1069 H1056 0.929 . S
C1069 C1061 1.433 . S
C1069 N1071 1.384 . S
N1070 C1066 1.427 . S
N1070 C1067 1.384 . S
N1071 C1063 1.427 . S
N1071 C1069 1.384 . S
H1072 C1078 0.930 . S
H1073 C1082 0.930 . S
H1074 C1087 0.929 . S
H1075 C1085 0.929 . S
H1076 C1080 0.929 . S
H1077 C1086 0.929 . S
C1078 H1072 0.930 . S
C1078 C1079 1.367 . S
C1078 C1086 1.378 . S
C1079 C1078 1.367 . S
C1079 C1087 1.433 . S
C1080 H1076 0.929 . S
C1080 C1082 1.378 . S
C1080 C1084 1.350 . S
C1081 C1084 1.463 . S
C1081 C1086 1.350 . S
C1081 N1089 1.427 . S
C1082 H1073 0.930 . S
C1082 C1080 1.378 . S
C1082 C1083 1.367 . S
C1083 C1082 1.367 . S
C1083 C1085 1.433 . S
C1084 C1080 1.350 . S
C1084 C1081 1.463 . S
C1084 N1088 1.427 . S
C1085 H1075 0.929 . S
C1085 C1083 1.433 . S
C1085 N1088 1.384 . S
C1086 H1077 0.929 . S
C1086 C1078 1.378 . S
C1086 C1081 1.350 . S
C1087 H1074 0.929 . S
C1087 C1079 1.433 . S
C1087 N1089 1.384 . S
N1088 C1084 1.427 . S
N1088 C1085 1.384 . S
N1089 C1081 1.427 . S
N1089 C1087 1.384 . S
H1090 C1096 0.930 . S
H1091 C1100 0.930 . S
H1092 C1105 0.929 . S
H1093 C1103 0.929 . S
H1094 C1098 0.929 . S
H1095 C1104 0.929 . S
C1096 H1090 0.930 . S
C1096 C1097 1.367 . S
C1096 C1104 1.378 . S
C1097 C1096 1.367 . S
C1097 C1105 1.433 . S
C1098 H1094 0.929 . S
C1098 C1100 1.378 . S
C1098 C1102 1.350 . S
C1099 C1102 1.463 . S
C1099 C1104 1.350 . S
C1099 N1107 1.427 . S
C1100 H1091 0.930 . S
C1100 C1098 1.378 . S
C1100 C1101 1.367 . S
C1101 C1100 1.367 . S
C1101 C1103 1.433 . S
C1102 C1098 1.350 . S
C1102 C1099 1.463 . S
C1102 N1106 1.427 . S
C1103 H1093 0.929 . S
C1103 C1101 1.433 . S
C1103 N1106 1.384 . S
C1104 H1095 0.929 . S
C1104 C1096 1.378 . S
C1104 C1099 1.350 . S
C1105 H1092 0.929 . S
C1105 C1097 1.433 . S
C1105 N1107 1.384 . S
N1106 C1102 1.427 . S
N1106 C1103 1.384 . S
N1107 C1099 1.427 . S
N1107 C1105 1.384 . S
H1108 C1114 0.930 . S
H1109 C1118 0.930 . S
H1110 C1123 0.929 . S
H1111 C1121 0.929 . S
H1112 C1116 0.929 . S
H1113 C1122 0.929 . S
C1114 H1108 0.930 . S
C1114 C1115 1.367 . S
C1114 C1122 1.378 . S
C1115 C1114 1.367 . S
C1115 C1123 1.433 . S
C1116 H1112 0.929 . S
C1116 C1118 1.378 . S
C1116 C1120 1.350 . S
C1117 C1120 1.463 . S
C1117 C1122 1.350 . S
C1117 N1125 1.427 . S
C1118 H1109 0.930 . S
C1118 C1116 1.378 . S
C1118 C1119 1.367 . S
C1119 C1118 1.367 . S
C1119 C1121 1.433 . S
C1120 C1116 1.350 . S
C1120 C1117 1.463 . S
C1120 N1124 1.427 . S
C1121 H1111 0.929 . S
C1121 C1119 1.433 . S
C1121 N1124 1.384 . S
C1122 H1113 0.929 . S
C1122 C1114 1.378 . S
C1122 C1117 1.350 . S
C1123 H1110 0.929 . S
C1123 C1115 1.433 . S
C1123 N1125 1.384 . S
N1124 C1120 1.427 . S
N1124 C1121 1.384 . S
N1125 C1117 1.427 . S
N1125 C1123 1.384 . S
H1126 C1132 0.930 . S
H1127 C1136 0.930 . S
H1128 C1141 0.929 . S
H1129 C1139 0.929 . S
H1130 C1134 0.929 . S
H1131 C1140 0.929 . S
C1132 H1126 0.930 . S
C1132 C1133 1.367 . S
C1132 C1140 1.378 . S
C1133 C1132 1.367 . S
C1133 C1141 1.433 . S
C1134 H1130 0.929 . S
C1134 C1136 1.378 . S
C1134 C1138 1.350 . S
C1135 C1138 1.463 . S
C1135 C1140 1.350 . S
C1135 N1143 1.427 . S
C1136 H1127 0.930 . S
C1136 C1134 1.378 . S
C1136 C1137 1.367 . S
C1137 C1136 1.367 . S
C1137 C1139 1.433 . S
C1138 C1134 1.350 . S
C1138 C1135 1.463 . S
C1138 N1142 1.427 . S
C1139 H1129 0.929 . S
C1139 C1137 1.433 . S
C1139 N1142 1.384 . S
C1140 H1131 0.929 . S
C1140 C1132 1.378 . S
C1140 C1135 1.350 . S
C1141 H1128 0.929 . S
C1141 C1133 1.433 . S
C1141 N1143 1.384 . S
N1142 C1138 1.427 . S
N1142 C1139 1.384 . S
N1143 C1135 1.427 . S
N1143 C1141 1.384 . S
H1144 C1150 0.930 . S
H1145 C1154 0.930 . S
H1146 C1159 0.929 . S
H1147 C1157 0.929 . S
H1148 C1152 0.929 . S
H1149 C1158 0.929 . S
C1150 H1144 0.930 . S
C1150 C1151 1.367 . S
C1150 C1158 1.378 . S
C1151 C1150 1.367 . S
C1151 C1159 1.433 . S
C1152 H1148 0.929 . S
C1152 C1154 1.378 . S
C1152 C1156 1.350 . S
C1153 C1156 1.463 . S
C1153 C1158 1.350 . S
C1153 N1161 1.427 . S
C1154 H1145 0.930 . S
C1154 C1152 1.378 . S
C1154 C1155 1.367 . S
C1155 C1154 1.367 . S
C1155 C1157 1.433 . S
C1156 C1152 1.350 . S
C1156 C1153 1.463 . S
C1156 N1160 1.427 . S
C1157 H1147 0.929 . S
C1157 C1155 1.433 . S
C1157 N1160 1.384 . S
C1158 H1149 0.929 . S
C1158 C1150 1.378 . S
C1158 C1153 1.350 . S
C1159 H1146 0.929 . S
C1159 C1151 1.433 . S
C1159 N1161 1.384 . S
N1160 C1156 1.427 . S
N1160 C1157 1.384 . S
N1161 C1153 1.427 . S
N1161 C1159 1.384 . S
H1162 C1168 0.930 . S
H1163 C1172 0.930 . S
H1164 C1177 0.929 . S
H1165 C1175 0.929 . S
H1166 C1170 0.929 . S
H1167 C1176 0.929 . S
C1168 H1162 0.930 . S
C1168 C1169 1.367 . S
C1168 C1176 1.378 . S
C1169 C1168 1.367 . S
C1169 C1177 1.433 . S
C1170 H1166 0.929 . S
C1170 C1172 1.378 . S
C1170 C1174 1.350 . S
C1171 C1174 1.463 . S
C1171 C1176 1.350 . S
C1171 N1179 1.427 . S
C1172 H1163 0.930 . S
C1172 C1170 1.378 . S
C1172 C1173 1.367 . S
C1173 C1172 1.367 . S
C1173 C1175 1.433 . S
C1174 C1170 1.350 . S
C1174 C1171 1.463 . S
C1174 N1178 1.427 . S
C1175 H1165 0.929 . S
C1175 C1173 1.433 . S
C1175 N1178 1.384 . S
C1176 H1167 0.929 . S
C1176 C1168 1.378 . S
C1176 C1171 1.350 . S
C1177 H1164 0.929 . S
C1177 C1169 1.433 . S
C1177 N1179 1.384 . S
N1178 C1174 1.427 . S
N1178 C1175 1.384 . S
N1179 C1171 1.427 . S
N1179 C1177 1.384 . S
H1180 C1186 0.930 . S
H1181 C1190 0.930 . S
H1182 C1195 0.929 . S
H1183 C1193 0.929 . S
H1184 C1188 0.929 . S
H1185 C1194 0.929 . S
C1186 H1180 0.930 . S
C1186 C1187 1.367 . S
C1186 C1194 1.378 . S
C1187 C1186 1.367 . S
C1187 C1195 1.433 . S
C1188 H1184 0.929 . S
C1188 C1190 1.378 . S
C1188 C1192 1.350 . S
C1189 C1192 1.463 . S
C1189 C1194 1.350 . S
C1189 N1197 1.427 . S
C1190 H1181 0.930 . S
C1190 C1188 1.378 . S
C1190 C1191 1.367 . S
C1191 C1190 1.367 . S
C1191 C1193 1.433 . S
C1192 C1188 1.350 . S
C1192 C1189 1.463 . S
C1192 N1196 1.427 . S
C1193 H1183 0.929 . S
C1193 C1191 1.433 . S
C1193 N1196 1.384 . S
C1194 H1185 0.929 . S
C1194 C1186 1.378 . S
C1194 C1189 1.350 . S
C1195 H1182 0.929 . S
C1195 C1187 1.433 . S
C1195 N1197 1.384 . S
N1196 C1192 1.427 . S
N1196 C1193 1.384 . S
N1197 C1189 1.427 . S
N1197 C1195 1.384 . S
H1198 C1204 0.930 . S
H1199 C1208 0.930 . S
H1200 C1213 0.929 . S
H1201 C1211 0.929 . S
H1202 C1206 0.929 . S
H1203 C1212 0.929 . S
C1204 H1198 0.930 . S
C1204 C1205 1.367 . S
C1204 C1212 1.378 . S
C1205 C1204 1.367 . S
C1205 C1213 1.433 . S
C1206 H1202 0.929 . S
C1206 C1208 1.378 . S
C1206 C1210 1.350 . S
C1207 C1210 1.463 . S
C1207 C1212 1.350 . S
C1207 N1215 1.427 . S
C1208 H1199 0.930 . S
C1208 C1206 1.378 . S
C1208 C1209 1.367 . S
C1209 C1208 1.367 . S
C1209 C1211 1.433 . S
C1210 C1206 1.350 . S
C1210 C1207 1.463 . S
C1210 N1214 1.427 . S
C1211 H1201 0.929 . S
C1211 C1209 1.433 . S
C1211 N1214 1.384 . S
C1212 H1203 0.929 . S
C1212 C1204 1.378 . S
C1212 C1207 1.350 . S
C1213 H1200 0.929 . S
C1213 C1205 1.433 . S
C1213 N1215 1.384 . S
N1214 C1210 1.427 . S
N1214 C1211 1.384 . S
N1215 C1207 1.427 . S
N1215 C1213 1.384 . S
H1216 C1222 0.930 . S
H1217 C1226 0.930 . S
H1218 C1231 0.929 . S
H1219 C1229 0.929 . S
H1220 C1224 0.929 . S
H1221 C1230 0.929 . S
C1222 H1216 0.930 . S
C1222 C1223 1.367 . S
C1222 C1230 1.378 . S
C1223 C1222 1.367 . S
C1223 C1231 1.433 . S
C1224 H1220 0.929 . S
C1224 C1226 1.378 . S
C1224 C1228 1.350 . S
C1225 C1228 1.463 . S
C1225 C1230 1.350 . S
C1225 N1233 1.427 . S
C1226 H1217 0.930 . S
C1226 C1224 1.378 . S
C1226 C1227 1.367 . S
C1227 C1226 1.367 . S
C1227 C1229 1.433 . S
C1228 C1224 1.350 . S
C1228 C1225 1.463 . S
C1228 N1232 1.427 . S
C1229 H1219 0.929 . S
C1229 C1227 1.433 . S
C1229 N1232 1.384 . S
C1230 H1221 0.929 . S
C1230 C1222 1.378 . S
C1230 C1225 1.350 . S
C1231 H1218 0.929 . S
C1231 C1223 1.433 . S
C1231 N1233 1.384 . S
N1232 C1228 1.427 . S
N1232 C1229 1.384 . S
N1233 C1225 1.427 . S
N1233 C1231 1.384 . S
H1234 C1240 0.930 . S
H1235 C1244 0.930 . S
H1236 C1249 0.929 . S
H1237 C1247 0.929 . S
H1238 C1242 0.929 . S
H1239 C1248 0.929 . S
C1240 H1234 0.930 . S
C1240 C1241 1.367 . S
C1240 C1248 1.378 . S
C1241 C1240 1.367 . S
C1241 C1249 1.433 . S
C1242 H1238 0.929 . S
C1242 C1244 1.378 . S
C1242 C1246 1.350 . S
C1243 C1246 1.463 . S
C1243 C1248 1.350 . S
C1243 N1251 1.427 . S
C1244 H1235 0.930 . S
C1244 C1242 1.378 . S
C1244 C1245 1.367 . S
C1245 C1244 1.367 . S
C1245 C1247 1.433 . S
C1246 C1242 1.350 . S
C1246 C1243 1.463 . S
C1246 N1250 1.427 . S
C1247 H1237 0.929 . S
C1247 C1245 1.433 . S
C1247 N1250 1.384 . S
C1248 H1239 0.929 . S
C1248 C1240 1.378 . S
C1248 C1243 1.350 . S
C1249 H1236 0.929 . S
C1249 C1241 1.433 . S
C1249 N1251 1.384 . S
N1250 C1246 1.427 . S
N1250 C1247 1.384 . S
N1251 C1243 1.427 . S
N1251 C1249 1.384 . S
H1252 C1258 0.930 . S
H1253 C1262 0.930 . S
H1254 C1267 0.929 . S
H1255 C1265 0.929 . S
H1256 C1260 0.929 . S
H1257 C1266 0.929 . S
C1258 H1252 0.930 . S
C1258 C1259 1.367 . S
C1258 C1266 1.378 . S
C1259 C1258 1.367 . S
C1259 C1267 1.433 . S
C1260 H1256 0.929 . S
C1260 C1262 1.378 . S
C1260 C1264 1.350 . S
C1261 C1264 1.463 . S
C1261 C1266 1.350 . S
C1261 N1269 1.427 . S
C1262 H1253 0.930 . S
C1262 C1260 1.378 . S
C1262 C1263 1.367 . S
C1263 C1262 1.367 . S
C1263 C1265 1.433 . S
C1264 C1260 1.350 . S
C1264 C1261 1.463 . S
C1264 N1268 1.427 . S
C1265 H1255 0.929 . S
C1265 C1263 1.433 . S
C1265 N1268 1.384 . S
C1266 H1257 0.929 . S
C1266 C1258 1.378 . S
C1266 C1261 1.350 . S
C1267 H1254 0.929 . S
C1267 C1259 1.433 . S
C1267 N1269 1.384 . S
N1268 C1264 1.427 . S
N1268 C1265 1.384 . S
N1269 C1261 1.427 . S
N1269 C1267 1.384 . S
H1270 C1276 0.930 . S
H1271 C1280 0.930 . S
H1272 C1285 0.929 . S
H1273 C1283 0.929 . S
H1274 C1278 0.929 . S
H1275 C1284 0.929 . S
C1276 H1270 0.930 . S
C1276 C1277 1.367 . S
C1276 C1284 1.378 . S
C1277 C1276 1.367 . S
C1277 C1285 1.433 . S
C1278 H1274 0.929 . S
C1278 C1280 1.378 . S
C1278 C1282 1.350 . S
C1279 C1282 1.463 . S
C1279 C1284 1.350 . S
C1279 N1287 1.427 . S
C1280 H1271 0.930 . S
C1280 C1278 1.378 . S
C1280 C1281 1.367 . S
C1281 C1280 1.367 . S
C1281 C1283 1.433 . S
C1282 C1278 1.350 . S
C1282 C1279 1.463 . S
C1282 N1286 1.427 . S
C1283 H1273 0.929 . S
C1283 C1281 1.433 . S
C1283 N1286 1.384 . S
C1284 H1275 0.929 . S
C1284 C1276 1.378 . S
C1284 C1279 1.350 . S
C1285 H1272 0.929 . S
C1285 C1277 1.433 . S
C1285 N1287 1.384 . S
N1286 C1282 1.427 . S
N1286 C1283 1.384 . S
N1287 C1279 1.427 . S
N1287 C1285 1.384 . S
H1288 C1294 0.930 . S
H1289 C1298 0.930 . S
H1290 C1303 0.929 . S
H1291 C1301 0.929 . S
H1292 C1296 0.929 . S
H1293 C1302 0.929 . S
C1294 H1288 0.930 . S
C1294 C1295 1.367 . S
C1294 C1302 1.378 1_556 S
C1295 C1294 1.367 . S
C1295 C1303 1.433 . S
C1296 H1292 0.929 . S
C1296 C1298 1.378 . S
C1296 C1300 1.350 . S
C1297 C1300 1.463 . S
C1297 C1302 1.350 . S
C1297 N1305 1.427 . S
C1298 H1289 0.930 . S
C1298 C1296 1.378 . S
C1298 C1299 1.367 . S
C1299 C1298 1.367 . S
C1299 C1301 1.433 . S
C1300 C1296 1.350 . S
C1300 C1297 1.463 . S
C1300 N1304 1.427 . S
C1301 H1291 0.929 . S
C1301 C1299 1.433 . S
C1301 N1304 1.384 . S
C1302 H1293 0.929 . S
C1302 C1294 1.378 1_554 S
C1302 C1297 1.350 . S
C1303 H1290 0.929 . S
C1303 C1295 1.433 . S
C1303 N1305 1.384 1_556 S
N1304 C1300 1.427 . S
N1304 C1301 1.384 . S
N1305 C1297 1.427 . S
N1305 C1303 1.384 1_554 S
H1306 C1312 0.930 . S
H1307 C1316 0.930 . S
H1308 C1321 0.929 1_556 S
H1309 C1319 0.929 . S
H1310 C1314 0.929 . S
H1311 C1320 0.929 . S
C1312 H1306 0.930 . S
C1312 C1313 1.367 . S
C1312 C1320 1.378 . S
C1313 C1312 1.367 . S
C1313 C1321 1.433 . S
C1314 H1310 0.929 . S
C1314 C1316 1.378 . S
C1314 C1318 1.350 1_556 S
C1315 C1318 1.463 . S
C1315 C1320 1.350 . S
C1315 N1323 1.426 1_554 S
C1316 H1307 0.930 . S
C1316 C1314 1.378 . S
C1316 C1317 1.367 . S
C1317 C1316 1.367 . S
C1317 C1319 1.433 1_556 S
C1318 C1314 1.350 1_554 S
C1318 C1315 1.463 . S
C1318 N1322 1.427 . S
C1319 H1309 0.929 . S
C1319 C1317 1.433 1_554 S
C1319 N1322 1.384 . S
C1320 H1311 0.929 . S
C1320 C1312 1.378 . S
C1320 C1315 1.350 . S
C1321 H1308 0.929 1_554 S
C1321 C1313 1.433 . S
C1321 N1323 1.383 1_554 S
N1322 C1318 1.427 . S
N1322 C1319 1.384 . S
N1323 C1315 1.426 1_556 S
N1323 C1321 1.383 1_556 S
H1324 C1330 0.930 . S
H1325 C1334 0.930 . S
H1326 C1339 0.929 . S
H1327 C1337 0.929 . S
H1328 C1332 0.929 1_556 S
H1329 C1338 0.929 . S
C1330 H1324 0.930 . S
C1330 C1331 1.367 1_554 S
C1330 C1338 1.378 . S
C1331 C1330 1.367 1_556 S
C1331 C1339 1.433 . S
C1332 H1328 0.929 1_554 S
C1332 C1334 1.378 . S
C1332 C1336 1.350 . S
C1333 C1336 1.463 . S
C1333 C1338 1.350 . S
C1333 N1341 1.427 1_554 S
C1334 H1325 0.930 . S
C1334 C1332 1.378 . S
C1334 C1335 1.367 . S
C1335 C1334 1.367 . S
C1335 C1337 1.433 . S
C1336 C1332 1.350 . S
C1336 C1333 1.463 . S
C1336 N1340 1.427 . S
C1337 H1327 0.929 . S
C1337 C1335 1.433 . S
C1337 N1340 1.384 . S
C1338 H1329 0.929 . S
C1338 C1330 1.378 . S
C1338 C1333 1.350 . S
C1339 H1326 0.929 . S
C1339 C1331 1.433 . S
C1339 N1341 1.384 . S
N1340 C1336 1.427 . S
N1340 C1337 1.384 . S
N1341 C1333 1.427 1_556 S
N1341 C1339 1.384 . S
H1342 C1348 0.930 . S
H1343 C1352 0.930 . S
H1344 C1357 0.929 1_556 S
H1345 C1355 0.929 . S
H1346 C1350 0.929 . S
H1347 C1356 0.929 . S
C1348 H1342 0.930 . S
C1348 C1349 1.367 . S
C1348 C1356 1.378 . S
C1349 C1348 1.367 . S
C1349 C1357 1.433 . S
C1350 H1346 0.929 . S
C1350 C1352 1.378 . S
C1350 C1354 1.350 1_556 S
C1351 C1354 1.463 . S
C1351 C1356 1.350 . S
C1351 N1359 1.427 1_554 S
C1352 H1343 0.930 . S
C1352 C1350 1.378 . S
C1352 C1353 1.367 . S
C1353 C1352 1.367 . S
C1353 C1355 1.433 1_556 S
C1354 C1350 1.350 1_554 S
C1354 C1351 1.463 . S
C1354 N1358 1.427 . S
C1355 H1345 0.929 . S
C1355 C1353 1.433 1_554 S
C1355 N1358 1.384 . S
C1356 H1347 0.929 . S
C1356 C1348 1.378 . S
C1356 C1351 1.350 . S
C1357 H1344 0.929 1_554 S
C1357 C1349 1.433 . S
C1357 N1359 1.384 1_554 S
N1358 C1354 1.427 . S
N1358 C1355 1.384 . S
N1359 C1351 1.427 1_556 S
N1359 C1357 1.384 1_556 S
H1360 C1366 0.930 . S
H1361 C1370 0.930 . S
H1362 C1375 0.929 . S
H1363 C1373 0.929 . S
H1364 C1368 0.929 . S
H1365 C1374 0.929 . S
C1366 H1360 0.930 . S
C1366 C1367 1.367 . S
C1366 C1374 1.378 . S
C1367 C1366 1.367 . S
C1367 C1375 1.433 . S
C1368 H1364 0.929 . S
C1368 C1370 1.378 . S
C1368 C1372 1.350 . S
C1369 C1372 1.463 . S
C1369 C1374 1.350 . S
C1369 N1377 1.427 . S
C1370 H1361 0.930 . S
C1370 C1368 1.378 . S
C1370 C1371 1.367 . S
C1371 C1370 1.367 . S
C1371 C1373 1.433 . S
C1372 C1368 1.350 . S
C1372 C1369 1.463 . S
C1372 N1376 1.427 . S
C1373 H1363 0.929 . S
C1373 C1371 1.433 . S
C1373 N1376 1.384 . S
C1374 H1365 0.929 . S
C1374 C1366 1.378 . S
C1374 C1369 1.350 . S
C1375 H1362 0.929 . S
C1375 C1367 1.433 . S
C1375 N1377 1.384 . S
N1376 C1372 1.427 . S
N1376 C1373 1.384 . S
N1377 C1369 1.427 . S
N1377 C1375 1.384 . S
H1378 C1384 0.930 . S
H1379 C1388 0.930 . S
H1380 C1393 0.929 . S
H1381 C1391 0.929 . S
H1382 C1386 0.929 . S
H1383 C1392 0.929 . S
C1384 H1378 0.930 . S
C1384 C1385 1.367 . S
C1384 C1392 1.378 . S
C1385 C1384 1.367 . S
C1385 C1393 1.433 . S
C1386 H1382 0.929 . S
C1386 C1388 1.378 . S
C1386 C1390 1.350 . S
C1387 C1390 1.463 . S
C1387 C1392 1.350 . S
C1387 N1395 1.427 . S
C1388 H1379 0.930 . S
C1388 C1386 1.378 . S
C1388 C1389 1.367 . S
C1389 C1388 1.367 . S
C1389 C1391 1.433 . S
C1390 C1386 1.350 . S
C1390 C1387 1.463 . S
C1390 N1394 1.427 . S
C1391 H1381 0.929 . S
C1391 C1389 1.433 . S
C1391 N1394 1.384 . S
C1392 H1383 0.929 . S
C1392 C1384 1.378 . S
C1392 C1387 1.350 . S
C1393 H1380 0.929 . S
C1393 C1385 1.433 . S
C1393 N1395 1.384 . S
N1394 C1390 1.427 . S
N1394 C1391 1.384 . S
N1395 C1387 1.427 . S
N1395 C1393 1.384 . S
H1396 C1402 0.930 . S
H1397 C1406 0.930 . S
H1398 C1411 0.929 . S
H1399 C1409 0.929 . S
H1400 C1404 0.929 . S
H1401 C1410 0.929 . S
C1402 H1396 0.930 . S
C1402 C1403 1.367 . S
C1402 C1410 1.378 . S
C1403 C1402 1.367 . S
C1403 C1411 1.433 . S
C1404 H1400 0.929 . S
C1404 C1406 1.378 . S
C1404 C1408 1.350 . S
C1405 C1408 1.463 . S
C1405 C1410 1.350 . S
C1405 N1413 1.427 . S
C1406 H1397 0.930 . S
C1406 C1404 1.378 . S
C1406 C1407 1.367 . S
C1407 C1406 1.367 . S
C1407 C1409 1.433 . S
C1408 C1404 1.350 . S
C1408 C1405 1.463 . S
C1408 N1412 1.427 . S
C1409 H1399 0.929 . S
C1409 C1407 1.433 . S
C1409 N1412 1.384 . S
C1410 H1401 0.929 . S
C1410 C1402 1.378 . S
C1410 C1405 1.350 . S
C1411 H1398 0.929 . S
C1411 C1403 1.433 . S
C1411 N1413 1.384 . S
N1412 C1408 1.427 . S
N1412 C1409 1.384 . S
N1413 C1405 1.427 . S
N1413 C1411 1.384 . S
H1414 C1420 0.930 . S
H1415 C1424 0.930 . S
H1416 C1429 0.929 . S
H1417 C1427 0.929 . S
H1418 C1422 0.929 . S
H1419 C1428 0.929 . S
C1420 H1414 0.930 . S
C1420 C1421 1.367 . S
C1420 C1428 1.378 . S
C1421 C1420 1.367 . S
C1421 C1429 1.433 . S
C1422 H1418 0.929 . S
C1422 C1424 1.378 . S
C1422 C1426 1.350 . S
C1423 C1426 1.463 . S
C1423 C1428 1.350 . S
C1423 N1431 1.427 . S
C1424 H1415 0.930 . S
C1424 C1422 1.378 . S
C1424 C1425 1.367 . S
C1425 C1424 1.367 . S
C1425 C1427 1.433 . S
C1426 C1422 1.350 . S
C1426 C1423 1.463 . S
C1426 N1430 1.427 . S
C1427 H1417 0.929 . S
C1427 C1425 1.433 . S
C1427 N1430 1.384 . S
C1428 H1419 0.929 . S
C1428 C1420 1.378 . S
C1428 C1423 1.350 . S
C1429 H1416 0.929 . S
C1429 C1421 1.433 . S
C1429 N1431 1.384 . S
N1430 C1426 1.427 . S
N1430 C1427 1.384 . S
N1431 C1423 1.427 . S
N1431 C1429 1.384 . S
H1432 C1438 0.930 . S
H1433 C1442 0.930 . S
H1434 C1447 0.929 . S
H1435 C1445 0.929 . S
H1436 C1440 0.929 . S
H1437 C1446 0.929 . S
C1438 H1432 0.930 . S
C1438 C1439 1.367 . S
C1438 C1446 1.378 . S
C1439 C1438 1.367 . S
C1439 C1447 1.433 . S
C1440 H1436 0.929 . S
C1440 C1442 1.378 . S
C1440 C1444 1.350 1_554 S
C1441 C1444 1.463 . S
C1441 C1446 1.350 . S
C1441 N1449 1.427 . S
C1442 H1433 0.930 . S
C1442 C1440 1.378 . S
C1442 C1443 1.367 . S
C1443 C1442 1.367 . S
C1443 C1445 1.433 1_554 S
C1444 C1440 1.350 1_556 S
C1444 C1441 1.463 . S
C1444 N1448 1.427 . S
C1445 H1435 0.929 . S
C1445 C1443 1.433 1_556 S
C1445 N1448 1.384 . S
C1446 H1437 0.929 . S
C1446 C1438 1.378 . S
C1446 C1441 1.350 . S
C1447 H1434 0.929 . S
C1447 C1439 1.433 . S
C1447 N1449 1.384 . S
N1448 C1444 1.427 . S
N1448 C1445 1.384 . S
N1449 C1441 1.427 . S
N1449 C1447 1.384 . S
H1450 C1456 0.930 1_554 S
H1451 C1460 0.930 . S
H1452 C1465 0.929 . S
H1453 C1463 0.929 . S
H1454 C1458 0.929 . S
H1455 C1464 0.929 . S
C1456 H1450 0.930 1_556 S
C1456 C1457 1.367 . S
C1456 C1464 1.378 1_556 S
C1457 C1456 1.367 . S
C1457 C1465 1.433 . S
C1458 H1454 0.929 . S
C1458 C1460 1.378 . S
C1458 C1462 1.350 . S
C1459 C1462 1.463 . S
C1459 C1464 1.350 1_556 S
C1459 N1467 1.427 . S
C1460 H1451 0.930 . S
C1460 C1458 1.378 . S
C1460 C1461 1.367 1_556 S
C1461 C1460 1.367 1_554 S
C1461 C1463 1.433 . S
C1462 C1458 1.350 . S
C1462 C1459 1.463 . S
C1462 N1466 1.427 1_556 S
C1463 H1453 0.929 . S
C1463 C1461 1.433 . S
C1463 N1466 1.384 . S
C1464 H1455 0.929 . S
C1464 C1456 1.378 1_554 S
C1464 C1459 1.350 1_554 S
C1465 H1452 0.929 . S
C1465 C1457 1.433 . S
C1465 N1467 1.384 . S
N1466 C1462 1.427 1_554 S
N1466 C1463 1.384 . S
N1467 C1459 1.427 . S
N1467 C1465 1.384 . S
H1468 C1474 0.930 . S
H1469 C1478 0.930 . S
H1470 C1483 0.929 . S
H1471 C1481 0.929 . S
H1472 C1476 0.929 . S
H1473 C1482 0.929 . S
C1474 H1468 0.930 . S
C1474 C1475 1.367 1_556 S
C1474 C1482 1.378 . S
C1475 C1474 1.367 1_554 S
C1475 C1483 1.433 . S
C1476 H1472 0.929 . S
C1476 C1478 1.378 . S
C1476 C1480 1.350 . S
C1477 C1480 1.463 . S
C1477 C1482 1.350 . S
C1477 N1485 1.416 1_556 S
C1478 H1469 0.930 . S
C1478 C1476 1.378 . S
C1478 C1479 1.367 . S
C1479 C1478 1.367 . S
C1479 C1481 1.433 . S
C1480 C1476 1.350 . S
C1480 C1477 1.463 . S
C1480 N1484 1.427 . S
C1481 H1471 0.929 . S
C1481 C1479 1.433 . S
C1481 N1484 1.384 . S
C1482 H1473 0.929 . S
C1482 C1474 1.378 . S
C1482 C1477 1.350 . S
C1483 H1470 0.929 . S
C1483 C1475 1.433 . S
C1483 N1485 1.394 . S
N1484 C1480 1.427 . S
N1484 C1481 1.384 . S
N1485 C1477 1.416 1_554 S
N1485 C1483 1.394 . S
H1486 C1492 0.930 . S
H1487 C1496 0.930 1_554 S
H1488 C1501 0.929 . S
H1489 C1499 0.929 . S
H1490 C1494 0.961 . S
H1491 C1500 0.929 . S
C1492 H1486 0.930 . S
C1492 C1493 1.367 1_556 S
C1492 C1500 1.378 . S
C1493 C1492 1.367 1_554 S
C1493 C1501 1.433 . S
C1494 H1490 0.961 . S
C1494 C1496 1.368 1_554 S
C1494 C1498 1.328 1_554 S
C1495 C1498 1.463 . S
C1495 C1500 1.350 . S
C1495 N1503 1.427 1_556 S
C1496 H1487 0.930 1_556 S
C1496 C1494 1.368 1_556 S
C1496 C1497 1.367 . S
C1497 C1496 1.367 . S
C1497 C1499 1.433 . S
C1498 C1494 1.328 1_556 S
C1498 C1495 1.463 . S
C1498 N1502 1.427 . S
C1499 H1489 0.929 . S
C1499 C1497 1.433 . S
C1499 N1502 1.384 . S
C1500 H1491 0.929 . S
C1500 C1492 1.378 . S
C1500 C1495 1.350 . S
C1501 H1488 0.929 . S
C1501 C1493 1.433 . S
C1501 N1503 1.384 . S
N1502 C1498 1.427 . S
N1502 C1499 1.384 . S
N1503 C1495 1.427 1_554 S
N1503 C1501 1.384 . S
C647 C23 2.356 . S
C651 C223 2.344 . S
C665 C263 2.358 . S
C669 C63 2.344 . S
C683 C103 2.351 . S
C687 C303 2.346 . S
C701 C143 2.349 . S
C705 C183 2.358 . S
C719 C522 2.358 . S
C723 C322 2.345 . S
C737 C562 2.350 . S
C741 C362 2.357 . S
C755 C402 2.343 . S
C759 C602 2.357 . S
C773 C442 2.347 . S
C777 C482 2.352 . S
C791 C4 1.900 . S
C795 C140 1.774 1_545 S
C809 C44 1.908 . S
C813 C20 1.789 . S
C827 C84 1.908 . S
C831 C60 1.791 . S
C845 C124 1.898 . S
C849 C100 1.782 1_455 S
C863 C164 1.907 . S
C867 C220 1.792 1_565 S
C881 C260 1.793 . S
C885 C204 1.904 . S
C899 C244 1.898 . S
C903 C300 1.778 . S
C917 C180 1.777 1_655 S
C921 C284 1.898 . S
C935 C471 1.775 1_565 S
C939 C345 1.902 . S
C953 C385 1.897 . S
C957 C351 1.780 . S
C971 C425 1.901 . S
C975 C391 1.789 . S
C989 C465 1.897 . S
C993 C431 1.779 1_655 S
C1007 C505 1.903 . S
C1011 C551 1.776 1_545 S
C1025 C545 1.908 . S
C1029 C591 1.791 . S
C1043 C585 1.900 . S
C1047 C631 1.775 . S
C1061 C625 1.906 . S
C1065 C511 1.779 1_455 S
C1079 C25 1.378 . S
C1083 C105 1.383 . S
C1097 C65 1.381 . S
C1101 C145 1.384 . S
C1115 C265 1.382 . S
C1119 C185 1.384 . S
C1133 C305 1.381 . S
C1137 C225 1.384 . S
C1151 C404 1.377 . S
C1155 C324 1.380 . S
C1169 C444 1.382 . S
C1173 C364 1.378 . S
C1187 C484 1.378 . S
C1191 C564 1.382 . S
C1205 C524 1.377 . S
C1209 C604 1.380 . S
C1223 C31 2.709 . S
C1227 C463 2.687 . S
C1241 C343 2.690 . S
C1245 C71 2.711 . S
C1259 C111 2.712 . S
C1263 C383 2.692 . S
C1277 C423 2.686 . S
C1281 C151 2.709 . S
C1295 C543 2.690 . S
C1299 C191 2.711 . S
C1313 C231 2.709 . S
C1317 C583 2.687 . S
C1331 C623 2.691 . S
C1335 C271 2.712 . S
C1349 C311 2.709 . S
C1353 C503 2.687 . S
C1367 C340 2.709 . S
C1371 C122 2.687 . S
C1385 C380 2.713 . S
C1389 C2 2.692 . S
C1403 C42 2.686 . S
C1407 C420 2.709 . S
C1421 C460 2.709 . S
C1425 C82 2.687 . S
C1439 C500 2.709 . S
C1443 C202 2.687 . S
C1457 C540 2.712 . S
C1461 C242 2.692 . S
C1475 C282 2.691 . S
C1479 C580 2.712 . S
C1493 C162 2.692 . S
C1497 C620 2.713 . S
