# Generated by pormake.
# Topology ukv, (4)-cn, num edge types: 1
# Building blocks:
#     Node 0, Type 0, BuildingBlock: AZAVOO_clean_sbu_0, # of connection points: 4
#     Node 1, Type 0, BuildingBlock: AZAVOO_clean_sbu_0, # of connection points: 4
#     Node 2, Type 0, BuildingBlock: AZAVOO_clean_sbu_0, # of connection points: 4
#     Node 3, Type 0, BuildingBlock: AZAVOO_clean_sbu_0, # of connection points: 4
#     Node 4, Type 0, BuildingBlock: AZAVOO_clean_sbu_0, # of connection points: 4
#     Node 5, Type 0, BuildingBlock: AZAVOO_clean_sbu_0, # of connection points: 4
#     Node 6, Type 0, BuildingBlock: AZAVOO_clean_sbu_0, # of connection points: 4
#     Node 7, Type 0, BuildingBlock: AZAVOO_clean_sbu_0, # of connection points: 4
#     Node 8, Type 0, BuildingBlock: AZAVOO_clean_sbu_0, # of connection points: 4
#     Node 9, Type 0, BuildingBlock: AZAVOO_clean_sbu_0, # of connection points: 4
#     Node 10, Type 0, BuildingBlock: AZAVOO_clean_sbu_0, # of connection points: 4
#     Node 11, Type 0, BuildingBlock: AZAVOO_clean_sbu_0, # of connection points: 4
#     Node 12, Type 0, BuildingBlock: AZAVOO_clean_sbu_0, # of connection points: 4
#     Node 13, Type 0, BuildingBlock: AZAVOO_clean_sbu_0, # of connection points: 4
#     Node 14, Type 0, BuildingBlock: AZAVOO_clean_sbu_0, # of connection points: 4
#     Node 15, Type 0, BuildingBlock: AZAVOO_clean_sbu_0, # of connection points: 4
#     Node 16, Type 0, BuildingBlock: AZAVOO_clean_sbu_0, # of connection points: 4
#     Node 17, Type 0, BuildingBlock: AZAVOO_clean_sbu_0, # of connection points: 4
#     Node 18, Type 0, BuildingBlock: AZAVOO_clean_sbu_0, # of connection points: 4
#     Node 19, Type 0, BuildingBlock: AZAVOO_clean_sbu_0, # of connection points: 4
#     Node 20, Type 0, BuildingBlock: AZAVOO_clean_sbu_0, # of connection points: 4
#     Node 21, Type 0, BuildingBlock: AZAVOO_clean_sbu_0, # of connection points: 4
#     Node 22, Type 0, BuildingBlock: AZAVOO_clean_sbu_0, # of connection points: 4
#     Node 23, Type 0, BuildingBlock: AZAVOO_clean_sbu_0, # of connection points: 4
#     Node 24, Type 0, BuildingBlock: AZAVOO_clean_sbu_0, # of connection points: 4
#     Node 25, Type 0, BuildingBlock: AZAVOO_clean_sbu_0, # of connection points: 4
#     Node 26, Type 0, BuildingBlock: AZAVOO_clean_sbu_0, # of connection points: 4
#     Node 27, Type 0, BuildingBlock: AZAVOO_clean_sbu_0, # of connection points: 4
#     Node 28, Type 0, BuildingBlock: AZAVOO_clean_sbu_0, # of connection points: 4
#     Node 29, Type 0, BuildingBlock: AZAVOO_clean_sbu_0, # of connection points: 4
#     Node 30, Type 0, BuildingBlock: AZAVOO_clean_sbu_0, # of connection points: 4
#     Node 31, Type 0, BuildingBlock: AZAVOO_clean_sbu_0, # of connection points: 4
#     Node 32, Type 0, BuildingBlock: AZAVOO_clean_sbu_0, # of connection points: 4
#     Node 33, Type 0, BuildingBlock: AZAVOO_clean_sbu_0, # of connection points: 4
#     Node 34, Type 0, BuildingBlock: AZAVOO_clean_sbu_0, # of connection points: 4
#     Node 35, Type 0, BuildingBlock: AZAVOO_clean_sbu_0, # of connection points: 4
#     Edge 36, Type (0, 0), BuildingBlock: AJUNOK_clean_linker_0, # of connection points: 2
#     Edge 37, Type (0, 0), BuildingBlock: AJUNOK_clean_linker_0, # of connection points: 2
#     Edge 38, Type (0, 0), BuildingBlock: AJUNOK_clean_linker_0, # of connection points: 2
#     Edge 39, Type (0, 0), BuildingBlock: AJUNOK_clean_linker_0, # of connection points: 2
#     Edge 40, Type (0, 0), BuildingBlock: AJUNOK_clean_linker_0, # of connection points: 2
#     Edge 41, Type (0, 0), BuildingBlock: AJUNOK_clean_linker_0, # of connection points: 2
#     Edge 42, Type (0, 0), BuildingBlock: AJUNOK_clean_linker_0, # of connection points: 2
#     Edge 43, Type (0, 0), BuildingBlock: AJUNOK_clean_linker_0, # of connection points: 2
#     Edge 44, Type (0, 0), BuildingBlock: AJUNOK_clean_linker_0, # of connection points: 2
#     Edge 45, Type (0, 0), BuildingBlock: AJUNOK_clean_linker_0, # of connection points: 2
#     Edge 46, Type (0, 0), BuildingBlock: AJUNOK_clean_linker_0, # of connection points: 2
#     Edge 47, Type (0, 0), BuildingBlock: AJUNOK_clean_linker_0, # of connection points: 2
#     Edge 48, Type (0, 0), BuildingBlock: AJUNOK_clean_linker_0, # of connection points: 2
#     Edge 49, Type (0, 0), BuildingBlock: AJUNOK_clean_linker_0, # of connection points: 2
#     Edge 50, Type (0, 0), BuildingBlock: AJUNOK_clean_linker_0, # of connection points: 2
#     Edge 51, Type (0, 0), BuildingBlock: AJUNOK_clean_linker_0, # of connection points: 2
#     Edge 52, Type (0, 0), BuildingBlock: AJUNOK_clean_linker_0, # of connection points: 2
#     Edge 53, Type (0, 0), BuildingBlock: AJUNOK_clean_linker_0, # of connection points: 2
#     Edge 54, Type (0, 0), BuildingBlock: AJUNOK_clean_linker_0, # of connection points: 2
#     Edge 55, Type (0, 0), BuildingBlock: AJUNOK_clean_linker_0, # of connection points: 2
#     Edge 56, Type (0, 0), BuildingBlock: AJUNOK_clean_linker_0, # of connection points: 2
#     Edge 57, Type (0, 0), BuildingBlock: AJUNOK_clean_linker_0, # of connection points: 2
#     Edge 58, Type (0, 0), BuildingBlock: AJUNOK_clean_linker_0, # of connection points: 2
#     Edge 59, Type (0, 0), BuildingBlock: AJUNOK_clean_linker_0, # of connection points: 2
#     Edge 60, Type (0, 0), BuildingBlock: AJUNOK_clean_linker_0, # of connection points: 2
#     Edge 61, Type (0, 0), BuildingBlock: AJUNOK_clean_linker_0, # of connection points: 2
#     Edge 62, Type (0, 0), BuildingBlock: AJUNOK_clean_linker_0, # of connection points: 2
#     Edge 63, Type (0, 0), BuildingBlock: AJUNOK_clean_linker_0, # of connection points: 2
#     Edge 64, Type (0, 0), BuildingBlock: AJUNOK_clean_linker_0, # of connection points: 2
#     Edge 65, Type (0, 0), BuildingBlock: AJUNOK_clean_linker_0, # of connection points: 2
#     Edge 66, Type (0, 0), BuildingBlock: AJUNOK_clean_linker_0, # of connection points: 2
#     Edge 67, Type (0, 0), BuildingBlock: AJUNOK_clean_linker_0, # of connection points: 2
#     Edge 68, Type (0, 0), BuildingBlock: AJUNOK_clean_linker_0, # of connection points: 2
#     Edge 69, Type (0, 0), BuildingBlock: AJUNOK_clean_linker_0, # of connection points: 2
#     Edge 70, Type (0, 0), BuildingBlock: AJUNOK_clean_linker_0, # of connection points: 2
#     Edge 71, Type (0, 0), BuildingBlock: AJUNOK_clean_linker_0, # of connection points: 2
#     Edge 72, Type (0, 0), BuildingBlock: AJUNOK_clean_linker_0, # of connection points: 2
#     Edge 73, Type (0, 0), BuildingBlock: AJUNOK_clean_linker_0, # of connection points: 2
#     Edge 74, Type (0, 0), BuildingBlock: AJUNOK_clean_linker_0, # of connection points: 2
#     Edge 75, Type (0, 0), BuildingBlock: AJUNOK_clean_linker_0, # of connection points: 2
#     Edge 76, Type (0, 0), BuildingBlock: AJUNOK_clean_linker_0, # of connection points: 2
#     Edge 77, Type (0, 0), BuildingBlock: AJUNOK_clean_linker_0, # of connection points: 2
#     Edge 78, Type (0, 0), BuildingBlock: AJUNOK_clean_linker_0, # of connection points: 2
#     Edge 79, Type (0, 0), BuildingBlock: AJUNOK_clean_linker_0, # of connection points: 2
#     Edge 80, Type (0, 0), BuildingBlock: AJUNOK_clean_linker_0, # of connection points: 2
#     Edge 81, Type (0, 0), BuildingBlock: AJUNOK_clean_linker_0, # of connection points: 2
#     Edge 82, Type (0, 0), BuildingBlock: AJUNOK_clean_linker_0, # of connection points: 2
#     Edge 83, Type (0, 0), BuildingBlock: AJUNOK_clean_linker_0, # of connection points: 2
#     Edge 84, Type (0, 0), BuildingBlock: AJUNOK_clean_linker_0, # of connection points: 2
#     Edge 85, Type (0, 0), BuildingBlock: AJUNOK_clean_linker_0, # of connection points: 2
#     Edge 86, Type (0, 0), BuildingBlock: AJUNOK_clean_linker_0, # of connection points: 2
#     Edge 87, Type (0, 0), BuildingBlock: AJUNOK_clean_linker_0, # of connection points: 2
#     Edge 88, Type (0, 0), BuildingBlock: AJUNOK_clean_linker_0, # of connection points: 2
#     Edge 89, Type (0, 0), BuildingBlock: AJUNOK_clean_linker_0, # of connection points: 2
#     Edge 90, Type (0, 0), BuildingBlock: AJUNOK_clean_linker_0, # of connection points: 2
#     Edge 91, Type (0, 0), BuildingBlock: AJUNOK_clean_linker_0, # of connection points: 2
#     Edge 92, Type (0, 0), BuildingBlock: AJUNOK_clean_linker_0, # of connection points: 2
#     Edge 93, Type (0, 0), BuildingBlock: AJUNOK_clean_linker_0, # of connection points: 2
#     Edge 94, Type (0, 0), BuildingBlock: AJUNOK_clean_linker_0, # of connection points: 2
#     Edge 95, Type (0, 0), BuildingBlock: AJUNOK_clean_linker_0, # of connection points: 2
#     Edge 96, Type (0, 0), BuildingBlock: AJUNOK_clean_linker_0, # of connection points: 2
#     Edge 97, Type (0, 0), BuildingBlock: AJUNOK_clean_linker_0, # of connection points: 2
#     Edge 98, Type (0, 0), BuildingBlock: AJUNOK_clean_linker_0, # of connection points: 2
#     Edge 99, Type (0, 0), BuildingBlock: AJUNOK_clean_linker_0, # of connection points: 2
#     Edge 100, Type (0, 0), BuildingBlock: AJUNOK_clean_linker_0, # of connection points: 2
#     Edge 101, Type (0, 0), BuildingBlock: AJUNOK_clean_linker_0, # of connection points: 2
#     Edge 102, Type (0, 0), BuildingBlock: AJUNOK_clean_linker_0, # of connection points: 2
#     Edge 103, Type (0, 0), BuildingBlock: AJUNOK_clean_linker_0, # of connection points: 2
#     Edge 104, Type (0, 0), BuildingBlock: AJUNOK_clean_linker_0, # of connection points: 2
#     Edge 105, Type (0, 0), BuildingBlock: AJUNOK_clean_linker_0, # of connection points: 2
#     Edge 106, Type (0, 0), BuildingBlock: AJUNOK_clean_linker_0, # of connection points: 2
#     Edge 107, Type (0, 0), BuildingBlock: AJUNOK_clean_linker_0, # of connection points: 2
# Relax obj value: 0.309
# Max RMSD: 0.200
# Mean RMSD: 0.200
data_MOF--net-ukv--node1-AZAVOO_clean_sbu_0--edge1-AJUNOK_clean_linker_0
_symmetry_space_group_name_H-M    P1
_symmetry_Int_Tables_number       1
_symmetry_cell_setting            triclinic
loop_
_symmetry_equiv_pos_as_xyz
'x, y, z'
_cell_length_a     73.758065
_cell_length_b     73.852188
_cell_length_c     13.962144
_cell_angle_alpha  89.996135
_cell_angle_beta   90.019099
_cell_angle_gamma 119.99237
loop_
_atom_site_label
_atom_site_type_symbol
_atom_site_fract_x
_atom_site_fract_y
_atom_site_fract_z
_atom_type_partial_charge
Mg0 Mg 0.28366 0.08601 0.27931 0.0
O1 O 0.27781 0.10628 0.17608 0.0
O2 O 0.25137 0.11024 0.22575 0.0
Mg3 Mg 0.23755 0.08902 0.35815 0.0
C4 C 0.26625 0.11438 0.16733 0.0
C5 C 0.3181 0.10289 0.12207 0.0
O6 O 0.32064 0.12015 0.16171 0.0
O7 O 0.25588 0.05546 0.22633 0.0
O8 O 0.22901 0.05806 0.28428 0.0
O9 O 0.30175 0.11478 0.37338 0.0
O10 O 0.26827 0.09216 0.39024 0.0
C11 C 0.23629 0.04774 0.24172 0.0
C12 C 0.28424 0.10921 0.41704 0.0
O13 O 0.30511 0.08548 0.16009 0.0
Mg14 Mg 0.91673 0.19146 0.24699 0.0
O15 O 0.90572 0.16589 0.13616 0.0
O16 O 0.90758 0.13872 0.19261 0.0
Mg17 Mg 0.92558 0.14947 0.3353 0.0
C18 C 0.90195 0.1472 0.12838 0.0
C19 C 0.89777 0.20298 0.07188 0.0
O20 O 0.88216 0.18456 0.09605 0.0
O21 O 0.95143 0.20364 0.21536 0.0
O22 O 0.95504 0.17743 0.27369 0.0
O23 O 0.88474 0.1721 0.3156 0.0
O24 O 0.91258 0.17022 0.35709 0.0
C25 C 0.96272 0.19545 0.2351 0.0
C26 C 0.8929 0.16318 0.36554 0.0
O27 O 0.91404 0.21135 0.1249 0.0
Mg28 Mg 0.77596 0.67938 0.40364 0.0
O29 O 0.80515 0.68611 0.31946 0.0
O30 O 0.83325 0.71425 0.37769 0.0
Mg31 Mg 0.82149 0.72621 0.50196 0.0
C32 C 0.82479 0.6988 0.3199 0.0
C33 C 0.7614 0.64506 0.24587 0.0
O34 O 0.77422 0.64122 0.29549 0.0
O35 O 0.774 0.70664 0.339 0.0
O36 O 0.80133 0.73429 0.40632 0.0
O37 O 0.78516 0.66155 0.50558 0.0
O38 O 0.79418 0.69472 0.52245 0.0
C39 C 0.78508 0.72633 0.35305 0.0
C40 C 0.79573 0.6791 0.55099 0.0
O41 O 0.75702 0.65855 0.27739 0.0
Mg42 Mg 0.09276 0.29317 0.16411 0.0
O43 O 0.11387 0.2884 0.26589 0.0
O44 O 0.11513 0.25995 0.22634 0.0
Mg45 Mg 0.09365 0.24558 0.09541 0.0
C46 C 0.12092 0.27605 0.27894 0.0
C47 C 0.10807 0.32913 0.32384 0.0
O48 O 0.12622 0.33624 0.28083 0.0
O49 O 0.06214 0.26632 0.22158 0.0
O50 O 0.06296 0.23828 0.16809 0.0
O51 O 0.12091 0.31024 0.06477 0.0
O52 O 0.0984 0.27672 0.05383 0.0
C53 C 0.05347 0.24659 0.20928 0.0
C54 C 0.11539 0.29246 0.02407 0.0
O55 O 0.09187 0.31391 0.28634 0.0
Mg56 Mg 0.70923 0.78428 0.22963 0.0
O57 O 0.72182 0.80989 0.34063 0.0
O58 O 0.75289 0.8364 0.2987 0.0
Mg59 Mg 0.76159 0.82578 0.15918 0.0
C60 C 0.73714 0.82813 0.35493 0.0
C61 C 0.67761 0.77216 0.39696 0.0
O62 O 0.6796 0.79002 0.36848 0.0
O63 O 0.73095 0.77236 0.27448 0.0
O64 O 0.76215 0.79781 0.22603 0.0
O65 O 0.69589 0.8018 0.15421 0.0
O66 O 0.72758 0.80695 0.12521 0.0
C67 C 0.75059 0.7799 0.26356 0.0
C68 C 0.71385 0.81265 0.11224 0.0
O69 O 0.68586 0.7638 0.34662 0.0
Mg70 Mg 0.17751 0.91159 0.22703 0.0
O71 O 0.15357 0.9001 0.34632 0.0
O72 O 0.12546 0.90169 0.30187 0.0
Mg73 Mg 0.13382 0.91929 0.1571 0.0
C74 C 0.13504 0.89634 0.36165 0.0
C75 C 0.19386 0.89534 0.39645 0.0
O76 O 0.17623 0.8782 0.37612 0.0
O77 O 0.18954 0.94604 0.25668 0.0
O78 O 0.16273 0.94969 0.20737 0.0
O79 O 0.15781 0.87948 0.15947 0.0
O80 O 0.15477 0.90692 0.12384 0.0
C81 C 0.18139 0.95742 0.23927 0.0
C82 C 0.14825 0.88745 0.11298 0.0
O83 O 0.19983 0.91114 0.34196 0.0
Mg84 Mg 0.70496 0.8973 0.71381 0.0
O85 O 0.71544 0.88206 0.82199 0.0
O86 O 0.74627 0.88524 0.78612 0.0
Mg87 Mg 0.75634 0.90417 0.64534 0.0
C88 C 0.73014 0.87837 0.83951 0.0
C89 C 0.68154 0.9063 0.88928 0.0
O90 O 0.69381 0.9262 0.86986 0.0
O91 O 0.72838 0.93094 0.75989 0.0
O92 O 0.75824 0.93343 0.70824 0.0
O93 O 0.69245 0.86684 0.63113 0.0
O94 O 0.72359 0.89436 0.60838 0.0
C95 C 0.74812 0.94155 0.74492 0.0
C96 C 0.71049 0.87531 0.58886 0.0
O97 O 0.68143 0.89252 0.83379 0.0
Mg98 Mg 0.07006 0.79687 0.73849 0.0
O99 O 0.0775 0.8218 0.84938 0.0
O100 O 0.07259 0.84713 0.79272 0.0
Mg101 Mg 0.0542 0.83371 0.65174 0.0
C102 C 0.07907 0.8396 0.85779 0.0
C103 C 0.09187 0.7909 0.91399 0.0
O104 O 0.10648 0.80874 0.87818 0.0
O105 O 0.03532 0.78053 0.77032 0.0
O106 O 0.02667 0.80371 0.71656 0.0
O107 O 0.10129 0.81907 0.67144 0.0
O108 O 0.07157 0.81692 0.62718 0.0
C109 C 0.02171 0.78599 0.75362 0.0
C110 C 0.09156 0.82619 0.62024 0.0
O111 O 0.07535 0.78002 0.86491 0.0
Mg112 Mg 0.21623 0.30424 0.66384 0.0
O113 O 0.187 0.29273 0.75063 0.0
O114 O 0.15997 0.26363 0.69435 0.0
Mg115 Mg 0.17382 0.2553 0.56378 0.0
C116 C 0.16783 0.27882 0.75358 0.0
C117 C 0.24001 0.32131 0.86597 0.0
O118 O 0.24582 0.3073 0.85484 0.0
O119 O 0.22324 0.27911 0.7151 0.0
O120 O 0.19773 0.25015 0.64693 0.0
O121 O 0.20286 0.31991 0.57338 0.0
O122 O 0.19832 0.28855 0.54334 0.0
C123 C 0.2146 0.25964 0.69577 0.0
C124 C 0.19371 0.30275 0.52413 0.0
O125 O 0.23079 0.32488 0.79748 0.0
Mg126 Mg 0.8952 0.68292 0.89511 0.0
O127 O 0.87342 0.68952 0.80703 0.0
O128 O 0.87352 0.71813 0.85667 0.0
Mg129 Mg 0.89785 0.73159 0.97708 0.0
C130 C 0.86655 0.70219 0.80218 0.0
C131 C 0.87203 0.64751 0.74417 0.0
O132 O 0.85652 0.64654 0.79444 0.0
O133 O 0.92471 0.70898 0.82377 0.0
O134 O 0.92554 0.7375 0.8827 0.0
O135 O 0.86905 0.66645 0.00235 0.0
O136 O 0.89247 0.69989 0.01168 0.0
C137 C 0.93365 0.72882 0.83331 0.0
C138 C 0.87563 0.68429 0.04454 0.0
O139 O 0.89069 0.6596 0.77325 0.0
Mg140 Mg 0.30085 0.21085 0.7794 0.0
O141 O 0.2875 0.18235 0.68607 0.0
O142 O 0.25813 0.15642 0.74601 0.0
Mg143 Mg 0.25071 0.17035 0.87856 0.0
C144 C 0.27273 0.16353 0.68363 0.0
C145 C 0.32543 0.2424 0.60038 0.0
O146 O 0.32008 0.25544 0.63692 0.0
O147 O 0.27747 0.22067 0.73165 0.0
O148 O 0.24777 0.19588 0.79814 0.0
O149 O 0.31431 0.19436 0.86542 0.0
O150 O 0.28437 0.19279 0.89943 0.0
C151 C 0.25804 0.21287 0.75098 0.0
C152 C 0.29734 0.18645 0.91605 0.0
O153 O 0.32141 0.22585 0.64587 0.0
Mg154 Mg 0.80294 0.07864 0.75215 0.0
O155 O 0.82715 0.08975 0.63326 0.0
O156 O 0.8545 0.08692 0.67902 0.0
Mg157 Mg 0.8455 0.06892 0.82222 0.0
C158 C 0.8455 0.09289 0.61899 0.0
C159 C 0.78885 0.09735 0.58532 0.0
O160 O 0.80753 0.11321 0.60427 0.0
O161 O 0.78954 0.04396 0.71907 0.0
O162 O 0.81595 0.0398 0.76999 0.0
O163 O 0.8234 0.11011 0.82496 0.0
O164 O 0.82509 0.08177 0.85502 0.0
C165 C 0.79738 0.03232 0.73743 0.0
C166 C 0.83216 0.10119 0.87032 0.0
O167 O 0.78152 0.08131 0.63925 0.0
Mg168 Mg 0.95501 0.41478 0.64336 0.0
O169 O 0.94383 0.4311 0.54247 0.0
O170 O 0.91474 0.42966 0.5954 0.0
Mg171 Mg 0.90427 0.40736 0.72538 0.0
C172 C 0.92976 0.43608 0.53548 0.0
C173 C 0.98818 0.43959 0.49217 0.0
O174 O 0.98802 0.45388 0.54761 0.0
O175 O 0.93148 0.38229 0.58771 0.0
O176 O 0.90176 0.37907 0.64587 0.0
O177 O 0.96846 0.44366 0.73727 0.0
O178 O 0.93702 0.41651 0.75709 0.0
C179 C 0.91171 0.37158 0.60172 0.0
C180 C 0.95066 0.43512 0.78156 0.0
O181 O 0.97812 0.42063 0.51983 0.0
Mg182 Mg 0.58663 0.5282 0.41755 0.0
O183 O 0.5593 0.49793 0.36345 0.0
O184 O 0.55533 0.46885 0.4319 0.0
Mg185 Mg 0.58598 0.48082 0.51767 0.0
C186 C 0.54904 0.47822 0.37536 0.0
C187 C 0.59086 0.55536 0.22797 0.0
O188 O 0.61118 0.5642 0.24006 0.0
O189 O 0.60991 0.52445 0.32382 0.0
O190 O 0.602 0.49407 0.37527 0.0
O191 O 0.56637 0.52535 0.54362 0.0
O192 O 0.58672 0.51146 0.54375 0.0
C193 C 0.61537 0.51343 0.37219 0.0
C194 C 0.57243 0.51364 0.58574 0.0
O195 O 0.57851 0.54281 0.29103 0.0
Mg196 Mg 0.4649 0.04676 0.62872 0.0
O197 O 0.49019 0.05794 0.51623 0.0
O198 O 0.51845 0.08739 0.5612 0.0
Mg199 Mg 0.50962 0.09736 0.70226 0.0
C200 C 0.50894 0.0723 0.50226 0.0
C201 C 0.43672 0.02683 0.43947 0.0
O202 O 0.43697 0.0447 0.43555 0.0
O203 O 0.45476 0.07051 0.58926 0.0
O204 O 0.48229 0.10011 0.64152 0.0
O205 O 0.48232 0.03318 0.70748 0.0
O206 O 0.48685 0.06449 0.73522 0.0
C207 C 0.46392 0.09016 0.60562 0.0
C208 C 0.4922 0.05082 0.75274 0.0
O209 O 0.44485 0.0229 0.51149 0.0
Mg210 Mg 0.71494 0.58179 0.69767 0.0
O211 O 0.71763 0.56228 0.81876 0.0
O212 O 0.72067 0.53658 0.75195 0.0
Mg213 Mg 0.69556 0.52738 0.63465 0.0
C214 C 0.7247 0.54972 0.81964 0.0
C215 C 0.7408 0.61139 0.85824 0.0
O216 O 0.75295 0.60496 0.82096 0.0
O217 O 0.67972 0.56846 0.71923 0.0
O218 O 0.67964 0.53939 0.73334 0.0
O219 O 0.74511 0.58648 0.63669 0.0
O220 O 0.7146 0.5607 0.5879 0.0
C221 C 0.67023 0.54886 0.70505 0.0
C222 C 0.7347 0.57015 0.58323 0.0
O223 O 0.7235 0.6062 0.81672 0.0
Mg224 Mg 0.37951 0.14262 0.56599 0.0
O225 O 0.39268 0.16894 0.67246 0.0
O226 O 0.42313 0.19573 0.62701 0.0
Mg227 Mg 0.4314 0.1844 0.48815 0.0
C228 C 0.40765 0.18744 0.68471 0.0
C229 C 0.35469 0.1104 0.74254 0.0
O230 O 0.36506 0.10078 0.72092 0.0
O231 O 0.40144 0.13042 0.60863 0.0
O232 O 0.43191 0.15626 0.55365 0.0
O233 O 0.36773 0.16161 0.48798 0.0
O234 O 0.39786 0.16336 0.45705 0.0
C235 C 0.42099 0.13826 0.5919 0.0
C236 C 0.38545 0.17051 0.4429 0.0
O237 O 0.35634 0.12515 0.68904 0.0
Mg238 Mg 0.86971 0.23855 0.51791 0.0
O239 O 0.84289 0.22224 0.6219 0.0
O240 O 0.81456 0.22255 0.5699 0.0
Mg241 Mg 0.82504 0.24364 0.4356 0.0
C242 C 0.82374 0.21691 0.63042 0.0
C243 C 0.8931 0.24268 0.71818 0.0
O244 O 0.89174 0.25959 0.7296 0.0
O245 O 0.87792 0.27125 0.56843 0.0
O246 O 0.85048 0.27289 0.51073 0.0
O247 O 0.85446 0.20889 0.42928 0.0
O248 O 0.84935 0.23547 0.40547 0.0
C249 C 0.86816 0.28124 0.55342 0.0
C250 C 0.8449 0.2169 0.38323 0.0
O251 O 0.88795 0.23308 0.63811 0.0
Mg252 Mg 0.39674 0.26821 0.07283 0.0
O253 O 0.40357 0.25104 0.18896 0.0
O254 O 0.43226 0.24992 0.15236 0.0
Mg255 Mg 0.44495 0.26775 0.01074 0.0
C256 C 0.41656 0.24498 0.20672 0.0
C257 C 0.36024 0.25149 0.21716 0.0
O258 O 0.358 0.23451 0.17584 0.0
O259 O 0.42286 0.30101 0.11348 0.0
O260 O 0.45048 0.29993 0.05569 0.0
O261 O 0.37972 0.23759 0.99378 0.0
O262 O 0.41296 0.26041 0.97026 0.0
C263 C 0.44217 0.31015 0.08944 0.0
C264 C 0.39722 0.24236 0.95196 0.0
O265 O 0.37423 0.26913 0.18484 0.0
Mg266 Mg 0.75643 0.12145 0.01728 0.0
O267 O 0.77148 0.14914 0.1155 0.0
O268 O 0.76967 0.17623 0.05866 0.0
Mg269 Mg 0.74873 0.16368 0.92409 0.0
C270 C 0.77615 0.16811 0.12086 0.0
C271 C 0.75084 0.09742 0.21843 0.0
O272 O 0.73164 0.09413 0.21673 0.0
O273 O 0.72311 0.11201 0.06401 0.0
O274 O 0.71991 0.1382 0.00226 0.0
O275 O 0.78664 0.13772 0.93396 0.0
O276 O 0.75893 0.14059 0.90018 0.0
C277 C 0.71229 0.12081 0.04688 0.0
C278 C 0.77816 0.14635 0.88428 0.0
O279 O 0.76265 0.10556 0.14575 0.0
Mg280 Mg 0.82475 0.58228 0.1901 0.0
O281 O 0.79949 0.56622 0.30178 0.0
O282 O 0.77373 0.53585 0.24862 0.0
Mg283 Mg 0.78492 0.53043 0.10216 0.0
C284 C 0.78153 0.55016 0.31223 0.0
C285 C 0.85627 0.6061 0.37056 0.0
O286 O 0.86494 0.59468 0.35232 0.0
O287 O 0.83971 0.56195 0.21612 0.0
O288 O 0.81502 0.53168 0.15372 0.0
O289 O 0.80368 0.59289 0.12335 0.0
O290 O 0.80405 0.56442 0.07933 0.0
C291 C 0.83312 0.54301 0.19064 0.0
C292 C 0.79593 0.57612 0.07159 0.0
O293 O 0.84224 0.60524 0.31428 0.0
Mg294 Mg 0.57549 0.03922 0.13003 0.0
O295 O 0.56402 0.05374 0.02078 0.0
O296 O 0.56834 0.08413 0.0714 0.0
Mg297 Mg 0.58771 0.09158 0.21022 0.0
C298 C 0.56123 0.06924 0.01062 0.0
C299 C 0.55273 0.00764 0.96467 0.0
O300 O 0.53821 0.01162 0.99484 0.0
O301 O 0.60984 0.06001 0.08788 0.0
O302 O 0.61564 0.091 0.14148 0.0
O303 O 0.54474 0.02827 0.20551 0.0
O304 O 0.57355 0.05788 0.23889 0.0
C305 C 0.62205 0.07954 0.10274 0.0
C306 C 0.55386 0.04585 0.2516 0.0
O307 O 0.56992 0.01527 0.01082 0.0
Mg308 Mg 0.94122 0.52497 0.14773 0.0
O309 O 0.93412 0.49804 0.0512 0.0
O310 O 0.91068 0.46759 0.11278 0.0
Mg311 Mg 0.89983 0.47606 0.25331 0.0
C312 C 0.92392 0.47827 0.0478 0.0
C313 C 0.9761 0.55346 0.98734 0.0
O314 O 0.99009 0.55598 0.0521 0.0
O315 O 0.91101 0.5257 0.11741 0.0
O316 O 0.88735 0.49621 0.18945 0.0
O317 O 0.96264 0.51567 0.22517 0.0
O318 O 0.93019 0.50529 0.26812 0.0
C319 C 0.89228 0.51321 0.14548 0.0
C320 C 0.94685 0.50443 0.28048 0.0
O321 O 0.95678 0.54365 0.00964 0.0
Mg322 Mg 0.47151 0.42003 0.91817 0.0
O323 O 0.50388 0.44343 0.86122 0.0
O324 O 0.53117 0.44541 0.94006 0.0
Mg325 Mg 0.51462 0.41502 0.02944 0.0
C326 C 0.52352 0.45207 0.87595 0.0
C327 C 0.44614 0.41709 0.72591 0.0
O328 O 0.4349 0.39704 0.74503 0.0
O329 O 0.46929 0.39194 0.83865 0.0
O330 O 0.50031 0.40097 0.88751 0.0
O331 O 0.47741 0.44304 0.03584 0.0
O332 O 0.48603 0.41851 0.04842 0.0
C333 C 0.48129 0.38682 0.88083 0.0
C334 C 0.48629 0.43465 0.0845 0.0
O335 O 0.45971 0.42934 0.78596 0.0
Mg336 Mg 0.61999 0.75302 0.95181 0.0
O337 O 0.61071 0.76999 0.84588 0.0
O338 O 0.57955 0.76605 0.87977 0.0
Mg339 Mg 0.56744 0.74351 0.00909 0.0
C340 C 0.59624 0.77411 0.82938 0.0
C341 C 0.64501 0.74511 0.78299 0.0
O342 O 0.63233 0.72527 0.80173 0.0
O343 O 0.5978 0.72116 0.88986 0.0
O344 O 0.56598 0.71554 0.92795 0.0
O345 O 0.63178 0.78184 0.04204 0.0
O346 O 0.60005 0.75429 0.05582 0.0
C347 C 0.57795 0.70953 0.89106 0.0
C348 C 0.61322 0.77321 0.07937 0.0
O349 O 0.64511 0.75889 0.83849 0.0
Mg350 Mg 0.21995 0.87744 0.9872 0.0
O351 O 0.20248 0.84797 0.90312 0.0
O352 O 0.20252 0.82082 0.97027 0.0
Mg353 Mg 0.22424 0.83489 0.10192 0.0
C354 C 0.19642 0.82863 0.90486 0.0
C355 C 0.22792 0.90125 0.78063 0.0
O356 O 0.248 0.90883 0.79588 0.0
O357 O 0.25232 0.88347 0.94135 0.0
O358 O 0.25347 0.85741 0.01746 0.0
O359 O 0.19013 0.8644 0.07536 0.0
O360 O 0.21693 0.86045 0.11369 0.0
C361 C 0.26201 0.87387 0.96567 0.0
C362 C 0.19817 0.85615 0.13054 0.0
O363 O 0.21479 0.89095 0.84659 0.0
Mg364 Mg 0.13432 0.38021 0.91148 0.0
O365 O 0.16284 0.39229 0.81964 0.0
O366 O 0.1908 0.41812 0.88927 0.0
Mg367 Mg 0.17854 0.42515 0.02927 0.0
C368 C 0.18234 0.40507 0.82082 0.0
C369 C 0.11416 0.34748 0.73196 0.0
O370 O 0.11645 0.33406 0.78493 0.0
O371 O 0.12851 0.40739 0.8845 0.0
O372 O 0.15526 0.43347 0.96285 0.0
O373 O 0.1477 0.36211 0.98812 0.0
O374 O 0.15254 0.39248 0.03673 0.0
C375 C 0.13822 0.4262 0.91551 0.0
C376 C 0.15655 0.37771 0.04684 0.0
O377 O 0.11817 0.36496 0.76766 0.0
Mg378 Mg 0.4001 0.9478 0.91939 0.0
O379 O 0.40863 0.9323 0.03689 0.0
O380 O 0.40324 0.90117 0.99091 0.0
Mg381 Mg 0.3858 0.89432 0.84691 0.0
C382 C 0.40996 0.91606 0.05162 0.0
C383 C 0.42216 0.97961 0.08489 0.0
O384 O 0.43613 0.97427 0.06176 0.0
O385 O 0.36511 0.9287 0.95255 0.0
O386 O 0.35805 0.89704 0.90287 0.0
O387 O 0.43129 0.95698 0.84959 0.0
O388 O 0.40199 0.92809 0.81577 0.0
C389 C 0.35217 0.90939 0.93625 0.0
C390 C 0.42177 0.93944 0.80336 0.0
O391 O 0.40562 0.97264 0.03425 0.0
Mg392 Mg 0.04952 0.47196 0.93385 0.0
O393 O 0.0617 0.49751 0.04537 0.0
O394 O 0.08905 0.52651 0.9902 0.0
Mg395 Mg 0.09843 0.51724 0.8485 0.0
C396 C 0.07519 0.5167 0.05417 0.0
C397 C 0.01781 0.45985 0.09631 0.0
O398 O 0.0172 0.47514 0.05116 0.0
O399 O 0.07429 0.46283 0.96572 0.0
O400 O 0.10283 0.49072 0.9072 0.0
O401 O 0.0344 0.48866 0.86177 0.0
O402 O 0.06547 0.49355 0.82326 0.0
C403 C 0.0938 0.47251 0.94468 0.0
C404 C 0.05144 0.49869 0.81225 0.0
O405 O 0.02818 0.45215 0.05834 0.0
Mg406 Mg 0.54217 0.58176 0.70301 0.0
O407 O 0.51443 0.56368 0.8019 0.0
O408 O 0.48713 0.56591 0.74973 0.0
Mg409 Mg 0.49848 0.58832 0.62106 0.0
C410 C 0.49527 0.55863 0.80781 0.0
C411 C 0.55625 0.56109 0.86046 0.0
O412 O 0.5396 0.54477 0.82546 0.0
O413 O 0.54894 0.61297 0.76451 0.0
O414 O 0.52234 0.6164 0.71031 0.0
O415 O 0.52804 0.5528 0.61117 0.0
O416 O 0.52195 0.57893 0.59085 0.0
C417 C 0.53951 0.62343 0.75658 0.0
C418 C 0.51763 0.56034 0.56864 0.0
O419 O 0.56244 0.57877 0.82111 0.0
Mg420 Mg 0.03993 0.58087 0.43061 0.0
O421 O 0.05395 0.57006 0.54409 0.0
O422 O 0.08431 0.57384 0.4953 0.0
Mg423 Mg 0.09187 0.59146 0.35088 0.0
C424 C 0.06952 0.56746 0.55658 0.0
C425 C 0.00391 0.5622 0.59168 0.0
O426 O -0.00123 0.54423 0.55091 0.0
O427 O 0.06146 0.6155 0.4602 0.0
O428 O 0.09228 0.62093 0.40547 0.0
O429 O 0.02889 0.54913 0.36022 0.0
O430 O 0.05812 0.5778 0.32267 0.0
C431 C 0.08076 0.62768 0.44032 0.0
C432 C 0.04613 0.55817 0.31152 0.0
O433 O 0.01809 0.57902 0.55368 0.0
Mg434 Mg 0.42218 0.466 0.20193 0.0
O435 O 0.44113 0.49289 0.30445 0.0
O436 O 0.44049 0.52146 0.25945 0.0
Mg437 Mg 0.41842 0.51175 0.12909 0.0
C438 C 0.44689 0.51212 0.31518 0.0
C439 C 0.44206 0.44996 0.3521 0.0
O440 O 0.45872 0.46604 0.31549 0.0
O441 O 0.39115 0.46008 0.26309 0.0
O442 O 0.38921 0.48774 0.21195 0.0
O443 O 0.45081 0.47894 0.10807 0.0
O444 O 0.42593 0.48706 0.09386 0.0
C445 C 0.38132 0.47017 0.25523 0.0
C446 C 0.44386 0.49005 0.06724 0.0
O447 O 0.42431 0.44469 0.31547 0.0
Mg448 Mg 0.50992 0.94406 0.41279 0.0
O449 O 0.48594 0.93052 0.53044 0.0
O450 O 0.45881 0.9003 0.48474 0.0
Mg451 Mg 0.46781 0.89209 0.33943 0.0
C452 C 0.46765 0.91527 0.54478 0.0
C453 C 0.53687 0.96278 0.6031 0.0
O454 O 0.53523 0.94426 0.6061 0.0
O455 O 0.52353 0.92269 0.43958 0.0
O456 O 0.49729 0.89192 0.39003 0.0
O457 O 0.48917 0.95533 0.3486 0.0
O458 O 0.48763 0.92568 0.30882 0.0
C459 C 0.51592 0.90326 0.42155 0.0
C460 C 0.48008 0.93789 0.30144 0.0
O461 O 0.52979 0.96779 0.53052 0.0
Mg462 Mg 0.25229 0.38229 0.41736 0.0
O463 O 0.23337 0.38973 0.31331 0.0
O464 O 0.2328 0.4184 0.35729 0.0
Mg465 Mg 0.25604 0.43219 0.48359 0.0
C466 C 0.22692 0.40263 0.30236 0.0
C467 C 0.23434 0.34873 0.25125 0.0
O468 O 0.21697 0.34838 0.27579 0.0
O469 O 0.28315 0.40695 0.35487 0.0
O470 O 0.28514 0.4369 0.40007 0.0
O471 O 0.22386 0.36765 0.51448 0.0
O472 O 0.24909 0.40044 0.5244 0.0
C473 C 0.29298 0.42688 0.35939 0.0
C474 C 0.23129 0.3859 0.55384 0.0
O475 O 0.2506 0.35901 0.30279 0.0
Mg476 Mg 0.61229 0.86619 0.43496 0.0
O477 O 0.60137 0.83901 0.33132 0.0
O478 O 0.57331 0.81065 0.38695 0.0
Mg479 Mg 0.56397 0.82085 0.52543 0.0
C480 C 0.58769 0.81977 0.32438 0.0
C481 C 0.64487 0.87963 0.27033 0.0
O482 O 0.64541 0.86366 0.30865 0.0
O483 O 0.58664 0.87343 0.39356 0.0
O484 O 0.55859 0.84605 0.45815 0.0
O485 O 0.629 0.8526 0.51724 0.0
O486 O 0.59686 0.84535 0.54895 0.0
C487 C 0.56721 0.86373 0.41559 0.0
C488 C 0.61192 0.84189 0.56593 0.0
O489 O 0.63374 0.88618 0.31088 0.0
Mg490 Mg 0.1096 0.75701 0.48524 0.0
O491 O 0.13716 0.77733 0.39071 0.0
O492 O 0.1669 0.78038 0.44405 0.0
Mg493 Mg 0.15695 0.75757 0.57254 0.0
C494 C 0.15678 0.78509 0.38465 0.0
C495 C 0.09736 0.77709 0.32274 0.0
O496 O 0.11049 0.79338 0.37378 0.0
O497 O 0.10637 0.72673 0.42894 0.0
O498 O 0.1345 0.72735 0.49259 0.0
O499 O 0.11994 0.78479 0.58527 0.0
O500 O 0.12931 0.76103 0.60147 0.0
C501 C 0.11721 0.71799 0.4466 0.0
C502 C 0.13065 0.77801 0.63107 0.0
O503 O 0.09083 0.75895 0.35774 0.0
C504 C 0.21688 0.98958 0.24014 0.0
C505 C 0.19494 0.98056 0.24154 0.0
C506 C 0.23012 0.01127 0.23361 0.0
C507 C 0.22201 0.02493 0.22922 0.0
H508 H 0.22398 0.97982 0.24324 0.0
H509 H 0.24687 0.01738 0.23555 0.0
S510 S 0.16573 0.00941 0.2271 0.0
N511 N 0.16571 0.98711 0.23527 0.0
N512 N 0.1906 0.02783 0.22345 0.0
C513 C 0.20011 0.01614 0.22886 0.0
C514 C 0.1866 0.99402 0.23509 0.0
C515 C -0.00415 0.23009 0.22428 0.0
C516 C 0.98586 0.20812 0.22566 0.0
C517 C 0.01775 0.24244 0.22475 0.0
C518 C 0.03059 0.23334 0.22566 0.0
H519 H 0.98671 0.23788 0.2241 0.0
H520 H 0.02462 0.25927 0.22143 0.0
S521 S 0.01229 0.17648 0.23115 0.0
N522 N 0.99059 0.17776 0.22923 0.0
N523 N 0.03164 0.20095 0.23014 0.0
C524 C 0.02081 0.21138 0.22811 0.0
C525 C -0.00148 0.19881 0.22792 0.0
C526 C 0.74702 0.74482 0.29119 0.0
C527 C 0.75992 0.76668 0.28596 0.0
C528 C 0.75545 0.7318 0.3074 0.0
C529 C 0.77711 0.74012 0.32027 0.0
H530 H 0.73023 0.73762 0.28216 0.0
H531 H 0.74478 0.71512 0.31314 0.0
S532 S 0.81784 0.79626 0.31 0.0
N533 N 0.7956 0.79604 0.29224 0.0
N534 N 0.8114 0.77155 0.32339 0.0
C535 C 0.79025 0.76192 0.31357 0.0
C536 C 0.78168 0.77519 0.29636 0.0
C537 C 0.78159 0.97519 0.7577 0.0
C538 C 0.75959 0.96464 0.75396 0.0
C539 C 0.79348 -0.00312 0.74863 0.0
C540 C 0.78399 0.00918 0.73575 0.0
H541 H 0.78982 0.96656 0.76577 0.0
H542 H 0.81036 0.00402 0.75202 0.0
S543 S 0.72676 0.98933 0.72333 0.0
N544 N 0.72863 0.96812 0.73751 0.0
N545 N 0.75104 0.00913 0.72203 0.0
C546 C 0.76194 -0.00109 0.73318 0.0
C547 C 0.74975 0.97665 0.74254 0.0
C548 C 0.98472 0.77791 0.77498 0.0
C549 C -0.0008 0.77081 0.77055 0.0
C550 C 0.96337 0.76402 0.78992 0.0
C551 C 0.9555 0.74238 0.79997 0.0
H552 H 0.98992 0.79442 0.76874 0.0
H553 H 0.953 0.7704 0.79585 0.0
S554 S 0.98656 0.71547 0.78688 0.0
N555 N 0.00394 0.74045 0.77219 0.0
N556 N 0.96379 0.71437 0.80002 0.0
C557 C 0.96965 0.73492 0.79199 0.0
C558 C 0.99149 0.74912 0.77777 0.0
C559 C 0.22554 0.21495 0.72679 0.0
C560 C 0.24754 0.22515 0.73142 0.0
C561 C 0.215 0.22626 0.71856 0.0
C562 C 0.22599 0.24826 0.71635 0.0
H563 H 0.21634 0.19805 0.72961 0.0
H564 H 0.19808 0.21765 0.71355 0.0
S565 S 0.28376 0.28257 0.72781 0.0
N566 N 0.27999 0.25861 0.73408 0.0
N567 N 0.26021 0.27986 0.71926 0.0
C568 C 0.248 0.25869 0.72182 0.0
C569 C 0.25876 0.24715 0.72879 0.0
C570 C 0.90085 0.31586 0.57501 0.0
C571 C 0.87884 0.30409 0.57151 0.0
C572 C 0.91142 0.33777 0.57968 0.0
C573 C 0.90041 0.34879 0.58194 0.0
H574 H 0.91006 0.30816 0.5722 0.0
H575 H 0.92835 0.34608 0.58395 0.0
S576 S 0.84262 0.32538 0.57451 0.0
N577 N 0.84638 0.30516 0.57094 0.0
N578 N 0.86621 0.34621 0.57931 0.0
C579 C 0.87839 0.3372 0.57829 0.0
C580 C 0.86764 0.31493 0.57341 0.0
C581 C 0.63398 0.51068 0.51659 0.0
C582 C 0.62846 0.52289 0.45937 0.0
C583 C 0.64702 0.51909 0.59678 0.0
C584 C 0.65523 0.54014 0.62341 0.0
H585 H 0.62845 0.49448 0.49842 0.0
H586 H 0.65091 0.509 0.63741 0.0
S587 S 0.64506 0.57883 0.50001 0.0
N588 N 0.63205 0.55724 0.43645 0.0
N589 N 0.65617 0.5729 0.58775 0.0
C590 C 0.64949 0.55248 0.56813 0.0
C591 C 0.63633 0.54395 0.48585 0.0
C592 C 0.45307 0.13518 0.60269 0.0
C593 C 0.43108 0.1253 0.60264 0.0
C594 C 0.46339 0.12366 0.59983 0.0
C595 C 0.45224 0.10166 0.59646 0.0
H596 H 0.46251 0.15208 0.60409 0.0
H597 H 0.48035 0.13217 0.6008 0.0
S598 S 0.39435 0.06799 0.59458 0.0
N599 N 0.39837 0.09208 0.59838 0.0
N600 N 0.41781 0.07033 0.59378 0.0
C601 C 0.4302 0.09147 0.59625 0.0
C602 C 0.41963 0.10328 0.5997 0.0
C603 C 0.47479 0.34298 0.04356 0.0
C604 C 0.45346 0.33305 0.06945 0.0
C605 C 0.48402 0.36125 0.98799 0.0
C606 C 0.47232 0.37034 0.95592 0.0
H607 H 0.48399 0.33561 0.05924 0.0
H608 H 0.50003 0.36741 0.9642 0.0
S609 S 0.41764 0.35395 0.02558 0.0
N610 N 0.42218 0.33629 0.07486 0.0
N611 N 0.43951 0.37052 0.97026 0.0
C612 C 0.45176 0.3621 0.99092 0.0
C613 C 0.4424 0.34357 0.04835 0.0
C614 C 0.67889 0.12111 0.0689 0.0
C615 C 0.68951 0.10971 0.06782 0.0
C616 C 0.65711 0.11111 0.07752 0.0
C617 C 0.64487 0.08922 0.08468 0.0
H618 H 0.68746 0.13799 0.06238 0.0
H619 H 0.64982 0.12072 0.0785 0.0
S620 S 0.66488 0.05199 0.08649 0.0
N621 N 0.68607 0.0752 0.07535 0.0
N622 N 0.64503 0.05637 0.0917 0.0
C623 C 0.65522 0.07754 0.08393 0.0
C624 C 0.67753 0.08779 0.07596 0.0
C625 C 0.86959 0.54907 0.17425 0.0
C626 C 0.84801 0.53501 0.18551 0.0
C627 C 0.88365 0.54194 0.155 0.0
C628 C 0.87676 0.52044 0.1472 0.0
H629 H 0.87566 0.56578 0.17824 0.0
H630 H 0.90015 0.55339 0.14915 0.0
S631 S 0.82185 0.47712 0.17048 0.0
N632 N 0.82045 0.49851 0.18705 0.0
N633 N 0.84683 0.48516 0.15137 0.0
C634 C 0.85522 0.50623 0.158 0.0
C635 C 0.8409 0.51348 0.1772 0.0
C636 C 0.54776 0.67694 0.82414 0.0
C637 C 0.5686 0.68771 0.85634 0.0
C638 C 0.53841 0.6561 0.79378 0.0
C639 C 0.54944 0.64506 0.79541 0.0
H640 H 0.53863 0.68473 0.82149 0.0
H641 H 0.5224 0.64864 0.76838 0.0
S642 S 0.6041 0.66584 0.88006 0.0
N643 N 0.59971 0.68553 0.89283 0.0
N644 N 0.58227 0.64646 0.83558 0.0
C645 C 0.5702 0.65556 0.82947 0.0
C646 C 0.57975 0.67684 0.85974 0.0
C647 C 0.31573 0.87936 0.95061 0.0
C648 C 0.3293 0.90112 0.94545 0.0
C649 C 0.294 0.87072 0.95206 0.0
C650 C 0.28479 0.88341 0.94755 0.0
H651 H 0.32192 0.86881 0.95417 0.0
H652 H 0.28432 0.8539 0.9583 0.0
S653 S 0.31322 0.94133 0.92953 0.0
N654 N 0.3319 0.93522 0.93286 0.0
N655 N 0.29094 0.91893 0.93579 0.0
C656 C 0.2981 0.90519 0.94032 0.0
C657 C 0.32035 0.91405 0.93974 0.0
C658 C 0.1054 0.42826 0.91569 0.0
C659 C 0.12743 0.43861 0.91521 0.0
C660 C 0.09465 0.4392 0.93082 0.0
C661 C 0.10548 0.46099 0.94491 0.0
H662 H 0.09631 0.41145 0.90688 0.0
H663 H 0.0777 0.43053 0.92893 0.0
S664 S 0.16322 0.49557 0.94935 0.0
N665 N 0.15972 0.47198 0.93002 0.0
N666 N 0.13953 0.49254 0.95743 0.0
C667 C 0.12751 0.47156 0.9442 0.0
C668 C 0.13846 0.4604 0.92946 0.0
C669 C 0.11136 0.66403 0.44529 0.0
C670 C 0.08953 0.65064 0.44364 0.0
C671 C 0.12022 0.68577 0.44054 0.0
C672 C 0.10764 0.69508 0.43275 0.0
H673 H 0.12176 0.65768 0.45105 0.0
H674 H 0.1371 0.69538 0.44495 0.0
S675 S 0.04952 0.66689 0.4192 0.0
N676 N 0.05549 0.64821 0.42928 0.0
N677 N 0.07208 0.68903 0.41994 0.0
C678 C 0.08576 0.68183 0.42809 0.0
C679 C 0.07673 0.65967 0.43414 0.0
C680 C 0.34768 0.43805 0.29694 0.0
C681 C 0.35909 0.45991 0.28595 0.0
C682 C 0.32623 0.42755 0.31714 0.0
C683 C 0.31523 0.43845 0.32849 0.0
H684 H 0.35525 0.42881 0.28816 0.0
H685 H 0.31834 0.41073 0.32557 0.0
S686 S 0.3378 0.4959 0.30788 0.0
N687 N 0.35777 0.49219 0.28818 0.0
N688 N 0.31745 0.47246 0.32715 0.0
C689 C 0.32644 0.46035 0.31809 0.0
C690 C 0.34832 0.47106 0.29668 0.0
C691 C 0.52053 0.87197 0.41866 0.0
C692 C 0.52963 0.89386 0.42375 0.0
C693 C 0.53281 0.86249 0.41119 0.0
C694 C 0.5548 0.87444 0.4077 0.0
H695 H 0.50367 0.86196 0.42048 0.0
H696 H 0.52496 0.84557 0.40939 0.0
S697 S 0.5866 0.93239 0.41733 0.0
N698 N 0.56214 0.92731 0.42364 0.0
N699 N 0.58526 0.90945 0.40976 0.0
C700 C 0.56419 0.89638 0.41157 0.0
C701 C 0.55163 0.90607 0.42005 0.0
C702 C 0.28034 0.16738 0.06575 0.0
C703 C 0.29065 0.16823 0.97968 0.0
C704 C 0.27167 0.14953 0.12394 0.0
C705 C 0.2729 0.13177 0.09801 0.0
H706 H 0.27898 0.18069 0.08843 0.0
H707 H 0.26447 0.14988 0.191 0.0
S708 S 0.29536 0.1249 0.87232 0.0
N709 N 0.29949 0.14901 0.86596 0.0
N710 N 0.28376 0.11555 0.97643 0.0
C711 C 0.2827 0.13222 0.01073 0.0
C712 C 0.29143 0.15041 0.95124 0.0
C713 C 0.86634 0.13303 0.91197 0.0
C714 C 0.85068 0.11253 0.93285 0.0
C715 C 0.88386 0.14373 0.97193 0.0
C716 C 0.88646 0.13417 0.05435 0.0
H717 H 0.86505 0.14078 0.8488 0.0
H718 H 0.89517 0.15985 0.95519 0.0
S719 S 0.85013 0.08009 0.13728 0.0
N720 N 0.83918 0.08265 0.03902 0.0
N721 N 0.87204 0.10258 0.151 0.0
C722 C 0.87132 0.11327 0.07319 0.0
C723 C 0.85345 0.1025 0.01266 0.0
C724 C 0.86856 0.7078 0.14935 0.0
C725 C 0.86316 0.68742 0.12 0.0
C726 C 0.85621 0.71141 0.21422 0.0
C727 C 0.83814 0.69474 0.25424 0.0
H728 H 0.88241 0.72127 0.12245 0.0
H729 H 0.86071 0.72739 0.23218 0.0
S730 S 0.82052 0.63837 0.22443 0.0
N731 N 0.84043 0.65028 0.14982 0.0
N732 N 0.81781 0.65706 0.27525 0.0
C733 C 0.83349 0.67424 0.23211 0.0
C734 C 0.84586 0.67057 0.16454 0.0
C735 C 0.17017 0.2815 0.39161 0.0
C736 C 0.17569 0.29733 0.46045 0.0
C737 C 0.15206 0.27421 0.33608 0.0
C738 C 0.13862 0.28244 0.34691 0.0
H739 H 0.17996 0.27458 0.38051 0.0
H740 H 0.14884 0.2623 0.28288 0.0
S741 S 0.14537 0.32328 0.5223 0.0
N742 N 0.16594 0.32047 0.53961 0.0
N743 N 0.13177 0.30685 0.43551 0.0
C744 C 0.14385 0.29819 0.41654 0.0
C745 C 0.16243 0.30565 0.47298 0.0
C746 C 0.71913 0.83159 0.49957 0.0
C747 C 0.7336 0.84124 0.42436 0.0
C748 C 0.71125 0.84243 0.5517 0.0
C749 C 0.71772 0.86339 0.53083 0.0
H750 H 0.71345 0.81532 0.51644 0.0
H751 H 0.70021 0.83443 0.60904 0.0
S752 S 0.75587 0.89619 0.34376 0.0
N753 N 0.75449 0.87326 0.33411 0.0
N754 N 0.73995 0.89366 0.43225 0.0
C755 C 0.73276 0.87345 0.45831 0.0
C756 C 0.74072 0.86243 0.40533 0.0
C757 C 0.10242 0.86537 0.42145 0.0
C758 C 0.1232 0.88112 0.43866 0.0
C759 C 0.09235 0.84786 0.48149 0.0
C760 C 0.10265 0.84534 0.56098 0.0
H761 H 0.09423 0.86594 0.35809 0.0
H762 H 0.07656 0.83583 0.46342 0.0
S763 S 0.15554 0.88405 0.64823 0.0
N764 N 0.15277 0.89438 0.54817 0.0
N765 N 0.1337 0.86144 0.66127 0.0
C766 C 0.12294 0.86154 0.58246 0.0
C767 C 0.13322 0.87943 0.52135 0.0
C768 C 0.70644 0.84468 0.92076 0.0
C769 C 0.72632 0.86279 0.91441 0.0
C770 C 0.70245 0.82886 0.98702 0.0
C771 C 0.71814 0.83061 0.04973 0.0
H772 H 0.69403 0.84241 0.87203 0.0
H773 H 0.68715 0.81487 0.98706 0.0
S774 S 0.77136 0.87701 0.07462 0.0
N775 N 0.761 0.88274 0.98291 0.0
N776 N 0.75323 0.85361 0.11115 0.0
C777 C 0.73766 0.84928 0.0479 0.0
C778 C 0.74183 0.86522 0.97915 0.0
C779 C 0.11174 0.87201 0.90062 0.0
C780 C 0.09407 0.85342 0.93084 0.0
C781 C 0.12921 0.88271 0.96044 0.0
C782 C 0.12974 0.87509 0.05215 0.0
H783 H 0.11259 0.87771 0.82828 0.0
H784 H 0.14267 0.89679 0.93371 0.0
S785 S 0.08578 0.82969 0.17233 0.0
N786 N 0.07707 0.82934 0.06284 0.0
N787 N 0.10994 0.84975 0.17597 0.0
C788 C 0.11176 0.85723 0.08551 0.0
C789 C 0.09392 0.84632 0.02455 0.0
C790 C 0.1361 0.26561 0.85898 0.0
C791 C 0.15424 0.28236 0.82018 0.0
C792 C 0.12351 0.26912 0.92304 0.0
C793 C 0.12868 0.28948 0.95229 0.0
H794 H 0.13165 0.24968 0.84033 0.0
H795 H 0.10955 0.25559 0.94897 0.0
S796 S 0.1719 0.33868 0.85229 0.0
N797 N 0.17486 0.32013 0.80209 0.0
N798 N 0.15161 0.32662 0.92472 0.0
C799 C 0.14621 0.30638 0.9096 0.0
C800 C 0.15888 0.30283 0.84336 0.0
C801 C 0.82614 0.67568 0.60491 0.0
C802 C 0.81219 0.68304 0.62121 0.0
C803 C 0.84394 0.68232 0.66264 0.0
C804 C 0.84844 0.69664 0.73832 0.0
H805 H 0.82378 0.66548 0.54476 0.0
H806 H 0.85442 0.67642 0.64689 0.0
S807 S 0.81601 0.71977 0.8118 0.0
N808 N 0.80354 0.70487 0.71896 0.0
N809 N 0.83685 0.71731 0.82774 0.0
C810 C 0.83439 0.7039 0.75559 0.0
C811 C 0.81629 0.69709 0.69703 0.0
C812 C 0.29556 0.14429 0.49035 0.0
C813 C 0.28146 0.12272 0.48722 0.0
C814 C 0.29224 0.15728 0.55242 0.0
C815 C 0.27463 0.14932 0.61368 0.0
H816 H 0.30915 0.15125 0.44394 0.0
H817 H 0.30387 0.17374 0.55307 0.0
S818 S 0.23392 0.09345 0.63818 0.0
N819 N 0.24992 0.09361 0.55519 0.0
N820 N 0.24349 0.1181 0.66981 0.0
C821 C 0.26059 0.12767 0.61211 0.0
C822 C 0.26405 0.11439 0.5495 0.0
C823 C 0.87872 0.12386 0.56598 0.0
C824 C 0.85811 0.10835 0.5442 0.0
C825 C 0.88966 0.14145 0.5074 0.0
C826 C 0.88043 0.14433 0.42482 0.0
H827 H 0.88614 0.12298 0.63145 0.0
H828 H 0.90534 0.15322 0.52848 0.0
S829 S 0.82861 0.10621 0.32504 0.0
N830 N 0.8299 0.09563 0.42733 0.0
N831 N 0.85072 0.12875 0.31647 0.0
C832 C 0.86032 0.12841 0.39891 0.0
C833 C 0.84911 0.11041 0.45875 0.0
C834 C 0.93254 0.47033 0.49915 0.0
C835 C 0.93356 0.45285 0.46689 0.0
C836 C 0.93842 0.48765 0.43959 0.0
C837 C 0.94558 0.48819 0.34571 0.0
H838 H 0.9275 0.47078 0.57157 0.0
H839 H 0.93692 0.5006 0.46653 0.0
S840 S 0.94913 0.44553 0.22375 0.0
N841 N 0.94151 0.43673 0.33379 0.0
N842 N 0.95165 0.46905 0.22038 0.0
C843 C 0.94634 0.47069 0.31181 0.0
C844 C 0.94062 0.45311 0.37295 0.0
C845 C 0.52401 0.44539 0.28962 0.0
C846 C 0.5302 0.46606 0.31512 0.0
C847 C 0.50886 0.43499 0.21867 0.0
C848 C 0.49938 0.44487 0.17014 0.0
H849 H 0.53167 0.43753 0.32086 0.0
H850 H 0.50519 0.41932 0.1994 0.0
S851 S 0.50673 0.49725 0.22637 0.0
N852 N 0.52317 0.49482 0.29823 0.0
N853 N 0.4949 0.47533 0.16397 0.0
C854 C 0.50406 0.46485 0.20116 0.0
C855 C 0.51947 0.47545 0.27366 0.0
C856 C 0.55243 0.06717 0.38642 0.0
C857 C 0.54222 0.05342 0.30965 0.0
C858 C 0.54199 0.07454 0.44432 0.0
C859 C 0.52092 0.06852 0.42738 0.0
H860 H 0.56849 0.07179 0.40384 0.0
H861 H 0.55019 0.08413 0.50571 0.0
S862 S 0.48861 0.03641 0.22307 0.0
N863 N 0.51093 0.03651 0.2113 0.0
N864 N 0.49113 0.05029 0.32013 0.0
C865 C 0.51096 0.05587 0.34693 0.0
C866 C 0.52162 0.0483 0.28817 0.0
C867 C 0.75796 0.551 0.86623 0.0
C868 C 0.74104 0.55371 0.89161 0.0
C869 C 0.77562 0.55842 0.92529 0.0
C870 C 0.77712 0.56899 0.01141 0.0
H871 H 0.758 0.54391 0.79835 0.0
H872 H 0.78845 0.55629 0.90214 0.0
S873 S 0.73561 0.57676 0.11886 0.0
N874 N 0.72585 0.56547 0.01461 0.0
N875 N 0.75922 0.57948 0.12518 0.0
C876 C 0.75998 0.57096 0.04006 0.0
C877 C 0.74189 0.56327 0.9803 0.0
C878 C 0.42207 0.21986 0.78607 0.0
C879 C 0.40508 0.20044 0.75909 0.0
C880 C 0.41938 0.23314 0.84904 0.0
C881 C 0.39964 0.22753 0.88858 0.0
H882 H 0.43751 0.22506 0.75694 0.0
H883 H 0.43293 0.24813 0.86491 0.0
S884 S 0.34977 0.179 0.83637 0.0
N885 N 0.36743 0.17681 0.77304 0.0
N886 N 0.36273 0.20142 0.89387 0.0
C887 C 0.38254 0.20813 0.86262 0.0
C888 C 0.38518 0.1947 0.79755 0.0
C889 C 0.792 0.18339 0.67478 0.0
C890 C 0.81137 0.20051 0.70174 0.0
C891 C 0.78165 0.16577 0.73393 0.0
C892 C 0.79037 0.16455 0.8216 0.0
H893 H 0.78516 0.18324 0.6059 0.0
H894 H 0.7668 0.15286 0.71025 0.0
S895 S 0.83861 0.20674 0.93329 0.0
N896 N 0.83762 0.21618 0.82728 0.0
N897 N 0.81799 0.18298 0.93851 0.0
C898 C 0.80923 0.18188 0.85152 0.0
C899 C 0.81977 0.19989 0.79149 0.0
C900 C 0.41772 0.21376 0.26656 0.0
C901 C 0.41045 0.22796 0.27819 0.0
C902 C 0.40925 0.19523 0.3195 0.0
C903 C 0.39316 0.19002 0.38675 0.0
H904 H 0.42946 0.21647 0.21309 0.0
H905 H 0.41518 0.18467 0.30618 0.0
S906 S 0.37064 0.22314 0.45525 0.0
N907 N 0.38749 0.23644 0.36929 0.0
N908 N 0.37169 0.20148 0.46922 0.0
C909 C 0.38629 0.20439 0.4024 0.0
C910 C 0.39494 0.2234 0.34833 0.0
C911 C 0.81445 0.18305 0.32797 0.0
C912 C 0.82739 0.20469 0.31631 0.0
C913 C 0.79716 0.17162 0.2678 0.0
C914 C 0.79227 0.18131 0.19275 0.0
H915 H 0.81754 0.17491 0.38454 0.0
H916 H 0.78773 0.15494 0.27934 0.0
S917 S 0.82181 0.23773 0.13131 0.0
N918 N 0.83434 0.2355 0.22447 0.0
N919 N 0.80212 0.21398 0.11052 0.0
C920 C 0.80503 0.20303 0.18118 0.0
C921 C 0.82255 0.21469 0.24291 0.0
C922 C 0.76685 0.5689 0.53588 0.0
C923 C 0.7455 0.56203 0.52159 0.0
C924 C 0.77802 0.56345 0.47195 0.0
C925 C 0.76831 0.55084 0.39106 0.0
H926 H 0.77517 0.57909 0.59545 0.0
H927 H 0.79465 0.56995 0.48371 0.0
S928 S 0.71226 0.5274 0.32514 0.0
N929 N 0.71469 0.54071 0.42393 0.0
N930 N 0.73568 0.53056 0.30385 0.0
C931 C 0.74666 0.54278 0.37925 0.0
C932 C 0.73527 0.54837 0.44438 0.0
C933 C 0.54 0.05219 0.86345 0.0
C934 C 0.54582 0.06729 0.93672 0.0
C935 C 0.5226 0.04676 0.80441 0.0
C936 C 0.51047 0.05642 0.81554 0.0
H937 H 0.54862 0.04402 0.85323 0.0
H938 H 0.51863 0.03492 0.74991 0.0
S939 S 0.51905 0.09718 0.99474 0.0
N940 N 0.53805 0.09203 0.01529 0.0
N941 N 0.50559 0.08204 0.90423 0.0
C942 C 0.51645 0.07199 0.88639 0.0
C943 C 0.5341 0.07745 0.94668 0.0
C944 C 0.92622 0.4356 0.90449 0.0
C945 C 0.94454 0.4467 0.84896 0.0
C946 C 0.9193 0.44589 0.9662 0.0
C947 C 0.93036 0.46777 0.975 0.0
H948 H 0.91712 0.4187 0.90108 0.0
H949 H 0.90529 0.43655 0.00809 0.0
S950 S 0.97974 0.50409 0.8468 0.0
N951 N 0.97377 0.4807 0.80757 0.0
N952 N 0.9611 0.50023 0.9233 0.0
C953 C 0.94882 0.47908 0.91973 0.0
C954 C 0.95585 0.46852 0.85715 0.0
C955 C 0.56875 0.4883 0.71466 0.0
C956 C 0.56118 0.50038 0.67001 0.0
C957 C 0.55711 0.47346 0.78547 0.0
C958 C 0.53741 0.47009 0.8141 0.0
H959 H 0.58354 0.48984 0.69287 0.0
H960 H 0.56313 0.46389 0.81446 0.0
S961 S 0.51206 0.49991 0.7328 0.0
N962 N 0.53378 0.5096 0.66905 0.0
N963 N 0.51206 0.48184 0.802 0.0
C964 C 0.53035 0.48305 0.77516 0.0
C965 C 0.54219 0.49819 0.70338 0.0
C966 C 0.58982 0.81422 0.68507 0.0
C967 C 0.60851 0.82464 0.63162 0.0
C968 C 0.58569 0.7975 0.74591 0.0
C969 C 0.60018 0.79057 0.75718 0.0
H970 H 0.57827 0.81913 0.68125 0.0
H971 H 0.57116 0.79029 0.78589 0.0
S972 S 0.65205 0.81335 0.63681 0.0
N973 N 0.64186 0.82721 0.59557 0.0
N974 N 0.63446 0.79603 0.7106 0.0
C975 C 0.61908 0.80101 0.70459 0.0
C976 C 0.62318 0.81799 0.64209 0.0
C977 C 0.17008 0.82385 0.77942 0.0
C978 C 0.17964 0.81507 0.8361 0.0
C979 C 0.15389 0.81179 0.71515 0.0
C980 C 0.14629 0.79031 0.70583 0.0
H981 H 0.1749 0.84023 0.78546 0.0
H982 H 0.14752 0.81945 0.67169 0.0
S983 S 0.16334 0.7588 0.84788 0.0
N984 N 0.1788 0.78305 0.88425 0.0
N985 N 0.14778 0.76012 0.76666 0.0
C986 C 0.15484 0.78101 0.76566 0.0
C987 C 0.1716 0.79341 0.83001 0.0
C988 C 0.18557 0.38472 0.68441 0.0
C989 C 0.19534 0.40178 0.74875 0.0
C990 C 0.19721 0.37943 0.62285 0.0
C991 C 0.21914 0.39101 0.62234 0.0
H992 H 0.1687 0.37493 0.68273 0.0
H993 H 0.18895 0.36628 0.5748 0.0
S994 S 0.25264 0.43664 0.77732 0.0
N995 N 0.22849 0.42996 0.80825 0.0
N996 N 0.25036 0.42005 0.69255 0.0
C997 C 0.22919 0.40811 0.68572 0.0
C998 C 0.21733 0.41348 0.74875 0.0
C999 C 0.45758 0.91868 0.16283 0.0
C1000 C 0.46076 0.93092 0.2451 0.0
C1001 C 0.4399 0.91217 0.10494 0.0
C1002 C 0.42467 0.91762 0.12735 0.0
H1003 H 0.46927 0.91473 0.14085 0.0
H1004 H 0.43888 0.90399 0.03895 0.0
S1005 S 0.423 0.94479 0.34778 0.0
N1006 N 0.4455 0.94507 0.3552 0.0
N1007 N 0.41222 0.93307 0.24547 0.0
C1008 C 0.42686 0.9285 0.21333 0.0
C1009 C 0.44493 0.93514 0.27242 0.0
C1010 C 0.0618 0.55555 0.15916 0.0
C1011 C 0.05343 0.54695 0.24936 0.0
C1012 C 0.07027 0.54647 0.09918 0.0
C1013 C 0.07074 0.52844 0.12727 0.0
H1014 H 0.06153 0.5693 0.13408 0.0
H1015 H 0.07559 0.55307 0.02848 0.0
S1016 S 0.05425 0.50209 0.36333 0.0
N1017 N 0.04885 0.52125 0.36959 0.0
N1018 N 0.06386 0.50341 0.25492 0.0
C1019 C 0.06318 0.52015 0.21899 0.0
C1020 C 0.05478 0.52962 0.28066 0.0
C1021 C 0.47863 0.51693 0.00127 0.0
C1022 C 0.45671 0.50729 0.00016 0.0
C1023 C 0.49095 0.53398 0.94134 0.0
C1024 C 0.48183 0.54196 0.87718 0.0
H1025 H 0.48637 0.51146 0.04956 0.0
H1026 H 0.50778 0.54081 0.94504 0.0
S1027 S 0.42485 0.52142 0.84421 0.0
N1028 N 0.42626 0.50644 0.92809 0.0
N1029 N 0.4493 0.53839 0.81575 0.0
C1030 C 0.45986 0.53234 0.87549 0.0
C1031 C 0.44735 0.51503 0.93665 0.0
C1032 C 0.07584 0.5393 0.61628 0.0
C1033 C 0.06752 0.55249 0.63228 0.0
C1034 C 0.07039 0.52196 0.67505 0.0
C1035 C 0.05635 0.51704 0.75202 0.0
H1036 H 0.08583 0.54172 0.55507 0.0
H1037 H 0.07687 0.512 0.65843 0.0
S1038 S 0.03284 0.5484 0.83405 0.0
N1039 N 0.04625 0.56069 0.73732 0.0
N1040 N 0.03612 0.52802 0.84789 0.0
C1041 C 0.04868 0.53059 0.77189 0.0
C1042 C 0.05428 0.54835 0.71217 0.0
C1043 C 0.49488 0.55723 0.43027 0.0
C1044 C 0.49947 0.54756 0.50586 0.0
C1045 C 0.47737 0.54585 0.37125 0.0
C1046 C 0.46365 0.52436 0.38605 0.0
H1047 H 0.5051 0.57372 0.41571 0.0
H1048 H 0.47495 0.55387 0.31199 0.0
S1049 S 0.46681 0.49258 0.58455 0.0
N1050 N 0.48767 0.5159 0.59893 0.0
N1051 N 0.45473 0.49438 0.48857 0.0
C1052 C 0.46761 0.51471 0.46406 0.0
C1053 C 0.48552 0.52632 0.52373 0.0
C1054 C 0.46559 0.93326 0.69327 0.0
C1055 C 0.45522 0.918 0.62151 0.0
C1056 C 0.45473 0.93995 0.75276 0.0
C1057 C 0.43303 0.93163 0.74316 0.0
H1058 H 0.48244 0.94076 0.70109 0.0
H1059 H 0.46347 0.95199 0.80542 0.0
S1060 S 0.3983 0.89106 0.56818 0.0
N1061 N 0.42177 0.8944 0.5467 0.0
N1062 N 0.40144 0.90703 0.65734 0.0
C1063 C 0.42233 0.91585 0.67411 0.0
C1064 C 0.43337 0.90897 0.61389 0.0
C1065 C 0.17362 0.3887 0.20547 0.0
C1066 C 0.17371 0.38133 0.1126 0.0
C1067 C 0.1912 0.39626 0.26526 0.0
C1068 C 0.20957 0.39682 0.23413 0.0
H1069 H 0.15993 0.389 0.23138 0.0
H1070 H 0.19028 0.40141 0.33686 0.0
S1071 S 0.2189 0.38201 0.99325 0.0
N1072 N 0.19447 0.37713 0.98929 0.0
N1073 N 0.22729 0.39045 0.10295 0.0
C1074 C 0.20997 0.38965 0.14128 0.0
C1075 C 0.19211 0.38216 0.08005 0.0
C1076 C 0.59362 0.77578 0.21893 0.0
C1077 C 0.6061 0.78512 0.13766 0.0
C1078 C 0.58654 0.78663 0.2759 0.0
C1079 C 0.59146 0.80716 0.25287 0.0
H1080 H 0.5898 0.76015 0.24016 0.0
H1081 H 0.57794 0.77921 0.34068 0.0
S1082 S 0.6195 0.83651 0.03464 0.0
N1083 N 0.62043 0.81466 0.02876 0.0
N1084 N 0.607 0.83513 0.13499 0.0
C1085 C 0.60278 0.81611 0.168 0.0
C1086 C 0.61014 0.80509 0.11061 0.0
C1087 C 0.19289 0.83963 0.29041 0.0
C1088 C 0.18561 0.83869 0.19637 0.0
C1089 C 0.18409 0.82193 0.34987 0.0
C1090 C 0.1679 0.80258 0.31672 0.0
H1091 H 0.20572 0.85413 0.31775 0.0
H1092 H 0.18973 0.82349 0.42277 0.0
S1093 S 0.14564 0.79107 0.07158 0.0
N1094 N 0.16258 0.81644 0.07026 0.0
N1095 N 0.14612 0.7831 0.18164 0.0
C1096 C 0.16076 0.80133 0.22224 0.0
C1097 C 0.1696 0.8194 0.16204 0.0
C1098 C 0.34555 0.12465 0.88471 0.0
C1099 C 0.34478 0.10739 0.83841 0.0
C1100 C 0.33749 0.12306 0.97697 0.0
C1101 C 0.32787 0.10397 0.02716 0.0
H1102 H 0.35285 0.13972 0.85 0.0
H1103 H 0.3385 0.13697 0.00819 0.0
S1104 S 0.32204 0.0539 0.93857 0.0
N1105 N 0.33412 0.07058 0.85041 0.0
N1106 N 0.31831 0.06729 0.02342 0.0
C1107 C 0.32703 0.08648 0.98201 0.0
C1108 C 0.33564 0.08826 0.888 0.0
C1109 C 0.91 0.23453 0.96496 0.0
C1110 C 0.89697 0.21289 0.98004 0.0
C1111 C 0.90909 0.24408 0.87915 0.0
C1112 C 0.89566 0.23226 0.8039 0.0
H1113 H 0.92064 0.24425 0.0207 0.0
H1114 H 0.91889 0.26087 0.87183 0.0
S1115 S 0.85813 0.17523 0.80652 0.0
N1116 N 0.86982 0.18007 0.91186 0.0
N1117 N 0.86892 0.19787 0.75025 0.0
C1118 C 0.88293 0.2106 0.81707 0.0
C1119 C 0.88336 0.20097 0.90517 0.0
C1120 C 0.76419 0.62446 0.00113 0.0
C1121 C 0.74597 0.62146 0.95435 0.0
C1122 C 0.76871 0.63175 0.09543 0.0
C1123 C 0.75544 0.63673 0.14713 0.0
H1124 H 0.77493 0.62066 0.96573 0.0
H1125 H 0.78286 0.63361 0.12773 0.0
S1126 S 0.70618 0.63265 0.05757 0.0
N1127 N 0.7147 0.62455 0.96694 0.0
N1128 N 0.72359 0.63881 0.14404 0.0
C1129 C 0.73746 0.63441 0.10088 0.0
C1130 C 0.73264 0.62667 0.00468 0.0
C1131 C 0.09622 0.32404 0.59109 0.0
C1132 C 0.1107 0.34391 0.62696 0.0
C1133 C 0.09436 0.31985 0.49204 0.0
C1134 C 0.10747 0.33516 0.42522 0.0
H1135 H 0.08652 0.31152 0.64007 0.0
H1136 H 0.08342 0.30412 0.46828 0.0
S1137 S 0.14791 0.38973 0.48225 0.0
N1138 N 0.13782 0.37929 0.58734 0.0
N1139 N 0.13514 0.37109 0.40244 0.0
C1140 C 0.12174 0.35518 0.46017 0.0
C1141 C 0.12315 0.35964 0.56061 0.0
C1142 C 0.67081 0.77872 0.56464 0.0
C1143 C 0.66965 0.76442 0.495 0.0
C1144 C 0.66425 0.77253 0.65898 0.0
C1145 C 0.65531 0.75153 0.68742 0.0
H1146 H 0.67695 0.79499 0.54644 0.0
H1147 H 0.66566 0.7843 0.70938 0.0
S1148 S 0.64955 0.70785 0.5337 0.0
N1149 N 0.66013 0.72843 0.46224 0.0
N1150 N 0.64663 0.71642 0.6386 0.0
C1151 C 0.65444 0.73703 0.61905 0.0
C1152 C 0.66178 0.74353 0.52316 0.0
C1153 C 0.19555 0.88006 0.55406 0.0
C1154 C 0.20439 0.89711 0.49026 0.0
C1155 C 0.20312 0.88182 0.64768 0.0
C1156 C 0.22019 0.90049 0.6815 0.0
H1157 H 0.18218 0.86529 0.53285 0.0
H1158 H 0.19563 0.86831 0.69378 0.0
S1159 S 0.25042 0.94931 0.54196 0.0
N1160 N 0.23209 0.93319 0.46701 0.0
N1161 N 0.24671 0.93605 0.64231 0.0
C1162 C 0.22991 0.91739 0.61761 0.0
C1163 C 0.22194 0.91581 0.52232 0.0
C1164 C 0.67116 0.88278 0.03173 0.0
C1165 C 0.67161 0.89989 0.98522 0.0
C1166 C 0.66324 0.87701 0.12483 0.0
C1167 C 0.65483 0.88769 0.17499 0.0
H1168 H 0.67735 0.87393 0.99661 0.0
H1169 H 0.6633 0.86366 0.15662 0.0
S1170 S 0.65269 0.93396 0.08557 0.0
N1171 N 0.66365 0.92799 0.99714 0.0
N1172 N 0.6479 0.91664 0.17091 0.0
C1173 C 0.65529 0.90496 0.12947 0.0
C1174 C 0.66385 0.91115 0.03504 0.0
C1175 C 0.10803 0.79925 0.17561 0.0
C1176 C 0.09451 0.77992 0.21919 0.0
C1177 C 0.10728 0.80231 0.07706 0.0
C1178 C 0.09288 0.78623 0.01701 0.0
H1179 H 0.11968 0.81222 0.21744 0.0
H1180 H 0.11809 0.8176 0.04819 0.0
S1181 S 0.05379 0.73253 0.09449 0.0
N1182 N 0.06617 0.74428 0.19412 0.0
N1183 N 0.06457 0.75014 0.00858 0.0
C1184 C 0.07911 0.76679 0.05932 0.0
C1185 C 0.07998 0.7636 0.16022 0.0
C1186 C 0.22115 0.33788 0.08403 0.0
C1187 C 0.23597 0.34093 0.15514 0.0
C1188 C 0.22311 0.33239 0.99005 0.0
C1189 C 0.2397 0.32919 0.96349 0.0
H1190 H 0.20804 0.34012 0.10033 0.0
H1191 H 0.2112 0.33016 0.93841 0.0
S1192 S 0.28236 0.33444 0.12258 0.0
N1193 N 0.26781 0.34017 0.19218 0.0
N1194 N 0.27103 0.32907 0.01622 0.0
C1195 C 0.25445 0.33181 0.03399 0.0
C1196 C 0.25271 0.33786 0.12949 0.0
C1197 C 0.87948 0.6242 0.5127 0.0
C1198 C 0.86046 0.61743 0.4636 0.0
C1199 C 0.88318 0.63392 0.60311 0.0
C1200 C 0.86778 0.63673 0.64936 0.0
H1201 H 0.89166 0.62206 0.48082 0.0
H1202 H 0.89815 0.63906 0.63742 0.0
S1203 S 0.81499 0.62118 0.55235 0.0
N1204 N 0.82603 0.61425 0.46836 0.0
N1205 N 0.83255 0.63161 0.63855 0.0
C1206 C 0.84859 0.62979 0.60122 0.0
C1207 C 0.84505 0.62042 0.50841 0.0
C1208 C 0.34891 0.26465 0.46663 0.0
C1209 C 0.33316 0.2451 0.50033 0.0
C1210 C 0.35701 0.26693 0.3732 0.0
C1211 C 0.3494 0.24979 0.30971 0.0
H1212 H 0.35551 0.27809 0.51382 0.0
H1213 H 0.36981 0.28205 0.35194 0.0
S1214 S 0.30569 0.19611 0.35883 0.0
N1215 N 0.30865 0.20892 0.45984 0.0
N1216 N 0.32344 0.21316 0.28475 0.0
C1217 C 0.33271 0.23049 0.34108 0.0
C1218 C 0.32472 0.22815 0.43622 0.0
C1219 C 0.78958 0.11201 0.42287 0.0
C1220 C 0.7782 0.09709 0.49414 0.0
C1221 C 0.78089 0.11131 0.3327 0.0
C1222 C 0.76011 0.09619 0.31093 0.0
H1223 H 0.80558 0.12419 0.43583 0.0
H1224 H 0.79045 0.12307 0.28039 0.0
S1225 S 0.72306 0.05412 0.47301 0.0
N1226 N 0.74479 0.06674 0.53649 0.0
N1227 N 0.7281 0.06622 0.3686 0.0
C1228 C 0.7483 0.08147 0.38199 0.0
C1229 C 0.75739 0.08176 0.47314 0.0
C1230 C 0.00053 0.43161 0.33739 0.0
C1231 C -0.00371 0.44508 0.3923 0.0
C1232 C 0.00732 0.43631 0.24158 0.0
C1233 C 0.00965 0.4544 0.19618 0.0
H1234 H -0.00129 0.41739 0.3688 0.0
H1235 H 0.01068 0.42564 0.20273 0.0
S1236 S -4e-05 0.49456 0.30756 0.0
N1237 N -0.00519 0.47729 0.39326 0.0
N1238 N 0.00688 0.48574 0.21414 0.0
C1239 C 0.00516 0.46783 0.25012 0.0
C1240 C -0.00129 0.46329 0.34781 0.0
C1241 C 0.58147 0.57732 0.99827 0.0
C1242 C 0.56595 0.55928 0.95113 0.0
C1243 C 0.58964 0.57602 0.08754 0.0
C1244 C 0.5823 0.5567 0.13384 0.0
H1245 H 0.58718 0.59263 0.96675 0.0
H1246 H 0.60146 0.59027 0.12144 0.0
S1247 S 0.54408 0.50458 0.0363 0.0
N1248 N 0.54521 0.52125 0.95459 0.0
N1249 N 0.56019 0.519 0.12242 0.0
C1250 C 0.56731 0.53852 0.08655 0.0
C1251 C 0.55924 0.53977 0.99525 0.0
C1252 C 0.43889 0.99206 0.24526 0.0
C1253 C 0.42486 0.99144 0.17517 0.0
C1254 C 0.44165 0.00248 0.33261 0.0
C1255 C 0.4311 0.01349 0.35242 0.0
H1256 H 0.44792 0.98438 0.23286 0.0
H1257 H 0.45287 0.00264 0.38321 0.0
S1258 S 0.3925 0.01686 0.19379 0.0
N1259 N 0.39977 0.00236 0.13302 0.0
N1260 N 0.40577 0.02292 0.29532 0.0
C1261 C 0.41697 0.01304 0.28325 0.0
C1262 C 0.41368 0.00185 0.19515 0.0
C1263 C 0.53559 -0.0034 0.80419 0.0
C1264 C 0.54978 -0.00338 0.87187 0.0
C1265 C 0.53236 0.98656 0.71542 0.0
C1266 C 0.54284 0.97568 0.69137 0.0
H1267 H 0.52681 0.00442 0.81968 0.0
H1268 H 0.52096 0.98667 0.66682 0.0
S1269 S 0.58185 0.97113 0.84188 0.0
N1270 N 0.57487 0.98531 0.90714 0.0
N1271 N 0.56825 0.96578 0.7415 0.0
C1272 C 0.55718 0.97566 0.75783 0.0
C1273 C 0.56082 0.9863 0.84763 0.0
C1274 C 0.97587 0.54654 0.71727 0.0
C1275 C -0.00412 0.56246 0.68928 0.0
C1276 C 0.96905 0.5447 0.81267 0.0
C1277 C 0.9823 0.55817 0.88483 0.0
H1278 H 0.96556 0.53507 0.66548 0.0
H1279 H 0.95371 0.53182 0.8309 0.0
S1280 S 0.03564 0.60335 0.84838 0.0
N1281 N 0.02823 0.59307 0.74051 0.0
N1282 N 0.01587 0.58879 0.9204 0.0
C1283 C 0.00203 0.57461 0.85725 0.0
C1284 C 0.0087 0.57697 0.75942 0.0
C1285 C 0.42525 0.42546 0.49103 0.0
C1286 C 0.44356 0.44034 0.44335 0.0
C1287 C 0.42615 0.41778 0.58197 0.0
C1288 C 0.44535 0.425 0.62945 0.0
H1289 H 0.41001 0.41995 0.45882 0.0
H1290 H 0.41169 0.40651 0.61634 0.0
S1291 S 0.49803 0.46183 0.53216 0.0
N1292 N 0.48167 0.46037 0.44782 0.0
N1293 N 0.48322 0.44643 0.61928 0.0
C1294 C 0.46381 0.43932 0.58165 0.0
C1295 C 0.46295 0.44682 0.48844 0.0
loop_
_geom_bond_atom_site_label_1
_geom_bond_atom_site_label_2
_geom_bond_distance
_geom_bond_site_symmetry_2
_ccdc_geom_bond_type
Mg0 O1 2.028 . S
Mg0 O7 1.986 . S
Mg0 O9 2.114 . S
Mg0 O10 2.251 . S
Mg0 O13 2.010 . S
O1 Mg0 2.028 . S
O1 C4 1.250 1_554 S
O2 Mg3 2.028 . S
O2 C4 1.248 1_554 S
Mg3 O2 2.028 . S
Mg3 O8 2.032 . S
Mg3 O10 2.079 . S
C4 O1 1.250 1_556 S
C4 O2 1.248 1_556 S
C5 O6 1.264 . S
C5 O13 1.249 . S
O6 C5 1.264 . S
O7 Mg0 1.986 . S
O7 C11 1.246 . S
O8 Mg3 2.032 . S
O8 C11 1.259 . S
O9 Mg0 2.114 . S
O9 C12 1.252 . S
O10 Mg0 2.251 . S
O10 Mg3 2.079 . S
O10 C12 1.273 . S
C11 O7 1.246 . S
C11 O8 1.259 . S
C12 O9 1.252 . S
C12 O10 1.273 . S
O13 Mg0 2.010 . S
O13 C5 1.249 . S
Mg14 O15 2.028 . S
Mg14 O21 1.986 . S
Mg14 O23 2.114 . S
Mg14 O24 2.251 . S
Mg14 O27 2.010 . S
O15 Mg14 2.028 . S
O15 C18 1.250 1_554 S
O16 Mg17 2.028 . S
O16 C18 1.248 1_554 S
Mg17 O16 2.028 . S
Mg17 O22 2.032 . S
Mg17 O24 2.079 . S
C18 O15 1.250 1_556 S
C18 O16 1.248 1_556 S
C19 O20 1.264 . S
C19 O27 1.249 . S
O20 C19 1.264 . S
O21 Mg14 1.986 . S
O21 C25 1.246 . S
O22 Mg17 2.032 . S
O22 C25 1.259 . S
O23 Mg14 2.114 . S
O23 C26 1.252 . S
O24 Mg14 2.251 . S
O24 Mg17 2.079 . S
O24 C26 1.273 . S
C25 O21 1.246 . S
C25 O22 1.259 . S
C26 O23 1.252 . S
C26 O24 1.273 . S
O27 Mg14 2.010 . S
O27 C19 1.249 . S
Mg28 O29 2.028 . S
Mg28 O35 1.986 . S
Mg28 O37 2.114 . S
Mg28 O38 2.251 . S
Mg28 O41 2.010 . S
O29 Mg28 2.028 . S
O29 C32 1.250 1_554 S
O30 Mg31 2.028 . S
O30 C32 1.248 1_554 S
Mg31 O30 2.028 . S
Mg31 O36 2.032 . S
Mg31 O38 2.079 . S
C32 O29 1.250 1_556 S
C32 O30 1.248 1_556 S
C33 O34 1.264 . S
C33 O41 1.249 . S
O34 C33 1.264 . S
O35 Mg28 1.986 . S
O35 C39 1.246 . S
O36 Mg31 2.032 . S
O36 C39 1.259 . S
O37 Mg28 2.114 . S
O37 C40 1.252 . S
O38 Mg28 2.251 . S
O38 Mg31 2.079 . S
O38 C40 1.273 . S
C39 O35 1.246 . S
C39 O36 1.259 . S
C40 O37 1.252 . S
C40 O38 1.273 . S
O41 Mg28 2.010 . S
O41 C33 1.249 . S
Mg42 O43 2.028 . S
Mg42 O49 1.986 . S
Mg42 O51 2.114 . S
Mg42 O52 2.251 . S
Mg42 O55 2.010 . S
O43 Mg42 2.028 . S
O43 C46 1.250 . S
O44 Mg45 2.028 . S
O44 C46 1.248 . S
Mg45 O44 2.028 . S
Mg45 O50 2.032 . S
Mg45 O52 2.079 . S
C46 O43 1.250 . S
C46 O44 1.248 . S
C47 O48 1.264 . S
C47 O55 1.249 . S
O48 C47 1.264 . S
O49 Mg42 1.986 . S
O49 C53 1.246 . S
O50 Mg45 2.032 . S
O50 C53 1.259 . S
O51 Mg42 2.114 . S
O51 C54 1.252 . S
O52 Mg42 2.251 . S
O52 Mg45 2.079 . S
O52 C54 1.273 . S
C53 O49 1.246 . S
C53 O50 1.259 . S
C54 O51 1.252 . S
C54 O52 1.273 . S
O55 Mg42 2.010 . S
O55 C47 1.249 . S
Mg56 O57 2.028 . S
Mg56 O63 1.986 . S
Mg56 O65 2.114 . S
Mg56 O66 2.251 . S
Mg56 O69 2.010 . S
O57 Mg56 2.028 . S
O57 C60 1.250 . S
O58 Mg59 2.028 . S
O58 C60 1.248 . S
Mg59 O58 2.028 . S
Mg59 O64 2.032 . S
Mg59 O66 2.079 . S
C60 O57 1.250 . S
C60 O58 1.248 . S
C61 O62 1.264 . S
C61 O69 1.249 . S
O62 C61 1.264 . S
O63 Mg56 1.986 . S
O63 C67 1.246 . S
O64 Mg59 2.032 . S
O64 C67 1.259 . S
O65 Mg56 2.114 . S
O65 C68 1.252 . S
O66 Mg56 2.251 . S
O66 Mg59 2.079 . S
O66 C68 1.273 . S
C67 O63 1.246 . S
C67 O64 1.259 . S
C68 O65 1.252 . S
C68 O66 1.273 . S
O69 Mg56 2.010 . S
O69 C61 1.249 . S
Mg70 O71 2.028 . S
Mg70 O77 1.986 . S
Mg70 O79 2.114 . S
Mg70 O80 2.251 . S
Mg70 O83 2.010 . S
O71 Mg70 2.028 . S
O71 C74 1.250 . S
O72 Mg73 2.028 . S
O72 C74 1.248 . S
Mg73 O72 2.028 . S
Mg73 O78 2.032 . S
Mg73 O80 2.079 . S
C74 O71 1.250 . S
C74 O72 1.248 . S
C75 O76 1.264 . S
C75 O83 1.249 . S
O76 C75 1.264 . S
O77 Mg70 1.986 . S
O77 C81 1.246 . S
O78 Mg73 2.032 . S
O78 C81 1.259 . S
O79 Mg70 2.114 . S
O79 C82 1.252 . S
O80 Mg70 2.251 . S
O80 Mg73 2.079 . S
O80 C82 1.273 . S
C81 O77 1.246 . S
C81 O78 1.259 . S
C82 O79 1.252 . S
C82 O80 1.273 . S
O83 Mg70 2.010 . S
O83 C75 1.249 . S
Mg84 O85 2.028 . S
Mg84 O91 1.986 . S
Mg84 O93 2.114 . S
Mg84 O94 2.251 . S
Mg84 O97 2.010 . S
O85 Mg84 2.028 . S
O85 C88 1.250 1_556 S
O86 Mg87 2.028 . S
O86 C88 1.248 1_556 S
Mg87 O86 2.028 . S
Mg87 O92 2.032 . S
Mg87 O94 2.079 . S
C88 O85 1.250 1_554 S
C88 O86 1.248 1_554 S
C89 O90 1.264 . S
C89 O97 1.249 . S
O90 C89 1.264 . S
O91 Mg84 1.986 . S
O91 C95 1.246 . S
O92 Mg87 2.032 . S
O92 C95 1.259 . S
O93 Mg84 2.114 . S
O93 C96 1.252 . S
O94 Mg84 2.251 . S
O94 Mg87 2.079 . S
O94 C96 1.273 . S
C95 O91 1.246 . S
C95 O92 1.259 . S
C96 O93 1.252 . S
C96 O94 1.273 . S
O97 Mg84 2.010 . S
O97 C89 1.249 . S
Mg98 O99 2.028 . S
Mg98 O105 1.986 . S
Mg98 O107 2.114 . S
Mg98 O108 2.251 . S
Mg98 O111 2.010 . S
O99 Mg98 2.028 . S
O99 C102 1.250 1_556 S
O100 Mg101 2.028 . S
O100 C102 1.248 1_556 S
Mg101 O100 2.028 . S
Mg101 O106 2.032 . S
Mg101 O108 2.079 . S
C102 O99 1.250 1_554 S
C102 O100 1.248 1_554 S
C103 O104 1.264 . S
C103 O111 1.249 . S
O104 C103 1.264 . S
O105 Mg98 1.986 . S
O105 C109 1.246 . S
O106 Mg101 2.032 . S
O106 C109 1.259 . S
O107 Mg98 2.114 . S
O107 C110 1.252 . S
O108 Mg98 2.251 . S
O108 Mg101 2.079 . S
O108 C110 1.273 . S
C109 O105 1.246 . S
C109 O106 1.259 . S
C110 O107 1.252 . S
C110 O108 1.273 . S
O111 Mg98 2.010 . S
O111 C103 1.249 . S
Mg112 O113 2.028 . S
Mg112 O119 1.986 . S
Mg112 O121 2.114 . S
Mg112 O122 2.251 . S
Mg112 O125 2.010 . S
O113 Mg112 2.028 . S
O113 C116 1.250 1_556 S
O114 Mg115 2.028 . S
O114 C116 1.248 1_556 S
Mg115 O114 2.028 . S
Mg115 O120 2.032 . S
Mg115 O122 2.079 . S
C116 O113 1.250 1_554 S
C116 O114 1.248 1_554 S
C117 O118 1.264 . S
C117 O125 1.249 . S
O118 C117 1.264 . S
O119 Mg112 1.986 . S
O119 C123 1.246 . S
O120 Mg115 2.032 . S
O120 C123 1.259 . S
O121 Mg112 2.114 . S
O121 C124 1.252 . S
O122 Mg112 2.251 . S
O122 Mg115 2.079 . S
O122 C124 1.273 . S
C123 O119 1.246 . S
C123 O120 1.259 . S
C124 O121 1.252 . S
C124 O122 1.273 . S
O125 Mg112 2.010 . S
O125 C117 1.249 . S
Mg126 O127 2.028 . S
Mg126 O133 1.986 . S
Mg126 O135 2.114 . S
Mg126 O136 2.251 . S
Mg126 O139 2.010 . S
O127 Mg126 2.028 . S
O127 C130 1.250 . S
O128 Mg129 2.028 . S
O128 C130 1.248 . S
Mg129 O128 2.028 . S
Mg129 O134 2.032 . S
Mg129 O136 2.079 . S
C130 O127 1.250 . S
C130 O128 1.248 . S
C131 O132 1.264 . S
C131 O139 1.249 . S
O132 C131 1.264 . S
O133 Mg126 1.986 . S
O133 C137 1.246 . S
O134 Mg129 2.032 . S
O134 C137 1.259 . S
O135 Mg126 2.114 . S
O135 C138 1.252 . S
O136 Mg126 2.251 . S
O136 Mg129 2.079 . S
O136 C138 1.273 . S
C137 O133 1.246 . S
C137 O134 1.259 . S
C138 O135 1.252 . S
C138 O136 1.273 . S
O139 Mg126 2.010 . S
O139 C131 1.249 . S
Mg140 O141 2.028 . S
Mg140 O147 1.986 . S
Mg140 O149 2.114 . S
Mg140 O150 2.251 . S
Mg140 O153 2.010 . S
O141 Mg140 2.028 . S
O141 C144 1.250 . S
O142 Mg143 2.028 . S
O142 C144 1.248 . S
Mg143 O142 2.028 . S
Mg143 O148 2.032 . S
Mg143 O150 2.079 . S
C144 O141 1.250 . S
C144 O142 1.248 . S
C145 O146 1.264 . S
C145 O153 1.249 . S
O146 C145 1.264 . S
O147 Mg140 1.986 . S
O147 C151 1.246 . S
O148 Mg143 2.032 . S
O148 C151 1.259 . S
O149 Mg140 2.114 . S
O149 C152 1.252 . S
O150 Mg140 2.251 . S
O150 Mg143 2.079 . S
O150 C152 1.273 . S
C151 O147 1.246 . S
C151 O148 1.259 . S
C152 O149 1.252 . S
C152 O150 1.273 . S
O153 Mg140 2.010 . S
O153 C145 1.249 . S
Mg154 O155 2.028 . S
Mg154 O161 1.986 . S
Mg154 O163 2.114 . S
Mg154 O164 2.251 . S
Mg154 O167 2.010 . S
O155 Mg154 2.028 . S
O155 C158 1.250 . S
O156 Mg157 2.028 . S
O156 C158 1.248 . S
Mg157 O156 2.028 . S
Mg157 O162 2.032 . S
Mg157 O164 2.079 . S
C158 O155 1.250 . S
C158 O156 1.248 . S
C159 O160 1.264 . S
C159 O167 1.249 . S
O160 C159 1.264 . S
O161 Mg154 1.986 . S
O161 C165 1.246 . S
O162 Mg157 2.032 . S
O162 C165 1.259 . S
O163 Mg154 2.114 . S
O163 C166 1.252 . S
O164 Mg154 2.251 . S
O164 Mg157 2.079 . S
O164 C166 1.273 . S
C165 O161 1.246 . S
C165 O162 1.259 . S
C166 O163 1.252 . S
C166 O164 1.273 . S
O167 Mg154 2.010 . S
O167 C159 1.249 . S
Mg168 O169 2.028 . S
Mg168 O175 1.986 . S
Mg168 O177 2.114 . S
Mg168 O178 2.251 . S
Mg168 O181 2.010 . S
O169 Mg168 2.028 . S
O169 C172 1.250 . S
O170 Mg171 2.028 . S
O170 C172 1.248 . S
Mg171 O170 2.028 . S
Mg171 O176 2.032 . S
Mg171 O178 2.079 . S
C172 O169 1.250 . S
C172 O170 1.248 . S
C173 O174 1.264 . S
C173 O181 1.249 . S
O174 C173 1.264 . S
O175 Mg168 1.986 . S
O175 C179 1.246 . S
O176 Mg171 2.032 . S
O176 C179 1.259 . S
O177 Mg168 2.114 . S
O177 C180 1.252 . S
O178 Mg168 2.251 . S
O178 Mg171 2.079 . S
O178 C180 1.273 . S
C179 O175 1.246 . S
C179 O176 1.259 . S
C180 O177 1.252 . S
C180 O178 1.273 . S
O181 Mg168 2.010 . S
O181 C173 1.249 . S
Mg182 O183 2.028 . S
Mg182 O189 1.986 . S
Mg182 O191 2.114 . S
Mg182 O192 2.251 . S
Mg182 O195 2.010 . S
O183 Mg182 2.028 . S
O183 C186 1.250 . S
O184 Mg185 2.028 . S
O184 C186 1.248 . S
Mg185 O184 2.028 . S
Mg185 O190 2.032 . S
Mg185 O192 2.079 . S
C186 O183 1.250 . S
C186 O184 1.248 . S
C187 O188 1.264 . S
C187 O195 1.249 . S
O188 C187 1.264 . S
O189 Mg182 1.986 . S
O189 C193 1.246 . S
O190 Mg185 2.032 . S
O190 C193 1.259 . S
O191 Mg182 2.114 . S
O191 C194 1.252 . S
O192 Mg182 2.251 . S
O192 Mg185 2.079 . S
O192 C194 1.273 . S
C193 O189 1.246 . S
C193 O190 1.259 . S
C194 O191 1.252 . S
C194 O192 1.273 . S
O195 Mg182 2.010 . S
O195 C187 1.249 . S
Mg196 O197 2.028 . S
Mg196 O203 1.986 . S
Mg196 O205 2.114 . S
Mg196 O206 2.251 . S
Mg196 O209 2.010 . S
O197 Mg196 2.028 . S
O197 C200 1.250 . S
O198 Mg199 2.028 . S
O198 C200 1.248 . S
Mg199 O198 2.028 . S
Mg199 O204 2.032 . S
Mg199 O206 2.079 . S
C200 O197 1.250 . S
C200 O198 1.248 . S
C201 O202 1.264 . S
C201 O209 1.249 . S
O202 C201 1.264 . S
O203 Mg196 1.986 . S
O203 C207 1.246 . S
O204 Mg199 2.032 . S
O204 C207 1.259 . S
O205 Mg196 2.114 . S
O205 C208 1.252 . S
O206 Mg196 2.251 . S
O206 Mg199 2.079 . S
O206 C208 1.273 . S
C207 O203 1.246 . S
C207 O204 1.259 . S
C208 O205 1.252 . S
C208 O206 1.273 . S
O209 Mg196 2.010 . S
O209 C201 1.249 . S
Mg210 O211 2.028 . S
Mg210 O217 1.986 . S
Mg210 O219 2.114 . S
Mg210 O220 2.251 . S
Mg210 O223 2.010 . S
O211 Mg210 2.028 . S
O211 C214 1.250 . S
O212 Mg213 2.028 . S
O212 C214 1.248 . S
Mg213 O212 2.028 . S
Mg213 O218 2.032 . S
Mg213 O220 2.079 . S
C214 O211 1.250 . S
C214 O212 1.248 . S
C215 O216 1.264 . S
C215 O223 1.249 . S
O216 C215 1.264 . S
O217 Mg210 1.986 . S
O217 C221 1.246 . S
O218 Mg213 2.032 . S
O218 C221 1.259 . S
O219 Mg210 2.114 . S
O219 C222 1.252 . S
O220 Mg210 2.251 . S
O220 Mg213 2.079 . S
O220 C222 1.273 . S
C221 O217 1.246 . S
C221 O218 1.259 . S
C222 O219 1.252 . S
C222 O220 1.273 . S
O223 Mg210 2.010 . S
O223 C215 1.249 . S
Mg224 O225 2.028 . S
Mg224 O231 1.986 . S
Mg224 O233 2.114 . S
Mg224 O234 2.251 . S
Mg224 O237 2.010 . S
O225 Mg224 2.028 . S
O225 C228 1.250 . S
O226 Mg227 2.028 . S
O226 C228 1.248 . S
Mg227 O226 2.028 . S
Mg227 O232 2.032 . S
Mg227 O234 2.079 . S
C228 O225 1.250 . S
C228 O226 1.248 . S
C229 O230 1.264 . S
C229 O237 1.249 . S
O230 C229 1.264 . S
O231 Mg224 1.986 . S
O231 C235 1.246 . S
O232 Mg227 2.032 . S
O232 C235 1.259 . S
O233 Mg224 2.114 . S
O233 C236 1.252 . S
O234 Mg224 2.251 . S
O234 Mg227 2.079 . S
O234 C236 1.273 . S
C235 O231 1.246 . S
C235 O232 1.259 . S
C236 O233 1.252 . S
C236 O234 1.273 . S
O237 Mg224 2.010 . S
O237 C229 1.249 . S
Mg238 O239 2.028 . S
Mg238 O245 1.986 . S
Mg238 O247 2.114 . S
Mg238 O248 2.251 . S
Mg238 O251 2.010 . S
O239 Mg238 2.028 . S
O239 C242 1.250 . S
O240 Mg241 2.028 . S
O240 C242 1.248 . S
Mg241 O240 2.028 . S
Mg241 O246 2.032 . S
Mg241 O248 2.079 . S
C242 O239 1.250 . S
C242 O240 1.248 . S
C243 O244 1.264 . S
C243 O251 1.249 . S
O244 C243 1.264 . S
O245 Mg238 1.986 . S
O245 C249 1.246 . S
O246 Mg241 2.032 . S
O246 C249 1.259 . S
O247 Mg238 2.114 . S
O247 C250 1.252 . S
O248 Mg238 2.251 . S
O248 Mg241 2.079 . S
O248 C250 1.273 . S
C249 O245 1.246 . S
C249 O246 1.259 . S
C250 O247 1.252 . S
C250 O248 1.273 . S
O251 Mg238 2.010 . S
O251 C243 1.249 . S
Mg252 O253 2.028 . S
Mg252 O259 1.986 . S
Mg252 O261 2.114 . S
Mg252 O262 2.251 . S
Mg252 O265 2.010 . S
O253 Mg252 2.028 . S
O253 C256 1.250 . S
O254 Mg255 2.028 . S
O254 C256 1.248 . S
Mg255 O254 2.028 . S
Mg255 O260 2.032 . S
Mg255 O262 2.079 . S
C256 O253 1.250 . S
C256 O254 1.248 . S
C257 O258 1.264 . S
C257 O265 1.249 . S
O258 C257 1.264 . S
O259 Mg252 1.986 . S
O259 C263 1.246 . S
O260 Mg255 2.032 . S
O260 C263 1.259 . S
O261 Mg252 2.114 . S
O261 C264 1.252 . S
O262 Mg252 2.251 . S
O262 Mg255 2.079 . S
O262 C264 1.273 . S
C263 O259 1.246 . S
C263 O260 1.259 . S
C264 O261 1.252 . S
C264 O262 1.273 . S
O265 Mg252 2.010 . S
O265 C257 1.249 . S
Mg266 O267 2.028 . S
Mg266 O273 1.986 . S
Mg266 O275 2.114 . S
Mg266 O276 2.251 . S
Mg266 O279 2.010 . S
O267 Mg266 2.028 . S
O267 C270 1.250 . S
O268 Mg269 2.028 . S
O268 C270 1.248 . S
Mg269 O268 2.028 . S
Mg269 O274 2.032 . S
Mg269 O276 2.079 . S
C270 O267 1.250 . S
C270 O268 1.248 . S
C271 O272 1.264 . S
C271 O279 1.249 . S
O272 C271 1.264 . S
O273 Mg266 1.986 . S
O273 C277 1.246 . S
O274 Mg269 2.032 . S
O274 C277 1.259 . S
O275 Mg266 2.114 . S
O275 C278 1.252 . S
O276 Mg266 2.251 . S
O276 Mg269 2.079 . S
O276 C278 1.273 . S
C277 O273 1.246 . S
C277 O274 1.259 . S
C278 O275 1.252 . S
C278 O276 1.273 . S
O279 Mg266 2.010 . S
O279 C271 1.249 . S
Mg280 O281 2.028 . S
Mg280 O287 1.986 . S
Mg280 O289 2.114 . S
Mg280 O290 2.251 . S
Mg280 O293 2.010 . S
O281 Mg280 2.028 . S
O281 C284 1.250 . S
O282 Mg283 2.028 . S
O282 C284 1.248 . S
Mg283 O282 2.028 . S
Mg283 O288 2.032 . S
Mg283 O290 2.079 . S
C284 O281 1.250 . S
C284 O282 1.248 . S
C285 O286 1.264 . S
C285 O293 1.249 . S
O286 C285 1.264 . S
O287 Mg280 1.986 . S
O287 C291 1.246 . S
O288 Mg283 2.032 . S
O288 C291 1.259 . S
O289 Mg280 2.114 . S
O289 C292 1.252 . S
O290 Mg280 2.251 . S
O290 Mg283 2.079 . S
O290 C292 1.273 . S
C291 O287 1.246 . S
C291 O288 1.259 . S
C292 O289 1.252 . S
C292 O290 1.273 . S
O293 Mg280 2.010 . S
O293 C285 1.249 . S
Mg294 O295 2.028 . S
Mg294 O301 1.986 . S
Mg294 O303 2.114 1_556 S
Mg294 O304 2.251 1_556 S
Mg294 O307 2.010 . S
O295 Mg294 2.028 . S
O295 C298 1.250 . S
O296 Mg297 2.028 . S
O296 C298 1.248 . S
Mg297 O296 2.028 . S
Mg297 O302 2.032 . S
Mg297 O304 2.079 1_556 S
C298 O295 1.250 . S
C298 O296 1.248 . S
C299 O300 1.264 . S
C299 O307 1.249 . S
O300 C299 1.264 . S
O301 Mg294 1.986 . S
O301 C305 1.246 . S
O302 Mg297 2.032 . S
O302 C305 1.259 . S
O303 Mg294 2.114 1_554 S
O303 C306 1.252 . S
O304 Mg294 2.251 1_554 S
O304 Mg297 2.079 1_554 S
O304 C306 1.273 . S
C305 O301 1.246 . S
C305 O302 1.259 . S
C306 O303 1.252 . S
C306 O304 1.273 . S
O307 Mg294 2.010 . S
O307 C299 1.249 . S
Mg308 O309 2.028 . S
Mg308 O315 1.986 . S
Mg308 O317 2.114 1_556 S
Mg308 O318 2.251 1_556 S
Mg308 O321 2.010 . S
O309 Mg308 2.028 . S
O309 C312 1.250 . S
O310 Mg311 2.028 . S
O310 C312 1.248 . S
Mg311 O310 2.028 . S
Mg311 O316 2.032 . S
Mg311 O318 2.079 1_556 S
C312 O309 1.250 . S
C312 O310 1.248 . S
C313 O314 1.264 . S
C313 O321 1.249 . S
O314 C313 1.264 . S
O315 Mg308 1.986 . S
O315 C319 1.246 . S
O316 Mg311 2.032 . S
O316 C319 1.259 . S
O317 Mg308 2.114 1_554 S
O317 C320 1.252 . S
O318 Mg308 2.251 1_554 S
O318 Mg311 2.079 1_554 S
O318 C320 1.273 . S
C319 O315 1.246 . S
C319 O316 1.259 . S
C320 O317 1.252 . S
C320 O318 1.273 . S
O321 Mg308 2.010 . S
O321 C313 1.249 . S
Mg322 O323 2.028 . S
Mg322 O329 1.986 . S
Mg322 O331 2.114 1_556 S
Mg322 O332 2.251 1_556 S
Mg322 O335 2.010 . S
O323 Mg322 2.028 . S
O323 C326 1.250 . S
O324 Mg325 2.028 . S
O324 C326 1.248 . S
Mg325 O324 2.028 . S
Mg325 O330 2.032 . S
Mg325 O332 2.079 1_556 S
C326 O323 1.250 . S
C326 O324 1.248 . S
C327 O328 1.264 . S
C327 O335 1.249 . S
O328 C327 1.264 . S
O329 Mg322 1.986 . S
O329 C333 1.246 . S
O330 Mg325 2.032 . S
O330 C333 1.259 . S
O331 Mg322 2.114 1_554 S
O331 C334 1.252 . S
O332 Mg322 2.251 1_554 S
O332 Mg325 2.079 1_554 S
O332 C334 1.273 . S
C333 O329 1.246 . S
C333 O330 1.259 . S
C334 O331 1.252 . S
C334 O332 1.273 . S
O335 Mg322 2.010 . S
O335 C327 1.249 . S
Mg336 O337 2.028 . S
Mg336 O343 1.986 . S
Mg336 O345 2.114 . S
Mg336 O346 2.251 . S
Mg336 O349 2.010 . S
O337 Mg336 2.028 . S
O337 C340 1.250 . S
O338 Mg339 2.028 . S
O338 C340 1.248 . S
Mg339 O338 2.028 . S
Mg339 O344 2.032 . S
Mg339 O346 2.079 . S
C340 O337 1.250 . S
C340 O338 1.248 . S
C341 O342 1.264 . S
C341 O349 1.249 . S
O342 C341 1.264 . S
O343 Mg336 1.986 . S
O343 C347 1.246 . S
O344 Mg339 2.032 . S
O344 C347 1.259 . S
O345 Mg336 2.114 . S
O345 C348 1.252 . S
O346 Mg336 2.251 . S
O346 Mg339 2.079 . S
O346 C348 1.273 . S
C347 O343 1.246 . S
C347 O344 1.259 . S
C348 O345 1.252 . S
C348 O346 1.273 . S
O349 Mg336 2.010 . S
O349 C341 1.249 . S
Mg350 O351 2.028 . S
Mg350 O357 1.986 . S
Mg350 O359 2.114 . S
Mg350 O360 2.251 . S
Mg350 O363 2.010 . S
O351 Mg350 2.028 . S
O351 C354 1.250 . S
O352 Mg353 2.028 . S
O352 C354 1.248 . S
Mg353 O352 2.028 . S
Mg353 O358 2.032 . S
Mg353 O360 2.079 . S
C354 O351 1.250 . S
C354 O352 1.248 . S
C355 O356 1.264 . S
C355 O363 1.249 . S
O356 C355 1.264 . S
O357 Mg350 1.986 . S
O357 C361 1.246 . S
O358 Mg353 2.032 . S
O358 C361 1.259 . S
O359 Mg350 2.114 . S
O359 C362 1.252 . S
O360 Mg350 2.251 . S
O360 Mg353 2.079 . S
O360 C362 1.273 . S
C361 O357 1.246 . S
C361 O358 1.259 . S
C362 O359 1.252 . S
C362 O360 1.273 . S
O363 Mg350 2.010 . S
O363 C355 1.249 . S
Mg364 O365 2.028 . S
Mg364 O371 1.986 . S
Mg364 O373 2.114 . S
Mg364 O374 2.251 . S
Mg364 O377 2.010 . S
O365 Mg364 2.028 . S
O365 C368 1.250 . S
O366 Mg367 2.028 . S
O366 C368 1.248 . S
Mg367 O366 2.028 . S
Mg367 O372 2.032 . S
Mg367 O374 2.079 . S
C368 O365 1.250 . S
C368 O366 1.248 . S
C369 O370 1.264 . S
C369 O377 1.249 . S
O370 C369 1.264 . S
O371 Mg364 1.986 . S
O371 C375 1.246 . S
O372 Mg367 2.032 . S
O372 C375 1.259 . S
O373 Mg364 2.114 . S
O373 C376 1.252 . S
O374 Mg364 2.251 . S
O374 Mg367 2.079 . S
O374 C376 1.273 . S
C375 O371 1.246 . S
C375 O372 1.259 . S
C376 O373 1.252 . S
C376 O374 1.273 . S
O377 Mg364 2.010 . S
O377 C369 1.249 . S
Mg378 O379 2.028 . S
Mg378 O385 1.986 . S
Mg378 O387 2.114 1_554 S
Mg378 O388 2.251 1_554 S
Mg378 O391 2.010 . S
O379 Mg378 2.028 . S
O379 C382 1.250 . S
O380 Mg381 2.028 . S
O380 C382 1.248 . S
Mg381 O380 2.028 . S
Mg381 O386 2.032 . S
Mg381 O388 2.079 1_554 S
C382 O379 1.250 . S
C382 O380 1.248 . S
C383 O384 1.264 . S
C383 O391 1.249 . S
O384 C383 1.264 . S
O385 Mg378 1.986 . S
O385 C389 1.246 . S
O386 Mg381 2.032 . S
O386 C389 1.259 . S
O387 Mg378 2.114 1_556 S
O387 C390 1.252 . S
O388 Mg378 2.251 1_556 S
O388 Mg381 2.079 1_556 S
O388 C390 1.273 . S
C389 O385 1.246 . S
C389 O386 1.259 . S
C390 O387 1.252 . S
C390 O388 1.273 . S
O391 Mg378 2.010 . S
O391 C383 1.249 . S
Mg392 O393 2.028 . S
Mg392 O399 1.986 . S
Mg392 O401 2.114 1_554 S
Mg392 O402 2.251 1_554 S
Mg392 O405 2.010 . S
O393 Mg392 2.028 . S
O393 C396 1.250 . S
O394 Mg395 2.028 . S
O394 C396 1.248 . S
Mg395 O394 2.028 . S
Mg395 O400 2.032 . S
Mg395 O402 2.079 1_554 S
C396 O393 1.250 . S
C396 O394 1.248 . S
C397 O398 1.264 . S
C397 O405 1.249 . S
O398 C397 1.264 . S
O399 Mg392 1.986 . S
O399 C403 1.246 . S
O400 Mg395 2.032 . S
O400 C403 1.259 . S
O401 Mg392 2.114 1_556 S
O401 C404 1.252 . S
O402 Mg392 2.251 1_556 S
O402 Mg395 2.079 1_556 S
O402 C404 1.273 . S
C403 O399 1.246 . S
C403 O400 1.259 . S
C404 O401 1.252 . S
C404 O402 1.273 . S
O405 Mg392 2.010 . S
O405 C397 1.249 . S
Mg406 O407 2.028 . S
Mg406 O413 1.986 . S
Mg406 O415 2.114 1_554 S
Mg406 O416 2.251 1_554 S
Mg406 O419 2.010 . S
O407 Mg406 2.028 . S
O407 C410 1.250 . S
O408 Mg409 2.028 . S
O408 C410 1.248 . S
Mg409 O408 2.028 . S
Mg409 O414 2.032 . S
Mg409 O416 2.079 1_554 S
C410 O407 1.250 . S
C410 O408 1.248 . S
C411 O412 1.264 . S
C411 O419 1.249 . S
O412 C411 1.264 . S
O413 Mg406 1.986 . S
O413 C417 1.246 . S
O414 Mg409 2.032 . S
O414 C417 1.259 . S
O415 Mg406 2.114 1_556 S
O415 C418 1.252 . S
O416 Mg406 2.251 1_556 S
O416 Mg409 2.079 1_556 S
O416 C418 1.273 . S
C417 O413 1.246 . S
C417 O414 1.259 . S
C418 O415 1.252 . S
C418 O416 1.273 . S
O419 Mg406 2.010 . S
O419 C411 1.249 . S
Mg420 O421 2.028 . S
Mg420 O427 1.986 . S
Mg420 O429 2.114 . S
Mg420 O430 2.251 . S
Mg420 O433 2.010 . S
O421 Mg420 2.028 . S
O421 C424 1.250 . S
O422 Mg423 2.028 . S
O422 C424 1.248 . S
Mg423 O422 2.028 . S
Mg423 O428 2.032 . S
Mg423 O430 2.079 . S
C424 O421 1.250 . S
C424 O422 1.248 . S
C425 O426 1.264 . S
C425 O433 1.249 . S
O426 C425 1.264 . S
O427 Mg420 1.986 . S
O427 C431 1.246 . S
O428 Mg423 2.032 . S
O428 C431 1.259 . S
O429 Mg420 2.114 . S
O429 C432 1.252 . S
O430 Mg420 2.251 . S
O430 Mg423 2.079 . S
O430 C432 1.273 . S
C431 O427 1.246 . S
C431 O428 1.259 . S
C432 O429 1.252 . S
C432 O430 1.273 . S
O433 Mg420 2.010 . S
O433 C425 1.249 . S
Mg434 O435 2.028 . S
Mg434 O441 1.986 . S
Mg434 O443 2.114 . S
Mg434 O444 2.251 . S
Mg434 O447 2.010 . S
O435 Mg434 2.028 . S
O435 C438 1.250 . S
O436 Mg437 2.028 . S
O436 C438 1.248 . S
Mg437 O436 2.028 . S
Mg437 O442 2.032 . S
Mg437 O444 2.079 . S
C438 O435 1.250 . S
C438 O436 1.248 . S
C439 O440 1.264 . S
C439 O447 1.249 . S
O440 C439 1.264 . S
O441 Mg434 1.986 . S
O441 C445 1.246 . S
O442 Mg437 2.032 . S
O442 C445 1.259 . S
O443 Mg434 2.114 . S
O443 C446 1.252 . S
O444 Mg434 2.251 . S
O444 Mg437 2.079 . S
O444 C446 1.273 . S
C445 O441 1.246 . S
C445 O442 1.259 . S
C446 O443 1.252 . S
C446 O444 1.273 . S
O447 Mg434 2.010 . S
O447 C439 1.249 . S
Mg448 O449 2.028 . S
Mg448 O455 1.986 . S
Mg448 O457 2.114 . S
Mg448 O458 2.251 . S
Mg448 O461 2.010 . S
O449 Mg448 2.028 . S
O449 C452 1.250 . S
O450 Mg451 2.028 . S
O450 C452 1.248 . S
Mg451 O450 2.028 . S
Mg451 O456 2.032 . S
Mg451 O458 2.079 . S
C452 O449 1.250 . S
C452 O450 1.248 . S
C453 O454 1.264 . S
C453 O461 1.249 . S
O454 C453 1.264 . S
O455 Mg448 1.986 . S
O455 C459 1.246 . S
O456 Mg451 2.032 . S
O456 C459 1.259 . S
O457 Mg448 2.114 . S
O457 C460 1.252 . S
O458 Mg448 2.251 . S
O458 Mg451 2.079 . S
O458 C460 1.273 . S
C459 O455 1.246 . S
C459 O456 1.259 . S
C460 O457 1.252 . S
C460 O458 1.273 . S
O461 Mg448 2.010 . S
O461 C453 1.249 . S
Mg462 O463 2.028 . S
Mg462 O469 1.986 . S
Mg462 O471 2.114 . S
Mg462 O472 2.251 . S
Mg462 O475 2.010 . S
O463 Mg462 2.028 . S
O463 C466 1.250 . S
O464 Mg465 2.028 . S
O464 C466 1.248 . S
Mg465 O464 2.028 . S
Mg465 O470 2.032 . S
Mg465 O472 2.079 . S
C466 O463 1.250 . S
C466 O464 1.248 . S
C467 O468 1.264 . S
C467 O475 1.249 . S
O468 C467 1.264 . S
O469 Mg462 1.986 . S
O469 C473 1.246 . S
O470 Mg465 2.032 . S
O470 C473 1.259 . S
O471 Mg462 2.114 . S
O471 C474 1.252 . S
O472 Mg462 2.251 . S
O472 Mg465 2.079 . S
O472 C474 1.273 . S
C473 O469 1.246 . S
C473 O470 1.259 . S
C474 O471 1.252 . S
C474 O472 1.273 . S
O475 Mg462 2.010 . S
O475 C467 1.249 . S
Mg476 O477 2.028 . S
Mg476 O483 1.986 . S
Mg476 O485 2.114 . S
Mg476 O486 2.251 . S
Mg476 O489 2.010 . S
O477 Mg476 2.028 . S
O477 C480 1.250 . S
O478 Mg479 2.028 . S
O478 C480 1.248 . S
Mg479 O478 2.028 . S
Mg479 O484 2.032 . S
Mg479 O486 2.079 . S
C480 O477 1.250 . S
C480 O478 1.248 . S
C481 O482 1.264 . S
C481 O489 1.249 . S
O482 C481 1.264 . S
O483 Mg476 1.986 . S
O483 C487 1.246 . S
O484 Mg479 2.032 . S
O484 C487 1.259 . S
O485 Mg476 2.114 . S
O485 C488 1.252 . S
O486 Mg476 2.251 . S
O486 Mg479 2.079 . S
O486 C488 1.273 . S
C487 O483 1.246 . S
C487 O484 1.259 . S
C488 O485 1.252 . S
C488 O486 1.273 . S
O489 Mg476 2.010 . S
O489 C481 1.249 . S
Mg490 O491 2.028 . S
Mg490 O497 1.986 . S
Mg490 O499 2.114 . S
Mg490 O500 2.251 . S
Mg490 O503 2.010 . S
O491 Mg490 2.028 . S
O491 C494 1.250 . S
O492 Mg493 2.028 . S
O492 C494 1.248 . S
Mg493 O492 2.028 . S
Mg493 O498 2.032 . S
Mg493 O500 2.079 . S
C494 O491 1.250 . S
C494 O492 1.248 . S
C495 O496 1.264 . S
C495 O503 1.249 . S
O496 C495 1.264 . S
O497 Mg490 1.986 . S
O497 C501 1.246 . S
O498 Mg493 2.032 . S
O498 C501 1.259 . S
O499 Mg490 2.114 . S
O499 C502 1.252 . S
O500 Mg490 2.251 . S
O500 Mg493 2.079 . S
O500 C502 1.273 . S
C501 O497 1.246 . S
C501 O498 1.259 . S
C502 O499 1.252 . S
C502 O500 1.273 . S
O503 Mg490 2.010 . S
O503 C495 1.249 . S
C504 C505 1.369 . S
C504 C506 1.419 1_565 S
C504 H508 0.930 . S
C505 C504 1.369 . S
C505 C514 1.429 . S
C506 C504 1.419 1_545 S
C506 C507 1.363 . S
C506 H509 0.929 . S
C507 C506 1.363 . S
C507 C513 1.428 . S
H508 C504 0.930 . S
H509 C506 0.929 . S
S510 N511 1.613 . S
S510 N512 1.610 1_565 S
N511 S510 1.613 . S
N511 C514 1.350 . S
N512 S510 1.610 1_545 S
N512 C513 1.351 . S
C513 C507 1.428 . S
C513 N512 1.351 . S
C513 C514 1.434 1_545 S
C514 C505 1.429 . S
C514 N511 1.350 . S
C514 C513 1.434 1_565 S
C515 C516 1.369 . S
C515 C517 1.419 1_655 S
C515 H519 0.930 . S
C516 C515 1.369 . S
C516 C525 1.429 . S
C517 C515 1.419 1_455 S
C517 C518 1.363 . S
C517 H520 0.929 . S
C518 C517 1.363 . S
C518 C524 1.428 . S
H519 C515 0.930 . S
H520 C517 0.929 . S
S521 N522 1.613 1_455 S
S521 N523 1.610 . S
N522 S521 1.613 1_655 S
N522 C525 1.350 . S
N523 S521 1.610 . S
N523 C524 1.351 . S
C524 C518 1.428 . S
C524 N523 1.351 . S
C524 C525 1.434 1_455 S
C525 C516 1.429 . S
C525 N522 1.350 . S
C525 C524 1.434 1_655 S
C526 C527 1.369 . S
C526 C528 1.419 . S
C526 H530 0.930 . S
C527 C526 1.369 . S
C527 C536 1.429 . S
C528 C526 1.419 . S
C528 C529 1.363 . S
C528 H531 0.929 . S
C529 C528 1.363 . S
C529 C535 1.428 . S
H530 C526 0.930 . S
H531 C528 0.929 . S
S532 N533 1.613 . S
S532 N534 1.610 . S
N533 S532 1.613 . S
N533 C536 1.350 . S
N534 S532 1.610 . S
N534 C535 1.351 . S
C535 C529 1.428 . S
C535 N534 1.351 . S
C535 C536 1.434 . S
C536 C527 1.429 . S
C536 N533 1.350 . S
C536 C535 1.434 . S
C537 C538 1.369 . S
C537 C539 1.419 . S
C537 H541 0.930 . S
C538 C537 1.369 . S
C538 C547 1.429 1_565 S
C539 C537 1.419 . S
C539 C540 1.363 1_565 S
C539 H542 0.929 . S
C540 C539 1.363 1_545 S
C540 C546 1.428 . S
H541 C537 0.930 . S
H542 C539 0.929 . S
S543 N544 1.613 . S
S543 N545 1.610 . S
N544 S543 1.613 . S
N544 C547 1.350 . S
N545 S543 1.610 . S
N545 C546 1.351 . S
C546 C540 1.428 . S
C546 N545 1.351 . S
C546 C547 1.434 . S
C547 C538 1.429 1_545 S
C547 N544 1.350 . S
C547 C546 1.434 . S
C548 C549 1.369 . S
C548 C550 1.419 . S
C548 H552 0.930 . S
C549 C548 1.369 . S
C549 C558 1.429 1_455 S
C550 C548 1.419 . S
C550 C551 1.363 1_455 S
C550 H553 0.929 . S
C551 C550 1.363 1_655 S
C551 C557 1.428 . S
H552 C548 0.930 . S
H553 C550 0.929 . S
S554 N555 1.613 . S
S554 N556 1.610 . S
N555 S554 1.613 . S
N555 C558 1.350 . S
N556 S554 1.610 . S
N556 C557 1.351 . S
C557 C551 1.428 . S
C557 N556 1.351 . S
C557 C558 1.434 . S
C558 C549 1.429 1_655 S
C558 N555 1.350 . S
C558 C557 1.434 . S
C559 C560 1.369 . S
C559 C561 1.419 . S
C559 H563 0.930 . S
C560 C559 1.369 . S
C560 C569 1.429 . S
C561 C559 1.419 . S
C561 C562 1.363 . S
C561 H564 0.929 . S
C562 C561 1.363 . S
C562 C568 1.428 . S
H563 C559 0.930 . S
H564 C561 0.929 . S
S565 N566 1.613 . S
S565 N567 1.610 . S
N566 S565 1.613 . S
N566 C569 1.350 . S
N567 S565 1.610 . S
N567 C568 1.351 . S
C568 C562 1.428 . S
C568 N567 1.351 . S
C568 C569 1.434 . S
C569 C560 1.429 . S
C569 N566 1.350 . S
C569 C568 1.434 . S
C570 C571 1.369 . S
C570 C572 1.419 . S
C570 H574 0.930 . S
C571 C570 1.369 . S
C571 C580 1.429 . S
C572 C570 1.419 . S
C572 C573 1.363 . S
C572 H575 0.929 . S
C573 C572 1.363 . S
C573 C579 1.428 . S
H574 C570 0.930 . S
H575 C572 0.929 . S
S576 N577 1.613 . S
S576 N578 1.610 . S
N577 S576 1.613 . S
N577 C580 1.350 . S
N578 S576 1.610 . S
N578 C579 1.351 . S
C579 C573 1.428 . S
C579 N578 1.351 . S
C579 C580 1.434 . S
C580 C571 1.429 . S
C580 N577 1.350 . S
C580 C579 1.434 . S
C581 C582 1.369 . S
C581 C583 1.419 . S
C581 H585 0.930 . S
C582 C581 1.369 . S
C582 C591 1.429 . S
C583 C581 1.419 . S
C583 C584 1.363 . S
C583 H586 0.929 . S
C584 C583 1.363 . S
C584 C590 1.428 . S
H585 C581 0.930 . S
H586 C583 0.929 . S
S587 N588 1.613 . S
S587 N589 1.610 . S
N588 S587 1.613 . S
N588 C591 1.350 . S
N589 S587 1.610 . S
N589 C590 1.351 . S
C590 C584 1.428 . S
C590 N589 1.351 . S
C590 C591 1.434 . S
C591 C582 1.429 . S
C591 N588 1.350 . S
C591 C590 1.434 . S
C592 C593 1.369 . S
C592 C594 1.419 . S
C592 H596 0.930 . S
C593 C592 1.369 . S
C593 C602 1.429 . S
C594 C592 1.419 . S
C594 C595 1.363 . S
C594 H597 0.929 . S
C595 C594 1.363 . S
C595 C601 1.428 . S
H596 C592 0.930 . S
H597 C594 0.929 . S
S598 N599 1.613 . S
S598 N600 1.610 . S
N599 S598 1.613 . S
N599 C602 1.350 . S
N600 S598 1.610 . S
N600 C601 1.351 . S
C601 C595 1.428 . S
C601 N600 1.351 . S
C601 C602 1.434 . S
C602 C593 1.429 . S
C602 N599 1.350 . S
C602 C601 1.434 . S
C603 C604 1.369 . S
C603 C605 1.419 . S
C603 H607 0.930 . S
C604 C603 1.369 . S
C604 C613 1.429 . S
C605 C603 1.419 . S
C605 C606 1.363 . S
C605 H608 0.929 . S
C606 C605 1.363 . S
C606 C612 1.428 . S
H607 C603 0.930 . S
H608 C605 0.929 . S
S609 N610 1.613 1_556 S
S609 N611 1.610 . S
N610 S609 1.613 1_554 S
N610 C613 1.350 . S
N611 S609 1.610 . S
N611 C612 1.351 1_556 S
C612 C606 1.428 . S
C612 N611 1.351 1_554 S
C612 C613 1.434 . S
C613 C604 1.429 . S
C613 N610 1.350 . S
C613 C612 1.434 . S
C614 C615 1.369 . S
C614 C616 1.419 1_554 S
C614 H618 0.930 . S
C615 C614 1.369 . S
C615 C624 1.429 . S
C616 C614 1.419 1_556 S
C616 C617 1.363 1_556 S
C616 H619 0.929 . S
C617 C616 1.363 1_554 S
C617 C623 1.428 . S
H618 C614 0.930 . S
H619 C616 0.929 . S
S620 N621 1.613 . S
S620 N622 1.610 . S
N621 S620 1.613 . S
N621 C624 1.350 . S
N622 S620 1.610 . S
N622 C623 1.351 . S
C623 C617 1.428 . S
C623 N622 1.351 . S
C623 C624 1.434 . S
C624 C615 1.429 . S
C624 N621 1.350 . S
C624 C623 1.434 . S
C625 C626 1.369 . S
C625 C627 1.419 . S
C625 H629 0.930 . S
C626 C625 1.369 . S
C626 C635 1.429 . S
C627 C625 1.419 . S
C627 C628 1.363 . S
C627 H630 0.929 . S
C628 C627 1.363 . S
C628 C634 1.428 1_554 S
H629 C625 0.930 . S
H630 C627 0.929 . S
S631 N632 1.613 1_556 S
S631 N633 1.610 . S
N632 S631 1.613 1_554 S
N632 C635 1.350 . S
N633 S631 1.610 . S
N633 C634 1.351 . S
C634 C628 1.428 1_556 S
C634 N633 1.351 . S
C634 C635 1.434 1_556 S
C635 C626 1.429 . S
C635 N632 1.350 . S
C635 C634 1.434 1_554 S
C636 C637 1.369 . S
C636 C638 1.419 . S
C636 H640 0.930 . S
C637 C636 1.369 . S
C637 C646 1.429 . S
C638 C636 1.419 . S
C638 C639 1.363 . S
C638 H641 0.929 . S
C639 C638 1.363 . S
C639 C645 1.428 . S
H640 C636 0.930 . S
H641 C638 0.929 . S
S642 N643 1.613 . S
S642 N644 1.610 . S
N643 S642 1.613 . S
N643 C646 1.350 . S
N644 S642 1.610 . S
N644 C645 1.351 . S
C645 C639 1.428 . S
C645 N644 1.351 . S
C645 C646 1.434 . S
C646 C637 1.429 . S
C646 N643 1.350 . S
C646 C645 1.434 . S
C647 C648 1.368 1_554 S
C647 C649 1.412 1_554 S
C647 H651 0.939 . S
C648 C647 1.368 1_556 S
C648 C657 1.429 . S
C649 C647 1.412 1_556 S
C649 C650 1.363 . S
C649 H652 0.929 . S
C650 C649 1.363 . S
C650 C656 1.428 . S
H651 C647 0.939 . S
H652 C649 0.929 . S
S653 N654 1.613 . S
S653 N655 1.610 . S
N654 S653 1.613 . S
N654 C657 1.350 . S
N655 S653 1.610 . S
N655 C656 1.351 . S
C656 C650 1.428 . S
C656 N655 1.351 . S
C656 C657 1.434 . S
C657 C648 1.429 . S
C657 N654 1.350 . S
C657 C656 1.434 . S
C658 C659 1.369 . S
C658 C660 1.419 . S
C658 H662 0.930 . S
C659 C658 1.369 . S
C659 C668 1.429 . S
C660 C658 1.419 . S
C660 C661 1.363 . S
C660 H663 0.929 . S
C661 C660 1.363 . S
C661 C667 1.428 1_556 S
H662 C658 0.930 . S
H663 C660 0.929 . S
S664 N665 1.613 1_554 S
S664 N666 1.610 . S
N665 S664 1.613 1_556 S
N665 C668 1.350 . S
N666 S664 1.610 . S
N666 C667 1.351 . S
C667 C661 1.428 1_554 S
C667 N666 1.351 . S
C667 C668 1.434 1_554 S
C668 C659 1.429 . S
C668 N665 1.350 . S
C668 C667 1.434 1_556 S
C669 C670 1.369 . S
C669 C671 1.419 . S
C669 H673 0.930 . S
C670 C669 1.369 . S
C670 C679 1.429 . S
C671 C669 1.419 . S
C671 C672 1.363 . S
C671 H674 0.929 . S
C672 C671 1.363 . S
C672 C678 1.428 . S
H673 C669 0.930 . S
H674 C671 0.929 . S
S675 N676 1.613 . S
S675 N677 1.610 . S
N676 S675 1.613 . S
N676 C679 1.350 . S
N677 S675 1.610 . S
N677 C678 1.351 . S
C678 C672 1.428 . S
C678 N677 1.351 . S
C678 C679 1.434 . S
C679 C670 1.429 . S
C679 N676 1.350 . S
C679 C678 1.434 . S
C680 C681 1.369 . S
C680 C682 1.419 . S
C680 H684 0.930 . S
C681 C680 1.369 . S
C681 C690 1.429 . S
C682 C680 1.419 . S
C682 C683 1.363 . S
C682 H685 0.929 . S
C683 C682 1.363 . S
C683 C689 1.428 . S
H684 C680 0.930 . S
H685 C682 0.929 . S
S686 N687 1.613 . S
S686 N688 1.610 . S
N687 S686 1.613 . S
N687 C690 1.350 . S
N688 S686 1.610 . S
N688 C689 1.351 . S
C689 C683 1.428 . S
C689 N688 1.351 . S
C689 C690 1.434 . S
C690 C681 1.429 . S
C690 N687 1.350 . S
C690 C689 1.434 . S
C691 C692 1.369 . S
C691 C693 1.419 . S
C691 H695 0.930 . S
C692 C691 1.369 . S
C692 C701 1.429 . S
C693 C691 1.419 . S
C693 C694 1.363 . S
C693 H696 0.929 . S
C694 C693 1.363 . S
C694 C700 1.428 . S
H695 C691 0.930 . S
H696 C693 0.929 . S
S697 N698 1.613 . S
S697 N699 1.610 . S
N698 S697 1.613 . S
N698 C701 1.350 . S
N699 S697 1.610 . S
N699 C700 1.351 . S
C700 C694 1.428 . S
C700 N699 1.351 . S
C700 C701 1.434 . S
C701 C692 1.429 . S
C701 N698 1.350 . S
C701 C700 1.434 . S
C702 C703 1.369 . S
C702 C704 1.419 . S
C702 H706 0.930 . S
C703 C702 1.369 . S
C703 C712 1.429 . S
C704 C702 1.419 . S
C704 C705 1.363 . S
C704 H707 0.929 . S
C705 C704 1.363 . S
C705 C711 1.428 . S
H706 C702 0.930 . S
H707 C704 0.929 . S
S708 N709 1.613 1_554 S
S708 N710 1.610 . S
N709 S708 1.613 1_556 S
N709 C712 1.350 . S
N710 S708 1.610 . S
N710 C711 1.351 1_554 S
C711 C705 1.428 . S
C711 N710 1.351 1_556 S
C711 C712 1.434 . S
C712 C703 1.429 . S
C712 N709 1.350 . S
C712 C711 1.434 . S
C713 C714 1.369 . S
C713 C715 1.419 . S
C713 H717 0.930 . S
C714 C713 1.369 . S
C714 C723 1.429 . S
C715 C713 1.419 . S
C715 C716 1.363 . S
C715 H718 0.929 . S
C716 C715 1.363 . S
C716 C722 1.428 . S
H717 C713 0.930 . S
H718 C715 0.929 . S
S719 N720 1.613 . S
S719 N721 1.610 . S
N720 S719 1.613 . S
N720 C723 1.350 . S
N721 S719 1.610 . S
N721 C722 1.351 . S
C722 C716 1.428 . S
C722 N721 1.351 . S
C722 C723 1.434 . S
C723 C714 1.429 . S
C723 N720 1.350 . S
C723 C722 1.434 . S
C724 C725 1.369 . S
C724 C726 1.419 . S
C724 H728 0.930 . S
C725 C724 1.369 . S
C725 C734 1.429 . S
C726 C724 1.419 . S
C726 C727 1.363 . S
C726 H729 0.929 . S
C727 C726 1.363 . S
C727 C733 1.428 . S
H728 C724 0.930 . S
H729 C726 0.929 . S
S730 N731 1.613 1_554 S
S730 N732 1.610 . S
N731 S730 1.613 1_556 S
N731 C734 1.350 . S
N732 S730 1.610 . S
N732 C733 1.351 1_554 S
C733 C727 1.428 . S
C733 N732 1.351 1_556 S
C733 C734 1.434 . S
C734 C725 1.429 . S
C734 N731 1.350 . S
C734 C733 1.434 . S
C735 C736 1.369 . S
C735 C737 1.419 . S
C735 H739 0.930 . S
C736 C735 1.369 . S
C736 C745 1.429 . S
C737 C735 1.419 . S
C737 C738 1.363 . S
C737 H740 0.929 . S
C738 C737 1.363 . S
C738 C744 1.428 . S
H739 C735 0.930 . S
H740 C737 0.929 . S
S741 N742 1.613 . S
S741 N743 1.610 . S
N742 S741 1.613 . S
N742 C745 1.350 . S
N743 S741 1.610 . S
N743 C744 1.351 . S
C744 C738 1.428 . S
C744 N743 1.351 . S
C744 C745 1.434 . S
C745 C736 1.429 . S
C745 N742 1.350 . S
C745 C744 1.434 . S
C746 C747 1.369 . S
C746 C748 1.419 . S
C746 H750 0.930 . S
C747 C746 1.369 . S
C747 C756 1.429 . S
C748 C746 1.419 . S
C748 C749 1.363 . S
C748 H751 0.929 . S
C749 C748 1.363 . S
C749 C755 1.428 . S
H750 C746 0.930 . S
H751 C748 0.929 . S
S752 N753 1.613 . S
S752 N754 1.610 . S
N753 S752 1.613 . S
N753 C756 1.350 . S
N754 S752 1.610 . S
N754 C755 1.351 . S
C755 C749 1.428 . S
C755 N754 1.351 . S
C755 C756 1.434 . S
C756 C747 1.429 . S
C756 N753 1.350 . S
C756 C755 1.434 . S
C757 C758 1.369 . S
C757 C759 1.419 . S
C757 H761 0.930 . S
C758 C757 1.369 . S
C758 C767 1.429 . S
C759 C757 1.419 . S
C759 C760 1.363 . S
C759 H762 0.929 . S
C760 C759 1.363 . S
C760 C766 1.428 . S
H761 C757 0.930 . S
H762 C759 0.929 . S
S763 N764 1.613 . S
S763 N765 1.610 . S
N764 S763 1.613 . S
N764 C767 1.350 . S
N765 S763 1.610 . S
N765 C766 1.351 . S
C766 C760 1.428 . S
C766 N765 1.351 . S
C766 C767 1.434 . S
C767 C758 1.429 . S
C767 N764 1.350 . S
C767 C766 1.434 . S
C768 C769 1.369 . S
C768 C770 1.419 . S
C768 H772 0.930 1_554 S
C769 C768 1.369 . S
C769 C778 1.429 . S
C770 C768 1.419 . S
C770 C771 1.363 . S
C770 H773 0.929 . S
C771 C770 1.363 . S
C771 C777 1.428 . S
H772 C768 0.930 1_556 S
H773 C770 0.929 . S
S774 N775 1.613 . S
S774 N776 1.610 . S
N775 S774 1.613 . S
N775 C778 1.350 . S
N776 S774 1.610 . S
N776 C777 1.351 . S
C777 C771 1.428 . S
C777 N776 1.351 . S
C777 C778 1.434 . S
C778 C769 1.429 . S
C778 N775 1.350 . S
C778 C777 1.434 . S
C779 C780 1.369 . S
C779 C781 1.419 . S
C779 H783 0.930 . S
C780 C779 1.369 . S
C780 C789 1.429 . S
C781 C779 1.419 . S
C781 C782 1.363 . S
C781 H784 0.929 . S
C782 C781 1.363 . S
C782 C788 1.428 . S
H783 C779 0.930 . S
H784 C781 0.929 . S
S785 N786 1.613 . S
S785 N787 1.610 . S
N786 S785 1.613 . S
N786 C789 1.350 . S
N787 S785 1.610 . S
N787 C788 1.351 . S
C788 C782 1.428 . S
C788 N787 1.351 . S
C788 C789 1.434 . S
C789 C780 1.429 . S
C789 N786 1.350 . S
C789 C788 1.434 . S
C790 C791 1.369 . S
C790 C792 1.419 . S
C790 H794 0.930 1_554 S
C791 C790 1.369 . S
C791 C800 1.429 . S
C792 C790 1.419 . S
C792 C793 1.363 . S
C792 H795 0.929 . S
C793 C792 1.363 . S
C793 C799 1.428 . S
H794 C790 0.930 1_556 S
H795 C792 0.929 . S
S796 N797 1.613 . S
S796 N798 1.610 . S
N797 S796 1.613 . S
N797 C800 1.350 . S
N798 S796 1.610 . S
N798 C799 1.351 . S
C799 C793 1.428 . S
C799 N798 1.351 . S
C799 C800 1.434 . S
C800 C791 1.429 . S
C800 N797 1.350 . S
C800 C799 1.434 . S
C801 C802 1.369 . S
C801 C803 1.419 . S
C801 H805 0.930 . S
C802 C801 1.369 . S
C802 C811 1.429 . S
C803 C801 1.419 . S
C803 C804 1.363 . S
C803 H806 0.929 . S
C804 C803 1.363 . S
C804 C810 1.428 . S
H805 C801 0.930 . S
H806 C803 0.929 . S
S807 N808 1.613 . S
S807 N809 1.610 . S
N808 S807 1.613 . S
N808 C811 1.350 . S
N809 S807 1.610 . S
N809 C810 1.351 . S
C810 C804 1.428 . S
C810 N809 1.351 . S
C810 C811 1.434 . S
C811 C802 1.429 . S
C811 N808 1.350 . S
C811 C810 1.434 . S
C812 C813 1.369 . S
C812 C814 1.419 . S
C812 H816 0.930 . S
C813 C812 1.369 . S
C813 C822 1.429 . S
C814 C812 1.419 . S
C814 C815 1.363 . S
C814 H817 0.929 . S
C815 C814 1.363 . S
C815 C821 1.428 . S
H816 C812 0.930 . S
H817 C814 0.929 . S
S818 N819 1.613 . S
S818 N820 1.610 . S
N819 S818 1.613 . S
N819 C822 1.350 . S
N820 S818 1.610 . S
N820 C821 1.351 . S
C821 C815 1.428 . S
C821 N820 1.351 . S
C821 C822 1.434 . S
C822 C813 1.429 . S
C822 N819 1.350 . S
C822 C821 1.434 . S
C823 C824 1.369 . S
C823 C825 1.419 . S
C823 H827 0.930 . S
C824 C823 1.369 . S
C824 C833 1.429 . S
C825 C823 1.419 . S
C825 C826 1.363 . S
C825 H828 0.929 . S
C826 C825 1.363 . S
C826 C832 1.428 . S
H827 C823 0.930 . S
H828 C825 0.929 . S
S829 N830 1.613 . S
S829 N831 1.610 . S
N830 S829 1.613 . S
N830 C833 1.350 . S
N831 S829 1.610 . S
N831 C832 1.351 . S
C832 C826 1.428 . S
C832 N831 1.351 . S
C832 C833 1.434 . S
C833 C824 1.429 . S
C833 N830 1.350 . S
C833 C832 1.434 . S
C834 C835 1.369 . S
C834 C836 1.419 . S
C834 H838 0.930 . S
C835 C834 1.369 . S
C835 C844 1.429 . S
C836 C834 1.419 . S
C836 C837 1.363 . S
C836 H839 0.929 . S
C837 C836 1.363 . S
C837 C843 1.428 . S
H838 C834 0.930 . S
H839 C836 0.929 . S
S840 N841 1.613 . S
S840 N842 1.610 . S
N841 S840 1.613 . S
N841 C844 1.350 . S
N842 S840 1.610 . S
N842 C843 1.351 . S
C843 C837 1.428 . S
C843 N842 1.351 . S
C843 C844 1.434 . S
C844 C835 1.429 . S
C844 N841 1.350 . S
C844 C843 1.434 . S
C845 C846 1.369 . S
C845 C847 1.419 . S
C845 H849 0.930 . S
C846 C845 1.369 . S
C846 C855 1.429 . S
C847 C845 1.419 . S
C847 C848 1.363 . S
C847 H850 0.929 . S
C848 C847 1.363 . S
C848 C854 1.428 . S
H849 C845 0.930 . S
H850 C847 0.929 . S
S851 N852 1.613 . S
S851 N853 1.610 . S
N852 S851 1.613 . S
N852 C855 1.350 . S
N853 S851 1.610 . S
N853 C854 1.351 . S
C854 C848 1.428 . S
C854 N853 1.351 . S
C854 C855 1.434 . S
C855 C846 1.429 . S
C855 N852 1.350 . S
C855 C854 1.434 . S
C856 C857 1.369 . S
C856 C858 1.419 . S
C856 H860 0.930 . S
C857 C856 1.369 . S
C857 C866 1.429 . S
C858 C856 1.419 . S
C858 C859 1.363 . S
C858 H861 0.929 . S
C859 C858 1.363 . S
C859 C865 1.428 . S
H860 C856 0.930 . S
H861 C858 0.929 . S
S862 N863 1.613 . S
S862 N864 1.610 . S
N863 S862 1.613 . S
N863 C866 1.350 . S
N864 S862 1.610 . S
N864 C865 1.351 . S
C865 C859 1.428 . S
C865 N864 1.351 . S
C865 C866 1.434 . S
C866 C857 1.429 . S
C866 N863 1.350 . S
C866 C865 1.434 . S
C867 C868 1.369 . S
C867 C869 1.419 . S
C867 H871 0.930 . S
C868 C867 1.369 . S
C868 C877 1.429 . S
C869 C867 1.419 . S
C869 C870 1.363 1_556 S
C869 H872 0.929 1_556 S
C870 C869 1.363 1_554 S
C870 C876 1.428 1_554 S
H871 C867 0.930 . S
H872 C869 0.929 1_554 S
S873 N874 1.613 . S
S873 N875 1.610 1_556 S
N874 S873 1.613 . S
N874 C877 1.350 . S
N875 S873 1.610 1_554 S
N875 C876 1.351 1_554 S
C876 C870 1.428 1_556 S
C876 N875 1.351 1_556 S
C876 C877 1.434 . S
C877 C868 1.429 . S
C877 N874 1.350 . S
C877 C876 1.434 . S
C878 C879 1.369 . S
C878 C880 1.419 1_556 S
C878 H882 0.930 1_556 S
C879 C878 1.369 . S
C879 C888 1.429 . S
C880 C878 1.419 1_554 S
C880 C881 1.363 . S
C880 H883 0.929 . S
C881 C880 1.363 . S
C881 C887 1.428 1_554 S
H882 C878 0.930 1_554 S
H883 C880 0.929 . S
S884 N885 1.613 . S
S884 N886 1.610 . S
N885 S884 1.613 . S
N885 C888 1.350 . S
N886 S884 1.610 . S
N886 C887 1.351 . S
C887 C881 1.428 1_556 S
C887 N886 1.351 . S
C887 C888 1.434 . S
C888 C879 1.429 . S
C888 N885 1.350 . S
C888 C887 1.434 . S
C889 C890 1.369 . S
C889 C891 1.419 . S
C889 H893 0.930 . S
C890 C889 1.369 . S
C890 C899 1.429 1_556 S
C891 C889 1.419 . S
C891 C892 1.363 1_556 S
C891 H894 0.929 . S
C892 C891 1.363 1_554 S
C892 C898 1.428 . S
H893 C889 0.930 . S
H894 C891 0.929 . S
S895 N896 1.613 . S
S895 N897 1.610 . S
N896 S895 1.613 . S
N896 C899 1.350 . S
N897 S895 1.610 . S
N897 C898 1.351 . S
C898 C892 1.428 . S
C898 N897 1.351 . S
C898 C899 1.434 . S
C899 C890 1.429 1_554 S
C899 N896 1.350 . S
C899 C898 1.434 . S
C900 C901 1.369 . S
C900 C902 1.419 . S
C900 H904 0.930 . S
C901 C900 1.369 . S
C901 C910 1.429 . S
C902 C900 1.419 . S
C902 C903 1.363 . S
C902 H905 0.929 . S
C903 C902 1.363 . S
C903 C909 1.428 . S
H904 C900 0.930 . S
H905 C902 0.929 . S
S906 N907 1.613 . S
S906 N908 1.610 . S
N907 S906 1.613 . S
N907 C910 1.350 . S
N908 S906 1.610 . S
N908 C909 1.351 . S
C909 C903 1.428 . S
C909 N908 1.351 . S
C909 C910 1.434 . S
C910 C901 1.429 . S
C910 N907 1.350 . S
C910 C909 1.434 . S
C911 C912 1.369 . S
C911 C913 1.419 . S
C911 H915 0.930 . S
C912 C911 1.369 . S
C912 C921 1.429 . S
C913 C911 1.419 . S
C913 C914 1.363 . S
C913 H916 0.929 . S
C914 C913 1.363 . S
C914 C920 1.428 . S
H915 C911 0.930 . S
H916 C913 0.929 . S
S917 N918 1.613 . S
S917 N919 1.610 . S
N918 S917 1.613 . S
N918 C921 1.350 . S
N919 S917 1.610 . S
N919 C920 1.351 . S
C920 C914 1.428 . S
C920 N919 1.351 . S
C920 C921 1.434 . S
C921 C912 1.429 . S
C921 N918 1.350 . S
C921 C920 1.434 . S
C922 C923 1.369 . S
C922 C924 1.419 . S
C922 H926 0.930 . S
C923 C922 1.369 . S
C923 C932 1.429 . S
C924 C922 1.419 . S
C924 C925 1.363 . S
C924 H927 0.929 . S
C925 C924 1.363 . S
C925 C931 1.428 . S
H926 C922 0.930 . S
H927 C924 0.929 . S
S928 N929 1.613 . S
S928 N930 1.610 . S
N929 S928 1.613 . S
N929 C932 1.350 . S
N930 S928 1.610 . S
N930 C931 1.351 . S
C931 C925 1.428 . S
C931 N930 1.351 . S
C931 C932 1.434 . S
C932 C923 1.429 . S
C932 N929 1.350 . S
C932 C931 1.434 . S
C933 C934 1.369 . S
C933 C935 1.419 . S
C933 H937 0.930 . S
C934 C933 1.369 . S
C934 C943 1.429 . S
C935 C933 1.419 . S
C935 C936 1.363 . S
C935 H938 0.929 . S
C936 C935 1.363 . S
C936 C942 1.428 . S
H937 C933 0.930 . S
H938 C935 0.929 . S
S939 N940 1.613 . S
S939 N941 1.610 . S
N940 S939 1.613 . S
N940 C943 1.350 . S
N941 S939 1.610 . S
N941 C942 1.351 . S
C942 C936 1.428 . S
C942 N941 1.351 . S
C942 C943 1.434 . S
C943 C934 1.429 . S
C943 N940 1.350 . S
C943 C942 1.434 . S
C944 C945 1.369 . S
C944 C946 1.419 . S
C944 H948 0.930 . S
C945 C944 1.369 . S
C945 C954 1.429 . S
C946 C944 1.419 . S
C946 C947 1.363 . S
C946 H949 0.929 . S
C947 C946 1.363 . S
C947 C953 1.428 . S
H948 C944 0.930 . S
H949 C946 0.929 . S
S950 N951 1.613 . S
S950 N952 1.610 . S
N951 S950 1.613 . S
N951 C954 1.350 . S
N952 S950 1.610 . S
N952 C953 1.351 . S
C953 C947 1.428 . S
C953 N952 1.351 . S
C953 C954 1.434 . S
C954 C945 1.429 . S
C954 N951 1.350 . S
C954 C953 1.434 . S
C955 C956 1.369 . S
C955 C957 1.419 . S
C955 H959 0.930 . S
C956 C955 1.369 . S
C956 C965 1.429 . S
C957 C955 1.419 . S
C957 C958 1.363 . S
C957 H960 0.929 . S
C958 C957 1.363 . S
C958 C964 1.428 . S
H959 C955 0.930 . S
H960 C957 0.929 . S
S961 N962 1.613 . S
S961 N963 1.610 . S
N962 S961 1.613 . S
N962 C965 1.350 . S
N963 S961 1.610 . S
N963 C964 1.351 . S
C964 C958 1.428 . S
C964 N963 1.351 . S
C964 C965 1.434 . S
C965 C956 1.429 . S
C965 N962 1.350 . S
C965 C964 1.434 . S
C966 C967 1.369 . S
C966 C968 1.419 . S
C966 H970 0.930 . S
C967 C966 1.369 . S
C967 C976 1.429 . S
C968 C966 1.419 . S
C968 C969 1.363 . S
C968 H971 0.929 . S
C969 C968 1.363 . S
C969 C975 1.428 . S
H970 C966 0.930 . S
H971 C968 0.929 . S
S972 N973 1.613 . S
S972 N974 1.610 . S
N973 S972 1.613 . S
N973 C976 1.350 . S
N974 S972 1.610 . S
N974 C975 1.351 . S
C975 C969 1.428 . S
C975 N974 1.351 . S
C975 C976 1.434 . S
C976 C967 1.429 . S
C976 N973 1.350 . S
C976 C975 1.434 . S
C977 C978 1.369 . S
C977 C979 1.419 . S
C977 H981 0.930 . S
C978 C977 1.369 . S
C978 C987 1.429 . S
C979 C977 1.419 . S
C979 C980 1.363 . S
C979 H982 0.929 . S
C980 C979 1.363 . S
C980 C986 1.428 . S
H981 C977 0.930 . S
H982 C979 0.929 . S
S983 N984 1.613 . S
S983 N985 1.610 . S
N984 S983 1.613 . S
N984 C987 1.350 . S
N985 S983 1.610 . S
N985 C986 1.351 . S
C986 C980 1.428 . S
C986 N985 1.351 . S
C986 C987 1.434 . S
C987 C978 1.429 . S
C987 N984 1.350 . S
C987 C986 1.434 . S
C988 C989 1.369 . S
C988 C990 1.419 . S
C988 H992 0.930 . S
C989 C988 1.369 . S
C989 C998 1.429 . S
C990 C988 1.419 . S
C990 C991 1.363 . S
C990 H993 0.929 . S
C991 C990 1.363 . S
C991 C997 1.428 . S
H992 C988 0.930 . S
H993 C990 0.929 . S
S994 N995 1.613 . S
S994 N996 1.610 . S
N995 S994 1.613 . S
N995 C998 1.350 . S
N996 S994 1.610 . S
N996 C997 1.351 . S
C997 C991 1.428 . S
C997 N996 1.351 . S
C997 C998 1.434 . S
C998 C989 1.429 . S
C998 N995 1.350 . S
C998 C997 1.434 . S
C999 C1000 1.369 . S
C999 C1001 1.419 . S
C999 H1003 0.930 . S
C1000 C999 1.369 . S
C1000 C1009 1.429 . S
C1001 C999 1.419 . S
C1001 C1002 1.363 . S
C1001 H1004 0.929 . S
C1002 C1001 1.363 . S
C1002 C1008 1.428 . S
H1003 C999 0.930 . S
H1004 C1001 0.929 . S
S1005 N1006 1.613 . S
S1005 N1007 1.610 . S
N1006 S1005 1.613 . S
N1006 C1009 1.350 . S
N1007 S1005 1.610 . S
N1007 C1008 1.351 . S
C1008 C1002 1.428 . S
C1008 N1007 1.351 . S
C1008 C1009 1.434 . S
C1009 C1000 1.429 . S
C1009 N1006 1.350 . S
C1009 C1008 1.434 . S
C1010 C1011 1.369 . S
C1010 C1012 1.419 . S
C1010 H1014 0.930 . S
C1011 C1010 1.369 . S
C1011 C1020 1.429 . S
C1012 C1010 1.419 . S
C1012 C1013 1.363 . S
C1012 H1015 0.929 . S
C1013 C1012 1.363 . S
C1013 C1019 1.428 . S
H1014 C1010 0.930 . S
H1015 C1012 0.929 . S
S1016 N1017 1.613 . S
S1016 N1018 1.610 . S
N1017 S1016 1.613 . S
N1017 C1020 1.350 . S
N1018 S1016 1.610 . S
N1018 C1019 1.351 . S
C1019 C1013 1.428 . S
C1019 N1018 1.351 . S
C1019 C1020 1.434 . S
C1020 C1011 1.429 . S
C1020 N1017 1.350 . S
C1020 C1019 1.434 . S
C1021 C1022 1.369 . S
C1021 C1023 1.419 . S
C1021 H1025 0.930 . S
C1022 C1021 1.369 . S
C1022 C1031 1.429 . S
C1023 C1021 1.419 . S
C1023 C1024 1.363 . S
C1023 H1026 0.929 . S
C1024 C1023 1.363 . S
C1024 C1030 1.428 . S
H1025 C1021 0.930 . S
H1026 C1023 0.929 . S
S1027 N1028 1.613 . S
S1027 N1029 1.610 . S
N1028 S1027 1.613 . S
N1028 C1031 1.350 . S
N1029 S1027 1.610 . S
N1029 C1030 1.351 . S
C1030 C1024 1.428 . S
C1030 N1029 1.351 . S
C1030 C1031 1.434 . S
C1031 C1022 1.429 . S
C1031 N1028 1.350 . S
C1031 C1030 1.434 . S
C1032 C1033 1.369 . S
C1032 C1034 1.419 . S
C1032 H1036 0.930 . S
C1033 C1032 1.369 . S
C1033 C1042 1.429 . S
C1034 C1032 1.419 . S
C1034 C1035 1.363 . S
C1034 H1037 0.929 . S
C1035 C1034 1.363 . S
C1035 C1041 1.428 . S
H1036 C1032 0.930 . S
H1037 C1034 0.929 . S
S1038 N1039 1.613 1_554 S
S1038 N1040 1.610 1_554 S
N1039 S1038 1.613 1_556 S
N1039 C1042 1.350 . S
N1040 S1038 1.610 1_556 S
N1040 C1041 1.351 . S
C1041 C1035 1.428 . S
C1041 N1040 1.351 . S
C1041 C1042 1.434 . S
C1042 C1033 1.429 . S
C1042 N1039 1.350 . S
C1042 C1041 1.434 . S
C1043 C1044 1.369 . S
C1043 C1045 1.419 . S
C1043 H1047 0.930 . S
C1044 C1043 1.369 . S
C1044 C1053 1.429 . S
C1045 C1043 1.419 . S
C1045 C1046 1.363 . S
C1045 H1048 0.929 . S
C1046 C1045 1.363 . S
C1046 C1052 1.428 . S
H1047 C1043 0.930 . S
H1048 C1045 0.929 . S
S1049 N1050 1.613 1_554 S
S1049 N1051 1.610 1_554 S
N1050 S1049 1.613 1_556 S
N1050 C1053 1.350 . S
N1051 S1049 1.610 1_556 S
N1051 C1052 1.351 . S
C1052 C1046 1.428 . S
C1052 N1051 1.351 . S
C1052 C1053 1.434 . S
C1053 C1044 1.429 . S
C1053 N1050 1.350 . S
C1053 C1052 1.434 . S
C1054 C1055 1.369 . S
C1054 C1056 1.419 . S
C1054 H1058 0.930 . S
C1055 C1054 1.369 . S
C1055 C1064 1.429 . S
C1056 C1054 1.419 . S
C1056 C1057 1.363 . S
C1056 H1059 0.929 . S
C1057 C1056 1.363 . S
C1057 C1063 1.428 . S
H1058 C1054 0.930 . S
H1059 C1056 0.929 . S
S1060 N1061 1.613 . S
S1060 N1062 1.610 . S
N1061 S1060 1.613 . S
N1061 C1064 1.350 . S
N1062 S1060 1.610 . S
N1062 C1063 1.351 . S
C1063 C1057 1.428 . S
C1063 N1062 1.351 . S
C1063 C1064 1.434 . S
C1064 C1055 1.429 . S
C1064 N1061 1.350 . S
C1064 C1063 1.434 . S
C1065 C1066 1.369 1_554 S
C1065 C1067 1.419 . S
C1065 H1069 0.930 1_554 S
C1066 C1065 1.369 1_556 S
C1066 C1075 1.429 1_556 S
C1067 C1065 1.419 . S
C1067 C1068 1.363 . S
C1067 H1070 0.929 . S
C1068 C1067 1.363 . S
C1068 C1074 1.428 . S
H1069 C1065 0.930 1_556 S
H1070 C1067 0.929 . S
S1071 N1072 1.613 1_554 S
S1071 N1073 1.610 . S
N1072 S1071 1.613 1_556 S
N1072 C1075 1.350 1_556 S
N1073 S1071 1.610 . S
N1073 C1074 1.351 . S
C1074 C1068 1.428 . S
C1074 N1073 1.351 . S
C1074 C1075 1.434 . S
C1075 C1066 1.429 1_554 S
C1075 N1072 1.350 1_554 S
C1075 C1074 1.434 . S
C1076 C1077 1.369 1_554 S
C1076 C1078 1.419 . S
C1076 H1080 0.930 . S
C1077 C1076 1.369 1_556 S
C1077 C1086 1.429 . S
C1078 C1076 1.419 . S
C1078 C1079 1.363 . S
C1078 H1081 0.929 . S
C1079 C1078 1.363 . S
C1079 C1085 1.428 1_554 S
H1080 C1076 0.930 . S
H1081 C1078 0.929 . S
S1082 N1083 1.613 . S
S1082 N1084 1.610 . S
N1083 S1082 1.613 . S
N1083 C1086 1.350 . S
N1084 S1082 1.610 . S
N1084 C1085 1.351 . S
C1085 C1079 1.428 1_556 S
C1085 N1084 1.351 . S
C1085 C1086 1.434 . S
C1086 C1077 1.429 . S
C1086 N1083 1.350 . S
C1086 C1085 1.434 . S
C1087 C1088 1.369 1_554 S
C1087 C1089 1.419 . S
C1087 H1091 0.930 1_554 S
C1088 C1087 1.369 1_556 S
C1088 C1097 1.429 1_556 S
C1089 C1087 1.419 . S
C1089 C1090 1.363 . S
C1089 H1092 0.929 . S
C1090 C1089 1.363 . S
C1090 C1096 1.428 . S
H1091 C1087 0.930 1_556 S
H1092 C1089 0.929 . S
S1093 N1094 1.613 1_554 S
S1093 N1095 1.610 . S
N1094 S1093 1.613 1_556 S
N1094 C1097 1.350 1_556 S
N1095 S1093 1.610 . S
N1095 C1096 1.351 . S
C1096 C1090 1.428 . S
C1096 N1095 1.351 . S
C1096 C1097 1.434 . S
C1097 C1088 1.429 1_554 S
C1097 N1094 1.350 1_554 S
C1097 C1096 1.434 . S
C1098 C1099 1.369 . S
C1098 C1100 1.419 . S
C1098 H1102 0.930 . S
C1099 C1098 1.369 . S
C1099 C1108 1.429 . S
C1100 C1098 1.419 . S
C1100 C1101 1.363 . S
C1100 H1103 0.929 1_556 S
C1101 C1100 1.363 . S
C1101 C1107 1.428 . S
H1102 C1098 0.930 . S
H1103 C1100 0.929 1_554 S
S1104 N1105 1.613 . S
S1104 N1106 1.610 . S
N1105 S1104 1.613 . S
N1105 C1108 1.350 . S
N1106 S1104 1.610 . S
N1106 C1107 1.351 . S
C1107 C1101 1.428 . S
C1107 N1106 1.351 . S
C1107 C1108 1.434 . S
C1108 C1099 1.429 . S
C1108 N1105 1.350 . S
C1108 C1107 1.434 . S
C1109 C1110 1.369 . S
C1109 C1111 1.419 . S
C1109 H1113 0.930 . S
C1110 C1109 1.369 . S
C1110 C1119 1.429 . S
C1111 C1109 1.419 . S
C1111 C1112 1.363 . S
C1111 H1114 0.929 . S
C1112 C1111 1.363 . S
C1112 C1118 1.428 . S
H1113 C1109 0.930 . S
H1114 C1111 0.929 . S
S1115 N1116 1.613 . S
S1115 N1117 1.610 1_554 S
N1116 S1115 1.613 . S
N1116 C1119 1.350 1_554 S
N1117 S1115 1.610 1_556 S
N1117 C1118 1.351 . S
C1118 C1112 1.428 . S
C1118 N1117 1.351 . S
C1118 C1119 1.434 . S
C1119 C1110 1.429 . S
C1119 N1116 1.350 1_556 S
C1119 C1118 1.434 . S
C1120 C1121 1.369 . S
C1120 C1122 1.419 . S
C1120 H1124 0.930 . S
C1121 C1120 1.369 . S
C1121 C1130 1.429 . S
C1122 C1120 1.419 . S
C1122 C1123 1.363 . S
C1122 H1125 0.929 . S
C1123 C1122 1.363 . S
C1123 C1129 1.428 . S
H1124 C1120 0.930 . S
H1125 C1122 0.929 . S
S1126 N1127 1.613 . S
S1126 N1128 1.610 . S
N1127 S1126 1.613 . S
N1127 C1130 1.350 . S
N1128 S1126 1.610 . S
N1128 C1129 1.351 . S
C1129 C1123 1.428 . S
C1129 N1128 1.351 . S
C1129 C1130 1.434 . S
C1130 C1121 1.429 . S
C1130 N1127 1.350 . S
C1130 C1129 1.434 . S
C1131 C1132 1.369 . S
C1131 C1133 1.419 . S
C1131 H1135 0.930 . S
C1132 C1131 1.369 . S
C1132 C1141 1.429 . S
C1133 C1131 1.419 . S
C1133 C1134 1.363 . S
C1133 H1136 0.929 . S
C1134 C1133 1.363 . S
C1134 C1140 1.428 . S
H1135 C1131 0.930 . S
H1136 C1133 0.929 . S
S1137 N1138 1.613 . S
S1137 N1139 1.610 . S
N1138 S1137 1.613 . S
N1138 C1141 1.350 . S
N1139 S1137 1.610 . S
N1139 C1140 1.351 . S
C1140 C1134 1.428 . S
C1140 N1139 1.351 . S
C1140 C1141 1.434 . S
C1141 C1132 1.429 . S
C1141 N1138 1.350 . S
C1141 C1140 1.434 . S
C1142 C1143 1.369 . S
C1142 C1144 1.419 . S
C1142 H1146 0.930 . S
C1143 C1142 1.369 . S
C1143 C1152 1.429 . S
C1144 C1142 1.419 . S
C1144 C1145 1.363 . S
C1144 H1147 0.929 . S
C1145 C1144 1.363 . S
C1145 C1151 1.428 . S
H1146 C1142 0.930 . S
H1147 C1144 0.929 . S
S1148 N1149 1.613 . S
S1148 N1150 1.610 . S
N1149 S1148 1.613 . S
N1149 C1152 1.350 . S
N1150 S1148 1.610 . S
N1150 C1151 1.351 . S
C1151 C1145 1.428 . S
C1151 N1150 1.351 . S
C1151 C1152 1.434 . S
C1152 C1143 1.429 . S
C1152 N1149 1.350 . S
C1152 C1151 1.434 . S
C1153 C1154 1.369 . S
C1153 C1155 1.419 . S
C1153 H1157 0.930 . S
C1154 C1153 1.369 . S
C1154 C1163 1.429 . S
C1155 C1153 1.419 . S
C1155 C1156 1.363 . S
C1155 H1158 0.929 . S
C1156 C1155 1.363 . S
C1156 C1162 1.428 . S
H1157 C1153 0.930 . S
H1158 C1155 0.929 . S
S1159 N1160 1.613 . S
S1159 N1161 1.610 . S
N1160 S1159 1.613 . S
N1160 C1163 1.350 . S
N1161 S1159 1.610 . S
N1161 C1162 1.351 . S
C1162 C1156 1.428 . S
C1162 N1161 1.351 . S
C1162 C1163 1.434 . S
C1163 C1154 1.429 . S
C1163 N1160 1.350 . S
C1163 C1162 1.434 . S
C1164 C1165 1.369 . S
C1164 C1166 1.419 . S
C1164 H1168 0.930 . S
C1165 C1164 1.369 . S
C1165 C1174 1.429 . S
C1166 C1164 1.419 . S
C1166 C1167 1.363 . S
C1166 H1169 0.929 . S
C1167 C1166 1.363 . S
C1167 C1173 1.428 . S
H1168 C1164 0.930 . S
H1169 C1166 0.929 . S
S1170 N1171 1.613 1_554 S
S1170 N1172 1.610 . S
N1171 S1170 1.613 1_556 S
N1171 C1174 1.350 1_556 S
N1172 S1170 1.610 . S
N1172 C1173 1.351 . S
C1173 C1167 1.428 . S
C1173 N1172 1.351 . S
C1173 C1174 1.434 . S
C1174 C1165 1.429 . S
C1174 N1171 1.350 1_554 S
C1174 C1173 1.434 . S
C1175 C1176 1.369 . S
C1175 C1177 1.419 . S
C1175 H1179 0.930 . S
C1176 C1175 1.369 . S
C1176 C1185 1.429 . S
C1177 C1175 1.419 . S
C1177 C1178 1.363 . S
C1177 H1180 0.929 . S
C1178 C1177 1.363 . S
C1178 C1184 1.428 . S
H1179 C1175 0.930 . S
H1180 C1177 0.929 . S
S1181 N1182 1.613 1_556 S
S1181 N1183 1.610 . S
N1182 S1181 1.613 1_554 S
N1182 C1185 1.350 . S
N1183 S1181 1.610 . S
N1183 C1184 1.351 1_556 S
C1184 C1178 1.428 . S
C1184 N1183 1.351 1_554 S
C1184 C1185 1.434 . S
C1185 C1176 1.429 . S
C1185 N1182 1.350 . S
C1185 C1184 1.434 . S
C1186 C1187 1.369 . S
C1186 C1188 1.419 . S
C1186 H1190 0.930 . S
C1187 C1186 1.369 . S
C1187 C1196 1.429 . S
C1188 C1186 1.419 . S
C1188 C1189 1.363 . S
C1188 H1191 0.929 . S
C1189 C1188 1.363 . S
C1189 C1195 1.428 . S
H1190 C1186 0.930 . S
H1191 C1188 0.929 . S
S1192 N1193 1.613 . S
S1192 N1194 1.610 . S
N1193 S1192 1.613 . S
N1193 C1196 1.350 . S
N1194 S1192 1.610 . S
N1194 C1195 1.351 . S
C1195 C1189 1.428 . S
C1195 N1194 1.351 . S
C1195 C1196 1.434 . S
C1196 C1187 1.429 . S
C1196 N1193 1.350 . S
C1196 C1195 1.434 . S
C1197 C1198 1.369 . S
C1197 C1199 1.419 . S
C1197 H1201 0.930 . S
C1198 C1197 1.369 . S
C1198 C1207 1.429 . S
C1199 C1197 1.419 . S
C1199 C1200 1.363 . S
C1199 H1202 0.929 . S
C1200 C1199 1.363 . S
C1200 C1206 1.428 . S
H1201 C1197 0.930 . S
H1202 C1199 0.929 . S
S1203 N1204 1.613 . S
S1203 N1205 1.610 . S
N1204 S1203 1.613 . S
N1204 C1207 1.350 . S
N1205 S1203 1.610 . S
N1205 C1206 1.351 . S
C1206 C1200 1.428 . S
C1206 N1205 1.351 . S
C1206 C1207 1.434 . S
C1207 C1198 1.429 . S
C1207 N1204 1.350 . S
C1207 C1206 1.434 . S
C1208 C1209 1.369 . S
C1208 C1210 1.419 . S
C1208 H1212 0.930 . S
C1209 C1208 1.369 . S
C1209 C1218 1.429 . S
C1210 C1208 1.419 . S
C1210 C1211 1.363 . S
C1210 H1213 0.929 . S
C1211 C1210 1.363 . S
C1211 C1217 1.428 . S
H1212 C1208 0.930 . S
H1213 C1210 0.929 . S
S1214 N1215 1.613 . S
S1214 N1216 1.610 . S
N1215 S1214 1.613 . S
N1215 C1218 1.350 . S
N1216 S1214 1.610 . S
N1216 C1217 1.351 . S
C1217 C1211 1.428 . S
C1217 N1216 1.351 . S
C1217 C1218 1.434 . S
C1218 C1209 1.429 . S
C1218 N1215 1.350 . S
C1218 C1217 1.434 . S
C1219 C1220 1.369 . S
C1219 C1221 1.419 . S
C1219 H1223 0.930 . S
C1220 C1219 1.369 . S
C1220 C1229 1.429 . S
C1221 C1219 1.419 . S
C1221 C1222 1.363 . S
C1221 H1224 0.929 . S
C1222 C1221 1.363 . S
C1222 C1228 1.428 . S
H1223 C1219 0.930 . S
H1224 C1221 0.929 . S
S1225 N1226 1.613 . S
S1225 N1227 1.610 . S
N1226 S1225 1.613 . S
N1226 C1229 1.350 . S
N1227 S1225 1.610 . S
N1227 C1228 1.351 . S
C1228 C1222 1.428 . S
C1228 N1227 1.351 . S
C1228 C1229 1.434 . S
C1229 C1220 1.429 . S
C1229 N1226 1.350 . S
C1229 C1228 1.434 . S
C1230 C1231 1.369 . S
C1230 C1232 1.419 1_655 S
C1230 H1234 0.930 . S
C1231 C1230 1.369 . S
C1231 C1240 1.429 . S
C1232 C1230 1.419 1_455 S
C1232 C1233 1.363 . S
C1232 H1235 0.929 . S
C1233 C1232 1.363 . S
C1233 C1239 1.428 . S
H1234 C1230 0.930 . S
H1235 C1232 0.929 . S
S1236 N1237 1.613 1_455 S
S1236 N1238 1.610 . S
N1237 S1236 1.613 1_655 S
N1237 C1240 1.350 . S
N1238 S1236 1.610 . S
N1238 C1239 1.351 . S
C1239 C1233 1.428 . S
C1239 N1238 1.351 . S
C1239 C1240 1.434 1_455 S
C1240 C1231 1.429 . S
C1240 N1237 1.350 . S
C1240 C1239 1.434 1_655 S
C1241 C1242 1.369 . S
C1241 C1243 1.419 . S
C1241 H1245 0.930 . S
C1242 C1241 1.369 . S
C1242 C1251 1.429 . S
C1243 C1241 1.419 . S
C1243 C1244 1.363 . S
C1243 H1246 0.929 . S
C1244 C1243 1.363 . S
C1244 C1250 1.428 . S
H1245 C1241 0.930 . S
H1246 C1243 0.929 . S
S1247 N1248 1.613 . S
S1247 N1249 1.610 . S
N1248 S1247 1.613 . S
N1248 C1251 1.350 . S
N1249 S1247 1.610 . S
N1249 C1250 1.351 . S
C1250 C1244 1.428 . S
C1250 N1249 1.351 . S
C1250 C1251 1.434 . S
C1251 C1242 1.429 . S
C1251 N1248 1.350 . S
C1251 C1250 1.434 . S
C1252 C1253 1.369 . S
C1252 C1254 1.419 1_565 S
C1252 H1256 0.930 . S
C1253 C1252 1.369 . S
C1253 C1262 1.429 . S
C1254 C1252 1.419 1_545 S
C1254 C1255 1.363 . S
C1254 H1257 0.929 . S
C1255 C1254 1.363 . S
C1255 C1261 1.428 . S
H1256 C1252 0.930 . S
H1257 C1254 0.929 . S
S1258 N1259 1.613 . S
S1258 N1260 1.610 1_565 S
N1259 S1258 1.613 . S
N1259 C1262 1.350 . S
N1260 S1258 1.610 1_545 S
N1260 C1261 1.351 . S
C1261 C1255 1.428 . S
C1261 N1260 1.351 . S
C1261 C1262 1.434 1_545 S
C1262 C1253 1.429 . S
C1262 N1259 1.350 . S
C1262 C1261 1.434 1_565 S
C1263 C1264 1.331 1_565 S
C1263 C1265 1.463 . S
C1263 H1267 0.928 . S
C1264 C1263 1.331 1_545 S
C1264 C1273 1.429 . S
C1265 C1263 1.463 . S
C1265 C1266 1.363 . S
C1265 H1268 0.929 . S
C1266 C1265 1.363 . S
C1266 C1272 1.428 1_565 S
H1267 C1263 0.928 . S
H1268 C1265 0.929 . S
S1269 N1270 1.613 . S
S1269 N1271 1.610 . S
N1270 S1269 1.613 . S
N1270 C1273 1.350 . S
N1271 S1269 1.610 . S
N1271 C1272 1.351 . S
C1272 C1266 1.428 1_545 S
C1272 N1271 1.351 . S
C1272 C1273 1.434 . S
C1273 C1264 1.429 . S
C1273 N1270 1.350 . S
C1273 C1272 1.434 . S
C1274 C1275 1.370 1_655 S
C1274 C1276 1.417 . S
C1274 H1278 0.930 . S
C1275 C1274 1.370 1_455 S
C1275 C1284 1.429 . S
C1276 C1274 1.417 . S
C1276 C1277 1.363 . S
C1276 H1279 0.929 . S
C1277 C1276 1.363 . S
C1277 C1283 1.399 1_655 S
H1278 C1274 0.930 . S
H1279 C1276 0.929 . S
S1280 N1281 1.613 . S
S1280 N1282 1.610 . S
N1281 S1280 1.613 . S
N1281 C1284 1.350 . S
N1282 S1280 1.610 . S
N1282 C1283 1.347 . S
C1283 C1277 1.399 1_455 S
C1283 N1282 1.347 . S
C1283 C1284 1.476 . S
C1284 C1275 1.429 . S
C1284 N1281 1.350 . S
C1284 C1283 1.476 . S
C1285 C1286 1.369 . S
C1285 C1287 1.419 . S
C1285 H1289 0.930 . S
C1286 C1285 1.369 . S
C1286 C1295 1.429 . S
C1287 C1285 1.419 . S
C1287 C1288 1.363 . S
C1287 H1290 0.929 . S
C1288 C1287 1.363 . S
C1288 C1294 1.428 . S
H1289 C1285 0.930 . S
H1290 C1287 0.929 . S
S1291 N1292 1.613 . S
S1291 N1293 1.610 . S
N1292 S1291 1.613 . S
N1292 C1295 1.350 . S
N1293 S1291 1.610 . S
N1293 C1294 1.351 . S
C1294 C1288 1.428 . S
C1294 N1293 1.351 . S
C1294 C1295 1.434 . S
C1295 C1286 1.429 . S
C1295 N1292 1.350 . S
C1295 C1294 1.434 . S
C505 C81 1.328 . S
C507 C11 1.333 . S
C516 C25 1.329 . S
C518 C53 1.332 . S
C527 C67 1.332 . S
C529 C39 1.330 . S
C538 C95 1.339 . S
C540 C165 1.330 . S
C549 C109 1.338 . S
C551 C137 1.332 . S
C560 C151 1.329 . S
C562 C123 1.338 . S
C571 C249 1.327 . S
C573 C179 1.337 . S
C582 C193 1.339 . S
C584 C221 1.328 . S
C593 C235 1.339 . S
C595 C207 1.329 . S
C604 C263 1.330 . S
C606 C333 1.338 1_554 S
C615 C277 1.340 . S
C617 C305 1.330 1_554 S
C626 C291 1.327 . S
C628 C319 1.334 1_554 S
C637 C347 1.338 . S
C639 C417 1.333 1_556 S
C648 C389 1.332 1_556 S
C650 C361 1.338 . S
C659 C375 1.327 . S
C661 C403 1.337 1_556 S
C670 C431 1.333 . S
C672 C501 1.337 . S
C681 C445 1.328 . S
C683 C473 1.334 . S
C692 C459 1.331 . S
C694 C487 1.337 . S
C703 C152 1.162 . S
C705 C4 1.120 . S
C714 C166 1.158 . S
C716 C18 1.125 . S
C725 C138 1.161 . S
C727 C32 1.122 . S
C736 C124 1.161 . S
C738 C46 1.121 . S
C747 C60 1.131 . S
C749 C96 1.156 . S
C758 C74 1.124 . S
C760 C110 1.159 . S
C769 C88 1.131 . S
C771 C68 1.155 . S
C780 C102 1.128 . S
C782 C82 1.157 . S
C791 C116 1.131 . S
C793 C54 1.155 . S
C802 C40 1.158 . S
C804 C130 1.124 . S
C813 C12 1.155 . S
C815 C144 1.130 . S
C824 C158 1.131 . S
C826 C26 1.156 . S
C835 C172 1.132 . S
C837 C320 1.155 . S
C846 C186 1.119 . S
C848 C334 1.161 . S
C857 C306 1.162 . S
C859 C200 1.120 . S
C868 C214 1.121 . S
C870 C292 1.160 . S
C879 C228 1.118 . S
C881 C264 1.161 . S
C890 C242 1.130 . S
C892 C278 1.156 . S
C901 C256 1.129 . S
C903 C236 1.157 . S
C912 C250 1.161 . S
C914 C270 1.121 . S
C923 C222 1.157 . S
C925 C284 1.125 . S
C934 C298 1.118 . S
C936 C208 1.161 . S
C945 C180 1.162 . S
C947 C312 1.120 . S
C956 C194 1.157 . S
C958 C326 1.128 . S
C967 C488 1.156 . S
C969 C340 1.128 . S
C978 C354 1.131 . S
C980 C502 1.155 . S
C989 C368 1.128 . S
C991 C474 1.157 . S
C1000 C460 1.159 . S
C1002 C382 1.124 . S
C1011 C432 1.155 . S
C1013 C396 1.129 . S
C1022 C446 1.158 . S
C1024 C410 1.125 . S
C1033 C424 1.131 . S
C1035 C404 1.155 . S
C1044 C418 1.156 . S
C1046 C438 1.128 . S
C1055 C452 1.126 . S
C1057 C390 1.157 . S
C1066 C376 1.161 . S
C1068 C466 1.122 . S
C1077 C348 1.154 . S
C1079 C480 1.130 . S
C1088 C362 1.161 . S
C1090 C494 1.122 . S
C1099 C229 1.459 . S
C1101 C5 1.467 1_556 S
C1110 C19 1.466 1_556 S
C1112 C243 1.468 . S
C1121 C215 1.460 . S
C1123 C33 1.464 1_556 S
C1132 C369 1.467 . S
C1134 C47 1.460 . S
C1143 C61 1.463 . S
C1145 C341 1.462 . S
C1154 C75 1.468 . S
C1156 C355 1.460 . S
C1165 C89 1.462 1_554 S
C1167 C481 1.463 . S
C1176 C495 1.467 . S
C1178 C103 1.460 1_554 S
C1187 C467 1.465 . S
C1189 C117 1.461 1_554 S
C1198 C285 1.470 . S
C1200 C131 1.460 . S
C1209 C145 1.470 . S
C1211 C257 1.464 . S
C1220 C159 1.471 . S
C1222 C271 1.462 . S
C1231 C173 1.466 . S
C1233 C397 1.468 . S
C1242 C411 1.464 . S
C1244 C187 1.469 . S
C1253 C383 1.471 . S
C1255 C201 1.463 . S
C1264 C299 1.470 . S
C1266 C453 1.460 . S
C1275 C425 1.470 . S
C1277 C313 1.460 . S
C1286 C439 1.459 . S
C1288 C327 1.469 . S
