# Generated by pormake.
# Topology snl, (6)-cn, num edge types: 1
# Building blocks:
#     Node 0, Type 0, BuildingBlock: KUMJIN_clean_sbu_0, # of connection points: 6
#     Node 1, Type 0, BuildingBlock: KUMJIN_clean_sbu_0, # of connection points: 6
#     Node 2, Type 0, BuildingBlock: KUMJIN_clean_sbu_0, # of connection points: 6
#     Node 3, Type 0, BuildingBlock: KUMJIN_clean_sbu_0, # of connection points: 6
#     Node 4, Type 0, BuildingBlock: KUMJIN_clean_sbu_0, # of connection points: 6
#     Node 5, Type 0, BuildingBlock: KUMJIN_clean_sbu_0, # of connection points: 6
#     Node 6, Type 0, BuildingBlock: KUMJIN_clean_sbu_0, # of connection points: 6
#     Node 7, Type 0, BuildingBlock: KUMJIN_clean_sbu_0, # of connection points: 6
#     Node 8, Type 0, BuildingBlock: KUMJIN_clean_sbu_0, # of connection points: 6
#     Node 9, Type 0, BuildingBlock: KUMJIN_clean_sbu_0, # of connection points: 6
#     Node 10, Type 0, BuildingBlock: KUMJIN_clean_sbu_0, # of connection points: 6
#     Node 11, Type 0, BuildingBlock: KUMJIN_clean_sbu_0, # of connection points: 6
#     Node 12, Type 0, BuildingBlock: KUMJIN_clean_sbu_0, # of connection points: 6
#     Node 13, Type 0, BuildingBlock: KUMJIN_clean_sbu_0, # of connection points: 6
#     Node 14, Type 0, BuildingBlock: KUMJIN_clean_sbu_0, # of connection points: 6
#     Node 15, Type 0, BuildingBlock: KUMJIN_clean_sbu_0, # of connection points: 6
#     Edge 16, Type (0, 0), BuildingBlock: OJICUG_clean_linker_0, # of connection points: 2
#     Edge 17, Type (0, 0), BuildingBlock: OJICUG_clean_linker_0, # of connection points: 2
#     Edge 18, Type (0, 0), BuildingBlock: OJICUG_clean_linker_0, # of connection points: 2
#     Edge 19, Type (0, 0), BuildingBlock: OJICUG_clean_linker_0, # of connection points: 2
#     Edge 20, Type (0, 0), BuildingBlock: OJICUG_clean_linker_0, # of connection points: 2
#     Edge 21, Type (0, 0), BuildingBlock: OJICUG_clean_linker_0, # of connection points: 2
#     Edge 22, Type (0, 0), BuildingBlock: OJICUG_clean_linker_0, # of connection points: 2
#     Edge 23, Type (0, 0), BuildingBlock: OJICUG_clean_linker_0, # of connection points: 2
#     Edge 24, Type (0, 0), BuildingBlock: OJICUG_clean_linker_0, # of connection points: 2
#     Edge 25, Type (0, 0), BuildingBlock: OJICUG_clean_linker_0, # of connection points: 2
#     Edge 26, Type (0, 0), BuildingBlock: OJICUG_clean_linker_0, # of connection points: 2
#     Edge 27, Type (0, 0), BuildingBlock: OJICUG_clean_linker_0, # of connection points: 2
#     Edge 28, Type (0, 0), BuildingBlock: OJICUG_clean_linker_0, # of connection points: 2
#     Edge 29, Type (0, 0), BuildingBlock: OJICUG_clean_linker_0, # of connection points: 2
#     Edge 30, Type (0, 0), BuildingBlock: OJICUG_clean_linker_0, # of connection points: 2
#     Edge 31, Type (0, 0), BuildingBlock: OJICUG_clean_linker_0, # of connection points: 2
#     Edge 32, Type (0, 0), BuildingBlock: OJICUG_clean_linker_0, # of connection points: 2
#     Edge 33, Type (0, 0), BuildingBlock: OJICUG_clean_linker_0, # of connection points: 2
#     Edge 34, Type (0, 0), BuildingBlock: OJICUG_clean_linker_0, # of connection points: 2
#     Edge 35, Type (0, 0), BuildingBlock: OJICUG_clean_linker_0, # of connection points: 2
#     Edge 36, Type (0, 0), BuildingBlock: OJICUG_clean_linker_0, # of connection points: 2
#     Edge 37, Type (0, 0), BuildingBlock: OJICUG_clean_linker_0, # of connection points: 2
#     Edge 38, Type (0, 0), BuildingBlock: OJICUG_clean_linker_0, # of connection points: 2
#     Edge 39, Type (0, 0), BuildingBlock: OJICUG_clean_linker_0, # of connection points: 2
#     Edge 40, Type (0, 0), BuildingBlock: OJICUG_clean_linker_0, # of connection points: 2
#     Edge 41, Type (0, 0), BuildingBlock: OJICUG_clean_linker_0, # of connection points: 2
#     Edge 42, Type (0, 0), BuildingBlock: OJICUG_clean_linker_0, # of connection points: 2
#     Edge 43, Type (0, 0), BuildingBlock: OJICUG_clean_linker_0, # of connection points: 2
#     Edge 44, Type (0, 0), BuildingBlock: OJICUG_clean_linker_0, # of connection points: 2
#     Edge 45, Type (0, 0), BuildingBlock: OJICUG_clean_linker_0, # of connection points: 2
#     Edge 46, Type (0, 0), BuildingBlock: OJICUG_clean_linker_0, # of connection points: 2
#     Edge 47, Type (0, 0), BuildingBlock: OJICUG_clean_linker_0, # of connection points: 2
#     Edge 48, Type (0, 0), BuildingBlock: OJICUG_clean_linker_0, # of connection points: 2
#     Edge 49, Type (0, 0), BuildingBlock: OJICUG_clean_linker_0, # of connection points: 2
#     Edge 50, Type (0, 0), BuildingBlock: OJICUG_clean_linker_0, # of connection points: 2
#     Edge 51, Type (0, 0), BuildingBlock: OJICUG_clean_linker_0, # of connection points: 2
#     Edge 52, Type (0, 0), BuildingBlock: OJICUG_clean_linker_0, # of connection points: 2
#     Edge 53, Type (0, 0), BuildingBlock: OJICUG_clean_linker_0, # of connection points: 2
#     Edge 54, Type (0, 0), BuildingBlock: OJICUG_clean_linker_0, # of connection points: 2
#     Edge 55, Type (0, 0), BuildingBlock: OJICUG_clean_linker_0, # of connection points: 2
#     Edge 56, Type (0, 0), BuildingBlock: OJICUG_clean_linker_0, # of connection points: 2
#     Edge 57, Type (0, 0), BuildingBlock: OJICUG_clean_linker_0, # of connection points: 2
#     Edge 58, Type (0, 0), BuildingBlock: OJICUG_clean_linker_0, # of connection points: 2
#     Edge 59, Type (0, 0), BuildingBlock: OJICUG_clean_linker_0, # of connection points: 2
#     Edge 60, Type (0, 0), BuildingBlock: OJICUG_clean_linker_0, # of connection points: 2
#     Edge 61, Type (0, 0), BuildingBlock: OJICUG_clean_linker_0, # of connection points: 2
#     Edge 62, Type (0, 0), BuildingBlock: OJICUG_clean_linker_0, # of connection points: 2
#     Edge 63, Type (0, 0), BuildingBlock: OJICUG_clean_linker_0, # of connection points: 2
# Relax obj value: 0.161
# Max RMSD: 0.259
# Mean RMSD: 0.251
data_MOF--net-snl--node1-KUMJIN_clean_sbu_0--edge1-OJICUG_clean_linker_0
_symmetry_space_group_name_H-M    P1
_symmetry_Int_Tables_number       1
_symmetry_cell_setting            triclinic
loop_
_symmetry_equiv_pos_as_xyz
'x, y, z'
_cell_length_a     40.732108
_cell_length_b     40.46839
_cell_length_c     20.55399
_cell_angle_alpha  90.16989
_cell_angle_beta   90.303121
_cell_angle_gamma 90.293913
loop_
_atom_site_label
_atom_site_type_symbol
_atom_site_fract_x
_atom_site_fract_y
_atom_site_fract_z
_atom_type_partial_charge
Eu0 Eu 0.1241 0.62121 0.22285 0.0
C1 C 0.16956 0.72002 0.02934 0.0
C2 C 0.1289 0.7265 0.90421 0.0
C3 C 0.17138 0.78599 0.91328 0.0
C4 C 0.14104 0.70709 0.97453 0.0
C5 C 0.1905 0.75635 0.02074 0.0
C6 C 0.14212 0.76321 0.87439 0.0
C7 C 0.22152 0.73676 0.11514 0.0
N8 N 0.17854 0.6993 0.07727 0.0
C9 C 0.20487 0.70677 0.11615 0.0
C10 C 0.21432 0.76147 0.07161 0.0
Eu11 Eu 0.1529 0.64683 0.07052 0.0
N12 N 0.1255 0.67852 0.98941 0.0
C13 C 0.10183 0.66549 0.94881 0.0
C14 C 0.10417 0.71056 0.86979 0.0
C15 C 0.09091 0.68103 0.89204 0.0
H16 H 0.21285 0.69106 0.15385 0.0
H17 H 0.07188 0.66911 0.8633 0.0
H18 H 0.13175 0.77253 0.82953 0.0
H19 H 0.24077 0.74107 0.15083 0.0
H20 H 0.09144 0.64142 0.95918 0.0
H21 H 0.22864 0.53706 0.26533 0.0
H22 H 0.09473 0.72122 0.82525 0.0
H23 H 0.04379 0.59741 0.22534 0.0
H24 H 0.19782 0.58793 0.27848 0.0
H25 H 1.01038 0.54848 0.20168 0.0
H26 H 0.17871 0.80899 0.8901 0.0
H27 H 0.20105 0.487 0.2223 0.0
H28 H 0.14856 0.45907 0.18936 0.0
H29 H 0.22915 0.78341 0.07849 0.0
H30 H 0.08871 0.46189 0.17482 0.0
N31 N 0.15438 0.57019 0.23124 0.0
C32 C 0.18592 0.56778 0.25407 0.0
C33 C 0.18764 0.51 0.22546 0.0
C34 C 0.15419 0.5113 0.21066 0.0
C35 C 0.20333 0.53821 0.24922 0.0
C36 C 0.13792 0.54201 0.21516 0.0
H37 H 0.03698 0.49486 0.18077 0.0
N38 N 0.0896 0.57339 0.21224 0.0
C39 C 0.03687 0.5467 0.20224 0.0
C40 C 0.10448 0.54366 0.20574 0.0
C41 C 0.05612 0.57469 0.2147 0.0
C42 C 0.05195 0.51656 0.19029 0.0
C43 C 0.08613 0.51456 0.19332 0.0
O44 O 0.09231 0.62379 0.30799 0.0
O45 O 0.14478 0.66634 0.17052 0.0
O46 O 0.19951 0.63705 0.13443 0.0
O47 O 0.1766 0.63753 0.23703 0.0
O48 O 0.10375 0.67404 0.22709 0.0
O49 O 0.14456 0.62366 0.32174 0.0
O50 O 0.19135 0.65223 0.9974 0.0
O51 O 0.12762 0.60296 0.11606 0.0
O52 O 0.07686 0.63534 0.17473 0.0
O53 O 0.09513 0.65397 0.07428 0.0
O54 O 0.17504 0.59694 0.08271 0.0
O55 O 0.14925 0.61944 0.9776 0.0
C56 C 0.12488 0.68854 0.18994 0.0
C57 C 0.11272 0.60148 0.40704 0.0
C58 C 0.12158 0.59 0.52314 0.0
C59 C 0.125 0.61114 0.46886 0.0
C60 C 0.10492 0.55971 0.51455 0.0
C61 C 0.09727 0.57064 0.39989 0.0
C62 C 0.093 0.55017 0.45355 0.0
C63 C 0.20254 0.63722 0.19927 0.0
C64 C 0.11621 0.62351 0.35027 0.0
C65 C 0.10236 0.48432 0.18557 0.0
C66 C 0.1364 0.48272 0.19382 0.0
C67 C 0.14841 0.58141 0.09662 0.0
C68 C 0.18963 0.62579 0.89067 0.0
C69 C 0.16947 0.62166 0.83473 0.0
C70 C 0.18394 0.61611 0.77322 0.0
C71 C 0.21829 0.61473 0.76869 0.0
C72 C 0.22385 0.62456 0.88417 0.0
C73 C 0.23802 0.61897 0.82366 0.0
C74 C 0.071 0.64691 0.11626 0.0
C75 C 0.17588 0.63338 0.95543 0.0
H76 H 0.13778 0.63456 0.47425 0.0
H77 H 0.10131 0.54315 0.55519 0.0
H78 H 0.08812 0.56252 0.35289 0.0
H79 H 0.08054 0.52664 0.44779 0.0
H80 H 0.14298 0.62273 0.83896 0.0
H81 H 0.22992 0.61024 0.72221 0.0
H82 H 0.23974 0.6279 0.92614 0.0
H83 H 0.26446 0.6179 0.81934 0.0
Eu84 Eu 0.67085 0.8791 0.47844 0.0
C85 C 0.57827 0.96307 0.2863 0.0
C86 C 0.53415 0.92795 0.24647 0.0
C87 C 0.53336 0.9869 0.22422 0.0
C88 C 0.56348 0.93209 0.28207 0.0
C89 C 0.56293 0.99093 0.25869 0.0
C90 C 0.51962 0.95536 0.21669 0.0
C91 C 0.60991 0.02383 0.29141 0.0
N92 N 0.60862 0.96558 0.31324 0.0
C93 C 0.62504 0.99519 0.31434 0.0
C94 C 0.57873 0.02167 0.26316 0.0
Eu95 Eu 0.63478 0.91465 0.3317 0.0
N96 N 0.57902 0.90562 0.30814 0.0
C97 C 0.56552 0.87472 0.30377 0.0
C98 C 0.52102 0.89611 0.23944 0.0
C99 C 0.5361 0.86958 0.27022 0.0
H100 H 0.65004 0.99656 0.33213 0.0
H101 H 0.52591 0.84492 0.26561 0.0
H102 H 0.49798 0.95225 0.18711 0.0
H103 H 0.62281 0.04727 0.29321 0.0
H104 H 0.57784 0.85359 0.32373 0.0
H105 H 0.76924 0.9711 0.51291 0.0
H106 H 0.49979 0.89156 0.20904 0.0
H107 H 0.68179 0.79502 0.44979 0.0
H108 H 0.71444 0.94805 0.52501 0.0
H109 H 0.72149 0.76021 0.39475 0.0
H110 H 0.52151 1.00781 0.20136 0.0
H111 H 0.81266 0.93827 0.4606 0.0
H112 H 0.82948 0.88537 0.40755 0.0
H113 H 0.56759 0.04365 0.24293 0.0
H114 H 0.81667 0.82864 0.37474 0.0
N115 N 0.72491 0.90233 0.4781 0.0
C116 C 0.73236 0.93317 0.50143 0.0
C117 C 0.78836 0.92772 0.46623 0.0
C118 C 0.78123 0.89558 0.44532 0.0
C119 C 0.7639 0.9464 0.49533 0.0
C120 C 0.74905 0.88309 0.45317 0.0
H121 H 0.77649 0.78205 0.36868 0.0
N122 N 0.71058 0.83939 0.4432 0.0
C123 C 0.72741 0.78585 0.40463 0.0
C124 C 0.74152 0.85108 0.4339 0.0
C125 C 0.70437 0.80635 0.43411 0.0
C126 C 0.75839 0.79821 0.39023 0.0
C127 C 0.76613 0.83083 0.40663 0.0
O128 O 0.68285 0.84618 0.55844 0.0
O129 O 0.62536 0.89662 0.4305 0.0
O130 O 0.62609 0.95332 0.41429 0.0
O131 O 0.66164 0.93397 0.49478 0.0
O132 O 0.61775 0.86377 0.50426 0.0
O133 O 0.67101 0.89726 0.57903 0.0
O134 O 0.66309 0.93167 0.24846 0.0
O135 O 0.6809 0.8931 0.37377 0.0
O136 O 0.64586 0.83645 0.42958 0.0
O137 O 0.63617 0.85722 0.32517 0.0
O138 O 0.68304 0.94123 0.33849 0.0
O139 O 0.62629 0.89385 0.23359 0.0
C140 C 0.60293 0.88241 0.46249 0.0
C141 C 0.65755 0.85767 0.65971 0.0
C142 C 0.64297 0.86356 0.77422 0.0
C143 C 0.65989 0.87503 0.71913 0.0
C144 C 0.62351 0.83499 0.76942 0.0
C145 C 0.63737 0.82944 0.65564 0.0
C146 C 0.62057 0.81819 0.7103 0.0
C147 C 0.64227 0.95721 0.47067 0.0
C148 C 0.6773 0.86826 0.60343 0.0
C149 C 0.79771 0.84362 0.39669 0.0
C150 C 0.80514 0.87589 0.41586 0.0
C151 C 0.70028 0.91619 0.35672 0.0
C152 C 0.63862 0.92958 0.1443 0.0
C153 C 0.64095 0.91263 0.08438 0.0
C154 C 0.6361 0.92953 0.02473 0.0
C155 C 0.62897 0.96357 0.027 0.0
C156 C 0.63064 0.96324 0.14424 0.0
C157 C 0.62578 0.98001 0.08615 0.0
C158 C 0.63818 0.83252 0.36775 0.0
C159 C 0.64779 0.9132 0.20604 0.0
H160 H 0.67503 0.8971 0.7227 0.0
H161 H 0.61016 0.82599 0.81131 0.0
H162 H 0.63481 0.81584 0.61041 0.0
H163 H 0.60526 0.79632 0.70686 0.0
H164 H 0.64678 0.88656 0.08462 0.0
H165 H 0.6264 0.97798 0.98303 0.0
H166 H 0.62933 0.97701 0.18898 0.0
H167 H 0.62029 1.00616 0.08694 0.0
Eu168 Eu 0.39728 0.4155 0.71867 0.0
C169 C 0.30955 0.33315 0.51824 0.0
C170 C 0.34108 0.28771 0.47408 0.0
C171 C 0.283 0.29231 0.44826 0.0
C172 C 0.33916 0.31663 0.5123 0.0
C173 C 0.281 0.3207 0.48743 0.0
C174 C 0.31306 0.27611 0.44099 0.0
C175 C 0.25141 0.36796 0.52832 0.0
N176 N 0.30905 0.36239 0.55068 0.0
C177 C 0.28074 0.3804 0.55427 0.0
C178 C 0.25158 0.33802 0.49436 0.0
Eu179 Eu 0.36118 0.38553 0.57314 0.0
N180 N 0.3663 0.32946 0.54173 0.0
C181 C 0.39557 0.31307 0.53892 0.0
C182 C 0.37116 0.27131 0.46991 0.0
C183 C 0.39825 0.28354 0.5041 0.0
H184 H 0.28101 0.40479 0.57593 0.0
H185 H 0.4215 0.27074 0.50214 0.0
H186 H 0.31426 0.25432 0.41056 0.0
H187 H 0.22909 0.38219 0.53212 0.0
H188 H 0.41733 0.32258 0.5624 0.0
H189 H 0.33538 0.53535 0.71476 0.0
H190 H 0.37353 0.24888 0.44148 0.0
H191 H 0.47432 0.39704 0.75793 0.0
H192 H 0.33844 0.47528 0.71166 0.0
H193 H 0.52452 0.42607 0.79515 0.0
H194 H 0.26149 0.28274 0.42318 0.0
H195 H 0.38547 0.56834 0.73085 0.0
H196 H 0.44576 0.57063 0.75702 0.0
H197 H 0.22917 0.32898 0.47187 0.0
H198 H 0.49708 0.54105 0.78053 0.0
N199 N 0.3907 0.47356 0.72265 0.0
C200 C 0.36091 0.48897 0.71855 0.0
C201 C 0.38733 0.5419 0.72919 0.0
C202 C 0.41746 0.52613 0.73805 0.0
C203 C 0.3589 0.52328 0.72015 0.0
C204 C 0.4185 0.4914 0.73357 0.0
H205 H 0.5261 0.48731 0.79794 0.0
N206 N 0.44795 0.44136 0.74036 0.0
C207 C 0.50336 0.44011 0.7798 0.0
C208 C 0.44779 0.47484 0.74395 0.0
C209 C 0.47503 0.42375 0.75847 0.0
C210 C 0.50407 0.47463 0.78158 0.0
C211 C 0.47619 0.49245 0.76316 0.0
O212 O 0.4118 0.3905 0.80806 0.0
O213 O 0.37586 0.36999 0.67195 0.0
O214 O 0.32221 0.37823 0.65489 0.0
O215 O 0.34172 0.41845 0.7247 0.0
O216 O 0.41945 0.36353 0.72129 0.0
O217 O 0.37545 0.42917 0.81226 0.0
O218 O 0.34378 0.41454 0.49117 0.0
O219 O 0.38619 0.43098 0.61419 0.0
O220 O 0.43889 0.41724 0.64777 0.0
O221 O 0.41804 0.3797 0.5723 0.0
O222 O 0.33891 0.43624 0.58145 0.0
O223 O 0.3828 0.37938 0.47593 0.0
C224 C 0.39674 0.34838 0.6888 0.0
C225 C 0.4077 0.41966 0.90706 0.0
C226 C 0.4087 0.41791 0.02541 0.0
C227 C 0.39365 0.40956 0.96583 0.0
C228 C 0.4381 0.43608 0.02582 0.0
C229 C 0.43644 0.4389 0.90854 0.0
C230 C 0.45175 0.44672 0.96748 0.0
C231 C 0.31808 0.39816 0.706 0.0
C232 C 0.39306 0.40823 0.84534 0.0
C233 C 0.4754 0.52709 0.76645 0.0
C234 C 0.44617 0.54393 0.7532 0.0
C235 C 0.36525 0.45257 0.59615 0.0
C236 C 0.34631 0.39002 0.3875 0.0
C237 C 0.36354 0.39172 0.32872 0.0
C238 C 0.347 0.3866 0.26914 0.0
C239 C 0.31381 0.37691 0.26948 0.0
C240 C 0.31271 0.38213 0.38608 0.0
C241 C 0.29684 0.37461 0.32779 0.0
C242 C 0.44286 0.39658 0.59897 0.0
C243 C 0.36252 0.40013 0.44876 0.0
H244 H 0.3713 0.39486 0.96526 0.0
H245 H 0.44997 0.44279 0.0713 0.0
H246 H 0.44719 0.44788 0.86464 0.0
H247 H 0.47415 0.46123 0.96792 0.0
H248 H 0.38909 0.39939 0.32923 0.0
H249 H 0.30071 0.37197 0.22446 0.0
H250 H 0.29829 0.38287 0.42952 0.0
H251 H 0.27101 0.36819 0.32764 0.0
Eu252 Eu 0.90429 0.11321 0.82025 0.0
C253 C 0.83494 0.20678 1.01792 0.0
C254 C 0.87011 0.25318 0.04613 0.0
C255 C 0.81201 0.25494 0.07194 0.0
C256 C 0.86564 0.22177 1.0175 0.0
C257 C 0.80775 0.22338 0.04497 0.0
C258 C 0.84325 0.26927 0.07417 0.0
C259 C 0.77597 0.17328 0.03335 0.0
N260 N 0.83255 0.1745 1.00018 0.0
C261 C 0.80395 0.15725 1.01072 0.0
C262 C 0.77778 0.20662 0.04999 0.0
Eu263 Eu 0.88274 0.14781 0.97491 0.0
N264 N 0.89175 0.20431 0.9958 0.0
C265 C 0.92278 0.21706 1.00021 0.0
C266 C 0.90181 0.26666 0.04917 0.0
C267 C 0.9282 0.24865 0.02543 0.0
H268 H 0.8024 0.13114 1.00057 0.0
H269 H 0.95287 0.25862 0.02849 0.0
H270 H 0.84648 0.29239 0.0994 0.0
H271 H 0.75327 0.15967 0.03962 0.0
H272 H 0.94361 0.20267 0.98546 0.0
H273 H 0.79615 0.03194 0.77745 0.0
H274 H 0.90646 0.29041 0.07164 0.0
H275 H 0.98368 0.08598 0.81796 0.0
H276 H 0.82847 0.08193 0.76357 0.0
H277 H 1.01426 0.03636 0.84731 0.0
H278 H 0.79165 0.26777 0.09423 0.0
H279 H 0.82131 0.98213 0.82509 0.0
H280 H 0.87148 0.95444 0.86525 0.0
H281 H 0.75638 0.21867 0.07001 0.0
H282 H 0.93113 0.95471 0.88341 0.0
N283 N 0.87141 0.06357 0.81253 0.0
C284 C 0.83989 0.06167 0.78856 0.0
C285 C 0.83564 1.00466 0.82094 0.0
C286 C 0.86885 1.00545 0.83796 0.0
C287 C 0.82135 0.03271 0.7944 0.0
C288 C 0.88648 0.03538 0.83208 0.0
H289 H 0.98465 0.98501 0.87507 0.0
N290 N 0.93652 0.06471 0.8348 0.0
C291 C 0.9877 0.03591 0.84725 0.0
C292 C 0.91995 0.03599 0.84365 0.0
C293 C 0.97005 0.06435 0.83177 0.0
C294 C 0.97093 1.00705 0.86304 0.0
C295 C 0.93669 1.00656 0.85965 0.0
O296 O 0.94132 0.11617 0.74417 0.0
O297 O 0.90583 0.15967 0.88112 0.0
O298 O 0.83938 0.16032 0.90343 0.0
O299 O 0.85066 0.12573 0.81646 0.0
O300 O 0.89296 0.16599 0.78552 0.0
O301 O 0.88987 0.11123 0.71835 0.0
O302 O 0.8715 0.1202 0.0637 0.0
O303 O 0.89649 0.09939 0.92648 0.0
O304 O 0.95337 0.12822 0.86382 0.0
O305 O 0.94004 0.14379 0.96962 0.0
O306 O 0.85135 0.10226 0.9712 0.0
O307 O 0.90992 0.15659 0.0658 0.0
C308 C 0.89797 0.18131 0.83948 0.0
C309 C 0.92782 0.09393 0.64026 0.0
C310 C 0.92757 0.08928 0.52249 0.0
C311 C 0.92017 0.1069 0.57918 0.0
C312 C 0.94352 0.05874 0.52721 0.0
C313 C 0.94192 0.06256 0.64505 0.0
C314 C 0.95042 0.04534 0.58847 0.0
C315 C 0.83084 0.14586 0.84722 0.0
C316 C 0.9198 0.11378 0.69728 0.0
C317 C 0.91886 0.97735 0.86959 0.0
C318 C 0.88499 0.977 0.8591 0.0
C319 C 0.87228 0.08217 0.94689 0.0
C320 C 0.8805 0.1482 0.16285 0.0
C321 C 0.89629 0.13869 0.22052 0.0
C322 C 0.88254 0.1466 0.28141 0.0
C323 C 0.8551 0.16761 0.28335 0.0
C324 C 0.85223 0.1676 0.16641 0.0
C325 C 0.84016 0.17806 0.22608 0.0
C326 C 0.96198 0.13631 0.92381 0.0
C327 C 0.89255 0.13608 0.09981 0.0
H328 H 0.90818 0.13074 0.57568 0.0
H329 H 0.94956 0.04487 0.48378 0.0
H330 H 0.94674 0.05169 0.6922 0.0
H331 H 0.96207 0.02144 0.59213 0.0
H332 H 0.91795 0.12339 0.21749 0.0
H333 H 0.84471 0.17551 0.32916 0.0
H334 H 0.839 0.17417 0.12354 0.0
H335 H 0.81853 0.19347 0.22796 0.0
Eu336 Eu 0.15139 0.38352 0.96941 0.0
C337 C 0.08556 0.45198 0.71985 0.0
C338 C 0.05176 0.41242 0.66057 0.0
C339 C 0.04883 0.47075 0.6339 0.0
C340 C 0.07523 0.41963 0.70942 0.0
C341 C 0.07241 0.47786 0.68201 0.0
C342 C 0.03876 0.43809 0.62284 0.0
C343 C 0.10887 0.51571 0.73785 0.0
N344 N 0.10888 0.45804 0.76592 0.0
C345 C 0.12211 0.48914 0.77207 0.0
C346 C 0.08381 0.51009 0.69272 0.0
Eu347 Eu 0.13456 0.41023 0.80876 0.0
N348 N 0.08694 0.3955 0.74905 0.0
C349 C 0.07677 0.36348 0.74092 0.0
C350 C 0.04179 0.3796 0.65139 0.0
C351 C 0.05448 0.35502 0.69155 0.0
H352 H 0.14342 0.49343 0.80267 0.0
H353 H 0.04666 0.3296 0.68535 0.0
H354 H 0.02086 0.43292 0.58501 0.0
H355 H 0.11866 0.54035 0.74497 0.0
H356 H 0.08567 0.34412 0.7718 0.0
H357 H 0.22988 0.47834 0.08849 0.0
H358 H 0.02399 0.37307 0.61412 0.0
H359 H 0.17642 0.30513 0.93501 0.0
H360 H 0.17858 0.44816 0.06803 0.0
H361 H 0.22624 0.27736 0.89833 0.0
H362 H 0.03855 0.4903 0.60435 0.0
H363 H 0.28216 0.45765 0.04367 0.0
H364 H 0.31207 0.41284 0.98421 0.0
H365 H 0.07407 0.53065 0.66518 0.0
H366 H 0.31137 0.35752 0.93503 0.0
N367 N 0.20035 0.41222 1.00495 0.0
C368 C 0.20082 0.43918 0.04573 0.0
C369 C 0.25948 0.44444 0.03355 0.0
C370 C 0.25953 0.41461 0.99913 0.0
C371 C 0.23007 0.45623 0.0587 0.0
C372 C 0.22932 0.39838 0.98715 0.0
H373 H 0.2796 0.30666 0.90336 0.0
N374 N 0.19956 0.35187 0.94973 0.0
C375 C 0.22735 0.30292 0.91393 0.0
C376 C 0.2289 0.36726 0.95901 0.0
C377 C 0.19877 0.31922 0.93266 0.0
C378 C 0.25739 0.31945 0.91727 0.0
C379 C 0.25858 0.35172 0.94163 0.0
O380 O 0.14477 0.33947 0.02979 0.0
O381 O 0.10882 0.38848 0.89714 0.0
O382 O 0.12045 0.45395 0.87886 0.0
O383 O 0.14755 0.43888 0.97345 0.0
O384 O 0.10047 0.40431 0.99092 0.0
O385 O 0.14868 0.38803 0.07573 0.0
O386 O 0.17051 0.42892 0.73947 0.0
O387 O 0.17498 0.38979 0.87046 0.0
O388 O 0.12864 0.33975 0.91818 0.0
O389 O 0.14009 0.35309 0.81126 0.0
O390 O 0.18132 0.43711 0.83551 0.0
O391 O 0.14173 0.3862 0.71337 0.0
C392 C 0.08675 0.40055 0.93455 0.0
C393 C 0.14242 0.34091 0.14842 0.0
C394 C 0.14354 0.34446 0.26742 0.0
C395 C 0.14479 0.3599 0.20598 0.0
C396 C 0.13986 0.30995 0.27032 0.0
C397 C 0.13832 0.30656 0.15293 0.0
C398 C 0.13723 0.29124 0.21349 0.0
C399 C 0.13243 0.46103 0.93801 0.0
C400 C 0.14567 0.35635 0.08374 0.0
C401 C 0.28843 0.36872 0.94954 0.0
C402 C 0.28886 0.40017 0.97788 0.0
C403 C 0.1966 0.41181 0.85848 0.0
C404 C 0.15575 0.42369 0.6283 0.0
C405 C 0.15231 0.40394 0.57187 0.0
C406 C 0.14771 0.41872 0.51001 0.0
C407 C 0.14618 0.45338 0.50626 0.0
C408 C 0.15423 0.45824 0.62213 0.0
C409 C 0.14902 0.47275 0.56182 0.0
C410 C 0.13261 0.3311 0.85682 0.0
C411 C 0.16215 0.40867 0.69299 0.0
H412 H 0.14817 0.38645 0.20308 0.0
H413 H 0.13842 0.29741 0.3167 0.0
H414 H 0.13609 0.29142 0.10961 0.0
H415 H 0.1343 0.26472 0.21642 0.0
H416 H 0.15338 0.3773 0.57632 0.0
H417 H 0.14365 0.46588 0.46004 0.0
H418 H 0.15753 0.47432 0.6637 0.0
H419 H 0.14783 0.49924 0.5576 0.0
Eu420 Eu 0.89412 0.92196 0.21671 0.0
C421 C 0.81189 0.83437 0.01972 0.0
C422 C 0.8449 0.78774 0.98592 0.0
C423 C 0.78678 0.7892 0.95873 0.0
C424 C 0.84204 0.81855 1.01741 0.0
C425 C 0.78384 0.8196 0.99119 0.0
C426 C 0.81729 0.77352 0.95563 0.0
C427 C 0.75265 0.8676 0.02304 0.0
N428 N 0.81024 0.86483 0.04719 0.0
C429 C 0.78137 0.88191 0.04787 0.0
C430 C 0.7539 0.83637 0.99413 0.0
Eu431 Eu 0.86124 0.89027 0.06863 0.0
N432 N 0.86879 0.83384 0.04348 0.0
C433 C 0.89884 0.81888 0.04228 0.0
C434 C 0.87556 0.77232 0.98479 0.0
C435 C 0.90248 0.78765 1.01435 0.0
H436 H 0.78073 0.90698 0.06614 0.0
H437 H 0.92629 0.77589 1.01391 0.0
H438 H 0.81929 0.75027 0.93012 0.0
H439 H 0.72992 0.88122 0.02414 0.0
H440 H 0.92033 0.83077 0.06232 0.0
H441 H 0.83871 0.04532 0.20673 0.0
H442 H 0.87879 0.74875 0.96077 0.0
H443 H 0.96894 0.89964 0.27041 0.0
H444 H 0.83829 0.98548 0.20287 0.0
H445 H 0.01802 0.92652 0.31728 0.0
H446 H 0.76566 0.77766 0.93565 0.0
H447 H 0.88982 0.07518 0.23005 0.0
H448 H 0.94962 0.07426 0.25846 0.0
H449 H 0.7318 0.82578 0.97297 0.0
H450 H 0.99777 0.04223 0.2919 0.0
N451 N 0.89018 0.98034 0.21798 0.0
C452 C 0.86146 0.99754 0.21143 0.0
C453 C 0.89048 0.04878 0.2261 0.0
C454 C 0.91944 0.03132 0.2373 0.0
C455 C 0.86138 0.03189 0.21363 0.0
C456 C 0.91865 0.99653 0.23295 0.0
H457 H 0.02236 0.98748 0.31885 0.0
N458 N 0.94501 0.94484 0.24808 0.0
C459 C 0.9982 0.94138 0.29811 0.0
C460 C 0.94647 0.97839 0.24979 0.0
C461 C 0.97025 0.92623 0.2719 0.0
C462 C 1.00054 0.97576 0.29887 0.0
C463 C 0.97476 0.9947 0.27384 0.0
O464 O 0.87204 0.89306 0.29541 0.0
O465 O 0.87632 0.87601 0.16792 0.0
O466 O 0.82279 0.88349 0.15027 0.0
O467 O 0.83945 0.92907 0.20855 0.0
O468 O 0.91937 0.87147 0.22033 0.0
O469 O 0.89592 0.93907 0.31788 0.0
O470 O 0.84475 0.91885 0.98573 0.0
O471 O 0.88363 0.93676 0.11165 0.0
O472 O 0.93887 0.91763 0.15512 0.0
O473 O 0.91785 0.8887 0.06541 0.0
O474 O 0.837 0.93991 0.07202 0.0
O475 O 0.88147 0.88098 0.97115 0.0
C476 C 0.89784 0.85545 0.186 0.0
C477 C 0.90019 0.89692 0.39564 0.0
C478 C 0.90624 0.88736 0.51233 0.0
C479 C 0.88976 0.90227 0.45965 0.0
C480 C 0.93452 0.86857 0.49969 0.0
C481 C 0.92735 0.87665 0.38426 0.0
C482 C 0.94477 0.8631 0.43605 0.0
C483 C 0.81741 0.906 0.19621 0.0
C484 C 0.88258 0.91254 0.34129 0.0
C485 C 0.97599 0.02933 0.27484 0.0
C486 C 0.94852 0.04758 0.25595 0.0
C487 C 0.86186 0.95711 0.09207 0.0
C488 C 0.84503 0.89326 0.88298 0.0
C489 C 0.86281 0.89207 0.82477 0.0
C490 C 0.84613 0.89035 0.76498 0.0
C491 C 0.8118 0.88807 0.76345 0.0
C492 C 0.81059 0.89087 0.88061 0.0
C493 C 0.79415 0.88785 0.82125 0.0
C494 C 0.94243 0.902 0.09942 0.0
C495 C 0.8621 0.90249 0.94375 0.0
H496 H 0.86821 0.91718 0.4678 0.0
H497 H 0.94868 0.85776 0.53884 0.0
H498 H 0.93518 0.87114 0.33559 0.0
H499 H 0.96612 0.84801 0.42681 0.0
H500 H 0.88933 0.89466 0.82572 0.0
H501 H 0.79872 0.88652 0.71748 0.0
H502 H 0.79618 0.89274 0.92418 0.0
H503 H 0.76762 0.88631 0.82 0.0
Eu504 Eu 0.40649 0.61817 0.32381 0.0
C505 C 0.31393 0.68895 0.49814 0.0
C506 C 0.33387 0.74476 0.49108 0.0
C507 C 0.27536 0.73448 0.49984 0.0
C508 C 0.33957 0.71074 0.49155 0.0
C509 C 0.2816 0.70047 0.50545 0.0
C510 C 0.30157 0.75665 0.49152 0.0
C511 C 0.26503 0.6444 0.52893 0.0
N512 N 0.32115 0.65644 0.50197 0.0
C513 C 0.29751 0.63418 0.5202 0.0
C514 C 0.25688 0.67759 0.52001 0.0
Eu515 Eu 0.37627 0.64208 0.47585 0.0
N516 N 0.3705 0.69868 0.49065 0.0
C517 C 0.39673 0.71873 0.50164 0.0
C518 C 0.36102 0.76563 0.49108 0.0
C519 C 0.39243 0.7527 0.50089 0.0
H520 H 0.3033 0.60841 0.52655 0.0
H521 H 0.41373 0.76832 0.5009 0.0
H522 H 0.29674 0.78288 0.48846 0.0
H523 H 0.24624 0.6266 0.54179 0.0
H524 H 0.42124 0.70866 0.50423 0.0
H525 H 0.30051 0.54181 0.24536 0.0
H526 H 0.35796 0.7914 0.48021 0.0
H527 H 0.4851 0.58927 0.34277 0.0
H528 H 0.33394 0.59153 0.25116 0.0
H529 H 0.51264 0.53832 0.37281 0.0
H530 H 0.25061 0.74393 0.50365 0.0
H531 H 0.3227 0.48882 0.28476 0.0
H532 H 0.37009 0.45763 0.32869 0.0
H533 H 0.23169 0.68541 0.52629 0.0
H534 H 0.42798 0.45626 0.36305 0.0
N535 N 0.37334 0.56969 0.30454 0.0
C536 C 0.34337 0.56984 0.27396 0.0
C537 C 0.33722 0.51121 0.28976 0.0
C538 C 0.36925 0.51032 0.31408 0.0
C539 C 0.32453 0.54105 0.26806 0.0
C540 C 0.38721 0.54017 0.31971 0.0
H541 H 0.48123 0.48614 0.37925 0.0
N542 N 0.43686 0.56844 0.34145 0.0
C543 C 0.48635 0.53828 0.36472 0.0
C544 C 0.41976 0.53957 0.33918 0.0
C545 C 0.47022 0.56762 0.34936 0.0
C546 C 0.4686 0.50894 0.36804 0.0
C547 C 0.43509 0.50912 0.35348 0.0
O548 O 0.44116 0.61278 0.24493 0.0
O549 O 0.3885 0.66331 0.37854 0.0
O550 O 0.3312 0.64234 0.40502 0.0
O551 O 0.35527 0.63702 0.30396 0.0
O552 O 0.42898 0.6708 0.32156 0.0
O553 O 0.39135 0.62669 0.22304 0.0
O554 O 0.36735 0.61689 0.56827 0.0
O555 O 0.39841 0.59729 0.42712 0.0
O556 O 0.45331 0.63276 0.37219 0.0
O557 O 0.43438 0.64486 0.47611 0.0
O558 O 0.35237 0.59269 0.46898 0.0
O559 O 0.40384 0.6555 0.56343 0.0
C560 C 0.40871 0.68571 0.35985 0.0
C561 C 0.41938 0.59677 0.14287 0.0
C562 C 0.41159 0.5901 0.02592 0.0
C563 C 0.41195 0.61014 0.08187 0.0
C564 C 0.41861 0.55623 0.03225 0.0
C565 C 0.42595 0.56292 0.14862 0.0
C566 C 0.42565 0.54279 0.09332 0.0
C567 C 0.32916 0.64148 0.34029 0.0
C568 C 0.41979 0.61882 0.19945 0.0
C569 C 0.41676 0.47973 0.35127 0.0
C570 C 0.3839 0.4804 0.33162 0.0
C571 C 0.37623 0.57637 0.44488 0.0
C572 C 0.37587 0.64931 0.66219 0.0
C573 C 0.38776 0.63677 0.72104 0.0
C574 C 0.37541 0.64841 0.78028 0.0
C575 C 0.35236 0.67402 0.78053 0.0
C576 C 0.35277 0.6749 0.66284 0.0
C577 C 0.34127 0.68735 0.72186 0.0
C578 C 0.45873 0.6401 0.43341 0.0
C579 C 0.38782 0.63539 0.6009 0.0
H580 H 0.40602 0.63617 0.07833 0.0
H581 H 0.41896 0.54018 0.99002 0.0
H582 H 0.4314 0.55213 0.19556 0.0
H583 H 0.43097 0.51672 0.09773 0.0
H584 H 0.40678 0.61818 0.72076 0.0
H585 H 0.34275 0.68339 0.82599 0.0
H586 H 0.34374 0.68533 0.61808 0.0
H587 H 0.32349 0.70714 0.72208 0.0
Eu588 Eu 0.62593 0.12425 0.73673 0.0
C589 C 0.72491 0.18068 0.5509 0.0
C590 C 0.71592 0.23919 0.56279 0.0
C591 C 0.77118 0.21892 0.54727 0.0
C592 C 0.70383 0.20671 0.56048 0.0
C593 C 0.75879 0.18655 0.5422 0.0
C594 C 0.74976 0.24523 0.5585 0.0
C595 C 0.76554 0.12826 0.52305 0.0
N596 N 0.71209 0.14959 0.55002 0.0
C597 C 0.732 0.12349 0.53406 0.0
C598 C 0.77913 0.15981 0.52829 0.0
Eu599 Eu 0.65462 0.14619 0.57781 0.0
N600 N 0.67115 0.20053 0.56449 0.0
C601 C 0.64913 0.22507 0.55685 0.0
C602 C 0.69332 0.26457 0.56818 0.0
C603 C 0.65993 0.25752 0.56036 0.0
H604 H 0.7229 0.09857 0.53042 0.0
H605 H 0.64216 0.27662 0.5624 0.0
H606 H 0.75941 0.27019 0.56129 0.0
H607 H 0.78102 0.10741 0.51145 0.0
H608 H 0.62316 0.21947 0.55412 0.0
H609 H 0.73487 0.05871 0.83283 0.0
H610 H 0.7014 0.28945 0.57842 0.0
H611 H 0.55128 0.08969 0.70111 0.0
H612 H 0.69954 0.10583 0.81579 0.0
H613 H 0.52811 0.036 0.67344 0.0
H614 H 0.79718 0.22389 0.54179 0.0
H615 H 0.71561 1.00276 0.80328 0.0
H616 H 0.67031 0.96638 0.76345 0.0
H617 H 0.80523 0.1633 0.5208 0.0
H618 H 0.61439 0.96025 0.7201 0.0
N619 N 0.66239 0.07934 0.76246 0.0
C620 C 0.69165 0.08268 0.79542 0.0
C621 C 0.70036 0.02391 0.7924 0.0
C622 C 0.66895 0.01992 0.76603 0.0
C623 C 0.71146 0.05542 0.80841 0.0
C624 C 0.65005 0.04837 0.7521 0.0
H625 H 0.56164 0.9858 0.68589 0.0
N626 N 0.59983 0.0722 0.71796 0.0
C627 C 0.55364 0.03803 0.68792 0.0
C628 C 0.61804 0.04475 0.72939 0.0
C629 C 0.56742 0.06893 0.70142 0.0
C630 C 0.57253 1.00981 0.69555 0.0
C631 C 0.60482 1.0128 0.71805 0.0
O632 O 0.58495 0.12615 0.80255 0.0
O633 O 0.6367 0.16672 0.67048 0.0
O634 O 0.69965 0.14498 0.64838 0.0
O635 O 0.67702 0.14574 0.75163 0.0
O636 O 0.62212 0.18004 0.76119 0.0
O637 O 0.63373 0.11883 0.84143 0.0
O638 O 0.6355 0.11585 0.4985 0.0
O639 O 0.63126 0.10424 0.6333 0.0
O640 O 0.57899 0.13748 0.68403 0.0
O641 O 0.59773 0.15863 0.58498 0.0
O642 O 0.67432 0.09506 0.58423 0.0
O643 O 0.64772 0.16645 0.4795 0.0
C644 C 0.63113 0.19202 0.70604 0.0
C645 C 0.59668 0.14752 0.90797 0.0
C646 C 0.60061 0.16001 0.02402 0.0
C647 C 0.60752 0.13941 0.97062 0.0
C648 C 0.58253 0.18908 1.01322 0.0
C649 C 0.58009 0.17738 0.89778 0.0
C650 C 0.57272 0.1978 0.95042 0.0
C651 C 0.7025 0.14834 0.71268 0.0
C652 C 0.60302 0.1241 0.8548 0.0
C653 C 0.62407 0.9848 0.72947 0.0
C654 C 0.65595 0.98832 0.75383 0.0
C655 C 0.65075 0.08134 0.61506 0.0
C656 C 0.65417 0.12812 0.39386 0.0
C657 C 0.64074 0.13801 0.33425 0.0
C658 C 0.65398 0.1262 0.27578 0.0
C659 C 0.68135 0.10526 0.27733 0.0
C660 C 0.68124 0.10681 0.39472 0.0
C661 C 0.69503 0.09582 0.33668 0.0
C662 C 0.57331 0.15013 0.6259 0.0
C663 C 0.63843 0.13844 0.4545 0.0
H664 H 0.62175 0.1171 0.97713 0.0
H665 H 0.57582 0.20512 0.05314 0.0
H666 H 0.57238 0.18476 0.8495 0.0
H667 H 0.5592 0.22041 0.94257 0.0
H668 H 0.61937 0.1539 0.33337 0.0
H669 H 0.69204 0.09617 0.23261 0.0
H670 H 0.69113 0.09798 0.44009 0.0
H671 H 0.71597 0.07948 0.33773 0.0
Eu672 Eu 0.89605 0.40771 0.82138 0.0
C673 C 0.79822 0.35838 0.95848 0.0
C674 C 0.7669 0.40776 0.98194 0.0
C675 C 0.73856 0.35776 0.94789 0.0
C676 C 0.79738 0.39136 0.97688 0.0
C677 C 0.76863 0.34114 0.94503 0.0
C678 C 0.7377 0.391 0.96615 0.0
C679 C 0.80016 0.29173 0.92888 0.0
N680 N 0.82774 0.343 0.95435 0.0
C681 C 0.82868 0.30965 0.94297 0.0
C682 C 0.77 0.30761 0.92913 0.0
Eu683 Eu 0.87557 0.37634 0.97331 0.0
N684 N 0.82614 0.40736 0.99034 0.0
C685 C 0.82521 0.43824 1.0178 0.0
C686 C 0.76648 0.44042 1.00394 0.0
C687 C 0.79571 0.45543 0.02334 0.0
H688 H 0.85107 0.29593 0.94621 0.0
H689 H 0.79553 0.48009 0.04388 0.0
H690 H 0.71422 0.40337 0.96894 0.0
H691 H 0.80149 0.2655 0.91886 0.0
H692 H 0.8466 0.44985 0.03827 0.0
H693 H 0.02163 0.37307 0.79622 0.0
H694 H 0.74361 0.45376 1.00862 0.0
H695 H 0.86012 0.47993 0.77429 0.0
H696 H 0.96252 0.3639 0.79417 0.0
H697 H 0.8769 0.53785 0.75611 0.0
H698 H 0.71575 0.34499 0.93682 0.0
H699 H 0.04382 0.43034 0.81185 0.0
H700 H 0.03413 0.49145 0.79939 0.0
H701 H 0.74787 0.29359 0.91846 0.0
H702 H 0.99434 0.53663 0.78487 0.0
N703 N 0.9519 0.41483 0.80507 0.0
C704 C 0.97215 0.38885 0.79514 0.0
C705 C 0.01817 0.42626 0.80212 0.0
C706 C 0.99693 0.45299 0.80099 0.0
C707 C 1.0058 0.39414 0.79489 0.0
C708 C 0.96324 0.4463 0.80229 0.0
H709 H 0.93544 0.55401 0.76628 0.0
N710 N 0.90873 0.46342 0.79441 0.0
C711 C 0.89518 0.51944 0.76766 0.0
C712 C 0.94099 0.47149 0.79582 0.0
C713 C 0.88578 0.48654 0.7778 0.0
C714 C 0.92824 0.5285 0.77363 0.0
C715 C 0.95171 0.50428 0.78697 0.0
O716 O 0.87012 0.41743 0.72984 0.0
O717 O 0.85388 0.38158 0.86994 0.0
O718 O 0.89411 0.33026 0.9268 0.0
O719 O 0.90012 0.34951 0.82093 0.0
O720 O 0.84573 0.42817 0.83156 0.0
O721 O 0.90806 0.38046 0.73321 0.0
O722 O 0.87301 0.34122 0.05234 0.0
O723 O 0.91862 0.39709 0.91824 0.0
O724 O 0.89631 0.45313 0.89156 0.0
O725 O 0.89344 0.42874 0.99286 0.0
O726 O 0.92883 0.35716 0.97607 0.0
O727 O 0.88149 0.3927 0.07417 0.0
C728 C 0.83145 0.40176 0.85135 0.0
C729 C 0.90134 0.40915 0.63526 0.0
C730 C 0.89974 0.41006 0.51676 0.0
C731 C 0.88612 0.40025 0.57653 0.0
C732 C 0.92862 0.42941 0.51728 0.0
C733 C 0.92984 0.42866 0.63466 0.0
C734 C 0.94324 0.43893 0.57591 0.0
C735 C 0.89943 0.32505 0.86472 0.0
C736 C 0.88787 0.3969 0.69652 0.0
C737 C 0.98548 0.5115 0.79012 0.0
C738 C 1.00812 0.48582 0.79815 0.0
C739 C 0.94201 0.37833 0.93693 0.0
C740 C 0.85384 0.36153 0.15301 0.0
C741 C 0.8656 0.37108 0.2143 0.0
C742 C 0.84553 0.36843 0.26923 0.0
C743 C 0.81363 0.3556 0.26241 0.0
C744 C 0.82136 0.35024 0.14611 0.0
C745 C 0.80147 0.34696 0.20091 0.0
C746 C 0.89685 0.45521 0.95621 0.0
C747 C 0.87625 0.36342 0.09774 0.0
H748 H 0.86371 0.3857 0.57774 0.0
H749 H 0.94033 0.43684 0.47247 0.0
H750 H 0.94196 0.43565 0.67929 0.0
H751 H 0.96523 0.45402 0.57578 0.0
H752 H 0.89059 0.38019 0.21937 0.0
H753 H 0.79806 0.35281 0.30451 0.0
H754 H 0.81164 0.34336 0.09882 0.0
H755 H 0.77664 0.33765 0.19575 0.0
Eu756 Eu 0.39682 0.12166 0.71733 0.0
C757 C 0.28419 0.17273 0.5799 0.0
C758 C 0.25056 0.12347 0.58707 0.0
C759 C 0.22518 0.17727 0.59632 0.0
C760 C 0.28165 0.13868 0.57956 0.0
C761 C 0.25579 0.19236 0.58735 0.0
C762 C 0.22265 0.14293 0.59616 0.0
C763 C 0.28944 0.24066 0.57368 0.0
N764 N 0.31412 0.18683 0.5715 0.0
C765 C 0.31642 0.22029 0.563 0.0
C766 C 0.25892 0.22668 0.58577 0.0
Eu767 Eu 0.36055 0.15091 0.5699 0.0
N768 N 0.30939 0.12041 0.57309 0.0
C769 C 0.30692 0.08654 0.57323 0.0
C770 C 0.24829 0.08908 0.58615 0.0
C771 C 0.27662 0.07057 0.57895 0.0
H772 H 0.33975 0.23159 0.55232 0.0
H773 H 0.27533 0.04384 0.57967 0.0
H774 H 0.199 0.13164 0.60322 0.0
H775 H 0.29231 0.26717 0.57365 0.0
H776 H 0.32788 0.07093 0.57308 0.0
H777 H 0.50586 0.19047 0.78626 0.0
H778 H 0.22486 0.07661 0.59183 0.0
H779 H 0.38002 0.04037 0.73096 0.0
H780 H 0.45372 0.18273 0.73006 0.0
H781 H 0.4087 0.98912 0.76064 0.0
H782 H 0.20325 0.19194 0.60288 0.0
H783 H 0.53292 0.14271 0.83579 0.0
H784 H 0.53933 0.08127 0.84376 0.0
H785 H 0.2379 0.24256 0.59298 0.0
H786 H 0.51485 0.02619 0.82958 0.0
N787 N 0.45295 0.13019 0.74042 0.0
C788 C 0.46627 0.16114 0.74698 0.0
C789 C 0.51215 0.13865 0.80471 0.0
C790 C 0.49993 0.10683 0.79396 0.0
C791 C 0.4961 0.1658 0.77886 0.0
C792 C 0.46961 0.10325 0.76148 0.0
H793 H 0.46661 0.99138 0.79665 0.0
N794 N 0.42298 0.07056 0.73785 0.0
C795 C 0.4219 1.01234 0.76043 0.0
C796 C 0.45482 0.07238 0.75716 0.0
C797 C 0.4059 0.04138 0.74272 0.0
C798 C 0.4547 1.01368 0.77981 0.0
C799 C 0.47113 0.04412 0.78105 0.0
O800 O 0.37301 0.10473 0.80632 0.0
O801 O 0.34859 0.14084 0.67695 0.0
O802 O 0.36572 0.1969 0.62865 0.0
O803 O 0.39797 0.18017 0.71554 0.0
O804 O 0.34938 0.0939 0.71776 0.0
O805 O 0.40345 0.1485 0.8095 0.0
O806 O 0.36718 0.1823 0.48513 0.0
O807 O 0.40784 0.13571 0.61724 0.0
O808 O 0.40451 0.07899 0.63962 0.0
O809 O 0.3756 0.09808 0.54977 0.0
O810 O 0.41185 0.17611 0.55922 0.0
O811 O 0.35708 0.13011 0.47172 0.0
C812 C 0.33049 0.11736 0.69872 0.0
C813 C 0.39943 0.11676 0.90602 0.0
C814 C 0.39814 0.11927 0.02478 0.0
C815 C 0.38938 0.13237 0.96357 0.0
C816 C 0.42026 0.09265 0.02702 0.0
C817 C 0.42001 0.08922 0.90996 0.0
C818 C 0.43116 0.07787 0.9699 0.0
C819 C 0.38295 0.20369 0.6808 0.0
C820 C 0.38597 0.12764 0.843 0.0
C821 C 0.50212 0.04751 0.81034 0.0
C822 C 0.51606 0.0789 0.81842 0.0
C823 C 0.42848 0.15642 0.59588 0.0
C824 C 0.34376 0.16586 0.38459 0.0
C825 C 0.35624 0.15545 0.32461 0.0
C826 C 0.34071 0.16451 0.26622 0.0
C827 C 0.31235 0.18405 0.26856 0.0
C828 C 0.31497 0.18462 0.3865 0.0
C829 C 0.29942 0.19376 0.32853 0.0
C830 C 0.39178 0.07435 0.57986 0.0
C831 C 0.36258 0.15837 0.44357 0.0
H832 H 0.37341 0.15359 0.96021 0.0
H833 H 0.42878 0.08278 0.07297 0.0
H834 H 0.42682 0.07588 0.86718 0.0
H835 H 0.44744 0.05685 0.97215 0.0
H836 H 0.37857 0.14094 0.3233 0.0
H837 H 0.29995 0.19131 0.22414 0.0
H838 H 0.30487 0.19263 0.43247 0.0
H839 H 0.27741 0.2086 0.33008 0.0
Eu840 Eu 0.63535 0.61106 0.32526 0.0
C841 C 0.72561 0.69917 0.494 0.0
C842 C 0.77769 0.67376 0.4686 0.0
C843 C 0.77624 0.73055 0.50709 0.0
C844 C 0.74331 0.67188 0.47432 0.0
C845 C 0.74205 0.72811 0.51451 0.0
C846 C 0.79396 0.70361 0.48288 0.0
C847 C 0.68983 0.74934 0.55093 0.0
N848 N 0.69258 0.69623 0.4995 0.0
C849 C 0.67451 0.72059 0.52796 0.0
C850 C 0.72375 0.75318 0.544 0.0
Eu851 Eu 0.66928 0.64484 0.47097 0.0
N852 N 0.72722 0.64278 0.46603 0.0
C853 C 0.7444 0.61406 0.45895 0.0
C854 C 0.79476 0.64512 0.45171 0.0
C855 C 0.77826 0.61492 0.44926 0.0
H856 H 0.64833 0.71754 0.53389 0.0
H857 H 0.79155 0.59234 0.43966 0.0
H858 H 0.82039 0.70557 0.47862 0.0
H859 H 0.67549 0.76857 0.5737 0.0
H860 H 0.73206 0.59046 0.45699 0.0
H861 H 0.52174 0.67219 0.25858 0.0
H862 H 0.82083 0.64567 0.44365 0.0
H863 H 0.65575 0.53099 0.32142 0.0
H864 H 0.57531 0.6685 0.31183 0.0
H865 H 0.63091 0.47796 0.28718 0.0
H866 H 0.78925 0.75289 0.52116 0.0
H867 H 0.49639 0.62235 0.21071 0.0
H868 H 0.49551 0.56069 0.19899 0.0
H869 H 0.73554 0.7756 0.56145 0.0
H870 H 0.5235 0.50752 0.21293 0.0
N871 N 0.57889 0.6161 0.3017 0.0
C872 C 0.56372 0.646 0.29547 0.0
C873 C 0.5186 0.62003 0.239 0.0
C874 C 0.53333 0.58926 0.24818 0.0
C875 C 0.53324 0.64835 0.26476 0.0
C876 C 0.56387 0.58797 0.2806 0.0
H877 H 0.57358 0.47629 0.24723 0.0
N878 N 0.61165 0.55833 0.30883 0.0
C879 C 0.61625 0.50017 0.2875 0.0
C880 C 0.58025 0.55811 0.28641 0.0
C881 C 0.63014 0.53017 0.30743 0.0
C882 C 0.58386 0.49935 0.26511 0.0
C883 C 0.56578 0.52866 0.26246 0.0
O884 O 0.66051 0.59387 0.23833 0.0
O885 O 0.6819 0.63411 0.36497 0.0
O886 O 0.66817 0.68903 0.40594 0.0
O887 O 0.63209 0.6686 0.3266 0.0
O888 O 0.68523 0.58751 0.32424 0.0
O889 O 0.62618 0.63433 0.23053 0.0
O890 O 0.645 0.65123 0.56471 0.0
O891 O 0.62273 0.62589 0.42529 0.0
O892 O 0.62872 0.57227 0.40788 0.0
O893 O 0.67386 0.58898 0.46644 0.0
O894 O 0.61821 0.6683 0.47961 0.0
O895 O 0.68755 0.61992 0.55808 0.0
C896 C 0.70219 0.61269 0.34362 0.0
C897 C 0.63261 0.59937 0.13841 0.0
C898 C 0.62985 0.59994 0.01987 0.0
C899 C 0.63811 0.61552 0.07914 0.0
C900 C 0.61338 0.56929 0.02113 0.0
C901 C 0.61797 0.56795 0.13794 0.0
C902 C 0.60751 0.55348 0.07994 0.0
C903 C 0.64846 0.69327 0.35565 0.0
C904 C 0.64527 0.61399 0.19931 0.0
C905 C 0.53485 0.52979 0.23217 0.0
C906 C 0.51897 0.56008 0.22397 0.0
C907 C 0.60212 0.64709 0.44488 0.0
C908 C 0.67865 0.64793 0.65753 0.0
C909 C 0.66407 0.63881 0.71633 0.0
C910 C 0.67542 0.65227 0.77543 0.0
C911 C 0.70036 0.67629 0.77491 0.0
C912 C 0.70443 0.67102 0.65801 0.0
C913 C 0.71469 0.68567 0.71625 0.0
C914 C 0.65075 0.56686 0.45471 0.0
C915 C 0.66617 0.63353 0.59652 0.0
H916 H 0.65065 0.6392 0.07923 0.0
H917 H 0.60574 0.5571 0.97654 0.0
H918 H 0.61555 0.55401 0.18184 0.0
H919 H 0.59582 0.52943 0.08047 0.0
H920 H 0.64393 0.62121 0.71623 0.0
H921 H 0.70935 0.68703 0.81995 0.0
H922 H 0.71671 0.6777 0.61377 0.0
H923 H 0.73407 0.70402 0.71595 0.0
Eu924 Eu 0.15917 0.87663 0.07037 0.0
C925 C 0.11176 0.97941 0.20297 0.0
C926 C 0.16124 1.0117 0.22048 0.0
C927 C 0.11213 0.03835 0.17936 0.0
C928 C 0.14443 0.98111 0.22177 0.0
C929 C 0.09508 1.00827 0.18312 0.0
C930 C 0.14517 0.03994 0.19761 0.0
C931 C 0.04543 0.97607 0.17486 0.0
N932 N 0.0961 0.94976 0.20489 0.0
C933 C 0.0627 0.94854 0.19688 0.0
C934 C 0.06175 1.00605 0.16726 0.0
Eu935 Eu 0.1296 0.90245 0.22514 0.0
N936 N 0.16008 0.95285 0.23938 0.0
C937 C 0.19153 0.95453 0.26319 0.0
C938 C 0.19397 1.01297 0.24093 0.0
C939 C 0.20897 0.98436 0.26352 0.0
H940 H 0.04889 0.92633 0.20662 0.0
H941 H 0.23404 0.98522 0.28123 0.0
H942 H 0.1582 0.06306 0.19347 0.0
H943 H 0.01938 0.97422 0.16472 0.0
H944 H 0.2037 0.93333 0.283 0.0
H945 H 0.06309 0.78315 0.04416 0.0
H946 H 0.20768 0.03598 0.24047 0.0
H947 H 0.24013 0.88041 0.0501 0.0
H948 H 0.08698 0.83304 0.07795 0.0
H949 H 0.28412 0.85127 0.99601 0.0
H950 H 0.09996 0.06055 0.16273 0.0
H951 H 0.09194 0.74026 0.99539 0.0
H952 H 0.18653 0.71137 0.89856 0.0
H953 H 0.0482 0.02751 0.15106 0.0
H954 H 0.24297 0.7478 0.89913 0.0
N955 N 0.13571 0.82417 0.04823 0.0
C956 C 0.10311 0.81695 0.0537 0.0
C957 C 0.10653 0.76203 1.00587 0.0
C958 C 0.14055 0.76646 0.98974 0.0
C959 C 0.08897 0.78712 0.03467 0.0
C960 C 0.15584 0.80312 1.01799 0.0
H961 H 0.27552 0.79942 0.93727 0.0
N962 N 0.20337 0.84414 0.03321 0.0
C963 C 0.25997 0.83998 0.99666 0.0
C964 C 0.19468 0.81548 1.00401 0.0
C965 C 0.23467 0.85635 0.02955 0.0
C966 C 0.25501 0.8106 0.9622 0.0
C967 C 0.2245 0.79519 0.96106 0.0
O968 O 0.18007 0.90478 0.98991 0.0
O969 O 0.13963 0.92103 0.12222 0.0
O970 O 0.08502 0.88646 0.17083 0.0
O971 O 0.10389 0.89012 0.06491 0.0
O972 O 0.18707 0.92392 0.08511 0.0
O973 O 0.13651 0.8754 0.97294 0.0
O974 O 0.09293 0.90129 0.30141 0.0
O975 O 0.1472 0.85769 0.16975 0.0
O976 O 0.2033 0.86893 0.14299 0.0
O977 O 0.18177 0.88501 0.24297 0.0
O978 O 0.10888 0.84976 0.23254 0.0
O979 O 0.14447 0.9017 0.32777 0.0
C980 C 0.16255 0.94098 0.10585 0.0
C981 C 0.17041 0.88711 0.88146 0.0
C982 C 0.16616 0.89173 0.76308 0.0
C983 C 0.15365 0.89842 0.82578 0.0
C984 C 0.1944 0.87204 0.75724 0.0
C985 C 0.19988 0.87002 0.87346 0.0
C986 C 0.2113 0.86165 0.81215 0.0
C987 C 0.07981 0.88928 0.10821 0.0
C988 C 0.15826 0.89514 0.94728 0.0
C989 C 0.22173 0.75776 0.92355 0.0
C990 C 0.18632 0.73512 0.92419 0.0
C991 C 0.1281 0.83526 0.1919 0.0
C992 C 0.10707 0.92474 0.40331 0.0
C993 C 0.11963 0.91699 0.46493 0.0
C994 C 0.11039 0.93538 0.51983 0.0
C995 C 0.08858 0.96183 0.51263 0.0
C996 C 0.08591 0.95181 0.39635 0.0
C997 C 0.07669 0.97018 0.45093 0.0
C998 C 0.20655 0.8746 0.20711 0.0
C999 C 0.11433 0.90257 0.34858 0.0
H1000 H 0.1318 0.91329 0.83148 0.0
H1001 H 0.20389 0.86507 0.71006 0.0
H1002 H 0.21414 0.86284 0.91432 0.0
H1003 H 0.23359 0.84741 0.80723 0.0
H1004 H 0.13595 0.89606 0.47047 0.0
H1005 H 0.08123 0.97629 0.5545 0.0
H1006 H 0.07609 0.95838 0.3491 0.0
H1007 H 0.0601 0.9908 0.44546 0.0
Eu1008 Eu 0.89536 0.6313 0.23031 0.0
C1009 C 0.78259 0.67044 0.09372 0.0
C1010 C 0.75409 0.61782 0.09345 0.0
C1011 C 0.72372 0.66816 0.1135 0.0
C1012 C 0.78336 0.6364 0.08738 0.0
C1013 C 0.75246 0.68673 0.10435 0.0
C1014 C 0.72468 0.63375 0.10858 0.0
C1015 C 0.7806 0.73864 0.09064 0.0
N1016 N 0.81084 0.6878 0.08614 0.0
C1017 C 0.80964 0.72141 0.07955 0.0
C1018 C 0.75193 0.72124 0.10428 0.0
Eu1019 Eu 0.86022 0.65671 0.07807 0.0
N1020 N 0.8125 0.62143 0.07489 0.0
C1021 C 0.81292 0.58814 0.06194 0.0
C1022 C 0.75507 0.58367 0.08417 0.0
C1023 C 0.78452 0.56889 0.0672 0.0
H1024 H 0.83129 0.7353 0.06703 0.0
H1025 H 0.7854 0.54258 0.05787 0.0
H1026 H 0.70255 0.61952 0.11568 0.0
H1027 H 0.78039 0.76534 0.08881 0.0
H1028 H 0.83455 0.57554 0.04651 0.0
H1029 H 1.00799 0.70269 0.26823 0.0
H1030 H 0.7331 0.56864 0.08853 0.0
H1031 H 0.88028 0.55063 0.2552 0.0
H1032 H 0.95298 0.6924 0.22477 0.0
H1033 H 0.90831 0.50237 0.30209 0.0
H1034 H 0.70055 0.68018 0.12325 0.0
H1035 H 0.03765 0.6583 0.32544 0.0
H1036 H 0.03803 0.60022 0.36682 0.0
H1037 H 0.72936 0.73463 0.11254 0.0
H1038 H 1.01282 0.54497 0.36997 0.0
N1039 N 0.95177 0.6415 0.25116 0.0
C1040 C 0.96569 0.67226 0.24731 0.0
C1041 C 1.01379 0.65318 0.30416 0.0
C1042 C 0.99939 0.62183 0.30873 0.0
C1043 C 0.99708 0.67834 0.27221 0.0
C1044 C 0.96842 0.61636 0.27951 0.0
H1045 H 0.96528 0.50785 0.34283 0.0
N1046 N 0.92244 0.58198 0.26058 0.0
C1047 C 0.92144 0.52551 0.2966 0.0
C1048 C 0.95369 0.5855 0.28276 0.0
C1049 C 0.90577 0.55283 0.26938 0.0
C1050 C 0.95362 0.52868 0.31933 0.0
C1051 C 0.96976 0.55917 0.31452 0.0
O1052 O 0.86895 0.6177 0.31852 0.0
O1053 O 0.84705 0.64797 0.18484 0.0
O1054 O 0.86741 0.70445 0.13058 0.0
O1055 O 0.89593 0.6892 0.22402 0.0
O1056 O 0.84865 0.60197 0.22938 0.0
O1057 O 0.90179 0.65969 0.32068 0.0
O1058 O 0.86275 0.68979 0.99544 0.0
O1059 O 0.90665 0.64358 0.1291 0.0
O1060 O 0.90375 0.58682 0.15908 0.0
O1061 O 0.88108 0.60557 0.06185 0.0
O1062 O 0.91155 0.6806 0.06309 0.0
O1063 O 0.85811 0.637 0.97909 0.0
C1064 C 0.82931 0.62406 0.20609 0.0
C1065 C 0.8944 0.62995 0.41882 0.0
C1066 C 0.89321 0.63595 0.53643 0.0
C1067 C 0.88522 0.64778 0.47426 0.0
C1068 C 0.91254 0.60757 0.54294 0.0
C1069 C 0.91236 0.60073 0.42645 0.0
C1070 C 0.92218 0.5901 0.4879 0.0
C1071 C 0.88279 0.71191 0.18481 0.0
C1072 C 0.8826 0.64049 0.35437 0.0
C1073 C 1.00039 0.56466 0.34427 0.0
C1074 C 0.0148 0.59608 0.34247 0.0
C1075 C 0.92767 0.66275 0.10403 0.0
C1076 C 0.83935 0.67245 0.89622 0.0
C1077 C 0.85272 0.66684 0.83486 0.0
C1078 C 0.8354 0.67553 0.77833 0.0
C1079 C 0.80401 0.68953 0.78456 0.0
C1080 C 0.80771 0.68546 0.90194 0.0
C1081 C 0.79019 0.69417 0.84604 0.0
C1082 C 0.8952 0.58218 0.09672 0.0
C1083 C 0.86008 0.66615 0.95272 0.0
H1084 H 0.87079 0.67007 0.46932 0.0
H1085 H 0.91883 0.59807 0.59062 0.0
H1086 H 0.91787 0.58544 0.38561 0.0
H1087 H 0.93614 0.56756 0.49294 0.0
H1088 H 0.87677 0.65561 0.83158 0.0
H1089 H 0.79036 0.69723 0.74205 0.0
H1090 H 0.79701 0.68973 0.94928 0.0
H1091 H 0.76611 0.70505 0.85042 0.0
Eu1092 Eu 0.1406 0.10855 0.82344 0.0
C1093 C 0.23002 0.19315 0.99378 0.0
C1094 C 0.28135 0.16366 0.98083 0.0
C1095 C 0.28213 0.22217 1.00703 0.0
C1096 C 0.2467 0.16395 0.97992 0.0
C1097 C 0.24774 0.22214 1.00986 0.0
C1098 C 0.29888 0.19305 0.99229 0.0
C1099 C 0.19642 0.24839 0.03688 0.0
N1100 N 0.19671 0.19258 0.9972 0.0
C1101 C 0.17985 0.21925 0.02052 0.0
C1102 C 0.23048 0.24991 0.03123 0.0
Eu1103 Eu 0.17146 0.14149 0.97212 0.0
N1104 N 0.22935 0.1354 0.97127 0.0
C1105 C 0.24531 0.1057 0.96853 0.0
C1106 C 0.29746 0.1335 0.97341 0.0
C1107 C 0.27943 0.10442 0.96795 0.0
H1108 H 0.15346 0.2183 0.02457 0.0
H1109 H 0.29183 0.0809 0.96391 0.0
H1110 H 0.32546 0.19324 0.99233 0.0
H1111 H 0.18298 0.26968 0.05378 0.0
H1112 H 0.23238 0.0826 0.96455 0.0
H1113 H 0.02694 0.17144 0.75906 0.0
H1114 H 0.32376 0.13206 0.97469 0.0
H1115 H 0.15921 0.02755 0.82337 0.0
H1116 H 0.08082 0.16694 0.81106 0.0
H1117 H 0.1345 0.97544 0.78326 0.0
H1118 H 0.29606 0.24436 1.01831 0.0
H1119 H 1.00122 0.12236 0.70815 0.0
H1120 H 1.00366 0.06205 0.68297 0.0
H1121 H 0.24329 0.27249 0.04459 0.0
H1122 H 0.03107 1.00855 0.6936 0.0
N1123 N 0.08468 0.11481 0.79632 0.0
C1124 C 0.06948 0.14482 0.79213 0.0
C1125 C 0.0243 0.11985 0.73388 0.0
C1126 C 0.0398 0.08916 0.73868 0.0
C1127 C 0.03883 0.14764 0.76213 0.0
C1128 C 0.07011 0.0872 0.77163 0.0
H1129 H 0.07928 0.97588 0.73276 0.0
N1130 N 0.1167 0.05631 0.80343 0.0
C1131 C 0.12057 0.99812 0.78153 0.0
C1132 C 0.08637 0.05711 0.77593 0.0
C1133 C 0.13427 0.02756 0.80509 0.0
C1134 C 0.08943 0.9985 0.75296 0.0
C1135 C 0.07221 0.02827 0.74879 0.0
O1136 O 0.17029 0.09299 0.74151 0.0
O1137 O 0.18665 0.13159 0.86698 0.0
O1138 O 0.16329 0.18698 0.91265 0.0
O1139 O 0.13814 0.16588 0.81897 0.0
O1140 O 0.18989 0.08428 0.82932 0.0
O1141 O 0.13049 0.12702 0.72444 0.0
O1142 O 0.14485 0.11911 0.05352 0.0
O1143 O 0.12598 0.12396 0.92225 0.0
O1144 O 0.13244 0.06957 0.90522 0.0
O1145 O 0.17656 0.08572 0.96792 0.0
O1146 O 0.1209 0.16618 0.97783 0.0
O1147 O 0.18893 0.14688 0.07235 0.0
C1148 C 0.20692 0.10958 0.84808 0.0
C1149 C 0.14454 0.08932 0.6391 0.0
C1150 C 0.13879 0.08756 0.52062 0.0
C1151 C 0.14015 0.10561 0.57948 0.0
C1152 C 0.13969 0.05277 0.52327 0.0
C1153 C 0.14528 0.05463 0.63995 0.0
C1154 C 0.14227 0.03654 0.58262 0.0
C1155 C 0.14889 0.19087 0.85579 0.0
C1156 C 0.15298 0.10851 0.69818 0.0
C1157 C 0.04208 0.03027 0.71582 0.0
C1158 C 0.02627 0.06071 0.71002 0.0
C1159 C 0.1053 0.14523 0.94115 0.0
C1160 C 0.14846 0.14818 0.15294 0.0
C1161 C 0.1531 0.13578 0.2158 0.0
C1162 C 0.13795 0.15093 0.2691 0.0
C1163 C 0.11949 0.17967 0.25981 0.0
C1164 C 0.12917 0.17644 0.14389 0.0
C1165 C 0.11513 0.19234 0.19727 0.0
C1166 C 0.15383 0.06361 0.95304 0.0
C1167 C 0.16415 0.13155 0.0978 0.0
H1168 H 0.13933 0.13237 0.57903 0.0
H1169 H 0.13951 0.03785 0.47949 0.0
H1170 H 0.14966 0.04135 0.6844 0.0
H1171 H 0.14332 1.00982 0.58396 0.0
H1172 H 0.16846 0.11443 0.22357 0.0
H1173 H 0.10763 0.19162 0.30057 0.0
H1174 H 0.12483 0.18616 0.09587 0.0
H1175 H 0.10032 0.21414 0.18998 0.0
Eu1176 Eu 0.66158 0.38322 0.56589 0.0
C1177 C 0.61193 0.48093 0.70394 0.0
C1178 C 0.65824 0.51389 0.741 0.0
C1179 C 0.6131 0.54016 0.68382 0.0
C1180 C 0.64252 0.48297 0.73362 0.0
C1181 C 0.59645 0.50977 0.68069 0.0
C1182 C 0.64407 0.5421 0.71332 0.0
C1183 C 0.54869 0.47677 0.65548 0.0
N1184 N 0.59706 0.45092 0.69887 0.0
C1185 C 0.56493 0.44904 0.67967 0.0
C1186 C 0.56474 0.50722 0.65485 0.0
Eu1187 Eu 0.63009 0.40433 0.72577 0.0
N1188 N 0.65656 0.45492 0.75659 0.0
C1189 C 0.68265 0.45725 0.79871 0.0
C1190 C 0.68748 0.51559 0.77682 0.0
C1191 C 0.69903 0.48735 0.80793 0.0
H1192 H 0.55113 0.42651 0.68418 0.0
H1193 H 0.72063 0.48867 0.83875 0.0
H1194 H 0.65672 0.56556 0.71515 0.0
H1195 H 0.52352 0.47472 0.63867 0.0
H1196 H 0.69159 0.43583 0.82445 0.0
H1197 H 0.58008 0.29135 0.45382 0.0
H1198 H 0.70053 0.53876 0.78314 0.0
H1199 H 0.74459 0.38749 0.56732 0.0
H1200 H 0.59471 0.33285 0.53493 0.0
H1201 H 0.79088 0.35987 0.51354 0.0
H1202 H 0.60207 0.56237 0.66434 0.0
H1203 H 0.6229 0.26674 0.38444 0.0
H1204 H 0.68239 0.26182 0.35669 0.0
H1205 H 0.55204 0.52874 0.63646 0.0
H1206 H 0.73968 0.27859 0.37636 0.0
N1207 N 0.64577 0.33398 0.51148 0.0
C1208 C 0.61388 0.32356 0.50465 0.0
C1209 C 0.62956 0.2857 0.41949 0.0
C1210 C 0.66224 0.29573 0.42758 0.0
C1211 C 0.60534 0.29947 0.45863 0.0
C1212 C 0.66968 0.32049 0.47406 0.0
H1213 H 0.78034 0.31415 0.43612 0.0
N1214 N 0.70838 0.35425 0.5292 0.0
C1215 C 0.76608 0.35086 0.50586 0.0
C1216 C 0.702 0.33026 0.4845 0.0
C1217 C 0.73981 0.36582 0.53773 0.0
C1218 C 0.76 0.32527 0.46177 0.0
C1219 C 0.72767 0.31503 0.44976 0.0
O1220 O 0.68385 0.41695 0.49576 0.0
O1221 O 0.63982 0.42463 0.6242 0.0
O1222 O 0.58731 0.38189 0.67221 0.0
O1223 O 0.60479 0.38784 0.56508 0.0
O1224 O 0.68744 0.43075 0.59088 0.0
O1225 O 0.63862 0.3921 0.47038 0.0
O1226 O 0.58944 0.40487 0.7942 0.0
O1227 O 0.64333 0.36239 0.65911 0.0
O1228 O 0.70253 0.37031 0.64291 0.0
O1229 O 0.6853 0.39998 0.73354 0.0
O1230 O 0.63073 0.34909 0.75114 0.0
O1231 O 0.63917 0.39717 0.82956 0.0
C1232 C 0.66194 0.44618 0.61211 0.0
C1233 C 0.67614 0.40294 0.38467 0.0
C1234 C 0.67133 0.40094 0.26553 0.0
C1235 C 0.65797 0.40883 0.32724 0.0
C1236 C 0.70201 0.38507 0.26333 0.0
C1237 C 0.70792 0.39009 0.37941 0.0
C1238 C 0.72022 0.38018 0.31971 0.0
C1239 C 0.58152 0.38246 0.60912 0.0
C1240 C 0.66255 0.41078 0.44972 0.0
C1241 C 0.72029 0.29043 0.4036 0.0
C1242 C 0.68767 0.28098 0.39222 0.0
C1243 C 0.63984 0.33723 0.69608 0.0
C1244 C 0.60211 0.42263 0.9024 0.0
C1245 C 0.61658 0.4146 0.96259 0.0
C1246 C 0.60841 0.43227 0.01927 0.0
C1247 C 0.58574 0.45817 1.01514 0.0
C1248 C 0.58039 0.44941 0.89892 0.0
C1249 C 0.57217 0.46692 0.95511 0.0
C1250 C 0.70811 0.38369 0.70171 0.0
C1251 C 0.6085 0.4016 0.84513 0.0
H1252 H 0.63411 0.42034 0.33088 0.0
H1253 H 0.71243 0.37677 0.21782 0.0
H1254 H 0.72352 0.38771 0.42138 0.0
H1255 H 0.74418 0.36903 0.31709 0.0
H1256 H 0.63363 0.39414 0.96564 0.0
H1257 H 0.57902 0.47199 0.0582 0.0
H1258 H 0.56951 0.45656 0.85302 0.0
H1259 H 0.55508 0.48726 0.95217 0.0
Eu1260 Eu 0.38101 0.883 0.48468 0.0
C1261 C 0.42201 0.97983 0.33154 0.0
C1262 C 0.37257 1.00872 0.299 0.0
C1263 C 0.4205 0.04004 0.33371 0.0
C1264 C 0.38955 0.97883 0.31024 0.0
C1265 C 0.43791 1.01057 0.34195 0.0
C1266 C 0.38794 0.0391 0.3123 0.0
C1267 C 0.48831 0.98134 0.36095 0.0
N1268 N 0.43858 0.95099 0.33902 0.0
C1269 C 0.47176 0.95167 0.34889 0.0
C1270 C 0.4712 1.01094 0.35865 0.0
Eu1271 Eu 0.40807 0.9013 0.3231 0.0
N1272 N 0.3748 0.94895 0.2994 0.0
C1273 C 0.34443 0.94806 0.27001 0.0
C1274 C 0.34052 1.00738 0.27478 0.0
C1275 C 0.32663 0.97693 0.25921 0.0
H1276 H 0.48611 0.92958 0.34564 0.0
H1277 H 0.30239 0.97566 0.23745 0.0
H1278 H 0.37492 0.06209 0.30577 0.0
H1279 H 0.51447 0.98137 0.37055 0.0
H1280 H 0.33355 0.92559 0.25198 0.0
H1281 H 0.46552 0.79652 0.59985 0.0
H1282 H 0.32671 0.02975 0.26593 0.0
H1283 H 0.29845 0.88729 0.49307 0.0
H1284 H 0.4486 0.8344 0.51402 0.0
H1285 H 0.25315 0.85956 0.55041 0.0
H1286 H 0.43221 0.06375 0.34248 0.0
H1287 H 0.42427 0.77286 0.67442 0.0
H1288 H 0.36517 0.76648 0.70521 0.0
H1289 H 0.48421 0.03399 0.36706 0.0
H1290 H 0.30738 0.78133 0.68777 0.0
N1291 N 0.39816 0.8353 0.54177 0.0
C1292 C 0.43022 0.82568 0.54702 0.0
C1293 C 0.41671 0.79049 0.6378 0.0
C1294 C 0.38371 0.79919 0.6305 0.0
C1295 C 0.44004 0.80375 0.59576 0.0
C1296 C 0.37516 0.82254 0.58248 0.0
H1297 H 0.26532 0.81495 0.62869 0.0
N1298 N 0.33514 0.85419 0.52747 0.0
C1299 C 0.27804 0.85076 0.5562 0.0
C1300 C 0.34253 0.83121 0.5732 0.0
C1301 C 0.30363 0.86558 0.52178 0.0
C1302 C 0.28507 0.82587 0.60083 0.0
C1303 C 0.31768 0.81634 0.61095 0.0
O1304 O 0.3593 0.91708 0.55443 0.0
O1305 O 0.40189 0.92426 0.42449 0.0
O1306 O 0.45412 0.88387 0.37161 0.0
O1307 O 0.43819 0.88813 0.48018 0.0
O1308 O 0.35539 0.93085 0.46247 0.0
O1309 O 0.40519 0.89335 0.57842 0.0
O1310 O 0.44543 0.90345 0.24858 0.0
O1311 O 0.39678 0.85929 0.39176 0.0
O1312 O 0.33763 0.86884 0.41335 0.0
O1313 O 0.35596 0.8847 0.31136 0.0
O1314 O 0.41524 0.84566 0.30382 0.0
O1315 O 0.39464 0.89606 0.22062 0.0
C1316 C 0.38056 0.94616 0.43911 0.0
C1317 C 0.36831 0.90397 0.66493 0.0
C1318 C 0.37567 0.90124 0.7822 0.0
C1319 C 0.38819 0.90851 0.72027 0.0
C1320 C 0.34389 0.88829 0.78862 0.0
C1321 C 0.33568 0.89327 0.67308 0.0
C1322 C 0.32393 0.88445 0.73409 0.0
C1323 C 0.46101 0.88481 0.43416 0.0
C1324 C 0.38114 0.91158 0.59955 0.0
C1325 C 0.32613 0.79295 0.65834 0.0
C1326 C 0.35906 0.78461 0.66847 0.0
C1327 C 0.4042 0.83368 0.35751 0.0
C1328 C 0.42768 0.92603 0.14861 0.0
C1329 C 0.42125 0.91653 0.08427 0.0
C1330 C 0.42446 0.93946 0.03332 0.0
C1331 C 0.43462 0.97196 0.04804 0.0
C1332 C 0.4362 0.9589 0.16242 0.0
C1333 C 0.44013 0.98161 0.1123 0.0
C1334 C 0.33278 0.87347 0.3495 0.0
C1335 C 0.42444 0.90154 0.20061 0.0
H1336 H 0.41276 0.91865 0.71548 0.0
H1337 H 0.33397 0.88286 0.83625 0.0
H1338 H 0.31891 0.89221 0.63268 0.0
H1339 H 0.29893 0.87569 0.73931 0.0
H1340 H 0.413 0.89148 0.07442 0.0
H1341 H 0.43818 0.99004 1.00997 0.0
H1342 H 0.44109 0.96683 0.21154 0.0
H1343 H 0.44762 1.00672 0.12328 0.0
C1344 C 0.14697 0.6346 0.68084 0.0
C1345 C 0.16442 0.60952 0.71315 0.0
H1346 H 0.1201 0.6485 0.59442 0.0
C1347 C 0.16773 0.57876 0.68247 0.0
H1348 H 0.14481 0.65885 0.7028 0.0
C1349 C 0.15405 0.57301 0.62113 0.0
C1350 C 0.13663 0.59777 0.58807 0.0
H1351 H 0.1816 0.55922 0.70559 0.0
H1352 H 0.15787 0.54921 0.59884 0.0
C1353 C 0.13332 0.62883 0.61853 0.0
C1354 C 0.65995 0.88551 0.95045 0.0
C1355 C 0.63874 0.91251 0.96 0.0
H1356 H 0.6783 0.84911 0.8835 0.0
C1357 C 0.62013 0.92368 0.90629 0.0
H1358 H 0.67472 0.87605 0.98995 0.0
C1359 C 0.62292 0.90875 0.84528 0.0
C1360 C 0.64387 0.88187 0.8364 0.0
H1361 H 0.60262 0.94352 0.91131 0.0
H1362 H 0.60775 0.91742 0.80548 0.0
C1363 C 0.66236 0.87026 0.8893 0.0
C1364 C 0.34585 0.41126 0.1581 0.0
C1365 C 0.36317 0.39403 0.20659 0.0
H1366 H 0.34721 0.43277 0.06332 0.0
C1367 C 0.39584 0.38478 0.19512 0.0
H1368 H 0.32101 0.41969 0.16623 0.0
C1369 C 0.41068 0.39221 0.13577 0.0
C1370 C 0.39305 0.40895 0.08727 0.0
H1371 H 0.40976 0.37156 0.23166 0.0
H1372 H 0.43584 0.38477 0.12759 0.0
C1373 C 0.36068 0.41861 0.09905 0.0
C1374 C 0.88317 0.10869 0.44954 0.0
C1375 C 0.91657 0.10227 0.45929 0.0
H1376 H 0.84617 0.12614 0.38513 0.0
C1377 C 0.93905 0.10959 0.4099 0.0
H1378 H 0.8654 0.10291 0.48695 0.0
C1379 C 0.92826 0.12421 0.35204 0.0
C1380 C 0.89473 0.13109 0.34237 0.0
H1381 H 0.96499 0.10489 0.41688 0.0
H1382 H 0.94625 0.13065 0.3156 0.0
C1383 C 0.8723 0.12244 0.39144 0.0
C1384 C 0.16418 0.35277 0.38182 0.0
C1385 C 0.14533 0.36396 0.3288 0.0
H1386 H 0.17939 0.3608 0.48031 0.0
C1387 C 0.12669 0.39276 0.33623 0.0
H1388 H 0.17904 0.33076 0.37744 0.0
C1389 C 0.12662 0.40977 0.39552 0.0
C1390 C 0.14573 0.39885 0.44866 0.0
H1391 H 0.11147 0.40172 0.29673 0.0
H1392 H 0.11124 0.43141 0.39964 0.0
C1393 C 0.16431 0.36994 0.44099 0.0
C1394 C 0.861 0.91836 0.66172 0.0
C1395 C 0.86423 0.8913 0.70362 0.0
H1396 H 0.87284 0.93912 0.56939 0.0
C1397 C 0.88258 0.86392 0.68447 0.0
H1398 H 0.84687 0.93975 0.67622 0.0
C1399 C 0.89647 0.8629 0.62274 0.0
C1400 C 0.89303 0.88968 0.57957 0.0
H1401 H 0.88494 0.84273 0.71623 0.0
H1402 H 0.90887 0.84048 0.6083 0.0
C1403 C 0.87557 0.91774 0.60041 0.0
C1404 C 0.37462 0.60137 0.85781 0.0
C1405 C 0.38575 0.63313 0.84178 0.0
H1406 H 0.3738 0.56291 0.92889 0.0
C1407 C 0.40579 0.65059 0.88554 0.0
H1408 H 0.35833 0.58795 0.82526 0.0
C1409 C 0.41468 0.63641 0.94487 0.0
C1410 C 0.40342 0.60458 0.96156 0.0
H1411 H 0.41451 0.67519 0.87378 0.0
H1412 H 0.43044 0.65037 0.97759 0.0
C1413 C 0.38343 0.58715 0.91712 0.0
C1414 C 0.61612 0.11804 0.10889 0.0
C1415 C 0.61269 0.15134 0.09027 0.0
H1416 H 0.63221 0.08415 0.18213 0.0
C1417 C 0.62181 0.17626 0.13493 0.0
H1418 H 0.60856 0.09806 0.07697 0.0
C1419 C 0.63437 0.1681 0.19607 0.0
C1420 C 0.63883 0.13492 0.21308 0.0
H1421 H 0.62014 0.20214 0.12229 0.0
H1422 H 0.64158 0.18771 0.22928 0.0
C1423 C 0.62941 0.10996 0.16935 0.0
C1424 C 0.87308 0.41048 0.33978 0.0
C1425 C 0.85803 0.37938 0.33329 0.0
H1426 H 0.89662 0.44514 0.40304 0.0
C1427 C 0.85557 0.35876 0.38776 0.0
H1428 H 0.87483 0.42701 0.29854 0.0
C1429 C 0.86885 0.36873 0.44749 0.0
C1430 C 0.88435 0.39978 0.45408 0.0
H1431 H 0.84422 0.33457 0.38369 0.0
H1432 H 0.86766 0.35167 0.48788 0.0
C1433 C 0.88576 0.42072 0.39963 0.0
C1434 C 0.36021 0.17566 0.15264 0.0
C1435 C 0.35419 0.15326 0.2033 0.0
H1436 H 0.37976 0.18291 0.05723 0.0
C1437 C 0.36172 0.11984 0.19427 0.0
H1438 H 0.35461 0.20163 0.15859 0.0
C1439 C 0.37549 0.10896 0.1362 0.0
C1440 C 0.38271 0.13139 0.08591 0.0
H1441 H 0.35652 0.10201 0.23198 0.0
H1442 H 0.38016 0.08279 0.13073 0.0
C1443 C 0.37453 0.16488 0.09458 0.0
C1444 C 0.65229 0.59276 0.90794 0.0
C1445 C 0.64074 0.61397 0.95696 0.0
H1446 H 0.67261 0.58864 0.81293 0.0
C1447 C 0.64087 0.64827 0.94588 0.0
H1448 H 0.65375 0.56633 0.91549 0.0
C1449 C 0.65197 0.66095 0.88666 0.0
C1450 C 0.66286 0.63951 0.83764 0.0
H1451 H 0.63217 0.66529 0.98261 0.0
H1452 H 0.65183 0.68741 0.87894 0.0
C1453 C 0.66309 0.60542 0.849 0.0
C1454 C 0.15813 0.92554 0.59249 0.0
C1455 C 0.12405 0.92692 0.58418 0.0
H1456 H 0.19801 0.91518 0.65634 0.0
C1457 C 0.10346 0.91901 0.63654 0.0
H1458 H 0.17444 0.93202 0.55299 0.0
C1459 C 0.1169 0.90833 0.69569 0.0
C1460 C 0.15115 0.90581 0.7033 0.0
H1461 H 0.07702 0.91995 0.6309 0.0
H1462 H 0.10051 0.90104 0.73443 0.0
C1463 C 0.17152 0.91561 0.6516 0.0
C1464 C 0.8842 0.67169 0.70435 0.0
C1465 C 0.84999 0.66921 0.7135 0.0
H1466 H 0.92474 0.66291 0.64048 0.0
C1467 C 0.83013 0.65856 0.66133 0.0
H1468 H 0.90026 0.68046 0.74289 0.0
C1469 C 0.84426 0.64939 0.60245 0.0
C1470 C 0.8784 0.65059 0.59465 0.0
H1471 H 0.80383 0.65571 0.6668 0.0
H1472 H 0.82867 0.63948 0.56443 0.0
C1473 C 0.89829 0.66208 0.64565 0.0
C1474 C 0.15422 0.1352 0.4474 0.0
C1475 C 0.13812 0.1046 0.45642 0.0
H1476 H 0.16651 0.17405 0.38057 0.0
C1477 C 0.12238 0.08966 0.40259 0.0
H1478 H 0.16731 0.14721 0.48693 0.0
C1479 C 0.12325 0.10444 0.34152 0.0
C1480 C 0.13891 0.135 0.33322 0.0
H1481 H 0.10905 0.06661 0.40741 0.0
H1482 H 0.11103 0.09234 0.30091 0.0
C1483 C 0.15422 0.15045 0.38644 0.0
C1484 C 0.62006 0.41029 0.19746 0.0
C1485 C 0.65452 0.40975 0.20308 0.0
H1486 H 0.57844 0.41789 0.13465 0.0
C1487 C 0.67332 0.41743 0.14755 0.0
H1488 H 0.60464 0.40442 0.2386 0.0
C1489 C 0.65829 0.42403 0.08792 0.0
C1490 C 0.62403 0.42424 0.08244 0.0
H1491 H 0.69985 0.41868 0.14986 0.0
H1492 H 0.67349 0.42971 0.04627 0.0
C1493 C 0.60499 0.41774 0.13782 0.0
C1494 C 0.39923 0.95306 0.92566 0.0
C1495 C 0.41543 0.93014 0.96568 0.0
H1496 H 0.3741 0.9614 0.83571 0.0
C1497 C 0.42106 0.89801 0.94168 0.0
H1498 H 0.39361 0.97769 0.94292 0.0
C1499 C 0.4097 0.8888 0.87992 0.0
C1500 C 0.39305 0.91173 0.84122 0.0
H1501 H 0.43368 0.8798 0.97094 0.0
H1502 H 0.41295 0.86362 0.86321 0.0
C1503 C 0.38815 0.94389 0.8641 0.0
C1504 C 0.1565 0.74405 0.19895 0.0
C1505 C 0.12735 0.72609 0.18547 0.0
H1506 H 0.18096 0.79174 0.20443 0.0
C1507 C 0.09853 0.7449 0.17926 0.0
H1508 H 0.17792 0.73109 0.21612 0.0
C1509 C 0.09925 0.77981 0.18237 0.0
C1510 C 0.12907 0.79777 0.1861 0.0
H1511 H 0.07503 0.73252 0.17381 0.0
H1512 H 0.07619 0.79297 0.17979 0.0
C1513 C 0.15785 0.77916 0.19531 0.0
C1514 C 0.54922 0.91327 0.46077 0.0
C1515 C 0.56655 0.88351 0.45457 0.0
H1516 H 0.50192 0.93651 0.46653 0.0
C1517 C 0.54845 0.85385 0.4498 0.0
H1518 H 0.56237 0.9364 0.46699 0.0
C1519 C 0.51401 0.85411 0.44572 0.0
C1520 C 0.49661 0.88382 0.45137 0.0
H1521 H 0.56106 0.83046 0.44685 0.0
H1522 H 0.50096 0.83108 0.43733 0.0
C1523 C 0.51461 0.91327 0.46105 0.0
C1524 C 0.41994 0.2906 0.70315 0.0
C1525 C 0.39268 0.3112 0.69021 0.0
H1526 H 0.4387 0.24092 0.71113 0.0
C1527 C 0.36193 0.29578 0.68232 0.0
H1528 H 0.44403 0.30148 0.71035 0.0
C1529 C 0.35882 0.26105 0.685 0.0
C1530 C 0.38624 0.24026 0.69491 0.0
H1531 H 0.34022 0.31051 0.67373 0.0
H1532 H 0.33471 0.25028 0.67819 0.0
C1533 C 0.41686 0.25572 0.70489 0.0
C1534 C 1.01421 0.16901 0.94479 0.0
C1535 C 0.99818 0.1384 0.93749 0.0
H1536 H 0.06016 0.19495 0.95287 0.0
C1537 C 0.01777 0.10982 0.93446 0.0
H1538 H 1.00009 0.19157 0.94684 0.0
C1539 C 0.05233 0.11179 0.93486 0.0
C1540 C 0.06844 0.14251 0.9399 0.0
H1541 H 1.00634 0.08578 0.93188 0.0
H1542 H 0.06642 0.08923 0.93137 0.0
C1543 C 0.0488 0.17094 0.9471 0.0
C1544 C 0.15196 0.27986 0.79684 0.0
C1545 C 0.131 0.29498 0.84235 0.0
H1546 H 0.17413 0.23427 0.76462 0.0
C1547 C 0.11263 0.27461 0.88397 0.0
H1548 H 0.16702 0.29489 0.76517 0.0
C1549 C 0.11683 0.24043 0.88373 0.0
C1550 C 0.13906 0.22531 0.84129 0.0
H1551 H 0.09649 0.2853 0.92002 0.0
H1552 H 0.10426 0.22598 0.92012 0.0
C1553 C 0.15608 0.2452 0.79653 0.0
C1554 C 0.02478 0.8636 0.11531 0.0
C1555 C 0.04515 0.88778 0.0874 0.0
H1556 H 0.9757 0.84888 0.13844 0.0
C1557 C 0.03084 0.91395 0.0529 0.0
H1558 H 0.03524 0.84356 0.14334 0.0
C1559 C 0.99653 0.91731 0.05127 0.0
C1560 C 0.97641 0.89401 0.08247 0.0
H1561 H 0.04608 0.93334 0.03271 0.0
H1562 H 0.98588 0.93921 0.02975 0.0
C1563 C 0.99073 0.86657 0.11244 0.0
C1564 C 0.43442 0.74349 0.37208 0.0
C1565 C 0.40603 0.72375 0.36178 0.0
H1566 H 0.45574 0.79225 0.38318 0.0
C1567 C 0.37653 0.74125 0.34992 0.0
H1568 H 0.45795 0.7316 0.37866 0.0
C1569 C 0.37544 0.77668 0.35164 0.0
C1570 C 0.40332 0.79622 0.36861 0.0
H1571 H 0.35423 0.7276 0.33896 0.0
H1572 H 0.35249 0.78884 0.34031 0.0
C1573 C 0.43307 0.77864 0.37568 0.0
C1574 C 0.51753 0.12375 0.6035 0.0
C1575 C 0.53709 0.15273 0.60725 0.0
H1576 H 0.46913 0.10183 0.59917 0.0
C1577 C 0.52028 0.1831 0.60408 0.0
H1578 H 0.52913 0.0998 0.60337 0.0
C1579 C 0.4854 0.18424 0.59878 0.0
C1580 C 0.4659 0.15512 0.59911 0.0
H1581 H 0.53398 0.20603 0.60778 0.0
H1582 H 0.47353 0.20811 0.59723 0.0
C1583 C 0.4828 0.12485 0.60047 0.0
C1584 C 0.8718 0.23732 0.82491 0.0
C1585 C 0.899 0.21839 0.84467 0.0
H1586 H 0.85113 0.28583 0.81283 0.0
C1587 C 0.92823 0.23547 0.86035 0.0
H1588 H 0.84923 0.22508 0.81019 0.0
C1589 C 0.92918 0.27038 0.863 0.0
C1590 C 0.90159 0.28932 0.84554 0.0
H1591 H 0.95022 0.22177 0.87222 0.0
H1592 H 0.95129 0.28259 0.88034 0.0
C1593 C 0.87309 0.2722 0.82524 0.0
C1594 C 0.61368 0.77728 0.38629 0.0
C1595 C 0.63336 0.79767 0.34725 0.0
H1596 H 0.60316 0.7283 0.41854 0.0
C1597 C 0.6548 0.78271 0.30257 0.0
H1598 H 0.59796 0.78796 0.42295 0.0
C1599 C 0.65802 0.74803 0.30062 0.0
C1600 C 0.63939 0.72796 0.3424 0.0
H1601 H 0.67129 0.79781 0.2739 0.0
H1602 H 0.67665 0.73712 0.27 0.0
C1603 C 0.61663 0.74296 0.3838 0.0
C1604 C 0.85907 0.7691 0.18638 0.0
C1605 C 0.88624 0.74832 0.19749 0.0
H1606 H 0.84112 0.81851 0.17337 0.0
C1607 C 0.91698 0.7634 0.20825 0.0
H1608 H 0.83491 0.75855 0.17917 0.0
C1609 C 0.92053 0.7981 0.20534 0.0
C1610 C 0.89358 0.81863 0.19064 0.0
H1611 H 0.93858 0.74844 0.21581 0.0
H1612 H 0.94467 0.80884 0.21269 0.0
C1613 C 0.86262 0.80362 0.18295 0.0
C1614 C 0.60762 0.24847 0.67712 0.0
C1615 C 0.63492 0.22889 0.69454 0.0
H1616 H 0.58829 0.29736 0.66025 0.0
C1617 C 0.66422 0.2459 0.71099 0.0
H1618 H 0.58412 0.2367 0.66772 0.0
C1619 C 0.66659 0.28092 0.70663 0.0
C1620 C 0.64 0.30032 0.68452 0.0
H1621 H 0.68528 0.23212 0.72804 0.0
H1622 H 0.68922 0.29294 0.72163 0.0
C1623 C 0.61011 0.2834 0.67222 0.0
C1624 C 0.99314 0.41611 0.94781 0.0
C1625 C 0.97908 0.3846 0.93669 0.0
H1626 H 0.03746 0.44559 0.95631 0.0
C1627 C 1.00126 0.35808 0.92796 0.0
H1628 H 0.97735 0.43703 0.95713 0.0
C1629 C 0.03577 0.3633 0.92412 0.0
C1630 C 0.04972 0.39513 0.93135 0.0
H1631 H 0.99173 0.33325 0.92143 0.0
H1632 H 0.0516 0.34229 0.91586 0.0
C1633 C 0.0278 0.42104 0.94696 0.0
C1634 C 0.51135 0.67277 0.44765 0.0
C1635 C 0.4945 0.64248 0.4516 0.0
H1636 H 0.55785 0.69785 0.44383 0.0
C1637 C 0.51366 0.61349 0.45496 0.0
H1638 H 0.4977 0.69555 0.4431 0.0
C1639 C 0.5483 0.61455 0.45074 0.0
C1640 C 0.56508 0.64489 0.44562 0.0
H1641 H 0.50169 0.58968 0.45874 0.0
H1642 H 0.56191 0.59164 0.45194 0.0
C1643 C 0.54602 0.67397 0.44648 0.0
C1644 C 0.49146 0.36115 0.61772 0.0
C1645 C 0.47724 0.38771 0.5843 0.0
H1646 H 0.53593 0.33858 0.65129 0.0
C1647 C 0.4978 0.4096 0.5503 0.0
H1648 H 0.47625 0.34452 0.64587 0.0
C1649 C 0.53212 0.40563 0.55174 0.0
C1650 C 0.54639 0.38049 0.58946 0.0
H1651 H 0.48747 0.43089 0.52597 0.0
H1652 H 0.54749 0.42406 0.5287 0.0
C1653 C 0.52564 0.35778 0.62086 0.0
C1654 C 1.0136 0.62379 0.10769 0.0
C1655 C 0.03499 0.65105 0.10013 0.0
H1656 H 0.9641 0.60578 0.11712 0.0
C1657 C 0.02049 0.6822 0.09051 0.0
H1658 H 0.02356 0.59929 0.113 0.0
C1659 C 0.98581 0.68583 0.09055 0.0
C1660 C 0.96462 0.65867 0.10237 0.0
H1661 H 0.03589 0.70393 0.08554 0.0
H1662 H 0.97554 0.71023 0.08385 0.0
C1663 C 0.97922 0.62749 0.10971 0.0
C1664 C 0.10976 0.53785 0.04077 0.0
C1665 C 0.14129 0.55107 0.05449 0.0
H1666 H 0.0816 0.4989 0.99303 0.0
C1667 C 0.16807 0.53613 0.0225 0.0
H1668 H 0.08834 0.54867 0.06317 0.0
C1669 C 0.16397 0.50935 0.97973 0.0
C1670 C 0.13299 0.49529 0.96734 0.0
H1671 H 0.19286 0.54508 0.03069 0.0
H1672 H 0.18567 0.49845 0.9584 0.0
C1673 C 0.10576 0.50983 0.9989 0.0
C1674 C 0.75307 0.93743 0.31387 0.0
C1675 C 0.7313 0.91077 0.31992 0.0
H1676 H 0.79639 0.95685 0.27109 0.0
C1677 C 0.73738 0.88187 0.28325 0.0
H1678 H 0.74877 0.96019 0.34034 0.0
C1679 C 0.76492 0.87994 0.24171 0.0
C1680 C 0.78678 0.9069 0.23621 0.0
H1681 H 0.72053 0.86111 0.28563 0.0
H1682 H 0.76917 0.85746 0.21437 0.0
C1683 C 0.78037 0.93547 0.27339 0.0
C1684 C 0.40192 0.50219 0.55496 0.0
C1685 C 0.37233 0.48342 0.55485 0.0
H1686 H 0.42741 0.54622 0.5203 0.0
C1687 C 0.34751 0.49416 0.5116 0.0
H1688 H 0.42191 0.49508 0.58678 0.0
C1689 C 0.35123 0.52212 0.47211 0.0
C1690 C 0.37973 0.54184 0.47352 0.0
H1691 H 0.32427 0.48115 0.50847 0.0
H1692 H 0.33053 0.52944 0.44216 0.0
C1693 C 0.40538 0.5313 0.51559 0.0
C1694 C 0.76948 0.16152 0.84456 0.0
C1695 C 0.79831 0.15177 0.81257 0.0
H1696 H 0.71718 0.16841 0.83878 0.0
C1697 C 0.79544 0.14434 0.74524 0.0
H1698 H 0.7702 0.16773 0.89561 0.0
C1699 C 0.76498 0.14459 0.71238 0.0
C1700 C 0.73589 0.15255 0.74502 0.0
H1701 H 0.81687 0.13729 0.71761 0.0
H1702 H 0.76415 0.13715 0.6619 0.0
C1703 C 0.73886 0.16185 0.81145 0.0
C1704 C 0.89727 0.5484 0.99264 0.0
C1705 C 0.90057 0.54979 0.06131 0.0
H1706 H 0.89352 0.51852 0.9063 0.0
C1707 C 0.90525 0.5197 0.094 0.0
H1708 H 0.89361 0.57081 0.96492 0.0
C1709 C 0.90526 0.48939 0.05956 0.0
C1710 C 0.90065 0.48802 0.99113 0.0
H1711 H 0.90763 0.51934 0.14641 0.0
H1712 H 0.90797 0.46682 0.08717 0.0
C1713 C 0.89732 0.51819 0.95835 0.0
C1714 C 0.25493 0.08674 0.7881 0.0
C1715 C 0.23923 0.11506 0.8125 0.0
H1716 H 0.2934 0.06578 0.73191 0.0
C1717 C 0.25301 0.14608 0.79521 0.0
H1718 H 0.24546 0.06235 0.79921 0.0
C1719 C 0.28183 0.1481 0.75558 0.0
C1720 C 0.29713 0.11914 0.73155 0.0
H1721 H 0.24155 0.16863 0.81194 0.0
H1722 H 0.29237 0.17209 0.74493 0.0
C1723 C 0.28266 0.08874 0.74846 0.0
C1724 C 0.62643 0.51136 0.49439 0.0
C1725 C 0.65126 0.53586 0.49596 0.0
H1726 H 0.6095 0.46415 0.53092 0.0
C1727 C 0.67751 0.53118 0.54017 0.0
H1728 H 0.60574 0.5139 0.4615 0.0
C1729 C 0.67954 0.50305 0.57967 0.0
C1730 C 0.6552 0.47843 0.57801 0.0
H1731 H 0.69725 0.54912 0.54382 0.0
H1732 H 0.70081 0.50019 0.61103 0.0
C1733 C 0.62837 0.483 0.53493 0.0
C1734 C 0.26977 0.87074 0.34766 0.0
C1735 C 0.29996 0.86767 0.31553 0.0
H1736 H 0.21749 0.8751 0.33976 0.0
C1737 C 0.29869 0.86385 0.24679 0.0
H1738 H 0.26912 0.87411 0.39973 0.0
C1739 C 0.26877 0.86468 0.21152 0.0
C1740 C 0.23873 0.86937 0.24347 0.0
H1741 H 0.3212 0.86141 0.21944 0.0
H1742 H 0.26941 0.86284 0.159 0.0
C1743 C 0.23986 0.8716 0.31243 0.0
C1744 C 0.6608 0.99232 0.56563 0.0
C1745 C 0.63969 0.98841 0.51141 0.0
H1746 H 0.68221 0.02477 0.63611 0.0
C1747 C 0.61775 1.01453 0.49833 0.0
H1748 H 0.67706 0.97287 0.58081 0.0
C1749 C 0.61812 0.04375 0.53708 0.0
C1750 C 0.64132 0.04806 0.58805 0.0
H1751 H 0.60073 1.01265 0.45781 0.0
H1752 H 0.60161 0.06364 0.52458 0.0
C1753 C 0.66277 0.02193 0.60044 0.0
C1754 C 0.23297 0.37779 0.78145 0.0
C1755 C 0.22885 0.40446 0.82545 0.0
H1756 H 0.26353 0.35488 0.70812 0.0
C1757 C 0.25412 0.42806 0.82912 0.0
H1758 H 0.21366 0.3595 0.77586 0.0
C1759 C 0.28245 0.42541 0.79085 0.0
C1760 C 0.28668 0.39938 0.74558 0.0
H1761 H 0.25167 0.44921 0.86115 0.0
H1762 H 0.30094 0.44455 0.79621 0.0
C1763 C 0.26142 0.37538 0.7418 0.0
C1764 C 0.89865 1.00411 0.04438 0.0
C1765 C 0.8676 0.98973 0.05745 0.0
H1766 H 0.92529 0.04447 0.99861 0.0
C1767 C 0.83991 1.0053 0.03023 0.0
H1768 H 0.92069 0.99281 0.0636 0.0
C1769 C 0.84263 0.03355 0.99157 0.0
C1770 C 0.87312 0.04843 0.9786 0.0
H1771 H 0.81553 0.99538 0.0384 0.0
H1772 H 0.82026 0.0444 0.97266 0.0
C1773 C 0.90135 0.03338 1.00592 0.0
C1774 C 0.26538 0.64246 0.20077 0.0
C1775 C 0.23538 0.64063 0.23392 0.0
H1776 H 0.31786 0.64556 0.20753 0.0
C1777 C 0.23665 0.6421 0.30293 0.0
H1778 H 0.26576 0.64199 0.1481 0.0
C1779 C 0.2666 0.6434 0.33741 0.0
C1780 C 0.29665 0.64406 0.30451 0.0
H1781 H 0.2143 0.64142 0.33116 0.0
H1782 H 0.26612 0.64311 0.38993 0.0
C1783 C 0.2954 0.64455 0.23541 0.0
C1784 C 0.36691 1.00588 0.45827 0.0
C1785 C 0.38824 0.97954 0.47041 0.0
H1786 H 0.35303 0.05548 0.47708 0.0
C1787 C 0.41199 0.98436 0.5205 0.0
H1788 H 0.34722 1.00294 0.42312 0.0
C1789 C 0.41375 1.01455 0.55704 0.0
C1790 C 0.39255 0.04127 0.54305 0.0
H1791 H 0.42822 0.9643 0.53346 0.0
H1792 H 0.43154 0.01685 0.59613 0.0
C1793 C 0.36987 0.0362 0.49135 0.0
C1794 C 0.77918 0.65322 0.26093 0.0
C1795 C 0.79499 0.62493 0.23516 0.0
H1796 H 0.73776 0.67237 0.31581 0.0
C1797 C 0.77989 0.59419 0.24685 0.0
H1798 H 0.7902 0.67739 0.25452 0.0
C1799 C 0.75088 0.59126 0.28276 0.0
C1800 C 0.73481 0.61892 0.30922 0.0
H1801 H 0.7911 0.57172 0.22893 0.0
H1802 H 0.74096 0.56666 0.28998 0.0
C1803 C 0.74931 0.65027 0.29715 0.0
C1804 C 0.12717 1.00972 0.99549 0.0
C1805 C 0.15411 0.03179 0.9918 0.0
H1806 H 0.10785 0.96423 0.03589 0.0
C1807 C 0.18218 0.02417 0.02934 0.0
H1808 H 0.10501 1.01465 0.96795 0.0
C1809 C 0.1838 0.99559 0.06761 0.0
C1810 C 0.1572 0.97355 0.07182 0.0
H1811 H 0.20354 0.04016 0.02872 0.0
H1812 H 0.20635 0.99048 0.09382 0.0
C1813 C 0.12864 0.98101 0.03525 0.0
C1814 C 0.75288 0.41675 0.75428 0.0
C1815 C 0.74191 0.3855 0.73328 0.0
H1816 H 0.78692 0.44559 0.80984 0.0
C1817 C 0.76072 0.35791 0.7533 0.0
H1818 H 0.7398 0.43868 0.73938 0.0
C1819 C 0.78949 0.36201 0.79303 0.0
C1820 C 0.79946 0.39369 0.81559 0.0
H1821 H 0.75292 0.33325 0.73942 0.0
H1822 H 0.80383 0.34053 0.80587 0.0
C1823 C 0.78028 0.42069 0.79515 0.0
loop_
_geom_bond_atom_site_label_1
_geom_bond_atom_site_label_2
_geom_bond_distance
_geom_bond_site_symmetry_2
_ccdc_geom_bond_type
Eu0 N31 2.657 . S
Eu0 N38 2.609 . S
Eu0 O44 2.558 . S
Eu0 O45 2.612 . S
Eu0 O47 2.339 . S
Eu0 O48 2.563 . S
Eu0 O49 2.419 . S
Eu0 O51 2.380 . S
Eu0 O52 2.432 . S
Eu0 C64 2.848 . S
C1 C4 1.429 . S
C1 C5 1.411 1_554 S
C1 N8 1.377 . S
C2 C4 1.420 . S
C2 C6 1.423 1_554 S
C2 C14 1.392 . S
C3 C5 1.420 . S
C3 C6 1.351 . S
C3 H26 0.931 . S
C4 C1 1.429 . S
C4 C2 1.420 . S
C4 N12 1.362 . S
C5 C1 1.411 1_556 S
C5 C3 1.420 . S
C5 C10 1.395 . S
C6 C2 1.423 1_556 S
C6 C3 1.351 . S
C6 H18 0.930 . S
C7 C9 1.400 1_556 S
C7 C10 1.386 . S
C7 H19 0.930 . S
N8 C1 1.377 . S
N8 C9 1.321 . S
N8 Eu11 2.609 . S
C9 C7 1.400 1_554 S
C9 N8 1.321 . S
C9 H16 0.930 . S
C10 C5 1.395 . S
C10 C7 1.386 . S
C10 H29 0.930 . S
Eu11 N8 2.609 . S
Eu11 N12 2.657 . S
Eu11 O45 2.380 . S
Eu11 O46 2.432 . S
Eu11 O50 2.558 1_554 S
Eu11 O51 2.612 . S
Eu11 O53 2.339 . S
Eu11 O54 2.563 . S
Eu11 O55 2.419 1_554 S
Eu11 C75 2.848 1_554 S
N12 C4 1.362 . S
N12 Eu11 2.657 . S
N12 C13 1.334 . S
C13 N12 1.334 . S
C13 C15 1.413 . S
C13 H20 0.929 . S
C14 C2 1.392 . S
C14 C15 1.367 . S
C14 H22 0.930 . S
C15 C13 1.413 . S
C15 C14 1.367 . S
C15 H17 0.930 . S
H16 C9 0.930 . S
H17 C15 0.930 . S
H18 C6 0.930 . S
H19 C7 0.930 . S
H20 C13 0.929 . S
H21 C35 0.930 . S
H22 C14 0.930 . S
H23 C41 0.930 . S
H24 C32 0.929 . S
H25 C39 0.930 1_655 S
H26 C3 0.931 . S
H27 C33 0.930 . S
H28 C66 0.930 . S
H29 C10 0.930 . S
H30 C65 0.931 . S
N31 Eu0 2.657 . S
N31 C32 1.334 . S
N31 C36 1.362 . S
C32 H24 0.929 . S
C32 N31 1.334 . S
C32 C35 1.413 . S
C33 H27 0.930 . S
C33 C34 1.392 . S
C33 C35 1.367 . S
C34 C33 1.392 . S
C34 C36 1.420 . S
C34 C66 1.423 . S
C35 H21 0.930 . S
C35 C32 1.413 . S
C35 C33 1.367 . S
C36 N31 1.362 . S
C36 C34 1.420 . S
C36 C40 1.429 . S
H37 C42 0.930 . S
N38 Eu0 2.609 . S
N38 C40 1.377 . S
N38 C41 1.321 . S
C39 H25 0.930 1_455 S
C39 C41 1.400 . S
C39 C42 1.386 . S
C40 C36 1.429 . S
C40 N38 1.377 . S
C40 C43 1.411 . S
C41 H23 0.930 . S
C41 N38 1.321 . S
C41 C39 1.400 . S
C42 H37 0.930 . S
C42 C39 1.386 . S
C42 C43 1.395 . S
C43 C40 1.411 . S
C43 C42 1.395 . S
C43 C65 1.420 . S
O44 Eu0 2.558 . S
O44 C64 1.257 . S
O45 Eu0 2.612 . S
O45 Eu11 2.380 . S
O45 C56 1.276 . S
O46 Eu11 2.432 . S
O46 C63 1.264 . S
O47 Eu0 2.339 . S
O47 C63 1.254 . S
O48 Eu0 2.563 . S
O48 C56 1.235 . S
O49 Eu0 2.419 . S
O49 C64 1.249 . S
O50 Eu11 2.558 1_556 S
O50 C75 1.257 . S
O51 Eu0 2.380 . S
O51 Eu11 2.612 . S
O51 C67 1.276 . S
O52 Eu0 2.432 . S
O52 C74 1.264 . S
O53 Eu11 2.339 . S
O53 C74 1.254 . S
O54 Eu11 2.563 . S
O54 C67 1.235 . S
O55 Eu11 2.419 1_556 S
O55 C75 1.249 . S
C56 O45 1.276 . S
C56 O48 1.235 . S
C57 C59 1.393 . S
C57 C61 1.395 . S
C57 C64 1.492 . S
C58 C59 1.392 . S
C58 C60 1.386 . S
C59 C57 1.393 . S
C59 C58 1.392 . S
C59 H76 0.930 . S
C60 C58 1.386 . S
C60 C62 1.395 . S
C60 H77 0.930 . S
C61 C57 1.395 . S
C61 C62 1.379 . S
C61 H78 0.930 . S
C62 C60 1.395 . S
C62 C61 1.379 . S
C62 H79 0.930 . S
C63 O46 1.264 . S
C63 O47 1.254 . S
C64 Eu0 2.848 . S
C64 O44 1.257 . S
C64 O49 1.249 . S
C64 C57 1.492 . S
C65 H30 0.931 . S
C65 C43 1.420 . S
C65 C66 1.351 . S
C66 H28 0.930 . S
C66 C34 1.423 . S
C66 C65 1.351 . S
C67 O51 1.276 . S
C67 O54 1.235 . S
C68 C69 1.393 . S
C68 C72 1.395 . S
C68 C75 1.492 . S
C69 C68 1.393 . S
C69 C70 1.392 . S
C69 H80 0.930 . S
C70 C69 1.392 . S
C70 C71 1.386 . S
C71 C70 1.386 . S
C71 C73 1.395 . S
C71 H81 0.930 . S
C72 C68 1.395 . S
C72 C73 1.379 . S
C72 H82 0.930 . S
C73 C71 1.395 . S
C73 C72 1.379 . S
C73 H83 0.930 . S
C74 O52 1.264 . S
C74 O53 1.254 . S
C75 Eu11 2.848 1_556 S
C75 O50 1.257 . S
C75 O55 1.249 . S
C75 C68 1.492 . S
H76 C59 0.930 . S
H77 C60 0.930 . S
H78 C61 0.930 . S
H79 C62 0.930 . S
H80 C69 0.930 . S
H81 C71 0.930 . S
H82 C72 0.930 . S
H83 C73 0.930 . S
Eu84 N115 2.657 . S
Eu84 N122 2.609 . S
Eu84 O128 2.558 . S
Eu84 O129 2.612 . S
Eu84 O131 2.339 . S
Eu84 O132 2.563 . S
Eu84 O133 2.419 . S
Eu84 O135 2.380 . S
Eu84 O136 2.432 . S
Eu84 C148 2.848 . S
C85 C88 1.429 . S
C85 C89 1.411 . S
C85 N92 1.377 . S
C86 C88 1.420 . S
C86 C90 1.423 . S
C86 C98 1.392 . S
C87 C89 1.420 . S
C87 C90 1.351 . S
C87 H110 0.931 . S
C88 C85 1.429 . S
C88 C86 1.420 . S
C88 N96 1.362 . S
C89 C85 1.411 . S
C89 C87 1.420 . S
C89 C94 1.395 . S
C90 C86 1.423 . S
C90 C87 1.351 . S
C90 H102 0.930 . S
C91 C93 1.400 . S
C91 C94 1.386 . S
C91 H103 0.930 1_565 S
N92 C85 1.377 . S
N92 C93 1.321 . S
N92 Eu95 2.609 . S
C93 C91 1.400 . S
C93 N92 1.321 . S
C93 H100 0.930 . S
C94 C89 1.395 . S
C94 C91 1.386 . S
C94 H113 0.912 1_565 S
Eu95 N92 2.609 . S
Eu95 N96 2.657 . S
Eu95 O129 2.380 . S
Eu95 O130 2.432 . S
Eu95 O134 2.558 . S
Eu95 O135 2.612 . S
Eu95 O137 2.339 . S
Eu95 O138 2.563 . S
Eu95 O139 2.419 . S
Eu95 C159 2.848 . S
N96 C88 1.362 . S
N96 Eu95 2.657 . S
N96 C97 1.334 . S
C97 N96 1.334 . S
C97 C99 1.413 . S
C97 H104 0.929 . S
C98 C86 1.392 . S
C98 C99 1.367 . S
C98 H106 0.930 . S
C99 C97 1.413 . S
C99 C98 1.367 . S
C99 H101 0.930 . S
H100 C93 0.930 . S
H101 C99 0.930 . S
H102 C90 0.930 . S
H103 C91 0.930 1_545 S
H104 C97 0.929 . S
H105 C119 0.930 . S
H106 C98 0.930 . S
H107 C125 0.930 . S
H108 C116 0.929 . S
H109 C123 0.930 . S
H110 C87 0.931 . S
H111 C117 0.930 . S
H112 C150 0.930 . S
H113 C94 0.912 1_545 S
H114 C149 0.931 . S
N115 Eu84 2.657 . S
N115 C116 1.334 . S
N115 C120 1.362 . S
C116 H108 0.929 . S
C116 N115 1.334 . S
C116 C119 1.413 . S
C117 H111 0.930 . S
C117 C118 1.392 . S
C117 C119 1.367 . S
C118 C117 1.392 . S
C118 C120 1.420 . S
C118 C150 1.423 . S
C119 H105 0.930 . S
C119 C116 1.413 . S
C119 C117 1.367 . S
C120 N115 1.362 . S
C120 C118 1.420 . S
C120 C124 1.429 . S
H121 C126 0.930 . S
N122 Eu84 2.609 . S
N122 C124 1.377 . S
N122 C125 1.321 . S
C123 H109 0.930 . S
C123 C125 1.400 . S
C123 C126 1.386 . S
C124 C120 1.429 . S
C124 N122 1.377 . S
C124 C127 1.411 . S
C125 H107 0.930 . S
C125 N122 1.321 . S
C125 C123 1.400 . S
C126 H121 0.930 . S
C126 C123 1.386 . S
C126 C127 1.395 . S
C127 C124 1.411 . S
C127 C126 1.395 . S
C127 C149 1.420 . S
O128 Eu84 2.558 . S
O128 C148 1.257 . S
O129 Eu84 2.612 . S
O129 Eu95 2.380 . S
O129 C140 1.276 . S
O130 Eu95 2.432 . S
O130 C147 1.264 . S
O131 Eu84 2.339 . S
O131 C147 1.254 . S
O132 Eu84 2.563 . S
O132 C140 1.235 . S
O133 Eu84 2.419 . S
O133 C148 1.249 . S
O134 Eu95 2.558 . S
O134 C159 1.257 . S
O135 Eu84 2.380 . S
O135 Eu95 2.612 . S
O135 C151 1.276 . S
O136 Eu84 2.432 . S
O136 C158 1.264 . S
O137 Eu95 2.339 . S
O137 C158 1.254 . S
O138 Eu95 2.563 . S
O138 C151 1.235 . S
O139 Eu95 2.419 . S
O139 C159 1.249 . S
C140 O129 1.276 . S
C140 O132 1.235 . S
C141 C143 1.393 . S
C141 C145 1.395 . S
C141 C148 1.492 . S
C142 C143 1.392 . S
C142 C144 1.386 . S
C143 C141 1.393 . S
C143 C142 1.392 . S
C143 H160 0.930 . S
C144 C142 1.386 . S
C144 C146 1.395 . S
C144 H161 0.930 . S
C145 C141 1.395 . S
C145 C146 1.379 . S
C145 H162 0.930 . S
C146 C144 1.395 . S
C146 C145 1.379 . S
C146 H163 0.930 . S
C147 O130 1.264 . S
C147 O131 1.254 . S
C148 Eu84 2.848 . S
C148 O128 1.257 . S
C148 O133 1.249 . S
C148 C141 1.492 . S
C149 H114 0.931 . S
C149 C127 1.420 . S
C149 C150 1.351 . S
C150 H112 0.930 . S
C150 C118 1.423 . S
C150 C149 1.351 . S
C151 O135 1.276 . S
C151 O138 1.235 . S
C152 C153 1.393 . S
C152 C156 1.395 . S
C152 C159 1.492 . S
C153 C152 1.393 . S
C153 C154 1.392 1_554 S
C153 H164 0.930 . S
C154 C153 1.392 1_556 S
C154 C155 1.386 . S
C155 C154 1.386 . S
C155 C157 1.395 . S
C155 H165 0.930 . S
C156 C152 1.395 . S
C156 C157 1.379 1_554 S
C156 H166 0.930 . S
C157 C155 1.395 . S
C157 C156 1.379 1_556 S
C157 H167 0.930 . S
C158 O136 1.264 . S
C158 O137 1.254 . S
C159 Eu95 2.848 . S
C159 O134 1.257 . S
C159 O139 1.249 . S
C159 C152 1.492 . S
H160 C143 0.930 . S
H161 C144 0.930 . S
H162 C145 0.930 . S
H163 C146 0.930 . S
H164 C153 0.930 . S
H165 C155 0.930 . S
H166 C156 0.930 . S
H167 C157 0.930 . S
Eu168 N199 2.657 . S
Eu168 N206 2.609 . S
Eu168 O212 2.558 . S
Eu168 O213 2.612 . S
Eu168 O215 2.339 . S
Eu168 O216 2.563 . S
Eu168 O217 2.419 . S
Eu168 O219 2.380 . S
Eu168 O220 2.432 . S
Eu168 C232 2.848 . S
C169 C172 1.429 . S
C169 C173 1.411 . S
C169 N176 1.377 . S
C170 C172 1.420 . S
C170 C174 1.423 . S
C170 C182 1.392 . S
C171 C173 1.420 . S
C171 C174 1.351 . S
C171 H194 0.931 . S
C172 C169 1.429 . S
C172 C170 1.420 . S
C172 N180 1.362 . S
C173 C169 1.411 . S
C173 C171 1.420 . S
C173 C178 1.395 . S
C174 C170 1.423 . S
C174 C171 1.351 . S
C174 H186 0.930 . S
C175 C177 1.400 . S
C175 C178 1.386 . S
C175 H187 0.930 . S
N176 C169 1.377 . S
N176 C177 1.321 . S
N176 Eu179 2.609 . S
C177 C175 1.400 . S
C177 N176 1.321 . S
C177 H184 0.930 . S
C178 C173 1.395 . S
C178 C175 1.386 . S
C178 H197 0.930 . S
Eu179 N176 2.609 . S
Eu179 N180 2.657 . S
Eu179 O213 2.380 . S
Eu179 O214 2.432 . S
Eu179 O218 2.558 . S
Eu179 O219 2.612 . S
Eu179 O221 2.339 . S
Eu179 O222 2.563 . S
Eu179 O223 2.419 . S
Eu179 C243 2.848 . S
N180 C172 1.362 . S
N180 Eu179 2.657 . S
N180 C181 1.334 . S
C181 N180 1.334 . S
C181 C183 1.413 . S
C181 H188 0.929 . S
C182 C170 1.392 . S
C182 C183 1.367 . S
C182 H190 0.930 . S
C183 C181 1.413 . S
C183 C182 1.367 . S
C183 H185 0.930 . S
H184 C177 0.930 . S
H185 C183 0.930 . S
H186 C174 0.930 . S
H187 C175 0.930 . S
H188 C181 0.929 . S
H189 C203 0.930 . S
H190 C182 0.930 . S
H191 C209 0.930 . S
H192 C200 0.929 . S
H193 C207 0.930 . S
H194 C171 0.931 . S
H195 C201 0.930 . S
H196 C234 0.930 . S
H197 C178 0.930 . S
H198 C233 0.931 . S
N199 Eu168 2.657 . S
N199 C200 1.334 . S
N199 C204 1.362 . S
C200 H192 0.929 . S
C200 N199 1.334 . S
C200 C203 1.413 . S
C201 H195 0.930 . S
C201 C202 1.392 . S
C201 C203 1.367 . S
C202 C201 1.392 . S
C202 C204 1.420 . S
C202 C234 1.423 . S
C203 H189 0.930 . S
C203 C200 1.413 . S
C203 C201 1.367 . S
C204 N199 1.362 . S
C204 C202 1.420 . S
C204 C208 1.429 . S
H205 C210 0.930 . S
N206 Eu168 2.609 . S
N206 C208 1.377 . S
N206 C209 1.321 . S
C207 H193 0.930 . S
C207 C209 1.400 . S
C207 C210 1.386 . S
C208 C204 1.429 . S
C208 N206 1.377 . S
C208 C211 1.411 . S
C209 H191 0.930 . S
C209 N206 1.321 . S
C209 C207 1.400 . S
C210 H205 0.930 . S
C210 C207 1.386 . S
C210 C211 1.395 . S
C211 C208 1.411 . S
C211 C210 1.395 . S
C211 C233 1.420 . S
O212 Eu168 2.558 . S
O212 C232 1.257 . S
O213 Eu168 2.612 . S
O213 Eu179 2.380 . S
O213 C224 1.276 . S
O214 Eu179 2.432 . S
O214 C231 1.264 . S
O215 Eu168 2.339 . S
O215 C231 1.254 . S
O216 Eu168 2.563 . S
O216 C224 1.235 . S
O217 Eu168 2.419 . S
O217 C232 1.249 . S
O218 Eu179 2.558 . S
O218 C243 1.257 . S
O219 Eu168 2.380 . S
O219 Eu179 2.612 . S
O219 C235 1.276 . S
O220 Eu168 2.432 . S
O220 C242 1.264 . S
O221 Eu179 2.339 . S
O221 C242 1.254 . S
O222 Eu179 2.563 . S
O222 C235 1.235 . S
O223 Eu179 2.419 . S
O223 C243 1.249 . S
C224 O213 1.276 . S
C224 O216 1.235 . S
C225 C227 1.393 . S
C225 C229 1.395 . S
C225 C232 1.492 . S
C226 C227 1.392 1_554 S
C226 C228 1.386 . S
C227 C225 1.393 . S
C227 C226 1.392 1_556 S
C227 H244 0.930 . S
C228 C226 1.386 . S
C228 C230 1.395 . S
C228 H245 0.930 . S
C229 C225 1.395 . S
C229 C230 1.379 1_556 S
C229 H246 0.930 . S
C230 C228 1.395 . S
C230 C229 1.379 1_554 S
C230 H247 0.930 . S
C231 O214 1.264 . S
C231 O215 1.254 . S
C232 Eu168 2.848 . S
C232 O212 1.257 . S
C232 O217 1.249 . S
C232 C225 1.492 . S
C233 H198 0.931 . S
C233 C211 1.420 . S
C233 C234 1.351 . S
C234 H196 0.930 . S
C234 C202 1.423 . S
C234 C233 1.351 . S
C235 O219 1.276 . S
C235 O222 1.235 . S
C236 C237 1.393 . S
C236 C240 1.395 . S
C236 C243 1.492 . S
C237 C236 1.393 . S
C237 C238 1.392 . S
C237 H248 0.930 . S
C238 C237 1.392 . S
C238 C239 1.386 . S
C239 C238 1.386 . S
C239 C241 1.395 . S
C239 H249 0.930 . S
C240 C236 1.395 . S
C240 C241 1.379 . S
C240 H250 0.930 . S
C241 C239 1.395 . S
C241 C240 1.379 . S
C241 H251 0.930 . S
C242 O220 1.264 . S
C242 O221 1.254 . S
C243 Eu179 2.848 . S
C243 O218 1.257 . S
C243 O223 1.249 . S
C243 C236 1.492 . S
H244 C227 0.930 . S
H245 C228 0.930 . S
H246 C229 0.930 . S
H247 C230 0.930 . S
H248 C237 0.930 . S
H249 C239 0.930 . S
H250 C240 0.930 . S
H251 C241 0.930 . S
Eu252 N283 2.657 . S
Eu252 N290 2.609 . S
Eu252 O296 2.558 . S
Eu252 O297 2.612 . S
Eu252 O299 2.339 . S
Eu252 O300 2.563 . S
Eu252 O301 2.419 . S
Eu252 O303 2.380 . S
Eu252 O304 2.432 . S
Eu252 C316 2.848 . S
C253 C256 1.430 . S
C253 C257 1.409 1_556 S
C253 N260 1.378 . S
C254 C256 1.419 1_554 S
C254 C258 1.425 . S
C254 C266 1.390 1_554 S
C255 C257 1.420 . S
C255 C258 1.351 . S
C255 H278 0.931 . S
C256 C253 1.430 . S
C256 C254 1.419 1_556 S
C256 N264 1.362 . S
C257 C253 1.409 1_554 S
C257 C255 1.420 . S
C257 C262 1.395 . S
C258 C254 1.425 . S
C258 C255 1.351 . S
C258 H270 0.930 . S
C259 C261 1.400 1_554 S
C259 C262 1.386 . S
C259 H271 0.930 . S
N260 C253 1.378 . S
N260 C261 1.321 . S
N260 Eu263 2.609 . S
C261 C259 1.400 1_556 S
C261 N260 1.321 . S
C261 H268 0.930 . S
C262 C257 1.395 . S
C262 C259 1.386 . S
C262 H281 0.930 . S
Eu263 N260 2.609 . S
Eu263 N264 2.657 . S
Eu263 O297 2.380 . S
Eu263 O298 2.432 . S
Eu263 O302 2.558 1_556 S
Eu263 O303 2.612 . S
Eu263 O305 2.339 . S
Eu263 O306 2.563 . S
Eu263 O307 2.419 1_556 S
Eu263 C327 2.848 1_556 S
N264 C256 1.362 . S
N264 Eu263 2.657 . S
N264 C265 1.334 . S
C265 N264 1.334 . S
C265 C267 1.413 . S
C265 H272 0.929 . S
C266 C254 1.390 1_556 S
C266 C267 1.367 . S
C266 H274 0.930 . S
C267 C265 1.413 . S
C267 C266 1.367 . S
C267 H269 0.930 . S
H268 C261 0.930 . S
H269 C267 0.930 . S
H270 C258 0.930 . S
H271 C259 0.930 . S
H272 C265 0.929 . S
H273 C287 0.926 1_565 S
H274 C266 0.930 . S
H275 C293 0.930 . S
H276 C284 0.929 . S
H277 C291 0.923 1_455 S
H278 C255 0.931 . S
H279 C285 0.930 . S
H280 C318 0.930 . S
H281 C262 0.930 . S
H282 C317 0.931 . S
N283 Eu252 2.657 . S
N283 C284 1.334 . S
N283 C288 1.362 . S
C284 H276 0.929 . S
C284 N283 1.334 . S
C284 C287 1.435 . S
C285 H279 0.930 . S
C285 C286 1.392 . S
C285 C287 1.351 1_565 S
C286 C285 1.392 . S
C286 C288 1.420 1_565 S
C286 C318 1.423 . S
C287 H273 0.926 1_545 S
C287 C284 1.435 . S
C287 C285 1.351 1_545 S
C288 N283 1.362 . S
C288 C286 1.420 1_545 S
C288 C292 1.429 . S
H289 C294 0.930 1_565 S
N290 Eu252 2.609 . S
N290 C292 1.377 . S
N290 C293 1.321 . S
C291 H277 0.923 1_655 S
C291 C293 1.400 . S
C291 C294 1.386 . S
C292 C288 1.429 . S
C292 N290 1.377 . S
C292 C295 1.424 . S
C293 H275 0.930 . S
C293 N290 1.321 . S
C293 C291 1.400 . S
C294 H289 0.930 1_545 S
C294 C291 1.386 . S
C294 C295 1.400 . S
C295 C292 1.424 . S
C295 C294 1.400 . S
C295 C317 1.403 1_545 S
O296 Eu252 2.558 . S
O296 C316 1.257 . S
O297 Eu252 2.612 . S
O297 Eu263 2.380 . S
O297 C308 1.276 . S
O298 Eu263 2.432 . S
O298 C315 1.264 . S
O299 Eu252 2.339 . S
O299 C315 1.254 . S
O300 Eu252 2.563 . S
O300 C308 1.235 . S
O301 Eu252 2.419 . S
O301 C316 1.249 . S
O302 Eu263 2.558 1_554 S
O302 C327 1.257 . S
O303 Eu252 2.380 . S
O303 Eu263 2.612 . S
O303 C319 1.276 . S
O304 Eu252 2.432 . S
O304 C326 1.264 . S
O305 Eu263 2.339 . S
O305 C326 1.254 . S
O306 Eu263 2.563 . S
O306 C319 1.235 . S
O307 Eu263 2.419 1_554 S
O307 C327 1.249 . S
C308 O297 1.276 . S
C308 O300 1.235 . S
C309 C311 1.393 . S
C309 C313 1.395 . S
C309 C316 1.492 . S
C310 C311 1.392 . S
C310 C312 1.386 . S
C311 C309 1.393 . S
C311 C310 1.392 . S
C311 H328 0.930 . S
C312 C310 1.386 . S
C312 C314 1.395 . S
C312 H329 0.930 . S
C313 C309 1.395 . S
C313 C314 1.379 . S
C313 H330 0.930 . S
C314 C312 1.395 . S
C314 C313 1.379 . S
C314 H331 0.930 . S
C315 O298 1.264 . S
C315 O299 1.254 . S
C316 Eu252 2.848 . S
C316 O296 1.257 . S
C316 O301 1.249 . S
C316 C309 1.492 . S
C317 H282 0.931 . S
C317 C295 1.403 1_565 S
C317 C318 1.351 . S
C318 H280 0.930 . S
C318 C286 1.423 . S
C318 C317 1.351 . S
C319 O303 1.276 . S
C319 O306 1.235 . S
C320 C321 1.393 . S
C320 C324 1.395 . S
C320 C327 1.492 . S
C321 C320 1.393 . S
C321 C322 1.392 . S
C321 H332 0.930 . S
C322 C321 1.392 . S
C322 C323 1.386 . S
C323 C322 1.386 . S
C323 C325 1.395 . S
C323 H333 0.930 . S
C324 C320 1.395 . S
C324 C325 1.379 . S
C324 H334 0.930 . S
C325 C323 1.395 . S
C325 C324 1.379 . S
C325 H335 0.930 . S
C326 O304 1.264 . S
C326 O305 1.254 . S
C327 Eu263 2.848 1_554 S
C327 O302 1.257 . S
C327 O307 1.249 . S
C327 C320 1.492 . S
H328 C311 0.930 . S
H329 C312 0.930 . S
H330 C313 0.930 . S
H331 C314 0.930 . S
H332 C321 0.930 . S
H333 C323 0.930 . S
H334 C324 0.930 . S
H335 C325 0.930 . S
Eu336 N367 2.657 . S
Eu336 N374 2.609 . S
Eu336 O380 2.558 1_556 S
Eu336 O381 2.612 . S
Eu336 O383 2.339 . S
Eu336 O384 2.563 . S
Eu336 O385 2.419 1_556 S
Eu336 O387 2.380 . S
Eu336 O388 2.432 . S
Eu336 C400 2.848 1_556 S
C337 C340 1.429 . S
C337 C341 1.411 . S
C337 N344 1.377 . S
C338 C340 1.450 . S
C338 C342 1.402 1_455 S
C338 C350 1.385 1_455 S
C339 C341 1.420 1_655 S
C339 C342 1.351 . S
C339 H362 0.931 . S
C340 C337 1.429 . S
C340 C338 1.450 . S
C340 N348 1.362 . S
C341 C337 1.411 . S
C341 C339 1.420 1_455 S
C341 C346 1.395 . S
C342 C338 1.402 1_655 S
C342 C339 1.351 . S
C342 H354 0.930 . S
C343 C345 1.400 . S
C343 C346 1.386 . S
C343 H355 0.930 . S
N344 C337 1.377 . S
N344 C345 1.321 . S
N344 Eu347 2.609 . S
C345 C343 1.400 . S
C345 N344 1.321 . S
C345 H352 0.930 . S
C346 C341 1.395 . S
C346 C343 1.386 . S
C346 H365 0.930 . S
Eu347 N344 2.609 . S
Eu347 N348 2.657 . S
Eu347 O381 2.380 . S
Eu347 O382 2.432 . S
Eu347 O386 2.558 . S
Eu347 O387 2.612 . S
Eu347 O389 2.339 . S
Eu347 O390 2.563 . S
Eu347 O391 2.419 . S
Eu347 C411 2.848 . S
N348 C340 1.362 . S
N348 Eu347 2.657 . S
N348 C349 1.334 . S
C349 N348 1.334 . S
C349 C351 1.413 . S
C349 H356 0.929 . S
C350 C338 1.385 1_655 S
C350 C351 1.367 1_655 S
C350 H358 0.930 . S
C351 C349 1.413 . S
C351 C350 1.367 1_455 S
C351 H353 0.930 . S
H352 C345 0.930 . S
H353 C351 0.930 . S
H354 C342 0.930 . S
H355 C343 0.930 . S
H356 C349 0.929 . S
H357 C371 0.930 . S
H358 C350 0.930 . S
H359 C377 0.930 . S
H360 C368 0.929 . S
H361 C375 0.930 . S
H362 C339 0.931 . S
H363 C369 0.930 . S
H364 C402 0.930 . S
H365 C346 0.930 . S
H366 C401 0.931 . S
N367 Eu336 2.657 . S
N367 C368 1.334 . S
N367 C372 1.362 . S
C368 H360 0.929 . S
C368 N367 1.334 . S
C368 C371 1.413 . S
C369 H363 0.930 . S
C369 C370 1.392 1_556 S
C369 C371 1.367 . S
C370 C369 1.392 1_554 S
C370 C372 1.420 1_554 S
C370 C402 1.422 . S
C371 H357 0.930 . S
C371 C368 1.413 . S
C371 C369 1.367 . S
C372 N367 1.362 . S
C372 C370 1.420 1_556 S
C372 C376 1.429 . S
H373 C378 0.930 . S
N374 Eu336 2.609 . S
N374 C376 1.377 . S
N374 C377 1.321 . S
C375 H361 0.930 . S
C375 C377 1.400 1_554 S
C375 C378 1.386 . S
C376 C372 1.429 . S
C376 N374 1.377 . S
C376 C379 1.411 1_556 S
C377 H359 0.930 . S
C377 N374 1.321 . S
C377 C375 1.400 1_556 S
C378 H373 0.930 . S
C378 C375 1.386 . S
C378 C379 1.395 . S
C379 C376 1.411 1_554 S
C379 C378 1.395 . S
C379 C401 1.420 . S
O380 Eu336 2.558 1_554 S
O380 C400 1.257 . S
O381 Eu336 2.612 . S
O381 Eu347 2.380 . S
O381 C392 1.276 . S
O382 Eu347 2.432 . S
O382 C399 1.264 . S
O383 Eu336 2.339 . S
O383 C399 1.254 . S
O384 Eu336 2.563 . S
O384 C392 1.235 . S
O385 Eu336 2.419 1_554 S
O385 C400 1.249 . S
O386 Eu347 2.558 . S
O386 C411 1.257 . S
O387 Eu336 2.380 . S
O387 Eu347 2.612 . S
O387 C403 1.276 . S
O388 Eu336 2.432 . S
O388 C410 1.264 . S
O389 Eu347 2.339 . S
O389 C410 1.254 . S
O390 Eu347 2.563 . S
O390 C403 1.235 . S
O391 Eu347 2.419 . S
O391 C411 1.249 . S
C392 O381 1.276 . S
C392 O384 1.235 . S
C393 C395 1.393 . S
C393 C397 1.395 . S
C393 C400 1.492 . S
C394 C395 1.392 . S
C394 C396 1.386 . S
C395 C393 1.393 . S
C395 C394 1.392 . S
C395 H412 0.930 . S
C396 C394 1.386 . S
C396 C398 1.395 . S
C396 H413 0.930 . S
C397 C393 1.395 . S
C397 C398 1.379 . S
C397 H414 0.930 . S
C398 C396 1.395 . S
C398 C397 1.379 . S
C398 H415 0.930 . S
C399 O382 1.264 . S
C399 O383 1.254 . S
C400 Eu336 2.848 1_554 S
C400 O380 1.257 . S
C400 O385 1.249 . S
C400 C393 1.492 . S
C401 H366 0.931 . S
C401 C379 1.420 . S
C401 C402 1.351 . S
C402 H364 0.930 . S
C402 C370 1.422 . S
C402 C401 1.351 . S
C403 O387 1.276 . S
C403 O390 1.235 . S
C404 C405 1.393 . S
C404 C408 1.395 . S
C404 C411 1.492 . S
C405 C404 1.393 . S
C405 C406 1.392 . S
C405 H416 0.930 . S
C406 C405 1.392 . S
C406 C407 1.386 . S
C407 C406 1.386 . S
C407 C409 1.395 . S
C407 H417 0.930 . S
C408 C404 1.395 . S
C408 C409 1.379 . S
C408 H418 0.930 . S
C409 C407 1.395 . S
C409 C408 1.379 . S
C409 H419 0.930 . S
C410 O388 1.264 . S
C410 O389 1.254 . S
C411 Eu347 2.848 . S
C411 O386 1.257 . S
C411 O391 1.249 . S
C411 C404 1.492 . S
H412 C395 0.930 . S
H413 C396 0.930 . S
H414 C397 0.930 . S
H415 C398 0.930 . S
H416 C405 0.930 . S
H417 C407 0.930 . S
H418 C408 0.930 . S
H419 C409 0.930 . S
Eu420 N451 2.657 . S
Eu420 N458 2.609 . S
Eu420 O464 2.558 . S
Eu420 O465 2.612 . S
Eu420 O467 2.339 . S
Eu420 O468 2.563 . S
Eu420 O469 2.419 . S
Eu420 O471 2.380 . S
Eu420 O472 2.432 . S
Eu420 C484 2.848 . S
C421 C424 1.427 1_556 S
C421 C425 1.416 . S
C421 N428 1.373 1_556 S
C422 C424 1.420 1_556 S
C422 C426 1.423 . S
C422 C434 1.391 1_556 S
C423 C425 1.420 . S
C423 C426 1.351 . S
C423 H446 0.931 . S
C424 C421 1.427 1_554 S
C424 C422 1.420 1_554 S
C424 N432 1.362 . S
C425 C421 1.416 . S
C425 C423 1.420 . S
C425 C430 1.395 . S
C426 C422 1.423 . S
C426 C423 1.351 . S
C426 H438 0.930 . S
C427 C429 1.400 1_556 S
C427 C430 1.386 . S
C427 H439 0.930 . S
N428 C421 1.373 1_554 S
N428 C429 1.321 . S
N428 Eu431 2.609 . S
C429 C427 1.400 1_554 S
C429 N428 1.321 . S
C429 H436 0.930 . S
C430 C425 1.395 . S
C430 C427 1.386 . S
C430 H449 0.930 . S
Eu431 N428 2.609 . S
Eu431 N432 2.657 . S
Eu431 O465 2.380 . S
Eu431 O466 2.432 . S
Eu431 O470 2.558 1_554 S
Eu431 O471 2.612 . S
Eu431 O473 2.339 . S
Eu431 O474 2.563 . S
Eu431 O475 2.419 1_554 S
Eu431 C495 2.848 1_554 S
N432 C424 1.362 . S
N432 Eu431 2.657 . S
N432 C433 1.334 . S
C433 N432 1.334 . S
C433 C435 1.413 . S
C433 H440 0.929 . S
C434 C422 1.391 1_554 S
C434 C435 1.367 . S
C434 H442 0.930 . S
C435 C433 1.413 . S
C435 C434 1.367 . S
C435 H437 0.930 . S
H436 C429 0.930 . S
H437 C435 0.930 . S
H438 C426 0.930 . S
H439 C427 0.930 . S
H440 C433 0.929 . S
H441 C455 0.932 . S
H442 C434 0.930 . S
H443 C461 0.930 . S
H444 C452 0.929 . S
H445 C459 0.930 . S
H446 C423 0.931 . S
H447 C453 0.930 . S
H448 C486 0.930 . S
H449 C430 0.930 . S
H450 C485 0.931 . S
N451 Eu420 2.657 . S
N451 C452 1.334 . S
N451 C456 1.362 . S
C452 H444 0.929 . S
C452 N451 1.334 . S
C452 C455 1.408 1_565 S
C453 H447 0.930 . S
C453 C454 1.392 . S
C453 C455 1.372 . S
C454 C453 1.392 . S
C454 C456 1.420 1_545 S
C454 C486 1.423 . S
C455 H441 0.932 . S
C455 C452 1.408 1_545 S
C455 C453 1.372 . S
C456 N451 1.362 . S
C456 C454 1.420 1_565 S
C456 C460 1.429 . S
H457 C462 0.930 1_545 S
N458 Eu420 2.609 . S
N458 C460 1.377 . S
N458 C461 1.321 . S
C459 H445 0.930 . S
C459 C461 1.400 . S
C459 C462 1.386 . S
C460 C456 1.429 . S
C460 N458 1.377 . S
C460 C463 1.411 . S
C461 H443 0.930 . S
C461 N458 1.321 . S
C461 C459 1.400 . S
C462 H457 0.930 1_565 S
C462 C459 1.386 . S
C462 C463 1.395 . S
C463 C460 1.411 . S
C463 C462 1.395 . S
C463 C485 1.420 1_565 S
O464 Eu420 2.558 . S
O464 C484 1.257 . S
O465 Eu420 2.612 . S
O465 Eu431 2.380 . S
O465 C476 1.276 . S
O466 Eu431 2.432 . S
O466 C483 1.264 . S
O467 Eu420 2.339 . S
O467 C483 1.254 . S
O468 Eu420 2.563 . S
O468 C476 1.235 . S
O469 Eu420 2.419 . S
O469 C484 1.249 . S
O470 Eu431 2.558 1_556 S
O470 C495 1.257 . S
O471 Eu420 2.380 . S
O471 Eu431 2.612 . S
O471 C487 1.276 . S
O472 Eu420 2.432 . S
O472 C494 1.264 . S
O473 Eu431 2.339 . S
O473 C494 1.254 . S
O474 Eu431 2.563 . S
O474 C487 1.235 . S
O475 Eu431 2.419 1_556 S
O475 C495 1.249 . S
C476 O465 1.276 . S
C476 O468 1.235 . S
C477 C479 1.393 . S
C477 C481 1.395 . S
C477 C484 1.492 . S
C478 C479 1.392 . S
C478 C480 1.386 . S
C479 C477 1.393 . S
C479 C478 1.392 . S
C479 H496 0.930 . S
C480 C478 1.386 . S
C480 C482 1.395 . S
C480 H497 0.930 . S
C481 C477 1.395 . S
C481 C482 1.379 . S
C481 H498 0.930 . S
C482 C480 1.395 . S
C482 C481 1.379 . S
C482 H499 0.930 . S
C483 O466 1.264 . S
C483 O467 1.254 . S
C484 Eu420 2.848 . S
C484 O464 1.257 . S
C484 O469 1.249 . S
C484 C477 1.492 . S
C485 H450 0.931 . S
C485 C463 1.420 1_545 S
C485 C486 1.351 . S
C486 H448 0.930 . S
C486 C454 1.423 . S
C486 C485 1.351 . S
C487 O471 1.276 . S
C487 O474 1.235 . S
C488 C489 1.393 . S
C488 C492 1.395 . S
C488 C495 1.492 . S
C489 C488 1.393 . S
C489 C490 1.392 . S
C489 H500 0.930 . S
C490 C489 1.392 . S
C490 C491 1.386 . S
C491 C490 1.386 . S
C491 C493 1.395 . S
C491 H501 0.930 . S
C492 C488 1.395 . S
C492 C493 1.379 . S
C492 H502 0.930 . S
C493 C491 1.395 . S
C493 C492 1.379 . S
C493 H503 0.930 . S
C494 O472 1.264 . S
C494 O473 1.254 . S
C495 Eu431 2.848 1_556 S
C495 O470 1.257 . S
C495 O475 1.249 . S
C495 C488 1.492 . S
H496 C479 0.930 . S
H497 C480 0.930 . S
H498 C481 0.930 . S
H499 C482 0.930 . S
H500 C489 0.930 . S
H501 C491 0.930 . S
H502 C492 0.930 . S
H503 C493 0.930 . S
Eu504 N535 2.657 . S
Eu504 N542 2.609 . S
Eu504 O548 2.558 . S
Eu504 O549 2.612 . S
Eu504 O551 2.339 . S
Eu504 O552 2.563 . S
Eu504 O553 2.419 . S
Eu504 O555 2.380 . S
Eu504 O556 2.432 . S
Eu504 C568 2.848 . S
C505 C508 1.429 . S
C505 C509 1.411 . S
C505 N512 1.377 . S
C506 C508 1.420 . S
C506 C510 1.423 . S
C506 C518 1.392 . S
C507 C509 1.420 . S
C507 C510 1.351 . S
C507 H530 0.931 . S
C508 C505 1.429 . S
C508 C506 1.420 . S
C508 N516 1.362 . S
C509 C505 1.411 . S
C509 C507 1.420 . S
C509 C514 1.395 . S
C510 C506 1.423 . S
C510 C507 1.351 . S
C510 H522 0.930 . S
C511 C513 1.400 . S
C511 C514 1.386 . S
C511 H523 0.930 . S
N512 C505 1.377 . S
N512 C513 1.321 . S
N512 Eu515 2.609 . S
C513 C511 1.400 . S
C513 N512 1.321 . S
C513 H520 0.930 . S
C514 C509 1.395 . S
C514 C511 1.386 . S
C514 H533 0.930 . S
Eu515 N512 2.609 . S
Eu515 N516 2.657 . S
Eu515 O549 2.380 . S
Eu515 O550 2.432 . S
Eu515 O554 2.558 . S
Eu515 O555 2.612 . S
Eu515 O557 2.339 . S
Eu515 O558 2.563 . S
Eu515 O559 2.419 . S
Eu515 C579 2.848 . S
N516 C508 1.362 . S
N516 Eu515 2.657 . S
N516 C517 1.334 . S
C517 N516 1.334 . S
C517 C519 1.413 . S
C517 H524 0.929 . S
C518 C506 1.392 . S
C518 C519 1.367 . S
C518 H526 0.930 . S
C519 C517 1.413 . S
C519 C518 1.367 . S
C519 H521 0.930 . S
H520 C513 0.930 . S
H521 C519 0.930 . S
H522 C510 0.930 . S
H523 C511 0.930 . S
H524 C517 0.929 . S
H525 C539 0.930 . S
H526 C518 0.930 . S
H527 C545 0.930 . S
H528 C536 0.929 . S
H529 C543 0.930 . S
H530 C507 0.931 . S
H531 C537 0.930 . S
H532 C570 0.930 . S
H533 C514 0.930 . S
H534 C569 0.931 . S
N535 Eu504 2.657 . S
N535 C536 1.334 . S
N535 C540 1.362 . S
C536 H528 0.929 . S
C536 N535 1.334 . S
C536 C539 1.413 . S
C537 H531 0.930 . S
C537 C538 1.392 . S
C537 C539 1.367 . S
C538 C537 1.392 . S
C538 C540 1.420 . S
C538 C570 1.423 . S
C539 H525 0.930 . S
C539 C536 1.413 . S
C539 C537 1.367 . S
C540 N535 1.362 . S
C540 C538 1.420 . S
C540 C544 1.429 . S
H541 C546 0.930 . S
N542 Eu504 2.609 . S
N542 C544 1.377 . S
N542 C545 1.321 . S
C543 H529 0.930 . S
C543 C545 1.400 . S
C543 C546 1.386 . S
C544 C540 1.429 . S
C544 N542 1.377 . S
C544 C547 1.411 . S
C545 H527 0.930 . S
C545 N542 1.321 . S
C545 C543 1.400 . S
C546 H541 0.930 . S
C546 C543 1.386 . S
C546 C547 1.395 . S
C547 C544 1.411 . S
C547 C546 1.395 . S
C547 C569 1.420 . S
O548 Eu504 2.558 . S
O548 C568 1.257 . S
O549 Eu504 2.612 . S
O549 Eu515 2.380 . S
O549 C560 1.276 . S
O550 Eu515 2.432 . S
O550 C567 1.264 . S
O551 Eu504 2.339 . S
O551 C567 1.254 . S
O552 Eu504 2.563 . S
O552 C560 1.235 . S
O553 Eu504 2.419 . S
O553 C568 1.249 . S
O554 Eu515 2.558 . S
O554 C579 1.257 . S
O555 Eu504 2.380 . S
O555 Eu515 2.612 . S
O555 C571 1.276 . S
O556 Eu504 2.432 . S
O556 C578 1.264 . S
O557 Eu515 2.339 . S
O557 C578 1.254 . S
O558 Eu515 2.563 . S
O558 C571 1.235 . S
O559 Eu515 2.419 . S
O559 C579 1.249 . S
C560 O549 1.276 . S
C560 O552 1.235 . S
C561 C563 1.393 . S
C561 C565 1.395 . S
C561 C568 1.492 . S
C562 C563 1.392 1_556 S
C562 C564 1.386 . S
C563 C561 1.393 . S
C563 C562 1.392 1_554 S
C563 H580 0.930 . S
C564 C562 1.386 . S
C564 C566 1.395 . S
C564 H581 0.930 . S
C565 C561 1.395 . S
C565 C566 1.379 1_554 S
C565 H582 0.930 . S
C566 C564 1.395 . S
C566 C565 1.379 1_556 S
C566 H583 0.930 . S
C567 O550 1.264 . S
C567 O551 1.254 . S
C568 Eu504 2.848 . S
C568 O548 1.257 . S
C568 O553 1.249 . S
C568 C561 1.492 . S
C569 H534 0.931 . S
C569 C547 1.420 . S
C569 C570 1.351 . S
C570 H532 0.930 . S
C570 C538 1.423 . S
C570 C569 1.351 . S
C571 O555 1.276 . S
C571 O558 1.235 . S
C572 C573 1.393 . S
C572 C576 1.395 . S
C572 C579 1.492 . S
C573 C572 1.393 . S
C573 C574 1.392 . S
C573 H584 0.930 . S
C574 C573 1.392 . S
C574 C575 1.386 . S
C575 C574 1.386 . S
C575 C577 1.395 . S
C575 H585 0.930 . S
C576 C572 1.395 . S
C576 C577 1.379 . S
C576 H586 0.930 . S
C577 C575 1.395 . S
C577 C576 1.379 . S
C577 H587 0.930 . S
C578 O556 1.264 . S
C578 O557 1.254 . S
C579 Eu515 2.848 . S
C579 O554 1.257 . S
C579 O559 1.249 . S
C579 C572 1.492 . S
H580 C563 0.930 . S
H581 C564 0.930 . S
H582 C565 0.930 . S
H583 C566 0.930 . S
H584 C573 0.930 . S
H585 C575 0.930 . S
H586 C576 0.930 . S
H587 C577 0.930 . S
Eu588 N619 2.657 . S
Eu588 N626 2.609 . S
Eu588 O632 2.558 . S
Eu588 O633 2.612 . S
Eu588 O635 2.339 . S
Eu588 O636 2.563 . S
Eu588 O637 2.419 . S
Eu588 O639 2.380 . S
Eu588 O640 2.432 . S
Eu588 C652 2.848 . S
C589 C592 1.429 . S
C589 C593 1.411 . S
C589 N596 1.377 . S
C590 C592 1.420 . S
C590 C594 1.423 . S
C590 C602 1.392 . S
C591 C593 1.420 . S
C591 C594 1.351 . S
C591 H614 0.931 . S
C592 C589 1.429 . S
C592 C590 1.420 . S
C592 N600 1.362 . S
C593 C589 1.411 . S
C593 C591 1.420 . S
C593 C598 1.395 . S
C594 C590 1.423 . S
C594 C591 1.351 . S
C594 H606 0.930 . S
C595 C597 1.400 . S
C595 C598 1.386 . S
C595 H607 0.930 . S
N596 C589 1.377 . S
N596 C597 1.321 . S
N596 Eu599 2.609 . S
C597 C595 1.400 . S
C597 N596 1.321 . S
C597 H604 0.930 . S
C598 C593 1.395 . S
C598 C595 1.386 . S
C598 H617 0.930 . S
Eu599 N596 2.609 . S
Eu599 N600 2.657 . S
Eu599 O633 2.380 . S
Eu599 O634 2.432 . S
Eu599 O638 2.558 . S
Eu599 O639 2.612 . S
Eu599 O641 2.339 . S
Eu599 O642 2.563 . S
Eu599 O643 2.419 . S
Eu599 C663 2.848 . S
N600 C592 1.362 . S
N600 Eu599 2.657 . S
N600 C601 1.334 . S
C601 N600 1.334 . S
C601 C603 1.413 . S
C601 H608 0.929 . S
C602 C590 1.392 . S
C602 C603 1.367 . S
C602 H610 0.930 . S
C603 C601 1.413 . S
C603 C602 1.367 . S
C603 H605 0.930 . S
H604 C597 0.930 . S
H605 C603 0.930 . S
H606 C594 0.930 . S
H607 C595 0.930 . S
H608 C601 0.929 . S
H609 C623 0.926 1_565 S
H610 C602 0.930 . S
H611 C629 0.930 . S
H612 C620 0.929 . S
H613 C627 0.930 . S
H614 C591 0.931 . S
H615 C621 0.930 . S
H616 C654 0.930 . S
H617 C598 0.930 . S
H618 C653 0.931 . S
N619 Eu588 2.657 . S
N619 C620 1.334 . S
N619 C624 1.362 . S
C620 H612 0.929 . S
C620 N619 1.334 . S
C620 C623 1.413 . S
C621 H615 0.930 . S
C621 C622 1.392 . S
C621 C623 1.367 1_565 S
C622 C621 1.392 . S
C622 C624 1.420 1_565 S
C622 C654 1.423 . S
C623 H609 0.926 1_545 S
C623 C620 1.413 . S
C623 C621 1.367 1_545 S
C624 N619 1.362 . S
C624 C622 1.420 1_545 S
C624 C628 1.429 . S
H625 C630 0.930 . S
N626 Eu588 2.609 . S
N626 C628 1.377 . S
N626 C629 1.321 . S
C627 H613 0.930 . S
C627 C629 1.400 . S
C627 C630 1.386 . S
C628 C624 1.429 . S
C628 N626 1.377 . S
C628 C631 1.411 . S
C629 H611 0.930 . S
C629 N626 1.321 . S
C629 C627 1.400 . S
C630 H625 0.930 . S
C630 C627 1.386 . S
C630 C631 1.395 . S
C631 C628 1.411 . S
C631 C630 1.395 . S
C631 C653 1.420 1_545 S
O632 Eu588 2.558 . S
O632 C652 1.257 . S
O633 Eu588 2.612 . S
O633 Eu599 2.380 . S
O633 C644 1.276 . S
O634 Eu599 2.432 . S
O634 C651 1.264 . S
O635 Eu588 2.339 . S
O635 C651 1.254 . S
O636 Eu588 2.563 . S
O636 C644 1.235 . S
O637 Eu588 2.419 . S
O637 C652 1.249 . S
O638 Eu599 2.558 . S
O638 C663 1.257 . S
O639 Eu588 2.380 . S
O639 Eu599 2.612 . S
O639 C655 1.276 . S
O640 Eu588 2.432 . S
O640 C662 1.264 . S
O641 Eu599 2.339 . S
O641 C662 1.254 . S
O642 Eu599 2.563 . S
O642 C655 1.235 . S
O643 Eu599 2.419 . S
O643 C663 1.249 . S
C644 O633 1.276 . S
C644 O636 1.235 . S
C645 C647 1.393 . S
C645 C649 1.395 . S
C645 C652 1.492 . S
C646 C647 1.392 1_554 S
C646 C648 1.386 . S
C647 C645 1.393 . S
C647 C646 1.392 1_556 S
C647 H664 0.930 . S
C648 C646 1.386 . S
C648 C650 1.395 . S
C648 H665 0.930 . S
C649 C645 1.395 . S
C649 C650 1.379 1_556 S
C649 H666 0.930 . S
C650 C648 1.395 . S
C650 C649 1.379 1_554 S
C650 H667 0.930 . S
C651 O634 1.264 . S
C651 O635 1.254 . S
C652 Eu588 2.848 . S
C652 O632 1.257 . S
C652 O637 1.249 . S
C652 C645 1.492 . S
C653 H618 0.931 . S
C653 C631 1.420 1_565 S
C653 C654 1.351 . S
C654 H616 0.930 . S
C654 C622 1.423 . S
C654 C653 1.351 . S
C655 O639 1.276 . S
C655 O642 1.235 . S
C656 C657 1.393 . S
C656 C660 1.395 . S
C656 C663 1.492 . S
C657 C656 1.393 . S
C657 C658 1.392 . S
C657 H668 0.930 . S
C658 C657 1.392 . S
C658 C659 1.386 . S
C659 C658 1.386 . S
C659 C661 1.395 . S
C659 H669 0.930 . S
C660 C656 1.395 . S
C660 C661 1.379 . S
C660 H670 0.930 . S
C661 C659 1.395 . S
C661 C660 1.379 . S
C661 H671 0.930 . S
C662 O640 1.264 . S
C662 O641 1.254 . S
C663 Eu599 2.848 . S
C663 O638 1.257 . S
C663 O643 1.249 . S
C663 C656 1.492 . S
H664 C647 0.930 . S
H665 C648 0.930 . S
H666 C649 0.930 . S
H667 C650 0.930 . S
H668 C657 0.930 . S
H669 C659 0.930 . S
H670 C660 0.930 . S
H671 C661 0.930 . S
Eu672 N703 2.657 . S
Eu672 N710 2.609 . S
Eu672 O716 2.558 . S
Eu672 O717 2.612 . S
Eu672 O719 2.339 . S
Eu672 O720 2.563 . S
Eu672 O721 2.419 . S
Eu672 O723 2.380 . S
Eu672 O724 2.432 . S
Eu672 C736 2.848 . S
C673 C676 1.429 . S
C673 C677 1.411 1_556 S
C673 N680 1.377 . S
C674 C676 1.420 . S
C674 C678 1.423 1_556 S
C674 C686 1.392 . S
C675 C677 1.420 . S
C675 C678 1.351 . S
C675 H698 0.931 . S
C676 C673 1.429 . S
C676 C674 1.420 . S
C676 N684 1.362 . S
C677 C673 1.411 1_554 S
C677 C675 1.420 . S
C677 C682 1.395 . S
C678 C674 1.423 1_554 S
C678 C675 1.351 . S
C678 H690 0.930 . S
C679 C681 1.400 1_554 S
C679 C682 1.386 . S
C679 H691 0.930 . S
N680 C673 1.377 . S
N680 C681 1.321 . S
N680 Eu683 2.609 . S
C681 C679 1.400 1_556 S
C681 N680 1.321 . S
C681 H688 0.930 . S
C682 C677 1.395 . S
C682 C679 1.386 . S
C682 H701 0.930 . S
Eu683 N680 2.609 . S
Eu683 N684 2.657 . S
Eu683 O717 2.380 . S
Eu683 O718 2.432 . S
Eu683 O722 2.558 1_556 S
Eu683 O723 2.612 . S
Eu683 O725 2.339 . S
Eu683 O726 2.563 . S
Eu683 O727 2.419 1_556 S
Eu683 C747 2.848 1_556 S
N684 C676 1.362 . S
N684 Eu683 2.657 . S
N684 C685 1.334 . S
C685 N684 1.334 . S
C685 C687 1.413 . S
C685 H692 0.929 . S
C686 C674 1.392 . S
C686 C687 1.367 . S
C686 H694 0.930 . S
C687 C685 1.413 . S
C687 C686 1.367 . S
C687 H689 0.930 . S
H688 C681 0.930 . S
H689 C687 0.930 . S
H690 C678 0.930 . S
H691 C679 0.930 . S
H692 C685 0.929 . S
H693 C707 0.930 . S
H694 C686 0.930 . S
H695 C713 0.930 . S
H696 C704 0.929 . S
H697 C711 0.930 . S
H698 C675 0.931 . S
H699 C705 0.930 . S
H700 C738 0.930 . S
H701 C682 0.930 . S
H702 C737 0.931 . S
N703 Eu672 2.657 . S
N703 C704 1.334 . S
N703 C708 1.362 . S
C704 H696 0.929 . S
C704 N703 1.334 . S
C704 C707 1.413 . S
C705 H699 0.930 . S
C705 C706 1.392 1_455 S
C705 C707 1.367 1_455 S
C706 C705 1.392 1_655 S
C706 C708 1.420 . S
C706 C738 1.423 1_655 S
C707 H693 0.930 . S
C707 C704 1.413 . S
C707 C705 1.367 1_655 S
C708 N703 1.362 . S
C708 C706 1.420 . S
C708 C712 1.429 . S
H709 C714 0.930 . S
N710 Eu672 2.609 . S
N710 C712 1.377 . S
N710 C713 1.321 . S
C711 H697 0.930 . S
C711 C713 1.400 . S
C711 C714 1.386 . S
C712 C708 1.429 . S
C712 N710 1.377 . S
C712 C715 1.411 . S
C713 H695 0.930 . S
C713 N710 1.321 . S
C713 C711 1.400 . S
C714 H709 0.930 . S
C714 C711 1.386 . S
C714 C715 1.395 . S
C715 C712 1.411 . S
C715 C714 1.395 . S
C715 C737 1.420 1_655 S
O716 Eu672 2.558 . S
O716 C736 1.257 . S
O717 Eu672 2.612 . S
O717 Eu683 2.380 . S
O717 C728 1.276 . S
O718 Eu683 2.432 . S
O718 C735 1.264 . S
O719 Eu672 2.339 . S
O719 C735 1.254 . S
O720 Eu672 2.563 . S
O720 C728 1.235 . S
O721 Eu672 2.419 . S
O721 C736 1.249 . S
O722 Eu683 2.558 1_554 S
O722 C747 1.257 . S
O723 Eu672 2.380 . S
O723 Eu683 2.612 . S
O723 C739 1.276 . S
O724 Eu672 2.432 . S
O724 C746 1.264 . S
O725 Eu683 2.339 . S
O725 C746 1.254 . S
O726 Eu683 2.563 . S
O726 C739 1.235 . S
O727 Eu683 2.419 1_554 S
O727 C747 1.249 . S
C728 O717 1.276 . S
C728 O720 1.235 . S
C729 C731 1.393 . S
C729 C733 1.395 . S
C729 C736 1.492 . S
C730 C731 1.392 . S
C730 C732 1.386 . S
C731 C729 1.393 . S
C731 C730 1.392 . S
C731 H748 0.930 . S
C732 C730 1.386 . S
C732 C734 1.395 . S
C732 H749 0.930 . S
C733 C729 1.395 . S
C733 C734 1.379 . S
C733 H750 0.930 . S
C734 C732 1.395 . S
C734 C733 1.379 . S
C734 H751 0.930 . S
C735 O718 1.264 . S
C735 O719 1.254 . S
C736 Eu672 2.848 . S
C736 O716 1.257 . S
C736 O721 1.249 . S
C736 C729 1.492 . S
C737 H702 0.931 . S
C737 C715 1.420 1_455 S
C737 C738 1.351 . S
C738 H700 0.930 . S
C738 C706 1.423 1_455 S
C738 C737 1.351 . S
C739 O723 1.276 . S
C739 O726 1.235 . S
C740 C741 1.393 . S
C740 C744 1.395 . S
C740 C747 1.492 . S
C741 C740 1.393 . S
C741 C742 1.392 . S
C741 H752 0.930 . S
C742 C741 1.392 . S
C742 C743 1.386 . S
C743 C742 1.386 . S
C743 C745 1.395 . S
C743 H753 0.930 . S
C744 C740 1.395 . S
C744 C745 1.379 . S
C744 H754 0.930 . S
C745 C743 1.395 . S
C745 C744 1.379 . S
C745 H755 0.930 . S
C746 O724 1.264 . S
C746 O725 1.254 . S
C747 Eu683 2.848 1_554 S
C747 O722 1.257 . S
C747 O727 1.249 . S
C747 C740 1.492 . S
H748 C731 0.930 . S
H749 C732 0.930 . S
H750 C733 0.930 . S
H751 C734 0.930 . S
H752 C741 0.930 . S
H753 C743 0.930 . S
H754 C744 0.930 . S
H755 C745 0.930 . S
Eu756 N787 2.657 . S
Eu756 N794 2.609 . S
Eu756 O800 2.558 . S
Eu756 O801 2.612 . S
Eu756 O803 2.339 . S
Eu756 O804 2.563 . S
Eu756 O805 2.419 . S
Eu756 O807 2.380 . S
Eu756 O808 2.432 . S
Eu756 C820 2.848 . S
C757 C760 1.429 . S
C757 C761 1.411 . S
C757 N764 1.377 . S
C758 C760 1.420 . S
C758 C762 1.423 . S
C758 C770 1.392 . S
C759 C761 1.420 . S
C759 C762 1.351 . S
C759 H782 0.931 . S
C760 C757 1.429 . S
C760 C758 1.420 . S
C760 N768 1.362 . S
C761 C757 1.411 . S
C761 C759 1.420 . S
C761 C766 1.395 . S
C762 C758 1.423 . S
C762 C759 1.351 . S
C762 H774 0.930 . S
C763 C765 1.400 . S
C763 C766 1.386 . S
C763 H775 0.930 . S
N764 C757 1.377 . S
N764 C765 1.321 . S
N764 Eu767 2.609 . S
C765 C763 1.400 . S
C765 N764 1.321 . S
C765 H772 0.930 . S
C766 C761 1.395 . S
C766 C763 1.386 . S
C766 H785 0.930 . S
Eu767 N764 2.609 . S
Eu767 N768 2.657 . S
Eu767 O801 2.380 . S
Eu767 O802 2.432 . S
Eu767 O806 2.558 . S
Eu767 O807 2.612 . S
Eu767 O809 2.339 . S
Eu767 O810 2.563 . S
Eu767 O811 2.419 . S
Eu767 C831 2.848 . S
N768 C760 1.362 . S
N768 Eu767 2.657 . S
N768 C769 1.334 . S
C769 N768 1.334 . S
C769 C771 1.413 . S
C769 H776 0.929 . S
C770 C758 1.392 . S
C770 C771 1.367 . S
C770 H778 0.930 . S
C771 C769 1.413 . S
C771 C770 1.367 . S
C771 H773 0.930 . S
H772 C765 0.930 . S
H773 C771 0.930 . S
H774 C762 0.930 . S
H775 C763 0.930 . S
H776 C769 0.929 . S
H777 C791 0.930 . S
H778 C770 0.930 . S
H779 C797 0.930 . S
H780 C788 0.929 . S
H781 C795 0.930 1_565 S
H782 C759 0.931 . S
H783 C789 0.930 . S
H784 C822 0.930 . S
H785 C766 0.930 . S
H786 C821 0.931 . S
N787 Eu756 2.657 . S
N787 C788 1.334 . S
N787 C792 1.362 . S
C788 H780 0.929 . S
C788 N787 1.334 . S
C788 C791 1.413 . S
C789 H783 0.930 . S
C789 C790 1.392 . S
C789 C791 1.367 . S
C790 C789 1.392 . S
C790 C792 1.420 . S
C790 C822 1.423 . S
C791 H777 0.930 . S
C791 C788 1.413 . S
C791 C789 1.367 . S
C792 N787 1.362 . S
C792 C790 1.420 . S
C792 C796 1.429 . S
H793 C798 0.930 . S
N794 Eu756 2.609 . S
N794 C796 1.377 . S
N794 C797 1.321 . S
C795 H781 0.930 1_545 S
C795 C797 1.400 . S
C795 C798 1.386 . S
C796 C792 1.429 . S
C796 N794 1.377 . S
C796 C799 1.411 . S
C797 H779 0.930 . S
C797 N794 1.321 . S
C797 C795 1.400 . S
C798 H793 0.930 . S
C798 C795 1.386 . S
C798 C799 1.395 . S
C799 C796 1.411 . S
C799 C798 1.395 . S
C799 C821 1.420 . S
O800 Eu756 2.558 . S
O800 C820 1.257 . S
O801 Eu756 2.612 . S
O801 Eu767 2.380 . S
O801 C812 1.276 . S
O802 Eu767 2.432 . S
O802 C819 1.264 . S
O803 Eu756 2.339 . S
O803 C819 1.254 . S
O804 Eu756 2.563 . S
O804 C812 1.235 . S
O805 Eu756 2.419 . S
O805 C820 1.249 . S
O806 Eu767 2.558 . S
O806 C831 1.257 . S
O807 Eu756 2.380 . S
O807 Eu767 2.612 . S
O807 C823 1.276 . S
O808 Eu756 2.432 . S
O808 C830 1.264 . S
O809 Eu767 2.339 . S
O809 C830 1.254 . S
O810 Eu767 2.563 . S
O810 C823 1.235 . S
O811 Eu767 2.419 . S
O811 C831 1.249 . S
C812 O801 1.276 . S
C812 O804 1.235 . S
C813 C815 1.393 . S
C813 C817 1.395 . S
C813 C820 1.492 . S
C814 C815 1.392 1_554 S
C814 C816 1.386 . S
C815 C813 1.393 . S
C815 C814 1.392 1_556 S
C815 H832 0.930 . S
C816 C814 1.386 . S
C816 C818 1.395 . S
C816 H833 0.930 . S
C817 C813 1.395 . S
C817 C818 1.379 1_556 S
C817 H834 0.930 . S
C818 C816 1.395 . S
C818 C817 1.379 1_554 S
C818 H835 0.930 . S
C819 O802 1.264 . S
C819 O803 1.254 . S
C820 Eu756 2.848 . S
C820 O800 1.257 . S
C820 O805 1.249 . S
C820 C813 1.492 . S
C821 H786 0.931 . S
C821 C799 1.420 . S
C821 C822 1.351 . S
C822 H784 0.930 . S
C822 C790 1.423 . S
C822 C821 1.351 . S
C823 O807 1.276 . S
C823 O810 1.235 . S
C824 C825 1.393 . S
C824 C828 1.395 . S
C824 C831 1.492 . S
C825 C824 1.393 . S
C825 C826 1.392 . S
C825 H836 0.930 . S
C826 C825 1.392 . S
C826 C827 1.386 . S
C827 C826 1.386 . S
C827 C829 1.395 . S
C827 H837 0.930 . S
C828 C824 1.395 . S
C828 C829 1.379 . S
C828 H838 0.930 . S
C829 C827 1.395 . S
C829 C828 1.379 . S
C829 H839 0.930 . S
C830 O808 1.264 . S
C830 O809 1.254 . S
C831 Eu767 2.848 . S
C831 O806 1.257 . S
C831 O811 1.249 . S
C831 C824 1.492 . S
H832 C815 0.930 . S
H833 C816 0.930 . S
H834 C817 0.930 . S
H835 C818 0.930 . S
H836 C825 0.930 . S
H837 C827 0.930 . S
H838 C828 0.930 . S
H839 C829 0.930 . S
Eu840 N871 2.657 . S
Eu840 N878 2.609 . S
Eu840 O884 2.558 . S
Eu840 O885 2.612 . S
Eu840 O887 2.339 . S
Eu840 O888 2.563 . S
Eu840 O889 2.419 . S
Eu840 O891 2.380 . S
Eu840 O892 2.432 . S
Eu840 C904 2.848 . S
C841 C844 1.429 . S
C841 C845 1.411 . S
C841 N848 1.377 . S
C842 C844 1.420 . S
C842 C846 1.423 . S
C842 C854 1.392 . S
C843 C845 1.420 . S
C843 C846 1.351 . S
C843 H866 0.931 . S
C844 C841 1.429 . S
C844 C842 1.420 . S
C844 N852 1.362 . S
C845 C841 1.411 . S
C845 C843 1.420 . S
C845 C850 1.395 . S
C846 C842 1.423 . S
C846 C843 1.351 . S
C846 H858 0.930 . S
C847 C849 1.400 . S
C847 C850 1.386 . S
C847 H859 0.930 . S
N848 C841 1.377 . S
N848 C849 1.321 . S
N848 Eu851 2.609 . S
C849 C847 1.400 . S
C849 N848 1.321 . S
C849 H856 0.930 . S
C850 C845 1.395 . S
C850 C847 1.386 . S
C850 H869 0.930 . S
Eu851 N848 2.609 . S
Eu851 N852 2.657 . S
Eu851 O885 2.380 . S
Eu851 O886 2.432 . S
Eu851 O890 2.558 . S
Eu851 O891 2.612 . S
Eu851 O893 2.339 . S
Eu851 O894 2.563 . S
Eu851 O895 2.419 . S
Eu851 C915 2.848 . S
N852 C844 1.362 . S
N852 Eu851 2.657 . S
N852 C853 1.334 . S
C853 N852 1.334 . S
C853 C855 1.413 . S
C853 H860 0.929 . S
C854 C842 1.392 . S
C854 C855 1.367 . S
C854 H862 0.930 . S
C855 C853 1.413 . S
C855 C854 1.367 . S
C855 H857 0.930 . S
H856 C849 0.930 . S
H857 C855 0.930 . S
H858 C846 0.930 . S
H859 C847 0.930 . S
H860 C853 0.929 . S
H861 C875 0.930 . S
H862 C854 0.930 . S
H863 C881 0.930 . S
H864 C872 0.929 . S
H865 C879 0.930 . S
H866 C843 0.931 . S
H867 C873 0.930 . S
H868 C906 0.930 . S
H869 C850 0.930 . S
H870 C905 0.931 . S
N871 Eu840 2.657 . S
N871 C872 1.334 . S
N871 C876 1.362 . S
C872 H864 0.929 . S
C872 N871 1.334 . S
C872 C875 1.413 . S
C873 H867 0.930 . S
C873 C874 1.392 . S
C873 C875 1.367 . S
C874 C873 1.392 . S
C874 C876 1.420 . S
C874 C906 1.423 . S
C875 H861 0.930 . S
C875 C872 1.413 . S
C875 C873 1.367 . S
C876 N871 1.362 . S
C876 C874 1.420 . S
C876 C880 1.429 . S
H877 C882 0.930 . S
N878 Eu840 2.609 . S
N878 C880 1.377 . S
N878 C881 1.321 . S
C879 H865 0.930 . S
C879 C881 1.400 . S
C879 C882 1.386 . S
C880 C876 1.429 . S
C880 N878 1.377 . S
C880 C883 1.411 . S
C881 H863 0.930 . S
C881 N878 1.321 . S
C881 C879 1.400 . S
C882 H877 0.930 . S
C882 C879 1.386 . S
C882 C883 1.395 . S
C883 C880 1.411 . S
C883 C882 1.395 . S
C883 C905 1.420 . S
O884 Eu840 2.558 . S
O884 C904 1.257 . S
O885 Eu840 2.612 . S
O885 Eu851 2.380 . S
O885 C896 1.276 . S
O886 Eu851 2.432 . S
O886 C903 1.264 . S
O887 Eu840 2.339 . S
O887 C903 1.254 . S
O888 Eu840 2.563 . S
O888 C896 1.235 . S
O889 Eu840 2.419 . S
O889 C904 1.249 . S
O890 Eu851 2.558 . S
O890 C915 1.257 . S
O891 Eu840 2.380 . S
O891 Eu851 2.612 . S
O891 C907 1.276 . S
O892 Eu840 2.432 . S
O892 C914 1.264 . S
O893 Eu851 2.339 . S
O893 C914 1.254 . S
O894 Eu851 2.563 . S
O894 C907 1.235 . S
O895 Eu851 2.419 . S
O895 C915 1.249 . S
C896 O885 1.276 . S
C896 O888 1.235 . S
C897 C899 1.393 . S
C897 C901 1.395 . S
C897 C904 1.492 . S
C898 C899 1.392 1_556 S
C898 C900 1.386 . S
C899 C897 1.393 . S
C899 C898 1.392 1_554 S
C899 H916 0.930 . S
C900 C898 1.386 . S
C900 C902 1.395 . S
C900 H917 0.930 . S
C901 C897 1.395 . S
C901 C902 1.379 1_554 S
C901 H918 0.930 . S
C902 C900 1.395 . S
C902 C901 1.379 1_556 S
C902 H919 0.930 . S
C903 O886 1.264 . S
C903 O887 1.254 . S
C904 Eu840 2.848 . S
C904 O884 1.257 . S
C904 O889 1.249 . S
C904 C897 1.492 . S
C905 H870 0.931 . S
C905 C883 1.420 . S
C905 C906 1.351 . S
C906 H868 0.930 . S
C906 C874 1.423 . S
C906 C905 1.351 . S
C907 O891 1.276 . S
C907 O894 1.235 . S
C908 C909 1.393 . S
C908 C912 1.395 . S
C908 C915 1.492 . S
C909 C908 1.393 . S
C909 C910 1.392 . S
C909 H920 0.930 . S
C910 C909 1.392 . S
C910 C911 1.386 . S
C911 C910 1.386 . S
C911 C913 1.395 . S
C911 H921 0.930 . S
C912 C908 1.395 . S
C912 C913 1.379 . S
C912 H922 0.930 . S
C913 C911 1.395 . S
C913 C912 1.379 . S
C913 H923 0.930 . S
C914 O892 1.264 . S
C914 O893 1.254 . S
C915 Eu851 2.848 . S
C915 O890 1.257 . S
C915 O895 1.249 . S
C915 C908 1.492 . S
H916 C899 0.930 . S
H917 C900 0.930 . S
H918 C901 0.930 . S
H919 C902 0.930 . S
H920 C909 0.930 . S
H921 C911 0.930 . S
H922 C912 0.930 . S
H923 C913 0.930 . S
Eu924 N955 2.657 . S
Eu924 N962 2.609 . S
Eu924 O968 2.558 1_554 S
Eu924 O969 2.612 . S
Eu924 O971 2.339 . S
Eu924 O972 2.563 . S
Eu924 O973 2.419 1_554 S
Eu924 O975 2.380 . S
Eu924 O976 2.432 . S
Eu924 C988 2.848 1_554 S
C925 C928 1.429 . S
C925 C929 1.411 . S
C925 N932 1.377 . S
C926 C928 1.420 1_545 S
C926 C930 1.423 . S
C926 C938 1.392 . S
C927 C929 1.420 1_545 S
C927 C930 1.351 . S
C927 H950 0.931 . S
C928 C925 1.429 . S
C928 C926 1.420 1_565 S
C928 N936 1.362 . S
C929 C925 1.411 . S
C929 C927 1.420 1_565 S
C929 C934 1.395 . S
C930 C926 1.423 . S
C930 C927 1.351 . S
C930 H942 0.930 . S
C931 C933 1.400 . S
C931 C934 1.386 . S
C931 H943 0.930 . S
N932 C925 1.377 . S
N932 C933 1.321 . S
N932 Eu935 2.609 . S
C933 C931 1.400 . S
C933 N932 1.321 . S
C933 H940 0.930 . S
C934 C929 1.395 . S
C934 C931 1.386 . S
C934 H953 0.906 1_565 S
Eu935 N932 2.609 . S
Eu935 N936 2.657 . S
Eu935 O969 2.380 . S
Eu935 O970 2.432 . S
Eu935 O974 2.558 . S
Eu935 O975 2.612 . S
Eu935 O977 2.339 . S
Eu935 O978 2.563 . S
Eu935 O979 2.419 . S
Eu935 C999 2.848 . S
N936 C928 1.362 . S
N936 Eu935 2.657 . S
N936 C937 1.334 . S
C937 N936 1.334 . S
C937 C939 1.413 . S
C937 H944 0.929 . S
C938 C926 1.392 . S
C938 C939 1.367 1_545 S
C938 H946 0.930 . S
C939 C937 1.413 . S
C939 C938 1.367 1_565 S
C939 H941 0.930 1_565 S
H940 C933 0.930 . S
H941 C939 0.930 1_545 S
H942 C930 0.930 . S
H943 C931 0.930 . S
H944 C937 0.929 . S
H945 C959 0.930 . S
H946 C938 0.930 . S
H947 C965 0.930 . S
H948 C956 0.929 . S
H949 C963 0.930 . S
H950 C927 0.931 . S
H951 C957 0.930 . S
H952 C990 0.930 . S
H953 C934 0.906 1_545 S
H954 C989 0.931 . S
N955 Eu924 2.657 . S
N955 C956 1.334 . S
N955 C960 1.362 . S
C956 H948 0.929 . S
C956 N955 1.334 . S
C956 C959 1.413 . S
C957 H951 0.930 . S
C957 C958 1.392 . S
C957 C959 1.367 . S
C958 C957 1.392 . S
C958 C960 1.420 . S
C958 C990 1.423 1_554 S
C959 H945 0.930 . S
C959 C956 1.413 . S
C959 C957 1.367 . S
C960 N955 1.362 . S
C960 C958 1.420 . S
C960 C964 1.429 . S
H961 C966 0.930 . S
N962 Eu924 2.609 . S
N962 C964 1.377 . S
N962 C965 1.321 . S
C963 H949 0.930 . S
C963 C965 1.400 1_556 S
C963 C966 1.386 . S
C964 C960 1.429 . S
C964 N962 1.377 . S
C964 C967 1.411 1_554 S
C965 H947 0.930 . S
C965 N962 1.321 . S
C965 C963 1.400 1_554 S
C966 H961 0.930 . S
C966 C963 1.386 . S
C966 C967 1.395 . S
C967 C964 1.411 1_556 S
C967 C966 1.395 . S
C967 C989 1.420 . S
O968 Eu924 2.558 1_556 S
O968 C988 1.257 . S
O969 Eu924 2.612 . S
O969 Eu935 2.380 . S
O969 C980 1.276 . S
O970 Eu935 2.432 . S
O970 C987 1.264 . S
O971 Eu924 2.339 . S
O971 C987 1.254 . S
O972 Eu924 2.563 . S
O972 C980 1.235 . S
O973 Eu924 2.419 1_556 S
O973 C988 1.249 . S
O974 Eu935 2.558 . S
O974 C999 1.257 . S
O975 Eu924 2.380 . S
O975 Eu935 2.612 . S
O975 C991 1.276 . S
O976 Eu924 2.432 . S
O976 C998 1.264 . S
O977 Eu935 2.339 . S
O977 C998 1.254 . S
O978 Eu935 2.563 . S
O978 C991 1.235 . S
O979 Eu935 2.419 . S
O979 C999 1.249 . S
C980 O969 1.276 . S
C980 O972 1.235 . S
C981 C983 1.393 . S
C981 C985 1.395 . S
C981 C988 1.492 . S
C982 C983 1.392 . S
C982 C984 1.386 . S
C983 C981 1.393 . S
C983 C982 1.392 . S
C983 H1000 0.930 . S
C984 C982 1.386 . S
C984 C986 1.395 . S
C984 H1001 0.930 . S
C985 C981 1.395 . S
C985 C986 1.379 . S
C985 H1002 0.930 . S
C986 C984 1.395 . S
C986 C985 1.379 . S
C986 H1003 0.930 . S
C987 O970 1.264 . S
C987 O971 1.254 . S
C988 Eu924 2.848 1_556 S
C988 O968 1.257 . S
C988 O973 1.249 . S
C988 C981 1.492 . S
C989 H954 0.931 . S
C989 C967 1.420 . S
C989 C990 1.351 . S
C990 H952 0.930 . S
C990 C958 1.423 1_556 S
C990 C989 1.351 . S
C991 O975 1.276 . S
C991 O978 1.235 . S
C992 C993 1.393 . S
C992 C996 1.395 . S
C992 C999 1.492 . S
C993 C992 1.393 . S
C993 C994 1.392 . S
C993 H1004 0.930 . S
C994 C993 1.392 . S
C994 C995 1.386 . S
C995 C994 1.386 . S
C995 C997 1.395 . S
C995 H1005 0.930 . S
C996 C992 1.395 . S
C996 C997 1.379 . S
C996 H1006 0.930 . S
C997 C995 1.395 . S
C997 C996 1.379 . S
C997 H1007 0.930 . S
C998 O976 1.264 . S
C998 O977 1.254 . S
C999 Eu935 2.848 . S
C999 O974 1.257 . S
C999 O979 1.249 . S
C999 C992 1.492 . S
H1000 C983 0.930 . S
H1001 C984 0.930 . S
H1002 C985 0.930 . S
H1003 C986 0.930 . S
H1004 C993 0.930 . S
H1005 C995 0.930 . S
H1006 C996 0.930 . S
H1007 C997 0.930 . S
Eu1008 N1039 2.657 . S
Eu1008 N1046 2.609 . S
Eu1008 O1052 2.558 . S
Eu1008 O1053 2.612 . S
Eu1008 O1055 2.339 . S
Eu1008 O1056 2.563 . S
Eu1008 O1057 2.419 . S
Eu1008 O1059 2.380 . S
Eu1008 O1060 2.432 . S
Eu1008 C1072 2.848 . S
C1009 C1012 1.429 . S
C1009 C1013 1.411 1_554 S
C1009 N1016 1.377 . S
C1010 C1012 1.421 . S
C1010 C1014 1.422 1_554 S
C1010 C1022 1.392 . S
C1011 C1013 1.420 . S
C1011 C1014 1.351 . S
C1011 H1034 0.931 . S
C1012 C1009 1.429 . S
C1012 C1010 1.421 . S
C1012 N1020 1.362 . S
C1013 C1009 1.411 1_556 S
C1013 C1011 1.420 . S
C1013 C1018 1.395 . S
C1014 C1010 1.422 1_556 S
C1014 C1011 1.351 . S
C1014 H1026 0.930 . S
C1015 C1017 1.400 1_556 S
C1015 C1018 1.386 . S
C1015 H1027 0.930 . S
N1016 C1009 1.377 . S
N1016 C1017 1.321 . S
N1016 Eu1019 2.609 . S
C1017 C1015 1.400 1_554 S
C1017 N1016 1.321 . S
C1017 H1024 0.930 . S
C1018 C1013 1.395 . S
C1018 C1015 1.386 . S
C1018 H1037 0.930 . S
Eu1019 N1016 2.609 . S
Eu1019 N1020 2.657 . S
Eu1019 O1053 2.380 . S
Eu1019 O1054 2.432 . S
Eu1019 O1058 2.558 1_554 S
Eu1019 O1059 2.612 . S
Eu1019 O1061 2.339 . S
Eu1019 O1062 2.563 . S
Eu1019 O1063 2.419 1_554 S
Eu1019 C1083 2.848 1_554 S
N1020 C1012 1.362 . S
N1020 Eu1019 2.657 . S
N1020 C1021 1.334 . S
C1021 N1020 1.334 . S
C1021 C1023 1.413 . S
C1021 H1028 0.929 . S
C1022 C1010 1.392 . S
C1022 C1023 1.367 . S
C1022 H1030 0.930 . S
C1023 C1021 1.413 . S
C1023 C1022 1.367 . S
C1023 H1025 0.930 . S
H1024 C1017 0.930 . S
H1025 C1023 0.930 . S
H1026 C1014 0.930 . S
H1027 C1015 0.930 . S
H1028 C1021 0.929 . S
H1029 C1043 0.930 . S
H1030 C1022 0.930 . S
H1031 C1049 0.930 . S
H1032 C1040 0.929 . S
H1033 C1047 0.930 . S
H1034 C1011 0.931 . S
H1035 C1041 0.930 . S
H1036 C1074 0.930 . S
H1037 C1018 0.930 . S
H1038 C1073 0.931 . S
N1039 Eu1008 2.657 . S
N1039 C1040 1.334 . S
N1039 C1044 1.362 . S
C1040 H1032 0.929 . S
C1040 N1039 1.334 . S
C1040 C1043 1.413 . S
C1041 H1035 0.930 . S
C1041 C1042 1.392 1_455 S
C1041 C1043 1.367 1_455 S
C1042 C1041 1.392 1_655 S
C1042 C1044 1.420 . S
C1042 C1074 1.423 1_655 S
C1043 H1029 0.930 . S
C1043 C1040 1.413 . S
C1043 C1041 1.367 1_655 S
C1044 N1039 1.362 . S
C1044 C1042 1.420 . S
C1044 C1048 1.429 . S
H1045 C1050 0.930 . S
N1046 Eu1008 2.609 . S
N1046 C1048 1.377 . S
N1046 C1049 1.321 . S
C1047 H1033 0.930 . S
C1047 C1049 1.400 . S
C1047 C1050 1.386 . S
C1048 C1044 1.429 . S
C1048 N1046 1.377 . S
C1048 C1051 1.411 . S
C1049 H1031 0.930 . S
C1049 N1046 1.321 . S
C1049 C1047 1.400 . S
C1050 H1045 0.930 . S
C1050 C1047 1.386 . S
C1050 C1051 1.395 . S
C1051 C1048 1.411 . S
C1051 C1050 1.395 . S
C1051 C1073 1.420 1_655 S
O1052 Eu1008 2.558 . S
O1052 C1072 1.257 . S
O1053 Eu1008 2.612 . S
O1053 Eu1019 2.380 . S
O1053 C1064 1.276 . S
O1054 Eu1019 2.432 . S
O1054 C1071 1.264 . S
O1055 Eu1008 2.339 . S
O1055 C1071 1.254 . S
O1056 Eu1008 2.563 . S
O1056 C1064 1.235 . S
O1057 Eu1008 2.419 . S
O1057 C1072 1.249 . S
O1058 Eu1019 2.558 1_556 S
O1058 C1083 1.257 . S
O1059 Eu1008 2.380 . S
O1059 Eu1019 2.612 . S
O1059 C1075 1.276 . S
O1060 Eu1008 2.432 . S
O1060 C1082 1.264 . S
O1061 Eu1019 2.339 . S
O1061 C1082 1.254 . S
O1062 Eu1019 2.563 . S
O1062 C1075 1.235 . S
O1063 Eu1019 2.419 1_556 S
O1063 C1083 1.249 . S
C1064 O1053 1.276 . S
C1064 O1056 1.235 . S
C1065 C1067 1.393 . S
C1065 C1069 1.395 . S
C1065 C1072 1.492 . S
C1066 C1067 1.392 . S
C1066 C1068 1.386 . S
C1067 C1065 1.393 . S
C1067 C1066 1.392 . S
C1067 H1084 0.930 . S
C1068 C1066 1.386 . S
C1068 C1070 1.395 . S
C1068 H1085 0.930 . S
C1069 C1065 1.395 . S
C1069 C1070 1.379 . S
C1069 H1086 0.930 . S
C1070 C1068 1.395 . S
C1070 C1069 1.379 . S
C1070 H1087 0.930 . S
C1071 O1054 1.264 . S
C1071 O1055 1.254 . S
C1072 Eu1008 2.848 . S
C1072 O1052 1.257 . S
C1072 O1057 1.249 . S
C1072 C1065 1.492 . S
C1073 H1038 0.931 . S
C1073 C1051 1.420 1_455 S
C1073 C1074 1.351 . S
C1074 H1036 0.930 . S
C1074 C1042 1.423 1_455 S
C1074 C1073 1.351 . S
C1075 O1059 1.276 . S
C1075 O1062 1.235 . S
C1076 C1077 1.393 . S
C1076 C1080 1.395 . S
C1076 C1083 1.492 . S
C1077 C1076 1.393 . S
C1077 C1078 1.392 . S
C1077 H1088 0.930 . S
C1078 C1077 1.392 . S
C1078 C1079 1.386 . S
C1079 C1078 1.386 . S
C1079 C1081 1.395 . S
C1079 H1089 0.930 . S
C1080 C1076 1.395 . S
C1080 C1081 1.379 . S
C1080 H1090 0.930 . S
C1081 C1079 1.395 . S
C1081 C1080 1.379 . S
C1081 H1091 0.930 . S
C1082 O1060 1.264 . S
C1082 O1061 1.254 . S
C1083 Eu1019 2.848 1_556 S
C1083 O1058 1.257 . S
C1083 O1063 1.249 . S
C1083 C1076 1.492 . S
H1084 C1067 0.930 . S
H1085 C1068 0.930 . S
H1086 C1069 0.930 . S
H1087 C1070 0.930 . S
H1088 C1077 0.930 . S
H1089 C1079 0.930 . S
H1090 C1080 0.930 . S
H1091 C1081 0.930 . S
Eu1092 N1123 2.657 . S
Eu1092 N1130 2.609 . S
Eu1092 O1136 2.558 . S
Eu1092 O1137 2.612 . S
Eu1092 O1139 2.339 . S
Eu1092 O1140 2.563 . S
Eu1092 O1141 2.419 . S
Eu1092 O1143 2.380 . S
Eu1092 O1144 2.432 . S
Eu1092 C1156 2.848 . S
C1093 C1096 1.429 1_554 S
C1093 C1097 1.411 . S
C1093 N1100 1.377 1_554 S
C1094 C1096 1.420 1_554 S
C1094 C1098 1.423 . S
C1094 C1106 1.392 1_554 S
C1095 C1097 1.420 . S
C1095 C1098 1.351 . S
C1095 H1118 0.931 . S
C1096 C1093 1.429 1_556 S
C1096 C1094 1.420 1_556 S
C1096 N1104 1.362 . S
C1097 C1093 1.411 . S
C1097 C1095 1.420 . S
C1097 C1102 1.395 . S
C1098 C1094 1.423 . S
C1098 C1095 1.351 . S
C1098 H1110 0.930 . S
C1099 C1101 1.400 1_554 S
C1099 C1102 1.386 . S
C1099 H1111 0.930 . S
N1100 C1093 1.377 1_556 S
N1100 C1101 1.321 . S
N1100 Eu1103 2.609 . S
C1101 C1099 1.400 1_556 S
C1101 N1100 1.321 . S
C1101 H1108 0.930 . S
C1102 C1097 1.395 . S
C1102 C1099 1.386 . S
C1102 H1121 0.930 . S
Eu1103 N1100 2.609 . S
Eu1103 N1104 2.657 . S
Eu1103 O1137 2.380 . S
Eu1103 O1138 2.432 . S
Eu1103 O1142 2.558 1_556 S
Eu1103 O1143 2.612 . S
Eu1103 O1145 2.339 . S
Eu1103 O1146 2.563 . S
Eu1103 O1147 2.419 1_556 S
Eu1103 C1167 2.848 1_556 S
N1104 C1096 1.362 . S
N1104 Eu1103 2.657 . S
N1104 C1105 1.334 . S
C1105 N1104 1.334 . S
C1105 C1107 1.413 . S
C1105 H1112 0.929 . S
C1106 C1094 1.392 1_556 S
C1106 C1107 1.367 . S
C1106 H1114 0.930 . S
C1107 C1105 1.413 . S
C1107 C1106 1.367 . S
C1107 H1109 0.930 . S
H1108 C1101 0.930 . S
H1109 C1107 0.930 . S
H1110 C1098 0.930 . S
H1111 C1099 0.930 . S
H1112 C1105 0.929 . S
H1113 C1127 0.930 . S
H1114 C1106 0.930 . S
H1115 C1133 0.930 . S
H1116 C1124 0.929 . S
H1117 C1131 0.930 1_565 S
H1118 C1095 0.931 . S
H1119 C1125 0.930 . S
H1120 C1158 0.930 . S
H1121 C1102 0.930 . S
H1122 C1157 0.931 . S
N1123 Eu1092 2.657 . S
N1123 C1124 1.334 . S
N1123 C1128 1.362 . S
C1124 H1116 0.929 . S
C1124 N1123 1.334 . S
C1124 C1127 1.413 . S
C1125 H1119 0.930 . S
C1125 C1126 1.392 1_655 S
C1125 C1127 1.367 1_655 S
C1126 C1125 1.392 1_455 S
C1126 C1128 1.420 . S
C1126 C1158 1.423 1_455 S
C1127 H1113 0.930 . S
C1127 C1124 1.413 . S
C1127 C1125 1.367 1_455 S
C1128 N1123 1.362 . S
C1128 C1126 1.420 . S
C1128 C1132 1.429 . S
H1129 C1134 0.930 1_565 S
N1130 Eu1092 2.609 . S
N1130 C1132 1.377 . S
N1130 C1133 1.321 . S
C1131 H1117 0.930 1_545 S
C1131 C1133 1.400 . S
C1131 C1134 1.386 . S
C1132 C1128 1.429 . S
C1132 N1130 1.377 . S
C1132 C1135 1.411 . S
C1133 H1115 0.930 . S
C1133 N1130 1.321 . S
C1133 C1131 1.400 . S
C1134 H1129 0.930 1_545 S
C1134 C1131 1.386 . S
C1134 C1135 1.395 . S
C1135 C1132 1.411 . S
C1135 C1134 1.395 . S
C1135 C1157 1.420 1_455 S
O1136 Eu1092 2.558 . S
O1136 C1156 1.257 . S
O1137 Eu1092 2.612 . S
O1137 Eu1103 2.380 . S
O1137 C1148 1.276 . S
O1138 Eu1103 2.432 . S
O1138 C1155 1.264 . S
O1139 Eu1092 2.339 . S
O1139 C1155 1.254 . S
O1140 Eu1092 2.563 . S
O1140 C1148 1.235 . S
O1141 Eu1092 2.419 . S
O1141 C1156 1.249 . S
O1142 Eu1103 2.558 1_554 S
O1142 C1167 1.257 . S
O1143 Eu1092 2.380 . S
O1143 Eu1103 2.612 . S
O1143 C1159 1.276 . S
O1144 Eu1092 2.432 . S
O1144 C1166 1.264 . S
O1145 Eu1103 2.339 . S
O1145 C1166 1.254 . S
O1146 Eu1103 2.563 . S
O1146 C1159 1.235 . S
O1147 Eu1103 2.419 1_554 S
O1147 C1167 1.249 . S
C1148 O1137 1.276 . S
C1148 O1140 1.235 . S
C1149 C1151 1.393 . S
C1149 C1153 1.395 . S
C1149 C1156 1.492 . S
C1150 C1151 1.392 . S
C1150 C1152 1.386 . S
C1151 C1149 1.393 . S
C1151 C1150 1.392 . S
C1151 H1168 0.930 . S
C1152 C1150 1.386 . S
C1152 C1154 1.395 . S
C1152 H1169 0.930 . S
C1153 C1149 1.395 . S
C1153 C1154 1.379 . S
C1153 H1170 0.930 . S
C1154 C1152 1.395 . S
C1154 C1153 1.379 . S
C1154 H1171 0.930 . S
C1155 O1138 1.264 . S
C1155 O1139 1.254 . S
C1156 Eu1092 2.848 . S
C1156 O1136 1.257 . S
C1156 O1141 1.249 . S
C1156 C1149 1.492 . S
C1157 H1122 0.931 . S
C1157 C1135 1.420 1_655 S
C1157 C1158 1.351 . S
C1158 H1120 0.930 . S
C1158 C1126 1.423 1_655 S
C1158 C1157 1.351 . S
C1159 O1143 1.276 . S
C1159 O1146 1.235 . S
C1160 C1161 1.393 . S
C1160 C1164 1.395 . S
C1160 C1167 1.492 . S
C1161 C1160 1.393 . S
C1161 C1162 1.392 . S
C1161 H1172 0.930 . S
C1162 C1161 1.392 . S
C1162 C1163 1.386 . S
C1163 C1162 1.386 . S
C1163 C1165 1.395 . S
C1163 H1173 0.930 . S
C1164 C1160 1.395 . S
C1164 C1165 1.379 . S
C1164 H1174 0.930 . S
C1165 C1163 1.395 . S
C1165 C1164 1.379 . S
C1165 H1175 0.930 . S
C1166 O1144 1.264 . S
C1166 O1145 1.254 . S
C1167 Eu1103 2.848 1_554 S
C1167 O1142 1.257 . S
C1167 O1147 1.249 . S
C1167 C1160 1.492 . S
H1168 C1151 0.930 . S
H1169 C1152 0.930 . S
H1170 C1153 0.930 . S
H1171 C1154 0.930 . S
H1172 C1161 0.930 . S
H1173 C1163 0.930 . S
H1174 C1164 0.930 . S
H1175 C1165 0.930 . S
Eu1176 N1207 2.657 . S
Eu1176 N1214 2.609 . S
Eu1176 O1220 2.558 . S
Eu1176 O1221 2.612 . S
Eu1176 O1223 2.339 . S
Eu1176 O1224 2.563 . S
Eu1176 O1225 2.419 . S
Eu1176 O1227 2.380 . S
Eu1176 O1228 2.432 . S
Eu1176 C1240 2.848 . S
C1177 C1180 1.429 . S
C1177 C1181 1.411 . S
C1177 N1184 1.377 . S
C1178 C1180 1.420 . S
C1178 C1182 1.423 . S
C1178 C1190 1.392 . S
C1179 C1181 1.420 . S
C1179 C1182 1.351 . S
C1179 H1202 0.931 . S
C1180 C1177 1.429 . S
C1180 C1178 1.420 . S
C1180 N1188 1.362 . S
C1181 C1177 1.411 . S
C1181 C1179 1.420 . S
C1181 C1186 1.395 . S
C1182 C1178 1.423 . S
C1182 C1179 1.351 . S
C1182 H1194 0.930 . S
C1183 C1185 1.400 . S
C1183 C1186 1.386 . S
C1183 H1195 0.930 . S
N1184 C1177 1.377 . S
N1184 C1185 1.321 . S
N1184 Eu1187 2.609 . S
C1185 C1183 1.400 . S
C1185 N1184 1.321 . S
C1185 H1192 0.930 . S
C1186 C1181 1.395 . S
C1186 C1183 1.386 . S
C1186 H1205 0.930 . S
Eu1187 N1184 2.609 . S
Eu1187 N1188 2.657 . S
Eu1187 O1221 2.380 . S
Eu1187 O1222 2.432 . S
Eu1187 O1226 2.558 . S
Eu1187 O1227 2.612 . S
Eu1187 O1229 2.339 . S
Eu1187 O1230 2.563 . S
Eu1187 O1231 2.419 . S
Eu1187 C1251 2.848 . S
N1188 C1180 1.362 . S
N1188 Eu1187 2.657 . S
N1188 C1189 1.334 . S
C1189 N1188 1.334 . S
C1189 C1191 1.413 . S
C1189 H1196 0.929 . S
C1190 C1178 1.392 . S
C1190 C1191 1.367 . S
C1190 H1198 0.930 . S
C1191 C1189 1.413 . S
C1191 C1190 1.367 . S
C1191 H1193 0.930 . S
H1192 C1185 0.930 . S
H1193 C1191 0.930 . S
H1194 C1182 0.930 . S
H1195 C1183 0.930 . S
H1196 C1189 0.929 . S
H1197 C1211 0.930 . S
H1198 C1190 0.930 . S
H1199 C1217 0.930 . S
H1200 C1208 0.929 . S
H1201 C1215 0.930 . S
H1202 C1179 0.931 . S
H1203 C1209 0.930 . S
H1204 C1242 0.930 . S
H1205 C1186 0.930 . S
H1206 C1241 0.931 . S
N1207 Eu1176 2.657 . S
N1207 C1208 1.334 . S
N1207 C1212 1.362 . S
C1208 H1200 0.929 . S
C1208 N1207 1.334 . S
C1208 C1211 1.413 . S
C1209 H1203 0.930 . S
C1209 C1210 1.392 . S
C1209 C1211 1.367 . S
C1210 C1209 1.392 . S
C1210 C1212 1.420 . S
C1210 C1242 1.423 . S
C1211 H1197 0.930 . S
C1211 C1208 1.413 . S
C1211 C1209 1.367 . S
C1212 N1207 1.362 . S
C1212 C1210 1.420 . S
C1212 C1216 1.429 . S
H1213 C1218 0.930 . S
N1214 Eu1176 2.609 . S
N1214 C1216 1.377 . S
N1214 C1217 1.321 . S
C1215 H1201 0.930 . S
C1215 C1217 1.400 . S
C1215 C1218 1.386 . S
C1216 C1212 1.429 . S
C1216 N1214 1.377 . S
C1216 C1219 1.411 . S
C1217 H1199 0.930 . S
C1217 N1214 1.321 . S
C1217 C1215 1.400 . S
C1218 H1213 0.930 . S
C1218 C1215 1.386 . S
C1218 C1219 1.395 . S
C1219 C1216 1.411 . S
C1219 C1218 1.395 . S
C1219 C1241 1.420 . S
O1220 Eu1176 2.558 . S
O1220 C1240 1.257 . S
O1221 Eu1176 2.612 . S
O1221 Eu1187 2.380 . S
O1221 C1232 1.276 . S
O1222 Eu1187 2.432 . S
O1222 C1239 1.264 . S
O1223 Eu1176 2.339 . S
O1223 C1239 1.254 . S
O1224 Eu1176 2.563 . S
O1224 C1232 1.235 . S
O1225 Eu1176 2.419 . S
O1225 C1240 1.249 . S
O1226 Eu1187 2.558 . S
O1226 C1251 1.257 . S
O1227 Eu1176 2.380 . S
O1227 Eu1187 2.612 . S
O1227 C1243 1.276 . S
O1228 Eu1176 2.432 . S
O1228 C1250 1.264 . S
O1229 Eu1187 2.339 . S
O1229 C1250 1.254 . S
O1230 Eu1187 2.563 . S
O1230 C1243 1.235 . S
O1231 Eu1187 2.419 . S
O1231 C1251 1.249 . S
C1232 O1221 1.276 . S
C1232 O1224 1.235 . S
C1233 C1235 1.393 . S
C1233 C1237 1.395 . S
C1233 C1240 1.492 . S
C1234 C1235 1.392 . S
C1234 C1236 1.386 . S
C1235 C1233 1.393 . S
C1235 C1234 1.392 . S
C1235 H1252 0.930 . S
C1236 C1234 1.386 . S
C1236 C1238 1.395 . S
C1236 H1253 0.930 . S
C1237 C1233 1.395 . S
C1237 C1238 1.379 . S
C1237 H1254 0.930 . S
C1238 C1236 1.395 . S
C1238 C1237 1.379 . S
C1238 H1255 0.930 . S
C1239 O1222 1.264 . S
C1239 O1223 1.254 . S
C1240 Eu1176 2.848 . S
C1240 O1220 1.257 . S
C1240 O1225 1.249 . S
C1240 C1233 1.492 . S
C1241 H1206 0.931 . S
C1241 C1219 1.420 . S
C1241 C1242 1.351 . S
C1242 H1204 0.930 . S
C1242 C1210 1.423 . S
C1242 C1241 1.351 . S
C1243 O1227 1.276 . S
C1243 O1230 1.235 . S
C1244 C1245 1.393 . S
C1244 C1248 1.395 . S
C1244 C1251 1.492 . S
C1245 C1244 1.393 . S
C1245 C1246 1.392 1_556 S
C1245 H1256 0.930 . S
C1246 C1245 1.392 1_554 S
C1246 C1247 1.386 . S
C1247 C1246 1.386 . S
C1247 C1249 1.395 . S
C1247 H1257 0.930 . S
C1248 C1244 1.395 . S
C1248 C1249 1.379 1_556 S
C1248 H1258 0.930 . S
C1249 C1247 1.395 . S
C1249 C1248 1.379 1_554 S
C1249 H1259 0.930 . S
C1250 O1228 1.264 . S
C1250 O1229 1.254 . S
C1251 Eu1187 2.848 . S
C1251 O1226 1.257 . S
C1251 O1231 1.249 . S
C1251 C1244 1.492 . S
H1252 C1235 0.930 . S
H1253 C1236 0.930 . S
H1254 C1237 0.930 . S
H1255 C1238 0.930 . S
H1256 C1245 0.930 . S
H1257 C1247 0.930 . S
H1258 C1248 0.930 . S
H1259 C1249 0.930 . S
Eu1260 N1291 2.657 . S
Eu1260 N1298 2.609 . S
Eu1260 O1304 2.558 . S
Eu1260 O1305 2.612 . S
Eu1260 O1307 2.339 . S
Eu1260 O1308 2.563 . S
Eu1260 O1309 2.419 . S
Eu1260 O1311 2.380 . S
Eu1260 O1312 2.432 . S
Eu1260 C1324 2.848 . S
C1261 C1264 1.429 . S
C1261 C1265 1.411 . S
C1261 N1268 1.377 . S
C1262 C1264 1.420 1_545 S
C1262 C1266 1.423 . S
C1262 C1274 1.392 . S
C1263 C1265 1.420 1_545 S
C1263 C1266 1.351 . S
C1263 H1286 0.931 . S
C1264 C1261 1.429 . S
C1264 C1262 1.420 1_565 S
C1264 N1272 1.362 . S
C1265 C1261 1.411 . S
C1265 C1263 1.420 1_565 S
C1265 C1270 1.395 . S
C1266 C1262 1.423 . S
C1266 C1263 1.351 . S
C1266 H1278 0.930 . S
C1267 C1269 1.400 . S
C1267 C1270 1.386 . S
C1267 H1279 0.930 . S
N1268 C1261 1.377 . S
N1268 C1269 1.321 . S
N1268 Eu1271 2.609 . S
C1269 C1267 1.400 . S
C1269 N1268 1.321 . S
C1269 H1276 0.930 . S
C1270 C1265 1.395 . S
C1270 C1267 1.386 . S
C1270 H1289 0.935 . S
Eu1271 N1268 2.609 . S
Eu1271 N1272 2.657 . S
Eu1271 O1305 2.380 . S
Eu1271 O1306 2.432 . S
Eu1271 O1310 2.558 . S
Eu1271 O1311 2.612 . S
Eu1271 O1313 2.339 . S
Eu1271 O1314 2.563 . S
Eu1271 O1315 2.419 . S
Eu1271 C1335 2.848 . S
N1272 C1264 1.362 . S
N1272 Eu1271 2.657 . S
N1272 C1273 1.334 . S
C1273 N1272 1.334 . S
C1273 C1275 1.413 . S
C1273 H1280 0.929 . S
C1274 C1262 1.392 . S
C1274 C1275 1.367 1_545 S
C1274 H1282 0.930 . S
C1275 C1273 1.413 . S
C1275 C1274 1.367 1_565 S
C1275 H1277 0.937 . S
H1276 C1269 0.930 . S
H1277 C1275 0.937 . S
H1278 C1266 0.930 . S
H1279 C1267 0.930 . S
H1280 C1273 0.929 . S
H1281 C1295 0.930 . S
H1282 C1274 0.930 . S
H1283 C1301 0.930 . S
H1284 C1292 0.929 . S
H1285 C1299 0.930 . S
H1286 C1263 0.931 . S
H1287 C1293 0.930 . S
H1288 C1326 0.930 . S
H1289 C1270 0.935 . S
H1290 C1325 0.931 . S
N1291 Eu1260 2.657 . S
N1291 C1292 1.334 . S
N1291 C1296 1.362 . S
C1292 H1284 0.929 . S
C1292 N1291 1.334 . S
C1292 C1295 1.413 . S
C1293 H1287 0.930 . S
C1293 C1294 1.392 . S
C1293 C1295 1.367 . S
C1294 C1293 1.392 . S
C1294 C1296 1.420 . S
C1294 C1326 1.423 . S
C1295 H1281 0.930 . S
C1295 C1292 1.413 . S
C1295 C1293 1.367 . S
C1296 N1291 1.362 . S
C1296 C1294 1.420 . S
C1296 C1300 1.429 . S
H1297 C1302 0.930 . S
N1298 Eu1260 2.609 . S
N1298 C1300 1.377 . S
N1298 C1301 1.321 . S
C1299 H1285 0.930 . S
C1299 C1301 1.400 . S
C1299 C1302 1.386 . S
C1300 C1296 1.429 . S
C1300 N1298 1.377 . S
C1300 C1303 1.411 . S
C1301 H1283 0.930 . S
C1301 N1298 1.321 . S
C1301 C1299 1.400 . S
C1302 H1297 0.930 . S
C1302 C1299 1.386 . S
C1302 C1303 1.395 . S
C1303 C1300 1.411 . S
C1303 C1302 1.395 . S
C1303 C1325 1.420 . S
O1304 Eu1260 2.558 . S
O1304 C1324 1.257 . S
O1305 Eu1260 2.612 . S
O1305 Eu1271 2.380 . S
O1305 C1316 1.276 . S
O1306 Eu1271 2.432 . S
O1306 C1323 1.264 . S
O1307 Eu1260 2.339 . S
O1307 C1323 1.254 . S
O1308 Eu1260 2.563 . S
O1308 C1316 1.235 . S
O1309 Eu1260 2.419 . S
O1309 C1324 1.249 . S
O1310 Eu1271 2.558 . S
O1310 C1335 1.257 . S
O1311 Eu1260 2.380 . S
O1311 Eu1271 2.612 . S
O1311 C1327 1.276 . S
O1312 Eu1260 2.432 . S
O1312 C1334 1.264 . S
O1313 Eu1271 2.339 . S
O1313 C1334 1.254 . S
O1314 Eu1271 2.563 . S
O1314 C1327 1.235 . S
O1315 Eu1271 2.419 . S
O1315 C1335 1.249 . S
C1316 O1305 1.276 . S
C1316 O1308 1.235 . S
C1317 C1319 1.393 . S
C1317 C1321 1.395 . S
C1317 C1324 1.492 . S
C1318 C1319 1.392 . S
C1318 C1320 1.386 . S
C1319 C1317 1.393 . S
C1319 C1318 1.392 . S
C1319 H1336 0.930 . S
C1320 C1318 1.386 . S
C1320 C1322 1.395 . S
C1320 H1337 0.930 . S
C1321 C1317 1.395 . S
C1321 C1322 1.379 . S
C1321 H1338 0.930 . S
C1322 C1320 1.395 . S
C1322 C1321 1.379 . S
C1322 H1339 0.930 . S
C1323 O1306 1.264 . S
C1323 O1307 1.254 . S
C1324 Eu1260 2.848 . S
C1324 O1304 1.257 . S
C1324 O1309 1.249 . S
C1324 C1317 1.492 . S
C1325 H1290 0.931 . S
C1325 C1303 1.420 . S
C1325 C1326 1.351 . S
C1326 H1288 0.930 . S
C1326 C1294 1.423 . S
C1326 C1325 1.351 . S
C1327 O1311 1.276 . S
C1327 O1314 1.235 . S
C1328 C1329 1.393 . S
C1328 C1332 1.395 . S
C1328 C1335 1.492 . S
C1329 C1328 1.393 . S
C1329 C1330 1.392 1_554 S
C1329 H1340 0.930 . S
C1330 C1329 1.392 1_556 S
C1330 C1331 1.386 . S
C1331 C1330 1.386 . S
C1331 C1333 1.395 . S
C1331 H1341 0.930 . S
C1332 C1328 1.395 . S
C1332 C1333 1.379 1_554 S
C1332 H1342 0.930 . S
C1333 C1331 1.395 . S
C1333 C1332 1.379 1_556 S
C1333 H1343 0.930 . S
C1334 O1312 1.264 . S
C1334 O1313 1.254 . S
C1335 Eu1271 2.848 . S
C1335 O1310 1.257 . S
C1335 O1315 1.249 . S
C1335 C1328 1.492 . S
H1336 C1319 0.930 . S
H1337 C1320 0.930 . S
H1338 C1321 0.930 . S
H1339 C1322 0.930 . S
H1340 C1329 0.930 . S
H1341 C1331 0.930 . S
H1342 C1332 0.930 . S
H1343 C1333 0.930 . S
C1344 C1345 1.387 . S
C1344 H1348 0.950 . S
C1344 C1353 1.390 . S
C1345 C1344 1.387 . S
C1345 C1347 1.387 . S
H1346 C1353 0.950 . S
C1347 C1345 1.387 . S
C1347 C1349 1.390 . S
C1347 H1351 0.950 . S
H1348 C1344 0.950 . S
C1349 C1347 1.390 . S
C1349 C1350 1.387 . S
C1349 H1352 0.950 . S
C1350 C1349 1.387 . S
C1350 C1353 1.387 . S
H1351 C1347 0.950 . S
H1352 C1349 0.950 . S
C1353 C1344 1.390 . S
C1353 H1346 0.950 . S
C1353 C1350 1.387 . S
C1354 C1355 1.387 . S
C1354 H1358 0.950 . S
C1354 C1363 1.390 . S
C1355 C1354 1.387 . S
C1355 C1357 1.387 . S
H1356 C1363 0.950 . S
C1357 C1355 1.387 . S
C1357 C1359 1.390 . S
C1357 H1361 0.950 . S
H1358 C1354 0.950 . S
C1359 C1357 1.390 . S
C1359 C1360 1.387 . S
C1359 H1362 0.950 . S
C1360 C1359 1.387 . S
C1360 C1363 1.387 . S
H1361 C1357 0.950 . S
H1362 C1359 0.950 . S
C1363 C1354 1.390 . S
C1363 H1356 0.950 . S
C1363 C1360 1.387 . S
C1364 C1365 1.387 . S
C1364 H1368 0.950 . S
C1364 C1373 1.390 . S
C1365 C1364 1.387 . S
C1365 C1367 1.387 . S
H1366 C1373 0.950 . S
C1367 C1365 1.387 . S
C1367 C1369 1.390 . S
C1367 H1371 0.950 . S
H1368 C1364 0.950 . S
C1369 C1367 1.390 . S
C1369 C1370 1.387 . S
C1369 H1372 0.950 . S
C1370 C1369 1.387 . S
C1370 C1373 1.387 . S
H1371 C1367 0.950 . S
H1372 C1369 0.950 . S
C1373 C1364 1.390 . S
C1373 H1366 0.950 . S
C1373 C1370 1.387 . S
C1374 C1375 1.387 . S
C1374 H1378 0.950 . S
C1374 C1383 1.390 . S
C1375 C1374 1.387 . S
C1375 C1377 1.387 . S
H1376 C1383 0.950 . S
C1377 C1375 1.387 . S
C1377 C1379 1.390 . S
C1377 H1381 0.950 . S
H1378 C1374 0.950 . S
C1379 C1377 1.390 . S
C1379 C1380 1.387 . S
C1379 H1382 0.950 . S
C1380 C1379 1.387 . S
C1380 C1383 1.387 . S
H1381 C1377 0.950 . S
H1382 C1379 0.950 . S
C1383 C1374 1.390 . S
C1383 H1376 0.950 . S
C1383 C1380 1.387 . S
C1384 C1385 1.387 . S
C1384 H1388 0.950 . S
C1384 C1393 1.390 . S
C1385 C1384 1.387 . S
C1385 C1387 1.387 . S
H1386 C1393 0.950 . S
C1387 C1385 1.387 . S
C1387 C1389 1.390 . S
C1387 H1391 0.950 . S
H1388 C1384 0.950 . S
C1389 C1387 1.390 . S
C1389 C1390 1.387 . S
C1389 H1392 0.950 . S
C1390 C1389 1.387 . S
C1390 C1393 1.387 . S
H1391 C1387 0.950 . S
H1392 C1389 0.950 . S
C1393 C1384 1.390 . S
C1393 H1386 0.950 . S
C1393 C1390 1.387 . S
C1394 C1395 1.387 . S
C1394 H1398 0.950 . S
C1394 C1403 1.390 . S
C1395 C1394 1.387 . S
C1395 C1397 1.387 . S
H1396 C1403 0.950 . S
C1397 C1395 1.387 . S
C1397 C1399 1.390 . S
C1397 H1401 0.950 . S
H1398 C1394 0.950 . S
C1399 C1397 1.390 . S
C1399 C1400 1.387 . S
C1399 H1402 0.950 . S
C1400 C1399 1.387 . S
C1400 C1403 1.387 . S
H1401 C1397 0.950 . S
H1402 C1399 0.950 . S
C1403 C1394 1.390 . S
C1403 H1396 0.950 . S
C1403 C1400 1.387 . S
C1404 C1405 1.387 . S
C1404 H1408 0.950 . S
C1404 C1413 1.390 . S
C1405 C1404 1.387 . S
C1405 C1407 1.387 . S
H1406 C1413 0.950 . S
C1407 C1405 1.387 . S
C1407 C1409 1.390 . S
C1407 H1411 0.950 . S
H1408 C1404 0.950 . S
C1409 C1407 1.390 . S
C1409 C1410 1.387 . S
C1409 H1412 0.950 . S
C1410 C1409 1.387 . S
C1410 C1413 1.387 . S
H1411 C1407 0.950 . S
H1412 C1409 0.950 . S
C1413 C1404 1.390 . S
C1413 H1406 0.950 . S
C1413 C1410 1.387 . S
C1414 C1415 1.387 . S
C1414 H1418 0.950 . S
C1414 C1423 1.390 . S
C1415 C1414 1.387 . S
C1415 C1417 1.387 . S
H1416 C1423 0.950 . S
C1417 C1415 1.387 . S
C1417 C1419 1.390 . S
C1417 H1421 0.950 . S
H1418 C1414 0.950 . S
C1419 C1417 1.390 . S
C1419 C1420 1.387 . S
C1419 H1422 0.950 . S
C1420 C1419 1.387 . S
C1420 C1423 1.387 . S
H1421 C1417 0.950 . S
H1422 C1419 0.950 . S
C1423 C1414 1.390 . S
C1423 H1416 0.950 . S
C1423 C1420 1.387 . S
C1424 C1425 1.387 . S
C1424 H1428 0.950 . S
C1424 C1433 1.390 . S
C1425 C1424 1.387 . S
C1425 C1427 1.387 . S
H1426 C1433 0.950 . S
C1427 C1425 1.387 . S
C1427 C1429 1.390 . S
C1427 H1431 0.950 . S
H1428 C1424 0.950 . S
C1429 C1427 1.390 . S
C1429 C1430 1.387 . S
C1429 H1432 0.950 . S
C1430 C1429 1.387 . S
C1430 C1433 1.387 . S
H1431 C1427 0.950 . S
H1432 C1429 0.950 . S
C1433 C1424 1.390 . S
C1433 H1426 0.950 . S
C1433 C1430 1.387 . S
C1434 C1435 1.387 . S
C1434 H1438 0.950 . S
C1434 C1443 1.390 . S
C1435 C1434 1.387 . S
C1435 C1437 1.387 . S
H1436 C1443 0.950 . S
C1437 C1435 1.387 . S
C1437 C1439 1.390 . S
C1437 H1441 0.950 . S
H1438 C1434 0.950 . S
C1439 C1437 1.390 . S
C1439 C1440 1.387 . S
C1439 H1442 0.950 . S
C1440 C1439 1.387 . S
C1440 C1443 1.387 . S
H1441 C1437 0.950 . S
H1442 C1439 0.950 . S
C1443 C1434 1.390 . S
C1443 H1436 0.950 . S
C1443 C1440 1.387 . S
C1444 C1445 1.387 . S
C1444 H1448 0.950 . S
C1444 C1453 1.390 . S
C1445 C1444 1.387 . S
C1445 C1447 1.387 . S
H1446 C1453 0.950 . S
C1447 C1445 1.387 . S
C1447 C1449 1.390 . S
C1447 H1451 0.950 . S
H1448 C1444 0.950 . S
C1449 C1447 1.390 . S
C1449 C1450 1.387 . S
C1449 H1452 0.950 . S
C1450 C1449 1.387 . S
C1450 C1453 1.387 . S
H1451 C1447 0.950 . S
H1452 C1449 0.950 . S
C1453 C1444 1.390 . S
C1453 H1446 0.950 . S
C1453 C1450 1.387 . S
C1454 C1455 1.387 . S
C1454 H1458 0.950 . S
C1454 C1463 1.390 . S
C1455 C1454 1.387 . S
C1455 C1457 1.387 . S
H1456 C1463 0.950 . S
C1457 C1455 1.387 . S
C1457 C1459 1.390 . S
C1457 H1461 0.950 . S
H1458 C1454 0.950 . S
C1459 C1457 1.390 . S
C1459 C1460 1.387 . S
C1459 H1462 0.950 . S
C1460 C1459 1.387 . S
C1460 C1463 1.387 . S
H1461 C1457 0.950 . S
H1462 C1459 0.950 . S
C1463 C1454 1.390 . S
C1463 H1456 0.950 . S
C1463 C1460 1.387 . S
C1464 C1465 1.387 . S
C1464 H1468 0.950 . S
C1464 C1473 1.390 . S
C1465 C1464 1.387 . S
C1465 C1467 1.387 . S
H1466 C1473 0.950 . S
C1467 C1465 1.387 . S
C1467 C1469 1.390 . S
C1467 H1471 0.950 . S
H1468 C1464 0.950 . S
C1469 C1467 1.390 . S
C1469 C1470 1.387 . S
C1469 H1472 0.950 . S
C1470 C1469 1.387 . S
C1470 C1473 1.387 . S
H1471 C1467 0.950 . S
H1472 C1469 0.950 . S
C1473 C1464 1.390 . S
C1473 H1466 0.950 . S
C1473 C1470 1.387 . S
C1474 C1475 1.387 . S
C1474 H1478 0.950 . S
C1474 C1483 1.390 . S
C1475 C1474 1.387 . S
C1475 C1477 1.387 . S
H1476 C1483 0.950 . S
C1477 C1475 1.387 . S
C1477 C1479 1.390 . S
C1477 H1481 0.950 . S
H1478 C1474 0.950 . S
C1479 C1477 1.390 . S
C1479 C1480 1.387 . S
C1479 H1482 0.950 . S
C1480 C1479 1.387 . S
C1480 C1483 1.387 . S
H1481 C1477 0.950 . S
H1482 C1479 0.950 . S
C1483 C1474 1.390 . S
C1483 H1476 0.950 . S
C1483 C1480 1.387 . S
C1484 C1485 1.387 . S
C1484 H1488 0.950 . S
C1484 C1493 1.390 . S
C1485 C1484 1.387 . S
C1485 C1487 1.387 . S
H1486 C1493 0.950 . S
C1487 C1485 1.387 . S
C1487 C1489 1.390 . S
C1487 H1491 0.950 . S
H1488 C1484 0.950 . S
C1489 C1487 1.390 . S
C1489 C1490 1.387 . S
C1489 H1492 0.950 . S
C1490 C1489 1.387 . S
C1490 C1493 1.387 . S
H1491 C1487 0.950 . S
H1492 C1489 0.950 . S
C1493 C1484 1.390 . S
C1493 H1486 0.950 . S
C1493 C1490 1.387 . S
C1494 C1495 1.387 . S
C1494 H1498 0.950 . S
C1494 C1503 1.390 . S
C1495 C1494 1.387 . S
C1495 C1497 1.387 . S
H1496 C1503 0.950 . S
C1497 C1495 1.387 . S
C1497 C1499 1.390 . S
C1497 H1501 0.950 . S
H1498 C1494 0.950 . S
C1499 C1497 1.390 . S
C1499 C1500 1.387 . S
C1499 H1502 0.950 . S
C1500 C1499 1.387 . S
C1500 C1503 1.387 . S
H1501 C1497 0.950 . S
H1502 C1499 0.950 . S
C1503 C1494 1.390 . S
C1503 H1496 0.950 . S
C1503 C1500 1.387 . S
C1504 C1505 1.387 . S
C1504 H1508 0.950 . S
C1504 C1513 1.390 . S
C1505 C1504 1.387 . S
C1505 C1507 1.387 . S
H1506 C1513 0.950 . S
C1507 C1505 1.387 . S
C1507 C1509 1.390 . S
C1507 H1511 0.950 . S
H1508 C1504 0.950 . S
C1509 C1507 1.390 . S
C1509 C1510 1.387 . S
C1509 H1512 0.950 . S
C1510 C1509 1.387 . S
C1510 C1513 1.387 . S
H1511 C1507 0.950 . S
H1512 C1509 0.950 . S
C1513 C1504 1.390 . S
C1513 H1506 0.950 . S
C1513 C1510 1.387 . S
C1514 C1515 1.387 . S
C1514 H1518 0.950 . S
C1514 C1523 1.390 . S
C1515 C1514 1.387 . S
C1515 C1517 1.387 . S
H1516 C1523 0.950 . S
C1517 C1515 1.387 . S
C1517 C1519 1.390 . S
C1517 H1521 0.950 . S
H1518 C1514 0.950 . S
C1519 C1517 1.390 . S
C1519 C1520 1.387 . S
C1519 H1522 0.950 . S
C1520 C1519 1.387 . S
C1520 C1523 1.387 . S
H1521 C1517 0.950 . S
H1522 C1519 0.950 . S
C1523 C1514 1.390 . S
C1523 H1516 0.950 . S
C1523 C1520 1.387 . S
C1524 C1525 1.387 . S
C1524 H1528 0.950 . S
C1524 C1533 1.390 . S
C1525 C1524 1.387 . S
C1525 C1527 1.387 . S
H1526 C1533 0.950 . S
C1527 C1525 1.387 . S
C1527 C1529 1.390 . S
C1527 H1531 0.950 . S
H1528 C1524 0.950 . S
C1529 C1527 1.390 . S
C1529 C1530 1.387 . S
C1529 H1532 0.950 . S
C1530 C1529 1.387 . S
C1530 C1533 1.387 . S
H1531 C1527 0.950 . S
H1532 C1529 0.950 . S
C1533 C1524 1.390 . S
C1533 H1526 0.950 . S
C1533 C1530 1.387 . S
C1534 C1535 1.387 . S
C1534 H1538 0.950 1_556 S
C1534 C1543 1.390 1_655 S
C1535 C1534 1.387 . S
C1535 C1537 1.387 . S
H1536 C1543 0.950 1_554 S
C1537 C1535 1.387 . S
C1537 C1539 1.390 1_655 S
C1537 H1541 0.950 . S
H1538 C1534 0.950 1_554 S
C1539 C1537 1.390 1_455 S
C1539 C1540 1.387 . S
C1539 H1542 0.950 . S
C1540 C1539 1.387 . S
C1540 C1543 1.387 . S
H1541 C1537 0.950 . S
H1542 C1539 0.950 . S
C1543 C1534 1.390 1_455 S
C1543 H1536 0.950 1_556 S
C1543 C1540 1.387 . S
C1544 C1545 1.387 . S
C1544 H1548 0.950 . S
C1544 C1553 1.390 . S
C1545 C1544 1.387 . S
C1545 C1547 1.387 . S
H1546 C1553 0.950 . S
C1547 C1545 1.387 . S
C1547 C1549 1.390 . S
C1547 H1551 0.950 . S
H1548 C1544 0.950 . S
C1549 C1547 1.390 . S
C1549 C1550 1.387 . S
C1549 H1552 0.950 . S
C1550 C1549 1.387 . S
C1550 C1553 1.387 . S
H1551 C1547 0.950 . S
H1552 C1549 0.950 . S
C1553 C1544 1.390 . S
C1553 H1546 0.950 . S
C1553 C1550 1.387 . S
C1554 C1555 1.387 . S
C1554 H1558 0.950 . S
C1554 C1563 1.390 1_455 S
C1555 C1554 1.387 . S
C1555 C1557 1.387 . S
H1556 C1563 0.950 . S
C1557 C1555 1.387 . S
C1557 C1559 1.390 1_455 S
C1557 H1561 0.950 1_554 S
H1558 C1554 0.950 . S
C1559 C1557 1.390 1_655 S
C1559 C1560 1.387 . S
C1559 H1562 0.950 1_554 S
C1560 C1559 1.387 . S
C1560 C1563 1.387 . S
H1561 C1557 0.950 1_556 S
H1562 C1559 0.950 1_556 S
C1563 C1554 1.390 1_655 S
C1563 H1556 0.950 . S
C1563 C1560 1.387 . S
C1564 C1565 1.387 . S
C1564 H1568 0.950 . S
C1564 C1573 1.390 . S
C1565 C1564 1.387 . S
C1565 C1567 1.387 . S
H1566 C1573 0.950 . S
C1567 C1565 1.387 . S
C1567 C1569 1.390 . S
C1567 H1571 0.950 . S
H1568 C1564 0.950 . S
C1569 C1567 1.390 . S
C1569 C1570 1.387 . S
C1569 H1572 0.950 . S
C1570 C1569 1.387 . S
C1570 C1573 1.387 . S
H1571 C1567 0.950 . S
H1572 C1569 0.950 . S
C1573 C1564 1.390 . S
C1573 H1566 0.950 . S
C1573 C1570 1.387 . S
C1574 C1575 1.387 . S
C1574 H1578 0.950 . S
C1574 C1583 1.390 . S
C1575 C1574 1.387 . S
C1575 C1577 1.387 . S
H1576 C1583 0.950 . S
C1577 C1575 1.387 . S
C1577 C1579 1.390 . S
C1577 H1581 0.950 . S
H1578 C1574 0.950 . S
C1579 C1577 1.390 . S
C1579 C1580 1.387 . S
C1579 H1582 0.950 . S
C1580 C1579 1.387 . S
C1580 C1583 1.387 . S
H1581 C1577 0.950 . S
H1582 C1579 0.950 . S
C1583 C1574 1.390 . S
C1583 H1576 0.950 . S
C1583 C1580 1.387 . S
C1584 C1585 1.387 . S
C1584 H1588 0.950 . S
C1584 C1593 1.390 . S
C1585 C1584 1.387 . S
C1585 C1587 1.387 . S
H1586 C1593 0.950 . S
C1587 C1585 1.387 . S
C1587 C1589 1.390 . S
C1587 H1591 0.950 . S
H1588 C1584 0.950 . S
C1589 C1587 1.390 . S
C1589 C1590 1.387 . S
C1589 H1592 0.950 . S
C1590 C1589 1.387 . S
C1590 C1593 1.387 . S
H1591 C1587 0.950 . S
H1592 C1589 0.950 . S
C1593 C1584 1.390 . S
C1593 H1586 0.950 . S
C1593 C1590 1.387 . S
C1594 C1595 1.387 . S
C1594 H1598 0.950 . S
C1594 C1603 1.390 . S
C1595 C1594 1.387 . S
C1595 C1597 1.387 . S
H1596 C1603 0.950 . S
C1597 C1595 1.387 . S
C1597 C1599 1.390 . S
C1597 H1601 0.950 . S
H1598 C1594 0.950 . S
C1599 C1597 1.390 . S
C1599 C1600 1.387 . S
C1599 H1602 0.950 . S
C1600 C1599 1.387 . S
C1600 C1603 1.387 . S
H1601 C1597 0.950 . S
H1602 C1599 0.950 . S
C1603 C1594 1.390 . S
C1603 H1596 0.950 . S
C1603 C1600 1.387 . S
C1604 C1605 1.387 . S
C1604 H1608 0.950 . S
C1604 C1613 1.390 . S
C1605 C1604 1.387 . S
C1605 C1607 1.387 . S
H1606 C1613 0.950 . S
C1607 C1605 1.387 . S
C1607 C1609 1.390 . S
C1607 H1611 0.950 . S
H1608 C1604 0.950 . S
C1609 C1607 1.390 . S
C1609 C1610 1.387 . S
C1609 H1612 0.950 . S
C1610 C1609 1.387 . S
C1610 C1613 1.387 . S
H1611 C1607 0.950 . S
H1612 C1609 0.950 . S
C1613 C1604 1.390 . S
C1613 H1606 0.950 . S
C1613 C1610 1.387 . S
C1614 C1615 1.387 . S
C1614 H1618 0.950 . S
C1614 C1623 1.390 . S
C1615 C1614 1.387 . S
C1615 C1617 1.387 . S
H1616 C1623 0.950 . S
C1617 C1615 1.387 . S
C1617 C1619 1.390 . S
C1617 H1621 0.950 . S
H1618 C1614 0.950 . S
C1619 C1617 1.390 . S
C1619 C1620 1.387 . S
C1619 H1622 0.950 . S
C1620 C1619 1.387 . S
C1620 C1623 1.387 . S
H1621 C1617 0.950 . S
H1622 C1619 0.950 . S
C1623 C1614 1.390 . S
C1623 H1616 0.950 . S
C1623 C1620 1.387 . S
C1624 C1625 1.387 . S
C1624 H1628 0.950 1_556 S
C1624 C1633 1.390 1_655 S
C1625 C1624 1.387 . S
C1625 C1627 1.387 . S
H1626 C1633 0.950 1_554 S
C1627 C1625 1.387 . S
C1627 C1629 1.390 1_655 S
C1627 H1631 0.950 . S
H1628 C1624 0.950 1_554 S
C1629 C1627 1.390 1_455 S
C1629 C1630 1.387 . S
C1629 H1632 0.950 . S
C1630 C1629 1.387 . S
C1630 C1633 1.387 . S
H1631 C1627 0.950 . S
H1632 C1629 0.950 . S
C1633 C1624 1.390 1_455 S
C1633 H1626 0.950 1_556 S
C1633 C1630 1.387 . S
C1634 C1635 1.387 . S
C1634 H1638 0.950 . S
C1634 C1643 1.390 . S
C1635 C1634 1.387 . S
C1635 C1637 1.387 . S
H1636 C1643 0.950 . S
C1637 C1635 1.387 . S
C1637 C1639 1.390 . S
C1637 H1641 0.950 . S
H1638 C1634 0.950 . S
C1639 C1637 1.390 . S
C1639 C1640 1.387 . S
C1639 H1642 0.950 . S
C1640 C1639 1.387 . S
C1640 C1643 1.387 . S
H1641 C1637 0.950 . S
H1642 C1639 0.950 . S
C1643 C1634 1.390 . S
C1643 H1636 0.950 . S
C1643 C1640 1.387 . S
C1644 C1645 1.387 . S
C1644 H1648 0.950 . S
C1644 C1653 1.390 . S
C1645 C1644 1.387 . S
C1645 C1647 1.387 . S
H1646 C1653 0.950 . S
C1647 C1645 1.387 . S
C1647 C1649 1.390 . S
C1647 H1651 0.950 . S
H1648 C1644 0.950 . S
C1649 C1647 1.390 . S
C1649 C1650 1.387 . S
C1649 H1652 0.950 . S
C1650 C1649 1.387 . S
C1650 C1653 1.387 . S
H1651 C1647 0.950 . S
H1652 C1649 0.950 . S
C1653 C1644 1.390 . S
C1653 H1646 0.950 . S
C1653 C1650 1.387 . S
C1654 C1655 1.387 . S
C1654 H1658 0.950 . S
C1654 C1663 1.390 1_455 S
C1655 C1654 1.387 . S
C1655 C1657 1.387 . S
H1656 C1663 0.950 . S
C1657 C1655 1.387 . S
C1657 C1659 1.390 1_455 S
C1657 H1661 0.950 . S
H1658 C1654 0.950 . S
C1659 C1657 1.390 1_655 S
C1659 C1660 1.387 . S
C1659 H1662 0.950 . S
C1660 C1659 1.387 . S
C1660 C1663 1.387 . S
H1661 C1657 0.950 . S
H1662 C1659 0.950 . S
C1663 C1654 1.390 1_655 S
C1663 H1656 0.950 . S
C1663 C1660 1.387 . S
C1664 C1665 1.387 . S
C1664 H1668 0.950 . S
C1664 C1673 1.390 1_554 S
C1665 C1664 1.387 . S
C1665 C1667 1.387 . S
H1666 C1673 0.950 . S
C1667 C1665 1.387 . S
C1667 C1669 1.390 1_554 S
C1667 H1671 0.950 . S
H1668 C1664 0.950 . S
C1669 C1667 1.390 1_556 S
C1669 C1670 1.387 . S
C1669 H1672 0.950 . S
C1670 C1669 1.387 . S
C1670 C1673 1.387 . S
H1671 C1667 0.950 . S
H1672 C1669 0.950 . S
C1673 C1664 1.390 1_556 S
C1673 H1666 0.950 . S
C1673 C1670 1.387 . S
C1674 C1675 1.387 . S
C1674 H1678 0.950 . S
C1674 C1683 1.390 . S
C1675 C1674 1.387 . S
C1675 C1677 1.387 . S
H1676 C1683 0.950 . S
C1677 C1675 1.387 . S
C1677 C1679 1.390 . S
C1677 H1681 0.950 . S
H1678 C1674 0.950 . S
C1679 C1677 1.390 . S
C1679 C1680 1.387 . S
C1679 H1682 0.950 . S
C1680 C1679 1.387 . S
C1680 C1683 1.387 . S
H1681 C1677 0.950 . S
H1682 C1679 0.950 . S
C1683 C1674 1.390 . S
C1683 H1676 0.950 . S
C1683 C1680 1.387 . S
C1684 C1685 1.387 . S
C1684 H1688 0.950 . S
C1684 C1693 1.390 . S
C1685 C1684 1.387 . S
C1685 C1687 1.387 . S
H1686 C1693 0.950 . S
C1687 C1685 1.387 . S
C1687 C1689 1.390 . S
C1687 H1691 0.950 . S
H1688 C1684 0.950 . S
C1689 C1687 1.390 . S
C1689 C1690 1.387 . S
C1689 H1692 0.950 . S
C1690 C1689 1.387 . S
C1690 C1693 1.387 . S
H1691 C1687 0.950 . S
H1692 C1689 0.950 . S
C1693 C1684 1.390 . S
C1693 H1686 0.950 . S
C1693 C1690 1.387 . S
C1694 C1695 1.387 . S
C1694 H1698 0.950 . S
C1694 C1703 1.390 . S
C1695 C1694 1.387 . S
C1695 C1697 1.387 . S
H1696 C1703 0.950 . S
C1697 C1695 1.387 . S
C1697 C1699 1.390 . S
C1697 H1701 0.950 . S
H1698 C1694 0.950 . S
C1699 C1697 1.390 . S
C1699 C1700 1.387 . S
C1699 H1702 0.950 . S
C1700 C1699 1.387 . S
C1700 C1703 1.387 . S
H1701 C1697 0.950 . S
H1702 C1699 0.950 . S
C1703 C1694 1.390 . S
C1703 H1696 0.950 . S
C1703 C1700 1.387 . S
C1704 C1705 1.387 . S
C1704 H1708 0.950 . S
C1704 C1713 1.390 1_554 S
C1705 C1704 1.387 . S
C1705 C1707 1.387 . S
H1706 C1713 0.950 . S
C1707 C1705 1.387 . S
C1707 C1709 1.390 1_554 S
C1707 H1711 0.950 . S
H1708 C1704 0.950 . S
C1709 C1707 1.390 1_556 S
C1709 C1710 1.387 . S
C1709 H1712 0.950 . S
C1710 C1709 1.387 . S
C1710 C1713 1.387 . S
H1711 C1707 0.950 . S
H1712 C1709 0.950 . S
C1713 C1704 1.390 1_556 S
C1713 H1706 0.950 . S
C1713 C1710 1.387 . S
C1714 C1715 1.387 . S
C1714 H1718 0.950 . S
C1714 C1723 1.390 . S
C1715 C1714 1.387 . S
C1715 C1717 1.387 . S
H1716 C1723 0.950 . S
C1717 C1715 1.387 . S
C1717 C1719 1.390 . S
C1717 H1721 0.950 . S
H1718 C1714 0.950 . S
C1719 C1717 1.390 . S
C1719 C1720 1.387 . S
C1719 H1722 0.950 . S
C1720 C1719 1.387 . S
C1720 C1723 1.387 . S
H1721 C1717 0.950 . S
H1722 C1719 0.950 . S
C1723 C1714 1.390 . S
C1723 H1716 0.950 . S
C1723 C1720 1.387 . S
C1724 C1725 1.387 . S
C1724 H1728 0.950 . S
C1724 C1733 1.390 . S
C1725 C1724 1.387 . S
C1725 C1727 1.387 . S
H1726 C1733 0.950 . S
C1727 C1725 1.387 . S
C1727 C1729 1.390 . S
C1727 H1731 0.950 . S
H1728 C1724 0.950 . S
C1729 C1727 1.390 . S
C1729 C1730 1.387 . S
C1729 H1732 0.950 . S
C1730 C1729 1.387 . S
C1730 C1733 1.387 . S
H1731 C1727 0.950 . S
H1732 C1729 0.950 . S
C1733 C1724 1.390 . S
C1733 H1726 0.950 . S
C1733 C1730 1.387 . S
C1734 C1735 1.387 . S
C1734 H1738 0.950 . S
C1734 C1743 1.390 . S
C1735 C1734 1.387 . S
C1735 C1737 1.387 . S
H1736 C1743 0.950 . S
C1737 C1735 1.387 . S
C1737 C1739 1.390 . S
C1737 H1741 0.950 . S
H1738 C1734 0.950 . S
C1739 C1737 1.390 . S
C1739 C1740 1.387 . S
C1739 H1742 0.950 . S
C1740 C1739 1.387 . S
C1740 C1743 1.387 . S
H1741 C1737 0.950 . S
H1742 C1739 0.950 . S
C1743 C1734 1.390 . S
C1743 H1736 0.950 . S
C1743 C1740 1.387 . S
C1744 C1745 1.387 . S
C1744 H1748 0.950 . S
C1744 C1753 1.390 1_565 S
C1745 C1744 1.387 . S
C1745 C1747 1.387 . S
H1746 C1753 0.950 . S
C1747 C1745 1.387 . S
C1747 C1749 1.390 1_565 S
C1747 H1751 0.950 . S
H1748 C1744 0.950 . S
C1749 C1747 1.390 1_545 S
C1749 C1750 1.387 . S
C1749 H1752 0.950 . S
C1750 C1749 1.387 . S
C1750 C1753 1.387 . S
H1751 C1747 0.950 . S
H1752 C1749 0.950 . S
C1753 C1744 1.390 1_545 S
C1753 H1746 0.950 . S
C1753 C1750 1.387 . S
C1754 C1755 1.387 . S
C1754 H1758 0.950 . S
C1754 C1763 1.390 . S
C1755 C1754 1.387 . S
C1755 C1757 1.387 . S
H1756 C1763 0.950 . S
C1757 C1755 1.387 . S
C1757 C1759 1.390 . S
C1757 H1761 0.950 . S
H1758 C1754 0.950 . S
C1759 C1757 1.390 . S
C1759 C1760 1.387 . S
C1759 H1762 0.950 . S
C1760 C1759 1.387 . S
C1760 C1763 1.387 . S
H1761 C1757 0.950 . S
H1762 C1759 0.950 . S
C1763 C1754 1.390 . S
C1763 H1756 0.950 . S
C1763 C1760 1.387 . S
C1764 C1765 1.387 . S
C1764 H1768 0.950 . S
C1764 C1773 1.390 1_564 S
C1765 C1764 1.387 . S
C1765 C1767 1.387 . S
H1766 C1773 0.950 . S
C1767 C1765 1.387 . S
C1767 C1769 1.390 1_564 S
C1767 H1771 0.950 . S
H1768 C1764 0.950 . S
C1769 C1767 1.390 1_546 S
C1769 C1770 1.387 . S
C1769 H1772 0.950 . S
C1770 C1769 1.387 . S
C1770 C1773 1.387 . S
H1771 C1767 0.950 . S
H1772 C1769 0.950 . S
C1773 C1764 1.390 1_546 S
C1773 H1766 0.950 . S
C1773 C1770 1.387 . S
C1774 C1775 1.387 . S
C1774 H1778 0.950 . S
C1774 C1783 1.390 . S
C1775 C1774 1.387 . S
C1775 C1777 1.387 . S
H1776 C1783 0.950 . S
C1777 C1775 1.387 . S
C1777 C1779 1.390 . S
C1777 H1781 0.950 . S
H1778 C1774 0.950 . S
C1779 C1777 1.390 . S
C1779 C1780 1.387 . S
C1779 H1782 0.950 . S
C1780 C1779 1.387 . S
C1780 C1783 1.387 . S
H1781 C1777 0.950 . S
H1782 C1779 0.950 . S
C1783 C1774 1.390 . S
C1783 H1776 0.950 . S
C1783 C1780 1.387 . S
C1784 C1785 1.387 . S
C1784 H1788 0.950 . S
C1784 C1793 1.390 1_565 S
C1785 C1784 1.387 . S
C1785 C1787 1.387 . S
H1786 C1793 0.950 . S
C1787 C1785 1.387 . S
C1787 C1789 1.390 1_565 S
C1787 H1791 0.950 . S
H1788 C1784 0.950 . S
C1789 C1787 1.390 1_545 S
C1789 C1790 1.387 . S
C1789 H1792 0.950 . S
C1790 C1789 1.387 . S
C1790 C1793 1.387 . S
H1791 C1787 0.950 . S
H1792 C1789 0.950 . S
C1793 C1784 1.390 1_545 S
C1793 H1786 0.950 . S
C1793 C1790 1.387 . S
C1794 C1795 1.387 . S
C1794 H1798 0.950 . S
C1794 C1803 1.390 . S
C1795 C1794 1.387 . S
C1795 C1797 1.387 . S
H1796 C1803 0.950 . S
C1797 C1795 1.387 . S
C1797 C1799 1.390 . S
C1797 H1801 0.950 . S
H1798 C1794 0.950 . S
C1799 C1797 1.390 . S
C1799 C1800 1.387 . S
C1799 H1802 0.950 . S
C1800 C1799 1.387 . S
C1800 C1803 1.387 . S
H1801 C1797 0.950 . S
H1802 C1799 0.950 . S
C1803 C1794 1.390 . S
C1803 H1796 0.950 . S
C1803 C1800 1.387 . S
C1804 C1805 1.387 . S
C1804 H1808 0.950 . S
C1804 C1813 1.390 1_546 S
C1805 C1804 1.387 . S
C1805 C1807 1.387 . S
H1806 C1813 0.950 . S
C1807 C1805 1.387 . S
C1807 C1809 1.390 1_546 S
C1807 H1811 0.950 . S
H1808 C1804 0.950 . S
C1809 C1807 1.390 1_564 S
C1809 C1810 1.387 . S
C1809 H1812 0.950 . S
C1810 C1809 1.387 . S
C1810 C1813 1.387 . S
H1811 C1807 0.950 . S
H1812 C1809 0.950 . S
C1813 C1804 1.390 1_564 S
C1813 H1806 0.950 . S
C1813 C1810 1.387 . S
C1814 C1815 1.387 . S
C1814 H1818 0.950 . S
C1814 C1823 1.390 . S
C1815 C1814 1.387 . S
C1815 C1817 1.387 . S
H1816 C1823 0.950 . S
C1817 C1815 1.387 . S
C1817 C1819 1.390 . S
C1817 H1821 0.950 . S
H1818 C1814 0.950 . S
C1819 C1817 1.390 . S
C1819 C1820 1.387 . S
C1819 H1822 0.950 . S
C1820 C1819 1.387 . S
C1820 C1823 1.387 . S
H1821 C1817 0.950 . S
H1822 C1819 0.950 . S
C1823 C1814 1.390 . S
C1823 H1816 0.950 . S
C1823 C1820 1.387 . S
C1345 C70 1.389 . S
C1350 C58 1.389 . S
C1355 C154 1.357 . S
C1360 C142 1.357 . S
C1365 C238 1.350 . S
C1370 C226 1.350 . S
C1375 C310 1.363 . S
C1380 C322 1.363 . S
C1385 C394 1.364 . S
C1390 C406 1.364 . S
C1395 C490 1.360 . S
C1400 C478 1.360 . S
C1405 C574 1.370 . S
C1410 C562 1.370 . S
C1415 C646 1.386 . S
C1420 C658 1.386 . S
C1425 C742 1.400 . S
C1430 C730 1.400 . S
C1435 C826 1.356 . S
C1440 C814 1.356 . S
C1445 C898 1.360 . S
C1450 C910 1.360 . S
C1455 C994 1.372 . S
C1460 C982 1.372 . S
C1465 C1078 1.362 . S
C1470 C1066 1.362 . S
C1475 C1150 1.357 . S
C1480 C1162 1.357 . S
C1485 C1234 1.363 . S
C1490 C1246 1.363 . S
C1495 C1330 1.389 . S
C1500 C1318 1.389 . S
C1505 C56 1.825 . S
C1510 C991 1.823 . S
C1515 C140 1.769 . S
C1520 C1323 1.697 . S
C1525 C224 1.837 . S
C1530 C819 1.760 . S
C1535 C326 1.732 . S
C1540 C1159 1.812 . S
C1545 C410 1.705 . S
C1550 C1155 1.709 . S
C1555 C987 1.680 . S
C1560 C494 1.682 . S
C1565 C560 1.877 . S
C1570 C1327 1.874 . S
C1575 C662 1.747 . S
C1580 C823 1.822 . S
C1585 C308 1.797 . S
C1590 C735 1.723 . S
C1595 C158 1.697 . S
C1600 C903 1.701 . S
C1605 C1071 1.719 . S
C1610 C476 1.797 . S
C1615 C644 1.836 . S
C1620 C1243 1.829 . S
C1625 C739 1.855 . S
C1630 C392 1.847 . S
C1635 C578 1.743 . S
C1640 C907 1.819 . S
C1645 C242 1.725 . S
C1650 C1239 1.719 . S
C1655 C74 1.741 . S
C1660 C1075 1.816 . S
C1665 C67 1.521 . S
C1670 C399 1.634 . S
C1675 C151 1.547 . S
C1680 C483 1.665 . S
C1685 C235 1.607 . S
C1690 C571 1.596 . S
C1695 C315 1.655 . S
C1700 C651 1.646 . S
C1705 C1082 1.643 . S
C1710 C746 1.633 . S
C1715 C1148 1.595 . S
C1720 C812 1.592 . S
C1725 C914 1.689 . S
C1730 C1232 1.565 . S
C1735 C1334 1.595 . S
C1740 C998 1.598 . S
C1745 C147 1.645 . S
C1750 C655 1.522 . S
C1755 C403 1.596 . S
C1760 C231 1.716 . S
C1765 C487 1.558 . S
C1770 C319 1.549 . S
C1775 C63 1.635 . S
C1780 C567 1.641 . S
C1785 C1316 1.570 . S
C1790 C830 1.690 . S
C1795 C1064 1.573 . S
C1800 C896 1.581 . S
C1805 C1166 1.681 . S
C1810 C980 1.551 . S
C1815 C1250 1.646 . S
C1820 C728 1.537 . S
