# Generated by pormake.
# Topology cag, (4)-cn, num edge types: 1
# Building blocks:
#     Node 0, Type 0, BuildingBlock: CEKHIL_clean_sbu_0, # of connection points: 4
#     Node 1, Type 0, BuildingBlock: CEKHIL_clean_sbu_0, # of connection points: 4
#     Node 2, Type 0, BuildingBlock: CEKHIL_clean_sbu_0, # of connection points: 4
#     Node 3, Type 0, BuildingBlock: CEKHIL_clean_sbu_0, # of connection points: 4
#     Node 4, Type 0, BuildingBlock: CEKHIL_clean_sbu_0, # of connection points: 4
#     Node 5, Type 0, BuildingBlock: CEKHIL_clean_sbu_0, # of connection points: 4
#     Node 6, Type 0, BuildingBlock: CEKHIL_clean_sbu_0, # of connection points: 4
#     Node 7, Type 0, BuildingBlock: CEKHIL_clean_sbu_0, # of connection points: 4
#     Node 8, Type 0, BuildingBlock: CEKHIL_clean_sbu_0, # of connection points: 4
#     Node 9, Type 0, BuildingBlock: CEKHIL_clean_sbu_0, # of connection points: 4
#     Node 10, Type 0, BuildingBlock: CEKHIL_clean_sbu_0, # of connection points: 4
#     Node 11, Type 0, BuildingBlock: CEKHIL_clean_sbu_0, # of connection points: 4
#     Node 12, Type 0, BuildingBlock: CEKHIL_clean_sbu_0, # of connection points: 4
#     Node 13, Type 0, BuildingBlock: CEKHIL_clean_sbu_0, # of connection points: 4
#     Node 14, Type 0, BuildingBlock: CEKHIL_clean_sbu_0, # of connection points: 4
#     Node 15, Type 0, BuildingBlock: CEKHIL_clean_sbu_0, # of connection points: 4
#     Edge 16, Type (0, 0), BuildingBlock: UVAHIK_clean_linker_0, # of connection points: 2
#     Edge 17, Type (0, 0), BuildingBlock: UVAHIK_clean_linker_0, # of connection points: 2
#     Edge 18, Type (0, 0), BuildingBlock: UVAHIK_clean_linker_0, # of connection points: 2
#     Edge 19, Type (0, 0), BuildingBlock: UVAHIK_clean_linker_0, # of connection points: 2
#     Edge 20, Type (0, 0), BuildingBlock: UVAHIK_clean_linker_0, # of connection points: 2
#     Edge 21, Type (0, 0), BuildingBlock: UVAHIK_clean_linker_0, # of connection points: 2
#     Edge 22, Type (0, 0), BuildingBlock: UVAHIK_clean_linker_0, # of connection points: 2
#     Edge 23, Type (0, 0), BuildingBlock: UVAHIK_clean_linker_0, # of connection points: 2
#     Edge 24, Type (0, 0), BuildingBlock: UVAHIK_clean_linker_0, # of connection points: 2
#     Edge 25, Type (0, 0), BuildingBlock: UVAHIK_clean_linker_0, # of connection points: 2
#     Edge 26, Type (0, 0), BuildingBlock: UVAHIK_clean_linker_0, # of connection points: 2
#     Edge 27, Type (0, 0), BuildingBlock: UVAHIK_clean_linker_0, # of connection points: 2
#     Edge 28, Type (0, 0), BuildingBlock: UVAHIK_clean_linker_0, # of connection points: 2
#     Edge 29, Type (0, 0), BuildingBlock: UVAHIK_clean_linker_0, # of connection points: 2
#     Edge 30, Type (0, 0), BuildingBlock: UVAHIK_clean_linker_0, # of connection points: 2
#     Edge 31, Type (0, 0), BuildingBlock: UVAHIK_clean_linker_0, # of connection points: 2
#     Edge 32, Type (0, 0), BuildingBlock: UVAHIK_clean_linker_0, # of connection points: 2
#     Edge 33, Type (0, 0), BuildingBlock: UVAHIK_clean_linker_0, # of connection points: 2
#     Edge 34, Type (0, 0), BuildingBlock: UVAHIK_clean_linker_0, # of connection points: 2
#     Edge 35, Type (0, 0), BuildingBlock: UVAHIK_clean_linker_0, # of connection points: 2
#     Edge 36, Type (0, 0), BuildingBlock: UVAHIK_clean_linker_0, # of connection points: 2
#     Edge 37, Type (0, 0), BuildingBlock: UVAHIK_clean_linker_0, # of connection points: 2
#     Edge 38, Type (0, 0), BuildingBlock: UVAHIK_clean_linker_0, # of connection points: 2
#     Edge 39, Type (0, 0), BuildingBlock: UVAHIK_clean_linker_0, # of connection points: 2
#     Edge 40, Type (0, 0), BuildingBlock: UVAHIK_clean_linker_0, # of connection points: 2
#     Edge 41, Type (0, 0), BuildingBlock: UVAHIK_clean_linker_0, # of connection points: 2
#     Edge 42, Type (0, 0), BuildingBlock: UVAHIK_clean_linker_0, # of connection points: 2
#     Edge 43, Type (0, 0), BuildingBlock: UVAHIK_clean_linker_0, # of connection points: 2
#     Edge 44, Type (0, 0), BuildingBlock: UVAHIK_clean_linker_0, # of connection points: 2
#     Edge 45, Type (0, 0), BuildingBlock: UVAHIK_clean_linker_0, # of connection points: 2
#     Edge 46, Type (0, 0), BuildingBlock: UVAHIK_clean_linker_0, # of connection points: 2
#     Edge 47, Type (0, 0), BuildingBlock: UVAHIK_clean_linker_0, # of connection points: 2
# Relax obj value: 0.095
# Max RMSD: 0.133
# Mean RMSD: 0.131
data_MOF--net-cag--node1-CEKHIL_clean_sbu_0--edge1-UVAHIK_clean_linker_0
_symmetry_space_group_name_H-M    P1
_symmetry_Int_Tables_number       1
_symmetry_cell_setting            triclinic
loop_
_symmetry_equiv_pos_as_xyz
'x, y, z'
_cell_length_a     56.74146
_cell_length_b     63.042462
_cell_length_c     52.116531
_cell_angle_alpha  89.996493
_cell_angle_beta   90.003506
_cell_angle_gamma 90.003905
loop_
_atom_site_label
_atom_site_type_symbol
_atom_site_fract_x
_atom_site_fract_y
_atom_site_fract_z
_atom_type_partial_charge
Co0 Co 0.31612 0.13575 0.07849 0.0
O1 O 0.28595 0.14516 0.06571 0.0
O2 O 0.31854 0.16452 0.06623 0.0
C3 C 0.3162 0.10404 0.05849 0.0
O4 O 0.35053 0.13157 0.08841 0.0
Co5 Co 0.32148 0.09614 0.11334 0.0
O6 O 0.35586 0.10053 0.10885 0.0
C7 C 0.29911 0.13494 0.13321 0.0
C8 C 0.29643 0.16288 0.06003 0.0
C9 C 0.36391 0.11738 0.09857 0.0
O10 O 0.30734 0.14568 0.11419 0.0
O11 O 0.3006 0.11473 0.13478 0.0
O12 O 0.32229 0.12111 0.04617 0.0
O13 O 0.30843 0.10692 0.08152 0.0
Co14 Co 0.18825 0.86469 0.5797 0.0
O15 O 0.21897 0.85569 0.56812 0.0
O16 O 0.18677 0.83586 0.56738 0.0
C17 C 0.18851 0.89637 0.55956 0.0
O18 O 0.15333 0.86836 0.58827 0.0
Co19 Co 0.18048 0.90463 0.61353 0.0
O20 O 0.14689 0.90087 0.60443 0.0
C21 C 0.19822 0.86496 0.63713 0.0
C22 C 0.20902 0.83784 0.56197 0.0
C23 C 0.13935 0.88327 0.59567 0.0
O24 O 0.19576 0.85483 0.61581 0.0
O25 O 0.19429 0.88486 0.63955 0.0
O26 O 0.18302 0.87923 0.54709 0.0
O27 O 0.19542 0.89365 0.58293 0.0
Co28 Co 0.31657 0.86393 0.92595 0.0
O29 O 0.28641 0.85491 0.93904 0.0
O30 O 0.31872 0.83518 0.93846 0.0
C31 C 0.31716 0.89572 0.94577 0.0
O32 O 0.35094 0.86781 0.91558 0.0
Co33 Co 0.32169 0.90335 0.89072 0.0
O34 O 0.35607 0.89861 0.89452 0.0
C35 C 0.29909 0.8645 0.87137 0.0
C36 C 0.29666 0.83711 0.94478 0.0
C37 C 0.36421 0.88183 0.90487 0.0
O38 O 0.30741 0.85387 0.89042 0.0
O39 O 0.3006 0.8847 0.8696 0.0
O40 O 0.3232 0.87865 0.9581 0.0
O41 O 0.3091 0.89281 0.92285 0.0
Co42 Co 0.18714 0.13557 0.42517 0.0
O43 O 0.21787 0.14461 0.43669 0.0
O44 O 0.18578 0.1646 0.43682 0.0
C45 C 0.18714 0.10423 0.44608 0.0
O46 O 0.15226 0.1319 0.41644 0.0
Co47 Co 0.17943 0.09514 0.3922 0.0
O48 O 0.14578 0.09921 0.40083 0.0
C49 C 0.19752 0.13436 0.36785 0.0
C50 C 0.20801 0.16261 0.44236 0.0
C51 C 0.13826 0.11696 0.40916 0.0
O52 O 0.1949 0.14483 0.3889 0.0
O53 O 0.19356 0.11443 0.36585 0.0
O54 O 0.18166 0.12161 0.45808 0.0
O55 O 0.1942 0.10653 0.42269 0.0
Co56 Co 0.66587 0.87217 0.9065 0.0
O57 O 0.69711 0.87456 0.89175 0.0
O58 O 0.66526 0.864 0.87085 0.0
C59 C 0.66566 0.90375 0.92698 0.0
O60 O 0.63065 0.86871 0.91363 0.0
Co61 Co 0.65593 0.87157 0.96518 0.0
O62 O 0.62241 0.87402 0.95532 0.0
C63 C 0.67547 0.8335 0.9399 0.0
C64 C 0.68764 0.86827 0.87032 0.0
C65 C 0.61591 0.87091 0.93224 0.0
O66 O 0.67309 0.84202 0.91756 0.0
O67 O 0.67087 0.8431 0.96093 0.0
O68 O 0.66103 0.90277 0.90256 0.0
O69 O 0.67208 0.88616 0.93754 0.0
Co70 Co 0.83692 0.12834 0.4077 0.0
O71 O 0.80603 0.12594 0.39221 0.0
O72 O 0.83818 0.1368 0.37212 0.0
C73 C 0.83673 0.09658 0.42775 0.0
O74 O 0.87195 0.13197 0.41595 0.0
Co75 Co 0.84539 0.12831 0.46666 0.0
O76 O 0.8788 0.12402 0.45728 0.0
C77 C 0.82674 0.16677 0.4413 0.0
C78 C 0.81582 0.13244 0.37107 0.0
C79 C 0.88613 0.12826 0.43476 0.0
O80 O 0.82933 0.15835 0.41893 0.0
O81 O 0.83103 0.15705 0.46234 0.0
O82 O 0.84199 0.09779 0.40351 0.0
O83 O 0.83001 0.11406 0.43833 0.0
Co84 Co 0.6653 0.12748 0.09585 0.0
O85 O 0.69633 0.1254 0.11115 0.0
O86 O 0.66421 0.13632 0.13127 0.0
C87 C 0.66536 0.0955 0.07632 0.0
O88 O 0.63018 0.13072 0.088 0.0
Co89 Co 0.65643 0.12696 0.03695 0.0
O90 O 0.62277 0.12462 0.04626 0.0
C91 C 0.67521 0.16562 0.06159 0.0
C92 C 0.68659 0.13204 0.13226 0.0
C93 C 0.61583 0.12811 0.0691 0.0
O94 O 0.67261 0.15744 0.08409 0.0
O95 O 0.67098 0.15565 0.04072 0.0
O96 O 0.66041 0.097 0.10062 0.0
O97 O 0.67199 0.11286 0.06534 0.0
Co98 Co 0.83814 0.87205 0.59513 0.0
O99 O 0.80733 0.87419 0.61087 0.0
O100 O 0.83957 0.86293 0.63046 0.0
C101 C 0.83789 0.90422 0.57605 0.0
O102 O 0.87313 0.86858 0.58664 0.0
Co103 Co 0.84642 0.87329 0.53616 0.0
O104 O 0.8799 0.87732 0.54553 0.0
C105 C 0.82794 0.83431 0.56047 0.0
C106 C 0.81724 0.86735 0.63179 0.0
C107 C 0.88726 0.87264 0.5679 0.0
O108 O 0.83054 0.84226 0.58308 0.0
O109 O 0.83214 0.84444 0.5397 0.0
O110 O 0.84325 0.90248 0.60022 0.0
O111 O 0.83111 0.88697 0.56495 0.0
Co112 Co 0.81444 0.63557 0.07813 0.0
O113 O 0.78401 0.64548 0.06661 0.0
O114 O 0.81687 0.66443 0.06618 0.0
C115 C 0.81311 0.60412 0.05748 0.0
O116 O 0.84923 0.63106 0.0867 0.0
Co117 Co 0.82164 0.59504 0.111 0.0
O118 O 0.85473 0.59733 0.09921 0.0
C119 C 0.80479 0.63474 0.13554 0.0
C120 C 0.7946 0.66307 0.06061 0.0
C121 C 0.86273 0.61518 0.09182 0.0
O122 O 0.80716 0.64515 0.1144 0.0
O123 O 0.80861 0.61479 0.13756 0.0
O124 O 0.8192 0.62123 0.04529 0.0
O125 O 0.80643 0.60676 0.08095 0.0
Co126 Co 0.68581 0.36365 0.5786 0.0
O127 O 0.71601 0.35464 0.56552 0.0
O128 O 0.68363 0.33499 0.5659 0.0
C129 C 0.68531 0.39554 0.55903 0.0
O130 O 0.65139 0.36743 0.58876 0.0
Co131 Co 0.68021 0.40285 0.61404 0.0
O132 O 0.64586 0.39824 0.60964 0.0
C133 C 0.70302 0.36403 0.63328 0.0
C134 C 0.70569 0.33691 0.55959 0.0
C135 C 0.63792 0.38143 0.59918 0.0
O136 O 0.69486 0.35343 0.61412 0.0
O137 O 0.70132 0.38421 0.63516 0.0
O138 O 0.67932 0.37855 0.54654 0.0
O139 O 0.69323 0.39252 0.58199 0.0
Co140 Co 0.81489 0.36403 0.92482 0.0
O141 O 0.78437 0.35444 0.93649 0.0
O142 O 0.81704 0.33523 0.93702 0.0
C143 C 0.81409 0.39561 0.94519 0.0
O144 O 0.8497 0.36818 0.91616 0.0
Co145 Co 0.82212 0.4042 0.89132 0.0
O146 O 0.85583 0.40077 0.90015 0.0
C147 C 0.8048 0.36445 0.86745 0.0
C148 C 0.79479 0.33679 0.94258 0.0
C149 C 0.86354 0.38319 0.90877 0.0
O150 O 0.80743 0.35422 0.88868 0.0
O151 O 0.80851 0.3844 0.86519 0.0
O152 O 0.81995 0.37848 0.95749 0.0
O153 O 0.80719 0.39292 0.92179 0.0
Co154 Co 0.68619 0.6353 0.4256 0.0
O155 O 0.71685 0.64379 0.43783 0.0
O156 O 0.68507 0.6642 0.43777 0.0
C157 C 0.68525 0.60367 0.44579 0.0
O158 O 0.65151 0.63205 0.41618 0.0
Co159 Co 0.67931 0.59577 0.39094 0.0
O160 O 0.64515 0.60112 0.39582 0.0
C161 C 0.70251 0.63398 0.37059 0.0
C162 C 0.70721 0.66187 0.44355 0.0
C163 C 0.63766 0.61816 0.40614 0.0
O164 O 0.69485 0.6449 0.38973 0.0
O165 O 0.70044 0.6138 0.36908 0.0
O166 O 0.6799 0.62094 0.45808 0.0
O167 O 0.69286 0.60625 0.42264 0.0
Co168 Co 0.16476 0.37216 0.90833 0.0
O169 O 0.19554 0.3747 0.89261 0.0
O170 O 0.16349 0.36298 0.87302 0.0
C171 C 0.16443 0.40432 0.92737 0.0
O172 O 0.12983 0.36824 0.91683 0.0
Co173 Co 0.15651 0.37325 0.96729 0.0
O174 O 0.123 0.37696 0.95793 0.0
C175 C 0.17572 0.33456 0.94299 0.0
C176 C 0.18575 0.36768 0.87171 0.0
C177 C 0.11566 0.3722 0.93557 0.0
O178 O 0.17291 0.34251 0.92041 0.0
O179 O 0.17133 0.34462 0.96377 0.0
O180 O 0.15912 0.4025 0.9032 0.0
O181 O 0.17153 0.38718 0.93849 0.0
Co182 Co 0.3365 0.62777 0.40657 0.0
O183 O 0.30558 0.62516 0.39121 0.0
O184 O 0.33768 0.63583 0.37085 0.0
C185 C 0.33659 0.59626 0.4272 0.0
O186 O 0.37152 0.63145 0.41467 0.0
Co187 Co 0.34463 0.62873 0.46565 0.0
O188 O 0.37847 0.6269 0.4568 0.0
C189 C 0.32501 0.66624 0.43945 0.0
C190 C 0.31531 0.63147 0.36995 0.0
C191 C 0.38565 0.62972 0.43391 0.0
O192 O 0.3289 0.65793 0.41725 0.0
O193 O 0.32853 0.65663 0.4607 0.0
O194 O 0.34166 0.59719 0.40289 0.0
O195 O 0.32973 0.61382 0.43746 0.0
Co196 Co 0.16416 0.62853 0.09513 0.0
O197 O 0.19511 0.62659 0.11057 0.0
O198 O 0.16283 0.63716 0.13065 0.0
C199 C 0.16494 0.59666 0.07538 0.0
O200 O 0.12904 0.63165 0.08688 0.0
Co201 Co 0.15533 0.62792 0.03628 0.0
O202 O 0.12282 0.62037 0.04657 0.0
C203 C 0.17348 0.66687 0.0611 0.0
C204 C 0.18525 0.63304 0.13169 0.0
C205 C 0.11524 0.62552 0.06869 0.0
O206 O 0.1713 0.65853 0.08357 0.0
O207 O 0.169 0.657 0.0402 0.0
O208 O 0.15962 0.59794 0.0996 0.0
O209 O 0.17127 0.61419 0.06463 0.0
Co210 Co 0.33651 0.37292 0.59675 0.0
O211 O 0.30547 0.37518 0.61192 0.0
O212 O 0.33744 0.36411 0.6322 0.0
C213 C 0.33673 0.40488 0.57719 0.0
O214 O 0.3716 0.36945 0.58893 0.0
Co215 Co 0.34529 0.37332 0.5378 0.0
O216 O 0.379 0.37519 0.54711 0.0
C217 C 0.32596 0.33496 0.56252 0.0
C218 C 0.31509 0.36849 0.63307 0.0
C219 C 0.38595 0.37177 0.56997 0.0
O220 O 0.32903 0.34299 0.58502 0.0
O221 O 0.32999 0.34494 0.54162 0.0
O222 O 0.34162 0.40337 0.6015 0.0
O223 O 0.32997 0.38757 0.56623 0.0
C224 C 0.29708 0.19502 0.03195 0.0
C225 C 0.28415 0.17981 0.0457 0.0
C226 C 0.28555 0.21018 0.01693 0.0
C227 C 0.22671 0.22251 0.98786 0.0
H228 H 0.25315 0.27902 0.98216 0.0
C229 C 0.17546 0.29908 0.96358 0.0
C230 C 0.18563 0.31313 0.94586 0.0
C231 C 0.18725 0.28057 0.97074 0.0
C232 C 0.24578 0.26319 0.98324 0.0
H233 H 0.24903 0.16882 0.05507 0.0
H234 H 0.22881 0.1959 0.03007 0.0
H235 H 0.27422 0.252 0.00636 0.0
H236 H 0.21555 0.31871 0.92101 0.0
H237 H 0.23669 0.28646 0.93424 0.0
H238 H 0.19748 0.23443 0.96604 0.0
C239 C 0.24788 0.19572 0.02995 0.0
C240 C 0.25785 0.24763 0.9971 0.0
C241 C 0.25945 0.1803 0.04456 0.0
C242 C 0.20727 0.30792 0.93446 0.0
C243 C 0.21939 0.28963 0.94214 0.0
C244 C 0.21443 0.23822 0.97444 0.0
C245 C 0.26075 0.21077 0.01568 0.0
C246 C 0.24838 0.2271 0.99986 0.0
C247 C 0.20969 0.27609 0.96081 0.0
C248 C 0.22378 0.25873 0.9722 0.0
H249 H 0.31617 0.19486 0.03223 0.0
H250 H 0.29616 0.22117 0.00594 0.0
H251 H 0.21907 0.2068 0.98894 0.0
H252 H 0.15885 0.3029 0.97273 0.0
H253 H 0.17949 0.27048 0.98529 0.0
C254 C 0.29101 0.69091 0.43851 0.0
C255 C 0.31531 0.68775 0.44132 0.0
C256 C 0.28051 0.70955 0.44757 0.0
C257 C 0.2919 0.75048 0.49693 0.0
H258 H 0.23392 0.77488 0.47094 0.0
C259 C 0.24648 0.82286 0.54411 0.0
C260 C 0.22202 0.82119 0.5478 0.0
C261 C 0.25854 0.80781 0.52941 0.0
C262 C 0.25007 0.76814 0.47845 0.0
H263 H 0.34802 0.7017 0.45422 0.0
H264 H 0.33005 0.73479 0.46874 0.0
H265 H 0.25435 0.74775 0.44592 0.0
H266 H 0.19102 0.80241 0.53902 0.0
H267 H 0.21211 0.77616 0.51328 0.0
H268 H 0.2876 0.77091 0.5294 0.0
C269 C 0.31885 0.72276 0.4603 0.0
C270 C 0.26178 0.75259 0.46413 0.0
C271 C 0.32924 0.70399 0.45163 0.0
C272 C 0.20989 0.80409 0.53661 0.0
C273 C 0.22191 0.78917 0.52168 0.0
C274 C 0.28033 0.76616 0.51106 0.0
C275 C 0.29421 0.72538 0.4595 0.0
C276 C 0.28273 0.74335 0.47333 0.0
C277 C 0.24636 0.79091 0.51785 0.0
C278 C 0.25914 0.77497 0.50215 0.0
H279 H 0.27992 0.67832 0.43111 0.0
H280 H 0.2615 0.71084 0.44679 0.0
H281 H 0.30763 0.74345 0.50503 0.0
H282 H 0.25631 0.83589 0.55241 0.0
H283 H 0.27737 0.80961 0.5267 0.0
C284 C 0.29675 0.80547 0.97373 0.0
C285 C 0.28413 0.82041 0.95925 0.0
C286 C 0.28489 0.7906 0.98888 0.0
C287 C 0.22528 0.77871 0.01652 0.0
H288 H 0.25164 0.72237 0.02456 0.0
C289 C 0.17354 0.70227 0.0402 0.0
C290 C 0.18319 0.68842 0.05849 0.0
C291 C 0.18543 0.72079 0.03328 0.0
C292 C 0.24427 0.73816 0.02282 0.0
H293 H 0.24922 0.83122 0.94869 0.0
H294 H 0.22845 0.80461 0.97385 0.0
H295 H 0.27339 0.74902 1.0005 0.0
H296 H 0.21225 0.68331 0.08468 0.0
H297 H 0.23358 0.71557 0.07191 0.0
H298 H 0.19539 0.76707 0.0375 0.0
C299 C 0.24752 0.80479 0.97449 0.0
C300 C 0.25674 0.75351 0.00905 0.0
C301 C 0.25941 0.81994 0.95978 0.0
C302 C 0.20435 0.69392 0.07076 0.0
C303 C 0.21659 0.71222 0.06334 0.0
C304 C 0.21261 0.76318 0.02984 0.0
C305 C 0.26007 0.79003 0.98951 0.0
C306 C 0.24732 0.77397 0.00541 0.0
C307 C 0.20748 0.7255 0.04407 0.0
C308 C 0.22192 0.74273 0.03291 0.0
H309 H 0.31584 0.80565 0.97393 0.0
H310 H 0.29526 0.77983 1.00045 0.0
H311 H 0.21764 0.79437 0.01478 0.0
H312 H 0.15729 0.69827 0.03039 0.0
H313 H 0.17813 0.73069 0.01826 0.0
C314 C 0.2928 0.30931 0.56502 0.0
C315 C 0.31661 0.31337 0.55984 0.0
C316 C 0.28213 0.29078 0.5558 0.0
C317 C 0.29088 0.25182 0.50325 0.0
H318 H 0.23597 0.22487 0.53315 0.0
C319 C 0.24575 0.17829 0.4585 0.0
C320 C 0.22112 0.17943 0.45606 0.0
C321 C 0.25802 0.19356 0.47264 0.0
C322 C 0.25126 0.23232 0.52457 0.0
H323 H 0.34844 0.30098 0.54271 0.0
H324 H 0.3304 0.26801 0.52807 0.0
H325 H 0.2571 0.25206 0.5574 0.0
H326 H 0.19002 0.19744 0.4666 0.0
H327 H 0.2115 0.22402 0.49153 0.0
H328 H 0.28513 0.23189 0.47058 0.0
C329 C 0.31957 0.27934 0.5383 0.0
C330 C 0.26336 0.24794 0.53842 0.0
C331 C 0.33005 0.29803 0.54703 0.0
C332 C 0.20901 0.19619 0.46801 0.0
C333 C 0.22126 0.21129 0.48247 0.0
C334 C 0.279 0.23604 0.48961 0.0
C335 C 0.29521 0.2759 0.54147 0.0
C336 C 0.28323 0.25807 0.52784 0.0
C337 C 0.24588 0.21011 0.48495 0.0
C338 C 0.25893 0.22629 0.49999 0.0
H339 H 0.28204 0.32118 0.57446 0.0
H340 H 0.26334 0.28887 0.5585 0.0
H341 H 0.30567 0.25955 0.49405 0.0
H342 H 0.25555 0.16553 0.44957 0.0
H343 H 0.27699 0.19223 0.47432 0.0
C344 C 0.79547 0.695 0.03219 0.0
C345 C 0.78241 0.67999 0.04612 0.0
C346 C 0.78409 0.70994 0.01671 0.0
C347 C 0.72567 0.72173 0.9864 0.0
H348 H 0.75217 0.77815 0.97974 0.0
C349 C 0.67446 0.79758 0.95928 0.0
C350 C 0.68514 0.81193 0.94229 0.0
C351 C 0.68614 0.77909 0.96667 0.0
C352 C 0.74478 0.76234 0.98106 0.0
H353 H 0.74719 0.66915 0.0553 0.0
H354 H 0.72722 0.69587 0.02945 0.0
H355 H 0.77286 0.75158 0.00498 0.0
H356 H 0.71588 0.81797 0.91881 0.0
H357 H 0.73678 0.78569 0.93236 0.0
H358 H 0.6968 0.73322 0.96368 0.0
C359 C 0.7463 0.6957 0.0296 0.0
C360 C 0.75664 0.74704 0.99554 0.0
C361 C 0.75772 0.6805 0.04471 0.0
C362 C 0.70719 0.80695 0.93167 0.0
C363 C 0.71918 0.78865 0.93957 0.0
C364 C 0.7136 0.73719 0.97231 0.0
C365 C 0.75932 0.71051 0.01512 0.0
C366 C 0.74715 0.72655 0.99868 0.0
C367 C 0.70899 0.77488 0.95769 0.0
C368 C 0.72296 0.75768 0.9697 0.0
H369 H 0.81455 0.69483 0.03263 0.0
H370 H 0.79483 0.72075 0.00559 0.0
H371 H 0.71802 0.70604 0.98777 0.0
H372 H 0.65754 0.80122 0.96786 0.0
H373 H 0.67798 0.76883 0.98079 0.0
C374 C 0.82721 0.20247 0.46132 0.0
C375 C 0.8171 0.18835 0.44364 0.0
C376 C 0.81545 0.22104 0.46826 0.0
C377 C 0.75671 0.23822 0.48015 0.0
H378 H 0.78352 0.29443 0.48765 0.0
C379 C 0.70518 0.30543 0.53045 0.0
C380 C 0.71804 0.32031 0.54478 0.0
C381 C 0.71679 0.29063 0.51498 0.0
C382 C 0.77584 0.27877 0.48605 0.0
H383 H 0.78738 0.18281 0.41849 0.0
H384 H 0.7663 0.2152 0.43129 0.0
H385 H 0.80528 0.26716 0.46433 0.0
H386 H 0.75311 0.3311 0.55469 0.0
H387 H 0.77346 0.30459 0.52894 0.0
H388 H 0.72807 0.24907 0.50318 0.0
C389 C 0.78353 0.212 0.43937 0.0
C390 C 0.78823 0.26326 0.47239 0.0
C391 C 0.79562 0.19363 0.43192 0.0
C392 C 0.74275 0.31985 0.54375 0.0
C393 C 0.75439 0.30477 0.5287 0.0
C394 C 0.74453 0.25357 0.49424 0.0
C395 C 0.7931 0.22555 0.45811 0.0
C396 C 0.77886 0.2428 0.46953 0.0
C397 C 0.74159 0.29005 0.51387 0.0
C398 C 0.75404 0.27402 0.49767 0.0
H399 H 0.84371 0.19861 0.4707 0.0
H400 H 0.82312 0.23113 0.48288 0.0
H401 H 0.74931 0.22243 0.4786 0.0
H402 H 0.68609 0.30559 0.53062 0.0
H403 H 0.70622 0.27989 0.50357 0.0
C404 C 0.79529 0.30519 0.9715 0.0
C405 C 0.78241 0.31998 0.95706 0.0
C406 C 0.78371 0.29026 0.98681 0.0
C407 C 0.72459 0.27783 0.01523 0.0
H408 H 0.75196 0.22188 0.02332 0.0
C409 C 0.67427 0.20112 0.04107 0.0
C410 C 0.68463 0.18726 0.05889 0.0
C411 C 0.68577 0.21975 0.03382 0.0
C412 C 0.74431 0.23756 0.02159 0.0
H413 H 0.74732 0.33049 0.94681 0.0
H414 H 0.72702 0.30373 0.9723 0.0
H415 H 0.77288 0.24862 0.99859 0.0
H416 H 0.71453 0.18224 0.08393 0.0
H417 H 0.73515 0.21473 0.07059 0.0
H418 H 0.69526 0.26599 0.03695 0.0
C419 C 0.74608 0.30408 0.97272 0.0
C420 C 0.7563 0.25297 0.00741 0.0
C421 C 0.7577 0.3193 0.95781 0.0
C422 C 0.70611 0.19286 0.0704 0.0
C423 C 0.71793 0.21129 0.06264 0.0
C424 C 0.71239 0.26225 0.02898 0.0
C425 C 0.75891 0.28945 0.98766 0.0
C426 C 0.74653 0.2733 0.00378 0.0
C427 C 0.70811 0.22458 0.04378 0.0
C428 C 0.72207 0.24193 0.03211 0.0
H429 H 0.81438 0.30552 0.97158 0.0
H430 H 0.7943 0.27962 0.99833 0.0
H431 H 0.71669 0.29339 0.01347 0.0
H432 H 0.65778 0.19702 0.03184 0.0
H433 H 0.67791 0.22964 0.01912 0.0
C434 C 0.83161 0.79795 0.54296 0.0
C435 C 0.81879 0.81265 0.5575 0.0
C436 C 0.821 0.77925 0.53449 0.0
C437 C 0.76574 0.74661 0.53826 0.0
H438 H 0.7835 0.73217 0.46852 0.0
C439 C 0.70871 0.69505 0.46993 0.0
C440 C 0.72057 0.67854 0.4572 0.0
C441 C 0.72132 0.71014 0.48404 0.0
C442 C 0.7785 0.73589 0.48808 0.0
H443 H 0.78528 0.81926 0.57552 0.0
H444 H 0.76625 0.78698 0.55993 0.0
H445 H 0.80469 0.75997 0.49103 0.0
H446 H 0.75489 0.66503 0.44899 0.0
H447 H 0.77693 0.69177 0.47306 0.0
H448 H 0.7387 0.723 0.53446 0.0
C449 C 0.78472 0.78939 0.55565 0.0
C450 C 0.79077 0.75174 0.50116 0.0
C451 C 0.79557 0.80791 0.56465 0.0
C452 C 0.74527 0.67759 0.45857 0.0
C453 C 0.75789 0.69288 0.47231 0.0
C454 C 0.7532 0.73096 0.52496 0.0
C455 C 0.79706 0.77518 0.53964 0.0
C456 C 0.7846 0.75737 0.52645 0.0
C457 C 0.74603 0.70921 0.48532 0.0
C458 C 0.75946 0.72549 0.49973 0.0
H459 H 0.84956 0.80139 0.5372 0.0
H460 H 0.83136 0.76841 0.52297 0.0
H461 H 0.76063 0.75025 0.55778 0.0
H462 H 0.68967 0.69612 0.46934 0.0
H463 H 0.71178 0.7227 0.4937 0.0
C464 C 0.32135 0.08022 0.02052 0.0
C465 C 0.31814 0.08269 0.04705 0.0
C466 C 0.32221 0.05998 0.0096 0.0
C467 C 0.30644 0.00378 0.02347 0.0
H468 H 0.34639 0.99245 0.96467 0.0
C469 C 0.32255 0.91942 0.98377 0.0
C470 C 0.3191 0.91705 0.95724 0.0
C471 C 0.32326 0.93962 0.99481 0.0
C472 C 0.33509 0.99545 0.98102 0.0
H473 H 0.31396 0.06598 0.0831 0.0
H474 H 0.31638 0.03072 0.06433 0.0
H475 H 0.34649 0.02768 0.98408 0.0
H476 H 0.31424 0.93391 0.92136 0.0
H477 H 0.31597 0.96923 0.94063 0.0
H478 H 0.29552 0.97134 0.02064 0.0
C479 C 0.31747 0.04433 0.05171 0.0
C480 C 0.33502 0.01566 0.9921 0.0
C481 C 0.31627 0.06456 0.06255 0.0
C482 C 0.31689 0.93525 0.94187 0.0
C483 C 0.31797 0.95545 0.95286 0.0
C484 C 0.30678 0.98353 0.01262 0.0
C485 C 0.32021 0.04173 0.02505 0.0
C486 C 0.32062 0.02013 0.01342 0.0
C487 C 0.32092 0.95781 0.97946 0.0
C488 C 0.32102 0.9792 0.99124 0.0
H489 H 0.3227 0.09394 0.00809 0.0
H490 H 0.32395 0.05868 0.98898 0.0
H491 H 0.29474 0.00668 0.03949 0.0
H492 H 0.32427 0.90566 0.99609 0.0
H493 H 0.32572 0.94102 0.01536 0.0
C494 C 0.18735 0.93581 0.56391 0.0
C495 C 0.18609 0.91773 0.54823 0.0
C496 C 0.18561 0.95607 0.55327 0.0
C497 C 0.16772 0.98486 0.4939 0.0
H498 H 0.20695 0.02934 0.52255 0.0
C499 C 0.18641 0.06468 0.44299 0.0
C500 C 0.18479 0.08311 0.45804 0.0
C501 C 0.18484 0.04465 0.45432 0.0
C502 C 0.19572 0.01712 0.51453 0.0
H503 H 0.18198 0.90663 0.50915 0.0
H504 H 0.17977 0.94201 0.49037 0.0
H505 H 0.20785 0.99401 0.5414 0.0
H506 H 0.18008 0.09507 0.4967 0.0
H507 H 0.17776 0.05996 0.5166 0.0
H508 H 0.15628 0.00801 0.46645 0.0
C509 C 0.18148 0.9406 0.51099 0.0
C510 C 0.19614 0.99687 0.52537 0.0
C511 C 0.1829 0.9203 0.52171 0.0
C512 C 0.18139 0.08113 0.48463 0.0
C513 C 0.18016 0.06108 0.49602 0.0
C514 C 0.16754 0.00507 0.48286 0.0
C515 C 0.18293 0.95877 0.52662 0.0
C516 C 0.18216 0.98044 0.51521 0.0
C517 C 0.18195 0.04265 0.48097 0.0
C518 C 0.18155 0.02138 0.49307 0.0
H519 H 0.18961 0.93433 0.58446 0.0
H520 H 0.18629 0.96962 0.56601 0.0
H521 H 0.15639 0.97276 0.48582 0.0
H522 H 0.189 0.0657 0.42244 0.0
H523 H 0.18647 0.0307 0.4423 0.0
C524 C 0.663 0.92224 0.9692 0.0
C525 C 0.66263 0.9233 0.94228 0.0
C526 C 0.66097 0.94061 0.98397 0.0
C527 C 0.64412 0.99769 0.9809 0.0
H528 H 0.6823 0.00105 0.04253 0.0
C529 C 0.66373 0.07593 0.03469 0.0
C530 C 0.6624 0.07563 0.06162 0.0
C531 C 0.6616 0.0572 0.02059 0.0
C532 C 0.67131 0.00024 0.02555 0.0
H533 H 0.65957 0.94443 0.90969 0.0
H534 H 0.6568 0.97673 0.93545 0.0
H535 H 0.68306 0.96893 0.01666 0.0
H536 H 0.65754 0.05549 0.0949 0.0
H537 H 0.6542 0.02256 0.07019 0.0
H538 H 0.63308 0.02943 0.98954 0.0
C539 C 0.65812 0.96162 0.94522 0.0
C540 C 0.67168 0.9818 0.0107 0.0
C541 C 0.65986 0.94314 0.93041 0.0
C542 C 0.65866 0.0562 0.07417 0.0
C543 C 0.65684 0.03738 0.06005 0.0
C544 C 0.64397 0.01624 0.99563 0.0
C545 C 0.65887 0.9606 0.97222 0.0
C546 C 0.65811 0.98025 0.98815 0.0
C547 C 0.65838 0.03769 0.03311 0.0
C548 C 0.65761 0.01771 0.01808 0.0
H549 H 0.6649 0.90718 0.97896 0.0
H550 H 0.66104 0.93908 0.00466 0.0
H551 H 0.63314 0.99698 0.96393 0.0
H552 H 0.66658 0.09065 0.02443 0.0
H553 H 0.66311 0.0579 0.99988 0.0
C554 C 0.83872 0.07787 0.46986 0.0
C555 C 0.8396 0.07695 0.44296 0.0
C556 C 0.84073 0.05945 0.48454 0.0
C557 C 0.85845 0.00259 0.48138 0.0
H558 H 0.81976 0.99859 0.54257 0.0
C559 C 0.83931 0.92401 0.53458 0.0
C560 C 0.84067 0.9242 0.56151 0.0
C561 C 0.84127 0.94282 0.52061 0.0
C562 C 0.83088 0.99958 0.52572 0.0
H563 H 0.84346 0.05602 0.41028 0.0
H564 H 0.84614 0.02362 0.43587 0.0
H565 H 0.81871 0.03076 0.5168 0.0
H566 H 0.84537 0.9442 0.59493 0.0
H567 H 0.84835 0.97729 0.57042 0.0
H568 H 0.86988 0.97097 0.49003 0.0
C569 C 0.84447 0.03866 0.44571 0.0
C570 C 0.83036 0.01805 0.51092 0.0
C571 C 0.84279 0.0572 0.431 0.0
C572 C 0.84424 0.94359 0.5742 0.0
C573 C 0.84587 0.96249 0.5602 0.0
C574 C 0.85874 0.984 0.49605 0.0
C575 C 0.84329 0.03954 0.47271 0.0
C576 C 0.84413 0.01983 0.48853 0.0
C577 C 0.84432 0.96228 0.53326 0.0
C578 C 0.84493 0.98231 0.51834 0.0
H579 H 0.83649 0.09286 0.4797 0.0
H580 H 0.8403 0.06089 0.50524 0.0
H581 H 0.86959 0.00348 0.46455 0.0
H582 H 0.83658 0.90933 0.52422 0.0
H583 H 0.83977 0.9422 0.4999 0.0
C584 C 0.8192 0.41924 0.98336 0.0
C585 C 0.816 0.41691 0.95679 0.0
C586 C 0.82013 0.43944 0.9944 0.0
C587 C 0.83254 0.4953 0.98046 0.0
H588 H 0.79197 0.50679 0.03867 0.0
C589 C 0.81823 0.58029 0.01942 0.0
C590 C 0.81502 0.58279 0.04595 0.0
C591 C 0.81927 0.56001 0.00856 0.0
C592 C 0.80374 0.50382 0.02272 0.0
H593 H 0.81179 0.43384 0.92085 0.0
H594 H 0.81382 0.46911 0.94011 0.0
H595 H 0.79284 0.47137 0.02009 0.0
H596 H 0.81103 0.56606 0.08204 0.0
H597 H 0.81372 0.53083 0.06338 0.0
H598 H 0.84384 0.52758 0.98329 0.0
C599 C 0.81551 0.45532 0.95238 0.0
C600 C 0.80414 0.48351 0.01203 0.0
C601 C 0.81423 0.43514 0.94139 0.0
C602 C 0.81333 0.56466 0.06148 0.0
C603 C 0.81469 0.54442 0.05072 0.0
C604 C 0.8324 0.51557 0.99136 0.0
C605 C 0.81824 0.45767 0.97901 0.0
C606 C 0.81845 0.47908 0.99074 0.0
C607 C 0.81741 0.54179 0.02408 0.0
C608 C 0.81791 0.52014 0.01258 0.0
H609 H 0.82062 0.40546 0.99569 0.0
H610 H 0.82241 0.44083 0.01497 0.0
H611 H 0.84389 0.49223 0.96417 0.0
H612 H 0.81949 0.59401 0.00697 0.0
H613 H 0.82104 0.55866 0.98794 0.0
C614 C 0.68537 0.43502 0.56336 0.0
C615 C 0.68327 0.41696 0.54779 0.0
C616 C 0.68413 0.45531 0.55265 0.0
C617 C 0.66605 0.48423 0.49338 0.0
H618 H 0.7064 0.52822 0.52125 0.0
C619 C 0.68466 0.56411 0.44232 0.0
C620 C 0.68307 0.58245 0.45754 0.0
C621 C 0.68337 0.54401 0.45354 0.0
C622 C 0.69489 0.51613 0.51343 0.0
H623 H 0.67824 0.40588 0.50882 0.0
H624 H 0.67689 0.44121 0.48993 0.0
H625 H 0.70697 0.49291 0.54021 0.0
H626 H 0.67878 0.59418 0.49636 0.0
H627 H 0.67695 0.55898 0.51603 0.0
H628 H 0.65464 0.50748 0.46603 0.0
C629 C 0.67886 0.43984 0.51052 0.0
C630 C 0.69511 0.49589 0.52434 0.0
C631 C 0.67977 0.41955 0.52131 0.0
C632 C 0.68002 0.58032 0.48416 0.0
C633 C 0.67909 0.56021 0.49542 0.0
C634 C 0.66609 0.50441 0.48225 0.0
C635 C 0.6811 0.45801 0.52604 0.0
C636 C 0.68067 0.47965 0.5145 0.0
C637 C 0.68081 0.54187 0.48022 0.0
C638 C 0.68048 0.52055 0.4922 0.0
H639 H 0.68792 0.43352 0.58387 0.0
H640 H 0.68544 0.46888 0.56531 0.0
H641 H 0.65438 0.4723 0.48554 0.0
H642 H 0.68699 0.56528 0.42175 0.0
H643 H 0.68491 0.53012 0.44141 0.0
C644 C 0.1589 0.55727 0.07224 0.0
C645 C 0.1621 0.57699 0.06024 0.0
C646 C 0.15715 0.53872 0.05756 0.0
C647 C 0.17112 0.51809 0.99234 0.0
H648 H 0.13163 0.471 0.0133 0.0
C649 C 0.15751 0.4436 0.92917 0.0
C650 C 0.16131 0.42426 0.94188 0.0
C651 C 0.15566 0.4625 0.94314 0.0
C652 C 0.14275 0.48404 0.00726 0.0
H653 H 0.16518 0.59285 0.02345 0.0
H654 H 0.16121 0.56089 0.99799 0.0
H655 H 0.13195 0.50352 0.03878 0.0
H656 H 0.16551 0.40945 0.9792 0.0
H657 H 0.16194 0.44231 0.00347 0.0
H658 H 0.18168 0.49863 0.96068 0.0
C659 C 0.16083 0.55946 0.01869 0.0
C660 C 0.14306 0.50263 0.02192 0.0
C661 C 0.16293 0.57788 0.03333 0.0
C662 C 0.16262 0.4241 0.96882 0.0
C663 C 0.16044 0.4429 0.98276 0.0
C664 C 0.17057 0.49963 0.97755 0.0
C665 C 0.15827 0.53957 0.03056 0.0
C666 C 0.15739 0.51987 0.01475 0.0
C667 C 0.15721 0.46232 0.97008 0.0
C668 C 0.15654 0.48236 0.98496 0.0
H669 H 0.15826 0.55611 0.09297 0.0
H670 H 0.15547 0.52368 0.06743 0.0
H671 H 0.18277 0.53079 0.98645 0.0
H672 H 0.15641 0.44419 0.90843 0.0
H673 H 0.15305 0.47727 0.9329 0.0
C674 C 0.34279 0.55696 0.43097 0.0
C675 C 0.33959 0.5768 0.44268 0.0
C676 C 0.34454 0.53854 0.4459 0.0
C677 C 0.33037 0.51843 0.51128 0.0
H678 H 0.36969 0.47108 0.49081 0.0
C679 C 0.34337 0.44419 0.57506 0.0
C680 C 0.3398 0.42475 0.56249 0.0
C681 C 0.34524 0.46301 0.56094 0.0
C682 C 0.35861 0.48419 0.49671 0.0
H683 H 0.33655 0.59303 0.47922 0.0
H684 H 0.34044 0.56126 0.50517 0.0
H685 H 0.36964 0.50348 0.46513 0.0
H686 H 0.33598 0.40969 0.52528 0.0
H687 H 0.33956 0.44244 0.50073 0.0
H688 H 0.31957 0.49915 0.543 0.0
C689 C 0.34085 0.55966 0.48448 0.0
C690 C 0.35846 0.50272 0.48194 0.0
C691 C 0.33878 0.57795 0.46958 0.0
C692 C 0.3387 0.42442 0.53555 0.0
C693 C 0.34088 0.44316 0.52145 0.0
C694 C 0.33075 0.50002 0.52619 0.0
C695 C 0.34339 0.53964 0.47289 0.0
C696 C 0.34419 0.52005 0.48892 0.0
C697 C 0.34391 0.46267 0.53399 0.0
C698 C 0.34471 0.48265 0.51895 0.0
H699 H 0.34341 0.55559 0.41026 0.0
H700 H 0.3462 0.52342 0.43624 0.0
H701 H 0.31878 0.53121 0.51704 0.0
H702 H 0.34431 0.44491 0.5958 0.0
H703 H 0.34772 0.47784 0.57109 0.0
C704 C 0.58064 0.12341 0.09773 0.0
C705 C 0.59015 0.12918 0.07385 0.0
C706 C 0.55619 0.12313 0.10144 0.0
C707 C 0.49994 0.12242 0.06415 0.0
H708 H 0.47194 0.13453 0.13042 0.0
C709 C 0.39987 0.1336 0.07879 0.0
C710 C 0.38977 0.12046 0.09761 0.0
C711 C 0.42434 0.13549 0.0768 0.0
C712 C 0.47959 0.13107 0.11185 0.0
H713 H 0.58165 0.14017 0.03555 0.0
H714 H 0.53932 0.14074 0.04231 0.0
H715 H 0.51465 0.13691 0.12518 0.0
H716 H 0.3974 0.09956 0.12963 0.0
H717 H 0.44025 0.10335 0.12649 0.0
H718 H 0.4647 0.11724 0.05076 0.0
C719 C 0.55047 0.1355 0.05792 0.0
C720 C 0.50408 0.13229 0.10882 0.0
C721 C 0.57481 0.13535 0.05407 0.0
C722 C 0.40466 0.10974 0.11486 0.0
C723 C 0.42914 0.11197 0.11317 0.0
C724 C 0.4755 0.12161 0.06708 0.0
C725 C 0.54073 0.129 0.0815 0.0
C726 C 0.51462 0.12794 0.08491 0.0
C727 C 0.43919 0.12462 0.09389 0.0
C728 C 0.46511 0.12587 0.09094 0.0
H729 H 0.59205 0.11846 0.11328 0.0
H730 H 0.54947 0.11775 0.11976 0.0
H731 H 0.50728 0.11838 0.04562 0.0
H732 H 0.3889 0.14199 0.06515 0.0
H733 H 0.4317 0.14542 0.06185 0.0
C734 C 0.92246 0.8661 0.59633 0.0
C735 C 0.91312 0.8715 0.57219 0.0
C736 C 0.94688 0.86519 0.60013 0.0
C737 C 0.00353 0.86109 0.56477 0.0
H738 H 0.03014 0.8859 0.62635 0.0
C739 C 0.10397 0.86081 0.58494 0.0
C740 C 0.11347 0.87988 0.59441 0.0
C741 C 0.07952 0.85792 0.5836 0.0
C742 C 0.02299 0.87895 0.60901 0.0
H743 H 0.92235 0.8802 0.53313 0.0
H744 H 0.96464 0.87887 0.53984 0.0
H745 H 0.98747 0.88446 0.62113 0.0
H746 H 0.10453 0.91082 0.61002 0.0
H747 H 0.06218 0.90583 0.60738 0.0
H748 H 0.03905 0.85627 0.55224 0.0
C749 C 0.95314 0.87498 0.55576 0.0
C750 C 0.99852 0.87791 0.60616 0.0
C751 C 0.92881 0.8759 0.55197 0.0
C752 C 0.09792 0.89588 0.60266 0.0
C753 C 0.07356 0.89297 0.60135 0.0
C754 C 0.028 0.86213 0.56763 0.0
C755 C 0.96251 0.86963 0.57986 0.0
C756 C 0.98849 0.86926 0.58382 0.0
C757 C 0.06404 0.87399 0.59175 0.0
C758 C 0.03804 0.87137 0.58961 0.0
H759 H 0.91093 0.86256 0.61234 0.0
H760 H 0.95351 0.86084 0.61888 0.0
H761 H 0.99639 0.85405 0.54749 0.0
H762 H 0.11537 0.84813 0.57849 0.0
H763 H 0.07276 0.84302 0.57633 0.0
C764 C 0.40072 0.86583 0.92378 0.0
C765 C 0.39005 0.87857 0.90497 0.0
C766 C 0.42524 0.8637 0.92471 0.0
C767 C 0.48033 0.88961 0.90131 0.0
H768 H 0.50916 0.83807 0.92708 0.0
C769 C 0.58142 0.87504 0.90248 0.0
C770 C 0.59033 0.86977 0.92683 0.0
C771 C 0.55709 0.87501 0.89796 0.0
C772 C 0.5013 0.85254 0.91983 0.0
H773 H 0.39666 0.89842 0.87178 0.0
H774 H 0.43924 0.89398 0.87263 0.0
H775 H 0.46647 0.83978 0.92196 0.0
H776 H 0.58081 0.85968 0.96526 0.0
H777 H 0.53843 0.85911 0.9571 0.0
H778 H 0.51542 0.90209 0.89873 0.0
C779 C 0.42885 0.88623 0.88732 0.0
C780 C 0.47681 0.85362 0.91706 0.0
C781 C 0.40437 0.88867 0.88669 0.0
C782 C 0.57448 0.86392 0.94633 0.0
C783 C 0.55025 0.86347 0.94165 0.0
C784 C 0.50484 0.88836 0.90364 0.0
C785 C 0.4397 0.87394 0.90655 0.0
C786 C 0.46592 0.87229 0.90811 0.0
C787 C 0.54131 0.86924 0.91753 0.0
C788 C 0.51551 0.86993 0.91324 0.0
H789 H 0.39017 0.85798 0.93827 0.0
H790 H 0.43282 0.85443 0.94012 0.0
H791 H 0.47272 0.90441 0.89483 0.0
H792 H 0.59319 0.87968 0.88711 0.0
H793 H 0.55059 0.87947 0.87917 0.0
C794 C 0.09684 0.10443 0.40193 0.0
C795 C 0.11239 0.12048 0.41002 0.0
C796 C 0.07248 0.10746 0.40285 0.0
C797 C 0.02678 0.13901 0.43533 0.0
H798 H 0.98658 0.11579 0.38208 0.0
C799 C 0.92765 0.12527 0.45081 0.0
C800 C 0.91198 0.12932 0.43045 0.0
C801 C 0.95198 0.12619 0.44706 0.0
C802 C 0.99754 0.1226 0.39697 0.0
H803 H 0.1143 0.15248 0.42521 0.0
H804 H 0.0717 0.15781 0.42669 0.0
H805 H 0.0293 0.11425 0.37723 0.0
H806 H 0.90984 0.13762 0.3901 0.0
H807 H 0.95245 0.13933 0.38362 0.0
H808 H 0.99505 0.14743 0.45502 0.0
C809 C 0.07846 0.14277 0.41985 0.0
C810 C 0.02204 0.1215 0.39433 0.0
C811 C 0.1029 0.13974 0.41891 0.0
C812 C 0.92135 0.13436 0.40621 0.0
C813 C 0.94578 0.13527 0.40245 0.0
C814 C 0.0023 0.14011 0.43796 0.0
C815 C 0.06296 0.12664 0.41188 0.0
C816 C 0.03696 0.12938 0.41368 0.0
C817 C 0.96138 0.1312 0.42287 0.0
C818 C 0.98737 0.1316 0.41902 0.0
H819 H 0.10343 0.08934 0.39501 0.0
H820 H 0.0611 0.09457 0.39698 0.0
H821 H 0.03772 0.14512 0.45067 0.0
H822 H 0.92116 0.12125 0.46973 0.0
H823 H 0.96345 0.12258 0.46309 0.0
C824 C 0.0756 0.61026 0.05961 0.0
C825 C 0.08949 0.62496 0.07302 0.0
C826 C 0.05115 0.61009 0.06248 0.0
C827 C 0.00206 0.63092 0.10327 0.0
H828 H 0.96481 0.61406 0.04426 0.0
C829 C 0.89929 0.6376 0.09349 0.0
C830 C 0.88856 0.61774 0.08965 0.0
C831 C 0.92384 0.63968 0.09205 0.0
C832 C 0.97504 0.61882 0.06084 0.0
H833 H 0.08875 0.65095 0.10016 0.0
H834 H 0.04587 0.65142 0.10436 0.0
H835 H 0.00752 0.61591 0.04061 0.0
H836 H 0.89502 0.58463 0.08079 0.0
H837 H 0.93779 0.5885 0.07734 0.0
H838 H 0.96904 0.6345 0.12303 0.0
C839 C 0.05385 0.63954 0.09214 0.0
C840 C 0.99957 0.61969 0.05892 0.0
C841 C 0.07845 0.63937 0.08968 0.0
C842 C 0.90279 0.60011 0.08397 0.0
C843 C 0.92721 0.6023 0.08192 0.0
C844 C 0.97742 0.63049 0.10499 0.0
C845 C 0.03981 0.625 0.07838 0.0
C846 C 0.01352 0.62534 0.08023 0.0
C847 C 0.93793 0.62206 0.08609 0.0
C848 C 0.96379 0.62411 0.0839 0.0
H849 H 0.08366 0.59873 0.04693 0.0
H850 H 0.0412 0.59817 0.0522 0.0
H851 H 0.01206 0.6351 0.12021 0.0
H852 H 0.88875 0.65143 0.09801 0.0
H853 H 0.9318 0.65508 0.09525 0.0
C854 C 0.59716 0.38875 0.61564 0.0
C855 C 0.61208 0.37819 0.59828 0.0
C856 C 0.57268 0.38644 0.61396 0.0
C857 C 0.52636 0.37689 0.56774 0.0
H858 H 0.48711 0.36195 0.62589 0.0
C859 C 0.42685 0.36407 0.55488 0.0
C860 C 0.41162 0.37044 0.57467 0.0
C861 C 0.45119 0.36365 0.5587 0.0
C862 C 0.49772 0.36646 0.60952 0.0
H863 H 0.613 0.35679 0.56568 0.0
H864 H 0.5702 0.35323 0.56241 0.0
H865 H 0.52984 0.36405 0.63112 0.0
H866 H 0.40994 0.38125 0.61408 0.0
H867 H 0.45253 0.38147 0.62049 0.0
H868 H 0.49459 0.38029 0.54628 0.0
C869 C 0.57753 0.36311 0.57743 0.0
C870 C 0.52221 0.36753 0.61253 0.0
C871 C 0.602 0.36508 0.5794 0.0
C872 C 0.42125 0.37614 0.59852 0.0
C873 C 0.44571 0.37615 0.6022 0.0
C874 C 0.50191 0.37623 0.56482 0.0
C875 C 0.56266 0.37386 0.5946 0.0
C876 C 0.53673 0.37262 0.59162 0.0
C877 C 0.46106 0.37006 0.58224 0.0
C878 C 0.48719 0.37086 0.58561 0.0
H879 H 0.60438 0.39889 0.63045 0.0
H880 H 0.56156 0.39498 0.62733 0.0
H881 H 0.53717 0.38118 0.55141 0.0
H882 H 0.41992 0.3593 0.53639 0.0
H883 H 0.46225 0.35826 0.54308 0.0
C884 C 0.08046 0.36599 0.90704 0.0
C885 C 0.08981 0.37095 0.93131 0.0
C886 C 0.05603 0.36514 0.90324 0.0
C887 C 0.99942 0.36035 0.93853 0.0
H888 H 0.97273 0.38668 0.87793 0.0
C889 C 0.899 0.36064 0.91875 0.0
C890 C 0.88944 0.37988 0.90988 0.0
C891 C 0.92344 0.35773 0.9199 0.0
C892 C 0.9799 0.37931 0.895 0.0
H893 H 0.08061 0.37882 0.97063 0.0
H894 H 0.03833 0.37756 0.96395 0.0
H895 H 0.01542 0.38499 0.88295 0.0
H896 H 0.89827 0.41113 0.89518 0.0
H897 H 0.94066 0.40615 0.89752 0.0
H898 H 0.96393 0.35534 0.95102 0.0
C899 C 0.04981 0.37401 0.9479 0.0
C900 C 0.00439 0.37812 0.89773 0.0
C901 C 0.07414 0.37489 0.95169 0.0
C902 C 0.90493 0.39607 0.90206 0.0
C903 C 0.92931 0.39316 0.90321 0.0
C904 C 0.97495 0.36154 0.9358 0.0
C905 C 0.04042 0.36916 0.92366 0.0
C906 C 0.01444 0.36892 0.91973 0.0
C907 C 0.93888 0.37399 0.91219 0.0
C908 C 0.96488 0.37132 0.91418 0.0
H909 H 0.09199 0.36282 0.8909 0.0
H910 H 0.04937 0.36119 0.88437 0.0
H911 H 0.00658 0.35289 0.95555 0.0
H912 H 0.88763 0.34779 0.92485 0.0
H913 H 0.93023 0.34269 0.92668 0.0
C914 C 0.6021 0.63516 0.42595 0.0
C915 C 0.61189 0.62181 0.40715 0.0
C916 C 0.57766 0.63752 0.42795 0.0
C917 C 0.52225 0.63348 0.39268 0.0
H918 H 0.49419 0.6218 0.45899 0.0
C919 C 0.42127 0.62496 0.4059 0.0
C920 C 0.41139 0.631 0.4295 0.0
C921 C 0.44575 0.62496 0.4025 0.0
C922 C 0.50164 0.62556 0.44042 0.0
H923 H 0.60373 0.60106 0.37515 0.0
H924 H 0.56103 0.60563 0.37831 0.0
H925 H 0.53681 0.62061 0.45417 0.0
H926 H 0.4193 0.64275 0.46762 0.0
H927 H 0.4617 0.64377 0.4614 0.0
H928 H 0.48726 0.63898 0.37895 0.0
C929 C 0.57232 0.61407 0.39161 0.0
C930 C 0.52611 0.62475 0.43768 0.0
C931 C 0.59673 0.61138 0.38991 0.0
C932 C 0.42641 0.63771 0.44932 0.0
C933 C 0.4508 0.63813 0.44577 0.0
C934 C 0.49775 0.63468 0.39549 0.0
C935 C 0.56255 0.62692 0.41087 0.0
C936 C 0.53664 0.62857 0.41378 0.0
C937 C 0.4609 0.6314 0.42248 0.0
C938 C 0.48707 0.63062 0.4194 0.0
H939 H 0.61329 0.64335 0.43958 0.0
H940 H 0.57054 0.64759 0.4429 0.0
H941 H 0.52999 0.63663 0.37406 0.0
H942 H 0.41012 0.61958 0.39033 0.0
H943 H 0.45277 0.61937 0.38441 0.0
C944 C 0.26554 0.13763 0.16334 0.0
C945 C 0.28692 0.14592 0.15433 0.0
C946 C 0.25501 0.14585 0.18533 0.0
C947 C 0.27014 0.16725 0.24664 0.0
H948 H 0.20231 0.17277 0.25297 0.0
C949 C 0.22242 0.16153 0.34498 0.0
C950 C 0.20525 0.14546 0.34434 0.0
C951 C 0.23176 0.16963 0.32202 0.0
C952 C 0.22131 0.17154 0.25155 0.0
H953 H 0.31394 0.16958 0.16075 0.0
H954 H 0.29577 0.18364 0.20023 0.0
H955 H 0.22043 0.17266 0.21049 0.0
H956 H 0.18335 0.12624 0.31944 0.0
H957 H 0.19917 0.14045 0.27978 0.0
H958 H 0.27081 0.16451 0.28765 0.0
C959 C 0.28701 0.17103 0.18982 0.0
C960 C 0.23167 0.17153 0.22725 0.0
C961 C 0.29731 0.16308 0.16728 0.0
C962 C 0.19666 0.13854 0.32052 0.0
C963 C 0.2056 0.14684 0.29776 0.0
C964 C 0.25973 0.16717 0.27103 0.0
C965 C 0.26587 0.16228 0.19918 0.0
C966 C 0.25603 0.16833 0.22451 0.0
C967 C 0.22361 0.16213 0.29816 0.0
C968 C 0.23509 0.16822 0.27361 0.0
H969 H 0.25724 0.12437 0.15367 0.0
H970 H 0.23892 0.13857 0.19225 0.0
H971 H 0.28895 0.16466 0.24507 0.0
H972 H 0.2294 0.16706 0.36314 0.0
H973 H 0.24564 0.1814 0.32288 0.0
C974 C 0.26552 0.86154 0.84124 0.0
C975 C 0.28691 0.85336 0.85034 0.0
C976 C 0.25504 0.85316 0.8193 0.0
C977 C 0.27037 0.83168 0.75818 0.0
H978 H 0.20262 0.82557 0.75171 0.0
C979 C 0.22311 0.83764 0.65974 0.0
C980 C 0.20572 0.85351 0.66048 0.0
C981 C 0.23235 0.82937 0.68267 0.0
C982 C 0.22161 0.82697 0.75317 0.0
H983 H 0.31401 0.82973 0.84417 0.0
H984 H 0.29594 0.8154 0.80478 0.0
H985 H 0.22067 0.82589 0.79423 0.0
H986 H 0.18327 0.87213 0.68545 0.0
H987 H 0.19894 0.85767 0.72503 0.0
H988 H 0.2711 0.83445 0.71719 0.0
C989 C 0.28713 0.82805 0.81507 0.0
C990 C 0.23192 0.8271 0.77749 0.0
C991 C 0.29737 0.83614 0.83756 0.0
C992 C 0.19676 0.86 0.68431 0.0
C993 C 0.20562 0.85154 0.70702 0.0
C994 C 0.26002 0.83168 0.73377 0.0
C995 C 0.26598 0.83669 0.80561 0.0
C996 C 0.25624 0.83051 0.78028 0.0
C997 C 0.2239 0.83651 0.70657 0.0
C998 C 0.23538 0.83043 0.73113 0.0
H999 H 0.25717 0.87485 0.85077 0.0
H1000 H 0.23893 0.86035 0.81228 0.0
H1001 H 0.28916 0.83443 0.75979 0.0
H1002 H 0.23036 0.83244 0.64157 0.0
H1003 H 0.24643 0.8178 0.68175 0.0
C1004 C 0.72613 0.86799 0.84647 0.0
C1005 C 0.70142 0.86662 0.84623 0.0
C1006 C 0.73897 0.86691 0.82354 0.0
C1007 C 0.73336 0.85158 0.75438 0.0
H1008 H 0.78953 0.88606 0.74698 0.0
C1009 C 0.77933 0.86728 0.65666 0.0
C1010 C 0.80403 0.86554 0.65624 0.0
C1011 C 0.767 0.86637 0.67992 0.0
C1012 C 0.77398 0.87621 0.74884 0.0
H1013 H 0.6708 0.86318 0.82171 0.0
H1014 H 0.69298 0.86201 0.78182 0.0
H1015 H 0.76775 0.88665 0.78728 0.0
H1016 H 0.83513 0.86141 0.6799 0.0
H1017 H 0.81362 0.86013 0.72049 0.0
H1018 H 0.73936 0.84169 0.71555 0.0
C1019 C 0.70263 0.86331 0.79966 0.0
C1020 C 0.76151 0.87645 0.77201 0.0
C1021 C 0.68985 0.86412 0.82259 0.0
C1022 C 0.81611 0.86276 0.67955 0.0
C1023 C 0.80381 0.86215 0.70282 0.0
C1024 C 0.74568 0.85156 0.73111 0.0
C1025 C 0.7274 0.8647 0.79975 0.0
C1026 C 0.74098 0.86415 0.77515 0.0
C1027 C 0.77913 0.86402 0.70328 0.0
C1028 C 0.76613 0.86387 0.72808 0.0
H1029 H 0.73558 0.86981 0.86439 0.0
H1030 H 0.75801 0.86766 0.82454 0.0
H1031 H 0.71795 0.84156 0.75611 0.0
H1032 H 0.76952 0.86944 0.63902 0.0
H1033 H 0.748 0.868 0.67967 0.0
C1034 C 0.8142 0.13658 0.32326 0.0
C1035 C 0.80238 0.13413 0.34676 0.0
C1036 C 0.80164 0.13724 0.30016 0.0
C1037 C 0.74305 0.12353 0.27213 0.0
H1038 H 0.76515 0.15797 0.21536 0.0
C1039 C 0.68813 0.13672 0.17997 0.0
C1040 C 0.70003 0.13388 0.15656 0.0
C1041 C 0.7006 0.13743 0.20312 0.0
C1042 C 0.75886 0.14817 0.231 0.0
H1043 H 0.76803 0.13099 0.36451 0.0
H1044 H 0.74602 0.13289 0.3244 0.0
H1045 H 0.78651 0.15843 0.25598 0.0
H1046 H 0.73441 0.13001 0.13905 0.0
H1047 H 0.75625 0.13161 0.17952 0.0
H1048 H 0.7151 0.11366 0.24717 0.0
C1049 C 0.76507 0.13368 0.32362 0.0
C1050 C 0.77115 0.14835 0.25431 0.0
C1051 C 0.77767 0.13275 0.3467 0.0
C1052 C 0.72473 0.1322 0.15676 0.0
C1053 C 0.73724 0.1332 0.17991 0.0
C1054 C 0.73062 0.12357 0.24895 0.0
C1055 C 0.77687 0.13573 0.29996 0.0
C1056 C 0.76349 0.13595 0.27521 0.0
C1057 C 0.72528 0.1356 0.20337 0.0
C1058 C 0.73842 0.13582 0.22809 0.0
H1059 H 0.83325 0.13755 0.32263 0.0
H1060 H 0.81146 0.13847 0.28241 0.0
H1061 H 0.73681 0.11341 0.28748 0.0
H1062 H 0.66911 0.13805 0.1805 0.0
H1063 H 0.69091 0.1395 0.22085 0.0
C1064 C 0.70451 0.66198 0.33636 0.0
C1065 C 0.71472 0.64471 0.34928 0.0
C1066 C 0.71486 0.66983 0.3138 0.0
C1067 C 0.77023 0.67033 0.27663 0.0
H1068 H 0.73144 0.66375 0.21589 0.0
C1069 C 0.8062 0.63906 0.18284 0.0
C1070 C 0.79728 0.64587 0.15912 0.0
C1071 C 0.79716 0.64706 0.20571 0.0
C1072 C 0.74242 0.6663 0.23261 0.0
H1073 H 0.74409 0.62281 0.34982 0.0
H1074 H 0.76254 0.6369 0.3112 0.0
H1075 H 0.71308 0.6634 0.25835 0.0
H1076 H 0.77249 0.66705 0.14062 0.0
H1077 H 0.75614 0.6809 0.18105 0.0
H1078 H 0.7997 0.67208 0.25112 0.0
C1079 C 0.74654 0.64431 0.31817 0.0
C1080 C 0.73189 0.66608 0.25693 0.0
C1081 C 0.73594 0.63617 0.34018 0.0
C1082 C 0.77974 0.66162 0.15869 0.0
C1083 C 0.77033 0.66943 0.18177 0.0
C1084 C 0.78071 0.67069 0.2524 0.0
C1085 C 0.73588 0.66088 0.3044 0.0
C1086 C 0.74587 0.66702 0.27917 0.0
C1087 C 0.77873 0.66194 0.20553 0.0
C1088 C 0.76708 0.66754 0.23018 0.0
H1089 H 0.68801 0.66866 0.34297 0.0
H1090 H 0.70627 0.68256 0.30345 0.0
H1091 H 0.78136 0.67136 0.29348 0.0
H1092 H 0.81978 0.62699 0.18374 0.0
H1093 H 0.80382 0.64067 0.22359 0.0
C1094 C 0.73679 0.36114 0.66313 0.0
C1095 C 0.71534 0.35293 0.65423 0.0
C1096 C 0.74741 0.35286 0.68505 0.0
C1097 C 0.7324 0.33142 0.7464 0.0
H1098 H 0.80021 0.32569 0.75256 0.0
C1099 C 0.78 0.33715 0.8447 0.0
C1100 C 0.79732 0.35308 0.84403 0.0
C1101 C 0.77072 0.32898 0.82174 0.0
C1102 C 0.78122 0.32699 0.75118 0.0
H1103 H 0.68827 0.32934 0.66075 0.0
H1104 H 0.7066 0.31515 0.70009 0.0
H1105 H 0.78201 0.32597 0.71012 0.0
H1106 H 0.81958 0.37195 0.81913 0.0
H1107 H 0.80384 0.35766 0.77949 0.0
H1108 H 0.73181 0.33409 0.78741 0.0
C1109 C 0.71535 0.32776 0.68966 0.0
C1110 C 0.77081 0.3271 0.72691 0.0
C1111 C 0.70496 0.33577 0.66719 0.0
C1112 C 0.80615 0.35975 0.82022 0.0
C1113 C 0.79725 0.3514 0.79747 0.0
C1114 C 0.74285 0.33143 0.77077 0.0
C1115 C 0.73655 0.33644 0.69893 0.0
C1116 C 0.74645 0.33036 0.72423 0.0
C1117 C 0.77904 0.3363 0.79787 0.0
C1118 C 0.7675 0.33031 0.77329 0.0
H1119 H 0.74507 0.37442 0.65346 0.0
H1120 H 0.76355 0.36009 0.6919 0.0
H1121 H 0.71359 0.33406 0.74489 0.0
H1122 H 0.77283 0.33181 0.86285 0.0
H1123 H 0.75669 0.31735 0.82262 0.0
C1124 C 0.31319 0.3641 0.68081 0.0
C1125 C 0.30148 0.36665 0.65725 0.0
C1126 C 0.30051 0.36328 0.70382 0.0
C1127 C 0.24173 0.37662 0.73164 0.0
H1128 H 0.26394 0.34207 0.78827 0.0
C1129 C 0.18705 0.36295 0.82398 0.0
C1130 C 0.19905 0.36591 0.84732 0.0
C1131 C 0.19941 0.36232 0.80076 0.0
C1132 C 0.25761 0.35188 0.77266 0.0
H1133 H 0.26723 0.36983 0.6393 0.0
H1134 H 0.24501 0.36765 0.67925 0.0
H1135 H 0.28533 0.3418 0.74768 0.0
H1136 H 0.23348 0.37009 0.86462 0.0
H1137 H 0.25512 0.36861 0.82404 0.0
H1138 H 0.21371 0.38628 0.75662 0.0
C1139 C 0.26405 0.3669 0.68015 0.0
C1140 C 0.26992 0.35183 0.74937 0.0
C1141 C 0.27678 0.36799 0.65716 0.0
C1142 C 0.22373 0.3678 0.84696 0.0
C1143 C 0.23613 0.36687 0.82375 0.0
C1144 C 0.22927 0.37644 0.75481 0.0
C1145 C 0.27574 0.36472 0.70387 0.0
C1146 C 0.26225 0.3643 0.72854 0.0
C1147 C 0.22408 0.36433 0.80037 0.0
C1148 C 0.23713 0.36416 0.77562 0.0
H1149 H 0.33224 0.36317 0.68156 0.0
H1150 H 0.31025 0.36199 0.72161 0.0
H1151 H 0.23547 0.38677 0.71634 0.0
H1152 H 0.16804 0.36147 0.82359 0.0
H1153 H 0.18967 0.36016 0.78308 0.0
C1154 C 0.27705 0.63172 0.34578 0.0
C1155 C 0.30175 0.63312 0.34571 0.0
C1156 C 0.26433 0.63279 0.32279 0.0
C1157 C 0.27004 0.64821 0.25373 0.0
H1158 H 0.21393 0.61365 0.24631 0.0
C1159 C 0.22337 0.6332 0.15617 0.0
C1160 C 0.19865 0.63477 0.15602 0.0
C1161 C 0.2359 0.634 0.17931 0.0
C1162 C 0.22946 0.62353 0.24817 0.0
H1163 H 0.33251 0.63665 0.32142 0.0
H1164 H 0.31051 0.63784 0.28135 0.0
H1165 H 0.23586 0.61289 0.28649 0.0
H1166 H 0.16773 0.63852 0.18005 0.0
H1167 H 0.18959 0.63962 0.22042 0.0
H1168 H 0.26384 0.65833 0.21501 0.0
C1169 C 0.30078 0.63648 0.29914 0.0
C1170 C 0.24202 0.62318 0.27128 0.0
C1171 C 0.31346 0.63567 0.32216 0.0
C1172 C 0.18676 0.63729 0.17949 0.0
C1173 C 0.19926 0.6378 0.20263 0.0
C1174 C 0.25762 0.64834 0.23051 0.0
C1175 C 0.27601 0.63502 0.29909 0.0
C1176 C 0.26249 0.63555 0.27444 0.0
C1177 C 0.22396 0.63607 0.20282 0.0
C1178 C 0.23716 0.63604 0.2275 0.0
H1179 H 0.26749 0.62988 0.36364 0.0
H1180 H 0.24529 0.63202 0.32368 0.0
H1181 H 0.28543 0.65826 0.25549 0.0
H1182 H 0.23305 0.63125 0.13841 0.0
H1183 H 0.25491 0.63248 0.17885 0.0
loop_
_geom_bond_atom_site_label_1
_geom_bond_atom_site_label_2
_geom_bond_distance
_geom_bond_site_symmetry_2
_ccdc_geom_bond_type
Co0 O1 2.216 . S
Co0 O2 2.091 . S
Co0 O4 2.004 . S
Co0 O10 2.021 . S
Co0 O12 2.137 . S
Co0 O13 2.244 . S
O1 Co0 2.216 . S
O1 C8 1.247 . S
O2 Co0 2.091 . S
O2 C8 1.261 . S
C3 O12 1.247 . S
C3 O13 1.272 . S
O4 Co0 2.004 . S
O4 C9 1.259 . S
Co5 O6 2.061 . S
Co5 O11 2.052 . S
Co5 O13 2.135 . S
O6 Co5 2.061 . S
O6 C9 1.235 . S
C7 O10 1.238 . S
C7 O11 1.241 . S
C8 O1 1.247 . S
C8 O2 1.261 . S
C9 O4 1.259 . S
C9 O6 1.235 . S
O10 Co0 2.021 . S
O10 C7 1.238 . S
O11 Co5 2.052 . S
O11 C7 1.241 . S
O12 Co0 2.137 . S
O12 C3 1.247 . S
O13 Co0 2.244 . S
O13 C3 1.272 . S
O13 Co5 2.135 . S
Co14 O15 2.216 . S
Co14 O16 2.091 . S
Co14 O18 2.004 . S
Co14 O24 2.021 . S
Co14 O26 2.137 . S
Co14 O27 2.244 . S
O15 Co14 2.216 . S
O15 C22 1.247 . S
O16 Co14 2.091 . S
O16 C22 1.261 . S
C17 O26 1.247 . S
C17 O27 1.272 . S
O18 Co14 2.004 . S
O18 C23 1.259 . S
Co19 O20 2.061 . S
Co19 O25 2.052 . S
Co19 O27 2.135 . S
O20 Co19 2.061 . S
O20 C23 1.235 . S
C21 O24 1.238 . S
C21 O25 1.241 . S
C22 O15 1.247 . S
C22 O16 1.261 . S
C23 O18 1.259 . S
C23 O20 1.235 . S
O24 Co14 2.021 . S
O24 C21 1.238 . S
O25 Co19 2.052 . S
O25 C21 1.241 . S
O26 Co14 2.137 . S
O26 C17 1.247 . S
O27 Co14 2.244 . S
O27 C17 1.272 . S
O27 Co19 2.135 . S
Co28 O29 2.216 . S
Co28 O30 2.091 . S
Co28 O32 2.004 . S
Co28 O38 2.021 . S
Co28 O40 2.137 . S
Co28 O41 2.244 . S
O29 Co28 2.216 . S
O29 C36 1.247 . S
O30 Co28 2.091 . S
O30 C36 1.261 . S
C31 O40 1.247 . S
C31 O41 1.272 . S
O32 Co28 2.004 . S
O32 C37 1.259 . S
Co33 O34 2.061 . S
Co33 O39 2.052 . S
Co33 O41 2.135 . S
O34 Co33 2.061 . S
O34 C37 1.235 . S
C35 O38 1.238 . S
C35 O39 1.241 . S
C36 O29 1.247 . S
C36 O30 1.261 . S
C37 O32 1.259 . S
C37 O34 1.235 . S
O38 Co28 2.021 . S
O38 C35 1.238 . S
O39 Co33 2.052 . S
O39 C35 1.241 . S
O40 Co28 2.137 . S
O40 C31 1.247 . S
O41 Co28 2.244 . S
O41 C31 1.272 . S
O41 Co33 2.135 . S
Co42 O43 2.216 . S
Co42 O44 2.091 . S
Co42 O46 2.004 . S
Co42 O52 2.021 . S
Co42 O54 2.137 . S
Co42 O55 2.244 . S
O43 Co42 2.216 . S
O43 C50 1.247 . S
O44 Co42 2.091 . S
O44 C50 1.261 . S
C45 O54 1.247 . S
C45 O55 1.272 . S
O46 Co42 2.004 . S
O46 C51 1.259 . S
Co47 O48 2.061 . S
Co47 O53 2.052 . S
Co47 O55 2.135 . S
O48 Co47 2.061 . S
O48 C51 1.235 . S
C49 O52 1.238 . S
C49 O53 1.241 . S
C50 O43 1.247 . S
C50 O44 1.261 . S
C51 O46 1.259 . S
C51 O48 1.235 . S
O52 Co42 2.021 . S
O52 C49 1.238 . S
O53 Co47 2.052 . S
O53 C49 1.241 . S
O54 Co42 2.137 . S
O54 C45 1.247 . S
O55 Co42 2.244 . S
O55 C45 1.272 . S
O55 Co47 2.135 . S
Co56 O57 2.216 . S
Co56 O58 2.091 . S
Co56 O60 2.004 . S
Co56 O66 2.021 . S
Co56 O68 2.137 . S
Co56 O69 2.244 . S
O57 Co56 2.216 . S
O57 C64 1.247 . S
O58 Co56 2.091 . S
O58 C64 1.261 . S
C59 O68 1.247 . S
C59 O69 1.272 . S
O60 Co56 2.004 . S
O60 C65 1.259 . S
Co61 O62 2.061 . S
Co61 O67 2.052 . S
Co61 O69 2.135 . S
O62 Co61 2.061 . S
O62 C65 1.235 . S
C63 O66 1.238 . S
C63 O67 1.241 . S
C64 O57 1.247 . S
C64 O58 1.261 . S
C65 O60 1.259 . S
C65 O62 1.235 . S
O66 Co56 2.021 . S
O66 C63 1.238 . S
O67 Co61 2.052 . S
O67 C63 1.241 . S
O68 Co56 2.137 . S
O68 C59 1.247 . S
O69 Co56 2.244 . S
O69 C59 1.272 . S
O69 Co61 2.135 . S
Co70 O71 2.216 . S
Co70 O72 2.091 . S
Co70 O74 2.004 . S
Co70 O80 2.021 . S
Co70 O82 2.137 . S
Co70 O83 2.244 . S
O71 Co70 2.216 . S
O71 C78 1.247 . S
O72 Co70 2.091 . S
O72 C78 1.261 . S
C73 O82 1.247 . S
C73 O83 1.272 . S
O74 Co70 2.004 . S
O74 C79 1.259 . S
Co75 O76 2.061 . S
Co75 O81 2.052 . S
Co75 O83 2.135 . S
O76 Co75 2.061 . S
O76 C79 1.235 . S
C77 O80 1.238 . S
C77 O81 1.241 . S
C78 O71 1.247 . S
C78 O72 1.261 . S
C79 O74 1.259 . S
C79 O76 1.235 . S
O80 Co70 2.021 . S
O80 C77 1.238 . S
O81 Co75 2.052 . S
O81 C77 1.241 . S
O82 Co70 2.137 . S
O82 C73 1.247 . S
O83 Co70 2.244 . S
O83 C73 1.272 . S
O83 Co75 2.135 . S
Co84 O85 2.216 . S
Co84 O86 2.091 . S
Co84 O88 2.004 . S
Co84 O94 2.021 . S
Co84 O96 2.137 . S
Co84 O97 2.244 . S
O85 Co84 2.216 . S
O85 C92 1.247 . S
O86 Co84 2.091 . S
O86 C92 1.261 . S
C87 O96 1.247 . S
C87 O97 1.272 . S
O88 Co84 2.004 . S
O88 C93 1.259 . S
Co89 O90 2.061 . S
Co89 O95 2.052 . S
Co89 O97 2.135 . S
O90 Co89 2.061 . S
O90 C93 1.235 . S
C91 O94 1.238 . S
C91 O95 1.241 . S
C92 O85 1.247 . S
C92 O86 1.261 . S
C93 O88 1.259 . S
C93 O90 1.235 . S
O94 Co84 2.021 . S
O94 C91 1.238 . S
O95 Co89 2.052 . S
O95 C91 1.241 . S
O96 Co84 2.137 . S
O96 C87 1.247 . S
O97 Co84 2.244 . S
O97 C87 1.272 . S
O97 Co89 2.135 . S
Co98 O99 2.216 . S
Co98 O100 2.091 . S
Co98 O102 2.004 . S
Co98 O108 2.021 . S
Co98 O110 2.137 . S
Co98 O111 2.244 . S
O99 Co98 2.216 . S
O99 C106 1.247 . S
O100 Co98 2.091 . S
O100 C106 1.261 . S
C101 O110 1.247 . S
C101 O111 1.272 . S
O102 Co98 2.004 . S
O102 C107 1.259 . S
Co103 O104 2.061 . S
Co103 O109 2.052 . S
Co103 O111 2.135 . S
O104 Co103 2.061 . S
O104 C107 1.235 . S
C105 O108 1.238 . S
C105 O109 1.241 . S
C106 O99 1.247 . S
C106 O100 1.261 . S
C107 O102 1.259 . S
C107 O104 1.235 . S
O108 Co98 2.021 . S
O108 C105 1.238 . S
O109 Co103 2.052 . S
O109 C105 1.241 . S
O110 Co98 2.137 . S
O110 C101 1.247 . S
O111 Co98 2.244 . S
O111 C101 1.272 . S
O111 Co103 2.135 . S
Co112 O113 2.216 . S
Co112 O114 2.091 . S
Co112 O116 2.004 . S
Co112 O122 2.021 . S
Co112 O124 2.137 . S
Co112 O125 2.244 . S
O113 Co112 2.216 . S
O113 C120 1.247 . S
O114 Co112 2.091 . S
O114 C120 1.261 . S
C115 O124 1.247 . S
C115 O125 1.272 . S
O116 Co112 2.004 . S
O116 C121 1.259 . S
Co117 O118 2.061 . S
Co117 O123 2.052 . S
Co117 O125 2.135 . S
O118 Co117 2.061 . S
O118 C121 1.235 . S
C119 O122 1.238 . S
C119 O123 1.241 . S
C120 O113 1.247 . S
C120 O114 1.261 . S
C121 O116 1.259 . S
C121 O118 1.235 . S
O122 Co112 2.021 . S
O122 C119 1.238 . S
O123 Co117 2.052 . S
O123 C119 1.241 . S
O124 Co112 2.137 . S
O124 C115 1.247 . S
O125 Co112 2.244 . S
O125 C115 1.272 . S
O125 Co117 2.135 . S
Co126 O127 2.216 . S
Co126 O128 2.091 . S
Co126 O130 2.004 . S
Co126 O136 2.021 . S
Co126 O138 2.137 . S
Co126 O139 2.244 . S
O127 Co126 2.216 . S
O127 C134 1.247 . S
O128 Co126 2.091 . S
O128 C134 1.261 . S
C129 O138 1.247 . S
C129 O139 1.272 . S
O130 Co126 2.004 . S
O130 C135 1.259 . S
Co131 O132 2.061 . S
Co131 O137 2.052 . S
Co131 O139 2.135 . S
O132 Co131 2.061 . S
O132 C135 1.235 . S
C133 O136 1.238 . S
C133 O137 1.241 . S
C134 O127 1.247 . S
C134 O128 1.261 . S
C135 O130 1.259 . S
C135 O132 1.235 . S
O136 Co126 2.021 . S
O136 C133 1.238 . S
O137 Co131 2.052 . S
O137 C133 1.241 . S
O138 Co126 2.137 . S
O138 C129 1.247 . S
O139 Co126 2.244 . S
O139 C129 1.272 . S
O139 Co131 2.135 . S
Co140 O141 2.216 . S
Co140 O142 2.091 . S
Co140 O144 2.004 . S
Co140 O150 2.021 . S
Co140 O152 2.137 . S
Co140 O153 2.244 . S
O141 Co140 2.216 . S
O141 C148 1.247 . S
O142 Co140 2.091 . S
O142 C148 1.261 . S
C143 O152 1.247 . S
C143 O153 1.272 . S
O144 Co140 2.004 . S
O144 C149 1.259 . S
Co145 O146 2.061 . S
Co145 O151 2.052 . S
Co145 O153 2.135 . S
O146 Co145 2.061 . S
O146 C149 1.235 . S
C147 O150 1.238 . S
C147 O151 1.241 . S
C148 O141 1.247 . S
C148 O142 1.261 . S
C149 O144 1.259 . S
C149 O146 1.235 . S
O150 Co140 2.021 . S
O150 C147 1.238 . S
O151 Co145 2.052 . S
O151 C147 1.241 . S
O152 Co140 2.137 . S
O152 C143 1.247 . S
O153 Co140 2.244 . S
O153 C143 1.272 . S
O153 Co145 2.135 . S
Co154 O155 2.216 . S
Co154 O156 2.091 . S
Co154 O158 2.004 . S
Co154 O164 2.021 . S
Co154 O166 2.137 . S
Co154 O167 2.244 . S
O155 Co154 2.216 . S
O155 C162 1.247 . S
O156 Co154 2.091 . S
O156 C162 1.261 . S
C157 O166 1.247 . S
C157 O167 1.272 . S
O158 Co154 2.004 . S
O158 C163 1.259 . S
Co159 O160 2.061 . S
Co159 O165 2.052 . S
Co159 O167 2.135 . S
O160 Co159 2.061 . S
O160 C163 1.235 . S
C161 O164 1.238 . S
C161 O165 1.241 . S
C162 O155 1.247 . S
C162 O156 1.261 . S
C163 O158 1.259 . S
C163 O160 1.235 . S
O164 Co154 2.021 . S
O164 C161 1.238 . S
O165 Co159 2.052 . S
O165 C161 1.241 . S
O166 Co154 2.137 . S
O166 C157 1.247 . S
O167 Co154 2.244 . S
O167 C157 1.272 . S
O167 Co159 2.135 . S
Co168 O169 2.216 . S
Co168 O170 2.091 . S
Co168 O172 2.004 . S
Co168 O178 2.021 . S
Co168 O180 2.137 . S
Co168 O181 2.244 . S
O169 Co168 2.216 . S
O169 C176 1.247 . S
O170 Co168 2.091 . S
O170 C176 1.261 . S
C171 O180 1.247 . S
C171 O181 1.272 . S
O172 Co168 2.004 . S
O172 C177 1.259 . S
Co173 O174 2.061 . S
Co173 O179 2.052 . S
Co173 O181 2.135 . S
O174 Co173 2.061 . S
O174 C177 1.235 . S
C175 O178 1.238 . S
C175 O179 1.241 . S
C176 O169 1.247 . S
C176 O170 1.261 . S
C177 O172 1.259 . S
C177 O174 1.235 . S
O178 Co168 2.021 . S
O178 C175 1.238 . S
O179 Co173 2.052 . S
O179 C175 1.241 . S
O180 Co168 2.137 . S
O180 C171 1.247 . S
O181 Co168 2.244 . S
O181 C171 1.272 . S
O181 Co173 2.135 . S
Co182 O183 2.216 . S
Co182 O184 2.091 . S
Co182 O186 2.004 . S
Co182 O192 2.021 . S
Co182 O194 2.137 . S
Co182 O195 2.244 . S
O183 Co182 2.216 . S
O183 C190 1.247 . S
O184 Co182 2.091 . S
O184 C190 1.261 . S
C185 O194 1.247 . S
C185 O195 1.272 . S
O186 Co182 2.004 . S
O186 C191 1.259 . S
Co187 O188 2.061 . S
Co187 O193 2.052 . S
Co187 O195 2.135 . S
O188 Co187 2.061 . S
O188 C191 1.235 . S
C189 O192 1.238 . S
C189 O193 1.241 . S
C190 O183 1.247 . S
C190 O184 1.261 . S
C191 O186 1.259 . S
C191 O188 1.235 . S
O192 Co182 2.021 . S
O192 C189 1.238 . S
O193 Co187 2.052 . S
O193 C189 1.241 . S
O194 Co182 2.137 . S
O194 C185 1.247 . S
O195 Co182 2.244 . S
O195 C185 1.272 . S
O195 Co187 2.135 . S
Co196 O197 2.216 . S
Co196 O198 2.091 . S
Co196 O200 2.004 . S
Co196 O206 2.021 . S
Co196 O208 2.137 . S
Co196 O209 2.244 . S
O197 Co196 2.216 . S
O197 C204 1.247 . S
O198 Co196 2.091 . S
O198 C204 1.261 . S
C199 O208 1.247 . S
C199 O209 1.272 . S
O200 Co196 2.004 . S
O200 C205 1.259 . S
Co201 O202 2.061 . S
Co201 O207 2.052 . S
Co201 O209 2.135 . S
O202 Co201 2.061 . S
O202 C205 1.235 . S
C203 O206 1.238 . S
C203 O207 1.241 . S
C204 O197 1.247 . S
C204 O198 1.261 . S
C205 O200 1.259 . S
C205 O202 1.235 . S
O206 Co196 2.021 . S
O206 C203 1.238 . S
O207 Co201 2.052 . S
O207 C203 1.241 . S
O208 Co196 2.137 . S
O208 C199 1.247 . S
O209 Co196 2.244 . S
O209 C199 1.272 . S
O209 Co201 2.135 . S
Co210 O211 2.216 . S
Co210 O212 2.091 . S
Co210 O214 2.004 . S
Co210 O220 2.021 . S
Co210 O222 2.137 . S
Co210 O223 2.244 . S
O211 Co210 2.216 . S
O211 C218 1.247 . S
O212 Co210 2.091 . S
O212 C218 1.261 . S
C213 O222 1.247 . S
C213 O223 1.272 . S
O214 Co210 2.004 . S
O214 C219 1.259 . S
Co215 O216 2.061 . S
Co215 O221 2.052 . S
Co215 O223 2.135 . S
O216 Co215 2.061 . S
O216 C219 1.235 . S
C217 O220 1.238 . S
C217 O221 1.241 . S
C218 O211 1.247 . S
C218 O212 1.261 . S
C219 O214 1.259 . S
C219 O216 1.235 . S
O220 Co210 2.021 . S
O220 C217 1.238 . S
O221 Co215 2.052 . S
O221 C217 1.241 . S
O222 Co210 2.137 . S
O222 C213 1.247 . S
O223 Co210 2.244 . S
O223 C213 1.272 . S
O223 Co215 2.135 . S
C224 C225 1.349 . S
C224 C226 1.327 . S
C224 H249 0.950 . S
C225 C224 1.349 . S
C225 C241 1.349 . S
C226 C224 1.327 . S
C226 C245 1.429 . S
C226 H250 0.950 . S
C227 C244 1.574 . S
C227 C246 1.368 1_556 S
C227 H251 0.949 . S
H228 C232 0.949 . S
C229 C230 1.349 . S
C229 C231 1.327 . S
C229 H252 0.950 . S
C230 C229 1.349 . S
C230 C242 1.349 . S
C231 C229 1.327 . S
C231 C247 1.429 . S
C231 H253 0.950 . S
C232 H228 0.949 . S
C232 C240 1.574 . S
C232 C248 1.368 1_554 S
H233 C241 0.950 . S
H234 C239 0.950 1_556 S
H235 C240 0.949 . S
H236 C242 0.950 . S
H237 C243 0.950 . S
H238 C244 0.949 . S
C239 H234 0.950 1_554 S
C239 C241 1.327 . S
C239 C245 1.429 . S
C240 C232 1.574 . S
C240 H235 0.949 . S
C240 C246 1.368 . S
C241 C225 1.349 . S
C241 H233 0.950 . S
C241 C239 1.327 . S
C242 C230 1.349 . S
C242 H236 0.950 . S
C242 C243 1.327 . S
C243 H237 0.950 . S
C243 C242 1.327 . S
C243 C247 1.429 . S
C244 C227 1.574 . S
C244 H238 0.949 . S
C244 C248 1.368 . S
C245 C226 1.429 . S
C245 C239 1.429 . S
C245 C246 1.523 . S
C246 C227 1.368 1_554 S
C246 C240 1.368 . S
C246 C245 1.523 . S
C247 C231 1.429 . S
C247 C243 1.429 . S
C247 C248 1.523 . S
C248 C232 1.368 1_556 S
C248 C244 1.368 . S
C248 C247 1.523 . S
H249 C224 0.950 . S
H250 C226 0.950 . S
H251 C227 0.949 . S
H252 C229 0.950 . S
H253 C231 0.950 . S
C254 C255 1.349 . S
C254 C256 1.327 . S
C254 H279 0.950 . S
C255 C254 1.349 . S
C255 C271 1.349 . S
C256 C254 1.327 . S
C256 C275 1.429 . S
C256 H280 0.950 . S
C257 C274 1.574 . S
C257 C276 1.368 . S
C257 H281 0.949 . S
H258 C262 0.949 . S
C259 C260 1.349 . S
C259 C261 1.327 . S
C259 H282 0.950 . S
C260 C259 1.349 . S
C260 C272 1.349 . S
C261 C259 1.327 . S
C261 C277 1.429 . S
C261 H283 0.950 . S
C262 H258 0.949 . S
C262 C270 1.574 . S
C262 C278 1.368 . S
H263 C271 0.950 . S
H264 C269 0.950 . S
H265 C270 0.949 . S
H266 C272 0.950 . S
H267 C273 0.950 . S
H268 C274 0.949 . S
C269 H264 0.950 . S
C269 C271 1.327 . S
C269 C275 1.429 . S
C270 C262 1.574 . S
C270 H265 0.949 . S
C270 C276 1.368 . S
C271 C255 1.349 . S
C271 H263 0.950 . S
C271 C269 1.327 . S
C272 C260 1.349 . S
C272 H266 0.950 . S
C272 C273 1.327 . S
C273 H267 0.950 . S
C273 C272 1.327 . S
C273 C277 1.429 . S
C274 C257 1.574 . S
C274 H268 0.949 . S
C274 C278 1.368 . S
C275 C256 1.429 . S
C275 C269 1.429 . S
C275 C276 1.523 . S
C276 C257 1.368 . S
C276 C270 1.368 . S
C276 C275 1.523 . S
C277 C261 1.429 . S
C277 C273 1.429 . S
C277 C278 1.523 . S
C278 C262 1.368 . S
C278 C274 1.368 . S
C278 C277 1.523 . S
H279 C254 0.950 . S
H280 C256 0.950 . S
H281 C257 0.949 . S
H282 C259 0.950 . S
H283 C261 0.950 . S
C284 C285 1.349 . S
C284 C286 1.327 . S
C284 H309 0.950 . S
C285 C284 1.349 . S
C285 C301 1.349 . S
C286 C284 1.327 . S
C286 C305 1.429 . S
C286 H310 0.950 . S
C287 C304 1.574 . S
C287 C306 1.368 1_554 S
C287 H311 0.949 . S
H288 C292 0.949 1_556 S
C289 C290 1.349 . S
C289 C291 1.327 . S
C289 H312 0.950 . S
C290 C289 1.349 . S
C290 C302 1.349 . S
C291 C289 1.327 . S
C291 C307 1.429 . S
C291 H313 0.950 . S
C292 H288 0.949 1_554 S
C292 C300 1.574 1_554 S
C292 C308 1.368 . S
H293 C301 0.950 . S
H294 C299 0.950 1_554 S
H295 C300 0.949 . S
H296 C302 0.950 . S
H297 C303 0.950 . S
H298 C304 0.949 . S
C299 H294 0.950 1_556 S
C299 C301 1.327 . S
C299 C305 1.429 . S
C300 C292 1.574 1_556 S
C300 H295 0.949 . S
C300 C306 1.368 . S
C301 C285 1.349 . S
C301 H293 0.950 . S
C301 C299 1.327 . S
C302 C290 1.349 . S
C302 H296 0.950 . S
C302 C303 1.327 . S
C303 H297 0.950 . S
C303 C302 1.327 . S
C303 C307 1.429 . S
C304 C287 1.574 . S
C304 H298 0.949 . S
C304 C308 1.368 . S
C305 C286 1.429 . S
C305 C299 1.429 . S
C305 C306 1.523 . S
C306 C287 1.368 1_556 S
C306 C300 1.368 . S
C306 C305 1.523 . S
C307 C291 1.429 . S
C307 C303 1.429 . S
C307 C308 1.523 . S
C308 C292 1.368 . S
C308 C304 1.368 . S
C308 C307 1.523 . S
H309 C284 0.950 . S
H310 C286 0.950 . S
H311 C287 0.949 . S
H312 C289 0.950 . S
H313 C291 0.950 . S
C314 C315 1.349 . S
C314 C316 1.327 . S
C314 H339 0.950 . S
C315 C314 1.349 . S
C315 C331 1.349 . S
C316 C314 1.327 . S
C316 C335 1.429 . S
C316 H340 0.950 . S
C317 C334 1.574 . S
C317 C336 1.368 . S
C317 H341 0.949 . S
H318 C322 0.949 . S
C319 C320 1.349 . S
C319 C321 1.327 . S
C319 H342 0.950 . S
C320 C319 1.349 . S
C320 C332 1.349 . S
C321 C319 1.327 . S
C321 C337 1.429 . S
C321 H343 0.950 . S
C322 H318 0.949 . S
C322 C330 1.574 . S
C322 C338 1.368 . S
H323 C331 0.950 . S
H324 C329 0.950 . S
H325 C330 0.949 . S
H326 C332 0.950 . S
H327 C333 0.950 . S
H328 C334 0.949 . S
C329 H324 0.950 . S
C329 C331 1.327 . S
C329 C335 1.429 . S
C330 C322 1.574 . S
C330 H325 0.949 . S
C330 C336 1.368 . S
C331 C315 1.349 . S
C331 H323 0.950 . S
C331 C329 1.327 . S
C332 C320 1.349 . S
C332 H326 0.950 . S
C332 C333 1.327 . S
C333 H327 0.950 . S
C333 C332 1.327 . S
C333 C337 1.429 . S
C334 C317 1.574 . S
C334 H328 0.949 . S
C334 C338 1.368 . S
C335 C316 1.429 . S
C335 C329 1.429 . S
C335 C336 1.523 . S
C336 C317 1.368 . S
C336 C330 1.368 . S
C336 C335 1.523 . S
C337 C321 1.429 . S
C337 C333 1.429 . S
C337 C338 1.523 . S
C338 C322 1.368 . S
C338 C334 1.368 . S
C338 C337 1.523 . S
H339 C314 0.950 . S
H340 C316 0.950 . S
H341 C317 0.949 . S
H342 C319 0.950 . S
H343 C321 0.950 . S
C344 C345 1.349 . S
C344 C346 1.327 . S
C344 H369 0.950 . S
C345 C344 1.349 . S
C345 C361 1.349 . S
C346 C344 1.327 . S
C346 C365 1.429 . S
C346 H370 0.950 . S
C347 C364 1.574 . S
C347 C366 1.368 1_556 S
C347 H371 0.949 . S
H348 C352 0.952 . S
C349 C350 1.349 . S
C349 C351 1.327 . S
C349 H372 0.950 . S
C350 C349 1.349 . S
C350 C362 1.349 . S
C351 C349 1.327 . S
C351 C367 1.429 . S
C351 H373 0.950 . S
C352 H348 0.952 . S
C352 C360 1.574 1_556 S
C352 C368 1.368 . S
H353 C361 0.950 . S
H354 C359 0.950 1_556 S
H355 C360 0.949 . S
H356 C362 0.950 . S
H357 C363 0.950 . S
H358 C364 0.949 . S
C359 H354 0.950 1_554 S
C359 C361 1.327 . S
C359 C365 1.429 . S
C360 C352 1.574 1_554 S
C360 H355 0.949 . S
C360 C366 1.368 . S
C361 C345 1.349 . S
C361 H353 0.950 . S
C361 C359 1.327 . S
C362 C350 1.349 . S
C362 H356 0.950 . S
C362 C363 1.327 . S
C363 H357 0.950 . S
C363 C362 1.327 . S
C363 C367 1.429 . S
C364 C347 1.574 . S
C364 H358 0.949 . S
C364 C368 1.368 . S
C365 C346 1.429 . S
C365 C359 1.429 . S
C365 C366 1.523 . S
C366 C347 1.368 1_554 S
C366 C360 1.368 . S
C366 C365 1.523 . S
C367 C351 1.429 . S
C367 C363 1.429 . S
C367 C368 1.523 . S
C368 C352 1.368 . S
C368 C364 1.368 . S
C368 C367 1.523 . S
H369 C344 0.950 . S
H370 C346 0.950 . S
H371 C347 0.949 . S
H372 C349 0.950 . S
H373 C351 0.950 . S
C374 C375 1.349 . S
C374 C376 1.327 . S
C374 H399 0.950 . S
C375 C374 1.349 . S
C375 C391 1.349 . S
C376 C374 1.327 . S
C376 C395 1.429 . S
C376 H400 0.950 . S
C377 C394 1.574 . S
C377 C396 1.368 . S
C377 H401 0.949 . S
H378 C382 0.949 . S
C379 C380 1.349 . S
C379 C381 1.327 . S
C379 H402 0.950 . S
C380 C379 1.349 . S
C380 C392 1.349 . S
C381 C379 1.327 . S
C381 C397 1.429 . S
C381 H403 0.950 . S
C382 H378 0.949 . S
C382 C390 1.574 . S
C382 C398 1.368 . S
H383 C391 0.950 . S
H384 C389 0.950 . S
H385 C390 0.949 . S
H386 C392 0.950 . S
H387 C393 0.950 . S
H388 C394 0.949 . S
C389 H384 0.950 . S
C389 C391 1.327 . S
C389 C395 1.429 . S
C390 C382 1.574 . S
C390 H385 0.949 . S
C390 C396 1.368 . S
C391 C375 1.349 . S
C391 H383 0.950 . S
C391 C389 1.327 . S
C392 C380 1.349 . S
C392 H386 0.950 . S
C392 C393 1.327 . S
C393 H387 0.950 . S
C393 C392 1.327 . S
C393 C397 1.429 . S
C394 C377 1.574 . S
C394 H388 0.949 . S
C394 C398 1.368 . S
C395 C376 1.429 . S
C395 C389 1.429 . S
C395 C396 1.523 . S
C396 C377 1.368 . S
C396 C390 1.368 . S
C396 C395 1.523 . S
C397 C381 1.429 . S
C397 C393 1.429 . S
C397 C398 1.523 . S
C398 C382 1.368 . S
C398 C394 1.368 . S
C398 C397 1.523 . S
H399 C374 0.950 . S
H400 C376 0.950 . S
H401 C377 0.949 . S
H402 C379 0.950 . S
H403 C381 0.950 . S
C404 C405 1.349 . S
C404 C406 1.327 . S
C404 H429 0.950 . S
C405 C404 1.349 . S
C405 C421 1.349 . S
C406 C404 1.327 . S
C406 C425 1.429 . S
C406 H430 0.950 . S
C407 C424 1.560 1_556 S
C407 C426 1.370 . S
C407 H431 0.961 . S
H408 C412 0.949 . S
C409 C410 1.349 . S
C409 C411 1.327 . S
C409 H432 0.950 . S
C410 C409 1.349 . S
C410 C422 1.349 . S
C411 C409 1.327 . S
C411 C427 1.429 . S
C411 H433 0.950 . S
C412 H408 0.949 . S
C412 C420 1.574 . S
C412 C428 1.368 . S
H413 C421 0.950 . S
H414 C419 0.950 . S
H415 C420 0.949 . S
H416 C422 0.950 . S
H417 C423 0.950 . S
H418 C424 0.949 . S
C419 H414 0.950 . S
C419 C421 1.327 . S
C419 C425 1.429 . S
C420 C412 1.574 . S
C420 H415 0.949 . S
C420 C426 1.368 1_554 S
C421 C405 1.349 . S
C421 H413 0.950 . S
C421 C419 1.327 . S
C422 C410 1.349 . S
C422 H416 0.950 . S
C422 C423 1.327 . S
C423 H417 0.950 . S
C423 C422 1.327 . S
C423 C427 1.429 . S
C424 C407 1.560 1_554 S
C424 H418 0.949 . S
C424 C428 1.368 . S
C425 C406 1.429 . S
C425 C419 1.429 . S
C425 C426 1.523 . S
C426 C407 1.370 . S
C426 C420 1.368 1_556 S
C426 C425 1.523 . S
C427 C411 1.429 . S
C427 C423 1.429 . S
C427 C428 1.523 . S
C428 C412 1.368 . S
C428 C424 1.368 . S
C428 C427 1.523 . S
H429 C404 0.950 . S
H430 C406 0.950 . S
H431 C407 0.961 . S
H432 C409 0.950 . S
H433 C411 0.950 . S
C434 C435 1.349 . S
C434 C436 1.327 . S
C434 H459 0.950 . S
C435 C434 1.349 . S
C435 C451 1.349 . S
C436 C434 1.327 . S
C436 C455 1.429 . S
C436 H460 0.950 . S
C437 C454 1.574 . S
C437 C456 1.368 . S
C437 H461 0.949 . S
H438 C442 0.949 . S
C439 C440 1.349 . S
C439 C441 1.327 . S
C439 H462 0.950 . S
C440 C439 1.349 . S
C440 C452 1.349 . S
C441 C439 1.327 . S
C441 C457 1.429 . S
C441 H463 0.950 . S
C442 H438 0.949 . S
C442 C450 1.574 . S
C442 C458 1.368 . S
H443 C451 0.950 . S
H444 C449 0.950 . S
H445 C450 0.949 . S
H446 C452 0.950 . S
H447 C453 0.950 . S
H448 C454 0.949 . S
C449 H444 0.950 . S
C449 C451 1.327 . S
C449 C455 1.429 . S
C450 C442 1.574 . S
C450 H445 0.949 . S
C450 C456 1.368 . S
C451 C435 1.349 . S
C451 H443 0.950 . S
C451 C449 1.327 . S
C452 C440 1.349 . S
C452 H446 0.950 . S
C452 C453 1.327 . S
C453 H447 0.950 . S
C453 C452 1.327 . S
C453 C457 1.429 . S
C454 C437 1.574 . S
C454 H448 0.949 . S
C454 C458 1.368 . S
C455 C436 1.429 . S
C455 C449 1.429 . S
C455 C456 1.523 . S
C456 C437 1.368 . S
C456 C450 1.368 . S
C456 C455 1.523 . S
C457 C441 1.429 . S
C457 C453 1.429 . S
C457 C458 1.523 . S
C458 C442 1.368 . S
C458 C454 1.368 . S
C458 C457 1.523 . S
H459 C434 0.950 . S
H460 C436 0.950 . S
H461 C437 0.949 . S
H462 C439 0.950 . S
H463 C441 0.950 . S
C464 C465 1.349 . S
C464 C466 1.327 . S
C464 H489 0.950 . S
C465 C464 1.349 . S
C465 C481 1.349 . S
C466 C464 1.327 . S
C466 C485 1.429 . S
C466 H490 0.950 1_554 S
C467 C484 1.574 1_545 S
C467 C486 1.368 . S
C467 H491 0.949 . S
H468 C472 0.949 . S
C469 C470 1.349 . S
C469 C471 1.327 . S
C469 H492 0.950 . S
C470 C469 1.349 . S
C470 C482 1.349 . S
C471 C469 1.327 . S
C471 C487 1.429 . S
C471 H493 0.950 1_556 S
C472 H468 0.949 . S
C472 C480 1.574 1_565 S
C472 C488 1.368 . S
H473 C481 0.950 . S
H474 C479 0.950 . S
H475 C480 0.949 . S
H476 C482 0.950 . S
H477 C483 0.950 . S
H478 C484 0.949 . S
C479 H474 0.950 . S
C479 C481 1.327 . S
C479 C485 1.429 . S
C480 C472 1.574 1_545 S
C480 H475 0.949 . S
C480 C486 1.368 1_556 S
C481 C465 1.349 . S
C481 H473 0.950 . S
C481 C479 1.327 . S
C482 C470 1.349 . S
C482 H476 0.950 . S
C482 C483 1.327 . S
C483 H477 0.950 . S
C483 C482 1.327 . S
C483 C487 1.429 . S
C484 C467 1.574 1_565 S
C484 H478 0.949 . S
C484 C488 1.368 1_554 S
C485 C466 1.429 . S
C485 C479 1.429 . S
C485 C486 1.523 . S
C486 C467 1.368 . S
C486 C480 1.368 1_554 S
C486 C485 1.523 . S
C487 C471 1.429 . S
C487 C483 1.429 . S
C487 C488 1.523 . S
C488 C472 1.368 . S
C488 C484 1.368 1_556 S
C488 C487 1.523 . S
H489 C464 0.950 . S
H490 C466 0.950 1_556 S
H491 C467 0.949 . S
H492 C469 0.950 . S
H493 C471 0.950 1_554 S
C494 C495 1.349 . S
C494 C496 1.327 . S
C494 H519 0.950 . S
C495 C494 1.349 . S
C495 C511 1.349 . S
C496 C494 1.327 . S
C496 C515 1.429 . S
C496 H520 0.950 . S
C497 C514 1.574 1_565 S
C497 C516 1.368 . S
C497 H521 0.949 . S
H498 C502 0.949 . S
C499 C500 1.349 . S
C499 C501 1.327 . S
C499 H522 0.950 . S
C500 C499 1.349 . S
C500 C512 1.349 . S
C501 C499 1.327 . S
C501 C517 1.429 . S
C501 H523 0.950 . S
C502 H498 0.949 . S
C502 C510 1.574 1_545 S
C502 C518 1.368 . S
H503 C511 0.950 . S
H504 C509 0.950 . S
H505 C510 0.949 . S
H506 C512 0.950 . S
H507 C513 0.950 . S
H508 C514 0.949 . S
C509 H504 0.950 . S
C509 C511 1.327 . S
C509 C515 1.429 . S
C510 C502 1.574 1_565 S
C510 H505 0.949 . S
C510 C516 1.368 . S
C511 C495 1.349 . S
C511 H503 0.950 . S
C511 C509 1.327 . S
C512 C500 1.349 . S
C512 H506 0.950 . S
C512 C513 1.327 . S
C513 H507 0.950 . S
C513 C512 1.327 . S
C513 C517 1.429 . S
C514 C497 1.574 1_545 S
C514 H508 0.949 . S
C514 C518 1.368 . S
C515 C496 1.429 . S
C515 C509 1.429 . S
C515 C516 1.523 . S
C516 C497 1.368 . S
C516 C510 1.368 . S
C516 C515 1.523 . S
C517 C501 1.429 . S
C517 C513 1.429 . S
C517 C518 1.523 . S
C518 C502 1.368 . S
C518 C514 1.368 . S
C518 C517 1.523 . S
H519 C494 0.950 . S
H520 C496 0.950 . S
H521 C497 0.949 . S
H522 C499 0.950 . S
H523 C501 0.950 . S
C524 C525 1.349 . S
C524 C526 1.327 . S
C524 H549 0.950 . S
C525 C524 1.349 . S
C525 C541 1.349 . S
C526 C524 1.327 . S
C526 C545 1.429 . S
C526 H550 0.950 . S
C527 C544 1.531 1_565 S
C527 C546 1.408 . S
C527 H551 0.954 . S
H528 C532 0.954 . S
C529 C530 1.349 . S
C529 C531 1.327 . S
C529 H552 0.950 . S
C530 C529 1.349 . S
C530 C542 1.349 . S
C531 C529 1.327 . S
C531 C547 1.429 . S
C531 H553 0.950 . S
C532 H528 0.954 . S
C532 C540 1.531 1_545 S
C532 C548 1.408 . S
H533 C541 0.950 . S
H534 C539 0.950 . S
H535 C540 0.949 . S
H536 C542 0.950 . S
H537 C543 0.950 . S
H538 C544 0.949 . S
C539 H534 0.950 . S
C539 C541 1.327 . S
C539 C545 1.429 . S
C540 C532 1.531 1_565 S
C540 H535 0.949 . S
C540 C546 1.368 1_554 S
C541 C525 1.349 . S
C541 H533 0.950 . S
C541 C539 1.327 . S
C542 C530 1.349 . S
C542 H536 0.950 . S
C542 C543 1.327 . S
C543 H537 0.950 . S
C543 C542 1.327 . S
C543 C547 1.429 . S
C544 C527 1.531 1_545 S
C544 H538 0.949 . S
C544 C548 1.368 1_556 S
C545 C526 1.429 . S
C545 C539 1.429 . S
C545 C546 1.523 . S
C546 C527 1.408 . S
C546 C540 1.368 1_556 S
C546 C545 1.523 . S
C547 C531 1.429 . S
C547 C543 1.429 . S
C547 C548 1.523 . S
C548 C532 1.408 . S
C548 C544 1.368 1_554 S
C548 C547 1.523 . S
H549 C524 0.950 . S
H550 C526 0.950 . S
H551 C527 0.954 . S
H552 C529 0.950 . S
H553 C531 0.950 . S
C554 C555 1.349 . S
C554 C556 1.327 . S
C554 H579 0.950 . S
C555 C554 1.349 . S
C555 C571 1.349 . S
C556 C554 1.327 . S
C556 C575 1.429 . S
C556 H580 0.950 . S
C557 C574 1.574 1_545 S
C557 C576 1.368 . S
C557 H581 0.949 . S
H558 C562 0.949 . S
C559 C560 1.349 . S
C559 C561 1.327 . S
C559 H582 0.950 . S
C560 C559 1.349 . S
C560 C572 1.349 . S
C561 C559 1.327 . S
C561 C577 1.429 . S
C561 H583 0.950 . S
C562 H558 0.949 . S
C562 C570 1.574 1_565 S
C562 C578 1.368 . S
H563 C571 0.950 . S
H564 C569 0.950 . S
H565 C570 0.949 . S
H566 C572 0.950 . S
H567 C573 0.950 . S
H568 C574 0.949 . S
C569 H564 0.950 . S
C569 C571 1.327 . S
C569 C575 1.429 . S
C570 C562 1.574 1_545 S
C570 H565 0.949 . S
C570 C576 1.368 . S
C571 C555 1.349 . S
C571 H563 0.950 . S
C571 C569 1.327 . S
C572 C560 1.349 . S
C572 H566 0.950 . S
C572 C573 1.327 . S
C573 H567 0.950 . S
C573 C572 1.327 . S
C573 C577 1.429 . S
C574 C557 1.574 1_565 S
C574 H568 0.949 . S
C574 C578 1.368 . S
C575 C556 1.429 . S
C575 C569 1.429 . S
C575 C576 1.523 . S
C576 C557 1.368 . S
C576 C570 1.368 . S
C576 C575 1.523 . S
C577 C561 1.429 . S
C577 C573 1.429 . S
C577 C578 1.523 . S
C578 C562 1.368 . S
C578 C574 1.368 . S
C578 C577 1.523 . S
H579 C554 0.950 . S
H580 C556 0.950 . S
H581 C557 0.949 . S
H582 C559 0.950 . S
H583 C561 0.950 . S
C584 C585 1.349 . S
C584 C586 1.327 . S
C584 H609 0.950 . S
C585 C584 1.349 . S
C585 C601 1.349 . S
C586 C584 1.327 . S
C586 C605 1.429 . S
C586 H610 0.950 . S
C587 C604 1.574 . S
C587 C606 1.368 . S
C587 H611 0.949 . S
H588 C592 0.949 . S
C589 C590 1.349 . S
C589 C591 1.327 . S
C589 H612 0.950 . S
C590 C589 1.349 . S
C590 C602 1.349 . S
C591 C589 1.327 . S
C591 C607 1.429 . S
C591 H613 0.950 . S
C592 H588 0.949 . S
C592 C600 1.574 . S
C592 C608 1.368 . S
H593 C601 0.950 . S
H594 C599 0.950 . S
H595 C600 0.949 . S
H596 C602 0.950 . S
H597 C603 0.950 . S
H598 C604 0.949 . S
C599 H594 0.950 . S
C599 C601 1.327 . S
C599 C605 1.429 . S
C600 C592 1.574 . S
C600 H595 0.949 . S
C600 C606 1.368 1_554 S
C601 C585 1.349 . S
C601 H593 0.950 . S
C601 C599 1.327 . S
C602 C590 1.349 . S
C602 H596 0.950 . S
C602 C603 1.327 . S
C603 H597 0.950 . S
C603 C602 1.327 . S
C603 C607 1.429 . S
C604 C587 1.574 . S
C604 H598 0.949 . S
C604 C608 1.368 1_556 S
C605 C586 1.429 . S
C605 C599 1.429 . S
C605 C606 1.523 . S
C606 C587 1.368 . S
C606 C600 1.368 1_556 S
C606 C605 1.523 . S
C607 C591 1.429 . S
C607 C603 1.429 . S
C607 C608 1.523 . S
C608 C592 1.368 . S
C608 C604 1.368 1_554 S
C608 C607 1.523 . S
H609 C584 0.950 . S
H610 C586 0.950 . S
H611 C587 0.949 . S
H612 C589 0.950 . S
H613 C591 0.950 . S
C614 C615 1.349 . S
C614 C616 1.327 . S
C614 H639 0.950 . S
C615 C614 1.349 . S
C615 C631 1.349 . S
C616 C614 1.327 . S
C616 C635 1.429 . S
C616 H640 0.950 . S
C617 C634 1.574 . S
C617 C636 1.368 . S
C617 H641 0.949 . S
H618 C622 0.949 . S
C619 C620 1.349 . S
C619 C621 1.327 . S
C619 H642 0.950 . S
C620 C619 1.349 . S
C620 C632 1.349 . S
C621 C619 1.327 . S
C621 C637 1.429 . S
C621 H643 0.950 . S
C622 H618 0.949 . S
C622 C630 1.574 . S
C622 C638 1.368 . S
H623 C631 0.950 . S
H624 C629 0.950 . S
H625 C630 0.949 . S
H626 C632 0.950 . S
H627 C633 0.950 . S
H628 C634 0.949 . S
C629 H624 0.950 . S
C629 C631 1.327 . S
C629 C635 1.429 . S
C630 C622 1.574 . S
C630 H625 0.949 . S
C630 C636 1.368 . S
C631 C615 1.349 . S
C631 H623 0.950 . S
C631 C629 1.327 . S
C632 C620 1.349 . S
C632 H626 0.950 . S
C632 C633 1.327 . S
C633 H627 0.950 . S
C633 C632 1.327 . S
C633 C637 1.429 . S
C634 C617 1.574 . S
C634 H628 0.949 . S
C634 C638 1.368 . S
C635 C616 1.429 . S
C635 C629 1.429 . S
C635 C636 1.523 . S
C636 C617 1.368 . S
C636 C630 1.368 . S
C636 C635 1.523 . S
C637 C621 1.429 . S
C637 C633 1.429 . S
C637 C638 1.523 . S
C638 C622 1.368 . S
C638 C634 1.368 . S
C638 C637 1.523 . S
H639 C614 0.950 . S
H640 C616 0.950 . S
H641 C617 0.949 . S
H642 C619 0.950 . S
H643 C621 0.950 . S
C644 C645 1.349 . S
C644 C646 1.327 . S
C644 H669 0.950 . S
C645 C644 1.349 . S
C645 C661 1.349 . S
C646 C644 1.327 . S
C646 C665 1.429 . S
C646 H670 0.950 . S
C647 C664 1.574 . S
C647 C666 1.368 1_556 S
C647 H671 0.949 . S
H648 C652 0.949 . S
C649 C650 1.349 . S
C649 C651 1.327 . S
C649 H672 0.950 . S
C650 C649 1.349 . S
C650 C662 1.349 . S
C651 C649 1.327 . S
C651 C667 1.429 . S
C651 H673 0.950 . S
C652 H648 0.949 . S
C652 C660 1.574 . S
C652 C668 1.368 1_554 S
H653 C661 0.950 . S
H654 C659 0.950 . S
H655 C660 0.949 . S
H656 C662 0.950 . S
H657 C663 0.950 . S
H658 C664 0.949 . S
C659 H654 0.950 . S
C659 C661 1.327 . S
C659 C665 1.429 . S
C660 C652 1.574 . S
C660 H655 0.949 . S
C660 C666 1.368 . S
C661 C645 1.349 . S
C661 H653 0.950 . S
C661 C659 1.327 . S
C662 C650 1.349 . S
C662 H656 0.950 . S
C662 C663 1.327 . S
C663 H657 0.950 . S
C663 C662 1.327 . S
C663 C667 1.429 . S
C664 C647 1.574 . S
C664 H658 0.949 . S
C664 C668 1.368 . S
C665 C646 1.429 . S
C665 C659 1.429 . S
C665 C666 1.523 . S
C666 C647 1.368 1_554 S
C666 C660 1.368 . S
C666 C665 1.523 . S
C667 C651 1.429 . S
C667 C663 1.429 . S
C667 C668 1.523 . S
C668 C652 1.368 1_556 S
C668 C664 1.368 . S
C668 C667 1.523 . S
H669 C644 0.950 . S
H670 C646 0.950 . S
H671 C647 0.949 . S
H672 C649 0.950 . S
H673 C651 0.950 . S
C674 C675 1.349 . S
C674 C676 1.327 . S
C674 H699 0.950 . S
C675 C674 1.349 . S
C675 C691 1.349 . S
C676 C674 1.327 . S
C676 C695 1.429 . S
C676 H700 0.950 . S
C677 C694 1.574 . S
C677 C696 1.368 . S
C677 H701 0.949 . S
H678 C682 0.949 . S
C679 C680 1.349 . S
C679 C681 1.327 . S
C679 H702 0.950 . S
C680 C679 1.349 . S
C680 C692 1.349 . S
C681 C679 1.327 . S
C681 C697 1.429 . S
C681 H703 0.950 . S
C682 H678 0.949 . S
C682 C690 1.574 . S
C682 C698 1.368 . S
H683 C691 0.950 . S
H684 C689 0.950 . S
H685 C690 0.949 . S
H686 C692 0.950 . S
H687 C693 0.950 . S
H688 C694 0.949 . S
C689 H684 0.950 . S
C689 C691 1.327 . S
C689 C695 1.429 . S
C690 C682 1.574 . S
C690 H685 0.949 . S
C690 C696 1.368 . S
C691 C675 1.349 . S
C691 H683 0.950 . S
C691 C689 1.327 . S
C692 C680 1.349 . S
C692 H686 0.950 . S
C692 C693 1.327 . S
C693 H687 0.950 . S
C693 C692 1.327 . S
C693 C697 1.429 . S
C694 C677 1.574 . S
C694 H688 0.949 . S
C694 C698 1.368 . S
C695 C676 1.429 . S
C695 C689 1.429 . S
C695 C696 1.523 . S
C696 C677 1.368 . S
C696 C690 1.368 . S
C696 C695 1.523 . S
C697 C681 1.429 . S
C697 C693 1.429 . S
C697 C698 1.523 . S
C698 C682 1.368 . S
C698 C694 1.368 . S
C698 C697 1.523 . S
H699 C674 0.950 . S
H700 C676 0.950 . S
H701 C677 0.949 . S
H702 C679 0.950 . S
H703 C681 0.950 . S
C704 C705 1.349 . S
C704 C706 1.327 . S
C704 H729 0.950 . S
C705 C704 1.349 . S
C705 C721 1.349 . S
C706 C704 1.327 . S
C706 C725 1.429 . S
C706 H730 0.950 . S
C707 C724 1.574 . S
C707 C726 1.368 . S
C707 H731 0.949 . S
H708 C712 0.949 . S
C709 C710 1.349 . S
C709 C711 1.327 . S
C709 H732 0.950 . S
C710 C709 1.349 . S
C710 C722 1.349 . S
C711 C709 1.327 . S
C711 C727 1.429 . S
C711 H733 0.950 . S
C712 H708 0.949 . S
C712 C720 1.574 . S
C712 C728 1.368 . S
H713 C721 0.950 . S
H714 C719 0.950 . S
H715 C720 0.949 . S
H716 C722 0.950 . S
H717 C723 0.950 . S
H718 C724 0.949 . S
C719 H714 0.950 . S
C719 C721 1.327 . S
C719 C725 1.429 . S
C720 C712 1.574 . S
C720 H715 0.949 . S
C720 C726 1.368 . S
C721 C705 1.349 . S
C721 H713 0.950 . S
C721 C719 1.327 . S
C722 C710 1.349 . S
C722 H716 0.950 . S
C722 C723 1.327 . S
C723 H717 0.950 . S
C723 C722 1.327 . S
C723 C727 1.429 . S
C724 C707 1.574 . S
C724 H718 0.949 . S
C724 C728 1.368 . S
C725 C706 1.429 . S
C725 C719 1.429 . S
C725 C726 1.523 . S
C726 C707 1.368 . S
C726 C720 1.368 . S
C726 C725 1.523 . S
C727 C711 1.429 . S
C727 C723 1.429 . S
C727 C728 1.523 . S
C728 C712 1.368 . S
C728 C724 1.368 . S
C728 C727 1.523 . S
H729 C704 0.950 . S
H730 C706 0.950 . S
H731 C707 0.949 . S
H732 C709 0.950 . S
H733 C711 0.950 . S
C734 C735 1.349 . S
C734 C736 1.327 . S
C734 H759 0.950 . S
C735 C734 1.349 . S
C735 C751 1.349 . S
C736 C734 1.327 . S
C736 C755 1.429 . S
C736 H760 0.950 . S
C737 C754 1.574 . S
C737 C756 1.368 . S
C737 H761 0.949 . S
H738 C742 0.949 . S
C739 C740 1.349 . S
C739 C741 1.327 . S
C739 H762 0.950 . S
C740 C739 1.349 . S
C740 C752 1.349 . S
C741 C739 1.327 . S
C741 C757 1.429 . S
C741 H763 0.950 . S
C742 H738 0.949 . S
C742 C750 1.574 . S
C742 C758 1.368 . S
H743 C751 0.950 . S
H744 C749 0.950 . S
H745 C750 0.949 . S
H746 C752 0.950 . S
H747 C753 0.950 . S
H748 C754 0.949 . S
C749 H744 0.950 . S
C749 C751 1.327 . S
C749 C755 1.429 . S
C750 C742 1.574 . S
C750 H745 0.949 . S
C750 C756 1.368 . S
C751 C735 1.349 . S
C751 H743 0.950 . S
C751 C749 1.327 . S
C752 C740 1.349 . S
C752 H746 0.950 . S
C752 C753 1.327 . S
C753 H747 0.950 . S
C753 C752 1.327 . S
C753 C757 1.429 . S
C754 C737 1.574 . S
C754 H748 0.949 . S
C754 C758 1.368 . S
C755 C736 1.429 . S
C755 C749 1.429 . S
C755 C756 1.523 1_655 S
C756 C737 1.368 . S
C756 C750 1.368 . S
C756 C755 1.523 1_455 S
C757 C741 1.429 . S
C757 C753 1.429 . S
C757 C758 1.523 . S
C758 C742 1.368 . S
C758 C754 1.368 . S
C758 C757 1.523 . S
H759 C734 0.950 . S
H760 C736 0.950 . S
H761 C737 0.949 . S
H762 C739 0.950 . S
H763 C741 0.950 . S
C764 C765 1.349 . S
C764 C766 1.327 . S
C764 H789 0.950 . S
C765 C764 1.349 . S
C765 C781 1.349 . S
C766 C764 1.327 . S
C766 C785 1.429 . S
C766 H790 0.950 . S
C767 C784 1.574 . S
C767 C786 1.368 . S
C767 H791 0.949 . S
H768 C772 0.949 . S
C769 C770 1.349 . S
C769 C771 1.327 . S
C769 H792 0.950 . S
C770 C769 1.349 . S
C770 C782 1.349 . S
C771 C769 1.327 . S
C771 C787 1.429 . S
C771 H793 0.950 . S
C772 H768 0.949 . S
C772 C780 1.574 . S
C772 C788 1.368 . S
H773 C781 0.950 . S
H774 C779 0.950 . S
H775 C780 0.949 . S
H776 C782 0.950 . S
H777 C783 0.950 . S
H778 C784 0.949 . S
C779 H774 0.950 . S
C779 C781 1.327 . S
C779 C785 1.429 . S
C780 C772 1.574 . S
C780 H775 0.949 . S
C780 C786 1.368 . S
C781 C765 1.349 . S
C781 H773 0.950 . S
C781 C779 1.327 . S
C782 C770 1.349 . S
C782 H776 0.950 . S
C782 C783 1.327 . S
C783 H777 0.950 . S
C783 C782 1.327 . S
C783 C787 1.429 . S
C784 C767 1.574 . S
C784 H778 0.949 . S
C784 C788 1.368 . S
C785 C766 1.429 . S
C785 C779 1.429 . S
C785 C786 1.523 . S
C786 C767 1.368 . S
C786 C780 1.368 . S
C786 C785 1.523 . S
C787 C771 1.429 . S
C787 C783 1.429 . S
C787 C788 1.523 . S
C788 C772 1.368 . S
C788 C784 1.368 . S
C788 C787 1.523 . S
H789 C764 0.950 . S
H790 C766 0.950 . S
H791 C767 0.949 . S
H792 C769 0.950 . S
H793 C771 0.950 . S
C794 C795 1.349 . S
C794 C796 1.327 . S
C794 H819 0.950 . S
C795 C794 1.349 . S
C795 C811 1.349 . S
C796 C794 1.327 . S
C796 C815 1.429 . S
C796 H820 0.950 . S
C797 C814 1.574 . S
C797 C816 1.368 . S
C797 H821 0.949 . S
H798 C802 0.949 . S
C799 C800 1.349 . S
C799 C801 1.327 . S
C799 H822 0.950 . S
C800 C799 1.349 . S
C800 C812 1.349 . S
C801 C799 1.327 . S
C801 C817 1.429 . S
C801 H823 0.950 . S
C802 H798 0.949 . S
C802 C810 1.574 . S
C802 C818 1.368 . S
H803 C811 0.950 . S
H804 C809 0.950 . S
H805 C810 0.949 . S
H806 C812 0.950 . S
H807 C813 0.950 . S
H808 C814 0.949 . S
C809 H804 0.950 . S
C809 C811 1.327 . S
C809 C815 1.429 . S
C810 C802 1.574 . S
C810 H805 0.949 . S
C810 C816 1.368 . S
C811 C795 1.349 . S
C811 H803 0.950 . S
C811 C809 1.327 . S
C812 C800 1.349 . S
C812 H806 0.950 . S
C812 C813 1.327 . S
C813 H807 0.950 . S
C813 C812 1.327 . S
C813 C817 1.429 . S
C814 C797 1.574 . S
C814 H808 0.949 . S
C814 C818 1.368 . S
C815 C796 1.429 . S
C815 C809 1.429 . S
C815 C816 1.523 . S
C816 C797 1.368 . S
C816 C810 1.368 . S
C816 C815 1.523 . S
C817 C801 1.429 . S
C817 C813 1.429 . S
C817 C818 1.523 1_655 S
C818 C802 1.368 . S
C818 C814 1.368 . S
C818 C817 1.523 1_455 S
H819 C794 0.950 . S
H820 C796 0.950 . S
H821 C797 0.949 . S
H822 C799 0.950 . S
H823 C801 0.950 . S
C824 C825 1.349 . S
C824 C826 1.327 . S
C824 H849 0.950 . S
C825 C824 1.349 . S
C825 C841 1.349 . S
C826 C824 1.327 . S
C826 C845 1.429 . S
C826 H850 0.950 . S
C827 C844 1.574 . S
C827 C846 1.368 . S
C827 H851 0.949 . S
H828 C832 0.949 . S
C829 C830 1.349 . S
C829 C831 1.327 . S
C829 H852 0.950 . S
C830 C829 1.349 . S
C830 C842 1.349 . S
C831 C829 1.327 . S
C831 C847 1.429 . S
C831 H853 0.950 . S
C832 H828 0.949 . S
C832 C840 1.574 . S
C832 C848 1.368 . S
H833 C841 0.950 . S
H834 C839 0.950 . S
H835 C840 0.949 . S
H836 C842 0.950 . S
H837 C843 0.950 . S
H838 C844 0.949 . S
C839 H834 0.950 . S
C839 C841 1.327 . S
C839 C845 1.429 . S
C840 C832 1.574 . S
C840 H835 0.949 . S
C840 C846 1.368 . S
C841 C825 1.349 . S
C841 H833 0.950 . S
C841 C839 1.327 . S
C842 C830 1.349 . S
C842 H836 0.950 . S
C842 C843 1.327 . S
C843 H837 0.950 . S
C843 C842 1.327 . S
C843 C847 1.429 . S
C844 C827 1.574 . S
C844 H838 0.949 . S
C844 C848 1.368 . S
C845 C826 1.429 . S
C845 C839 1.429 . S
C845 C846 1.523 1_455 S
C846 C827 1.368 . S
C846 C840 1.368 . S
C846 C845 1.523 1_655 S
C847 C831 1.429 . S
C847 C843 1.429 . S
C847 C848 1.523 . S
C848 C832 1.368 . S
C848 C844 1.368 . S
C848 C847 1.523 . S
H849 C824 0.950 . S
H850 C826 0.950 . S
H851 C827 0.949 . S
H852 C829 0.950 . S
H853 C831 0.950 . S
C854 C855 1.349 . S
C854 C856 1.327 . S
C854 H879 0.950 . S
C855 C854 1.349 . S
C855 C871 1.349 . S
C856 C854 1.327 . S
C856 C875 1.429 . S
C856 H880 0.950 . S
C857 C874 1.574 . S
C857 C876 1.368 . S
C857 H881 0.949 . S
H858 C862 0.949 . S
C859 C860 1.349 . S
C859 C861 1.327 . S
C859 H882 0.950 . S
C860 C859 1.349 . S
C860 C872 1.349 . S
C861 C859 1.327 . S
C861 C877 1.429 . S
C861 H883 0.950 . S
C862 H858 0.949 . S
C862 C870 1.574 . S
C862 C878 1.368 . S
H863 C871 0.950 . S
H864 C869 0.950 . S
H865 C870 0.949 . S
H866 C872 0.950 . S
H867 C873 0.950 . S
H868 C874 0.949 . S
C869 H864 0.950 . S
C869 C871 1.327 . S
C869 C875 1.429 . S
C870 C862 1.574 . S
C870 H865 0.949 . S
C870 C876 1.368 . S
C871 C855 1.349 . S
C871 H863 0.950 . S
C871 C869 1.327 . S
C872 C860 1.349 . S
C872 H866 0.950 . S
C872 C873 1.327 . S
C873 H867 0.950 . S
C873 C872 1.327 . S
C873 C877 1.429 . S
C874 C857 1.574 . S
C874 H868 0.949 . S
C874 C878 1.368 . S
C875 C856 1.429 . S
C875 C869 1.429 . S
C875 C876 1.523 . S
C876 C857 1.368 . S
C876 C870 1.368 . S
C876 C875 1.523 . S
C877 C861 1.429 . S
C877 C873 1.429 . S
C877 C878 1.523 . S
C878 C862 1.368 . S
C878 C874 1.368 . S
C878 C877 1.523 . S
H879 C854 0.950 . S
H880 C856 0.950 . S
H881 C857 0.949 . S
H882 C859 0.950 . S
H883 C861 0.950 . S
C884 C885 1.349 . S
C884 C886 1.327 . S
C884 H909 0.950 . S
C885 C884 1.349 . S
C885 C901 1.349 . S
C886 C884 1.327 . S
C886 C905 1.429 . S
C886 H910 0.950 . S
C887 C904 1.574 . S
C887 C906 1.368 . S
C887 H911 0.949 . S
H888 C892 0.949 . S
C889 C890 1.349 . S
C889 C891 1.327 . S
C889 H912 0.950 . S
C890 C889 1.349 . S
C890 C902 1.349 . S
C891 C889 1.327 . S
C891 C907 1.429 . S
C891 H913 0.950 . S
C892 H888 0.949 . S
C892 C900 1.574 . S
C892 C908 1.368 . S
H893 C901 0.950 . S
H894 C899 0.950 . S
H895 C900 0.949 . S
H896 C902 0.950 . S
H897 C903 0.950 . S
H898 C904 0.949 . S
C899 H894 0.950 . S
C899 C901 1.327 . S
C899 C905 1.429 . S
C900 C892 1.574 . S
C900 H895 0.949 . S
C900 C906 1.368 . S
C901 C885 1.349 . S
C901 H893 0.950 . S
C901 C899 1.327 . S
C902 C890 1.349 . S
C902 H896 0.950 . S
C902 C903 1.327 . S
C903 H897 0.950 . S
C903 C902 1.327 . S
C903 C907 1.429 . S
C904 C887 1.574 . S
C904 H898 0.949 . S
C904 C908 1.368 . S
C905 C886 1.429 . S
C905 C899 1.429 . S
C905 C906 1.523 1_455 S
C906 C887 1.368 . S
C906 C900 1.368 . S
C906 C905 1.523 1_655 S
C907 C891 1.429 . S
C907 C903 1.429 . S
C907 C908 1.523 . S
C908 C892 1.368 . S
C908 C904 1.368 . S
C908 C907 1.523 . S
H909 C884 0.950 . S
H910 C886 0.950 . S
H911 C887 0.949 . S
H912 C889 0.950 . S
H913 C891 0.950 . S
C914 C915 1.349 . S
C914 C916 1.327 . S
C914 H939 0.950 . S
C915 C914 1.349 . S
C915 C931 1.349 . S
C916 C914 1.327 . S
C916 C935 1.429 . S
C916 H940 0.950 . S
C917 C934 1.574 . S
C917 C936 1.368 . S
C917 H941 0.949 . S
H918 C922 0.949 . S
C919 C920 1.349 . S
C919 C921 1.327 . S
C919 H942 0.950 . S
C920 C919 1.349 . S
C920 C932 1.349 . S
C921 C919 1.327 . S
C921 C937 1.429 . S
C921 H943 0.950 . S
C922 H918 0.949 . S
C922 C930 1.574 . S
C922 C938 1.368 . S
H923 C931 0.950 . S
H924 C929 0.950 . S
H925 C930 0.949 . S
H926 C932 0.950 . S
H927 C933 0.950 . S
H928 C934 0.949 . S
C929 H924 0.950 . S
C929 C931 1.327 . S
C929 C935 1.429 . S
C930 C922 1.574 . S
C930 H925 0.949 . S
C930 C936 1.368 . S
C931 C915 1.349 . S
C931 H923 0.950 . S
C931 C929 1.327 . S
C932 C920 1.349 . S
C932 H926 0.950 . S
C932 C933 1.327 . S
C933 H927 0.950 . S
C933 C932 1.327 . S
C933 C937 1.429 . S
C934 C917 1.574 . S
C934 H928 0.949 . S
C934 C938 1.368 . S
C935 C916 1.429 . S
C935 C929 1.429 . S
C935 C936 1.523 . S
C936 C917 1.368 . S
C936 C930 1.368 . S
C936 C935 1.523 . S
C937 C921 1.429 . S
C937 C933 1.429 . S
C937 C938 1.523 . S
C938 C922 1.368 . S
C938 C934 1.368 . S
C938 C937 1.523 . S
H939 C914 0.950 . S
H940 C916 0.950 . S
H941 C917 0.949 . S
H942 C919 0.950 . S
H943 C921 0.950 . S
C944 C945 1.349 . S
C944 C946 1.327 . S
C944 H969 0.950 . S
C945 C944 1.349 . S
C945 C961 1.349 . S
C946 C944 1.327 . S
C946 C965 1.429 . S
C946 H970 0.950 . S
C947 C964 1.574 . S
C947 C966 1.368 . S
C947 H971 0.949 . S
H948 C952 0.949 . S
C949 C950 1.349 . S
C949 C951 1.327 . S
C949 H972 0.950 . S
C950 C949 1.349 . S
C950 C962 1.349 . S
C951 C949 1.327 . S
C951 C967 1.429 . S
C951 H973 0.950 . S
C952 H948 0.949 . S
C952 C960 1.574 . S
C952 C968 1.368 . S
H953 C961 0.950 . S
H954 C959 0.950 . S
H955 C960 0.949 . S
H956 C962 0.950 . S
H957 C963 0.950 . S
H958 C964 0.949 . S
C959 H954 0.950 . S
C959 C961 1.327 . S
C959 C965 1.429 . S
C960 C952 1.574 . S
C960 H955 0.949 . S
C960 C966 1.368 . S
C961 C945 1.349 . S
C961 H953 0.950 . S
C961 C959 1.327 . S
C962 C950 1.349 . S
C962 H956 0.950 . S
C962 C963 1.327 . S
C963 H957 0.950 . S
C963 C962 1.327 . S
C963 C967 1.429 . S
C964 C947 1.574 . S
C964 H958 0.949 . S
C964 C968 1.368 . S
C965 C946 1.429 . S
C965 C959 1.429 . S
C965 C966 1.523 . S
C966 C947 1.368 . S
C966 C960 1.368 . S
C966 C965 1.523 . S
C967 C951 1.429 . S
C967 C963 1.429 . S
C967 C968 1.523 . S
C968 C952 1.368 . S
C968 C964 1.368 . S
C968 C967 1.523 . S
H969 C944 0.950 . S
H970 C946 0.950 . S
H971 C947 0.949 . S
H972 C949 0.950 . S
H973 C951 0.950 . S
C974 C975 1.349 . S
C974 C976 1.327 . S
C974 H999 0.950 . S
C975 C974 1.349 . S
C975 C991 1.349 . S
C976 C974 1.327 . S
C976 C995 1.429 . S
C976 H1000 0.950 . S
C977 C994 1.574 . S
C977 C996 1.368 . S
C977 H1001 0.949 . S
H978 C982 0.949 . S
C979 C980 1.349 . S
C979 C981 1.327 . S
C979 H1002 0.950 . S
C980 C979 1.349 . S
C980 C992 1.349 . S
C981 C979 1.327 . S
C981 C997 1.429 . S
C981 H1003 0.950 . S
C982 H978 0.949 . S
C982 C990 1.574 . S
C982 C998 1.368 . S
H983 C991 0.950 . S
H984 C989 0.950 . S
H985 C990 0.949 . S
H986 C992 0.950 . S
H987 C993 0.950 . S
H988 C994 0.949 . S
C989 H984 0.950 . S
C989 C991 1.327 . S
C989 C995 1.429 . S
C990 C982 1.574 . S
C990 H985 0.949 . S
C990 C996 1.368 . S
C991 C975 1.349 . S
C991 H983 0.950 . S
C991 C989 1.327 . S
C992 C980 1.349 . S
C992 H986 0.950 . S
C992 C993 1.327 . S
C993 H987 0.950 . S
C993 C992 1.327 . S
C993 C997 1.429 . S
C994 C977 1.574 . S
C994 H988 0.949 . S
C994 C998 1.368 . S
C995 C976 1.429 . S
C995 C989 1.429 . S
C995 C996 1.523 . S
C996 C977 1.368 . S
C996 C990 1.368 . S
C996 C995 1.523 . S
C997 C981 1.429 . S
C997 C993 1.429 . S
C997 C998 1.523 . S
C998 C982 1.368 . S
C998 C994 1.368 . S
C998 C997 1.523 . S
H999 C974 0.950 . S
H1000 C976 0.950 . S
H1001 C977 0.949 . S
H1002 C979 0.950 . S
H1003 C981 0.950 . S
C1004 C1005 1.349 . S
C1004 C1006 1.327 . S
C1004 H1029 0.950 . S
C1005 C1004 1.349 . S
C1005 C1021 1.349 . S
C1006 C1004 1.327 . S
C1006 C1025 1.429 . S
C1006 H1030 0.950 . S
C1007 C1024 1.574 . S
C1007 C1026 1.368 . S
C1007 H1031 0.949 . S
H1008 C1012 0.949 . S
C1009 C1010 1.349 . S
C1009 C1011 1.327 . S
C1009 H1032 0.950 . S
C1010 C1009 1.349 . S
C1010 C1022 1.349 . S
C1011 C1009 1.327 . S
C1011 C1027 1.429 . S
C1011 H1033 0.950 . S
C1012 H1008 0.949 . S
C1012 C1020 1.574 . S
C1012 C1028 1.368 . S
H1013 C1021 0.950 . S
H1014 C1019 0.950 . S
H1015 C1020 0.949 . S
H1016 C1022 0.950 . S
H1017 C1023 0.950 . S
H1018 C1024 0.949 . S
C1019 H1014 0.950 . S
C1019 C1021 1.327 . S
C1019 C1025 1.429 . S
C1020 C1012 1.574 . S
C1020 H1015 0.949 . S
C1020 C1026 1.368 . S
C1021 C1005 1.349 . S
C1021 H1013 0.950 . S
C1021 C1019 1.327 . S
C1022 C1010 1.349 . S
C1022 H1016 0.950 . S
C1022 C1023 1.327 . S
C1023 H1017 0.950 . S
C1023 C1022 1.327 . S
C1023 C1027 1.429 . S
C1024 C1007 1.574 . S
C1024 H1018 0.949 . S
C1024 C1028 1.368 . S
C1025 C1006 1.429 . S
C1025 C1019 1.429 . S
C1025 C1026 1.523 . S
C1026 C1007 1.368 . S
C1026 C1020 1.368 . S
C1026 C1025 1.523 . S
C1027 C1011 1.429 . S
C1027 C1023 1.429 . S
C1027 C1028 1.523 . S
C1028 C1012 1.368 . S
C1028 C1024 1.368 . S
C1028 C1027 1.523 . S
H1029 C1004 0.950 . S
H1030 C1006 0.950 . S
H1031 C1007 0.949 . S
H1032 C1009 0.950 . S
H1033 C1011 0.950 . S
C1034 C1035 1.349 . S
C1034 C1036 1.327 . S
C1034 H1059 0.950 . S
C1035 C1034 1.349 . S
C1035 C1051 1.349 . S
C1036 C1034 1.327 . S
C1036 C1055 1.429 . S
C1036 H1060 0.950 . S
C1037 C1054 1.574 . S
C1037 C1056 1.368 . S
C1037 H1061 0.949 . S
H1038 C1042 0.949 . S
C1039 C1040 1.349 . S
C1039 C1041 1.327 . S
C1039 H1062 0.950 . S
C1040 C1039 1.349 . S
C1040 C1052 1.349 . S
C1041 C1039 1.327 . S
C1041 C1057 1.429 . S
C1041 H1063 0.950 . S
C1042 H1038 0.949 . S
C1042 C1050 1.574 . S
C1042 C1058 1.368 . S
H1043 C1051 0.950 . S
H1044 C1049 0.950 . S
H1045 C1050 0.949 . S
H1046 C1052 0.950 . S
H1047 C1053 0.950 . S
H1048 C1054 0.949 . S
C1049 H1044 0.950 . S
C1049 C1051 1.327 . S
C1049 C1055 1.429 . S
C1050 C1042 1.574 . S
C1050 H1045 0.949 . S
C1050 C1056 1.368 . S
C1051 C1035 1.349 . S
C1051 H1043 0.950 . S
C1051 C1049 1.327 . S
C1052 C1040 1.349 . S
C1052 H1046 0.950 . S
C1052 C1053 1.327 . S
C1053 H1047 0.950 . S
C1053 C1052 1.327 . S
C1053 C1057 1.429 . S
C1054 C1037 1.574 . S
C1054 H1048 0.949 . S
C1054 C1058 1.368 . S
C1055 C1036 1.429 . S
C1055 C1049 1.429 . S
C1055 C1056 1.523 . S
C1056 C1037 1.368 . S
C1056 C1050 1.368 . S
C1056 C1055 1.523 . S
C1057 C1041 1.429 . S
C1057 C1053 1.429 . S
C1057 C1058 1.523 . S
C1058 C1042 1.368 . S
C1058 C1054 1.368 . S
C1058 C1057 1.523 . S
H1059 C1034 0.950 . S
H1060 C1036 0.950 . S
H1061 C1037 0.949 . S
H1062 C1039 0.950 . S
H1063 C1041 0.950 . S
C1064 C1065 1.349 . S
C1064 C1066 1.327 . S
C1064 H1089 0.950 . S
C1065 C1064 1.349 . S
C1065 C1081 1.349 . S
C1066 C1064 1.327 . S
C1066 C1085 1.429 . S
C1066 H1090 0.950 . S
C1067 C1084 1.574 . S
C1067 C1086 1.368 . S
C1067 H1091 0.949 . S
H1068 C1072 0.949 . S
C1069 C1070 1.349 . S
C1069 C1071 1.327 . S
C1069 H1092 0.950 . S
C1070 C1069 1.349 . S
C1070 C1082 1.349 . S
C1071 C1069 1.327 . S
C1071 C1087 1.429 . S
C1071 H1093 0.950 . S
C1072 H1068 0.949 . S
C1072 C1080 1.574 . S
C1072 C1088 1.368 . S
H1073 C1081 0.950 . S
H1074 C1079 0.950 . S
H1075 C1080 0.949 . S
H1076 C1082 0.950 . S
H1077 C1083 0.950 . S
H1078 C1084 0.949 . S
C1079 H1074 0.950 . S
C1079 C1081 1.327 . S
C1079 C1085 1.429 . S
C1080 C1072 1.574 . S
C1080 H1075 0.949 . S
C1080 C1086 1.368 . S
C1081 C1065 1.349 . S
C1081 H1073 0.950 . S
C1081 C1079 1.327 . S
C1082 C1070 1.349 . S
C1082 H1076 0.950 . S
C1082 C1083 1.327 . S
C1083 H1077 0.950 . S
C1083 C1082 1.327 . S
C1083 C1087 1.429 . S
C1084 C1067 1.574 . S
C1084 H1078 0.949 . S
C1084 C1088 1.368 . S
C1085 C1066 1.429 . S
C1085 C1079 1.429 . S
C1085 C1086 1.523 . S
C1086 C1067 1.368 . S
C1086 C1080 1.368 . S
C1086 C1085 1.523 . S
C1087 C1071 1.429 . S
C1087 C1083 1.429 . S
C1087 C1088 1.523 . S
C1088 C1072 1.368 . S
C1088 C1084 1.368 . S
C1088 C1087 1.523 . S
H1089 C1064 0.950 . S
H1090 C1066 0.950 . S
H1091 C1067 0.949 . S
H1092 C1069 0.950 . S
H1093 C1071 0.950 . S
C1094 C1095 1.349 . S
C1094 C1096 1.327 . S
C1094 H1119 0.950 . S
C1095 C1094 1.349 . S
C1095 C1111 1.349 . S
C1096 C1094 1.327 . S
C1096 C1115 1.429 . S
C1096 H1120 0.950 . S
C1097 C1114 1.574 . S
C1097 C1116 1.368 . S
C1097 H1121 0.949 . S
H1098 C1102 0.949 . S
C1099 C1100 1.349 . S
C1099 C1101 1.327 . S
C1099 H1122 0.950 . S
C1100 C1099 1.349 . S
C1100 C1112 1.349 . S
C1101 C1099 1.327 . S
C1101 C1117 1.429 . S
C1101 H1123 0.950 . S
C1102 H1098 0.949 . S
C1102 C1110 1.574 . S
C1102 C1118 1.368 . S
H1103 C1111 0.950 . S
H1104 C1109 0.950 . S
H1105 C1110 0.949 . S
H1106 C1112 0.950 . S
H1107 C1113 0.950 . S
H1108 C1114 0.949 . S
C1109 H1104 0.950 . S
C1109 C1111 1.327 . S
C1109 C1115 1.429 . S
C1110 C1102 1.574 . S
C1110 H1105 0.949 . S
C1110 C1116 1.368 . S
C1111 C1095 1.349 . S
C1111 H1103 0.950 . S
C1111 C1109 1.327 . S
C1112 C1100 1.349 . S
C1112 H1106 0.950 . S
C1112 C1113 1.327 . S
C1113 H1107 0.950 . S
C1113 C1112 1.327 . S
C1113 C1117 1.429 . S
C1114 C1097 1.574 . S
C1114 H1108 0.949 . S
C1114 C1118 1.368 . S
C1115 C1096 1.429 . S
C1115 C1109 1.429 . S
C1115 C1116 1.523 . S
C1116 C1097 1.368 . S
C1116 C1110 1.368 . S
C1116 C1115 1.523 . S
C1117 C1101 1.429 . S
C1117 C1113 1.429 . S
C1117 C1118 1.523 . S
C1118 C1102 1.368 . S
C1118 C1114 1.368 . S
C1118 C1117 1.523 . S
H1119 C1094 0.950 . S
H1120 C1096 0.950 . S
H1121 C1097 0.949 . S
H1122 C1099 0.950 . S
H1123 C1101 0.950 . S
C1124 C1125 1.349 . S
C1124 C1126 1.327 . S
C1124 H1149 0.950 . S
C1125 C1124 1.349 . S
C1125 C1141 1.349 . S
C1126 C1124 1.327 . S
C1126 C1145 1.429 . S
C1126 H1150 0.950 . S
C1127 C1144 1.574 . S
C1127 C1146 1.368 . S
C1127 H1151 0.949 . S
H1128 C1132 0.949 . S
C1129 C1130 1.349 . S
C1129 C1131 1.327 . S
C1129 H1152 0.950 . S
C1130 C1129 1.349 . S
C1130 C1142 1.349 . S
C1131 C1129 1.327 . S
C1131 C1147 1.429 . S
C1131 H1153 0.950 . S
C1132 H1128 0.949 . S
C1132 C1140 1.574 . S
C1132 C1148 1.368 . S
H1133 C1141 0.950 . S
H1134 C1139 0.950 . S
H1135 C1140 0.949 . S
H1136 C1142 0.950 . S
H1137 C1143 0.950 . S
H1138 C1144 0.949 . S
C1139 H1134 0.950 . S
C1139 C1141 1.327 . S
C1139 C1145 1.429 . S
C1140 C1132 1.574 . S
C1140 H1135 0.949 . S
C1140 C1146 1.368 . S
C1141 C1125 1.349 . S
C1141 H1133 0.950 . S
C1141 C1139 1.327 . S
C1142 C1130 1.349 . S
C1142 H1136 0.950 . S
C1142 C1143 1.327 . S
C1143 H1137 0.950 . S
C1143 C1142 1.327 . S
C1143 C1147 1.429 . S
C1144 C1127 1.574 . S
C1144 H1138 0.949 . S
C1144 C1148 1.368 . S
C1145 C1126 1.429 . S
C1145 C1139 1.429 . S
C1145 C1146 1.523 . S
C1146 C1127 1.368 . S
C1146 C1140 1.368 . S
C1146 C1145 1.523 . S
C1147 C1131 1.429 . S
C1147 C1143 1.429 . S
C1147 C1148 1.523 . S
C1148 C1132 1.368 . S
C1148 C1144 1.368 . S
C1148 C1147 1.523 . S
H1149 C1124 0.950 . S
H1150 C1126 0.950 . S
H1151 C1127 0.949 . S
H1152 C1129 0.950 . S
H1153 C1131 0.950 . S
C1154 C1155 1.349 . S
C1154 C1156 1.327 . S
C1154 H1179 0.950 . S
C1155 C1154 1.349 . S
C1155 C1171 1.349 . S
C1156 C1154 1.327 . S
C1156 C1175 1.429 . S
C1156 H1180 0.950 . S
C1157 C1174 1.574 . S
C1157 C1176 1.368 . S
C1157 H1181 0.949 . S
H1158 C1162 0.949 . S
C1159 C1160 1.349 . S
C1159 C1161 1.327 . S
C1159 H1182 0.950 . S
C1160 C1159 1.349 . S
C1160 C1172 1.349 . S
C1161 C1159 1.327 . S
C1161 C1177 1.429 . S
C1161 H1183 0.950 . S
C1162 H1158 0.949 . S
C1162 C1170 1.574 . S
C1162 C1178 1.368 . S
H1163 C1171 0.950 . S
H1164 C1169 0.950 . S
H1165 C1170 0.949 . S
H1166 C1172 0.950 . S
H1167 C1173 0.950 . S
H1168 C1174 0.949 . S
C1169 H1164 0.950 . S
C1169 C1171 1.327 . S
C1169 C1175 1.429 . S
C1170 C1162 1.574 . S
C1170 H1165 0.949 . S
C1170 C1176 1.368 . S
C1171 C1155 1.349 . S
C1171 H1163 0.950 . S
C1171 C1169 1.327 . S
C1172 C1160 1.349 . S
C1172 H1166 0.950 . S
C1172 C1173 1.327 . S
C1173 H1167 0.950 . S
C1173 C1172 1.327 . S
C1173 C1177 1.429 . S
C1174 C1157 1.574 . S
C1174 H1168 0.949 . S
C1174 C1178 1.368 . S
C1175 C1156 1.429 . S
C1175 C1169 1.429 . S
C1175 C1176 1.523 . S
C1176 C1157 1.368 . S
C1176 C1170 1.368 . S
C1176 C1175 1.523 . S
C1177 C1161 1.429 . S
C1177 C1173 1.429 . S
C1177 C1178 1.523 . S
C1178 C1162 1.368 . S
C1178 C1174 1.368 . S
C1178 C1177 1.523 . S
H1179 C1154 0.950 . S
H1180 C1156 0.950 . S
H1181 C1157 0.949 . S
H1182 C1159 0.950 . S
H1183 C1161 0.950 . S
C225 C8 1.491 . S
C230 C175 1.464 . S
C255 C189 1.464 . S
C260 C22 1.491 . S
C285 C36 1.491 . S
C290 C203 1.464 . S
C315 C217 1.464 . S
C320 C50 1.491 . S
C345 C120 1.491 . S
C350 C63 1.464 . S
C375 C77 1.464 . S
C380 C134 1.491 . S
C405 C148 1.491 . S
C410 C91 1.464 . S
C435 C105 1.464 . S
C440 C162 1.491 . S
C465 C3 1.512 . S
C470 C31 1.512 . S
C495 C17 1.512 . S
C500 C45 1.512 . S
C525 C59 1.538 . S
C530 C87 1.538 . S
C555 C73 1.538 . S
C560 C101 1.538 . S
C585 C143 1.512 . S
C590 C115 1.512 . S
C615 C129 1.512 . S
C620 C157 1.512 . S
C645 C199 1.538 . S
C650 C171 1.538 . S
C675 C185 1.538 . S
C680 C213 1.538 . S
C705 C93 1.515 . S
C710 C9 1.523 . S
C735 C107 1.515 . S
C740 C23 1.523 . S
C765 C37 1.523 . S
C770 C65 1.515 . S
C795 C51 1.523 . S
C800 C79 1.515 . S
C825 C205 1.515 . S
C830 C121 1.523 . S
C855 C135 1.523 . S
C860 C219 1.515 . S
C885 C177 1.515 . S
C890 C149 1.523 . S
C915 C163 1.523 . S
C920 C191 1.515 . S
C945 C7 1.208 . S
C950 C49 1.208 . S
C975 C35 1.208 . S
C980 C21 1.208 . S
C1005 C64 1.662 . S
C1010 C106 1.662 . S
C1035 C78 1.662 . S
C1040 C92 1.662 . S
C1065 C161 1.208 . S
C1070 C119 1.208 . S
C1095 C133 1.208 . S
C1100 C147 1.208 . S
C1125 C218 1.662 . S
C1130 C176 1.662 . S
C1155 C190 1.662 . S
C1160 C204 1.662 . S
