# Generated by pormake.
# Topology sod, (4)-cn, num edge types: 1
# Building blocks:
#     Node 0, Type 0, BuildingBlock: AZAVOO_clean_sbu_0, # of connection points: 4
#     Node 1, Type 0, BuildingBlock: AZAVOO_clean_sbu_0, # of connection points: 4
#     Node 2, Type 0, BuildingBlock: AZAVOO_clean_sbu_0, # of connection points: 4
#     Node 3, Type 0, BuildingBlock: AZAVOO_clean_sbu_0, # of connection points: 4
#     Node 4, Type 0, BuildingBlock: AZAVOO_clean_sbu_0, # of connection points: 4
#     Node 5, Type 0, BuildingBlock: AZAVOO_clean_sbu_0, # of connection points: 4
#     Node 6, Type 0, BuildingBlock: AZAVOO_clean_sbu_0, # of connection points: 4
#     Node 7, Type 0, BuildingBlock: AZAVOO_clean_sbu_0, # of connection points: 4
#     Node 8, Type 0, BuildingBlock: AZAVOO_clean_sbu_0, # of connection points: 4
#     Node 9, Type 0, BuildingBlock: AZAVOO_clean_sbu_0, # of connection points: 4
#     Node 10, Type 0, BuildingBlock: AZAVOO_clean_sbu_0, # of connection points: 4
#     Node 11, Type 0, BuildingBlock: AZAVOO_clean_sbu_0, # of connection points: 4
#     Edge 12, Type (0, 0), BuildingBlock: AJUNOK_clean_linker_0, # of connection points: 2
#     Edge 13, Type (0, 0), BuildingBlock: AJUNOK_clean_linker_0, # of connection points: 2
#     Edge 14, Type (0, 0), BuildingBlock: AJUNOK_clean_linker_0, # of connection points: 2
#     Edge 15, Type (0, 0), BuildingBlock: AJUNOK_clean_linker_0, # of connection points: 2
#     Edge 16, Type (0, 0), BuildingBlock: AJUNOK_clean_linker_0, # of connection points: 2
#     Edge 17, Type (0, 0), BuildingBlock: AJUNOK_clean_linker_0, # of connection points: 2
#     Edge 18, Type (0, 0), BuildingBlock: AJUNOK_clean_linker_0, # of connection points: 2
#     Edge 19, Type (0, 0), BuildingBlock: AJUNOK_clean_linker_0, # of connection points: 2
#     Edge 20, Type (0, 0), BuildingBlock: AJUNOK_clean_linker_0, # of connection points: 2
#     Edge 21, Type (0, 0), BuildingBlock: AJUNOK_clean_linker_0, # of connection points: 2
#     Edge 22, Type (0, 0), BuildingBlock: AJUNOK_clean_linker_0, # of connection points: 2
#     Edge 23, Type (0, 0), BuildingBlock: AJUNOK_clean_linker_0, # of connection points: 2
#     Edge 24, Type (0, 0), BuildingBlock: AJUNOK_clean_linker_0, # of connection points: 2
#     Edge 25, Type (0, 0), BuildingBlock: AJUNOK_clean_linker_0, # of connection points: 2
#     Edge 26, Type (0, 0), BuildingBlock: AJUNOK_clean_linker_0, # of connection points: 2
#     Edge 27, Type (0, 0), BuildingBlock: AJUNOK_clean_linker_0, # of connection points: 2
#     Edge 28, Type (0, 0), BuildingBlock: AJUNOK_clean_linker_0, # of connection points: 2
#     Edge 29, Type (0, 0), BuildingBlock: AJUNOK_clean_linker_0, # of connection points: 2
#     Edge 30, Type (0, 0), BuildingBlock: AJUNOK_clean_linker_0, # of connection points: 2
#     Edge 31, Type (0, 0), BuildingBlock: AJUNOK_clean_linker_0, # of connection points: 2
#     Edge 32, Type (0, 0), BuildingBlock: AJUNOK_clean_linker_0, # of connection points: 2
#     Edge 33, Type (0, 0), BuildingBlock: AJUNOK_clean_linker_0, # of connection points: 2
#     Edge 34, Type (0, 0), BuildingBlock: AJUNOK_clean_linker_0, # of connection points: 2
#     Edge 35, Type (0, 0), BuildingBlock: AJUNOK_clean_linker_0, # of connection points: 2
# Relax obj value: 0.126
# Max RMSD: 0.159
# Mean RMSD: 0.153
data_MOF--net-sod--node1-AZAVOO_clean_sbu_0--edge1-AJUNOK_clean_linker_0
_symmetry_space_group_name_H-M    P1
_symmetry_Int_Tables_number       1
_symmetry_cell_setting            triclinic
loop_
_symmetry_equiv_pos_as_xyz
'x, y, z'
_cell_length_a     30.494335
_cell_length_b     31.12926
_cell_length_c     32.107094
_cell_angle_alpha  89.526336
_cell_angle_beta   94.255697
_cell_angle_gamma 97.012747
loop_
_atom_site_label
_atom_site_type_symbol
_atom_site_fract_x
_atom_site_fract_y
_atom_site_fract_z
_atom_type_partial_charge
Mg0 Mg 0.01944 0.27679 0.52829 0.0
O1 O 0.95384 0.23098 0.5187 0.0
O2 O 0.90133 0.27454 0.50576 0.0
Mg3 Mg 0.92903 0.34534 0.51459 0.0
C4 C 0.91358 0.23681 0.50858 0.0
C5 C 0.08601 0.21042 0.55158 0.0
O6 O 0.08017 0.22452 0.58897 0.0
O7 O 0.01628 0.29398 0.45835 0.0
O8 O 0.96596 0.34077 0.45632 0.0
O9 O 0.01682 0.28703 0.59855 0.0
O10 O 0.98674 0.3249 0.54893 0.0
C11 C 0.99467 0.32179 0.43893 0.0
C12 C 0.99688 0.32022 0.58779 0.0
O13 O 0.06279 0.22318 0.52038 0.0
Mg14 Mg 0.75263 0.98187 0.49236 0.0
O15 O 0.78925 0.05015 0.48597 0.0
O16 O 0.73814 0.09562 0.47694 0.0
Mg17 Mg 0.66938 0.05693 0.47562 0.0
C18 C 0.77854 0.08835 0.48104 0.0
C19 C 0.84809 0.95446 0.49173 0.0
O20 O 0.84279 0.96705 0.45272 0.0
O21 O 0.73724 -0.00083 0.55819 0.0
O22 O 0.68397 0.04181 0.545 0.0
O23 O 0.74668 0.97113 0.42306 0.0
O24 O 0.69706 -0.00139 0.4578 0.0
C25 C 0.70872 0.0221 0.57063 0.0
C26 C 0.70949 0.9873 0.42257 0.0
O27 O 0.81728 0.95737 0.51578 0.0
Mg28 Mg 0.06354 0.79576 0.54417 0.0
O29 O 0.12873 0.84087 0.53862 0.0
O30 O 0.18314 0.79871 0.54603 0.0
Mg31 Mg 0.15526 0.72959 0.5605 0.0
C32 C 0.16968 0.83548 0.53888 0.0
C33 C 0.99192 0.85476 0.54361 0.0
O34 O 0.9896 0.8329 0.57868 0.0
O35 O 0.06921 0.76723 0.47922 0.0
O36 O 0.12283 0.72506 0.49418 0.0
O37 O 0.06539 0.80226 0.61438 0.0
O38 O 0.09611 0.75335 0.58148 0.0
C39 C 0.09426 0.73972 0.46852 0.0
C40 C 0.08729 0.76919 0.61622 0.0
O41 O 0.0212 0.84744 0.51921 0.0
Mg42 Mg 0.32829 0.08921 0.53063 0.0
O43 O 0.29267 0.02047 0.52256 0.0
O44 O 0.34102 0.97709 0.5044 0.0
Mg45 Mg 0.40835 0.01766 0.5007 0.0
C46 C 0.3021 0.98308 0.51322 0.0
C47 C 0.25038 0.13882 0.53233 0.0
O48 O 0.27422 0.1557 0.50253 0.0
O49 O 0.35988 0.06897 0.5945 0.0
O50 O 0.40873 0.02889 0.57059 0.0
O51 O 0.31793 0.10139 0.4614 0.0
O52 O 0.37681 0.07645 0.49158 0.0
C53 C 0.39174 0.04575 0.60075 0.0
C54 C 0.35576 0.08762 0.45801 0.0
O55 O 0.26555 0.10998 0.55567 0.0
Mg56 Mg 0.488 0.02006 0.2397 0.0
O57 O 0.55121 0.00829 0.27915 0.0
O58 O 0.60116 0.9899 0.23736 0.0
Mg59 Mg 0.56926 0.9895 0.17074 0.0
C60 C 0.5896 -0.00219 0.27362 0.0
C61 C 0.42214 0.05126 0.29892 0.0
O62 O 0.39377 0.03641 0.26805 0.0
O63 O 0.52284 0.08471 0.21901 0.0
O64 O 0.56982 0.06343 0.17551 0.0
O65 O 0.4609 0.95032 0.24413 0.0
O66 O 0.50329 0.97823 0.19502 0.0
C67 C 0.55297 0.09332 0.1936 0.0
C68 C 0.48285 0.94473 0.21204 0.0
O69 O 0.46322 0.05049 0.29547 0.0
Mg70 Mg 0.09776 0.52113 0.30746 0.0
O71 O 0.03722 0.52456 0.26203 0.0
O72 O 0.97498 0.51636 0.29517 0.0
Mg73 Mg 0.99677 0.50539 0.36374 0.0
C74 C 0.99519 0.52296 0.26189 0.0
C75 C 0.17076 0.52417 0.24615 0.0
O76 O 0.17828 0.49021 0.26893 0.0
O77 O 0.09066 0.58876 0.33096 0.0
O78 O 0.03049 0.57566 0.36704 0.0
O79 O 0.0931 0.44928 0.29984 0.0
O80 O 0.05864 0.4825 0.34616 0.0
C81 C 0.06247 0.60155 0.3541 0.0
C82 C 0.06583 0.44702 0.32897 0.0
O83 O 0.14117 0.54667 0.25633 0.0
Mg84 Mg 0.58848 0.02329 0.80538 0.0
O85 O 0.52589 0.02261 0.76169 0.0
O86 O 0.46579 0.02126 0.79761 0.0
Mg87 Mg 0.49089 0.01682 0.8663 0.0
C88 C 0.48419 0.02284 0.76315 0.0
C89 C 0.65988 0.01988 0.74206 0.0
O90 O 0.66935 0.98858 0.7676 0.0
O91 O 0.58352 0.09364 0.82179 0.0
O92 O 0.52584 0.0862 0.86146 0.0
O93 O 0.58347 0.95107 0.80612 0.0
O94 O 0.5513 0.9901 0.84954 0.0
C95 C 0.5571 0.10973 0.84467 0.0
C96 C 0.55801 0.95262 0.83641 0.0
O97 O 0.62955 0.04229 0.75062 0.0
Mg98 Mg 1.00033 0.53554 0.73924 0.0
O99 O 0.06122 0.52082 0.78087 0.0
O100 O 0.11466 0.50974 0.73974 0.0
Mg101 Mg 0.08819 0.51747 0.67211 0.0
C102 C 0.1005 0.51235 0.77593 0.0
C103 C 0.93418 0.5326 0.80688 0.0
O104 O 0.92238 0.49519 0.7882 0.0
O105 O 0.03464 0.60373 0.72824 0.0
O106 O 0.08599 0.58941 0.68581 0.0
O107 O 0.97589 0.46454 0.73216 0.0
O108 O 0.02016 0.50224 0.69025 0.0
C109 C 0.067 0.61612 0.70612 0.0
C110 C 0.99853 0.46585 0.69961 0.0
O111 O 0.96702 0.55745 0.79483 0.0
Mg112 Mg 0.25781 0.48522 -0.00369 0.0
O113 O 0.29755 0.55205 -0.00953 0.0
O114 O 0.24964 0.6006 0.98155 0.0
Mg115 Mg 0.1794 0.56505 0.97961 0.0
C116 C 0.2893 0.59109 0.98602 0.0
C117 C 0.35402 0.46027 -0.00289 0.0
O118 O 0.35211 0.48164 0.96171 0.0
O119 O 0.24365 0.50361 0.06213 0.0
O120 O 0.19353 0.54976 0.04909 0.0
O121 O 0.25174 0.47483 0.92713 0.0
O122 O 0.20364 0.50489 0.96171 0.0
C123 C 0.21718 0.52881 0.0746 0.0
C124 C 0.21568 0.49296 0.92651 0.0
O125 O 0.3208 0.45717 0.01916 0.0
Mg126 Mg 0.56345 0.29117 0.03689 0.0
O127 O 0.63007 0.33547 0.04038 0.0
O128 O 0.68257 0.29131 0.04396 0.0
Mg129 Mg 0.65227 0.2211 0.04707 0.0
C130 C 0.67084 0.32925 0.04198 0.0
C131 C 0.49162 0.34968 0.03935 0.0
O132 O 0.48441 0.32127 0.06932 0.0
O133 O 0.57211 0.27264 0.9692 0.0
O134 O 0.623 0.22681 0.98011 0.0
O135 O 0.56081 0.28594 0.10698 0.0
O136 O 0.59192 0.242 0.06841 0.0
C137 C 0.59644 0.24581 0.95579 0.0
C138 C 0.58085 0.25183 0.10456 0.0
O139 O 0.52469 0.34735 0.01791 0.0
Mg140 Mg 0.83471 0.58301 0.02982 0.0
O141 O 0.79623 0.51458 0.02724 0.0
O142 O 0.84426 0.46918 0.01221 0.0
Mg143 Mg 0.91118 0.50714 0.00104 0.0
C144 C 0.80579 0.47633 0.02145 0.0
C145 C 0.74082 0.60679 0.03489 0.0
O146 O 0.73814 0.58487 -0.00019 0.0
O147 O 0.86924 0.56572 0.09302 0.0
O148 O 0.91779 0.52449 0.07009 0.0
O149 O 0.82083 0.59363 0.96086 0.0
O150 O 0.8784 0.56448 -0.01076 0.0
C151 C 0.90198 0.54372 0.09953 0.0
C152 C 0.85602 0.57536 0.95635 0.0
O153 O 0.777 0.6099 0.05777 0.0
Mg154 Mg 0.53266 0.77671 0.04372 0.0
O155 O 0.46803 0.7309 0.02918 0.0
O156 O 0.41322 0.77261 0.02559 0.0
Mg157 Mg 0.44011 0.84254 0.0412 0.0
C158 C 0.42703 0.73572 0.02262 0.0
C159 C 0.60651 0.72064 0.05841 0.0
O160 O 0.60988 0.74669 0.09075 0.0
O161 O 0.52853 0.80282 0.97639 0.0
O162 O 0.47515 0.84561 0.98081 0.0
O163 O 0.52827 0.77205 0.11351 0.0
O164 O 0.49838 0.81966 0.07285 0.0
C165 C 0.50424 0.83045 0.96045 0.0
C166 C 0.50532 0.8043 0.10956 0.0
O167 O 0.57592 0.7243 0.02983 0.0
C168 C 0.9819 0.36837 0.37725 0.0
C169 C 0.0089 0.34045 0.39876 0.0
C170 C 0.99989 0.40082 0.35101 0.0
C171 C 0.04504 0.40542 0.34418 0.0
H172 H 0.94761 0.3682 0.38408 0.0
H173 H 0.97904 0.42434 0.33843 0.0
S174 S 0.1273 0.33372 0.3834 0.0
N175 N 0.08129 0.31445 0.40478 0.0
N176 N 0.11461 0.37487 0.35398 0.0
C177 C 0.07091 0.3739 0.36018 0.0
C178 C 0.05282 0.34122 0.38771 0.0
C179 C 0.63861 0.00422 0.38594 0.0
C180 C 0.68117 0.99172 0.38353 0.0
C181 C 0.60959 0.00615 0.35035 0.0
C182 C 0.62171 0.9956 0.31058 0.0
H183 H 0.627 0.0119 0.41572 0.0
H184 H 0.57719 0.01577 0.35431 0.0
S185 S 0.73004 0.96175 0.28696 0.0
N186 N 0.73449 0.96932 0.33799 0.0
N187 N 0.67998 0.97282 0.27087 0.0
C188 C 0.66448 0.98348 0.30755 0.0
C189 C 0.69414 0.98156 0.344 0.0
C190 C 0.03438 0.66331 0.38866 0.0
C191 C 0.06978 0.64598 0.37168 0.0
C192 C 0.04202 0.69861 0.4162 0.0
C193 C 0.08537 0.71727 0.428 0.0
H194 H 0.0008 0.64747 0.38322 0.0
H195 H 0.01431 0.70814 0.43164 0.0
S196 S 0.18847 0.69069 0.38545 0.0
N197 N 0.14903 0.65557 0.36293 0.0
N198 N 0.16325 0.72127 0.41542 0.0
C199 C 0.12042 0.70374 0.40748 0.0
C200 C 0.11266 0.6682 0.37903 0.0
C201 C 0.34456 0.07486 0.38089 0.0
C202 C 0.37328 0.08173 0.41711 0.0
C203 C 0.36075 0.06608 0.34248 0.0
C204 C 0.40629 0.06439 0.3389 0.0
H205 H 0.3092 0.07497 0.38243 0.0
H206 H 0.33724 0.05983 0.31562 0.0
S207 S 0.49568 0.08466 0.42417 0.0
N208 N 0.44961 0.08946 0.44666 0.0
N209 N 0.48015 0.07328 0.37478 0.0
C210 C 0.43552 0.07308 0.37473 0.0
C211 C 0.41897 0.08162 0.41376 0.0
C212 C 0.04576 0.69072 0.69604 0.0
C213 C 0.07885 0.6628 0.69796 0.0
C214 C 0.05152 0.73012 0.67439 0.0
C215 C 0.09043 0.74249 0.65411 0.0
H216 H 0.01356 0.68013 0.70724 0.0
H217 H 0.02335 0.74812 0.66922 0.0
S218 S 0.19203 0.68806 0.66218 0.0
N219 N 0.15571 0.65554 0.68697 0.0
N220 N 0.16621 0.72959 0.64632 0.0
C221 C 0.12603 0.71826 0.66154 0.0
C222 C 0.12029 0.67827 0.68349 0.0
C223 C 0.47347 0.01307 0.6863 0.0
C224 C 0.45725 0.02639 0.72322 0.0
C225 C 0.45137 0.01884 0.64747 0.0
C226 C 0.41203 0.03864 0.64345 0.0
H227 H 0.50393 -0.0017 0.68723 0.0
H228 H 0.46613 0.00827 0.62027 0.0
S229 S 0.35466 0.07812 0.73095 0.0
N230 N 0.39862 0.05913 0.75389 0.0
N231 N 0.35693 0.07035 0.68035 0.0
C232 C 0.39474 0.05138 0.68024 0.0
C233 C 0.41729 0.04509 0.72019 0.0
C234 C 0.99275 0.35012 0.66002 0.0
C235 C 0.99383 0.35637 0.61664 0.0
C236 C 0.99353 0.38558 0.68717 0.0
C237 C 0.99699 0.42824 0.67173 0.0
H238 H 0.99141 0.31779 0.67299 0.0
H239 H 0.99248 0.37969 0.7204 0.0
S240 S 0.00098 0.46207 0.5609 0.0
N241 N 0.99806 0.40887 0.55976 0.0
N242 N 1.00045 0.47467 0.6106 0.0
C243 C 0.99798 0.43476 0.62854 0.0
C244 C 0.99617 0.39902 0.60102 0.0
C245 C 0.66042 0.05164 0.67048 0.0
C246 C 0.67833 0.02424 0.70052 0.0
C247 C 0.67188 0.05181 0.62914 0.0
C248 C 0.70192 0.0247 0.61588 0.0
H249 H 0.6359 0.07203 0.6784 0.0
H250 H 0.65587 0.07261 0.60718 0.0
S251 S 0.76314 0.95127 0.68366 0.0
N252 N 0.73122 0.97249 0.71523 0.0
N253 N 0.75289 0.97284 0.63736 0.0
C254 C 0.72231 -0.00088 0.64617 0.0
C255 C 0.71049 -0.00112 0.68847 0.0
C256 C 0.42287 0.38125 0.05367 0.0
C257 C 0.45963 0.38137 0.02958 0.0
C258 C 0.38989 0.40794 0.04372 0.0
C259 C 0.39205 0.43598 0.00915 0.0
H260 H 0.41881 0.35964 0.08008 0.0
H261 H 0.36185 0.40559 0.0628 0.0
S262 S 0.48362 0.45207 0.93829 0.0
N263 N 0.49792 0.41436 0.97127 0.0
N264 N 0.43586 0.46469 0.95253 0.0
C265 C 0.42958 0.43791 0.98576 0.0
C266 C 0.46334 0.4106 -0.00403 0.0
C267 C 0.31662 0.67006 -0.0095 0.0
C268 C 0.32632 0.627 -0.00907 0.0
C269 C 0.34949 0.70458 0.00021 0.0
C270 C 0.39382 0.69788 0.01073 0.0
H271 H 0.28301 0.67738 0.98368 0.0
H272 H 0.33963 0.73685 -3e-05 0.0
S273 S 0.43788 0.59165 0.01298 0.0
N274 N 0.38436 0.57971 0.00026 0.0
N275 N 0.44626 0.64477 0.01843 0.0
C276 C 0.40453 0.65514 0.0097 0.0
C277 C 0.37084 0.61975 -0.00019 0.0
C278 C 0.69407 0.40852 0.02994 0.0
C279 C 0.70574 0.36684 0.03908 0.0
C280 C 0.7265 0.44382 0.02446 0.0
C281 C 0.77188 0.43879 0.02758 0.0
H282 H 0.65958 0.41395 0.02633 0.0
H283 H 0.71584 0.47512 0.01708 0.0
S284 S 0.8205 0.33746 0.05458 0.0
N285 N 0.7665 0.32348 0.05361 0.0
N286 N 0.82697 0.38945 0.04302 0.0
C287 C 0.78409 0.39757 0.03765 0.0
C288 C 0.7512 0.36176 0.04351 0.0
C289 C 0.6697 0.63609 0.01325 0.0
C290 C 0.70462 0.63249 0.04391 0.0
C291 C 0.63765 0.66387 0.01856 0.0
C292 C 0.63902 0.68915 0.05483 0.0
H293 H 0.66768 0.61829 0.98419 0.0
H294 H 0.61218 0.66616 -0.00645 0.0
S295 S 0.72091 0.68828 0.14661 0.0
N296 N 0.7367 0.65422 0.11325 0.0
N297 N 0.67652 0.70621 0.12348 0.0
C298 C 0.67267 0.68445 0.08659 0.0
C299 C 0.70539 0.6562 0.08109 0.0
C300 C 0.55744 0.85565 0.90704 0.0
C301 C 0.51401 0.85137 0.92 0.0
C302 C 0.57064 0.88616 0.87655 0.0
C303 C 0.54087 0.91326 0.85841 0.0
H304 H 0.58233 0.8381 0.92291 0.0
H305 H 0.60518 0.89104 0.86978 0.0
S306 S 0.42119 0.90725 0.87342 0.0
N307 N 0.43932 0.87094 0.90605 0.0
N308 N 0.46476 0.92865 0.8495 0.0
C309 C 0.49648 0.90608 0.86767 0.0
C310 C 0.48284 0.87485 0.89823 0.0
C311 C 0.14587 0.51206 0.88935 0.0
C312 C 0.18826 0.49903 0.88727 0.0
C313 C 0.11786 0.51592 0.85334 0.0
C314 C 0.13098 0.50705 0.8135 0.0
H315 H 0.1337 0.51878 0.91916 0.0
H316 H 0.08561 0.52605 0.85696 0.0
S317 S 0.23914 0.47213 0.7908 0.0
N318 N 0.24231 0.47751 0.84207 0.0
N319 N 0.1898 0.48477 0.7742 0.0
C320 C 0.17352 0.49421 0.81087 0.0
C321 C 0.20206 0.49019 0.84773 0.0
C322 C 0.53259 0.1758 0.87436 0.0
C323 C 0.56661 0.15546 0.85835 0.0
C324 C 0.54241 0.21137 0.90135 0.0
C325 C 0.58657 0.22714 0.91363 0.0
H326 H 0.49836 0.16161 0.86929 0.0
H327 H 0.51552 0.22268 0.91676 0.0
S328 S 0.68692 0.19359 0.87134 0.0
N329 N 0.64561 0.16026 0.84921 0.0
N330 N 0.66391 0.22651 0.90082 0.0
C331 C 0.62036 0.21148 0.89288 0.0
C332 C 0.61041 0.17564 0.86496 0.0
C333 C 0.89341 0.51164 0.86958 0.0
C334 C 0.91076 0.54435 0.8428 0.0
C335 C 0.87379 0.52192 0.90563 0.0
C336 C 0.86968 0.56505 0.91527 0.0
H337 H 0.89659 0.47801 0.86356 0.0
H338 H 0.86258 0.49607 0.92656 0.0
S339 S 0.90637 0.66221 0.85385 0.0
N340 N 0.92067 0.62144 0.82739 0.0
N341 N 0.88233 0.64047 0.89479 0.0
C342 C 0.88491 0.59788 0.88792 0.0
C343 C 0.90591 0.58758 0.85171 0.0
C344 C 0.60349 0.1485 0.1578 0.0
C345 C 0.56625 0.13889 0.18116 0.0
C346 C 0.61124 0.188 0.13696 0.0
C347 C 0.58208 0.21949 0.13853 0.0
H348 H 0.62543 0.12432 0.15333 0.0
H349 H 0.63851 0.19249 0.11702 0.0
S350 S 0.48522 0.21437 0.2026 0.0
N351 N 0.50412 0.16724 0.2104 0.0
N352 N 0.51872 0.24152 0.17085 0.0
C353 C 0.54782 0.21255 0.16574 0.0
C354 C 0.53982 0.17214 0.18709 0.0
C355 C 0.99059 0.52567 0.18427 0.0
C356 C 0.96975 0.529 0.2215 0.0
C357 C 0.96831 0.53108 0.14544 0.0
C358 C 0.92416 0.5404 0.14186 0.0
H359 H 0.02449 0.51839 0.18487 0.0
H360 H 0.98615 0.52794 0.11789 0.0
S361 S 0.8545 0.55374 0.22963 0.0
N362 N 0.90231 0.54308 0.25247 0.0
N363 N 0.86037 0.55344 0.1789 0.0
C364 C 0.90287 0.54455 0.17871 0.0
C365 C 0.9256 0.53866 0.21861 0.0
C366 C 0.53159 0.84996 0.17072 0.0
C367 C 0.49565 0.82921 0.14557 0.0
C368 C 0.52659 0.88611 0.19482 0.0
C369 C 0.48528 0.90153 0.19534 0.0
H370 H 0.56457 0.84092 0.1686 0.0
H371 H 0.55564 0.90355 0.2112 0.0
S372 S 0.37989 0.85458 0.13972 0.0
N373 N 0.41684 0.8239 0.12566 0.0
N374 N 0.40703 0.89092 0.17248 0.0
C375 C 0.44834 0.87861 0.1735 0.0
C376 C 0.45364 0.84251 0.14817 0.0
C377 C 0.22314 0.49914 0.14722 0.0
C378 C 0.21147 0.5321 0.11988 0.0
C379 C 0.21228 0.49831 0.18888 0.0
C380 C 0.18939 0.53046 0.20486 0.0
H381 H 0.23889 0.47257 0.13594 0.0
H382 H 0.22006 0.47105 0.20802 0.0
S383 S 0.15869 0.6282 0.14824 0.0
N384 N 0.18117 0.6009 0.11329 0.0
N385 N 0.16077 0.59931 0.19151 0.0
C386 C 0.18061 0.5654 0.17874 0.0
C387 C 0.19159 0.5662 0.13629 0.0
C388 C 0.91585 0.92043 0.47732 0.0
C389 C 0.88749 0.93325 0.50635 0.0
C390 C 0.95068 0.89647 0.48976 0.0
C391 C 0.95844 0.88433 0.53171 0.0
H392 H 0.91034 0.92772 0.44444 0.0
H393 H 0.97063 0.88611 0.46607 0.0
S394 S 0.8976 0.91484 0.62092 0.0
N395 N 0.87239 0.93559 0.57962 0.0
N396 N 0.93761 0.89068 0.60296 0.0
C397 C 0.93178 0.89886 0.56137 0.0
C398 C 0.89639 0.92326 0.54873 0.0
C399 C 0.88808 0.15696 0.51135 0.0
C400 C 0.87978 0.19887 0.49896 0.0
C401 C 0.85578 0.12112 0.50404 0.0
C402 C 0.81389 0.12575 0.48402 0.0
H403 H 0.91936 0.15184 0.52772 0.0
H404 H 0.86331 0.08978 0.51537 0.0
S405 S 0.77744 0.22753 0.44048 0.0
N406 N 0.82778 0.24212 0.4621 0.0
N407 N 0.76741 0.17497 0.4486 0.0
C408 C 0.80587 0.16714 0.46988 0.0
C409 C 0.83867 0.2036 0.47728 0.0
C410 C 0.19397 0.91534 0.53624 0.0
C411 C 0.20285 0.87272 0.52986 0.0
C412 C 0.22574 0.9508 0.52964 0.0
C413 C 0.26763 0.94514 0.51606 0.0
H414 H 0.16263 0.9214 0.54741 0.0
H415 H 0.21756 0.98287 0.53609 0.0
S416 S 0.3054 0.84003 0.49033 0.0
N417 N 0.25525 0.82689 0.50609 0.0
N418 N 0.31476 0.89326 0.49356 0.0
C419 C 0.27619 0.90265 0.50796 0.0
C420 C 0.24393 0.86657 0.51493 0.0
C421 C 0.1488 0.17098 0.58014 0.0
C422 C 0.12435 0.18652 0.54536 0.0
C423 C 0.18875 0.15382 0.57575 0.0
C424 C 0.20602 0.15228 0.53652 0.0
H425 H 0.13768 0.17318 0.61124 0.0
H426 H 0.2071 0.14341 0.60344 0.0
S427 S 0.15283 0.18397 0.43494 0.0
N428 N 0.11879 0.19534 0.46978 0.0
N429 N 0.19385 0.16382 0.46176 0.0
C430 C 0.18095 0.16571 0.50129 0.0
C431 C 0.1401 0.18257 0.50562 0.0
loop_
_geom_bond_atom_site_label_1
_geom_bond_atom_site_label_2
_geom_bond_distance
_geom_bond_site_symmetry_2
_ccdc_geom_bond_type
Mg0 O1 2.028 . S
Mg0 O7 1.986 . S
Mg0 O9 2.114 . S
Mg0 O10 2.251 . S
Mg0 O13 2.010 . S
O1 Mg0 2.028 . S
O1 C4 1.250 1_455 S
O2 Mg3 2.028 . S
O2 C4 1.248 . S
Mg3 O2 2.028 . S
Mg3 O8 2.032 . S
Mg3 O10 2.079 1_655 S
C4 O1 1.250 1_655 S
C4 O2 1.248 . S
C5 O6 1.264 . S
C5 O13 1.249 . S
O6 C5 1.264 . S
O7 Mg0 1.986 . S
O7 C11 1.246 . S
O8 Mg3 2.032 . S
O8 C11 1.259 1_655 S
O9 Mg0 2.114 . S
O9 C12 1.252 . S
O10 Mg0 2.251 . S
O10 Mg3 2.079 1_455 S
O10 C12 1.273 . S
C11 O7 1.246 . S
C11 O8 1.259 1_455 S
C12 O9 1.252 . S
C12 O10 1.273 . S
O13 Mg0 2.010 . S
O13 C5 1.249 . S
Mg14 O15 2.028 . S
Mg14 O21 1.986 . S
Mg14 O23 2.114 . S
Mg14 O24 2.251 . S
Mg14 O27 2.010 1_545 S
O15 Mg14 2.028 . S
O15 C18 1.250 . S
O16 Mg17 2.028 . S
O16 C18 1.248 . S
Mg17 O16 2.028 . S
Mg17 O22 2.032 . S
Mg17 O24 2.079 . S
C18 O15 1.250 . S
C18 O16 1.248 . S
C19 O20 1.264 . S
C19 O27 1.249 . S
O20 C19 1.264 . S
O21 Mg14 1.986 . S
O21 C25 1.246 . S
O22 Mg17 2.032 . S
O22 C25 1.259 . S
O23 Mg14 2.114 . S
O23 C26 1.252 . S
O24 Mg14 2.251 . S
O24 Mg17 2.079 . S
O24 C26 1.273 . S
C25 O21 1.246 . S
C25 O22 1.259 . S
C26 O23 1.252 . S
C26 O24 1.273 . S
O27 Mg14 2.010 1_565 S
O27 C19 1.249 . S
Mg28 O29 2.028 . S
Mg28 O35 1.986 . S
Mg28 O37 2.114 . S
Mg28 O38 2.251 . S
Mg28 O41 2.010 1_455 S
O29 Mg28 2.028 . S
O29 C32 1.250 . S
O30 Mg31 2.028 . S
O30 C32 1.248 . S
Mg31 O30 2.028 . S
Mg31 O36 2.032 . S
Mg31 O38 2.079 . S
C32 O29 1.250 . S
C32 O30 1.248 . S
C33 O34 1.264 . S
C33 O41 1.249 . S
O34 C33 1.264 . S
O35 Mg28 1.986 . S
O35 C39 1.246 . S
O36 Mg31 2.032 . S
O36 C39 1.259 . S
O37 Mg28 2.114 . S
O37 C40 1.252 . S
O38 Mg28 2.251 . S
O38 Mg31 2.079 . S
O38 C40 1.273 . S
C39 O35 1.246 . S
C39 O36 1.259 . S
C40 O37 1.252 . S
C40 O38 1.273 . S
O41 Mg28 2.010 1_655 S
O41 C33 1.249 . S
Mg42 O43 2.028 1_545 S
Mg42 O49 1.986 . S
Mg42 O51 2.114 . S
Mg42 O52 2.251 . S
Mg42 O55 2.010 . S
O43 Mg42 2.028 1_565 S
O43 C46 1.250 . S
O44 Mg45 2.028 . S
O44 C46 1.248 . S
Mg45 O44 2.028 . S
Mg45 O50 2.032 . S
Mg45 O52 2.079 1_565 S
C46 O43 1.250 . S
C46 O44 1.248 . S
C47 O48 1.264 . S
C47 O55 1.249 . S
O48 C47 1.264 . S
O49 Mg42 1.986 . S
O49 C53 1.246 . S
O50 Mg45 2.032 . S
O50 C53 1.259 1_565 S
O51 Mg42 2.114 . S
O51 C54 1.252 . S
O52 Mg42 2.251 . S
O52 Mg45 2.079 1_545 S
O52 C54 1.273 . S
C53 O49 1.246 . S
C53 O50 1.259 1_545 S
C54 O51 1.252 . S
C54 O52 1.273 . S
O55 Mg42 2.010 . S
O55 C47 1.249 . S
Mg56 O57 2.028 . S
Mg56 O63 1.986 . S
Mg56 O65 2.114 1_545 S
Mg56 O66 2.251 1_545 S
Mg56 O69 2.010 . S
O57 Mg56 2.028 . S
O57 C60 1.250 . S
O58 Mg59 2.028 . S
O58 C60 1.248 . S
Mg59 O58 2.028 . S
Mg59 O64 2.032 . S
Mg59 O66 2.079 1_545 S
C60 O57 1.250 . S
C60 O58 1.248 . S
C61 O62 1.264 . S
C61 O69 1.249 . S
O62 C61 1.264 . S
O63 Mg56 1.986 . S
O63 C67 1.246 . S
O64 Mg59 2.032 . S
O64 C67 1.259 . S
O65 Mg56 2.114 1_565 S
O65 C68 1.252 . S
O66 Mg56 2.251 1_565 S
O66 Mg59 2.079 1_565 S
O66 C68 1.273 . S
C67 O63 1.246 . S
C67 O64 1.259 . S
C68 O65 1.252 . S
C68 O66 1.273 . S
O69 Mg56 2.010 . S
O69 C61 1.249 . S
Mg70 O71 2.028 . S
Mg70 O77 1.986 . S
Mg70 O79 2.114 . S
Mg70 O80 2.251 . S
Mg70 O83 2.010 . S
O71 Mg70 2.028 . S
O71 C74 1.250 1_455 S
O72 Mg73 2.028 . S
O72 C74 1.248 . S
Mg73 O72 2.028 . S
Mg73 O78 2.032 1_655 S
Mg73 O80 2.079 1_655 S
C74 O71 1.250 1_655 S
C74 O72 1.248 . S
C75 O76 1.264 . S
C75 O83 1.249 . S
O76 C75 1.264 . S
O77 Mg70 1.986 . S
O77 C81 1.246 . S
O78 Mg73 2.032 1_455 S
O78 C81 1.259 . S
O79 Mg70 2.114 . S
O79 C82 1.252 . S
O80 Mg70 2.251 . S
O80 Mg73 2.079 1_455 S
O80 C82 1.273 . S
C81 O77 1.246 . S
C81 O78 1.259 . S
C82 O79 1.252 . S
C82 O80 1.273 . S
O83 Mg70 2.010 . S
O83 C75 1.249 . S
Mg84 O85 2.028 . S
Mg84 O91 1.986 . S
Mg84 O93 2.114 1_545 S
Mg84 O94 2.251 1_545 S
Mg84 O97 2.010 . S
O85 Mg84 2.028 . S
O85 C88 1.250 . S
O86 Mg87 2.028 . S
O86 C88 1.248 . S
Mg87 O86 2.028 . S
Mg87 O92 2.032 . S
Mg87 O94 2.079 1_545 S
C88 O85 1.250 . S
C88 O86 1.248 . S
C89 O90 1.264 . S
C89 O97 1.249 . S
O90 C89 1.264 . S
O91 Mg84 1.986 . S
O91 C95 1.246 . S
O92 Mg87 2.032 . S
O92 C95 1.259 . S
O93 Mg84 2.114 1_565 S
O93 C96 1.252 . S
O94 Mg84 2.251 1_565 S
O94 Mg87 2.079 1_565 S
O94 C96 1.273 . S
C95 O91 1.246 . S
C95 O92 1.259 . S
C96 O93 1.252 . S
C96 O94 1.273 . S
O97 Mg84 2.010 . S
O97 C89 1.249 . S
Mg98 O99 2.028 . S
Mg98 O105 1.986 . S
Mg98 O107 2.114 . S
Mg98 O108 2.251 . S
Mg98 O111 2.010 1_455 S
O99 Mg98 2.028 . S
O99 C102 1.250 . S
O100 Mg101 2.028 . S
O100 C102 1.248 . S
Mg101 O100 2.028 . S
Mg101 O106 2.032 . S
Mg101 O108 2.079 . S
C102 O99 1.250 . S
C102 O100 1.248 . S
C103 O104 1.264 . S
C103 O111 1.249 . S
O104 C103 1.264 . S
O105 Mg98 1.986 . S
O105 C109 1.246 . S
O106 Mg101 2.032 . S
O106 C109 1.259 . S
O107 Mg98 2.114 . S
O107 C110 1.252 . S
O108 Mg98 2.251 . S
O108 Mg101 2.079 . S
O108 C110 1.273 . S
C109 O105 1.246 . S
C109 O106 1.259 . S
C110 O107 1.252 . S
C110 O108 1.273 . S
O111 Mg98 2.010 1_655 S
O111 C103 1.249 . S
Mg112 O113 2.028 . S
Mg112 O119 1.986 . S
Mg112 O121 2.114 1_554 S
Mg112 O122 2.251 1_554 S
Mg112 O125 2.010 . S
O113 Mg112 2.028 . S
O113 C116 1.250 . S
O114 Mg115 2.028 . S
O114 C116 1.248 . S
Mg115 O114 2.028 . S
Mg115 O120 2.032 . S
Mg115 O122 2.079 1_554 S
C116 O113 1.250 . S
C116 O114 1.248 . S
C117 O118 1.264 . S
C117 O125 1.249 . S
O118 C117 1.264 . S
O119 Mg112 1.986 . S
O119 C123 1.246 . S
O120 Mg115 2.032 . S
O120 C123 1.259 . S
O121 Mg112 2.114 1_556 S
O121 C124 1.252 . S
O122 Mg112 2.251 1_556 S
O122 Mg115 2.079 1_556 S
O122 C124 1.273 . S
C123 O119 1.246 . S
C123 O120 1.259 . S
C124 O121 1.252 . S
C124 O122 1.273 . S
O125 Mg112 2.010 . S
O125 C117 1.249 . S
Mg126 O127 2.028 . S
Mg126 O133 1.986 1_554 S
Mg126 O135 2.114 . S
Mg126 O136 2.251 . S
Mg126 O139 2.010 . S
O127 Mg126 2.028 . S
O127 C130 1.250 . S
O128 Mg129 2.028 . S
O128 C130 1.248 . S
Mg129 O128 2.028 . S
Mg129 O134 2.032 1_554 S
Mg129 O136 2.079 . S
C130 O127 1.250 . S
C130 O128 1.248 . S
C131 O132 1.264 . S
C131 O139 1.249 . S
O132 C131 1.264 . S
O133 Mg126 1.986 1_556 S
O133 C137 1.246 . S
O134 Mg129 2.032 1_556 S
O134 C137 1.259 . S
O135 Mg126 2.114 . S
O135 C138 1.252 . S
O136 Mg126 2.251 . S
O136 Mg129 2.079 . S
O136 C138 1.273 . S
C137 O133 1.246 . S
C137 O134 1.259 . S
C138 O135 1.252 . S
C138 O136 1.273 . S
O139 Mg126 2.010 . S
O139 C131 1.249 . S
Mg140 O141 2.028 . S
Mg140 O147 1.986 . S
Mg140 O149 2.114 1_554 S
Mg140 O150 2.251 . S
Mg140 O153 2.010 . S
O141 Mg140 2.028 . S
O141 C144 1.250 . S
O142 Mg143 2.028 . S
O142 C144 1.248 . S
Mg143 O142 2.028 . S
Mg143 O148 2.032 . S
Mg143 O150 2.079 . S
C144 O141 1.250 . S
C144 O142 1.248 . S
C145 O146 1.264 . S
C145 O153 1.249 . S
O146 C145 1.264 . S
O147 Mg140 1.986 . S
O147 C151 1.246 . S
O148 Mg143 2.032 . S
O148 C151 1.259 . S
O149 Mg140 2.114 1_556 S
O149 C152 1.252 . S
O150 Mg140 2.251 . S
O150 Mg143 2.079 . S
O150 C152 1.273 1_554 S
C151 O147 1.246 . S
C151 O148 1.259 . S
C152 O149 1.252 . S
C152 O150 1.273 1_556 S
O153 Mg140 2.010 . S
O153 C145 1.249 . S
Mg154 O155 2.028 . S
Mg154 O161 1.986 1_554 S
Mg154 O163 2.114 . S
Mg154 O164 2.251 . S
Mg154 O167 2.010 . S
O155 Mg154 2.028 . S
O155 C158 1.250 . S
O156 Mg157 2.028 . S
O156 C158 1.248 . S
Mg157 O156 2.028 . S
Mg157 O162 2.032 1_554 S
Mg157 O164 2.079 . S
C158 O155 1.250 . S
C158 O156 1.248 . S
C159 O160 1.264 . S
C159 O167 1.249 . S
O160 C159 1.264 . S
O161 Mg154 1.986 1_556 S
O161 C165 1.246 . S
O162 Mg157 2.032 1_556 S
O162 C165 1.259 . S
O163 Mg154 2.114 . S
O163 C166 1.252 . S
O164 Mg154 2.251 . S
O164 Mg157 2.079 . S
O164 C166 1.273 . S
C165 O161 1.246 . S
C165 O162 1.259 . S
C166 O163 1.252 . S
C166 O164 1.273 . S
O167 Mg154 2.010 . S
O167 C159 1.249 . S
C168 C169 1.382 . S
C168 C170 1.419 . S
C168 H172 0.916 1_455 S
C169 C168 1.382 . S
C169 C178 1.429 . S
C170 C168 1.419 . S
C170 C171 1.363 . S
C170 H173 0.929 1_455 S
C171 C170 1.363 . S
C171 C177 1.428 . S
H172 C168 0.916 1_655 S
H173 C170 0.929 1_655 S
S174 N175 1.613 . S
S174 N176 1.610 . S
N175 S174 1.613 . S
N175 C178 1.350 . S
N176 S174 1.610 . S
N176 C177 1.351 . S
C177 C171 1.428 . S
C177 N176 1.351 . S
C177 C178 1.434 . S
C178 C169 1.429 . S
C178 N175 1.350 . S
C178 C177 1.434 . S
C179 C180 1.369 . S
C179 C181 1.419 . S
C179 H183 0.930 . S
C180 C179 1.369 . S
C180 C189 1.429 . S
C181 C179 1.419 . S
C181 C182 1.363 . S
C181 H184 0.929 . S
C182 C181 1.363 . S
C182 C188 1.428 . S
H183 C179 0.930 . S
H184 C181 0.929 . S
S185 N186 1.613 . S
S185 N187 1.610 . S
N186 S185 1.613 . S
N186 C189 1.350 . S
N187 S185 1.610 . S
N187 C188 1.351 . S
C188 C182 1.428 . S
C188 N187 1.351 . S
C188 C189 1.434 . S
C189 C180 1.429 . S
C189 N186 1.350 . S
C189 C188 1.434 . S
C190 C191 1.369 . S
C190 C192 1.419 . S
C190 H194 0.930 . S
C191 C190 1.369 . S
C191 C200 1.429 . S
C192 C190 1.419 . S
C192 C193 1.363 . S
C192 H195 0.929 . S
C193 C192 1.363 . S
C193 C199 1.428 . S
H194 C190 0.930 . S
H195 C192 0.929 . S
S196 N197 1.613 . S
S196 N198 1.610 . S
N197 S196 1.613 . S
N197 C200 1.350 . S
N198 S196 1.610 . S
N198 C199 1.351 . S
C199 C193 1.428 . S
C199 N198 1.351 . S
C199 C200 1.434 . S
C200 C191 1.429 . S
C200 N197 1.350 . S
C200 C199 1.434 . S
C201 C202 1.369 . S
C201 C203 1.419 . S
C201 H205 0.930 . S
C202 C201 1.369 . S
C202 C211 1.429 . S
C203 C201 1.419 . S
C203 C204 1.363 . S
C203 H206 0.929 . S
C204 C203 1.363 . S
C204 C210 1.428 . S
H205 C201 0.930 . S
H206 C203 0.929 . S
S207 N208 1.613 . S
S207 N209 1.610 . S
N208 S207 1.613 . S
N208 C211 1.350 . S
N209 S207 1.610 . S
N209 C210 1.351 . S
C210 C204 1.428 . S
C210 N209 1.351 . S
C210 C211 1.434 . S
C211 C202 1.429 . S
C211 N208 1.350 . S
C211 C210 1.434 . S
C212 C213 1.369 . S
C212 C214 1.419 . S
C212 H216 0.930 1_455 S
C213 C212 1.369 . S
C213 C222 1.429 . S
C214 C212 1.419 . S
C214 C215 1.363 . S
C214 H217 0.929 1_455 S
C215 C214 1.363 . S
C215 C221 1.428 . S
H216 C212 0.930 1_655 S
H217 C214 0.929 1_655 S
S218 N219 1.613 . S
S218 N220 1.610 . S
N219 S218 1.613 . S
N219 C222 1.350 . S
N220 S218 1.610 . S
N220 C221 1.351 . S
C221 C215 1.428 . S
C221 N220 1.351 . S
C221 C222 1.434 . S
C222 C213 1.429 . S
C222 N219 1.350 . S
C222 C221 1.434 . S
C223 C224 1.369 . S
C223 C225 1.419 . S
C223 H227 0.930 . S
C224 C223 1.369 . S
C224 C233 1.429 . S
C225 C223 1.419 . S
C225 C226 1.363 . S
C225 H228 0.929 . S
C226 C225 1.363 . S
C226 C232 1.428 . S
H227 C223 0.930 . S
H228 C225 0.929 . S
S229 N230 1.613 . S
S229 N231 1.610 . S
N230 S229 1.613 . S
N230 C233 1.350 . S
N231 S229 1.610 . S
N231 C232 1.351 . S
C232 C226 1.428 . S
C232 N231 1.351 . S
C232 C233 1.434 . S
C233 C224 1.429 . S
C233 N230 1.350 . S
C233 C232 1.434 . S
C234 C235 1.369 . S
C234 C236 1.419 . S
C234 H238 0.930 1_455 S
C235 C234 1.369 . S
C235 C244 1.429 . S
C236 C234 1.419 . S
C236 C237 1.363 . S
C236 H239 0.929 1_455 S
C237 C236 1.363 . S
C237 C243 1.428 . S
H238 C234 0.930 1_655 S
H239 C236 0.929 1_655 S
S240 N241 1.613 . S
S240 N242 1.610 . S
N241 S240 1.613 . S
N241 C244 1.350 . S
N242 S240 1.610 . S
N242 C243 1.351 . S
C243 C237 1.428 . S
C243 N242 1.351 . S
C243 C244 1.434 . S
C244 C235 1.429 . S
C244 N241 1.350 . S
C244 C243 1.434 . S
C245 C246 1.369 . S
C245 C247 1.419 . S
C245 H249 0.930 . S
C246 C245 1.369 . S
C246 C255 1.429 . S
C247 C245 1.419 . S
C247 C248 1.363 . S
C247 H250 0.929 . S
C248 C247 1.363 . S
C248 C254 1.428 . S
H249 C245 0.930 . S
H250 C247 0.929 . S
S251 N252 1.613 . S
S251 N253 1.610 . S
N252 S251 1.613 . S
N252 C255 1.350 . S
N253 S251 1.610 . S
N253 C254 1.351 . S
C254 C248 1.428 . S
C254 N253 1.351 . S
C254 C255 1.434 . S
C255 C246 1.429 . S
C255 N252 1.350 . S
C255 C254 1.434 . S
C256 C257 1.369 . S
C256 C258 1.419 . S
C256 H260 0.930 . S
C257 C256 1.369 . S
C257 C266 1.429 1_554 S
C258 C256 1.419 . S
C258 C259 1.363 . S
C258 H261 0.929 . S
C259 C258 1.363 . S
C259 C265 1.428 1_554 S
H260 C256 0.930 . S
H261 C258 0.929 . S
S262 N263 1.613 . S
S262 N264 1.610 . S
N263 S262 1.613 . S
N263 C266 1.350 . S
N264 S262 1.610 . S
N264 C265 1.351 . S
C265 C259 1.428 1_556 S
C265 N264 1.351 . S
C265 C266 1.434 . S
C266 C257 1.429 1_556 S
C266 N263 1.350 . S
C266 C265 1.434 . S
C267 C268 1.369 . S
C267 C269 1.419 . S
C267 H271 0.930 . S
C268 C267 1.369 . S
C268 C277 1.429 . S
C269 C267 1.419 . S
C269 C270 1.363 . S
C269 H272 0.929 . S
C270 C269 1.363 . S
C270 C276 1.428 . S
H271 C267 0.930 . S
H272 C269 0.929 . S
S273 N274 1.613 . S
S273 N275 1.610 . S
N274 S273 1.613 . S
N274 C277 1.350 1_556 S
N275 S273 1.610 . S
N275 C276 1.351 1_556 S
C276 C270 1.428 . S
C276 N275 1.351 1_554 S
C276 C277 1.434 . S
C277 C268 1.429 . S
C277 N274 1.350 1_554 S
C277 C276 1.434 . S
C278 C279 1.369 . S
C278 C280 1.419 . S
C278 H282 0.934 . S
C279 C278 1.369 . S
C279 C288 1.429 . S
C280 C278 1.419 . S
C280 C281 1.363 . S
C280 H283 0.929 . S
C281 C280 1.363 . S
C281 C287 1.428 . S
H282 C278 0.934 . S
H283 C280 0.929 . S
S284 N285 1.613 . S
S284 N286 1.610 . S
N285 S284 1.613 . S
N285 C288 1.350 . S
N286 S284 1.610 . S
N286 C287 1.351 . S
C287 C281 1.428 . S
C287 N286 1.351 . S
C287 C288 1.434 . S
C288 C279 1.429 . S
C288 N285 1.350 . S
C288 C287 1.434 . S
C289 C290 1.369 . S
C289 C291 1.419 . S
C289 H293 0.929 1_554 S
C290 C289 1.369 . S
C290 C299 1.429 . S
C291 C289 1.419 . S
C291 C292 1.363 . S
C291 H294 0.929 1_554 S
C292 C291 1.363 . S
C292 C298 1.428 . S
H293 C289 0.929 1_556 S
H294 C291 0.929 1_556 S
S295 N296 1.613 . S
S295 N297 1.610 . S
N296 S295 1.613 . S
N296 C299 1.350 . S
N297 S295 1.610 . S
N297 C298 1.351 . S
C298 C292 1.428 . S
C298 N297 1.351 . S
C298 C299 1.434 . S
C299 C290 1.429 . S
C299 N296 1.350 . S
C299 C298 1.434 . S
C300 C301 1.369 . S
C300 C302 1.419 . S
C300 H304 0.930 . S
C301 C300 1.369 . S
C301 C310 1.429 . S
C302 C300 1.419 . S
C302 C303 1.363 . S
C302 H305 0.929 . S
C303 C302 1.363 . S
C303 C309 1.428 . S
H304 C300 0.930 . S
H305 C302 0.929 . S
S306 N307 1.613 . S
S306 N308 1.610 . S
N307 S306 1.613 . S
N307 C310 1.350 . S
N308 S306 1.610 . S
N308 C309 1.351 . S
C309 C303 1.428 . S
C309 N308 1.351 . S
C309 C310 1.434 . S
C310 C301 1.429 . S
C310 N307 1.350 . S
C310 C309 1.434 . S
C311 C312 1.369 . S
C311 C313 1.419 . S
C311 H315 0.930 . S
C312 C311 1.369 . S
C312 C321 1.429 . S
C313 C311 1.419 . S
C313 C314 1.363 . S
C313 H316 0.929 . S
C314 C313 1.363 . S
C314 C320 1.428 . S
H315 C311 0.930 . S
H316 C313 0.929 . S
S317 N318 1.613 . S
S317 N319 1.610 . S
N318 S317 1.613 . S
N318 C321 1.350 . S
N319 S317 1.610 . S
N319 C320 1.351 . S
C320 C314 1.428 . S
C320 N319 1.351 . S
C320 C321 1.434 . S
C321 C312 1.429 . S
C321 N318 1.350 . S
C321 C320 1.434 . S
C322 C323 1.369 . S
C322 C324 1.419 . S
C322 H326 0.930 . S
C323 C322 1.369 . S
C323 C332 1.429 . S
C324 C322 1.419 . S
C324 C325 1.363 . S
C324 H327 0.929 . S
C325 C324 1.363 . S
C325 C331 1.428 . S
H326 C322 0.930 . S
H327 C324 0.929 . S
S328 N329 1.613 . S
S328 N330 1.610 . S
N329 S328 1.613 . S
N329 C332 1.350 . S
N330 S328 1.610 . S
N330 C331 1.351 . S
C331 C325 1.428 . S
C331 N330 1.351 . S
C331 C332 1.434 . S
C332 C323 1.429 . S
C332 N329 1.350 . S
C332 C331 1.434 . S
C333 C334 1.369 . S
C333 C335 1.419 . S
C333 H337 0.930 . S
C334 C333 1.369 . S
C334 C343 1.429 . S
C335 C333 1.419 . S
C335 C336 1.363 . S
C335 H338 0.929 . S
C336 C335 1.363 . S
C336 C342 1.428 . S
H337 C333 0.930 . S
H338 C335 0.929 . S
S339 N340 1.613 . S
S339 N341 1.610 . S
N340 S339 1.613 . S
N340 C343 1.350 . S
N341 S339 1.610 . S
N341 C342 1.351 . S
C342 C336 1.428 . S
C342 N341 1.351 . S
C342 C343 1.434 . S
C343 C334 1.429 . S
C343 N340 1.350 . S
C343 C342 1.434 . S
C344 C345 1.369 . S
C344 C346 1.419 . S
C344 H348 0.930 . S
C345 C344 1.369 . S
C345 C354 1.429 . S
C346 C344 1.419 . S
C346 C347 1.363 . S
C346 H349 0.929 . S
C347 C346 1.363 . S
C347 C353 1.428 . S
H348 C344 0.930 . S
H349 C346 0.929 . S
S350 N351 1.613 . S
S350 N352 1.610 . S
N351 S350 1.613 . S
N351 C354 1.350 . S
N352 S350 1.610 . S
N352 C353 1.351 . S
C353 C347 1.428 . S
C353 N352 1.351 . S
C353 C354 1.434 . S
C354 C345 1.429 . S
C354 N351 1.350 . S
C354 C353 1.434 . S
C355 C356 1.369 . S
C355 C357 1.419 . S
C355 H359 0.930 . S
C356 C355 1.369 . S
C356 C365 1.429 . S
C357 C355 1.419 . S
C357 C358 1.363 . S
C357 H360 0.929 . S
C358 C357 1.363 . S
C358 C364 1.428 . S
H359 C355 0.930 . S
H360 C357 0.929 . S
S361 N362 1.613 . S
S361 N363 1.610 . S
N362 S361 1.613 . S
N362 C365 1.350 . S
N363 S361 1.610 . S
N363 C364 1.351 . S
C364 C358 1.428 . S
C364 N363 1.351 . S
C364 C365 1.434 . S
C365 C356 1.429 . S
C365 N362 1.350 . S
C365 C364 1.434 . S
C366 C367 1.369 . S
C366 C368 1.419 . S
C366 H370 0.930 . S
C367 C366 1.369 . S
C367 C376 1.429 . S
C368 C366 1.419 . S
C368 C369 1.363 . S
C368 H371 0.929 . S
C369 C368 1.363 . S
C369 C375 1.428 . S
H370 C366 0.930 . S
H371 C368 0.929 . S
S372 N373 1.613 . S
S372 N374 1.610 . S
N373 S372 1.613 . S
N373 C376 1.350 . S
N374 S372 1.610 . S
N374 C375 1.351 . S
C375 C369 1.428 . S
C375 N374 1.351 . S
C375 C376 1.434 . S
C376 C367 1.429 . S
C376 N373 1.350 . S
C376 C375 1.434 . S
C377 C378 1.369 . S
C377 C379 1.419 . S
C377 H381 0.930 . S
C378 C377 1.369 . S
C378 C387 1.429 . S
C379 C377 1.419 . S
C379 C380 1.363 . S
C379 H382 0.929 . S
C380 C379 1.363 . S
C380 C386 1.428 . S
H381 C377 0.930 . S
H382 C379 0.929 . S
S383 N384 1.613 . S
S383 N385 1.610 . S
N384 S383 1.613 . S
N384 C387 1.350 . S
N385 S383 1.610 . S
N385 C386 1.351 . S
C386 C380 1.428 . S
C386 N385 1.351 . S
C386 C387 1.434 . S
C387 C378 1.429 . S
C387 N384 1.350 . S
C387 C386 1.434 . S
C388 C389 1.369 . S
C388 C390 1.419 . S
C388 H392 0.930 . S
C389 C388 1.369 . S
C389 C398 1.429 . S
C390 C388 1.419 . S
C390 C391 1.363 . S
C390 H393 0.929 . S
C391 C390 1.363 . S
C391 C397 1.428 . S
H392 C388 0.930 . S
H393 C390 0.929 . S
S394 N395 1.613 . S
S394 N396 1.610 . S
N395 S394 1.613 . S
N395 C398 1.350 . S
N396 S394 1.610 . S
N396 C397 1.351 . S
C397 C391 1.428 . S
C397 N396 1.351 . S
C397 C398 1.434 . S
C398 C389 1.429 . S
C398 N395 1.350 . S
C398 C397 1.434 . S
C399 C400 1.369 . S
C399 C401 1.419 . S
C399 H403 0.930 . S
C400 C399 1.369 . S
C400 C409 1.429 . S
C401 C399 1.419 . S
C401 C402 1.363 . S
C401 H404 0.929 . S
C402 C401 1.363 . S
C402 C408 1.428 . S
H403 C399 0.930 . S
H404 C401 0.929 . S
S405 N406 1.613 . S
S405 N407 1.610 . S
N406 S405 1.613 . S
N406 C409 1.350 . S
N407 S405 1.610 . S
N407 C408 1.351 . S
C408 C402 1.428 . S
C408 N407 1.351 . S
C408 C409 1.434 . S
C409 C400 1.429 . S
C409 N406 1.350 . S
C409 C408 1.434 . S
C410 C411 1.369 . S
C410 C412 1.419 . S
C410 H414 0.930 . S
C411 C410 1.369 . S
C411 C420 1.429 . S
C412 C410 1.419 . S
C412 C413 1.363 . S
C412 H415 0.929 . S
C413 C412 1.363 . S
C413 C419 1.428 . S
H414 C410 0.930 . S
H415 C412 0.929 . S
S416 N417 1.613 . S
S416 N418 1.610 . S
N417 S416 1.613 . S
N417 C420 1.350 . S
N418 S416 1.610 . S
N418 C419 1.351 . S
C419 C413 1.428 . S
C419 N418 1.351 . S
C419 C420 1.434 . S
C420 C411 1.429 . S
C420 N417 1.350 . S
C420 C419 1.434 . S
C421 C422 1.369 . S
C421 C423 1.419 . S
C421 H425 0.930 . S
C422 C421 1.369 . S
C422 C431 1.429 . S
C423 C421 1.419 . S
C423 C424 1.363 . S
C423 H426 0.929 . S
C424 C423 1.363 . S
C424 C430 1.428 . S
H425 C421 0.930 . S
H426 C423 0.929 . S
S427 N428 1.613 . S
S427 N429 1.610 . S
N428 S427 1.613 . S
N428 C431 1.350 . S
N429 S427 1.610 . S
N429 C430 1.351 . S
C430 C424 1.428 . S
C430 N429 1.351 . S
C430 C431 1.434 . S
C431 C422 1.429 . S
C431 N428 1.350 . S
C431 C430 1.434 . S
C169 C11 1.350 . S
C171 C82 1.374 . S
C180 C26 1.380 . S
C182 C60 1.365 . S
C191 C81 1.272 . S
C193 C39 1.273 . S
C202 C54 1.443 . S
C204 C61 1.281 . S
C213 C109 1.376 . S
C215 C40 1.406 . S
C224 C88 1.283 . S
C226 C53 1.273 . S
C235 C12 1.438 . S
C237 C110 1.442 . S
C246 C89 1.193 . S
C248 C25 1.338 . S
C257 C131 1.223 . S
C259 C117 1.229 . S
C268 C116 1.292 . S
C270 C158 1.292 . S
C279 C130 1.249 . S
C281 C144 1.252 . S
C290 C145 1.245 . S
C292 C159 1.245 . S
C301 C165 1.352 . S
C303 C96 1.376 . S
C312 C124 1.380 . S
C314 C102 1.365 . S
C323 C95 1.279 . S
C325 C137 1.277 . S
C334 C103 1.272 . S
C336 C152 1.444 . S
C345 C67 1.381 . S
C347 C138 1.406 . S
C356 C74 1.284 . S
C358 C151 1.271 . S
C367 C166 1.439 . S
C369 C68 1.441 . S
C378 C123 1.332 . S
C380 C75 1.207 . S
C389 C19 1.228 . S
C391 C33 1.218 . S
C400 C4 1.288 . S
C402 C18 1.289 . S
C411 C32 1.248 . S
C413 C46 1.251 . S
C422 C5 1.243 . S
C424 C47 1.242 . S
