# Generated by pormake.
# Topology kag, (6)-cn, num edge types: 1
# Building blocks:
#     Node 0, Type 0, BuildingBlock: KUMBUR_clean_sbu_0, # of connection points: 6
#     Node 1, Type 0, BuildingBlock: KUMBUR_clean_sbu_0, # of connection points: 6
#     Node 2, Type 0, BuildingBlock: KUMBUR_clean_sbu_0, # of connection points: 6
#     Edge 3, Type (0, 0), BuildingBlock: TEMPAE_clean_linker_10, # of connection points: 2
#     Edge 4, Type (0, 0), BuildingBlock: TEMPAE_clean_linker_10, # of connection points: 2
#     Edge 5, Type (0, 0), BuildingBlock: TEMPAE_clean_linker_10, # of connection points: 2
#     Edge 6, Type (0, 0), BuildingBlock: TEMPAE_clean_linker_10, # of connection points: 2
#     Edge 7, Type (0, 0), BuildingBlock: TEMPAE_clean_linker_10, # of connection points: 2
#     Edge 8, Type (0, 0), BuildingBlock: TEMPAE_clean_linker_10, # of connection points: 2
#     Edge 9, Type (0, 0), BuildingBlock: TEMPAE_clean_linker_10, # of connection points: 2
#     Edge 10, Type (0, 0), BuildingBlock: TEMPAE_clean_linker_10, # of connection points: 2
#     Edge 11, Type (0, 0), BuildingBlock: TEMPAE_clean_linker_10, # of connection points: 2
# Relax obj value: 0.070
# Max RMSD: 0.190
# Mean RMSD: 0.141
data_MOF--net-kag--node1-KUMBUR_clean_sbu_0--edge1-TEMPAE_clean_linker_10
_symmetry_space_group_name_H-M    P1
_symmetry_Int_Tables_number       1
_symmetry_cell_setting            triclinic
loop_
_symmetry_equiv_pos_as_xyz
'x, y, z'
_cell_length_a     40.628713
_cell_length_b     31.244911
_cell_length_c     15.463626
_cell_angle_alpha  94.545263
_cell_angle_beta   114.78278
_cell_angle_gamma 98.231221
loop_
_atom_site_label
_atom_site_type_symbol
_atom_site_fract_x
_atom_site_fract_y
_atom_site_fract_z
_atom_type_partial_charge
Tb0 Tb 0.99358 0.48159 0.96774 0.0
C1 C 0.99704 0.66521 0.12818 0.0
C2 C 0.93608 0.67598 0.0227 0.0
C3 C 0.96623 0.71198 0.18949 0.0
C4 C 0.96699 0.65651 0.03909 0.0
C5 C 0.99745 0.69371 0.20406 0.0
C6 C 0.93554 0.70305 0.09895 0.0
C7 C 0.06016 0.68558 0.3008 0.0
N8 N 0.02634 0.64631 0.13966 0.0
C9 C 0.05834 0.65737 0.22329 0.0
C10 C 0.02941 0.70337 0.29162 0.0
Tb11 Tb 0.0194 0.59777 0.01153 0.0
N12 N 0.96864 0.63012 0.96763 0.0
C13 C 0.94126 0.62454 0.87558 0.0
C14 C 0.90702 0.66826 0.92986 0.0
C15 C 0.9099 0.64297 0.85568 0.0
H16 H 0.08204 0.64327 0.23133 0.0
H17 H 0.88785 0.63739 0.78322 0.0
H18 H 0.91187 0.71791 0.08812 0.0
H19 H 0.0852 0.69339 0.3677 0.0
H20 H 0.94269 0.60468 0.81745 0.0
H21 H 0.12479 0.44022 0.19349 0.0
H22 H 0.88266 0.68237 0.9143 0.0
H23 H 0.93014 0.43403 0.75013 0.0
H24 H 0.06965 0.47216 0.16098 0.0
H25 H 0.92702 0.38495 0.61232 0.0
H26 H 0.96578 0.73358 0.24719 0.0
H27 H 0.13105 0.39865 0.06002 0.0
H28 H 0.10241 0.36549 0.88468 0.0
H29 H 0.03085 0.72509 0.35185 0.0
H30 H 0.04822 0.34989 0.72613 0.0
N31 N 0.04472 0.4499 0.00942 0.0
C32 C 0.07161 0.45386 0.10176 0.0
C33 C 0.10661 0.41252 0.04517 0.0
C34 C 0.07787 0.406 0.95199 0.0
C35 C 0.10311 0.43583 0.1207 0.0
C36 C 0.04683 0.42505 0.93662 0.0
H37 H 0.98228 0.35633 0.62422 0.0
N38 N 0.98686 0.43396 0.83819 0.0
C39 C 0.95249 0.39375 0.67802 0.0
C40 C 0.01665 0.41644 0.84782 0.0
C41 C 0.9543 0.42138 0.75633 0.0
C42 C 0.98377 0.37776 0.68492 0.0
C43 C 0.01623 0.38842 0.77125 0.0
O44 O 0.94274 0.44182 0.93972 0.0
O45 O 0.97604 0.54237 0.98915 0.0
O46 O 0.01145 0.57973 0.13583 0.0
O47 O 0.01696 0.50656 0.12517 0.0
O48 O 0.93867 0.49574 0.88095 0.0
O49 O 0.99278 0.43553 0.0597 0.0
O50 O 0.07098 0.63647 0.04223 0.0
O51 O 0.03651 0.53689 0.9902 0.0
O52 O 0.99912 0.49948 0.83989 0.0
O53 O 0.99707 0.57385 0.85516 0.0
O54 O 0.07389 0.58269 0.10014 0.0
O55 O 0.02193 0.64302 0.91906 0.0
C56 C 0.9422 0.53337 0.92772 0.0
C57 C 0.94513 0.37232 0.98648 0.0
C58 C 0.90047 0.30724 0.9716 0.0
C59 C 0.91376 0.35285 -0.00334 0.0
C60 C 0.91903 0.28163 0.93516 0.0
C61 C 0.96338 0.34604 0.95119 0.0
C62 C 0.95025 0.30094 0.92538 0.0
C63 C 0.01569 0.54313 0.17319 0.0
C64 C 0.95746 0.42018 0.01008 0.0
C65 C 0.04777 0.37108 0.78441 0.0
C66 C 0.07861 0.37996 0.87467 0.0
C67 C 0.07009 0.54521 0.05238 0.0
C68 C 0.07252 0.7039 0.98464 0.0
C69 C 0.10308 0.71827 0.96591 0.0
C70 C 0.11914 0.76316 0.98388 0.0
C71 C 0.10374 0.79335 0.02054 0.0
C72 C 0.05781 0.73459 0.02137 0.0
C73 C 0.07337 0.7791 0.03896 0.0
C74 C 0.99635 0.53683 0.80531 0.0
C75 C 0.05755 0.65662 0.96839 0.0
H76 H 0.90005 0.37326 0.02523 0.0
H77 H 0.90927 0.24662 0.91342 0.0
H78 H 0.98763 0.3603 0.94332 0.0
H79 H 0.96429 0.28086 0.89746 0.0
H80 H 0.11476 0.6943 0.93909 0.0
H81 H 0.11491 0.82811 0.03405 0.0
H82 H 0.03449 0.72415 0.03668 0.0
H83 H 0.06187 0.80272 0.06713 0.0
Tb84 Tb 0.54667 0.03836 0.04132 0.0
C85 C 0.40624 0.08478 0.94696 0.0
C86 C 0.37721 0.06439 0.05045 0.0
C87 C 0.36927 0.13186 0.98331 0.0
C88 C 0.3999 0.05633 0.00487 0.0
C89 C 0.38987 0.12221 0.93315 0.0
C90 C 0.36299 0.10302 0.04198 0.0
C91 C 0.41252 0.13596 0.81494 0.0
N92 N 0.42604 0.07411 0.89875 0.0
C93 C 0.4282 0.0986 0.83072 0.0
C94 C 0.39369 0.14817 0.8672 0.0
Tb95 Tb 0.45124 1.01217 0.93501 0.0
N96 N 0.4135 1.01889 0.01009 0.0
C97 C 0.40142 0.9858 0.04946 0.0
C98 C 0.36803 0.03243 0.09932 0.0
C99 C 0.37951 0.99256 0.09692 0.0
H100 H 0.44265 0.09101 0.78903 0.0
H101 H 0.37123 0.96684 0.13085 0.0
H102 H 0.34593 0.11007 0.0775 0.0
H103 H 0.41523 0.15554 0.76272 0.0
H104 H 0.40924 0.95436 0.04629 0.0
H105 H 0.58931 0.88905 0.9672 0.0
H106 H 0.35071 0.03741 0.13528 0.0
H107 H 0.58771 0.11195 0.2438 0.0
H108 H 0.55939 0.95263 0.92721 0.0
H109 H 0.62635 0.1134 0.41598 0.0
H110 H 0.35708 0.16083 0.97473 0.0
H111 H 0.62055 0.87766 0.13684 0.0
H112 H 0.64391 0.90739 0.3127 0.0
H113 H 0.38165 0.17719 0.85482 0.0
H114 H 0.65437 0.9693 0.43627 0.0
N115 N 0.57357 0.97776 0.073 0.0
C116 C 0.57303 0.94841 0.00178 0.0
C117 C 0.60761 0.90585 0.11988 0.0
C118 C 0.6102 0.93741 0.19288 0.0
C119 C 0.59 0.91218 0.02407 0.0
C120 C 0.59321 0.9737 0.16657 0.0
H121 H 0.64851 0.0469 0.47536 0.0
N122 N 0.58521 0.044 0.2043 0.0
C123 C 0.61867 0.08341 0.36602 0.0
C124 C 0.59949 1.00833 0.23529 0.0
C125 C 0.59643 0.08228 0.26771 0.0
C126 C 0.63105 0.04581 0.39934 0.0
C127 C 0.62235 1.00793 0.33331 0.0
O128 O 0.58044 0.09815 0.04862 0.0
O129 O 0.49695 0.06795 0.96807 0.0
O130 O 0.46879 0.03153 0.82568 0.0
O131 O 0.52582 1.01271 0.88742 0.0
O132 O 0.53757 0.1026 0.0894 0.0
O133 O 0.58754 0.03838 0.99067 0.0
O134 O 0.43376 0.9609 0.81899 0.0
O135 O 0.50022 0.98089 0.97224 0.0
O136 O 0.53142 1.02545 0.15785 0.0
O137 O 0.46926 1.02925 0.09049 0.0
O138 O 0.46095 0.95463 0.01057 0.0
O139 O 0.39396 0.98886 0.84735 0.0
C140 C 0.50596 0.10543 0.02349 0.0
C141 C 0.64094 0.09358 0.07192 0.0
C142 C 0.69964 0.13952 0.09953 0.0
C143 C 0.66104 0.12603 0.04472 0.0
C144 C 0.71764 0.12019 0.18155 0.0
C145 C 0.65987 0.0742 0.1527 0.0
C146 C 0.69786 0.08768 0.20753 0.0
C147 C 0.49739 1.02171 0.81452 0.0
C148 C 0.60045 0.07997 0.01594 0.0
C149 C 0.63707 0.97053 0.36119 0.0
C150 C 0.63106 0.93527 0.29088 0.0
C151 C 0.49104 0.94754 0.00867 0.0
C152 C 0.38042 0.91132 0.79929 0.0
C153 C 0.35227 0.9036 0.83086 0.0
C154 C 0.33611 0.86034 0.83121 0.0
C155 C 0.34817 0.8252 0.79818 0.0
C156 C 0.39147 0.87523 0.76643 0.0
C157 C 0.37552 0.83267 0.76612 0.0
C158 C 0.50059 1.02816 0.1648 0.0
C159 C 0.39924 0.95621 0.80115 0.0
H160 H 0.64673 0.14077 0.9816 0.0
H161 H 0.74729 0.12941 0.22429 0.0
H162 H 0.64546 0.0483 0.17305 0.0
H163 H 0.71211 0.07251 0.26986 0.0
H164 H 0.3434 0.93099 0.85649 0.0
H165 H 0.33598 0.79166 0.79555 0.0
H166 H 0.41272 0.87991 0.7412 0.0
H167 H 0.38432 0.80524 0.74053 0.0
Tb168 Tb 0.45297 0.5119 0.93831 0.0
C169 C 0.60259 0.61099 0.2196 0.0
C170 C 0.61179 0.67845 0.15847 0.0
C171 C 0.64228 0.67642 0.33069 0.0
C172 C 0.59491 0.63408 0.14307 0.0
C173 C 0.62677 0.63167 0.31421 0.0
C174 C 0.63504 0.69968 0.25288 0.0
C175 C 0.62268 0.56109 0.36684 0.0
N176 N 0.58871 0.56732 0.19999 0.0
C177 C 0.59977 0.54184 0.27132 0.0
C178 C 0.63597 0.60628 0.38856 0.0
Tb179 Tb 0.5528 0.53911 0.04069 0.0
N180 N 0.57253 0.61239 0.05294 0.0
C181 C 0.56685 0.63282 0.97432 0.0
C182 C 0.60536 0.69987 0.07836 0.0
C183 C 0.5829 0.67687 0.98585 0.0
H184 H 0.58989 0.50681 0.25459 0.0
H185 H 0.57793 0.69303 0.9234 0.0
H186 H 0.64798 0.73388 0.26629 0.0
H187 H 0.63042 0.54103 0.42346 0.0
H188 H 0.54982 0.61527 0.90242 0.0
H189 H 0.42051 0.34697 0.00031 0.0
H190 H 0.61776 0.73397 0.08711 0.0
H191 H 0.40565 0.55848 0.74651 0.0
H192 H 0.4471 0.42568 0.04723 0.0
H193 H 0.3638 0.53412 0.57457 0.0
H194 H 0.66084 0.69298 0.4029 0.0
H195 H 0.38804 0.31452 0.82792 0.0
H196 H 0.36195 0.32603 0.65471 0.0
H197 H 0.65429 0.62099 0.46235 0.0
H198 H 0.34637 0.37754 0.53784 0.0
N199 N 0.43196 0.43787 0.90304 0.0
C200 C 0.4336 0.41213 0.97176 0.0
C201 C 0.39993 0.34918 0.84808 0.0
C202 C 0.39547 0.3764 0.77793 0.0
C203 C 0.41814 0.36739 0.94544 0.0
C204 C 0.41122 0.4214 0.80814 0.0
H205 H 0.34597 0.45532 0.50773 0.0
N206 N 0.41303 0.49415 0.77698 0.0
C207 C 0.37436 0.51029 0.62097 0.0
C208 C 0.40151 0.45053 0.74274 0.0
C209 C 0.39788 0.52394 0.71888 0.0
C210 C 0.36457 0.4658 0.58339 0.0
C211 C 0.3772 0.4352 0.64494 0.0
O212 O 0.39953 0.48887 0.92904 0.0
O213 O 0.50131 0.56667 0.98914 0.0
O214 O 0.53332 0.55322 0.15148 0.0
O215 O 0.48061 0.49961 0.08692 0.0
O216 O 0.45092 0.58084 0.91665 0.0
O217 O 0.43114 0.54866 0.01701 0.0
O218 O 0.60067 0.51073 0.0808 0.0
O219 O 0.50424 0.4835 0.97895 0.0
O220 O 0.46618 0.51537 0.81428 0.0
O221 O 0.53074 0.5343 0.88407 0.0
O222 O 0.55237 0.47131 0.07534 0.0
O223 O 0.58779 0.55007 0.96978 0.0
C224 C 0.48518 0.60007 0.96252 0.0
C225 C 0.36462 0.54134 0.94757 0.0
C226 C 0.30316 0.55085 0.93981 0.0
C227 C 0.33564 0.53177 0.97798 0.0
C228 C 0.30038 0.57786 0.86924 0.0
C229 C 0.36008 0.56936 0.8788 0.0
C230 C 0.32835 0.58703 0.83981 0.0
C231 C 0.50647 0.5275 0.16066 0.0
C232 C 0.3993 0.52212 0.98408 0.0
C233 C 0.36464 0.38997 0.61296 0.0
C234 C 0.37359 0.36062 0.67947 0.0
C235 C 0.51903 0.45141 0.01947 0.0
C236 C 0.65288 0.54831 0.06035 0.0
C237 C 0.67606 0.53893 0.01416 0.0
C238 C 0.7147 0.55924 0.05574 0.0
C239 C 0.72892 0.58836 0.14254 0.0
C240 C 0.66961 0.57693 0.14807 0.0
C241 C 0.70681 0.59683 0.18802 0.0
C242 C 0.49804 0.52471 0.8088 0.0
C243 C 0.61193 0.52806 0.02144 0.0
H244 H 0.33865 0.51042 0.03155 0.0
H245 H 0.27611 0.59211 0.83562 0.0
H246 H 0.38114 0.57762 0.8544 0.0
H247 H 0.32537 0.60821 0.78593 0.0
H248 H 0.66423 0.51641 0.94707 0.0
H249 H 0.75778 0.60438 0.17652 0.0
H250 H 0.65404 0.58366 0.18725 0.0
H251 H 0.71875 0.61894 0.25573 0.0
C252 C 0.97259 0.51108 0.62836 0.0
C253 C 0.99844 0.53877 0.71246 0.0
C254 C 0.97582 0.51132 0.54111 0.0
C255 C 0.00644 0.53869 0.5389 0.0
C256 C 0.0331 0.56592 0.62481 0.0
C257 C 0.02841 0.56617 0.71 0.0
C258 C 0.94621 0.48268 0.45104 0.0
C259 C 0.06685 0.59444 0.62711 0.0
C260 C 0.02903 0.51077 0.32651 0.0
C261 C 0.01507 0.54239 0.26882 0.0
C262 C 0.02719 0.50972 0.41555 0.0
C263 C 0.0099 0.54007 0.44622 0.0
C264 C 0.99569 0.57191 0.38791 0.0
C265 C 0.99892 0.57304 0.30111 0.0
C266 C 0.04389 0.47627 0.47707 0.0
C267 C 0.97618 0.60422 0.41585 0.0
H268 H 0.94954 0.48974 0.63055 0.0
H269 H 0.04887 0.58686 0.77579 0.0
H270 H 0.93366 0.50319 0.39502 0.0
H271 H 0.95849 0.45942 0.42141 0.0
H272 H 0.92399 0.46369 0.46454 0.0
H273 H 0.08589 0.612 0.70066 0.0
H274 H 0.08214 0.57415 0.6011 0.0
H275 H 0.05841 0.61895 0.57798 0.0
H276 H 0.0417 0.48711 0.30253 0.0
H277 H 0.98778 0.59748 0.25715 0.0
H278 H 0.02206 0.45383 0.48555 0.0
H279 H 0.06417 0.49285 0.55031 0.0
H280 H 0.05801 0.45649 0.44567 0.0
H281 H 0.95086 0.58631 0.41751 0.0
H282 H 0.96819 0.62817 0.36491 0.0
H283 H 0.9941 0.62251 0.48922 0.0
C284 C 0.47779 0.99244 0.27291 0.0
C285 C 0.50047 1.02691 0.2598 0.0
C286 C 0.4774 0.99044 0.36298 0.0
C287 C 0.50032 1.0238 0.44185 0.0
C288 C 0.5235 0.0586 0.42875 0.0
C289 C 0.52328 0.05968 0.33775 0.0
C290 C 0.45254 0.95256 0.37373 0.0
C291 C 0.54815 0.095 0.51044 0.0
C292 C 0.47278 0.04101 0.64731 0.0
C293 C 0.4978 1.02144 0.71871 0.0
C294 C 0.47354 0.04234 0.55749 0.0
C295 C 0.49945 1.02279 0.53738 0.0
C296 C 0.52441 1.00234 0.60851 0.0
C297 C 0.52352 1.00227 0.69855 0.0
C298 C 0.4468 0.06505 0.48434 0.0
C299 C 0.55201 0.98043 0.58937 0.0
H300 H 0.46078 0.96658 0.21301 0.0
H301 H 0.54038 0.08666 0.32702 0.0
H302 H 0.46921 0.93491 0.43112 0.0
H303 H 0.43254 0.96486 0.39603 0.0
H304 H 0.43685 0.92899 0.30575 0.0
H305 H 0.56515 0.11907 0.48902 0.0
H306 H 0.53105 0.11244 0.53556 0.0
H307 H 0.56691 0.0813 0.57247 0.0
H308 H 0.45283 0.05598 0.66189 0.0
H309 H 0.54284 0.98683 0.75292 0.0
H310 H 0.42909 0.04164 0.41733 0.0
H311 H 0.46227 0.09176 0.46481 0.0
H312 H 0.42871 0.07918 0.51153 0.0
H313 H 0.53735 0.95465 0.52506 0.0
H314 H 0.56908 0.96529 0.65146 0.0
H315 H 0.57065 1.00464 0.57332 0.0
C316 C 0.52625 0.50959 0.69617 0.0
C317 C 0.49804 0.52457 0.71243 0.0
C318 C 0.52797 0.51044 0.60724 0.0
C319 C 0.50132 0.52769 0.53276 0.0
C320 C 0.47294 0.54327 0.54911 0.0
C321 C 0.47147 0.5412 0.63834 0.0
C322 C 0.55816 0.49243 0.59274 0.0
C323 C 0.44437 0.56271 0.47274 0.0
C324 C 0.52609 0.56294 0.33192 0.0
C325 C 0.50599 0.52776 0.25676 0.0
C326 C 0.52448 0.56372 0.42149 0.0
C327 C 0.50267 0.52818 0.43715 0.0
C328 C 0.48272 0.4924 0.3618 0.0
C329 C 0.48438 0.4928 0.27276 0.0
C330 C 0.54587 0.60279 0.49914 0.0
C331 C 0.45979 0.45335 0.37544 0.0
H332 H 0.5469 0.49667 0.75308 0.0
H333 H 0.45023 0.55392 0.65115 0.0
H334 H 0.54576 0.46538 0.53077 0.0
H335 H 0.57516 0.5182 0.57526 0.0
H336 H 0.57661 0.47991 0.65748 0.0
H337 H 0.42443 0.57395 0.49695 0.0
H338 H 0.45825 0.59092 0.45306 0.0
H339 H 0.42877 0.53819 0.40651 0.0
H340 H 0.54265 0.59026 0.32028 0.0
H341 H 0.46886 0.46528 0.21571 0.0
H342 H 0.56607 0.59229 0.56419 0.0
H343 H 0.52673 0.61781 0.52061 0.0
H344 H 0.56104 0.62805 0.47536 0.0
H345 H 0.47751 0.43845 0.43693 0.0
H346 H 0.44623 0.42791 0.31023 0.0
H347 H 0.43811 0.46386 0.39319 0.0
C348 C 0.10087 0.5248 0.94402 0.0
C349 C 0.10278 0.53493 0.03654 0.0
C350 C 0.13317 0.52304 0.92995 0.0
C351 C 0.16876 0.53078 0.0102 0.0
C352 C 0.17036 0.53876 0.10384 0.0
C353 C 0.13784 0.54143 0.11553 0.0
C354 C 0.1293 0.51514 0.82838 0.0
C355 C 0.20684 0.54627 0.1924 0.0
C356 C 0.2542 0.50374 0.97722 0.0
C357 C 0.2715 0.54487 0.96991 0.0
C358 C 0.22119 0.49851 0.99075 0.0
C359 C 0.20438 0.53505 -0.00329 0.0
C360 C 0.22235 0.57664 0.99195 0.0
C361 C 0.25532 0.58098 0.97993 0.0
C362 C 0.20384 0.45359 -0.00296 0.0
C363 C 0.20629 0.61691 -0.00242 0.0
H364 H 0.07431 0.52026 0.88199 0.0
H365 H 0.13996 0.54951 0.1874 0.0
H366 H 0.14406 0.48893 0.82064 0.0
H367 H 0.09991 0.50582 0.77419 0.0
H368 H 0.14216 0.54536 0.81229 0.0
H369 H 0.20324 0.54661 0.25979 0.0
H370 H 0.22249 0.52042 0.18855 0.0
H371 H 0.22384 0.57811 0.19616 0.0
H372 H 0.26573 0.47532 0.96913 0.0
H373 H 0.26824 0.61321 0.97633 0.0
H374 H 0.17586 0.44331 0.93622 0.0
H375 H 0.20038 0.45434 0.0646 0.0
H376 H 0.2206 0.42871 -0.00489 0.0
H377 H 0.17765 0.61197 0.93975 0.0
H378 H 0.22281 0.64676 0.99028 0.0
H379 H 0.20482 0.62258 0.06749 0.0
C380 C 0.71959 0.16657 0.97703 0.0
C381 C 0.72213 0.17203 0.07064 0.0
C382 C 0.74549 0.19209 0.95425 0.0
C383 C 0.77442 0.22395 0.02668 0.0
C384 C 0.77539 0.23167 0.11928 0.0
C385 C 0.74935 0.20555 0.14017 0.0
C386 C 0.74336 0.18286 0.85457 0.0
C387 C 0.80536 0.26565 0.19833 0.0
C388 C 0.86759 0.24593 0.01912 0.0
C389 C 0.86777 0.28614 0.98459 0.0
C390 C 0.83719 0.22526 0.03156 0.0
C391 C 0.80608 0.24531 0.00977 0.0
C392 C 0.80599 0.28595 0.9751 0.0
C393 C 0.83679 0.30583 0.96274 0.0
C394 C 0.83859 0.18206 0.0692 0.0
C395 C 0.77345 0.30846 0.95137 0.0
H396 H 0.69872 0.14059 0.92317 0.0
H397 H 0.7511 0.21025 0.21232 0.0
H398 H 0.74664 0.21381 0.82589 0.0
H399 H 0.76628 0.16644 0.85819 0.0
H400 H 0.71678 0.16141 0.80329 0.0
H401 H 0.79967 0.27134 0.26214 0.0
H402 H 0.83217 0.25467 0.22168 0.0
H403 H 0.80844 0.29718 0.17156 0.0
H404 H 0.89157 0.23079 0.03796 0.0
H405 H 0.83641 0.33661 0.93494 0.0
H406 H 0.81459 0.15686 0.0181 0.0
H407 H 0.8368 0.18545 0.13898 0.0
H408 H 0.86435 0.17019 0.08009 0.0
H409 H 0.74814 0.28691 0.89476 0.0
H410 H 0.77776 0.34009 0.92577 0.0
H411 H 0.76839 0.3147 0.01596 0.0
C412 C 0.48847 0.87153 0.06585 0.0
C413 C 0.49698 0.89836 0.00501 0.0
C414 C 0.48778 0.82494 0.05983 0.0
C415 C 0.49798 0.80147 -0.00606 0.0
C416 C 0.50664 0.82852 0.9317 0.0
C417 C 0.50434 0.87465 0.93494 0.0
C418 C 0.47403 0.80133 0.12321 0.0
C419 C 0.51806 0.80922 0.8586 0.0
C420 C 0.51799 0.68184 0.05831 0.0
C421 C 0.49485 0.65189 0.97258 0.0
C422 C 0.52065 0.72917 0.06496 0.0
C423 C 0.49753 0.74967 0.98682 0.0
C424 C 0.47259 0.71896 0.90248 0.0
C425 C 0.47241 0.67254 0.89627 0.0
C426 C 0.54806 0.75682 0.15895 0.0
C427 C 0.44369 0.73372 0.81752 0.0
H428 H 0.48068 0.88699 0.11786 0.0
H429 H 0.50813 0.89195 0.88086 0.0
H430 H 0.466 0.76538 0.10038 0.0
H431 H 0.49588 0.80876 0.19858 0.0
H432 H 0.44967 0.81356 0.12327 0.0
H433 H 0.5393 0.8333 0.85138 0.0
H434 H 0.52919 0.77907 0.87731 0.0
H435 H 0.49382 0.80151 0.78699 0.0
H436 H 0.53366 0.66845 0.12215 0.0
H437 H 0.45262 0.65153 0.83016 0.0
H438 H 0.53567 0.75704 0.21059 0.0
H439 H 0.55644 0.79101 0.15035 0.0
H440 H 0.57317 0.74265 0.19182 0.0
H441 H 0.43917 0.76687 0.83461 0.0
H442 H 0.41685 0.71048 0.79051 0.0
H443 H 0.45205 0.73321 0.75779 0.0
C444 C 0.87324 0.52947 0.86687 0.0
C445 C 0.90906 0.54328 0.94273 0.0
C446 C 0.84077 0.53182 0.87932 0.0
C447 C 0.8432 0.5482 0.97066 0.0
C448 C 0.87939 0.56334 0.04729 0.0
C449 C 0.91154 0.56053 0.03267 0.0
C450 C 0.80359 0.5158 0.79429 0.0
C451 C 0.88434 0.58133 0.14623 0.0
C452 C 0.75902 0.58774 0.98672 0.0
C453 C 0.74219 0.55226 0.01481 0.0
C454 C 0.79105 0.58662 0.97107 0.0
C455 C 0.80801 0.54933 0.98512 0.0
C456 C 0.79079 0.51303 0.01186 0.0
C457 C 0.7585 0.51494 0.02637 0.0
C458 C 0.80751 0.62623 0.94226 0.0
C459 C 0.80736 0.47251 0.02877 0.0
H460 H 0.87051 0.51575 0.79703 0.0
H461 H 0.93859 0.57072 0.09266 0.0
H462 H 0.78801 0.48771 0.80984 0.0
H463 H 0.78711 0.54203 0.78164 0.0
H464 H 0.80602 0.50534 0.72721 0.0
H465 H 0.91357 0.59656 0.19473 0.0
H466 H 0.86689 0.60611 0.14152 0.0
H467 H 0.87533 0.55443 0.17896 0.0
H468 H 0.74777 0.61739 0.98036 0.0
H469 H 0.74704 0.48786 0.05148 0.0
H470 H 0.81036 0.61663 0.87547 0.0
H471 H 0.83566 0.64037 -0.00047 0.0
H472 H 0.79049 0.65197 0.92991 0.0
H473 H 0.81003 0.45923 0.96382 0.0
H474 H 0.79053 0.44653 0.04645 0.0
H475 H 0.83559 0.48101 0.08903 0.0
C476 C 0.18091 0.81204 0.02966 0.0
C477 C 0.15182 0.77865 0.96493 0.0
C478 C 0.21153 0.8275 0.01219 0.0
C479 C 0.21329 0.80934 0.92769 0.0
C480 C 0.18411 0.77554 0.86218 0.0
C481 C 0.15386 0.7606 0.88161 0.0
C482 C 0.24216 0.86313 0.08464 0.0
C483 C 0.18479 0.75517 0.77124 0.0
C484 C 0.27639 0.87247 0.83423 0.0
C485 C 0.30634 0.85075 0.864 0.0
C486 C 0.24624 0.85992 0.85583 0.0
C487 C 0.24601 0.82489 0.90881 0.0
C488 C 0.2768 0.80394 0.94194 0.0
C489 C 0.30649 0.81716 0.91945 0.0
C490 C 0.21409 0.88326 0.81939 0.0
C491 C 0.27802 0.76675 -0.00071 0.0
H492 H 0.18 0.82579 0.09501 0.0
H493 H 0.13144 0.73518 0.83053 0.0
H494 H 0.26857 0.85114 0.11321 0.0
H495 H 0.24608 0.89167 0.0492 0.0
H496 H 0.23646 0.87427 0.14613 0.0
H497 H 0.15979 0.72966 0.727 0.0
H498 H 0.18679 0.7808 0.72698 0.0
H499 H 0.20954 0.74011 0.78977 0.0
H500 H 0.27583 0.89821 0.79089 0.0
H501 H 0.32977 0.80065 0.94436 0.0
H502 H 0.20849 0.89585 0.87998 0.0
H503 H 0.18884 0.85991 0.76752 0.0
H504 H 0.21913 0.91105 0.78306 0.0
H505 H 0.27401 0.77721 0.06387 0.0
H506 H 0.30457 0.75503 0.02305 0.0
H507 H 0.25515 0.73888 0.95499 0.0
C508 C 0.49147 0.37009 0.91844 0.0
C509 C 0.5089 0.39954 0.00708 0.0
C510 C 0.48758 0.32263 0.91262 0.0
C511 C 0.50316 0.30151 -0.00341 0.0
C512 C 0.52198 0.33155 0.08542 0.0
C513 C 0.52409 0.3783 0.0891 0.0
C514 C 0.46663 0.29522 0.81443 0.0
C515 C 0.54142 0.31519 0.17954 0.0
C516 C 0.48041 0.17725 0.03752 0.0
C517 C 0.49959 0.15283 -0.00057 0.0
C518 C 0.47941 0.2232 0.0315 0.0
C519 C 0.50056 0.24945 0.99285 0.0
C520 C 0.52095 0.2251 0.95669 0.0
C521 C 0.51979 0.17851 0.95922 0.0
C522 C 0.45546 0.2433 0.06905 0.0
C523 C 0.54576 0.2479 0.9174 0.0
H524 H 0.48079 0.38402 0.85243 0.0
H525 H 0.53902 0.39893 0.15882 0.0
H526 H 0.48642 0.28883 0.7851 0.0
H527 H 0.45157 0.2633 0.81785 0.0
H528 H 0.44656 0.31247 0.76328 0.0
H529 H 0.5671 0.33887 0.2281 0.0
H530 H 0.52316 0.31237 0.21653 0.0
H531 H 0.5488 0.28291 0.1698 0.0
H532 H 0.46596 0.16032 0.07381 0.0
H533 H 0.5365 0.16245 0.93293 0.0
H534 H 0.44726 0.27284 0.03696 0.0
H535 H 0.47077 0.25245 0.14846 0.0
H536 H 0.43004 0.21926 0.05397 0.0
H537 H 0.53152 0.24115 0.83747 0.0
H538 H 0.57163 0.23473 0.94012 0.0
H539 H 0.55324 0.28383 0.94085 0.0
loop_
_geom_bond_atom_site_label_1
_geom_bond_atom_site_label_2
_geom_bond_distance
_geom_bond_site_symmetry_2
_ccdc_geom_bond_type
Tb0 N31 2.660 1_656 S
Tb0 N38 2.600 . S
Tb0 O44 2.546 . S
Tb0 O45 2.610 . S
Tb0 O47 2.319 1_556 S
Tb0 O48 2.552 . S
Tb0 O49 2.413 1_556 S
Tb0 O51 2.362 1_656 S
Tb0 O52 2.421 . S
Tb0 C64 2.833 . S
C1 C4 1.432 . S
C1 C5 1.414 . S
C1 N8 1.359 1_655 S
C2 C4 1.417 1_556 S
C2 C6 1.432 1_556 S
C2 C14 1.410 . S
C3 C5 1.444 . S
C3 C6 1.317 . S
C3 H26 0.929 . S
C4 C1 1.432 . S
C4 C2 1.417 1_554 S
C4 N12 1.360 1_554 S
C5 C1 1.414 . S
C5 C3 1.444 . S
C5 C10 1.385 1_655 S
C6 C2 1.432 1_554 S
C6 C3 1.317 . S
C6 H18 0.930 1_554 S
C7 C9 1.392 . S
C7 C10 1.370 . S
C7 H19 0.931 . S
N8 C1 1.359 1_455 S
N8 C9 1.327 . S
N8 Tb11 2.600 . S
C9 C7 1.392 . S
C9 N8 1.327 . S
C9 H16 0.930 . S
C10 C5 1.385 1_455 S
C10 C7 1.370 . S
C10 H29 0.930 . S
Tb11 N8 2.600 . S
Tb11 N12 2.660 1_454 S
Tb11 O45 2.362 1_454 S
Tb11 O46 2.421 . S
Tb11 O50 2.546 . S
Tb11 O51 2.610 . S
Tb11 O53 2.320 1_554 S
Tb11 O54 2.552 . S
Tb11 O55 2.413 1_554 S
Tb11 C75 2.833 . S
N12 C4 1.360 1_556 S
N12 Tb11 2.660 1_656 S
N12 C13 1.305 . S
C13 N12 1.305 . S
C13 C15 1.407 . S
C13 H20 0.930 . S
C14 C2 1.410 . S
C14 C15 1.345 . S
C14 H22 0.930 . S
C15 C13 1.407 . S
C15 C14 1.345 . S
C15 H17 0.930 . S
H16 C9 0.930 . S
H17 C15 0.930 . S
H18 C6 0.930 1_556 S
H19 C7 0.931 . S
H20 C13 0.930 . S
H21 C35 0.930 . S
H22 C14 0.930 . S
H23 C41 0.930 . S
H24 C32 0.930 . S
H25 C39 0.931 . S
H26 C3 0.929 . S
H27 C33 0.930 . S
H28 C66 0.930 1_554 S
H29 C10 0.930 . S
H30 C65 0.929 . S
N31 Tb0 2.660 1_454 S
N31 C32 1.305 . S
N31 C36 1.353 1_554 S
C32 H24 0.930 . S
C32 N31 1.305 . S
C32 C35 1.407 . S
C33 H27 0.930 . S
C33 C34 1.410 . S
C33 C35 1.345 . S
C34 C33 1.410 . S
C34 C36 1.415 1_554 S
C34 C66 1.432 1_554 S
C35 H21 0.930 . S
C35 C32 1.407 . S
C35 C33 1.345 . S
C36 N31 1.353 1_556 S
C36 C34 1.415 1_556 S
C36 C40 1.441 . S
H37 C42 0.931 1_455 S
N38 Tb0 2.600 . S
N38 C40 1.359 1_655 S
N38 C41 1.327 . S
C39 H25 0.931 . S
C39 C41 1.392 . S
C39 C42 1.370 . S
C40 C36 1.441 . S
C40 N38 1.359 1_455 S
C40 C43 1.414 . S
C41 H23 0.930 . S
C41 N38 1.327 . S
C41 C39 1.392 . S
C42 H37 0.931 1_655 S
C42 C39 1.370 . S
C42 C43 1.385 1_655 S
C43 C40 1.414 . S
C43 C42 1.385 1_455 S
C43 C65 1.444 . S
O44 Tb0 2.546 . S
O44 C64 1.251 . S
O45 Tb0 2.610 . S
O45 Tb11 2.362 1_656 S
O45 C56 1.283 . S
O46 Tb11 2.421 . S
O46 C63 1.262 . S
O47 Tb0 2.319 1_554 S
O47 C63 1.261 1_655 S
O48 Tb0 2.552 . S
O48 C56 1.243 . S
O49 Tb0 2.413 1_554 S
O49 C64 1.256 1_554 S
O50 Tb11 2.546 . S
O50 C75 1.251 . S
O51 Tb0 2.362 1_454 S
O51 Tb11 2.610 . S
O51 C67 1.283 . S
O52 Tb0 2.421 . S
O52 C74 1.262 . S
O53 Tb11 2.320 1_556 S
O53 C74 1.260 1_455 S
O54 Tb11 2.552 . S
O54 C67 1.243 . S
O55 Tb11 2.413 1_556 S
O55 C75 1.256 1_556 S
C56 O45 1.283 . S
C56 O48 1.243 . S
C57 C59 1.382 . S
C57 C61 1.393 . S
C57 C64 1.500 . S
C58 C59 1.400 . S
C58 C60 1.384 . S
C59 C57 1.382 . S
C59 C58 1.400 . S
C59 H76 0.930 1_556 S
C60 C58 1.384 . S
C60 C62 1.392 . S
C60 H77 0.931 . S
C61 C57 1.393 . S
C61 C62 1.401 . S
C61 H78 0.930 . S
C62 C60 1.392 . S
C62 C61 1.401 . S
C62 H79 0.930 . S
C63 O46 1.262 . S
C63 O47 1.261 1_455 S
C64 Tb0 2.833 . S
C64 O44 1.251 . S
C64 O49 1.256 1_556 S
C64 C57 1.500 . S
C65 H30 0.929 . S
C65 C43 1.444 . S
C65 C66 1.317 . S
C66 H28 0.930 1_556 S
C66 C34 1.432 1_556 S
C66 C65 1.317 . S
C67 O51 1.283 . S
C67 O54 1.243 . S
C68 C69 1.382 . S
C68 C72 1.393 . S
C68 C75 1.500 . S
C69 C68 1.382 . S
C69 C70 1.400 . S
C69 H80 0.930 1_554 S
C70 C69 1.400 . S
C70 C71 1.384 . S
C71 C70 1.384 . S
C71 C73 1.392 . S
C71 H81 0.931 . S
C72 C68 1.393 . S
C72 C73 1.401 . S
C72 H82 0.930 . S
C73 C71 1.392 . S
C73 C72 1.401 . S
C73 H83 0.930 . S
C74 O52 1.262 . S
C74 O53 1.260 1_655 S
C75 Tb11 2.833 . S
C75 O50 1.251 . S
C75 O55 1.256 1_554 S
C75 C68 1.500 . S
H76 C59 0.930 1_554 S
H77 C60 0.931 . S
H78 C61 0.930 . S
H79 C62 0.930 . S
H80 C69 0.930 1_556 S
H81 C71 0.931 . S
H82 C72 0.930 . S
H83 C73 0.930 . S
Tb84 N115 2.660 1_545 S
Tb84 N122 2.600 1_545 S
Tb84 O128 2.546 . S
Tb84 O129 2.610 1_554 S
Tb84 O131 2.320 1_554 S
Tb84 O132 2.552 . S
Tb84 O133 2.413 . S
Tb84 O135 2.362 1_545 S
Tb84 O136 2.421 . S
Tb84 C148 2.833 . S
C85 C88 1.432 . S
C85 C89 1.414 . S
C85 N92 1.359 . S
C86 C88 1.417 . S
C86 C90 1.432 . S
C86 C98 1.410 1_556 S
C87 C89 1.444 . S
C87 C90 1.317 . S
C87 H110 0.929 . S
C88 C85 1.432 . S
C88 C86 1.417 . S
C88 N96 1.360 . S
C89 C85 1.414 . S
C89 C87 1.444 . S
C89 C94 1.385 . S
C90 C86 1.432 . S
C90 C87 1.317 . S
C90 H102 0.930 . S
C91 C93 1.392 1_545 S
C91 C94 1.370 . S
C91 H103 0.931 1_545 S
N92 C85 1.359 . S
N92 C93 1.327 1_545 S
N92 Tb95 2.600 1_545 S
C93 C91 1.392 1_565 S
C93 N92 1.327 1_565 S
C93 H100 0.930 . S
C94 C89 1.385 . S
C94 C91 1.370 . S
C94 H113 0.930 . S
Tb95 N92 2.600 1_565 S
Tb95 N96 2.660 1_565 S
Tb95 O129 2.362 1_565 S
Tb95 O130 2.421 . S
Tb95 O134 2.546 . S
Tb95 O135 2.610 1_556 S
Tb95 O137 2.320 1_556 S
Tb95 O138 2.552 . S
Tb95 O139 2.413 . S
Tb95 C159 2.833 . S
N96 C88 1.360 . S
N96 Tb95 2.660 1_545 S
N96 C97 1.305 1_556 S
C97 N96 1.305 1_554 S
C97 C99 1.407 . S
C97 H104 0.930 . S
C98 C86 1.410 1_554 S
C98 C99 1.345 . S
C98 H106 0.930 . S
C99 C97 1.407 . S
C99 C98 1.345 . S
C99 H101 0.930 . S
H100 C93 0.930 . S
H101 C99 0.930 . S
H102 C90 0.930 . S
H103 C91 0.931 1_565 S
H104 C97 0.930 . S
H105 C119 0.930 . S
H106 C98 0.930 . S
H107 C125 0.930 . S
H108 C116 0.930 . S
H109 C123 0.936 . S
H110 C87 0.929 . S
H111 C117 0.930 . S
H112 C150 0.930 . S
H113 C94 0.930 . S
H114 C149 0.929 . S
N115 Tb84 2.660 1_565 S
N115 C116 1.305 1_554 S
N115 C120 1.360 . S
C116 H108 0.930 . S
C116 N115 1.305 1_556 S
C116 C119 1.407 . S
C117 H111 0.930 . S
C117 C118 1.410 1_556 S
C117 C119 1.345 . S
C118 C117 1.410 1_554 S
C118 C120 1.417 . S
C118 C150 1.432 . S
C119 H105 0.930 . S
C119 C116 1.407 . S
C119 C117 1.345 . S
C120 N115 1.360 . S
C120 C118 1.417 . S
C120 C124 1.432 . S
H121 C126 0.930 . S
N122 Tb84 2.600 1_565 S
N122 C124 1.359 . S
N122 C125 1.327 1_565 S
C123 H109 0.936 . S
C123 C125 1.398 . S
C123 C126 1.359 1_545 S
C124 C120 1.432 . S
C124 N122 1.359 . S
C124 C127 1.414 . S
C125 H107 0.930 . S
C125 N122 1.327 1_545 S
C125 C123 1.398 . S
C126 H121 0.930 . S
C126 C123 1.359 1_565 S
C126 C127 1.385 . S
C127 C124 1.414 . S
C127 C126 1.385 . S
C127 C149 1.444 . S
O128 Tb84 2.546 . S
O128 C148 1.251 . S
O129 Tb84 2.610 1_556 S
O129 Tb95 2.362 1_545 S
O129 C140 1.283 . S
O130 Tb95 2.421 . S
O130 C147 1.262 1_565 S
O131 Tb84 2.320 1_556 S
O131 C147 1.260 . S
O132 Tb84 2.552 . S
O132 C140 1.243 1_554 S
O133 Tb84 2.413 . S
O133 C148 1.256 . S
O134 Tb95 2.546 . S
O134 C159 1.251 . S
O135 Tb84 2.362 1_565 S
O135 Tb95 2.610 1_554 S
O135 C151 1.283 . S
O136 Tb84 2.421 . S
O136 C158 1.262 . S
O137 Tb95 2.320 1_554 S
O137 C158 1.260 1_565 S
O138 Tb95 2.552 . S
O138 C151 1.243 1_556 S
O139 Tb95 2.413 . S
O139 C159 1.256 . S
C140 O129 1.283 . S
C140 O132 1.243 1_556 S
C141 C143 1.382 . S
C141 C145 1.393 . S
C141 C148 1.500 . S
C142 C143 1.400 . S
C142 C144 1.384 . S
C143 C141 1.382 . S
C143 C142 1.400 . S
C143 H160 0.930 1_554 S
C144 C142 1.384 . S
C144 C146 1.392 . S
C144 H161 0.931 . S
C145 C141 1.393 . S
C145 C146 1.401 . S
C145 H162 0.930 . S
C146 C144 1.392 . S
C146 C145 1.401 . S
C146 H163 0.930 . S
C147 O130 1.262 1_545 S
C147 O131 1.260 . S
C148 Tb84 2.833 . S
C148 O128 1.251 . S
C148 O133 1.256 . S
C148 C141 1.500 . S
C149 H114 0.929 . S
C149 C127 1.444 . S
C149 C150 1.317 . S
C150 H112 0.930 . S
C150 C118 1.432 . S
C150 C149 1.317 . S
C151 O135 1.283 . S
C151 O138 1.243 1_554 S
C152 C153 1.382 . S
C152 C156 1.393 . S
C152 C159 1.500 . S
C153 C152 1.382 . S
C153 C154 1.400 . S
C153 H164 0.930 1_556 S
C154 C153 1.400 . S
C154 C155 1.384 . S
C155 C154 1.384 . S
C155 C157 1.392 . S
C155 H165 0.931 . S
C156 C152 1.393 . S
C156 C157 1.401 . S
C156 H166 0.930 . S
C157 C155 1.392 . S
C157 C156 1.401 . S
C157 H167 0.930 . S
C158 O136 1.262 . S
C158 O137 1.260 1_545 S
C159 Tb95 2.833 . S
C159 O134 1.251 . S
C159 O139 1.256 . S
C159 C152 1.500 . S
H160 C143 0.930 1_556 S
H161 C144 0.931 . S
H162 C145 0.930 . S
H163 C146 0.930 . S
H164 C153 0.930 1_554 S
H165 C155 0.931 . S
H166 C156 0.930 . S
H167 C157 0.930 . S
Tb168 N199 2.660 . S
Tb168 N206 2.600 . S
Tb168 O212 2.546 . S
Tb168 O213 2.610 1_556 S
Tb168 O215 2.320 1_556 S
Tb168 O216 2.552 . S
Tb168 O217 2.413 . S
Tb168 O219 2.362 . S
Tb168 O220 2.421 . S
Tb168 C232 2.833 . S
C169 C172 1.432 . S
C169 C173 1.414 . S
C169 N176 1.359 . S
C170 C172 1.417 . S
C170 C174 1.432 . S
C170 C182 1.410 1_554 S
C171 C173 1.444 . S
C171 C174 1.317 . S
C171 H194 0.929 . S
C172 C169 1.432 . S
C172 C170 1.417 . S
C172 N180 1.360 . S
C173 C169 1.414 . S
C173 C171 1.444 . S
C173 C178 1.385 . S
C174 C170 1.432 . S
C174 C171 1.317 . S
C174 H186 0.930 . S
C175 C177 1.392 . S
C175 C178 1.370 . S
C175 H187 0.931 . S
N176 C169 1.359 . S
N176 C177 1.327 . S
N176 Tb179 2.600 . S
C177 C175 1.392 . S
C177 N176 1.327 . S
C177 H184 0.930 . S
C178 C173 1.385 . S
C178 C175 1.370 . S
C178 H197 0.930 . S
Tb179 N176 2.600 . S
Tb179 N180 2.660 . S
Tb179 O213 2.362 . S
Tb179 O214 2.421 . S
Tb179 O218 2.546 . S
Tb179 O219 2.610 1_554 S
Tb179 O221 2.320 1_554 S
Tb179 O222 2.552 . S
Tb179 O223 2.413 . S
Tb179 C243 2.833 . S
N180 C172 1.360 . S
N180 Tb179 2.660 . S
N180 C181 1.305 1_554 S
C181 N180 1.305 1_556 S
C181 C183 1.407 . S
C181 H188 0.930 . S
C182 C170 1.410 1_556 S
C182 C183 1.345 . S
C182 H190 0.930 . S
C183 C181 1.407 . S
C183 C182 1.345 . S
C183 H185 0.930 . S
H184 C177 0.930 . S
H185 C183 0.930 . S
H186 C174 0.930 . S
H187 C175 0.931 . S
H188 C181 0.930 . S
H189 C203 0.930 . S
H190 C182 0.930 . S
H191 C209 0.930 . S
H192 C200 0.930 . S
H193 C207 0.931 . S
H194 C171 0.929 . S
H195 C201 0.930 . S
H196 C234 0.930 . S
H197 C178 0.930 . S
H198 C233 0.929 . S
N199 Tb168 2.660 . S
N199 C200 1.305 1_556 S
N199 C204 1.360 . S
C200 H192 0.930 . S
C200 N199 1.305 1_554 S
C200 C203 1.407 . S
C201 H195 0.930 . S
C201 C202 1.410 1_554 S
C201 C203 1.345 . S
C202 C201 1.410 1_556 S
C202 C204 1.417 . S
C202 C234 1.432 . S
C203 H189 0.930 . S
C203 C200 1.407 . S
C203 C201 1.345 . S
C204 N199 1.360 . S
C204 C202 1.417 . S
C204 C208 1.432 . S
H205 C210 0.930 . S
N206 Tb168 2.600 . S
N206 C208 1.359 . S
N206 C209 1.327 . S
C207 H193 0.931 . S
C207 C209 1.392 . S
C207 C210 1.370 . S
C208 C204 1.432 . S
C208 N206 1.359 . S
C208 C211 1.414 . S
C209 H191 0.930 . S
C209 N206 1.327 . S
C209 C207 1.392 . S
C210 H205 0.930 . S
C210 C207 1.370 . S
C210 C211 1.385 . S
C211 C208 1.414 . S
C211 C210 1.385 . S
C211 C233 1.444 . S
O212 Tb168 2.546 . S
O212 C232 1.251 . S
O213 Tb168 2.610 1_554 S
O213 Tb179 2.362 . S
O213 C224 1.283 . S
O214 Tb179 2.421 . S
O214 C231 1.262 . S
O215 Tb168 2.320 1_554 S
O215 C231 1.260 . S
O216 Tb168 2.552 . S
O216 C224 1.243 1_556 S
O217 Tb168 2.413 . S
O217 C232 1.256 . S
O218 Tb179 2.546 . S
O218 C243 1.251 . S
O219 Tb168 2.362 . S
O219 Tb179 2.610 1_556 S
O219 C235 1.283 . S
O220 Tb168 2.421 . S
O220 C242 1.262 . S
O221 Tb179 2.320 1_556 S
O221 C242 1.260 . S
O222 Tb179 2.552 . S
O222 C235 1.243 1_554 S
O223 Tb179 2.413 . S
O223 C243 1.256 . S
C224 O213 1.283 . S
C224 O216 1.243 1_554 S
C225 C227 1.382 . S
C225 C229 1.393 . S
C225 C232 1.500 . S
C226 C227 1.400 . S
C226 C228 1.384 . S
C227 C225 1.382 . S
C227 C226 1.400 . S
C227 H244 0.930 1_556 S
C228 C226 1.384 . S
C228 C230 1.392 . S
C228 H245 0.931 . S
C229 C225 1.393 . S
C229 C230 1.401 . S
C229 H246 0.930 . S
C230 C228 1.392 . S
C230 C229 1.401 . S
C230 H247 0.930 . S
C231 O214 1.262 . S
C231 O215 1.260 . S
C232 Tb168 2.833 . S
C232 O212 1.251 . S
C232 O217 1.256 . S
C232 C225 1.500 . S
C233 H198 0.929 . S
C233 C211 1.444 . S
C233 C234 1.317 . S
C234 H196 0.930 . S
C234 C202 1.432 . S
C234 C233 1.317 . S
C235 O219 1.283 . S
C235 O222 1.243 1_556 S
C236 C237 1.382 . S
C236 C240 1.393 . S
C236 C243 1.500 . S
C237 C236 1.382 . S
C237 C238 1.400 . S
C237 H248 0.930 1_554 S
C238 C237 1.400 . S
C238 C239 1.384 . S
C239 C238 1.384 . S
C239 C241 1.392 . S
C239 H249 0.931 . S
C240 C236 1.393 . S
C240 C241 1.401 . S
C240 H250 0.930 . S
C241 C239 1.392 . S
C241 C240 1.401 . S
C241 H251 0.930 . S
C242 O220 1.262 . S
C242 O221 1.260 . S
C243 Tb179 2.833 . S
C243 O218 1.251 . S
C243 O223 1.256 . S
C243 C236 1.500 . S
H244 C227 0.930 1_554 S
H245 C228 0.931 . S
H246 C229 0.930 . S
H247 C230 0.930 . S
H248 C237 0.930 1_556 S
H249 C239 0.931 . S
H250 C240 0.930 . S
H251 C241 0.930 . S
C252 C253 1.391 . S
C252 C254 1.394 . S
C252 H268 0.931 . S
C253 C252 1.391 . S
C253 C257 1.376 1_655 S
C254 C252 1.394 . S
C254 C255 1.369 . S
C254 C258 1.531 . S
C255 C254 1.369 . S
C255 C256 1.410 1_655 S
C255 C263 1.503 . S
C256 C255 1.410 1_455 S
C256 C257 1.392 . S
C256 C259 1.511 . S
C257 C253 1.376 1_455 S
C257 C256 1.392 . S
C257 H269 0.929 . S
C258 C254 1.531 . S
C258 H270 0.960 . S
C258 H271 0.962 . S
C258 H272 0.960 . S
C259 C256 1.511 . S
C259 H273 0.961 . S
C259 H274 0.961 . S
C259 H275 0.961 . S
C260 C261 1.370 . S
C260 C262 1.363 . S
C260 H276 0.931 . S
C261 C260 1.370 . S
C261 C265 1.408 1_455 S
C262 C260 1.363 . S
C262 C263 1.370 1_455 S
C262 C266 1.524 . S
C263 C255 1.503 . S
C263 C262 1.370 1_655 S
C263 C264 1.403 . S
C264 C263 1.403 . S
C264 C265 1.404 . S
C264 C267 1.539 . S
C265 C261 1.408 1_655 S
C265 C264 1.404 . S
C265 H277 0.930 . S
C266 C262 1.524 . S
C266 H278 0.956 . S
C266 H279 0.961 . S
C266 H280 0.961 . S
C267 C264 1.539 . S
C267 H281 0.958 . S
C267 H282 0.961 . S
C267 H283 0.960 . S
H268 C252 0.931 . S
H269 C257 0.929 . S
H270 C258 0.960 . S
H271 C258 0.962 . S
H272 C258 0.960 . S
H273 C259 0.961 . S
H274 C259 0.961 . S
H275 C259 0.961 . S
H276 C260 0.931 . S
H277 C265 0.930 . S
H278 C266 0.956 . S
H279 C266 0.961 . S
H280 C266 0.961 . S
H281 C267 0.958 . S
H282 C267 0.961 . S
H283 C267 0.960 . S
C284 C285 1.391 . S
C284 C286 1.394 . S
C284 H300 0.931 . S
C285 C284 1.391 . S
C285 C289 1.376 1_565 S
C286 C284 1.394 . S
C286 C287 1.369 . S
C286 C290 1.531 . S
C287 C286 1.369 . S
C287 C288 1.410 1_565 S
C287 C295 1.503 . S
C288 C287 1.410 1_545 S
C288 C289 1.392 . S
C288 C291 1.511 . S
C289 C285 1.376 1_545 S
C289 C288 1.392 . S
C289 H301 0.929 . S
C290 C286 1.531 . S
C290 H302 0.960 . S
C290 H303 0.962 . S
C290 H304 0.960 . S
C291 C288 1.511 . S
C291 H305 0.961 . S
C291 H306 0.961 . S
C291 H307 0.961 . S
C292 C293 1.370 . S
C292 C294 1.363 . S
C292 H308 0.931 . S
C293 C292 1.370 . S
C293 C297 1.408 1_545 S
C294 C292 1.363 . S
C294 C295 1.371 1_545 S
C294 C298 1.524 . S
C295 C287 1.503 . S
C295 C294 1.371 1_565 S
C295 C296 1.402 . S
C296 C295 1.402 . S
C296 C297 1.404 . S
C296 C299 1.539 . S
C297 C293 1.408 1_565 S
C297 C296 1.404 . S
C297 H309 0.930 . S
C298 C294 1.524 . S
C298 H310 0.956 . S
C298 H311 0.961 . S
C298 H312 0.961 . S
C299 C296 1.539 . S
C299 H313 0.958 . S
C299 H314 0.961 . S
C299 H315 0.960 . S
H300 C284 0.931 . S
H301 C289 0.929 . S
H302 C290 0.960 . S
H303 C290 0.962 . S
H304 C290 0.960 . S
H305 C291 0.961 . S
H306 C291 0.961 . S
H307 C291 0.961 . S
H308 C292 0.931 . S
H309 C297 0.930 . S
H310 C298 0.956 . S
H311 C298 0.961 . S
H312 C298 0.961 . S
H313 C299 0.958 . S
H314 C299 0.961 . S
H315 C299 0.960 . S
C316 C317 1.391 . S
C316 C318 1.394 . S
C316 H332 0.931 . S
C317 C316 1.391 . S
C317 C321 1.376 . S
C318 C316 1.394 . S
C318 C319 1.369 . S
C318 C322 1.531 . S
C319 C318 1.369 . S
C319 C320 1.410 . S
C319 C327 1.503 . S
C320 C319 1.410 . S
C320 C321 1.392 . S
C320 C323 1.511 . S
C321 C317 1.376 . S
C321 C320 1.392 . S
C321 H333 0.929 . S
C322 C318 1.531 . S
C322 H334 0.960 . S
C322 H335 0.962 . S
C322 H336 0.960 . S
C323 C320 1.511 . S
C323 H337 0.961 . S
C323 H338 0.961 . S
C323 H339 0.961 . S
C324 C325 1.370 . S
C324 C326 1.363 . S
C324 H340 0.931 . S
C325 C324 1.370 . S
C325 C329 1.408 . S
C326 C324 1.363 . S
C326 C327 1.370 . S
C326 C330 1.524 . S
C327 C319 1.503 . S
C327 C326 1.370 . S
C327 C328 1.403 . S
C328 C327 1.403 . S
C328 C329 1.404 . S
C328 C331 1.539 . S
C329 C325 1.408 . S
C329 C328 1.404 . S
C329 H341 0.930 . S
C330 C326 1.524 . S
C330 H342 0.956 . S
C330 H343 0.961 . S
C330 H344 0.961 . S
C331 C328 1.539 . S
C331 H345 0.958 . S
C331 H346 0.961 . S
C331 H347 0.960 . S
H332 C316 0.931 . S
H333 C321 0.929 . S
H334 C322 0.960 . S
H335 C322 0.962 . S
H336 C322 0.960 . S
H337 C323 0.961 . S
H338 C323 0.961 . S
H339 C323 0.961 . S
H340 C324 0.931 . S
H341 C329 0.930 . S
H342 C330 0.956 . S
H343 C330 0.961 . S
H344 C330 0.961 . S
H345 C331 0.958 . S
H346 C331 0.961 . S
H347 C331 0.960 . S
C348 C349 1.391 . S
C348 C350 1.394 . S
C348 H364 0.931 1_554 S
C349 C348 1.391 . S
C349 C353 1.376 . S
C350 C348 1.394 . S
C350 C351 1.369 . S
C350 C354 1.531 1_554 S
C351 C350 1.369 . S
C351 C352 1.410 . S
C351 C359 1.503 . S
C352 C351 1.410 . S
C352 C353 1.392 . S
C352 C355 1.511 . S
C353 C349 1.376 . S
C353 C352 1.392 . S
C353 H365 0.929 . S
C354 C350 1.531 1_556 S
C354 H366 0.960 1_556 S
C354 H367 0.962 . S
C354 H368 0.960 1_556 S
C355 C352 1.511 . S
C355 H369 0.961 . S
C355 H370 0.961 . S
C355 H371 0.961 . S
C356 C357 1.370 1_556 S
C356 C358 1.363 . S
C356 H372 0.931 . S
C357 C356 1.370 1_554 S
C357 C361 1.408 . S
C358 C356 1.363 . S
C358 C359 1.370 1_556 S
C358 C362 1.524 . S
C359 C351 1.503 . S
C359 C358 1.370 1_554 S
C359 C360 1.403 . S
C360 C359 1.403 . S
C360 C361 1.404 . S
C360 C363 1.539 . S
C361 C357 1.408 . S
C361 C360 1.404 . S
C361 H373 0.930 . S
C362 C358 1.524 . S
C362 H374 0.956 . S
C362 H375 0.961 . S
C362 H376 0.961 . S
C363 C360 1.539 . S
C363 H377 0.958 . S
C363 H378 0.961 . S
C363 H379 0.960 . S
H364 C348 0.931 1_556 S
H365 C353 0.929 . S
H366 C354 0.960 1_554 S
H367 C354 0.962 . S
H368 C354 0.960 1_554 S
H369 C355 0.961 . S
H370 C355 0.961 . S
H371 C355 0.961 . S
H372 C356 0.931 . S
H373 C361 0.930 . S
H374 C362 0.956 . S
H375 C362 0.961 . S
H376 C362 0.961 . S
H377 C363 0.958 . S
H378 C363 0.961 . S
H379 C363 0.960 . S
C380 C381 1.391 1_556 S
C380 C382 1.394 . S
C380 H396 0.931 . S
C381 C380 1.391 1_554 S
C381 C385 1.376 . S
C382 C380 1.394 . S
C382 C383 1.369 1_556 S
C382 C386 1.531 . S
C383 C382 1.369 1_554 S
C383 C384 1.410 . S
C383 C391 1.503 . S
C384 C383 1.410 . S
C384 C385 1.392 . S
C384 C387 1.511 . S
C385 C381 1.376 . S
C385 C384 1.392 . S
C385 H397 0.929 . S
C386 C382 1.531 . S
C386 H398 0.960 . S
C386 H399 0.962 . S
C386 H400 0.960 . S
C387 C384 1.511 . S
C387 H401 0.961 . S
C387 H402 0.961 . S
C387 H403 0.961 . S
C388 C389 1.370 . S
C388 C390 1.363 . S
C388 H404 0.931 . S
C389 C388 1.370 . S
C389 C393 1.408 1_554 S
C390 C388 1.363 . S
C390 C391 1.370 . S
C390 C394 1.524 . S
C391 C383 1.503 . S
C391 C390 1.370 . S
C391 C392 1.403 1_554 S
C392 C391 1.403 1_556 S
C392 C393 1.404 . S
C392 C395 1.539 . S
C393 C389 1.408 1_556 S
C393 C392 1.404 . S
C393 H405 0.930 . S
C394 C390 1.524 . S
C394 H406 0.956 . S
C394 H407 0.961 . S
C394 H408 0.961 . S
C395 C392 1.539 . S
C395 H409 0.958 . S
C395 H410 0.961 . S
C395 H411 0.960 . S
H396 C380 0.931 . S
H397 C385 0.929 . S
H398 C386 0.960 . S
H399 C386 0.962 . S
H400 C386 0.960 . S
H401 C387 0.961 . S
H402 C387 0.961 . S
H403 C387 0.961 . S
H404 C388 0.931 . S
H405 C393 0.930 . S
H406 C394 0.956 . S
H407 C394 0.961 . S
H408 C394 0.961 . S
H409 C395 0.958 . S
H410 C395 0.961 . S
H411 C395 0.960 . S
C412 C413 1.391 . S
C412 C414 1.394 . S
C412 H428 0.931 . S
C413 C412 1.391 . S
C413 C417 1.376 1_554 S
C414 C412 1.394 . S
C414 C415 1.369 . S
C414 C418 1.531 . S
C415 C414 1.369 . S
C415 C416 1.410 1_554 S
C415 C423 1.503 . S
C416 C415 1.410 1_556 S
C416 C417 1.392 . S
C416 C419 1.511 . S
C417 C413 1.376 1_556 S
C417 C416 1.392 . S
C417 H429 0.929 . S
C418 C414 1.531 . S
C418 H430 0.960 . S
C418 H431 0.962 . S
C418 H432 0.960 . S
C419 C416 1.511 . S
C419 H433 0.961 . S
C419 H434 0.961 . S
C419 H435 0.961 . S
C420 C421 1.370 . S
C420 C422 1.363 . S
C420 H436 0.931 . S
C421 C420 1.370 . S
C421 C425 1.408 1_554 S
C422 C420 1.363 . S
C422 C423 1.370 . S
C422 C426 1.524 . S
C423 C415 1.503 . S
C423 C422 1.370 . S
C423 C424 1.403 1_554 S
C424 C423 1.403 1_556 S
C424 C425 1.404 . S
C424 C427 1.539 . S
C425 C421 1.408 1_556 S
C425 C424 1.404 . S
C425 H437 0.930 . S
C426 C422 1.524 . S
C426 H438 0.956 . S
C426 H439 0.961 . S
C426 H440 0.961 . S
C427 C424 1.539 . S
C427 H441 0.958 . S
C427 H442 0.961 . S
C427 H443 0.960 . S
H428 C412 0.931 . S
H429 C417 0.929 . S
H430 C418 0.960 . S
H431 C418 0.962 . S
H432 C418 0.960 . S
H433 C419 0.961 . S
H434 C419 0.961 . S
H435 C419 0.961 . S
H436 C420 0.931 . S
H437 C425 0.930 . S
H438 C426 0.956 . S
H439 C426 0.961 . S
H440 C426 0.961 . S
H441 C427 0.958 . S
H442 C427 0.961 . S
H443 C427 0.960 . S
C444 C445 1.391 . S
C444 C446 1.394 1_556 S
C444 H460 0.931 . S
C445 C444 1.391 . S
C445 C449 1.376 1_556 S
C446 C444 1.394 1_554 S
C446 C447 1.369 . S
C446 C450 1.531 1_554 S
C447 C446 1.369 . S
C447 C448 1.410 . S
C447 C455 1.503 . S
C448 C447 1.410 . S
C448 C449 1.392 . S
C448 C451 1.511 . S
C449 C445 1.376 1_554 S
C449 C448 1.392 . S
C449 H461 0.929 . S
C450 C446 1.531 1_556 S
C450 H462 0.960 1_556 S
C450 H463 0.962 . S
C450 H464 0.960 1_556 S
C451 C448 1.511 . S
C451 H465 0.961 . S
C451 H466 0.961 . S
C451 H467 0.961 . S
C452 C453 1.370 1_556 S
C452 C454 1.363 . S
C452 H468 0.931 . S
C453 C452 1.370 1_554 S
C453 C457 1.408 . S
C454 C452 1.363 . S
C454 C455 1.370 1_556 S
C454 C458 1.524 . S
C455 C447 1.503 . S
C455 C454 1.370 1_554 S
C455 C456 1.403 . S
C456 C455 1.403 . S
C456 C457 1.404 . S
C456 C459 1.539 . S
C457 C453 1.408 . S
C457 C456 1.404 . S
C457 H469 0.930 . S
C458 C454 1.524 . S
C458 H470 0.956 . S
C458 H471 0.961 . S
C458 H472 0.961 . S
C459 C456 1.539 . S
C459 H473 0.958 . S
C459 H474 0.961 . S
C459 H475 0.960 . S
H460 C444 0.931 . S
H461 C449 0.929 . S
H462 C450 0.960 1_554 S
H463 C450 0.962 . S
H464 C450 0.960 1_554 S
H465 C451 0.961 . S
H466 C451 0.961 . S
H467 C451 0.961 . S
H468 C452 0.931 . S
H469 C457 0.930 . S
H470 C458 0.956 . S
H471 C458 0.961 . S
H472 C458 0.961 . S
H473 C459 0.958 . S
H474 C459 0.961 . S
H475 C459 0.960 . S
C476 C477 1.391 1_554 S
C476 C478 1.394 . S
C476 H492 0.931 . S
C477 C476 1.391 1_556 S
C477 C481 1.376 . S
C478 C476 1.394 . S
C478 C479 1.369 1_554 S
C478 C482 1.531 . S
C479 C478 1.369 1_556 S
C479 C480 1.410 . S
C479 C487 1.503 . S
C480 C479 1.410 . S
C480 C481 1.392 . S
C480 C483 1.511 . S
C481 C477 1.376 . S
C481 C480 1.392 . S
C481 H493 0.929 . S
C482 C478 1.531 . S
C482 H494 0.960 . S
C482 H495 0.962 . S
C482 H496 0.960 . S
C483 C480 1.511 . S
C483 H497 0.961 . S
C483 H498 0.961 . S
C483 H499 0.961 . S
C484 C485 1.370 . S
C484 C486 1.363 . S
C484 H500 0.931 . S
C485 C484 1.370 . S
C485 C489 1.411 . S
C486 C484 1.363 . S
C486 C487 1.370 . S
C486 C490 1.524 . S
C487 C479 1.503 . S
C487 C486 1.370 . S
C487 C488 1.403 . S
C488 C487 1.403 . S
C488 C489 1.398 . S
C488 C491 1.539 1_556 S
C489 C485 1.411 . S
C489 C488 1.398 . S
C489 H501 0.933 1_556 S
C490 C486 1.524 . S
C490 H502 0.956 1_556 S
C490 H503 0.961 . S
C490 H504 0.961 . S
C491 C488 1.539 1_554 S
C491 H505 0.958 . S
C491 H506 0.961 1_554 S
C491 H507 0.960 1_554 S
H492 C476 0.931 . S
H493 C481 0.929 . S
H494 C482 0.960 . S
H495 C482 0.962 . S
H496 C482 0.960 . S
H497 C483 0.961 . S
H498 C483 0.961 . S
H499 C483 0.961 . S
H500 C484 0.931 . S
H501 C489 0.933 1_554 S
H502 C490 0.956 1_554 S
H503 C490 0.961 . S
H504 C490 0.961 . S
H505 C491 0.958 . S
H506 C491 0.961 1_556 S
H507 C491 0.960 1_556 S
C508 C509 1.391 . S
C508 C510 1.394 . S
C508 H524 0.931 . S
C509 C508 1.391 . S
C509 C513 1.376 1_556 S
C510 C508 1.394 . S
C510 C511 1.369 . S
C510 C514 1.531 . S
C511 C510 1.369 . S
C511 C512 1.410 1_556 S
C511 C519 1.503 . S
C512 C511 1.410 1_554 S
C512 C513 1.392 . S
C512 C515 1.511 . S
C513 C509 1.376 1_554 S
C513 C512 1.392 . S
C513 H525 0.929 . S
C514 C510 1.531 . S
C514 H526 0.960 . S
C514 H527 0.962 . S
C514 H528 0.960 . S
C515 C512 1.511 . S
C515 H529 0.961 . S
C515 H530 0.961 . S
C515 H531 0.961 . S
C516 C517 1.370 1_554 S
C516 C518 1.364 . S
C516 H532 0.931 . S
C517 C516 1.370 1_556 S
C517 C521 1.408 . S
C518 C516 1.364 . S
C518 C519 1.367 1_554 S
C518 C522 1.527 . S
C519 C511 1.503 . S
C519 C518 1.367 1_556 S
C519 C520 1.403 . S
C520 C519 1.403 . S
C520 C521 1.404 . S
C520 C523 1.539 . S
C521 C517 1.408 . S
C521 C520 1.404 . S
C521 H533 0.930 . S
C522 C518 1.527 . S
C522 H534 0.956 1_554 S
C522 H535 0.961 . S
C522 H536 0.961 . S
C523 C520 1.539 . S
C523 H537 0.958 . S
C523 H538 0.961 . S
C523 H539 0.960 . S
H524 C508 0.931 . S
H525 C513 0.929 . S
H526 C514 0.960 . S
H527 C514 0.962 . S
H528 C514 0.960 . S
H529 C515 0.961 . S
H530 C515 0.961 . S
H531 C515 0.961 . S
H532 C516 0.931 . S
H533 C521 0.930 . S
H534 C522 0.956 1_556 S
H535 C522 0.961 . S
H536 C522 0.961 . S
H537 C523 0.958 . S
H538 C523 0.961 . S
H539 C523 0.960 . S
C253 C74 1.468 . S
C261 C63 1.492 . S
C285 C158 1.491 1_565 S
C293 C147 1.467 . S
C317 C242 1.505 . S
C325 C231 1.481 . S
C349 C67 1.549 . S
C357 C226 1.506 1_554 S
C381 C142 0.858 . S
C389 C58 0.800 1_554 S
C413 C151 2.283 . S
C421 C224 2.365 . S
C445 C56 1.574 . S
C453 C238 1.466 . S
C477 C70 0.822 1_556 S
C485 C154 0.803 . S
C509 C235 2.366 . S
C517 C140 2.307 . S
