# Generated by pormake.
# Topology sra, (4)-cn, num edge types: 1
# Building blocks:
#     Node 0, Type 0, BuildingBlock: NAHDIM_clean_sbu_0, # of connection points: 4
#     Node 1, Type 0, BuildingBlock: NAHDIM_clean_sbu_0, # of connection points: 4
#     Node 2, Type 0, BuildingBlock: NAHDIM_clean_sbu_0, # of connection points: 4
#     Node 3, Type 0, BuildingBlock: NAHDIM_clean_sbu_0, # of connection points: 4
#     Node 4, Type 0, BuildingBlock: NAHDIM_clean_sbu_0, # of connection points: 4
#     Node 5, Type 0, BuildingBlock: NAHDIM_clean_sbu_0, # of connection points: 4
#     Node 6, Type 0, BuildingBlock: NAHDIM_clean_sbu_0, # of connection points: 4
#     Node 7, Type 0, BuildingBlock: NAHDIM_clean_sbu_0, # of connection points: 4
#     Edge 8, Type (0, 0), BuildingBlock: MIFKUJ_clean_linker_0, # of connection points: 2
#     Edge 9, Type (0, 0), BuildingBlock: MIFKUJ_clean_linker_0, # of connection points: 2
#     Edge 10, Type (0, 0), BuildingBlock: MIFKUJ_clean_linker_0, # of connection points: 2
#     Edge 11, Type (0, 0), BuildingBlock: MIFKUJ_clean_linker_0, # of connection points: 2
#     Edge 12, Type (0, 0), BuildingBlock: MIFKUJ_clean_linker_0, # of connection points: 2
#     Edge 13, Type (0, 0), BuildingBlock: MIFKUJ_clean_linker_0, # of connection points: 2
#     Edge 14, Type (0, 0), BuildingBlock: MIFKUJ_clean_linker_0, # of connection points: 2
#     Edge 15, Type (0, 0), BuildingBlock: MIFKUJ_clean_linker_0, # of connection points: 2
#     Edge 16, Type (0, 0), BuildingBlock: MIFKUJ_clean_linker_0, # of connection points: 2
#     Edge 17, Type (0, 0), BuildingBlock: MIFKUJ_clean_linker_0, # of connection points: 2
#     Edge 18, Type (0, 0), BuildingBlock: MIFKUJ_clean_linker_0, # of connection points: 2
#     Edge 19, Type (0, 0), BuildingBlock: MIFKUJ_clean_linker_0, # of connection points: 2
#     Edge 20, Type (0, 0), BuildingBlock: MIFKUJ_clean_linker_0, # of connection points: 2
#     Edge 21, Type (0, 0), BuildingBlock: MIFKUJ_clean_linker_0, # of connection points: 2
#     Edge 22, Type (0, 0), BuildingBlock: MIFKUJ_clean_linker_0, # of connection points: 2
#     Edge 23, Type (0, 0), BuildingBlock: MIFKUJ_clean_linker_0, # of connection points: 2
# Relax obj value: 0.091
# Max RMSD: 0.091
# Mean RMSD: 0.091
data_MOF--net-sra--node1-NAHDIM_clean_sbu_0--edge1-MIFKUJ_clean_linker_0
_symmetry_space_group_name_H-M    P1
_symmetry_Int_Tables_number       1
_symmetry_cell_setting            triclinic
loop_
_symmetry_equiv_pos_as_xyz
'x, y, z'
_cell_length_a     32.71342
_cell_length_b     62.259945
_cell_length_c     52.810667
_cell_angle_alpha  89.962384
_cell_angle_beta   90.062451
_cell_angle_gamma 89.898037
loop_
_atom_site_label
_atom_site_type_symbol
_atom_site_fract_x
_atom_site_fract_y
_atom_site_fract_z
_atom_type_partial_charge
C0 C 0.00351 0.04928 0.1106 0.0
O1 O 0.99634 0.0391 0.13193 0.0
O2 O 0.95814 0.07349 0.16397 0.0
Zn3 Zn 0.00682 0.08439 0.14448 0.0
O4 O 0.05973 0.07837 0.16239 0.0
C5 C 0.98148 0.1282 0.15379 0.0
O6 O 0.96112 0.11939 0.17252 0.0
O7 O 0.0088 0.06948 0.11103 0.0
C8 C 0.06952 0.08788 0.18277 0.0
O9 O 0.04375 0.10153 0.19304 0.0
C10 C 0.96022 0.06358 0.18498 0.0
O11 O 0.99602 0.05978 0.19532 0.0
O12 O 0.00238 0.11631 0.13913 0.0
C13 C 0.04688 0.42111 0.10641 0.0
O14 O 0.07974 0.41263 0.11671 0.0
O15 O 0.05266 0.40928 0.17251 0.0
Zn16 Zn 0.00633 0.40183 0.1492 0.0
O17 O 0.9522 0.40942 0.16462 0.0
C18 C 0.01645 0.35726 0.16004 0.0
O19 O 0.02731 0.36512 0.18212 0.0
O20 O 0.01236 0.4182 0.11684 0.0
C21 C 0.94717 0.41479 0.18761 0.0
O22 O 0.97898 0.41586 0.20275 0.0
C23 C 0.06408 0.42848 0.1765 0.0
O24 O 0.04471 0.44435 0.16526 0.0
O25 O 0.00654 0.3701 0.14235 0.0
C26 C 0.02532 0.93085 0.87793 0.0
O27 O 0.04147 0.93927 0.85744 0.0
O28 O 0.95738 0.90363 0.82501 0.0
Zn29 Zn 0.00871 0.89611 0.84401 0.0
O30 O 0.05914 0.90346 0.82425 0.0
C31 C 0.98024 0.85201 0.84753 0.0
O32 O 0.94577 0.86003 0.8389 0.0
O33 O 0.00943 0.91228 0.87677 0.0
C34 C 0.06062 0.90596 0.8004 0.0
O35 O 0.02712 0.90391 0.78689 0.0
C36 C 0.94978 0.92206 0.81577 0.0
O37 O 0.977 0.93743 0.81793 0.0
O38 O 0.01044 0.86442 0.85129 0.0
C39 C 0.04128 0.55871 0.88905 0.0
O40 O 0.0738 0.56579 0.87712 0.0
O41 O 0.04942 0.57807 0.82731 0.0
Zn42 Zn -0.00043 0.58132 0.84926 0.0
O43 O 0.94948 0.5723 0.82989 0.0
C44 C 0.02158 0.62348 0.86814 0.0
O45 O 0.05698 0.61432 0.87288 0.0
O46 O 0.00599 0.56338 0.88055 0.0
C47 C 0.93542 0.58563 0.81386 0.0
O48 O 0.95435 0.60401 0.81067 0.0
C49 C 0.06109 0.59288 0.81242 0.0
O50 O 0.03962 0.61067 0.81078 0.0
O51 O 0.9928 0.61231 0.85885 0.0
C52 C 0.48757 0.55734 0.60983 0.0
O53 O 0.47356 0.54869 0.63078 0.0
O54 O 0.44925 0.59164 0.66084 0.0
Zn55 Zn 0.50303 0.59316 0.64262 0.0
O56 O 0.5479 0.5817 0.66462 0.0
C57 C 0.48676 0.6371 0.62961 0.0
O58 O 0.44902 0.62999 0.62837 0.0
O59 O 0.50127 0.5764 0.61034 0.0
C60 C 0.55503 0.59102 0.68553 0.0
O61 O 0.53212 0.60741 0.69223 0.0
C62 C 0.44168 0.57818 0.67829 0.0
O63 O 0.46968 0.56402 0.68467 0.0
O64 O 0.51538 0.62406 0.63498 0.0
C65 C 0.5194 0.94276 0.61187 0.0
O66 O 0.52723 0.95316 0.63297 0.0
O67 O 0.56629 0.9159 0.66448 0.0
Zn68 Zn 0.51464 0.90777 0.64617 0.0
O69 O 0.46402 0.91604 0.66512 0.0
C70 C 0.54553 0.86478 0.63753 0.0
O71 O 0.58131 0.87432 0.63807 0.0
O72 O 0.51324 0.92265 0.61273 0.0
C73 C 0.45589 0.90856 0.6869 0.0
O74 O 0.48234 0.89577 0.69807 0.0
C75 C 0.56872 0.9279 0.68388 0.0
O76 O 0.53533 0.93609 0.69375 0.0
O77 O 0.51331 0.87592 0.6405 0.0
C78 C 0.51442 0.4393 0.3772 0.0
O79 O 0.53223 0.44841 0.35768 0.0
O80 O 0.44652 0.41363 0.32221 0.0
Zn81 Zn 0.49824 0.40637 0.34072 0.0
O82 O 0.54776 0.4153 0.32092 0.0
C83 C 0.49093 0.36253 0.32695 0.0
O84 O 0.47989 0.3716 0.30553 0.0
O85 O 0.4979 0.421 0.37449 0.0
C86 C 0.54849 0.41591 0.29689 0.0
O87 O 0.51531 0.41108 0.28409 0.0
C88 C 0.43565 0.43253 0.31606 0.0
O89 O 0.45947 0.44882 0.32164 0.0
O90 O 0.5004 0.3744 0.34561 0.0
C91 C 0.50211 0.05555 0.37514 0.0
O92 O 0.49075 0.04586 0.3542 0.0
O93 O 0.57147 0.07963 0.3236 0.0
Zn94 Zn 0.51931 0.08909 0.34026 0.0
O95 O 0.46878 0.08218 0.32007 0.0
C96 C 0.51949 0.13274 0.32533 0.0
O97 O 0.51825 0.12347 0.30302 0.0
O98 O 0.5154 0.07467 0.37398 0.0
C99 C 0.46637 0.07957 0.29625 0.0
O100 O 0.49953 0.08078 0.28233 0.0
C101 C 0.5769 0.06227 0.31141 0.0
O102 O 0.5464 0.04885 0.30826 0.0
O103 O 0.52089 0.12107 0.34505 0.0
H104 H 0.04309 0.32572 0.19201 0.0
H105 H 0.03714 0.2869 0.18642 0.0
H106 H 0.97851 0.29673 0.11414 0.0
H107 H 0.98431 0.33565 0.11955 0.0
H108 H 0.9378 0.26743 0.14374 0.0
H109 H 0.07403 0.27983 0.11487 0.0
H110 H 0.1444 0.29384 0.11704 0.0
H111 H 0.16737 0.2559 0.18349 0.0
H112 H 0.09692 0.24189 0.18194 0.0
H113 H 0.02273 0.15154 0.11818 0.0
H114 H 0.02715 0.19061 0.11472 0.0
H115 H 0.94772 0.19738 0.17939 0.0
H116 H 0.94267 0.15834 0.18281 0.0
H117 H 0.05776 0.21865 0.14778 0.0
H118 H 0.89173 0.24319 0.17325 0.0
H119 H 0.82164 0.22922 0.16836 0.0
H120 H 0.85877 0.19329 0.1029 0.0
H121 H 0.92892 0.20727 0.10719 0.0
C122 C 0.02909 0.31965 0.17486 0.0
C123 C 0.0142 0.33377 0.15621 0.0
C124 C 0.02583 0.29746 0.17167 0.0
C125 C 0.0076 0.28898 0.14981 0.0
C126 C 0.9927 0.30299 0.13114 0.0
C127 C 0.99619 0.32521 0.13423 0.0
C128 C 0.00335 0.26545 0.14678 0.0
C129 C 0.964 0.25674 0.14453 0.0
C130 C 0.03763 0.25159 0.14741 0.0
C131 C 0.08006 0.25995 0.1484 0.0
C132 C 0.09397 0.27461 0.13007 0.0
C133 C 0.1339 0.28252 0.13116 0.0
C134 C 0.16031 0.2758 0.15042 0.0
C135 C 0.14687 0.26111 0.16859 0.0
C136 C 0.10695 0.25316 0.1676 0.0
C137 C 0.00588 0.16133 0.13154 0.0
C138 C 0.98235 0.15182 0.15079 0.0
C139 C 0.00856 0.18365 0.12957 0.0
C140 C 0.9876 0.19689 0.14669 0.0
C141 C 0.96369 0.18746 0.16574 0.0
C142 C 0.96097 0.16513 0.16773 0.0
C143 C 0.99209 0.22055 0.1453 0.0
C144 C 0.03153 0.2293 0.14681 0.0
C145 C 0.95791 0.23444 0.14364 0.0
C146 C 0.91567 0.22614 0.1407 0.0
C147 C 0.88489 0.23238 0.15775 0.0
C148 C 0.84516 0.22445 0.15509 0.0
C149 C 0.83579 0.21033 0.13538 0.0
C150 C 0.8661 0.20417 0.11822 0.0
C151 C 0.90587 0.21207 0.12078 0.0
H152 H 0.80502 0.20419 0.13337 0.0
H153 H 0.19122 0.28194 0.15123 0.0
H154 H 0.92276 0.82079 0.84007 0.0
H155 H 0.93037 0.78216 0.84683 0.0
H156 H 0.05429 0.79177 0.87238 0.0
H157 H 0.04718 0.8304 0.86536 0.0
H158 H 0.0492 0.75899 0.83909 0.0
H159 H 0.97837 0.78104 0.91449 0.0
H160 H 0.92343 0.79877 0.93868 0.0
H161 H 0.83432 0.75795 0.90346 0.0
H162 H 0.88869 0.74016 0.87879 0.0
H163 H 0.07848 0.6529 0.88357 0.0
H164 H 0.07158 0.69203 0.88369 0.0
H165 H 0.94684 0.68629 0.85803 0.0
H166 H 0.95321 0.64724 0.85819 0.0
H167 H 0.95408 0.71735 0.89327 0.0
H168 H 0.02189 0.69678 0.81644 0.0
H169 H 0.07497 0.67885 0.7909 0.0
H170 H 0.16769 0.71673 0.82709 0.0
H171 H 0.11515 0.73468 0.85315 0.0
C172 C 0.9516 0.81471 0.84723 0.0
C173 C 0.98434 0.82868 0.85223 0.0
C174 C 0.95583 0.79263 0.85117 0.0
C175 C 0.99277 0.78413 0.86036 0.0
C176 C 0.02552 0.79802 0.86531 0.0
C177 C 0.02134 0.82009 0.86135 0.0
C178 C -0.00248 0.76069 0.86428 0.0
C179 C 0.02885 0.74994 0.85128 0.0
C180 C 0.97028 0.74883 0.87967 0.0
C181 C 0.93758 0.75939 0.89464 0.0
C182 C 0.94703 0.77595 0.91177 0.0
C183 C 0.91599 0.78599 0.92559 0.0
C184 C 0.8754 0.77953 0.92257 0.0
C185 C 0.86577 0.76296 0.90577 0.0
C186 C 0.89669 0.75287 0.89188 0.0
C187 C 0.04943 0.65995 0.87824 0.0
C188 C 0.0165 0.64697 0.87068 0.0
C189 C 0.0456 0.68231 0.87822 0.0
C190 C 0.00888 0.69204 0.87051 0.0
C191 C 0.97546 0.6791 0.864 0.0
C192 C 0.97923 0.65678 0.86403 0.0
C193 C 0.00573 0.71568 0.86809 0.0
C194 C 0.97466 0.72645 0.88128 0.0
C195 C 0.03298 0.72755 0.85271 0.0
C196 C 0.06463 0.71691 0.83694 0.0
C197 C 0.05362 0.70117 0.8191 0.0
C198 C 0.0836 0.69103 0.80451 0.0
C199 C 0.12467 0.69662 0.80741 0.0
C200 C 0.13585 0.7124 0.82489 0.0
C201 C 0.10599 0.72258 0.83957 0.0
H202 H 0.1478 0.68879 0.79604 0.0
H203 H 0.85142 0.78733 0.93328 0.0
H204 H 0.56152 0.65667 0.62824 0.0
H205 H 0.57566 0.69514 0.62573 0.0
H206 H 0.44626 0.70833 0.622 0.0
H207 H 0.43188 0.66988 0.62392 0.0
H208 H 0.48718 0.73357 0.59 0.0
H209 H 0.49993 0.71289 0.67772 0.0
H210 H 0.52718 0.69161 0.71336 0.0
H211 H 0.6487 0.7131 0.69623 0.0
H212 H 0.62222 0.7343 0.66025 0.0
H213 H 0.47619 0.84075 0.633 0.0
H214 H 0.47104 0.80192 0.62789 0.0
H215 H 0.60253 0.79667 0.62863 0.0
H216 H 0.60805 0.83563 0.63393 0.0
H217 H 0.56635 0.76726 0.65961 0.0
H218 H 0.55178 0.79068 0.57389 0.0
H219 H 0.52341 0.81222 0.53882 0.0
H220 H 0.40424 0.78595 0.55268 0.0
H221 H 0.43178 0.76447 0.58808 0.0
C222 C 0.53607 0.66774 0.6267 0.0
C223 C 0.49554 0.66024 0.62648 0.0
C224 C 0.54421 0.68973 0.62535 0.0
C225 C 0.51199 0.70461 0.62409 0.0
C226 C 0.47159 0.69712 0.62302 0.0
C227 C 0.46342 0.67514 0.62419 0.0
C228 C 0.52015 0.72802 0.62473 0.0
C229 C 0.5042 0.74097 0.60532 0.0
C230 C 0.54324 0.73759 0.6444 0.0
C231 C 0.55915 0.72499 0.66614 0.0
C232 C 0.5325 0.71296 0.68144 0.0
C233 C 0.5478 0.70092 0.70172 0.0
C234 C 0.58966 0.70095 0.70701 0.0
C235 C 0.61629 0.71307 0.69208 0.0
C236 C 0.60116 0.7251 0.67176 0.0
C237 C 0.50408 0.83139 0.63197 0.0
C238 C 0.54256 0.84129 0.63385 0.0
C239 C 0.50105 0.80919 0.62893 0.0
C240 C 0.53641 0.79646 0.62759 0.0
C241 C 0.57489 0.80625 0.62952 0.0
C242 C 0.57797 0.8285 0.6325 0.0
C243 C 0.53292 0.77284 0.62506 0.0
C244 C 0.54972 0.75985 0.64413 0.0
C245 C 0.51046 0.76326 0.60515 0.0
C246 C 0.49381 0.77608 0.58378 0.0
C247 C 0.51946 0.78961 0.56959 0.0
C248 C 0.50354 0.80179 0.54962 0.0
C249 C 0.46204 0.80049 0.54356 0.0
C250 C 0.43638 0.78695 0.55741 0.0
C251 C 0.45214 0.77475 0.57741 0.0
H252 H 0.44977 0.80993 0.52809 0.0
H253 H 0.60145 0.69162 0.72271 0.0
H254 H 0.47571 0.33313 0.28991 0.0
H255 H 0.47946 0.29411 0.29303 0.0
H256 H 0.51349 0.29921 0.37175 0.0
H257 H 0.51051 0.33843 0.36869 0.0
H258 H 0.56058 0.27051 0.34777 0.0
H259 H 0.41763 0.28358 0.35532 0.0
H260 H 0.35049 0.29886 0.34396 0.0
H261 H 0.3537 0.2657 0.27273 0.0
H262 H 0.42117 0.25045 0.2835 0.0
H263 H 0.52942 0.15747 0.36779 0.0
H264 H 0.52416 0.19664 0.37091 0.0
H265 H 0.49942 0.20048 0.29079 0.0
H266 H 0.50466 0.16147 0.28746 0.0
H267 H 0.44541 0.22445 0.31984 0.0
H268 H 0.59111 0.2135 0.31198 0.0
H269 H 0.65788 0.19818 0.32412 0.0
H270 H 0.64805 0.22725 0.39757 0.0
H271 H 0.58091 0.24251 0.38598 0.0
C272 C 0.48388 0.32599 0.30794 0.0
C273 C 0.49269 0.33888 0.32908 0.0
C274 C 0.48583 0.30367 0.30971 0.0
C275 C 0.49619 0.29375 0.33272 0.0
C276 C 0.5053 0.30655 0.35384 0.0
C277 C 0.50348 0.32894 0.35207 0.0
C278 C 0.4983 0.27002 0.33441 0.0
C279 C 0.53514 0.26043 0.34211 0.0
C280 C 0.46528 0.25689 0.3267 0.0
C281 C 0.42464 0.26601 0.32014 0.0
C282 C 0.40418 0.27967 0.33714 0.0
C283 C 0.36603 0.28831 0.33083 0.0
C284 C 0.34788 0.28329 0.30762 0.0
C285 C 0.36782 0.26958 0.2907 0.0
C286 C 0.40599 0.26092 0.29691 0.0
C287 C 0.52299 0.16667 0.35083 0.0
C288 C 0.5175 0.15639 0.32736 0.0
C289 C 0.52009 0.18902 0.35264 0.0
C290 C 0.51153 0.20139 0.33106 0.0
C291 C 0.50599 0.19117 0.30766 0.0
C292 C 0.50918 0.16889 0.30579 0.0
C293 C 0.50784 0.22503 0.33275 0.0
C294 C 0.47066 0.23457 0.32572 0.0
C295 C 0.54042 0.23807 0.34124 0.0
C296 C 0.58078 0.22893 0.34821 0.0
C297 C 0.60301 0.21646 0.3308 0.0
C298 C 0.64096 0.20782 0.33756 0.0
C299 C 0.65714 0.21168 0.36163 0.0
C300 C 0.63545 0.22424 0.37896 0.0
C301 C 0.59746 0.23289 0.37229 0.0
H302 H 0.68653 0.20498 0.36683 0.0
H303 H 0.31834 0.28999 0.30277 0.0
H304 H 0.44951 0.06709 0.24767 0.0
H305 H 0.38226 0.06447 0.22757 0.0
H306 H 0.32498 0.08408 0.29745 0.0
H307 H 0.39172 0.08592 0.31783 0.0
H308 H 0.28131 0.0542 0.27682 0.0
H309 H 0.34293 0.11964 0.24719 0.0
H310 H 0.3962 0.14188 0.22717 0.0
H311 H 0.3823 0.10675 0.15775 0.0
H312 H 0.32928 0.08411 0.17749 0.0
H313 H 0.09506 0.09919 0.23018 0.0
H314 H 0.1629 0.09371 0.24873 0.0
H315 H 0.2031 0.06262 0.18016 0.0
H316 H 0.1353 0.06781 0.16153 0.0
H317 H 0.25569 0.09556 0.19802 0.0
H318 H 0.18768 0.03235 0.22865 0.0
H319 H 0.13243 0.01238 0.24987 0.0
H320 H 0.1563 0.04629 0.31909 0.0
H321 H 0.21132 0.0667 0.29817 0.0
C322 C 0.42253 0.0707 0.25876 0.0
C323 C 0.42591 0.07685 0.28427 0.0
C324 C 0.38415 0.06928 0.24724 0.0
C325 C 0.3486 0.07445 0.26088 0.0
C326 C 0.35193 0.08002 0.28653 0.0
C327 C 0.39017 0.08113 0.29814 0.0
C328 C 0.30796 0.07473 0.2484 0.0
C329 C 0.27568 0.06339 0.2597 0.0
C330 C 0.30069 0.08642 0.22581 0.0
C331 C 0.3325 0.10003 0.2139 0.0
C332 C 0.35146 0.11655 0.22772 0.0
C333 C 0.38157 0.12925 0.21641 0.0
C334 C 0.39271 0.12568 0.19122 0.0
C335 C 0.37369 0.10946 0.17727 0.0
C336 C 0.3436 0.0967 0.1885 0.0
C337 C 0.11827 0.09108 0.2191 0.0
C338 C 0.10989 0.08395 0.1944 0.0
C339 C 0.1569 0.0879 0.22975 0.0
C340 C 0.1878 0.07769 0.21581 0.0
C341 C 0.17954 0.0705 0.19119 0.0
C342 C 0.14079 0.07344 0.18064 0.0
C343 C 0.22921 0.07526 0.22662 0.0
C344 C 0.26155 0.08622 0.215 0.0
C345 C 0.23634 0.06353 0.24911 0.0
C346 C 0.2034 0.05119 0.26177 0.0
C347 C 0.18093 0.03568 0.24834 0.0
C348 C 0.14969 0.02426 0.26032 0.0
C349 C 0.14079 0.0281 0.28579 0.0
C350 C 0.1632 0.04334 0.29935 0.0
C351 C 0.19444 0.05483 0.28745 0.0
H352 H 0.1166 0.01923 0.29504 0.0
H353 H 0.41602 0.13553 0.1825 0.0
H354 H 0.62025 0.42995 0.31742 0.0
H355 H 0.68609 0.43384 0.2962 0.0
H356 H 0.63084 0.4154 0.22528 0.0
H357 H 0.56474 0.41138 0.24639 0.0
H358 H 0.69948 0.39223 0.23597 0.0
H359 H 0.66074 0.46618 0.23379 0.0
H360 H 0.63636 0.50065 0.25109 0.0
H361 H 0.7402 0.50329 0.30079 0.0
H362 H 0.76492 0.46865 0.28404 0.0
H363 H 0.87505 0.4108 0.16202 0.0
H364 H 0.80601 0.41474 0.17884 0.0
H365 H 0.85546 0.43121 0.25202 0.0
H366 H 0.92491 0.42739 0.23532 0.0
H367 H 0.78856 0.45665 0.23826 0.0
H368 H 0.82452 0.38188 0.24274 0.0
H369 H 0.84915 0.34724 0.22599 0.0
H370 H 0.75009 0.34609 0.1726 0.0
H371 H 0.7252 0.38091 0.1888 0.0
C372 C 0.62196 0.42695 0.29725 0.0
C373 C 0.58733 0.42024 0.2836 0.0
C374 C 0.65958 0.42929 0.28513 0.0
C375 C 0.66325 0.425 0.25916 0.0
C376 C 0.62856 0.41881 0.24535 0.0
C377 C 0.59083 0.41657 0.25742 0.0
C378 C 0.7039 0.42548 0.24691 0.0
C379 C 0.71864 0.40644 0.23603 0.0
C380 C 0.72925 0.44386 0.24767 0.0
C381 C 0.71449 0.4647 0.25781 0.0
C382 C 0.6782 0.474 0.24857 0.0
C383 C 0.66435 0.4936 0.25824 0.0
C384 C 0.68666 0.50413 0.27707 0.0
C385 C 0.72292 0.4951 0.28622 0.0
C386 C 0.7369 0.4755 0.27662 0.0
C387 C 0.87135 0.41542 0.18165 0.0
C388 C 0.90549 0.41859 0.19742 0.0
C389 C 0.83185 0.41764 0.19122 0.0
C390 C 0.82573 0.42303 0.21671 0.0
C391 C 0.85964 0.42701 0.23228 0.0
C392 C 0.89925 0.42473 0.22274 0.0
C393 C 0.78396 0.42342 0.22737 0.0
C394 C 0.76914 0.44254 0.23802 0.0
C395 C 0.75849 0.4051 0.2265 0.0
C396 C 0.77327 0.38411 0.21679 0.0
C397 C 0.80819 0.37433 0.22728 0.0
C398 C 0.82216 0.35465 0.21792 0.0
C399 C 0.80127 0.3445 0.19819 0.0
C400 C 0.76628 0.35399 0.18785 0.0
C401 C 0.75222 0.37369 0.19712 0.0
H402 H 0.81212 0.32926 0.19097 0.0
H403 H 0.67589 0.5193 0.28454 0.0
H404 H 0.07469 0.91713 0.75101 0.0
H405 H 0.14094 0.92251 0.73049 0.0
H406 H 0.2022 0.909 0.80117 0.0
H407 H 0.13633 0.90431 0.82191 0.0
H408 H 0.23924 0.94067 0.77823 0.0
H409 H 0.19102 0.87055 0.75378 0.0
H410 H 0.14234 0.84461 0.73551 0.0
H411 H 0.14918 0.87682 0.66371 0.0
H412 H 0.19753 0.90313 0.68167 0.0
H413 H 0.43245 0.90098 0.73576 0.0
H414 H 0.3642 0.9058 0.75394 0.0
H415 H 0.32028 0.93029 0.6825 0.0
H416 H 0.3884 0.92579 0.66424 0.0
H417 H 0.27321 0.89641 0.70302 0.0
H418 H 0.32879 0.96426 0.72788 0.0
H419 H 0.37939 0.98859 0.74714 0.0
H420 H 0.36094 0.95868 0.8195 0.0
H421 H 0.31064 0.93393 0.80059 0.0
C422 C 0.10229 0.91543 0.76218 0.0
C423 C 0.1003 0.91013 0.78802 0.0
C424 C 0.14012 0.91845 0.75043 0.0
C425 C 0.17655 0.91583 0.76421 0.0
C426 C 0.17451 0.91111 0.79015 0.0
C427 C 0.13679 0.90834 0.80196 0.0
C428 C 0.21694 0.91721 0.7516 0.0
C429 C 0.24675 0.93088 0.76189 0.0
C430 C 0.22651 0.90476 0.72997 0.0
C431 C 0.19749 0.88895 0.71914 0.0
C432 C 0.18189 0.8722 0.73415 0.0
C433 C 0.1544 0.85741 0.72384 0.0
C434 C 0.14257 0.85911 0.69849 0.0
C435 C 0.1583 0.87555 0.68336 0.0
C436 C 0.18576 0.8904 0.69359 0.0
C437 C 0.40837 0.90761 0.72401 0.0
C438 C 0.41574 0.91294 0.69856 0.0
C439 C 0.3695 0.91043 0.73444 0.0
C440 C 0.33738 0.91845 0.71953 0.0
C441 C 0.34478 0.92411 0.69427 0.0
C442 C 0.38372 0.92157 0.68392 0.0
C443 C 0.29551 0.91961 0.72989 0.0
C444 C 0.26548 0.90639 0.71918 0.0
C445 C 0.28597 0.93225 0.7513 0.0
C446 C 0.3162 0.94711 0.76275 0.0
C447 C 0.33579 0.96273 0.74785 0.0
C448 C 0.36436 0.97663 0.75872 0.0
C449 C 0.37345 0.97515 0.78452 0.0
C450 C 0.3539 0.95979 0.79951 0.0
C451 C 0.32532 0.94584 0.78873 0.0
H452 H 0.39557 0.98593 0.7929 0.0
H453 H 0.1213 0.84764 0.69054 0.0
H454 H 0.58363 0.61047 0.72829 0.0
H455 H 0.64699 0.6026 0.75091 0.0
H456 H 0.67019 0.54922 0.70085 0.0
H457 H 0.60713 0.55724 0.67776 0.0
H458 H 0.67954 0.56937 0.77653 0.0
H459 H 0.77252 0.54881 0.68771 0.0
H460 H 0.77077 0.5548 0.6415 0.0
H461 H 0.70563 0.61399 0.65261 0.0
H462 H 0.70747 0.60847 0.69887 0.0
H463 H 0.88548 0.55036 0.81753 0.0
H464 H 0.82028 0.54451 0.79566 0.0
H465 H 0.83399 0.60521 0.75714 0.0
H466 H 0.89902 0.61099 0.77845 0.0
H467 H 0.80626 0.57537 0.72544 0.0
H468 H 0.77506 0.60042 0.81037 0.0
H469 H 0.77675 0.59839 0.85702 0.0
H470 H 0.7182 0.53674 0.8545 0.0
H471 H 0.71662 0.53832 0.80779 0.0
C472 C 0.60192 0.59689 0.72226 0.0
C473 C 0.59069 0.58467 0.70101 0.0
C474 C 0.63803 0.59234 0.7353 0.0
C475 C 0.66351 0.5755 0.72736 0.0
C476 C 0.6512 0.56248 0.70706 0.0
C477 C 0.61518 0.56709 0.6939 0.0
C478 C 0.7044 0.57291 0.739 0.0
C479 C 0.70728 0.57041 0.76535 0.0
C480 C 0.74056 0.57443 0.72442 0.0
C481 C 0.7397 0.57807 0.69668 0.0
C482 C 0.75792 0.56312 0.68027 0.0
C483 C 0.7569 0.56643 0.65408 0.0
C484 C 0.73796 0.58472 0.64413 0.0
C485 C 0.72015 0.59979 0.66034 0.0
C486 C 0.72114 0.59657 0.68653 0.0
C487 C 0.87471 0.56235 0.80423 0.0
C488 C 0.89726 0.58121 0.79984 0.0
C489 C 0.83746 0.55901 0.79181 0.0
C490 C 0.82219 0.57452 0.77494 0.0
C491 C 0.84527 0.59301 0.77003 0.0
C492 C 0.88238 0.59634 0.78235 0.0
C493 C 0.78145 0.57222 0.76303 0.0
C494 C 0.77859 0.57376 0.73659 0.0
C495 C 0.74534 0.57028 0.77759 0.0
C496 C 0.74618 0.56937 0.80563 0.0
C497 C 0.76283 0.58637 0.81977 0.0
C498 C 0.76372 0.58531 0.84621 0.0
C499 C 0.74771 0.56741 0.85871 0.0
C500 C 0.73067 0.55057 0.84479 0.0
C501 C 0.72976 0.55154 0.81834 0.0
H502 H 0.74842 0.56663 0.87918 0.0
H503 H 0.73717 0.58724 0.62385 0.0
H504 H 0.58474 0.94151 0.73209 0.0
H505 H 0.65167 0.94477 0.75239 0.0
H506 H 0.71033 0.92709 0.68221 0.0
H507 H 0.64357 0.92296 0.6622 0.0
H508 H 0.74158 0.90495 0.71736 0.0
H509 H 0.7144 0.97948 0.70758 0.0
H510 H 0.67525 0.01326 0.71057 0.0
H511 H 0.67551 0.00852 0.79169 0.0
H512 H 0.71419 0.97454 0.78919 0.0
H513 H 0.92927 0.95614 0.78544 0.0
H514 H 0.86614 0.96092 0.76102 0.0
H515 H 0.81923 0.90166 0.79175 0.0
H516 H 0.88238 0.89647 0.81552 0.0
H517 H 0.78715 0.96514 0.772 0.0
H518 H 0.76765 0.87457 0.74814 0.0
H519 H 0.81102 0.84265 0.74129 0.0
H520 H 0.91111 0.88311 0.7194 0.0
H521 H 0.86818 0.91525 0.72577 0.0
C522 C 0.61196 0.93855 0.72095 0.0
C523 C 0.60896 0.93183 0.69563 0.0
C524 C 0.65023 0.94055 0.73252 0.0
C525 C 0.68615 0.93633 0.71879 0.0
C526 C 0.6831 0.93033 0.69324 0.0
C527 C 0.64492 0.92799 0.68181 0.0
C528 C 0.72666 0.9365 0.7315 0.0
C529 C 0.75153 0.9182 0.72918 0.0
C530 C 0.74019 0.95392 0.74656 0.0
C531 C 0.71692 0.97436 0.74818 0.0
C532 C 0.70584 0.98555 0.72606 0.0
C533 C 0.68378 0.00476 0.72766 0.0
C534 C 0.67283 0.01301 0.7513 0.0
C535 C 0.68399 0.0021 0.77339 0.0
C536 C 0.70603 0.98288 0.77189 0.0
C537 C 0.90543 0.94418 0.78702 0.0
C538 C 0.91098 0.92579 0.80213 0.0
C539 C 0.86935 0.94697 0.77314 0.0
C540 C 0.8383 0.93146 0.77424 0.0
C541 C 0.84317 0.91358 0.79017 0.0
C542 C 0.87927 0.91067 0.80378 0.0
C543 C 0.80127 0.93344 0.75821 0.0
C544 C 0.77715 0.95205 0.75997 0.0
C545 C 0.78891 0.9166 0.74196 0.0
C546 C 0.81476 0.89732 0.73764 0.0
C547 C 0.79884 0.87665 0.74174 0.0
C548 C 0.82337 0.85852 0.73796 0.0
C549 C 0.86383 0.86085 0.72999 0.0
C550 C 0.87981 0.88133 0.72566 0.0
C551 C 0.8554 0.8995 0.72937 0.0
H552 H 0.88278 0.8468 0.72711 0.0
H553 H 0.65575 0.02788 0.75251 0.0
H554 H 0.4136 0.55069 0.71475 0.0
H555 H 0.34844 0.55255 0.73735 0.0
H556 H 0.31527 0.60913 0.69481 0.0
H557 H 0.3803 0.6075 0.67224 0.0
H558 H 0.30076 0.61371 0.74563 0.0
H559 H 0.27338 0.56183 0.68016 0.0
H560 H 0.28585 0.52885 0.65549 0.0
H561 H 0.27243 0.49077 0.72278 0.0
H562 H 0.26043 0.52357 0.74793 0.0
H563 H 0.09138 0.61987 0.77629 0.0
H564 H 0.15578 0.6165 0.75331 0.0
H565 H 0.1823 0.55756 0.79316 0.0
H566 H 0.11743 0.56053 0.81582 0.0
H567 H 0.20098 0.55378 0.74441 0.0
H568 H 0.22821 0.6048 0.81008 0.0
H569 H 0.21613 0.63737 0.83555 0.0
H570 H 0.23087 0.67662 0.76932 0.0
H571 H 0.24255 0.64423 0.74337 0.0
C572 C 0.3924 0.5635 0.71016 0.0
C573 C 0.40207 0.57892 0.69167 0.0
C574 C 0.35517 0.56449 0.72304 0.0
C575 C 0.327 0.5809 0.71761 0.0
C576 C 0.33664 0.59636 0.69926 0.0
C577 C 0.37375 0.59534 0.68632 0.0
C578 C 0.28756 0.58211 0.73121 0.0
C579 C 0.27869 0.60073 0.74513 0.0
C580 C 0.25938 0.56491 0.73107 0.0
C581 C 0.26642 0.54517 0.71596 0.0
C582 C 0.27342 0.54644 0.68973 0.0
C583 C 0.28034 0.52777 0.67566 0.0
C584 C 0.28004 0.50773 0.68757 0.0
C585 C 0.27271 0.50631 0.71358 0.0
C586 C 0.26581 0.52492 0.72775 0.0
C587 C 0.11083 0.60614 0.78012 0.0
C588 C 0.09941 0.59051 0.79794 0.0
C589 C 0.14772 0.60429 0.76705 0.0
C590 C 0.1741 0.58695 0.77182 0.0
C591 C 0.16241 0.57109 0.78924 0.0
C592 C 0.12537 0.57284 0.8022 0.0
C593 C 0.21403 0.58543 0.75875 0.0
C594 C 0.22305 0.56676 0.74497 0.0
C595 C 0.24249 0.60253 0.75916 0.0
C596 C 0.23592 0.62207 0.77474 0.0
C597 C 0.22863 0.62036 0.80092 0.0
C598 C 0.2219 0.63879 0.81544 0.0
C599 C 0.22269 0.65905 0.80405 0.0
C600 C 0.23028 0.66091 0.77811 0.0
C601 C 0.23701 0.64253 0.76349 0.0
H602 H 0.21748 0.6733 0.81534 0.0
H603 H 0.2854 0.4933 0.67665 0.0
H604 H 0.59373 0.04052 0.26782 0.0
H605 H 0.6605 0.03626 0.24756 0.0
H606 H 0.71769 0.0687 0.31059 0.0
H607 H 0.65077 0.07414 0.32995 0.0
H608 H 0.74632 0.08454 0.27122 0.0
H609 H 0.72706 0.01192 0.29754 0.0
H610 H 0.69164 0.97721 0.30209 0.0
H611 H 0.69113 0.96933 0.22132 0.0
H612 H 0.72607 0.00414 0.21626 0.0
H613 H 0.95021 0.05765 0.23573 0.0
H614 H 0.88567 0.05237 0.25841 0.0
H615 H 0.82057 0.05098 0.18741 0.0
H616 H 0.88479 0.05686 0.16458 0.0
H617 H 0.79872 0.01777 0.23144 0.0
H618 H 0.81369 0.0938 0.20781 0.0
H619 H 0.8538 0.12728 0.20598 0.0
H620 H 0.86674 0.12653 0.28691 0.0
H621 H 0.82729 0.0928 0.28913 0.0
C622 C 0.6207 0.04652 0.27739 0.0
C623 C 0.61724 0.05774 0.30032 0.0
C624 C 0.6589 0.04396 0.26591 0.0
C625 C 0.69439 0.05195 0.27764 0.0
C626 C 0.69087 0.06249 0.30105 0.0
C627 C 0.65265 0.06556 0.31214 0.0
C628 C 0.73474 0.05082 0.26478 0.0
C629 C 0.75782 0.06978 0.26295 0.0
C630 C 0.74988 0.0317 0.25356 0.0
C631 C 0.72885 0.01075 0.25652 0.0
C632 C 0.71911 0.00287 0.28074 0.0
C633 C 0.69918 0.98316 0.28341 0.0
C634 C 0.68905 0.9711 0.26201 0.0
C635 C 0.69894 0.9787 0.23788 0.0
C636 C 0.71886 -0.00159 0.2351 0.0
C637 C 0.92225 0.05587 0.22494 0.0
C638 C 0.92235 0.05785 0.19844 0.0
C639 C 0.88553 0.05281 0.2379 0.0
C640 C 0.84864 0.05126 0.22449 0.0
C641 C 0.84891 0.05202 0.19798 0.0
C642 C 0.88548 0.05553 0.18503 0.0
C643 C 0.80945 0.05134 0.2382 0.0
C644 C 0.78683 0.03232 0.24002 0.0
C645 C 0.79497 0.07023 0.2499 0.0
C646 C 0.81799 0.09068 0.2486 0.0
C647 C 0.82542 0.10068 0.22518 0.0
C648 C 0.84797 0.11971 0.22407 0.0
C649 C 0.86291 0.12899 0.24631 0.0
C650 C 0.85521 0.1193 0.2697 0.0
C651 C 0.83276 0.10023 0.27089 0.0
H652 H 0.88037 0.14373 0.24542 0.0
H653 H 0.67362 0.95584 0.26412 0.0
H654 H 0.099 0.46729 0.18808 0.0
H655 H 0.15913 0.47365 0.21476 0.0
H656 H 0.16936 0.40558 0.2288 0.0
H657 H 0.10932 0.39911 0.20262 0.0
H658 H 0.18003 0.4284 0.27161 0.0
H659 H 0.22869 0.43098 0.18453 0.0
H660 H 0.23007 0.44534 0.14099 0.0
H661 H 0.26023 0.50789 0.16959 0.0
H662 H 0.25849 0.49394 0.21334 0.0
H663 H 0.38039 0.40205 0.30224 0.0
H664 H 0.31466 0.40732 0.28154 0.0
H665 H 0.33483 0.47575 0.27987 0.0
H666 H 0.40137 0.47061 0.30053 0.0
H667 H 0.30533 0.46046 0.2347 0.0
H668 H 0.26793 0.45614 0.32143 0.0
H669 H 0.26768 0.44144 0.36479 0.0
H670 H 0.21647 0.38242 0.33733 0.0
H671 H 0.21695 0.39664 0.29373 0.0
C672 C 0.11397 0.4537 0.19697 0.0
C673 C 0.09951 0.43268 0.19315 0.0
C674 C 0.14835 0.45737 0.21213 0.0
C675 C 0.16884 0.44007 0.22359 0.0
C676 C 0.15394 0.41916 0.22017 0.0
C677 C 0.11968 0.41549 0.2051 0.0
C678 C 0.20645 0.44335 0.23872 0.0
C679 C 0.20746 0.43537 0.26355 0.0
C680 C 0.24177 0.45316 0.22847 0.0
C681 C 0.24296 0.46149 0.20219 0.0
C682 C 0.23529 0.44783 0.18153 0.0
C683 C 0.2362 0.45589 0.15682 0.0
C684 C 0.24509 0.47753 0.15253 0.0
C685 C 0.25324 0.49115 0.17294 0.0
C686 C 0.25232 0.48318 0.19769 0.0
C687 C 0.37097 0.41826 0.29754 0.0
C688 C 0.39605 0.43594 0.30316 0.0
C689 C 0.33324 0.42124 0.28581 0.0
C690 C 0.31959 0.44195 0.27958 0.0
C691 C 0.34476 0.45966 0.28471 0.0
C692 C 0.38268 0.45669 0.29652 0.0
C693 C 0.27928 0.44473 0.26724 0.0
C694 C 0.27769 0.45391 0.24299 0.0
C695 C 0.24336 0.43603 0.27802 0.0
C696 C 0.24267 0.42744 0.30427 0.0
C697 C 0.25685 0.43998 0.3246 0.0
C698 C 0.25663 0.43173 0.34923 0.0
C699 C 0.24211 0.411 0.3538 0.0
C700 C 0.2277 0.39848 0.33376 0.0
C701 C 0.22787 0.40664 0.30908 0.0
H702 H 0.24199 0.40465 0.37289 0.0
H703 H 0.24579 0.48374 0.13338 0.0
H704 H 0.98561 0.00706 0.10232 0.0
H705 H 0.99099 0.98724 0.06258 0.0
H706 H 0.03395 0.04444 0.02493 0.0
H707 H 0.02767 0.06453 0.06447 0.0
H708 H 0.97934 0.02463 -0.00338 0.0
H709 H 0.09988 0.00365 0.04178 0.0
H710 H 0.13973 0.9898 0.07795 0.0
H711 H 0.07632 0.9296 0.07332 0.0
H712 H 0.03566 0.9432 0.03733 0.0
H713 H 0.05156 0.97192 0.88601 0.0
H714 H 0.04944 0.9922 0.92561 0.0
H715 H 0.99614 0.93768 0.96359 0.0
H716 H -0.00167 0.9172 0.92415 0.0
H717 H 0.05785 0.95651 0.99129 0.0
H718 H 0.93655 0.9785 0.94617 0.0
H719 H 0.89824 0.99273 0.90956 0.0
H720 H 0.96576 0.0517 0.91372 0.0
H721 H 0.0049 0.0377 0.95016 0.0
C722 C 0.9962 0.01543 0.08558 0.0
C723 C 0.00634 0.03734 0.08653 0.0
C724 C -0.00054 0.00405 0.06292 0.0
C725 C 0.01347 0.01429 0.04089 0.0
C726 C 0.02316 0.03622 0.04173 0.0
C727 C 0.01961 0.04766 0.06434 0.0
C728 C 0.01749 0.00219 0.0169 0.0
C729 C -0.00298 0.00991 -0.00463 0.0
C730 C 0.03997 0.98278 0.0154 0.0
C731 C 0.06446 0.97452 0.037 0.0
C732 C 0.09421 0.98751 0.0486 0.0
C733 C 0.11698 0.9797 0.06904 0.0
C734 C 0.11049 0.95885 0.07797 0.0
C735 C 0.08128 0.94575 0.06641 0.0
C736 C 0.05839 0.9535 0.04597 0.0
C737 C 0.03947 0.96421 0.90279 0.0
C738 C 0.02494 0.94299 0.90193 0.0
C739 C 0.03819 0.97585 0.92536 0.0
C740 C 0.02228 0.96647 0.9474 0.0
C741 C 0.00848 0.94517 0.94674 0.0
C742 C 0.00963 0.93355 0.92417 0.0
C743 C 0.0196 0.97894 0.97115 0.0
C744 C 0.04032 0.97128 0.99259 0.0
C745 C -0.00239 -0.00152 0.97253 0.0
C746 C 0.97393 0.00696 0.95072 0.0
C747 C 0.94345 0.99444 0.93915 0.0
C748 C 0.92155 0.00247 0.91846 0.0
C749 C 0.92964 0.02308 0.90928 0.0
C750 C 0.95957 0.03573 0.92083 0.0
C751 C 0.9816 0.02776 0.94151 0.0
H752 H 0.91265 0.02928 0.89326 0.0
H753 H 0.12816 0.95283 0.0938 0.0
H754 H 0.9804 0.54307 0.91914 0.0
H755 H 0.98748 0.5207 0.95684 0.0
H756 H 0.11868 0.5217 0.94879 0.0
H757 H 0.11191 0.544 0.91082 0.0
H758 H 0.08995 0.48139 0.95846 0.0
H759 H 0.07537 0.55137 0.99394 0.0
H760 H 0.04433 0.5871 4e-05 0.0
H761 H 0.93291 0.55774 0.02529 0.0
H762 H 0.96307 0.5218 0.01899 0.0
H763 H 0.11615 0.43347 0.08121 0.0
H764 H 0.12069 0.45759 0.04468 0.0
H765 H 0.98932 0.46382 0.04382 0.0
H766 H 0.9845 0.44006 0.08038 0.0
H767 H 0.026 0.50227 0.03998 0.0
H768 H 0.03919 0.43236 0.00091 0.0
H769 H 0.07032 0.39667 0.9945 0.0
H770 H 0.18504 0.42621 0.97613 0.0
H771 H 0.15471 0.46209 0.98276 0.0
C772 C 0.0108 0.53859 0.92538 0.0
C773 C 0.04561 0.54535 0.91202 0.0
C774 C 0.01478 0.52588 0.947 0.0
C775 C 0.05362 0.51977 0.95574 0.0
C776 C 0.08845 0.52632 0.94236 0.0
C777 C 0.08451 0.53909 0.92073 0.0
C778 C 0.05753 0.5062 0.97861 0.0
C779 C 0.07664 0.48609 0.97643 0.0
C780 C 0.03966 0.51228 0.00191 0.0
C781 C 0.0214 0.53388 0.00579 0.0
C782 C 0.04414 0.55252 0.0006 0.0
C783 C 0.02672 0.57282 0.00413 0.0
C784 C 0.98665 0.57469 0.013 0.0
C785 C 0.96394 0.55627 0.01841 0.0
C786 C 0.9812 0.53593 0.01489 0.0
C787 C 0.08823 0.43989 0.07315 0.0
C788 C 0.04996 0.43485 0.08369 0.0
C789 C 0.09089 0.45363 0.05227 0.0
C790 C 0.05532 0.4624 0.04151 0.0
C791 C 0.01714 0.45727 0.0519 0.0
C792 C 0.01446 0.44362 0.07275 0.0
C793 C 0.05752 0.47725 0.01966 0.0
C794 C 0.03966 0.49765 0.02208 0.0
C795 C 0.07659 0.47144 -0.00338 0.0
C796 C 0.09481 0.44989 0.99262 0.0
C797 C 0.07115 0.43124 -0.00428 0.0
C798 C 0.08863 0.41098 0.992 0.0
C799 C 0.12966 0.40917 0.98499 0.0
C800 C 0.15328 0.42763 0.98161 0.0
C801 C 0.13596 0.44793 0.98533 0.0
H802 H 0.14314 0.39347 0.98212 0.0
H803 H 0.97322 0.59042 0.01572 0.0
H804 H 0.54534 0.47874 0.38908 0.0
H805 H 0.5409 0.49748 0.42959 0.0
H806 H 0.47544 0.44387 0.46161 0.0
H807 H 0.47923 0.42509 0.42104 0.0
H808 H 0.43949 0.48137 0.47345 0.0
H809 H 0.57456 0.45214 0.47675 0.0
H810 H 0.6443 0.44455 0.46148 0.0
H811 H 0.67057 0.51208 0.45988 0.0
H812 H 0.60076 0.52011 0.4748 0.0
H813 H 0.45814 0.51684 0.60157 0.0
H814 H 0.46233 0.49585 0.56252 0.0
H815 H 0.52407 0.54839 0.52558 0.0
H816 H 0.52026 0.56944 0.56449 0.0
H817 H 0.56207 0.50986 0.5174 0.0
H818 H 0.4256 0.5388 0.51296 0.0
H819 H 0.35586 0.54598 0.52852 0.0
H820 H 0.33255 0.47823 0.53284 0.0
H821 H 0.40239 0.47063 0.51763 0.0
C822 C 0.53013 0.47088 0.40475 0.0
C823 C 0.51269 0.45042 0.40187 0.0
C824 C 0.52776 0.48159 0.42791 0.0
C825 C 0.50821 0.47195 0.44865 0.0
C826 C 0.49071 0.45155 0.44583 0.0
C827 C 0.49302 0.44083 0.42266 0.0
C828 C 0.50524 0.48343 0.4731 0.0
C829 C 0.46632 0.48731 0.48329 0.0
C830 C 0.54024 0.49149 0.48563 0.0
C831 C 0.58228 0.48673 0.47667 0.0
C832 C 0.59509 0.46539 0.47294 0.0
C833 C 0.63466 0.461 0.46439 0.0
C834 C 0.66182 0.47783 0.45965 0.0
C835 C 0.64948 0.49907 0.46352 0.0
C836 C 0.60993 0.50354 0.47205 0.0
C837 C 0.47249 0.52396 0.58511 0.0
C838 C 0.48885 0.54481 0.58611 0.0
C839 C 0.47475 0.51197 0.56282 0.0
C840 C 0.49332 0.52064 0.54117 0.0
C841 C 0.50966 0.54142 0.54211 0.0
C842 C 0.50731 0.55345 0.56434 0.0
C843 C 0.49634 0.50796 0.51759 0.0
C844 C 0.53527 0.50383 0.5076 0.0
C845 C 0.46138 0.49961 0.5053 0.0
C846 C 0.41937 0.50415 0.51442 0.0
C847 C 0.40572 0.52543 0.51744 0.0
C848 C 0.36615 0.52958 0.52615 0.0
C849 C 0.33983 0.51257 0.53174 0.0
C850 C 0.35299 0.49138 0.52855 0.0
C851 C 0.39256 0.48715 0.51987 0.0
H852 H 0.3092 0.51582 0.53847 0.0
H853 H 0.69244 0.4744 0.45304 0.0
H854 H 0.49581 0.92678 0.56602 0.0
H855 H 0.49091 0.94602 0.52586 0.0
H856 H 0.533 0.00395 0.56227 0.0
H857 H 0.53712 0.98492 0.60271 0.0
H858 H 0.46962 0.01211 0.53182 0.0
H859 H 0.59682 0.97379 0.52496 0.0
H860 H 0.64166 0.94192 0.52607 0.0
H861 H 0.57122 0.91273 0.46674 0.0
H862 H 0.52561 0.94432 0.46551 0.0
H863 H 0.5234 0.07099 0.42172 0.0
H864 H 0.52346 0.05163 0.46194 0.0
H865 H 0.47768 0.99506 0.42433 0.0
H866 H 0.47794 0.01423 0.38391 0.0
H867 H 0.54147 0.98588 0.4551 0.0
H868 H 0.41526 0.02472 0.46128 0.0
H869 H 0.37071 0.05669 0.46017 0.0
H870 H 0.43967 0.08508 0.5207 0.0
H871 H 0.48501 0.05339 0.52194 0.0
C872 C 0.50412 0.9436 0.56549 0.0
C873 C 0.51701 0.95432 0.58751 0.0
C874 C 0.50142 0.95456 0.5425 0.0
C875 C 0.51209 0.97634 0.54104 0.0
C876 C 0.52468 0.98713 0.56301 0.0
C877 C 0.52713 0.97622 0.58607 0.0
C878 C 0.50982 0.98791 0.5166 0.0
C879 C 0.48575 0.00655 0.51511 0.0
C880 C 0.53007 0.98031 0.49469 0.0
C881 C 0.55758 0.96134 0.49532 0.0
C882 C 0.59071 0.96051 0.51228 0.0
C883 C 0.6163 0.94251 0.51291 0.0
C884 C 0.60923 0.92529 0.49653 0.0
C885 C 0.57663 0.92607 0.47944 0.0
C886 C 0.55093 0.94402 0.47875 0.0
C887 C 0.51314 0.05446 0.422 0.0
C888 C 0.50068 0.04413 0.39963 0.0
C889 C 0.51303 0.04346 0.44502 0.0
C890 C 0.50023 0.02198 0.44611 0.0
C891 C 0.48762 0.01164 0.42385 0.0
C892 C 0.4877 0.02264 0.40081 0.0
C893 C 0.50138 0.0101 0.47035 0.0
C894 C 0.52526 0.99141 0.47179 0.0
C895 C 0.48103 0.01768 0.49222 0.0
C896 C 0.45377 0.03676 0.49154 0.0
C897 C 0.42114 0.03785 0.47422 0.0
C898 C 0.3957 0.05591 0.47359 0.0
C899 C 0.40242 0.07293 0.49031 0.0
C900 C 0.43454 0.0719 0.50774 0.0
C901 C 0.46009 0.05388 0.50843 0.0
H902 H 0.38269 0.0869 0.4898 0.0
H903 H 0.62907 0.91137 0.49705 0.0
loop_
_geom_bond_atom_site_label_1
_geom_bond_atom_site_label_2
_geom_bond_distance
_geom_bond_site_symmetry_2
_ccdc_geom_bond_type
C0 O1 1.160 1_455 S
C0 O7 1.185 . S
O1 C0 1.160 1_655 S
O2 Zn3 1.899 1_655 S
O2 C10 1.284 . S
Zn3 O2 1.899 1_455 S
Zn3 O4 2.032 . S
Zn3 O7 2.086 . S
Zn3 O12 1.977 . S
O4 Zn3 2.032 . S
O4 C8 1.278 . S
C5 O6 1.203 1_455 S
C5 O12 1.267 . S
O6 C5 1.203 1_655 S
O7 C0 1.185 . S
O7 Zn3 2.086 . S
C8 O4 1.278 . S
C8 O9 1.211 . S
O9 C8 1.211 . S
C10 O2 1.284 . S
C10 O11 1.273 . S
O11 C10 1.273 . S
O12 Zn3 1.977 . S
O12 C5 1.267 . S
C13 O14 1.160 . S
C13 O20 1.185 . S
O14 C13 1.160 . S
O15 Zn16 1.899 . S
O15 C23 1.284 . S
Zn16 O15 1.899 . S
Zn16 O17 2.032 1_455 S
Zn16 O20 2.086 . S
Zn16 O25 1.977 . S
O17 Zn16 2.032 1_655 S
O17 C21 1.278 . S
C18 O19 1.203 . S
C18 O25 1.267 . S
O19 C18 1.203 . S
O20 C13 1.185 . S
O20 Zn16 2.086 . S
C21 O17 1.278 . S
C21 O22 1.211 . S
O22 C21 1.211 . S
C23 O15 1.284 . S
C23 O24 1.273 . S
O24 C23 1.273 . S
O25 Zn16 1.977 . S
O25 C18 1.267 . S
C26 O27 1.160 1_455 S
C26 O33 1.185 . S
O27 C26 1.160 1_655 S
O28 Zn29 1.899 1_655 S
O28 C36 1.284 . S
Zn29 O28 1.899 1_455 S
Zn29 O30 2.032 . S
Zn29 O33 2.086 . S
Zn29 O38 1.977 . S
O30 Zn29 2.032 . S
O30 C34 1.278 . S
C31 O32 1.203 1_455 S
C31 O38 1.267 . S
O32 C31 1.203 1_655 S
O33 C26 1.185 . S
O33 Zn29 2.086 . S
C34 O30 1.278 . S
C34 O35 1.211 . S
O35 C34 1.211 . S
C36 O28 1.284 . S
C36 O37 1.273 . S
O37 C36 1.273 . S
O38 Zn29 1.977 . S
O38 C31 1.267 . S
C39 O40 1.160 . S
C39 O46 1.185 . S
O40 C39 1.160 . S
O41 Zn42 1.899 . S
O41 C49 1.284 . S
Zn42 O41 1.899 . S
Zn42 O43 2.032 1_455 S
Zn42 O46 2.086 . S
Zn42 O51 1.977 . S
O43 Zn42 2.032 1_655 S
O43 C47 1.278 . S
C44 O45 1.203 . S
C44 O51 1.267 . S
O45 C44 1.203 . S
O46 C39 1.185 . S
O46 Zn42 2.086 . S
C47 O43 1.278 . S
C47 O48 1.211 . S
O48 C47 1.211 . S
C49 O41 1.284 . S
C49 O50 1.273 . S
O50 C49 1.273 . S
O51 Zn42 1.977 . S
O51 C44 1.267 . S
C52 O53 1.160 . S
C52 O59 1.185 . S
O53 C52 1.160 . S
O54 Zn55 1.899 . S
O54 C62 1.284 . S
Zn55 O54 1.899 . S
Zn55 O56 2.032 . S
Zn55 O59 2.086 . S
Zn55 O64 1.977 . S
O56 Zn55 2.032 . S
O56 C60 1.278 . S
C57 O58 1.203 . S
C57 O64 1.267 . S
O58 C57 1.203 . S
O59 C52 1.185 . S
O59 Zn55 2.086 . S
C60 O56 1.278 . S
C60 O61 1.211 . S
O61 C60 1.211 . S
C62 O54 1.284 . S
C62 O63 1.273 . S
O63 C62 1.273 . S
O64 Zn55 1.977 . S
O64 C57 1.267 . S
C65 O66 1.160 . S
C65 O72 1.185 . S
O66 C65 1.160 . S
O67 Zn68 1.899 . S
O67 C75 1.284 . S
Zn68 O67 1.899 . S
Zn68 O69 2.032 . S
Zn68 O72 2.086 . S
Zn68 O77 1.977 . S
O69 Zn68 2.032 . S
O69 C73 1.278 . S
C70 O71 1.203 . S
C70 O77 1.267 . S
O71 C70 1.203 . S
O72 C65 1.185 . S
O72 Zn68 2.086 . S
C73 O69 1.278 . S
C73 O74 1.211 . S
O74 C73 1.211 . S
C75 O67 1.284 . S
C75 O76 1.273 . S
O76 C75 1.273 . S
O77 Zn68 1.977 . S
O77 C70 1.267 . S
C78 O79 1.160 . S
C78 O85 1.185 . S
O79 C78 1.160 . S
O80 Zn81 1.899 . S
O80 C88 1.284 . S
Zn81 O80 1.899 . S
Zn81 O82 2.032 . S
Zn81 O85 2.086 . S
Zn81 O90 1.977 . S
O82 Zn81 2.032 . S
O82 C86 1.278 . S
C83 O84 1.203 . S
C83 O90 1.267 . S
O84 C83 1.203 . S
O85 C78 1.185 . S
O85 Zn81 2.086 . S
C86 O82 1.278 . S
C86 O87 1.211 . S
O87 C86 1.211 . S
C88 O80 1.284 . S
C88 O89 1.273 . S
O89 C88 1.273 . S
O90 Zn81 1.977 . S
O90 C83 1.267 . S
C91 O92 1.160 . S
C91 O98 1.185 . S
O92 C91 1.160 . S
O93 Zn94 1.899 . S
O93 C101 1.284 . S
Zn94 O93 1.899 . S
Zn94 O95 2.032 . S
Zn94 O98 2.086 . S
Zn94 O103 1.977 . S
O95 Zn94 2.032 . S
O95 C99 1.278 . S
C96 O97 1.203 . S
C96 O103 1.267 . S
O97 C96 1.203 . S
O98 C91 1.185 . S
O98 Zn94 2.086 . S
C99 O95 1.278 . S
C99 O100 1.211 . S
O100 C99 1.211 . S
C101 O93 1.284 . S
C101 O102 1.273 . S
O102 C101 1.273 . S
O103 Zn94 1.977 . S
O103 C96 1.267 . S
H104 C122 0.951 . S
H105 C124 0.951 . S
H106 C126 0.950 . S
H107 C127 0.950 . S
H108 C129 0.950 . S
H109 C132 0.950 . S
H110 C133 0.950 . S
H111 C135 0.950 . S
H112 C136 0.950 . S
H113 C137 0.951 . S
H114 C139 0.951 . S
H115 C141 0.950 . S
H116 C142 0.950 . S
H117 C144 0.950 . S
H118 C147 0.950 . S
H119 C148 0.950 . S
H120 C150 0.950 . S
H121 C151 0.950 . S
C122 H104 0.951 . S
C122 C123 1.366 . S
C122 C124 1.388 . S
C123 C122 1.366 . S
C123 C127 1.385 1_455 S
C124 H105 0.951 . S
C124 C122 1.388 . S
C124 C125 1.366 . S
C125 C124 1.366 . S
C125 C126 1.414 1_455 S
C125 C128 1.499 . S
C126 H106 0.950 . S
C126 C125 1.414 1_655 S
C126 C127 1.374 . S
C127 H107 0.950 . S
C127 C123 1.385 1_655 S
C127 C126 1.374 . S
C128 C125 1.499 . S
C128 C129 1.373 1_455 S
C128 C130 1.389 . S
C129 H108 0.950 . S
C129 C128 1.373 1_655 S
C129 C145 1.377 . S
C130 C128 1.389 . S
C130 C131 1.524 . S
C130 C144 1.377 . S
C131 C130 1.524 . S
C131 C132 1.397 . S
C131 C136 1.363 . S
C132 H109 0.950 . S
C132 C131 1.397 . S
C132 C133 1.334 . S
C133 H110 0.950 . S
C133 C132 1.334 . S
C133 C134 1.287 . S
C134 C133 1.287 . S
C134 C135 1.524 . S
C134 H153 0.913 . S
C135 H111 0.950 . S
C135 C134 1.524 . S
C135 C136 1.415 . S
C136 H112 0.950 . S
C136 C131 1.363 . S
C136 C135 1.415 . S
C137 H113 0.951 . S
C137 C138 1.366 1_655 S
C137 C139 1.388 . S
C138 C137 1.366 1_455 S
C138 C142 1.385 . S
C139 H114 0.951 . S
C139 C137 1.388 . S
C139 C140 1.366 1_655 S
C140 C139 1.366 1_455 S
C140 C141 1.414 . S
C140 C143 1.499 . S
C141 H115 0.950 . S
C141 C140 1.414 . S
C141 C142 1.374 . S
C142 H116 0.950 . S
C142 C138 1.385 . S
C142 C141 1.374 . S
C143 C140 1.499 . S
C143 C144 1.373 . S
C143 C145 1.389 1_455 S
C144 H117 0.950 . S
C144 C130 1.377 . S
C144 C143 1.373 . S
C145 C129 1.377 . S
C145 C143 1.389 1_655 S
C145 C146 1.524 . S
C146 C145 1.524 . S
C146 C147 1.397 . S
C146 C151 1.363 . S
C147 H118 0.950 . S
C147 C146 1.397 . S
C147 C148 1.334 . S
C148 H119 0.950 . S
C148 C147 1.334 . S
C148 C149 1.287 . S
C149 C148 1.287 . S
C149 C150 1.524 . S
C149 H152 0.999 . S
C150 H120 0.950 . S
C150 C149 1.524 . S
C150 C151 1.415 . S
C151 H121 0.950 . S
C151 C146 1.363 . S
C151 C150 1.415 . S
H152 C149 0.999 . S
H153 C134 0.913 . S
H154 C172 0.951 . S
H155 C174 0.951 . S
H156 C176 0.950 . S
H157 C177 0.950 . S
H158 C179 0.950 . S
H159 C182 0.950 . S
H160 C183 0.950 . S
H161 C185 0.950 . S
H162 C186 0.950 . S
H163 C187 0.951 . S
H164 C189 0.951 . S
H165 C191 0.950 . S
H166 C192 0.950 . S
H167 C194 0.950 . S
H168 C197 0.950 . S
H169 C198 0.950 . S
H170 C200 0.950 . S
H171 C201 0.950 . S
C172 H154 0.951 . S
C172 C173 1.366 1_655 S
C172 C174 1.388 . S
C173 C172 1.366 1_455 S
C173 C177 1.385 . S
C174 H155 0.951 . S
C174 C172 1.388 . S
C174 C175 1.366 1_655 S
C175 C174 1.366 1_455 S
C175 C176 1.414 . S
C175 C178 1.499 . S
C176 H156 0.950 . S
C176 C175 1.414 . S
C176 C177 1.374 . S
C177 H157 0.950 . S
C177 C173 1.385 . S
C177 C176 1.374 . S
C178 C175 1.499 . S
C178 C179 1.373 . S
C178 C180 1.389 1_455 S
C179 H158 0.950 . S
C179 C178 1.373 . S
C179 C195 1.377 . S
C180 C178 1.389 1_655 S
C180 C181 1.524 . S
C180 C194 1.377 . S
C181 C180 1.524 . S
C181 C182 1.397 . S
C181 C186 1.363 . S
C182 H159 0.950 . S
C182 C181 1.397 . S
C182 C183 1.334 . S
C183 H160 0.950 . S
C183 C182 1.334 . S
C183 C184 1.287 . S
C184 C183 1.287 . S
C184 C185 1.524 . S
C184 H203 0.913 . S
C185 H161 0.950 . S
C185 C184 1.524 . S
C185 C186 1.415 . S
C186 H162 0.950 . S
C186 C181 1.363 . S
C186 C185 1.415 . S
C187 H163 0.951 . S
C187 C188 1.366 . S
C187 C189 1.388 . S
C188 C187 1.366 . S
C188 C192 1.385 1_455 S
C189 H164 0.951 . S
C189 C187 1.388 . S
C189 C190 1.366 . S
C190 C189 1.366 . S
C190 C191 1.414 1_455 S
C190 C193 1.499 . S
C191 H165 0.950 . S
C191 C190 1.414 1_655 S
C191 C192 1.374 . S
C192 H166 0.950 . S
C192 C188 1.385 1_655 S
C192 C191 1.374 . S
C193 C190 1.499 . S
C193 C194 1.373 1_455 S
C193 C195 1.389 . S
C194 H167 0.950 . S
C194 C180 1.377 . S
C194 C193 1.373 1_655 S
C195 C179 1.377 . S
C195 C193 1.389 . S
C195 C196 1.524 . S
C196 C195 1.524 . S
C196 C197 1.397 . S
C196 C201 1.363 . S
C197 H168 0.950 . S
C197 C196 1.397 . S
C197 C198 1.334 . S
C198 H169 0.950 . S
C198 C197 1.334 . S
C198 C199 1.287 . S
C199 C198 1.287 . S
C199 C200 1.524 . S
C199 H202 0.999 . S
C200 H170 0.950 . S
C200 C199 1.524 . S
C200 C201 1.415 . S
C201 H171 0.950 . S
C201 C196 1.363 . S
C201 C200 1.415 . S
H202 C199 0.999 . S
H203 C184 0.913 . S
H204 C222 0.951 . S
H205 C224 0.951 . S
H206 C226 0.950 . S
H207 C227 0.950 . S
H208 C229 0.950 . S
H209 C232 0.950 . S
H210 C233 0.950 . S
H211 C235 0.950 . S
H212 C236 0.950 . S
H213 C237 0.951 . S
H214 C239 0.951 . S
H215 C241 0.950 . S
H216 C242 0.950 . S
H217 C244 0.950 . S
H218 C247 0.950 . S
H219 C248 0.950 . S
H220 C250 0.950 . S
H221 C251 0.950 . S
C222 H204 0.951 . S
C222 C223 1.366 . S
C222 C224 1.388 . S
C223 C222 1.366 . S
C223 C227 1.385 . S
C224 H205 0.951 . S
C224 C222 1.388 . S
C224 C225 1.366 . S
C225 C224 1.366 . S
C225 C226 1.414 . S
C225 C228 1.499 . S
C226 H206 0.950 . S
C226 C225 1.414 . S
C226 C227 1.374 . S
C227 H207 0.950 . S
C227 C223 1.385 . S
C227 C226 1.374 . S
C228 C225 1.499 . S
C228 C229 1.373 . S
C228 C230 1.389 . S
C229 H208 0.950 . S
C229 C228 1.373 . S
C229 C245 1.377 . S
C230 C228 1.389 . S
C230 C231 1.524 . S
C230 C244 1.377 . S
C231 C230 1.524 . S
C231 C232 1.397 . S
C231 C236 1.363 . S
C232 H209 0.950 . S
C232 C231 1.397 . S
C232 C233 1.334 . S
C233 H210 0.950 . S
C233 C232 1.334 . S
C233 C234 1.287 . S
C234 C233 1.287 . S
C234 C235 1.524 . S
C234 H253 0.913 . S
C235 H211 0.950 . S
C235 C234 1.524 . S
C235 C236 1.415 . S
C236 H212 0.950 . S
C236 C231 1.363 . S
C236 C235 1.415 . S
C237 H213 0.951 . S
C237 C238 1.366 . S
C237 C239 1.388 . S
C238 C237 1.366 . S
C238 C242 1.385 . S
C239 H214 0.951 . S
C239 C237 1.388 . S
C239 C240 1.366 . S
C240 C239 1.366 . S
C240 C241 1.414 . S
C240 C243 1.499 . S
C241 H215 0.950 . S
C241 C240 1.414 . S
C241 C242 1.374 . S
C242 H216 0.950 . S
C242 C238 1.385 . S
C242 C241 1.374 . S
C243 C240 1.499 . S
C243 C244 1.373 . S
C243 C245 1.389 . S
C244 H217 0.950 . S
C244 C230 1.377 . S
C244 C243 1.373 . S
C245 C229 1.377 . S
C245 C243 1.389 . S
C245 C246 1.524 . S
C246 C245 1.524 . S
C246 C247 1.397 . S
C246 C251 1.363 . S
C247 H218 0.950 . S
C247 C246 1.397 . S
C247 C248 1.334 . S
C248 H219 0.950 . S
C248 C247 1.334 . S
C248 C249 1.287 . S
C249 C248 1.287 . S
C249 C250 1.524 . S
C249 H252 0.999 . S
C250 H220 0.950 . S
C250 C249 1.524 . S
C250 C251 1.415 . S
C251 H221 0.950 . S
C251 C246 1.363 . S
C251 C250 1.415 . S
H252 C249 0.999 . S
H253 C234 0.913 . S
H254 C272 0.951 . S
H255 C274 0.951 . S
H256 C276 0.950 . S
H257 C277 0.950 . S
H258 C279 0.950 . S
H259 C282 0.950 . S
H260 C283 0.950 . S
H261 C285 0.950 . S
H262 C286 0.950 . S
H263 C287 0.951 . S
H264 C289 0.951 . S
H265 C291 0.950 . S
H266 C292 0.950 . S
H267 C294 0.950 . S
H268 C297 0.950 . S
H269 C298 0.950 . S
H270 C300 0.950 . S
H271 C301 0.950 . S
C272 H254 0.951 . S
C272 C273 1.366 . S
C272 C274 1.388 . S
C273 C272 1.366 . S
C273 C277 1.385 . S
C274 H255 0.951 . S
C274 C272 1.388 . S
C274 C275 1.366 . S
C275 C274 1.366 . S
C275 C276 1.414 . S
C275 C278 1.499 . S
C276 H256 0.950 . S
C276 C275 1.414 . S
C276 C277 1.374 . S
C277 H257 0.950 . S
C277 C273 1.385 . S
C277 C276 1.374 . S
C278 C275 1.499 . S
C278 C279 1.373 . S
C278 C280 1.389 . S
C279 H258 0.950 . S
C279 C278 1.373 . S
C279 C295 1.377 . S
C280 C278 1.389 . S
C280 C281 1.524 . S
C280 C294 1.377 . S
C281 C280 1.524 . S
C281 C282 1.397 . S
C281 C286 1.363 . S
C282 H259 0.950 . S
C282 C281 1.397 . S
C282 C283 1.334 . S
C283 H260 0.950 . S
C283 C282 1.334 . S
C283 C284 1.287 . S
C284 C283 1.287 . S
C284 C285 1.524 . S
C284 H303 0.913 . S
C285 H261 0.950 . S
C285 C284 1.524 . S
C285 C286 1.415 . S
C286 H262 0.950 . S
C286 C281 1.363 . S
C286 C285 1.415 . S
C287 H263 0.951 . S
C287 C288 1.366 . S
C287 C289 1.388 . S
C288 C287 1.366 . S
C288 C292 1.385 . S
C289 H264 0.951 . S
C289 C287 1.388 . S
C289 C290 1.366 . S
C290 C289 1.366 . S
C290 C291 1.414 . S
C290 C293 1.499 . S
C291 H265 0.950 . S
C291 C290 1.414 . S
C291 C292 1.374 . S
C292 H266 0.950 . S
C292 C288 1.385 . S
C292 C291 1.374 . S
C293 C290 1.499 . S
C293 C294 1.373 . S
C293 C295 1.389 . S
C294 H267 0.950 . S
C294 C280 1.377 . S
C294 C293 1.373 . S
C295 C279 1.377 . S
C295 C293 1.389 . S
C295 C296 1.524 . S
C296 C295 1.524 . S
C296 C297 1.397 . S
C296 C301 1.363 . S
C297 H268 0.950 . S
C297 C296 1.397 . S
C297 C298 1.334 . S
C298 H269 0.950 . S
C298 C297 1.334 . S
C298 C299 1.287 . S
C299 C298 1.287 . S
C299 C300 1.524 . S
C299 H302 0.999 . S
C300 H270 0.950 . S
C300 C299 1.524 . S
C300 C301 1.415 . S
C301 H271 0.950 . S
C301 C296 1.363 . S
C301 C300 1.415 . S
H302 C299 0.999 . S
H303 C284 0.913 . S
H304 C322 0.951 . S
H305 C324 0.951 . S
H306 C326 0.950 . S
H307 C327 0.950 . S
H308 C329 0.950 . S
H309 C332 0.950 . S
H310 C333 0.950 . S
H311 C335 0.950 . S
H312 C336 0.950 . S
H313 C337 0.951 . S
H314 C339 0.951 . S
H315 C341 0.950 . S
H316 C342 0.950 . S
H317 C344 0.950 . S
H318 C347 0.950 . S
H319 C348 0.950 . S
H320 C350 0.950 . S
H321 C351 0.950 . S
C322 H304 0.951 . S
C322 C323 1.366 . S
C322 C324 1.388 . S
C323 C322 1.366 . S
C323 C327 1.385 . S
C324 H305 0.951 . S
C324 C322 1.388 . S
C324 C325 1.366 . S
C325 C324 1.366 . S
C325 C326 1.414 . S
C325 C328 1.499 . S
C326 H306 0.950 . S
C326 C325 1.414 . S
C326 C327 1.374 . S
C327 H307 0.950 . S
C327 C323 1.385 . S
C327 C326 1.374 . S
C328 C325 1.499 . S
C328 C329 1.373 . S
C328 C330 1.389 . S
C329 H308 0.950 . S
C329 C328 1.373 . S
C329 C345 1.377 . S
C330 C328 1.389 . S
C330 C331 1.524 . S
C330 C344 1.377 . S
C331 C330 1.524 . S
C331 C332 1.397 . S
C331 C336 1.363 . S
C332 H309 0.950 . S
C332 C331 1.397 . S
C332 C333 1.334 . S
C333 H310 0.950 . S
C333 C332 1.334 . S
C333 C334 1.287 . S
C334 C333 1.287 . S
C334 C335 1.524 . S
C334 H353 0.913 . S
C335 H311 0.950 . S
C335 C334 1.524 . S
C335 C336 1.415 . S
C336 H312 0.950 . S
C336 C331 1.363 . S
C336 C335 1.415 . S
C337 H313 0.951 . S
C337 C338 1.366 . S
C337 C339 1.388 . S
C338 C337 1.366 . S
C338 C342 1.385 . S
C339 H314 0.951 . S
C339 C337 1.388 . S
C339 C340 1.366 . S
C340 C339 1.366 . S
C340 C341 1.414 . S
C340 C343 1.499 . S
C341 H315 0.950 . S
C341 C340 1.414 . S
C341 C342 1.374 . S
C342 H316 0.950 . S
C342 C338 1.385 . S
C342 C341 1.374 . S
C343 C340 1.499 . S
C343 C344 1.373 . S
C343 C345 1.389 . S
C344 H317 0.950 . S
C344 C330 1.377 . S
C344 C343 1.373 . S
C345 C329 1.377 . S
C345 C343 1.389 . S
C345 C346 1.524 . S
C346 C345 1.524 . S
C346 C347 1.397 . S
C346 C351 1.363 . S
C347 H318 0.950 . S
C347 C346 1.397 . S
C347 C348 1.334 . S
C348 H319 0.950 . S
C348 C347 1.334 . S
C348 C349 1.287 . S
C349 C348 1.287 . S
C349 C350 1.524 . S
C349 H352 0.999 . S
C350 H320 0.950 . S
C350 C349 1.524 . S
C350 C351 1.415 . S
C351 H321 0.950 . S
C351 C346 1.363 . S
C351 C350 1.415 . S
H352 C349 0.999 . S
H353 C334 0.913 . S
H354 C372 0.951 . S
H355 C374 0.951 . S
H356 C376 0.950 . S
H357 C377 0.950 . S
H358 C379 0.950 . S
H359 C382 0.950 . S
H360 C383 0.950 . S
H361 C385 0.950 . S
H362 C386 0.950 . S
H363 C387 0.951 . S
H364 C389 0.951 . S
H365 C391 0.950 . S
H366 C392 0.950 . S
H367 C394 0.950 . S
H368 C397 0.950 . S
H369 C398 0.950 . S
H370 C400 0.950 . S
H371 C401 0.950 . S
C372 H354 0.951 . S
C372 C373 1.366 . S
C372 C374 1.388 . S
C373 C372 1.366 . S
C373 C377 1.385 . S
C374 H355 0.951 . S
C374 C372 1.388 . S
C374 C375 1.366 . S
C375 C374 1.366 . S
C375 C376 1.414 . S
C375 C378 1.499 . S
C376 H356 0.950 . S
C376 C375 1.414 . S
C376 C377 1.374 . S
C377 H357 0.950 . S
C377 C373 1.385 . S
C377 C376 1.374 . S
C378 C375 1.499 . S
C378 C379 1.373 . S
C378 C380 1.389 . S
C379 H358 0.950 . S
C379 C378 1.373 . S
C379 C395 1.377 . S
C380 C378 1.389 . S
C380 C381 1.524 . S
C380 C394 1.377 . S
C381 C380 1.524 . S
C381 C382 1.397 . S
C381 C386 1.363 . S
C382 H359 0.950 . S
C382 C381 1.397 . S
C382 C383 1.334 . S
C383 H360 0.950 . S
C383 C382 1.334 . S
C383 C384 1.287 . S
C384 C383 1.287 . S
C384 C385 1.524 . S
C384 H403 0.913 . S
C385 H361 0.950 . S
C385 C384 1.524 . S
C385 C386 1.415 . S
C386 H362 0.950 . S
C386 C381 1.363 . S
C386 C385 1.415 . S
C387 H363 0.951 . S
C387 C388 1.366 . S
C387 C389 1.388 . S
C388 C387 1.366 . S
C388 C392 1.385 . S
C389 H364 0.951 . S
C389 C387 1.388 . S
C389 C390 1.366 . S
C390 C389 1.366 . S
C390 C391 1.414 . S
C390 C393 1.499 . S
C391 H365 0.950 . S
C391 C390 1.414 . S
C391 C392 1.374 . S
C392 H366 0.950 . S
C392 C388 1.385 . S
C392 C391 1.374 . S
C393 C390 1.499 . S
C393 C394 1.373 . S
C393 C395 1.389 . S
C394 H367 0.950 . S
C394 C380 1.377 . S
C394 C393 1.373 . S
C395 C379 1.377 . S
C395 C393 1.389 . S
C395 C396 1.524 . S
C396 C395 1.524 . S
C396 C397 1.397 . S
C396 C401 1.363 . S
C397 H368 0.950 . S
C397 C396 1.397 . S
C397 C398 1.334 . S
C398 H369 0.950 . S
C398 C397 1.334 . S
C398 C399 1.287 . S
C399 C398 1.287 . S
C399 C400 1.524 . S
C399 H402 0.999 . S
C400 H370 0.950 . S
C400 C399 1.524 . S
C400 C401 1.415 . S
C401 H371 0.950 . S
C401 C396 1.363 . S
C401 C400 1.415 . S
H402 C399 0.999 . S
H403 C384 0.913 . S
H404 C422 0.951 . S
H405 C424 0.951 . S
H406 C426 0.950 . S
H407 C427 0.950 . S
H408 C429 0.950 . S
H409 C432 0.950 . S
H410 C433 0.950 . S
H411 C435 0.950 . S
H412 C436 0.950 . S
H413 C437 0.951 . S
H414 C439 0.951 . S
H415 C441 0.950 . S
H416 C442 0.950 . S
H417 C444 0.950 . S
H418 C447 0.950 . S
H419 C448 0.950 . S
H420 C450 0.950 . S
H421 C451 0.950 . S
C422 H404 0.951 . S
C422 C423 1.366 . S
C422 C424 1.388 . S
C423 C422 1.366 . S
C423 C427 1.385 . S
C424 H405 0.951 . S
C424 C422 1.388 . S
C424 C425 1.366 . S
C425 C424 1.366 . S
C425 C426 1.414 . S
C425 C428 1.499 . S
C426 H406 0.950 . S
C426 C425 1.414 . S
C426 C427 1.374 . S
C427 H407 0.950 . S
C427 C423 1.385 . S
C427 C426 1.374 . S
C428 C425 1.499 . S
C428 C429 1.373 . S
C428 C430 1.389 . S
C429 H408 0.950 . S
C429 C428 1.373 . S
C429 C445 1.377 . S
C430 C428 1.389 . S
C430 C431 1.524 . S
C430 C444 1.377 . S
C431 C430 1.524 . S
C431 C432 1.397 . S
C431 C436 1.363 . S
C432 H409 0.950 . S
C432 C431 1.397 . S
C432 C433 1.334 . S
C433 H410 0.950 . S
C433 C432 1.334 . S
C433 C434 1.287 . S
C434 C433 1.287 . S
C434 C435 1.524 . S
C434 H453 0.913 . S
C435 H411 0.950 . S
C435 C434 1.524 . S
C435 C436 1.415 . S
C436 H412 0.950 . S
C436 C431 1.363 . S
C436 C435 1.415 . S
C437 H413 0.951 . S
C437 C438 1.366 . S
C437 C439 1.388 . S
C438 C437 1.366 . S
C438 C442 1.385 . S
C439 H414 0.951 . S
C439 C437 1.388 . S
C439 C440 1.366 . S
C440 C439 1.366 . S
C440 C441 1.414 . S
C440 C443 1.499 . S
C441 H415 0.950 . S
C441 C440 1.414 . S
C441 C442 1.374 . S
C442 H416 0.950 . S
C442 C438 1.385 . S
C442 C441 1.374 . S
C443 C440 1.499 . S
C443 C444 1.373 . S
C443 C445 1.389 . S
C444 H417 0.950 . S
C444 C430 1.377 . S
C444 C443 1.373 . S
C445 C429 1.377 . S
C445 C443 1.389 . S
C445 C446 1.524 . S
C446 C445 1.524 . S
C446 C447 1.397 . S
C446 C451 1.363 . S
C447 H418 0.950 . S
C447 C446 1.397 . S
C447 C448 1.334 . S
C448 H419 0.950 . S
C448 C447 1.334 . S
C448 C449 1.287 . S
C449 C448 1.287 . S
C449 C450 1.524 . S
C449 H452 0.999 . S
C450 H420 0.950 . S
C450 C449 1.524 . S
C450 C451 1.415 . S
C451 H421 0.950 . S
C451 C446 1.363 . S
C451 C450 1.415 . S
H452 C449 0.999 . S
H453 C434 0.913 . S
H454 C472 0.951 . S
H455 C474 0.951 . S
H456 C476 0.950 . S
H457 C477 0.950 . S
H458 C479 0.950 . S
H459 C482 0.950 . S
H460 C483 0.950 . S
H461 C485 0.950 . S
H462 C486 0.950 . S
H463 C487 0.951 . S
H464 C489 0.951 . S
H465 C491 0.950 . S
H466 C492 0.950 . S
H467 C494 0.950 . S
H468 C497 0.950 . S
H469 C498 0.950 . S
H470 C500 0.950 . S
H471 C501 0.950 . S
C472 H454 0.951 . S
C472 C473 1.366 . S
C472 C474 1.388 . S
C473 C472 1.366 . S
C473 C477 1.385 . S
C474 H455 0.951 . S
C474 C472 1.388 . S
C474 C475 1.366 . S
C475 C474 1.366 . S
C475 C476 1.414 . S
C475 C478 1.499 . S
C476 H456 0.950 . S
C476 C475 1.414 . S
C476 C477 1.374 . S
C477 H457 0.950 . S
C477 C473 1.385 . S
C477 C476 1.374 . S
C478 C475 1.499 . S
C478 C479 1.373 . S
C478 C480 1.389 . S
C479 H458 0.950 . S
C479 C478 1.373 . S
C479 C495 1.377 . S
C480 C478 1.389 . S
C480 C481 1.524 . S
C480 C494 1.377 . S
C481 C480 1.524 . S
C481 C482 1.397 . S
C481 C486 1.363 . S
C482 H459 0.950 . S
C482 C481 1.397 . S
C482 C483 1.334 . S
C483 H460 0.950 . S
C483 C482 1.334 . S
C483 C484 1.287 . S
C484 C483 1.287 . S
C484 C485 1.524 . S
C484 H503 0.913 . S
C485 H461 0.950 . S
C485 C484 1.524 . S
C485 C486 1.415 . S
C486 H462 0.950 . S
C486 C481 1.363 . S
C486 C485 1.415 . S
C487 H463 0.951 . S
C487 C488 1.366 . S
C487 C489 1.388 . S
C488 C487 1.366 . S
C488 C492 1.385 . S
C489 H464 0.951 . S
C489 C487 1.388 . S
C489 C490 1.366 . S
C490 C489 1.366 . S
C490 C491 1.414 . S
C490 C493 1.499 . S
C491 H465 0.950 . S
C491 C490 1.414 . S
C491 C492 1.374 . S
C492 H466 0.950 . S
C492 C488 1.385 . S
C492 C491 1.374 . S
C493 C490 1.499 . S
C493 C494 1.373 . S
C493 C495 1.389 . S
C494 H467 0.950 . S
C494 C480 1.377 . S
C494 C493 1.373 . S
C495 C479 1.377 . S
C495 C493 1.389 . S
C495 C496 1.524 . S
C496 C495 1.524 . S
C496 C497 1.397 . S
C496 C501 1.363 . S
C497 H468 0.950 . S
C497 C496 1.397 . S
C497 C498 1.334 . S
C498 H469 0.950 . S
C498 C497 1.334 . S
C498 C499 1.287 . S
C499 C498 1.287 . S
C499 C500 1.524 . S
C499 H502 0.999 . S
C500 H470 0.950 . S
C500 C499 1.524 . S
C500 C501 1.415 . S
C501 H471 0.950 . S
C501 C496 1.363 . S
C501 C500 1.415 . S
H502 C499 0.999 . S
H503 C484 0.913 . S
H504 C522 0.951 . S
H505 C524 0.951 . S
H506 C526 0.950 . S
H507 C527 0.950 . S
H508 C529 0.950 . S
H509 C532 0.950 . S
H510 C533 0.950 . S
H511 C535 0.950 . S
H512 C536 0.950 . S
H513 C537 0.951 . S
H514 C539 0.951 . S
H515 C541 0.950 . S
H516 C542 0.950 . S
H517 C544 0.950 . S
H518 C547 0.950 . S
H519 C548 0.950 . S
H520 C550 0.950 . S
H521 C551 0.950 . S
C522 H504 0.951 . S
C522 C523 1.366 . S
C522 C524 1.388 . S
C523 C522 1.366 . S
C523 C527 1.385 . S
C524 H505 0.951 . S
C524 C522 1.388 . S
C524 C525 1.366 . S
C525 C524 1.366 . S
C525 C526 1.414 . S
C525 C528 1.499 . S
C526 H506 0.950 . S
C526 C525 1.414 . S
C526 C527 1.374 . S
C527 H507 0.950 . S
C527 C523 1.385 . S
C527 C526 1.374 . S
C528 C525 1.499 . S
C528 C529 1.373 . S
C528 C530 1.389 . S
C529 H508 0.950 . S
C529 C528 1.373 . S
C529 C545 1.377 . S
C530 C528 1.389 . S
C530 C531 1.524 . S
C530 C544 1.377 . S
C531 C530 1.524 . S
C531 C532 1.397 . S
C531 C536 1.363 . S
C532 H509 0.950 . S
C532 C531 1.397 . S
C532 C533 1.334 . S
C533 H510 0.950 . S
C533 C532 1.334 . S
C533 C534 1.287 . S
C534 C533 1.287 . S
C534 C535 1.524 . S
C534 H553 0.913 1_565 S
C535 H511 0.950 . S
C535 C534 1.524 . S
C535 C536 1.415 . S
C536 H512 0.950 . S
C536 C531 1.363 . S
C536 C535 1.415 . S
C537 H513 0.951 . S
C537 C538 1.366 . S
C537 C539 1.388 . S
C538 C537 1.366 . S
C538 C542 1.385 . S
C539 H514 0.951 . S
C539 C537 1.388 . S
C539 C540 1.366 . S
C540 C539 1.366 . S
C540 C541 1.414 . S
C540 C543 1.499 . S
C541 H515 0.950 . S
C541 C540 1.414 . S
C541 C542 1.374 . S
C542 H516 0.950 . S
C542 C538 1.385 . S
C542 C541 1.374 . S
C543 C540 1.499 . S
C543 C544 1.373 . S
C543 C545 1.389 . S
C544 H517 0.950 . S
C544 C530 1.377 . S
C544 C543 1.373 . S
C545 C529 1.377 . S
C545 C543 1.389 . S
C545 C546 1.524 . S
C546 C545 1.524 . S
C546 C547 1.397 . S
C546 C551 1.363 . S
C547 H518 0.950 . S
C547 C546 1.397 . S
C547 C548 1.334 . S
C548 H519 0.950 . S
C548 C547 1.334 . S
C548 C549 1.287 . S
C549 C548 1.287 . S
C549 C550 1.524 . S
C549 H552 0.999 . S
C550 H520 0.950 . S
C550 C549 1.524 . S
C550 C551 1.415 . S
C551 H521 0.950 . S
C551 C546 1.363 . S
C551 C550 1.415 . S
H552 C549 0.999 . S
H553 C534 0.913 1_545 S
H554 C572 0.951 . S
H555 C574 0.951 . S
H556 C576 0.950 . S
H557 C577 0.950 . S
H558 C579 0.950 . S
H559 C582 0.950 . S
H560 C583 0.950 . S
H561 C585 0.950 . S
H562 C586 0.950 . S
H563 C587 0.951 . S
H564 C589 0.951 . S
H565 C591 0.950 . S
H566 C592 0.950 . S
H567 C594 0.950 . S
H568 C597 0.950 . S
H569 C598 0.950 . S
H570 C600 0.950 . S
H571 C601 0.950 . S
C572 H554 0.951 . S
C572 C573 1.366 . S
C572 C574 1.388 . S
C573 C572 1.366 . S
C573 C577 1.385 . S
C574 H555 0.951 . S
C574 C572 1.388 . S
C574 C575 1.366 . S
C575 C574 1.366 . S
C575 C576 1.414 . S
C575 C578 1.499 . S
C576 H556 0.950 . S
C576 C575 1.414 . S
C576 C577 1.374 . S
C577 H557 0.950 . S
C577 C573 1.385 . S
C577 C576 1.374 . S
C578 C575 1.499 . S
C578 C579 1.373 . S
C578 C580 1.389 . S
C579 H558 0.950 . S
C579 C578 1.373 . S
C579 C595 1.377 . S
C580 C578 1.389 . S
C580 C581 1.524 . S
C580 C594 1.377 . S
C581 C580 1.524 . S
C581 C582 1.397 . S
C581 C586 1.363 . S
C582 H559 0.950 . S
C582 C581 1.397 . S
C582 C583 1.334 . S
C583 H560 0.950 . S
C583 C582 1.334 . S
C583 C584 1.287 . S
C584 C583 1.287 . S
C584 C585 1.524 . S
C584 H603 0.913 . S
C585 H561 0.950 . S
C585 C584 1.524 . S
C585 C586 1.415 . S
C586 H562 0.950 . S
C586 C581 1.363 . S
C586 C585 1.415 . S
C587 H563 0.951 . S
C587 C588 1.366 . S
C587 C589 1.388 . S
C588 C587 1.366 . S
C588 C592 1.385 . S
C589 H564 0.951 . S
C589 C587 1.388 . S
C589 C590 1.366 . S
C590 C589 1.366 . S
C590 C591 1.414 . S
C590 C593 1.499 . S
C591 H565 0.950 . S
C591 C590 1.414 . S
C591 C592 1.374 . S
C592 H566 0.950 . S
C592 C588 1.385 . S
C592 C591 1.374 . S
C593 C590 1.499 . S
C593 C594 1.373 . S
C593 C595 1.389 . S
C594 H567 0.950 . S
C594 C580 1.377 . S
C594 C593 1.373 . S
C595 C579 1.377 . S
C595 C593 1.389 . S
C595 C596 1.524 . S
C596 C595 1.524 . S
C596 C597 1.397 . S
C596 C601 1.363 . S
C597 H568 0.950 . S
C597 C596 1.397 . S
C597 C598 1.334 . S
C598 H569 0.950 . S
C598 C597 1.334 . S
C598 C599 1.287 . S
C599 C598 1.287 . S
C599 C600 1.524 . S
C599 H602 0.999 . S
C600 H570 0.950 . S
C600 C599 1.524 . S
C600 C601 1.415 . S
C601 H571 0.950 . S
C601 C596 1.363 . S
C601 C600 1.415 . S
H602 C599 0.999 . S
H603 C584 0.913 . S
H604 C622 0.951 . S
H605 C624 0.951 . S
H606 C626 0.950 . S
H607 C627 0.950 . S
H608 C629 0.950 . S
H609 C632 0.950 . S
H610 C633 0.950 . S
H611 C635 0.950 . S
H612 C636 0.950 . S
H613 C637 0.951 . S
H614 C639 0.951 . S
H615 C641 0.950 . S
H616 C642 0.950 . S
H617 C644 0.950 . S
H618 C647 0.950 . S
H619 C648 0.950 . S
H620 C650 0.950 . S
H621 C651 0.950 . S
C622 H604 0.951 . S
C622 C623 1.366 . S
C622 C624 1.388 . S
C623 C622 1.366 . S
C623 C627 1.385 . S
C624 H605 0.951 . S
C624 C622 1.388 . S
C624 C625 1.366 . S
C625 C624 1.366 . S
C625 C626 1.414 . S
C625 C628 1.499 . S
C626 H606 0.950 . S
C626 C625 1.414 . S
C626 C627 1.374 . S
C627 H607 0.950 . S
C627 C623 1.385 . S
C627 C626 1.374 . S
C628 C625 1.499 . S
C628 C629 1.373 . S
C628 C630 1.389 . S
C629 H608 0.950 . S
C629 C628 1.373 . S
C629 C645 1.377 . S
C630 C628 1.389 . S
C630 C631 1.524 . S
C630 C644 1.377 . S
C631 C630 1.524 . S
C631 C632 1.397 . S
C631 C636 1.363 . S
C632 H609 0.950 . S
C632 C631 1.397 . S
C632 C633 1.334 . S
C633 H610 0.950 . S
C633 C632 1.334 . S
C633 C634 1.287 . S
C634 C633 1.287 . S
C634 C635 1.524 . S
C634 H653 0.913 1_545 S
C635 H611 0.950 . S
C635 C634 1.524 . S
C635 C636 1.415 . S
C636 H612 0.950 . S
C636 C631 1.363 . S
C636 C635 1.415 . S
C637 H613 0.951 . S
C637 C638 1.366 . S
C637 C639 1.388 . S
C638 C637 1.366 . S
C638 C642 1.385 . S
C639 H614 0.951 . S
C639 C637 1.388 . S
C639 C640 1.366 . S
C640 C639 1.366 . S
C640 C641 1.414 . S
C640 C643 1.499 . S
C641 H615 0.950 . S
C641 C640 1.414 . S
C641 C642 1.374 . S
C642 H616 0.950 . S
C642 C638 1.385 . S
C642 C641 1.374 . S
C643 C640 1.499 . S
C643 C644 1.373 . S
C643 C645 1.389 . S
C644 H617 0.950 . S
C644 C630 1.377 . S
C644 C643 1.373 . S
C645 C629 1.377 . S
C645 C643 1.389 . S
C645 C646 1.524 . S
C646 C645 1.524 . S
C646 C647 1.397 . S
C646 C651 1.363 . S
C647 H618 0.950 . S
C647 C646 1.397 . S
C647 C648 1.334 . S
C648 H619 0.950 . S
C648 C647 1.334 . S
C648 C649 1.287 . S
C649 C648 1.287 . S
C649 C650 1.524 . S
C649 H652 0.999 . S
C650 H620 0.950 . S
C650 C649 1.524 . S
C650 C651 1.415 . S
C651 H621 0.950 . S
C651 C646 1.363 . S
C651 C650 1.415 . S
H652 C649 0.999 . S
H653 C634 0.913 1_565 S
H654 C672 0.951 . S
H655 C674 0.951 . S
H656 C676 0.950 . S
H657 C677 0.950 . S
H658 C679 0.950 . S
H659 C682 0.950 . S
H660 C683 0.950 . S
H661 C685 0.950 . S
H662 C686 0.950 . S
H663 C687 0.951 . S
H664 C689 0.951 . S
H665 C691 0.950 . S
H666 C692 0.950 . S
H667 C694 0.950 . S
H668 C697 0.950 . S
H669 C698 0.950 . S
H670 C700 0.950 . S
H671 C701 0.950 . S
C672 H654 0.951 . S
C672 C673 1.366 . S
C672 C674 1.388 . S
C673 C672 1.366 . S
C673 C677 1.385 . S
C674 H655 0.951 . S
C674 C672 1.388 . S
C674 C675 1.366 . S
C675 C674 1.366 . S
C675 C676 1.414 . S
C675 C678 1.499 . S
C676 H656 0.950 . S
C676 C675 1.414 . S
C676 C677 1.374 . S
C677 H657 0.950 . S
C677 C673 1.385 . S
C677 C676 1.374 . S
C678 C675 1.499 . S
C678 C679 1.373 . S
C678 C680 1.389 . S
C679 H658 0.950 . S
C679 C678 1.373 . S
C679 C695 1.377 . S
C680 C678 1.389 . S
C680 C681 1.524 . S
C680 C694 1.377 . S
C681 C680 1.524 . S
C681 C682 1.397 . S
C681 C686 1.363 . S
C682 H659 0.950 . S
C682 C681 1.397 . S
C682 C683 1.334 . S
C683 H660 0.950 . S
C683 C682 1.334 . S
C683 C684 1.287 . S
C684 C683 1.287 . S
C684 C685 1.524 . S
C684 H703 0.913 . S
C685 H661 0.950 . S
C685 C684 1.524 . S
C685 C686 1.415 . S
C686 H662 0.950 . S
C686 C681 1.363 . S
C686 C685 1.415 . S
C687 H663 0.951 . S
C687 C688 1.366 . S
C687 C689 1.388 . S
C688 C687 1.366 . S
C688 C692 1.385 . S
C689 H664 0.951 . S
C689 C687 1.388 . S
C689 C690 1.366 . S
C690 C689 1.366 . S
C690 C691 1.414 . S
C690 C693 1.499 . S
C691 H665 0.950 . S
C691 C690 1.414 . S
C691 C692 1.374 . S
C692 H666 0.950 . S
C692 C688 1.385 . S
C692 C691 1.374 . S
C693 C690 1.499 . S
C693 C694 1.373 . S
C693 C695 1.389 . S
C694 H667 0.950 . S
C694 C680 1.377 . S
C694 C693 1.373 . S
C695 C679 1.377 . S
C695 C693 1.389 . S
C695 C696 1.524 . S
C696 C695 1.524 . S
C696 C697 1.397 . S
C696 C701 1.363 . S
C697 H668 0.950 . S
C697 C696 1.397 . S
C697 C698 1.334 . S
C698 H669 0.950 . S
C698 C697 1.334 . S
C698 C699 1.287 . S
C699 C698 1.287 . S
C699 C700 1.524 . S
C699 H702 0.999 . S
C700 H670 0.950 . S
C700 C699 1.524 . S
C700 C701 1.415 . S
C701 H671 0.950 . S
C701 C696 1.363 . S
C701 C700 1.415 . S
H702 C699 0.999 . S
H703 C684 0.913 . S
H704 C722 0.953 . S
H705 C724 0.942 1_655 S
H706 C726 0.950 . S
H707 C727 0.950 . S
H708 C729 0.951 . S
H709 C732 0.995 . S
H710 C733 0.950 . S
H711 C735 0.950 . S
H712 C736 0.950 . S
H713 C737 0.951 . S
H714 C739 0.951 . S
H715 C741 0.950 . S
H716 C742 0.950 . S
H717 C744 0.951 . S
H718 C747 0.996 . S
H719 C748 0.950 . S
H720 C750 0.950 1_455 S
H721 C751 0.950 . S
C722 H704 0.953 . S
C722 C723 1.364 1_655 S
C722 C724 1.388 1_655 S
C723 C722 1.364 1_455 S
C723 C727 1.385 . S
C724 H705 0.942 1_455 S
C724 C722 1.388 1_455 S
C724 C725 1.375 . S
C725 C724 1.375 . S
C725 C726 1.414 . S
C725 C728 1.499 . S
C726 H706 0.950 . S
C726 C725 1.414 . S
C726 C727 1.374 . S
C727 H707 0.950 . S
C727 C723 1.385 . S
C727 C726 1.374 . S
C728 C725 1.499 . S
C728 C729 1.358 1_554 S
C728 C730 1.389 1_545 S
C729 H708 0.951 . S
C729 C728 1.358 1_556 S
C729 C745 1.391 . S
C730 C728 1.389 1_565 S
C730 C731 1.524 . S
C730 C744 1.391 . S
C731 C730 1.524 . S
C731 C732 1.397 . S
C731 C736 1.363 . S
C732 H709 0.995 . S
C732 C731 1.397 . S
C732 C733 1.334 . S
C733 H710 0.950 . S
C733 C732 1.334 . S
C733 C734 1.287 . S
C734 C733 1.287 . S
C734 C735 1.524 . S
C734 H753 0.913 . S
C735 H711 0.950 . S
C735 C734 1.524 . S
C735 C736 1.415 . S
C736 H712 0.950 . S
C736 C731 1.363 . S
C736 C735 1.415 . S
C737 H713 0.951 . S
C737 C738 1.366 . S
C737 C739 1.388 . S
C738 C737 1.366 . S
C738 C742 1.385 1_455 S
C739 H714 0.951 . S
C739 C737 1.388 . S
C739 C740 1.366 . S
C740 C739 1.366 . S
C740 C741 1.414 1_455 S
C740 C743 1.499 . S
C741 H715 0.950 . S
C741 C740 1.414 1_655 S
C741 C742 1.374 . S
C742 H716 0.950 . S
C742 C738 1.385 1_655 S
C742 C741 1.374 . S
C743 C740 1.499 . S
C743 C744 1.358 1_556 S
C743 C745 1.389 1_565 S
C744 H717 0.951 . S
C744 C730 1.391 . S
C744 C743 1.358 1_554 S
C745 C729 1.391 . S
C745 C743 1.389 1_545 S
C745 C746 1.524 1_455 S
C746 C745 1.524 1_655 S
C746 C747 1.397 . S
C746 C751 1.363 1_655 S
C747 H718 0.996 . S
C747 C746 1.397 . S
C747 C748 1.334 . S
C748 H719 0.950 . S
C748 C747 1.334 . S
C748 C749 1.287 . S
C749 C748 1.287 . S
C749 C750 1.524 . S
C749 H752 0.999 . S
C750 H720 0.950 1_655 S
C750 C749 1.524 . S
C750 C751 1.415 1_655 S
C751 H721 0.950 . S
C751 C746 1.363 1_455 S
C751 C750 1.415 1_455 S
H752 C749 0.999 . S
H753 C734 0.913 . S
H754 C772 0.951 . S
H755 C774 0.951 . S
H756 C776 0.950 . S
H757 C777 0.950 . S
H758 C779 0.950 . S
H759 C782 0.950 1_455 S
H760 C783 0.941 1_556 S
H761 C785 0.950 . S
H762 C786 0.950 . S
H763 C787 0.951 . S
H764 C789 0.951 . S
H765 C791 0.950 . S
H766 C792 0.950 . S
H767 C794 0.950 . S
H768 C797 0.950 1_655 S
H769 C798 0.941 1_554 S
H770 C800 0.950 . S
H771 C801 0.950 . S
C772 H754 0.951 . S
C772 C773 1.366 1_655 S
C772 C774 1.388 . S
C773 C772 1.366 1_455 S
C773 C777 1.385 . S
C774 H755 0.951 . S
C774 C772 1.388 . S
C774 C775 1.366 1_655 S
C775 C774 1.366 1_455 S
C775 C776 1.414 . S
C775 C778 1.499 . S
C776 H756 0.950 . S
C776 C775 1.414 . S
C776 C777 1.374 . S
C777 H757 0.950 . S
C777 C773 1.385 . S
C777 C776 1.374 . S
C778 C775 1.499 . S
C778 C779 1.373 . S
C778 C780 1.393 1_456 S
C779 H758 0.950 . S
C779 C778 1.373 . S
C779 C795 1.373 . S
C780 C778 1.393 1_654 S
C780 C781 1.524 . S
C780 C794 1.373 . S
C781 C780 1.524 . S
C781 C782 1.397 1_554 S
C781 C786 1.363 . S
C782 H759 0.950 1_655 S
C782 C781 1.397 1_556 S
C782 C783 1.330 1_556 S
C783 H760 0.941 1_554 S
C783 C782 1.330 1_554 S
C783 C784 1.302 . S
C784 C783 1.302 . S
C784 C785 1.524 . S
C784 H803 0.913 . S
C785 H761 0.950 . S
C785 C784 1.524 . S
C785 C786 1.415 . S
C786 H762 0.950 . S
C786 C781 1.363 . S
C786 C785 1.415 . S
C787 H763 0.951 . S
C787 C788 1.366 . S
C787 C789 1.388 . S
C788 C787 1.366 . S
C788 C792 1.385 1_455 S
C789 H764 0.951 . S
C789 C787 1.388 . S
C789 C790 1.366 . S
C790 C789 1.366 . S
C790 C791 1.414 1_455 S
C790 C793 1.499 . S
C791 H765 0.950 . S
C791 C790 1.414 1_655 S
C791 C792 1.374 . S
C792 H766 0.950 . S
C792 C788 1.385 1_655 S
C792 C791 1.374 . S
C793 C790 1.499 . S
C793 C794 1.373 1_455 S
C793 C795 1.393 1_554 S
C794 H767 0.950 . S
C794 C780 1.373 . S
C794 C793 1.373 1_655 S
C795 C779 1.373 . S
C795 C793 1.393 1_556 S
C795 C796 1.524 . S
C796 C795 1.524 . S
C796 C797 1.397 1_556 S
C796 C801 1.363 . S
C797 H768 0.950 1_455 S
C797 C796 1.397 1_554 S
C797 C798 1.330 1_554 S
C798 H769 0.941 1_556 S
C798 C797 1.330 1_556 S
C798 C799 1.302 . S
C799 C798 1.302 . S
C799 C800 1.524 . S
C799 H802 0.999 . S
C800 H770 0.950 . S
C800 C799 1.524 . S
C800 C801 1.415 . S
C801 H771 0.950 . S
C801 C796 1.363 . S
C801 C800 1.415 . S
H802 C799 0.999 . S
H803 C784 0.913 . S
H804 C822 0.951 . S
H805 C824 0.951 . S
H806 C826 0.950 . S
H807 C827 0.950 . S
H808 C829 0.950 . S
H809 C832 0.950 . S
H810 C833 0.950 . S
H811 C835 0.950 . S
H812 C836 0.950 . S
H813 C837 0.951 . S
H814 C839 0.951 . S
H815 C841 0.950 . S
H816 C842 0.950 . S
H817 C844 0.950 . S
H818 C847 0.950 . S
H819 C848 0.950 . S
H820 C850 0.950 . S
H821 C851 0.950 . S
C822 H804 0.951 . S
C822 C823 1.366 . S
C822 C824 1.388 . S
C823 C822 1.366 . S
C823 C827 1.385 . S
C824 H805 0.951 . S
C824 C822 1.388 . S
C824 C825 1.366 . S
C825 C824 1.366 . S
C825 C826 1.414 . S
C825 C828 1.499 . S
C826 H806 0.950 . S
C826 C825 1.414 . S
C826 C827 1.374 . S
C827 H807 0.950 . S
C827 C823 1.385 . S
C827 C826 1.374 . S
C828 C825 1.499 . S
C828 C829 1.373 . S
C828 C830 1.389 . S
C829 H808 0.950 . S
C829 C828 1.373 . S
C829 C845 1.377 . S
C830 C828 1.389 . S
C830 C831 1.524 . S
C830 C844 1.377 . S
C831 C830 1.524 . S
C831 C832 1.397 . S
C831 C836 1.363 . S
C832 H809 0.950 . S
C832 C831 1.397 . S
C832 C833 1.334 . S
C833 H810 0.950 . S
C833 C832 1.334 . S
C833 C834 1.287 . S
C834 C833 1.287 . S
C834 C835 1.524 . S
C834 H853 0.913 . S
C835 H811 0.950 . S
C835 C834 1.524 . S
C835 C836 1.415 . S
C836 H812 0.950 . S
C836 C831 1.363 . S
C836 C835 1.415 . S
C837 H813 0.951 . S
C837 C838 1.366 . S
C837 C839 1.388 . S
C838 C837 1.366 . S
C838 C842 1.385 . S
C839 H814 0.951 . S
C839 C837 1.388 . S
C839 C840 1.366 . S
C840 C839 1.366 . S
C840 C841 1.414 . S
C840 C843 1.499 . S
C841 H815 0.950 . S
C841 C840 1.414 . S
C841 C842 1.374 . S
C842 H816 0.950 . S
C842 C838 1.385 . S
C842 C841 1.374 . S
C843 C840 1.499 . S
C843 C844 1.373 . S
C843 C845 1.389 . S
C844 H817 0.950 . S
C844 C830 1.377 . S
C844 C843 1.373 . S
C845 C829 1.377 . S
C845 C843 1.389 . S
C845 C846 1.524 . S
C846 C845 1.524 . S
C846 C847 1.397 . S
C846 C851 1.363 . S
C847 H818 0.950 . S
C847 C846 1.397 . S
C847 C848 1.334 . S
C848 H819 0.950 . S
C848 C847 1.334 . S
C848 C849 1.287 . S
C849 C848 1.287 . S
C849 C850 1.524 . S
C849 H852 0.999 . S
C850 H820 0.950 . S
C850 C849 1.524 . S
C850 C851 1.415 . S
C851 H821 0.950 . S
C851 C846 1.363 . S
C851 C850 1.415 . S
H852 C849 0.999 . S
H853 C834 0.913 . S
H854 C872 0.951 . S
H855 C874 0.951 . S
H856 C876 0.950 . S
H857 C877 0.950 . S
H858 C879 0.950 . S
H859 C882 0.950 . S
H860 C883 0.950 . S
H861 C885 0.950 . S
H862 C886 0.950 . S
H863 C887 0.951 . S
H864 C889 0.951 . S
H865 C891 0.950 . S
H866 C892 0.950 . S
H867 C894 0.950 . S
H868 C897 0.950 . S
H869 C898 0.950 . S
H870 C900 0.950 . S
H871 C901 0.950 . S
C872 H854 0.951 . S
C872 C873 1.366 . S
C872 C874 1.388 . S
C873 C872 1.366 . S
C873 C877 1.385 . S
C874 H855 0.951 . S
C874 C872 1.388 . S
C874 C875 1.366 . S
C875 C874 1.366 . S
C875 C876 1.414 . S
C875 C878 1.499 . S
C876 H856 0.950 . S
C876 C875 1.414 . S
C876 C877 1.374 . S
C877 H857 0.950 . S
C877 C873 1.385 . S
C877 C876 1.374 . S
C878 C875 1.499 . S
C878 C879 1.373 1_565 S
C878 C880 1.389 . S
C879 H858 0.950 . S
C879 C878 1.373 1_545 S
C879 C895 1.377 . S
C880 C878 1.389 . S
C880 C881 1.524 . S
C880 C894 1.377 . S
C881 C880 1.524 . S
C881 C882 1.397 . S
C881 C886 1.363 . S
C882 H859 0.950 . S
C882 C881 1.397 . S
C882 C883 1.334 . S
C883 H860 0.950 . S
C883 C882 1.334 . S
C883 C884 1.287 . S
C884 C883 1.287 . S
C884 C885 1.524 . S
C884 H903 0.913 . S
C885 H861 0.950 . S
C885 C884 1.524 . S
C885 C886 1.415 . S
C886 H862 0.950 . S
C886 C881 1.363 . S
C886 C885 1.415 . S
C887 H863 0.951 . S
C887 C888 1.366 . S
C887 C889 1.388 . S
C888 C887 1.366 . S
C888 C892 1.385 . S
C889 H864 0.951 . S
C889 C887 1.388 . S
C889 C890 1.366 . S
C890 C889 1.366 . S
C890 C891 1.414 . S
C890 C893 1.499 . S
C891 H865 0.950 . S
C891 C890 1.414 . S
C891 C892 1.374 . S
C892 H866 0.950 . S
C892 C888 1.385 . S
C892 C891 1.374 . S
C893 C890 1.499 . S
C893 C894 1.373 1_545 S
C893 C895 1.389 . S
C894 H867 0.950 . S
C894 C880 1.377 . S
C894 C893 1.373 1_565 S
C895 C879 1.377 . S
C895 C893 1.389 . S
C895 C896 1.524 . S
C896 C895 1.524 . S
C896 C897 1.397 . S
C896 C901 1.363 . S
C897 H868 0.950 . S
C897 C896 1.397 . S
C897 C898 1.334 . S
C898 H869 0.950 . S
C898 C897 1.334 . S
C898 C899 1.287 . S
C899 C898 1.287 . S
C899 C900 1.524 . S
C899 H902 0.999 . S
C900 H870 0.950 . S
C900 C899 1.524 . S
C900 C901 1.415 . S
C901 H871 0.950 . S
C901 C896 1.363 . S
C901 C900 1.415 . S
H902 C899 0.999 . S
H903 C884 0.913 . S
C123 C18 1.397 . S
C138 C5 1.397 . S
C173 C31 1.397 . S
C188 C44 1.398 . S
C223 C57 1.398 . S
C238 C70 1.397 . S
C273 C83 1.397 . S
C288 C96 1.398 . S
C323 C99 1.251 . S
C338 C8 1.250 . S
C373 C86 1.250 . S
C388 C21 1.251 . S
C423 C34 1.252 . S
C438 C73 1.250 . S
C473 C60 1.251 . S
C488 C47 1.251 . S
C523 C75 1.406 . S
C538 C36 1.406 . S
C573 C62 1.406 . S
C588 C49 1.406 . S
C623 C101 1.406 . S
C638 C10 1.406 . S
C673 C23 1.406 . S
C688 C88 1.406 . S
C723 C0 1.196 . S
C738 C26 1.197 . S
C773 C39 1.197 . S
C788 C13 1.197 . S
C823 C78 1.196 . S
C838 C52 1.197 . S
C873 C65 1.197 . S
C888 C91 1.197 . S
