# Generated by pormake.
# Topology snk, (6)-cn, num edge types: 1
# Building blocks:
#     Node 0, Type 0, BuildingBlock: CUWYAW_clean_sbu_0, # of connection points: 6
#     Node 1, Type 0, BuildingBlock: CUWYAW_clean_sbu_0, # of connection points: 6
#     Node 2, Type 0, BuildingBlock: CUWYAW_clean_sbu_0, # of connection points: 6
#     Node 3, Type 0, BuildingBlock: CUWYAW_clean_sbu_0, # of connection points: 6
#     Node 4, Type 0, BuildingBlock: CUWYAW_clean_sbu_0, # of connection points: 6
#     Node 5, Type 0, BuildingBlock: CUWYAW_clean_sbu_0, # of connection points: 6
#     Node 6, Type 0, BuildingBlock: CUWYAW_clean_sbu_0, # of connection points: 6
#     Node 7, Type 0, BuildingBlock: CUWYAW_clean_sbu_0, # of connection points: 6
#     Edge 8, Type (0, 0), BuildingBlock: XIVTED_clean_linker_0, # of connection points: 2
#     Edge 9, Type (0, 0), BuildingBlock: XIVTED_clean_linker_0, # of connection points: 2
#     Edge 10, Type (0, 0), BuildingBlock: XIVTED_clean_linker_0, # of connection points: 2
#     Edge 11, Type (0, 0), BuildingBlock: XIVTED_clean_linker_0, # of connection points: 2
#     Edge 12, Type (0, 0), BuildingBlock: XIVTED_clean_linker_0, # of connection points: 2
#     Edge 13, Type (0, 0), BuildingBlock: XIVTED_clean_linker_0, # of connection points: 2
#     Edge 14, Type (0, 0), BuildingBlock: XIVTED_clean_linker_0, # of connection points: 2
#     Edge 15, Type (0, 0), BuildingBlock: XIVTED_clean_linker_0, # of connection points: 2
#     Edge 16, Type (0, 0), BuildingBlock: XIVTED_clean_linker_0, # of connection points: 2
#     Edge 17, Type (0, 0), BuildingBlock: XIVTED_clean_linker_0, # of connection points: 2
#     Edge 18, Type (0, 0), BuildingBlock: XIVTED_clean_linker_0, # of connection points: 2
#     Edge 19, Type (0, 0), BuildingBlock: XIVTED_clean_linker_0, # of connection points: 2
#     Edge 20, Type (0, 0), BuildingBlock: XIVTED_clean_linker_0, # of connection points: 2
#     Edge 21, Type (0, 0), BuildingBlock: XIVTED_clean_linker_0, # of connection points: 2
#     Edge 22, Type (0, 0), BuildingBlock: XIVTED_clean_linker_0, # of connection points: 2
#     Edge 23, Type (0, 0), BuildingBlock: XIVTED_clean_linker_0, # of connection points: 2
#     Edge 24, Type (0, 0), BuildingBlock: XIVTED_clean_linker_0, # of connection points: 2
#     Edge 25, Type (0, 0), BuildingBlock: XIVTED_clean_linker_0, # of connection points: 2
#     Edge 26, Type (0, 0), BuildingBlock: XIVTED_clean_linker_0, # of connection points: 2
#     Edge 27, Type (0, 0), BuildingBlock: XIVTED_clean_linker_0, # of connection points: 2
#     Edge 28, Type (0, 0), BuildingBlock: XIVTED_clean_linker_0, # of connection points: 2
#     Edge 29, Type (0, 0), BuildingBlock: XIVTED_clean_linker_0, # of connection points: 2
#     Edge 30, Type (0, 0), BuildingBlock: XIVTED_clean_linker_0, # of connection points: 2
#     Edge 31, Type (0, 0), BuildingBlock: XIVTED_clean_linker_0, # of connection points: 2
# Relax obj value: 0.081
# Max RMSD: 0.155
# Mean RMSD: 0.126
data_MOF--net-snk--node1-CUWYAW_clean_sbu_0--edge1-XIVTED_clean_linker_0
_symmetry_space_group_name_H-M    P1
_symmetry_Int_Tables_number       1
_symmetry_cell_setting            triclinic
loop_
_symmetry_equiv_pos_as_xyz
'x, y, z'
_cell_length_a     37.947793
_cell_length_b     38.355178
_cell_length_c     25.555748
_cell_angle_alpha  95.687438
_cell_angle_beta   95.743263
_cell_angle_gamma 90.353876
loop_
_atom_site_label
_atom_site_type_symbol
_atom_site_fract_x
_atom_site_fract_y
_atom_site_fract_z
_atom_type_partial_charge
C0 C 0.03982 0.03883 0.67527 0.0
Eu1 Eu 0.01627 0.02129 0.57652 0.0
C2 C 0.03251 0.03244 0.72907 0.0
C3 C 0.04206 0.05825 0.77089 0.0
C4 C 0.03611 0.05281 0.82258 0.0
C5 C 0.02043 0.02135 0.83358 0.0
C6 C 0.01052 0.9956 0.7913 0.0
C7 C 0.01654 0.00109 0.73949 0.0
C8 C 0.96899 0.05741 0.51806 0.0
C9 C 0.95093 0.9636 0.56512 0.0
C10 C 0.96295 0.97055 0.36887 0.0
Eu11 Eu 0.98854 0.98526 0.4673 0.0
C12 C 0.97054 0.97673 0.31508 0.0
C13 C 0.9605 0.95108 0.27322 0.0
C14 C 0.96663 0.95635 0.22154 0.0
C15 C 0.98295 0.98749 0.21055 0.0
C16 C 0.99337 0.01306 0.25285 0.0
C17 C 0.98721 0.00773 0.30467 0.0
C18 C 0.03553 0.94804 0.52454 0.0
C19 C 0.05539 0.04136 0.47902 0.0
O20 O 0.05203 0.01261 0.64599 0.0
O21 O 0.01641 0.05689 0.64875 0.0
O22 O 0.99637 0.07198 0.54652 0.0
O23 O 0.96729 0.02517 0.52286 0.0
O24 O 0.97756 0.97983 0.59571 0.0
O25 O 0.94654 0.96576 0.5136 0.0
O26 O 0.95321 0.99754 0.3993 0.0
O27 O 0.98471 0.95021 0.39418 0.0
O28 O 0.00909 0.93397 0.49321 0.0
O29 O 0.03741 0.9806 0.52155 0.0
O30 O 0.02883 0.02521 0.4482 0.0
O31 O 0.05904 0.03997 0.53075 0.0
H32 H 0.05426 0.08269 0.76357 0.0
H33 H 0.0435 0.07345 0.85389 0.0
H34 H 0.99869 0.97095 0.79834 0.0
H35 H 0.00899 0.98079 0.70771 0.0
H36 H 0.94777 0.92691 0.28051 0.0
H37 H 0.95884 0.93582 0.19022 0.0
H38 H 0.0057 0.03747 0.24584 0.0
H39 H 0.9952 0.0279 0.33645 0.0
C40 C 0.21255 0.78305 0.90935 0.0
Eu41 Eu 0.23472 0.75768 0.82008 0.0
C42 C 0.22043 0.77862 0.96595 0.0
C43 C 0.19715 0.79203 1.00188 0.0
C44 C 0.20352 0.7872 0.05555 0.0
C45 C 0.23337 0.76878 0.07446 0.0
C46 C 0.25686 0.75561 0.03818 0.0
C47 C 0.25041 0.76044 0.98441 0.0
C48 C 0.20636 0.70421 0.75191 0.0
C49 C 0.29564 0.70094 0.81913 0.0
C50 C 0.29254 0.71715 0.62682 0.0
Eu51 Eu 0.27015 0.74231 0.71606 0.0
C52 C 0.28483 0.72174 0.57024 0.0
C53 C 0.30819 0.70839 0.53439 0.0
C54 C 0.30195 0.71333 0.48074 0.0
C55 C 0.27216 0.73182 0.46178 0.0
C56 C 0.24862 0.74497 0.498 0.0
C57 C 0.25494 0.74002 0.55174 0.0
C58 C 0.2985 0.79566 0.78469 0.0
C59 C 0.20928 0.79911 0.71705 0.0
O60 O 0.23722 0.79816 0.88668 0.0
O61 O 0.19768 0.75609 0.87977 0.0
O62 O 0.2085 0.70374 0.80287 0.0
O63 O 0.21722 0.73305 0.74003 0.0
O64 O 0.27935 0.72448 0.84894 0.0
O65 O 0.29263 0.70001 0.76679 0.0
O66 O 0.26777 0.70199 0.64924 0.0
O67 O 0.30737 0.74403 0.65663 0.0
O68 O 0.29642 0.79632 0.73376 0.0
O69 O 0.28761 0.76673 0.79605 0.0
O70 O 0.22558 0.7756 0.68718 0.0
O71 O 0.21225 0.79995 0.76937 0.0
H72 H 0.17389 0.80616 0.98836 0.0
H73 H 0.18516 0.79819 0.08232 0.0
H74 H 0.27987 0.74097 0.05112 0.0
H75 H 0.26864 0.74974 0.9572 0.0
H76 H 0.33139 0.69419 0.54794 0.0
H77 H 0.32035 0.70237 0.45402 0.0
H78 H 0.22565 0.75966 0.48503 0.0
H79 H 0.23666 0.7507 0.5789 0.0
C80 C 0.45343 0.00852 0.85838 0.0
Eu81 Eu 0.48645 0.00992 0.95321 0.0
C82 C 0.46244 0.0057 0.80351 0.0
C83 C 0.49785 0.00501 0.79211 0.0
C84 C 0.50595 0.00344 0.73966 0.0
C85 C 0.47876 0.00244 0.69771 0.0
C86 C 0.44332 0.00274 0.70958 0.0
C87 C 0.43528 0.00438 0.76198 0.0
C88 C 0.54527 0.04844 0.99056 0.0
C89 C 0.54774 0.95035 0.95926 0.0
C90 C 0.55525 0.99359 0.15696 0.0
Eu91 Eu 0.52235 0.99257 0.06208 0.0
C92 C 0.54628 0.99636 0.21187 0.0
C93 C 0.5109 0.99687 0.22336 0.0
C94 C 0.50286 0.99829 0.27584 0.0
C95 C 0.5301 -0.00069 0.31773 0.0
C96 C 0.56552 -0.00081 0.30577 0.0
C97 C 0.57349 0.99771 0.25334 0.0
C98 C 0.46345 0.95414 0.02429 0.0
C99 C 0.4612 0.05216 0.05624 0.0
O100 O 0.45857 0.98061 0.88359 0.0
O101 O 0.46375 0.03742 0.8876 0.0
O102 O 0.51914 0.06044 0.96132 0.0
O103 O 0.54043 0.01653 0.99458 0.0
O104 O 0.5185 0.96111 0.9332 0.0
O105 O 0.55847 0.96389 1.00797 0.0
O106 O 0.55038 0.02159 0.13188 0.0
O107 O 0.5447 0.9648 0.12761 0.0
O108 O 0.48955 0.94199 0.05341 0.0
O109 O 0.46844 0.98605 0.02073 0.0
O110 O 0.49048 0.04142 0.08218 0.0
O111 O 0.45039 0.03864 1.00752 0.0
H112 H 0.51917 0.00589 0.82379 0.0
H113 H 0.5335 0.00278 0.73195 0.0
H114 H 0.42173 0.00247 0.67842 0.0
H115 H 0.4078 0.00498 0.77013 0.0
H116 H 0.48953 0.99595 0.19174 0.0
H117 H 0.47533 -0.00119 0.28362 0.0
H118 H 0.58715 -0.00051 0.33686 0.0
H119 H 0.60096 0.99723 0.24512 0.0
C120 C 0.22175 0.20888 0.11356 0.0
Eu121 Eu 0.23733 0.23317 0.21241 0.0
C122 C 0.2294 0.21605 0.06019 0.0
C123 C 0.23805 0.24995 0.04881 0.0
C124 C 0.24359 0.25627 0.99715 0.0
C125 C 0.24071 0.22877 0.956 0.0
C126 C 0.23263 0.19478 0.96802 0.0
C127 C 0.22703 0.18854 0.01956 0.0
C128 C 0.19796 0.27815 0.26929 0.0
C129 C 0.29256 0.30034 0.22353 0.0
C130 C 0.28558 0.28836 0.41974 0.0
Eu131 Eu 0.27203 0.26247 0.3213 0.0
C132 C 0.27818 0.28106 0.47315 0.0
C133 C 0.27014 0.24703 0.48459 0.0
C134 C 0.26469 0.24063 0.53625 0.0
C135 C 0.26711 0.26816 0.57734 0.0
C136 C 0.27465 0.30226 0.56526 0.0
C137 C 0.28013 0.3086 0.51371 0.0
C138 C 0.31231 0.21779 0.26524 0.0
C139 C 0.21725 0.19477 0.30997 0.0
O140 O 0.24786 0.19722 0.14409 0.0
O141 O 0.2027 0.23187 0.13898 0.0
O142 O 0.1849 0.25026 0.24095 0.0
O143 O 0.23055 0.2816 0.26518 0.0
O144 O 0.27756 0.27314 0.19326 0.0
O145 O 0.29004 0.30478 0.27492 0.0
O146 O 0.2588 0.29807 0.38843 0.0
O147 O 0.30626 0.26651 0.39531 0.0
O148 O 0.325 0.24488 0.29599 0.0
O149 O 0.27948 0.21424 0.26799 0.0
O150 O 0.23255 0.22177 0.34035 0.0
O151 O 0.21935 0.1906 0.25843 0.0
H152 H 0.24017 0.27156 0.07971 0.0
H153 H 0.25024 0.28266 0.98949 0.0
H154 H 0.22975 0.17308 0.93732 0.0
H155 H 0.22032 0.16222 0.02757 0.0
H156 H 0.2684 0.22541 0.45373 0.0
H157 H 0.25847 0.21414 0.54395 0.0
H158 H 0.27718 0.32401 0.5959 0.0
H159 H 0.28638 0.33503 0.50564 0.0
C160 C 0.71374 0.27739 0.39976 0.0
Eu161 Eu 0.73676 0.25343 0.31046 0.0
C162 C 0.72083 0.27197 0.45608 0.0
C163 C 0.69813 0.28637 0.49218 0.0
C164 C 0.70431 0.28139 0.54581 0.0
C165 C 0.73339 0.26185 0.56447 0.0
C166 C 0.75616 0.24747 0.52795 0.0
C167 C 0.74991 0.25246 0.47425 0.0
C168 C 0.70998 0.20168 0.23819 0.0
C169 C 0.79754 0.1962 0.30701 0.0
C170 C 0.79868 0.21977 0.1189 0.0
Eu171 Eu 0.77451 0.24259 0.20784 0.0
C172 C 0.78956 0.22233 0.06204 0.0
C173 C 0.81166 0.20707 0.02573 0.0
C174 C 0.80442 0.21053 0.97175 0.0
C175 C 0.77489 0.22944 0.95295 0.0
C176 C 0.75244 0.24426 0.9896 0.0
C177 C 0.75974 0.24076 0.04368 0.0
C178 C 0.80166 0.29338 0.28208 0.0
C179 C 0.71174 0.29716 0.20949 0.0
O180 O 0.73909 0.29258 0.37864 0.0
O181 O 0.69877 0.25109 0.36873 0.0
O182 O 0.71043 0.20009 0.2888 0.0
O183 O 0.72105 0.23106 0.22852 0.0
O184 O 0.77841 0.21631 0.33788 0.0
O185 O 0.79849 0.20004 0.25612 0.0
O186 O 0.77675 0.20167 0.14258 0.0
O187 O 0.80978 0.24882 0.14713 0.0
O188 O 0.80099 0.29607 0.23172 0.0
O189 O 0.79026 0.26383 0.28996 0.0
O190 O 0.72924 0.27502 0.17921 0.0
O191 O 0.71384 0.29655 0.26156 0.0
H192 H 0.6756 0.30159 0.47887 0.0
H193 H 0.68654 0.29329 0.57278 0.0
H194 H 0.77855 0.23193 0.54071 0.0
H195 H 0.76769 0.24102 0.44689 0.0
H196 H 0.83474 0.19267 0.03919 0.0
H197 H 0.82193 0.19826 0.94471 0.0
H198 H 0.72968 0.25926 0.9767 0.0
H199 H 0.7424 0.25281 0.07122 0.0
C200 C 0.72695 0.70471 0.61116 0.0
Eu201 Eu 0.73761 0.73233 0.7091 0.0
C202 C 0.73248 0.71282 0.55753 0.0
C203 C 0.73811 0.74734 0.54611 0.0
C204 C 0.74265 0.7543 0.49439 0.0
C205 C 0.74179 0.72681 0.45336 0.0
C206 C 0.73648 0.69227 0.46539 0.0
C207 C 0.73188 0.6854 0.51696 0.0
C208 C 0.69688 0.77969 0.75922 0.0
C209 C 0.7926 0.79982 0.72189 0.0
C210 C 0.78049 0.79011 0.91742 0.0
Eu211 Eu 0.76924 0.76286 0.81933 0.0
C212 C 0.77474 0.78207 0.97102 0.0
C213 C 0.76899 0.74758 0.98249 0.0
C214 C 0.76439 0.74069 0.03422 0.0
C215 C 0.7653 0.76821 0.0752 0.0
C216 C 0.77068 0.80272 0.06311 0.0
C217 C 0.77536 0.80953 1.01153 0.0
C218 C 0.80943 0.7149 0.76891 0.0
C219 C 0.71391 0.69578 0.80675 0.0
O220 O 0.75541 0.69947 0.64247 0.0
O221 O 0.70341 0.7232 0.63523 0.0
O222 O 0.68421 0.75256 0.7286 0.0
O223 O 0.73009 0.78185 0.75941 0.0
O224 O 0.77776 0.77274 0.69116 0.0
O225 O 0.78911 0.80443 0.77302 0.0
O226 O 0.7522 0.79606 0.88621 0.0
O227 O 0.80358 0.7711 0.89318 0.0
O228 O 0.82249 0.74211 0.79898 0.0
O229 O 0.7763 0.71322 0.76934 0.0
O230 O 0.72864 0.72297 0.83733 0.0
O231 O 0.71773 0.69088 0.75571 0.0
H232 H 0.73887 0.76885 0.57709 0.0
H233 H 0.74711 0.78113 0.48661 0.0
H234 H 0.7352 0.67055 0.43474 0.0
H235 H 0.72755 0.65859 0.52512 0.0
H236 H 0.76821 0.72605 0.95156 0.0
H237 H 0.75987 0.71388 0.04204 0.0
H238 H 0.772 0.82447 0.09373 0.0
H239 H 0.77978 0.83632 1.00334 0.0
C240 C 0.54215 0.52994 0.16775 0.0
Eu241 Eu 0.51678 0.51532 0.0692 0.0
C242 C 0.53368 0.52482 0.22145 0.0
C243 C 0.54419 0.55062 0.26288 0.0
C244 C 0.53747 0.54615 0.31457 0.0
C245 C 0.52008 0.51569 0.32588 0.0
C246 C 0.50927 0.48995 0.28405 0.0
C247 C 0.51597 0.4945 0.23224 0.0
C248 C 0.46891 0.55282 1.01405 0.0
C249 C 0.45043 0.45881 0.05663 0.0
C250 C 0.46345 0.46587 0.86074 0.0
Eu251 Eu 0.48867 0.48078 0.95931 0.0
C252 C 0.4718 0.47111 0.80703 0.0
C253 C 0.46135 0.44531 0.76557 0.0
C254 C 0.46802 0.44986 0.71388 0.0
C255 C 0.48531 0.48038 0.70261 0.0
C256 C 0.49604 0.50613 0.74447 0.0
C257 C 0.48938 0.50151 0.79627 0.0
C258 C 0.53661 0.44345 1.01484 0.0
C259 C 0.5549 0.53738 0.97183 0.0
O260 O 0.55059 0.50209 0.13807 0.0
O261 O 0.52179 0.55106 0.14169 0.0
O262 O 0.49561 0.56676 0.04485 0.0
O263 O 0.46742 0.52015 0.01602 0.0
O264 O 0.47703 0.47471 0.08764 0.0
O265 O 0.44637 0.46118 1.00514 0.0
O266 O 0.45463 0.49358 0.89039 0.0
O267 O 0.48415 0.44504 0.88683 0.0
O268 O 0.50987 0.42939 0.98424 0.0
O269 O 0.53799 0.47606 1.01237 0.0
O270 O 0.52824 0.52157 0.94085 0.0
O271 O 0.55906 0.53486 0.02328 0.0
H272 H 0.55798 0.57415 0.25531 0.0
H273 H 0.54658 0.56626 0.34586 0.0
H274 H 0.49545 0.46639 0.29129 0.0
H275 H 0.50753 0.47429 0.20075 0.0
H276 H 0.44765 0.42173 0.77311 0.0
H277 H 0.45897 0.42973 0.68258 0.0
H278 H 0.50978 0.52974 0.73725 0.0
H279 H 0.49777 0.52172 0.82779 0.0
C280 C 0.95397 0.50273 0.3771 0.0
Eu281 Eu 0.98689 0.50292 0.47174 0.0
C282 C 0.96255 0.49962 0.32201 0.0
C283 C 0.99778 0.49797 0.30985 0.0
C284 C 0.00539 0.49589 0.25712 0.0
C285 C 0.97787 0.4953 0.2157 0.0
C286 C 0.94261 0.49664 0.22836 0.0
C287 C 0.93507 0.49879 0.28101 0.0
C288 C 0.04393 0.5423 0.51359 0.0
C289 C 0.05007 0.44469 0.47502 0.0
C290 C 0.0545 0.4825 0.67489 0.0
Eu291 Eu 0.02212 0.48275 0.57984 0.0
C292 C 0.04586 0.48614 0.72995 0.0
C293 C 0.01061 0.48776 0.742 0.0
C294 C 1.00294 0.49008 0.79472 0.0
C295 C 0.03042 0.49093 0.83623 0.0
C296 C 0.0657 0.48968 0.82368 0.0
C297 C 0.0733 0.48729 0.77104 0.0
C298 C 0.96475 0.44362 0.53788 0.0
C299 C 0.96002 0.54171 0.57627 0.0
O300 O 0.95819 0.47458 0.40203 0.0
O301 O 0.96536 0.53129 0.4064 0.0
O302 O 0.01774 0.55437 0.48444 0.0
O303 O 0.04027 0.50989 0.51523 0.0
O304 O 0.02285 0.45812 0.44761 0.0
O305 O 0.05828 0.45385 0.52611 0.0
O306 O 0.05128 0.51057 0.64971 0.0
O307 O 0.04232 0.45421 0.64574 0.0
O308 O 0.99071 0.4315 0.56731 0.0
O309 O 0.9688 0.47596 0.53646 0.0
O310 O 0.98865 0.52991 0.60251 0.0
O311 O 0.95016 0.53012 0.5264 0.0
H312 H 0.01934 0.49845 0.34112 0.0
H313 H 0.03279 0.49446 0.24879 0.0
H314 H 0.9208 0.49671 0.19761 0.0
H315 H 0.90772 0.50012 0.28975 0.0
H316 H 0.98908 0.48704 0.71066 0.0
H317 H 0.97551 0.49144 0.80297 0.0
H318 H 0.08749 0.48981 0.8545 0.0
H319 H 0.10067 0.48598 0.76239 0.0
H320 H 0.10916 0.08435 0.52895 0.0
H321 H 0.17492 0.1405 0.26046 0.0
H322 H 0.06112 0.04557 0.37357 0.0
H323 H 0.21039 0.19151 0.41522 0.0
H324 H 0.13719 0.10143 0.30144 0.0
H325 H 0.15043 0.11973 0.48806 0.0
C326 C 0.10735 0.08311 0.48624 0.0
C327 C 0.08148 0.06197 0.45472 0.0
C328 C 0.15334 0.12109 0.32642 0.0
C329 C 0.12878 0.10252 0.40759 0.0
C330 C 0.17502 0.14336 0.30306 0.0
C331 C 0.19589 0.16945 0.33437 0.0
C332 C 0.1526 0.12475 0.38155 0.0
C333 C 0.19476 0.17189 0.3894 0.0
C334 C 0.13091 0.10341 0.46291 0.0
C335 C 0.08047 0.06155 0.39954 0.0
N336 N 0.17347 0.14989 0.41117 0.0
N337 N 0.10374 0.08152 0.37777 0.0
H338 H 0.09332 0.9724 0.59196 0.0
H339 H 0.17335 0.78554 0.62007 0.0
H340 H 0.03692 0.8775 0.52641 0.0
H341 H 0.18792 0.865 0.75269 0.0
H342 H 0.13094 0.82286 0.57515 0.0
H343 H 0.13557 0.93708 0.64287 0.0
C344 C 0.08964 0.94424 0.58872 0.0
C345 C 0.06141 0.9278 0.5555 0.0
C346 C 0.14343 0.83212 0.61407 0.0
C347 C 0.10996 0.88758 0.61172 0.0
C348 C 0.16778 0.81099 0.63963 0.0
C349 C 0.18413 0.82227 0.69019 0.0
C350 C 0.13587 0.86512 0.63863 0.0
C351 C 0.17569 0.85536 0.71381 0.0
C352 C 0.11372 0.92421 0.61758 0.0
C353 C 0.05828 0.8912 0.55165 0.0
N354 N 0.15225 0.87591 0.68755 0.0
N355 N 0.08246 0.87228 0.57904 0.0
H356 H 0.31879 0.78806 0.88769 0.0
H357 H 0.41103 0.97599 0.95485 0.0
H358 H 0.32171 0.86143 0.77051 0.0
H359 H 0.4497 0.88454 0.02657 0.0
H360 H 0.36657 0.93908 0.89843 0.0
H361 H 0.35512 0.82868 0.95087 0.0
C362 C 0.32683 0.8129 0.87543 0.0
C363 C 0.3177 0.82139 0.82373 0.0
C364 C 0.3847 0.92725 0.92678 0.0
C365 C 0.35877 0.86784 0.89581 0.0
C366 C 0.41001 0.94817 0.95886 0.0
C367 C 0.4344 0.93301 0.99447 0.0
C368 C 0.38334 0.8912 0.93154 0.0
C369 C 0.43156 0.89706 0.99909 0.0
C370 C 0.34758 0.83593 0.91143 0.0
C371 C 0.32857 0.85392 0.80993 0.0
N372 N 0.40645 0.87727 0.96782 0.0
N373 N 0.34869 0.87609 0.84589 0.0
H374 H 0.39038 0.06417 0.03355 0.0
H375 H 0.38327 0.22232 0.25903 0.0
H376 H 0.4809 0.0979 0.14323 0.0
H377 H 0.29109 0.15848 0.20019 0.0
H378 H 0.4195 0.18272 0.20658 0.0
H379 H 0.35345 0.1048 0.08368 0.0
C380 C 0.40254 0.08029 0.0679 0.0
C381 C 0.43876 0.07763 0.08433 0.0
C382 C 0.39132 0.17744 0.20505 0.0
C383 C 0.39679 0.12414 0.14139 0.0
C384 C 0.37062 0.20001 0.23489 0.0
C385 C 0.33408 0.19377 0.2336 0.0
C386 C 0.37531 0.14865 0.17311 0.0
C387 C 0.31908 0.16448 0.20168 0.0
C388 C 0.38141 0.10326 0.0966 0.0
C389 C 0.45307 0.09898 0.12931 0.0
N390 N 0.33974 0.14306 0.17238 0.0
N391 N 0.43209 0.12146 0.15611 0.0
H392 H 0.94621 0.95768 0.67041 0.0
H393 H 0.79964 0.80407 0.61693 0.0
H394 H 0.89854 0.91926 0.51467 0.0
H395 H 0.83431 0.8541 0.77261 0.0
H396 H 0.83653 0.84535 0.57888 0.0
H397 H 0.90631 0.91931 0.70872 0.0
C398 C 0.92732 0.94128 0.64422 0.0
C399 C 0.92585 0.94169 0.58915 0.0
C400 C 0.83596 0.8474 0.62136 0.0
C401 C 0.88011 0.89752 0.63288 0.0
C402 C 0.81491 0.82378 0.64317 0.0
C403 C 0.81386 0.82553 0.69815 0.0
C404 C 0.8564 0.87286 0.65468 0.0
C405 C 0.83422 0.85174 0.73004 0.0
C406 C 0.90447 0.9194 0.66618 0.0
C407 C 0.90066 0.9199 0.55731 0.0
N408 N 0.85477 0.87423 0.70787 0.0
N409 N 0.87896 0.8986 0.57961 0.0
H410 H 0.98161 0.11621 0.47085 0.0
H411 H 0.78442 0.15698 0.38611 0.0
H412 H 0.90032 0.03959 0.48485 0.0
H413 H 0.86464 0.17933 0.28535 0.0
H414 H 0.82642 0.11969 0.43334 0.0
H415 H 0.93921 0.14667 0.41278 0.0
C416 C 0.95481 0.10592 0.46171 0.0
C417 C 0.94417 0.07561 0.48265 0.0
C418 C 0.83459 0.13247 0.40047 0.0
C419 C 0.8959 0.11028 0.41751 0.0
C420 C 0.81079 0.15371 0.3737 0.0
C421 C 0.8212 0.171 0.33181 0.0
C422 C 0.86927 0.12955 0.38628 0.0
C423 C 0.85561 0.16611 0.31721 0.0
C424 C 0.93084 0.12307 0.42842 0.0
C425 C 0.90936 0.06299 0.4694 0.0
N426 N 0.87875 0.14627 0.3451 0.0
N427 N 0.88617 0.08073 0.43823 0.0
H428 H 0.68791 0.13536 0.24958 0.0
H429 H 0.55859 0.11816 0.98808 0.0
H430 H 0.68969 0.21092 0.13542 0.0
H431 H 0.59801 0.02688 0.05955 0.0
H432 H 0.60397 0.15405 0.04427 0.0
H433 H 0.65209 0.09579 0.18344 0.0
C434 C 0.68096 0.14342 0.21046 0.0
C435 C 0.69136 0.1764 0.19786 0.0
C436 C 0.60284 0.12609 0.0472 0.0
C437 C 0.65038 0.13185 0.1228 0.0
C438 C 0.57697 0.1057 1.01534 0.0
C439 C 0.57435 0.06974 0.01999 0.0
C440 C 0.62564 0.11037 0.0844 0.0
C441 C 0.59887 0.05469 0.05553 0.0
C442 C 0.66072 0.12088 0.1728 0.0
C443 C 0.68196 0.18571 0.14667 0.0
N444 N 0.62322 0.0752 0.08711 0.0
N445 N 0.66149 0.1637 0.11111 0.0
H446 H 0.62532 0.77768 0.76074 0.0
H447 H 0.61808 0.93719 0.98383 0.0
H448 H 0.71833 0.83905 0.82385 0.0
H449 H 0.52843 0.90507 0.87145 0.0
H450 H 0.65492 0.89567 0.93526 0.0
H451 H 0.58892 0.81888 0.81027 0.0
C452 C 0.63809 0.79981 0.78514 0.0
C453 C 0.67492 0.80484 0.78859 0.0
C454 C 0.62718 0.89778 0.92134 0.0
C455 C 0.6335 0.8518 0.84574 0.0
C456 C 0.6061 0.92128 0.94915 0.0
C457 C 0.57013 0.92462 0.93158 0.0
C458 C 0.61204 0.87705 0.87625 0.0
C459 C 0.55606 0.90347 0.88624 0.0
C460 C 0.61731 0.8233 0.81332 0.0
C461 C 0.69008 0.83396 0.82073 0.0
N462 N 0.57699 0.88046 0.86031 0.0
N463 N 0.66932 0.85627 0.84841 0.0
H464 H 0.60774 0.58103 0.02279 0.0
H465 H 0.67256 0.6412 0.75623 0.0
H466 H 0.56053 0.5428 0.86672 0.0
H467 H 0.70606 0.69232 0.91164 0.0
H468 H 0.63549 0.60102 0.79626 0.0
H469 H 0.6481 0.61799 0.98285 0.0
C470 C 0.60593 0.58024 0.98012 0.0
C471 C 0.58054 0.55882 0.94811 0.0
C472 C 0.65103 0.62098 0.82159 0.0
C473 C 0.62676 0.60117 0.90212 0.0
C474 C 0.6723 0.6439 0.79878 0.0
C475 C 0.69243 0.6703 0.83055 0.0
C476 C 0.64998 0.6243 0.87665 0.0
C477 C 0.69092 0.6725 0.88549 0.0
C478 C 0.62895 0.60146 0.95735 0.0
C479 C 0.57949 0.559 0.89303 0.0
N480 N 0.67007 0.64983 0.90675 0.0
N481 N 0.60223 0.57984 0.87181 0.0
H482 H 0.67513 0.28245 0.11348 0.0
H483 H 0.59492 0.46823 0.08065 0.0
H484 H 0.68943 0.36276 0.24492 0.0
H485 H 0.53755 0.37307 0.01911 0.0
H486 H 0.63702 0.43347 0.13274 0.0
H487 H 0.63202 0.319 0.06831 0.0
C488 C 0.66931 0.30793 0.13273 0.0
C489 C 0.68584 0.31972 0.18296 0.0
C490 C 0.61498 0.42042 0.10811 0.0
C491 C 0.63685 0.36169 0.13112 0.0
C492 C 0.59099 0.44013 0.07855 0.0
C493 C 0.56251 0.42347 0.04616 0.0
C494 C 0.6109 0.38385 0.10372 0.0
C495 C 0.55909 0.38693 0.04371 0.0
C496 C 0.64458 0.32861 0.10704 0.0
C497 C 0.67708 0.35278 0.20627 0.0
N498 N 0.58322 0.36829 0.07172 0.0
N499 N 0.65332 0.37294 0.17982 0.0
H500 H 0.95534 0.37312 0.53402 0.0
H501 H 0.81523 0.28304 0.38555 0.0
H502 H 0.91048 0.46511 0.4707 0.0
H503 H 0.83064 0.35808 0.27436 0.0
H504 H 0.85104 0.32021 0.45405 0.0
H505 H 0.91154 0.3368 0.47604 0.0
C506 C 0.93597 0.38566 0.50829 0.0
C507 C 0.9366 0.42201 0.50659 0.0
C508 C 0.84669 0.32847 0.41463 0.0
C509 C 0.88649 0.38086 0.44061 0.0
C510 C 0.82606 0.30747 0.37564 0.0
C511 C 0.82051 0.31739 0.32413 0.0
C512 C 0.8618 0.3596 0.40198 0.0
C513 C 0.83475 0.34942 0.31353 0.0
C514 C 0.91088 0.36498 0.4755 0.0
C515 C 0.91105 0.43704 0.47254 0.0
N516 N 0.85493 0.36949 0.35228 0.0
N517 N 0.88727 0.41629 0.44009 0.0
H518 H 0.78645 0.65551 0.70582 0.0
H519 H 0.97958 0.58511 0.66584 0.0
H520 H 0.88116 0.71447 0.76807 0.0
H521 H 0.89003 0.55659 0.55139 0.0
H522 H 0.94267 0.62719 0.71275 0.0
H523 H 0.82285 0.61343 0.65726 0.0
C524 C 0.81486 0.6597 0.70899 0.0
C525 C 0.83082 0.68874 0.74036 0.0
C526 C 0.93115 0.61175 0.67731 0.0
C527 C 0.87253 0.64035 0.68633 0.0
C528 C 0.95213 0.58764 0.65063 0.0
C529 C 0.93786 0.56735 0.60457 0.0
C530 C 0.89545 0.61518 0.65843 0.0
C531 C 0.90214 0.57184 0.58658 0.0
C532 C 0.83557 0.63568 0.68141 0.0
C533 C 0.8678 0.69252 0.74409 0.0
N534 N 0.88205 0.59511 0.61378 0.0
N535 N 0.88744 0.6685 0.71761 0.0
H536 H 0.3334 0.35551 0.27321 0.0
H537 H 0.39786 0.41471 1.00584 0.0
H538 H 0.3 0.30349 0.11835 0.0
H539 H 0.44452 0.45396 0.16177 0.0
H540 H 0.35758 0.37778 0.04605 0.0
H541 H 0.37 0.39573 0.2326 0.0
C542 C 0.33356 0.35263 0.23065 0.0
C543 C 0.31359 0.32595 0.19921 0.0
C544 C 0.37659 0.39454 0.07144 0.0
C545 C 0.35556 0.37202 0.15243 0.0
C546 C 0.39956 0.41574 0.04852 0.0
C547 C 0.42478 0.43742 0.08042 0.0
C548 C 0.37866 0.39513 0.12672 0.0
C549 C 0.4257 0.43754 0.13553 0.0
C550 C 0.35457 0.37558 0.2075 0.0
C551 C 0.31498 0.32355 0.14423 0.0
N552 N 0.40302 0.41672 0.15689 0.0
N553 N 0.33561 0.34624 0.12263 0.0
H554 H 0.41075 0.52847 0.94752 0.0
H555 H 0.33235 0.71551 0.91525 0.0
H556 H 0.46799 0.62331 1.0111 0.0
H557 H 0.31659 0.63465 0.78469 0.0
H558 H 0.37473 0.67848 0.96081 0.0
H559 H 0.36882 0.56365 0.89586 0.0
C560 C 0.41467 0.55659 0.95018 0.0
C561 C 0.44307 0.57304 0.98301 0.0
C562 C 0.362 0.66885 0.92219 0.0
C563 C 0.39488 0.61312 0.92589 0.0
C564 C 0.33767 0.68981 0.89627 0.0
C565 C 0.32096 0.67803 0.84614 0.0
C566 C 0.36918 0.63551 0.89843 0.0
C567 C 0.3291 0.64465 0.82324 0.0
C568 C 0.39077 0.57654 0.92087 0.0
C569 C 0.4465 0.6096 0.98615 0.0
N570 N 0.35251 0.62427 0.84987 0.0
N571 N 0.4225 0.62846 0.95831 0.0
H572 H 0.18541 0.71115 0.6489 0.0
H573 H 0.09782 0.52119 0.58165 0.0
H574 H 0.18466 0.63806 0.76684 0.0
H575 H 0.05533 0.61232 0.51299 0.0
H576 H 0.14163 0.559 0.63814 0.0
H577 H 0.14971 0.66963 0.58626 0.0
C578 C 0.17798 0.68619 0.66143 0.0
C579 C 0.18751 0.67803 0.71319 0.0
C580 C 0.12278 0.57054 0.61045 0.0
C581 C 0.14722 0.63056 0.64173 0.0
C582 C 0.09782 0.54912 0.57842 0.0
C583 C 0.07255 0.56391 0.54367 0.0
C584 C 0.12292 0.60671 0.60635 0.0
C585 C 0.07415 0.60003 0.53981 0.0
C586 C 0.1576 0.66264 0.62574 0.0
C587 C 0.17744 0.64533 0.72735 0.0
N588 N 0.09896 0.62029 0.57089 0.0
N589 N 0.15769 0.62264 0.69169 0.0
H590 H 0.14166 0.26222 0.32118 0.0
H591 H 0.07281 0.45051 0.37865 0.0
H592 H 0.20807 0.34856 0.29267 0.0
H593 H 0.07985 0.38456 0.50639 0.0
H594 H 0.11131 0.40999 0.33088 0.0
H595 H 0.10708 0.30328 0.37524 0.0
C596 C 0.14882 0.28982 0.32625 0.0
C597 C 0.17753 0.30224 0.30254 0.0
C598 C 0.1044 0.40458 0.36942 0.0
C599 C 0.13794 0.34889 0.36264 0.0
C600 C 0.08242 0.42744 0.39648 0.0
C601 C 0.07338 0.42074 0.44643 0.0
C602 C 0.11626 0.3743 0.39176 0.0
C603 C 0.08652 0.39061 0.46804 0.0
C604 C 0.12931 0.31304 0.35716 0.0
C605 C 0.18606 0.33812 0.31047 0.0
N606 N 0.10694 0.36808 0.44015 0.0
N607 N 0.16592 0.36041 0.3392 0.0
H608 H 0.96312 0.99024 0.86936 0.0
H609 H 0.04069 0.0178 0.17465 0.0
H610 H 0.06456 0.03926 0.92434 0.0
H611 H 0.93861 0.97009 0.11981 0.0
H612 H 0.04984 0.02607 0.08331 0.0
H613 H 0.95404 0.98188 0.96069 0.0
C614 C 0.9836 -0.00093 0.90053 0.0
C615 C 0.01464 0.01557 0.88895 0.0
C616 C 0.02544 0.01377 0.09125 0.0
C617 C 0.00421 0.0064 0.99397 0.0
C618 C 0.02009 0.00924 0.14351 0.0
C619 C 0.98884 0.99314 0.15515 0.0
C620 C 0.99936 0.00218 0.05011 0.0
C621 C 0.96335 0.98214 0.11284 0.0
C622 C 0.97829 0.99448 0.95279 0.0
C623 C 0.03998 0.02688 0.93129 0.0
N624 N 0.96918 0.98685 0.06235 0.0
N625 N 0.03421 0.02209 0.98178 0.0
H626 H 0.20894 0.7294 0.39832 0.0
H627 H 0.29664 0.77126 0.13786 0.0
H628 H 0.32104 0.74715 0.39446 0.0
H629 H 0.18457 0.75342 0.14184 0.0
H630 H 0.30616 0.76214 0.23155 0.0
H631 H 0.19947 0.73854 0.30465 0.0
C632 C 0.23157 0.73542 0.37795 0.0
C633 C 0.26588 0.73745 0.4046 0.0
C634 C 0.27947 0.76023 0.21194 0.0
C635 C 0.25521 0.74762 0.29675 0.0
C636 C 0.27403 0.76524 0.15826 0.0
C637 C 0.23971 0.76317 0.13165 0.0
C638 C 0.25044 0.75302 0.2395 0.0
C639 C 0.21143 0.7558 0.16067 0.0
C640 C 0.22616 0.74043 0.32427 0.0
C641 C 0.29418 0.7448 0.3756 0.0
N642 N 0.21743 0.75098 0.21284 0.0
N643 N 0.28822 0.74962 0.32343 0.0
H644 H 0.53132 0.03864 0.65851 0.0
H645 H 0.47772 0.96285 0.35697 0.0
H646 H 0.44537 0.96465 0.60936 0.0
H647 H 0.5635 0.03704 0.40613 0.0
H648 H 0.46523 0.96346 0.44902 0.0
H649 H 0.5439 0.03791 0.56648 0.0
C650 C 0.51524 0.02202 0.62846 0.0
C651 C 0.48721 0.00168 0.64188 0.0
C652 C 0.48677 0.97963 0.43969 0.0
C653 C 0.50124 0.00106 0.53602 0.0
C654 C 0.49378 0.97949 0.38702 0.0
C655 C 0.52173 -6e-05 0.37359 0.0
C656 C 0.5078 0.00041 0.47948 0.0
C657 C 0.54199 0.0205 0.41455 0.0
C658 C 0.5223 0.0218 0.5758 0.0
C659 C 0.46694 0.98112 0.60093 0.0
N660 N 0.53462 0.02021 0.46551 0.0
N661 N 0.47435 0.98134 0.54998 0.0
H662 H 0.21706 0.28453 0.90318 0.0
H663 H 0.29129 0.21265 0.63038 0.0
H664 H 0.27448 0.18821 0.88201 0.0
H665 H 0.23282 0.30836 0.65113 0.0
H666 H 0.28508 0.20305 0.72217 0.0
H667 H 0.22326 0.29409 0.81137 0.0
C668 C 0.23124 0.26551 0.87942 0.0
C669 C 0.24525 0.23549 0.90055 0.0
C670 C 0.27356 0.22614 0.70664 0.0
C671 C 0.25206 0.24608 0.79484 0.0
C672 C 0.27688 0.23152 0.65403 0.0
C673 C 0.26258 0.2614 0.63279 0.0
C674 C 0.25578 0.25076 0.73848 0.0
C675 C 0.24471 0.2852 0.66585 0.0
C676 C 0.23455 0.27087 0.8268 0.0
C677 C 0.26283 0.2115 0.86737 0.0
N678 N 0.24184 0.27938 0.71692 0.0
N679 N 0.26572 0.21731 0.8163 0.0
H680 H 0.71094 0.22796 0.89124 0.0
H681 H 0.79706 0.26266 0.62641 0.0
H682 H 0.8232 0.24175 0.88339 0.0
H683 H 0.68468 0.24921 0.6335 0.0
H684 H 0.80707 0.25443 0.72029 0.0
H685 H 0.70066 0.23584 0.79713 0.0
C686 C 0.73344 0.23281 0.86988 0.0
C687 C 0.76803 0.2341 0.89552 0.0
C688 C 0.78021 0.25327 0.70134 0.0
C689 C 0.75642 0.24285 0.7873 0.0
C690 C 0.77447 0.25775 0.64755 0.0
C691 C 0.73994 0.25664 0.62174 0.0
C692 C 0.75125 0.24756 0.72986 0.0
C693 C 0.71172 0.25077 0.6517 0.0
C694 C 0.72755 0.23711 0.81599 0.0
C695 C 0.79612 0.23998 0.86535 0.0
N696 N 0.718 0.24644 0.70401 0.0
N697 N 0.7897 0.24414 0.81303 0.0
H698 H 0.71343 0.78034 0.39966 0.0
H699 H 0.79363 0.7147 0.12894 0.0
H700 H 0.77921 0.68946 0.3807 0.0
H701 H 0.72797 0.80566 0.14789 0.0
H702 H 0.78816 0.70468 0.22079 0.0
H703 H 0.71892 0.7904 0.30782 0.0
C704 C 0.72927 0.76265 0.37635 0.0
C705 C 0.74583 0.73397 0.39804 0.0
C706 C 0.77491 0.72682 0.20486 0.0
C707 C 0.75189 0.7451 0.29245 0.0
C708 C 0.77782 0.73242 0.15225 0.0
C709 C 0.76127 0.7611 0.13055 0.0
C710 C 0.75525 0.75003 0.23616 0.0
C711 C 0.74159 0.78348 0.16306 0.0
C712 C 0.73219 0.76827 0.32376 0.0
C713 C 0.76556 0.71163 0.36554 0.0
N714 N 0.73914 0.77748 0.21413 0.0
N715 N 0.76802 0.71766 0.31449 0.0
H716 H 0.50649 0.43176 0.62631 0.0
H717 H 0.49904 0.56437 0.40221 0.0
H718 H 0.47808 0.54043 0.65247 0.0
H719 H 0.52722 0.45564 0.37601 0.0
H720 H 0.49131 0.55614 0.49396 0.0
H721 H 0.51423 0.44001 0.53458 0.0
C722 C 0.50176 0.45735 0.61275 0.0
C723 C 0.4915 0.48542 0.64724 0.0
C724 C 0.49914 0.53405 0.46816 0.0
C725 C 0.50059 0.49513 0.54209 0.0
C726 C 0.50371 0.53877 0.41577 0.0
C727 C 0.5139 0.51068 0.38126 0.0
C728 C 0.50484 0.501 0.48642 0.0
C729 C 0.51897 0.47796 0.40093 0.0
C730 C 0.50634 0.46208 0.56037 0.0
C731 C 0.48638 0.51813 0.62756 0.0
N732 N 0.51448 0.47405 0.45217 0.0
N733 N 0.49088 0.52205 0.57633 0.0
H734 H 0.06512 0.5291 0.92307 0.0
H735 H 0.94295 0.45742 0.12878 0.0
H736 H 0.97769 0.45629 0.87758 0.0
H737 H 0.03068 0.52986 0.17438 0.0
H738 H 0.95513 0.45683 0.03663 0.0
H739 H 0.05289 0.52976 1.01522 0.0
C740 C 0.04341 0.51314 0.93243 0.0
C741 C 0.02247 0.49253 0.89235 0.0
C742 C 0.97175 0.47284 0.06677 0.0
C743 C 0.00812 0.49338 0.99807 0.0
C744 C 0.96471 0.47332 0.11945 0.0
C745 C 0.98575 0.4938 0.15956 0.0
C746 C 1.00005 0.49303 0.05382 0.0
C747 C 0.01398 0.51337 0.14499 0.0
C748 C 0.03634 0.51365 0.9851 0.0
C749 C 0.9943 0.47288 0.90694 0.0
N750 N 0.02023 0.51256 0.09339 0.0
N751 N 0.98803 0.47373 0.95854 0.0
loop_
_geom_bond_atom_site_label_1
_geom_bond_atom_site_label_2
_geom_bond_distance
_geom_bond_site_symmetry_2
_ccdc_geom_bond_type
C0 Eu1 2.835 1_655 S
C0 C2 1.500 . S
C0 O20 1.257 1_655 S
C0 O21 1.260 . S
Eu1 C0 2.835 1_455 S
Eu1 O20 2.473 . S
Eu1 O21 2.480 1_455 S
Eu1 O22 2.430 1_455 S
Eu1 O23 2.670 1_455 S
Eu1 O24 2.394 1_445 S
Eu1 O29 2.355 1_545 S
Eu1 O31 2.374 . S
C2 C0 1.500 . S
C2 C3 1.377 . S
C2 C7 1.372 1_645 S
C3 C2 1.377 . S
C3 C4 1.395 . S
C3 H32 0.931 . S
C4 C3 1.395 . S
C4 C5 1.383 . S
C4 H33 0.931 . S
C5 C4 1.383 . S
C5 C6 1.394 1_545 S
C6 C5 1.394 1_565 S
C6 C7 1.374 1_655 S
C6 H34 0.931 1_655 S
C7 C2 1.372 1_465 S
C7 C6 1.374 1_455 S
C7 H35 0.940 . S
C8 O22 1.259 . S
C8 O23 1.270 . S
C9 O24 1.251 . S
C9 O25 1.251 . S
C10 Eu11 2.835 1_455 S
C10 C12 1.500 . S
C10 O26 1.257 1_455 S
C10 O27 1.260 . S
Eu11 C10 2.835 1_655 S
Eu11 O23 2.355 1_565 S
Eu11 O25 2.374 . S
Eu11 O26 2.473 . S
Eu11 O27 2.480 1_655 S
Eu11 O28 2.430 1_655 S
Eu11 O29 2.670 1_655 S
Eu11 O30 2.394 1_665 S
C12 C10 1.500 . S
C12 C13 1.377 . S
C12 C17 1.375 1_465 S
C13 C12 1.377 . S
C13 C14 1.395 . S
C13 H36 0.931 . S
C14 C13 1.395 . S
C14 C15 1.383 . S
C14 H37 0.931 . S
C15 C14 1.383 . S
C15 C16 1.394 1_565 S
C16 C15 1.394 1_545 S
C16 C17 1.376 1_455 S
C16 H38 0.931 1_455 S
C17 C12 1.375 1_645 S
C17 C16 1.376 1_655 S
C17 H39 0.935 . S
C18 O28 1.259 . S
C18 O29 1.270 . S
C19 O30 1.251 . S
C19 O31 1.251 . S
O20 C0 1.257 1_455 S
O20 Eu1 2.473 . S
O21 C0 1.260 . S
O21 Eu1 2.480 1_655 S
O22 Eu1 2.430 1_655 S
O22 C8 1.259 . S
O23 Eu1 2.670 1_655 S
O23 C8 1.270 . S
O23 Eu11 2.355 1_545 S
O24 Eu1 2.394 1_665 S
O24 C9 1.251 . S
O25 C9 1.251 . S
O25 Eu11 2.374 . S
O26 C10 1.257 1_655 S
O26 Eu11 2.473 . S
O27 C10 1.260 . S
O27 Eu11 2.480 1_455 S
O28 Eu11 2.430 1_455 S
O28 C18 1.259 . S
O29 Eu1 2.355 1_565 S
O29 Eu11 2.670 1_455 S
O29 C18 1.270 . S
O30 Eu11 2.394 1_445 S
O30 C19 1.251 . S
O31 Eu1 2.374 . S
O31 C19 1.251 . S
H32 C3 0.931 . S
H33 C4 0.931 . S
H34 C6 0.931 1_455 S
H35 C7 0.940 . S
H36 C13 0.931 . S
H37 C14 0.931 . S
H38 C16 0.931 1_655 S
H39 C17 0.935 . S
C40 Eu41 2.835 . S
C40 C42 1.500 . S
C40 O60 1.257 . S
C40 O61 1.260 . S
Eu41 C40 2.835 . S
Eu41 O60 2.473 . S
Eu41 O61 2.480 . S
Eu41 O62 2.430 . S
Eu41 O63 2.670 . S
Eu41 O64 2.394 . S
Eu41 O69 2.355 . S
Eu41 O71 2.374 . S
C42 C40 1.500 . S
C42 C43 1.377 . S
C42 C47 1.377 . S
C43 C42 1.377 . S
C43 C44 1.395 1_556 S
C43 H72 0.931 . S
C44 C43 1.395 1_554 S
C44 C45 1.383 . S
C44 H73 0.931 . S
C45 C44 1.383 . S
C45 C46 1.394 . S
C46 C45 1.394 . S
C46 C47 1.378 1_554 S
C46 H74 0.931 . S
C47 C42 1.377 . S
C47 C46 1.378 1_556 S
C47 H75 0.931 . S
C48 O62 1.259 . S
C48 O63 1.270 . S
C49 O64 1.251 . S
C49 O65 1.251 . S
C50 Eu51 2.835 . S
C50 C52 1.500 . S
C50 O66 1.257 . S
C50 O67 1.260 . S
Eu51 C50 2.835 . S
Eu51 O63 2.355 . S
Eu51 O65 2.374 . S
Eu51 O66 2.473 . S
Eu51 O67 2.480 . S
Eu51 O68 2.430 . S
Eu51 O69 2.670 . S
Eu51 O70 2.394 . S
C52 C50 1.500 . S
C52 C53 1.377 . S
C52 C57 1.377 . S
C53 C52 1.377 . S
C53 C54 1.395 . S
C53 H76 0.931 . S
C54 C53 1.395 . S
C54 C55 1.383 . S
C54 H77 0.931 . S
C55 C54 1.383 . S
C55 C56 1.394 . S
C56 C55 1.394 . S
C56 C57 1.378 . S
C56 H78 0.931 . S
C57 C52 1.377 . S
C57 C56 1.378 . S
C57 H79 0.931 . S
C58 O68 1.259 . S
C58 O69 1.270 . S
C59 O70 1.251 . S
C59 O71 1.251 . S
O60 C40 1.257 . S
O60 Eu41 2.473 . S
O61 C40 1.260 . S
O61 Eu41 2.480 . S
O62 Eu41 2.430 . S
O62 C48 1.259 . S
O63 Eu41 2.670 . S
O63 C48 1.270 . S
O63 Eu51 2.355 . S
O64 Eu41 2.394 . S
O64 C49 1.251 . S
O65 C49 1.251 . S
O65 Eu51 2.374 . S
O66 C50 1.257 . S
O66 Eu51 2.473 . S
O67 C50 1.260 . S
O67 Eu51 2.480 . S
O68 Eu51 2.430 . S
O68 C58 1.259 . S
O69 Eu41 2.355 . S
O69 Eu51 2.670 . S
O69 C58 1.270 . S
O70 Eu51 2.394 . S
O70 C59 1.251 . S
O71 Eu41 2.374 . S
O71 C59 1.251 . S
H72 C43 0.931 . S
H73 C44 0.931 . S
H74 C46 0.931 . S
H75 C47 0.931 . S
H76 C53 0.931 . S
H77 C54 0.931 . S
H78 C56 0.931 . S
H79 C57 0.931 . S
C80 Eu81 2.835 . S
C80 C82 1.500 . S
C80 O100 1.257 1_545 S
C80 O101 1.260 . S
Eu81 C80 2.835 . S
Eu81 O100 2.473 1_545 S
Eu81 O101 2.480 . S
Eu81 O102 2.430 . S
Eu81 O103 2.670 1_556 S
Eu81 O104 2.394 1_545 S
Eu81 O109 2.355 1_545 S
Eu81 O111 2.374 1_556 S
C82 C80 1.500 . S
C82 C83 1.377 . S
C82 C87 1.377 1_545 S
C83 C82 1.377 . S
C83 C84 1.395 . S
C83 H112 0.931 . S
C84 C83 1.395 . S
C84 C85 1.360 1_545 S
C84 H113 0.931 . S
C85 C84 1.360 1_565 S
C85 C86 1.418 . S
C86 C85 1.418 . S
C86 C87 1.378 . S
C86 H114 0.931 . S
C87 C82 1.377 1_565 S
C87 C86 1.378 . S
C87 H115 0.931 . S
C88 O102 1.259 1_554 S
C88 O103 1.270 . S
C89 O104 1.251 . S
C89 O105 1.251 . S
C90 Eu91 2.835 . S
C90 C92 1.500 . S
C90 O106 1.257 1_565 S
C90 O107 1.260 . S
Eu91 C90 2.835 . S
Eu91 O103 2.355 1_565 S
Eu91 O105 2.374 1_554 S
Eu91 O106 2.473 1_565 S
Eu91 O107 2.480 . S
Eu91 O108 2.430 . S
Eu91 O109 2.670 1_554 S
Eu91 O110 2.394 1_565 S
C92 C90 1.500 . S
C92 C93 1.377 . S
C92 C97 1.377 1_565 S
C93 C92 1.377 . S
C93 C94 1.395 . S
C93 H116 0.931 . S
C94 C93 1.395 . S
C94 C95 1.383 1_565 S
C94 H117 0.931 . S
C95 C94 1.383 1_545 S
C95 C96 1.394 . S
C96 C95 1.394 . S
C96 C97 1.378 . S
C96 H118 0.931 . S
C97 C92 1.377 1_545 S
C97 C96 1.378 . S
C97 H119 0.931 . S
C98 O108 1.259 1_556 S
C98 O109 1.270 . S
C99 O110 1.251 . S
C99 O111 1.251 . S
O100 C80 1.257 1_565 S
O100 Eu81 2.473 1_565 S
O101 C80 1.260 . S
O101 Eu81 2.480 . S
O102 Eu81 2.430 . S
O102 C88 1.259 1_556 S
O103 Eu81 2.670 1_554 S
O103 C88 1.270 . S
O103 Eu91 2.355 1_545 S
O104 Eu81 2.394 1_565 S
O104 C89 1.251 . S
O105 C89 1.251 . S
O105 Eu91 2.374 1_556 S
O106 C90 1.257 1_545 S
O106 Eu91 2.473 1_545 S
O107 C90 1.260 . S
O107 Eu91 2.480 . S
O108 Eu91 2.430 . S
O108 C98 1.259 1_554 S
O109 Eu81 2.355 1_565 S
O109 Eu91 2.670 1_556 S
O109 C98 1.270 . S
O110 Eu91 2.394 1_545 S
O110 C99 1.251 . S
O111 Eu81 2.374 1_554 S
O111 C99 1.251 . S
H112 C83 0.931 . S
H113 C84 0.931 . S
H114 C86 0.931 . S
H115 C87 0.931 . S
H116 C93 0.931 . S
H117 C94 0.931 . S
H118 C96 0.931 . S
H119 C97 0.931 . S
C120 Eu121 2.835 . S
C120 C122 1.500 . S
C120 O140 1.257 . S
C120 O141 1.260 . S
Eu121 C120 2.835 . S
Eu121 O140 2.473 . S
Eu121 O141 2.480 . S
Eu121 O142 2.430 . S
Eu121 O143 2.670 . S
Eu121 O144 2.394 . S
Eu121 O149 2.355 . S
Eu121 O151 2.374 . S
C122 C120 1.500 . S
C122 C123 1.377 . S
C122 C127 1.377 . S
C123 C122 1.377 . S
C123 C124 1.395 1_554 S
C123 H152 0.931 . S
C124 C123 1.395 1_556 S
C124 C125 1.383 . S
C124 H153 0.931 . S
C125 C124 1.383 . S
C125 C126 1.394 . S
C126 C125 1.394 . S
C126 C127 1.378 1_556 S
C126 H154 0.931 . S
C127 C122 1.377 . S
C127 C126 1.378 1_554 S
C127 H155 0.931 . S
C128 O142 1.259 . S
C128 O143 1.270 . S
C129 O144 1.251 . S
C129 O145 1.251 . S
C130 Eu131 2.835 . S
C130 C132 1.500 . S
C130 O146 1.257 . S
C130 O147 1.260 . S
Eu131 C130 2.835 . S
Eu131 O143 2.355 . S
Eu131 O145 2.374 . S
Eu131 O146 2.473 . S
Eu131 O147 2.480 . S
Eu131 O148 2.430 . S
Eu131 O149 2.670 . S
Eu131 O150 2.394 . S
C132 C130 1.500 . S
C132 C133 1.377 . S
C132 C137 1.377 . S
C133 C132 1.377 . S
C133 C134 1.395 . S
C133 H156 0.931 . S
C134 C133 1.395 . S
C134 C135 1.383 . S
C134 H157 0.931 . S
C135 C134 1.383 . S
C135 C136 1.394 . S
C136 C135 1.394 . S
C136 C137 1.378 . S
C136 H158 0.931 . S
C137 C132 1.377 . S
C137 C136 1.378 . S
C137 H159 0.931 . S
C138 O148 1.259 . S
C138 O149 1.270 . S
C139 O150 1.251 . S
C139 O151 1.251 . S
O140 C120 1.257 . S
O140 Eu121 2.473 . S
O141 C120 1.260 . S
O141 Eu121 2.480 . S
O142 Eu121 2.430 . S
O142 C128 1.259 . S
O143 Eu121 2.670 . S
O143 C128 1.270 . S
O143 Eu131 2.355 . S
O144 Eu121 2.394 . S
O144 C129 1.251 . S
O145 C129 1.251 . S
O145 Eu131 2.374 . S
O146 C130 1.257 . S
O146 Eu131 2.473 . S
O147 C130 1.260 . S
O147 Eu131 2.480 . S
O148 Eu131 2.430 . S
O148 C138 1.259 . S
O149 Eu121 2.355 . S
O149 Eu131 2.670 . S
O149 C138 1.270 . S
O150 Eu131 2.394 . S
O150 C139 1.251 . S
O151 Eu121 2.374 . S
O151 C139 1.251 . S
H152 C123 0.931 . S
H153 C124 0.931 . S
H154 C126 0.931 . S
H155 C127 0.931 . S
H156 C133 0.931 . S
H157 C134 0.931 . S
H158 C136 0.931 . S
H159 C137 0.931 . S
C160 Eu161 2.835 . S
C160 C162 1.500 . S
C160 O180 1.257 . S
C160 O181 1.260 . S
Eu161 C160 2.835 . S
Eu161 O180 2.473 . S
Eu161 O181 2.480 . S
Eu161 O182 2.430 . S
Eu161 O183 2.670 . S
Eu161 O184 2.394 . S
Eu161 O189 2.355 . S
Eu161 O191 2.374 . S
C162 C160 1.500 . S
C162 C163 1.377 . S
C162 C167 1.377 . S
C163 C162 1.377 . S
C163 C164 1.395 . S
C163 H192 0.931 . S
C164 C163 1.395 . S
C164 C165 1.383 . S
C164 H193 0.931 . S
C165 C164 1.383 . S
C165 C166 1.394 . S
C166 C165 1.394 . S
C166 C167 1.378 . S
C166 H194 0.931 . S
C167 C162 1.377 . S
C167 C166 1.378 . S
C167 H195 0.931 . S
C168 O182 1.259 . S
C168 O183 1.270 . S
C169 O184 1.251 . S
C169 O185 1.251 . S
C170 Eu171 2.835 . S
C170 C172 1.500 . S
C170 O186 1.257 . S
C170 O187 1.260 . S
Eu171 C170 2.835 . S
Eu171 O183 2.355 . S
Eu171 O185 2.374 . S
Eu171 O186 2.473 . S
Eu171 O187 2.480 . S
Eu171 O188 2.430 . S
Eu171 O189 2.670 . S
Eu171 O190 2.394 . S
C172 C170 1.500 . S
C172 C173 1.377 . S
C172 C177 1.377 . S
C173 C172 1.377 . S
C173 C174 1.395 1_554 S
C173 H196 0.931 . S
C174 C173 1.395 1_556 S
C174 C175 1.383 . S
C174 H197 0.931 . S
C175 C174 1.383 . S
C175 C176 1.394 . S
C176 C175 1.394 . S
C176 C177 1.378 1_556 S
C176 H198 0.931 . S
C177 C172 1.377 . S
C177 C176 1.378 1_554 S
C177 H199 0.931 . S
C178 O188 1.259 . S
C178 O189 1.270 . S
C179 O190 1.251 . S
C179 O191 1.251 . S
O180 C160 1.257 . S
O180 Eu161 2.473 . S
O181 C160 1.260 . S
O181 Eu161 2.480 . S
O182 Eu161 2.430 . S
O182 C168 1.259 . S
O183 Eu161 2.670 . S
O183 C168 1.270 . S
O183 Eu171 2.355 . S
O184 Eu161 2.394 . S
O184 C169 1.251 . S
O185 C169 1.251 . S
O185 Eu171 2.374 . S
O186 C170 1.257 . S
O186 Eu171 2.473 . S
O187 C170 1.260 . S
O187 Eu171 2.480 . S
O188 Eu171 2.430 . S
O188 C178 1.259 . S
O189 Eu161 2.355 . S
O189 Eu171 2.670 . S
O189 C178 1.270 . S
O190 Eu171 2.394 . S
O190 C179 1.251 . S
O191 Eu161 2.374 . S
O191 C179 1.251 . S
H192 C163 0.931 . S
H193 C164 0.931 . S
H194 C166 0.931 . S
H195 C167 0.931 . S
H196 C173 0.931 . S
H197 C174 0.931 . S
H198 C176 0.931 . S
H199 C177 0.931 . S
C200 Eu201 2.835 . S
C200 C202 1.500 . S
C200 O220 1.257 . S
C200 O221 1.260 . S
Eu201 C200 2.835 . S
Eu201 O220 2.473 . S
Eu201 O221 2.480 . S
Eu201 O222 2.430 . S
Eu201 O223 2.670 . S
Eu201 O224 2.394 . S
Eu201 O229 2.355 . S
Eu201 O231 2.374 . S
C202 C200 1.500 . S
C202 C203 1.377 . S
C202 C207 1.377 . S
C203 C202 1.377 . S
C203 C204 1.395 . S
C203 H232 0.931 . S
C204 C203 1.395 . S
C204 C205 1.383 . S
C204 H233 0.931 . S
C205 C204 1.383 . S
C205 C206 1.394 . S
C206 C205 1.394 . S
C206 C207 1.378 . S
C206 H234 0.931 . S
C207 C202 1.377 . S
C207 C206 1.378 . S
C207 H235 0.931 . S
C208 O222 1.259 . S
C208 O223 1.270 . S
C209 O224 1.251 . S
C209 O225 1.251 . S
C210 Eu211 2.835 . S
C210 C212 1.500 . S
C210 O226 1.257 . S
C210 O227 1.260 . S
Eu211 C210 2.835 . S
Eu211 O223 2.355 . S
Eu211 O225 2.374 . S
Eu211 O226 2.473 . S
Eu211 O227 2.480 . S
Eu211 O228 2.430 . S
Eu211 O229 2.670 . S
Eu211 O230 2.394 . S
C212 C210 1.500 . S
C212 C213 1.377 . S
C212 C217 1.377 . S
C213 C212 1.377 . S
C213 C214 1.395 1_556 S
C213 H236 0.931 . S
C214 C213 1.395 1_554 S
C214 C215 1.383 . S
C214 H237 0.931 . S
C215 C214 1.383 . S
C215 C216 1.394 . S
C216 C215 1.394 . S
C216 C217 1.378 1_554 S
C216 H238 0.931 . S
C217 C212 1.377 . S
C217 C216 1.378 1_556 S
C217 H239 0.931 . S
C218 O228 1.259 . S
C218 O229 1.270 . S
C219 O230 1.251 . S
C219 O231 1.251 . S
O220 C200 1.257 . S
O220 Eu201 2.473 . S
O221 C200 1.260 . S
O221 Eu201 2.480 . S
O222 Eu201 2.430 . S
O222 C208 1.259 . S
O223 Eu201 2.670 . S
O223 C208 1.270 . S
O223 Eu211 2.355 . S
O224 Eu201 2.394 . S
O224 C209 1.251 . S
O225 C209 1.251 . S
O225 Eu211 2.374 . S
O226 C210 1.257 . S
O226 Eu211 2.473 . S
O227 C210 1.260 . S
O227 Eu211 2.480 . S
O228 Eu211 2.430 . S
O228 C218 1.259 . S
O229 Eu201 2.355 . S
O229 Eu211 2.670 . S
O229 C218 1.270 . S
O230 Eu211 2.394 . S
O230 C219 1.251 . S
O231 Eu201 2.374 . S
O231 C219 1.251 . S
H232 C203 0.931 . S
H233 C204 0.931 . S
H234 C206 0.931 . S
H235 C207 0.931 . S
H236 C213 0.931 . S
H237 C214 0.931 . S
H238 C216 0.931 . S
H239 C217 0.931 . S
C240 Eu241 2.835 . S
C240 C242 1.500 . S
C240 O260 1.257 . S
C240 O261 1.260 . S
Eu241 C240 2.835 . S
Eu241 O260 2.473 . S
Eu241 O261 2.480 . S
Eu241 O262 2.430 . S
Eu241 O263 2.670 1_554 S
Eu241 O264 2.394 . S
Eu241 O269 2.355 . S
Eu241 O271 2.374 . S
C242 C240 1.500 . S
C242 C243 1.377 . S
C242 C247 1.377 . S
C243 C242 1.377 . S
C243 C244 1.395 . S
C243 H272 0.931 . S
C244 C243 1.395 . S
C244 C245 1.383 . S
C244 H273 0.931 . S
C245 C244 1.383 . S
C245 C246 1.394 . S
C246 C245 1.394 . S
C246 C247 1.378 . S
C246 H274 0.931 . S
C247 C242 1.377 . S
C247 C246 1.378 . S
C247 H275 0.931 . S
C248 O262 1.259 1_556 S
C248 O263 1.270 . S
C249 O264 1.251 . S
C249 O265 1.251 1_554 S
C250 Eu251 2.835 . S
C250 C252 1.500 . S
C250 O266 1.257 . S
C250 O267 1.260 . S
Eu251 C250 2.835 . S
Eu251 O263 2.355 . S
Eu251 O265 2.374 . S
Eu251 O266 2.473 . S
Eu251 O267 2.480 . S
Eu251 O268 2.430 . S
Eu251 O269 2.670 1_556 S
Eu251 O270 2.394 . S
C252 C250 1.500 . S
C252 C253 1.377 . S
C252 C257 1.377 . S
C253 C252 1.377 . S
C253 C254 1.395 . S
C253 H276 0.931 . S
C254 C253 1.395 . S
C254 C255 1.383 . S
C254 H277 0.931 . S
C255 C254 1.383 . S
C255 C256 1.394 . S
C256 C255 1.394 . S
C256 C257 1.378 . S
C256 H278 0.931 . S
C257 C252 1.377 . S
C257 C256 1.378 . S
C257 H279 0.931 . S
C258 O268 1.259 1_554 S
C258 O269 1.270 . S
C259 O270 1.251 . S
C259 O271 1.251 1_556 S
O260 C240 1.257 . S
O260 Eu241 2.473 . S
O261 C240 1.260 . S
O261 Eu241 2.480 . S
O262 Eu241 2.430 . S
O262 C248 1.259 1_554 S
O263 Eu241 2.670 1_556 S
O263 C248 1.270 . S
O263 Eu251 2.355 . S
O264 Eu241 2.394 . S
O264 C249 1.251 . S
O265 C249 1.251 1_556 S
O265 Eu251 2.374 . S
O266 C250 1.257 . S
O266 Eu251 2.473 . S
O267 C250 1.260 . S
O267 Eu251 2.480 . S
O268 Eu251 2.430 . S
O268 C258 1.259 1_556 S
O269 Eu241 2.355 . S
O269 Eu251 2.670 1_554 S
O269 C258 1.270 . S
O270 Eu251 2.394 . S
O270 C259 1.251 . S
O271 Eu241 2.374 . S
O271 C259 1.251 1_554 S
H272 C243 0.931 . S
H273 C244 0.931 . S
H274 C246 0.931 . S
H275 C247 0.931 . S
H276 C253 0.931 . S
H277 C254 0.931 . S
H278 C256 0.931 . S
H279 C257 0.931 . S
C280 Eu281 2.835 1_455 S
C280 C282 1.500 . S
C280 O300 1.257 1_455 S
C280 O301 1.260 . S
Eu281 C280 2.835 1_655 S
Eu281 O300 2.473 . S
Eu281 O301 2.480 1_655 S
Eu281 O302 2.430 1_655 S
Eu281 O303 2.670 1_655 S
Eu281 O304 2.394 1_655 S
Eu281 O309 2.355 . S
Eu281 O311 2.374 . S
C282 C280 1.500 . S
C282 C283 1.377 . S
C282 C287 1.371 1_455 S
C283 C282 1.377 . S
C283 C284 1.395 . S
C283 H312 0.931 . S
C284 C283 1.395 . S
C284 C285 1.383 . S
C284 H313 0.931 . S
C285 C284 1.383 . S
C285 C286 1.394 . S
C286 C285 1.394 . S
C286 C287 1.373 1_455 S
C286 H314 0.931 1_455 S
C287 C282 1.371 1_655 S
C287 C286 1.373 1_655 S
C287 H315 0.942 . S
C288 O302 1.259 . S
C288 O303 1.270 . S
C289 O304 1.251 . S
C289 O305 1.251 . S
C290 Eu291 2.835 1_655 S
C290 C292 1.500 . S
C290 O306 1.257 1_655 S
C290 O307 1.260 . S
Eu291 C290 2.835 1_455 S
Eu291 O303 2.355 . S
Eu291 O305 2.374 . S
Eu291 O306 2.473 . S
Eu291 O307 2.480 1_455 S
Eu291 O308 2.430 1_455 S
Eu291 O309 2.670 1_455 S
Eu291 O310 2.394 1_455 S
C292 C290 1.500 . S
C292 C293 1.377 . S
C292 C297 1.369 1_655 S
C293 C292 1.377 . S
C293 C294 1.395 . S
C293 H316 0.931 . S
C294 C293 1.395 . S
C294 C295 1.383 . S
C294 H317 0.931 . S
C295 C294 1.383 . S
C295 C296 1.394 . S
C296 C295 1.394 . S
C296 C297 1.371 1_655 S
C296 H318 0.931 1_655 S
C297 C292 1.369 1_455 S
C297 C296 1.371 1_455 S
C297 H319 0.947 . S
C298 O308 1.259 . S
C298 O309 1.270 . S
C299 O310 1.251 . S
C299 O311 1.251 . S
O300 C280 1.257 1_655 S
O300 Eu281 2.473 . S
O301 C280 1.260 . S
O301 Eu281 2.480 1_455 S
O302 Eu281 2.430 1_455 S
O302 C288 1.259 . S
O303 Eu281 2.670 1_455 S
O303 C288 1.270 . S
O303 Eu291 2.355 . S
O304 Eu281 2.394 1_455 S
O304 C289 1.251 . S
O305 C289 1.251 . S
O305 Eu291 2.374 . S
O306 C290 1.257 1_455 S
O306 Eu291 2.473 . S
O307 C290 1.260 . S
O307 Eu291 2.480 1_655 S
O308 Eu291 2.430 1_655 S
O308 C298 1.259 . S
O309 Eu281 2.355 . S
O309 Eu291 2.670 1_655 S
O309 C298 1.270 . S
O310 Eu291 2.394 1_655 S
O310 C299 1.251 . S
O311 Eu281 2.374 . S
O311 C299 1.251 . S
H312 C283 0.931 . S
H313 C284 0.931 . S
H314 C286 0.931 1_655 S
H315 C287 0.942 . S
H316 C293 0.931 . S
H317 C294 0.931 . S
H318 C296 0.931 1_455 S
H319 C297 0.947 . S
H320 C326 0.930 . S
H321 C330 0.930 . S
H322 C335 0.929 . S
H323 C333 0.929 . S
H324 C328 0.929 . S
H325 C334 0.929 . S
C326 H320 0.930 . S
C326 C327 1.367 . S
C326 C334 1.378 . S
C327 C326 1.367 . S
C327 C335 1.433 . S
C328 H324 0.929 . S
C328 C330 1.378 . S
C328 C332 1.350 . S
C329 C332 1.463 . S
C329 C334 1.350 . S
C329 N337 1.427 . S
C330 H321 0.930 . S
C330 C328 1.378 . S
C330 C331 1.367 . S
C331 C330 1.367 . S
C331 C333 1.433 . S
C332 C328 1.350 . S
C332 C329 1.463 . S
C332 N336 1.427 . S
C333 H323 0.929 . S
C333 C331 1.433 . S
C333 N336 1.384 . S
C334 H325 0.929 . S
C334 C326 1.378 . S
C334 C329 1.350 . S
C335 H322 0.929 . S
C335 C327 1.433 . S
C335 N337 1.384 . S
N336 C332 1.427 . S
N336 C333 1.384 . S
N337 C329 1.427 . S
N337 C335 1.384 . S
H338 C344 0.930 . S
H339 C348 0.930 . S
H340 C353 0.929 . S
H341 C351 0.929 . S
H342 C346 0.929 . S
H343 C352 0.929 . S
C344 H338 0.930 . S
C344 C345 1.367 . S
C344 C352 1.378 . S
C345 C344 1.367 . S
C345 C353 1.433 . S
C346 H342 0.929 . S
C346 C348 1.378 . S
C346 C350 1.350 . S
C347 C350 1.463 . S
C347 C352 1.350 . S
C347 N355 1.427 . S
C348 H339 0.930 . S
C348 C346 1.378 . S
C348 C349 1.367 . S
C349 C348 1.367 . S
C349 C351 1.433 . S
C350 C346 1.350 . S
C350 C347 1.463 . S
C350 N354 1.427 . S
C351 H341 0.929 . S
C351 C349 1.433 . S
C351 N354 1.384 . S
C352 H343 0.929 . S
C352 C344 1.378 . S
C352 C347 1.350 . S
C353 H340 0.929 . S
C353 C345 1.433 . S
C353 N355 1.384 . S
N354 C350 1.427 . S
N354 C351 1.384 . S
N355 C347 1.427 . S
N355 C353 1.384 . S
H356 C362 0.930 . S
H357 C366 0.930 . S
H358 C371 0.929 . S
H359 C369 0.929 1_554 S
H360 C364 0.929 . S
H361 C370 0.929 . S
C362 H356 0.930 . S
C362 C363 1.367 . S
C362 C370 1.378 . S
C363 C362 1.367 . S
C363 C371 1.433 . S
C364 H360 0.929 . S
C364 C366 1.378 . S
C364 C368 1.350 . S
C365 C368 1.463 . S
C365 C370 1.350 . S
C365 N373 1.427 . S
C366 H357 0.930 . S
C366 C364 1.378 . S
C366 C367 1.367 . S
C367 C366 1.367 . S
C367 C369 1.433 . S
C368 C364 1.350 . S
C368 C365 1.463 . S
C368 N372 1.427 . S
C369 H359 0.929 1_556 S
C369 C367 1.433 . S
C369 N372 1.384 . S
C370 H361 0.929 . S
C370 C362 1.378 . S
C370 C365 1.350 . S
C371 H358 0.929 . S
C371 C363 1.433 . S
C371 N373 1.384 . S
N372 C368 1.427 . S
N372 C369 1.384 . S
N373 C365 1.427 . S
N373 C371 1.384 . S
H374 C380 0.930 . S
H375 C384 0.930 . S
H376 C389 0.929 . S
H377 C387 0.929 . S
H378 C382 0.929 . S
H379 C388 0.929 . S
C380 H374 0.930 . S
C380 C381 1.367 . S
C380 C388 1.378 . S
C381 C380 1.367 . S
C381 C389 1.433 . S
C382 H378 0.929 . S
C382 C384 1.378 . S
C382 C386 1.350 . S
C383 C386 1.463 . S
C383 C388 1.350 . S
C383 N391 1.427 . S
C384 H375 0.930 . S
C384 C382 1.378 . S
C384 C385 1.367 . S
C385 C384 1.367 . S
C385 C387 1.433 . S
C386 C382 1.350 . S
C386 C383 1.463 . S
C386 N390 1.427 . S
C387 H377 0.929 . S
C387 C385 1.433 . S
C387 N390 1.384 . S
C388 H379 0.929 . S
C388 C380 1.378 . S
C388 C383 1.350 . S
C389 H376 0.929 . S
C389 C381 1.433 . S
C389 N391 1.384 . S
N390 C386 1.427 . S
N390 C387 1.384 . S
N391 C383 1.427 . S
N391 C389 1.384 . S
H392 C398 0.930 . S
H393 C402 0.930 . S
H394 C407 0.929 . S
H395 C405 0.929 . S
H396 C400 0.929 . S
H397 C406 0.929 . S
C398 H392 0.930 . S
C398 C399 1.367 . S
C398 C406 1.378 . S
C399 C398 1.367 . S
C399 C407 1.433 . S
C400 H396 0.929 . S
C400 C402 1.378 . S
C400 C404 1.350 . S
C401 C404 1.463 . S
C401 C406 1.350 . S
C401 N409 1.427 . S
C402 H393 0.930 . S
C402 C400 1.378 . S
C402 C403 1.367 . S
C403 C402 1.367 . S
C403 C405 1.433 . S
C404 C400 1.350 . S
C404 C401 1.463 . S
C404 N408 1.427 . S
C405 H395 0.929 . S
C405 C403 1.433 . S
C405 N408 1.384 . S
C406 H397 0.929 . S
C406 C398 1.378 . S
C406 C401 1.350 . S
C407 H394 0.929 . S
C407 C399 1.433 . S
C407 N409 1.384 . S
N408 C404 1.427 . S
N408 C405 1.384 . S
N409 C401 1.427 . S
N409 C407 1.384 . S
H410 C416 0.930 . S
H411 C420 0.930 . S
H412 C425 0.929 . S
H413 C423 0.929 . S
H414 C418 0.929 . S
H415 C424 0.929 . S
C416 H410 0.930 . S
C416 C417 1.367 . S
C416 C424 1.378 . S
C417 C416 1.367 . S
C417 C425 1.433 . S
C418 H414 0.929 . S
C418 C420 1.378 . S
C418 C422 1.350 . S
C419 C422 1.463 . S
C419 C424 1.350 . S
C419 N427 1.427 . S
C420 H411 0.930 . S
C420 C418 1.378 . S
C420 C421 1.367 . S
C421 C420 1.367 . S
C421 C423 1.433 . S
C422 C418 1.350 . S
C422 C419 1.463 . S
C422 N426 1.427 . S
C423 H413 0.929 . S
C423 C421 1.433 . S
C423 N426 1.384 . S
C424 H415 0.929 . S
C424 C416 1.378 . S
C424 C419 1.350 . S
C425 H412 0.929 . S
C425 C417 1.433 . S
C425 N427 1.384 . S
N426 C422 1.427 . S
N426 C423 1.384 . S
N427 C419 1.427 . S
N427 C425 1.384 . S
H428 C434 0.930 . S
H429 C438 0.930 . S
H430 C443 0.929 . S
H431 C441 0.929 . S
H432 C436 0.929 . S
H433 C442 0.929 . S
C434 H428 0.930 . S
C434 C435 1.367 . S
C434 C442 1.378 . S
C435 C434 1.367 . S
C435 C443 1.433 . S
C436 H432 0.929 . S
C436 C438 1.378 . S
C436 C440 1.350 . S
C437 C440 1.463 . S
C437 C442 1.350 . S
C437 N445 1.427 . S
C438 H429 0.930 . S
C438 C436 1.378 . S
C438 C439 1.367 . S
C439 C438 1.367 . S
C439 C441 1.433 . S
C440 C436 1.350 . S
C440 C437 1.463 . S
C440 N444 1.427 . S
C441 H431 0.929 . S
C441 C439 1.433 . S
C441 N444 1.384 . S
C442 H433 0.929 . S
C442 C434 1.378 . S
C442 C437 1.350 . S
C443 H430 0.929 . S
C443 C435 1.433 . S
C443 N445 1.384 . S
N444 C440 1.427 . S
N444 C441 1.384 . S
N445 C437 1.427 . S
N445 C443 1.384 . S
H446 C452 0.930 . S
H447 C456 0.930 . S
H448 C461 0.929 . S
H449 C459 0.929 . S
H450 C454 0.929 . S
H451 C460 0.929 . S
C452 H446 0.930 . S
C452 C453 1.367 . S
C452 C460 1.378 . S
C453 C452 1.367 . S
C453 C461 1.433 . S
C454 H450 0.929 . S
C454 C456 1.378 . S
C454 C458 1.350 . S
C455 C458 1.463 . S
C455 C460 1.350 . S
C455 N463 1.427 . S
C456 H447 0.930 . S
C456 C454 1.378 . S
C456 C457 1.367 . S
C457 C456 1.367 . S
C457 C459 1.433 . S
C458 C454 1.350 . S
C458 C455 1.463 . S
C458 N462 1.427 . S
C459 H449 0.929 . S
C459 C457 1.433 . S
C459 N462 1.384 . S
C460 H451 0.929 . S
C460 C452 1.378 . S
C460 C455 1.350 . S
C461 H448 0.929 . S
C461 C453 1.433 . S
C461 N463 1.384 . S
N462 C458 1.427 . S
N462 C459 1.384 . S
N463 C455 1.427 . S
N463 C461 1.384 . S
H464 C470 0.930 . S
H465 C474 0.930 . S
H466 C479 0.929 . S
H467 C477 0.929 . S
H468 C472 0.929 . S
H469 C478 0.929 . S
C470 H464 0.930 . S
C470 C471 1.367 . S
C470 C478 1.378 . S
C471 C470 1.367 . S
C471 C479 1.433 . S
C472 H468 0.929 . S
C472 C474 1.378 . S
C472 C476 1.350 . S
C473 C476 1.463 . S
C473 C478 1.350 . S
C473 N481 1.427 . S
C474 H465 0.930 . S
C474 C472 1.378 . S
C474 C475 1.367 . S
C475 C474 1.367 . S
C475 C477 1.433 . S
C476 C472 1.350 . S
C476 C473 1.463 . S
C476 N480 1.427 . S
C477 H467 0.929 . S
C477 C475 1.433 . S
C477 N480 1.384 . S
C478 H469 0.929 . S
C478 C470 1.378 . S
C478 C473 1.350 . S
C479 H466 0.929 . S
C479 C471 1.433 . S
C479 N481 1.384 . S
N480 C476 1.427 . S
N480 C477 1.384 . S
N481 C473 1.427 . S
N481 C479 1.384 . S
H482 C488 0.930 . S
H483 C492 0.930 . S
H484 C497 0.929 . S
H485 C495 0.929 1_556 S
H486 C490 0.929 . S
H487 C496 0.929 . S
C488 H482 0.930 . S
C488 C489 1.367 . S
C488 C496 1.378 . S
C489 C488 1.367 . S
C489 C497 1.433 . S
C490 H486 0.929 . S
C490 C492 1.378 . S
C490 C494 1.350 . S
C491 C494 1.463 . S
C491 C496 1.350 . S
C491 N499 1.427 . S
C492 H483 0.930 . S
C492 C490 1.378 . S
C492 C493 1.367 . S
C493 C492 1.367 . S
C493 C495 1.433 . S
C494 C490 1.350 . S
C494 C491 1.463 . S
C494 N498 1.427 . S
C495 H485 0.929 1_554 S
C495 C493 1.433 . S
C495 N498 1.384 . S
C496 H487 0.929 . S
C496 C488 1.378 . S
C496 C491 1.350 . S
C497 H484 0.929 . S
C497 C489 1.433 . S
C497 N499 1.384 . S
N498 C494 1.427 . S
N498 C495 1.384 . S
N499 C491 1.427 . S
N499 C497 1.384 . S
H500 C506 0.930 . S
H501 C510 0.930 . S
H502 C515 0.929 . S
H503 C513 0.929 . S
H504 C508 0.929 . S
H505 C514 0.929 . S
C506 H500 0.930 . S
C506 C507 1.367 . S
C506 C514 1.378 . S
C507 C506 1.367 . S
C507 C515 1.433 . S
C508 H504 0.929 . S
C508 C510 1.378 . S
C508 C512 1.350 . S
C509 C512 1.463 . S
C509 C514 1.350 . S
C509 N517 1.427 . S
C510 H501 0.930 . S
C510 C508 1.378 . S
C510 C511 1.367 . S
C511 C510 1.367 . S
C511 C513 1.433 . S
C512 C508 1.350 . S
C512 C509 1.463 . S
C512 N516 1.427 . S
C513 H503 0.929 . S
C513 C511 1.433 . S
C513 N516 1.384 . S
C514 H505 0.929 . S
C514 C506 1.378 . S
C514 C509 1.350 . S
C515 H502 0.929 . S
C515 C507 1.433 . S
C515 N517 1.384 . S
N516 C512 1.427 . S
N516 C513 1.384 . S
N517 C509 1.427 . S
N517 C515 1.384 . S
H518 C524 0.930 . S
H519 C528 0.930 . S
H520 C533 0.929 . S
H521 C531 0.929 . S
H522 C526 0.929 . S
H523 C532 0.929 . S
C524 H518 0.930 . S
C524 C525 1.367 . S
C524 C532 1.378 . S
C525 C524 1.367 . S
C525 C533 1.433 . S
C526 H522 0.929 . S
C526 C528 1.378 . S
C526 C530 1.350 . S
C527 C530 1.463 . S
C527 C532 1.350 . S
C527 N535 1.427 . S
C528 H519 0.930 . S
C528 C526 1.378 . S
C528 C529 1.367 . S
C529 C528 1.367 . S
C529 C531 1.433 . S
C530 C526 1.350 . S
C530 C527 1.463 . S
C530 N534 1.427 . S
C531 H521 0.929 . S
C531 C529 1.433 . S
C531 N534 1.384 . S
C532 H523 0.929 . S
C532 C524 1.378 . S
C532 C527 1.350 . S
C533 H520 0.929 . S
C533 C525 1.433 . S
C533 N535 1.384 . S
N534 C530 1.427 . S
N534 C531 1.384 . S
N535 C527 1.427 . S
N535 C533 1.384 . S
H536 C542 0.930 . S
H537 C546 0.930 . S
H538 C551 0.929 . S
H539 C549 0.929 . S
H540 C544 0.929 . S
H541 C550 0.929 . S
C542 H536 0.930 . S
C542 C543 1.367 . S
C542 C550 1.378 . S
C543 C542 1.367 . S
C543 C551 1.433 . S
C544 H540 0.929 . S
C544 C546 1.378 . S
C544 C548 1.350 . S
C545 C548 1.463 . S
C545 C550 1.350 . S
C545 N553 1.427 . S
C546 H537 0.930 . S
C546 C544 1.378 . S
C546 C547 1.367 . S
C547 C546 1.367 . S
C547 C549 1.433 . S
C548 C544 1.350 . S
C548 C545 1.463 . S
C548 N552 1.427 . S
C549 H539 0.929 . S
C549 C547 1.433 . S
C549 N552 1.384 . S
C550 H541 0.929 . S
C550 C542 1.378 . S
C550 C545 1.350 . S
C551 H538 0.929 . S
C551 C543 1.433 . S
C551 N553 1.384 . S
N552 C548 1.427 . S
N552 C549 1.384 . S
N553 C545 1.427 . S
N553 C551 1.384 . S
H554 C560 0.930 . S
H555 C564 0.930 . S
H556 C569 0.929 . S
H557 C567 0.929 . S
H558 C562 0.929 . S
H559 C568 0.929 . S
C560 H554 0.930 . S
C560 C561 1.367 . S
C560 C568 1.378 . S
C561 C560 1.367 . S
C561 C569 1.433 . S
C562 H558 0.929 . S
C562 C564 1.378 . S
C562 C566 1.350 . S
C563 C566 1.463 . S
C563 C568 1.350 . S
C563 N571 1.427 . S
C564 H555 0.930 . S
C564 C562 1.378 . S
C564 C565 1.367 . S
C565 C564 1.367 . S
C565 C567 1.433 . S
C566 C562 1.350 . S
C566 C563 1.463 . S
C566 N570 1.427 . S
C567 H557 0.929 . S
C567 C565 1.433 . S
C567 N570 1.384 . S
C568 H559 0.929 . S
C568 C560 1.378 . S
C568 C563 1.350 . S
C569 H556 0.929 . S
C569 C561 1.433 . S
C569 N571 1.384 . S
N570 C566 1.427 . S
N570 C567 1.384 . S
N571 C563 1.427 . S
N571 C569 1.384 . S
H572 C578 0.930 . S
H573 C582 0.930 . S
H574 C587 0.929 . S
H575 C585 0.929 . S
H576 C580 0.929 . S
H577 C586 0.929 . S
C578 H572 0.930 . S
C578 C579 1.367 . S
C578 C586 1.378 . S
C579 C578 1.367 . S
C579 C587 1.433 . S
C580 H576 0.929 . S
C580 C582 1.378 . S
C580 C584 1.350 . S
C581 C584 1.463 . S
C581 C586 1.350 . S
C581 N589 1.427 . S
C582 H573 0.930 . S
C582 C580 1.378 . S
C582 C583 1.367 . S
C583 C582 1.367 . S
C583 C585 1.433 . S
C584 C580 1.350 . S
C584 C581 1.463 . S
C584 N588 1.427 . S
C585 H575 0.929 . S
C585 C583 1.433 . S
C585 N588 1.384 . S
C586 H577 0.929 . S
C586 C578 1.378 . S
C586 C581 1.350 . S
C587 H574 0.929 . S
C587 C579 1.433 . S
C587 N589 1.384 . S
N588 C584 1.427 . S
N588 C585 1.384 . S
N589 C581 1.427 . S
N589 C587 1.384 . S
H590 C596 0.930 . S
H591 C600 0.930 . S
H592 C605 0.929 . S
H593 C603 0.929 . S
H594 C598 0.929 . S
H595 C604 0.929 . S
C596 H590 0.930 . S
C596 C597 1.367 . S
C596 C604 1.378 . S
C597 C596 1.367 . S
C597 C605 1.433 . S
C598 H594 0.929 . S
C598 C600 1.378 . S
C598 C602 1.350 . S
C599 C602 1.463 . S
C599 C604 1.350 . S
C599 N607 1.427 . S
C600 H591 0.930 . S
C600 C598 1.378 . S
C600 C601 1.367 . S
C601 C600 1.367 . S
C601 C603 1.433 . S
C602 C598 1.350 . S
C602 C599 1.463 . S
C602 N606 1.427 . S
C603 H593 0.929 . S
C603 C601 1.433 . S
C603 N606 1.384 . S
C604 H595 0.929 . S
C604 C596 1.378 . S
C604 C599 1.350 . S
C605 H592 0.929 . S
C605 C597 1.433 . S
C605 N607 1.384 . S
N606 C602 1.427 . S
N606 C603 1.384 . S
N607 C599 1.427 . S
N607 C605 1.384 . S
H608 C614 0.930 . S
H609 C618 0.930 . S
H610 C623 0.929 . S
H611 C621 0.929 . S
H612 C616 0.929 . S
H613 C622 0.929 . S
C614 H608 0.930 . S
C614 C615 1.367 1_565 S
C614 C622 1.378 . S
C615 C614 1.367 1_545 S
C615 C623 1.433 . S
C616 H612 0.929 . S
C616 C618 1.378 . S
C616 C620 1.350 1_545 S
C617 C620 1.463 1_646 S
C617 C622 1.350 1_545 S
C617 N625 1.427 1_655 S
C618 H609 0.930 . S
C618 C616 1.378 . S
C618 C619 1.367 1_545 S
C619 C618 1.367 1_565 S
C619 C621 1.433 . S
C620 C616 1.350 1_565 S
C620 C617 1.463 1_464 S
C620 N624 1.427 1_455 S
C621 H611 0.929 . S
C621 C619 1.433 . S
C621 N624 1.384 1_455 S
C622 H613 0.929 . S
C622 C614 1.378 . S
C622 C617 1.350 1_565 S
C623 H610 0.929 . S
C623 C615 1.433 . S
C623 N625 1.384 1_655 S
N624 C620 1.427 1_655 S
N624 C621 1.384 1_655 S
N625 C617 1.427 1_455 S
N625 C623 1.384 1_455 S
H626 C632 0.930 . S
H627 C636 0.930 . S
H628 C641 0.929 . S
H629 C639 0.929 . S
H630 C634 0.929 . S
H631 C640 0.929 . S
C632 H626 0.930 . S
C632 C633 1.367 . S
C632 C640 1.378 . S
C633 C632 1.367 . S
C633 C641 1.433 . S
C634 H630 0.929 . S
C634 C636 1.378 . S
C634 C638 1.350 . S
C635 C638 1.463 . S
C635 C640 1.350 . S
C635 N643 1.427 . S
C636 H627 0.930 . S
C636 C634 1.378 . S
C636 C637 1.367 . S
C637 C636 1.367 . S
C637 C639 1.433 . S
C638 C634 1.350 . S
C638 C635 1.463 . S
C638 N642 1.427 . S
C639 H629 0.929 . S
C639 C637 1.433 . S
C639 N642 1.384 . S
C640 H631 0.929 . S
C640 C632 1.378 . S
C640 C635 1.350 . S
C641 H628 0.929 . S
C641 C633 1.433 . S
C641 N643 1.384 . S
N642 C638 1.427 . S
N642 C639 1.384 . S
N643 C635 1.427 . S
N643 C641 1.384 . S
H644 C650 0.930 . S
H645 C654 0.930 . S
H646 C659 0.929 . S
H647 C657 0.929 . S
H648 C652 0.929 . S
H649 C658 0.929 . S
C650 H644 0.930 . S
C650 C651 1.337 1_545 S
C650 C658 1.378 . S
C651 C650 1.337 1_565 S
C651 C659 1.459 . S
C652 H648 0.929 . S
C652 C654 1.378 . S
C652 C656 1.365 . S
C653 C656 1.468 1_545 S
C653 C658 1.371 . S
C653 N661 1.402 1_545 S
C654 H645 0.930 . S
C654 C652 1.378 . S
C654 C655 1.367 1_565 S
C655 C654 1.367 1_545 S
C655 C657 1.433 . S
C656 C652 1.365 . S
C656 C653 1.468 1_565 S
C656 N660 1.409 1_565 S
C657 H647 0.929 . S
C657 C655 1.433 . S
C657 N660 1.384 . S
C658 H649 0.929 . S
C658 C650 1.378 . S
C658 C653 1.371 . S
C659 H646 0.929 . S
C659 C651 1.459 . S
C659 N661 1.384 . S
N660 C656 1.409 1_545 S
N660 C657 1.384 . S
N661 C653 1.402 1_565 S
N661 C659 1.384 . S
H662 C668 0.930 . S
H663 C672 0.930 . S
H664 C677 0.929 . S
H665 C675 0.929 . S
H666 C670 0.929 . S
H667 C676 0.929 . S
C668 H662 0.930 . S
C668 C669 1.367 . S
C668 C676 1.378 . S
C669 C668 1.367 . S
C669 C677 1.433 . S
C670 H666 0.929 . S
C670 C672 1.378 . S
C670 C674 1.350 . S
C671 C674 1.463 . S
C671 C676 1.350 . S
C671 N679 1.427 . S
C672 H663 0.930 . S
C672 C670 1.378 . S
C672 C673 1.367 . S
C673 C672 1.367 . S
C673 C675 1.433 . S
C674 C670 1.350 . S
C674 C671 1.463 . S
C674 N678 1.427 . S
C675 H665 0.929 . S
C675 C673 1.433 . S
C675 N678 1.384 . S
C676 H667 0.929 . S
C676 C668 1.378 . S
C676 C671 1.350 . S
C677 H664 0.929 . S
C677 C669 1.433 . S
C677 N679 1.384 . S
N678 C674 1.427 . S
N678 C675 1.384 . S
N679 C671 1.427 . S
N679 C677 1.384 . S
H680 C686 0.930 . S
H681 C690 0.930 . S
H682 C695 0.929 . S
H683 C693 0.929 . S
H684 C688 0.929 . S
H685 C694 0.929 . S
C686 H680 0.930 . S
C686 C687 1.367 . S
C686 C694 1.378 . S
C687 C686 1.367 . S
C687 C695 1.433 . S
C688 H684 0.929 . S
C688 C690 1.378 . S
C688 C692 1.350 . S
C689 C692 1.463 . S
C689 C694 1.350 . S
C689 N697 1.427 . S
C690 H681 0.930 . S
C690 C688 1.378 . S
C690 C691 1.367 . S
C691 C690 1.367 . S
C691 C693 1.433 . S
C692 C688 1.350 . S
C692 C689 1.463 . S
C692 N696 1.427 . S
C693 H683 0.929 . S
C693 C691 1.433 . S
C693 N696 1.384 . S
C694 H685 0.929 . S
C694 C686 1.378 . S
C694 C689 1.350 . S
C695 H682 0.929 . S
C695 C687 1.433 . S
C695 N697 1.384 . S
N696 C692 1.427 . S
N696 C693 1.384 . S
N697 C689 1.427 . S
N697 C695 1.384 . S
H698 C704 0.930 . S
H699 C708 0.930 . S
H700 C713 0.929 . S
H701 C711 0.929 . S
H702 C706 0.929 . S
H703 C712 0.929 . S
C704 H698 0.930 . S
C704 C705 1.367 . S
C704 C712 1.378 . S
C705 C704 1.367 . S
C705 C713 1.433 . S
C706 H702 0.929 . S
C706 C708 1.378 . S
C706 C710 1.350 . S
C707 C710 1.463 . S
C707 C712 1.350 . S
C707 N715 1.427 . S
C708 H699 0.930 . S
C708 C706 1.378 . S
C708 C709 1.367 . S
C709 C708 1.367 . S
C709 C711 1.433 . S
C710 C706 1.350 . S
C710 C707 1.463 . S
C710 N714 1.427 . S
C711 H701 0.929 . S
C711 C709 1.433 . S
C711 N714 1.384 . S
C712 H703 0.929 . S
C712 C704 1.378 . S
C712 C707 1.350 . S
C713 H700 0.929 . S
C713 C705 1.433 . S
C713 N715 1.384 . S
N714 C710 1.427 . S
N714 C711 1.384 . S
N715 C707 1.427 . S
N715 C713 1.384 . S
H716 C722 0.930 . S
H717 C726 0.930 . S
H718 C731 0.929 . S
H719 C729 0.929 . S
H720 C724 0.929 . S
H721 C730 0.929 . S
C722 H716 0.930 . S
C722 C723 1.367 . S
C722 C730 1.378 . S
C723 C722 1.367 . S
C723 C731 1.433 . S
C724 H720 0.929 . S
C724 C726 1.378 . S
C724 C728 1.350 . S
C725 C728 1.463 . S
C725 C730 1.350 . S
C725 N733 1.427 . S
C726 H717 0.930 . S
C726 C724 1.378 . S
C726 C727 1.367 . S
C727 C726 1.367 . S
C727 C729 1.433 . S
C728 C724 1.350 . S
C728 C725 1.463 . S
C728 N732 1.427 . S
C729 H719 0.929 . S
C729 C727 1.433 . S
C729 N732 1.384 . S
C730 H721 0.929 . S
C730 C722 1.378 . S
C730 C725 1.350 . S
C731 H718 0.929 . S
C731 C723 1.433 . S
C731 N733 1.384 . S
N732 C728 1.427 . S
N732 C729 1.384 . S
N733 C725 1.427 . S
N733 C731 1.384 . S
H734 C740 0.930 . S
H735 C744 0.930 . S
H736 C749 0.929 1_455 S
H737 C747 0.929 1_655 S
H738 C742 0.929 . S
H739 C748 0.929 . S
C740 H734 0.930 . S
C740 C741 1.367 . S
C740 C748 1.378 . S
C741 C740 1.367 . S
C741 C749 1.433 . S
C742 H738 0.929 . S
C742 C744 1.378 . S
C742 C746 1.350 . S
C743 C746 1.463 1_656 S
C743 C748 1.350 . S
C743 N751 1.427 1_655 S
C744 H735 0.930 . S
C744 C742 1.378 . S
C744 C745 1.367 . S
C745 C744 1.367 . S
C745 C747 1.433 . S
C746 C742 1.350 . S
C746 C743 1.463 1_454 S
C746 N750 1.427 1_455 S
C747 H737 0.929 1_455 S
C747 C745 1.433 . S
C747 N750 1.384 1_455 S
C748 H739 0.929 . S
C748 C740 1.378 . S
C748 C743 1.350 . S
C749 H736 0.929 1_655 S
C749 C741 1.433 . S
C749 N751 1.384 1_655 S
N750 C746 1.427 1_655 S
N750 C747 1.384 1_655 S
N751 C743 1.427 1_455 S
N751 C749 1.384 1_455 S
C327 C19 1.969 . S
C331 C139 1.964 . S
C345 C18 1.513 . S
C349 C59 1.541 . S
C363 C58 1.012 . S
C367 C98 1.018 . S
C381 C99 1.536 . S
C385 C138 1.502 . S
C399 C9 1.969 . S
C403 C209 1.975 . S
C417 C8 1.504 . S
C421 C169 1.537 . S
C435 C168 1.018 . S
C439 C88 1.005 . S
C453 C208 1.504 . S
C457 C89 1.539 . S
C471 C259 1.968 . S
C475 C219 1.971 . S
C489 C179 1.541 . S
C493 C258 1.511 . S
C507 C298 1.011 . S
C511 C178 1.017 . S
C525 C218 1.512 . S
C529 C299 1.542 . S
C543 C129 1.968 . S
C547 C249 1.969 . S
C561 C248 1.512 . S
C565 C49 1.540 . S
C579 C48 1.001 . S
C583 C288 1.012 . S
C597 C128 1.505 . S
C601 C289 1.536 . S
C615 C5 1.481 . S
C619 C15 1.481 . S
C633 C55 1.361 . S
C637 C45 1.361 . S
C651 C85 1.362 . S
C655 C95 1.362 . S
C669 C125 1.486 . S
C673 C135 1.486 . S
C687 C175 1.361 . S
C691 C165 1.361 . S
C705 C205 1.486 . S
C709 C215 1.486 . S
C723 C255 1.489 . S
C727 C245 1.489 . S
C741 C295 1.366 . S
C745 C285 1.366 . S
