# Generated by pormake.
# Topology ukk, (4)-cn, num edge types: 1
# Building blocks:
#     Node 0, Type 0, BuildingBlock: QUQFOY_clean_sbu_1, # of connection points: 4
#     Node 1, Type 0, BuildingBlock: QUQFOY_clean_sbu_1, # of connection points: 4
#     Node 2, Type 0, BuildingBlock: QUQFOY_clean_sbu_1, # of connection points: 4
#     Node 3, Type 0, BuildingBlock: QUQFOY_clean_sbu_1, # of connection points: 4
#     Node 4, Type 0, BuildingBlock: QUQFOY_clean_sbu_1, # of connection points: 4
#     Node 5, Type 0, BuildingBlock: QUQFOY_clean_sbu_1, # of connection points: 4
#     Node 6, Type 0, BuildingBlock: QUQFOY_clean_sbu_1, # of connection points: 4
#     Node 7, Type 0, BuildingBlock: QUQFOY_clean_sbu_1, # of connection points: 4
#     Node 8, Type 0, BuildingBlock: QUQFOY_clean_sbu_1, # of connection points: 4
#     Node 9, Type 0, BuildingBlock: QUQFOY_clean_sbu_1, # of connection points: 4
#     Node 10, Type 0, BuildingBlock: QUQFOY_clean_sbu_1, # of connection points: 4
#     Node 11, Type 0, BuildingBlock: QUQFOY_clean_sbu_1, # of connection points: 4
#     Node 12, Type 0, BuildingBlock: QUQFOY_clean_sbu_1, # of connection points: 4
#     Node 13, Type 0, BuildingBlock: QUQFOY_clean_sbu_1, # of connection points: 4
#     Node 14, Type 0, BuildingBlock: QUQFOY_clean_sbu_1, # of connection points: 4
#     Node 15, Type 0, BuildingBlock: QUQFOY_clean_sbu_1, # of connection points: 4
#     Edge 16, Type (0, 0), BuildingBlock: XIVTED_clean_linker_0, # of connection points: 2
#     Edge 17, Type (0, 0), BuildingBlock: XIVTED_clean_linker_0, # of connection points: 2
#     Edge 18, Type (0, 0), BuildingBlock: XIVTED_clean_linker_0, # of connection points: 2
#     Edge 19, Type (0, 0), BuildingBlock: XIVTED_clean_linker_0, # of connection points: 2
#     Edge 20, Type (0, 0), BuildingBlock: XIVTED_clean_linker_0, # of connection points: 2
#     Edge 21, Type (0, 0), BuildingBlock: XIVTED_clean_linker_0, # of connection points: 2
#     Edge 22, Type (0, 0), BuildingBlock: XIVTED_clean_linker_0, # of connection points: 2
#     Edge 23, Type (0, 0), BuildingBlock: XIVTED_clean_linker_0, # of connection points: 2
#     Edge 24, Type (0, 0), BuildingBlock: XIVTED_clean_linker_0, # of connection points: 2
#     Edge 25, Type (0, 0), BuildingBlock: XIVTED_clean_linker_0, # of connection points: 2
#     Edge 26, Type (0, 0), BuildingBlock: XIVTED_clean_linker_0, # of connection points: 2
#     Edge 27, Type (0, 0), BuildingBlock: XIVTED_clean_linker_0, # of connection points: 2
#     Edge 28, Type (0, 0), BuildingBlock: XIVTED_clean_linker_0, # of connection points: 2
#     Edge 29, Type (0, 0), BuildingBlock: XIVTED_clean_linker_0, # of connection points: 2
#     Edge 30, Type (0, 0), BuildingBlock: XIVTED_clean_linker_0, # of connection points: 2
#     Edge 31, Type (0, 0), BuildingBlock: XIVTED_clean_linker_0, # of connection points: 2
#     Edge 32, Type (0, 0), BuildingBlock: XIVTED_clean_linker_0, # of connection points: 2
#     Edge 33, Type (0, 0), BuildingBlock: XIVTED_clean_linker_0, # of connection points: 2
#     Edge 34, Type (0, 0), BuildingBlock: XIVTED_clean_linker_0, # of connection points: 2
#     Edge 35, Type (0, 0), BuildingBlock: XIVTED_clean_linker_0, # of connection points: 2
#     Edge 36, Type (0, 0), BuildingBlock: XIVTED_clean_linker_0, # of connection points: 2
#     Edge 37, Type (0, 0), BuildingBlock: XIVTED_clean_linker_0, # of connection points: 2
#     Edge 38, Type (0, 0), BuildingBlock: XIVTED_clean_linker_0, # of connection points: 2
#     Edge 39, Type (0, 0), BuildingBlock: XIVTED_clean_linker_0, # of connection points: 2
#     Edge 40, Type (0, 0), BuildingBlock: XIVTED_clean_linker_0, # of connection points: 2
#     Edge 41, Type (0, 0), BuildingBlock: XIVTED_clean_linker_0, # of connection points: 2
#     Edge 42, Type (0, 0), BuildingBlock: XIVTED_clean_linker_0, # of connection points: 2
#     Edge 43, Type (0, 0), BuildingBlock: XIVTED_clean_linker_0, # of connection points: 2
#     Edge 44, Type (0, 0), BuildingBlock: XIVTED_clean_linker_0, # of connection points: 2
#     Edge 45, Type (0, 0), BuildingBlock: XIVTED_clean_linker_0, # of connection points: 2
#     Edge 46, Type (0, 0), BuildingBlock: XIVTED_clean_linker_0, # of connection points: 2
#     Edge 47, Type (0, 0), BuildingBlock: XIVTED_clean_linker_0, # of connection points: 2
# Relax obj value: 0.045
# Max RMSD: 0.179
# Mean RMSD: 0.179
data_MOF--net-ukk--node1-QUQFOY_clean_sbu_1--edge1-XIVTED_clean_linker_0
_symmetry_space_group_name_H-M    P1
_symmetry_Int_Tables_number       1
_symmetry_cell_setting            triclinic
loop_
_symmetry_equiv_pos_as_xyz
'x, y, z'
_cell_length_a     51.533623
_cell_length_b     51.470802
_cell_length_c     23.950267
_cell_angle_alpha  90.009406
_cell_angle_beta   90.093529
_cell_angle_gamma 89.966644
loop_
_atom_site_label
_atom_site_type_symbol
_atom_site_fract_x
_atom_site_fract_y
_atom_site_fract_z
_atom_type_partial_charge
O0 O 0.33425 0.15903 0.10734 0.0
Cd1 Cd 0.35323 0.12461 0.0938 0.0
Cd2 Cd 0.34318 0.12039 0.20231 0.0
O3 O 0.31603 0.14957 0.18822 0.0
O4 O 0.34703 0.11651 1.01273 0.0
O5 O 0.32844 0.09508 0.08203 0.0
C6 C 0.32994 0.09981 0.02916 0.0
C7 C 0.33775 0.07932 0.24183 0.0
C8 C 0.31838 0.16455 0.14613 0.0
C9 C 0.3984 0.13105 0.16828 0.0
O10 O 0.38088 0.13272 0.20537 0.0
O11 O 0.39238 0.12428 0.11861 0.0
O12 O 0.33785 0.09986 0.27286 0.0
O13 O 0.33839 0.08247 0.18834 0.0
O14 O 0.15721 0.68002 0.933 0.0
Cd15 Cd 0.12303 0.66101 0.94844 0.0
Cd16 Cd 0.11818 0.66986 0.83935 0.0
O17 O 0.14788 0.69669 0.85039 0.0
O18 O 0.11641 0.66703 0.03008 0.0
O19 O 0.09359 0.68572 0.96286 0.0
C20 C 0.09931 0.68407 1.01529 0.0
C21 C 0.07682 0.67565 0.80161 0.0
C22 C 0.16282 0.69506 0.89272 0.0
C23 C 0.12884 0.61488 0.87594 0.0
O24 O 0.13 0.63192 0.83766 0.0
O25 O 0.12275 0.62156 0.92558 0.0
O26 O 0.09697 0.67472 0.76962 0.0
O27 O 0.08056 0.67559 0.85498 0.0
O28 O 0.67919 0.85464 0.11234 0.0
Cd29 Cd 0.65969 0.88853 0.09597 0.0
Cd30 Cd 0.66868 0.89391 0.20508 0.0
O31 O 0.69585 0.86447 0.1947 0.0
O32 O 0.66605 0.89487 1.01434 0.0
O33 O 0.68379 0.91844 0.08152 0.0
C34 C 0.68265 0.91238 0.02921 0.0
C35 C 0.67406 0.93539 0.24265 0.0
C36 C 0.69435 0.84935 0.15268 0.0
C37 C 0.61382 0.88243 0.16859 0.0
O38 O 0.63094 0.88164 0.20678 0.0
O39 O 0.62029 0.88845 0.11877 0.0
O40 O 0.6733 0.91522 0.27473 0.0
O41 O 0.67402 0.93163 0.1893 0.0
O42 O 0.85527 0.33383 0.93199 0.0
Cd43 Cd 0.88956 0.35254 0.94813 0.0
Cd44 Cd 0.89521 0.34269 0.8396 0.0
O45 O 0.86508 0.31632 0.85049 0.0
O46 O 0.89603 0.34669 0.02996 0.0
O47 O 0.91876 0.32762 0.96321 0.0
C48 C 0.91302 0.32948 1.01556 0.0
C49 C 0.93662 0.33627 0.80273 0.0
C50 C 0.84979 0.31852 0.89203 0.0
C51 C 0.88485 0.39811 0.87387 0.0
O52 O 0.8839 0.38074 0.83621 0.0
O53 O 0.89036 0.39181 0.92408 0.0
O54 O 0.91654 0.33717 0.77038 0.0
O55 O 0.93276 0.33665 0.85602 0.0
O56 O 0.33224 0.35476 0.17772 0.0
Cd57 Cd 0.35188 0.38837 0.19572 0.0
Cd58 Cd 0.34358 0.39448 0.08669 0.0
O59 O 0.31612 0.36524 0.09526 0.0
O60 O 0.34535 0.39401 0.27752 0.0
O61 O 0.32798 0.41839 0.2112 0.0
C62 C 0.32897 0.41185 0.26326 0.0
C63 C 0.33868 0.43619 0.05005 0.0
C64 C 0.3173 0.34982 0.13681 0.0
C65 C 0.39811 0.38218 0.12431 0.0
O66 O 0.38122 0.38181 0.08561 0.0
O67 O 0.39139 0.38802 0.17407 0.0
O68 O 0.33949 0.41618 1.0175 0.0
O69 O 0.33843 0.43216 0.10331 0.0
O70 O 0.35476 0.68083 0.86184 0.0
Cd71 Cd 0.38937 0.6623 0.8479 0.0
Cd72 Cd 0.39322 0.67148 0.95689 0.0
O73 O 0.3634 0.69805 0.94426 0.0
O74 O 0.39673 0.66831 0.76656 0.0
O75 O 0.41857 0.68741 0.83475 0.0
C76 C 0.41343 0.6856 0.78207 0.0
C77 C 0.43426 0.67749 0.99598 0.0
C78 C 0.34871 0.69602 0.90159 0.0
C79 C 0.38362 0.61633 0.92066 0.0
O80 O 0.38173 0.63347 0.9586 0.0
O81 O 0.39016 0.62294 0.87126 0.0
O82 O 0.41387 0.67668 0.02729 0.0
O83 O 0.43092 0.67726 0.94249 0.0
O84 O 0.67857 0.65852 0.18546 0.0
Cd85 Cd 0.65918 0.62441 0.19963 0.0
Cd86 Cd 0.66895 0.61982 0.09111 0.0
O87 O 0.69624 0.64893 0.10406 0.0
O88 O 0.66484 0.61713 0.28117 0.0
O89 O 0.6836 0.59468 0.21356 0.0
C90 C 0.68183 0.60004 0.26612 0.0
C91 C 0.67405 0.57846 0.05276 0.0
C92 C 0.69424 0.66392 0.14622 0.0
C93 C 0.61392 0.6312 0.12535 0.0
O94 O 0.63135 0.63247 0.08802 0.0
O95 O 0.61999 0.62455 0.17507 0.0
O96 O 0.67406 0.59881 1.02116 0.0
O97 O 0.6735 0.58194 0.10618 0.0
O98 O 0.65803 0.33484 0.8614 0.0
Cd99 Cd 0.62355 0.35342 0.84619 0.0
Cd100 Cd 0.61839 0.34331 0.95496 0.0
O101 O 0.64861 0.3171 0.94287 0.0
O102 O 0.6163 0.34723 0.76474 0.0
O103 O 0.59435 0.32838 0.83293 0.0
C104 C 0.59954 0.33002 0.78029 0.0
C105 C 0.57731 0.33655 0.9932 0.0
C106 C 0.66373 0.31944 0.90106 0.0
C107 C 0.62815 0.39888 0.92074 0.0
O108 O 0.62939 0.38146 0.95822 0.0
O109 O 0.62254 0.39264 0.87055 0.0
O110 O 0.59759 0.3376 0.02491 0.0
O111 O 0.5808 0.33699 0.9398 0.0
O112 O 0.83263 0.65781 0.61146 0.0
Cd113 Cd 0.85167 0.62354 0.59669 0.0
Cd114 Cd 0.84259 0.61903 0.70528 0.0
O115 O 0.81522 0.64816 0.69302 0.0
O116 O 0.84569 0.61647 0.51517 0.0
O117 O 0.82698 0.59403 0.58282 0.0
C118 C 0.82863 0.59947 0.53028 0.0
C119 C 0.83767 0.57763 0.74346 0.0
C120 C 0.81712 0.66323 0.65099 0.0
C121 C 0.89743 0.63007 0.66962 0.0
O122 O 0.88024 0.6316 0.70744 0.0
O123 O 0.89099 0.62332 0.62018 0.0
O124 O 0.83781 0.59795 0.77518 0.0
O125 O 0.83796 0.58117 0.69004 0.0
O126 O 0.65773 0.17975 0.43337 0.0
Cd127 Cd 0.62326 0.16106 0.44751 0.0
Cd128 Cd 0.61917 0.17029 0.3385 0.0
O129 O 0.64881 0.19704 0.35114 0.0
O130 O 0.61581 0.16733 0.52875 0.0
O131 O 0.59394 0.18607 0.46013 0.0
C132 C 0.59906 0.18452 0.51285 0.0
C133 C 0.57813 0.17614 0.29919 0.0
C134 C 0.66358 0.19505 0.39368 0.0
C135 C 0.6292 0.11516 0.37462 0.0
O136 O 0.63092 0.13235 0.33675 0.0
O137 O 0.62267 0.12169 0.4241 0.0
O138 O 0.59856 0.17541 0.26799 0.0
O139 O 0.58142 0.1759 0.35269 0.0
O140 O 0.1818 0.35441 0.61781 0.0
Cd141 Cd 0.16227 0.38829 0.6016 0.0
Cd142 Cd 0.1709 0.39343 0.71053 0.0
O143 O 0.19822 0.36412 0.70044 0.0
O144 O 0.16759 0.39408 0.5195 0.0
O145 O 0.18647 0.41793 0.58478 0.0
C146 C 0.18447 0.4116 0.53274 0.0
C147 C 0.17591 0.43518 0.7468 0.0
C148 C 0.19686 0.34906 0.65828 0.0
C149 C 0.11625 0.38186 0.67391 0.0
O150 O 0.13325 0.38091 0.71232 0.0
O151 O 0.12287 0.38811 0.62434 0.0
O152 O 0.17542 0.41521 0.77948 0.0
O153 O 0.17588 0.43109 0.69354 0.0
O154 O 0.35472 0.83609 0.4365 0.0
Cd155 Cd 0.38911 0.85498 0.45078 0.0
Cd156 Cd 0.39386 0.84456 0.34217 0.0
O157 O 0.36387 0.81822 0.355 0.0
O158 O 0.39637 0.84942 0.53237 0.0
O159 O 0.41849 0.83019 0.46487 0.0
C160 C 0.41324 0.83217 0.51743 0.0
C161 C 0.43492 0.83795 0.30368 0.0
C162 C 0.34895 0.82056 0.39713 0.0
C163 C 0.3838 0.90015 0.3757 0.0
O164 O 0.38252 0.8826 0.33851 0.0
O165 O 0.38973 0.89411 0.42585 0.0
O166 O 0.41456 0.83875 0.27214 0.0
O167 O 0.43153 0.83857 0.35711 0.0
O168 O 0.83138 0.85402 0.67862 0.0
Cd169 Cd 0.85048 0.88821 0.69399 0.0
Cd170 Cd 0.84092 0.89324 0.58565 0.0
O171 O 0.81376 0.86391 0.59724 0.0
O172 O 0.84515 0.89462 0.77592 0.0
O173 O 0.82587 0.91763 0.70977 0.0
C174 C 0.828 0.91178 0.76204 0.0
C175 C 0.83572 0.93484 0.54867 0.0
C176 C 0.81582 0.84869 0.63901 0.0
C177 C 0.89595 0.88211 0.62023 0.0
O178 O 0.8786 0.88082 0.58259 0.0
O179 O 0.88972 0.8885 0.66996 0.0
O180 O 0.83582 0.9147 0.5164 0.0
O181 O 0.83617 0.93099 0.60199 0.0
O182 O 0.85479 0.17961 0.36374 0.0
Cd183 Cd 0.88897 0.16049 0.34891 0.0
Cd184 Cd 0.89386 0.17005 0.45768 0.0
O185 O 0.86423 0.19691 0.44572 0.0
O186 O 0.89584 0.16624 0.26728 0.0
O187 O 0.91842 0.18515 0.33458 0.0
C188 C 0.91285 0.18335 0.2821 0.0
C189 C 0.93512 0.17579 0.49599 0.0
C190 C 0.84924 0.19498 0.40351 0.0
C191 C 0.88318 0.11486 0.42267 0.0
O192 O 0.882 0.13217 0.4604 0.0
O193 O 0.88925 0.12118 0.37281 0.0
O194 O 0.91483 0.17527 0.52763 0.0
O195 O 0.93158 0.17543 0.44256 0.0
O196 O 0.17937 0.15807 0.68682 0.0
Cd197 Cd 0.16028 0.12374 0.70007 0.0
Cd198 Cd 0.17026 0.11972 0.59133 0.0
O199 O 0.19739 0.1489 0.60553 0.0
O200 O 0.16633 0.11575 0.78124 0.0
O201 O 0.18503 0.09417 0.71226 0.0
C202 C 0.18347 0.09902 0.76507 0.0
C203 C 0.17559 0.07848 0.55251 0.0
C204 C 0.19517 0.1637 0.64797 0.0
C205 C 0.11507 0.13035 0.6255 0.0
O206 O 0.13256 0.13206 0.58836 0.0
O207 O 0.12113 0.12354 0.67513 0.0
O208 O 0.17558 0.09891 0.52111 0.0
O209 O 0.17496 0.08185 0.60594 0.0
O210 O 0.15735 0.83463 0.36353 0.0
Cd211 Cd 0.1231 0.85355 0.34792 0.0
Cd212 Cd 0.11778 0.84381 0.4566 0.0
O213 O 0.14782 0.81732 0.44538 0.0
O214 O 0.11638 0.8477 0.26621 0.0
O215 O 0.09377 0.82877 0.33329 0.0
C216 C 0.09938 0.83056 0.28087 0.0
C217 C 0.07648 0.83763 0.49418 0.0
C218 C 0.16293 0.81937 0.40351 0.0
C219 C 0.12823 0.89914 0.42203 0.0
O220 O 0.12924 0.8818 0.45971 0.0
O221 O 0.12255 0.89284 0.3719 0.0
O222 O 0.09669 0.83837 0.52618 0.0
O223 O 0.08015 0.83801 0.44082 0.0
H224 H 0.37472 0.91781 0.27064 0.0
H225 H 0.34564 0.06562 0.35187 0.0
H226 H 0.37725 0.94423 0.44172 0.0
H227 H 0.3362 0.03281 0.18727 0.0
H228 H 0.3563 0.02217 0.38774 0.0
H229 H 0.36104 0.9606 0.24147 0.0
C230 C 0.37248 0.93265 0.30235 0.0
C231 C 0.37715 0.9272 0.35898 0.0
C232 C 0.35162 0.0245 0.34394 0.0
C233 C 0.36114 0.97695 0.32519 0.0
C234 C 0.34537 0.04926 0.32344 0.0
C235 C 0.34008 0.05293 0.26633 0.0
C236 C 0.35267 1.00332 0.30698 0.0
C237 C 0.34021 0.03103 0.23148 0.0
C238 C 0.36451 0.95723 0.28547 0.0
C239 C 0.37394 0.94752 0.39765 0.0
N240 N 0.34657 0.00733 0.25226 0.0
N241 N 0.36611 0.97154 0.38004 0.0
H242 H 0.03093 0.6804 0.85744 0.0
H243 H 0.94128 0.63301 0.60223 0.0
H244 H 0.06193 0.66544 0.69329 0.0
H245 H 0.91542 0.64415 0.772 0.0
H246 H 0.98508 0.64697 0.63098 0.0
H247 H 0.98765 0.67062 0.82258 0.0
C248 C 0.0286 0.67537 0.8138 0.0
C249 C 0.05017 0.67367 0.77837 0.0
C250 C 0.96971 0.64633 0.66171 0.0
C251 C 1.00039 0.66188 0.738 0.0
C252 C 0.94475 0.63827 0.64538 0.0
C253 C 0.92453 0.63732 0.68464 0.0
C254 C 0.97435 0.65355 0.71758 0.0
C255 C 0.93021 0.6445 0.73998 0.0
C256 C 1.00383 0.66962 0.79387 0.0
C257 C 0.04585 0.66704 0.7221 0.0
N258 N 0.95442 0.65227 0.75457 0.0
N259 N 0.02148 0.66116 0.70373 0.0
H260 H 0.67813 0.98131 0.18641 0.0
H261 H 0.63271 0.07136 0.44241 0.0
H262 H 0.66425 0.95032 0.35107 0.0
H263 H 0.64173 0.09682 0.27173 0.0
H264 H 0.64632 0.02741 0.41355 0.0
H265 H 0.66829 0.02462 0.22119 0.0
C266 C 0.67332 0.98364 0.23014 0.0
C267 C 0.67195 0.96208 0.26574 0.0
C268 C 0.64528 0.04273 0.38264 0.0
C269 C 0.66011 0.01188 0.30604 0.0
C270 C 0.63742 0.06776 0.39904 0.0
C271 C 0.63603 0.08793 0.35957 0.0
C272 C 0.65185 0.03796 0.3265 0.0
C273 C 0.64249 0.08209 0.30393 0.0
C274 C 0.66753 0.00844 0.25002 0.0
C275 C 0.66559 0.96641 0.32212 0.0
N276 N 0.65009 0.05782 0.28929 0.0
N277 N 0.65969 0.99079 0.34047 0.0
H278 H 0.0727 0.37819 0.60548 0.0
H279 H 0.98235 0.33149 0.85947 0.0
H280 H 0.09795 0.36816 0.77616 0.0
H281 H 0.95182 0.34602 0.69453 0.0
H282 H 0.02574 0.34115 0.82533 0.0
H283 H 0.02889 0.36406 0.63343 0.0
C284 C 0.06909 0.37313 0.64866 0.0
C285 C 0.08915 0.37447 0.68842 0.0
C286 C 0.00964 0.34207 0.79629 0.0
C287 C 0.03931 0.35804 0.72046 0.0
C288 C 0.98481 0.33638 0.8158 0.0
C289 C 0.96334 0.33802 0.77994 0.0
C290 C 0.01323 0.34967 0.74042 0.0
C291 C 0.96782 0.34448 0.72367 0.0
C292 C 0.04413 0.36498 0.66454 0.0
C293 C 0.08329 0.36753 0.74378 0.0
N294 N 0.99224 0.3503 0.70571 0.0
N295 N 0.05908 0.35966 0.75793 0.0
H296 H 0.33523 0.48189 0.10743 0.0
H297 H 0.37998 0.57274 0.85235 0.0
H298 H 0.34837 0.45155 0.94188 0.0
H299 H 0.37162 0.59767 0.02357 0.0
H300 H 0.36651 0.52872 0.88076 0.0
H301 H 0.34526 0.52528 0.07343 0.0
C302 C 0.33992 0.48438 0.06369 0.0
C303 C 0.34101 0.46297 0.02758 0.0
C304 C 0.36767 0.54392 0.91189 0.0
C305 C 0.35304 0.51286 0.98818 0.0
C306 C 0.37546 0.569 0.89575 0.0
C307 C 0.37697 0.58905 0.93549 0.0
C308 C 0.3613 0.53898 0.96807 0.0
C309 C 0.37075 0.58303 0.99116 0.0
C310 C 0.34582 0.50922 0.04425 0.0
C311 C 0.34724 0.46751 0.97122 0.0
N312 N 0.36321 0.55872 1.00556 0.0
N313 N 0.35322 0.49193 0.9533 0.0
H314 H 0.44837 0.66832 0.10526 0.0
H315 H 0.59669 0.64454 1.02198 0.0
H316 H 0.48056 0.68093 0.94129 0.0
H317 H 0.56964 0.63526 0.19139 0.0
H318 H 0.55386 0.65861 0.99418 0.0
H319 H 0.49204 0.65805 0.14014 0.0
C320 C 0.46464 0.66938 0.0768 0.0
C321 C 0.46074 0.67543 1.02011 0.0
C322 C 0.55711 0.65356 0.03753 0.0
C323 C 0.51063 0.66331 0.05964 0.0
C324 C 0.58171 0.64538 0.05361 0.0
C325 C 0.58698 0.63862 0.10935 0.0
C326 C 0.53716 0.65504 0.07714 0.0
C327 C 0.56651 0.64019 0.14797 0.0
C328 C 0.48953 0.66334 0.09671 0.0
C329 C 0.48253 0.6763 0.98518 0.0
N330 N 0.54244 0.64822 0.13112 0.0
N331 N 0.50639 0.67015 1.0054 0.0
H332 H 0.63546 0.41716 0.02595 0.0
H333 H 0.66704 0.56421 0.94277 0.0
H334 H 0.63575 0.44256 0.85411 0.0
H335 H 0.67426 0.53225 0.10864 0.0
H336 H 0.65622 0.5207 0.90749 0.0
H337 H 0.64892 0.46006 0.05495 0.0
C338 C 0.63828 0.4318 0.99404 0.0
C339 C 0.6345 0.42603 0.93725 0.0
C340 C 0.66043 0.52322 0.95146 0.0
C341 C 0.65024 0.47588 0.97083 0.0
C342 C 0.66677 0.54801 0.97163 0.0
C343 C 0.67151 0.55195 0.02888 0.0
C344 C 0.65873 0.50227 0.98888 0.0
C345 C 0.67071 0.53026 0.06428 0.0
C346 C 0.64611 0.45643 1.01082 0.0
C347 C 0.63837 0.4461 0.8983 0.0
N348 N 0.66427 0.50652 0.04379 0.0
N349 N 0.64607 0.47018 0.91581 0.0
H350 H 0.44176 0.37844 0.19256 0.0
H351 H 0.53131 0.33071 0.93803 0.0
H352 H 0.41619 0.36801 1.0222 0.0
H353 H 0.56266 0.34684 0.10157 0.0
H354 H 0.48803 0.34016 0.97305 0.0
H355 H 0.48551 0.36412 0.16436 0.0
C356 C 0.44528 0.37324 0.14942 0.0
C357 C 0.42516 0.37456 0.1098 0.0
C358 C 0.50429 0.34148 1.0016 0.0
C359 C 0.47491 0.3579 0.07751 0.0
C360 C 0.52907 0.33591 0.98159 0.0
C361 C 0.55072 0.33808 1.01677 0.0
C362 C 0.50094 0.3495 0.05728 0.0
C363 C 0.5465 0.34489 0.07295 0.0
C364 C 0.47021 0.36499 0.13339 0.0
C365 C 0.4309 0.36744 0.05447 0.0
N366 N 0.52213 0.35061 0.09139 0.0
N367 N 0.45506 0.35947 0.04021 0.0
H368 H 0.87706 0.41644 0.76884 0.0
H369 H 0.84506 0.56327 0.85325 0.0
H370 H 0.8771 0.44167 0.94081 0.0
H371 H 0.83736 0.53147 0.68733 0.0
H372 H 0.85612 0.51975 0.88813 0.0
H373 H 0.86323 0.4593 0.74024 0.0
C374 C 0.87424 0.43103 0.80086 0.0
C375 C 0.87824 0.42523 0.85757 0.0
C376 C 0.85175 0.52231 0.84424 0.0
C377 C 0.86206 0.47503 0.82447 0.0
C378 C 0.84527 0.54711 0.8243 0.0
C379 C 0.84033 0.5511 0.76714 0.0
C380 C 0.85339 0.50141 0.80668 0.0
C381 C 0.84107 0.52944 0.73162 0.0
C382 C 0.8662 0.45564 0.78432 0.0
C383 C 0.87433 0.44523 0.89667 0.0
N384 N 0.84765 0.50569 0.75188 0.0
N385 N 0.86642 0.46929 0.87939 0.0
H386 H 0.56413 0.16717 0.18975 0.0
H387 H 0.41563 0.14375 0.27199 0.0
H388 H 0.53178 0.1794 0.35374 0.0
H389 H 0.44278 0.13495 0.10253 0.0
H390 H 0.45852 0.15739 0.30024 0.0
H391 H 0.52048 0.15705 0.15454 0.0
C392 C 0.54783 0.16816 0.21816 0.0
C393 C 0.55168 0.17408 0.27493 0.0
C394 C 0.45529 0.15254 0.25679 0.0
C395 C 0.50182 0.16214 0.23503 0.0
C396 C 0.43065 0.14461 0.24044 0.0
C397 C 0.42538 0.13812 0.18455 0.0
C398 C 0.47528 0.15404 0.21727 0.0
C399 C 0.44591 0.13967 0.14606 0.0
C400 C 0.52295 0.16221 0.19805 0.0
C401 C 0.52985 0.17488 0.30978 0.0
N402 N 0.47 0.14747 0.16315 0.0
N403 N 0.50601 0.16883 0.28937 0.0
H404 H 0.13388 0.57156 0.94464 0.0
H405 H 0.1786 0.48085 0.68912 0.0
H406 H 0.14034 0.59611 0.77281 0.0
H407 H 0.16667 0.4506 0.85514 0.0
H408 H 0.16814 0.52416 0.72308 0.0
H409 H 0.148 0.52771 0.91628 0.0
C410 C 0.13812 0.56778 0.90112 0.0
C411 C 0.13587 0.58767 0.86119 0.0
C412 C 0.16794 0.50814 0.75237 0.0
C413 C 0.15229 0.5378 0.82866 0.0
C414 C 0.17409 0.48335 0.73296 0.0
C415 C 0.17345 0.46198 0.7692 0.0
C416 C 0.16091 0.51178 0.80857 0.0
C417 C 0.16744 0.46653 0.82568 0.0
C418 C 0.14628 0.5428 0.885 0.0
C419 C 0.14176 0.5816 0.80536 0.0
N420 N 0.1612 0.4909 0.84358 0.0
N421 N 0.14968 0.55739 0.79099 0.0
H422 H 0.48109 0.83283 0.35854 0.0
H423 H 0.56983 0.8788 0.10129 0.0
H424 H 0.44925 0.84763 0.19486 0.0
H425 H 0.59606 0.86898 0.27136 0.0
H426 H 0.52611 0.86493 0.13065 0.0
H427 H 0.52423 0.84217 0.32271 0.0
C428 C 0.4832 0.83772 0.31479 0.0
C429 C 0.46144 0.83952 0.2798 0.0
C430 C 0.54155 0.86583 0.1613 0.0
C431 C 0.51107 0.85082 0.23831 0.0
C432 C 0.56646 0.87384 0.14461 0.0
C433 C 0.58676 0.87516 0.18379 0.0
C434 C 0.53704 0.85903 0.21742 0.0
C435 C 0.58121 0.86836 0.23938 0.0
C436 C 0.5079 0.84323 0.29431 0.0
C437 C 0.46549 0.84596 0.22335 0.0
N438 N 0.55706 0.86063 0.25429 0.0
N439 N 0.48979 0.85161 0.20443 0.0
H440 H 0.8432 0.94975 0.43934 0.0
H441 H 0.87377 0.09651 0.52703 0.0
H442 H 0.83516 0.98073 0.60585 0.0
H443 H 0.87636 0.07135 0.3551 0.0
H444 H 0.85976 0.05358 0.55455 0.0
H445 H 0.85419 0.99344 0.40559 0.0
C446 C 0.84331 0.96577 0.46866 0.0
C447 C 0.8383 0.9615 0.52565 0.0
C448 C 0.86333 0.05727 0.51071 0.0
C449 C 0.85126 0.0114 0.48738 0.0
C450 C 0.87147 0.08192 0.49479 0.0
C451 C 0.87626 0.08776 0.43842 0.0
C452 C 0.85989 0.03787 0.47026 0.0
C453 C 0.87296 0.06776 0.39901 0.0
C454 C 0.84975 0.99067 0.44936 0.0
C455 C 0.83892 0.98298 0.56166 0.0
N456 N 0.86496 0.04367 0.41568 0.0
N457 N 0.84545 0.00684 0.542 0.0
H458 H 0.9495 0.16744 0.60541 0.0
H459 H 0.09759 0.14241 0.52161 0.0
H460 H 0.98128 0.17814 0.44043 0.0
H461 H 0.07086 0.13476 0.69162 0.0
H462 H 0.05466 0.15607 0.49351 0.0
H463 H 0.99319 0.15716 0.64014 0.0
C464 C 0.96568 0.16806 0.57666 0.0
C465 C 0.96166 0.17361 0.51978 0.0
C466 C 0.058 0.15146 0.53705 0.0
C467 C 0.01158 0.16148 0.55916 0.0
C468 C 0.08266 0.14353 0.55331 0.0
C469 C 0.08805 0.13738 0.60932 0.0
C470 C 0.03813 0.15332 0.57676 0.0
C471 C 0.06763 0.13923 0.64801 0.0
C472 C 0.99059 0.16202 0.59651 0.0
C473 C 0.98334 0.17393 0.4845 0.0
N474 N 0.04352 0.14704 0.631 0.0
N475 N 0.00722 0.1678 0.50468 0.0
H476 H 0.13657 0.91743 0.52688 0.0
H477 H 0.16779 0.06437 0.44266 0.0
H478 H 0.13575 0.9427 0.35495 0.0
H479 H 0.17669 0.0322 0.60797 0.0
H480 H 0.15677 0.02086 0.40759 0.0
H481 H 0.15057 0.96023 0.55525 0.0
C482 C 0.13926 0.93202 0.49481 0.0
C483 C 0.13499 0.92624 0.43819 0.0
C484 C 0.16141 0.02334 0.45137 0.0
C485 C 0.15136 0.97599 0.47104 0.0
C486 C 0.16787 0.04813 0.47141 0.0
C487 C 0.1731 0.05201 0.52848 0.0
C488 C 0.16009 1.00235 0.48876 0.0
C489 C 0.17273 0.03027 0.56376 0.0
C490 C 0.1474 0.9566 0.51123 0.0
C491 C 0.13874 0.94625 0.39903 0.0
N492 N 0.16616 1.00654 0.54342 0.0
N493 N 0.14674 0.97028 0.41619 0.0
H494 H 0.91366 0.86976 0.51674 0.0
H495 H 0.06175 0.84594 0.6033 0.0
H496 H 0.94001 0.87789 0.68712 0.0
H497 H 0.03047 0.83476 0.43779 0.0
H498 H 0.01788 0.85586 0.63718 0.0
H499 H 0.95673 0.85624 0.48947 0.0
C500 C 0.92853 0.86878 0.54869 0.0
C501 C 0.923 0.87505 0.60455 0.0
C502 C 0.02063 0.85097 0.59361 0.0
C503 C 0.97307 0.85926 0.57297 0.0
C504 C 0.04564 0.84513 0.57425 0.0
C505 C 0.04986 0.83956 0.51747 0.0
C506 C 0.99973 0.85127 0.55589 0.0
C507 C 0.02826 0.839 0.48181 0.0
C508 C 0.95327 0.86092 0.53291 0.0
C509 C 0.94335 0.87333 0.6436 0.0
N510 N 1.00428 0.84493 0.50151 0.0
N511 N 0.96753 0.86562 0.62706 0.0
H512 H 0.30165 0.32107 0.0461 0.0
H513 H 0.29846 0.1933 0.23288 0.0
H514 H 0.30342 0.32036 0.22618 0.0
H515 H 0.3087 0.19409 0.05412 0.0
H516 H 0.28664 0.2394 0.22931 0.0
H517 H 0.29054 0.27477 0.04704 0.0
C518 C 0.29897 0.31137 0.08581 0.0
C519 C 0.30402 0.32438 0.13609 0.0
C520 C 0.29095 0.22932 0.19073 0.0
C521 C 0.29167 0.27151 0.13756 0.0
C522 C 0.29756 0.20297 0.19276 0.0
C523 C 0.30516 0.19004 0.14392 0.0
C524 C 0.29196 0.2427 0.13951 0.0
C525 C 0.30355 0.2035 0.09299 0.0
C526 C 0.29279 0.28491 0.08637 0.0
C527 C 0.30024 0.31088 0.18639 0.0
N528 N 0.29755 0.22918 0.09222 0.0
N529 N 0.29472 0.28511 0.18585 0.0
H530 H 0.19105 0.70879 0.98414 0.0
H531 H 0.32032 0.70809 0.80926 0.0
H532 H 0.19308 0.7102 0.80415 0.0
H533 H 0.31821 0.71207 0.98909 0.0
H534 H 0.27426 0.71879 0.80617 0.0
H535 H 0.23699 0.71995 0.98647 0.0
C536 C 0.20108 0.712 0.94503 0.0
C537 C 0.18838 0.70807 0.89382 0.0
C538 C 0.2839 0.71786 0.84633 0.0
C539 C 0.24119 0.72039 0.89618 0.0
C540 C 0.31024 0.71175 0.84815 0.0
C541 C 0.32297 0.70868 0.89961 0.0
C542 C 0.27003 0.7205 0.89639 0.0
C543 C 0.30909 0.71403 0.94856 0.0
C544 C 0.22736 0.71837 0.9464 0.0
C545 C 0.20219 0.71284 0.84451 0.0
N546 N 0.2832 0.71913 0.9458 0.0
N547 N 0.22804 0.71819 0.84689 0.0
H548 H 0.70855 0.82105 0.0618 0.0
H549 H 0.70686 0.69219 0.23832 0.0
H550 H 0.70957 0.81937 0.24183 0.0
H551 H 0.71105 0.69389 0.05851 0.0
H552 H 0.71823 0.73813 0.24095 0.0
H553 H 0.71987 0.77507 0.0602 0.0
C554 C 0.71172 0.81109 0.10108 0.0
C555 C 0.70761 0.82389 0.15208 0.0
C556 C 0.71722 0.72842 0.2009 0.0
C557 C 0.72008 0.77104 0.15055 0.0
C558 C 0.71074 0.70214 0.19935 0.0
C559 C 0.7075 0.68936 0.14802 0.0
C560 C 0.72005 0.74217 0.15069 0.0
C561 C 0.71312 0.70306 0.09895 0.0
C562 C 0.71818 0.7848 0.10013 0.0
C563 C 0.71234 0.81018 0.20162 0.0
N564 N 0.71856 0.72891 0.10143 0.0
N565 N 0.71776 0.78431 0.19964 0.0
H566 H 0.69278 0.30143 0.98938 0.0
H567 H 0.82067 0.30179 0.80271 0.0
H568 H 0.69354 0.3091 0.81 0.0
H569 H 0.81999 0.30714 0.98247 0.0
H570 H 0.7743 0.29121 0.80454 0.0
H571 H 0.73903 0.29031 0.98689 0.0
C572 C 0.7025 0.30012 0.9494 0.0
C573 C 0.68947 0.30674 0.89996 0.0
C574 C 0.78445 0.29416 0.84365 0.0
C575 C 0.74229 0.29431 0.89677 0.0
C576 C 0.81095 0.30004 0.84259 0.0
C577 C 0.82403 0.30588 0.89241 0.0
C578 C 0.77108 0.2941 0.89487 0.0
C579 C 0.81049 0.30331 0.94297 0.0
C580 C 0.72892 0.29391 0.94798 0.0
C581 C 0.703 0.30467 0.84926 0.0
N582 N 0.78469 0.29801 0.94286 0.0
N583 N 0.72873 0.29903 0.84904 0.0
H584 H 0.79888 0.69223 0.73903 0.0
H585 H 0.79845 0.81954 0.55033 0.0
H586 H 0.80578 0.69251 0.55953 0.0
H587 H 0.80418 0.81935 0.73005 0.0
H588 H 0.78747 0.77322 0.55301 0.0
H589 H 0.78719 0.73838 0.73592 0.0
C590 C 0.79726 0.7018 0.69891 0.0
C591 C 0.80388 0.68872 0.6496 0.0
C592 C 0.79058 0.78347 0.59194 0.0
C593 C 0.79083 0.74142 0.64569 0.0
C594 C 0.79668 0.80995 0.59039 0.0
C595 C 0.80279 0.82312 0.63993 0.0
C596 C 0.79057 0.77023 0.64337 0.0
C597 C 0.80016 0.80975 0.69075 0.0
C598 C 0.79073 0.72818 0.69712 0.0
C599 C 0.80138 0.70205 0.59869 0.0
N600 N 0.79467 0.78397 0.69111 0.0
N601 N 0.79547 0.72775 0.59811 0.0
H602 H 0.82111 0.20835 0.31173 0.0
H603 H 0.69177 0.20754 0.486 0.0
H604 H 0.81892 0.21053 0.49167 0.0
H605 H 0.69398 0.21119 0.30616 0.0
H606 H 0.73773 0.21861 0.48917 0.0
H607 H 0.77513 0.21942 0.30901 0.0
C608 C 0.81103 0.21172 0.35073 0.0
C609 C 0.8237 0.20803 0.40207 0.0
C610 C 0.72813 0.21753 0.44898 0.0
C611 C 0.77085 0.22021 0.39928 0.0
C612 C 0.70185 0.21121 0.44713 0.0
C613 C 0.68919 0.20794 0.39565 0.0
C614 C 0.74201 0.22017 0.39895 0.0
C615 C 0.70306 0.2133 0.3467 0.0
C616 C 0.78474 0.21803 0.34914 0.0
C617 C 0.80983 0.21299 0.45123 0.0
N618 N 0.7289 0.2186 0.3495 0.0
N619 N 0.78397 0.21827 0.44865 0.0
H620 H 0.21182 0.32116 0.56745 0.0
H621 H 0.20719 0.1915 0.74109 0.0
H622 H 0.21111 0.31863 0.74742 0.0
H623 H 0.21279 0.194 0.5615 0.0
H624 H 0.219 0.23731 0.74514 0.0
H625 H 0.22271 0.27507 0.56533 0.0
C626 C 0.21455 0.31098 0.60663 0.0
C627 C 0.21006 0.32358 0.65771 0.0
C628 C 0.2182 0.22779 0.70484 0.0
C629 C 0.22199 0.27062 0.65557 0.0
C630 C 0.21145 0.2016 0.70248 0.0
C631 C 0.20849 0.18909 0.65076 0.0
C632 C 0.22159 0.24175 0.65506 0.0
C633 C 0.21463 0.20297 0.6022 0.0
C634 C 0.22074 0.28463 0.60538 0.0
C635 C 0.2142 0.3096 0.70715 0.0
N636 N 0.22033 0.22874 0.60546 0.0
N637 N 0.21935 0.28368 0.70484 0.0
H638 H 0.19152 0.80613 0.31248 0.0
H639 H 0.32042 0.80881 0.48922 0.0
H640 H 0.19319 0.80446 0.49249 0.0
H641 H 0.3188 0.80383 0.30947 0.0
H642 H 0.27449 0.79764 0.49175 0.0
H643 H 0.23764 0.79561 0.31087 0.0
C644 C 0.20152 0.80299 0.35174 0.0
C645 C 0.18864 0.80664 0.40276 0.0
C646 C 0.28421 0.79845 0.45174 0.0
C647 C 0.24165 0.7951 0.40123 0.0
C648 C 0.31048 0.80483 0.45025 0.0
C649 C 0.32331 0.80773 0.39895 0.0
C650 C 0.2705 0.79537 0.40151 0.0
C651 C 0.3096 0.802 0.34988 0.0
C652 C 0.2279 0.79699 0.35078 0.0
C653 C 0.20242 0.802 0.45227 0.0
N654 N 0.28376 0.79664 0.3523 0.0
N655 N 0.22835 0.79703 0.45031 0.0
H656 H 0.23107 0.07877 0.73961 0.0
H657 H 0.28243 0.0795 0.05498 0.0
H658 H 0.18252 0.09857 0.8799 0.0
H659 H 0.33085 0.09901 0.91434 0.0
H660 H 0.24596 0.07252 0.99096 0.0
H661 H 0.26757 0.0722 0.80376 0.0
C662 C 0.22785 0.08105 0.78402 0.0
C663 C 0.20366 0.08938 0.80435 0.0
C664 C 0.26471 0.07785 0.97412 0.0
C665 C 0.24545 0.08184 0.87788 0.0
C666 C 0.28563 0.08163 1.01053 0.0
C667 C 0.30977 0.09 0.99006 0.0
C668 C 0.26802 0.08198 0.91667 0.0
C669 C 0.3126 0.09268 0.93201 0.0
C670 C 0.24879 0.0775 0.8205 0.0
C671 C 0.20081 0.09226 0.86235 0.0
N672 N 0.29195 0.0888 0.89738 0.0
N673 N 0.22147 0.08862 0.89705 0.0
H674 H 0.09944 0.83295 0.16626 0.0
H675 H 0.09925 0.68172 0.12987 0.0
H676 H 0.07964 0.78237 0.3033 0.0
H677 H 0.07971 0.73233 0.99255 0.0
H678 H 0.09234 0.718 0.19458 0.0
H679 H 0.09248 0.79671 0.10143 0.0
C680 C 0.0931 0.81439 0.18262 0.0
C681 C 0.09013 0.81073 0.24035 0.0
C682 C 0.08907 0.72101 0.15037 0.0
C683 C 0.0829 0.76897 0.16652 0.0
C684 C 0.09298 0.7003 0.11342 0.0
C685 C 0.09006 0.70395 0.05566 0.0
C686 C 0.08289 0.74576 0.12935 0.0
C687 C 0.08206 0.72855 0.03674 0.0
C688 C 0.08916 0.7937 0.14559 0.0
C689 C 0.08204 0.78616 0.25915 0.0
N690 N 0.07927 0.74863 0.07331 0.0
N691 N 0.07923 0.7661 0.22252 0.0
H692 H 0.72807 0.93777 0.053 0.0
H693 H 0.83174 0.91191 0.87635 0.0
H694 H 0.6836 0.90739 0.91489 0.0
H695 H 0.7794 0.93107 0.74181 0.0
H696 H 0.79643 0.91889 0.94296 0.0
H697 H 0.76485 0.94442 0.99005 0.0
C698 C 0.72582 0.93298 1.00923 0.0
C699 C 0.70272 0.92173 0.9894 0.0
C700 C 0.79283 0.92232 0.89903 0.0
C701 C 0.74503 0.92886 0.9173 0.0
C702 C 0.813 0.91824 0.86093 0.0
C703 C 0.80861 0.92104 0.80339 0.0
C704 C 0.76789 0.92872 0.87942 0.0
C705 C 0.78377 0.92894 0.7858 0.0
C706 C 0.74698 0.93648 0.97348 0.0
C707 C 0.70106 0.91591 0.93216 0.0
N708 N 0.76423 0.93194 0.82351 0.0
N709 N 0.72196 0.91942 0.89821 0.0
H710 H 0.9131 0.1808 0.16753 0.0
H711 H 0.9127 0.33199 0.13015 0.0
H712 H 0.93233 0.23165 0.30462 0.0
H713 H 0.93278 0.28122 0.99356 0.0
H714 H 0.91958 0.29584 0.19525 0.0
H715 H 0.92003 0.21697 0.10261 0.0
C716 C 0.91931 0.19941 0.18389 0.0
C717 C 0.92213 0.20315 0.24165 0.0
C718 C 0.92297 0.29276 0.15112 0.0
C719 C 0.92931 0.24486 0.16771 0.0
C720 C 0.91908 0.31341 0.11395 0.0
C721 C 0.92215 0.30967 0.05626 0.0
C722 C 0.92931 0.26801 0.13039 0.0
C723 C 0.93029 0.28506 0.03767 0.0
C724 C 0.92322 0.22007 0.14682 0.0
C725 C 0.93005 0.2278 0.26045 0.0
N726 N 0.93307 0.26506 0.07443 0.0
N727 N 0.93285 0.24782 0.22376 0.0
H728 H 0.18041 0.41133 0.41851 0.0
H729 H 0.28349 0.43732 0.24026 0.0
H730 H 0.23306 0.431 0.55209 0.0
H731 H 0.32831 0.40658 0.3775 0.0
H732 H 0.24689 0.44396 0.30379 0.0
H733 H 0.21551 0.41815 0.35133 0.0
C734 C 0.19917 0.41774 0.43359 0.0
C735 C 0.20372 0.42075 0.49103 0.0
C736 C 0.26481 0.43595 0.32004 0.0
C737 C 0.2442 0.42821 0.41436 0.0
C738 C 0.28586 0.43245 0.28396 0.0
C739 C 0.309 0.42111 0.30339 0.0
C740 C 0.26693 0.42828 0.37615 0.0
C741 C 0.31082 0.41518 0.36055 0.0
C742 C 0.21922 0.42171 0.39517 0.0
C743 C 0.22858 0.42872 0.50819 0.0
N744 N 0.29003 0.41872 0.39483 0.0
N745 N 0.24801 0.43161 0.47018 0.0
H746 H 0.41332 0.83459 0.63205 0.0
H747 H 0.41432 0.68329 0.66751 0.0
H748 H 0.43333 0.78411 0.49491 0.0
H749 H 0.43255 0.73396 0.80556 0.0
H750 H 0.42137 0.71963 0.60314 0.0
H751 H 0.42045 0.79837 0.6968 0.0
C752 C 0.41975 0.81606 0.61565 0.0
C753 C 0.42269 0.81242 0.5579 0.0
C754 C 0.42433 0.72266 0.64745 0.0
C755 C 0.43014 0.77067 0.63165 0.0
C756 C 0.42034 0.7019 0.68421 0.0
C757 C 0.42282 0.70555 0.74207 0.0
C758 C 0.43017 0.74744 0.66873 0.0
C759 C 0.43052 0.73019 0.7613 0.0
C760 C 0.42378 0.79538 0.65263 0.0
C761 C 0.43091 0.78788 0.53906 0.0
N762 N 0.4334 0.7503 0.72488 0.0
N763 N 0.43383 0.76784 0.57565 0.0
H764 H 0.67965 0.59983 0.38075 0.0
H765 H 0.83075 0.59909 0.41568 0.0
H766 H 0.72977 0.5799 0.24315 0.0
H767 H 0.7805 0.57993 0.5535 0.0
H768 H 0.79436 0.59212 0.3513 0.0
H769 H 0.71596 0.5926 0.44524 0.0
C770 C 0.69812 0.5934 0.36419 0.0
C771 C 0.70163 0.5905 0.3064 0.0
C772 C 0.79144 0.58894 0.39554 0.0
C773 C 0.74348 0.58295 0.37984 0.0
C774 C 0.81223 0.59288 0.43231 0.0
C775 C 0.80871 0.59011 0.49012 0.0
C776 C 0.76677 0.58287 0.41679 0.0
C777 C 0.78417 0.58218 0.50927 0.0
C778 C 0.71886 0.58931 0.40102 0.0
C779 C 0.7261 0.58227 0.28735 0.0
N780 N 0.76403 0.57937 0.47288 0.0
N781 N 0.7462 0.57931 0.32379 0.0
H782 H 0.57942 0.23253 0.48803 0.0
H783 H 0.57922 0.28226 0.80455 0.0
H784 H 0.59848 0.18307 0.6276 0.0
H785 H 0.59946 0.33147 0.66549 0.0
H786 H 0.57251 0.2461 0.73954 0.0
H787 H 0.57299 0.26882 0.55285 0.0
C788 C 0.58157 0.22908 0.5324 0.0
C789 C 0.58963 0.20468 0.55236 0.0
C790 C 0.57796 0.26496 0.72326 0.0
C791 C 0.58225 0.24621 0.62665 0.0
C792 C 0.58159 0.2857 0.76023 0.0
C793 C 0.59006 0.30997 0.7405 0.0
C794 C 0.58234 0.26858 0.66598 0.0
C795 C 0.59305 0.3131 0.68259 0.0
C796 C 0.57811 0.24988 0.56927 0.0
C797 C 0.59237 0.20152 0.61034 0.0
N798 N 0.5893 0.29263 0.6474 0.0
N799 N 0.58879 0.22206 0.64541 0.0
loop_
_geom_bond_atom_site_label_1
_geom_bond_atom_site_label_2
_geom_bond_distance
_geom_bond_site_symmetry_2
_ccdc_geom_bond_type
O0 Cd1 2.223 . S
O0 C8 1.315 . S
Cd1 O0 2.223 . S
Cd1 O4 2.297 . S
Cd1 O5 2.439 . S
Cd1 O11 2.240 . S
Cd2 O3 2.240 . S
Cd2 O10 2.223 . S
Cd2 O12 2.297 . S
Cd2 O13 2.439 . S
O3 Cd2 2.240 . S
O3 C8 1.279 . S
O4 Cd1 2.297 . S
O4 C6 1.247 . S
O5 Cd1 2.439 . S
O5 C6 1.208 . S
C6 O4 1.247 . S
C6 O5 1.208 . S
C7 O12 1.247 . S
C7 O13 1.208 . S
C8 O0 1.315 . S
C8 O3 1.279 . S
C9 O10 1.315 . S
C9 O11 1.279 . S
O10 Cd2 2.223 . S
O10 C9 1.315 . S
O11 Cd1 2.240 . S
O11 C9 1.279 . S
O12 Cd2 2.297 . S
O12 C7 1.247 . S
O13 Cd2 2.439 . S
O13 C7 1.208 . S
O14 Cd15 2.223 . S
O14 C22 1.315 . S
Cd15 O14 2.223 . S
Cd15 O18 2.297 . S
Cd15 O19 2.439 . S
Cd15 O25 2.240 . S
Cd16 O17 2.240 . S
Cd16 O24 2.223 . S
Cd16 O26 2.297 . S
Cd16 O27 2.439 . S
O17 Cd16 2.240 . S
O17 C22 1.279 . S
O18 Cd15 2.297 . S
O18 C20 1.247 . S
O19 Cd15 2.439 . S
O19 C20 1.208 . S
C20 O18 1.247 . S
C20 O19 1.208 . S
C21 O26 1.247 . S
C21 O27 1.208 . S
C22 O14 1.315 . S
C22 O17 1.279 . S
C23 O24 1.315 . S
C23 O25 1.279 . S
O24 Cd16 2.223 . S
O24 C23 1.315 . S
O25 Cd15 2.240 . S
O25 C23 1.279 . S
O26 Cd16 2.297 . S
O26 C21 1.247 . S
O27 Cd16 2.439 . S
O27 C21 1.208 . S
O28 Cd29 2.223 . S
O28 C36 1.315 . S
Cd29 O28 2.223 . S
Cd29 O32 2.297 . S
Cd29 O33 2.439 . S
Cd29 O39 2.240 . S
Cd30 O31 2.240 . S
Cd30 O38 2.223 . S
Cd30 O40 2.297 . S
Cd30 O41 2.439 . S
O31 Cd30 2.240 . S
O31 C36 1.279 . S
O32 Cd29 2.297 . S
O32 C34 1.247 . S
O33 Cd29 2.439 . S
O33 C34 1.208 . S
C34 O32 1.247 . S
C34 O33 1.208 . S
C35 O40 1.247 . S
C35 O41 1.208 . S
C36 O28 1.315 . S
C36 O31 1.279 . S
C37 O38 1.315 . S
C37 O39 1.279 . S
O38 Cd30 2.223 . S
O38 C37 1.315 . S
O39 Cd29 2.240 . S
O39 C37 1.279 . S
O40 Cd30 2.297 . S
O40 C35 1.247 . S
O41 Cd30 2.439 . S
O41 C35 1.208 . S
O42 Cd43 2.223 . S
O42 C50 1.315 . S
Cd43 O42 2.223 . S
Cd43 O46 2.297 . S
Cd43 O47 2.439 . S
Cd43 O53 2.240 . S
Cd44 O45 2.240 . S
Cd44 O52 2.223 . S
Cd44 O54 2.297 . S
Cd44 O55 2.439 . S
O45 Cd44 2.240 . S
O45 C50 1.279 . S
O46 Cd43 2.297 . S
O46 C48 1.247 . S
O47 Cd43 2.439 . S
O47 C48 1.208 . S
C48 O46 1.247 . S
C48 O47 1.208 . S
C49 O54 1.247 . S
C49 O55 1.208 . S
C50 O42 1.315 . S
C50 O45 1.279 . S
C51 O52 1.315 . S
C51 O53 1.279 . S
O52 Cd44 2.223 . S
O52 C51 1.315 . S
O53 Cd43 2.240 . S
O53 C51 1.279 . S
O54 Cd44 2.297 . S
O54 C49 1.247 . S
O55 Cd44 2.439 . S
O55 C49 1.208 . S
O56 Cd57 2.223 . S
O56 C64 1.315 . S
Cd57 O56 2.223 . S
Cd57 O60 2.297 . S
Cd57 O61 2.439 . S
Cd57 O67 2.240 . S
Cd58 O59 2.240 . S
Cd58 O66 2.223 . S
Cd58 O68 2.297 1_554 S
Cd58 O69 2.439 . S
O59 Cd58 2.240 . S
O59 C64 1.279 . S
O60 Cd57 2.297 . S
O60 C62 1.247 . S
O61 Cd57 2.439 . S
O61 C62 1.208 . S
C62 O60 1.247 . S
C62 O61 1.208 . S
C63 O68 1.247 1_554 S
C63 O69 1.208 . S
C64 O56 1.315 . S
C64 O59 1.279 . S
C65 O66 1.315 . S
C65 O67 1.279 . S
O66 Cd58 2.223 . S
O66 C65 1.315 . S
O67 Cd57 2.240 . S
O67 C65 1.279 . S
O68 Cd58 2.297 1_556 S
O68 C63 1.247 1_556 S
O69 Cd58 2.439 . S
O69 C63 1.208 . S
O70 Cd71 2.223 . S
O70 C78 1.315 . S
Cd71 O70 2.223 . S
Cd71 O74 2.297 . S
Cd71 O75 2.439 . S
Cd71 O81 2.240 . S
Cd72 O73 2.240 . S
Cd72 O80 2.223 . S
Cd72 O82 2.297 1_556 S
Cd72 O83 2.439 . S
O73 Cd72 2.240 . S
O73 C78 1.279 . S
O74 Cd71 2.297 . S
O74 C76 1.247 . S
O75 Cd71 2.439 . S
O75 C76 1.208 . S
C76 O74 1.247 . S
C76 O75 1.208 . S
C77 O82 1.247 1_556 S
C77 O83 1.208 . S
C78 O70 1.315 . S
C78 O73 1.279 . S
C79 O80 1.315 . S
C79 O81 1.279 . S
O80 Cd72 2.223 . S
O80 C79 1.315 . S
O81 Cd71 2.240 . S
O81 C79 1.279 . S
O82 Cd72 2.297 1_554 S
O82 C77 1.247 1_554 S
O83 Cd72 2.439 . S
O83 C77 1.208 . S
O84 Cd85 2.223 . S
O84 C92 1.315 . S
Cd85 O84 2.223 . S
Cd85 O88 2.297 . S
Cd85 O89 2.439 . S
Cd85 O95 2.240 . S
Cd86 O87 2.240 . S
Cd86 O94 2.223 . S
Cd86 O96 2.297 1_554 S
Cd86 O97 2.439 . S
O87 Cd86 2.240 . S
O87 C92 1.279 . S
O88 Cd85 2.297 . S
O88 C90 1.247 . S
O89 Cd85 2.439 . S
O89 C90 1.208 . S
C90 O88 1.247 . S
C90 O89 1.208 . S
C91 O96 1.247 1_554 S
C91 O97 1.208 . S
C92 O84 1.315 . S
C92 O87 1.279 . S
C93 O94 1.315 . S
C93 O95 1.279 . S
O94 Cd86 2.223 . S
O94 C93 1.315 . S
O95 Cd85 2.240 . S
O95 C93 1.279 . S
O96 Cd86 2.297 1_556 S
O96 C91 1.247 1_556 S
O97 Cd86 2.439 . S
O97 C91 1.208 . S
O98 Cd99 2.223 . S
O98 C106 1.315 . S
Cd99 O98 2.223 . S
Cd99 O102 2.297 . S
Cd99 O103 2.439 . S
Cd99 O109 2.240 . S
Cd100 O101 2.240 . S
Cd100 O108 2.223 . S
Cd100 O110 2.297 1_556 S
Cd100 O111 2.439 . S
O101 Cd100 2.240 . S
O101 C106 1.279 . S
O102 Cd99 2.297 . S
O102 C104 1.247 . S
O103 Cd99 2.439 . S
O103 C104 1.208 . S
C104 O102 1.247 . S
C104 O103 1.208 . S
C105 O110 1.247 1_556 S
C105 O111 1.208 . S
C106 O98 1.315 . S
C106 O101 1.279 . S
C107 O108 1.315 . S
C107 O109 1.279 . S
O108 Cd100 2.223 . S
O108 C107 1.315 . S
O109 Cd99 2.240 . S
O109 C107 1.279 . S
O110 Cd100 2.297 1_554 S
O110 C105 1.247 1_554 S
O111 Cd100 2.439 . S
O111 C105 1.208 . S
O112 Cd113 2.223 . S
O112 C120 1.315 . S
Cd113 O112 2.223 . S
Cd113 O116 2.297 . S
Cd113 O117 2.439 . S
Cd113 O123 2.240 . S
Cd114 O115 2.240 . S
Cd114 O122 2.223 . S
Cd114 O124 2.297 . S
Cd114 O125 2.439 . S
O115 Cd114 2.240 . S
O115 C120 1.279 . S
O116 Cd113 2.297 . S
O116 C118 1.247 . S
O117 Cd113 2.439 . S
O117 C118 1.208 . S
C118 O116 1.247 . S
C118 O117 1.208 . S
C119 O124 1.247 . S
C119 O125 1.208 . S
C120 O112 1.315 . S
C120 O115 1.279 . S
C121 O122 1.315 . S
C121 O123 1.279 . S
O122 Cd114 2.223 . S
O122 C121 1.315 . S
O123 Cd113 2.240 . S
O123 C121 1.279 . S
O124 Cd114 2.297 . S
O124 C119 1.247 . S
O125 Cd114 2.439 . S
O125 C119 1.208 . S
O126 Cd127 2.223 . S
O126 C134 1.315 . S
Cd127 O126 2.223 . S
Cd127 O130 2.297 . S
Cd127 O131 2.439 . S
Cd127 O137 2.240 . S
Cd128 O129 2.240 . S
Cd128 O136 2.223 . S
Cd128 O138 2.297 . S
Cd128 O139 2.439 . S
O129 Cd128 2.240 . S
O129 C134 1.279 . S
O130 Cd127 2.297 . S
O130 C132 1.247 . S
O131 Cd127 2.439 . S
O131 C132 1.208 . S
C132 O130 1.247 . S
C132 O131 1.208 . S
C133 O138 1.247 . S
C133 O139 1.208 . S
C134 O126 1.315 . S
C134 O129 1.279 . S
C135 O136 1.315 . S
C135 O137 1.279 . S
O136 Cd128 2.223 . S
O136 C135 1.315 . S
O137 Cd127 2.240 . S
O137 C135 1.279 . S
O138 Cd128 2.297 . S
O138 C133 1.247 . S
O139 Cd128 2.439 . S
O139 C133 1.208 . S
O140 Cd141 2.223 . S
O140 C148 1.315 . S
Cd141 O140 2.223 . S
Cd141 O144 2.297 . S
Cd141 O145 2.439 . S
Cd141 O151 2.240 . S
Cd142 O143 2.240 . S
Cd142 O150 2.223 . S
Cd142 O152 2.297 . S
Cd142 O153 2.439 . S
O143 Cd142 2.240 . S
O143 C148 1.279 . S
O144 Cd141 2.297 . S
O144 C146 1.247 . S
O145 Cd141 2.439 . S
O145 C146 1.208 . S
C146 O144 1.247 . S
C146 O145 1.208 . S
C147 O152 1.247 . S
C147 O153 1.208 . S
C148 O140 1.315 . S
C148 O143 1.279 . S
C149 O150 1.315 . S
C149 O151 1.279 . S
O150 Cd142 2.223 . S
O150 C149 1.315 . S
O151 Cd141 2.240 . S
O151 C149 1.279 . S
O152 Cd142 2.297 . S
O152 C147 1.247 . S
O153 Cd142 2.439 . S
O153 C147 1.208 . S
O154 Cd155 2.223 . S
O154 C162 1.315 . S
Cd155 O154 2.223 . S
Cd155 O158 2.297 . S
Cd155 O159 2.439 . S
Cd155 O165 2.240 . S
Cd156 O157 2.240 . S
Cd156 O164 2.223 . S
Cd156 O166 2.297 . S
Cd156 O167 2.439 . S
O157 Cd156 2.240 . S
O157 C162 1.279 . S
O158 Cd155 2.297 . S
O158 C160 1.247 . S
O159 Cd155 2.439 . S
O159 C160 1.208 . S
C160 O158 1.247 . S
C160 O159 1.208 . S
C161 O166 1.247 . S
C161 O167 1.208 . S
C162 O154 1.315 . S
C162 O157 1.279 . S
C163 O164 1.315 . S
C163 O165 1.279 . S
O164 Cd156 2.223 . S
O164 C163 1.315 . S
O165 Cd155 2.240 . S
O165 C163 1.279 . S
O166 Cd156 2.297 . S
O166 C161 1.247 . S
O167 Cd156 2.439 . S
O167 C161 1.208 . S
O168 Cd169 2.223 . S
O168 C176 1.315 . S
Cd169 O168 2.223 . S
Cd169 O172 2.297 . S
Cd169 O173 2.439 . S
Cd169 O179 2.240 . S
Cd170 O171 2.240 . S
Cd170 O178 2.223 . S
Cd170 O180 2.297 . S
Cd170 O181 2.439 . S
O171 Cd170 2.240 . S
O171 C176 1.279 . S
O172 Cd169 2.297 . S
O172 C174 1.247 . S
O173 Cd169 2.439 . S
O173 C174 1.208 . S
C174 O172 1.247 . S
C174 O173 1.208 . S
C175 O180 1.247 . S
C175 O181 1.208 . S
C176 O168 1.315 . S
C176 O171 1.279 . S
C177 O178 1.315 . S
C177 O179 1.279 . S
O178 Cd170 2.223 . S
O178 C177 1.315 . S
O179 Cd169 2.240 . S
O179 C177 1.279 . S
O180 Cd170 2.297 . S
O180 C175 1.247 . S
O181 Cd170 2.439 . S
O181 C175 1.208 . S
O182 Cd183 2.223 . S
O182 C190 1.315 . S
Cd183 O182 2.223 . S
Cd183 O186 2.297 . S
Cd183 O187 2.439 . S
Cd183 O193 2.240 . S
Cd184 O185 2.240 . S
Cd184 O192 2.223 . S
Cd184 O194 2.297 . S
Cd184 O195 2.439 . S
O185 Cd184 2.240 . S
O185 C190 1.279 . S
O186 Cd183 2.297 . S
O186 C188 1.247 . S
O187 Cd183 2.439 . S
O187 C188 1.208 . S
C188 O186 1.247 . S
C188 O187 1.208 . S
C189 O194 1.247 . S
C189 O195 1.208 . S
C190 O182 1.315 . S
C190 O185 1.279 . S
C191 O192 1.315 . S
C191 O193 1.279 . S
O192 Cd184 2.223 . S
O192 C191 1.315 . S
O193 Cd183 2.240 . S
O193 C191 1.279 . S
O194 Cd184 2.297 . S
O194 C189 1.247 . S
O195 Cd184 2.439 . S
O195 C189 1.208 . S
O196 Cd197 2.223 . S
O196 C204 1.315 . S
Cd197 O196 2.223 . S
Cd197 O200 2.297 . S
Cd197 O201 2.439 . S
Cd197 O207 2.240 . S
Cd198 O199 2.240 . S
Cd198 O206 2.223 . S
Cd198 O208 2.297 . S
Cd198 O209 2.439 . S
O199 Cd198 2.240 . S
O199 C204 1.279 . S
O200 Cd197 2.297 . S
O200 C202 1.247 . S
O201 Cd197 2.439 . S
O201 C202 1.208 . S
C202 O200 1.247 . S
C202 O201 1.208 . S
C203 O208 1.247 . S
C203 O209 1.208 . S
C204 O196 1.315 . S
C204 O199 1.279 . S
C205 O206 1.315 . S
C205 O207 1.279 . S
O206 Cd198 2.223 . S
O206 C205 1.315 . S
O207 Cd197 2.240 . S
O207 C205 1.279 . S
O208 Cd198 2.297 . S
O208 C203 1.247 . S
O209 Cd198 2.439 . S
O209 C203 1.208 . S
O210 Cd211 2.223 . S
O210 C218 1.315 . S
Cd211 O210 2.223 . S
Cd211 O214 2.297 . S
Cd211 O215 2.439 . S
Cd211 O221 2.240 . S
Cd212 O213 2.240 . S
Cd212 O220 2.223 . S
Cd212 O222 2.297 . S
Cd212 O223 2.439 . S
O213 Cd212 2.240 . S
O213 C218 1.279 . S
O214 Cd211 2.297 . S
O214 C216 1.247 . S
O215 Cd211 2.439 . S
O215 C216 1.208 . S
C216 O214 1.247 . S
C216 O215 1.208 . S
C217 O222 1.247 . S
C217 O223 1.208 . S
C218 O210 1.315 . S
C218 O213 1.279 . S
C219 O220 1.315 . S
C219 O221 1.279 . S
O220 Cd212 2.223 . S
O220 C219 1.315 . S
O221 Cd211 2.240 . S
O221 C219 1.279 . S
O222 Cd212 2.297 . S
O222 C217 1.247 . S
O223 Cd212 2.439 . S
O223 C217 1.208 . S
H224 C230 0.930 . S
H225 C234 0.930 . S
H226 C239 0.929 . S
H227 C237 0.929 . S
H228 C232 0.929 . S
H229 C238 0.929 . S
C230 H224 0.930 . S
C230 C231 1.367 . S
C230 C238 1.378 . S
C231 C230 1.367 . S
C231 C239 1.433 . S
C232 H228 0.929 . S
C232 C234 1.378 . S
C232 C236 1.350 1_545 S
C233 C236 1.463 . S
C233 C238 1.350 . S
C233 N241 1.427 . S
C234 H225 0.930 . S
C234 C232 1.378 . S
C234 C235 1.367 . S
C235 C234 1.367 . S
C235 C237 1.433 . S
C236 C232 1.350 1_565 S
C236 C233 1.463 . S
C236 N240 1.427 . S
C237 H227 0.929 . S
C237 C235 1.433 . S
C237 N240 1.384 1_545 S
C238 H229 0.929 . S
C238 C230 1.378 . S
C238 C233 1.350 . S
C239 H226 0.929 . S
C239 C231 1.433 . S
C239 N241 1.384 . S
N240 C236 1.427 . S
N240 C237 1.384 1_565 S
N241 C233 1.427 . S
N241 C239 1.384 . S
H242 C248 0.930 . S
H243 C252 0.930 . S
H244 C257 0.929 . S
H245 C255 0.929 . S
H246 C250 0.929 . S
H247 C256 0.929 1_655 S
C248 H242 0.930 . S
C248 C249 1.367 . S
C248 C256 1.378 . S
C249 C248 1.367 . S
C249 C257 1.433 . S
C250 H246 0.929 . S
C250 C252 1.378 . S
C250 C254 1.350 . S
C251 C254 1.463 . S
C251 C256 1.350 1_655 S
C251 N259 1.427 . S
C252 H243 0.930 . S
C252 C250 1.378 . S
C252 C253 1.367 . S
C253 C252 1.367 . S
C253 C255 1.433 . S
C254 C250 1.350 . S
C254 C251 1.463 . S
C254 N258 1.427 . S
C255 H245 0.929 . S
C255 C253 1.433 . S
C255 N258 1.384 . S
C256 H247 0.929 1_455 S
C256 C248 1.378 . S
C256 C251 1.350 1_455 S
C257 H244 0.929 . S
C257 C249 1.433 . S
C257 N259 1.384 1_455 S
N258 C254 1.427 . S
N258 C255 1.384 . S
N259 C251 1.427 . S
N259 C257 1.384 1_655 S
H260 C266 0.930 . S
H261 C270 0.930 . S
H262 C275 0.929 . S
H263 C273 0.929 . S
H264 C268 0.929 . S
H265 C274 0.929 . S
C266 H260 0.930 . S
C266 C267 1.367 . S
C266 C274 1.378 1_565 S
C267 C266 1.367 . S
C267 C275 1.433 . S
C268 H264 0.929 . S
C268 C270 1.378 . S
C268 C272 1.350 . S
C269 C272 1.463 . S
C269 C274 1.350 . S
C269 N277 1.427 . S
C270 H261 0.930 . S
C270 C268 1.378 . S
C270 C271 1.367 . S
C271 C270 1.367 . S
C271 C273 1.433 . S
C272 C268 1.350 . S
C272 C269 1.463 . S
C272 N276 1.427 . S
C273 H263 0.929 . S
C273 C271 1.433 . S
C273 N276 1.384 . S
C274 H265 0.929 . S
C274 C266 1.378 1_545 S
C274 C269 1.350 . S
C275 H262 0.929 . S
C275 C267 1.433 . S
C275 N277 1.384 1_565 S
N276 C272 1.427 . S
N276 C273 1.384 . S
N277 C269 1.427 . S
N277 C275 1.384 1_545 S
H278 C284 0.930 . S
H279 C288 0.930 . S
H280 C293 0.929 . S
H281 C291 0.929 . S
H282 C286 0.929 . S
H283 C292 0.929 . S
C284 H278 0.930 . S
C284 C285 1.367 . S
C284 C292 1.378 . S
C285 C284 1.367 . S
C285 C293 1.433 . S
C286 H282 0.929 . S
C286 C288 1.378 1_455 S
C286 C290 1.350 . S
C287 C290 1.463 . S
C287 C292 1.350 . S
C287 N295 1.427 . S
C288 H279 0.930 . S
C288 C286 1.378 1_655 S
C288 C289 1.367 . S
C289 C288 1.367 . S
C289 C291 1.433 . S
C290 C286 1.350 . S
C290 C287 1.463 . S
C290 N294 1.427 1_455 S
C291 H281 0.929 . S
C291 C289 1.433 . S
C291 N294 1.384 . S
C292 H283 0.929 . S
C292 C284 1.378 . S
C292 C287 1.350 . S
C293 H280 0.929 . S
C293 C285 1.433 . S
C293 N295 1.384 . S
N294 C290 1.427 1_655 S
N294 C291 1.384 . S
N295 C287 1.427 . S
N295 C293 1.384 . S
H296 C302 0.930 . S
H297 C306 0.930 . S
H298 C311 0.929 . S
H299 C309 0.929 1_554 S
H300 C304 0.929 . S
H301 C310 0.929 . S
C302 H296 0.930 . S
C302 C303 1.367 . S
C302 C310 1.378 . S
C303 C302 1.367 . S
C303 C311 1.433 1_554 S
C304 H300 0.929 . S
C304 C306 1.378 . S
C304 C308 1.350 . S
C305 C308 1.463 . S
C305 C310 1.350 1_556 S
C305 N313 1.427 . S
C306 H297 0.930 . S
C306 C304 1.378 . S
C306 C307 1.367 . S
C307 C306 1.367 . S
C307 C309 1.433 . S
C308 C304 1.350 . S
C308 C305 1.463 . S
C308 N312 1.427 1_556 S
C309 H299 0.929 1_556 S
C309 C307 1.433 . S
C309 N312 1.384 1_556 S
C310 H301 0.929 . S
C310 C302 1.378 . S
C310 C305 1.350 1_554 S
C311 H298 0.929 . S
C311 C303 1.433 1_556 S
C311 N313 1.384 . S
N312 C308 1.427 1_554 S
N312 C309 1.384 1_554 S
N313 C305 1.427 . S
N313 C311 1.384 . S
H314 C320 0.930 . S
H315 C324 0.930 . S
H316 C329 0.929 . S
H317 C327 0.929 . S
H318 C322 0.929 . S
H319 C328 0.929 . S
C320 H314 0.930 . S
C320 C321 1.367 1_554 S
C320 C328 1.378 . S
C321 C320 1.367 1_556 S
C321 C329 1.433 . S
C322 H318 0.929 . S
C322 C324 1.378 . S
C322 C326 1.350 . S
C323 C326 1.463 . S
C323 C328 1.350 . S
C323 N331 1.420 1_554 S
C324 H315 0.930 . S
C324 C322 1.378 . S
C324 C325 1.367 . S
C325 C324 1.367 . S
C325 C327 1.433 . S
C326 C322 1.350 . S
C326 C323 1.463 . S
C326 N330 1.427 . S
C327 H317 0.929 . S
C327 C325 1.433 . S
C327 N330 1.384 . S
C328 H319 0.929 . S
C328 C320 1.378 . S
C328 C323 1.350 . S
C329 H316 0.929 . S
C329 C321 1.433 . S
C329 N331 1.389 . S
N330 C326 1.427 . S
N330 C327 1.384 . S
N331 C323 1.420 1_556 S
N331 C329 1.389 . S
H332 C338 0.930 1_554 S
H333 C342 0.930 . S
H334 C347 0.929 . S
H335 C345 0.929 . S
H336 C340 0.929 . S
H337 C346 0.929 . S
C338 H332 0.930 1_556 S
C338 C339 1.367 . S
C338 C346 1.378 1_556 S
C339 C338 1.367 . S
C339 C347 1.433 . S
C340 H336 0.929 . S
C340 C342 1.378 . S
C340 C344 1.350 . S
C341 C344 1.463 . S
C341 C346 1.350 1_556 S
C341 N349 1.427 . S
C342 H333 0.930 . S
C342 C340 1.378 . S
C342 C343 1.367 1_556 S
C343 C342 1.367 1_554 S
C343 C345 1.433 . S
C344 C340 1.350 . S
C344 C341 1.463 . S
C344 N348 1.427 1_556 S
C345 H335 0.929 . S
C345 C343 1.433 . S
C345 N348 1.384 . S
C346 H337 0.929 . S
C346 C338 1.378 1_554 S
C346 C341 1.350 1_554 S
C347 H334 0.929 . S
C347 C339 1.433 . S
C347 N349 1.384 . S
N348 C344 1.427 1_554 S
N348 C345 1.384 . S
N349 C341 1.427 . S
N349 C347 1.384 . S
H350 C356 0.930 . S
H351 C360 0.930 . S
H352 C365 0.929 . S
H353 C363 0.929 . S
H354 C358 0.929 . S
H355 C364 0.929 . S
C356 H350 0.930 . S
C356 C357 1.367 . S
C356 C364 1.378 . S
C357 C356 1.367 . S
C357 C365 1.433 . S
C358 H354 0.929 . S
C358 C360 1.378 . S
C358 C362 1.350 1_556 S
C359 C362 1.463 . S
C359 C364 1.350 . S
C359 N367 1.427 . S
C360 H351 0.930 . S
C360 C358 1.378 . S
C360 C361 1.367 . S
C361 C360 1.367 . S
C361 C363 1.433 1_556 S
C362 C358 1.350 1_554 S
C362 C359 1.463 . S
C362 N366 1.427 . S
C363 H353 0.929 . S
C363 C361 1.433 1_554 S
C363 N366 1.384 . S
C364 H355 0.929 . S
C364 C356 1.378 . S
C364 C359 1.350 . S
C365 H352 0.929 . S
C365 C357 1.433 . S
C365 N367 1.384 . S
N366 C362 1.427 . S
N366 C363 1.384 . S
N367 C359 1.427 . S
N367 C365 1.384 . S
H368 C374 0.930 . S
H369 C378 0.930 . S
H370 C383 0.929 . S
H371 C381 0.929 . S
H372 C376 0.929 . S
H373 C382 0.929 . S
C374 H368 0.930 . S
C374 C375 1.367 . S
C374 C382 1.378 . S
C375 C374 1.367 . S
C375 C383 1.433 . S
C376 H372 0.929 . S
C376 C378 1.378 . S
C376 C380 1.350 . S
C377 C380 1.463 . S
C377 C382 1.350 . S
C377 N385 1.427 . S
C378 H369 0.930 . S
C378 C376 1.378 . S
C378 C379 1.367 . S
C379 C378 1.367 . S
C379 C381 1.433 . S
C380 C376 1.350 . S
C380 C377 1.463 . S
C380 N384 1.427 . S
C381 H371 0.929 . S
C381 C379 1.433 . S
C381 N384 1.384 . S
C382 H373 0.929 . S
C382 C374 1.378 . S
C382 C377 1.350 . S
C383 H370 0.929 . S
C383 C375 1.433 . S
C383 N385 1.384 . S
N384 C380 1.427 . S
N384 C381 1.384 . S
N385 C377 1.427 . S
N385 C383 1.384 . S
H386 C392 0.930 . S
H387 C396 0.930 . S
H388 C401 0.929 . S
H389 C399 0.929 . S
H390 C394 0.929 . S
H391 C400 0.929 . S
C392 H386 0.930 . S
C392 C393 1.367 . S
C392 C400 1.378 . S
C393 C392 1.367 . S
C393 C401 1.433 . S
C394 H390 0.929 . S
C394 C396 1.378 . S
C394 C398 1.350 . S
C395 C398 1.463 . S
C395 C400 1.350 . S
C395 N403 1.427 . S
C396 H387 0.930 . S
C396 C394 1.378 . S
C396 C397 1.367 . S
C397 C396 1.367 . S
C397 C399 1.433 . S
C398 C394 1.350 . S
C398 C395 1.463 . S
C398 N402 1.427 . S
C399 H389 0.929 . S
C399 C397 1.433 . S
C399 N402 1.384 . S
C400 H391 0.929 . S
C400 C392 1.378 . S
C400 C395 1.350 . S
C401 H388 0.929 . S
C401 C393 1.433 . S
C401 N403 1.384 . S
N402 C398 1.427 . S
N402 C399 1.384 . S
N403 C395 1.427 . S
N403 C401 1.384 . S
H404 C410 0.930 . S
H405 C414 0.930 . S
H406 C419 0.929 . S
H407 C417 0.929 . S
H408 C412 0.929 . S
H409 C418 0.929 . S
C410 H404 0.930 . S
C410 C411 1.367 . S
C410 C418 1.378 . S
C411 C410 1.367 . S
C411 C419 1.433 . S
C412 H408 0.929 . S
C412 C414 1.378 . S
C412 C416 1.350 . S
C413 C416 1.463 . S
C413 C418 1.350 . S
C413 N421 1.427 . S
C414 H405 0.930 . S
C414 C412 1.378 . S
C414 C415 1.367 . S
C415 C414 1.367 . S
C415 C417 1.433 . S
C416 C412 1.350 . S
C416 C413 1.463 . S
C416 N420 1.427 . S
C417 H407 0.929 . S
C417 C415 1.433 . S
C417 N420 1.384 . S
C418 H409 0.929 . S
C418 C410 1.378 . S
C418 C413 1.350 . S
C419 H406 0.929 . S
C419 C411 1.433 . S
C419 N421 1.384 . S
N420 C416 1.427 . S
N420 C417 1.384 . S
N421 C413 1.427 . S
N421 C419 1.384 . S
H422 C428 0.930 . S
H423 C432 0.930 . S
H424 C437 0.929 . S
H425 C435 0.929 . S
H426 C430 0.929 . S
H427 C436 0.929 . S
C428 H422 0.930 . S
C428 C429 1.367 . S
C428 C436 1.378 . S
C429 C428 1.367 . S
C429 C437 1.433 . S
C430 H426 0.929 . S
C430 C432 1.378 . S
C430 C434 1.350 . S
C431 C434 1.463 . S
C431 C436 1.350 . S
C431 N439 1.427 . S
C432 H423 0.930 . S
C432 C430 1.378 . S
C432 C433 1.367 . S
C433 C432 1.367 . S
C433 C435 1.433 . S
C434 C430 1.350 . S
C434 C431 1.463 . S
C434 N438 1.427 . S
C435 H425 0.929 . S
C435 C433 1.433 . S
C435 N438 1.384 . S
C436 H427 0.929 . S
C436 C428 1.378 . S
C436 C431 1.350 . S
C437 H424 0.929 . S
C437 C429 1.433 . S
C437 N439 1.384 . S
N438 C434 1.427 . S
N438 C435 1.384 . S
N439 C431 1.427 . S
N439 C437 1.384 . S
H440 C446 0.930 . S
H441 C450 0.930 . S
H442 C455 0.929 . S
H443 C453 0.929 . S
H444 C448 0.929 . S
H445 C454 0.929 . S
C446 H440 0.930 . S
C446 C447 1.367 . S
C446 C454 1.378 . S
C447 C446 1.367 . S
C447 C455 1.433 . S
C448 H444 0.929 . S
C448 C450 1.378 . S
C448 C452 1.350 . S
C449 C452 1.463 . S
C449 C454 1.350 1_545 S
C449 N457 1.427 . S
C450 H441 0.930 . S
C450 C448 1.378 . S
C450 C451 1.367 . S
C451 C450 1.367 . S
C451 C453 1.433 . S
C452 C448 1.350 . S
C452 C449 1.463 . S
C452 N456 1.427 . S
C453 H443 0.929 . S
C453 C451 1.433 . S
C453 N456 1.384 . S
C454 H445 0.929 . S
C454 C446 1.378 . S
C454 C449 1.350 1_565 S
C455 H442 0.929 . S
C455 C447 1.433 . S
C455 N457 1.384 1_565 S
N456 C452 1.427 . S
N456 C453 1.384 . S
N457 C449 1.427 . S
N457 C455 1.384 1_545 S
H458 C464 0.930 . S
H459 C468 0.930 . S
H460 C473 0.929 . S
H461 C471 0.929 . S
H462 C466 0.929 . S
H463 C472 0.929 1_455 S
C464 H458 0.930 . S
C464 C465 1.367 . S
C464 C472 1.378 . S
C465 C464 1.367 . S
C465 C473 1.433 . S
C466 H462 0.929 . S
C466 C468 1.378 . S
C466 C470 1.350 . S
C467 C470 1.463 . S
C467 C472 1.350 1_455 S
C467 N475 1.427 . S
C468 H459 0.930 . S
C468 C466 1.378 . S
C468 C469 1.367 . S
C469 C468 1.367 . S
C469 C471 1.433 . S
C470 C466 1.350 . S
C470 C467 1.463 . S
C470 N474 1.427 . S
C471 H461 0.929 . S
C471 C469 1.433 . S
C471 N474 1.384 . S
C472 H463 0.929 1_655 S
C472 C464 1.378 . S
C472 C467 1.350 1_655 S
C473 H460 0.929 . S
C473 C465 1.433 . S
C473 N475 1.384 1_655 S
N474 C470 1.427 . S
N474 C471 1.384 . S
N475 C467 1.427 . S
N475 C473 1.384 1_455 S
H476 C482 0.930 . S
H477 C486 0.930 . S
H478 C491 0.929 . S
H479 C489 0.929 . S
H480 C484 0.932 . S
H481 C490 0.929 . S
C482 H476 0.930 . S
C482 C483 1.367 . S
C482 C490 1.378 . S
C483 C482 1.367 . S
C483 C491 1.433 . S
C484 H480 0.932 . S
C484 C486 1.378 . S
C484 C488 1.350 1_545 S
C485 C488 1.463 . S
C485 C490 1.350 . S
C485 N493 1.427 . S
C486 H477 0.930 . S
C486 C484 1.378 . S
C486 C487 1.367 . S
C487 C486 1.367 . S
C487 C489 1.433 . S
C488 C484 1.350 1_565 S
C488 C485 1.463 . S
C488 N492 1.427 . S
C489 H479 0.929 . S
C489 C487 1.433 . S
C489 N492 1.384 1_545 S
C490 H481 0.929 . S
C490 C482 1.378 . S
C490 C485 1.350 . S
C491 H478 0.929 . S
C491 C483 1.433 . S
C491 N493 1.384 . S
N492 C488 1.427 . S
N492 C489 1.384 1_565 S
N493 C485 1.427 . S
N493 C491 1.384 . S
H494 C500 0.930 . S
H495 C504 0.930 . S
H496 C509 0.929 . S
H497 C507 0.929 . S
H498 C502 0.928 . S
H499 C508 0.929 . S
C500 H494 0.930 . S
C500 C501 1.367 . S
C500 C508 1.378 . S
C501 C500 1.367 . S
C501 C509 1.433 . S
C502 H498 0.928 . S
C502 C504 1.378 . S
C502 C506 1.350 1_455 S
C503 C506 1.463 . S
C503 C508 1.350 . S
C503 N511 1.427 . S
C504 H495 0.930 . S
C504 C502 1.378 . S
C504 C505 1.367 . S
C505 C504 1.367 . S
C505 C507 1.433 . S
C506 C502 1.350 1_655 S
C506 C503 1.463 . S
C506 N510 1.427 . S
C507 H497 0.929 . S
C507 C505 1.433 . S
C507 N510 1.384 1_455 S
C508 H499 0.929 . S
C508 C500 1.378 . S
C508 C503 1.350 . S
C509 H496 0.929 . S
C509 C501 1.433 . S
C509 N511 1.384 . S
N510 C506 1.427 . S
N510 C507 1.384 1_655 S
N511 C503 1.427 . S
N511 C509 1.384 . S
H512 C518 0.930 . S
H513 C522 0.930 . S
H514 C527 0.929 . S
H515 C525 0.929 . S
H516 C520 0.929 . S
H517 C526 0.929 . S
C518 H512 0.930 . S
C518 C519 1.367 . S
C518 C526 1.378 . S
C519 C518 1.367 . S
C519 C527 1.433 . S
C520 H516 0.929 . S
C520 C522 1.378 . S
C520 C524 1.350 . S
C521 C524 1.463 . S
C521 C526 1.350 . S
C521 N529 1.427 . S
C522 H513 0.930 . S
C522 C520 1.378 . S
C522 C523 1.367 . S
C523 C522 1.367 . S
C523 C525 1.433 . S
C524 C520 1.350 . S
C524 C521 1.463 . S
C524 N528 1.427 . S
C525 H515 0.929 . S
C525 C523 1.433 . S
C525 N528 1.384 . S
C526 H517 0.929 . S
C526 C518 1.378 . S
C526 C521 1.350 . S
C527 H514 0.929 . S
C527 C519 1.433 . S
C527 N529 1.384 . S
N528 C524 1.427 . S
N528 C525 1.384 . S
N529 C521 1.427 . S
N529 C527 1.384 . S
H530 C536 0.930 . S
H531 C540 0.930 . S
H532 C545 0.929 . S
H533 C543 0.929 . S
H534 C538 0.929 . S
H535 C544 0.929 . S
C536 H530 0.930 . S
C536 C537 1.367 . S
C536 C544 1.378 . S
C537 C536 1.367 . S
C537 C545 1.433 . S
C538 H534 0.929 . S
C538 C540 1.378 . S
C538 C542 1.350 . S
C539 C542 1.463 . S
C539 C544 1.350 . S
C539 N547 1.427 . S
C540 H531 0.930 . S
C540 C538 1.378 . S
C540 C541 1.367 . S
C541 C540 1.367 . S
C541 C543 1.433 . S
C542 C538 1.350 . S
C542 C539 1.463 . S
C542 N546 1.427 . S
C543 H533 0.929 . S
C543 C541 1.433 . S
C543 N546 1.384 . S
C544 H535 0.929 . S
C544 C536 1.378 . S
C544 C539 1.350 . S
C545 H532 0.929 . S
C545 C537 1.433 . S
C545 N547 1.384 . S
N546 C542 1.427 . S
N546 C543 1.384 . S
N547 C539 1.427 . S
N547 C545 1.384 . S
H548 C554 0.930 . S
H549 C558 0.930 . S
H550 C563 0.929 . S
H551 C561 0.929 . S
H552 C556 0.929 . S
H553 C562 0.929 . S
C554 H548 0.930 . S
C554 C555 1.367 . S
C554 C562 1.378 . S
C555 C554 1.367 . S
C555 C563 1.433 . S
C556 H552 0.929 . S
C556 C558 1.378 . S
C556 C560 1.350 . S
C557 C560 1.463 . S
C557 C562 1.350 . S
C557 N565 1.427 . S
C558 H549 0.930 . S
C558 C556 1.378 . S
C558 C559 1.367 . S
C559 C558 1.367 . S
C559 C561 1.433 . S
C560 C556 1.350 . S
C560 C557 1.463 . S
C560 N564 1.427 . S
C561 H551 0.929 . S
C561 C559 1.433 . S
C561 N564 1.384 . S
C562 H553 0.929 . S
C562 C554 1.378 . S
C562 C557 1.350 . S
C563 H550 0.929 . S
C563 C555 1.433 . S
C563 N565 1.384 . S
N564 C560 1.427 . S
N564 C561 1.384 . S
N565 C557 1.427 . S
N565 C563 1.384 . S
H566 C572 0.930 . S
H567 C576 0.930 . S
H568 C581 0.929 . S
H569 C579 0.929 . S
H570 C574 0.929 . S
H571 C580 0.929 . S
C572 H566 0.930 . S
C572 C573 1.367 . S
C572 C580 1.378 . S
C573 C572 1.367 . S
C573 C581 1.433 . S
C574 H570 0.929 . S
C574 C576 1.378 . S
C574 C578 1.350 . S
C575 C578 1.463 . S
C575 C580 1.350 . S
C575 N583 1.427 . S
C576 H567 0.930 . S
C576 C574 1.378 . S
C576 C577 1.367 . S
C577 C576 1.367 . S
C577 C579 1.433 . S
C578 C574 1.350 . S
C578 C575 1.463 . S
C578 N582 1.427 . S
C579 H569 0.929 . S
C579 C577 1.433 . S
C579 N582 1.384 . S
C580 H571 0.929 . S
C580 C572 1.378 . S
C580 C575 1.350 . S
C581 H568 0.929 . S
C581 C573 1.433 . S
C581 N583 1.384 . S
N582 C578 1.427 . S
N582 C579 1.384 . S
N583 C575 1.427 . S
N583 C581 1.384 . S
H584 C590 0.930 . S
H585 C594 0.930 . S
H586 C599 0.929 . S
H587 C597 0.929 . S
H588 C592 0.929 . S
H589 C598 0.929 . S
C590 H584 0.930 . S
C590 C591 1.367 . S
C590 C598 1.378 . S
C591 C590 1.367 . S
C591 C599 1.433 . S
C592 H588 0.929 . S
C592 C594 1.378 . S
C592 C596 1.350 . S
C593 C596 1.463 . S
C593 C598 1.350 . S
C593 N601 1.427 . S
C594 H585 0.930 . S
C594 C592 1.378 . S
C594 C595 1.367 . S
C595 C594 1.367 . S
C595 C597 1.433 . S
C596 C592 1.350 . S
C596 C593 1.463 . S
C596 N600 1.427 . S
C597 H587 0.929 . S
C597 C595 1.433 . S
C597 N600 1.384 . S
C598 H589 0.929 . S
C598 C590 1.378 . S
C598 C593 1.350 . S
C599 H586 0.929 . S
C599 C591 1.433 . S
C599 N601 1.384 . S
N600 C596 1.427 . S
N600 C597 1.384 . S
N601 C593 1.427 . S
N601 C599 1.384 . S
H602 C608 0.930 . S
H603 C612 0.930 . S
H604 C617 0.929 . S
H605 C615 0.929 . S
H606 C610 0.929 . S
H607 C616 0.929 . S
C608 H602 0.930 . S
C608 C609 1.367 . S
C608 C616 1.378 . S
C609 C608 1.367 . S
C609 C617 1.433 . S
C610 H606 0.929 . S
C610 C612 1.378 . S
C610 C614 1.350 . S
C611 C614 1.463 . S
C611 C616 1.350 . S
C611 N619 1.427 . S
C612 H603 0.930 . S
C612 C610 1.378 . S
C612 C613 1.367 . S
C613 C612 1.367 . S
C613 C615 1.433 . S
C614 C610 1.350 . S
C614 C611 1.463 . S
C614 N618 1.427 . S
C615 H605 0.929 . S
C615 C613 1.433 . S
C615 N618 1.384 . S
C616 H607 0.929 . S
C616 C608 1.378 . S
C616 C611 1.350 . S
C617 H604 0.929 . S
C617 C609 1.433 . S
C617 N619 1.384 . S
N618 C614 1.427 . S
N618 C615 1.384 . S
N619 C611 1.427 . S
N619 C617 1.384 . S
H620 C626 0.930 . S
H621 C630 0.930 . S
H622 C635 0.929 . S
H623 C633 0.929 . S
H624 C628 0.929 . S
H625 C634 0.929 . S
C626 H620 0.930 . S
C626 C627 1.367 . S
C626 C634 1.378 . S
C627 C626 1.367 . S
C627 C635 1.433 . S
C628 H624 0.929 . S
C628 C630 1.378 . S
C628 C632 1.350 . S
C629 C632 1.463 . S
C629 C634 1.350 . S
C629 N637 1.427 . S
C630 H621 0.930 . S
C630 C628 1.378 . S
C630 C631 1.367 . S
C631 C630 1.367 . S
C631 C633 1.433 . S
C632 C628 1.350 . S
C632 C629 1.463 . S
C632 N636 1.427 . S
C633 H623 0.929 . S
C633 C631 1.433 . S
C633 N636 1.384 . S
C634 H625 0.929 . S
C634 C626 1.378 . S
C634 C629 1.350 . S
C635 H622 0.929 . S
C635 C627 1.433 . S
C635 N637 1.384 . S
N636 C632 1.427 . S
N636 C633 1.384 . S
N637 C629 1.427 . S
N637 C635 1.384 . S
H638 C644 0.930 . S
H639 C648 0.930 . S
H640 C653 0.929 . S
H641 C651 0.929 . S
H642 C646 0.929 . S
H643 C652 0.929 . S
C644 H638 0.930 . S
C644 C645 1.367 . S
C644 C652 1.378 . S
C645 C644 1.367 . S
C645 C653 1.433 . S
C646 H642 0.929 . S
C646 C648 1.378 . S
C646 C650 1.350 . S
C647 C650 1.463 . S
C647 C652 1.350 . S
C647 N655 1.427 . S
C648 H639 0.930 . S
C648 C646 1.378 . S
C648 C649 1.367 . S
C649 C648 1.367 . S
C649 C651 1.433 . S
C650 C646 1.350 . S
C650 C647 1.463 . S
C650 N654 1.427 . S
C651 H641 0.929 . S
C651 C649 1.433 . S
C651 N654 1.384 . S
C652 H643 0.929 . S
C652 C644 1.378 . S
C652 C647 1.350 . S
C653 H640 0.929 . S
C653 C645 1.433 . S
C653 N655 1.384 . S
N654 C650 1.427 . S
N654 C651 1.384 . S
N655 C647 1.427 . S
N655 C653 1.384 . S
H656 C662 0.930 . S
H657 C666 0.930 1_554 S
H658 C671 0.929 . S
H659 C669 0.929 . S
H660 C664 0.929 . S
H661 C670 0.929 . S
C662 H656 0.930 . S
C662 C663 1.367 . S
C662 C670 1.378 . S
C663 C662 1.367 . S
C663 C671 1.433 . S
C664 H660 0.929 . S
C664 C666 1.378 . S
C664 C668 1.350 . S
C665 C668 1.463 . S
C665 C670 1.350 . S
C665 N673 1.427 . S
C666 H657 0.930 1_556 S
C666 C664 1.378 . S
C666 C667 1.367 . S
C667 C666 1.367 . S
C667 C669 1.433 . S
C668 C664 1.350 . S
C668 C665 1.463 . S
C668 N672 1.427 . S
C669 H659 0.929 . S
C669 C667 1.433 . S
C669 N672 1.384 . S
C670 H661 0.929 . S
C670 C662 1.378 . S
C670 C665 1.350 . S
C671 H658 0.929 . S
C671 C663 1.433 . S
C671 N673 1.384 . S
N672 C668 1.427 . S
N672 C669 1.384 . S
N673 C665 1.427 . S
N673 C671 1.384 . S
H674 C680 0.930 . S
H675 C684 0.930 . S
H676 C689 0.929 . S
H677 C687 0.929 1_556 S
H678 C682 0.929 . S
H679 C688 0.929 . S
C680 H674 0.930 . S
C680 C681 1.367 . S
C680 C688 1.378 . S
C681 C680 1.367 . S
C681 C689 1.433 . S
C682 H678 0.929 . S
C682 C684 1.378 . S
C682 C686 1.350 . S
C683 C686 1.463 . S
C683 C688 1.350 . S
C683 N691 1.427 . S
C684 H675 0.930 . S
C684 C682 1.378 . S
C684 C685 1.367 . S
C685 C684 1.367 . S
C685 C687 1.433 . S
C686 C682 1.350 . S
C686 C683 1.463 . S
C686 N690 1.427 . S
C687 H677 0.929 1_554 S
C687 C685 1.433 . S
C687 N690 1.384 . S
C688 H679 0.929 . S
C688 C680 1.378 . S
C688 C683 1.350 . S
C689 H676 0.929 . S
C689 C681 1.433 . S
C689 N691 1.384 . S
N690 C686 1.427 . S
N690 C687 1.384 . S
N691 C683 1.427 . S
N691 C689 1.384 . S
H692 C698 0.930 . S
H693 C702 0.930 . S
H694 C707 0.929 . S
H695 C705 0.929 . S
H696 C700 0.929 . S
H697 C706 0.929 . S
C698 H692 0.930 . S
C698 C699 1.367 . S
C698 C706 1.378 . S
C699 C698 1.367 . S
C699 C707 1.433 . S
C700 H696 0.929 . S
C700 C702 1.378 . S
C700 C704 1.350 . S
C701 C704 1.463 . S
C701 C706 1.350 . S
C701 N709 1.427 . S
C702 H693 0.930 . S
C702 C700 1.378 . S
C702 C703 1.367 . S
C703 C702 1.367 . S
C703 C705 1.433 . S
C704 C700 1.350 . S
C704 C701 1.463 . S
C704 N708 1.427 . S
C705 H695 0.929 . S
C705 C703 1.433 . S
C705 N708 1.384 . S
C706 H697 0.929 . S
C706 C698 1.378 . S
C706 C701 1.350 . S
C707 H694 0.929 . S
C707 C699 1.433 . S
C707 N709 1.384 . S
N708 C704 1.427 . S
N708 C705 1.384 . S
N709 C701 1.427 . S
N709 C707 1.384 . S
H710 C716 0.930 . S
H711 C720 0.930 . S
H712 C725 0.929 . S
H713 C723 0.929 1_556 S
H714 C718 0.929 . S
H715 C724 0.929 . S
C716 H710 0.930 . S
C716 C717 1.367 . S
C716 C724 1.378 . S
C717 C716 1.367 . S
C717 C725 1.433 . S
C718 H714 0.929 . S
C718 C720 1.378 . S
C718 C722 1.350 . S
C719 C722 1.463 . S
C719 C724 1.350 . S
C719 N727 1.427 . S
C720 H711 0.930 . S
C720 C718 1.378 . S
C720 C721 1.367 . S
C721 C720 1.367 . S
C721 C723 1.433 . S
C722 C718 1.350 . S
C722 C719 1.463 . S
C722 N726 1.427 . S
C723 H713 0.929 1_554 S
C723 C721 1.433 . S
C723 N726 1.384 . S
C724 H715 0.929 . S
C724 C716 1.378 . S
C724 C719 1.350 . S
C725 H712 0.929 . S
C725 C717 1.433 . S
C725 N727 1.384 . S
N726 C722 1.427 . S
N726 C723 1.384 . S
N727 C719 1.427 . S
N727 C725 1.384 . S
H728 C734 0.930 . S
H729 C738 0.930 . S
H730 C743 0.929 . S
H731 C741 0.929 . S
H732 C736 0.929 . S
H733 C742 0.929 . S
C734 H728 0.930 . S
C734 C735 1.367 . S
C734 C742 1.378 . S
C735 C734 1.367 . S
C735 C743 1.433 . S
C736 H732 0.929 . S
C736 C738 1.378 . S
C736 C740 1.350 . S
C737 C740 1.463 . S
C737 C742 1.350 . S
C737 N745 1.427 . S
C738 H729 0.930 . S
C738 C736 1.378 . S
C738 C739 1.367 . S
C739 C738 1.367 . S
C739 C741 1.433 . S
C740 C736 1.350 . S
C740 C737 1.463 . S
C740 N744 1.427 . S
C741 H731 0.929 . S
C741 C739 1.433 . S
C741 N744 1.384 . S
C742 H733 0.929 . S
C742 C734 1.378 . S
C742 C737 1.350 . S
C743 H730 0.929 . S
C743 C735 1.433 . S
C743 N745 1.384 . S
N744 C740 1.427 . S
N744 C741 1.384 . S
N745 C737 1.427 . S
N745 C743 1.384 . S
H746 C752 0.930 . S
H747 C756 0.930 . S
H748 C761 0.929 . S
H749 C759 0.929 . S
H750 C754 0.929 . S
H751 C760 0.929 . S
C752 H746 0.930 . S
C752 C753 1.367 . S
C752 C760 1.378 . S
C753 C752 1.367 . S
C753 C761 1.433 . S
C754 H750 0.929 . S
C754 C756 1.378 . S
C754 C758 1.350 . S
C755 C758 1.463 . S
C755 C760 1.350 . S
C755 N763 1.427 . S
C756 H747 0.930 . S
C756 C754 1.378 . S
C756 C757 1.367 . S
C757 C756 1.367 . S
C757 C759 1.433 . S
C758 C754 1.350 . S
C758 C755 1.463 . S
C758 N762 1.427 . S
C759 H749 0.929 . S
C759 C757 1.433 . S
C759 N762 1.384 . S
C760 H751 0.929 . S
C760 C752 1.378 . S
C760 C755 1.350 . S
C761 H748 0.929 . S
C761 C753 1.433 . S
C761 N763 1.384 . S
N762 C758 1.427 . S
N762 C759 1.384 . S
N763 C755 1.427 . S
N763 C761 1.384 . S
H764 C770 0.930 . S
H765 C774 0.930 . S
H766 C779 0.929 . S
H767 C777 0.929 . S
H768 C772 0.929 . S
H769 C778 0.929 . S
C770 H764 0.930 . S
C770 C771 1.367 . S
C770 C778 1.378 . S
C771 C770 1.367 . S
C771 C779 1.433 . S
C772 H768 0.929 . S
C772 C774 1.378 . S
C772 C776 1.350 . S
C773 C776 1.463 . S
C773 C778 1.350 . S
C773 N781 1.427 . S
C774 H765 0.930 . S
C774 C772 1.378 . S
C774 C775 1.367 . S
C775 C774 1.367 . S
C775 C777 1.433 . S
C776 C772 1.350 . S
C776 C773 1.463 . S
C776 N780 1.427 . S
C777 H767 0.929 . S
C777 C775 1.433 . S
C777 N780 1.384 . S
C778 H769 0.929 . S
C778 C770 1.378 . S
C778 C773 1.350 . S
C779 H766 0.929 . S
C779 C771 1.433 . S
C779 N781 1.384 . S
N780 C776 1.427 . S
N780 C777 1.384 . S
N781 C773 1.427 . S
N781 C779 1.384 . S
H782 C788 0.930 . S
H783 C792 0.930 . S
H784 C797 0.929 . S
H785 C795 0.929 . S
H786 C790 0.929 . S
H787 C796 0.929 . S
C788 H782 0.930 . S
C788 C789 1.367 . S
C788 C796 1.378 . S
C789 C788 1.367 . S
C789 C797 1.433 . S
C790 H786 0.929 . S
C790 C792 1.378 . S
C790 C794 1.350 . S
C791 C794 1.463 . S
C791 C796 1.350 . S
C791 N799 1.427 . S
C792 H783 0.930 . S
C792 C790 1.378 . S
C792 C793 1.367 . S
C793 C792 1.367 . S
C793 C795 1.433 . S
C794 C790 1.350 . S
C794 C791 1.463 . S
C794 N798 1.427 . S
C795 H785 0.929 . S
C795 C793 1.433 . S
C795 N798 1.384 . S
C796 H787 0.929 . S
C796 C788 1.378 . S
C796 C791 1.350 . S
C797 H784 0.929 . S
C797 C789 1.433 . S
C797 N799 1.384 . S
N798 C794 1.427 . S
N798 C795 1.384 . S
N799 C791 1.427 . S
N799 C797 1.384 . S
C231 C163 1.409 . S
C235 C7 1.412 . S
C249 C21 1.413 . S
C253 C121 1.412 . S
C267 C35 1.416 . S
C271 C135 1.415 . S
C285 C149 1.415 . S
C289 C49 1.421 . S
C303 C63 1.420 . S
C307 C79 1.416 . S
C321 C77 1.412 . S
C325 C93 1.410 . S
C339 C107 1.406 . S
C343 C91 1.414 . S
C357 C65 1.414 . S
C361 C105 1.422 . S
C375 C51 1.406 . S
C379 C119 1.414 . S
C393 C133 1.416 . S
C397 C9 1.406 . S
C411 C23 1.415 . S
C415 C147 1.421 . S
C429 C161 1.416 . S
C433 C37 1.415 . S
C447 C175 1.413 . S
C451 C191 1.407 . S
C465 C189 1.417 . S
C469 C205 1.406 . S
C483 C219 1.406 . S
C487 C203 1.415 . S
C501 C177 1.410 . S
C505 C217 1.412 . S
C519 C64 1.272 . S
C523 C8 1.276 . S
C537 C22 1.262 . S
C541 C78 1.255 . S
C555 C36 1.252 . S
C559 C92 1.256 . S
C573 C106 1.274 . S
C577 C50 1.268 . S
C591 C120 1.275 . S
C595 C176 1.277 . S
C609 C190 1.267 . S
C613 C134 1.259 . S
C627 C148 1.263 . S
C631 C204 1.256 . S
C645 C218 1.267 . S
C649 C162 1.259 . S
C663 C202 1.367 . S
C667 C6 1.362 1_556 S
C681 C216 1.357 . S
C685 C20 1.360 1_554 S
C699 C34 1.366 1_556 S
C703 C174 1.360 . S
C717 C188 1.357 . S
C721 C48 1.361 1_554 S
C735 C146 1.358 . S
C739 C62 1.365 . S
C753 C160 1.357 . S
C757 C76 1.361 . S
C771 C90 1.357 . S
C775 C118 1.362 . S
C789 C132 1.366 . S
C793 C104 1.365 . S
