# Generated by pormake.
# Topology ukp, (4)-cn, num edge types: 1
# Building blocks:
#     Node 0, Type 0, BuildingBlock: QUQFOY_clean_sbu_3, # of connection points: 4
#     Node 1, Type 0, BuildingBlock: QUQFOY_clean_sbu_3, # of connection points: 4
#     Node 2, Type 0, BuildingBlock: QUQFOY_clean_sbu_3, # of connection points: 4
#     Node 3, Type 0, BuildingBlock: QUQFOY_clean_sbu_3, # of connection points: 4
#     Node 4, Type 0, BuildingBlock: QUQFOY_clean_sbu_3, # of connection points: 4
#     Node 5, Type 0, BuildingBlock: QUQFOY_clean_sbu_3, # of connection points: 4
#     Node 6, Type 0, BuildingBlock: QUQFOY_clean_sbu_3, # of connection points: 4
#     Node 7, Type 0, BuildingBlock: QUQFOY_clean_sbu_3, # of connection points: 4
#     Node 8, Type 0, BuildingBlock: QUQFOY_clean_sbu_3, # of connection points: 4
#     Node 9, Type 0, BuildingBlock: QUQFOY_clean_sbu_3, # of connection points: 4
#     Node 10, Type 0, BuildingBlock: QUQFOY_clean_sbu_3, # of connection points: 4
#     Node 11, Type 0, BuildingBlock: QUQFOY_clean_sbu_3, # of connection points: 4
#     Node 12, Type 0, BuildingBlock: QUQFOY_clean_sbu_3, # of connection points: 4
#     Node 13, Type 0, BuildingBlock: QUQFOY_clean_sbu_3, # of connection points: 4
#     Node 14, Type 0, BuildingBlock: QUQFOY_clean_sbu_3, # of connection points: 4
#     Node 15, Type 0, BuildingBlock: QUQFOY_clean_sbu_3, # of connection points: 4
#     Node 16, Type 0, BuildingBlock: QUQFOY_clean_sbu_3, # of connection points: 4
#     Node 17, Type 0, BuildingBlock: QUQFOY_clean_sbu_3, # of connection points: 4
#     Node 18, Type 0, BuildingBlock: QUQFOY_clean_sbu_3, # of connection points: 4
#     Node 19, Type 0, BuildingBlock: QUQFOY_clean_sbu_3, # of connection points: 4
#     Node 20, Type 0, BuildingBlock: QUQFOY_clean_sbu_3, # of connection points: 4
#     Node 21, Type 0, BuildingBlock: QUQFOY_clean_sbu_3, # of connection points: 4
#     Node 22, Type 0, BuildingBlock: QUQFOY_clean_sbu_3, # of connection points: 4
#     Node 23, Type 0, BuildingBlock: QUQFOY_clean_sbu_3, # of connection points: 4
#     Node 24, Type 0, BuildingBlock: QUQFOY_clean_sbu_3, # of connection points: 4
#     Node 25, Type 0, BuildingBlock: QUQFOY_clean_sbu_3, # of connection points: 4
#     Node 26, Type 0, BuildingBlock: QUQFOY_clean_sbu_3, # of connection points: 4
#     Node 27, Type 0, BuildingBlock: QUQFOY_clean_sbu_3, # of connection points: 4
#     Node 28, Type 0, BuildingBlock: QUQFOY_clean_sbu_3, # of connection points: 4
#     Node 29, Type 0, BuildingBlock: QUQFOY_clean_sbu_3, # of connection points: 4
#     Node 30, Type 0, BuildingBlock: QUQFOY_clean_sbu_3, # of connection points: 4
#     Node 31, Type 0, BuildingBlock: QUQFOY_clean_sbu_3, # of connection points: 4
#     Node 32, Type 0, BuildingBlock: QUQFOY_clean_sbu_3, # of connection points: 4
#     Node 33, Type 0, BuildingBlock: QUQFOY_clean_sbu_3, # of connection points: 4
#     Node 34, Type 0, BuildingBlock: QUQFOY_clean_sbu_3, # of connection points: 4
#     Node 35, Type 0, BuildingBlock: QUQFOY_clean_sbu_3, # of connection points: 4
#     Node 36, Type 0, BuildingBlock: QUQFOY_clean_sbu_3, # of connection points: 4
#     Node 37, Type 0, BuildingBlock: QUQFOY_clean_sbu_3, # of connection points: 4
#     Node 38, Type 0, BuildingBlock: QUQFOY_clean_sbu_3, # of connection points: 4
#     Node 39, Type 0, BuildingBlock: QUQFOY_clean_sbu_3, # of connection points: 4
#     Node 40, Type 0, BuildingBlock: QUQFOY_clean_sbu_3, # of connection points: 4
#     Node 41, Type 0, BuildingBlock: QUQFOY_clean_sbu_3, # of connection points: 4
#     Node 42, Type 0, BuildingBlock: QUQFOY_clean_sbu_3, # of connection points: 4
#     Node 43, Type 0, BuildingBlock: QUQFOY_clean_sbu_3, # of connection points: 4
#     Node 44, Type 0, BuildingBlock: QUQFOY_clean_sbu_3, # of connection points: 4
#     Node 45, Type 0, BuildingBlock: QUQFOY_clean_sbu_3, # of connection points: 4
#     Node 46, Type 0, BuildingBlock: QUQFOY_clean_sbu_3, # of connection points: 4
#     Node 47, Type 0, BuildingBlock: QUQFOY_clean_sbu_3, # of connection points: 4
#     Edge 48, Type (0, 0), None
#     Edge 49, Type (0, 0), None
#     Edge 50, Type (0, 0), None
#     Edge 51, Type (0, 0), None
#     Edge 52, Type (0, 0), None
#     Edge 53, Type (0, 0), None
#     Edge 54, Type (0, 0), None
#     Edge 55, Type (0, 0), None
#     Edge 56, Type (0, 0), None
#     Edge 57, Type (0, 0), None
#     Edge 58, Type (0, 0), None
#     Edge 59, Type (0, 0), None
#     Edge 60, Type (0, 0), None
#     Edge 61, Type (0, 0), None
#     Edge 62, Type (0, 0), None
#     Edge 63, Type (0, 0), None
#     Edge 64, Type (0, 0), None
#     Edge 65, Type (0, 0), None
#     Edge 66, Type (0, 0), None
#     Edge 67, Type (0, 0), None
#     Edge 68, Type (0, 0), None
#     Edge 69, Type (0, 0), None
#     Edge 70, Type (0, 0), None
#     Edge 71, Type (0, 0), None
#     Edge 72, Type (0, 0), None
#     Edge 73, Type (0, 0), None
#     Edge 74, Type (0, 0), None
#     Edge 75, Type (0, 0), None
#     Edge 76, Type (0, 0), None
#     Edge 77, Type (0, 0), None
#     Edge 78, Type (0, 0), None
#     Edge 79, Type (0, 0), None
#     Edge 80, Type (0, 0), None
#     Edge 81, Type (0, 0), None
#     Edge 82, Type (0, 0), None
#     Edge 83, Type (0, 0), None
#     Edge 84, Type (0, 0), None
#     Edge 85, Type (0, 0), None
#     Edge 86, Type (0, 0), None
#     Edge 87, Type (0, 0), None
#     Edge 88, Type (0, 0), None
#     Edge 89, Type (0, 0), None
#     Edge 90, Type (0, 0), None
#     Edge 91, Type (0, 0), None
#     Edge 92, Type (0, 0), None
#     Edge 93, Type (0, 0), None
#     Edge 94, Type (0, 0), None
#     Edge 95, Type (0, 0), None
#     Edge 96, Type (0, 0), None
#     Edge 97, Type (0, 0), None
#     Edge 98, Type (0, 0), None
#     Edge 99, Type (0, 0), None
#     Edge 100, Type (0, 0), None
#     Edge 101, Type (0, 0), None
#     Edge 102, Type (0, 0), None
#     Edge 103, Type (0, 0), None
#     Edge 104, Type (0, 0), None
#     Edge 105, Type (0, 0), None
#     Edge 106, Type (0, 0), None
#     Edge 107, Type (0, 0), None
#     Edge 108, Type (0, 0), None
#     Edge 109, Type (0, 0), None
#     Edge 110, Type (0, 0), None
#     Edge 111, Type (0, 0), None
#     Edge 112, Type (0, 0), None
#     Edge 113, Type (0, 0), None
#     Edge 114, Type (0, 0), None
#     Edge 115, Type (0, 0), None
#     Edge 116, Type (0, 0), None
#     Edge 117, Type (0, 0), None
#     Edge 118, Type (0, 0), None
#     Edge 119, Type (0, 0), None
#     Edge 120, Type (0, 0), None
#     Edge 121, Type (0, 0), None
#     Edge 122, Type (0, 0), None
#     Edge 123, Type (0, 0), None
#     Edge 124, Type (0, 0), None
#     Edge 125, Type (0, 0), None
#     Edge 126, Type (0, 0), None
#     Edge 127, Type (0, 0), None
#     Edge 128, Type (0, 0), None
#     Edge 129, Type (0, 0), None
#     Edge 130, Type (0, 0), None
#     Edge 131, Type (0, 0), None
#     Edge 132, Type (0, 0), None
#     Edge 133, Type (0, 0), None
#     Edge 134, Type (0, 0), None
#     Edge 135, Type (0, 0), None
#     Edge 136, Type (0, 0), None
#     Edge 137, Type (0, 0), None
#     Edge 138, Type (0, 0), None
#     Edge 139, Type (0, 0), None
#     Edge 140, Type (0, 0), None
#     Edge 141, Type (0, 0), None
#     Edge 142, Type (0, 0), None
#     Edge 143, Type (0, 0), None
# Relax obj value: 0.198
# Max RMSD: 0.308
# Mean RMSD: 0.308
data_MOF--net-ukp--node1-QUQFOY_clean_sbu_3--edge1-none
_symmetry_space_group_name_H-M    P1
_symmetry_Int_Tables_number       1
_symmetry_cell_setting            triclinic
loop_
_symmetry_equiv_pos_as_xyz
'x, y, z'
_cell_length_a     30.957853
_cell_length_b     30.957729
_cell_length_c     30.956741
_cell_angle_alpha  89.998624
_cell_angle_beta   89.999854
_cell_angle_gamma 90.002855
loop_
_atom_site_label
_atom_site_type_symbol
_atom_site_fract_x
_atom_site_fract_y
_atom_site_fract_z
_atom_type_partial_charge
C0 C 0.23241 0.20504 0.32588 0.0
O1 O 0.23725 0.23199 0.3567 0.0
Cd2 Cd 0.19528 0.29522 0.37818 0.0
O3 O 0.19613 0.19983 0.3075 0.0
Cd4 Cd 0.12572 0.22794 0.3277 0.0
C5 C 0.18634 0.30659 0.27129 0.0
O6 O 0.12146 0.28662 0.37303 0.0
O7 O 0.07677 0.28769 0.31831 0.0
O8 O 0.12346 0.18228 0.39102 0.0
C9 C 0.09734 0.30832 0.34752 0.0
O10 O 0.19827 0.32315 0.30703 0.0
C11 C 0.09225 0.15861 0.37814 0.0
O12 O 0.1643 0.27132 0.26944 0.0
O13 O 0.07624 0.16656 0.34073 0.0
C14 C -0.04098 -0.0177 0.57582 0.0
O15 O 0.93209 -0.01288 0.60665 0.0
Cd16 Cd 0.86885 0.94516 0.62814 0.0
O17 O -0.03578 0.94603 0.55741 0.0
Cd18 Cd 0.93608 0.87563 0.57762 0.0
C19 C 0.85742 0.93633 0.52127 0.0
O20 O 0.87739 0.87133 0.62291 0.0
O21 O 0.87633 0.82667 0.56817 0.0
O22 O -0.01834 0.87339 0.64099 0.0
C23 C 0.85569 0.84723 0.59739 0.0
O24 O 0.84086 0.94823 0.55703 0.0
C25 C 0.00538 0.84221 0.62813 0.0
O26 O 0.89268 0.91428 0.51941 0.0
O27 O -0.00251 0.82621 0.5907 0.0
C28 C 0.18164 0.70902 0.82588 0.0
O29 O 0.1768 0.68207 0.8567 0.0
Cd30 Cd 0.21876 0.61884 0.87817 0.0
O31 O 0.21791 0.71423 0.8075 0.0
Cd32 Cd 0.28832 0.68613 0.8277 0.0
C33 C 0.2277 0.60747 0.77128 0.0
O34 O 0.29258 0.62744 0.87302 0.0
O35 O 0.33728 0.62638 0.8183 0.0
O36 O 0.29058 0.73177 0.89102 0.0
C37 C 0.31671 0.60574 0.84751 0.0
O38 O 0.21577 0.59091 0.80703 0.0
C39 C 0.32178 0.75546 0.87815 0.0
O40 O 0.24974 0.64274 0.76944 0.0
O41 O 0.33779 0.74751 0.84073 0.0
C42 C 0.45502 0.93176 0.07582 0.0
O43 O 0.48195 0.92693 0.10666 0.0
Cd44 Cd 0.54518 -0.03111 0.12818 0.0
O45 O 0.44982 -0.03197 0.05742 0.0
Cd46 Cd 0.47796 0.03842 0.07764 0.0
C47 C 0.55664 -0.02229 0.02132 0.0
O48 O 0.53666 0.04272 0.12293 0.0
O49 O 0.53771 0.08738 0.06817 0.0
O50 O 0.4324 0.04066 0.14102 0.0
C51 C 0.55836 0.06682 0.09739 0.0
O52 O 0.57319 -0.03419 0.05708 0.0
C53 C 0.40867 0.07183 0.12816 0.0
O54 O 0.52137 -0.00025 0.01945 0.0
O55 O 0.41656 0.08783 0.09073 0.0
C56 C 0.23236 0.709 0.08823 0.0
O57 O 0.2372 0.68206 0.05741 0.0
Cd58 Cd 0.19524 0.61883 0.03591 0.0
O59 O 0.19609 0.71421 0.10661 0.0
Cd60 Cd 0.12569 0.68608 0.0864 0.0
C61 C 0.18635 0.60742 0.14278 0.0
O62 O 0.12141 0.62738 0.0411 0.0
O63 O 0.07673 0.62632 0.09584 0.0
O64 O 0.12343 0.73168 0.02306 0.0
C65 C 0.0973 0.60568 0.06662 0.0
O66 O 0.19827 0.59086 0.10703 0.0
C67 C 0.09225 0.75539 0.03592 0.0
O68 O 0.1643 0.64268 0.14464 0.0
O69 O 0.07624 0.74746 0.07335 0.0
C70 C 0.45505 -0.01756 0.3382 0.0
O71 O 0.482 -0.01272 0.30738 0.0
Cd72 Cd 0.54522 0.94531 0.28588 0.0
O73 O 0.44983 0.94616 0.35657 0.0
Cd74 Cd 0.47794 0.87575 0.33637 0.0
C75 C 0.55661 0.93637 0.39277 0.0
O76 O 0.53662 0.87149 0.29104 0.0
O77 O 0.53768 0.82679 0.34576 0.0
O78 O 0.43229 0.87349 0.27305 0.0
C79 C 0.55832 0.84736 0.31655 0.0
O80 O 0.57316 0.9483 0.35702 0.0
C81 C 0.40861 0.84229 0.28592 0.0
O82 O 0.52134 0.91432 0.39462 0.0
O83 O 0.41656 0.82628 0.32334 0.0
C84 C 0.18179 0.20502 0.58829 0.0
O85 O 0.17697 0.23195 0.55745 0.0
Cd86 Cd 0.21893 0.29519 0.53594 0.0
O87 O 0.21805 0.19982 0.6067 0.0
Cd88 Cd 0.28844 0.22797 0.58649 0.0
C89 C 0.22772 0.30664 0.6428 0.0
O90 O 0.29276 0.28667 0.54121 0.0
O91 O 0.3374 0.28772 0.59597 0.0
O92 O 0.29069 0.18242 0.52309 0.0
C93 C 0.31685 0.30837 0.56674 0.0
O94 O 0.21583 0.3232 0.60704 0.0
C95 C 0.32185 0.15868 0.53595 0.0
O96 O 0.24976 0.27138 0.64467 0.0
O97 O 0.33785 0.16655 0.57339 0.0
C98 C -0.04101 0.93162 0.8382 0.0
O99 O 0.93205 0.92678 0.80738 0.0
Cd100 Cd 0.86882 -0.03125 0.7859 0.0
O101 O -0.03579 -0.0321 0.85657 0.0
Cd102 Cd 0.93611 0.03831 0.83637 0.0
C103 C 0.85746 -0.0223 0.89279 0.0
O104 O 0.87743 0.04257 0.79105 0.0
O105 O 0.87636 0.08727 0.84576 0.0
O106 O -0.01823 0.04057 0.77306 0.0
C107 C 0.85573 0.0667 0.81655 0.0
O108 O 0.8409 -0.03423 0.85705 0.0
C109 C 0.00545 0.07178 0.78593 0.0
O110 O 0.89273 -0.00026 0.89464 0.0
O111 O -0.00251 0.08779 0.82335 0.0
C112 C 0.32584 0.23233 0.20505 0.0
O113 O 0.35666 0.23718 0.23198 0.0
Cd114 Cd 0.37824 0.19521 0.29519 0.0
O115 O 0.30746 0.19605 0.19983 0.0
Cd116 Cd 0.32769 0.12567 0.22798 0.0
C117 C 0.27141 0.18637 0.30669 0.0
O118 O 0.37298 0.12137 0.28668 0.0
O119 O 0.31823 0.07672 0.28773 0.0
O120 O 0.39105 0.12341 0.18239 0.0
C121 C 0.34744 0.09728 0.30837 0.0
O122 O 0.30717 0.19828 0.32324 0.0
C123 C 0.37818 0.09224 0.15867 0.0
O124 O 0.26953 0.16434 0.27142 0.0
O125 O 0.34074 0.07625 0.16657 0.0
C126 C 0.93164 0.07587 0.45507 0.0
O127 O 0.9268 0.10668 0.48203 0.0
Cd128 Cd -0.03123 0.12818 0.54525 0.0
O129 O -0.03208 0.0575 0.44985 0.0
Cd130 Cd 0.03832 0.07769 0.47797 0.0
C131 C -0.02231 0.02131 0.55664 0.0
O132 O 0.0426 0.12301 0.53666 0.0
O133 O 0.08728 0.06828 0.53772 0.0
O134 O 0.0406 0.14101 0.43232 0.0
C135 C 0.06672 0.09749 0.55836 0.0
O136 O -0.03423 0.05706 0.5732 0.0
C137 C 0.0718 0.12812 0.40864 0.0
O138 O -0.00028 0.01946 0.52137 0.0
O139 O 0.0878 0.0907 0.41659 0.0
C140 C 0.08818 0.68168 0.70506 0.0
O141 O 0.05736 0.67684 0.732 0.0
Cd142 Cd 0.03579 0.71882 0.79521 0.0
O143 O 0.10656 0.71797 0.69984 0.0
Cd144 Cd 0.08633 0.78836 0.72797 0.0
C145 C 0.14263 0.72768 0.80669 0.0
O146 O 0.04104 0.79265 0.78666 0.0
O147 O 0.09579 0.83732 0.7877 0.0
O148 O 0.02298 0.79062 0.68237 0.0
C149 C 0.06658 0.81676 0.80835 0.0
O150 O 0.10688 0.71577 0.82324 0.0
C151 C 0.03587 0.8218 0.65865 0.0
O152 O 0.14451 0.74971 0.77141 0.0
O153 O 0.0733 0.83778 0.66655 0.0
C154 C 0.48237 0.83821 0.95506 0.0
O155 O 0.4872 0.80739 -0.01799 0.0
Cd156 Cd 0.44523 0.78588 0.04524 0.0
O157 O 0.44609 0.85659 0.94984 0.0
Cd158 Cd 0.37569 0.83639 -0.02203 0.0
C159 C 0.43635 0.89275 0.05665 0.0
O160 O 0.3714 0.79109 0.03667 0.0
O161 O 0.32673 0.84582 0.03772 0.0
O162 O 0.37341 0.77306 0.93234 0.0
C163 C 0.34729 0.81661 0.05836 0.0
O164 O 0.44826 0.857 0.07321 0.0
C165 C 0.34222 0.78594 0.90865 0.0
O166 O 0.41431 0.89461 0.02137 0.0
O167 O 0.32623 0.82337 0.91658 0.0
C168 C 0.32583 0.6817 0.20905 0.0
O169 O 0.35666 0.67687 0.18211 0.0
Cd170 Cd 0.37821 0.71883 0.11889 0.0
O171 O 0.30745 0.71798 0.21426 0.0
Cd172 Cd 0.32767 0.78837 0.18612 0.0
C173 C 0.27137 0.72768 0.10742 0.0
O174 O 0.37297 0.79266 0.12742 0.0
O175 O 0.31822 0.83732 0.12637 0.0
O176 O 0.391 0.79064 0.23174 0.0
C177 C 0.34743 0.81676 0.10573 0.0
O178 O 0.30712 0.71577 0.09087 0.0
C179 C 0.37812 0.82184 0.25543 0.0
O180 O 0.26949 0.74971 0.14269 0.0
O181 O 0.3407 0.83783 0.2475 0.0
C182 C 0.48234 0.07584 0.45905 0.0
O183 O 0.48718 0.10667 0.43211 0.0
Cd184 Cd 0.44521 0.12827 0.36891 0.0
O185 O 0.44606 0.05746 0.46426 0.0
Cd186 Cd 0.37568 0.0777 0.43613 0.0
C187 C 0.43638 0.02144 0.3574 0.0
O188 O 0.37137 0.12299 0.37743 0.0
O189 O 0.32672 0.06823 0.37639 0.0
O190 O 0.37342 0.14107 0.4817 0.0
C191 C 0.34728 0.09744 0.35574 0.0
O192 O 0.44828 0.0572 0.34085 0.0
C193 C 0.34226 0.12819 0.50544 0.0
O194 O 0.41435 0.01955 0.39267 0.0
O195 O 0.32627 0.09075 0.49755 0.0
C196 C 0.08819 0.23241 0.70902 0.0
O197 O 0.05737 0.23726 0.68206 0.0
Cd198 Cd 0.03589 0.19529 0.61883 0.0
O199 O 0.10655 0.19613 0.71424 0.0
Cd200 Cd 0.08636 0.12573 0.68612 0.0
C201 C 0.14277 0.18636 0.60746 0.0
O202 O 0.04106 0.12146 0.62742 0.0
O203 O 0.09578 0.07677 0.62636 0.0
O204 O 0.02305 0.12344 0.73177 0.0
C205 C 0.06658 0.09735 0.60572 0.0
O206 O 0.10702 0.19829 0.5909 0.0
C207 C 0.03593 0.09224 0.75544 0.0
O208 O 0.14462 0.16432 0.64273 0.0
O209 O 0.07335 0.07624 0.74749 0.0
C210 C 0.9317 0.8382 -0.04095 0.0
O211 O 0.92686 0.80737 0.93212 0.0
Cd212 Cd -0.03118 0.78579 0.86891 0.0
O213 O -0.03202 0.85658 -0.03574 0.0
Cd214 Cd 0.03836 0.83634 0.93611 0.0
C215 C -0.02234 0.89262 0.85739 0.0
O216 O 0.04265 0.79105 0.87742 0.0
O217 O 0.08731 0.84581 0.87636 0.0
O218 O 0.04063 0.773 -0.01828 0.0
C219 C 0.06674 0.8166 0.85572 0.0
O220 O -0.03425 0.85686 0.84085 0.0
C221 C 0.07182 0.78587 0.00542 0.0
O222 O -0.0003 0.8945 0.89266 0.0
O223 O 0.08781 0.82331 -0.0025 0.0
C224 C 0.20498 0.32578 0.23226 0.0
O225 O 0.23191 0.35662 0.23709 0.0
Cd226 Cd 0.29514 0.37816 0.19513 0.0
O227 O 0.19979 0.30736 0.19601 0.0
Cd228 Cd 0.22794 0.32759 0.12562 0.0
C229 C 0.30665 0.27133 0.18636 0.0
O230 O 0.28664 0.37287 0.1213 0.0
O231 O 0.28768 0.3181 0.07666 0.0
O232 O 0.18239 0.39097 0.12337 0.0
C233 C 0.30833 0.34733 0.0972 0.0
O234 O 0.3232 0.30709 0.19826 0.0
C235 C 0.15865 0.37811 0.09221 0.0
O236 O 0.27138 0.26945 0.16433 0.0
O237 O 0.16653 0.34068 0.07621 0.0
C238 C 0.70508 0.08816 0.68162 0.0
O239 O 0.73203 0.05735 0.67677 0.0
Cd240 Cd 0.79526 0.03589 0.71874 0.0
O241 O 0.69986 0.10652 0.7179 0.0
Cd242 Cd 0.72797 0.08633 0.78831 0.0
C243 C 0.80661 0.14277 0.72769 0.0
O244 O 0.78667 0.04103 0.79257 0.0
O245 O 0.78772 0.09574 0.83727 0.0
O246 O 0.68234 0.023 0.79058 0.0
C247 C 0.80836 0.06654 0.81669 0.0
O248 O 0.82317 0.10704 0.71576 0.0
C249 C 0.65865 0.03587 0.82177 0.0
O250 O 0.77134 0.14461 0.74974 0.0
O251 O 0.66659 0.07329 0.83777 0.0
C252 C 0.07585 0.45504 0.93169 0.0
O253 O 0.10668 0.48198 0.92685 0.0
Cd254 Cd 0.12821 0.54519 -0.03117 0.0
O255 O 0.05747 0.44982 -0.03204 0.0
Cd256 Cd 0.07769 0.47794 0.03836 0.0
C257 C 0.02135 0.55663 -0.02231 0.0
O258 O 0.12298 0.53663 0.04266 0.0
O259 O 0.06824 0.53767 0.08733 0.0
O260 O 0.14104 0.43235 0.04063 0.0
C261 C 0.09745 0.55832 0.06677 0.0
O262 O 0.05711 0.57319 -0.03422 0.0
C263 C 0.12816 0.40863 0.0718 0.0
O264 O 0.01949 0.52136 -0.00027 0.0
O265 O 0.09072 0.41652 0.08778 0.0
C266 C 0.70896 0.8259 0.18161 0.0
O267 O 0.682 0.8567 0.17676 0.0
Cd268 Cd 0.61878 0.87819 0.21873 0.0
O269 O 0.71418 0.80754 0.2179 0.0
Cd270 Cd 0.68607 0.82774 0.2883 0.0
C271 C 0.60742 0.77131 0.22768 0.0
O272 O 0.62737 0.87304 0.29256 0.0
O273 O 0.62633 0.81832 0.33727 0.0
O274 O 0.73169 0.89108 0.29056 0.0
C275 C 0.60568 0.84752 0.31669 0.0
O276 O 0.59085 0.80705 0.21575 0.0
C277 C 0.75539 0.8782 0.32175 0.0
O278 O 0.64269 0.76947 0.24973 0.0
O279 O 0.74746 0.84078 0.33775 0.0
C280 C 0.83827 -0.04093 0.93182 0.0
O281 O 0.80743 0.93214 0.92699 0.0
Cd282 Cd 0.78588 0.86891 -0.03105 0.0
O283 O 0.85669 -0.03574 -0.03192 0.0
Cd284 Cd 0.83645 0.93611 0.03846 0.0
C285 C 0.89271 0.8574 -0.02227 0.0
O286 O 0.79116 0.87741 0.04278 0.0
O287 O 0.84593 0.87636 0.08743 0.0
O288 O 0.77305 -0.01836 0.0407 0.0
C289 C 0.81671 0.85571 0.06688 0.0
O290 O 0.85694 0.84085 -0.03417 0.0
C291 C 0.78591 0.00539 0.07186 0.0
O292 O 0.89459 0.89266 -0.00024 0.0
O293 O 0.82335 -0.00247 0.08786 0.0
C294 C 0.20906 0.58829 0.73226 0.0
O295 O 0.18213 0.55745 0.73708 0.0
Cd296 Cd 0.11891 0.53587 0.69512 0.0
O297 O 0.21425 0.60671 0.696 0.0
Cd298 Cd 0.1861 0.58646 0.62562 0.0
C299 C 0.10737 0.64269 0.68638 0.0
O300 O 0.1274 0.54119 0.62128 0.0
O301 O 0.12636 0.59596 0.57665 0.0
O302 O 0.23162 0.52305 0.62339 0.0
C303 C 0.10571 0.56674 0.59719 0.0
O304 O 0.09082 0.60692 0.69827 0.0
C305 C 0.25539 0.53592 0.59224 0.0
O306 O 0.14264 0.64458 0.66434 0.0
O307 O 0.24754 0.57336 0.57625 0.0
C308 C 0.07588 0.45897 0.48246 0.0
O309 O 0.10669 0.43202 0.48732 0.0
Cd310 Cd 0.12817 0.36879 0.44534 0.0
O311 O 0.05752 0.46419 0.44618 0.0
Cd312 Cd 0.07772 0.43607 0.37577 0.0
C313 C 0.0213 0.35742 0.43641 0.0
O314 O 0.12301 0.37737 0.37151 0.0
O315 O 0.06829 0.37634 0.32681 0.0
O316 O 0.14105 0.4817 0.37351 0.0
C317 C 0.09749 0.35569 0.34739 0.0
O318 O 0.05704 0.34086 0.44834 0.0
C319 C 0.12817 0.5054 0.34233 0.0
O320 O 0.01946 0.39269 0.41437 0.0
O321 O 0.09075 0.49747 0.32633 0.0
C322 C 0.33817 0.45508 -0.01755 0.0
O323 O 0.30736 0.48203 -0.0127 0.0
Cd324 Cd 0.28586 0.54526 0.94533 0.0
O325 O 0.35653 0.44986 0.94616 0.0
Cd326 Cd 0.33633 0.47799 0.87576 0.0
C327 C 0.39273 0.55664 0.93642 0.0
O328 O 0.29104 0.53669 0.8715 0.0
O329 O 0.34576 0.53773 0.8268 0.0
O330 O 0.27298 0.43238 0.8735 0.0
C331 C 0.31656 0.55838 0.84738 0.0
O332 O 0.35699 0.57321 0.94834 0.0
C333 C 0.28586 0.40867 0.84232 0.0
O334 O 0.39458 0.52137 0.91437 0.0
O335 O 0.32328 0.41659 0.82632 0.0
C336 C 0.73235 0.70504 0.82587 0.0
O337 O 0.73717 0.73197 0.8567 0.0
Cd338 Cd 0.6952 0.7952 0.8782 0.0
O339 O 0.69608 0.69982 0.80748 0.0
Cd340 Cd 0.62567 0.72793 0.82768 0.0
C341 C 0.68635 0.80662 0.77133 0.0
O342 O 0.62137 0.78663 0.87297 0.0
O343 O 0.5767 0.78767 0.81823 0.0
O344 O 0.62342 0.68235 0.89105 0.0
C345 C 0.59726 0.80832 0.84744 0.0
O346 O 0.69826 0.82318 0.80708 0.0
C347 C 0.59226 0.65861 0.87817 0.0
O348 O 0.66431 0.77134 0.76947 0.0
O349 O 0.57627 0.6665 0.84074 0.0
C350 C 0.45906 0.48223 0.07581 0.0
O351 O 0.43214 0.48705 0.10666 0.0
Cd352 Cd 0.36892 0.44509 0.12825 0.0
O353 O 0.46426 0.44597 0.05741 0.0
Cd354 Cd 0.43609 0.37559 0.07764 0.0
C355 C 0.35736 0.43638 0.02144 0.0
O356 O 0.37739 0.37125 0.12292 0.0
O357 O 0.37634 0.32664 0.06813 0.0
O358 O 0.48163 0.37334 0.14103 0.0
C359 C 0.3557 0.34718 0.09735 0.0
O360 O 0.34081 0.44826 0.05721 0.0
C361 C 0.50538 0.34218 0.12816 0.0
O362 O 0.39262 0.41434 0.01954 0.0
O363 O 0.4975 0.32619 0.09072 0.0
C364 C 0.68172 0.20903 0.32585 0.0
O365 O 0.67691 0.18209 0.35668 0.0
Cd366 Cd 0.71888 0.11887 0.37818 0.0
O367 O 0.71799 0.21424 0.30744 0.0
Cd368 Cd 0.7884 0.18613 0.32765 0.0
C369 C 0.72771 0.10744 0.27132 0.0
O370 O 0.79271 0.12743 0.37293 0.0
O371 O 0.83737 0.1264 0.31818 0.0
O372 O 0.79064 0.23169 0.39103 0.0
C373 C 0.81682 0.10574 0.3474 0.0
O374 O 0.71581 0.09088 0.30708 0.0
C375 C 0.82179 0.25545 0.37815 0.0
O376 O 0.74975 0.14271 0.26945 0.0
O377 O 0.83778 0.24758 0.34071 0.0
C378 C 0.95497 0.43184 0.5758 0.0
O379 O -0.01811 0.42701 0.60665 0.0
Cd380 Cd 0.0451 0.46897 0.62826 0.0
O381 O 0.94978 0.4681 0.55739 0.0
Cd382 Cd -0.02204 0.53847 0.57764 0.0
C383 C 0.05669 0.47767 0.52145 0.0
O384 O 0.03665 0.54281 0.62291 0.0
O385 O 0.0377 0.58743 0.56811 0.0
O386 O 0.93243 0.54072 0.64104 0.0
C387 C 0.05835 0.56688 0.59734 0.0
O388 O 0.07323 0.46579 0.55722 0.0
C389 C 0.90867 0.57187 0.62817 0.0
O390 O 0.02142 0.49971 0.51955 0.0
O391 O 0.91653 0.58786 0.59073 0.0
C392 C 0.73227 0.20905 0.58825 0.0
O393 O 0.7371 0.18212 0.55742 0.0
Cd394 Cd 0.69513 0.11891 0.53581 0.0
O395 O 0.696 0.21425 0.60665 0.0
Cd396 Cd 0.62562 0.18609 0.58642 0.0
C397 C 0.68638 0.10735 0.64263 0.0
O398 O 0.62129 0.12739 0.54113 0.0
O399 O 0.57667 0.12634 0.59592 0.0
O400 O 0.62336 0.23165 0.52304 0.0
C401 C 0.59721 0.1057 0.56669 0.0
O402 O 0.69827 0.0908 0.60686 0.0
C403 C 0.5922 0.25538 0.53591 0.0
O404 O 0.66435 0.14262 0.64452 0.0
O405 O 0.57621 0.24749 0.57335 0.0
C406 C 0.95503 0.48233 0.83824 0.0
O407 O -0.01804 0.48715 0.80741 0.0
Cd408 Cd 0.04517 0.44517 0.78585 0.0
O409 O 0.94981 0.44606 0.85663 0.0
Cd410 Cd -0.02207 0.37566 0.83641 0.0
C411 C 0.05666 0.43637 0.89268 0.0
O412 O 0.03663 0.37134 0.79113 0.0
O413 O 0.03766 0.32669 0.84589 0.0
O414 O 0.93238 0.37341 0.77302 0.0
C415 C 0.05831 0.34724 0.81667 0.0
O416 O 0.07322 0.44826 0.85692 0.0
C417 C 0.90862 0.34227 0.7859 0.0
O418 O 0.02138 0.41434 0.89456 0.0
O419 O 0.91649 0.32628 0.82334 0.0
C420 C 0.6818 0.70499 0.08828 0.0
O421 O 0.67698 0.73191 0.05744 0.0
Cd422 Cd 0.71894 0.79512 0.03581 0.0
O423 O 0.71807 0.69979 0.10668 0.0
Cd424 Cd 0.78844 0.72796 0.08643 0.0
C425 C 0.72765 0.8067 0.14262 0.0
O426 O 0.79278 0.78666 0.04116 0.0
O427 O 0.8374 0.7877 0.09595 0.0
O428 O 0.79069 0.68242 0.02304 0.0
C429 C 0.81685 0.80835 0.06673 0.0
O430 O 0.71578 0.82325 0.10685 0.0
C431 C 0.82184 0.65867 0.03592 0.0
O432 O 0.74968 0.77143 0.14452 0.0
O433 O 0.83783 0.66654 0.07336 0.0
C434 C 0.45899 0.43171 0.33824 0.0
O435 O 0.43205 0.42689 0.30741 0.0
Cd436 Cd 0.36883 0.46886 0.28593 0.0
O437 O 0.46421 0.46798 0.35663 0.0
Cd438 Cd 0.43611 0.53839 0.33643 0.0
C439 C 0.35743 0.47771 0.3928 0.0
O440 O 0.3774 0.54269 0.29115 0.0
O441 O 0.37637 0.58736 0.34589 0.0
O442 O 0.48168 0.54064 0.27306 0.0
C443 C 0.35572 0.56681 0.31668 0.0
O444 O 0.34087 0.46581 0.35705 0.0
C445 C 0.50543 0.57179 0.28594 0.0
O446 O 0.39271 0.49975 0.39465 0.0
O447 O 0.49754 0.58778 0.32337 0.0
C448 C 0.82584 0.73237 0.70508 0.0
O449 O 0.85666 0.73721 0.73203 0.0
Cd450 Cd 0.8782 0.69522 0.79524 0.0
O451 O 0.80746 0.69609 0.69985 0.0
Cd452 Cd 0.82768 0.62569 0.72798 0.0
C453 C 0.77136 0.68637 0.80669 0.0
O454 O 0.87296 0.62139 0.78668 0.0
O455 O 0.81821 0.57672 0.78772 0.0
O456 O 0.89105 0.62343 0.68242 0.0
C457 C 0.84743 0.59727 0.80837 0.0
O458 O 0.80711 0.69827 0.82326 0.0
C459 C 0.87818 0.59227 0.65868 0.0
O460 O 0.76949 0.66434 0.77141 0.0
O461 O 0.84073 0.5763 0.66655 0.0
C462 C 0.43176 0.57582 0.95506 0.0
O463 O 0.42694 0.60664 -0.018 0.0
Cd464 Cd 0.46891 0.62811 0.04524 0.0
O465 O 0.46802 0.5574 0.94985 0.0
Cd466 Cd 0.53843 0.57759 -0.02203 0.0
C467 C 0.47774 0.52124 0.05664 0.0
O468 O 0.54274 0.62288 0.03668 0.0
O469 O 0.58739 0.56812 0.03772 0.0
O470 O 0.54069 0.64097 0.93241 0.0
C471 C 0.56685 0.59735 0.05837 0.0
O472 O 0.46584 0.55699 0.07321 0.0
C473 C 0.57185 0.6281 0.90867 0.0
O474 O 0.49977 0.51938 0.02137 0.0
O475 O 0.58783 0.59066 0.91655 0.0
C476 C 0.58818 0.18163 0.20509 0.0
O477 O 0.55737 0.17678 0.23205 0.0
Cd478 Cd 0.53585 0.21877 0.29526 0.0
O479 O 0.60655 0.21791 0.19986 0.0
Cd480 Cd 0.58634 0.28832 0.22797 0.0
C481 C 0.64271 0.22768 0.30667 0.0
O482 O 0.54104 0.29259 0.28666 0.0
O483 O 0.59577 0.33728 0.28771 0.0
O484 O 0.52299 0.29058 0.18238 0.0
C485 C 0.56656 0.31672 0.30836 0.0
O486 O 0.60696 0.21576 0.32323 0.0
C487 C 0.53587 0.32176 0.15867 0.0
O488 O 0.64456 0.24971 0.27139 0.0
O489 O 0.5733 0.33774 0.16656 0.0
C490 C -0.01773 0.33825 0.45505 0.0
O491 O -0.01292 0.30742 0.482 0.0
Cd492 Cd 0.9451 0.28596 0.54524 0.0
O493 O 0.94601 0.35667 0.44984 0.0
Cd494 Cd 0.8756 0.33648 0.47796 0.0
C495 C 0.93629 0.39283 0.55663 0.0
O496 O 0.87128 0.2912 0.53666 0.0
O497 O 0.82662 0.34596 0.5377 0.0
O498 O 0.87334 0.27309 0.43241 0.0
C499 C 0.84717 0.31673 0.55835 0.0
O500 O 0.94819 0.35708 0.5732 0.0
C501 C 0.84219 0.28596 0.40866 0.0
O502 O 0.91426 0.39469 0.52135 0.0
O503 O 0.82621 0.32341 0.41652 0.0
C504 C 0.82578 0.1818 0.70906 0.0
O505 O 0.85662 0.17699 0.68212 0.0
Cd506 Cd 0.87812 0.21895 0.61888 0.0
O507 O 0.80736 0.21806 0.71426 0.0
Cd508 Cd 0.82757 0.28846 0.68612 0.0
C509 C 0.77128 0.22773 0.60743 0.0
O510 O 0.87285 0.29278 0.62741 0.0
O511 O 0.81808 0.33742 0.62637 0.0
O512 O 0.89097 0.29071 0.73165 0.0
C513 C 0.8473 0.31687 0.60572 0.0
O514 O 0.80703 0.21583 0.59087 0.0
C515 C 0.87811 0.32187 0.7554 0.0
O516 O 0.7694 0.24976 0.6427 0.0
O517 O 0.84066 0.33785 0.74754 0.0
C518 C -0.01766 0.57583 -0.04095 0.0
O519 O -0.01282 0.60666 0.93211 0.0
Cd520 Cd 0.94522 0.62819 0.86888 0.0
O521 O 0.94607 0.55744 -0.03574 0.0
Cd522 Cd 0.87568 0.57766 0.93612 0.0
C523 C 0.93636 0.52134 0.85743 0.0
O524 O 0.87139 0.62295 0.87742 0.0
O525 O 0.82672 0.5682 0.87637 0.0
O526 O 0.87342 0.64104 -0.01832 0.0
C527 C 0.84728 0.59741 0.85573 0.0
O528 O 0.94828 0.55709 0.84087 0.0
C529 C 0.84225 0.62817 0.00541 0.0
O530 O 0.91433 0.51947 0.8927 0.0
O531 O 0.82627 0.59072 -0.00246 0.0
C532 C 0.58823 0.73228 0.20905 0.0
O533 O 0.5574 0.7371 0.18211 0.0
Cd534 Cd 0.53593 0.69513 0.11887 0.0
O535 O 0.60665 0.69603 0.21426 0.0
Cd536 Cd 0.58645 0.62562 0.18613 0.0
C537 C 0.64279 0.68632 0.10746 0.0
O538 O 0.54117 0.62131 0.12743 0.0
O539 O 0.59592 0.57665 0.12639 0.0
O540 O 0.52307 0.62336 0.23169 0.0
C541 C 0.56671 0.59721 0.10574 0.0
O542 O 0.60704 0.69822 0.09089 0.0
C543 C 0.53594 0.5922 0.25543 0.0
O544 O 0.64465 0.66428 0.14273 0.0
O545 O 0.57338 0.57622 0.24756 0.0
C546 C 0.43163 0.33819 0.45902 0.0
O547 O 0.42679 0.30738 0.43207 0.0
Cd548 Cd 0.46876 0.28584 0.36885 0.0
O549 O 0.46792 0.35656 0.46424 0.0
Cd550 Cd 0.53831 0.33635 0.43611 0.0
C551 C 0.47766 0.39269 0.35741 0.0
O552 O 0.54259 0.29105 0.37742 0.0
O553 O 0.58727 0.34579 0.37636 0.0
O554 O 0.54059 0.27299 0.4817 0.0
C555 C 0.5667 0.31658 0.35572 0.0
O556 O 0.46573 0.35694 0.34085 0.0
C557 C 0.57177 0.28587 0.50541 0.0
O558 O 0.49969 0.39455 0.39269 0.0
O559 O 0.58775 0.32331 0.49751 0.0
C560 C 0.705 0.8258 0.73231 0.0
O561 O 0.73193 0.85664 0.73714 0.0
Cd562 Cd 0.79515 0.8782 0.69518 0.0
O563 O 0.6998 0.8074 0.69605 0.0
Cd564 Cd 0.72794 0.82764 0.62566 0.0
C565 C 0.80665 0.77137 0.6864 0.0
O566 O 0.78664 0.87292 0.62134 0.0
O567 O 0.78768 0.81815 0.5767 0.0
O568 O 0.68239 0.89102 0.62342 0.0
C569 C 0.80833 0.84737 0.59725 0.0
O570 O 0.82321 0.80713 0.69829 0.0
C571 C 0.65864 0.87815 0.59226 0.0
O572 O 0.77138 0.76949 0.66436 0.0
O573 O 0.66651 0.84071 0.57627 0.0
C574 C 0.20499 0.58822 0.1818 0.0
O575 O 0.23192 0.55739 0.17697 0.0
Cd576 Cd 0.29516 0.53586 0.21891 0.0
O577 O 0.1998 0.60663 0.21806 0.0
Cd578 Cd 0.22796 0.5864 0.28845 0.0
C579 C 0.30665 0.6427 0.22773 0.0
O580 O 0.28665 0.54112 0.29275 0.0
O581 O 0.28771 0.59588 0.33739 0.0
O582 O 0.18237 0.52304 0.29071 0.0
C583 C 0.30835 0.56666 0.31683 0.0
O584 O 0.32319 0.60694 0.21582 0.0
C585 C 0.15866 0.53591 0.3219 0.0
O586 O 0.27138 0.64458 0.24977 0.0
O587 O 0.16657 0.57334 0.33789 0.0
C588 C 0.5758 0.955 0.43179 0.0
O589 O 0.60664 -0.01807 0.42696 0.0
Cd590 Cd 0.62818 0.04516 0.46891 0.0
O591 O 0.55739 0.9498 0.46805 0.0
Cd592 Cd 0.57762 -0.02206 0.53844 0.0
C593 C 0.52134 0.05665 0.47772 0.0
O594 O 0.6229 0.03664 0.54275 0.0
O595 O 0.56814 0.03769 0.5874 0.0
O596 O 0.64101 0.9324 0.54069 0.0
C597 C 0.59736 0.05834 0.56684 0.0
O598 O 0.5571 0.0732 0.46581 0.0
C599 C 0.62814 0.90866 0.57186 0.0
O600 O 0.51946 0.02138 0.49976 0.0
O601 O 0.5907 0.91653 0.58784 0.0
C602 C 0.20906 0.32583 0.68181 0.0
O603 O 0.18213 0.35667 0.67697 0.0
Cd604 Cd 0.1189 0.37824 0.71891 0.0
O605 O 0.21425 0.30743 0.71807 0.0
Cd606 Cd 0.18608 0.32767 0.78845 0.0
C607 C 0.10737 0.27141 0.7277 0.0
O608 O 0.12738 0.37295 0.79275 0.0
O609 O 0.12632 0.31817 0.83739 0.0
O610 O 0.23165 0.39104 0.79071 0.0
C611 C 0.10568 0.34739 0.81683 0.0
O612 O 0.09083 0.30717 0.7158 0.0
C613 C 0.25536 0.37817 0.8219 0.0
O614 O 0.14264 0.26952 0.74974 0.0
O615 O 0.24747 0.34073 0.83789 0.0
C616 C 0.33825 0.45907 0.43182 0.0
O617 O 0.30741 0.43214 0.427 0.0
Cd618 Cd 0.28582 0.36893 0.46897 0.0
O619 O 0.35666 0.46426 0.46808 0.0
Cd620 Cd 0.33642 0.43612 0.53846 0.0
C621 C 0.39264 0.35738 0.4777 0.0
O622 O 0.29115 0.37742 0.54281 0.0
O623 O 0.34593 0.37638 0.58744 0.0
O624 O 0.27302 0.48163 0.54071 0.0
C625 C 0.31671 0.35573 0.56689 0.0
O626 O 0.35688 0.34083 0.46582 0.0
C627 C 0.28589 0.5054 0.57186 0.0
O628 O 0.39454 0.39265 0.49974 0.0
O629 O 0.32334 0.49756 0.58783 0.0
C630 C 0.70906 0.08825 0.23231 0.0
O631 O 0.68213 0.05741 0.23714 0.0
Cd632 Cd 0.61892 0.03582 0.19518 0.0
O633 O 0.71425 0.10665 0.19604 0.0
Cd634 Cd 0.68611 0.0864 0.12566 0.0
C635 C 0.60737 0.14264 0.18641 0.0
O636 O 0.62741 0.04112 0.12134 0.0
O637 O 0.62637 0.09589 0.0767 0.0
O638 O 0.73165 0.02302 0.12341 0.0
C639 C 0.60572 0.06668 0.09725 0.0
O640 O 0.59083 0.10687 0.1983 0.0
C641 C 0.7554 0.03589 0.09225 0.0
O642 O 0.64264 0.14453 0.16437 0.0
O643 O 0.74753 0.07333 0.07627 0.0
C644 C 0.57583 -0.04095 -0.01769 0.0
O645 O 0.60666 0.93212 -0.01285 0.0
Cd646 Cd 0.62821 0.86889 0.94521 0.0
O647 O 0.55743 -0.03576 0.94604 0.0
Cd648 Cd 0.57766 0.93608 0.87566 0.0
C649 C 0.52137 0.85739 0.93639 0.0
O650 O 0.62295 0.87739 0.87137 0.0
O651 O 0.56819 0.87633 0.82672 0.0
O652 O 0.64102 -0.01832 0.8734 0.0
C653 C 0.59741 0.85569 0.84728 0.0
O654 O 0.55713 0.84085 0.9483 0.0
C655 C 0.62815 0.00538 0.8422 0.0
O656 O 0.51949 0.89266 0.91434 0.0
O657 O 0.59072 -0.00254 0.82621 0.0
C658 C 0.83823 0.95498 0.48226 0.0
O659 O 0.80739 -0.01809 0.4871 0.0
Cd660 Cd 0.78582 0.04514 0.44516 0.0
O661 O 0.85664 0.9498 0.446 0.0
Cd662 Cd 0.8364 -0.02202 0.37562 0.0
C663 C 0.89264 0.05668 0.43639 0.0
O664 O 0.79112 0.03668 0.37132 0.0
O665 O 0.8459 0.03774 0.32669 0.0
O666 O 0.77303 0.9324 0.37336 0.0
C667 C 0.81667 0.05838 0.34724 0.0
O668 O 0.85688 0.07322 0.44829 0.0
C669 C 0.7859 0.90869 0.34218 0.0
O670 O 0.89453 0.02142 0.41434 0.0
O671 O 0.82333 0.91659 0.32618 0.0
loop_
_geom_bond_atom_site_label_1
_geom_bond_atom_site_label_2
_geom_bond_distance
_geom_bond_site_symmetry_2
_ccdc_geom_bond_type
C0 O1 1.306 . S
C0 O3 1.160 . S
O1 C0 1.306 . S
O1 Cd2 2.228 . S
Cd2 O1 2.228 . S
Cd2 O6 2.273 . S
Cd2 O10 2.277 . S
O3 C0 1.160 . S
O3 Cd4 2.203 . S
Cd4 O3 2.203 . S
Cd4 O6 2.411 . S
Cd4 O7 2.333 . S
Cd4 O8 2.352 . S
Cd4 O12 2.277 . S
Cd4 O13 2.356 . S
C5 O10 1.209 . S
C5 O12 1.226 . S
O6 Cd2 2.273 . S
O6 Cd4 2.411 . S
O6 C9 1.320 . S
O7 Cd4 2.333 . S
O7 C9 1.214 . S
O8 Cd4 2.352 . S
O8 C11 1.258 . S
C9 O6 1.320 . S
C9 O7 1.214 . S
O10 Cd2 2.277 . S
O10 C5 1.209 . S
C11 O8 1.258 . S
C11 O13 1.282 . S
O12 Cd4 2.277 . S
O12 C5 1.226 . S
O13 Cd4 2.356 . S
O13 C11 1.282 . S
C14 O15 1.306 1_455 S
C14 O17 1.160 1_545 S
O15 C14 1.306 1_655 S
O15 Cd16 2.228 . S
Cd16 O15 2.228 . S
Cd16 O20 2.273 1_545 S
Cd16 O24 2.277 1_545 S
O17 C14 1.160 1_565 S
O17 Cd18 2.203 1_455 S
Cd18 O17 2.203 1_655 S
Cd18 O20 2.411 . S
Cd18 O21 2.333 . S
Cd18 O22 2.352 1_655 S
Cd18 O26 2.277 . S
Cd18 O27 2.356 1_655 S
C19 O24 1.209 . S
C19 O26 1.226 . S
O20 Cd16 2.273 1_565 S
O20 Cd18 2.411 . S
O20 C23 1.320 . S
O21 Cd18 2.333 . S
O21 C23 1.214 . S
O22 Cd18 2.352 1_455 S
O22 C25 1.258 . S
C23 O20 1.320 . S
C23 O21 1.214 . S
O24 Cd16 2.277 1_565 S
O24 C19 1.209 . S
C25 O22 1.258 . S
C25 O27 1.282 . S
O26 Cd18 2.277 . S
O26 C19 1.226 . S
O27 Cd18 2.356 1_455 S
O27 C25 1.282 . S
C28 O29 1.306 . S
C28 O31 1.160 . S
O29 C28 1.306 . S
O29 Cd30 2.228 . S
Cd30 O29 2.228 . S
Cd30 O34 2.273 . S
Cd30 O38 2.277 . S
O31 C28 1.160 . S
O31 Cd32 2.203 . S
Cd32 O31 2.203 . S
Cd32 O34 2.411 . S
Cd32 O35 2.333 . S
Cd32 O36 2.352 . S
Cd32 O40 2.277 . S
Cd32 O41 2.356 . S
C33 O38 1.209 . S
C33 O40 1.226 . S
O34 Cd30 2.273 . S
O34 Cd32 2.411 . S
O34 C37 1.320 . S
O35 Cd32 2.333 . S
O35 C37 1.214 . S
O36 Cd32 2.352 . S
O36 C39 1.258 . S
C37 O34 1.320 . S
C37 O35 1.214 . S
O38 Cd30 2.277 . S
O38 C33 1.209 . S
C39 O36 1.258 . S
C39 O41 1.282 . S
O40 Cd32 2.277 . S
O40 C33 1.226 . S
O41 Cd32 2.356 . S
O41 C39 1.282 . S
C42 O43 1.306 . S
C42 O45 1.160 1_565 S
O43 C42 1.306 . S
O43 Cd44 2.228 . S
Cd44 O43 2.228 . S
Cd44 O48 2.273 1_565 S
Cd44 O52 2.277 1_565 S
O45 C42 1.160 1_545 S
O45 Cd46 2.203 . S
Cd46 O45 2.203 . S
Cd46 O48 2.411 . S
Cd46 O49 2.333 . S
Cd46 O50 2.352 . S
Cd46 O54 2.277 . S
Cd46 O55 2.356 . S
C47 O52 1.209 . S
C47 O54 1.226 . S
O48 Cd44 2.273 1_545 S
O48 Cd46 2.411 . S
O48 C51 1.320 . S
O49 Cd46 2.333 . S
O49 C51 1.214 . S
O50 Cd46 2.352 . S
O50 C53 1.258 . S
C51 O48 1.320 . S
C51 O49 1.214 . S
O52 Cd44 2.277 1_545 S
O52 C47 1.209 . S
C53 O50 1.258 . S
C53 O55 1.282 . S
O54 Cd46 2.277 . S
O54 C47 1.226 . S
O55 Cd46 2.356 . S
O55 C53 1.282 . S
C56 O57 1.306 . S
C56 O59 1.160 . S
O57 C56 1.306 . S
O57 Cd58 2.228 . S
Cd58 O57 2.228 . S
Cd58 O62 2.273 . S
Cd58 O66 2.277 . S
O59 C56 1.160 . S
O59 Cd60 2.203 . S
Cd60 O59 2.203 . S
Cd60 O62 2.411 . S
Cd60 O63 2.333 . S
Cd60 O64 2.352 . S
Cd60 O68 2.277 . S
Cd60 O69 2.356 . S
C61 O66 1.209 . S
C61 O68 1.226 . S
O62 Cd58 2.273 . S
O62 Cd60 2.411 . S
O62 C65 1.320 . S
O63 Cd60 2.333 . S
O63 C65 1.214 . S
O64 Cd60 2.352 . S
O64 C67 1.258 . S
C65 O62 1.320 . S
C65 O63 1.214 . S
O66 Cd58 2.277 . S
O66 C61 1.209 . S
C67 O64 1.258 . S
C67 O69 1.282 . S
O68 Cd60 2.277 . S
O68 C61 1.226 . S
O69 Cd60 2.356 . S
O69 C67 1.282 . S
C70 O71 1.306 . S
C70 O73 1.160 1_545 S
O71 C70 1.306 . S
O71 Cd72 2.228 . S
Cd72 O71 2.228 . S
Cd72 O76 2.273 1_545 S
Cd72 O80 2.277 1_545 S
O73 C70 1.160 1_565 S
O73 Cd74 2.203 . S
Cd74 O73 2.203 . S
Cd74 O76 2.411 . S
Cd74 O77 2.333 . S
Cd74 O78 2.352 . S
Cd74 O82 2.277 . S
Cd74 O83 2.356 . S
C75 O80 1.209 . S
C75 O82 1.226 . S
O76 Cd72 2.273 1_565 S
O76 Cd74 2.411 . S
O76 C79 1.320 . S
O77 Cd74 2.333 . S
O77 C79 1.214 . S
O78 Cd74 2.352 . S
O78 C81 1.258 . S
C79 O76 1.320 . S
C79 O77 1.214 . S
O80 Cd72 2.277 1_565 S
O80 C75 1.209 . S
C81 O78 1.258 . S
C81 O83 1.282 . S
O82 Cd74 2.277 . S
O82 C75 1.226 . S
O83 Cd74 2.356 . S
O83 C81 1.282 . S
C84 O85 1.306 . S
C84 O87 1.160 . S
O85 C84 1.306 . S
O85 Cd86 2.228 . S
Cd86 O85 2.228 . S
Cd86 O90 2.273 . S
Cd86 O94 2.277 . S
O87 C84 1.160 . S
O87 Cd88 2.203 . S
Cd88 O87 2.203 . S
Cd88 O90 2.411 . S
Cd88 O91 2.333 . S
Cd88 O92 2.352 . S
Cd88 O96 2.277 . S
Cd88 O97 2.356 . S
C89 O94 1.209 . S
C89 O96 1.226 . S
O90 Cd86 2.273 . S
O90 Cd88 2.411 . S
O90 C93 1.320 . S
O91 Cd88 2.333 . S
O91 C93 1.214 . S
O92 Cd88 2.352 . S
O92 C95 1.258 . S
C93 O90 1.320 . S
C93 O91 1.214 . S
O94 Cd86 2.277 . S
O94 C89 1.209 . S
C95 O92 1.258 . S
C95 O97 1.282 . S
O96 Cd88 2.277 . S
O96 C89 1.226 . S
O97 Cd88 2.356 . S
O97 C95 1.282 . S
C98 O99 1.306 1_455 S
C98 O101 1.160 1_565 S
O99 C98 1.306 1_655 S
O99 Cd100 2.228 . S
Cd100 O99 2.228 . S
Cd100 O104 2.273 1_565 S
Cd100 O108 2.277 1_565 S
O101 C98 1.160 1_545 S
O101 Cd102 2.203 1_455 S
Cd102 O101 2.203 1_655 S
Cd102 O104 2.411 . S
Cd102 O105 2.333 . S
Cd102 O106 2.352 1_655 S
Cd102 O110 2.277 . S
Cd102 O111 2.356 1_655 S
C103 O108 1.209 . S
C103 O110 1.226 . S
O104 Cd100 2.273 1_545 S
O104 Cd102 2.411 . S
O104 C107 1.320 . S
O105 Cd102 2.333 . S
O105 C107 1.214 . S
O106 Cd102 2.352 1_455 S
O106 C109 1.258 . S
C107 O104 1.320 . S
C107 O105 1.214 . S
O108 Cd100 2.277 1_545 S
O108 C103 1.209 . S
C109 O106 1.258 . S
C109 O111 1.282 . S
O110 Cd102 2.277 . S
O110 C103 1.226 . S
O111 Cd102 2.356 1_455 S
O111 C109 1.282 . S
C112 O113 1.306 . S
C112 O115 1.160 . S
O113 C112 1.306 . S
O113 Cd114 2.228 . S
Cd114 O113 2.228 . S
Cd114 O118 2.273 . S
Cd114 O122 2.277 . S
O115 C112 1.160 . S
O115 Cd116 2.203 . S
Cd116 O115 2.203 . S
Cd116 O118 2.411 . S
Cd116 O119 2.333 . S
Cd116 O120 2.352 . S
Cd116 O124 2.277 . S
Cd116 O125 2.356 . S
C117 O122 1.209 . S
C117 O124 1.226 . S
O118 Cd114 2.273 . S
O118 Cd116 2.411 . S
O118 C121 1.320 . S
O119 Cd116 2.333 . S
O119 C121 1.214 . S
O120 Cd116 2.352 . S
O120 C123 1.258 . S
C121 O118 1.320 . S
C121 O119 1.214 . S
O122 Cd114 2.277 . S
O122 C117 1.209 . S
C123 O120 1.258 . S
C123 O125 1.282 . S
O124 Cd116 2.277 . S
O124 C117 1.226 . S
O125 Cd116 2.356 . S
O125 C123 1.282 . S
C126 O127 1.306 . S
C126 O129 1.160 1_655 S
O127 C126 1.306 . S
O127 Cd128 2.228 . S
Cd128 O127 2.228 . S
Cd128 O132 2.273 1_655 S
Cd128 O136 2.277 1_655 S
O129 C126 1.160 1_455 S
O129 Cd130 2.203 . S
Cd130 O129 2.203 . S
Cd130 O132 2.411 . S
Cd130 O133 2.333 . S
Cd130 O134 2.352 . S
Cd130 O138 2.277 . S
Cd130 O139 2.356 . S
C131 O136 1.209 . S
C131 O138 1.226 . S
O132 Cd128 2.273 1_455 S
O132 Cd130 2.411 . S
O132 C135 1.320 . S
O133 Cd130 2.333 . S
O133 C135 1.214 . S
O134 Cd130 2.352 . S
O134 C137 1.258 . S
C135 O132 1.320 . S
C135 O133 1.214 . S
O136 Cd128 2.277 1_455 S
O136 C131 1.209 . S
C137 O134 1.258 . S
C137 O139 1.282 . S
O138 Cd130 2.277 . S
O138 C131 1.226 . S
O139 Cd130 2.356 . S
O139 C137 1.282 . S
C140 O141 1.306 . S
C140 O143 1.160 . S
O141 C140 1.306 . S
O141 Cd142 2.228 . S
Cd142 O141 2.228 . S
Cd142 O146 2.273 . S
Cd142 O150 2.277 . S
O143 C140 1.160 . S
O143 Cd144 2.203 . S
Cd144 O143 2.203 . S
Cd144 O146 2.411 . S
Cd144 O147 2.333 . S
Cd144 O148 2.352 . S
Cd144 O152 2.277 . S
Cd144 O153 2.356 . S
C145 O150 1.209 . S
C145 O152 1.226 . S
O146 Cd142 2.273 . S
O146 Cd144 2.411 . S
O146 C149 1.320 . S
O147 Cd144 2.333 . S
O147 C149 1.214 . S
O148 Cd144 2.352 . S
O148 C151 1.258 . S
C149 O146 1.320 . S
C149 O147 1.214 . S
O150 Cd142 2.277 . S
O150 C145 1.209 . S
C151 O148 1.258 . S
C151 O153 1.282 . S
O152 Cd144 2.277 . S
O152 C145 1.226 . S
O153 Cd144 2.356 . S
O153 C151 1.282 . S
C154 O155 1.306 1_556 S
C154 O157 1.160 . S
O155 C154 1.306 1_554 S
O155 Cd156 2.228 . S
Cd156 O155 2.228 . S
Cd156 O160 2.273 . S
Cd156 O164 2.277 . S
O157 C154 1.160 . S
O157 Cd158 2.203 1_556 S
Cd158 O157 2.203 1_554 S
Cd158 O160 2.411 . S
Cd158 O161 2.333 . S
Cd158 O162 2.352 1_554 S
Cd158 O166 2.277 . S
Cd158 O167 2.356 1_554 S
C159 O164 1.209 . S
C159 O166 1.226 . S
O160 Cd156 2.273 . S
O160 Cd158 2.411 . S
O160 C163 1.320 . S
O161 Cd158 2.333 . S
O161 C163 1.214 . S
O162 Cd158 2.352 1_556 S
O162 C165 1.258 . S
C163 O160 1.320 . S
C163 O161 1.214 . S
O164 Cd156 2.277 . S
O164 C159 1.209 . S
C165 O162 1.258 . S
C165 O167 1.282 . S
O166 Cd158 2.277 . S
O166 C159 1.226 . S
O167 Cd158 2.356 1_556 S
O167 C165 1.282 . S
C168 O169 1.306 . S
C168 O171 1.160 . S
O169 C168 1.306 . S
O169 Cd170 2.228 . S
Cd170 O169 2.228 . S
Cd170 O174 2.273 . S
Cd170 O178 2.277 . S
O171 C168 1.160 . S
O171 Cd172 2.203 . S
Cd172 O171 2.203 . S
Cd172 O174 2.411 . S
Cd172 O175 2.333 . S
Cd172 O176 2.352 . S
Cd172 O180 2.277 . S
Cd172 O181 2.356 . S
C173 O178 1.209 . S
C173 O180 1.226 . S
O174 Cd170 2.273 . S
O174 Cd172 2.411 . S
O174 C177 1.320 . S
O175 Cd172 2.333 . S
O175 C177 1.214 . S
O176 Cd172 2.352 . S
O176 C179 1.258 . S
C177 O174 1.320 . S
C177 O175 1.214 . S
O178 Cd170 2.277 . S
O178 C173 1.209 . S
C179 O176 1.258 . S
C179 O181 1.282 . S
O180 Cd172 2.277 . S
O180 C173 1.226 . S
O181 Cd172 2.356 . S
O181 C179 1.282 . S
C182 O183 1.306 . S
C182 O185 1.160 . S
O183 C182 1.306 . S
O183 Cd184 2.228 . S
Cd184 O183 2.228 . S
Cd184 O188 2.273 . S
Cd184 O192 2.277 . S
O185 C182 1.160 . S
O185 Cd186 2.203 . S
Cd186 O185 2.203 . S
Cd186 O188 2.411 . S
Cd186 O189 2.333 . S
Cd186 O190 2.352 . S
Cd186 O194 2.277 . S
Cd186 O195 2.356 . S
C187 O192 1.209 . S
C187 O194 1.226 . S
O188 Cd184 2.273 . S
O188 Cd186 2.411 . S
O188 C191 1.320 . S
O189 Cd186 2.333 . S
O189 C191 1.214 . S
O190 Cd186 2.352 . S
O190 C193 1.258 . S
C191 O188 1.320 . S
C191 O189 1.214 . S
O192 Cd184 2.277 . S
O192 C187 1.209 . S
C193 O190 1.258 . S
C193 O195 1.282 . S
O194 Cd186 2.277 . S
O194 C187 1.226 . S
O195 Cd186 2.356 . S
O195 C193 1.282 . S
C196 O197 1.306 . S
C196 O199 1.160 . S
O197 C196 1.306 . S
O197 Cd198 2.228 . S
Cd198 O197 2.228 . S
Cd198 O202 2.273 . S
Cd198 O206 2.277 . S
O199 C196 1.160 . S
O199 Cd200 2.203 . S
Cd200 O199 2.203 . S
Cd200 O202 2.411 . S
Cd200 O203 2.333 . S
Cd200 O204 2.352 . S
Cd200 O208 2.277 . S
Cd200 O209 2.356 . S
C201 O206 1.209 . S
C201 O208 1.226 . S
O202 Cd198 2.273 . S
O202 Cd200 2.411 . S
O202 C205 1.320 . S
O203 Cd200 2.333 . S
O203 C205 1.214 . S
O204 Cd200 2.352 . S
O204 C207 1.258 . S
C205 O202 1.320 . S
C205 O203 1.214 . S
O206 Cd198 2.277 . S
O206 C201 1.209 . S
C207 O204 1.258 . S
C207 O209 1.282 . S
O208 Cd200 2.277 . S
O208 C201 1.226 . S
O209 Cd200 2.356 . S
O209 C207 1.282 . S
C210 O211 1.306 1_554 S
C210 O213 1.160 1_655 S
O211 C210 1.306 1_556 S
O211 Cd212 2.228 . S
Cd212 O211 2.228 . S
Cd212 O216 2.273 1_655 S
Cd212 O220 2.277 1_655 S
O213 C210 1.160 1_455 S
O213 Cd214 2.203 1_554 S
Cd214 O213 2.203 1_556 S
Cd214 O216 2.411 . S
Cd214 O217 2.333 . S
Cd214 O218 2.352 1_556 S
Cd214 O222 2.277 . S
Cd214 O223 2.356 1_556 S
C215 O220 1.209 . S
C215 O222 1.226 . S
O216 Cd212 2.273 1_455 S
O216 Cd214 2.411 . S
O216 C219 1.320 . S
O217 Cd214 2.333 . S
O217 C219 1.214 . S
O218 Cd214 2.352 1_554 S
O218 C221 1.258 . S
C219 O216 1.320 . S
C219 O217 1.214 . S
O220 Cd212 2.277 1_455 S
O220 C215 1.209 . S
C221 O218 1.258 . S
C221 O223 1.282 . S
O222 Cd214 2.277 . S
O222 C215 1.226 . S
O223 Cd214 2.356 1_554 S
O223 C221 1.282 . S
C224 O225 1.306 . S
C224 O227 1.160 . S
O225 C224 1.306 . S
O225 Cd226 2.228 . S
Cd226 O225 2.228 . S
Cd226 O230 2.273 . S
Cd226 O234 2.277 . S
O227 C224 1.160 . S
O227 Cd228 2.203 . S
Cd228 O227 2.203 . S
Cd228 O230 2.411 . S
Cd228 O231 2.333 . S
Cd228 O232 2.352 . S
Cd228 O236 2.277 . S
Cd228 O237 2.356 . S
C229 O234 1.209 . S
C229 O236 1.226 . S
O230 Cd226 2.273 . S
O230 Cd228 2.411 . S
O230 C233 1.320 . S
O231 Cd228 2.333 . S
O231 C233 1.214 . S
O232 Cd228 2.352 . S
O232 C235 1.258 . S
C233 O230 1.320 . S
C233 O231 1.214 . S
O234 Cd226 2.277 . S
O234 C229 1.209 . S
C235 O232 1.258 . S
C235 O237 1.282 . S
O236 Cd228 2.277 . S
O236 C229 1.226 . S
O237 Cd228 2.356 . S
O237 C235 1.282 . S
C238 O239 1.306 . S
C238 O241 1.160 . S
O239 C238 1.306 . S
O239 Cd240 2.228 . S
Cd240 O239 2.228 . S
Cd240 O244 2.273 . S
Cd240 O248 2.277 . S
O241 C238 1.160 . S
O241 Cd242 2.203 . S
Cd242 O241 2.203 . S
Cd242 O244 2.411 . S
Cd242 O245 2.333 . S
Cd242 O246 2.352 . S
Cd242 O250 2.277 . S
Cd242 O251 2.356 . S
C243 O248 1.209 . S
C243 O250 1.226 . S
O244 Cd240 2.273 . S
O244 Cd242 2.411 . S
O244 C247 1.320 . S
O245 Cd242 2.333 . S
O245 C247 1.214 . S
O246 Cd242 2.352 . S
O246 C249 1.258 . S
C247 O244 1.320 . S
C247 O245 1.214 . S
O248 Cd240 2.277 . S
O248 C243 1.209 . S
C249 O246 1.258 . S
C249 O251 1.282 . S
O250 Cd242 2.277 . S
O250 C243 1.226 . S
O251 Cd242 2.356 . S
O251 C249 1.282 . S
C252 O253 1.306 . S
C252 O255 1.160 1_556 S
O253 C252 1.306 . S
O253 Cd254 2.228 . S
Cd254 O253 2.228 . S
Cd254 O258 2.273 1_556 S
Cd254 O262 2.277 1_556 S
O255 C252 1.160 1_554 S
O255 Cd256 2.203 . S
Cd256 O255 2.203 . S
Cd256 O258 2.411 . S
Cd256 O259 2.333 . S
Cd256 O260 2.352 . S
Cd256 O264 2.277 . S
Cd256 O265 2.356 . S
C257 O262 1.209 . S
C257 O264 1.226 . S
O258 Cd254 2.273 1_554 S
O258 Cd256 2.411 . S
O258 C261 1.320 . S
O259 Cd256 2.333 . S
O259 C261 1.214 . S
O260 Cd256 2.352 . S
O260 C263 1.258 . S
C261 O258 1.320 . S
C261 O259 1.214 . S
O262 Cd254 2.277 1_554 S
O262 C257 1.209 . S
C263 O260 1.258 . S
C263 O265 1.282 . S
O264 Cd256 2.277 . S
O264 C257 1.226 . S
O265 Cd256 2.356 . S
O265 C263 1.282 . S
C266 O267 1.306 . S
C266 O269 1.160 . S
O267 C266 1.306 . S
O267 Cd268 2.228 . S
Cd268 O267 2.228 . S
Cd268 O272 2.273 . S
Cd268 O276 2.277 . S
O269 C266 1.160 . S
O269 Cd270 2.203 . S
Cd270 O269 2.203 . S
Cd270 O272 2.411 . S
Cd270 O273 2.333 . S
Cd270 O274 2.352 . S
Cd270 O278 2.277 . S
Cd270 O279 2.356 . S
C271 O276 1.209 . S
C271 O278 1.226 . S
O272 Cd268 2.273 . S
O272 Cd270 2.411 . S
O272 C275 1.320 . S
O273 Cd270 2.333 . S
O273 C275 1.214 . S
O274 Cd270 2.352 . S
O274 C277 1.258 . S
C275 O272 1.320 . S
C275 O273 1.214 . S
O276 Cd268 2.277 . S
O276 C271 1.209 . S
C277 O274 1.258 . S
C277 O279 1.282 . S
O278 Cd270 2.277 . S
O278 C271 1.226 . S
O279 Cd270 2.356 . S
O279 C277 1.282 . S
C280 O281 1.306 1_545 S
C280 O283 1.160 1_556 S
O281 C280 1.306 1_565 S
O281 Cd282 2.228 . S
Cd282 O281 2.228 . S
Cd282 O286 2.273 1_556 S
Cd282 O290 2.277 1_556 S
O283 C280 1.160 1_554 S
O283 Cd284 2.203 1_545 S
Cd284 O283 2.203 1_565 S
Cd284 O286 2.411 . S
Cd284 O287 2.333 . S
Cd284 O288 2.352 1_565 S
Cd284 O292 2.277 . S
Cd284 O293 2.356 1_565 S
C285 O290 1.209 . S
C285 O292 1.226 . S
O286 Cd282 2.273 1_554 S
O286 Cd284 2.411 . S
O286 C289 1.320 . S
O287 Cd284 2.333 . S
O287 C289 1.214 . S
O288 Cd284 2.352 1_545 S
O288 C291 1.258 . S
C289 O286 1.320 . S
C289 O287 1.214 . S
O290 Cd282 2.277 1_554 S
O290 C285 1.209 . S
C291 O288 1.258 . S
C291 O293 1.282 . S
O292 Cd284 2.277 . S
O292 C285 1.226 . S
O293 Cd284 2.356 1_545 S
O293 C291 1.282 . S
C294 O295 1.306 . S
C294 O297 1.160 . S
O295 C294 1.306 . S
O295 Cd296 2.228 . S
Cd296 O295 2.228 . S
Cd296 O300 2.273 . S
Cd296 O304 2.277 . S
O297 C294 1.160 . S
O297 Cd298 2.203 . S
Cd298 O297 2.203 . S
Cd298 O300 2.411 . S
Cd298 O301 2.333 . S
Cd298 O302 2.352 . S
Cd298 O306 2.277 . S
Cd298 O307 2.356 . S
C299 O304 1.209 . S
C299 O306 1.226 . S
O300 Cd296 2.273 . S
O300 Cd298 2.411 . S
O300 C303 1.320 . S
O301 Cd298 2.333 . S
O301 C303 1.214 . S
O302 Cd298 2.352 . S
O302 C305 1.258 . S
C303 O300 1.320 . S
C303 O301 1.214 . S
O304 Cd296 2.277 . S
O304 C299 1.209 . S
C305 O302 1.258 . S
C305 O307 1.282 . S
O306 Cd298 2.277 . S
O306 C299 1.226 . S
O307 Cd298 2.356 . S
O307 C305 1.282 . S
C308 O309 1.306 . S
C308 O311 1.160 . S
O309 C308 1.306 . S
O309 Cd310 2.228 . S
Cd310 O309 2.228 . S
Cd310 O314 2.273 . S
Cd310 O318 2.277 . S
O311 C308 1.160 . S
O311 Cd312 2.203 . S
Cd312 O311 2.203 . S
Cd312 O314 2.411 . S
Cd312 O315 2.333 . S
Cd312 O316 2.352 . S
Cd312 O320 2.277 . S
Cd312 O321 2.356 . S
C313 O318 1.209 . S
C313 O320 1.226 . S
O314 Cd310 2.273 . S
O314 Cd312 2.411 . S
O314 C317 1.320 . S
O315 Cd312 2.333 . S
O315 C317 1.214 . S
O316 Cd312 2.352 . S
O316 C319 1.258 . S
C317 O314 1.320 . S
C317 O315 1.214 . S
O318 Cd310 2.277 . S
O318 C313 1.209 . S
C319 O316 1.258 . S
C319 O321 1.282 . S
O320 Cd312 2.277 . S
O320 C313 1.226 . S
O321 Cd312 2.356 . S
O321 C319 1.282 . S
C322 O323 1.306 . S
C322 O325 1.160 1_554 S
O323 C322 1.306 . S
O323 Cd324 2.228 . S
Cd324 O323 2.228 . S
Cd324 O328 2.273 1_554 S
Cd324 O332 2.277 1_554 S
O325 C322 1.160 1_556 S
O325 Cd326 2.203 . S
Cd326 O325 2.203 . S
Cd326 O328 2.411 . S
Cd326 O329 2.333 . S
Cd326 O330 2.352 . S
Cd326 O334 2.277 . S
Cd326 O335 2.356 . S
C327 O332 1.209 . S
C327 O334 1.226 . S
O328 Cd324 2.273 1_556 S
O328 Cd326 2.411 . S
O328 C331 1.320 . S
O329 Cd326 2.333 . S
O329 C331 1.214 . S
O330 Cd326 2.352 . S
O330 C333 1.258 . S
C331 O328 1.320 . S
C331 O329 1.214 . S
O332 Cd324 2.277 1_556 S
O332 C327 1.209 . S
C333 O330 1.258 . S
C333 O335 1.282 . S
O334 Cd326 2.277 . S
O334 C327 1.226 . S
O335 Cd326 2.356 . S
O335 C333 1.282 . S
C336 O337 1.306 . S
C336 O339 1.160 . S
O337 C336 1.306 . S
O337 Cd338 2.228 . S
Cd338 O337 2.228 . S
Cd338 O342 2.273 . S
Cd338 O346 2.277 . S
O339 C336 1.160 . S
O339 Cd340 2.203 . S
Cd340 O339 2.203 . S
Cd340 O342 2.411 . S
Cd340 O343 2.333 . S
Cd340 O344 2.352 . S
Cd340 O348 2.277 . S
Cd340 O349 2.356 . S
C341 O346 1.209 . S
C341 O348 1.226 . S
O342 Cd338 2.273 . S
O342 Cd340 2.411 . S
O342 C345 1.320 . S
O343 Cd340 2.333 . S
O343 C345 1.214 . S
O344 Cd340 2.352 . S
O344 C347 1.258 . S
C345 O342 1.320 . S
C345 O343 1.214 . S
O346 Cd338 2.277 . S
O346 C341 1.209 . S
C347 O344 1.258 . S
C347 O349 1.282 . S
O348 Cd340 2.277 . S
O348 C341 1.226 . S
O349 Cd340 2.356 . S
O349 C347 1.282 . S
C350 O351 1.306 . S
C350 O353 1.160 . S
O351 C350 1.306 . S
O351 Cd352 2.228 . S
Cd352 O351 2.228 . S
Cd352 O356 2.273 . S
Cd352 O360 2.277 . S
O353 C350 1.160 . S
O353 Cd354 2.203 . S
Cd354 O353 2.203 . S
Cd354 O356 2.411 . S
Cd354 O357 2.333 . S
Cd354 O358 2.352 . S
Cd354 O362 2.277 . S
Cd354 O363 2.356 . S
C355 O360 1.209 . S
C355 O362 1.226 . S
O356 Cd352 2.273 . S
O356 Cd354 2.411 . S
O356 C359 1.320 . S
O357 Cd354 2.333 . S
O357 C359 1.214 . S
O358 Cd354 2.352 . S
O358 C361 1.258 . S
C359 O356 1.320 . S
C359 O357 1.214 . S
O360 Cd352 2.277 . S
O360 C355 1.209 . S
C361 O358 1.258 . S
C361 O363 1.282 . S
O362 Cd354 2.277 . S
O362 C355 1.226 . S
O363 Cd354 2.356 . S
O363 C361 1.282 . S
C364 O365 1.306 . S
C364 O367 1.160 . S
O365 C364 1.306 . S
O365 Cd366 2.228 . S
Cd366 O365 2.228 . S
Cd366 O370 2.273 . S
Cd366 O374 2.277 . S
O367 C364 1.160 . S
O367 Cd368 2.203 . S
Cd368 O367 2.203 . S
Cd368 O370 2.411 . S
Cd368 O371 2.333 . S
Cd368 O372 2.352 . S
Cd368 O376 2.277 . S
Cd368 O377 2.356 . S
C369 O374 1.209 . S
C369 O376 1.226 . S
O370 Cd366 2.273 . S
O370 Cd368 2.411 . S
O370 C373 1.320 . S
O371 Cd368 2.333 . S
O371 C373 1.214 . S
O372 Cd368 2.352 . S
O372 C375 1.258 . S
C373 O370 1.320 . S
C373 O371 1.214 . S
O374 Cd366 2.277 . S
O374 C369 1.209 . S
C375 O372 1.258 . S
C375 O377 1.282 . S
O376 Cd368 2.277 . S
O376 C369 1.226 . S
O377 Cd368 2.356 . S
O377 C375 1.282 . S
C378 O379 1.306 1_655 S
C378 O381 1.160 . S
O379 C378 1.306 1_455 S
O379 Cd380 2.228 . S
Cd380 O379 2.228 . S
Cd380 O384 2.273 . S
Cd380 O388 2.277 . S
O381 C378 1.160 . S
O381 Cd382 2.203 1_655 S
Cd382 O381 2.203 1_455 S
Cd382 O384 2.411 . S
Cd382 O385 2.333 . S
Cd382 O386 2.352 1_455 S
Cd382 O390 2.277 . S
Cd382 O391 2.356 1_455 S
C383 O388 1.209 . S
C383 O390 1.226 . S
O384 Cd380 2.273 . S
O384 Cd382 2.411 . S
O384 C387 1.320 . S
O385 Cd382 2.333 . S
O385 C387 1.214 . S
O386 Cd382 2.352 1_655 S
O386 C389 1.258 . S
C387 O384 1.320 . S
C387 O385 1.214 . S
O388 Cd380 2.277 . S
O388 C383 1.209 . S
C389 O386 1.258 . S
C389 O391 1.282 . S
O390 Cd382 2.277 . S
O390 C383 1.226 . S
O391 Cd382 2.356 1_655 S
O391 C389 1.282 . S
C392 O393 1.306 . S
C392 O395 1.160 . S
O393 C392 1.306 . S
O393 Cd394 2.228 . S
Cd394 O393 2.228 . S
Cd394 O398 2.273 . S
Cd394 O402 2.277 . S
O395 C392 1.160 . S
O395 Cd396 2.203 . S
Cd396 O395 2.203 . S
Cd396 O398 2.411 . S
Cd396 O399 2.333 . S
Cd396 O400 2.352 . S
Cd396 O404 2.277 . S
Cd396 O405 2.356 . S
C397 O402 1.209 . S
C397 O404 1.226 . S
O398 Cd394 2.273 . S
O398 Cd396 2.411 . S
O398 C401 1.320 . S
O399 Cd396 2.333 . S
O399 C401 1.214 . S
O400 Cd396 2.352 . S
O400 C403 1.258 . S
C401 O398 1.320 . S
C401 O399 1.214 . S
O402 Cd394 2.277 . S
O402 C397 1.209 . S
C403 O400 1.258 . S
C403 O405 1.282 . S
O404 Cd396 2.277 . S
O404 C397 1.226 . S
O405 Cd396 2.356 . S
O405 C403 1.282 . S
C406 O407 1.306 1_655 S
C406 O409 1.160 . S
O407 C406 1.306 1_455 S
O407 Cd408 2.228 . S
Cd408 O407 2.228 . S
Cd408 O412 2.273 . S
Cd408 O416 2.277 . S
O409 C406 1.160 . S
O409 Cd410 2.203 1_655 S
Cd410 O409 2.203 1_455 S
Cd410 O412 2.411 . S
Cd410 O413 2.333 . S
Cd410 O414 2.352 1_455 S
Cd410 O418 2.277 . S
Cd410 O419 2.356 1_455 S
C411 O416 1.209 . S
C411 O418 1.226 . S
O412 Cd408 2.273 . S
O412 Cd410 2.411 . S
O412 C415 1.320 . S
O413 Cd410 2.333 . S
O413 C415 1.214 . S
O414 Cd410 2.352 1_655 S
O414 C417 1.258 . S
C415 O412 1.320 . S
C415 O413 1.214 . S
O416 Cd408 2.277 . S
O416 C411 1.209 . S
C417 O414 1.258 . S
C417 O419 1.282 . S
O418 Cd410 2.277 . S
O418 C411 1.226 . S
O419 Cd410 2.356 1_655 S
O419 C417 1.282 . S
C420 O421 1.306 . S
C420 O423 1.160 . S
O421 C420 1.306 . S
O421 Cd422 2.228 . S
Cd422 O421 2.228 . S
Cd422 O426 2.273 . S
Cd422 O430 2.277 . S
O423 C420 1.160 . S
O423 Cd424 2.203 . S
Cd424 O423 2.203 . S
Cd424 O426 2.411 . S
Cd424 O427 2.333 . S
Cd424 O428 2.352 . S
Cd424 O432 2.277 . S
Cd424 O433 2.356 . S
C425 O430 1.209 . S
C425 O432 1.226 . S
O426 Cd422 2.273 . S
O426 Cd424 2.411 . S
O426 C429 1.320 . S
O427 Cd424 2.333 . S
O427 C429 1.214 . S
O428 Cd424 2.352 . S
O428 C431 1.258 . S
C429 O426 1.320 . S
C429 O427 1.214 . S
O430 Cd422 2.277 . S
O430 C425 1.209 . S
C431 O428 1.258 . S
C431 O433 1.282 . S
O432 Cd424 2.277 . S
O432 C425 1.226 . S
O433 Cd424 2.356 . S
O433 C431 1.282 . S
C434 O435 1.306 . S
C434 O437 1.160 . S
O435 C434 1.306 . S
O435 Cd436 2.228 . S
Cd436 O435 2.228 . S
Cd436 O440 2.273 . S
Cd436 O444 2.277 . S
O437 C434 1.160 . S
O437 Cd438 2.203 . S
Cd438 O437 2.203 . S
Cd438 O440 2.411 . S
Cd438 O441 2.333 . S
Cd438 O442 2.352 . S
Cd438 O446 2.277 . S
Cd438 O447 2.356 . S
C439 O444 1.209 . S
C439 O446 1.226 . S
O440 Cd436 2.273 . S
O440 Cd438 2.411 . S
O440 C443 1.320 . S
O441 Cd438 2.333 . S
O441 C443 1.214 . S
O442 Cd438 2.352 . S
O442 C445 1.258 . S
C443 O440 1.320 . S
C443 O441 1.214 . S
O444 Cd436 2.277 . S
O444 C439 1.209 . S
C445 O442 1.258 . S
C445 O447 1.282 . S
O446 Cd438 2.277 . S
O446 C439 1.226 . S
O447 Cd438 2.356 . S
O447 C445 1.282 . S
C448 O449 1.306 . S
C448 O451 1.160 . S
O449 C448 1.306 . S
O449 Cd450 2.228 . S
Cd450 O449 2.228 . S
Cd450 O454 2.273 . S
Cd450 O458 2.277 . S
O451 C448 1.160 . S
O451 Cd452 2.203 . S
Cd452 O451 2.203 . S
Cd452 O454 2.411 . S
Cd452 O455 2.333 . S
Cd452 O456 2.352 . S
Cd452 O460 2.277 . S
Cd452 O461 2.356 . S
C453 O458 1.209 . S
C453 O460 1.226 . S
O454 Cd450 2.273 . S
O454 Cd452 2.411 . S
O454 C457 1.320 . S
O455 Cd452 2.333 . S
O455 C457 1.214 . S
O456 Cd452 2.352 . S
O456 C459 1.258 . S
C457 O454 1.320 . S
C457 O455 1.214 . S
O458 Cd450 2.277 . S
O458 C453 1.209 . S
C459 O456 1.258 . S
C459 O461 1.282 . S
O460 Cd452 2.277 . S
O460 C453 1.226 . S
O461 Cd452 2.356 . S
O461 C459 1.282 . S
C462 O463 1.306 1_556 S
C462 O465 1.160 . S
O463 C462 1.306 1_554 S
O463 Cd464 2.228 . S
Cd464 O463 2.228 . S
Cd464 O468 2.273 . S
Cd464 O472 2.277 . S
O465 C462 1.160 . S
O465 Cd466 2.203 1_556 S
Cd466 O465 2.203 1_554 S
Cd466 O468 2.411 . S
Cd466 O469 2.333 . S
Cd466 O470 2.352 1_554 S
Cd466 O474 2.277 . S
Cd466 O475 2.356 1_554 S
C467 O472 1.209 . S
C467 O474 1.226 . S
O468 Cd464 2.273 . S
O468 Cd466 2.411 . S
O468 C471 1.320 . S
O469 Cd466 2.333 . S
O469 C471 1.214 . S
O470 Cd466 2.352 1_556 S
O470 C473 1.258 . S
C471 O468 1.320 . S
C471 O469 1.214 . S
O472 Cd464 2.277 . S
O472 C467 1.209 . S
C473 O470 1.258 . S
C473 O475 1.282 . S
O474 Cd466 2.277 . S
O474 C467 1.226 . S
O475 Cd466 2.356 1_556 S
O475 C473 1.282 . S
C476 O477 1.306 . S
C476 O479 1.160 . S
O477 C476 1.306 . S
O477 Cd478 2.228 . S
Cd478 O477 2.228 . S
Cd478 O482 2.273 . S
Cd478 O486 2.277 . S
O479 C476 1.160 . S
O479 Cd480 2.203 . S
Cd480 O479 2.203 . S
Cd480 O482 2.411 . S
Cd480 O483 2.333 . S
Cd480 O484 2.352 . S
Cd480 O488 2.277 . S
Cd480 O489 2.356 . S
C481 O486 1.209 . S
C481 O488 1.226 . S
O482 Cd478 2.273 . S
O482 Cd480 2.411 . S
O482 C485 1.320 . S
O483 Cd480 2.333 . S
O483 C485 1.214 . S
O484 Cd480 2.352 . S
O484 C487 1.258 . S
C485 O482 1.320 . S
C485 O483 1.214 . S
O486 Cd478 2.277 . S
O486 C481 1.209 . S
C487 O484 1.258 . S
C487 O489 1.282 . S
O488 Cd480 2.277 . S
O488 C481 1.226 . S
O489 Cd480 2.356 . S
O489 C487 1.282 . S
C490 O491 1.306 . S
C490 O493 1.160 1_455 S
O491 C490 1.306 . S
O491 Cd492 2.228 . S
Cd492 O491 2.228 . S
Cd492 O496 2.273 1_455 S
Cd492 O500 2.277 1_455 S
O493 C490 1.160 1_655 S
O493 Cd494 2.203 . S
Cd494 O493 2.203 . S
Cd494 O496 2.411 . S
Cd494 O497 2.333 . S
Cd494 O498 2.352 . S
Cd494 O502 2.277 . S
Cd494 O503 2.356 . S
C495 O500 1.209 . S
C495 O502 1.226 . S
O496 Cd492 2.273 1_655 S
O496 Cd494 2.411 . S
O496 C499 1.320 . S
O497 Cd494 2.333 . S
O497 C499 1.214 . S
O498 Cd494 2.352 . S
O498 C501 1.258 . S
C499 O496 1.320 . S
C499 O497 1.214 . S
O500 Cd492 2.277 1_655 S
O500 C495 1.209 . S
C501 O498 1.258 . S
C501 O503 1.282 . S
O502 Cd494 2.277 . S
O502 C495 1.226 . S
O503 Cd494 2.356 . S
O503 C501 1.282 . S
C504 O505 1.306 . S
C504 O507 1.160 . S
O505 C504 1.306 . S
O505 Cd506 2.228 . S
Cd506 O505 2.228 . S
Cd506 O510 2.273 . S
Cd506 O514 2.277 . S
O507 C504 1.160 . S
O507 Cd508 2.203 . S
Cd508 O507 2.203 . S
Cd508 O510 2.411 . S
Cd508 O511 2.333 . S
Cd508 O512 2.352 . S
Cd508 O516 2.277 . S
Cd508 O517 2.356 . S
C509 O514 1.209 . S
C509 O516 1.226 . S
O510 Cd506 2.273 . S
O510 Cd508 2.411 . S
O510 C513 1.320 . S
O511 Cd508 2.333 . S
O511 C513 1.214 . S
O512 Cd508 2.352 . S
O512 C515 1.258 . S
C513 O510 1.320 . S
C513 O511 1.214 . S
O514 Cd506 2.277 . S
O514 C509 1.209 . S
C515 O512 1.258 . S
C515 O517 1.282 . S
O516 Cd508 2.277 . S
O516 C509 1.226 . S
O517 Cd508 2.356 . S
O517 C515 1.282 . S
C518 O519 1.306 1_554 S
C518 O521 1.160 1_455 S
O519 C518 1.306 1_556 S
O519 Cd520 2.228 . S
Cd520 O519 2.228 . S
Cd520 O524 2.273 1_455 S
Cd520 O528 2.277 1_455 S
O521 C518 1.160 1_655 S
O521 Cd522 2.203 1_554 S
Cd522 O521 2.203 1_556 S
Cd522 O524 2.411 . S
Cd522 O525 2.333 . S
Cd522 O526 2.352 1_556 S
Cd522 O530 2.277 . S
Cd522 O531 2.356 1_556 S
C523 O528 1.209 . S
C523 O530 1.226 . S
O524 Cd520 2.273 1_655 S
O524 Cd522 2.411 . S
O524 C527 1.320 . S
O525 Cd522 2.333 . S
O525 C527 1.214 . S
O526 Cd522 2.352 1_554 S
O526 C529 1.258 . S
C527 O524 1.320 . S
C527 O525 1.214 . S
O528 Cd520 2.277 1_655 S
O528 C523 1.209 . S
C529 O526 1.258 . S
C529 O531 1.282 . S
O530 Cd522 2.277 . S
O530 C523 1.226 . S
O531 Cd522 2.356 1_554 S
O531 C529 1.282 . S
C532 O533 1.306 . S
C532 O535 1.160 . S
O533 C532 1.306 . S
O533 Cd534 2.228 . S
Cd534 O533 2.228 . S
Cd534 O538 2.273 . S
Cd534 O542 2.277 . S
O535 C532 1.160 . S
O535 Cd536 2.203 . S
Cd536 O535 2.203 . S
Cd536 O538 2.411 . S
Cd536 O539 2.333 . S
Cd536 O540 2.352 . S
Cd536 O544 2.277 . S
Cd536 O545 2.356 . S
C537 O542 1.209 . S
C537 O544 1.226 . S
O538 Cd534 2.273 . S
O538 Cd536 2.411 . S
O538 C541 1.320 . S
O539 Cd536 2.333 . S
O539 C541 1.214 . S
O540 Cd536 2.352 . S
O540 C543 1.258 . S
C541 O538 1.320 . S
C541 O539 1.214 . S
O542 Cd534 2.277 . S
O542 C537 1.209 . S
C543 O540 1.258 . S
C543 O545 1.282 . S
O544 Cd536 2.277 . S
O544 C537 1.226 . S
O545 Cd536 2.356 . S
O545 C543 1.282 . S
C546 O547 1.306 . S
C546 O549 1.160 . S
O547 C546 1.306 . S
O547 Cd548 2.228 . S
Cd548 O547 2.228 . S
Cd548 O552 2.273 . S
Cd548 O556 2.277 . S
O549 C546 1.160 . S
O549 Cd550 2.203 . S
Cd550 O549 2.203 . S
Cd550 O552 2.411 . S
Cd550 O553 2.333 . S
Cd550 O554 2.352 . S
Cd550 O558 2.277 . S
Cd550 O559 2.356 . S
C551 O556 1.209 . S
C551 O558 1.226 . S
O552 Cd548 2.273 . S
O552 Cd550 2.411 . S
O552 C555 1.320 . S
O553 Cd550 2.333 . S
O553 C555 1.214 . S
O554 Cd550 2.352 . S
O554 C557 1.258 . S
C555 O552 1.320 . S
C555 O553 1.214 . S
O556 Cd548 2.277 . S
O556 C551 1.209 . S
C557 O554 1.258 . S
C557 O559 1.282 . S
O558 Cd550 2.277 . S
O558 C551 1.226 . S
O559 Cd550 2.356 . S
O559 C557 1.282 . S
C560 O561 1.306 . S
C560 O563 1.160 . S
O561 C560 1.306 . S
O561 Cd562 2.228 . S
Cd562 O561 2.228 . S
Cd562 O566 2.273 . S
Cd562 O570 2.277 . S
O563 C560 1.160 . S
O563 Cd564 2.203 . S
Cd564 O563 2.203 . S
Cd564 O566 2.411 . S
Cd564 O567 2.333 . S
Cd564 O568 2.352 . S
Cd564 O572 2.277 . S
Cd564 O573 2.356 . S
C565 O570 1.209 . S
C565 O572 1.226 . S
O566 Cd562 2.273 . S
O566 Cd564 2.411 . S
O566 C569 1.320 . S
O567 Cd564 2.333 . S
O567 C569 1.214 . S
O568 Cd564 2.352 . S
O568 C571 1.258 . S
C569 O566 1.320 . S
C569 O567 1.214 . S
O570 Cd562 2.277 . S
O570 C565 1.209 . S
C571 O568 1.258 . S
C571 O573 1.282 . S
O572 Cd564 2.277 . S
O572 C565 1.226 . S
O573 Cd564 2.356 . S
O573 C571 1.282 . S
C574 O575 1.306 . S
C574 O577 1.160 . S
O575 C574 1.306 . S
O575 Cd576 2.228 . S
Cd576 O575 2.228 . S
Cd576 O580 2.273 . S
Cd576 O584 2.277 . S
O577 C574 1.160 . S
O577 Cd578 2.203 . S
Cd578 O577 2.203 . S
Cd578 O580 2.411 . S
Cd578 O581 2.333 . S
Cd578 O582 2.352 . S
Cd578 O586 2.277 . S
Cd578 O587 2.356 . S
C579 O584 1.209 . S
C579 O586 1.226 . S
O580 Cd576 2.273 . S
O580 Cd578 2.411 . S
O580 C583 1.320 . S
O581 Cd578 2.333 . S
O581 C583 1.214 . S
O582 Cd578 2.352 . S
O582 C585 1.258 . S
C583 O580 1.320 . S
C583 O581 1.214 . S
O584 Cd576 2.277 . S
O584 C579 1.209 . S
C585 O582 1.258 . S
C585 O587 1.282 . S
O586 Cd578 2.277 . S
O586 C579 1.226 . S
O587 Cd578 2.356 . S
O587 C585 1.282 . S
C588 O589 1.306 1_565 S
C588 O591 1.160 . S
O589 C588 1.306 1_545 S
O589 Cd590 2.228 . S
Cd590 O589 2.228 . S
Cd590 O594 2.273 . S
Cd590 O598 2.277 . S
O591 C588 1.160 . S
O591 Cd592 2.203 1_565 S
Cd592 O591 2.203 1_545 S
Cd592 O594 2.411 . S
Cd592 O595 2.333 . S
Cd592 O596 2.352 1_545 S
Cd592 O600 2.277 . S
Cd592 O601 2.356 1_545 S
C593 O598 1.209 . S
C593 O600 1.226 . S
O594 Cd590 2.273 . S
O594 Cd592 2.411 . S
O594 C597 1.320 . S
O595 Cd592 2.333 . S
O595 C597 1.214 . S
O596 Cd592 2.352 1_565 S
O596 C599 1.258 . S
C597 O594 1.320 . S
C597 O595 1.214 . S
O598 Cd590 2.277 . S
O598 C593 1.209 . S
C599 O596 1.258 . S
C599 O601 1.282 . S
O600 Cd592 2.277 . S
O600 C593 1.226 . S
O601 Cd592 2.356 1_565 S
O601 C599 1.282 . S
C602 O603 1.306 . S
C602 O605 1.160 . S
O603 C602 1.306 . S
O603 Cd604 2.228 . S
Cd604 O603 2.228 . S
Cd604 O608 2.273 . S
Cd604 O612 2.277 . S
O605 C602 1.160 . S
O605 Cd606 2.203 . S
Cd606 O605 2.203 . S
Cd606 O608 2.411 . S
Cd606 O609 2.333 . S
Cd606 O610 2.352 . S
Cd606 O614 2.277 . S
Cd606 O615 2.356 . S
C607 O612 1.209 . S
C607 O614 1.226 . S
O608 Cd604 2.273 . S
O608 Cd606 2.411 . S
O608 C611 1.320 . S
O609 Cd606 2.333 . S
O609 C611 1.214 . S
O610 Cd606 2.352 . S
O610 C613 1.258 . S
C611 O608 1.320 . S
C611 O609 1.214 . S
O612 Cd604 2.277 . S
O612 C607 1.209 . S
C613 O610 1.258 . S
C613 O615 1.282 . S
O614 Cd606 2.277 . S
O614 C607 1.226 . S
O615 Cd606 2.356 . S
O615 C613 1.282 . S
C616 O617 1.306 . S
C616 O619 1.160 . S
O617 C616 1.306 . S
O617 Cd618 2.228 . S
Cd618 O617 2.228 . S
Cd618 O622 2.273 . S
Cd618 O626 2.277 . S
O619 C616 1.160 . S
O619 Cd620 2.203 . S
Cd620 O619 2.203 . S
Cd620 O622 2.411 . S
Cd620 O623 2.333 . S
Cd620 O624 2.352 . S
Cd620 O628 2.277 . S
Cd620 O629 2.356 . S
C621 O626 1.209 . S
C621 O628 1.226 . S
O622 Cd618 2.273 . S
O622 Cd620 2.411 . S
O622 C625 1.320 . S
O623 Cd620 2.333 . S
O623 C625 1.214 . S
O624 Cd620 2.352 . S
O624 C627 1.258 . S
C625 O622 1.320 . S
C625 O623 1.214 . S
O626 Cd618 2.277 . S
O626 C621 1.209 . S
C627 O624 1.258 . S
C627 O629 1.282 . S
O628 Cd620 2.277 . S
O628 C621 1.226 . S
O629 Cd620 2.356 . S
O629 C627 1.282 . S
C630 O631 1.306 . S
C630 O633 1.160 . S
O631 C630 1.306 . S
O631 Cd632 2.228 . S
Cd632 O631 2.228 . S
Cd632 O636 2.273 . S
Cd632 O640 2.277 . S
O633 C630 1.160 . S
O633 Cd634 2.203 . S
Cd634 O633 2.203 . S
Cd634 O636 2.411 . S
Cd634 O637 2.333 . S
Cd634 O638 2.352 . S
Cd634 O642 2.277 . S
Cd634 O643 2.356 . S
C635 O640 1.209 . S
C635 O642 1.226 . S
O636 Cd632 2.273 . S
O636 Cd634 2.411 . S
O636 C639 1.320 . S
O637 Cd634 2.333 . S
O637 C639 1.214 . S
O638 Cd634 2.352 . S
O638 C641 1.258 . S
C639 O636 1.320 . S
C639 O637 1.214 . S
O640 Cd632 2.277 . S
O640 C635 1.209 . S
C641 O638 1.258 . S
C641 O643 1.282 . S
O642 Cd634 2.277 . S
O642 C635 1.226 . S
O643 Cd634 2.356 . S
O643 C641 1.282 . S
C644 O645 1.306 1_545 S
C644 O647 1.160 1_554 S
O645 C644 1.306 1_565 S
O645 Cd646 2.228 . S
Cd646 O645 2.228 . S
Cd646 O650 2.273 1_554 S
Cd646 O654 2.277 1_554 S
O647 C644 1.160 1_556 S
O647 Cd648 2.203 1_545 S
Cd648 O647 2.203 1_565 S
Cd648 O650 2.411 . S
Cd648 O651 2.333 . S
Cd648 O652 2.352 1_565 S
Cd648 O656 2.277 . S
Cd648 O657 2.356 1_565 S
C649 O654 1.209 . S
C649 O656 1.226 . S
O650 Cd646 2.273 1_556 S
O650 Cd648 2.411 . S
O650 C653 1.320 . S
O651 Cd648 2.333 . S
O651 C653 1.214 . S
O652 Cd648 2.352 1_545 S
O652 C655 1.258 . S
C653 O650 1.320 . S
C653 O651 1.214 . S
O654 Cd646 2.277 1_556 S
O654 C649 1.209 . S
C655 O652 1.258 . S
C655 O657 1.282 . S
O656 Cd648 2.277 . S
O656 C649 1.226 . S
O657 Cd648 2.356 1_545 S
O657 C655 1.282 . S
C658 O659 1.306 1_565 S
C658 O661 1.160 . S
O659 C658 1.306 1_545 S
O659 Cd660 2.228 . S
Cd660 O659 2.228 . S
Cd660 O664 2.273 . S
Cd660 O668 2.277 . S
O661 C658 1.160 . S
O661 Cd662 2.203 1_565 S
Cd662 O661 2.203 1_545 S
Cd662 O664 2.411 . S
Cd662 O665 2.333 . S
Cd662 O666 2.352 1_545 S
Cd662 O670 2.277 . S
Cd662 O671 2.356 1_545 S
C663 O668 1.209 . S
C663 O670 1.226 . S
O664 Cd660 2.273 . S
O664 Cd662 2.411 . S
O664 C667 1.320 . S
O665 Cd662 2.333 . S
O665 C667 1.214 . S
O666 Cd662 2.352 1_565 S
O666 C669 1.258 . S
C667 O664 1.320 . S
C667 O665 1.214 . S
O668 Cd660 2.277 . S
O668 C663 1.209 . S
C669 O666 1.258 . S
C669 O671 1.282 . S
O670 Cd662 2.277 . S
O670 C663 1.226 . S
O671 Cd662 2.356 1_565 S
O671 C669 1.282 . S
C137 C11 2.298 . S
C151 C25 2.298 . S
C165 C39 2.298 . S
C123 C53 2.298 . S
C67 C221 2.298 . S
C81 C179 2.298 . S
C95 C193 2.298 . S
C207 C109 2.298 . S
C235 C263 2.298 . S
C249 C655 2.298 . S
C277 C669 2.298 . S
C291 C641 2.298 . S
C305 C627 2.298 . S
C585 C319 2.298 . S
C333 C613 2.298 . S
C473 C347 2.298 . S
C487 C361 2.298 . S
C501 C375 2.298 . S
C459 C389 2.298 . S
C557 C403 2.298 . S
C515 C417 2.298 . S
C431 C529 2.298 . S
C445 C543 2.298 . S
C571 C599 2.298 . S
C224 C5 2.029 . S
C658 C19 2.029 . S
C33 C294 2.029 . S
C644 C47 2.029 . S
C61 C574 2.029 . S
C588 C75 2.029 . S
C89 C602 2.029 . S
C280 C103 2.029 . S
C117 C0 2.029 . S
C14 C131 2.029 . S
C145 C28 2.029 . S
C42 C159 2.029 . S
C173 C56 2.029 . S
C70 C187 2.029 . S
C201 C84 2.029 . S
C215 C98 2.029 . S
C229 C112 2.029 . S
C243 C504 2.029 . S
C518 C257 2.029 . S
C532 C271 2.029 . S
C210 C285 2.029 . S
C299 C140 2.029 . S
C490 C313 2.029 . S
C327 C462 2.029 . S
C341 C560 2.029 . S
C355 C322 2.029 . S
C369 C630 2.029 . S
C383 C308 2.029 . S
C397 C238 2.029 . S
C411 C252 2.029 . S
C266 C425 2.029 . S
C616 C439 2.029 . S
C336 C453 2.029 . S
C350 C467 2.029 . S
C481 C364 2.029 . S
C378 C495 2.029 . S
C509 C392 2.029 . S
C523 C406 2.029 . S
C537 C420 2.029 . S
C434 C551 2.029 . S
C565 C448 2.029 . S
C579 C168 2.029 . S
C182 C593 2.029 . S
C607 C196 2.029 . S
C621 C546 2.029 . S
C476 C635 2.029 . S
C154 C649 2.029 . S
C126 C663 2.029 . S
C317 C9 1.473 . S
C23 C569 1.473 . S
C37 C331 1.473 . S
C639 C51 1.473 . S
C65 C261 1.473 . S
C275 C79 1.473 . S
C625 C93 1.473 . S
C107 C247 1.473 . S
C191 C121 1.473 . S
C135 C205 1.473 . S
C219 C149 1.473 . S
C163 C177 1.473 . S
C359 C233 1.473 . S
C289 C429 1.473 . S
C303 C387 1.473 . S
C653 C345 1.473 . S
C373 C667 1.473 . S
C401 C597 1.473 . S
C415 C611 1.473 . S
C583 C443 1.473 . S
C527 C457 1.473 . S
C471 C541 1.473 . S
C485 C555 1.473 . S
C513 C499 1.473 . S
