# Generated by pormake.
# Topology sxc, (6)-cn, num edge types: 1
# Building blocks:
#     Node 0, Type 0, BuildingBlock: CUKXOW_clean_sbu_0, # of connection points: 6
#     Node 1, Type 0, BuildingBlock: CUKXOW_clean_sbu_0, # of connection points: 6
#     Node 2, Type 0, BuildingBlock: CUKXOW_clean_sbu_0, # of connection points: 6
#     Edge 3, Type (0, 0), BuildingBlock: TEMPAE_clean_linker_10, # of connection points: 2
#     Edge 4, Type (0, 0), BuildingBlock: TEMPAE_clean_linker_10, # of connection points: 2
#     Edge 5, Type (0, 0), BuildingBlock: TEMPAE_clean_linker_10, # of connection points: 2
#     Edge 6, Type (0, 0), BuildingBlock: TEMPAE_clean_linker_10, # of connection points: 2
#     Edge 7, Type (0, 0), BuildingBlock: TEMPAE_clean_linker_10, # of connection points: 2
#     Edge 8, Type (0, 0), BuildingBlock: TEMPAE_clean_linker_10, # of connection points: 2
#     Edge 9, Type (0, 0), BuildingBlock: TEMPAE_clean_linker_10, # of connection points: 2
#     Edge 10, Type (0, 0), BuildingBlock: TEMPAE_clean_linker_10, # of connection points: 2
#     Edge 11, Type (0, 0), BuildingBlock: TEMPAE_clean_linker_10, # of connection points: 2
# Relax obj value: 0.039
# Max RMSD: 0.097
# Mean RMSD: 0.061
data_MOF--net-sxc--node1-CUKXOW_clean_sbu_0--edge1-TEMPAE_clean_linker_10
_symmetry_space_group_name_H-M    P1
_symmetry_Int_Tables_number       1
_symmetry_cell_setting            triclinic
loop_
_symmetry_equiv_pos_as_xyz
'x, y, z'
_cell_length_a     14.823401
_cell_length_b     17.750091
_cell_length_c     46.604778
_cell_angle_alpha  88.663569
_cell_angle_beta   101.25768
_cell_angle_gamma 124.98342
loop_
_atom_site_label
_atom_site_type_symbol
_atom_site_fract_x
_atom_site_fract_y
_atom_site_fract_z
_atom_type_partial_charge
Tb0 Tb 0.94858 0.06954 -0.00371 0.0
C1 C 1.04038 0.04616 0.06148 0.0
Tb2 Tb 0.08928 0.98743 0.00582 0.0
O3 O 0.77616 0.93777 0.99113 0.0
O4 O 0.91716 0.93796 -0.00058 0.0
O5 O 0.97793 0.06772 0.04399 0.0
C6 C 0.10773 0.84767 0.01327 0.0
O7 O 0.09442 1.01661 0.05159 0.0
C8 C 0.22732 0.17243 0.00375 0.0
C9 C 0.99487 1.00789 0.94135 0.0
O10 O 0.06093 0.87013 0.02862 0.0
O11 O 0.14961 0.90702 -0.00565 0.0
O12 O 0.26004 0.11762 0.0074 0.0
O13 O 0.12068 0.11909 0.0018 0.0
O14 O 1.02187 0.9593 0.95828 0.0
O15 O 0.97654 0.06544 0.95221 0.0
C16 C 0.94212 0.21492 0.00103 0.0
O17 O 0.88234 0.14938 0.97908 0.0
O18 O 1.00067 0.19604 0.02005 0.0
C19 C 0.80981 0.88366 -0.00431 0.0
Tb20 Tb 0.18225 0.22557 0.34128 0.0
C21 C 0.09188 0.10169 0.28123 0.0
Tb22 Tb 0.06196 1.01128 0.34096 0.0
O23 O 0.35647 0.26823 0.34346 0.0
O24 O 0.22613 0.13261 0.34395 0.0
O25 O 0.11081 0.17676 0.2944 0.0
C26 C 0.05555 0.86148 0.34736 0.0
O27 O 0.08484 0.03399 0.29593 0.0
C28 C 0.91326 0.05238 0.3361 0.0
C29 C 0.14464 0.13391 0.40165 0.0
O30 O 0.99104 0.86888 0.32596 0.0
O31 O 0.12106 0.93724 0.36508 0.0
O32 O 0.88604 0.96828 0.33613 0.0
O33 O 1.01869 0.10461 0.33808 0.0
O34 O 0.0974 0.05056 0.38799 0.0
O35 O 0.1838 0.20975 0.38795 0.0
C36 C 0.19569 0.37866 0.34647 0.0
O37 O 0.16199 0.31625 0.36448 0.0
O38 O 0.2246 0.35627 0.32532 0.0
C39 C 0.33044 0.18457 0.34418 0.0
Tb40 Tb 0.1715 0.18931 0.6831 0.0
C41 C 0.06178 0.044 0.72895 0.0
Tb42 Tb 1.01555 0.99974 0.66137 0.0
O43 O 0.05763 0.22954 0.66864 0.0
O44 O 0.99328 0.09557 0.67986 0.0
O45 O 0.14293 0.12888 0.72473 0.0
C46 C 0.87404 0.83217 0.63129 0.0
O47 O 0.99093 0.97968 0.70641 0.0
C48 C 0.22818 0.05507 0.67758 0.0
C49 C 0.10221 0.14039 0.61544 0.0
O50 O 0.98201 0.88488 0.63426 0.0
O51 O 0.84508 0.87427 0.64557 0.0
O52 O 0.14352 0.97893 0.68397 0.0
O53 O 0.19086 0.09587 0.663 0.0
O54 O 1.01155 0.06391 0.62098 0.0
O55 O 0.18832 0.19688 0.63736 0.0
C56 C 0.3761 0.33397 0.71014 0.0
O57 O 0.29787 0.33771 0.69329 0.0
O58 O 0.33197 0.24811 0.71389 0.0
C59 C 0.96604 0.14764 0.66873 0.0
C60 C 1.04349 0.37324 0.02544 0.0
C61 C 0.95848 0.30471 0.00277 0.0
C62 C 0.0692 0.46222 0.0269 0.0
C63 C 1.00745 0.48295 0.00532 0.0
C64 C 0.91948 0.41352 0.98272 0.0
C65 C 0.89656 0.32489 0.98153 0.0
C66 C 0.16286 0.53422 0.05148 0.0
C67 C 0.85008 0.43307 0.95986 0.0
C68 C 1.01135 0.68845 0.02748 0.0
C69 C 0.08972 0.75722 0.01267 0.0
C70 C 0.98238 0.5984 0.02484 0.0
C71 C 1.03383 0.57702 0.00713 0.0
C72 C 0.11477 0.64668 -0.00745 0.0
C73 C 0.1412 0.73619 -0.00468 0.0
C74 C 0.89533 0.52595 0.04062 0.0
C75 C 0.17377 0.62673 0.97423 0.0
H76 H 0.09194 0.35794 0.04188 0.0
H77 H 0.83099 0.27183 0.96401 0.0
H78 H 0.23077 0.59252 0.0421 0.0
H79 H 0.13063 0.56291 0.06401 0.0
H80 H 0.20007 0.50581 0.0671 0.0
H81 H 0.78283 0.37098 0.94421 0.0
H82 H 0.8102 0.45795 0.97079 0.0
H83 H 0.90558 0.48886 0.94724 0.0
H84 H 0.97016 0.70431 0.04058 0.0
H85 H 0.20131 0.78944 0.98376 0.0
H86 H 0.92462 0.48631 0.05253 0.0
H87 H 0.81632 0.47605 0.02426 0.0
H88 H 0.87574 0.55675 0.05672 0.0
H89 H 0.22369 0.6059 0.98837 0.0
H90 H 0.23142 0.68759 0.96344 0.0
H91 H 0.11074 0.56812 0.95701 0.0
C92 C 0.40882 0.08944 0.35676 0.0
C93 C 0.40948 0.15911 0.34173 0.0
C94 C 0.4923 0.07356 0.35656 0.0
C95 C 0.57623 0.1259 0.3399 0.0
C96 C 0.5741 0.19404 0.32387 0.0
C97 C 0.49303 0.21104 0.32555 0.0
C98 C 0.49034 1.00099 0.37449 0.0
C99 C 0.6568 0.2486 0.30455 0.0
C100 C 0.85825 0.15053 0.35476 0.0
C101 C 0.83227 0.07753 0.33564 0.0
C102 C 0.77548 0.16558 0.35695 0.0
C103 C 0.66492 0.10897 0.33864 0.0
C104 C 0.63995 0.03688 0.31871 0.0
C105 C 0.72256 1.02084 0.318 0.0
C106 C 0.80549 0.24025 0.3796 0.0
C107 C 0.52552 0.97602 0.2981 0.0
H108 H 0.34594 0.0498 0.36967 0.0
H109 H 0.49424 0.26492 0.31378 0.0
H110 H 0.44385 0.93486 0.36014 0.0
H111 H 0.5769 1.02097 0.38398 0.0
H112 H 0.44649 0.98854 0.39271 0.0
H113 H 0.63767 0.29274 0.2914 0.0
H114 H 0.74371 0.29376 0.31825 0.0
H115 H 0.65562 0.20085 0.28926 0.0
H116 H 0.94163 0.19307 0.36907 0.0
H117 H 0.7013 0.96363 0.30339 0.0
H118 H 0.73978 0.21243 0.39271 0.0
H119 H 0.80881 0.29739 0.36847 0.0
H120 H 0.88854 0.26921 0.39483 0.0
H121 H 0.46161 0.92971 0.31083 0.0
H122 H 0.52452 0.93239 0.28116 0.0
H123 H 0.49968 1.01872 0.28684 0.0
C124 C 0.866 0.69129 0.63672 0.0
C125 C 0.80951 0.73189 0.62654 0.0
C126 C 0.80932 0.60641 0.6482 0.0
C127 C 0.69375 0.56115 0.6477 0.0
C128 C 0.63238 0.59213 0.63106 0.0
C129 C 0.69213 0.67946 0.62125 0.0
C130 C 0.87749 0.57489 0.66521 0.0
C131 C 0.50671 0.54112 0.62804 0.0
C132 C 0.5038 0.34844 0.68124 0.0
C133 C 0.4874 0.38825 0.70356 0.0
C134 C 0.5799 0.40403 0.66391 0.0
C135 C 0.64465 0.50073 0.67046 0.0
C136 C 0.64202 0.54009 0.69624 0.0
C137 C 0.55977 0.48302 0.71203 0.0
C138 C 0.57717 0.35965 0.63621 0.0
C139 C 0.71523 0.64335 0.70484 0.0
H140 H 0.9572 0.73165 0.64014 0.0
H141 H 0.64876 0.71062 0.61264 0.0
H142 H 0.91313 0.61002 0.68803 0.0
H143 H 0.82557 0.4992 0.66644 0.0
H144 H 0.94917 0.59416 0.65518 0.0
H145 H 0.46929 0.56172 0.60928 0.0
H146 H 0.46336 0.46519 0.62482 0.0
H147 H 0.49053 0.5577 0.64846 0.0
H148 H 0.44617 0.27456 0.67461 0.0
H149 H 0.5462 0.513 0.72929 0.0
H150 H 0.66142 0.39768 0.63078 0.0
H151 H 0.51852 0.36035 0.61752 0.0
H152 H 0.54618 0.2866 0.63819 0.0
H153 H 0.8022 0.6749 0.70192 0.0
H154 H 0.71963 0.6605 0.72808 0.0
H155 H 0.67948 0.67517 0.69053 0.0
C156 C 0.75628 0.04315 0.6658 0.0
C157 C 0.85625 0.13262 0.66895 0.0
C158 C 0.65262 0.02887 0.66645 0.0
C159 C 0.64912 0.10575 0.67142 0.0
C160 C 0.75054 0.19626 0.67499 0.0
C161 C 0.85183 0.20847 0.67312 0.0
C162 C 0.54654 0.93139 0.66153 0.0
C163 C 0.75314 0.2811 0.68048 0.0
C164 C 0.37336 0.08705 0.64975 0.0
C165 C 0.33614 0.06913 0.67618 0.0
C166 C 0.47308 0.09662 0.64769 0.0
C167 C 0.5399 0.09169 0.67294 0.0
C168 C 0.50359 0.07571 0.69986 0.0
C169 C 0.40102 0.06261 0.70098 0.0
C170 C 0.5062 0.11092 0.61835 0.0
C171 C 0.57458 0.07474 0.72769 0.0
H172 H 0.75889 0.98426 0.66244 0.0
H173 H 0.92852 0.278 0.67562 0.0
H174 H 0.51047 0.9145 0.6814 0.0
H175 H 0.48208 0.92535 0.64304 0.0
H176 H 0.56217 0.87947 0.65649 0.0
H177 H 0.83876 0.3406 0.69188 0.0
H178 H 0.73066 0.30133 0.65905 0.0
H179 H 0.69216 0.26832 0.6938 0.0
H180 H 0.32293 0.09151 0.63045 0.0
H181 H 0.37271 0.04931 0.72147 0.0
H182 H 0.51163 0.05427 0.61166 0.0
H183 H 0.59094 0.1767 0.62019 0.0
H184 H 0.44513 0.11278 0.60078 0.0
H185 H 0.5866 1.01945 0.72479 0.0
H186 H 0.53604 0.06345 0.74697 0.0
H187 H 0.65955 0.14158 0.73248 0.0
C188 C 0.75097 0.72964 0.01739 0.0
C189 C 0.73038 0.77808 -0.00427 0.0
C190 C 0.66847 0.63345 0.01938 0.0
C191 C 0.56259 0.58061 -0.0015 0.0
C192 C 0.54293 0.62934 0.97632 0.0
C193 C 0.6245 0.72609 0.97566 0.0
C194 C 0.69199 0.58965 0.04512 0.0
C195 C 0.43401 0.57946 0.95327 0.0
C196 C 0.40261 0.31138 0.98931 0.0
C197 C 0.30644 0.27677 0.00111 0.0
C198 C 0.48317 0.40776 0.9878 0.0
C199 C 0.47341 0.47547 -0.00033 0.0
C200 C 0.37652 0.44091 0.01187 0.0
C201 C 0.29441 0.34341 0.01193 0.0
C202 C 0.57802 0.43695 0.97266 0.0
C203 C 0.35753 0.50583 0.02522 0.0
H204 H 0.82959 0.76807 0.03381 0.0
H205 H 0.60505 0.76151 0.95906 0.0
H206 H 0.62903 0.56809 0.05877 0.0
H207 H 0.68245 0.52638 0.0374 0.0
H208 H 0.77795 0.63765 0.05917 0.0
H209 H 0.43699 0.62208 0.93515 0.0
H210 H 0.41468 0.51364 0.94379 0.0
H211 H 0.36378 0.56205 0.96359 0.0
H212 H 0.41445 0.26216 0.9807 0.0
H213 H 0.22269 0.31986 0.02152 0.0
H214 H 0.66079 0.48248 0.98824 0.0
H215 H 0.57573 0.47756 0.95441 0.0
H216 H 0.57288 0.37695 0.96359 0.0
H217 H 0.43499 0.57755 0.03083 0.0
H218 H 0.32527 0.48045 0.04548 0.0
H219 H 0.29188 0.50688 0.0094 0.0
C220 C 0.11755 0.45036 0.36633 0.0
C221 C 0.18207 0.45309 0.34752 0.0
C222 C 0.09346 0.51535 0.36625 0.0
C223 C 0.13683 0.58501 0.34721 0.0
C224 C 0.20434 0.58955 0.32862 0.0
C225 C 0.22547 0.52227 0.32878 0.0
C226 C 1.02042 0.50862 0.38617 0.0
C227 C 0.25351 0.66498 0.3086 0.0
C228 C 0.99651 0.70694 0.32874 0.0
C229 C 0.06936 0.78685 0.3486 0.0
C230 C 1.0172 0.63961 0.32808 0.0
C231 C 0.11356 0.65456 0.34746 0.0
C232 C 0.18632 0.73467 0.36783 0.0
C233 C 0.16272 0.79992 0.36828 0.0
C234 C 0.93702 0.55321 0.30661 0.0
C235 C 0.28968 0.75198 0.3888 0.0
H236 H 0.08324 0.39589 0.38063 0.0
H237 H 0.27515 0.52345 0.31428 0.0
H238 H 0.06365 0.57523 0.40001 0.0
H239 H 0.94056 0.49406 0.37264 0.0
H240 H 0.99931 0.45324 0.40088 0.0
H241 H 0.30524 0.65889 0.29577 0.0
H242 H 0.18461 0.66238 0.29301 0.0
H243 H 0.3072 0.73381 0.32177 0.0
H244 H 0.92456 0.69772 0.31355 0.0
H245 H 0.21934 0.86247 0.3835 0.0
H246 H 0.90246 0.49103 0.31867 0.0
H247 H 0.98297 0.54788 0.29153 0.0
H248 H 0.86547 0.55221 0.29325 0.0
H249 H 0.26562 0.69317 0.4021 0.0
H250 H 0.33481 0.81637 0.40404 0.0
H251 H 0.34891 0.75743 0.37613 0.0
C252 C 0.12771 0.17314 0.23387 0.0
C253 C 0.08153 0.09394 0.24885 0.0
C254 C 0.12325 0.16699 0.20349 0.0
C255 C 0.06927 0.07933 0.18751 0.0
C256 C 1.02085 0.99901 0.20245 0.0
C257 C 1.02858 1.00737 0.23292 0.0
C258 C 0.17764 0.2545 0.18856 0.0
C259 C 0.9605 0.90406 0.1862 0.0
C260 C 0.96644 0.05525 0.10438 0.0
C261 C 0.04851 0.0548 0.09374 0.0
C262 C 0.97179 0.06255 0.13473 0.0
C263 C 0.06265 0.07146 0.15514 0.0
C264 C 0.14646 0.07201 0.14458 0.0
C265 C 0.13778 0.06272 0.11404 0.0
C266 C 0.87945 0.0598 0.14496 0.0
C267 C 0.24576 0.08298 0.16556 0.0
H268 H 0.16975 0.2404 0.24601 0.0
H269 H 0.99214 0.94571 0.24425 0.0
H270 H 0.24269 0.26094 0.17816 0.0
H271 H 0.11357 0.2516 0.17078 0.0
H272 H 0.21801 0.31739 0.20415 0.0
H273 H 0.92501 0.84831 0.20086 0.0
H274 H 0.8907 0.89114 0.16809 0.0
H275 H 1.01954 0.90001 0.17606 0.0
H276 H 0.89659 0.04843 0.08892 0.0
H277 H 0.20198 0.06305 0.10608 0.0
H278 H 0.91587 0.12455 0.15908 0.0
H279 H 0.83853 1.00176 0.15852 0.0
H280 H 0.81368 0.05121 0.12631 0.0
H281 H 0.29222 0.1479 0.18058 0.0
H282 H 0.30538 0.08466 0.1539 0.0
H283 H 0.21562 1.02502 0.17942 0.0
C284 C 0.16329 0.21986 0.44701 0.0
C285 C 0.1491 0.14244 0.4337 0.0
C286 C 0.16007 0.22633 0.47677 0.0
C287 C 0.14383 0.15427 0.49391 0.0
C288 C 0.1324 0.07708 0.48083 0.0
C289 C 0.13424 0.07172 0.45088 0.0
C290 C 0.17091 0.30913 0.48966 0.0
C291 C 0.11662 0.99935 0.49839 0.0
C292 C 0.22073 0.19886 0.57779 0.0
C293 C 0.114 0.15349 0.58449 0.0
C294 C 0.232 0.20052 0.54844 0.0
C295 C 0.13443 0.15771 0.52518 0.0
C296 C 1.02694 0.11528 0.53186 0.0
C297 C 1.01793 0.1126 0.56141 0.0
C298 C 0.34792 0.24491 0.54239 0.0
C299 C 0.92097 0.07067 0.50779 0.0
H300 H 0.17381 0.27459 0.43393 0.0
H301 H 0.12372 1.01184 0.44091 0.0
H302 H 0.09253 0.28619 0.49686 0.0
H303 H 0.24133 0.34379 0.50941 0.0
H304 H 0.18613 0.36045 0.47367 0.0
H305 H 0.1156 0.94689 0.48551 0.0
H306 H 0.18544 0.0273 0.51848 0.0
H307 H 1.03588 0.96446 0.50568 0.0
H308 H 0.29523 0.22942 0.59554 0.0
H309 H 0.93529 0.07749 0.56648 0.0
H310 H 0.36584 0.29878 0.5273 0.0
H311 H 0.3511 0.19212 0.53128 0.0
H312 H 0.4155 0.27702 0.56284 0.0
H313 H 0.9301 0.12033 0.49168 0.0
H314 H 0.84502 0.04646 0.51653 0.0
H315 H 0.90713 1.01055 0.4957 0.0
C316 C 0.94402 0.95037 0.76527 0.0
C317 C 0.04636 0.02542 0.75956 0.0
C318 C 0.92658 0.93877 0.79421 0.0
C319 C 1.01381 1.00324 0.818 0.0
C320 C 0.11838 0.07723 0.81237 0.0
C321 C 0.13313 0.08751 0.78334 0.0
C322 C 0.81378 0.85909 0.79924 0.0
C323 C 0.21436 0.14693 0.83701 0.0
C324 C 0.95661 0.04626 0.89 0.0
C325 C 0.98959 0.99987 0.90918 0.0
C326 C 0.95916 0.0444 0.85999 0.0
C327 C 0.99633 0.99554 0.84879 0.0
C328 C 1.0262 0.94613 0.86779 0.0
C329 C 1.0222 0.94867 0.89764 0.0
C330 C 0.92576 0.09749 0.84048 0.0
C331 C 0.06686 0.89356 0.85687 0.0
H332 H 0.87632 0.90226 0.74707 0.0
H333 H 0.21291 0.14533 0.77926 0.0
H334 H 0.82559 0.81878 0.8162 0.0
H335 H 0.77136 0.88617 0.80764 0.0
H336 H 0.75729 0.81178 0.77878 0.0
H337 H 0.29176 0.19838 0.8291 0.0
H338 H 0.18857 0.18447 0.84789 0.0
H339 H 0.23524 0.11108 0.85395 0.0
H340 H 0.93058 0.08557 0.89851 0.0
H341 H 0.04773 0.91232 0.91211 0.0
H342 H 0.8628 0.05242 0.82031 0.0
H343 H 1.00084 0.15622 0.83341 0.0
H344 H 0.88964 0.12526 0.85183 0.0
H345 H 1.0064 0.84619 0.8368 0.0
H346 H 0.07793 0.85247 0.8737 0.0
H347 H 0.14901 0.94289 0.85077 0.0
loop_
_geom_bond_atom_site_label_1
_geom_bond_atom_site_label_2
_geom_bond_distance
_geom_bond_site_symmetry_2
_ccdc_geom_bond_type
Tb0 O3 2.451 1_545 S
Tb0 O4 2.596 1_545 S
Tb0 O5 2.374 1_655 S
Tb0 O13 2.343 1_655 S
Tb0 O15 2.353 1_554 S
Tb0 O17 2.427 1_654 S
Tb0 O18 2.513 1_655 S
C1 O5 1.251 . S
C1 O7 1.263 . S
Tb2 O4 2.343 1_445 S
Tb2 O7 2.353 . S
Tb2 O10 2.427 1_545 S
Tb2 O11 2.513 1_544 S
Tb2 O12 2.453 . S
Tb2 O13 2.596 . S
Tb2 O14 2.374 1_554 S
O3 Tb0 2.451 1_565 S
O3 C19 1.252 . S
O4 Tb0 2.596 1_565 S
O4 Tb2 2.343 1_665 S
O4 C19 1.259 . S
O5 Tb0 2.374 1_455 S
O5 C1 1.251 . S
C6 O10 1.275 . S
C6 O11 1.246 1_554 S
O7 C1 1.263 . S
O7 Tb2 2.353 . S
C8 O12 1.245 . S
C8 O13 1.259 . S
C9 O14 1.250 . S
C9 O15 1.263 1_455 S
O10 Tb2 2.427 1_565 S
O10 C6 1.275 . S
O11 Tb2 2.513 1_566 S
O11 C6 1.246 1_556 S
O12 Tb2 2.453 . S
O12 C8 1.245 . S
O13 Tb0 2.343 1_455 S
O13 Tb2 2.596 . S
O13 C8 1.259 . S
O14 Tb2 2.374 1_556 S
O14 C9 1.250 . S
O15 Tb0 2.353 1_556 S
O15 C9 1.263 1_655 S
C16 O17 1.275 1_554 S
C16 O18 1.246 . S
O17 Tb0 2.427 1_456 S
O17 C16 1.275 1_556 S
O18 Tb0 2.513 1_455 S
O18 C16 1.246 . S
C19 O3 1.252 . S
C19 O4 1.259 . S
Tb20 O23 2.453 . S
Tb20 O24 2.596 1_545 S
Tb20 O25 2.374 . S
Tb20 O33 2.343 1_455 S
Tb20 O35 2.353 . S
Tb20 O37 2.427 . S
Tb20 O38 2.513 . S
C21 O25 1.251 . S
C21 O27 1.263 1_445 S
Tb22 O24 2.343 1_655 S
Tb22 O27 2.353 . S
Tb22 O30 2.427 . S
Tb22 O31 2.513 1_655 S
Tb22 O32 2.453 . S
Tb22 O33 2.596 1_565 S
Tb22 O34 2.374 . S
O23 Tb20 2.453 . S
O23 C39 1.245 . S
O24 Tb20 2.596 1_565 S
O24 Tb22 2.343 1_455 S
O24 C39 1.259 1_565 S
O25 Tb20 2.374 . S
O25 C21 1.251 . S
C26 O30 1.275 1_455 S
C26 O31 1.246 . S
O27 C21 1.263 1_665 S
O27 Tb22 2.353 . S
C28 O32 1.245 . S
C28 O33 1.259 1_565 S
C29 O34 1.250 1_445 S
C29 O35 1.263 . S
O30 Tb22 2.427 . S
O30 C26 1.275 1_655 S
O31 Tb22 2.513 1_455 S
O31 C26 1.246 . S
O32 Tb22 2.453 . S
O32 C28 1.245 . S
O33 Tb20 2.343 1_655 S
O33 Tb22 2.596 1_545 S
O33 C28 1.259 1_545 S
O34 Tb22 2.374 . S
O34 C29 1.250 1_665 S
O35 Tb20 2.353 . S
O35 C29 1.263 . S
C36 O37 1.275 . S
C36 O38 1.246 . S
O37 Tb20 2.427 . S
O37 C36 1.275 . S
O38 Tb20 2.513 . S
O38 C36 1.246 . S
C39 O23 1.245 . S
C39 O24 1.259 1_545 S
Tb40 O43 2.453 1_455 S
Tb40 O44 2.596 1_455 S
Tb40 O45 2.374 . S
Tb40 O53 2.343 . S
Tb40 O55 2.353 . S
Tb40 O57 2.427 . S
Tb40 O58 2.513 . S
C41 O45 1.251 . S
C41 O47 1.263 . S
Tb42 O44 2.343 1_565 S
Tb42 O47 2.353 1_665 S
Tb42 O50 2.427 . S
Tb42 O51 2.513 . S
Tb42 O52 2.453 1_665 S
Tb42 O53 2.596 1_665 S
Tb42 O54 2.374 1_565 S
O43 Tb40 2.453 1_655 S
O43 C59 1.245 . S
O44 Tb40 2.596 1_655 S
O44 Tb42 2.343 1_545 S
O44 C59 1.259 . S
O45 Tb40 2.374 . S
O45 C41 1.251 . S
C46 O50 1.275 . S
C46 O51 1.246 . S
O47 C41 1.263 . S
O47 Tb42 2.353 1_445 S
C48 O52 1.245 . S
C48 O53 1.259 . S
C49 O54 1.250 1_455 S
C49 O55 1.263 . S
O50 Tb42 2.427 . S
O50 C46 1.275 . S
O51 Tb42 2.513 . S
O51 C46 1.246 . S
O52 Tb42 2.453 1_445 S
O52 C48 1.245 . S
O53 Tb40 2.343 . S
O53 Tb42 2.596 1_445 S
O53 C48 1.259 . S
O54 Tb42 2.374 1_545 S
O54 C49 1.250 1_655 S
O55 Tb40 2.353 . S
O55 C49 1.263 . S
C56 O57 1.275 . S
C56 O58 1.246 . S
O57 Tb40 2.427 . S
O57 C56 1.275 . S
O58 Tb40 2.513 . S
O58 C56 1.246 . S
C59 O43 1.245 . S
C59 O44 1.259 . S
C60 C61 1.391 . S
C60 C62 1.394 . S
C60 H76 0.931 . S
C61 C60 1.391 . S
C61 C65 1.376 1_455 S
C62 C60 1.394 . S
C62 C63 1.369 . S
C62 C66 1.531 . S
C63 C62 1.369 . S
C63 C64 1.410 1_455 S
C63 C71 1.503 . S
C64 C63 1.410 1_655 S
C64 C65 1.392 . S
C64 C67 1.511 . S
C65 C61 1.376 1_655 S
C65 C64 1.392 . S
C65 H77 0.929 . S
C66 C62 1.531 . S
C66 H78 0.960 1_554 S
C66 H79 0.962 . S
C66 H80 0.948 1_554 S
C67 C64 1.511 . S
C67 H81 0.961 . S
C67 H82 0.961 . S
C67 H83 0.961 1_554 S
C68 C69 1.370 . S
C68 C70 1.363 . S
C68 H84 0.931 . S
C69 C68 1.370 . S
C69 C73 1.408 1_554 S
C70 C68 1.363 . S
C70 C71 1.370 . S
C70 C74 1.524 . S
C71 C63 1.503 . S
C71 C70 1.370 . S
C71 C72 1.403 1_554 S
C72 C71 1.403 1_556 S
C72 C73 1.404 . S
C72 C75 1.539 . S
C73 C69 1.408 1_556 S
C73 C72 1.404 . S
C73 H85 0.930 . S
C74 C70 1.524 . S
C74 H86 0.956 . S
C74 H87 0.961 . S
C74 H88 0.961 . S
C75 C72 1.539 . S
C75 H89 0.958 . S
C75 H90 0.961 1_455 S
C75 H91 0.960 1_455 S
H76 C60 0.931 . S
H77 C65 0.929 . S
H78 C66 0.960 1_556 S
H79 C66 0.962 . S
H80 C66 0.948 1_556 S
H81 C67 0.961 . S
H82 C67 0.961 . S
H83 C67 0.961 1_556 S
H84 C68 0.931 . S
H85 C73 0.930 . S
H86 C74 0.956 . S
H87 C74 0.961 . S
H88 C74 0.961 . S
H89 C75 0.958 . S
H90 C75 0.961 1_655 S
H91 C75 0.960 1_655 S
C92 C93 1.391 . S
C92 C94 1.394 . S
C92 H108 0.931 . S
C93 C92 1.391 . S
C93 C97 1.376 . S
C94 C92 1.394 . S
C94 C95 1.369 . S
C94 C98 1.531 . S
C95 C94 1.369 . S
C95 C96 1.410 . S
C95 C103 1.503 . S
C96 C95 1.410 . S
C96 C97 1.392 . S
C96 C99 1.510 . S
C97 C93 1.376 . S
C97 C96 1.392 . S
C97 H109 0.929 1_565 S
C98 C94 1.531 . S
C98 H110 0.960 . S
C98 H111 0.962 1_565 S
C98 H112 0.960 . S
C99 C96 1.510 . S
C99 H113 0.954 1_565 S
C99 H114 0.962 1_565 S
C99 H115 0.968 . S
C100 C101 1.370 . S
C100 C102 1.363 . S
C100 H116 0.931 . S
C101 C100 1.370 . S
C101 C105 1.408 1_545 S
C102 C100 1.363 . S
C102 C103 1.370 1_545 S
C102 C106 1.524 . S
C103 C95 1.503 . S
C103 C102 1.370 1_565 S
C103 C104 1.403 . S
C104 C103 1.403 . S
C104 C105 1.404 . S
C104 C107 1.539 . S
C105 C101 1.408 1_565 S
C105 C104 1.404 . S
C105 H117 0.930 . S
C106 C102 1.524 . S
C106 H118 0.956 . S
C106 H119 0.961 . S
C106 H120 0.961 . S
C107 C104 1.539 . S
C107 H121 0.958 . S
C107 H122 0.961 . S
C107 H123 0.960 . S
H108 C92 0.931 . S
H109 C97 0.929 1_545 S
H110 C98 0.960 . S
H111 C98 0.962 1_545 S
H112 C98 0.960 . S
H113 C99 0.954 1_545 S
H114 C99 0.962 1_545 S
H115 C99 0.968 . S
H116 C100 0.931 . S
H117 C105 0.930 . S
H118 C106 0.956 . S
H119 C106 0.961 . S
H120 C106 0.961 . S
H121 C107 0.958 . S
H122 C107 0.961 . S
H123 C107 0.960 . S
C124 C125 1.391 . S
C124 C126 1.394 . S
C124 H140 0.931 . S
C125 C124 1.391 . S
C125 C129 1.376 . S
C126 C124 1.394 . S
C126 C127 1.369 . S
C126 C130 1.531 . S
C127 C126 1.369 . S
C127 C128 1.410 . S
C127 C135 1.503 . S
C128 C127 1.410 . S
C128 C129 1.392 . S
C128 C131 1.511 . S
C129 C125 1.376 . S
C129 C128 1.392 . S
C129 H141 0.929 . S
C130 C126 1.531 . S
C130 H142 0.960 . S
C130 H143 0.962 . S
C130 H144 0.960 . S
C131 C128 1.511 . S
C131 H145 0.961 . S
C131 H146 0.961 . S
C131 H147 0.961 . S
C132 C133 1.370 . S
C132 C134 1.363 . S
C132 H148 0.931 . S
C133 C132 1.370 . S
C133 C137 1.408 . S
C134 C132 1.363 . S
C134 C135 1.370 . S
C134 C138 1.524 . S
C135 C127 1.503 . S
C135 C134 1.370 . S
C135 C136 1.403 . S
C136 C135 1.403 . S
C136 C137 1.404 . S
C136 C139 1.539 . S
C137 C133 1.408 . S
C137 C136 1.404 . S
C137 H149 0.930 . S
C138 C134 1.524 . S
C138 H150 0.956 . S
C138 H151 0.961 . S
C138 H152 0.961 . S
C139 C136 1.539 . S
C139 H153 0.958 . S
C139 H154 0.961 . S
C139 H155 0.960 . S
H140 C124 0.931 . S
H141 C129 0.929 . S
H142 C130 0.960 . S
H143 C130 0.962 . S
H144 C130 0.960 . S
H145 C131 0.961 . S
H146 C131 0.961 . S
H147 C131 0.961 . S
H148 C132 0.931 . S
H149 C137 0.930 . S
H150 C138 0.956 . S
H151 C138 0.961 . S
H152 C138 0.961 . S
H153 C139 0.958 . S
H154 C139 0.961 . S
H155 C139 0.960 . S
C156 C157 1.391 . S
C156 C158 1.394 . S
C156 H172 0.931 1_545 S
C157 C156 1.391 . S
C157 C161 1.376 . S
C158 C156 1.394 . S
C158 C159 1.369 . S
C158 C162 1.531 1_545 S
C159 C158 1.369 . S
C159 C160 1.410 . S
C159 C167 1.503 . S
C160 C159 1.410 . S
C160 C161 1.392 . S
C160 C163 1.511 . S
C161 C157 1.376 . S
C161 C160 1.392 . S
C161 H173 0.929 . S
C162 C158 1.531 1_565 S
C162 H174 0.960 . S
C162 H175 0.962 . S
C162 H176 0.960 . S
C163 C160 1.511 . S
C163 H177 0.961 . S
C163 H178 0.961 . S
C163 H179 0.961 . S
C164 C165 1.370 . S
C164 C166 1.363 . S
C164 H180 0.931 . S
C165 C164 1.370 . S
C165 C169 1.408 . S
C166 C164 1.363 . S
C166 C167 1.370 . S
C166 C170 1.524 . S
C167 C159 1.503 . S
C167 C166 1.370 . S
C167 C168 1.403 . S
C168 C167 1.403 . S
C168 C169 1.404 . S
C168 C171 1.539 . S
C169 C165 1.408 . S
C169 C168 1.404 . S
C169 H181 0.930 . S
C170 C166 1.524 . S
C170 H182 0.956 . S
C170 H183 0.961 . S
C170 H184 0.961 . S
C171 C168 1.539 . S
C171 H185 0.958 . S
C171 H186 0.961 . S
C171 H187 0.960 . S
H172 C156 0.931 1_565 S
H173 C161 0.929 . S
H174 C162 0.960 . S
H175 C162 0.962 . S
H176 C162 0.960 . S
H177 C163 0.961 . S
H178 C163 0.961 . S
H179 C163 0.961 . S
H180 C164 0.931 . S
H181 C169 0.930 . S
H182 C170 0.956 . S
H183 C170 0.961 . S
H184 C170 0.961 . S
H185 C171 0.958 . S
H186 C171 0.961 . S
H187 C171 0.960 . S
C188 C189 1.391 . S
C188 C190 1.394 . S
C188 H204 0.931 . S
C189 C188 1.391 . S
C189 C193 1.376 . S
C190 C188 1.394 . S
C190 C191 1.369 . S
C190 C194 1.531 . S
C191 C190 1.369 . S
C191 C192 1.410 . S
C191 C199 1.503 . S
C192 C191 1.410 . S
C192 C193 1.392 . S
C192 C195 1.511 1_554 S
C193 C189 1.376 . S
C193 C192 1.392 . S
C193 H205 0.929 1_554 S
C194 C190 1.531 . S
C194 H206 0.960 . S
C194 H207 0.962 . S
C194 H208 0.960 . S
C195 C192 1.511 1_556 S
C195 H209 0.961 . S
C195 H210 0.961 . S
C195 H211 0.961 1_556 S
C196 C197 1.370 1_556 S
C196 C198 1.363 . S
C196 H212 0.931 . S
C197 C196 1.370 1_554 S
C197 C201 1.408 . S
C198 C196 1.363 . S
C198 C199 1.370 1_556 S
C198 C202 1.524 . S
C199 C191 1.503 . S
C199 C198 1.370 1_554 S
C199 C200 1.403 . S
C200 C199 1.403 . S
C200 C201 1.404 . S
C200 C203 1.539 . S
C201 C197 1.408 . S
C201 C200 1.404 . S
C201 H213 0.930 . S
C202 C198 1.524 . S
C202 H214 0.956 . S
C202 H215 0.961 . S
C202 H216 0.961 . S
C203 C200 1.539 . S
C203 H217 0.958 . S
C203 H218 0.961 . S
C203 H219 0.960 . S
H204 C188 0.931 . S
H205 C193 0.929 1_556 S
H206 C194 0.960 . S
H207 C194 0.962 . S
H208 C194 0.960 . S
H209 C195 0.961 . S
H210 C195 0.961 . S
H211 C195 0.961 1_554 S
H212 C196 0.931 . S
H213 C201 0.930 . S
H214 C202 0.956 . S
H215 C202 0.961 . S
H216 C202 0.961 . S
H217 C203 0.958 . S
H218 C203 0.961 . S
H219 C203 0.960 . S
C220 C221 1.391 1_655 S
C220 C222 1.394 . S
C220 H236 0.931 . S
C221 C220 1.391 1_455 S
C221 C225 1.376 . S
C222 C220 1.394 . S
C222 C223 1.369 1_655 S
C222 C226 1.531 . S
C223 C222 1.369 1_455 S
C223 C224 1.410 . S
C223 C231 1.503 . S
C224 C223 1.410 . S
C224 C225 1.392 . S
C224 C227 1.511 . S
C225 C221 1.376 . S
C225 C224 1.392 . S
C225 H237 0.929 . S
C226 C222 1.531 . S
C226 H238 0.960 . S
C226 H239 0.962 . S
C226 H240 0.960 . S
C227 C224 1.511 . S
C227 H241 0.961 . S
C227 H242 0.961 . S
C227 H243 0.961 . S
C228 C229 1.370 1_655 S
C228 C230 1.363 . S
C228 H244 0.931 . S
C229 C228 1.370 1_455 S
C229 C233 1.408 . S
C230 C228 1.363 . S
C230 C231 1.370 1_655 S
C230 C234 1.524 . S
C231 C223 1.503 . S
C231 C230 1.370 1_455 S
C231 C232 1.403 . S
C232 C231 1.403 . S
C232 C233 1.404 . S
C232 C235 1.539 . S
C233 C229 1.408 . S
C233 C232 1.404 . S
C233 H245 0.930 . S
C234 C230 1.524 . S
C234 H246 0.956 . S
C234 H247 0.961 . S
C234 H248 0.961 . S
C235 C232 1.539 . S
C235 H249 0.958 . S
C235 H250 0.961 . S
C235 H251 0.960 . S
H236 C220 0.931 . S
H237 C225 0.929 . S
H238 C226 0.960 . S
H239 C226 0.962 . S
H240 C226 0.960 . S
H241 C227 0.961 . S
H242 C227 0.961 . S
H243 C227 0.961 . S
H244 C228 0.931 . S
H245 C233 0.930 . S
H246 C234 0.956 . S
H247 C234 0.961 . S
H248 C234 0.961 . S
H249 C235 0.958 . S
H250 C235 0.961 . S
H251 C235 0.960 . S
C252 C253 1.392 1_545 S
C252 C254 1.394 . S
C252 H268 0.931 . S
C253 C252 1.392 1_565 S
C253 C257 1.375 1_455 S
C254 C252 1.394 . S
C254 C255 1.369 . S
C254 C258 1.531 . S
C255 C254 1.369 . S
C255 C256 1.410 1_445 S
C255 C263 1.503 . S
C256 C255 1.410 1_665 S
C256 C257 1.392 . S
C256 C259 1.511 . S
C257 C253 1.375 1_655 S
C257 C256 1.392 . S
C257 H269 0.929 . S
C258 C254 1.531 . S
C258 H270 0.960 . S
C258 H271 0.962 . S
C258 H272 0.960 . S
C259 C256 1.511 . S
C259 H273 0.961 . S
C259 H274 0.961 . S
C259 H275 0.961 . S
C260 C261 1.370 1_655 S
C260 C262 1.363 . S
C260 H276 0.931 . S
C261 C260 1.370 1_455 S
C261 C265 1.408 . S
C262 C260 1.363 . S
C262 C263 1.370 1_655 S
C262 C266 1.524 . S
C263 C255 1.503 . S
C263 C262 1.370 1_455 S
C263 C264 1.403 . S
C264 C263 1.403 . S
C264 C265 1.404 . S
C264 C267 1.539 1_545 S
C265 C261 1.408 . S
C265 C264 1.404 . S
C265 H277 0.930 . S
C266 C262 1.524 . S
C266 H278 0.956 . S
C266 H279 0.961 1_545 S
C266 H280 0.961 . S
C267 C264 1.539 1_565 S
C267 H281 0.958 1_565 S
C267 H282 0.961 . S
C267 H283 0.960 . S
H268 C252 0.931 . S
H269 C257 0.929 . S
H270 C258 0.960 . S
H271 C258 0.962 . S
H272 C258 0.960 . S
H273 C259 0.961 . S
H274 C259 0.961 . S
H275 C259 0.961 . S
H276 C260 0.931 . S
H277 C265 0.930 . S
H278 C266 0.956 . S
H279 C266 0.961 1_565 S
H280 C266 0.961 . S
H281 C267 0.958 1_545 S
H282 C267 0.961 . S
H283 C267 0.960 . S
C284 C285 1.391 . S
C284 C286 1.394 . S
C284 H300 0.931 . S
C285 C284 1.391 . S
C285 C289 1.376 1_445 S
C286 C284 1.394 . S
C286 C287 1.369 . S
C286 C290 1.531 . S
C287 C286 1.369 . S
C287 C288 1.410 1_445 S
C287 C295 1.503 . S
C288 C287 1.410 1_665 S
C288 C289 1.392 . S
C288 C291 1.511 . S
C289 C285 1.376 1_665 S
C289 C288 1.392 . S
C289 H301 0.929 . S
C290 C286 1.531 . S
C290 H302 0.960 . S
C290 H303 0.962 . S
C290 H304 0.960 . S
C291 C288 1.511 . S
C291 H305 0.961 . S
C291 H306 0.961 . S
C291 H307 0.961 . S
C292 C293 1.370 . S
C292 C294 1.363 . S
C292 H308 0.931 1_545 S
C293 C292 1.370 . S
C293 C297 1.408 . S
C294 C292 1.363 . S
C294 C295 1.370 . S
C294 C298 1.524 1_545 S
C295 C287 1.503 . S
C295 C294 1.370 . S
C295 C296 1.403 . S
C296 C295 1.403 . S
C296 C297 1.404 . S
C296 C299 1.539 1_455 S
C297 C293 1.408 . S
C297 C296 1.404 . S
C297 H309 0.930 1_455 S
C298 C294 1.524 1_565 S
C298 H310 0.956 . S
C298 H311 0.961 1_455 S
C298 H312 0.961 . S
C299 C296 1.539 1_655 S
C299 H313 0.958 1_655 S
C299 H314 0.961 . S
C299 H315 0.960 . S
H300 C284 0.931 . S
H301 C289 0.929 . S
H302 C290 0.960 . S
H303 C290 0.962 . S
H304 C290 0.960 . S
H305 C291 0.961 . S
H306 C291 0.961 . S
H307 C291 0.961 . S
H308 C292 0.931 1_565 S
H309 C297 0.930 1_655 S
H310 C298 0.956 . S
H311 C298 0.961 1_655 S
H312 C298 0.961 . S
H313 C299 0.958 1_455 S
H314 C299 0.961 . S
H315 C299 0.960 . S
C316 C317 1.391 1_655 S
C316 C318 1.394 . S
C316 H332 0.931 . S
C317 C316 1.391 1_455 S
C317 C321 1.376 . S
C318 C316 1.394 . S
C318 C319 1.369 1_655 S
C318 C322 1.531 1_545 S
C319 C318 1.369 1_455 S
C319 C320 1.410 . S
C319 C327 1.503 . S
C320 C319 1.410 . S
C320 C321 1.392 . S
C320 C323 1.511 . S
C321 C317 1.376 . S
C321 C320 1.392 . S
C321 H333 0.929 . S
C322 C318 1.531 1_565 S
C322 H334 0.960 . S
C322 H335 0.962 1_565 S
C322 H336 0.960 . S
C323 C320 1.511 . S
C323 H337 0.961 . S
C323 H338 0.961 . S
C323 H339 0.961 . S
C324 C325 1.370 . S
C324 C326 1.363 . S
C324 H340 0.931 . S
C325 C324 1.370 . S
C325 C329 1.408 . S
C326 C324 1.363 . S
C326 C327 1.370 . S
C326 C330 1.524 . S
C327 C319 1.503 . S
C327 C326 1.370 . S
C327 C328 1.403 . S
C328 C327 1.403 . S
C328 C329 1.404 . S
C328 C331 1.539 1_545 S
C329 C325 1.408 . S
C329 C328 1.404 . S
C329 H341 0.930 1_545 S
C330 C326 1.524 . S
C330 H342 0.956 1_455 S
C330 H343 0.961 . S
C330 H344 0.961 . S
C331 C328 1.539 1_565 S
C331 H345 0.958 . S
C331 H346 0.961 . S
C331 H347 0.960 . S
H332 C316 0.931 . S
H333 C321 0.929 . S
H334 C322 0.960 . S
H335 C322 0.962 1_545 S
H336 C322 0.960 . S
H337 C323 0.961 . S
H338 C323 0.961 . S
H339 C323 0.961 . S
H340 C324 0.931 . S
H341 C329 0.930 1_565 S
H342 C330 0.956 1_655 S
H343 C330 0.961 . S
H344 C330 0.961 . S
H345 C331 0.958 . S
H346 C331 0.961 . S
H347 C331 0.960 . S
C61 C16 1.248 . S
C69 C6 1.244 . S
C93 C39 1.886 1_565 S
C101 C28 1.853 1_545 S
C125 C46 0.877 . S
C133 C56 0.797 . S
C157 C59 1.857 . S
C165 C48 1.855 . S
C189 C19 2.381 . S
C197 C8 2.389 . S
C221 C36 1.217 . S
C229 C26 1.246 . S
C253 C21 1.513 1_565 S
C261 C1 1.504 . S
C285 C29 1.509 . S
C293 C49 1.502 . S
C317 C41 1.486 . S
C325 C9 1.507 . S
