# Generated by pormake.
# Topology nfb, (4)-cn, num edge types: 1
# Building blocks:
#     Node 0, Type 0, BuildingBlock: ICAMEG_clean_sbu_1, # of connection points: 4
#     Node 1, Type 0, BuildingBlock: ICAMEG_clean_sbu_1, # of connection points: 4
#     Node 2, Type 0, BuildingBlock: ICAMEG_clean_sbu_1, # of connection points: 4
#     Node 3, Type 0, BuildingBlock: ICAMEG_clean_sbu_1, # of connection points: 4
#     Node 4, Type 0, BuildingBlock: ICAMEG_clean_sbu_1, # of connection points: 4
#     Node 5, Type 0, BuildingBlock: ICAMEG_clean_sbu_1, # of connection points: 4
#     Node 6, Type 0, BuildingBlock: ICAMEG_clean_sbu_1, # of connection points: 4
#     Node 7, Type 0, BuildingBlock: ICAMEG_clean_sbu_1, # of connection points: 4
#     Node 8, Type 0, BuildingBlock: ICAMEG_clean_sbu_1, # of connection points: 4
#     Node 9, Type 0, BuildingBlock: ICAMEG_clean_sbu_1, # of connection points: 4
#     Node 10, Type 0, BuildingBlock: ICAMEG_clean_sbu_1, # of connection points: 4
#     Node 11, Type 0, BuildingBlock: ICAMEG_clean_sbu_1, # of connection points: 4
#     Node 12, Type 0, BuildingBlock: ICAMEG_clean_sbu_1, # of connection points: 4
#     Node 13, Type 0, BuildingBlock: ICAMEG_clean_sbu_1, # of connection points: 4
#     Node 14, Type 0, BuildingBlock: ICAMEG_clean_sbu_1, # of connection points: 4
#     Node 15, Type 0, BuildingBlock: ICAMEG_clean_sbu_1, # of connection points: 4
#     Node 16, Type 0, BuildingBlock: ICAMEG_clean_sbu_1, # of connection points: 4
#     Node 17, Type 0, BuildingBlock: ICAMEG_clean_sbu_1, # of connection points: 4
#     Node 18, Type 0, BuildingBlock: ICAMEG_clean_sbu_1, # of connection points: 4
#     Node 19, Type 0, BuildingBlock: ICAMEG_clean_sbu_1, # of connection points: 4
#     Node 20, Type 0, BuildingBlock: ICAMEG_clean_sbu_1, # of connection points: 4
#     Node 21, Type 0, BuildingBlock: ICAMEG_clean_sbu_1, # of connection points: 4
#     Node 22, Type 0, BuildingBlock: ICAMEG_clean_sbu_1, # of connection points: 4
#     Node 23, Type 0, BuildingBlock: ICAMEG_clean_sbu_1, # of connection points: 4
#     Node 24, Type 0, BuildingBlock: ICAMEG_clean_sbu_1, # of connection points: 4
#     Node 25, Type 0, BuildingBlock: ICAMEG_clean_sbu_1, # of connection points: 4
#     Node 26, Type 0, BuildingBlock: ICAMEG_clean_sbu_1, # of connection points: 4
#     Node 27, Type 0, BuildingBlock: ICAMEG_clean_sbu_1, # of connection points: 4
#     Node 28, Type 0, BuildingBlock: ICAMEG_clean_sbu_1, # of connection points: 4
#     Node 29, Type 0, BuildingBlock: ICAMEG_clean_sbu_1, # of connection points: 4
#     Node 30, Type 0, BuildingBlock: ICAMEG_clean_sbu_1, # of connection points: 4
#     Node 31, Type 0, BuildingBlock: ICAMEG_clean_sbu_1, # of connection points: 4
#     Node 32, Type 0, BuildingBlock: ICAMEG_clean_sbu_1, # of connection points: 4
#     Node 33, Type 0, BuildingBlock: ICAMEG_clean_sbu_1, # of connection points: 4
#     Node 34, Type 0, BuildingBlock: ICAMEG_clean_sbu_1, # of connection points: 4
#     Node 35, Type 0, BuildingBlock: ICAMEG_clean_sbu_1, # of connection points: 4
#     Node 36, Type 0, BuildingBlock: ICAMEG_clean_sbu_1, # of connection points: 4
#     Node 37, Type 0, BuildingBlock: ICAMEG_clean_sbu_1, # of connection points: 4
#     Node 38, Type 0, BuildingBlock: ICAMEG_clean_sbu_1, # of connection points: 4
#     Node 39, Type 0, BuildingBlock: ICAMEG_clean_sbu_1, # of connection points: 4
#     Node 40, Type 0, BuildingBlock: ICAMEG_clean_sbu_1, # of connection points: 4
#     Node 41, Type 0, BuildingBlock: ICAMEG_clean_sbu_1, # of connection points: 4
#     Node 42, Type 0, BuildingBlock: ICAMEG_clean_sbu_1, # of connection points: 4
#     Node 43, Type 0, BuildingBlock: ICAMEG_clean_sbu_1, # of connection points: 4
#     Node 44, Type 0, BuildingBlock: ICAMEG_clean_sbu_1, # of connection points: 4
#     Node 45, Type 0, BuildingBlock: ICAMEG_clean_sbu_1, # of connection points: 4
#     Node 46, Type 0, BuildingBlock: ICAMEG_clean_sbu_1, # of connection points: 4
#     Node 47, Type 0, BuildingBlock: ICAMEG_clean_sbu_1, # of connection points: 4
#     Edge 48, Type (0, 0), None
#     Edge 49, Type (0, 0), None
#     Edge 50, Type (0, 0), None
#     Edge 51, Type (0, 0), None
#     Edge 52, Type (0, 0), None
#     Edge 53, Type (0, 0), None
#     Edge 54, Type (0, 0), None
#     Edge 55, Type (0, 0), None
#     Edge 56, Type (0, 0), None
#     Edge 57, Type (0, 0), None
#     Edge 58, Type (0, 0), None
#     Edge 59, Type (0, 0), None
#     Edge 60, Type (0, 0), None
#     Edge 61, Type (0, 0), None
#     Edge 62, Type (0, 0), None
#     Edge 63, Type (0, 0), None
#     Edge 64, Type (0, 0), None
#     Edge 65, Type (0, 0), None
#     Edge 66, Type (0, 0), None
#     Edge 67, Type (0, 0), None
#     Edge 68, Type (0, 0), None
#     Edge 69, Type (0, 0), None
#     Edge 70, Type (0, 0), None
#     Edge 71, Type (0, 0), None
#     Edge 72, Type (0, 0), None
#     Edge 73, Type (0, 0), None
#     Edge 74, Type (0, 0), None
#     Edge 75, Type (0, 0), None
#     Edge 76, Type (0, 0), None
#     Edge 77, Type (0, 0), None
#     Edge 78, Type (0, 0), None
#     Edge 79, Type (0, 0), None
#     Edge 80, Type (0, 0), None
#     Edge 81, Type (0, 0), None
#     Edge 82, Type (0, 0), None
#     Edge 83, Type (0, 0), None
#     Edge 84, Type (0, 0), None
#     Edge 85, Type (0, 0), None
#     Edge 86, Type (0, 0), None
#     Edge 87, Type (0, 0), None
#     Edge 88, Type (0, 0), None
#     Edge 89, Type (0, 0), None
#     Edge 90, Type (0, 0), None
#     Edge 91, Type (0, 0), None
#     Edge 92, Type (0, 0), None
#     Edge 93, Type (0, 0), None
#     Edge 94, Type (0, 0), None
#     Edge 95, Type (0, 0), None
#     Edge 96, Type (0, 0), None
#     Edge 97, Type (0, 0), None
#     Edge 98, Type (0, 0), None
#     Edge 99, Type (0, 0), None
#     Edge 100, Type (0, 0), None
#     Edge 101, Type (0, 0), None
#     Edge 102, Type (0, 0), None
#     Edge 103, Type (0, 0), None
#     Edge 104, Type (0, 0), None
#     Edge 105, Type (0, 0), None
#     Edge 106, Type (0, 0), None
#     Edge 107, Type (0, 0), None
#     Edge 108, Type (0, 0), None
#     Edge 109, Type (0, 0), None
#     Edge 110, Type (0, 0), None
#     Edge 111, Type (0, 0), None
#     Edge 112, Type (0, 0), None
#     Edge 113, Type (0, 0), None
#     Edge 114, Type (0, 0), None
#     Edge 115, Type (0, 0), None
#     Edge 116, Type (0, 0), None
#     Edge 117, Type (0, 0), None
#     Edge 118, Type (0, 0), None
#     Edge 119, Type (0, 0), None
#     Edge 120, Type (0, 0), None
#     Edge 121, Type (0, 0), None
#     Edge 122, Type (0, 0), None
#     Edge 123, Type (0, 0), None
#     Edge 124, Type (0, 0), None
#     Edge 125, Type (0, 0), None
#     Edge 126, Type (0, 0), None
#     Edge 127, Type (0, 0), None
#     Edge 128, Type (0, 0), None
#     Edge 129, Type (0, 0), None
#     Edge 130, Type (0, 0), None
#     Edge 131, Type (0, 0), None
#     Edge 132, Type (0, 0), None
#     Edge 133, Type (0, 0), None
#     Edge 134, Type (0, 0), None
#     Edge 135, Type (0, 0), None
#     Edge 136, Type (0, 0), None
#     Edge 137, Type (0, 0), None
#     Edge 138, Type (0, 0), None
#     Edge 139, Type (0, 0), None
#     Edge 140, Type (0, 0), None
#     Edge 141, Type (0, 0), None
#     Edge 142, Type (0, 0), None
#     Edge 143, Type (0, 0), None
# Relax obj value: 0.321
# Max RMSD: 0.132
# Mean RMSD: 0.103
data_MOF--net-nfb--node1-ICAMEG_clean_sbu_1--edge1-none
_symmetry_space_group_name_H-M    P1
_symmetry_Int_Tables_number       1
_symmetry_cell_setting            triclinic
loop_
_symmetry_equiv_pos_as_xyz
'x, y, z'
_cell_length_a     32.616494
_cell_length_b     32.163691
_cell_length_c     32.444561
_cell_angle_alpha  90.595448
_cell_angle_beta   92.290378
_cell_angle_gamma 92.372566
loop_
_atom_site_label
_atom_site_type_symbol
_atom_site_fract_x
_atom_site_fract_y
_atom_site_fract_z
_atom_type_partial_charge
Co0 Co 0.04978 0.03433 0.33928 0.0
Co1 Co 0.07334 0.1202 0.35457 0.0
O2 O 0.03093 0.09459 0.34431 0.0
C3 C 0.15847 0.06505 0.34036 0.0
O4 O 0.15894 0.07865 0.30257 0.0
C5 C 0.07647 0.19766 0.29521 0.0
O6 O 0.08298 0.20294 0.25585 0.0
O7 O 0.00044 0.0918 0.34045 0.0
O8 O -0.01356 0.02453 0.331 0.0
H9 H -0.03332 0.15716 0.47768 0.0
H10 H 0.09297 0.09479 0.29134 0.0
O11 O 0.12152 0.04791 0.35295 0.0
H12 H 0.00206 0.0225 0.18862 0.0
H13 H 0.05586 0.88894 0.26651 0.0
H14 H 0.03858 0.96108 0.40027 0.0
H15 H 0.00424 0.00145 0.26135 0.0
H16 H 0.05783 0.96395 0.27075 0.0
O17 O 0.06526 0.16004 0.30584 0.0
H18 H -0.00044 0.15303 0.43612 0.0
H19 H 0.10224 0.21415 0.42788 0.0
H20 H 0.03287 0.88989 0.40001 0.0
H21 H 0.09593 0.11637 0.21868 0.0
H22 H 0.04239 0.84702 0.32605 0.0
H23 H 0.0495 0.0797 0.16629 0.0
O24 O 0.04168 0.03007 0.39786 0.0
H25 H 0.18871 0.20796 0.30285 0.0
H26 H 0.14529 0.12842 0.42351 0.0
H27 H 0.19522 0.18844 0.43266 0.0
H28 H 0.21118 0.23253 0.3724 0.0
H29 H 0.13716 0.1512 0.29572 0.0
H30 H 0.08042 0.22587 0.47711 0.0
H31 H 0.05908 0.23792 0.52403 0.0
O32 O 0.0803 0.08647 0.40843 0.0
C33 C -0.03083 0.05958 0.33347 0.0
C34 C -0.00268 0.16512 0.46003 0.0
C35 C 0.09708 0.22254 0.4513 0.0
N36 N 0.05357 0.16105 0.3931 0.0
C37 C 0.0119 0.14595 0.41135 0.0
C38 C 0.09017 0.19272 0.40652 0.0
C39 C 0.0593 0.21972 0.48982 0.0
C40 C 0.07695 0.07646 0.26809 0.0
N41 N 0.05358 0.04308 0.2798 0.0
C42 C 0.07679 0.08979 0.22722 0.0
C43 C 0.05037 0.06966 0.19805 0.0
C44 C 0.02385 0.03764 0.21054 0.0
C45 C 0.02508 0.02581 0.25191 0.0
C46 C 0.05732 0.9034 0.29663 0.0
C47 C 0.05076 0.94753 0.37341 0.0
C48 C 0.05698 0.94896 0.29963 0.0
N49 N 0.05688 0.97105 0.3372 0.0
C50 C 0.04761 0.90143 0.3733 0.0
C51 C 0.05255 0.87837 0.33308 0.0
C52 C 0.05949 0.05546 0.42264 0.0
C53 C 0.17855 0.19164 0.32986 0.0
C54 C 0.15428 0.14589 0.39695 0.0
C55 C 0.18279 0.17957 0.40254 0.0
C56 C 0.19257 0.20418 0.36887 0.0
N57 N 0.13117 0.14324 0.36072 0.0
C58 C 0.14851 0.15986 0.32637 0.0
Co59 Co 0.29996 0.66923 0.88 0.0
Co60 Co 0.33495 0.60238 0.80875 0.0
O61 O 0.33031 0.61743 0.86594 0.0
C62 C 0.35304 0.66979 0.96418 0.0
O63 O 0.38348 0.64776 0.95212 0.0
C64 C 0.36505 0.49814 0.81025 0.0
O65 O 0.39194 0.50549 0.78207 0.0
O66 O 0.27238 0.59295 0.8034 0.0
O67 O 0.26257 0.65373 0.82952 0.0
H68 H 0.36498 0.63063 0.66136 0.0
H69 H 0.32626 0.60671 0.92769 0.0
O70 O 0.32973 0.68711 0.93667 0.0
H71 H 0.16097 0.64553 0.9599 0.0
H72 H 0.20059 0.76621 0.93855 0.0
H73 H 0.26038 0.72097 0.81316 0.0
H74 H 0.20505 0.67534 0.89115 0.0
H75 H 0.27089 0.73533 0.94284 0.0
O76 O 0.3427 0.53121 0.82283 0.0
H77 H 0.34258 0.65055 0.72988 0.0
H78 H 0.3135 0.52609 0.75569 0.0
H79 H 0.19579 0.7512 0.81066 0.0
H80 H 0.26659 0.58175 -0.01195 0.0
H81 H 0.16799 0.78056 0.87405 0.0
H82 H 0.23463 0.56229 0.02599 0.0
O83 O 0.34339 0.69694 0.85996 0.0
H84 H 0.46374 0.63298 0.89551 0.0
H85 H 0.40832 0.57749 0.76199 0.0
H86 H 0.47852 0.57119 0.78098 0.0
H87 H 0.50776 0.59234 0.85064 0.0
H88 H 0.39425 0.64507 0.87356 0.0
H89 H 0.33477 0.50354 0.6876 0.0
H90 H 0.36244 0.55661 0.6396 0.0
O91 O 0.33118 0.67453 0.79809 0.0
C92 C 0.24719 0.61879 0.81699 0.0
C93 C 0.35494 0.60718 0.68217 0.0
C94 C 0.33885 0.53583 0.69718 0.0
N95 N 0.3363 0.58862 0.75006 0.0
C96 C 0.34407 0.61835 0.7218 0.0
C97 C 0.32831 0.54854 0.73654 0.0
C98 C 0.35385 0.5655 0.67024 0.0
C99 C 0.29458 0.61021 0.93139 0.0
N100 N 0.26414 0.63987 0.90717 0.0
C101 C 0.29002 0.58529 -0.02708 0.0
C102 C 0.24393 0.58368 -0.00441 0.0
C103 C 0.19183 0.63631 0.95336 0.0
C104 C 0.21853 0.65422 0.91246 0.0
C105 C 0.21703 0.75887 0.91243 0.0
C106 C 0.24903 0.73016 0.84245 0.0
C107 C 0.25466 0.73911 0.91423 0.0
N108 N 0.26773 0.72027 0.87982 0.0
C109 C 0.21187 0.74882 0.84003 0.0
C110 C 0.19623 0.76431 0.87534 0.0
C111 C 0.33496 0.70698 0.82558 0.0
C112 C 0.45128 0.61879 0.8671 0.0
C113 C 0.41899 0.58838 0.79211 0.0
C114 C 0.4596 0.5824 0.80375 0.0
C115 C 0.4757 0.59591 0.84213 0.0
N116 N 0.39433 0.60888 0.8174 0.0
C117 C 0.41098 0.62558 0.85391 0.0
Co118 Co 0.84803 0.92639 0.3617 0.0
Co119 Co 0.85137 0.80847 0.36261 0.0
O120 O 0.84663 0.86276 0.33645 0.0
C121 C 0.7189 0.91051 0.37797 0.0
O122 O 0.72424 0.87341 0.36263 0.0
C123 C 0.80849 0.72739 0.32495 0.0
O124 O 0.77287 0.72019 0.30536 0.0
O125 O 0.90606 0.8427 0.33173 0.0
O126 O 0.90567 0.91189 0.3456 0.0
H127 H 0.94492 0.81852 0.46082 0.0
H128 H 0.82989 0.89366 0.27069 0.0
O129 O 0.74876 0.94098 0.37559 0.0
H130 H 0.94 -0.00078 0.25529 0.0
H131 H 0.92482 0.05981 0.42289 0.0
H132 H 0.94 0.91115 0.40892 0.0
H133 H 0.91368 -0.01439 0.32335 0.0
H134 H 0.8714 0.01895 0.38872 0.0
O135 O 0.82965 0.76248 0.31463 0.0
H136 H 0.96002 0.84515 0.39331 0.0
H137 H 0.88603 0.75036 0.34312 0.0
H138 H -0.01211 0.95094 0.45129 0.0
H139 H 0.85905 0.90317 0.2045 0.0
H140 H -0.02027 0.02687 0.46088 0.0
H141 H 0.9157 0.95556 0.19572 0.0
O142 O 0.87011 0.90372 0.42044 0.0
H143 H 0.70288 0.78659 0.31885 0.0
H144 H 0.80659 0.76973 0.43079 0.0
H145 H 0.74185 0.72771 0.42959 0.0
H146 H 0.68892 0.73817 0.37567 0.0
H147 H 0.77277 0.81907 0.31457 0.0
H148 H 0.85697 0.732 0.40402 0.0
H149 H 0.87645 0.78237 0.45645 0.0
O150 O 0.85756 0.83751 0.41779 0.0
C151 C 0.92454 0.88134 0.33148 0.0
C152 C 0.9318 0.8034 0.43323 0.0
C153 C 0.87937 0.75742 0.40202 0.0
N154 N 0.91269 0.80785 0.36115 0.0
C155 C 0.93909 0.81869 0.39496 0.0
C156 C 0.88783 0.77348 0.36523 0.0
C157 C 0.89819 0.77687 0.43507 0.0
C158 C 0.85298 0.91823 0.26881 0.0
N159 N 0.8661 0.94259 0.3027 0.0
C160 C 0.87022 0.92265 0.2303 0.0
C161 C 0.90222 0.95153 0.22543 0.0
C162 C 0.91662 -0.02463 0.2591 0.0
C163 C 0.89862 0.97041 0.29725 0.0
C164 C 0.92682 0.02681 0.42073 0.0
C165 C 0.93396 0.94384 0.41097 0.0
C166 C 0.89627 0.00267 0.39955 0.0
N167 N 0.8977 0.96061 0.3936 0.0
C168 C -0.03726 0.96637 0.436 0.0
C169 C 0.95876 0.00839 0.44111 0.0
C170 C 0.86873 0.86949 0.43803 0.0
C171 C 0.72538 0.78386 0.34389 0.0
C172 C 0.78403 0.77442 0.40642 0.0
C173 C 0.74698 0.75116 0.40664 0.0
C174 C 0.71728 0.75658 0.37572 0.0
N175 N 0.79341 0.79856 0.37346 0.0
C176 C 0.76435 0.80373 0.34253 0.0
Co177 Co 0.67304 0.27005 0.89867 0.0
Co178 Co 0.63758 0.33648 0.82614 0.0
O179 O 0.64966 0.32361 0.88378 0.0
C180 C 0.60478 0.28037 0.9553 0.0
O181 O 0.57194 0.27652 0.93096 0.0
C182 C 0.61396 0.43996 0.83804 0.0
O183 O 0.57619 0.4285 0.84582 0.0
O184 O 0.69828 0.33679 0.81757 0.0
O185 O 0.71094 0.27894 0.85212 0.0
H186 H 0.65011 0.30526 0.67897 0.0
H187 H 0.66084 0.34681 0.94501 0.0
O188 O 0.63737 0.26318 0.94555 0.0
H189 H 0.80428 0.2426 -0.01833 0.0
H190 H 0.74355 0.15889 -0.01878 0.0
H191 H 0.71606 0.20968 0.84183 0.0
H192 H 0.76184 0.2561 0.91315 0.0
H193 H 0.68897 0.217 0.92573 0.0
O194 O 0.64043 0.40857 0.83425 0.0
H195 H 0.66426 0.2981 0.75155 0.0
H196 H 0.58528 0.39599 0.77614 0.0
H197 H 0.77962 0.17828 0.85943 0.0
H198 H 0.6943 0.34397 -0.01177 0.0
H199 H 0.7938 0.15179 0.92943 0.0
H200 H 0.79043 0.28376 0.05263 0.0
O201 O 0.63021 0.23968 0.8716 0.0
H202 H 0.52957 0.35164 0.9287 0.0
H203 H 0.55371 0.31881 0.78446 0.0
H204 H 0.48467 0.30688 0.8117 0.0
H205 H 0.4751 0.31357 0.8868 0.0
H206 H 0.59651 0.36645 0.89943 0.0
H207 H 0.57498 0.40867 0.70221 0.0
H208 H 0.60695 0.36271 0.65192 0.0
O209 O 0.6369 0.26597 0.81264 0.0
C210 C 0.72352 0.31239 0.83548 0.0
C211 C 0.63673 0.32669 0.69914 0.0
C212 C 0.5945 0.38421 0.7128 0.0
N213 N 0.62586 0.34659 0.76849 0.0
C214 C 0.64406 0.32191 0.74109 0.0
C215 C 0.6013 0.37753 0.7549 0.0
C216 C 0.61231 0.35834 0.68463 0.0
C217 C 0.69098 0.33291 0.96142 0.0
N218 N 0.71246 0.29929 0.93362 0.0
C219 C 0.71008 0.34192 0.01297 0.0
C220 C 0.77261 0.29145 0.02509 0.0
C221 C 0.77997 0.26441 -0.01782 0.0
C222 C 0.75087 0.2713 0.93973 0.0
C223 C 0.737 0.17227 0.95194 0.0
C224 C 0.72126 0.19984 0.87317 0.0
C225 C 0.70078 0.19368 0.94461 0.0
N226 N 0.69743 0.21391 0.90647 0.0
C227 C 0.7572 0.18018 0.88231 0.0
C228 C 0.76568 0.16729 0.92203 0.0
C229 C 0.63669 0.23171 0.83599 0.0
C230 C 0.53486 0.34241 0.89731 0.0
C231 C 0.54914 0.32226 0.81636 0.0
C232 C 0.51052 0.31446 0.83208 0.0
C233 C 0.5045 0.32093 0.87382 0.0
N234 N 0.5807 0.33656 0.84136 0.0
C235 C 0.57295 0.35017 0.88043 0.0
Co236 Co 0.10491 0.8347 0.63282 0.0
Co237 Co 0.15696 0.81333 0.55088 0.0
O238 O 0.11853 0.85194 0.5785 0.0
C239 C -0.00722 0.83983 0.61095 0.0
O240 O -0.00777 0.87906 0.60042 0.0
C241 C 0.13007 0.88161 0.48326 0.0
O242 O 0.09778 0.89662 0.50008 0.0
O243 O 0.20433 0.84401 0.57456 0.0
O244 O 0.17699 0.83458 0.63767 0.0
H245 H 0.259 0.67739 0.54052 0.0
H246 H 0.06633 0.9376 0.61193 0.0
O247 O 0.03158 0.8261 0.62145 0.0
H248 H 0.14389 0.91066 0.76833 0.0
H249 H 0.04926 0.84344 0.77213 0.0
H250 H 0.15279 0.78052 0.6875 0.0
H251 H 0.14981 0.8662 0.70173 0.0
H252 H 0.04035 0.84094 0.69606 0.0
O253 O 0.15078 0.85367 0.50203 0.0
H254 H 0.21478 0.73109 0.5754 0.0
H255 H 0.19497 0.82208 0.47046 0.0
H256 H 0.16252 0.78116 0.76075 0.0
H257 H 0.07888 -0.02042 0.68478 0.0
H258 H 0.11433 0.8221 0.80433 0.0
H259 H 0.09476 -0.00505 0.73768 0.0
O260 O 0.10542 0.77473 0.61713 0.0
H261 H 0.00829 0.76754 0.55617 0.0
H262 H 0.14332 0.72798 0.52022 0.0
H263 H 0.08824 0.67864 0.51111 0.0
H264 H 0.02517 0.69334 0.53168 0.0
H265 H 0.06169 0.82076 0.55233 0.0
H266 H 0.25773 0.74595 0.40125 0.0
H267 H 0.26144 0.7193 0.44891 0.0
O268 O 0.16544 0.77239 0.59479 0.0
C269 C 0.21045 0.83626 0.61265 0.0
C270 C 0.24801 0.70157 0.52068 0.0
C271 C 0.25117 0.74197 0.43728 0.0
N272 N 0.19761 0.77738 0.52314 0.0
C273 C 0.21742 0.73712 0.54315 0.0
C274 C 0.20502 0.79266 0.47928 0.0
C275 C 0.26528 0.70096 0.47179 0.0
C276 C 0.08089 0.93648 0.64279 0.0
N277 N 0.10532 0.89528 0.65575 0.0
C278 C 0.08354 -0.01153 0.70514 0.0
C279 C 0.11068 0.96791 0.7453 0.0
C280 C 0.13029 0.92209 0.7401 0.0
C281 C 0.12889 0.89051 0.69863 0.0
C282 C 0.07221 0.82996 0.7535 0.0
C283 C 0.12921 0.79316 0.70559 0.0
C284 C 0.06664 0.82706 0.7107 0.0
N285 N 0.09752 0.81357 0.68759 0.0
C286 C 0.13603 0.79564 0.74782 0.0
C287 C 0.10902 0.81758 0.77156 0.0
C288 C 0.1372 0.75468 0.61238 0.0
C289 C 0.038 0.75915 0.54643 0.0
C290 C 0.11431 0.73916 0.52267 0.0
C291 C 0.08311 0.70978 0.51967 0.0
C292 C 0.04564 0.71926 0.53222 0.0
N293 N 0.10839 0.77911 0.5344 0.0
C294 C 0.06976 0.78936 0.5462 0.0
Co295 Co 0.61973 0.55547 0.04843 0.0
Co296 Co 0.5378 0.58316 0.09364 0.0
O297 O 0.59192 0.58563 0.08564 0.0
C298 C 0.68219 0.5844 0.12004 0.0
O299 O 0.6538 0.58567 0.14734 0.0
C300 C 0.54145 0.6808 0.06184 0.0
O301 O 0.53857 0.66838 0.02336 0.0
O302 O 0.524 0.58971 0.02894 0.0
O303 O 0.57744 0.55916 0.0071 0.0
H304 H 0.42018 0.49558 0.1295 0.0
H305 H 0.65262 0.64712 0.09423 0.0
O306 O 0.67315 0.57084 0.08328 0.0
H307 H 0.68049 0.69317 0.92681 0.0
H308 H 0.58589 0.4311 0.94916 0.0
H309 H 0.50904 0.5219 0.03454 0.0
H310 H 0.6183 0.59368 0.96876 0.0
H311 H 0.61979 0.4822 -0.00397 0.0
O312 O 0.54027 0.65222 0.09156 0.0
H313 H 0.46271 0.5241 0.07592 0.0
H314 H 0.4911 0.63249 0.14891 0.0
H315 H 0.47299 0.47084 -0.00662 0.0
H316 H 0.70374 0.70889 0.07391 0.0
H317 H 0.51015 0.42549 0.94685 0.0
H318 H 0.71907 0.73392 -0.00498 0.0
O319 O 0.60131 0.4979 0.07308 0.0
H320 H 0.61122 0.64232 0.22241 0.0
H321 H 0.52561 0.52424 0.16565 0.0
H322 H 0.54867 0.52416 0.23822 0.0
H323 H 0.59101 0.58401 0.2676 0.0
H324 H 0.58693 0.64188 0.14969 0.0
H325 H 0.4552 0.60121 0.20643 0.0
H326 H 0.42081 0.53067 0.19767 0.0
O327 O 0.54061 0.51278 0.09638 0.0
C328 C 0.54972 0.58452 -0.00041 0.0
C329 C 0.43628 0.52527 0.13428 0.0
C330 C 0.45536 0.58474 0.17719 0.0
N331 N 0.48148 0.57946 0.10959 0.0
C332 C 0.46004 0.54228 0.10344 0.0
C333 C 0.4746 0.60292 0.14382 0.0
C334 C 0.43644 0.54519 0.17242 0.0
C335 C 0.65745 0.64883 0.06176 0.0
N336 N 0.63269 0.61612 0.03163 0.0
C337 C 0.68835 0.69155 0.04864 0.0
C338 C 0.69634 0.70936 -0.00025 0.0
C339 C 0.67266 0.684 0.95784 0.0
C340 C 0.62871 0.62066 -0.01501 0.0
C341 C 0.56871 0.45306 0.9663 0.0
C342 C 0.52809 0.50429 0.01617 0.0
C343 C 0.58924 0.48392 -0.00906 0.0
N344 N 0.57153 0.51427 0.01348 0.0
C345 C 0.50603 0.47445 -0.00839 0.0
C346 C 0.52655 0.44917 0.96568 0.0
C347 C 0.56787 0.48375 0.0888 0.0
C348 C 0.59175 0.61668 0.21018 0.0
C349 C 0.54476 0.5501 0.17726 0.0
C350 C 0.55734 0.55006 0.21891 0.0
C351 C 0.58098 0.58363 0.23541 0.0
N352 N 0.55473 0.58304 0.15256 0.0
C353 C 0.57771 0.61623 0.16889 0.0
Co354 Co 0.83048 0.09698 0.61252 0.0
Co355 Co 0.77601 0.11512 0.519 0.0
O356 O 0.81286 0.08047 0.55496 0.0
C357 C 0.93545 0.07269 0.58913 0.0
O358 O 0.92744 0.03892 0.56695 0.0
C359 C 0.7631 0.05445 0.4445 0.0
O360 O 0.74415 0.01988 0.431 0.0
O361 O 0.72982 0.10784 0.55361 0.0
O362 O 0.76177 0.10687 0.61676 0.0
H363 H 0.70783 0.2618 0.53659 0.0
H364 H 0.89081 0.02768 0.63133 0.0
O365 O 0.90186 0.09209 0.60339 0.0
H366 H 0.76095 -0.01347 0.68866 0.0
H367 H 0.90927 0.08589 0.74838 0.0
H368 H 0.78471 0.13592 0.67802 0.0
H369 H 0.76169 0.03613 0.63199 0.0
H370 H 0.90368 0.0869 0.67388 0.0
O371 O 0.75599 0.06642 0.48175 0.0
H372 H 0.7232 0.18439 0.55348 0.0
H373 H 0.72203 0.12626 0.4299 0.0
H374 H 0.78798 0.13335 0.75064 0.0
H375 H 0.89013 -0.02025 0.68714 0.0
H376 H 0.85105 0.10595 0.78878 0.0
H377 H 0.82446 0.95856 0.71759 0.0
O378 O 0.83248 0.15956 0.6048 0.0
H379 H 0.89925 0.04859 0.49371 0.0
H380 H 0.83691 0.18429 0.50094 0.0
H381 H 0.91079 0.17963 0.51346 0.0
H382 H 0.94151 0.11009 0.51415 0.0
H383 H 0.82829 0.05341 0.48427 0.0
H384 H 0.70143 0.24547 0.39023 0.0
H385 H 0.6961 0.29401 0.46043 0.0
O386 O 0.79249 0.16312 0.55037 0.0
C387 C 0.72855 0.11503 0.59195 0.0
C388 C 0.71344 0.24178 0.5106 0.0
C389 C 0.70966 0.23247 0.4203 0.0
N390 N 0.73752 0.15512 0.49159 0.0
C391 C 0.7267 0.19205 0.52202 0.0
C392 C 0.73036 0.15608 0.44415 0.0
C393 C 0.7053 0.26222 0.46328 0.0
C394 C 0.86151 0.01925 0.64201 0.0
N395 N 0.82656 0.03838 0.62881 0.0
C396 C 0.86161 -0.00857 0.67472 0.0
C397 C 0.82507 -0.01999 0.69214 0.0
C398 C 0.78925 -0.00392 0.67601 0.0
C399 C 0.79012 0.02409 0.64339 0.0
C400 C 0.88172 0.09666 0.73298 0.0
C401 C 0.81165 0.12358 0.69257 0.0
C402 C 0.87836 0.09811 0.69014 0.0
N403 N 0.84273 0.10967 0.67027 0.0
C404 C 0.81366 0.12198 0.73506 0.0
C405 C 0.84867 0.1077 0.75559 0.0
C406 C 0.81263 0.18068 0.57863 0.0
C407 C 0.88645 0.07901 0.4927 0.0
C408 C 0.85048 0.15503 0.49632 0.0
C409 C 0.89235 0.1522 0.50495 0.0
C410 C 0.90992 0.11366 0.50465 0.0
N411 N 0.82611 0.12019 0.48904 0.0
C412 C 0.84506 0.08284 0.48414 0.0
Co413 Co 0.29348 0.384 0.05791 0.0
Co414 Co 0.37235 0.36515 0.11363 0.0
O415 O 0.31385 0.35128 0.09731 0.0
C416 C 0.21712 0.36075 0.09707 0.0
O417 O 0.23617 0.33711 0.12379 0.0
C418 C 0.34989 0.26927 0.08209 0.0
O419 O 0.31235 0.27911 0.07322 0.0
O420 O 0.40241 0.3673 0.05706 0.0
O421 O 0.34619 0.37975 0.03107 0.0
H422 H 0.49072 0.4612 0.14488 0.0
H423 H 0.22985 0.29703 0.05996 0.0
O424 O 0.23695 0.38707 0.07637 0.0
H425 H 0.27498 0.26712 0.89465 0.0
H426 H 0.23243 0.43961 0.91817 0.0
H427 H 0.35471 0.44567 0.04525 0.0
H428 H 0.33149 0.34068 -0.02004 0.0
H429 H 0.22569 0.39892 -0.00818 0.0
O430 O 0.37467 0.29667 0.10422 0.0
H431 H 0.4437 0.42321 0.09544 0.0
H432 H 0.41987 0.35651 0.14946 0.0
H433 H 0.34451 0.49153 0.96859 0.0
H434 H 0.18622 0.24887 0.00846 0.0
H435 H 0.34444 0.51355 0.9194 0.0
H436 H 0.20555 0.23009 0.92941 0.0
O437 O 0.30284 0.43661 0.09799 0.0
H438 H 0.28595 0.30198 0.22495 0.0
H439 H 0.37575 0.42163 0.18802 0.0
H440 H 0.34456 0.42068 0.25582 0.0
H441 H 0.29947 0.36037 0.27491 0.0
H442 H 0.31728 0.30504 0.15683 0.0
H443 H 0.46802 0.36907 0.23581 0.0
H444 H 0.49591 0.43827 0.21698 0.0
O445 O 0.36736 0.43663 0.1146 0.0
C446 C 0.38277 0.37472 0.02388 0.0
C447 C 0.47529 0.43256 0.15373 0.0
C448 C 0.46149 0.3806 0.20517 0.0
N449 N 0.42777 0.37387 0.13865 0.0
C450 C 0.45016 0.41004 0.12539 0.0
C451 C 0.4366 0.35615 0.17747 0.0
C452 C 0.47816 0.41945 0.19429 0.0
C453 C 0.23781 0.30204 0.02892 0.0
N454 N 0.27682 0.33195 0.02057 0.0
C455 C 0.21168 0.26649 -0.00413 0.0
C456 C 0.22392 0.25355 0.9467 0.0
C457 C 0.26645 0.27655 0.9255 0.0
C458 C 0.30154 0.32881 -0.01928 0.0
C459 C 0.25681 0.44334 0.9417 0.0
C460 C 0.32912 0.45308 0.02635 0.0
C461 C 0.25206 0.41915 -0.01324 0.0
N462 N 0.28662 0.42507 0.02104 0.0
C463 C 0.35264 0.48437 -0.00468 0.0
C464 C 0.33044 0.4916 0.94732 0.0
C465 C 0.33455 0.45989 0.10924 0.0
C466 C 0.30589 0.32824 0.21718 0.0
C467 C 0.3559 0.3954 0.19569 0.0
C468 C 0.33852 0.39493 0.23439 0.0
C469 C 0.31332 0.36107 0.24513 0.0
N470 N 0.3489 0.36281 0.16847 0.0
C471 C 0.32411 0.32971 0.17889 0.0
Co472 Co 0.35558 0.10186 0.13768 0.0
Co473 Co 0.3269 0.1286 0.04112 0.0
O474 O 0.33208 0.13033 0.09545 0.0
C475 C 0.28829 0.13736 0.19219 0.0
O476 O 0.25115 0.15142 0.18698 0.0
C477 C 0.35941 0.22327 0.06945 0.0
O478 O 0.39217 0.20873 0.08718 0.0
O479 O 0.39653 0.13644 0.0457 0.0
O480 O 0.40809 0.1167 0.11169 0.0
H481 H 0.31509 0.06795 0.89959 0.0
H482 H 0.31091 0.18492 0.13374 0.0
O483 O 0.30119 0.11432 0.16301 0.0
H484 H 0.43018 0.21657 0.22457 0.0
H485 H 0.47388 -0.00614 0.11403 0.0
H486 H 0.37459 0.07241 0.04804 0.0
H487 H 0.43269 0.16949 0.16398 0.0
H488 H 0.43629 0.04485 0.15804 0.0
O489 O 0.33475 0.19741 0.04572 0.0
H490 H 0.36862 0.07509 0.91321 0.0
H491 H 0.25433 0.16401 -0.00828 0.0
H492 H 0.41733 0.03149 0.00781 0.0
H493 H 0.30938 0.24224 0.18002 0.0
H494 H 0.47525 0.00201 0.04102 0.0
H495 H 0.36872 0.25863 0.2293 0.0
O496 O 0.33382 0.04243 0.11447 0.0
H497 H 0.20352 0.19769 0.09897 0.0
H498 H 0.24654 0.06989 0.03226 0.0
H499 H 0.17773 0.07277 0.05611 0.0
H500 H 0.15473 0.13692 0.08945 0.0
H501 H 0.27313 0.19393 0.07674 0.0
H502 H 0.19604 0.11917 0.94569 0.0
H503 H 0.21162 0.06117 0.88745 0.0
O504 O 0.31163 0.05825 0.05213 0.0
C505 C 0.42178 0.13418 0.0793 0.0
C506 C 0.28653 0.06062 0.89088 0.0
C507 C 0.22772 0.11139 0.94256 0.0
N508 N 0.31297 0.12728 -0.02642 0.0
C509 C 0.33416 0.08416 0.91903 0.0
C510 C 0.26407 0.1374 -0.02518 0.0
C511 C 0.23783 0.07609 0.90386 0.0
C512 C 0.33836 0.19094 0.15244 0.0
N513 N 0.36878 0.16221 0.15622 0.0
C514 C 0.33717 0.22532 0.17886 0.0
C515 C 0.36967 0.23373 0.20671 0.0
C516 C 0.40404 0.2103 0.20391 0.0
C517 C 0.40424 0.17833 0.17426 0.0
C518 C 0.4563 0.01839 0.10178 0.0
C519 C 0.39539 0.05651 0.06459 0.0
C520 C 0.43102 0.04353 0.12545 0.0
N521 N 0.40059 0.06645 0.10675 0.0
C522 C 0.4224 0.03599 0.04069 0.0
C523 C 0.45505 0.01937 0.05946 0.0
C524 C 0.3192 0.0284 0.0789 0.0
C525 C 0.21331 0.16927 0.08491 0.0
C526 C 0.23934 0.09766 0.04858 0.0
C527 C 0.19896 0.09928 0.06117 0.0
C528 C 0.18597 0.13526 0.07965 0.0
N529 N 0.26706 0.13112 0.05397 0.0
C530 C 0.25352 0.16665 0.07207 0.0
Co531 Co 0.35519 0.80605 0.61164 0.0
Co532 Co 0.30154 0.89562 0.64575 0.0
O533 O 0.34147 0.86589 0.60827 0.0
C534 C 0.46778 0.82364 0.60581 0.0
O535 O 0.46621 0.85615 0.5819 0.0
C536 C 0.34593 0.961 0.59318 0.0
O537 O 0.37326 0.93358 0.5862 0.0
O538 O 0.27307 0.84206 0.65638 0.0
O539 O 0.28541 0.80615 0.60169 0.0
H540 H 0.20041 0.88428 0.75418 0.0
H541 H 0.39667 0.86123 0.55814 0.0
O542 O 0.42981 0.80877 0.61861 0.0
H543 H 0.37904 0.7285 0.48242 0.0
H544 H 0.40952 0.66738 0.5728 0.0
H545 H 0.29919 0.74142 0.63827 0.0
H546 H 0.33633 0.74355 0.53917 0.0
H547 H 0.41796 0.74171 0.58906 0.0
O548 O 0.31553 0.95164 0.61631 0.0
H549 H 0.22264 0.86552 0.69027 0.0
H550 H 0.29679 -0.02584 0.68533 0.0
H551 H 0.28944 0.66868 0.62284 0.0
H552 H 0.44111 0.84775 0.49984 0.0
H553 H 0.34343 0.63058 0.58487 0.0
H554 H 0.43574 0.77901 0.46508 0.0
O555 O 0.34937 0.80515 0.67552 0.0
H556 H 0.4336 0.86305 0.68237 0.0
H557 H 0.31571 0.91991 0.74169 0.0
H558 H 0.3769 0.91151 0.78691 0.0
H559 H 0.43236 0.87324 0.76087 0.0
H560 H 0.39225 0.89501 0.64134 0.0
H561 H 0.26384 0.00082 0.74831 0.0
H562 H 0.20955 0.95742 0.77918 0.0
O563 O 0.29786 0.84565 0.68791 0.0
C564 C 0.25729 0.82397 0.62469 0.0
C565 C 0.21763 0.90713 0.73737 0.0
C566 C 0.25287 0.97249 0.73276 0.0
N567 N 0.26176 0.92045 0.68122 0.0
C568 C 0.23259 0.89603 0.70006 0.0
C569 C 0.2708 0.95864 0.69683 0.0
C570 C 0.22406 0.94726 0.75162 0.0
C571 C 0.39117 0.83342 0.53978 0.0
N572 N 0.3634 0.80419 0.55237 0.0
C573 C 0.41719 0.82525 0.50771 0.0
C574 C 0.41396 0.78674 0.48796 0.0
C575 C 0.38232 0.75868 0.49755 0.0
C576 C 0.35679 0.76833 0.52937 0.0
C577 C 0.38516 0.6834 0.58715 0.0
C578 C 0.32337 0.72531 0.62393 0.0
C579 C 0.39013 0.72539 0.59766 0.0
N580 N 0.35798 0.74629 0.61294 0.0
C581 C 0.31749 0.68362 0.61416 0.0
C582 C 0.34767 0.66295 0.59356 0.0
C583 C 0.32615 0.8217 0.70208 0.0
C584 C 0.4124 0.87982 0.69793 0.0
C585 C 0.34369 0.9128 0.72763 0.0
C586 C 0.37706 0.90543 0.75473 0.0
C587 C 0.40999 0.88534 0.74001 0.0
N588 N 0.34647 0.90476 0.686 0.0
C589 C 0.3826 0.89211 0.67208 0.0
Co590 Co 0.50254 0.83772 0.12977 0.0
Co591 Co 0.5475 0.82778 0.0428 0.0
O592 O 0.54672 0.83056 0.09917 0.0
C593 C 0.56312 0.85063 0.19186 0.0
O594 O 0.5984 0.85402 0.17406 0.0
C595 C 0.55391 0.72813 0.06831 0.0
O596 O 0.58717 0.73536 0.09138 0.0
O597 O 0.48124 0.82659 0.03092 0.0
O598 O 0.47132 0.80107 0.08961 0.0
H599 H 0.58489 0.91046 0.92683 0.0
H600 H 0.58703 0.7913 0.14045 0.0
O601 O 0.53216 0.8669 0.17477 0.0
H602 H 0.49053 0.70312 0.21511 0.0
H603 H 0.39291 0.93899 0.13768 0.0
H604 H 0.48556 0.89204 0.03764 0.0
H605 H 0.46584 0.75453 0.16843 0.0
H606 H 0.45798 0.90413 0.16259 0.0
O607 O 0.54034 0.75895 0.04485 0.0
H608 H 0.53423 0.89103 -0.02188 0.0
H609 H 0.57068 0.7664 -0.02365 0.0
H610 H 0.44255 0.94103 0.01983 0.0
H611 H 0.6126 0.73777 0.18419 0.0
H612 H 0.39329 0.96629 0.07031 0.0
H613 H 0.56471 0.69551 0.22589 0.0
O614 O 0.52702 0.90045 0.1094 0.0
H615 H 0.69472 0.77668 0.04176 0.0
H616 H 0.6069 0.88062 0.09622 0.0
H617 H 0.67901 0.88499 0.11376 0.0
H618 H 0.72431 0.83217 0.08657 0.0
H619 H 0.62086 0.7724 0.02314 0.0
H620 H 0.62033 0.78332 0.92331 0.0
H621 H 0.63133 0.85797 0.90291 0.0
O622 O 0.55428 0.8959 0.04752 0.0
C623 C 0.45482 0.81435 0.05764 0.0
C624 C 0.58274 0.87898 0.93828 0.0
C625 C 0.60274 0.80764 0.93628 0.0
N626 N 0.55451 0.8292 -0.01559 0.0
C627 C 0.5542 0.86775 0.96722 0.0
C628 C 0.57411 0.798 0.9658 0.0
C629 C 0.60888 0.84914 0.92478 0.0
C630 C 0.56434 0.77386 0.15697 0.0
N631 N 0.52326 0.78314 0.15507 0.0
C632 C 0.57992 0.74249 0.18196 0.0
C633 C 0.55334 0.71826 0.20458 0.0
C634 C 0.51172 0.72297 0.19871 0.0
C635 C 0.49755 0.75372 0.17212 0.0
C636 C 0.41599 0.92917 0.11805 0.0
C637 C 0.46671 0.89928 0.06234 0.0
C638 C 0.44991 0.90692 0.13111 0.0
N639 N 0.47394 0.88815 0.10386 0.0
C640 C 0.44031 0.92866 0.05046 0.0
C641 C 0.41275 0.94155 0.07802 0.0
C642 C 0.54516 0.92043 0.07846 0.0
C643 C 0.67495 0.79981 0.05224 0.0
C644 C 0.62507 0.8587 0.08113 0.0
C645 C 0.6667 0.86089 0.09263 0.0
C646 C 0.69192 0.83128 0.07775 0.0
N647 N 0.60792 0.82835 0.05465 0.0
C648 C 0.6329 0.79836 0.0412 0.0
Co649 Co 0.58218 0.15055 0.60955 0.0
Co650 Co 0.62641 0.05417 0.63202 0.0
O651 O 0.5856 0.08935 0.59709 0.0
C652 C 0.46793 0.14079 0.59958 0.0
O653 O 0.46839 0.11697 0.56643 0.0
C654 C 0.60137 -0.014 0.56668 0.0
O655 O 0.58237 0.01018 0.54052 0.0
O656 O 0.67111 0.07506 0.60268 0.0
O657 O 0.65315 0.1434 0.60403 0.0
H658 H 0.74499 0.05738 0.7345 0.0
H659 H 0.51321 0.16154 0.54219 0.0
O660 O 0.50721 0.15127 0.61679 0.0
H661 H 0.62884 0.24989 0.50482 0.0
H662 H 0.53898 0.29503 0.58755 0.0
H663 H 0.65008 0.2082 0.63976 0.0
H664 H 0.63897 0.19483 0.55522 0.0
H665 H 0.52495 0.22216 0.60311 0.0
O666 O 0.62119 0.00107 0.59823 0.0
H667 H 0.71072 0.07615 0.67011 0.0
H668 H 0.6262 -0.02596 0.67811 0.0
H669 H 0.66703 0.27753 0.61298 0.0
H670 H 0.50372 0.20885 0.48647 0.0
H671 H 0.61114 0.32206 0.58732 0.0
H672 H 0.56201 0.256 0.46811 0.0
O673 O 0.5896 0.13891 0.66964 0.0
H674 H 0.49106 0.06656 0.61787 0.0
H675 H 0.60082 0.03926 0.72056 0.0
H676 H 0.54934 0.08365 0.73842 0.0
H677 H 0.49413 0.10356 0.68337 0.0
H678 H 0.54431 0.02147 0.60225 0.0
H679 H 0.66035 0.95333 0.74334 0.0
H680 H 0.72077 -0.00559 0.77144 0.0
O681 O 0.64107 0.09998 0.67131 0.0
C682 C 0.68199 0.11319 0.60345 0.0
C683 C 0.71879 0.03871 0.72245 0.0
C684 C 0.67155 -0.01968 0.72712 0.0
N685 N 0.66493 0.02641 0.66978 0.0
C686 C 0.6996 0.04834 0.68478 0.0
C687 C 0.65234 -0.00821 0.6899 0.0
C688 C 0.70515 0.00373 0.74326 0.0
C689 C 0.53951 0.17724 0.5329 0.0
N690 N 0.57697 0.17138 0.55213 0.0
C691 C 0.53381 0.20566 0.50113 0.0
C692 C 0.56622 0.23201 0.49082 0.0
C693 C 0.60382 0.22818 0.51121 0.0
C694 C 0.60925 0.19624 0.53991 0.0
C695 C 0.56358 0.2762 0.59911 0.0
C696 C 0.62543 0.22702 0.62877 0.0
C697 C 0.55549 0.23492 0.60997 0.0
N698 N 0.58662 0.20999 0.62264 0.0
C699 C 0.63532 0.26647 0.61351 0.0
C700 C 0.60406 0.29136 0.59899 0.0
C701 C 0.62066 0.12526 0.68906 0.0
C702 C 0.51659 0.06371 0.63952 0.0
C703 C 0.57699 0.04554 0.69798 0.0
C704 C 0.54856 0.07355 0.70711 0.0
C705 C 0.51899 0.08443 0.67683 0.0
N706 N 0.57954 0.03438 0.6584 0.0
C707 C 0.54542 0.03519 0.63249 0.0
Co708 Co 0.40694 0.78356 0.8017 0.0
Co709 Co 0.32979 0.85574 0.83883 0.0
O710 O 0.391 0.84324 0.81974 0.0
C711 C 0.48278 0.81766 0.83964 0.0
O712 O 0.47301 0.85052 0.81921 0.0
C713 C 0.31442 0.96948 0.82693 0.0
O714 O 0.27654 0.96483 0.81413 0.0
O715 O 0.32163 0.84671 0.77466 0.0
O716 O 0.35612 0.78715 0.76047 0.0
H717 H 0.18036 0.81941 0.81151 0.0
H718 H 0.49495 0.75834 0.78633 0.0
O719 O 0.45641 0.78714 0.84128 0.0
H720 H 0.40891 0.76162 0.6648 0.0
H721 H 0.49385 0.66374 0.80352 0.0
H722 H 0.37337 0.72274 0.73551 0.0
H723 H 0.40154 0.81059 0.71848 0.0
H724 H 0.45417 0.71372 0.84079 0.0
O725 O 0.33513 0.93299 0.83428 0.0
H726 H 0.2537 0.81259 0.80394 0.0
H727 H 0.27375 0.92385 0.87389 0.0
H728 H 0.41025 0.67015 0.69981 0.0
H729 H 0.51103 0.7182 0.7241 0.0
H730 H 0.47141 0.64022 0.73279 0.0
H731 H 0.47161 0.72297 0.66105 0.0
O732 O 0.37512 0.76765 0.84458 0.0
H733 H 0.38334 0.95227 4e-05 0.0
H734 H 0.31939 0.85149 0.90629 0.0
H735 H 0.24458 0.90743 0.95213 0.0
H736 H 0.30112 0.96101 -0.00667 0.0
H737 H 0.42212 0.89044 0.95454 0.0
H738 H 0.20131 0.93448 0.87459 0.0
H739 H 0.15242 0.88013 0.84499 0.0
O740 O 0.31532 0.78674 0.835 0.0
C741 C 0.33301 0.81724 0.74908 0.0
C742 C 0.20076 0.84297 0.82355 0.0
C743 C 0.21237 0.90722 0.85943 0.0
N744 N 0.26987 0.866 0.84075 0.0
C745 C 0.24292 0.83847 0.82119 0.0
C746 C 0.2543 0.90133 0.85755 0.0
C747 C 0.1852 0.87706 0.84297 0.0
C748 C 0.47876 0.76452 0.75779 0.0
N749 N 0.44516 0.78948 0.75675 0.0
C750 C 0.49021 0.74261 0.72246 0.0
C751 C 0.46679 0.74385 0.68662 0.0
C752 C 0.4327 0.76682 0.68717 0.0
C753 C 0.42616 0.79291 0.71988 0.0
C754 C 0.46598 0.67477 0.78949 0.0
C755 C 0.39819 0.70848 0.75216 0.0
C756 C 0.44324 0.70354 0.81039 0.0
N757 N 0.41362 0.72433 0.78922 0.0
C758 C 0.41869 0.67784 0.73149 0.0
C759 C 0.45358 0.6618 0.74971 0.0
C760 C 0.34105 0.75677 0.82917 0.0
C761 C 0.36593 0.92566 -0.01191 0.0
C762 C 0.29048 0.86128 0.91808 0.0
C763 C 0.27671 0.90038 0.95252 0.0
C764 C 0.31174 0.93092 -0.01538 0.0
N765 N 0.33888 0.85401 0.91104 0.0
C766 C 0.38851 0.88778 0.95527 0.0
Co767 Co 0.586 0.87217 0.38638 0.0
Co768 Co 0.56192 0.90224 0.30261 0.0
O769 O 0.57801 0.85389 0.33055 0.0
C770 C 0.67613 0.91236 0.39264 0.0
O771 O 0.66775 0.94055 0.42013 0.0
C772 C 0.56285 0.84345 0.23567 0.0
O773 O 0.57635 0.80886 0.25114 0.0
O774 O 0.50413 0.89093 0.3291 0.0
O775 O 0.52272 0.86772 0.39042 0.0
H776 H 0.47008 0.05085 0.22799 0.0
H777 H 0.63893 0.80581 0.3611 0.0
O778 O 0.64958 0.88178 0.38169 0.0
H779 H 0.51774 0.73757 0.42102 0.0
H780 H 0.62582 0.82405 0.51763 0.0
H781 H 0.53615 0.92029 0.44452 0.0
H782 H 0.53535 0.81121 0.43576 0.0
H783 H 0.64529 0.85296 0.45257 0.0
O784 O 0.54087 0.86637 0.25653 0.0
H785 H 0.50631 0.03252 0.2965 0.0
H786 H 0.57591 0.92069 0.2085 0.0
H787 H 0.51273 0.88811 0.50864 0.0
H788 H 0.62338 0.73106 0.34736 0.0
H789 H 0.5553 0.83535 0.54284 0.0
H790 H 0.56165 0.69695 0.37615 0.0
O791 O 0.58473 0.93149 0.36543 0.0
H792 H 0.71387 0.83247 0.26736 0.0
H793 H 0.61257 0.91792 0.27646 0.0
H794 H 0.72276 -0.013 0.23961 0.0
H795 H 0.72393 0.93248 0.24775 0.0
H796 H 0.63672 0.83133 0.29018 0.0
H797 H 0.53816 0.95722 0.14814 0.0
H798 H 0.50556 0.02906 0.15787 0.0
O799 O 0.58354 0.93262 0.3612 0.0
C800 C 0.49389 0.87887 0.3654 0.0
C801 C 0.49547 0.03234 0.22542 0.0
C802 C 0.52612 0.96183 0.17662 0.0
N803 N 0.5469 0.95451 0.262 0.0
C804 C 0.51516 0.01506 0.26923 0.0
C805 C 0.54924 0.93636 0.2158 0.0
C806 C 0.50227 0.00718 0.18194 0.0
C807 C 0.61385 0.79043 0.37639 0.0
N808 N 0.5881 0.81323 0.39894 0.0
C809 C 0.60472 0.74829 0.3678 0.0
C810 C 0.5697 0.72925 0.38348 0.0
C811 C 0.54514 0.75199 0.40874 0.0
C812 C 0.55556 0.79382 0.41723 0.0
C813 C 0.60532 0.84446 0.50204 0.0
C814 C 0.55614 0.89977 0.46122 0.0
C815 C 0.61755 0.86312 0.46597 0.0
N816 N 0.59079 0.88644 0.44383 0.0
C817 C 0.54216 0.88078 0.49679 0.0
C818 C 0.56623 0.85131 0.51611 0.0
C819 C 0.59447 0.9609 0.39002 0.0
C820 C 0.69902 0.86177 0.2664 0.0
C821 C 0.62915 0.94438 0.26619 0.0
C822 C 0.70679 0.95417 0.24774 0.0
C823 C 0.72926 0.90357 0.25159 0.0
N824 N 0.61734 0.89991 0.27886 0.0
C825 C 0.64781 0.86081 0.27873 0.0
Co826 Co 0.56069 0.15012 0.79627 0.0
Co827 Co 0.64535 0.08203 0.81439 0.0
O828 O 0.58194 0.09018 0.80691 0.0
C829 C 0.50135 0.10253 0.85306 0.0
O830 O 0.52276 0.07035 0.84463 0.0
C831 C 0.6283 0.97056 0.81913 0.0
O832 O 0.58994 -0.02684 0.8294 0.0
O833 O 0.64334 0.09356 0.75313 0.0
O834 O 0.60656 0.15241 0.75491 0.0
H835 H 0.79397 0.13211 0.81618 0.0
H836 H 0.47003 0.12269 0.78038 0.0
O837 O 0.51332 0.13917 0.83914 0.0
H838 H 0.51238 0.21181 0.66897 0.0
H839 H 0.46547 0.26033 0.7579 0.0
H840 H 0.60821 0.22289 0.75805 0.0
H841 H 0.56127 0.18075 0.7111 0.0
H842 H 0.49168 0.2038 0.80527 0.0
O843 O 0.64618 0.00791 0.80789 0.0
H844 H 0.7209 0.13402 0.79281 0.0
H845 H 0.70009 0.01853 0.8531 0.0
H846 H 0.58235 0.27059 0.70878 0.0
H847 H 0.41899 0.14881 0.72827 0.0
H848 H 0.51075 0.29143 0.70887 0.0
H849 H 0.44013 0.19933 0.67874 0.0
O850 O 0.59624 0.1677 0.8415 0.0
H851 H 0.62856 -0.00691 0.93723 0.0
H852 H 0.68917 0.12413 0.88628 0.0
H853 H 0.71521 0.09521 0.95235 0.0
H854 H 0.68549 0.02962 -0.02226 0.0
H855 H 0.60228 0.02528 0.87332 0.0
H856 H 0.77211 0.01361 0.86951 0.0
H857 H 0.82026 0.07191 0.85277 0.0
O858 O 0.65492 0.15229 0.82048 0.0
C859 C 0.62471 0.12422 0.73512 0.0
C860 C 0.77323 0.10629 0.82188 0.0
C861 C 0.76137 0.03989 0.85215 0.0
N862 N 0.70504 0.07588 0.81955 0.0
C863 C 0.73173 0.10729 0.80918 0.0
C864 C 0.71994 0.04245 0.84097 0.0
C865 C 0.78818 0.07247 0.84296 0.0
C866 C 0.48029 0.13867 0.75412 0.0
N867 N 0.52107 0.14512 0.7486 0.0
C868 C 0.45093 0.15605 0.72708 0.0
C869 C 0.46228 0.18266 0.69669 0.0
C870 C 0.50286 0.18872 0.6904 0.0
C871 C 0.53132 0.16867 0.71494 0.0
C872 C 0.49693 0.25222 0.76012 0.0
C873 C 0.57752 0.23246 0.76249 0.0
C874 C 0.512 0.22278 0.78832 0.0
N875 N 0.55091 0.21011 0.78674 0.0
C876 C 0.5632 0.26035 0.7331 0.0
C877 C 0.52253 0.27044 0.73193 0.0
C878 C 0.62922 0.1821 0.82825 0.0
C879 C 0.64243 0.02184 0.92624 0.0
C880 C 0.67432 0.09679 0.89831 0.0
C881 C 0.6896 0.0804 0.93543 0.0
C882 C 0.67364 0.04265 0.94932 0.0
N883 N 0.64582 0.07463 0.87415 0.0
C884 C 0.62885 0.03871 0.88888 0.0
Co885 Co 0.30526 0.09259 0.37582 0.0
Co886 Co 0.34087 0.08017 0.283 0.0
O887 O 0.3039 0.1053 0.3185 0.0
C888 C 0.20593 0.06029 0.35842 0.0
O889 O 0.22218 0.02675 0.34487 0.0
C890 C 0.31183 0.15009 0.23107 0.0
O891 O 0.2956 0.17671 0.25606 0.0
O892 O 0.39618 0.10126 0.3156 0.0
O893 O 0.37476 0.09377 0.37859 0.0
H894 H 0.41505 0.97016 0.27278 0.0
H895 H 0.25798 0.15847 0.42031 0.0
O896 O 0.23447 0.09031 0.37041 0.0
H897 H 0.36406 0.2346 0.34419 0.0
H898 H 0.26901 0.10693 0.5244 0.0
H899 H 0.36379 0.04806 0.42986 0.0
H900 H 0.3591 0.15912 0.34292 0.0
H901 H 0.24924 0.09818 0.4488 0.0
O902 O 0.34129 0.12928 0.245 0.0
H903 H 0.41363 0.03564 0.29839 0.0
H904 H 0.34407 0.06815 0.192 0.0
H905 H 0.38866 0.06697 0.49998 0.0
H906 H 0.26138 0.2354 0.42176 0.0
H907 H 0.3431 0.10326 0.54496 0.0
H908 H 0.31378 0.27383 0.38276 0.0
O909 O 0.30296 0.03131 0.36797 0.0
H910 H 0.18611 0.09399 0.20513 0.0
H911 H 0.29844 0.03732 0.25547 0.0
H912 H 0.21441 0.94981 0.18505 0.0
H913 H 0.16672 0.01932 0.16914 0.0
H914 H 0.24868 0.11255 0.25667 0.0
H915 H 0.36987 0.00411 0.15681 0.0
H916 H 0.40294 0.95706 0.19638 0.0
O917 O 0.34421 0.03027 0.31676 0.0
C918 C 0.40681 0.09619 0.3543 0.0
C919 C 0.40727 -0.00724 0.25147 0.0
C920 C 0.37647 0.01275 0.18806 0.0
N921 N 0.3759 0.05497 0.24735 0.0
C922 C 0.40353 0.03109 0.26667 0.0
C923 C 0.36527 0.04889 0.20697 0.0
C924 C 0.39633 -0.01543 0.21092 0.0
C925 C 0.28155 0.17467 0.40426 0.0
N926 N 0.3092 0.15319 0.38323 0.0
C927 C 0.2828 0.21832 0.4043 0.0
C928 C 0.31252 0.24015 0.3827 0.0
C929 C 0.34086 0.21825 0.36152 0.0
C930 C 0.33848 0.17488 0.36191 0.0
C931 C 0.29079 0.09769 0.50233 0.0
C932 C 0.34427 0.06536 0.44916 0.0
C933 C 0.27973 0.09226 0.46046 0.0
N934 N 0.30856 0.08125 0.43398 0.0
C935 C 0.35802 0.07443 0.4892 0.0
C936 C 0.33164 0.09336 0.51505 0.0
C937 C 0.32804 0.01274 0.34644 0.0
C938 C 0.2077 0.06977 0.21033 0.0
C939 C 0.29027 0.00674 0.24428 0.0
C940 C 0.22381 -0.01957 0.19791 0.0
C941 C 0.19393 0.02236 0.18921 0.0
N942 N 0.28875 0.0548 0.25406 0.0
C943 C 0.25052 0.08299 0.24109 0.0
Co944 Co 0.11712 0.39983 0.05636 0.0
Co945 Co 0.03145 0.34741 0.08124 0.0
O946 O 0.08977 0.35365 0.08344 0.0
C947 C 0.17714 0.3471 0.07857 0.0
O948 O 0.15756 0.31398 0.09259 0.0
C949 C 0.03739 0.37471 0.18448 0.0
O950 O 0.0248 0.4128 0.18116 0.0
O951 O 0.01796 0.40841 0.08121 0.0
O952 O 0.07463 0.43768 0.07488 0.0
H953 H 0.92315 0.39548 -0.00043 0.0
H954 H 0.14574 0.37099 0.15567 0.0
O955 O 0.16355 0.36509 0.0461 0.0
H956 H 0.15569 0.55089 0.16522 0.0
H957 H 0.14788 0.49517 0.93962 0.0
H958 H 0.02206 0.40234 0.01349 0.0
H959 H 0.14371 0.47493 0.06242 0.0
H960 H 0.15942 0.42939 -0.01562 0.0
O961 O 0.03765 0.3508 0.15032 0.0
H962 H -0.03213 0.33951 0.01305 0.0
H963 H -0.02792 0.37313 0.13843 0.0
H964 H 0.02509 0.4871 0.96661 0.0
H965 H 0.16098 0.41486 0.22543 0.0
H966 H 0.02796 0.53401 0.93897 0.0
H967 H 0.16762 0.50014 0.23266 0.0
O968 O 0.0959 0.37014 -0.00091 0.0
H969 H 0.08808 0.21273 0.1318 0.0
H970 H -0.00789 0.27669 0.03277 0.0
H971 H 0.00035 0.20136 0.0297 0.0
H972 H 0.04846 0.1686 0.07965 0.0
H973 H 0.07996 0.28879 0.13283 0.0
H974 H 0.91612 0.41768 0.12861 0.0
H975 H 0.88982 0.43003 0.05931 0.0
O976 O 0.03736 0.33607 0.01227 0.0
C977 C 0.03809 0.44175 0.08125 0.0
C978 C 0.92887 0.38595 0.03093 0.0
C979 C 0.92604 0.39917 0.1031 0.0
N980 N -0.02786 0.34844 0.07773 0.0
C981 C 0.95542 0.35385 0.039 0.0
C982 C 0.95661 0.37094 0.1093 0.0
C983 C 0.91214 0.40683 0.06358 0.0
C984 C 0.149 0.40432 0.15218 0.0
N985 N 0.14305 0.42214 0.1072 0.0
C986 C 0.15656 0.43265 0.19764 0.0
C987 C 0.15841 0.4859 0.20346 0.0
C988 C 0.15235 0.5172 0.1613 0.0
C989 C 0.14322 0.46845 0.09522 0.0
C990 C 0.12149 0.4831 0.95272 0.0
C991 C 0.04293 0.42428 0.00099 0.0
C992 C 0.12841 0.439 -0.02141 0.0
N993 N 0.09207 0.41613 0.00111 0.0
C994 C 0.01626 0.46344 -0.01852 0.0
C995 C 0.04254 0.50297 0.95458 0.0
C996 C 0.06664 0.34441 -0.01472 0.0
C997 C 0.06696 0.22667 0.10996 0.0
C998 C 0.01351 0.26315 0.05435 0.0
C999 C 0.01784 0.2202 0.0526 0.0
C1000 C 0.04477 0.20188 0.08065 0.0
N1001 N 0.0354 0.2874 0.08311 0.0
C1002 C 0.06205 0.26968 0.11058 0.0
Co1003 Co 0.13891 0.54341 0.76466 0.0
Co1004 Co 0.11354 0.62653 0.83041 0.0
O1005 O 0.10998 0.56447 0.81401 0.0
C1006 C 0.07308 0.46884 0.76621 0.0
O1007 O 0.04294 0.48348 0.787 0.0
C1008 C 0.07336 0.63565 0.93233 0.0
O1009 O 0.05124 0.66645 0.91995 0.0
O1010 O 0.17552 0.62327 0.84029 0.0
O1011 O 0.18543 0.58835 0.78212 0.0
H1012 H 0.06816 0.76953 0.81776 0.0
H1013 H 0.10931 0.48841 0.82687 0.0
O1014 O 0.09609 0.49525 0.74657 0.0
H1015 H 0.23974 0.54317 0.84756 0.0
H1016 H 0.19481 0.46023 0.64574 0.0
H1017 H 0.20485 0.59131 0.71867 0.0
H1018 H 0.22193 0.52818 0.77982 0.0
H1019 H 0.14281 0.47354 0.69744 0.0
O1020 O 0.09659 0.61753 0.90193 0.0
H1021 H 0.11147 0.71129 0.7895 0.0
H1022 H 0.14068 0.67577 0.9074 0.0
H1023 H 0.26153 0.57049 0.68199 0.0
H1024 H 0.14502 0.45488 0.88332 0.0
H1025 H 0.25704 0.50375 0.64225 0.0
H1026 H 0.20109 0.50046 0.9042 0.0
O1027 O 0.10997 0.5791 0.73106 0.0
H1028 H -0.02499 0.56147 0.7857 0.0
H1029 H 0.05824 0.64614 0.83031 0.0
H1030 H -0.02881 0.68402 0.83806 0.0
H1031 H 0.9361 0.62005 0.80912 0.0
H1032 H 0.04836 0.56937 0.78267 0.0
H1033 H 0.1134 0.73807 0.9376 0.0
H1034 H 0.07252 0.78396 0.89198 0.0
O1035 O 0.12742 0.6385 0.76068 0.0
C1036 C 0.19987 0.61073 0.81275 0.0
C1037 C 0.08636 0.75001 0.83707 0.0
C1038 C 0.11014 0.73197 0.90472 0.0
N1039 N 0.11942 0.6861 0.84679 0.0
C1040 C 0.10694 0.71605 0.82124 0.0
C1041 C 0.12636 0.69657 0.88737 0.0
C1042 C 0.08767 0.75768 0.87931 0.0
C1043 C 0.14129 0.48549 0.82558 0.0
N1044 N 0.1638 0.50488 0.79645 0.0
C1045 C 0.15922 0.47614 0.86234 0.0
C1046 C 0.19293 0.50046 0.87317 0.0
C1047 C 0.21474 0.52191 0.84316 0.0
C1048 C 0.20318 0.51529 0.80351 0.0
C1049 C 0.19761 0.48693 0.66497 0.0
C1050 C 0.20325 0.55971 0.70772 0.0
C1051 C 0.16786 0.49582 0.6935 0.0
N1052 N 0.17235 0.53115 0.71698 0.0
C1053 C 0.23552 0.54912 0.68402 0.0
C1054 C 0.23295 0.51201 0.66244 0.0
C1055 C 0.12687 0.61361 0.72622 0.0
C1056 C -0.00931 0.58935 0.7982 0.0
C1057 C 0.03159 0.66175 0.83381 0.0
C1058 C -0.01103 0.65786 0.82948 0.0
C1059 C -0.03106 0.62178 0.81314 0.0
N1060 N 0.05377 0.6285 0.81856 0.0
C1061 C 0.03278 0.59353 0.79786 0.0
Co1062 Co 0.9018 0.64925 0.2954 0.0
Co1063 Co 0.82957 0.59063 0.36558 0.0
O1064 O 0.88751 0.61964 0.35068 0.0
C1065 C -0.01774 0.59913 0.28649 0.0
O1066 O -0.02655 0.57222 0.31422 0.0
C1067 C 0.81079 0.58912 0.47452 0.0
O1068 O 0.77099 0.59256 0.46926 0.0
O1069 O 0.81363 0.6558 0.36078 0.0
O1070 O 0.85843 0.68189 0.31511 0.0
H1071 H 0.67806 0.60958 0.35154 0.0
H1072 H 0.95932 0.62482 0.35985 0.0
O1073 O 0.95356 0.62195 0.27215 0.0
H1074 H -0.03126 0.79779 0.30442 0.0
H1075 H 0.94859 0.73412 0.17026 0.0
H1076 H 0.83333 0.68761 0.2493 0.0
H1077 H 0.9186 0.7419 0.28939 0.0
H1078 H 0.95944 0.68082 0.2248 0.0
O1079 O 0.83322 0.58994 0.43914 0.0
H1080 H 0.75042 0.62208 0.33513 0.0
H1081 H 0.78485 0.52389 0.41347 0.0
H1082 H 0.82599 0.74511 0.20347 0.0
H1083 H 0.03487 0.65313 0.3869 0.0
H1084 H 0.88511 0.77015 0.16364 0.0
H1085 H 0.00381 0.76987 0.33572 0.0
O1086 O 0.8685 0.61214 0.26245 0.0
H1087 H 0.94641 0.4349 0.35063 0.0
H1088 H 0.79021 0.51977 0.31734 0.0
H1089 H 0.8159 0.45368 0.27044 0.0
H1090 H 0.88977 0.41465 0.28465 0.0
H1091 H 0.93389 0.49736 0.40468 0.0
H1092 H 0.71235 0.50746 0.42691 0.0
H1093 H 0.65827 0.55036 0.39591 0.0
O1094 O 0.81521 0.59132 0.29713 0.0
C1095 C 0.82878 0.68657 0.33767 0.0
C1096 C 0.7013 0.58987 0.36443 0.0
C1097 C 0.7205 0.53205 0.40609 0.0
N1098 N 0.77237 0.57332 0.37294 0.0
C1099 C 0.74255 0.597 0.35556 0.0
C1100 C 0.76162 0.54106 0.3978 0.0
C1101 C 0.69018 0.55666 0.38928 0.0
C1102 C -0.03119 0.65561 0.35115 0.0
N1103 N 0.93963 0.68377 0.32424 0.0
C1104 C 0.01473 0.6743 0.37038 0.0
C1105 C 0.02293 0.75355 0.35177 0.0
C1106 C -0.02081 0.76753 0.32184 0.0
C1107 C 0.94207 0.73085 0.31031 0.0
C1108 C 0.9257 0.7266 0.19158 0.0
C1109 C 0.86083 0.6994 0.23552 0.0
C1110 C 0.9308 0.69584 0.2217 0.0
N1111 N 0.89891 0.68425 0.24551 0.0
C1112 C 0.85571 0.73182 0.20815 0.0
C1113 C 0.88875 0.74601 0.18634 0.0
C1114 C 0.83089 0.60667 0.26252 0.0
C1115 C 0.91663 0.44813 0.34935 0.0
C1116 C 0.81699 0.50387 0.328 0.0
C1117 C 0.83275 0.46084 0.29896 0.0
C1118 C 0.88008 0.435 0.30885 0.0
N1119 N 0.84732 0.52329 0.36644 0.0
C1120 C 0.90788 0.48918 0.38314 0.0
Co1121 Co 0.81449 0.40216 0.82015 0.0
Co1122 Co 0.85165 0.32012 0.86958 0.0
O1123 O 0.85201 0.38021 0.86546 0.0
C1124 C 0.87545 0.47091 0.84608 0.0
O1125 O 0.89558 0.44484 0.86901 0.0
C1126 C 0.85423 0.34113 -0.02127 0.0
O1127 O 0.85559 0.38171 -0.02422 0.0
O1128 O 0.79029 0.31554 0.87041 0.0
O1129 O 0.78391 0.3469 0.81278 0.0
H1130 H 0.85432 0.1799 0.80119 0.0
H1131 H 0.82923 0.4361 0.90026 0.0
O1132 O 0.84246 0.45927 0.82574 0.0
H1133 H 0.68447 0.39264 0.89312 0.0
H1134 H 0.73909 0.49925 0.72347 0.0
H1135 H 0.76027 0.35434 0.75024 0.0
H1136 H 0.7225 0.40368 0.82853 0.0
H1137 H 0.79699 0.47815 0.77251 0.0
O1138 O 0.85244 0.31962 0.94201 0.0
H1139 H 0.83637 0.25316 0.80554 0.0
H1140 H 0.86542 0.25241 0.93463 0.0
H1141 H 0.70152 0.37293 0.71109 0.0
H1142 H 0.7921 0.4311 0.9628 0.0
H1143 H 0.68829 0.44631 0.69747 0.0
H1144 H 0.72523 0.4026 0.96042 0.0
O1145 O 0.85321 0.39217 0.78022 0.0
H1146 H -0.03388 0.30351 0.95875 0.0
H1147 H 0.91278 0.28438 0.81653 0.0
H1148 H 0.95172 0.22922 0.84929 0.0
H1149 H -0.02475 0.23727 0.92311 0.0
H1150 H 0.92122 0.35584 0.92636 0.0
H1151 H 0.87678 0.17892 0.93172 0.0
H1152 H 0.87343 0.14175 0.86428 0.0
O1153 O 0.8515 0.32505 0.79708 0.0
C1154 C 0.76843 0.32366 0.83896 0.0
C1155 C 0.85502 0.19561 0.83061 0.0
C1156 C 0.86801 0.19505 0.90381 0.0
N1157 N 0.8503 0.25877 0.86999 0.0
C1158 C 0.84518 0.23742 0.83339 0.0
C1159 C 0.86025 0.23738 0.90522 0.0
C1160 C 0.86624 0.17425 0.86606 0.0
C1161 C 0.79762 0.42697 0.89805 0.0
N1162 N 0.77868 0.41581 0.86138 0.0
C1163 C 0.7773 0.4238 0.93363 0.0
C1164 C 0.73783 0.4088 0.93153 0.0
C1165 C 0.71653 0.40162 0.89407 0.0
C1166 C 0.7379 0.40643 0.85834 0.0
C1167 C 0.74269 0.46753 0.73241 0.0
C1168 C 0.75373 0.38683 0.75092 0.0
C1169 C 0.77427 0.45619 0.7607 0.0
N1170 N 0.7766 0.41684 0.77364 0.0
C1171 C 0.72051 0.39697 0.7257 0.0
C1172 C 0.71399 0.43793 0.71728 0.0
C1173 C 0.85326 0.35592 0.76803 0.0
C1174 C 0.95388 0.2993 0.92783 0.0
C1175 C 0.92541 0.28949 0.84742 0.0
C1176 C 0.94647 0.25743 0.86616 0.0
C1177 C 0.95947 0.26187 0.90746 0.0
N1178 N 0.91078 0.32014 0.87134 0.0
C1179 C 0.9298 0.32912 0.90871 0.0
Co1180 Co 0.01642 0.28372 0.36663 0.0
Co1181 Co 0.05322 0.37623 0.33445 0.0
O1182 O 0.05058 0.31881 0.33216 0.0
C1183 C 0.08383 0.23603 0.32203 0.0
O1184 O 0.1023 0.26813 0.30498 0.0
C1185 C 0.04942 0.35904 0.22947 0.0
O1186 O 0.06291 0.3213 0.2312 0.0
O1187 O -0.01231 0.37761 0.32435 0.0
O1188 O -0.03176 0.31647 0.34784 0.0
H1189 H 0.06754 0.51101 0.41439 0.0
H1190 H 0.00612 0.30434 0.27607 0.0
O1191 O 0.06197 0.24232 0.35327 0.0
H1192 H -0.01926 0.1533 0.28391 0.0
H1193 H 0.8875 0.33024 0.44951 0.0
H1194 H 0.00558 0.39108 0.38798 0.0
H1195 H -0.00438 0.19476 0.34438 0.0
H1196 H 0.93325 0.28598 0.41905 0.0
O1197 O 0.04742 0.38095 0.26487 0.0
H1198 H 0.0848 0.44001 0.40001 0.0
H1199 H 0.01565 0.44078 0.28614 0.0
H1200 H -0.02688 0.43071 0.43391 0.0
H1201 H 0.02364 0.25715 0.21958 0.0
H1202 H 0.91062 0.40392 0.46462 0.0
H1203 H -0.00082 0.18441 0.2181 0.0
O1204 O 0.04255 0.30465 0.42112 0.0
H1205 H 0.18721 0.34143 0.27172 0.0
H1206 H 0.12819 0.39415 0.39772 0.0
H1207 H 0.20067 0.38443 0.39689 0.0
H1208 H 0.23176 0.3576 0.33397 0.0
H1209 H 0.11444 0.35179 0.27333 0.0
H1210 H -0.00205 0.50993 0.29855 0.0
H1211 H 0.02233 0.5473 0.36575 0.0
O1212 O 0.06282 0.36894 0.40524 0.0
C1213 C 0.95907 0.34894 0.32769 0.0
C1214 C 0.05681 0.49597 0.38572 0.0
C1215 C 0.0174 0.4961 0.32154 0.0
N1216 N 0.05356 0.43592 0.34074 0.0
C1217 C 0.06748 0.45551 0.37664 0.0
C1218 C 0.02877 0.45608 0.31354 0.0
C1219 C 0.03118 0.51627 0.35818 0.0
C1220 C 0.00021 0.27152 0.27862 0.0
N1221 N -0.00627 0.25441 0.31619 0.0
C1222 C 0.00628 0.24602 0.24442 0.0
C1223 C -0.00461 0.20399 0.24491 0.0
C1224 C -0.01548 0.18678 0.28171 0.0
C1225 C -0.01146 0.2116 0.31726 0.0
C1226 C 0.91561 0.34287 0.43746 0.0
C1227 C -0.01483 0.37214 0.40478 0.0
C1228 C 0.94193 0.31629 0.41797 0.0
N1229 N -0.02319 0.32871 0.39763 0.0
C1230 C -0.03644 0.39821 0.42976 0.0
C1231 C 0.92796 0.38368 0.44576 0.0
C1232 C 0.05574 0.34027 0.43415 0.0
C1233 C 0.17415 0.35325 0.29946 0.0
C1234 C 0.13932 0.38315 0.36928 0.0
C1235 C 0.18163 0.37741 0.3694 0.0
C1236 C 0.1991 0.36231 0.33424 0.0
N1237 N 0.11424 0.37451 0.33482 0.0
C1238 C 0.13204 0.35947 0.30048 0.0
Co1239 Co 0.76864 0.53968 0.17701 0.0
Co1240 Co 0.8091 0.61521 0.1145 0.0
O1241 O 0.79959 0.55248 0.12441 0.0
C1242 C 0.82399 0.46649 0.16961 0.0
O1243 O 0.84736 0.48565 0.14319 0.0
C1244 C 0.83424 0.61384 0.01549 0.0
O1245 O 0.87018 0.60217 0.02835 0.0
O1246 O 0.7477 0.61755 0.10596 0.0
O1247 O 0.74106 0.59215 0.16587 0.0
H1248 H 0.76602 0.75971 0.14271 0.0
H1249 H 0.77308 0.48799 0.10257 0.0
O1250 O 0.79543 0.48544 0.18738 0.0
H1251 H 0.61416 0.46509 0.19021 0.0
H1252 H 0.68413 0.48127 0.29493 0.0
H1253 H 0.73738 0.60705 0.2327 0.0
H1254 H 0.66182 0.48834 0.17426 0.0
H1255 H 0.74573 0.47827 0.24955 0.0
O1256 O 0.8063 0.61296 0.04451 0.0
H1257 H 0.76784 0.6837 0.1523 0.0
H1258 H 0.85976 0.676 0.06445 0.0
H1259 H 0.67694 0.60908 0.27241 0.0
H1260 H 0.73266 0.41921 0.07428 0.0
H1261 H 0.64775 0.54393 0.30155 0.0
H1262 H 0.62592 0.40079 0.1405 0.0
O1263 O 0.81353 0.56127 0.2089 0.0
H1264 H 0.93606 0.53425 0.10343 0.0
H1265 H 0.88208 0.66687 0.14858 0.0
H1266 H 0.95712 0.65582 0.15569 0.0
H1267 H -0.01638 0.58832 0.13597 0.0
H1268 H 0.86344 0.54861 0.09104 0.0
H1269 H 0.85904 0.75178 0.05355 0.0
H1270 H 0.81204 0.79419 0.09312 0.0
O1271 O 0.81298 0.62387 0.18428 0.0
C1272 C 0.72472 0.60027 0.13151 0.0
C1273 C 0.78679 0.74157 0.12538 0.0
C1274 C 0.83904 0.73709 0.07542 0.0
N1275 N 0.81397 0.67536 0.10892 0.0
C1276 C 0.7881 0.69859 0.13084 0.0
C1277 C 0.83919 0.69411 0.08144 0.0
C1278 C 0.81258 0.7609 0.09754 0.0
C1279 C 0.74345 0.48106 0.11444 0.0
N1280 N 0.72467 0.50986 0.14775 0.0
C1281 C 0.72053 0.43542 0.09963 0.0
C1282 C 0.64973 0.42544 0.14075 0.0
C1283 C 0.64504 0.46814 0.17202 0.0
C1284 C 0.68397 0.50846 0.1731 0.0
C1285 C 0.69529 0.50717 0.27825 0.0
C1286 C 0.72458 0.57753 0.24237 0.0
C1287 C 0.72896 0.50593 0.25241 0.0
N1288 N 0.73925 0.53992 0.22984 0.0
C1289 C 0.69038 0.57955 0.26625 0.0
C1290 C 0.67439 0.54337 0.28273 0.0
C1291 C 0.81475 0.59842 0.2168 0.0
C1292 C 0.92474 0.56375 0.11291 0.0
C1293 C 0.89407 0.63845 0.13749 0.0
C1294 C 0.93612 0.63191 0.14286 0.0
C1295 C 0.95129 0.59398 0.1313 0.0
N1296 N 0.86829 0.60899 0.11862 0.0
C1297 C 0.88333 0.57195 0.1065 0.0
Co1298 Co 0.85141 0.28982 0.5937 0.0
Co1299 Co 0.83496 0.39469 0.62101 0.0
O1300 O 0.8224 0.33503 0.61614 0.0
C1301 C 0.79533 0.22084 0.58819 0.0
O1302 O 0.75917 0.21837 0.60466 0.0
C1303 C 0.84616 0.35428 0.71877 0.0
O1304 O 0.84196 0.31726 0.70446 0.0
O1305 O 0.89913 0.38157 0.62603 0.0
O1306 O 0.90253 0.31373 0.62157 0.0
H1307 H 0.89104 0.5386 0.61302 0.0
H1308 H 0.77841 0.27873 0.64794 0.0
O1309 O 0.80495 0.25445 0.56911 0.0
H1310 H 0.88825 0.20325 0.71869 0.0
H1311 H 0.9273 0.24927 0.48757 0.0
H1312 H 0.89751 0.37179 0.55889 0.0
H1313 H 0.90249 0.2454 0.65865 0.0
H1314 H 0.86288 0.25351 0.51563 0.0
O1315 O 0.84152 0.38639 0.69174 0.0
H1316 H 0.90152 0.51295 0.5667 0.0
H1317 H 0.79604 0.44739 0.6797 0.0
H1318 H -0.03645 0.37155 0.52887 0.0
H1319 H 0.76325 0.23858 0.71005 0.0
H1320 H -0.01623 0.30663 0.50003 0.0
H1321 H 0.81867 0.20328 0.747 0.0
O1322 O 0.83276 0.32659 0.53733 0.0
H1323 H 0.69694 0.33647 0.64635 0.0
H1324 H 0.77219 0.44159 0.57002 0.0
H1325 H 0.69855 0.4333 0.55742 0.0
H1326 H 0.65942 0.37926 0.59512 0.0
H1327 H 0.76896 0.35189 0.66444 0.0
H1328 H 0.80584 0.51986 0.72521 0.0
H1329 H 0.84333 0.53987 0.69151 0.0
O1330 O 0.8278 0.39379 0.55217 0.0
C1331 C 0.92002 0.34841 0.63011 0.0
C1332 C 0.89096 0.55775 0.63539 0.0
C1333 C 0.82644 0.51841 0.69637 0.0
N1334 N 0.83922 0.4629 0.62428 0.0
C1335 C 0.88382 0.51482 0.59967 0.0
C1336 C 0.81554 0.4715 0.66746 0.0
C1337 C 0.86313 0.55932 0.68052 0.0
C1338 C 0.80253 0.2614 0.6626 0.0
N1339 N 0.84106 0.26192 0.64665 0.0
C1340 C 0.79377 0.2392 0.69812 0.0
C1341 C 0.82501 0.21905 0.7188 0.0
C1342 C 0.86407 0.21985 0.70328 0.0
C1343 C 0.87169 0.24241 0.66776 0.0
C1344 C 0.92242 0.27721 0.50198 0.0
C1345 C 0.90552 0.34459 0.54516 0.0
C1346 C 0.88472 0.27936 0.51755 0.0
N1347 N 0.87723 0.31082 0.54354 0.0
C1348 C 0.94282 0.3444 0.52771 0.0
C1349 C 0.95306 0.30837 0.50975 0.0
C1350 C 0.82626 0.36451 0.52338 0.0
C1351 C 0.7123 0.3618 0.63165 0.0
C1352 C 0.75575 0.42147 0.58989 0.0
C1353 C 0.71364 0.41562 0.58138 0.0
C1354 C 0.69177 0.38523 0.60232 0.0
N1355 N 0.77556 0.39904 0.61968 0.0
C1356 C 0.75368 0.37051 0.64149 0.0
Co1357 Co 0.06777 0.65279 0.64004 0.0
Co1358 Co 0.14468 0.62665 0.57622 0.0
O1359 O 0.08532 0.63869 0.58303 0.0
C1360 C 0.01297 0.58518 0.60401 0.0
O1361 O 0.03238 0.58853 0.56978 0.0
C1362 C 0.11699 0.62236 0.46725 0.0
O1363 O 0.07724 0.61419 0.46794 0.0
O1364 O 0.15199 0.68804 0.58434 0.0
O1365 O 0.11692 0.69257 0.64296 0.0
H1366 H 0.28765 0.59563 0.62711 0.0
H1367 H -0.00507 0.66286 0.59027 0.0
O1368 O 0.01971 0.61149 0.63367 0.0
H1369 H 0.00964 0.77625 0.68972 0.0
H1370 H -0.02966 0.66834 0.75083 0.0
H1371 H 0.1084 0.70503 0.712 0.0
H1372 H 0.06944 0.74353 0.66435 0.0
H1373 H 0.01114 0.61892 0.70771 0.0
O1374 O 0.13843 0.62951 0.50409 0.0
H1375 H 0.22299 0.63159 0.63083 0.0
H1376 H 0.19576 0.59623 0.50526 0.0
H1377 H 0.06961 0.75173 0.75272 0.0
H1378 H 0.93792 0.71054 0.6005 0.0
H1379 H -0.00076 0.73549 0.77063 0.0
H1380 H 0.94263 0.75475 0.66127 0.0
O1381 O 0.09452 0.60669 0.65973 0.0
H1382 H 0.10836 0.50547 0.48665 0.0
H1383 H 0.17929 0.55274 0.61623 0.0
H1384 H 0.19955 0.4873 0.58197 0.0
H1385 H 0.16439 0.46402 0.51688 0.0
H1386 H 0.08963 0.5696 0.52252 0.0
H1387 H 0.26118 0.56673 0.50053 0.0
H1388 H 0.30688 0.56215 0.56285 0.0
O1389 O 0.1549 0.62415 0.64748 0.0
C1390 C 0.13614 0.7092 0.6135 0.0
C1391 C 0.26692 0.5961 0.60062 0.0
C1392 C 0.25287 0.58076 0.52933 0.0
N1393 N 0.2034 0.61704 0.56873 0.0
C1394 C 0.23014 0.617 0.60217 0.0
C1395 C 0.21542 0.5997 0.53224 0.0
C1396 C 0.27823 0.57785 0.56417 0.0
C1397 C -0.00067 0.69096 0.60772 0.0
N1398 N 0.03626 0.6999 0.62541 0.0
C1399 C -0.03313 0.71592 0.61553 0.0
C1400 C -0.0304 0.74288 0.64849 0.0
C1401 C 0.00739 0.75445 0.66449 0.0
C1402 C 0.04106 0.73523 0.64932 0.0
C1403 C -0.00117 0.67671 0.73881 0.0
C1404 C 0.07716 0.69623 0.71874 0.0
C1405 C 0.02047 0.65069 0.71336 0.0
N1406 N 0.05576 0.6652 0.69747 0.0
C1407 C 0.05561 0.72368 0.74217 0.0
C1408 C 0.01579 0.71458 0.7516 0.0
C1409 C 0.1271 0.61968 0.67629 0.0
C1410 C 0.1245 0.51558 0.51502 0.0
C1411 C 0.16284 0.54147 0.58884 0.0
C1412 C 0.17444 0.50473 0.5696 0.0
C1413 C 0.15538 0.49204 0.53225 0.0
N1414 N 0.13575 0.56666 0.56952 0.0
C1415 C 0.11455 0.55244 0.53478 0.0
Co1416 Co 0.84835 0.81555 0.63674 0.0
Co1417 Co 0.87021 0.78366 0.5431 0.0
O1418 O 0.84474 0.81886 0.57847 0.0
C1419 C 0.75152 0.78754 0.62355 0.0
O1420 O 0.76079 0.7512 0.6093 0.0
C1421 C 0.88028 0.86609 0.4833 0.0
O1422 O 0.89085 0.89957 0.50524 0.0
O1423 O 0.93064 0.80365 0.56866 0.0
O1424 O 0.91706 0.81665 0.63435 0.0
H1425 H 0.94484 0.66431 0.52151 0.0
H1426 H 0.80299 0.88021 0.59266 0.0
O1427 O 0.78124 0.81534 0.63593 0.0
H1428 H 0.94011 0.94006 0.63275 0.0
H1429 H 0.8527 0.89477 0.7664 0.0
H1430 H 0.88968 0.76556 0.69967 0.0
H1431 H 0.91042 0.88106 0.6709 0.0
H1432 H 0.81961 0.87322 0.69996 0.0
O1433 O 0.8752 0.83087 0.50118 0.0
H1434 H -0.03668 0.71692 0.5341 0.0
H1435 H 0.87644 0.73505 0.49768 0.0
H1436 H 0.91509 0.78037 0.77135 0.0
H1437 H 0.82924 0.9426 0.55754 0.0
H1438 H 0.89729 0.84676 0.80492 0.0
H1439 H 0.90071 0.96833 0.57324 0.0
O1440 O 0.83567 0.75166 0.64 0.0
H1441 H 0.73845 0.83856 0.48611 0.0
H1442 H 0.79854 0.71097 0.53674 0.0
H1443 H 0.728 0.70889 0.51311 0.0
H1444 H 0.69736 0.77326 0.485 0.0
H1445 H 0.80824 0.84029 0.51183 0.0
H1446 H 0.85141 0.65381 0.44007 0.0
H1447 H 0.90954 0.60164 0.48153 0.0
O1448 O 0.86293 0.73606 0.58297 0.0
C1449 C 0.94512 0.81576 0.60539 0.0
C1450 C 0.95499 0.68469 0.53156 0.0
C1451 C 0.86729 0.66165 0.46853 0.0
N1452 N 0.89372 0.74093 0.50756 0.0
C1453 C 0.93637 0.7335 0.53028 0.0
C1454 C 0.86292 0.71245 0.47815 0.0
C1455 C 0.90749 0.63429 0.49055 0.0
C1456 C 0.83184 0.8949 0.60359 0.0
N1457 N 0.85571 0.87578 0.63262 0.0
C1458 C 0.84722 0.9293 0.58248 0.0
C1459 C 0.88731 0.94394 0.59144 0.0
C1460 C 0.90959 0.92758 0.62447 0.0
C1461 C 0.89227 0.8945 0.64622 0.0
C1462 C 0.85743 0.86423 0.7542 0.0
C1463 C 0.87879 0.79189 0.7159 0.0
C1464 C 0.8399 0.85236 0.71583 0.0
N1465 N 0.85307 0.81811 0.69604 0.0
C1466 C 0.89389 0.80078 0.75606 0.0
C1467 C 0.88382 0.83787 0.77493 0.0
C1468 C 0.8379 0.72535 0.61047 0.0
C1469 C 0.75218 0.81001 0.4959 0.0
C1470 C 0.78811 0.7386 0.52332 0.0
C1471 C 0.74644 0.73751 0.51112 0.0
C1472 C 0.72881 0.77341 0.4965 0.0
N1473 N 0.81248 0.77427 0.52055 0.0
C1474 C 0.7933 0.81001 0.50875 0.0
Co1475 Co 0.65681 0.25594 0.07151 0.0
Co1476 Co 0.57148 0.32493 0.07577 0.0
O1477 O 0.63094 0.31091 0.08714 0.0
C1478 C 0.67836 0.24647 0.1636 0.0
O1479 O 0.64592 0.22362 0.17301 0.0
C1480 C 0.55701 0.43229 0.09055 0.0
O1481 O 0.57754 0.40244 0.07472 0.0
O1482 O 0.58364 0.31644 0.01553 0.0
O1483 O 0.62552 0.26077 0.01887 0.0
H1484 H 0.46343 0.3122 -0.02967 0.0
H1485 H 0.72963 0.30543 0.10849 0.0
O1486 O 0.68695 0.25365 0.1263 0.0
H1487 H 0.7744 0.34207 0.94562 0.0
H1488 H 0.75921 0.14312 0.06727 0.0
H1489 H 0.62171 0.18458 0.02097 0.0
H1490 H 0.69342 0.25245 -0.01389 0.0
H1491 H 0.73566 0.21396 0.08359 0.0
O1492 O 0.57715 0.39873 0.07493 0.0
H1493 H 0.52254 0.35345 0.00177 0.0
H1494 H 0.49619 0.30547 0.11869 0.0
H1495 H 0.64424 0.11522 0.00316 0.0
H1496 H 0.77819 0.37582 0.08492 0.0
H1497 H 0.71339 0.09391 0.0275 0.0
H1498 H 0.79861 0.39245 0.01446 0.0
O1499 O 0.61295 0.22552 0.09293 0.0
H1500 H 0.5981 0.27365 0.2199 0.0
H1501 H 0.55716 0.34787 0.12938 0.0
H1502 H 0.55075 0.39452 0.21578 0.0
H1503 H 0.57103 0.33385 0.25515 0.0
H1504 H 0.59238 0.26909 0.14511 0.0
H1505 H 0.43854 0.2657 0.09055 0.0
H1506 H 0.42037 0.26732 0.01475 0.0
O1507 O 0.55702 0.2581 0.07541 0.0
C1508 C 0.6016 0.28523 -0.0005 0.0
C1509 C 0.46984 0.31154 0.00331 0.0
C1510 C 0.45476 0.28596 0.07037 0.0
N1511 N 0.51392 0.33034 0.06204 0.0
C1512 C 0.503 0.33515 0.02136 0.0
C1513 C 0.48792 0.30953 0.08692 0.0
C1514 C 0.44568 0.2864 0.02814 0.0
C1515 C 0.73049 0.31351 0.07735 0.0
N1516 N 0.70571 0.28162 0.04865 0.0
C1517 C 0.7637 0.35373 0.06348 0.0
C1518 C 0.77916 0.36502 0.01678 0.0
C1519 C 0.76289 0.33509 -0.02405 0.0
C1520 C 0.71154 0.27601 0.00132 0.0
C1521 C 0.72858 0.15196 0.05854 0.0
C1522 C 0.65176 0.17577 0.03184 0.0
C1523 C 0.71529 0.19165 0.06748 0.0
N1524 N 0.67693 0.20271 0.05509 0.0
C1525 C 0.66423 0.13621 0.02176 0.0
C1526 C 0.7027 0.12411 0.03581 0.0
C1527 C 0.57683 0.22339 0.07889 0.0
C1528 C 0.585 0.2985 0.20217 0.0
C1529 C 0.5533 0.36553 0.15595 0.0
C1530 C 0.55737 0.36658 0.19919 0.0
C1531 C 0.57088 0.33298 0.22183 0.0
N1532 N 0.56534 0.329 0.13613 0.0
C1533 C 0.58154 0.29581 0.15972 0.0
Co1534 Co 0.07673 0.07597 0.63773 0.0
Co1535 Co 0.06521 0.11266 0.54342 0.0
O1536 O 0.08738 0.0725 0.57993 0.0
C1537 C 0.1735 0.11775 0.6322 0.0
O1538 O 0.16042 0.13828 0.60057 0.0
C1539 C 0.0587 0.04497 0.46751 0.0
O1540 O 0.05287 0.00604 0.47843 0.0
O1541 O 0.00353 0.0976 0.55923 0.0
O1542 O 0.01015 0.07416 0.62306 0.0
H1543 H -0.0247 0.23617 0.53234 0.0
H1544 H 0.14274 0.01526 0.62304 0.0
O1545 O 0.14616 0.08999 0.64922 0.0
H1546 H -0.00876 0.93861 0.68867 0.0
H1547 H 0.09762 0.05519 0.79172 0.0
H1548 H 0.00664 0.10848 0.68346 0.0
H1549 H 0.002 0.00395 0.63646 0.0
H1550 H 0.12255 0.06423 0.72011 0.0
O1551 O 0.06139 0.07278 0.49565 0.0
H1552 H 0.00547 0.17292 0.56228 0.0
H1553 H 0.08649 0.13765 0.4562 0.0
H1554 H -0.01596 0.10597 0.75361 0.0
H1555 H 0.16775 0.95476 0.68276 0.0
H1556 H 0.02951 0.07788 0.80879 0.0
H1557 H 0.05826 0.90212 0.73008 0.0
O1558 O 0.08012 0.13529 0.64577 0.0
H1559 H 0.20241 0.07808 0.49597 0.0
H1560 H 0.11744 0.19264 0.5372 0.0
H1561 H 0.1855 0.20903 0.51163 0.0
H1562 H 0.22725 0.15169 0.48834 0.0
H1563 H 0.13416 0.0634 0.52158 0.0
H1564 H 0.02226 0.22698 0.39999 0.0
H1565 H -0.01801 0.26463 0.45182 0.0
O1566 O 0.07302 0.15791 0.58383 0.0
C1567 C -0.01457 0.0855 0.5924 0.0
C1568 C -0.00972 0.21939 0.51033 0.0
C1569 C 0.02665 0.2173 0.4302 0.0
N1570 N 0.04593 0.15242 0.50998 0.0
C1571 C 0.01367 0.1794 0.53107 0.0
C1572 C 0.06271 0.1574 0.46553 0.0
C1573 C -0.0047 0.2382 0.4625 0.0
C1574 C 0.12059 -0.00068 0.64139 0.0
N1575 N 0.07405 0.01257 0.6342 0.0
C1576 C 0.13528 0.9598 0.67645 0.0
C1577 C 0.06426 0.92251 0.70478 0.0
C1578 C 0.02212 0.94775 0.68058 0.0
C1579 C 0.03007 -0.01006 0.64621 0.0
C1580 C 0.07869 0.06866 0.76788 0.0
C1581 C 0.02662 0.09467 0.70607 0.0
C1582 C 0.09178 0.07238 0.72724 0.0
N1583 N 0.06381 0.07944 0.69611 0.0
C1584 C 0.01378 0.09469 0.7465 0.0
C1585 C 0.03954 0.07996 0.77745 0.0
C1586 C 0.08377 0.16359 0.6207 0.0
C1587 C 0.18379 0.10356 0.50415 0.0
C1588 C 0.13515 0.16746 0.52664 0.0
C1589 C 0.17413 0.17699 0.51305 0.0
C1590 C 0.19796 0.1447 0.50081 0.0
N1591 N 0.12048 0.1269 0.5279 0.0
C1592 C 0.14487 0.09525 0.51817 0.0
Co1593 Co 0.25749 0.67615 0.05882 0.0
Co1594 Co 0.34378 0.6229 0.08675 0.0
O1595 O 0.28287 0.623 0.0797 0.0
C1596 C 0.17833 0.64416 0.11096 0.0
O1597 O 0.17246 0.6418 0.15065 0.0
C1598 C 0.32776 0.51173 0.09792 0.0
O1599 O 0.29088 0.51597 0.08272 0.0
O1600 O 0.34459 0.6271 0.02493 0.0
O1601 O 0.30828 0.68529 0.01965 0.0
H1602 H 0.4565 0.71355 0.06648 0.0
H1603 H 0.20153 0.61151 0.05405 0.0
O1604 O 0.21288 0.66237 0.10113 0.0
H1605 H 0.22932 0.57786 0.89912 0.0
H1606 H 0.13795 0.76821 0.03267 0.0
H1607 H 0.28309 0.74975 0.00851 0.0
H1608 H 0.26821 0.67561 0.96698 0.0
H1609 H 0.17247 0.70906 0.06145 0.0
O1610 O 0.35002 0.54889 0.0966 0.0
H1611 H 0.41369 0.67987 0.11801 0.0
H1612 H 0.3998 0.57087 0.0457 0.0
H1613 H 0.25132 0.81235 -0.0161 0.0
H1614 H 0.15955 0.55587 0.01429 0.0
H1615 H 0.17728 0.8219 -0.00517 0.0
H1616 H 0.16543 0.552 0.92808 0.0
O1617 O 0.28534 0.70897 0.10124 0.0
H1618 H 0.26814 0.63867 0.21972 0.0
H1619 H 0.35929 0.61584 0.14399 0.0
H1620 H 0.38622 0.58703 0.23399 0.0
H1621 H 0.32195 0.60582 0.26278 0.0
H1622 H 0.27921 0.65046 0.14691 0.0
H1623 H 0.44472 0.60062 -0.00539 0.0
H1624 H 0.46681 0.67525 0.00079 0.0
O1625 O 0.34629 0.69379 0.08393 0.0
C1626 C 0.33632 0.66139 0.00642 0.0
C1627 C 0.44543 0.68154 0.06237 0.0
C1628 C 0.43914 0.6182 0.02227 0.0
N1629 N 0.40271 0.62471 0.08454 0.0
C1630 C 0.42211 0.66223 0.09232 0.0
C1631 C 0.41512 0.60069 0.05266 0.0
C1632 C 0.45188 0.65989 0.02597 0.0
C1633 C 0.1932 0.62113 0.02498 0.0
N1634 N 0.22896 0.64993 0.01514 0.0
C1635 C 0.17126 0.58083 -0.00311 0.0
C1636 C 0.18542 0.56397 0.95177 0.0
C1637 C 0.2252 0.58492 0.93099 0.0
C1638 C 0.25332 0.6476 -0.02332 0.0
C1639 C 0.17032 0.76534 0.02896 0.0
C1640 C 0.25211 0.75447 0.01641 0.0
C1641 C 0.1904 0.73145 0.04536 0.0
N1642 N 0.23115 0.7263 0.03952 0.0
C1643 C 0.23387 0.79001 0.0016 0.0
C1644 C 0.19233 0.79526 0.00756 0.0
C1645 C 0.31852 0.72253 0.08782 0.0
C1646 C 0.29639 0.62962 0.2064 0.0
C1647 C 0.37103 0.60628 0.1723 0.0
C1648 C 0.36299 0.60008 0.21389 0.0
C1649 C 0.32632 0.61098 0.23052 0.0
N1650 N 0.34042 0.62419 0.14745 0.0
C1651 C 0.30319 0.63689 0.1651 0.0
Co1652 Co 0.80972 0.04653 0.33575 0.0
Co1653 Co 0.77699 0.14355 0.34872 0.0
O1654 O 0.80755 0.10332 0.31892 0.0
C1655 C 0.92007 0.06445 0.31609 0.0
O1656 O 0.91727 0.08345 0.28055 0.0
C1657 C 0.74483 0.20744 0.30146 0.0
O1658 O 0.70961 0.20501 0.28058 0.0
O1659 O 0.72673 0.11649 0.33226 0.0
O1660 O 0.74127 0.05054 0.34437 0.0
H1661 H 0.63308 0.16276 0.41231 0.0
H1662 H 0.74249 0.06777 0.27447 0.0
O1663 O 0.88307 0.05151 0.33233 0.0
H1664 H 0.84864 0.013 0.18955 0.0
H1665 H 0.78028 0.88606 0.31354 0.0
H1666 H 0.81787 -0.00376 0.41994 0.0
H1667 H 0.85916 0.02268 0.26453 0.0
H1668 H 0.78692 0.96131 0.29314 0.0
O1669 O 0.76924 0.1777 0.2991 0.0
H1670 H 0.68254 0.16434 0.34922 0.0
H1671 H 0.8055 0.20631 0.40998 0.0
H1672 H 0.80632 0.92745 0.44461 0.0
H1673 H 0.7329 0.06887 0.20041 0.0
H1674 H 0.79217 0.86688 0.3945 0.0
H1675 H 0.78484 0.03854 0.15643 0.0
O1676 O 0.81663 0.05976 0.39532 0.0
H1677 H 0.90994 0.16136 0.29593 0.0
H1678 H 0.83517 0.14496 0.42155 0.0
H1679 H 0.90518 0.12152 0.42072 0.0
H1680 H 0.94461 0.13319 0.35888 0.0
H1681 H 0.83902 0.17387 0.29797 0.0
H1682 H 0.78174 0.2277 0.48505 0.0
H1683 H 0.66063 0.18677 0.48854 0.0
O1684 O 0.77525 0.10953 0.39897 0.0
C1685 C 0.71478 0.08192 0.3453 0.0
C1686 C 0.66456 0.1734 0.41718 0.0
C1687 C 0.75931 0.21556 0.46154 0.0
N1688 N 0.74571 0.18343 0.38054 0.0
C1689 C 0.6976 0.17204 0.37858 0.0
C1690 C 0.77475 0.20508 0.41414 0.0
C1691 C 0.68065 0.19176 0.46389 0.0
C1692 C 0.76526 0.05348 0.2572 0.0
N1693 N 0.79937 0.0369 0.27595 0.0
C1694 C 0.75973 0.05498 0.21428 0.0
C1695 C 0.78882 0.03819 0.1897 0.0
C1696 C 0.82428 0.02329 0.20836 0.0
C1697 C 0.82966 0.02534 0.25138 0.0
C1698 C 0.79221 0.90857 0.33606 0.0
C1699 C 0.81291 -0.02617 0.39551 0.0
C1700 C 0.79551 0.95317 0.32434 0.0
N1701 N 0.80799 -0.01537 0.35304 0.0
C1702 C 0.80721 0.93213 0.41156 0.0
C1703 C 0.79916 0.89663 0.38207 0.0
C1704 C 0.78951 0.07773 0.41452 0.0
C1705 C 0.89438 0.15793 0.32438 0.0
C1706 C 0.85118 0.14748 0.39423 0.0
C1707 C 0.89046 0.13274 0.39317 0.0
C1708 C 0.91268 0.13957 0.35844 0.0
N1709 N 0.83235 0.16439 0.36076 0.0
C1710 C 0.8545 0.17044 0.32652 0.0
Co1711 Co 0.33957 0.38448 0.88681 0.0
Co1712 Co 0.35639 0.3519 0.79477 0.0
O1713 O 0.36359 0.34581 0.85422 0.0
C1714 C 0.40215 0.38119 -0.02093 0.0
O1715 O 0.44177 0.3896 -0.01821 0.0
C1716 C 0.3252 0.25772 0.80584 0.0
O1717 O 0.29049 0.26255 0.78494 0.0
O1718 O 0.29728 0.33904 0.79384 0.0
O1719 O 0.2883 0.3807 0.84592 0.0
H1720 H 0.31029 0.41674 0.6649 0.0
H1721 H 0.36733 0.29877 0.9122 0.0
O1722 O 0.3854 0.38335 0.94005 0.0
H1723 H 0.20727 0.33455 0.96576 0.0
H1724 H 0.26602 0.49352 0.01753 0.0
H1725 H 0.30459 0.46408 0.85588 0.0
H1726 H 0.24971 0.37426 0.90616 0.0
H1727 H 0.32794 0.40062 -0.02872 0.0
O1728 O 0.35657 0.2854 0.80189 0.0
H1729 H 0.30063 0.39151 0.73547 0.0
H1730 H 0.40016 0.31215 0.72636 0.0
H1731 H 0.2853 0.53099 0.88568 0.0
H1732 H 0.35091 0.24161 -0.03023 0.0
H1733 H 0.23195 0.51365 0.95805 0.0
H1734 H 0.27855 0.24075 0.01207 0.0
O1735 O 0.36992 0.43512 0.85862 0.0
H1736 H 0.49128 0.40476 0.86263 0.0
H1737 H 0.40802 0.40183 0.73742 0.0
H1738 H 0.4769 0.42978 0.73472 0.0
H1739 H 0.51951 0.43313 0.79855 0.0
H1740 H 0.43012 0.35986 0.85896 0.0
H1741 H 0.41681 0.3433 0.65932 0.0
H1742 H 0.37091 0.3947 0.62743 0.0
O1743 O 0.35075 0.41911 0.79425 0.0
C1744 C 0.27374 0.35248 0.81959 0.0
C1745 C 0.33023 0.39378 0.67797 0.0
C1746 C 0.38919 0.35146 0.67431 0.0
N1747 N 0.35068 0.35162 0.73512 0.0
C1748 C 0.32421 0.37871 0.71752 0.0
C1749 C 0.37948 0.33375 0.71214 0.0
C1750 C 0.36405 0.38125 0.65693 0.0
C1751 C 0.33712 0.29981 0.92454 0.0
N1752 N 0.30902 0.3373 0.91092 0.0
C1753 C 0.32827 0.26432 0.96245 0.0
C1754 C 0.28398 0.26465 -0.01095 0.0
C1755 C 0.23819 0.32497 0.95928 0.0
C1756 C 0.26422 0.34937 0.9217 0.0
C1757 C 0.27918 0.48835 -0.01228 0.0
C1758 C 0.2992 0.46297 0.88624 0.0
C1759 C 0.31797 0.4266 0.95856 0.0
N1760 N 0.31688 0.4279 0.91262 0.0
C1761 C 0.27478 0.50377 0.90172 0.0
C1762 C 0.26255 0.51454 0.94903 0.0
C1763 C 0.36157 0.44826 0.82175 0.0
C1764 C 0.475 0.39912 0.8333 0.0
C1765 C 0.42873 0.39271 0.76176 0.0
C1766 C 0.46723 0.4129 0.7616 0.0
C1767 C 0.49064 0.41585 0.79781 0.0
N1768 N 0.41592 0.3688 0.79429 0.0
C1769 C 0.43901 0.37367 0.83061 0.0
Co1770 Co 0.10096 0.91862 0.34687 0.0
Co1771 Co 0.16029 0.82232 0.37983 0.0
O1772 O 0.12534 0.8608 0.34407 0.0
C1773 C -0.03034 0.89098 0.31554 0.0
O1774 O -0.02078 0.86685 0.28487 0.0
C1775 C 0.17787 0.76376 0.31289 0.0
O1776 O 0.21765 0.77117 0.3167 0.0
O1777 O 0.2035 0.84049 0.35424 0.0
O1778 O 0.16194 0.89182 0.34404 0.0
H1779 H 0.3005 0.82848 0.46884 0.0
H1780 H 0.13391 0.86984 0.27143 0.0
O1781 O -0.00139 0.9203 0.32989 0.0
H1782 H 0.12621 0.01559 0.23067 0.0
H1783 H 0.14025 0.01732 0.47086 0.0
H1784 H 0.19411 0.95381 0.35006 0.0
H1785 H 0.13216 -0.00266 0.30317 0.0
H1786 H 0.09513 -0.01732 0.42291 0.0
O1787 O 0.1527 0.77954 0.33705 0.0
H1788 H 0.25083 0.84048 0.40457 0.0
H1789 H 0.15181 0.73295 0.41301 0.0
H1790 H 0.24125 -0.02496 0.4063 0.0
H1791 H 0.13591 0.88674 0.19857 0.0
H1792 H 0.21501 0.00992 0.46721 0.0
H1793 H 0.12518 0.95922 0.17699 0.0
O1794 O 0.10795 0.90184 0.41357 0.0
H1795 H 0.01618 0.82427 0.38031 0.0
H1796 H 0.13192 0.78794 0.46526 0.0
H1797 H 0.05685 0.77494 0.47589 0.0
H1798 H 0.01045 0.82554 0.4545 0.0
H1799 H 0.08191 0.80422 0.34941 0.0
H1800 H 0.18303 0.69741 0.48289 0.0
H1801 H 0.28091 0.77114 0.52683 0.0
O1802 O 0.16678 0.86792 0.42307 0.0
C1803 C 0.19891 0.87546 0.3424 0.0
C1804 C 0.27397 0.8079 0.46329 0.0
C1805 C 0.19773 0.72607 0.47191 0.0
N1806 N 0.2001 0.78714 0.40889 0.0
C1807 C 0.24227 0.8133 0.42104 0.0
C1808 C 0.17973 0.74628 0.42685 0.0
C1809 C 0.26385 0.77023 0.49771 0.0
C1810 C 0.13548 0.90231 0.26334 0.0
N1811 N 0.1296 0.93307 0.29227 0.0
C1812 C 0.13509 0.91143 0.22141 0.0
C1813 C 0.12945 0.95214 0.20936 0.0
C1814 C 0.13047 -0.01633 0.23927 0.0
C1815 C 0.13486 -0.02651 0.2808 0.0
C1816 C 0.15239 0.00179 0.44478 0.0
C1817 C 0.18079 0.96255 0.37768 0.0
C1818 C 0.12574 -0.01704 0.41465 0.0
N1819 N 0.13889 0.96106 0.38105 0.0
C1820 C 0.20849 -0.02335 0.40959 0.0
C1821 C 0.19407 -0.00286 0.44317 0.0
C1822 C 0.1366 0.88696 0.43762 0.0
C1823 C 0.0424 0.81868 0.39944 0.0
C1824 C 0.10788 0.79819 0.44641 0.0
C1825 C 0.0693 0.80179 0.46222 0.0
C1826 C 0.03921 0.82041 0.44085 0.0
N1827 N 0.11255 0.80303 0.40584 0.0
C1828 C 0.07923 0.80854 0.38207 0.0
Co1829 Co 0.6306 0.56332 0.90246 0.0
Co1830 Co 0.6382 0.58426 0.80275 0.0
O1831 O 0.61251 0.59323 0.8543 0.0
C1832 C 0.54088 0.58198 0.95331 0.0
O1833 O 0.50241 0.58329 0.94042 0.0
C1834 C 0.66784 0.6825 0.81669 0.0
O1835 O 0.686 0.67297 0.8518 0.0
O1836 O 0.69375 0.59399 0.82795 0.0
O1837 O 0.68563 0.55586 0.88209 0.0
H1838 H 0.62346 0.51601 0.66817 0.0
H1839 H 0.59511 0.64835 0.8929 0.0
O1840 O 0.56879 0.57303 0.92572 0.0
H1841 H 0.71706 0.62884 0.0219 0.0
H1842 H 0.70824 0.51936 0.04019 0.0
H1843 H 0.65648 0.47505 0.9057 0.0
H1844 H 0.71204 0.59049 0.9485 0.0
H1845 H 0.66858 0.56398 0.00302 0.0
O1846 O 0.64536 0.65264 0.79566 0.0
H1847 H 0.63169 0.51373 0.74239 0.0
H1848 H 0.69264 0.63343 0.74548 0.0
H1849 H 0.66721 0.4255 0.95514 0.0
H1850 H 0.60992 0.68712 -0.01616 0.0
H1851 H 0.71419 0.44728 0.01514 0.0
H1852 H 0.62007 0.7046 0.03525 0.0
O1853 O 0.60811 0.50815 0.8749 0.0
H1854 H 0.51141 0.49862 0.78176 0.0
H1855 H 0.59183 0.61598 0.7254 0.0
H1856 H 0.53687 0.57996 0.68195 0.0
H1857 H 0.4998 0.51752 0.70868 0.0
H1858 H 0.56115 0.53912 0.82554 0.0
H1859 H 0.68306 0.63744 0.66994 0.0
H1860 H 0.64319 0.58033 0.63244 0.0
O1861 O 0.63562 0.51599 0.81358 0.0
C1862 C 0.70589 0.58354 0.86354 0.0
C1863 C 0.63941 0.54159 0.68484 0.0
C1864 C 0.67255 0.60993 0.686 0.0
N1865 N 0.66063 0.57459 0.74912 0.0
C1866 C 0.64558 0.54009 0.72733 0.0
C1867 C 0.67805 0.60734 0.72876 0.0
C1868 C 0.65087 0.57775 0.66465 0.0
C1869 C 0.61663 0.65039 0.91877 0.0
N1870 N 0.65388 0.61975 0.92066 0.0
C1871 C 0.59974 0.68128 0.95643 0.0
C1872 C 0.62759 0.68458 0.00509 0.0
C1873 C 0.69239 0.63659 -0.00021 0.0
C1874 C 0.69137 0.61468 0.95214 0.0
C1875 C 0.69527 0.50989 0.01039 0.0
C1876 C 0.6622 0.48737 0.93529 0.0
C1877 C 0.67188 0.53702 -0.01294 0.0
N1878 N 0.65505 0.52735 0.94808 0.0
C1879 C 0.67625 0.4576 0.9616 0.0
C1880 C 0.69844 0.46969 -0.00322 0.0
C1881 C 0.62158 0.49065 0.84217 0.0
C1882 C 0.53021 0.52288 0.76852 0.0
C1883 C 0.5735 0.59101 0.73835 0.0
C1884 C 0.5432 0.57001 0.71317 0.0
C1885 C 0.52283 0.53453 0.72785 0.0
N1886 N 0.58294 0.57687 0.77707 0.0
C1887 C 0.55811 0.54664 0.79346 0.0
Co1888 Co 0.59129 0.83868 0.81092 0.0
Co1889 Co 0.68776 0.82902 0.8181 0.0
O1890 O 0.63446 0.81426 0.83867 0.0
C1891 C 0.51731 0.82178 0.86928 0.0
O1892 O 0.50902 0.81376 0.90758 0.0
C1893 C 0.67486 0.72891 0.80209 0.0
O1894 O 0.66293 0.73555 0.76391 0.0
O1895 O 0.67681 0.81254 0.75744 0.0
O1896 O 0.62236 0.8452 0.75853 0.0
H1897 H 0.77551 0.9386 0.77186 0.0
H1898 H 0.5726 0.7648 0.86012 0.0
O1899 O 0.55437 0.83379 0.86077 0.0
H1900 H 0.58333 0.70763 0.72155 0.0
H1901 H 0.49829 0.87121 0.68358 0.0
H1902 H 0.5651 0.88229 0.77938 0.0
H1903 H 0.57475 0.78222 0.73096 0.0
H1904 H 0.50398 0.83367 0.72447 0.0
O1905 O 0.69312 0.76071 0.82417 0.0
H1906 H 0.72322 0.8829 0.75499 0.0
H1907 H 0.76904 0.80956 0.85119 0.0
H1908 H 0.57722 0.96985 0.72685 0.0
H1909 H 0.56073 0.69086 0.84883 0.0
H1910 H 0.49237 0.90926 0.64579 0.0
H1911 H 0.56786 0.66117 0.77947 0.0
O1912 O 0.61225 0.89651 0.8348 0.0
H1913 H 0.70162 0.79406 0.9687 0.0
H1914 H 0.7189 0.90519 0.86753 0.0
H1915 H 0.73026 0.92143 0.94114 0.0
H1916 H 0.72162 0.86554 -0.00733 0.0
H1917 H 0.68983 0.77864 0.89517 0.0
H1918 H 0.82461 0.86369 0.8686 0.0
H1919 H 0.82403 0.9305 0.83207 0.0
O1920 O 0.6732 0.89833 0.80948 0.0
C1921 C 0.64369 0.82055 0.73902 0.0
C1922 C 0.77537 0.90986 0.78888 0.0
C1923 C 0.803 0.86745 0.843 0.0
N1924 N 0.74301 0.84387 0.80346 0.0
C1925 C 0.74676 0.87756 0.77849 0.0
C1926 C 0.77323 0.83621 0.83195 0.0
C1927 C 0.80244 0.90536 0.82272 0.0
C1928 C 0.5702 0.75387 0.82869 0.0
N1929 N 0.57404 0.78057 0.79603 0.0
C1930 C 0.56597 0.71099 0.82299 0.0
C1931 C 0.5706 0.69429 0.78417 0.0
C1932 C 0.57899 0.72054 0.75179 0.0
C1933 C 0.57647 0.76347 0.7576 0.0
C1934 C 0.49786 0.84611 0.70342 0.0
C1935 C 0.57387 0.91145 0.76982 0.0
C1936 C 0.52197 0.83547 0.7509 0.0
N1937 N 0.55374 0.86582 0.77653 0.0
C1938 C 0.56292 0.93893 0.72837 0.0
C1939 C 0.50737 0.89575 0.67849 0.0
C1940 C 0.64172 0.92005 0.82192 0.0
C1941 C 0.70591 0.81838 0.94666 0.0
C1942 C 0.71414 0.8806 0.88932 0.0
C1943 C 0.72133 0.89001 0.9312 0.0
C1944 C 0.71675 0.85867 0.96007 0.0
N1945 N 0.70215 0.84109 0.87636 0.0
C1946 C 0.69923 0.80993 0.90458 0.0
Co1947 Co 0.56772 0.08815 0.37029 0.0
Co1948 Co 0.611 0.03906 0.29388 0.0
O1949 O 0.56802 0.07855 0.31205 0.0
C1950 C 0.45607 0.1038 0.37344 0.0
O1951 O 0.45824 0.13132 0.40362 0.0
C1952 C 0.64183 0.11546 0.23763 0.0
O1953 O 0.67008 0.14517 0.23377 0.0
O1954 O 0.65467 0.07911 0.30368 0.0
O1955 O 0.63835 0.08945 0.36803 0.0
H1956 H 0.68369 0.95056 0.31408 0.0
H1957 H 0.52947 0.16047 0.4099 0.0
O1958 O 0.49341 0.08758 0.36311 0.0
H1959 H 0.61755 0.22082 0.30433 0.0
H1960 H 0.53217 0.09663 0.5216 0.0
H1961 H 0.63389 0.06379 0.42758 0.0
H1962 H 0.61213 0.14516 0.31408 0.0
H1963 H 0.51295 0.09655 0.44639 0.0
O1964 O 0.64521 0.09024 0.26897 0.0
H1965 H 0.68798 -0.0011 0.3404 0.0
H1966 H 0.64678 0.02635 0.2075 0.0
H1967 H 0.65773 0.08376 0.49406 0.0
H1968 H 0.53222 0.23615 0.40003 0.0
H1969 H 0.61029 0.106 0.54008 0.0
H1970 H 0.5774 0.26706 0.34765 0.0
O1971 O 0.56637 0.02737 0.38311 0.0
H1972 H 0.57506 0.01303 0.19106 0.0
H1973 H 0.51861 0.9676 0.35703 0.0
H1974 H 0.45859 0.9387 0.30389 0.0
H1975 H 0.46579 0.94933 0.21504 0.0
H1976 H 0.57764 0.01233 0.24538 0.0
H1977 H 0.64412 0.9532 0.16591 0.0
H1978 H 0.66114 0.87932 0.20494 0.0
O1979 O 0.62344 0.01587 0.35293 0.0
C1980 C 0.66687 0.0801 0.34113 0.0
C1981 C 0.68219 0.92365 0.301 0.0
C1982 C 0.65163 0.95354 0.19868 0.0
N1983 N 0.66183 0.00673 0.27413 0.0
C1984 C 0.67953 -0.02157 0.31001 0.0
C1985 C 0.65432 -0.00028 0.22544 0.0
C1986 C 0.6616 0.90791 0.22322 0.0
C1987 C 0.54834 0.17329 0.38644 0.0
N1988 N 0.57027 0.14798 0.36237 0.0
C1989 C 0.5502 0.21638 0.38127 0.0
C1990 C 0.57547 0.2337 0.35181 0.0
C1991 C 0.59795 0.2078 0.3275 0.0
C1992 C 0.59476 0.16482 0.33311 0.0
C1993 C 0.55545 0.09592 0.49895 0.0
C1994 C 0.61317 0.08169 0.44411 0.0
C1995 C 0.54467 0.09561 0.45676 0.0
N1996 N 0.57492 0.09268 0.4294 0.0
C1997 C 0.62614 0.08821 0.4839 0.0
C1998 C 0.59739 0.09759 0.51092 0.0
C1999 C 0.59826 0.00593 0.38066 0.0
C2000 C 0.5622 0.00605 0.22539 0.0
C2001 C 0.52526 0.97109 0.32484 0.0
C2002 C 0.48513 0.95293 0.29071 0.0
C2003 C 0.48806 0.96097 0.23752 0.0
N2004 N 0.5692 -0.00564 0.31218 0.0
C2005 C 0.58726 0.01473 0.27353 0.0
Co2006 Co 0.39083 0.09099 0.82958 0.0
Co2007 Co 0.29576 0.12245 0.84385 0.0
O2008 O 0.35547 0.1259 0.85455 0.0
C2009 C 0.46928 0.09347 0.88506 0.0
O2010 O 0.48181 0.09307 0.92375 0.0
C2011 C 0.32718 0.21825 0.83297 0.0
O2012 O 0.35852 0.21691 0.85867 0.0
O2013 O 0.29865 0.12904 0.78019 0.0
O2014 O 0.3595 0.10501 0.77453 0.0
H2015 H 0.16229 0.06667 0.78394 0.0
H2016 H 0.43119 0.15394 0.89026 0.0
O2017 O 0.43055 0.08354 0.87812 0.0
H2018 H 0.40341 0.23887 0.77275 0.0
H2019 H 0.47795 0.02861 0.71511 0.0
H2020 H 0.36894 0.02778 0.74427 0.0
H2021 H 0.3826 0.17029 0.77181 0.0
H2022 H 0.48512 0.04023 0.77095 0.0
O2023 O 0.29723 0.18956 0.83594 0.0
H2024 H 0.23634 0.07172 0.79112 0.0
H2025 H 0.23152 0.17367 0.87439 0.0
H2026 H 0.34743 0.01193 0.69561 0.0
H2027 H 0.45405 0.22428 0.89464 0.0
H2028 H 0.46459 0.01632 0.66223 0.0
H2029 H 0.435 0.27036 0.83724 0.0
O2030 O 0.36139 0.03384 0.84677 0.0
H2031 H 0.39871 0.16655 0.94787 0.0
H2032 H 0.26257 0.04416 0.96325 0.0
H2033 H 0.34212 0.03237 -0.00383 0.0
H2034 H 0.40677 0.09422 -0.01203 0.0
H2035 H 0.32523 0.18922 0.90992 0.0
H2036 H 0.15602 0.16872 0.87056 0.0
H2037 H 0.12017 0.1156 0.82528 0.0
O2038 O 0.30035 0.05112 0.82324 0.0
C2039 C 0.32791 0.12 0.75725 0.0
C2040 C 0.17627 0.0905 0.804 0.0
C2041 C 0.17324 0.14793 0.85215 0.0
N2042 N 0.23767 0.12204 0.83404 0.0
C2043 C 0.21874 0.09328 0.808 0.0
C2044 C 0.21587 0.1506 0.85428 0.0
C2045 C 0.15326 0.11766 0.82681 0.0
C2046 C 0.43301 0.16848 0.86113 0.0
N2047 N 0.41753 0.14921 0.82489 0.0
C2048 C 0.44292 0.21113 0.86522 0.0
C2049 C 0.43257 0.23712 0.83322 0.0
C2050 C 0.4141 0.21955 0.79768 0.0
C2051 C 0.4044 0.17715 0.7958 0.0
C2052 C 0.488 0.03528 0.7456 0.0
C2053 C 0.37432 0.03428 0.77266 0.0
C2054 C 0.4645 0.04668 0.79337 0.0
N2055 N 0.41593 0.0474 0.80001 0.0
C2056 C 0.3752 0.02316 0.71828 0.0
C2057 C 0.45608 0.02298 0.69692 0.0
C2058 C 0.3259 0.02034 0.83339 0.0
C2059 C 0.37302 0.14423 0.94591 0.0
C2060 C 0.28522 0.07008 0.96038 0.0
C2061 C 0.33498 0.0631 -0.01471 0.0
C2062 C 0.37592 0.10059 -0.02211 0.0
N2063 N 0.28873 0.12612 0.91394 0.0
C2064 C 0.32948 0.15728 0.91624 0.0
Co2065 Co 0.34765 0.88339 0.36365 0.0
Co2066 Co 0.28214 0.90722 0.28758 0.0
O2067 O 0.29859 0.88119 0.34517 0.0
C2068 C 0.44875 0.86365 0.37386 0.0
O2069 O 0.4431 0.82339 0.36884 0.0
C2070 C 0.24543 0.84374 0.21516 0.0
O2071 O 0.2165 0.81555 0.20475 0.0
O2072 O 0.23549 0.87128 0.28487 0.0
O2073 O 0.27341 0.88512 0.34458 0.0
H2074 H 0.20434 0.03122 0.27264 0.0
H2075 H 0.38972 0.82126 0.41711 0.0
O2076 O 0.41603 0.88726 0.37692 0.0
H2077 H 0.29164 0.73551 0.33088 0.0
H2078 H 0.38145 0.90978 0.51368 0.0
H2079 H 0.27169 0.91052 0.40861 0.0
H2080 H 0.28712 0.81046 0.33395 0.0
H2081 H 0.39559 0.88865 0.44426 0.0
O2082 O 0.24637 0.85879 0.25339 0.0
H2083 H 0.22229 0.95469 0.29514 0.0
H2084 H 0.30891 0.92366 0.1942 0.0
H2085 H 0.25475 0.92006 0.47922 0.0
H2086 H 0.39665 0.74463 0.41334 0.0
H2087 H 0.30859 0.916 0.53401 0.0
H2088 H 0.34741 0.70157 0.37011 0.0
O2089 O 0.34889 0.94559 0.36409 0.0
H2090 H 0.35479 0.77325 0.27497 0.0
H2091 H 0.36945 0.92301 0.29029 0.0
H2092 H 0.42467 0.88127 0.30576 0.0
H2093 H 0.42048 0.80533 0.29636 0.0
H2094 H 0.29606 0.81339 0.2636 0.0
H2095 H 0.30647 -0.01323 0.14705 0.0
H2096 H 0.26237 0.05687 0.16578 0.0
O2097 O 0.31502 0.95592 0.30596 0.0
C2098 C 0.23491 0.88593 0.32187 0.0
C2099 C 0.22639 0.01479 0.25532 0.0
C2100 C 0.29021 -0.01094 0.17393 0.0
N2101 N 0.2639 0.93863 0.24252 0.0
C2102 C 0.23491 0.96578 0.26789 0.0
C2103 C 0.28811 0.9459 0.20246 0.0
C2104 C 0.26562 0.03267 0.18815 0.0
C2105 C 0.3694 0.80283 0.39679 0.0
N2106 N 0.34293 0.82193 0.37037 0.0
C2107 C 0.37265 0.75944 0.39584 0.0
C2108 C 0.34526 0.73506 0.37121 0.0
C2109 C 0.31427 0.7541 0.34906 0.0
C2110 C 0.31239 0.79743 0.3507 0.0
C2111 C 0.35629 0.90504 0.49148 0.0
C2112 C 0.29555 0.90523 0.4311 0.0
C2113 C 0.36436 0.89419 0.45109 0.0
N2114 N 0.33374 0.89253 0.42114 0.0
C2115 C 0.28564 0.91243 0.47177 0.0
C2116 C 0.31609 0.91076 0.50241 0.0
C2117 C 0.32611 0.96802 0.34181 0.0
C2118 C 0.35803 0.80637 0.27493 0.0
C2119 C 0.3635 0.89041 0.28771 0.0
C2120 C 0.39581 0.86595 0.29872 0.0
C2121 C 0.39406 0.82398 0.29074 0.0
N2122 N 0.32748 0.87389 0.2717 0.0
C2123 C 0.32445 0.83107 0.26726 0.0
Co2124 Co 0.53396 0.14463 0.16324 0.0
Co2125 Co 0.54794 0.08167 0.07369 0.0
O2126 O 0.54576 0.08935 0.13545 0.0
C2127 C 0.60816 0.11281 0.20692 0.0
O2128 O 0.59891 0.07747 0.18926 0.0
C2129 C 0.55984 0.97112 0.08053 0.0
O2130 O 0.59874 -0.02462 0.09177 0.0
O2131 O 0.4869 0.09861 0.06809 0.0
O2132 O 0.48335 0.14548 0.12091 0.0
H2133 H 0.56723 0.14532 0.93507 0.0
H2134 H 0.55385 0.12072 0.254 0.0
O2135 O 0.58715 0.14442 0.19824 0.0
H2136 H 0.40765 0.12651 0.23263 0.0
H2137 H 0.5306 0.25292 0.27786 0.0
H2138 H 0.48721 0.21784 0.13431 0.0
H2139 H 0.4491 0.10851 0.17477 0.0
H2140 H 0.5585 0.19341 0.24318 0.0
O2141 O 0.53865 0.00755 0.07704 0.0
H2142 H 0.54489 0.14553 0.00337 0.0
H2143 H 0.53924 0.01316 0.00603 0.0
H2144 H 0.45989 0.27842 0.16809 0.0
H2145 H 0.51419 0.14457 0.30881 0.0
H2146 H 0.481 0.29639 0.24047 0.0
H2147 H 0.4414 0.15622 0.2968 0.0
O2148 O 0.56371 0.17752 0.12783 0.0
H2149 H 0.68068 0.00936 0.051 0.0
H2150 H 0.61561 0.12226 0.12365 0.0
H2151 H 0.68592 0.1046 0.14469 0.0
H2152 H 0.71834 0.04609 0.10957 0.0
H2153 H 0.61051 0.0275 0.03192 0.0
H2154 H 0.55078 0.0127 0.93216 0.0
H2155 H 0.56933 0.08065 0.89832 0.0
O2156 O 0.5592 0.14773 0.06831 0.0
C2157 C 0.4688 0.1296 0.08546 0.0
C2158 C 0.56269 0.11619 0.95108 0.0
C2159 C 0.55276 0.04173 0.94942 0.0
N2160 N 0.54867 0.07909 0.01323 0.0
C2161 C 0.55202 0.11566 -0.00837 0.0
C2162 C 0.54566 0.04236 -0.00852 0.0
C2163 C 0.56347 0.07902 0.93022 0.0
C2164 C 0.52196 0.12172 0.24718 0.0
N2165 N 0.50482 0.11852 0.20772 0.0
C2166 C 0.49955 0.13564 0.27977 0.0
C2167 C 0.45847 0.14132 0.27336 0.0
C2168 C 0.43983 0.12679 0.23683 0.0
C2169 C 0.46356 0.11706 0.20365 0.0
C2170 C 0.52049 0.24494 0.24654 0.0
C2171 C 0.49682 0.22474 0.16588 0.0
C2172 C 0.53561 0.21045 0.2266 0.0
N2173 N 0.52109 0.19848 0.18784 0.0
C2174 C 0.48223 0.26032 0.18439 0.0
C2175 C 0.49329 0.26985 0.22531 0.0
C2176 C 0.55829 0.18155 0.09041 0.0
C2177 C 0.66641 0.03394 0.06753 0.0
C2178 C 0.62921 0.09678 0.10842 0.0
C2179 C 0.66925 0.08698 0.12035 0.0
C2180 C 0.68747 0.05436 0.10054 0.0
N2181 N 0.60701 0.07366 0.07917 0.0
C2182 C 0.62641 0.0449 0.05647 0.0
Co2183 Co 0.3181 0.16414 0.62748 0.0
Co2184 Co 0.35238 0.07061 0.63049 0.0
O2185 O 0.31472 0.1072 0.60807 0.0
C2186 C 0.22016 0.13222 0.64708 0.0
O2187 O 0.22907 0.12948 0.68664 0.0
C2188 C 0.34861 -0.00172 0.56637 0.0
O2189 O 0.35327 -0.00901 0.52706 0.0
O2190 O 0.40172 0.10258 0.60665 0.0
O2191 O 0.39079 0.16492 0.63008 0.0
H2192 H 0.42686 0.0525 0.741 0.0
H2193 H 0.259 0.17826 0.55603 0.0
O2194 O 0.2486 0.15191 0.6237 0.0
H2195 H 0.39471 0.22297 0.50718 0.0
H2196 H 0.27235 0.29846 0.5874 0.0
H2197 H 0.37799 0.22552 0.66685 0.0
H2198 H 0.38714 0.20213 0.57546 0.0
H2199 H 0.25635 0.23005 0.61789 0.0
O2200 O 0.35305 0.03652 0.57827 0.0
H2201 H 0.41213 0.1076 0.67621 0.0
H2202 H 0.40651 0.96833 0.67664 0.0
H2203 H 0.39882 0.28517 0.6252 0.0
H2204 H 0.26465 0.21116 0.48827 0.0
H2205 H 0.34524 0.32418 0.58659 0.0
H2206 H 0.33421 0.23163 0.46317 0.0
O2207 O 0.31112 0.15445 0.6895 0.0
H2208 H 0.21027 0.0124 0.5958 0.0
H2209 H 0.30239 0.05305 0.71181 0.0
H2210 H 0.23153 0.05578 0.71941 0.0
H2211 H 0.18632 0.02897 0.66805 0.0
H2212 H 0.28144 0.02872 0.58262 0.0
H2213 H 0.42041 -0.02641 0.73178 0.0
H2214 H 0.43294 -0.019 0.78455 0.0
O2215 O 0.3468 0.10044 0.68818 0.0
C2216 C 0.41799 0.13864 0.61421 0.0
C2217 C 0.42501 0.0709 0.73147 0.0
C2218 C 0.41231 0.96515 0.70175 0.0
N2219 N 0.39749 0.03996 0.65427 0.0
C2220 C 0.41308 0.07645 0.68336 0.0
C2221 C 0.39824 -0.00865 0.65674 0.0
C2222 C 0.42676 -0.00584 0.74931 0.0
C2223 C 0.28895 0.18624 0.54508 0.0
N2224 N 0.32317 0.18106 0.56966 0.0
C2225 C 0.292 0.20463 0.50632 0.0
C2226 C 0.33047 0.2162 0.492 0.0
C2227 C 0.36493 0.21153 0.51687 0.0
C2228 C 0.36042 0.19631 0.55616 0.0
C2229 C 0.29596 0.28229 0.60429 0.0
C2230 C 0.3551 0.24102 0.64872 0.0
C2231 C 0.28668 0.24435 0.62314 0.0
N2232 N 0.31746 0.22236 0.641 0.0
C2233 C 0.36674 0.27568 0.62616 0.0
C2234 C 0.33681 0.2968 0.60393 0.0
C2235 C 0.32859 0.12649 0.70941 0.0
C2236 C 0.23136 0.0224 0.62089 0.0
C2237 C 0.28454 0.04897 0.68367 0.0
C2238 C 0.24315 0.04785 0.68967 0.0
C2239 C 0.21704 0.03224 0.65934 0.0
N2240 N 0.30087 0.04069 0.64601 0.0
C2241 C 0.27315 0.02909 0.61427 0.0
Co2242 Co 0.3493 0.81905 0.13927 0.0
Co2243 Co 0.32742 0.86915 0.04402 0.0
O2244 O 0.3334 0.86977 0.1068 0.0
C2245 C 0.27619 0.85335 0.18372 0.0
O2246 O 0.26426 0.87311 0.15066 0.0
C2247 C 0.30734 -0.02275 0.07127 0.0
O2248 O 0.27063 0.96775 0.0842 0.0
O2249 O 0.3908 0.85789 0.04546 0.0
O2250 O 0.39197 0.8072 0.09396 0.0
H2251 H 0.40905 0.78462 0.93742 0.0
H2252 H 0.36115 0.89435 0.19129 0.0
O2253 O 0.30926 0.83331 0.18371 0.0
H2254 H 0.48341 0.81467 0.21334 0.0
H2255 H 0.31601 0.71024 0.24576 0.0
H2256 H 0.40698 0.7462 0.13435 0.0
H2257 H 0.43668 0.80465 0.15014 0.0
H2258 H 0.29976 0.7651 0.19775 0.0
O2259 O 0.32967 0.94399 0.05774 0.0
H2260 H 0.35603 0.79855 -0.00915 0.0
H2261 H 0.32237 0.94992 0.91939 0.0
H2262 H 0.42691 0.69204 0.18492 0.0
H2263 H 0.41584 0.91509 0.24239 0.0
H2264 H 0.38394 0.67818 0.24418 0.0
H2265 H 0.47204 0.8736 0.25709 0.0
O2266 O 0.30735 0.78873 0.11238 0.0
H2267 H 0.18232 0.93465 0.03632 0.0
H2268 H 0.25797 0.8155 0.07817 0.0
H2269 H 0.19167 0.82273 0.10409 0.0
H2270 H 0.15077 0.88198 0.08152 0.0
H2271 H 0.25111 0.93176 0.02042 0.0
H2272 H 0.35995 0.91698 0.89973 0.0
H2273 H 0.40212 0.83327 0.91211 0.0
O2274 O 0.32443 0.79758 0.04897 0.0
C2275 C 0.40885 0.82643 0.06328 0.0
C2276 C 0.39428 0.81734 0.93182 0.0
C2277 C 0.38166 0.90322 0.88576 0.0
N2278 N 0.3317 0.86586 -0.0267 0.0
C2279 C 0.35786 0.82326 -0.03051 0.0
C2280 C 0.33986 0.91757 0.92144 0.0
C2281 C 0.40594 0.85563 0.89266 0.0
C2282 C 0.38802 0.87755 0.19477 0.0
N2283 N 0.39382 0.84531 0.16993 0.0
C2284 C 0.41862 0.88956 0.22326 0.0
C2285 C 0.45193 0.86608 0.2311 0.0
C2286 C 0.45732 0.83267 0.20656 0.0
C2287 C 0.42968 0.82534 0.17334 0.0
C2288 C 0.33769 0.71938 0.22277 0.0
C2289 C 0.38954 0.74149 0.16147 0.0
C2290 C 0.32945 0.75201 0.19605 0.0
N2291 N 0.35825 0.76666 0.16935 0.0
C2292 C 0.40016 0.71002 0.18907 0.0
C2293 C 0.37529 0.70103 0.2216 0.0
C2294 C 0.32 0.77184 0.08131 0.0
C2295 C 0.19961 0.90831 0.04639 0.0
C2296 C 0.24518 0.84359 0.07159 0.0
C2297 C 0.20511 0.84675 0.08505 0.0
C2298 C 0.18202 0.87937 0.07208 0.0
N2299 N 0.26467 0.8725 0.04758 0.0
C2300 C 0.24054 0.90497 0.03553 0.0
Co2301 Co 0.60809 0.77209 0.61242 0.0
Co2302 Co 0.60065 0.87452 0.62611 0.0
O2303 O 0.61869 0.83055 0.5925 0.0
C2304 C 0.70515 0.79508 0.62447 0.0
O2305 O 0.69608 0.83148 0.63771 0.0
C2306 C 0.60337 0.94094 0.55814 0.0
O2307 O 0.61667 0.93192 0.52179 0.0
O2308 O 0.54081 0.8489 0.6219 0.0
O2309 O 0.53953 0.78137 0.61504 0.0
H2310 H 0.49231 0.89961 0.77331 0.0
H2311 H 0.66376 0.75482 0.54373 0.0
O2312 O 0.67492 0.76787 0.61296 0.0
H2313 H 0.52596 0.70813 0.49169 0.0
H2314 H 0.62683 0.62481 0.58001 0.0
H2315 H 0.54484 0.72179 0.65682 0.0
H2316 H 0.53402 0.74948 0.55374 0.0
H2317 H 0.65274 0.69596 0.59447 0.0
O2318 O 0.58214 0.91281 0.57782 0.0
H2319 H 0.57182 0.84461 0.70489 0.0
H2320 H 0.56407 0.95961 0.62723 0.0
H2321 H 0.51918 0.64911 0.64677 0.0
H2322 H 0.65615 0.71181 0.48072 0.0
H2323 H 0.55958 0.60032 0.60626 0.0
H2324 H 0.5873 0.6862 0.45572 0.0
O2325 O 0.61953 0.78119 0.67504 0.0
H2326 H 0.73326 0.91674 0.56164 0.0
H2327 H 0.66169 0.90759 0.69182 0.0
H2328 H 0.73507 0.9235 0.69351 0.0
H2329 H 0.7704 0.9335 0.6278 0.0
H2330 H 0.6622 0.88925 0.5627 0.0
H2331 H 0.50213 0.96455 0.70287 0.0
H2332 H 0.48945 0.96349 0.75664 0.0
O2333 O 0.62776 0.84685 0.67358 0.0
C2334 C 0.51801 0.81532 0.61822 0.0
C2335 C 0.50575 0.9073 0.74434 0.0
C2336 C 0.51802 0.96987 0.67891 0.0
N2337 N 0.5771 0.90563 0.66787 0.0
C2338 C 0.56487 0.87638 0.70529 0.0
C2339 C 0.55636 0.94652 0.65543 0.0
C2340 C 0.49348 0.9513 0.72327 0.0
C2341 C 0.63342 0.7458 0.53232 0.0
N2342 N 0.59994 0.75548 0.55403 0.0
C2343 C 0.62939 0.72111 0.49654 0.0
C2344 C 0.59069 0.70673 0.48234 0.0
C2345 C 0.55641 0.71883 0.50264 0.0
C2346 C 0.56153 0.7433 0.5383 0.0
C2347 C 0.60913 0.64532 0.59822 0.0
C2348 C 0.56327 0.70032 0.64096 0.0
C2349 C 0.6237 0.68595 0.60657 0.0
N2350 N 0.59942 0.71374 0.62493 0.0
C2351 C 0.54857 0.65918 0.63516 0.0
C2352 C 0.57123 0.63184 0.61255 0.0
C2353 C 0.6349 0.81426 0.69218 0.0
C2354 C 0.71729 0.91586 0.59025 0.0
C2355 C 0.67643 0.91113 0.66294 0.0
C2356 C 0.71837 0.92042 0.66414 0.0
C2357 C 0.73837 0.92472 0.62741 0.0
N2358 N 0.65526 0.90216 0.62655 0.0
C2359 C 0.67619 0.90243 0.59072 0.0
Co2360 Co 0.82085 0.55305 0.90278 0.0
Co2361 Co 0.8199 0.64912 0.87164 0.0
O2362 O 0.8341 0.59391 0.86366 0.0
C2363 C 0.88367 0.51509 0.85372 0.0
O2364 O 0.88144 0.5397 0.8219 0.0
C2365 C 0.81865 0.62523 0.7707 0.0
O2366 O 0.836 0.59013 0.77778 0.0
O2367 O 0.76277 0.63036 0.86215 0.0
O2368 O 0.76635 0.5795 0.90857 0.0
H2369 H 0.77902 0.76844 0.95421 0.0
H2370 H 0.74768 0.49274 0.90395 0.0
O2371 O 0.8748 0.52859 0.88924 0.0
H2372 H 0.75423 0.55401 0.7672 0.0
H2373 H 0.8806 0.46231 0.00502 0.0
H2374 H 0.76171 0.54465 -0.02963 0.0
H2375 H 0.80497 0.52987 0.84825 0.0
H2376 H 0.86803 0.48159 0.93715 0.0
O2377 O 0.81843 0.65296 0.80219 0.0
H2378 H 0.76568 0.69744 0.92559 0.0
H2379 H 0.84391 0.72461 0.82714 0.0
H2380 H 0.77495 0.52473 0.04175 0.0
H2381 H 0.69512 0.47259 0.85078 0.0
H2382 H 0.83279 0.48061 0.06027 0.0
H2383 H 0.697 0.50631 0.7833 0.0
O2384 O 0.84879 0.58598 0.94817 0.0
H2385 H -0.03461 0.61146 0.90381 0.0
H2386 H 0.86611 0.71739 0.92181 0.0
H2387 H 0.93462 0.73062 0.94932 0.0
H2388 H -0.0162 0.6752 0.94542 0.0
H2389 H 0.90138 0.60651 0.86381 0.0
H2390 H 0.85911 0.79514 0.85495 0.0
H2391 H 0.82958 0.81594 0.92158 0.0
O2392 O 0.81488 0.64235 0.94022 0.0
C2393 C 0.74713 0.59832 0.87908 0.0
C2394 C 0.7927 0.75932 0.92585 0.0
C2395 C 0.83762 0.77445 0.87006 0.0
N2396 N 0.80556 0.70669 0.87596 0.0
C2397 C 0.78473 0.71942 0.90918 0.0
C2398 C 0.82772 0.73484 0.8536 0.0
C2399 C 0.82109 0.78607 0.90739 0.0
C2400 C 0.75248 0.49992 0.8722 0.0
N2401 N 0.78926 0.52097 0.85994 0.0
C2402 C 0.72108 0.49174 0.84314 0.0
C2403 C 0.72166 0.51163 0.80577 0.0
C2404 C 0.75478 0.53735 0.79598 0.0
C2405 C 0.79045 0.53897 0.82072 0.0
C2406 C 0.8531 0.4785 -0.00166 0.0
C2407 C 0.78593 0.52382 -0.02326 0.0
C2408 C 0.84563 0.49075 0.95821 0.0
N2409 N 0.81247 0.51365 0.94696 0.0
C2410 C 0.79324 0.51268 0.01787 0.0
C2411 C 0.82662 0.48918 0.02859 0.0
C2412 C 0.82937 0.61399 0.96565 0.0
C2413 C 0.94454 0.63678 0.9047 0.0
C2414 C 0.88871 0.69752 0.91075 0.0
C2415 C 0.9277 0.70383 0.92938 0.0
C2416 C 0.95537 0.67258 0.92731 0.0
N2417 N 0.87871 0.66429 0.88469 0.0
C2418 C 0.90723 0.63428 0.88182 0.0
Co2419 Co 0.74499 0.36088 0.18761 0.0
Co2420 Co 0.83673 0.33381 0.13736 0.0
O2421 O 0.77715 0.34149 0.14084 0.0
C2422 C 0.69898 0.27549 0.19371 0.0
O2423 O 0.71976 0.26225 0.2258 0.0
C2424 C 0.85535 0.32146 0.02635 0.0
O2425 O 0.86573 0.28252 0.02653 0.0
O2426 O 0.84143 0.39728 0.14611 0.0
O2427 O 0.78707 0.40863 0.18919 0.0
H2428 H -0.03038 0.33098 0.21927 0.0
H2429 H 0.68136 0.33912 0.12261 0.0
O2430 O 0.70566 0.31188 0.1801 0.0
H2431 H 0.6646 0.50824 0.1015 0.0
H2432 H 0.61913 0.38128 0.27021 0.0
H2433 H 0.76711 0.40772 0.2629 0.0
H2434 H 0.72676 0.45148 0.19235 0.0
H2435 H 0.65604 0.35804 0.20893 0.0
O2436 O 0.84458 0.33909 0.06389 0.0
H2437 H 0.90434 0.36019 0.19963 0.0
H2438 H 0.90028 0.28858 0.08921 0.0
H2439 H 0.73131 0.43279 0.32244 0.0
H2440 H 0.64955 0.37079 0.05299 0.0
H2441 H 0.65716 0.41502 0.32849 0.0
H2442 H 0.63764 0.44691 0.04273 0.0
O2443 O 0.77672 0.3317 0.22418 0.0
H2444 H 0.7561 0.20224 0.17544 0.0
H2445 H 0.8362 0.27573 0.11578 0.0
H2446 H 0.84156 0.18309 0.08146 0.0
H2447 H 0.79157 0.15502 0.13007 0.0
H2448 H 0.77984 0.27528 0.18099 0.0
H2449 H 0.96055 0.25338 0.111 0.0
H2450 H 0.00127 0.28276 0.1685 0.0
O2451 O 0.83811 0.33487 0.20359 0.0
C2452 C 0.81919 0.42074 0.16935 0.0
C2453 C 0.95306 0.31945 0.19183 0.0
C2454 C 0.94829 0.27653 0.13071 0.0
N2455 N 0.89491 0.32329 0.14445 0.0
C2456 C 0.91539 0.33569 0.18055 0.0
C2457 C 0.91224 0.29503 0.11944 0.0
C2458 C -0.02991 0.2911 0.16531 0.0
C2459 C 0.68824 0.37026 0.11735 0.0
N2460 N 0.71086 0.39274 0.15446 0.0
C2461 C 0.66313 0.39101 0.07685 0.0
C2462 C 0.65445 0.44065 0.0699 0.0
C2463 C 0.67151 0.47739 0.1053 0.0
C2464 C 0.71105 0.44016 0.16464 0.0
C2465 C 0.65189 0.3849 0.26919 0.0
C2466 C 0.73533 0.39995 0.26529 0.0
C2467 C 0.67306 0.37243 0.23486 0.0
N2468 N 0.71465 0.37947 0.23377 0.0
C2469 C 0.71512 0.41329 0.29942 0.0
C2470 C 0.67332 0.40427 0.30217 0.0
C2471 C 0.8124 0.34585 0.23084 0.0
C2472 C 0.77953 0.21453 0.15566 0.0
C2473 C 0.83945 0.24625 0.10254 0.0
C2474 C 0.82787 0.20392 0.10285 0.0
C2475 C 0.79921 0.18806 0.12977 0.0
N2476 N 0.82315 0.27253 0.13234 0.0
C2477 C 0.79285 0.25595 0.15887 0.0
Co2478 Co 0.02087 0.26923 0.64688 0.0
Co2479 Co 0.04837 0.35229 0.58796 0.0
O2480 O 0.03488 0.29101 0.59087 0.0
C2481 C 0.08517 0.20527 0.63585 0.0
O2482 O 0.11643 0.22201 0.65779 0.0
C2483 C 0.06664 0.3428 0.48361 0.0
O2484 O 0.10007 0.32298 0.4923 0.0
O2485 O -0.01254 0.35978 0.59948 0.0
O2486 O -0.01631 0.31983 0.65603 0.0
H2487 H 0.0867 0.4932 0.65092 0.0
H2488 H -0.00427 0.18547 0.66559 0.0
O2489 O 0.05094 0.22113 0.63266 0.0
H2490 H 0.89125 0.22584 0.5663 0.0
H2491 H 0.04663 0.17981 0.76978 0.0
H2492 H 0.95113 0.27614 0.70473 0.0
H2493 H 0.95068 0.27725 0.5851 0.0
H2494 H 0.06777 0.22224 0.71213 0.0
O2495 O 0.04221 0.35068 0.51602 0.0
H2496 H 0.07964 0.41976 0.64958 0.0
H2497 H 0.02677 0.41944 0.52779 0.0
H2498 H 0.93132 0.23878 0.76686 0.0
H2499 H 0.94384 0.13748 0.64403 0.0
H2500 H -0.02221 0.18748 0.7979 0.0
H2501 H 0.89638 0.15687 0.58397 0.0
O2502 O 0.07133 0.29237 0.67037 0.0
H2503 H 0.18295 0.38397 0.52111 0.0
H2504 H 0.10699 0.28508 0.60728 0.0
H2505 H 0.17502 0.26796 0.58487 0.0
H2506 H 0.21309 0.31682 0.54001 0.0
H2507 H 0.11503 0.40014 0.54442 0.0
H2508 H 0.03449 0.49552 0.52809 0.0
H2509 H 0.06675 0.53141 0.59119 0.0
O2510 O 0.05878 0.35521 0.65677 0.0
C2511 C -0.03256 0.34656 0.63099 0.0
C2512 C 0.07496 0.47689 0.62329 0.0
C2513 C 0.04533 0.47808 0.55442 0.0
N2514 N 0.05619 0.41283 0.58729 0.0
C2515 C 0.07119 0.43414 0.62184 0.0
C2516 C 0.04178 0.43476 0.55422 0.0
C2517 C 0.06279 0.49861 0.58924 0.0
C2518 C -0.02676 0.19633 0.6436 0.0
N2519 N -0.02476 0.23563 0.62757 0.0
C2520 C 0.94386 0.16767 0.63034 0.0
C2521 C 0.91688 0.17866 0.59916 0.0
C2522 C 0.91642 0.21876 0.58569 0.0
C2523 C 0.94753 0.24721 0.59867 0.0
C2524 C 0.02598 0.20199 0.75666 0.0
C2525 C -0.02716 0.25613 0.7194 0.0
C2526 C 0.03758 0.2257 0.72312 0.0
N2527 N 0.00999 0.24985 0.70272 0.0
C2528 C 0.96111 0.23463 0.7545 0.0
C2529 C -0.0127 0.20618 0.7722 0.0
C2530 C 0.0694 0.32747 0.6843 0.0
C2531 C 0.16667 0.36239 0.54066 0.0
C2532 C 0.12361 0.30759 0.58974 0.0
C2533 C 0.16218 0.29732 0.57635 0.0
C2534 C 0.18349 0.32464 0.5511 0.0
N2535 N 0.10654 0.34421 0.57881 0.0
C2536 C 0.12812 0.37175 0.55491 0.0
Co2537 Co 0.08177 0.56311 0.04952 0.0
Co2538 Co 0.06091 0.65883 0.07946 0.0
O2539 O 0.05751 0.5981 0.08745 0.0
C2540 C 0.01606 0.48257 0.07011 0.0
O2541 O -0.02412 0.47865 0.06926 0.0
C2542 C 0.08444 0.62662 0.17043 0.0
O2543 O 0.09341 0.591 0.15454 0.0
O2544 O 0.11572 0.66377 0.09181 0.0
O2545 O 0.12923 0.6069 0.05751 0.0
H2546 H 0.04373 0.79846 0.01141 0.0
H2547 H 0.05823 0.51241 0.12909 0.0
O2548 O 0.03139 0.51916 0.05773 0.0
H2549 H 0.23335 0.52051 0.11319 0.0
H2550 H 0.05748 0.40828 0.9353 0.0
H2551 H 0.09428 0.54201 0.92797 0.0
H2552 H 0.17803 0.5614 0.0757 0.0
H2553 H 0.08637 0.48285 0.0349 0.0
O2554 O 0.06524 0.65472 0.14658 0.0
H2555 H 0.03654 0.72235 0.0161 0.0
H2556 H 0.09792 0.72676 0.13426 0.0
H2557 H 0.08689 0.54619 0.87341 0.0
H2558 H 0.08937 0.44624 0.1696 0.0
H2559 H 0.06935 0.45638 0.912 0.0
H2560 H 0.21496 0.44875 0.15637 0.0
O2561 O 0.0546 0.59327 -0.00101 0.0
H2562 H 0.93976 0.60384 -0.00195 0.0
H2563 H -0.00926 0.71897 0.0875 0.0
H2564 H 0.92739 0.72591 0.04894 0.0
H2565 H 0.90227 0.66981 0.00093 0.0
H2566 H -0.00049 0.59525 0.04317 0.0
H2567 H 0.10617 0.80305 0.13038 0.0
H2568 H 0.0781 0.83958 0.06911 0.0
O2569 O 0.07154 0.65757 0.01204 0.0
C2570 C 0.13985 0.63756 0.08352 0.0
C2571 C 0.05539 0.78299 0.03866 0.0
C2572 C 0.09039 0.78555 0.1054 0.0
N2573 N 0.06517 0.71974 0.07632 0.0
C2574 C 0.05172 0.73966 0.04145 0.0
C2575 C 0.08551 0.74222 0.10742 0.0
C2576 C 0.07468 0.80605 0.07101 0.0
C2577 C 0.0896 0.50538 0.12403 0.0
N2578 N 0.1161 0.53433 0.09589 0.0
C2579 C 0.1095 0.46515 0.15092 0.0
C2580 C 0.1904 0.46717 0.14304 0.0
C2581 C 0.20273 0.50898 0.11327 0.0
C2582 C 0.16506 0.53912 0.09301 0.0
C2583 C 0.06786 0.44425 0.93617 0.0
C2584 C 0.0992 0.55309 0.95509 0.0
C2585 C 0.08379 0.48721 0.00505 0.0
N2586 N 0.0962 0.5318 -0.00146 0.0
C2587 C 0.0894 0.52958 0.90506 0.0
C2588 C 0.07402 0.47918 0.89444 0.0
C2589 C 0.06928 0.62757 -0.01612 0.0
C2590 C 0.95016 0.62883 0.01903 0.0
C2591 C -0.02092 0.69211 0.07121 0.0
C2592 C 0.94307 0.69699 0.04773 0.0
C2593 C 0.92933 0.66565 0.02051 0.0
N2594 N 0.00135 0.65712 0.06781 0.0
C2595 C -0.01507 0.62445 0.04447 0.0
Co2596 Co 0.90087 0.61273 0.58729 0.0
Co2597 Co 0.80422 0.59182 0.62507 0.0
O2598 O 0.85619 0.61719 0.62381 0.0
C2599 C -0.02359 0.55825 0.60161 0.0
O2600 O -0.0189 0.51822 0.60547 0.0
C2601 C 0.80598 0.63211 0.72315 0.0
O2602 O 0.80102 0.67047 0.71118 0.0
O2603 O 0.78949 0.65812 0.62344 0.0
O2604 O 0.84799 0.64729 0.60505 0.0
H2605 H 0.67293 0.57367 0.54618 0.0
H2606 H 0.9604 0.58109 0.66701 0.0
O2607 O 0.94805 0.5702 0.57652 0.0
H2608 H 0.88056 0.69691 0.70966 0.0
H2609 H -0.01035 0.65572 0.43593 0.0
H2610 H 0.89568 0.65689 0.55331 0.0
H2611 H 0.89728 0.69081 0.64044 0.0
H2612 H -0.02257 0.63316 0.48439 0.0
O2613 O 0.80354 0.60145 0.69441 0.0
H2614 H 0.73231 0.61541 0.57599 0.0
H2615 H 0.75503 0.52255 0.66357 0.0
H2616 H 0.85253 0.68513 0.5402 0.0
H2617 H 0.9371 0.583 0.73329 0.0
H2618 H 0.92749 0.71182 0.44317 0.0
H2619 H 0.89565 0.64061 0.75704 0.0
O2620 O 0.86398 0.58313 0.53496 0.0
H2621 H 0.93686 0.44503 0.64151 0.0
H2622 H 0.7889 0.52062 0.56325 0.0
H2623 H 0.83645 0.46415 0.52317 0.0
H2624 H 0.90814 0.43319 0.55843 0.0
H2625 H 0.89954 0.4994 0.69242 0.0
H2626 H 0.69545 0.47992 0.6362 0.0
H2627 H 0.65514 0.50442 0.5755 0.0
O2628 O 0.8016 0.59207 0.55562 0.0
C2629 C 0.82324 0.67752 0.61274 0.0
C2630 C 0.69066 0.56217 0.57224 0.0
C2631 C 0.70344 0.50948 0.62264 0.0
N2632 N 0.74785 0.5706 0.62105 0.0
C2633 C 0.72377 0.58605 0.58985 0.0
C2634 C 0.73678 0.53396 0.63874 0.0
C2635 C 0.68083 0.52325 0.5885 0.0
C2636 C 0.94484 0.60864 0.67309 0.0
N2637 N 0.92981 0.63482 0.64308 0.0
C2638 C 0.93066 0.60852 0.71326 0.0
C2639 C 0.90582 0.63939 0.72598 0.0
C2640 C 0.89858 0.67151 0.69979 0.0
C2641 C 0.91101 0.66875 0.65943 0.0
C2642 C -0.02777 0.65385 0.46597 0.0
C2643 C 0.9107 0.63383 0.56535 0.0
C2644 C -0.02239 0.6143 0.5076 0.0
N2645 N 0.94855 0.60923 0.54822 0.0
C2646 C 0.88793 0.67638 0.53761 0.0
C2647 C 0.93253 0.69277 0.46824 0.0
C2648 C 0.82641 0.5882 0.52429 0.0
C2649 C 0.90729 0.45611 0.63122 0.0
C2650 C 0.81479 0.50832 0.57996 0.0
C2651 C 0.84352 0.47019 0.55563 0.0
C2652 C 0.88708 0.44556 0.57954 0.0
N2653 N 0.82841 0.52522 0.62704 0.0
C2654 C 0.8835 0.49251 0.66254 0.0
Co2655 Co 0.15626 0.36198 0.76321 0.0
Co2656 Co 0.07376 0.34927 0.82782 0.0
O2657 O 0.13469 0.35393 0.82106 0.0
C2658 C 0.22846 0.33639 0.81696 0.0
O2659 O 0.20858 0.33523 0.85126 0.0
C2660 C 0.06563 0.33084 0.93559 0.0
O2661 O 0.05399 0.29176 0.93045 0.0
O2662 O 0.07702 0.41099 0.81406 0.0
O2663 O 0.11195 0.40688 0.75384 0.0
H2664 H 0.93904 0.34964 0.7574 0.0
H2665 H 0.18359 0.40448 0.83745 0.0
O2666 O 0.20742 0.32855 0.7823 0.0
H2667 H 0.26568 0.46504 0.72699 0.0
H2668 H 0.25848 0.34229 0.65223 0.0
H2669 H 0.12464 0.39398 0.68552 0.0
H2670 H 0.20381 0.42609 0.71167 0.0
H2671 H 0.22926 0.32632 0.7177 0.0
O2672 O 0.07785 0.35267 0.90096 0.0
H2673 H -0.00113 0.31077 0.78153 0.0
H2674 H 0.02436 0.39904 0.87689 0.0
H2675 H 0.15233 0.41022 0.61917 0.0
H2676 H 0.24024 0.44163 0.85374 0.0
H2677 H 0.22195 0.38743 0.60305 0.0
H2678 H 0.2873 0.47562 0.7974 0.0
O2679 O 0.11864 0.31691 0.74202 0.0
H2680 H 0.02024 0.2097 0.87657 0.0
H2681 H 0.13118 0.28212 0.80475 0.0
H2682 H 0.13118 0.20714 0.81098 0.0
H2683 H 0.07694 0.1702 0.85053 0.0
H2684 H 0.01878 0.28582 0.86337 0.0
H2685 H -0.03316 0.4388 0.85519 0.0
H2686 H 0.92479 0.41652 0.79275 0.0
O2687 O 0.06256 0.34391 0.76131 0.0
C2688 C 0.08807 0.42617 0.77855 0.0
C2689 C 0.95666 0.35979 0.78488 0.0
C2690 C -0.02871 0.40929 0.8402 0.0
N2691 N 0.01515 0.35268 0.83086 0.0
C2692 C -0.00976 0.33751 0.79893 0.0
C2693 C 0.00385 0.38583 0.85344 0.0
C2694 C 0.94814 0.39678 0.80501 0.0
C2695 C 0.20129 0.41704 0.81295 0.0
N2696 N 0.19138 0.40883 0.7738 0.0
C2697 C 0.23685 0.43802 0.8222 0.0
C2698 C 0.26163 0.45471 0.79149 0.0
C2699 C 0.24846 0.45077 0.7513 0.0
C2700 C 0.21238 0.42844 0.74311 0.0
C2701 C 0.2284 0.35282 0.6588 0.0
C2702 C 0.15211 0.38022 0.67723 0.0
C2703 C 0.21116 0.34401 0.69648 0.0
N2704 N 0.17465 0.36069 0.70657 0.0
C2705 C 0.16823 0.38937 0.6394 0.0
C2706 C 0.20753 0.37736 0.63088 0.0
C2707 C 0.08416 0.33125 0.73119 0.0
C2708 C 0.04394 0.22559 0.85968 0.0
C2709 C 0.1056 0.26695 0.81899 0.0
C2710 C 0.10662 0.22398 0.82379 0.0
C2711 C 0.07616 0.20335 0.84549 0.0
N2712 N 0.07374 0.28881 0.83297 0.0
C2713 C 0.0427 0.26821 0.85171 0.0
Co2714 Co 0.08056 0.69019 0.27206 0.0
Co2715 Co 0.11419 0.60559 0.31401 0.0
O2716 O 0.11454 0.66117 0.30856 0.0
C2717 C 0.15961 0.73515 0.28261 0.0
O2718 O 0.17934 0.70341 0.26888 0.0
C2719 C 0.13588 0.62045 0.42171 0.0
O2720 O 0.17591 0.62578 0.42115 0.0
O2721 O 0.05223 0.60002 0.31317 0.0
O2722 O 0.037 0.64304 0.26183 0.0
H2723 H 0.09989 0.46076 0.25811 0.0
H2724 H 0.11234 0.70892 0.36198 0.0
O2725 O 0.12089 0.73544 0.28121 0.0
H2726 H 0.93533 0.71928 0.38194 0.0
H2727 H 0.03857 0.83229 0.23241 0.0
H2728 H 0.02682 0.68398 0.19588 0.0
H2729 H -0.00518 0.69475 0.28019 0.0
H2730 H 0.0629 0.77971 0.28104 0.0
O2731 O 0.11458 0.61234 0.38518 0.0
H2732 H 0.07971 0.53376 0.26394 0.0
H2733 H 0.15812 0.55122 0.37075 0.0
H2734 H 0.01106 0.73638 0.1441 0.0
H2735 H 0.08206 0.72234 0.43355 0.0
H2736 H 0.0149 0.81092 0.16178 0.0
H2737 H -0.01415 0.72743 0.40323 0.0
O2738 O 0.10737 0.67266 0.22417 0.0
H2739 H 0.253 0.66473 0.36197 0.0
H2740 H 0.17856 0.5644 0.26725 0.0
H2741 H 0.25432 0.56447 0.27358 0.0
H2742 H 0.29177 0.61375 0.32339 0.0
H2743 H 0.17749 0.66292 0.35474 0.0
H2744 H 0.18252 0.48035 0.36339 0.0
H2745 H 0.15744 0.43746 0.30326 0.0
O2746 O 0.10669 0.60556 0.24494 0.0
C2747 C 0.02671 0.6133 0.28555 0.0
C2748 C 0.11286 0.48059 0.28287 0.0
C2749 C 0.15887 0.4913 0.34233 0.0
N2750 N 0.11764 0.54637 0.3177 0.0
C2751 C 0.10105 0.52155 0.28661 0.0
C2752 C 0.14443 0.53114 0.3467 0.0
C2753 C 0.14403 0.46668 0.30917 0.0
C2754 C 0.07949 0.71045 0.36157 0.0
N2755 N 0.05474 0.70223 0.31911 0.0
C2756 C 0.06018 0.72231 0.40786 0.0
C2757 C 0.01079 0.72948 0.41943 0.0
C2758 C -0.02876 0.72243 0.37946 0.0
C2759 C 0.00744 0.70197 0.31075 0.0
C2760 C 0.03734 0.79996 0.22369 0.0
C2761 C 0.03233 0.71644 0.20266 0.0
C2762 C 0.05041 0.76975 0.25113 0.0
N2763 N 0.04925 0.72855 0.23963 0.0
C2764 C 0.02221 0.74606 0.17373 0.0
C2765 C 0.02414 0.78801 0.18412 0.0
C2766 C 0.10189 0.63455 0.21541 0.0
C2767 C 0.23698 0.6422 0.34145 0.0
C2768 C 0.19488 0.58595 0.28837 0.0
C2769 C 0.23771 0.58606 0.29176 0.0
C2770 C 0.25873 0.61384 0.31927 0.0
N2771 N 0.17367 0.61136 0.31302 0.0
C2772 C 0.19421 0.64073 0.33756 0.0
Co2773 Co 0.8435 0.28954 0.32569 0.0
Co2774 Co 0.83677 0.39052 0.36924 0.0
O2775 O 0.82733 0.32906 0.37063 0.0
C2776 C 0.75957 0.24706 0.32075 0.0
O2777 O 0.74117 0.28063 0.30913 0.0
C2778 C 0.81735 0.37054 0.47253 0.0
O2779 O 0.78363 0.35018 0.45927 0.0
O2780 O 0.89783 0.37492 0.36169 0.0
O2781 O 0.89187 0.32695 0.31211 0.0
H2782 H 0.90042 0.53147 0.32956 0.0
H2783 H 0.82887 0.27263 0.40927 0.0
O2784 O 0.79633 0.24893 0.33633 0.0
H2785 H 0.95597 0.20518 0.38702 0.0
H2786 H 0.81341 0.17919 0.21669 0.0
H2787 H 0.91966 0.27933 0.27004 0.0
H2788 H 0.92292 0.24623 0.32955 0.0
H2789 H 0.79669 0.24073 0.25729 0.0
O2790 O 0.84092 0.38728 0.44202 0.0
H2791 H 0.89231 0.5 0.2848 0.0
H2792 H 0.83353 0.45542 0.43736 0.0
H2793 H 0.93269 0.23458 0.21082 0.0
H2794 H 0.85561 0.22711 0.45799 0.0
H2795 H 0.88297 0.17902 0.18858 0.0
H2796 H 0.92086 0.19285 0.44697 0.0
O2797 O 0.81007 0.31492 0.29 0.0
H2798 H 0.70817 0.43882 0.43785 0.0
H2799 H 0.76449 0.34228 0.3403 0.0
H2800 H 0.69665 0.32624 0.36681 0.0
H2801 H 0.66803 0.37482 0.41691 0.0
H2802 H 0.77475 0.45367 0.40946 0.0
H2803 H 0.86406 0.52299 0.46974 0.0
H2804 H 0.88435 0.54188 0.42234 0.0
O2805 O 0.82577 0.38065 0.30157 0.0
C2806 C 0.91334 0.3551 0.33115 0.0
C2807 C 0.90857 0.55218 0.34993 0.0
C2808 C 0.86993 0.52181 0.43403 0.0
N2809 N 0.85175 0.45995 0.36623 0.0
C2810 C 0.88732 0.50617 0.32167 0.0
C2811 C 0.84716 0.47474 0.41482 0.0
C2812 C 0.89895 0.55925 0.40285 0.0
C2813 C 0.85766 0.25924 0.40293 0.0
N2814 N 0.87475 0.26199 0.36562 0.0
C2815 C 0.87297 0.2332 0.43195 0.0
C2816 C 0.90838 0.21334 0.42499 0.0
C2817 C 0.9282 0.21993 0.38926 0.0
C2818 C 0.91001 0.24339 0.35842 0.0
C2819 C 0.8368 0.20206 0.22703 0.0
C2820 C 0.89589 0.25723 0.25964 0.0
C2821 C 0.82787 0.23355 0.25479 0.0
N2822 N 0.8584 0.25446 0.27763 0.0
C2823 C 0.90446 0.2314 0.22624 0.0
C2824 C 0.87581 0.20115 0.21232 0.0
C2825 C 0.82206 0.34814 0.27622 0.0
C2826 C 0.72075 0.41725 0.41649 0.0
C2827 C 0.75335 0.36265 0.36272 0.0
C2828 C 0.71431 0.35383 0.37735 0.0
C2829 C 0.69819 0.38113 0.40508 0.0
N2830 N 0.77719 0.39656 0.37587 0.0
C2831 C 0.75988 0.42487 0.40106 0.0
loop_
_geom_bond_atom_site_label_1
_geom_bond_atom_site_label_2
_geom_bond_distance
_geom_bond_site_symmetry_2
_ccdc_geom_bond_type
Co0 O2 2.143 . S
Co0 O8 2.074 . S
Co0 O11 2.093 . S
Co0 O24 2.097 . S
Co0 N41 2.151 . S
Co0 N49 2.214 1_545 S
Co1 O2 2.160 . S
Co1 O7 2.058 . S
Co1 O17 2.057 . S
Co1 O32 2.037 . S
Co1 N36 2.145 . S
Co1 N57 2.257 . S
O2 Co0 2.143 . S
O2 Co1 2.160 . S
C3 O4 1.278 . S
C3 O11 1.224 . S
O4 C3 1.278 . S
C5 O6 1.245 . S
C5 O17 1.232 . S
O6 C5 1.245 . S
O7 Co1 2.058 . S
O7 C33 1.269 . S
O8 Co0 2.074 . S
O8 C33 1.257 . S
H9 C34 0.930 . S
H10 C40 0.930 . S
O11 Co0 2.093 . S
O11 C3 1.224 . S
H12 C44 0.929 1_565 S
H13 C46 0.930 . S
H14 C47 0.930 . S
H15 C45 0.929 . S
H16 C48 0.928 . S
O17 Co1 2.057 . S
O17 C5 1.232 . S
H18 C37 0.929 . S
H19 C38 0.929 . S
H20 C50 0.931 . S
H21 C42 0.929 . S
H22 C51 0.930 . S
H23 C43 0.931 . S
O24 Co0 2.097 . S
O24 C52 1.214 . S
H25 C53 0.929 . S
H26 C54 0.929 . S
H27 C55 0.930 . S
H28 C56 0.929 . S
H29 C58 0.930 . S
H30 C35 0.930 . S
H31 C39 0.930 . S
O32 Co1 2.037 . S
O32 C52 1.234 . S
C33 O7 1.269 . S
C33 O8 1.257 . S
C34 H9 0.930 . S
C34 C37 1.388 1_655 S
C34 C39 1.418 . S
C35 H30 0.930 . S
C35 C38 1.404 . S
C35 C39 1.353 1_455 S
N36 Co1 2.145 . S
N36 C37 1.397 . S
N36 C38 1.334 . S
C37 H18 0.929 . S
C37 C34 1.388 1_455 S
C37 N36 1.397 . S
C38 H19 0.929 . S
C38 C35 1.404 . S
C38 N36 1.334 . S
C39 H31 0.930 . S
C39 C34 1.418 . S
C39 C35 1.353 1_655 S
C40 H10 0.930 . S
C40 N41 1.330 . S
C40 C42 1.446 . S
N41 Co0 2.151 . S
N41 C40 1.330 . S
N41 C45 1.418 . S
C42 H21 0.929 . S
C42 C40 1.446 . S
C42 C43 1.332 . S
C43 H23 0.931 . S
C43 C42 1.332 . S
C43 C44 1.267 . S
C44 H12 0.929 1_545 S
C44 C43 1.267 . S
C44 C45 1.251 . S
C45 H15 0.929 . S
C45 N41 1.418 . S
C45 C44 1.251 . S
C46 H13 0.930 . S
C46 C48 1.406 . S
C46 C51 1.261 . S
C47 H14 0.930 . S
C47 N49 1.325 . S
C47 C50 1.357 . S
C48 H16 0.928 . S
C48 C46 1.406 . S
C48 N49 1.261 . S
N49 Co0 2.214 1_565 S
N49 C47 1.325 . S
N49 C48 1.261 . S
C50 H20 0.931 . S
C50 C47 1.357 . S
C50 C51 1.312 . S
C51 H22 0.930 . S
C51 C46 1.261 . S
C51 C50 1.312 . S
C52 O24 1.214 . S
C52 O32 1.234 . S
C53 H25 0.929 . S
C53 C56 1.391 . S
C53 C58 1.391 . S
C54 H26 0.929 . S
C54 C55 1.390 . S
C54 N57 1.391 . S
C55 H27 0.930 . S
C55 C54 1.390 . S
C55 C56 1.392 . S
C56 H28 0.929 . S
C56 C53 1.391 . S
C56 C55 1.392 . S
N57 Co1 2.257 . S
N57 C54 1.391 . S
N57 C58 1.388 . S
C58 H29 0.930 . S
C58 C53 1.391 . S
C58 N57 1.388 . S
Co59 O61 2.143 . S
Co59 O67 2.074 . S
Co59 O70 2.093 . S
Co59 O83 2.097 . S
Co59 N100 2.151 . S
Co59 N108 2.214 . S
Co60 O61 2.160 . S
Co60 O66 2.058 . S
Co60 O76 2.057 . S
Co60 O91 2.037 . S
Co60 N95 2.145 . S
Co60 N116 2.257 . S
O61 Co59 2.143 . S
O61 Co60 2.160 . S
C62 O63 1.278 . S
C62 O70 1.224 . S
O63 C62 1.278 . S
C64 O65 1.245 . S
C64 O76 1.232 . S
O65 C64 1.245 . S
O66 Co60 2.058 . S
O66 C92 1.269 . S
O67 Co59 2.074 . S
O67 C92 1.257 . S
H68 C93 0.930 . S
H69 C99 0.930 . S
O70 Co59 2.093 . S
O70 C62 1.224 . S
H71 C103 0.929 . S
H72 C105 0.930 1_554 S
H73 C106 0.930 . S
H74 C104 0.929 . S
H75 C107 0.928 . S
O76 Co60 2.057 . S
O76 C64 1.232 . S
H77 C96 0.929 . S
H78 C97 0.929 . S
H79 C109 0.931 . S
H80 C101 0.929 1_554 S
H81 C110 0.930 . S
H82 C102 0.931 1_554 S
O83 Co59 2.097 . S
O83 C111 1.214 . S
H84 C112 0.929 . S
H85 C113 0.929 . S
H86 C114 0.930 . S
H87 C115 0.929 . S
H88 C117 0.930 . S
H89 C94 0.930 . S
H90 C98 0.930 . S
O91 Co60 2.037 . S
O91 C111 1.234 . S
C92 O66 1.269 . S
C92 O67 1.257 . S
C93 H68 0.930 . S
C93 C96 1.388 . S
C93 C98 1.418 . S
C94 H89 0.930 . S
C94 C97 1.404 . S
C94 C98 1.353 . S
N95 Co60 2.145 . S
N95 C96 1.397 . S
N95 C97 1.334 . S
C96 H77 0.929 . S
C96 C93 1.388 . S
C96 N95 1.397 . S
C97 H78 0.929 . S
C97 C94 1.404 . S
C97 N95 1.334 . S
C98 H90 0.930 . S
C98 C93 1.418 . S
C98 C94 1.353 . S
C99 H69 0.930 . S
C99 N100 1.330 . S
C99 C101 1.446 . S
N100 Co59 2.151 . S
N100 C99 1.330 . S
N100 C104 1.418 . S
C101 H80 0.929 1_556 S
C101 C99 1.446 . S
C101 C102 1.332 . S
C102 H82 0.931 1_556 S
C102 C101 1.332 . S
C102 C103 1.267 . S
C103 H71 0.929 . S
C103 C102 1.267 . S
C103 C104 1.251 . S
C104 H74 0.929 . S
C104 N100 1.418 . S
C104 C103 1.251 . S
C105 H72 0.930 1_556 S
C105 C107 1.406 . S
C105 C110 1.261 . S
C106 H73 0.930 . S
C106 N108 1.325 . S
C106 C109 1.357 . S
C107 H75 0.928 . S
C107 C105 1.406 . S
C107 N108 1.261 . S
N108 Co59 2.214 . S
N108 C106 1.325 . S
N108 C107 1.261 . S
C109 H79 0.931 . S
C109 C106 1.357 . S
C109 C110 1.312 . S
C110 H81 0.930 . S
C110 C105 1.261 . S
C110 C109 1.312 . S
C111 O83 1.214 . S
C111 O91 1.234 . S
C112 H84 0.929 . S
C112 C115 1.391 . S
C112 C117 1.391 . S
C113 H85 0.929 . S
C113 C114 1.390 . S
C113 N116 1.391 . S
C114 H86 0.930 . S
C114 C113 1.390 . S
C114 C115 1.392 . S
C115 H87 0.929 . S
C115 C112 1.391 . S
C115 C114 1.392 . S
N116 Co60 2.257 . S
N116 C113 1.391 . S
N116 C117 1.388 . S
C117 H88 0.930 . S
C117 C112 1.391 . S
C117 N116 1.388 . S
Co118 O120 2.143 . S
Co118 O126 2.074 . S
Co118 O129 2.093 . S
Co118 O142 2.097 . S
Co118 N159 2.151 . S
Co118 N167 2.214 1_565 S
Co119 O120 2.160 . S
Co119 O125 2.058 . S
Co119 O135 2.057 . S
Co119 O150 2.037 . S
Co119 N154 2.145 . S
Co119 N175 2.257 . S
O120 Co118 2.143 . S
O120 Co119 2.160 . S
C121 O122 1.278 . S
C121 O129 1.224 . S
O122 C121 1.278 . S
C123 O124 1.245 . S
C123 O135 1.232 . S
O124 C123 1.245 . S
O125 Co119 2.058 . S
O125 C151 1.269 . S
O126 Co118 2.074 . S
O126 C151 1.257 . S
H127 C152 0.930 . S
H128 C158 0.930 . S
O129 Co118 2.093 . S
O129 C121 1.224 . S
H130 C162 0.929 . S
H131 C164 0.930 . S
H132 C165 0.922 1_565 S
H133 C163 0.929 . S
H134 C166 0.928 . S
O135 Co119 2.057 . S
O135 C123 1.232 . S
H136 C155 0.929 . S
H137 C156 0.929 . S
H138 C168 0.931 . S
H139 C160 0.929 . S
H140 C169 0.930 . S
H141 C161 0.931 . S
O142 Co118 2.097 . S
O142 C170 1.214 . S
H143 C171 0.929 . S
H144 C172 0.929 . S
H145 C173 0.930 . S
H146 C174 0.929 . S
H147 C176 0.930 . S
H148 C153 0.930 . S
H149 C157 0.930 . S
O150 Co119 2.037 . S
O150 C170 1.234 . S
C151 O125 1.269 . S
C151 O126 1.257 . S
C152 H127 0.930 . S
C152 C155 1.388 1_455 S
C152 C157 1.418 . S
C153 H148 0.930 . S
C153 C156 1.404 . S
C153 C157 1.353 1_655 S
N154 Co119 2.145 . S
N154 C155 1.397 . S
N154 C156 1.334 . S
C155 H136 0.929 . S
C155 C152 1.388 1_655 S
C155 N154 1.397 . S
C156 H137 0.929 . S
C156 C153 1.404 . S
C156 N154 1.334 . S
C157 H149 0.930 . S
C157 C152 1.418 . S
C157 C153 1.353 1_455 S
C158 H128 0.930 . S
C158 N159 1.330 . S
C158 C160 1.446 . S
N159 Co118 2.151 . S
N159 C158 1.330 . S
N159 C163 1.418 . S
C160 H139 0.929 . S
C160 C158 1.446 . S
C160 C161 1.332 . S
C161 H141 0.931 . S
C161 C160 1.332 . S
C161 C162 1.267 . S
C162 H130 0.929 . S
C162 C161 1.267 . S
C162 C163 1.251 . S
C163 H133 0.929 . S
C163 N159 1.418 . S
C163 C162 1.251 . S
C164 H131 0.930 . S
C164 C166 1.406 . S
C164 C169 1.261 . S
C165 H132 0.922 1_545 S
C165 N167 1.325 . S
C165 C168 1.357 . S
C166 H134 0.928 . S
C166 C164 1.406 . S
C166 N167 1.261 . S
N167 Co118 2.214 1_545 S
N167 C165 1.325 . S
N167 C166 1.261 . S
C168 H138 0.931 . S
C168 C165 1.357 . S
C168 C169 1.312 . S
C169 H140 0.930 . S
C169 C164 1.261 . S
C169 C168 1.312 . S
C170 O142 1.214 . S
C170 O150 1.234 . S
C171 H143 0.929 . S
C171 C174 1.391 . S
C171 C176 1.391 . S
C172 H144 0.929 . S
C172 C173 1.390 . S
C172 N175 1.391 . S
C173 H145 0.930 . S
C173 C172 1.390 . S
C173 C174 1.392 . S
C174 H146 0.929 . S
C174 C171 1.391 . S
C174 C173 1.392 . S
N175 Co119 2.257 . S
N175 C172 1.391 . S
N175 C176 1.388 . S
C176 H147 0.930 . S
C176 C171 1.391 . S
C176 N175 1.388 . S
Co177 O179 2.143 . S
Co177 O185 2.074 . S
Co177 O188 2.093 . S
Co177 O201 2.097 . S
Co177 N218 2.151 . S
Co177 N226 2.214 . S
Co178 O179 2.160 . S
Co178 O184 2.058 . S
Co178 O194 2.057 . S
Co178 O209 2.037 . S
Co178 N213 2.145 . S
Co178 N234 2.257 . S
O179 Co177 2.143 . S
O179 Co178 2.160 . S
C180 O181 1.278 . S
C180 O188 1.224 . S
O181 C180 1.278 . S
C182 O183 1.245 . S
C182 O194 1.232 . S
O183 C182 1.245 . S
O184 Co178 2.058 . S
O184 C210 1.269 . S
O185 Co177 2.074 . S
O185 C210 1.257 . S
H186 C211 0.930 . S
H187 C217 0.930 . S
O188 Co177 2.093 . S
O188 C180 1.224 . S
H189 C221 0.929 . S
H190 C223 0.930 . S
H191 C224 0.930 . S
H192 C222 0.929 . S
H193 C225 0.928 1_554 S
O194 Co178 2.057 . S
O194 C182 1.232 . S
H195 C214 0.929 . S
H196 C215 0.929 . S
H197 C227 0.931 . S
H198 C219 0.929 . S
H199 C228 0.930 . S
H200 C220 0.931 . S
O201 Co177 2.097 . S
O201 C229 1.214 . S
H202 C230 0.929 . S
H203 C231 0.929 . S
H204 C232 0.930 . S
H205 C233 0.929 . S
H206 C235 0.930 . S
H207 C212 0.930 . S
H208 C216 0.930 . S
O209 Co178 2.037 . S
O209 C229 1.234 . S
C210 O184 1.269 . S
C210 O185 1.257 . S
C211 H186 0.930 . S
C211 C214 1.388 . S
C211 C216 1.418 . S
C212 H207 0.930 . S
C212 C215 1.404 . S
C212 C216 1.353 . S
N213 Co178 2.145 . S
N213 C214 1.397 . S
N213 C215 1.334 . S
C214 H195 0.929 . S
C214 C211 1.388 . S
C214 N213 1.397 . S
C215 H196 0.929 . S
C215 C212 1.404 . S
C215 N213 1.334 . S
C216 H208 0.930 . S
C216 C211 1.418 . S
C216 C212 1.353 . S
C217 H187 0.930 . S
C217 N218 1.330 . S
C217 C219 1.446 1_556 S
N218 Co177 2.151 . S
N218 C217 1.330 . S
N218 C222 1.418 . S
C219 H198 0.929 . S
C219 C217 1.446 1_554 S
C219 C220 1.332 . S
C220 H200 0.931 . S
C220 C219 1.332 . S
C220 C221 1.267 . S
C221 H189 0.929 . S
C221 C220 1.267 . S
C221 C222 1.251 1_554 S
C222 H192 0.929 . S
C222 N218 1.418 . S
C222 C221 1.251 1_556 S
C223 H190 0.930 . S
C223 C225 1.406 1_554 S
C223 C228 1.261 1_554 S
C224 H191 0.930 . S
C224 N226 1.325 . S
C224 C227 1.357 . S
C225 H193 0.928 1_556 S
C225 C223 1.406 1_556 S
C225 N226 1.261 . S
N226 Co177 2.214 . S
N226 C224 1.325 . S
N226 C225 1.261 . S
C227 H197 0.931 . S
C227 C224 1.357 . S
C227 C228 1.312 . S
C228 H199 0.930 . S
C228 C223 1.261 1_556 S
C228 C227 1.312 . S
C229 O201 1.214 . S
C229 O209 1.234 . S
C230 H202 0.929 . S
C230 C233 1.391 . S
C230 C235 1.391 . S
C231 H203 0.929 . S
C231 C232 1.390 . S
C231 N234 1.391 . S
C232 H204 0.930 . S
C232 C231 1.390 . S
C232 C233 1.392 . S
C233 H205 0.929 . S
C233 C230 1.391 . S
C233 C232 1.392 . S
N234 Co178 2.257 . S
N234 C231 1.391 . S
N234 C235 1.388 . S
C235 H206 0.930 . S
C235 C230 1.391 . S
C235 N234 1.388 . S
Co236 O238 2.143 . S
Co236 O244 2.074 . S
Co236 O247 2.093 . S
Co236 O260 2.097 . S
Co236 N277 2.151 . S
Co236 N285 2.214 . S
Co237 O238 2.160 . S
Co237 O243 2.058 . S
Co237 O253 2.057 . S
Co237 O268 2.037 . S
Co237 N272 2.145 . S
Co237 N293 2.257 . S
O238 Co236 2.143 . S
O238 Co237 2.160 . S
C239 O240 1.278 . S
C239 O247 1.224 . S
O240 C239 1.278 . S
C241 O242 1.245 . S
C241 O253 1.232 . S
O242 C241 1.245 . S
O243 Co237 2.058 . S
O243 C269 1.269 . S
O244 Co236 2.074 . S
O244 C269 1.257 . S
H245 C270 0.930 . S
H246 C276 0.930 . S
O247 Co236 2.093 . S
O247 C239 1.224 . S
H248 C280 0.929 . S
H249 C282 0.930 . S
H250 C283 0.930 . S
H251 C281 0.929 . S
H252 C284 0.928 . S
O253 Co237 2.057 . S
O253 C241 1.232 . S
H254 C273 0.929 . S
H255 C274 0.929 . S
H256 C286 0.931 . S
H257 C278 0.929 . S
H258 C287 0.930 . S
H259 C279 0.931 . S
O260 Co236 2.097 . S
O260 C288 1.214 . S
H261 C289 0.929 . S
H262 C290 0.929 . S
H263 C291 0.930 . S
H264 C292 0.929 . S
H265 C294 0.930 . S
H266 C271 0.930 . S
H267 C275 0.930 . S
O268 Co237 2.037 . S
O268 C288 1.234 . S
C269 O243 1.269 . S
C269 O244 1.257 . S
C270 H245 0.930 . S
C270 C273 1.388 . S
C270 C275 1.418 . S
C271 H266 0.930 . S
C271 C274 1.404 . S
C271 C275 1.353 . S
N272 Co237 2.145 . S
N272 C273 1.397 . S
N272 C274 1.334 . S
C273 H254 0.929 . S
C273 C270 1.388 . S
C273 N272 1.397 . S
C274 H255 0.929 . S
C274 C271 1.404 . S
C274 N272 1.334 . S
C275 H267 0.930 . S
C275 C270 1.418 . S
C275 C271 1.353 . S
C276 H246 0.930 . S
C276 N277 1.330 . S
C276 C278 1.446 1_565 S
N277 Co236 2.151 . S
N277 C276 1.330 . S
N277 C281 1.418 . S
C278 H257 0.929 . S
C278 C276 1.446 1_545 S
C278 C279 1.332 . S
C279 H259 0.931 . S
C279 C278 1.332 . S
C279 C280 1.267 . S
C280 H248 0.929 . S
C280 C279 1.267 . S
C280 C281 1.251 1_545 S
C281 H251 0.929 . S
C281 N277 1.418 . S
C281 C280 1.251 1_565 S
C282 H249 0.930 . S
C282 C284 1.406 . S
C282 C287 1.261 . S
C283 H250 0.930 . S
C283 N285 1.325 . S
C283 C286 1.357 . S
C284 H252 0.928 . S
C284 C282 1.406 . S
C284 N285 1.261 . S
N285 Co236 2.214 . S
N285 C283 1.325 . S
N285 C284 1.261 . S
C286 H256 0.931 . S
C286 C283 1.357 . S
C286 C287 1.312 . S
C287 H258 0.930 . S
C287 C282 1.261 . S
C287 C286 1.312 . S
C288 O260 1.214 . S
C288 O268 1.234 . S
C289 H261 0.929 . S
C289 C292 1.391 . S
C289 C294 1.391 . S
C290 H262 0.929 . S
C290 C291 1.390 . S
C290 N293 1.391 . S
C291 H263 0.930 . S
C291 C290 1.390 . S
C291 C292 1.392 . S
C292 H264 0.929 . S
C292 C289 1.391 . S
C292 C291 1.392 . S
N293 Co237 2.257 . S
N293 C290 1.391 . S
N293 C294 1.388 . S
C294 H265 0.930 . S
C294 C289 1.391 . S
C294 N293 1.388 . S
Co295 O297 2.143 . S
Co295 O303 2.074 . S
Co295 O306 2.093 . S
Co295 O319 2.097 . S
Co295 N336 2.151 . S
Co295 N344 2.214 . S
Co296 O297 2.160 . S
Co296 O302 2.058 . S
Co296 O312 2.057 . S
Co296 O327 2.037 . S
Co296 N331 2.145 . S
Co296 N352 2.257 . S
O297 Co295 2.143 . S
O297 Co296 2.160 . S
C298 O299 1.278 . S
C298 O306 1.224 . S
O299 C298 1.278 . S
C300 O301 1.245 . S
C300 O312 1.232 . S
O301 C300 1.245 . S
O302 Co296 2.058 . S
O302 C328 1.269 . S
O303 Co295 2.074 . S
O303 C328 1.257 . S
H304 C329 0.930 . S
H305 C335 0.930 . S
O306 Co295 2.093 . S
O306 C298 1.224 . S
H307 C339 0.914 1_556 S
H308 C341 0.930 . S
H309 C342 0.930 . S
H310 C340 0.929 . S
H311 C343 0.928 . S
O312 Co296 2.057 . S
O312 C300 1.232 . S
H313 C332 0.929 . S
H314 C333 0.929 . S
H315 C345 0.931 . S
H316 C337 0.929 . S
H317 C346 0.930 1_556 S
H318 C338 0.931 . S
O319 Co295 2.097 . S
O319 C347 1.214 . S
H320 C348 0.929 . S
H321 C349 0.929 . S
H322 C350 0.930 . S
H323 C351 0.929 . S
H324 C353 0.930 . S
H325 C330 0.930 . S
H326 C334 0.930 . S
O327 Co296 2.037 . S
O327 C347 1.234 . S
C328 O302 1.269 . S
C328 O303 1.257 . S
C329 H304 0.930 . S
C329 C332 1.388 . S
C329 C334 1.418 . S
C330 H325 0.930 . S
C330 C333 1.404 . S
C330 C334 1.353 . S
N331 Co296 2.145 . S
N331 C332 1.397 . S
N331 C333 1.334 . S
C332 H313 0.929 . S
C332 C329 1.388 . S
C332 N331 1.397 . S
C333 H314 0.929 . S
C333 C330 1.404 . S
C333 N331 1.334 . S
C334 H326 0.930 . S
C334 C329 1.418 . S
C334 C330 1.353 . S
C335 H305 0.930 . S
C335 N336 1.330 . S
C335 C337 1.446 . S
N336 Co295 2.151 . S
N336 C335 1.330 . S
N336 C340 1.418 . S
C337 H316 0.929 . S
C337 C335 1.446 . S
C337 C338 1.332 . S
C338 H318 0.931 . S
C338 C337 1.332 . S
C338 C339 1.274 . S
C339 H307 0.914 1_554 S
C339 C338 1.274 . S
C339 C340 1.259 . S
C340 H310 0.929 . S
C340 N336 1.418 . S
C340 C339 1.259 . S
C341 H308 0.930 . S
C341 C343 1.406 . S
C341 C346 1.261 . S
C342 H309 0.930 . S
C342 N344 1.325 . S
C342 C345 1.357 . S
C343 H311 0.928 . S
C343 C341 1.406 . S
C343 N344 1.261 . S
N344 Co295 2.214 . S
N344 C342 1.325 . S
N344 C343 1.261 . S
C345 H315 0.931 . S
C345 C342 1.357 . S
C345 C346 1.312 . S
C346 H317 0.930 1_554 S
C346 C341 1.261 . S
C346 C345 1.312 . S
C347 O319 1.214 . S
C347 O327 1.234 . S
C348 H320 0.929 . S
C348 C351 1.391 . S
C348 C353 1.391 . S
C349 H321 0.929 . S
C349 C350 1.390 . S
C349 N352 1.391 . S
C350 H322 0.930 . S
C350 C349 1.390 . S
C350 C351 1.392 . S
C351 H323 0.929 . S
C351 C348 1.391 . S
C351 C350 1.392 . S
N352 Co296 2.257 . S
N352 C349 1.391 . S
N352 C353 1.388 . S
C353 H324 0.930 . S
C353 C348 1.391 . S
C353 N352 1.388 . S
Co354 O356 2.143 . S
Co354 O362 2.074 . S
Co354 O365 2.093 . S
Co354 O378 2.097 . S
Co354 N395 2.151 . S
Co354 N403 2.214 . S
Co355 O356 2.160 . S
Co355 O361 2.058 . S
Co355 O371 2.057 . S
Co355 O386 2.037 . S
Co355 N390 2.145 . S
Co355 N411 2.257 . S
O356 Co354 2.143 . S
O356 Co355 2.160 . S
C357 O358 1.278 . S
C357 O365 1.224 . S
O358 C357 1.278 . S
C359 O360 1.245 . S
C359 O371 1.232 . S
O360 C359 1.245 . S
O361 Co355 2.058 . S
O361 C387 1.269 . S
O362 Co354 2.074 . S
O362 C387 1.257 . S
H363 C388 0.930 . S
H364 C394 0.930 . S
O365 Co354 2.093 . S
O365 C357 1.224 . S
H366 C398 0.929 . S
H367 C400 0.930 . S
H368 C401 0.930 . S
H369 C399 0.929 . S
H370 C402 0.928 . S
O371 Co355 2.057 . S
O371 C359 1.232 . S
H372 C391 0.929 . S
H373 C392 0.929 . S
H374 C404 0.931 . S
H375 C396 0.929 . S
H376 C405 0.930 . S
H377 C397 0.931 . S
O378 Co354 2.097 . S
O378 C406 1.214 . S
H379 C407 0.929 . S
H380 C408 0.929 . S
H381 C409 0.930 . S
H382 C410 0.929 . S
H383 C412 0.930 . S
H384 C389 0.930 . S
H385 C393 0.930 . S
O386 Co355 2.037 . S
O386 C406 1.234 . S
C387 O361 1.269 . S
C387 O362 1.257 . S
C388 H363 0.930 . S
C388 C391 1.388 . S
C388 C393 1.418 . S
C389 H384 0.930 . S
C389 C392 1.404 . S
C389 C393 1.353 . S
N390 Co355 2.145 . S
N390 C391 1.397 . S
N390 C392 1.334 . S
C391 H372 0.929 . S
C391 C388 1.388 . S
C391 N390 1.397 . S
C392 H373 0.929 . S
C392 C389 1.404 . S
C392 N390 1.334 . S
C393 H385 0.930 . S
C393 C388 1.418 . S
C393 C389 1.353 . S
C394 H364 0.930 . S
C394 N395 1.330 . S
C394 C396 1.446 1_545 S
N395 Co354 2.151 . S
N395 C394 1.330 . S
N395 C399 1.418 . S
C396 H375 0.929 . S
C396 C394 1.446 1_565 S
C396 C397 1.332 . S
C397 H377 0.931 . S
C397 C396 1.332 . S
C397 C398 1.267 . S
C398 H366 0.929 . S
C398 C397 1.267 . S
C398 C399 1.251 1_565 S
C399 H369 0.929 . S
C399 N395 1.418 . S
C399 C398 1.251 1_545 S
C400 H367 0.930 . S
C400 C402 1.406 . S
C400 C405 1.261 . S
C401 H368 0.930 . S
C401 N403 1.325 . S
C401 C404 1.357 . S
C402 H370 0.928 . S
C402 C400 1.406 . S
C402 N403 1.261 . S
N403 Co354 2.214 . S
N403 C401 1.325 . S
N403 C402 1.261 . S
C404 H374 0.931 . S
C404 C401 1.357 . S
C404 C405 1.312 . S
C405 H376 0.930 . S
C405 C400 1.261 . S
C405 C404 1.312 . S
C406 O378 1.214 . S
C406 O386 1.234 . S
C407 H379 0.929 . S
C407 C410 1.391 . S
C407 C412 1.391 . S
C408 H380 0.929 . S
C408 C409 1.390 . S
C408 N411 1.391 . S
C409 H381 0.930 . S
C409 C408 1.390 . S
C409 C410 1.392 . S
C410 H382 0.929 . S
C410 C407 1.391 . S
C410 C409 1.392 . S
N411 Co355 2.257 . S
N411 C408 1.391 . S
N411 C412 1.388 . S
C412 H383 0.930 . S
C412 C407 1.391 . S
C412 N411 1.388 . S
Co413 O415 2.143 . S
Co413 O421 2.074 . S
Co413 O424 2.093 . S
Co413 O437 2.097 . S
Co413 N454 2.151 . S
Co413 N462 2.214 . S
Co414 O415 2.160 . S
Co414 O420 2.058 . S
Co414 O430 2.057 . S
Co414 O445 2.037 . S
Co414 N449 2.145 . S
Co414 N470 2.257 . S
O415 Co413 2.143 . S
O415 Co414 2.160 . S
C416 O417 1.278 . S
C416 O424 1.224 . S
O417 C416 1.278 . S
C418 O419 1.245 . S
C418 O430 1.232 . S
O419 C418 1.245 . S
O420 Co414 2.058 . S
O420 C446 1.269 . S
O421 Co413 2.074 . S
O421 C446 1.257 . S
H422 C447 0.930 . S
H423 C453 0.930 . S
O424 Co413 2.093 . S
O424 C416 1.224 . S
H425 C457 0.929 . S
H426 C459 0.930 . S
H427 C460 0.930 . S
H428 C458 0.929 . S
H429 C461 0.928 . S
O430 Co414 2.057 . S
O430 C418 1.232 . S
H431 C450 0.929 . S
H432 C451 0.929 . S
H433 C463 0.931 . S
H434 C455 0.929 . S
H435 C464 0.930 . S
H436 C456 0.931 . S
O437 Co413 2.097 . S
O437 C465 1.214 . S
H438 C466 0.929 . S
H439 C467 0.929 . S
H440 C468 0.930 . S
H441 C469 0.929 . S
H442 C471 0.930 . S
H443 C448 0.930 . S
H444 C452 0.930 . S
O445 Co414 2.037 . S
O445 C465 1.234 . S
C446 O420 1.269 . S
C446 O421 1.257 . S
C447 H422 0.930 . S
C447 C450 1.388 . S
C447 C452 1.418 . S
C448 H443 0.930 . S
C448 C451 1.404 . S
C448 C452 1.353 . S
N449 Co414 2.145 . S
N449 C450 1.397 . S
N449 C451 1.334 . S
C450 H431 0.929 . S
C450 C447 1.388 . S
C450 N449 1.397 . S
C451 H432 0.929 . S
C451 C448 1.404 . S
C451 N449 1.334 . S
C452 H444 0.930 . S
C452 C447 1.418 . S
C452 C448 1.353 . S
C453 H423 0.930 . S
C453 N454 1.330 . S
C453 C455 1.446 . S
N454 Co413 2.151 . S
N454 C453 1.330 . S
N454 C458 1.418 1_554 S
C455 H434 0.929 . S
C455 C453 1.446 . S
C455 C456 1.332 1_554 S
C456 H436 0.931 . S
C456 C455 1.332 1_556 S
C456 C457 1.267 . S
C457 H425 0.929 . S
C457 C456 1.267 . S
C457 C458 1.251 . S
C458 H428 0.929 . S
C458 N454 1.418 1_556 S
C458 C457 1.251 . S
C459 H426 0.930 . S
C459 C461 1.406 1_556 S
C459 C464 1.261 . S
C460 H427 0.930 . S
C460 N462 1.325 . S
C460 C463 1.357 1_554 S
C461 H429 0.928 . S
C461 C459 1.406 1_554 S
C461 N462 1.261 . S
N462 Co413 2.214 . S
N462 C460 1.325 . S
N462 C461 1.261 . S
C463 H433 0.931 . S
C463 C460 1.357 1_556 S
C463 C464 1.312 . S
C464 H435 0.930 . S
C464 C459 1.261 . S
C464 C463 1.312 . S
C465 O437 1.214 . S
C465 O445 1.234 . S
C466 H438 0.929 . S
C466 C469 1.391 . S
C466 C471 1.391 . S
C467 H439 0.929 . S
C467 C468 1.390 . S
C467 N470 1.391 . S
C468 H440 0.930 . S
C468 C467 1.390 . S
C468 C469 1.392 . S
C469 H441 0.929 . S
C469 C466 1.391 . S
C469 C468 1.392 . S
N470 Co414 2.257 . S
N470 C467 1.391 . S
N470 C471 1.388 . S
C471 H442 0.930 . S
C471 C466 1.391 . S
C471 N470 1.388 . S
Co472 O474 2.143 . S
Co472 O480 2.074 . S
Co472 O483 2.093 . S
Co472 O496 2.097 . S
Co472 N513 2.151 . S
Co472 N521 2.214 . S
Co473 O474 2.160 . S
Co473 O479 2.058 . S
Co473 O489 2.057 . S
Co473 O504 2.037 . S
Co473 N508 2.145 1_554 S
Co473 N529 2.257 . S
O474 Co472 2.143 . S
O474 Co473 2.160 . S
C475 O476 1.278 . S
C475 O483 1.224 . S
O476 C475 1.278 . S
C477 O478 1.245 . S
C477 O489 1.232 . S
O478 C477 1.245 . S
O479 Co473 2.058 . S
O479 C505 1.269 . S
O480 Co472 2.074 . S
O480 C505 1.257 . S
H481 C506 0.930 . S
H482 C512 0.930 . S
O483 Co472 2.093 . S
O483 C475 1.224 . S
H484 C516 0.929 . S
H485 C518 0.930 . S
H486 C519 0.930 . S
H487 C517 0.929 . S
H488 C520 0.928 . S
O489 Co473 2.057 . S
O489 C477 1.232 . S
H490 C509 0.929 . S
H491 C510 0.929 . S
H492 C522 0.931 . S
H493 C514 0.929 . S
H494 C523 0.930 . S
H495 C515 0.931 . S
O496 Co472 2.097 . S
O496 C524 1.214 . S
H497 C525 0.929 . S
H498 C526 0.929 . S
H499 C527 0.930 . S
H500 C528 0.929 . S
H501 C530 0.930 . S
H502 C507 0.930 . S
H503 C511 0.930 . S
O504 Co473 2.037 . S
O504 C524 1.234 . S
C505 O479 1.269 . S
C505 O480 1.257 . S
C506 H481 0.930 . S
C506 C509 1.388 . S
C506 C511 1.418 . S
C507 H502 0.930 . S
C507 C510 1.404 . S
C507 C511 1.353 . S
N508 Co473 2.145 1_556 S
N508 C509 1.397 . S
N508 C510 1.334 . S
C509 H490 0.929 . S
C509 C506 1.388 . S
C509 N508 1.397 . S
C510 H491 0.929 . S
C510 C507 1.404 . S
C510 N508 1.334 . S
C511 H503 0.930 . S
C511 C506 1.418 . S
C511 C507 1.353 . S
C512 H482 0.930 . S
C512 N513 1.330 . S
C512 C514 1.446 . S
N513 Co472 2.151 . S
N513 C512 1.330 . S
N513 C517 1.418 . S
C514 H493 0.929 . S
C514 C512 1.446 . S
C514 C515 1.332 . S
C515 H495 0.931 . S
C515 C514 1.332 . S
C515 C516 1.267 . S
C516 H484 0.929 . S
C516 C515 1.267 . S
C516 C517 1.251 . S
C517 H487 0.929 . S
C517 N513 1.418 . S
C517 C516 1.251 . S
C518 H485 0.930 . S
C518 C520 1.406 . S
C518 C523 1.261 1_545 S
C519 H486 0.930 . S
C519 N521 1.325 . S
C519 C522 1.357 1_545 S
C520 H488 0.928 . S
C520 C518 1.406 . S
C520 N521 1.261 . S
N521 Co472 2.214 . S
N521 C519 1.325 . S
N521 C520 1.261 . S
C522 H492 0.931 . S
C522 C519 1.357 1_565 S
C522 C523 1.312 . S
C523 H494 0.930 . S
C523 C518 1.261 1_565 S
C523 C522 1.312 . S
C524 O496 1.214 . S
C524 O504 1.234 . S
C525 H497 0.929 . S
C525 C528 1.391 . S
C525 C530 1.391 . S
C526 H498 0.929 . S
C526 C527 1.390 . S
C526 N529 1.391 . S
C527 H499 0.930 . S
C527 C526 1.390 . S
C527 C528 1.392 . S
C528 H500 0.929 . S
C528 C525 1.391 . S
C528 C527 1.392 . S
N529 Co473 2.257 . S
N529 C526 1.391 . S
N529 C530 1.388 . S
C530 H501 0.930 . S
C530 C525 1.391 . S
C530 N529 1.388 . S
Co531 O533 2.143 . S
Co531 O539 2.074 . S
Co531 O542 2.093 . S
Co531 O555 2.097 . S
Co531 N572 2.151 . S
Co531 N580 2.214 . S
Co532 O533 2.160 . S
Co532 O538 2.058 . S
Co532 O548 2.057 . S
Co532 O563 2.037 . S
Co532 N567 2.145 . S
Co532 N588 2.257 . S
O533 Co531 2.143 . S
O533 Co532 2.160 . S
C534 O535 1.278 . S
C534 O542 1.224 . S
O535 C534 1.278 . S
C536 O537 1.245 . S
C536 O548 1.232 . S
O537 C536 1.245 . S
O538 Co532 2.058 . S
O538 C564 1.269 . S
O539 Co531 2.074 . S
O539 C564 1.257 . S
H540 C565 0.930 . S
H541 C571 0.930 . S
O542 Co531 2.093 . S
O542 C534 1.224 . S
H543 C575 0.929 . S
H544 C577 0.930 . S
H545 C578 0.930 . S
H546 C576 0.929 . S
H547 C579 0.928 . S
O548 Co532 2.057 . S
O548 C536 1.232 . S
H549 C568 0.929 . S
H550 C569 0.929 . S
H551 C581 0.931 . S
H552 C573 0.929 . S
H553 C582 0.930 . S
H554 C574 0.931 . S
O555 Co531 2.097 . S
O555 C583 1.214 . S
H556 C584 0.929 . S
H557 C585 0.929 . S
H558 C586 0.930 . S
H559 C587 0.929 . S
H560 C589 0.930 . S
H561 C566 0.930 . S
H562 C570 0.930 . S
O563 Co532 2.037 . S
O563 C583 1.234 . S
C564 O538 1.269 . S
C564 O539 1.257 . S
C565 H540 0.930 . S
C565 C568 1.388 . S
C565 C570 1.418 . S
C566 H561 0.930 . S
C566 C569 1.404 1_545 S
C566 C570 1.353 1_545 S
N567 Co532 2.145 . S
N567 C568 1.397 . S
N567 C569 1.334 . S
C568 H549 0.929 . S
C568 C565 1.388 . S
C568 N567 1.397 . S
C569 H550 0.929 . S
C569 C566 1.404 1_565 S
C569 N567 1.334 . S
C570 H562 0.930 . S
C570 C565 1.418 . S
C570 C566 1.353 1_565 S
C571 H541 0.930 . S
C571 N572 1.330 . S
C571 C573 1.446 . S
N572 Co531 2.151 . S
N572 C571 1.330 . S
N572 C576 1.418 . S
C573 H552 0.929 . S
C573 C571 1.446 . S
C573 C574 1.332 . S
C574 H554 0.931 . S
C574 C573 1.332 . S
C574 C575 1.267 . S
C575 H543 0.929 . S
C575 C574 1.267 . S
C575 C576 1.251 . S
C576 H546 0.929 . S
C576 N572 1.418 . S
C576 C575 1.251 . S
C577 H544 0.930 . S
C577 C579 1.406 . S
C577 C582 1.261 . S
C578 H545 0.930 . S
C578 N580 1.325 . S
C578 C581 1.357 . S
C579 H547 0.928 . S
C579 C577 1.406 . S
C579 N580 1.261 . S
N580 Co531 2.214 . S
N580 C578 1.325 . S
N580 C579 1.261 . S
C581 H551 0.931 . S
C581 C578 1.357 . S
C581 C582 1.312 . S
C582 H553 0.930 . S
C582 C577 1.261 . S
C582 C581 1.312 . S
C583 O555 1.214 . S
C583 O563 1.234 . S
C584 H556 0.929 . S
C584 C587 1.391 . S
C584 C589 1.391 . S
C585 H557 0.929 . S
C585 C586 1.390 . S
C585 N588 1.391 . S
C586 H558 0.930 . S
C586 C585 1.390 . S
C586 C587 1.392 . S
C587 H559 0.929 . S
C587 C584 1.391 . S
C587 C586 1.392 . S
N588 Co532 2.257 . S
N588 C585 1.391 . S
N588 C589 1.388 . S
C589 H560 0.930 . S
C589 C584 1.391 . S
C589 N588 1.388 . S
Co590 O592 2.143 . S
Co590 O598 2.074 . S
Co590 O601 2.093 . S
Co590 O614 2.097 . S
Co590 N631 2.151 . S
Co590 N639 2.214 . S
Co591 O592 2.160 . S
Co591 O597 2.058 . S
Co591 O607 2.057 . S
Co591 O622 2.037 . S
Co591 N626 2.145 1_554 S
Co591 N647 2.257 . S
O592 Co590 2.143 . S
O592 Co591 2.160 . S
C593 O594 1.278 . S
C593 O601 1.224 . S
O594 C593 1.278 . S
C595 O596 1.245 . S
C595 O607 1.232 . S
O596 C595 1.245 . S
O597 Co591 2.058 . S
O597 C623 1.269 . S
O598 Co590 2.074 . S
O598 C623 1.257 . S
H599 C624 0.930 . S
H600 C630 0.930 . S
O601 Co590 2.093 . S
O601 C593 1.224 . S
H602 C634 0.929 . S
H603 C636 0.930 . S
H604 C637 0.930 . S
H605 C635 0.929 . S
H606 C638 0.928 . S
O607 Co591 2.057 . S
O607 C595 1.232 . S
H608 C627 0.929 . S
H609 C628 0.929 . S
H610 C640 0.931 . S
H611 C632 0.929 . S
H612 C641 0.930 . S
H613 C633 0.931 . S
O614 Co590 2.097 . S
O614 C642 1.214 . S
H615 C643 0.929 . S
H616 C644 0.929 . S
H617 C645 0.930 . S
H618 C646 0.929 . S
H619 C648 0.930 . S
H620 C625 0.930 . S
H621 C629 0.930 . S
O622 Co591 2.037 . S
O622 C642 1.234 . S
C623 O597 1.269 . S
C623 O598 1.257 . S
C624 H599 0.930 . S
C624 C627 1.388 . S
C624 C629 1.418 . S
C625 H620 0.930 . S
C625 C628 1.404 . S
C625 C629 1.353 . S
N626 Co591 2.145 1_556 S
N626 C627 1.397 . S
N626 C628 1.334 . S
C627 H608 0.929 . S
C627 C624 1.388 . S
C627 N626 1.397 . S
C628 H609 0.929 . S
C628 C625 1.404 . S
C628 N626 1.334 . S
C629 H621 0.930 . S
C629 C624 1.418 . S
C629 C625 1.353 . S
C630 H600 0.930 . S
C630 N631 1.330 . S
C630 C632 1.446 . S
N631 Co590 2.151 . S
N631 C630 1.330 . S
N631 C635 1.418 . S
C632 H611 0.929 . S
C632 C630 1.446 . S
C632 C633 1.332 . S
C633 H613 0.931 . S
C633 C632 1.332 . S
C633 C634 1.267 . S
C634 H602 0.929 . S
C634 C633 1.267 . S
C634 C635 1.251 . S
C635 H605 0.929 . S
C635 N631 1.418 . S
C635 C634 1.251 . S
C636 H603 0.930 . S
C636 C638 1.406 . S
C636 C641 1.261 1_565 S
C637 H604 0.930 . S
C637 N639 1.325 . S
C637 C640 1.357 1_565 S
C638 H606 0.928 . S
C638 C636 1.406 . S
C638 N639 1.261 . S
N639 Co590 2.214 . S
N639 C637 1.325 . S
N639 C638 1.261 . S
C640 H610 0.931 . S
C640 C637 1.357 1_545 S
C640 C641 1.312 . S
C641 H612 0.930 . S
C641 C636 1.261 1_545 S
C641 C640 1.312 . S
C642 O614 1.214 . S
C642 O622 1.234 . S
C643 H615 0.929 . S
C643 C646 1.391 . S
C643 C648 1.391 . S
C644 H616 0.929 . S
C644 C645 1.390 . S
C644 N647 1.391 . S
C645 H617 0.930 . S
C645 C644 1.390 . S
C645 C646 1.392 . S
C646 H618 0.929 . S
C646 C643 1.391 . S
C646 C645 1.392 . S
N647 Co591 2.257 . S
N647 C644 1.391 . S
N647 C648 1.388 . S
C648 H619 0.930 . S
C648 C643 1.391 . S
C648 N647 1.388 . S
Co649 O651 2.143 . S
Co649 O657 2.074 . S
Co649 O660 2.093 . S
Co649 O673 2.097 . S
Co649 N690 2.151 . S
Co649 N698 2.214 . S
Co650 O651 2.160 . S
Co650 O656 2.058 . S
Co650 O666 2.057 . S
Co650 O681 2.037 . S
Co650 N685 2.145 . S
Co650 N706 2.257 . S
O651 Co649 2.143 . S
O651 Co650 2.160 . S
C652 O653 1.278 . S
C652 O660 1.224 . S
O653 C652 1.278 . S
C654 O655 1.245 . S
C654 O666 1.232 . S
O655 C654 1.245 . S
O656 Co650 2.058 . S
O656 C682 1.269 . S
O657 Co649 2.074 . S
O657 C682 1.257 . S
H658 C683 0.930 . S
H659 C689 0.930 . S
O660 Co649 2.093 . S
O660 C652 1.224 . S
H661 C693 0.929 . S
H662 C695 0.930 . S
H663 C696 0.930 . S
H664 C694 0.929 . S
H665 C697 0.928 . S
O666 Co650 2.057 . S
O666 C654 1.232 . S
H667 C686 0.929 . S
H668 C687 0.929 1_565 S
H669 C699 0.931 . S
H670 C691 0.929 . S
H671 C700 0.930 . S
H672 C692 0.931 . S
O673 Co649 2.097 . S
O673 C701 1.214 . S
H674 C702 0.929 . S
H675 C703 0.929 . S
H676 C704 0.930 . S
H677 C705 0.929 . S
H678 C707 0.930 . S
H679 C684 0.930 . S
H680 C688 0.941 . S
O681 Co650 2.037 . S
O681 C701 1.234 . S
C682 O656 1.269 . S
C682 O657 1.257 . S
C683 H658 0.930 . S
C683 C686 1.388 . S
C683 C688 1.418 . S
C684 H679 0.930 . S
C684 C687 1.404 1_565 S
C684 C688 1.353 1_565 S
N685 Co650 2.145 . S
N685 C686 1.397 . S
N685 C687 1.334 . S
C686 H667 0.929 . S
C686 C683 1.388 . S
C686 N685 1.397 . S
C687 H668 0.929 1_545 S
C687 C684 1.404 1_545 S
C687 N685 1.334 . S
C688 H680 0.941 . S
C688 C683 1.418 . S
C688 C684 1.353 1_545 S
C689 H659 0.930 . S
C689 N690 1.330 . S
C689 C691 1.446 . S
N690 Co649 2.151 . S
N690 C689 1.330 . S
N690 C694 1.418 . S
C691 H670 0.929 . S
C691 C689 1.446 . S
C691 C692 1.332 . S
C692 H672 0.931 . S
C692 C691 1.332 . S
C692 C693 1.267 . S
C693 H661 0.929 . S
C693 C692 1.267 . S
C693 C694 1.251 . S
C694 H664 0.929 . S
C694 N690 1.418 . S
C694 C693 1.251 . S
C695 H662 0.930 . S
C695 C697 1.406 . S
C695 C700 1.261 . S
C696 H663 0.930 . S
C696 N698 1.325 . S
C696 C699 1.357 . S
C697 H665 0.928 . S
C697 C695 1.406 . S
C697 N698 1.261 . S
N698 Co649 2.214 . S
N698 C696 1.325 . S
N698 C697 1.261 . S
C699 H669 0.931 . S
C699 C696 1.357 . S
C699 C700 1.312 . S
C700 H671 0.930 . S
C700 C695 1.261 . S
C700 C699 1.312 . S
C701 O673 1.214 . S
C701 O681 1.234 . S
C702 H674 0.929 . S
C702 C705 1.391 . S
C702 C707 1.391 . S
C703 H675 0.929 . S
C703 C704 1.390 . S
C703 N706 1.391 . S
C704 H676 0.930 . S
C704 C703 1.390 . S
C704 C705 1.392 . S
C705 H677 0.929 . S
C705 C702 1.391 . S
C705 C704 1.392 . S
N706 Co650 2.257 . S
N706 C703 1.391 . S
N706 C707 1.388 . S
C707 H678 0.930 . S
C707 C702 1.391 . S
C707 N706 1.388 . S
Co708 O710 2.143 . S
Co708 O716 2.074 . S
Co708 O719 2.093 . S
Co708 O732 2.097 . S
Co708 N749 2.151 . S
Co708 N757 2.214 . S
Co709 O710 2.160 . S
Co709 O715 2.058 . S
Co709 O725 2.057 . S
Co709 O740 2.037 . S
Co709 N744 2.145 . S
Co709 N765 2.257 . S
O710 Co708 2.143 . S
O710 Co709 2.160 . S
C711 O712 1.278 . S
C711 O719 1.224 . S
O712 C711 1.278 . S
C713 O714 1.245 . S
C713 O725 1.232 . S
O714 C713 1.245 . S
O715 Co709 2.058 . S
O715 C741 1.269 . S
O716 Co708 2.074 . S
O716 C741 1.257 . S
H717 C742 0.930 . S
H718 C748 0.930 . S
O719 Co708 2.093 . S
O719 C711 1.224 . S
H720 C752 0.929 . S
H721 C754 0.930 . S
H722 C755 0.930 . S
H723 C753 0.929 . S
H724 C756 0.928 . S
O725 Co709 2.057 . S
O725 C713 1.232 . S
H726 C745 0.929 . S
H727 C746 0.929 . S
H728 C758 0.931 . S
H729 C750 0.929 . S
H730 C759 0.930 . S
H731 C751 0.931 . S
O732 Co708 2.097 . S
O732 C760 1.214 . S
H733 C761 0.929 . S
H734 C762 0.929 . S
H735 C763 0.930 . S
H736 C764 0.929 . S
H737 C766 0.930 . S
H738 C743 0.930 . S
H739 C747 0.930 . S
O740 Co709 2.037 . S
O740 C760 1.234 . S
C741 O715 1.269 . S
C741 O716 1.257 . S
C742 H717 0.930 . S
C742 C745 1.388 . S
C742 C747 1.418 . S
C743 H738 0.930 . S
C743 C746 1.404 . S
C743 C747 1.353 . S
N744 Co709 2.145 . S
N744 C745 1.397 . S
N744 C746 1.334 . S
C745 H726 0.929 . S
C745 C742 1.388 . S
C745 N744 1.397 . S
C746 H727 0.929 . S
C746 C743 1.404 . S
C746 N744 1.334 . S
C747 H739 0.930 . S
C747 C742 1.418 . S
C747 C743 1.353 . S
C748 H718 0.930 . S
C748 N749 1.330 . S
C748 C750 1.446 . S
N749 Co708 2.151 . S
N749 C748 1.330 . S
N749 C753 1.418 . S
C750 H729 0.929 . S
C750 C748 1.446 . S
C750 C751 1.332 . S
C751 H731 0.931 . S
C751 C750 1.332 . S
C751 C752 1.267 . S
C752 H720 0.929 . S
C752 C751 1.267 . S
C752 C753 1.251 . S
C753 H723 0.929 . S
C753 N749 1.418 . S
C753 C752 1.251 . S
C754 H721 0.930 . S
C754 C756 1.406 . S
C754 C759 1.261 . S
C755 H722 0.930 . S
C755 N757 1.325 . S
C755 C758 1.357 . S
C756 H724 0.928 . S
C756 C754 1.406 . S
C756 N757 1.261 . S
N757 Co708 2.214 . S
N757 C755 1.325 . S
N757 C756 1.261 . S
C758 H728 0.931 . S
C758 C755 1.357 . S
C758 C759 1.312 . S
C759 H730 0.930 . S
C759 C754 1.261 . S
C759 C758 1.312 . S
C760 O732 1.214 . S
C760 O740 1.234 . S
C761 H733 0.929 . S
C761 C764 1.391 . S
C761 C766 1.391 1_554 S
C762 H734 0.929 . S
C762 C763 1.390 1_556 S
C762 N765 1.391 . S
C763 H735 0.930 . S
C763 C762 1.390 1_554 S
C763 C764 1.392 . S
C764 H736 0.929 . S
C764 C761 1.391 . S
C764 C763 1.392 . S
N765 Co709 2.257 . S
N765 C762 1.391 . S
N765 C766 1.388 . S
C766 H737 0.930 . S
C766 C761 1.391 1_556 S
C766 N765 1.388 . S
Co767 O769 2.143 . S
Co767 O775 2.074 . S
Co767 O778 2.093 . S
Co767 O791 2.097 . S
Co767 N808 2.151 . S
Co767 N816 2.214 . S
Co768 O769 2.160 . S
Co768 O774 2.058 . S
Co768 O784 2.057 . S
Co768 O799 2.037 . S
Co768 N803 2.145 . S
Co768 N824 2.257 . S
O769 Co767 2.143 . S
O769 Co768 2.160 . S
C770 O771 1.278 . S
C770 O778 1.224 . S
O771 C770 1.278 . S
C772 O773 1.245 . S
C772 O784 1.232 . S
O773 C772 1.245 . S
O774 Co768 2.058 . S
O774 C800 1.269 . S
O775 Co767 2.074 . S
O775 C800 1.257 . S
H776 C801 0.930 . S
H777 C807 0.930 . S
O778 Co767 2.093 . S
O778 C770 1.224 . S
H779 C811 0.929 . S
H780 C813 0.930 . S
H781 C814 0.930 . S
H782 C812 0.929 . S
H783 C815 0.928 . S
O784 Co768 2.057 . S
O784 C772 1.232 . S
H785 C804 0.929 . S
H786 C805 0.929 . S
H787 C817 0.931 . S
H788 C809 0.929 . S
H789 C818 0.930 . S
H790 C810 0.931 . S
O791 Co767 2.097 . S
O791 C819 1.214 . S
H792 C820 0.929 . S
H793 C821 0.929 . S
H794 C822 0.930 . S
H795 C823 0.929 . S
H796 C825 0.930 . S
H797 C802 0.930 . S
H798 C806 0.930 . S
O799 Co768 2.037 . S
O799 C819 1.234 . S
C800 O774 1.269 . S
C800 O775 1.257 . S
C801 H776 0.930 . S
C801 C804 1.388 . S
C801 C806 1.418 . S
C802 H797 0.930 . S
C802 C805 1.404 . S
C802 C806 1.353 1_565 S
N803 Co768 2.145 . S
N803 C804 1.397 1_565 S
N803 C805 1.334 . S
C804 H785 0.929 . S
C804 C801 1.388 . S
C804 N803 1.397 1_545 S
C805 H786 0.929 . S
C805 C802 1.404 . S
C805 N803 1.334 . S
C806 H798 0.930 . S
C806 C801 1.418 . S
C806 C802 1.353 1_545 S
C807 H777 0.930 . S
C807 N808 1.330 . S
C807 C809 1.446 . S
N808 Co767 2.151 . S
N808 C807 1.330 . S
N808 C812 1.418 . S
C809 H788 0.929 . S
C809 C807 1.446 . S
C809 C810 1.332 . S
C810 H790 0.931 . S
C810 C809 1.332 . S
C810 C811 1.267 . S
C811 H779 0.929 . S
C811 C810 1.267 . S
C811 C812 1.251 . S
C812 H782 0.929 . S
C812 N808 1.418 . S
C812 C811 1.251 . S
C813 H780 0.930 . S
C813 C815 1.406 . S
C813 C818 1.261 . S
C814 H781 0.930 . S
C814 N816 1.325 . S
C814 C817 1.357 . S
C815 H783 0.928 . S
C815 C813 1.406 . S
C815 N816 1.261 . S
N816 Co767 2.214 . S
N816 C814 1.325 . S
N816 C815 1.261 . S
C817 H787 0.931 . S
C817 C814 1.357 . S
C817 C818 1.312 . S
C818 H789 0.930 . S
C818 C813 1.261 . S
C818 C817 1.312 . S
C819 O791 1.214 . S
C819 O799 1.234 . S
C820 H792 0.929 . S
C820 C823 1.391 1_565 S
C820 C825 1.391 . S
C821 H793 0.929 . S
C821 C822 1.390 . S
C821 N824 1.391 1_545 S
C822 H794 0.930 . S
C822 C821 1.390 . S
C822 C823 1.392 . S
C823 H795 0.929 . S
C823 C820 1.391 1_545 S
C823 C822 1.392 . S
N824 Co768 2.257 . S
N824 C821 1.391 1_565 S
N824 C825 1.388 . S
C825 H796 0.930 . S
C825 C820 1.391 . S
C825 N824 1.388 . S
Co826 O828 2.143 . S
Co826 O834 2.074 . S
Co826 O837 2.093 . S
Co826 O850 2.097 . S
Co826 N867 2.151 . S
Co826 N875 2.214 . S
Co827 O828 2.160 . S
Co827 O833 2.058 . S
Co827 O843 2.057 . S
Co827 O858 2.037 . S
Co827 N862 2.145 . S
Co827 N883 2.257 . S
O828 Co826 2.143 . S
O828 Co827 2.160 . S
C829 O830 1.278 . S
C829 O837 1.224 . S
O830 C829 1.278 . S
C831 O832 1.245 . S
C831 O843 1.232 . S
O832 C831 1.245 . S
O833 Co827 2.058 . S
O833 C859 1.269 . S
O834 Co826 2.074 . S
O834 C859 1.257 . S
H835 C860 0.930 . S
H836 C866 0.930 . S
O837 Co826 2.093 . S
O837 C829 1.224 . S
H838 C870 0.929 . S
H839 C872 0.930 . S
H840 C873 0.930 . S
H841 C871 0.929 . S
H842 C874 0.928 . S
O843 Co827 2.057 . S
O843 C831 1.232 . S
H844 C863 0.929 . S
H845 C864 0.929 . S
H846 C876 0.931 . S
H847 C868 0.929 . S
H848 C877 0.930 . S
H849 C869 0.931 . S
O850 Co826 2.097 . S
O850 C878 1.214 . S
H851 C879 0.929 . S
H852 C880 0.929 . S
H853 C881 0.930 . S
H854 C882 0.929 . S
H855 C884 0.930 . S
H856 C861 0.930 . S
H857 C865 0.930 . S
O858 Co827 2.037 . S
O858 C878 1.234 . S
C859 O833 1.269 . S
C859 O834 1.257 . S
C860 H835 0.930 . S
C860 C863 1.388 . S
C860 C865 1.418 . S
C861 H856 0.930 . S
C861 C864 1.404 . S
C861 C865 1.353 . S
N862 Co827 2.145 . S
N862 C863 1.397 . S
N862 C864 1.334 . S
C863 H844 0.929 . S
C863 C860 1.388 . S
C863 N862 1.397 . S
C864 H845 0.929 . S
C864 C861 1.404 . S
C864 N862 1.334 . S
C865 H857 0.930 . S
C865 C860 1.418 . S
C865 C861 1.353 . S
C866 H836 0.930 . S
C866 N867 1.330 . S
C866 C868 1.446 . S
N867 Co826 2.151 . S
N867 C866 1.330 . S
N867 C871 1.418 . S
C868 H847 0.929 . S
C868 C866 1.446 . S
C868 C869 1.332 . S
C869 H849 0.931 . S
C869 C868 1.332 . S
C869 C870 1.267 . S
C870 H838 0.929 . S
C870 C869 1.267 . S
C870 C871 1.251 . S
C871 H841 0.929 . S
C871 N867 1.418 . S
C871 C870 1.251 . S
C872 H839 0.930 . S
C872 C874 1.406 . S
C872 C877 1.261 . S
C873 H840 0.930 . S
C873 N875 1.325 . S
C873 C876 1.357 . S
C874 H842 0.928 . S
C874 C872 1.406 . S
C874 N875 1.261 . S
N875 Co826 2.214 . S
N875 C873 1.325 . S
N875 C874 1.261 . S
C876 H846 0.931 . S
C876 C873 1.357 . S
C876 C877 1.312 . S
C877 H848 0.930 . S
C877 C872 1.261 . S
C877 C876 1.312 . S
C878 O850 1.214 . S
C878 O858 1.234 . S
C879 H851 0.929 . S
C879 C882 1.391 . S
C879 C884 1.391 1_554 S
C880 H852 0.929 . S
C880 C881 1.390 1_556 S
C880 N883 1.391 . S
C881 H853 0.930 . S
C881 C880 1.390 1_554 S
C881 C882 1.392 . S
C882 H854 0.929 . S
C882 C879 1.391 . S
C882 C881 1.392 . S
N883 Co827 2.257 . S
N883 C880 1.391 . S
N883 C884 1.388 . S
C884 H855 0.930 . S
C884 C879 1.391 1_556 S
C884 N883 1.388 . S
Co885 O887 2.143 . S
Co885 O893 2.074 . S
Co885 O896 2.093 . S
Co885 O909 2.097 . S
Co885 N926 2.151 . S
Co885 N934 2.214 . S
Co886 O887 2.160 . S
Co886 O892 2.058 . S
Co886 O902 2.057 . S
Co886 O917 2.037 . S
Co886 N921 2.145 . S
Co886 N942 2.257 . S
O887 Co885 2.143 . S
O887 Co886 2.160 . S
C888 O889 1.278 . S
C888 O896 1.224 . S
O889 C888 1.278 . S
C890 O891 1.245 . S
C890 O902 1.232 . S
O891 C890 1.245 . S
O892 Co886 2.058 . S
O892 C918 1.269 . S
O893 Co885 2.074 . S
O893 C918 1.257 . S
H894 C919 0.930 . S
H895 C925 0.930 . S
O896 Co885 2.093 . S
O896 C888 1.224 . S
H897 C929 0.929 . S
H898 C931 0.930 . S
H899 C932 0.930 . S
H900 C930 0.929 . S
H901 C933 0.928 . S
O902 Co886 2.057 . S
O902 C890 1.232 . S
H903 C922 0.929 . S
H904 C923 0.929 . S
H905 C935 0.931 . S
H906 C927 0.929 . S
H907 C936 0.930 . S
H908 C928 0.931 . S
O909 Co885 2.097 . S
O909 C937 1.214 . S
H910 C938 0.929 . S
H911 C939 0.929 . S
H912 C940 0.930 . S
H913 C941 0.929 . S
H914 C943 0.930 . S
H915 C920 0.930 . S
H916 C924 0.930 . S
O917 Co886 2.037 . S
O917 C937 1.234 . S
C918 O892 1.269 . S
C918 O893 1.257 . S
C919 H894 0.930 . S
C919 C922 1.388 1_565 S
C919 C924 1.418 . S
C920 H915 0.930 . S
C920 C923 1.404 . S
C920 C924 1.353 1_545 S
N921 Co886 2.145 . S
N921 C922 1.397 . S
N921 C923 1.334 . S
C922 H903 0.929 . S
C922 C919 1.388 1_545 S
C922 N921 1.397 . S
C923 H904 0.929 . S
C923 C920 1.404 . S
C923 N921 1.334 . S
C924 H916 0.930 . S
C924 C919 1.418 . S
C924 C920 1.353 1_565 S
C925 H895 0.930 . S
C925 N926 1.330 . S
C925 C927 1.446 . S
N926 Co885 2.151 . S
N926 C925 1.330 . S
N926 C930 1.418 . S
C927 H906 0.929 . S
C927 C925 1.446 . S
C927 C928 1.332 . S
C928 H908 0.931 . S
C928 C927 1.332 . S
C928 C929 1.267 . S
C929 H897 0.929 . S
C929 C928 1.267 . S
C929 C930 1.251 . S
C930 H900 0.929 . S
C930 N926 1.418 . S
C930 C929 1.251 . S
C931 H898 0.930 . S
C931 C933 1.406 . S
C931 C936 1.261 . S
C932 H899 0.930 . S
C932 N934 1.325 . S
C932 C935 1.357 . S
C933 H901 0.928 . S
C933 C931 1.406 . S
C933 N934 1.261 . S
N934 Co885 2.214 . S
N934 C932 1.325 . S
N934 C933 1.261 . S
C935 H905 0.931 . S
C935 C932 1.357 . S
C935 C936 1.312 . S
C936 H907 0.930 . S
C936 C931 1.261 . S
C936 C935 1.312 . S
C937 O909 1.214 . S
C937 O917 1.234 . S
C938 H910 0.929 . S
C938 C941 1.391 1_545 S
C938 C943 1.391 . S
C939 H911 0.929 . S
C939 C940 1.390 . S
C939 N942 1.391 1_565 S
C940 H912 0.930 . S
C940 C939 1.390 . S
C940 C941 1.392 . S
C941 H913 0.929 . S
C941 C938 1.391 1_565 S
C941 C940 1.392 . S
N942 Co886 2.257 . S
N942 C939 1.391 1_545 S
N942 C943 1.388 . S
C943 H914 0.930 . S
C943 C938 1.391 . S
C943 N942 1.388 . S
Co944 O946 2.143 . S
Co944 O952 2.074 . S
Co944 O955 2.093 . S
Co944 O968 2.097 . S
Co944 N985 2.151 . S
Co944 N993 2.214 . S
Co945 O946 2.160 . S
Co945 O951 2.058 . S
Co945 O961 2.057 . S
Co945 O976 2.037 . S
Co945 N980 2.145 1_455 S
Co945 N1001 2.257 . S
O946 Co944 2.143 . S
O946 Co945 2.160 . S
C947 O948 1.278 . S
C947 O955 1.224 . S
O948 C947 1.278 . S
C949 O950 1.245 . S
C949 O961 1.232 . S
O950 C949 1.245 . S
O951 Co945 2.058 . S
O951 C977 1.269 . S
O952 Co944 2.074 . S
O952 C977 1.257 . S
H953 C978 0.930 . S
H954 C984 0.930 . S
O955 Co944 2.093 . S
O955 C947 1.224 . S
H956 C988 0.929 . S
H957 C990 0.929 . S
H958 C991 0.930 1_556 S
H959 C989 0.929 . S
H960 C992 0.928 . S
O961 Co945 2.057 . S
O961 C949 1.232 . S
H962 C981 0.929 . S
H963 C982 0.929 . S
H964 C994 0.931 . S
H965 C986 0.929 . S
H966 C995 0.930 . S
H967 C987 0.931 . S
O968 Co944 2.097 . S
O968 C996 1.214 . S
H969 C997 0.929 . S
H970 C998 0.929 . S
H971 C999 0.930 . S
H972 C1000 0.929 . S
H973 C1002 0.930 . S
H974 C979 0.930 . S
H975 C983 0.930 . S
O976 Co945 2.037 . S
O976 C996 1.234 . S
C977 O951 1.269 . S
C977 O952 1.257 . S
C978 H953 0.930 . S
C978 C981 1.388 . S
C978 C983 1.418 . S
C979 H974 0.930 . S
C979 C982 1.404 . S
C979 C983 1.353 . S
N980 Co945 2.145 1_655 S
N980 C981 1.397 . S
N980 C982 1.334 . S
C981 H962 0.929 . S
C981 C978 1.388 . S
C981 N980 1.397 . S
C982 H963 0.929 . S
C982 C979 1.404 . S
C982 N980 1.334 . S
C983 H975 0.930 . S
C983 C978 1.418 . S
C983 C979 1.353 . S
C984 H954 0.930 . S
C984 N985 1.330 . S
C984 C986 1.446 . S
N985 Co944 2.151 . S
N985 C984 1.330 . S
N985 C989 1.418 . S
C986 H965 0.929 . S
C986 C984 1.446 . S
C986 C987 1.332 . S
C987 H967 0.931 . S
C987 C986 1.332 . S
C987 C988 1.267 . S
C988 H956 0.929 . S
C988 C987 1.267 . S
C988 C989 1.251 . S
C989 H959 0.929 . S
C989 N985 1.418 . S
C989 C988 1.251 . S
C990 H957 0.929 . S
C990 C992 1.416 . S
C990 C995 1.250 1_554 S
C991 H958 0.930 1_554 S
C991 N993 1.325 . S
C991 C994 1.357 1_554 S
C992 H960 0.928 . S
C992 C990 1.416 . S
C992 N993 1.261 . S
N993 Co944 2.214 . S
N993 C991 1.325 . S
N993 C992 1.261 . S
C994 H964 0.931 . S
C994 C991 1.357 1_556 S
C994 C995 1.312 . S
C995 H966 0.930 . S
C995 C990 1.250 1_556 S
C995 C994 1.312 . S
C996 O968 1.214 . S
C996 O976 1.234 . S
C997 H969 0.929 . S
C997 C1000 1.391 . S
C997 C1002 1.391 . S
C998 H970 0.929 . S
C998 C999 1.390 . S
C998 N1001 1.391 . S
C999 H971 0.930 . S
C999 C998 1.390 . S
C999 C1000 1.392 . S
C1000 H972 0.929 . S
C1000 C997 1.391 . S
C1000 C999 1.392 . S
N1001 Co945 2.257 . S
N1001 C998 1.391 . S
N1001 C1002 1.388 . S
C1002 H973 0.930 . S
C1002 C997 1.391 . S
C1002 N1001 1.388 . S
Co1003 O1005 2.143 . S
Co1003 O1011 2.074 . S
Co1003 O1014 2.093 . S
Co1003 O1027 2.097 . S
Co1003 N1044 2.151 . S
Co1003 N1052 2.214 . S
Co1004 O1005 2.160 . S
Co1004 O1010 2.058 . S
Co1004 O1020 2.057 . S
Co1004 O1035 2.037 . S
Co1004 N1039 2.145 . S
Co1004 N1060 2.257 . S
O1005 Co1003 2.143 . S
O1005 Co1004 2.160 . S
C1006 O1007 1.278 . S
C1006 O1014 1.224 . S
O1007 C1006 1.278 . S
C1008 O1009 1.245 . S
C1008 O1020 1.232 . S
O1009 C1008 1.245 . S
O1010 Co1004 2.058 . S
O1010 C1036 1.269 . S
O1011 Co1003 2.074 . S
O1011 C1036 1.257 . S
H1012 C1037 0.930 . S
H1013 C1043 0.930 . S
O1014 Co1003 2.093 . S
O1014 C1006 1.224 . S
H1015 C1047 0.929 . S
H1016 C1049 0.930 . S
H1017 C1050 0.930 . S
H1018 C1048 0.929 . S
H1019 C1051 0.928 . S
O1020 Co1004 2.057 . S
O1020 C1008 1.232 . S
H1021 C1040 0.929 . S
H1022 C1041 0.929 . S
H1023 C1053 0.931 . S
H1024 C1045 0.929 . S
H1025 C1054 0.930 . S
H1026 C1046 0.931 . S
O1027 Co1003 2.097 . S
O1027 C1055 1.214 . S
H1028 C1056 0.929 . S
H1029 C1057 0.929 . S
H1030 C1058 0.930 . S
H1031 C1059 0.929 . S
H1032 C1061 0.930 . S
H1033 C1038 0.930 . S
H1034 C1042 0.930 . S
O1035 Co1004 2.037 . S
O1035 C1055 1.234 . S
C1036 O1010 1.269 . S
C1036 O1011 1.257 . S
C1037 H1012 0.930 . S
C1037 C1040 1.388 . S
C1037 C1042 1.418 . S
C1038 H1033 0.930 . S
C1038 C1041 1.404 . S
C1038 C1042 1.353 . S
N1039 Co1004 2.145 . S
N1039 C1040 1.397 . S
N1039 C1041 1.334 . S
C1040 H1021 0.929 . S
C1040 C1037 1.388 . S
C1040 N1039 1.397 . S
C1041 H1022 0.929 . S
C1041 C1038 1.404 . S
C1041 N1039 1.334 . S
C1042 H1034 0.930 . S
C1042 C1037 1.418 . S
C1042 C1038 1.353 . S
C1043 H1013 0.930 . S
C1043 N1044 1.330 . S
C1043 C1045 1.446 . S
N1044 Co1003 2.151 . S
N1044 C1043 1.330 . S
N1044 C1048 1.418 . S
C1045 H1024 0.929 . S
C1045 C1043 1.446 . S
C1045 C1046 1.332 . S
C1046 H1026 0.931 . S
C1046 C1045 1.332 . S
C1046 C1047 1.267 . S
C1047 H1015 0.929 . S
C1047 C1046 1.267 . S
C1047 C1048 1.251 . S
C1048 H1018 0.929 . S
C1048 N1044 1.418 . S
C1048 C1047 1.251 . S
C1049 H1016 0.930 . S
C1049 C1051 1.406 . S
C1049 C1054 1.261 . S
C1050 H1017 0.930 . S
C1050 N1052 1.325 . S
C1050 C1053 1.357 . S
C1051 H1019 0.928 . S
C1051 C1049 1.406 . S
C1051 N1052 1.261 . S
N1052 Co1003 2.214 . S
N1052 C1050 1.325 . S
N1052 C1051 1.261 . S
C1053 H1023 0.931 . S
C1053 C1050 1.357 . S
C1053 C1054 1.312 . S
C1054 H1025 0.930 . S
C1054 C1049 1.261 . S
C1054 C1053 1.312 . S
C1055 O1027 1.214 . S
C1055 O1035 1.234 . S
C1056 H1028 0.929 . S
C1056 C1059 1.391 . S
C1056 C1061 1.391 1_655 S
C1057 H1029 0.929 . S
C1057 C1058 1.390 1_455 S
C1057 N1060 1.391 . S
C1058 H1030 0.930 . S
C1058 C1057 1.390 1_655 S
C1058 C1059 1.392 . S
C1059 H1031 0.929 . S
C1059 C1056 1.391 . S
C1059 C1058 1.392 . S
N1060 Co1004 2.257 . S
N1060 C1057 1.391 . S
N1060 C1061 1.388 . S
C1061 H1032 0.930 . S
C1061 C1056 1.391 1_455 S
C1061 N1060 1.388 . S
Co1062 O1064 2.143 . S
Co1062 O1070 2.074 . S
Co1062 O1073 2.093 . S
Co1062 O1086 2.097 . S
Co1062 N1103 2.151 . S
Co1062 N1111 2.214 . S
Co1063 O1064 2.160 . S
Co1063 O1069 2.058 . S
Co1063 O1079 2.057 . S
Co1063 O1094 2.037 . S
Co1063 N1098 2.145 . S
Co1063 N1119 2.257 . S
O1064 Co1062 2.143 . S
O1064 Co1063 2.160 . S
C1065 O1066 1.278 . S
C1065 O1073 1.224 . S
O1066 C1065 1.278 . S
C1067 O1068 1.245 . S
C1067 O1079 1.232 . S
O1068 C1067 1.245 . S
O1069 Co1063 2.058 . S
O1069 C1095 1.269 . S
O1070 Co1062 2.074 . S
O1070 C1095 1.257 . S
H1071 C1096 0.930 . S
H1072 C1102 0.930 . S
O1073 Co1062 2.093 . S
O1073 C1065 1.224 . S
H1074 C1106 0.929 . S
H1075 C1108 0.930 . S
H1076 C1109 0.930 . S
H1077 C1107 0.929 . S
H1078 C1110 0.928 . S
O1079 Co1063 2.057 . S
O1079 C1067 1.232 . S
H1080 C1099 0.929 . S
H1081 C1100 0.929 . S
H1082 C1112 0.931 . S
H1083 C1104 0.929 . S
H1084 C1113 0.930 . S
H1085 C1105 0.931 . S
O1086 Co1062 2.097 . S
O1086 C1114 1.214 . S
H1087 C1115 0.929 . S
H1088 C1116 0.929 . S
H1089 C1117 0.930 . S
H1090 C1118 0.929 . S
H1091 C1120 0.930 . S
H1092 C1097 0.930 . S
H1093 C1101 0.930 . S
O1094 Co1063 2.037 . S
O1094 C1114 1.234 . S
C1095 O1069 1.269 . S
C1095 O1070 1.257 . S
C1096 H1071 0.930 . S
C1096 C1099 1.388 . S
C1096 C1101 1.418 . S
C1097 H1092 0.930 . S
C1097 C1100 1.404 . S
C1097 C1101 1.353 . S
N1098 Co1063 2.145 . S
N1098 C1099 1.397 . S
N1098 C1100 1.334 . S
C1099 H1080 0.929 . S
C1099 C1096 1.388 . S
C1099 N1098 1.397 . S
C1100 H1081 0.929 . S
C1100 C1097 1.404 . S
C1100 N1098 1.334 . S
C1101 H1093 0.930 . S
C1101 C1096 1.418 . S
C1101 C1097 1.353 . S
C1102 H1072 0.930 . S
C1102 N1103 1.330 1_455 S
C1102 C1104 1.446 . S
N1103 Co1062 2.151 . S
N1103 C1102 1.330 1_655 S
N1103 C1107 1.418 . S
C1104 H1083 0.929 . S
C1104 C1102 1.446 . S
C1104 C1105 1.332 . S
C1105 H1085 0.931 . S
C1105 C1104 1.332 . S
C1105 C1106 1.267 . S
C1106 H1074 0.929 . S
C1106 C1105 1.267 . S
C1106 C1107 1.251 1_455 S
C1107 H1077 0.929 . S
C1107 N1103 1.418 . S
C1107 C1106 1.251 1_655 S
C1108 H1075 0.930 . S
C1108 C1110 1.406 . S
C1108 C1113 1.261 1_455 S
C1109 H1076 0.930 . S
C1109 N1111 1.325 . S
C1109 C1112 1.357 . S
C1110 H1078 0.928 . S
C1110 C1108 1.406 . S
C1110 N1111 1.261 1_455 S
N1111 Co1062 2.214 . S
N1111 C1109 1.325 . S
N1111 C1110 1.261 1_655 S
C1112 H1082 0.931 . S
C1112 C1109 1.357 . S
C1112 C1113 1.312 . S
C1113 H1084 0.930 . S
C1113 C1108 1.261 1_655 S
C1113 C1112 1.312 . S
C1114 O1086 1.214 . S
C1114 O1094 1.234 . S
C1115 H1087 0.929 . S
C1115 C1118 1.391 . S
C1115 C1120 1.391 . S
C1116 H1088 0.929 . S
C1116 C1117 1.390 . S
C1116 N1119 1.391 . S
C1117 H1089 0.930 . S
C1117 C1116 1.390 . S
C1117 C1118 1.392 . S
C1118 H1090 0.929 . S
C1118 C1115 1.391 . S
C1118 C1117 1.392 . S
N1119 Co1063 2.257 . S
N1119 C1116 1.391 . S
N1119 C1120 1.388 . S
C1120 H1091 0.930 . S
C1120 C1115 1.391 . S
C1120 N1119 1.388 . S
Co1121 O1123 2.143 . S
Co1121 O1129 2.074 . S
Co1121 O1132 2.093 . S
Co1121 O1145 2.097 . S
Co1121 N1162 2.151 . S
Co1121 N1170 2.214 . S
Co1122 O1123 2.160 . S
Co1122 O1128 2.058 . S
Co1122 O1138 2.057 . S
Co1122 O1153 2.037 . S
Co1122 N1157 2.145 . S
Co1122 N1178 2.257 . S
O1123 Co1121 2.143 . S
O1123 Co1122 2.160 . S
C1124 O1125 1.278 . S
C1124 O1132 1.224 . S
O1125 C1124 1.278 . S
C1126 O1127 1.245 . S
C1126 O1138 1.232 . S
O1127 C1126 1.245 . S
O1128 Co1122 2.058 . S
O1128 C1154 1.269 . S
O1129 Co1121 2.074 . S
O1129 C1154 1.257 . S
H1130 C1155 0.930 . S
H1131 C1161 0.930 . S
O1132 Co1121 2.093 . S
O1132 C1124 1.224 . S
H1133 C1165 0.929 . S
H1134 C1167 0.930 . S
H1135 C1168 0.930 . S
H1136 C1166 0.929 . S
H1137 C1169 0.928 . S
O1138 Co1122 2.057 . S
O1138 C1126 1.232 . S
H1139 C1158 0.929 . S
H1140 C1159 0.929 . S
H1141 C1171 0.931 . S
H1142 C1163 0.929 . S
H1143 C1172 0.930 . S
H1144 C1164 0.931 . S
O1145 Co1121 2.097 . S
O1145 C1173 1.214 . S
H1146 C1174 0.929 . S
H1147 C1175 0.929 1_655 S
H1148 C1176 0.930 . S
H1149 C1177 0.929 . S
H1150 C1179 0.930 1_655 S
H1151 C1156 0.930 . S
H1152 C1160 0.930 . S
O1153 Co1122 2.037 . S
O1153 C1173 1.234 . S
C1154 O1128 1.269 . S
C1154 O1129 1.257 . S
C1155 H1130 0.930 . S
C1155 C1158 1.388 . S
C1155 C1160 1.418 . S
C1156 H1151 0.930 . S
C1156 C1159 1.404 . S
C1156 C1160 1.353 . S
N1157 Co1122 2.145 . S
N1157 C1158 1.397 . S
N1157 C1159 1.334 . S
C1158 H1139 0.929 . S
C1158 C1155 1.388 . S
C1158 N1157 1.397 . S
C1159 H1140 0.929 . S
C1159 C1156 1.404 . S
C1159 N1157 1.334 . S
C1160 H1152 0.930 . S
C1160 C1155 1.418 . S
C1160 C1156 1.353 . S
C1161 H1131 0.930 . S
C1161 N1162 1.330 . S
C1161 C1163 1.446 . S
N1162 Co1121 2.151 . S
N1162 C1161 1.330 . S
N1162 C1166 1.418 . S
C1163 H1142 0.929 . S
C1163 C1161 1.446 . S
C1163 C1164 1.332 . S
C1164 H1144 0.931 . S
C1164 C1163 1.332 . S
C1164 C1165 1.267 . S
C1165 H1133 0.929 . S
C1165 C1164 1.267 . S
C1165 C1166 1.251 . S
C1166 H1136 0.929 . S
C1166 N1162 1.418 . S
C1166 C1165 1.251 . S
C1167 H1134 0.930 . S
C1167 C1169 1.406 . S
C1167 C1172 1.261 . S
C1168 H1135 0.930 . S
C1168 N1170 1.325 . S
C1168 C1171 1.357 . S
C1169 H1137 0.928 . S
C1169 C1167 1.406 . S
C1169 N1170 1.261 . S
N1170 Co1121 2.214 . S
N1170 C1168 1.325 . S
N1170 C1169 1.261 . S
C1171 H1141 0.931 . S
C1171 C1168 1.357 . S
C1171 C1172 1.312 . S
C1172 H1143 0.930 . S
C1172 C1167 1.261 . S
C1172 C1171 1.312 . S
C1173 O1145 1.214 . S
C1173 O1153 1.234 . S
C1174 H1146 0.929 . S
C1174 C1177 1.391 . S
C1174 C1179 1.391 . S
C1175 H1147 0.929 1_455 S
C1175 C1176 1.390 . S
C1175 N1178 1.391 1_455 S
C1176 H1148 0.930 . S
C1176 C1175 1.390 . S
C1176 C1177 1.392 . S
C1177 H1149 0.929 . S
C1177 C1174 1.391 . S
C1177 C1176 1.392 . S
N1178 Co1122 2.257 . S
N1178 C1175 1.391 1_655 S
N1178 C1179 1.388 1_655 S
C1179 H1150 0.930 1_455 S
C1179 C1174 1.391 . S
C1179 N1178 1.388 1_455 S
Co1180 O1182 2.143 . S
Co1180 O1188 2.074 . S
Co1180 O1191 2.093 . S
Co1180 O1204 2.097 . S
Co1180 N1221 2.151 . S
Co1180 N1229 2.214 . S
Co1181 O1182 2.160 . S
Co1181 O1187 2.058 . S
Co1181 O1197 2.057 . S
Co1181 O1212 2.037 . S
Co1181 N1216 2.145 . S
Co1181 N1237 2.257 . S
O1182 Co1180 2.143 . S
O1182 Co1181 2.160 . S
C1183 O1184 1.278 . S
C1183 O1191 1.224 . S
O1184 C1183 1.278 . S
C1185 O1186 1.245 . S
C1185 O1197 1.232 . S
O1186 C1185 1.245 . S
O1187 Co1181 2.058 . S
O1187 C1213 1.269 . S
O1188 Co1180 2.074 . S
O1188 C1213 1.257 . S
H1189 C1214 0.930 . S
H1190 C1220 0.930 . S
O1191 Co1180 2.093 . S
O1191 C1183 1.224 . S
H1192 C1224 0.929 . S
H1193 C1226 0.930 . S
H1194 C1227 0.930 1_455 S
H1195 C1225 0.929 . S
H1196 C1228 0.928 1_455 S
O1197 Co1181 2.057 . S
O1197 C1185 1.232 . S
H1198 C1217 0.929 . S
H1199 C1218 0.929 . S
H1200 C1230 0.931 . S
H1201 C1222 0.929 1_455 S
H1202 C1231 0.930 . S
H1203 C1223 0.931 . S
O1204 Co1180 2.097 . S
O1204 C1232 1.214 . S
H1205 C1233 0.929 . S
H1206 C1234 0.929 . S
H1207 C1235 0.930 . S
H1208 C1236 0.929 . S
H1209 C1238 0.930 . S
H1210 C1215 0.930 . S
H1211 C1219 0.930 . S
O1212 Co1181 2.037 . S
O1212 C1232 1.234 . S
C1213 O1187 1.269 . S
C1213 O1188 1.257 . S
C1214 H1189 0.930 . S
C1214 C1217 1.388 . S
C1214 C1219 1.418 . S
C1215 H1210 0.930 . S
C1215 C1218 1.404 . S
C1215 C1219 1.353 . S
N1216 Co1181 2.145 . S
N1216 C1217 1.397 . S
N1216 C1218 1.334 . S
C1217 H1198 0.929 . S
C1217 C1214 1.388 . S
C1217 N1216 1.397 . S
C1218 H1199 0.929 . S
C1218 C1215 1.404 . S
C1218 N1216 1.334 . S
C1219 H1211 0.930 . S
C1219 C1214 1.418 . S
C1219 C1215 1.353 . S
C1220 H1190 0.930 . S
C1220 N1221 1.330 . S
C1220 C1222 1.446 1_455 S
N1221 Co1180 2.151 . S
N1221 C1220 1.330 . S
N1221 C1225 1.418 1_455 S
C1222 H1201 0.929 1_655 S
C1222 C1220 1.446 1_655 S
C1222 C1223 1.332 . S
C1223 H1203 0.931 . S
C1223 C1222 1.332 . S
C1223 C1224 1.267 . S
C1224 H1192 0.929 . S
C1224 C1223 1.267 . S
C1224 C1225 1.251 . S
C1225 H1195 0.929 . S
C1225 N1221 1.418 1_655 S
C1225 C1224 1.251 . S
C1226 H1193 0.930 . S
C1226 C1228 1.406 . S
C1226 C1231 1.261 . S
C1227 H1194 0.930 1_655 S
C1227 N1229 1.325 1_655 S
C1227 C1230 1.357 . S
C1228 H1196 0.928 1_655 S
C1228 C1226 1.406 . S
C1228 N1229 1.261 1_655 S
N1229 Co1180 2.214 . S
N1229 C1227 1.325 1_455 S
N1229 C1228 1.261 1_455 S
C1230 H1200 0.931 . S
C1230 C1227 1.357 . S
C1230 C1231 1.312 . S
C1231 H1202 0.930 . S
C1231 C1226 1.261 . S
C1231 C1230 1.312 . S
C1232 O1204 1.214 . S
C1232 O1212 1.234 . S
C1233 H1205 0.929 . S
C1233 C1236 1.391 . S
C1233 C1238 1.391 . S
C1234 H1206 0.929 . S
C1234 C1235 1.390 . S
C1234 N1237 1.391 . S
C1235 H1207 0.930 . S
C1235 C1234 1.390 . S
C1235 C1236 1.392 . S
C1236 H1208 0.929 . S
C1236 C1233 1.391 . S
C1236 C1235 1.392 . S
N1237 Co1181 2.257 . S
N1237 C1234 1.391 . S
N1237 C1238 1.388 . S
C1238 H1209 0.930 . S
C1238 C1233 1.391 . S
C1238 N1237 1.388 . S
Co1239 O1241 2.143 . S
Co1239 O1247 2.074 . S
Co1239 O1250 2.093 . S
Co1239 O1263 2.097 . S
Co1239 N1280 2.151 . S
Co1239 N1288 2.214 . S
Co1240 O1241 2.160 . S
Co1240 O1246 2.058 . S
Co1240 O1256 2.057 . S
Co1240 O1271 2.037 . S
Co1240 N1275 2.145 . S
Co1240 N1296 2.257 . S
O1241 Co1239 2.143 . S
O1241 Co1240 2.160 . S
C1242 O1243 1.278 . S
C1242 O1250 1.224 . S
O1243 C1242 1.278 . S
C1244 O1245 1.245 . S
C1244 O1256 1.232 . S
O1245 C1244 1.245 . S
O1246 Co1240 2.058 . S
O1246 C1272 1.269 . S
O1247 Co1239 2.074 . S
O1247 C1272 1.257 . S
H1248 C1273 0.930 . S
H1249 C1279 0.930 . S
O1250 Co1239 2.093 . S
O1250 C1242 1.224 . S
H1251 C1283 0.929 . S
H1252 C1285 0.930 . S
H1253 C1286 0.930 . S
H1254 C1284 0.929 . S
H1255 C1287 0.928 . S
O1256 Co1240 2.057 . S
O1256 C1244 1.232 . S
H1257 C1276 0.929 . S
H1258 C1277 0.929 . S
H1259 C1289 0.931 . S
H1260 C1281 0.929 . S
H1261 C1290 0.930 . S
H1262 C1282 0.931 . S
O1263 Co1239 2.097 . S
O1263 C1291 1.214 . S
H1264 C1292 0.929 . S
H1265 C1293 0.929 . S
H1266 C1294 0.930 . S
H1267 C1295 0.929 . S
H1268 C1297 0.930 . S
H1269 C1274 0.930 . S
H1270 C1278 0.930 . S
O1271 Co1240 2.037 . S
O1271 C1291 1.234 . S
C1272 O1246 1.269 . S
C1272 O1247 1.257 . S
C1273 H1248 0.930 . S
C1273 C1276 1.388 . S
C1273 C1278 1.418 . S
C1274 H1269 0.930 . S
C1274 C1277 1.404 . S
C1274 C1278 1.353 . S
N1275 Co1240 2.145 . S
N1275 C1276 1.397 . S
N1275 C1277 1.334 . S
C1276 H1257 0.929 . S
C1276 C1273 1.388 . S
C1276 N1275 1.397 . S
C1277 H1258 0.929 . S
C1277 C1274 1.404 . S
C1277 N1275 1.334 . S
C1278 H1270 0.930 . S
C1278 C1273 1.418 . S
C1278 C1274 1.353 . S
C1279 H1249 0.930 . S
C1279 N1280 1.330 . S
C1279 C1281 1.446 . S
N1280 Co1239 2.151 . S
N1280 C1279 1.330 . S
N1280 C1284 1.418 . S
C1281 H1260 0.929 . S
C1281 C1279 1.446 . S
C1281 C1282 1.332 . S
C1282 H1262 0.931 . S
C1282 C1281 1.332 . S
C1282 C1283 1.267 . S
C1283 H1251 0.929 . S
C1283 C1282 1.267 . S
C1283 C1284 1.251 . S
C1284 H1254 0.929 . S
C1284 N1280 1.418 . S
C1284 C1283 1.251 . S
C1285 H1252 0.930 . S
C1285 C1287 1.406 . S
C1285 C1290 1.261 . S
C1286 H1253 0.930 . S
C1286 N1288 1.325 . S
C1286 C1289 1.357 . S
C1287 H1255 0.928 . S
C1287 C1285 1.406 . S
C1287 N1288 1.261 . S
N1288 Co1239 2.214 . S
N1288 C1286 1.325 . S
N1288 C1287 1.261 . S
C1289 H1259 0.931 . S
C1289 C1286 1.357 . S
C1289 C1290 1.312 . S
C1290 H1261 0.930 . S
C1290 C1285 1.261 . S
C1290 C1289 1.312 . S
C1291 O1263 1.214 . S
C1291 O1271 1.234 . S
C1292 H1264 0.929 . S
C1292 C1295 1.391 . S
C1292 C1297 1.391 1_455 S
C1293 H1265 0.929 . S
C1293 C1294 1.390 1_655 S
C1293 N1296 1.391 . S
C1294 H1266 0.930 . S
C1294 C1293 1.390 1_455 S
C1294 C1295 1.392 . S
C1295 H1267 0.929 . S
C1295 C1292 1.391 . S
C1295 C1294 1.392 . S
N1296 Co1240 2.257 . S
N1296 C1293 1.391 . S
N1296 C1297 1.388 . S
C1297 H1268 0.930 . S
C1297 C1292 1.391 1_655 S
C1297 N1296 1.388 . S
Co1298 O1300 2.143 . S
Co1298 O1306 2.074 . S
Co1298 O1309 2.093 . S
Co1298 O1322 2.097 . S
Co1298 N1339 2.151 . S
Co1298 N1347 2.214 . S
Co1299 O1300 2.160 . S
Co1299 O1305 2.058 . S
Co1299 O1315 2.057 . S
Co1299 O1330 2.037 . S
Co1299 N1334 2.145 . S
Co1299 N1355 2.257 . S
O1300 Co1298 2.143 . S
O1300 Co1299 2.160 . S
C1301 O1302 1.278 . S
C1301 O1309 1.224 . S
O1302 C1301 1.278 . S
C1303 O1304 1.245 . S
C1303 O1315 1.232 . S
O1304 C1303 1.245 . S
O1305 Co1299 2.058 . S
O1305 C1331 1.269 . S
O1306 Co1298 2.074 . S
O1306 C1331 1.257 . S
H1307 C1332 0.930 . S
H1308 C1338 0.930 . S
O1309 Co1298 2.093 . S
O1309 C1301 1.224 . S
H1310 C1342 0.929 . S
H1311 C1344 0.930 . S
H1312 C1345 0.930 . S
H1313 C1343 0.929 1_455 S
H1314 C1346 0.928 . S
O1315 Co1299 2.057 . S
O1315 C1303 1.232 . S
H1316 C1335 0.929 . S
H1317 C1336 0.929 . S
H1318 C1348 0.931 . S
H1319 C1340 0.929 . S
H1320 C1349 0.930 1_455 S
H1321 C1341 0.931 1_455 S
O1322 Co1298 2.097 . S
O1322 C1350 1.214 . S
H1323 C1351 0.929 . S
H1324 C1352 0.929 . S
H1325 C1353 0.930 . S
H1326 C1354 0.929 . S
H1327 C1356 0.930 . S
H1328 C1333 0.930 . S
H1329 C1337 0.930 . S
O1330 Co1299 2.037 . S
O1330 C1350 1.234 . S
C1331 O1305 1.269 . S
C1331 O1306 1.257 . S
C1332 H1307 0.930 . S
C1332 C1335 1.388 . S
C1332 C1337 1.418 . S
C1333 H1328 0.930 . S
C1333 C1336 1.404 . S
C1333 C1337 1.353 . S
N1334 Co1299 2.145 . S
N1334 C1335 1.397 . S
N1334 C1336 1.334 . S
C1335 H1316 0.929 . S
C1335 C1332 1.388 . S
C1335 N1334 1.397 . S
C1336 H1317 0.929 . S
C1336 C1333 1.404 . S
C1336 N1334 1.334 . S
C1337 H1329 0.930 . S
C1337 C1332 1.418 . S
C1337 C1333 1.353 . S
C1338 H1308 0.930 . S
C1338 N1339 1.330 . S
C1338 C1340 1.446 . S
N1339 Co1298 2.151 . S
N1339 C1338 1.330 . S
N1339 C1343 1.418 . S
C1340 H1319 0.929 . S
C1340 C1338 1.446 . S
C1340 C1341 1.332 . S
C1341 H1321 0.931 1_655 S
C1341 C1340 1.332 . S
C1341 C1342 1.267 1_655 S
C1342 H1310 0.929 . S
C1342 C1341 1.267 1_455 S
C1342 C1343 1.251 1_455 S
C1343 H1313 0.929 1_655 S
C1343 N1339 1.418 . S
C1343 C1342 1.251 1_655 S
C1344 H1311 0.930 . S
C1344 C1346 1.406 . S
C1344 C1349 1.261 . S
C1345 H1312 0.930 . S
C1345 N1347 1.325 . S
C1345 C1348 1.357 . S
C1346 H1314 0.928 . S
C1346 C1344 1.406 . S
C1346 N1347 1.261 . S
N1347 Co1298 2.214 . S
N1347 C1345 1.325 . S
N1347 C1346 1.261 . S
C1348 H1318 0.931 . S
C1348 C1345 1.357 . S
C1348 C1349 1.312 . S
C1349 H1320 0.930 1_655 S
C1349 C1344 1.261 . S
C1349 C1348 1.312 . S
C1350 O1322 1.214 . S
C1350 O1330 1.234 . S
C1351 H1323 0.929 . S
C1351 C1354 1.391 . S
C1351 C1356 1.391 . S
C1352 H1324 0.929 . S
C1352 C1353 1.390 . S
C1352 N1355 1.391 . S
C1353 H1325 0.930 . S
C1353 C1352 1.390 . S
C1353 C1354 1.392 . S
C1354 H1326 0.929 . S
C1354 C1351 1.391 . S
C1354 C1353 1.392 . S
N1355 Co1299 2.257 . S
N1355 C1352 1.391 . S
N1355 C1356 1.388 . S
C1356 H1327 0.930 . S
C1356 C1351 1.391 . S
C1356 N1355 1.388 . S
Co1357 O1359 2.143 . S
Co1357 O1365 2.074 . S
Co1357 O1368 2.093 . S
Co1357 O1381 2.097 . S
Co1357 N1398 2.151 . S
Co1357 N1406 2.214 . S
Co1358 O1359 2.160 . S
Co1358 O1364 2.058 . S
Co1358 O1374 2.057 . S
Co1358 O1389 2.037 . S
Co1358 N1393 2.145 . S
Co1358 N1414 2.257 . S
O1359 Co1357 2.143 . S
O1359 Co1358 2.160 . S
C1360 O1361 1.278 . S
C1360 O1368 1.224 . S
O1361 C1360 1.278 . S
C1362 O1363 1.245 . S
C1362 O1374 1.232 . S
O1363 C1362 1.245 . S
O1364 Co1358 2.058 . S
O1364 C1390 1.269 . S
O1365 Co1357 2.074 . S
O1365 C1390 1.257 . S
H1366 C1391 0.930 . S
H1367 C1397 0.930 . S
O1368 Co1357 2.093 . S
O1368 C1360 1.224 . S
H1369 C1401 0.929 . S
H1370 C1403 0.930 . S
H1371 C1404 0.930 . S
H1372 C1402 0.929 . S
H1373 C1405 0.928 . S
O1374 Co1358 2.057 . S
O1374 C1362 1.232 . S
H1375 C1394 0.929 . S
H1376 C1395 0.929 . S
H1377 C1407 0.931 . S
H1378 C1399 0.932 . S
H1379 C1408 0.930 . S
H1380 C1400 0.931 . S
O1381 Co1357 2.097 . S
O1381 C1409 1.214 . S
H1382 C1410 0.929 . S
H1383 C1411 0.929 . S
H1384 C1412 0.930 . S
H1385 C1413 0.929 . S
H1386 C1415 0.930 . S
H1387 C1392 0.930 . S
H1388 C1396 0.930 . S
O1389 Co1358 2.037 . S
O1389 C1409 1.234 . S
C1390 O1364 1.269 . S
C1390 O1365 1.257 . S
C1391 H1366 0.930 . S
C1391 C1394 1.388 . S
C1391 C1396 1.418 . S
C1392 H1387 0.930 . S
C1392 C1395 1.404 . S
C1392 C1396 1.353 . S
N1393 Co1358 2.145 . S
N1393 C1394 1.397 . S
N1393 C1395 1.334 . S
C1394 H1375 0.929 . S
C1394 C1391 1.388 . S
C1394 N1393 1.397 . S
C1395 H1376 0.929 . S
C1395 C1392 1.404 . S
C1395 N1393 1.334 . S
C1396 H1388 0.930 . S
C1396 C1391 1.418 . S
C1396 C1392 1.353 . S
C1397 H1367 0.930 . S
C1397 N1398 1.330 . S
C1397 C1399 1.446 . S
N1398 Co1357 2.151 . S
N1398 C1397 1.330 . S
N1398 C1402 1.418 . S
C1399 H1378 0.932 . S
C1399 C1397 1.446 . S
C1399 C1400 1.332 . S
C1400 H1380 0.931 . S
C1400 C1399 1.332 . S
C1400 C1401 1.267 . S
C1401 H1369 0.929 . S
C1401 C1400 1.267 . S
C1401 C1402 1.251 . S
C1402 H1372 0.929 . S
C1402 N1398 1.418 . S
C1402 C1401 1.251 . S
C1403 H1370 0.930 . S
C1403 C1405 1.406 . S
C1403 C1408 1.261 . S
C1404 H1371 0.930 . S
C1404 N1406 1.325 . S
C1404 C1407 1.357 . S
C1405 H1373 0.928 . S
C1405 C1403 1.406 . S
C1405 N1406 1.261 . S
N1406 Co1357 2.214 . S
N1406 C1404 1.325 . S
N1406 C1405 1.261 . S
C1407 H1377 0.931 . S
C1407 C1404 1.357 . S
C1407 C1408 1.312 . S
C1408 H1379 0.930 . S
C1408 C1403 1.261 . S
C1408 C1407 1.312 . S
C1409 O1381 1.214 . S
C1409 O1389 1.234 . S
C1410 H1382 0.929 . S
C1410 C1413 1.391 . S
C1410 C1415 1.391 . S
C1411 H1383 0.929 . S
C1411 C1412 1.390 . S
C1411 N1414 1.391 . S
C1412 H1384 0.930 . S
C1412 C1411 1.390 . S
C1412 C1413 1.392 . S
C1413 H1385 0.929 . S
C1413 C1410 1.391 . S
C1413 C1412 1.392 . S
N1414 Co1358 2.257 . S
N1414 C1411 1.391 . S
N1414 C1415 1.388 . S
C1415 H1386 0.930 . S
C1415 C1410 1.391 . S
C1415 N1414 1.388 . S
Co1416 O1418 2.143 . S
Co1416 O1424 2.074 . S
Co1416 O1427 2.093 . S
Co1416 O1440 2.097 . S
Co1416 N1457 2.151 . S
Co1416 N1465 2.214 . S
Co1417 O1418 2.160 . S
Co1417 O1423 2.058 . S
Co1417 O1433 2.057 . S
Co1417 O1448 2.037 . S
Co1417 N1452 2.145 . S
Co1417 N1473 2.257 . S
O1418 Co1416 2.143 . S
O1418 Co1417 2.160 . S
C1419 O1420 1.278 . S
C1419 O1427 1.224 . S
O1420 C1419 1.278 . S
C1421 O1422 1.245 . S
C1421 O1433 1.232 . S
O1422 C1421 1.245 . S
O1423 Co1417 2.058 . S
O1423 C1449 1.269 . S
O1424 Co1416 2.074 . S
O1424 C1449 1.257 . S
H1425 C1450 0.930 . S
H1426 C1456 0.930 . S
O1427 Co1416 2.093 . S
O1427 C1419 1.224 . S
H1428 C1460 0.929 . S
H1429 C1462 0.930 . S
H1430 C1463 0.930 . S
H1431 C1461 0.929 . S
H1432 C1464 0.928 . S
O1433 Co1417 2.057 . S
O1433 C1421 1.232 . S
H1434 C1453 0.929 . S
H1435 C1454 0.929 . S
H1436 C1466 0.931 . S
H1437 C1458 0.929 . S
H1438 C1467 0.930 . S
H1439 C1459 0.931 . S
O1440 Co1416 2.097 . S
O1440 C1468 1.214 . S
H1441 C1469 0.929 . S
H1442 C1470 0.929 . S
H1443 C1471 0.930 . S
H1444 C1472 0.929 . S
H1445 C1474 0.930 . S
H1446 C1451 0.930 . S
H1447 C1455 0.930 . S
O1448 Co1417 2.037 . S
O1448 C1468 1.234 . S
C1449 O1423 1.269 . S
C1449 O1424 1.257 . S
C1450 H1425 0.930 . S
C1450 C1453 1.388 1_455 S
C1450 C1455 1.418 . S
C1451 H1446 0.930 . S
C1451 C1454 1.404 . S
C1451 C1455 1.354 1_655 S
N1452 Co1417 2.145 . S
N1452 C1453 1.397 . S
N1452 C1454 1.334 . S
C1453 H1434 0.929 . S
C1453 C1450 1.388 1_655 S
C1453 N1452 1.397 . S
C1454 H1435 0.929 . S
C1454 C1451 1.404 . S
C1454 N1452 1.334 . S
C1455 H1447 0.930 . S
C1455 C1450 1.418 . S
C1455 C1451 1.354 1_455 S
C1456 H1426 0.930 . S
C1456 N1457 1.330 . S
C1456 C1458 1.446 1_565 S
N1457 Co1416 2.151 . S
N1457 C1456 1.330 . S
N1457 C1461 1.418 . S
C1458 H1437 0.929 . S
C1458 C1456 1.446 1_545 S
C1458 C1459 1.332 . S
C1459 H1439 0.931 . S
C1459 C1458 1.332 . S
C1459 C1460 1.267 . S
C1460 H1428 0.929 . S
C1460 C1459 1.267 . S
C1460 C1461 1.251 1_545 S
C1461 H1431 0.929 . S
C1461 N1457 1.418 . S
C1461 C1460 1.251 1_565 S
C1462 H1429 0.930 . S
C1462 C1464 1.406 . S
C1462 C1467 1.261 . S
C1463 H1430 0.930 . S
C1463 N1465 1.325 . S
C1463 C1466 1.357 . S
C1464 H1432 0.928 . S
C1464 C1462 1.406 . S
C1464 N1465 1.261 . S
N1465 Co1416 2.214 . S
N1465 C1463 1.325 . S
N1465 C1464 1.261 . S
C1466 H1436 0.931 . S
C1466 C1463 1.357 . S
C1466 C1467 1.312 . S
C1467 H1438 0.930 . S
C1467 C1462 1.261 . S
C1467 C1466 1.312 . S
C1468 O1440 1.214 . S
C1468 O1448 1.234 . S
C1469 H1441 0.929 . S
C1469 C1472 1.391 . S
C1469 C1474 1.391 . S
C1470 H1442 0.929 . S
C1470 C1471 1.390 . S
C1470 N1473 1.391 . S
C1471 H1443 0.930 . S
C1471 C1470 1.390 . S
C1471 C1472 1.392 . S
C1472 H1444 0.929 . S
C1472 C1469 1.391 . S
C1472 C1471 1.392 . S
N1473 Co1417 2.257 . S
N1473 C1470 1.391 . S
N1473 C1474 1.388 . S
C1474 H1445 0.930 . S
C1474 C1469 1.391 . S
C1474 N1473 1.388 . S
Co1475 O1477 2.143 . S
Co1475 O1483 2.074 . S
Co1475 O1486 2.093 . S
Co1475 O1499 2.097 . S
Co1475 N1516 2.151 . S
Co1475 N1524 2.214 . S
Co1476 O1477 2.160 . S
Co1476 O1482 2.058 . S
Co1476 O1492 2.057 . S
Co1476 O1507 2.037 . S
Co1476 N1511 2.145 . S
Co1476 N1532 2.257 . S
O1477 Co1475 2.143 . S
O1477 Co1476 2.160 . S
C1478 O1479 1.278 . S
C1478 O1486 1.224 . S
O1479 C1478 1.278 . S
C1480 O1481 1.245 . S
C1480 O1492 1.232 . S
O1481 C1480 1.245 . S
O1482 Co1476 2.058 . S
O1482 C1508 1.269 . S
O1483 Co1475 2.074 . S
O1483 C1508 1.257 . S
H1484 C1509 0.930 . S
H1485 C1515 0.930 . S
O1486 Co1475 2.093 . S
O1486 C1478 1.224 . S
H1487 C1519 0.929 . S
H1488 C1521 0.930 . S
H1489 C1522 0.930 . S
H1490 C1520 0.929 1_556 S
H1491 C1523 0.928 . S
O1492 Co1476 2.057 . S
O1492 C1480 1.232 . S
H1493 C1512 0.929 . S
H1494 C1513 0.929 . S
H1495 C1525 0.936 . S
H1496 C1517 0.929 . S
H1497 C1526 0.930 1_556 S
H1498 C1518 0.931 1_556 S
O1499 Co1475 2.097 . S
O1499 C1527 1.214 . S
H1500 C1528 0.929 . S
H1501 C1529 0.929 . S
H1502 C1530 0.930 . S
H1503 C1531 0.929 . S
H1504 C1533 0.930 . S
H1505 C1510 0.930 . S
H1506 C1514 0.930 . S
O1507 Co1476 2.037 . S
O1507 C1527 1.234 . S
C1508 O1482 1.269 . S
C1508 O1483 1.257 . S
C1509 H1484 0.930 . S
C1509 C1512 1.388 . S
C1509 C1514 1.418 . S
C1510 H1505 0.930 . S
C1510 C1513 1.404 . S
C1510 C1514 1.353 . S
N1511 Co1476 2.145 . S
N1511 C1512 1.397 . S
N1511 C1513 1.334 . S
C1512 H1493 0.929 . S
C1512 C1509 1.388 . S
C1512 N1511 1.397 . S
C1513 H1494 0.929 . S
C1513 C1510 1.404 . S
C1513 N1511 1.334 . S
C1514 H1506 0.930 . S
C1514 C1509 1.418 . S
C1514 C1510 1.353 . S
C1515 H1485 0.930 . S
C1515 N1516 1.330 . S
C1515 C1517 1.446 . S
N1516 Co1475 2.151 . S
N1516 C1515 1.330 . S
N1516 C1520 1.418 . S
C1517 H1496 0.929 . S
C1517 C1515 1.446 . S
C1517 C1518 1.332 . S
C1518 H1498 0.931 1_554 S
C1518 C1517 1.332 . S
C1518 C1519 1.267 1_554 S
C1519 H1487 0.929 . S
C1519 C1518 1.267 1_556 S
C1519 C1520 1.251 1_556 S
C1520 H1490 0.929 1_554 S
C1520 N1516 1.418 . S
C1520 C1519 1.251 1_554 S
C1521 H1488 0.930 . S
C1521 C1523 1.406 . S
C1521 C1526 1.261 . S
C1522 H1489 0.930 . S
C1522 N1524 1.325 . S
C1522 C1525 1.357 . S
C1523 H1491 0.928 . S
C1523 C1521 1.406 . S
C1523 N1524 1.261 . S
N1524 Co1475 2.214 . S
N1524 C1522 1.325 . S
N1524 C1523 1.261 . S
C1525 H1495 0.936 . S
C1525 C1522 1.357 . S
C1525 C1526 1.312 . S
C1526 H1497 0.930 1_554 S
C1526 C1521 1.261 . S
C1526 C1525 1.312 . S
C1527 O1499 1.214 . S
C1527 O1507 1.234 . S
C1528 H1500 0.929 . S
C1528 C1531 1.391 . S
C1528 C1533 1.391 . S
C1529 H1501 0.929 . S
C1529 C1530 1.390 . S
C1529 N1532 1.391 . S
C1530 H1502 0.930 . S
C1530 C1529 1.390 . S
C1530 C1531 1.392 . S
C1531 H1503 0.929 . S
C1531 C1528 1.391 . S
C1531 C1530 1.392 . S
N1532 Co1476 2.257 . S
N1532 C1529 1.391 . S
N1532 C1533 1.388 . S
C1533 H1504 0.930 . S
C1533 C1528 1.391 . S
C1533 N1532 1.388 . S
Co1534 O1536 2.143 . S
Co1534 O1542 2.074 . S
Co1534 O1545 2.093 . S
Co1534 O1558 2.097 . S
Co1534 N1575 2.151 . S
Co1534 N1583 2.214 . S
Co1535 O1536 2.160 . S
Co1535 O1541 2.058 . S
Co1535 O1551 2.057 . S
Co1535 O1566 2.037 . S
Co1535 N1570 2.145 . S
Co1535 N1591 2.257 . S
O1536 Co1534 2.143 . S
O1536 Co1535 2.160 . S
C1537 O1538 1.278 . S
C1537 O1545 1.224 . S
O1538 C1537 1.278 . S
C1539 O1540 1.245 . S
C1539 O1551 1.232 . S
O1540 C1539 1.245 . S
O1541 Co1535 2.058 . S
O1541 C1567 1.269 . S
O1542 Co1534 2.074 . S
O1542 C1567 1.257 . S
H1543 C1568 0.930 . S
H1544 C1574 0.930 . S
O1545 Co1534 2.093 . S
O1545 C1537 1.224 . S
H1546 C1578 0.929 . S
H1547 C1580 0.930 . S
H1548 C1581 0.930 . S
H1549 C1579 0.929 . S
H1550 C1582 0.928 . S
O1551 Co1535 2.057 . S
O1551 C1539 1.232 . S
H1552 C1571 0.929 . S
H1553 C1572 0.929 . S
H1554 C1584 0.931 . S
H1555 C1576 0.929 . S
H1556 C1585 0.930 . S
H1557 C1577 0.931 . S
O1558 Co1534 2.097 . S
O1558 C1586 1.214 . S
H1559 C1587 0.929 . S
H1560 C1588 0.929 . S
H1561 C1589 0.930 . S
H1562 C1590 0.929 . S
H1563 C1592 0.930 . S
H1564 C1569 0.930 . S
H1565 C1573 0.930 . S
O1566 Co1535 2.037 . S
O1566 C1586 1.234 . S
C1567 O1541 1.269 . S
C1567 O1542 1.257 . S
C1568 H1543 0.930 . S
C1568 C1571 1.388 1_655 S
C1568 C1573 1.418 . S
C1569 H1564 0.930 . S
C1569 C1572 1.404 . S
C1569 C1573 1.353 1_455 S
N1570 Co1535 2.145 . S
N1570 C1571 1.397 . S
N1570 C1572 1.334 . S
C1571 H1552 0.929 . S
C1571 C1568 1.388 1_455 S
C1571 N1570 1.397 . S
C1572 H1553 0.929 . S
C1572 C1569 1.404 . S
C1572 N1570 1.334 . S
C1573 H1565 0.930 . S
C1573 C1568 1.418 . S
C1573 C1569 1.353 1_655 S
C1574 H1544 0.930 . S
C1574 N1575 1.330 . S
C1574 C1576 1.446 1_545 S
N1575 Co1534 2.151 . S
N1575 C1574 1.330 . S
N1575 C1579 1.418 . S
C1576 H1555 0.929 . S
C1576 C1574 1.446 1_565 S
C1576 C1577 1.332 . S
C1577 H1557 0.931 . S
C1577 C1576 1.332 . S
C1577 C1578 1.267 . S
C1578 H1546 0.929 . S
C1578 C1577 1.267 . S
C1578 C1579 1.251 1_565 S
C1579 H1549 0.929 . S
C1579 N1575 1.418 . S
C1579 C1578 1.251 1_545 S
C1580 H1547 0.930 . S
C1580 C1582 1.406 . S
C1580 C1585 1.261 . S
C1581 H1548 0.930 . S
C1581 N1583 1.325 . S
C1581 C1584 1.357 . S
C1582 H1550 0.928 . S
C1582 C1580 1.406 . S
C1582 N1583 1.261 . S
N1583 Co1534 2.214 . S
N1583 C1581 1.325 . S
N1583 C1582 1.261 . S
C1584 H1554 0.931 . S
C1584 C1581 1.357 . S
C1584 C1585 1.312 . S
C1585 H1556 0.930 . S
C1585 C1580 1.261 . S
C1585 C1584 1.312 . S
C1586 O1558 1.214 . S
C1586 O1566 1.234 . S
C1587 H1559 0.929 . S
C1587 C1590 1.391 . S
C1587 C1592 1.391 . S
C1588 H1560 0.929 . S
C1588 C1589 1.390 . S
C1588 N1591 1.391 . S
C1589 H1561 0.930 . S
C1589 C1588 1.390 . S
C1589 C1590 1.392 . S
C1590 H1562 0.929 . S
C1590 C1587 1.391 . S
C1590 C1589 1.392 . S
N1591 Co1535 2.257 . S
N1591 C1588 1.391 . S
N1591 C1592 1.388 . S
C1592 H1563 0.930 . S
C1592 C1587 1.391 . S
C1592 N1591 1.388 . S
Co1593 O1595 2.143 . S
Co1593 O1601 2.074 . S
Co1593 O1604 2.093 . S
Co1593 O1617 2.097 . S
Co1593 N1634 2.151 . S
Co1593 N1642 2.214 . S
Co1594 O1595 2.160 . S
Co1594 O1600 2.058 . S
Co1594 O1610 2.057 . S
Co1594 O1625 2.037 . S
Co1594 N1629 2.145 . S
Co1594 N1650 2.257 . S
O1595 Co1593 2.143 . S
O1595 Co1594 2.160 . S
C1596 O1597 1.278 . S
C1596 O1604 1.224 . S
O1597 C1596 1.278 . S
C1598 O1599 1.245 . S
C1598 O1610 1.232 . S
O1599 C1598 1.245 . S
O1600 Co1594 2.058 . S
O1600 C1626 1.269 . S
O1601 Co1593 2.074 . S
O1601 C1626 1.257 . S
H1602 C1627 0.930 . S
H1603 C1633 0.930 . S
O1604 Co1593 2.093 . S
O1604 C1596 1.224 . S
H1605 C1637 0.929 . S
H1606 C1639 0.930 . S
H1607 C1640 0.930 . S
H1608 C1638 0.929 . S
H1609 C1641 0.928 . S
O1610 Co1594 2.057 . S
O1610 C1598 1.232 . S
H1611 C1630 0.929 . S
H1612 C1631 0.929 . S
H1613 C1643 0.931 . S
H1614 C1635 0.929 . S
H1615 C1644 0.930 . S
H1616 C1636 0.931 . S
O1617 Co1593 2.097 . S
O1617 C1645 1.214 . S
H1618 C1646 0.929 . S
H1619 C1647 0.929 . S
H1620 C1648 0.930 . S
H1621 C1649 0.929 . S
H1622 C1651 0.930 . S
H1623 C1628 0.930 . S
H1624 C1632 0.930 . S
O1625 Co1594 2.037 . S
O1625 C1645 1.234 . S
C1626 O1600 1.269 . S
C1626 O1601 1.257 . S
C1627 H1602 0.930 . S
C1627 C1630 1.388 . S
C1627 C1632 1.418 . S
C1628 H1623 0.930 . S
C1628 C1631 1.404 . S
C1628 C1632 1.353 . S
N1629 Co1594 2.145 . S
N1629 C1630 1.397 . S
N1629 C1631 1.334 . S
C1630 H1611 0.929 . S
C1630 C1627 1.388 . S
C1630 N1629 1.397 . S
C1631 H1612 0.929 . S
C1631 C1628 1.404 . S
C1631 N1629 1.334 . S
C1632 H1624 0.930 . S
C1632 C1627 1.418 . S
C1632 C1628 1.353 . S
C1633 H1603 0.930 . S
C1633 N1634 1.330 . S
C1633 C1635 1.446 . S
N1634 Co1593 2.151 . S
N1634 C1633 1.330 . S
N1634 C1638 1.418 1_554 S
C1635 H1614 0.929 . S
C1635 C1633 1.446 . S
C1635 C1636 1.332 1_554 S
C1636 H1616 0.931 . S
C1636 C1635 1.332 1_556 S
C1636 C1637 1.267 . S
C1637 H1605 0.929 . S
C1637 C1636 1.267 . S
C1637 C1638 1.251 . S
C1638 H1608 0.929 . S
C1638 N1634 1.418 1_556 S
C1638 C1637 1.251 . S
C1639 H1606 0.930 . S
C1639 C1641 1.406 1_556 S
C1639 C1644 1.261 . S
C1640 H1607 0.930 . S
C1640 N1642 1.325 . S
C1640 C1643 1.357 1_554 S
C1641 H1609 0.928 . S
C1641 C1639 1.406 1_554 S
C1641 N1642 1.261 . S
N1642 Co1593 2.214 . S
N1642 C1640 1.325 . S
N1642 C1641 1.261 . S
C1643 H1613 0.931 . S
C1643 C1640 1.357 1_556 S
C1643 C1644 1.312 . S
C1644 H1615 0.930 . S
C1644 C1639 1.261 . S
C1644 C1643 1.312 . S
C1645 O1617 1.214 . S
C1645 O1625 1.234 . S
C1646 H1618 0.929 . S
C1646 C1649 1.391 . S
C1646 C1651 1.391 . S
C1647 H1619 0.929 . S
C1647 C1648 1.390 . S
C1647 N1650 1.391 . S
C1648 H1620 0.930 . S
C1648 C1647 1.390 . S
C1648 C1649 1.392 . S
C1649 H1621 0.929 . S
C1649 C1646 1.391 . S
C1649 C1648 1.392 . S
N1650 Co1594 2.257 . S
N1650 C1647 1.391 . S
N1650 C1651 1.388 . S
C1651 H1622 0.930 . S
C1651 C1646 1.391 . S
C1651 N1650 1.388 . S
Co1652 O1654 2.143 . S
Co1652 O1660 2.074 . S
Co1652 O1663 2.093 . S
Co1652 O1676 2.097 . S
Co1652 N1693 2.151 . S
Co1652 N1701 2.214 1_545 S
Co1653 O1654 2.160 . S
Co1653 O1659 2.058 . S
Co1653 O1669 2.057 . S
Co1653 O1684 2.037 . S
Co1653 N1688 2.145 . S
Co1653 N1709 2.257 . S
O1654 Co1652 2.143 . S
O1654 Co1653 2.160 . S
C1655 O1656 1.278 . S
C1655 O1663 1.224 . S
O1656 C1655 1.278 . S
C1657 O1658 1.245 . S
C1657 O1669 1.232 . S
O1658 C1657 1.245 . S
O1659 Co1653 2.058 . S
O1659 C1685 1.269 . S
O1660 Co1652 2.074 . S
O1660 C1685 1.257 . S
H1661 C1686 0.930 . S
H1662 C1692 0.930 . S
O1663 Co1652 2.093 . S
O1663 C1655 1.224 . S
H1664 C1696 0.929 1_565 S
H1665 C1698 0.930 . S
H1666 C1699 0.930 . S
H1667 C1697 0.929 . S
H1668 C1700 0.928 . S
O1669 Co1653 2.057 . S
O1669 C1657 1.232 . S
H1670 C1689 0.929 . S
H1671 C1690 0.929 . S
H1672 C1702 0.931 . S
H1673 C1694 0.929 . S
H1674 C1703 0.930 . S
H1675 C1695 0.931 . S
O1676 Co1652 2.097 . S
O1676 C1704 1.214 . S
H1677 C1705 0.929 . S
H1678 C1706 0.929 . S
H1679 C1707 0.930 . S
H1680 C1708 0.929 . S
H1681 C1710 0.930 . S
H1682 C1687 0.930 . S
H1683 C1691 0.930 . S
O1684 Co1653 2.037 . S
O1684 C1704 1.234 . S
C1685 O1659 1.269 . S
C1685 O1660 1.257 . S
C1686 H1661 0.930 . S
C1686 C1689 1.388 . S
C1686 C1691 1.418 . S
C1687 H1682 0.930 . S
C1687 C1690 1.404 . S
C1687 C1691 1.353 . S
N1688 Co1653 2.145 . S
N1688 C1689 1.397 . S
N1688 C1690 1.334 . S
C1689 H1670 0.929 . S
C1689 C1686 1.388 . S
C1689 N1688 1.397 . S
C1690 H1671 0.929 . S
C1690 C1687 1.404 . S
C1690 N1688 1.334 . S
C1691 H1683 0.930 . S
C1691 C1686 1.418 . S
C1691 C1687 1.353 . S
C1692 H1662 0.930 . S
C1692 N1693 1.330 . S
C1692 C1694 1.446 . S
N1693 Co1652 2.151 . S
N1693 C1692 1.330 . S
N1693 C1697 1.418 . S
C1694 H1673 0.929 . S
C1694 C1692 1.446 . S
C1694 C1695 1.332 . S
C1695 H1675 0.931 . S
C1695 C1694 1.332 . S
C1695 C1696 1.267 . S
C1696 H1664 0.929 1_545 S
C1696 C1695 1.267 . S
C1696 C1697 1.251 . S
C1697 H1667 0.929 . S
C1697 N1693 1.418 . S
C1697 C1696 1.251 . S
C1698 H1665 0.930 . S
C1698 C1700 1.406 . S
C1698 C1703 1.261 . S
C1699 H1666 0.930 . S
C1699 N1701 1.325 . S
C1699 C1702 1.357 . S
C1700 H1668 0.928 . S
C1700 C1698 1.406 . S
C1700 N1701 1.261 . S
N1701 Co1652 2.214 1_565 S
N1701 C1699 1.325 . S
N1701 C1700 1.261 . S
C1702 H1672 0.931 . S
C1702 C1699 1.357 . S
C1702 C1703 1.312 . S
C1703 H1674 0.930 . S
C1703 C1698 1.261 . S
C1703 C1702 1.312 . S
C1704 O1676 1.214 . S
C1704 O1684 1.234 . S
C1705 H1677 0.929 . S
C1705 C1708 1.391 . S
C1705 C1710 1.391 . S
C1706 H1678 0.929 . S
C1706 C1707 1.390 . S
C1706 N1709 1.391 . S
C1707 H1679 0.930 . S
C1707 C1706 1.390 . S
C1707 C1708 1.392 . S
C1708 H1680 0.929 . S
C1708 C1705 1.391 . S
C1708 C1707 1.392 . S
N1709 Co1653 2.257 . S
N1709 C1706 1.391 . S
N1709 C1710 1.388 . S
C1710 H1681 0.930 . S
C1710 C1705 1.391 . S
C1710 N1709 1.388 . S
Co1711 O1713 2.143 . S
Co1711 O1719 2.074 . S
Co1711 O1722 2.093 . S
Co1711 O1735 2.097 . S
Co1711 N1752 2.151 . S
Co1711 N1760 2.214 . S
Co1712 O1713 2.160 . S
Co1712 O1718 2.058 . S
Co1712 O1728 2.057 . S
Co1712 O1743 2.037 . S
Co1712 N1747 2.145 . S
Co1712 N1768 2.257 . S
O1713 Co1711 2.143 . S
O1713 Co1712 2.160 . S
C1714 O1715 1.278 . S
C1714 O1722 1.224 . S
O1715 C1714 1.278 . S
C1716 O1717 1.245 . S
C1716 O1728 1.232 . S
O1717 C1716 1.245 . S
O1718 Co1712 2.058 . S
O1718 C1744 1.269 . S
O1719 Co1711 2.074 . S
O1719 C1744 1.257 . S
H1720 C1745 0.930 . S
H1721 C1751 0.930 . S
O1722 Co1711 2.093 . S
O1722 C1714 1.224 . S
H1723 C1755 0.929 . S
H1724 C1757 0.930 1_554 S
H1725 C1758 0.930 . S
H1726 C1756 0.929 . S
H1727 C1759 0.911 1_554 S
O1728 Co1712 2.057 . S
O1728 C1716 1.232 . S
H1729 C1748 0.929 . S
H1730 C1749 0.929 . S
H1731 C1761 0.931 . S
H1732 C1753 0.929 1_554 S
H1733 C1762 0.930 . S
H1734 C1754 0.931 1_554 S
O1735 Co1711 2.097 . S
O1735 C1763 1.214 . S
H1736 C1764 0.929 . S
H1737 C1765 0.929 . S
H1738 C1766 0.930 . S
H1739 C1767 0.929 . S
H1740 C1769 0.930 . S
H1741 C1746 0.930 . S
H1742 C1750 0.930 . S
O1743 Co1712 2.037 . S
O1743 C1763 1.234 . S
C1744 O1718 1.269 . S
C1744 O1719 1.257 . S
C1745 H1720 0.930 . S
C1745 C1748 1.388 . S
C1745 C1750 1.418 . S
C1746 H1741 0.930 . S
C1746 C1749 1.404 . S
C1746 C1750 1.353 . S
N1747 Co1712 2.145 . S
N1747 C1748 1.397 . S
N1747 C1749 1.334 . S
C1748 H1729 0.929 . S
C1748 C1745 1.388 . S
C1748 N1747 1.397 . S
C1749 H1730 0.929 . S
C1749 C1746 1.404 . S
C1749 N1747 1.334 . S
C1750 H1742 0.930 . S
C1750 C1745 1.418 . S
C1750 C1746 1.353 . S
C1751 H1721 0.930 . S
C1751 N1752 1.330 . S
C1751 C1753 1.446 . S
N1752 Co1711 2.151 . S
N1752 C1751 1.330 . S
N1752 C1756 1.418 . S
C1753 H1732 0.929 1_556 S
C1753 C1751 1.446 . S
C1753 C1754 1.332 . S
C1754 H1734 0.931 1_556 S
C1754 C1753 1.332 . S
C1754 C1755 1.267 . S
C1755 H1723 0.929 . S
C1755 C1754 1.267 . S
C1755 C1756 1.251 . S
C1756 H1726 0.929 . S
C1756 N1752 1.418 . S
C1756 C1755 1.251 . S
C1757 H1724 0.930 1_556 S
C1757 C1759 1.406 . S
C1757 C1762 1.261 . S
C1758 H1725 0.930 . S
C1758 N1760 1.325 . S
C1758 C1761 1.357 . S
C1759 H1727 0.911 1_556 S
C1759 C1757 1.406 . S
C1759 N1760 1.261 . S
N1760 Co1711 2.214 . S
N1760 C1758 1.325 . S
N1760 C1759 1.261 . S
C1761 H1731 0.931 . S
C1761 C1758 1.357 . S
C1761 C1762 1.312 . S
C1762 H1733 0.930 . S
C1762 C1757 1.261 . S
C1762 C1761 1.312 . S
C1763 O1735 1.214 . S
C1763 O1743 1.234 . S
C1764 H1736 0.929 . S
C1764 C1767 1.391 . S
C1764 C1769 1.391 . S
C1765 H1737 0.929 . S
C1765 C1766 1.390 . S
C1765 N1768 1.391 . S
C1766 H1738 0.930 . S
C1766 C1765 1.390 . S
C1766 C1767 1.392 . S
C1767 H1739 0.929 . S
C1767 C1764 1.391 . S
C1767 C1766 1.392 . S
N1768 Co1712 2.257 . S
N1768 C1765 1.391 . S
N1768 C1769 1.388 . S
C1769 H1740 0.930 . S
C1769 C1764 1.391 . S
C1769 N1768 1.388 . S
Co1770 O1772 2.143 . S
Co1770 O1778 2.074 . S
Co1770 O1781 2.093 . S
Co1770 O1794 2.097 . S
Co1770 N1811 2.151 . S
Co1770 N1819 2.214 1_565 S
Co1771 O1772 2.160 . S
Co1771 O1777 2.058 . S
Co1771 O1787 2.057 . S
Co1771 O1802 2.037 . S
Co1771 N1806 2.145 . S
Co1771 N1827 2.257 . S
O1772 Co1770 2.143 . S
O1772 Co1771 2.160 . S
C1773 O1774 1.278 . S
C1773 O1781 1.224 . S
O1774 C1773 1.278 . S
C1775 O1776 1.245 . S
C1775 O1787 1.232 . S
O1776 C1775 1.245 . S
O1777 Co1771 2.058 . S
O1777 C1803 1.269 . S
O1778 Co1770 2.074 . S
O1778 C1803 1.257 . S
H1779 C1804 0.930 . S
H1780 C1810 0.930 . S
O1781 Co1770 2.093 . S
O1781 C1773 1.224 . S
H1782 C1814 0.929 . S
H1783 C1816 0.930 . S
H1784 C1817 0.930 . S
H1785 C1815 0.929 1_545 S
H1786 C1818 0.928 . S
O1787 Co1771 2.057 . S
O1787 C1775 1.232 . S
H1788 C1807 0.929 . S
H1789 C1808 0.929 . S
H1790 C1820 0.931 . S
H1791 C1812 0.929 . S
H1792 C1821 0.930 . S
H1793 C1813 0.931 . S
O1794 Co1770 2.097 . S
O1794 C1822 1.214 . S
H1795 C1823 0.929 . S
H1796 C1824 0.929 . S
H1797 C1825 0.930 . S
H1798 C1826 0.929 . S
H1799 C1828 0.930 . S
H1800 C1805 0.930 . S
H1801 C1809 0.930 . S
O1802 Co1771 2.037 . S
O1802 C1822 1.234 . S
C1803 O1777 1.269 . S
C1803 O1778 1.257 . S
C1804 H1779 0.930 . S
C1804 C1807 1.388 . S
C1804 C1809 1.418 . S
C1805 H1800 0.930 . S
C1805 C1808 1.404 . S
C1805 C1809 1.353 . S
N1806 Co1771 2.145 . S
N1806 C1807 1.397 . S
N1806 C1808 1.334 . S
C1807 H1788 0.929 . S
C1807 C1804 1.388 . S
C1807 N1806 1.397 . S
C1808 H1789 0.929 . S
C1808 C1805 1.404 . S
C1808 N1806 1.334 . S
C1809 H1801 0.930 . S
C1809 C1804 1.418 . S
C1809 C1805 1.353 . S
C1810 H1780 0.930 . S
C1810 N1811 1.330 . S
C1810 C1812 1.446 . S
N1811 Co1770 2.151 . S
N1811 C1810 1.330 . S
N1811 C1815 1.418 . S
C1812 H1791 0.929 . S
C1812 C1810 1.446 . S
C1812 C1813 1.332 . S
C1813 H1793 0.931 . S
C1813 C1812 1.332 . S
C1813 C1814 1.267 1_565 S
C1814 H1782 0.929 . S
C1814 C1813 1.267 1_545 S
C1814 C1815 1.251 1_545 S
C1815 H1785 0.929 1_565 S
C1815 N1811 1.418 . S
C1815 C1814 1.251 1_565 S
C1816 H1783 0.930 . S
C1816 C1818 1.406 . S
C1816 C1821 1.261 . S
C1817 H1784 0.930 . S
C1817 N1819 1.325 . S
C1817 C1820 1.357 . S
C1818 H1786 0.928 . S
C1818 C1816 1.406 . S
C1818 N1819 1.261 . S
N1819 Co1770 2.214 1_545 S
N1819 C1817 1.325 . S
N1819 C1818 1.261 . S
C1820 H1790 0.931 . S
C1820 C1817 1.357 . S
C1820 C1821 1.312 . S
C1821 H1792 0.930 . S
C1821 C1816 1.261 . S
C1821 C1820 1.312 . S
C1822 O1794 1.214 . S
C1822 O1802 1.234 . S
C1823 H1795 0.929 . S
C1823 C1826 1.391 . S
C1823 C1828 1.391 . S
C1824 H1796 0.929 . S
C1824 C1825 1.390 . S
C1824 N1827 1.391 . S
C1825 H1797 0.930 . S
C1825 C1824 1.390 . S
C1825 C1826 1.392 . S
C1826 H1798 0.929 . S
C1826 C1823 1.391 . S
C1826 C1825 1.392 . S
N1827 Co1771 2.257 . S
N1827 C1824 1.391 . S
N1827 C1828 1.388 . S
C1828 H1799 0.930 . S
C1828 C1823 1.391 . S
C1828 N1827 1.388 . S
Co1829 O1831 2.143 . S
Co1829 O1837 2.074 . S
Co1829 O1840 2.093 . S
Co1829 O1853 2.097 . S
Co1829 N1870 2.151 . S
Co1829 N1878 2.214 . S
Co1830 O1831 2.160 . S
Co1830 O1836 2.058 . S
Co1830 O1846 2.057 . S
Co1830 O1861 2.037 . S
Co1830 N1865 2.145 . S
Co1830 N1886 2.257 . S
O1831 Co1829 2.143 . S
O1831 Co1830 2.160 . S
C1832 O1833 1.278 . S
C1832 O1840 1.224 . S
O1833 C1832 1.278 . S
C1834 O1835 1.245 . S
C1834 O1846 1.232 . S
O1835 C1834 1.245 . S
O1836 Co1830 2.058 . S
O1836 C1862 1.269 . S
O1837 Co1829 2.074 . S
O1837 C1862 1.257 . S
H1838 C1863 0.930 . S
H1839 C1869 0.930 . S
O1840 Co1829 2.093 . S
O1840 C1832 1.224 . S
H1841 C1873 0.929 . S
H1842 C1875 0.930 . S
H1843 C1876 0.930 . S
H1844 C1874 0.929 . S
H1845 C1877 0.928 . S
O1846 Co1830 2.057 . S
O1846 C1834 1.232 . S
H1847 C1866 0.929 . S
H1848 C1867 0.929 . S
H1849 C1879 0.931 . S
H1850 C1871 0.929 . S
H1851 C1880 0.930 . S
H1852 C1872 0.931 . S
O1853 Co1829 2.097 . S
O1853 C1881 1.214 . S
H1854 C1882 0.929 . S
H1855 C1883 0.929 . S
H1856 C1884 0.930 . S
H1857 C1885 0.929 . S
H1858 C1887 0.930 . S
H1859 C1864 0.930 . S
H1860 C1868 0.930 . S
O1861 Co1830 2.037 . S
O1861 C1881 1.234 . S
C1862 O1836 1.269 . S
C1862 O1837 1.257 . S
C1863 H1838 0.930 . S
C1863 C1866 1.388 . S
C1863 C1868 1.418 . S
C1864 H1859 0.930 . S
C1864 C1867 1.404 . S
C1864 C1868 1.353 . S
N1865 Co1830 2.145 . S
N1865 C1866 1.397 . S
N1865 C1867 1.334 . S
C1866 H1847 0.929 . S
C1866 C1863 1.388 . S
C1866 N1865 1.397 . S
C1867 H1848 0.929 . S
C1867 C1864 1.404 . S
C1867 N1865 1.334 . S
C1868 H1860 0.930 . S
C1868 C1863 1.418 . S
C1868 C1864 1.353 . S
C1869 H1839 0.930 . S
C1869 N1870 1.325 1_554 S
C1869 C1871 1.451 . S
N1870 Co1829 2.151 . S
N1870 C1869 1.325 1_556 S
N1870 C1874 1.418 . S
C1871 H1850 0.929 . S
C1871 C1869 1.451 . S
C1871 C1872 1.332 . S
C1872 H1852 0.931 . S
C1872 C1871 1.332 . S
C1872 C1873 1.267 . S
C1873 H1841 0.929 . S
C1873 C1872 1.267 . S
C1873 C1874 1.251 1_554 S
C1874 H1844 0.929 . S
C1874 N1870 1.418 . S
C1874 C1873 1.251 1_556 S
C1875 H1842 0.930 . S
C1875 C1877 1.406 . S
C1875 C1880 1.261 . S
C1876 H1843 0.930 . S
C1876 N1878 1.325 . S
C1876 C1879 1.357 . S
C1877 H1845 0.928 . S
C1877 C1875 1.406 . S
C1877 N1878 1.261 1_554 S
N1878 Co1829 2.214 . S
N1878 C1876 1.325 . S
N1878 C1877 1.261 1_556 S
C1879 H1849 0.931 . S
C1879 C1876 1.357 . S
C1879 C1880 1.312 1_556 S
C1880 H1851 0.930 . S
C1880 C1875 1.261 . S
C1880 C1879 1.312 1_554 S
C1881 O1853 1.214 . S
C1881 O1861 1.234 . S
C1882 H1854 0.929 . S
C1882 C1885 1.391 . S
C1882 C1887 1.391 . S
C1883 H1855 0.929 . S
C1883 C1884 1.390 . S
C1883 N1886 1.391 . S
C1884 H1856 0.930 . S
C1884 C1883 1.390 . S
C1884 C1885 1.392 . S
C1885 H1857 0.929 . S
C1885 C1882 1.391 . S
C1885 C1884 1.392 . S
N1886 Co1830 2.257 . S
N1886 C1883 1.391 . S
N1886 C1887 1.388 . S
C1887 H1858 0.930 . S
C1887 C1882 1.391 . S
C1887 N1886 1.388 . S
Co1888 O1890 2.143 . S
Co1888 O1896 2.074 . S
Co1888 O1899 2.093 . S
Co1888 O1912 2.097 . S
Co1888 N1929 2.151 . S
Co1888 N1937 2.214 . S
Co1889 O1890 2.160 . S
Co1889 O1895 2.058 . S
Co1889 O1905 2.057 . S
Co1889 O1920 2.037 . S
Co1889 N1924 2.145 . S
Co1889 N1945 2.257 . S
O1890 Co1888 2.143 . S
O1890 Co1889 2.160 . S
C1891 O1892 1.278 . S
C1891 O1899 1.224 . S
O1892 C1891 1.278 . S
C1893 O1894 1.245 . S
C1893 O1905 1.232 . S
O1894 C1893 1.245 . S
O1895 Co1889 2.058 . S
O1895 C1921 1.269 . S
O1896 Co1888 2.074 . S
O1896 C1921 1.257 . S
H1897 C1922 0.930 . S
H1898 C1928 0.930 . S
O1899 Co1888 2.093 . S
O1899 C1891 1.224 . S
H1900 C1932 0.929 . S
H1901 C1934 0.930 . S
H1902 C1935 0.930 . S
H1903 C1933 0.929 . S
H1904 C1936 0.928 . S
O1905 Co1889 2.057 . S
O1905 C1893 1.232 . S
H1906 C1925 0.929 . S
H1907 C1926 0.929 . S
H1908 C1938 0.931 . S
H1909 C1930 0.929 . S
H1910 C1939 0.930 . S
H1911 C1931 0.931 . S
O1912 Co1888 2.097 . S
O1912 C1940 1.214 . S
H1913 C1941 0.929 . S
H1914 C1942 0.929 . S
H1915 C1943 0.930 . S
H1916 C1944 0.929 . S
H1917 C1946 0.930 . S
H1918 C1923 0.930 . S
H1919 C1927 0.930 . S
O1920 Co1889 2.037 . S
O1920 C1940 1.234 . S
C1921 O1895 1.269 . S
C1921 O1896 1.257 . S
C1922 H1897 0.930 . S
C1922 C1925 1.388 . S
C1922 C1927 1.418 . S
C1923 H1918 0.930 . S
C1923 C1926 1.404 . S
C1923 C1927 1.353 . S
N1924 Co1889 2.145 . S
N1924 C1925 1.397 . S
N1924 C1926 1.334 . S
C1925 H1906 0.929 . S
C1925 C1922 1.388 . S
C1925 N1924 1.397 . S
C1926 H1907 0.929 . S
C1926 C1923 1.404 . S
C1926 N1924 1.334 . S
C1927 H1919 0.930 . S
C1927 C1922 1.418 . S
C1927 C1923 1.353 . S
C1928 H1898 0.930 . S
C1928 N1929 1.330 . S
C1928 C1930 1.446 . S
N1929 Co1888 2.151 . S
N1929 C1928 1.330 . S
N1929 C1933 1.418 . S
C1930 H1909 0.929 . S
C1930 C1928 1.446 . S
C1930 C1931 1.332 . S
C1931 H1911 0.931 . S
C1931 C1930 1.332 . S
C1931 C1932 1.267 . S
C1932 H1900 0.929 . S
C1932 C1931 1.267 . S
C1932 C1933 1.251 . S
C1933 H1903 0.929 . S
C1933 N1929 1.418 . S
C1933 C1932 1.251 . S
C1934 H1901 0.930 . S
C1934 C1936 1.406 . S
C1934 C1939 1.261 1_565 S
C1935 H1902 0.930 . S
C1935 N1937 1.325 . S
C1935 C1938 1.357 1_565 S
C1936 H1904 0.928 . S
C1936 C1934 1.406 . S
C1936 N1937 1.261 . S
N1937 Co1888 2.214 . S
N1937 C1935 1.325 . S
N1937 C1936 1.261 . S
C1938 H1908 0.931 . S
C1938 C1935 1.357 1_545 S
C1938 C1939 1.312 . S
C1939 H1910 0.930 . S
C1939 C1934 1.261 1_545 S
C1939 C1938 1.312 . S
C1940 O1912 1.214 . S
C1940 O1920 1.234 . S
C1941 H1913 0.929 . S
C1941 C1944 1.391 . S
C1941 C1946 1.391 1_554 S
C1942 H1914 0.929 . S
C1942 C1943 1.390 1_556 S
C1942 N1945 1.391 . S
C1943 H1915 0.930 . S
C1943 C1942 1.390 1_554 S
C1943 C1944 1.392 . S
C1944 H1916 0.929 . S
C1944 C1941 1.391 . S
C1944 C1943 1.392 . S
N1945 Co1889 2.257 . S
N1945 C1942 1.391 . S
N1945 C1946 1.388 . S
C1946 H1917 0.930 . S
C1946 C1941 1.391 1_556 S
C1946 N1945 1.388 . S
Co1947 O1949 2.143 . S
Co1947 O1955 2.074 . S
Co1947 O1958 2.093 . S
Co1947 O1971 2.097 . S
Co1947 N1988 2.151 . S
Co1947 N1996 2.214 . S
Co1948 O1949 2.160 . S
Co1948 O1954 2.058 . S
Co1948 O1964 2.057 . S
Co1948 O1979 2.037 . S
Co1948 N1983 2.145 . S
Co1948 N2004 2.257 . S
O1949 Co1947 2.143 . S
O1949 Co1948 2.160 . S
C1950 O1951 1.278 . S
C1950 O1958 1.224 . S
O1951 C1950 1.278 . S
C1952 O1953 1.245 . S
C1952 O1964 1.232 . S
O1953 C1952 1.245 . S
O1954 Co1948 2.058 . S
O1954 C1980 1.269 . S
O1955 Co1947 2.074 . S
O1955 C1980 1.257 . S
H1956 C1981 0.930 . S
H1957 C1987 0.930 . S
O1958 Co1947 2.093 . S
O1958 C1950 1.224 . S
H1959 C1991 0.929 . S
H1960 C1993 0.930 . S
H1961 C1994 0.930 . S
H1962 C1992 0.929 . S
H1963 C1995 0.928 . S
O1964 Co1948 2.057 . S
O1964 C1952 1.232 . S
H1965 C1984 0.929 . S
H1966 C1985 0.929 . S
H1967 C1997 0.931 . S
H1968 C1989 0.929 . S
H1969 C1998 0.930 . S
H1970 C1990 0.931 . S
O1971 Co1947 2.097 . S
O1971 C1999 1.214 . S
H1972 C2000 0.929 . S
H1973 C2001 0.929 . S
H1974 C2002 0.930 . S
H1975 C2003 0.929 . S
H1976 C2005 0.930 . S
H1977 C1982 0.930 . S
H1978 C1986 0.930 . S
O1979 Co1948 2.037 . S
O1979 C1999 1.234 . S
C1980 O1954 1.269 . S
C1980 O1955 1.257 . S
C1981 H1956 0.930 . S
C1981 C1984 1.388 1_565 S
C1981 C1986 1.418 . S
C1982 H1977 0.930 . S
C1982 C1985 1.404 . S
C1982 C1986 1.353 1_545 S
N1983 Co1948 2.145 . S
N1983 C1984 1.397 . S
N1983 C1985 1.334 . S
C1984 H1965 0.929 . S
C1984 C1981 1.388 1_545 S
C1984 N1983 1.397 . S
C1985 H1966 0.929 . S
C1985 C1982 1.404 . S
C1985 N1983 1.334 . S
C1986 H1978 0.930 . S
C1986 C1981 1.418 . S
C1986 C1982 1.353 1_565 S
C1987 H1957 0.930 . S
C1987 N1988 1.330 . S
C1987 C1989 1.446 . S
N1988 Co1947 2.151 . S
N1988 C1987 1.330 . S
N1988 C1992 1.418 . S
C1989 H1968 0.929 . S
C1989 C1987 1.446 . S
C1989 C1990 1.332 . S
C1990 H1970 0.931 . S
C1990 C1989 1.332 . S
C1990 C1991 1.267 . S
C1991 H1959 0.929 . S
C1991 C1990 1.267 . S
C1991 C1992 1.251 . S
C1992 H1962 0.929 . S
C1992 N1988 1.418 . S
C1992 C1991 1.251 . S
C1993 H1960 0.930 . S
C1993 C1995 1.406 . S
C1993 C1998 1.261 . S
C1994 H1961 0.930 . S
C1994 N1996 1.325 . S
C1994 C1997 1.357 . S
C1995 H1963 0.928 . S
C1995 C1993 1.406 . S
C1995 N1996 1.261 . S
N1996 Co1947 2.214 . S
N1996 C1994 1.325 . S
N1996 C1995 1.261 . S
C1997 H1967 0.931 . S
C1997 C1994 1.357 . S
C1997 C1998 1.312 . S
C1998 H1969 0.930 . S
C1998 C1993 1.261 . S
C1998 C1997 1.312 . S
C1999 O1971 1.214 . S
C1999 O1979 1.234 . S
C2000 H1972 0.929 . S
C2000 C2003 1.391 1_545 S
C2000 C2005 1.391 . S
C2001 H1973 0.929 . S
C2001 C2002 1.390 . S
C2001 N2004 1.391 1_565 S
C2002 H1974 0.930 . S
C2002 C2001 1.390 . S
C2002 C2003 1.392 . S
C2003 H1975 0.929 . S
C2003 C2000 1.391 1_565 S
C2003 C2002 1.392 . S
N2004 Co1948 2.257 . S
N2004 C2001 1.391 1_545 S
N2004 C2005 1.388 . S
C2005 H1976 0.930 . S
C2005 C2000 1.391 . S
C2005 N2004 1.388 . S
Co2006 O2008 2.143 . S
Co2006 O2014 2.074 . S
Co2006 O2017 2.093 . S
Co2006 O2030 2.097 . S
Co2006 N2047 2.151 . S
Co2006 N2055 2.214 . S
Co2007 O2008 2.160 . S
Co2007 O2013 2.058 . S
Co2007 O2023 2.057 . S
Co2007 O2038 2.037 . S
Co2007 N2042 2.145 . S
Co2007 N2063 2.257 . S
O2008 Co2006 2.143 . S
O2008 Co2007 2.160 . S
C2009 O2010 1.278 . S
C2009 O2017 1.224 . S
O2010 C2009 1.278 . S
C2011 O2012 1.245 . S
C2011 O2023 1.232 . S
O2012 C2011 1.245 . S
O2013 Co2007 2.058 . S
O2013 C2039 1.269 . S
O2014 Co2006 2.074 . S
O2014 C2039 1.257 . S
H2015 C2040 0.930 . S
H2016 C2046 0.930 . S
O2017 Co2006 2.093 . S
O2017 C2009 1.224 . S
H2018 C2050 0.929 . S
H2019 C2052 0.930 . S
H2020 C2053 0.930 . S
H2021 C2051 0.929 . S
H2022 C2054 0.928 . S
O2023 Co2007 2.057 . S
O2023 C2011 1.232 . S
H2024 C2043 0.929 . S
H2025 C2044 0.929 . S
H2026 C2056 0.931 . S
H2027 C2048 0.929 . S
H2028 C2057 0.930 . S
H2029 C2049 0.931 . S
O2030 Co2006 2.097 . S
O2030 C2058 1.214 . S
H2031 C2059 0.929 . S
H2032 C2060 0.929 . S
H2033 C2061 0.930 . S
H2034 C2062 0.929 . S
H2035 C2064 0.930 . S
H2036 C2041 0.930 . S
H2037 C2045 0.930 . S
O2038 Co2007 2.037 . S
O2038 C2058 1.234 . S
C2039 O2013 1.269 . S
C2039 O2014 1.257 . S
C2040 H2015 0.930 . S
C2040 C2043 1.388 . S
C2040 C2045 1.418 . S
C2041 H2036 0.930 . S
C2041 C2044 1.404 . S
C2041 C2045 1.353 . S
N2042 Co2007 2.145 . S
N2042 C2043 1.397 . S
N2042 C2044 1.334 . S
C2043 H2024 0.929 . S
C2043 C2040 1.388 . S
C2043 N2042 1.397 . S
C2044 H2025 0.929 . S
C2044 C2041 1.404 . S
C2044 N2042 1.334 . S
C2045 H2037 0.930 . S
C2045 C2040 1.418 . S
C2045 C2041 1.353 . S
C2046 H2016 0.930 . S
C2046 N2047 1.330 . S
C2046 C2048 1.446 . S
N2047 Co2006 2.151 . S
N2047 C2046 1.330 . S
N2047 C2051 1.418 . S
C2048 H2027 0.929 . S
C2048 C2046 1.446 . S
C2048 C2049 1.332 . S
C2049 H2029 0.931 . S
C2049 C2048 1.332 . S
C2049 C2050 1.267 . S
C2050 H2018 0.929 . S
C2050 C2049 1.267 . S
C2050 C2051 1.251 . S
C2051 H2021 0.929 . S
C2051 N2047 1.418 . S
C2051 C2050 1.251 . S
C2052 H2019 0.930 . S
C2052 C2054 1.406 . S
C2052 C2057 1.261 1_545 S
C2053 H2020 0.930 . S
C2053 N2055 1.325 . S
C2053 C2056 1.357 1_545 S
C2054 H2022 0.928 . S
C2054 C2052 1.406 . S
C2054 N2055 1.261 . S
N2055 Co2006 2.214 . S
N2055 C2053 1.325 . S
N2055 C2054 1.261 . S
C2056 H2026 0.931 . S
C2056 C2053 1.357 1_565 S
C2056 C2057 1.312 . S
C2057 H2028 0.930 . S
C2057 C2052 1.261 1_565 S
C2057 C2056 1.312 . S
C2058 O2030 1.214 . S
C2058 O2038 1.234 . S
C2059 H2031 0.929 . S
C2059 C2062 1.391 . S
C2059 C2064 1.391 1_554 S
C2060 H2032 0.929 . S
C2060 C2061 1.390 1_556 S
C2060 N2063 1.391 . S
C2061 H2033 0.930 . S
C2061 C2060 1.390 1_554 S
C2061 C2062 1.392 . S
C2062 H2034 0.929 . S
C2062 C2059 1.391 . S
C2062 C2061 1.392 . S
N2063 Co2007 2.257 . S
N2063 C2060 1.391 . S
N2063 C2064 1.388 . S
C2064 H2035 0.930 . S
C2064 C2059 1.391 1_556 S
C2064 N2063 1.388 . S
Co2065 O2067 2.143 . S
Co2065 O2073 2.074 . S
Co2065 O2076 2.093 . S
Co2065 O2089 2.097 . S
Co2065 N2106 2.151 . S
Co2065 N2114 2.214 . S
Co2066 O2067 2.160 . S
Co2066 O2072 2.058 . S
Co2066 O2082 2.057 . S
Co2066 O2097 2.037 . S
Co2066 N2101 2.145 . S
Co2066 N2122 2.257 . S
O2067 Co2065 2.143 . S
O2067 Co2066 2.160 . S
C2068 O2069 1.278 . S
C2068 O2076 1.224 . S
O2069 C2068 1.278 . S
C2070 O2071 1.245 . S
C2070 O2082 1.232 . S
O2071 C2070 1.245 . S
O2072 Co2066 2.058 . S
O2072 C2098 1.269 . S
O2073 Co2065 2.074 . S
O2073 C2098 1.257 . S
H2074 C2099 0.930 . S
H2075 C2105 0.930 . S
O2076 Co2065 2.093 . S
O2076 C2068 1.224 . S
H2077 C2109 0.929 . S
H2078 C2111 0.930 . S
H2079 C2112 0.930 . S
H2080 C2110 0.929 . S
H2081 C2113 0.928 . S
O2082 Co2066 2.057 . S
O2082 C2070 1.232 . S
H2083 C2102 0.929 . S
H2084 C2103 0.929 . S
H2085 C2115 0.931 . S
H2086 C2107 0.929 . S
H2087 C2116 0.930 . S
H2088 C2108 0.931 . S
O2089 Co2065 2.097 . S
O2089 C2117 1.214 . S
H2090 C2118 0.929 . S
H2091 C2119 0.929 . S
H2092 C2120 0.930 . S
H2093 C2121 0.929 . S
H2094 C2123 0.930 . S
H2095 C2100 0.930 . S
H2096 C2104 0.930 . S
O2097 Co2066 2.037 . S
O2097 C2117 1.234 . S
C2098 O2072 1.269 . S
C2098 O2073 1.257 . S
C2099 H2074 0.930 . S
C2099 C2102 1.388 1_545 S
C2099 C2104 1.418 . S
C2100 H2095 0.930 . S
C2100 C2103 1.404 . S
C2100 C2104 1.353 1_565 S
N2101 Co2066 2.145 . S
N2101 C2102 1.397 . S
N2101 C2103 1.334 . S
C2102 H2083 0.929 . S
C2102 C2099 1.388 1_565 S
C2102 N2101 1.397 . S
C2103 H2084 0.929 . S
C2103 C2100 1.404 . S
C2103 N2101 1.334 . S
C2104 H2096 0.930 . S
C2104 C2099 1.418 . S
C2104 C2100 1.353 1_545 S
C2105 H2075 0.930 . S
C2105 N2106 1.330 . S
C2105 C2107 1.446 . S
N2106 Co2065 2.151 . S
N2106 C2105 1.330 . S
N2106 C2110 1.418 . S
C2107 H2086 0.929 . S
C2107 C2105 1.446 . S
C2107 C2108 1.332 . S
C2108 H2088 0.931 . S
C2108 C2107 1.332 . S
C2108 C2109 1.267 . S
C2109 H2077 0.929 . S
C2109 C2108 1.267 . S
C2109 C2110 1.251 . S
C2110 H2080 0.929 . S
C2110 N2106 1.418 . S
C2110 C2109 1.251 . S
C2111 H2078 0.930 . S
C2111 C2113 1.406 . S
C2111 C2116 1.261 . S
C2112 H2079 0.930 . S
C2112 N2114 1.325 . S
C2112 C2115 1.357 . S
C2113 H2081 0.928 . S
C2113 C2111 1.406 . S
C2113 N2114 1.261 . S
N2114 Co2065 2.214 . S
N2114 C2112 1.325 . S
N2114 C2113 1.261 . S
C2115 H2085 0.931 . S
C2115 C2112 1.357 . S
C2115 C2116 1.312 . S
C2116 H2087 0.930 . S
C2116 C2111 1.261 . S
C2116 C2115 1.312 . S
C2117 O2089 1.214 . S
C2117 O2097 1.234 . S
C2118 H2090 0.929 . S
C2118 C2121 1.391 1_565 S
C2118 C2123 1.391 . S
C2119 H2091 0.929 . S
C2119 C2120 1.390 . S
C2119 N2122 1.391 1_545 S
C2120 H2092 0.930 . S
C2120 C2119 1.390 . S
C2120 C2121 1.392 . S
C2121 H2093 0.929 . S
C2121 C2118 1.391 1_545 S
C2121 C2120 1.392 . S
N2122 Co2066 2.257 . S
N2122 C2119 1.391 1_565 S
N2122 C2123 1.388 . S
C2123 H2094 0.930 . S
C2123 C2118 1.391 . S
C2123 N2122 1.388 . S
Co2124 O2126 2.143 . S
Co2124 O2132 2.074 . S
Co2124 O2135 2.093 . S
Co2124 O2148 2.097 . S
Co2124 N2165 2.151 . S
Co2124 N2173 2.214 . S
Co2125 O2126 2.160 . S
Co2125 O2131 2.058 . S
Co2125 O2141 2.057 . S
Co2125 O2156 2.037 . S
Co2125 N2160 2.145 1_554 S
Co2125 N2181 2.257 . S
O2126 Co2124 2.143 . S
O2126 Co2125 2.160 . S
C2127 O2128 1.278 . S
C2127 O2135 1.224 . S
O2128 C2127 1.278 . S
C2129 O2130 1.245 . S
C2129 O2141 1.232 . S
O2130 C2129 1.245 . S
O2131 Co2125 2.058 . S
O2131 C2157 1.269 . S
O2132 Co2124 2.074 . S
O2132 C2157 1.257 . S
H2133 C2158 0.930 . S
H2134 C2164 0.930 . S
O2135 Co2124 2.093 . S
O2135 C2127 1.224 . S
H2136 C2168 0.929 . S
H2137 C2170 0.930 . S
H2138 C2171 0.930 . S
H2139 C2169 0.929 . S
H2140 C2172 0.928 . S
O2141 Co2125 2.057 . S
O2141 C2129 1.232 . S
H2142 C2161 0.929 . S
H2143 C2162 0.929 . S
H2144 C2174 0.931 . S
H2145 C2166 0.929 . S
H2146 C2175 0.930 . S
H2147 C2167 0.931 . S
O2148 Co2124 2.097 . S
O2148 C2176 1.214 . S
H2149 C2177 0.929 . S
H2150 C2178 0.929 . S
H2151 C2179 0.930 . S
H2152 C2180 0.929 . S
H2153 C2182 0.930 . S
H2154 C2159 0.930 . S
H2155 C2163 0.930 . S
O2156 Co2125 2.037 . S
O2156 C2176 1.234 . S
C2157 O2131 1.269 . S
C2157 O2132 1.257 . S
C2158 H2133 0.930 . S
C2158 C2161 1.388 . S
C2158 C2163 1.418 . S
C2159 H2154 0.930 . S
C2159 C2162 1.404 . S
C2159 C2163 1.353 . S
N2160 Co2125 2.145 1_556 S
N2160 C2161 1.397 . S
N2160 C2162 1.334 . S
C2161 H2142 0.929 . S
C2161 C2158 1.388 . S
C2161 N2160 1.397 . S
C2162 H2143 0.929 . S
C2162 C2159 1.404 . S
C2162 N2160 1.334 . S
C2163 H2155 0.930 . S
C2163 C2158 1.418 . S
C2163 C2159 1.353 . S
C2164 H2134 0.930 . S
C2164 N2165 1.330 . S
C2164 C2166 1.446 . S
N2165 Co2124 2.151 . S
N2165 C2164 1.330 . S
N2165 C2169 1.418 . S
C2166 H2145 0.929 . S
C2166 C2164 1.446 . S
C2166 C2167 1.332 . S
C2167 H2147 0.931 . S
C2167 C2166 1.332 . S
C2167 C2168 1.267 . S
C2168 H2136 0.929 . S
C2168 C2167 1.267 . S
C2168 C2169 1.251 . S
C2169 H2139 0.929 . S
C2169 N2165 1.418 . S
C2169 C2168 1.251 . S
C2170 H2137 0.930 . S
C2170 C2172 1.406 . S
C2170 C2175 1.261 . S
C2171 H2138 0.930 . S
C2171 N2173 1.325 . S
C2171 C2174 1.357 . S
C2172 H2140 0.928 . S
C2172 C2170 1.406 . S
C2172 N2173 1.261 . S
N2173 Co2124 2.214 . S
N2173 C2171 1.325 . S
N2173 C2172 1.261 . S
C2174 H2144 0.931 . S
C2174 C2171 1.357 . S
C2174 C2175 1.312 . S
C2175 H2146 0.930 . S
C2175 C2170 1.261 . S
C2175 C2174 1.312 . S
C2176 O2148 1.214 . S
C2176 O2156 1.234 . S
C2177 H2149 0.929 . S
C2177 C2180 1.391 . S
C2177 C2182 1.391 . S
C2178 H2150 0.929 . S
C2178 C2179 1.390 . S
C2178 N2181 1.391 . S
C2179 H2151 0.930 . S
C2179 C2178 1.390 . S
C2179 C2180 1.392 . S
C2180 H2152 0.929 . S
C2180 C2177 1.391 . S
C2180 C2179 1.392 . S
N2181 Co2125 2.257 . S
N2181 C2178 1.391 . S
N2181 C2182 1.388 . S
C2182 H2153 0.930 . S
C2182 C2177 1.391 . S
C2182 N2181 1.388 . S
Co2183 O2185 2.143 . S
Co2183 O2191 2.074 . S
Co2183 O2194 2.093 . S
Co2183 O2207 2.097 . S
Co2183 N2224 2.151 . S
Co2183 N2232 2.214 . S
Co2184 O2185 2.160 . S
Co2184 O2190 2.058 . S
Co2184 O2200 2.057 . S
Co2184 O2215 2.037 . S
Co2184 N2219 2.145 . S
Co2184 N2240 2.257 . S
O2185 Co2183 2.143 . S
O2185 Co2184 2.160 . S
C2186 O2187 1.278 . S
C2186 O2194 1.224 . S
O2187 C2186 1.278 . S
C2188 O2189 1.245 . S
C2188 O2200 1.232 . S
O2189 C2188 1.245 . S
O2190 Co2184 2.058 . S
O2190 C2216 1.269 . S
O2191 Co2183 2.074 . S
O2191 C2216 1.257 . S
H2192 C2217 0.930 . S
H2193 C2223 0.930 . S
O2194 Co2183 2.093 . S
O2194 C2186 1.224 . S
H2195 C2227 0.929 . S
H2196 C2229 0.930 . S
H2197 C2230 0.930 . S
H2198 C2228 0.929 . S
H2199 C2231 0.928 . S
O2200 Co2184 2.057 . S
O2200 C2188 1.232 . S
H2201 C2220 0.929 . S
H2202 C2221 0.929 . S
H2203 C2233 0.931 . S
H2204 C2225 0.929 . S
H2205 C2234 0.930 . S
H2206 C2226 0.931 . S
O2207 Co2183 2.097 . S
O2207 C2235 1.214 . S
H2208 C2236 0.929 1_565 S
H2209 C2237 0.929 . S
H2210 C2238 0.930 . S
H2211 C2239 0.929 . S
H2212 C2241 0.930 . S
H2213 C2218 0.930 . S
H2214 C2222 0.930 . S
O2215 Co2184 2.037 . S
O2215 C2235 1.234 . S
C2216 O2190 1.269 . S
C2216 O2191 1.257 . S
C2217 H2192 0.930 . S
C2217 C2220 1.388 . S
C2217 C2222 1.418 1_545 S
C2218 H2213 0.930 . S
C2218 C2221 1.404 . S
C2218 C2222 1.353 . S
N2219 Co2184 2.145 . S
N2219 C2220 1.397 . S
N2219 C2221 1.334 1_545 S
C2220 H2201 0.929 . S
C2220 C2217 1.388 . S
C2220 N2219 1.397 . S
C2221 H2202 0.929 . S
C2221 C2218 1.404 . S
C2221 N2219 1.334 1_565 S
C2222 H2214 0.930 . S
C2222 C2217 1.418 1_565 S
C2222 C2218 1.353 . S
C2223 H2193 0.930 . S
C2223 N2224 1.330 . S
C2223 C2225 1.446 . S
N2224 Co2183 2.151 . S
N2224 C2223 1.330 . S
N2224 C2228 1.418 . S
C2225 H2204 0.929 . S
C2225 C2223 1.446 . S
C2225 C2226 1.332 . S
C2226 H2206 0.931 . S
C2226 C2225 1.332 . S
C2226 C2227 1.267 . S
C2227 H2195 0.929 . S
C2227 C2226 1.267 . S
C2227 C2228 1.251 . S
C2228 H2198 0.929 . S
C2228 N2224 1.418 . S
C2228 C2227 1.251 . S
C2229 H2196 0.930 . S
C2229 C2231 1.406 . S
C2229 C2234 1.261 . S
C2230 H2197 0.930 . S
C2230 N2232 1.325 . S
C2230 C2233 1.357 . S
C2231 H2199 0.928 . S
C2231 C2229 1.406 . S
C2231 N2232 1.261 . S
N2232 Co2183 2.214 . S
N2232 C2230 1.325 . S
N2232 C2231 1.261 . S
C2233 H2203 0.931 . S
C2233 C2230 1.357 . S
C2233 C2234 1.312 . S
C2234 H2205 0.930 . S
C2234 C2229 1.261 . S
C2234 C2233 1.312 . S
C2235 O2207 1.214 . S
C2235 O2215 1.234 . S
C2236 H2208 0.929 1_545 S
C2236 C2239 1.391 . S
C2236 C2241 1.391 . S
C2237 H2209 0.929 . S
C2237 C2238 1.390 . S
C2237 N2240 1.391 . S
C2238 H2210 0.930 . S
C2238 C2237 1.390 . S
C2238 C2239 1.392 . S
C2239 H2211 0.929 . S
C2239 C2236 1.391 . S
C2239 C2238 1.392 . S
N2240 Co2184 2.257 . S
N2240 C2237 1.391 . S
N2240 C2241 1.388 . S
C2241 H2212 0.930 . S
C2241 C2236 1.391 . S
C2241 N2240 1.388 . S
Co2242 O2244 2.143 . S
Co2242 O2250 2.074 . S
Co2242 O2253 2.093 . S
Co2242 O2266 2.097 . S
Co2242 N2283 2.151 . S
Co2242 N2291 2.214 . S
Co2243 O2244 2.160 . S
Co2243 O2249 2.058 . S
Co2243 O2259 2.057 . S
Co2243 O2274 2.037 . S
Co2243 N2278 2.145 1_554 S
Co2243 N2299 2.257 . S
O2244 Co2242 2.143 . S
O2244 Co2243 2.160 . S
C2245 O2246 1.278 . S
C2245 O2253 1.224 . S
O2246 C2245 1.278 . S
C2247 O2248 1.245 . S
C2247 O2259 1.232 . S
O2248 C2247 1.245 . S
O2249 Co2243 2.058 . S
O2249 C2275 1.269 . S
O2250 Co2242 2.074 . S
O2250 C2275 1.257 . S
H2251 C2276 0.930 . S
H2252 C2282 0.930 . S
O2253 Co2242 2.093 . S
O2253 C2245 1.224 . S
H2254 C2286 0.929 . S
H2255 C2288 0.930 . S
H2256 C2289 0.930 . S
H2257 C2287 0.929 . S
H2258 C2290 0.928 . S
O2259 Co2243 2.057 . S
O2259 C2247 1.232 . S
H2260 C2279 0.929 . S
H2261 C2280 0.929 . S
H2262 C2292 0.931 . S
H2263 C2284 0.929 . S
H2264 C2293 0.930 . S
H2265 C2285 0.931 . S
O2266 Co2242 2.097 . S
O2266 C2294 1.214 . S
H2267 C2295 0.929 . S
H2268 C2296 0.929 . S
H2269 C2297 0.930 . S
H2270 C2298 0.929 . S
H2271 C2300 0.930 . S
H2272 C2277 0.930 . S
H2273 C2281 0.930 . S
O2274 Co2243 2.037 . S
O2274 C2294 1.234 . S
C2275 O2249 1.269 . S
C2275 O2250 1.257 . S
C2276 H2251 0.930 . S
C2276 C2279 1.388 . S
C2276 C2281 1.418 . S
C2277 H2272 0.930 . S
C2277 C2280 1.404 . S
C2277 C2281 1.353 . S
N2278 Co2243 2.145 1_556 S
N2278 C2279 1.397 . S
N2278 C2280 1.334 . S
C2279 H2260 0.929 . S
C2279 C2276 1.388 . S
C2279 N2278 1.397 . S
C2280 H2261 0.929 . S
C2280 C2277 1.404 . S
C2280 N2278 1.334 . S
C2281 H2273 0.930 . S
C2281 C2276 1.418 . S
C2281 C2277 1.353 . S
C2282 H2252 0.930 . S
C2282 N2283 1.330 . S
C2282 C2284 1.446 . S
N2283 Co2242 2.151 . S
N2283 C2282 1.330 . S
N2283 C2287 1.418 . S
C2284 H2263 0.929 . S
C2284 C2282 1.446 . S
C2284 C2285 1.332 . S
C2285 H2265 0.931 . S
C2285 C2284 1.332 . S
C2285 C2286 1.267 . S
C2286 H2254 0.929 . S
C2286 C2285 1.267 . S
C2286 C2287 1.251 . S
C2287 H2257 0.929 . S
C2287 N2283 1.418 . S
C2287 C2286 1.251 . S
C2288 H2255 0.930 . S
C2288 C2290 1.406 . S
C2288 C2293 1.261 . S
C2289 H2256 0.930 . S
C2289 N2291 1.325 . S
C2289 C2292 1.357 . S
C2290 H2258 0.928 . S
C2290 C2288 1.406 . S
C2290 N2291 1.261 . S
N2291 Co2242 2.214 . S
N2291 C2289 1.325 . S
N2291 C2290 1.261 . S
C2292 H2262 0.931 . S
C2292 C2289 1.357 . S
C2292 C2293 1.312 . S
C2293 H2264 0.930 . S
C2293 C2288 1.261 . S
C2293 C2292 1.312 . S
C2294 O2266 1.214 . S
C2294 O2274 1.234 . S
C2295 H2267 0.929 . S
C2295 C2298 1.391 . S
C2295 C2300 1.391 . S
C2296 H2268 0.929 . S
C2296 C2297 1.390 . S
C2296 N2299 1.391 . S
C2297 H2269 0.930 . S
C2297 C2296 1.390 . S
C2297 C2298 1.392 . S
C2298 H2270 0.929 . S
C2298 C2295 1.391 . S
C2298 C2297 1.392 . S
N2299 Co2243 2.257 . S
N2299 C2296 1.391 . S
N2299 C2300 1.388 . S
C2300 H2271 0.930 . S
C2300 C2295 1.391 . S
C2300 N2299 1.388 . S
Co2301 O2303 2.143 . S
Co2301 O2309 2.074 . S
Co2301 O2312 2.093 . S
Co2301 O2325 2.097 . S
Co2301 N2342 2.151 . S
Co2301 N2350 2.214 . S
Co2302 O2303 2.160 . S
Co2302 O2308 2.058 . S
Co2302 O2318 2.057 . S
Co2302 O2333 2.037 . S
Co2302 N2337 2.145 . S
Co2302 N2358 2.257 . S
O2303 Co2301 2.143 . S
O2303 Co2302 2.160 . S
C2304 O2305 1.278 . S
C2304 O2312 1.224 . S
O2305 C2304 1.278 . S
C2306 O2307 1.245 . S
C2306 O2318 1.232 . S
O2307 C2306 1.245 . S
O2308 Co2302 2.058 . S
O2308 C2334 1.269 . S
O2309 Co2301 2.074 . S
O2309 C2334 1.257 . S
H2310 C2335 0.930 . S
H2311 C2341 0.930 . S
O2312 Co2301 2.093 . S
O2312 C2304 1.224 . S
H2313 C2345 0.929 . S
H2314 C2347 0.930 . S
H2315 C2348 0.930 . S
H2316 C2346 0.929 . S
H2317 C2349 0.928 . S
O2318 Co2302 2.057 . S
O2318 C2306 1.232 . S
H2319 C2338 0.929 . S
H2320 C2339 0.930 . S
H2321 C2351 0.931 . S
H2322 C2343 0.929 . S
H2323 C2352 0.930 . S
H2324 C2344 0.931 . S
O2325 Co2301 2.097 . S
O2325 C2353 1.214 . S
H2326 C2354 0.929 . S
H2327 C2355 0.929 . S
H2328 C2356 0.930 . S
H2329 C2357 0.929 . S
H2330 C2359 0.930 . S
H2331 C2336 0.930 . S
H2332 C2340 0.930 . S
O2333 Co2302 2.037 . S
O2333 C2353 1.234 . S
C2334 O2308 1.269 . S
C2334 O2309 1.257 . S
C2335 H2310 0.930 . S
C2335 C2338 1.388 . S
C2335 C2340 1.418 1_565 S
C2336 H2331 0.930 . S
C2336 C2339 1.404 . S
C2336 C2340 1.353 . S
N2337 Co2302 2.145 . S
N2337 C2338 1.397 . S
N2337 C2339 1.333 1_565 S
C2338 H2319 0.929 . S
C2338 C2335 1.388 . S
C2338 N2337 1.397 . S
C2339 H2320 0.930 . S
C2339 C2336 1.404 . S
C2339 N2337 1.333 1_545 S
C2340 H2332 0.930 . S
C2340 C2335 1.418 1_545 S
C2340 C2336 1.353 . S
C2341 H2311 0.930 . S
C2341 N2342 1.330 . S
C2341 C2343 1.446 . S
N2342 Co2301 2.151 . S
N2342 C2341 1.330 . S
N2342 C2346 1.418 . S
C2343 H2322 0.929 . S
C2343 C2341 1.446 . S
C2343 C2344 1.332 . S
C2344 H2324 0.931 . S
C2344 C2343 1.332 . S
C2344 C2345 1.267 . S
C2345 H2313 0.929 . S
C2345 C2344 1.267 . S
C2345 C2346 1.251 . S
C2346 H2316 0.929 . S
C2346 N2342 1.418 . S
C2346 C2345 1.251 . S
C2347 H2314 0.930 . S
C2347 C2349 1.406 . S
C2347 C2352 1.261 . S
C2348 H2315 0.930 . S
C2348 N2350 1.325 . S
C2348 C2351 1.357 . S
C2349 H2317 0.928 . S
C2349 C2347 1.406 . S
C2349 N2350 1.261 . S
N2350 Co2301 2.214 . S
N2350 C2348 1.325 . S
N2350 C2349 1.261 . S
C2351 H2321 0.931 . S
C2351 C2348 1.357 . S
C2351 C2352 1.312 . S
C2352 H2323 0.930 . S
C2352 C2347 1.261 . S
C2352 C2351 1.312 . S
C2353 O2325 1.214 . S
C2353 O2333 1.234 . S
C2354 H2326 0.929 . S
C2354 C2357 1.391 . S
C2354 C2359 1.391 . S
C2355 H2327 0.929 . S
C2355 C2356 1.390 . S
C2355 N2358 1.391 . S
C2356 H2328 0.930 . S
C2356 C2355 1.390 . S
C2356 C2357 1.392 . S
C2357 H2329 0.929 . S
C2357 C2354 1.391 . S
C2357 C2356 1.392 . S
N2358 Co2302 2.257 . S
N2358 C2355 1.391 . S
N2358 C2359 1.388 . S
C2359 H2330 0.930 . S
C2359 C2354 1.391 . S
C2359 N2358 1.388 . S
Co2360 O2362 2.143 . S
Co2360 O2368 2.074 . S
Co2360 O2371 2.093 . S
Co2360 O2384 2.097 . S
Co2360 N2401 2.151 . S
Co2360 N2409 2.214 . S
Co2361 O2362 2.160 . S
Co2361 O2367 2.058 . S
Co2361 O2377 2.057 . S
Co2361 O2392 2.037 . S
Co2361 N2396 2.145 . S
Co2361 N2417 2.257 . S
O2362 Co2360 2.143 . S
O2362 Co2361 2.160 . S
C2363 O2364 1.278 . S
C2363 O2371 1.224 . S
O2364 C2363 1.278 . S
C2365 O2366 1.245 . S
C2365 O2377 1.232 . S
O2366 C2365 1.245 . S
O2367 Co2361 2.058 . S
O2367 C2393 1.269 . S
O2368 Co2360 2.074 . S
O2368 C2393 1.257 . S
H2369 C2394 0.930 . S
H2370 C2400 0.930 . S
O2371 Co2360 2.093 . S
O2371 C2363 1.224 . S
H2372 C2404 0.929 . S
H2373 C2406 0.930 . S
H2374 C2407 0.930 . S
H2375 C2405 0.929 . S
H2376 C2408 0.928 . S
O2377 Co2361 2.057 . S
O2377 C2365 1.232 . S
H2378 C2397 0.929 . S
H2379 C2398 0.929 . S
H2380 C2410 0.931 . S
H2381 C2402 0.929 . S
H2382 C2411 0.930 . S
H2383 C2403 0.931 . S
O2384 Co2360 2.097 . S
O2384 C2412 1.214 . S
H2385 C2413 0.929 . S
H2386 C2414 0.929 . S
H2387 C2415 0.930 . S
H2388 C2416 0.929 . S
H2389 C2418 0.930 . S
H2390 C2395 0.930 . S
H2391 C2399 0.930 . S
O2392 Co2361 2.037 . S
O2392 C2412 1.234 . S
C2393 O2367 1.269 . S
C2393 O2368 1.257 . S
C2394 H2369 0.930 . S
C2394 C2397 1.388 . S
C2394 C2399 1.418 . S
C2395 H2390 0.930 . S
C2395 C2398 1.404 . S
C2395 C2399 1.353 . S
N2396 Co2361 2.145 . S
N2396 C2397 1.397 . S
N2396 C2398 1.334 . S
C2397 H2378 0.929 . S
C2397 C2394 1.388 . S
C2397 N2396 1.397 . S
C2398 H2379 0.929 . S
C2398 C2395 1.404 . S
C2398 N2396 1.334 . S
C2399 H2391 0.930 . S
C2399 C2394 1.418 . S
C2399 C2395 1.353 . S
C2400 H2370 0.930 . S
C2400 N2401 1.330 . S
C2400 C2402 1.446 . S
N2401 Co2360 2.151 . S
N2401 C2400 1.330 . S
N2401 C2405 1.418 . S
C2402 H2381 0.929 . S
C2402 C2400 1.446 . S
C2402 C2403 1.332 . S
C2403 H2383 0.931 . S
C2403 C2402 1.332 . S
C2403 C2404 1.267 . S
C2404 H2372 0.929 . S
C2404 C2403 1.267 . S
C2404 C2405 1.251 . S
C2405 H2375 0.929 . S
C2405 N2401 1.418 . S
C2405 C2404 1.251 . S
C2406 H2373 0.930 . S
C2406 C2408 1.403 1_554 S
C2406 C2411 1.263 . S
C2407 H2374 0.930 . S
C2407 N2409 1.325 . S
C2407 C2410 1.357 1_556 S
C2408 H2376 0.928 . S
C2408 C2406 1.403 1_556 S
C2408 N2409 1.261 . S
N2409 Co2360 2.214 . S
N2409 C2407 1.325 . S
N2409 C2408 1.261 . S
C2410 H2380 0.931 . S
C2410 C2407 1.357 1_554 S
C2410 C2411 1.312 . S
C2411 H2382 0.930 . S
C2411 C2406 1.263 . S
C2411 C2410 1.312 . S
C2412 O2384 1.214 . S
C2412 O2392 1.234 . S
C2413 H2385 0.929 . S
C2413 C2416 1.391 . S
C2413 C2418 1.391 1_455 S
C2414 H2386 0.929 . S
C2414 C2415 1.390 1_655 S
C2414 N2417 1.391 . S
C2415 H2387 0.930 . S
C2415 C2414 1.390 1_455 S
C2415 C2416 1.392 . S
C2416 H2388 0.929 . S
C2416 C2413 1.391 . S
C2416 C2415 1.392 . S
N2417 Co2361 2.257 . S
N2417 C2414 1.391 . S
N2417 C2418 1.388 . S
C2418 H2389 0.930 . S
C2418 C2413 1.391 1_655 S
C2418 N2417 1.388 . S
Co2419 O2421 2.143 . S
Co2419 O2427 2.074 . S
Co2419 O2430 2.093 . S
Co2419 O2443 2.097 . S
Co2419 N2460 2.151 . S
Co2419 N2468 2.214 . S
Co2420 O2421 2.160 . S
Co2420 O2426 2.058 . S
Co2420 O2436 2.057 . S
Co2420 O2451 2.037 . S
Co2420 N2455 2.145 1_655 S
Co2420 N2476 2.257 . S
O2421 Co2419 2.143 . S
O2421 Co2420 2.160 . S
C2422 O2423 1.278 . S
C2422 O2430 1.224 . S
O2423 C2422 1.278 . S
C2424 O2425 1.245 . S
C2424 O2436 1.232 . S
O2425 C2424 1.245 . S
O2426 Co2420 2.058 . S
O2426 C2452 1.269 . S
O2427 Co2419 2.074 . S
O2427 C2452 1.257 . S
H2428 C2453 0.930 . S
H2429 C2459 0.930 . S
O2430 Co2419 2.093 . S
O2430 C2422 1.224 . S
H2431 C2463 0.929 . S
H2432 C2465 0.930 . S
H2433 C2466 0.930 . S
H2434 C2464 0.929 . S
H2435 C2467 0.928 . S
O2436 Co2420 2.057 . S
O2436 C2424 1.232 . S
H2437 C2456 0.929 . S
H2438 C2457 0.929 . S
H2439 C2469 0.931 . S
H2440 C2461 0.929 . S
H2441 C2470 0.930 . S
H2442 C2462 0.931 . S
O2443 Co2419 2.097 . S
O2443 C2471 1.214 . S
H2444 C2472 0.929 . S
H2445 C2473 0.929 . S
H2446 C2474 0.930 . S
H2447 C2475 0.929 . S
H2448 C2477 0.930 . S
H2449 C2454 0.930 . S
H2450 C2458 0.930 . S
O2451 Co2420 2.037 . S
O2451 C2471 1.234 . S
C2452 O2426 1.269 . S
C2452 O2427 1.257 . S
C2453 H2428 0.930 . S
C2453 C2456 1.388 . S
C2453 C2458 1.418 . S
C2454 H2449 0.930 . S
C2454 C2457 1.404 . S
C2454 C2458 1.353 . S
N2455 Co2420 2.145 1_455 S
N2455 C2456 1.397 . S
N2455 C2457 1.334 . S
C2456 H2437 0.929 . S
C2456 C2453 1.388 . S
C2456 N2455 1.397 . S
C2457 H2438 0.929 . S
C2457 C2454 1.404 . S
C2457 N2455 1.334 . S
C2458 H2450 0.930 . S
C2458 C2453 1.418 . S
C2458 C2454 1.353 . S
C2459 H2429 0.930 . S
C2459 N2460 1.330 . S
C2459 C2461 1.446 . S
N2460 Co2419 2.151 . S
N2460 C2459 1.330 . S
N2460 C2464 1.418 . S
C2461 H2440 0.929 . S
C2461 C2459 1.446 . S
C2461 C2462 1.332 . S
C2462 H2442 0.931 . S
C2462 C2461 1.332 . S
C2462 C2463 1.267 . S
C2463 H2431 0.929 . S
C2463 C2462 1.267 . S
C2463 C2464 1.251 . S
C2464 H2434 0.929 . S
C2464 N2460 1.418 . S
C2464 C2463 1.251 . S
C2465 H2432 0.930 . S
C2465 C2467 1.406 . S
C2465 C2470 1.261 . S
C2466 H2433 0.930 . S
C2466 N2468 1.325 . S
C2466 C2469 1.357 . S
C2467 H2435 0.928 . S
C2467 C2465 1.406 . S
C2467 N2468 1.261 . S
N2468 Co2419 2.214 . S
N2468 C2466 1.325 . S
N2468 C2467 1.261 . S
C2469 H2439 0.931 . S
C2469 C2466 1.357 . S
C2469 C2470 1.312 . S
C2470 H2441 0.930 . S
C2470 C2465 1.261 . S
C2470 C2469 1.312 . S
C2471 O2443 1.214 . S
C2471 O2451 1.234 . S
C2472 H2444 0.929 . S
C2472 C2475 1.391 . S
C2472 C2477 1.391 . S
C2473 H2445 0.929 . S
C2473 C2474 1.390 . S
C2473 N2476 1.391 . S
C2474 H2446 0.930 . S
C2474 C2473 1.390 . S
C2474 C2475 1.392 . S
C2475 H2447 0.929 . S
C2475 C2472 1.391 . S
C2475 C2474 1.392 . S
N2476 Co2420 2.257 . S
N2476 C2473 1.391 . S
N2476 C2477 1.388 . S
C2477 H2448 0.930 . S
C2477 C2472 1.391 . S
C2477 N2476 1.388 . S
Co2478 O2480 2.143 . S
Co2478 O2486 2.074 . S
Co2478 O2489 2.093 . S
Co2478 O2502 2.097 . S
Co2478 N2519 2.151 . S
Co2478 N2527 2.214 . S
Co2479 O2480 2.160 . S
Co2479 O2485 2.058 . S
Co2479 O2495 2.057 . S
Co2479 O2510 2.037 . S
Co2479 N2514 2.145 . S
Co2479 N2535 2.257 . S
O2480 Co2478 2.143 . S
O2480 Co2479 2.160 . S
C2481 O2482 1.278 . S
C2481 O2489 1.224 . S
O2482 C2481 1.278 . S
C2483 O2484 1.245 . S
C2483 O2495 1.232 . S
O2484 C2483 1.245 . S
O2485 Co2479 2.058 . S
O2485 C2511 1.269 . S
O2486 Co2478 2.074 . S
O2486 C2511 1.257 . S
H2487 C2512 0.930 . S
H2488 C2518 0.930 . S
O2489 Co2478 2.093 . S
O2489 C2481 1.224 . S
H2490 C2522 0.929 . S
H2491 C2524 0.930 . S
H2492 C2525 0.930 . S
H2493 C2523 0.929 . S
H2494 C2526 0.928 . S
O2495 Co2479 2.057 . S
O2495 C2483 1.232 . S
H2496 C2515 0.929 . S
H2497 C2516 0.929 . S
H2498 C2528 0.931 . S
H2499 C2520 0.929 . S
H2500 C2529 0.930 . S
H2501 C2521 0.931 . S
O2502 Co2478 2.097 . S
O2502 C2530 1.214 . S
H2503 C2531 0.929 . S
H2504 C2532 0.929 . S
H2505 C2533 0.930 . S
H2506 C2534 0.929 . S
H2507 C2536 0.930 . S
H2508 C2513 0.930 . S
H2509 C2517 0.930 . S
O2510 Co2479 2.037 . S
O2510 C2530 1.234 . S
C2511 O2485 1.269 . S
C2511 O2486 1.257 . S
C2512 H2487 0.930 . S
C2512 C2515 1.388 . S
C2512 C2517 1.418 . S
C2513 H2508 0.930 . S
C2513 C2516 1.404 . S
C2513 C2517 1.353 . S
N2514 Co2479 2.145 . S
N2514 C2515 1.397 . S
N2514 C2516 1.334 . S
C2515 H2496 0.929 . S
C2515 C2512 1.388 . S
C2515 N2514 1.397 . S
C2516 H2497 0.929 . S
C2516 C2513 1.404 . S
C2516 N2514 1.334 . S
C2517 H2509 0.930 . S
C2517 C2512 1.418 . S
C2517 C2513 1.353 . S
C2518 H2488 0.930 . S
C2518 N2519 1.330 . S
C2518 C2520 1.446 . S
N2519 Co2478 2.151 . S
N2519 C2518 1.330 . S
N2519 C2523 1.418 1_455 S
C2520 H2499 0.929 . S
C2520 C2518 1.446 . S
C2520 C2521 1.332 1_455 S
C2521 H2501 0.931 . S
C2521 C2520 1.332 1_655 S
C2521 C2522 1.267 . S
C2522 H2490 0.929 . S
C2522 C2521 1.267 . S
C2522 C2523 1.251 . S
C2523 H2493 0.929 . S
C2523 N2519 1.418 1_655 S
C2523 C2522 1.251 . S
C2524 H2491 0.930 . S
C2524 C2526 1.406 1_655 S
C2524 C2529 1.261 . S
C2525 H2492 0.930 . S
C2525 N2527 1.325 . S
C2525 C2528 1.357 1_455 S
C2526 H2494 0.928 . S
C2526 C2524 1.406 1_455 S
C2526 N2527 1.261 . S
N2527 Co2478 2.214 . S
N2527 C2525 1.325 . S
N2527 C2526 1.261 . S
C2528 H2498 0.931 . S
C2528 C2525 1.357 1_655 S
C2528 C2529 1.312 . S
C2529 H2500 0.930 . S
C2529 C2524 1.261 . S
C2529 C2528 1.312 . S
C2530 O2502 1.214 . S
C2530 O2510 1.234 . S
C2531 H2503 0.929 . S
C2531 C2534 1.391 . S
C2531 C2536 1.391 . S
C2532 H2504 0.929 . S
C2532 C2533 1.390 . S
C2532 N2535 1.391 . S
C2533 H2505 0.930 . S
C2533 C2532 1.390 . S
C2533 C2534 1.392 . S
C2534 H2506 0.929 . S
C2534 C2531 1.391 . S
C2534 C2533 1.392 . S
N2535 Co2479 2.257 . S
N2535 C2532 1.391 . S
N2535 C2536 1.388 . S
C2536 H2507 0.930 . S
C2536 C2531 1.391 . S
C2536 N2535 1.388 . S
Co2537 O2539 2.143 . S
Co2537 O2545 2.074 . S
Co2537 O2548 2.093 . S
Co2537 O2561 2.097 . S
Co2537 N2578 2.151 . S
Co2537 N2586 2.214 . S
Co2538 O2539 2.160 . S
Co2538 O2544 2.058 . S
Co2538 O2554 2.057 . S
Co2538 O2569 2.037 . S
Co2538 N2573 2.145 . S
Co2538 N2594 2.257 . S
O2539 Co2537 2.143 . S
O2539 Co2538 2.160 . S
C2540 O2541 1.278 . S
C2540 O2548 1.224 . S
O2541 C2540 1.278 . S
C2542 O2543 1.245 . S
C2542 O2554 1.232 . S
O2543 C2542 1.245 . S
O2544 Co2538 2.058 . S
O2544 C2570 1.269 . S
O2545 Co2537 2.074 . S
O2545 C2570 1.257 . S
H2546 C2571 0.930 . S
H2547 C2577 0.930 . S
O2548 Co2537 2.093 . S
O2548 C2540 1.224 . S
H2549 C2581 0.929 . S
H2550 C2583 0.930 . S
H2551 C2584 0.930 . S
H2552 C2582 0.929 . S
H2553 C2585 0.928 . S
O2554 Co2538 2.057 . S
O2554 C2542 1.232 . S
H2555 C2574 0.929 . S
H2556 C2575 0.929 . S
H2557 C2587 0.931 . S
H2558 C2579 0.929 . S
H2559 C2588 0.930 . S
H2560 C2580 0.931 . S
O2561 Co2537 2.097 . S
O2561 C2589 1.214 . S
H2562 C2590 0.929 . S
H2563 C2591 0.929 . S
H2564 C2592 0.930 . S
H2565 C2593 0.929 . S
H2566 C2595 0.930 . S
H2567 C2572 0.930 . S
H2568 C2576 0.930 . S
O2569 Co2538 2.037 . S
O2569 C2589 1.234 . S
C2570 O2544 1.269 . S
C2570 O2545 1.257 . S
C2571 H2546 0.930 . S
C2571 C2574 1.388 . S
C2571 C2576 1.418 . S
C2572 H2567 0.930 . S
C2572 C2575 1.404 . S
C2572 C2576 1.353 . S
N2573 Co2538 2.145 . S
N2573 C2574 1.397 . S
N2573 C2575 1.334 . S
C2574 H2555 0.929 . S
C2574 C2571 1.388 . S
C2574 N2573 1.397 . S
C2575 H2556 0.929 . S
C2575 C2572 1.404 . S
C2575 N2573 1.334 . S
C2576 H2568 0.930 . S
C2576 C2571 1.418 . S
C2576 C2572 1.353 . S
C2577 H2547 0.930 . S
C2577 N2578 1.330 . S
C2577 C2579 1.446 . S
N2578 Co2537 2.151 . S
N2578 C2577 1.330 . S
N2578 C2582 1.418 . S
C2579 H2558 0.929 . S
C2579 C2577 1.446 . S
C2579 C2580 1.332 . S
C2580 H2560 0.931 . S
C2580 C2579 1.332 . S
C2580 C2581 1.267 . S
C2581 H2549 0.929 . S
C2581 C2580 1.267 . S
C2581 C2582 1.251 . S
C2582 H2552 0.929 . S
C2582 N2578 1.418 . S
C2582 C2581 1.251 . S
C2583 H2550 0.930 . S
C2583 C2585 1.406 1_556 S
C2583 C2588 1.261 . S
C2584 H2551 0.930 . S
C2584 N2586 1.325 1_556 S
C2584 C2587 1.357 . S
C2585 H2553 0.928 . S
C2585 C2583 1.406 1_554 S
C2585 N2586 1.261 . S
N2586 Co2537 2.214 . S
N2586 C2584 1.325 1_554 S
N2586 C2585 1.261 . S
C2587 H2557 0.931 . S
C2587 C2584 1.357 . S
C2587 C2588 1.312 . S
C2588 H2559 0.930 . S
C2588 C2583 1.261 . S
C2588 C2587 1.312 . S
C2589 O2561 1.214 . S
C2589 O2569 1.234 . S
C2590 H2562 0.929 . S
C2590 C2593 1.391 . S
C2590 C2595 1.391 1_655 S
C2591 H2563 0.929 . S
C2591 C2592 1.390 1_455 S
C2591 N2594 1.391 . S
C2592 H2564 0.930 . S
C2592 C2591 1.390 1_655 S
C2592 C2593 1.392 . S
C2593 H2565 0.929 . S
C2593 C2590 1.391 . S
C2593 C2592 1.392 . S
N2594 Co2538 2.257 . S
N2594 C2591 1.391 . S
N2594 C2595 1.388 . S
C2595 H2566 0.930 . S
C2595 C2590 1.391 1_455 S
C2595 N2594 1.388 . S
Co2596 O2598 2.143 . S
Co2596 O2604 2.074 . S
Co2596 O2607 2.093 1_655 S
Co2596 O2620 2.097 . S
Co2596 N2637 2.151 . S
Co2596 N2645 2.214 . S
Co2597 O2598 2.160 . S
Co2597 O2603 2.058 . S
Co2597 O2613 2.057 . S
Co2597 O2628 2.037 . S
Co2597 N2632 2.145 . S
Co2597 N2653 2.257 . S
O2598 Co2596 2.143 . S
O2598 Co2597 2.160 . S
C2599 O2600 1.278 1_455 S
C2599 O2607 1.224 . S
O2600 C2599 1.278 1_655 S
C2601 O2602 1.245 . S
C2601 O2613 1.232 . S
O2602 C2601 1.245 . S
O2603 Co2597 2.058 . S
O2603 C2629 1.269 . S
O2604 Co2596 2.074 . S
O2604 C2629 1.257 . S
H2605 C2630 0.930 . S
H2606 C2636 0.930 . S
O2607 Co2596 2.093 1_455 S
O2607 C2599 1.224 . S
H2608 C2640 0.929 . S
H2609 C2642 0.930 . S
H2610 C2643 0.930 . S
H2611 C2641 0.929 . S
H2612 C2644 0.928 . S
O2613 Co2597 2.057 . S
O2613 C2601 1.232 . S
H2614 C2633 0.929 . S
H2615 C2634 0.929 . S
H2616 C2646 0.931 . S
H2617 C2638 0.929 . S
H2618 C2647 0.930 . S
H2619 C2639 0.931 . S
O2620 Co2596 2.097 . S
O2620 C2648 1.214 . S
H2621 C2649 0.929 . S
H2622 C2650 0.929 . S
H2623 C2651 0.930 . S
H2624 C2652 0.929 . S
H2625 C2654 0.930 . S
H2626 C2631 0.930 . S
H2627 C2635 0.930 . S
O2628 Co2597 2.037 . S
O2628 C2648 1.234 . S
C2629 O2603 1.269 . S
C2629 O2604 1.257 . S
C2630 H2605 0.930 . S
C2630 C2633 1.388 . S
C2630 C2635 1.418 . S
C2631 H2626 0.930 . S
C2631 C2634 1.404 . S
C2631 C2635 1.353 . S
N2632 Co2597 2.145 . S
N2632 C2633 1.397 . S
N2632 C2634 1.334 . S
C2633 H2614 0.929 . S
C2633 C2630 1.388 . S
C2633 N2632 1.397 . S
C2634 H2615 0.929 . S
C2634 C2631 1.404 . S
C2634 N2632 1.334 . S
C2635 H2627 0.930 . S
C2635 C2630 1.418 . S
C2635 C2631 1.353 . S
C2636 H2606 0.930 . S
C2636 N2637 1.330 1_455 S
C2636 C2638 1.446 . S
N2637 Co2596 2.151 . S
N2637 C2636 1.330 1_655 S
N2637 C2641 1.418 . S
C2638 H2617 0.929 . S
C2638 C2636 1.446 . S
C2638 C2639 1.332 . S
C2639 H2619 0.931 . S
C2639 C2638 1.332 . S
C2639 C2640 1.267 . S
C2640 H2608 0.929 . S
C2640 C2639 1.267 . S
C2640 C2641 1.251 1_455 S
C2641 H2611 0.929 . S
C2641 N2637 1.418 . S
C2641 C2640 1.251 1_655 S
C2642 H2609 0.930 . S
C2642 C2644 1.406 . S
C2642 C2647 1.261 . S
C2643 H2610 0.930 . S
C2643 N2645 1.325 . S
C2643 C2646 1.357 . S
C2644 H2612 0.928 . S
C2644 C2642 1.406 . S
C2644 N2645 1.261 1_455 S
N2645 Co2596 2.214 . S
N2645 C2643 1.325 . S
N2645 C2644 1.261 1_655 S
C2646 H2616 0.931 . S
C2646 C2643 1.357 . S
C2646 C2647 1.312 1_655 S
C2647 H2618 0.930 . S
C2647 C2642 1.261 . S
C2647 C2646 1.312 1_455 S
C2648 O2620 1.214 . S
C2648 O2628 1.234 . S
C2649 H2621 0.929 . S
C2649 C2652 1.391 . S
C2649 C2654 1.391 . S
C2650 H2622 0.929 . S
C2650 C2651 1.390 . S
C2650 N2653 1.391 . S
C2651 H2623 0.930 . S
C2651 C2650 1.390 . S
C2651 C2652 1.392 . S
C2652 H2624 0.929 . S
C2652 C2649 1.391 . S
C2652 C2651 1.392 . S
N2653 Co2597 2.257 . S
N2653 C2650 1.391 . S
N2653 C2654 1.388 . S
C2654 H2625 0.930 . S
C2654 C2649 1.391 . S
C2654 N2653 1.388 . S
Co2655 O2657 2.143 . S
Co2655 O2663 2.074 . S
Co2655 O2666 2.093 . S
Co2655 O2679 2.097 . S
Co2655 N2696 2.151 . S
Co2655 N2704 2.214 . S
Co2656 O2657 2.160 . S
Co2656 O2662 2.058 . S
Co2656 O2672 2.057 . S
Co2656 O2687 2.037 . S
Co2656 N2691 2.145 1_455 S
Co2656 N2712 2.257 . S
O2657 Co2655 2.143 . S
O2657 Co2656 2.160 . S
C2658 O2659 1.278 . S
C2658 O2666 1.224 . S
O2659 C2658 1.278 . S
C2660 O2661 1.245 . S
C2660 O2672 1.232 . S
O2661 C2660 1.245 . S
O2662 Co2656 2.058 . S
O2662 C2688 1.269 . S
O2663 Co2655 2.074 . S
O2663 C2688 1.257 . S
H2664 C2689 0.930 . S
H2665 C2695 0.930 . S
O2666 Co2655 2.093 . S
O2666 C2658 1.224 . S
H2667 C2699 0.929 . S
H2668 C2701 0.930 . S
H2669 C2702 0.930 . S
H2670 C2700 0.929 . S
H2671 C2703 0.928 . S
O2672 Co2656 2.057 . S
O2672 C2660 1.232 . S
H2673 C2692 0.929 . S
H2674 C2693 0.929 . S
H2675 C2705 0.931 . S
H2676 C2697 0.929 . S
H2677 C2706 0.930 . S
H2678 C2698 0.931 . S
O2679 Co2655 2.097 . S
O2679 C2707 1.214 . S
H2680 C2708 0.929 . S
H2681 C2709 0.929 . S
H2682 C2710 0.930 . S
H2683 C2711 0.929 . S
H2684 C2713 0.930 . S
H2685 C2690 0.930 . S
H2686 C2694 0.930 . S
O2687 Co2656 2.037 . S
O2687 C2707 1.234 . S
C2688 O2662 1.269 . S
C2688 O2663 1.257 . S
C2689 H2664 0.930 . S
C2689 C2692 1.388 . S
C2689 C2694 1.418 . S
C2690 H2685 0.930 . S
C2690 C2693 1.404 . S
C2690 C2694 1.353 . S
N2691 Co2656 2.145 1_655 S
N2691 C2692 1.397 . S
N2691 C2693 1.334 . S
C2692 H2673 0.929 . S
C2692 C2689 1.388 . S
C2692 N2691 1.397 . S
C2693 H2674 0.929 . S
C2693 C2690 1.404 . S
C2693 N2691 1.334 . S
C2694 H2686 0.930 . S
C2694 C2689 1.418 . S
C2694 C2690 1.353 . S
C2695 H2665 0.930 . S
C2695 N2696 1.330 . S
C2695 C2697 1.446 . S
N2696 Co2655 2.151 . S
N2696 C2695 1.330 . S
N2696 C2700 1.418 . S
C2697 H2676 0.929 . S
C2697 C2695 1.446 . S
C2697 C2698 1.332 . S
C2698 H2678 0.931 . S
C2698 C2697 1.332 . S
C2698 C2699 1.267 . S
C2699 H2667 0.929 . S
C2699 C2698 1.267 . S
C2699 C2700 1.251 . S
C2700 H2670 0.929 . S
C2700 N2696 1.418 . S
C2700 C2699 1.251 . S
C2701 H2668 0.930 . S
C2701 C2703 1.406 . S
C2701 C2706 1.261 . S
C2702 H2669 0.930 . S
C2702 N2704 1.325 . S
C2702 C2705 1.357 . S
C2703 H2671 0.928 . S
C2703 C2701 1.406 . S
C2703 N2704 1.261 . S
N2704 Co2655 2.214 . S
N2704 C2702 1.325 . S
N2704 C2703 1.261 . S
C2705 H2675 0.931 . S
C2705 C2702 1.357 . S
C2705 C2706 1.312 . S
C2706 H2677 0.930 . S
C2706 C2701 1.261 . S
C2706 C2705 1.312 . S
C2707 O2679 1.214 . S
C2707 O2687 1.234 . S
C2708 H2680 0.929 . S
C2708 C2711 1.391 . S
C2708 C2713 1.391 . S
C2709 H2681 0.929 . S
C2709 C2710 1.390 . S
C2709 N2712 1.391 . S
C2710 H2682 0.930 . S
C2710 C2709 1.390 . S
C2710 C2711 1.392 . S
C2711 H2683 0.929 . S
C2711 C2708 1.391 . S
C2711 C2710 1.392 . S
N2712 Co2656 2.257 . S
N2712 C2709 1.391 . S
N2712 C2713 1.388 . S
C2713 H2684 0.930 . S
C2713 C2708 1.391 . S
C2713 N2712 1.388 . S
Co2714 O2716 2.143 . S
Co2714 O2722 2.074 . S
Co2714 O2725 2.093 . S
Co2714 O2738 2.097 . S
Co2714 N2755 2.151 . S
Co2714 N2763 2.214 . S
Co2715 O2716 2.160 . S
Co2715 O2721 2.058 . S
Co2715 O2731 2.057 . S
Co2715 O2746 2.037 . S
Co2715 N2750 2.145 . S
Co2715 N2771 2.257 . S
O2716 Co2714 2.143 . S
O2716 Co2715 2.160 . S
C2717 O2718 1.278 . S
C2717 O2725 1.224 . S
O2718 C2717 1.278 . S
C2719 O2720 1.245 . S
C2719 O2731 1.232 . S
O2720 C2719 1.245 . S
O2721 Co2715 2.058 . S
O2721 C2747 1.269 . S
O2722 Co2714 2.074 . S
O2722 C2747 1.257 . S
H2723 C2748 0.930 . S
H2724 C2754 0.930 . S
O2725 Co2714 2.093 . S
O2725 C2717 1.224 . S
H2726 C2758 0.928 . S
H2727 C2760 0.930 . S
H2728 C2761 0.930 . S
H2729 C2759 0.929 . S
H2730 C2762 0.928 . S
O2731 Co2715 2.057 . S
O2731 C2719 1.232 . S
H2732 C2751 0.929 . S
H2733 C2752 0.929 . S
H2734 C2764 0.931 . S
H2735 C2756 0.929 . S
H2736 C2765 0.930 1_655 S
H2737 C2757 0.931 . S
O2738 Co2714 2.097 . S
O2738 C2766 1.214 . S
H2739 C2767 0.929 . S
H2740 C2768 0.929 . S
H2741 C2769 0.930 . S
H2742 C2770 0.929 . S
H2743 C2772 0.930 . S
H2744 C2749 0.930 . S
H2745 C2753 0.930 . S
O2746 Co2715 2.037 . S
O2746 C2766 1.234 . S
C2747 O2721 1.269 . S
C2747 O2722 1.257 . S
C2748 H2723 0.930 . S
C2748 C2751 1.388 . S
C2748 C2753 1.418 . S
C2749 H2744 0.930 . S
C2749 C2752 1.404 . S
C2749 C2753 1.353 . S
N2750 Co2715 2.145 . S
N2750 C2751 1.397 . S
N2750 C2752 1.334 . S
C2751 H2732 0.929 . S
C2751 C2748 1.388 . S
C2751 N2750 1.397 . S
C2752 H2733 0.929 . S
C2752 C2749 1.404 . S
C2752 N2750 1.334 . S
C2753 H2745 0.930 . S
C2753 C2748 1.418 . S
C2753 C2749 1.353 . S
C2754 H2724 0.930 . S
C2754 N2755 1.330 . S
C2754 C2756 1.446 . S
N2755 Co2714 2.151 . S
N2755 C2754 1.330 . S
N2755 C2759 1.418 . S
C2756 H2735 0.929 . S
C2756 C2754 1.446 . S
C2756 C2757 1.332 . S
C2757 H2737 0.931 . S
C2757 C2756 1.332 . S
C2757 C2758 1.267 1_455 S
C2758 H2726 0.928 . S
C2758 C2757 1.267 1_655 S
C2758 C2759 1.251 1_655 S
C2759 H2729 0.929 . S
C2759 N2755 1.418 . S
C2759 C2758 1.251 1_455 S
C2760 H2727 0.930 . S
C2760 C2762 1.406 . S
C2760 C2765 1.261 . S
C2761 H2728 0.930 . S
C2761 N2763 1.325 . S
C2761 C2764 1.357 . S
C2762 H2730 0.928 . S
C2762 C2760 1.406 . S
C2762 N2763 1.261 . S
N2763 Co2714 2.214 . S
N2763 C2761 1.325 . S
N2763 C2762 1.261 . S
C2764 H2734 0.931 . S
C2764 C2761 1.357 . S
C2764 C2765 1.312 . S
C2765 H2736 0.930 1_455 S
C2765 C2760 1.261 . S
C2765 C2764 1.312 . S
C2766 O2738 1.214 . S
C2766 O2746 1.234 . S
C2767 H2739 0.929 . S
C2767 C2770 1.391 . S
C2767 C2772 1.391 . S
C2768 H2740 0.929 . S
C2768 C2769 1.390 . S
C2768 N2771 1.391 . S
C2769 H2741 0.930 . S
C2769 C2768 1.390 . S
C2769 C2770 1.392 . S
C2770 H2742 0.929 . S
C2770 C2767 1.391 . S
C2770 C2769 1.392 . S
N2771 Co2715 2.257 . S
N2771 C2768 1.391 . S
N2771 C2772 1.388 . S
C2772 H2743 0.930 . S
C2772 C2767 1.391 . S
C2772 N2771 1.388 . S
Co2773 O2775 2.143 . S
Co2773 O2781 2.074 . S
Co2773 O2784 2.093 . S
Co2773 O2797 2.097 . S
Co2773 N2814 2.151 . S
Co2773 N2822 2.214 . S
Co2774 O2775 2.160 . S
Co2774 O2780 2.058 . S
Co2774 O2790 2.057 . S
Co2774 O2805 2.037 . S
Co2774 N2809 2.145 . S
Co2774 N2830 2.257 . S
O2775 Co2773 2.143 . S
O2775 Co2774 2.160 . S
C2776 O2777 1.278 . S
C2776 O2784 1.224 . S
O2777 C2776 1.278 . S
C2778 O2779 1.245 . S
C2778 O2790 1.232 . S
O2779 C2778 1.245 . S
O2780 Co2774 2.058 . S
O2780 C2806 1.269 . S
O2781 Co2773 2.074 . S
O2781 C2806 1.257 . S
H2782 C2807 0.930 . S
H2783 C2813 0.930 . S
O2784 Co2773 2.093 . S
O2784 C2776 1.224 . S
H2785 C2817 0.929 . S
H2786 C2819 0.930 . S
H2787 C2820 0.930 . S
H2788 C2818 0.933 . S
H2789 C2821 0.928 . S
O2790 Co2774 2.057 . S
O2790 C2778 1.232 . S
H2791 C2810 0.929 . S
H2792 C2811 0.929 . S
H2793 C2823 0.931 . S
H2794 C2815 0.929 . S
H2795 C2824 0.941 . S
H2796 C2816 0.931 1_455 S
O2797 Co2773 2.097 . S
O2797 C2825 1.214 . S
H2798 C2826 0.929 . S
H2799 C2827 0.929 . S
H2800 C2828 0.930 . S
H2801 C2829 0.929 . S
H2802 C2831 0.930 . S
H2803 C2808 0.930 . S
H2804 C2812 0.930 . S
O2805 Co2774 2.037 . S
O2805 C2825 1.234 . S
C2806 O2780 1.269 . S
C2806 O2781 1.257 . S
C2807 H2782 0.930 . S
C2807 C2810 1.388 . S
C2807 C2812 1.418 . S
C2808 H2803 0.930 . S
C2808 C2811 1.404 . S
C2808 C2812 1.353 . S
N2809 Co2774 2.145 . S
N2809 C2810 1.397 . S
N2809 C2811 1.334 . S
C2810 H2791 0.929 . S
C2810 C2807 1.388 . S
C2810 N2809 1.397 . S
C2811 H2792 0.929 . S
C2811 C2808 1.404 . S
C2811 N2809 1.334 . S
C2812 H2804 0.930 . S
C2812 C2807 1.418 . S
C2812 C2808 1.353 . S
C2813 H2783 0.930 . S
C2813 N2814 1.330 . S
C2813 C2815 1.446 . S
N2814 Co2773 2.151 . S
N2814 C2813 1.330 . S
N2814 C2818 1.418 . S
C2815 H2794 0.929 . S
C2815 C2813 1.446 . S
C2815 C2816 1.332 . S
C2816 H2796 0.931 1_655 S
C2816 C2815 1.332 . S
C2816 C2817 1.267 1_655 S
C2817 H2785 0.929 . S
C2817 C2816 1.267 1_455 S
C2817 C2818 1.251 1_455 S
C2818 H2788 0.933 . S
C2818 N2814 1.418 . S
C2818 C2817 1.251 1_655 S
C2819 H2786 0.930 . S
C2819 C2821 1.406 . S
C2819 C2824 1.261 . S
C2820 H2787 0.930 . S
C2820 N2822 1.325 . S
C2820 C2823 1.357 . S
C2821 H2789 0.928 . S
C2821 C2819 1.406 . S
C2821 N2822 1.261 . S
N2822 Co2773 2.214 . S
N2822 C2820 1.325 . S
N2822 C2821 1.261 . S
C2823 H2793 0.931 . S
C2823 C2820 1.357 . S
C2823 C2824 1.312 . S
C2824 H2795 0.941 . S
C2824 C2819 1.261 . S
C2824 C2823 1.312 . S
C2825 O2797 1.214 . S
C2825 O2805 1.234 . S
C2826 H2798 0.929 . S
C2826 C2829 1.391 . S
C2826 C2831 1.391 . S
C2827 H2799 0.929 . S
C2827 C2828 1.390 . S
C2827 N2830 1.391 . S
C2828 H2800 0.930 . S
C2828 C2827 1.390 . S
C2828 C2829 1.392 . S
C2829 H2801 0.929 . S
C2829 C2826 1.391 . S
C2829 C2828 1.392 . S
N2830 Co2774 2.257 . S
N2830 C2827 1.391 . S
N2830 C2831 1.388 . S
C2831 H2802 0.930 . S
C2831 C2826 1.391 . S
C2831 N2830 1.388 . S
C1183 C5 2.459 . S
C92 C1036 2.557 . S
C123 C1095 2.629 . S
C1154 C210 2.629 . S
C1390 C288 2.620 . S
C298 C1272 2.672 . S
C406 C1301 2.465 . S
C416 C947 2.516 . S
C475 C890 2.401 . S
C583 C741 2.634 . S
C593 C772 2.301 . S
C859 C701 2.696 . S
C1468 C2629 2.770 . S
C2422 C1478 1.958 . S
C1586 C2481 2.524 . S
C2570 C1596 2.453 . S
C1657 C2776 2.068 . S
C2658 C1744 2.564 . S
C1775 C2717 1.948 . S
C2393 C1862 2.838 . S
C1921 C2353 2.685 . S
C2127 C1952 2.163 . S
C2235 C2039 2.628 . S
C2245 C2070 2.216 . S
C1539 C52 1.489 . S
C62 C1626 1.436 1_556 S
C170 C1421 1.459 . S
C180 C1508 1.689 1_556 S
C241 C1822 1.709 . S
C1832 C328 1.469 1_556 S
C1704 C359 1.522 . S
C1714 C446 1.501 1_556 S
C2157 C505 1.755 . S
C536 C2188 1.315 1_565 S
C2275 C623 1.721 . S
C654 C2306 1.275 1_545 S
C711 C1891 1.382 . S
C819 C1999 1.624 1_565 S
C2009 C829 1.378 . S
C2117 C937 1.636 1_565 S
C977 C2540 1.591 . S
C1006 C2688 1.498 . S
C2747 C1065 1.684 1_455 S
C2363 C1124 1.335 . S
C1213 C2806 1.695 1_455 S
C2452 C1242 1.733 . S
C1331 C2511 1.715 1_655 S
C1360 C2599 1.286 . S
C1655 C33 1.961 1_655 S
C1763 C64 2.015 . S
C1773 C151 2.159 1_455 S
C182 C1881 2.063 . S
C1449 C239 2.110 1_655 S
C1480 C347 2.106 . S
C357 C1567 1.950 1_655 S
C1598 C465 2.004 . S
C524 C2247 1.948 1_545 S
C534 C2334 2.125 . S
C2129 C642 1.979 1_545 S
C652 C2216 2.167 . S
C2058 C713 2.149 1_545 S
C800 C2068 1.930 . S
C831 C1940 2.135 1_545 S
C918 C1950 1.972 . S
C2660 C996 1.963 1_556 S
C1008 C2589 2.239 1_556 S
C1067 C2648 2.069 . S
C1126 C2424 1.959 1_556 S
C2483 C1232 1.944 . S
C2412 C1244 2.063 1_556 S
C2778 C1350 2.268 . S
C1362 C2719 2.003 . S
C888 C3 2.490 . S
C111 C760 2.251 . S
C770 C121 2.497 . S
C878 C229 2.189 . S
C564 C269 2.317 . S
C300 C595 2.502 . S
C387 C682 2.375 . S
C477 C418 2.455 . S
C949 C1185 2.432 . S
C1409 C1055 2.655 . S
C1291 C1114 1.947 . S
C1173 C1303 2.743 . S
C2304 C1419 2.257 . S
C2176 C1527 2.209 . S
C1537 C2186 2.490 . S
C2294 C1645 2.099 . S
C1980 C1685 2.210 . S
C1716 C2011 2.437 . S
C1803 C2098 2.248 . S
C1834 C1893 2.279 . S
C2365 C2601 2.471 . S
C2825 C2471 2.469 . S
C2707 C2530 1.899 . S
C2766 C2542 2.701 . S
