# Generated by pormake.
# Topology yfy, (5)-cn, num edge types: 1
# Building blocks:
#     Node 0, Type 0, BuildingBlock: XOMCOT_clean_sbu_1, # of connection points: 5
#     Node 1, Type 0, BuildingBlock: XOMCOT_clean_sbu_1, # of connection points: 5
#     Node 2, Type 0, BuildingBlock: XOMCOT_clean_sbu_1, # of connection points: 5
#     Node 3, Type 0, BuildingBlock: XOMCOT_clean_sbu_1, # of connection points: 5
#     Node 4, Type 0, BuildingBlock: XOMCOT_clean_sbu_1, # of connection points: 5
#     Node 5, Type 0, BuildingBlock: XOMCOT_clean_sbu_1, # of connection points: 5
#     Node 6, Type 0, BuildingBlock: XOMCOT_clean_sbu_1, # of connection points: 5
#     Node 7, Type 0, BuildingBlock: XOMCOT_clean_sbu_1, # of connection points: 5
#     Node 8, Type 0, BuildingBlock: XOMCOT_clean_sbu_1, # of connection points: 5
#     Node 9, Type 0, BuildingBlock: XOMCOT_clean_sbu_1, # of connection points: 5
#     Node 10, Type 0, BuildingBlock: XOMCOT_clean_sbu_1, # of connection points: 5
#     Node 11, Type 0, BuildingBlock: XOMCOT_clean_sbu_1, # of connection points: 5
#     Node 12, Type 0, BuildingBlock: XOMCOT_clean_sbu_1, # of connection points: 5
#     Node 13, Type 0, BuildingBlock: XOMCOT_clean_sbu_1, # of connection points: 5
#     Node 14, Type 0, BuildingBlock: XOMCOT_clean_sbu_1, # of connection points: 5
#     Node 15, Type 0, BuildingBlock: XOMCOT_clean_sbu_1, # of connection points: 5
#     Edge 16, Type (0, 0), BuildingBlock: XUDNAN_clean_linker_2, # of connection points: 2
#     Edge 17, Type (0, 0), BuildingBlock: XUDNAN_clean_linker_2, # of connection points: 2
#     Edge 18, Type (0, 0), BuildingBlock: XUDNAN_clean_linker_2, # of connection points: 2
#     Edge 19, Type (0, 0), BuildingBlock: XUDNAN_clean_linker_2, # of connection points: 2
#     Edge 20, Type (0, 0), BuildingBlock: XUDNAN_clean_linker_2, # of connection points: 2
#     Edge 21, Type (0, 0), BuildingBlock: XUDNAN_clean_linker_2, # of connection points: 2
#     Edge 22, Type (0, 0), BuildingBlock: XUDNAN_clean_linker_2, # of connection points: 2
#     Edge 23, Type (0, 0), BuildingBlock: XUDNAN_clean_linker_2, # of connection points: 2
#     Edge 24, Type (0, 0), BuildingBlock: XUDNAN_clean_linker_2, # of connection points: 2
#     Edge 25, Type (0, 0), BuildingBlock: XUDNAN_clean_linker_2, # of connection points: 2
#     Edge 26, Type (0, 0), BuildingBlock: XUDNAN_clean_linker_2, # of connection points: 2
#     Edge 27, Type (0, 0), BuildingBlock: XUDNAN_clean_linker_2, # of connection points: 2
#     Edge 28, Type (0, 0), BuildingBlock: XUDNAN_clean_linker_2, # of connection points: 2
#     Edge 29, Type (0, 0), BuildingBlock: XUDNAN_clean_linker_2, # of connection points: 2
#     Edge 30, Type (0, 0), BuildingBlock: XUDNAN_clean_linker_2, # of connection points: 2
#     Edge 31, Type (0, 0), BuildingBlock: XUDNAN_clean_linker_2, # of connection points: 2
#     Edge 32, Type (0, 0), BuildingBlock: XUDNAN_clean_linker_2, # of connection points: 2
#     Edge 33, Type (0, 0), BuildingBlock: XUDNAN_clean_linker_2, # of connection points: 2
#     Edge 34, Type (0, 0), BuildingBlock: XUDNAN_clean_linker_2, # of connection points: 2
#     Edge 35, Type (0, 0), BuildingBlock: XUDNAN_clean_linker_2, # of connection points: 2
#     Edge 36, Type (0, 0), BuildingBlock: XUDNAN_clean_linker_2, # of connection points: 2
#     Edge 37, Type (0, 0), BuildingBlock: XUDNAN_clean_linker_2, # of connection points: 2
#     Edge 38, Type (0, 0), BuildingBlock: XUDNAN_clean_linker_2, # of connection points: 2
#     Edge 39, Type (0, 0), BuildingBlock: XUDNAN_clean_linker_2, # of connection points: 2
#     Edge 40, Type (0, 0), BuildingBlock: XUDNAN_clean_linker_2, # of connection points: 2
#     Edge 41, Type (0, 0), BuildingBlock: XUDNAN_clean_linker_2, # of connection points: 2
#     Edge 42, Type (0, 0), BuildingBlock: XUDNAN_clean_linker_2, # of connection points: 2
#     Edge 43, Type (0, 0), BuildingBlock: XUDNAN_clean_linker_2, # of connection points: 2
#     Edge 44, Type (0, 0), BuildingBlock: XUDNAN_clean_linker_2, # of connection points: 2
#     Edge 45, Type (0, 0), BuildingBlock: XUDNAN_clean_linker_2, # of connection points: 2
#     Edge 46, Type (0, 0), BuildingBlock: XUDNAN_clean_linker_2, # of connection points: 2
#     Edge 47, Type (0, 0), BuildingBlock: XUDNAN_clean_linker_2, # of connection points: 2
#     Edge 48, Type (0, 0), BuildingBlock: XUDNAN_clean_linker_2, # of connection points: 2
#     Edge 49, Type (0, 0), BuildingBlock: XUDNAN_clean_linker_2, # of connection points: 2
#     Edge 50, Type (0, 0), BuildingBlock: XUDNAN_clean_linker_2, # of connection points: 2
#     Edge 51, Type (0, 0), BuildingBlock: XUDNAN_clean_linker_2, # of connection points: 2
#     Edge 52, Type (0, 0), BuildingBlock: XUDNAN_clean_linker_2, # of connection points: 2
#     Edge 53, Type (0, 0), BuildingBlock: XUDNAN_clean_linker_2, # of connection points: 2
#     Edge 54, Type (0, 0), BuildingBlock: XUDNAN_clean_linker_2, # of connection points: 2
#     Edge 55, Type (0, 0), BuildingBlock: XUDNAN_clean_linker_2, # of connection points: 2
# Relax obj value: 0.171
# Max RMSD: 0.197
# Mean RMSD: 0.197
data_MOF--net-yfy--node1-XOMCOT_clean_sbu_1--edge1-XUDNAN_clean_linker_2
_symmetry_space_group_name_H-M    P1
_symmetry_Int_Tables_number       1
_symmetry_cell_setting            triclinic
loop_
_symmetry_equiv_pos_as_xyz
'x, y, z'
_cell_length_a     43.64589
_cell_length_b     43.642347
_cell_length_c     50.886586
_cell_angle_alpha  89.996179
_cell_angle_beta   89.813553
_cell_angle_gamma 89.954137
loop_
_atom_site_label
_atom_site_type_symbol
_atom_site_fract_x
_atom_site_fract_y
_atom_site_fract_z
_atom_type_partial_charge
C0 C 0.98034 0.29853 0.32778 0.0
C1 C 0.96107 0.27389 0.32524 0.0
N2 N 0.97351 0.25409 0.30791 0.0
N3 N 1.00498 0.29454 0.31213 0.0
C4 C 1.00028 0.26709 0.30026 0.0
H5 H 0.97626 0.31859 0.33976 0.0
Co6 Co 0.03471 0.32517 0.30763 0.0
C7 C 0.09254 0.29279 0.29913 0.0
O8 O 0.10426 0.31232 0.31588 0.0
N9 N 0.06478 0.35755 0.30263 0.0
C10 C 0.10071 0.39333 0.30862 0.0
C11 C 0.083 0.37155 0.32054 0.0
C12 C 0.07235 0.37182 0.27974 0.0
N13 N 0.09401 0.39382 0.28288 0.0
O14 O 0.01693 0.33418 0.27405 0.0
H15 H 0.08523 0.36551 0.34096 0.0
H16 H 0.06219 0.36612 0.26104 0.0
O17 O 0.06399 0.29442 0.29346 0.0
C18 C 0.99763 0.35436 0.2819 0.0
O19 O 0.99958 0.36438 0.30615 0.0
N20 N 0.04667 0.31882 0.34237 0.0
C21 C 0.04545 0.31405 0.39687 0.0
C22 C 0.05581 0.28938 0.38144 0.0
C23 C 0.05575 0.29206 0.35394 0.0
C24 C 0.03624 0.34254 0.35732 0.0
C25 C 0.03651 0.3411 0.38441 0.0
H26 H 0.06109 0.27219 0.34211 0.0
H27 H 0.02741 0.36296 0.34809 0.0
H28 H 1.0154 0.25747 0.28551 0.0
H29 H 0.9393 0.27091 0.33516 0.0
H30 H 0.11816 0.40682 0.31824 0.0
H31 H 0.06216 0.26781 0.39043 0.0
H32 H 0.02869 0.36083 0.39549 0.0
C33 C 0.82671 0.97622 0.33005 0.0
C34 C 0.85129 0.95707 0.32649 0.0
N35 N 0.86936 0.96864 0.30736 0.0
N36 N 0.82876 1.0 0.31328 0.0
C37 C 0.85498 0.99479 0.29962 0.0
H38 H 0.80829 0.97283 0.34399 0.0
Co39 Co 0.79863 0.03082 0.31163 0.0
C40 C 0.82961 0.08811 0.29499 0.0
O41 O 0.80985 0.10231 0.31015 0.0
N42 N 0.76675 0.06152 0.30991 0.0
C43 C 0.73295 0.09872 0.31872 0.0
C44 C 0.75408 0.07892 0.32922 0.0
C45 C 0.75201 0.07109 0.28785 0.0
N46 N 0.73158 0.09369 0.29277 0.0
O47 O 0.78185 1.01207 0.28012 0.0
H48 H 0.76027 0.07871 0.34967 0.0
H49 H 0.75667 0.06229 0.26837 0.0
O50 O 0.82804 0.05877 0.29266 0.0
C51 C 0.7616 0.99537 0.29155 0.0
O52 O 0.76146 0.99478 0.31732 0.0
N53 N 0.81171 0.0447 0.34455 0.0
C54 C 0.8221 0.05833 0.39712 0.0
C55 C 0.84321 0.06748 0.37777 0.0
C56 C 0.83799 0.05962 0.35145 0.0
C57 C 0.7925 0.03373 0.36349 0.0
C58 C 0.79691 0.04068 0.38973 0.0
H59 H 0.85517 0.06527 0.33698 0.0
H60 H 0.77253 0.02068 0.35814 0.0
H61 H 0.86332 1.00995 0.28441 0.0
H62 H 0.85504 0.93593 0.33708 0.0
H63 H 0.71951 0.11552 0.32936 0.0
H64 H 0.86359 0.08022 0.38297 0.0
H65 H 0.78004 0.0331 0.40399 0.0
C66 C 0.13334 0.83138 0.34013 0.0
C67 C 0.15496 0.85418 0.33822 0.0
N68 N 0.15691 0.86303 0.31291 0.0
N69 N 0.12093 0.82644 0.31625 0.0
C70 C 0.13694 0.84501 0.29993 0.0
H71 H 0.12625 0.82004 0.35805 0.0
Co72 Co 0.08733 0.801 0.30795 0.0
C73 C 0.06379 0.85951 0.277 0.0
O74 O 0.08823 0.87023 0.26513 0.0
N75 N 0.05352 0.77597 0.29922 0.0
C76 C 1.00479 0.76299 0.29294 0.0
C77 C 0.02412 0.78518 0.30207 0.0
C78 C 0.05137 0.74756 0.28855 0.0
N79 N 0.02187 0.73937 0.2845 0.0
O80 O 0.10943 0.78713 0.27708 0.0
H81 H 0.01701 0.80681 0.31029 0.0
H82 H 0.07084 0.73355 0.28312 0.0
O83 O 0.06552 0.83539 0.29118 0.0
C84 C 0.12639 0.76684 0.28815 0.0
O85 O 0.12132 0.76061 0.31308 0.0
N86 N 0.06858 0.81103 0.33981 0.0
C87 C 0.05107 0.81999 0.39195 0.0
C88 C 0.05453 0.84506 0.37479 0.0
C89 C 0.06315 0.84007 0.34865 0.0
C90 C 0.06446 0.78646 0.35589 0.0
C91 C 0.05506 0.79035 0.38179 0.0
H92 H 0.06757 0.85957 0.33611 0.0
H93 H 0.06944 0.76364 0.34876 0.0
H94 H 0.13376 0.84568 0.27894 0.0
H95 H 0.16766 0.86408 0.35436 0.0
H96 H 0.98001 0.7641 0.29234 0.0
H97 H 0.05225 0.8684 0.38171 0.0
H98 H 0.05187 0.77019 0.39387 0.0
C99 C 0.30735 0.14545 0.32414 0.0
C100 C 0.28376 0.16579 0.32091 0.0
N101 N 0.26349 0.15367 0.30392 0.0
N102 N 0.30223 0.12041 0.30932 0.0
C103 C 0.27515 0.12596 0.29723 0.0
H104 H 0.32699 0.14861 0.33674 0.0
Co105 Co 0.32975 0.08761 0.30868 0.0
C106 C 0.29133 0.03278 0.30027 0.0
O107 O 0.30657 0.01942 0.3192 0.0
N108 N 0.35907 0.05418 0.30809 0.0
C109 C 0.39016 0.01612 0.32047 0.0
C110 C 0.36654 0.03479 0.32793 0.0
C111 C 0.37884 0.04603 0.2885 0.0
N112 N 0.39816 0.02334 0.29578 0.0
O113 O 0.3438 0.10058 0.27475 0.0
H114 H 0.3554 0.03336 0.34683 0.0
H115 H 0.37998 0.05711 0.26953 0.0
O116 O 0.29762 0.06043 0.29371 0.0
C117 C 0.36506 0.11908 0.28155 0.0
O118 O 0.37042 0.1231 0.30667 0.0
N119 N 0.31887 0.07935 0.34347 0.0
C120 C 0.31198 0.07227 0.39723 0.0
C121 C 0.28743 0.066 0.3804 0.0
C122 C 0.29107 0.07065 0.35334 0.0
C123 C 0.34174 0.0883 0.35999 0.0
C124 C 0.33902 0.08438 0.38696 0.0
H125 H 0.27177 0.0672 0.34048 0.0
H126 H 0.3629 0.09718 0.35199 0.0
H127 H 0.26441 0.11027 0.28363 0.0
H128 H 0.28147 0.18766 0.33075 0.0
H129 H 0.40081 0.99856 0.33239 0.0
H130 H 0.26587 0.05751 0.38807 0.0
H131 H 0.35819 0.08986 0.3996 0.0
C132 C 0.97749 0.82037 0.66355 0.0
C133 C 0.95957 0.84594 0.66758 0.0
N134 N 0.97697 0.86755 0.67902 0.0
N135 N 1.00597 0.8257 0.67274 0.0
C136 C 1.00491 0.85483 0.6819 0.0
H137 H 0.9701 0.79919 0.65458 0.0
Co138 Co 0.03834 0.79725 0.67394 0.0
C139 C 0.08818 0.83261 0.70221 0.0
O140 O 0.09589 0.80986 0.71774 0.0
N141 N 0.07142 0.76867 0.67573 0.0
C142 C 0.11733 0.74681 0.67086 0.0
C143 C 0.09776 0.76912 0.66168 0.0
C144 C 0.07584 0.74583 0.69343 0.0
N145 N 0.10359 0.7323 0.69104 0.0
O146 O 0.02469 0.78532 0.70828 0.0
H147 H 0.10319 0.7856 0.6465 0.0
H148 H 0.05954 0.73972 0.70852 0.0
O149 O 0.06609 0.82932 0.68606 0.0
C150 C 1.00479 0.76497 0.70204 0.0
O151 O 1.00229 0.75737 0.67714 0.0
N152 N 0.04755 0.80637 0.63904 0.0
C153 C 0.04706 0.81694 0.58509 0.0
C154 C 0.05346 0.8408 0.6027 0.0
C155 C 0.05344 0.83506 0.6297 0.0
C156 C 0.04178 0.78281 0.62221 0.0
C157 C 0.04175 0.7875 0.59512 0.0
H158 H 0.05633 0.85401 0.64298 0.0
H159 H 0.03594 0.76048 0.62996 0.0
H160 H 0.02399 0.86652 0.69095 0.0
H161 H 0.93576 0.84867 0.66213 0.0
H162 H 0.14056 0.74284 0.66416 0.0
H163 H 0.05764 0.86388 0.59573 0.0
H164 H 0.03616 0.76856 0.58225 0.0
C165 C 0.29789 0.98805 0.64483 0.0
C166 C 0.2748 0.96666 0.64525 0.0
N167 N 0.26188 0.96677 0.66929 0.0
N168 N 0.29885 1.00263 0.66821 0.0
C169 C 0.27748 0.98809 0.68308 0.0
H170 H 0.31204 0.99365 0.62803 0.0
Co171 Co 0.32425 0.03648 0.67657 0.0
C172 C 0.26085 0.062 0.69397 0.0
O173 O 0.24312 0.04052 0.68442 0.0
N174 N 0.34936 0.07041 0.68509 0.0
C175 C 0.36416 0.1192 0.68685 0.0
C176 C 0.34091 0.09969 0.68016 0.0
C177 C 0.37802 0.07285 0.69513 0.0
N178 N 0.38737 0.10236 0.69628 0.0
O179 O 0.33456 0.01645 0.70898 0.0
H180 H 0.31934 0.10649 0.67153 0.0
H181 H 0.39205 0.05353 0.70084 0.0
O182 O 0.28995 0.06036 0.69136 0.0
C183 C 0.35577 0.99892 0.70004 0.0
O184 O 0.36496 1.00281 0.67564 0.0
N185 N 0.31809 0.05299 0.64312 0.0
C186 C 0.31714 0.06053 0.58903 0.0
C187 C 0.29 0.06319 0.60366 0.0
C188 C 0.29091 0.05907 0.63094 0.0
C189 C 0.3448 0.05247 0.62918 0.0
C190 C 0.34486 0.0562 0.6021 0.0
H191 H 0.26965 0.0581 0.64166 0.0
H192 H 0.36605 0.04686 0.63891 0.0
H193 H 0.27187 0.9946 0.70305 0.0
H194 H 0.26686 0.95329 0.6287 0.0
H195 H 0.36425 0.14389 0.68472 0.0
H196 H 0.26814 0.06593 0.59392 0.0
H197 H 0.36614 0.05374 0.59126 0.0
C198 C 0.14799 0.30202 0.65347 0.0
C199 C 0.16814 0.278 0.65612 0.0
N200 N 0.15742 0.25901 0.67492 0.0
N201 N 0.12451 0.29823 0.67038 0.0
C202 C 0.13096 0.27194 0.68333 0.0
H203 H 0.15048 0.32128 0.64026 0.0
Co204 Co 0.09221 0.32578 0.67474 0.0
C205 C 0.04215 0.29033 0.70257 0.0
O206 O 0.03204 0.3147 0.715 0.0
N207 N 0.05927 0.35461 0.67919 0.0
C208 C 0.01726 0.3828 0.67234 0.0
C209 C 0.03491 0.35901 0.66315 0.0
C210 C 0.05521 0.37594 0.69841 0.0
N211 N 0.03 0.39321 0.69452 0.0
O212 O 0.10909 0.33691 0.70823 0.0
H213 H 0.02987 0.34589 0.6457 0.0
H214 H 0.07022 0.37896 0.71506 0.0
O215 O 0.06617 0.29231 0.68822 0.0
C216 C 0.12651 0.35895 0.70082 0.0
O217 O 0.12565 0.36724 0.676 0.0
N218 N 0.07989 0.31758 0.64053 0.0
C219 C 0.06647 0.31271 0.5876 0.0
C220 C 0.05884 0.28889 0.60479 0.0
C221 C 0.0661 0.29162 0.63139 0.0
C222 C 0.08836 0.34039 0.62371 0.0
C223 C 0.08166 0.33852 0.59709 0.0
H224 H 0.06062 0.27295 0.64436 0.0
H225 H 0.09989 0.36046 0.63115 0.0
H226 H 0.11646 0.26245 0.69857 0.0
H227 H 0.18936 0.27515 0.64534 0.0
H228 H 0.99652 0.39171 0.66354 0.0
H229 H 0.04713 0.26863 0.59775 0.0
H230 H 0.08779 0.35725 0.58412 0.0
C231 C 0.81923 0.15028 0.66804 0.0
C232 C 0.84357 0.17016 0.67052 0.0
N233 N 0.86689 0.15492 0.68173 0.0
N234 N 0.82704 0.12263 0.6779 0.0
C235 C 0.85637 0.12633 0.68617 0.0
H236 H 0.79744 0.15553 0.65904 0.0
Co237 Co 0.80201 0.08702 0.67851 0.0
C238 C 0.85599 0.04378 0.6784 0.0
O239 O 0.85218 0.03731 0.65352 0.0
N240 N 0.77707 0.05057 0.68026 0.0
C241 C 0.76022 1.00298 0.6733 0.0
C242 C 0.78302 0.02361 0.66811 0.0
C243 C 0.75013 0.04522 0.69308 0.0
N244 N 0.73944 0.01649 0.68894 0.0
O245 O 0.78981 0.09751 0.71357 0.0
H246 H 0.8018 0.01921 0.65501 0.0
H247 H 0.73798 0.06213 0.70458 0.0
O248 O 0.83776 0.06212 0.69052 0.0
C249 C 0.76807 0.11613 0.7079 0.0
O250 O 0.75998 0.1192 0.68319 0.0
N251 N 0.80963 0.08121 0.64217 0.0
C252 C 0.81218 0.08423 0.58757 0.0
C253 C 0.83809 0.09093 0.60254 0.0
C254 C 0.8363 0.08955 0.62985 0.0
C255 C 0.78388 0.07608 0.62756 0.0
C256 C 0.7849 0.07641 0.60021 0.0
H257 H 0.85647 0.09527 0.64102 0.0
H258 H 0.76193 0.07285 0.63702 0.0
H259 H 0.87012 0.10839 0.69486 0.0
H260 H 0.84446 0.19369 0.66382 0.0
H261 H 0.75875 0.97982 0.66577 0.0
H262 H 0.85943 0.0975 0.59319 0.0
H263 H 0.76422 0.07208 0.58909 0.0
C264 C 0.48407 0.79271 0.83281 0.0
C265 C 0.46434 0.76832 0.83085 0.0
N266 N 0.46809 0.75541 0.80709 0.0
N267 N 0.5013 0.79459 0.81078 0.0
C268 C 0.48996 0.77228 0.79498 0.0
H269 H 0.48658 0.80731 0.84982 0.0
Co270 Co 0.53356 0.82324 0.80582 0.0
C271 C 0.56659 0.7637 0.78769 0.0
O272 O 0.54576 0.74391 0.79521 0.0
N273 N 0.56591 0.85243 0.80048 0.0
C274 C 0.61081 0.87676 0.80358 0.0
C275 C 0.59263 0.85401 0.81388 0.0
C276 C 0.56915 0.87408 0.78146 0.0
N277 N 0.59607 0.88929 0.78311 0.0
O278 O 0.51572 0.83414 0.77273 0.0
H279 H 0.59932 0.83884 0.82964 0.0
H280 H 0.55261 0.87825 0.76612 0.0
O281 O 0.56242 0.79248 0.79114 0.0
C282 C 0.49749 0.85526 0.78079 0.0
O283 O 0.49781 0.86237 0.8059 0.0
N284 N 0.5471 0.81577 0.84011 0.0
C285 C 0.54959 0.80908 0.89437 0.0
C286 C 0.5554 0.78404 0.87784 0.0
C287 C 0.55404 0.78786 0.85064 0.0
C288 C 0.54258 0.84056 0.856 0.0
C289 C 0.54416 0.83783 0.8832 0.0
H290 H 0.55597 0.76789 0.83848 0.0
H291 H 0.53603 0.8623 0.84751 0.0
H292 H 0.49881 0.76729 0.77556 0.0
H293 H 0.44959 0.75961 0.84628 0.0
H294 H 0.63386 0.88244 0.8097 0.0
H295 H 0.55953 0.76144 0.8859 0.0
H296 H 0.53913 0.85759 0.89536 0.0
C297 C 0.31672 0.4769 0.83071 0.0
C298 C 0.33813 0.45412 0.83292 0.0
N299 N 0.36325 0.46196 0.8189 0.0
N300 N 0.32767 0.49916 0.81504 0.0
C301 C 0.35615 0.48948 0.80803 0.0
H302 H 0.29437 0.4772 0.83994 0.0
Co303 Co 0.30431 0.53403 0.80718 0.0
C304 C 0.34519 0.57407 0.77501 0.0
O305 O 0.32326 0.57977 0.75806 0.0
N306 N 0.28052 0.5696 0.79963 0.0
C307 C 0.26471 0.61819 0.80126 0.0
C308 C 0.28719 0.59801 0.80865 0.0
C309 C 0.25383 0.57342 0.78634 0.0
N310 N 0.24389 0.60273 0.78719 0.0
O311 O 0.29339 0.51538 0.77434 0.0
H312 H 0.30715 0.60379 0.82015 0.0
H313 H 0.24147 0.55515 0.77672 0.0
O314 O 0.34062 0.55476 0.79347 0.0
C315 C 0.27006 0.49974 0.78171 0.0
O316 O 0.25864 0.50482 0.80523 0.0
N317 N 0.3119 0.54876 0.84073 0.0
C318 C 0.31623 0.56474 0.89336 0.0
C319 C 0.3421 0.56608 0.87695 0.0
C320 C 0.33956 0.5575 0.85061 0.0
C321 C 0.28666 0.54711 0.85647 0.0
C322 C 0.2883 0.55498 0.8829 0.0
H323 H 0.35983 0.55735 0.83844 0.0
H324 H 0.26512 0.53939 0.8484 0.0
H325 H 0.37144 0.50251 0.79555 0.0
H326 H 0.33498 0.43316 0.84393 0.0
H327 H 0.2636 0.64238 0.80591 0.0
H328 H 0.36417 0.57303 0.88458 0.0
H329 H 0.26786 0.55371 0.89499 0.0
C330 C 0.65055 0.31769 0.82792 0.0
C331 C 0.67072 0.34159 0.82938 0.0
N332 N 0.6603 0.36461 0.81421 0.0
N333 N 0.62732 0.32516 0.81176 0.0
C334 C 0.63395 0.35402 0.80352 0.0
H335 H 0.65222 0.29646 0.83877 0.0
Co336 Co 0.59415 0.29838 0.80689 0.0
C337 C 0.55611 0.35242 0.77945 0.0
O338 O 0.56942 0.36222 0.75785 0.0
N339 N 0.56007 0.27112 0.80188 0.0
C340 C 0.51519 0.24708 0.80659 0.0
C341 C 0.5344 0.26886 0.81681 0.0
C342 C 0.55511 0.25069 0.78218 0.0
N343 N 0.52824 0.23557 0.78479 0.0
O344 O 0.61093 0.28591 0.77341 0.0
H345 H 0.52932 0.28236 0.83405 0.0
H346 H 0.57067 0.2469 0.76598 0.0
O347 O 0.56854 0.33086 0.7927 0.0
C348 C 0.62792 0.26368 0.78117 0.0
O349 O 0.62944 0.25811 0.80647 0.0
N350 N 0.58145 0.30678 0.84109 0.0
C351 C 0.56474 0.30859 0.89376 0.0
C352 C 0.56257 0.33508 0.87817 0.0
C353 C 0.5714 0.33376 0.85162 0.0
C354 C 0.58595 0.28177 0.85661 0.0
C355 C 0.57731 0.28201 0.88284 0.0
H356 H 0.56987 0.35409 0.83957 0.0
H357 H 0.59525 0.261 0.84821 0.0
H358 H 0.61926 0.36752 0.79097 0.0
H359 H 0.69123 0.34227 0.84128 0.0
H360 H 0.49287 0.24087 0.81424 0.0
H361 H 0.55351 0.3562 0.88624 0.0
H362 H 0.5801 0.26138 0.89445 0.0
C363 C 0.80255 0.64414 0.83248 0.0
C364 C 0.77957 0.66557 0.83013 0.0
N365 N 0.76297 0.65889 0.80859 0.0
N366 N 0.80037 0.62373 0.81268 0.0
C367 C 0.77628 0.63359 0.79822 0.0
H368 H 0.8193 0.64297 0.84806 0.0
Co369 Co 0.82531 0.58867 0.80844 0.0
C370 C 0.77229 0.5545 0.77431 0.0
O371 O 0.76672 0.56442 0.75042 0.0
N372 N 0.85036 0.55305 0.80308 0.0
C373 C 0.86497 0.50418 0.80007 0.0
C374 C 0.84226 0.52378 0.80819 0.0
C375 C 0.87845 0.55035 0.79172 0.0
N376 N 0.88788 0.52085 0.78961 0.0
O377 O 0.84487 0.60862 0.77892 0.0
H378 H 0.82115 0.51676 0.81723 0.0
H379 H 0.89173 0.56958 0.78481 0.0
O380 O 0.79318 0.56792 0.78781 0.0
C381 C 0.86521 0.62283 0.79252 0.0
O382 O 0.86586 0.61769 0.81799 0.0
N383 N 0.81024 0.57315 0.84041 0.0
C384 C 0.79741 0.56876 0.89397 0.0
C385 C 0.77404 0.57556 0.87603 0.0
C386 C 0.78098 0.57783 0.84925 0.0
C387 C 0.83296 0.56598 0.85773 0.0
C388 C 0.82692 0.56298 0.88443 0.0
H389 H 0.7632 0.58479 0.83575 0.0
H390 H 0.85653 0.56484 0.85123 0.0
H391 H 0.76802 0.62192 0.7809 0.0
H392 H 0.77536 0.68453 0.84337 0.0
H393 H 0.86403 0.47945 0.80108 0.0
H394 H 0.75096 0.58036 0.88275 0.0
H395 H 0.84577 0.55859 0.89772 0.0
C396 C 0.47709 0.32121 0.15687 0.0
C397 C 0.45727 0.34536 0.16085 0.0
N398 N 0.46794 0.36228 0.18093 0.0
N399 N 0.50056 0.32334 0.17398 0.0
C400 C 0.49412 0.34852 0.18859 0.0
H401 H 0.47505 0.3037 0.14193 0.0
Co402 Co 0.53499 0.29724 0.1761 0.0
C403 C 0.58216 0.34716 0.17757 0.0
O404 O 0.59288 0.33922 0.15452 0.0
N405 N 0.57046 0.271 0.17917 0.0
C406 C 0.61738 0.25072 0.17492 0.0
C407 C 0.59728 0.27234 0.16565 0.0
C408 C 0.57496 0.24734 0.19609 0.0
N409 N 0.60326 0.23506 0.19404 0.0
O410 O 0.52284 0.28651 0.21133 0.0
H411 H 0.60196 0.28696 0.14912 0.0
H412 H 0.55801 0.23915 0.20971 0.0
O413 O 0.55992 0.33254 0.18823 0.0
C414 C 0.50103 0.26752 0.20711 0.0
O415 O 0.49412 0.26075 0.18268 0.0
N416 N 0.54276 0.30382 0.14003 0.0
C417 C 0.54152 0.30368 0.08513 0.0
C418 C 0.53988 0.33137 0.09914 0.0
C419 C 0.53993 0.33091 0.1267 0.0
C420 C 0.54369 0.27684 0.12654 0.0
C421 C 0.54402 0.27629 0.09926 0.0
H422 H 0.53658 0.35212 0.13734 0.0
H423 H 0.54313 0.2553 0.13702 0.0
H424 H 0.50878 0.3572 0.204 0.0
H425 H 0.43694 0.35054 0.14955 0.0
H426 H 0.64033 0.24626 0.16773 0.0
H427 H 0.53703 0.35298 0.08896 0.0
H428 H 0.54525 0.25435 0.08935 0.0
C429 C 0.80202 0.4742 0.16436 0.0
C430 C 0.77651 0.45637 0.16831 0.0
N431 N 0.7542 0.47419 0.17838 0.0
N432 N 0.79601 0.50313 0.1721 0.0
C433 C 0.7665 0.5025 0.18037 0.0
H434 H 0.82386 0.46642 0.15681 0.0
Co435 Co 0.82617 0.5333 0.17294 0.0
C436 C 0.79686 0.59147 0.19135 0.0
O437 O 0.8185 0.60688 0.17931 0.0
N438 N 0.85831 0.56321 0.17396 0.0
C439 C 0.89345 0.59847 0.16394 0.0
C440 C 0.87133 0.57938 0.15411 0.0
C441 C 0.87359 0.57284 0.19567 0.0
N442 N 0.89489 0.59429 0.19004 0.0
O443 O 0.84081 0.51582 0.20501 0.0
H444 H 0.86498 0.57851 0.1337 0.0
H445 H 0.8686 0.56504 0.2154 0.0
O446 O 0.79729 0.56202 0.19101 0.0
C447 C 0.86337 0.49932 0.19737 0.0
O448 O 0.87166 0.50086 0.17256 0.0
N449 N 0.8137 0.5462 0.1398 0.0
C450 C 0.8027 0.55768 0.08672 0.0
C451 C 0.78267 0.56889 0.10625 0.0
C452 C 0.78847 0.5627 0.13277 0.0
C453 C 0.83184 0.53315 0.12109 0.0
C454 C 0.82747 0.5394 0.09462 0.0
H455 H 0.77226 0.57055 0.1473 0.0
H456 H 0.85085 0.51884 0.12694 0.0
H457 H 0.75452 0.52197 0.18852 0.0
H458 H 0.77446 0.43215 0.16406 0.0
H459 H 0.90744 0.61427 0.15273 0.0
H460 H 0.76239 0.58185 0.10118 0.0
H461 H 0.84387 0.53029 0.08068 0.0
C462 C 0.63677 0.78898 0.14672 0.0
C463 C 0.65764 0.76578 0.15068 0.0
N464 N 0.65375 0.75506 0.17522 0.0
N465 N 0.61936 0.79242 0.16852 0.0
C466 C 0.63097 0.77193 0.18583 0.0
H467 H 0.63412 0.8022 0.12889 0.0
Co468 Co 0.58771 0.82137 0.17315 0.0
C469 C 0.55499 0.76239 0.19247 0.0
O470 O 0.57556 0.74233 0.1848 0.0
N471 N 0.55585 0.85025 0.17827 0.0
C472 C 0.50884 0.87009 0.17936 0.0
C473 C 0.52655 0.84624 0.17048 0.0
C474 C 0.5552 0.87677 0.19211 0.0
N475 N 0.5268 0.88927 0.19311 0.0
O476 O 0.60556 0.83335 0.20584 0.0
H477 H 0.51821 0.82647 0.15986 0.0
H478 H 0.5749 0.88633 0.20195 0.0
O479 O 0.55967 0.79111 0.18913 0.0
C480 C 0.62738 0.85125 0.19884 0.0
O481 O 0.63226 0.85536 0.17358 0.0
N482 N 0.57292 0.81303 0.13948 0.0
C483 C 0.55592 0.80846 0.08685 0.0
C484 C 0.55607 0.78249 0.10321 0.0
C485 C 0.56458 0.78527 0.12953 0.0
C486 C 0.57374 0.83827 0.12374 0.0
C487 C 0.56461 0.8367 0.09764 0.0
H488 H 0.56564 0.76493 0.14134 0.0
H489 H 0.58146 0.85994 0.13164 0.0
H490 H 0.62236 0.76886 0.20563 0.0
H491 H 0.67371 0.75674 0.1364 0.0
H492 H 0.48426 0.87213 0.17718 0.0
H493 H 0.55066 0.75996 0.09567 0.0
H494 H 0.5646 0.85753 0.0861 0.0
C495 C 0.31047 0.65267 0.16384 0.0
C496 C 0.33104 0.67603 0.16765 0.0
N497 N 0.35479 0.66506 0.18163 0.0
N498 N 0.321 0.62698 0.17543 0.0
C499 C 0.34819 0.63522 0.18615 0.0
H500 H 0.28911 0.65425 0.15321 0.0
Co501 Co 0.29894 0.58997 0.17589 0.0
C502 C 0.35424 0.54805 0.17637 0.0
O503 O 0.35069 0.5435 0.15116 0.0
N504 N 0.27612 0.55213 0.17726 0.0
C505 C 0.26094 0.50424 0.169 0.0
C506 C 0.28283 0.52593 0.16417 0.0
C507 C 0.24979 0.54512 0.19038 0.0
N508 N 0.24002 0.51629 0.18536 0.0
O509 O 0.28525 0.60074 0.21066 0.0
H510 H 0.30138 0.52281 0.15055 0.0
H511 H 0.23732 0.56092 0.20278 0.0
O512 O 0.33594 0.56616 0.18887 0.0
C513 C 0.26159 0.61662 0.20431 0.0
O514 O 0.25243 0.61545 0.17972 0.0
N515 N 0.30788 0.58465 0.13963 0.0
C516 C 0.31272 0.5874 0.08496 0.0
C517 C 0.33753 0.59558 0.10085 0.0
C518 C 0.33444 0.59472 0.12809 0.0
C519 C 0.28309 0.57821 0.12425 0.0
C520 C 0.28526 0.57852 0.09693 0.0
H521 H 0.35368 0.60177 0.13995 0.0
H522 H 0.26098 0.57383 0.13309 0.0
H523 H 0.36266 0.61986 0.19728 0.0
H524 H 0.32891 0.69926 0.16041 0.0
H525 H 0.26021 0.4814 0.16072 0.0
H526 H 0.35908 0.60292 0.09231 0.0
H527 H 0.26518 0.57326 0.08531 0.0
H528 H 0.0854 0.28946 0.43311 0.0
H529 H 0.99662 0.33361 0.42563 0.0
H530 H 0.99208 0.33637 0.47368 0.0
H531 H 0.06438 0.24378 0.49188 0.0
H532 H 0.10186 0.24757 0.50628 0.0
H533 H 0.09767 0.24748 0.47105 0.0
H534 H 0.12593 0.2996 0.46844 0.0
H535 H 0.13003 0.29995 0.50363 0.0
H536 H 0.11172 0.33165 0.48724 0.0
H537 H 0.99838 0.33838 0.52162 0.0
H538 H 1.01426 0.3362 0.56823 0.0
H539 H 0.09767 0.28896 0.54574 0.0
C540 C 0.06477 0.29908 0.44165 0.0
C541 C 0.04159 0.3117 0.42568 0.0
C542 C 1.01498 0.32436 0.43752 0.0
C543 C 1.01205 0.32589 0.46478 0.0
C544 C 0.03564 0.31411 0.47998 0.0
C545 C 0.0613 0.30055 0.46899 0.0
C546 C 0.08345 0.29022 0.49008 0.0
C547 C 0.08705 0.25518 0.4898 0.0
C548 C 0.11462 0.30633 0.48717 0.0
C549 C 0.0665 0.30088 0.51447 0.0
C550 C 0.03891 0.31448 0.50809 0.0
C551 C 0.01964 0.32729 0.527 0.0
C552 C 0.02874 0.32596 0.55327 0.0
C553 C 0.05671 0.31196 0.56016 0.0
C554 C 0.07588 0.29925 0.54067 0.0
H555 H 0.80344 0.03874 0.55186 0.0
H556 H 0.82372 0.13553 0.55919 0.0
H557 H 0.82849 0.13968 0.51079 0.0
H558 H 0.85739 0.02391 0.50134 0.0
H559 H 0.83389 0.99654 0.48417 0.0
H560 H 0.82943 1.00158 0.5191 0.0
H561 H 0.77167 1.01326 0.51307 0.0
H562 H 0.77583 1.00776 0.47817 0.0
H563 H 0.76005 0.04306 0.49067 0.0
H564 H 0.83324 0.13269 0.46212 0.0
H565 H 0.83521 0.11548 0.4158 0.0
H566 H 0.81426 0.02274 0.4408 0.0
C567 C 0.80853 0.0608 0.54311 0.0
C568 C 0.81332 0.08686 0.55885 0.0
C569 C 0.82022 0.11539 0.54713 0.0
C570 C 0.82288 0.11793 0.51979 0.0
C571 C 0.81884 0.09163 0.50472 0.0
C572 C 0.81169 0.06362 0.51591 0.0
C573 C 0.80983 0.03864 0.4954 0.0
C574 C 0.83409 1.0137 0.5003 0.0
C575 C 0.77742 0.02489 0.49426 0.0
C576 C 0.81715 0.05699 0.47097 0.0
C577 C 0.82221 0.08749 0.47673 0.0
C578 C 0.82938 0.10886 0.45731 0.0
C579 C 0.8308 0.09885 0.43116 0.0
C580 C 0.82503 0.06784 0.42483 0.0
C581 C 0.81864 0.04664 0.4451 0.0
H582 H 0.06964 0.78235 0.54448 0.0
H583 H 0.01758 0.86483 0.5613 0.0
H584 H 1.01165 0.87417 0.51367 0.0
H585 H 0.1105 0.81133 0.48924 0.0
H586 H 0.10918 0.77582 0.47118 0.0
H587 H 0.10843 0.77532 0.50654 0.0
H588 H 0.05792 0.7441 0.50563 0.0
H589 H 0.05852 0.74459 0.47023 0.0
H590 H 0.02548 0.75879 0.48775 0.0
H591 H 1.01076 0.87389 0.46403 0.0
H592 H 0.01739 0.86555 0.41637 0.0
H593 H 0.07266 0.7849 0.43284 0.0
C594 C 0.05686 0.80229 0.53814 0.0
C595 C 0.04417 0.82294 0.55654 0.0
C596 C 0.02787 0.84895 0.54749 0.0
C597 C 0.02415 0.85431 0.52051 0.0
C598 C 0.03693 0.83346 0.50289 0.0
C599 C 0.05308 0.80805 0.51134 0.0
C600 C 0.06521 0.78958 0.48842 0.0
C601 C 0.10042 0.78794 0.48887 0.0
C602 C 0.05092 0.75736 0.48799 0.0
C603 C 0.05377 0.80884 0.46577 0.0
C604 C 0.03712 0.83378 0.47444 0.0
C605 C 0.02393 0.85452 0.45699 0.0
C606 C 0.02803 0.8497 0.42993 0.0
C607 C 0.04554 0.82454 0.42059 0.0
C608 C 0.05854 0.804 0.43899 0.0
H609 H 0.30354 0.10385 0.55166 0.0
H610 H 0.32983 1.00887 0.56228 0.0
H611 H 0.32999 1.0013 0.51414 0.0
H612 H 0.25403 0.09343 0.49603 0.0
H613 H 0.26639 0.12775 0.47938 0.0
H614 H 0.26778 0.1257 0.51471 0.0
H615 H 0.32561 0.1391 0.51362 0.0
H616 H 0.32437 0.1413 0.47829 0.0
H617 H 0.35136 0.11609 0.4941 0.0
H618 H 0.32653 1.00361 0.46551 0.0
H619 H 0.32258 0.01667 0.41828 0.0
H620 H 0.30074 0.1106 0.43857 0.0
C621 C 0.30906 0.08151 0.54368 0.0
C622 C 0.31636 0.05679 0.56034 0.0
C623 C 0.32404 0.02792 0.54955 0.0
C624 C 0.32418 0.02343 0.52236 0.0
C625 C 0.31686 0.04818 0.50632 0.0
C626 C 0.30976 0.07674 0.51647 0.0
C627 C 0.30386 0.09964 0.49469 0.0
C628 C 0.27106 0.11237 0.49631 0.0
C629 C 0.32773 0.12556 0.49521 0.0
C630 C 0.30808 0.0793 0.47083 0.0
C631 C 0.31554 0.04969 0.47804 0.0
C632 C 0.32057 0.02665 0.45957 0.0
C633 C 0.31808 0.03415 0.43292 0.0
C634 C 0.31077 0.06434 0.42519 0.0
C635 C 0.30578 0.08723 0.44427 0.0
H636 H 0.57586 0.84266 0.9337 0.0
H637 H 0.51466 0.7663 0.91921 0.0
H638 H 0.50656 0.76024 0.96703 0.0
H639 H 0.61246 0.81087 0.98932 0.0
H640 H 0.61571 0.84673 0.00667 0.0
H641 H 0.61476 0.8464 0.97133 0.0
H642 H 0.56859 0.8838 0.97216 0.0
H643 H 0.56929 0.88403 0.00757 0.0
H644 H 0.53466 0.87375 0.99052 0.0
H645 H 0.50523 0.76247 0.01616 0.0
H646 H 0.51453 0.76944 0.06349 0.0
H647 H 0.57994 0.84167 0.04556 0.0
C648 C 0.56069 0.82477 0.94068 0.0
C649 C 0.546 0.8048 0.92296 0.0
C650 C 0.52643 0.78151 0.93263 0.0
C651 C 0.52144 0.77812 0.95966 0.0
C652 C 0.53629 0.79816 0.97667 0.0
C653 C 0.55572 0.82086 0.9676 0.0
C654 C 0.57024 0.83817 0.99009 0.0
C655 C 0.60537 0.83535 0.9893 0.0
C656 C 0.56008 0.87194 0.99007 0.0
C657 C 0.55661 0.82103 0.01317 0.0
C658 C 0.53652 0.79858 0.00503 0.0
C659 C 0.5211 0.77983 0.02281 0.0
C660 C 0.5268 0.78378 0.04967 0.0
C661 C 0.54824 0.80588 0.05848 0.0
C662 C 0.56303 0.82487 0.03979 0.0
H663 H 0.29551 0.53259 0.93604 0.0
H664 H 0.34122 0.61682 0.91336 0.0
H665 H 0.34372 0.63242 0.96001 0.0
H666 H 0.24997 0.56402 0.98907 0.0
H667 H 0.25444 0.53094 0.00992 0.0
H668 H 0.25545 0.52664 0.97472 0.0
H669 H 0.30854 0.50036 0.97788 0.0
H670 H 0.30762 0.50449 0.01309 0.0
H671 H 0.33938 0.5197 -0.00549 0.0
H672 H 0.34171 0.63868 0.00849 0.0
H673 H 0.33691 0.63464 0.05669 0.0
H674 H 0.29324 0.54588 0.04817 0.0
C675 C 0.30586 0.55439 0.94096 0.0
C676 C 0.31819 0.57362 0.92126 0.0
C677 C 0.33193 0.60176 0.9283 0.0
C678 C 0.33326 0.61084 0.95465 0.0
C679 C 0.32092 0.59139 0.97362 0.0
C680 C 0.30763 0.56368 0.96719 0.0
C681 C 0.29705 0.54662 0.99151 0.0
C682 C 0.26215 0.54179 0.99128 0.0
C683 C 0.31418 0.51599 -0.00559 0.0
C684 C 0.30646 0.56919 0.01259 0.0
C685 C 0.3201 0.59486 0.00179 0.0
C686 C 0.33118 0.61867 0.01724 0.0
C687 C 0.32853 0.61609 0.04454 0.0
C688 C 0.31495 0.58986 0.05607 0.0
C689 C 0.30355 0.56626 0.03983 0.0
H690 H 0.58088 0.34543 0.93538 0.0
H691 H 0.52404 0.26806 0.9137 0.0
H692 H 0.50959 0.26064 0.96016 0.0
H693 H 0.61029 0.31285 -0.00687 0.0
H694 H 0.61045 0.34772 0.01212 0.0
H695 H 0.61389 0.3494 0.97689 0.0
H696 H 0.56682 0.38554 0.97463 0.0
H697 H 0.56336 0.38414 0.00992 0.0
H698 H 0.5312 0.37388 0.98961 0.0
H699 H 0.5041 0.25907 0.00842 0.0
H700 H 0.50728 0.26359 0.05649 0.0
H701 H 0.56869 0.34127 0.04811 0.0
C702 C 0.56474 0.32754 0.94046 0.0
C703 C 0.55327 0.30747 0.92108 0.0
C704 C 0.53288 0.28371 0.92836 0.0
C705 C 0.52454 0.27935 0.95464 0.0
C706 C 0.53676 0.299 0.97341 0.0
C707 C 0.55629 0.32271 0.96676 0.0
C708 C 0.56754 0.33922 0.99114 0.0
C709 C 0.60262 0.33716 -0.00655 0.0
C710 C 0.55657 0.37269 0.99133 0.0
C711 C 0.55173 0.32068 0.01244 0.0
C712 C 0.53393 0.29777 0.00165 0.0
C713 C 0.51782 0.27701 0.01714 0.0
C714 C 0.52 0.27964 0.04444 0.0
C715 C 0.53842 0.30265 0.05609 0.0
C716 C 0.5542 0.32366 0.03979 0.0
H717 H 0.81759 0.52176 0.04377 0.0
H718 H 0.7775 0.60974 0.06479 0.0
H719 H 0.76972 0.62098 0.01786 0.0
H720 H 0.86008 0.55227 0.98797 0.0
H721 H 0.85602 0.51749 0.96921 0.0
H722 H 0.85716 0.5159 0.00457 0.0
H723 H 0.80529 0.48707 0.00488 0.0
H724 H 0.80379 0.48886 0.96957 0.0
H725 H 0.77256 0.50397 0.9889 0.0
H726 H 0.76539 0.62218 0.96852 0.0
H727 H 0.76896 0.61517 0.92038 0.0
H728 H 0.81578 0.52855 0.93209 0.0
C729 C 0.80758 0.54367 0.03877 0.0
C730 C 0.79791 0.56468 0.05834 0.0
C731 C 0.78438 0.59277 0.05043 0.0
C732 C 0.78012 0.59955 0.02375 0.0
C733 C 0.78999 0.57829 0.00515 0.0
C734 C 0.8039 0.55116 0.01232 0.0
C735 C 0.81372 0.53276 0.98853 0.0
C736 C 0.84882 0.52942 0.98751 0.0
C737 C 0.79788 0.50131 0.98795 0.0
C738 C 0.80224 0.55336 0.9668 0.0
C739 C 0.78859 0.5795 0.97678 0.0
C740 C 0.77604 0.60183 0.96047 0.0
C741 C 0.77788 0.59751 0.93321 0.0
C742 C 0.79234 0.57118 0.92262 0.0
C743 C 0.80451 0.54883 0.9397 0.0
H744 H 0.15375 0.29519 0.29417 0.0
H745 H 0.07701 0.23318 0.28544 0.0
H746 H 0.11345 0.1897 0.28001 0.0
H747 H 0.20862 0.25639 0.24971 0.0
H748 H 0.24008 0.26476 0.27143 0.0
H749 H 0.20794 0.2906 0.26958 0.0
H750 H 0.20047 0.28607 0.32002 0.0
H751 H 0.2322 0.25995 0.32201 0.0
H752 H 0.1952 0.24875 0.33452 0.0
H753 H 0.15989 0.15211 0.28214 0.0
H754 H 0.20945 0.12596 0.29092 0.0
H755 H 0.25364 0.21431 0.29852 0.0
C756 C 0.1445 0.2726 0.29033 0.0
C757 C 0.11261 0.26754 0.29005 0.0
C758 C 0.10142 0.23761 0.28529 0.0
C759 C 0.12199 0.21281 0.28234 0.0
C760 C 0.1535 0.21853 0.28397 0.0
C761 C 0.16451 0.24793 0.28756 0.0
C762 C 0.19877 0.24836 0.29145 0.0
C763 C 0.21479 0.26607 0.26921 0.0
C764 C 0.20712 0.26154 0.3186 0.0
C765 C 0.20561 0.21454 0.28994 0.0
C766 C 0.17947 0.19747 0.28545 0.0
C767 C 0.18047 0.16543 0.28523 0.0
C768 C 0.20871 0.15073 0.29014 0.0
C769 C 0.2354 0.1681 0.2955 0.0
C770 C 0.23367 0.20035 0.2947 0.0
H771 H 0.83023 0.14882 0.2861 0.0
H772 H 0.89005 0.06962 0.2869 0.0
H773 H 0.93529 0.10423 0.28446 0.0
H774 H 0.87737 0.20085 0.245 0.0
H775 H 0.86704 0.23328 0.26512 0.0
H776 H 0.8405 0.20203 0.26106 0.0
H777 H 0.83724 0.19601 0.3117 0.0
H778 H 0.86401 0.22684 0.31592 0.0
H779 H 0.87189 0.18986 0.33016 0.0
H780 H 0.97431 0.14982 0.28813 0.0
H781 H 1.00086 0.19896 0.29813 0.0
H782 H 0.91362 0.24604 0.29759 0.0
C783 C 0.85279 0.13857 0.28479 0.0
C784 C 0.85653 0.10647 0.2863 0.0
C785 C 0.88654 0.0941 0.28512 0.0
C786 C 0.91236 0.11368 0.28397 0.0
C787 C 0.90772 0.14547 0.28395 0.0
C788 C 0.87845 0.15762 0.28414 0.0
C789 C 0.87877 0.19204 0.28742 0.0
C790 C 0.86512 0.20798 0.2632 0.0
C791 C 0.862 0.20173 0.31279 0.0
C792 C 0.91278 0.19772 0.28943 0.0
C793 C 0.92941 0.17085 0.28706 0.0
C794 C 0.96134 0.17089 0.28969 0.0
C795 C 0.97629 0.19886 0.29529 0.0
C796 C 0.95925 0.22623 0.2987 0.0
C797 C 0.92722 0.22547 0.29519 0.0
H798 H 0.90342 0.92285 0.33002 0.0
H799 H 0.90085 0.9838 0.2625 0.0
H800 H 0.94928 0.96126 0.24654 0.0
H801 H 0.98311 0.92478 0.34074 0.0
H802 H 0.98597 0.88489 0.34962 0.0
H803 H 0.95077 0.9054 0.35529 0.0
H804 H 0.92129 0.86489 0.32813 0.0
H805 H 0.95647 0.84432 0.32225 0.0
H806 H 0.93331 0.85664 0.29495 0.0
H807 H 0.9997 0.93322 0.23893 0.0
H808 H 0.04686 0.90182 0.24006 0.0
H809 H 1.01519 0.85875 0.31197 0.0
C810 C 0.9125 0.9314 0.31167 0.0
C811 C 0.89778 0.95536 0.29763 0.0
C812 C 0.91143 0.96582 0.27392 0.0
C813 C 0.93897 0.95296 0.26455 0.0
C814 C 0.95265 0.92944 0.27894 0.0
C815 C 0.93975 0.91869 0.30195 0.0
C816 C 0.95916 0.89352 0.31402 0.0
C817 C 0.97042 0.90272 0.34154 0.0
C818 C 0.94151 0.86304 0.31488 0.0
C819 C 0.98539 0.89216 0.29445 0.0
C820 C 0.98117 0.91295 0.27429 0.0
C821 C 1.00301 0.91665 0.25448 0.0
C822 C 0.0298 0.89874 0.25533 0.0
C823 C 0.03461 0.87723 0.27578 0.0
C824 C 1.01193 0.87405 0.29555 0.0
H825 H 0.24133 0.02031 0.32893 0.0
H826 H 0.28191 1.00606 0.25233 0.0
H827 H 0.24521 0.96378 0.24397 0.0
H828 H 0.23761 0.94842 0.34622 0.0
H829 H 0.20165 0.949 0.36372 0.0
H830 H 0.22367 0.98351 0.3607 0.0
H831 H 0.17785 1.01164 0.3393 0.0
H832 H 0.1551 0.97742 0.34297 0.0
H833 H 0.15923 0.99503 0.31112 0.0
H834 H 0.21154 0.91596 0.24853 0.0
H835 H 0.18287 0.87039 0.26446 0.0
H836 H 0.16627 0.91623 0.33861 0.0
C837 C 0.24116 1.0095 0.30978 0.0
C838 C 0.26372 0.01686 0.29094 0.0
C839 C 0.26405 1.00133 0.26659 0.0
C840 C 0.24343 0.97713 0.26183 0.0
C841 C 0.2226 0.96906 0.28159 0.0
C842 C 0.22089 0.98539 0.30489 0.0
C843 C 0.19988 0.96994 0.32453 0.0
C844 C 0.21673 0.96227 0.35028 0.0
C845 C 0.17132 0.98969 0.32978 0.0
C846 C 0.19169 0.94129 0.30951 0.0
C847 C 0.20423 0.94135 0.28453 0.0
C848 C 0.20118 0.91605 0.26789 0.0
C849 C 0.18501 0.89021 0.2771 0.0
C850 C 0.17272 0.88965 0.30291 0.0
C851 C 0.17582 0.91578 0.31897 0.0
H852 H 0.24745 0.92391 0.70627 0.0
H853 H 0.2095 0.98133 0.64518 0.0
H854 H 0.15862 0.95758 0.65179 0.0
H855 H 0.20995 0.85719 0.689 0.0
H856 H 0.20242 0.84348 0.72182 0.0
H857 H 0.23441 0.86847 0.7158 0.0
H858 H 0.21389 0.90646 0.75079 0.0
H859 H 0.18178 0.88145 0.757 0.0
H860 H 0.17532 0.92089 0.74812 0.0
H861 H 0.11309 0.92587 0.66281 0.0
H862 H 0.07695 0.88477 0.6739 0.0
H863 H 0.14467 0.84369 0.72534 0.0
C864 C 0.22811 0.93184 0.69487 0.0
C865 C 0.23206 0.95458 0.67538 0.0
C866 C 0.20664 0.96406 0.66027 0.0
C867 C 0.17772 0.95082 0.66401 0.0
C868 C 0.17452 0.92802 0.68299 0.0
C869 C 0.19897 0.91848 0.69819 0.0
C870 C 0.18976 0.89147 0.71538 0.0
C871 C 0.21035 0.8635 0.71017 0.0
C872 C 0.19023 0.90061 0.74455 0.0
C873 C 0.15709 0.88608 0.70613 0.0
C874 C 0.14851 0.90825 0.68822 0.0
C875 C 0.11963 0.90828 0.6767 0.0
C876 C 0.0993 0.88453 0.68295 0.0
C877 C 0.1081 0.86028 0.69988 0.0
C878 C 0.13717 0.86169 0.71222 0.0
H879 H 0.19615 0.22231 0.64721 0.0
H880 H 0.15055 0.23134 0.7227 0.0
H881 H 0.17442 0.18284 0.73733 0.0
H882 H 0.18819 0.14179 0.64153 0.0
H883 H 0.22497 0.13637 0.626 0.0
H884 H 0.20482 0.17207 0.62208 0.0
H885 H 0.25204 0.20141 0.63985 0.0
H886 H 0.27228 0.16575 0.64396 0.0
H887 H 0.26756 0.19133 0.67149 0.0
H888 H 0.20166 0.13117 0.74259 0.0
H889 H 0.22973 0.08184 0.73766 0.0
H890 H 0.25924 0.1093 0.65985 0.0
C891 C 0.19147 0.21446 0.66698 0.0
C892 C 0.17146 0.23083 0.68379 0.0
C893 C 0.1655 0.21914 0.70931 0.0
C894 C 0.17916 0.1917 0.71787 0.0
C895 C 0.1988 0.17621 0.70073 0.0
C896 C 0.20493 0.18729 0.67582 0.0
C897 C 0.22603 0.16604 0.66076 0.0
C898 C 0.21004 0.15332 0.63615 0.0
C899 C 0.25627 0.1821 0.65361 0.0
C900 C 0.23095 0.14124 0.68108 0.0
C901 C 0.21497 0.14731 0.70401 0.0
C902 C 0.21459 0.12646 0.72486 0.0
C903 C 0.23058 0.09861 0.72198 0.0
C904 C 0.24701 0.09227 0.69864 0.0
C905 C 0.24742 0.11399 0.67815 0.0
H906 H 0.88256 0.20298 0.71195 0.0
H907 H 0.91945 0.13348 0.66028 0.0
H908 H 0.97102 0.15748 0.66333 0.0
H909 H 0.92156 0.26518 0.68869 0.0
H910 H 0.92879 0.28286 0.72009 0.0
H911 H 0.89637 0.25795 0.71617 0.0
H912 H 0.91537 0.22408 0.75467 0.0
H913 H 0.9479 0.24903 0.75889 0.0
H914 H 0.95364 0.20858 0.75374 0.0
H915 H 0.01758 0.19307 0.66915 0.0
H916 H 0.05381 0.23562 0.67689 0.0
H917 H 0.98561 0.28131 0.7252 0.0
C918 C 0.90175 0.1926 0.70177 0.0
C919 C 0.89734 0.16649 0.68597 0.0
C920 C 0.9227 0.15335 0.67271 0.0
C921 C 0.95196 0.16686 0.67435 0.0
C922 C 0.95553 0.19305 0.68987 0.0
C923 C 0.93113 0.20538 0.70371 0.0
C924 C 0.94051 0.23407 0.71834 0.0
C925 C 0.92064 0.26164 0.71032 0.0
C926 C 0.93927 0.22862 0.74818 0.0
C927 C 0.97332 0.23749 0.709 0.0
C928 C 0.98193 0.21321 0.69315 0.0
C929 C 1.01101 0.21203 0.68167 0.0
C930 C 0.03143 0.23649 0.68606 0.0
C931 C 0.02257 0.26225 0.70136 0.0
C932 C 0.9933 0.26212 0.71343 0.0
H933 H 0.92445 0.88467 0.70304 0.0
H934 H 1.00836 0.91957 0.66898 0.0
H935 H 0.98976 0.97273 0.67535 0.0
H936 H 0.87453 0.93283 0.67474 0.0
H937 H 0.84951 0.93806 0.70266 0.0
H938 H 0.87215 0.9039 0.69999 0.0
H939 H 0.8956 0.91495 0.74582 0.0
H940 H 0.8732 0.9496 0.74835 0.0
H941 H 0.91425 0.95111 0.75177 0.0
H942 H 0.95807 0.02045 0.67741 0.0
H943 H 0.91577 0.05774 0.67326 0.0
H944 H 0.85316 0.99272 0.70821 0.0
C945 C 0.93911 0.90365 0.69761 0.0
C946 C 0.96779 0.89827 0.68563 0.0
C947 C 0.98649 0.92341 0.67853 0.0
C948 C 0.97612 0.9536 0.68217 0.0
C949 C 0.9474 0.95822 0.6937 0.0
C950 C 0.92935 0.93388 0.70168 0.0
C951 C 0.8983 0.94476 0.71129 0.0
C952 C 0.87211 0.92897 0.69625 0.0
C953 C 0.89516 0.9398 0.74108 0.0
C954 C 0.90044 0.97861 0.70493 0.0
C955 C 0.92937 0.98614 0.69572 0.0
C956 C 0.93573 1.01512 0.68549 0.0
C957 C 0.91166 0.0363 0.68343 0.0
C958 C 0.88164 0.02838 0.69144 0.0
C959 C 0.87629 0.99973 0.70331 0.0
H960 H 0.60794 0.75249 0.82593 0.0
H961 H 0.59495 0.74675 0.74179 0.0
H962 H 0.64533 0.72049 0.73736 0.0
H963 H 0.69085 0.76459 0.8257 0.0
H964 H 0.6965 0.74108 0.85441 0.0
H965 H 0.661 0.76155 0.85014 0.0
H966 H 0.63104 0.71063 0.85495 0.0
H967 H 0.66641 0.68994 0.85894 0.0
H968 H 0.63999 0.67901 0.83346 0.0
H969 H 0.69589 0.69122 0.7432 0.0
H970 H 0.74259 0.66413 0.75825 0.0
H971 H 0.72111 0.68896 0.83872 0.0
C972 C 0.61607 0.74633 0.80652 0.0
C973 C 0.59804 0.75205 0.78409 0.0
C974 C 0.60886 0.74297 0.75907 0.0
C975 C 0.63731 0.72796 0.75646 0.0
C976 C 0.65441 0.72211 0.7791 0.0
C977 C 0.64419 0.73124 0.80364 0.0
C978 C 0.66588 0.72101 0.82509 0.0
C979 C 0.67936 0.74871 0.83969 0.0
C980 C 0.64987 0.69883 0.84423 0.0
C981 C 0.69004 0.70469 0.8089 0.0
C982 C 0.68307 0.70542 0.78243 0.0
C983 C 0.70163 0.69078 0.76387 0.0
C984 C 0.72801 0.67528 0.77261 0.0
C985 C 0.73574 0.67461 0.79964 0.0
C986 C 0.71629 0.68955 0.81788 0.0
H987 H 0.42566 0.73849 0.77079 0.0
H988 H 0.48764 0.70386 0.8299 0.0
H989 H 0.46706 0.65152 0.82369 0.0
H990 H 0.36241 0.69568 0.78963 0.0
H991 H 0.34811 0.68807 0.75708 0.0
H992 H 0.37085 0.72169 0.76304 0.0
H993 H 0.40897 0.70508 0.72661 0.0
H994 H 0.38622 0.67137 0.72046 0.0
H995 H 0.42634 0.66764 0.72809 0.0
H996 H 0.43669 0.60437 0.81434 0.0
H997 H 0.39725 0.56588 0.804 0.0
H998 H 0.35312 0.63066 0.75158 0.0
C999 C 0.43536 0.71958 0.78173 0.0
C1000 C 0.45852 0.72483 0.80052 0.0
C1001 C 0.47019 0.69994 0.8152 0.0
C1002 C 0.45867 0.67023 0.81175 0.0
C1003 C 0.43543 0.66572 0.79343 0.0
C1004 C 0.42392 0.68964 0.77856 0.0
C1005 C 0.39715 0.67888 0.76191 0.0
C1006 C 0.3679 0.69716 0.76832 0.0
C1007 C 0.40515 0.68087 0.73252 0.0
C1008 C 0.39451 0.64569 0.77072 0.0
C1009 C 0.41729 0.63845 0.78845 0.0
C1010 C 0.41891 0.60969 0.80028 0.0
C1011 C 0.39629 0.58796 0.79434 0.0
C1012 C 0.37194 0.59512 0.77703 0.0
C1013 C 0.3716 0.62421 0.7646 0.0
H1014 H 0.52371 0.40211 0.75891 0.0
H1015 H 0.52041 0.33295 0.82014 0.0
H1016 H 0.47284 0.35511 0.83709 0.0
H1017 H 0.49222 0.46477 0.79763 0.0
H1018 H 0.46931 0.48021 0.77136 0.0
H1019 H 0.50424 0.45986 0.76396 0.0
H1020 H 0.47432 0.42276 0.73383 0.0
H1021 H 0.43934 0.44308 0.74103 0.0
H1022 H 0.44169 0.40239 0.7468 0.0
H1023 H 0.42717 0.38465 0.8487 0.0
H1024 H 0.38206 0.41731 0.8524 0.0
H1025 H 0.40978 0.4666 0.78193 0.0
C1026 C 0.51297 0.39169 0.7759 0.0
C1027 C 0.52649 0.36597 0.78855 0.0
C1028 C 0.51129 0.35291 0.81046 0.0
C1029 C 0.48402 0.36533 0.82023 0.0
C1030 C 0.47163 0.39075 0.80768 0.0
C1031 C 0.48521 0.4037 0.78581 0.0
C1032 C 0.46596 0.43043 0.77578 0.0
C1033 C 0.48401 0.46061 0.77727 0.0
C1034 C 0.45465 0.42429 0.74769 0.0
C1035 C 0.43951 0.43019 0.79544 0.0
C1036 C 0.44374 0.40722 0.81374 0.0
C1037 C 0.42327 0.40242 0.83426 0.0
C1038 C 0.39738 0.42113 0.83601 0.0
C1039 C 0.39145 0.44433 0.81712 0.0
C1040 C 0.41327 0.44911 0.79668 0.0
H1041 H 0.73209 0.51549 0.74794 0.0
H1042 H 0.77356 0.53033 0.82393 0.0
H1043 H 0.74524 0.48764 0.84228 0.0
H1044 H 0.65691 0.48874 0.77213 0.0
H1045 H 0.65326 0.45912 0.74766 0.0
H1046 H 0.67456 0.49347 0.7403 0.0
H1047 H 0.722 0.46078 0.72807 0.0
H1048 H 0.70081 0.42637 0.73526 0.0
H1049 H 0.73675 0.43354 0.75149 0.0
H1050 H 0.7143 0.44319 0.85293 0.0
H1051 H 0.68573 0.39484 0.85451 0.0
H1052 H 0.66495 0.40307 0.77147 0.0
C1053 C 0.73493 0.50998 0.76853 0.0
C1054 C 0.75486 0.5275 0.78476 0.0
C1055 C 0.75815 0.51868 0.81128 0.0
C1056 C 0.74205 0.49401 0.82191 0.0
C1057 C 0.72266 0.47756 0.80565 0.0
C1058 C 0.71918 0.4847 0.77942 0.0
C1059 C 0.69841 0.46126 0.76614 0.0
C1060 C 0.66904 0.47657 0.75595 0.0
C1061 C 0.71552 0.44449 0.74392 0.0
C1062 C 0.69144 0.43978 0.78904 0.0
C1063 C 0.70541 0.45023 0.81164 0.0
C1064 C 0.70329 0.43463 0.83538 0.0
C1065 C 0.68712 0.40708 0.83604 0.0
C1066 C 0.67342 0.39495 0.81311 0.0
C1067 C 0.67502 0.41191 0.78934 0.0
H1068 H 0.63397 0.34583 0.20568 0.0
H1069 H 0.56582 0.40685 0.17346 0.0
H1070 H 0.60159 0.45048 0.1781 0.0
H1071 H 0.67427 0.40594 0.25037 0.0
H1072 H 0.7108 0.38864 0.24294 0.0
H1073 H 0.67689 0.36517 0.24517 0.0
H1074 H 0.68814 0.3442 0.19855 0.0
H1075 H 0.72138 0.36809 0.19571 0.0
H1076 H 0.69149 0.37062 0.17143 0.0
H1077 H 0.64848 0.48423 0.17651 0.0
H1078 H 0.70099 0.50474 0.17009 0.0
H1079 H 0.73883 0.42091 0.20179 0.0
C1080 C 0.626 0.36881 0.20143 0.0
C1081 C 0.59691 0.37341 0.19026 0.0
C1082 C 0.58762 0.40329 0.18313 0.0
C1083 C 0.60793 0.42811 0.18551 0.0
C1084 C 0.63733 0.42256 0.19517 0.0
C1085 C 0.64611 0.39365 0.20356 0.0
C1086 C 0.68014 0.39238 0.20914 0.0
C1087 C 0.68586 0.38777 0.23866 0.0
C1088 C 0.6962 0.36737 0.19271 0.0
C1089 C 0.68962 0.42417 0.20054 0.0
C1090 C 0.66458 0.44167 0.19337 0.0
C1091 C 0.66813 0.47099 0.18274 0.0
C1092 C 0.69797 0.48247 0.17912 0.0
C1093 C 0.72379 0.46436 0.18549 0.0
C1094 C 0.7194 0.43518 0.19682 0.0
H1095 H 0.79513 0.65093 0.20614 0.0
H1096 H 0.73638 0.57259 0.19262 0.0
H1097 H 0.69098 0.6065 0.19433 0.0
H1098 H 0.7392 0.69686 0.24799 0.0
H1099 H 0.75203 0.73204 0.23304 0.0
H1100 H 0.77848 0.7007 0.23746 0.0
H1101 H 0.79125 0.70214 0.18771 0.0
H1102 H 0.76462 0.733 0.18301 0.0
H1103 H 0.7607 0.69824 0.16417 0.0
H1104 H 0.65313 0.65053 0.18945 0.0
H1105 H 0.62721 0.69966 0.17875 0.0
H1106 H 0.71136 0.7488 0.19307 0.0
C1107 C 0.77261 0.64069 0.2046 0.0
C1108 C 0.76931 0.60903 0.19954 0.0
C1109 C 0.73951 0.59659 0.19712 0.0
C1110 C 0.71356 0.6158 0.19791 0.0
C1111 C 0.71782 0.64728 0.20149 0.0
C1112 C 0.74669 0.65951 0.20519 0.0
C1113 C 0.74592 0.69422 0.20531 0.0
C1114 C 0.75441 0.70669 0.23257 0.0
C1115 C 0.76684 0.70765 0.18376 0.0
C1116 C 0.71246 0.6998 0.1994 0.0
C1117 C 0.69635 0.67252 0.19804 0.0
C1118 C 0.66543 0.67196 0.19108 0.0
C1119 C 0.65087 0.69985 0.18508 0.0
C1120 C 0.66735 0.72771 0.18561 0.0
C1121 C 0.69833 0.7277 0.19314 0.0
H1122 H 0.53225 0.70385 0.18822 0.0
H1123 H 0.50591 0.79665 0.20925 0.0
H1124 H 0.45195 0.78019 0.21257 0.0
H1125 H 0.47041 0.6894 0.14725 0.0
H1126 H 0.4658 0.64973 0.15629 0.0
H1127 H 0.50278 0.66765 0.15886 0.0
H1128 H 0.50567 0.65257 0.208 0.0
H1129 H 0.46872 0.63438 0.20557 0.0
H1130 H 0.47511 0.6636 0.22997 0.0
H1131 H 0.40053 0.7553 0.20864 0.0
H1132 H 0.35523 0.72332 0.19913 0.0
H1133 H 0.41437 0.64632 0.18114 0.0
C1134 C 0.51531 0.72058 0.19425 0.0
C1135 C 0.52347 0.75159 0.19862 0.0
C1136 C 0.50036 0.77279 0.20591 0.0
C1137 C 0.4696 0.76363 0.20786 0.0
C1138 C 0.46227 0.73313 0.20266 0.0
C1139 C 0.48448 0.71183 0.19623 0.0
C1140 C 0.47025 0.681 0.18977 0.0
C1141 C 0.47776 0.6714 0.16136 0.0
C1142 C 0.48055 0.65643 0.20951 0.0
C1143 C 0.43649 0.68842 0.19304 0.0
C1144 C 0.43247 0.71862 0.2006 0.0
C1145 C 0.40342 0.73152 0.20313 0.0
C1146 C 0.37784 0.71325 0.19759 0.0
C1147 C 0.38131 0.68233 0.18965 0.0
C1148 C 0.41107 0.66967 0.18776 0.0
H1149 H 0.46774 0.41424 0.153 0.0
H1150 H 0.44033 0.37515 0.22738 0.0
H1151 H 0.41396 0.42392 0.23927 0.0
H1152 H 0.48017 0.494 0.17704 0.0
H1153 H 0.46544 0.51014 0.14701 0.0
H1154 H 0.48481 0.47365 0.14644 0.0
H1155 H 0.4375 0.44869 0.12436 0.0
H1156 H 0.41822 0.48505 0.12463 0.0
H1157 H 0.40046 0.45225 0.13985 0.0
H1158 H 0.38292 0.47479 0.23864 0.0
H1159 H 0.35266 0.52072 0.22578 0.0
H1160 H 0.40617 0.52768 0.15424 0.0
C1161 C 0.45683 0.41642 0.17206 0.0
C1162 C 0.45605 0.39136 0.18941 0.0
C1163 C 0.44128 0.39445 0.21405 0.0
C1164 C 0.42633 0.42202 0.22088 0.0
C1165 C 0.42702 0.44639 0.20304 0.0
C1166 C 0.44243 0.44383 0.17928 0.0
C1167 C 0.43827 0.4721 0.16258 0.0
C1168 C 0.46901 0.48844 0.15802 0.0
C1169 C 0.42268 0.46403 0.13633 0.0
C1170 C 0.41736 0.49075 0.18014 0.0
C1171 C 0.4109 0.47579 0.20344 0.0
C1172 C 0.38857 0.48709 0.2208 0.0
C1173 C 0.37164 0.51341 0.21354 0.0
C1174 C 0.37731 0.52804 0.18919 0.0
C1175 C 0.40162 0.51734 0.17322 0.0
H1176 H 0.21387 0.51843 0.23406 0.0
H1177 H 0.20428 0.47924 0.15631 0.0
H1178 H 0.1613 0.44737 0.17191 0.0
H1179 H 0.20242 0.45132 0.26859 0.0
H1180 H 0.18069 0.46765 0.29533 0.0
H1181 H 0.20749 0.49101 0.27741 0.0
H1182 H 0.1645 0.53003 0.26696 0.0
H1183 H 0.13753 0.50687 0.28506 0.0
H1184 H 0.12981 0.51704 0.25139 0.0
H1185 H 0.12425 0.41485 0.19699 0.0
H1186 H 0.09518 0.38491 0.22967 0.0
H1187 H 0.127 0.44624 0.29106 0.0
C1188 C 0.20203 0.50382 0.22024 0.0
C1189 C 0.21238 0.50123 0.19399 0.0
C1190 C 0.19684 0.48133 0.17654 0.0
C1191 C 0.17228 0.46329 0.18518 0.0
C1192 C 0.16327 0.46548 0.21136 0.0
C1193 C 0.1774 0.48547 0.22862 0.0
C1194 C 0.16485 0.48144 0.25623 0.0
C1195 C 0.19039 0.4723 0.27551 0.0
C1196 C 0.14818 0.51058 0.26545 0.0
C1197 C 0.14249 0.45532 0.25189 0.0
C1198 C 0.14161 0.44672 0.22584 0.0
C1199 C 0.12428 0.42174 0.21742 0.0
C1200 C 0.10773 0.40484 0.23619 0.0
C1201 C 0.10867 0.41286 0.26318 0.0
C1202 C 0.12585 0.43899 0.27079 0.0
H1203 H 0.72369 0.15485 0.28839 0.0
H1204 H 0.69431 0.06772 0.25674 0.0
H1205 H 0.6556 0.09446 0.22928 0.0
H1206 H 0.6511 0.19139 0.29163 0.0
H1207 H 0.66479 0.22842 0.28122 0.0
H1208 H 0.69012 0.20253 0.29814 0.0
H1209 H 0.72908 0.20532 0.25968 0.0
H1210 H 0.70419 0.23176 0.24292 0.0
H1211 H 0.71644 0.1971 0.22673 0.0
H1212 H 0.61774 0.13123 0.20752 0.0
H1213 H 0.58984 0.17528 0.1878 0.0
H1214 H 0.64672 0.23825 0.23139 0.0
C1215 C 0.7092 0.14154 0.27548 0.0
C1216 C 0.7117 0.10929 0.27464 0.0
C1217 C 0.69271 0.09246 0.25743 0.0
C1218 C 0.67057 0.10746 0.242 0.0
C1219 C 0.6682 0.13932 0.24371 0.0
C1220 C 0.68755 0.1562 0.25956 0.0
C1221 C 0.68129 0.19024 0.25709 0.0
C1222 C 0.67122 0.20394 0.2836 0.0
C1223 C 0.70942 0.20709 0.24594 0.0
C1224 C 0.65513 0.18998 0.23761 0.0
C1225 C 0.64756 0.16038 0.23039 0.0
C1226 C 0.62368 0.15446 0.21291 0.0
C1227 C 0.60781 0.17945 0.20197 0.0
C1228 C 0.61616 0.20982 0.20833 0.0
C1229 C 0.6399 0.2151 0.2265 0.0
H1230 H 0.90929 0.65423 0.18819 0.0
H1231 H 0.92509 0.57075 0.23206 0.0
H1232 H 0.9626 0.59814 0.26024 0.0
H1233 H 0.98562 0.68239 0.18819 0.0
H1234 H 0.97458 0.72189 0.19244 0.0
H1235 H 0.94915 0.69564 0.17611 0.0
H1236 H 0.90576 0.70866 0.20924 0.0
H1237 H 0.93085 0.73542 0.22532 0.0
H1238 H 0.91294 0.70521 0.24399 0.0
H1239 H 1.0006 0.63543 0.28222 0.0
H1240 H 0.0293 0.68033 0.29967 0.0
H1241 H 0.9861 0.7386 0.24192 0.0
C1242 C 0.92071 0.64174 0.20372 0.0
C1243 C 0.9147 0.61038 0.20785 0.0
C1244 C 0.92949 0.59484 0.22869 0.0
C1245 C 0.95093 0.61016 0.24459 0.0
C1246 C 0.9569 0.64105 0.23954 0.0
C1247 C 0.94168 0.65672 0.21988 0.0
C1248 C 0.95102 0.69002 0.21888 0.0
C1249 C 0.96598 0.69793 0.19233 0.0
C1250 C 0.92351 0.71106 0.22472 0.0
C1251 C 0.97413 0.69077 0.24089 0.0
C1252 C 0.97762 0.66231 0.25247 0.0
C1253 C 0.99795 0.65777 0.27329 0.0
C1254 C 1.01435 0.68318 0.28292 0.0
C1255 C 1.0099 0.71257 0.27189 0.0
C1256 C 0.98993 0.71618 0.25044 0.0
H1257 H 0.40093 1.00625 0.2442 0.0
H1258 H 0.45339 1.01077 0.31621 0.0
H1259 H 0.49559 0.98232 0.29516 0.0
H1260 H 0.41872 0.93194 0.22833 0.0
H1261 H 0.42236 0.93704 0.19331 0.0
H1262 H 0.39838 0.96249 0.21207 0.0
H1263 H 0.42864 1.00916 0.19433 0.0
H1264 H 0.45271 0.9838 0.17535 0.0
H1265 H 0.46967 1.01043 0.19811 0.0
H1266 H 0.52898 0.948 0.26892 0.0
H1267 H 0.55106 0.90926 0.2391 0.0
H1268 H 0.47792 0.92627 0.18343 0.0
C1269 C 0.42176 1.00205 0.25512 0.0
C1270 C 0.42401 1.01071 0.28181 0.0
C1271 C 0.45124 1.00418 0.29579 0.0
C1272 C 0.47541 0.98823 0.28395 0.0
C1273 C 0.4722 0.97905 0.25793 0.0
C1274 C 0.44622 0.98588 0.24352 0.0
C1275 C 0.44764 0.97074 0.21667 0.0
C1276 C 0.42015 0.94928 0.21237 0.0
C1277 C 0.44979 0.99498 0.19482 0.0
C1278 C 0.47744 0.95297 0.219 0.0
C1279 C 0.49161 0.95876 0.24269 0.0
C1280 C 0.51845 0.94372 0.25005 0.0
C1281 C 0.53092 0.92179 0.23292 0.0
C1282 C 0.51634 0.91476 0.20885 0.0
C1283 C 0.48959 0.93111 0.20169 0.0
H1284 H 0.23075 0.61264 0.73604 0.0
H1285 H 0.19633 0.62407 0.81516 0.0
H1286 H 0.15257 0.65442 0.79827 0.0
H1287 H 0.21672 0.68696 0.71606 0.0
H1288 H 0.20569 0.67811 0.68281 0.0
H1289 H 0.23097 0.65278 0.70029 0.0
H1290 H 0.19401 0.60736 0.69218 0.0
H1291 H 0.16869 0.6325 0.67437 0.0
H1292 H 0.15438 0.61069 0.70186 0.0
H1293 H 0.11622 0.68815 0.77339 0.0
H1294 H 0.09028 0.72329 0.74279 0.0
H1295 H 0.14884 0.69131 0.67938 0.0
C1296 C 0.21324 0.62063 0.74951 0.0
C1297 C 0.21618 0.61553 0.77676 0.0
C1298 C 0.19383 0.62735 0.79418 0.0
C1299 C 0.16904 0.64458 0.78474 0.0
C1300 C 0.16709 0.64997 0.75778 0.0
C1301 C 0.18852 0.63825 0.74036 0.0
C1302 C 0.18289 0.65003 0.71274 0.0
C1303 C 0.21072 0.66804 0.70238 0.0
C1304 C 0.17449 0.62356 0.69419 0.0
C1305 C 0.15564 0.67093 0.71749 0.0
C1306 C 0.14657 0.67015 0.74351 0.0
C1307 C 0.12282 0.68856 0.75287 0.0
C1308 C 0.10809 0.70842 0.73525 0.0
C1309 C 0.11729 0.71004 0.70852 0.0
C1310 C 0.14124 0.69071 0.69963 0.0
H1311 H 0.40762 0.10805 0.74599 0.0
H1312 H 0.42996 0.12722 0.6649 0.0
H1313 H 0.47392 0.1591 0.679 0.0
H1314 H 0.41869 0.1806 0.76853 0.0
H1315 H 0.43505 0.17077 0.7999 0.0
H1316 H 0.4098 0.14433 0.78373 0.0
H1317 H 0.45147 0.10207 0.78557 0.0
H1318 H 0.47681 0.12831 0.80211 0.0
H1319 H 0.48904 0.10965 0.77227 0.0
H1320 H 0.51054 0.19448 0.70202 0.0
H1321 H 0.53661 0.23059 0.73195 0.0
H1322 H 0.4897 0.18934 0.79832 0.0
C1323 C 0.4228 0.11783 0.73137 0.0
C1324 C 0.41631 0.11456 0.70441 0.0
C1325 C 0.43539 0.12892 0.6856 0.0
C1326 C 0.46024 0.14707 0.69346 0.0
C1327 C 0.46559 0.15072 0.72028 0.0
C1328 C 0.44755 0.13629 0.73898 0.0
C1329 C 0.45587 0.14679 0.76644 0.0
C1330 C 0.42821 0.1615 0.78045 0.0
C1331 C 0.46909 0.12011 0.78255 0.0
C1332 C 0.48033 0.17033 0.76019 0.0
C1333 C 0.4861 0.17183 0.73352 0.0
C1334 C 0.5066 0.19311 0.72299 0.0
C1335 C 0.52136 0.21352 0.74014 0.0
C1336 C 0.51522 0.21285 0.76749 0.0
C1337 C 0.49476 0.19057 0.77752 0.0
H1338 H 0.99829 0.38843 0.73989 0.0
H1339 H 0.03383 0.45306 0.68319 0.0
H1340 H 1.00601 0.49528 0.70558 0.0
H1341 H 0.92549 0.41676 0.74154 0.0
H1342 H 0.91826 0.41116 0.7761 0.0
H1343 H 0.94568 0.38733 0.75936 0.0
H1344 H 0.98768 0.40283 0.79263 0.0
H1345 H 0.9602 0.42641 0.80979 0.0
H1346 H 0.99562 0.44284 0.79819 0.0
H1347 H 0.96837 0.52845 0.72981 0.0
H1348 H 0.92465 0.55028 0.75409 0.0
H1349 H 0.91345 0.46408 0.7957 0.0
C1350 C 1.00103 0.41175 0.733 0.0
C1351 C 0.01854 0.41795 0.71029 0.0
C1352 C 0.02087 0.44831 0.70091 0.0
C1353 C 1.00518 0.47228 0.71349 0.0
C1354 C 0.98721 0.4654 0.73543 0.0
C1355 C 0.9853 0.4359 0.74531 0.0
C1356 C 0.96182 0.43403 0.7673 0.0
C1357 C 0.93631 0.41097 0.76066 0.0
C1358 C 0.97726 0.42606 0.79353 0.0
C1359 C 0.94988 0.46667 0.7674 0.0
C1360 C 0.96516 0.48453 0.74922 0.0
C1361 C 0.95666 0.51484 0.7445 0.0
C1362 C 0.93172 0.52711 0.75851 0.0
C1363 C 0.9153 0.50908 0.77699 0.0
C1364 C 0.92513 0.47861 0.7817 0.0
H1365 H 0.63048 0.93935 0.79441 0.0
H1366 H 0.59186 0.88718 0.73016 0.0
H1367 H 0.61984 0.91966 0.69833 0.0
H1368 H 0.63031 1.01539 0.75772 0.0
H1369 H 0.6654 0.02732 0.77321 0.0
H1370 H 0.63887 1.00295 0.79066 0.0
H1371 H 0.68216 0.96336 0.79825 0.0
H1372 H 0.7087 0.98743 0.78078 0.0
H1373 H 0.70297 0.94835 0.7704 0.0
H1374 H 0.65757 0.95196 0.67428 0.0
H1375 H 0.7012 0.98328 0.65915 0.0
H1376 H 0.7148 0.01683 0.73833 0.0
C1377 C 0.62744 0.93535 0.77359 0.0
C1378 C 0.60891 0.91088 0.76466 0.0
C1379 C 0.60551 0.90609 0.73734 0.0
C1380 C 0.62138 0.92441 0.71916 0.0
C1381 C 0.63998 0.94793 0.7286 0.0
C1382 C 0.64266 0.95388 0.75515 0.0
C1383 C 0.66546 0.97954 0.76009 0.0
C1384 C 0.64904 1.00799 0.77107 0.0
C1385 C 0.69136 0.96902 0.77845 0.0
C1386 C 0.67705 0.98537 0.73236 0.0
C1387 C 0.66145 0.96731 0.71449 0.0
C1388 C 0.66945 0.96667 0.68799 0.0
C1389 C 0.69433 0.98443 0.67959 0.0
C1390 C 0.71114 1.00262 0.69752 0.0
C1391 C 0.70186 1.00368 0.72415 0.0
H1392 H 0.95151 0.73548 0.69182 0.0
H1393 H 1.01507 0.75566 0.75492 0.0
H1394 H 0.98548 0.72126 0.78439 0.0
H1395 H 0.88224 0.73074 0.73245 0.0
H1396 H 0.86631 0.69999 0.71321 0.0
H1397 H 0.8913 0.72766 0.69796 0.0
H1398 H 0.92642 0.68362 0.6818 0.0
H1399 H 0.90182 0.65585 0.69734 0.0
H1400 H 0.94201 0.657 0.70533 0.0
H1401 H 0.95216 0.68199 0.80517 0.0
H1402 H 0.91428 0.64421 0.81887 0.0
H1403 H 0.87047 0.64938 0.74234 0.0
C1404 C 0.95906 0.73298 0.71197 0.0
C1405 C 0.98565 0.74817 0.72119 0.0
C1406 C 0.99467 0.74445 0.74761 0.0
C1407 C 0.97811 0.72482 0.76434 0.0
C1408 C 0.95256 0.7095 0.75429 0.0
C1409 C 0.94277 0.7137 0.72885 0.0
C1410 C 0.91484 0.69413 0.72278 0.0
C1411 C 0.88702 0.71434 0.71622 0.0
C1412 C 0.9217 0.6713 0.70049 0.0
C1413 C 0.91057 0.67779 0.74881 0.0
C1414 C 0.93275 0.68707 0.76653 0.0
C1415 C 0.93447 0.67492 0.79161 0.0
C1416 C 0.91264 0.6533 0.79912 0.0
C1417 C 0.88892 0.64387 0.78179 0.0
C1418 C 0.88815 0.65608 0.75607 0.0
H1419 H 0.38605 0.99465 0.74751 0.0
H1420 H 0.35395 0.94193 0.68096 0.0
H1421 H 0.38701 0.8987 0.69387 0.0
H1422 H 0.46132 0.9734 0.74459 0.0
H1423 H 0.46797 0.96963 0.77938 0.0
H1424 H 0.43853 0.99503 0.76768 0.0
H1425 H 0.39774 0.96705 0.79591 0.0
H1426 H 0.42725 0.94213 0.8084 0.0
H1427 H 0.3937 0.92607 0.79314 0.0
H1428 H 0.42949 0.86419 0.71004 0.0
H1429 H 0.47131 0.8372 0.73377 0.0
H1430 H 0.47452 0.9118 0.79005 0.0
C1431 C 0.3849 0.97342 0.73654 0.0
C1432 C 0.36715 0.97134 0.71352 0.0
C1433 C 0.36711 0.94367 0.69893 0.0
C1434 C 0.386 0.91909 0.70595 0.0
C1435 C 0.40461 0.92233 0.72787 0.0
C1436 C 0.40354 0.94838 0.74347 0.0
C1437 C 0.42667 0.94626 0.7655 0.0
C1438 C 0.44999 0.97265 0.76418 0.0
C1439 C 0.41037 0.94531 0.79233 0.0
C1440 C 0.44157 0.91573 0.75914 0.0
C1441 C 0.42862 0.90219 0.73739 0.0
C1442 C 0.43949 0.87431 0.72742 0.0
C1443 C 0.46345 0.8593 0.74076 0.0
C1444 C 0.47599 0.87227 0.76376 0.0
C1445 C 0.46519 0.9011 0.77261 0.0
H1446 H 0.14935 0.41562 0.69259 0.0
H1447 H 0.15335 0.33941 0.74722 0.0
H1448 H 0.19584 0.36544 0.77084 0.0
H1449 H 0.23009 0.42865 0.68818 0.0
H1450 H 0.2264 0.4697 0.68597 0.0
H1451 H 0.19628 0.44536 0.67381 0.0
H1452 H 0.15662 0.47264 0.70383 0.0
H1453 H 0.18642 0.49762 0.71542 0.0
H1454 H 0.16404 0.4757 0.73857 0.0
H1455 H 0.23883 0.39954 0.78716 0.0
H1456 H 0.27224 0.44235 0.80019 0.0
H1457 H 0.2395 0.49628 0.7346 0.0
C1458 C 0.15897 0.40436 0.70966 0.0
C1459 C 0.14818 0.37538 0.71807 0.0
C1460 C 0.16116 0.36166 0.74059 0.0
C1461 C 0.18551 0.37612 0.75384 0.0
C1462 C 0.19638 0.40416 0.74422 0.0
C1463 C 0.18308 0.41834 0.72292 0.0
C1464 C 0.19816 0.4488 0.71675 0.0
C1465 C 0.21364 0.44807 0.68956 0.0
C1466 C 0.17493 0.47525 0.71879 0.0
C1467 C 0.22175 0.45017 0.73841 0.0
C1468 C 0.22081 0.42383 0.75364 0.0
C1469 C 0.2398 0.42008 0.77527 0.0
C1470 C 0.25897 0.44442 0.78233 0.0
C1471 C 0.25892 0.47228 0.76801 0.0
C1472 C 0.24076 0.47486 0.74529 0.0
H1473 H 0.67609 0.26626 0.7458 0.0
H1474 H 0.60911 0.20558 0.78116 0.0
H1475 H 0.64101 0.16099 0.7699 0.0
H1476 H 0.69664 0.20957 0.69076 0.0
H1477 H 0.73594 0.22222 0.69072 0.0
H1478 H 0.70568 0.24877 0.69872 0.0
H1479 H 0.73344 0.26091 0.74238 0.0
H1480 H 0.76291 0.23323 0.73519 0.0
H1481 H 0.74118 0.23034 0.76528 0.0
H1482 H 0.68382 0.12396 0.76191 0.0
H1483 H 0.72781 0.09435 0.74439 0.0
H1484 H 0.76575 0.17763 0.71142 0.0
C1485 C 0.66742 0.24347 0.74975 0.0
C1486 C 0.6399 0.2393 0.76398 0.0
C1487 C 0.62979 0.20917 0.76973 0.0
C1488 C 0.64802 0.18371 0.76385 0.0
C1489 C 0.67607 0.18863 0.7516 0.0
C1490 C 0.68511 0.2175 0.74337 0.0
C1491 C 0.71624 0.216 0.73003 0.0
C1492 C 0.71346 0.22464 0.70083 0.0
C1493 C 0.73982 0.23633 0.74408 0.0
C1494 C 0.72374 0.18222 0.73336 0.0
C1495 C 0.7004 0.16692 0.74612 0.0
C1496 C 0.70215 0.13559 0.75161 0.0
C1497 C 0.72748 0.11902 0.7421 0.0
C1498 C 0.7504 0.13387 0.72717 0.0
C1499 C 0.74894 0.16597 0.72353 0.0
H1500 H 0.99504 0.38041 0.23253 0.0
H1501 H 0.9401 0.35342 0.29969 0.0
H1502 H 0.89821 0.38693 0.28496 0.0
H1503 H 0.97809 0.45478 0.23143 0.0
H1504 H 0.97395 0.4602 0.1965 0.0
H1505 H 0.99756 0.42964 0.20872 0.0
H1506 H 0.96623 0.38957 0.18261 0.0
H1507 H 0.94308 0.42015 0.16946 0.0
H1508 H 0.92515 0.38849 0.18623 0.0
H1509 H 0.86697 0.43101 0.26825 0.0
H1510 H 0.84343 0.47474 0.24446 0.0
H1511 H 0.9176 0.47143 0.18749 0.0
C1512 C 0.97351 0.38026 0.24316 0.0
C1513 C 0.97059 0.36427 0.26706 0.0
C1514 C 0.94252 0.36539 0.28113 0.0
C1515 C 0.91867 0.38451 0.27305 0.0
C1516 C 0.92291 0.4018 0.25044 0.0
C1517 C 0.94906 0.39896 0.23505 0.0
C1518 C 0.94817 0.42122 0.21226 0.0
C1519 C 0.9761 0.44272 0.21226 0.0
C1520 C 0.9455 0.40382 0.18609 0.0
C1521 C 0.91884 0.43835 0.21851 0.0
C1522 C 0.90438 0.42669 0.24044 0.0
C1523 C 0.87765 0.43991 0.25062 0.0
C1524 C 0.86466 0.46495 0.23726 0.0
C1525 C 0.87856 0.47632 0.21411 0.0
C1526 C 0.90623 0.46308 0.20503 0.0
H1527 H 0.68107 0.8812 0.18934 0.0
H1528 H 0.61243 0.8658 0.24987 0.0
H1529 H 0.63825 0.90403 0.27811 0.0
H1530 H 0.74597 0.89056 0.23246 0.0
H1531 H 0.76334 0.92009 0.21262 0.0
H1532 H 0.73956 0.89143 0.19748 0.0
H1533 H 0.70577 0.93433 0.17758 0.0
H1534 H 0.72915 0.96311 0.19308 0.0
H1535 H 0.68843 0.96233 0.19901 0.0
H1536 H 0.66859 0.94577 0.29791 0.0
H1537 H 0.70708 0.98218 0.31303 0.0
H1538 H 0.75916 0.96945 0.24089 0.0
C1539 C 0.67161 0.88562 0.20867 0.0
C1540 C 0.64467 0.87054 0.21749 0.0
C1541 C 0.6331 0.87688 0.24286 0.0
C1542 C 0.64744 0.89877 0.25886 0.0
C1543 C 0.67335 0.91386 0.24917 0.0
C1544 C 0.68573 0.90721 0.22491 0.0
C1545 C 0.71418 0.92638 0.21947 0.0
C1546 C 0.74244 0.90588 0.21527 0.0
C1547 C 0.70907 0.9478 0.19588 0.0
C1548 C 0.71634 0.94447 0.24486 0.0
C1549 C 0.69196 0.93727 0.26125 0.0
C1550 C 0.688 0.95119 0.28546 0.0
C1551 C 0.71017 0.97192 0.29381 0.0
C1552 C 0.73663 0.97827 0.27839 0.0
C1553 C 0.73931 0.96506 0.25312 0.0
H1554 H 0.13189 0.73971 0.23878 0.0
H1555 H 0.18099 0.75824 0.31095 0.0
H1556 H 0.22183 0.72254 0.29761 0.0
H1557 H 0.14544 0.66235 0.2359 0.0
H1558 H 0.15194 0.6595 0.20098 0.0
H1559 H 0.12847 0.68991 0.21389 0.0
H1560 H 0.16303 0.73044 0.19133 0.0
H1561 H 0.18626 0.70007 0.17783 0.0
H1562 H 0.20376 0.72988 0.19712 0.0
H1563 H 0.25449 0.67959 0.27912 0.0
H1564 H 0.27911 0.63758 0.25363 0.0
H1565 H 0.2088 0.64716 0.19403 0.0
C1566 C 0.15185 0.73715 0.25117 0.0
C1567 C 0.15334 0.75188 0.27582 0.0
C1568 C 0.17944 0.74723 0.29191 0.0
C1569 C 0.20278 0.72691 0.28457 0.0
C1570 C 0.20003 0.71145 0.26084 0.0
C1571 C 0.17563 0.71685 0.24403 0.0
C1572 C 0.17775 0.69621 0.22015 0.0
C1573 C 0.1492 0.67579 0.21761 0.0
C1574 C 0.18301 0.71529 0.19513 0.0
C1575 C 0.20599 0.67751 0.22692 0.0
C1576 C 0.21882 0.68679 0.25028 0.0
C1577 C 0.24481 0.67232 0.26059 0.0
C1578 C 0.25849 0.64827 0.24619 0.0
C1579 C 0.24595 0.6389 0.2219 0.0
C1580 C 0.21912 0.65363 0.21254 0.0
H1581 H 0.35762 0.16997 0.25084 0.0
H1582 H 0.42314 0.10113 0.27523 0.0
H1583 H 0.46569 0.13583 0.2638 0.0
H1584 H 0.40573 0.19981 0.19423 0.0
H1585 H 0.39246 0.23841 0.19975 0.0
H1586 H 0.36784 0.20648 0.20724 0.0
H1587 H 0.3617 0.22782 0.25447 0.0
H1588 H 0.38777 0.25879 0.24756 0.0
H1589 H 0.39521 0.23316 0.27458 0.0
H1590 H 0.50019 0.18131 0.2584 0.0
H1591 H 0.52676 0.2275 0.24235 0.0
H1592 H 0.44006 0.26492 0.21621 0.0
C1593 C 0.38094 0.16162 0.25221 0.0
C1594 C 0.38725 0.13269 0.26337 0.0
C1595 C 0.41799 0.12293 0.26604 0.0
C1596 C 0.44227 0.14273 0.26015 0.0
C1597 C 0.43534 0.17201 0.25115 0.0
C1598 C 0.40557 0.18095 0.24584 0.0
C1599 C 0.40471 0.21362 0.23567 0.0
C1600 C 0.39195 0.21463 0.20755 0.0
C1601 C 0.38625 0.23457 0.25418 0.0
C1602 C 0.43856 0.22154 0.23634 0.0
C1603 C 0.45563 0.19757 0.24623 0.0
C1604 C 0.4872 0.19993 0.24988 0.0
C1605 C 0.50211 0.22645 0.24094 0.0
C1606 C 0.48554 0.24951 0.22762 0.0
C1607 C 0.45322 0.24768 0.22655 0.0
loop_
_geom_bond_atom_site_label_1
_geom_bond_atom_site_label_2
_geom_bond_distance
_geom_bond_site_symmetry_2
_ccdc_geom_bond_type
C0 C1 1.351 . S
C0 N3 1.368 . S
C0 H5 0.931 . S
C1 C0 1.351 . S
C1 N2 1.373 . S
C1 H29 0.930 . S
N2 C1 1.373 . S
N2 C4 1.340 . S
N3 C0 1.368 . S
N3 C4 1.321 . S
N3 Co6 2.135 1_655 S
C4 N2 1.340 . S
C4 N3 1.321 . S
C4 H28 0.930 1_655 S
H5 C0 0.931 . S
Co6 N3 2.135 1_455 S
Co6 N9 2.121 . S
Co6 O14 2.055 . S
Co6 O17 2.039 . S
Co6 N20 2.140 . S
C7 O8 1.227 . S
C7 O17 1.265 . S
O8 C7 1.227 . S
N9 Co6 2.121 . S
N9 C11 1.375 . S
N9 C12 1.313 . S
C10 C11 1.338 . S
C10 N13 1.377 . S
C10 H30 0.930 . S
C11 N9 1.375 . S
C11 C10 1.338 . S
C11 H15 0.931 . S
C12 N9 1.313 . S
C12 N13 1.344 . S
C12 H16 0.930 . S
N13 C10 1.377 . S
N13 C12 1.344 . S
O14 Co6 2.055 . S
O14 C18 1.253 1_455 S
H15 C11 0.931 . S
H16 C12 0.930 . S
O17 Co6 2.039 . S
O17 C7 1.265 . S
C18 O14 1.253 1_655 S
C18 O19 1.227 . S
O19 C18 1.227 . S
N20 Co6 2.140 . S
N20 C23 1.346 . S
N20 C24 1.345 . S
C21 C22 1.387 . S
C21 C25 1.391 . S
C22 C21 1.387 . S
C22 C23 1.369 . S
C22 H31 0.929 . S
C23 N20 1.346 . S
C23 C22 1.369 . S
C23 H26 0.928 . S
C24 N20 1.345 . S
C24 C25 1.371 . S
C24 H27 0.931 . S
C25 C21 1.391 . S
C25 C24 1.371 . S
C25 H32 0.930 . S
H26 C23 0.928 . S
H27 C24 0.931 . S
H28 C4 0.930 1_455 S
H29 C1 0.930 . S
H30 C10 0.930 . S
H31 C22 0.929 . S
H32 C25 0.930 . S
C33 C34 1.351 . S
C33 N36 1.368 . S
C33 H38 0.931 . S
C34 C33 1.351 . S
C34 N35 1.373 . S
C34 H62 0.930 . S
N35 C34 1.373 . S
N35 C37 1.340 . S
N36 C33 1.368 . S
N36 C37 1.321 . S
N36 Co39 2.135 1_565 S
C37 N35 1.340 . S
C37 N36 1.321 . S
C37 H61 0.930 1_565 S
H38 C33 0.931 . S
Co39 N36 2.135 1_545 S
Co39 N42 2.121 . S
Co39 O47 2.055 . S
Co39 O50 2.039 . S
Co39 N53 2.140 . S
C40 O41 1.227 . S
C40 O50 1.265 . S
O41 C40 1.227 . S
N42 Co39 2.121 . S
N42 C44 1.375 . S
N42 C45 1.313 . S
C43 C44 1.338 . S
C43 N46 1.377 . S
C43 H63 0.930 . S
C44 N42 1.375 . S
C44 C43 1.338 . S
C44 H48 0.931 . S
C45 N42 1.313 . S
C45 N46 1.344 . S
C45 H49 0.930 . S
N46 C43 1.377 . S
N46 C45 1.344 . S
O47 Co39 2.055 . S
O47 C51 1.253 1_545 S
H48 C44 0.931 . S
H49 C45 0.930 . S
O50 Co39 2.039 . S
O50 C40 1.265 . S
C51 O47 1.253 1_565 S
C51 O52 1.227 . S
O52 C51 1.227 . S
N53 Co39 2.140 . S
N53 C56 1.346 . S
N53 C57 1.345 . S
C54 C55 1.387 . S
C54 C58 1.391 . S
C55 C54 1.387 . S
C55 C56 1.369 . S
C55 H64 0.929 . S
C56 N53 1.346 . S
C56 C55 1.369 . S
C56 H59 0.928 . S
C57 N53 1.345 . S
C57 C58 1.371 . S
C57 H60 0.931 . S
C58 C54 1.391 . S
C58 C57 1.371 . S
C58 H65 0.930 . S
H59 C56 0.928 . S
H60 C57 0.931 . S
H61 C37 0.930 1_545 S
H62 C34 0.930 . S
H63 C43 0.930 . S
H64 C55 0.929 . S
H65 C58 0.930 . S
C66 C67 1.351 . S
C66 N69 1.368 . S
C66 H71 0.931 . S
C67 C66 1.351 . S
C67 N68 1.373 . S
C67 H95 0.930 . S
N68 C67 1.373 . S
N68 C70 1.340 . S
N69 C66 1.368 . S
N69 C70 1.321 . S
N69 Co72 2.135 . S
C70 N68 1.340 . S
C70 N69 1.321 . S
C70 H94 0.930 . S
H71 C66 0.931 . S
Co72 N69 2.135 . S
Co72 N75 2.121 . S
Co72 O80 2.055 . S
Co72 O83 2.039 . S
Co72 N86 2.140 . S
C73 O74 1.227 . S
C73 O83 1.265 . S
O74 C73 1.227 . S
N75 Co72 2.121 . S
N75 C77 1.375 . S
N75 C78 1.313 . S
C76 C77 1.338 1_655 S
C76 N79 1.377 1_655 S
C76 H96 0.930 . S
C77 N75 1.375 . S
C77 C76 1.338 1_455 S
C77 H81 0.931 1_455 S
C78 N75 1.313 . S
C78 N79 1.344 . S
C78 H82 0.930 . S
N79 C76 1.377 1_455 S
N79 C78 1.344 . S
O80 Co72 2.055 . S
O80 C84 1.253 . S
H81 C77 0.931 1_655 S
H82 C78 0.930 . S
O83 Co72 2.039 . S
O83 C73 1.265 . S
C84 O80 1.253 . S
C84 O85 1.227 . S
O85 C84 1.227 . S
N86 Co72 2.140 . S
N86 C89 1.346 . S
N86 C90 1.345 . S
C87 C88 1.387 . S
C87 C91 1.391 . S
C88 C87 1.387 . S
C88 C89 1.369 . S
C88 H97 0.929 . S
C89 N86 1.346 . S
C89 C88 1.369 . S
C89 H92 0.928 . S
C90 N86 1.345 . S
C90 C91 1.371 . S
C90 H93 0.931 . S
C91 C87 1.391 . S
C91 C90 1.371 . S
C91 H98 0.930 . S
H92 C89 0.928 . S
H93 C90 0.931 . S
H94 C70 0.930 . S
H95 C67 0.930 . S
H96 C76 0.930 . S
H97 C88 0.929 . S
H98 C91 0.930 . S
C99 C100 1.351 . S
C99 N102 1.368 . S
C99 H104 0.931 . S
C100 C99 1.351 . S
C100 N101 1.373 . S
C100 H128 0.930 . S
N101 C100 1.373 . S
N101 C103 1.340 . S
N102 C99 1.368 . S
N102 C103 1.321 . S
N102 Co105 2.135 . S
C103 N101 1.340 . S
C103 N102 1.321 . S
C103 H127 0.930 . S
H104 C99 0.931 . S
Co105 N102 2.135 . S
Co105 N108 2.121 . S
Co105 O113 2.055 . S
Co105 O116 2.039 . S
Co105 N119 2.140 . S
C106 O107 1.227 . S
C106 O116 1.265 . S
O107 C106 1.227 . S
N108 Co105 2.121 . S
N108 C110 1.375 . S
N108 C111 1.313 . S
C109 C110 1.338 1_565 S
C109 N112 1.377 1_565 S
C109 H129 0.930 . S
C110 N108 1.375 . S
C110 C109 1.338 1_545 S
C110 H114 0.931 1_545 S
C111 N108 1.313 . S
C111 N112 1.344 . S
C111 H115 0.930 . S
N112 C109 1.377 1_545 S
N112 C111 1.344 . S
O113 Co105 2.055 . S
O113 C117 1.253 . S
H114 C110 0.931 1_565 S
H115 C111 0.930 . S
O116 Co105 2.039 . S
O116 C106 1.265 . S
C117 O113 1.253 . S
C117 O118 1.227 . S
O118 C117 1.227 . S
N119 Co105 2.140 . S
N119 C122 1.346 . S
N119 C123 1.345 . S
C120 C121 1.387 . S
C120 C124 1.391 . S
C121 C120 1.387 . S
C121 C122 1.369 . S
C121 H130 0.929 . S
C122 N119 1.346 . S
C122 C121 1.369 . S
C122 H125 0.928 . S
C123 N119 1.345 . S
C123 C124 1.371 . S
C123 H126 0.931 . S
C124 C120 1.391 . S
C124 C123 1.371 . S
C124 H131 0.930 . S
H125 C122 0.928 . S
H126 C123 0.931 . S
H127 C103 0.930 . S
H128 C100 0.930 . S
H129 C109 0.930 . S
H130 C121 0.929 . S
H131 C124 0.930 . S
C132 C133 1.351 . S
C132 N135 1.368 . S
C132 H137 0.931 . S
C133 C132 1.351 . S
C133 N134 1.373 . S
C133 H161 0.930 . S
N134 C133 1.373 . S
N134 C136 1.340 . S
N135 C132 1.368 . S
N135 C136 1.321 . S
N135 Co138 2.135 1_655 S
C136 N134 1.340 . S
C136 N135 1.321 . S
C136 H160 0.930 1_655 S
H137 C132 0.931 . S
Co138 N135 2.135 1_455 S
Co138 N141 2.121 . S
Co138 O146 2.055 . S
Co138 O149 2.039 . S
Co138 N152 2.140 . S
C139 O140 1.227 . S
C139 O149 1.265 . S
O140 C139 1.227 . S
N141 Co138 2.121 . S
N141 C143 1.375 . S
N141 C144 1.313 . S
C142 C143 1.338 . S
C142 N145 1.377 . S
C142 H162 0.930 . S
C143 N141 1.375 . S
C143 C142 1.338 . S
C143 H147 0.931 . S
C144 N141 1.313 . S
C144 N145 1.344 . S
C144 H148 0.930 . S
N145 C142 1.377 . S
N145 C144 1.344 . S
O146 Co138 2.055 . S
O146 C150 1.253 1_455 S
H147 C143 0.931 . S
H148 C144 0.930 . S
O149 Co138 2.039 . S
O149 C139 1.265 . S
C150 O146 1.253 1_655 S
C150 O151 1.227 . S
O151 C150 1.227 . S
N152 Co138 2.140 . S
N152 C155 1.346 . S
N152 C156 1.345 . S
C153 C154 1.387 . S
C153 C157 1.391 . S
C154 C153 1.387 . S
C154 C155 1.369 . S
C154 H163 0.929 . S
C155 N152 1.346 . S
C155 C154 1.369 . S
C155 H158 0.928 . S
C156 N152 1.345 . S
C156 C157 1.371 . S
C156 H159 0.931 . S
C157 C153 1.391 . S
C157 C156 1.371 . S
C157 H164 0.930 . S
H158 C155 0.928 . S
H159 C156 0.931 . S
H160 C136 0.930 1_455 S
H161 C133 0.930 . S
H162 C142 0.930 . S
H163 C154 0.929 . S
H164 C157 0.930 . S
C165 C166 1.351 . S
C165 N168 1.368 . S
C165 H170 0.931 . S
C166 C165 1.351 . S
C166 N167 1.373 . S
C166 H194 0.930 . S
N167 C166 1.373 . S
N167 C169 1.340 . S
N168 C165 1.368 . S
N168 C169 1.321 . S
N168 Co171 2.135 1_565 S
C169 N167 1.340 . S
C169 N168 1.321 . S
C169 H193 0.930 1_565 S
H170 C165 0.931 . S
Co171 N168 2.135 1_545 S
Co171 N174 2.121 . S
Co171 O179 2.055 . S
Co171 O182 2.039 . S
Co171 N185 2.140 . S
C172 O173 1.227 . S
C172 O182 1.265 . S
O173 C172 1.227 . S
N174 Co171 2.121 . S
N174 C176 1.375 . S
N174 C177 1.313 . S
C175 C176 1.338 . S
C175 N178 1.377 . S
C175 H195 0.930 . S
C176 N174 1.375 . S
C176 C175 1.338 . S
C176 H180 0.931 . S
C177 N174 1.313 . S
C177 N178 1.344 . S
C177 H181 0.930 . S
N178 C175 1.377 . S
N178 C177 1.344 . S
O179 Co171 2.055 . S
O179 C183 1.253 1_545 S
H180 C176 0.931 . S
H181 C177 0.930 . S
O182 Co171 2.039 . S
O182 C172 1.265 . S
C183 O179 1.253 1_565 S
C183 O184 1.227 . S
O184 C183 1.227 . S
N185 Co171 2.140 . S
N185 C188 1.346 . S
N185 C189 1.345 . S
C186 C187 1.387 . S
C186 C190 1.391 . S
C187 C186 1.387 . S
C187 C188 1.369 . S
C187 H196 0.929 . S
C188 N185 1.346 . S
C188 C187 1.369 . S
C188 H191 0.928 . S
C189 N185 1.345 . S
C189 C190 1.371 . S
C189 H192 0.931 . S
C190 C186 1.391 . S
C190 C189 1.371 . S
C190 H197 0.930 . S
H191 C188 0.928 . S
H192 C189 0.931 . S
H193 C169 0.930 1_545 S
H194 C166 0.930 . S
H195 C175 0.930 . S
H196 C187 0.929 . S
H197 C190 0.930 . S
C198 C199 1.351 . S
C198 N201 1.368 . S
C198 H203 0.931 . S
C199 C198 1.351 . S
C199 N200 1.373 . S
C199 H227 0.930 . S
N200 C199 1.373 . S
N200 C202 1.340 . S
N201 C198 1.368 . S
N201 C202 1.321 . S
N201 Co204 2.135 . S
C202 N200 1.340 . S
C202 N201 1.321 . S
C202 H226 0.930 . S
H203 C198 0.931 . S
Co204 N201 2.135 . S
Co204 N207 2.121 . S
Co204 O212 2.055 . S
Co204 O215 2.039 . S
Co204 N218 2.140 . S
C205 O206 1.227 . S
C205 O215 1.265 . S
O206 C205 1.227 . S
N207 Co204 2.121 . S
N207 C209 1.375 . S
N207 C210 1.313 . S
C208 C209 1.338 1_655 S
C208 N211 1.377 1_655 S
C208 H228 0.930 . S
C209 N207 1.375 . S
C209 C208 1.338 1_455 S
C209 H213 0.931 1_455 S
C210 N207 1.313 . S
C210 N211 1.344 . S
C210 H214 0.930 . S
N211 C208 1.377 1_455 S
N211 C210 1.344 . S
O212 Co204 2.055 . S
O212 C216 1.253 . S
H213 C209 0.931 1_655 S
H214 C210 0.930 . S
O215 Co204 2.039 . S
O215 C205 1.265 . S
C216 O212 1.253 . S
C216 O217 1.227 . S
O217 C216 1.227 . S
N218 Co204 2.140 . S
N218 C221 1.346 . S
N218 C222 1.345 . S
C219 C220 1.387 . S
C219 C223 1.391 . S
C220 C219 1.387 . S
C220 C221 1.369 . S
C220 H229 0.929 . S
C221 N218 1.346 . S
C221 C220 1.369 . S
C221 H224 0.928 . S
C222 N218 1.345 . S
C222 C223 1.371 . S
C222 H225 0.931 . S
C223 C219 1.391 . S
C223 C222 1.371 . S
C223 H230 0.930 . S
H224 C221 0.928 . S
H225 C222 0.931 . S
H226 C202 0.930 . S
H227 C199 0.930 . S
H228 C208 0.930 . S
H229 C220 0.929 . S
H230 C223 0.930 . S
C231 C232 1.351 . S
C231 N234 1.368 . S
C231 H236 0.931 . S
C232 C231 1.351 . S
C232 N233 1.373 . S
C232 H260 0.930 . S
N233 C232 1.373 . S
N233 C235 1.340 . S
N234 C231 1.368 . S
N234 C235 1.321 . S
N234 Co237 2.135 . S
C235 N233 1.340 . S
C235 N234 1.321 . S
C235 H259 0.930 . S
H236 C231 0.931 . S
Co237 N234 2.135 . S
Co237 N240 2.121 . S
Co237 O245 2.055 . S
Co237 O248 2.039 . S
Co237 N251 2.140 . S
C238 O239 1.227 . S
C238 O248 1.265 . S
O239 C238 1.227 . S
N240 Co237 2.121 . S
N240 C242 1.375 . S
N240 C243 1.313 . S
C241 C242 1.338 1_565 S
C241 N244 1.377 1_565 S
C241 H261 0.930 . S
C242 N240 1.375 . S
C242 C241 1.338 1_545 S
C242 H246 0.931 1_545 S
C243 N240 1.313 . S
C243 N244 1.344 . S
C243 H247 0.930 . S
N244 C241 1.377 1_545 S
N244 C243 1.344 . S
O245 Co237 2.055 . S
O245 C249 1.253 . S
H246 C242 0.931 1_565 S
H247 C243 0.930 . S
O248 Co237 2.039 . S
O248 C238 1.265 . S
C249 O245 1.253 . S
C249 O250 1.227 . S
O250 C249 1.227 . S
N251 Co237 2.140 . S
N251 C254 1.346 . S
N251 C255 1.345 . S
C252 C253 1.387 . S
C252 C256 1.391 . S
C253 C252 1.387 . S
C253 C254 1.369 . S
C253 H262 0.929 . S
C254 N251 1.346 . S
C254 C253 1.369 . S
C254 H257 0.928 . S
C255 N251 1.345 . S
C255 C256 1.371 . S
C255 H258 0.931 . S
C256 C252 1.391 . S
C256 C255 1.371 . S
C256 H263 0.930 . S
H257 C254 0.928 . S
H258 C255 0.931 . S
H259 C235 0.930 . S
H260 C232 0.930 . S
H261 C241 0.930 . S
H262 C253 0.929 . S
H263 C256 0.930 . S
C264 C265 1.351 . S
C264 N267 1.368 . S
C264 H269 0.931 . S
C265 C264 1.351 . S
C265 N266 1.373 . S
C265 H293 0.930 . S
N266 C265 1.373 . S
N266 C268 1.340 . S
N267 C264 1.368 . S
N267 C268 1.321 . S
N267 Co270 2.135 . S
C268 N266 1.340 . S
C268 N267 1.321 . S
C268 H292 0.930 . S
H269 C264 0.931 . S
Co270 N267 2.135 . S
Co270 N273 2.121 . S
Co270 O278 2.055 . S
Co270 O281 2.039 . S
Co270 N284 2.140 . S
C271 O272 1.227 . S
C271 O281 1.265 . S
O272 C271 1.227 . S
N273 Co270 2.121 . S
N273 C275 1.375 . S
N273 C276 1.313 . S
C274 C275 1.338 . S
C274 N277 1.377 . S
C274 H294 0.930 . S
C275 N273 1.375 . S
C275 C274 1.338 . S
C275 H279 0.931 . S
C276 N273 1.313 . S
C276 N277 1.344 . S
C276 H280 0.930 . S
N277 C274 1.377 . S
N277 C276 1.344 . S
O278 Co270 2.055 . S
O278 C282 1.253 . S
H279 C275 0.931 . S
H280 C276 0.930 . S
O281 Co270 2.039 . S
O281 C271 1.265 . S
C282 O278 1.253 . S
C282 O283 1.227 . S
O283 C282 1.227 . S
N284 Co270 2.140 . S
N284 C287 1.346 . S
N284 C288 1.345 . S
C285 C286 1.387 . S
C285 C289 1.391 . S
C286 C285 1.387 . S
C286 C287 1.369 . S
C286 H295 0.929 . S
C287 N284 1.346 . S
C287 C286 1.369 . S
C287 H290 0.928 . S
C288 N284 1.345 . S
C288 C289 1.371 . S
C288 H291 0.931 . S
C289 C285 1.391 . S
C289 C288 1.371 . S
C289 H296 0.930 . S
H290 C287 0.928 . S
H291 C288 0.931 . S
H292 C268 0.930 . S
H293 C265 0.930 . S
H294 C274 0.930 . S
H295 C286 0.929 . S
H296 C289 0.930 . S
C297 C298 1.351 . S
C297 N300 1.368 . S
C297 H302 0.931 . S
C298 C297 1.351 . S
C298 N299 1.373 . S
C298 H326 0.930 . S
N299 C298 1.373 . S
N299 C301 1.340 . S
N300 C297 1.368 . S
N300 C301 1.321 . S
N300 Co303 2.135 . S
C301 N299 1.340 . S
C301 N300 1.321 . S
C301 H325 0.930 . S
H302 C297 0.931 . S
Co303 N300 2.135 . S
Co303 N306 2.121 . S
Co303 O311 2.055 . S
Co303 O314 2.039 . S
Co303 N317 2.140 . S
C304 O305 1.227 . S
C304 O314 1.265 . S
O305 C304 1.227 . S
N306 Co303 2.121 . S
N306 C308 1.375 . S
N306 C309 1.313 . S
C307 C308 1.338 . S
C307 N310 1.377 . S
C307 H327 0.930 . S
C308 N306 1.375 . S
C308 C307 1.338 . S
C308 H312 0.931 . S
C309 N306 1.313 . S
C309 N310 1.344 . S
C309 H313 0.930 . S
N310 C307 1.377 . S
N310 C309 1.344 . S
O311 Co303 2.055 . S
O311 C315 1.253 . S
H312 C308 0.931 . S
H313 C309 0.930 . S
O314 Co303 2.039 . S
O314 C304 1.265 . S
C315 O311 1.253 . S
C315 O316 1.227 . S
O316 C315 1.227 . S
N317 Co303 2.140 . S
N317 C320 1.346 . S
N317 C321 1.345 . S
C318 C319 1.387 . S
C318 C322 1.391 . S
C319 C318 1.387 . S
C319 C320 1.369 . S
C319 H328 0.929 . S
C320 N317 1.346 . S
C320 C319 1.369 . S
C320 H323 0.928 . S
C321 N317 1.345 . S
C321 C322 1.371 . S
C321 H324 0.931 . S
C322 C318 1.391 . S
C322 C321 1.371 . S
C322 H329 0.930 . S
H323 C320 0.928 . S
H324 C321 0.931 . S
H325 C301 0.930 . S
H326 C298 0.930 . S
H327 C307 0.930 . S
H328 C319 0.929 . S
H329 C322 0.930 . S
C330 C331 1.351 . S
C330 N333 1.368 . S
C330 H335 0.931 . S
C331 C330 1.351 . S
C331 N332 1.373 . S
C331 H359 0.930 . S
N332 C331 1.373 . S
N332 C334 1.340 . S
N333 C330 1.368 . S
N333 C334 1.321 . S
N333 Co336 2.135 . S
C334 N332 1.340 . S
C334 N333 1.321 . S
C334 H358 0.930 . S
H335 C330 0.931 . S
Co336 N333 2.135 . S
Co336 N339 2.121 . S
Co336 O344 2.055 . S
Co336 O347 2.039 . S
Co336 N350 2.140 . S
C337 O338 1.227 . S
C337 O347 1.265 . S
O338 C337 1.227 . S
N339 Co336 2.121 . S
N339 C341 1.375 . S
N339 C342 1.313 . S
C340 C341 1.338 . S
C340 N343 1.377 . S
C340 H360 0.930 . S
C341 N339 1.375 . S
C341 C340 1.338 . S
C341 H345 0.931 . S
C342 N339 1.313 . S
C342 N343 1.344 . S
C342 H346 0.930 . S
N343 C340 1.377 . S
N343 C342 1.344 . S
O344 Co336 2.055 . S
O344 C348 1.253 . S
H345 C341 0.931 . S
H346 C342 0.930 . S
O347 Co336 2.039 . S
O347 C337 1.265 . S
C348 O344 1.253 . S
C348 O349 1.227 . S
O349 C348 1.227 . S
N350 Co336 2.140 . S
N350 C353 1.346 . S
N350 C354 1.345 . S
C351 C352 1.387 . S
C351 C355 1.391 . S
C352 C351 1.387 . S
C352 C353 1.369 . S
C352 H361 0.929 . S
C353 N350 1.346 . S
C353 C352 1.369 . S
C353 H356 0.928 . S
C354 N350 1.345 . S
C354 C355 1.371 . S
C354 H357 0.931 . S
C355 C351 1.391 . S
C355 C354 1.371 . S
C355 H362 0.930 . S
H356 C353 0.928 . S
H357 C354 0.931 . S
H358 C334 0.930 . S
H359 C331 0.930 . S
H360 C340 0.930 . S
H361 C352 0.929 . S
H362 C355 0.930 . S
C363 C364 1.351 . S
C363 N366 1.368 . S
C363 H368 0.931 . S
C364 C363 1.351 . S
C364 N365 1.373 . S
C364 H392 0.930 . S
N365 C364 1.373 . S
N365 C367 1.340 . S
N366 C363 1.368 . S
N366 C367 1.321 . S
N366 Co369 2.135 . S
C367 N365 1.340 . S
C367 N366 1.321 . S
C367 H391 0.930 . S
H368 C363 0.931 . S
Co369 N366 2.135 . S
Co369 N372 2.121 . S
Co369 O377 2.055 . S
Co369 O380 2.039 . S
Co369 N383 2.140 . S
C370 O371 1.227 . S
C370 O380 1.265 . S
O371 C370 1.227 . S
N372 Co369 2.121 . S
N372 C374 1.375 . S
N372 C375 1.313 . S
C373 C374 1.338 . S
C373 N376 1.377 . S
C373 H393 0.930 . S
C374 N372 1.375 . S
C374 C373 1.338 . S
C374 H378 0.931 . S
C375 N372 1.313 . S
C375 N376 1.344 . S
C375 H379 0.930 . S
N376 C373 1.377 . S
N376 C375 1.344 . S
O377 Co369 2.055 . S
O377 C381 1.253 . S
H378 C374 0.931 . S
H379 C375 0.930 . S
O380 Co369 2.039 . S
O380 C370 1.265 . S
C381 O377 1.253 . S
C381 O382 1.227 . S
O382 C381 1.227 . S
N383 Co369 2.140 . S
N383 C386 1.346 . S
N383 C387 1.345 . S
C384 C385 1.387 . S
C384 C388 1.391 . S
C385 C384 1.387 . S
C385 C386 1.369 . S
C385 H394 0.929 . S
C386 N383 1.346 . S
C386 C385 1.369 . S
C386 H389 0.928 . S
C387 N383 1.345 . S
C387 C388 1.371 . S
C387 H390 0.931 . S
C388 C384 1.391 . S
C388 C387 1.371 . S
C388 H395 0.930 . S
H389 C386 0.928 . S
H390 C387 0.931 . S
H391 C367 0.930 . S
H392 C364 0.930 . S
H393 C373 0.930 . S
H394 C385 0.929 . S
H395 C388 0.930 . S
C396 C397 1.351 . S
C396 N399 1.368 . S
C396 H401 0.931 . S
C397 C396 1.351 . S
C397 N398 1.373 . S
C397 H425 0.930 . S
N398 C397 1.373 . S
N398 C400 1.340 . S
N399 C396 1.368 . S
N399 C400 1.321 . S
N399 Co402 2.135 . S
C400 N398 1.340 . S
C400 N399 1.321 . S
C400 H424 0.930 . S
H401 C396 0.931 . S
Co402 N399 2.135 . S
Co402 N405 2.121 . S
Co402 O410 2.055 . S
Co402 O413 2.039 . S
Co402 N416 2.140 . S
C403 O404 1.227 . S
C403 O413 1.265 . S
O404 C403 1.227 . S
N405 Co402 2.121 . S
N405 C407 1.375 . S
N405 C408 1.313 . S
C406 C407 1.338 . S
C406 N409 1.377 . S
C406 H426 0.930 . S
C407 N405 1.375 . S
C407 C406 1.338 . S
C407 H411 0.931 . S
C408 N405 1.313 . S
C408 N409 1.344 . S
C408 H412 0.930 . S
N409 C406 1.377 . S
N409 C408 1.344 . S
O410 Co402 2.055 . S
O410 C414 1.253 . S
H411 C407 0.931 . S
H412 C408 0.930 . S
O413 Co402 2.039 . S
O413 C403 1.265 . S
C414 O410 1.253 . S
C414 O415 1.227 . S
O415 C414 1.227 . S
N416 Co402 2.140 . S
N416 C419 1.346 . S
N416 C420 1.345 . S
C417 C418 1.387 . S
C417 C421 1.391 . S
C418 C417 1.387 . S
C418 C419 1.369 . S
C418 H427 0.929 . S
C419 N416 1.346 . S
C419 C418 1.369 . S
C419 H422 0.928 . S
C420 N416 1.345 . S
C420 C421 1.371 . S
C420 H423 0.931 . S
C421 C417 1.391 . S
C421 C420 1.371 . S
C421 H428 0.930 . S
H422 C419 0.928 . S
H423 C420 0.931 . S
H424 C400 0.930 . S
H425 C397 0.930 . S
H426 C406 0.930 . S
H427 C418 0.929 . S
H428 C421 0.930 . S
C429 C430 1.351 . S
C429 N432 1.368 . S
C429 H434 0.931 . S
C430 C429 1.351 . S
C430 N431 1.373 . S
C430 H458 0.930 . S
N431 C430 1.373 . S
N431 C433 1.340 . S
N432 C429 1.368 . S
N432 C433 1.321 . S
N432 Co435 2.135 . S
C433 N431 1.340 . S
C433 N432 1.321 . S
C433 H457 0.930 . S
H434 C429 0.931 . S
Co435 N432 2.135 . S
Co435 N438 2.121 . S
Co435 O443 2.055 . S
Co435 O446 2.039 . S
Co435 N449 2.140 . S
C436 O437 1.227 . S
C436 O446 1.265 . S
O437 C436 1.227 . S
N438 Co435 2.121 . S
N438 C440 1.375 . S
N438 C441 1.313 . S
C439 C440 1.338 . S
C439 N442 1.377 . S
C439 H459 0.930 . S
C440 N438 1.375 . S
C440 C439 1.338 . S
C440 H444 0.931 . S
C441 N438 1.313 . S
C441 N442 1.344 . S
C441 H445 0.930 . S
N442 C439 1.377 . S
N442 C441 1.344 . S
O443 Co435 2.055 . S
O443 C447 1.253 . S
H444 C440 0.931 . S
H445 C441 0.930 . S
O446 Co435 2.039 . S
O446 C436 1.265 . S
C447 O443 1.253 . S
C447 O448 1.227 . S
O448 C447 1.227 . S
N449 Co435 2.140 . S
N449 C452 1.346 . S
N449 C453 1.345 . S
C450 C451 1.387 . S
C450 C454 1.391 . S
C451 C450 1.387 . S
C451 C452 1.369 . S
C451 H460 0.929 . S
C452 N449 1.346 . S
C452 C451 1.369 . S
C452 H455 0.928 . S
C453 N449 1.345 . S
C453 C454 1.371 . S
C453 H456 0.931 . S
C454 C450 1.391 . S
C454 C453 1.371 . S
C454 H461 0.930 . S
H455 C452 0.928 . S
H456 C453 0.931 . S
H457 C433 0.930 . S
H458 C430 0.930 . S
H459 C439 0.930 . S
H460 C451 0.929 . S
H461 C454 0.930 . S
C462 C463 1.351 . S
C462 N465 1.368 . S
C462 H467 0.931 . S
C463 C462 1.351 . S
C463 N464 1.373 . S
C463 H491 0.930 . S
N464 C463 1.373 . S
N464 C466 1.340 . S
N465 C462 1.368 . S
N465 C466 1.321 . S
N465 Co468 2.135 . S
C466 N464 1.340 . S
C466 N465 1.321 . S
C466 H490 0.930 . S
H467 C462 0.931 . S
Co468 N465 2.135 . S
Co468 N471 2.121 . S
Co468 O476 2.055 . S
Co468 O479 2.039 . S
Co468 N482 2.140 . S
C469 O470 1.227 . S
C469 O479 1.265 . S
O470 C469 1.227 . S
N471 Co468 2.121 . S
N471 C473 1.375 . S
N471 C474 1.313 . S
C472 C473 1.338 . S
C472 N475 1.377 . S
C472 H492 0.930 . S
C473 N471 1.375 . S
C473 C472 1.338 . S
C473 H477 0.931 . S
C474 N471 1.313 . S
C474 N475 1.344 . S
C474 H478 0.930 . S
N475 C472 1.377 . S
N475 C474 1.344 . S
O476 Co468 2.055 . S
O476 C480 1.253 . S
H477 C473 0.931 . S
H478 C474 0.930 . S
O479 Co468 2.039 . S
O479 C469 1.265 . S
C480 O476 1.253 . S
C480 O481 1.227 . S
O481 C480 1.227 . S
N482 Co468 2.140 . S
N482 C485 1.346 . S
N482 C486 1.345 . S
C483 C484 1.387 . S
C483 C487 1.391 . S
C484 C483 1.387 . S
C484 C485 1.369 . S
C484 H493 0.929 . S
C485 N482 1.346 . S
C485 C484 1.369 . S
C485 H488 0.928 . S
C486 N482 1.345 . S
C486 C487 1.371 . S
C486 H489 0.931 . S
C487 C483 1.391 . S
C487 C486 1.371 . S
C487 H494 0.930 . S
H488 C485 0.928 . S
H489 C486 0.931 . S
H490 C466 0.930 . S
H491 C463 0.930 . S
H492 C472 0.930 . S
H493 C484 0.929 . S
H494 C487 0.930 . S
C495 C496 1.351 . S
C495 N498 1.368 . S
C495 H500 0.931 . S
C496 C495 1.351 . S
C496 N497 1.373 . S
C496 H524 0.930 . S
N497 C496 1.373 . S
N497 C499 1.340 . S
N498 C495 1.368 . S
N498 C499 1.321 . S
N498 Co501 2.135 . S
C499 N497 1.340 . S
C499 N498 1.321 . S
C499 H523 0.930 . S
H500 C495 0.931 . S
Co501 N498 2.135 . S
Co501 N504 2.121 . S
Co501 O509 2.055 . S
Co501 O512 2.039 . S
Co501 N515 2.140 . S
C502 O503 1.227 . S
C502 O512 1.265 . S
O503 C502 1.227 . S
N504 Co501 2.121 . S
N504 C506 1.375 . S
N504 C507 1.313 . S
C505 C506 1.338 . S
C505 N508 1.377 . S
C505 H525 0.930 . S
C506 N504 1.375 . S
C506 C505 1.338 . S
C506 H510 0.931 . S
C507 N504 1.313 . S
C507 N508 1.344 . S
C507 H511 0.930 . S
N508 C505 1.377 . S
N508 C507 1.344 . S
O509 Co501 2.055 . S
O509 C513 1.253 . S
H510 C506 0.931 . S
H511 C507 0.930 . S
O512 Co501 2.039 . S
O512 C502 1.265 . S
C513 O509 1.253 . S
C513 O514 1.227 . S
O514 C513 1.227 . S
N515 Co501 2.140 . S
N515 C518 1.346 . S
N515 C519 1.345 . S
C516 C517 1.387 . S
C516 C520 1.391 . S
C517 C516 1.387 . S
C517 C518 1.369 . S
C517 H526 0.929 . S
C518 N515 1.346 . S
C518 C517 1.369 . S
C518 H521 0.928 . S
C519 N515 1.345 . S
C519 C520 1.371 . S
C519 H522 0.931 . S
C520 C516 1.391 . S
C520 C519 1.371 . S
C520 H527 0.930 . S
H521 C518 0.928 . S
H522 C519 0.931 . S
H523 C499 0.930 . S
H524 C496 0.930 . S
H525 C505 0.930 . S
H526 C517 0.929 . S
H527 C520 0.930 . S
H528 C540 0.930 . S
H529 C542 0.930 . S
H530 C543 0.930 . S
H531 C547 0.959 . S
H532 C547 0.959 . S
H533 C547 0.961 . S
H534 C548 0.960 . S
H535 C548 0.961 . S
H536 C548 0.959 . S
H537 C551 0.929 . S
H538 C552 0.931 . S
H539 C554 0.930 . S
C540 H528 0.930 . S
C540 C541 1.399 . S
C540 C545 1.399 . S
C541 C540 1.399 . S
C541 C542 1.376 . S
C542 H529 0.930 . S
C542 C541 1.376 . S
C542 C543 1.388 . S
C543 H530 0.930 . S
C543 C542 1.388 . S
C543 C544 1.390 . S
C544 C543 1.390 . S
C544 C545 1.394 . S
C544 C550 1.465 . S
C545 C540 1.399 . S
C545 C544 1.394 . S
C545 C546 1.516 . S
C546 C545 1.516 . S
C546 C547 1.502 . S
C546 C548 1.561 . S
C546 C549 1.526 . S
C547 H531 0.959 . S
C547 H532 0.959 . S
C547 H533 0.961 . S
C547 C546 1.502 . S
C548 H534 0.960 . S
C548 H535 0.961 . S
C548 H536 0.959 . S
C548 C546 1.561 . S
C549 C546 1.526 . S
C549 C550 1.396 . S
C549 C554 1.390 . S
C550 C544 1.465 . S
C550 C549 1.396 . S
C550 C551 1.399 . S
C551 H537 0.929 . S
C551 C550 1.399 . S
C551 C552 1.385 . S
C552 H538 0.931 . S
C552 C551 1.385 . S
C552 C553 1.389 . S
C553 C552 1.389 . S
C553 C554 1.387 . S
C554 H539 0.930 . S
C554 C549 1.390 . S
C554 C553 1.387 . S
H555 C567 0.930 . S
H556 C569 0.930 . S
H557 C570 0.930 . S
H558 C574 0.959 1_545 S
H559 C574 0.959 . S
H560 C574 0.961 . S
H561 C575 0.960 . S
H562 C575 0.961 . S
H563 C575 0.959 1_545 S
H564 C578 0.929 . S
H565 C579 0.931 . S
H566 C581 0.930 1_565 S
C567 H555 0.930 . S
C567 C568 1.399 . S
C567 C572 1.399 . S
C568 C567 1.399 . S
C568 C569 1.376 . S
C569 H556 0.930 . S
C569 C568 1.376 . S
C569 C570 1.388 . S
C570 H557 0.930 . S
C570 C569 1.388 . S
C570 C571 1.390 . S
C571 C570 1.390 . S
C571 C572 1.394 . S
C571 C577 1.465 . S
C572 C567 1.399 . S
C572 C571 1.394 . S
C572 C573 1.516 . S
C573 C572 1.516 . S
C573 C574 1.502 1_545 S
C573 C575 1.561 1_545 S
C573 C576 1.526 . S
C574 H558 0.959 1_565 S
C574 H559 0.959 . S
C574 H560 0.961 . S
C574 C573 1.502 1_565 S
C575 H561 0.960 . S
C575 H562 0.961 . S
C575 H563 0.959 1_565 S
C575 C573 1.561 1_565 S
C576 C573 1.526 . S
C576 C577 1.396 . S
C576 C581 1.390 . S
C577 C571 1.465 . S
C577 C576 1.396 . S
C577 C578 1.399 . S
C578 H564 0.929 . S
C578 C577 1.399 . S
C578 C579 1.385 . S
C579 H565 0.931 . S
C579 C578 1.385 . S
C579 C580 1.389 . S
C580 C579 1.389 . S
C580 C581 1.387 . S
C581 H566 0.930 1_545 S
C581 C576 1.390 . S
C581 C580 1.387 . S
H582 C594 0.930 . S
H583 C596 0.930 . S
H584 C597 0.930 . S
H585 C601 0.959 . S
H586 C601 0.959 . S
H587 C601 0.961 . S
H588 C602 0.960 . S
H589 C602 0.961 . S
H590 C602 0.959 . S
H591 C605 0.929 . S
H592 C606 0.931 . S
H593 C608 0.930 . S
C594 H582 0.930 . S
C594 C595 1.399 . S
C594 C599 1.399 . S
C595 C594 1.399 . S
C595 C596 1.376 . S
C596 H583 0.930 . S
C596 C595 1.376 . S
C596 C597 1.388 . S
C597 H584 0.930 . S
C597 C596 1.388 . S
C597 C598 1.390 . S
C598 C597 1.390 . S
C598 C599 1.394 . S
C598 C604 1.465 . S
C599 C594 1.399 . S
C599 C598 1.394 . S
C599 C600 1.516 . S
C600 C599 1.516 . S
C600 C601 1.502 . S
C600 C602 1.561 . S
C600 C603 1.526 . S
C601 H585 0.959 . S
C601 H586 0.959 . S
C601 H587 0.961 . S
C601 C600 1.502 . S
C602 H588 0.960 . S
C602 H589 0.961 . S
C602 H590 0.959 . S
C602 C600 1.561 . S
C603 C600 1.526 . S
C603 C604 1.396 . S
C603 C608 1.390 . S
C604 C598 1.465 . S
C604 C603 1.396 . S
C604 C605 1.399 . S
C605 H591 0.929 . S
C605 C604 1.399 . S
C605 C606 1.385 . S
C606 H592 0.931 . S
C606 C605 1.385 . S
C606 C607 1.389 . S
C607 C606 1.389 . S
C607 C608 1.387 . S
C608 H593 0.930 . S
C608 C603 1.390 . S
C608 C607 1.387 . S
H609 C621 0.930 . S
H610 C623 0.930 1_565 S
H611 C624 0.930 1_565 S
H612 C628 0.959 . S
H613 C628 0.959 . S
H614 C628 0.961 . S
H615 C629 0.960 . S
H616 C629 0.961 . S
H617 C629 0.959 . S
H618 C632 0.904 1_565 S
H619 C633 0.931 . S
H620 C635 0.930 . S
C621 H609 0.930 . S
C621 C622 1.399 . S
C621 C626 1.399 . S
C622 C621 1.399 . S
C622 C623 1.376 . S
C623 H610 0.930 1_545 S
C623 C622 1.376 . S
C623 C624 1.388 . S
C624 H611 0.930 1_545 S
C624 C623 1.388 . S
C624 C625 1.390 . S
C625 C624 1.390 . S
C625 C626 1.394 . S
C625 C631 1.465 . S
C626 C621 1.399 . S
C626 C625 1.394 . S
C626 C627 1.516 . S
C627 C626 1.516 . S
C627 C628 1.502 . S
C627 C629 1.561 . S
C627 C630 1.526 . S
C628 H612 0.959 . S
C628 H613 0.959 . S
C628 H614 0.961 . S
C628 C627 1.502 . S
C629 H615 0.960 . S
C629 H616 0.961 . S
C629 H617 0.959 . S
C629 C627 1.561 . S
C630 C627 1.526 . S
C630 C631 1.396 . S
C630 C635 1.390 . S
C631 C625 1.465 . S
C631 C630 1.396 . S
C631 C632 1.399 . S
C632 H618 0.904 1_545 S
C632 C631 1.399 . S
C632 C633 1.385 . S
C633 H619 0.931 . S
C633 C632 1.385 . S
C633 C634 1.389 . S
C634 C633 1.389 . S
C634 C635 1.387 . S
C635 H620 0.930 . S
C635 C630 1.390 . S
C635 C634 1.387 . S
H636 C648 0.930 . S
H637 C650 0.930 . S
H638 C651 0.930 . S
H639 C655 0.959 . S
H640 C655 0.959 1_554 S
H641 C655 0.961 . S
H642 C656 0.960 1_556 S
H643 C656 0.961 . S
H644 C656 0.959 . S
H645 C659 0.929 . S
H646 C660 0.931 . S
H647 C662 0.930 . S
C648 H636 0.930 . S
C648 C649 1.399 . S
C648 C653 1.399 . S
C649 C648 1.399 . S
C649 C650 1.376 . S
C650 H637 0.930 . S
C650 C649 1.376 . S
C650 C651 1.388 . S
C651 H638 0.930 . S
C651 C650 1.388 . S
C651 C652 1.390 . S
C652 C651 1.390 . S
C652 C653 1.394 . S
C652 C658 1.465 1_556 S
C653 C648 1.399 . S
C653 C652 1.394 . S
C653 C654 1.516 . S
C654 C653 1.516 . S
C654 C655 1.502 . S
C654 C656 1.561 1_556 S
C654 C657 1.526 1_556 S
C655 H639 0.959 . S
C655 H640 0.959 1_556 S
C655 H641 0.961 . S
C655 C654 1.502 . S
C656 H642 0.960 1_554 S
C656 H643 0.961 . S
C656 H644 0.959 . S
C656 C654 1.561 1_554 S
C657 C654 1.526 1_554 S
C657 C658 1.396 . S
C657 C662 1.390 . S
C658 C652 1.465 1_554 S
C658 C657 1.396 . S
C658 C659 1.399 . S
C659 H645 0.929 . S
C659 C658 1.399 . S
C659 C660 1.385 . S
C660 H646 0.931 . S
C660 C659 1.385 . S
C660 C661 1.389 . S
C661 C660 1.389 . S
C661 C662 1.387 . S
C662 H647 0.930 . S
C662 C657 1.390 . S
C662 C661 1.387 . S
H663 C675 0.930 . S
H664 C677 0.930 . S
H665 C678 0.930 . S
H666 C682 0.959 . S
H667 C682 0.959 . S
H668 C682 0.961 1_556 S
H669 C683 0.960 1_556 S
H670 C683 0.961 . S
H671 C683 0.959 . S
H672 C686 0.929 . S
H673 C687 0.931 . S
H674 C689 0.930 . S
C675 H663 0.930 . S
C675 C676 1.399 . S
C675 C680 1.399 . S
C676 C675 1.399 . S
C676 C677 1.376 . S
C677 H664 0.930 . S
C677 C676 1.376 . S
C677 C678 1.388 . S
C678 H665 0.930 . S
C678 C677 1.388 . S
C678 C679 1.390 . S
C679 C678 1.390 . S
C679 C680 1.394 . S
C679 C685 1.465 1_556 S
C680 C675 1.399 . S
C680 C679 1.394 . S
C680 C681 1.516 1_556 S
C681 C680 1.516 1_554 S
C681 C682 1.502 . S
C681 C683 1.561 . S
C681 C684 1.526 . S
C682 H666 0.959 . S
C682 H667 0.959 . S
C682 H668 0.961 1_554 S
C682 C681 1.502 . S
C683 H669 0.960 1_554 S
C683 H670 0.961 . S
C683 H671 0.959 . S
C683 C681 1.561 . S
C684 C681 1.526 . S
C684 C685 1.396 . S
C684 C689 1.390 . S
C685 C679 1.465 1_554 S
C685 C684 1.396 . S
C685 C686 1.399 . S
C686 H672 0.929 . S
C686 C685 1.399 . S
C686 C687 1.385 . S
C687 H673 0.931 . S
C687 C686 1.385 . S
C687 C688 1.389 . S
C688 C687 1.389 . S
C688 C689 1.387 . S
C689 H674 0.930 . S
C689 C684 1.390 . S
C689 C688 1.387 . S
H690 C702 0.930 . S
H691 C704 0.930 . S
H692 C705 0.930 . S
H693 C709 0.959 . S
H694 C709 0.959 . S
H695 C709 0.961 1_556 S
H696 C710 0.960 . S
H697 C710 0.961 1_554 S
H698 C710 0.959 . S
H699 C713 0.929 . S
H700 C714 0.931 . S
H701 C716 0.930 . S
C702 H690 0.930 . S
C702 C703 1.399 . S
C702 C707 1.399 . S
C703 C702 1.399 . S
C703 C704 1.376 . S
C704 H691 0.930 . S
C704 C703 1.376 . S
C704 C705 1.388 . S
C705 H692 0.930 . S
C705 C704 1.388 . S
C705 C706 1.390 . S
C706 C705 1.390 . S
C706 C707 1.394 . S
C706 C712 1.465 1_556 S
C707 C702 1.399 . S
C707 C706 1.394 . S
C707 C708 1.516 1_556 S
C708 C707 1.516 1_554 S
C708 C709 1.502 . S
C708 C710 1.561 1_554 S
C708 C711 1.526 . S
C709 H693 0.959 . S
C709 H694 0.959 . S
C709 H695 0.961 1_554 S
C709 C708 1.502 . S
C710 H696 0.960 . S
C710 H697 0.961 1_556 S
C710 H698 0.959 . S
C710 C708 1.561 1_556 S
C711 C708 1.526 . S
C711 C712 1.396 . S
C711 C716 1.390 . S
C712 C706 1.465 1_554 S
C712 C711 1.396 . S
C712 C713 1.399 . S
C713 H699 0.929 . S
C713 C712 1.399 . S
C713 C714 1.385 . S
C714 H700 0.931 . S
C714 C713 1.385 . S
C714 C715 1.389 . S
C715 C714 1.389 . S
C715 C716 1.387 . S
C716 H701 0.930 . S
C716 C711 1.390 . S
C716 C715 1.387 . S
H717 C729 0.930 . S
H718 C731 0.930 . S
H719 C732 0.930 . S
H720 C736 0.959 . S
H721 C736 0.959 . S
H722 C736 0.961 1_554 S
H723 C737 0.960 1_554 S
H724 C737 0.961 . S
H725 C737 0.959 . S
H726 C740 0.929 . S
H727 C741 0.931 . S
H728 C743 0.930 . S
C729 H717 0.930 . S
C729 C730 1.399 . S
C729 C734 1.399 . S
C730 C729 1.399 . S
C730 C731 1.376 . S
C731 H718 0.930 . S
C731 C730 1.376 . S
C731 C732 1.388 . S
C732 H719 0.930 . S
C732 C731 1.388 . S
C732 C733 1.390 . S
C733 C732 1.390 . S
C733 C734 1.394 . S
C733 C739 1.465 1_554 S
C734 C729 1.399 . S
C734 C733 1.394 . S
C734 C735 1.516 1_554 S
C735 C734 1.516 1_556 S
C735 C736 1.502 . S
C735 C737 1.561 . S
C735 C738 1.526 . S
C736 H720 0.959 . S
C736 H721 0.959 . S
C736 H722 0.961 1_556 S
C736 C735 1.502 . S
C737 H723 0.960 1_556 S
C737 H724 0.961 . S
C737 H725 0.959 . S
C737 C735 1.561 . S
C738 C735 1.526 . S
C738 C739 1.396 . S
C738 C743 1.390 . S
C739 C733 1.465 1_556 S
C739 C738 1.396 . S
C739 C740 1.399 . S
C740 H726 0.929 . S
C740 C739 1.399 . S
C740 C741 1.385 . S
C741 H727 0.931 . S
C741 C740 1.385 . S
C741 C742 1.389 . S
C742 C741 1.389 . S
C742 C743 1.387 . S
C743 H728 0.930 . S
C743 C738 1.390 . S
C743 C742 1.387 . S
H744 C756 0.930 . S
H745 C758 0.930 . S
H746 C759 0.930 . S
H747 C763 0.959 . S
H748 C763 0.959 . S
H749 C763 0.961 . S
H750 C764 0.960 . S
H751 C764 0.961 . S
H752 C764 0.959 . S
H753 C767 0.929 . S
H754 C768 0.931 . S
H755 C770 0.930 . S
C756 H744 0.930 . S
C756 C757 1.399 . S
C756 C761 1.399 . S
C757 C756 1.399 . S
C757 C758 1.376 . S
C758 H745 0.930 . S
C758 C757 1.376 . S
C758 C759 1.388 . S
C759 H746 0.930 . S
C759 C758 1.388 . S
C759 C760 1.390 . S
C760 C759 1.390 . S
C760 C761 1.394 . S
C760 C766 1.465 . S
C761 C756 1.399 . S
C761 C760 1.394 . S
C761 C762 1.516 . S
C762 C761 1.516 . S
C762 C763 1.502 . S
C762 C764 1.561 . S
C762 C765 1.526 . S
C763 H747 0.959 . S
C763 H748 0.959 . S
C763 H749 0.961 . S
C763 C762 1.502 . S
C764 H750 0.960 . S
C764 H751 0.961 . S
C764 H752 0.959 . S
C764 C762 1.561 . S
C765 C762 1.526 . S
C765 C766 1.396 . S
C765 C770 1.390 . S
C766 C760 1.465 . S
C766 C765 1.396 . S
C766 C767 1.399 . S
C767 H753 0.929 . S
C767 C766 1.399 . S
C767 C768 1.385 . S
C768 H754 0.931 . S
C768 C767 1.385 . S
C768 C769 1.389 . S
C769 C768 1.389 . S
C769 C770 1.387 . S
C770 H755 0.930 . S
C770 C765 1.390 . S
C770 C769 1.387 . S
H771 C783 0.930 . S
H772 C785 0.930 . S
H773 C786 0.930 . S
H774 C790 0.959 . S
H775 C790 0.959 . S
H776 C790 0.961 . S
H777 C791 0.960 . S
H778 C791 0.961 . S
H779 C791 0.959 . S
H780 C794 0.929 . S
H781 C795 0.931 . S
H782 C797 0.930 . S
C783 H771 0.930 . S
C783 C784 1.399 . S
C783 C788 1.399 . S
C784 C783 1.399 . S
C784 C785 1.376 . S
C785 H772 0.930 . S
C785 C784 1.376 . S
C785 C786 1.388 . S
C786 H773 0.930 . S
C786 C785 1.388 . S
C786 C787 1.390 . S
C787 C786 1.390 . S
C787 C788 1.394 . S
C787 C793 1.465 . S
C788 C783 1.399 . S
C788 C787 1.394 . S
C788 C789 1.516 . S
C789 C788 1.516 . S
C789 C790 1.502 . S
C789 C791 1.561 . S
C789 C792 1.526 . S
C790 H774 0.959 . S
C790 H775 0.959 . S
C790 H776 0.961 . S
C790 C789 1.502 . S
C791 H777 0.960 . S
C791 H778 0.961 . S
C791 H779 0.959 . S
C791 C789 1.561 . S
C792 C789 1.526 . S
C792 C793 1.396 . S
C792 C797 1.390 . S
C793 C787 1.465 . S
C793 C792 1.396 . S
C793 C794 1.399 . S
C794 H780 0.929 . S
C794 C793 1.399 . S
C794 C795 1.385 . S
C795 H781 0.931 . S
C795 C794 1.385 . S
C795 C796 1.389 . S
C796 C795 1.389 . S
C796 C797 1.387 . S
C797 H782 0.930 . S
C797 C792 1.390 . S
C797 C796 1.387 . S
H798 C810 0.930 . S
H799 C812 0.930 . S
H800 C813 0.930 . S
H801 C817 0.959 . S
H802 C817 0.959 . S
H803 C817 0.961 . S
H804 C818 0.960 . S
H805 C818 0.961 . S
H806 C818 0.959 . S
H807 C821 0.929 . S
H808 C822 0.931 . S
H809 C824 0.930 . S
C810 H798 0.930 . S
C810 C811 1.399 . S
C810 C815 1.399 . S
C811 C810 1.399 . S
C811 C812 1.376 . S
C812 H799 0.930 . S
C812 C811 1.376 . S
C812 C813 1.388 . S
C813 H800 0.930 . S
C813 C812 1.388 . S
C813 C814 1.390 . S
C814 C813 1.390 . S
C814 C815 1.394 . S
C814 C820 1.465 . S
C815 C810 1.399 . S
C815 C814 1.394 . S
C815 C816 1.516 . S
C816 C815 1.516 . S
C816 C817 1.502 . S
C816 C818 1.561 . S
C816 C819 1.526 . S
C817 H801 0.959 . S
C817 H802 0.959 . S
C817 H803 0.961 . S
C817 C816 1.502 . S
C818 H804 0.960 . S
C818 H805 0.961 . S
C818 H806 0.959 . S
C818 C816 1.561 . S
C819 C816 1.526 . S
C819 C820 1.396 . S
C819 C824 1.390 . S
C820 C814 1.465 . S
C820 C819 1.396 . S
C820 C821 1.399 . S
C821 H807 0.929 . S
C821 C820 1.399 . S
C821 C822 1.385 1_655 S
C822 H808 0.931 . S
C822 C821 1.385 1_455 S
C822 C823 1.389 . S
C823 C822 1.389 . S
C823 C824 1.387 1_455 S
C824 H809 0.930 . S
C824 C819 1.390 . S
C824 C823 1.387 1_655 S
H825 C837 0.930 1_545 S
H826 C839 0.930 . S
H827 C840 0.930 . S
H828 C844 0.959 . S
H829 C844 0.959 . S
H830 C844 0.961 . S
H831 C845 0.978 . S
H832 C845 0.961 . S
H833 C845 0.959 . S
H834 C848 0.929 . S
H835 C849 0.931 . S
H836 C851 0.930 . S
C837 H825 0.930 1_565 S
C837 C838 1.399 1_565 S
C837 C842 1.399 . S
C838 C837 1.399 1_545 S
C838 C839 1.376 1_545 S
C839 H826 0.930 . S
C839 C838 1.376 1_565 S
C839 C840 1.388 . S
C840 H827 0.930 . S
C840 C839 1.388 . S
C840 C841 1.390 . S
C841 C840 1.390 . S
C841 C842 1.394 . S
C841 C847 1.465 . S
C842 C837 1.399 . S
C842 C841 1.394 . S
C842 C843 1.516 . S
C843 C842 1.516 . S
C843 C844 1.502 . S
C843 C845 1.561 . S
C843 C846 1.526 . S
C844 H828 0.959 . S
C844 H829 0.959 . S
C844 H830 0.961 . S
C844 C843 1.502 . S
C845 H831 0.978 . S
C845 H832 0.961 . S
C845 H833 0.959 . S
C845 C843 1.561 . S
C846 C843 1.526 . S
C846 C847 1.396 . S
C846 C851 1.390 . S
C847 C841 1.465 . S
C847 C846 1.396 . S
C847 C848 1.399 . S
C848 H834 0.929 . S
C848 C847 1.399 . S
C848 C849 1.385 . S
C849 H835 0.931 . S
C849 C848 1.385 . S
C849 C850 1.389 . S
C850 C849 1.389 . S
C850 C851 1.387 . S
C851 H836 0.930 . S
C851 C846 1.390 . S
C851 C850 1.387 . S
H852 C864 0.930 . S
H853 C866 0.930 . S
H854 C867 0.930 . S
H855 C871 0.959 . S
H856 C871 0.959 . S
H857 C871 0.961 . S
H858 C872 0.960 . S
H859 C872 0.961 . S
H860 C872 0.959 . S
H861 C875 0.929 . S
H862 C876 0.931 . S
H863 C878 0.930 . S
C864 H852 0.930 . S
C864 C865 1.399 . S
C864 C869 1.399 . S
C865 C864 1.399 . S
C865 C866 1.376 . S
C866 H853 0.930 . S
C866 C865 1.376 . S
C866 C867 1.388 . S
C867 H854 0.930 . S
C867 C866 1.388 . S
C867 C868 1.390 . S
C868 C867 1.390 . S
C868 C869 1.394 . S
C868 C874 1.465 . S
C869 C864 1.399 . S
C869 C868 1.394 . S
C869 C870 1.516 . S
C870 C869 1.516 . S
C870 C871 1.502 . S
C870 C872 1.561 . S
C870 C873 1.526 . S
C871 H855 0.959 . S
C871 H856 0.959 . S
C871 H857 0.961 . S
C871 C870 1.502 . S
C872 H858 0.960 . S
C872 H859 0.961 . S
C872 H860 0.959 . S
C872 C870 1.561 . S
C873 C870 1.526 . S
C873 C874 1.396 . S
C873 C878 1.390 . S
C874 C868 1.465 . S
C874 C873 1.396 . S
C874 C875 1.399 . S
C875 H861 0.929 . S
C875 C874 1.399 . S
C875 C876 1.385 . S
C876 H862 0.931 . S
C876 C875 1.385 . S
C876 C877 1.389 . S
C877 C876 1.389 . S
C877 C878 1.387 . S
C878 H863 0.930 . S
C878 C873 1.390 . S
C878 C877 1.387 . S
H879 C891 0.930 . S
H880 C893 0.930 . S
H881 C894 0.930 . S
H882 C898 0.959 . S
H883 C898 0.959 . S
H884 C898 0.961 . S
H885 C899 0.960 . S
H886 C899 0.961 . S
H887 C899 0.959 . S
H888 C902 0.929 . S
H889 C903 0.931 . S
H890 C905 0.930 . S
C891 H879 0.930 . S
C891 C892 1.399 . S
C891 C896 1.399 . S
C892 C891 1.399 . S
C892 C893 1.376 . S
C893 H880 0.930 . S
C893 C892 1.376 . S
C893 C894 1.388 . S
C894 H881 0.930 . S
C894 C893 1.388 . S
C894 C895 1.390 . S
C895 C894 1.390 . S
C895 C896 1.394 . S
C895 C901 1.465 . S
C896 C891 1.399 . S
C896 C895 1.394 . S
C896 C897 1.516 . S
C897 C896 1.516 . S
C897 C898 1.502 . S
C897 C899 1.561 . S
C897 C900 1.526 . S
C898 H882 0.959 . S
C898 H883 0.959 . S
C898 H884 0.961 . S
C898 C897 1.502 . S
C899 H885 0.960 . S
C899 H886 0.961 . S
C899 H887 0.959 . S
C899 C897 1.561 . S
C900 C897 1.526 . S
C900 C901 1.396 . S
C900 C905 1.390 . S
C901 C895 1.465 . S
C901 C900 1.396 . S
C901 C902 1.399 . S
C902 H888 0.929 . S
C902 C901 1.399 . S
C902 C903 1.385 . S
C903 H889 0.931 . S
C903 C902 1.385 . S
C903 C904 1.389 . S
C904 C903 1.389 . S
C904 C905 1.387 . S
C905 H890 0.930 . S
C905 C900 1.390 . S
C905 C904 1.387 . S
H906 C918 0.930 . S
H907 C920 0.930 . S
H908 C921 0.930 . S
H909 C925 0.959 . S
H910 C925 0.959 . S
H911 C925 0.961 . S
H912 C926 0.960 . S
H913 C926 0.961 . S
H914 C926 0.959 . S
H915 C929 0.929 . S
H916 C930 0.931 . S
H917 C932 0.930 . S
C918 H906 0.930 . S
C918 C919 1.399 . S
C918 C923 1.399 . S
C919 C918 1.399 . S
C919 C920 1.376 . S
C920 H907 0.930 . S
C920 C919 1.376 . S
C920 C921 1.388 . S
C921 H908 0.930 . S
C921 C920 1.388 . S
C921 C922 1.390 . S
C922 C921 1.390 . S
C922 C923 1.394 . S
C922 C928 1.465 . S
C923 C918 1.399 . S
C923 C922 1.394 . S
C923 C924 1.516 . S
C924 C923 1.516 . S
C924 C925 1.502 . S
C924 C926 1.561 . S
C924 C927 1.526 . S
C925 H909 0.959 . S
C925 H910 0.959 . S
C925 H911 0.961 . S
C925 C924 1.502 . S
C926 H912 0.960 . S
C926 H913 0.961 . S
C926 H914 0.959 . S
C926 C924 1.561 . S
C927 C924 1.526 . S
C927 C928 1.396 . S
C927 C932 1.390 . S
C928 C922 1.465 . S
C928 C927 1.396 . S
C928 C929 1.399 . S
C929 H915 0.929 . S
C929 C928 1.399 . S
C929 C930 1.385 1_655 S
C930 H916 0.931 . S
C930 C929 1.385 1_455 S
C930 C931 1.389 . S
C931 C930 1.389 . S
C931 C932 1.387 1_455 S
C932 H917 0.930 . S
C932 C927 1.390 . S
C932 C931 1.387 1_655 S
H933 C945 0.930 . S
H934 C947 0.930 . S
H935 C948 0.930 . S
H936 C952 0.959 . S
H937 C952 0.959 . S
H938 C952 0.961 . S
H939 C953 0.960 . S
H940 C953 0.961 . S
H941 C953 0.959 . S
H942 C956 0.929 . S
H943 C957 0.931 . S
H944 C959 0.930 . S
C945 H933 0.930 . S
C945 C946 1.399 . S
C945 C950 1.399 . S
C946 C945 1.399 . S
C946 C947 1.376 . S
C947 H934 0.930 . S
C947 C946 1.376 . S
C947 C948 1.388 . S
C948 H935 0.930 . S
C948 C947 1.388 . S
C948 C949 1.390 . S
C949 C948 1.390 . S
C949 C950 1.394 . S
C949 C955 1.465 . S
C950 C945 1.399 . S
C950 C949 1.394 . S
C950 C951 1.516 . S
C951 C950 1.516 . S
C951 C952 1.502 . S
C951 C953 1.561 . S
C951 C954 1.526 . S
C952 H936 0.959 . S
C952 H937 0.959 . S
C952 H938 0.961 . S
C952 C951 1.502 . S
C953 H939 0.960 . S
C953 H940 0.961 . S
C953 H941 0.959 . S
C953 C951 1.561 . S
C954 C951 1.526 . S
C954 C955 1.396 . S
C954 C959 1.390 . S
C955 C949 1.465 . S
C955 C954 1.396 . S
C955 C956 1.399 . S
C956 H942 0.929 . S
C956 C955 1.399 . S
C956 C957 1.385 1_565 S
C957 H943 0.931 . S
C957 C956 1.385 1_545 S
C957 C958 1.389 . S
C958 C957 1.389 . S
C958 C959 1.387 1_545 S
C959 H944 0.930 . S
C959 C954 1.390 . S
C959 C958 1.387 1_565 S
H960 C972 0.930 . S
H961 C974 0.930 . S
H962 C975 0.930 . S
H963 C979 0.959 . S
H964 C979 0.959 . S
H965 C979 0.961 . S
H966 C980 0.960 . S
H967 C980 0.961 . S
H968 C980 0.959 . S
H969 C983 0.929 . S
H970 C984 0.931 . S
H971 C986 0.930 . S
C972 H960 0.930 . S
C972 C973 1.399 . S
C972 C977 1.399 . S
C973 C972 1.399 . S
C973 C974 1.376 . S
C974 H961 0.930 . S
C974 C973 1.376 . S
C974 C975 1.388 . S
C975 H962 0.930 . S
C975 C974 1.388 . S
C975 C976 1.390 . S
C976 C975 1.390 . S
C976 C977 1.394 . S
C976 C982 1.465 . S
C977 C972 1.399 . S
C977 C976 1.394 . S
C977 C978 1.516 . S
C978 C977 1.516 . S
C978 C979 1.502 . S
C978 C980 1.561 . S
C978 C981 1.526 . S
C979 H963 0.959 . S
C979 H964 0.959 . S
C979 H965 0.961 . S
C979 C978 1.502 . S
C980 H966 0.960 . S
C980 H967 0.961 . S
C980 H968 0.959 . S
C980 C978 1.561 . S
C981 C978 1.526 . S
C981 C982 1.396 . S
C981 C986 1.390 . S
C982 C976 1.465 . S
C982 C981 1.396 . S
C982 C983 1.399 . S
C983 H969 0.929 . S
C983 C982 1.399 . S
C983 C984 1.385 . S
C984 H970 0.931 . S
C984 C983 1.385 . S
C984 C985 1.389 . S
C985 C984 1.389 . S
C985 C986 1.387 . S
C986 H971 0.930 . S
C986 C981 1.390 . S
C986 C985 1.387 . S
H987 C999 0.930 . S
H988 C1001 0.930 . S
H989 C1002 0.930 . S
H990 C1006 0.959 . S
H991 C1006 0.959 . S
H992 C1006 0.961 . S
H993 C1007 0.960 . S
H994 C1007 0.961 . S
H995 C1007 0.959 . S
H996 C1010 0.929 . S
H997 C1011 0.931 . S
H998 C1013 0.930 . S
C999 H987 0.930 . S
C999 C1000 1.399 . S
C999 C1004 1.399 . S
C1000 C999 1.399 . S
C1000 C1001 1.376 . S
C1001 H988 0.930 . S
C1001 C1000 1.376 . S
C1001 C1002 1.388 . S
C1002 H989 0.930 . S
C1002 C1001 1.388 . S
C1002 C1003 1.390 . S
C1003 C1002 1.390 . S
C1003 C1004 1.394 . S
C1003 C1009 1.465 . S
C1004 C999 1.399 . S
C1004 C1003 1.394 . S
C1004 C1005 1.516 . S
C1005 C1004 1.516 . S
C1005 C1006 1.502 . S
C1005 C1007 1.561 . S
C1005 C1008 1.526 . S
C1006 H990 0.959 . S
C1006 H991 0.959 . S
C1006 H992 0.961 . S
C1006 C1005 1.502 . S
C1007 H993 0.960 . S
C1007 H994 0.961 . S
C1007 H995 0.959 . S
C1007 C1005 1.561 . S
C1008 C1005 1.526 . S
C1008 C1009 1.396 . S
C1008 C1013 1.390 . S
C1009 C1003 1.465 . S
C1009 C1008 1.396 . S
C1009 C1010 1.399 . S
C1010 H996 0.929 . S
C1010 C1009 1.399 . S
C1010 C1011 1.385 . S
C1011 H997 0.931 . S
C1011 C1010 1.385 . S
C1011 C1012 1.389 . S
C1012 C1011 1.389 . S
C1012 C1013 1.387 . S
C1013 H998 0.930 . S
C1013 C1008 1.390 . S
C1013 C1012 1.387 . S
H1014 C1026 0.930 . S
H1015 C1028 0.930 . S
H1016 C1029 0.930 . S
H1017 C1033 0.959 . S
H1018 C1033 0.959 . S
H1019 C1033 0.961 . S
H1020 C1034 0.960 . S
H1021 C1034 0.961 . S
H1022 C1034 0.959 . S
H1023 C1037 0.929 . S
H1024 C1038 0.931 . S
H1025 C1040 0.930 . S
C1026 H1014 0.930 . S
C1026 C1027 1.399 . S
C1026 C1031 1.399 . S
C1027 C1026 1.399 . S
C1027 C1028 1.376 . S
C1028 H1015 0.930 . S
C1028 C1027 1.376 . S
C1028 C1029 1.388 . S
C1029 H1016 0.930 . S
C1029 C1028 1.388 . S
C1029 C1030 1.390 . S
C1030 C1029 1.390 . S
C1030 C1031 1.394 . S
C1030 C1036 1.465 . S
C1031 C1026 1.399 . S
C1031 C1030 1.394 . S
C1031 C1032 1.516 . S
C1032 C1031 1.516 . S
C1032 C1033 1.502 . S
C1032 C1034 1.561 . S
C1032 C1035 1.526 . S
C1033 H1017 0.959 . S
C1033 H1018 0.959 . S
C1033 H1019 0.961 . S
C1033 C1032 1.502 . S
C1034 H1020 0.960 . S
C1034 H1021 0.961 . S
C1034 H1022 0.959 . S
C1034 C1032 1.561 . S
C1035 C1032 1.526 . S
C1035 C1036 1.396 . S
C1035 C1040 1.390 . S
C1036 C1030 1.465 . S
C1036 C1035 1.396 . S
C1036 C1037 1.399 . S
C1037 H1023 0.929 . S
C1037 C1036 1.399 . S
C1037 C1038 1.385 . S
C1038 H1024 0.931 . S
C1038 C1037 1.385 . S
C1038 C1039 1.389 . S
C1039 C1038 1.389 . S
C1039 C1040 1.387 . S
C1040 H1025 0.930 . S
C1040 C1035 1.390 . S
C1040 C1039 1.387 . S
H1041 C1053 0.930 . S
H1042 C1055 0.930 . S
H1043 C1056 0.930 . S
H1044 C1060 0.959 . S
H1045 C1060 0.959 . S
H1046 C1060 0.961 . S
H1047 C1061 0.960 . S
H1048 C1061 0.961 . S
H1049 C1061 0.959 . S
H1050 C1064 0.929 . S
H1051 C1065 0.931 . S
H1052 C1067 0.930 . S
C1053 H1041 0.930 . S
C1053 C1054 1.399 . S
C1053 C1058 1.399 . S
C1054 C1053 1.399 . S
C1054 C1055 1.376 . S
C1055 H1042 0.930 . S
C1055 C1054 1.376 . S
C1055 C1056 1.388 . S
C1056 H1043 0.930 . S
C1056 C1055 1.388 . S
C1056 C1057 1.390 . S
C1057 C1056 1.390 . S
C1057 C1058 1.394 . S
C1057 C1063 1.465 . S
C1058 C1053 1.399 . S
C1058 C1057 1.394 . S
C1058 C1059 1.516 . S
C1059 C1058 1.516 . S
C1059 C1060 1.502 . S
C1059 C1061 1.561 . S
C1059 C1062 1.526 . S
C1060 H1044 0.959 . S
C1060 H1045 0.959 . S
C1060 H1046 0.961 . S
C1060 C1059 1.502 . S
C1061 H1047 0.960 . S
C1061 H1048 0.961 . S
C1061 H1049 0.959 . S
C1061 C1059 1.561 . S
C1062 C1059 1.526 . S
C1062 C1063 1.396 . S
C1062 C1067 1.390 . S
C1063 C1057 1.465 . S
C1063 C1062 1.396 . S
C1063 C1064 1.399 . S
C1064 H1050 0.929 . S
C1064 C1063 1.399 . S
C1064 C1065 1.385 . S
C1065 H1051 0.931 . S
C1065 C1064 1.385 . S
C1065 C1066 1.389 . S
C1066 C1065 1.389 . S
C1066 C1067 1.387 . S
C1067 H1052 0.930 . S
C1067 C1062 1.390 . S
C1067 C1066 1.387 . S
H1068 C1080 0.930 . S
H1069 C1082 0.930 . S
H1070 C1083 0.930 . S
H1071 C1087 0.959 . S
H1072 C1087 0.959 . S
H1073 C1087 0.961 . S
H1074 C1088 0.960 . S
H1075 C1088 0.961 . S
H1076 C1088 0.959 . S
H1077 C1091 0.929 . S
H1078 C1092 0.931 . S
H1079 C1094 0.930 . S
C1080 H1068 0.930 . S
C1080 C1081 1.399 . S
C1080 C1085 1.399 . S
C1081 C1080 1.399 . S
C1081 C1082 1.376 . S
C1082 H1069 0.930 . S
C1082 C1081 1.376 . S
C1082 C1083 1.388 . S
C1083 H1070 0.930 . S
C1083 C1082 1.388 . S
C1083 C1084 1.390 . S
C1084 C1083 1.390 . S
C1084 C1085 1.394 . S
C1084 C1090 1.465 . S
C1085 C1080 1.399 . S
C1085 C1084 1.394 . S
C1085 C1086 1.516 . S
C1086 C1085 1.516 . S
C1086 C1087 1.502 . S
C1086 C1088 1.561 . S
C1086 C1089 1.526 . S
C1087 H1071 0.959 . S
C1087 H1072 0.959 . S
C1087 H1073 0.961 . S
C1087 C1086 1.502 . S
C1088 H1074 0.960 . S
C1088 H1075 0.961 . S
C1088 H1076 0.959 . S
C1088 C1086 1.561 . S
C1089 C1086 1.526 . S
C1089 C1090 1.396 . S
C1089 C1094 1.390 . S
C1090 C1084 1.465 . S
C1090 C1089 1.396 . S
C1090 C1091 1.399 . S
C1091 H1077 0.929 . S
C1091 C1090 1.399 . S
C1091 C1092 1.385 . S
C1092 H1078 0.931 . S
C1092 C1091 1.385 . S
C1092 C1093 1.389 . S
C1093 C1092 1.389 . S
C1093 C1094 1.387 . S
C1094 H1079 0.930 . S
C1094 C1089 1.390 . S
C1094 C1093 1.387 . S
H1095 C1107 0.930 . S
H1096 C1109 0.930 . S
H1097 C1110 0.930 . S
H1098 C1114 0.959 . S
H1099 C1114 0.959 . S
H1100 C1114 0.961 . S
H1101 C1115 0.960 . S
H1102 C1115 0.961 . S
H1103 C1115 0.959 . S
H1104 C1118 0.929 . S
H1105 C1119 0.931 . S
H1106 C1121 0.930 . S
C1107 H1095 0.930 . S
C1107 C1108 1.399 . S
C1107 C1112 1.399 . S
C1108 C1107 1.399 . S
C1108 C1109 1.376 . S
C1109 H1096 0.930 . S
C1109 C1108 1.376 . S
C1109 C1110 1.388 . S
C1110 H1097 0.930 . S
C1110 C1109 1.388 . S
C1110 C1111 1.390 . S
C1111 C1110 1.390 . S
C1111 C1112 1.394 . S
C1111 C1117 1.465 . S
C1112 C1107 1.399 . S
C1112 C1111 1.394 . S
C1112 C1113 1.516 . S
C1113 C1112 1.516 . S
C1113 C1114 1.502 . S
C1113 C1115 1.561 . S
C1113 C1116 1.526 . S
C1114 H1098 0.959 . S
C1114 H1099 0.959 . S
C1114 H1100 0.961 . S
C1114 C1113 1.502 . S
C1115 H1101 0.960 . S
C1115 H1102 0.961 . S
C1115 H1103 0.959 . S
C1115 C1113 1.561 . S
C1116 C1113 1.526 . S
C1116 C1117 1.396 . S
C1116 C1121 1.390 . S
C1117 C1111 1.465 . S
C1117 C1116 1.396 . S
C1117 C1118 1.399 . S
C1118 H1104 0.929 . S
C1118 C1117 1.399 . S
C1118 C1119 1.385 . S
C1119 H1105 0.931 . S
C1119 C1118 1.385 . S
C1119 C1120 1.389 . S
C1120 C1119 1.389 . S
C1120 C1121 1.387 . S
C1121 H1106 0.930 . S
C1121 C1116 1.390 . S
C1121 C1120 1.387 . S
H1122 C1134 0.930 . S
H1123 C1136 0.930 . S
H1124 C1137 0.930 . S
H1125 C1141 0.959 . S
H1126 C1141 0.959 . S
H1127 C1141 0.961 . S
H1128 C1142 0.960 . S
H1129 C1142 0.961 . S
H1130 C1142 0.959 . S
H1131 C1145 0.929 . S
H1132 C1146 0.931 . S
H1133 C1148 0.930 . S
C1134 H1122 0.930 . S
C1134 C1135 1.399 . S
C1134 C1139 1.399 . S
C1135 C1134 1.399 . S
C1135 C1136 1.376 . S
C1136 H1123 0.930 . S
C1136 C1135 1.376 . S
C1136 C1137 1.388 . S
C1137 H1124 0.930 . S
C1137 C1136 1.388 . S
C1137 C1138 1.390 . S
C1138 C1137 1.390 . S
C1138 C1139 1.394 . S
C1138 C1144 1.465 . S
C1139 C1134 1.399 . S
C1139 C1138 1.394 . S
C1139 C1140 1.516 . S
C1140 C1139 1.516 . S
C1140 C1141 1.502 . S
C1140 C1142 1.561 . S
C1140 C1143 1.526 . S
C1141 H1125 0.959 . S
C1141 H1126 0.959 . S
C1141 H1127 0.961 . S
C1141 C1140 1.502 . S
C1142 H1128 0.960 . S
C1142 H1129 0.961 . S
C1142 H1130 0.959 . S
C1142 C1140 1.561 . S
C1143 C1140 1.526 . S
C1143 C1144 1.396 . S
C1143 C1148 1.390 . S
C1144 C1138 1.465 . S
C1144 C1143 1.396 . S
C1144 C1145 1.399 . S
C1145 H1131 0.929 . S
C1145 C1144 1.399 . S
C1145 C1146 1.385 . S
C1146 H1132 0.931 . S
C1146 C1145 1.385 . S
C1146 C1147 1.389 . S
C1147 C1146 1.389 . S
C1147 C1148 1.387 . S
C1148 H1133 0.930 . S
C1148 C1143 1.390 . S
C1148 C1147 1.387 . S
H1149 C1161 0.930 . S
H1150 C1163 0.930 . S
H1151 C1164 0.930 . S
H1152 C1168 0.959 . S
H1153 C1168 0.959 . S
H1154 C1168 0.961 . S
H1155 C1169 0.960 . S
H1156 C1169 0.961 . S
H1157 C1169 0.959 . S
H1158 C1172 0.929 . S
H1159 C1173 0.931 . S
H1160 C1175 0.930 . S
C1161 H1149 0.930 . S
C1161 C1162 1.399 . S
C1161 C1166 1.399 . S
C1162 C1161 1.399 . S
C1162 C1163 1.376 . S
C1163 H1150 0.930 . S
C1163 C1162 1.376 . S
C1163 C1164 1.388 . S
C1164 H1151 0.930 . S
C1164 C1163 1.388 . S
C1164 C1165 1.390 . S
C1165 C1164 1.390 . S
C1165 C1166 1.394 . S
C1165 C1171 1.465 . S
C1166 C1161 1.399 . S
C1166 C1165 1.394 . S
C1166 C1167 1.516 . S
C1167 C1166 1.516 . S
C1167 C1168 1.502 . S
C1167 C1169 1.561 . S
C1167 C1170 1.526 . S
C1168 H1152 0.959 . S
C1168 H1153 0.959 . S
C1168 H1154 0.961 . S
C1168 C1167 1.502 . S
C1169 H1155 0.960 . S
C1169 H1156 0.961 . S
C1169 H1157 0.959 . S
C1169 C1167 1.561 . S
C1170 C1167 1.526 . S
C1170 C1171 1.396 . S
C1170 C1175 1.390 . S
C1171 C1165 1.465 . S
C1171 C1170 1.396 . S
C1171 C1172 1.399 . S
C1172 H1158 0.929 . S
C1172 C1171 1.399 . S
C1172 C1173 1.385 . S
C1173 H1159 0.931 . S
C1173 C1172 1.385 . S
C1173 C1174 1.389 . S
C1174 C1173 1.389 . S
C1174 C1175 1.387 . S
C1175 H1160 0.930 . S
C1175 C1170 1.390 . S
C1175 C1174 1.387 . S
H1176 C1188 0.930 . S
H1177 C1190 0.930 . S
H1178 C1191 0.930 . S
H1179 C1195 0.959 . S
H1180 C1195 0.959 . S
H1181 C1195 0.961 . S
H1182 C1196 0.960 . S
H1183 C1196 0.961 . S
H1184 C1196 0.959 . S
H1185 C1199 0.929 . S
H1186 C1200 0.931 . S
H1187 C1202 0.930 . S
C1188 H1176 0.930 . S
C1188 C1189 1.399 . S
C1188 C1193 1.399 . S
C1189 C1188 1.399 . S
C1189 C1190 1.376 . S
C1190 H1177 0.930 . S
C1190 C1189 1.376 . S
C1190 C1191 1.388 . S
C1191 H1178 0.930 . S
C1191 C1190 1.388 . S
C1191 C1192 1.390 . S
C1192 C1191 1.390 . S
C1192 C1193 1.394 . S
C1192 C1198 1.465 . S
C1193 C1188 1.399 . S
C1193 C1192 1.394 . S
C1193 C1194 1.516 . S
C1194 C1193 1.516 . S
C1194 C1195 1.502 . S
C1194 C1196 1.561 . S
C1194 C1197 1.526 . S
C1195 H1179 0.959 . S
C1195 H1180 0.959 . S
C1195 H1181 0.961 . S
C1195 C1194 1.502 . S
C1196 H1182 0.960 . S
C1196 H1183 0.961 . S
C1196 H1184 0.959 . S
C1196 C1194 1.561 . S
C1197 C1194 1.526 . S
C1197 C1198 1.396 . S
C1197 C1202 1.390 . S
C1198 C1192 1.465 . S
C1198 C1197 1.396 . S
C1198 C1199 1.399 . S
C1199 H1185 0.929 . S
C1199 C1198 1.399 . S
C1199 C1200 1.385 . S
C1200 H1186 0.931 . S
C1200 C1199 1.385 . S
C1200 C1201 1.389 . S
C1201 C1200 1.389 . S
C1201 C1202 1.387 . S
C1202 H1187 0.930 . S
C1202 C1197 1.390 . S
C1202 C1201 1.387 . S
H1203 C1215 0.930 . S
H1204 C1217 0.930 . S
H1205 C1218 0.930 . S
H1206 C1222 0.959 . S
H1207 C1222 0.959 . S
H1208 C1222 0.961 . S
H1209 C1223 0.960 . S
H1210 C1223 0.961 . S
H1211 C1223 0.959 . S
H1212 C1226 0.929 . S
H1213 C1227 0.931 . S
H1214 C1229 0.930 . S
C1215 H1203 0.930 . S
C1215 C1216 1.399 . S
C1215 C1220 1.399 . S
C1216 C1215 1.399 . S
C1216 C1217 1.376 . S
C1217 H1204 0.930 . S
C1217 C1216 1.376 . S
C1217 C1218 1.388 . S
C1218 H1205 0.930 . S
C1218 C1217 1.388 . S
C1218 C1219 1.390 . S
C1219 C1218 1.390 . S
C1219 C1220 1.394 . S
C1219 C1225 1.465 . S
C1220 C1215 1.399 . S
C1220 C1219 1.394 . S
C1220 C1221 1.516 . S
C1221 C1220 1.516 . S
C1221 C1222 1.502 . S
C1221 C1223 1.561 . S
C1221 C1224 1.526 . S
C1222 H1206 0.959 . S
C1222 H1207 0.959 . S
C1222 H1208 0.961 . S
C1222 C1221 1.502 . S
C1223 H1209 0.960 . S
C1223 H1210 0.961 . S
C1223 H1211 0.959 . S
C1223 C1221 1.561 . S
C1224 C1221 1.526 . S
C1224 C1225 1.396 . S
C1224 C1229 1.390 . S
C1225 C1219 1.465 . S
C1225 C1224 1.396 . S
C1225 C1226 1.399 . S
C1226 H1212 0.929 . S
C1226 C1225 1.399 . S
C1226 C1227 1.385 . S
C1227 H1213 0.931 . S
C1227 C1226 1.385 . S
C1227 C1228 1.389 . S
C1228 C1227 1.389 . S
C1228 C1229 1.387 . S
C1229 H1214 0.930 . S
C1229 C1224 1.390 . S
C1229 C1228 1.387 . S
H1230 C1242 0.930 . S
H1231 C1244 0.930 . S
H1232 C1245 0.930 . S
H1233 C1249 0.959 . S
H1234 C1249 0.959 . S
H1235 C1249 0.961 . S
H1236 C1250 0.960 . S
H1237 C1250 0.961 . S
H1238 C1250 0.959 . S
H1239 C1253 0.929 . S
H1240 C1254 0.940 . S
H1241 C1256 0.930 . S
C1242 H1230 0.930 . S
C1242 C1243 1.399 . S
C1242 C1247 1.399 . S
C1243 C1242 1.399 . S
C1243 C1244 1.376 . S
C1244 H1231 0.930 . S
C1244 C1243 1.376 . S
C1244 C1245 1.388 . S
C1245 H1232 0.930 . S
C1245 C1244 1.388 . S
C1245 C1246 1.390 . S
C1246 C1245 1.390 . S
C1246 C1247 1.394 . S
C1246 C1252 1.465 . S
C1247 C1242 1.399 . S
C1247 C1246 1.394 . S
C1247 C1248 1.516 . S
C1248 C1247 1.516 . S
C1248 C1249 1.502 . S
C1248 C1250 1.561 . S
C1248 C1251 1.526 . S
C1249 H1233 0.959 . S
C1249 H1234 0.959 . S
C1249 H1235 0.961 . S
C1249 C1248 1.502 . S
C1250 H1236 0.960 . S
C1250 H1237 0.961 . S
C1250 H1238 0.959 . S
C1250 C1248 1.561 . S
C1251 C1248 1.526 . S
C1251 C1252 1.396 . S
C1251 C1256 1.390 . S
C1252 C1246 1.465 . S
C1252 C1251 1.396 . S
C1252 C1253 1.399 . S
C1253 H1239 0.929 . S
C1253 C1252 1.399 . S
C1253 C1254 1.385 . S
C1254 H1240 0.940 . S
C1254 C1253 1.385 . S
C1254 C1255 1.389 . S
C1255 C1254 1.389 . S
C1255 C1256 1.387 . S
C1256 H1241 0.930 . S
C1256 C1251 1.390 . S
C1256 C1255 1.387 . S
H1257 C1269 0.930 . S
H1258 C1271 0.930 . S
H1259 C1272 0.930 . S
H1260 C1276 0.959 . S
H1261 C1276 0.959 . S
H1262 C1276 0.961 . S
H1263 C1277 0.949 1_545 S
H1264 C1277 0.961 . S
H1265 C1277 0.959 . S
H1266 C1280 0.929 . S
H1267 C1281 0.931 . S
H1268 C1283 0.930 . S
C1269 H1257 0.930 . S
C1269 C1270 1.399 . S
C1269 C1274 1.399 . S
C1270 C1269 1.399 . S
C1270 C1271 1.376 . S
C1271 H1258 0.930 . S
C1271 C1270 1.376 . S
C1271 C1272 1.388 . S
C1272 H1259 0.930 . S
C1272 C1271 1.388 . S
C1272 C1273 1.390 . S
C1273 C1272 1.390 . S
C1273 C1274 1.394 . S
C1273 C1279 1.465 . S
C1274 C1269 1.399 . S
C1274 C1273 1.394 . S
C1274 C1275 1.516 . S
C1275 C1274 1.516 . S
C1275 C1276 1.502 . S
C1275 C1277 1.561 . S
C1275 C1278 1.526 . S
C1276 H1260 0.959 . S
C1276 H1261 0.959 . S
C1276 H1262 0.961 . S
C1276 C1275 1.502 . S
C1277 H1263 0.949 1_565 S
C1277 H1264 0.961 . S
C1277 H1265 0.959 . S
C1277 C1275 1.561 . S
C1278 C1275 1.526 . S
C1278 C1279 1.396 . S
C1278 C1283 1.390 . S
C1279 C1273 1.465 . S
C1279 C1278 1.396 . S
C1279 C1280 1.399 . S
C1280 H1266 0.929 . S
C1280 C1279 1.399 . S
C1280 C1281 1.385 . S
C1281 H1267 0.931 . S
C1281 C1280 1.385 . S
C1281 C1282 1.389 . S
C1282 C1281 1.389 . S
C1282 C1283 1.387 . S
C1283 H1268 0.930 . S
C1283 C1278 1.390 . S
C1283 C1282 1.387 . S
H1284 C1296 0.930 . S
H1285 C1298 0.930 . S
H1286 C1299 0.930 . S
H1287 C1303 0.959 . S
H1288 C1303 0.959 . S
H1289 C1303 0.961 . S
H1290 C1304 0.960 . S
H1291 C1304 0.961 . S
H1292 C1304 0.959 . S
H1293 C1307 0.929 . S
H1294 C1308 0.931 . S
H1295 C1310 0.930 . S
C1296 H1284 0.930 . S
C1296 C1297 1.399 . S
C1296 C1301 1.399 . S
C1297 C1296 1.399 . S
C1297 C1298 1.376 . S
C1298 H1285 0.930 . S
C1298 C1297 1.376 . S
C1298 C1299 1.388 . S
C1299 H1286 0.930 . S
C1299 C1298 1.388 . S
C1299 C1300 1.390 . S
C1300 C1299 1.390 . S
C1300 C1301 1.394 . S
C1300 C1306 1.465 . S
C1301 C1296 1.399 . S
C1301 C1300 1.394 . S
C1301 C1302 1.516 . S
C1302 C1301 1.516 . S
C1302 C1303 1.502 . S
C1302 C1304 1.561 . S
C1302 C1305 1.526 . S
C1303 H1287 0.959 . S
C1303 H1288 0.959 . S
C1303 H1289 0.961 . S
C1303 C1302 1.502 . S
C1304 H1290 0.960 . S
C1304 H1291 0.961 . S
C1304 H1292 0.959 . S
C1304 C1302 1.561 . S
C1305 C1302 1.526 . S
C1305 C1306 1.396 . S
C1305 C1310 1.390 . S
C1306 C1300 1.465 . S
C1306 C1305 1.396 . S
C1306 C1307 1.399 . S
C1307 H1293 0.929 . S
C1307 C1306 1.399 . S
C1307 C1308 1.385 . S
C1308 H1294 0.931 . S
C1308 C1307 1.385 . S
C1308 C1309 1.389 . S
C1309 C1308 1.389 . S
C1309 C1310 1.387 . S
C1310 H1295 0.930 . S
C1310 C1305 1.390 . S
C1310 C1309 1.387 . S
H1311 C1323 0.930 . S
H1312 C1325 0.930 . S
H1313 C1326 0.930 . S
H1314 C1330 0.959 . S
H1315 C1330 0.959 . S
H1316 C1330 0.961 . S
H1317 C1331 0.960 . S
H1318 C1331 0.961 . S
H1319 C1331 0.959 . S
H1320 C1334 0.929 . S
H1321 C1335 0.931 . S
H1322 C1337 0.930 . S
C1323 H1311 0.930 . S
C1323 C1324 1.399 . S
C1323 C1328 1.399 . S
C1324 C1323 1.399 . S
C1324 C1325 1.376 . S
C1325 H1312 0.930 . S
C1325 C1324 1.376 . S
C1325 C1326 1.388 . S
C1326 H1313 0.930 . S
C1326 C1325 1.388 . S
C1326 C1327 1.390 . S
C1327 C1326 1.390 . S
C1327 C1328 1.394 . S
C1327 C1333 1.465 . S
C1328 C1323 1.399 . S
C1328 C1327 1.394 . S
C1328 C1329 1.516 . S
C1329 C1328 1.516 . S
C1329 C1330 1.502 . S
C1329 C1331 1.561 . S
C1329 C1332 1.526 . S
C1330 H1314 0.959 . S
C1330 H1315 0.959 . S
C1330 H1316 0.961 . S
C1330 C1329 1.502 . S
C1331 H1317 0.960 . S
C1331 H1318 0.961 . S
C1331 H1319 0.959 . S
C1331 C1329 1.561 . S
C1332 C1329 1.526 . S
C1332 C1333 1.396 . S
C1332 C1337 1.390 . S
C1333 C1327 1.465 . S
C1333 C1332 1.396 . S
C1333 C1334 1.399 . S
C1334 H1320 0.929 . S
C1334 C1333 1.399 . S
C1334 C1335 1.385 . S
C1335 H1321 0.931 . S
C1335 C1334 1.385 . S
C1335 C1336 1.389 . S
C1336 C1335 1.389 . S
C1336 C1337 1.387 . S
C1337 H1322 0.930 . S
C1337 C1332 1.390 . S
C1337 C1336 1.387 . S
H1338 C1350 0.930 . S
H1339 C1352 0.930 1_455 S
H1340 C1353 0.930 . S
H1341 C1357 0.959 . S
H1342 C1357 0.959 . S
H1343 C1357 0.961 . S
H1344 C1358 0.960 . S
H1345 C1358 0.961 . S
H1346 C1358 0.959 . S
H1347 C1361 0.929 . S
H1348 C1362 0.931 . S
H1349 C1364 0.930 . S
C1350 H1338 0.930 . S
C1350 C1351 1.399 . S
C1350 C1355 1.399 . S
C1351 C1350 1.399 . S
C1351 C1352 1.376 . S
C1352 H1339 0.930 1_655 S
C1352 C1351 1.376 . S
C1352 C1353 1.388 . S
C1353 H1340 0.930 . S
C1353 C1352 1.388 . S
C1353 C1354 1.390 . S
C1354 C1353 1.390 . S
C1354 C1355 1.394 . S
C1354 C1360 1.465 . S
C1355 C1350 1.399 . S
C1355 C1354 1.394 . S
C1355 C1356 1.516 . S
C1356 C1355 1.516 . S
C1356 C1357 1.502 . S
C1356 C1358 1.561 . S
C1356 C1359 1.526 . S
C1357 H1341 0.959 . S
C1357 H1342 0.959 . S
C1357 H1343 0.961 . S
C1357 C1356 1.502 . S
C1358 H1344 0.960 . S
C1358 H1345 0.961 . S
C1358 H1346 0.959 . S
C1358 C1356 1.561 . S
C1359 C1356 1.526 . S
C1359 C1360 1.396 . S
C1359 C1364 1.390 . S
C1360 C1354 1.465 . S
C1360 C1359 1.396 . S
C1360 C1361 1.399 . S
C1361 H1347 0.929 . S
C1361 C1360 1.399 . S
C1361 C1362 1.385 . S
C1362 H1348 0.931 . S
C1362 C1361 1.385 . S
C1362 C1363 1.389 . S
C1363 C1362 1.389 . S
C1363 C1364 1.387 . S
C1364 H1349 0.930 . S
C1364 C1359 1.390 . S
C1364 C1363 1.387 . S
H1365 C1377 0.930 . S
H1366 C1379 0.930 . S
H1367 C1380 0.930 . S
H1368 C1384 0.959 . S
H1369 C1384 0.959 1_545 S
H1370 C1384 0.961 . S
H1371 C1385 0.960 . S
H1372 C1385 0.961 1_545 S
H1373 C1385 0.959 . S
H1374 C1388 0.929 . S
H1375 C1389 0.931 . S
H1376 C1391 0.930 1_545 S
C1377 H1365 0.930 . S
C1377 C1378 1.399 . S
C1377 C1382 1.399 . S
C1378 C1377 1.399 . S
C1378 C1379 1.376 . S
C1379 H1366 0.930 . S
C1379 C1378 1.376 . S
C1379 C1380 1.388 . S
C1380 H1367 0.930 . S
C1380 C1379 1.388 . S
C1380 C1381 1.390 . S
C1381 C1380 1.390 . S
C1381 C1382 1.394 . S
C1381 C1387 1.465 . S
C1382 C1377 1.399 . S
C1382 C1381 1.394 . S
C1382 C1383 1.516 . S
C1383 C1382 1.516 . S
C1383 C1384 1.502 . S
C1383 C1385 1.561 . S
C1383 C1386 1.526 . S
C1384 H1368 0.959 . S
C1384 H1369 0.959 1_565 S
C1384 H1370 0.961 . S
C1384 C1383 1.502 . S
C1385 H1371 0.960 . S
C1385 H1372 0.961 1_565 S
C1385 H1373 0.959 . S
C1385 C1383 1.561 . S
C1386 C1383 1.526 . S
C1386 C1387 1.396 . S
C1386 C1391 1.390 . S
C1387 C1381 1.465 . S
C1387 C1386 1.396 . S
C1387 C1388 1.399 . S
C1388 H1374 0.929 . S
C1388 C1387 1.399 . S
C1388 C1389 1.385 . S
C1389 H1375 0.931 . S
C1389 C1388 1.385 . S
C1389 C1390 1.389 . S
C1390 C1389 1.389 . S
C1390 C1391 1.387 . S
C1391 H1376 0.930 1_565 S
C1391 C1386 1.390 . S
C1391 C1390 1.387 . S
H1392 C1404 0.930 . S
H1393 C1406 0.930 . S
H1394 C1407 0.930 . S
H1395 C1411 0.959 . S
H1396 C1411 0.959 . S
H1397 C1411 0.961 . S
H1398 C1412 0.960 . S
H1399 C1412 0.961 . S
H1400 C1412 0.959 . S
H1401 C1415 0.929 . S
H1402 C1416 0.931 . S
H1403 C1418 0.930 . S
C1404 H1392 0.930 . S
C1404 C1405 1.399 . S
C1404 C1409 1.399 . S
C1405 C1404 1.399 . S
C1405 C1406 1.376 . S
C1406 H1393 0.930 . S
C1406 C1405 1.376 . S
C1406 C1407 1.388 . S
C1407 H1394 0.930 . S
C1407 C1406 1.388 . S
C1407 C1408 1.390 . S
C1408 C1407 1.390 . S
C1408 C1409 1.394 . S
C1408 C1414 1.465 . S
C1409 C1404 1.399 . S
C1409 C1408 1.394 . S
C1409 C1410 1.516 . S
C1410 C1409 1.516 . S
C1410 C1411 1.502 . S
C1410 C1412 1.561 . S
C1410 C1413 1.526 . S
C1411 H1395 0.959 . S
C1411 H1396 0.959 . S
C1411 H1397 0.961 . S
C1411 C1410 1.502 . S
C1412 H1398 0.960 . S
C1412 H1399 0.961 . S
C1412 H1400 0.959 . S
C1412 C1410 1.561 . S
C1413 C1410 1.526 . S
C1413 C1414 1.396 . S
C1413 C1418 1.390 . S
C1414 C1408 1.465 . S
C1414 C1413 1.396 . S
C1414 C1415 1.399 . S
C1415 H1401 0.929 . S
C1415 C1414 1.399 . S
C1415 C1416 1.385 . S
C1416 H1402 0.931 . S
C1416 C1415 1.385 . S
C1416 C1417 1.389 . S
C1417 C1416 1.389 . S
C1417 C1418 1.387 . S
C1418 H1403 0.930 . S
C1418 C1413 1.390 . S
C1418 C1417 1.387 . S
H1419 C1431 0.930 . S
H1420 C1433 0.930 . S
H1421 C1434 0.930 . S
H1422 C1438 0.959 . S
H1423 C1438 0.959 . S
H1424 C1438 0.961 . S
H1425 C1439 0.960 . S
H1426 C1439 0.961 . S
H1427 C1439 0.959 . S
H1428 C1442 0.929 . S
H1429 C1443 0.931 . S
H1430 C1445 0.930 . S
C1431 H1419 0.930 . S
C1431 C1432 1.399 . S
C1431 C1436 1.399 . S
C1432 C1431 1.399 . S
C1432 C1433 1.376 . S
C1433 H1420 0.930 . S
C1433 C1432 1.376 . S
C1433 C1434 1.388 . S
C1434 H1421 0.930 . S
C1434 C1433 1.388 . S
C1434 C1435 1.390 . S
C1435 C1434 1.390 . S
C1435 C1436 1.394 . S
C1435 C1441 1.465 . S
C1436 C1431 1.399 . S
C1436 C1435 1.394 . S
C1436 C1437 1.516 . S
C1437 C1436 1.516 . S
C1437 C1438 1.502 . S
C1437 C1439 1.561 . S
C1437 C1440 1.526 . S
C1438 H1422 0.959 . S
C1438 H1423 0.959 . S
C1438 H1424 0.961 . S
C1438 C1437 1.502 . S
C1439 H1425 0.960 . S
C1439 H1426 0.961 . S
C1439 H1427 0.959 . S
C1439 C1437 1.561 . S
C1440 C1437 1.526 . S
C1440 C1441 1.396 . S
C1440 C1445 1.390 . S
C1441 C1435 1.465 . S
C1441 C1440 1.396 . S
C1441 C1442 1.399 . S
C1442 H1428 0.929 . S
C1442 C1441 1.399 . S
C1442 C1443 1.385 . S
C1443 H1429 0.931 . S
C1443 C1442 1.385 . S
C1443 C1444 1.389 . S
C1444 C1443 1.389 . S
C1444 C1445 1.387 . S
C1445 H1430 0.930 . S
C1445 C1440 1.390 . S
C1445 C1444 1.387 . S
H1446 C1458 0.930 . S
H1447 C1460 0.930 . S
H1448 C1461 0.930 . S
H1449 C1465 0.959 . S
H1450 C1465 0.959 . S
H1451 C1465 0.961 . S
H1452 C1466 0.960 . S
H1453 C1466 0.961 . S
H1454 C1466 0.959 . S
H1455 C1469 0.929 . S
H1456 C1470 0.931 . S
H1457 C1472 0.930 . S
C1458 H1446 0.930 . S
C1458 C1459 1.399 . S
C1458 C1463 1.399 . S
C1459 C1458 1.399 . S
C1459 C1460 1.376 . S
C1460 H1447 0.930 . S
C1460 C1459 1.376 . S
C1460 C1461 1.388 . S
C1461 H1448 0.930 . S
C1461 C1460 1.388 . S
C1461 C1462 1.390 . S
C1462 C1461 1.390 . S
C1462 C1463 1.394 . S
C1462 C1468 1.465 . S
C1463 C1458 1.399 . S
C1463 C1462 1.394 . S
C1463 C1464 1.516 . S
C1464 C1463 1.516 . S
C1464 C1465 1.502 . S
C1464 C1466 1.561 . S
C1464 C1467 1.526 . S
C1465 H1449 0.959 . S
C1465 H1450 0.959 . S
C1465 H1451 0.961 . S
C1465 C1464 1.502 . S
C1466 H1452 0.960 . S
C1466 H1453 0.961 . S
C1466 H1454 0.959 . S
C1466 C1464 1.561 . S
C1467 C1464 1.526 . S
C1467 C1468 1.396 . S
C1467 C1472 1.390 . S
C1468 C1462 1.465 . S
C1468 C1467 1.396 . S
C1468 C1469 1.399 . S
C1469 H1455 0.929 . S
C1469 C1468 1.399 . S
C1469 C1470 1.385 . S
C1470 H1456 0.931 . S
C1470 C1469 1.385 . S
C1470 C1471 1.389 . S
C1471 C1470 1.389 . S
C1471 C1472 1.387 . S
C1472 H1457 0.930 . S
C1472 C1467 1.390 . S
C1472 C1471 1.387 . S
H1473 C1485 0.930 . S
H1474 C1487 0.930 . S
H1475 C1488 0.930 . S
H1476 C1492 0.959 . S
H1477 C1492 0.959 . S
H1478 C1492 0.961 . S
H1479 C1493 0.960 . S
H1480 C1493 0.961 . S
H1481 C1493 0.959 . S
H1482 C1496 0.929 . S
H1483 C1497 0.931 . S
H1484 C1499 0.930 . S
C1485 H1473 0.930 . S
C1485 C1486 1.399 . S
C1485 C1490 1.399 . S
C1486 C1485 1.399 . S
C1486 C1487 1.376 . S
C1487 H1474 0.930 . S
C1487 C1486 1.376 . S
C1487 C1488 1.388 . S
C1488 H1475 0.930 . S
C1488 C1487 1.388 . S
C1488 C1489 1.390 . S
C1489 C1488 1.390 . S
C1489 C1490 1.394 . S
C1489 C1495 1.465 . S
C1490 C1485 1.399 . S
C1490 C1489 1.394 . S
C1490 C1491 1.516 . S
C1491 C1490 1.516 . S
C1491 C1492 1.502 . S
C1491 C1493 1.561 . S
C1491 C1494 1.526 . S
C1492 H1476 0.959 . S
C1492 H1477 0.959 . S
C1492 H1478 0.961 . S
C1492 C1491 1.502 . S
C1493 H1479 0.960 . S
C1493 H1480 0.961 . S
C1493 H1481 0.959 . S
C1493 C1491 1.561 . S
C1494 C1491 1.526 . S
C1494 C1495 1.396 . S
C1494 C1499 1.390 . S
C1495 C1489 1.465 . S
C1495 C1494 1.396 . S
C1495 C1496 1.399 . S
C1496 H1482 0.929 . S
C1496 C1495 1.399 . S
C1496 C1497 1.385 . S
C1497 H1483 0.931 . S
C1497 C1496 1.385 . S
C1497 C1498 1.389 . S
C1498 C1497 1.389 . S
C1498 C1499 1.387 . S
C1499 H1484 0.930 . S
C1499 C1494 1.390 . S
C1499 C1498 1.387 . S
H1500 C1512 0.930 . S
H1501 C1514 0.930 . S
H1502 C1515 0.930 . S
H1503 C1519 0.959 . S
H1504 C1519 0.959 . S
H1505 C1519 0.961 . S
H1506 C1520 0.960 . S
H1507 C1520 0.961 . S
H1508 C1520 0.959 . S
H1509 C1523 0.929 . S
H1510 C1524 0.931 . S
H1511 C1526 0.930 . S
C1512 H1500 0.930 . S
C1512 C1513 1.399 . S
C1512 C1517 1.399 . S
C1513 C1512 1.399 . S
C1513 C1514 1.376 . S
C1514 H1501 0.930 . S
C1514 C1513 1.376 . S
C1514 C1515 1.388 . S
C1515 H1502 0.930 . S
C1515 C1514 1.388 . S
C1515 C1516 1.390 . S
C1516 C1515 1.390 . S
C1516 C1517 1.394 . S
C1516 C1522 1.465 . S
C1517 C1512 1.399 . S
C1517 C1516 1.394 . S
C1517 C1518 1.516 . S
C1518 C1517 1.516 . S
C1518 C1519 1.502 . S
C1518 C1520 1.561 . S
C1518 C1521 1.526 . S
C1519 H1503 0.959 . S
C1519 H1504 0.959 . S
C1519 H1505 0.961 . S
C1519 C1518 1.502 . S
C1520 H1506 0.960 . S
C1520 H1507 0.961 . S
C1520 H1508 0.959 . S
C1520 C1518 1.561 . S
C1521 C1518 1.526 . S
C1521 C1522 1.396 . S
C1521 C1526 1.390 . S
C1522 C1516 1.465 . S
C1522 C1521 1.396 . S
C1522 C1523 1.399 . S
C1523 H1509 0.929 . S
C1523 C1522 1.399 . S
C1523 C1524 1.385 . S
C1524 H1510 0.931 . S
C1524 C1523 1.385 . S
C1524 C1525 1.389 . S
C1525 C1524 1.389 . S
C1525 C1526 1.387 . S
C1526 H1511 0.930 . S
C1526 C1521 1.390 . S
C1526 C1525 1.387 . S
H1527 C1539 0.930 . S
H1528 C1541 0.930 . S
H1529 C1542 0.930 . S
H1530 C1546 0.959 . S
H1531 C1546 0.959 . S
H1532 C1546 0.961 . S
H1533 C1547 0.960 . S
H1534 C1547 0.961 . S
H1535 C1547 0.959 . S
H1536 C1550 0.929 . S
H1537 C1551 0.931 . S
H1538 C1553 0.930 . S
C1539 H1527 0.930 . S
C1539 C1540 1.399 . S
C1539 C1544 1.399 . S
C1540 C1539 1.399 . S
C1540 C1541 1.376 . S
C1541 H1528 0.930 . S
C1541 C1540 1.376 . S
C1541 C1542 1.388 . S
C1542 H1529 0.930 . S
C1542 C1541 1.388 . S
C1542 C1543 1.390 . S
C1543 C1542 1.390 . S
C1543 C1544 1.394 . S
C1543 C1549 1.465 . S
C1544 C1539 1.399 . S
C1544 C1543 1.394 . S
C1544 C1545 1.516 . S
C1545 C1544 1.516 . S
C1545 C1546 1.502 . S
C1545 C1547 1.561 . S
C1545 C1548 1.526 . S
C1546 H1530 0.959 . S
C1546 H1531 0.959 . S
C1546 H1532 0.961 . S
C1546 C1545 1.502 . S
C1547 H1533 0.960 . S
C1547 H1534 0.961 . S
C1547 H1535 0.959 . S
C1547 C1545 1.561 . S
C1548 C1545 1.526 . S
C1548 C1549 1.396 . S
C1548 C1553 1.390 . S
C1549 C1543 1.465 . S
C1549 C1548 1.396 . S
C1549 C1550 1.399 . S
C1550 H1536 0.929 . S
C1550 C1549 1.399 . S
C1550 C1551 1.385 . S
C1551 H1537 0.931 . S
C1551 C1550 1.385 . S
C1551 C1552 1.389 . S
C1552 C1551 1.389 . S
C1552 C1553 1.387 . S
C1553 H1538 0.930 . S
C1553 C1548 1.390 . S
C1553 C1552 1.387 . S
H1554 C1566 0.930 . S
H1555 C1568 0.930 . S
H1556 C1569 0.930 . S
H1557 C1573 0.959 . S
H1558 C1573 0.959 . S
H1559 C1573 0.961 . S
H1560 C1574 0.960 . S
H1561 C1574 0.961 . S
H1562 C1574 0.959 . S
H1563 C1577 0.929 . S
H1564 C1578 0.931 . S
H1565 C1580 0.930 . S
C1566 H1554 0.930 . S
C1566 C1567 1.399 . S
C1566 C1571 1.399 . S
C1567 C1566 1.399 . S
C1567 C1568 1.376 . S
C1568 H1555 0.930 . S
C1568 C1567 1.376 . S
C1568 C1569 1.388 . S
C1569 H1556 0.930 . S
C1569 C1568 1.388 . S
C1569 C1570 1.390 . S
C1570 C1569 1.390 . S
C1570 C1571 1.394 . S
C1570 C1576 1.465 . S
C1571 C1566 1.399 . S
C1571 C1570 1.394 . S
C1571 C1572 1.516 . S
C1572 C1571 1.516 . S
C1572 C1573 1.502 . S
C1572 C1574 1.561 . S
C1572 C1575 1.526 . S
C1573 H1557 0.959 . S
C1573 H1558 0.959 . S
C1573 H1559 0.961 . S
C1573 C1572 1.502 . S
C1574 H1560 0.960 . S
C1574 H1561 0.961 . S
C1574 H1562 0.959 . S
C1574 C1572 1.561 . S
C1575 C1572 1.526 . S
C1575 C1576 1.396 . S
C1575 C1580 1.390 . S
C1576 C1570 1.465 . S
C1576 C1575 1.396 . S
C1576 C1577 1.399 . S
C1577 H1563 0.929 . S
C1577 C1576 1.399 . S
C1577 C1578 1.385 . S
C1578 H1564 0.931 . S
C1578 C1577 1.385 . S
C1578 C1579 1.389 . S
C1579 C1578 1.389 . S
C1579 C1580 1.387 . S
C1580 H1565 0.930 . S
C1580 C1575 1.390 . S
C1580 C1579 1.387 . S
H1581 C1593 0.930 . S
H1582 C1595 0.930 . S
H1583 C1596 0.930 . S
H1584 C1600 0.959 . S
H1585 C1600 0.959 . S
H1586 C1600 0.961 . S
H1587 C1601 0.960 . S
H1588 C1601 0.961 . S
H1589 C1601 0.959 . S
H1590 C1604 0.929 . S
H1591 C1605 0.931 . S
H1592 C1607 0.930 . S
C1593 H1581 0.930 . S
C1593 C1594 1.399 . S
C1593 C1598 1.399 . S
C1594 C1593 1.399 . S
C1594 C1595 1.376 . S
C1595 H1582 0.930 . S
C1595 C1594 1.376 . S
C1595 C1596 1.388 . S
C1596 H1583 0.930 . S
C1596 C1595 1.388 . S
C1596 C1597 1.390 . S
C1597 C1596 1.390 . S
C1597 C1598 1.394 . S
C1597 C1603 1.465 . S
C1598 C1593 1.399 . S
C1598 C1597 1.394 . S
C1598 C1599 1.516 . S
C1599 C1598 1.516 . S
C1599 C1600 1.502 . S
C1599 C1601 1.561 . S
C1599 C1602 1.526 . S
C1600 H1584 0.959 . S
C1600 H1585 0.959 . S
C1600 H1586 0.961 . S
C1600 C1599 1.502 . S
C1601 H1587 0.960 . S
C1601 H1588 0.961 . S
C1601 H1589 0.959 . S
C1601 C1599 1.561 . S
C1602 C1599 1.526 . S
C1602 C1603 1.396 . S
C1602 C1607 1.390 . S
C1603 C1597 1.465 . S
C1603 C1602 1.396 . S
C1603 C1604 1.399 . S
C1604 H1590 0.929 . S
C1604 C1603 1.399 . S
C1604 C1605 1.385 . S
C1605 H1591 0.931 . S
C1605 C1604 1.385 . S
C1605 C1606 1.389 . S
C1606 C1605 1.389 . S
C1606 C1607 1.387 . S
C1607 H1592 0.930 . S
C1607 C1602 1.390 . S
C1607 C1606 1.387 . S
C541 C21 1.487 . S
C553 C219 1.474 . S
C568 C252 1.490 . S
C580 C54 1.462 . S
C595 C153 1.471 . S
C607 C87 1.456 . S
C622 C186 1.490 . S
C634 C120 1.465 . S
C649 C285 1.473 . S
C661 C483 1.455 . S
C676 C318 1.453 . S
C688 C516 1.478 . S
C703 C351 1.470 . S
C715 C417 1.489 . S
C730 C450 1.453 . S
C742 C384 1.479 . S
C757 C7 1.409 . S
C769 N101 1.448 . S
C784 C40 1.400 . S
C796 N2 1.454 . S
C811 N35 1.390 . S
C823 C73 1.459 . S
C838 C106 1.461 . S
C850 N68 1.380 . S
C865 N167 1.461 . S
C877 C139 1.380 . S
C892 N200 1.382 . S
C904 C172 1.461 . S
C919 N233 1.461 . S
C931 C205 1.380 . S
C946 N134 1.461 . S
C958 C238 1.381 . S
C973 C271 1.456 . S
C985 N365 1.399 . S
C1000 N266 1.461 . S
C1012 C304 1.381 . S
C1027 C337 1.401 . S
C1039 N299 1.412 . S
C1054 C370 1.384 . S
C1066 N332 1.433 . S
C1081 C403 1.374 . S
C1093 N431 1.456 . S
C1108 C436 1.381 . S
C1120 N464 1.461 . S
C1135 C469 1.435 . S
C1147 N497 1.383 . S
C1162 N398 1.374 . S
C1174 C502 1.451 . S
C1189 N508 1.276 . S
C1201 N13 1.228 . S
C1216 N46 1.261 . S
C1228 N409 1.301 . S
C1243 N442 1.251 . S
C1255 N79 1.296 1_655 S
C1270 N112 1.297 1_565 S
C1282 N475 1.252 . S
C1297 N310 1.297 . S
C1309 N145 1.252 . S
C1324 N178 1.288 . S
C1336 N343 1.239 . S
C1351 N211 1.305 1_655 S
C1363 N376 1.283 . S
C1378 N277 1.216 . S
C1390 N244 1.228 1_565 S
C1405 C150 1.490 . S
C1417 C381 1.445 . S
C1432 C183 1.454 . S
C1444 C282 1.499 . S
C1459 C216 1.497 . S
C1471 C315 1.445 . S
C1486 C348 1.443 . S
C1498 C249 1.494 . S
C1513 C18 1.449 . S
C1525 C447 1.499 . S
C1540 C480 1.490 . S
C1552 C51 1.445 . S
C1567 C84 1.450 . S
C1579 C513 1.499 . S
C1594 C117 1.452 . S
C1606 C414 1.477 . S
