# Generated by pormake.
# Topology unj, (4)-cn, num edge types: 1
# Building blocks:
#     Node 0, Type 0, BuildingBlock: KUFVIS_clean_sbu_0, # of connection points: 4
#     Node 1, Type 0, BuildingBlock: KUFVIS_clean_sbu_0, # of connection points: 4
#     Node 2, Type 0, BuildingBlock: KUFVIS_clean_sbu_0, # of connection points: 4
#     Node 3, Type 0, BuildingBlock: KUFVIS_clean_sbu_0, # of connection points: 4
#     Node 4, Type 0, BuildingBlock: KUFVIS_clean_sbu_0, # of connection points: 4
#     Node 5, Type 0, BuildingBlock: KUFVIS_clean_sbu_0, # of connection points: 4
#     Edge 6, Type (0, 0), BuildingBlock: CIFDUS_clean_linker_0, # of connection points: 2
#     Edge 7, Type (0, 0), BuildingBlock: CIFDUS_clean_linker_0, # of connection points: 2
#     Edge 8, Type (0, 0), BuildingBlock: CIFDUS_clean_linker_0, # of connection points: 2
#     Edge 9, Type (0, 0), BuildingBlock: CIFDUS_clean_linker_0, # of connection points: 2
#     Edge 10, Type (0, 0), BuildingBlock: CIFDUS_clean_linker_0, # of connection points: 2
#     Edge 11, Type (0, 0), BuildingBlock: CIFDUS_clean_linker_0, # of connection points: 2
#     Edge 12, Type (0, 0), BuildingBlock: CIFDUS_clean_linker_0, # of connection points: 2
#     Edge 13, Type (0, 0), BuildingBlock: CIFDUS_clean_linker_0, # of connection points: 2
#     Edge 14, Type (0, 0), BuildingBlock: CIFDUS_clean_linker_0, # of connection points: 2
#     Edge 15, Type (0, 0), BuildingBlock: CIFDUS_clean_linker_0, # of connection points: 2
#     Edge 16, Type (0, 0), BuildingBlock: CIFDUS_clean_linker_0, # of connection points: 2
#     Edge 17, Type (0, 0), BuildingBlock: CIFDUS_clean_linker_0, # of connection points: 2
# Relax obj value: 0.012
# Max RMSD: 0.051
# Mean RMSD: 0.051
data_MOF--net-unj--node1-KUFVIS_clean_sbu_0--edge1-CIFDUS_clean_linker_0
_symmetry_space_group_name_H-M    P1
_symmetry_Int_Tables_number       1
_symmetry_cell_setting            triclinic
loop_
_symmetry_equiv_pos_as_xyz
'x, y, z'
_cell_length_a     28.954929
_cell_length_b     28.841625
_cell_length_c     30.642478
_cell_angle_alpha  89.934747
_cell_angle_beta   90.207418
_cell_angle_gamma 119.73889
loop_
_atom_site_label
_atom_site_type_symbol
_atom_site_fract_x
_atom_site_fract_y
_atom_site_fract_z
_atom_type_partial_charge
Mn0 Mn 0.52035 0.25845 0.60755 0.0
Mn1 Mn 0.6128 0.22286 0.58468 0.0
C2 C 0.55706 0.23102 0.66279 0.0
C3 C 0.49495 0.32101 0.62735 0.0
C4 C 0.49543 0.15216 0.56469 0.0
O5 O 0.54761 0.29279 0.54744 0.0
O6 O 0.60928 0.26762 0.53711 0.0
C7 C 0.70966 0.32938 0.5888 0.0
N8 N 0.68162 0.27786 0.60279 0.0
C9 C 0.75319 0.28987 0.6502 0.0
C10 C 0.78295 0.34297 0.63612 0.0
C11 C 0.761 0.36284 0.6054 0.0
C12 C 0.70229 0.25838 0.63244 0.0
H13 H 0.69298 0.3448 0.56515 0.0
C14 C 0.58455 0.29207 0.52508 0.0
O15 O 0.4623 0.27679 0.60776 0.0
O16 O 0.54295 0.32983 0.63409 0.0
N17 N 0.62051 0.18004 0.62871 0.0
C18 C 0.58522 0.12914 0.64107 0.0
C19 C 0.60003 0.10414 0.67314 0.0
C20 C 0.65105 0.13155 0.6919 0.0
C21 C 0.68683 0.18376 0.67839 0.0
C22 C 0.66991 0.20656 0.64619 0.0
H23 H 0.54594 0.10793 0.62677 0.0
O24 O 0.51075 0.22705 0.66785 0.0
O25 O 0.57979 0.24986 0.62551 0.0
O26 O 0.48045 0.18378 0.57972 0.0
O27 O 0.54385 0.16299 0.56523 0.0
C28 C 0.73828 0.2144 0.69615 0.0
C29 C 0.7715 0.26736 0.68198 0.0
H30 H 0.82243 0.369 0.64905 0.0
H31 H 0.78362 0.40386 0.59455 0.0
H32 H 0.57216 0.06387 0.68345 0.0
H33 H 0.66219 0.11227 0.71685 0.0
H34 H 0.75242 0.19789 0.72119 0.0
H35 H 0.81064 0.2908 0.69639 0.0
Mn36 Mn 0.27668 0.50121 0.77138 0.0
Mn37 Mn 0.39651 0.60029 0.73894 0.0
C38 C 0.344 0.54952 0.82178 0.0
C39 C 0.19034 0.47503 0.79513 0.0
C40 C 0.35987 0.48265 0.72507 0.0
O41 O 0.26091 0.51928 0.71073 0.0
O42 O 0.34162 0.58955 0.69507 0.0
C43 C 0.37588 0.69096 0.74412 0.0
N44 N 0.40468 0.66752 0.75668 0.0
C45 C 0.45954 0.74133 0.804 0.0
C46 C 0.43065 0.76635 0.79139 0.0
C47 C 0.38861 0.74101 0.76137 0.0
C48 C 0.44522 0.69156 0.78555 0.0
H49 H 0.34333 0.67153 0.72126 0.0
C50 C 0.29217 0.55846 0.68649 0.0
O51 O 0.20196 0.44065 0.77844 0.0
O52 O 0.22846 0.52408 0.79734 0.0
N53 N 0.45198 0.61466 0.78013 0.0
C54 C 0.4734 0.58355 0.79128 0.0
C55 C 0.51512 0.60254 0.82183 0.0
C56 C 0.53431 0.65324 0.84066 0.0
C57 C 0.51158 0.68451 0.82875 0.0
C58 C 0.47047 0.66371 0.79779 0.0
H59 H 0.45858 0.5444 0.77718 0.0
O60 O 0.30581 0.50209 0.83159 0.0
O61 O 0.34195 0.56526 0.78277 0.0
O62 O 0.31514 0.46401 0.74462 0.0
O63 O 0.39216 0.53261 0.72045 0.0
C64 C 0.52718 0.73488 0.84725 0.0
C65 C 0.50113 0.76324 0.83493 0.0
H66 H 0.44007 0.80478 0.80487 0.0
H67 H 0.36593 0.75994 0.75166 0.0
H68 H 0.53222 0.57804 0.83106 0.0
H69 H 0.56605 0.66747 0.86461 0.0
H70 H 0.55857 0.75179 0.87152 0.0
H71 H 0.51291 0.80155 0.84989 0.0
Mn72 Mn 0.79682 0.26591 0.9415 0.0
Mn73 Mn 0.82276 0.39209 0.92135 0.0
C74 C 0.81922 0.32781 0.99792 0.0
C75 C 0.7426 0.17583 0.9601 0.0
C76 C 0.89992 0.3535 0.89974 0.0
O77 O 0.76104 0.25805 0.88163 0.0
O78 O 0.78144 0.34402 0.87279 0.0
C79 C 0.71276 0.37386 0.92493 0.0
N80 N 0.76399 0.40007 0.93952 0.0
C81 C 0.74549 0.45472 0.98761 0.0
C82 C 0.69259 0.42848 0.97296 0.0
C83 C 0.67613 0.38775 0.94161 0.0
C84 C 0.78018 0.43912 0.96985 0.0
H85 H 0.69998 0.34266 0.90074 0.0
C86 C 0.75972 0.2954 0.85986 0.0
O87 O 0.78699 0.19262 0.9394 0.0
O88 O 0.72807 0.21098 0.96826 0.0
N89 N 0.86201 0.4424 0.96642 0.0
C90 C 0.91351 0.46148 0.97894 0.0
C91 C 0.93561 0.50098 1.01142 0.0
C92 C 0.90469 0.52075 0.03037 0.0
C93 C 0.85193 0.50084 0.01664 0.0
C94 C 0.83211 0.46158 0.98408 0.0
H95 H 0.93746 0.44647 0.96441 0.0
O96 O 0.82793 0.28799 1.00199 0.0
O97 O 0.79922 0.33094 0.96087 0.0
O98 O 0.8705 0.30608 0.91351 0.0
O99 O 0.88635 0.38931 0.90174 0.0
C100 C 0.81798 0.51782 0.03444 0.0
C101 C 0.76484 0.49488 0.01986 0.0
H102 H 0.66415 0.43892 0.98587 0.0
H103 H 0.6353 0.36714 0.93029 0.0
H104 H 0.97634 0.51612 0.02187 0.0
H105 H 0.92177 0.55097 0.0556 0.0
H106 H 0.83213 0.54799 0.05978 0.0
H107 H 0.7389 0.50768 0.03428 0.0
Mn108 Mn 0.54157 0.78817 0.10568 0.0
Mn109 Mn 0.43402 0.79803 0.0772 0.0
C110 C 0.49171 0.80193 0.15811 0.0
C111 C 0.57379 0.73097 0.12689 0.0
C112 C 0.54767 0.88733 0.0625 0.0
O113 O 0.52438 0.75547 0.04476 0.0
O114 O 0.44984 0.75964 0.0313 0.0
C115 C 0.3531 0.68322 0.08092 0.0
N116 N 0.37101 0.73437 0.09435 0.0
C117 C 0.29511 0.70674 0.14103 0.0
C118 C 0.27572 0.65383 0.12749 0.0
C119 C 0.30492 0.64202 0.09739 0.0
C120 C 0.34333 0.74615 0.12342 0.0
H121 H 0.37546 0.67388 0.05791 0.0
C122 C 0.48403 0.74552 0.02118 0.0
O123 O 0.60576 0.77809 0.111 0.0
O124 O 0.52435 0.7179 0.13018 0.0
N125 N 0.41403 0.8333 0.11988 0.0
C126 C 0.44016 0.88558 0.13219 0.0
C127 C 0.41678 0.90381 0.16278 0.0
C128 C 0.36689 0.86808 0.18054 0.0
C129 C 0.34095 0.81434 0.1677 0.0
C130 C 0.3659 0.79861 0.1367 0.0
H131 H 0.47882 0.91302 0.11919 0.0
O132 O 0.54046 0.81434 0.16656 0.0
O133 O 0.47494 0.78327 0.11946 0.0
O134 O 0.57156 0.86419 0.07951 0.0
O135 O 0.49704 0.86546 0.05969 0.0
C136 C 0.2919 0.77553 0.18524 0.0
C137 C 0.26907 0.72175 0.172 0.0
H138 H 0.23872 0.6219 0.1403 0.0
H139 H 0.29035 0.60124 0.08697 0.0
H140 H 0.43736 0.9452 0.17292 0.0
H141 H 0.3493 0.88214 0.20454 0.0
H142 H 0.27188 0.78646 0.2095 0.0
H143 H 0.2318 0.69213 0.18626 0.0
Mn144 Mn 0.77432 0.53077 0.27111 0.0
Mn145 Mn 0.64648 0.43814 0.25016 0.0
C146 C 0.71189 0.4958 0.32713 0.0
C147 C 0.86177 0.55566 0.29076 0.0
C148 C 0.69331 0.55554 0.22746 0.0
O149 O 0.77965 0.50085 0.21155 0.0
O150 O 0.6931 0.4384 0.2029 0.0
C151 C 0.65449 0.33995 0.25731 0.0
N152 N 0.63232 0.36963 0.27048 0.0
C153 C 0.57486 0.30133 0.32086 0.0
C154 C 0.59686 0.26992 0.30766 0.0
C155 C 0.63695 0.28939 0.27585 0.0
C156 C 0.59376 0.3513 0.3011 0.0
H157 H 0.68533 0.35475 0.2329 0.0
C158 C 0.74173 0.4624 0.19038 0.0
O159 O 0.85047 0.58834 0.27054 0.0
O160 O 0.82265 0.50786 0.29802 0.0
N161 N 0.59788 0.43366 0.29436 0.0
C162 C 0.58347 0.4704 0.30559 0.0
C163 C 0.5454 0.45812 0.33841 0.0
C164 C 0.5224 0.40815 0.35918 0.0
C165 C 0.53766 0.37088 0.34691 0.0
C166 C 0.57557 0.38524 0.31382 0.0
H167 H 0.60113 0.50891 0.2898 0.0
O168 O 0.75408 0.54235 0.33142 0.0
O169 O 0.7071 0.47222 0.29007 0.0
O170 O 0.7397 0.57083 0.24277 0.0
O171 O 0.65601 0.50693 0.22854 0.0
C172 C 0.51747 0.32043 0.36676 0.0
C173 C 0.53596 0.28563 0.35368 0.0
H174 H 0.58374 0.23107 0.32212 0.0
H175 H 0.65435 0.26551 0.26568 0.0
H176 H 0.53393 0.48714 0.34779 0.0
H177 H 0.49337 0.399 0.38473 0.0
H178 H 0.48825 0.3083 0.39256 0.0
H179 H 0.52075 0.24731 0.36968 0.0
Mn180 Mn 0.25609 0.77281 0.44013 0.0
Mn181 Mn 0.23384 0.65103 0.40956 0.0
C182 C 0.2366 0.70603 0.49151 0.0
C183 C 0.3172 0.85971 0.46299 0.0
C184 C 0.15455 0.68949 0.39388 0.0
O185 O 0.28931 0.78663 0.37947 0.0
O186 O 0.27821 0.70481 0.36545 0.0
C187 C 0.34394 0.66997 0.41622 0.0
N188 N 0.29191 0.64193 0.42833 0.0
C189 C 0.30937 0.58613 0.4762 0.0
C190 C 0.36307 0.61425 0.46407 0.0
C191 C 0.38042 0.6564 0.43402 0.0
C192 C 0.27481 0.60138 0.4573 0.0
H193 H 0.35753 0.70256 0.39329 0.0
C194 C 0.29672 0.75424 0.35601 0.0
O195 O 0.27156 0.84866 0.44618 0.0
O196 O 0.32712 0.82073 0.46588 0.0
N197 N 0.19231 0.59633 0.45098 0.0
C198 C 0.14008 0.57569 0.46153 0.0
C199 C 0.11675 0.53392 0.49197 0.0
C200 C 0.14732 0.51379 0.51121 0.0
C201 C 0.20102 0.5357 0.49988 0.0
C202 C 0.22199 0.57698 0.46908 0.0
H203 H 0.11643 0.59111 0.44699 0.0
O204 O 0.22824 0.74519 0.50063 0.0
O205 O 0.25382 0.70689 0.45261 0.0
O206 O 0.18074 0.73464 0.41321 0.0
O207 O 0.17162 0.65643 0.39004 0.0
C208 C 0.23488 0.51912 0.51878 0.0
C209 C 0.28904 0.5444 0.50702 0.0
H210 H 0.39141 0.60413 0.47793 0.0
H211 H 0.42187 0.67848 0.42468 0.0
H212 H 0.07537 0.51742 0.50072 0.0
H213 H 0.12934 0.48198 0.53503 0.0
H214 H 0.21988 0.4876 0.54296 0.0
H215 H 0.31486 0.53189 0.52231 0.0
H216 H 0.50961 0.06967 0.53965 0.0
H217 H 0.39024 0.1176 0.54585 0.0
H218 H 0.32496 0.03261 0.51307 0.0
H219 H 0.30134 0.94347 0.48337 0.0
H220 H 0.42155 0.89656 0.47974 0.0
H221 H 0.48672 0.98237 0.51029 0.0
C222 C 0.46938 0.06182 0.53381 0.0
C223 C 0.45511 0.10028 0.5453 0.0
C224 C 0.43202 1.01287 0.51518 0.0
C225 C 0.40251 0.08883 0.53757 0.0
C226 C 0.3651 0.04021 0.51866 0.0
C227 C 0.34191 0.95231 0.48897 0.0
C228 C 0.35648 0.91358 0.47921 0.0
C229 C 0.37936 1.0018 0.50736 0.0
C230 C 0.40913 0.92547 0.48704 0.0
C231 C 0.44652 0.9746 0.50457 0.0
H232 H 0.39402 0.29892 0.64552 0.0
H233 H 0.5571 0.42662 0.64638 0.0
H234 H 0.52945 0.48776 0.67587 0.0
H235 H 0.4595 0.50464 0.70246 0.0
H236 H 0.29674 0.37609 0.70604 0.0
H237 H 0.32376 0.31552 0.67401 0.0
C238 C 0.42341 0.34026 0.65185 0.0
C239 C 0.47754 0.35834 0.64344 0.0
C240 C 0.40734 0.3749 0.6699 0.0
C241 C 0.51524 0.41175 0.65248 0.0
C242 C 0.49945 0.44671 0.66939 0.0
C243 C 0.42976 0.46339 0.69626 0.0
C244 C 0.37602 0.4451 0.70664 0.0
C245 C 0.44568 0.42865 0.67845 0.0
C246 C 0.33835 0.3913 0.69861 0.0
C247 C 0.35377 0.35667 0.68013 0.0
H248 H 0.97987 0.4521 0.87606 0.0
H249 H 0.93721 0.28584 0.87801 0.0
H250 H 1.02184 0.30807 0.84412 0.0
H251 H 0.10904 0.37506 0.81458 0.0
H252 H 0.15191 0.54129 0.81482 0.0
H253 H 0.06624 0.51857 0.84669 0.0
C254 C 0.98891 0.42061 0.86906 0.0
C255 C 0.95196 0.36735 0.87972 0.0
C256 C 0.03784 0.43363 0.84972 0.0
C257 C 0.9648 0.32726 0.87045 0.0
C258 C 1.01323 0.33988 0.85089 0.0
C259 C 0.09939 0.40619 0.82132 0.0
C260 C 0.13684 0.45975 0.81224 0.0
C261 C 0.05015 0.39295 0.8404 0.0
C262 C 0.12392 0.49971 0.82154 0.0
C263 C 0.07489 0.4868 0.83984 0.0
H264 H 0.65052 0.93998 0.03196 0.0
H265 H 0.5138 0.95949 0.05322 0.0
H266 H 0.5614 0.04948 0.02422 0.0
H267 H 0.64159 0.12345 0.99206 0.0
H268 H 0.77663 0.10312 0.96549 0.0
H269 H 0.73009 1.01334 0.99654 0.0
C270 C 0.63137 0.9641 0.03051 0.0
C271 C 0.57881 0.94286 0.0455 0.0
C272 C 0.65855 1.01588 0.01232 0.0
C273 C 0.55433 0.97455 0.04251 0.0
C274 C 0.58147 0.02624 0.02567 0.0
C275 C 0.66075 0.0993 0.99291 0.0
C276 C 0.71252 0.12012 0.97651 0.0
C277 C 0.63351 0.04734 1.01034 0.0
C278 C 0.73664 0.08808 0.97769 0.0
C279 C 0.71014 0.03671 0.99566 0.0
H280 H 0.5985 0.53865 0.19551 0.0
H281 H 0.76117 0.66327 0.21452 0.0
H282 H 0.74009 0.72853 0.18271 0.0
H283 H 0.67391 0.75079 0.15127 0.0
H284 H 0.5115 0.62439 0.13485 0.0
H285 H 0.53432 0.55967 0.16333 0.0
C286 C 0.62964 0.58001 0.19268 0.0
C287 C 0.68138 0.59573 0.20763 0.0
C288 C 0.61726 0.6173 0.1746 0.0
C289 C 0.72089 0.64977 0.2035 0.0
C290 C 0.70888 0.68722 0.18521 0.0
C291 C 0.64381 0.709 0.15355 0.0
C292 C 0.59102 0.69262 0.14101 0.0
C293 C 0.65703 0.67155 0.17081 0.0
C294 C 0.55235 0.63831 0.14449 0.0
C295 C 0.56531 0.6011 0.16082 0.0
H296 H 0.07757 0.58978 0.37042 0.0
H297 H 0.11211 0.75357 0.37355 0.0
H298 H 0.02587 0.72706 0.33954 0.0
H299 H 0.94005 0.65689 0.30948 0.0
H300 H 0.90452 0.49287 0.31068 0.0
H301 H 0.99204 0.52007 0.34206 0.0
C302 C 0.06644 0.61987 0.3637 0.0
C303 C 0.10156 0.67373 0.37453 0.0
C304 C 1.01663 0.60427 0.34467 0.0
C305 C 0.08593 0.71185 0.3658 0.0
C306 C 0.03666 0.69673 0.34617 0.0
C307 C 0.95174 0.62722 0.31625 0.0
C308 C 0.91602 0.57295 0.30742 0.0
C309 C 1.00168 0.64303 0.33543 0.0
C310 C 0.93131 0.53485 0.31707 0.0
C311 C 0.98131 0.55038 0.33508 0.0
H312 H 0.58789 0.38603 0.50146 0.0
H313 H 0.6234 0.26566 0.45555 0.0
H314 H 0.66676 0.31899 0.39148 0.0
H315 H 0.69813 0.40067 0.3497 0.0
H316 H 0.66452 0.52284 0.39254 0.0
H317 H 0.61747 0.46858 0.45678 0.0
C318 C 0.60418 0.37116 0.47692 0.0
C319 C 0.60247 0.32191 0.48342 0.0
C320 C 0.62993 0.4026 0.43991 0.0
C321 C 0.62444 0.3035 0.45159 0.0
C322 C 0.64952 0.33407 0.41498 0.0
C323 C 0.67987 0.41509 0.37286 0.0
C324 C 0.68328 0.46473 0.36602 0.0
C325 C 0.6531 0.38382 0.40911 0.0
C326 C 0.66147 0.48416 0.39699 0.0
C327 C 0.63451 0.45307 0.43352 0.0
H328 H 0.17414 0.63341 0.55391 0.0
H329 H 0.3349 0.72533 0.50656 0.0
H330 H 0.36542 0.68429 0.56024 0.0
H331 H 0.34727 0.62315 0.62002 0.0
H332 H 0.18763 0.52923 0.66944 0.0
H333 H 0.1553 0.56816 0.6143 0.0
C334 C 0.21572 0.64433 0.5558 0.0
C335 C 0.25229 0.68174 0.52635 0.0
C336 C 0.23301 0.61961 0.58641 0.0
C337 C 0.30616 0.69613 0.52883 0.0
C338 C 0.32362 0.67264 0.55936 0.0
C339 C 0.30526 0.61079 0.61874 0.0
C340 C 0.27007 0.57365 0.64902 0.0
C341 C 0.2874 0.63414 0.58801 0.0
C342 C 0.21563 0.55762 0.64634 0.0
C343 C 0.19724 0.5804 0.61522 0.0
H344 H 0.66494 0.20722 0.83567 0.0
H345 H 0.78919 0.36024 0.79012 0.0
H346 H 0.73646 0.35405 0.72632 0.0
H347 H 0.65391 0.30843 0.68517 0.0
H348 H 0.52828 0.15516 0.72724 0.0
H349 H 0.58202 0.15816 0.79086 0.0
C350 C 0.68084 0.23836 0.81112 0.0
C351 C 0.73095 0.28416 0.8177 0.0
C352 C 0.64979 0.23487 0.77423 0.0
C353 C 0.75069 0.32471 0.78597 0.0
C354 C 0.72045 0.32144 0.74957 0.0
C355 C 0.63868 0.27526 0.70792 0.0
C356 C 0.58814 0.23096 0.70106 0.0
C357 C 0.66977 0.27725 0.74373 0.0
C358 C 0.56767 0.18927 0.73166 0.0
C359 C 0.59846 0.19097 0.76783 0.0
H360 H 0.41625 0.55879 0.88448 0.0
H361 H 0.32562 0.62981 0.83588 0.0
H362 H 0.36522 0.70006 0.89054 0.0
H363 H 0.42322 0.74007 0.95275 0.0
H364 H 0.51565 0.67195 1.00329 0.0
H365 H 0.47981 0.60333 0.94611 0.0
C366 C 0.40544 0.58975 0.88619 0.0
C367 C 0.36865 0.58977 0.85625 0.0
C368 C 0.42923 0.6309 0.91744 0.0
C369 C 0.35438 0.62962 0.85853 0.0
C370 C 0.37701 0.66979 0.88964 0.0
C371 C 0.43599 0.71053 0.95113 0.0
C372 C 0.47162 0.71082 0.98241 0.0
C373 C 0.41442 0.67084 0.91915 0.0
C374 C 0.48838 0.67274 0.97941 0.0
C375 C 0.46734 0.63306 0.94712 0.0
H376 H 0.73535 0.33662 0.02105 0.0
H377 H 0.89387 0.37995 0.06245 0.0
H378 H 0.88607 0.42937 0.12492 0.0
H379 H 0.83272 0.46004 0.16761 0.0
H380 H 0.67417 0.4149 0.12309 0.0
H381 H 0.68368 0.36714 0.06181 0.0
C382 C 0.76836 0.35727 0.04363 0.0
C383 C 0.8156 0.35615 0.03672 0.0
C384 C 0.76356 0.38547 0.07882 0.0
C385 C 0.8574 0.38115 0.06694 0.0
C386 C 0.85295 0.40952 0.10244 0.0
C387 C 0.80079 0.44063 0.14397 0.0
C388 C 0.7528 0.44121 0.15003 0.0
C389 C 0.80626 0.41241 0.10851 0.0
C390 C 0.71143 0.41501 0.11945 0.0
C391 C 0.71663 0.38734 0.08444 0.0
H392 H 0.30485 0.69593 0.29115 0.0
H393 H 0.37129 0.85831 0.33651 0.0
H394 H 0.44021 0.88827 0.28019 0.0
H395 H 0.48386 0.86679 0.21954 0.0
H396 H 0.41444 0.70352 0.17609 0.0
H397 H 0.34567 0.67504 0.23152 0.0
C398 C 0.33419 0.73802 0.28878 0.0
C399 C 0.33305 0.77472 0.31819 0.0
C400 C 0.37402 0.75456 0.25734 0.0
C401 C 0.37104 0.82919 0.3141 0.0
C402 C 0.41088 0.84624 0.2823 0.0
C403 C 0.45365 0.82513 0.22261 0.0
C404 C 0.45331 0.78726 0.19368 0.0
C405 C 0.4133 0.80907 0.25417 0.0
C406 C 0.41467 0.73325 0.19784 0.0
C407 C 0.37537 0.71698 0.22938 0.0
loop_
_geom_bond_atom_site_label_1
_geom_bond_atom_site_label_2
_geom_bond_distance
_geom_bond_site_symmetry_2
_ccdc_geom_bond_type
Mn0 O5 2.095 . S
Mn0 O15 2.162 . S
Mn0 O16 2.297 . S
Mn0 O24 2.385 . S
Mn0 O25 2.209 . S
Mn0 O26 2.094 . S
Mn1 O6 2.121 . S
Mn1 N8 2.257 . S
Mn1 N17 2.282 . S
Mn1 O25 2.215 . S
Mn1 O27 2.117 . S
C2 O24 1.234 . S
C2 O25 1.283 . S
C3 O15 1.281 . S
C3 O16 1.236 . S
C4 O26 1.240 . S
C4 O27 1.264 . S
O5 Mn0 2.095 . S
O5 C14 1.250 . S
O6 Mn1 2.121 . S
O6 C14 1.258 . S
C7 N8 1.326 . S
C7 C11 1.460 . S
C7 H13 0.929 . S
N8 Mn1 2.257 . S
N8 C7 1.326 . S
N8 C12 1.362 . S
C9 C10 1.258 . S
C9 C12 1.431 . S
C9 C29 1.449 . S
C10 C9 1.258 . S
C10 C11 1.477 . S
C10 H30 0.931 . S
C11 C7 1.460 . S
C11 C10 1.477 . S
C11 H31 0.930 . S
C12 N8 1.362 . S
C12 C9 1.431 . S
C12 C22 1.476 . S
H13 C7 0.929 . S
C14 O5 1.250 . S
C14 O6 1.258 . S
O15 Mn0 2.162 . S
O15 C3 1.281 . S
O16 Mn0 2.297 . S
O16 C3 1.236 . S
N17 Mn1 2.282 . S
N17 C18 1.328 . S
N17 C22 1.318 . S
C18 N17 1.328 . S
C18 C19 1.457 . S
C18 H23 0.929 . S
C19 C18 1.457 . S
C19 C20 1.291 . S
C19 H32 0.931 . S
C20 C19 1.291 . S
C20 C21 1.373 . S
C20 H33 0.929 . S
C21 C20 1.373 . S
C21 C22 1.396 . S
C21 C28 1.403 . S
C22 C12 1.476 . S
C22 N17 1.318 . S
C22 C21 1.396 . S
H23 C18 0.929 . S
O24 Mn0 2.385 . S
O24 C2 1.234 . S
O25 Mn0 2.209 . S
O25 Mn1 2.215 . S
O25 C2 1.283 . S
O26 Mn0 2.094 . S
O26 C4 1.240 . S
O27 Mn1 2.117 . S
O27 C4 1.264 . S
C28 C21 1.403 . S
C28 C29 1.399 . S
C28 H34 0.929 . S
C29 C9 1.449 . S
C29 C28 1.399 . S
C29 H35 0.930 . S
H30 C10 0.931 . S
H31 C11 0.930 . S
H32 C19 0.931 . S
H33 C20 0.929 . S
H34 C28 0.929 . S
H35 C29 0.930 . S
Mn36 O41 2.095 . S
Mn36 O51 2.162 . S
Mn36 O52 2.297 . S
Mn36 O60 2.385 . S
Mn36 O61 2.209 . S
Mn36 O62 2.094 . S
Mn37 O42 2.121 . S
Mn37 N44 2.257 . S
Mn37 N53 2.282 . S
Mn37 O61 2.215 . S
Mn37 O63 2.117 . S
C38 O60 1.234 . S
C38 O61 1.283 . S
C39 O51 1.281 . S
C39 O52 1.236 . S
C40 O62 1.240 . S
C40 O63 1.264 . S
O41 Mn36 2.095 . S
O41 C50 1.250 . S
O42 Mn37 2.121 . S
O42 C50 1.258 . S
C43 N44 1.326 . S
C43 C47 1.460 . S
C43 H49 0.929 . S
N44 Mn37 2.257 . S
N44 C43 1.326 . S
N44 C48 1.362 . S
C45 C46 1.258 . S
C45 C48 1.431 . S
C45 C65 1.449 . S
C46 C45 1.258 . S
C46 C47 1.477 . S
C46 H66 0.931 . S
C47 C43 1.460 . S
C47 C46 1.477 . S
C47 H67 0.930 . S
C48 N44 1.362 . S
C48 C45 1.431 . S
C48 C58 1.476 . S
H49 C43 0.929 . S
C50 O41 1.250 . S
C50 O42 1.258 . S
O51 Mn36 2.162 . S
O51 C39 1.281 . S
O52 Mn36 2.297 . S
O52 C39 1.236 . S
N53 Mn37 2.282 . S
N53 C54 1.328 . S
N53 C58 1.318 . S
C54 N53 1.328 . S
C54 C55 1.457 . S
C54 H59 0.929 . S
C55 C54 1.457 . S
C55 C56 1.291 . S
C55 H68 0.931 . S
C56 C55 1.291 . S
C56 C57 1.373 . S
C56 H69 0.929 . S
C57 C56 1.373 . S
C57 C58 1.396 . S
C57 C64 1.403 . S
C58 C48 1.476 . S
C58 N53 1.318 . S
C58 C57 1.396 . S
H59 C54 0.929 . S
O60 Mn36 2.385 . S
O60 C38 1.234 . S
O61 Mn36 2.209 . S
O61 Mn37 2.215 . S
O61 C38 1.283 . S
O62 Mn36 2.094 . S
O62 C40 1.240 . S
O63 Mn37 2.117 . S
O63 C40 1.264 . S
C64 C57 1.403 . S
C64 C65 1.399 . S
C64 H70 0.929 . S
C65 C45 1.449 . S
C65 C64 1.399 . S
C65 H71 0.930 . S
H66 C46 0.931 . S
H67 C47 0.930 . S
H68 C55 0.931 . S
H69 C56 0.929 . S
H70 C64 0.929 . S
H71 C65 0.930 . S
Mn72 O77 2.095 . S
Mn72 O87 2.162 . S
Mn72 O88 2.297 . S
Mn72 O96 2.385 . S
Mn72 O97 2.209 . S
Mn72 O98 2.094 . S
Mn73 O78 2.121 . S
Mn73 N80 2.257 . S
Mn73 N89 2.282 . S
Mn73 O97 2.215 . S
Mn73 O99 2.117 . S
C74 O96 1.234 . S
C74 O97 1.283 . S
C75 O87 1.281 . S
C75 O88 1.236 . S
C76 O98 1.240 . S
C76 O99 1.264 . S
O77 Mn72 2.095 . S
O77 C86 1.250 . S
O78 Mn73 2.121 . S
O78 C86 1.258 . S
C79 N80 1.326 . S
C79 C83 1.460 . S
C79 H85 0.929 . S
N80 Mn73 2.257 . S
N80 C79 1.326 . S
N80 C84 1.362 . S
C81 C82 1.258 . S
C81 C84 1.431 . S
C81 C101 1.449 . S
C82 C81 1.258 . S
C82 C83 1.477 . S
C82 H102 0.931 . S
C83 C79 1.460 . S
C83 C82 1.477 . S
C83 H103 0.930 . S
C84 N80 1.362 . S
C84 C81 1.431 . S
C84 C94 1.476 . S
H85 C79 0.929 . S
C86 O77 1.250 . S
C86 O78 1.258 . S
O87 Mn72 2.162 . S
O87 C75 1.281 . S
O88 Mn72 2.297 . S
O88 C75 1.236 . S
N89 Mn73 2.282 . S
N89 C90 1.328 . S
N89 C94 1.318 . S
C90 N89 1.328 . S
C90 C91 1.457 . S
C90 H95 0.929 . S
C91 C90 1.457 . S
C91 C92 1.291 1_556 S
C91 H104 0.931 1_556 S
C92 C91 1.291 1_554 S
C92 C93 1.373 1_554 S
C92 H105 0.929 . S
C93 C92 1.373 1_556 S
C93 C94 1.396 . S
C93 C100 1.403 1_556 S
C94 C84 1.476 . S
C94 N89 1.318 . S
C94 C93 1.396 . S
H95 C90 0.929 . S
O96 Mn72 2.385 . S
O96 C74 1.234 . S
O97 Mn72 2.209 . S
O97 Mn73 2.215 . S
O97 C74 1.283 . S
O98 Mn72 2.094 . S
O98 C76 1.240 . S
O99 Mn73 2.117 . S
O99 C76 1.264 . S
C100 C93 1.403 1_554 S
C100 C101 1.399 1_554 S
C100 H106 0.929 . S
C101 C81 1.449 . S
C101 C100 1.399 1_556 S
C101 H107 0.930 . S
H102 C82 0.931 . S
H103 C83 0.930 . S
H104 C91 0.931 1_554 S
H105 C92 0.929 . S
H106 C100 0.929 . S
H107 C101 0.930 . S
Mn108 O113 2.095 . S
Mn108 O123 2.162 . S
Mn108 O124 2.297 . S
Mn108 O132 2.385 . S
Mn108 O133 2.209 . S
Mn108 O134 2.094 . S
Mn109 O114 2.121 . S
Mn109 N116 2.257 . S
Mn109 N125 2.282 . S
Mn109 O133 2.215 . S
Mn109 O135 2.117 . S
C110 O132 1.234 . S
C110 O133 1.283 . S
C111 O123 1.281 . S
C111 O124 1.236 . S
C112 O134 1.240 . S
C112 O135 1.264 . S
O113 Mn108 2.095 . S
O113 C122 1.250 . S
O114 Mn109 2.121 . S
O114 C122 1.258 . S
C115 N116 1.326 . S
C115 C119 1.460 . S
C115 H121 0.929 . S
N116 Mn109 2.257 . S
N116 C115 1.326 . S
N116 C120 1.362 . S
C117 C118 1.258 . S
C117 C120 1.431 . S
C117 C137 1.449 . S
C118 C117 1.258 . S
C118 C119 1.477 . S
C118 H138 0.931 . S
C119 C115 1.460 . S
C119 C118 1.477 . S
C119 H139 0.930 . S
C120 N116 1.362 . S
C120 C117 1.431 . S
C120 C130 1.476 . S
H121 C115 0.929 . S
C122 O113 1.250 . S
C122 O114 1.258 . S
O123 Mn108 2.162 . S
O123 C111 1.281 . S
O124 Mn108 2.297 . S
O124 C111 1.236 . S
N125 Mn109 2.282 . S
N125 C126 1.328 . S
N125 C130 1.318 . S
C126 N125 1.328 . S
C126 C127 1.457 . S
C126 H131 0.929 . S
C127 C126 1.457 . S
C127 C128 1.291 . S
C127 H140 0.931 . S
C128 C127 1.291 . S
C128 C129 1.373 . S
C128 H141 0.929 . S
C129 C128 1.373 . S
C129 C130 1.396 . S
C129 C136 1.403 . S
C130 C120 1.476 . S
C130 N125 1.318 . S
C130 C129 1.396 . S
H131 C126 0.929 . S
O132 Mn108 2.385 . S
O132 C110 1.234 . S
O133 Mn108 2.209 . S
O133 Mn109 2.215 . S
O133 C110 1.283 . S
O134 Mn108 2.094 . S
O134 C112 1.240 . S
O135 Mn109 2.117 . S
O135 C112 1.264 . S
C136 C129 1.403 . S
C136 C137 1.399 . S
C136 H142 0.929 . S
C137 C117 1.449 . S
C137 C136 1.399 . S
C137 H143 0.930 . S
H138 C118 0.931 . S
H139 C119 0.930 . S
H140 C127 0.931 . S
H141 C128 0.929 . S
H142 C136 0.929 . S
H143 C137 0.930 . S
Mn144 O149 2.095 . S
Mn144 O159 2.162 . S
Mn144 O160 2.297 . S
Mn144 O168 2.385 . S
Mn144 O169 2.209 . S
Mn144 O170 2.094 . S
Mn145 O150 2.121 . S
Mn145 N152 2.257 . S
Mn145 N161 2.282 . S
Mn145 O169 2.215 . S
Mn145 O171 2.117 . S
C146 O168 1.234 . S
C146 O169 1.283 . S
C147 O159 1.281 . S
C147 O160 1.236 . S
C148 O170 1.240 . S
C148 O171 1.264 . S
O149 Mn144 2.095 . S
O149 C158 1.250 . S
O150 Mn145 2.121 . S
O150 C158 1.258 . S
C151 N152 1.326 . S
C151 C155 1.460 . S
C151 H157 0.929 . S
N152 Mn145 2.257 . S
N152 C151 1.326 . S
N152 C156 1.362 . S
C153 C154 1.258 . S
C153 C156 1.431 . S
C153 C173 1.449 . S
C154 C153 1.258 . S
C154 C155 1.477 . S
C154 H174 0.931 . S
C155 C151 1.460 . S
C155 C154 1.477 . S
C155 H175 0.930 . S
C156 N152 1.362 . S
C156 C153 1.431 . S
C156 C166 1.476 . S
H157 C151 0.929 . S
C158 O149 1.250 . S
C158 O150 1.258 . S
O159 Mn144 2.162 . S
O159 C147 1.281 . S
O160 Mn144 2.297 . S
O160 C147 1.236 . S
N161 Mn145 2.282 . S
N161 C162 1.328 . S
N161 C166 1.318 . S
C162 N161 1.328 . S
C162 C163 1.457 . S
C162 H167 0.929 . S
C163 C162 1.457 . S
C163 C164 1.291 . S
C163 H176 0.931 . S
C164 C163 1.291 . S
C164 C165 1.373 . S
C164 H177 0.929 . S
C165 C164 1.373 . S
C165 C166 1.396 . S
C165 C172 1.403 . S
C166 C156 1.476 . S
C166 N161 1.318 . S
C166 C165 1.396 . S
H167 C162 0.929 . S
O168 Mn144 2.385 . S
O168 C146 1.234 . S
O169 Mn144 2.209 . S
O169 Mn145 2.215 . S
O169 C146 1.283 . S
O170 Mn144 2.094 . S
O170 C148 1.240 . S
O171 Mn145 2.117 . S
O171 C148 1.264 . S
C172 C165 1.403 . S
C172 C173 1.399 . S
C172 H178 0.929 . S
C173 C153 1.449 . S
C173 C172 1.399 . S
C173 H179 0.930 . S
H174 C154 0.931 . S
H175 C155 0.930 . S
H176 C163 0.931 . S
H177 C164 0.929 . S
H178 C172 0.929 . S
H179 C173 0.930 . S
Mn180 O185 2.095 . S
Mn180 O195 2.162 . S
Mn180 O196 2.297 . S
Mn180 O204 2.385 . S
Mn180 O205 2.209 . S
Mn180 O206 2.094 . S
Mn181 O186 2.121 . S
Mn181 N188 2.257 . S
Mn181 N197 2.282 . S
Mn181 O205 2.215 . S
Mn181 O207 2.117 . S
C182 O204 1.234 . S
C182 O205 1.283 . S
C183 O195 1.281 . S
C183 O196 1.236 . S
C184 O206 1.240 . S
C184 O207 1.264 . S
O185 Mn180 2.095 . S
O185 C194 1.250 . S
O186 Mn181 2.121 . S
O186 C194 1.258 . S
C187 N188 1.326 . S
C187 C191 1.460 . S
C187 H193 0.929 . S
N188 Mn181 2.257 . S
N188 C187 1.326 . S
N188 C192 1.362 . S
C189 C190 1.258 . S
C189 C192 1.431 . S
C189 C209 1.449 . S
C190 C189 1.258 . S
C190 C191 1.477 . S
C190 H210 0.931 . S
C191 C187 1.460 . S
C191 C190 1.477 . S
C191 H211 0.930 . S
C192 N188 1.362 . S
C192 C189 1.431 . S
C192 C202 1.476 . S
H193 C187 0.929 . S
C194 O185 1.250 . S
C194 O186 1.258 . S
O195 Mn180 2.162 . S
O195 C183 1.281 . S
O196 Mn180 2.297 . S
O196 C183 1.236 . S
N197 Mn181 2.282 . S
N197 C198 1.328 . S
N197 C202 1.318 . S
C198 N197 1.328 . S
C198 C199 1.457 . S
C198 H203 0.929 . S
C199 C198 1.457 . S
C199 C200 1.291 . S
C199 H212 0.931 . S
C200 C199 1.291 . S
C200 C201 1.373 . S
C200 H213 0.929 . S
C201 C200 1.373 . S
C201 C202 1.396 . S
C201 C208 1.403 . S
C202 C192 1.476 . S
C202 N197 1.318 . S
C202 C201 1.396 . S
H203 C198 0.929 . S
O204 Mn180 2.385 . S
O204 C182 1.234 . S
O205 Mn180 2.209 . S
O205 Mn181 2.215 . S
O205 C182 1.283 . S
O206 Mn180 2.094 . S
O206 C184 1.240 . S
O207 Mn181 2.117 . S
O207 C184 1.264 . S
C208 C201 1.403 . S
C208 C209 1.399 . S
C208 H214 0.929 . S
C209 C189 1.449 . S
C209 C208 1.399 . S
C209 H215 0.930 . S
H210 C190 0.931 . S
H211 C191 0.930 . S
H212 C199 0.931 . S
H213 C200 0.929 . S
H214 C208 0.929 . S
H215 C209 0.930 . S
H216 C222 0.930 . S
H217 C225 0.930 . S
H218 C226 0.930 . S
H219 C227 0.930 . S
H220 C230 0.930 . S
H221 C231 0.930 . S
C222 H216 0.930 . S
C222 C223 1.355 . S
C222 C224 1.415 1_545 S
C223 C222 1.355 . S
C223 C225 1.419 . S
C224 C222 1.415 1_565 S
C224 C229 1.425 1_565 S
C224 C231 1.409 . S
C225 H217 0.930 . S
C225 C223 1.419 . S
C225 C226 1.362 . S
C226 H218 0.930 . S
C226 C225 1.362 . S
C226 C229 1.409 . S
C227 H219 0.930 . S
C227 C228 1.355 . S
C227 C229 1.415 1_565 S
C228 C227 1.355 . S
C228 C230 1.419 . S
C229 C224 1.425 1_545 S
C229 C226 1.409 . S
C229 C227 1.415 1_545 S
C230 H220 0.930 . S
C230 C228 1.419 . S
C230 C231 1.362 . S
C231 H221 0.930 . S
C231 C224 1.409 . S
C231 C230 1.362 . S
H232 C238 0.930 . S
H233 C241 0.930 . S
H234 C242 0.930 . S
H235 C243 0.930 . S
H236 C246 0.930 . S
H237 C247 0.930 . S
C238 H232 0.930 . S
C238 C239 1.355 . S
C238 C240 1.415 . S
C239 C238 1.355 . S
C239 C241 1.419 . S
C240 C238 1.415 . S
C240 C245 1.425 . S
C240 C247 1.409 . S
C241 H233 0.930 . S
C241 C239 1.419 . S
C241 C242 1.362 . S
C242 H234 0.930 . S
C242 C241 1.362 . S
C242 C245 1.409 . S
C243 H235 0.930 . S
C243 C244 1.355 . S
C243 C245 1.415 . S
C244 C243 1.355 . S
C244 C246 1.419 . S
C245 C240 1.425 . S
C245 C242 1.409 . S
C245 C243 1.415 . S
C246 H236 0.930 . S
C246 C244 1.419 . S
C246 C247 1.362 . S
C247 H237 0.930 . S
C247 C240 1.409 . S
C247 C246 1.362 . S
H248 C254 0.930 . S
H249 C257 0.930 . S
H250 C258 0.930 1_455 S
H251 C259 0.930 . S
H252 C262 0.930 . S
H253 C263 0.930 1_655 S
C254 H248 0.930 . S
C254 C255 1.355 . S
C254 C256 1.415 . S
C255 C254 1.355 . S
C255 C257 1.419 . S
C256 C254 1.415 . S
C256 C261 1.425 1_655 S
C256 C263 1.409 1_655 S
C257 H249 0.930 . S
C257 C255 1.419 . S
C257 C258 1.362 . S
C258 H250 0.930 1_655 S
C258 C257 1.362 . S
C258 C261 1.409 1_655 S
C259 H251 0.930 . S
C259 C260 1.355 . S
C259 C261 1.415 . S
C260 C259 1.355 . S
C260 C262 1.419 . S
C261 C256 1.425 1_455 S
C261 C258 1.409 1_455 S
C261 C259 1.415 . S
C262 H252 0.930 . S
C262 C260 1.419 . S
C262 C263 1.362 . S
C263 H253 0.930 1_455 S
C263 C256 1.409 1_455 S
C263 C262 1.362 . S
H264 C270 0.930 . S
H265 C273 0.930 . S
H266 C274 0.930 1_545 S
H267 C275 0.930 . S
H268 C278 0.930 . S
H269 C279 0.930 1_565 S
C270 H264 0.930 . S
C270 C271 1.355 . S
C270 C272 1.415 1_554 S
C271 C270 1.355 . S
C271 C273 1.419 . S
C272 C270 1.415 1_556 S
C272 C277 1.425 1_566 S
C272 C279 1.409 1_565 S
C273 H265 0.930 . S
C273 C271 1.419 . S
C273 C274 1.362 . S
C274 H266 0.930 1_565 S
C274 C273 1.362 . S
C274 C277 1.409 1_565 S
C275 H267 0.930 . S
C275 C276 1.355 . S
C275 C277 1.415 1_556 S
C276 C275 1.355 . S
C276 C278 1.419 . S
C277 C272 1.425 1_544 S
C277 C274 1.409 1_545 S
C277 C275 1.415 1_554 S
C278 H268 0.930 . S
C278 C276 1.419 . S
C278 C279 1.362 . S
C279 H269 0.930 1_545 S
C279 C272 1.409 1_545 S
C279 C278 1.362 . S
H280 C286 0.930 . S
H281 C289 0.930 . S
H282 C290 0.930 . S
H283 C291 0.930 . S
H284 C294 0.930 . S
H285 C295 0.930 . S
C286 H280 0.930 . S
C286 C287 1.355 . S
C286 C288 1.415 . S
C287 C286 1.355 . S
C287 C289 1.419 . S
C288 C286 1.415 . S
C288 C293 1.425 . S
C288 C295 1.409 . S
C289 H281 0.930 . S
C289 C287 1.419 . S
C289 C290 1.362 . S
C290 H282 0.930 . S
C290 C289 1.362 . S
C290 C293 1.409 . S
C291 H283 0.930 . S
C291 C292 1.355 . S
C291 C293 1.415 . S
C292 C291 1.355 . S
C292 C294 1.419 . S
C293 C288 1.425 . S
C293 C290 1.409 . S
C293 C291 1.415 . S
C294 H284 0.930 . S
C294 C292 1.419 . S
C294 C295 1.362 . S
C295 H285 0.930 . S
C295 C288 1.409 . S
C295 C294 1.362 . S
H296 C302 0.930 . S
H297 C305 0.930 . S
H298 C306 0.930 . S
H299 C307 0.930 . S
H300 C310 0.930 . S
H301 C311 0.930 . S
C302 H296 0.930 . S
C302 C303 1.355 . S
C302 C304 1.405 1_455 S
C303 C302 1.355 . S
C303 C305 1.419 . S
C304 C302 1.405 1_655 S
C304 C309 1.422 1_655 S
C304 C311 1.422 . S
C305 H297 0.930 . S
C305 C303 1.419 . S
C305 C306 1.362 . S
C306 H298 0.930 . S
C306 C305 1.362 . S
C306 C309 1.409 . S
C307 H299 0.930 . S
C307 C308 1.355 . S
C307 C309 1.415 1_655 S
C308 C307 1.355 . S
C308 C310 1.419 . S
C309 C304 1.422 1_455 S
C309 C306 1.409 . S
C309 C307 1.415 1_455 S
C310 H300 0.930 . S
C310 C308 1.419 . S
C310 C311 1.362 . S
C311 H301 0.930 . S
C311 C304 1.422 . S
C311 C310 1.362 . S
H312 C318 0.930 . S
H313 C321 0.930 . S
H314 C322 0.930 . S
H315 C323 0.930 . S
H316 C326 0.930 . S
H317 C327 0.930 . S
C318 H312 0.930 . S
C318 C319 1.355 . S
C318 C320 1.415 . S
C319 C318 1.355 . S
C319 C321 1.419 . S
C320 C318 1.415 . S
C320 C325 1.425 . S
C320 C327 1.409 . S
C321 H313 0.930 . S
C321 C319 1.419 . S
C321 C322 1.362 . S
C322 H314 0.930 . S
C322 C321 1.362 . S
C322 C325 1.409 . S
C323 H315 0.930 . S
C323 C324 1.355 . S
C323 C325 1.415 . S
C324 C323 1.355 . S
C324 C326 1.419 . S
C325 C320 1.425 . S
C325 C322 1.409 . S
C325 C323 1.415 . S
C326 H316 0.930 . S
C326 C324 1.419 . S
C326 C327 1.362 . S
C327 H317 0.930 . S
C327 C320 1.409 . S
C327 C326 1.362 . S
H328 C334 0.930 . S
H329 C337 0.930 . S
H330 C338 0.930 . S
H331 C339 0.930 . S
H332 C342 0.930 . S
H333 C343 0.930 . S
C334 H328 0.930 . S
C334 C335 1.355 . S
C334 C336 1.415 . S
C335 C334 1.355 . S
C335 C337 1.419 . S
C336 C334 1.415 . S
C336 C341 1.425 . S
C336 C343 1.409 . S
C337 H329 0.930 . S
C337 C335 1.419 . S
C337 C338 1.362 . S
C338 H330 0.930 . S
C338 C337 1.362 . S
C338 C341 1.409 . S
C339 H331 0.930 . S
C339 C340 1.355 . S
C339 C341 1.415 . S
C340 C339 1.355 . S
C340 C342 1.419 . S
C341 C336 1.425 . S
C341 C338 1.409 . S
C341 C339 1.415 . S
C342 H332 0.930 . S
C342 C340 1.419 . S
C342 C343 1.362 . S
C343 H333 0.930 . S
C343 C336 1.409 . S
C343 C342 1.362 . S
H344 C350 0.930 . S
H345 C353 0.930 . S
H346 C354 0.930 . S
H347 C355 0.930 . S
H348 C358 0.930 . S
H349 C359 0.930 . S
C350 H344 0.930 . S
C350 C351 1.355 . S
C350 C352 1.415 . S
C351 C350 1.355 . S
C351 C353 1.419 . S
C352 C350 1.415 . S
C352 C357 1.425 . S
C352 C359 1.409 . S
C353 H345 0.930 . S
C353 C351 1.419 . S
C353 C354 1.362 . S
C354 H346 0.930 . S
C354 C353 1.362 . S
C354 C357 1.409 . S
C355 H347 0.930 . S
C355 C356 1.355 . S
C355 C357 1.415 . S
C356 C355 1.355 . S
C356 C358 1.419 . S
C357 C352 1.425 . S
C357 C354 1.409 . S
C357 C355 1.415 . S
C358 H348 0.930 . S
C358 C356 1.419 . S
C358 C359 1.362 . S
C359 H349 0.930 . S
C359 C352 1.409 . S
C359 C358 1.362 . S
H360 C366 0.930 . S
H361 C369 0.930 . S
H362 C370 0.930 . S
H363 C371 0.930 . S
H364 C374 0.930 . S
H365 C375 0.930 . S
C366 H360 0.930 . S
C366 C367 1.355 . S
C366 C368 1.415 . S
C367 C366 1.355 . S
C367 C369 1.419 . S
C368 C366 1.415 . S
C368 C373 1.425 . S
C368 C375 1.409 . S
C369 H361 0.930 . S
C369 C367 1.419 . S
C369 C370 1.362 . S
C370 H362 0.930 . S
C370 C369 1.362 . S
C370 C373 1.409 . S
C371 H363 0.930 . S
C371 C372 1.355 . S
C371 C373 1.415 . S
C372 C371 1.355 . S
C372 C374 1.419 . S
C373 C368 1.425 . S
C373 C370 1.409 . S
C373 C371 1.415 . S
C374 H364 0.930 . S
C374 C372 1.419 . S
C374 C375 1.362 . S
C375 H365 0.930 . S
C375 C368 1.409 . S
C375 C374 1.362 . S
H376 C382 0.930 . S
H377 C385 0.930 1_556 S
H378 C386 0.930 . S
H379 C387 0.930 . S
H380 C390 0.930 . S
H381 C391 0.930 . S
C382 H376 0.930 . S
C382 C383 1.355 . S
C382 C384 1.415 . S
C383 C382 1.355 . S
C383 C385 1.419 . S
C384 C382 1.415 . S
C384 C389 1.425 . S
C384 C391 1.409 . S
C385 H377 0.930 1_554 S
C385 C383 1.419 . S
C385 C386 1.362 . S
C386 H378 0.930 . S
C386 C385 1.362 . S
C386 C389 1.409 . S
C387 H379 0.930 . S
C387 C388 1.355 . S
C387 C389 1.415 . S
C388 C387 1.355 . S
C388 C390 1.419 . S
C389 C384 1.425 . S
C389 C386 1.409 . S
C389 C387 1.415 . S
C390 H380 0.930 . S
C390 C388 1.419 . S
C390 C391 1.362 . S
C391 H381 0.930 . S
C391 C384 1.409 . S
C391 C390 1.362 . S
H392 C398 0.930 . S
H393 C401 0.930 . S
H394 C402 0.930 . S
H395 C403 0.930 . S
H396 C406 0.930 . S
H397 C407 0.930 . S
C398 H392 0.930 . S
C398 C399 1.355 . S
C398 C400 1.415 . S
C399 C398 1.355 . S
C399 C401 1.419 . S
C400 C398 1.415 . S
C400 C405 1.425 . S
C400 C407 1.409 . S
C401 H393 0.930 . S
C401 C399 1.419 . S
C401 C402 1.362 . S
C402 H394 0.930 . S
C402 C401 1.362 . S
C402 C405 1.409 . S
C403 H395 0.930 . S
C403 C404 1.355 . S
C403 C405 1.415 . S
C404 C403 1.355 . S
C404 C406 1.419 . S
C405 C400 1.425 . S
C405 C402 1.409 . S
C405 C403 1.415 . S
C406 H396 0.930 . S
C406 C404 1.419 . S
C406 C407 1.362 . S
C407 H397 0.930 . S
C407 C400 1.409 . S
C407 C406 1.362 . S
C223 C4 1.549 . S
C228 C183 1.558 . S
C239 C3 1.563 . S
C244 C40 1.564 . S
C255 C76 1.563 . S
C260 C39 1.560 . S
C271 C112 1.549 . S
C276 C75 1.552 . S
C287 C148 1.554 . S
C292 C111 1.561 . S
C303 C184 1.547 . S
C308 C147 1.556 . S
C319 C14 1.381 . S
C324 C146 1.450 . S
C335 C182 1.469 . S
C340 C50 1.449 . S
C351 C86 1.373 . S
C356 C2 1.454 . S
C367 C38 1.468 . S
C372 C122 1.448 1_556 S
C383 C74 1.465 1_554 S
C388 C158 1.392 . S
C399 C194 1.415 . S
C404 C110 1.471 . S
