# Generated by pormake.
# Topology gme, (4)-cn, num edge types: 1
# Building blocks:
#     Node 0, Type 0, BuildingBlock: KUFVIS_clean_sbu_0, # of connection points: 4
#     Node 1, Type 0, BuildingBlock: KUFVIS_clean_sbu_0, # of connection points: 4
#     Node 2, Type 0, BuildingBlock: KUFVIS_clean_sbu_0, # of connection points: 4
#     Node 3, Type 0, BuildingBlock: KUFVIS_clean_sbu_0, # of connection points: 4
#     Node 4, Type 0, BuildingBlock: KUFVIS_clean_sbu_0, # of connection points: 4
#     Node 5, Type 0, BuildingBlock: KUFVIS_clean_sbu_0, # of connection points: 4
#     Node 6, Type 0, BuildingBlock: KUFVIS_clean_sbu_0, # of connection points: 4
#     Node 7, Type 0, BuildingBlock: KUFVIS_clean_sbu_0, # of connection points: 4
#     Node 8, Type 0, BuildingBlock: KUFVIS_clean_sbu_0, # of connection points: 4
#     Node 9, Type 0, BuildingBlock: KUFVIS_clean_sbu_0, # of connection points: 4
#     Node 10, Type 0, BuildingBlock: KUFVIS_clean_sbu_0, # of connection points: 4
#     Node 11, Type 0, BuildingBlock: KUFVIS_clean_sbu_0, # of connection points: 4
#     Node 12, Type 0, BuildingBlock: KUFVIS_clean_sbu_0, # of connection points: 4
#     Node 13, Type 0, BuildingBlock: KUFVIS_clean_sbu_0, # of connection points: 4
#     Node 14, Type 0, BuildingBlock: KUFVIS_clean_sbu_0, # of connection points: 4
#     Node 15, Type 0, BuildingBlock: KUFVIS_clean_sbu_0, # of connection points: 4
#     Node 16, Type 0, BuildingBlock: KUFVIS_clean_sbu_0, # of connection points: 4
#     Node 17, Type 0, BuildingBlock: KUFVIS_clean_sbu_0, # of connection points: 4
#     Node 18, Type 0, BuildingBlock: KUFVIS_clean_sbu_0, # of connection points: 4
#     Node 19, Type 0, BuildingBlock: KUFVIS_clean_sbu_0, # of connection points: 4
#     Node 20, Type 0, BuildingBlock: KUFVIS_clean_sbu_0, # of connection points: 4
#     Node 21, Type 0, BuildingBlock: KUFVIS_clean_sbu_0, # of connection points: 4
#     Node 22, Type 0, BuildingBlock: KUFVIS_clean_sbu_0, # of connection points: 4
#     Node 23, Type 0, BuildingBlock: KUFVIS_clean_sbu_0, # of connection points: 4
#     Edge 24, Type (0, 0), BuildingBlock: EZIPEK_clean_linker_0, # of connection points: 2
#     Edge 25, Type (0, 0), BuildingBlock: EZIPEK_clean_linker_0, # of connection points: 2
#     Edge 26, Type (0, 0), BuildingBlock: EZIPEK_clean_linker_0, # of connection points: 2
#     Edge 27, Type (0, 0), BuildingBlock: EZIPEK_clean_linker_0, # of connection points: 2
#     Edge 28, Type (0, 0), BuildingBlock: EZIPEK_clean_linker_0, # of connection points: 2
#     Edge 29, Type (0, 0), BuildingBlock: EZIPEK_clean_linker_0, # of connection points: 2
#     Edge 30, Type (0, 0), BuildingBlock: EZIPEK_clean_linker_0, # of connection points: 2
#     Edge 31, Type (0, 0), BuildingBlock: EZIPEK_clean_linker_0, # of connection points: 2
#     Edge 32, Type (0, 0), BuildingBlock: EZIPEK_clean_linker_0, # of connection points: 2
#     Edge 33, Type (0, 0), BuildingBlock: EZIPEK_clean_linker_0, # of connection points: 2
#     Edge 34, Type (0, 0), BuildingBlock: EZIPEK_clean_linker_0, # of connection points: 2
#     Edge 35, Type (0, 0), BuildingBlock: EZIPEK_clean_linker_0, # of connection points: 2
#     Edge 36, Type (0, 0), BuildingBlock: EZIPEK_clean_linker_0, # of connection points: 2
#     Edge 37, Type (0, 0), BuildingBlock: EZIPEK_clean_linker_0, # of connection points: 2
#     Edge 38, Type (0, 0), BuildingBlock: EZIPEK_clean_linker_0, # of connection points: 2
#     Edge 39, Type (0, 0), BuildingBlock: EZIPEK_clean_linker_0, # of connection points: 2
#     Edge 40, Type (0, 0), BuildingBlock: EZIPEK_clean_linker_0, # of connection points: 2
#     Edge 41, Type (0, 0), BuildingBlock: EZIPEK_clean_linker_0, # of connection points: 2
#     Edge 42, Type (0, 0), BuildingBlock: EZIPEK_clean_linker_0, # of connection points: 2
#     Edge 43, Type (0, 0), BuildingBlock: EZIPEK_clean_linker_0, # of connection points: 2
#     Edge 44, Type (0, 0), BuildingBlock: EZIPEK_clean_linker_0, # of connection points: 2
#     Edge 45, Type (0, 0), BuildingBlock: EZIPEK_clean_linker_0, # of connection points: 2
#     Edge 46, Type (0, 0), BuildingBlock: EZIPEK_clean_linker_0, # of connection points: 2
#     Edge 47, Type (0, 0), BuildingBlock: EZIPEK_clean_linker_0, # of connection points: 2
#     Edge 48, Type (0, 0), BuildingBlock: EZIPEK_clean_linker_0, # of connection points: 2
#     Edge 49, Type (0, 0), BuildingBlock: EZIPEK_clean_linker_0, # of connection points: 2
#     Edge 50, Type (0, 0), BuildingBlock: EZIPEK_clean_linker_0, # of connection points: 2
#     Edge 51, Type (0, 0), BuildingBlock: EZIPEK_clean_linker_0, # of connection points: 2
#     Edge 52, Type (0, 0), BuildingBlock: EZIPEK_clean_linker_0, # of connection points: 2
#     Edge 53, Type (0, 0), BuildingBlock: EZIPEK_clean_linker_0, # of connection points: 2
#     Edge 54, Type (0, 0), BuildingBlock: EZIPEK_clean_linker_0, # of connection points: 2
#     Edge 55, Type (0, 0), BuildingBlock: EZIPEK_clean_linker_0, # of connection points: 2
#     Edge 56, Type (0, 0), BuildingBlock: EZIPEK_clean_linker_0, # of connection points: 2
#     Edge 57, Type (0, 0), BuildingBlock: EZIPEK_clean_linker_0, # of connection points: 2
#     Edge 58, Type (0, 0), BuildingBlock: EZIPEK_clean_linker_0, # of connection points: 2
#     Edge 59, Type (0, 0), BuildingBlock: EZIPEK_clean_linker_0, # of connection points: 2
#     Edge 60, Type (0, 0), BuildingBlock: EZIPEK_clean_linker_0, # of connection points: 2
#     Edge 61, Type (0, 0), BuildingBlock: EZIPEK_clean_linker_0, # of connection points: 2
#     Edge 62, Type (0, 0), BuildingBlock: EZIPEK_clean_linker_0, # of connection points: 2
#     Edge 63, Type (0, 0), BuildingBlock: EZIPEK_clean_linker_0, # of connection points: 2
#     Edge 64, Type (0, 0), BuildingBlock: EZIPEK_clean_linker_0, # of connection points: 2
#     Edge 65, Type (0, 0), BuildingBlock: EZIPEK_clean_linker_0, # of connection points: 2
#     Edge 66, Type (0, 0), BuildingBlock: EZIPEK_clean_linker_0, # of connection points: 2
#     Edge 67, Type (0, 0), BuildingBlock: EZIPEK_clean_linker_0, # of connection points: 2
#     Edge 68, Type (0, 0), BuildingBlock: EZIPEK_clean_linker_0, # of connection points: 2
#     Edge 69, Type (0, 0), BuildingBlock: EZIPEK_clean_linker_0, # of connection points: 2
#     Edge 70, Type (0, 0), BuildingBlock: EZIPEK_clean_linker_0, # of connection points: 2
#     Edge 71, Type (0, 0), BuildingBlock: EZIPEK_clean_linker_0, # of connection points: 2
# Relax obj value: 0.089
# Max RMSD: 0.121
# Mean RMSD: 0.121
data_MOF--net-gme--node1-KUFVIS_clean_sbu_0--edge1-EZIPEK_clean_linker_0
_symmetry_space_group_name_H-M    P1
_symmetry_Int_Tables_number       1
_symmetry_cell_setting            triclinic
loop_
_symmetry_equiv_pos_as_xyz
'x, y, z'
_cell_length_a     40.639425
_cell_length_b     40.692242
_cell_length_c     41.632128
_cell_angle_alpha  89.940945
_cell_angle_beta   90.061903
_cell_angle_gamma 119.95424
loop_
_atom_site_label
_atom_site_type_symbol
_atom_site_fract_x
_atom_site_fract_y
_atom_site_fract_z
_atom_type_partial_charge
Mn0 Mn 0.41552 0.06975 0.12142 0.0
Mn1 Mn 0.49112 0.14516 0.1548 0.0
C2 C 0.47154 0.06949 0.1289 0.0
C3 C 0.38391 0.04099 0.07316 0.0
C4 C 0.4274 0.0862 0.19499 0.0
O5 O 0.39969 0.10881 0.1176 0.0
O6 O 0.44839 0.15515 0.14492 0.0
C7 C 0.50678 0.1959 0.09662 0.0
N8 N 0.51927 0.18051 0.11937 0.0
C9 C 0.58752 0.24284 0.11112 0.0
C10 C 0.57056 0.25397 0.08806 0.0
C11 C 0.53155 0.2306 0.0806 0.0
C12 C 0.55584 0.19795 0.12581 0.0
H13 H 0.47716 0.18175 0.0905 0.0
C14 C 0.41683 0.1417 0.12962 0.0
O15 O 0.36611 0.03028 0.10054 0.0
O16 O 0.41864 0.06808 0.07423 0.0
N17 N 0.5368 0.14119 0.16719 0.0
C18 C 0.53959 0.11638 0.19202 0.0
C19 C 0.57753 0.12536 0.2114 0.0
C20 C 0.63988 0.18901 0.20163 0.0
C21 C 0.63327 0.21307 0.17452 0.0
C22 C 0.56697 0.1764 0.15441 0.0
H23 H 0.51358 0.09208 0.20012 0.0
O24 O 0.4398 0.03812 0.12511 0.0
O25 O 0.46998 0.10062 0.1274 0.0
O26 O 0.40554 0.06751 0.17121 0.0
O27 O 0.46204 0.11263 0.19153 0.0
C28 C 0.65991 0.25803 0.15526 0.0
C29 C 0.63651 0.27247 0.12392 0.0
H30 H 0.58758 0.28042 0.07564 0.0
H31 H 0.51941 0.2403 0.06235 0.0
H32 H 0.57156 0.10177 0.22757 0.0
H33 H 0.66843 0.20151 0.21198 0.0
H34 H 0.69059 0.27427 0.16605 0.0
H35 H 0.65259 0.26893 0.13977 0.0
Mn36 Mn 0.33448 0.39297 0.61676 0.0
Mn37 Mn 0.33454 0.46882 0.64667 0.0
C38 C 0.3918 0.44888 0.62457 0.0
C39 C 0.33344 0.36494 0.56658 0.0
C40 C 0.31759 0.3992 0.6874 0.0
O41 O 0.27942 0.3798 0.61252 0.0
O42 O 0.28638 0.4376 0.62197 0.0
C43 C 0.33536 0.50715 0.58716 0.0
N44 N 0.35345 0.50955 0.61502 0.0
C45 C 0.38075 0.58193 0.61749 0.0
C46 C 0.3625 0.57542 0.58564 0.0
C47 C 0.34193 0.53975 0.57122 0.0
C48 C 0.38165 0.54359 0.62553 0.0
H49 H 0.31542 0.47998 0.57713 0.0
C50 C 0.26659 0.4027 0.61331 0.0
O51 O 0.32514 0.34502 0.59291 0.0
O52 O 0.34015 0.39905 0.56968 0.0
N53 N 0.37877 0.49991 0.67276 0.0
C54 C 0.37419 0.49069 0.71064 0.0
C55 C 0.39064 0.52332 0.742 0.0
C56 C 0.41643 0.57321 0.73879 0.0
C57 C 0.42724 0.59501 0.69917 0.0
C58 C 0.40057 0.54075 0.65639 0.0
H59 H 0.35972 0.4622 0.7188 0.0
O60 O 0.39153 0.41719 0.62087 0.0
O61 O 0.35884 0.44606 0.62414 0.0
O62 O 0.32686 0.3819 0.66636 0.0
O63 O 0.3148 0.42838 0.68018 0.0
C64 C 0.42681 0.63423 0.69084 0.0
C65 C 0.40769 0.63636 0.65867 0.0
H66 H 0.36159 0.59694 0.57101 0.0
H67 H 0.32814 0.53712 0.54832 0.0
H68 H 0.38607 0.50974 0.7649 0.0
H69 H 0.42498 0.59031 0.72011 0.0
H70 H 0.43474 0.65597 0.70894 0.0
H71 H 0.40907 0.66407 0.65827 0.0
Mn72 Mn 0.95151 0.35078 0.10977 0.0
Mn73 Mn 0.87281 0.35385 0.12109 0.0
C74 C 0.95838 0.41132 0.10679 0.0
C75 C 0.98029 0.34016 0.06413 0.0
C76 C 0.91219 0.33634 0.17522 0.0
O77 O 0.90812 0.29629 0.10834 0.0
O78 O 0.86617 0.31181 0.09221 0.0
C79 C 0.79047 0.29927 0.10367 0.0
N80 N 0.8165 0.32898 0.12175 0.0
C81 C 0.75826 0.34015 0.13638 0.0
C82 C 0.73661 0.31075 0.11541 0.0
C83 C 0.75216 0.29063 0.10014 0.0
C84 C 0.80538 0.3512 0.13512 0.0
H85 H 0.79894 0.28246 0.09 0.0
C86 C 0.87469 0.2864 0.09947 0.0
O87 O 0.98742 0.33301 0.09299 0.0
O88 O 0.95655 0.35208 0.06228 0.0
N89 N 0.87728 0.3918 0.15317 0.0
C90 C 0.91157 0.41775 0.17176 0.0
C91 C 0.91459 0.44855 0.19726 0.0
C92 C 0.85439 0.45095 0.21336 0.0
C93 C 0.81827 0.41981 0.19305 0.0
C94 C 0.83934 0.38541 0.15674 0.0
H95 H 0.93676 0.41599 0.16785 0.0
O96 O 0.98826 0.40788 0.10812 0.0
O97 O 0.9271 0.38 0.11321 0.0
O98 O 0.94386 0.34632 0.15989 0.0
O99 O 0.88091 0.32911 0.16038 0.0
C100 C 0.76843 0.40318 0.1896 0.0
C101 C 0.73903 0.36329 0.16138 0.0
H102 H 0.70805 0.30377 0.10998 0.0
H103 H 0.73391 0.26756 0.08428 0.0
H104 H 0.94363 0.46424 0.20683 0.0
H105 H 0.84984 0.46906 0.22982 0.0
H106 H 0.75959 0.42026 0.20681 0.0
H107 H 0.75055 0.38425 0.17706 0.0
Mn108 Mn 0.59117 0.93352 0.61972 0.0
Mn109 Mn 0.51455 0.85159 0.64025 0.0
C110 C 0.53423 0.93248 0.63054 0.0
C111 C 0.62121 0.96621 0.57132 0.0
C112 C 0.57923 0.90054 0.68711 0.0
O113 O 0.60751 0.89429 0.61326 0.0
O114 O 0.54913 0.84362 0.61166 0.0
C115 C 0.48551 0.83732 0.57411 0.0
N116 N 0.47798 0.84021 0.60532 0.0
C117 C 0.40628 0.80096 0.59441 0.0
C118 C 0.41827 0.80467 0.56071 0.0
C119 C 0.45646 0.82271 0.55147 0.0
C120 C 0.44286 0.83355 0.6138 0.0
H121 H 0.51419 0.84692 0.56624 0.0
C122 C 0.58518 0.85894 0.6096 0.0
O123 O 0.63986 0.97516 0.59836 0.0
O124 O 0.58712 0.93832 0.57264 0.0
N125 N 0.47749 0.84984 0.67018 0.0
C126 C 0.47947 0.83396 0.70574 0.0
C127 C 0.44014 0.80143 0.72929 0.0
C128 C 0.39185 0.78115 0.71827 0.0
C129 C 0.37906 0.79221 0.68152 0.0
C130 C 0.43969 0.8394 0.65018 0.0
H131 H 0.50647 0.84039 0.71561 0.0
O132 O 0.5652 0.96456 0.62699 0.0
O133 O 0.53809 0.90333 0.62755 0.0
O134 O 0.59835 0.9297 0.6687 0.0
O135 O 0.55273 0.86806 0.67638 0.0
C136 C 0.34395 0.76028 0.66398 0.0
C137 C 0.34663 0.75557 0.62676 0.0
H138 H 0.39929 0.79175 0.54055 0.0
H139 H 0.46354 0.82268 0.5264 0.0
H140 H 0.4468 0.79144 0.75105 0.0
H141 H 0.37008 0.75692 0.73102 0.0
H142 H 0.32018 0.73886 0.67753 0.0
H143 H 0.31969 0.73085 0.61915 0.0
Mn144 Mn 0.66693 0.60347 0.10972 0.0
Mn145 Mn 0.66605 0.52581 0.13612 0.0
C146 C 0.60607 0.54974 0.11334 0.0
C147 C 0.67685 0.63653 0.06047 0.0
C148 C 0.6806 0.59309 0.17865 0.0
O149 O 0.72243 0.61608 0.1109 0.0
O150 O 0.7078 0.55666 0.10624 0.0
C151 C 0.65245 0.49275 0.07188 0.0
N152 N 0.64274 0.48705 0.10329 0.0
C153 C 0.61605 0.41521 0.09757 0.0
C154 C 0.62577 0.42516 0.06348 0.0
C155 C 0.6421 0.46216 0.05157 0.0
C156 C 0.61782 0.45202 0.11401 0.0
H157 H 0.66834 0.52107 0.06217 0.0
C158 C 0.73256 0.59151 0.10749 0.0
O159 O 0.68422 0.65405 0.08793 0.0
O160 O 0.66527 0.60074 0.06195 0.0
N161 N 0.63184 0.49019 0.168 0.0
C162 C 0.64758 0.49508 0.20476 0.0
C163 C 0.63981 0.45773 0.23167 0.0
C164 C 0.61346 0.40881 0.22286 0.0
C165 C 0.59216 0.39295 0.185 0.0
C166 C 0.60682 0.451 0.14946 0.0
H167 H 0.66694 0.52308 0.21363 0.0
O168 O 0.61054 0.58308 0.10854 0.0
O169 O 0.63739 0.54956 0.11978 0.0
O170 O 0.67076 0.61096 0.1587 0.0
O171 O 0.68769 0.5666 0.17015 0.0
C172 C 0.59061 0.35699 0.1702 0.0
C173 C 0.60025 0.35757 0.13331 0.0
H174 H 0.62284 0.40549 0.04473 0.0
H175 H 0.64936 0.46743 0.02634 0.0
H176 H 0.65394 0.46577 0.25473 0.0
H177 H 0.61613 0.38901 0.23796 0.0
H178 H 0.58766 0.33418 0.18552 0.0
H179 H 0.59854 0.33036 0.12764 0.0
Mn180 Mn 0.06371 0.64686 0.61836 0.0
Mn181 Mn 0.1393 0.64364 0.64838 0.0
C182 C 0.06247 0.58972 0.62145 0.0
C183 C 0.03684 0.65458 0.57067 0.0
C184 C 0.0792 0.64532 0.69132 0.0
O185 O 0.1027 0.70224 0.62018 0.0
O186 O 0.15035 0.69641 0.64109 0.0
C187 C 0.18684 0.67939 0.58864 0.0
N188 N 0.17197 0.65057 0.6106 0.0
C189 C 0.22939 0.63918 0.59368 0.0
C190 C 0.24045 0.66894 0.57221 0.0
C191 C 0.21903 0.6876 0.56936 0.0
C192 C 0.18712 0.6286 0.61285 0.0
H193 H 0.17451 0.69734 0.58588 0.0
C194 C 0.13643 0.7163 0.63037 0.0
O195 O 0.02454 0.65809 0.59863 0.0
O196 O 0.06524 0.64887 0.57113 0.0
N197 N 0.13502 0.59363 0.65869 0.0
C198 C 0.11274 0.56742 0.68514 0.0
C199 C 0.12273 0.53838 0.7029 0.0
C200 C 0.18309 0.53588 0.68648 0.0
C201 C 0.20445 0.56496 0.65761 0.0
C202 C 0.168 0.59685 0.64245 0.0
H203 H 0.0895 0.56975 0.69506 0.0
O204 O 0.03168 0.59089 0.61666 0.0
O205 O 0.09383 0.62223 0.6221 0.0
O206 O 0.05887 0.64753 0.6684 0.0
O207 O 0.10801 0.64059 0.68671 0.0
C208 C 0.24621 0.58034 0.63368 0.0
C209 C 0.25835 0.61764 0.60232 0.0
H210 H 0.26593 0.67836 0.55808 0.0
H211 H 0.2287 0.71071 0.55236 0.0
H212 H 0.10097 0.52207 0.72088 0.0
H213 H 0.19563 0.5191 0.69506 0.0
H214 H 0.26126 0.56321 0.64057 0.0
H215 H 0.25574 0.59795 0.6176 0.0
Mn216 Mn 0.94164 0.60547 0.3978 0.0
Mn217 Mn 0.86006 0.5305 0.37296 0.0
C218 C 0.94306 0.54873 0.39341 0.0
C219 C 0.96889 0.63807 0.44592 0.0
C220 C 0.91749 0.59551 0.32921 0.0
O221 O 0.90262 0.62311 0.39732 0.0
O222 O 0.85638 0.56476 0.40419 0.0
C223 C 0.83909 0.4963 0.4374 0.0
N224 N 0.84181 0.49054 0.40574 0.0
C225 C 0.79444 0.41857 0.41221 0.0
C226 C 0.79706 0.42871 0.44642 0.0
C227 C 0.81909 0.46577 0.45798 0.0
C228 C 0.82939 0.45484 0.39481 0.0
H229 H 0.85261 0.52459 0.44727 0.0
C230 C 0.86772 0.59976 0.40125 0.0
O231 O 0.98008 0.65505 0.4183 0.0
O232 O 0.94136 0.60347 0.4454 0.0
N233 N 0.85157 0.49267 0.34068 0.0
C234 C 0.83878 0.49837 0.30491 0.0
C235 C 0.80659 0.46169 0.27862 0.0
C236 C 0.783 0.41257 0.28692 0.0
C237 C 0.78957 0.39584 0.32416 0.0
C238 C 0.83682 0.45323 0.35895 0.0
H239 H 0.84785 0.52672 0.29661 0.0
O240 O 0.97356 0.58076 0.39804 0.0
O241 O 0.91263 0.55097 0.38827 0.0
O242 O 0.94521 0.61239 0.34916 0.0
O243 O 0.88287 0.57124 0.33805 0.0
C244 C 0.75528 0.3607 0.33991 0.0
C245 C 0.74869 0.36165 0.37725 0.0
H246 H 0.78113 0.40919 0.46555 0.0
H247 H 0.81856 0.47122 0.48338 0.0
H248 H 0.79953 0.4704 0.25633 0.0
H249 H 0.76146 0.39309 0.27048 0.0
H250 H 0.73391 0.33836 0.32514 0.0
H251 H 0.72283 0.33504 0.38358 0.0
Mn252 Mn 0.34258 0.94219 0.89923 0.0
Mn253 Mn 0.34323 0.86361 0.87546 0.0
C254 C 0.39911 0.94353 0.88985 0.0
C255 C 0.343 0.97381 0.94694 0.0
C256 C 0.32691 0.91341 0.82991 0.0
O257 O 0.28802 0.9013 0.90567 0.0
O258 O 0.29375 0.84959 0.89726 0.0
C259 C 0.33655 0.83024 0.94181 0.0
N260 N 0.35857 0.84352 0.91479 0.0
C261 C 0.37302 0.78402 0.93046 0.0
C262 C 0.35046 0.7778 0.957 0.0
C263 C 0.33483 0.80149 0.96277 0.0
C264 C 0.38538 0.83374 0.91069 0.0
H265 H 0.31823 0.84137 0.94769 0.0
C266 C 0.2743 0.86559 0.90463 0.0
O267 O 0.33338 0.98257 0.91974 0.0
O268 O 0.35037 0.94665 0.94607 0.0
N269 N 0.38767 0.8733 0.84766 0.0
C270 C 0.37937 0.86928 0.80747 0.0
C271 C 0.38246 0.83436 0.77953 0.0
C272 C 0.39748 0.79964 0.79179 0.0
C273 C 0.41089 0.7961 0.83274 0.0
C274 C 0.4048 0.85242 0.86928 0.0
H275 H 0.36871 0.88605 0.79648 0.0
O276 O 0.39894 0.9751 0.89248 0.0
O277 O 0.36699 0.91315 0.89372 0.0
O278 O 0.33277 0.94018 0.8498 0.0
O279 O 0.32666 0.88288 0.83848 0.0
C280 C 0.39073 0.74668 0.85734 0.0
C281 C 0.37177 0.73846 0.906 0.0
H282 H 0.3414 0.75253 0.97133 0.0
H283 H 0.31629 0.79439 0.98341 0.0
H284 H 0.37282 0.83304 0.75511 0.0
H285 H 0.39011 0.7751 0.77778 0.0
H286 H 0.38821 0.72353 0.84081 0.0
H287 H 0.37758 0.73318 0.88266 0.0
Mn288 Mn 0.40217 0.33884 0.39112 0.0
Mn289 Mn 0.47289 0.32394 0.36755 0.0
C290 C 0.46209 0.39034 0.38149 0.0
C291 C 0.37144 0.34122 0.43824 0.0
C292 C 0.41319 0.32282 0.32121 0.0
O293 O 0.37882 0.28234 0.39715 0.0
O294 O 0.43054 0.27762 0.38773 0.0
C295 C 0.49243 0.30916 0.43296 0.0
N296 N 0.50465 0.33265 0.40679 0.0
C297 C 0.57282 0.34418 0.42244 0.0
C298 C 0.55628 0.32049 0.4484 0.0
C299 C 0.5173 0.30497 0.45422 0.0
C300 C 0.54199 0.35821 0.40423 0.0
H301 H 0.46252 0.29185 0.43761 0.0
C302 C 0.39592 0.26356 0.39634 0.0
O303 O 0.35463 0.33558 0.41045 0.0
O304 O 0.40505 0.34563 0.43813 0.0
N305 N 0.51581 0.36336 0.34306 0.0
C306 C 0.51616 0.35205 0.30455 0.0
C307 C 0.55814 0.3579 0.28222 0.0
C308 C 0.60572 0.37764 0.29927 0.0
C309 C 0.61529 0.39188 0.34075 0.0
C310 C 0.55126 0.38166 0.36795 0.0
H311 H 0.48974 0.33716 0.29161 0.0
O312 O 0.43314 0.39515 0.38494 0.0
O313 O 0.45539 0.35608 0.38548 0.0
O314 O 0.39437 0.33084 0.34166 0.0
O315 O 0.44013 0.31644 0.32936 0.0
C316 C 0.63932 0.3749 0.36676 0.0
C317 C 0.61803 0.35113 0.40617 0.0
H318 H 0.57296 0.31234 0.46308 0.0
H319 H 0.50505 0.28586 0.47441 0.0
H320 H 0.55349 0.34696 0.25798 0.0
H321 H 0.62706 0.37469 0.28623 0.0
H322 H 0.66596 0.37765 0.35335 0.0
H323 H 0.63255 0.36289 0.38634 0.0
Mn324 Mn 0.06975 0.40711 0.88987 0.0
Mn325 Mn 0.1452 0.48308 0.85602 0.0
C326 C 0.0693 0.46363 0.88241 0.0
C327 C 0.04248 0.3738 0.93825 0.0
C328 C 0.08825 0.41304 0.81733 0.0
O329 O 0.11146 0.39384 0.89277 0.0
O330 O 0.16177 0.44935 0.8768 0.0
C331 C 0.18105 0.51674 0.91585 0.0
N332 N 0.17067 0.52269 0.88689 0.0
C333 C 0.20901 0.59605 0.89248 0.0
C334 C 0.21552 0.58368 0.92481 0.0
C335 C 0.20202 0.54679 0.93548 0.0
C336 C 0.17831 0.55766 0.8762 0.0
H337 H 0.17221 0.4885 0.92411 0.0
C338 C 0.1469 0.41564 0.88835 0.0
O339 O 0.03255 0.35701 0.91046 0.0
O340 O 0.06806 0.40931 0.93773 0.0
N341 N 0.13448 0.51827 0.83554 0.0
C342 C 0.11085 0.50948 0.81009 0.0
C343 C 0.11081 0.53712 0.79088 0.0
C344 C 0.13755 0.5752 0.7937 0.0
C345 C 0.16705 0.59049 0.82111 0.0
C346 C 0.1586 0.55442 0.84537 0.0
H347 H 0.09072 0.48034 0.80453 0.0
O348 O 0.03769 0.4322 0.88726 0.0
O349 O 0.09948 0.46072 0.882 0.0
O350 O 0.06507 0.39567 0.8406 0.0
O351 O 0.11961 0.44437 0.82126 0.0
C352 C 0.21736 0.65541 0.8351 0.0
C353 C 0.23554 0.65706 0.86582 0.0
H354 H 0.23296 0.60179 0.94413 0.0
H355 H 0.20936 0.54157 0.95926 0.0
H356 H 0.08977 0.52859 0.77214 0.0
H357 H 0.15738 0.58835 0.80914 0.0
H358 H 0.22865 0.6836 0.82394 0.0
H359 H 0.25765 0.68617 0.87189 0.0
Mn360 Mn 0.6445 0.06234 0.39463 0.0
Mn361 Mn 0.6438 0.13785 0.36145 0.0
C362 C 0.58735 0.06128 0.38545 0.0
C363 C 0.64696 0.03487 0.44442 0.0
C364 C 0.6591 0.08298 0.32242 0.0
O365 O 0.69941 0.10352 0.39853 0.0
O366 O 0.69428 0.15337 0.38099 0.0
C367 C 0.64653 0.17097 0.42267 0.0
N368 N 0.63013 0.16218 0.39365 0.0
C369 C 0.59379 0.1988 0.40258 0.0
C370 C 0.61222 0.20295 0.43487 0.0
C371 C 0.63659 0.18987 0.4439 0.0
C372 C 0.60237 0.16986 0.38421 0.0
H373 H 0.66645 0.16214 0.42983 0.0
C374 C 0.71325 0.13862 0.39252 0.0
O375 O 0.65513 0.02415 0.41756 0.0
O376 O 0.63868 0.06145 0.44207 0.0
N377 N 0.59808 0.1284 0.34152 0.0
C378 C 0.58326 0.10619 0.31529 0.0
C379 C 0.556 0.10768 0.2965 0.0
C380 C 0.54518 0.1347 0.30071 0.0
C381 C 0.55926 0.1625 0.32933 0.0
C382 C 0.58645 0.15235 0.35261 0.0
H383 H 0.59231 0.08637 0.30852 0.0
O384 O 0.58749 0.02991 0.39034 0.0
O385 O 0.62024 0.09156 0.38606 0.0
O386 O 0.65379 0.05935 0.34536 0.0
O387 O 0.65645 0.11288 0.32638 0.0
C388 C 0.54352 0.21126 0.34699 0.0
C389 C 0.55918 0.22675 0.37849 0.0
H390 H 0.61058 0.21827 0.45546 0.0
H391 H 0.64894 0.19567 0.46776 0.0
H392 H 0.54374 0.08805 0.27675 0.0
H393 H 0.5518 0.15355 0.31701 0.0
H394 H 0.52658 0.22315 0.33689 0.0
H395 H 0.55152 0.24793 0.3863 0.0
Mn396 Mn 0.59712 0.65847 0.8942 0.0
Mn397 Mn 0.51508 0.65725 0.87479 0.0
C398 C 0.5427 0.59962 0.89126 0.0
C399 C 0.6386 0.66456 0.93659 0.0
C400 C 0.57117 0.65965 0.82362 0.0
O401 O 0.61237 0.71357 0.90016 0.0
O402 O 0.55836 0.70864 0.88292 0.0
C403 C 0.51261 0.68448 0.94247 0.0
N404 N 0.4943 0.66092 0.91731 0.0
C405 C 0.43001 0.6502 0.94571 0.0
C406 C 0.45308 0.67532 0.96922 0.0
C407 C 0.49303 0.69107 0.96783 0.0
C408 C 0.45679 0.64134 0.91805 0.0
H409 H 0.54302 0.69896 0.94327 0.0
C410 C 0.59216 0.72806 0.89321 0.0
O411 O 0.65068 0.67171 0.90703 0.0
O412 O 0.60343 0.65435 0.94109 0.0
N413 N 0.46479 0.61311 0.86281 0.0
C414 C 0.45565 0.5932 0.83162 0.0
C415 C 0.41418 0.56933 0.81617 0.0
C416 C 0.35627 0.56684 0.84433 0.0
C417 C 0.36926 0.59042 0.87718 0.0
C418 C 0.43863 0.61575 0.885 0.0
H419 H 0.47884 0.59675 0.81677 0.0
O420 O 0.57624 0.60393 0.88934 0.0
O421 O 0.54092 0.63098 0.89486 0.0
O422 O 0.59696 0.66352 0.84398 0.0
O423 O 0.5385 0.65535 0.83222 0.0
C424 C 0.34841 0.60312 0.90929 0.0
C425 C 0.37927 0.63322 0.94299 0.0
H426 H 0.44057 0.68344 0.98833 0.0
H427 H 0.50992 0.71049 0.98671 0.0
H428 H 0.41661 0.55567 0.79526 0.0
H429 H 0.32594 0.55277 0.83849 0.0
H430 H 0.31573 0.59035 0.90493 0.0
H431 H 0.35955 0.61737 0.92719 0.0
Mn432 Mn 0.58976 0.93308 0.89643 0.0
Mn433 Mn 0.50885 0.85153 0.87946 0.0
C434 C 0.53418 0.93393 0.88649 0.0
C435 C 0.62604 0.97092 0.94009 0.0
C436 C 0.56897 0.89734 0.82807 0.0
O437 O 0.60564 0.89474 0.90671 0.0
O438 O 0.55039 0.8431 0.89488 0.0
C439 C 0.48939 0.81582 0.93709 0.0
N440 N 0.4825 0.83929 0.91954 0.0
C441 C 0.42184 0.79667 0.89404 0.0
C442 C 0.44179 0.76951 0.90379 0.0
C443 C 0.4707 0.77906 0.92657 0.0
C444 C 0.44461 0.82689 0.91461 0.0
H445 H 0.51543 0.82636 0.95066 0.0
C446 C 0.58495 0.85926 0.90386 0.0
O447 O 0.64146 0.97535 0.91182 0.0
O448 O 0.59099 0.94506 0.94245 0.0
N449 N 0.46331 0.84818 0.86411 0.0
C450 C 0.46313 0.86559 0.83591 0.0
C451 C 0.42818 0.85705 0.81986 0.0
C452 C 0.36678 0.8131 0.8318 0.0
C453 C 0.36715 0.79104 0.86592 0.0
C454 C 0.42924 0.81688 0.88331 0.0
H455 H 0.48985 0.88639 0.82547 0.0
O456 O 0.56646 0.96513 0.88655 0.0
O457 O 0.53527 0.90361 0.89343 0.0
O458 O 0.59283 0.92292 0.84765 0.0
O459 O 0.53667 0.86879 0.8371 0.0
C460 C 0.32704 0.75852 0.87534 0.0
C461 C 0.36347 0.78063 0.87719 0.0
H462 H 0.43319 0.74161 0.89419 0.0
H463 H 0.47982 0.75923 0.93369 0.0
H464 H 0.44 0.87783 0.80005 0.0
H465 H 0.33873 0.80404 0.82106 0.0
H466 H 0.30599 0.75757 0.85614 0.0
H467 H 0.32781 0.75091 0.89267 0.0
Mn468 Mn 0.65554 0.5898 0.38771 0.0
Mn469 Mn 0.6593 0.51541 0.35594 0.0
C470 C 0.60009 0.53326 0.37726 0.0
C471 C 0.6552 0.61968 0.43608 0.0
C472 C 0.67341 0.58498 0.31678 0.0
O473 O 0.7105 0.60459 0.39374 0.0
O474 O 0.70832 0.55013 0.37864 0.0
C475 C 0.65859 0.48175 0.41635 0.0
N476 N 0.64343 0.47573 0.38691 0.0
C477 C 0.60732 0.40241 0.39299 0.0
C478 C 0.6252 0.41497 0.42567 0.0
C479 C 0.6485 0.45182 0.43635 0.0
C480 C 0.61611 0.44081 0.37602 0.0
H481 H 0.67789 0.50998 0.42468 0.0
C482 C 0.72573 0.58409 0.39 0.0
O483 O 0.66406 0.63832 0.40907 0.0
O484 O 0.64779 0.58501 0.43477 0.0
N485 N 0.61484 0.48009 0.33352 0.0
C486 C 0.60252 0.48885 0.30634 0.0
C487 C 0.57541 0.46137 0.2867 0.0
C488 C 0.56182 0.42304 0.29114 0.0
C489 C 0.5737 0.40772 0.32017 0.0
C490 C 0.60101 0.44399 0.34439 0.0
H491 H 0.61276 0.51792 0.29972 0.0
O492 O 0.5989 0.56418 0.38154 0.0
O493 O 0.63333 0.53665 0.37936 0.0
O494 O 0.66565 0.60214 0.33894 0.0
O495 O 0.67425 0.55426 0.3216 0.0
C496 C 0.55767 0.34253 0.33561 0.0
C497 C 0.57291 0.34114 0.36692 0.0
H498 H 0.62371 0.39701 0.44547 0.0
H499 H 0.66018 0.45709 0.46046 0.0
H500 H 0.56495 0.47024 0.26654 0.0
H501 H 0.56706 0.40992 0.30767 0.0
H502 H 0.541 0.31426 0.32455 0.0
H503 H 0.56523 0.31199 0.37364 0.0
Mn504 Mn 0.06923 0.66019 0.89877 0.0
Mn505 Mn 0.15245 0.67455 0.86972 0.0
C506 C 0.0777 0.60813 0.89023 0.0
C507 C 0.0395 0.6601 0.94734 0.0
C508 C 0.08837 0.67139 0.82742 0.0
O509 O 0.10246 0.7177 0.90122 0.0
O510 O 0.15758 0.7206 0.88982 0.0
C511 C 0.19195 0.69193 0.93311 0.0
N512 N 0.17878 0.66755 0.90757 0.0
C513 C 0.23517 0.65487 0.92129 0.0
C514 C 0.24483 0.68033 0.94631 0.0
C515 C 0.22236 0.69672 0.95291 0.0
C516 C 0.18956 0.64125 0.90481 0.0
H517 H 0.17995 0.7096 0.93833 0.0
C518 C 0.13841 0.73564 0.89925 0.0
O519 O 0.02565 0.6627 0.91985 0.0
O520 O 0.07029 0.65841 0.94591 0.0
N521 N 0.15512 0.63533 0.84503 0.0
C522 C 0.16489 0.64643 0.80633 0.0
C523 C 0.19918 0.63987 0.78216 0.0
C524 C 0.2276 0.62003 0.79723 0.0
C525 C 0.22527 0.6057 0.83947 0.0
C526 C 0.17331 0.61724 0.86898 0.0
H527 H 0.15285 0.6614 0.79423 0.0
O528 O 0.04437 0.60335 0.89615 0.0
O529 O 0.10505 0.64285 0.89124 0.0
O530 O 0.06356 0.66326 0.84972 0.0
O531 O 0.12312 0.68002 0.83292 0.0
C532 C 0.2675 0.62243 0.86492 0.0
C533 C 0.27197 0.6467 0.90343 0.0
H534 H 0.27108 0.6896 0.95933 0.0
H535 H 0.23101 0.71699 0.97239 0.0
H536 H 0.20382 0.64997 0.75764 0.0
H537 H 0.25046 0.62219 0.78242 0.0
H538 H 0.24632 0.61039 0.84575 0.0
H539 H 0.27661 0.6337 0.88327 0.0
Mn540 Mn 0.38922 0.05907 0.40102 0.0
Mn541 Mn 0.45948 0.14399 0.37788 0.0
C542 C 0.4492 0.06683 0.39147 0.0
C543 C 0.35991 0.02647 0.44824 0.0
C544 C 0.40013 0.08501 0.33134 0.0
O545 O 0.3654 0.0924 0.40632 0.0
O546 O 0.41809 0.14805 0.39832 0.0
C547 C 0.47907 0.17624 0.44406 0.0
N548 N 0.4913 0.16609 0.41726 0.0
C549 C 0.55956 0.22143 0.43387 0.0
C550 C 0.54305 0.22751 0.4605 0.0
C551 C 0.504 0.20412 0.46605 0.0
C552 C 0.52854 0.17745 0.41468 0.0
H553 H 0.44914 0.1635 0.44878 0.0
C554 C 0.38333 0.12832 0.40604 0.0
O555 O 0.34243 0.01477 0.42078 0.0
O556 O 0.39288 0.05642 0.4478 0.0
N557 N 0.50182 0.14837 0.35303 0.0
C558 C 0.5017 0.16166 0.31504 0.0
C559 C 0.54356 0.1982 0.29306 0.0
C560 C 0.59114 0.22538 0.30996 0.0
C561 C 0.60116 0.21912 0.35088 0.0
C562 C 0.53742 0.1646 0.37776 0.0
H563 H 0.47523 0.15071 0.30227 0.0
O564 O 0.42012 0.03336 0.3952 0.0
O565 O 0.4425 0.09442 0.39516 0.0
O566 O 0.38137 0.05827 0.35178 0.0
O567 O 0.42632 0.11869 0.33961 0.0
C568 C 0.62558 0.25913 0.37786 0.0
C569 C 0.60464 0.26018 0.41792 0.0
H570 H 0.55967 0.25145 0.47603 0.0
H571 H 0.49178 0.21013 0.48676 0.0
H572 H 0.53909 0.20499 0.26893 0.0
H573 H 0.61248 0.2493 0.29651 0.0
H574 H 0.65238 0.28333 0.36489 0.0
H575 H 0.61901 0.26366 0.39784 0.0
Mn576 Mn 0.3454 0.40145 0.89398 0.0
Mn577 Mn 0.34102 0.47887 0.87643 0.0
C578 C 0.40446 0.45647 0.892 0.0
C579 C 0.33764 0.36628 0.94146 0.0
C580 C 0.32751 0.41484 0.82736 0.0
O581 O 0.28957 0.38574 0.89438 0.0
O582 O 0.30211 0.44301 0.9066 0.0
C583 C 0.35677 0.50769 0.94305 0.0
N584 N 0.36517 0.51578 0.91155 0.0
C585 C 0.39542 0.58791 0.92331 0.0
C586 C 0.38795 0.5749 0.95685 0.0
C587 C 0.37 0.53659 0.96575 0.0
C588 C 0.39058 0.55188 0.90265 0.0
H589 H 0.34015 0.47873 0.95115 0.0
C590 C 0.27828 0.40822 0.90245 0.0
O591 O 0.33081 0.35015 0.91335 0.0
O592 O 0.34782 0.40172 0.94163 0.0
N593 N 0.37136 0.51887 0.84638 0.0
C594 C 0.35201 0.5176 0.81184 0.0
C595 C 0.35851 0.55742 0.78888 0.0
C596 C 0.38709 0.60544 0.79984 0.0
C597 C 0.41183 0.6177 0.83664 0.0
C598 C 0.39861 0.55609 0.86654 0.0
H599 H 0.33077 0.49051 0.80248 0.0
O600 O 0.40157 0.42348 0.89376 0.0
O601 O 0.3727 0.45622 0.88672 0.0
O602 O 0.34007 0.3973 0.84499 0.0
O603 O 0.32045 0.44073 0.8387 0.0
C604 C 0.41595 0.65251 0.85543 0.0
C605 C 0.40967 0.64882 0.89292 0.0
H606 H 0.39371 0.59318 0.97745 0.0
H607 H 0.36411 0.52908 0.99089 0.0
H608 H 0.34196 0.5516 0.76714 0.0
H609 H 0.3861 0.62713 0.78552 0.0
H610 H 0.41823 0.67678 0.84275 0.0
H611 H 0.41253 0.67562 0.90159 0.0
Mn612 Mn 0.92091 0.34232 0.38825 0.0
Mn613 Mn 0.84283 0.34661 0.36612 0.0
C614 C 0.92855 0.40176 0.38128 0.0
C615 C 0.95487 0.33845 0.43311 0.0
C616 C 0.89428 0.33912 0.31682 0.0
O617 O 0.88017 0.2892 0.39657 0.0
O618 O 0.83277 0.29395 0.37456 0.0
C619 C 0.80728 0.31816 0.43209 0.0
N620 N 0.81608 0.34308 0.40733 0.0
C621 C 0.76077 0.35459 0.43105 0.0
C622 C 0.75529 0.32802 0.45446 0.0
C623 C 0.77859 0.31122 0.45521 0.0
C624 C 0.79867 0.36316 0.40617 0.0
H625 H 0.82223 0.30284 0.43429 0.0
C626 C 0.84636 0.27474 0.38734 0.0
O627 O 0.96003 0.32851 0.40464 0.0
O628 O 0.93051 0.34969 0.43497 0.0
N629 N 0.84133 0.39347 0.35434 0.0
C630 C 0.85755 0.41634 0.3251 0.0
C631 C 0.84409 0.44357 0.30859 0.0
C632 C 0.78804 0.44826 0.33276 0.0
C633 C 0.77221 0.42195 0.36426 0.0
C634 C 0.8113 0.39148 0.37436 0.0
H635 H 0.88037 0.4143 0.31426 0.0
O636 O 0.95647 0.39541 0.38094 0.0
O637 O 0.89454 0.37191 0.38661 0.0
O638 O 0.91456 0.33348 0.33792 0.0
O639 O 0.86829 0.34723 0.32451 0.0
C640 C 0.73555 0.40901 0.39369 0.0
C641 C 0.73007 0.37507 0.4265 0.0
H642 H 0.73297 0.31994 0.47206 0.0
H643 H 0.77343 0.29078 0.47399 0.0
H644 H 0.86155 0.45799 0.28815 0.0
H645 H 0.77407 0.46434 0.32598 0.0
H646 H 0.71839 0.4246 0.3886 0.0
H647 H 0.72939 0.39306 0.41095 0.0
Mn648 Mn 0.0509 0.38703 0.61002 0.0
Mn649 Mn 0.12894 0.46064 0.63978 0.0
C650 C 0.05095 0.44328 0.62131 0.0
C651 C 0.02377 0.36131 0.55902 0.0
C652 C 0.07471 0.39139 0.67971 0.0
O653 O 0.0918 0.37207 0.60549 0.0
O654 O 0.14238 0.43034 0.61111 0.0
C655 C 0.1565 0.49855 0.57777 0.0
N656 N 0.14702 0.50166 0.60831 0.0
C657 C 0.19194 0.57356 0.60729 0.0
C658 C 0.19604 0.56689 0.57319 0.0
C659 C 0.17813 0.53075 0.55936 0.0
C660 C 0.15401 0.53578 0.61952 0.0
H661 H 0.14704 0.47109 0.56722 0.0
C662 C 0.1275 0.39508 0.6046 0.0
O663 O 0.01162 0.34054 0.58486 0.0
O664 O 0.05202 0.39485 0.56301 0.0
N665 N 0.1227 0.49256 0.67062 0.0
C666 C 0.12808 0.48391 0.70794 0.0
C667 C 0.15466 0.51789 0.73767 0.0
C668 C 0.17928 0.56711 0.73219 0.0
C669 C 0.17959 0.58726 0.69491 0.0
C670 C 0.13963 0.53366 0.6542 0.0
H671 H 0.11764 0.45551 0.71596 0.0
O672 O 0.01921 0.41273 0.61526 0.0
O673 O 0.0802 0.43927 0.62046 0.0
O674 O 0.04746 0.37514 0.65905 0.0
O675 O 0.1083 0.41807 0.67187 0.0
C676 C 0.21657 0.62366 0.68422 0.0
C677 C 0.23037 0.62641 0.64834 0.0
H678 H 0.21479 0.58839 0.55638 0.0
H679 H 0.18377 0.52749 0.53449 0.0
H680 H 0.15794 0.50727 0.76055 0.0
H681 H 0.1999 0.58385 0.74937 0.0
H682 H 0.23481 0.64429 0.70182 0.0
H683 H 0.25724 0.65337 0.64582 0.0
Mn684 Mn 0.66852 0.06892 0.11545 0.0
Mn685 Mn 0.66845 0.14277 0.15079 0.0
C686 C 0.61102 0.06565 0.12787 0.0
C687 C 0.66918 0.04396 0.0643 0.0
C688 C 0.68394 0.08628 0.1867 0.0
O689 O 0.72369 0.11199 0.11131 0.0
O690 O 0.71486 0.16088 0.1237 0.0
C691 C 0.66139 0.17686 0.09122 0.0
N692 N 0.64667 0.16346 0.12062 0.0
C693 C 0.61747 0.20663 0.1229 0.0
C694 C 0.63173 0.21585 0.08972 0.0
C695 C 0.65173 0.20045 0.07471 0.0
C696 C 0.61812 0.16823 0.13203 0.0
H697 H 0.68078 0.16945 0.08023 0.0
C698 C 0.73525 0.14749 0.11286 0.0
O699 O 0.67852 0.03207 0.08992 0.0
O700 O 0.66198 0.07104 0.06852 0.0
N701 N 0.62744 0.13188 0.18052 0.0
C702 C 0.63816 0.13283 0.21835 0.0
C703 C 0.62638 0.15416 0.24985 0.0
C704 C 0.60015 0.17746 0.24578 0.0
C705 C 0.58307 0.18175 0.20819 0.0
C706 C 0.60317 0.14919 0.16497 0.0
H707 H 0.65655 0.12261 0.22584 0.0
O708 O 0.61161 0.03509 0.12039 0.0
O709 O 0.64349 0.09616 0.12734 0.0
O710 O 0.6762 0.06215 0.16388 0.0
O711 O 0.68925 0.11988 0.18172 0.0
C712 C 0.58224 0.21879 0.2004 0.0
C713 C 0.59599 0.2374 0.16613 0.0
H714 H 0.63016 0.23664 0.07457 0.0
H715 H 0.66278 0.20966 0.0507 0.0
H716 H 0.63855 0.15508 0.27314 0.0
H717 H 0.60084 0.19462 0.26494 0.0
H718 H 0.57707 0.234 0.21917 0.0
H719 H 0.59428 0.26354 0.16556 0.0
Mn720 Mn 0.58658 0.65128 0.6099 0.0
Mn721 Mn 0.50919 0.64885 0.6413 0.0
C722 C 0.53089 0.59351 0.61488 0.0
C723 C 0.61864 0.65495 0.56132 0.0
C724 C 0.57168 0.65095 0.68379 0.0
O725 O 0.6017 0.70676 0.60811 0.0
O726 O 0.54972 0.70192 0.63146 0.0
C727 C 0.489 0.68271 0.58461 0.0
N728 N 0.47865 0.65425 0.6065 0.0
C729 C 0.40899 0.64727 0.60346 0.0
C730 C 0.42383 0.67547 0.58016 0.0
C731 C 0.46247 0.69203 0.57084 0.0
C732 C 0.44254 0.63464 0.61487 0.0
H733 H 0.51834 0.69943 0.57778 0.0
C734 C 0.58224 0.72121 0.6181 0.0
O735 O 0.63614 0.66132 0.58881 0.0
O736 O 0.58454 0.6491 0.56236 0.0
N737 N 0.46662 0.59892 0.65333 0.0
C738 C 0.46764 0.57212 0.67662 0.0
C739 C 0.43333 0.54403 0.69888 0.0
C740 C 0.3701 0.5452 0.69777 0.0
C741 C 0.37271 0.5753 0.67058 0.0
C742 C 0.43517 0.60361 0.64408 0.0
H743 H 0.49454 0.57417 0.68141 0.0
O744 O 0.56329 0.59555 0.61088 0.0
O745 O 0.53149 0.62599 0.61421 0.0
O746 O 0.59461 0.65429 0.6607 0.0
O747 O 0.53878 0.64689 0.67861 0.0
C748 C 0.34293 0.59224 0.65427 0.0
C749 C 0.36156 0.62838 0.62099 0.0
H750 H 0.40608 0.68546 0.56962 0.0
H751 H 0.47302 0.71461 0.55322 0.0
H752 H 0.44221 0.52732 0.71354 0.0
H753 H 0.34346 0.52946 0.71109 0.0
H754 H 0.31399 0.57825 0.66795 0.0
H755 H 0.34761 0.60962 0.63815 0.0
Mn756 Mn 0.94711 0.60178 0.11903 0.0
Mn757 Mn 0.87897 0.52092 0.15436 0.0
C758 C 0.95564 0.54964 0.11741 0.0
C759 C 0.97056 0.63734 0.07181 0.0
C760 C 0.93122 0.59351 0.19108 0.0
O761 O 0.90136 0.60899 0.12036 0.0
O762 O 0.8555 0.54972 0.13397 0.0
C763 C 0.82538 0.47665 0.10369 0.0
N764 N 0.84916 0.47727 0.12666 0.0
C765 C 0.80104 0.40668 0.14177 0.0
C766 C 0.77954 0.41023 0.11479 0.0
C767 C 0.79215 0.44324 0.09638 0.0
C768 C 0.84278 0.44442 0.14029 0.0
H769 H 0.83122 0.50232 0.09152 0.0
C770 C 0.86665 0.58393 0.12444 0.0
O771 O 0.98025 0.65356 0.09982 0.0
O772 O 0.94589 0.60159 0.07142 0.0
N773 N 0.89853 0.49193 0.17739 0.0
C774 C 0.91594 0.50444 0.21347 0.0
C775 C 0.90884 0.47334 0.24625 0.0
C776 C 0.88187 0.42306 0.24481 0.0
C777 C 0.85897 0.39973 0.20922 0.0
C778 C 0.87321 0.44961 0.16451 0.0
H779 H 0.93231 0.5341 0.21916 0.0
O780 O 0.98442 0.58369 0.11587 0.0
O781 O 0.92266 0.54677 0.12374 0.0
O782 O 0.9548 0.61238 0.1686 0.0
O783 O 0.90257 0.56105 0.18637 0.0
C784 C 0.81941 0.36308 0.21151 0.0
C785 C 0.78757 0.35767 0.18674 0.0
H786 H 0.75176 0.38829 0.107 0.0
H787 H 0.77408 0.44368 0.07744 0.0
H788 H 0.92281 0.48636 0.2686 0.0
H789 H 0.8784 0.4058 0.26529 0.0
H790 H 0.81251 0.34417 0.23183 0.0
H791 H 0.76162 0.33097 0.19268 0.0
Mn792 Mn 0.33535 0.92736 0.61922 0.0
Mn793 Mn 0.33423 0.8481 0.64303 0.0
C794 C 0.39124 0.92694 0.6259 0.0
C795 C 0.33346 0.9601 0.57364 0.0
C796 C 0.33137 0.90315 0.69083 0.0
O797 O 0.27982 0.88959 0.61425 0.0
O798 O 0.28285 0.84097 0.63604 0.0
C799 C 0.30348 0.81392 0.57721 0.0
N800 N 0.32961 0.82257 0.60107 0.0
C801 C 0.34318 0.77091 0.57326 0.0
C802 C 0.31612 0.76598 0.55053 0.0
C803 C 0.29773 0.7877 0.55219 0.0
C804 C 0.35221 0.80798 0.59942 0.0
H805 H 0.28603 0.82691 0.57713 0.0
C806 C 0.26429 0.85605 0.62476 0.0
O807 O 0.32634 0.96895 0.60188 0.0
O808 O 0.34059 0.93275 0.57248 0.0
N809 N 0.38157 0.84703 0.65368 0.0
C810 C 0.40333 0.86065 0.6842 0.0
C811 C 0.42772 0.84392 0.70062 0.0
C812 C 0.43009 0.78755 0.67411 0.0
C813 C 0.4058 0.77529 0.64165 0.0
C814 C 0.37933 0.81799 0.63211 0.0
H815 H 0.40022 0.88126 0.69817 0.0
O816 O 0.39148 0.95874 0.62411 0.0
O817 O 0.35879 0.89647 0.62183 0.0
O818 O 0.32804 0.92425 0.6692 0.0
O819 O 0.33712 0.87532 0.68406 0.0
C820 C 0.39263 0.74007 0.61108 0.0
C821 C 0.36122 0.73818 0.57739 0.0
H822 H 0.30807 0.74451 0.53216 0.0
H823 H 0.27651 0.78266 0.53416 0.0
H824 H 0.44063 0.85935 0.72298 0.0
H825 H 0.44404 0.77142 0.68079 0.0
H826 H 0.40589 0.72095 0.61673 0.0
H827 H 0.37778 0.73559 0.59333 0.0
Mn828 Mn 0.41356 0.34606 0.11113 0.0
Mn829 Mn 0.49317 0.34801 0.1378 0.0
C830 C 0.46694 0.4054 0.11764 0.0
C831 C 0.37557 0.34065 0.06628 0.0
C832 C 0.43242 0.34078 0.18318 0.0
O833 O 0.40014 0.29186 0.10392 0.0
O834 O 0.45031 0.29616 0.12922 0.0
C835 C 0.5024 0.31999 0.07248 0.0
N836 N 0.51778 0.34339 0.09823 0.0
C837 C 0.58456 0.35141 0.0786 0.0
C838 C 0.5645 0.32744 0.0533 0.0
C839 C 0.52482 0.31296 0.0502 0.0
C840 C 0.55497 0.36144 0.10158 0.0
H841 H 0.4723 0.30638 0.06866 0.0
C842 C 0.41803 0.27693 0.11588 0.0
O843 O 0.3609 0.33161 0.09496 0.0
O844 O 0.4115 0.35299 0.06414 0.0
N845 N 0.54126 0.39339 0.15173 0.0
C846 C 0.54685 0.41585 0.18128 0.0
C847 C 0.58674 0.44199 0.19905 0.0
C848 C 0.64782 0.44404 0.17821 0.0
C849 C 0.63822 0.41751 0.14684 0.0
C850 C 0.56958 0.38962 0.13354 0.0
H851 H 0.5219 0.41299 0.19311 0.0
O852 O 0.43299 0.40025 0.11801 0.0
O853 O 0.46961 0.37445 0.1142 0.0
O854 O 0.40827 0.33637 0.16098 0.0
O855 O 0.46695 0.3495 0.17748 0.0
C856 C 0.66247 0.40302 0.11922 0.0
C857 C 0.63513 0.3698 0.08563 0.0
H858 H 0.57922 0.31974 0.03588 0.0
H859 H 0.5104 0.29432 0.03015 0.0
H860 H 0.58245 0.4563 0.21946 0.0
H861 H 0.67739 0.45903 0.18639 0.0
H862 H 0.69469 0.41686 0.12607 0.0
H863 H 0.65321 0.38718 0.10184 0.0
C864 C 0.39707 0.10759 0.27609 0.0
C865 C 0.39415 0.07769 0.29553 0.0
C866 C 0.4002 0.04698 0.24605 0.0
C867 C 0.4115 0.08093 0.22851 0.0
N868 N 0.42361 0.14559 0.22858 0.0
N869 N 0.3913 0.01666 0.298 0.0
C870 C 0.41044 0.11165 0.24397 0.0
C871 C 0.39439 0.04627 0.28018 0.0
N872 N 0.38666 0.13216 0.28845 0.0
N873 N 0.39567 0.01556 0.23027 0.0
H874 H 0.38465 0.01293 0.32227 0.0
H875 H 0.39725 0.99633 0.28901 0.0
H876 H 0.40136 0.01561 0.20586 0.0
H877 H 0.3834 0.98872 0.24066 0.0
H878 H 0.38479 0.15258 0.27468 0.0
H879 H 0.37566 0.12906 0.31161 0.0
H880 H 0.42807 0.17017 0.24017 0.0
H881 H 0.43252 0.15007 0.20479 0.0
C882 C 0.28433 0.39024 0.74144 0.0
C883 C 0.31407 0.38993 0.7233 0.0
C884 C 0.35201 0.40566 0.77334 0.0
C885 C 0.32205 0.4052 0.79163 0.0
N886 N 0.25617 0.38799 0.79362 0.0
N887 N 0.37132 0.38588 0.72536 0.0
C888 C 0.28714 0.39475 0.77579 0.0
C889 C 0.346 0.39339 0.74046 0.0
N890 N 0.25347 0.38708 0.72558 0.0
N891 N 0.38745 0.4206 0.78651 0.0
H892 H 0.36803 0.37642 0.70176 0.0
H893 H 0.39313 0.3846 0.73743 0.0
H894 H 0.39399 0.43158 0.80971 0.0
H895 H 0.41139 0.426 0.77329 0.0
H896 H 0.2333 0.39226 0.73618 0.0
H897 H 0.24903 0.38076 0.70118 0.0
H898 H 0.22888 0.37648 0.7842 0.0
H899 H 0.25708 0.39069 0.81854 0.0
C900 C 0.87862 0.30477 0.22807 0.0
C901 C 0.91097 0.33451 0.21217 0.0
C902 C 0.93541 0.3635 0.2661 0.0
C903 C 0.90096 0.33635 0.2811 0.0
N904 N 0.8379 0.28271 0.27523 0.0
N905 N 0.96881 0.39543 0.21748 0.0
C906 C 0.87207 0.30757 0.26166 0.0
C907 C 0.93924 0.36445 0.23164 0.0
N908 N 0.85486 0.2726 0.21139 0.0
N909 N 0.96479 0.38897 0.2848 0.0
H910 H 0.97467 0.39781 0.19307 0.0
H911 H 0.98639 0.4205 0.22973 0.0
H912 H 0.96247 0.3914 0.3095 0.0
H913 H 0.99232 0.40593 0.27623 0.0
H914 H 0.83313 0.24823 0.22201 0.0
H915 H 0.85945 0.26862 0.18747 0.0
H916 H 0.81397 0.26445 0.26189 0.0
H917 H 0.83264 0.28191 0.2998 0.0
C918 C 0.58325 0.87305 0.74108 0.0
C919 C 0.58537 0.90407 0.72336 0.0
C920 C 0.58788 0.93516 0.77535 0.0
C921 C 0.57855 0.90117 0.79249 0.0
N922 N 0.56766 0.83717 0.7908 0.0
N923 N 0.58593 0.96409 0.72533 0.0
C924 C 0.57634 0.87 0.77503 0.0
C925 C 0.58733 0.93521 0.74094 0.0
N926 N 0.58924 0.84695 0.72554 0.0
N927 N 0.59725 0.96793 0.79152 0.0
H928 H 0.5871 0.96768 0.70063 0.0
H929 H 0.58046 0.98348 0.73703 0.0
H930 H 0.59581 0.96999 0.81625 0.0
H931 H 0.60977 0.99438 0.78036 0.0
H932 H 0.59216 0.82591 0.73722 0.0
H933 H 0.59541 0.84885 0.70114 0.0
H934 H 0.56019 0.81179 0.77908 0.0
H935 H 0.56623 0.83464 0.81572 0.0
C936 C 0.71277 0.60489 0.26592 0.0
C937 C 0.67951 0.59872 0.28256 0.0
C938 C 0.64886 0.59537 0.23055 0.0
C939 C 0.68209 0.60136 0.21398 0.0
N940 N 0.74865 0.62178 0.21604 0.0
N941 N 0.6197 0.59796 0.28055 0.0
C942 C 0.71502 0.60939 0.23182 0.0
C943 C 0.64905 0.59767 0.26483 0.0
N944 N 0.74183 0.60514 0.28266 0.0
N945 N 0.61595 0.58444 0.21392 0.0
H946 H 0.6177 0.59827 0.30543 0.0
H947 H 0.599 0.60153 0.2689 0.0
H948 H 0.61401 0.58266 0.18901 0.0
H949 H 0.58961 0.57419 0.22492 0.0
H950 H 0.7646 0.60454 0.27183 0.0
H951 H 0.74213 0.60389 0.30764 0.0
H952 H 0.77462 0.63157 0.22761 0.0
H953 H 0.75104 0.62577 0.19122 0.0
C954 C 0.05311 0.62184 0.74759 0.0
C955 C 0.07172 0.65209 0.72543 0.0
C956 C 0.09413 0.69708 0.77062 0.0
C957 C 0.07599 0.66666 0.79277 0.0
N958 N 0.02288 0.60301 0.79954 0.0
N959 N 0.09411 0.71837 0.71619 0.0
C960 C 0.05042 0.62994 0.78046 0.0
C961 C 0.08723 0.68978 0.73701 0.0
N962 N 0.03865 0.58533 0.73765 0.0
N963 N 0.11815 0.73288 0.78149 0.0
H964 H 0.08811 0.71361 0.69172 0.0
H965 H 0.10236 0.74584 0.72374 0.0
H966 H 0.12218 0.73942 0.8059 0.0
H967 H 0.13519 0.75533 0.7662 0.0
H968 H 0.02837 0.56245 0.7535 0.0
H969 H 0.03954 0.57859 0.71376 0.0
H970 H 0.00173 0.577 0.79065 0.0
H971 H 0.01887 0.60791 0.82336 0.0
C972 C 0.96375 0.60854 0.2453 0.0
C973 C 0.93495 0.60727 0.22525 0.0
C974 C 0.90154 0.61023 0.27396 0.0
C975 C 0.92601 0.60359 0.29378 0.0
N976 N 0.97838 0.59099 0.29665 0.0
N977 N 0.87354 0.60304 0.22145 0.0
C978 C 0.95706 0.602 0.27911 0.0
C979 C 0.9033 0.60755 0.23992 0.0
N980 N 0.99694 0.61439 0.23199 0.0
N981 N 0.87674 0.61954 0.28759 0.0
H982 H 0.87346 0.60104 0.19658 0.0
H983 H 0.8478 0.59824 0.23095 0.0
H984 H 0.87519 0.62235 0.31231 0.0
H985 H 0.86079 0.62837 0.27433 0.0
H986 H 0.02044 0.61917 0.24562 0.0
H987 H 0.0023 0.61835 0.20741 0.0
H988 H 0.99808 0.58491 0.28636 0.0
H989 H 0.97402 0.58404 0.3209 0.0
C990 C 0.29403 0.88363 0.77791 0.0
C991 C 0.32168 0.91665 0.7942 0.0
C992 C 0.34885 0.94511 0.74119 0.0
C993 C 0.32598 0.90933 0.72588 0.0
N994 N 0.27597 0.84386 0.73062 0.0
N995 N 0.37655 0.97957 0.79054 0.0
C996 C 0.29823 0.87852 0.74453 0.0
C997 C 0.34892 0.94789 0.77558 0.0
N998 N 0.26308 0.85717 0.7945 0.0
N999 N 0.37077 0.97672 0.72315 0.0
H1000 H 0.37657 0.98471 0.81497 0.0
H1001 H 0.40076 0.00023 0.77888 0.0
H1002 H 0.37327 0.97637 0.69833 0.0
H1003 H 0.38414 0.0041 0.7325 0.0
H1004 H 0.23964 0.83444 0.78372 0.0
H1005 H 0.25915 0.86025 0.8188 0.0
H1006 H 0.25944 0.81915 0.74371 0.0
H1007 H 0.27508 0.83911 0.70599 0.0
C1008 C 0.40632 0.35367 0.26928 0.0
C1009 C 0.40627 0.32255 0.28542 0.0
C1010 C 0.4193 0.30165 0.23381 0.0
C1011 C 0.41962 0.33263 0.21763 0.0
N1012 N 0.40531 0.38334 0.2187 0.0
N1013 N 0.39907 0.26042 0.28039 0.0
C1014 C 0.41007 0.3568 0.23494 0.0
C1015 C 0.40829 0.29447 0.26668 0.0
N1016 N 0.40527 0.38168 0.28653 0.0
N1017 N 0.43071 0.27952 0.21818 0.0
H1018 H 0.38995 0.25402 0.30415 0.0
H1019 H 0.39636 0.23731 0.26741 0.0
H1020 H 0.43763 0.28245 0.19387 0.0
H1021 H 0.43569 0.25975 0.22984 0.0
H1022 H 0.41116 0.40758 0.27667 0.0
H1023 H 0.40067 0.38046 0.31113 0.0
H1024 H 0.3939 0.39872 0.22908 0.0
H1025 H 0.41009 0.38808 0.1941 0.0
C1026 C 0.09749 0.37965 0.73248 0.0
C1027 C 0.06851 0.38203 0.7154 0.0
C1028 C 0.04541 0.3929 0.76741 0.0
C1029 C 0.07863 0.3975 0.78329 0.0
N1030 N 0.13682 0.39527 0.78018 0.0
N1031 N 0.01211 0.3875 0.71738 0.0
C1032 C 0.10456 0.39045 0.76562 0.0
C1033 C 0.04112 0.38668 0.73325 0.0
N1034 N 0.11821 0.36669 0.71668 0.0
N1035 N 0.01816 0.39533 0.78477 0.0
H1036 H 0.00523 0.37917 0.69359 0.0
H1037 H 0.99512 0.39722 0.72742 0.0
H1038 H 0.02133 0.40328 0.80881 0.0
H1039 H 0.99122 0.38738 0.77599 0.0
H1040 H 0.13764 0.36081 0.72785 0.0
H1041 H 0.11283 0.35801 0.69273 0.0
H1042 H 0.15918 0.39542 0.76785 0.0
H1043 H 0.14241 0.40135 0.80451 0.0
C1044 C 0.70362 0.107 0.27436 0.0
C1045 C 0.67014 0.07733 0.289 0.0
C1046 C 0.65182 0.04462 0.23627 0.0
C1047 C 0.6843 0.07565 0.22165 0.0
N1048 N 0.74749 0.12712 0.22946 0.0
N1049 N 0.61608 0.01419 0.28492 0.0
C1050 C 0.7123 0.10358 0.24181 0.0
C1051 C 0.64575 0.04471 0.27035 0.0
N1052 N 0.72649 0.1396 0.29089 0.0
N1053 N 0.62562 0.01599 0.2175 0.0
H1054 H 0.60875 0.01413 0.30888 0.0
H1055 H 0.59992 0.98793 0.27393 0.0
H1056 H 0.6304 0.01249 0.19356 0.0
H1057 H 0.59863 0.99588 0.22531 0.0
H1058 H 0.74826 0.16389 0.28017 0.0
H1059 H 0.72228 0.14361 0.31485 0.0
H1060 H 0.77061 0.14614 0.24326 0.0
H1061 H 0.75429 0.12403 0.20597 0.0
C1062 C 0.60623 0.68591 0.73534 0.0
C1063 C 0.58181 0.65138 0.71918 0.0
C1064 C 0.55664 0.62082 0.772 0.0
C1065 C 0.57794 0.65629 0.78798 0.0
N1066 N 0.63254 0.71908 0.78586 0.0
N1067 N 0.54589 0.58388 0.72317 0.0
C1068 C 0.60574 0.68782 0.76992 0.0
C1069 C 0.56044 0.6182 0.73796 0.0
N1070 N 0.62987 0.71693 0.71748 0.0
N1071 N 0.53331 0.58928 0.78957 0.0
H1072 H 0.55169 0.58205 0.69911 0.0
H1073 H 0.532 0.55785 0.73491 0.0
H1074 H 0.53333 0.5892 0.81463 0.0
H1075 H 0.51322 0.56361 0.77948 0.0
H1076 H 0.64491 0.74439 0.72654 0.0
H1077 H 0.634 0.71483 0.69302 0.0
H1078 H 0.65519 0.74222 0.77477 0.0
H1079 H 0.63434 0.72023 0.81079 0.0
C1080 C 0.40659 0.18325 0.09129 0.0
C1081 C 0.40212 0.16763 0.12259 0.0
C1082 C 0.38743 0.21474 0.14383 0.0
C1083 C 0.40147 0.23538 0.11494 0.0
N1084 N 0.41528 0.23667 0.05878 0.0
N1085 N 0.37702 0.16027 0.17586 0.0
C1086 C 0.40736 0.21833 0.08764 0.0
C1087 C 0.38855 0.18065 0.14801 0.0
N1088 N 0.41044 0.16481 0.06538 0.0
N1089 N 0.37308 0.22804 0.16679 0.0
H1090 H 0.37431 0.13343 0.17772 0.0
H1091 H 0.3696 0.16917 0.19664 0.0
H1092 H 0.37125 0.25249 0.16321 0.0
H1093 H 0.3613 0.21432 0.18837 0.0
H1094 H 0.41123 0.17322 0.04167 0.0
H1095 H 0.41044 0.1393 0.06721 0.0
H1096 H 0.42469 0.22881 0.03855 0.0
H1097 H 0.41265 0.2606 0.05529 0.0
C1098 C 0.18292 0.40197 0.57365 0.0
C1099 C 0.15464 0.38177 0.59711 0.0
C1100 C 0.19644 0.36339 0.62432 0.0
C1101 C 0.2265 0.38853 0.60385 0.0
N1102 N 0.24569 0.42007 0.55286 0.0
N1103 N 0.12895 0.33176 0.63647 0.0
C1104 C 0.21877 0.40399 0.57633 0.0
C1105 C 0.15948 0.35834 0.61957 0.0
N1106 N 0.17551 0.42022 0.54962 0.0
N1107 N 0.20369 0.34608 0.64926 0.0
H1108 H 0.10156 0.32702 0.63295 0.0
H1109 H 0.12983 0.31186 0.65162 0.0
H1110 H 0.22971 0.34725 0.65224 0.0
H1111 H 0.18453 0.33158 0.66766 0.0
H1112 H 0.19582 0.43921 0.53367 0.0
H1113 H 0.14832 0.41628 0.54608 0.0
H1114 H 0.24158 0.43036 0.53124 0.0
H1115 H 0.27133 0.42003 0.55402 0.0
C1116 C 0.81815 0.232 0.0722 0.0
C1117 C 0.84474 0.24498 0.0979 0.0
C1118 C 0.80456 0.18462 0.12641 0.0
C1119 C 0.77517 0.17563 0.10384 0.0
N1120 N 0.75428 0.1876 0.0535 0.0
N1121 N 0.86917 0.22638 0.14377 0.0
C1122 C 0.78235 0.19813 0.0759 0.0
C1123 C 0.84001 0.21905 0.12319 0.0
N1124 N 0.82787 0.25168 0.04391 0.0
N1125 N 0.79752 0.1612 0.15219 0.0
H1126 H 0.89536 0.251 0.14407 0.0
H1127 H 0.86887 0.20651 0.15967 0.0
H1128 H 0.77358 0.13427 0.15347 0.0
H1129 H 0.81439 0.16851 0.17268 0.0
H1130 H 0.81124 0.24268 0.02326 0.0
H1131 H 0.85462 0.27539 0.04018 0.0
H1132 H 0.75524 0.2049 0.03467 0.0
H1133 H 0.72922 0.16143 0.05442 0.0
C1134 C 0.61024 0.78834 0.63763 0.0
C1135 C 0.59598 0.76196 0.61202 0.0
C1136 C 0.58836 0.80765 0.57913 0.0
C1137 C 0.6005 0.83293 0.60552 0.0
N1138 N 0.63862 0.85413 0.65357 0.0
N1139 N 0.58443 0.75149 0.55506 0.0
C1140 C 0.61703 0.82568 0.63257 0.0
C1141 C 0.58968 0.77344 0.58149 0.0
N1142 N 0.61534 0.77722 0.66724 0.0
N1143 N 0.57411 0.81574 0.55248 0.0
H1144 H 0.58505 0.7262 0.55618 0.0
H1145 H 0.58263 0.75989 0.5318 0.0
H1146 H 0.57502 0.84169 0.54966 0.0
H1147 H 0.56034 0.79643 0.53398 0.0
H1148 H 0.62162 0.79405 0.68771 0.0
H1149 H 0.61043 0.74997 0.67157 0.0
H1150 H 0.65382 0.8509 0.67229 0.0
H1151 H 0.64453 0.88193 0.65028 0.0
C1152 C 0.78184 0.58004 0.08219 0.0
C1153 C 0.77326 0.60191 0.1036 0.0
C1154 C 0.83296 0.62159 0.13252 0.0
C1155 C 0.83763 0.59432 0.11482 0.0
N1156 N 0.82695 0.56088 0.06492 0.0
N1157 N 0.79846 0.6556 0.13957 0.0
C1158 C 0.81515 0.57748 0.08715 0.0
C1159 C 0.8013 0.62665 0.1258 0.0
N1160 N 0.75777 0.56169 0.0572 0.0
N1161 N 0.85854 0.64236 0.1559 0.0
H1162 H 0.77747 0.662 0.13356 0.0
H1163 H 0.81906 0.67613 0.15439 0.0
H1164 H 0.88455 0.64343 0.15837 0.0
H1165 H 0.85403 0.65815 0.17316 0.0
H1166 H 0.75894 0.54122 0.04308 0.0
H1167 H 0.7361 0.56714 0.05079 0.0
H1168 H 0.81344 0.54997 0.04309 0.0
H1169 H 0.85271 0.56123 0.06708 0.0
C1170 C 0.20507 0.8126 0.59548 0.0
C1171 C 0.22284 0.8319 0.62409 0.0
C1172 C 0.17899 0.77876 0.65666 0.0
C1173 C 0.16211 0.75764 0.62824 0.0
N1174 N 0.15327 0.757 0.57051 0.0
N1175 N 0.21651 0.84136 0.67982 0.0
C1176 C 0.17268 0.77565 0.59757 0.0
C1177 C 0.20562 0.81771 0.65394 0.0
N1178 N 0.2209 0.82858 0.5666 0.0
N1179 N 0.17219 0.76135 0.6859 0.0
H1180 H 0.23685 0.87009 0.67769 0.0
H1181 H 0.20295 0.83328 0.70204 0.0
H1182 H 0.15482 0.73226 0.68894 0.0
H1183 H 0.18674 0.7753 0.7067 0.0
H1184 H 0.21274 0.81428 0.54476 0.0
H1185 H 0.24343 0.85637 0.56481 0.0
H1186 H 0.15739 0.77004 0.5482 0.0
H1187 H 0.13143 0.72888 0.57037 0.0
C1188 C 0.81276 0.59405 0.43168 0.0
C1189 C 0.83949 0.61216 0.40669 0.0
C1190 C 0.79515 0.62679 0.37905 0.0
C1191 C 0.76598 0.60035 0.39947 0.0
N1192 N 0.74763 0.56808 0.45021 0.0
N1193 N 0.86083 0.65488 0.36153 0.0
C1194 C 0.77513 0.58718 0.42768 0.0
C1195 C 0.83246 0.63225 0.38229 0.0
N1196 N 0.82389 0.58325 0.45879 0.0
N1197 N 0.78692 0.64628 0.35672 0.0
H1198 H 0.88892 0.6617 0.36488 0.0
H1199 H 0.85706 0.66731 0.34108 0.0
H1200 H 0.75997 0.64318 0.35442 0.0
H1201 H 0.80683 0.66728 0.3418 0.0
H1202 H 0.80654 0.57006 0.47849 0.0
H1203 H 0.85202 0.58983 0.46214 0.0
H1204 H 0.75094 0.55486 0.47033 0.0
H1205 H 0.72114 0.56629 0.44893 0.0
C1206 C 0.18224 0.78501 0.93668 0.0
C1207 C 0.16087 0.77605 0.908 0.0
C1208 C 0.20714 0.83722 0.88516 0.0
C1209 C 0.2329 0.84084 0.90986 0.0
N1210 N 0.24307 0.82455 0.96294 0.0
N1211 N 0.14836 0.79508 0.85712 0.0
C1212 C 0.2196 0.81692 0.93715 0.0
C1213 C 0.17142 0.80326 0.8833 0.0
N1214 N 0.16666 0.7622 0.96286 0.0
N1215 N 0.21698 0.86584 0.86348 0.0
H1216 H 0.12127 0.77114 0.85645 0.0
H1217 H 0.15619 0.8111 0.83612 0.0
H1218 H 0.24303 0.89094 0.86406 0.0
H1219 H 0.19835 0.8661 0.84645 0.0
H1220 H 0.17964 0.76738 0.98527 0.0
H1221 H 0.13905 0.73902 0.96227 0.0
H1222 H 0.23705 0.80636 0.9824 0.0
H1223 H 0.26894 0.84983 0.96469 0.0
C1224 C 0.34834 0.15825 0.3847 0.0
C1225 C 0.36385 0.15005 0.41184 0.0
C1226 C 0.38104 0.21149 0.43538 0.0
C1227 C 0.37489 0.22293 0.40492 0.0
N1228 N 0.34397 0.20658 0.35345 0.0
N1229 N 0.38422 0.16231 0.46653 0.0
C1230 C 0.35482 0.19574 0.38068 0.0
C1231 C 0.37579 0.1744 0.43876 0.0
N1232 N 0.32951 0.13057 0.36231 0.0
N1233 N 0.39272 0.23654 0.46037 0.0
H1234 H 0.3793 0.13463 0.46878 0.0
H1235 H 0.3956 0.17894 0.48693 0.0
H1236 H 0.39553 0.26338 0.45802 0.0
H1237 H 0.39767 0.23043 0.48352 0.0
H1238 H 0.31689 0.13379 0.34173 0.0
H1239 H 0.3248 0.10311 0.36561 0.0
H1240 H 0.3316 0.18926 0.33358 0.0
H1241 H 0.34724 0.23357 0.35095 0.0
C1242 C 0.22731 0.41353 0.93127 0.0
C1243 C 0.23729 0.39504 0.90756 0.0
C1244 C 0.17896 0.37773 0.87787 0.0
C1245 C 0.17285 0.40197 0.89829 0.0
N1246 N 0.18138 0.43084 0.95022 0.0
N1247 N 0.21348 0.34431 0.86855 0.0
C1248 C 0.19387 0.4159 0.92707 0.0
C1249 C 0.21013 0.37202 0.88411 0.0
N1250 N 0.25048 0.42929 0.95728 0.0
N1251 N 0.15567 0.36121 0.85208 0.0
H1252 H 0.23381 0.33698 0.87465 0.0
H1253 H 0.19336 0.32528 0.8525 0.0
H1254 H 0.13071 0.36213 0.84871 0.0
H1255 H 0.16156 0.34768 0.83362 0.0
H1256 H 0.24775 0.44683 0.9739 0.0
H1257 H 0.27293 0.42445 0.96209 0.0
H1258 H 0.19413 0.44011 0.97256 0.0
H1259 H 0.15599 0.43117 0.94786 0.0
C1260 C 0.77874 0.17116 0.37131 0.0
C1261 C 0.75404 0.16436 0.39744 0.0
C1262 C 0.80258 0.22181 0.42323 0.0
C1263 C 0.82066 0.23403 0.393 0.0
N1264 N 0.8299 0.21892 0.33904 0.0
N1265 N 0.7437 0.17991 0.45076 0.0
C1266 C 0.81037 0.20802 0.36733 0.0
C1267 C 0.76662 0.18839 0.42452 0.0
N1268 N 0.77197 0.14238 0.35078 0.0
N1269 N 0.82001 0.2416 0.45039 0.0
H1270 H 0.71819 0.15426 0.45279 0.0
H1271 H 0.74947 0.19872 0.46972 0.0
H1272 H 0.84735 0.26512 0.44999 0.0
H1273 H 0.80908 0.23247 0.47336 0.0
H1274 H 0.79067 0.14492 0.33258 0.0
H1275 H 0.74897 0.11504 0.35396 0.0
H1276 H 0.8209 0.2024 0.3183 0.0
H1277 H 0.8544 0.24529 0.33618 0.0
C1278 C 0.60304 0.78114 0.92981 0.0
C1279 C 0.60645 0.76888 0.89871 0.0
C1280 C 0.61594 0.8284 0.87613 0.0
C1281 C 0.60261 0.83535 0.90525 0.0
N1282 N 0.58644 0.82125 0.96093 0.0
N1283 N 0.61784 0.78127 0.84211 0.0
C1284 C 0.59783 0.81302 0.9327 0.0
C1285 C 0.61431 0.7931 0.87189 0.0
N1286 N 0.60408 0.76192 0.95628 0.0
N1287 N 0.62924 0.85521 0.85244 0.0
H1288 H 0.61775 0.75591 0.83869 0.0
H1289 H 0.61885 0.79542 0.82095 0.0
H1290 H 0.63072 0.88138 0.85522 0.0
H1291 H 0.64199 0.85299 0.8315 0.0
H1292 H 0.60475 0.77114 0.97972 0.0
H1293 H 0.60719 0.7381 0.95453 0.0
H1294 H 0.5778 0.8034 0.98086 0.0
H1295 H 0.5844 0.84566 0.96379 0.0
C1296 C 0.38847 0.00652 0.99089 0.0
C1297 C 0.35285 0.99663 0.97705 0.0
C1298 C 0.33552 0.01651 0.02716 0.0
C1299 C 0.3691 0.02094 0.04196 0.0
N1300 N 0.42132 0.00855 0.0396 0.0
N1301 N 0.29029 0.98846 0.98313 0.0
C1302 C 0.39364 0.01239 0.02429 0.0
C1303 C 0.32565 0.00068 0.99543 0.0
N1304 N 0.4178 0.01088 0.97192 0.0
N1305 N 0.31385 0.02841 0.04279 0.0
H1306 H 0.28281 0.97773 0.95987 0.0
H1307 H 0.26799 0.987 0.99657 0.0
H1308 H 0.32016 0.03968 0.06593 0.0
H1309 H 0.29125 0.02943 0.03198 0.0
H1310 H 0.44526 0.02094 0.98061 0.0
H1311 H 0.41568 0.0089 0.94696 0.0
H1312 H 0.43779 -0.00088 0.02799 0.0
H1313 H 0.42459 0.01024 0.0645 0.0
C1314 C 0.32378 0.31738 0.48441 0.0
C1315 C 0.35656 0.34694 0.46915 0.0
C1316 C 0.37694 0.38073 0.52019 0.0
C1317 C 0.34222 0.35398 0.53486 0.0
N1318 N 0.28009 0.29881 0.52967 0.0
N1319 N 0.40853 0.41135 0.47089 0.0
C1320 C 0.31482 0.32268 0.51665 0.0
C1321 C 0.38118 0.38007 0.48659 0.0
N1322 N 0.30206 0.28394 0.46866 0.0
N1323 N 0.40665 0.40615 0.53861 0.0
H1324 H 0.41164 0.41237 0.44596 0.0
H1325 H 0.42507 0.43744 0.48216 0.0
H1326 H 0.4056 0.40587 0.56361 0.0
H1327 H 0.43363 0.42417 0.52935 0.0
H1328 H 0.28025 0.25994 0.47967 0.0
H1329 H 0.30749 0.27958 0.44503 0.0
H1330 H 0.25758 0.27785 0.51652 0.0
H1331 H 0.27317 0.30163 0.55324 0.0
C1332 C 0.05139 0.36211 0.99616 0.0
C1333 C 0.02626 0.35447 0.96978 0.0
C1334 C 0.97271 0.32024 0.00685 0.0
C1335 C 0.99747 0.33635 0.03354 0.0
N1336 N 0.06159 0.37336 0.05343 0.0
N1337 N 0.9615 0.32696 0.9508 0.0
C1338 C 0.03726 0.35686 0.02826 0.0
C1339 C 0.98644 0.33293 0.97514 0.0
N1340 N 0.08872 0.37385 0.99043 0.0
N1341 N 0.93574 0.29317 0.01208 0.0
H1342 H 0.96984 0.33629 0.92737 0.0
H1343 H 0.93242 0.31535 0.95445 0.0
H1344 H 0.92534 0.28315 0.0351 0.0
H1345 H 0.91687 0.27799 0.99363 0.0
H1346 H 0.1079 0.37708 0.00847 0.0
H1347 H 0.09924 0.37594 0.96722 0.0
H1348 H 0.09041 0.39269 0.05046 0.0
H1349 H 0.05268 0.36934 0.07726 0.0
C1350 C 0.67099 0.01058 0.49085 0.0
C1351 C 0.64203 0.01563 0.47631 0.0
C1352 C 0.60787 -0.00053 0.52759 0.0
C1353 C 0.63355 0.98918 0.54099 0.0
N1354 N 0.68795 0.98122 0.53403 0.0
N1355 N 0.57763 0.00385 0.47927 0.0
C1356 C 0.66486 0.99383 0.5223 0.0
C1357 C 0.60898 0.00689 0.49428 0.0
N1358 N 0.70466 0.02284 0.47527 0.0
N1359 N 0.58258 0.00286 0.54693 0.0
H1360 H 0.57604 0.00635 0.45446 0.0
H1361 H 0.55168 0.99417 0.49089 0.0
H1362 H 0.58218 -0.00049 0.57178 0.0
H1363 H 0.56535 0.01339 0.53882 0.0
H1364 H 0.72816 0.02344 0.48591 0.0
H1365 H 0.70998 0.03508 0.45248 0.0
H1366 H 0.70873 0.98001 0.52031 0.0
H1367 H 0.68463 0.96981 0.55704 0.0
C1368 C 0.66604 0.68052 0.0231 0.0
C1369 C 0.67936 0.6545 0.0283 0.0
C1370 C 0.67699 0.64333 0.96988 0.0
C1371 C 0.66255 0.66821 0.9651 0.0
N1372 N 0.65935 0.72181 0.98477 0.0
N1373 N 0.71175 0.624 1.00524 0.0
C1374 C 0.66261 0.69066 0.99104 0.0
C1375 C 0.68961 0.64021 1.00113 0.0
N1376 N 0.65388 0.69353 0.04802 0.0
N1377 N 0.67677 0.62115 0.94522 0.0
H1378 H 0.72304 0.62316 0.02756 0.0
H1379 H 0.72239 0.61558 0.98615 0.0
H1380 H 0.66862 0.62339 0.92194 0.0
H1381 H 0.68265 0.59919 0.94838 0.0
H1382 H 0.63978 0.70875 0.04459 0.0
H1383 H 0.65496 0.68701 0.07197 0.0
H1384 H 0.66196 0.74117 1.00237 0.0
H1385 H 0.6589 0.73045 0.96124 0.0
C1386 C 0.02125 0.62993 0.51454 0.0
C1387 C 0.01831 0.65274 0.53901 0.0
C1388 C 0.98401 0.67066 0.50029 0.0
C1389 C 0.99216 0.65185 0.47555 0.0
N1390 N 0.03071 0.62577 0.45799 0.0
N1391 N 0.00269 0.70129 0.55245 0.0
C1392 C 0.01522 0.63598 0.48233 0.0
C1393 C 0.00129 0.67509 0.53124 0.0
N1394 N 0.02677 0.60029 0.52197 0.0
N1395 N 0.95957 0.68377 0.4944 0.0
H1396 H 0.01627 0.70648 0.57462 0.0
H1397 H 0.99347 0.7203 0.54669 0.0
H1398 H 0.94802 0.68216 0.47165 0.0
H1399 H 0.94943 0.6942 0.51237 0.0
H1400 H 0.02662 0.58177 0.50458 0.0
H1401 H 0.02574 0.59082 0.54543 0.0
H1402 H 0.04993 0.6163 0.46216 0.0
H1403 H 0.02779 0.63117 0.43397 0.0
C1404 C 0.62203 0.00998 0.98344 0.0
C1405 C 0.6439 0.99616 0.96838 0.0
C1406 C 0.68623 0.01662 0.01565 0.0
C1407 C 0.66044 0.02464 0.03228 0.0
N1408 N 0.5975 0.01721 0.03378 0.0
N1409 N 0.69538 0.98297 0.97129 0.0
C1410 C 0.62661 0.01809 0.01663 0.0
C1411 C 0.67587 -0.00126 0.98469 0.0
N1412 N 0.5965 0.01515 0.96595 0.0
N1413 N 0.72081 0.02692 0.02882 0.0
H1414 H 0.689 0.97063 0.94853 0.0
H1415 H 0.71629 0.98024 0.98349 0.0
H1416 H 0.72917 0.04003 0.0512 0.0
H1417 H 0.74215 0.02513 0.01649 0.0
H1418 H 0.58197 0.02805 0.97534 0.0
H1419 H 0.59326 0.01056 0.9412 0.0
H1420 H 0.57107 0.00932 0.02373 0.0
H1421 H 0.59787 0.01936 0.05873 0.0
C1422 C 0.6753 0.66509 0.48393 0.0
C1423 C 0.647 0.63346 0.46656 0.0
C1424 C 0.60637 0.61315 0.51401 0.0
C1425 C 0.63215 0.64686 0.53051 0.0
N1426 N 0.68957 0.70768 0.52953 0.0
N1427 N 0.58132 0.58434 0.46263 0.0
C1428 C 0.66635 0.67371 0.51506 0.0
C1429 C 0.61122 0.60976 0.48088 0.0
N1430 N 0.71083 0.68606 0.47126 0.0
N1431 N 0.5779 0.58337 0.53029 0.0
H1432 H 0.58318 0.58225 0.43781 0.0
H1433 H 0.55371 0.56876 0.47149 0.0
H1434 H 0.57499 0.58342 0.5551 0.0
H1435 H 0.56043 0.55698 0.51979 0.0
H1436 H 0.73375 0.70697 0.48408 0.0
H1437 H 0.71785 0.68076 0.4485 0.0
H1438 H 0.71287 0.72991 0.51814 0.0
H1439 H 0.68396 0.71442 0.55228 0.0
C1440 C 0.97997 0.66693 0.01677 0.0
C1441 C 0.99357 0.65427 0.04256 0.0
C1442 C 0.03107 0.64072 1.00535 0.0
C1443 C 0.02156 0.65747 0.97949 0.0
N1444 N 0.99403 0.69625 0.96415 0.0
N1445 N 0.0427 0.64297 0.06234 0.0
C1446 C 0.998 0.67351 0.98607 0.0
C1447 C 0.02324 0.64657 0.03714 0.0
N1448 N 0.94982 0.67236 0.02148 0.0
N1449 N 0.0444 0.61634 0.99979 0.0
H1450 H 0.03768 0.6475 0.08605 0.0
H1451 H 0.06632 0.63962 0.05918 0.0
H1452 H 0.04327 0.60462 0.97728 0.0
H1453 H 0.05106 0.6033 0.0182 0.0
H1454 H 0.9361 0.6777 1.00274 0.0
H1455 H 0.9375 0.66946 0.04407 0.0
H1456 H 0.97943 0.71064 0.96917 0.0
H1457 H 0.00881 0.70439 0.94255 0.0
C1458 C 0.30998 0.98519 0.52833 0.0
C1459 C 0.33964 0.98233 0.5438 0.0
C1460 C 0.37477 0.99738 0.49346 0.0
C1461 C 0.34777 0.00476 0.47866 0.0
N1462 N 0.29183 0.01062 0.48301 0.0
N1463 N 0.40498 0.99709 0.54314 0.0
C1464 C 0.3158 1e-05 0.49633 0.0
C1465 C 0.37355 0.99217 0.52694 0.0
N1466 N 0.27613 0.97272 0.54365 0.0
N1467 N 0.40133 0.99468 0.4753 0.0
H1468 H 0.40562 0.99527 0.5681 0.0
H1469 H 0.43139 0.00725 0.53223 0.0
H1470 H 0.40188 0.99658 0.4503 0.0
H1471 H 0.41971 0.98619 0.48469 0.0
H1472 H 0.25217 0.97045 0.5324 0.0
H1473 H 0.27154 0.96265 0.56721 0.0
H1474 H 0.27034 0.01157 0.49588 0.0
H1475 H 0.29498 0.02059 0.45947 0.0
C1476 C 0.35988 0.3175 0.00981 0.0
C1477 C 0.3535 0.33573 0.03616 0.0
C1478 C 0.32021 0.35664 0.99966 0.0
C1479 C 0.33548 0.34719 0.97278 0.0
N1480 N 0.37142 0.3187 0.95278 0.0
N1481 N 0.32702 0.37317 0.05618 0.0
C1482 C 0.35502 0.32683 0.97785 0.0
C1483 C 0.33273 0.35477 0.03128 0.0
N1484 N 0.37057 0.29113 0.01554 0.0
N1485 N 0.29374 0.36746 0.99479 0.0
H1486 H 0.33531 0.37212 0.07966 0.0
H1487 H 0.31614 0.39135 0.05312 0.0
H1488 H 0.28326 0.36777 0.97195 0.0
H1489 H 0.27934 0.37195 0.01342 0.0
H1490 H 0.3728 0.27454 0.99757 0.0
H1491 H 0.3727 0.2829 0.03883 0.0
H1492 H 0.39002 0.30832 0.95593 0.0
H1493 H 0.36866 0.32455 0.92893 0.0
C1494 C 0.00082 0.3809 0.51116 0.0
C1495 C 0.00413 0.35171 0.52699 0.0
C1496 C 0.97718 0.31186 0.47864 0.0
C1497 C 0.97838 0.34311 0.46219 0.0
N1498 N 0.00299 0.41058 0.46046 0.0
N1499 N 0.00057 0.29083 0.52357 0.0
C1500 C 0.99428 0.37867 0.47773 0.0
C1501 C 0.99374 0.31743 0.51013 0.0
N1502 N 0.00164 0.40991 0.52834 0.0
N1503 N 0.95922 0.27682 0.46478 0.0
H1504 H 0.0125 0.29406 0.54634 0.0
H1505 H 0.99698 0.26702 0.51119 0.0
H1506 H 0.94785 0.27229 0.44166 0.0
H1507 H 0.95378 0.2522 0.47689 0.0
H1508 H 0.9964 0.43022 0.51805 0.0
H1509 H 0.00245 0.41079 0.55336 0.0
H1510 H 0.01748 0.43775 0.47031 0.0
H1511 H -0.00035 0.4101 0.43557 0.0
C1512 C 0.53461 0.08818 0.10447 0.0
C1513 C 0.50732 0.06863 0.12889 0.0
C1514 C 0.54868 0.0477 0.1532 0.0
C1515 C 0.57525 0.0663 0.12834 0.0
N1516 N 0.58894 0.09464 0.07552 0.0
N1517 N 0.48469 0.02331 0.17273 0.0
C1518 C 0.56701 0.0839 0.10263 0.0
C1519 C 0.5129 0.04575 0.15169 0.0
N1520 N 0.5295 0.11029 0.08254 0.0
N1521 N 0.55851 0.03385 0.17914 0.0
H1522 H 0.45968 0.02423 0.17533 0.0
H1523 H 0.48555 0.00264 0.1869 0.0
H1524 H 0.58483 0.03547 0.18103 0.0
H1525 H 0.54216 0.02396 0.19991 0.0
H1526 H 0.55133 0.12997 0.06799 0.0
H1527 H 0.50413 0.11039 0.07954 0.0
H1528 H 0.58173 0.10345 0.0545 0.0
H1529 H 0.61282 0.09174 0.07289 0.0
C1530 C 0.46516 0.54698 0.59481 0.0
C1531 C 0.49596 0.55544 0.61582 0.0
C1532 C 0.45778 0.49399 0.64273 0.0
C1533 C 0.42747 0.48549 0.62155 0.0
N1534 N 0.40746 0.49787 0.5705 0.0
N1535 N 0.52497 0.53027 0.65249 0.0
C1536 C 0.43253 0.51022 0.59557 0.0
C1537 C 0.49364 0.52661 0.63701 0.0
N1538 N 0.46715 0.57347 0.57349 0.0
N1539 N 0.45189 0.47213 0.66945 0.0
H1540 H 0.55177 0.55418 0.65154 0.0
H1541 H 0.52484 0.50792 0.66485 0.0
H1542 H 0.42571 0.44843 0.67488 0.0
H1543 H 0.47179 0.47976 0.68785 0.0
H1544 H 0.44341 0.57078 0.56147 0.0
H1545 H 0.49205 0.59872 0.56855 0.0
H1546 H 0.41193 0.5132 0.54933 0.0
H1547 H 0.38379 0.47079 0.56949 0.0
C1548 C 0.9322 0.45318 0.11254 0.0
C1549 C 0.9606 0.44841 0.10022 0.0
C1550 C 0.98527 0.51557 0.08368 0.0
C1551 C 0.95971 0.51698 0.10722 0.0
N1552 N 0.97045 0.49607 0.15389 0.0
N1553 N 0.01653 0.47968 0.06598 0.0
C1554 C 0.94647 0.48802 0.1284 0.0
C1555 C 0.9887 0.4812 0.08281 0.0
N1556 N 0.90003 0.43904 0.09459 0.0
N1557 N 0.00374 0.54431 0.06239 0.0
H1558 H 0.01744 0.4546 0.06396 0.0
H1559 H 0.03863 0.50339 0.05489 0.0
H1560 H -0.00075 0.56737 0.06196 0.0
H1561 H 0.02051 0.54322 0.044 0.0
H1562 H 0.88499 0.4534 0.09231 0.0
H1563 H 0.89202 0.41591 0.07927 0.0
H1564 H 0.97953 0.47746 0.16156 0.0
H1565 H 0.98508 0.52327 0.1639 0.0
C1566 C 0.43984 0.91598 0.60037 0.0
C1567 C 0.42702 0.92691 0.62775 0.0
C1568 C 0.48297 0.93791 0.65797 0.0
C1569 C 0.49716 0.92995 0.62994 0.0
N1570 N 0.49369 0.92013 0.57248 0.0
N1571 N 0.43942 0.95574 0.68041 0.0
C1572 C 0.47697 0.92151 0.60051 0.0
C1573 C 0.44982 0.94077 0.65574 0.0
N1574 N 0.41688 0.90064 0.57412 0.0
N1575 N 0.49991 0.9406 0.68694 0.0
H1576 H 0.41389 0.95587 0.68062 0.0
H1577 H 0.45711 0.96984 0.6998 0.0
H1578 H 0.52299 0.93632 0.68933 0.0
H1579 H 0.48857 0.9427 0.70876 0.0
H1580 H 0.42304 0.88744 0.55554 0.0
H1581 H 0.39046 0.89871 0.57169 0.0
H1582 H 0.48194 0.91857 0.5499 0.0
H1583 H 0.52073 0.92345 0.5715 0.0
C1584 C 0.53482 0.51226 0.09577 0.0
C1585 C 0.56804 0.51533 0.11104 0.0
C1586 C 0.53527 0.45001 0.11626 0.0
C1587 C 0.49939 0.44498 0.11432 0.0
N1588 N 0.46546 0.47646 0.09301 0.0
N1589 N 0.55959 0.49107 0.16196 0.0
C1590 C 0.49855 0.47771 0.10118 0.0
C1591 C 0.56126 0.48506 0.13002 0.0
N1592 N 0.53772 0.53954 0.07507 0.0
N1593 N 0.54561 0.43786 0.08969 0.0
H1594 H 0.57618 0.51789 0.17215 0.0
H1595 H 0.53743 0.47157 0.17628 0.0
H1596 H 0.52586 0.41462 0.07627 0.0
H1597 H 0.57112 0.45524 0.07792 0.0
H1598 H 0.51484 0.53678 0.06161 0.0
H1599 H 0.56369 0.56281 0.06868 0.0
H1600 H 0.46439 0.50076 0.08694 0.0
H1601 H 0.43902 0.45205 0.09313 0.0
C1602 C 0.03844 0.49099 0.64739 0.0
C1603 C 0.05384 0.48066 0.6216 0.0
C1604 C 0.07769 0.54303 0.59701 0.0
C1605 C 0.06055 0.55272 0.62208 0.0
N1606 N 0.01454 0.53129 0.66542 0.0
N1607 N 0.07753 0.49215 0.56716 0.0
C1608 C 0.03754 0.52519 0.64539 0.0
C1609 C 0.07039 0.50527 0.59498 0.0
N1610 N 0.02591 0.46886 0.67427 0.0
N1611 N 0.10027 0.56939 0.57473 0.0
H1612 H 0.07249 0.46458 0.56459 0.0
H1613 H 0.08557 0.50762 0.54584 0.0
H1614 H 0.10383 0.59653 0.57331 0.0
H1615 H 0.11736 0.56494 0.55873 0.0
H1616 H 0.01842 0.47732 0.69534 0.0
H1617 H 0.02649 0.44366 0.67643 0.0
H1618 H 0.99448 0.51031 0.68038 0.0
H1619 H 0.01322 0.55618 0.66547 0.0
C1620 C 0.97539 0.50835 0.40229 0.0
C1621 C 0.94407 0.51323 0.39292 0.0
C1622 C 0.90819 0.4488 0.38643 0.0
C1623 C 0.93787 0.44188 0.38335 0.0
N1624 N 0.00771 0.4733 0.3895 0.0
N1625 N 0.92186 0.49163 0.34245 0.0
C1626 C 0.9746 0.47398 0.39198 0.0
C1627 C 0.91712 0.48452 0.37457 0.0
N1628 N 0.00366 0.5339 0.42155 0.0
N1629 N 0.88801 0.43608 0.41423 0.0
H1630 H 0.9315 0.51884 0.33328 0.0
H1631 H 0.92326 0.47272 0.32651 0.0
H1632 H 0.88595 0.41293 0.42687 0.0
H1633 H 0.8795 0.45249 0.42707 0.0
H1634 H 0.02514 0.52946 0.43039 0.0
H1635 H 0.00272 0.55667 0.43184 0.0
H1636 H 0.03397 0.49717 0.39428 0.0
H1637 H 0.01006 0.45157 0.37874 0.0
C1638 C 0.47853 0.92751 0.91594 0.0
C1639 C 0.49908 0.93541 0.88673 0.0
C1640 C 0.4562 0.95283 0.86048 0.0
C1641 C 0.43454 0.94282 0.88907 0.0
N1642 N 0.42319 0.92023 0.94387 0.0
N1643 N 0.51266 0.96177 0.83322 0.0
C1644 C 0.44524 0.93017 0.91681 0.0
C1645 C 0.48955 0.95013 0.85961 0.0
N1646 N 0.4925 0.92048 0.94348 0.0
N1647 N 0.44332 0.96234 0.83365 0.0
H1648 H 0.53564 0.95735 0.83077 0.0
H1649 H 0.51013 0.97697 0.81421 0.0
H1650 H 0.41892 0.96462 0.83368 0.0
H1651 H 0.45503 0.96554 0.81087 0.0
H1652 H 0.48148 0.91914 0.96628 0.0
H1653 H 0.51722 0.91885 0.94438 0.0
H1654 H 0.42571 0.90505 0.96292 0.0
H1655 H 0.40066 0.92528 0.94681 0.0
C1656 C 0.50889 0.44655 0.35112 0.0
C1657 C 0.50027 0.42349 0.37874 0.0
C1658 C 0.55783 0.47198 0.40521 0.0
C1659 C 0.56511 0.49599 0.37812 0.0
N1660 N 0.54303 0.50987 0.32888 0.0
N1661 N 0.51258 0.41565 0.43412 0.0
C1662 C 0.53906 0.48454 0.35226 0.0
C1663 C 0.52385 0.43636 0.4063 0.0
N1664 N 0.48889 0.43153 0.32346 0.0
N1665 N 0.58282 0.48367 0.43036 0.0
H1666 H 0.48822 0.38906 0.43582 0.0
H1667 H 0.52592 0.42555 0.45619 0.0
H1668 H 0.60579 0.51108 0.43243 0.0
H1669 H 0.58191 0.46573 0.4486 0.0
H1670 H 0.46825 0.40298 0.32173 0.0
H1671 H 0.49555 0.4459 0.30161 0.0
H1672 H 0.52263 0.50403 0.31125 0.0
H1673 H 0.56562 0.53767 0.32829 0.0
C1674 C 0.09047 0.52484 0.91163 0.0
C1675 C 0.07148 0.50086 0.88495 0.0
C1676 C 0.0663 0.55174 0.85923 0.0
C1677 C 0.08261 0.57485 0.88649 0.0
N1678 N 0.10624 0.58268 0.94064 0.0
N1679 N 0.03252 0.48814 0.8377 0.0
C1680 C 0.09396 0.56136 0.91323 0.0
C1681 C 0.05622 0.51312 0.86028 0.0
N1682 N 0.10416 0.51227 0.93582 0.0
N1683 N 0.0624 0.56756 0.83171 0.0
H1684 H 0.0254 0.45973 0.83716 0.0
H1685 H 0.01789 0.49505 0.82093 0.0
H1686 H 0.05247 0.55286 0.81017 0.0
H1687 H 0.07411 0.5968 0.82978 0.0
H1688 H 0.12213 0.52967 0.95387 0.0
H1689 H 0.09883 0.48448 0.93727 0.0
H1690 H 0.11074 0.57287 0.96235 0.0
H1691 H 0.1102 0.61 0.94222 0.0
C1692 C 0.54532 0.08032 0.41409 0.0
C1693 C 0.55183 0.06277 0.38719 0.0
C1694 C 0.49486 0.05548 0.36105 0.0
C1695 C 0.48725 0.07126 0.38835 0.0
N1696 N 0.50082 0.09225 0.44341 0.0
N1697 N 0.52795 0.02491 0.33918 0.0
C1698 C 0.51144 0.08227 0.41554 0.0
C1699 C 0.52484 0.04725 0.36209 0.0
N1700 N 0.57099 0.09417 0.4387 0.0
N1701 N 0.47411 0.04971 0.3337 0.0
H1702 H 0.55044 0.01947 0.33847 0.0
H1703 H 0.50697 0.00982 0.32214 0.0
H1704 H 0.47982 0.04077 0.31205 0.0
H1705 H 0.45383 0.05814 0.33191 0.0
H1706 H 0.57053 0.11158 0.45678 0.0
H1707 H 0.59403 0.08972 0.44044 0.0
H1708 H 0.51469 0.09604 0.46528 0.0
H1709 H 0.47646 0.09449 0.4454 0.0
C1710 C 0.47457 0.55661 0.89408 0.0
C1711 C 0.51004 0.56062 0.89443 0.0
C1712 C 0.47457 0.49285 0.9105 0.0
C1713 C 0.44154 0.49101 0.89612 0.0
N1714 N 0.4471 0.51913 0.84691 0.0
N1715 N 0.54378 0.52796 0.91338 0.0
C1716 C 0.44777 0.52269 0.87941 0.0
C1717 C 0.51079 0.52729 0.90585 0.0
N1718 N 0.46547 0.56719 0.92219 0.0
N1719 N 0.47142 0.4644 0.92989 0.0
H1720 H 0.57013 0.55242 0.91477 0.0
H1721 H 0.54475 0.50327 0.91792 0.0
H1722 H 0.44527 0.44126 0.93615 0.0
H1723 H 0.49426 0.46609 0.94267 0.0
H1724 H 0.44048 0.54911 0.93435 0.0
H1725 H 0.48598 0.58942 0.93606 0.0
H1726 H 0.46852 0.53961 0.83264 0.0
H1727 H 0.42967 0.4932 0.83557 0.0
loop_
_geom_bond_atom_site_label_1
_geom_bond_atom_site_label_2
_geom_bond_distance
_geom_bond_site_symmetry_2
_ccdc_geom_bond_type
Mn0 O5 2.095 . S
Mn0 O15 2.162 . S
Mn0 O16 2.297 . S
Mn0 O24 2.385 . S
Mn0 O25 2.209 . S
Mn0 O26 2.094 . S
Mn1 O6 2.121 . S
Mn1 N8 2.257 . S
Mn1 N17 2.282 . S
Mn1 O25 2.215 . S
Mn1 O27 2.117 . S
C2 O24 1.234 . S
C2 O25 1.283 . S
C3 O15 1.281 . S
C3 O16 1.236 . S
C4 O26 1.240 . S
C4 O27 1.264 . S
O5 Mn0 2.095 . S
O5 C14 1.250 . S
O6 Mn1 2.121 . S
O6 C14 1.258 . S
C7 N8 1.326 . S
C7 C11 1.460 . S
C7 H13 0.929 . S
N8 Mn1 2.257 . S
N8 C7 1.326 . S
N8 C12 1.362 . S
C9 C10 1.258 . S
C9 C12 1.431 . S
C9 C29 1.449 . S
C10 C9 1.258 . S
C10 C11 1.477 . S
C10 H30 0.931 . S
C11 C7 1.460 . S
C11 C10 1.477 . S
C11 H31 0.930 . S
C12 N8 1.362 . S
C12 C9 1.431 . S
C12 C22 1.476 . S
H13 C7 0.929 . S
C14 O5 1.250 . S
C14 O6 1.258 . S
O15 Mn0 2.162 . S
O15 C3 1.281 . S
O16 Mn0 2.297 . S
O16 C3 1.236 . S
N17 Mn1 2.282 . S
N17 C18 1.328 . S
N17 C22 1.318 . S
C18 N17 1.328 . S
C18 C19 1.457 . S
C18 H23 0.929 . S
C19 C18 1.457 . S
C19 C20 1.291 . S
C19 H32 0.931 . S
C20 C19 1.291 . S
C20 C21 1.373 . S
C20 H33 0.929 . S
C21 C20 1.373 . S
C21 C22 1.396 . S
C21 C28 1.403 . S
C22 C12 1.476 . S
C22 N17 1.318 . S
C22 C21 1.396 . S
H23 C18 0.929 . S
O24 Mn0 2.385 . S
O24 C2 1.234 . S
O25 Mn0 2.209 . S
O25 Mn1 2.215 . S
O25 C2 1.283 . S
O26 Mn0 2.094 . S
O26 C4 1.240 . S
O27 Mn1 2.117 . S
O27 C4 1.264 . S
C28 C21 1.403 . S
C28 C29 1.399 . S
C28 H34 0.929 . S
C29 C9 1.449 . S
C29 C28 1.399 . S
C29 H35 0.930 . S
H30 C10 0.931 . S
H31 C11 0.930 . S
H32 C19 0.931 . S
H33 C20 0.929 . S
H34 C28 0.929 . S
H35 C29 0.930 . S
Mn36 O41 2.095 . S
Mn36 O51 2.162 . S
Mn36 O52 2.297 . S
Mn36 O60 2.385 . S
Mn36 O61 2.209 . S
Mn36 O62 2.094 . S
Mn37 O42 2.121 . S
Mn37 N44 2.257 . S
Mn37 N53 2.282 . S
Mn37 O61 2.215 . S
Mn37 O63 2.117 . S
C38 O60 1.234 . S
C38 O61 1.283 . S
C39 O51 1.281 . S
C39 O52 1.236 . S
C40 O62 1.240 . S
C40 O63 1.264 . S
O41 Mn36 2.095 . S
O41 C50 1.250 . S
O42 Mn37 2.121 . S
O42 C50 1.258 . S
C43 N44 1.326 . S
C43 C47 1.460 . S
C43 H49 0.929 . S
N44 Mn37 2.257 . S
N44 C43 1.326 . S
N44 C48 1.362 . S
C45 C46 1.258 . S
C45 C48 1.431 . S
C45 C65 1.449 . S
C46 C45 1.258 . S
C46 C47 1.477 . S
C46 H66 0.931 . S
C47 C43 1.460 . S
C47 C46 1.477 . S
C47 H67 0.930 . S
C48 N44 1.362 . S
C48 C45 1.431 . S
C48 C58 1.476 . S
H49 C43 0.929 . S
C50 O41 1.250 . S
C50 O42 1.258 . S
O51 Mn36 2.162 . S
O51 C39 1.281 . S
O52 Mn36 2.297 . S
O52 C39 1.236 . S
N53 Mn37 2.282 . S
N53 C54 1.328 . S
N53 C58 1.318 . S
C54 N53 1.328 . S
C54 C55 1.457 . S
C54 H59 0.929 . S
C55 C54 1.457 . S
C55 C56 1.291 . S
C55 H68 0.931 . S
C56 C55 1.291 . S
C56 C57 1.373 . S
C56 H69 0.929 . S
C57 C56 1.373 . S
C57 C58 1.396 . S
C57 C64 1.403 . S
C58 C48 1.476 . S
C58 N53 1.318 . S
C58 C57 1.396 . S
H59 C54 0.929 . S
O60 Mn36 2.385 . S
O60 C38 1.234 . S
O61 Mn36 2.209 . S
O61 Mn37 2.215 . S
O61 C38 1.283 . S
O62 Mn36 2.094 . S
O62 C40 1.240 . S
O63 Mn37 2.117 . S
O63 C40 1.264 . S
C64 C57 1.403 . S
C64 C65 1.399 . S
C64 H70 0.929 . S
C65 C45 1.449 . S
C65 C64 1.399 . S
C65 H71 0.930 . S
H66 C46 0.931 . S
H67 C47 0.930 . S
H68 C55 0.931 . S
H69 C56 0.929 . S
H70 C64 0.929 . S
H71 C65 0.930 . S
Mn72 O77 2.095 . S
Mn72 O87 2.162 . S
Mn72 O88 2.297 . S
Mn72 O96 2.385 . S
Mn72 O97 2.209 . S
Mn72 O98 2.094 . S
Mn73 O78 2.121 . S
Mn73 N80 2.257 . S
Mn73 N89 2.282 . S
Mn73 O97 2.215 . S
Mn73 O99 2.117 . S
C74 O96 1.234 . S
C74 O97 1.283 . S
C75 O87 1.281 . S
C75 O88 1.236 . S
C76 O98 1.240 . S
C76 O99 1.264 . S
O77 Mn72 2.095 . S
O77 C86 1.250 . S
O78 Mn73 2.121 . S
O78 C86 1.258 . S
C79 N80 1.326 . S
C79 C83 1.460 . S
C79 H85 0.929 . S
N80 Mn73 2.257 . S
N80 C79 1.326 . S
N80 C84 1.362 . S
C81 C82 1.258 . S
C81 C84 1.431 . S
C81 C101 1.449 . S
C82 C81 1.258 . S
C82 C83 1.477 . S
C82 H102 0.931 . S
C83 C79 1.460 . S
C83 C82 1.477 . S
C83 H103 0.930 . S
C84 N80 1.362 . S
C84 C81 1.431 . S
C84 C94 1.476 . S
H85 C79 0.929 . S
C86 O77 1.250 . S
C86 O78 1.258 . S
O87 Mn72 2.162 . S
O87 C75 1.281 . S
O88 Mn72 2.297 . S
O88 C75 1.236 . S
N89 Mn73 2.282 . S
N89 C90 1.328 . S
N89 C94 1.318 . S
C90 N89 1.328 . S
C90 C91 1.457 . S
C90 H95 0.929 . S
C91 C90 1.457 . S
C91 C92 1.291 . S
C91 H104 0.931 . S
C92 C91 1.291 . S
C92 C93 1.373 . S
C92 H105 0.929 . S
C93 C92 1.373 . S
C93 C94 1.396 . S
C93 C100 1.403 . S
C94 C84 1.476 . S
C94 N89 1.318 . S
C94 C93 1.396 . S
H95 C90 0.929 . S
O96 Mn72 2.385 . S
O96 C74 1.234 . S
O97 Mn72 2.209 . S
O97 Mn73 2.215 . S
O97 C74 1.283 . S
O98 Mn72 2.094 . S
O98 C76 1.240 . S
O99 Mn73 2.117 . S
O99 C76 1.264 . S
C100 C93 1.403 . S
C100 C101 1.399 . S
C100 H106 0.929 . S
C101 C81 1.449 . S
C101 C100 1.399 . S
C101 H107 0.930 . S
H102 C82 0.931 . S
H103 C83 0.930 . S
H104 C91 0.931 . S
H105 C92 0.929 . S
H106 C100 0.929 . S
H107 C101 0.930 . S
Mn108 O113 2.095 . S
Mn108 O123 2.162 . S
Mn108 O124 2.297 . S
Mn108 O132 2.385 . S
Mn108 O133 2.209 . S
Mn108 O134 2.094 . S
Mn109 O114 2.121 . S
Mn109 N116 2.257 . S
Mn109 N125 2.282 . S
Mn109 O133 2.215 . S
Mn109 O135 2.117 . S
C110 O132 1.234 . S
C110 O133 1.283 . S
C111 O123 1.281 . S
C111 O124 1.236 . S
C112 O134 1.240 . S
C112 O135 1.264 . S
O113 Mn108 2.095 . S
O113 C122 1.250 . S
O114 Mn109 2.121 . S
O114 C122 1.258 . S
C115 N116 1.326 . S
C115 C119 1.460 . S
C115 H121 0.929 . S
N116 Mn109 2.257 . S
N116 C115 1.326 . S
N116 C120 1.362 . S
C117 C118 1.258 . S
C117 C120 1.431 . S
C117 C137 1.449 . S
C118 C117 1.258 . S
C118 C119 1.477 . S
C118 H138 0.931 . S
C119 C115 1.460 . S
C119 C118 1.477 . S
C119 H139 0.930 . S
C120 N116 1.362 . S
C120 C117 1.431 . S
C120 C130 1.476 . S
H121 C115 0.929 . S
C122 O113 1.250 . S
C122 O114 1.258 . S
O123 Mn108 2.162 . S
O123 C111 1.281 . S
O124 Mn108 2.297 . S
O124 C111 1.236 . S
N125 Mn109 2.282 . S
N125 C126 1.328 . S
N125 C130 1.318 . S
C126 N125 1.328 . S
C126 C127 1.457 . S
C126 H131 0.929 . S
C127 C126 1.457 . S
C127 C128 1.291 . S
C127 H140 0.931 . S
C128 C127 1.291 . S
C128 C129 1.373 . S
C128 H141 0.929 . S
C129 C128 1.373 . S
C129 C130 1.396 . S
C129 C136 1.403 . S
C130 C120 1.476 . S
C130 N125 1.318 . S
C130 C129 1.396 . S
H131 C126 0.929 . S
O132 Mn108 2.385 . S
O132 C110 1.234 . S
O133 Mn108 2.209 . S
O133 Mn109 2.215 . S
O133 C110 1.283 . S
O134 Mn108 2.094 . S
O134 C112 1.240 . S
O135 Mn109 2.117 . S
O135 C112 1.264 . S
C136 C129 1.403 . S
C136 C137 1.399 . S
C136 H142 0.929 . S
C137 C117 1.449 . S
C137 C136 1.399 . S
C137 H143 0.930 . S
H138 C118 0.931 . S
H139 C119 0.930 . S
H140 C127 0.931 . S
H141 C128 0.929 . S
H142 C136 0.929 . S
H143 C137 0.930 . S
Mn144 O149 2.095 . S
Mn144 O159 2.162 . S
Mn144 O160 2.297 . S
Mn144 O168 2.385 . S
Mn144 O169 2.209 . S
Mn144 O170 2.094 . S
Mn145 O150 2.121 . S
Mn145 N152 2.257 . S
Mn145 N161 2.282 . S
Mn145 O169 2.215 . S
Mn145 O171 2.117 . S
C146 O168 1.234 . S
C146 O169 1.283 . S
C147 O159 1.281 . S
C147 O160 1.236 . S
C148 O170 1.240 . S
C148 O171 1.264 . S
O149 Mn144 2.095 . S
O149 C158 1.250 . S
O150 Mn145 2.121 . S
O150 C158 1.258 . S
C151 N152 1.326 . S
C151 C155 1.460 . S
C151 H157 0.929 . S
N152 Mn145 2.257 . S
N152 C151 1.326 . S
N152 C156 1.362 . S
C153 C154 1.258 . S
C153 C156 1.431 . S
C153 C173 1.449 . S
C154 C153 1.258 . S
C154 C155 1.477 . S
C154 H174 0.931 . S
C155 C151 1.460 . S
C155 C154 1.477 . S
C155 H175 0.930 . S
C156 N152 1.362 . S
C156 C153 1.431 . S
C156 C166 1.476 . S
H157 C151 0.929 . S
C158 O149 1.250 . S
C158 O150 1.258 . S
O159 Mn144 2.162 . S
O159 C147 1.281 . S
O160 Mn144 2.297 . S
O160 C147 1.236 . S
N161 Mn145 2.282 . S
N161 C162 1.328 . S
N161 C166 1.318 . S
C162 N161 1.328 . S
C162 C163 1.457 . S
C162 H167 0.929 . S
C163 C162 1.457 . S
C163 C164 1.291 . S
C163 H176 0.931 . S
C164 C163 1.291 . S
C164 C165 1.373 . S
C164 H177 0.929 . S
C165 C164 1.373 . S
C165 C166 1.396 . S
C165 C172 1.403 . S
C166 C156 1.476 . S
C166 N161 1.318 . S
C166 C165 1.396 . S
H167 C162 0.929 . S
O168 Mn144 2.385 . S
O168 C146 1.234 . S
O169 Mn144 2.209 . S
O169 Mn145 2.215 . S
O169 C146 1.283 . S
O170 Mn144 2.094 . S
O170 C148 1.240 . S
O171 Mn145 2.117 . S
O171 C148 1.264 . S
C172 C165 1.403 . S
C172 C173 1.399 . S
C172 H178 0.929 . S
C173 C153 1.449 . S
C173 C172 1.399 . S
C173 H179 0.930 . S
H174 C154 0.931 . S
H175 C155 0.930 . S
H176 C163 0.931 . S
H177 C164 0.929 . S
H178 C172 0.929 . S
H179 C173 0.930 . S
Mn180 O185 2.095 . S
Mn180 O195 2.162 . S
Mn180 O196 2.297 . S
Mn180 O204 2.385 . S
Mn180 O205 2.209 . S
Mn180 O206 2.094 . S
Mn181 O186 2.121 . S
Mn181 N188 2.257 . S
Mn181 N197 2.282 . S
Mn181 O205 2.215 . S
Mn181 O207 2.117 . S
C182 O204 1.234 . S
C182 O205 1.283 . S
C183 O195 1.281 . S
C183 O196 1.236 . S
C184 O206 1.240 . S
C184 O207 1.264 . S
O185 Mn180 2.095 . S
O185 C194 1.250 . S
O186 Mn181 2.121 . S
O186 C194 1.258 . S
C187 N188 1.326 . S
C187 C191 1.460 . S
C187 H193 0.929 . S
N188 Mn181 2.257 . S
N188 C187 1.326 . S
N188 C192 1.362 . S
C189 C190 1.258 . S
C189 C192 1.431 . S
C189 C209 1.449 . S
C190 C189 1.258 . S
C190 C191 1.477 . S
C190 H210 0.931 . S
C191 C187 1.460 . S
C191 C190 1.477 . S
C191 H211 0.930 . S
C192 N188 1.362 . S
C192 C189 1.431 . S
C192 C202 1.476 . S
H193 C187 0.929 . S
C194 O185 1.250 . S
C194 O186 1.258 . S
O195 Mn180 2.162 . S
O195 C183 1.281 . S
O196 Mn180 2.297 . S
O196 C183 1.236 . S
N197 Mn181 2.282 . S
N197 C198 1.328 . S
N197 C202 1.318 . S
C198 N197 1.328 . S
C198 C199 1.457 . S
C198 H203 0.929 . S
C199 C198 1.457 . S
C199 C200 1.291 . S
C199 H212 0.931 . S
C200 C199 1.291 . S
C200 C201 1.373 . S
C200 H213 0.929 . S
C201 C200 1.373 . S
C201 C202 1.396 . S
C201 C208 1.403 . S
C202 C192 1.476 . S
C202 N197 1.318 . S
C202 C201 1.396 . S
H203 C198 0.929 . S
O204 Mn180 2.385 . S
O204 C182 1.234 . S
O205 Mn180 2.209 . S
O205 Mn181 2.215 . S
O205 C182 1.283 . S
O206 Mn180 2.094 . S
O206 C184 1.240 . S
O207 Mn181 2.117 . S
O207 C184 1.264 . S
C208 C201 1.403 . S
C208 C209 1.399 . S
C208 H214 0.929 . S
C209 C189 1.449 . S
C209 C208 1.399 . S
C209 H215 0.930 . S
H210 C190 0.931 . S
H211 C191 0.930 . S
H212 C199 0.931 . S
H213 C200 0.929 . S
H214 C208 0.929 . S
H215 C209 0.930 . S
Mn216 O221 2.095 . S
Mn216 O231 2.162 . S
Mn216 O232 2.297 . S
Mn216 O240 2.385 . S
Mn216 O241 2.209 . S
Mn216 O242 2.094 . S
Mn217 O222 2.121 . S
Mn217 N224 2.257 . S
Mn217 N233 2.282 . S
Mn217 O241 2.215 . S
Mn217 O243 2.117 . S
C218 O240 1.234 . S
C218 O241 1.283 . S
C219 O231 1.281 . S
C219 O232 1.236 . S
C220 O242 1.240 . S
C220 O243 1.264 . S
O221 Mn216 2.095 . S
O221 C230 1.250 . S
O222 Mn217 2.121 . S
O222 C230 1.258 . S
C223 N224 1.326 . S
C223 C227 1.460 . S
C223 H229 0.929 . S
N224 Mn217 2.257 . S
N224 C223 1.326 . S
N224 C228 1.362 . S
C225 C226 1.258 . S
C225 C228 1.431 . S
C225 C245 1.449 . S
C226 C225 1.258 . S
C226 C227 1.477 . S
C226 H246 0.931 . S
C227 C223 1.460 . S
C227 C226 1.477 . S
C227 H247 0.930 . S
C228 N224 1.362 . S
C228 C225 1.431 . S
C228 C238 1.476 . S
H229 C223 0.929 . S
C230 O221 1.250 . S
C230 O222 1.258 . S
O231 Mn216 2.162 . S
O231 C219 1.281 . S
O232 Mn216 2.297 . S
O232 C219 1.236 . S
N233 Mn217 2.282 . S
N233 C234 1.328 . S
N233 C238 1.318 . S
C234 N233 1.328 . S
C234 C235 1.457 . S
C234 H239 0.929 . S
C235 C234 1.457 . S
C235 C236 1.291 . S
C235 H248 0.931 . S
C236 C235 1.291 . S
C236 C237 1.373 . S
C236 H249 0.929 . S
C237 C236 1.373 . S
C237 C238 1.396 . S
C237 C244 1.403 . S
C238 C228 1.476 . S
C238 N233 1.318 . S
C238 C237 1.396 . S
H239 C234 0.929 . S
O240 Mn216 2.385 . S
O240 C218 1.234 . S
O241 Mn216 2.209 . S
O241 Mn217 2.215 . S
O241 C218 1.283 . S
O242 Mn216 2.094 . S
O242 C220 1.240 . S
O243 Mn217 2.117 . S
O243 C220 1.264 . S
C244 C237 1.403 . S
C244 C245 1.399 . S
C244 H250 0.929 . S
C245 C225 1.449 . S
C245 C244 1.399 . S
C245 H251 0.930 . S
H246 C226 0.931 . S
H247 C227 0.930 . S
H248 C235 0.931 . S
H249 C236 0.929 . S
H250 C244 0.929 . S
H251 C245 0.930 . S
Mn252 O257 2.095 . S
Mn252 O267 2.162 . S
Mn252 O268 2.297 . S
Mn252 O276 2.385 . S
Mn252 O277 2.209 . S
Mn252 O278 2.094 . S
Mn253 O258 2.121 . S
Mn253 N260 2.257 . S
Mn253 N269 2.282 . S
Mn253 O277 2.215 . S
Mn253 O279 2.117 . S
C254 O276 1.234 . S
C254 O277 1.283 . S
C255 O267 1.281 . S
C255 O268 1.236 . S
C256 O278 1.240 . S
C256 O279 1.264 . S
O257 Mn252 2.095 . S
O257 C266 1.250 . S
O258 Mn253 2.121 . S
O258 C266 1.258 . S
C259 N260 1.326 . S
C259 C263 1.460 . S
C259 H265 0.929 . S
N260 Mn253 2.257 . S
N260 C259 1.326 . S
N260 C264 1.362 . S
C261 C262 1.258 . S
C261 C264 1.431 . S
C261 C281 1.449 . S
C262 C261 1.258 . S
C262 C263 1.477 . S
C262 H282 0.931 . S
C263 C259 1.460 . S
C263 C262 1.477 . S
C263 H283 0.930 . S
C264 N260 1.362 . S
C264 C261 1.431 . S
C264 C274 1.476 . S
H265 C259 0.929 . S
C266 O257 1.250 . S
C266 O258 1.258 . S
O267 Mn252 2.162 . S
O267 C255 1.281 . S
O268 Mn252 2.297 . S
O268 C255 1.236 . S
N269 Mn253 2.282 . S
N269 C270 1.328 . S
N269 C274 1.318 . S
C270 N269 1.328 . S
C270 C271 1.457 . S
C270 H275 0.929 . S
C271 C270 1.457 . S
C271 C272 1.291 . S
C271 H284 0.931 . S
C272 C271 1.291 . S
C272 C273 1.373 . S
C272 H285 0.929 . S
C273 C272 1.373 . S
C273 C274 1.396 . S
C273 C280 1.403 . S
C274 C264 1.476 . S
C274 N269 1.318 . S
C274 C273 1.396 . S
H275 C270 0.929 . S
O276 Mn252 2.385 . S
O276 C254 1.234 . S
O277 Mn252 2.209 . S
O277 Mn253 2.215 . S
O277 C254 1.283 . S
O278 Mn252 2.094 . S
O278 C256 1.240 . S
O279 Mn253 2.117 . S
O279 C256 1.264 . S
C280 C273 1.403 . S
C280 C281 1.399 . S
C280 H286 0.929 . S
C281 C261 1.449 . S
C281 C280 1.399 . S
C281 H287 0.930 . S
H282 C262 0.931 . S
H283 C263 0.930 . S
H284 C271 0.931 . S
H285 C272 0.929 . S
H286 C280 0.929 . S
H287 C281 0.930 . S
Mn288 O293 2.095 . S
Mn288 O303 2.162 . S
Mn288 O304 2.297 . S
Mn288 O312 2.385 . S
Mn288 O313 2.209 . S
Mn288 O314 2.094 . S
Mn289 O294 2.121 . S
Mn289 N296 2.257 . S
Mn289 N305 2.282 . S
Mn289 O313 2.215 . S
Mn289 O315 2.117 . S
C290 O312 1.234 . S
C290 O313 1.283 . S
C291 O303 1.281 . S
C291 O304 1.236 . S
C292 O314 1.240 . S
C292 O315 1.264 . S
O293 Mn288 2.095 . S
O293 C302 1.250 . S
O294 Mn289 2.121 . S
O294 C302 1.258 . S
C295 N296 1.326 . S
C295 C299 1.460 . S
C295 H301 0.929 . S
N296 Mn289 2.257 . S
N296 C295 1.326 . S
N296 C300 1.362 . S
C297 C298 1.258 . S
C297 C300 1.431 . S
C297 C317 1.449 . S
C298 C297 1.258 . S
C298 C299 1.477 . S
C298 H318 0.931 . S
C299 C295 1.460 . S
C299 C298 1.477 . S
C299 H319 0.930 . S
C300 N296 1.362 . S
C300 C297 1.431 . S
C300 C310 1.476 . S
H301 C295 0.929 . S
C302 O293 1.250 . S
C302 O294 1.258 . S
O303 Mn288 2.162 . S
O303 C291 1.281 . S
O304 Mn288 2.297 . S
O304 C291 1.236 . S
N305 Mn289 2.282 . S
N305 C306 1.328 . S
N305 C310 1.318 . S
C306 N305 1.328 . S
C306 C307 1.457 . S
C306 H311 0.929 . S
C307 C306 1.457 . S
C307 C308 1.291 . S
C307 H320 0.931 . S
C308 C307 1.291 . S
C308 C309 1.373 . S
C308 H321 0.929 . S
C309 C308 1.373 . S
C309 C310 1.396 . S
C309 C316 1.403 . S
C310 C300 1.476 . S
C310 N305 1.318 . S
C310 C309 1.396 . S
H311 C306 0.929 . S
O312 Mn288 2.385 . S
O312 C290 1.234 . S
O313 Mn288 2.209 . S
O313 Mn289 2.215 . S
O313 C290 1.283 . S
O314 Mn288 2.094 . S
O314 C292 1.240 . S
O315 Mn289 2.117 . S
O315 C292 1.264 . S
C316 C309 1.403 . S
C316 C317 1.399 . S
C316 H322 0.929 . S
C317 C297 1.449 . S
C317 C316 1.399 . S
C317 H323 0.930 . S
H318 C298 0.931 . S
H319 C299 0.930 . S
H320 C307 0.931 . S
H321 C308 0.929 . S
H322 C316 0.929 . S
H323 C317 0.930 . S
Mn324 O329 2.095 . S
Mn324 O339 2.162 . S
Mn324 O340 2.297 . S
Mn324 O348 2.385 . S
Mn324 O349 2.209 . S
Mn324 O350 2.094 . S
Mn325 O330 2.121 . S
Mn325 N332 2.257 . S
Mn325 N341 2.282 . S
Mn325 O349 2.215 . S
Mn325 O351 2.117 . S
C326 O348 1.234 . S
C326 O349 1.283 . S
C327 O339 1.281 . S
C327 O340 1.236 . S
C328 O350 1.240 . S
C328 O351 1.264 . S
O329 Mn324 2.095 . S
O329 C338 1.250 . S
O330 Mn325 2.121 . S
O330 C338 1.258 . S
C331 N332 1.326 . S
C331 C335 1.460 . S
C331 H337 0.929 . S
N332 Mn325 2.257 . S
N332 C331 1.326 . S
N332 C336 1.362 . S
C333 C334 1.258 . S
C333 C336 1.431 . S
C333 C353 1.449 . S
C334 C333 1.258 . S
C334 C335 1.477 . S
C334 H354 0.931 . S
C335 C331 1.460 . S
C335 C334 1.477 . S
C335 H355 0.930 . S
C336 N332 1.362 . S
C336 C333 1.431 . S
C336 C346 1.476 . S
H337 C331 0.929 . S
C338 O329 1.250 . S
C338 O330 1.258 . S
O339 Mn324 2.162 . S
O339 C327 1.281 . S
O340 Mn324 2.297 . S
O340 C327 1.236 . S
N341 Mn325 2.282 . S
N341 C342 1.328 . S
N341 C346 1.318 . S
C342 N341 1.328 . S
C342 C343 1.457 . S
C342 H347 0.929 . S
C343 C342 1.457 . S
C343 C344 1.291 . S
C343 H356 0.931 . S
C344 C343 1.291 . S
C344 C345 1.373 . S
C344 H357 0.929 . S
C345 C344 1.373 . S
C345 C346 1.396 . S
C345 C352 1.403 . S
C346 C336 1.476 . S
C346 N341 1.318 . S
C346 C345 1.396 . S
H347 C342 0.929 . S
O348 Mn324 2.385 . S
O348 C326 1.234 . S
O349 Mn324 2.209 . S
O349 Mn325 2.215 . S
O349 C326 1.283 . S
O350 Mn324 2.094 . S
O350 C328 1.240 . S
O351 Mn325 2.117 . S
O351 C328 1.264 . S
C352 C345 1.403 . S
C352 C353 1.399 . S
C352 H358 0.929 . S
C353 C333 1.449 . S
C353 C352 1.399 . S
C353 H359 0.930 . S
H354 C334 0.931 . S
H355 C335 0.930 . S
H356 C343 0.931 . S
H357 C344 0.929 . S
H358 C352 0.929 . S
H359 C353 0.930 . S
Mn360 O365 2.095 . S
Mn360 O375 2.162 . S
Mn360 O376 2.297 . S
Mn360 O384 2.385 . S
Mn360 O385 2.209 . S
Mn360 O386 2.094 . S
Mn361 O366 2.121 . S
Mn361 N368 2.257 . S
Mn361 N377 2.282 . S
Mn361 O385 2.215 . S
Mn361 O387 2.117 . S
C362 O384 1.234 . S
C362 O385 1.283 . S
C363 O375 1.281 . S
C363 O376 1.236 . S
C364 O386 1.240 . S
C364 O387 1.264 . S
O365 Mn360 2.095 . S
O365 C374 1.250 . S
O366 Mn361 2.121 . S
O366 C374 1.258 . S
C367 N368 1.326 . S
C367 C371 1.460 . S
C367 H373 0.929 . S
N368 Mn361 2.257 . S
N368 C367 1.326 . S
N368 C372 1.362 . S
C369 C370 1.258 . S
C369 C372 1.431 . S
C369 C389 1.449 . S
C370 C369 1.258 . S
C370 C371 1.477 . S
C370 H390 0.931 . S
C371 C367 1.460 . S
C371 C370 1.477 . S
C371 H391 0.930 . S
C372 N368 1.362 . S
C372 C369 1.431 . S
C372 C382 1.476 . S
H373 C367 0.929 . S
C374 O365 1.250 . S
C374 O366 1.258 . S
O375 Mn360 2.162 . S
O375 C363 1.281 . S
O376 Mn360 2.297 . S
O376 C363 1.236 . S
N377 Mn361 2.282 . S
N377 C378 1.328 . S
N377 C382 1.318 . S
C378 N377 1.328 . S
C378 C379 1.457 . S
C378 H383 0.929 . S
C379 C378 1.457 . S
C379 C380 1.291 . S
C379 H392 0.931 . S
C380 C379 1.291 . S
C380 C381 1.373 . S
C380 H393 0.929 . S
C381 C380 1.373 . S
C381 C382 1.396 . S
C381 C388 1.403 . S
C382 C372 1.476 . S
C382 N377 1.318 . S
C382 C381 1.396 . S
H383 C378 0.929 . S
O384 Mn360 2.385 . S
O384 C362 1.234 . S
O385 Mn360 2.209 . S
O385 Mn361 2.215 . S
O385 C362 1.283 . S
O386 Mn360 2.094 . S
O386 C364 1.240 . S
O387 Mn361 2.117 . S
O387 C364 1.264 . S
C388 C381 1.403 . S
C388 C389 1.399 . S
C388 H394 0.929 . S
C389 C369 1.449 . S
C389 C388 1.399 . S
C389 H395 0.930 . S
H390 C370 0.931 . S
H391 C371 0.930 . S
H392 C379 0.931 . S
H393 C380 0.929 . S
H394 C388 0.929 . S
H395 C389 0.930 . S
Mn396 O401 2.095 . S
Mn396 O411 2.162 . S
Mn396 O412 2.297 . S
Mn396 O420 2.385 . S
Mn396 O421 2.209 . S
Mn396 O422 2.094 . S
Mn397 O402 2.121 . S
Mn397 N404 2.257 . S
Mn397 N413 2.282 . S
Mn397 O421 2.215 . S
Mn397 O423 2.117 . S
C398 O420 1.234 . S
C398 O421 1.283 . S
C399 O411 1.281 . S
C399 O412 1.236 . S
C400 O422 1.240 . S
C400 O423 1.264 . S
O401 Mn396 2.095 . S
O401 C410 1.250 . S
O402 Mn397 2.121 . S
O402 C410 1.258 . S
C403 N404 1.326 . S
C403 C407 1.460 . S
C403 H409 0.929 . S
N404 Mn397 2.257 . S
N404 C403 1.326 . S
N404 C408 1.362 . S
C405 C406 1.258 . S
C405 C408 1.431 . S
C405 C425 1.449 . S
C406 C405 1.258 . S
C406 C407 1.477 . S
C406 H426 0.931 . S
C407 C403 1.460 . S
C407 C406 1.477 . S
C407 H427 0.930 . S
C408 N404 1.362 . S
C408 C405 1.431 . S
C408 C418 1.476 . S
H409 C403 0.929 . S
C410 O401 1.250 . S
C410 O402 1.258 . S
O411 Mn396 2.162 . S
O411 C399 1.281 . S
O412 Mn396 2.297 . S
O412 C399 1.236 . S
N413 Mn397 2.282 . S
N413 C414 1.328 . S
N413 C418 1.318 . S
C414 N413 1.328 . S
C414 C415 1.457 . S
C414 H419 0.929 . S
C415 C414 1.457 . S
C415 C416 1.291 . S
C415 H428 0.931 . S
C416 C415 1.291 . S
C416 C417 1.373 . S
C416 H429 0.929 . S
C417 C416 1.373 . S
C417 C418 1.396 . S
C417 C424 1.403 . S
C418 C408 1.476 . S
C418 N413 1.318 . S
C418 C417 1.396 . S
H419 C414 0.929 . S
O420 Mn396 2.385 . S
O420 C398 1.234 . S
O421 Mn396 2.209 . S
O421 Mn397 2.215 . S
O421 C398 1.283 . S
O422 Mn396 2.094 . S
O422 C400 1.240 . S
O423 Mn397 2.117 . S
O423 C400 1.264 . S
C424 C417 1.403 . S
C424 C425 1.399 . S
C424 H430 0.929 . S
C425 C405 1.449 . S
C425 C424 1.399 . S
C425 H431 0.930 . S
H426 C406 0.931 . S
H427 C407 0.930 . S
H428 C415 0.931 . S
H429 C416 0.929 . S
H430 C424 0.929 . S
H431 C425 0.930 . S
Mn432 O437 2.095 . S
Mn432 O447 2.162 . S
Mn432 O448 2.297 . S
Mn432 O456 2.385 . S
Mn432 O457 2.209 . S
Mn432 O458 2.094 . S
Mn433 O438 2.121 . S
Mn433 N440 2.257 . S
Mn433 N449 2.282 . S
Mn433 O457 2.215 . S
Mn433 O459 2.117 . S
C434 O456 1.234 . S
C434 O457 1.283 . S
C435 O447 1.281 . S
C435 O448 1.236 . S
C436 O458 1.240 . S
C436 O459 1.264 . S
O437 Mn432 2.095 . S
O437 C446 1.250 . S
O438 Mn433 2.121 . S
O438 C446 1.258 . S
C439 N440 1.326 . S
C439 C443 1.460 . S
C439 H445 0.929 . S
N440 Mn433 2.257 . S
N440 C439 1.326 . S
N440 C444 1.362 . S
C441 C442 1.258 . S
C441 C444 1.431 . S
C441 C461 1.449 . S
C442 C441 1.258 . S
C442 C443 1.477 . S
C442 H462 0.931 . S
C443 C439 1.460 . S
C443 C442 1.477 . S
C443 H463 0.930 . S
C444 N440 1.362 . S
C444 C441 1.431 . S
C444 C454 1.476 . S
H445 C439 0.929 . S
C446 O437 1.250 . S
C446 O438 1.258 . S
O447 Mn432 2.162 . S
O447 C435 1.281 . S
O448 Mn432 2.297 . S
O448 C435 1.236 . S
N449 Mn433 2.282 . S
N449 C450 1.328 . S
N449 C454 1.318 . S
C450 N449 1.328 . S
C450 C451 1.457 . S
C450 H455 0.929 . S
C451 C450 1.457 . S
C451 C452 1.291 . S
C451 H464 0.931 . S
C452 C451 1.291 . S
C452 C453 1.373 . S
C452 H465 0.929 . S
C453 C452 1.373 . S
C453 C454 1.396 . S
C453 C460 1.403 . S
C454 C444 1.476 . S
C454 N449 1.318 . S
C454 C453 1.396 . S
H455 C450 0.929 . S
O456 Mn432 2.385 . S
O456 C434 1.234 . S
O457 Mn432 2.209 . S
O457 Mn433 2.215 . S
O457 C434 1.283 . S
O458 Mn432 2.094 . S
O458 C436 1.240 . S
O459 Mn433 2.117 . S
O459 C436 1.264 . S
C460 C453 1.403 . S
C460 C461 1.399 . S
C460 H466 0.929 . S
C461 C441 1.449 . S
C461 C460 1.399 . S
C461 H467 0.930 . S
H462 C442 0.931 . S
H463 C443 0.930 . S
H464 C451 0.931 . S
H465 C452 0.929 . S
H466 C460 0.929 . S
H467 C461 0.930 . S
Mn468 O473 2.095 . S
Mn468 O483 2.162 . S
Mn468 O484 2.297 . S
Mn468 O492 2.385 . S
Mn468 O493 2.209 . S
Mn468 O494 2.094 . S
Mn469 O474 2.121 . S
Mn469 N476 2.257 . S
Mn469 N485 2.282 . S
Mn469 O493 2.215 . S
Mn469 O495 2.117 . S
C470 O492 1.234 . S
C470 O493 1.283 . S
C471 O483 1.281 . S
C471 O484 1.236 . S
C472 O494 1.240 . S
C472 O495 1.264 . S
O473 Mn468 2.095 . S
O473 C482 1.250 . S
O474 Mn469 2.121 . S
O474 C482 1.258 . S
C475 N476 1.326 . S
C475 C479 1.460 . S
C475 H481 0.929 . S
N476 Mn469 2.257 . S
N476 C475 1.326 . S
N476 C480 1.362 . S
C477 C478 1.258 . S
C477 C480 1.431 . S
C477 C497 1.449 . S
C478 C477 1.258 . S
C478 C479 1.477 . S
C478 H498 0.931 . S
C479 C475 1.460 . S
C479 C478 1.477 . S
C479 H499 0.930 . S
C480 N476 1.362 . S
C480 C477 1.431 . S
C480 C490 1.476 . S
H481 C475 0.929 . S
C482 O473 1.250 . S
C482 O474 1.258 . S
O483 Mn468 2.162 . S
O483 C471 1.281 . S
O484 Mn468 2.297 . S
O484 C471 1.236 . S
N485 Mn469 2.282 . S
N485 C486 1.328 . S
N485 C490 1.318 . S
C486 N485 1.328 . S
C486 C487 1.457 . S
C486 H491 0.929 . S
C487 C486 1.457 . S
C487 C488 1.291 . S
C487 H500 0.931 . S
C488 C487 1.291 . S
C488 C489 1.373 . S
C488 H501 0.929 . S
C489 C488 1.373 . S
C489 C490 1.396 . S
C489 C496 1.403 . S
C490 C480 1.476 . S
C490 N485 1.318 . S
C490 C489 1.396 . S
H491 C486 0.929 . S
O492 Mn468 2.385 . S
O492 C470 1.234 . S
O493 Mn468 2.209 . S
O493 Mn469 2.215 . S
O493 C470 1.283 . S
O494 Mn468 2.094 . S
O494 C472 1.240 . S
O495 Mn469 2.117 . S
O495 C472 1.264 . S
C496 C489 1.403 . S
C496 C497 1.399 . S
C496 H502 0.929 . S
C497 C477 1.449 . S
C497 C496 1.399 . S
C497 H503 0.930 . S
H498 C478 0.931 . S
H499 C479 0.930 . S
H500 C487 0.931 . S
H501 C488 0.929 . S
H502 C496 0.929 . S
H503 C497 0.930 . S
Mn504 O509 2.095 . S
Mn504 O519 2.162 . S
Mn504 O520 2.297 . S
Mn504 O528 2.385 . S
Mn504 O529 2.209 . S
Mn504 O530 2.094 . S
Mn505 O510 2.121 . S
Mn505 N512 2.257 . S
Mn505 N521 2.282 . S
Mn505 O529 2.215 . S
Mn505 O531 2.117 . S
C506 O528 1.234 . S
C506 O529 1.283 . S
C507 O519 1.281 . S
C507 O520 1.236 . S
C508 O530 1.240 . S
C508 O531 1.264 . S
O509 Mn504 2.095 . S
O509 C518 1.250 . S
O510 Mn505 2.121 . S
O510 C518 1.258 . S
C511 N512 1.326 . S
C511 C515 1.460 . S
C511 H517 0.929 . S
N512 Mn505 2.257 . S
N512 C511 1.326 . S
N512 C516 1.362 . S
C513 C514 1.258 . S
C513 C516 1.431 . S
C513 C533 1.449 . S
C514 C513 1.258 . S
C514 C515 1.477 . S
C514 H534 0.931 . S
C515 C511 1.460 . S
C515 C514 1.477 . S
C515 H535 0.930 . S
C516 N512 1.362 . S
C516 C513 1.431 . S
C516 C526 1.476 . S
H517 C511 0.929 . S
C518 O509 1.250 . S
C518 O510 1.258 . S
O519 Mn504 2.162 . S
O519 C507 1.281 . S
O520 Mn504 2.297 . S
O520 C507 1.236 . S
N521 Mn505 2.282 . S
N521 C522 1.328 . S
N521 C526 1.318 . S
C522 N521 1.328 . S
C522 C523 1.457 . S
C522 H527 0.929 . S
C523 C522 1.457 . S
C523 C524 1.291 . S
C523 H536 0.931 . S
C524 C523 1.291 . S
C524 C525 1.373 . S
C524 H537 0.929 . S
C525 C524 1.373 . S
C525 C526 1.396 . S
C525 C532 1.403 . S
C526 C516 1.476 . S
C526 N521 1.318 . S
C526 C525 1.396 . S
H527 C522 0.929 . S
O528 Mn504 2.385 . S
O528 C506 1.234 . S
O529 Mn504 2.209 . S
O529 Mn505 2.215 . S
O529 C506 1.283 . S
O530 Mn504 2.094 . S
O530 C508 1.240 . S
O531 Mn505 2.117 . S
O531 C508 1.264 . S
C532 C525 1.403 . S
C532 C533 1.399 . S
C532 H538 0.929 . S
C533 C513 1.449 . S
C533 C532 1.399 . S
C533 H539 0.930 . S
H534 C514 0.931 . S
H535 C515 0.930 . S
H536 C523 0.931 . S
H537 C524 0.929 . S
H538 C532 0.929 . S
H539 C533 0.930 . S
Mn540 O545 2.095 . S
Mn540 O555 2.162 . S
Mn540 O556 2.297 . S
Mn540 O564 2.385 . S
Mn540 O565 2.209 . S
Mn540 O566 2.094 . S
Mn541 O546 2.121 . S
Mn541 N548 2.257 . S
Mn541 N557 2.282 . S
Mn541 O565 2.215 . S
Mn541 O567 2.117 . S
C542 O564 1.234 . S
C542 O565 1.283 . S
C543 O555 1.281 . S
C543 O556 1.236 . S
C544 O566 1.240 . S
C544 O567 1.264 . S
O545 Mn540 2.095 . S
O545 C554 1.250 . S
O546 Mn541 2.121 . S
O546 C554 1.258 . S
C547 N548 1.326 . S
C547 C551 1.460 . S
C547 H553 0.929 . S
N548 Mn541 2.257 . S
N548 C547 1.326 . S
N548 C552 1.362 . S
C549 C550 1.258 . S
C549 C552 1.431 . S
C549 C569 1.449 . S
C550 C549 1.258 . S
C550 C551 1.477 . S
C550 H570 0.931 . S
C551 C547 1.460 . S
C551 C550 1.477 . S
C551 H571 0.930 . S
C552 N548 1.362 . S
C552 C549 1.431 . S
C552 C562 1.476 . S
H553 C547 0.929 . S
C554 O545 1.250 . S
C554 O546 1.258 . S
O555 Mn540 2.162 . S
O555 C543 1.281 . S
O556 Mn540 2.297 . S
O556 C543 1.236 . S
N557 Mn541 2.282 . S
N557 C558 1.328 . S
N557 C562 1.318 . S
C558 N557 1.328 . S
C558 C559 1.457 . S
C558 H563 0.929 . S
C559 C558 1.457 . S
C559 C560 1.291 . S
C559 H572 0.931 . S
C560 C559 1.291 . S
C560 C561 1.373 . S
C560 H573 0.929 . S
C561 C560 1.373 . S
C561 C562 1.396 . S
C561 C568 1.403 . S
C562 C552 1.476 . S
C562 N557 1.318 . S
C562 C561 1.396 . S
H563 C558 0.929 . S
O564 Mn540 2.385 . S
O564 C542 1.234 . S
O565 Mn540 2.209 . S
O565 Mn541 2.215 . S
O565 C542 1.283 . S
O566 Mn540 2.094 . S
O566 C544 1.240 . S
O567 Mn541 2.117 . S
O567 C544 1.264 . S
C568 C561 1.403 . S
C568 C569 1.399 . S
C568 H574 0.929 . S
C569 C549 1.449 . S
C569 C568 1.399 . S
C569 H575 0.930 . S
H570 C550 0.931 . S
H571 C551 0.930 . S
H572 C559 0.931 . S
H573 C560 0.929 . S
H574 C568 0.929 . S
H575 C569 0.930 . S
Mn576 O581 2.095 . S
Mn576 O591 2.162 . S
Mn576 O592 2.297 . S
Mn576 O600 2.385 . S
Mn576 O601 2.209 . S
Mn576 O602 2.094 . S
Mn577 O582 2.121 . S
Mn577 N584 2.257 . S
Mn577 N593 2.282 . S
Mn577 O601 2.215 . S
Mn577 O603 2.117 . S
C578 O600 1.234 . S
C578 O601 1.283 . S
C579 O591 1.281 . S
C579 O592 1.236 . S
C580 O602 1.240 . S
C580 O603 1.264 . S
O581 Mn576 2.095 . S
O581 C590 1.250 . S
O582 Mn577 2.121 . S
O582 C590 1.258 . S
C583 N584 1.326 . S
C583 C587 1.460 . S
C583 H589 0.929 . S
N584 Mn577 2.257 . S
N584 C583 1.326 . S
N584 C588 1.362 . S
C585 C586 1.258 . S
C585 C588 1.431 . S
C585 C605 1.449 . S
C586 C585 1.258 . S
C586 C587 1.477 . S
C586 H606 0.931 . S
C587 C583 1.460 . S
C587 C586 1.477 . S
C587 H607 0.930 . S
C588 N584 1.362 . S
C588 C585 1.431 . S
C588 C598 1.476 . S
H589 C583 0.929 . S
C590 O581 1.250 . S
C590 O582 1.258 . S
O591 Mn576 2.162 . S
O591 C579 1.281 . S
O592 Mn576 2.297 . S
O592 C579 1.236 . S
N593 Mn577 2.282 . S
N593 C594 1.328 . S
N593 C598 1.318 . S
C594 N593 1.328 . S
C594 C595 1.457 . S
C594 H599 0.929 . S
C595 C594 1.457 . S
C595 C596 1.291 . S
C595 H608 0.931 . S
C596 C595 1.291 . S
C596 C597 1.373 . S
C596 H609 0.929 . S
C597 C596 1.373 . S
C597 C598 1.396 . S
C597 C604 1.403 . S
C598 C588 1.476 . S
C598 N593 1.318 . S
C598 C597 1.396 . S
H599 C594 0.929 . S
O600 Mn576 2.385 . S
O600 C578 1.234 . S
O601 Mn576 2.209 . S
O601 Mn577 2.215 . S
O601 C578 1.283 . S
O602 Mn576 2.094 . S
O602 C580 1.240 . S
O603 Mn577 2.117 . S
O603 C580 1.264 . S
C604 C597 1.403 . S
C604 C605 1.399 . S
C604 H610 0.929 . S
C605 C585 1.449 . S
C605 C604 1.399 . S
C605 H611 0.930 . S
H606 C586 0.931 . S
H607 C587 0.930 . S
H608 C595 0.931 . S
H609 C596 0.929 . S
H610 C604 0.929 . S
H611 C605 0.930 . S
Mn612 O617 2.095 . S
Mn612 O627 2.162 . S
Mn612 O628 2.297 . S
Mn612 O636 2.385 . S
Mn612 O637 2.209 . S
Mn612 O638 2.094 . S
Mn613 O618 2.121 . S
Mn613 N620 2.257 . S
Mn613 N629 2.282 . S
Mn613 O637 2.215 . S
Mn613 O639 2.117 . S
C614 O636 1.234 . S
C614 O637 1.283 . S
C615 O627 1.281 . S
C615 O628 1.236 . S
C616 O638 1.240 . S
C616 O639 1.264 . S
O617 Mn612 2.095 . S
O617 C626 1.250 . S
O618 Mn613 2.121 . S
O618 C626 1.258 . S
C619 N620 1.326 . S
C619 C623 1.460 . S
C619 H625 0.929 . S
N620 Mn613 2.257 . S
N620 C619 1.326 . S
N620 C624 1.362 . S
C621 C622 1.258 . S
C621 C624 1.431 . S
C621 C641 1.449 . S
C622 C621 1.258 . S
C622 C623 1.477 . S
C622 H642 0.931 . S
C623 C619 1.460 . S
C623 C622 1.477 . S
C623 H643 0.930 . S
C624 N620 1.362 . S
C624 C621 1.431 . S
C624 C634 1.476 . S
H625 C619 0.929 . S
C626 O617 1.250 . S
C626 O618 1.258 . S
O627 Mn612 2.162 . S
O627 C615 1.281 . S
O628 Mn612 2.297 . S
O628 C615 1.236 . S
N629 Mn613 2.282 . S
N629 C630 1.328 . S
N629 C634 1.318 . S
C630 N629 1.328 . S
C630 C631 1.457 . S
C630 H635 0.929 . S
C631 C630 1.457 . S
C631 C632 1.291 . S
C631 H644 0.931 . S
C632 C631 1.291 . S
C632 C633 1.373 . S
C632 H645 0.929 . S
C633 C632 1.373 . S
C633 C634 1.396 . S
C633 C640 1.403 . S
C634 C624 1.476 . S
C634 N629 1.318 . S
C634 C633 1.396 . S
H635 C630 0.929 . S
O636 Mn612 2.385 . S
O636 C614 1.234 . S
O637 Mn612 2.209 . S
O637 Mn613 2.215 . S
O637 C614 1.283 . S
O638 Mn612 2.094 . S
O638 C616 1.240 . S
O639 Mn613 2.117 . S
O639 C616 1.264 . S
C640 C633 1.403 . S
C640 C641 1.399 . S
C640 H646 0.929 . S
C641 C621 1.449 . S
C641 C640 1.399 . S
C641 H647 0.930 . S
H642 C622 0.931 . S
H643 C623 0.930 . S
H644 C631 0.931 . S
H645 C632 0.929 . S
H646 C640 0.929 . S
H647 C641 0.930 . S
Mn648 O653 2.095 . S
Mn648 O663 2.162 . S
Mn648 O664 2.297 . S
Mn648 O672 2.385 . S
Mn648 O673 2.209 . S
Mn648 O674 2.094 . S
Mn649 O654 2.121 . S
Mn649 N656 2.257 . S
Mn649 N665 2.282 . S
Mn649 O673 2.215 . S
Mn649 O675 2.117 . S
C650 O672 1.234 . S
C650 O673 1.283 . S
C651 O663 1.281 . S
C651 O664 1.236 . S
C652 O674 1.240 . S
C652 O675 1.264 . S
O653 Mn648 2.095 . S
O653 C662 1.250 . S
O654 Mn649 2.121 . S
O654 C662 1.258 . S
C655 N656 1.326 . S
C655 C659 1.460 . S
C655 H661 0.929 . S
N656 Mn649 2.257 . S
N656 C655 1.326 . S
N656 C660 1.362 . S
C657 C658 1.258 . S
C657 C660 1.431 . S
C657 C677 1.449 . S
C658 C657 1.258 . S
C658 C659 1.477 . S
C658 H678 0.931 . S
C659 C655 1.460 . S
C659 C658 1.477 . S
C659 H679 0.930 . S
C660 N656 1.362 . S
C660 C657 1.431 . S
C660 C670 1.476 . S
H661 C655 0.929 . S
C662 O653 1.250 . S
C662 O654 1.258 . S
O663 Mn648 2.162 . S
O663 C651 1.281 . S
O664 Mn648 2.297 . S
O664 C651 1.236 . S
N665 Mn649 2.282 . S
N665 C666 1.328 . S
N665 C670 1.318 . S
C666 N665 1.328 . S
C666 C667 1.457 . S
C666 H671 0.929 . S
C667 C666 1.457 . S
C667 C668 1.291 . S
C667 H680 0.931 . S
C668 C667 1.291 . S
C668 C669 1.373 . S
C668 H681 0.929 . S
C669 C668 1.373 . S
C669 C670 1.396 . S
C669 C676 1.403 . S
C670 C660 1.476 . S
C670 N665 1.318 . S
C670 C669 1.396 . S
H671 C666 0.929 . S
O672 Mn648 2.385 . S
O672 C650 1.234 . S
O673 Mn648 2.209 . S
O673 Mn649 2.215 . S
O673 C650 1.283 . S
O674 Mn648 2.094 . S
O674 C652 1.240 . S
O675 Mn649 2.117 . S
O675 C652 1.264 . S
C676 C669 1.403 . S
C676 C677 1.399 . S
C676 H682 0.929 . S
C677 C657 1.449 . S
C677 C676 1.399 . S
C677 H683 0.930 . S
H678 C658 0.931 . S
H679 C659 0.930 . S
H680 C667 0.931 . S
H681 C668 0.929 . S
H682 C676 0.929 . S
H683 C677 0.930 . S
Mn684 O689 2.095 . S
Mn684 O699 2.162 . S
Mn684 O700 2.297 . S
Mn684 O708 2.385 . S
Mn684 O709 2.209 . S
Mn684 O710 2.094 . S
Mn685 O690 2.121 . S
Mn685 N692 2.257 . S
Mn685 N701 2.282 . S
Mn685 O709 2.215 . S
Mn685 O711 2.117 . S
C686 O708 1.234 . S
C686 O709 1.283 . S
C687 O699 1.281 . S
C687 O700 1.236 . S
C688 O710 1.240 . S
C688 O711 1.264 . S
O689 Mn684 2.095 . S
O689 C698 1.250 . S
O690 Mn685 2.121 . S
O690 C698 1.258 . S
C691 N692 1.326 . S
C691 C695 1.460 . S
C691 H697 0.929 . S
N692 Mn685 2.257 . S
N692 C691 1.326 . S
N692 C696 1.362 . S
C693 C694 1.258 . S
C693 C696 1.431 . S
C693 C713 1.449 . S
C694 C693 1.258 . S
C694 C695 1.477 . S
C694 H714 0.931 . S
C695 C691 1.460 . S
C695 C694 1.477 . S
C695 H715 0.930 . S
C696 N692 1.362 . S
C696 C693 1.431 . S
C696 C706 1.476 . S
H697 C691 0.929 . S
C698 O689 1.250 . S
C698 O690 1.258 . S
O699 Mn684 2.162 . S
O699 C687 1.281 . S
O700 Mn684 2.297 . S
O700 C687 1.236 . S
N701 Mn685 2.282 . S
N701 C702 1.328 . S
N701 C706 1.318 . S
C702 N701 1.328 . S
C702 C703 1.457 . S
C702 H707 0.929 . S
C703 C702 1.457 . S
C703 C704 1.291 . S
C703 H716 0.931 . S
C704 C703 1.291 . S
C704 C705 1.373 . S
C704 H717 0.929 . S
C705 C704 1.373 . S
C705 C706 1.396 . S
C705 C712 1.403 . S
C706 C696 1.476 . S
C706 N701 1.318 . S
C706 C705 1.396 . S
H707 C702 0.929 . S
O708 Mn684 2.385 . S
O708 C686 1.234 . S
O709 Mn684 2.209 . S
O709 Mn685 2.215 . S
O709 C686 1.283 . S
O710 Mn684 2.094 . S
O710 C688 1.240 . S
O711 Mn685 2.117 . S
O711 C688 1.264 . S
C712 C705 1.403 . S
C712 C713 1.399 . S
C712 H718 0.929 . S
C713 C693 1.449 . S
C713 C712 1.399 . S
C713 H719 0.930 . S
H714 C694 0.931 . S
H715 C695 0.930 . S
H716 C703 0.931 . S
H717 C704 0.929 . S
H718 C712 0.929 . S
H719 C713 0.930 . S
Mn720 O725 2.095 . S
Mn720 O735 2.162 . S
Mn720 O736 2.297 . S
Mn720 O744 2.385 . S
Mn720 O745 2.209 . S
Mn720 O746 2.094 . S
Mn721 O726 2.121 . S
Mn721 N728 2.257 . S
Mn721 N737 2.282 . S
Mn721 O745 2.215 . S
Mn721 O747 2.117 . S
C722 O744 1.234 . S
C722 O745 1.283 . S
C723 O735 1.281 . S
C723 O736 1.236 . S
C724 O746 1.240 . S
C724 O747 1.264 . S
O725 Mn720 2.095 . S
O725 C734 1.250 . S
O726 Mn721 2.121 . S
O726 C734 1.258 . S
C727 N728 1.326 . S
C727 C731 1.460 . S
C727 H733 0.929 . S
N728 Mn721 2.257 . S
N728 C727 1.326 . S
N728 C732 1.362 . S
C729 C730 1.258 . S
C729 C732 1.431 . S
C729 C749 1.449 . S
C730 C729 1.258 . S
C730 C731 1.477 . S
C730 H750 0.931 . S
C731 C727 1.460 . S
C731 C730 1.477 . S
C731 H751 0.930 . S
C732 N728 1.362 . S
C732 C729 1.431 . S
C732 C742 1.476 . S
H733 C727 0.929 . S
C734 O725 1.250 . S
C734 O726 1.258 . S
O735 Mn720 2.162 . S
O735 C723 1.281 . S
O736 Mn720 2.297 . S
O736 C723 1.236 . S
N737 Mn721 2.282 . S
N737 C738 1.328 . S
N737 C742 1.318 . S
C738 N737 1.328 . S
C738 C739 1.457 . S
C738 H743 0.929 . S
C739 C738 1.457 . S
C739 C740 1.291 . S
C739 H752 0.931 . S
C740 C739 1.291 . S
C740 C741 1.373 . S
C740 H753 0.929 . S
C741 C740 1.373 . S
C741 C742 1.396 . S
C741 C748 1.403 . S
C742 C732 1.476 . S
C742 N737 1.318 . S
C742 C741 1.396 . S
H743 C738 0.929 . S
O744 Mn720 2.385 . S
O744 C722 1.234 . S
O745 Mn720 2.209 . S
O745 Mn721 2.215 . S
O745 C722 1.283 . S
O746 Mn720 2.094 . S
O746 C724 1.240 . S
O747 Mn721 2.117 . S
O747 C724 1.264 . S
C748 C741 1.403 . S
C748 C749 1.399 . S
C748 H754 0.929 . S
C749 C729 1.449 . S
C749 C748 1.399 . S
C749 H755 0.930 . S
H750 C730 0.931 . S
H751 C731 0.930 . S
H752 C739 0.931 . S
H753 C740 0.929 . S
H754 C748 0.929 . S
H755 C749 0.930 . S
Mn756 O761 2.095 . S
Mn756 O771 2.162 . S
Mn756 O772 2.297 . S
Mn756 O780 2.385 . S
Mn756 O781 2.209 . S
Mn756 O782 2.094 . S
Mn757 O762 2.121 . S
Mn757 N764 2.257 . S
Mn757 N773 2.282 . S
Mn757 O781 2.215 . S
Mn757 O783 2.117 . S
C758 O780 1.234 . S
C758 O781 1.283 . S
C759 O771 1.281 . S
C759 O772 1.236 . S
C760 O782 1.240 . S
C760 O783 1.264 . S
O761 Mn756 2.095 . S
O761 C770 1.250 . S
O762 Mn757 2.121 . S
O762 C770 1.258 . S
C763 N764 1.326 . S
C763 C767 1.460 . S
C763 H769 0.929 . S
N764 Mn757 2.257 . S
N764 C763 1.326 . S
N764 C768 1.362 . S
C765 C766 1.258 . S
C765 C768 1.431 . S
C765 C785 1.449 . S
C766 C765 1.258 . S
C766 C767 1.477 . S
C766 H786 0.931 . S
C767 C763 1.460 . S
C767 C766 1.477 . S
C767 H787 0.930 . S
C768 N764 1.362 . S
C768 C765 1.431 . S
C768 C778 1.476 . S
H769 C763 0.929 . S
C770 O761 1.250 . S
C770 O762 1.258 . S
O771 Mn756 2.162 . S
O771 C759 1.281 . S
O772 Mn756 2.297 . S
O772 C759 1.236 . S
N773 Mn757 2.282 . S
N773 C774 1.328 . S
N773 C778 1.318 . S
C774 N773 1.328 . S
C774 C775 1.457 . S
C774 H779 0.929 . S
C775 C774 1.457 . S
C775 C776 1.291 . S
C775 H788 0.931 . S
C776 C775 1.291 . S
C776 C777 1.373 . S
C776 H789 0.929 . S
C777 C776 1.373 . S
C777 C778 1.396 . S
C777 C784 1.403 . S
C778 C768 1.476 . S
C778 N773 1.318 . S
C778 C777 1.396 . S
H779 C774 0.929 . S
O780 Mn756 2.385 . S
O780 C758 1.234 . S
O781 Mn756 2.209 . S
O781 Mn757 2.215 . S
O781 C758 1.283 . S
O782 Mn756 2.094 . S
O782 C760 1.240 . S
O783 Mn757 2.117 . S
O783 C760 1.264 . S
C784 C777 1.403 . S
C784 C785 1.399 . S
C784 H790 0.929 . S
C785 C765 1.449 . S
C785 C784 1.399 . S
C785 H791 0.930 . S
H786 C766 0.931 . S
H787 C767 0.930 . S
H788 C775 0.931 . S
H789 C776 0.929 . S
H790 C784 0.929 . S
H791 C785 0.930 . S
Mn792 O797 2.095 . S
Mn792 O807 2.162 . S
Mn792 O808 2.297 . S
Mn792 O816 2.385 . S
Mn792 O817 2.209 . S
Mn792 O818 2.094 . S
Mn793 O798 2.121 . S
Mn793 N800 2.257 . S
Mn793 N809 2.282 . S
Mn793 O817 2.215 . S
Mn793 O819 2.117 . S
C794 O816 1.234 . S
C794 O817 1.283 . S
C795 O807 1.281 . S
C795 O808 1.236 . S
C796 O818 1.240 . S
C796 O819 1.264 . S
O797 Mn792 2.095 . S
O797 C806 1.250 . S
O798 Mn793 2.121 . S
O798 C806 1.258 . S
C799 N800 1.326 . S
C799 C803 1.460 . S
C799 H805 0.929 . S
N800 Mn793 2.257 . S
N800 C799 1.326 . S
N800 C804 1.362 . S
C801 C802 1.258 . S
C801 C804 1.431 . S
C801 C821 1.449 . S
C802 C801 1.258 . S
C802 C803 1.477 . S
C802 H822 0.931 . S
C803 C799 1.460 . S
C803 C802 1.477 . S
C803 H823 0.930 . S
C804 N800 1.362 . S
C804 C801 1.431 . S
C804 C814 1.476 . S
H805 C799 0.929 . S
C806 O797 1.250 . S
C806 O798 1.258 . S
O807 Mn792 2.162 . S
O807 C795 1.281 . S
O808 Mn792 2.297 . S
O808 C795 1.236 . S
N809 Mn793 2.282 . S
N809 C810 1.328 . S
N809 C814 1.318 . S
C810 N809 1.328 . S
C810 C811 1.457 . S
C810 H815 0.929 . S
C811 C810 1.457 . S
C811 C812 1.291 . S
C811 H824 0.931 . S
C812 C811 1.291 . S
C812 C813 1.373 . S
C812 H825 0.929 . S
C813 C812 1.373 . S
C813 C814 1.396 . S
C813 C820 1.403 . S
C814 C804 1.476 . S
C814 N809 1.318 . S
C814 C813 1.396 . S
H815 C810 0.929 . S
O816 Mn792 2.385 . S
O816 C794 1.234 . S
O817 Mn792 2.209 . S
O817 Mn793 2.215 . S
O817 C794 1.283 . S
O818 Mn792 2.094 . S
O818 C796 1.240 . S
O819 Mn793 2.117 . S
O819 C796 1.264 . S
C820 C813 1.403 . S
C820 C821 1.399 . S
C820 H826 0.929 . S
C821 C801 1.449 . S
C821 C820 1.399 . S
C821 H827 0.930 . S
H822 C802 0.931 . S
H823 C803 0.930 . S
H824 C811 0.931 . S
H825 C812 0.929 . S
H826 C820 0.929 . S
H827 C821 0.930 . S
Mn828 O833 2.095 . S
Mn828 O843 2.162 . S
Mn828 O844 2.297 . S
Mn828 O852 2.385 . S
Mn828 O853 2.209 . S
Mn828 O854 2.094 . S
Mn829 O834 2.121 . S
Mn829 N836 2.257 . S
Mn829 N845 2.282 . S
Mn829 O853 2.215 . S
Mn829 O855 2.117 . S
C830 O852 1.234 . S
C830 O853 1.283 . S
C831 O843 1.281 . S
C831 O844 1.236 . S
C832 O854 1.240 . S
C832 O855 1.264 . S
O833 Mn828 2.095 . S
O833 C842 1.250 . S
O834 Mn829 2.121 . S
O834 C842 1.258 . S
C835 N836 1.326 . S
C835 C839 1.460 . S
C835 H841 0.929 . S
N836 Mn829 2.257 . S
N836 C835 1.326 . S
N836 C840 1.362 . S
C837 C838 1.258 . S
C837 C840 1.431 . S
C837 C857 1.449 . S
C838 C837 1.258 . S
C838 C839 1.477 . S
C838 H858 0.931 . S
C839 C835 1.460 . S
C839 C838 1.477 . S
C839 H859 0.930 . S
C840 N836 1.362 . S
C840 C837 1.431 . S
C840 C850 1.476 . S
H841 C835 0.929 . S
C842 O833 1.250 . S
C842 O834 1.258 . S
O843 Mn828 2.162 . S
O843 C831 1.281 . S
O844 Mn828 2.297 . S
O844 C831 1.236 . S
N845 Mn829 2.282 . S
N845 C846 1.328 . S
N845 C850 1.318 . S
C846 N845 1.328 . S
C846 C847 1.457 . S
C846 H851 0.929 . S
C847 C846 1.457 . S
C847 C848 1.291 . S
C847 H860 0.931 . S
C848 C847 1.291 . S
C848 C849 1.373 . S
C848 H861 0.929 . S
C849 C848 1.373 . S
C849 C850 1.396 . S
C849 C856 1.403 . S
C850 C840 1.476 . S
C850 N845 1.318 . S
C850 C849 1.396 . S
H851 C846 0.929 . S
O852 Mn828 2.385 . S
O852 C830 1.234 . S
O853 Mn828 2.209 . S
O853 Mn829 2.215 . S
O853 C830 1.283 . S
O854 Mn828 2.094 . S
O854 C832 1.240 . S
O855 Mn829 2.117 . S
O855 C832 1.264 . S
C856 C849 1.403 . S
C856 C857 1.399 . S
C856 H862 0.929 . S
C857 C837 1.449 . S
C857 C856 1.399 . S
C857 H863 0.930 . S
H858 C838 0.931 . S
H859 C839 0.930 . S
H860 C847 0.931 . S
H861 C848 0.929 . S
H862 C856 0.929 . S
H863 C857 0.930 . S
C864 C865 1.363 . S
C864 C870 1.379 . S
C864 N872 1.356 . S
C865 C864 1.363 . S
C865 C871 1.363 . S
C866 C867 1.363 . S
C866 C871 1.379 . S
C866 N873 1.356 1_545 S
C867 C866 1.363 . S
C867 C870 1.363 . S
N868 C870 1.356 . S
N868 H880 0.984 . S
N868 H881 0.985 . S
N869 C871 1.356 1_565 S
N869 H874 0.984 1_565 S
N869 H875 0.985 . S
C870 C864 1.379 . S
C870 C867 1.363 . S
C870 N868 1.356 . S
C871 C865 1.363 . S
C871 C866 1.379 . S
C871 N869 1.356 1_545 S
N872 C864 1.356 . S
N872 H878 0.984 . S
N872 H879 0.984 . S
N873 C866 1.356 1_565 S
N873 H876 0.984 1_565 S
N873 H877 0.985 . S
H874 N869 0.984 1_545 S
H875 N869 0.985 . S
H876 N873 0.984 1_545 S
H877 N873 0.985 . S
H878 N872 0.984 . S
H879 N872 0.984 . S
H880 N868 0.984 . S
H881 N868 0.985 . S
C882 C883 1.363 . S
C882 C888 1.379 . S
C882 N890 1.356 . S
C883 C882 1.363 . S
C883 C889 1.363 . S
C884 C885 1.363 . S
C884 C889 1.379 . S
C884 N891 1.356 . S
C885 C884 1.363 . S
C885 C888 1.363 . S
N886 C888 1.356 . S
N886 H898 0.984 . S
N886 H899 0.985 . S
N887 C889 1.356 . S
N887 H892 0.984 . S
N887 H893 0.985 . S
C888 C882 1.379 . S
C888 C885 1.363 . S
C888 N886 1.356 . S
C889 C883 1.363 . S
C889 C884 1.379 . S
C889 N887 1.356 . S
N890 C882 1.356 . S
N890 H896 0.984 . S
N890 H897 0.984 . S
N891 C884 1.356 . S
N891 H894 0.984 . S
N891 H895 0.985 . S
H892 N887 0.984 . S
H893 N887 0.985 . S
H894 N891 0.984 . S
H895 N891 0.985 . S
H896 N890 0.984 . S
H897 N890 0.984 . S
H898 N886 0.984 . S
H899 N886 0.985 . S
C900 C901 1.363 . S
C900 C906 1.379 . S
C900 N908 1.356 . S
C901 C900 1.363 . S
C901 C907 1.363 . S
C902 C903 1.363 . S
C902 C907 1.379 . S
C902 N909 1.356 1_655 S
C903 C902 1.363 . S
C903 C906 1.363 . S
N904 C906 1.356 . S
N904 H916 0.984 . S
N904 H917 0.985 . S
N905 C907 1.356 1_455 S
N905 H910 0.984 . S
N905 H911 0.985 . S
C906 C900 1.379 . S
C906 C903 1.363 . S
C906 N904 1.356 . S
C907 C901 1.363 . S
C907 C902 1.379 . S
C907 N905 1.356 1_655 S
N908 C900 1.356 . S
N908 H914 0.984 . S
N908 H915 0.984 . S
N909 C902 1.356 1_455 S
N909 H912 0.984 . S
N909 H913 0.985 . S
H910 N905 0.984 . S
H911 N905 0.985 . S
H912 N909 0.984 . S
H913 N909 0.985 . S
H914 N908 0.984 . S
H915 N908 0.984 . S
H916 N904 0.984 . S
H917 N904 0.985 . S
C918 C919 1.363 . S
C918 C924 1.379 . S
C918 N926 1.356 . S
C919 C918 1.363 . S
C919 C925 1.363 . S
C920 C921 1.363 . S
C920 C925 1.379 . S
C920 N927 1.356 1_565 S
C921 C920 1.363 . S
C921 C924 1.363 . S
N922 C924 1.356 . S
N922 H934 0.984 . S
N922 H935 0.985 . S
N923 C925 1.356 1_545 S
N923 H928 0.984 1_545 S
N923 H929 0.985 . S
C924 C918 1.379 . S
C924 C921 1.363 . S
C924 N922 1.356 . S
C925 C919 1.363 . S
C925 C920 1.379 . S
C925 N923 1.356 1_565 S
N926 C918 1.356 . S
N926 H932 0.984 . S
N926 H933 0.984 . S
N927 C920 1.356 1_545 S
N927 H930 0.984 1_545 S
N927 H931 0.985 . S
H928 N923 0.984 1_565 S
H929 N923 0.985 . S
H930 N927 0.984 1_565 S
H931 N927 0.985 . S
H932 N926 0.984 . S
H933 N926 0.984 . S
H934 N922 0.984 . S
H935 N922 0.985 . S
C936 C937 1.363 . S
C936 C942 1.379 . S
C936 N944 1.356 . S
C937 C936 1.363 . S
C937 C943 1.363 . S
C938 C939 1.363 . S
C938 C943 1.379 . S
C938 N945 1.356 . S
C939 C938 1.363 . S
C939 C942 1.363 . S
N940 C942 1.356 . S
N940 H952 0.984 . S
N940 H953 0.985 . S
N941 C943 1.356 . S
N941 H946 0.984 . S
N941 H947 0.985 . S
C942 C936 1.379 . S
C942 C939 1.363 . S
C942 N940 1.356 . S
C943 C937 1.363 . S
C943 C938 1.379 . S
C943 N941 1.356 . S
N944 C936 1.356 . S
N944 H950 0.984 . S
N944 H951 0.984 . S
N945 C938 1.356 . S
N945 H948 0.984 . S
N945 H949 0.985 . S
H946 N941 0.984 . S
H947 N941 0.985 . S
H948 N945 0.984 . S
H949 N945 0.985 . S
H950 N944 0.984 . S
H951 N944 0.984 . S
H952 N940 0.984 . S
H953 N940 0.985 . S
C954 C955 1.363 . S
C954 C960 1.379 . S
C954 N962 1.356 1_455 S
C955 C954 1.363 . S
C955 C961 1.363 . S
C956 C957 1.363 . S
C956 C961 1.379 . S
C956 N963 1.356 . S
C957 C956 1.363 . S
C957 C960 1.363 . S
N958 C960 1.356 1_655 S
N958 H970 0.984 . S
N958 H971 0.985 . S
N959 C961 1.356 . S
N959 H964 0.984 . S
N959 H965 0.985 . S
C960 C954 1.379 . S
C960 C957 1.363 . S
C960 N958 1.356 1_455 S
C961 C955 1.363 . S
C961 C956 1.379 . S
C961 N959 1.356 . S
N962 C954 1.356 1_655 S
N962 H968 0.984 . S
N962 H969 0.984 . S
N963 C956 1.356 . S
N963 H966 0.984 . S
N963 H967 0.985 . S
H964 N959 0.984 . S
H965 N959 0.985 . S
H966 N963 0.984 . S
H967 N963 0.985 . S
H968 N962 0.984 . S
H969 N962 0.984 . S
H970 N958 0.984 . S
H971 N958 0.985 . S
C972 C973 1.363 . S
C972 C978 1.379 . S
C972 N980 1.356 1_655 S
C973 C972 1.363 . S
C973 C979 1.363 . S
C974 C975 1.363 . S
C974 C979 1.379 . S
C974 N981 1.356 . S
C975 C974 1.363 . S
C975 C978 1.363 . S
N976 C978 1.356 1_455 S
N976 H988 0.984 . S
N976 H989 0.985 . S
N977 C979 1.356 . S
N977 H982 0.984 . S
N977 H983 0.985 . S
C978 C972 1.379 . S
C978 C975 1.363 . S
C978 N976 1.356 1_655 S
C979 C973 1.363 . S
C979 C974 1.379 . S
C979 N977 1.356 . S
N980 C972 1.356 1_455 S
N980 H986 0.984 . S
N980 H987 0.984 . S
N981 C974 1.356 . S
N981 H984 0.984 . S
N981 H985 0.985 . S
H982 N977 0.984 . S
H983 N977 0.985 . S
H984 N981 0.984 . S
H985 N981 0.985 . S
H986 N980 0.984 . S
H987 N980 0.984 . S
H988 N976 0.984 . S
H989 N976 0.985 . S
C990 C991 1.363 . S
C990 C996 1.379 . S
C990 N998 1.356 . S
C991 C990 1.363 . S
C991 C997 1.363 . S
C992 C993 1.363 . S
C992 C997 1.379 . S
C992 N999 1.356 1_565 S
C993 C992 1.363 . S
C993 C996 1.363 . S
N994 C996 1.356 . S
N994 H1006 0.984 . S
N994 H1007 0.985 . S
N995 C997 1.356 1_545 S
N995 H1000 0.984 1_545 S
N995 H1001 0.985 . S
C996 C990 1.379 . S
C996 C993 1.363 . S
C996 N994 1.356 . S
C997 C991 1.363 . S
C997 C992 1.379 . S
C997 N995 1.356 1_565 S
N998 C990 1.356 . S
N998 H1004 0.984 . S
N998 H1005 0.984 . S
N999 C992 1.356 1_545 S
N999 H1002 0.984 1_545 S
N999 H1003 0.985 . S
H1000 N995 0.984 1_565 S
H1001 N995 0.985 . S
H1002 N999 0.984 1_565 S
H1003 N999 0.985 . S
H1004 N998 0.984 . S
H1005 N998 0.984 . S
H1006 N994 0.984 . S
H1007 N994 0.985 . S
C1008 C1009 1.363 . S
C1008 C1014 1.379 . S
C1008 N1016 1.356 . S
C1009 C1008 1.363 . S
C1009 C1015 1.363 . S
C1010 C1011 1.363 . S
C1010 C1015 1.379 . S
C1010 N1017 1.356 . S
C1011 C1010 1.363 . S
C1011 C1014 1.363 . S
N1012 C1014 1.356 . S
N1012 H1024 0.984 . S
N1012 H1025 0.985 . S
N1013 C1015 1.356 . S
N1013 H1018 0.984 . S
N1013 H1019 0.985 . S
C1014 C1008 1.379 . S
C1014 C1011 1.363 . S
C1014 N1012 1.356 . S
C1015 C1009 1.363 . S
C1015 C1010 1.379 . S
C1015 N1013 1.356 . S
N1016 C1008 1.356 . S
N1016 H1022 0.984 . S
N1016 H1023 0.984 . S
N1017 C1010 1.356 . S
N1017 H1020 0.984 . S
N1017 H1021 0.985 . S
H1018 N1013 0.984 . S
H1019 N1013 0.985 . S
H1020 N1017 0.984 . S
H1021 N1017 0.985 . S
H1022 N1016 0.984 . S
H1023 N1016 0.984 . S
H1024 N1012 0.984 . S
H1025 N1012 0.985 . S
C1026 C1027 1.363 . S
C1026 C1032 1.379 . S
C1026 N1034 1.356 . S
C1027 C1026 1.363 . S
C1027 C1033 1.363 . S
C1028 C1029 1.363 . S
C1028 C1033 1.379 . S
C1028 N1035 1.356 1_455 S
C1029 C1028 1.363 . S
C1029 C1032 1.363 . S
N1030 C1032 1.356 . S
N1030 H1042 0.984 . S
N1030 H1043 0.985 . S
N1031 C1033 1.356 1_655 S
N1031 H1036 0.984 . S
N1031 H1037 0.985 . S
C1032 C1026 1.379 . S
C1032 C1029 1.363 . S
C1032 N1030 1.356 . S
C1033 C1027 1.363 . S
C1033 C1028 1.379 . S
C1033 N1031 1.356 1_455 S
N1034 C1026 1.356 . S
N1034 H1040 0.984 . S
N1034 H1041 0.984 . S
N1035 C1028 1.356 1_655 S
N1035 H1038 0.984 . S
N1035 H1039 0.985 . S
H1036 N1031 0.984 . S
H1037 N1031 0.985 . S
H1038 N1035 0.984 . S
H1039 N1035 0.985 . S
H1040 N1034 0.984 . S
H1041 N1034 0.984 . S
H1042 N1030 0.984 . S
H1043 N1030 0.985 . S
C1044 C1045 1.363 . S
C1044 C1050 1.379 . S
C1044 N1052 1.356 . S
C1045 C1044 1.363 . S
C1045 C1051 1.363 . S
C1046 C1047 1.363 . S
C1046 C1051 1.379 . S
C1046 N1053 1.356 1_545 S
C1047 C1046 1.363 . S
C1047 C1050 1.363 . S
N1048 C1050 1.356 . S
N1048 H1060 0.984 . S
N1048 H1061 0.985 . S
N1049 C1051 1.356 1_565 S
N1049 H1054 0.984 1_565 S
N1049 H1055 0.985 . S
C1050 C1044 1.379 . S
C1050 C1047 1.363 . S
C1050 N1048 1.356 . S
C1051 C1045 1.363 . S
C1051 C1046 1.379 . S
C1051 N1049 1.356 1_545 S
N1052 C1044 1.356 . S
N1052 H1058 0.984 . S
N1052 H1059 0.984 . S
N1053 C1046 1.356 1_565 S
N1053 H1056 0.984 1_565 S
N1053 H1057 0.985 . S
H1054 N1049 0.984 1_545 S
H1055 N1049 0.985 . S
H1056 N1053 0.984 1_545 S
H1057 N1053 0.985 . S
H1058 N1052 0.984 . S
H1059 N1052 0.984 . S
H1060 N1048 0.984 . S
H1061 N1048 0.985 . S
C1062 C1063 1.363 . S
C1062 C1068 1.379 . S
C1062 N1070 1.356 . S
C1063 C1062 1.363 . S
C1063 C1069 1.363 . S
C1064 C1065 1.363 . S
C1064 C1069 1.379 . S
C1064 N1071 1.356 . S
C1065 C1064 1.363 . S
C1065 C1068 1.363 . S
N1066 C1068 1.356 . S
N1066 H1078 0.984 . S
N1066 H1079 0.985 . S
N1067 C1069 1.356 . S
N1067 H1072 0.984 . S
N1067 H1073 0.985 . S
C1068 C1062 1.379 . S
C1068 C1065 1.363 . S
C1068 N1066 1.356 . S
C1069 C1063 1.363 . S
C1069 C1064 1.379 . S
C1069 N1067 1.356 . S
N1070 C1062 1.356 . S
N1070 H1076 0.984 . S
N1070 H1077 0.984 . S
N1071 C1064 1.356 . S
N1071 H1074 0.984 . S
N1071 H1075 0.985 . S
H1072 N1067 0.984 . S
H1073 N1067 0.985 . S
H1074 N1071 0.984 . S
H1075 N1071 0.985 . S
H1076 N1070 0.984 . S
H1077 N1070 0.984 . S
H1078 N1066 0.984 . S
H1079 N1066 0.985 . S
C1080 C1081 1.363 . S
C1080 C1086 1.379 . S
C1080 N1088 1.356 . S
C1081 C1080 1.363 . S
C1081 C1087 1.363 . S
C1082 C1083 1.363 . S
C1082 C1087 1.379 . S
C1082 N1089 1.356 . S
C1083 C1082 1.363 . S
C1083 C1086 1.363 . S
N1084 C1086 1.356 . S
N1084 H1096 0.984 . S
N1084 H1097 0.985 . S
N1085 C1087 1.356 . S
N1085 H1090 0.984 . S
N1085 H1091 0.985 . S
C1086 C1080 1.379 . S
C1086 C1083 1.363 . S
C1086 N1084 1.356 . S
C1087 C1081 1.363 . S
C1087 C1082 1.379 . S
C1087 N1085 1.356 . S
N1088 C1080 1.356 . S
N1088 H1094 0.984 . S
N1088 H1095 0.984 . S
N1089 C1082 1.356 . S
N1089 H1092 0.984 . S
N1089 H1093 0.985 . S
H1090 N1085 0.984 . S
H1091 N1085 0.985 . S
H1092 N1089 0.984 . S
H1093 N1089 0.985 . S
H1094 N1088 0.984 . S
H1095 N1088 0.984 . S
H1096 N1084 0.984 . S
H1097 N1084 0.985 . S
C1098 C1099 1.363 . S
C1098 C1104 1.379 . S
C1098 N1106 1.356 . S
C1099 C1098 1.363 . S
C1099 C1105 1.363 . S
C1100 C1101 1.363 . S
C1100 C1105 1.379 . S
C1100 N1107 1.356 . S
C1101 C1100 1.363 . S
C1101 C1104 1.363 . S
N1102 C1104 1.356 . S
N1102 H1114 0.984 . S
N1102 H1115 0.985 . S
N1103 C1105 1.356 . S
N1103 H1108 0.984 . S
N1103 H1109 0.985 . S
C1104 C1098 1.379 . S
C1104 C1101 1.363 . S
C1104 N1102 1.356 . S
C1105 C1099 1.363 . S
C1105 C1100 1.379 . S
C1105 N1103 1.356 . S
N1106 C1098 1.356 . S
N1106 H1112 0.984 . S
N1106 H1113 0.984 . S
N1107 C1100 1.356 . S
N1107 H1110 0.984 . S
N1107 H1111 0.985 . S
H1108 N1103 0.984 . S
H1109 N1103 0.985 . S
H1110 N1107 0.984 . S
H1111 N1107 0.985 . S
H1112 N1106 0.984 . S
H1113 N1106 0.984 . S
H1114 N1102 0.984 . S
H1115 N1102 0.985 . S
C1116 C1117 1.363 . S
C1116 C1122 1.379 . S
C1116 N1124 1.356 . S
C1117 C1116 1.363 . S
C1117 C1123 1.363 . S
C1118 C1119 1.363 . S
C1118 C1123 1.379 . S
C1118 N1125 1.356 . S
C1119 C1118 1.363 . S
C1119 C1122 1.363 . S
N1120 C1122 1.356 . S
N1120 H1132 0.984 . S
N1120 H1133 0.985 . S
N1121 C1123 1.356 . S
N1121 H1126 0.984 . S
N1121 H1127 0.985 . S
C1122 C1116 1.379 . S
C1122 C1119 1.363 . S
C1122 N1120 1.356 . S
C1123 C1117 1.363 . S
C1123 C1118 1.379 . S
C1123 N1121 1.356 . S
N1124 C1116 1.356 . S
N1124 H1130 0.984 . S
N1124 H1131 0.984 . S
N1125 C1118 1.356 . S
N1125 H1128 0.984 . S
N1125 H1129 0.985 . S
H1126 N1121 0.984 . S
H1127 N1121 0.985 . S
H1128 N1125 0.984 . S
H1129 N1125 0.985 . S
H1130 N1124 0.984 . S
H1131 N1124 0.984 . S
H1132 N1120 0.984 . S
H1133 N1120 0.985 . S
C1134 C1135 1.363 . S
C1134 C1140 1.379 . S
C1134 N1142 1.356 . S
C1135 C1134 1.363 . S
C1135 C1141 1.363 . S
C1136 C1137 1.363 . S
C1136 C1141 1.379 . S
C1136 N1143 1.356 . S
C1137 C1136 1.363 . S
C1137 C1140 1.363 . S
N1138 C1140 1.356 . S
N1138 H1150 0.984 . S
N1138 H1151 0.985 . S
N1139 C1141 1.356 . S
N1139 H1144 0.984 . S
N1139 H1145 0.985 . S
C1140 C1134 1.379 . S
C1140 C1137 1.363 . S
C1140 N1138 1.356 . S
C1141 C1135 1.363 . S
C1141 C1136 1.379 . S
C1141 N1139 1.356 . S
N1142 C1134 1.356 . S
N1142 H1148 0.984 . S
N1142 H1149 0.984 . S
N1143 C1136 1.356 . S
N1143 H1146 0.984 . S
N1143 H1147 0.985 . S
H1144 N1139 0.984 . S
H1145 N1139 0.985 . S
H1146 N1143 0.984 . S
H1147 N1143 0.985 . S
H1148 N1142 0.984 . S
H1149 N1142 0.984 . S
H1150 N1138 0.984 . S
H1151 N1138 0.985 . S
C1152 C1153 1.363 . S
C1152 C1158 1.379 . S
C1152 N1160 1.356 . S
C1153 C1152 1.363 . S
C1153 C1159 1.363 . S
C1154 C1155 1.363 . S
C1154 C1159 1.379 . S
C1154 N1161 1.356 . S
C1155 C1154 1.363 . S
C1155 C1158 1.363 . S
N1156 C1158 1.356 . S
N1156 H1168 0.984 . S
N1156 H1169 0.985 . S
N1157 C1159 1.356 . S
N1157 H1162 0.984 . S
N1157 H1163 0.985 . S
C1158 C1152 1.379 . S
C1158 C1155 1.363 . S
C1158 N1156 1.356 . S
C1159 C1153 1.363 . S
C1159 C1154 1.379 . S
C1159 N1157 1.356 . S
N1160 C1152 1.356 . S
N1160 H1166 0.984 . S
N1160 H1167 0.984 . S
N1161 C1154 1.356 . S
N1161 H1164 0.984 . S
N1161 H1165 0.985 . S
H1162 N1157 0.984 . S
H1163 N1157 0.985 . S
H1164 N1161 0.984 . S
H1165 N1161 0.985 . S
H1166 N1160 0.984 . S
H1167 N1160 0.984 . S
H1168 N1156 0.984 . S
H1169 N1156 0.985 . S
C1170 C1171 1.363 . S
C1170 C1176 1.379 . S
C1170 N1178 1.356 . S
C1171 C1170 1.363 . S
C1171 C1177 1.363 . S
C1172 C1173 1.363 . S
C1172 C1177 1.379 . S
C1172 N1179 1.356 . S
C1173 C1172 1.363 . S
C1173 C1176 1.363 . S
N1174 C1176 1.356 . S
N1174 H1186 0.984 . S
N1174 H1187 0.985 . S
N1175 C1177 1.356 . S
N1175 H1180 0.984 . S
N1175 H1181 0.985 . S
C1176 C1170 1.379 . S
C1176 C1173 1.363 . S
C1176 N1174 1.356 . S
C1177 C1171 1.363 . S
C1177 C1172 1.379 . S
C1177 N1175 1.356 . S
N1178 C1170 1.356 . S
N1178 H1184 0.984 . S
N1178 H1185 0.984 . S
N1179 C1172 1.356 . S
N1179 H1182 0.984 . S
N1179 H1183 0.985 . S
H1180 N1175 0.984 . S
H1181 N1175 0.985 . S
H1182 N1179 0.984 . S
H1183 N1179 0.985 . S
H1184 N1178 0.984 . S
H1185 N1178 0.984 . S
H1186 N1174 0.984 . S
H1187 N1174 0.985 . S
C1188 C1189 1.363 . S
C1188 C1194 1.379 . S
C1188 N1196 1.356 . S
C1189 C1188 1.363 . S
C1189 C1195 1.363 . S
C1190 C1191 1.363 . S
C1190 C1195 1.379 . S
C1190 N1197 1.356 . S
C1191 C1190 1.363 . S
C1191 C1194 1.363 . S
N1192 C1194 1.356 . S
N1192 H1204 0.984 . S
N1192 H1205 0.985 . S
N1193 C1195 1.356 . S
N1193 H1198 0.984 . S
N1193 H1199 0.985 . S
C1194 C1188 1.379 . S
C1194 C1191 1.363 . S
C1194 N1192 1.356 . S
C1195 C1189 1.363 . S
C1195 C1190 1.379 . S
C1195 N1193 1.356 . S
N1196 C1188 1.356 . S
N1196 H1202 0.984 . S
N1196 H1203 0.984 . S
N1197 C1190 1.356 . S
N1197 H1200 0.984 . S
N1197 H1201 0.985 . S
H1198 N1193 0.984 . S
H1199 N1193 0.985 . S
H1200 N1197 0.984 . S
H1201 N1197 0.985 . S
H1202 N1196 0.984 . S
H1203 N1196 0.984 . S
H1204 N1192 0.984 . S
H1205 N1192 0.985 . S
C1206 C1207 1.363 . S
C1206 C1212 1.379 . S
C1206 N1214 1.356 . S
C1207 C1206 1.363 . S
C1207 C1213 1.363 . S
C1208 C1209 1.363 . S
C1208 C1213 1.379 . S
C1208 N1215 1.356 . S
C1209 C1208 1.363 . S
C1209 C1212 1.363 . S
N1210 C1212 1.356 . S
N1210 H1222 0.984 . S
N1210 H1223 0.985 . S
N1211 C1213 1.356 . S
N1211 H1216 0.984 . S
N1211 H1217 0.985 . S
C1212 C1206 1.379 . S
C1212 C1209 1.363 . S
C1212 N1210 1.356 . S
C1213 C1207 1.363 . S
C1213 C1208 1.379 . S
C1213 N1211 1.356 . S
N1214 C1206 1.356 . S
N1214 H1220 0.984 . S
N1214 H1221 0.984 . S
N1215 C1208 1.356 . S
N1215 H1218 0.984 . S
N1215 H1219 0.985 . S
H1216 N1211 0.984 . S
H1217 N1211 0.985 . S
H1218 N1215 0.984 . S
H1219 N1215 0.985 . S
H1220 N1214 0.984 . S
H1221 N1214 0.984 . S
H1222 N1210 0.984 . S
H1223 N1210 0.985 . S
C1224 C1225 1.363 . S
C1224 C1230 1.379 . S
C1224 N1232 1.356 . S
C1225 C1224 1.363 . S
C1225 C1231 1.363 . S
C1226 C1227 1.363 . S
C1226 C1231 1.379 . S
C1226 N1233 1.356 . S
C1227 C1226 1.363 . S
C1227 C1230 1.363 . S
N1228 C1230 1.356 . S
N1228 H1240 0.984 . S
N1228 H1241 0.985 . S
N1229 C1231 1.356 . S
N1229 H1234 0.984 . S
N1229 H1235 0.985 . S
C1230 C1224 1.379 . S
C1230 C1227 1.363 . S
C1230 N1228 1.356 . S
C1231 C1225 1.363 . S
C1231 C1226 1.379 . S
C1231 N1229 1.356 . S
N1232 C1224 1.356 . S
N1232 H1238 0.984 . S
N1232 H1239 0.984 . S
N1233 C1226 1.356 . S
N1233 H1236 0.984 . S
N1233 H1237 0.985 . S
H1234 N1229 0.984 . S
H1235 N1229 0.985 . S
H1236 N1233 0.984 . S
H1237 N1233 0.985 . S
H1238 N1232 0.984 . S
H1239 N1232 0.984 . S
H1240 N1228 0.984 . S
H1241 N1228 0.985 . S
C1242 C1243 1.363 . S
C1242 C1248 1.379 . S
C1242 N1250 1.356 . S
C1243 C1242 1.363 . S
C1243 C1249 1.363 . S
C1244 C1245 1.363 . S
C1244 C1249 1.379 . S
C1244 N1251 1.356 . S
C1245 C1244 1.363 . S
C1245 C1248 1.363 . S
N1246 C1248 1.356 . S
N1246 H1258 0.984 . S
N1246 H1259 0.985 . S
N1247 C1249 1.356 . S
N1247 H1252 0.984 . S
N1247 H1253 0.985 . S
C1248 C1242 1.379 . S
C1248 C1245 1.363 . S
C1248 N1246 1.356 . S
C1249 C1243 1.363 . S
C1249 C1244 1.379 . S
C1249 N1247 1.356 . S
N1250 C1242 1.356 . S
N1250 H1256 0.984 . S
N1250 H1257 0.984 . S
N1251 C1244 1.356 . S
N1251 H1254 0.984 . S
N1251 H1255 0.985 . S
H1252 N1247 0.984 . S
H1253 N1247 0.985 . S
H1254 N1251 0.984 . S
H1255 N1251 0.985 . S
H1256 N1250 0.984 . S
H1257 N1250 0.984 . S
H1258 N1246 0.984 . S
H1259 N1246 0.985 . S
C1260 C1261 1.363 . S
C1260 C1266 1.379 . S
C1260 N1268 1.356 . S
C1261 C1260 1.363 . S
C1261 C1267 1.363 . S
C1262 C1263 1.363 . S
C1262 C1267 1.379 . S
C1262 N1269 1.356 . S
C1263 C1262 1.363 . S
C1263 C1266 1.363 . S
N1264 C1266 1.356 . S
N1264 H1276 0.984 . S
N1264 H1277 0.985 . S
N1265 C1267 1.356 . S
N1265 H1270 0.984 . S
N1265 H1271 0.985 . S
C1266 C1260 1.379 . S
C1266 C1263 1.363 . S
C1266 N1264 1.356 . S
C1267 C1261 1.363 . S
C1267 C1262 1.379 . S
C1267 N1265 1.356 . S
N1268 C1260 1.356 . S
N1268 H1274 0.984 . S
N1268 H1275 0.984 . S
N1269 C1262 1.356 . S
N1269 H1272 0.984 . S
N1269 H1273 0.985 . S
H1270 N1265 0.984 . S
H1271 N1265 0.985 . S
H1272 N1269 0.984 . S
H1273 N1269 0.985 . S
H1274 N1268 0.984 . S
H1275 N1268 0.984 . S
H1276 N1264 0.984 . S
H1277 N1264 0.985 . S
C1278 C1279 1.363 . S
C1278 C1284 1.379 . S
C1278 N1286 1.356 . S
C1279 C1278 1.363 . S
C1279 C1285 1.363 . S
C1280 C1281 1.363 . S
C1280 C1285 1.379 . S
C1280 N1287 1.356 . S
C1281 C1280 1.363 . S
C1281 C1284 1.363 . S
N1282 C1284 1.356 . S
N1282 H1294 0.984 . S
N1282 H1295 0.985 . S
N1283 C1285 1.356 . S
N1283 H1288 0.984 . S
N1283 H1289 0.985 . S
C1284 C1278 1.379 . S
C1284 C1281 1.363 . S
C1284 N1282 1.356 . S
C1285 C1279 1.363 . S
C1285 C1280 1.379 . S
C1285 N1283 1.356 . S
N1286 C1278 1.356 . S
N1286 H1292 0.984 . S
N1286 H1293 0.984 . S
N1287 C1280 1.356 . S
N1287 H1290 0.984 . S
N1287 H1291 0.985 . S
H1288 N1283 0.984 . S
H1289 N1283 0.985 . S
H1290 N1287 0.984 . S
H1291 N1287 0.985 . S
H1292 N1286 0.984 . S
H1293 N1286 0.984 . S
H1294 N1282 0.984 . S
H1295 N1282 0.985 . S
C1296 C1297 1.363 . S
C1296 C1302 1.379 1_556 S
C1296 N1304 1.356 . S
C1297 C1296 1.363 . S
C1297 C1303 1.363 1_565 S
C1298 C1299 1.363 . S
C1298 C1303 1.379 1_554 S
C1298 N1305 1.356 . S
C1299 C1298 1.363 . S
C1299 C1302 1.363 1_545 S
N1300 C1302 1.356 . S
N1300 H1312 0.984 . S
N1300 H1313 0.985 . S
N1301 C1303 1.356 . S
N1301 H1306 0.984 . S
N1301 H1307 0.985 . S
C1302 C1296 1.379 1_554 S
C1302 C1299 1.363 1_565 S
C1302 N1300 1.356 . S
C1303 C1297 1.363 1_545 S
C1303 C1298 1.379 1_556 S
C1303 N1301 1.356 . S
N1304 C1296 1.356 . S
N1304 H1310 0.984 . S
N1304 H1311 0.984 . S
N1305 C1298 1.356 . S
N1305 H1308 0.984 . S
N1305 H1309 0.985 . S
H1306 N1301 0.984 . S
H1307 N1301 0.985 . S
H1308 N1305 0.984 . S
H1309 N1305 0.985 . S
H1310 N1304 0.984 . S
H1311 N1304 0.984 . S
H1312 N1300 0.984 . S
H1313 N1300 0.985 . S
C1314 C1315 1.363 . S
C1314 C1320 1.379 . S
C1314 N1322 1.356 . S
C1315 C1314 1.363 . S
C1315 C1321 1.363 . S
C1316 C1317 1.363 . S
C1316 C1321 1.379 . S
C1316 N1323 1.356 . S
C1317 C1316 1.363 . S
C1317 C1320 1.363 . S
N1318 C1320 1.356 . S
N1318 H1330 0.984 . S
N1318 H1331 0.985 . S
N1319 C1321 1.356 . S
N1319 H1324 0.984 . S
N1319 H1325 0.985 . S
C1320 C1314 1.379 . S
C1320 C1317 1.363 . S
C1320 N1318 1.356 . S
C1321 C1315 1.363 . S
C1321 C1316 1.379 . S
C1321 N1319 1.356 . S
N1322 C1314 1.356 . S
N1322 H1328 0.984 . S
N1322 H1329 0.984 . S
N1323 C1316 1.356 . S
N1323 H1326 0.984 . S
N1323 H1327 0.985 . S
H1324 N1319 0.984 . S
H1325 N1319 0.985 . S
H1326 N1323 0.984 . S
H1327 N1323 0.985 . S
H1328 N1322 0.984 . S
H1329 N1322 0.984 . S
H1330 N1318 0.984 . S
H1331 N1318 0.985 . S
C1332 C1333 1.363 . S
C1332 C1338 1.379 1_556 S
C1332 N1340 1.356 . S
C1333 C1332 1.363 . S
C1333 C1339 1.363 1_455 S
C1334 C1335 1.363 . S
C1334 C1339 1.379 1_554 S
C1334 N1341 1.356 . S
C1335 C1334 1.363 . S
C1335 C1338 1.363 1_655 S
N1336 C1338 1.356 . S
N1336 H1348 0.984 . S
N1336 H1349 0.985 . S
N1337 C1339 1.356 . S
N1337 H1342 0.984 . S
N1337 H1343 0.985 . S
C1338 C1332 1.379 1_554 S
C1338 C1335 1.363 1_455 S
C1338 N1336 1.356 . S
C1339 C1333 1.363 1_655 S
C1339 C1334 1.379 1_556 S
C1339 N1337 1.356 . S
N1340 C1332 1.356 . S
N1340 H1346 0.984 . S
N1340 H1347 0.984 . S
N1341 C1334 1.356 . S
N1341 H1344 0.984 . S
N1341 H1345 0.985 . S
H1342 N1337 0.984 . S
H1343 N1337 0.985 . S
H1344 N1341 0.984 . S
H1345 N1341 0.985 . S
H1346 N1340 0.984 . S
H1347 N1340 0.984 . S
H1348 N1336 0.984 . S
H1349 N1336 0.985 . S
C1350 C1351 1.363 . S
C1350 C1356 1.379 . S
C1350 N1358 1.356 . S
C1351 C1350 1.363 . S
C1351 C1357 1.363 1_545 S
C1352 C1353 1.363 . S
C1352 C1357 1.379 . S
C1352 N1359 1.356 . S
C1353 C1352 1.363 . S
C1353 C1356 1.363 1_565 S
N1354 C1356 1.356 . S
N1354 H1366 0.984 . S
N1354 H1367 0.985 . S
N1355 C1357 1.356 . S
N1355 H1360 0.984 . S
N1355 H1361 0.985 . S
C1356 C1350 1.379 . S
C1356 C1353 1.363 1_545 S
C1356 N1354 1.356 . S
C1357 C1351 1.363 1_565 S
C1357 C1352 1.379 . S
C1357 N1355 1.356 . S
N1358 C1350 1.356 . S
N1358 H1364 0.984 . S
N1358 H1365 0.984 . S
N1359 C1352 1.356 . S
N1359 H1362 0.984 . S
N1359 H1363 0.985 . S
H1360 N1355 0.984 . S
H1361 N1355 0.985 . S
H1362 N1359 0.984 . S
H1363 N1359 0.985 . S
H1364 N1358 0.984 . S
H1365 N1358 0.984 . S
H1366 N1354 0.984 . S
H1367 N1354 0.985 . S
C1368 C1369 1.363 . S
C1368 C1374 1.379 1_554 S
C1368 N1376 1.356 . S
C1369 C1368 1.363 . S
C1369 C1375 1.363 . S
C1370 C1371 1.363 . S
C1370 C1375 1.379 1_556 S
C1370 N1377 1.356 . S
C1371 C1370 1.363 . S
C1371 C1374 1.363 . S
N1372 C1374 1.356 . S
N1372 H1384 0.984 . S
N1372 H1385 0.985 . S
N1373 C1375 1.356 . S
N1373 H1378 0.984 . S
N1373 H1379 0.985 . S
C1374 C1368 1.379 1_556 S
C1374 C1371 1.363 . S
C1374 N1372 1.356 . S
C1375 C1369 1.363 . S
C1375 C1370 1.379 1_554 S
C1375 N1373 1.356 . S
N1376 C1368 1.356 . S
N1376 H1382 0.984 . S
N1376 H1383 0.984 . S
N1377 C1370 1.356 . S
N1377 H1380 0.984 . S
N1377 H1381 0.985 . S
H1378 N1373 0.984 . S
H1379 N1373 0.985 . S
H1380 N1377 0.984 . S
H1381 N1377 0.985 . S
H1382 N1376 0.984 . S
H1383 N1376 0.984 . S
H1384 N1372 0.984 . S
H1385 N1372 0.985 . S
C1386 C1387 1.363 . S
C1386 C1392 1.379 . S
C1386 N1394 1.356 . S
C1387 C1386 1.363 . S
C1387 C1393 1.363 1_455 S
C1388 C1389 1.363 . S
C1388 C1393 1.379 . S
C1388 N1395 1.356 . S
C1389 C1388 1.363 . S
C1389 C1392 1.363 1_655 S
N1390 C1392 1.356 . S
N1390 H1402 0.984 . S
N1390 H1403 0.985 . S
N1391 C1393 1.356 . S
N1391 H1396 0.984 . S
N1391 H1397 0.985 . S
C1392 C1386 1.379 . S
C1392 C1389 1.363 1_455 S
C1392 N1390 1.356 . S
C1393 C1387 1.363 1_655 S
C1393 C1388 1.379 . S
C1393 N1391 1.356 . S
N1394 C1386 1.356 . S
N1394 H1400 0.984 . S
N1394 H1401 0.984 . S
N1395 C1388 1.356 . S
N1395 H1398 0.984 . S
N1395 H1399 0.985 . S
H1396 N1391 0.984 . S
H1397 N1391 0.985 . S
H1398 N1395 0.984 . S
H1399 N1395 0.985 . S
H1400 N1394 0.984 . S
H1401 N1394 0.984 . S
H1402 N1390 0.984 . S
H1403 N1390 0.985 . S
C1404 C1405 1.363 . S
C1404 C1410 1.379 1_556 S
C1404 N1412 1.356 . S
C1405 C1404 1.363 . S
C1405 C1411 1.363 1_565 S
C1406 C1407 1.363 . S
C1406 C1411 1.379 1_554 S
C1406 N1413 1.356 . S
C1407 C1406 1.363 . S
C1407 C1410 1.363 1_545 S
N1408 C1410 1.356 . S
N1408 H1420 0.984 . S
N1408 H1421 0.985 . S
N1409 C1411 1.356 . S
N1409 H1414 0.984 . S
N1409 H1415 0.985 . S
C1410 C1404 1.379 1_554 S
C1410 C1407 1.363 1_565 S
C1410 N1408 1.356 . S
C1411 C1405 1.363 1_545 S
C1411 C1406 1.379 1_556 S
C1411 N1409 1.356 . S
N1412 C1404 1.356 . S
N1412 H1418 0.984 . S
N1412 H1419 0.984 . S
N1413 C1406 1.356 . S
N1413 H1416 0.984 . S
N1413 H1417 0.985 . S
H1414 N1409 0.984 . S
H1415 N1409 0.985 . S
H1416 N1413 0.984 . S
H1417 N1413 0.985 . S
H1418 N1412 0.984 . S
H1419 N1412 0.984 . S
H1420 N1408 0.984 . S
H1421 N1408 0.985 . S
C1422 C1423 1.363 . S
C1422 C1428 1.379 . S
C1422 N1430 1.356 . S
C1423 C1422 1.363 . S
C1423 C1429 1.363 . S
C1424 C1425 1.363 . S
C1424 C1429 1.379 . S
C1424 N1431 1.356 . S
C1425 C1424 1.363 . S
C1425 C1428 1.363 . S
N1426 C1428 1.356 . S
N1426 H1438 0.984 . S
N1426 H1439 0.985 . S
N1427 C1429 1.356 . S
N1427 H1432 0.984 . S
N1427 H1433 0.985 . S
C1428 C1422 1.379 . S
C1428 C1425 1.363 . S
C1428 N1426 1.356 . S
C1429 C1423 1.363 . S
C1429 C1424 1.379 . S
C1429 N1427 1.356 . S
N1430 C1422 1.356 . S
N1430 H1436 0.984 . S
N1430 H1437 0.984 . S
N1431 C1424 1.356 . S
N1431 H1434 0.984 . S
N1431 H1435 0.985 . S
H1432 N1427 0.984 . S
H1433 N1427 0.985 . S
H1434 N1431 0.984 . S
H1435 N1431 0.985 . S
H1436 N1430 0.984 . S
H1437 N1430 0.984 . S
H1438 N1426 0.984 . S
H1439 N1426 0.985 . S
C1440 C1441 1.363 . S
C1440 C1446 1.379 1_554 S
C1440 N1448 1.356 . S
C1441 C1440 1.363 . S
C1441 C1447 1.363 1_655 S
C1442 C1443 1.363 . S
C1442 C1447 1.379 1_556 S
C1442 N1449 1.356 . S
C1443 C1442 1.363 . S
C1443 C1446 1.363 1_455 S
N1444 C1446 1.347 . S
N1444 H1456 1.006 . S
N1444 H1457 0.974 1_655 S
N1445 C1447 1.347 . S
N1445 H1450 0.974 1_455 S
N1445 H1451 1.006 . S
C1446 C1440 1.379 1_556 S
C1446 C1443 1.363 1_655 S
C1446 N1444 1.347 . S
C1447 C1441 1.363 1_455 S
C1447 C1442 1.379 1_554 S
C1447 N1445 1.347 . S
N1448 C1440 1.356 . S
N1448 H1454 0.984 . S
N1448 H1455 0.984 . S
N1449 C1442 1.356 . S
N1449 H1452 0.984 . S
N1449 H1453 0.985 . S
H1450 N1445 0.974 1_655 S
H1451 N1445 1.006 . S
H1452 N1449 0.984 . S
H1453 N1449 0.985 . S
H1454 N1448 0.984 . S
H1455 N1448 0.984 . S
H1456 N1444 1.006 . S
H1457 N1444 0.974 1_455 S
C1458 C1459 1.363 1_545 S
C1458 C1464 1.379 . S
C1458 N1466 1.356 . S
C1459 C1458 1.363 1_565 S
C1459 C1465 1.363 . S
C1460 C1461 1.363 1_565 S
C1460 C1465 1.379 . S
C1460 N1467 1.356 . S
C1461 C1460 1.363 1_545 S
C1461 C1464 1.363 . S
N1462 C1464 1.356 . S
N1462 H1474 0.984 . S
N1462 H1475 0.985 . S
N1463 C1465 1.356 . S
N1463 H1468 0.984 . S
N1463 H1469 0.985 . S
C1464 C1458 1.379 . S
C1464 C1461 1.363 . S
C1464 N1462 1.356 . S
C1465 C1459 1.363 . S
C1465 C1460 1.379 . S
C1465 N1463 1.356 . S
N1466 C1458 1.356 . S
N1466 H1472 0.984 . S
N1466 H1473 0.984 . S
N1467 C1460 1.356 . S
N1467 H1470 0.984 . S
N1467 H1471 0.985 . S
H1468 N1463 0.984 . S
H1469 N1463 0.985 . S
H1470 N1467 0.984 . S
H1471 N1467 0.985 . S
H1472 N1466 0.984 . S
H1473 N1466 0.984 . S
H1474 N1462 0.984 . S
H1475 N1462 0.985 . S
C1476 C1477 1.363 . S
C1476 C1482 1.379 1_554 S
C1476 N1484 1.356 . S
C1477 C1476 1.363 . S
C1477 C1483 1.363 . S
C1478 C1479 1.363 . S
C1478 C1483 1.379 1_556 S
C1478 N1485 1.356 . S
C1479 C1478 1.363 . S
C1479 C1482 1.363 . S
N1480 C1482 1.356 . S
N1480 H1492 0.984 . S
N1480 H1493 0.985 . S
N1481 C1483 1.356 . S
N1481 H1486 0.984 . S
N1481 H1487 0.985 . S
C1482 C1476 1.379 1_556 S
C1482 C1479 1.363 . S
C1482 N1480 1.356 . S
C1483 C1477 1.363 . S
C1483 C1478 1.379 1_554 S
C1483 N1481 1.356 . S
N1484 C1476 1.356 . S
N1484 H1490 0.984 . S
N1484 H1491 0.984 . S
N1485 C1478 1.356 . S
N1485 H1488 0.984 . S
N1485 H1489 0.985 . S
H1486 N1481 0.984 . S
H1487 N1481 0.985 . S
H1488 N1485 0.984 . S
H1489 N1485 0.985 . S
H1490 N1484 0.984 . S
H1491 N1484 0.984 . S
H1492 N1480 0.984 . S
H1493 N1480 0.985 . S
C1494 C1495 1.363 . S
C1494 C1500 1.379 1_455 S
C1494 N1502 1.356 . S
C1495 C1494 1.363 . S
C1495 C1501 1.363 . S
C1496 C1497 1.363 . S
C1496 C1501 1.379 1_655 S
C1496 N1503 1.356 . S
C1497 C1496 1.363 . S
C1497 C1500 1.363 . S
N1498 C1500 1.356 . S
N1498 H1510 0.984 . S
N1498 H1511 0.985 . S
N1499 C1501 1.356 . S
N1499 H1504 0.984 . S
N1499 H1505 0.985 . S
C1500 C1494 1.379 1_655 S
C1500 C1497 1.363 . S
C1500 N1498 1.356 . S
C1501 C1495 1.363 . S
C1501 C1496 1.379 1_455 S
C1501 N1499 1.356 . S
N1502 C1494 1.356 . S
N1502 H1508 0.984 . S
N1502 H1509 0.984 . S
N1503 C1496 1.356 . S
N1503 H1506 0.984 . S
N1503 H1507 0.985 . S
H1504 N1499 0.984 . S
H1505 N1499 0.985 . S
H1506 N1503 0.984 . S
H1507 N1503 0.985 . S
H1508 N1502 0.984 . S
H1509 N1502 0.984 . S
H1510 N1498 0.984 . S
H1511 N1498 0.985 . S
C1512 C1513 1.363 . S
C1512 C1518 1.379 . S
C1512 N1520 1.356 . S
C1513 C1512 1.363 . S
C1513 C1519 1.363 . S
C1514 C1515 1.363 . S
C1514 C1519 1.379 . S
C1514 N1521 1.356 . S
C1515 C1514 1.363 . S
C1515 C1518 1.363 . S
N1516 C1518 1.356 . S
N1516 H1528 0.984 . S
N1516 H1529 0.985 . S
N1517 C1519 1.356 . S
N1517 H1522 0.984 . S
N1517 H1523 0.985 . S
C1518 C1512 1.379 . S
C1518 C1515 1.363 . S
C1518 N1516 1.356 . S
C1519 C1513 1.363 . S
C1519 C1514 1.379 . S
C1519 N1517 1.356 . S
N1520 C1512 1.356 . S
N1520 H1526 0.984 . S
N1520 H1527 0.984 . S
N1521 C1514 1.356 . S
N1521 H1524 0.984 . S
N1521 H1525 0.985 . S
H1522 N1517 0.984 . S
H1523 N1517 0.985 . S
H1524 N1521 0.984 . S
H1525 N1521 0.985 . S
H1526 N1520 0.984 . S
H1527 N1520 0.984 . S
H1528 N1516 0.984 . S
H1529 N1516 0.985 . S
C1530 C1531 1.363 . S
C1530 C1536 1.379 . S
C1530 N1538 1.356 . S
C1531 C1530 1.363 . S
C1531 C1537 1.363 . S
C1532 C1533 1.363 . S
C1532 C1537 1.379 . S
C1532 N1539 1.356 . S
C1533 C1532 1.363 . S
C1533 C1536 1.363 . S
N1534 C1536 1.356 . S
N1534 H1546 0.984 . S
N1534 H1547 0.985 . S
N1535 C1537 1.356 . S
N1535 H1540 0.984 . S
N1535 H1541 0.985 . S
C1536 C1530 1.379 . S
C1536 C1533 1.363 . S
C1536 N1534 1.356 . S
C1537 C1531 1.363 . S
C1537 C1532 1.379 . S
C1537 N1535 1.356 . S
N1538 C1530 1.356 . S
N1538 H1544 0.984 . S
N1538 H1545 0.984 . S
N1539 C1532 1.356 . S
N1539 H1542 0.984 . S
N1539 H1543 0.985 . S
H1540 N1535 0.984 . S
H1541 N1535 0.985 . S
H1542 N1539 0.984 . S
H1543 N1539 0.985 . S
H1544 N1538 0.984 . S
H1545 N1538 0.984 . S
H1546 N1534 0.984 . S
H1547 N1534 0.985 . S
C1548 C1549 1.363 . S
C1548 C1554 1.379 . S
C1548 N1556 1.356 . S
C1549 C1548 1.363 . S
C1549 C1555 1.363 . S
C1550 C1551 1.363 . S
C1550 C1555 1.379 . S
C1550 N1557 1.356 . S
C1551 C1550 1.363 . S
C1551 C1554 1.363 . S
N1552 C1554 1.356 . S
N1552 H1564 0.984 . S
N1552 H1565 0.985 . S
N1553 C1555 1.356 . S
N1553 H1558 0.984 . S
N1553 H1559 0.985 . S
C1554 C1548 1.379 . S
C1554 C1551 1.363 . S
C1554 N1552 1.356 . S
C1555 C1549 1.363 . S
C1555 C1550 1.379 . S
C1555 N1553 1.356 . S
N1556 C1548 1.356 . S
N1556 H1562 0.984 . S
N1556 H1563 0.984 . S
N1557 C1550 1.356 . S
N1557 H1560 0.984 . S
N1557 H1561 0.985 . S
H1558 N1553 0.984 . S
H1559 N1553 0.985 . S
H1560 N1557 0.984 . S
H1561 N1557 0.985 . S
H1562 N1556 0.984 . S
H1563 N1556 0.984 . S
H1564 N1552 0.984 . S
H1565 N1552 0.985 . S
C1566 C1567 1.363 . S
C1566 C1572 1.379 . S
C1566 N1574 1.356 . S
C1567 C1566 1.363 . S
C1567 C1573 1.363 . S
C1568 C1569 1.363 . S
C1568 C1573 1.379 . S
C1568 N1575 1.356 . S
C1569 C1568 1.363 . S
C1569 C1572 1.363 . S
N1570 C1572 1.356 . S
N1570 H1582 0.984 . S
N1570 H1583 0.985 . S
N1571 C1573 1.356 . S
N1571 H1576 0.984 . S
N1571 H1577 0.985 . S
C1572 C1566 1.379 . S
C1572 C1569 1.363 . S
C1572 N1570 1.356 . S
C1573 C1567 1.363 . S
C1573 C1568 1.379 . S
C1573 N1571 1.356 . S
N1574 C1566 1.356 . S
N1574 H1580 0.984 . S
N1574 H1581 0.984 . S
N1575 C1568 1.356 . S
N1575 H1578 0.984 . S
N1575 H1579 0.985 . S
H1576 N1571 0.984 . S
H1577 N1571 0.985 . S
H1578 N1575 0.984 . S
H1579 N1575 0.985 . S
H1580 N1574 0.984 . S
H1581 N1574 0.984 . S
H1582 N1570 0.984 . S
H1583 N1570 0.985 . S
C1584 C1585 1.363 . S
C1584 C1590 1.379 . S
C1584 N1592 1.356 . S
C1585 C1584 1.363 . S
C1585 C1591 1.363 . S
C1586 C1587 1.363 . S
C1586 C1591 1.379 . S
C1586 N1593 1.356 . S
C1587 C1586 1.363 . S
C1587 C1590 1.363 . S
N1588 C1590 1.356 . S
N1588 H1600 0.984 . S
N1588 H1601 0.985 . S
N1589 C1591 1.356 . S
N1589 H1594 0.984 . S
N1589 H1595 0.985 . S
C1590 C1584 1.379 . S
C1590 C1587 1.363 . S
C1590 N1588 1.356 . S
C1591 C1585 1.363 . S
C1591 C1586 1.379 . S
C1591 N1589 1.356 . S
N1592 C1584 1.356 . S
N1592 H1598 0.984 . S
N1592 H1599 0.984 . S
N1593 C1586 1.356 . S
N1593 H1596 0.984 . S
N1593 H1597 0.985 . S
H1594 N1589 0.984 . S
H1595 N1589 0.985 . S
H1596 N1593 0.984 . S
H1597 N1593 0.985 . S
H1598 N1592 0.984 . S
H1599 N1592 0.984 . S
H1600 N1588 0.984 . S
H1601 N1588 0.985 . S
C1602 C1603 1.363 . S
C1602 C1608 1.379 . S
C1602 N1610 1.356 . S
C1603 C1602 1.363 . S
C1603 C1609 1.363 . S
C1604 C1605 1.363 . S
C1604 C1609 1.379 . S
C1604 N1611 1.356 . S
C1605 C1604 1.363 . S
C1605 C1608 1.363 . S
N1606 C1608 1.356 . S
N1606 H1618 0.984 . S
N1606 H1619 0.985 . S
N1607 C1609 1.356 . S
N1607 H1612 0.984 . S
N1607 H1613 0.985 . S
C1608 C1602 1.379 . S
C1608 C1605 1.363 . S
C1608 N1606 1.356 . S
C1609 C1603 1.363 . S
C1609 C1604 1.379 . S
C1609 N1607 1.356 . S
N1610 C1602 1.356 . S
N1610 H1616 0.984 . S
N1610 H1617 0.984 . S
N1611 C1604 1.356 . S
N1611 H1614 0.984 . S
N1611 H1615 0.985 . S
H1612 N1607 0.984 . S
H1613 N1607 0.985 . S
H1614 N1611 0.984 . S
H1615 N1611 0.985 . S
H1616 N1610 0.984 . S
H1617 N1610 0.984 . S
H1618 N1606 0.984 . S
H1619 N1606 0.985 . S
C1620 C1621 1.363 . S
C1620 C1626 1.379 . S
C1620 N1628 1.356 . S
C1621 C1620 1.363 . S
C1621 C1627 1.363 . S
C1622 C1623 1.363 . S
C1622 C1627 1.379 . S
C1622 N1629 1.356 . S
C1623 C1622 1.363 . S
C1623 C1626 1.363 . S
N1624 C1626 1.356 . S
N1624 H1636 0.984 . S
N1624 H1637 0.985 . S
N1625 C1627 1.356 . S
N1625 H1630 0.984 . S
N1625 H1631 0.985 . S
C1626 C1620 1.379 . S
C1626 C1623 1.363 . S
C1626 N1624 1.356 . S
C1627 C1621 1.363 . S
C1627 C1622 1.379 . S
C1627 N1625 1.356 . S
N1628 C1620 1.356 . S
N1628 H1634 0.984 . S
N1628 H1635 0.984 . S
N1629 C1622 1.356 . S
N1629 H1632 0.984 . S
N1629 H1633 0.985 . S
H1630 N1625 0.984 . S
H1631 N1625 0.985 . S
H1632 N1629 0.984 . S
H1633 N1629 0.985 . S
H1634 N1628 0.984 . S
H1635 N1628 0.984 . S
H1636 N1624 0.984 . S
H1637 N1624 0.985 . S
C1638 C1639 1.363 . S
C1638 C1644 1.379 . S
C1638 N1646 1.356 . S
C1639 C1638 1.363 . S
C1639 C1645 1.363 . S
C1640 C1641 1.363 . S
C1640 C1645 1.379 . S
C1640 N1647 1.356 . S
C1641 C1640 1.363 . S
C1641 C1644 1.363 . S
N1642 C1644 1.356 . S
N1642 H1654 0.984 . S
N1642 H1655 0.985 . S
N1643 C1645 1.356 . S
N1643 H1648 0.984 . S
N1643 H1649 0.985 1_565 S
C1644 C1638 1.379 . S
C1644 C1641 1.363 . S
C1644 N1642 1.356 . S
C1645 C1639 1.363 . S
C1645 C1640 1.379 . S
C1645 N1643 1.356 . S
N1646 C1638 1.356 . S
N1646 H1652 0.984 . S
N1646 H1653 0.984 . S
N1647 C1640 1.356 . S
N1647 H1650 0.984 . S
N1647 H1651 0.985 1_565 S
H1648 N1643 0.984 . S
H1649 N1643 0.985 1_545 S
H1650 N1647 0.984 . S
H1651 N1647 0.985 1_545 S
H1652 N1646 0.984 . S
H1653 N1646 0.984 . S
H1654 N1642 0.984 . S
H1655 N1642 0.985 . S
C1656 C1657 1.363 . S
C1656 C1662 1.379 . S
C1656 N1664 1.356 . S
C1657 C1656 1.363 . S
C1657 C1663 1.363 . S
C1658 C1659 1.363 . S
C1658 C1663 1.379 . S
C1658 N1665 1.356 . S
C1659 C1658 1.363 . S
C1659 C1662 1.363 . S
N1660 C1662 1.356 . S
N1660 H1672 0.984 . S
N1660 H1673 0.985 . S
N1661 C1663 1.356 . S
N1661 H1666 0.984 . S
N1661 H1667 0.985 . S
C1662 C1656 1.379 . S
C1662 C1659 1.363 . S
C1662 N1660 1.356 . S
C1663 C1657 1.363 . S
C1663 C1658 1.379 . S
C1663 N1661 1.356 . S
N1664 C1656 1.356 . S
N1664 H1670 0.984 . S
N1664 H1671 0.984 . S
N1665 C1658 1.356 . S
N1665 H1668 0.984 . S
N1665 H1669 0.985 . S
H1666 N1661 0.984 . S
H1667 N1661 0.985 . S
H1668 N1665 0.984 . S
H1669 N1665 0.985 . S
H1670 N1664 0.984 . S
H1671 N1664 0.984 . S
H1672 N1660 0.984 . S
H1673 N1660 0.985 . S
C1674 C1675 1.363 . S
C1674 C1680 1.379 . S
C1674 N1682 1.356 . S
C1675 C1674 1.363 . S
C1675 C1681 1.363 . S
C1676 C1677 1.363 . S
C1676 C1681 1.379 . S
C1676 N1683 1.356 . S
C1677 C1676 1.363 . S
C1677 C1680 1.363 . S
N1678 C1680 1.356 . S
N1678 H1690 0.984 . S
N1678 H1691 0.985 . S
N1679 C1681 1.356 . S
N1679 H1684 0.984 . S
N1679 H1685 0.985 . S
C1680 C1674 1.379 . S
C1680 C1677 1.363 . S
C1680 N1678 1.356 . S
C1681 C1675 1.363 . S
C1681 C1676 1.379 . S
C1681 N1679 1.356 . S
N1682 C1674 1.356 . S
N1682 H1688 0.984 . S
N1682 H1689 0.984 . S
N1683 C1676 1.356 . S
N1683 H1686 0.984 . S
N1683 H1687 0.985 . S
H1684 N1679 0.984 . S
H1685 N1679 0.985 . S
H1686 N1683 0.984 . S
H1687 N1683 0.985 . S
H1688 N1682 0.984 . S
H1689 N1682 0.984 . S
H1690 N1678 0.984 . S
H1691 N1678 0.985 . S
C1692 C1693 1.363 . S
C1692 C1698 1.379 . S
C1692 N1700 1.356 . S
C1693 C1692 1.363 . S
C1693 C1699 1.363 . S
C1694 C1695 1.363 . S
C1694 C1699 1.379 . S
C1694 N1701 1.356 . S
C1695 C1694 1.363 . S
C1695 C1698 1.363 . S
N1696 C1698 1.356 . S
N1696 H1708 0.984 . S
N1696 H1709 0.985 . S
N1697 C1699 1.356 . S
N1697 H1702 0.984 . S
N1697 H1703 0.985 . S
C1698 C1692 1.379 . S
C1698 C1695 1.363 . S
C1698 N1696 1.356 . S
C1699 C1693 1.363 . S
C1699 C1694 1.379 . S
C1699 N1697 1.356 . S
N1700 C1692 1.356 . S
N1700 H1706 0.984 . S
N1700 H1707 0.984 . S
N1701 C1694 1.356 . S
N1701 H1704 0.984 . S
N1701 H1705 0.985 . S
H1702 N1697 0.984 . S
H1703 N1697 0.985 . S
H1704 N1701 0.984 . S
H1705 N1701 0.985 . S
H1706 N1700 0.984 . S
H1707 N1700 0.984 . S
H1708 N1696 0.984 . S
H1709 N1696 0.985 . S
C1710 C1711 1.363 . S
C1710 C1716 1.379 . S
C1710 N1718 1.356 . S
C1711 C1710 1.363 . S
C1711 C1717 1.363 . S
C1712 C1713 1.363 . S
C1712 C1717 1.379 . S
C1712 N1719 1.356 . S
C1713 C1712 1.363 . S
C1713 C1716 1.363 . S
N1714 C1716 1.356 . S
N1714 H1726 0.984 . S
N1714 H1727 0.985 . S
N1715 C1717 1.356 . S
N1715 H1720 0.984 . S
N1715 H1721 0.985 . S
C1716 C1710 1.379 . S
C1716 C1713 1.363 . S
C1716 N1714 1.356 . S
C1717 C1711 1.363 . S
C1717 C1712 1.379 . S
C1717 N1715 1.356 . S
N1718 C1710 1.356 . S
N1718 H1724 0.984 . S
N1718 H1725 0.984 . S
N1719 C1712 1.356 . S
N1719 H1722 0.984 . S
N1719 H1723 0.985 . S
H1720 N1715 0.984 . S
H1721 N1715 0.985 . S
H1722 N1719 0.984 . S
H1723 N1719 0.985 . S
H1724 N1718 0.984 . S
H1725 N1718 0.984 . S
H1726 N1714 0.984 . S
H1727 N1714 0.985 . S
C865 C544 1.358 . S
C867 C4 1.358 . S
C883 C40 1.358 . S
C885 C580 1.358 . S
C901 C76 1.358 . S
C903 C616 1.358 . S
C919 C112 1.358 . S
C921 C436 1.358 . S
C937 C472 1.358 . S
C939 C148 1.358 . S
C955 C184 1.358 . S
C957 C508 1.358 . S
C973 C760 1.358 . S
C975 C220 1.358 . S
C991 C256 1.358 . S
C993 C796 1.358 . S
C1009 C292 1.358 . S
C1011 C832 1.358 . S
C1027 C652 1.358 . S
C1029 C328 1.358 . S
C1045 C364 1.358 . S
C1047 C688 1.358 . S
C1063 C724 1.358 . S
C1065 C400 1.358 . S
C1081 C14 1.425 . S
C1083 C842 1.425 . S
C1099 C662 1.425 . S
C1101 C50 1.425 . S
C1117 C86 1.425 . S
C1119 C698 1.425 . S
C1135 C734 1.425 . S
C1137 C122 1.425 . S
C1153 C158 1.425 . S
C1155 C770 1.425 . S
C1171 C806 1.425 . S
C1173 C194 1.425 . S
C1189 C230 1.425 . S
C1191 C482 1.425 . S
C1207 C518 1.425 . S
C1209 C266 1.425 . S
C1225 C554 1.425 . S
C1227 C302 1.425 . S
C1243 C590 1.425 . S
C1245 C338 1.425 . S
C1261 C374 1.425 . S
C1263 C626 1.425 . S
C1279 C410 1.425 . S
C1281 C446 1.425 . S
C1297 C255 1.342 . S
C1299 C3 1.342 . S
C1315 C291 1.342 . S
C1317 C39 1.342 . S
C1333 C327 1.342 . S
C1335 C75 1.342 . S
C1351 C363 1.342 . S
C1353 C111 1.342 . S
C1369 C147 1.342 . S
C1371 C399 1.342 . S
C1387 C183 1.342 . S
C1389 C219 1.342 . S
C1405 C435 1.342 . S
C1407 C687 1.342 . S
C1423 C471 1.342 . S
C1425 C723 1.342 . S
C1441 C759 1.342 . S
C1443 C507 1.342 . S
C1459 C795 1.342 . S
C1461 C543 1.342 . S
C1477 C831 1.342 . S
C1479 C579 1.342 . S
C1495 C651 1.342 . S
C1497 C615 1.342 . S
C1513 C2 1.525 . S
C1515 C686 1.525 . S
C1531 C722 1.525 . S
C1533 C38 1.525 . S
C1549 C74 1.525 . S
C1551 C758 1.525 . S
C1567 C794 1.525 . S
C1569 C110 1.525 . S
C1585 C146 1.525 . S
C1587 C830 1.525 . S
C1603 C650 1.525 . S
C1605 C182 1.525 . S
C1621 C218 1.525 . S
C1623 C614 1.525 . S
C1639 C434 1.525 . S
C1641 C254 1.525 . S
C1657 C290 1.525 . S
C1659 C470 1.525 . S
C1675 C326 1.525 . S
C1677 C506 1.525 . S
C1693 C362 1.525 . S
C1695 C542 1.525 . S
C1711 C398 1.525 . S
C1713 C578 1.525 . S
