# Generated by pormake.
# Topology vcp, (7)-cn, num edge types: 1
# Building blocks:
#     Node 0, Type 0, BuildingBlock: HICVOG_clean_sbu_0, # of connection points: 7
#     Node 1, Type 0, BuildingBlock: HICVOG_clean_sbu_0, # of connection points: 7
#     Node 2, Type 0, BuildingBlock: HICVOG_clean_sbu_0, # of connection points: 7
#     Node 3, Type 0, BuildingBlock: HICVOG_clean_sbu_0, # of connection points: 7
#     Node 4, Type 0, BuildingBlock: HICVOG_clean_sbu_0, # of connection points: 7
#     Node 5, Type 0, BuildingBlock: HICVOG_clean_sbu_0, # of connection points: 7
#     Node 6, Type 0, BuildingBlock: HICVOG_clean_sbu_0, # of connection points: 7
#     Node 7, Type 0, BuildingBlock: HICVOG_clean_sbu_0, # of connection points: 7
#     Node 8, Type 0, BuildingBlock: HICVOG_clean_sbu_0, # of connection points: 7
#     Node 9, Type 0, BuildingBlock: HICVOG_clean_sbu_0, # of connection points: 7
#     Node 10, Type 0, BuildingBlock: HICVOG_clean_sbu_0, # of connection points: 7
#     Node 11, Type 0, BuildingBlock: HICVOG_clean_sbu_0, # of connection points: 7
#     Node 12, Type 0, BuildingBlock: HICVOG_clean_sbu_0, # of connection points: 7
#     Node 13, Type 0, BuildingBlock: HICVOG_clean_sbu_0, # of connection points: 7
#     Node 14, Type 0, BuildingBlock: HICVOG_clean_sbu_0, # of connection points: 7
#     Node 15, Type 0, BuildingBlock: HICVOG_clean_sbu_0, # of connection points: 7
#     Edge 16, Type (0, 0), BuildingBlock: CIFDUS_clean_linker_0, # of connection points: 2
#     Edge 17, Type (0, 0), BuildingBlock: CIFDUS_clean_linker_0, # of connection points: 2
#     Edge 18, Type (0, 0), BuildingBlock: CIFDUS_clean_linker_0, # of connection points: 2
#     Edge 19, Type (0, 0), BuildingBlock: CIFDUS_clean_linker_0, # of connection points: 2
#     Edge 20, Type (0, 0), BuildingBlock: CIFDUS_clean_linker_0, # of connection points: 2
#     Edge 21, Type (0, 0), BuildingBlock: CIFDUS_clean_linker_0, # of connection points: 2
#     Edge 22, Type (0, 0), BuildingBlock: CIFDUS_clean_linker_0, # of connection points: 2
#     Edge 23, Type (0, 0), BuildingBlock: CIFDUS_clean_linker_0, # of connection points: 2
#     Edge 24, Type (0, 0), BuildingBlock: CIFDUS_clean_linker_0, # of connection points: 2
#     Edge 25, Type (0, 0), BuildingBlock: CIFDUS_clean_linker_0, # of connection points: 2
#     Edge 26, Type (0, 0), BuildingBlock: CIFDUS_clean_linker_0, # of connection points: 2
#     Edge 27, Type (0, 0), BuildingBlock: CIFDUS_clean_linker_0, # of connection points: 2
#     Edge 28, Type (0, 0), BuildingBlock: CIFDUS_clean_linker_0, # of connection points: 2
#     Edge 29, Type (0, 0), BuildingBlock: CIFDUS_clean_linker_0, # of connection points: 2
#     Edge 30, Type (0, 0), BuildingBlock: CIFDUS_clean_linker_0, # of connection points: 2
#     Edge 31, Type (0, 0), BuildingBlock: CIFDUS_clean_linker_0, # of connection points: 2
#     Edge 32, Type (0, 0), BuildingBlock: CIFDUS_clean_linker_0, # of connection points: 2
#     Edge 33, Type (0, 0), BuildingBlock: CIFDUS_clean_linker_0, # of connection points: 2
#     Edge 34, Type (0, 0), BuildingBlock: CIFDUS_clean_linker_0, # of connection points: 2
#     Edge 35, Type (0, 0), BuildingBlock: CIFDUS_clean_linker_0, # of connection points: 2
#     Edge 36, Type (0, 0), BuildingBlock: CIFDUS_clean_linker_0, # of connection points: 2
#     Edge 37, Type (0, 0), BuildingBlock: CIFDUS_clean_linker_0, # of connection points: 2
#     Edge 38, Type (0, 0), BuildingBlock: CIFDUS_clean_linker_0, # of connection points: 2
#     Edge 39, Type (0, 0), BuildingBlock: CIFDUS_clean_linker_0, # of connection points: 2
#     Edge 40, Type (0, 0), BuildingBlock: CIFDUS_clean_linker_0, # of connection points: 2
#     Edge 41, Type (0, 0), BuildingBlock: CIFDUS_clean_linker_0, # of connection points: 2
#     Edge 42, Type (0, 0), BuildingBlock: CIFDUS_clean_linker_0, # of connection points: 2
#     Edge 43, Type (0, 0), BuildingBlock: CIFDUS_clean_linker_0, # of connection points: 2
#     Edge 44, Type (0, 0), BuildingBlock: CIFDUS_clean_linker_0, # of connection points: 2
#     Edge 45, Type (0, 0), BuildingBlock: CIFDUS_clean_linker_0, # of connection points: 2
#     Edge 46, Type (0, 0), BuildingBlock: CIFDUS_clean_linker_0, # of connection points: 2
#     Edge 47, Type (0, 0), BuildingBlock: CIFDUS_clean_linker_0, # of connection points: 2
#     Edge 48, Type (0, 0), BuildingBlock: CIFDUS_clean_linker_0, # of connection points: 2
#     Edge 49, Type (0, 0), BuildingBlock: CIFDUS_clean_linker_0, # of connection points: 2
#     Edge 50, Type (0, 0), BuildingBlock: CIFDUS_clean_linker_0, # of connection points: 2
#     Edge 51, Type (0, 0), BuildingBlock: CIFDUS_clean_linker_0, # of connection points: 2
#     Edge 52, Type (0, 0), BuildingBlock: CIFDUS_clean_linker_0, # of connection points: 2
#     Edge 53, Type (0, 0), BuildingBlock: CIFDUS_clean_linker_0, # of connection points: 2
#     Edge 54, Type (0, 0), BuildingBlock: CIFDUS_clean_linker_0, # of connection points: 2
#     Edge 55, Type (0, 0), BuildingBlock: CIFDUS_clean_linker_0, # of connection points: 2
#     Edge 56, Type (0, 0), BuildingBlock: CIFDUS_clean_linker_0, # of connection points: 2
#     Edge 57, Type (0, 0), BuildingBlock: CIFDUS_clean_linker_0, # of connection points: 2
#     Edge 58, Type (0, 0), BuildingBlock: CIFDUS_clean_linker_0, # of connection points: 2
#     Edge 59, Type (0, 0), BuildingBlock: CIFDUS_clean_linker_0, # of connection points: 2
#     Edge 60, Type (0, 0), BuildingBlock: CIFDUS_clean_linker_0, # of connection points: 2
#     Edge 61, Type (0, 0), BuildingBlock: CIFDUS_clean_linker_0, # of connection points: 2
#     Edge 62, Type (0, 0), BuildingBlock: CIFDUS_clean_linker_0, # of connection points: 2
#     Edge 63, Type (0, 0), BuildingBlock: CIFDUS_clean_linker_0, # of connection points: 2
#     Edge 64, Type (0, 0), BuildingBlock: CIFDUS_clean_linker_0, # of connection points: 2
#     Edge 65, Type (0, 0), BuildingBlock: CIFDUS_clean_linker_0, # of connection points: 2
#     Edge 66, Type (0, 0), BuildingBlock: CIFDUS_clean_linker_0, # of connection points: 2
#     Edge 67, Type (0, 0), BuildingBlock: CIFDUS_clean_linker_0, # of connection points: 2
#     Edge 68, Type (0, 0), BuildingBlock: CIFDUS_clean_linker_0, # of connection points: 2
#     Edge 69, Type (0, 0), BuildingBlock: CIFDUS_clean_linker_0, # of connection points: 2
#     Edge 70, Type (0, 0), BuildingBlock: CIFDUS_clean_linker_0, # of connection points: 2
#     Edge 71, Type (0, 0), BuildingBlock: CIFDUS_clean_linker_0, # of connection points: 2
# Relax obj value: 0.192
# Max RMSD: 0.223
# Mean RMSD: 0.223
data_MOF--net-vcp--node1-HICVOG_clean_sbu_0--edge1-CIFDUS_clean_linker_0
_symmetry_space_group_name_H-M    P1
_symmetry_Int_Tables_number       1
_symmetry_cell_setting            triclinic
loop_
_symmetry_equiv_pos_as_xyz
'x, y, z'
_cell_length_a     71.42072
_cell_length_b     23.244117
_cell_length_c     30.552647
_cell_angle_alpha  89.844879
_cell_angle_beta   90.009738
_cell_angle_gamma 90.064654
loop_
_atom_site_label
_atom_site_type_symbol
_atom_site_fract_x
_atom_site_fract_y
_atom_site_fract_z
_atom_type_partial_charge
Zn0 Zn 0.12013 0.09776 0.46489 0.0
C1 C 0.14364 0.20358 0.37609 0.0
N2 N 0.13754 0.24337 0.40445 0.0
C3 C 0.1321 0.21204 0.43891 0.0
N4 N 0.13437 0.15523 0.43226 0.0
N5 N 0.14224 0.14944 0.39305 0.0
C6 C 0.14445 0.0266 0.29497 0.0
O7 O 0.13367 0.99631 0.32117 0.0
O8 O 0.1243 0.10312 0.53047 0.0
Zn9 Zn 0.1572 0.08188 0.3759 0.0
N10 N 0.09347 0.10718 0.45185 0.0
C11 C 0.06987 0.15233 0.4089 0.0
C12 C 0.08863 0.14468 0.41958 0.0
C13 C 0.08014 0.07589 0.47341 0.0
N14 N 0.05662 0.12154 0.43044 0.0
C15 C 0.061 0.08307 0.46256 0.0
O16 O 0.15072 1.00576 0.40598 0.0
C17 C 0.13854 0.98457 0.43191 0.0
O18 O 0.12688 0.01615 0.45197 0.0
H19 H 0.09925 0.16832 0.40194 0.0
H20 H 0.08462 0.04518 0.49786 0.0
C21 C 0.19816 0.06918 0.37476 0.0
C22 C 0.21663 0.08627 0.38543 0.0
C23 C 0.20432 0.16553 0.42496 0.0
C24 C 0.1862 0.14788 0.41512 0.0
N25 N 0.18336 0.10064 0.38975 0.0
N26 N 0.21901 0.13444 0.41006 0.0
H27 H 0.19553 0.03179 0.35467 0.0
C28 C 0.14006 0.08651 0.54533 0.0
O29 O 0.1535 0.07456 0.51744 0.0
O30 O 0.15498 0.06533 0.31101 0.0
H31 H 0.17452 0.17207 0.42772 0.0
H32 H 0.06584 0.18225 0.38342 0.0
H33 H 0.20671 0.20337 0.44473 0.0
Zn34 Zn 0.4153 0.92615 0.45849 0.0
C35 C 0.38841 0.82502 0.37303 0.0
N36 N 0.39313 0.78438 0.40234 0.0
C37 C 0.39963 0.81487 0.4361 0.0
N38 N 0.39935 0.87192 0.42793 0.0
N39 N 0.39166 0.87893 0.38862 0.0
C40 C 0.39619 0.99137 0.29339 0.0
O41 O 0.41005 0.99767 0.32127 0.0
O42 O 0.41263 0.91616 0.52407 0.0
Zn43 Zn 0.37789 0.94917 0.37143 0.0
N44 N 0.44114 0.91212 0.44072 0.0
C45 C 0.46205 0.86561 0.39159 0.0
C46 C 0.44392 0.87732 0.40562 0.0
C47 C 0.4559 0.93696 0.46184 0.0
N48 N 0.47674 0.88997 0.41268 0.0
C49 C 0.47433 0.92586 0.44738 0.0
O50 O 0.38581 0.02336 0.40227 0.0
C51 C 0.3983 0.04293 0.42811 0.0
O52 O 0.40973 1.0098 0.44766 0.0
H53 H 0.43217 0.85856 0.38858 0.0
H54 H 0.45324 0.96438 0.4897 0.0
C55 C 0.3367 0.96601 0.37053 0.0
C56 C 0.31821 0.95052 0.38256 0.0
C57 C 0.33031 0.87247 0.42404 0.0
C58 C 0.34843 0.88858 0.41297 0.0
N59 N 0.35142 0.93418 0.38578 0.0
N60 N 0.31573 0.90368 0.40874 0.0
H61 H 0.33937 1.00248 0.34935 0.0
C62 C 0.39886 0.94119 0.54235 0.0
O63 O 0.3865 0.96772 0.51766 0.0
O64 O 0.38094 0.96909 0.30679 0.0
H65 H 0.35999 0.86458 0.42633 0.0
H66 H 0.46444 0.83756 0.36396 0.0
H67 H 0.32784 0.83584 0.4452 0.0
Zn68 Zn 0.62125 0.93535 0.04703 0.0
C69 C 0.64773 0.82808 0.13019 0.0
N70 N 0.6424 0.78903 0.10039 0.0
C71 C 0.63528 0.82128 0.06822 0.0
N72 N 0.63579 0.87784 0.07784 0.0
N73 N 0.64416 0.88274 0.11654 0.0
C74 C 0.64489 0.99816 0.21801 0.0
O75 O 0.63259 0.02336 0.19239 0.0
O76 O 0.62558 0.93071 0.98188 0.0
Zn77 Zn 0.65837 0.95126 0.13531 0.0
N78 N 0.59491 0.92363 0.06011 0.0
C79 C 0.57139 0.87932 0.10384 0.0
C80 C 0.59016 0.88672 0.09285 0.0
C81 C 0.5816 0.95426 0.03824 0.0
N82 N 0.55811 0.90972 0.08206 0.0
C83 C 0.56255 0.94729 0.04936 0.0
O84 O 0.65066 0.02817 0.10829 0.0
C85 C 0.63835 0.04932 0.08273 0.0
O86 O 0.62718 0.01742 0.06141 0.0
H87 H 0.60085 0.86352 0.11059 0.0
H88 H 0.586 0.98468 0.01344 0.0
C89 C 0.70003 0.95262 0.13825 0.0
C90 C 0.7176 0.93361 0.12284 0.0
C91 C 0.70245 0.88322 0.06544 0.0
C92 C 0.6852 0.90237 0.08036 0.0
N93 N 0.68415 0.93553 0.11692 0.0
N94 N 0.71818 0.89908 0.087 0.0
H95 H 0.699 0.97957 0.16698 0.0
C96 C 0.64123 0.94942 0.96794 0.0
O97 O 0.65407 0.96433 0.99658 0.0
O98 O 0.65692 0.96439 0.20119 0.0
H99 H 0.67267 0.89019 0.06296 0.0
H100 H 0.5674 0.85 0.12977 0.0
H101 H 0.70338 0.85612 0.03679 0.0
Zn102 Zn 0.91085 0.10258 0.04948 0.0
C103 C 0.87829 0.18851 0.13413 0.0
N104 N 0.88015 0.22988 0.10355 0.0
C105 C 0.88971 0.20373 0.07183 0.0
N106 N 0.89397 0.14919 0.08246 0.0
N107 N 0.88616 0.13808 0.12103 0.0
C108 C 0.8917 0.03009 0.21645 0.0
O109 O 0.9063 0.02966 0.19028 0.0
O110 O 0.90645 0.11188 0.98469 0.0
Zn111 Zn 0.87522 0.06181 0.13579 0.0
N112 N 0.93654 0.12069 0.06321 0.0
C113 C 0.95993 0.16274 0.1083 0.0
C114 C 0.94112 0.15467 0.09769 0.0
C115 C 0.94993 0.09342 0.03946 0.0
N116 N 0.97333 0.13537 0.08466 0.0
C117 C 0.96892 0.10064 0.05029 0.0
O118 O 0.88717 0.98901 0.1081 0.0
C119 C 0.90028 0.97905 0.08085 0.0
O120 O 0.90847 0.0197 0.06097 0.0
H121 H 0.93026 0.17477 0.117 0.0
H122 H 0.9456 0.06459 0.01363 0.0
C123 C 0.83347 0.05545 0.13567 0.0
C124 C 0.81616 0.06823 0.11552 0.0
C125 C 0.83228 0.10218 0.05263 0.0
C126 C 0.84929 0.0894 0.07239 0.0
N127 N 0.84968 0.06726 0.11362 0.0
N128 N 0.8162 0.09154 0.07462 0.0
H129 H 0.83402 0.03782 0.16847 0.0
C130 C 0.89395 0.08018 0.96745 0.0
O131 O 0.88367 0.04725 0.9929 0.0
O132 O 0.87594 0.04546 0.20098 0.0
H133 H 0.8622 0.09817 0.05526 0.0
H134 H 0.96386 0.1898 0.13556 0.0
H135 H 0.83185 0.12056 0.02008 0.0
Zn136 Zn 0.9081 0.9138 0.54434 0.0
C137 C 0.88462 0.82277 0.64038 0.0
N138 N 0.88774 0.77812 0.61341 0.0
C139 C 0.89284 0.80462 0.57605 0.0
N140 N 0.89328 0.86221 0.58016 0.0
N141 N 0.88753 0.8739 0.6203 0.0
C142 C 0.88238 0.99254 0.7166 0.0
O143 O 0.89391 0.02193 0.6916 0.0
O144 O 0.90218 0.90789 0.47994 0.0
Zn145 Zn 0.87245 0.94132 0.63407 0.0
N146 N 0.93474 0.89885 0.55389 0.0
C147 C 0.95857 0.84575 0.59046 0.0
C148 C 0.93972 0.85627 0.58215 0.0
C149 C 0.94802 0.93197 0.53384 0.0
N150 N 0.97178 0.87855 0.57049 0.0
C151 C 0.96722 0.92171 0.5422 0.0
O152 O 0.88127 0.01586 0.60604 0.0
C153 C 0.89372 0.03234 0.57896 0.0
O154 O 0.90364 0.99667 0.55772 0.0
H155 H 0.92918 0.83098 0.59863 0.0
H156 H 0.94353 0.96654 0.51256 0.0
C157 C 0.83202 0.95632 0.6288 0.0
C158 C 0.81379 0.94166 0.61476 0.0
C159 C 0.82653 0.86512 0.57299 0.0
C160 C 0.84446 0.88023 0.58645 0.0
N161 N 0.84694 0.92505 0.61442 0.0
N162 N 0.81169 0.89603 0.58735 0.0
H163 H 0.83438 0.99155 0.6512 0.0
C164 C 0.88662 0.92781 0.46642 0.0
O165 O 0.87401 0.94353 0.49533 0.0
O166 O 0.87182 0.95478 0.69931 0.0
H167 H 0.85625 0.85595 0.57471 0.0
H168 H 0.9627 0.81197 0.61288 0.0
H169 H 0.8244 0.82925 0.55104 0.0
Zn170 Zn 0.61621 0.10854 0.55093 0.0
C171 C 0.64199 0.19991 0.64387 0.0
N172 N 0.6375 0.24464 0.61803 0.0
C173 C 0.63139 0.21861 0.5815 0.0
N174 N 0.63177 0.16074 0.58487 0.0
N175 N 0.63886 0.14883 0.62392 0.0
C176 C 0.63778 0.02978 0.71338 0.0
O177 O 0.62459 0.0181 0.68474 0.0
O178 O 0.61925 0.12096 0.48555 0.0
Zn179 Zn 0.65364 0.0801 0.63677 0.0
N180 N 0.59016 0.12102 0.56808 0.0
C181 C 0.56888 0.1658 0.61731 0.0
C182 C 0.58709 0.15479 0.60365 0.0
C183 C 0.57556 0.09646 0.54613 0.0
N184 N 0.55436 0.1418 0.59537 0.0
C185 C 0.55703 0.10692 0.5602 0.0
O186 O 0.64598 1.00788 0.60386 0.0
C187 C 0.63356 0.98987 0.57726 0.0
O188 O 0.62203 0.02407 0.55904 0.0
H189 H 0.59868 0.17321 0.62146 0.0
H190 H 0.57841 0.06981 0.51794 0.0
C191 C 0.69435 0.06502 0.63365 0.0
C192 C 0.71272 0.0816 0.62189 0.0
C193 C 0.70045 0.16469 0.58686 0.0
C194 C 0.68239 0.14761 0.59772 0.0
N195 N 0.67959 0.09873 0.62149 0.0
N196 N 0.7151 0.13144 0.59906 0.0
H197 H 0.69176 0.0262 0.6523 0.0
C198 C 0.63306 0.09577 0.46754 0.0
O199 O 0.64551 0.07028 0.4926 0.0
O200 O 0.65203 0.05843 0.70092 0.0
H201 H 0.67074 0.17344 0.58701 0.0
H202 H 0.56627 0.193 0.64532 0.0
H203 H 0.70282 0.20379 0.56837 0.0
Zn204 Zn 0.37506 0.07004 0.87844 0.0
C205 C 0.39542 0.21631 0.92973 0.0
N206 N 0.38868 0.23991 0.8929 0.0
C207 C 0.38429 0.19356 0.86873 0.0
N208 N 0.38816 0.14366 0.88998 0.0
N209 N 0.39564 0.15856 0.92804 0.0
C210 C 0.39078 0.09294 0.04298 0.0
O211 O 0.37876 0.07366 0.01393 0.0
O212 O 0.37372 0.05404 0.81306 0.0
Zn213 Zn 0.41135 0.11145 0.96461 0.0
N214 N 0.34951 0.08082 0.90033 0.0
C215 C 0.32996 0.13464 0.94829 0.0
C216 C 0.34766 0.11995 0.93307 0.0
C217 C 0.33413 0.05438 0.8829 0.0
N218 N 0.31468 0.10898 0.93073 0.0
C219 C 0.31611 0.06885 0.89855 0.0
O220 O 0.40841 0.02923 0.95191 0.0
C221 C 0.4001 0.98829 0.93279 0.0
O222 O 0.38658 0.99753 0.90648 0.0
H223 H 0.35984 0.14036 0.94702 0.0
H224 H 0.33588 0.02348 0.8568 0.0
C225 C 0.45109 0.10105 0.97643 0.0
C226 C 0.4701 0.10946 0.96552 0.0
C227 C 0.46073 0.17268 0.90828 0.0
C228 C 0.44201 0.16319 0.91869 0.0
N229 N 0.43753 0.12841 0.95294 0.0
N230 N 0.47426 0.14551 0.93164 0.0
H231 H 0.44692 0.07142 1.00197 0.0
C232 C 0.3851 0.01911 0.79511 0.0
O233 O 0.39782 0.99367 0.8194 0.0
O234 O 0.40572 0.11706 0.02951 0.0
H235 H 0.43115 0.18253 0.89899 0.0
H236 H 0.32836 0.1662 0.97397 0.0
H237 H 0.4645 0.20053 0.88125 0.0
Zn238 Zn 0.11597 0.91636 0.96266 0.0
C239 C 0.14556 0.82414 0.87669 0.0
N240 N 0.14087 0.78209 0.90496 0.0
C241 C 0.13243 0.81046 0.93719 0.0
N242 N 0.13166 0.86716 0.92927 0.0
N243 N 0.14044 0.87702 0.89162 0.0
C244 C 0.1352 0.98496 0.79604 0.0
O245 O 0.12071 0.98577 0.82254 0.0
O246 O 0.11996 0.90567 0.02746 0.0
Zn247 Zn 0.15297 0.95109 0.87634 0.0
N248 N 0.08999 0.90277 0.94886 0.0
C249 C 0.0661 0.8622 0.90441 0.0
C250 C 0.08498 0.86822 0.91504 0.0
C251 C 0.07695 0.93236 0.97209 0.0
N252 N 0.05306 0.89183 0.92753 0.0
C253 C 0.05788 0.92702 0.96131 0.0
O254 O 0.14277 0.02506 0.90561 0.0
C255 C 0.12954 0.03706 0.93209 0.0
O256 O 0.1203 0.99795 0.95114 0.0
H257 H 0.09556 0.8462 0.89613 0.0
H258 H 0.08162 0.96122 0.99758 0.0
C259 C 0.19435 0.96924 0.87746 0.0
C260 C 0.21256 0.95453 0.892 0.0
C261 C 0.19943 0.88434 0.93946 0.0
C262 C 0.18157 0.8996 0.92577 0.0
N263 N 0.17923 0.94059 0.89433 0.0
N264 N 0.21442 0.91199 0.92235 0.0
H265 H 0.19227 1.00237 0.853 0.0
C266 C 0.13346 0.93292 0.04495 0.0
O267 O 0.1451 0.96149 0.01961 0.0
O268 O 0.151 0.96915 0.81114 0.0
H269 H 0.16965 0.87839 0.94026 0.0
H270 H 0.06185 0.83482 0.87761 0.0
H271 H 0.20138 0.85115 0.96392 0.0
Zn272 Zn 0.61871 0.60818 0.46041 0.0
C273 C 0.6457 0.69926 0.36923 0.0
N274 N 0.64098 0.74401 0.39464 0.0
C275 C 0.63446 0.71804 0.4309 0.0
N276 N 0.63476 0.66012 0.42762 0.0
N277 N 0.6423 0.64818 0.38906 0.0
C278 C 0.63933 0.52936 0.29891 0.0
O279 O 0.62645 0.51823 0.32846 0.0
O280 O 0.62104 0.62018 0.52585 0.0
Zn281 Zn 0.65661 0.57839 0.3749 0.0
N282 N 0.59286 0.6207 0.44177 0.0
C283 C 0.57203 0.66477 0.39097 0.0
C284 C 0.59012 0.65399 0.40567 0.0
C285 C 0.57806 0.59641 0.46327 0.0
N286 N 0.55731 0.64104 0.41246 0.0
C287 C 0.55966 0.60663 0.44818 0.0
O288 O 0.64873 0.50633 0.40815 0.0
C289 C 0.63601 0.48925 0.43441 0.0
O290 O 0.62463 0.52417 0.45216 0.0
H291 H 0.60188 0.67218 0.38828 0.0
H292 H 0.58066 0.57014 0.49191 0.0
C293 C 0.69777 0.56287 0.37492 0.0
C294 C 0.71626 0.58007 0.38551 0.0
C295 C 0.70404 0.6615 0.42248 0.0
C296 C 0.68593 0.64383 0.41281 0.0
N297 N 0.68299 0.59564 0.38852 0.0
N298 N 0.71868 0.62938 0.40875 0.0
H299 H 0.69516 0.52438 0.35604 0.0
C300 C 0.63471 0.59518 0.54472 0.0
O301 O 0.6474 0.56969 0.52047 0.0
O302 O 0.65394 0.55693 0.31049 0.0
H303 H 0.67432 0.66876 0.42485 0.0
H304 H 0.56968 0.6916 0.36251 0.0
H305 H 0.70647 0.70016 0.4413 0.0
Zn306 Zn 0.91378 0.40388 0.46575 0.0
C307 C 0.88584 0.32141 0.37079 0.0
N308 N 0.89023 0.27548 0.39554 0.0
C309 C 0.89782 0.29965 0.43109 0.0
N310 N 0.89844 0.35729 0.42819 0.0
N311 N 0.89049 0.37182 0.39047 0.0
C312 C 0.89364 0.49513 0.3009 0.0
O313 O 0.90721 0.50441 0.32906 0.0
O314 O 0.90849 0.39184 0.53044 0.0
Zn315 Zn 0.87777 0.44645 0.37858 0.0
N316 N 0.94011 0.39002 0.45378 0.0
C317 C 0.96392 0.34645 0.41079 0.0
C318 C 0.94507 0.35395 0.42086 0.0
C319 C 0.9533 0.42005 0.47651 0.0
N320 N 0.97707 0.37632 0.4334 0.0
C321 C 0.97243 0.41332 0.46614 0.0
O322 O 0.88806 0.51775 0.41085 0.0
C323 C 0.90115 0.52734 0.43827 0.0
O324 O 0.91001 0.48654 0.45627 0.0
H325 H 0.93448 0.33194 0.40202 0.0
H326 H 0.94873 0.45018 0.50119 0.0
C327 C 0.83664 0.46335 0.37916 0.0
C328 C 0.81835 0.44926 0.39353 0.0
C329 C 0.83122 0.37883 0.44125 0.0
C330 C 0.84916 0.39347 0.42759 0.0
N331 N 0.85164 0.43465 0.39638 0.0
N332 N 0.81633 0.40692 0.42403 0.0
H333 H 0.83893 0.49607 0.35449 0.0
C334 C 0.8954 0.42146 0.54748 0.0
O335 O 0.88448 0.45182 0.52166 0.0
O336 O 0.87902 0.46864 0.31393 0.0
H337 H 0.86104 0.37172 0.44179 0.0
H338 H 0.96808 0.31776 0.38474 0.0
H339 H 0.82912 0.34567 0.46568 0.0
Zn340 Zn 0.15561 0.44756 0.12911 0.0
C341 C 0.13592 0.31344 0.06893 0.0
N342 N 0.14161 0.28567 0.10534 0.0
C343 C 0.14411 0.32913 0.13374 0.0
N344 N 0.14039 0.38074 0.11526 0.0
N345 N 0.13456 0.37069 0.07492 0.0
C346 C 0.1394 0.4396 0.96546 0.0
O347 O 0.15155 0.45441 0.99572 0.0
O348 O 0.15694 0.45971 0.1944 0.0
Zn349 Zn 0.11814 0.42247 0.04238 0.0
N350 N 0.18103 0.43262 0.10771 0.0
C351 C 0.20088 0.37408 0.06377 0.0
C352 C 0.18313 0.38918 0.07838 0.0
C353 C 0.19621 0.46276 0.12227 0.0
N354 N 0.21596 0.40368 0.07841 0.0
C355 C 0.21428 0.44804 0.10712 0.0
O356 O 0.12207 0.5062 0.05728 0.0
C357 C 0.13292 0.54016 0.07794 0.0
O358 O 0.146 0.5216 0.10253 0.0
H359 H 0.17116 0.36592 0.06647 0.0
H360 H 0.19422 0.49704 0.14568 0.0
C361 C 0.0767 0.42903 0.03594 0.0
C362 C 0.05831 0.41126 0.04717 0.0
C363 C 0.07123 0.34138 0.09538 0.0
C364 C 0.08921 0.35927 0.08453 0.0
N365 N 0.09178 0.4021 0.05469 0.0
N366 N 0.05633 0.36753 0.07653 0.0
H367 H 0.07904 0.46311 0.01238 0.0
C368 C 0.14622 0.49606 0.21274 0.0
O369 O 0.13399 0.52426 0.18884 0.0
O370 O 0.12361 0.41948 0.97742 0.0
H371 H 0.10102 0.33897 0.10014 0.0
H372 H 0.20267 0.33922 0.04076 0.0
H373 H 0.0691 0.30704 0.11883 0.0
Zn374 Zn 0.37548 0.57813 0.1303 0.0
C375 C 0.39665 0.71073 0.06756 0.0
N376 N 0.39181 0.7396 0.10396 0.0
C377 C 0.38845 0.69676 0.13256 0.0
N378 N 0.3909 0.64437 0.11428 0.0
N379 N 0.39657 0.65338 0.07362 0.0
C380 C 0.39378 0.58671 0.96214 0.0
O381 O 0.38038 0.57478 0.99024 0.0
O382 O 0.37563 0.56464 0.19588 0.0
Zn383 Zn 0.41298 0.60107 0.04259 0.0
N384 N 0.34975 0.5958 0.11194 0.0
C385 C 0.32943 0.66038 0.07424 0.0
C386 C 0.34733 0.64343 0.08656 0.0
C387 C 0.33473 0.56328 0.12451 0.0
N388 N 0.31453 0.62844 0.08696 0.0
C389 C 0.31652 0.57994 0.11156 0.0
O390 O 0.40745 0.51871 0.0567 0.0
C391 C 0.39646 0.48469 0.07691 0.0
O392 O 0.38369 0.50308 0.10238 0.0
H393 H 0.35912 0.66862 0.0759 0.0
H394 H 0.33697 0.52555 0.14464 0.0
C395 C 0.45415 0.59269 0.03909 0.0
C396 C 0.47249 0.60758 0.05267 0.0
C397 C 0.45949 0.67188 0.10477 0.0
C398 C 0.44153 0.65677 0.09155 0.0
N399 N 0.43907 0.61809 0.05871 0.0
N400 N 0.47444 0.64718 0.0851 0.0
H401 H 0.45186 0.56206 0.01303 0.0
C402 C 0.3871 0.52926 0.21302 0.0
O403 O 0.39912 0.50252 0.18771 0.0
O404 O 0.40944 0.60455 0.97674 0.0
H405 H 0.42966 0.67592 0.10766 0.0
H406 H 0.32739 0.69851 0.05443 0.0
H407 H 0.46157 0.70291 0.13066 0.0
Zn408 Zn 0.41713 0.42672 0.54801 0.0
C409 C 0.38953 0.32166 0.63033 0.0
N410 N 0.39504 0.28214 0.60111 0.0
C411 C 0.40205 0.31392 0.56851 0.0
N412 N 0.40124 0.37072 0.57721 0.0
N413 N 0.39279 0.37618 0.61577 0.0
C414 C 0.39821 0.4822 0.71257 0.0
O415 O 0.41231 0.48537 0.68505 0.0
O416 O 0.41499 0.41809 0.48237 0.0
Zn417 Zn 0.37908 0.44581 0.63391 0.0
N418 N 0.44294 0.41359 0.56657 0.0
C419 C 0.46364 0.3675 0.61661 0.0
C420 C 0.44558 0.37891 0.60194 0.0
C421 C 0.45779 0.43844 0.54567 0.0
N422 N 0.47841 0.39188 0.59575 0.0
C423 C 0.47616 0.42752 0.5607 0.0
O424 O 0.38654 0.52071 0.60332 0.0
C425 C 0.39897 0.54175 0.57796 0.0
O426 O 0.41089 0.50994 0.55887 0.0
H427 H 0.43375 0.36006 0.61872 0.0
H428 H 0.45525 0.46562 0.5175 0.0
C429 C 0.33796 0.46121 0.63692 0.0
C430 C 0.31943 0.44574 0.62545 0.0
C431 C 0.33139 0.37052 0.58113 0.0
C432 C 0.34956 0.3867 0.59166 0.0
N433 N 0.35263 0.43084 0.61998 0.0
N434 N 0.31685 0.40031 0.59809 0.0
H435 H 0.34072 0.49652 0.65902 0.0
C436 C 0.40103 0.44255 0.46431 0.0
O437 O 0.38834 0.46686 0.48926 0.0
O438 O 0.38248 0.46406 0.6987 0.0
H439 H 0.36111 0.36388 0.57712 0.0
H440 H 0.46592 0.33963 0.64451 0.0
H441 H 0.32884 0.33499 0.55912 0.0
Zn442 Zn 0.1219 0.59983 0.54706 0.0
C443 C 0.14723 0.69559 0.63781 0.0
N444 N 0.1431 0.73909 0.61044 0.0
C445 C 0.13683 0.71135 0.57485 0.0
N446 N 0.13669 0.65375 0.5804 0.0
N447 N 0.14381 0.64357 0.61968 0.0
C448 C 0.14127 0.52541 0.71142 0.0
O449 O 0.12867 0.51361 0.6814 0.0
O450 O 0.12547 0.6118 0.48239 0.0
Zn451 Zn 0.1584 0.57478 0.63579 0.0
N452 N 0.09558 0.60976 0.56118 0.0
C453 C 0.07174 0.65184 0.60495 0.0
C454 C 0.09057 0.64609 0.59389 0.0
C455 C 0.08249 0.57822 0.53935 0.0
N456 N 0.05868 0.62057 0.58316 0.0
C457 C 0.06339 0.58361 0.55042 0.0
O458 O 0.1512 0.50085 0.6045 0.0
C459 C 0.13887 0.48248 0.57786 0.0
O460 O 0.12782 0.51648 0.55798 0.0
H461 H 0.1011 0.67007 0.61154 0.0
H462 H 0.08713 0.54837 0.51456 0.0
C463 C 0.19942 0.5618 0.6381 0.0
C464 C 0.21789 0.57855 0.62713 0.0
C465 C 0.20564 0.6563 0.58551 0.0
C466 C 0.18752 0.63889 0.59555 0.0
N467 N 0.18463 0.59274 0.62224 0.0
N468 N 0.2203 0.62583 0.60135 0.0
H469 H 0.19678 0.52499 0.65895 0.0
C470 C 0.13884 0.58504 0.46407 0.0
O471 O 0.15069 0.5561 0.48854 0.0
O472 O 0.15571 0.55427 0.7004 0.0
H473 H 0.17589 0.6623 0.58189 0.0
H474 H 0.06753 0.68065 0.63089 0.0
H475 H 0.20805 0.69334 0.56474 0.0
Zn476 Zn 0.91087 0.59046 0.96566 0.0
C477 C 0.88557 0.69832 0.88198 0.0
N478 N 0.89083 0.73706 0.91214 0.0
C479 C 0.89643 0.70411 0.94571 0.0
N480 N 0.89511 0.64757 0.9365 0.0
N481 N 0.8877 0.64345 0.8967 0.0
C482 C 0.8847 0.52224 0.79656 0.0
O483 O 0.89561 0.49253 0.8228 0.0
O484 O 0.90713 0.59326 0.0315 0.0
Zn485 Zn 0.8725 0.57703 0.87836 0.0
N486 N 0.9373 0.60568 0.95037 0.0
C487 C 0.95799 0.66045 0.90538 0.0
C488 C 0.93995 0.64509 0.91795 0.0
C489 C 0.9523 0.57958 0.97006 0.0
N490 N 0.97283 0.63526 0.92522 0.0
C491 C 0.97072 0.59482 0.95714 0.0
O492 O 0.87959 0.50165 0.90755 0.0
C493 C 0.89209 0.47863 0.9316 0.0
O494 O 0.90451 0.50839 0.95106 0.0
H495 H 0.92816 0.66475 0.90175 0.0
H496 H 0.94993 0.54826 0.99573 0.0
C497 C 0.83069 0.57441 0.87654 0.0
C498 C 0.81303 0.59467 0.89073 0.0
C499 C 0.82821 0.65467 0.94252 0.0
C500 C 0.8455 0.63424 0.9289 0.0
N501 N 0.84661 0.59558 0.89562 0.0
N502 N 0.81248 0.63462 0.92317 0.0
H503 H 0.83175 0.54313 0.85048 0.0
C504 C 0.89136 0.5756 0.04565 0.0
O505 O 0.87823 0.56288 0.01712 0.0
O506 O 0.87417 0.56099 0.81266 0.0
H507 H 0.85798 0.64967 0.94483 0.0
H508 H 0.96019 0.69214 0.8799 0.0
H509 H 0.82726 0.68602 0.96853 0.0
Zn510 Zn 0.6187 0.4347 0.96459 0.0
C511 C 0.64671 0.32931 0.88291 0.0
N512 N 0.64201 0.29014 0.91334 0.0
C513 C 0.63489 0.32209 0.94559 0.0
N514 N 0.63471 0.3786 0.93542 0.0
N515 N 0.64278 0.38376 0.89635 0.0
C516 C 0.64454 0.49989 0.79553 0.0
O517 O 0.63177 0.52422 0.82026 0.0
O518 O 0.62258 0.43159 0.03044 0.0
Zn519 Zn 0.65725 0.45233 0.87891 0.0
N520 N 0.59257 0.41826 0.9488 0.0
C521 C 0.57217 0.36599 0.90172 0.0
C522 C 0.59013 0.3809 0.91508 0.0
C523 C 0.5775 0.44286 0.96899 0.0
N524 N 0.55722 0.38984 0.92198 0.0
C525 C 0.55917 0.42835 0.95516 0.0
O526 O 0.64877 0.52802 0.90613 0.0
C527 C 0.63595 0.54936 0.93015 0.0
O528 O 0.62418 0.51766 0.95009 0.0
H529 H 0.60206 0.36247 0.89859 0.0
H530 H 0.57978 0.47266 0.99561 0.0
C531 C 0.6991 0.45498 0.87889 0.0
C532 C 0.71657 0.43686 0.89587 0.0
C533 C 0.70074 0.38517 0.95186 0.0
C534 C 0.68363 0.40351 0.93544 0.0
N535 N 0.68296 0.43696 0.89885 0.0
N536 N 0.71671 0.40207 0.93176 0.0
H537 H 0.69835 0.48206 0.85008 0.0
C538 C 0.6384 0.44993 0.0437 0.0
O539 O 0.65117 0.46327 0.0144 0.0
O540 O 0.65654 0.46666 0.81318 0.0
H541 H 0.67093 0.39059 0.9518 0.0
H542 H 0.5701 0.33583 0.87525 0.0
H543 H 0.70136 0.35789 0.98058 0.0
H544 H 0.0255 0.06842 0.43216 0.0
H545 H 0.06084 0.02381 0.54209 0.0
H546 H 0.0351 0.97087 0.57513 0.0
H547 H 1.00247 0.93747 0.57364 0.0
H548 H 0.96711 0.98279 0.46406 0.0
H549 H 0.99284 0.03626 0.43112 0.0
C550 C 0.0277 0.04736 0.46345 0.0
C551 C 0.04544 0.04993 0.48388 0.0
C552 C 1.01268 0.01746 0.48284 0.0
C553 C 0.04772 0.02198 0.52452 0.0
C554 C 0.03285 0.99191 0.54387 0.0
C555 C 1.00032 0.95896 0.5425 0.0
C556 C 0.98263 0.95627 0.52189 0.0
C557 C 1.01529 0.9893 0.52331 0.0
C558 C 0.98027 0.98478 0.48155 0.0
C559 C 0.9951 0.01507 0.46232 0.0
H560 H 0.55368 1.00192 0.51939 0.0
H561 H 0.52235 0.15393 0.5538 0.0
H562 H 0.49395 0.1115 0.52356 0.0
H563 H 0.47786 0.03142 0.48719 0.0
H564 H 0.50913 0.87924 0.45289 0.0
H565 H 0.53759 0.92188 0.48272 0.0
C566 C 0.54075 0.02625 0.51964 0.0
C567 C 0.54029 0.08141 0.53856 0.0
C568 C 0.52433 1.00138 0.50245 0.0
C569 C 0.52318 0.11141 0.53951 0.0
C570 C 0.50687 0.08717 0.52222 0.0
C571 C 0.4908 1.00708 0.48685 0.0
C572 C 0.49121 0.95177 0.46818 0.0
C573 C 0.50723 0.03201 0.50387 0.0
C574 C 0.50833 0.92185 0.46703 0.0
C575 C 0.52467 0.94621 0.48409 0.0
H576 H 0.50434 0.08392 0.93244 0.0
H577 H 0.47123 0.06617 0.05009 0.0
H578 H 0.4968 0.01464 0.08536 0.0
H579 H 0.5286 0.97484 0.08323 0.0
H580 H 0.56164 0.99252 0.96548 0.0
H581 H 0.53619 0.04487 0.93051 0.0
C582 C 0.50268 0.06908 0.9659 0.0
C583 C 0.48564 0.07848 0.98811 0.0
C584 C 0.51753 0.03981 0.98627 0.0
C585 C 0.48387 0.0586 0.03149 0.0
C586 C 0.49861 0.02944 0.05195 0.0
C587 C 0.53029 0.99002 0.04986 0.0
C588 C 0.54725 0.98015 0.02747 0.0
C589 C 0.51547 0.01966 0.02961 0.0
C590 C 0.54906 1.00042 0.98421 0.0
C591 C 0.53439 0.03002 0.9639 0.0
H592 H 0.02481 0.96404 0.92811 0.0
H593 H 0.0574 0.96356 0.04721 0.0
H594 H 0.03311 0.01866 0.08407 0.0
H595 H 1.00233 0.06568 0.08314 0.0
H596 H 0.96977 0.06608 0.96399 0.0
H597 H 0.9942 1.01177 0.92698 0.0
C598 C 0.0266 0.97579 0.96219 0.0
C599 C 0.04309 0.96013 0.98449 0.0
C600 C 1.0125 1.00723 0.98341 0.0
C601 C 0.04513 0.97599 0.02868 0.0
C602 C 0.03114 1.00722 0.05 0.0
C603 C 1.0006 0.05419 0.04899 0.0
C604 C 0.98403 0.06932 0.02678 0.0
C605 C 1.01478 0.02312 0.02769 0.0
C606 C 0.98208 0.0539 0.98248 0.0
C607 C 0.99614 0.02313 0.96107 0.0
H608 H 0.55599 0.50239 0.49045 0.0
H609 H 0.52487 0.65343 0.45206 0.0
H610 H 0.49625 0.61154 0.48183 0.0
H611 H 0.47993 0.53227 0.51908 0.0
H612 H 0.51103 0.38106 0.55724 0.0
H613 H 0.53966 0.42313 0.52779 0.0
C614 C 0.54305 0.52665 0.48921 0.0
C615 C 0.54272 0.58139 0.46934 0.0
C616 C 0.52651 0.5021 0.50615 0.0
C617 C 0.5256 0.61124 0.46712 0.0
C618 C 0.50918 0.58731 0.48414 0.0
C619 C 0.49287 0.508 0.52036 0.0
C620 C 0.49316 0.45314 0.54005 0.0
C621 C 0.50941 0.53259 0.5035 0.0
C622 C 0.5103 0.42334 0.54234 0.0
C623 C 0.52674 0.44736 0.52548 0.0
H624 H 0.02931 0.55472 0.58346 0.0
H625 H 0.06308 0.5375 0.46687 0.0
H626 H 0.03816 0.48303 0.43186 0.0
H627 H 1.00659 0.44142 0.43346 0.0
H628 H 0.97274 0.45889 0.54986 0.0
H629 H 0.99773 0.51301 0.58507 0.0
C630 C 0.03128 0.53922 0.55033 0.0
C631 C 0.04832 0.54979 0.52837 0.0
C632 C 0.01675 0.50834 0.52999 0.0
C633 C 0.05046 0.52909 0.48538 0.0
C634 C 0.03608 0.49824 0.46501 0.0
C635 C 1.00464 0.45683 0.46662 0.0
C636 C 0.98756 0.44646 0.48848 0.0
C637 C 0.01917 0.48761 0.48699 0.0
C638 C 0.98541 0.46711 0.53148 0.0
C639 C 0.99982 0.49776 0.55194 0.0
H640 H 0.05204 0.52357 0.02065 0.0
H641 H 0.02489 0.35843 0.0337 0.0
H642 H 0.99531 0.40008 0.00999 0.0
H643 H 0.97681 0.4834 0.98494 0.0
H644 H 1.00399 0.64826 0.97103 0.0
H645 H 0.03356 0.60687 0.99548 0.0
C646 C 0.03977 0.49643 0.01765 0.0
C647 C 0.0409 0.43765 0.02876 0.0
C648 C 0.02257 0.52081 1.0042 0.0
C649 C 0.02456 0.40379 0.02551 0.0
C650 C 1.00754 0.42759 0.01197 0.0
C651 C 0.98911 0.51049 0.98796 0.0
C652 C 0.98802 0.5691 0.97646 0.0
C653 C 1.00629 0.48616 1.00149 0.0
C654 C 1.00433 0.60303 0.97965 0.0
C655 C 0.02133 0.57937 0.99355 0.0
H656 H 0.47803 0.49848 0.01966 0.0
H657 H 0.50636 0.65941 0.0439 0.0
H658 H 0.53575 0.61842 0.01833 0.0
H659 H 0.55365 0.53702 0.98861 0.0
H660 H 0.52535 0.37616 0.96411 0.0
H661 H 0.49595 0.41701 0.98994 0.0
C662 C 0.49053 0.52493 0.0187 0.0
C663 C 0.48982 0.58226 0.03343 0.0
C664 C 0.50758 0.50091 1.00423 0.0
C665 C 0.5064 0.61517 0.03284 0.0
C666 C 0.52329 0.59175 0.01824 0.0
C667 C 0.54115 0.51055 0.9896 0.0
C668 C 0.54186 0.4533 0.97474 0.0
C669 C 0.52411 0.53452 1.00411 0.0
C670 C 0.5253 0.42034 0.97532 0.0
C671 C 0.5084 0.44369 0.99004 0.0
H672 H 0.11076 0.92101 0.46887 0.0
H673 H 0.16744 0.90837 0.42089 0.0
H674 H 0.17029 0.81254 0.45344 0.0
H675 H 0.15869 0.74152 0.50732 0.0
H676 H 0.10285 0.75801 0.55864 0.0
H677 H 0.09738 0.84201 0.5121 0.0
C678 C 0.12363 0.89687 0.46478 0.0
C679 C 0.13901 0.92241 0.44328 0.0
C680 C 0.12527 0.84223 0.48416 0.0
C681 C 0.15544 0.89005 0.43758 0.0
C682 C 0.1571 0.83526 0.45635 0.0
C683 C 0.14504 0.76199 0.50653 0.0
C684 C 0.13104 0.74321 0.53558 0.0
C685 C 0.14238 0.81201 0.48126 0.0
C686 C 0.11361 0.77088 0.53564 0.0
C687 C 0.11063 0.81956 0.50961 0.0
H688 H 0.42667 0.10353 0.4661 0.0
H689 H 0.37067 0.12288 0.41498 0.0
H690 H 0.36906 0.22002 0.44508 0.0
H691 H 0.38117 0.29068 0.49808 0.0
H692 H 0.4362 0.26831 0.55271 0.0
H693 H 0.44096 0.18264 0.50779 0.0
C694 C 0.41422 0.12934 0.46083 0.0
C695 C 0.39864 0.10528 0.43913 0.0
C696 C 0.41331 0.18505 0.47866 0.0
C697 C 0.38279 0.13988 0.43191 0.0
C698 C 0.38185 0.19553 0.4492 0.0
C699 C 0.39459 0.26878 0.49816 0.0
C700 C 0.40845 0.28615 0.52806 0.0
C701 C 0.39672 0.21761 0.47414 0.0
C702 C 0.42554 0.25653 0.52912 0.0
C703 C 0.42807 0.20675 0.50415 0.0
H704 H 0.60983 0.11214 0.04798 0.0
H705 H 0.6663 0.12799 0.09679 0.0
H706 H 0.66813 0.2259 0.06774 0.0
H707 H 0.65607 0.29769 0.01532 0.0
H708 H 0.60054 0.27834 0.96278 0.0
H709 H 0.59559 0.19267 0.00776 0.0
C710 C 0.62241 0.13742 0.05307 0.0
C711 C 0.63807 0.11217 0.07363 0.0
C712 C 0.62346 0.19345 0.03576 0.0
C713 C 0.65411 0.14599 0.08071 0.0
C714 C 0.65519 0.20204 0.06398 0.0
C715 C 0.64252 0.27646 0.01575 0.0
C716 C 0.62857 0.29468 0.98635 0.0
C717 C 0.64026 0.22518 0.03976 0.0
C718 C 0.61128 0.26602 0.98599 0.0
C719 C 0.60863 0.21616 0.01098 0.0
H720 H 0.92553 0.77038 0.96875 0.0
H721 H 0.87365 0.70014 0.01632 0.0
H722 H 0.87111 0.77805 0.06981 0.0
H723 H 0.88021 0.87788 0.09025 0.0
H724 H 0.93242 0.94632 0.04115 0.0
H725 H 0.93838 0.85765 1.00195 0.0
C726 C 0.91423 0.77054 0.99251 0.0
C727 C 0.89987 0.72972 0.9889 0.0
C728 C 0.91259 0.81646 0.02206 0.0
C729 C 0.88505 0.73071 0.01912 0.0
C730 C 0.88342 0.77598 0.04913 0.0
C731 C 0.89314 0.87267 0.07208 0.0
C732 C 0.90551 0.9196 0.0676 0.0
C733 C 0.89654 0.82106 0.04903 0.0
C734 C 0.92233 0.91168 0.04427 0.0
C735 C 0.92583 0.86079 0.02178 0.0
H736 H 0.92137 0.08297 0.53196 0.0
H737 H 0.86977 0.12059 0.59963 0.0
H738 H 0.86914 0.21641 0.56645 0.0
H739 H 0.87987 0.28061 0.50688 0.0
H740 H 0.92942 0.23643 0.43416 0.0
H741 H 0.9346 0.15311 0.4813 0.0
C742 C 0.91014 0.11244 0.54016 0.0
C743 C 0.89539 0.09406 0.56734 0.0
C744 C 0.90955 0.16656 0.51994 0.0
C745 C 0.88119 0.13331 0.57835 0.0
C746 C 0.88077 0.18808 0.55924 0.0
C747 C 0.89223 0.25398 0.50286 0.0
C748 C 0.90449 0.26488 0.46791 0.0
C749 C 0.89441 0.20406 0.52841 0.0
C750 C 0.92013 0.22951 0.4617 0.0
C751 C 0.9229 0.18134 0.48819 0.0
H752 H 0.60727 0.93333 0.52886 0.0
H753 H 0.66014 0.9079 0.59463 0.0
H754 H 0.66292 0.8126 0.5619 0.0
H755 H 0.65297 0.74414 0.50475 0.0
H756 H 0.60124 0.77288 0.43595 0.0
H757 H 0.59503 0.85797 0.48053 0.0
C758 C 0.61926 0.90664 0.53668 0.0
C759 C 0.63365 0.92846 0.56354 0.0
C760 C 0.62091 0.85208 0.51726 0.0
C761 C 0.64893 0.89269 0.57375 0.0
C762 C 0.65056 0.83807 0.55497 0.0
C763 C 0.63994 0.76763 0.50113 0.0
C764 C 0.62737 0.75189 0.46787 0.0
C765 C 0.63698 0.8182 0.52542 0.0
C766 C 0.61084 0.78353 0.46218 0.0
C767 C 0.60747 0.83276 0.48714 0.0
H768 H 0.42506 0.78068 0.04643 0.0
H769 H 0.37344 0.71007 0.9978 0.0
H770 H 0.37103 0.78815 0.94402 0.0
H771 H 0.38027 0.88746 0.92319 0.0
H772 H 0.43225 0.9563 0.97307 0.0
H773 H 0.43806 0.86784 0.01306 0.0
C774 C 0.4138 0.78112 0.02257 0.0
C775 C 0.39947 0.74027 0.02571 0.0
C776 C 0.41232 0.82673 0.99267 0.0
C777 C 0.38474 0.74107 0.99532 0.0
C778 C 0.38322 0.78618 0.96508 0.0
C779 C 0.39311 0.88238 0.94174 0.0
C780 C 0.40544 0.92925 0.94633 0.0
C781 C 0.39639 0.83108 0.96523 0.0
C782 C 0.4222 0.92159 0.96997 0.0
C783 C 0.4256 0.87091 0.99292 0.0
H784 H 0.15198 0.13339 0.92631 0.0
H785 H 0.0974 0.07542 0.96856 0.0
H786 H 0.09274 0.164 0.00885 0.0
H787 H 0.1068 0.24789 0.04444 0.0
H788 H 0.16089 0.30822 1.0027 0.0
H789 H 0.16295 0.23009 0.94932 0.0
C790 C 0.13886 0.14098 0.9432 0.0
C791 C 0.12537 0.09696 0.94554 0.0
C792 C 0.13622 0.1924 0.96685 0.0
C793 C 0.10831 0.10784 0.96719 0.0
C794 C 0.10556 0.15861 0.99032 0.0
C795 C 0.1186 0.24532 0.02216 0.0
C796 C 0.13362 0.28335 0.02716 0.0
C797 C 0.1198 0.19978 0.99224 0.0
C798 C 0.14906 0.27946 0.99888 0.0
C799 C 0.15034 0.23435 0.96877 0.0
H800 H 0.60813 0.43447 0.47879 0.0
H801 H 0.66244 0.40567 0.42084 0.0
H802 H 0.66365 0.31005 0.45406 0.0
H803 H 0.65177 0.24249 0.51006 0.0
H804 H 0.59863 0.27496 0.5715 0.0
H805 H 0.59412 0.36014 0.52552 0.0
C806 C 0.62012 0.40699 0.4728 0.0
C807 C 0.63536 0.42787 0.44809 0.0
C808 C 0.62086 0.35238 0.49254 0.0
C809 C 0.6506 0.39112 0.44008 0.0
C810 C 0.65132 0.33635 0.45915 0.0
C811 C 0.63884 0.26683 0.5117 0.0
C812 C 0.62537 0.25225 0.54335 0.0
C813 C 0.63686 0.31744 0.48677 0.0
C814 C 0.60893 0.28486 0.54654 0.0
C815 C 0.60653 0.33408 0.5208 0.0
H816 H 0.92138 0.73351 0.55882 0.0
H817 H 0.87033 0.80148 0.50492 0.0
H818 H 0.86938 0.7236 0.45093 0.0
H819 H 0.88011 0.62608 0.42939 0.0
H820 H 0.93177 0.56098 0.48392 0.0
H821 H 0.93565 0.64808 0.52639 0.0
C822 C 0.91052 0.73247 0.53397 0.0
C823 C 0.896 0.77269 0.53544 0.0
C824 C 0.90997 0.68731 0.50369 0.0
C825 C 0.88178 0.77098 0.50376 0.0
C826 C 0.88112 0.72607 0.47332 0.0
C827 C 0.89245 0.63168 0.44962 0.0
C828 C 0.90527 0.58613 0.45447 0.0
C829 C 0.89467 0.68232 0.47444 0.0
C830 C 0.92136 0.59454 0.48041 0.0
C831 C 0.92366 0.64448 0.50481 0.0
H832 H 0.1054 0.59685 0.03386 0.0
H833 H 0.15791 0.62445 0.10069 0.0
H834 H 0.15965 0.72172 0.07083 0.0
H835 H 0.14979 0.78947 0.01315 0.0
H836 H 0.09889 0.75726 0.94192 0.0
H837 H 0.09256 0.67277 0.98706 0.0
C838 C 0.11704 0.62451 0.0427 0.0
C839 C 0.13176 0.60269 0.06846 0.0
C840 C 0.11818 0.67998 0.02461 0.0
C841 C 0.14652 0.63966 0.08033 0.0
C842 C 0.14756 0.69538 0.06318 0.0
C843 C 0.13684 0.7655 0.00926 0.0
C844 C 0.12463 0.77987 0.97497 0.0
C845 C 0.13395 0.71485 0.03355 0.0
C846 C 0.10818 0.74785 0.969 0.0
C847 C 0.10478 0.69877 0.99422 0.0
H848 H 0.42279 0.431 0.02809 0.0
H849 H 0.37161 0.3991 0.09936 0.0
H850 H 0.3693 0.30362 0.0664 0.0
H851 H 0.37853 0.23816 0.00646 0.0
H852 H 0.42735 0.27819 0.92947 0.0
H853 H 0.43423 0.36037 0.97612 0.0
C854 C 0.41128 0.40288 0.03714 0.0
C855 C 0.39715 0.42283 0.06533 0.0
C856 C 0.40967 0.34914 0.01688 0.0
C857 C 0.38256 0.38522 0.07729 0.0
C858 C 0.38119 0.33064 0.0583 0.0
C859 C 0.39107 0.26367 1.00131 0.0
C860 C 0.40271 0.25168 0.96547 0.0
C861 C 0.39419 0.31329 0.02651 0.0
C862 C 0.41858 0.28574 0.95777 0.0
C863 C 0.42232 0.33332 0.98399 0.0
H864 H 0.42657 0.60569 0.5397 0.0
H865 H 0.37025 0.61815 0.59 0.0
H866 H 0.36731 0.71456 0.55876 0.0
H867 H 0.37858 0.78654 0.50541 0.0
H868 H 0.43407 0.77112 0.45198 0.0
H869 H 0.43981 0.68614 0.49731 0.0
C870 C 0.41376 0.62988 0.54457 0.0
C871 C 0.3985 0.60402 0.56642 0.0
C872 C 0.41208 0.68518 0.52609 0.0
C873 C 0.38216 0.63655 0.57303 0.0
C874 C 0.38044 0.69177 0.55506 0.0
C875 C 0.39226 0.76626 0.5056 0.0
C876 C 0.40603 0.7856 0.4761 0.0
C877 C 0.39504 0.71554 0.53005 0.0
C878 C 0.42348 0.75798 0.47534 0.0
C879 C 0.42659 0.70858 0.50059 0.0
H880 H 0.15341 0.23294 0.50903 0.0
H881 H 0.09851 0.26075 0.45507 0.0
H882 H 0.09469 0.34662 0.50004 0.0
H883 H 0.10988 0.42437 0.54097 0.0
H884 H 0.16589 0.40059 0.59082 0.0
H885 H 0.16644 0.30289 0.56143 0.0
C886 C 0.14023 0.25613 0.50913 0.0
C887 C 0.12614 0.24032 0.47939 0.0
C888 C 0.13869 0.3076 0.53298 0.0
C889 C 0.10933 0.27144 0.47854 0.0
C890 C 0.10734 0.32132 0.50353 0.0
C891 C 0.12211 0.3975 0.54606 0.0
C892 C 0.13801 0.42031 0.56709 0.0
C893 C 0.12241 0.34165 0.52863 0.0
C894 C 0.15355 0.38444 0.57427 0.0
C895 C 0.15388 0.32851 0.55743 0.0
H896 H 0.86811 0.23911 0.0056 0.0
H897 H 0.92452 0.24482 0.05475 0.0
H898 H 0.93138 0.32792 0.00849 0.0
H899 H 0.91917 0.41018 0.96666 0.0
H900 H 0.86209 0.40709 0.92017 0.0
H901 H 0.85769 0.31173 0.95211 0.0
C902 C 0.88214 0.25709 1.00447 0.0
C903 C 0.89591 0.23553 0.03288 0.0
C904 C 0.88566 0.30645 0.97918 0.0
C905 C 0.9139 0.25962 0.0322 0.0
C906 C 0.91769 0.30796 0.00636 0.0
C907 C 0.90589 0.38814 0.9627 0.0
C908 C 0.89085 0.4164 0.942 0.0
C909 C 0.90336 0.33355 0.98165 0.0
C910 C 0.87385 0.38672 0.93636 0.0
C911 C 0.87128 0.33219 0.95478 0.0
H912 H 0.60807 0.61284 0.96729 0.0
H913 H 0.66392 0.62749 0.91438 0.0
H914 H 0.66651 0.72484 0.94356 0.0
H915 H 0.65545 0.79647 0.99698 0.0
H916 H 0.60064 0.77826 0.05369 0.0
H917 H 0.59474 0.69333 0.00892 0.0
C918 C 0.62068 0.63772 0.96133 0.0
C919 C 0.63595 0.61217 0.93955 0.0
C920 C 0.62219 0.6935 0.97877 0.0
C921 C 0.65202 0.6456 0.93145 0.0
C922 C 0.65354 0.70138 0.94824 0.0
C923 C 0.64184 0.77567 0.99755 0.0
C924 C 0.62836 0.7941 0.02798 0.0
C925 C 0.63905 0.72472 0.97361 0.0
C926 C 0.611 0.76589 0.02964 0.0
C927 C 0.60782 0.71641 1.00475 0.0
H928 H 0.28313 0.91005 0.36936 0.0
H929 H 0.31505 0.06784 0.37061 0.0
H930 H 0.2861 0.12343 0.36601 0.0
H931 H 0.25173 0.12722 0.37141 0.0
H932 H 0.21996 0.96904 0.37372 0.0
H933 H 0.2488 0.91388 0.36662 0.0
C934 C 0.2838 0.95664 0.36791 0.0
C935 C 0.30131 0.98457 0.37055 0.0
C936 C 0.26707 0.98836 0.3663 0.0
C937 C 0.30188 0.04496 0.36817 0.0
C938 C 0.28527 0.07687 0.36603 0.0
C939 C 0.25106 0.08066 0.36974 0.0
C940 C 0.23359 0.05256 0.37327 0.0
C941 C 0.26779 0.04902 0.36655 0.0
C942 C 0.23305 0.99218 0.37058 0.0
C943 C 0.24962 0.96044 0.36696 0.0
H944 H 0.73009 0.04252 0.13655 0.0
H945 H 0.74604 0.86454 0.14822 0.0
H946 H 0.77884 0.8922 0.15698 0.0
H947 H 0.80336 0.96545 0.14578 0.0
H948 H 0.78746 0.14233 0.12652 0.0
H949 H 0.75452 0.11741 0.13719 0.0
C950 C 0.74068 1.01013 0.14286 0.0
C951 C 0.73571 0.95166 0.14194 0.0
C952 C 0.75967 0.02629 0.14575 0.0
C953 C 0.74959 0.90987 0.14903 0.0
C954 C 0.76837 0.92565 0.15366 0.0
C955 C 0.79272 0.99871 0.14576 0.0
C956 C 0.79777 0.05561 0.13558 0.0
C957 C 0.77369 0.98352 0.14986 0.0
C958 C 0.78384 0.09825 0.13452 0.0
C959 C 0.76499 0.08393 0.14026 0.0
H960 H 0.7784 0.90139 0.62414 0.0
H961 H 0.81092 0.05782 0.63125 0.0
H962 H 0.78229 0.11372 0.63972 0.0
H963 H 0.74801 0.11933 0.63647 0.0
H964 H 0.71542 0.96339 0.62623 0.0
H965 H 0.74407 0.9063 0.62828 0.0
C966 C 0.77926 0.94768 0.6281 0.0
C967 C 0.79686 0.97519 0.62693 0.0
C968 C 0.76269 0.97976 0.63218 0.0
C969 C 0.79768 0.03517 0.63255 0.0
C970 C 0.78126 0.06734 0.63698 0.0
C971 C 0.74713 0.07277 0.6353 0.0
C972 C 0.72953 0.04587 0.63106 0.0
C973 C 0.76369 0.04023 0.63559 0.0
C974 C 0.72867 0.98544 0.63003 0.0
C975 C 0.74511 0.9527 0.63073 0.0
H976 H 0.28216 0.11819 0.88591 0.0
H977 H 0.31071 0.95504 0.87856 0.0
H978 H 0.28073 0.90577 0.86903 0.0
H979 H 0.24632 0.90795 0.87401 0.0
H980 H 0.21769 0.07076 0.882 0.0
H981 H 0.24774 0.12141 0.87916 0.0
C982 C 0.28184 0.07194 0.8813 0.0
C983 C 0.29866 0.04032 0.88327 0.0
C984 C 0.26451 0.04385 0.87623 0.0
C985 C 0.29804 0.98052 0.87686 0.0
C986 C 0.28086 0.95225 0.8718 0.0
C987 C 0.24665 0.95461 0.87399 0.0
C988 C 0.2298 0.98555 0.87843 0.0
C989 C 0.26399 0.98329 0.87301 0.0
C990 C 0.2304 0.04594 0.87816 0.0
C991 C 0.24762 0.07487 0.87707 0.0
H992 H 0.78339 0.40534 0.38436 0.0
H993 H 0.81456 0.56372 0.37164 0.0
H994 H 0.78537 0.61694 0.36204 0.0
H995 H 0.75102 0.62009 0.36713 0.0
H996 H 0.71984 0.46214 0.38233 0.0
H997 H 0.74897 0.40722 0.38037 0.0
C998 C 0.78383 0.45143 0.37875 0.0
C999 C 0.80121 0.48039 0.37897 0.0
C1000 C 0.76695 0.48194 0.37401 0.0
C1001 C 0.8015 0.54003 0.37122 0.0
C1002 C 0.78475 0.57065 0.36616 0.0
C1003 C 0.75055 0.57351 0.36925 0.0
C1004 C 0.7332 0.54543 0.3751 0.0
C1005 C 0.76741 0.54228 0.36893 0.0
C1006 C 0.73288 0.48502 0.37736 0.0
C1007 C 0.7496 0.45358 0.37672 0.0
H1008 H 0.28165 0.62073 0.12659 0.0
H1009 H 0.31283 0.46226 0.11752 0.0
H1010 H 0.28367 0.40734 0.12055 0.0
H1011 H 0.24927 0.40503 0.11669 0.0
H1012 H 0.21812 0.56379 0.12366 0.0
H1013 H 0.2473 0.61773 0.13108 0.0
C1014 C 0.28209 0.57409 0.12596 0.0
C1015 C 0.29944 0.54577 0.12164 0.0
C1016 C 0.26525 0.54283 0.12701 0.0
C1017 C 0.29977 0.48531 0.1213 0.0
C1018 C 0.28305 0.45384 0.12258 0.0
C1019 C 0.24884 0.4514 0.12049 0.0
C1020 C 0.23149 0.48023 0.11944 0.0
C1021 C 0.26571 0.48225 0.12409 0.0
C1022 C 0.23119 0.54026 0.12483 0.0
C1023 C 0.24792 0.57126 0.12864 0.0
H1024 H 0.25277 0.62013 0.64192 0.0
H1025 H 0.22132 0.46143 0.63904 0.0
H1026 H 0.25033 0.40664 0.64496 0.0
H1027 H 0.28466 0.4037 0.64031 0.0
H1028 H 0.31614 0.56232 0.63962 0.0
H1029 H 0.28713 0.61703 0.64643 0.0
C1030 C 0.25222 0.57352 0.64333 0.0
C1031 C 0.23481 0.54511 0.63978 0.0
C1032 C 0.26901 0.54219 0.64575 0.0
C1033 C 0.23439 0.4847 0.64215 0.0
C1034 C 0.25104 0.45322 0.64507 0.0
C1035 C 0.28521 0.45026 0.64244 0.0
C1036 C 0.30261 0.47874 0.63918 0.0
C1037 C 0.26843 0.48151 0.64533 0.0
C1038 C 0.30306 0.53904 0.64247 0.0
C1039 C 0.28641 0.57046 0.64588 0.0
H1040 H 0.80238 0.48314 0.87687 0.0
H1041 H 0.7825 0.65788 0.86989 0.0
H1042 H 0.75031 0.62389 0.86249 0.0
H1043 H 0.72745 0.54522 0.87156 0.0
H1044 H 0.7473 0.37089 0.88354 0.0
H1045 H 0.77958 0.4035 0.87461 0.0
C1046 C 0.79107 0.51361 0.87209 0.0
C1047 C 0.79483 0.57293 0.87399 0.0
C1048 C 0.77242 0.49373 0.86944 0.0
C1049 C 0.77995 0.61195 0.86862 0.0
C1050 C 0.7615 0.59255 0.86464 0.0
C1051 C 0.73879 0.51426 0.87058 0.0
C1052 C 0.73497 0.45575 0.87829 0.0
C1053 C 0.75747 0.53361 0.86698 0.0
C1054 C 0.74989 0.41624 0.87779 0.0
C1055 C 0.76839 0.43488 0.87292 0.0
H1056 H 0.12444 0.94582 0.25029 0.0
H1057 H 0.16561 0.08005 0.23257 0.0
H1058 H 0.16654 0.06062 0.15425 0.0
H1059 H 0.15527 1.00715 0.09059 0.0
H1060 H 0.11373 0.87387 0.10743 0.0
H1061 H 0.11357 0.89078 0.18641 0.0
C1062 C 0.13362 0.97084 0.22932 0.0
C1063 C 0.14485 0.01461 0.24736 0.0
C1064 C 0.13413 0.95935 0.18418 0.0
C1065 C 0.15671 0.04641 0.21963 0.0
C1066 C 0.15732 0.03519 0.1748 0.0
C1067 C 0.1463 0.98133 0.11152 0.0
C1068 C 0.13453 0.93929 0.09309 0.0
C1069 C 0.14606 0.9919 0.15671 0.0
C1070 C 0.12292 0.90655 0.12075 0.0
C1071 C 0.12278 0.91631 0.1659 0.0
H1072 H 0.41691 0.09636 0.10819 0.0
H1073 H 0.35911 0.05356 0.08292 0.0
H1074 H 0.35567 0.01788 0.15771 0.0
H1075 H 0.36932 0.9955 0.22972 0.0
H1076 H 0.42725 0.03731 0.25464 0.0
H1077 H 0.43037 0.076 0.1807 0.0
C1078 C 0.40349 0.07997 0.1192 0.0
C1079 C 0.38829 0.07785 0.08989 0.0
C1080 C 0.40167 0.05854 0.16215 0.0
C1081 C 0.37105 0.05581 0.1047 0.0
C1082 C 0.36908 0.03512 0.14748 0.0
C1083 C 0.38264 0.01299 0.21899 0.0
C1084 C 0.39803 0.01325 0.24782 0.0
C1085 C 0.38435 0.03555 0.17634 0.0
C1086 C 0.41516 0.03635 0.23326 0.0
C1087 C 0.41696 0.0587 0.19093 0.0
H1088 H 0.62283 0.07362 0.26265 0.0
H1089 H 0.66774 0.95158 0.28054 0.0
H1090 H 0.6686 0.97333 0.35864 0.0
H1091 H 0.65637 0.02573 0.42198 0.0
H1092 H 0.61112 0.14667 0.40481 0.0
H1093 H 0.61081 0.12707 0.32616 0.0
C1094 C 0.63281 0.05169 0.28359 0.0
C1095 C 0.64518 1.01085 0.26562 0.0
C1096 C 0.63326 0.0645 0.32857 0.0
C1097 C 0.65803 0.98306 0.29337 0.0
C1098 C 0.65856 0.99558 0.33808 0.0
C1099 C 0.64653 0.0483 0.40106 0.0
C1100 C 0.63381 0.08779 0.41937 0.0
C1101 C 0.64625 0.03618 0.35603 0.0
C1102 C 0.62108 0.11616 0.39166 0.0
C1103 C 0.62086 0.10482 0.34668 0.0
H1104 H 0.91312 0.93081 0.4025 0.0
H1105 H 0.85428 0.96005 0.42537 0.0
H1106 H 0.85057 0.99475 0.35027 0.0
H1107 H 0.86429 0.01991 0.27863 0.0
H1108 H 0.92335 0.99234 0.25706 0.0
H1109 H 0.92668 0.95457 0.33107 0.0
C1110 C 0.89942 0.94404 0.39094 0.0
C1111 C 0.884 0.94257 0.41955 0.0
C1112 C 0.89745 0.96503 0.348 0.0
C1113 C 0.8664 0.96058 0.40406 0.0
C1114 C 0.86427 0.9807 0.36113 0.0
C1115 C 0.87789 1.00571 0.29014 0.0
C1116 C 0.89353 1.00914 0.26219 0.0
C1117 C 0.87975 0.9838 0.33294 0.0
C1118 C 0.91105 0.99043 0.27774 0.0
C1119 C 0.91299 0.96858 0.32011 0.0
H1120 H 0.90039 0.07667 0.76161 0.0
H1121 H 0.86335 0.93143 0.77893 0.0
H1122 H 0.86295 0.94782 0.85784 0.0
H1123 H 0.87369 1.00179 0.9219 0.0
H1124 H 0.9112 0.14595 0.90491 0.0
H1125 H 0.91065 0.13189 0.82566 0.0
C1126 C 0.8922 0.04861 0.7826 0.0
C1127 C 0.88193 1.00287 0.76435 0.0
C1128 C 0.89205 0.05823 0.82793 0.0
C1129 C 0.87135 0.96705 0.79207 0.0
C1130 C 0.87111 0.97638 0.83721 0.0
C1131 C 0.88163 0.03052 0.9009 0.0
C1132 C 0.89248 0.07486 0.91934 0.0
C1133 C 0.88145 0.02172 0.85548 0.0
C1134 C 0.90275 0.11145 0.89158 0.0
C1135 C 0.90248 0.10335 0.84627 0.0
H1136 H 0.66375 0.03539 0.77878 0.0
H1137 H 0.60723 0.98017 0.75142 0.0
H1138 H 0.60361 0.94771 0.82689 0.0
H1139 H 0.61616 0.93684 0.90127 0.0
H1140 H 0.67273 0.9916 0.92871 0.0
H1141 H 0.67667 0.02156 0.85269 0.0
C1142 C 0.65064 0.01626 0.78932 0.0
C1143 C 0.63578 1.01044 0.75942 0.0
C1144 C 0.64867 0.99723 0.83283 0.0
C1145 C 0.61892 0.98525 0.77366 0.0
C1146 C 0.61682 0.96657 0.81687 0.0
C1147 C 0.62942 0.9548 0.89056 0.0
C1148 C 0.6441 0.962 0.92079 0.0
C1149 C 0.63158 0.97245 0.84679 0.0
C1150 C 0.66117 0.98552 0.90625 0.0
C1151 C 0.66343 1.00292 0.86275 0.0
H1152 H 0.40667 0.94504 0.7483 0.0
H1153 H 0.36268 0.07099 0.73401 0.0
H1154 H 0.36255 0.05594 0.6549 0.0
H1155 H 0.37541 1.00883 0.58969 0.0
H1156 H 0.41988 0.88449 0.60372 0.0
H1157 H 0.4192 0.89684 0.68315 0.0
C1158 C 0.39699 0.96914 0.72795 0.0
C1159 C 0.38468 1.00906 0.74719 0.0
C1160 C 0.39705 0.96046 0.68244 0.0
C1161 C 0.37226 0.03984 0.72019 0.0
C1162 C 0.37219 0.03131 0.6749 0.0
C1163 C 0.38487 0.98402 0.61009 0.0
C1164 C 0.39768 0.94572 0.59069 0.0
C1165 C 0.38457 0.99188 0.65567 0.0
C1166 C 0.4099 0.91428 0.61771 0.0
C1167 C 0.40954 0.9214 0.66316 0.0
H1168 H 0.11305 0.079 0.6084 0.0
H1169 H 0.1725 0.05971 0.58793 0.0
H1170 H 0.1763 0.02603 0.66316 0.0
H1171 H 0.16265 0.99906 0.73439 0.0
H1172 H 0.10313 0.01757 0.75437 0.0
H1173 H 0.09951 0.05386 0.67991 0.0
C1174 C 0.12688 0.06812 0.62052 0.0
C1175 C 0.14246 0.07209 0.59243 0.0
C1176 C 0.12896 0.04788 0.66374 0.0
C1177 C 0.16024 0.05719 0.60872 0.0
C1178 C 0.16244 0.03766 0.65177 0.0
C1179 C 0.14888 1.01094 0.72246 0.0
C1180 C 0.1332 1.00537 0.7501 0.0
C1181 C 0.14687 0.03217 0.67946 0.0
C1182 C 0.11547 0.02122 0.73396 0.0
C1183 C 0.11337 0.04218 0.69131 0.0
H1184 H 0.6643 0.53371 0.23111 0.0
H1185 H 0.60776 0.48309 0.2631 0.0
H1186 H 0.60266 0.4519 0.18792 0.0
H1187 H 0.61398 0.44023 0.11239 0.0
H1188 H 0.67063 0.48998 0.08058 0.0
H1189 H 0.67592 0.51946 0.15607 0.0
C1190 C 0.65086 0.51587 0.22164 0.0
C1191 C 0.63646 0.51094 0.25285 0.0
C1192 C 0.64802 0.49748 0.17825 0.0
C1193 C 0.61915 0.48745 0.23991 0.0
C1194 C 0.61619 0.46949 0.19683 0.0
C1195 C 0.62754 0.45703 0.12203 0.0
C1196 C 0.64185 0.46285 0.09065 0.0
C1197 C 0.63051 0.47431 0.16565 0.0
C1198 C 0.65931 0.48494 0.10388 0.0
C1199 C 0.66237 0.50205 0.14713 0.0
H1200 H 0.86767 0.49166 0.235 0.0
H1201 H 0.92467 0.54162 0.26279 0.0
H1202 H 0.92878 0.57321 0.18731 0.0
H1203 H 0.91653 0.58514 0.11267 0.0
H1204 H 0.85949 0.53584 0.08472 0.0
H1205 H 0.85509 0.50633 0.16068 0.0
C1206 C 0.88098 0.50948 0.22455 0.0
C1207 C 0.89582 0.51405 0.25468 0.0
C1208 C 0.88328 0.52804 0.18093 0.0
C1209 C 0.91297 0.53749 0.24047 0.0
C1210 C 0.91536 0.55568 0.1972 0.0
C1211 C 0.90308 0.56842 0.12325 0.0
C1212 C 0.8884 0.56273 0.09283 0.0
C1213 C 0.90064 0.55109 0.16708 0.0
C1214 C 0.87108 0.54079 0.10727 0.0
C1215 C 0.86854 0.52366 0.15078 0.0
H1216 H 0.15925 0.50905 0.41671 0.0
H1217 H 0.11952 0.64782 0.40331 0.0
H1218 H 0.11852 0.63279 0.32419 0.0
H1219 H 0.12806 0.57812 0.25938 0.0
H1220 H 0.16719 0.43772 0.27313 0.0
H1221 H 0.16918 0.45537 0.35176 0.0
C1222 C 0.15052 0.53647 0.39647 0.0
C1223 C 0.13949 0.57956 0.41589 0.0
C1224 C 0.14977 0.52695 0.35117 0.0
C1225 C 0.12813 0.61433 0.38919 0.0
C1226 C 0.12751 0.60566 0.34397 0.0
C1227 C 0.13704 0.55136 0.27953 0.0
C1228 C 0.14747 0.50669 0.26037 0.0
C1229 C 0.1381 0.56166 0.32471 0.0
C1230 C 0.15906 0.47253 0.28699 0.0
C1231 C 0.16021 0.48258 0.33197 0.0
H1232 H 0.4088 0.4537 0.2585 0.0
H1233 H 0.36559 0.58156 0.27533 0.0
H1234 H 0.36562 0.56409 0.35417 0.0
H1235 H 0.37814 0.51356 0.41834 0.0
H1236 H 0.42189 0.38745 0.40205 0.0
H1237 H 0.42129 0.40292 0.32283 0.0
C1238 C 0.39936 0.47776 0.27936 0.0
C1239 C 0.38716 0.51877 0.26091 0.0
C1240 C 0.39949 0.46764 0.32473 0.0
C1241 C 0.37507 0.54956 0.28854 0.0
C1242 C 0.37508 0.53961 0.33367 0.0
C1243 C 0.38746 0.48905 0.39749 0.0
C1244 C 0.40001 0.44924 0.41613 0.0
C1245 C 0.38722 0.49876 0.3521 0.0
C1246 C 0.4121 0.41834 0.38858 0.0
C1247 C 0.41178 0.42724 0.34328 0.0
H1248 H 0.37104 0.49572 0.77464 0.0
H1249 H 0.4304 0.51635 0.75321 0.0
H1250 H 0.43416 0.55357 0.8273 0.0
H1251 H 0.42073 0.57912 0.89887 0.0
H1252 H 0.36139 0.55808 0.9203 0.0
H1253 H 0.35752 0.5231 0.84562 0.0
C1254 C 0.38481 0.50821 0.78618 0.0
C1255 C 0.40041 0.50299 0.75827 0.0
C1256 C 0.38689 0.53005 0.82886 0.0
C1257 C 0.41813 0.51974 0.77386 0.0
C1258 C 0.42031 0.54122 0.81628 0.0
C1259 C 0.40692 0.56754 0.88706 0.0
C1260 C 0.39138 0.57139 0.91528 0.0
C1261 C 0.40479 0.54665 0.8441 0.0
C1262 C 0.37361 0.55563 0.89941 0.0
C1263 C 0.37137 0.53537 0.85667 0.0
H1264 H 0.16585 0.53021 0.78002 0.0
H1265 H 0.10993 0.47596 0.74569 0.0
H1266 H 0.10471 0.44214 0.82024 0.0
H1267 H 0.1157 0.42924 0.89579 0.0
H1268 H 0.17164 0.4829 0.93039 0.0
H1269 H 0.17717 0.5148 0.85535 0.0
C1270 C 0.15252 0.51104 0.78887 0.0
C1271 C 0.13832 0.50583 0.7572 0.0
C1272 C 0.14961 0.49114 0.83193 0.0
C1273 C 0.12115 0.48059 0.76928 0.0
C1274 C 0.11813 0.4611 0.81199 0.0
C1275 C 0.12916 0.44739 0.88686 0.0
C1276 C 0.14319 0.45362 0.91884 0.0
C1277 C 0.13224 0.46616 0.84362 0.0
C1278 C 0.16054 0.4775 0.90656 0.0
C1279 C 0.16373 0.49601 0.86361 0.0
H1280 H 0.90399 0.43886 0.75302 0.0
H1281 H 0.86423 0.5762 0.73294 0.0
H1282 H 0.86329 0.55486 0.65479 0.0
H1283 H 0.87419 0.49873 0.59195 0.0
H1284 H 0.91433 0.36232 0.61137 0.0
H1285 H 0.91446 0.38131 0.69009 0.0
C1286 C 0.89511 0.46419 0.7316 0.0
C1287 C 0.88426 0.50933 0.74897 0.0
C1288 C 0.8946 0.45158 0.68658 0.0
C1289 C 0.87279 0.54144 0.72059 0.0
C1290 C 0.87221 0.52914 0.67584 0.0
C1291 C 0.88285 0.47266 0.61337 0.0
C1292 C 0.89423 0.42904 0.59565 0.0
C1293 C 0.88308 0.48442 0.65847 0.0
C1294 C 0.90543 0.3961 0.62404 0.0
C1295 C 0.90556 0.40708 0.66907 0.0
H1296 H 0.65796 0.52683 0.59213 0.0
H1297 H 0.61189 0.64548 0.60576 0.0
H1298 H 0.61092 0.62652 0.68453 0.0
H1299 H 0.62257 0.5741 0.74913 0.0
H1300 H 0.66835 0.45445 0.73477 0.0
H1301 H 0.66988 0.4757 0.65658 0.0
C1302 C 0.6478 0.54904 0.61231 0.0
C1303 C 0.63503 0.58765 0.59297 0.0
C1304 C 0.64715 0.53731 0.65742 0.0
C1305 C 0.62189 0.61562 0.61972 0.0
C1306 C 0.62129 0.60465 0.66477 0.0
C1307 C 0.63289 0.5526 0.72894 0.0
C1308 C 0.64529 0.51254 0.74791 0.0
C1309 C 0.63373 0.56513 0.6839 0.0
C1310 C 0.6586 0.48532 0.72114 0.0
C1311 C 0.65952 0.49755 0.67638 0.0
H1312 H 0.16452 0.2465 0.1764 0.0
H1313 H 0.12603 0.38665 0.1973 0.0
H1314 H 0.12332 0.36064 0.27428 0.0
H1315 H 0.1291 0.29293 0.33313 0.0
H1316 H 0.1698 0.15813 0.31766 0.0
H1317 H 0.17407 0.18575 0.24047 0.0
C1318 C 0.15588 0.27192 0.19819 0.0
C1319 C 0.14573 0.31916 0.18139 0.0
C1320 C 0.15423 0.25623 0.24269 0.0
C1321 C 0.1344 0.35133 0.20968 0.0
C1322 C 0.13261 0.33588 0.25357 0.0
C1323 C 0.13904 0.26942 0.31314 0.0
C1324 C 0.14817 0.22062 0.33033 0.0
C1325 C 0.14206 0.28763 0.27003 0.0
C1326 C 0.16136 0.19226 0.30416 0.0
C1327 C 0.16414 0.20921 0.26039 0.0
H1328 H 0.40118 0.73163 0.33267 0.0
H1329 H 0.36495 0.87702 0.31165 0.0
H1330 H 0.36109 0.84901 0.23454 0.0
H1331 H 0.36945 0.7838 0.17257 0.0
H1332 H 0.40493 0.63745 0.19766 0.0
H1333 H 0.40676 0.66303 0.27479 0.0
C1334 C 0.39225 0.75723 0.31152 0.0
C1335 C 0.38416 0.80838 0.32726 0.0
C1336 C 0.38958 0.73941 0.26832 0.0
C1337 C 0.37243 0.8401 0.29946 0.0
C1338 C 0.36988 0.8231 0.25572 0.0
C1339 C 0.37721 0.757 0.19531 0.0
C1340 C 0.38652 0.70752 0.17989 0.0
C1341 C 0.37866 0.77318 0.23962 0.0
C1342 C 0.39692 0.67391 0.2092 0.0
C1343 C 0.39828 0.68927 0.25311 0.0
H1344 H 0.66764 0.77927 0.3289 0.0
H1345 H 0.62841 0.64206 0.30489 0.0
H1346 H 0.62722 0.66733 0.22763 0.0
H1347 H 0.63373 0.73586 0.17001 0.0
H1348 H 0.67318 0.87345 0.1901 0.0
H1349 H 0.67736 0.84263 0.26664 0.0
C1350 C 0.65933 0.75402 0.30626 0.0
C1351 C 0.64877 0.70701 0.32199 0.0
C1352 C 0.65808 0.77072 0.262 0.0
C1353 C 0.63755 0.67575 0.29294 0.0
C1354 C 0.63647 0.69132 0.24902 0.0
C1355 C 0.64344 0.75906 0.19083 0.0
C1356 C 0.65233 0.80914 0.17523 0.0
C1357 C 0.6462 0.7397 0.23364 0.0
C1358 C 0.66511 0.83765 0.20242 0.0
C1359 C 0.66781 0.81903 0.24577 0.0
H1360 H 0.89231 0.2829 0.17041 0.0
H1361 H 0.85739 0.13666 0.20017 0.0
H1362 H 0.85466 0.16972 0.27651 0.0
H1363 H 0.86395 0.23858 0.33504 0.0
H1364 H 0.90032 0.38029 0.30283 0.0
H1365 H 0.89951 0.35362 0.22589 0.0
C1366 C 0.88388 0.25831 0.19336 0.0
C1367 C 0.87555 0.20623 0.18015 0.0
C1368 C 0.88207 0.27838 0.23618 0.0
C1369 C 0.86469 0.17517 0.21024 0.0
C1370 C 0.86285 0.19484 0.25351 0.0
C1371 C 0.87116 0.26455 0.31077 0.0
C1372 C 0.8813 0.31367 0.32412 0.0
C1373 C 0.87169 0.24614 0.26692 0.0
C1374 C 0.89122 0.34557 0.29287 0.0
C1375 C 0.89128 0.32889 0.24911 0.0
H1376 H 0.86406 0.74179 0.68353 0.0
H1377 H 0.90241 0.88268 0.7034 0.0
H1378 H 0.90497 0.85808 0.78082 0.0
H1379 H 0.89932 0.79023 0.84026 0.0
H1380 H 0.8594 0.65317 0.82425 0.0
H1381 H 0.85474 0.6812 0.74741 0.0
C1382 C 0.87259 0.76779 0.7052 0.0
C1383 C 0.88274 0.81478 0.6881 0.0
C1384 C 0.87426 0.75262 0.74971 0.0
C1385 C 0.894 0.84761 0.71614 0.0
C1386 C 0.89572 0.83292 0.76024 0.0
C1387 C 0.88947 0.76651 0.82013 0.0
C1388 C 0.88067 0.71692 0.83695 0.0
C1389 C 0.88635 0.7846 0.77699 0.0
C1390 C 0.86756 0.68807 0.81087 0.0
C1391 C 0.86456 0.70518 0.76732 0.0
H1392 H 0.63186 0.23752 0.84402 0.0
H1393 H 0.67154 0.37384 0.82122 0.0
H1394 H 0.67466 0.34337 0.74439 0.0
H1395 H 0.66414 0.2803 0.68291 0.0
H1396 H 0.62542 0.14242 0.70975 0.0
H1397 H 0.62479 0.16853 0.7869 0.0
C1398 C 0.64137 0.26055 0.82248 0.0
C1399 C 0.65058 0.31039 0.83746 0.0
C1400 C 0.64364 0.24107 0.77953 0.0
C1401 C 0.66313 0.33854 0.80938 0.0
C1402 C 0.66526 0.32001 0.76588 0.0
C1403 C 0.65603 0.25511 0.70608 0.0
C1404 C 0.64539 0.20792 0.69109 0.0
C1405 C 0.65525 0.27192 0.75036 0.0
C1406 C 0.63452 0.17658 0.72097 0.0
C1407 C 0.63379 0.19254 0.76487 0.0
H1408 H 0.39948 0.22426 0.67025 0.0
H1409 H 0.36513 0.37434 0.68916 0.0
H1410 H 0.35842 0.34338 0.76437 0.0
H1411 H 0.3647 0.27647 0.82634 0.0
H1412 H 0.4004 0.12979 0.80555 0.0
H1413 H 0.40309 0.15401 0.72824 0.0
C1414 C 0.3903 0.25021 0.69046 0.0
C1415 C 0.38351 0.30327 0.67469 0.0
C1416 C 0.38629 0.23134 0.7329 0.0
C1417 C 0.3715 0.3355 0.70131 0.0
C1418 C 0.36735 0.31697 0.74401 0.0
C1419 C 0.37254 0.24891 0.80439 0.0
C1420 C 0.3816 0.19964 0.82112 0.0
C1421 C 0.37503 0.26548 0.76044 0.0
C1422 C 0.39229 0.16546 0.79291 0.0
C1423 C 0.39429 0.18041 0.74896 0.0
H1424 H 0.16658 0.7822 0.67762 0.0
H1425 H 0.13056 0.63685 0.70216 0.0
H1426 H 0.12859 0.66204 0.77902 0.0
H1427 H 0.13353 0.73087 0.83603 0.0
H1428 H 0.16895 0.87881 0.81602 0.0
H1429 H 0.17396 0.84937 0.73938 0.0
C1430 C 0.15878 0.75538 0.70031 0.0
C1431 C 0.14955 0.70565 0.68494 0.0
C1432 C 0.15688 0.77229 0.74433 0.0
C1433 C 0.1389 0.67242 0.71395 0.0
C1434 C 0.13731 0.68797 0.75761 0.0
C1435 C 0.14261 0.75673 0.81535 0.0
C1436 C 0.15028 0.80843 0.83115 0.0
C1437 C 0.14581 0.73847 0.77269 0.0
C1438 C 0.162 0.84085 0.80377 0.0
C1439 C 0.16516 0.82317 0.76038 0.0
loop_
_geom_bond_atom_site_label_1
_geom_bond_atom_site_label_2
_geom_bond_distance
_geom_bond_site_symmetry_2
_ccdc_geom_bond_type
Zn0 N4 2.020 . S
Zn0 O8 2.019 . S
Zn0 N10 2.119 . S
Zn0 O18 1.975 1_545 S
C1 N2 1.334 . S
C1 N5 1.336 . S
N2 C1 1.334 . S
N2 C3 1.334 . S
C3 N2 1.334 . S
C3 N4 1.336 . S
N4 Zn0 2.020 . S
N4 C3 1.336 . S
N4 N5 1.354 . S
N5 C1 1.336 . S
N5 N4 1.354 . S
N5 Zn9 2.020 . S
C6 O7 1.244 1_565 S
C6 O30 1.257 . S
O7 C6 1.244 1_545 S
O8 Zn0 2.019 . S
O8 C28 1.257 . S
Zn9 N5 2.020 . S
Zn9 O16 1.975 1_545 S
Zn9 N25 2.119 . S
Zn9 O30 2.019 1_545 S
N10 Zn0 2.119 . S
N10 C12 1.334 . S
N10 C13 1.328 . S
C11 C12 1.391 . S
C11 N14 1.329 . S
C11 H32 0.930 1_545 S
C12 N10 1.334 . S
C12 C11 1.391 . S
C12 H19 0.930 . S
C13 N10 1.328 . S
C13 C15 1.392 . S
C13 H20 0.930 . S
N14 C11 1.329 . S
N14 C15 1.331 . S
C15 C13 1.392 . S
C15 N14 1.331 . S
O16 Zn9 1.975 1_565 S
O16 C17 1.252 . S
C17 O16 1.252 . S
C17 O18 1.252 . S
O18 Zn0 1.975 1_565 S
O18 C17 1.252 . S
H19 C12 0.930 . S
H20 C13 0.930 . S
C21 C22 1.392 . S
C21 N25 1.328 . S
C21 H27 0.930 . S
C22 C21 1.392 . S
C22 N26 1.331 . S
C23 C24 1.391 . S
C23 N26 1.329 . S
C23 H33 0.930 . S
C24 C23 1.391 . S
C24 N25 1.334 . S
C24 H31 0.930 . S
N25 Zn9 2.119 . S
N25 C21 1.328 . S
N25 C24 1.334 . S
N26 C22 1.331 . S
N26 C23 1.329 . S
H27 C21 0.930 . S
C28 O8 1.257 . S
C28 O29 1.244 . S
O29 C28 1.244 . S
O30 C6 1.257 . S
O30 Zn9 2.019 1_565 S
H31 C24 0.930 . S
H32 C11 0.930 1_565 S
H33 C23 0.930 . S
Zn34 N38 2.020 . S
Zn34 O42 2.019 . S
Zn34 N44 2.119 . S
Zn34 O52 1.975 1_565 S
C35 N36 1.334 . S
C35 N39 1.336 . S
N36 C35 1.334 . S
N36 C37 1.334 . S
C37 N36 1.334 . S
C37 N38 1.336 . S
N38 Zn34 2.020 . S
N38 C37 1.336 . S
N38 N39 1.354 . S
N39 C35 1.336 . S
N39 N38 1.354 . S
N39 Zn43 2.020 . S
C40 O41 1.244 1_545 S
C40 O64 1.257 . S
O41 C40 1.244 1_565 S
O42 Zn34 2.019 . S
O42 C62 1.257 . S
Zn43 N39 2.020 . S
Zn43 O50 1.975 1_565 S
Zn43 N59 2.119 . S
Zn43 O64 2.019 1_565 S
N44 Zn34 2.119 . S
N44 C46 1.334 . S
N44 C47 1.328 . S
C45 C46 1.391 . S
C45 N48 1.329 . S
C45 H66 0.930 1_565 S
C46 N44 1.334 . S
C46 C45 1.391 . S
C46 H53 0.930 . S
C47 N44 1.328 . S
C47 C49 1.392 . S
C47 H54 0.930 . S
N48 C45 1.329 . S
N48 C49 1.331 . S
C49 C47 1.392 . S
C49 N48 1.331 . S
O50 Zn43 1.975 1_545 S
O50 C51 1.252 . S
C51 O50 1.252 . S
C51 O52 1.252 . S
O52 Zn34 1.975 1_545 S
O52 C51 1.252 . S
H53 C46 0.930 . S
H54 C47 0.930 . S
C55 C56 1.392 . S
C55 N59 1.328 . S
C55 H61 0.930 . S
C56 C55 1.392 . S
C56 N60 1.331 . S
C57 C58 1.391 . S
C57 N60 1.329 . S
C57 H67 0.930 . S
C58 C57 1.391 . S
C58 N59 1.334 . S
C58 H65 0.930 . S
N59 Zn43 2.119 . S
N59 C55 1.328 . S
N59 C58 1.334 . S
N60 C56 1.331 . S
N60 C57 1.329 . S
H61 C55 0.930 . S
C62 O42 1.257 . S
C62 O63 1.244 . S
O63 C62 1.244 . S
O64 C40 1.257 . S
O64 Zn43 2.019 1_545 S
H65 C58 0.930 . S
H66 C45 0.930 1_545 S
H67 C57 0.930 . S
Zn68 N72 2.020 . S
Zn68 O76 2.019 1_554 S
Zn68 N78 2.119 . S
Zn68 O86 1.975 1_565 S
C69 N70 1.334 . S
C69 N73 1.336 . S
N70 C69 1.334 . S
N70 C71 1.334 . S
C71 N70 1.334 . S
C71 N72 1.336 . S
N72 Zn68 2.020 . S
N72 C71 1.336 . S
N72 N73 1.354 . S
N73 C69 1.336 . S
N73 N72 1.354 . S
N73 Zn77 2.020 . S
C74 O75 1.244 1_545 S
C74 O98 1.257 . S
O75 C74 1.244 1_565 S
O76 Zn68 2.019 1_556 S
O76 C96 1.257 . S
Zn77 N73 2.020 . S
Zn77 O84 1.975 1_565 S
Zn77 N93 2.119 . S
Zn77 O98 2.019 1_565 S
N78 Zn68 2.119 . S
N78 C80 1.334 . S
N78 C81 1.328 . S
C79 C80 1.391 . S
C79 N82 1.329 . S
C79 H100 0.930 1_565 S
C80 N78 1.334 . S
C80 C79 1.391 . S
C80 H87 0.930 . S
C81 N78 1.328 . S
C81 C83 1.392 . S
C81 H88 0.945 . S
N82 C79 1.329 . S
N82 C83 1.331 . S
C83 C81 1.392 . S
C83 N82 1.331 . S
O84 Zn77 1.975 1_545 S
O84 C85 1.252 . S
C85 O84 1.252 . S
C85 O86 1.252 . S
O86 Zn68 1.975 1_545 S
O86 C85 1.252 . S
H87 C80 0.930 . S
H88 C81 0.945 . S
C89 C90 1.392 . S
C89 N93 1.328 . S
C89 H95 0.930 . S
C90 C89 1.392 . S
C90 N94 1.331 . S
C91 C92 1.391 . S
C91 N94 1.329 . S
C91 H101 0.930 . S
C92 C91 1.391 . S
C92 N93 1.334 . S
C92 H99 0.930 . S
N93 Zn77 2.119 . S
N93 C89 1.328 . S
N93 C92 1.334 . S
N94 C90 1.331 . S
N94 C91 1.329 . S
H95 C89 0.930 . S
C96 O76 1.257 . S
C96 O97 1.244 . S
O97 C96 1.244 . S
O98 C74 1.257 . S
O98 Zn77 2.019 1_545 S
H99 C92 0.930 . S
H100 C79 0.930 1_545 S
H101 C91 0.930 . S
Zn102 N106 2.020 . S
Zn102 O110 2.019 1_554 S
Zn102 N112 2.119 . S
Zn102 O120 1.975 1_545 S
C103 N104 1.334 . S
C103 N107 1.336 . S
N104 C103 1.334 . S
N104 C105 1.334 . S
C105 N104 1.334 . S
C105 N106 1.336 . S
N106 Zn102 2.020 . S
N106 C105 1.336 . S
N106 N107 1.354 . S
N107 C103 1.336 . S
N107 N106 1.354 . S
N107 Zn111 2.020 . S
C108 O109 1.244 1_565 S
C108 O132 1.257 . S
O109 C108 1.244 1_545 S
O110 Zn102 2.019 1_556 S
O110 C130 1.257 . S
Zn111 N107 2.020 . S
Zn111 O118 1.975 1_545 S
Zn111 N127 2.119 . S
Zn111 O132 2.019 1_545 S
N112 Zn102 2.119 . S
N112 C114 1.334 . S
N112 C115 1.328 . S
C113 C114 1.391 . S
C113 N116 1.329 . S
C113 H134 0.930 1_545 S
C114 N112 1.334 . S
C114 C113 1.391 . S
C114 H121 0.930 . S
C115 N112 1.328 . S
C115 C117 1.392 . S
C115 H122 0.945 . S
N116 C113 1.329 . S
N116 C117 1.331 . S
C117 C115 1.392 . S
C117 N116 1.331 . S
O118 Zn111 1.975 1_565 S
O118 C119 1.252 . S
C119 O118 1.252 . S
C119 O120 1.252 . S
O120 Zn102 1.975 1_565 S
O120 C119 1.252 . S
H121 C114 0.930 . S
H122 C115 0.945 . S
C123 C124 1.392 . S
C123 N127 1.328 . S
C123 H129 0.930 . S
C124 C123 1.392 . S
C124 N128 1.331 . S
C125 C126 1.391 . S
C125 N128 1.329 . S
C125 H135 0.930 . S
C126 C125 1.391 . S
C126 N127 1.334 . S
C126 H133 0.930 . S
N127 Zn111 2.119 . S
N127 C123 1.328 . S
N127 C126 1.334 . S
N128 C124 1.331 . S
N128 C125 1.329 . S
H129 C123 0.930 . S
C130 O110 1.257 . S
C130 O131 1.244 . S
O131 C130 1.244 . S
O132 C108 1.257 . S
O132 Zn111 2.019 1_565 S
H133 C126 0.930 . S
H134 C113 0.930 1_565 S
H135 C125 0.930 . S
Zn136 N140 2.020 . S
Zn136 O144 2.019 . S
Zn136 N146 2.119 . S
Zn136 O154 1.975 1_565 S
C137 N138 1.334 . S
C137 N141 1.336 . S
N138 C137 1.334 . S
N138 C139 1.334 . S
C139 N138 1.334 . S
C139 N140 1.336 . S
N140 Zn136 2.020 . S
N140 C139 1.336 . S
N140 N141 1.354 . S
N141 C137 1.336 . S
N141 N140 1.354 . S
N141 Zn145 2.020 . S
C142 O143 1.244 1_545 S
C142 O166 1.257 . S
O143 C142 1.244 1_565 S
O144 Zn136 2.019 . S
O144 C164 1.257 . S
Zn145 N141 2.020 . S
Zn145 O152 1.975 1_565 S
Zn145 N161 2.119 . S
Zn145 O166 2.019 1_565 S
N146 Zn136 2.119 . S
N146 C148 1.334 . S
N146 C149 1.328 . S
C147 C148 1.391 . S
C147 N150 1.329 . S
C147 H168 0.930 1_565 S
C148 N146 1.334 . S
C148 C147 1.391 . S
C148 H155 0.930 . S
C149 N146 1.328 . S
C149 C151 1.392 . S
C149 H156 0.930 . S
N150 C147 1.329 . S
N150 C151 1.331 . S
C151 C149 1.392 . S
C151 N150 1.331 . S
O152 Zn145 1.975 1_545 S
O152 C153 1.252 . S
C153 O152 1.252 . S
C153 O154 1.252 . S
O154 Zn136 1.975 1_545 S
O154 C153 1.252 . S
H155 C148 0.930 . S
H156 C149 0.930 . S
C157 C158 1.392 . S
C157 N161 1.328 . S
C157 H163 0.930 . S
C158 C157 1.392 . S
C158 N162 1.331 . S
C159 C160 1.391 . S
C159 N162 1.329 . S
C159 H169 0.930 . S
C160 C159 1.391 . S
C160 N161 1.334 . S
C160 H167 0.930 . S
N161 Zn145 2.119 . S
N161 C157 1.328 . S
N161 C160 1.334 . S
N162 C158 1.331 . S
N162 C159 1.329 . S
H163 C157 0.930 . S
C164 O144 1.257 . S
C164 O165 1.244 . S
O165 C164 1.244 . S
O166 C142 1.257 . S
O166 Zn145 2.019 1_545 S
H167 C160 0.930 . S
H168 C147 0.930 1_545 S
H169 C159 0.930 . S
Zn170 N174 2.020 . S
Zn170 O178 2.019 . S
Zn170 N180 2.119 . S
Zn170 O188 1.975 1_545 S
C171 N172 1.334 . S
C171 N175 1.336 . S
N172 C171 1.334 . S
N172 C173 1.334 . S
C173 N172 1.334 . S
C173 N174 1.336 . S
N174 Zn170 2.020 . S
N174 C173 1.336 . S
N174 N175 1.354 . S
N175 C171 1.336 . S
N175 N174 1.354 . S
N175 Zn179 2.020 . S
C176 O177 1.244 1_565 S
C176 O200 1.257 . S
O177 C176 1.244 1_545 S
O178 Zn170 2.019 . S
O178 C198 1.257 . S
Zn179 N175 2.020 . S
Zn179 O186 1.975 1_545 S
Zn179 N195 2.119 . S
Zn179 O200 2.019 1_545 S
N180 Zn170 2.119 . S
N180 C182 1.334 . S
N180 C183 1.328 . S
C181 C182 1.391 . S
C181 N184 1.329 . S
C181 H202 0.930 1_545 S
C182 N180 1.334 . S
C182 C181 1.391 . S
C182 H189 0.930 . S
C183 N180 1.328 . S
C183 C185 1.392 . S
C183 H190 0.930 . S
N184 C181 1.329 . S
N184 C185 1.331 . S
C185 C183 1.392 . S
C185 N184 1.331 . S
O186 Zn179 1.975 1_565 S
O186 C187 1.252 . S
C187 O186 1.252 . S
C187 O188 1.252 . S
O188 Zn170 1.975 1_565 S
O188 C187 1.252 . S
H189 C182 0.930 . S
H190 C183 0.930 . S
C191 C192 1.392 . S
C191 N195 1.328 . S
C191 H197 0.930 . S
C192 C191 1.392 . S
C192 N196 1.331 . S
C193 C194 1.391 . S
C193 N196 1.329 . S
C193 H203 0.930 . S
C194 C193 1.391 . S
C194 N195 1.334 . S
C194 H201 0.930 . S
N195 Zn179 2.119 . S
N195 C191 1.328 . S
N195 C194 1.334 . S
N196 C192 1.331 . S
N196 C193 1.329 . S
H197 C191 0.930 . S
C198 O178 1.257 . S
C198 O199 1.244 . S
O199 C198 1.244 . S
O200 C176 1.257 . S
O200 Zn179 2.019 1_565 S
H201 C194 0.930 . S
H202 C181 0.930 1_565 S
H203 C193 0.930 . S
Zn204 N208 2.020 . S
Zn204 O212 2.019 1_545 S
Zn204 N214 2.119 . S
Zn204 O222 1.975 1_545 S
C205 N206 1.334 . S
C205 N209 1.336 . S
N206 C205 1.334 . S
N206 C207 1.334 . S
C207 N206 1.334 . S
C207 N208 1.336 . S
N208 Zn204 2.020 . S
N208 C207 1.336 . S
N208 N209 1.354 . S
N209 C205 1.336 . S
N209 N208 1.354 . S
N209 Zn213 2.020 . S
C210 O211 1.244 . S
C210 O234 1.257 . S
O211 C210 1.244 . S
O212 Zn204 2.019 1_565 S
O212 C232 1.257 . S
Zn213 N209 2.020 . S
Zn213 O220 1.975 1_545 S
Zn213 N229 2.119 . S
Zn213 O234 2.019 1_556 S
N214 Zn204 2.119 . S
N214 C216 1.334 . S
N214 C217 1.328 . S
C215 C216 1.391 . S
C215 N218 1.329 . S
C215 H236 0.930 . S
C216 N214 1.334 . S
C216 C215 1.391 . S
C216 H223 0.930 . S
C217 N214 1.328 . S
C217 C219 1.392 . S
C217 H224 0.930 . S
N218 C215 1.329 . S
N218 C219 1.331 . S
C219 C217 1.392 . S
C219 N218 1.331 . S
O220 Zn213 1.975 1_565 S
O220 C221 1.252 . S
C221 O220 1.252 . S
C221 O222 1.252 . S
O222 Zn204 1.975 1_565 S
O222 C221 1.252 . S
H223 C216 0.930 . S
H224 C217 0.930 . S
C225 C226 1.392 . S
C225 N229 1.328 . S
C225 H231 0.945 . S
C226 C225 1.392 . S
C226 N230 1.331 . S
C227 C228 1.391 . S
C227 N230 1.329 . S
C227 H237 0.930 1_545 S
C228 C227 1.391 . S
C228 N229 1.334 . S
C228 H235 0.930 . S
N229 Zn213 2.119 . S
N229 C225 1.328 . S
N229 C228 1.334 . S
N230 C226 1.331 . S
N230 C227 1.329 . S
H231 C225 0.945 . S
C232 O212 1.257 . S
C232 O233 1.244 1_565 S
O233 C232 1.244 1_545 S
O234 C210 1.257 . S
O234 Zn213 2.019 1_554 S
H235 C228 0.930 . S
H236 C215 0.930 . S
H237 C227 0.930 1_565 S
Zn238 N242 2.020 . S
Zn238 O246 2.019 1_556 S
Zn238 N248 2.119 . S
Zn238 O256 1.975 1_565 S
C239 N240 1.334 . S
C239 N243 1.336 . S
N240 C239 1.334 . S
N240 C241 1.334 . S
C241 N240 1.334 . S
C241 N242 1.336 . S
N242 Zn238 2.020 . S
N242 C241 1.336 . S
N242 N243 1.354 . S
N243 C239 1.336 . S
N243 N242 1.354 . S
N243 Zn247 2.020 . S
C244 O245 1.244 1_545 S
C244 O268 1.257 . S
O245 C244 1.244 1_565 S
O246 Zn238 2.019 1_554 S
O246 C266 1.257 . S
Zn247 N243 2.020 . S
Zn247 O254 1.975 1_565 S
Zn247 N263 2.119 . S
Zn247 O268 2.019 1_565 S
N248 Zn238 2.119 . S
N248 C250 1.334 . S
N248 C251 1.328 . S
C249 C250 1.391 . S
C249 N252 1.329 . S
C249 H270 0.930 1_565 S
C250 N248 1.334 . S
C250 C249 1.391 . S
C250 H257 0.930 . S
C251 N248 1.328 . S
C251 C253 1.392 . S
C251 H258 0.945 . S
N252 C249 1.329 . S
N252 C253 1.331 . S
C253 C251 1.392 . S
C253 N252 1.331 . S
O254 Zn247 1.975 1_545 S
O254 C255 1.252 . S
C255 O254 1.252 . S
C255 O256 1.252 . S
O256 Zn238 1.975 1_545 S
O256 C255 1.252 . S
H257 C250 0.930 . S
H258 C251 0.945 . S
C259 C260 1.392 . S
C259 N263 1.328 . S
C259 H265 0.930 . S
C260 C259 1.392 . S
C260 N264 1.331 . S
C261 C262 1.391 . S
C261 N264 1.329 . S
C261 H271 0.930 . S
C262 C261 1.391 . S
C262 N263 1.334 . S
C262 H269 0.930 . S
N263 Zn247 2.119 . S
N263 C259 1.328 . S
N263 C262 1.334 . S
N264 C260 1.331 . S
N264 C261 1.329 . S
H265 C259 0.930 . S
C266 O246 1.257 . S
C266 O267 1.244 . S
O267 C266 1.244 . S
O268 C244 1.257 . S
O268 Zn247 2.019 1_545 S
H269 C262 0.930 . S
H270 C249 0.930 1_545 S
H271 C261 0.930 . S
Zn272 N276 2.020 . S
Zn272 O280 2.019 . S
Zn272 N282 2.119 . S
Zn272 O290 1.975 . S
C273 N274 1.334 . S
C273 N277 1.336 . S
N274 C273 1.334 . S
N274 C275 1.334 . S
C275 N274 1.334 . S
C275 N276 1.336 . S
N276 Zn272 2.020 . S
N276 C275 1.336 . S
N276 N277 1.354 . S
N277 C273 1.336 . S
N277 N276 1.354 . S
N277 Zn281 2.020 . S
C278 O279 1.244 . S
C278 O302 1.257 . S
O279 C278 1.244 . S
O280 Zn272 2.019 . S
O280 C300 1.257 . S
Zn281 N277 2.020 . S
Zn281 O288 1.975 . S
Zn281 N297 2.119 . S
Zn281 O302 2.019 . S
N282 Zn272 2.119 . S
N282 C284 1.334 . S
N282 C285 1.328 . S
C283 C284 1.391 . S
C283 N286 1.329 . S
C283 H304 0.930 . S
C284 N282 1.334 . S
C284 C283 1.391 . S
C284 H291 0.930 . S
C285 N282 1.328 . S
C285 C287 1.392 . S
C285 H292 0.930 . S
N286 C283 1.329 . S
N286 C287 1.331 . S
C287 C285 1.392 . S
C287 N286 1.331 . S
O288 Zn281 1.975 . S
O288 C289 1.252 . S
C289 O288 1.252 . S
C289 O290 1.252 . S
O290 Zn272 1.975 . S
O290 C289 1.252 . S
H291 C284 0.930 . S
H292 C285 0.930 . S
C293 C294 1.392 . S
C293 N297 1.328 . S
C293 H299 0.930 . S
C294 C293 1.392 . S
C294 N298 1.331 . S
C295 C296 1.391 . S
C295 N298 1.329 . S
C295 H305 0.930 . S
C296 C295 1.391 . S
C296 N297 1.334 . S
C296 H303 0.930 . S
N297 Zn281 2.119 . S
N297 C293 1.328 . S
N297 C296 1.334 . S
N298 C294 1.331 . S
N298 C295 1.329 . S
H299 C293 0.930 . S
C300 O280 1.257 . S
C300 O301 1.244 . S
O301 C300 1.244 . S
O302 C278 1.257 . S
O302 Zn281 2.019 . S
H303 C296 0.930 . S
H304 C283 0.930 . S
H305 C295 0.930 . S
Zn306 N310 2.020 . S
Zn306 O314 2.019 . S
Zn306 N316 2.119 . S
Zn306 O324 1.975 . S
C307 N308 1.334 . S
C307 N311 1.336 . S
N308 C307 1.334 . S
N308 C309 1.334 . S
C309 N308 1.334 . S
C309 N310 1.336 . S
N310 Zn306 2.020 . S
N310 C309 1.336 . S
N310 N311 1.354 . S
N311 C307 1.336 . S
N311 N310 1.354 . S
N311 Zn315 2.020 . S
C312 O313 1.244 . S
C312 O336 1.257 . S
O313 C312 1.244 . S
O314 Zn306 2.019 . S
O314 C334 1.257 . S
Zn315 N311 2.020 . S
Zn315 O322 1.975 . S
Zn315 N331 2.119 . S
Zn315 O336 2.019 . S
N316 Zn306 2.119 . S
N316 C318 1.334 . S
N316 C319 1.328 . S
C317 C318 1.391 . S
C317 N320 1.329 . S
C317 H338 0.930 . S
C318 N316 1.334 . S
C318 C317 1.391 . S
C318 H325 0.930 . S
C319 N316 1.328 . S
C319 C321 1.392 . S
C319 H326 0.930 . S
N320 C317 1.329 . S
N320 C321 1.331 . S
C321 C319 1.392 . S
C321 N320 1.331 . S
O322 Zn315 1.975 . S
O322 C323 1.252 . S
C323 O322 1.252 . S
C323 O324 1.252 . S
O324 Zn306 1.975 . S
O324 C323 1.252 . S
H325 C318 0.930 . S
H326 C319 0.930 . S
C327 C328 1.392 . S
C327 N331 1.328 . S
C327 H333 0.930 . S
C328 C327 1.392 . S
C328 N332 1.331 . S
C329 C330 1.391 . S
C329 N332 1.329 . S
C329 H339 0.930 . S
C330 C329 1.391 . S
C330 N331 1.334 . S
C330 H337 0.930 . S
N331 Zn315 2.119 . S
N331 C327 1.328 . S
N331 C330 1.334 . S
N332 C328 1.331 . S
N332 C329 1.329 . S
H333 C327 0.930 . S
C334 O314 1.257 . S
C334 O335 1.244 . S
O335 C334 1.244 . S
O336 C312 1.257 . S
O336 Zn315 2.019 . S
H337 C330 0.930 . S
H338 C317 0.930 . S
H339 C329 0.930 . S
Zn340 N344 2.020 . S
Zn340 O348 2.019 . S
Zn340 N350 2.119 . S
Zn340 O358 1.975 . S
C341 N342 1.334 . S
C341 N345 1.336 . S
N342 C341 1.334 . S
N342 C343 1.334 . S
C343 N342 1.334 . S
C343 N344 1.336 . S
N344 Zn340 2.020 . S
N344 C343 1.336 . S
N344 N345 1.354 . S
N345 C341 1.336 . S
N345 N344 1.354 . S
N345 Zn349 2.020 . S
C346 O347 1.244 . S
C346 O370 1.257 . S
O347 C346 1.244 . S
O348 Zn340 2.019 . S
O348 C368 1.257 . S
Zn349 N345 2.020 . S
Zn349 O356 1.975 . S
Zn349 N365 2.119 . S
Zn349 O370 2.019 1_554 S
N350 Zn340 2.119 . S
N350 C352 1.334 . S
N350 C353 1.328 . S
C351 C352 1.391 . S
C351 N354 1.329 . S
C351 H372 0.930 . S
C352 N350 1.334 . S
C352 C351 1.391 . S
C352 H359 0.930 . S
C353 N350 1.328 . S
C353 C355 1.392 . S
C353 H360 0.930 . S
N354 C351 1.329 . S
N354 C355 1.331 . S
C355 C353 1.392 . S
C355 N354 1.331 . S
O356 Zn349 1.975 . S
O356 C357 1.252 . S
C357 O356 1.252 . S
C357 O358 1.252 . S
O358 Zn340 1.975 . S
O358 C357 1.252 . S
H359 C352 0.930 . S
H360 C353 0.930 . S
C361 C362 1.392 . S
C361 N365 1.328 . S
C361 H367 0.945 . S
C362 C361 1.392 . S
C362 N366 1.331 . S
C363 C364 1.391 . S
C363 N366 1.329 . S
C363 H373 0.930 . S
C364 C363 1.391 . S
C364 N365 1.334 . S
C364 H371 0.930 . S
N365 Zn349 2.119 . S
N365 C361 1.328 . S
N365 C364 1.334 . S
N366 C362 1.331 . S
N366 C363 1.329 . S
H367 C361 0.945 . S
C368 O348 1.257 . S
C368 O369 1.244 . S
O369 C368 1.244 . S
O370 C346 1.257 . S
O370 Zn349 2.019 1_556 S
H371 C364 0.930 . S
H372 C351 0.930 . S
H373 C363 0.930 . S
Zn374 N378 2.020 . S
Zn374 O382 2.019 . S
Zn374 N384 2.119 . S
Zn374 O392 1.975 . S
C375 N376 1.334 . S
C375 N379 1.336 . S
N376 C375 1.334 . S
N376 C377 1.334 . S
C377 N376 1.334 . S
C377 N378 1.336 . S
N378 Zn374 2.020 . S
N378 C377 1.336 . S
N378 N379 1.354 . S
N379 C375 1.336 . S
N379 N378 1.354 . S
N379 Zn383 2.020 . S
C380 O381 1.244 . S
C380 O404 1.257 . S
O381 C380 1.244 . S
O382 Zn374 2.019 . S
O382 C402 1.257 . S
Zn383 N379 2.020 . S
Zn383 O390 1.975 . S
Zn383 N399 2.119 . S
Zn383 O404 2.019 1_554 S
N384 Zn374 2.119 . S
N384 C386 1.334 . S
N384 C387 1.328 . S
C385 C386 1.391 . S
C385 N388 1.329 . S
C385 H406 0.930 . S
C386 N384 1.334 . S
C386 C385 1.391 . S
C386 H393 0.930 . S
C387 N384 1.328 . S
C387 C389 1.392 . S
C387 H394 0.930 . S
N388 C385 1.329 . S
N388 C389 1.331 . S
C389 C387 1.392 . S
C389 N388 1.331 . S
O390 Zn383 1.975 . S
O390 C391 1.252 . S
C391 O390 1.252 . S
C391 O392 1.252 . S
O392 Zn374 1.975 . S
O392 C391 1.252 . S
H393 C386 0.930 . S
H394 C387 0.930 . S
C395 C396 1.392 . S
C395 N399 1.328 . S
C395 H401 0.945 . S
C396 C395 1.392 . S
C396 N400 1.331 . S
C397 C398 1.391 . S
C397 N400 1.329 . S
C397 H407 0.930 . S
C398 C397 1.391 . S
C398 N399 1.334 . S
C398 H405 0.930 . S
N399 Zn383 2.119 . S
N399 C395 1.328 . S
N399 C398 1.334 . S
N400 C396 1.331 . S
N400 C397 1.329 . S
H401 C395 0.945 . S
C402 O382 1.257 . S
C402 O403 1.244 . S
O403 C402 1.244 . S
O404 C380 1.257 . S
O404 Zn383 2.019 1_556 S
H405 C398 0.930 . S
H406 C385 0.930 . S
H407 C397 0.930 . S
Zn408 N412 2.020 . S
Zn408 O416 2.019 . S
Zn408 N418 2.119 . S
Zn408 O426 1.975 . S
C409 N410 1.334 . S
C409 N413 1.336 . S
N410 C409 1.334 . S
N410 C411 1.334 . S
C411 N410 1.334 . S
C411 N412 1.336 . S
N412 Zn408 2.020 . S
N412 C411 1.336 . S
N412 N413 1.354 . S
N413 C409 1.336 . S
N413 N412 1.354 . S
N413 Zn417 2.020 . S
C414 O415 1.244 . S
C414 O438 1.257 . S
O415 C414 1.244 . S
O416 Zn408 2.019 . S
O416 C436 1.257 . S
Zn417 N413 2.020 . S
Zn417 O424 1.975 . S
Zn417 N433 2.119 . S
Zn417 O438 2.019 . S
N418 Zn408 2.119 . S
N418 C420 1.334 . S
N418 C421 1.328 . S
C419 C420 1.391 . S
C419 N422 1.329 . S
C419 H440 0.930 . S
C420 N418 1.334 . S
C420 C419 1.391 . S
C420 H427 0.930 . S
C421 N418 1.328 . S
C421 C423 1.392 . S
C421 H428 0.930 . S
N422 C419 1.329 . S
N422 C423 1.331 . S
C423 C421 1.392 . S
C423 N422 1.331 . S
O424 Zn417 1.975 . S
O424 C425 1.252 . S
C425 O424 1.252 . S
C425 O426 1.252 . S
O426 Zn408 1.975 . S
O426 C425 1.252 . S
H427 C420 0.930 . S
H428 C421 0.930 . S
C429 C430 1.392 . S
C429 N433 1.328 . S
C429 H435 0.930 . S
C430 C429 1.392 . S
C430 N434 1.331 . S
C431 C432 1.391 . S
C431 N434 1.329 . S
C431 H441 0.930 . S
C432 C431 1.391 . S
C432 N433 1.334 . S
C432 H439 0.930 . S
N433 Zn417 2.119 . S
N433 C429 1.328 . S
N433 C432 1.334 . S
N434 C430 1.331 . S
N434 C431 1.329 . S
H435 C429 0.930 . S
C436 O416 1.257 . S
C436 O437 1.244 . S
O437 C436 1.244 . S
O438 C414 1.257 . S
O438 Zn417 2.019 . S
H439 C432 0.930 . S
H440 C419 0.930 . S
H441 C431 0.930 . S
Zn442 N446 2.020 . S
Zn442 O450 2.019 . S
Zn442 N452 2.119 . S
Zn442 O460 1.975 . S
C443 N444 1.334 . S
C443 N447 1.336 . S
N444 C443 1.334 . S
N444 C445 1.334 . S
C445 N444 1.334 . S
C445 N446 1.336 . S
N446 Zn442 2.020 . S
N446 C445 1.336 . S
N446 N447 1.354 . S
N447 C443 1.336 . S
N447 N446 1.354 . S
N447 Zn451 2.020 . S
C448 O449 1.244 . S
C448 O472 1.257 . S
O449 C448 1.244 . S
O450 Zn442 2.019 . S
O450 C470 1.257 . S
Zn451 N447 2.020 . S
Zn451 O458 1.975 . S
Zn451 N467 2.119 . S
Zn451 O472 2.019 . S
N452 Zn442 2.119 . S
N452 C454 1.334 . S
N452 C455 1.328 . S
C453 C454 1.391 . S
C453 N456 1.329 . S
C453 H474 0.930 . S
C454 N452 1.334 . S
C454 C453 1.391 . S
C454 H461 0.930 . S
C455 N452 1.328 . S
C455 C457 1.392 . S
C455 H462 0.930 . S
N456 C453 1.329 . S
N456 C457 1.331 . S
C457 C455 1.392 . S
C457 N456 1.331 . S
O458 Zn451 1.975 . S
O458 C459 1.252 . S
C459 O458 1.252 . S
C459 O460 1.252 . S
O460 Zn442 1.975 . S
O460 C459 1.252 . S
H461 C454 0.930 . S
H462 C455 0.930 . S
C463 C464 1.392 . S
C463 N467 1.328 . S
C463 H469 0.930 . S
C464 C463 1.392 . S
C464 N468 1.331 . S
C465 C466 1.391 . S
C465 N468 1.329 . S
C465 H475 0.930 . S
C466 C465 1.391 . S
C466 N467 1.334 . S
C466 H473 0.930 . S
N467 Zn451 2.119 . S
N467 C463 1.328 . S
N467 C466 1.334 . S
N468 C464 1.331 . S
N468 C465 1.329 . S
H469 C463 0.930 . S
C470 O450 1.257 . S
C470 O471 1.244 . S
O471 C470 1.244 . S
O472 C448 1.257 . S
O472 Zn451 2.019 . S
H473 C466 0.930 . S
H474 C453 0.930 . S
H475 C465 0.930 . S
Zn476 N480 2.020 . S
Zn476 O484 2.019 1_556 S
Zn476 N486 2.119 . S
Zn476 O494 1.975 . S
C477 N478 1.334 . S
C477 N481 1.336 . S
N478 C477 1.334 . S
N478 C479 1.334 . S
C479 N478 1.334 . S
C479 N480 1.336 . S
N480 Zn476 2.020 . S
N480 C479 1.336 . S
N480 N481 1.354 . S
N481 C477 1.336 . S
N481 N480 1.354 . S
N481 Zn485 2.020 . S
C482 O483 1.244 . S
C482 O506 1.257 . S
O483 C482 1.244 . S
O484 Zn476 2.019 1_554 S
O484 C504 1.257 . S
Zn485 N481 2.020 . S
Zn485 O492 1.975 . S
Zn485 N501 2.119 . S
Zn485 O506 2.019 . S
N486 Zn476 2.119 . S
N486 C488 1.334 . S
N486 C489 1.328 . S
C487 C488 1.391 . S
C487 N490 1.329 . S
C487 H508 0.930 . S
C488 N486 1.334 . S
C488 C487 1.391 . S
C488 H495 0.930 . S
C489 N486 1.328 . S
C489 C491 1.392 . S
C489 H496 0.945 . S
N490 C487 1.329 . S
N490 C491 1.331 . S
C491 C489 1.392 . S
C491 N490 1.331 . S
O492 Zn485 1.975 . S
O492 C493 1.252 . S
C493 O492 1.252 . S
C493 O494 1.252 . S
O494 Zn476 1.975 . S
O494 C493 1.252 . S
H495 C488 0.930 . S
H496 C489 0.945 . S
C497 C498 1.392 . S
C497 N501 1.328 . S
C497 H503 0.930 . S
C498 C497 1.392 . S
C498 N502 1.331 . S
C499 C500 1.391 . S
C499 N502 1.329 . S
C499 H509 0.930 . S
C500 C499 1.391 . S
C500 N501 1.334 . S
C500 H507 0.930 . S
N501 Zn485 2.119 . S
N501 C497 1.328 . S
N501 C500 1.334 . S
N502 C498 1.331 . S
N502 C499 1.329 . S
H503 C497 0.930 . S
C504 O484 1.257 . S
C504 O505 1.244 . S
O505 C504 1.244 . S
O506 C482 1.257 . S
O506 Zn485 2.019 . S
H507 C500 0.930 . S
H508 C487 0.930 . S
H509 C499 0.930 . S
Zn510 N514 2.020 . S
Zn510 O518 2.019 1_556 S
Zn510 N520 2.119 . S
Zn510 O528 1.975 . S
C511 N512 1.334 . S
C511 N515 1.336 . S
N512 C511 1.334 . S
N512 C513 1.334 . S
C513 N512 1.334 . S
C513 N514 1.336 . S
N514 Zn510 2.020 . S
N514 C513 1.336 . S
N514 N515 1.354 . S
N515 C511 1.336 . S
N515 N514 1.354 . S
N515 Zn519 2.020 . S
C516 O517 1.244 . S
C516 O540 1.257 . S
O517 C516 1.244 . S
O518 Zn510 2.019 1_554 S
O518 C538 1.257 . S
Zn519 N515 2.020 . S
Zn519 O526 1.975 . S
Zn519 N535 2.119 . S
Zn519 O540 2.019 . S
N520 Zn510 2.119 . S
N520 C522 1.334 . S
N520 C523 1.328 . S
C521 C522 1.391 . S
C521 N524 1.329 . S
C521 H542 0.930 . S
C522 N520 1.334 . S
C522 C521 1.391 . S
C522 H529 0.930 . S
C523 N520 1.328 . S
C523 C525 1.392 . S
C523 H530 0.945 . S
N524 C521 1.329 . S
N524 C525 1.331 . S
C525 C523 1.392 . S
C525 N524 1.331 . S
O526 Zn519 1.975 . S
O526 C527 1.252 . S
C527 O526 1.252 . S
C527 O528 1.252 . S
O528 Zn510 1.975 . S
O528 C527 1.252 . S
H529 C522 0.930 . S
H530 C523 0.945 . S
C531 C532 1.392 . S
C531 N535 1.328 . S
C531 H537 0.930 . S
C532 C531 1.392 . S
C532 N536 1.331 . S
C533 C534 1.391 . S
C533 N536 1.329 . S
C533 H543 0.930 . S
C534 C533 1.391 . S
C534 N535 1.334 . S
C534 H541 0.930 . S
N535 Zn519 2.119 . S
N535 C531 1.328 . S
N535 C534 1.334 . S
N536 C532 1.331 . S
N536 C533 1.329 . S
H537 C531 0.930 . S
C538 O518 1.257 . S
C538 O539 1.244 . S
O539 C538 1.244 . S
O540 C516 1.257 . S
O540 Zn519 2.019 . S
H541 C534 0.930 . S
H542 C521 0.930 . S
H543 C533 0.930 . S
H544 C550 0.930 . S
H545 C553 0.930 . S
H546 C554 0.930 . S
H547 C555 0.930 . S
H548 C558 0.930 . S
H549 C559 0.930 . S
C550 H544 0.930 . S
C550 C551 1.355 . S
C550 C552 1.468 . S
C551 C550 1.355 . S
C551 C553 1.419 1_545 S
C552 C550 1.468 . S
C552 C557 1.419 1_445 S
C552 C559 1.361 1_455 S
C553 H545 0.930 . S
C553 C551 1.419 1_565 S
C553 C554 1.362 . S
C554 H546 0.930 . S
C554 C553 1.362 . S
C554 C557 1.361 1_455 S
C555 H547 0.930 . S
C555 C556 1.355 . S
C555 C557 1.468 . S
C556 C555 1.355 . S
C556 C558 1.419 1_565 S
C557 C552 1.419 1_665 S
C557 C554 1.361 1_655 S
C557 C555 1.468 . S
C558 H548 0.930 . S
C558 C556 1.419 1_545 S
C558 C559 1.362 . S
C559 H549 0.930 . S
C559 C552 1.361 1_655 S
C559 C558 1.362 . S
H560 C566 0.930 . S
H561 C569 0.930 . S
H562 C570 0.930 . S
H563 C571 0.930 . S
H564 C574 0.930 . S
H565 C575 0.930 . S
C566 H560 0.930 . S
C566 C567 1.355 . S
C566 C568 1.415 1_545 S
C567 C566 1.355 . S
C567 C569 1.419 . S
C568 C566 1.415 1_565 S
C568 C573 1.425 1_565 S
C568 C575 1.409 . S
C569 H561 0.930 . S
C569 C567 1.419 . S
C569 C570 1.362 . S
C570 H562 0.930 . S
C570 C569 1.362 . S
C570 C573 1.409 . S
C571 H563 0.930 . S
C571 C572 1.355 . S
C571 C573 1.415 1_565 S
C572 C571 1.355 . S
C572 C574 1.419 . S
C573 C568 1.425 1_545 S
C573 C570 1.409 . S
C573 C571 1.415 1_545 S
C574 H564 0.930 . S
C574 C572 1.419 . S
C574 C575 1.362 . S
C575 H565 0.930 . S
C575 C568 1.409 . S
C575 C574 1.362 . S
H576 C582 0.930 . S
H577 C585 0.930 . S
H578 C586 0.930 . S
H579 C587 0.930 . S
H580 C590 0.930 . S
H581 C591 0.930 . S
C582 H576 0.930 . S
C582 C583 1.355 . S
C582 C584 1.415 . S
C583 C582 1.355 . S
C583 C585 1.419 1_556 S
C584 C582 1.415 . S
C584 C589 1.425 1_546 S
C584 C591 1.409 . S
C585 H577 0.930 . S
C585 C583 1.419 1_554 S
C585 C586 1.362 1_545 S
C586 H578 0.930 . S
C586 C585 1.362 1_565 S
C586 C589 1.409 . S
C587 H579 0.930 . S
C587 C588 1.355 . S
C587 C589 1.415 . S
C588 C587 1.355 . S
C588 C590 1.419 1_554 S
C589 C584 1.425 1_564 S
C589 C586 1.409 . S
C589 C587 1.415 . S
C590 H580 0.930 . S
C590 C588 1.419 1_556 S
C590 C591 1.362 1_565 S
C591 H581 0.930 . S
C591 C584 1.409 . S
C591 C590 1.362 1_545 S
H592 C598 0.930 . S
H593 C601 0.930 . S
H594 C602 0.930 . S
H595 C603 0.930 . S
H596 C606 0.930 . S
H597 C607 0.930 . S
C598 H592 0.930 . S
C598 C599 1.355 1_545 S
C598 C600 1.415 . S
C599 C598 1.355 1_565 S
C599 C601 1.419 1_556 S
C600 C598 1.415 . S
C600 C605 1.425 1_446 S
C600 C607 1.409 1_455 S
C601 H593 0.930 . S
C601 C599 1.419 1_554 S
C601 C602 1.362 . S
C602 H594 0.930 . S
C602 C601 1.362 . S
C602 C605 1.409 1_455 S
C603 H595 0.930 . S
C603 C604 1.355 1_565 S
C603 C605 1.415 . S
C604 C603 1.355 1_545 S
C604 C606 1.419 1_554 S
C605 C600 1.425 1_664 S
C605 C602 1.409 1_655 S
C605 C603 1.415 . S
C606 H596 0.930 . S
C606 C604 1.419 1_556 S
C606 C607 1.362 . S
C607 H597 0.930 . S
C607 C600 1.409 1_655 S
C607 C606 1.362 . S
H608 C614 0.930 . S
H609 C617 0.930 . S
H610 C618 0.930 . S
H611 C619 0.930 . S
H612 C622 0.930 . S
H613 C623 0.930 . S
C614 H608 0.930 . S
C614 C615 1.355 . S
C614 C616 1.415 . S
C615 C614 1.355 . S
C615 C617 1.419 . S
C616 C614 1.415 . S
C616 C621 1.425 . S
C616 C623 1.409 . S
C617 H609 0.930 . S
C617 C615 1.419 . S
C617 C618 1.362 . S
C618 H610 0.930 . S
C618 C617 1.362 . S
C618 C621 1.409 . S
C619 H611 0.930 . S
C619 C620 1.355 . S
C619 C621 1.415 . S
C620 C619 1.355 . S
C620 C622 1.419 . S
C621 C616 1.425 . S
C621 C618 1.409 . S
C621 C619 1.415 . S
C622 H612 0.930 . S
C622 C620 1.419 . S
C622 C623 1.362 . S
C623 H613 0.930 . S
C623 C616 1.409 . S
C623 C622 1.362 . S
H624 C630 0.930 . S
H625 C633 0.930 . S
H626 C634 0.930 . S
H627 C635 0.930 . S
H628 C638 0.930 . S
H629 C639 0.930 . S
C630 H624 0.930 . S
C630 C631 1.355 . S
C630 C632 1.415 . S
C631 C630 1.355 . S
C631 C633 1.419 . S
C632 C630 1.415 . S
C632 C637 1.425 1_455 S
C632 C639 1.409 1_455 S
C633 H625 0.930 . S
C633 C631 1.419 . S
C633 C634 1.362 . S
C634 H626 0.930 . S
C634 C633 1.362 . S
C634 C637 1.409 1_455 S
C635 H627 0.930 . S
C635 C636 1.355 . S
C635 C637 1.415 . S
C636 C635 1.355 . S
C636 C638 1.419 . S
C637 C632 1.425 1_655 S
C637 C634 1.409 1_655 S
C637 C635 1.415 . S
C638 H628 0.930 . S
C638 C636 1.419 . S
C638 C639 1.362 . S
C639 H629 0.930 . S
C639 C632 1.409 1_655 S
C639 C638 1.362 . S
H640 C646 0.930 . S
H641 C649 0.930 . S
H642 C650 0.930 1_655 S
H643 C651 0.930 . S
H644 C654 0.930 . S
H645 C655 0.930 1_455 S
C646 H640 0.930 . S
C646 C647 1.355 1_556 S
C646 C648 1.415 . S
C647 C646 1.355 1_554 S
C647 C649 1.419 . S
C648 C646 1.415 . S
C648 C653 1.425 1_456 S
C648 C655 1.409 1_455 S
C649 H641 0.930 . S
C649 C647 1.419 . S
C649 C650 1.362 . S
C650 H642 0.930 1_455 S
C650 C649 1.362 . S
C650 C653 1.409 1_455 S
C651 H643 0.930 . S
C651 C652 1.355 1_554 S
C651 C653 1.415 . S
C652 C651 1.355 1_556 S
C652 C654 1.419 . S
C653 C648 1.425 1_654 S
C653 C650 1.409 1_655 S
C653 C651 1.415 . S
C654 H644 0.930 . S
C654 C652 1.419 . S
C654 C655 1.362 . S
C655 H645 0.930 1_655 S
C655 C648 1.409 1_655 S
C655 C654 1.362 . S
H656 C662 0.930 . S
H657 C665 0.930 . S
H658 C666 0.930 . S
H659 C667 0.930 . S
H660 C670 0.930 . S
H661 C671 0.930 . S
C662 H656 0.930 . S
C662 C663 1.355 1_556 S
C662 C664 1.415 . S
C663 C662 1.355 1_554 S
C663 C665 1.419 . S
C664 C662 1.415 . S
C664 C669 1.425 1_556 S
C664 C671 1.409 . S
C665 H657 0.930 . S
C665 C663 1.419 . S
C665 C666 1.362 . S
C666 H658 0.930 . S
C666 C665 1.362 . S
C666 C669 1.409 . S
C667 H659 0.930 . S
C667 C668 1.355 1_554 S
C667 C669 1.415 . S
C668 C667 1.355 1_556 S
C668 C670 1.419 . S
C669 C664 1.425 1_554 S
C669 C666 1.409 . S
C669 C667 1.415 . S
C670 H660 0.930 . S
C670 C668 1.419 . S
C670 C671 1.362 . S
C671 H661 0.930 . S
C671 C664 1.409 . S
C671 C670 1.362 . S
H672 C678 0.930 . S
H673 C681 0.930 . S
H674 C682 0.930 . S
H675 C683 0.930 . S
H676 C686 0.930 . S
H677 C687 0.930 . S
C678 H672 0.930 . S
C678 C679 1.355 . S
C678 C680 1.415 . S
C679 C678 1.355 . S
C679 C681 1.419 . S
C680 C678 1.415 . S
C680 C685 1.425 . S
C680 C687 1.409 . S
C681 H673 0.930 . S
C681 C679 1.419 . S
C681 C682 1.362 . S
C682 H674 0.930 . S
C682 C681 1.362 . S
C682 C685 1.409 . S
C683 H675 0.930 . S
C683 C684 1.355 . S
C683 C685 1.415 . S
C684 C683 1.355 . S
C684 C686 1.419 . S
C685 C680 1.425 . S
C685 C682 1.409 . S
C685 C683 1.415 . S
C686 H676 0.930 . S
C686 C684 1.419 . S
C686 C687 1.362 . S
C687 H677 0.930 . S
C687 C680 1.409 . S
C687 C686 1.362 . S
H688 C694 0.930 . S
H689 C697 0.930 . S
H690 C698 0.930 . S
H691 C699 0.930 . S
H692 C702 0.930 . S
H693 C703 0.930 . S
C694 H688 0.930 . S
C694 C695 1.355 . S
C694 C696 1.415 . S
C695 C694 1.355 . S
C695 C697 1.419 . S
C696 C694 1.415 . S
C696 C701 1.425 . S
C696 C703 1.409 . S
C697 H689 0.930 . S
C697 C695 1.419 . S
C697 C698 1.362 . S
C698 H690 0.930 . S
C698 C697 1.362 . S
C698 C701 1.409 . S
C699 H691 0.930 . S
C699 C700 1.355 . S
C699 C701 1.415 . S
C700 C699 1.355 . S
C700 C702 1.419 . S
C701 C696 1.425 . S
C701 C698 1.409 . S
C701 C699 1.415 . S
C702 H692 0.930 . S
C702 C700 1.419 . S
C702 C703 1.362 . S
C703 H693 0.930 . S
C703 C696 1.409 . S
C703 C702 1.362 . S
H704 C710 0.930 . S
H705 C713 0.930 . S
H706 C714 0.930 . S
H707 C715 0.930 . S
H708 C718 0.930 . S
H709 C719 0.930 . S
C710 H704 0.930 . S
C710 C711 1.355 . S
C710 C712 1.415 . S
C711 C710 1.355 . S
C711 C713 1.419 . S
C712 C710 1.415 . S
C712 C717 1.425 . S
C712 C719 1.409 1_554 S
C713 H705 0.930 . S
C713 C711 1.419 . S
C713 C714 1.362 . S
C714 H706 0.930 . S
C714 C713 1.362 . S
C714 C717 1.409 . S
C715 H707 0.930 . S
C715 C716 1.355 . S
C715 C717 1.415 1_556 S
C716 C715 1.355 . S
C716 C718 1.419 . S
C717 C712 1.425 . S
C717 C714 1.409 . S
C717 C715 1.415 1_554 S
C718 H708 0.930 . S
C718 C716 1.419 . S
C718 C719 1.362 . S
C719 H709 0.930 . S
C719 C712 1.409 1_556 S
C719 C718 1.362 . S
H720 C726 0.930 . S
H721 C729 0.930 . S
H722 C730 0.930 . S
H723 C731 0.930 . S
H724 C734 0.930 . S
H725 C735 0.930 . S
C726 H720 0.930 . S
C726 C727 1.355 . S
C726 C728 1.415 . S
C727 C726 1.355 . S
C727 C729 1.419 1_556 S
C728 C726 1.415 . S
C728 C733 1.425 1_556 S
C728 C735 1.409 . S
C729 H721 0.930 . S
C729 C727 1.419 1_554 S
C729 C730 1.362 . S
C730 H722 0.930 . S
C730 C729 1.362 . S
C730 C733 1.409 . S
C731 H723 0.930 . S
C731 C732 1.355 . S
C731 C733 1.415 . S
C732 C731 1.355 . S
C732 C734 1.419 . S
C733 C728 1.425 1_554 S
C733 C730 1.409 . S
C733 C731 1.415 . S
C734 H724 0.930 . S
C734 C732 1.419 . S
C734 C735 1.362 1_554 S
C735 H725 0.930 . S
C735 C728 1.409 . S
C735 C734 1.362 1_556 S
H736 C742 0.930 . S
H737 C745 0.930 . S
H738 C746 0.930 . S
H739 C747 0.930 . S
H740 C750 0.930 . S
H741 C751 0.930 . S
C742 H736 0.930 . S
C742 C743 1.355 . S
C742 C744 1.415 . S
C743 C742 1.355 . S
C743 C745 1.419 . S
C744 C742 1.415 . S
C744 C749 1.425 . S
C744 C751 1.409 . S
C745 H737 0.930 . S
C745 C743 1.419 . S
C745 C746 1.362 . S
C746 H738 0.930 . S
C746 C745 1.362 . S
C746 C749 1.409 . S
C747 H739 0.930 . S
C747 C748 1.355 . S
C747 C749 1.415 . S
C748 C747 1.355 . S
C748 C750 1.419 . S
C749 C744 1.425 . S
C749 C746 1.409 . S
C749 C747 1.415 . S
C750 H740 0.930 . S
C750 C748 1.419 . S
C750 C751 1.362 . S
C751 H741 0.930 . S
C751 C744 1.409 . S
C751 C750 1.362 . S
H752 C758 0.930 . S
H753 C761 0.930 . S
H754 C762 0.930 . S
H755 C763 0.930 . S
H756 C766 0.930 . S
H757 C767 0.930 . S
C758 H752 0.930 . S
C758 C759 1.355 . S
C758 C760 1.415 . S
C759 C758 1.355 . S
C759 C761 1.419 . S
C760 C758 1.415 . S
C760 C765 1.425 . S
C760 C767 1.409 . S
C761 H753 0.930 . S
C761 C759 1.419 . S
C761 C762 1.362 . S
C762 H754 0.930 . S
C762 C761 1.362 . S
C762 C765 1.409 . S
C763 H755 0.930 . S
C763 C764 1.355 . S
C763 C765 1.415 . S
C764 C763 1.355 . S
C764 C766 1.419 . S
C765 C760 1.425 . S
C765 C762 1.409 . S
C765 C763 1.415 . S
C766 H756 0.930 . S
C766 C764 1.419 . S
C766 C767 1.362 . S
C767 H757 0.930 . S
C767 C760 1.409 . S
C767 C766 1.362 . S
H768 C774 0.930 . S
H769 C777 0.930 . S
H770 C778 0.930 . S
H771 C779 0.930 . S
H772 C782 0.930 . S
H773 C783 0.930 . S
C774 H768 0.930 . S
C774 C775 1.355 . S
C774 C776 1.415 1_554 S
C775 C774 1.355 . S
C775 C777 1.419 . S
C776 C774 1.415 1_556 S
C776 C781 1.425 . S
C776 C783 1.409 . S
C777 H769 0.930 . S
C777 C775 1.419 . S
C777 C778 1.362 . S
C778 H770 0.930 . S
C778 C777 1.362 . S
C778 C781 1.409 1_554 S
C779 H771 0.930 . S
C779 C780 1.355 . S
C779 C781 1.415 . S
C780 C779 1.355 . S
C780 C782 1.419 . S
C781 C776 1.425 . S
C781 C778 1.409 1_556 S
C781 C779 1.415 . S
C782 H772 0.930 . S
C782 C780 1.419 . S
C782 C783 1.362 . S
C783 H773 0.930 . S
C783 C776 1.409 . S
C783 C782 1.362 . S
H784 C790 0.930 . S
H785 C793 0.930 . S
H786 C794 0.930 . S
H787 C795 0.930 . S
H788 C798 0.930 . S
H789 C799 0.930 . S
C790 H784 0.930 . S
C790 C791 1.355 . S
C790 C792 1.415 . S
C791 C790 1.355 . S
C791 C793 1.419 . S
C792 C790 1.415 . S
C792 C797 1.425 1_556 S
C792 C799 1.409 . S
C793 H785 0.930 . S
C793 C791 1.419 . S
C793 C794 1.362 1_556 S
C794 H786 0.930 . S
C794 C793 1.362 1_554 S
C794 C797 1.409 . S
C795 H787 0.930 . S
C795 C796 1.355 . S
C795 C797 1.415 . S
C796 C795 1.355 . S
C796 C798 1.419 1_554 S
C797 C792 1.425 1_554 S
C797 C794 1.409 . S
C797 C795 1.415 . S
C798 H788 0.930 . S
C798 C796 1.419 1_556 S
C798 C799 1.362 . S
C799 H789 0.930 . S
C799 C792 1.409 . S
C799 C798 1.362 . S
H800 C806 0.930 . S
H801 C809 0.930 . S
H802 C810 0.930 . S
H803 C811 0.930 . S
H804 C814 0.930 . S
H805 C815 0.930 . S
C806 H800 0.930 . S
C806 C807 1.355 . S
C806 C808 1.415 . S
C807 C806 1.355 . S
C807 C809 1.419 . S
C808 C806 1.415 . S
C808 C813 1.425 . S
C808 C815 1.409 . S
C809 H801 0.930 . S
C809 C807 1.419 . S
C809 C810 1.362 . S
C810 H802 0.930 . S
C810 C809 1.362 . S
C810 C813 1.409 . S
C811 H803 0.930 . S
C811 C812 1.355 . S
C811 C813 1.415 . S
C812 C811 1.355 . S
C812 C814 1.419 . S
C813 C808 1.425 . S
C813 C810 1.409 . S
C813 C811 1.415 . S
C814 H804 0.930 . S
C814 C812 1.419 . S
C814 C815 1.362 . S
C815 H805 0.930 . S
C815 C808 1.409 . S
C815 C814 1.362 . S
H816 C822 0.930 . S
H817 C825 0.930 . S
H818 C826 0.930 . S
H819 C827 0.930 . S
H820 C830 0.930 . S
H821 C831 0.930 . S
C822 H816 0.930 . S
C822 C823 1.355 . S
C822 C824 1.415 . S
C823 C822 1.355 . S
C823 C825 1.419 . S
C824 C822 1.415 . S
C824 C829 1.425 . S
C824 C831 1.409 . S
C825 H817 0.930 . S
C825 C823 1.419 . S
C825 C826 1.362 . S
C826 H818 0.930 . S
C826 C825 1.362 . S
C826 C829 1.409 . S
C827 H819 0.930 . S
C827 C828 1.355 . S
C827 C829 1.415 . S
C828 C827 1.355 . S
C828 C830 1.419 . S
C829 C824 1.425 . S
C829 C826 1.409 . S
C829 C827 1.415 . S
C830 H820 0.930 . S
C830 C828 1.419 . S
C830 C831 1.362 . S
C831 H821 0.930 . S
C831 C824 1.409 . S
C831 C830 1.362 . S
H832 C838 0.930 . S
H833 C841 0.930 . S
H834 C842 0.930 . S
H835 C843 0.930 1_554 S
H836 C846 0.930 . S
H837 C847 0.930 . S
C838 H832 0.930 . S
C838 C839 1.355 . S
C838 C840 1.415 1_554 S
C839 C838 1.355 . S
C839 C841 1.419 . S
C840 C838 1.415 1_556 S
C840 C845 1.425 1_556 S
C840 C847 1.409 . S
C841 H833 0.930 . S
C841 C839 1.419 . S
C841 C842 1.362 . S
C842 H834 0.930 . S
C842 C841 1.362 . S
C842 C845 1.409 . S
C843 H835 0.930 1_556 S
C843 C844 1.355 . S
C843 C845 1.415 1_556 S
C844 C843 1.355 . S
C844 C846 1.419 . S
C845 C840 1.425 1_554 S
C845 C842 1.409 . S
C845 C843 1.415 1_554 S
C846 H836 0.930 . S
C846 C844 1.419 . S
C846 C847 1.362 . S
C847 H837 0.930 . S
C847 C840 1.409 . S
C847 C846 1.362 . S
H848 C854 0.930 . S
H849 C857 0.930 . S
H850 C858 0.930 . S
H851 C859 0.930 1_554 S
H852 C862 0.930 . S
H853 C863 0.930 . S
C854 H848 0.930 . S
C854 C855 1.355 . S
C854 C856 1.415 . S
C855 C854 1.355 . S
C855 C857 1.419 . S
C856 C854 1.415 . S
C856 C861 1.425 . S
C856 C863 1.409 1_554 S
C857 H849 0.930 . S
C857 C855 1.419 . S
C857 C858 1.362 . S
C858 H850 0.930 . S
C858 C857 1.362 . S
C858 C861 1.409 . S
C859 H851 0.930 1_556 S
C859 C860 1.355 . S
C859 C861 1.415 1_556 S
C860 C859 1.355 . S
C860 C862 1.419 . S
C861 C856 1.425 . S
C861 C858 1.409 . S
C861 C859 1.415 1_554 S
C862 H852 0.930 . S
C862 C860 1.419 . S
C862 C863 1.362 . S
C863 H853 0.930 . S
C863 C856 1.409 1_556 S
C863 C862 1.362 . S
H864 C870 0.930 . S
H865 C873 0.930 . S
H866 C874 0.930 . S
H867 C875 0.930 . S
H868 C878 0.930 . S
H869 C879 0.930 . S
C870 H864 0.930 . S
C870 C871 1.355 . S
C870 C872 1.415 . S
C871 C870 1.355 . S
C871 C873 1.419 . S
C872 C870 1.415 . S
C872 C877 1.425 . S
C872 C879 1.409 . S
C873 H865 0.930 . S
C873 C871 1.419 . S
C873 C874 1.362 . S
C874 H866 0.930 . S
C874 C873 1.362 . S
C874 C877 1.409 . S
C875 H867 0.930 . S
C875 C876 1.355 . S
C875 C877 1.415 . S
C876 C875 1.355 . S
C876 C878 1.419 . S
C877 C872 1.425 . S
C877 C874 1.409 . S
C877 C875 1.415 . S
C878 H868 0.930 . S
C878 C876 1.419 . S
C878 C879 1.362 . S
C879 H869 0.930 . S
C879 C872 1.409 . S
C879 C878 1.362 . S
H880 C886 0.930 . S
H881 C889 0.930 . S
H882 C890 0.930 . S
H883 C891 0.930 . S
H884 C894 0.930 . S
H885 C895 0.930 . S
C886 H880 0.930 . S
C886 C887 1.355 . S
C886 C888 1.415 . S
C887 C886 1.355 . S
C887 C889 1.419 . S
C888 C886 1.415 . S
C888 C893 1.425 . S
C888 C895 1.409 . S
C889 H881 0.930 . S
C889 C887 1.419 . S
C889 C890 1.362 . S
C890 H882 0.930 . S
C890 C889 1.362 . S
C890 C893 1.409 . S
C891 H883 0.930 . S
C891 C892 1.355 . S
C891 C893 1.415 . S
C892 C891 1.355 . S
C892 C894 1.419 . S
C893 C888 1.425 . S
C893 C890 1.409 . S
C893 C891 1.415 . S
C894 H884 0.930 . S
C894 C892 1.419 . S
C894 C895 1.362 . S
C895 H885 0.930 . S
C895 C888 1.409 . S
C895 C894 1.362 . S
H896 C902 0.930 . S
H897 C905 0.930 . S
H898 C906 0.930 . S
H899 C907 0.930 . S
H900 C910 0.930 . S
H901 C911 0.930 . S
C902 H896 0.930 . S
C902 C903 1.355 . S
C902 C904 1.415 . S
C903 C902 1.355 . S
C903 C905 1.419 1_554 S
C904 C902 1.415 . S
C904 C909 1.425 1_554 S
C904 C911 1.409 . S
C905 H897 0.930 . S
C905 C903 1.419 1_556 S
C905 C906 1.362 . S
C906 H898 0.930 . S
C906 C905 1.362 . S
C906 C909 1.409 . S
C907 H899 0.930 . S
C907 C908 1.355 . S
C907 C909 1.415 . S
C908 C907 1.355 . S
C908 C910 1.419 . S
C909 C904 1.425 1_556 S
C909 C906 1.409 . S
C909 C907 1.415 . S
C910 H900 0.930 . S
C910 C908 1.419 . S
C910 C911 1.362 1_556 S
C911 H901 0.930 . S
C911 C904 1.409 . S
C911 C910 1.362 1_554 S
H912 C918 0.930 . S
H913 C921 0.930 . S
H914 C922 0.930 . S
H915 C923 0.930 . S
H916 C926 0.930 . S
H917 C927 0.930 . S
C918 H912 0.930 . S
C918 C919 1.355 . S
C918 C920 1.415 . S
C919 C918 1.355 . S
C919 C921 1.419 . S
C920 C918 1.415 . S
C920 C925 1.433 . S
C920 C927 1.409 . S
C921 H913 0.930 . S
C921 C919 1.419 . S
C921 C922 1.362 . S
C922 H914 0.930 . S
C922 C921 1.362 . S
C922 C925 1.415 . S
C923 H915 0.930 . S
C923 C924 1.355 . S
C923 C925 1.402 1_554 S
C924 C923 1.355 . S
C924 C926 1.419 . S
C925 C920 1.433 . S
C925 C922 1.415 . S
C925 C923 1.402 1_556 S
C926 H916 0.930 . S
C926 C924 1.419 . S
C926 C927 1.362 1_554 S
C927 H917 0.930 . S
C927 C920 1.409 . S
C927 C926 1.362 1_556 S
H928 C934 0.930 . S
H929 C937 0.930 . S
H930 C938 0.930 . S
H931 C939 0.930 . S
H932 C942 0.930 . S
H933 C943 0.930 . S
C934 H928 0.930 . S
C934 C935 1.355 1_565 S
C934 C936 1.415 . S
C935 C934 1.355 1_545 S
C935 C937 1.419 . S
C936 C934 1.415 . S
C936 C941 1.425 1_565 S
C936 C943 1.409 . S
C937 H929 0.930 . S
C937 C935 1.419 . S
C937 C938 1.362 . S
C938 H930 0.930 . S
C938 C937 1.362 . S
C938 C941 1.409 . S
C939 H931 0.930 . S
C939 C940 1.355 1_545 S
C939 C941 1.415 . S
C940 C939 1.355 1_565 S
C940 C942 1.419 . S
C941 C936 1.425 1_545 S
C941 C938 1.409 . S
C941 C939 1.415 . S
C942 H932 0.930 . S
C942 C940 1.419 . S
C942 C943 1.362 . S
C943 H933 0.930 . S
C943 C936 1.409 . S
C943 C942 1.362 . S
H944 C950 0.930 . S
H945 C953 0.930 . S
H946 C954 0.930 . S
H947 C955 0.930 . S
H948 C958 0.930 . S
H949 C959 0.930 . S
C950 H944 0.930 . S
C950 C951 1.355 1_545 S
C950 C952 1.415 . S
C951 C950 1.355 1_565 S
C951 C953 1.419 . S
C952 C950 1.415 . S
C952 C957 1.425 1_545 S
C952 C959 1.409 . S
C953 H945 0.930 . S
C953 C951 1.419 . S
C953 C954 1.362 . S
C954 H946 0.930 . S
C954 C953 1.362 . S
C954 C957 1.409 . S
C955 H947 0.930 . S
C955 C956 1.355 1_565 S
C955 C957 1.415 . S
C956 C955 1.355 1_545 S
C956 C958 1.419 . S
C957 C952 1.425 1_565 S
C957 C954 1.409 . S
C957 C955 1.415 . S
C958 H948 0.930 . S
C958 C956 1.419 . S
C958 C959 1.362 . S
C959 H949 0.930 . S
C959 C952 1.409 . S
C959 C958 1.362 . S
H960 C966 0.930 . S
H961 C969 0.930 . S
H962 C970 0.930 . S
H963 C971 0.930 . S
H964 C974 0.930 . S
H965 C975 0.930 . S
C966 H960 0.930 . S
C966 C967 1.350 1_565 S
C966 C968 1.415 . S
C967 C966 1.350 1_545 S
C967 C969 1.425 . S
C968 C966 1.415 . S
C968 C973 1.425 1_565 S
C968 C975 1.409 . S
C969 H961 0.930 . S
C969 C967 1.425 . S
C969 C970 1.362 . S
C970 H962 0.930 . S
C970 C969 1.362 . S
C970 C973 1.409 . S
C971 H963 0.930 . S
C971 C972 1.350 1_545 S
C971 C973 1.415 . S
C972 C971 1.350 1_565 S
C972 C974 1.425 . S
C973 C968 1.425 1_545 S
C973 C970 1.409 . S
C973 C971 1.415 . S
C974 H964 0.930 . S
C974 C972 1.425 . S
C974 C975 1.362 . S
C975 H965 0.930 . S
C975 C968 1.409 . S
C975 C974 1.362 . S
H976 C982 0.930 . S
H977 C985 0.930 . S
H978 C986 0.930 . S
H979 C987 0.930 . S
H980 C990 0.930 . S
H981 C991 0.930 . S
C982 H976 0.930 . S
C982 C983 1.354 1_545 S
C982 C984 1.415 . S
C983 C982 1.354 1_565 S
C983 C985 1.420 . S
C984 C982 1.415 . S
C984 C989 1.425 1_545 S
C984 C991 1.409 . S
C985 H977 0.930 . S
C985 C983 1.420 . S
C985 C986 1.362 . S
C986 H978 0.930 . S
C986 C985 1.362 . S
C986 C989 1.409 . S
C987 H979 0.930 . S
C987 C988 1.354 1_565 S
C987 C989 1.415 . S
C988 C987 1.354 1_545 S
C988 C990 1.420 . S
C989 C984 1.425 1_565 S
C989 C986 1.409 . S
C989 C987 1.415 . S
C990 H980 0.930 . S
C990 C988 1.420 . S
C990 C991 1.362 . S
C991 H981 0.930 . S
C991 C984 1.409 . S
C991 C990 1.362 . S
H992 C998 0.930 . S
H993 C1001 0.930 . S
H994 C1002 0.930 . S
H995 C1003 0.930 . S
H996 C1006 0.930 . S
H997 C1007 0.930 . S
C998 H992 0.930 . S
C998 C999 1.355 . S
C998 C1000 1.415 . S
C999 C998 1.355 . S
C999 C1001 1.419 . S
C1000 C998 1.415 . S
C1000 C1005 1.425 . S
C1000 C1007 1.409 . S
C1001 H993 0.930 . S
C1001 C999 1.419 . S
C1001 C1002 1.362 . S
C1002 H994 0.930 . S
C1002 C1001 1.362 . S
C1002 C1005 1.409 . S
C1003 H995 0.930 . S
C1003 C1004 1.355 . S
C1003 C1005 1.415 . S
C1004 C1003 1.355 . S
C1004 C1006 1.419 . S
C1005 C1000 1.425 . S
C1005 C1002 1.409 . S
C1005 C1003 1.415 . S
C1006 H996 0.930 . S
C1006 C1004 1.419 . S
C1006 C1007 1.362 . S
C1007 H997 0.930 . S
C1007 C1000 1.409 . S
C1007 C1006 1.362 . S
H1008 C1014 0.930 . S
H1009 C1017 0.930 . S
H1010 C1018 0.930 . S
H1011 C1019 0.930 . S
H1012 C1022 0.930 . S
H1013 C1023 0.930 . S
C1014 H1008 0.930 . S
C1014 C1015 1.355 . S
C1014 C1016 1.415 . S
C1015 C1014 1.355 . S
C1015 C1017 1.419 . S
C1016 C1014 1.415 . S
C1016 C1021 1.425 . S
C1016 C1023 1.409 . S
C1017 H1009 0.930 . S
C1017 C1015 1.419 . S
C1017 C1018 1.362 . S
C1018 H1010 0.930 . S
C1018 C1017 1.362 . S
C1018 C1021 1.409 . S
C1019 H1011 0.930 . S
C1019 C1020 1.355 . S
C1019 C1021 1.415 . S
C1020 C1019 1.355 . S
C1020 C1022 1.419 . S
C1021 C1016 1.425 . S
C1021 C1018 1.409 . S
C1021 C1019 1.415 . S
C1022 H1012 0.930 . S
C1022 C1020 1.419 . S
C1022 C1023 1.362 . S
C1023 H1013 0.930 . S
C1023 C1016 1.409 . S
C1023 C1022 1.362 . S
H1024 C1030 0.930 . S
H1025 C1033 0.930 . S
H1026 C1034 0.930 . S
H1027 C1035 0.930 . S
H1028 C1038 0.930 . S
H1029 C1039 0.930 . S
C1030 H1024 0.930 . S
C1030 C1031 1.355 . S
C1030 C1032 1.415 . S
C1031 C1030 1.355 . S
C1031 C1033 1.419 . S
C1032 C1030 1.415 . S
C1032 C1037 1.425 . S
C1032 C1039 1.409 . S
C1033 H1025 0.930 . S
C1033 C1031 1.419 . S
C1033 C1034 1.362 . S
C1034 H1026 0.930 . S
C1034 C1033 1.362 . S
C1034 C1037 1.409 . S
C1035 H1027 0.930 . S
C1035 C1036 1.355 . S
C1035 C1037 1.415 . S
C1036 C1035 1.355 . S
C1036 C1038 1.419 . S
C1037 C1032 1.425 . S
C1037 C1034 1.409 . S
C1037 C1035 1.415 . S
C1038 H1028 0.930 . S
C1038 C1036 1.419 . S
C1038 C1039 1.362 . S
C1039 H1029 0.930 . S
C1039 C1032 1.409 . S
C1039 C1038 1.362 . S
H1040 C1046 0.930 . S
H1041 C1049 0.930 . S
H1042 C1050 0.930 . S
H1043 C1051 0.930 . S
H1044 C1054 0.930 . S
H1045 C1055 0.930 . S
C1046 H1040 0.930 . S
C1046 C1047 1.355 . S
C1046 C1048 1.415 . S
C1047 C1046 1.355 . S
C1047 C1049 1.419 . S
C1048 C1046 1.415 . S
C1048 C1053 1.425 . S
C1048 C1055 1.409 . S
C1049 H1041 0.930 . S
C1049 C1047 1.419 . S
C1049 C1050 1.362 . S
C1050 H1042 0.930 . S
C1050 C1049 1.362 . S
C1050 C1053 1.409 . S
C1051 H1043 0.930 . S
C1051 C1052 1.355 . S
C1051 C1053 1.415 . S
C1052 C1051 1.355 . S
C1052 C1054 1.419 . S
C1053 C1048 1.425 . S
C1053 C1050 1.409 . S
C1053 C1051 1.415 . S
C1054 H1044 0.930 . S
C1054 C1052 1.419 . S
C1054 C1055 1.362 . S
C1055 H1045 0.930 . S
C1055 C1048 1.409 . S
C1055 C1054 1.362 . S
H1056 C1062 0.930 . S
H1057 C1065 0.930 . S
H1058 C1066 0.930 . S
H1059 C1067 0.930 . S
H1060 C1070 0.930 . S
H1061 C1071 0.930 . S
C1062 H1056 0.930 . S
C1062 C1063 1.355 . S
C1062 C1064 1.415 . S
C1063 C1062 1.355 . S
C1063 C1065 1.419 . S
C1064 C1062 1.415 . S
C1064 C1069 1.425 . S
C1064 C1071 1.409 . S
C1065 H1057 0.930 . S
C1065 C1063 1.419 . S
C1065 C1066 1.362 . S
C1066 H1058 0.930 . S
C1066 C1065 1.362 . S
C1066 C1069 1.409 . S
C1067 H1059 0.930 . S
C1067 C1068 1.355 . S
C1067 C1069 1.415 . S
C1068 C1067 1.355 . S
C1068 C1070 1.419 . S
C1069 C1064 1.425 . S
C1069 C1066 1.409 . S
C1069 C1067 1.415 . S
C1070 H1060 0.930 . S
C1070 C1068 1.419 . S
C1070 C1071 1.362 . S
C1071 H1061 0.930 . S
C1071 C1064 1.409 . S
C1071 C1070 1.362 . S
H1072 C1078 0.930 1_565 S
H1073 C1081 0.930 . S
H1074 C1082 0.930 . S
H1075 C1083 0.930 . S
H1076 C1086 0.930 . S
H1077 C1087 0.930 . S
C1078 H1072 0.930 1_545 S
C1078 C1079 1.355 . S
C1078 C1080 1.415 . S
C1079 C1078 1.355 . S
C1079 C1081 1.419 . S
C1080 C1078 1.415 . S
C1080 C1085 1.425 . S
C1080 C1087 1.409 1_545 S
C1081 H1073 0.930 . S
C1081 C1079 1.419 . S
C1081 C1082 1.362 . S
C1082 H1074 0.930 . S
C1082 C1081 1.362 . S
C1082 C1085 1.409 . S
C1083 H1075 0.930 . S
C1083 C1084 1.355 . S
C1083 C1085 1.415 . S
C1084 C1083 1.355 . S
C1084 C1086 1.419 1_545 S
C1085 C1080 1.425 . S
C1085 C1082 1.409 . S
C1085 C1083 1.415 . S
C1086 H1076 0.930 . S
C1086 C1084 1.419 1_565 S
C1086 C1087 1.362 . S
C1087 H1077 0.930 . S
C1087 C1080 1.409 1_565 S
C1087 C1086 1.362 . S
H1088 C1094 0.930 1_565 S
H1089 C1097 0.930 . S
H1090 C1098 0.930 . S
H1091 C1099 0.930 . S
H1092 C1102 0.930 . S
H1093 C1103 0.930 . S
C1094 H1088 0.930 1_545 S
C1094 C1095 1.355 . S
C1094 C1096 1.415 . S
C1095 C1094 1.355 . S
C1095 C1097 1.419 . S
C1096 C1094 1.415 . S
C1096 C1101 1.425 . S
C1096 C1103 1.409 1_545 S
C1097 H1089 0.930 . S
C1097 C1095 1.419 . S
C1097 C1098 1.362 . S
C1098 H1090 0.930 . S
C1098 C1097 1.362 . S
C1098 C1101 1.409 . S
C1099 H1091 0.930 . S
C1099 C1100 1.355 . S
C1099 C1101 1.415 . S
C1100 C1099 1.355 . S
C1100 C1102 1.419 . S
C1101 C1096 1.425 . S
C1101 C1098 1.409 . S
C1101 C1099 1.415 . S
C1102 H1092 0.930 . S
C1102 C1100 1.419 . S
C1102 C1103 1.362 1_545 S
C1103 H1093 0.930 . S
C1103 C1096 1.409 1_565 S
C1103 C1102 1.362 1_565 S
H1104 C1110 0.930 . S
H1105 C1113 0.930 . S
H1106 C1114 0.930 . S
H1107 C1115 0.930 . S
H1108 C1118 0.930 . S
H1109 C1119 0.930 . S
C1110 H1104 0.930 . S
C1110 C1111 1.355 . S
C1110 C1112 1.415 . S
C1111 C1110 1.355 . S
C1111 C1113 1.419 1_565 S
C1112 C1110 1.415 . S
C1112 C1117 1.425 . S
C1112 C1119 1.409 . S
C1113 H1105 0.930 . S
C1113 C1111 1.419 1_545 S
C1113 C1114 1.362 . S
C1114 H1106 0.930 . S
C1114 C1113 1.362 . S
C1114 C1117 1.409 1_545 S
C1115 H1107 0.930 . S
C1115 C1116 1.355 1_545 S
C1115 C1117 1.415 1_545 S
C1116 C1115 1.355 1_565 S
C1116 C1118 1.419 . S
C1117 C1112 1.425 . S
C1117 C1114 1.409 1_565 S
C1117 C1115 1.415 1_565 S
C1118 H1108 0.930 . S
C1118 C1116 1.419 . S
C1118 C1119 1.362 . S
C1119 H1109 0.930 . S
C1119 C1112 1.409 . S
C1119 C1118 1.362 . S
H1120 C1126 0.930 1_565 S
H1121 C1129 0.930 . S
H1122 C1130 0.930 . S
H1123 C1131 0.930 . S
H1124 C1134 0.930 . S
H1125 C1135 0.930 1_565 S
C1126 H1120 0.930 1_545 S
C1126 C1127 1.355 . S
C1126 C1128 1.415 . S
C1127 C1126 1.355 . S
C1127 C1129 1.419 . S
C1128 C1126 1.415 . S
C1128 C1133 1.425 . S
C1128 C1135 1.409 . S
C1129 H1121 0.930 . S
C1129 C1127 1.419 . S
C1129 C1130 1.362 . S
C1130 H1122 0.930 . S
C1130 C1129 1.362 . S
C1130 C1133 1.409 . S
C1131 H1123 0.930 . S
C1131 C1132 1.355 . S
C1131 C1133 1.415 . S
C1132 C1131 1.355 . S
C1132 C1134 1.419 . S
C1133 C1128 1.425 . S
C1133 C1130 1.409 . S
C1133 C1131 1.415 . S
C1134 H1124 0.930 . S
C1134 C1132 1.419 . S
C1134 C1135 1.362 . S
C1135 H1125 0.930 1_545 S
C1135 C1128 1.409 . S
C1135 C1134 1.362 . S
H1136 C1142 0.930 . S
H1137 C1145 0.930 1_545 S
H1138 C1146 0.930 . S
H1139 C1147 0.930 . S
H1140 C1150 0.930 . S
H1141 C1151 0.930 . S
C1142 H1136 0.930 . S
C1142 C1143 1.355 . S
C1142 C1144 1.415 . S
C1143 C1142 1.355 . S
C1143 C1145 1.419 . S
C1144 C1142 1.415 . S
C1144 C1149 1.425 . S
C1144 C1151 1.409 . S
C1145 H1137 0.930 1_565 S
C1145 C1143 1.419 . S
C1145 C1146 1.362 . S
C1146 H1138 0.930 . S
C1146 C1145 1.362 . S
C1146 C1149 1.409 . S
C1147 H1139 0.930 . S
C1147 C1148 1.355 . S
C1147 C1149 1.415 . S
C1148 C1147 1.355 . S
C1148 C1150 1.419 . S
C1149 C1144 1.425 . S
C1149 C1146 1.409 . S
C1149 C1147 1.415 . S
C1150 H1140 0.930 . S
C1150 C1148 1.419 . S
C1150 C1151 1.362 . S
C1151 H1141 0.930 . S
C1151 C1144 1.409 . S
C1151 C1150 1.362 . S
H1152 C1158 0.930 . S
H1153 C1161 0.930 . S
H1154 C1162 0.930 . S
H1155 C1163 0.930 . S
H1156 C1166 0.930 . S
H1157 C1167 0.930 . S
C1158 H1152 0.930 . S
C1158 C1159 1.355 . S
C1158 C1160 1.415 . S
C1159 C1158 1.355 . S
C1159 C1161 1.419 . S
C1160 C1158 1.415 . S
C1160 C1165 1.425 . S
C1160 C1167 1.409 . S
C1161 H1153 0.930 . S
C1161 C1159 1.419 . S
C1161 C1162 1.362 . S
C1162 H1154 0.930 . S
C1162 C1161 1.362 . S
C1162 C1165 1.409 . S
C1163 H1155 0.930 . S
C1163 C1164 1.355 . S
C1163 C1165 1.415 . S
C1164 C1163 1.355 . S
C1164 C1166 1.419 . S
C1165 C1160 1.425 . S
C1165 C1162 1.409 . S
C1165 C1163 1.415 . S
C1166 H1156 0.930 . S
C1166 C1164 1.419 . S
C1166 C1167 1.362 . S
C1167 H1157 0.930 . S
C1167 C1160 1.409 . S
C1167 C1166 1.362 . S
H1168 C1174 0.930 . S
H1169 C1177 0.930 . S
H1170 C1178 0.930 . S
H1171 C1179 0.930 . S
H1172 C1182 0.930 . S
H1173 C1183 0.930 . S
C1174 H1168 0.930 . S
C1174 C1175 1.355 . S
C1174 C1176 1.415 . S
C1175 C1174 1.355 . S
C1175 C1177 1.419 . S
C1176 C1174 1.415 . S
C1176 C1181 1.425 . S
C1176 C1183 1.409 . S
C1177 H1169 0.930 . S
C1177 C1175 1.419 . S
C1177 C1178 1.362 . S
C1178 H1170 0.930 . S
C1178 C1177 1.362 . S
C1178 C1181 1.409 . S
C1179 H1171 0.930 . S
C1179 C1180 1.355 . S
C1179 C1181 1.415 . S
C1180 C1179 1.355 . S
C1180 C1182 1.419 . S
C1181 C1176 1.425 . S
C1181 C1178 1.409 . S
C1181 C1179 1.415 . S
C1182 H1172 0.930 . S
C1182 C1180 1.419 . S
C1182 C1183 1.362 . S
C1183 H1173 0.930 . S
C1183 C1176 1.409 . S
C1183 C1182 1.362 . S
H1184 C1190 0.930 . S
H1185 C1193 0.930 . S
H1186 C1194 0.930 . S
H1187 C1195 0.930 . S
H1188 C1198 0.930 . S
H1189 C1199 0.930 . S
C1190 H1184 0.930 . S
C1190 C1191 1.355 . S
C1190 C1192 1.415 . S
C1191 C1190 1.355 . S
C1191 C1193 1.419 . S
C1192 C1190 1.415 . S
C1192 C1197 1.425 . S
C1192 C1199 1.409 . S
C1193 H1185 0.930 . S
C1193 C1191 1.419 . S
C1193 C1194 1.362 . S
C1194 H1186 0.930 . S
C1194 C1193 1.362 . S
C1194 C1197 1.409 . S
C1195 H1187 0.930 . S
C1195 C1196 1.355 . S
C1195 C1197 1.415 . S
C1196 C1195 1.355 . S
C1196 C1198 1.419 . S
C1197 C1192 1.425 . S
C1197 C1194 1.409 . S
C1197 C1195 1.415 . S
C1198 H1188 0.930 . S
C1198 C1196 1.419 . S
C1198 C1199 1.362 . S
C1199 H1189 0.930 . S
C1199 C1192 1.409 . S
C1199 C1198 1.362 . S
H1200 C1206 0.930 . S
H1201 C1209 0.930 . S
H1202 C1210 0.930 . S
H1203 C1211 0.930 . S
H1204 C1214 0.930 . S
H1205 C1215 0.930 . S
C1206 H1200 0.930 . S
C1206 C1207 1.355 . S
C1206 C1208 1.415 . S
C1207 C1206 1.355 . S
C1207 C1209 1.419 . S
C1208 C1206 1.415 . S
C1208 C1213 1.425 . S
C1208 C1215 1.409 . S
C1209 H1201 0.930 . S
C1209 C1207 1.419 . S
C1209 C1210 1.362 . S
C1210 H1202 0.930 . S
C1210 C1209 1.362 . S
C1210 C1213 1.409 . S
C1211 H1203 0.930 . S
C1211 C1212 1.355 . S
C1211 C1213 1.415 . S
C1212 C1211 1.355 . S
C1212 C1214 1.419 . S
C1213 C1208 1.425 . S
C1213 C1210 1.409 . S
C1213 C1211 1.415 . S
C1214 H1204 0.930 . S
C1214 C1212 1.419 . S
C1214 C1215 1.362 . S
C1215 H1205 0.930 . S
C1215 C1208 1.409 . S
C1215 C1214 1.362 . S
H1216 C1222 0.930 . S
H1217 C1225 0.930 . S
H1218 C1226 0.930 . S
H1219 C1227 0.930 . S
H1220 C1230 0.930 . S
H1221 C1231 0.930 . S
C1222 H1216 0.930 . S
C1222 C1223 1.355 . S
C1222 C1224 1.415 . S
C1223 C1222 1.355 . S
C1223 C1225 1.419 . S
C1224 C1222 1.415 . S
C1224 C1229 1.425 . S
C1224 C1231 1.409 . S
C1225 H1217 0.930 . S
C1225 C1223 1.419 . S
C1225 C1226 1.362 . S
C1226 H1218 0.930 . S
C1226 C1225 1.362 . S
C1226 C1229 1.409 . S
C1227 H1219 0.930 . S
C1227 C1228 1.355 . S
C1227 C1229 1.415 . S
C1228 C1227 1.355 . S
C1228 C1230 1.419 . S
C1229 C1224 1.425 . S
C1229 C1226 1.409 . S
C1229 C1227 1.415 . S
C1230 H1220 0.930 . S
C1230 C1228 1.419 . S
C1230 C1231 1.362 . S
C1231 H1221 0.930 . S
C1231 C1224 1.409 . S
C1231 C1230 1.362 . S
H1232 C1238 0.930 . S
H1233 C1241 0.930 . S
H1234 C1242 0.930 . S
H1235 C1243 0.930 . S
H1236 C1246 0.930 . S
H1237 C1247 0.930 . S
C1238 H1232 0.930 . S
C1238 C1239 1.355 . S
C1238 C1240 1.415 . S
C1239 C1238 1.355 . S
C1239 C1241 1.419 . S
C1240 C1238 1.415 . S
C1240 C1245 1.425 . S
C1240 C1247 1.409 . S
C1241 H1233 0.930 . S
C1241 C1239 1.419 . S
C1241 C1242 1.362 . S
C1242 H1234 0.930 . S
C1242 C1241 1.362 . S
C1242 C1245 1.409 . S
C1243 H1235 0.930 . S
C1243 C1244 1.355 . S
C1243 C1245 1.415 . S
C1244 C1243 1.355 . S
C1244 C1246 1.419 . S
C1245 C1240 1.425 . S
C1245 C1242 1.409 . S
C1245 C1243 1.415 . S
C1246 H1236 0.930 . S
C1246 C1244 1.419 . S
C1246 C1247 1.362 . S
C1247 H1237 0.930 . S
C1247 C1240 1.409 . S
C1247 C1246 1.362 . S
H1248 C1254 0.930 . S
H1249 C1257 0.930 . S
H1250 C1258 0.930 . S
H1251 C1259 0.930 . S
H1252 C1262 0.930 . S
H1253 C1263 0.930 . S
C1254 H1248 0.930 . S
C1254 C1255 1.355 . S
C1254 C1256 1.415 . S
C1255 C1254 1.355 . S
C1255 C1257 1.419 . S
C1256 C1254 1.415 . S
C1256 C1261 1.425 . S
C1256 C1263 1.409 . S
C1257 H1249 0.930 . S
C1257 C1255 1.419 . S
C1257 C1258 1.362 . S
C1258 H1250 0.930 . S
C1258 C1257 1.362 . S
C1258 C1261 1.409 . S
C1259 H1251 0.930 . S
C1259 C1260 1.355 . S
C1259 C1261 1.415 . S
C1260 C1259 1.355 . S
C1260 C1262 1.419 . S
C1261 C1256 1.425 . S
C1261 C1258 1.409 . S
C1261 C1259 1.415 . S
C1262 H1252 0.930 . S
C1262 C1260 1.419 . S
C1262 C1263 1.362 . S
C1263 H1253 0.930 . S
C1263 C1256 1.409 . S
C1263 C1262 1.362 . S
H1264 C1270 0.930 . S
H1265 C1273 0.930 . S
H1266 C1274 0.930 . S
H1267 C1275 0.930 . S
H1268 C1278 0.930 . S
H1269 C1279 0.930 . S
C1270 H1264 0.930 . S
C1270 C1271 1.355 . S
C1270 C1272 1.415 . S
C1271 C1270 1.355 . S
C1271 C1273 1.419 . S
C1272 C1270 1.415 . S
C1272 C1277 1.425 . S
C1272 C1279 1.409 . S
C1273 H1265 0.930 . S
C1273 C1271 1.419 . S
C1273 C1274 1.362 . S
C1274 H1266 0.930 . S
C1274 C1273 1.362 . S
C1274 C1277 1.409 . S
C1275 H1267 0.930 . S
C1275 C1276 1.355 . S
C1275 C1277 1.415 . S
C1276 C1275 1.355 . S
C1276 C1278 1.419 . S
C1277 C1272 1.425 . S
C1277 C1274 1.409 . S
C1277 C1275 1.415 . S
C1278 H1268 0.930 . S
C1278 C1276 1.419 . S
C1278 C1279 1.362 . S
C1279 H1269 0.930 . S
C1279 C1272 1.409 . S
C1279 C1278 1.362 . S
H1280 C1286 0.930 . S
H1281 C1289 0.930 . S
H1282 C1290 0.930 . S
H1283 C1291 0.930 . S
H1284 C1294 0.930 . S
H1285 C1295 0.930 . S
C1286 H1280 0.930 . S
C1286 C1287 1.355 . S
C1286 C1288 1.415 . S
C1287 C1286 1.355 . S
C1287 C1289 1.419 . S
C1288 C1286 1.415 . S
C1288 C1293 1.425 . S
C1288 C1295 1.409 . S
C1289 H1281 0.930 . S
C1289 C1287 1.419 . S
C1289 C1290 1.362 . S
C1290 H1282 0.930 . S
C1290 C1289 1.362 . S
C1290 C1293 1.409 . S
C1291 H1283 0.930 . S
C1291 C1292 1.355 . S
C1291 C1293 1.415 . S
C1292 C1291 1.355 . S
C1292 C1294 1.419 . S
C1293 C1288 1.425 . S
C1293 C1290 1.409 . S
C1293 C1291 1.415 . S
C1294 H1284 0.930 . S
C1294 C1292 1.419 . S
C1294 C1295 1.362 . S
C1295 H1285 0.930 . S
C1295 C1288 1.409 . S
C1295 C1294 1.362 . S
H1296 C1302 0.930 . S
H1297 C1305 0.930 . S
H1298 C1306 0.930 . S
H1299 C1307 0.930 . S
H1300 C1310 0.930 . S
H1301 C1311 0.930 . S
C1302 H1296 0.930 . S
C1302 C1303 1.355 . S
C1302 C1304 1.415 . S
C1303 C1302 1.355 . S
C1303 C1305 1.419 . S
C1304 C1302 1.415 . S
C1304 C1309 1.425 . S
C1304 C1311 1.409 . S
C1305 H1297 0.930 . S
C1305 C1303 1.419 . S
C1305 C1306 1.362 . S
C1306 H1298 0.930 . S
C1306 C1305 1.362 . S
C1306 C1309 1.409 . S
C1307 H1299 0.930 . S
C1307 C1308 1.355 . S
C1307 C1309 1.415 . S
C1308 C1307 1.355 . S
C1308 C1310 1.419 . S
C1309 C1304 1.425 . S
C1309 C1306 1.409 . S
C1309 C1307 1.415 . S
C1310 H1300 0.930 . S
C1310 C1308 1.419 . S
C1310 C1311 1.362 . S
C1311 H1301 0.930 . S
C1311 C1304 1.409 . S
C1311 C1310 1.362 . S
H1312 C1318 0.930 . S
H1313 C1321 0.930 . S
H1314 C1322 0.930 . S
H1315 C1323 0.930 . S
H1316 C1326 0.930 . S
H1317 C1327 0.930 . S
C1318 H1312 0.930 . S
C1318 C1319 1.355 . S
C1318 C1320 1.415 . S
C1319 C1318 1.355 . S
C1319 C1321 1.419 . S
C1320 C1318 1.415 . S
C1320 C1325 1.425 . S
C1320 C1327 1.409 . S
C1321 H1313 0.930 . S
C1321 C1319 1.419 . S
C1321 C1322 1.362 . S
C1322 H1314 0.930 . S
C1322 C1321 1.362 . S
C1322 C1325 1.409 . S
C1323 H1315 0.930 . S
C1323 C1324 1.355 . S
C1323 C1325 1.415 . S
C1324 C1323 1.355 . S
C1324 C1326 1.419 . S
C1325 C1320 1.425 . S
C1325 C1322 1.409 . S
C1325 C1323 1.415 . S
C1326 H1316 0.930 . S
C1326 C1324 1.419 . S
C1326 C1327 1.362 . S
C1327 H1317 0.930 . S
C1327 C1320 1.409 . S
C1327 C1326 1.362 . S
H1328 C1334 0.930 . S
H1329 C1337 0.930 . S
H1330 C1338 0.930 . S
H1331 C1339 0.930 . S
H1332 C1342 0.930 . S
H1333 C1343 0.930 . S
C1334 H1328 0.930 . S
C1334 C1335 1.355 . S
C1334 C1336 1.415 . S
C1335 C1334 1.355 . S
C1335 C1337 1.419 . S
C1336 C1334 1.415 . S
C1336 C1341 1.425 . S
C1336 C1343 1.409 . S
C1337 H1329 0.930 . S
C1337 C1335 1.419 . S
C1337 C1338 1.362 . S
C1338 H1330 0.930 . S
C1338 C1337 1.362 . S
C1338 C1341 1.409 . S
C1339 H1331 0.930 . S
C1339 C1340 1.355 . S
C1339 C1341 1.415 . S
C1340 C1339 1.355 . S
C1340 C1342 1.419 . S
C1341 C1336 1.425 . S
C1341 C1338 1.409 . S
C1341 C1339 1.415 . S
C1342 H1332 0.930 . S
C1342 C1340 1.419 . S
C1342 C1343 1.362 . S
C1343 H1333 0.930 . S
C1343 C1336 1.409 . S
C1343 C1342 1.362 . S
H1344 C1350 0.930 . S
H1345 C1353 0.930 . S
H1346 C1354 0.930 . S
H1347 C1355 0.930 . S
H1348 C1358 0.930 . S
H1349 C1359 0.930 . S
C1350 H1344 0.930 . S
C1350 C1351 1.355 . S
C1350 C1352 1.415 . S
C1351 C1350 1.355 . S
C1351 C1353 1.419 . S
C1352 C1350 1.415 . S
C1352 C1357 1.425 . S
C1352 C1359 1.409 . S
C1353 H1345 0.930 . S
C1353 C1351 1.419 . S
C1353 C1354 1.362 . S
C1354 H1346 0.930 . S
C1354 C1353 1.362 . S
C1354 C1357 1.409 . S
C1355 H1347 0.930 . S
C1355 C1356 1.355 . S
C1355 C1357 1.415 . S
C1356 C1355 1.355 . S
C1356 C1358 1.419 . S
C1357 C1352 1.425 . S
C1357 C1354 1.409 . S
C1357 C1355 1.415 . S
C1358 H1348 0.930 . S
C1358 C1356 1.419 . S
C1358 C1359 1.362 . S
C1359 H1349 0.930 . S
C1359 C1352 1.409 . S
C1359 C1358 1.362 . S
H1360 C1366 0.930 . S
H1361 C1369 0.930 . S
H1362 C1370 0.930 . S
H1363 C1371 0.930 . S
H1364 C1374 0.930 . S
H1365 C1375 0.930 . S
C1366 H1360 0.930 . S
C1366 C1367 1.355 . S
C1366 C1368 1.415 . S
C1367 C1366 1.355 . S
C1367 C1369 1.419 . S
C1368 C1366 1.415 . S
C1368 C1373 1.425 . S
C1368 C1375 1.409 . S
C1369 H1361 0.930 . S
C1369 C1367 1.419 . S
C1369 C1370 1.362 . S
C1370 H1362 0.930 . S
C1370 C1369 1.362 . S
C1370 C1373 1.409 . S
C1371 H1363 0.930 . S
C1371 C1372 1.355 . S
C1371 C1373 1.415 . S
C1372 C1371 1.355 . S
C1372 C1374 1.419 . S
C1373 C1368 1.425 . S
C1373 C1370 1.409 . S
C1373 C1371 1.415 . S
C1374 H1364 0.930 . S
C1374 C1372 1.419 . S
C1374 C1375 1.362 . S
C1375 H1365 0.930 . S
C1375 C1368 1.409 . S
C1375 C1374 1.362 . S
H1376 C1382 0.930 . S
H1377 C1385 0.930 . S
H1378 C1386 0.930 . S
H1379 C1387 0.930 . S
H1380 C1390 0.930 . S
H1381 C1391 0.930 . S
C1382 H1376 0.930 . S
C1382 C1383 1.355 . S
C1382 C1384 1.415 . S
C1383 C1382 1.355 . S
C1383 C1385 1.419 . S
C1384 C1382 1.415 . S
C1384 C1389 1.425 . S
C1384 C1391 1.409 . S
C1385 H1377 0.930 . S
C1385 C1383 1.419 . S
C1385 C1386 1.362 . S
C1386 H1378 0.930 . S
C1386 C1385 1.362 . S
C1386 C1389 1.409 . S
C1387 H1379 0.930 . S
C1387 C1388 1.355 . S
C1387 C1389 1.415 . S
C1388 C1387 1.355 . S
C1388 C1390 1.419 . S
C1389 C1384 1.425 . S
C1389 C1386 1.409 . S
C1389 C1387 1.415 . S
C1390 H1380 0.930 . S
C1390 C1388 1.419 . S
C1390 C1391 1.362 . S
C1391 H1381 0.930 . S
C1391 C1384 1.409 . S
C1391 C1390 1.362 . S
H1392 C1398 0.930 . S
H1393 C1401 0.930 . S
H1394 C1402 0.930 . S
H1395 C1403 0.930 . S
H1396 C1406 0.930 . S
H1397 C1407 0.930 . S
C1398 H1392 0.930 . S
C1398 C1399 1.355 . S
C1398 C1400 1.415 . S
C1399 C1398 1.355 . S
C1399 C1401 1.419 . S
C1400 C1398 1.415 . S
C1400 C1405 1.425 . S
C1400 C1407 1.409 . S
C1401 H1393 0.930 . S
C1401 C1399 1.419 . S
C1401 C1402 1.362 . S
C1402 H1394 0.930 . S
C1402 C1401 1.362 . S
C1402 C1405 1.409 . S
C1403 H1395 0.930 . S
C1403 C1404 1.355 . S
C1403 C1405 1.415 . S
C1404 C1403 1.355 . S
C1404 C1406 1.419 . S
C1405 C1400 1.425 . S
C1405 C1402 1.409 . S
C1405 C1403 1.415 . S
C1406 H1396 0.930 . S
C1406 C1404 1.419 . S
C1406 C1407 1.362 . S
C1407 H1397 0.930 . S
C1407 C1400 1.409 . S
C1407 C1406 1.362 . S
H1408 C1414 0.930 . S
H1409 C1417 0.930 . S
H1410 C1418 0.930 . S
H1411 C1419 0.930 . S
H1412 C1422 0.930 . S
H1413 C1423 0.930 . S
C1414 H1408 0.930 . S
C1414 C1415 1.355 . S
C1414 C1416 1.415 . S
C1415 C1414 1.355 . S
C1415 C1417 1.419 . S
C1416 C1414 1.415 . S
C1416 C1421 1.425 . S
C1416 C1423 1.409 . S
C1417 H1409 0.930 . S
C1417 C1415 1.419 . S
C1417 C1418 1.362 . S
C1418 H1410 0.930 . S
C1418 C1417 1.362 . S
C1418 C1421 1.409 . S
C1419 H1411 0.930 . S
C1419 C1420 1.355 . S
C1419 C1421 1.415 . S
C1420 C1419 1.355 . S
C1420 C1422 1.419 . S
C1421 C1416 1.425 . S
C1421 C1418 1.409 . S
C1421 C1419 1.415 . S
C1422 H1412 0.930 . S
C1422 C1420 1.419 . S
C1422 C1423 1.362 . S
C1423 H1413 0.930 . S
C1423 C1416 1.409 . S
C1423 C1422 1.362 . S
H1424 C1430 0.930 . S
H1425 C1433 0.930 . S
H1426 C1434 0.930 . S
H1427 C1435 0.930 . S
H1428 C1438 0.930 . S
H1429 C1439 0.930 . S
C1430 H1424 0.930 . S
C1430 C1431 1.355 . S
C1430 C1432 1.415 . S
C1431 C1430 1.355 . S
C1431 C1433 1.419 . S
C1432 C1430 1.415 . S
C1432 C1437 1.425 . S
C1432 C1439 1.409 . S
C1433 H1425 0.930 . S
C1433 C1431 1.419 . S
C1433 C1434 1.362 . S
C1434 H1426 0.930 . S
C1434 C1433 1.362 . S
C1434 C1437 1.409 . S
C1435 H1427 0.930 . S
C1435 C1436 1.355 . S
C1435 C1437 1.415 . S
C1436 C1435 1.355 . S
C1436 C1438 1.419 . S
C1437 C1432 1.425 . S
C1437 C1434 1.409 . S
C1437 C1435 1.415 . S
C1438 H1428 0.930 . S
C1438 C1436 1.419 . S
C1438 C1439 1.362 . S
C1439 H1429 0.930 . S
C1439 C1432 1.409 . S
C1439 C1438 1.362 . S
C551 C15 1.549 . S
C556 C151 1.549 . S
C567 C185 1.508 . S
C572 C49 1.508 . S
C583 C226 1.559 . S
C588 C83 1.559 . S
C599 C253 1.572 . S
C604 C117 1.572 . S
C615 C287 1.508 . S
C620 C423 1.508 . S
C631 C457 1.571 . S
C636 C321 1.571 . S
C647 C362 1.501 . S
C652 C491 1.501 . S
C663 C396 1.498 . S
C668 C525 1.498 . S
C679 C17 1.767 . S
C684 C445 1.760 . S
C695 C51 1.810 . S
C700 C411 1.709 . S
C711 C85 1.793 . S
C716 C513 1.751 . S
C727 C479 1.753 . S
C732 C119 1.760 . S
C743 C153 1.808 . S
C748 C309 1.693 . S
C759 C187 1.808 . S
C764 C275 1.695 . S
C775 C375 1.683 . S
C780 C221 1.796 . S
C791 C255 1.756 . S
C796 C341 1.738 . S
C807 C289 1.805 . S
C812 C173 1.733 . S
C823 C139 1.745 . S
C828 C323 1.757 . S
C839 C357 1.807 . S
C844 C241 1.728 . S
C855 C391 1.800 . S
C860 C205 1.743 . S
C871 C425 1.787 . S
C876 C37 1.757 . S
C887 C3 1.747 . S
C892 C459 1.758 . S
C903 C105 1.756 . S
C908 C493 1.762 . S
C919 C527 1.796 . S
C924 C71 1.749 . S
C935 C56 1.769 1_545 S
C940 C22 1.818 1_565 S
C951 C90 1.766 . S
C956 C124 1.798 . S
C967 C158 1.754 1_545 S
C972 C192 1.826 1_565 S
C983 C219 1.826 1_565 S
C988 C260 1.754 1_545 S
C999 C328 1.827 . S
C1004 C294 1.752 . S
C1015 C389 1.800 . S
C1020 C355 1.791 . S
C1031 C464 1.801 . S
C1036 C430 1.789 . S
C1047 C498 1.824 . S
C1052 C532 1.748 . S
C1063 C6 1.124 . S
C1068 C266 1.113 . S
C1079 C210 1.122 . S
C1084 C40 1.103 . S
C1095 C74 1.126 . S
C1100 C198 1.098 . S
C1111 C164 1.093 . S
C1116 C108 1.126 . S
C1127 C142 1.124 . S
C1132 C130 1.113 . S
C1143 C176 1.107 . S
C1148 C96 1.100 . S
C1159 C232 1.118 . S
C1164 C62 1.125 . S
C1175 C28 1.105 . S
C1180 C244 1.105 . S
C1191 C278 1.116 . S
C1196 C538 1.088 . S
C1207 C312 1.111 . S
C1212 C504 1.092 . S
C1223 C470 1.102 . S
C1228 C368 1.126 . S
C1239 C402 1.126 . S
C1244 C436 1.102 . S
C1255 C414 1.103 . S
C1260 C380 1.115 . S
C1271 C448 1.107 . S
C1276 C346 1.101 . S
C1287 C482 1.113 . S
C1292 C334 1.130 . S
C1303 C300 1.100 . S
C1308 C516 1.126 . S
C1319 C343 1.756 . S
C1324 C1 1.796 . S
C1335 C35 1.777 . S
C1340 C377 1.793 . S
C1351 C273 1.735 . S
C1356 C69 1.732 . S
C1367 C103 1.755 . S
C1372 C307 1.724 . S
C1383 C137 1.726 . S
C1388 C477 1.771 . S
C1399 C511 1.750 . S
C1404 C171 1.725 . S
C1415 C409 1.785 . S
C1420 C207 1.736 . S
C1431 C443 1.731 . S
C1436 C239 1.780 . S
