# Generated by pormake.
# Topology pcb, (4)-cn, num edge types: 1
# Building blocks:
#     Node 0, Type 0, BuildingBlock: QUQFOY_clean_sbu_3, # of connection points: 4
#     Node 1, Type 0, BuildingBlock: QUQFOY_clean_sbu_3, # of connection points: 4
#     Node 2, Type 0, BuildingBlock: QUQFOY_clean_sbu_3, # of connection points: 4
#     Node 3, Type 0, BuildingBlock: QUQFOY_clean_sbu_3, # of connection points: 4
#     Node 4, Type 0, BuildingBlock: QUQFOY_clean_sbu_3, # of connection points: 4
#     Node 5, Type 0, BuildingBlock: QUQFOY_clean_sbu_3, # of connection points: 4
#     Node 6, Type 0, BuildingBlock: QUQFOY_clean_sbu_3, # of connection points: 4
#     Node 7, Type 0, BuildingBlock: QUQFOY_clean_sbu_3, # of connection points: 4
#     Node 8, Type 0, BuildingBlock: QUQFOY_clean_sbu_3, # of connection points: 4
#     Node 9, Type 0, BuildingBlock: QUQFOY_clean_sbu_3, # of connection points: 4
#     Node 10, Type 0, BuildingBlock: QUQFOY_clean_sbu_3, # of connection points: 4
#     Node 11, Type 0, BuildingBlock: QUQFOY_clean_sbu_3, # of connection points: 4
#     Node 12, Type 0, BuildingBlock: QUQFOY_clean_sbu_3, # of connection points: 4
#     Node 13, Type 0, BuildingBlock: QUQFOY_clean_sbu_3, # of connection points: 4
#     Node 14, Type 0, BuildingBlock: QUQFOY_clean_sbu_3, # of connection points: 4
#     Node 15, Type 0, BuildingBlock: QUQFOY_clean_sbu_3, # of connection points: 4
#     Edge 16, Type (0, 0), BuildingBlock: ZUJKAS_clean_linker_0, # of connection points: 2
#     Edge 17, Type (0, 0), BuildingBlock: ZUJKAS_clean_linker_0, # of connection points: 2
#     Edge 18, Type (0, 0), BuildingBlock: ZUJKAS_clean_linker_0, # of connection points: 2
#     Edge 19, Type (0, 0), BuildingBlock: ZUJKAS_clean_linker_0, # of connection points: 2
#     Edge 20, Type (0, 0), BuildingBlock: ZUJKAS_clean_linker_0, # of connection points: 2
#     Edge 21, Type (0, 0), BuildingBlock: ZUJKAS_clean_linker_0, # of connection points: 2
#     Edge 22, Type (0, 0), BuildingBlock: ZUJKAS_clean_linker_0, # of connection points: 2
#     Edge 23, Type (0, 0), BuildingBlock: ZUJKAS_clean_linker_0, # of connection points: 2
#     Edge 24, Type (0, 0), BuildingBlock: ZUJKAS_clean_linker_0, # of connection points: 2
#     Edge 25, Type (0, 0), BuildingBlock: ZUJKAS_clean_linker_0, # of connection points: 2
#     Edge 26, Type (0, 0), BuildingBlock: ZUJKAS_clean_linker_0, # of connection points: 2
#     Edge 27, Type (0, 0), BuildingBlock: ZUJKAS_clean_linker_0, # of connection points: 2
#     Edge 28, Type (0, 0), BuildingBlock: ZUJKAS_clean_linker_0, # of connection points: 2
#     Edge 29, Type (0, 0), BuildingBlock: ZUJKAS_clean_linker_0, # of connection points: 2
#     Edge 30, Type (0, 0), BuildingBlock: ZUJKAS_clean_linker_0, # of connection points: 2
#     Edge 31, Type (0, 0), BuildingBlock: ZUJKAS_clean_linker_0, # of connection points: 2
#     Edge 32, Type (0, 0), BuildingBlock: ZUJKAS_clean_linker_0, # of connection points: 2
#     Edge 33, Type (0, 0), BuildingBlock: ZUJKAS_clean_linker_0, # of connection points: 2
#     Edge 34, Type (0, 0), BuildingBlock: ZUJKAS_clean_linker_0, # of connection points: 2
#     Edge 35, Type (0, 0), BuildingBlock: ZUJKAS_clean_linker_0, # of connection points: 2
#     Edge 36, Type (0, 0), BuildingBlock: ZUJKAS_clean_linker_0, # of connection points: 2
#     Edge 37, Type (0, 0), BuildingBlock: ZUJKAS_clean_linker_0, # of connection points: 2
#     Edge 38, Type (0, 0), BuildingBlock: ZUJKAS_clean_linker_0, # of connection points: 2
#     Edge 39, Type (0, 0), BuildingBlock: ZUJKAS_clean_linker_0, # of connection points: 2
#     Edge 40, Type (0, 0), BuildingBlock: ZUJKAS_clean_linker_0, # of connection points: 2
#     Edge 41, Type (0, 0), BuildingBlock: ZUJKAS_clean_linker_0, # of connection points: 2
#     Edge 42, Type (0, 0), BuildingBlock: ZUJKAS_clean_linker_0, # of connection points: 2
#     Edge 43, Type (0, 0), BuildingBlock: ZUJKAS_clean_linker_0, # of connection points: 2
#     Edge 44, Type (0, 0), BuildingBlock: ZUJKAS_clean_linker_0, # of connection points: 2
#     Edge 45, Type (0, 0), BuildingBlock: ZUJKAS_clean_linker_0, # of connection points: 2
#     Edge 46, Type (0, 0), BuildingBlock: ZUJKAS_clean_linker_0, # of connection points: 2
#     Edge 47, Type (0, 0), BuildingBlock: ZUJKAS_clean_linker_0, # of connection points: 2
# Relax obj value: 0.314
# Max RMSD: 0.169
# Mean RMSD: 0.169
data_MOF--net-pcb--node1-QUQFOY_clean_sbu_3--edge1-ZUJKAS_clean_linker_0
_symmetry_space_group_name_H-M    P1
_symmetry_Int_Tables_number       1
_symmetry_cell_setting            triclinic
loop_
_symmetry_equiv_pos_as_xyz
'x, y, z'
_cell_length_a     53.602647
_cell_length_b     65.518084
_cell_length_c     65.58943
_cell_angle_alpha  89.8727
_cell_angle_beta   89.876859
_cell_angle_gamma 89.983216
loop_
_atom_site_label
_atom_site_type_symbol
_atom_site_fract_x
_atom_site_fract_y
_atom_site_fract_z
_atom_type_partial_charge
C0 C 0.11108 0.1031 0.14832 0.0
O1 O 0.11308 0.08554 0.14033 0.0
Cd2 Cd 0.151 0.06769 0.13453 0.0
O3 O 0.13039 0.11265 0.15454 0.0
Cd4 Cd 0.17647 0.10587 0.1569 0.0
C5 C 0.18207 0.10354 0.10549 0.0
O6 O 0.17233 0.07049 0.16623 0.0
O7 O 0.20951 0.07901 0.1578 0.0
O8 O 0.17601 0.12355 0.18963 0.0
C9 C 0.19487 0.06525 0.16427 0.0
O10 O 0.17166 0.08608 0.10662 0.0
C11 C 0.19456 0.13493 0.18564 0.0
O12 O 0.18489 0.11444 0.12136 0.0
O13 O 0.20476 0.13271 0.1683 0.0
C14 C 0.86554 0.14778 0.10252 0.0
O15 O 0.86368 0.13974 0.08499 0.0
Cd16 Cd 0.82591 0.13448 0.06689 0.0
O17 O 0.84619 0.15429 0.11186 0.0
Cd18 Cd 0.80026 0.1572 0.10473 0.0
C19 C 0.79372 0.10581 0.10233 0.0
O20 O 0.8052 0.16659 0.06948 0.0
O21 O 0.76769 0.15871 0.07758 0.0
O22 O 0.80102 0.18997 0.12238 0.0
C23 C 0.78271 0.16506 0.06403 0.0
O24 O 0.80451 0.10678 0.08503 0.0
C25 C 0.78236 0.18617 0.13373 0.0
O26 O 0.79093 0.12175 0.11317 0.0
O27 O 0.77193 0.16893 0.13147 0.0
C28 C 0.86805 0.86561 0.14265 0.0
O29 O 0.86561 0.88304 0.13435 0.0
Cd30 Cd 0.82752 0.90125 0.12951 0.0
O31 O 0.8491 0.85607 0.14966 0.0
Cd32 Cd 0.8031 0.86206 0.1529 0.0
C33 C 0.79594 0.86538 0.10134 0.0
O34 O 0.80717 0.89741 0.16151 0.0
O35 O 0.76936 0.88821 0.15631 0.0
O36 O 0.80308 0.84493 0.18602 0.0
C37 C 0.7844 0.90232 0.16113 0.0
O38 O 0.80595 0.883 0.10219 0.0
C39 C 0.78644 0.83197 0.18132 0.0
O40 O 0.79396 0.85435 0.11728 0.0
O41 O 0.77755 0.83309 0.16342 0.0
C42 C 0.11457 0.81566 0.09796 0.0
O43 O 0.11748 0.82304 0.0802 0.0
Cd44 Cd 0.15656 0.82858 0.06374 0.0
O45 O 0.13339 0.80998 0.10843 0.0
Cd46 Cd 0.17972 0.80814 0.10363 0.0
C47 C 0.18399 0.85959 0.09947 0.0
O48 O 0.17892 0.79749 0.06859 0.0
O49 O 0.21476 0.80797 0.07852 0.0
O50 O 0.18107 0.77522 0.12102 0.0
C51 C 0.2017 0.80019 0.06444 0.0
O52 O 0.17543 0.85767 0.08147 0.0
C53 C 0.1968 0.78068 0.13438 0.0
O54 O 0.18598 0.84415 0.11118 0.0
O55 O 0.20467 0.79894 0.13336 0.0
C56 C 0.11565 0.86312 0.81945 0.0
O57 O 0.11874 0.88067 0.82727 0.0
Cd58 Cd 0.15702 0.89875 0.83112 0.0
O59 O 0.13418 0.85308 0.81239 0.0
Cd60 Cd 0.18035 0.85826 0.80854 0.0
C61 C 0.1884 0.86308 0.85994 0.0
O62 O 0.17679 0.89338 0.79921 0.0
O63 O 0.21457 0.88395 0.80406 0.0
O64 O 0.18011 0.84045 0.77587 0.0
C65 C 0.19959 0.89816 0.79929 0.0
O66 O 0.17873 0.88081 0.85864 0.0
C67 C 0.1964 0.82732 0.78098 0.0
O68 O 0.18987 0.85157 0.84436 0.0
O69 O 0.20516 0.82863 0.7989 0.0
C70 C 0.11388 0.13977 0.86079 0.0
O71 O 0.11587 0.13115 0.87809 0.0
Cd72 Cd 0.15295 0.12682 0.89744 0.0
O73 O 0.13297 0.14744 0.85195 0.0
Cd74 Cd 0.17864 0.15163 0.85965 0.0
C75 C 0.18762 0.10019 0.86211 0.0
O76 O 0.17164 0.15963 0.89488 0.0
O77 O 0.21028 0.15634 0.88721 0.0
O78 O 0.17681 0.18423 0.84148 0.0
C79 C 0.19404 0.16025 0.90071 0.0
O80 O 0.17608 0.10039 0.87912 0.0
C81 C 0.19609 0.18089 0.8307 0.0
O82 O 0.19017 0.11645 0.85167 0.0
O83 O 0.20715 0.16397 0.83342 0.0
C84 C 0.86596 0.09947 0.81431 0.0
O85 O 0.86324 0.08188 0.82219 0.0
Cd86 Cd 0.8248 0.06479 0.82832 0.0
O87 O 0.84703 0.10973 0.80842 0.0
Cd88 Cd 0.80065 0.10447 0.80703 0.0
C89 C 0.79683 0.10112 0.85855 0.0
O90 O 0.80259 0.06918 0.79729 0.0
O91 O 0.76626 0.07875 0.80688 0.0
O92 O 0.80012 0.12272 0.77452 0.0
C93 C 0.77995 0.06458 0.79997 0.0
O94 O 0.80558 0.08311 0.85689 0.0
C95 C 0.78226 0.13451 0.77933 0.0
O96 O 0.79469 0.11261 0.84297 0.0
O97 O 0.77301 0.13232 0.79704 0.0
C98 C 0.8661 0.81727 0.86451 0.0
O99 O 0.86291 0.82442 0.88231 0.0
Cd100 Cd 0.82392 0.82834 0.89939 0.0
O101 O 0.84752 0.81112 0.85405 0.0
Cd102 Cd 0.80127 0.80831 0.85902 0.0
C103 C 0.7945 0.85945 0.86476 0.0
O104 O 0.80271 0.79691 0.89387 0.0
O105 O 0.76645 0.80674 0.8843 0.0
O106 O 0.80021 0.77586 0.84083 0.0
C107 C 0.77991 0.79909 0.89824 0.0
O108 O 0.80314 0.85722 0.88272 0.0
C109 C 0.78438 0.78162 0.82765 0.0
O110 O 0.79347 0.8444 0.85255 0.0
O111 O 0.77635 0.79979 0.82913 0.0
C112 C 0.61508 0.59848 0.64633 0.0
O113 O 0.61825 0.58066 0.63916 0.0
Cd114 Cd 0.65712 0.56354 0.63473 0.0
O115 O 0.63367 0.60904 0.65231 0.0
Cd116 Cd 0.67998 0.60452 0.65484 0.0
C117 C 0.68605 0.5987 0.60361 0.0
O118 O 0.67874 0.56957 0.66573 0.0
O119 O 0.7151 0.57952 0.65648 0.0
O120 O 0.68093 0.62255 0.68734 0.0
C121 C 0.70156 0.56528 0.66353 0.0
O122 O 0.67742 0.58071 0.60588 0.0
C123 C 0.69652 0.63598 0.68158 0.0
O124 O 0.68734 0.61091 0.61866 0.0
O125 O 0.70446 0.63471 0.66337 0.0
C126 C 0.36619 0.6432 0.59943 0.0
O127 O 0.36326 0.63522 0.58195 0.0
Cd128 Cd 0.32504 0.63132 0.56386 0.0
O129 O 0.34757 0.65035 0.60928 0.0
Cd130 Cd 0.30152 0.65404 0.60372 0.0
C131 C 0.29352 0.60258 0.59945 0.0
O132 O 0.30535 0.66343 0.56858 0.0
O133 O 0.26759 0.65793 0.57784 0.0
O134 O 0.30136 0.6868 0.62147 0.0
C135 C 0.28257 0.66311 0.56376 0.0
O136 O 0.30314 0.60375 0.5817 0.0
C137 C 0.2849 0.68163 0.63445 0.0
O138 O 0.29213 0.61827 0.61082 0.0
O139 O 0.2762 0.66366 0.63305 0.0
C140 C 0.36326 0.36275 0.64417 0.0
O141 O 0.36012 0.38037 0.6365 0.0
Cd142 Cd 0.32117 0.39715 0.63252 0.0
O143 O 0.3447 0.3526 0.65105 0.0
Cd144 Cd 0.29855 0.35824 0.65533 0.0
C145 C 0.29002 0.36105 0.60427 0.0
O146 O 0.30185 0.39348 0.66514 0.0
O147 O 0.26466 0.3843 0.6576 0.0
O148 O 0.30087 0.34016 0.6879 0.0
C149 C 0.27906 0.39819 0.66406 0.0
O150 O 0.29988 0.37872 0.6051 0.0
C151 C 0.2826 0.32838 0.6843 0.0
O152 O 0.2884 0.34994 0.62015 0.0
O153 O 0.27178 0.33054 0.66723 0.0
C154 C 0.61271 0.32024 0.59836 0.0
O155 O 0.61586 0.32779 0.58069 0.0
Cd156 Cd 0.65487 0.33159 0.56356 0.0
O157 O 0.63128 0.31362 0.6086 0.0
Cd158 Cd 0.67745 0.30999 0.60362 0.0
C159 C 0.68542 0.36111 0.59897 0.0
O160 O 0.67492 0.29957 0.56855 0.0
O161 O 0.7119 0.30719 0.57814 0.0
O162 O 0.67476 0.27798 0.6226 0.0
C163 C 0.69778 0.30083 0.56404 0.0
O164 O 0.67657 0.35944 0.58103 0.0
C165 C 0.69294 0.28187 0.63435 0.0
O166 O 0.68617 0.34579 0.61092 0.0
O167 O 0.70393 0.29885 0.63177 0.0
C168 C 0.61329 0.36527 0.32036 0.0
O169 O 0.61574 0.38283 0.32831 0.0
Cd170 Cd 0.65361 0.40155 0.33189 0.0
O171 O 0.63214 0.35581 0.31311 0.0
Cd172 Cd 0.67795 0.36234 0.30884 0.0
C173 C 0.68664 0.36638 0.36004 0.0
O174 O 0.67267 0.3975 0.29947 0.0
O175 O 0.71079 0.38908 0.3043 0.0
O176 O 0.67565 0.34358 0.27676 0.0
C177 C 0.69529 0.40284 0.29939 0.0
O178 O 0.67675 0.38404 0.3589 0.0
C179 C 0.69455 0.33244 0.28033 0.0
O180 O 0.68786 0.35488 0.34445 0.0
O181 O 0.70564 0.33521 0.29718 0.0
C182 C 0.61358 0.64999 0.36135 0.0
O183 O 0.61568 0.6416 0.37874 0.0
Cd184 Cd 0.65351 0.6349 0.3964 0.0
O185 O 0.63285 0.65622 0.35168 0.0
Cd186 Cd 0.67905 0.65782 0.35785 0.0
C187 C 0.68399 0.60613 0.36016 0.0
O188 O 0.67586 0.66614 0.39336 0.0
O189 O 0.71283 0.65791 0.38404 0.0
O190 O 0.68176 0.6915 0.34189 0.0
C191 C 0.69846 0.66384 0.39822 0.0
O192 O 0.6735 0.607 0.37759 0.0
C193 C 0.69766 0.68623 0.32851 0.0
O194 O 0.68711 0.62219 0.34949 0.0
O195 O 0.70499 0.66781 0.32892 0.0
C196 C 0.36799 0.60329 0.31861 0.0
O197 O 0.36613 0.58581 0.32688 0.0
Cd198 Cd 0.32829 0.56769 0.33259 0.0
O199 O 0.34862 0.61261 0.31216 0.0
Cd200 Cd 0.30268 0.60557 0.30997 0.0
C201 C 0.29618 0.60276 0.3614 0.0
O202 O 0.30683 0.57021 0.30082 0.0
O203 O 0.26958 0.57882 0.30909 0.0
O204 O 0.30067 0.62202 0.27655 0.0
C205 C 0.28424 0.56506 0.30265 0.0
O206 O 0.3071 0.58551 0.36053 0.0
C207 C 0.2843 0.63506 0.28167 0.0
O208 O 0.29333 0.61356 0.34543 0.0
O209 O 0.27634 0.63422 0.2999 0.0
C210 C 0.367 0.31684 0.36711 0.0
O211 O 0.36434 0.3247 0.38468 0.0
Cd212 Cd 0.32602 0.32994 0.4024 0.0
O213 O 0.34811 0.31045 0.35714 0.0
Cd214 Cd 0.30187 0.30773 0.36251 0.0
C215 C 0.29618 0.35935 0.36628 0.0
O216 O 0.30524 0.29832 0.39774 0.0
O217 O 0.26772 0.30426 0.38832 0.0
O218 O 0.30337 0.27557 0.34377 0.0
C219 C 0.28242 0.299 0.40249 0.0
O220 O 0.30558 0.35791 0.38406 0.0
C221 C 0.28507 0.27978 0.33223 0.0
O222 O 0.29412 0.3437 0.35492 0.0
O223 O 0.2747 0.29702 0.33476 0.0
H224 H 0.24318 0.28286 0.30881 0.0
H225 H 0.22762 0.25825 0.28391 0.0
H226 H 0.29126 0.21957 0.29526 0.0
H227 H 0.30662 0.24385 0.32057 0.0
H228 H 0.24809 0.24421 0.24882 0.0
H229 H 0.23387 0.18019 0.30303 0.0
H230 H 0.23985 0.20595 0.31136 0.0
H231 H 0.26516 0.1899 0.3031 0.0
C232 C 0.25384 0.26909 0.30604 0.0
C233 C 0.27602 0.2652 0.31676 0.0
C234 C 0.24493 0.25506 0.2918 0.0
C235 C 0.25805 0.23692 0.288 0.0
C236 C 0.28052 0.23323 0.29833 0.0
H237 H 0.2371 0.15778 0.18321 0.0
H238 H 0.25237 0.18276 0.20786 0.0
C239 C 0.28934 0.24717 0.3127 0.0
C240 C 0.24832 0.22199 0.27307 0.0
H241 H 0.23032 0.17233 0.26779 0.0
C242 C 0.24411 0.22851 0.25296 0.0
C243 C 0.24277 0.2016 0.2786 0.0
C244 C 0.24539 0.19402 0.30024 0.0
C245 C 0.23484 0.2151 0.23815 0.0
C246 C 0.23023 0.1945 0.2435 0.0
C247 C 0.23411 0.18807 0.26367 0.0
C248 C 0.22106 0.17939 0.2285 0.0
C249 C 0.22959 0.22325 0.21705 0.0
C250 C 0.19879 0.16875 0.23223 0.0
C251 C 0.19021 0.15424 0.21833 0.0
C252 C 0.20376 0.15014 0.20043 0.0
C253 C 0.22614 0.16073 0.19679 0.0
C254 C 0.23481 0.17511 0.21078 0.0
H255 H 0.22715 0.24009 0.21711 0.0
H256 H 0.24559 0.21965 0.20691 0.0
H257 H 0.21257 0.21619 0.21052 0.0
H258 H 0.18795 0.17174 0.24586 0.0
H259 H 0.1729 0.14633 0.22157 0.0
H260 H 0.73706 0.30955 0.2822 0.0
H261 H 0.75217 0.28479 0.25721 0.0
H262 H 0.68689 0.29542 0.22033 0.0
H263 H 0.67194 0.32057 0.245 0.0
H264 H 0.73151 0.24938 0.2438 0.0
H265 H 0.74285 0.30369 0.17948 0.0
H266 H 0.73777 0.312 0.20537 0.0
H267 H 0.71195 0.30358 0.19006 0.0
C268 C 0.72595 0.30666 0.26874 0.0
C269 C 0.7034 0.31712 0.26548 0.0
C270 C 0.7346 0.2925 0.25449 0.0
C271 C 0.72087 0.28853 0.23675 0.0
C272 C 0.69808 0.29862 0.23367 0.0
H273 H 0.74023 0.18381 0.15714 0.0
H274 H 0.72543 0.20848 0.18234 0.0
C275 C 0.6895 0.3129 0.24784 0.0
C276 C 0.73028 0.27364 0.22161 0.0
H277 H 0.74667 0.26843 0.17159 0.0
C278 C 0.73492 0.25354 0.22802 0.0
C279 C 0.73506 0.2792 0.20112 0.0
C280 C 0.7319 0.30084 0.19361 0.0
C281 C 0.74388 0.23875 0.2144 0.0
C282 C 0.74774 0.24412 0.19373 0.0
C283 C 0.74344 0.26429 0.1874 0.0
C284 C 0.75659 0.22916 0.17844 0.0
C285 C 0.74959 0.21764 0.2224 0.0
C286 C 0.77861 0.23289 0.16744 0.0
C287 C 0.78693 0.21897 0.15283 0.0
C288 C 0.77336 0.20104 0.14897 0.0
C289 C 0.7512 0.19741 0.15989 0.0
C290 C 0.7428 0.21142 0.17439 0.0
H291 H 0.75245 0.21768 0.23917 0.0
H292 H 0.73363 0.2074 0.21907 0.0
H293 H 0.7665 0.21123 0.215 0.0
H294 H 0.78946 0.24655 0.17026 0.0
H295 H 0.80407 0.2222 0.14467 0.0
H296 H 0.79805 0.82874 0.22172 0.0
H297 H 0.78329 0.80304 0.24599 0.0
H298 H 0.74106 0.77394 0.19828 0.0
H299 H 0.75522 0.7999 0.17403 0.0
H300 H 0.71387 0.77825 0.23257 0.0
H301 H 0.80569 0.74441 0.2515 0.0
H302 H 0.80474 0.77146 0.25561 0.0
H303 H 0.80135 0.76152 0.2302 0.0
C304 C 0.78571 0.81682 0.21638 0.0
C305 C 0.77785 0.8163 0.19596 0.0
C306 C 0.77743 0.80206 0.23023 0.0
C307 C 0.76146 0.78636 0.22385 0.0
C308 C 0.7535 0.78587 0.20349 0.0
H309 H 0.72738 0.67804 0.29567 0.0
H310 H 0.74213 0.70201 0.26968 0.0
C311 C 0.76161 0.8007 0.18966 0.0
C312 C 0.75233 0.77087 0.23857 0.0
H313 H 0.77162 0.73524 0.27315 0.0
C314 C 0.72649 0.76875 0.24136 0.0
C315 C 0.76881 0.75826 0.24977 0.0
C316 C 0.79667 0.75884 0.24649 0.0
C317 C 0.71667 0.75468 0.25538 0.0
C318 C 0.73318 0.74279 0.26731 0.0
C319 C 0.75901 0.74457 0.26418 0.0
C320 C 0.72406 0.72834 0.28305 0.0
C321 C 0.68871 0.75248 0.25703 0.0
C322 C 0.70929 0.73525 0.29933 0.0
C323 C 0.70067 0.72156 0.31411 0.0
C324 C 0.70699 0.70077 0.31302 0.0
C325 C 0.72218 0.69396 0.29691 0.0
C326 C 0.73063 0.70763 0.28206 0.0
H327 H 0.67919 0.75796 0.24301 0.0
H328 H 0.68329 0.73635 0.25978 0.0
H329 H 0.68187 0.7618 0.27 0.0
H330 H 0.70454 0.75125 0.30067 0.0
H331 H 0.68918 0.7273 0.32643 0.0
H332 H 0.29437 0.63806 0.24095 0.0
H333 H 0.27941 0.66404 0.21712 0.0
H334 H 0.23917 0.69353 0.26588 0.0
H335 H 0.25355 0.6673 0.28972 0.0
H336 H 0.21106 0.69002 0.23199 0.0
H337 H 0.30336 0.72235 0.21186 0.0
H338 H 0.30171 0.69534 0.2076 0.0
H339 H 0.29895 0.70518 0.23311 0.0
C340 C 0.28239 0.6501 0.24661 0.0
C341 C 0.2752 0.65068 0.26722 0.0
C342 C 0.274 0.66502 0.233 0.0
C343 C 0.25859 0.68094 0.23982 0.0
C344 C 0.25119 0.68144 0.26035 0.0
H345 H 0.22641 0.7893 0.1671 0.0
H346 H 0.24048 0.76574 0.1937 0.0
C347 C 0.25941 0.66644 0.27393 0.0
C348 C 0.24959 0.69672 0.22541 0.0
H349 H 0.26922 0.73203 0.19057 0.0
C350 C 0.22376 0.69931 0.22303 0.0
C351 C 0.26619 0.70909 0.21402 0.0
C352 C 0.29409 0.70803 0.21691 0.0
C353 C 0.21408 0.71354 0.20914 0.0
C354 C 0.2307 0.72511 0.19695 0.0
C355 C 0.25651 0.72294 0.19974 0.0
C356 C 0.22172 0.73941 0.18106 0.0
C357 C 0.18616 0.7162 0.20785 0.0
C358 C 0.20675 0.73237 0.16502 0.0
C359 C 0.19855 0.74581 0.1499 0.0
C360 C 0.20547 0.76649 0.15039 0.0
C361 C 0.22075 0.77346 0.16632 0.0
C362 C 0.2288 0.76003 0.18152 0.0
H363 H 0.17675 0.71111 0.22209 0.0
H364 H 0.18108 0.73237 0.20491 0.0
H365 H 0.17887 0.70679 0.19514 0.0
H366 H 0.2016 0.71642 0.16407 0.0
H367 H 0.18696 0.73995 0.13773 0.0
H368 H 0.29549 0.72223 0.63808 0.0
H369 H 0.28044 0.74578 0.66422 0.0
H370 H 0.24004 0.69668 0.6932 0.0
H371 H 0.25445 0.67314 0.66678 0.0
H372 H 0.21181 0.73034 0.68982 0.0
H373 H 0.30356 0.75096 0.72247 0.0
H374 H 0.30208 0.75553 0.69552 0.0
H375 H 0.29963 0.72985 0.70515 0.0
C376 C 0.2835 0.71643 0.65008 0.0
C377 C 0.27621 0.69583 0.65042 0.0
C378 C 0.27505 0.72987 0.66508 0.0
C379 C 0.25951 0.7229 0.68088 0.0
C380 C 0.25214 0.70235 0.68121 0.0
H381 H 0.22644 0.79469 0.78926 0.0
H382 H 0.24068 0.76835 0.76556 0.0
C383 C 0.26039 0.68893 0.66611 0.0
C384 C 0.2502 0.73719 0.69664 0.0
H385 H 0.26907 0.77199 0.73202 0.0
C386 C 0.22432 0.73934 0.69916 0.0
C387 C 0.26654 0.74865 0.70905 0.0
C388 C 0.29449 0.746 0.70809 0.0
C389 C 0.21433 0.75305 0.71341 0.0
C390 C 0.23068 0.76531 0.72504 0.0
C391 C 0.25655 0.76277 0.7229 0.0
C392 C 0.22138 0.78096 0.73946 0.0
C393 C 0.18637 0.75403 0.71603 0.0
C394 C 0.20597 0.79688 0.73261 0.0
C395 C 0.19762 0.81184 0.74615 0.0
C396 C 0.20487 0.81132 0.76672 0.0
C397 C 0.22052 0.79549 0.7735 0.0
C398 C 0.22868 0.78044 0.75998 0.0
H399 H 0.17726 0.7397 0.71092 0.0
H400 H 0.18116 0.75683 0.73217 0.0
H401 H 0.17888 0.76671 0.70661 0.0
H402 H 0.20064 0.79789 0.71672 0.0
H403 H 0.18576 0.82394 0.74043 0.0
H404 H 0.23919 0.1793 0.80852 0.0
H405 H 0.25471 0.20446 0.78401 0.0
H406 H 0.18913 0.24133 0.79395 0.0
H407 H 0.17376 0.21648 0.81886 0.0
H408 H 0.23444 0.21769 0.74846 0.0
H409 H 0.24476 0.28237 0.80215 0.0
H410 H 0.2397 0.25649 0.81067 0.0
H411 H 0.2139 0.27175 0.80198 0.0
C412 C 0.22812 0.19281 0.80556 0.0
C413 C 0.20533 0.19599 0.81572 0.0
C414 C 0.237 0.20715 0.79154 0.0
C415 C 0.22328 0.22492 0.78742 0.0
C416 C 0.20031 0.22797 0.79728 0.0
H417 H 0.24127 0.30412 0.6823 0.0
H418 H 0.22735 0.27874 0.7072 0.0
C419 C 0.19149 0.2137 0.81141 0.0
C420 C 0.23278 0.24002 0.77247 0.0
H421 H 0.24863 0.29016 0.76683 0.0
C422 C 0.23766 0.23352 0.75248 0.0
C423 C 0.23732 0.26059 0.77785 0.0
C424 C 0.2339 0.2682 0.79938 0.0
C425 C 0.24655 0.24712 0.7376 0.0
C426 C 0.2501 0.26787 0.74277 0.0
C427 C 0.24564 0.27429 0.76285 0.0
C428 C 0.25855 0.28319 0.72762 0.0
C429 C 0.25247 0.23904 0.71661 0.0
C430 C 0.28032 0.29454 0.73112 0.0
C431 C 0.28814 0.30925 0.71705 0.0
C432 C 0.27431 0.31287 0.69922 0.0
C433 C 0.25244 0.30157 0.69581 0.0
C434 C 0.24454 0.28696 0.70996 0.0
H435 H 0.25572 0.22229 0.71685 0.0
H436 H 0.23644 0.24207 0.70636 0.0
H437 H 0.26922 0.24662 0.71009 0.0
H438 H 0.29133 0.29193 0.74472 0.0
H439 H 0.30507 0.31773 0.72012 0.0
H440 H 0.74088 0.15843 0.7838 0.0
H441 H 0.72433 0.18345 0.75961 0.0
H442 H 0.7855 0.17105 0.71863 0.0
H443 H 0.8018 0.14563 0.74247 0.0
H444 H 0.74453 0.21822 0.74455 0.0
H445 H 0.72594 0.16411 0.68158 0.0
H446 H 0.73315 0.15572 0.70712 0.0
H447 H 0.75774 0.16343 0.69003 0.0
C448 C 0.75076 0.16098 0.7696 0.0
C449 C 0.77253 0.14995 0.76495 0.0
C450 C 0.74129 0.17529 0.75582 0.0
C451 C 0.75343 0.17883 0.73717 0.0
C452 C 0.77548 0.16817 0.7327 0.0
H453 H 0.73501 0.28353 0.65769 0.0
H454 H 0.74886 0.25882 0.68324 0.0
C455 C 0.78485 0.15374 0.74639 0.0
C456 C 0.74323 0.1939 0.72253 0.0
H457 H 0.72376 0.1995 0.67334 0.0
C458 C 0.73984 0.21412 0.72901 0.0
C459 C 0.73671 0.18844 0.70237 0.0
C460 C 0.73831 0.1667 0.6949 0.0
C461 C 0.73063 0.22915 0.71573 0.0
C462 C 0.72527 0.22388 0.69529 0.0
C463 C 0.72814 0.20357 0.68895 0.0
C464 C 0.71664 0.23915 0.68016 0.0
C465 C 0.72638 0.25041 0.72383 0.0
C466 C 0.69427 0.23602 0.66953 0.0
C467 C 0.68653 0.24993 0.65467 0.0
C468 C 0.701 0.26727 0.65022 0.0
C469 C 0.72336 0.27041 0.66091 0.0
C470 C 0.73121 0.25637 0.67563 0.0
H471 H 0.72403 0.25037 0.74067 0.0
H472 H 0.74282 0.26003 0.72015 0.0
H473 H 0.70963 0.25752 0.71686 0.0
H474 H 0.68281 0.22277 0.67272 0.0
H475 H 0.66919 0.24711 0.6467 0.0
H476 H 0.79463 0.74106 0.8232 0.0
H477 H 0.77976 0.71817 0.79651 0.0
H478 H 0.73999 0.76806 0.76841 0.0
H479 H 0.75431 0.79098 0.79537 0.0
H480 H 0.71149 0.73424 0.77123 0.0
H481 H 0.80331 0.71422 0.73806 0.0
H482 H 0.80192 0.7093 0.76495 0.0
H483 H 0.79929 0.73509 0.75568 0.0
C484 C 0.78282 0.74719 0.81129 0.0
C485 C 0.7757 0.76783 0.81134 0.0
C486 C 0.77448 0.73412 0.79596 0.0
C487 C 0.75917 0.7415 0.78025 0.0
C488 C 0.75193 0.76209 0.78032 0.0
H489 H 0.72587 0.66881 0.67226 0.0
H490 H 0.73999 0.69575 0.6953 0.0
C491 C 0.76013 0.77515 0.79573 0.0
C492 C 0.74991 0.72754 0.76424 0.0
H493 H 0.76897 0.69289 0.72869 0.0
C494 C 0.72405 0.72533 0.76179 0.0
C495 C 0.76632 0.71621 0.75168 0.0
C496 C 0.79424 0.71897 0.75255 0.0
C497 C 0.71413 0.71157 0.7476 0.0
C498 C 0.73055 0.69935 0.73593 0.0
C499 C 0.7564 0.70207 0.73786 0.0
C500 C 0.72133 0.68337 0.72188 0.0
C501 C 0.68618 0.7104 0.74517 0.0
C502 C 0.70637 0.66738 0.72924 0.0
C503 C 0.69814 0.65207 0.7161 0.0
C504 C 0.70503 0.6523 0.69542 0.0
C505 C 0.72024 0.66822 0.68812 0.0
C506 C 0.72831 0.68361 0.70125 0.0
H507 H 0.67697 0.72474 0.75018 0.0
H508 H 0.68093 0.70739 0.72909 0.0
H509 H 0.67884 0.69779 0.75478 0.0
H510 H 0.7013 0.6666 0.74521 0.0
H511 H 0.68661 0.63992 0.72221 0.0
H512 H 0.16168 0.16533 0.93217 0.0
H513 H 0.16983 0.16085 0.96831 0.0
H514 H 0.24799 0.15144 0.95557 0.0
H515 H 0.23977 0.15538 0.91897 0.0
H516 H 0.23032 0.12187 0.97897 0.0
H517 H 0.1999 0.19472 0.01236 0.0
H518 H 0.17577 0.1851 -0.00382 0.0
H519 H 0.20562 0.19191 -0.01463 0.0
C520 C 0.18072 0.1627 0.93702 0.0
C521 C 0.20007 0.16061 0.92269 0.0
C522 C 0.1854 0.16035 0.95778 0.0
C523 C 0.2096 0.15616 0.96475 0.0
C524 C 0.2292 0.15483 0.95055 0.0
H525 H 0.21062 0.13738 0.09757 0.0
H526 H 0.22335 0.15066 0.06421 0.0
C527 C 0.22449 0.15711 0.92966 0.0
C528 C 0.21344 0.15078 -0.01351 0.0
H529 H 0.19531 0.16468 0.03437 0.0
C530 C 0.22323 0.13145 -0.00885 0.0
C531 C 0.20477 0.16339 0.0025 0.0
C532 C 0.19621 0.18502 -0.00118 0.0
C533 C 0.22263 0.12375 0.01112 0.0
C534 C 0.2113 0.13547 0.0267 0.0
C535 C 0.20348 0.15547 0.02236 0.0
C536 C 0.20535 0.12669 0.04701 0.0
C537 C 0.23366 0.10295 0.01518 0.0
C538 C 0.19085 0.1089 0.04844 0.0
C539 C 0.18371 0.1012 0.06742 0.0
C540 C 0.19053 0.11135 0.08543 0.0
C541 C 0.20503 0.1292 0.084 0.0
C542 C 0.21236 0.1368 0.06495 0.0
H543 H 0.24928 0.09969 0.0045 0.0
H544 H 0.24064 0.1016 0.03105 0.0
H545 H 0.21914 0.09114 0.01271 0.0
H546 H 0.1845 0.10119 0.03481 0.0
H547 H 0.17237 0.08753 0.06794 0.0
H548 H 0.78248 0.13996 0.86872 0.0
H549 H 0.77475 0.15349 0.90292 0.0
H550 H 0.78746 0.09379 0.92864 0.0
H551 H 0.79559 0.08016 0.89465 0.0
H552 H 0.7407 0.14264 0.93482 0.0
H553 H 0.8397 0.13037 0.95637 0.0
H554 H 0.8291 0.1291 0.93031 0.0
H555 H 0.82426 0.10785 0.94727 0.0
C556 C 0.78346 0.12966 0.88163 0.0
C557 C 0.79002 0.10902 0.87897 0.0
C558 C 0.77895 0.13742 0.90114 0.0
C559 C 0.78092 0.1247 0.91828 0.0
C560 C 0.78628 0.10392 0.9156 0.0
H561 H 0.74508 0.14395 0.04533 0.0
H562 H 0.74175 0.1368 0.00882 0.0
C563 C 0.7909 0.09616 0.89615 0.0
C564 C 0.77889 0.13334 0.93905 0.0
H565 H 0.81205 0.14004 -0.01721 0.0
C566 C 0.75629 0.14219 0.94533 0.0
C567 C 0.7994 0.13302 0.95255 0.0
C568 C 0.82457 0.12476 0.94627 0.0
C569 C 0.75351 0.15034 0.96503 0.0
C570 C 0.7738 0.14934 0.97876 0.0
C571 C 0.79648 0.14079 0.97227 0.0
C572 C 0.77224 0.15668 9e-05 0.0
C573 C 0.72907 0.16013 0.97087 0.0
C574 C 0.79014 0.17052 0.00728 0.0
C575 C 0.79233 0.17434 0.02811 0.0
C576 C 0.77655 0.16451 0.04213 0.0
C577 C 0.75737 0.15187 0.03484 0.0
C578 C 0.75539 0.14783 0.01395 0.0
H579 H 0.71837 0.16503 0.95722 0.0
H580 H 0.71754 0.14888 0.97935 0.0
H581 H 0.73207 0.17358 0.98085 0.0
H582 H 0.80331 0.17754 -0.00314 0.0
H583 H 0.80721 0.18422 0.03332 0.0
H584 H 0.79999 0.77734 0.92929 0.0
H585 H 0.79503 0.78397 0.96569 0.0
H586 H 0.73908 0.82941 0.95241 0.0
H587 H 0.74342 0.82235 0.91596 0.0
H588 H 0.80784 0.82078 0.97948 0.0
H589 H 0.71101 0.8039 0.004 0.0
H590 H 0.72421 0.79391 0.9807 0.0
H591 H 0.7126 0.81965 0.98161 0.0
C592 C 0.78599 0.78821 0.93419 0.0
C593 C 0.77221 0.79942 0.91984 0.0
C594 C 0.78319 0.792 0.95498 0.0
C595 C 0.76671 0.80719 0.9618 0.0
C596 C 0.75157 0.81736 0.94757 0.0
H597 H 0.79538 0.88516 0.06459 0.0
H598 H 0.78578 0.87076 0.03121 0.0
C599 C 0.75413 0.81336 0.92671 0.0
C600 C 0.76856 0.81465 -0.01693 0.0
H601 H 0.73518 0.82523 0.02622 0.0
C602 C 0.79196 0.82153 -0.01026 0.0
C603 C 0.74788 0.81563 -0.00354 0.0
C604 C 0.72255 0.8077 -0.00958 0.0
C605 C 0.79521 0.82965 0.00927 0.0
C606 C 0.77437 0.83138 0.02238 0.0
C607 C 0.75103 0.82411 0.01598 0.0
C608 C 0.77684 0.8407 0.04279 0.0
C609 C 0.821 0.83623 0.01573 0.0
C610 C 0.77403 0.82874 0.0604 0.0
C611 C 0.77945 0.83694 0.07956 0.0
C612 C 0.78774 0.85724 0.08139 0.0
C613 C 0.78932 0.86943 0.06374 0.0
C614 C 0.78384 0.86123 0.04464 0.0
H615 H 0.83573 0.82936 0.00598 0.0
H616 H 0.8225 0.85308 0.01442 0.0
H617 H 0.82464 0.83194 0.03184 0.0
H618 H 0.76859 0.81287 0.05925 0.0
H619 H 0.77789 0.82716 0.09284 0.0
H620 H 0.18259 0.77802 0.03339 0.0
H621 H 0.18834 0.78426 -0.00303 0.0
H622 H 0.24334 0.83035 0.01041 0.0
H623 H 0.23817 0.8237 0.04691 0.0
H624 H 0.17547 0.82104 -0.01753 0.0
H625 H 0.27295 0.80414 0.95968 0.0
H626 H 0.2592 0.79428 -0.01713 0.0
H627 H 0.2706 0.82007 0.98184 0.0
C628 C 0.19653 0.78898 0.02854 0.0
C629 C 0.2098 0.80048 0.04294 0.0
C630 C 0.1998 0.79254 0.00775 0.0
C631 C 0.21625 0.80778 0.00095 0.0
C632 C 0.23088 0.81827 0.01526 0.0
H633 H 0.18963 0.88382 0.89606 0.0
H634 H 0.19912 0.87014 0.92983 0.0
C635 C 0.22784 0.8145 0.03614 0.0
C636 C 0.21482 0.81493 0.97953 0.0
H637 H 0.24901 0.82474 0.93658 0.0
C638 C 0.19154 0.82163 0.9724 0.0
C639 C 0.23578 0.81572 0.9664 0.0
C640 C 0.26101 0.80799 0.97299 0.0
C641 C 0.18865 0.82937 0.95265 0.0
C642 C 0.20973 0.83086 0.93977 0.0
C643 C 0.23297 0.82378 0.94664 0.0
C644 C 0.20758 0.83972 0.9191 0.0
C645 C 0.16299 0.83582 0.9457 0.0
C646 C 0.21012 0.8273 0.90185 0.0
C647 C 0.20473 0.83506 0.88247 0.0
C648 C 0.19672 0.8554 0.88008 0.0
C649 C 0.19547 0.86804 0.89735 0.0
C650 C 0.2009 0.86027 0.91667 0.0
H651 H 0.14807 0.82932 0.95554 0.0
H652 H 0.16156 0.85271 0.94636 0.0
H653 H 0.15959 0.83102 0.92972 0.0
H654 H 0.21528 0.81138 0.90346 0.0
H655 H 0.20604 0.82494 0.86949 0.0
H656 H 0.09864 0.14235 0.15948 0.0
H657 H 0.05668 0.15747 0.16045 0.0
H658 H 0.02517 0.09991 0.14184 0.0
H659 H 0.06648 0.08476 0.14101 0.0
H660 H 0.0245 0.16114 0.12798 0.0
H661 H 0.97936 0.11575 0.18851 0.0
H662 H 0.01287 0.11708 0.18567 0.0
H663 H -0.00509 0.09933 0.17073 0.0
C664 C 0.0827 0.13287 0.15588 0.0
C665 C 0.08594 0.11235 0.15014 0.0
C666 C 0.05877 0.14152 0.15647 0.0
C667 C 0.03776 0.12969 0.15163 0.0
C668 C 0.04101 0.10918 0.14618 0.0
H669 H 0.91026 0.13935 0.08473 0.0
H670 H 0.95142 0.1403 0.10005 0.0
C671 C 0.06476 0.1006 0.14551 0.0
C672 C 0.01255 0.13886 0.15016 0.0
H673 H 0.95178 0.12828 0.16153 0.0
C674 C 0.00863 0.15438 0.13575 0.0
C675 C -0.00814 0.1304 0.1606 0.0
C676 C -0.00499 0.11488 0.17741 0.0
C677 C 0.98443 0.16015 0.13002 0.0
C678 C 0.96374 0.14988 0.1387 0.0
C679 C 0.96765 0.1359 0.15461 0.0
C680 C 0.93859 0.15106 0.12943 0.0
C681 C 0.98126 0.17652 0.11403 0.0
C682 C 0.9175 0.15636 0.14101 0.0
C683 C 0.89366 0.15571 0.13227 0.0
C684 C 0.89059 0.14945 0.11191 0.0
C685 C 0.91185 0.14426 0.10043 0.0
C686 C 0.93551 0.14501 0.10911 0.0
H687 H -0.00313 0.18767 0.11458 0.0
H688 H 0.98144 0.16938 0.0987 0.0
H689 H 0.96337 0.18484 0.11599 0.0
H690 H 0.91947 0.16081 0.15682 0.0
H691 H 0.87767 0.15973 0.14153 0.0
H692 H 0.81432 0.93494 0.16809 0.0
H693 H 0.80456 0.97076 0.16298 0.0
H694 H 0.72819 0.95522 0.14931 0.0
H695 H 0.73812 0.91891 0.15383 0.0
H696 H 0.74659 0.97901 0.12077 0.0
H697 H 0.76977 0.01423 0.19428 0.0
H698 H 0.79554 -0.00119 0.18627 0.0
H699 H 0.76581 -0.013 0.19163 0.0
C700 C 0.79529 0.9391 0.1644 0.0
C701 C 0.77702 0.92407 0.16125 0.0
C702 C 0.78966 0.95968 0.16169 0.0
C703 C 0.76552 0.96578 0.15612 0.0
C704 C 0.7469 0.95087 0.15378 0.0
H705 H 0.76309 0.09838 0.13506 0.0
H706 H 0.7497 0.06517 0.14833 0.0
C707 C 0.75258 0.93015 0.15639 0.0
C708 C 0.76103 -0.01263 0.15027 0.0
H709 H 0.77649 0.03588 0.1641 0.0
C710 C 0.75251 -0.0085 0.13045 0.0
C711 C 0.76811 0.00379 0.16297 0.0
C712 C 0.77502 0.00069 0.18505 0.0
C713 C 0.75302 0.01136 0.12244 0.0
C714 C 0.76304 0.02738 0.13433 0.0
C715 C 0.76939 0.02355 0.15475 0.0
C716 C 0.76928 0.04759 0.12542 0.0
C717 C 0.74336 0.01483 0.10112 0.0
C718 C 0.78486 0.04878 0.10822 0.0
C719 C 0.79233 0.06768 0.1005 0.0
C720 C 0.78482 0.08585 0.11007 0.0
C721 C 0.76924 0.08467 0.12734 0.0
C722 C 0.76153 0.06571 0.13492 0.0
H723 H 0.72812 0.00395 0.09749 0.0
H724 H 0.73628 0.03063 0.09906 0.0
H725 H 0.75867 0.01215 0.09002 0.0
H726 H 0.79182 0.03505 0.10102 0.0
H727 H 0.80453 0.06801 0.08731 0.0
H728 H 0.881 0.82686 0.15506 0.0
H729 H 0.92289 0.81167 0.15522 0.0
H730 H 0.95362 0.86821 0.13266 0.0
H731 H 0.91229 0.88348 0.1326 0.0
H732 H 0.95397 0.80656 0.12181 0.0
H733 H 0.00062 0.85446 0.17937 0.0
H734 H 0.96706 0.85298 0.17724 0.0
H735 H 0.98463 0.86989 0.16095 0.0
C736 C 0.89674 0.83611 0.15038 0.0
C737 C 0.89327 0.85639 0.14383 0.0
C738 C 0.92063 0.82742 0.1505 0.0
C739 C 0.94141 0.83895 0.14433 0.0
C740 C 0.93796 0.8592 0.13798 0.0
H741 H 0.07073 0.82289 0.0783 0.0
H742 H 0.02893 0.82356 0.09269 0.0
C743 C 0.91421 0.86784 0.13779 0.0
C744 C 0.96653 0.82966 0.14275 0.0
H745 H 0.02757 0.83969 0.15336 0.0
C746 C 0.97004 0.81344 0.1291 0.0
C747 C 0.98746 0.83833 0.15258 0.0
C748 C 0.98472 0.85473 0.16853 0.0
C749 C -0.00592 0.80693 0.12365 0.0
C750 C 0.01505 0.81714 0.13181 0.0
C751 C 0.0115 0.83206 0.14685 0.0
C752 C 0.04036 0.81459 0.12305 0.0
C753 C -0.00322 0.78968 0.10862 0.0
C754 C 0.06085 0.80963 0.13541 0.0
C755 C 0.08501 0.80937 0.12722 0.0
C756 C 0.08904 0.81434 0.10658 0.0
C757 C 0.06837 0.81897 0.09424 0.0
C758 C 0.04435 0.81916 0.1024 0.0
H759 H 0.98074 0.77899 0.10968 0.0
H760 H -0.0029 0.79601 0.09291 0.0
H761 H 0.01431 0.781 0.11115 0.0
H762 H 0.05818 0.80629 0.15146 0.0
H763 H 0.10053 0.80579 0.13714 0.0
H764 H 0.17085 0.03396 0.18291 0.0
H765 H 0.17538 -0.00239 0.17564 0.0
H766 H 0.23682 0.01082 0.13511 0.0
H767 H 0.23282 0.04722 0.14282 0.0
H768 H 0.16713 -0.01601 0.13779 0.0
H769 H 0.26106 0.95905 0.16287 0.0
H770 H 0.24677 0.98239 0.17172 0.0
H771 H 0.26148 0.98146 0.14707 0.0
C772 C 0.18582 0.02904 0.17294 0.0
C773 C 0.20138 0.04339 0.16333 0.0
C774 C 0.18838 0.00828 0.16878 0.0
C775 C 0.20644 0.00148 0.15484 0.0
C776 C 0.22306 0.01565 0.1462 0.0
H777 H 0.18504 0.89555 0.07819 0.0
H778 H 0.19278 0.92974 0.09156 0.0
C779 C 0.22069 0.03647 0.15056 0.0
C780 C 0.20533 0.9802 0.14724 0.0
H781 H 0.23916 0.93653 0.14048 0.0
C782 C 0.18285 0.97358 0.13853 0.0
C783 C 0.22583 0.96664 0.14823 0.0
C784 C 0.25008 0.97264 0.15815 0.0
C785 C 0.1803 0.95386 0.13066 0.0
C786 C 0.201 0.94049 0.13104 0.0
C787 C 0.22343 0.94693 0.13999 0.0
C788 C 0.19929 0.91964 0.12252 0.0
C789 C 0.1553 0.94741 0.12227 0.0
C790 C 0.2014 0.90259 0.13535 0.0
C791 C 0.19712 0.88298 0.12775 0.0
C792 C 0.19066 0.88012 0.10716 0.0
C793 C 0.18967 0.89721 0.09417 0.0
C794 C 0.19406 0.91677 0.10178 0.0
H795 H 0.13999 0.95744 0.12776 0.0
H796 H 0.1558 0.94835 0.10539 0.0
H797 H 0.15091 0.93142 0.12663 0.0
H798 H 0.2055 0.90451 0.1514 0.0
H799 H 0.19818 0.87016 0.13815 0.0
H800 H 0.90932 0.82778 0.88356 0.0
H801 H 0.95121 0.82878 0.86932 0.0
H802 H 0.92347 0.80609 0.81202 0.0
H803 H 0.88101 0.80528 0.82613 0.0
H804 H 0.98104 0.79783 0.85203 0.0
H805 H 0.95893 0.85991 0.79668 0.0
H806 H 0.93823 0.85346 0.81743 0.0
H807 H 0.94039 0.83706 0.79562 0.0
C808 C 0.91199 0.82292 0.86793 0.0
C809 C 0.8917 0.81663 0.85593 0.0
C810 C 0.93604 0.82341 0.85985 0.0
C811 C 0.94042 0.81768 0.83958 0.0
C812 C 0.92041 0.81083 0.82764 0.0
H813 H 0.10084 0.82511 0.8062 0.0
H814 H 0.05847 0.81083 0.80697 0.0
C815 C 0.89619 0.81032 0.83574 0.0
C816 C 0.96592 0.81994 0.83113 0.0
H817 H 0.00095 0.85117 0.80077 0.0
C818 C 0.98544 0.80916 0.84049 0.0
C819 C 0.9715 0.8348 0.81613 0.0
C820 C 0.95126 0.84712 0.80589 0.0
C821 C 0.0105 0.81375 0.83619 0.0
C822 C 0.01607 0.82933 0.82194 0.0
C823 C -0.00346 0.83919 0.81163 0.0
C824 C 0.04156 0.83784 0.81997 0.0
C825 C 0.03075 0.80294 0.84796 0.0
C826 C 0.04591 0.85784 0.82657 0.0
C827 C 0.06989 0.86601 0.82611 0.0
C828 C 0.09015 0.85437 0.81898 0.0
C829 C 0.08569 0.83444 0.81188 0.0
C830 C 0.06153 0.82623 0.81236 0.0
H831 H 0.0231 0.79309 0.8603 0.0
H832 H 0.0417 0.79318 0.83743 0.0
H833 H 0.04372 0.81419 0.85484 0.0
H834 H 0.03076 0.86704 0.83252 0.0
H835 H 0.07253 0.88144 0.83161 0.0
H836 H 0.24628 0.91455 0.8055 0.0
H837 H 0.25624 0.95069 0.81117 0.0
H838 H 0.17926 0.96655 0.80031 0.0
H839 H 0.16948 0.93098 0.7939 0.0
H840 H 0.2098 -0.00516 0.78479 0.0
H841 H 0.23746 0.97668 0.86463 0.0
H842 H 0.25561 0.96494 0.84483 0.0
H843 H 0.22345 0.95793 0.8482 0.0
C844 C 0.23164 0.92584 0.80394 0.0
C845 C 0.20701 0.91989 0.79958 0.0
C846 C 0.23731 0.94644 0.80734 0.0
C847 C 0.21836 0.96127 0.80668 0.0
C848 C 0.19418 0.95542 0.80102 0.0
H849 H 0.17541 0.06184 0.87481 0.0
H850 H 0.18856 0.02948 0.8601 0.0
C851 C 0.18859 0.935 0.79742 0.0
C852 C 0.22256 -0.0174 0.81339 0.0
H853 H 0.23267 0.01103 0.85613 0.0
C854 C 0.21522 -0.00152 0.80028 0.0
C855 C 0.22956 -0.01275 0.83366 0.0
C856 C 0.23682 0.97086 0.84874 0.0
C857 C 0.21287 0.01862 0.80728 0.0
C858 C 0.21888 0.02312 0.82779 0.0
C859 C 0.22803 0.00751 0.84044 0.0
C860 C 0.21262 0.04305 0.83722 0.0
C861 C 0.20218 0.03451 0.79305 0.0
C862 C 0.22209 0.0615 0.82951 0.0
C863 C 0.21421 0.08014 0.83771 0.0
C864 C 0.19714 0.08059 0.85404 0.0
C865 C 0.18856 0.06206 0.86225 0.0
C866 C 0.19612 0.04351 0.85387 0.0
H867 H 0.1938 0.02758 0.77922 0.0
H868 H 0.18764 0.04372 0.80086 0.0
H869 H 0.21728 0.04496 0.78802 0.0
H870 H 0.23533 0.06151 0.81702 0.0
H871 H 0.2214 0.09417 0.83121 0.0
H872 H 0.06991 0.12633 0.87667 0.0
H873 H 0.02885 0.12706 0.86112 0.0
H874 H 0.05939 0.15633 0.80768 0.0
H875 H 0.10113 0.15552 0.82316 0.0
H876 H 0.00101 0.16147 0.84671 0.0
H877 H 0.02252 0.10482 0.78581 0.0
H878 H 0.04239 0.10783 0.80778 0.0
H879 H 0.04219 0.12696 0.78819 0.0
C880 C 0.06807 0.13296 0.8616 0.0
C881 C 0.08892 0.14077 0.85112 0.0
C882 C 0.04449 0.13344 0.85277 0.0
C883 C 0.0411 0.14166 0.83324 0.0
C884 C 0.0617 0.14975 0.82272 0.0
H885 H 0.88012 0.13806 0.80205 0.0
H886 H 0.92257 0.15223 0.80169 0.0
C887 C 0.08549 0.14931 0.8316 0.0
C888 C 0.01586 0.14099 0.82416 0.0
H889 H 0.9805 0.11279 0.79147 0.0
C890 C -0.00352 0.15125 0.83427 0.0
C891 C 0.01014 0.12761 0.80795 0.0
C892 C 0.03029 0.11605 0.79676 0.0
C893 C 0.97138 0.14732 0.82966 0.0
C894 C 0.96562 0.13293 0.81433 0.0
C895 C 0.98504 0.12384 0.80317 0.0
C896 C 0.94014 0.12443 0.81227 0.0
C897 C 0.95128 0.15729 0.84234 0.0
C898 C 0.93612 0.10401 0.81775 0.0
C899 C 0.91211 0.09591 0.81793 0.0
C900 C 0.89147 0.10804 0.81259 0.0
C901 C 0.89559 0.12835 0.80637 0.0
C902 C 0.91979 0.13648 0.80621 0.0
H903 H 0.95907 0.16625 0.8552 0.0
H904 H 0.94021 0.16777 0.8326 0.0
H905 H 0.93839 0.14559 0.84863 0.0
H906 H 0.95155 0.09444 0.82251 0.0
H907 H 0.90973 0.08017 0.82266 0.0
H908 H 0.78895 0.89396 0.88771 0.0
H909 H 0.7783 0.92822 0.87584 0.0
H910 H 0.77166 0.90575 0.81433 0.0
H911 H 0.78173 0.87134 0.82611 0.0
H912 H 0.80589 0.94987 0.84957 0.0
H913 H 0.71039 0.94176 0.81853 0.0
H914 H 0.72442 0.92278 0.83491 0.0
H915 H 0.73189 0.9235 0.80816 0.0
C916 C 0.78489 0.89623 0.87169 0.0
C917 C 0.78631 0.87991 0.85784 0.0
C918 C 0.77873 0.91582 0.86495 0.0
C919 C 0.77386 0.91951 0.84424 0.0
C920 C 0.77472 0.90318 0.83045 0.0
H921 H 0.80306 0.03217 0.78255 0.0
H922 H 0.79801 -0.00372 0.79183 0.0
C923 C 0.78072 0.88354 0.8372 0.0
C924 C 0.77062 0.94073 0.83683 0.0
H925 H 0.73274 0.97208 0.80889 0.0
C926 C 0.78976 0.95474 0.84086 0.0
C927 C 0.74949 0.94713 0.82557 0.0
C928 C 0.72775 0.93306 0.8217 0.0
C929 C 0.78869 0.97479 0.83353 0.0
C930 C 0.76817 0.98092 0.82147 0.0
C931 C 0.74861 0.96718 0.81789 0.0
C932 C 0.76721 0.00161 0.81249 0.0
C933 C 0.8096 -0.01069 0.83876 0.0
C934 C 0.75052 0.01623 0.82012 0.0
C935 C 0.75322 0.0368 0.81469 0.0
C936 C 0.77276 0.0429 0.80169 0.0
C937 C 0.788 0.02792 0.79276 0.0
C938 C 0.78518 0.00743 0.79805 0.0
H939 H 0.82074 -0.01623 0.85193 0.0
H940 H 0.8223 -0.00923 0.82545 0.0
H941 H 0.80221 0.00471 0.8424 0.0
H942 H 0.73649 0.01195 0.83125 0.0
H943 H 0.74119 0.04801 0.82181 0.0
H944 H 0.73781 0.64282 0.41484 0.0
H945 H 0.74252 0.63316 0.45081 0.0
H946 H 0.67898 0.67038 0.46643 0.0
H947 H 0.67392 0.67984 0.43063 0.0
H948 H 0.74535 0.65522 0.49038 0.0
H949 H 0.65882 0.61 0.47937 0.0
H950 H 0.67672 0.62011 0.45832 0.0
H951 H 0.65607 0.63645 0.47246 0.0
C952 C 0.72529 0.64938 0.42603 0.0
C953 C 0.70526 0.66183 0.41993 0.0
C954 C 0.72799 0.64383 0.44654 0.0
C955 C 0.7108 0.65078 0.46112 0.0
C956 C 0.6922 0.66464 0.4553 0.0
H957 H 0.69782 0.63756 0.59146 0.0
H958 H 0.70725 0.64935 0.55693 0.0
C959 C 0.68937 0.67005 0.43487 0.0
C960 C 0.71026 0.64182 0.48182 0.0
H961 H 0.67358 0.61308 0.51322 0.0
C962 C 0.72979 0.64589 0.49541 0.0
C963 C 0.69015 0.62933 0.48812 0.0
C964 C 0.66934 0.62351 0.47378 0.0
C965 C 0.72926 0.63832 0.51549 0.0
C966 C 0.7085 0.62665 0.52208 0.0
C967 C 0.68941 0.62211 0.50822 0.0
C968 C 0.70562 0.6193 0.54335 0.0
C969 C 0.75098 0.64273 0.52938 0.0
C970 C 0.70128 0.59851 0.54719 0.0
C971 C 0.69547 0.59176 0.56684 0.0
C972 C 0.6939 0.60568 0.58308 0.0
C973 C 0.69897 0.62642 0.57931 0.0
C974 C 0.7046 0.63318 0.5596 0.0
H975 H 0.7682 0.64615 0.52056 0.0
H976 H 0.74656 0.65629 0.53882 0.0
H977 H 0.75473 0.62967 0.53975 0.0
H978 H 0.70184 0.58755 0.53485 0.0
H979 H 0.69181 0.57567 0.56921 0.0
H980 H 0.31222 0.67143 0.53125 0.0
H981 H 0.30307 0.66581 0.4955 0.0
H982 H 0.22737 0.64936 0.51086 0.0
H983 H 0.23673 0.6544 0.54712 0.0
H984 H 0.2476 0.62123 0.48774 0.0
H985 H 0.26719 0.69509 0.45128 0.0
H986 H 0.29321 0.6883 0.46695 0.0
H987 H 0.26309 0.69269 0.47852 0.0
C988 C 0.29344 0.66704 0.52706 0.0
C989 C 0.27524 0.66322 0.54204 0.0
C990 C 0.28814 0.66403 0.50651 0.0
C991 C 0.26441 0.65748 0.50038 0.0
C992 C 0.24577 0.65457 0.51522 0.0
H993 H 0.26422 0.63465 0.36837 0.0
H994 H 0.25016 0.64786 0.40133 0.0
C995 C 0.25112 0.65749 0.53592 0.0
C996 C 0.26051 0.65115 0.47891 0.0
H997 H 0.27586 0.66485 0.43029 0.0
C998 C 0.25316 0.63094 0.47512 0.0
C999 C 0.26713 0.66388 0.4623 0.0
C1000 C 0.2728 0.68626 0.46501 0.0
C1001 C 0.25436 0.62265 0.45544 0.0
C1002 C 0.26392 0.6347 0.43927 0.0
C1003 C 0.26913 0.65541 0.44274 0.0
C1004 C 0.27071 0.62576 0.41923 0.0
C1005 C 0.24588 0.60093 0.45233 0.0
C1006 C 0.28707 0.60903 0.4183 0.0
C1007 C 0.29492 0.60133 0.39953 0.0
C1008 C 0.28702 0.61047 0.38126 0.0
C1009 C 0.2707 0.62728 0.38218 0.0
C1010 C 0.2626 0.63483 0.401 0.0
H1011 H 0.23076 0.59687 0.46322 0.0
H1012 H 0.23905 0.59839 0.43657 0.0
H1013 H 0.26174 0.59044 0.45525 0.0
H1014 H 0.29431 0.6022 0.43213 0.0
H1015 H 0.30769 0.58851 0.39938 0.0
H1016 H 0.31191 0.29232 0.43541 0.0
H1017 H 0.30171 0.29802 0.471 0.0
H1018 H 0.22552 0.31156 0.45468 0.0
H1019 H 0.23592 0.30649 0.41859 0.0
H1020 H 0.24334 0.34044 0.4779 0.0
H1021 H 0.26665 0.26764 0.51495 0.0
H1022 H 0.29262 0.2754 0.49959 0.0
H1023 H 0.2631 0.26975 0.48766 0.0
C1024 C 0.29283 0.2961 0.43935 0.0
C1025 C 0.27476 0.29908 0.42415 0.0
C1026 C 0.28694 0.29915 0.45981 0.0
C1027 C 0.26273 0.30488 0.46563 0.0
C1028 C 0.24429 0.30699 0.45057 0.0
H1029 H 0.25977 0.32805 0.59751 0.0
H1030 H 0.2464 0.31429 0.56463 0.0
C1031 C 0.25024 0.30406 0.42997 0.0
C1032 C 0.25797 0.31114 0.48702 0.0
H1033 H 0.27313 0.29831 0.53585 0.0
C1034 C 0.24924 0.33102 0.49063 0.0
C1035 C 0.26499 0.29877 0.50377 0.0
C1036 C 0.27206 0.27663 0.50125 0.0
C1037 C 0.24948 0.33943 0.51028 0.0
C1038 C 0.25948 0.32789 0.5266 0.0
C1039 C 0.26605 0.30741 0.5233 0.0
C1040 C 0.26548 0.33722 0.54661 0.0
C1041 C 0.23952 0.36077 0.51319 0.0
C1042 C 0.28071 0.35464 0.54746 0.0
C1043 C 0.28813 0.36265 0.56618 0.0
C1044 C 0.28095 0.35314 0.5845 0.0
C1045 C 0.26567 0.33571 0.58367 0.0
C1046 C 0.25797 0.32785 0.56489 0.0
H1047 H 0.22423 0.36404 0.50224 0.0
H1048 H 0.23239 0.36314 0.52891 0.0
H1049 H 0.25466 0.37193 0.51018 0.0
H1050 H 0.28751 0.36175 0.5336 0.0
H1051 H 0.3001 0.37597 0.56627 0.0
H1052 H 0.69453 0.3885 0.39467 0.0
H1053 H 0.70516 0.37562 0.42849 0.0
H1054 H 0.7087 0.31433 0.40477 0.0
H1055 H 0.69872 0.32716 0.37072 0.0
H1056 H 0.67592 0.35024 0.44932 0.0
H1057 H 0.76946 0.31512 0.44132 0.0
H1058 H 0.75669 0.33235 0.4225 0.0
H1059 H 0.7475 0.30594 0.42288 0.0
C1060 C 0.69798 0.37232 0.39655 0.0
C1061 C 0.69561 0.35884 0.38002 0.0
C1062 C 0.70414 0.36499 0.41589 0.0
C1063 C 0.70797 0.34404 0.41915 0.0
C1064 C 0.70642 0.33061 0.40255 0.0
H1065 H 0.67389 0.28382 0.53189 0.0
H1066 H 0.6799 0.29218 0.49589 0.0
C1067 C 0.70049 0.33796 0.38312 0.0
C1068 C 0.71048 0.33611 0.44023 0.0
H1069 H 0.74633 0.30634 0.4715 0.0
C1070 C 0.69145 0.3408 0.45417 0.0
C1071 C 0.73082 0.32387 0.4466 0.0
C1072 C 0.75241 0.31918 0.4326 0.0
C1073 C 0.69191 0.33332 0.47416 0.0
C1074 C 0.71164 0.32037 0.48028 0.0
C1075 C 0.73105 0.31602 0.46659 0.0
C1076 C 0.71201 0.31147 0.50101 0.0
C1077 C 0.67124 0.33941 0.48862 0.0
C1078 C 0.72908 0.31853 0.51556 0.0
C1079 C 0.72583 0.31361 0.53617 0.0
C1080 C 0.70534 0.3017 0.5424 0.0
C1081 C 0.68967 0.2932 0.52753 0.0
C1082 C 0.69307 0.29796 0.50698 0.0
H1083 H 0.66094 0.35305 0.48309 0.0
H1084 H 0.65775 0.32664 0.49003 0.0
H1085 H 0.67875 0.34272 0.50403 0.0
H1086 H 0.74385 0.32895 0.51117 0.0
H1087 H 0.73821 0.32037 0.54731 0.0
H1088 H 0.57181 0.57923 0.63623 0.0
H1089 H 0.52993 0.59345 0.63521 0.0
H1090 H 0.55776 0.651 0.6574 0.0
H1091 H 0.6002 0.63691 0.65822 0.0
H1092 H 0.49992 0.61104 0.66576 0.0
H1093 H 0.52284 0.66595 0.60344 0.0
H1094 H 0.54343 0.64524 0.61018 0.0
H1095 H 0.54113 0.66722 0.62636 0.0
C1096 C 0.56915 0.59491 0.641 0.0
C1097 C 0.58947 0.607 0.64712 0.0
C1098 C 0.54512 0.60298 0.64049 0.0
C1099 C 0.54078 0.62332 0.64604 0.0
C1100 C 0.5608 0.63533 0.6528 0.0
H1101 H 0.38057 0.65679 0.63737 0.0
H1102 H 0.42275 0.6561 0.65194 0.0
C1103 C 0.585 0.62724 0.65331 0.0
C1104 C 0.51533 0.63179 0.64361 0.0
H1105 H 0.48073 0.66196 0.61199 0.0
C1106 C 0.49567 0.62251 0.65434 0.0
C1107 C 0.50996 0.6467 0.62862 0.0
C1108 C 0.53035 0.65685 0.61635 0.0
C1109 C 0.47068 0.62679 0.64958 0.0
C1110 C 0.46532 0.64093 0.63387 0.0
C1111 C 0.48498 0.65118 0.62407 0.0
C1112 C 0.43995 0.64283 0.62519 0.0
C1113 C 0.45027 0.61509 0.66034 0.0
C1114 C 0.43582 0.63605 0.60523 0.0
C1115 C 0.41195 0.63646 0.5969 0.0
C1116 C 0.39158 0.64373 0.60832 0.0
C1117 C 0.39582 0.651 0.62821 0.0
C1118 C 0.41986 0.65056 0.63657 0.0
H1119 H 0.45777 0.60283 0.67033 0.0
H1120 H 0.43921 0.62571 0.66991 0.0
H1121 H 0.43744 0.6081 0.64907 0.0
H1122 H 0.45106 0.63 0.5962 0.0
H1123 H 0.40948 0.63082 0.58152 0.0
H1124 H 0.27735 0.59319 0.63803 0.0
H1125 H 0.26831 0.55927 0.65188 0.0
H1126 H 0.28147 0.53272 0.59275 0.0
H1127 H 0.29087 0.56644 0.57878 0.0
H1128 H 0.23396 0.52683 0.6407 0.0
H1129 H 0.33374 0.50604 0.63087 0.0
H1130 H 0.3228 0.53204 0.62924 0.0
H1131 H 0.31884 0.515 0.60804 0.0
C1132 C 0.27805 0.58018 0.62789 0.0
C1133 C 0.28523 0.5825 0.60735 0.0
C1134 C 0.27278 0.56083 0.63584 0.0
C1135 C 0.27459 0.54352 0.62339 0.0
C1136 C 0.28034 0.5459 0.60265 0.0
H1137 H 0.24114 0.41625 0.64272 0.0
H1138 H 0.23668 0.4528 0.63582 0.0
C1139 C 0.28571 0.56519 0.59471 0.0
C1140 C 0.27254 0.52286 0.63236 0.0
H1141 H 0.30625 0.47955 0.64056 0.0
C1142 C 0.24974 0.51646 0.6408 0.0
C1143 C 0.29331 0.50958 0.63276 0.0
C1144 C 0.31863 0.51602 0.62493 0.0
C1145 C 0.24703 0.49681 0.6492 0.0
C1146 C 0.26761 0.48328 0.64891 0.0
C1147 C 0.29047 0.48992 0.64079 0.0
C1148 C 0.26617 0.46195 0.65639 0.0
C1149 C 0.22234 0.49078 0.65847 0.0
C1150 C 0.28379 0.45497 0.67059 0.0
C1151 C 0.28665 0.43413 0.67425 0.0
C1152 C 0.27179 0.41989 0.66392 0.0
C1153 C 0.25271 0.42693 0.65102 0.0
C1154 C 0.25008 0.44783 0.64713 0.0
H1155 H 0.21123 0.50438 0.66294 0.0
H1156 H 0.2114 0.4821 0.64706 0.0
H1157 H 0.22501 0.48092 0.67208 0.0
H1158 H 0.29638 0.4656 0.67793 0.0
H1159 H 0.30142 0.4291 0.68433 0.0
H1160 H 0.5981 0.30837 0.63687 0.0
H1161 H 0.55555 0.30804 0.65081 0.0
H1162 H 0.52725 0.32993 0.59328 0.0
H1163 H 0.56926 0.33016 0.57925 0.0
H1164 H 0.52374 0.34119 0.65469 0.0
H1165 H 0.48036 0.28261 0.60587 0.0
H1166 H 0.51378 0.2852 0.60836 0.0
H1167 H 0.49676 0.30123 0.5909 0.0
C1168 C 0.58277 0.3129 0.62715 0.0
C1169 C 0.58712 0.31927 0.60694 0.0
C1170 C 0.55849 0.31268 0.63512 0.0
C1171 C 0.5382 0.31856 0.62294 0.0
C1172 C 0.54253 0.32481 0.60279 0.0
H1173 H 0.40665 0.38248 0.63542 0.0
H1174 H 0.44866 0.36857 0.63484 0.0
C1175 C 0.56667 0.32511 0.59485 0.0
C1176 C 0.51262 0.31988 0.63144 0.0
H1177 H 0.45225 0.3081 0.62 0.0
C1178 C 0.50814 0.33357 0.64746 0.0
C1179 C 0.49229 0.30964 0.6223 0.0
C1180 C 0.49606 0.29368 0.60605 0.0
C1181 C 0.48372 0.33862 0.65333 0.0
C1182 C 0.46338 0.32998 0.6427 0.0
C1183 C 0.46787 0.31494 0.62795 0.0
C1184 C 0.43779 0.3383 0.64466 0.0
C1185 C 0.47995 0.35379 0.67033 0.0
C1186 C 0.41754 0.32577 0.65 0.0
C1187 C 0.39323 0.33369 0.65027 0.0
C1188 C 0.38884 0.3542 0.6449 0.0
C1189 C 0.40927 0.36663 0.63966 0.0
C1190 C 0.43341 0.35876 0.6395 0.0
H1191 H 0.49576 0.35339 0.68125 0.0
H1192 H 0.47902 0.36941 0.66379 0.0
H1193 H 0.46234 0.35078 0.67877 0.0
H1194 H 0.42053 0.30985 0.65378 0.0
H1195 H 0.3779 0.3237 0.6543 0.0
H1196 H 0.74054 0.54881 0.64195 0.0
H1197 H 0.74553 0.51269 0.63298 0.0
H1198 H 0.68451 0.497 0.67295 0.0
H1199 H 0.67919 0.53294 0.68178 0.0
H1200 H 0.74886 0.47224 0.6563 0.0
H1201 H 0.66191 0.48538 0.61211 0.0
H1202 H 0.68096 0.50602 0.62151 0.0
H1203 H 0.66037 0.49259 0.63851 0.0
C1204 C 0.72874 0.53758 0.64933 0.0
C1205 C 0.70922 0.54368 0.66232 0.0
C1206 C 0.73161 0.51698 0.64418 0.0
C1207 C 0.71512 0.50233 0.65209 0.0
C1208 C 0.69724 0.50817 0.66657 0.0
H1209 H 0.69781 0.37229 0.63788 0.0
H1210 H 0.70861 0.40639 0.65003 0.0
C1211 C 0.69425 0.52869 0.6716 0.0
C1212 C 0.71396 0.48168 0.64314 0.0
H1213 H 0.67622 0.45136 0.61444 0.0
C1214 C 0.7331 0.46762 0.64705 0.0
C1215 C 0.69359 0.47593 0.63077 0.0
C1216 C 0.67311 0.49078 0.62528 0.0
C1217 C 0.73195 0.44761 0.63936 0.0
C1218 C 0.71096 0.44161 0.62774 0.0
C1219 C 0.69224 0.45593 0.62342 0.0
C1220 C 0.70745 0.4205 0.62017 0.0
C1221 C 0.75324 0.43318 0.64359 0.0
C1222 C 0.70298 0.4171 0.59938 0.0
C1223 C 0.69639 0.39771 0.59243 0.0
C1224 C 0.69416 0.3813 0.60615 0.0
C1225 C 0.69944 0.38459 0.6269 0.0
C1226 C 0.70585 0.40405 0.63386 0.0
H1227 H 0.77071 0.44158 0.64712 0.0
H1228 H 0.74851 0.42359 0.65701 0.0
H1229 H 0.75671 0.42295 0.63041 0.0
H1230 H 0.704 0.4296 0.58856 0.0
H1231 H 0.69262 0.3957 0.57634 0.0
H1232 H 0.38058 0.30616 0.32805 0.0
H1233 H 0.4228 0.30621 0.31343 0.0
H1234 H 0.45268 0.32496 0.37144 0.0
H1235 H 0.41103 0.32479 0.38612 0.0
H1236 H 0.45387 0.33956 0.31049 0.0
H1237 H 0.50015 0.27935 0.35553 0.0
H1238 H 0.4666 0.28156 0.35399 0.0
H1239 H 0.48393 0.2968 0.37188 0.0
C1240 C 0.39621 0.31 0.33774 0.0
C1241 C 0.3924 0.3155 0.35825 0.0
C1242 C 0.42029 0.31 0.32937 0.0
C1243 C 0.44092 0.3152 0.34146 0.0
C1244 C 0.43714 0.32037 0.36196 0.0
H1245 H 0.56916 0.38311 0.33069 0.0
H1246 H 0.52784 0.36786 0.33102 0.0
C1247 C 0.41321 0.32046 0.37028 0.0
C1248 C 0.4662 0.31732 0.33252 0.0
H1249 H 0.52719 0.3065 0.34273 0.0
C1250 C 0.46987 0.33193 0.31714 0.0
C1251 C 0.48708 0.30709 0.34089 0.0
C1252 C 0.48421 0.29016 0.35633 0.0
C1253 C 0.49397 0.33794 0.31129 0.0
C1254 C 0.51482 0.32932 0.32132 0.0
C1255 C 0.51118 0.31335 0.33529 0.0
C1256 C 0.53998 0.33851 0.31963 0.0
C1257 C 0.49686 0.35408 0.29503 0.0
C1258 C 0.56071 0.32691 0.31353 0.0
C1259 C 0.58461 0.33561 0.31341 0.0
C1260 C 0.58811 0.35594 0.31967 0.0
C1261 C 0.56721 0.36743 0.32573 0.0
C1262 C 0.54347 0.35879 0.32575 0.0
H1263 H 0.48094 0.35378 0.28421 0.0
H1264 H 0.49715 0.36935 0.30231 0.0
H1265 H 0.51449 0.35206 0.28634 0.0
H1266 H 0.55841 0.31114 0.30899 0.0
H1267 H 0.60032 0.32633 0.30872 0.0
H1268 H 0.66434 0.4349 0.29256 0.0
H1269 H 0.67298 0.47085 0.29796 0.0
H1270 H 0.74989 0.45672 0.31124 0.0
H1271 H 0.7411 0.42029 0.30641 0.0
H1272 H 0.73065 0.47947 0.34023 0.0
H1273 H 0.70634 0.51562 0.2672 0.0
H1274 H 0.68109 0.49956 0.27513 0.0
H1275 H 0.71112 0.48843 0.26948 0.0
C1276 C 0.68325 0.43941 0.2962 0.0
C1277 C 0.702 0.42472 0.29918 0.0
C1278 C 0.68823 0.46007 0.29909 0.0
C1279 C 0.71218 0.46659 0.30469 0.0
C1280 C 0.7313 0.45205 0.30677 0.0
H1281 H 0.71413 0.59884 0.32716 0.0
H1282 H 0.72695 0.56572 0.31349 0.0
C1283 C 0.72627 0.43126 0.30398 0.0
C1284 C 0.71602 0.48814 0.31085 0.0
H1285 H 0.69967 0.53669 0.29761 0.0
C1286 C 0.72446 0.49205 0.33071 0.0
C1287 C 0.70853 0.50467 0.29836 0.0
C1288 C 0.70156 0.50183 0.27628 0.0
C1289 C 0.72364 0.51177 0.33896 0.0
C1290 C 0.71339 0.52787 0.32723 0.0
C1291 C 0.70696 0.52428 0.30681 0.0
C1292 C 0.70725 0.548 0.33629 0.0
C1293 C 0.73329 0.51502 0.3603 0.0
C1294 C 0.69177 0.54908 0.35356 0.0
C1295 C 0.68461 0.56794 0.3615 0.0
C1296 C 0.69236 0.58617 0.3521 0.0
C1297 C 0.7078 0.58509 0.33475 0.0
C1298 C 0.71518 0.56617 0.32693 0.0
H1299 H 0.74851 0.50407 0.36389 0.0
H1300 H 0.7404 0.53078 0.36243 0.0
H1301 H 0.71796 0.51227 0.37137 0.0
H1302 H 0.6847 0.53531 0.36066 0.0
H1303 H 0.67252 0.56821 0.37475 0.0
H1304 H 0.60089 0.66109 0.32218 0.0
H1305 H 0.55883 0.66199 0.30735 0.0
H1306 H 0.52764 0.64405 0.36535 0.0
H1307 H 0.56907 0.64331 0.38021 0.0
H1308 H 0.52688 0.62938 0.30438 0.0
H1309 H 0.48143 0.69018 0.34894 0.0
H1310 H 0.51495 0.68751 0.34757 0.0
H1311 H 0.49708 0.67266 0.36559 0.0
C1312 C 0.585 0.65766 0.33182 0.0
C1313 C 0.58836 0.65208 0.35237 0.0
C1314 C 0.56101 0.65821 0.32334 0.0
C1315 C 0.54007 0.65349 0.33536 0.0
C1316 C 0.54343 0.6483 0.35592 0.0
H1317 H 0.41278 0.58565 0.32706 0.0
H1318 H 0.45391 0.60113 0.32578 0.0
C1319 C 0.56724 0.64766 0.36434 0.0
C1320 C 0.51483 0.65175 0.32634 0.0
H1321 H 0.45401 0.66283 0.337 0.0
C1322 C 0.51097 0.63712 0.31108 0.0
C1323 C 0.49408 0.66214 0.33472 0.0
C1324 C 0.49714 0.67917 0.34995 0.0
C1325 C 0.4868 0.63116 0.30551 0.0
C1326 C 0.46608 0.63982 0.31572 0.0
C1327 C 0.4699 0.65592 0.32943 0.0
C1328 C 0.44097 0.63042 0.31472 0.0
C1329 C 0.48371 0.61497 0.2894 0.0
C1330 C 0.41984 0.64188 0.30933 0.0
C1331 C 0.39603 0.63305 0.31016 0.0
C1332 C 0.39303 0.61271 0.31669 0.0
C1333 C 0.41433 0.60133 0.32194 0.0
C1334 C 0.43797 0.6101 0.32102 0.0
H1335 H 0.49929 0.61549 0.27821 0.0
H1336 H 0.48399 0.5997 0.29676 0.0
H1337 H 0.46579 0.61674 0.28112 0.0
H1338 H 0.42175 0.65768 0.30468 0.0
H1339 H 0.38001 0.64224 0.30608 0.0
H1340 H 0.28104 0.36938 0.32761 0.0
H1341 H 0.27317 0.40359 0.31396 0.0
H1342 H 0.28636 0.42943 0.37336 0.0
H1343 H 0.29459 0.39543 0.38711 0.0
H1344 H 0.23942 0.43616 0.32514 0.0
H1345 H 0.33916 0.45622 0.33593 0.0
H1346 H 0.32796 0.43028 0.33731 0.0
H1347 H 0.32389 0.44719 0.35862 0.0
C1348 C 0.28203 0.38231 0.33783 0.0
C1349 C 0.28882 0.37969 0.3584 0.0
C1350 C 0.27744 0.40183 0.33 0.0
C1351 C 0.27957 0.419 0.34259 0.0
C1352 C 0.28503 0.41635 0.36333 0.0
H1353 H 0.24652 0.54668 0.32413 0.0
H1354 H 0.24236 0.51011 0.33105 0.0
C1355 C 0.28972 0.3969 0.37115 0.0
C1356 C 0.27788 0.43979 0.33384 0.0
H1357 H 0.31199 0.48309 0.32661 0.0
C1358 C 0.25527 0.44644 0.32532 0.0
C1359 C 0.29873 0.45299 0.33382 0.0
C1360 C 0.32389 0.4463 0.34172 0.0
C1361 C 0.25282 0.46624 0.31722 0.0
C1362 C 0.27346 0.47968 0.31792 0.0
C1363 C 0.29615 0.4728 0.32609 0.0
C1364 C 0.27227 0.50112 0.31071 0.0
C1365 C 0.22833 0.4725 0.30783 0.0
C1366 C 0.29011 0.50821 0.29669 0.0
C1367 C 0.29279 0.52907 0.29301 0.0
C1368 C 0.27754 0.54323 0.30316 0.0
C1369 C 0.2584 0.53608 0.31598 0.0
C1370 C 0.25593 0.51516 0.31989 0.0
H1371 H 0.21725 0.45902 0.30303 0.0
H1372 H 0.21721 0.48104 0.31927 0.0
H1373 H 0.2313 0.48257 0.2944 0.0
H1374 H 0.30289 0.49766 0.28943 0.0
H1375 H 0.30762 0.53417 0.28298 0.0
loop_
_geom_bond_atom_site_label_1
_geom_bond_atom_site_label_2
_geom_bond_distance
_geom_bond_site_symmetry_2
_ccdc_geom_bond_type
C0 O1 1.306 . S
C0 O3 1.160 . S
O1 C0 1.306 . S
O1 Cd2 2.228 . S
Cd2 O1 2.228 . S
Cd2 O6 2.273 . S
Cd2 O10 2.277 . S
O3 C0 1.160 . S
O3 Cd4 2.203 . S
Cd4 O3 2.203 . S
Cd4 O6 2.411 . S
Cd4 O7 2.333 . S
Cd4 O8 2.352 . S
Cd4 O12 2.277 . S
Cd4 O13 2.356 . S
C5 O10 1.209 . S
C5 O12 1.226 . S
O6 Cd2 2.273 . S
O6 Cd4 2.411 . S
O6 C9 1.320 . S
O7 Cd4 2.333 . S
O7 C9 1.214 . S
O8 Cd4 2.352 . S
O8 C11 1.258 . S
C9 O6 1.320 . S
C9 O7 1.214 . S
O10 Cd2 2.277 . S
O10 C5 1.209 . S
C11 O8 1.258 . S
C11 O13 1.282 . S
O12 Cd4 2.277 . S
O12 C5 1.226 . S
O13 Cd4 2.356 . S
O13 C11 1.282 . S
C14 O15 1.306 . S
C14 O17 1.160 . S
O15 C14 1.306 . S
O15 Cd16 2.228 . S
Cd16 O15 2.228 . S
Cd16 O20 2.273 . S
Cd16 O24 2.277 . S
O17 C14 1.160 . S
O17 Cd18 2.203 . S
Cd18 O17 2.203 . S
Cd18 O20 2.411 . S
Cd18 O21 2.333 . S
Cd18 O22 2.352 . S
Cd18 O26 2.277 . S
Cd18 O27 2.356 . S
C19 O24 1.209 . S
C19 O26 1.226 . S
O20 Cd16 2.273 . S
O20 Cd18 2.411 . S
O20 C23 1.320 . S
O21 Cd18 2.333 . S
O21 C23 1.214 . S
O22 Cd18 2.352 . S
O22 C25 1.258 . S
C23 O20 1.320 . S
C23 O21 1.214 . S
O24 Cd16 2.277 . S
O24 C19 1.209 . S
C25 O22 1.258 . S
C25 O27 1.282 . S
O26 Cd18 2.277 . S
O26 C19 1.226 . S
O27 Cd18 2.356 . S
O27 C25 1.282 . S
C28 O29 1.306 . S
C28 O31 1.160 . S
O29 C28 1.306 . S
O29 Cd30 2.228 . S
Cd30 O29 2.228 . S
Cd30 O34 2.273 . S
Cd30 O38 2.277 . S
O31 C28 1.160 . S
O31 Cd32 2.203 . S
Cd32 O31 2.203 . S
Cd32 O34 2.411 . S
Cd32 O35 2.333 . S
Cd32 O36 2.352 . S
Cd32 O40 2.277 . S
Cd32 O41 2.356 . S
C33 O38 1.209 . S
C33 O40 1.226 . S
O34 Cd30 2.273 . S
O34 Cd32 2.411 . S
O34 C37 1.320 . S
O35 Cd32 2.333 . S
O35 C37 1.214 . S
O36 Cd32 2.352 . S
O36 C39 1.258 . S
C37 O34 1.320 . S
C37 O35 1.214 . S
O38 Cd30 2.277 . S
O38 C33 1.209 . S
C39 O36 1.258 . S
C39 O41 1.282 . S
O40 Cd32 2.277 . S
O40 C33 1.226 . S
O41 Cd32 2.356 . S
O41 C39 1.282 . S
C42 O43 1.306 . S
C42 O45 1.160 . S
O43 C42 1.306 . S
O43 Cd44 2.228 . S
Cd44 O43 2.228 . S
Cd44 O48 2.273 . S
Cd44 O52 2.277 . S
O45 C42 1.160 . S
O45 Cd46 2.203 . S
Cd46 O45 2.203 . S
Cd46 O48 2.411 . S
Cd46 O49 2.333 . S
Cd46 O50 2.352 . S
Cd46 O54 2.277 . S
Cd46 O55 2.356 . S
C47 O52 1.209 . S
C47 O54 1.226 . S
O48 Cd44 2.273 . S
O48 Cd46 2.411 . S
O48 C51 1.320 . S
O49 Cd46 2.333 . S
O49 C51 1.214 . S
O50 Cd46 2.352 . S
O50 C53 1.258 . S
C51 O48 1.320 . S
C51 O49 1.214 . S
O52 Cd44 2.277 . S
O52 C47 1.209 . S
C53 O50 1.258 . S
C53 O55 1.282 . S
O54 Cd46 2.277 . S
O54 C47 1.226 . S
O55 Cd46 2.356 . S
O55 C53 1.282 . S
C56 O57 1.306 . S
C56 O59 1.160 . S
O57 C56 1.306 . S
O57 Cd58 2.228 . S
Cd58 O57 2.228 . S
Cd58 O62 2.273 . S
Cd58 O66 2.277 . S
O59 C56 1.160 . S
O59 Cd60 2.203 . S
Cd60 O59 2.203 . S
Cd60 O62 2.411 . S
Cd60 O63 2.333 . S
Cd60 O64 2.352 . S
Cd60 O68 2.277 . S
Cd60 O69 2.356 . S
C61 O66 1.209 . S
C61 O68 1.226 . S
O62 Cd58 2.273 . S
O62 Cd60 2.411 . S
O62 C65 1.320 . S
O63 Cd60 2.333 . S
O63 C65 1.214 . S
O64 Cd60 2.352 . S
O64 C67 1.258 . S
C65 O62 1.320 . S
C65 O63 1.214 . S
O66 Cd58 2.277 . S
O66 C61 1.209 . S
C67 O64 1.258 . S
C67 O69 1.282 . S
O68 Cd60 2.277 . S
O68 C61 1.226 . S
O69 Cd60 2.356 . S
O69 C67 1.282 . S
C70 O71 1.306 . S
C70 O73 1.160 . S
O71 C70 1.306 . S
O71 Cd72 2.228 . S
Cd72 O71 2.228 . S
Cd72 O76 2.273 . S
Cd72 O80 2.277 . S
O73 C70 1.160 . S
O73 Cd74 2.203 . S
Cd74 O73 2.203 . S
Cd74 O76 2.411 . S
Cd74 O77 2.333 . S
Cd74 O78 2.352 . S
Cd74 O82 2.277 . S
Cd74 O83 2.356 . S
C75 O80 1.209 . S
C75 O82 1.226 . S
O76 Cd72 2.273 . S
O76 Cd74 2.411 . S
O76 C79 1.320 . S
O77 Cd74 2.333 . S
O77 C79 1.214 . S
O78 Cd74 2.352 . S
O78 C81 1.258 . S
C79 O76 1.320 . S
C79 O77 1.214 . S
O80 Cd72 2.277 . S
O80 C75 1.209 . S
C81 O78 1.258 . S
C81 O83 1.282 . S
O82 Cd74 2.277 . S
O82 C75 1.226 . S
O83 Cd74 2.356 . S
O83 C81 1.282 . S
C84 O85 1.306 . S
C84 O87 1.160 . S
O85 C84 1.306 . S
O85 Cd86 2.228 . S
Cd86 O85 2.228 . S
Cd86 O90 2.273 . S
Cd86 O94 2.277 . S
O87 C84 1.160 . S
O87 Cd88 2.203 . S
Cd88 O87 2.203 . S
Cd88 O90 2.411 . S
Cd88 O91 2.333 . S
Cd88 O92 2.352 . S
Cd88 O96 2.277 . S
Cd88 O97 2.356 . S
C89 O94 1.209 . S
C89 O96 1.226 . S
O90 Cd86 2.273 . S
O90 Cd88 2.411 . S
O90 C93 1.320 . S
O91 Cd88 2.333 . S
O91 C93 1.214 . S
O92 Cd88 2.352 . S
O92 C95 1.258 . S
C93 O90 1.320 . S
C93 O91 1.214 . S
O94 Cd86 2.277 . S
O94 C89 1.209 . S
C95 O92 1.258 . S
C95 O97 1.282 . S
O96 Cd88 2.277 . S
O96 C89 1.226 . S
O97 Cd88 2.356 . S
O97 C95 1.282 . S
C98 O99 1.306 . S
C98 O101 1.160 . S
O99 C98 1.306 . S
O99 Cd100 2.228 . S
Cd100 O99 2.228 . S
Cd100 O104 2.273 . S
Cd100 O108 2.277 . S
O101 C98 1.160 . S
O101 Cd102 2.203 . S
Cd102 O101 2.203 . S
Cd102 O104 2.411 . S
Cd102 O105 2.333 . S
Cd102 O106 2.352 . S
Cd102 O110 2.277 . S
Cd102 O111 2.356 . S
C103 O108 1.209 . S
C103 O110 1.226 . S
O104 Cd100 2.273 . S
O104 Cd102 2.411 . S
O104 C107 1.320 . S
O105 Cd102 2.333 . S
O105 C107 1.214 . S
O106 Cd102 2.352 . S
O106 C109 1.258 . S
C107 O104 1.320 . S
C107 O105 1.214 . S
O108 Cd100 2.277 . S
O108 C103 1.209 . S
C109 O106 1.258 . S
C109 O111 1.282 . S
O110 Cd102 2.277 . S
O110 C103 1.226 . S
O111 Cd102 2.356 . S
O111 C109 1.282 . S
C112 O113 1.306 . S
C112 O115 1.160 . S
O113 C112 1.306 . S
O113 Cd114 2.228 . S
Cd114 O113 2.228 . S
Cd114 O118 2.273 . S
Cd114 O122 2.277 . S
O115 C112 1.160 . S
O115 Cd116 2.203 . S
Cd116 O115 2.203 . S
Cd116 O118 2.411 . S
Cd116 O119 2.333 . S
Cd116 O120 2.352 . S
Cd116 O124 2.277 . S
Cd116 O125 2.356 . S
C117 O122 1.209 . S
C117 O124 1.226 . S
O118 Cd114 2.273 . S
O118 Cd116 2.411 . S
O118 C121 1.320 . S
O119 Cd116 2.333 . S
O119 C121 1.214 . S
O120 Cd116 2.352 . S
O120 C123 1.258 . S
C121 O118 1.320 . S
C121 O119 1.214 . S
O122 Cd114 2.277 . S
O122 C117 1.209 . S
C123 O120 1.258 . S
C123 O125 1.282 . S
O124 Cd116 2.277 . S
O124 C117 1.226 . S
O125 Cd116 2.356 . S
O125 C123 1.282 . S
C126 O127 1.306 . S
C126 O129 1.160 . S
O127 C126 1.306 . S
O127 Cd128 2.228 . S
Cd128 O127 2.228 . S
Cd128 O132 2.273 . S
Cd128 O136 2.277 . S
O129 C126 1.160 . S
O129 Cd130 2.203 . S
Cd130 O129 2.203 . S
Cd130 O132 2.411 . S
Cd130 O133 2.333 . S
Cd130 O134 2.352 . S
Cd130 O138 2.277 . S
Cd130 O139 2.356 . S
C131 O136 1.209 . S
C131 O138 1.226 . S
O132 Cd128 2.273 . S
O132 Cd130 2.411 . S
O132 C135 1.320 . S
O133 Cd130 2.333 . S
O133 C135 1.214 . S
O134 Cd130 2.352 . S
O134 C137 1.258 . S
C135 O132 1.320 . S
C135 O133 1.214 . S
O136 Cd128 2.277 . S
O136 C131 1.209 . S
C137 O134 1.258 . S
C137 O139 1.282 . S
O138 Cd130 2.277 . S
O138 C131 1.226 . S
O139 Cd130 2.356 . S
O139 C137 1.282 . S
C140 O141 1.306 . S
C140 O143 1.160 . S
O141 C140 1.306 . S
O141 Cd142 2.228 . S
Cd142 O141 2.228 . S
Cd142 O146 2.273 . S
Cd142 O150 2.277 . S
O143 C140 1.160 . S
O143 Cd144 2.203 . S
Cd144 O143 2.203 . S
Cd144 O146 2.411 . S
Cd144 O147 2.333 . S
Cd144 O148 2.352 . S
Cd144 O152 2.277 . S
Cd144 O153 2.356 . S
C145 O150 1.209 . S
C145 O152 1.226 . S
O146 Cd142 2.273 . S
O146 Cd144 2.411 . S
O146 C149 1.320 . S
O147 Cd144 2.333 . S
O147 C149 1.214 . S
O148 Cd144 2.352 . S
O148 C151 1.258 . S
C149 O146 1.320 . S
C149 O147 1.214 . S
O150 Cd142 2.277 . S
O150 C145 1.209 . S
C151 O148 1.258 . S
C151 O153 1.282 . S
O152 Cd144 2.277 . S
O152 C145 1.226 . S
O153 Cd144 2.356 . S
O153 C151 1.282 . S
C154 O155 1.306 . S
C154 O157 1.160 . S
O155 C154 1.306 . S
O155 Cd156 2.228 . S
Cd156 O155 2.228 . S
Cd156 O160 2.273 . S
Cd156 O164 2.277 . S
O157 C154 1.160 . S
O157 Cd158 2.203 . S
Cd158 O157 2.203 . S
Cd158 O160 2.411 . S
Cd158 O161 2.333 . S
Cd158 O162 2.352 . S
Cd158 O166 2.277 . S
Cd158 O167 2.356 . S
C159 O164 1.209 . S
C159 O166 1.226 . S
O160 Cd156 2.273 . S
O160 Cd158 2.411 . S
O160 C163 1.320 . S
O161 Cd158 2.333 . S
O161 C163 1.214 . S
O162 Cd158 2.352 . S
O162 C165 1.258 . S
C163 O160 1.320 . S
C163 O161 1.214 . S
O164 Cd156 2.277 . S
O164 C159 1.209 . S
C165 O162 1.258 . S
C165 O167 1.282 . S
O166 Cd158 2.277 . S
O166 C159 1.226 . S
O167 Cd158 2.356 . S
O167 C165 1.282 . S
C168 O169 1.306 . S
C168 O171 1.160 . S
O169 C168 1.306 . S
O169 Cd170 2.228 . S
Cd170 O169 2.228 . S
Cd170 O174 2.273 . S
Cd170 O178 2.277 . S
O171 C168 1.160 . S
O171 Cd172 2.203 . S
Cd172 O171 2.203 . S
Cd172 O174 2.411 . S
Cd172 O175 2.333 . S
Cd172 O176 2.352 . S
Cd172 O180 2.277 . S
Cd172 O181 2.356 . S
C173 O178 1.209 . S
C173 O180 1.226 . S
O174 Cd170 2.273 . S
O174 Cd172 2.411 . S
O174 C177 1.320 . S
O175 Cd172 2.333 . S
O175 C177 1.214 . S
O176 Cd172 2.352 . S
O176 C179 1.258 . S
C177 O174 1.320 . S
C177 O175 1.214 . S
O178 Cd170 2.277 . S
O178 C173 1.209 . S
C179 O176 1.258 . S
C179 O181 1.282 . S
O180 Cd172 2.277 . S
O180 C173 1.226 . S
O181 Cd172 2.356 . S
O181 C179 1.282 . S
C182 O183 1.306 . S
C182 O185 1.160 . S
O183 C182 1.306 . S
O183 Cd184 2.228 . S
Cd184 O183 2.228 . S
Cd184 O188 2.273 . S
Cd184 O192 2.277 . S
O185 C182 1.160 . S
O185 Cd186 2.203 . S
Cd186 O185 2.203 . S
Cd186 O188 2.411 . S
Cd186 O189 2.333 . S
Cd186 O190 2.352 . S
Cd186 O194 2.277 . S
Cd186 O195 2.356 . S
C187 O192 1.209 . S
C187 O194 1.226 . S
O188 Cd184 2.273 . S
O188 Cd186 2.411 . S
O188 C191 1.320 . S
O189 Cd186 2.333 . S
O189 C191 1.214 . S
O190 Cd186 2.352 . S
O190 C193 1.258 . S
C191 O188 1.320 . S
C191 O189 1.214 . S
O192 Cd184 2.277 . S
O192 C187 1.209 . S
C193 O190 1.258 . S
C193 O195 1.282 . S
O194 Cd186 2.277 . S
O194 C187 1.226 . S
O195 Cd186 2.356 . S
O195 C193 1.282 . S
C196 O197 1.306 . S
C196 O199 1.160 . S
O197 C196 1.306 . S
O197 Cd198 2.228 . S
Cd198 O197 2.228 . S
Cd198 O202 2.273 . S
Cd198 O206 2.277 . S
O199 C196 1.160 . S
O199 Cd200 2.203 . S
Cd200 O199 2.203 . S
Cd200 O202 2.411 . S
Cd200 O203 2.333 . S
Cd200 O204 2.352 . S
Cd200 O208 2.277 . S
Cd200 O209 2.356 . S
C201 O206 1.209 . S
C201 O208 1.226 . S
O202 Cd198 2.273 . S
O202 Cd200 2.411 . S
O202 C205 1.320 . S
O203 Cd200 2.333 . S
O203 C205 1.214 . S
O204 Cd200 2.352 . S
O204 C207 1.258 . S
C205 O202 1.320 . S
C205 O203 1.214 . S
O206 Cd198 2.277 . S
O206 C201 1.209 . S
C207 O204 1.258 . S
C207 O209 1.282 . S
O208 Cd200 2.277 . S
O208 C201 1.226 . S
O209 Cd200 2.356 . S
O209 C207 1.282 . S
C210 O211 1.306 . S
C210 O213 1.160 . S
O211 C210 1.306 . S
O211 Cd212 2.228 . S
Cd212 O211 2.228 . S
Cd212 O216 2.273 . S
Cd212 O220 2.277 . S
O213 C210 1.160 . S
O213 Cd214 2.203 . S
Cd214 O213 2.203 . S
Cd214 O216 2.411 . S
Cd214 O217 2.333 . S
Cd214 O218 2.352 . S
Cd214 O222 2.277 . S
Cd214 O223 2.356 . S
C215 O220 1.209 . S
C215 O222 1.226 . S
O216 Cd212 2.273 . S
O216 Cd214 2.411 . S
O216 C219 1.320 . S
O217 Cd214 2.333 . S
O217 C219 1.214 . S
O218 Cd214 2.352 . S
O218 C221 1.258 . S
C219 O216 1.320 . S
C219 O217 1.214 . S
O220 Cd212 2.277 . S
O220 C215 1.209 . S
C221 O218 1.258 . S
C221 O223 1.282 . S
O222 Cd214 2.277 . S
O222 C215 1.226 . S
O223 Cd214 2.356 . S
O223 C221 1.282 . S
H224 C232 0.929 . S
H225 C234 0.930 . S
H226 C236 0.930 . S
H227 C239 0.929 . S
H228 C242 0.930 . S
H229 C244 0.960 . S
H230 C244 0.960 . S
H231 C244 0.960 . S
C232 H224 0.929 . S
C232 C233 1.377 . S
C232 C234 1.384 . S
C233 C232 1.377 . S
C233 C239 1.390 . S
C234 H225 0.930 . S
C234 C232 1.384 . S
C234 C235 1.372 . S
C235 C234 1.372 . S
C235 C236 1.400 . S
C235 C240 1.490 . S
C236 H226 0.930 . S
C236 C235 1.400 . S
C236 C239 1.386 . S
H237 C253 0.930 . S
H238 C254 0.931 . S
C239 H227 0.929 . S
C239 C233 1.390 . S
C239 C236 1.386 . S
C240 C235 1.490 . S
C240 C242 1.395 . S
C240 C243 1.403 . S
H241 C247 0.930 . S
C242 H228 0.930 . S
C242 C240 1.395 . S
C242 C245 1.403 . S
C243 C240 1.403 . S
C243 C244 1.524 . S
C243 C247 1.400 . S
C244 H229 0.960 . S
C244 H230 0.960 . S
C244 H231 0.960 . S
C244 C243 1.524 . S
C245 C242 1.403 . S
C245 C246 1.392 . S
C245 C249 1.495 . S
C246 C245 1.392 . S
C246 C247 1.385 . S
C246 C248 1.478 . S
C247 H241 0.930 . S
C247 C243 1.400 . S
C247 C246 1.385 . S
C248 C246 1.478 . S
C248 C250 1.381 . S
C248 C254 1.383 . S
C249 C245 1.495 . S
C249 H255 0.959 . S
C249 H256 0.961 . S
C249 H257 0.960 . S
C250 C248 1.381 . S
C250 C251 1.394 . S
C250 H258 0.930 . S
C251 C250 1.394 . S
C251 C252 1.383 . S
C251 H259 0.929 . S
C252 C251 1.383 . S
C252 C253 1.377 . S
C253 H237 0.930 . S
C253 C252 1.377 . S
C253 C254 1.379 . S
C254 H238 0.931 . S
C254 C248 1.383 . S
C254 C253 1.379 . S
H255 C249 0.959 . S
H256 C249 0.961 . S
H257 C249 0.960 . S
H258 C250 0.930 . S
H259 C251 0.929 . S
H260 C268 0.929 . S
H261 C270 0.930 . S
H262 C272 0.930 . S
H263 C275 0.929 . S
H264 C278 0.930 . S
H265 C280 0.960 . S
H266 C280 0.960 . S
H267 C280 0.960 . S
C268 H260 0.929 . S
C268 C269 1.377 . S
C268 C270 1.384 . S
C269 C268 1.377 . S
C269 C275 1.390 . S
C270 H261 0.930 . S
C270 C268 1.384 . S
C270 C271 1.372 . S
C271 C270 1.372 . S
C271 C272 1.400 . S
C271 C276 1.490 . S
C272 H262 0.930 . S
C272 C271 1.400 . S
C272 C275 1.386 . S
H273 C289 0.930 . S
H274 C290 0.931 . S
C275 H263 0.929 . S
C275 C269 1.390 . S
C275 C272 1.386 . S
C276 C271 1.490 . S
C276 C278 1.395 . S
C276 C279 1.403 . S
H277 C283 0.930 . S
C278 H264 0.930 . S
C278 C276 1.395 . S
C278 C281 1.403 . S
C279 C276 1.403 . S
C279 C280 1.524 . S
C279 C283 1.400 . S
C280 H265 0.960 . S
C280 H266 0.960 . S
C280 H267 0.960 . S
C280 C279 1.524 . S
C281 C278 1.403 . S
C281 C282 1.392 . S
C281 C285 1.495 . S
C282 C281 1.392 . S
C282 C283 1.385 . S
C282 C284 1.478 . S
C283 H277 0.930 . S
C283 C279 1.400 . S
C283 C282 1.385 . S
C284 C282 1.478 . S
C284 C286 1.381 . S
C284 C290 1.383 . S
C285 C281 1.495 . S
C285 H291 0.959 . S
C285 H292 0.961 . S
C285 H293 0.960 . S
C286 C284 1.381 . S
C286 C287 1.394 . S
C286 H294 0.930 . S
C287 C286 1.394 . S
C287 C288 1.383 . S
C287 H295 0.929 . S
C288 C287 1.383 . S
C288 C289 1.377 . S
C289 H273 0.930 . S
C289 C288 1.377 . S
C289 C290 1.379 . S
C290 H274 0.931 . S
C290 C284 1.383 . S
C290 C289 1.379 . S
H291 C285 0.959 . S
H292 C285 0.961 . S
H293 C285 0.960 . S
H294 C286 0.930 . S
H295 C287 0.929 . S
H296 C304 0.929 . S
H297 C306 0.930 . S
H298 C308 0.930 . S
H299 C311 0.929 . S
H300 C314 0.930 . S
H301 C316 0.960 . S
H302 C316 0.960 . S
H303 C316 0.960 . S
C304 H296 0.929 . S
C304 C305 1.377 . S
C304 C306 1.384 . S
C305 C304 1.377 . S
C305 C311 1.390 . S
C306 H297 0.930 . S
C306 C304 1.384 . S
C306 C307 1.372 . S
C307 C306 1.372 . S
C307 C308 1.400 . S
C307 C312 1.490 . S
C308 H298 0.930 . S
C308 C307 1.400 . S
C308 C311 1.386 . S
H309 C325 0.930 . S
H310 C326 0.931 . S
C311 H299 0.929 . S
C311 C305 1.390 . S
C311 C308 1.386 . S
C312 C307 1.490 . S
C312 C314 1.395 . S
C312 C315 1.403 . S
H313 C319 0.930 . S
C314 H300 0.930 . S
C314 C312 1.395 . S
C314 C317 1.403 . S
C315 C312 1.403 . S
C315 C316 1.524 . S
C315 C319 1.400 . S
C316 H301 0.960 . S
C316 H302 0.960 . S
C316 H303 0.960 . S
C316 C315 1.524 . S
C317 C314 1.403 . S
C317 C318 1.392 . S
C317 C321 1.495 . S
C318 C317 1.392 . S
C318 C319 1.385 . S
C318 C320 1.478 . S
C319 H313 0.930 . S
C319 C315 1.400 . S
C319 C318 1.385 . S
C320 C318 1.478 . S
C320 C322 1.381 . S
C320 C326 1.383 . S
C321 C317 1.495 . S
C321 H327 0.959 . S
C321 H328 0.961 . S
C321 H329 0.960 . S
C322 C320 1.381 . S
C322 C323 1.394 . S
C322 H330 0.930 . S
C323 C322 1.394 . S
C323 C324 1.383 . S
C323 H331 0.929 . S
C324 C323 1.383 . S
C324 C325 1.377 . S
C325 H309 0.930 . S
C325 C324 1.377 . S
C325 C326 1.379 . S
C326 H310 0.931 . S
C326 C320 1.383 . S
C326 C325 1.379 . S
H327 C321 0.959 . S
H328 C321 0.961 . S
H329 C321 0.960 . S
H330 C322 0.930 . S
H331 C323 0.929 . S
H332 C340 0.929 . S
H333 C342 0.930 . S
H334 C344 0.930 . S
H335 C347 0.929 . S
H336 C350 0.930 . S
H337 C352 0.960 . S
H338 C352 0.960 . S
H339 C352 0.960 . S
C340 H332 0.929 . S
C340 C341 1.377 . S
C340 C342 1.384 . S
C341 C340 1.377 . S
C341 C347 1.390 . S
C342 H333 0.930 . S
C342 C340 1.384 . S
C342 C343 1.372 . S
C343 C342 1.372 . S
C343 C344 1.400 . S
C343 C348 1.490 . S
C344 H334 0.930 . S
C344 C343 1.400 . S
C344 C347 1.386 . S
H345 C361 0.930 . S
H346 C362 0.931 . S
C347 H335 0.929 . S
C347 C341 1.390 . S
C347 C344 1.386 . S
C348 C343 1.490 . S
C348 C350 1.395 . S
C348 C351 1.403 . S
H349 C355 0.930 . S
C350 H336 0.930 . S
C350 C348 1.395 . S
C350 C353 1.403 . S
C351 C348 1.403 . S
C351 C352 1.524 . S
C351 C355 1.400 . S
C352 H337 0.960 . S
C352 H338 0.960 . S
C352 H339 0.960 . S
C352 C351 1.524 . S
C353 C350 1.403 . S
C353 C354 1.392 . S
C353 C357 1.495 . S
C354 C353 1.392 . S
C354 C355 1.385 . S
C354 C356 1.478 . S
C355 H349 0.930 . S
C355 C351 1.400 . S
C355 C354 1.385 . S
C356 C354 1.478 . S
C356 C358 1.381 . S
C356 C362 1.383 . S
C357 C353 1.495 . S
C357 H363 0.959 . S
C357 H364 0.961 . S
C357 H365 0.960 . S
C358 C356 1.381 . S
C358 C359 1.394 . S
C358 H366 0.930 . S
C359 C358 1.394 . S
C359 C360 1.383 . S
C359 H367 0.929 . S
C360 C359 1.383 . S
C360 C361 1.377 . S
C361 H345 0.930 . S
C361 C360 1.377 . S
C361 C362 1.379 . S
C362 H346 0.931 . S
C362 C356 1.383 . S
C362 C361 1.379 . S
H363 C357 0.959 . S
H364 C357 0.961 . S
H365 C357 0.960 . S
H366 C358 0.930 . S
H367 C359 0.929 . S
H368 C376 0.929 . S
H369 C378 0.930 . S
H370 C380 0.930 . S
H371 C383 0.929 . S
H372 C386 0.930 . S
H373 C388 0.960 . S
H374 C388 0.960 . S
H375 C388 0.960 . S
C376 H368 0.929 . S
C376 C377 1.377 . S
C376 C378 1.384 . S
C377 C376 1.377 . S
C377 C383 1.390 . S
C378 H369 0.930 . S
C378 C376 1.384 . S
C378 C379 1.372 . S
C379 C378 1.372 . S
C379 C380 1.400 . S
C379 C384 1.490 . S
C380 H370 0.930 . S
C380 C379 1.400 . S
C380 C383 1.386 . S
H381 C397 0.930 . S
H382 C398 0.931 . S
C383 H371 0.929 . S
C383 C377 1.390 . S
C383 C380 1.386 . S
C384 C379 1.490 . S
C384 C386 1.395 . S
C384 C387 1.403 . S
H385 C391 0.930 . S
C386 H372 0.930 . S
C386 C384 1.395 . S
C386 C389 1.403 . S
C387 C384 1.403 . S
C387 C388 1.524 . S
C387 C391 1.400 . S
C388 H373 0.960 . S
C388 H374 0.960 . S
C388 H375 0.960 . S
C388 C387 1.524 . S
C389 C386 1.403 . S
C389 C390 1.392 . S
C389 C393 1.495 . S
C390 C389 1.392 . S
C390 C391 1.385 . S
C390 C392 1.478 . S
C391 H385 0.930 . S
C391 C387 1.400 . S
C391 C390 1.385 . S
C392 C390 1.478 . S
C392 C394 1.381 . S
C392 C398 1.383 . S
C393 C389 1.495 . S
C393 H399 0.959 . S
C393 H400 0.961 . S
C393 H401 0.960 . S
C394 C392 1.381 . S
C394 C395 1.394 . S
C394 H402 0.930 . S
C395 C394 1.394 . S
C395 C396 1.383 . S
C395 H403 0.929 . S
C396 C395 1.383 . S
C396 C397 1.377 . S
C397 H381 0.930 . S
C397 C396 1.377 . S
C397 C398 1.379 . S
C398 H382 0.931 . S
C398 C392 1.383 . S
C398 C397 1.379 . S
H399 C393 0.959 . S
H400 C393 0.961 . S
H401 C393 0.960 . S
H402 C394 0.930 . S
H403 C395 0.929 . S
H404 C412 0.929 . S
H405 C414 0.930 . S
H406 C416 0.930 . S
H407 C419 0.929 . S
H408 C422 0.930 . S
H409 C424 0.960 . S
H410 C424 0.960 . S
H411 C424 0.960 . S
C412 H404 0.929 . S
C412 C413 1.377 . S
C412 C414 1.384 . S
C413 C412 1.377 . S
C413 C419 1.390 . S
C414 H405 0.930 . S
C414 C412 1.384 . S
C414 C415 1.372 . S
C415 C414 1.372 . S
C415 C416 1.400 . S
C415 C420 1.490 . S
C416 H406 0.930 . S
C416 C415 1.400 . S
C416 C419 1.386 . S
H417 C433 0.930 . S
H418 C434 0.931 . S
C419 H407 0.929 . S
C419 C413 1.390 . S
C419 C416 1.386 . S
C420 C415 1.490 . S
C420 C422 1.395 . S
C420 C423 1.403 . S
H421 C427 0.930 . S
C422 H408 0.930 . S
C422 C420 1.395 . S
C422 C425 1.403 . S
C423 C420 1.403 . S
C423 C424 1.524 . S
C423 C427 1.400 . S
C424 H409 0.960 . S
C424 H410 0.960 . S
C424 H411 0.960 . S
C424 C423 1.524 . S
C425 C422 1.403 . S
C425 C426 1.392 . S
C425 C429 1.495 . S
C426 C425 1.392 . S
C426 C427 1.385 . S
C426 C428 1.478 . S
C427 H421 0.930 . S
C427 C423 1.400 . S
C427 C426 1.385 . S
C428 C426 1.478 . S
C428 C430 1.381 . S
C428 C434 1.383 . S
C429 C425 1.495 . S
C429 H435 0.959 . S
C429 H436 0.961 . S
C429 H437 0.960 . S
C430 C428 1.381 . S
C430 C431 1.394 . S
C430 H438 0.930 . S
C431 C430 1.394 . S
C431 C432 1.383 . S
C431 H439 0.929 . S
C432 C431 1.383 . S
C432 C433 1.377 . S
C433 H417 0.930 . S
C433 C432 1.377 . S
C433 C434 1.379 . S
C434 H418 0.931 . S
C434 C428 1.383 . S
C434 C433 1.379 . S
H435 C429 0.959 . S
H436 C429 0.961 . S
H437 C429 0.960 . S
H438 C430 0.930 . S
H439 C431 0.929 . S
H440 C448 0.929 . S
H441 C450 0.930 . S
H442 C452 0.930 . S
H443 C455 0.929 . S
H444 C458 0.930 . S
H445 C460 0.960 . S
H446 C460 0.960 . S
H447 C460 0.960 . S
C448 H440 0.929 . S
C448 C449 1.377 . S
C448 C450 1.384 . S
C449 C448 1.377 . S
C449 C455 1.390 . S
C450 H441 0.930 . S
C450 C448 1.384 . S
C450 C451 1.372 . S
C451 C450 1.372 . S
C451 C452 1.400 . S
C451 C456 1.490 . S
C452 H442 0.930 . S
C452 C451 1.400 . S
C452 C455 1.386 . S
H453 C469 0.930 . S
H454 C470 0.931 . S
C455 H443 0.929 . S
C455 C449 1.390 . S
C455 C452 1.386 . S
C456 C451 1.490 . S
C456 C458 1.395 . S
C456 C459 1.403 . S
H457 C463 0.930 . S
C458 H444 0.930 . S
C458 C456 1.395 . S
C458 C461 1.403 . S
C459 C456 1.403 . S
C459 C460 1.524 . S
C459 C463 1.400 . S
C460 H445 0.960 . S
C460 H446 0.960 . S
C460 H447 0.960 . S
C460 C459 1.524 . S
C461 C458 1.403 . S
C461 C462 1.392 . S
C461 C465 1.495 . S
C462 C461 1.392 . S
C462 C463 1.385 . S
C462 C464 1.478 . S
C463 H457 0.930 . S
C463 C459 1.400 . S
C463 C462 1.385 . S
C464 C462 1.478 . S
C464 C466 1.381 . S
C464 C470 1.383 . S
C465 C461 1.495 . S
C465 H471 0.959 . S
C465 H472 0.961 . S
C465 H473 0.960 . S
C466 C464 1.381 . S
C466 C467 1.394 . S
C466 H474 0.930 . S
C467 C466 1.394 . S
C467 C468 1.383 . S
C467 H475 0.929 . S
C468 C467 1.383 . S
C468 C469 1.377 . S
C469 H453 0.930 . S
C469 C468 1.377 . S
C469 C470 1.379 . S
C470 H454 0.931 . S
C470 C464 1.383 . S
C470 C469 1.379 . S
H471 C465 0.959 . S
H472 C465 0.961 . S
H473 C465 0.960 . S
H474 C466 0.930 . S
H475 C467 0.929 . S
H476 C484 0.929 . S
H477 C486 0.930 . S
H478 C488 0.930 . S
H479 C491 0.929 . S
H480 C494 0.930 . S
H481 C496 0.960 . S
H482 C496 0.960 . S
H483 C496 0.960 . S
C484 H476 0.929 . S
C484 C485 1.377 . S
C484 C486 1.384 . S
C485 C484 1.377 . S
C485 C491 1.390 . S
C486 H477 0.930 . S
C486 C484 1.384 . S
C486 C487 1.372 . S
C487 C486 1.372 . S
C487 C488 1.400 . S
C487 C492 1.490 . S
C488 H478 0.930 . S
C488 C487 1.400 . S
C488 C491 1.386 . S
H489 C505 0.930 . S
H490 C506 0.931 . S
C491 H479 0.929 . S
C491 C485 1.390 . S
C491 C488 1.386 . S
C492 C487 1.490 . S
C492 C494 1.395 . S
C492 C495 1.403 . S
H493 C499 0.930 . S
C494 H480 0.930 . S
C494 C492 1.395 . S
C494 C497 1.403 . S
C495 C492 1.403 . S
C495 C496 1.524 . S
C495 C499 1.400 . S
C496 H481 0.960 . S
C496 H482 0.960 . S
C496 H483 0.960 . S
C496 C495 1.524 . S
C497 C494 1.403 . S
C497 C498 1.392 . S
C497 C501 1.495 . S
C498 C497 1.392 . S
C498 C499 1.385 . S
C498 C500 1.478 . S
C499 H493 0.930 . S
C499 C495 1.400 . S
C499 C498 1.385 . S
C500 C498 1.478 . S
C500 C502 1.381 . S
C500 C506 1.383 . S
C501 C497 1.495 . S
C501 H507 0.959 . S
C501 H508 0.961 . S
C501 H509 0.960 . S
C502 C500 1.381 . S
C502 C503 1.394 . S
C502 H510 0.930 . S
C503 C502 1.394 . S
C503 C504 1.383 . S
C503 H511 0.929 . S
C504 C503 1.383 . S
C504 C505 1.377 . S
C505 H489 0.930 . S
C505 C504 1.377 . S
C505 C506 1.379 . S
C506 H490 0.931 . S
C506 C500 1.383 . S
C506 C505 1.379 . S
H507 C501 0.959 . S
H508 C501 0.961 . S
H509 C501 0.960 . S
H510 C502 0.930 . S
H511 C503 0.929 . S
H512 C520 0.929 . S
H513 C522 0.930 . S
H514 C524 0.930 . S
H515 C527 0.929 . S
H516 C530 0.930 . S
H517 C532 0.960 . S
H518 C532 0.960 . S
H519 C532 0.960 . S
C520 H512 0.929 . S
C520 C521 1.377 . S
C520 C522 1.384 . S
C521 C520 1.377 . S
C521 C527 1.390 . S
C522 H513 0.930 . S
C522 C520 1.384 . S
C522 C523 1.372 . S
C523 C522 1.372 . S
C523 C524 1.400 . S
C523 C528 1.490 . S
C524 H514 0.930 . S
C524 C523 1.400 . S
C524 C527 1.386 . S
H525 C541 0.930 . S
H526 C542 0.931 . S
C527 H515 0.929 . S
C527 C521 1.390 . S
C527 C524 1.386 . S
C528 C523 1.490 . S
C528 C530 1.395 . S
C528 C531 1.403 . S
H529 C535 0.930 . S
C530 H516 0.930 . S
C530 C528 1.395 . S
C530 C533 1.403 1_556 S
C531 C528 1.403 . S
C531 C532 1.524 . S
C531 C535 1.400 1_556 S
C532 H517 0.960 . S
C532 H518 0.960 . S
C532 H519 0.960 . S
C532 C531 1.524 . S
C533 C530 1.403 1_554 S
C533 C534 1.392 . S
C533 C537 1.495 . S
C534 C533 1.392 . S
C534 C535 1.385 . S
C534 C536 1.478 . S
C535 H529 0.930 . S
C535 C531 1.400 1_554 S
C535 C534 1.385 . S
C536 C534 1.478 . S
C536 C538 1.381 . S
C536 C542 1.383 . S
C537 C533 1.495 . S
C537 H543 0.959 . S
C537 H544 0.961 . S
C537 H545 0.960 . S
C538 C536 1.381 . S
C538 C539 1.394 . S
C538 H546 0.930 . S
C539 C538 1.394 . S
C539 C540 1.383 . S
C539 H547 0.929 . S
C540 C539 1.383 . S
C540 C541 1.377 . S
C541 H525 0.930 . S
C541 C540 1.377 . S
C541 C542 1.379 . S
C542 H526 0.931 . S
C542 C536 1.383 . S
C542 C541 1.379 . S
H543 C537 0.959 . S
H544 C537 0.961 . S
H545 C537 0.960 . S
H546 C538 0.930 . S
H547 C539 0.929 . S
H548 C556 0.929 . S
H549 C558 0.930 . S
H550 C560 0.930 . S
H551 C563 0.929 . S
H552 C566 0.930 . S
H553 C568 0.960 . S
H554 C568 0.960 . S
H555 C568 0.960 . S
C556 H548 0.929 . S
C556 C557 1.377 . S
C556 C558 1.384 . S
C557 C556 1.377 . S
C557 C563 1.390 . S
C558 H549 0.930 . S
C558 C556 1.384 . S
C558 C559 1.372 . S
C559 C558 1.372 . S
C559 C560 1.400 . S
C559 C564 1.490 . S
C560 H550 0.930 . S
C560 C559 1.400 . S
C560 C563 1.386 . S
H561 C577 0.930 . S
H562 C578 0.931 . S
C563 H551 0.929 . S
C563 C557 1.390 . S
C563 C560 1.386 . S
C564 C559 1.490 . S
C564 C566 1.395 . S
C564 C567 1.403 . S
H565 C571 0.930 . S
C566 H552 0.930 . S
C566 C564 1.395 . S
C566 C569 1.403 1_556 S
C567 C564 1.403 . S
C567 C568 1.524 . S
C567 C571 1.400 1_556 S
C568 H553 0.960 . S
C568 H554 0.960 . S
C568 H555 0.960 . S
C568 C567 1.524 . S
C569 C566 1.403 1_554 S
C569 C570 1.392 . S
C569 C573 1.495 . S
C570 C569 1.392 . S
C570 C571 1.385 . S
C570 C572 1.478 . S
C571 H565 0.930 . S
C571 C567 1.400 1_554 S
C571 C570 1.385 . S
C572 C570 1.478 . S
C572 C574 1.381 . S
C572 C578 1.383 . S
C573 C569 1.495 . S
C573 H579 0.997 . S
C573 H580 0.961 . S
C573 H581 0.960 . S
C574 C572 1.381 . S
C574 C575 1.394 . S
C574 H582 0.930 . S
C575 C574 1.394 . S
C575 C576 1.383 . S
C575 H583 0.929 . S
C576 C575 1.383 . S
C576 C577 1.377 . S
C577 H561 0.930 . S
C577 C576 1.377 . S
C577 C578 1.379 . S
C578 H562 0.931 . S
C578 C572 1.383 . S
C578 C577 1.379 . S
H579 C573 0.997 . S
H580 C573 0.961 . S
H581 C573 0.960 . S
H582 C574 0.930 . S
H583 C575 0.929 . S
H584 C592 0.929 . S
H585 C594 0.930 . S
H586 C596 0.930 . S
H587 C599 0.929 . S
H588 C602 0.930 . S
H589 C604 0.973 . S
H590 C604 0.960 . S
H591 C604 0.960 . S
C592 H584 0.929 . S
C592 C593 1.377 . S
C592 C594 1.384 . S
C593 C592 1.377 . S
C593 C599 1.390 . S
C594 H585 0.930 . S
C594 C592 1.384 . S
C594 C595 1.372 . S
C595 C594 1.372 . S
C595 C596 1.400 . S
C595 C600 1.490 . S
C596 H586 0.930 . S
C596 C595 1.400 . S
C596 C599 1.386 . S
H597 C613 0.930 . S
H598 C614 0.931 . S
C599 H587 0.929 . S
C599 C593 1.390 . S
C599 C596 1.386 . S
C600 C595 1.490 . S
C600 C602 1.395 . S
C600 C603 1.403 . S
H601 C607 0.930 . S
C602 H588 0.930 . S
C602 C600 1.395 . S
C602 C605 1.403 1_556 S
C603 C600 1.403 . S
C603 C604 1.524 . S
C603 C607 1.400 1_556 S
C604 H589 0.973 . S
C604 H590 0.960 . S
C604 H591 0.960 . S
C604 C603 1.524 . S
C605 C602 1.403 1_554 S
C605 C606 1.392 . S
C605 C609 1.495 . S
C606 C605 1.392 . S
C606 C607 1.385 . S
C606 C608 1.478 . S
C607 H601 0.930 . S
C607 C603 1.400 1_554 S
C607 C606 1.385 . S
C608 C606 1.478 . S
C608 C610 1.381 . S
C608 C614 1.383 . S
C609 C605 1.495 . S
C609 H615 0.959 . S
C609 H616 0.961 . S
C609 H617 0.960 . S
C610 C608 1.381 . S
C610 C611 1.394 . S
C610 H618 0.930 . S
C611 C610 1.394 . S
C611 C612 1.383 . S
C611 H619 0.929 . S
C612 C611 1.383 . S
C612 C613 1.377 . S
C613 H597 0.930 . S
C613 C612 1.377 . S
C613 C614 1.379 . S
C614 H598 0.931 . S
C614 C608 1.383 . S
C614 C613 1.379 . S
H615 C609 0.959 . S
H616 C609 0.961 . S
H617 C609 0.960 . S
H618 C610 0.930 . S
H619 C611 0.929 . S
H620 C628 0.929 . S
H621 C630 0.930 . S
H622 C632 0.930 . S
H623 C635 0.929 . S
H624 C638 0.930 . S
H625 C640 0.960 . S
H626 C640 0.960 . S
H627 C640 0.960 . S
C628 H620 0.929 . S
C628 C629 1.377 . S
C628 C630 1.384 . S
C629 C628 1.377 . S
C629 C635 1.390 . S
C630 H621 0.930 . S
C630 C628 1.384 . S
C630 C631 1.372 . S
C631 C630 1.372 . S
C631 C632 1.400 . S
C631 C636 1.490 . S
C632 H622 0.930 . S
C632 C631 1.400 . S
C632 C635 1.386 . S
H633 C649 0.930 . S
H634 C650 0.931 . S
C635 H623 0.929 . S
C635 C629 1.390 . S
C635 C632 1.386 . S
C636 C631 1.490 . S
C636 C638 1.395 . S
C636 C639 1.403 . S
H637 C643 0.930 . S
C638 H624 0.930 . S
C638 C636 1.395 . S
C638 C641 1.403 1_554 S
C639 C636 1.403 . S
C639 C640 1.524 . S
C639 C643 1.400 1_554 S
C640 H625 0.960 . S
C640 H626 0.960 . S
C640 H627 0.960 . S
C640 C639 1.524 . S
C641 C638 1.403 1_556 S
C641 C642 1.392 . S
C641 C645 1.495 . S
C642 C641 1.392 . S
C642 C643 1.385 . S
C642 C644 1.478 . S
C643 H637 0.930 . S
C643 C639 1.400 1_556 S
C643 C642 1.385 . S
C644 C642 1.478 . S
C644 C646 1.381 . S
C644 C650 1.383 . S
C645 C641 1.495 . S
C645 H651 0.959 . S
C645 H652 0.961 . S
C645 H653 0.960 . S
C646 C644 1.381 . S
C646 C647 1.394 . S
C646 H654 0.930 . S
C647 C646 1.394 . S
C647 C648 1.383 . S
C647 H655 0.929 . S
C648 C647 1.383 . S
C648 C649 1.377 . S
C649 H633 0.930 . S
C649 C648 1.377 . S
C649 C650 1.379 . S
C650 H634 0.931 . S
C650 C644 1.383 . S
C650 C649 1.379 . S
H651 C645 0.959 . S
H652 C645 0.961 . S
H653 C645 0.960 . S
H654 C646 0.930 . S
H655 C647 0.929 . S
H656 C664 0.929 . S
H657 C666 0.930 . S
H658 C668 0.930 . S
H659 C671 0.929 . S
H660 C674 0.930 . S
H661 C676 0.960 . S
H662 C676 0.960 . S
H663 C676 0.960 . S
C664 H656 0.929 . S
C664 C665 1.377 . S
C664 C666 1.384 . S
C665 C664 1.377 . S
C665 C671 1.390 . S
C666 H657 0.930 . S
C666 C664 1.384 . S
C666 C667 1.372 . S
C667 C666 1.372 . S
C667 C668 1.400 . S
C667 C672 1.490 . S
C668 H658 0.930 . S
C668 C667 1.400 . S
C668 C671 1.386 . S
H669 C685 0.930 . S
H670 C686 0.931 . S
C671 H659 0.929 . S
C671 C665 1.390 . S
C671 C668 1.386 . S
C672 C667 1.490 . S
C672 C674 1.395 . S
C672 C675 1.403 . S
H673 C679 0.930 . S
C674 H660 0.930 . S
C674 C672 1.395 . S
C674 C677 1.403 1_455 S
C675 C672 1.403 . S
C675 C676 1.524 . S
C675 C679 1.400 1_455 S
C676 H661 0.960 . S
C676 H662 0.960 . S
C676 H663 0.960 . S
C676 C675 1.524 . S
C677 C674 1.403 1_655 S
C677 C678 1.392 . S
C677 C681 1.495 . S
C678 C677 1.392 . S
C678 C679 1.385 . S
C678 C680 1.478 . S
C679 H673 0.930 . S
C679 C675 1.400 1_655 S
C679 C678 1.385 . S
C680 C678 1.478 . S
C680 C682 1.381 . S
C680 C686 1.383 . S
C681 C677 1.495 . S
C681 H687 0.959 . S
C681 H688 0.961 . S
C681 H689 0.960 . S
C682 C680 1.381 . S
C682 C683 1.394 . S
C682 H690 0.930 . S
C683 C682 1.394 . S
C683 C684 1.383 . S
C683 H691 0.929 . S
C684 C683 1.383 . S
C684 C685 1.377 . S
C685 H669 0.930 . S
C685 C684 1.377 . S
C685 C686 1.379 . S
C686 H670 0.931 . S
C686 C680 1.383 . S
C686 C685 1.379 . S
H687 C681 0.959 . S
H688 C681 0.961 . S
H689 C681 0.960 . S
H690 C682 0.930 . S
H691 C683 0.929 . S
H692 C700 0.929 . S
H693 C702 0.930 . S
H694 C704 0.930 . S
H695 C707 0.929 . S
H696 C710 0.930 . S
H697 C712 0.982 . S
H698 C712 0.960 . S
H699 C712 0.960 . S
C700 H692 0.929 . S
C700 C701 1.377 . S
C700 C702 1.384 . S
C701 C700 1.377 . S
C701 C707 1.390 . S
C702 H693 0.930 . S
C702 C700 1.384 . S
C702 C703 1.372 . S
C703 C702 1.372 . S
C703 C704 1.400 . S
C703 C708 1.490 . S
C704 H694 0.930 . S
C704 C703 1.400 . S
C704 C707 1.386 . S
H705 C721 0.930 . S
H706 C722 0.931 . S
C707 H695 0.929 . S
C707 C701 1.390 . S
C707 C704 1.386 . S
C708 C703 1.490 . S
C708 C710 1.395 . S
C708 C711 1.403 . S
H709 C715 0.930 . S
C710 H696 0.930 . S
C710 C708 1.395 . S
C710 C713 1.403 1_565 S
C711 C708 1.403 . S
C711 C712 1.524 . S
C711 C715 1.400 1_565 S
C712 H697 0.982 . S
C712 H698 0.960 . S
C712 H699 0.960 . S
C712 C711 1.524 . S
C713 C710 1.403 1_545 S
C713 C714 1.392 . S
C713 C717 1.495 . S
C714 C713 1.392 . S
C714 C715 1.385 . S
C714 C716 1.478 . S
C715 H709 0.930 . S
C715 C711 1.400 1_545 S
C715 C714 1.385 . S
C716 C714 1.478 . S
C716 C718 1.381 . S
C716 C722 1.383 . S
C717 C713 1.495 . S
C717 H723 0.959 . S
C717 H724 0.961 . S
C717 H725 0.960 . S
C718 C716 1.381 . S
C718 C719 1.394 . S
C718 H726 0.930 . S
C719 C718 1.394 . S
C719 C720 1.383 . S
C719 H727 0.929 . S
C720 C719 1.383 . S
C720 C721 1.377 . S
C721 H705 0.930 . S
C721 C720 1.377 . S
C721 C722 1.379 . S
C722 H706 0.931 . S
C722 C716 1.383 . S
C722 C721 1.379 . S
H723 C717 0.959 . S
H724 C717 0.961 . S
H725 C717 0.960 . S
H726 C718 0.930 . S
H727 C719 0.929 . S
H728 C736 0.929 . S
H729 C738 0.930 . S
H730 C740 0.930 . S
H731 C743 0.929 . S
H732 C746 0.930 . S
H733 C748 0.960 . S
H734 C748 0.960 . S
H735 C748 0.960 . S
C736 H728 0.929 . S
C736 C737 1.377 . S
C736 C738 1.384 . S
C737 C736 1.377 . S
C737 C743 1.390 . S
C738 H729 0.930 . S
C738 C736 1.384 . S
C738 C739 1.372 . S
C739 C738 1.372 . S
C739 C740 1.400 . S
C739 C744 1.490 . S
C740 H730 0.930 . S
C740 C739 1.400 . S
C740 C743 1.386 . S
H741 C757 0.930 . S
H742 C758 0.931 . S
C743 H731 0.929 . S
C743 C737 1.390 . S
C743 C740 1.386 . S
C744 C739 1.490 . S
C744 C746 1.395 . S
C744 C747 1.403 . S
H745 C751 0.930 . S
C746 H732 0.930 . S
C746 C744 1.395 . S
C746 C749 1.403 1_655 S
C747 C744 1.403 . S
C747 C748 1.524 . S
C747 C751 1.400 1_655 S
C748 H733 0.960 . S
C748 H734 0.960 . S
C748 H735 0.960 . S
C748 C747 1.524 . S
C749 C746 1.403 1_455 S
C749 C750 1.392 . S
C749 C753 1.495 . S
C750 C749 1.392 . S
C750 C751 1.385 . S
C750 C752 1.478 . S
C751 H745 0.930 . S
C751 C747 1.400 1_455 S
C751 C750 1.385 . S
C752 C750 1.478 . S
C752 C754 1.381 . S
C752 C758 1.383 . S
C753 C749 1.495 . S
C753 H759 0.959 . S
C753 H760 0.961 . S
C753 H761 0.960 . S
C754 C752 1.381 . S
C754 C755 1.394 . S
C754 H762 0.930 . S
C755 C754 1.394 . S
C755 C756 1.383 . S
C755 H763 0.929 . S
C756 C755 1.383 . S
C756 C757 1.377 . S
C757 H741 0.930 . S
C757 C756 1.377 . S
C757 C758 1.379 . S
C758 H742 0.931 . S
C758 C752 1.383 . S
C758 C757 1.379 . S
H759 C753 0.959 . S
H760 C753 0.961 . S
H761 C753 0.960 . S
H762 C754 0.930 . S
H763 C755 0.929 . S
H764 C772 0.929 . S
H765 C774 0.930 . S
H766 C776 0.930 . S
H767 C779 0.929 . S
H768 C782 0.930 . S
H769 C784 0.968 . S
H770 C784 0.960 . S
H771 C784 0.960 . S
C772 H764 0.929 . S
C772 C773 1.377 . S
C772 C774 1.384 . S
C773 C772 1.377 . S
C773 C779 1.390 . S
C774 H765 0.930 . S
C774 C772 1.384 . S
C774 C775 1.372 . S
C775 C774 1.372 . S
C775 C776 1.400 . S
C775 C780 1.490 . S
C776 H766 0.930 . S
C776 C775 1.400 . S
C776 C779 1.386 . S
H777 C793 0.930 . S
H778 C794 0.931 . S
C779 H767 0.929 . S
C779 C773 1.390 . S
C779 C776 1.386 . S
C780 C775 1.490 . S
C780 C782 1.395 . S
C780 C783 1.403 . S
H781 C787 0.930 . S
C782 H768 0.930 . S
C782 C780 1.395 . S
C782 C785 1.403 1_545 S
C783 C780 1.403 . S
C783 C784 1.524 . S
C783 C787 1.400 1_545 S
C784 H769 0.968 . S
C784 H770 0.960 . S
C784 H771 0.960 . S
C784 C783 1.524 . S
C785 C782 1.403 1_565 S
C785 C786 1.392 . S
C785 C789 1.495 . S
C786 C785 1.392 . S
C786 C787 1.385 . S
C786 C788 1.478 . S
C787 H781 0.930 . S
C787 C783 1.400 1_565 S
C787 C786 1.385 . S
C788 C786 1.478 . S
C788 C790 1.381 . S
C788 C794 1.383 . S
C789 C785 1.495 . S
C789 H795 0.959 . S
C789 H796 0.961 . S
C789 H797 0.960 . S
C790 C788 1.381 . S
C790 C791 1.394 . S
C790 H798 0.930 . S
C791 C790 1.394 . S
C791 C792 1.383 . S
C791 H799 0.929 . S
C792 C791 1.383 . S
C792 C793 1.377 . S
C793 H777 0.930 . S
C793 C792 1.377 . S
C793 C794 1.379 . S
C794 H778 0.931 . S
C794 C788 1.383 . S
C794 C793 1.379 . S
H795 C789 0.959 . S
H796 C789 0.961 . S
H797 C789 0.960 . S
H798 C790 0.930 . S
H799 C791 0.929 . S
H800 C808 0.929 . S
H801 C810 0.930 . S
H802 C812 0.930 . S
H803 C815 0.929 . S
H804 C818 0.930 . S
H805 C820 0.960 . S
H806 C820 0.960 . S
H807 C820 0.960 . S
C808 H800 0.929 . S
C808 C809 1.377 . S
C808 C810 1.384 . S
C809 C808 1.377 . S
C809 C815 1.390 . S
C810 H801 0.930 . S
C810 C808 1.384 . S
C810 C811 1.372 . S
C811 C810 1.372 . S
C811 C812 1.400 . S
C811 C816 1.490 . S
C812 H802 0.930 . S
C812 C811 1.400 . S
C812 C815 1.386 . S
H813 C829 0.930 . S
H814 C830 0.931 . S
C815 H803 0.929 . S
C815 C809 1.390 . S
C815 C812 1.386 . S
C816 C811 1.490 . S
C816 C818 1.395 . S
C816 C819 1.403 . S
H817 C823 0.930 . S
C818 H804 0.930 . S
C818 C816 1.395 . S
C818 C821 1.403 1_655 S
C819 C816 1.403 . S
C819 C820 1.524 . S
C819 C823 1.400 1_655 S
C820 H805 0.960 . S
C820 H806 0.960 . S
C820 H807 0.960 . S
C820 C819 1.524 . S
C821 C818 1.403 1_455 S
C821 C822 1.392 . S
C821 C825 1.495 . S
C822 C821 1.392 . S
C822 C823 1.385 . S
C822 C824 1.478 . S
C823 H817 0.930 . S
C823 C819 1.400 1_455 S
C823 C822 1.385 . S
C824 C822 1.478 . S
C824 C826 1.381 . S
C824 C830 1.383 . S
C825 C821 1.495 . S
C825 H831 0.959 . S
C825 H832 0.961 . S
C825 H833 0.960 . S
C826 C824 1.381 . S
C826 C827 1.394 . S
C826 H834 0.930 . S
C827 C826 1.394 . S
C827 C828 1.383 . S
C827 H835 0.929 . S
C828 C827 1.383 . S
C828 C829 1.377 . S
C829 H813 0.930 . S
C829 C828 1.377 . S
C829 C830 1.379 . S
C830 H814 0.931 . S
C830 C824 1.383 . S
C830 C829 1.379 . S
H831 C825 0.959 . S
H832 C825 0.961 . S
H833 C825 0.960 . S
H834 C826 0.930 . S
H835 C827 0.929 . S
H836 C844 0.929 . S
H837 C846 0.930 . S
H838 C848 0.930 . S
H839 C851 0.929 . S
H840 C854 0.930 . S
H841 C856 0.960 . S
H842 C856 0.960 . S
H843 C856 0.960 . S
C844 H836 0.929 . S
C844 C845 1.377 . S
C844 C846 1.384 . S
C845 C844 1.377 . S
C845 C851 1.390 . S
C846 H837 0.930 . S
C846 C844 1.384 . S
C846 C847 1.372 . S
C847 C846 1.372 . S
C847 C848 1.400 . S
C847 C852 1.490 . S
C848 H838 0.930 . S
C848 C847 1.400 . S
C848 C851 1.386 . S
H849 C865 0.930 . S
H850 C866 0.931 . S
C851 H839 0.929 . S
C851 C845 1.390 . S
C851 C848 1.386 . S
C852 C847 1.490 . S
C852 C854 1.395 . S
C852 C855 1.403 . S
H853 C859 0.930 . S
C854 H840 0.930 . S
C854 C852 1.395 . S
C854 C857 1.403 1_565 S
C855 C852 1.403 . S
C855 C856 1.524 . S
C855 C859 1.400 1_565 S
C856 H841 0.960 . S
C856 H842 0.960 . S
C856 H843 0.960 . S
C856 C855 1.524 . S
C857 C854 1.403 1_545 S
C857 C858 1.392 . S
C857 C861 1.495 . S
C858 C857 1.392 . S
C858 C859 1.385 . S
C858 C860 1.478 . S
C859 H853 0.930 . S
C859 C855 1.400 1_545 S
C859 C858 1.385 . S
C860 C858 1.478 . S
C860 C862 1.381 . S
C860 C866 1.383 . S
C861 C857 1.495 . S
C861 H867 0.959 . S
C861 H868 0.961 . S
C861 H869 0.960 . S
C862 C860 1.381 . S
C862 C863 1.394 . S
C862 H870 0.930 . S
C863 C862 1.394 . S
C863 C864 1.383 . S
C863 H871 0.929 . S
C864 C863 1.383 . S
C864 C865 1.377 . S
C865 H849 0.930 . S
C865 C864 1.377 . S
C865 C866 1.379 . S
C866 H850 0.931 . S
C866 C860 1.383 . S
C866 C865 1.379 . S
H867 C861 0.959 . S
H868 C861 0.961 . S
H869 C861 0.960 . S
H870 C862 0.930 . S
H871 C863 0.929 . S
H872 C880 0.929 . S
H873 C882 0.930 . S
H874 C884 0.930 . S
H875 C887 0.929 . S
H876 C890 0.930 . S
H877 C892 0.960 . S
H878 C892 0.960 . S
H879 C892 0.960 . S
C880 H872 0.929 . S
C880 C881 1.377 . S
C880 C882 1.384 . S
C881 C880 1.377 . S
C881 C887 1.390 . S
C882 H873 0.930 . S
C882 C880 1.384 . S
C882 C883 1.372 . S
C883 C882 1.372 . S
C883 C884 1.400 . S
C883 C888 1.490 . S
C884 H874 0.930 . S
C884 C883 1.400 . S
C884 C887 1.386 . S
H885 C901 0.930 . S
H886 C902 0.931 . S
C887 H875 0.929 . S
C887 C881 1.390 . S
C887 C884 1.386 . S
C888 C883 1.490 . S
C888 C890 1.395 . S
C888 C891 1.403 . S
H889 C895 0.930 . S
C890 H876 0.930 . S
C890 C888 1.395 . S
C890 C893 1.403 1_455 S
C891 C888 1.403 . S
C891 C892 1.524 . S
C891 C895 1.400 1_455 S
C892 H877 0.960 . S
C892 H878 0.960 . S
C892 H879 0.960 . S
C892 C891 1.524 . S
C893 C890 1.403 1_655 S
C893 C894 1.392 . S
C893 C897 1.495 . S
C894 C893 1.392 . S
C894 C895 1.385 . S
C894 C896 1.478 . S
C895 H889 0.930 . S
C895 C891 1.400 1_655 S
C895 C894 1.385 . S
C896 C894 1.478 . S
C896 C898 1.381 . S
C896 C902 1.383 . S
C897 C893 1.495 . S
C897 H903 0.959 . S
C897 H904 0.961 . S
C897 H905 0.960 . S
C898 C896 1.381 . S
C898 C899 1.394 . S
C898 H906 0.930 . S
C899 C898 1.394 . S
C899 C900 1.383 . S
C899 H907 0.929 . S
C900 C899 1.383 . S
C900 C901 1.377 . S
C901 H885 0.930 . S
C901 C900 1.377 . S
C901 C902 1.379 . S
C902 H886 0.931 . S
C902 C896 1.383 . S
C902 C901 1.379 . S
H903 C897 0.959 . S
H904 C897 0.961 . S
H905 C897 0.960 . S
H906 C898 0.930 . S
H907 C899 0.929 . S
H908 C916 0.929 . S
H909 C918 0.930 . S
H910 C920 0.930 . S
H911 C923 0.929 . S
H912 C926 0.930 . S
H913 C928 0.960 . S
H914 C928 0.960 . S
H915 C928 0.960 . S
C916 H908 0.929 . S
C916 C917 1.377 . S
C916 C918 1.384 . S
C917 C916 1.377 . S
C917 C923 1.390 . S
C918 H909 0.930 . S
C918 C916 1.384 . S
C918 C919 1.372 . S
C919 C918 1.372 . S
C919 C920 1.400 . S
C919 C924 1.490 . S
C920 H910 0.930 . S
C920 C919 1.400 . S
C920 C923 1.386 . S
H921 C937 0.930 . S
H922 C938 0.931 . S
C923 H911 0.929 . S
C923 C917 1.390 . S
C923 C920 1.386 . S
C924 C919 1.490 . S
C924 C926 1.395 . S
C924 C927 1.403 . S
H925 C931 0.930 . S
C926 H912 0.930 . S
C926 C924 1.395 . S
C926 C929 1.403 1_565 S
C927 C924 1.403 . S
C927 C928 1.524 . S
C927 C931 1.400 1_565 S
C928 H913 0.960 . S
C928 H914 0.960 . S
C928 H915 0.960 . S
C928 C927 1.524 . S
C929 C926 1.403 1_545 S
C929 C930 1.392 . S
C929 C933 1.495 . S
C930 C929 1.392 . S
C930 C931 1.385 . S
C930 C932 1.478 . S
C931 H925 0.930 . S
C931 C927 1.400 1_545 S
C931 C930 1.385 . S
C932 C930 1.478 . S
C932 C934 1.381 . S
C932 C938 1.383 . S
C933 C929 1.495 . S
C933 H939 0.959 . S
C933 H940 0.961 . S
C933 H941 0.960 . S
C934 C932 1.381 . S
C934 C935 1.394 . S
C934 H942 0.930 . S
C935 C934 1.394 . S
C935 C936 1.383 . S
C935 H943 0.929 . S
C936 C935 1.383 . S
C936 C937 1.377 . S
C937 H921 0.930 . S
C937 C936 1.377 . S
C937 C938 1.379 . S
C938 H922 0.931 . S
C938 C932 1.383 . S
C938 C937 1.379 . S
H939 C933 0.959 . S
H940 C933 0.961 . S
H941 C933 0.960 . S
H942 C934 0.930 . S
H943 C935 0.929 . S
H944 C952 0.929 . S
H945 C954 0.930 . S
H946 C956 0.930 . S
H947 C959 0.929 . S
H948 C962 0.930 . S
H949 C964 0.960 . S
H950 C964 0.960 . S
H951 C964 0.960 . S
C952 H944 0.929 . S
C952 C953 1.377 . S
C952 C954 1.384 . S
C953 C952 1.377 . S
C953 C959 1.390 . S
C954 H945 0.930 . S
C954 C952 1.384 . S
C954 C955 1.372 . S
C955 C954 1.372 . S
C955 C956 1.400 . S
C955 C960 1.490 . S
C956 H946 0.930 . S
C956 C955 1.400 . S
C956 C959 1.386 . S
H957 C973 0.930 . S
H958 C974 0.931 . S
C959 H947 0.929 . S
C959 C953 1.390 . S
C959 C956 1.386 . S
C960 C955 1.490 . S
C960 C962 1.395 . S
C960 C963 1.403 . S
H961 C967 0.930 . S
C962 H948 0.930 . S
C962 C960 1.395 . S
C962 C965 1.403 . S
C963 C960 1.403 . S
C963 C964 1.524 . S
C963 C967 1.400 . S
C964 H949 0.960 . S
C964 H950 0.960 . S
C964 H951 0.960 . S
C964 C963 1.524 . S
C965 C962 1.403 . S
C965 C966 1.392 . S
C965 C969 1.495 . S
C966 C965 1.392 . S
C966 C967 1.385 . S
C966 C968 1.478 . S
C967 H961 0.930 . S
C967 C963 1.400 . S
C967 C966 1.385 . S
C968 C966 1.478 . S
C968 C970 1.381 . S
C968 C974 1.383 . S
C969 C965 1.495 . S
C969 H975 0.959 . S
C969 H976 0.961 . S
C969 H977 0.960 . S
C970 C968 1.381 . S
C970 C971 1.394 . S
C970 H978 0.930 . S
C971 C970 1.394 . S
C971 C972 1.383 . S
C971 H979 0.929 . S
C972 C971 1.383 . S
C972 C973 1.377 . S
C973 H957 0.930 . S
C973 C972 1.377 . S
C973 C974 1.379 . S
C974 H958 0.931 . S
C974 C968 1.383 . S
C974 C973 1.379 . S
H975 C969 0.959 . S
H976 C969 0.961 . S
H977 C969 0.960 . S
H978 C970 0.930 . S
H979 C971 0.929 . S
H980 C988 0.929 . S
H981 C990 0.930 . S
H982 C992 0.930 . S
H983 C995 0.929 . S
H984 C998 0.930 . S
H985 C1000 0.960 . S
H986 C1000 0.960 . S
H987 C1000 0.960 . S
C988 H980 0.929 . S
C988 C989 1.377 . S
C988 C990 1.384 . S
C989 C988 1.377 . S
C989 C995 1.390 . S
C990 H981 0.930 . S
C990 C988 1.384 . S
C990 C991 1.372 . S
C991 C990 1.372 . S
C991 C992 1.400 . S
C991 C996 1.490 . S
C992 H982 0.930 . S
C992 C991 1.400 . S
C992 C995 1.386 . S
H993 C1009 0.930 . S
H994 C1010 0.931 . S
C995 H983 0.929 . S
C995 C989 1.390 . S
C995 C992 1.386 . S
C996 C991 1.490 . S
C996 C998 1.395 . S
C996 C999 1.403 . S
H997 C1003 0.930 . S
C998 H984 0.930 . S
C998 C996 1.395 . S
C998 C1001 1.403 . S
C999 C996 1.403 . S
C999 C1000 1.524 . S
C999 C1003 1.400 . S
C1000 H985 0.960 . S
C1000 H986 0.960 . S
C1000 H987 0.960 . S
C1000 C999 1.524 . S
C1001 C998 1.403 . S
C1001 C1002 1.392 . S
C1001 C1005 1.495 . S
C1002 C1001 1.392 . S
C1002 C1003 1.385 . S
C1002 C1004 1.478 . S
C1003 H997 0.930 . S
C1003 C999 1.400 . S
C1003 C1002 1.385 . S
C1004 C1002 1.478 . S
C1004 C1006 1.381 . S
C1004 C1010 1.383 . S
C1005 C1001 1.495 . S
C1005 H1011 0.959 . S
C1005 H1012 0.961 . S
C1005 H1013 0.960 . S
C1006 C1004 1.381 . S
C1006 C1007 1.394 . S
C1006 H1014 0.930 . S
C1007 C1006 1.394 . S
C1007 C1008 1.383 . S
C1007 H1015 0.929 . S
C1008 C1007 1.383 . S
C1008 C1009 1.377 . S
C1009 H993 0.930 . S
C1009 C1008 1.377 . S
C1009 C1010 1.379 . S
C1010 H994 0.931 . S
C1010 C1004 1.383 . S
C1010 C1009 1.379 . S
H1011 C1005 0.959 . S
H1012 C1005 0.961 . S
H1013 C1005 0.960 . S
H1014 C1006 0.930 . S
H1015 C1007 0.929 . S
H1016 C1024 0.929 . S
H1017 C1026 0.930 . S
H1018 C1028 0.930 . S
H1019 C1031 0.929 . S
H1020 C1034 0.930 . S
H1021 C1036 0.960 . S
H1022 C1036 0.960 . S
H1023 C1036 0.960 . S
C1024 H1016 0.929 . S
C1024 C1025 1.377 . S
C1024 C1026 1.384 . S
C1025 C1024 1.377 . S
C1025 C1031 1.390 . S
C1026 H1017 0.930 . S
C1026 C1024 1.384 . S
C1026 C1027 1.372 . S
C1027 C1026 1.372 . S
C1027 C1028 1.400 . S
C1027 C1032 1.490 . S
C1028 H1018 0.930 . S
C1028 C1027 1.400 . S
C1028 C1031 1.386 . S
H1029 C1045 0.930 . S
H1030 C1046 0.931 . S
C1031 H1019 0.929 . S
C1031 C1025 1.390 . S
C1031 C1028 1.386 . S
C1032 C1027 1.490 . S
C1032 C1034 1.395 . S
C1032 C1035 1.403 . S
H1033 C1039 0.930 . S
C1034 H1020 0.930 . S
C1034 C1032 1.395 . S
C1034 C1037 1.403 . S
C1035 C1032 1.403 . S
C1035 C1036 1.524 . S
C1035 C1039 1.400 . S
C1036 H1021 0.960 . S
C1036 H1022 0.960 . S
C1036 H1023 0.960 . S
C1036 C1035 1.524 . S
C1037 C1034 1.403 . S
C1037 C1038 1.392 . S
C1037 C1041 1.495 . S
C1038 C1037 1.392 . S
C1038 C1039 1.385 . S
C1038 C1040 1.478 . S
C1039 H1033 0.930 . S
C1039 C1035 1.400 . S
C1039 C1038 1.385 . S
C1040 C1038 1.478 . S
C1040 C1042 1.381 . S
C1040 C1046 1.383 . S
C1041 C1037 1.495 . S
C1041 H1047 0.959 . S
C1041 H1048 0.961 . S
C1041 H1049 0.960 . S
C1042 C1040 1.381 . S
C1042 C1043 1.394 . S
C1042 H1050 0.930 . S
C1043 C1042 1.394 . S
C1043 C1044 1.383 . S
C1043 H1051 0.929 . S
C1044 C1043 1.383 . S
C1044 C1045 1.377 . S
C1045 H1029 0.930 . S
C1045 C1044 1.377 . S
C1045 C1046 1.379 . S
C1046 H1030 0.931 . S
C1046 C1040 1.383 . S
C1046 C1045 1.379 . S
H1047 C1041 0.959 . S
H1048 C1041 0.961 . S
H1049 C1041 0.960 . S
H1050 C1042 0.930 . S
H1051 C1043 0.929 . S
H1052 C1060 0.929 . S
H1053 C1062 0.930 . S
H1054 C1064 0.930 . S
H1055 C1067 0.929 . S
H1056 C1070 0.930 . S
H1057 C1072 0.960 . S
H1058 C1072 0.960 . S
H1059 C1072 0.960 . S
C1060 H1052 0.929 . S
C1060 C1061 1.377 . S
C1060 C1062 1.384 . S
C1061 C1060 1.377 . S
C1061 C1067 1.390 . S
C1062 H1053 0.930 . S
C1062 C1060 1.384 . S
C1062 C1063 1.372 . S
C1063 C1062 1.372 . S
C1063 C1064 1.400 . S
C1063 C1068 1.490 . S
C1064 H1054 0.930 . S
C1064 C1063 1.400 . S
C1064 C1067 1.386 . S
H1065 C1081 0.930 . S
H1066 C1082 0.931 . S
C1067 H1055 0.929 . S
C1067 C1061 1.390 . S
C1067 C1064 1.386 . S
C1068 C1063 1.490 . S
C1068 C1070 1.395 . S
C1068 C1071 1.403 . S
H1069 C1075 0.930 . S
C1070 H1056 0.930 . S
C1070 C1068 1.395 . S
C1070 C1073 1.403 . S
C1071 C1068 1.403 . S
C1071 C1072 1.524 . S
C1071 C1075 1.400 . S
C1072 H1057 0.960 . S
C1072 H1058 0.960 . S
C1072 H1059 0.960 . S
C1072 C1071 1.524 . S
C1073 C1070 1.403 . S
C1073 C1074 1.392 . S
C1073 C1077 1.495 . S
C1074 C1073 1.392 . S
C1074 C1075 1.385 . S
C1074 C1076 1.478 . S
C1075 H1069 0.930 . S
C1075 C1071 1.400 . S
C1075 C1074 1.385 . S
C1076 C1074 1.478 . S
C1076 C1078 1.381 . S
C1076 C1082 1.383 . S
C1077 C1073 1.495 . S
C1077 H1083 0.959 . S
C1077 H1084 0.961 . S
C1077 H1085 0.960 . S
C1078 C1076 1.381 . S
C1078 C1079 1.394 . S
C1078 H1086 0.930 . S
C1079 C1078 1.394 . S
C1079 C1080 1.383 . S
C1079 H1087 0.929 . S
C1080 C1079 1.383 . S
C1080 C1081 1.377 . S
C1081 H1065 0.930 . S
C1081 C1080 1.377 . S
C1081 C1082 1.379 . S
C1082 H1066 0.931 . S
C1082 C1076 1.383 . S
C1082 C1081 1.379 . S
H1083 C1077 0.959 . S
H1084 C1077 0.961 . S
H1085 C1077 0.960 . S
H1086 C1078 0.930 . S
H1087 C1079 0.929 . S
H1088 C1096 0.929 . S
H1089 C1098 0.930 . S
H1090 C1100 0.930 . S
H1091 C1103 0.929 . S
H1092 C1106 0.930 . S
H1093 C1108 0.960 . S
H1094 C1108 0.960 . S
H1095 C1108 0.960 . S
C1096 H1088 0.929 . S
C1096 C1097 1.377 . S
C1096 C1098 1.384 . S
C1097 C1096 1.377 . S
C1097 C1103 1.390 . S
C1098 H1089 0.930 . S
C1098 C1096 1.384 . S
C1098 C1099 1.372 . S
C1099 C1098 1.372 . S
C1099 C1100 1.400 . S
C1099 C1104 1.490 . S
C1100 H1090 0.930 . S
C1100 C1099 1.400 . S
C1100 C1103 1.386 . S
H1101 C1117 0.930 . S
H1102 C1118 0.931 . S
C1103 H1091 0.929 . S
C1103 C1097 1.390 . S
C1103 C1100 1.386 . S
C1104 C1099 1.490 . S
C1104 C1106 1.395 . S
C1104 C1107 1.403 . S
H1105 C1111 0.930 . S
C1106 H1092 0.930 . S
C1106 C1104 1.395 . S
C1106 C1109 1.403 . S
C1107 C1104 1.403 . S
C1107 C1108 1.524 . S
C1107 C1111 1.400 . S
C1108 H1093 0.960 . S
C1108 H1094 0.960 . S
C1108 H1095 0.960 . S
C1108 C1107 1.524 . S
C1109 C1106 1.403 . S
C1109 C1110 1.392 . S
C1109 C1113 1.495 . S
C1110 C1109 1.392 . S
C1110 C1111 1.385 . S
C1110 C1112 1.478 . S
C1111 H1105 0.930 . S
C1111 C1107 1.400 . S
C1111 C1110 1.385 . S
C1112 C1110 1.478 . S
C1112 C1114 1.381 . S
C1112 C1118 1.383 . S
C1113 C1109 1.495 . S
C1113 H1119 0.959 . S
C1113 H1120 0.961 . S
C1113 H1121 0.960 . S
C1114 C1112 1.381 . S
C1114 C1115 1.394 . S
C1114 H1122 0.930 . S
C1115 C1114 1.394 . S
C1115 C1116 1.383 . S
C1115 H1123 0.929 . S
C1116 C1115 1.383 . S
C1116 C1117 1.377 . S
C1117 H1101 0.930 . S
C1117 C1116 1.377 . S
C1117 C1118 1.379 . S
C1118 H1102 0.931 . S
C1118 C1112 1.383 . S
C1118 C1117 1.379 . S
H1119 C1113 0.959 . S
H1120 C1113 0.961 . S
H1121 C1113 0.960 . S
H1122 C1114 0.930 . S
H1123 C1115 0.929 . S
H1124 C1132 0.929 . S
H1125 C1134 0.930 . S
H1126 C1136 0.930 . S
H1127 C1139 0.929 . S
H1128 C1142 0.930 . S
H1129 C1144 0.960 . S
H1130 C1144 0.960 . S
H1131 C1144 0.960 . S
C1132 H1124 0.929 . S
C1132 C1133 1.377 . S
C1132 C1134 1.384 . S
C1133 C1132 1.377 . S
C1133 C1139 1.390 . S
C1134 H1125 0.930 . S
C1134 C1132 1.384 . S
C1134 C1135 1.372 . S
C1135 C1134 1.372 . S
C1135 C1136 1.400 . S
C1135 C1140 1.490 . S
C1136 H1126 0.930 . S
C1136 C1135 1.400 . S
C1136 C1139 1.386 . S
H1137 C1153 0.930 . S
H1138 C1154 0.931 . S
C1139 H1127 0.929 . S
C1139 C1133 1.390 . S
C1139 C1136 1.386 . S
C1140 C1135 1.490 . S
C1140 C1142 1.395 . S
C1140 C1143 1.403 . S
H1141 C1147 0.930 . S
C1142 H1128 0.930 . S
C1142 C1140 1.395 . S
C1142 C1145 1.403 . S
C1143 C1140 1.403 . S
C1143 C1144 1.524 . S
C1143 C1147 1.400 . S
C1144 H1129 0.960 . S
C1144 H1130 0.960 . S
C1144 H1131 0.960 . S
C1144 C1143 1.524 . S
C1145 C1142 1.403 . S
C1145 C1146 1.392 . S
C1145 C1149 1.495 . S
C1146 C1145 1.392 . S
C1146 C1147 1.385 . S
C1146 C1148 1.478 . S
C1147 H1141 0.930 . S
C1147 C1143 1.400 . S
C1147 C1146 1.385 . S
C1148 C1146 1.478 . S
C1148 C1150 1.381 . S
C1148 C1154 1.383 . S
C1149 C1145 1.495 . S
C1149 H1155 0.959 . S
C1149 H1156 0.961 . S
C1149 H1157 0.960 . S
C1150 C1148 1.381 . S
C1150 C1151 1.394 . S
C1150 H1158 0.930 . S
C1151 C1150 1.394 . S
C1151 C1152 1.383 . S
C1151 H1159 0.929 . S
C1152 C1151 1.383 . S
C1152 C1153 1.377 . S
C1153 H1137 0.930 . S
C1153 C1152 1.377 . S
C1153 C1154 1.379 . S
C1154 H1138 0.931 . S
C1154 C1148 1.383 . S
C1154 C1153 1.379 . S
H1155 C1149 0.959 . S
H1156 C1149 0.961 . S
H1157 C1149 0.960 . S
H1158 C1150 0.930 . S
H1159 C1151 0.929 . S
H1160 C1168 0.929 . S
H1161 C1170 0.930 . S
H1162 C1172 0.930 . S
H1163 C1175 0.929 . S
H1164 C1178 0.930 . S
H1165 C1180 0.960 . S
H1166 C1180 0.960 . S
H1167 C1180 0.960 . S
C1168 H1160 0.929 . S
C1168 C1169 1.377 . S
C1168 C1170 1.384 . S
C1169 C1168 1.377 . S
C1169 C1175 1.390 . S
C1170 H1161 0.930 . S
C1170 C1168 1.384 . S
C1170 C1171 1.372 . S
C1171 C1170 1.372 . S
C1171 C1172 1.400 . S
C1171 C1176 1.490 . S
C1172 H1162 0.930 . S
C1172 C1171 1.400 . S
C1172 C1175 1.386 . S
H1173 C1189 0.930 . S
H1174 C1190 0.931 . S
C1175 H1163 0.929 . S
C1175 C1169 1.390 . S
C1175 C1172 1.386 . S
C1176 C1171 1.490 . S
C1176 C1178 1.395 . S
C1176 C1179 1.403 . S
H1177 C1183 0.930 . S
C1178 H1164 0.930 . S
C1178 C1176 1.395 . S
C1178 C1181 1.403 . S
C1179 C1176 1.403 . S
C1179 C1180 1.524 . S
C1179 C1183 1.400 . S
C1180 H1165 0.960 . S
C1180 H1166 0.960 . S
C1180 H1167 0.960 . S
C1180 C1179 1.524 . S
C1181 C1178 1.403 . S
C1181 C1182 1.392 . S
C1181 C1185 1.495 . S
C1182 C1181 1.392 . S
C1182 C1183 1.385 . S
C1182 C1184 1.478 . S
C1183 H1177 0.930 . S
C1183 C1179 1.400 . S
C1183 C1182 1.385 . S
C1184 C1182 1.478 . S
C1184 C1186 1.381 . S
C1184 C1190 1.383 . S
C1185 C1181 1.495 . S
C1185 H1191 0.959 . S
C1185 H1192 0.961 . S
C1185 H1193 0.960 . S
C1186 C1184 1.381 . S
C1186 C1187 1.394 . S
C1186 H1194 0.930 . S
C1187 C1186 1.394 . S
C1187 C1188 1.383 . S
C1187 H1195 0.929 . S
C1188 C1187 1.383 . S
C1188 C1189 1.377 . S
C1189 H1173 0.930 . S
C1189 C1188 1.377 . S
C1189 C1190 1.379 . S
C1190 H1174 0.931 . S
C1190 C1184 1.383 . S
C1190 C1189 1.379 . S
H1191 C1185 0.959 . S
H1192 C1185 0.961 . S
H1193 C1185 0.960 . S
H1194 C1186 0.930 . S
H1195 C1187 0.929 . S
H1196 C1204 0.929 . S
H1197 C1206 0.930 . S
H1198 C1208 0.930 . S
H1199 C1211 0.929 . S
H1200 C1214 0.930 . S
H1201 C1216 0.960 . S
H1202 C1216 0.960 . S
H1203 C1216 0.960 . S
C1204 H1196 0.929 . S
C1204 C1205 1.377 . S
C1204 C1206 1.384 . S
C1205 C1204 1.377 . S
C1205 C1211 1.390 . S
C1206 H1197 0.930 . S
C1206 C1204 1.384 . S
C1206 C1207 1.372 . S
C1207 C1206 1.372 . S
C1207 C1208 1.400 . S
C1207 C1212 1.490 . S
C1208 H1198 0.930 . S
C1208 C1207 1.400 . S
C1208 C1211 1.386 . S
H1209 C1225 0.930 . S
H1210 C1226 0.931 . S
C1211 H1199 0.929 . S
C1211 C1205 1.390 . S
C1211 C1208 1.386 . S
C1212 C1207 1.490 . S
C1212 C1214 1.395 . S
C1212 C1215 1.403 . S
H1213 C1219 0.930 . S
C1214 H1200 0.930 . S
C1214 C1212 1.395 . S
C1214 C1217 1.403 . S
C1215 C1212 1.403 . S
C1215 C1216 1.524 . S
C1215 C1219 1.400 . S
C1216 H1201 0.960 . S
C1216 H1202 0.960 . S
C1216 H1203 0.960 . S
C1216 C1215 1.524 . S
C1217 C1214 1.403 . S
C1217 C1218 1.392 . S
C1217 C1221 1.495 . S
C1218 C1217 1.392 . S
C1218 C1219 1.385 . S
C1218 C1220 1.478 . S
C1219 H1213 0.930 . S
C1219 C1215 1.400 . S
C1219 C1218 1.385 . S
C1220 C1218 1.478 . S
C1220 C1222 1.381 . S
C1220 C1226 1.383 . S
C1221 C1217 1.495 . S
C1221 H1227 0.959 . S
C1221 H1228 0.961 . S
C1221 H1229 0.960 . S
C1222 C1220 1.381 . S
C1222 C1223 1.394 . S
C1222 H1230 0.930 . S
C1223 C1222 1.394 . S
C1223 C1224 1.383 . S
C1223 H1231 0.929 . S
C1224 C1223 1.383 . S
C1224 C1225 1.377 . S
C1225 H1209 0.930 . S
C1225 C1224 1.377 . S
C1225 C1226 1.379 . S
C1226 H1210 0.931 . S
C1226 C1220 1.383 . S
C1226 C1225 1.379 . S
H1227 C1221 0.959 . S
H1228 C1221 0.961 . S
H1229 C1221 0.960 . S
H1230 C1222 0.930 . S
H1231 C1223 0.929 . S
H1232 C1240 0.929 . S
H1233 C1242 0.930 . S
H1234 C1244 0.930 . S
H1235 C1247 0.929 . S
H1236 C1250 0.930 . S
H1237 C1252 0.960 . S
H1238 C1252 0.960 . S
H1239 C1252 0.960 . S
C1240 H1232 0.929 . S
C1240 C1241 1.377 . S
C1240 C1242 1.384 . S
C1241 C1240 1.377 . S
C1241 C1247 1.390 . S
C1242 H1233 0.930 . S
C1242 C1240 1.384 . S
C1242 C1243 1.372 . S
C1243 C1242 1.372 . S
C1243 C1244 1.400 . S
C1243 C1248 1.490 . S
C1244 H1234 0.930 . S
C1244 C1243 1.400 . S
C1244 C1247 1.386 . S
H1245 C1261 0.930 . S
H1246 C1262 0.931 . S
C1247 H1235 0.929 . S
C1247 C1241 1.390 . S
C1247 C1244 1.386 . S
C1248 C1243 1.490 . S
C1248 C1250 1.395 . S
C1248 C1251 1.403 . S
H1249 C1255 0.930 . S
C1250 H1236 0.930 . S
C1250 C1248 1.395 . S
C1250 C1253 1.403 . S
C1251 C1248 1.403 . S
C1251 C1252 1.524 . S
C1251 C1255 1.400 . S
C1252 H1237 0.960 . S
C1252 H1238 0.960 . S
C1252 H1239 0.960 . S
C1252 C1251 1.524 . S
C1253 C1250 1.403 . S
C1253 C1254 1.392 . S
C1253 C1257 1.495 . S
C1254 C1253 1.392 . S
C1254 C1255 1.385 . S
C1254 C1256 1.478 . S
C1255 H1249 0.930 . S
C1255 C1251 1.400 . S
C1255 C1254 1.385 . S
C1256 C1254 1.478 . S
C1256 C1258 1.381 . S
C1256 C1262 1.383 . S
C1257 C1253 1.495 . S
C1257 H1263 0.959 . S
C1257 H1264 0.961 . S
C1257 H1265 0.960 . S
C1258 C1256 1.381 . S
C1258 C1259 1.394 . S
C1258 H1266 0.930 . S
C1259 C1258 1.394 . S
C1259 C1260 1.383 . S
C1259 H1267 0.929 . S
C1260 C1259 1.383 . S
C1260 C1261 1.377 . S
C1261 H1245 0.930 . S
C1261 C1260 1.377 . S
C1261 C1262 1.379 . S
C1262 H1246 0.931 . S
C1262 C1256 1.383 . S
C1262 C1261 1.379 . S
H1263 C1257 0.959 . S
H1264 C1257 0.961 . S
H1265 C1257 0.960 . S
H1266 C1258 0.930 . S
H1267 C1259 0.929 . S
H1268 C1276 0.929 . S
H1269 C1278 0.930 . S
H1270 C1280 0.930 . S
H1271 C1283 0.929 . S
H1272 C1286 0.930 . S
H1273 C1288 0.960 . S
H1274 C1288 0.960 . S
H1275 C1288 0.960 . S
C1276 H1268 0.929 . S
C1276 C1277 1.377 . S
C1276 C1278 1.384 . S
C1277 C1276 1.377 . S
C1277 C1283 1.390 . S
C1278 H1269 0.930 . S
C1278 C1276 1.384 . S
C1278 C1279 1.372 . S
C1279 C1278 1.372 . S
C1279 C1280 1.400 . S
C1279 C1284 1.490 . S
C1280 H1270 0.930 . S
C1280 C1279 1.400 . S
C1280 C1283 1.386 . S
H1281 C1297 0.930 . S
H1282 C1298 0.931 . S
C1283 H1271 0.929 . S
C1283 C1277 1.390 . S
C1283 C1280 1.386 . S
C1284 C1279 1.490 . S
C1284 C1286 1.395 . S
C1284 C1287 1.403 . S
H1285 C1291 0.930 . S
C1286 H1272 0.930 . S
C1286 C1284 1.395 . S
C1286 C1289 1.403 . S
C1287 C1284 1.403 . S
C1287 C1288 1.524 . S
C1287 C1291 1.400 . S
C1288 H1273 0.960 . S
C1288 H1274 0.960 . S
C1288 H1275 0.960 . S
C1288 C1287 1.524 . S
C1289 C1286 1.403 . S
C1289 C1290 1.392 . S
C1289 C1293 1.495 . S
C1290 C1289 1.392 . S
C1290 C1291 1.385 . S
C1290 C1292 1.478 . S
C1291 H1285 0.930 . S
C1291 C1287 1.400 . S
C1291 C1290 1.385 . S
C1292 C1290 1.478 . S
C1292 C1294 1.381 . S
C1292 C1298 1.383 . S
C1293 C1289 1.495 . S
C1293 H1299 0.959 . S
C1293 H1300 0.961 . S
C1293 H1301 0.960 . S
C1294 C1292 1.381 . S
C1294 C1295 1.394 . S
C1294 H1302 0.930 . S
C1295 C1294 1.394 . S
C1295 C1296 1.383 . S
C1295 H1303 0.929 . S
C1296 C1295 1.383 . S
C1296 C1297 1.377 . S
C1297 H1281 0.930 . S
C1297 C1296 1.377 . S
C1297 C1298 1.379 . S
C1298 H1282 0.931 . S
C1298 C1292 1.383 . S
C1298 C1297 1.379 . S
H1299 C1293 0.959 . S
H1300 C1293 0.961 . S
H1301 C1293 0.960 . S
H1302 C1294 0.930 . S
H1303 C1295 0.929 . S
H1304 C1312 0.929 . S
H1305 C1314 0.930 . S
H1306 C1316 0.930 . S
H1307 C1319 0.929 . S
H1308 C1322 0.930 . S
H1309 C1324 0.960 . S
H1310 C1324 0.960 . S
H1311 C1324 0.960 . S
C1312 H1304 0.929 . S
C1312 C1313 1.377 . S
C1312 C1314 1.384 . S
C1313 C1312 1.377 . S
C1313 C1319 1.390 . S
C1314 H1305 0.930 . S
C1314 C1312 1.384 . S
C1314 C1315 1.372 . S
C1315 C1314 1.372 . S
C1315 C1316 1.400 . S
C1315 C1320 1.490 . S
C1316 H1306 0.930 . S
C1316 C1315 1.400 . S
C1316 C1319 1.386 . S
H1317 C1333 0.930 . S
H1318 C1334 0.931 . S
C1319 H1307 0.929 . S
C1319 C1313 1.390 . S
C1319 C1316 1.386 . S
C1320 C1315 1.490 . S
C1320 C1322 1.395 . S
C1320 C1323 1.403 . S
H1321 C1327 0.930 . S
C1322 H1308 0.930 . S
C1322 C1320 1.395 . S
C1322 C1325 1.403 . S
C1323 C1320 1.403 . S
C1323 C1324 1.524 . S
C1323 C1327 1.400 . S
C1324 H1309 0.960 . S
C1324 H1310 0.960 . S
C1324 H1311 0.960 . S
C1324 C1323 1.524 . S
C1325 C1322 1.403 . S
C1325 C1326 1.392 . S
C1325 C1329 1.495 . S
C1326 C1325 1.392 . S
C1326 C1327 1.385 . S
C1326 C1328 1.478 . S
C1327 H1321 0.930 . S
C1327 C1323 1.400 . S
C1327 C1326 1.385 . S
C1328 C1326 1.478 . S
C1328 C1330 1.381 . S
C1328 C1334 1.383 . S
C1329 C1325 1.495 . S
C1329 H1335 0.959 . S
C1329 H1336 0.961 . S
C1329 H1337 0.960 . S
C1330 C1328 1.381 . S
C1330 C1331 1.394 . S
C1330 H1338 0.930 . S
C1331 C1330 1.394 . S
C1331 C1332 1.383 . S
C1331 H1339 0.929 . S
C1332 C1331 1.383 . S
C1332 C1333 1.377 . S
C1333 H1317 0.930 . S
C1333 C1332 1.377 . S
C1333 C1334 1.379 . S
C1334 H1318 0.931 . S
C1334 C1328 1.383 . S
C1334 C1333 1.379 . S
H1335 C1329 0.959 . S
H1336 C1329 0.961 . S
H1337 C1329 0.960 . S
H1338 C1330 0.930 . S
H1339 C1331 0.929 . S
H1340 C1348 0.929 . S
H1341 C1350 0.930 . S
H1342 C1352 0.930 . S
H1343 C1355 0.929 . S
H1344 C1358 0.930 . S
H1345 C1360 0.960 . S
H1346 C1360 0.960 . S
H1347 C1360 0.960 . S
C1348 H1340 0.929 . S
C1348 C1349 1.377 . S
C1348 C1350 1.384 . S
C1349 C1348 1.377 . S
C1349 C1355 1.390 . S
C1350 H1341 0.930 . S
C1350 C1348 1.384 . S
C1350 C1351 1.372 . S
C1351 C1350 1.372 . S
C1351 C1352 1.400 . S
C1351 C1356 1.490 . S
C1352 H1342 0.930 . S
C1352 C1351 1.400 . S
C1352 C1355 1.386 . S
H1353 C1369 0.930 . S
H1354 C1370 0.931 . S
C1355 H1343 0.929 . S
C1355 C1349 1.390 . S
C1355 C1352 1.386 . S
C1356 C1351 1.490 . S
C1356 C1358 1.395 . S
C1356 C1359 1.403 . S
H1357 C1363 0.930 . S
C1358 H1344 0.930 . S
C1358 C1356 1.395 . S
C1358 C1361 1.403 . S
C1359 C1356 1.403 . S
C1359 C1360 1.524 . S
C1359 C1363 1.400 . S
C1360 H1345 0.960 . S
C1360 H1346 0.960 . S
C1360 H1347 0.960 . S
C1360 C1359 1.524 . S
C1361 C1358 1.403 . S
C1361 C1362 1.392 . S
C1361 C1365 1.495 . S
C1362 C1361 1.392 . S
C1362 C1363 1.385 . S
C1362 C1364 1.478 . S
C1363 H1357 0.930 . S
C1363 C1359 1.400 . S
C1363 C1362 1.385 . S
C1364 C1362 1.478 . S
C1364 C1366 1.381 . S
C1364 C1370 1.383 . S
C1365 C1361 1.495 . S
C1365 H1371 0.959 . S
C1365 H1372 0.961 . S
C1365 H1373 0.960 . S
C1366 C1364 1.381 . S
C1366 C1367 1.394 . S
C1366 H1374 0.930 . S
C1367 C1366 1.394 . S
C1367 C1368 1.383 . S
C1367 H1375 0.929 . S
C1368 C1367 1.383 . S
C1368 C1369 1.377 . S
C1369 H1353 0.930 . S
C1369 C1368 1.377 . S
C1369 C1370 1.379 . S
C1370 H1354 0.931 . S
C1370 C1364 1.383 . S
C1370 C1369 1.379 . S
H1371 C1365 0.959 . S
H1372 C1365 0.961 . S
H1373 C1365 0.960 . S
H1374 C1366 0.930 . S
H1375 C1367 0.929 . S
C233 C221 0.876 . S
C252 C11 0.860 . S
C269 C179 0.880 . S
C288 C25 0.859 . S
C305 C39 0.879 . S
C324 C193 0.869 . S
C341 C207 0.879 . S
C360 C53 0.871 . S
C377 C137 0.876 . S
C396 C67 0.888 . S
C413 C81 0.879 . S
C432 C151 0.855 . S
C449 C95 0.877 . S
C468 C165 0.856 . S
C485 C109 0.878 . S
C504 C123 0.878 . S
C521 C79 1.393 . S
C540 C5 1.412 . S
C557 C89 1.417 . S
C576 C23 1.411 . S
C593 C107 1.396 . S
C612 C33 1.411 . S
C629 C51 1.398 . S
C648 C61 1.410 . S
C665 C0 1.512 . S
C684 C14 1.485 . S
C701 C37 1.394 . S
C720 C19 1.412 . S
C737 C28 1.510 . S
C756 C42 1.503 . S
C773 C9 1.396 . S
C792 C47 1.411 . S
C809 C98 1.507 . S
C828 C56 1.502 . S
C845 C65 1.397 . S
C864 C75 1.415 . S
C881 C70 1.511 . S
C900 C84 1.485 . S
C917 C103 1.417 . S
C936 C93 1.383 . S
C953 C191 1.391 . S
C972 C117 1.416 . S
C989 C135 1.395 . S
C1008 C201 1.411 . S
C1025 C219 1.393 . S
C1044 C145 1.412 . S
C1061 C173 1.418 . S
C1080 C163 1.374 . S
C1097 C112 1.506 . S
C1116 C126 1.508 . S
C1133 C131 1.416 . S
C1152 C149 1.409 . S
C1169 C154 1.507 . S
C1188 C140 1.517 . S
C1205 C121 1.393 . S
C1224 C159 1.417 . S
C1241 C210 1.512 . S
C1260 C168 1.486 . S
C1277 C177 1.393 . S
C1296 C187 1.413 . S
C1313 C182 1.512 . S
C1332 C196 1.488 . S
C1349 C215 1.416 . S
C1368 C205 1.409 . S
