# Generated by pormake.
# Topology unv, (4)-cn, num edge types: 1
# Building blocks:
#     Node 0, Type 0, BuildingBlock: ICAMEG_clean_sbu_1, # of connection points: 4
#     Node 1, Type 0, BuildingBlock: ICAMEG_clean_sbu_1, # of connection points: 4
#     Node 2, Type 0, BuildingBlock: ICAMEG_clean_sbu_1, # of connection points: 4
#     Node 3, Type 0, BuildingBlock: ICAMEG_clean_sbu_1, # of connection points: 4
#     Node 4, Type 0, BuildingBlock: ICAMEG_clean_sbu_1, # of connection points: 4
#     Node 5, Type 0, BuildingBlock: ICAMEG_clean_sbu_1, # of connection points: 4
#     Node 6, Type 0, BuildingBlock: ICAMEG_clean_sbu_1, # of connection points: 4
#     Node 7, Type 0, BuildingBlock: ICAMEG_clean_sbu_1, # of connection points: 4
#     Node 8, Type 0, BuildingBlock: ICAMEG_clean_sbu_1, # of connection points: 4
#     Node 9, Type 0, BuildingBlock: ICAMEG_clean_sbu_1, # of connection points: 4
#     Node 10, Type 0, BuildingBlock: ICAMEG_clean_sbu_1, # of connection points: 4
#     Node 11, Type 0, BuildingBlock: ICAMEG_clean_sbu_1, # of connection points: 4
#     Node 12, Type 0, BuildingBlock: ICAMEG_clean_sbu_1, # of connection points: 4
#     Node 13, Type 0, BuildingBlock: ICAMEG_clean_sbu_1, # of connection points: 4
#     Node 14, Type 0, BuildingBlock: ICAMEG_clean_sbu_1, # of connection points: 4
#     Node 15, Type 0, BuildingBlock: ICAMEG_clean_sbu_1, # of connection points: 4
#     Node 16, Type 0, BuildingBlock: ICAMEG_clean_sbu_1, # of connection points: 4
#     Node 17, Type 0, BuildingBlock: ICAMEG_clean_sbu_1, # of connection points: 4
#     Node 18, Type 0, BuildingBlock: ICAMEG_clean_sbu_1, # of connection points: 4
#     Node 19, Type 0, BuildingBlock: ICAMEG_clean_sbu_1, # of connection points: 4
#     Node 20, Type 0, BuildingBlock: ICAMEG_clean_sbu_1, # of connection points: 4
#     Node 21, Type 0, BuildingBlock: ICAMEG_clean_sbu_1, # of connection points: 4
#     Node 22, Type 0, BuildingBlock: ICAMEG_clean_sbu_1, # of connection points: 4
#     Node 23, Type 0, BuildingBlock: ICAMEG_clean_sbu_1, # of connection points: 4
#     Edge 24, Type (0, 0), BuildingBlock: OJICUG_clean_linker_0, # of connection points: 2
#     Edge 25, Type (0, 0), BuildingBlock: OJICUG_clean_linker_0, # of connection points: 2
#     Edge 26, Type (0, 0), BuildingBlock: OJICUG_clean_linker_0, # of connection points: 2
#     Edge 27, Type (0, 0), BuildingBlock: OJICUG_clean_linker_0, # of connection points: 2
#     Edge 28, Type (0, 0), BuildingBlock: OJICUG_clean_linker_0, # of connection points: 2
#     Edge 29, Type (0, 0), BuildingBlock: OJICUG_clean_linker_0, # of connection points: 2
#     Edge 30, Type (0, 0), BuildingBlock: OJICUG_clean_linker_0, # of connection points: 2
#     Edge 31, Type (0, 0), BuildingBlock: OJICUG_clean_linker_0, # of connection points: 2
#     Edge 32, Type (0, 0), BuildingBlock: OJICUG_clean_linker_0, # of connection points: 2
#     Edge 33, Type (0, 0), BuildingBlock: OJICUG_clean_linker_0, # of connection points: 2
#     Edge 34, Type (0, 0), BuildingBlock: OJICUG_clean_linker_0, # of connection points: 2
#     Edge 35, Type (0, 0), BuildingBlock: OJICUG_clean_linker_0, # of connection points: 2
#     Edge 36, Type (0, 0), BuildingBlock: OJICUG_clean_linker_0, # of connection points: 2
#     Edge 37, Type (0, 0), BuildingBlock: OJICUG_clean_linker_0, # of connection points: 2
#     Edge 38, Type (0, 0), BuildingBlock: OJICUG_clean_linker_0, # of connection points: 2
#     Edge 39, Type (0, 0), BuildingBlock: OJICUG_clean_linker_0, # of connection points: 2
#     Edge 40, Type (0, 0), BuildingBlock: OJICUG_clean_linker_0, # of connection points: 2
#     Edge 41, Type (0, 0), BuildingBlock: OJICUG_clean_linker_0, # of connection points: 2
#     Edge 42, Type (0, 0), BuildingBlock: OJICUG_clean_linker_0, # of connection points: 2
#     Edge 43, Type (0, 0), BuildingBlock: OJICUG_clean_linker_0, # of connection points: 2
#     Edge 44, Type (0, 0), BuildingBlock: OJICUG_clean_linker_0, # of connection points: 2
#     Edge 45, Type (0, 0), BuildingBlock: OJICUG_clean_linker_0, # of connection points: 2
#     Edge 46, Type (0, 0), BuildingBlock: OJICUG_clean_linker_0, # of connection points: 2
#     Edge 47, Type (0, 0), BuildingBlock: OJICUG_clean_linker_0, # of connection points: 2
#     Edge 48, Type (0, 0), BuildingBlock: OJICUG_clean_linker_0, # of connection points: 2
#     Edge 49, Type (0, 0), BuildingBlock: OJICUG_clean_linker_0, # of connection points: 2
#     Edge 50, Type (0, 0), BuildingBlock: OJICUG_clean_linker_0, # of connection points: 2
#     Edge 51, Type (0, 0), BuildingBlock: OJICUG_clean_linker_0, # of connection points: 2
#     Edge 52, Type (0, 0), BuildingBlock: OJICUG_clean_linker_0, # of connection points: 2
#     Edge 53, Type (0, 0), BuildingBlock: OJICUG_clean_linker_0, # of connection points: 2
#     Edge 54, Type (0, 0), BuildingBlock: OJICUG_clean_linker_0, # of connection points: 2
#     Edge 55, Type (0, 0), BuildingBlock: OJICUG_clean_linker_0, # of connection points: 2
#     Edge 56, Type (0, 0), BuildingBlock: OJICUG_clean_linker_0, # of connection points: 2
#     Edge 57, Type (0, 0), BuildingBlock: OJICUG_clean_linker_0, # of connection points: 2
#     Edge 58, Type (0, 0), BuildingBlock: OJICUG_clean_linker_0, # of connection points: 2
#     Edge 59, Type (0, 0), BuildingBlock: OJICUG_clean_linker_0, # of connection points: 2
#     Edge 60, Type (0, 0), BuildingBlock: OJICUG_clean_linker_0, # of connection points: 2
#     Edge 61, Type (0, 0), BuildingBlock: OJICUG_clean_linker_0, # of connection points: 2
#     Edge 62, Type (0, 0), BuildingBlock: OJICUG_clean_linker_0, # of connection points: 2
#     Edge 63, Type (0, 0), BuildingBlock: OJICUG_clean_linker_0, # of connection points: 2
#     Edge 64, Type (0, 0), BuildingBlock: OJICUG_clean_linker_0, # of connection points: 2
#     Edge 65, Type (0, 0), BuildingBlock: OJICUG_clean_linker_0, # of connection points: 2
#     Edge 66, Type (0, 0), BuildingBlock: OJICUG_clean_linker_0, # of connection points: 2
#     Edge 67, Type (0, 0), BuildingBlock: OJICUG_clean_linker_0, # of connection points: 2
#     Edge 68, Type (0, 0), BuildingBlock: OJICUG_clean_linker_0, # of connection points: 2
#     Edge 69, Type (0, 0), BuildingBlock: OJICUG_clean_linker_0, # of connection points: 2
#     Edge 70, Type (0, 0), BuildingBlock: OJICUG_clean_linker_0, # of connection points: 2
#     Edge 71, Type (0, 0), BuildingBlock: OJICUG_clean_linker_0, # of connection points: 2
# Relax obj value: 0.181
# Max RMSD: 0.148
# Mean RMSD: 0.128
data_MOF--net-unv--node1-ICAMEG_clean_sbu_1--edge1-OJICUG_clean_linker_0
_symmetry_space_group_name_H-M    P1
_symmetry_Int_Tables_number       1
_symmetry_cell_setting            triclinic
loop_
_symmetry_equiv_pos_as_xyz
'x, y, z'
_cell_length_a     39.317349
_cell_length_b     39.311691
_cell_length_c     39.321699
_cell_angle_alpha  89.971216
_cell_angle_beta   89.964578
_cell_angle_gamma 89.965281
loop_
_atom_site_label
_atom_site_type_symbol
_atom_site_fract_x
_atom_site_fract_y
_atom_site_fract_z
_atom_type_partial_charge
Co0 Co 0.9996 0.05966 0.36536 0.0
Co1 Co 0.94734 0.11469 0.41014 0.0
O2 O 0.96961 0.09921 0.3682 0.0
C3 C 0.9455 0.04154 0.31599 0.0
O4 O 0.92231 0.05465 0.33611 0.0
C5 C 0.99018 0.17328 0.39069 0.0
O6 O 0.0153 0.15167 0.38651 0.0
O7 O 0.98973 0.10854 0.43773 0.0
O8 O 0.023 0.07329 0.40766 0.0
H9 H 0.91559 0.10924 0.53384 0.0
H10 H 0.99271 0.10514 0.30584 0.0
O11 O 0.97699 0.04386 0.32298 0.0
H12 H 0.11433 0.10864 0.33625 0.0
H13 H 0.07419 0.97458 0.30512 0.0
H14 H 0.02557 0.00946 0.41536 0.0
H15 H 0.07431 0.07293 0.36881 0.0
H16 H 0.03704 0.02501 0.30904 0.0
O17 O 0.96091 0.16269 0.39968 0.0
H18 H 0.94348 0.08958 0.48121 0.0
H19 H 0.90361 0.17429 0.42723 0.0
H20 H 0.06305 0.95922 0.41266 0.0
H21 H 0.0319 0.14101 0.27236 0.0
H22 H 0.08753 0.94139 0.35722 0.0
H23 H 0.09317 0.14296 0.28759 0.0
O24 O 0.96719 0.03161 0.39208 0.0
H25 H 0.87845 0.15466 0.31019 0.0
H26 H 0.87511 0.09368 0.41977 0.0
H27 H 0.82245 0.09984 0.38627 0.0
H28 H 0.82391 0.13058 0.33108 0.0
H29 H 0.93058 0.14767 0.34439 0.0
H30 H 0.87549 0.19502 0.47937 0.0
H31 H 0.8813 0.16234 0.53313 0.0
O32 O 0.93346 0.06723 0.42151 0.0
C33 C 0.01692 0.09122 0.43384 0.0
C34 C 0.91277 0.12365 0.51055 0.0
C35 C 0.8903 0.17181 0.47998 0.0
N36 N 0.92492 0.1306 0.45112 0.0
C37 C 0.92841 0.11258 0.48064 0.0
C38 C 0.90633 0.15998 0.45056 0.0
C39 C 0.89356 0.15346 0.51014 0.0
C40 C 0.01939 0.1057 0.31243 0.0
N41 N 0.03125 0.0869 0.33913 0.0
C42 C 0.04144 0.12612 0.29347 0.0
C43 C 0.07581 0.12723 0.30205 0.0
C44 C 0.08769 0.108 0.32936 0.0
C45 C 0.0649 0.08789 0.34776 0.0
C46 C 0.06372 0.98213 0.32944 0.0
C47 C 0.03639 0.00208 0.39118 0.0
C48 C 0.04262 0.01063 0.33181 0.0
N49 N 0.02939 0.02037 0.36246 0.0
C50 C 0.05747 0.9735 0.3898 0.0
C51 C 0.07119 0.96351 0.35868 0.0
C52 C 0.94303 0.03745 0.41295 0.0
C53 C 0.87748 0.14129 0.33424 0.0
C54 C 0.87597 0.10699 0.39573 0.0
C55 C 0.84605 0.11047 0.37691 0.0
C56 C 0.84689 0.12774 0.34595 0.0
N57 N 0.90585 0.12045 0.38411 0.0
C58 C 0.90688 0.13736 0.35377 0.0
Co59 Co 0.99706 0.43102 0.36558 0.0
Co60 Co 0.05264 0.37844 0.40918 0.0
O61 O 0.02918 0.39322 0.36779 0.0
C62 C 0.04534 0.46095 0.31428 0.0
O63 O 0.06904 0.46475 0.33746 0.0
C64 C 0.0126 0.31841 0.38951 0.0
O65 O 0.98697 0.33943 0.38549 0.0
O66 O 0.01033 0.3816 0.43738 0.0
O67 O 0.97567 0.41683 0.4089 0.0
H68 H 0.08624 0.38479 0.53232 0.0
H69 H 0.00443 0.38453 0.30675 0.0
O70 O 0.01729 0.44638 0.32148 0.0
H71 H 0.8841 0.37586 0.34111 0.0
H72 H 0.91601 0.51072 0.30636 0.0
H73 H 0.96977 0.48057 0.41558 0.0
H74 H 0.92322 0.41429 0.37147 0.0
H75 H 0.95614 0.46262 0.30993 0.0
O76 O 0.04163 0.3298 0.39833 0.0
H77 H 0.05632 0.40321 0.48038 0.0
H78 H 0.09972 0.32114 0.42508 0.0
H79 H 0.92952 0.52863 0.41319 0.0
H80 H 0.96611 0.346 0.27543 0.0
H81 H 0.90233 0.54399 0.35831 0.0
H82 H 0.9055 0.34141 0.29266 0.0
O83 O 0.02847 0.46105 0.39162 0.0
H84 H 0.12276 0.34379 0.30808 0.0
H85 H 0.1235 0.40378 0.4182 0.0
H86 H 0.1761 0.40116 0.38408 0.0
H87 H 0.17596 0.37091 0.32863 0.0
H88 H 0.07064 0.34729 0.3429 0.0
H89 H 0.12987 0.30162 0.47653 0.0
H90 H 0.12333 0.33363 0.5306 0.0
O91 O 0.06349 0.42651 0.42094 0.0
C92 C 0.98263 0.39825 0.43444 0.0
C93 C 0.08937 0.37068 0.50889 0.0
C94 C 0.11382 0.32398 0.47759 0.0
N95 N 0.07646 0.36341 0.44968 0.0
C96 C 0.07257 0.38104 0.47937 0.0
C97 C 0.09662 0.3351 0.44856 0.0
C98 C 0.11015 0.34195 0.50791 0.0
C99 C 0.97802 0.38286 0.3142 0.0
N100 N 0.96606 0.4017 0.34085 0.0
C101 C 0.95647 0.36092 0.29646 0.0
C102 C 0.92248 0.35833 0.30617 0.0
C103 C 0.91046 0.37763 0.33336 0.0
C104 C 0.93276 0.39928 0.35053 0.0
C105 C 0.92765 0.50424 0.33045 0.0
C106 C 0.95791 0.48695 0.39162 0.0
C107 C 0.95048 0.47708 0.33261 0.0
N108 N 0.96516 0.46864 0.36297 0.0
C109 C 0.93519 0.51426 0.39042 0.0
C110 C 0.91998 0.52289 0.3596 0.0
C111 C 0.05249 0.45598 0.41291 0.0
C112 C 0.12316 0.35697 0.33224 0.0
C113 C 0.1232 0.3907 0.39403 0.0
C114 C 0.15309 0.38922 0.37486 0.0
C115 C 0.15299 0.37223 0.34377 0.0
N116 N 0.09409 0.37556 0.3826 0.0
C117 C 0.09376 0.35895 0.3521 0.0
Co118 Co 0.97841 0.93619 0.14193 0.0
Co119 Co 0.93206 0.88082 0.09165 0.0
O120 O 0.95007 0.89605 0.13551 0.0
C121 C 0.93057 0.97091 0.19032 0.0
O122 O 0.91641 0.98751 0.1651 0.0
C123 C 0.97467 0.8235 0.1144 0.0
O124 O 0.9985 0.84607 0.1204 0.0
O125 O 0.97661 0.88805 0.06832 0.0
O126 O 0.00504 0.92577 0.10031 0.0
H127 H 0.91189 0.88696 0.9656 0.0
H128 H 0.97005 0.88699 0.1985 0.0
O129 O 0.95254 0.94763 0.18459 0.0
H130 H 0.09326 0.89025 0.17519 0.0
H131 H 0.04581 0.02007 0.21138 0.0
H132 H 0.00526 0.99027 0.09654 0.0
H133 H 0.05363 0.92606 0.14229 0.0
H134 H 0.01122 0.96862 0.20222 0.0
O135 O 0.94582 0.83298 0.10302 0.0
H136 H 0.93429 0.90663 0.02075 0.0
H137 H 0.89153 0.82054 0.07009 0.0
H138 H 0.04038 0.04159 0.10448 0.0
H139 H 0.00882 0.85097 0.23224 0.0
H140 H 0.06075 0.05691 0.16223 0.0
H141 H 0.0709 0.85241 0.2206 0.0
O142 O 0.94715 0.96386 0.11369 0.0
H143 H 0.85483 0.83798 0.18409 0.0
H144 H 0.86068 0.9007 0.07559 0.0
H145 H 0.80517 0.89287 0.10379 0.0
H146 H 0.802 0.86122 0.15839 0.0
H147 H 0.90986 0.84666 0.15518 0.0
H148 H 0.86886 0.79979 0.01541 0.0
H149 H 0.87889 0.83317 0.9627 0.0
O150 O 0.91844 0.92829 0.07936 0.0
C151 C 0.00217 0.90721 0.07395 0.0
C152 C 0.90723 0.87226 0.98842 0.0
C153 C 0.88312 0.82331 0.01637 0.0
N154 N 0.91394 0.86492 0.04865 0.0
C155 C 0.91975 0.88333 0.01974 0.0
C156 C 0.89606 0.83515 0.04724 0.0
C157 C 0.88875 0.84206 0.9868 0.0
C158 C 0.99707 0.88797 0.1935 0.0
N159 N 0.00958 0.90876 0.16861 0.0
C160 C 0.01888 0.86743 0.21259 0.0
C161 C 0.05371 0.86822 0.20602 0.0
C162 C 0.06627 0.88942 0.18053 0.0
C163 C 0.04369 0.90959 0.16193 0.0
C164 C 0.03708 0.01369 0.18608 0.0
C165 C 0.01424 0.99659 0.12173 0.0
C166 C 0.01737 0.98464 0.18075 0.0
N167 N 0.00629 0.97636 0.14886 0.0
C168 C 0.03401 0.02577 0.12608 0.0
C169 C 0.04545 0.03434 0.1585 0.0
C170 C 0.92597 0.95807 0.08984 0.0
C171 C 0.85588 0.85175 0.16027 0.0
C172 C 0.85952 0.88704 0.09943 0.0
C173 C 0.82801 0.88261 0.11523 0.0
C174 C 0.82625 0.86482 0.14585 0.0
N175 N 0.88845 0.87401 0.11366 0.0
C176 C 0.88694 0.85666 0.14373 0.0
Co177 Co 0.98996 0.56695 0.14057 0.0
Co178 Co 0.04774 0.62162 0.10273 0.0
O179 O 0.02173 0.60505 0.14204 0.0
C180 C 0.03908 0.54239 0.19302 0.0
O181 O 0.06485 0.55448 0.17554 0.0
C182 C 0.00369 0.67963 0.12035 0.0
O183 O 0.97892 0.65745 0.12322 0.0
O184 O 0.00806 0.61729 0.07102 0.0
O185 O 0.97016 0.58412 0.09773 0.0
H186 H 0.09116 0.61946 0.9825 0.0
H187 H 0.99479 0.60876 0.20288 0.0
O188 O 0.0086 0.54766 0.18355 0.0
H189 H 0.8758 0.61992 0.16486 0.0
H190 H 0.90682 0.48306 0.19035 0.0
H191 H 0.96585 0.52063 0.08621 0.0
H192 H 0.91625 0.58394 0.13315 0.0
H193 H 0.9465 0.53161 0.19194 0.0
O194 O 0.0337 0.66959 0.11328 0.0
H195 H 0.05799 0.5987 0.03154 0.0
H196 H 0.09361 0.68095 0.09177 0.0
H197 H 0.92628 0.47211 0.08349 0.0
H198 H 0.95511 0.64479 0.23561 0.0
H199 H 0.89638 0.45303 0.13576 0.0
H200 H 0.89516 0.65061 0.21654 0.0
O201 O 0.02294 0.53891 0.11423 0.0
H202 H 0.10772 0.65717 0.20976 0.0
H203 H 0.1201 0.59925 0.09922 0.0
H204 H 0.16952 0.60321 0.13765 0.0
H205 H 0.16349 0.63241 0.19334 0.0
H206 H 0.0589 0.65238 0.17066 0.0
H207 H 0.12694 0.70278 0.04327 0.0
H208 H 0.12595 0.67188 0.98819 0.0
O209 O 0.06161 0.57423 0.09109 0.0
C210 C 0.97951 0.60196 0.07246 0.0
C211 C 0.09189 0.63309 0.00639 0.0
C212 C 0.11193 0.67988 0.04049 0.0
N213 N 0.0741 0.63843 0.06456 0.0
C214 C 0.07325 0.6214 0.03429 0.0
C215 C 0.09296 0.66744 0.06784 0.0
C216 C 0.11138 0.66252 0.0096 0.0
C217 C 0.96867 0.61099 0.19461 0.0
N218 N 0.95781 0.59422 0.16621 0.0
C219 C 0.94635 0.6315 0.21316 0.0
C220 C 0.91273 0.63479 0.20243 0.0
C221 C 0.90185 0.6176 0.17342 0.0
C222 C 0.92489 0.59734 0.1555 0.0
C223 C 0.9196 0.49119 0.16735 0.0
C224 C 0.95281 0.51262 0.10907 0.0
C225 C 0.94214 0.51864 0.16811 0.0
N226 N 0.95829 0.52912 0.13914 0.0
C227 C 0.93048 0.48507 0.10737 0.0
C228 C 0.91376 0.47436 0.13673 0.0
C229 C 0.04941 0.5446 0.09626 0.0
C230 C 0.11068 0.64447 0.18552 0.0
C231 C 0.11727 0.61189 0.12345 0.0
C232 C 0.14535 0.61413 0.14507 0.0
C233 C 0.14196 0.63053 0.17631 0.0
N234 N 0.08671 0.62572 0.13264 0.0
C235 C 0.08317 0.64178 0.16324 0.0
Co236 Co 0.3647 0.98844 0.06464 0.0
Co237 Co 0.41571 0.94076 0.11803 0.0
O238 O 0.37181 0.95998 0.10457 0.0
C239 C 0.31373 0.93678 0.04037 0.0
O240 O 0.33792 0.91523 0.03229 0.0
C241 C 0.39594 0.98302 0.17654 0.0
O242 O 0.3903 0.00749 0.15453 0.0
O243 O 0.43984 0.98487 0.11058 0.0
O244 O 0.40785 0.01321 0.0728 0.0
H245 H 0.54093 0.91747 0.10704 0.0
H246 H 0.31043 0.98275 0.11669 0.0
O247 O 0.32063 0.96469 0.05537 0.0
H248 H 0.3388 0.10482 0.11147 0.0
H249 H 0.29404 0.05805 0.98351 0.0
H250 H 0.40858 0.01336 0.00844 0.0
H251 H 0.36801 0.06367 0.07421 0.0
H252 H 0.30421 0.02328 0.03471 0.0
O253 O 0.40622 0.95401 0.16634 0.0
H254 H 0.48566 0.94153 0.08966 0.0
H255 H 0.43844 0.89891 0.17701 0.0
H256 H 0.39963 0.04851 0.95727 0.0
H257 H 0.28036 0.02307 0.15423 0.0
H258 H 0.34201 0.07101 0.94445 0.0
H259 H 0.29457 0.08458 0.15182 0.0
O260 O 0.38993 0.95575 0.03556 0.0
H261 H 0.32295 0.86503 0.16277 0.0
H262 H 0.42951 0.86932 0.09669 0.0
H263 H 0.40032 0.81437 0.10464 0.0
H264 H 0.34669 0.81198 0.13798 0.0
H265 H 0.35282 0.9195 0.15395 0.0
H266 H 0.49328 0.87459 0.19549 0.0
H267 H 0.54498 0.88372 0.16032 0.0
O268 O 0.42592 0.92759 0.07003 0.0
C269 C 0.43447 0.01013 0.09091 0.0
C270 C 0.51856 0.91321 0.12253 0.0
C271 C 0.49182 0.88919 0.17219 0.0
N272 N 0.45881 0.92136 0.13215 0.0
C273 C 0.48717 0.92668 0.11276 0.0
C274 C 0.46086 0.90307 0.16164 0.0
C275 C 0.52082 0.89431 0.15244 0.0
C276 C 0.31653 0.00952 0.1153 0.0
N277 N 0.34082 0.02086 0.09318 0.0
C278 C 0.29952 0.03221 0.1367 0.0
C279 C 0.30754 0.06671 0.13536 0.0
C280 C 0.33236 0.07808 0.11275 0.0
C281 C 0.34888 0.05465 0.09176 0.0
C282 C 0.31928 0.04843 0.98884 0.0
C283 C 0.38348 0.0233 0.00322 0.0
C284 C 0.32518 0.02864 0.01776 0.0
N285 N 0.35701 0.01647 0.02471 0.0
C286 C 0.37855 0.04307 0.97411 0.0
C287 C 0.3462 0.05569 0.96693 0.0
C288 C 0.41401 0.93456 0.04065 0.0
C289 C 0.34634 0.86573 0.14826 0.0
C290 C 0.4061 0.86851 0.1111 0.0
C291 C 0.38973 0.83731 0.11559 0.0
C292 C 0.35966 0.83598 0.13432 0.0
N293 N 0.39295 0.89755 0.12499 0.0
C294 C 0.36342 0.89648 0.14327 0.0
Co295 Co 0.63527 0.52557 0.06464 0.0
Co296 Co 0.58411 0.5718 0.11933 0.0
O297 O 0.62811 0.5535 0.10491 0.0
C298 C 0.68434 0.57657 0.03544 0.0
O299 O 0.65939 0.59551 0.02395 0.0
C300 C 0.60455 0.5267 0.17527 0.0
O301 O 0.61112 0.50407 0.15166 0.0
O302 O 0.56023 0.52805 0.11012 0.0
O303 O 0.59316 0.49915 0.0736 0.0
H304 H 0.45863 0.59439 0.1101 0.0
H305 H 0.69058 0.53273 0.11533 0.0
O306 O 0.67838 0.55098 0.05452 0.0
H307 H 0.66642 0.40978 0.10978 0.0
H308 H 0.70669 0.45925 0.98146 0.0
H309 H 0.59111 0.49945 0.00922 0.0
H310 H 0.63478 0.4502 0.0737 0.0
H311 H 0.69628 0.49312 0.03316 0.0
O312 O 0.59373 0.55616 0.16699 0.0
H313 H 0.51404 0.57171 0.09133 0.0
H314 H 0.56131 0.61078 0.18018 0.0
H315 H 0.6003 0.46478 0.95779 0.0
H316 H 0.72305 0.49316 0.15166 0.0
H317 H 0.65842 0.44472 0.94341 0.0
H318 H 0.71096 0.43121 0.14907 0.0
O319 O 0.60807 0.55754 0.03668 0.0
H320 H 0.67613 0.64608 0.1677 0.0
H321 H 0.56991 0.64399 0.10108 0.0
H322 H 0.59858 0.69877 0.11168 0.0
H323 H 0.65202 0.70005 0.14532 0.0
H324 H 0.64678 0.59183 0.15623 0.0
H325 H 0.50634 0.6337 0.20006 0.0
H326 H 0.45454 0.62565 0.16484 0.0
O327 O 0.57369 0.58696 0.07185 0.0
C328 C 0.56615 0.50245 0.09112 0.0
C329 C 0.48104 0.5982 0.1256 0.0
C330 C 0.50782 0.62022 0.17611 0.0
N331 N 0.54093 0.59025 0.13446 0.0
C332 C 0.51251 0.58553 0.11504 0.0
C333 C 0.53886 0.60715 0.16476 0.0
C334 C 0.47876 0.6157 0.15634 0.0
C335 C 0.6854 0.50577 0.11385 0.0
N336 N 0.66097 0.49377 0.09228 0.0
C337 C 0.70377 0.48351 0.13457 0.0
C338 C 0.69694 0.44875 0.13314 0.0
C339 C 0.67195 0.43671 0.11111 0.0
C340 C 0.65407 0.45973 0.09079 0.0
C341 C 0.68123 0.46789 0.9874 0.0
C342 C 0.61645 0.4905 0.00337 0.0
C343 C 0.67518 0.4872 0.01659 0.0
N344 N 0.64308 0.49817 0.02431 0.0
C345 C 0.62151 0.47104 0.97409 0.0
C346 C 0.65414 0.45975 0.96608 0.0
C347 C 0.58469 0.57941 0.04222 0.0
C348 C 0.65282 0.64586 0.15307 0.0
C349 C 0.59326 0.64433 0.11559 0.0
C350 C 0.60932 0.67543 0.12159 0.0
C351 C 0.63929 0.67613 0.14048 0.0
N352 N 0.6066 0.61478 0.12816 0.0
C353 C 0.63604 0.61523 0.14659 0.0
Co354 Co 0.36648 0.99496 0.4334 0.0
Co355 Co 0.4093 0.05045 0.38013 0.0
O356 O 0.36824 0.02659 0.39521 0.0
C357 C 0.31539 0.04418 0.46187 0.0
O358 O 0.33834 0.06836 0.46332 0.0
C359 C 0.39093 0.0086 0.32097 0.0
O360 O 0.38696 0.98344 0.34256 0.0
O361 O 0.43825 0.00875 0.38437 0.0
O362 O 0.40976 0.97356 0.41907 0.0
H363 H 0.53179 0.08644 0.38626 0.0
H364 H 0.30712 0.00154 0.38749 0.0
O365 O 0.32253 0.01529 0.44899 0.0
H366 H 0.34196 0.88126 0.37979 0.0
H367 H 0.30829 0.91466 0.5146 0.0
H368 H 0.41704 0.96844 0.48279 0.0
H369 H 0.37258 0.92097 0.41741 0.0
H370 H 0.31126 0.95425 0.46602 0.0
O371 O 0.399 0.03809 0.33174 0.0
H372 H 0.48033 0.05592 0.40508 0.0
H373 H 0.4246 0.09658 0.32194 0.0
H374 H 0.41526 0.92874 0.53132 0.0
H375 H 0.27555 0.96263 0.34977 0.0
H376 H 0.3606 0.90154 0.54751 0.0
H377 H 0.29301 0.90203 0.34568 0.0
O378 O 0.39261 0.02682 0.46284 0.0
H379 H 0.30713 0.11787 0.34335 0.0
H380 H 0.4168 0.12201 0.40401 0.0
H381 H 0.38168 0.17388 0.40007 0.0
H382 H 0.32645 0.17202 0.36948 0.0
H383 H 0.34292 0.06652 0.34816 0.0
H384 H 0.47558 0.1273 0.30202 0.0
H385 H 0.52962 0.12243 0.33437 0.0
O386 O 0.42061 0.06257 0.42797 0.0
C387 C 0.43545 0.98094 0.40086 0.0
C388 C 0.50837 0.08884 0.372 0.0
C389 C 0.47683 0.11173 0.3247 0.0
N390 N 0.44943 0.07468 0.36477 0.0
C391 C 0.47912 0.0717 0.38259 0.0
C392 C 0.44808 0.09422 0.33605 0.0
C393 C 0.50714 0.109 0.34287 0.0
C394 C 0.31469 0.97514 0.38604 0.0
N395 N 0.34159 0.96351 0.4047 0.0
C396 C 0.29679 0.95326 0.36456 0.0
C397 C 0.30663 0.91927 0.36224 0.0
C398 C 0.33411 0.9076 0.38135 0.0
C399 C 0.35142 0.93023 0.40254 0.0
C400 C 0.33228 0.9263 0.50775 0.0
C401 C 0.39318 0.95657 0.48953 0.0
C402 C 0.3341 0.94882 0.48032 0.0
N403 N 0.36434 0.9635 0.47142 0.0
C404 C 0.39232 0.93417 0.5171 0.0
C405 C 0.36164 0.91895 0.5262 0.0
C406 C 0.41316 0.05141 0.45751 0.0
C407 C 0.33118 0.11902 0.35667 0.0
C408 C 0.39273 0.12097 0.39077 0.0
C409 C 0.373 0.15044 0.38855 0.0
C410 C 0.34202 0.14939 0.37137 0.0
N411 N 0.38197 0.09133 0.37618 0.0
C412 C 0.3516 0.09006 0.35938 0.0
Co413 Co 0.63519 0.49437 0.42868 0.0
Co414 Co 0.59128 0.44236 0.37295 0.0
O415 O 0.63267 0.46528 0.38865 0.0
C416 C 0.68673 0.44409 0.45436 0.0
O417 O 0.66375 0.41993 0.45566 0.0
C418 C 0.60831 0.48899 0.31707 0.0
O419 O 0.61255 0.51223 0.34062 0.0
O420 O 0.56229 0.48336 0.38097 0.0
O421 O 0.59158 0.5166 0.4168 0.0
H422 H 0.46889 0.40592 0.37867 0.0
H423 H 0.69355 0.49117 0.38115 0.0
O424 O 0.67953 0.47321 0.44202 0.0
H425 H 0.65846 0.61162 0.38256 0.0
H426 H 0.69465 0.56874 0.51437 0.0
H427 H 0.58554 0.51688 0.48087 0.0
H428 H 0.62866 0.56929 0.418 0.0
H429 H 0.69086 0.53308 0.46293 0.0
O430 O 0.6005 0.45863 0.32543 0.0
H431 H 0.52071 0.4349 0.3988 0.0
H432 H 0.57497 0.40069 0.31185 0.0
H433 H 0.58812 0.55268 0.53226 0.0
H434 H 0.72429 0.53272 0.34552 0.0
H435 H 0.64299 0.57885 0.54936 0.0
H436 H 0.70669 0.59341 0.34602 0.0
O437 O 0.60983 0.46046 0.45618 0.0
H438 H 0.69258 0.37838 0.32834 0.0
H439 H 0.58462 0.36919 0.3916 0.0
H440 H 0.61967 0.31789 0.38269 0.0
H441 H 0.67403 0.32229 0.35076 0.0
H442 H 0.65688 0.42909 0.3381 0.0
H443 H 0.52363 0.37155 0.29061 0.0
H444 H 0.47014 0.37396 0.32419 0.0
O445 O 0.58102 0.42652 0.42016 0.0
C446 C 0.5654 0.51013 0.39899 0.0
C447 C 0.49207 0.40457 0.36387 0.0
C448 C 0.52279 0.38532 0.31443 0.0
N449 N 0.55091 0.41919 0.35669 0.0
C450 C 0.52153 0.42082 0.3752 0.0
C451 C 0.55175 0.40191 0.32655 0.0
C452 C 0.49279 0.38668 0.33329 0.0
C453 C 0.68594 0.51759 0.38169 0.0
N454 N 0.65943 0.52782 0.40171 0.0
C455 C 0.70336 0.54097 0.36139 0.0
C456 C 0.69345 0.57502 0.36165 0.0
C457 C 0.66637 0.58525 0.38213 0.0
C458 C 0.64953 0.56115 0.40208 0.0
C459 C 0.67058 0.55752 0.50715 0.0
C460 C 0.60947 0.52838 0.48797 0.0
C461 C 0.6683 0.53724 0.47808 0.0
N462 N 0.63796 0.52309 0.46874 0.0
C463 C 0.61079 0.54854 0.51718 0.0
C464 C 0.64159 0.56319 0.52677 0.0
C465 C 0.58943 0.43595 0.45006 0.0
C466 C 0.66891 0.37612 0.34222 0.0
C467 C 0.60833 0.37133 0.37782 0.0
C468 C 0.62802 0.34218 0.37278 0.0
C469 C 0.6585 0.34466 0.35484 0.0
N470 N 0.61865 0.40205 0.36524 0.0
C471 C 0.64855 0.40472 0.34774 0.0
Co472 Co 0.06332 0.36493 0.98666 0.0
Co473 Co 0.11689 0.41621 0.93937 0.0
O474 O 0.10337 0.37218 0.95834 0.0
C475 C 0.03854 0.31443 0.93482 0.0
O476 O 0.03087 0.3388 0.91333 0.0
C477 C 0.17522 0.39656 0.98197 0.0
O478 O 0.15307 0.39064 0.00624 0.0
O479 O 0.10906 0.4402 0.98349 0.0
O480 O 0.07151 0.40789 0.01175 0.0
H481 H 0.10576 0.54152 0.9166 0.0
H482 H 0.11521 0.31055 0.98068 0.0
O483 O 0.05388 0.32101 0.96262 0.0
H484 H 0.10991 0.33813 0.1029 0.0
H485 H 0.98189 0.29405 0.05571 0.0
H486 H 0.00711 0.40878 0.01165 0.0
H487 H 0.07278 0.36774 0.06192 0.0
H488 H 0.03323 0.30433 0.02117 0.0
O489 O 0.16514 0.40686 0.95293 0.0
H490 H 0.08832 0.48608 0.94022 0.0
H491 H 0.17613 0.43929 0.89805 0.0
H492 H 0.95582 0.39972 0.04661 0.0
H493 H 0.15262 0.2801 0.02084 0.0
H494 H 0.94284 0.34201 0.06876 0.0
H495 H 0.15016 0.29392 0.08242 0.0
O496 O 0.03439 0.39045 0.95409 0.0
H497 H 0.1626 0.32392 0.86363 0.0
H498 H 0.09607 0.43023 0.86785 0.0
H499 H 0.10462 0.40132 0.81284 0.0
H500 H 0.1382 0.34782 0.81049 0.0
H501 H 0.15316 0.3535 0.91815 0.0
H502 H 0.19466 0.4943 0.87417 0.0
H503 H 0.15929 0.54588 0.8833 0.0
O504 O 0.06897 0.42631 0.92587 0.0
C505 C 0.08946 0.43463 0.00876 0.0
C506 C 0.12132 0.51921 0.91234 0.0
C507 C 0.17125 0.49271 0.88857 0.0
N508 N 0.13103 0.45943 0.92025 0.0
C509 C 0.11153 0.48772 0.92555 0.0
C510 C 0.16066 0.46165 0.90219 0.0
C511 C 0.15138 0.52164 0.89369 0.0
C512 C 0.1138 0.31648 0.00749 0.0
N513 N 0.09173 0.34076 0.01896 0.0
C514 C 0.13512 0.29925 0.03008 0.0
C515 C 0.13376 0.30705 0.06463 0.0
C516 C 0.1112 0.33187 0.07613 0.0
C517 C 0.09029 0.3486 0.05279 0.0
C518 C 0.98728 0.31933 0.04622 0.0
C519 C 0.00182 0.38363 0.02144 0.0
C520 C 0.01627 0.32529 0.02656 0.0
N521 N 0.0233 0.35717 0.01455 0.0
C522 C 0.97265 0.37864 0.04111 0.0
C523 C 0.96538 0.34625 0.05354 0.0
C524 C 0.03956 0.41444 0.93281 0.0
C525 C 0.14799 0.34725 0.86432 0.0
C526 C 0.11057 0.40687 0.86705 0.0
C527 C 0.11541 0.39067 0.83582 0.0
C528 C 0.13426 0.36066 0.83452 0.0
N529 N 0.12425 0.39363 0.89615 0.0
C530 C 0.14265 0.36416 0.8951 0.0
Co531 Co 0.06327 0.63385 0.52879 0.0
Co532 Co 0.11931 0.58111 0.5715 0.0
O533 O 0.10441 0.62571 0.55517 0.0
C534 C 0.03301 0.68214 0.57971 0.0
O535 O 0.01795 0.65696 0.59557 0.0
C536 C 0.17472 0.60337 0.52641 0.0
O537 O 0.15096 0.61025 0.50402 0.0
O538 O 0.10944 0.55913 0.52696 0.0
O539 O 0.07105 0.59235 0.50085 0.0
H540 H 0.11124 0.45468 0.58865 0.0
H541 H 0.11447 0.68875 0.5358 0.0
O542 O 0.05435 0.67633 0.55589 0.0
H543 H 0.10474 0.668 0.41251 0.0
H544 H 0.97853 0.70785 0.46751 0.0
H545 H 0.00631 0.59096 0.5038 0.0
H546 H 0.0699 0.63536 0.45322 0.0
H547 H 0.0315 0.69591 0.49879 0.0
O548 O 0.16667 0.59167 0.55559 0.0
H549 H 0.09174 0.51091 0.56878 0.0
H550 H 0.1809 0.55705 0.60854 0.0
H551 H 0.95339 0.60175 0.4719 0.0
H552 H 0.14959 0.72219 0.49596 0.0
H553 H 0.93907 0.66048 0.45375 0.0
H554 H 0.14489 0.71183 0.43383 0.0
O555 O 0.03632 0.60582 0.56081 0.0
H556 H 0.16837 0.67027 0.64876 0.0
H557 H 0.10244 0.56372 0.64332 0.0
H558 H 0.11384 0.59011 0.69906 0.0
H559 H 0.14714 0.6437 0.70202 0.0
H560 H 0.15612 0.64316 0.59352 0.0
H561 H 0.20149 0.50125 0.62867 0.0
H562 H 0.16649 0.44959 0.61884 0.0
O563 O 0.07217 0.56968 0.58705 0.0
C564 C 0.0892 0.56555 0.50245 0.0
C565 C 0.12664 0.47702 0.59323 0.0
C566 C 0.17732 0.50315 0.61564 0.0
N567 N 0.13499 0.53727 0.58784 0.0
C568 C 0.11568 0.50895 0.58215 0.0
C569 C 0.16556 0.53466 0.60416 0.0
C570 C 0.15767 0.47418 0.61012 0.0
C571 C 0.11208 0.68432 0.50878 0.0
N572 N 0.09001 0.6603 0.49684 0.0
C573 C 0.13212 0.70323 0.48636 0.0
C574 C 0.1295 0.69738 0.4515 0.0
C575 C 0.10699 0.67277 0.43953 0.0
C576 C 0.08738 0.65432 0.4627 0.0
C577 C 0.98446 0.6821 0.47529 0.0
C578 C 0.00044 0.61658 0.4957 0.0
C579 C 0.01439 0.67519 0.49311 0.0
N580 N 0.02208 0.64274 0.50304 0.0
C581 C 0.97036 0.62253 0.47778 0.0
C582 C 0.96235 0.65553 0.46758 0.0
C583 C 0.04239 0.58126 0.58115 0.0
C584 C 0.1539 0.64687 0.6478 0.0
C585 C 0.11679 0.58715 0.64439 0.0
C586 C 0.12325 0.60191 0.67603 0.0
C587 C 0.14195 0.63197 0.67768 0.0
N588 N 0.12874 0.60183 0.61523 0.0
C589 C 0.14697 0.63137 0.61661 0.0
Co590 Co 0.94043 0.85507 0.51025 0.0
Co591 Co 0.8821 0.89608 0.56196 0.0
O592 O 0.90039 0.85533 0.53958 0.0
C593 C 0.96046 0.80663 0.56481 0.0
O594 O 0.94495 0.82532 0.58772 0.0
C595 C 0.82703 0.87477 0.51562 0.0
O596 O 0.85053 0.87087 0.49224 0.0
O597 O 0.88898 0.9251 0.5207 0.0
O598 O 0.92419 0.89622 0.48638 0.0
H599 H 0.88034 0.01906 0.59681 0.0
H600 H 0.89923 0.7925 0.51677 0.0
O601 O 0.95883 0.81394 0.53335 0.0
H602 H 0.89585 0.82189 0.39488 0.0
H603 H 0.0306 0.80061 0.43717 0.0
H604 H 0.98688 0.90843 0.48408 0.0
H605 H 0.92823 0.85723 0.4353 0.0
H606 H 0.9799 0.80105 0.47415 0.0
O607 O 0.83527 0.88412 0.54556 0.0
H608 H 0.90369 0.9681 0.56864 0.0
H609 H 0.81986 0.90936 0.60315 0.0
H610 H 0.03688 0.90924 0.44628 0.0
H611 H 0.86679 0.75621 0.47718 0.0
H612 H 0.05935 0.85504 0.42285 0.0
H613 H 0.86491 0.77091 0.41576 0.0
O614 O 0.96594 0.88374 0.54304 0.0
H615 H 0.84307 0.79277 0.62633 0.0
H616 H 0.89943 0.90445 0.63527 0.0
H617 H 0.89225 0.86923 0.68672 0.0
H618 H 0.86383 0.81298 0.68244 0.0
H619 H 0.85101 0.82869 0.57549 0.0
H620 H 0.79543 0.95977 0.63147 0.0
H621 H 0.8258 0.01508 0.62851 0.0
O622 O 0.9285 0.90905 0.57826 0.0
C623 C 0.90591 0.92198 0.49319 0.0
C624 C 0.86693 0.99507 0.59842 0.0
C625 C 0.81925 0.9618 0.61782 0.0
N626 N 0.86335 0.93572 0.58457 0.0
C627 C 0.8801 0.9661 0.58263 0.0
C628 C 0.83318 0.93337 0.6017 0.0
C629 C 0.83632 0.99283 0.61616 0.0
C630 C 0.8987 0.79888 0.49003 0.0
N631 N 0.91568 0.82684 0.47833 0.0
C632 C 0.88021 0.77832 0.46776 0.0
C633 C 0.87914 0.78661 0.43331 0.0
C634 C 0.89648 0.81522 0.42158 0.0
C635 C 0.91469 0.83519 0.4446 0.0
C636 C 0.0211 0.8244 0.44726 0.0
C637 C 0.9962 0.88476 0.47364 0.0
C638 C 0.99247 0.8248 0.46831 0.0
N639 N 0.98026 0.85478 0.48106 0.0
C640 C 0.02469 0.88536 0.45243 0.0
C641 C 0.03722 0.85494 0.43924 0.0
C642 C 0.95876 0.90295 0.5682 0.0
C643 C 0.85541 0.81727 0.62854 0.0
C644 C 0.88713 0.87995 0.63319 0.0
C645 C 0.88307 0.86016 0.66242 0.0
C646 C 0.86711 0.82861 0.66 0.0
N647 N 0.8755 0.86869 0.60245 0.0
C648 C 0.85987 0.83777 0.59986 0.0
Co649 Co 0.42852 0.63572 0.49574 0.0
Co650 Co 0.37287 0.59264 0.4429 0.0
O651 O 0.38866 0.63376 0.46633 0.0
C652 C 0.45504 0.68745 0.44609 0.0
O653 O 0.45576 0.66475 0.42163 0.0
C654 C 0.31666 0.6094 0.48928 0.0
O655 O 0.34006 0.61349 0.51269 0.0
O656 O 0.38049 0.56317 0.48365 0.0
O657 O 0.4161 0.59202 0.5175 0.0
H658 H 0.37826 0.47057 0.40528 0.0
H659 H 0.38154 0.69452 0.49265 0.0
O660 O 0.4425 0.68016 0.4751 0.0
H661 H 0.38159 0.6584 0.61277 0.0
H662 H 0.51405 0.69377 0.5714 0.0
H663 H 0.48019 0.58546 0.51808 0.0
H664 H 0.41713 0.62864 0.57049 0.0
H665 H 0.46283 0.69072 0.53538 0.0
O666 O 0.32524 0.60187 0.45892 0.0
H667 H 0.39844 0.52202 0.4349 0.0
H668 H 0.31198 0.57703 0.40064 0.0
H669 H 0.53138 0.58731 0.5542 0.0
H670 H 0.34581 0.72524 0.53415 0.0
H671 H 0.54865 0.64176 0.58112 0.0
H672 H 0.34563 0.70712 0.59467 0.0
O673 O 0.45609 0.61044 0.46184 0.0
H674 H 0.32913 0.69479 0.37968 0.0
H675 H 0.39199 0.58664 0.3698 0.0
H676 H 0.38357 0.62225 0.31882 0.0
H677 H 0.35184 0.67671 0.32357 0.0
H678 H 0.33841 0.65853 0.43008 0.0
H679 H 0.2907 0.52608 0.37086 0.0
H680 H 0.32401 0.4724 0.37297 0.0
O681 O 0.42014 0.58231 0.42727 0.0
C682 C 0.39827 0.56596 0.5106 0.0
C683 C 0.36358 0.49384 0.40405 0.0
C684 C 0.31442 0.52499 0.38478 0.0
N685 N 0.35658 0.55258 0.41921 0.0
C686 C 0.37494 0.52309 0.42068 0.0
C687 C 0.32656 0.55373 0.40173 0.0
C688 C 0.33313 0.49488 0.38597 0.0
C689 C 0.38178 0.68669 0.519 0.0
N690 N 0.40147 0.65992 0.52917 0.0
C691 C 0.36142 0.70409 0.54236 0.0
C692 C 0.3613 0.69389 0.5763 0.0
C693 C 0.38145 0.66654 0.58647 0.0
C694 C 0.40146 0.64972 0.56241 0.0
C695 C 0.50676 0.66987 0.55986 0.0
C696 C 0.48738 0.60921 0.5299 0.0
C697 C 0.47781 0.66801 0.53937 0.0
N698 N 0.46837 0.6379 0.5248 0.0
C699 C 0.51646 0.61011 0.55024 0.0
C700 C 0.52615 0.64068 0.56531 0.0
C701 C 0.45003 0.59037 0.43705 0.0
C702 C 0.34293 0.67108 0.37728 0.0
C703 C 0.3783 0.61039 0.37209 0.0
C704 C 0.37353 0.63039 0.34312 0.0
C705 C 0.35571 0.66094 0.3458 0.0
N706 N 0.36556 0.62045 0.40284 0.0
C707 C 0.34817 0.65041 0.4057 0.0
Co708 Co 0.49823 0.57083 0.8553 0.0
Co709 Co 0.43983 0.62673 0.89036 0.0
O710 O 0.46661 0.60896 0.85204 0.0
C711 C 0.45024 0.54394 0.80321 0.0
O712 O 0.42415 0.55586 0.82031 0.0
C713 C 0.48486 0.68346 0.87163 0.0
O714 O 0.50913 0.66066 0.86953 0.0
O715 O 0.47876 0.62309 0.92298 0.0
O716 O 0.51713 0.58896 0.89819 0.0
H717 H 0.39416 0.62872 0.00977 0.0
H718 H 0.49521 0.61105 0.79183 0.0
O719 O 0.48056 0.55051 0.81239 0.0
H720 H 0.61332 0.6223 0.83244 0.0
H721 H 0.58164 0.48454 0.81014 0.0
H722 H 0.51954 0.52517 0.91127 0.0
H723 H 0.57188 0.58738 0.86405 0.0
H724 H 0.54342 0.53419 0.80628 0.0
O725 O 0.45457 0.67427 0.87874 0.0
H726 H 0.42811 0.60618 0.96207 0.0
H727 H 0.39409 0.68663 0.89848 0.0
H728 H 0.55699 0.47518 0.91611 0.0
H729 H 0.53591 0.64598 0.75917 0.0
H730 H 0.58865 0.45467 0.86541 0.0
H731 H 0.59541 0.65186 0.77954 0.0
O732 O 0.4644 0.54387 0.88134 0.0
H733 H 0.38234 0.65983 0.78114 0.0
H734 H 0.36727 0.60498 0.89296 0.0
H735 H 0.31869 0.6083 0.85342 0.0
H736 H 0.32606 0.63595 0.79708 0.0
H737 H 0.43031 0.6557 0.82137 0.0
H738 H 0.35998 0.71024 0.94559 0.0
H739 H 0.35977 0.68113 0.00167 0.0
O740 O 0.42534 0.57968 0.90316 0.0
C741 C 0.50728 0.60764 0.92266 0.0
C742 C 0.39392 0.64155 0.98541 0.0
C743 C 0.37478 0.68733 0.9494 0.0
N744 N 0.41279 0.64487 0.92744 0.0
C745 C 0.413 0.62884 0.95827 0.0
C746 C 0.39418 0.67388 0.92285 0.0
C747 C 0.37467 0.67099 0.98086 0.0
C748 C 0.52114 0.6133 0.80067 0.0
N749 N 0.5312 0.59717 0.82975 0.0
C750 C 0.54403 0.63319 0.78215 0.0
C751 C 0.5774 0.63651 0.79362 0.0
C752 C 0.58746 0.61996 0.82331 0.0
C753 C 0.56387 0.60031 0.84118 0.0
C754 C 0.56819 0.49335 0.83249 0.0
C755 C 0.53326 0.51649 0.88908 0.0
C756 C 0.54654 0.52147 0.83047 0.0
N757 N 0.5295 0.53276 0.8586 0.0
C758 C 0.55448 0.48816 0.89199 0.0
C759 C 0.57211 0.47661 0.8635 0.0
C760 C 0.43755 0.54993 0.89857 0.0
C761 C 0.37879 0.64779 0.80565 0.0
C762 C 0.3707 0.61694 0.86844 0.0
C763 C 0.34308 0.61882 0.84619 0.0
C764 C 0.34723 0.63435 0.81459 0.0
N765 N 0.40153 0.63028 0.85952 0.0
C766 C 0.40582 0.64549 0.82857 0.0
Co767 Co 0.50971 0.93932 0.85662 0.0
Co768 Co 0.56359 0.88214 0.89641 0.0
O769 O 0.54014 0.9001 0.85617 0.0
C770 C 0.56353 0.9606 0.80805 0.0
O771 O 0.58661 0.94505 0.82648 0.0
C772 C 0.51834 0.82635 0.87499 0.0
O773 O 0.49461 0.84952 0.87124 0.0
O774 O 0.52256 0.88773 0.92598 0.0
O775 O 0.48662 0.92195 0.89786 0.0
H776 H 0.60014 0.88049 0.01886 0.0
H777 H 0.51677 0.899 0.79354 0.0
O778 O 0.5321 0.95874 0.81552 0.0
H779 H 0.39529 0.89197 0.82402 0.0
H780 H 0.43396 0.02819 0.80374 0.0
H781 H 0.48272 0.98444 0.91069 0.0
H782 H 0.43516 0.92506 0.85934 0.0
H783 H 0.47221 0.97843 0.80334 0.0
O784 O 0.54815 0.83498 0.88436 0.0
H785 H 0.57071 0.90344 0.96844 0.0
H786 H 0.6065 0.82085 0.90871 0.0
H787 H 0.44374 0.03349 0.91234 0.0
H788 H 0.47773 0.86587 0.75727 0.0
H789 H 0.41934 0.05598 0.85859 0.0
H790 H 0.41652 0.86215 0.77252 0.0
O791 O 0.54203 0.96542 0.88519 0.0
H792 H 0.62749 0.84545 0.79196 0.0
H793 H 0.63655 0.90125 0.9039 0.0
H794 H 0.68768 0.89563 0.86793 0.0
H795 H 0.68333 0.86751 0.81155 0.0
H796 H 0.57696 0.85184 0.82864 0.0
H797 H 0.6361 0.79682 0.95856 0.0
H798 H 0.63313 0.82679 0.01409 0.0
O799 O 0.5789 0.92888 0.90945 0.0
C800 C 0.49443 0.90368 0.92338 0.0
C801 C 0.60176 0.86728 0.99477 0.0
C802 C 0.6219 0.82029 0.96093 0.0
N803 N 0.58721 0.86371 0.9356 0.0
C804 C 0.58526 0.88023 0.9661 0.0
C805 C 0.60505 0.83399 0.93282 0.0
C806 C 0.62022 0.83712 0.99208 0.0
C807 C 0.49012 0.89767 0.80016 0.0
N808 N 0.47822 0.91402 0.82841 0.0
C809 C 0.46816 0.8788 0.77961 0.0
C810 C 0.43383 0.8767 0.7882 0.0
C811 C 0.4219 0.8934 0.81711 0.0
C812 C 0.44461 0.91203 0.83706 0.0
C813 C 0.44446 0.01868 0.82735 0.0
C814 C 0.47187 0.99375 0.88721 0.0
C815 C 0.46622 0.99058 0.82727 0.0
N816 N 0.47947 0.97835 0.857 0.0
C817 C 0.44998 0.0217 0.88829 0.0
C818 C 0.43626 0.03425 0.85812 0.0
C819 C 0.56779 0.95887 0.9038 0.0
C820 C 0.62973 0.85767 0.81652 0.0
C821 C 0.63445 0.88907 0.87935 0.0
C822 C 0.66349 0.8859 0.85913 0.0
C823 C 0.66104 0.87009 0.8275 0.0
N824 N 0.60385 0.87673 0.86843 0.0
C825 C 0.60123 0.86125 0.83744 0.0
Co826 Co 0.49447 0.42819 0.63547 0.0
Co827 Co 0.44182 0.37263 0.59204 0.0
O828 O 0.46506 0.38835 0.63328 0.0
C829 C 0.44502 0.45539 0.68711 0.0
O830 O 0.42082 0.45733 0.66423 0.0
C831 C 0.48827 0.31653 0.60895 0.0
O832 O 0.51155 0.34004 0.61318 0.0
O833 O 0.48267 0.38036 0.56278 0.0
O834 O 0.5164 0.4159 0.59184 0.0
H835 H 0.40468 0.37825 0.46987 0.0
H836 H 0.49115 0.38099 0.69408 0.0
O837 O 0.47367 0.44198 0.67988 0.0
H838 H 0.61144 0.38125 0.65847 0.0
H839 H 0.56985 0.5136 0.69408 0.0
H840 H 0.51705 0.48001 0.58546 0.0
H841 H 0.56927 0.41688 0.62867 0.0
H842 H 0.53384 0.46237 0.69073 0.0
O843 O 0.45791 0.32499 0.60125 0.0
H844 H 0.43407 0.39835 0.52147 0.0
H845 H 0.39973 0.3117 0.57613 0.0
H846 H 0.55318 0.53118 0.58761 0.0
H847 H 0.53254 0.34518 0.72483 0.0
H848 H 0.57984 0.54832 0.64222 0.0
H849 H 0.59315 0.3451 0.70696 0.0
O850 O 0.46066 0.45581 0.6101 0.0
H851 H 0.3782 0.32854 0.69378 0.0
H852 H 0.36872 0.39168 0.58579 0.0
H853 H 0.31758 0.3831 0.62114 0.0
H854 H 0.32213 0.35122 0.67552 0.0
H855 H 0.42875 0.33797 0.65778 0.0
H856 H 0.37018 0.29049 0.52502 0.0
H857 H 0.37244 0.32393 0.47145 0.0
O858 O 0.42616 0.41995 0.58176 0.0
C859 C 0.50962 0.39812 0.56572 0.0
C860 C 0.40338 0.36351 0.4931 0.0
C861 C 0.38407 0.31424 0.52404 0.0
N862 N 0.41832 0.35639 0.55186 0.0
C863 C 0.41987 0.37483 0.52243 0.0
C864 C 0.40089 0.32634 0.55287 0.0
C865 C 0.38534 0.33302 0.49399 0.0
C866 C 0.51754 0.38128 0.68636 0.0
N867 N 0.52781 0.40108 0.65971 0.0
C868 C 0.54083 0.36087 0.70378 0.0
C869 C 0.57483 0.36081 0.69372 0.0
C870 C 0.5851 0.38107 0.66649 0.0
C871 C 0.5611 0.40113 0.64966 0.0
C872 C 0.55842 0.50636 0.67012 0.0
C873 C 0.52875 0.48713 0.60928 0.0
C874 C 0.53794 0.47742 0.66808 0.0
N875 N 0.52351 0.46805 0.63788 0.0
C876 C 0.5491 0.51621 0.61035 0.0
C877 C 0.56402 0.52583 0.64101 0.0
C878 C 0.43594 0.44982 0.58994 0.0
C879 C 0.37588 0.34239 0.6701 0.0
C880 C 0.37092 0.37793 0.6095 0.0
C881 C 0.34187 0.37307 0.62936 0.0
C882 C 0.34443 0.35516 0.65986 0.0
N883 N 0.40164 0.3652 0.61966 0.0
C884 C 0.40439 0.34773 0.64957 0.0
Co885 Co 0.52919 0.06339 0.6347 0.0
Co886 Co 0.57177 0.11951 0.58191 0.0
O887 O 0.55545 0.10462 0.62653 0.0
C888 C 0.57938 0.0327 0.68333 0.0
O889 O 0.59475 0.01687 0.65832 0.0
C890 C 0.52632 0.17476 0.60389 0.0
O891 O 0.50406 0.1509 0.61084 0.0
O892 O 0.52731 0.1094 0.55989 0.0
O893 O 0.50133 0.07102 0.59319 0.0
H894 H 0.58917 0.1112 0.45555 0.0
H895 H 0.53589 0.11472 0.6895 0.0
O896 O 0.55618 0.05463 0.67727 0.0
H897 H 0.41267 0.10451 0.66851 0.0
H898 H 0.46765 0.97857 0.70843 0.0
H899 H 0.50465 0.00627 0.59178 0.0
H900 H 0.45357 0.06974 0.63603 0.0
H901 H 0.49886 0.03162 0.69662 0.0
O902 O 0.5556 0.16683 0.59233 0.0
H903 H 0.56934 0.09173 0.5118 0.0
H904 H 0.60852 0.18124 0.55776 0.0
H905 H 0.47278 0.9533 0.60241 0.0
H906 H 0.49584 0.14978 0.72278 0.0
H907 H 0.45429 0.939 0.66104 0.0
H908 H 0.43375 0.14483 0.7123 0.0
O909 O 0.56142 0.03652 0.60677 0.0
H910 H 0.64867 0.16921 0.671 0.0
H911 H 0.6437 0.10294 0.56466 0.0
H912 H 0.69936 0.1147 0.59107 0.0
H913 H 0.70208 0.14818 0.64456 0.0
H914 H 0.59352 0.1566 0.64388 0.0
H915 H 0.6286 0.20182 0.50195 0.0
H916 H 0.61904 0.16663 0.45038 0.0
O917 O 0.58757 0.07239 0.57061 0.0
C918 C 0.50286 0.08913 0.56639 0.0
C919 C 0.59363 0.12669 0.47786 0.0
C920 C 0.61571 0.17758 0.50389 0.0
N921 N 0.5881 0.13516 0.53807 0.0
C922 C 0.58257 0.11574 0.50979 0.0
C923 C 0.60425 0.16582 0.53541 0.0
C924 C 0.61034 0.15782 0.47497 0.0
C925 C 0.50888 0.11222 0.68502 0.0
N926 N 0.49707 0.09005 0.66102 0.0
C927 C 0.48634 0.13222 0.70384 0.0
C928 C 0.45151 0.12947 0.69792 0.0
C929 C 0.43966 0.10686 0.67334 0.0
C930 C 0.46295 0.08729 0.65498 0.0
C931 C 0.4756 0.98448 0.68273 0.0
C932 C 0.49642 0.00041 0.61735 0.0
C933 C 0.4934 0.01444 0.6759 0.0
N934 N 0.50355 0.02211 0.64352 0.0
C935 C 0.47851 0.9703 0.62322 0.0
C936 C 0.46812 0.9623 0.65615 0.0
C937 C 0.58178 0.0426 0.58223 0.0
C938 C 0.64782 0.15466 0.64765 0.0
C939 C 0.64467 0.11735 0.58804 0.0
C940 C 0.67626 0.12402 0.60282 0.0
C941 C 0.67777 0.14283 0.63282 0.0
N942 N 0.61542 0.1292 0.60266 0.0
C943 C 0.61668 0.14752 0.63214 0.0
Co944 Co 0.85674 0.49368 0.56856 0.0
Co945 Co 0.8902 0.43498 0.62513 0.0
O946 O 0.85247 0.46219 0.60666 0.0
C947 C 0.8041 0.44648 0.54118 0.0
O948 O 0.82054 0.42007 0.55333 0.0
C949 C 0.87105 0.48065 0.68115 0.0
O950 O 0.86944 0.50465 0.65803 0.0
O951 O 0.9234 0.47345 0.62193 0.0
O952 O 0.89958 0.51203 0.58737 0.0
H953 H 0.00894 0.38771 0.62937 0.0
H954 H 0.79276 0.49163 0.60802 0.0
O955 O 0.81389 0.47663 0.54766 0.0
H956 H 0.8345 0.60939 0.61895 0.0
H957 H 0.81444 0.57737 0.48109 0.0
H958 H 0.9138 0.51388 0.52387 0.0
H959 H 0.86604 0.56737 0.58464 0.0
H960 H 0.80906 0.53951 0.53087 0.0
O961 O 0.878 0.45017 0.6724 0.0
H962 H 0.96211 0.42224 0.60589 0.0
H963 H 0.89665 0.38939 0.68531 0.0
H964 H 0.92015 0.55089 0.47378 0.0
H965 H 0.76014 0.53291 0.64231 0.0
H966 H 0.87035 0.58327 0.45216 0.0
H967 H 0.78109 0.59223 0.64803 0.0
O968 O 0.88265 0.45935 0.54215 0.0
H969 H 0.77969 0.37911 0.65673 0.0
H970 H 0.89213 0.36231 0.60365 0.0
H971 H 0.85186 0.31428 0.60651 0.0
H972 H 0.79521 0.32253 0.63328 0.0
H973 H 0.82065 0.4265 0.65308 0.0
H974 H 0.94286 0.35472 0.70985 0.0
H975 H 0.99945 0.35362 0.68174 0.0
O976 O 0.90362 0.42013 0.5783 0.0
C977 C 0.92358 0.50198 0.60652 0.0
C978 C 0.98436 0.38785 0.64177 0.0
C979 C 0.94728 0.36938 0.68697 0.0
N980 N 0.92659 0.40752 0.64399 0.0
C981 C 0.95771 0.40725 0.62851 0.0
C982 C 0.92123 0.38909 0.67299 0.0
C983 C 0.97902 0.36877 0.67118 0.0
C984 C 0.80186 0.51748 0.61021 0.0
N985 N 0.83125 0.52711 0.59437 0.0
C986 C 0.78336 0.5407 0.62973 0.0
C987 C 0.79515 0.57397 0.63297 0.0
C988 C 0.82513 0.58361 0.61668 0.0
C989 C 0.84297 0.55968 0.5974 0.0
C990 C 0.8364 0.5636 0.49037 0.0
C991 C 0.89199 0.52791 0.51472 0.0
C992 C 0.83352 0.54217 0.51858 0.0
N993 N 0.86116 0.52474 0.53046 0.0
C994 C 0.89576 0.54889 0.48632 0.0
C995 C 0.86776 0.56691 0.47416 0.0
C996 C 0.89946 0.43231 0.54847 0.0
C997 C 0.80433 0.37518 0.64508 0.0
C998 C 0.86747 0.36611 0.61522 0.0
C999 C 0.84481 0.33881 0.61684 0.0
C1000 C 0.81304 0.34345 0.63188 0.0
N1001 N 0.85878 0.39712 0.62832 0.0
C1002 C 0.82766 0.40188 0.64305 0.0
Co1003 Co 0.14289 0.99341 0.57096 0.0
Co1004 Co 0.10383 0.05081 0.62522 0.0
O1005 O 0.14362 0.02515 0.6091 0.0
C1006 C 0.19572 0.04181 0.54585 0.0
O1007 O 0.17755 0.06801 0.55582 0.0
C1008 C 0.12216 0.00797 0.68396 0.0
O1009 O 0.12458 0.98263 0.66239 0.0
O1010 O 0.07273 0.01054 0.6214 0.0
O1011 O 0.09947 0.9739 0.58689 0.0
H1012 H 0.98287 0.09218 0.62254 0.0
H1013 H 0.20395 0.99769 0.61456 0.0
O1014 O 0.18659 0.01156 0.55285 0.0
H1015 H 0.1649 0.87888 0.62422 0.0
H1016 H 0.19379 0.90966 0.48829 0.0
H1017 H 0.08962 0.97044 0.52291 0.0
H1018 H 0.1346 0.91961 0.58736 0.0
H1019 H 0.19457 0.94902 0.53712 0.0
O1020 O 0.1147 0.03768 0.67332 0.0
H1021 H 0.03247 0.05956 0.60221 0.0
H1022 H 0.09212 0.09733 0.6839 0.0
H1023 H 0.08774 0.93133 0.47399 0.0
H1024 H 0.2353 0.95772 0.65149 0.0
H1025 H 0.14002 0.90053 0.4564 0.0
H1026 H 0.2157 0.89788 0.65657 0.0
O1027 O 0.11766 0.02679 0.54242 0.0
H1028 H 0.20993 0.11298 0.65983 0.0
H1029 H 0.0991 0.12284 0.60198 0.0
H1030 H 0.13673 0.17292 0.60527 0.0
H1031 H 0.19255 0.16818 0.63443 0.0
H1032 H 0.17164 0.06347 0.65571 0.0
H1033 H 0.04306 0.13014 0.7053 0.0
H1034 H 0.988 0.12779 0.67446 0.0
O1035 O 0.09202 0.06395 0.57767 0.0
C1036 C 0.07429 0.98246 0.60522 0.0
C1037 C 0.00676 0.09351 0.63614 0.0
C1038 C 0.04053 0.11477 0.68261 0.0
N1039 N 0.06523 0.07678 0.64168 0.0
C1040 C 0.03497 0.07518 0.62469 0.0
C1041 C 0.0682 0.09609 0.67042 0.0
C1042 C 0.00965 0.11345 0.66529 0.0
C1043 C 0.19546 0.97161 0.61648 0.0
N1044 N 0.16751 0.96097 0.59883 0.0
C1045 C 0.21323 0.94913 0.6375 0.0
C1046 C 0.20219 0.91557 0.64036 0.0
C1047 C 0.17367 0.9049 0.62225 0.0
C1048 C 0.15652 0.9281 0.60151 0.0
C1049 C 0.17079 0.92283 0.49577 0.0
C1050 C 0.11248 0.95704 0.51553 0.0
C1051 C 0.17108 0.94517 0.52338 0.0
N1052 N 0.14211 0.96185 0.53301 0.0
C1053 C 0.11125 0.93494 0.48776 0.0
C1054 C 0.14062 0.91772 0.47789 0.0
C1055 C 0.09872 0.05261 0.54802 0.0
C1056 C 0.18563 0.11539 0.64713 0.0
C1057 C 0.12341 0.12055 0.61461 0.0
C1058 C 0.14457 0.14902 0.61646 0.0
C1059 C 0.17588 0.14634 0.63284 0.0
N1060 N 0.13311 0.09032 0.62879 0.0
C1061 C 0.1638 0.08747 0.64482 0.0
Co1062 Co 0.85493 0.50833 0.93599 0.0
Co1063 Co 0.89423 0.56248 0.87877 0.0
O1064 O 0.85417 0.53874 0.8968 0.0
C1065 C 0.80602 0.56173 0.95784 0.0
O1066 O 0.82417 0.58515 0.94245 0.0
C1067 C 0.87335 0.51649 0.82343 0.0
O1068 O 0.86962 0.49306 0.8469 0.0
O1069 O 0.9243 0.52186 0.88471 0.0
O1070 O 0.8963 0.48553 0.91859 0.0
H1071 H 0.01623 0.60055 0.87715 0.0
H1072 H 0.79173 0.51488 0.89577 0.0
O1073 O 0.8137 0.53038 0.95549 0.0
H1074 H 0.82316 0.39362 0.88873 0.0
H1075 H 0.80286 0.43221 0.02502 0.0
H1076 H 0.90928 0.48201 0.98113 0.0
H1077 H 0.85818 0.43377 0.9218 0.0
H1078 H 0.80205 0.47029 0.97515 0.0
O1079 O 0.88247 0.5465 0.83171 0.0
H1080 H 0.96613 0.57062 0.90017 0.0
H1081 H 0.90615 0.60507 0.81722 0.0
H1082 H 0.91135 0.44329 0.03034 0.0
H1083 H 0.75577 0.47555 0.86265 0.0
H1084 H 0.85787 0.41833 0.05288 0.0
H1085 H 0.7715 0.41446 0.85893 0.0
O1086 O 0.88332 0.54091 0.96198 0.0
H1087 H 0.78917 0.62496 0.84133 0.0
H1088 H 0.9008 0.63564 0.89745 0.0
H1089 H 0.86427 0.68633 0.89139 0.0
H1090 H 0.80804 0.68116 0.8631 0.0
H1091 H 0.8264 0.57488 0.84817 0.0
H1092 H 0.95568 0.63516 0.79312 0.0
H1093 H 0.01117 0.63312 0.82323 0.0
O1094 O 0.90697 0.57821 0.92545 0.0
C1095 C 0.92188 0.49366 0.90057 0.0
C1096 C 0.99215 0.60177 0.86387 0.0
C1097 C 0.95818 0.62115 0.81668 0.0
N1098 N 0.93318 0.58643 0.86027 0.0
C1099 C 0.96366 0.58499 0.87686 0.0
C1100 C 0.93024 0.60403 0.83042 0.0
C1101 C 0.9893 0.62 0.8336 0.0
C1102 C 0.79856 0.48827 0.89445 0.0
N1103 N 0.82691 0.4766 0.91078 0.0
C1104 C 0.77818 0.46615 0.87558 0.0
C1105 C 0.78704 0.43188 0.87347 0.0
C1106 C 0.81604 0.42018 0.89017 0.0
C1107 C 0.83582 0.44304 0.90878 0.0
C1108 C 0.82635 0.44293 0.01547 0.0
C1109 C 0.88592 0.47092 0.99047 0.0
C1110 C 0.82604 0.46459 0.9873 0.0
N1111 N 0.85563 0.47814 0.97504 0.0
C1112 C 0.88723 0.44917 0.01851 0.0
C1113 C 0.85721 0.43515 0.03109 0.0
C1114 C 0.90156 0.56694 0.95542 0.0
C1115 C 0.81366 0.62755 0.85363 0.0
C1116 C 0.87631 0.63318 0.8852 0.0
C1117 C 0.85578 0.66198 0.88178 0.0
C1118 C 0.82424 0.65907 0.86588 0.0
N1119 N 0.86579 0.60238 0.87302 0.0
C1120 C 0.83489 0.59931 0.85746 0.0
Co1121 Co 0.14056 0.99818 0.94177 0.0
Co1122 Co 0.10005 0.94203 0.88744 0.0
O1123 O 0.14059 0.96589 0.90404 0.0
C1124 C 0.18965 0.94568 0.96583 0.0
O1125 O 0.17125 0.92137 0.95227 0.0
C1126 C 0.12157 0.9835 0.82874 0.0
O1127 O 0.12553 0.00867 0.85027 0.0
O1128 O 0.07096 0.98378 0.89061 0.0
O1129 O 0.09928 0.02049 0.92375 0.0
H1130 H 0.97726 0.90658 0.88873 0.0
H1131 H 0.2032 0.98885 0.9011 0.0
O1132 O 0.18183 0.97682 0.96182 0.0
H1133 H 0.17293 0.10991 0.88802 0.0
H1134 H 0.19462 0.07828 0.02581 0.0
H1135 H 0.08718 0.02676 0.98681 0.0
H1136 H 0.13796 0.07194 0.92369 0.0
H1137 H 0.19424 0.0381 0.97767 0.0
O1138 O 0.1122 0.95435 0.83941 0.0
H1139 H 0.02807 0.93682 0.90957 0.0
H1140 H 0.08697 0.89583 0.82879 0.0
H1141 H 0.08639 0.06702 0.03486 0.0
H1142 H 0.23911 0.02599 0.86542 0.0
H1143 H 0.14036 0.0931 0.05467 0.0
H1144 H 0.22397 0.08697 0.85865 0.0
O1145 O 0.11187 0.96741 0.96988 0.0
H1146 H 0.2036 0.87464 0.85458 0.0
H1147 H 0.09158 0.87042 0.91092 0.0
H1148 H 0.12685 0.81856 0.90835 0.0
H1149 H 0.18327 0.82047 0.87996 0.0
H1150 H 0.16762 0.92597 0.85797 0.0
H1151 H 0.0367 0.86537 0.80688 0.0
H1152 H 0.98139 0.87055 0.83701 0.0
O1153 O 0.08689 0.92974 0.93487 0.0
C1154 C 0.07381 0.01241 0.9056 0.0
C1155 C 0.00124 0.90403 0.87544 0.0
C1156 C 0.0346 0.88094 0.82948 0.0
N1157 N 0.06051 0.91787 0.87058 0.0
C1158 C 0.03013 0.92101 0.88718 0.0
C1159 C 0.06295 0.8983 0.84196 0.0
C1160 C 0.00357 0.88385 0.8464 0.0
C1161 C 0.19663 0.01542 0.89846 0.0
N1162 N 0.16862 0.02825 0.91454 0.0
C1163 C 0.21698 0.03629 0.87814 0.0
C1164 C 0.20844 0.0705 0.87432 0.0
C1165 C 0.1798 0.08338 0.89078 0.0
C1166 C 0.16003 0.06175 0.91087 0.0
C1167 C 0.17091 0.06717 0.01735 0.0
C1168 C 0.11076 0.03818 0.99511 0.0
C1169 C 0.17054 0.04437 0.99013 0.0
N1170 N 0.14067 0.03032 0.97923 0.0
C1171 C 0.11015 0.06089 0.0224 0.0
C1172 C 0.14046 0.07547 0.03353 0.0
C1173 C 0.09246 0.942 0.96438 0.0
C1174 C 0.17903 0.87347 0.86693 0.0
C1175 C 0.11615 0.87147 0.89861 0.0
C1176 C 0.13597 0.84201 0.89717 0.0
C1177 C 0.16762 0.84309 0.88122 0.0
N1178 N 0.12748 0.90113 0.88445 0.0
C1179 C 0.15849 0.90242 0.86882 0.0
Co1180 Co 0.57196 0.85621 0.49517 0.0
Co1181 Co 0.62752 0.89079 0.43611 0.0
O1182 O 0.60983 0.85264 0.46329 0.0
C1183 C 0.5441 0.80348 0.44829 0.0
O1184 O 0.5551 0.82044 0.4217 0.0
C1185 C 0.68436 0.87213 0.48096 0.0
O1186 O 0.66153 0.87024 0.50522 0.0
O1187 O 0.62431 0.92376 0.47481 0.0
O1188 O 0.59016 0.89938 0.51339 0.0
H1189 H 0.62958 0.00986 0.38948 0.0
H1190 H 0.61239 0.79287 0.49261 0.0
O1191 O 0.55156 0.81298 0.47831 0.0
H1192 H 0.62416 0.83478 0.6102 0.0
H1193 H 0.48629 0.81234 0.57992 0.0
H1194 H 0.52632 0.91242 0.51575 0.0
H1195 H 0.58881 0.86577 0.56866 0.0
H1196 H 0.53578 0.8079 0.54155 0.0
O1197 O 0.67517 0.8791 0.45063 0.0
H1198 H 0.60716 0.96252 0.42402 0.0
H1199 H 0.68707 0.89832 0.38987 0.0
H1200 H 0.47646 0.9178 0.55325 0.0
H1201 H 0.64774 0.7608 0.53342 0.0
H1202 H 0.45625 0.86765 0.58597 0.0
H1203 H 0.65389 0.78185 0.59265 0.0
O1204 O 0.54478 0.88175 0.46118 0.0
H1205 H 0.65988 0.78105 0.37913 0.0
H1206 H 0.60514 0.89291 0.36375 0.0
H1207 H 0.60795 0.853 0.31542 0.0
H1208 H 0.63555 0.79664 0.32295 0.0
H1209 H 0.65625 0.82164 0.42684 0.0
H1210 H 0.71056 0.94506 0.35516 0.0
H1211 H 0.68167 0.00127 0.35472 0.0
O1212 O 0.58033 0.90368 0.42192 0.0
C1213 C 0.60894 0.92369 0.50335 0.0
C1214 C 0.64232 0.98544 0.38934 0.0
C1215 C 0.6878 0.94909 0.37012 0.0
N1216 N 0.64557 0.9276 0.40866 0.0
C1217 C 0.62966 0.95851 0.40875 0.0
C1218 C 0.67442 0.92274 0.38986 0.0
C1219 C 0.67157 0.98062 0.36988 0.0
C1220 C 0.61476 0.802 0.51843 0.0
N1221 N 0.59857 0.83113 0.52827 0.0
C1222 C 0.63489 0.78382 0.54138 0.0
C1223 C 0.63836 0.79566 0.5746 0.0
C1224 C 0.62171 0.82538 0.58445 0.0
C1225 C 0.60183 0.8429 0.5608 0.0
C1226 C 0.49497 0.83445 0.566 0.0
C1227 C 0.51777 0.89045 0.52992 0.0
C1228 C 0.523 0.8321 0.54428 0.0
N1229 N 0.53411 0.85994 0.52664 0.0
C1230 C 0.48951 0.89368 0.55118 0.0
C1231 C 0.47813 0.86548 0.56939 0.0
C1232 C 0.55065 0.89893 0.43426 0.0
C1233 C 0.64786 0.80556 0.37551 0.0
C1234 C 0.61707 0.86838 0.36724 0.0
C1235 C 0.61867 0.84592 0.33977 0.0
C1236 C 0.63417 0.81431 0.34401 0.0
N1237 N 0.63066 0.85965 0.39802 0.0
C1238 C 0.64584 0.82869 0.4024 0.0
Co1239 Co 0.5667 0.14331 0.99307 0.0
Co1240 Co 0.62139 0.10549 0.0508 0.0
O1241 O 0.60451 0.14488 0.02515 0.0
C1242 C 0.54132 0.19492 0.04261 0.0
O1243 O 0.55354 0.17734 0.06824 0.0
C1244 C 0.67936 0.12483 0.00743 0.0
O1245 O 0.65733 0.12758 0.98254 0.0
O1246 O 0.61776 0.07418 0.01073 0.0
O1247 O 0.58447 0.10087 0.97293 0.0
H1248 H 0.62056 0.9847 0.09279 0.0
H1249 H 0.60775 0.20606 0.99887 0.0
O1250 O 0.54682 0.18585 0.01205 0.0
H1251 H 0.62029 0.16937 0.8796 0.0
H1252 H 0.48283 0.19314 0.90997 0.0
H1253 H 0.52118 0.08871 0.968 0.0
H1254 H 0.58433 0.13685 0.91943 0.0
H1255 H 0.53108 0.19481 0.94999 0.0
O1256 O 0.66926 0.11693 0.03722 0.0
H1257 H 0.59933 0.03388 0.06011 0.0
H1258 H 0.68059 0.09475 0.09687 0.0
H1259 H 0.47299 0.08592 0.92807 0.0
H1260 H 0.64373 0.23958 0.95983 0.0
H1261 H 0.45351 0.13833 0.89867 0.0
H1262 H 0.65025 0.22119 0.89975 0.0
O1263 O 0.53875 0.11632 0.02556 0.0
H1264 H 0.65505 0.21225 0.11238 0.0
H1265 H 0.5986 0.10074 0.12294 0.0
H1266 H 0.60173 0.13858 0.17288 0.0
H1267 H 0.63019 0.19475 0.16778 0.0
H1268 H 0.6511 0.17373 0.06302 0.0
H1269 H 0.70289 0.04613 0.12972 0.0
H1270 H 0.67272 0.99066 0.1279 0.0
O1271 O 0.57406 0.09306 0.06418 0.0
C1272 C 0.60255 0.07571 0.98213 0.0
C1273 C 0.63387 0.00877 0.09387 0.0
C1274 C 0.68011 0.04323 0.11456 0.0
N1275 N 0.63854 0.06722 0.07681 0.0
C1276 C 0.62191 0.03674 0.07551 0.0
C1277 C 0.6674 0.07065 0.09586 0.0
C1278 C 0.66316 0.01212 0.11354 0.0
C1279 C 0.61027 0.19809 0.97269 0.0
N1280 N 0.59391 0.16961 0.96141 0.0
C1281 C 0.63076 0.21708 0.95073 0.0
C1282 C 0.63444 0.20672 0.91704 0.0
C1283 C 0.61765 0.17764 0.90572 0.0
C1284 C 0.5974 0.15926 0.92841 0.0
C1285 C 0.49114 0.17008 0.92253 0.0
C1286 C 0.51301 0.11163 0.95518 0.0
C1287 C 0.51842 0.17087 0.94525 0.0
N1288 N 0.52912 0.14183 0.96113 0.0
C1289 C 0.48564 0.10989 0.93264 0.0
C1290 C 0.4747 0.13933 0.9162 0.0
C1291 C 0.54446 0.09809 0.05185 0.0
C1292 C 0.64267 0.1878 0.11494 0.0
C1293 C 0.61093 0.1252 0.1205 0.0
C1294 C 0.61269 0.14647 0.14888 0.0
C1295 C 0.62868 0.17798 0.14601 0.0
N1296 N 0.62481 0.13497 0.09016 0.0
C1297 C 0.64046 0.16584 0.08712 0.0
Co1298 Co 0.43219 0.36711 0.99827 0.0
Co1299 Co 0.37813 0.41206 0.05126 0.0
O1300 O 0.39314 0.37021 0.02873 0.0
C1301 C 0.45993 0.31593 0.04796 0.0
O1302 O 0.46383 0.33941 0.07135 0.0
C1303 C 0.3195 0.39339 0.00878 0.0
O1304 O 0.34139 0.38909 0.98394 0.0
O1305 O 0.38354 0.43982 0.00892 0.0
O1306 O 0.41961 0.41043 0.9759 0.0
H1307 H 0.38483 0.53546 0.08394 0.0
H1308 H 0.38454 0.30904 0.00416 0.0
O1309 O 0.44598 0.32297 0.01956 0.0
H1310 H 0.38165 0.34233 0.88326 0.0
H1311 H 0.51459 0.30595 0.92144 0.0
H1312 H 0.48358 0.41614 0.97272 0.0
H1313 H 0.41873 0.37257 0.92375 0.0
H1314 H 0.46476 0.31059 0.95928 0.0
O1315 O 0.32988 0.40189 0.03827 0.0
H1316 H 0.40373 0.48297 0.05528 0.0
H1317 H 0.31923 0.42921 0.09583 0.0
H1318 H 0.53337 0.4127 0.93473 0.0
H1319 H 0.3473 0.27787 0.96447 0.0
H1320 H 0.54918 0.35729 0.9088 0.0
H1321 H 0.34563 0.29455 0.90356 0.0
O1322 O 0.4612 0.393 0.03063 0.0
H1323 H 0.33885 0.31214 0.12064 0.0
H1324 H 0.40066 0.42124 0.12304 0.0
H1325 H 0.39525 0.38762 0.17574 0.0
H1326 H 0.36408 0.33269 0.17477 0.0
H1327 H 0.34513 0.34645 0.06845 0.0
H1328 H 0.29924 0.48123 0.1247 0.0
H1329 H 0.33222 0.53481 0.11895 0.0
O1330 O 0.42587 0.42321 0.06405 0.0
C1331 C 0.40123 0.43636 0.98193 0.0
C1332 C 0.37029 0.51225 0.08673 0.0
C1333 C 0.32223 0.48182 0.10957 0.0
N1334 N 0.36275 0.453 0.0741 0.0
C1335 C 0.38092 0.48242 0.07064 0.0
C1336 C 0.33363 0.45247 0.0931 0.0
C1337 C 0.34076 0.51187 0.10634 0.0
C1338 C 0.38414 0.31626 0.97763 0.0
N1339 N 0.40387 0.34251 0.96626 0.0
C1340 C 0.36292 0.2986 0.9553 0.0
C1341 C 0.36197 0.308 0.92114 0.0
C1342 C 0.38215 0.33482 0.90974 0.0
C1343 C 0.40303 0.35191 0.9328 0.0
C1344 C 0.50792 0.33024 0.93253 0.0
C1345 C 0.49014 0.39197 0.96137 0.0
C1346 C 0.47978 0.33301 0.95406 0.0
N1347 N 0.47111 0.36365 0.96805 0.0
C1348 C 0.51844 0.39017 0.93995 0.0
C1349 C 0.52731 0.35907 0.92544 0.0
C1350 C 0.45558 0.41457 0.05425 0.0
C1351 C 0.35242 0.33608 0.12141 0.0
C1352 C 0.38718 0.3973 0.12238 0.0
C1353 C 0.38413 0.37841 0.15232 0.0
C1354 C 0.36662 0.3476 0.15176 0.0
N1355 N 0.37308 0.38588 0.09275 0.0
C1356 C 0.35596 0.35566 0.09197 0.0
Co1357 Co 0.93632 0.14164 0.99382 0.0
Co1358 Co 0.88142 0.10268 0.9371 0.0
O1359 O 0.89843 0.14262 0.9618 0.0
C1360 C 0.96075 0.19193 0.9427 0.0
O1361 O 0.94756 0.17393 0.9179 0.0
C1362 C 0.82352 0.12378 0.97971 0.0
O1363 O 0.84554 0.127 0.00456 0.0
O1364 O 0.88455 0.07261 0.97807 0.0
O1365 O 0.91845 0.09966 0.01503 0.0
H1366 H 0.88086 0.98057 0.89932 0.0
H1367 H 0.89548 0.20443 0.9868 0.0
O1368 O 0.95624 0.18359 0.97363 0.0
H1369 H 0.88392 0.17072 0.10707 0.0
H1370 H 0.02143 0.1929 0.07467 0.0
H1371 H 0.98147 0.0873 0.02015 0.0
H1372 H 0.91918 0.1369 0.06769 0.0
H1373 H 0.97277 0.19397 0.03512 0.0
O1374 O 0.8336 0.11497 0.95017 0.0
H1375 H 0.90256 0.03052 0.9304 0.0
H1376 H 0.82245 0.09131 0.89091 0.0
H1377 H 0.02992 0.08505 0.05979 0.0
H1378 H 0.8602 0.23923 0.02538 0.0
H1379 H 0.0503 0.13809 0.08734 0.0
H1380 H 0.8542 0.22235 0.08597 0.0
O1381 O 0.96401 0.1141 0.96182 0.0
H1382 H 0.84906 0.20809 0.87241 0.0
H1383 H 0.90439 0.0957 0.86518 0.0
H1384 H 0.90187 0.13224 0.81422 0.0
H1385 H 0.87399 0.18885 0.81764 0.0
H1386 H 0.85239 0.17084 0.92282 0.0
H1387 H 0.79969 0.04194 0.85961 0.0
H1388 H 0.82905 0.98611 0.86361 0.0
O1389 O 0.92877 0.08933 0.92413 0.0
C1390 C 0.89987 0.0746 0.00657 0.0
C1391 C 0.86793 0.00479 0.89725 0.0
C1392 C 0.82234 0.03923 0.87501 0.0
N1393 N 0.864 0.06387 0.91217 0.0
C1394 C 0.88017 0.0332 0.91468 0.0
C1395 C 0.83531 0.06708 0.89282 0.0
C1396 C 0.83883 0.00791 0.87726 0.0
C1397 C 0.89315 0.1971 0.0132 0.0
N1398 N 0.9094 0.16875 0.02502 0.0
C1399 C 0.87307 0.21682 0.03489 0.0
C1400 C 0.86968 0.20731 0.06888 0.0
C1401 C 0.88633 0.17833 0.08073 0.0
C1402 C 0.90617 0.15921 0.05829 0.0
C1403 C 0.01275 0.16959 0.06291 0.0
C1404 C 0.98996 0.11048 0.03225 0.0
C1405 C 0.98524 0.17004 0.04045 0.0
N1406 N 0.97408 0.14067 0.02557 0.0
C1407 C 0.01751 0.10905 0.05459 0.0
C1408 C 0.02893 0.13884 0.07001 0.0
C1409 C 0.95837 0.09519 0.93607 0.0
C1410 C 0.86119 0.18344 0.87058 0.0
C1411 C 0.89231 0.12035 0.86689 0.0
C1412 C 0.89089 0.14089 0.83793 0.0
C1413 C 0.87523 0.17264 0.83987 0.0
N1414 N 0.8784 0.13109 0.89689 0.0
C1415 C 0.86305 0.1622 0.899 0.0
C1416 C 0.09142 0.05987 0.48538 0.0
C1417 C 0.08144 0.06844 0.51855 0.0
H1418 H 0.07947 0.06119 0.43261 0.0
C1419 C 0.05277 0.08946 0.52313 0.0
H1420 H 0.11366 0.04422 0.48085 0.0
C1421 C 0.03284 0.09915 0.49526 0.0
C1422 C 0.04138 0.08818 0.46234 0.0
H1423 H 0.04455 0.09682 0.54836 0.0
H1424 H 0.00974 0.11348 0.4998 0.0
C1425 C 0.07174 0.06974 0.45763 0.0
C1426 C 0.96801 0.38947 0.49618 0.0
C1427 C 0.95827 0.39926 0.46317 0.0
H1428 H 0.95661 0.39191 0.54947 0.0
C1429 C 0.92631 0.41467 0.45849 0.0
H1430 H 0.99237 0.37742 0.50065 0.0
C1431 C 0.9061 0.42313 0.48627 0.0
C1432 C 0.91718 0.41622 0.51948 0.0
H1433 H 0.91763 0.4221 0.43344 0.0
H1434 H 0.88254 0.43673 0.48177 0.0
C1435 C 0.94752 0.39781 0.52416 0.0
C1436 C 0.02416 0.89645 0.0149 0.0
C1437 C 0.02864 0.91077 0.04735 0.0
H1438 H 0.04104 0.89474 0.9632 0.0
C1439 C 0.05699 0.93184 0.05309 0.0
H1440 H 0.00273 0.88 0.0096 0.0
C1441 C 0.07884 0.94041 0.02651 0.0
C1442 C 0.07299 0.92807 0.9935 0.0
H1443 H 0.06153 0.94308 0.07782 0.0
H1444 H 0.09948 0.95792 0.03162 0.0
C1445 C 0.04616 0.90497 0.98825 0.0
C1446 C 0.96959 0.60818 0.00954 0.0
C1447 C 0.95697 0.60135 0.04232 0.0
H1448 H 0.96158 0.60285 0.95582 0.0
C1449 C 0.92374 0.58856 0.04573 0.0
H1450 H 0.99504 0.61811 0.00605 0.0
C1451 C 0.90492 0.57953 0.0172 0.0
C1452 C 0.91867 0.58337 0.98451 0.0
H1453 H 0.91291 0.58352 0.07054 0.0
H1454 H 0.88018 0.56794 0.02087 0.0
C1455 C 0.95047 0.59934 0.98077 0.0
C1456 C 0.49416 0.03127 0.09985 0.0
C1457 C 0.46145 0.03602 0.08623 0.0
H1458 H 0.54611 0.04746 0.10005 0.0
C1459 C 0.4556 0.06414 0.06482 0.0
H1460 H 0.49955 0.01 0.11652 0.0
C1461 C 0.48225 0.08545 0.05523 0.0
C1462 C 0.51545 0.07932 0.06689 0.0
H1463 H 0.43068 0.06891 0.05411 0.0
H1464 H 0.47699 0.10589 0.0375 0.0
C1465 C 0.52089 0.05278 0.09034 0.0
C1466 C 0.50681 0.4812 0.10103 0.0
C1467 C 0.53928 0.47643 0.08684 0.0
H1468 H 0.45492 0.46515 0.10226 0.0
C1469 C 0.54484 0.44822 0.06551 0.0
H1470 H 0.50165 0.5025 0.11773 0.0
C1471 C 0.51802 0.4268 0.05659 0.0
C1472 C 0.485 0.43306 0.06877 0.0
H1473 H 0.56959 0.44349 0.05437 0.0
H1474 H 0.52297 0.40632 0.03882 0.0
C1475 C 0.47995 0.45973 0.09211 0.0
C1476 C 0.48826 0.90507 0.4259 0.0
C1477 C 0.5213 0.91638 0.41854 0.0
H1478 H 0.4353 0.91613 0.42535 0.0
C1479 C 0.52552 0.94669 0.39997 0.0
H1480 H 0.4841 0.88153 0.43965 0.0
C1481 C 0.49728 0.96689 0.39183 0.0
C1482 C 0.46445 0.9569 0.40198 0.0
H1483 H 0.55069 0.95595 0.39372 0.0
H1484 H 0.50142 0.99121 0.37957 0.0
C1485 C 0.46021 0.925 0.41763 0.0
C1486 C 0.51261 0.5844 0.42866 0.0
C1487 C 0.47952 0.57344 0.42093 0.0
H1488 H 0.56561 0.57338 0.42729 0.0
C1489 C 0.47529 0.54396 0.40107 0.0
H1490 H 0.51688 0.60727 0.44343 0.0
C1491 C 0.50349 0.5243 0.39176 0.0
C1492 C 0.53635 0.53387 0.40208 0.0
H1493 H 0.45014 0.53496 0.39442 0.0
H1494 H 0.4993 0.50066 0.37826 0.0
C1495 C 0.54065 0.56489 0.41934 0.0
C1496 C 0.09828 0.49426 0.03013 0.0
C1497 C 0.08459 0.46155 0.03469 0.0
H1498 H 0.09832 0.5462 0.04633 0.0
C1499 C 0.06289 0.45569 0.06258 0.0
H1500 H 0.11519 0.49966 0.00905 0.0
C1501 C 0.05306 0.48234 0.08379 0.0
C1502 C 0.06477 0.51555 0.07779 0.0
H1503 H 0.05211 0.43077 0.06721 0.0
H1504 H 0.03507 0.47708 0.104 0.0
C1505 C 0.08854 0.52098 0.05153 0.0
C1506 C 0.09153 0.48096 0.45665 0.0
C1507 C 0.06627 0.48557 0.43172 0.0
H1508 H 0.11885 0.50258 0.49835 0.0
C1509 C 0.05186 0.51805 0.42759 0.0
H1510 H 0.10342 0.45639 0.46042 0.0
C1511 C 0.06076 0.54462 0.44939 0.0
C1512 C 0.0843 0.53934 0.47584 0.0
H1513 H 0.03249 0.52264 0.40853 0.0
H1514 H 0.04801 0.56885 0.44638 0.0
C1515 C 0.10044 0.50753 0.47846 0.0
C1516 C 0.92469 0.94674 0.43789 0.0
C1517 C 0.90803 0.95098 0.46929 0.0
H1518 H 0.94858 0.97062 0.39543 0.0
C1519 C 0.89833 0.98389 0.47937 0.0
H1520 H 0.93214 0.92174 0.42903 0.0
C1521 C 0.90779 0.01214 0.45987 0.0
C1522 C 0.92721 0.00792 0.43007 0.0
H1523 H 0.88537 0.98805 0.50333 0.0
H1524 H 0.90161 0.03729 0.46925 0.0
C1525 C 0.93424 0.97485 0.41859 0.0
C1526 C 0.39112 0.50382 0.52396 0.0
C1527 C 0.40113 0.53663 0.53405 0.0
H1528 H 0.39399 0.45034 0.53399 0.0
C1529 C 0.41798 0.54065 0.56533 0.0
H1530 H 0.37796 0.49985 0.50009 0.0
C1531 C 0.42723 0.51242 0.5846 0.0
C1532 C 0.41983 0.47941 0.57315 0.0
H1533 H 0.42567 0.56555 0.57422 0.0
H1534 H 0.44168 0.5165 0.6077 0.0
C1535 C 0.40036 0.47542 0.54339 0.0
C1536 C 0.53499 0.60895 0.01476 0.0
C1537 C 0.56751 0.59416 0.01214 0.0
H1538 H 0.49017 0.62518 0.98821 0.0
C1539 C 0.58183 0.58961 0.97972 0.0
H1540 H 0.52331 0.61302 0.03937 0.0
C1541 C 0.56302 0.59673 0.95063 0.0
C1542 C 0.52933 0.60845 0.95312 0.0
H1543 H 0.60699 0.57879 0.97668 0.0
H1544 H 0.57434 0.59116 0.92615 0.0
C1545 C 0.516 0.61602 0.98543 0.0
C1546 C 0.46199 0.90192 0.01386 0.0
C1547 C 0.43122 0.91996 0.01049 0.0
H1548 H 0.50616 0.88219 0.98879 0.0
C1549 C 0.41907 0.92732 0.97771 0.0
H1550 H 0.47196 0.89552 0.03872 0.0
C1551 C 0.43859 0.91957 0.94916 0.0
C1552 C 0.47077 0.9043 0.95267 0.0
H1553 H 0.39526 0.94071 0.97407 0.0
H1554 H 0.42918 0.92731 0.92446 0.0
C1555 C 0.4816 0.89417 0.98519 0.0
C1556 C 0.5645 0.41779 0.54073 0.0
C1557 C 0.53321 0.401 0.53653 0.0
H1558 H 0.607 0.44149 0.51681 0.0
C1559 C 0.52324 0.39105 0.50368 0.0
H1560 H 0.57329 0.42542 0.56567 0.0
C1561 C 0.5428 0.40033 0.4754 0.0
C1562 C 0.57256 0.41977 0.47955 0.0
H1563 H 0.49938 0.37793 0.49958 0.0
H1564 H 0.53349 0.39401 0.45027 0.0
C1565 C 0.58391 0.42707 0.51261 0.0
C1566 C 0.44965 0.06075 0.54592 0.0
C1567 C 0.47615 0.08414 0.54032 0.0
H1568 H 0.40871 0.03233 0.52436 0.0
C1569 C 0.47871 0.1 0.50838 0.0
H1570 H 0.44666 0.04823 0.57028 0.0
C1571 C 0.45681 0.09089 0.48197 0.0
C1572 C 0.43189 0.06567 0.4869 0.0
H1573 H 0.49864 0.11832 0.50321 0.0
H1574 H 0.46055 0.1025 0.45727 0.0
C1575 C 0.42777 0.05162 0.51952 0.0
C1576 C 0.01556 0.52996 0.60854 0.0
C1577 C 0.01263 0.56323 0.59556 0.0
H1578 H 0.98934 0.48416 0.62252 0.0
C1579 C 0.98009 0.5776 0.59217 0.0
H1580 H 0.04028 0.51819 0.61166 0.0
C1581 C 0.95118 0.55828 0.59854 0.0
C1582 C 0.95396 0.52403 0.60832 0.0
H1583 H 0.97674 0.60324 0.58266 0.0
H1584 H 0.92659 0.56975 0.59387 0.0
C1585 C 0.98639 0.51046 0.61485 0.0
C1586 C 0.98301 0.95231 0.60089 0.0
C1587 C 0.98742 0.92054 0.58497 0.0
H1588 H 0.00739 0.99718 0.62019 0.0
C1589 C 0.02035 0.9072 0.58176 0.0
H1590 H 0.95787 0.96312 0.60396 0.0
C1591 C 0.04846 0.92638 0.59137 0.0
C1592 C 0.04442 0.95956 0.60415 0.0
H1593 H 0.02457 0.88251 0.57025 0.0
H1594 H 0.07349 0.91586 0.58679 0.0
C1595 C 0.01137 0.97177 0.61033 0.0
C1596 C 0.9767 0.41884 0.92462 0.0
C1597 C 0.00945 0.43144 0.91789 0.0
H1598 H 0.92334 0.42828 0.92373 0.0
C1599 C 0.01276 0.46235 0.90009 0.0
H1600 H 0.97313 0.3949 0.93781 0.0
C1601 C 0.98398 0.48164 0.89194 0.0
C1602 C 0.95142 0.47035 0.90145 0.0
H1603 H 0.0376 0.47266 0.89416 0.0
H1604 H 0.98747 0.50632 0.88018 0.0
C1605 C 0.94806 0.43804 0.91648 0.0
C1606 C 0.04899 0.06894 0.92011 0.0
C1607 C 0.04484 0.03651 0.90555 0.0
H1608 H 0.02494 0.11294 0.94089 0.0
C1609 C 0.01203 0.02602 0.89596 0.0
H1610 H 0.07389 0.07817 0.92736 0.0
C1611 C 0.98373 0.0463 0.90362 0.0
C1612 C 0.98785 0.0772 0.92119 0.0
H1613 H 0.00796 0.00127 0.88458 0.0
H1614 H 0.9586 0.03671 0.89778 0.0
C1615 C 0.02085 0.08894 0.92796 0.0
C1616 C 0.60988 0.0158 0.53125 0.0
C1617 C 0.59643 0.01284 0.56434 0.0
H1618 H 0.62475 0.98959 0.48571 0.0
C1619 C 0.59294 0.98028 0.57864 0.0
H1620 H 0.61308 0.04052 0.51952 0.0
C1621 C 0.5998 0.95137 0.55947 0.0
C1622 C 0.61016 0.95415 0.52538 0.0
H1623 H 0.58302 0.97688 0.60411 0.0
H1624 H 0.59507 0.92678 0.5709 0.0
C1625 C 0.61667 0.98662 0.51188 0.0
C1626 C 0.58939 0.04917 0.92622 0.0
C1627 C 0.60215 0.04568 0.95945 0.0
H1628 H 0.56875 0.02442 0.8826 0.0
C1629 C 0.60896 0.01285 0.97198 0.0
H1630 H 0.58435 0.07403 0.91547 0.0
C1631 C 0.6001 0.98413 0.9528 0.0
C1632 C 0.58412 0.98795 0.92102 0.0
H1633 H 0.61886 0.00929 0.99743 0.0
H1634 H 0.6036 0.95914 0.96386 0.0
C1635 C 0.58032 0.02069 0.90734 0.0
C1636 C 0.42983 0.48755 0.90619 0.0
C1637 C 0.42165 0.52081 0.91627 0.0
H1638 H 0.42912 0.43487 0.91853 0.0
C1639 C 0.40167 0.52561 0.94559 0.0
H1640 H 0.44467 0.4829 0.88342 0.0
C1641 C 0.39277 0.49782 0.96606 0.0
C1642 C 0.40355 0.46483 0.95737 0.0
H1643 H 0.39472 0.55094 0.95389 0.0
H1644 H 0.37928 0.50246 0.98964 0.0
C1645 C 0.42082 0.45993 0.9264 0.0
C1646 C 0.91226 0.04914 0.06326 0.0
C1647 C 0.89908 0.04534 0.03025 0.0
H1648 H 0.9308 0.02483 0.10792 0.0
C1649 C 0.88978 0.01267 0.01907 0.0
H1650 H 0.9193 0.07393 0.07295 0.0
C1651 C 0.8963 0.98415 0.03945 0.0
C1652 C 0.91228 0.98789 0.07127 0.0
H1653 H 0.87947 0.00887 0.99382 0.0
H1654 H 0.89068 0.95915 0.02938 0.0
C1655 C 0.91884 0.02083 0.08345 0.0
C1656 C 0.02937 0.22345 0.3872 0.0
C1657 C 0.99616 0.21027 0.38729 0.0
H1658 H 0.06068 0.26803 0.388 0.0
C1659 C 0.96853 0.23294 0.38587 0.0
H1660 H 0.05119 0.20664 0.38826 0.0
C1661 C 0.97395 0.26805 0.38535 0.0
C1662 C 0.00711 0.28128 0.3867 0.0
H1663 H 0.94261 0.22357 0.38568 0.0
H1664 H 0.95207 0.28479 0.38493 0.0
C1665 C 0.0348 0.25862 0.38713 0.0
C1666 C 0.96241 0.72811 0.12 0.0
C1667 C 0.99616 0.71647 0.122 0.0
H1668 H 0.92916 0.77106 0.11581 0.0
C1669 C 0.02265 0.7404 0.12353 0.0
H1670 H 0.94141 0.71034 0.11877 0.0
C1671 C 0.01559 0.77525 0.1222 0.0
C1672 C 0.98193 0.78683 0.1188 0.0
H1673 H 0.04892 0.73223 0.12522 0.0
H1674 H 0.03661 0.79304 0.12281 0.0
C1675 C 0.95538 0.76292 0.11818 0.0
C1676 C 0.38978 0.02298 0.22573 0.0
C1677 C 0.39203 0.98952 0.21336 0.0
H1678 H 0.3878 0.0553 0.26953 0.0
C1679 C 0.39178 0.96237 0.23661 0.0
H1680 H 0.38985 0.04445 0.20845 0.0
C1681 C 0.39014 0.96856 0.27156 0.0
C1682 C 0.38924 0.00206 0.28399 0.0
H1683 H 0.39324 0.93628 0.22784 0.0
H1684 H 0.39063 0.94709 0.28882 0.0
C1685 C 0.38865 0.0292 0.26072 0.0
C1686 C 0.61054 0.4829 0.22104 0.0
C1687 C 0.60782 0.51727 0.2115 0.0
H1688 H 0.61261 0.44696 0.26194 0.0
C1689 C 0.60708 0.54233 0.23694 0.0
H1690 H 0.6112 0.46299 0.20202 0.0
C1691 C 0.60837 0.53315 0.27125 0.0
C1692 C 0.60988 0.49871 0.28081 0.0
H1693 H 0.60518 0.56903 0.23036 0.0
H1694 H 0.60722 0.55304 0.29028 0.0
C1695 C 0.61129 0.4737 0.25536 0.0
C1696 C 0.27044 0.39194 0.96831 0.0
C1697 C 0.2826 0.39131 0.0019 0.0
H1698 H 0.22695 0.39435 0.93566 0.0
C1699 C 0.25909 0.39052 0.02884 0.0
H1700 H 0.28789 0.39258 0.94699 0.0
C1701 C 0.22415 0.39115 0.02233 0.0
C1702 C 0.21203 0.39311 0.98877 0.0
H1703 H 0.26769 0.38986 0.05501 0.0
H1704 H 0.20669 0.39107 0.04365 0.0
C1705 C 0.23552 0.39309 0.96182 0.0
C1706 C 0.22056 0.61059 0.4828 0.0
C1707 C 0.21092 0.60735 0.51709 0.0
H1708 H 0.2616 0.61357 0.44706 0.0
C1709 C 0.23629 0.6067 0.54222 0.0
H1710 H 0.20159 0.61118 0.46284 0.0
C1711 C 0.27062 0.60856 0.53321 0.0
C1712 C 0.28031 0.61055 0.49884 0.0
H1713 H 0.22964 0.60442 0.56887 0.0
H1714 H 0.28958 0.60744 0.55316 0.0
C1715 C 0.25492 0.6119 0.47374 0.0
C1716 C 0.73126 0.86929 0.52382 0.0
C1717 C 0.72091 0.8695 0.48959 0.0
H1718 H 0.77285 0.87089 0.55886 0.0
C1719 C 0.74585 0.86917 0.46397 0.0
H1720 H 0.71272 0.86947 0.54421 0.0
C1721 C 0.78041 0.86964 0.47243 0.0
C1722 C 0.79069 0.87089 0.50666 0.0
H1723 H 0.7387 0.86919 0.43737 0.0
H1724 H 0.79902 0.87012 0.45211 0.0
C1725 C 0.76576 0.87018 0.53225 0.0
C1726 C 0.47571 0.77938 0.86914 0.0
C1727 C 0.50983 0.78993 0.87092 0.0
H1728 H 0.44099 0.73743 0.86807 0.0
C1729 C 0.53564 0.76521 0.87052 0.0
H1730 H 0.45521 0.79781 0.86935 0.0
C1731 C 0.52749 0.73064 0.86942 0.0
C1732 C 0.49335 0.72004 0.86912 0.0
H1733 H 0.56218 0.77253 0.87164 0.0
H1734 H 0.54801 0.71224 0.86989 0.0
C1735 C 0.46754 0.74478 0.86846 0.0
C1736 C 0.53246 0.27074 0.60857 0.0
C1737 C 0.49801 0.28023 0.61025 0.0
H1738 H 0.56842 0.22996 0.60494 0.0
C1739 C 0.47306 0.25469 0.61152 0.0
H1740 H 0.5523 0.28981 0.60752 0.0
C1741 C 0.48235 0.22037 0.61048 0.0
C1742 C 0.51673 0.21093 0.60758 0.0
H1743 H 0.44632 0.26122 0.61295 0.0
H1744 H 0.4625 0.20128 0.61102 0.0
C1745 C 0.54171 0.23645 0.60697 0.0
C1746 C 0.86785 0.47308 0.77715 0.0
C1747 C 0.86955 0.50738 0.78714 0.0
H1748 H 0.86708 0.43765 0.73578 0.0
C1749 C 0.86934 0.53278 0.76201 0.0
H1750 H 0.86791 0.45289 0.79591 0.0
C1751 C 0.86849 0.52404 0.72759 0.0
C1752 C 0.86827 0.48971 0.71755 0.0
H1753 H 0.87041 0.55944 0.76888 0.0
H1754 H 0.86909 0.54425 0.70886 0.0
C1755 C 0.86741 0.46432 0.7427 0.0
C1756 C 0.12671 0.02892 0.74395 0.0
C1757 C 0.12529 0.00162 0.72092 0.0
H1758 H 0.12715 0.0446 0.79606 0.0
C1759 C 0.12502 0.96822 0.73368 0.0
H1760 H 0.12715 0.05496 0.73492 0.0
C1761 C 0.12469 0.96228 0.76873 0.0
C1762 C 0.12504 0.98962 0.79177 0.0
H1763 H 0.12399 0.94661 0.71662 0.0
H1764 H 0.12354 0.93627 0.77777 0.0
C1765 C 0.1268 0.02298 0.779 0.0
C1766 C 0.76309 0.12766 0.9599 0.0
C1767 C 0.78672 0.1274 0.9867 0.0
H1768 H 0.71064 0.12755 0.94542 0.0
C1769 C 0.77473 0.12869 0.02036 0.0
H1770 H 0.77153 0.12687 0.93368 0.0
C1771 C 0.73982 0.12874 0.02711 0.0
C1772 C 0.71618 0.12791 0.00033 0.0
H1773 H 0.79227 0.12859 0.04159 0.0
H1774 H 0.73138 0.1288 0.05335 0.0
C1775 C 0.72818 0.12812 0.96664 0.0
C1776 C 0.94967 0.97227 0.25069 0.0
C1777 C 0.92792 0.98475 0.22523 0.0
H1778 H 0.97238 0.98104 0.29922 0.0
C1779 C 0.90794 0.01372 0.23215 0.0
H1780 H 0.96516 0.94986 0.24652 0.0
C1781 C 0.91176 0.03136 0.2629 0.0
C1782 C 0.93597 0.02048 0.28668 0.0
H1783 H 0.8908 0.02387 0.21313 0.0
H1784 H 0.89753 0.0546 0.26707 0.0
C1785 C 0.95395 0.9902 0.28087 0.0
C1786 C 0.02222 0.47319 0.25676 0.0
C1787 C 0.04798 0.47831 0.28094 0.0
H1788 H 0.99947 0.48942 0.21038 0.0
C1789 C 0.07334 0.50274 0.27424 0.0
H1790 H 0.00254 0.45431 0.26069 0.0
C1791 C 0.07165 0.52298 0.2448 0.0
C1792 C 0.04436 0.51924 0.22209 0.0
H1793 H 0.09356 0.50725 0.29238 0.0
H1794 H 0.09064 0.5425 0.24067 0.0
C1795 C 0.02032 0.49351 0.22791 0.0
C1796 C 0.24212 0.91228 0.98075 0.0
C1797 C 0.21852 0.93798 0.98833 0.0
H1798 H 0.29145 0.89149 0.99165 0.0
C1799 C 0.22411 0.95911 0.01651 0.0
H1800 H 0.23816 0.89562 0.95919 0.0
C1801 C 0.25392 0.95647 0.03528 0.0
C1802 C 0.27919 0.93299 0.02597 0.0
H1803 H 0.20591 0.9787 0.02329 0.0
H1804 H 0.25794 0.97429 0.0559 0.0
C1805 C 0.27248 0.90991 0.9994 0.0
C1806 C 0.74408 0.55634 0.03014 0.0
C1807 C 0.71854 0.57916 0.0199 0.0
H1808 H 0.79155 0.5329 0.01809 0.0
C1809 C 0.72445 0.60011 0.9914 0.0
H1810 H 0.74071 0.54016 0.0522 0.0
C1811 C 0.75413 0.59618 0.97198 0.0
C1812 C 0.77785 0.57097 0.98063 0.0
H1813 H 0.70532 0.61804 0.98291 0.0
H1814 H 0.75744 0.61121 0.94911 0.0
C1815 C 0.77318 0.55204 0.01051 0.0
C1816 C 0.27634 0.07408 0.5033 0.0
C1817 C 0.28247 0.04766 0.47985 0.0
H1818 H 0.2436 0.09317 0.54295 0.0
C1819 C 0.25814 0.02177 0.47634 0.0
H1820 H 0.29461 0.09442 0.50655 0.0
C1821 C 0.22971 0.02086 0.49727 0.0
C1822 C 0.22447 0.04597 0.52209 0.0
H1823 H 0.26164 0.00131 0.45822 0.0
H1824 H 0.212 -2e-05 0.49434 0.0
C1825 C 0.24732 0.07334 0.5242 0.0
C1826 C 0.77152 0.46749 0.49159 0.0
C1827 C 0.77611 0.44235 0.51655 0.0
H1828 H 0.74058 0.48699 0.45171 0.0
C1829 C 0.75335 0.41488 0.51797 0.0
H1830 H 0.78918 0.48849 0.48921 0.0
C1831 C 0.72497 0.41405 0.49627 0.0
C1832 C 0.71939 0.4405 0.47272 0.0
H1833 H 0.75657 0.39502 0.5368 0.0
H1834 H 0.70667 0.39366 0.49907 0.0
C1835 C 0.7437 0.46648 0.46986 0.0
C1836 C 0.03121 0.25498 0.95508 0.0
C1837 C 0.02315 0.28028 0.93116 0.0
H1838 H 0.01753 0.20744 0.97734 0.0
C1839 C 0.99688 0.27406 0.90759 0.0
H1840 H 0.05155 0.25859 0.9733 0.0
C1841 C 0.97742 0.2442 0.90975 0.0
C1842 C 0.98381 0.22059 0.93575 0.0
H1843 H 0.99009 0.29304 0.88881 0.0
H1844 H 0.95622 0.24061 0.89254 0.0
C1845 C 0.01159 0.22569 0.95753 0.0
C1846 C 0.9899 0.72344 0.60279 0.0
C1847 C 0.01896 0.71696 0.58278 0.0
H1848 H 0.94836 0.75763 0.61304 0.0
C1849 C 0.0311 0.7427 0.56116 0.0
H1850 H 0.97998 0.70421 0.61984 0.0
C1851 C 0.0127 0.77262 0.55687 0.0
C1852 C 0.98222 0.77788 0.57469 0.0
H1853 H 0.05361 0.73888 0.54571 0.0
H1854 H 0.0216 0.79113 0.53846 0.0
C1855 C 0.97174 0.75391 0.59892 0.0
C1856 C 0.51927 0.75349 0.41661 0.0
C1857 C 0.51921 0.77562 0.44464 0.0
H1858 H 0.49874 0.70774 0.39487 0.0
C1859 C 0.4951 0.77075 0.47054 0.0
H1860 H 0.5374 0.75695 0.39614 0.0
C1861 C 0.4728 0.74337 0.46958 0.0
C1862 C 0.47422 0.71971 0.44288 0.0
H1863 H 0.4937 0.78793 0.49201 0.0
H1864 H 0.45526 0.7401 0.4906 0.0
C1865 C 0.49704 0.72552 0.41583 0.0
C1866 C 0.41766 0.52035 0.75327 0.0
C1867 C 0.44558 0.51909 0.7755 0.0
H1868 H 0.39538 0.50087 0.70734 0.0
C1869 C 0.47047 0.49392 0.77077 0.0
H1870 H 0.39797 0.53933 0.75663 0.0
C1871 C 0.46873 0.47172 0.74335 0.0
C1872 C 0.44227 0.47435 0.71952 0.0
H1873 H 0.49179 0.49166 0.78805 0.0
H1874 H 0.48904 0.45336 0.74013 0.0
C1875 C 0.41613 0.49823 0.72525 0.0
C1876 C 0.59799 0.97192 0.75562 0.0
C1877 C 0.57326 0.98223 0.77916 0.0
H1878 H 0.61963 0.98017 0.70625 0.0
C1879 C 0.55515 0.01246 0.77347 0.0
H1880 H 0.61236 0.94875 0.75969 0.0
C1881 C 0.55979 0.03083 0.74357 0.0
C1882 C 0.58197 0.01882 0.71824 0.0
H1883 H 0.53637 0.02124 0.79166 0.0
H1884 H 0.54418 0.05317 0.73944 0.0
C1885 C 0.60214 0.98998 0.72515 0.0
C1886 C 0.47137 0.2578 0.02603 0.0
C1887 C 0.47688 0.28246 0.05126 0.0
H1888 H 0.48746 0.21109 0.0038 0.0
C1889 C 0.50158 0.27618 0.07645 0.0
H1890 H 0.45227 0.26143 0.00651 0.0
C1891 C 0.52185 0.24676 0.07498 0.0
C1892 C 0.51784 0.22365 0.04807 0.0
H1893 H 0.50639 0.2947 0.09625 0.0
H1894 H 0.54169 0.24302 0.09371 0.0
C1895 C 0.49171 0.22895 0.02434 0.0
loop_
_geom_bond_atom_site_label_1
_geom_bond_atom_site_label_2
_geom_bond_distance
_geom_bond_site_symmetry_2
_ccdc_geom_bond_type
Co0 O2 2.143 . S
Co0 O8 2.074 . S
Co0 O11 2.093 . S
Co0 O24 2.097 1_455 S
Co0 N41 2.151 . S
Co0 N49 2.214 1_545 S
Co1 O2 2.160 1_655 S
Co1 O7 2.058 1_655 S
Co1 O17 2.057 . S
Co1 O32 2.037 . S
Co1 N36 2.145 . S
Co1 N57 2.257 . S
O2 Co0 2.143 . S
O2 Co1 2.160 1_455 S
C3 O4 1.278 . S
C3 O11 1.224 1_655 S
O4 C3 1.278 . S
C5 O6 1.237 1_655 S
C5 O17 1.239 . S
O6 C5 1.237 1_455 S
O7 Co1 2.058 1_455 S
O7 C33 1.269 . S
O8 Co0 2.074 . S
O8 C33 1.257 . S
H9 C34 0.930 . S
H10 C40 0.930 . S
O11 Co0 2.093 . S
O11 C3 1.224 1_455 S
H12 C44 0.929 . S
H13 C46 0.930 . S
H14 C47 0.930 . S
H15 C45 0.929 . S
H16 C48 0.928 . S
O17 Co1 2.057 . S
O17 C5 1.239 . S
H18 C37 0.929 . S
H19 C38 0.929 . S
H20 C50 0.931 . S
H21 C42 0.929 . S
H22 C51 0.930 . S
H23 C43 0.931 . S
O24 Co0 2.097 1_655 S
O24 C52 1.214 . S
H25 C53 0.929 . S
H26 C54 0.929 . S
H27 C55 0.930 . S
H28 C56 0.929 . S
H29 C58 0.930 . S
H30 C35 0.930 . S
H31 C39 0.930 . S
O32 Co1 2.037 . S
O32 C52 1.234 . S
C33 O7 1.269 . S
C33 O8 1.257 . S
C34 H9 0.930 . S
C34 C37 1.388 . S
C34 C39 1.418 . S
C35 H30 0.930 . S
C35 C38 1.404 . S
C35 C39 1.353 . S
N36 Co1 2.145 . S
N36 C37 1.397 . S
N36 C38 1.334 . S
C37 H18 0.929 . S
C37 C34 1.388 . S
C37 N36 1.397 . S
C38 H19 0.929 . S
C38 C35 1.404 . S
C38 N36 1.334 . S
C39 H31 0.930 . S
C39 C34 1.418 . S
C39 C35 1.353 . S
C40 H10 0.930 . S
C40 N41 1.330 . S
C40 C42 1.446 . S
N41 Co0 2.151 . S
N41 C40 1.330 . S
N41 C45 1.418 . S
C42 H21 0.929 . S
C42 C40 1.446 . S
C42 C43 1.332 . S
C43 H23 0.931 . S
C43 C42 1.332 . S
C43 C44 1.267 . S
C44 H12 0.929 . S
C44 C43 1.267 . S
C44 C45 1.251 . S
C45 H15 0.929 . S
C45 N41 1.418 . S
C45 C44 1.251 . S
C46 H13 0.930 . S
C46 C48 1.406 . S
C46 C51 1.261 . S
C47 H14 0.930 . S
C47 N49 1.325 . S
C47 C50 1.357 . S
C48 H16 0.928 . S
C48 C46 1.406 . S
C48 N49 1.261 . S
N49 Co0 2.214 1_565 S
N49 C47 1.325 . S
N49 C48 1.261 . S
C50 H20 0.931 . S
C50 C47 1.357 . S
C50 C51 1.312 . S
C51 H22 0.930 . S
C51 C46 1.261 . S
C51 C50 1.312 . S
C52 O24 1.214 . S
C52 O32 1.234 . S
C53 H25 0.929 . S
C53 C56 1.391 . S
C53 C58 1.391 . S
C54 H26 0.929 . S
C54 C55 1.390 . S
C54 N57 1.391 . S
C55 H27 0.930 . S
C55 C54 1.390 . S
C55 C56 1.392 . S
C56 H28 0.929 . S
C56 C53 1.391 . S
C56 C55 1.392 . S
N57 Co1 2.257 . S
N57 C54 1.391 . S
N57 C58 1.388 . S
C58 H29 0.930 . S
C58 C53 1.391 . S
C58 N57 1.388 . S
Co59 O61 2.143 . S
Co59 O67 2.074 . S
Co59 O70 2.093 . S
Co59 O83 2.097 1_655 S
Co59 N100 2.151 . S
Co59 N108 2.214 . S
Co60 O61 2.160 1_455 S
Co60 O66 2.058 1_455 S
Co60 O76 2.057 . S
Co60 O91 2.037 . S
Co60 N95 2.145 . S
Co60 N116 2.257 . S
O61 Co59 2.143 . S
O61 Co60 2.160 1_655 S
C62 O63 1.278 . S
C62 O70 1.224 1_455 S
O63 C62 1.278 . S
C64 O65 1.245 1_455 S
C64 O76 1.232 . S
O65 C64 1.245 1_655 S
O66 Co60 2.058 1_655 S
O66 C92 1.269 . S
O67 Co59 2.074 . S
O67 C92 1.257 . S
H68 C93 0.930 . S
H69 C99 0.930 . S
O70 Co59 2.093 . S
O70 C62 1.224 1_655 S
H71 C103 0.929 . S
H72 C105 0.930 . S
H73 C106 0.930 . S
H74 C104 0.929 . S
H75 C107 0.928 . S
O76 Co60 2.057 . S
O76 C64 1.232 . S
H77 C96 0.929 . S
H78 C97 0.929 . S
H79 C109 0.931 . S
H80 C101 0.929 . S
H81 C110 0.930 . S
H82 C102 0.931 . S
O83 Co59 2.097 1_455 S
O83 C111 1.214 . S
H84 C112 0.929 . S
H85 C113 0.929 . S
H86 C114 0.930 . S
H87 C115 0.929 . S
H88 C117 0.930 . S
H89 C94 0.930 . S
H90 C98 0.930 . S
O91 Co60 2.037 . S
O91 C111 1.234 . S
C92 O66 1.269 . S
C92 O67 1.257 . S
C93 H68 0.930 . S
C93 C96 1.388 . S
C93 C98 1.418 . S
C94 H89 0.930 . S
C94 C97 1.404 . S
C94 C98 1.353 . S
N95 Co60 2.145 . S
N95 C96 1.397 . S
N95 C97 1.334 . S
C96 H77 0.929 . S
C96 C93 1.388 . S
C96 N95 1.397 . S
C97 H78 0.929 . S
C97 C94 1.404 . S
C97 N95 1.334 . S
C98 H90 0.930 . S
C98 C93 1.418 . S
C98 C94 1.353 . S
C99 H69 0.930 . S
C99 N100 1.330 . S
C99 C101 1.446 . S
N100 Co59 2.151 . S
N100 C99 1.330 . S
N100 C104 1.418 . S
C101 H80 0.929 . S
C101 C99 1.446 . S
C101 C102 1.332 . S
C102 H82 0.931 . S
C102 C101 1.332 . S
C102 C103 1.267 . S
C103 H71 0.929 . S
C103 C102 1.267 . S
C103 C104 1.251 . S
C104 H74 0.929 . S
C104 N100 1.418 . S
C104 C103 1.251 . S
C105 H72 0.930 . S
C105 C107 1.406 . S
C105 C110 1.261 . S
C106 H73 0.930 . S
C106 N108 1.325 . S
C106 C109 1.357 . S
C107 H75 0.928 . S
C107 C105 1.406 . S
C107 N108 1.261 . S
N108 Co59 2.214 . S
N108 C106 1.325 . S
N108 C107 1.261 . S
C109 H79 0.931 . S
C109 C106 1.357 . S
C109 C110 1.312 . S
C110 H81 0.930 . S
C110 C105 1.261 . S
C110 C109 1.312 . S
C111 O83 1.214 . S
C111 O91 1.234 . S
C112 H84 0.929 . S
C112 C115 1.391 . S
C112 C117 1.391 . S
C113 H85 0.929 . S
C113 C114 1.390 . S
C113 N116 1.391 . S
C114 H86 0.930 . S
C114 C113 1.390 . S
C114 C115 1.392 . S
C115 H87 0.929 . S
C115 C112 1.391 . S
C115 C114 1.392 . S
N116 Co60 2.257 . S
N116 C113 1.391 . S
N116 C117 1.388 . S
C117 H88 0.930 . S
C117 C112 1.391 . S
C117 N116 1.388 . S
Co118 O120 2.143 . S
Co118 O126 2.074 . S
Co118 O129 2.093 . S
Co118 O142 2.097 1_455 S
Co118 N159 2.151 . S
Co118 N167 2.214 1_565 S
Co119 O120 2.160 1_655 S
Co119 O125 2.058 1_655 S
Co119 O135 2.057 . S
Co119 O150 2.037 . S
Co119 N154 2.145 . S
Co119 N175 2.257 . S
O120 Co118 2.143 . S
O120 Co119 2.160 1_455 S
C121 O122 1.278 . S
C121 O129 1.224 1_655 S
O122 C121 1.278 . S
C123 O124 1.245 1_655 S
C123 O135 1.232 . S
O124 C123 1.245 1_455 S
O125 Co119 2.058 1_455 S
O125 C151 1.269 . S
O126 Co118 2.074 . S
O126 C151 1.257 . S
H127 C152 0.930 1_556 S
H128 C158 0.930 . S
O129 Co118 2.093 . S
O129 C121 1.224 1_455 S
H130 C162 0.929 . S
H131 C164 0.930 . S
H132 C165 0.930 . S
H133 C163 0.929 . S
H134 C166 0.928 . S
O135 Co119 2.057 . S
O135 C123 1.232 . S
H136 C155 0.929 . S
H137 C156 0.929 . S
H138 C168 0.931 . S
H139 C160 0.929 . S
H140 C169 0.930 . S
H141 C161 0.931 . S
O142 Co118 2.097 1_655 S
O142 C170 1.214 . S
H143 C171 0.929 . S
H144 C172 0.929 . S
H145 C173 0.930 . S
H146 C174 0.929 . S
H147 C176 0.930 . S
H148 C153 0.930 . S
H149 C157 0.930 1_556 S
O150 Co119 2.037 . S
O150 C170 1.234 . S
C151 O125 1.269 . S
C151 O126 1.257 . S
C152 H127 0.930 1_554 S
C152 C155 1.388 . S
C152 C157 1.418 . S
C153 H148 0.930 . S
C153 C156 1.404 . S
C153 C157 1.353 . S
N154 Co119 2.145 . S
N154 C155 1.397 . S
N154 C156 1.334 . S
C155 H136 0.929 . S
C155 C152 1.388 . S
C155 N154 1.397 . S
C156 H137 0.929 . S
C156 C153 1.404 . S
C156 N154 1.334 . S
C157 H149 0.930 1_554 S
C157 C152 1.418 . S
C157 C153 1.353 . S
C158 H128 0.930 . S
C158 N159 1.330 . S
C158 C160 1.446 . S
N159 Co118 2.151 . S
N159 C158 1.330 . S
N159 C163 1.418 . S
C160 H139 0.929 . S
C160 C158 1.446 . S
C160 C161 1.332 . S
C161 H141 0.931 . S
C161 C160 1.332 . S
C161 C162 1.267 . S
C162 H130 0.929 . S
C162 C161 1.267 . S
C162 C163 1.251 . S
C163 H133 0.929 . S
C163 N159 1.418 . S
C163 C162 1.251 . S
C164 H131 0.930 . S
C164 C166 1.406 . S
C164 C169 1.261 . S
C165 H132 0.930 . S
C165 N167 1.325 . S
C165 C168 1.357 . S
C166 H134 0.928 . S
C166 C164 1.406 . S
C166 N167 1.261 . S
N167 Co118 2.214 1_545 S
N167 C165 1.325 . S
N167 C166 1.261 . S
C168 H138 0.931 . S
C168 C165 1.357 . S
C168 C169 1.312 . S
C169 H140 0.930 . S
C169 C164 1.261 . S
C169 C168 1.312 . S
C170 O142 1.214 . S
C170 O150 1.234 . S
C171 H143 0.929 . S
C171 C174 1.391 . S
C171 C176 1.391 . S
C172 H144 0.929 . S
C172 C173 1.390 . S
C172 N175 1.391 . S
C173 H145 0.930 . S
C173 C172 1.390 . S
C173 C174 1.392 . S
C174 H146 0.929 . S
C174 C171 1.391 . S
C174 C173 1.392 . S
N175 Co119 2.257 . S
N175 C172 1.391 . S
N175 C176 1.388 . S
C176 H147 0.930 . S
C176 C171 1.391 . S
C176 N175 1.388 . S
Co177 O179 2.143 . S
Co177 O185 2.074 . S
Co177 O188 2.093 . S
Co177 O201 2.097 1_655 S
Co177 N218 2.151 . S
Co177 N226 2.214 . S
Co178 O179 2.160 1_455 S
Co178 O184 2.058 1_455 S
Co178 O194 2.057 . S
Co178 O209 2.037 . S
Co178 N213 2.145 . S
Co178 N234 2.257 . S
O179 Co177 2.143 . S
O179 Co178 2.160 1_655 S
C180 O181 1.278 . S
C180 O188 1.224 1_455 S
O181 C180 1.278 . S
C182 O183 1.245 1_455 S
C182 O194 1.232 . S
O183 C182 1.245 1_655 S
O184 Co178 2.058 1_655 S
O184 C210 1.269 . S
O185 Co177 2.074 . S
O185 C210 1.257 . S
H186 C211 0.930 1_556 S
H187 C217 0.930 . S
O188 Co177 2.093 . S
O188 C180 1.224 1_655 S
H189 C221 0.929 . S
H190 C223 0.930 . S
H191 C224 0.930 . S
H192 C222 0.929 . S
H193 C225 0.928 . S
O194 Co178 2.057 . S
O194 C182 1.232 . S
H195 C214 0.929 . S
H196 C215 0.929 . S
H197 C227 0.931 . S
H198 C219 0.929 . S
H199 C228 0.930 . S
H200 C220 0.931 . S
O201 Co177 2.097 1_455 S
O201 C229 1.214 . S
H202 C230 0.929 . S
H203 C231 0.929 . S
H204 C232 0.930 . S
H205 C233 0.929 . S
H206 C235 0.930 . S
H207 C212 0.930 . S
H208 C216 0.930 1_556 S
O209 Co178 2.037 . S
O209 C229 1.234 . S
C210 O184 1.269 . S
C210 O185 1.257 . S
C211 H186 0.930 1_554 S
C211 C214 1.388 . S
C211 C216 1.418 . S
C212 H207 0.930 . S
C212 C215 1.404 . S
C212 C216 1.353 . S
N213 Co178 2.145 . S
N213 C214 1.397 . S
N213 C215 1.334 . S
C214 H195 0.929 . S
C214 C211 1.388 . S
C214 N213 1.397 . S
C215 H196 0.929 . S
C215 C212 1.404 . S
C215 N213 1.334 . S
C216 H208 0.930 1_554 S
C216 C211 1.418 . S
C216 C212 1.353 . S
C217 H187 0.930 . S
C217 N218 1.330 . S
C217 C219 1.446 . S
N218 Co177 2.151 . S
N218 C217 1.330 . S
N218 C222 1.418 . S
C219 H198 0.929 . S
C219 C217 1.446 . S
C219 C220 1.332 . S
C220 H200 0.931 . S
C220 C219 1.332 . S
C220 C221 1.267 . S
C221 H189 0.929 . S
C221 C220 1.267 . S
C221 C222 1.251 . S
C222 H192 0.929 . S
C222 N218 1.418 . S
C222 C221 1.251 . S
C223 H190 0.930 . S
C223 C225 1.406 . S
C223 C228 1.261 . S
C224 H191 0.930 . S
C224 N226 1.325 . S
C224 C227 1.357 . S
C225 H193 0.928 . S
C225 C223 1.406 . S
C225 N226 1.261 . S
N226 Co177 2.214 . S
N226 C224 1.325 . S
N226 C225 1.261 . S
C227 H197 0.931 . S
C227 C224 1.357 . S
C227 C228 1.312 . S
C228 H199 0.930 . S
C228 C223 1.261 . S
C228 C227 1.312 . S
C229 O201 1.214 . S
C229 O209 1.234 . S
C230 H202 0.929 . S
C230 C233 1.391 . S
C230 C235 1.391 . S
C231 H203 0.929 . S
C231 C232 1.390 . S
C231 N234 1.391 . S
C232 H204 0.930 . S
C232 C231 1.390 . S
C232 C233 1.392 . S
C233 H205 0.929 . S
C233 C230 1.391 . S
C233 C232 1.392 . S
N234 Co178 2.257 . S
N234 C231 1.391 . S
N234 C235 1.388 . S
C235 H206 0.930 . S
C235 C230 1.391 . S
C235 N234 1.388 . S
Co236 O238 2.143 . S
Co236 O244 2.074 . S
Co236 O247 2.093 . S
Co236 O260 2.097 1_545 S
Co236 N277 2.151 . S
Co236 N285 2.214 1_554 S
Co237 O238 2.160 1_565 S
Co237 O243 2.058 1_565 S
Co237 O253 2.057 . S
Co237 O268 2.037 . S
Co237 N272 2.145 . S
Co237 N293 2.257 . S
O238 Co236 2.143 . S
O238 Co237 2.160 1_545 S
C239 O240 1.278 . S
C239 O247 1.224 1_565 S
O240 C239 1.278 . S
C241 O242 1.237 1_565 S
C241 O253 1.239 . S
O242 C241 1.237 1_545 S
O243 Co237 2.058 1_545 S
O243 C269 1.269 . S
O244 Co236 2.074 . S
O244 C269 1.257 . S
H245 C270 0.930 . S
H246 C276 0.930 . S
O247 Co236 2.093 . S
O247 C239 1.224 1_545 S
H248 C280 0.929 . S
H249 C282 0.930 . S
H250 C283 0.930 . S
H251 C281 0.929 . S
H252 C284 0.928 . S
O253 Co237 2.057 . S
O253 C241 1.239 . S
H254 C273 0.929 . S
H255 C274 0.929 . S
H256 C286 0.931 . S
H257 C278 0.929 . S
H258 C287 0.930 . S
H259 C279 0.931 . S
O260 Co236 2.097 1_565 S
O260 C288 1.214 . S
H261 C289 0.929 . S
H262 C290 0.929 . S
H263 C291 0.930 . S
H264 C292 0.929 . S
H265 C294 0.930 . S
H266 C271 0.930 . S
H267 C275 0.930 . S
O268 Co237 2.037 . S
O268 C288 1.234 . S
C269 O243 1.269 . S
C269 O244 1.257 . S
C270 H245 0.930 . S
C270 C273 1.388 . S
C270 C275 1.418 . S
C271 H266 0.930 . S
C271 C274 1.404 . S
C271 C275 1.353 . S
N272 Co237 2.145 . S
N272 C273 1.397 . S
N272 C274 1.334 . S
C273 H254 0.929 . S
C273 C270 1.388 . S
C273 N272 1.397 . S
C274 H255 0.929 . S
C274 C271 1.404 . S
C274 N272 1.334 . S
C275 H267 0.930 . S
C275 C270 1.418 . S
C275 C271 1.353 . S
C276 H246 0.930 . S
C276 N277 1.330 . S
C276 C278 1.446 . S
N277 Co236 2.151 . S
N277 C276 1.330 . S
N277 C281 1.418 . S
C278 H257 0.929 . S
C278 C276 1.446 . S
C278 C279 1.332 . S
C279 H259 0.931 . S
C279 C278 1.332 . S
C279 C280 1.267 . S
C280 H248 0.929 . S
C280 C279 1.267 . S
C280 C281 1.251 . S
C281 H251 0.929 . S
C281 N277 1.418 . S
C281 C280 1.251 . S
C282 H249 0.930 . S
C282 C284 1.406 . S
C282 C287 1.261 . S
C283 H250 0.930 . S
C283 N285 1.325 . S
C283 C286 1.357 . S
C284 H252 0.928 . S
C284 C282 1.406 . S
C284 N285 1.261 . S
N285 Co236 2.214 1_556 S
N285 C283 1.325 . S
N285 C284 1.261 . S
C286 H256 0.931 . S
C286 C283 1.357 . S
C286 C287 1.312 . S
C287 H258 0.930 . S
C287 C282 1.261 . S
C287 C286 1.312 . S
C288 O260 1.214 . S
C288 O268 1.234 . S
C289 H261 0.929 . S
C289 C292 1.391 . S
C289 C294 1.391 . S
C290 H262 0.929 . S
C290 C291 1.390 . S
C290 N293 1.391 . S
C291 H263 0.930 . S
C291 C290 1.390 . S
C291 C292 1.392 . S
C292 H264 0.929 . S
C292 C289 1.391 . S
C292 C291 1.392 . S
N293 Co237 2.257 . S
N293 C290 1.391 . S
N293 C294 1.388 . S
C294 H265 0.930 . S
C294 C289 1.391 . S
C294 N293 1.388 . S
Co295 O297 2.143 . S
Co295 O303 2.074 . S
Co295 O306 2.093 . S
Co295 O319 2.097 . S
Co295 N336 2.151 . S
Co295 N344 2.214 1_554 S
Co296 O297 2.160 . S
Co296 O302 2.058 . S
Co296 O312 2.057 . S
Co296 O327 2.037 . S
Co296 N331 2.145 . S
Co296 N352 2.257 . S
O297 Co295 2.143 . S
O297 Co296 2.160 . S
C298 O299 1.278 . S
C298 O306 1.224 . S
O299 C298 1.278 . S
C300 O301 1.245 . S
C300 O312 1.232 . S
O301 C300 1.245 . S
O302 Co296 2.058 . S
O302 C328 1.269 . S
O303 Co295 2.074 . S
O303 C328 1.257 . S
H304 C329 0.930 . S
H305 C335 0.930 . S
O306 Co295 2.093 . S
O306 C298 1.224 . S
H307 C339 0.929 . S
H308 C341 0.930 . S
H309 C342 0.930 . S
H310 C340 0.929 . S
H311 C343 0.928 . S
O312 Co296 2.057 . S
O312 C300 1.232 . S
H313 C332 0.929 . S
H314 C333 0.929 . S
H315 C345 0.931 . S
H316 C337 0.929 . S
H317 C346 0.930 . S
H318 C338 0.931 . S
O319 Co295 2.097 . S
O319 C347 1.214 . S
H320 C348 0.929 . S
H321 C349 0.929 . S
H322 C350 0.930 . S
H323 C351 0.929 . S
H324 C353 0.930 . S
H325 C330 0.930 . S
H326 C334 0.930 . S
O327 Co296 2.037 . S
O327 C347 1.234 . S
C328 O302 1.269 . S
C328 O303 1.257 . S
C329 H304 0.930 . S
C329 C332 1.388 . S
C329 C334 1.418 . S
C330 H325 0.930 . S
C330 C333 1.404 . S
C330 C334 1.353 . S
N331 Co296 2.145 . S
N331 C332 1.397 . S
N331 C333 1.334 . S
C332 H313 0.929 . S
C332 C329 1.388 . S
C332 N331 1.397 . S
C333 H314 0.929 . S
C333 C330 1.404 . S
C333 N331 1.334 . S
C334 H326 0.930 . S
C334 C329 1.418 . S
C334 C330 1.353 . S
C335 H305 0.930 . S
C335 N336 1.330 . S
C335 C337 1.446 . S
N336 Co295 2.151 . S
N336 C335 1.330 . S
N336 C340 1.418 . S
C337 H316 0.929 . S
C337 C335 1.446 . S
C337 C338 1.332 . S
C338 H318 0.931 . S
C338 C337 1.332 . S
C338 C339 1.267 . S
C339 H307 0.929 . S
C339 C338 1.267 . S
C339 C340 1.251 . S
C340 H310 0.929 . S
C340 N336 1.418 . S
C340 C339 1.251 . S
C341 H308 0.930 . S
C341 C343 1.406 . S
C341 C346 1.261 . S
C342 H309 0.930 . S
C342 N344 1.325 . S
C342 C345 1.357 . S
C343 H311 0.928 . S
C343 C341 1.406 . S
C343 N344 1.261 . S
N344 Co295 2.214 1_556 S
N344 C342 1.325 . S
N344 C343 1.261 . S
C345 H315 0.931 . S
C345 C342 1.357 . S
C345 C346 1.312 . S
C346 H317 0.930 . S
C346 C341 1.261 . S
C346 C345 1.312 . S
C347 O319 1.214 . S
C347 O327 1.234 . S
C348 H320 0.929 . S
C348 C351 1.391 . S
C348 C353 1.391 . S
C349 H321 0.929 . S
C349 C350 1.390 . S
C349 N352 1.391 . S
C350 H322 0.930 . S
C350 C349 1.390 . S
C350 C351 1.392 . S
C351 H323 0.929 . S
C351 C348 1.391 . S
C351 C350 1.392 . S
N352 Co296 2.257 . S
N352 C349 1.391 . S
N352 C353 1.388 . S
C353 H324 0.930 . S
C353 C348 1.391 . S
C353 N352 1.388 . S
Co354 O356 2.143 . S
Co354 O362 2.074 . S
Co354 O365 2.093 . S
Co354 O378 2.097 1_565 S
Co354 N395 2.151 . S
Co354 N403 2.214 . S
Co355 O356 2.160 1_545 S
Co355 O361 2.058 1_545 S
Co355 O371 2.057 . S
Co355 O386 2.037 . S
Co355 N390 2.145 . S
Co355 N411 2.257 . S
O356 Co354 2.143 . S
O356 Co355 2.160 1_565 S
C357 O358 1.278 . S
C357 O365 1.224 1_545 S
O358 C357 1.278 . S
C359 O360 1.245 1_545 S
C359 O371 1.232 . S
O360 C359 1.245 1_565 S
O361 Co355 2.058 1_565 S
O361 C387 1.269 . S
O362 Co354 2.074 . S
O362 C387 1.257 . S
H363 C388 0.930 . S
H364 C394 0.930 . S
O365 Co354 2.093 . S
O365 C357 1.224 1_565 S
H366 C398 0.929 . S
H367 C400 0.930 . S
H368 C401 0.930 . S
H369 C399 0.929 . S
H370 C402 0.928 . S
O371 Co355 2.057 . S
O371 C359 1.232 . S
H372 C391 0.929 . S
H373 C392 0.929 . S
H374 C404 0.931 . S
H375 C396 0.929 . S
H376 C405 0.930 . S
H377 C397 0.931 . S
O378 Co354 2.097 1_545 S
O378 C406 1.214 . S
H379 C407 0.929 . S
H380 C408 0.929 . S
H381 C409 0.930 . S
H382 C410 0.929 . S
H383 C412 0.930 . S
H384 C389 0.930 . S
H385 C393 0.930 . S
O386 Co355 2.037 . S
O386 C406 1.234 . S
C387 O361 1.269 . S
C387 O362 1.257 . S
C388 H363 0.930 . S
C388 C391 1.388 . S
C388 C393 1.418 . S
C389 H384 0.930 . S
C389 C392 1.404 . S
C389 C393 1.353 . S
N390 Co355 2.145 . S
N390 C391 1.397 . S
N390 C392 1.334 . S
C391 H372 0.929 . S
C391 C388 1.388 . S
C391 N390 1.397 . S
C392 H373 0.929 . S
C392 C389 1.404 . S
C392 N390 1.334 . S
C393 H385 0.930 . S
C393 C388 1.418 . S
C393 C389 1.353 . S
C394 H364 0.930 . S
C394 N395 1.330 . S
C394 C396 1.446 . S
N395 Co354 2.151 . S
N395 C394 1.330 . S
N395 C399 1.418 . S
C396 H375 0.929 . S
C396 C394 1.446 . S
C396 C397 1.332 . S
C397 H377 0.931 . S
C397 C396 1.332 . S
C397 C398 1.267 . S
C398 H366 0.929 . S
C398 C397 1.267 . S
C398 C399 1.251 . S
C399 H369 0.929 . S
C399 N395 1.418 . S
C399 C398 1.251 . S
C400 H367 0.930 . S
C400 C402 1.406 . S
C400 C405 1.261 . S
C401 H368 0.930 . S
C401 N403 1.325 . S
C401 C404 1.357 . S
C402 H370 0.928 . S
C402 C400 1.406 . S
C402 N403 1.261 . S
N403 Co354 2.214 . S
N403 C401 1.325 . S
N403 C402 1.261 . S
C404 H374 0.931 . S
C404 C401 1.357 . S
C404 C405 1.312 . S
C405 H376 0.930 . S
C405 C400 1.261 . S
C405 C404 1.312 . S
C406 O378 1.214 . S
C406 O386 1.234 . S
C407 H379 0.929 . S
C407 C410 1.391 . S
C407 C412 1.391 . S
C408 H380 0.929 . S
C408 C409 1.390 . S
C408 N411 1.391 . S
C409 H381 0.930 . S
C409 C408 1.390 . S
C409 C410 1.392 . S
C410 H382 0.929 . S
C410 C407 1.391 . S
C410 C409 1.392 . S
N411 Co355 2.257 . S
N411 C408 1.391 . S
N411 C412 1.388 . S
C412 H383 0.930 . S
C412 C407 1.391 . S
C412 N411 1.388 . S
Co413 O415 2.143 . S
Co413 O421 2.074 . S
Co413 O424 2.093 . S
Co413 O437 2.097 . S
Co413 N454 2.151 . S
Co413 N462 2.214 . S
Co414 O415 2.160 . S
Co414 O420 2.058 . S
Co414 O430 2.057 . S
Co414 O445 2.037 . S
Co414 N449 2.145 . S
Co414 N470 2.257 . S
O415 Co413 2.143 . S
O415 Co414 2.160 . S
C416 O417 1.278 . S
C416 O424 1.224 . S
O417 C416 1.278 . S
C418 O419 1.245 . S
C418 O430 1.232 . S
O419 C418 1.245 . S
O420 Co414 2.058 . S
O420 C446 1.269 . S
O421 Co413 2.074 . S
O421 C446 1.257 . S
H422 C447 0.930 . S
H423 C453 0.930 . S
O424 Co413 2.093 . S
O424 C416 1.224 . S
H425 C457 0.929 . S
H426 C459 0.930 . S
H427 C460 0.930 . S
H428 C458 0.929 . S
H429 C461 0.928 . S
O430 Co414 2.057 . S
O430 C418 1.232 . S
H431 C450 0.929 . S
H432 C451 0.929 . S
H433 C463 0.931 . S
H434 C455 0.929 . S
H435 C464 0.930 . S
H436 C456 0.931 . S
O437 Co413 2.097 . S
O437 C465 1.214 . S
H438 C466 0.929 . S
H439 C467 0.929 . S
H440 C468 0.930 . S
H441 C469 0.929 . S
H442 C471 0.930 . S
H443 C448 0.930 . S
H444 C452 0.930 . S
O445 Co414 2.037 . S
O445 C465 1.234 . S
C446 O420 1.269 . S
C446 O421 1.257 . S
C447 H422 0.930 . S
C447 C450 1.388 . S
C447 C452 1.418 . S
C448 H443 0.930 . S
C448 C451 1.404 . S
C448 C452 1.353 . S
N449 Co414 2.145 . S
N449 C450 1.397 . S
N449 C451 1.334 . S
C450 H431 0.929 . S
C450 C447 1.388 . S
C450 N449 1.397 . S
C451 H432 0.929 . S
C451 C448 1.404 . S
C451 N449 1.334 . S
C452 H444 0.930 . S
C452 C447 1.418 . S
C452 C448 1.353 . S
C453 H423 0.930 . S
C453 N454 1.330 . S
C453 C455 1.446 . S
N454 Co413 2.151 . S
N454 C453 1.330 . S
N454 C458 1.418 . S
C455 H434 0.929 . S
C455 C453 1.446 . S
C455 C456 1.332 . S
C456 H436 0.931 . S
C456 C455 1.332 . S
C456 C457 1.267 . S
C457 H425 0.929 . S
C457 C456 1.267 . S
C457 C458 1.251 . S
C458 H428 0.929 . S
C458 N454 1.418 . S
C458 C457 1.251 . S
C459 H426 0.930 . S
C459 C461 1.406 . S
C459 C464 1.261 . S
C460 H427 0.930 . S
C460 N462 1.325 . S
C460 C463 1.357 . S
C461 H429 0.928 . S
C461 C459 1.406 . S
C461 N462 1.261 . S
N462 Co413 2.214 . S
N462 C460 1.325 . S
N462 C461 1.261 . S
C463 H433 0.931 . S
C463 C460 1.357 . S
C463 C464 1.312 . S
C464 H435 0.930 . S
C464 C459 1.261 . S
C464 C463 1.312 . S
C465 O437 1.214 . S
C465 O445 1.234 . S
C466 H438 0.929 . S
C466 C469 1.391 . S
C466 C471 1.391 . S
C467 H439 0.929 . S
C467 C468 1.390 . S
C467 N470 1.391 . S
C468 H440 0.930 . S
C468 C467 1.390 . S
C468 C469 1.392 . S
C469 H441 0.929 . S
C469 C466 1.391 . S
C469 C468 1.392 . S
N470 Co414 2.257 . S
N470 C467 1.391 . S
N470 C471 1.388 . S
C471 H442 0.930 . S
C471 C466 1.391 . S
C471 N470 1.388 . S
Co472 O474 2.143 . S
Co472 O480 2.074 . S
Co472 O483 2.093 . S
Co472 O496 2.097 1_554 S
Co472 N513 2.151 . S
Co472 N521 2.214 1_455 S
Co473 O474 2.160 1_556 S
Co473 O479 2.058 1_556 S
Co473 O489 2.057 . S
Co473 O504 2.037 . S
Co473 N508 2.145 . S
Co473 N529 2.257 . S
O474 Co472 2.143 . S
O474 Co473 2.160 1_554 S
C475 O476 1.278 . S
C475 O483 1.224 1_556 S
O476 C475 1.278 . S
C477 O478 1.237 1_556 S
C477 O489 1.239 . S
O478 C477 1.237 1_554 S
O479 Co473 2.058 1_554 S
O479 C505 1.269 . S
O480 Co472 2.074 . S
O480 C505 1.257 . S
H481 C506 0.930 . S
H482 C512 0.930 . S
O483 Co472 2.093 . S
O483 C475 1.224 1_554 S
H484 C516 0.929 . S
H485 C518 0.930 . S
H486 C519 0.930 . S
H487 C517 0.929 . S
H488 C520 0.928 . S
O489 Co473 2.057 . S
O489 C477 1.239 . S
H490 C509 0.929 . S
H491 C510 0.929 . S
H492 C522 0.931 . S
H493 C514 0.929 . S
H494 C523 0.930 . S
H495 C515 0.931 . S
O496 Co472 2.097 1_556 S
O496 C524 1.214 . S
H497 C525 0.929 . S
H498 C526 0.929 . S
H499 C527 0.930 . S
H500 C528 0.929 . S
H501 C530 0.930 . S
H502 C507 0.930 . S
H503 C511 0.930 . S
O504 Co473 2.037 . S
O504 C524 1.234 . S
C505 O479 1.269 . S
C505 O480 1.257 . S
C506 H481 0.930 . S
C506 C509 1.388 . S
C506 C511 1.418 . S
C507 H502 0.930 . S
C507 C510 1.404 . S
C507 C511 1.353 . S
N508 Co473 2.145 . S
N508 C509 1.397 . S
N508 C510 1.334 . S
C509 H490 0.929 . S
C509 C506 1.388 . S
C509 N508 1.397 . S
C510 H491 0.929 . S
C510 C507 1.404 . S
C510 N508 1.334 . S
C511 H503 0.930 . S
C511 C506 1.418 . S
C511 C507 1.353 . S
C512 H482 0.930 . S
C512 N513 1.330 . S
C512 C514 1.446 . S
N513 Co472 2.151 . S
N513 C512 1.330 . S
N513 C517 1.418 . S
C514 H493 0.929 . S
C514 C512 1.446 . S
C514 C515 1.332 . S
C515 H495 0.931 . S
C515 C514 1.332 . S
C515 C516 1.267 . S
C516 H484 0.929 . S
C516 C515 1.267 . S
C516 C517 1.251 . S
C517 H487 0.929 . S
C517 N513 1.418 . S
C517 C516 1.251 . S
C518 H485 0.930 . S
C518 C520 1.406 . S
C518 C523 1.261 . S
C519 H486 0.930 . S
C519 N521 1.325 . S
C519 C522 1.357 . S
C520 H488 0.928 . S
C520 C518 1.406 . S
C520 N521 1.261 . S
N521 Co472 2.214 1_655 S
N521 C519 1.325 . S
N521 C520 1.261 . S
C522 H492 0.931 . S
C522 C519 1.357 . S
C522 C523 1.312 . S
C523 H494 0.930 . S
C523 C518 1.261 . S
C523 C522 1.312 . S
C524 O496 1.214 . S
C524 O504 1.234 . S
C525 H497 0.929 . S
C525 C528 1.391 . S
C525 C530 1.391 . S
C526 H498 0.929 . S
C526 C527 1.390 . S
C526 N529 1.391 . S
C527 H499 0.930 . S
C527 C526 1.390 . S
C527 C528 1.392 . S
C528 H500 0.929 . S
C528 C525 1.391 . S
C528 C527 1.392 . S
N529 Co473 2.257 . S
N529 C526 1.391 . S
N529 C530 1.388 . S
C530 H501 0.930 . S
C530 C525 1.391 . S
C530 N529 1.388 . S
Co531 O533 2.143 . S
Co531 O539 2.074 . S
Co531 O542 2.093 . S
Co531 O555 2.097 . S
Co531 N572 2.151 . S
Co531 N580 2.214 1_455 S
Co532 O533 2.160 . S
Co532 O538 2.058 . S
Co532 O548 2.057 . S
Co532 O563 2.037 . S
Co532 N567 2.145 . S
Co532 N588 2.257 . S
O533 Co531 2.143 . S
O533 Co532 2.160 . S
C534 O535 1.278 . S
C534 O542 1.224 . S
O535 C534 1.278 . S
C536 O537 1.245 . S
C536 O548 1.232 . S
O537 C536 1.245 . S
O538 Co532 2.058 . S
O538 C564 1.269 . S
O539 Co531 2.074 . S
O539 C564 1.257 . S
H540 C565 0.930 . S
H541 C571 0.930 . S
O542 Co531 2.093 . S
O542 C534 1.224 . S
H543 C575 0.929 . S
H544 C577 0.930 . S
H545 C578 0.930 . S
H546 C576 0.929 . S
H547 C579 0.928 . S
O548 Co532 2.057 . S
O548 C536 1.232 . S
H549 C568 0.929 . S
H550 C569 0.929 . S
H551 C581 0.931 . S
H552 C573 0.929 . S
H553 C582 0.930 . S
H554 C574 0.931 . S
O555 Co531 2.097 . S
O555 C583 1.214 . S
H556 C584 0.929 . S
H557 C585 0.929 . S
H558 C586 0.930 . S
H559 C587 0.929 . S
H560 C589 0.930 . S
H561 C566 0.930 . S
H562 C570 0.930 . S
O563 Co532 2.037 . S
O563 C583 1.234 . S
C564 O538 1.269 . S
C564 O539 1.257 . S
C565 H540 0.930 . S
C565 C568 1.388 . S
C565 C570 1.418 . S
C566 H561 0.930 . S
C566 C569 1.404 . S
C566 C570 1.353 . S
N567 Co532 2.145 . S
N567 C568 1.397 . S
N567 C569 1.334 . S
C568 H549 0.929 . S
C568 C565 1.388 . S
C568 N567 1.397 . S
C569 H550 0.929 . S
C569 C566 1.404 . S
C569 N567 1.334 . S
C570 H562 0.930 . S
C570 C565 1.418 . S
C570 C566 1.353 . S
C571 H541 0.930 . S
C571 N572 1.330 . S
C571 C573 1.446 . S
N572 Co531 2.151 . S
N572 C571 1.330 . S
N572 C576 1.418 . S
C573 H552 0.929 . S
C573 C571 1.446 . S
C573 C574 1.332 . S
C574 H554 0.931 . S
C574 C573 1.332 . S
C574 C575 1.267 . S
C575 H543 0.929 . S
C575 C574 1.267 . S
C575 C576 1.251 . S
C576 H546 0.929 . S
C576 N572 1.418 . S
C576 C575 1.251 . S
C577 H544 0.930 . S
C577 C579 1.406 . S
C577 C582 1.261 . S
C578 H545 0.930 . S
C578 N580 1.325 . S
C578 C581 1.357 . S
C579 H547 0.928 . S
C579 C577 1.406 . S
C579 N580 1.261 . S
N580 Co531 2.214 1_655 S
N580 C578 1.325 . S
N580 C579 1.261 . S
C581 H551 0.931 . S
C581 C578 1.357 . S
C581 C582 1.312 . S
C582 H553 0.930 . S
C582 C577 1.261 . S
C582 C581 1.312 . S
C583 O555 1.214 . S
C583 O563 1.234 . S
C584 H556 0.929 . S
C584 C587 1.391 . S
C584 C589 1.391 . S
C585 H557 0.929 . S
C585 C586 1.390 . S
C585 N588 1.391 . S
C586 H558 0.930 . S
C586 C585 1.390 . S
C586 C587 1.392 . S
C587 H559 0.929 . S
C587 C584 1.391 . S
C587 C586 1.392 . S
N588 Co532 2.257 . S
N588 C585 1.391 . S
N588 C589 1.388 . S
C589 H560 0.930 . S
C589 C584 1.391 . S
C589 N588 1.388 . S
Co590 O592 2.143 . S
Co590 O598 2.074 . S
Co590 O601 2.093 . S
Co590 O614 2.097 . S
Co590 N631 2.151 . S
Co590 N639 2.214 1_655 S
Co591 O592 2.160 . S
Co591 O597 2.058 . S
Co591 O607 2.057 . S
Co591 O622 2.037 . S
Co591 N626 2.145 . S
Co591 N647 2.257 . S
O592 Co590 2.143 . S
O592 Co591 2.160 . S
C593 O594 1.278 . S
C593 O601 1.224 . S
O594 C593 1.278 . S
C595 O596 1.245 . S
C595 O607 1.232 . S
O596 C595 1.245 . S
O597 Co591 2.058 . S
O597 C623 1.269 . S
O598 Co590 2.074 . S
O598 C623 1.257 . S
H599 C624 0.918 1_545 S
H600 C630 0.930 . S
O601 Co590 2.093 . S
O601 C593 1.224 . S
H602 C634 0.929 . S
H603 C636 0.930 . S
H604 C637 0.930 . S
H605 C635 0.929 . S
H606 C638 0.928 . S
O607 Co591 2.057 . S
O607 C595 1.232 . S
H608 C627 0.929 . S
H609 C628 0.929 . S
H610 C640 0.931 . S
H611 C632 0.929 . S
H612 C641 0.930 . S
H613 C633 0.931 . S
O614 Co590 2.097 . S
O614 C642 1.214 . S
H615 C643 0.929 . S
H616 C644 0.929 . S
H617 C645 0.930 . S
H618 C646 0.929 . S
H619 C648 0.930 . S
H620 C625 0.930 . S
H621 C629 0.913 1_545 S
O622 Co591 2.037 . S
O622 C642 1.234 . S
C623 O597 1.269 . S
C623 O598 1.257 . S
C624 H599 0.918 1_565 S
C624 C627 1.400 . S
C624 C629 1.418 . S
C625 H620 0.930 . S
C625 C628 1.404 . S
C625 C629 1.371 . S
N626 Co591 2.145 . S
N626 C627 1.397 . S
N626 C628 1.334 . S
C627 H608 0.929 . S
C627 C624 1.400 . S
C627 N626 1.397 . S
C628 H609 0.929 . S
C628 C625 1.404 . S
C628 N626 1.334 . S
C629 H621 0.913 1_565 S
C629 C624 1.418 . S
C629 C625 1.371 . S
C630 H600 0.930 . S
C630 N631 1.330 . S
C630 C632 1.446 . S
N631 Co590 2.151 . S
N631 C630 1.330 . S
N631 C635 1.418 . S
C632 H611 0.929 . S
C632 C630 1.446 . S
C632 C633 1.332 . S
C633 H613 0.931 . S
C633 C632 1.332 . S
C633 C634 1.267 . S
C634 H602 0.929 . S
C634 C633 1.267 . S
C634 C635 1.251 . S
C635 H605 0.929 . S
C635 N631 1.418 . S
C635 C634 1.251 . S
C636 H603 0.930 . S
C636 C638 1.406 . S
C636 C641 1.261 . S
C637 H604 0.930 . S
C637 N639 1.325 . S
C637 C640 1.357 . S
C638 H606 0.928 . S
C638 C636 1.406 . S
C638 N639 1.261 . S
N639 Co590 2.214 1_455 S
N639 C637 1.325 . S
N639 C638 1.261 . S
C640 H610 0.931 . S
C640 C637 1.357 . S
C640 C641 1.312 . S
C641 H612 0.930 . S
C641 C636 1.261 . S
C641 C640 1.312 . S
C642 O614 1.214 . S
C642 O622 1.234 . S
C643 H615 0.929 . S
C643 C646 1.391 . S
C643 C648 1.391 . S
C644 H616 0.929 . S
C644 C645 1.390 . S
C644 N647 1.391 . S
C645 H617 0.930 . S
C645 C644 1.390 . S
C645 C646 1.392 . S
C646 H618 0.929 . S
C646 C643 1.391 . S
C646 C645 1.392 . S
N647 Co591 2.257 . S
N647 C644 1.391 . S
N647 C648 1.388 . S
C648 H619 0.930 . S
C648 C643 1.391 . S
C648 N647 1.388 . S
Co649 O651 2.143 . S
Co649 O657 2.074 . S
Co649 O660 2.093 . S
Co649 O673 2.097 . S
Co649 N690 2.151 . S
Co649 N698 2.214 . S
Co650 O651 2.160 . S
Co650 O656 2.058 . S
Co650 O666 2.057 . S
Co650 O681 2.037 . S
Co650 N685 2.145 . S
Co650 N706 2.257 . S
O651 Co649 2.143 . S
O651 Co650 2.160 . S
C652 O653 1.278 . S
C652 O660 1.224 . S
O653 C652 1.278 . S
C654 O655 1.245 . S
C654 O666 1.232 . S
O655 C654 1.245 . S
O656 Co650 2.058 . S
O656 C682 1.269 . S
O657 Co649 2.074 . S
O657 C682 1.257 . S
H658 C683 0.930 . S
H659 C689 0.930 . S
O660 Co649 2.093 . S
O660 C652 1.224 . S
H661 C693 0.929 . S
H662 C695 0.930 . S
H663 C696 0.930 . S
H664 C694 0.929 . S
H665 C697 0.928 . S
O666 Co650 2.057 . S
O666 C654 1.232 . S
H667 C686 0.929 . S
H668 C687 0.929 . S
H669 C699 0.931 . S
H670 C691 0.929 . S
H671 C700 0.930 . S
H672 C692 0.931 . S
O673 Co649 2.097 . S
O673 C701 1.214 . S
H674 C702 0.929 . S
H675 C703 0.929 . S
H676 C704 0.930 . S
H677 C705 0.929 . S
H678 C707 0.930 . S
H679 C684 0.930 . S
H680 C688 0.930 . S
O681 Co650 2.037 . S
O681 C701 1.234 . S
C682 O656 1.269 . S
C682 O657 1.257 . S
C683 H658 0.930 . S
C683 C686 1.388 . S
C683 C688 1.418 . S
C684 H679 0.930 . S
C684 C687 1.404 . S
C684 C688 1.353 . S
N685 Co650 2.145 . S
N685 C686 1.397 . S
N685 C687 1.334 . S
C686 H667 0.929 . S
C686 C683 1.388 . S
C686 N685 1.397 . S
C687 H668 0.929 . S
C687 C684 1.404 . S
C687 N685 1.334 . S
C688 H680 0.930 . S
C688 C683 1.418 . S
C688 C684 1.353 . S
C689 H659 0.930 . S
C689 N690 1.330 . S
C689 C691 1.446 . S
N690 Co649 2.151 . S
N690 C689 1.330 . S
N690 C694 1.418 . S
C691 H670 0.929 . S
C691 C689 1.446 . S
C691 C692 1.332 . S
C692 H672 0.931 . S
C692 C691 1.332 . S
C692 C693 1.267 . S
C693 H661 0.929 . S
C693 C692 1.267 . S
C693 C694 1.251 . S
C694 H664 0.929 . S
C694 N690 1.418 . S
C694 C693 1.251 . S
C695 H662 0.930 . S
C695 C697 1.406 . S
C695 C700 1.261 . S
C696 H663 0.930 . S
C696 N698 1.325 . S
C696 C699 1.357 . S
C697 H665 0.928 . S
C697 C695 1.406 . S
C697 N698 1.261 . S
N698 Co649 2.214 . S
N698 C696 1.325 . S
N698 C697 1.261 . S
C699 H669 0.931 . S
C699 C696 1.357 . S
C699 C700 1.312 . S
C700 H671 0.930 . S
C700 C695 1.261 . S
C700 C699 1.312 . S
C701 O673 1.214 . S
C701 O681 1.234 . S
C702 H674 0.929 . S
C702 C705 1.391 . S
C702 C707 1.391 . S
C703 H675 0.929 . S
C703 C704 1.390 . S
C703 N706 1.391 . S
C704 H676 0.930 . S
C704 C703 1.390 . S
C704 C705 1.392 . S
C705 H677 0.929 . S
C705 C702 1.391 . S
C705 C704 1.392 . S
N706 Co650 2.257 . S
N706 C703 1.391 . S
N706 C707 1.388 . S
C707 H678 0.930 . S
C707 C702 1.391 . S
C707 N706 1.388 . S
Co708 O710 2.143 . S
Co708 O716 2.074 . S
Co708 O719 2.093 . S
Co708 O732 2.097 . S
Co708 N749 2.151 . S
Co708 N757 2.214 . S
Co709 O710 2.160 . S
Co709 O715 2.058 . S
Co709 O725 2.057 . S
Co709 O740 2.037 . S
Co709 N744 2.145 . S
Co709 N765 2.257 . S
O710 Co708 2.143 . S
O710 Co709 2.160 . S
C711 O712 1.278 . S
C711 O719 1.224 . S
O712 C711 1.278 . S
C713 O714 1.245 . S
C713 O725 1.232 . S
O714 C713 1.245 . S
O715 Co709 2.058 . S
O715 C741 1.269 . S
O716 Co708 2.074 . S
O716 C741 1.257 . S
H717 C742 0.930 1_554 S
H718 C748 0.930 . S
O719 Co708 2.093 . S
O719 C711 1.224 . S
H720 C752 0.929 . S
H721 C754 0.930 . S
H722 C755 0.930 . S
H723 C753 0.929 . S
H724 C756 0.928 . S
O725 Co709 2.057 . S
O725 C713 1.232 . S
H726 C745 0.929 . S
H727 C746 0.929 . S
H728 C758 0.931 . S
H729 C750 0.929 . S
H730 C759 0.930 . S
H731 C751 0.931 . S
O732 Co708 2.097 . S
O732 C760 1.214 . S
H733 C761 0.929 . S
H734 C762 0.929 . S
H735 C763 0.930 . S
H736 C764 0.929 . S
H737 C766 0.930 . S
H738 C743 0.930 . S
H739 C747 0.930 1_554 S
O740 Co709 2.037 . S
O740 C760 1.234 . S
C741 O715 1.269 . S
C741 O716 1.257 . S
C742 H717 0.930 1_556 S
C742 C745 1.388 . S
C742 C747 1.418 . S
C743 H738 0.930 . S
C743 C746 1.404 . S
C743 C747 1.353 . S
N744 Co709 2.145 . S
N744 C745 1.397 . S
N744 C746 1.334 . S
C745 H726 0.929 . S
C745 C742 1.388 . S
C745 N744 1.397 . S
C746 H727 0.929 . S
C746 C743 1.404 . S
C746 N744 1.334 . S
C747 H739 0.930 1_556 S
C747 C742 1.418 . S
C747 C743 1.353 . S
C748 H718 0.930 . S
C748 N749 1.330 . S
C748 C750 1.446 . S
N749 Co708 2.151 . S
N749 C748 1.330 . S
N749 C753 1.418 . S
C750 H729 0.929 . S
C750 C748 1.446 . S
C750 C751 1.332 . S
C751 H731 0.931 . S
C751 C750 1.332 . S
C751 C752 1.267 . S
C752 H720 0.929 . S
C752 C751 1.267 . S
C752 C753 1.251 . S
C753 H723 0.929 . S
C753 N749 1.418 . S
C753 C752 1.251 . S
C754 H721 0.930 . S
C754 C756 1.406 . S
C754 C759 1.261 . S
C755 H722 0.930 . S
C755 N757 1.325 . S
C755 C758 1.357 . S
C756 H724 0.928 . S
C756 C754 1.406 . S
C756 N757 1.261 . S
N757 Co708 2.214 . S
N757 C755 1.325 . S
N757 C756 1.261 . S
C758 H728 0.931 . S
C758 C755 1.357 . S
C758 C759 1.312 . S
C759 H730 0.930 . S
C759 C754 1.261 . S
C759 C758 1.312 . S
C760 O732 1.214 . S
C760 O740 1.234 . S
C761 H733 0.929 . S
C761 C764 1.391 . S
C761 C766 1.391 . S
C762 H734 0.929 . S
C762 C763 1.390 . S
C762 N765 1.391 . S
C763 H735 0.930 . S
C763 C762 1.390 . S
C763 C764 1.392 . S
C764 H736 0.929 . S
C764 C761 1.391 . S
C764 C763 1.392 . S
N765 Co709 2.257 . S
N765 C762 1.391 . S
N765 C766 1.388 . S
C766 H737 0.930 . S
C766 C761 1.391 . S
C766 N765 1.388 . S
Co767 O769 2.143 . S
Co767 O775 2.074 . S
Co767 O778 2.093 . S
Co767 O791 2.097 . S
Co767 N808 2.151 . S
Co767 N816 2.214 1_565 S
Co768 O769 2.160 . S
Co768 O774 2.058 . S
Co768 O784 2.057 . S
Co768 O799 2.037 . S
Co768 N803 2.145 . S
Co768 N824 2.257 . S
O769 Co767 2.143 . S
O769 Co768 2.160 . S
C770 O771 1.278 . S
C770 O778 1.224 . S
O771 C770 1.278 . S
C772 O773 1.245 . S
C772 O784 1.232 . S
O773 C772 1.245 . S
O774 Co768 2.058 . S
O774 C800 1.269 . S
O775 Co767 2.074 . S
O775 C800 1.257 . S
H776 C801 0.918 1_554 S
H777 C807 0.930 . S
O778 Co767 2.093 . S
O778 C770 1.224 . S
H779 C811 0.929 . S
H780 C813 0.930 . S
H781 C814 0.930 . S
H782 C812 0.929 . S
H783 C815 0.928 . S
O784 Co768 2.057 . S
O784 C772 1.232 . S
H785 C804 0.929 . S
H786 C805 0.929 . S
H787 C817 0.931 . S
H788 C809 0.929 . S
H789 C818 0.930 . S
H790 C810 0.931 . S
O791 Co767 2.097 . S
O791 C819 1.214 . S
H792 C820 0.929 . S
H793 C821 0.929 . S
H794 C822 0.930 . S
H795 C823 0.929 . S
H796 C825 0.930 . S
H797 C802 0.930 . S
H798 C806 0.913 1_554 S
O799 Co768 2.037 . S
O799 C819 1.234 . S
C800 O774 1.269 . S
C800 O775 1.257 . S
C801 H776 0.918 1_556 S
C801 C804 1.400 . S
C801 C806 1.418 . S
C802 H797 0.930 . S
C802 C805 1.404 . S
C802 C806 1.371 . S
N803 Co768 2.145 . S
N803 C804 1.397 . S
N803 C805 1.334 . S
C804 H785 0.929 . S
C804 C801 1.400 . S
C804 N803 1.397 . S
C805 H786 0.929 . S
C805 C802 1.404 . S
C805 N803 1.334 . S
C806 H798 0.913 1_556 S
C806 C801 1.418 . S
C806 C802 1.371 . S
C807 H777 0.930 . S
C807 N808 1.330 . S
C807 C809 1.446 . S
N808 Co767 2.151 . S
N808 C807 1.330 . S
N808 C812 1.418 . S
C809 H788 0.929 . S
C809 C807 1.446 . S
C809 C810 1.332 . S
C810 H790 0.931 . S
C810 C809 1.332 . S
C810 C811 1.267 . S
C811 H779 0.929 . S
C811 C810 1.267 . S
C811 C812 1.251 . S
C812 H782 0.929 . S
C812 N808 1.418 . S
C812 C811 1.251 . S
C813 H780 0.930 . S
C813 C815 1.406 . S
C813 C818 1.261 . S
C814 H781 0.930 . S
C814 N816 1.325 . S
C814 C817 1.357 . S
C815 H783 0.928 . S
C815 C813 1.406 . S
C815 N816 1.261 . S
N816 Co767 2.214 1_545 S
N816 C814 1.325 . S
N816 C815 1.261 . S
C817 H787 0.931 . S
C817 C814 1.357 . S
C817 C818 1.312 . S
C818 H789 0.930 . S
C818 C813 1.261 . S
C818 C817 1.312 . S
C819 O791 1.214 . S
C819 O799 1.234 . S
C820 H792 0.929 . S
C820 C823 1.391 . S
C820 C825 1.391 . S
C821 H793 0.929 . S
C821 C822 1.390 . S
C821 N824 1.391 . S
C822 H794 0.930 . S
C822 C821 1.390 . S
C822 C823 1.392 . S
C823 H795 0.929 . S
C823 C820 1.391 . S
C823 C822 1.392 . S
N824 Co768 2.257 . S
N824 C821 1.391 . S
N824 C825 1.388 . S
C825 H796 0.930 . S
C825 C820 1.391 . S
C825 N824 1.388 . S
Co826 O828 2.143 . S
Co826 O834 2.074 . S
Co826 O837 2.093 . S
Co826 O850 2.097 . S
Co826 N867 2.151 . S
Co826 N875 2.214 . S
Co827 O828 2.160 . S
Co827 O833 2.058 . S
Co827 O843 2.057 . S
Co827 O858 2.037 . S
Co827 N862 2.145 . S
Co827 N883 2.257 . S
O828 Co826 2.143 . S
O828 Co827 2.160 . S
C829 O830 1.278 . S
C829 O837 1.224 . S
O830 C829 1.278 . S
C831 O832 1.245 . S
C831 O843 1.232 . S
O832 C831 1.245 . S
O833 Co827 2.058 . S
O833 C859 1.269 . S
O834 Co826 2.074 . S
O834 C859 1.257 . S
H835 C860 0.930 . S
H836 C866 0.930 . S
O837 Co826 2.093 . S
O837 C829 1.224 . S
H838 C870 0.929 . S
H839 C872 0.930 . S
H840 C873 0.930 . S
H841 C871 0.929 . S
H842 C874 0.928 . S
O843 Co827 2.057 . S
O843 C831 1.232 . S
H844 C863 0.929 . S
H845 C864 0.929 . S
H846 C876 0.931 . S
H847 C868 0.929 . S
H848 C877 0.930 . S
H849 C869 0.931 . S
O850 Co826 2.097 . S
O850 C878 1.214 . S
H851 C879 0.929 . S
H852 C880 0.929 . S
H853 C881 0.930 . S
H854 C882 0.929 . S
H855 C884 0.930 . S
H856 C861 0.930 . S
H857 C865 0.930 . S
O858 Co827 2.037 . S
O858 C878 1.234 . S
C859 O833 1.269 . S
C859 O834 1.257 . S
C860 H835 0.930 . S
C860 C863 1.388 . S
C860 C865 1.418 . S
C861 H856 0.930 . S
C861 C864 1.404 . S
C861 C865 1.353 . S
N862 Co827 2.145 . S
N862 C863 1.397 . S
N862 C864 1.334 . S
C863 H844 0.929 . S
C863 C860 1.388 . S
C863 N862 1.397 . S
C864 H845 0.929 . S
C864 C861 1.404 . S
C864 N862 1.334 . S
C865 H857 0.930 . S
C865 C860 1.418 . S
C865 C861 1.353 . S
C866 H836 0.930 . S
C866 N867 1.330 . S
C866 C868 1.446 . S
N867 Co826 2.151 . S
N867 C866 1.330 . S
N867 C871 1.418 . S
C868 H847 0.929 . S
C868 C866 1.446 . S
C868 C869 1.332 . S
C869 H849 0.931 . S
C869 C868 1.332 . S
C869 C870 1.267 . S
C870 H838 0.929 . S
C870 C869 1.267 . S
C870 C871 1.251 . S
C871 H841 0.929 . S
C871 N867 1.418 . S
C871 C870 1.251 . S
C872 H839 0.930 . S
C872 C874 1.406 . S
C872 C877 1.261 . S
C873 H840 0.930 . S
C873 N875 1.325 . S
C873 C876 1.357 . S
C874 H842 0.928 . S
C874 C872 1.406 . S
C874 N875 1.261 . S
N875 Co826 2.214 . S
N875 C873 1.325 . S
N875 C874 1.261 . S
C876 H846 0.931 . S
C876 C873 1.357 . S
C876 C877 1.312 . S
C877 H848 0.930 . S
C877 C872 1.261 . S
C877 C876 1.312 . S
C878 O850 1.214 . S
C878 O858 1.234 . S
C879 H851 0.929 . S
C879 C882 1.391 . S
C879 C884 1.391 . S
C880 H852 0.929 . S
C880 C881 1.390 . S
C880 N883 1.391 . S
C881 H853 0.930 . S
C881 C880 1.390 . S
C881 C882 1.392 . S
C882 H854 0.929 . S
C882 C879 1.391 . S
C882 C881 1.392 . S
N883 Co827 2.257 . S
N883 C880 1.391 . S
N883 C884 1.388 . S
C884 H855 0.930 . S
C884 C879 1.391 . S
C884 N883 1.388 . S
Co885 O887 2.143 . S
Co885 O893 2.074 . S
Co885 O896 2.093 . S
Co885 O909 2.097 . S
Co885 N926 2.151 . S
Co885 N934 2.214 1_545 S
Co886 O887 2.160 . S
Co886 O892 2.058 . S
Co886 O902 2.057 . S
Co886 O917 2.037 . S
Co886 N921 2.145 . S
Co886 N942 2.257 . S
O887 Co885 2.143 . S
O887 Co886 2.160 . S
C888 O889 1.278 . S
C888 O896 1.224 . S
O889 C888 1.278 . S
C890 O891 1.245 . S
C890 O902 1.232 . S
O891 C890 1.245 . S
O892 Co886 2.058 . S
O892 C918 1.269 . S
O893 Co885 2.074 . S
O893 C918 1.257 . S
H894 C919 0.930 . S
H895 C925 0.930 . S
O896 Co885 2.093 . S
O896 C888 1.224 . S
H897 C929 0.929 . S
H898 C931 0.930 . S
H899 C932 0.930 . S
H900 C930 0.929 . S
H901 C933 0.928 . S
O902 Co886 2.057 . S
O902 C890 1.232 . S
H903 C922 0.929 . S
H904 C923 0.929 . S
H905 C935 0.931 . S
H906 C927 0.929 . S
H907 C936 0.930 . S
H908 C928 0.931 . S
O909 Co885 2.097 . S
O909 C937 1.214 . S
H910 C938 0.929 . S
H911 C939 0.929 . S
H912 C940 0.930 . S
H913 C941 0.929 . S
H914 C943 0.930 . S
H915 C920 0.930 . S
H916 C924 0.930 . S
O917 Co886 2.037 . S
O917 C937 1.234 . S
C918 O892 1.269 . S
C918 O893 1.257 . S
C919 H894 0.930 . S
C919 C922 1.388 . S
C919 C924 1.418 . S
C920 H915 0.930 . S
C920 C923 1.404 . S
C920 C924 1.353 . S
N921 Co886 2.145 . S
N921 C922 1.397 . S
N921 C923 1.334 . S
C922 H903 0.929 . S
C922 C919 1.388 . S
C922 N921 1.397 . S
C923 H904 0.929 . S
C923 C920 1.404 . S
C923 N921 1.334 . S
C924 H916 0.930 . S
C924 C919 1.418 . S
C924 C920 1.353 . S
C925 H895 0.930 . S
C925 N926 1.330 . S
C925 C927 1.446 . S
N926 Co885 2.151 . S
N926 C925 1.330 . S
N926 C930 1.418 . S
C927 H906 0.929 . S
C927 C925 1.446 . S
C927 C928 1.332 . S
C928 H908 0.931 . S
C928 C927 1.332 . S
C928 C929 1.267 . S
C929 H897 0.929 . S
C929 C928 1.267 . S
C929 C930 1.251 . S
C930 H900 0.929 . S
C930 N926 1.418 . S
C930 C929 1.251 . S
C931 H898 0.930 . S
C931 C933 1.406 . S
C931 C936 1.261 . S
C932 H899 0.930 . S
C932 N934 1.325 . S
C932 C935 1.357 . S
C933 H901 0.928 . S
C933 C931 1.406 . S
C933 N934 1.261 . S
N934 Co885 2.214 1_565 S
N934 C932 1.325 . S
N934 C933 1.261 . S
C935 H905 0.931 . S
C935 C932 1.357 . S
C935 C936 1.312 . S
C936 H907 0.930 . S
C936 C931 1.261 . S
C936 C935 1.312 . S
C937 O909 1.214 . S
C937 O917 1.234 . S
C938 H910 0.929 . S
C938 C941 1.391 . S
C938 C943 1.391 . S
C939 H911 0.929 . S
C939 C940 1.390 . S
C939 N942 1.391 . S
C940 H912 0.930 . S
C940 C939 1.390 . S
C940 C941 1.392 . S
C941 H913 0.929 . S
C941 C938 1.391 . S
C941 C940 1.392 . S
N942 Co886 2.257 . S
N942 C939 1.391 . S
N942 C943 1.388 . S
C943 H914 0.930 . S
C943 C938 1.391 . S
C943 N942 1.388 . S
Co944 O946 2.143 . S
Co944 O952 2.074 . S
Co944 O955 2.093 . S
Co944 O968 2.097 . S
Co944 N985 2.151 . S
Co944 N993 2.214 . S
Co945 O946 2.160 . S
Co945 O951 2.058 . S
Co945 O961 2.057 . S
Co945 O976 2.037 . S
Co945 N980 2.145 . S
Co945 N1001 2.257 . S
O946 Co944 2.143 . S
O946 Co945 2.160 . S
C947 O948 1.278 . S
C947 O955 1.224 . S
O948 C947 1.278 . S
C949 O950 1.245 . S
C949 O961 1.232 . S
O950 C949 1.245 . S
O951 Co945 2.058 . S
O951 C977 1.269 . S
O952 Co944 2.074 . S
O952 C977 1.257 . S
H953 C978 0.930 1_455 S
H954 C984 0.930 . S
O955 Co944 2.093 . S
O955 C947 1.224 . S
H956 C988 0.929 . S
H957 C990 0.930 . S
H958 C991 0.930 . S
H959 C989 0.929 . S
H960 C992 0.928 . S
O961 Co945 2.057 . S
O961 C949 1.232 . S
H962 C981 0.929 . S
H963 C982 0.929 . S
H964 C994 0.931 . S
H965 C986 0.929 . S
H966 C995 0.930 . S
H967 C987 0.931 . S
O968 Co944 2.097 . S
O968 C996 1.214 . S
H969 C997 0.929 . S
H970 C998 0.929 . S
H971 C999 0.930 . S
H972 C1000 0.929 . S
H973 C1002 0.930 . S
H974 C979 0.930 . S
H975 C983 0.930 1_455 S
O976 Co945 2.037 . S
O976 C996 1.234 . S
C977 O951 1.269 . S
C977 O952 1.257 . S
C978 H953 0.930 1_655 S
C978 C981 1.388 . S
C978 C983 1.418 . S
C979 H974 0.930 . S
C979 C982 1.404 . S
C979 C983 1.353 . S
N980 Co945 2.145 . S
N980 C981 1.397 . S
N980 C982 1.334 . S
C981 H962 0.929 . S
C981 C978 1.388 . S
C981 N980 1.397 . S
C982 H963 0.929 . S
C982 C979 1.404 . S
C982 N980 1.334 . S
C983 H975 0.930 1_655 S
C983 C978 1.418 . S
C983 C979 1.353 . S
C984 H954 0.930 . S
C984 N985 1.330 . S
C984 C986 1.446 . S
N985 Co944 2.151 . S
N985 C984 1.330 . S
N985 C989 1.418 . S
C986 H965 0.929 . S
C986 C984 1.446 . S
C986 C987 1.332 . S
C987 H967 0.931 . S
C987 C986 1.332 . S
C987 C988 1.267 . S
C988 H956 0.929 . S
C988 C987 1.267 . S
C988 C989 1.251 . S
C989 H959 0.929 . S
C989 N985 1.418 . S
C989 C988 1.251 . S
C990 H957 0.930 . S
C990 C992 1.406 . S
C990 C995 1.261 . S
C991 H958 0.930 . S
C991 N993 1.325 . S
C991 C994 1.357 . S
C992 H960 0.928 . S
C992 C990 1.406 . S
C992 N993 1.261 . S
N993 Co944 2.214 . S
N993 C991 1.325 . S
N993 C992 1.261 . S
C994 H964 0.931 . S
C994 C991 1.357 . S
C994 C995 1.312 . S
C995 H966 0.930 . S
C995 C990 1.261 . S
C995 C994 1.312 . S
C996 O968 1.214 . S
C996 O976 1.234 . S
C997 H969 0.929 . S
C997 C1000 1.391 . S
C997 C1002 1.391 . S
C998 H970 0.929 . S
C998 C999 1.390 . S
C998 N1001 1.391 . S
C999 H971 0.930 . S
C999 C998 1.390 . S
C999 C1000 1.392 . S
C1000 H972 0.929 . S
C1000 C997 1.391 . S
C1000 C999 1.392 . S
N1001 Co945 2.257 . S
N1001 C998 1.391 . S
N1001 C1002 1.388 . S
C1002 H973 0.930 . S
C1002 C997 1.391 . S
C1002 N1001 1.388 . S
Co1003 O1005 2.143 . S
Co1003 O1011 2.074 . S
Co1003 O1014 2.093 . S
Co1003 O1027 2.097 1_565 S
Co1003 N1044 2.151 . S
Co1003 N1052 2.214 . S
Co1004 O1005 2.160 1_545 S
Co1004 O1010 2.058 1_545 S
Co1004 O1020 2.057 . S
Co1004 O1035 2.037 . S
Co1004 N1039 2.145 . S
Co1004 N1060 2.257 . S
O1005 Co1003 2.143 . S
O1005 Co1004 2.160 1_565 S
C1006 O1007 1.278 . S
C1006 O1014 1.224 1_545 S
O1007 C1006 1.278 . S
C1008 O1009 1.245 1_545 S
C1008 O1020 1.232 . S
O1009 C1008 1.245 1_565 S
O1010 Co1004 2.058 1_565 S
O1010 C1036 1.269 . S
O1011 Co1003 2.074 . S
O1011 C1036 1.257 . S
H1012 C1037 0.930 1_655 S
H1013 C1043 0.930 . S
O1014 Co1003 2.093 . S
O1014 C1006 1.224 1_565 S
H1015 C1047 0.929 . S
H1016 C1049 0.930 . S
H1017 C1050 0.930 . S
H1018 C1048 0.929 . S
H1019 C1051 0.928 . S
O1020 Co1004 2.057 . S
O1020 C1008 1.232 . S
H1021 C1040 0.929 . S
H1022 C1041 0.929 . S
H1023 C1053 0.931 . S
H1024 C1045 0.929 . S
H1025 C1054 0.930 . S
H1026 C1046 0.931 . S
O1027 Co1003 2.097 1_545 S
O1027 C1055 1.214 . S
H1028 C1056 0.929 . S
H1029 C1057 0.929 . S
H1030 C1058 0.930 . S
H1031 C1059 0.929 . S
H1032 C1061 0.930 . S
H1033 C1038 0.930 . S
H1034 C1042 0.930 1_655 S
O1035 Co1004 2.037 . S
O1035 C1055 1.234 . S
C1036 O1010 1.269 . S
C1036 O1011 1.257 . S
C1037 H1012 0.930 1_455 S
C1037 C1040 1.388 . S
C1037 C1042 1.418 . S
C1038 H1033 0.930 . S
C1038 C1041 1.404 . S
C1038 C1042 1.353 . S
N1039 Co1004 2.145 . S
N1039 C1040 1.397 . S
N1039 C1041 1.334 . S
C1040 H1021 0.929 . S
C1040 C1037 1.388 . S
C1040 N1039 1.397 . S
C1041 H1022 0.929 . S
C1041 C1038 1.404 . S
C1041 N1039 1.334 . S
C1042 H1034 0.930 1_455 S
C1042 C1037 1.418 . S
C1042 C1038 1.353 . S
C1043 H1013 0.930 . S
C1043 N1044 1.330 . S
C1043 C1045 1.446 . S
N1044 Co1003 2.151 . S
N1044 C1043 1.330 . S
N1044 C1048 1.418 . S
C1045 H1024 0.929 . S
C1045 C1043 1.446 . S
C1045 C1046 1.332 . S
C1046 H1026 0.931 . S
C1046 C1045 1.332 . S
C1046 C1047 1.267 . S
C1047 H1015 0.929 . S
C1047 C1046 1.267 . S
C1047 C1048 1.251 . S
C1048 H1018 0.929 . S
C1048 N1044 1.418 . S
C1048 C1047 1.251 . S
C1049 H1016 0.930 . S
C1049 C1051 1.406 . S
C1049 C1054 1.261 . S
C1050 H1017 0.930 . S
C1050 N1052 1.325 . S
C1050 C1053 1.357 . S
C1051 H1019 0.928 . S
C1051 C1049 1.406 . S
C1051 N1052 1.261 . S
N1052 Co1003 2.214 . S
N1052 C1050 1.325 . S
N1052 C1051 1.261 . S
C1053 H1023 0.931 . S
C1053 C1050 1.357 . S
C1053 C1054 1.312 . S
C1054 H1025 0.930 . S
C1054 C1049 1.261 . S
C1054 C1053 1.312 . S
C1055 O1027 1.214 . S
C1055 O1035 1.234 . S
C1056 H1028 0.929 . S
C1056 C1059 1.391 . S
C1056 C1061 1.391 . S
C1057 H1029 0.929 . S
C1057 C1058 1.390 . S
C1057 N1060 1.391 . S
C1058 H1030 0.930 . S
C1058 C1057 1.390 . S
C1058 C1059 1.392 . S
C1059 H1031 0.929 . S
C1059 C1056 1.391 . S
C1059 C1058 1.392 . S
N1060 Co1004 2.257 . S
N1060 C1057 1.391 . S
N1060 C1061 1.388 . S
C1061 H1032 0.930 . S
C1061 C1056 1.391 . S
C1061 N1060 1.388 . S
Co1062 O1064 2.143 . S
Co1062 O1070 2.074 . S
Co1062 O1073 2.093 . S
Co1062 O1086 2.097 . S
Co1062 N1103 2.151 . S
Co1062 N1111 2.214 1_556 S
Co1063 O1064 2.160 . S
Co1063 O1069 2.058 . S
Co1063 O1079 2.057 . S
Co1063 O1094 2.037 . S
Co1063 N1098 2.145 . S
Co1063 N1119 2.257 . S
O1064 Co1062 2.143 . S
O1064 Co1063 2.160 . S
C1065 O1066 1.278 . S
C1065 O1073 1.224 . S
O1066 C1065 1.278 . S
C1067 O1068 1.245 . S
C1067 O1079 1.232 . S
O1068 C1067 1.245 . S
O1069 Co1063 2.058 . S
O1069 C1095 1.269 . S
O1070 Co1062 2.074 . S
O1070 C1095 1.257 . S
H1071 C1096 0.918 1_455 S
H1072 C1102 0.930 . S
O1073 Co1062 2.093 . S
O1073 C1065 1.224 . S
H1074 C1106 0.929 . S
H1075 C1108 0.930 . S
H1076 C1109 0.930 . S
H1077 C1107 0.929 . S
H1078 C1110 0.928 . S
O1079 Co1063 2.057 . S
O1079 C1067 1.232 . S
H1080 C1099 0.929 . S
H1081 C1100 0.929 . S
H1082 C1112 0.931 . S
H1083 C1104 0.929 . S
H1084 C1113 0.930 . S
H1085 C1105 0.931 . S
O1086 Co1062 2.097 . S
O1086 C1114 1.214 . S
H1087 C1115 0.929 . S
H1088 C1116 0.929 . S
H1089 C1117 0.930 . S
H1090 C1118 0.929 . S
H1091 C1120 0.930 . S
H1092 C1097 0.930 . S
H1093 C1101 0.913 1_455 S
O1094 Co1063 2.037 . S
O1094 C1114 1.234 . S
C1095 O1069 1.269 . S
C1095 O1070 1.257 . S
C1096 H1071 0.918 1_655 S
C1096 C1099 1.400 . S
C1096 C1101 1.418 . S
C1097 H1092 0.930 . S
C1097 C1100 1.404 . S
C1097 C1101 1.371 . S
N1098 Co1063 2.145 . S
N1098 C1099 1.397 . S
N1098 C1100 1.334 . S
C1099 H1080 0.929 . S
C1099 C1096 1.400 . S
C1099 N1098 1.397 . S
C1100 H1081 0.929 . S
C1100 C1097 1.404 . S
C1100 N1098 1.334 . S
C1101 H1093 0.913 1_655 S
C1101 C1096 1.418 . S
C1101 C1097 1.371 . S
C1102 H1072 0.930 . S
C1102 N1103 1.330 . S
C1102 C1104 1.446 . S
N1103 Co1062 2.151 . S
N1103 C1102 1.330 . S
N1103 C1107 1.418 . S
C1104 H1083 0.929 . S
C1104 C1102 1.446 . S
C1104 C1105 1.332 . S
C1105 H1085 0.931 . S
C1105 C1104 1.332 . S
C1105 C1106 1.267 . S
C1106 H1074 0.929 . S
C1106 C1105 1.267 . S
C1106 C1107 1.251 . S
C1107 H1077 0.929 . S
C1107 N1103 1.418 . S
C1107 C1106 1.251 . S
C1108 H1075 0.930 . S
C1108 C1110 1.406 . S
C1108 C1113 1.261 . S
C1109 H1076 0.930 . S
C1109 N1111 1.325 . S
C1109 C1112 1.357 . S
C1110 H1078 0.928 . S
C1110 C1108 1.406 . S
C1110 N1111 1.261 . S
N1111 Co1062 2.214 1_554 S
N1111 C1109 1.325 . S
N1111 C1110 1.261 . S
C1112 H1082 0.931 . S
C1112 C1109 1.357 . S
C1112 C1113 1.312 . S
C1113 H1084 0.930 . S
C1113 C1108 1.261 . S
C1113 C1112 1.312 . S
C1114 O1086 1.214 . S
C1114 O1094 1.234 . S
C1115 H1087 0.929 . S
C1115 C1118 1.391 . S
C1115 C1120 1.391 . S
C1116 H1088 0.929 . S
C1116 C1117 1.390 . S
C1116 N1119 1.391 . S
C1117 H1089 0.930 . S
C1117 C1116 1.390 . S
C1117 C1118 1.392 . S
C1118 H1090 0.929 . S
C1118 C1115 1.391 . S
C1118 C1117 1.392 . S
N1119 Co1063 2.257 . S
N1119 C1116 1.391 . S
N1119 C1120 1.388 . S
C1120 H1091 0.930 . S
C1120 C1115 1.391 . S
C1120 N1119 1.388 . S
Co1121 O1123 2.143 . S
Co1121 O1129 2.074 . S
Co1121 O1132 2.093 . S
Co1121 O1145 2.097 1_545 S
Co1121 N1162 2.151 . S
Co1121 N1170 2.214 1_556 S
Co1122 O1123 2.160 1_565 S
Co1122 O1128 2.058 1_565 S
Co1122 O1138 2.057 . S
Co1122 O1153 2.037 . S
Co1122 N1157 2.145 . S
Co1122 N1178 2.257 . S
O1123 Co1121 2.143 . S
O1123 Co1122 2.160 1_545 S
C1124 O1125 1.278 . S
C1124 O1132 1.224 1_565 S
O1125 C1124 1.278 . S
C1126 O1127 1.245 1_565 S
C1126 O1138 1.232 . S
O1127 C1126 1.245 1_545 S
O1128 Co1122 2.058 1_545 S
O1128 C1154 1.269 . S
O1129 Co1121 2.074 . S
O1129 C1154 1.257 . S
H1130 C1155 0.930 1_655 S
H1131 C1161 0.930 . S
O1132 Co1121 2.093 . S
O1132 C1124 1.224 1_545 S
H1133 C1165 0.929 . S
H1134 C1167 0.930 . S
H1135 C1168 0.930 . S
H1136 C1166 0.929 . S
H1137 C1169 0.928 . S
O1138 Co1122 2.057 . S
O1138 C1126 1.232 . S
H1139 C1158 0.929 . S
H1140 C1159 0.929 . S
H1141 C1171 0.931 . S
H1142 C1163 0.929 . S
H1143 C1172 0.930 . S
H1144 C1164 0.931 . S
O1145 Co1121 2.097 1_565 S
O1145 C1173 1.214 . S
H1146 C1174 0.929 . S
H1147 C1175 0.929 . S
H1148 C1176 0.930 . S
H1149 C1177 0.929 . S
H1150 C1179 0.930 . S
H1151 C1156 0.930 . S
H1152 C1160 0.930 1_655 S
O1153 Co1122 2.037 . S
O1153 C1173 1.234 . S
C1154 O1128 1.269 . S
C1154 O1129 1.257 . S
C1155 H1130 0.930 1_455 S
C1155 C1158 1.388 . S
C1155 C1160 1.418 . S
C1156 H1151 0.930 . S
C1156 C1159 1.404 . S
C1156 C1160 1.353 . S
N1157 Co1122 2.145 . S
N1157 C1158 1.397 . S
N1157 C1159 1.334 . S
C1158 H1139 0.929 . S
C1158 C1155 1.388 . S
C1158 N1157 1.397 . S
C1159 H1140 0.929 . S
C1159 C1156 1.404 . S
C1159 N1157 1.334 . S
C1160 H1152 0.930 1_455 S
C1160 C1155 1.418 . S
C1160 C1156 1.353 . S
C1161 H1131 0.930 . S
C1161 N1162 1.330 . S
C1161 C1163 1.446 . S
N1162 Co1121 2.151 . S
N1162 C1161 1.330 . S
N1162 C1166 1.418 . S
C1163 H1142 0.929 . S
C1163 C1161 1.446 . S
C1163 C1164 1.332 . S
C1164 H1144 0.931 . S
C1164 C1163 1.332 . S
C1164 C1165 1.267 . S
C1165 H1133 0.929 . S
C1165 C1164 1.267 . S
C1165 C1166 1.251 . S
C1166 H1136 0.929 . S
C1166 N1162 1.418 . S
C1166 C1165 1.251 . S
C1167 H1134 0.930 . S
C1167 C1169 1.406 . S
C1167 C1172 1.261 . S
C1168 H1135 0.930 . S
C1168 N1170 1.325 . S
C1168 C1171 1.357 . S
C1169 H1137 0.928 . S
C1169 C1167 1.406 . S
C1169 N1170 1.261 . S
N1170 Co1121 2.214 1_554 S
N1170 C1168 1.325 . S
N1170 C1169 1.261 . S
C1171 H1141 0.931 . S
C1171 C1168 1.357 . S
C1171 C1172 1.312 . S
C1172 H1143 0.930 . S
C1172 C1167 1.261 . S
C1172 C1171 1.312 . S
C1173 O1145 1.214 . S
C1173 O1153 1.234 . S
C1174 H1146 0.929 . S
C1174 C1177 1.391 . S
C1174 C1179 1.391 . S
C1175 H1147 0.929 . S
C1175 C1176 1.390 . S
C1175 N1178 1.391 . S
C1176 H1148 0.930 . S
C1176 C1175 1.390 . S
C1176 C1177 1.392 . S
C1177 H1149 0.929 . S
C1177 C1174 1.391 . S
C1177 C1176 1.392 . S
N1178 Co1122 2.257 . S
N1178 C1175 1.391 . S
N1178 C1179 1.388 . S
C1179 H1150 0.930 . S
C1179 C1174 1.391 . S
C1179 N1178 1.388 . S
Co1180 O1182 2.143 . S
Co1180 O1188 2.074 . S
Co1180 O1191 2.093 . S
Co1180 O1204 2.097 . S
Co1180 N1221 2.151 . S
Co1180 N1229 2.214 . S
Co1181 O1182 2.160 . S
Co1181 O1187 2.058 . S
Co1181 O1197 2.057 . S
Co1181 O1212 2.037 . S
Co1181 N1216 2.145 . S
Co1181 N1237 2.257 . S
O1182 Co1180 2.143 . S
O1182 Co1181 2.160 . S
C1183 O1184 1.278 . S
C1183 O1191 1.224 . S
O1184 C1183 1.278 . S
C1185 O1186 1.245 . S
C1185 O1197 1.232 . S
O1186 C1185 1.245 . S
O1187 Co1181 2.058 . S
O1187 C1213 1.269 . S
O1188 Co1180 2.074 . S
O1188 C1213 1.257 . S
H1189 C1214 0.930 1_545 S
H1190 C1220 0.930 . S
O1191 Co1180 2.093 . S
O1191 C1183 1.224 . S
H1192 C1224 0.929 . S
H1193 C1226 0.930 . S
H1194 C1227 0.930 . S
H1195 C1225 0.929 . S
H1196 C1228 0.928 . S
O1197 Co1181 2.057 . S
O1197 C1185 1.232 . S
H1198 C1217 0.929 . S
H1199 C1218 0.929 . S
H1200 C1230 0.931 . S
H1201 C1222 0.929 . S
H1202 C1231 0.930 . S
H1203 C1223 0.931 . S
O1204 Co1180 2.097 . S
O1204 C1232 1.214 . S
H1205 C1233 0.929 . S
H1206 C1234 0.929 . S
H1207 C1235 0.930 . S
H1208 C1236 0.929 . S
H1209 C1238 0.930 . S
H1210 C1215 0.930 . S
H1211 C1219 0.930 1_545 S
O1212 Co1181 2.037 . S
O1212 C1232 1.234 . S
C1213 O1187 1.269 . S
C1213 O1188 1.257 . S
C1214 H1189 0.930 1_565 S
C1214 C1217 1.388 . S
C1214 C1219 1.418 . S
C1215 H1210 0.930 . S
C1215 C1218 1.404 . S
C1215 C1219 1.353 . S
N1216 Co1181 2.145 . S
N1216 C1217 1.397 . S
N1216 C1218 1.334 . S
C1217 H1198 0.929 . S
C1217 C1214 1.388 . S
C1217 N1216 1.397 . S
C1218 H1199 0.929 . S
C1218 C1215 1.404 . S
C1218 N1216 1.334 . S
C1219 H1211 0.930 1_565 S
C1219 C1214 1.418 . S
C1219 C1215 1.353 . S
C1220 H1190 0.930 . S
C1220 N1221 1.330 . S
C1220 C1222 1.446 . S
N1221 Co1180 2.151 . S
N1221 C1220 1.330 . S
N1221 C1225 1.418 . S
C1222 H1201 0.929 . S
C1222 C1220 1.446 . S
C1222 C1223 1.332 . S
C1223 H1203 0.931 . S
C1223 C1222 1.332 . S
C1223 C1224 1.267 . S
C1224 H1192 0.929 . S
C1224 C1223 1.267 . S
C1224 C1225 1.251 . S
C1225 H1195 0.929 . S
C1225 N1221 1.418 . S
C1225 C1224 1.251 . S
C1226 H1193 0.930 . S
C1226 C1228 1.406 . S
C1226 C1231 1.261 . S
C1227 H1194 0.930 . S
C1227 N1229 1.325 . S
C1227 C1230 1.357 . S
C1228 H1196 0.928 . S
C1228 C1226 1.406 . S
C1228 N1229 1.261 . S
N1229 Co1180 2.214 . S
N1229 C1227 1.325 . S
N1229 C1228 1.261 . S
C1230 H1200 0.931 . S
C1230 C1227 1.357 . S
C1230 C1231 1.312 . S
C1231 H1202 0.930 . S
C1231 C1226 1.261 . S
C1231 C1230 1.312 . S
C1232 O1204 1.214 . S
C1232 O1212 1.234 . S
C1233 H1205 0.929 . S
C1233 C1236 1.391 . S
C1233 C1238 1.391 . S
C1234 H1206 0.929 . S
C1234 C1235 1.390 . S
C1234 N1237 1.391 . S
C1235 H1207 0.930 . S
C1235 C1234 1.390 . S
C1235 C1236 1.392 . S
C1236 H1208 0.929 . S
C1236 C1233 1.391 . S
C1236 C1235 1.392 . S
N1237 Co1181 2.257 . S
N1237 C1234 1.391 . S
N1237 C1238 1.388 . S
C1238 H1209 0.930 . S
C1238 C1233 1.391 . S
C1238 N1237 1.388 . S
Co1239 O1241 2.143 . S
Co1239 O1247 2.074 . S
Co1239 O1250 2.093 . S
Co1239 O1263 2.097 1_556 S
Co1239 N1280 2.151 . S
Co1239 N1288 2.214 . S
Co1240 O1241 2.160 1_554 S
Co1240 O1246 2.058 1_554 S
Co1240 O1256 2.057 . S
Co1240 O1271 2.037 . S
Co1240 N1275 2.145 . S
Co1240 N1296 2.257 . S
O1241 Co1239 2.143 . S
O1241 Co1240 2.160 1_556 S
C1242 O1243 1.278 . S
C1242 O1250 1.224 1_554 S
O1243 C1242 1.278 . S
C1244 O1245 1.245 1_554 S
C1244 O1256 1.232 . S
O1245 C1244 1.245 1_556 S
O1246 Co1240 2.058 1_556 S
O1246 C1272 1.269 . S
O1247 Co1239 2.074 . S
O1247 C1272 1.257 . S
H1248 C1273 0.930 1_565 S
H1249 C1279 0.930 . S
O1250 Co1239 2.093 . S
O1250 C1242 1.224 1_556 S
H1251 C1283 0.929 . S
H1252 C1285 0.930 . S
H1253 C1286 0.930 . S
H1254 C1284 0.929 . S
H1255 C1287 0.928 . S
O1256 Co1240 2.057 . S
O1256 C1244 1.232 . S
H1257 C1276 0.929 . S
H1258 C1277 0.929 . S
H1259 C1289 0.931 . S
H1260 C1281 0.929 . S
H1261 C1290 0.930 . S
H1262 C1282 0.931 . S
O1263 Co1239 2.097 1_554 S
O1263 C1291 1.214 . S
H1264 C1292 0.929 . S
H1265 C1293 0.929 . S
H1266 C1294 0.930 . S
H1267 C1295 0.929 . S
H1268 C1297 0.930 . S
H1269 C1274 0.930 . S
H1270 C1278 0.930 1_565 S
O1271 Co1240 2.037 . S
O1271 C1291 1.234 . S
C1272 O1246 1.269 . S
C1272 O1247 1.257 . S
C1273 H1248 0.930 1_545 S
C1273 C1276 1.388 . S
C1273 C1278 1.418 . S
C1274 H1269 0.930 . S
C1274 C1277 1.404 . S
C1274 C1278 1.353 . S
N1275 Co1240 2.145 . S
N1275 C1276 1.397 . S
N1275 C1277 1.334 . S
C1276 H1257 0.929 . S
C1276 C1273 1.388 . S
C1276 N1275 1.397 . S
C1277 H1258 0.929 . S
C1277 C1274 1.404 . S
C1277 N1275 1.334 . S
C1278 H1270 0.930 1_545 S
C1278 C1273 1.418 . S
C1278 C1274 1.353 . S
C1279 H1249 0.930 . S
C1279 N1280 1.330 . S
C1279 C1281 1.446 . S
N1280 Co1239 2.151 . S
N1280 C1279 1.330 . S
N1280 C1284 1.418 . S
C1281 H1260 0.929 . S
C1281 C1279 1.446 . S
C1281 C1282 1.332 . S
C1282 H1262 0.931 . S
C1282 C1281 1.332 . S
C1282 C1283 1.267 . S
C1283 H1251 0.929 . S
C1283 C1282 1.267 . S
C1283 C1284 1.251 . S
C1284 H1254 0.929 . S
C1284 N1280 1.418 . S
C1284 C1283 1.251 . S
C1285 H1252 0.930 . S
C1285 C1287 1.406 . S
C1285 C1290 1.261 . S
C1286 H1253 0.930 . S
C1286 N1288 1.325 . S
C1286 C1289 1.357 . S
C1287 H1255 0.928 . S
C1287 C1285 1.406 . S
C1287 N1288 1.261 . S
N1288 Co1239 2.214 . S
N1288 C1286 1.325 . S
N1288 C1287 1.261 . S
C1289 H1259 0.931 . S
C1289 C1286 1.357 . S
C1289 C1290 1.312 . S
C1290 H1261 0.930 . S
C1290 C1285 1.261 . S
C1290 C1289 1.312 . S
C1291 O1263 1.214 . S
C1291 O1271 1.234 . S
C1292 H1264 0.929 . S
C1292 C1295 1.391 . S
C1292 C1297 1.391 . S
C1293 H1265 0.929 . S
C1293 C1294 1.390 . S
C1293 N1296 1.391 . S
C1294 H1266 0.930 . S
C1294 C1293 1.390 . S
C1294 C1295 1.392 . S
C1295 H1267 0.929 . S
C1295 C1292 1.391 . S
C1295 C1294 1.392 . S
N1296 Co1240 2.257 . S
N1296 C1293 1.391 . S
N1296 C1297 1.388 . S
C1297 H1268 0.930 . S
C1297 C1292 1.391 . S
C1297 N1296 1.388 . S
Co1298 O1300 2.143 . S
Co1298 O1306 2.074 . S
Co1298 O1309 2.093 . S
Co1298 O1322 2.097 1_556 S
Co1298 N1339 2.151 . S
Co1298 N1347 2.214 . S
Co1299 O1300 2.160 1_554 S
Co1299 O1305 2.058 1_554 S
Co1299 O1315 2.057 . S
Co1299 O1330 2.037 . S
Co1299 N1334 2.145 . S
Co1299 N1355 2.257 . S
O1300 Co1298 2.143 . S
O1300 Co1299 2.160 1_556 S
C1301 O1302 1.278 . S
C1301 O1309 1.224 1_554 S
O1302 C1301 1.278 . S
C1303 O1304 1.245 1_554 S
C1303 O1315 1.232 . S
O1304 C1303 1.245 1_556 S
O1305 Co1299 2.058 1_556 S
O1305 C1331 1.269 . S
O1306 Co1298 2.074 . S
O1306 C1331 1.257 . S
H1307 C1332 0.930 . S
H1308 C1338 0.930 . S
O1309 Co1298 2.093 . S
O1309 C1301 1.224 1_556 S
H1310 C1342 0.929 . S
H1311 C1344 0.930 . S
H1312 C1345 0.930 . S
H1313 C1343 0.929 . S
H1314 C1346 0.928 . S
O1315 Co1299 2.057 . S
O1315 C1303 1.232 . S
H1316 C1335 0.929 . S
H1317 C1336 0.929 . S
H1318 C1348 0.931 . S
H1319 C1340 0.929 . S
H1320 C1349 0.930 . S
H1321 C1341 0.931 . S
O1322 Co1298 2.097 1_554 S
O1322 C1350 1.214 . S
H1323 C1351 0.929 . S
H1324 C1352 0.929 . S
H1325 C1353 0.930 . S
H1326 C1354 0.929 . S
H1327 C1356 0.930 . S
H1328 C1333 0.930 . S
H1329 C1337 0.930 . S
O1330 Co1299 2.037 . S
O1330 C1350 1.234 . S
C1331 O1305 1.269 . S
C1331 O1306 1.257 . S
C1332 H1307 0.930 . S
C1332 C1335 1.388 . S
C1332 C1337 1.418 . S
C1333 H1328 0.930 . S
C1333 C1336 1.404 . S
C1333 C1337 1.353 . S
N1334 Co1299 2.145 . S
N1334 C1335 1.397 . S
N1334 C1336 1.334 . S
C1335 H1316 0.929 . S
C1335 C1332 1.388 . S
C1335 N1334 1.397 . S
C1336 H1317 0.929 . S
C1336 C1333 1.404 . S
C1336 N1334 1.334 . S
C1337 H1329 0.930 . S
C1337 C1332 1.418 . S
C1337 C1333 1.353 . S
C1338 H1308 0.930 . S
C1338 N1339 1.330 . S
C1338 C1340 1.446 . S
N1339 Co1298 2.151 . S
N1339 C1338 1.330 . S
N1339 C1343 1.418 . S
C1340 H1319 0.929 . S
C1340 C1338 1.446 . S
C1340 C1341 1.332 . S
C1341 H1321 0.931 . S
C1341 C1340 1.332 . S
C1341 C1342 1.267 . S
C1342 H1310 0.929 . S
C1342 C1341 1.267 . S
C1342 C1343 1.251 . S
C1343 H1313 0.929 . S
C1343 N1339 1.418 . S
C1343 C1342 1.251 . S
C1344 H1311 0.930 . S
C1344 C1346 1.406 . S
C1344 C1349 1.261 . S
C1345 H1312 0.930 . S
C1345 N1347 1.325 . S
C1345 C1348 1.357 . S
C1346 H1314 0.928 . S
C1346 C1344 1.406 . S
C1346 N1347 1.261 . S
N1347 Co1298 2.214 . S
N1347 C1345 1.325 . S
N1347 C1346 1.261 . S
C1348 H1318 0.931 . S
C1348 C1345 1.357 . S
C1348 C1349 1.312 . S
C1349 H1320 0.930 . S
C1349 C1344 1.261 . S
C1349 C1348 1.312 . S
C1350 O1322 1.214 . S
C1350 O1330 1.234 . S
C1351 H1323 0.929 . S
C1351 C1354 1.391 . S
C1351 C1356 1.391 . S
C1352 H1324 0.929 . S
C1352 C1353 1.390 . S
C1352 N1355 1.391 . S
C1353 H1325 0.930 . S
C1353 C1352 1.390 . S
C1353 C1354 1.392 . S
C1354 H1326 0.929 . S
C1354 C1351 1.391 . S
C1354 C1353 1.392 . S
N1355 Co1299 2.257 . S
N1355 C1352 1.391 . S
N1355 C1356 1.388 . S
C1356 H1327 0.930 . S
C1356 C1351 1.391 . S
C1356 N1355 1.388 . S
Co1357 O1359 2.143 . S
Co1357 O1365 2.074 . S
Co1357 O1368 2.093 . S
Co1357 O1381 2.097 1_554 S
Co1357 N1398 2.151 . S
Co1357 N1406 2.214 1_655 S
Co1358 O1359 2.160 1_556 S
Co1358 O1364 2.058 1_556 S
Co1358 O1374 2.057 . S
Co1358 O1389 2.037 . S
Co1358 N1393 2.145 . S
Co1358 N1414 2.257 . S
O1359 Co1357 2.143 . S
O1359 Co1358 2.160 1_554 S
C1360 O1361 1.278 . S
C1360 O1368 1.224 1_556 S
O1361 C1360 1.278 . S
C1362 O1363 1.245 1_556 S
C1362 O1374 1.232 . S
O1363 C1362 1.245 1_554 S
O1364 Co1358 2.058 1_554 S
O1364 C1390 1.269 . S
O1365 Co1357 2.074 . S
O1365 C1390 1.257 . S
H1366 C1391 0.930 1_565 S
H1367 C1397 0.930 . S
O1368 Co1357 2.093 . S
O1368 C1360 1.224 1_554 S
H1369 C1401 0.929 . S
H1370 C1403 0.930 . S
H1371 C1404 0.930 . S
H1372 C1402 0.929 . S
H1373 C1405 0.928 . S
O1374 Co1358 2.057 . S
O1374 C1362 1.232 . S
H1375 C1394 0.929 . S
H1376 C1395 0.929 . S
H1377 C1407 0.931 . S
H1378 C1399 0.929 . S
H1379 C1408 0.930 . S
H1380 C1400 0.931 . S
O1381 Co1357 2.097 1_556 S
O1381 C1409 1.214 . S
H1382 C1410 0.929 . S
H1383 C1411 0.929 . S
H1384 C1412 0.930 . S
H1385 C1413 0.929 . S
H1386 C1415 0.930 . S
H1387 C1392 0.930 . S
H1388 C1396 0.930 1_565 S
O1389 Co1358 2.037 . S
O1389 C1409 1.234 . S
C1390 O1364 1.269 . S
C1390 O1365 1.257 . S
C1391 H1366 0.930 1_545 S
C1391 C1394 1.388 . S
C1391 C1396 1.418 . S
C1392 H1387 0.930 . S
C1392 C1395 1.404 . S
C1392 C1396 1.353 . S
N1393 Co1358 2.145 . S
N1393 C1394 1.397 . S
N1393 C1395 1.334 . S
C1394 H1375 0.929 . S
C1394 C1391 1.388 . S
C1394 N1393 1.397 . S
C1395 H1376 0.929 . S
C1395 C1392 1.404 . S
C1395 N1393 1.334 . S
C1396 H1388 0.930 1_545 S
C1396 C1391 1.418 . S
C1396 C1392 1.353 . S
C1397 H1367 0.930 . S
C1397 N1398 1.330 . S
C1397 C1399 1.446 . S
N1398 Co1357 2.151 . S
N1398 C1397 1.330 . S
N1398 C1402 1.418 . S
C1399 H1378 0.929 . S
C1399 C1397 1.446 . S
C1399 C1400 1.332 . S
C1400 H1380 0.931 . S
C1400 C1399 1.332 . S
C1400 C1401 1.267 . S
C1401 H1369 0.929 . S
C1401 C1400 1.267 . S
C1401 C1402 1.251 . S
C1402 H1372 0.929 . S
C1402 N1398 1.418 . S
C1402 C1401 1.251 . S
C1403 H1370 0.930 . S
C1403 C1405 1.406 . S
C1403 C1408 1.261 . S
C1404 H1371 0.930 . S
C1404 N1406 1.325 . S
C1404 C1407 1.357 . S
C1405 H1373 0.928 . S
C1405 C1403 1.406 . S
C1405 N1406 1.261 . S
N1406 Co1357 2.214 1_455 S
N1406 C1404 1.325 . S
N1406 C1405 1.261 . S
C1407 H1377 0.931 . S
C1407 C1404 1.357 . S
C1407 C1408 1.312 . S
C1408 H1379 0.930 . S
C1408 C1403 1.261 . S
C1408 C1407 1.312 . S
C1409 O1381 1.214 . S
C1409 O1389 1.234 . S
C1410 H1382 0.929 . S
C1410 C1413 1.391 . S
C1410 C1415 1.391 . S
C1411 H1383 0.929 . S
C1411 C1412 1.390 . S
C1411 N1414 1.391 . S
C1412 H1384 0.930 . S
C1412 C1411 1.390 . S
C1412 C1413 1.392 . S
C1413 H1385 0.929 . S
C1413 C1410 1.391 . S
C1413 C1412 1.392 . S
N1414 Co1358 2.257 . S
N1414 C1411 1.391 . S
N1414 C1415 1.388 . S
C1415 H1386 0.930 . S
C1415 C1410 1.391 . S
C1415 N1414 1.388 . S
C1416 C1417 1.387 . S
C1416 H1420 0.950 . S
C1416 C1425 1.390 . S
C1417 C1416 1.387 . S
C1417 C1419 1.387 . S
H1418 C1425 0.950 . S
C1419 C1417 1.387 . S
C1419 C1421 1.390 . S
C1419 H1423 0.950 . S
H1420 C1416 0.950 . S
C1421 C1419 1.390 . S
C1421 C1422 1.387 . S
C1421 H1424 0.950 . S
C1422 C1421 1.387 . S
C1422 C1425 1.387 . S
H1423 C1419 0.950 . S
H1424 C1421 0.950 . S
C1425 C1416 1.390 . S
C1425 H1418 0.950 . S
C1425 C1422 1.387 . S
C1426 C1427 1.387 . S
C1426 H1430 0.950 . S
C1426 C1435 1.390 . S
C1427 C1426 1.387 . S
C1427 C1429 1.387 . S
H1428 C1435 0.950 . S
C1429 C1427 1.387 . S
C1429 C1431 1.390 . S
C1429 H1433 0.950 . S
H1430 C1426 0.950 . S
C1431 C1429 1.390 . S
C1431 C1432 1.387 . S
C1431 H1434 0.950 . S
C1432 C1431 1.387 . S
C1432 C1435 1.387 . S
H1433 C1429 0.950 . S
H1434 C1431 0.950 . S
C1435 C1426 1.390 . S
C1435 H1428 0.950 . S
C1435 C1432 1.387 . S
C1436 C1437 1.387 . S
C1436 H1440 0.950 . S
C1436 C1445 1.390 1_554 S
C1437 C1436 1.387 . S
C1437 C1439 1.387 . S
H1438 C1445 0.950 . S
C1439 C1437 1.387 . S
C1439 C1441 1.390 . S
C1439 H1443 0.950 . S
H1440 C1436 0.950 . S
C1441 C1439 1.390 . S
C1441 C1442 1.387 1_554 S
C1441 H1444 0.950 . S
C1442 C1441 1.387 1_556 S
C1442 C1445 1.387 . S
H1443 C1439 0.950 . S
H1444 C1441 0.950 . S
C1445 C1436 1.390 1_556 S
C1445 H1438 0.950 . S
C1445 C1442 1.387 . S
C1446 C1447 1.387 . S
C1446 H1450 0.950 . S
C1446 C1455 1.390 1_554 S
C1447 C1446 1.387 . S
C1447 C1449 1.387 . S
H1448 C1455 0.950 . S
C1449 C1447 1.387 . S
C1449 C1451 1.390 . S
C1449 H1453 0.950 . S
H1450 C1446 0.950 . S
C1451 C1449 1.390 . S
C1451 C1452 1.387 1_554 S
C1451 H1454 0.950 . S
C1452 C1451 1.387 1_556 S
C1452 C1455 1.387 . S
H1453 C1449 0.950 . S
H1454 C1451 0.950 . S
C1455 C1446 1.390 1_556 S
C1455 H1448 0.950 . S
C1455 C1452 1.387 . S
C1456 C1457 1.387 . S
C1456 H1460 0.950 . S
C1456 C1465 1.390 . S
C1457 C1456 1.387 . S
C1457 C1459 1.387 . S
H1458 C1465 0.950 . S
C1459 C1457 1.387 . S
C1459 C1461 1.390 . S
C1459 H1463 0.950 . S
H1460 C1456 0.950 . S
C1461 C1459 1.390 . S
C1461 C1462 1.387 . S
C1461 H1464 0.950 . S
C1462 C1461 1.387 . S
C1462 C1465 1.387 . S
H1463 C1459 0.950 . S
H1464 C1461 0.950 . S
C1465 C1456 1.390 . S
C1465 H1458 0.950 . S
C1465 C1462 1.387 . S
C1466 C1467 1.387 . S
C1466 H1470 0.950 . S
C1466 C1475 1.390 . S
C1467 C1466 1.387 . S
C1467 C1469 1.387 . S
H1468 C1475 0.932 1_556 S
C1469 C1467 1.387 . S
C1469 C1471 1.390 . S
C1469 H1473 0.950 . S
H1470 C1466 0.950 . S
C1471 C1469 1.390 . S
C1471 C1472 1.387 . S
C1471 H1474 0.950 . S
C1472 C1471 1.387 . S
C1472 C1475 1.387 . S
H1473 C1469 0.950 . S
H1474 C1471 0.950 . S
C1475 C1466 1.390 . S
C1475 H1468 0.932 1_554 S
C1475 C1472 1.387 . S
C1476 C1477 1.387 . S
C1476 H1480 0.950 . S
C1476 C1485 1.390 . S
C1477 C1476 1.387 . S
C1477 C1479 1.387 . S
H1478 C1485 0.950 . S
C1479 C1477 1.387 . S
C1479 C1481 1.390 . S
C1479 H1483 0.950 . S
H1480 C1476 0.950 . S
C1481 C1479 1.390 . S
C1481 C1482 1.387 . S
C1481 H1484 0.950 . S
C1482 C1481 1.387 . S
C1482 C1485 1.387 . S
H1483 C1479 0.950 . S
H1484 C1481 0.950 . S
C1485 C1476 1.390 . S
C1485 H1478 0.950 . S
C1485 C1482 1.387 . S
C1486 C1487 1.387 . S
C1486 H1490 0.950 . S
C1486 C1495 1.390 . S
C1487 C1486 1.387 . S
C1487 C1489 1.387 . S
H1488 C1495 0.950 . S
C1489 C1487 1.387 . S
C1489 C1491 1.390 . S
C1489 H1493 0.950 . S
H1490 C1486 0.950 . S
C1491 C1489 1.390 . S
C1491 C1492 1.387 . S
C1491 H1494 0.950 . S
C1492 C1491 1.387 . S
C1492 C1495 1.387 . S
H1493 C1489 0.950 . S
H1494 C1491 0.950 . S
C1495 C1486 1.390 . S
C1495 H1488 0.950 . S
C1495 C1492 1.387 . S
C1496 C1497 1.387 . S
C1496 H1500 0.950 . S
C1496 C1505 1.390 . S
C1497 C1496 1.387 . S
C1497 C1499 1.387 . S
H1498 C1505 0.950 . S
C1499 C1497 1.387 . S
C1499 C1501 1.390 . S
C1499 H1503 0.950 . S
H1500 C1496 0.950 . S
C1501 C1499 1.390 . S
C1501 C1502 1.387 . S
C1501 H1504 0.950 . S
C1502 C1501 1.387 . S
C1502 C1505 1.387 . S
H1503 C1499 0.950 . S
H1504 C1501 0.950 . S
C1505 C1496 1.390 . S
C1505 H1498 0.950 . S
C1505 C1502 1.387 . S
C1506 C1507 1.387 . S
C1506 H1510 0.950 . S
C1506 C1515 1.390 . S
C1507 C1506 1.387 . S
C1507 C1509 1.387 . S
H1508 C1515 0.950 . S
C1509 C1507 1.387 . S
C1509 C1511 1.390 . S
C1509 H1513 0.950 . S
H1510 C1506 0.950 . S
C1511 C1509 1.390 . S
C1511 C1512 1.387 . S
C1511 H1514 0.950 . S
C1512 C1511 1.387 . S
C1512 C1515 1.387 . S
H1513 C1509 0.950 . S
H1514 C1511 0.950 . S
C1515 C1506 1.390 . S
C1515 H1508 0.950 . S
C1515 C1512 1.387 . S
C1516 C1517 1.387 . S
C1516 H1520 0.950 . S
C1516 C1525 1.390 . S
C1517 C1516 1.387 . S
C1517 C1519 1.387 . S
H1518 C1525 0.950 . S
C1519 C1517 1.387 . S
C1519 C1521 1.390 1_565 S
C1519 H1523 0.950 . S
H1520 C1516 0.950 . S
C1521 C1519 1.390 1_545 S
C1521 C1522 1.387 . S
C1521 H1524 0.950 . S
C1522 C1521 1.387 . S
C1522 C1525 1.387 1_545 S
H1523 C1519 0.950 . S
H1524 C1521 0.950 . S
C1525 C1516 1.390 . S
C1525 H1518 0.950 . S
C1525 C1522 1.387 1_565 S
C1526 C1527 1.387 . S
C1526 H1530 0.950 . S
C1526 C1535 1.390 . S
C1527 C1526 1.387 . S
C1527 C1529 1.387 . S
H1528 C1535 0.950 . S
C1529 C1527 1.387 . S
C1529 C1531 1.390 . S
C1529 H1533 0.950 . S
H1530 C1526 0.950 . S
C1531 C1529 1.390 . S
C1531 C1532 1.387 . S
C1531 H1534 0.950 . S
C1532 C1531 1.387 . S
C1532 C1535 1.387 . S
H1533 C1529 0.950 . S
H1534 C1531 0.950 . S
C1535 C1526 1.390 . S
C1535 H1528 0.950 . S
C1535 C1532 1.387 . S
C1536 C1537 1.387 1_556 S
C1536 H1540 0.950 1_556 S
C1536 C1545 1.390 . S
C1537 C1536 1.387 1_554 S
C1537 C1539 1.387 1_554 S
H1538 C1545 0.950 . S
C1539 C1537 1.387 1_556 S
C1539 C1541 1.390 . S
C1539 H1543 0.950 1_556 S
H1540 C1536 0.950 1_554 S
C1541 C1539 1.390 . S
C1541 C1542 1.387 . S
C1541 H1544 0.950 . S
C1542 C1541 1.387 . S
C1542 C1545 1.387 . S
H1543 C1539 0.950 1_554 S
H1544 C1541 0.950 . S
C1545 C1536 1.390 . S
C1545 H1538 0.950 . S
C1545 C1542 1.387 . S
C1546 C1547 1.387 . S
C1546 H1550 0.950 . S
C1546 C1555 1.390 1_554 S
C1547 C1546 1.387 . S
C1547 C1549 1.387 1_554 S
H1548 C1555 0.950 . S
C1549 C1547 1.387 1_556 S
C1549 C1551 1.390 . S
C1549 H1553 0.950 . S
H1550 C1546 0.950 . S
C1551 C1549 1.390 . S
C1551 C1552 1.387 . S
C1551 H1554 0.950 . S
C1552 C1551 1.387 . S
C1552 C1555 1.387 . S
H1553 C1549 0.950 . S
H1554 C1551 0.950 . S
C1555 C1546 1.390 1_556 S
C1555 H1548 0.950 . S
C1555 C1552 1.387 . S
C1556 C1557 1.387 . S
C1556 H1560 0.950 . S
C1556 C1565 1.390 . S
C1557 C1556 1.387 . S
C1557 C1559 1.387 . S
H1558 C1565 0.950 . S
C1559 C1557 1.387 . S
C1559 C1561 1.390 . S
C1559 H1563 0.950 . S
H1560 C1556 0.950 . S
C1561 C1559 1.390 . S
C1561 C1562 1.387 . S
C1561 H1564 0.950 . S
C1562 C1561 1.387 . S
C1562 C1565 1.387 . S
H1563 C1559 0.950 . S
H1564 C1561 0.950 . S
C1565 C1556 1.390 . S
C1565 H1558 0.950 . S
C1565 C1562 1.387 . S
C1566 C1567 1.387 . S
C1566 H1570 0.950 . S
C1566 C1575 1.390 . S
C1567 C1566 1.387 . S
C1567 C1569 1.387 . S
H1568 C1575 0.950 . S
C1569 C1567 1.387 . S
C1569 C1571 1.390 . S
C1569 H1573 0.950 . S
H1570 C1566 0.950 . S
C1571 C1569 1.390 . S
C1571 C1572 1.387 . S
C1571 H1574 0.950 . S
C1572 C1571 1.387 . S
C1572 C1575 1.387 . S
H1573 C1569 0.950 . S
H1574 C1571 0.950 . S
C1575 C1566 1.390 . S
C1575 H1568 0.950 . S
C1575 C1572 1.387 . S
C1576 C1577 1.387 1_655 S
C1576 H1580 0.950 1_655 S
C1576 C1585 1.390 . S
C1577 C1576 1.387 1_455 S
C1577 C1579 1.387 1_455 S
H1578 C1585 0.950 . S
C1579 C1577 1.387 1_655 S
C1579 C1581 1.390 . S
C1579 H1583 0.950 1_655 S
H1580 C1576 0.950 1_455 S
C1581 C1579 1.390 . S
C1581 C1582 1.387 . S
C1581 H1584 0.950 . S
C1582 C1581 1.387 . S
C1582 C1585 1.387 . S
H1583 C1579 0.950 1_455 S
H1584 C1581 0.950 . S
C1585 C1576 1.390 . S
C1585 H1578 0.950 . S
C1585 C1582 1.387 . S
C1586 C1587 1.396 . S
C1586 H1590 0.964 . S
C1586 C1595 1.368 1_655 S
C1587 C1586 1.396 . S
C1587 C1589 1.387 1_655 S
H1588 C1595 0.950 . S
C1589 C1587 1.387 1_455 S
C1589 C1591 1.390 . S
C1589 H1593 0.948 . S
H1590 C1586 0.964 . S
C1591 C1589 1.390 . S
C1591 C1592 1.387 . S
C1591 H1594 0.950 . S
C1592 C1591 1.387 . S
C1592 C1595 1.387 . S
H1593 C1589 0.948 . S
H1594 C1591 0.950 . S
C1595 C1586 1.368 1_455 S
C1595 H1588 0.950 . S
C1595 C1592 1.387 . S
C1596 C1597 1.387 1_655 S
C1596 H1600 0.950 . S
C1596 C1605 1.390 . S
C1597 C1596 1.387 1_455 S
C1597 C1599 1.387 . S
H1598 C1605 0.950 . S
C1599 C1597 1.387 . S
C1599 C1601 1.390 1_455 S
C1599 H1603 0.950 . S
H1600 C1596 0.950 . S
C1601 C1599 1.390 1_655 S
C1601 C1602 1.387 . S
C1601 H1604 0.950 . S
C1602 C1601 1.387 . S
C1602 C1605 1.387 . S
H1603 C1599 0.950 . S
H1604 C1601 0.950 . S
C1605 C1596 1.390 . S
C1605 H1598 0.950 . S
C1605 C1602 1.387 . S
C1606 C1607 1.387 . S
C1606 H1610 0.950 . S
C1606 C1615 1.390 . S
C1607 C1606 1.387 . S
C1607 C1609 1.387 . S
H1608 C1615 0.950 1_655 S
C1609 C1607 1.387 . S
C1609 C1611 1.390 . S
C1609 H1613 0.950 . S
H1610 C1606 0.950 . S
C1611 C1609 1.390 . S
C1611 C1612 1.387 1_455 S
C1611 H1614 0.950 . S
C1612 C1611 1.387 1_655 S
C1612 C1615 1.387 1_655 S
H1613 C1609 0.950 . S
H1614 C1611 0.950 . S
C1615 C1606 1.390 . S
C1615 H1608 0.950 1_455 S
C1615 C1612 1.387 1_455 S
C1616 C1617 1.387 1_565 S
C1616 H1620 0.941 1_565 S
C1616 C1625 1.390 . S
C1617 C1616 1.387 1_545 S
C1617 C1619 1.387 1_545 S
H1618 C1625 0.950 . S
C1619 C1617 1.387 1_565 S
C1619 C1621 1.390 . S
C1619 H1623 0.950 1_565 S
H1620 C1616 0.941 1_545 S
C1621 C1619 1.390 . S
C1621 C1622 1.387 . S
C1621 H1624 0.950 . S
C1622 C1621 1.387 . S
C1622 C1625 1.387 . S
H1623 C1619 0.950 1_545 S
H1624 C1621 0.950 . S
C1625 C1616 1.390 . S
C1625 H1618 0.950 . S
C1625 C1622 1.387 . S
C1626 C1627 1.387 . S
C1626 H1630 0.950 . S
C1626 C1635 1.390 . S
C1627 C1626 1.387 . S
C1627 C1629 1.387 . S
H1628 C1635 0.950 1_565 S
C1629 C1627 1.387 . S
C1629 C1631 1.390 . S
C1629 H1633 0.950 . S
H1630 C1626 0.950 . S
C1631 C1629 1.390 . S
C1631 C1632 1.387 1_545 S
C1631 H1634 0.950 1_545 S
C1632 C1631 1.387 1_565 S
C1632 C1635 1.387 1_565 S
H1633 C1629 0.950 . S
H1634 C1631 0.950 1_565 S
C1635 C1626 1.390 . S
C1635 H1628 0.950 1_545 S
C1635 C1632 1.387 1_545 S
C1636 C1637 1.387 . S
C1636 H1640 0.950 . S
C1636 C1645 1.390 . S
C1637 C1636 1.387 . S
C1637 C1639 1.387 . S
H1638 C1645 0.950 . S
C1639 C1637 1.387 . S
C1639 C1641 1.390 . S
C1639 H1643 0.950 . S
H1640 C1636 0.950 . S
C1641 C1639 1.390 . S
C1641 C1642 1.387 . S
C1641 H1644 0.950 . S
C1642 C1641 1.387 . S
C1642 C1645 1.387 . S
H1643 C1639 0.950 . S
H1644 C1641 0.950 . S
C1645 C1636 1.390 . S
C1645 H1638 0.950 . S
C1645 C1642 1.387 . S
C1646 C1647 1.387 . S
C1646 H1650 0.950 . S
C1646 C1655 1.390 . S
C1647 C1646 1.387 . S
C1647 C1649 1.387 . S
H1648 C1655 0.950 . S
C1649 C1647 1.387 . S
C1649 C1651 1.390 1_545 S
C1649 H1653 0.950 . S
H1650 C1646 0.950 . S
C1651 C1649 1.390 1_565 S
C1651 C1652 1.387 . S
C1651 H1654 0.950 . S
C1652 C1651 1.387 . S
C1652 C1655 1.387 1_565 S
H1653 C1649 0.950 . S
H1654 C1651 0.950 . S
C1655 C1646 1.390 . S
C1655 H1648 0.950 . S
C1655 C1652 1.387 1_545 S
C1656 C1657 1.380 1_455 S
C1656 H1660 0.950 . S
C1656 C1665 1.390 . S
C1657 C1656 1.380 1_655 S
C1657 C1659 1.394 . S
H1658 C1665 0.950 . S
C1659 C1657 1.394 . S
C1659 C1661 1.390 . S
C1659 H1663 0.950 . S
H1660 C1656 0.950 . S
C1661 C1659 1.390 . S
C1661 C1662 1.387 1_655 S
C1661 H1664 0.950 . S
C1662 C1661 1.387 1_455 S
C1662 C1665 1.387 . S
H1663 C1659 0.950 . S
H1664 C1661 0.950 . S
C1665 C1656 1.390 . S
C1665 H1658 0.950 . S
C1665 C1662 1.387 . S
C1666 C1667 1.387 1_655 S
C1666 H1670 0.950 . S
C1666 C1675 1.390 . S
C1667 C1666 1.387 1_455 S
C1667 C1669 1.387 . S
H1668 C1675 0.950 . S
C1669 C1667 1.387 . S
C1669 C1671 1.390 . S
C1669 H1673 0.950 . S
H1670 C1666 0.950 . S
C1671 C1669 1.390 . S
C1671 C1672 1.387 1_455 S
C1671 H1674 0.950 . S
C1672 C1671 1.387 1_655 S
C1672 C1675 1.387 . S
H1673 C1669 0.950 . S
H1674 C1671 0.950 . S
C1675 C1666 1.390 . S
C1675 H1668 0.950 . S
C1675 C1672 1.387 . S
C1676 C1677 1.369 1_545 S
C1676 H1680 0.950 . S
C1676 C1685 1.390 . S
C1677 C1676 1.369 1_565 S
C1677 C1679 1.404 . S
H1678 C1685 0.950 . S
C1679 C1677 1.404 . S
C1679 C1681 1.390 . S
C1679 H1683 0.950 . S
H1680 C1676 0.950 . S
C1681 C1679 1.390 . S
C1681 C1682 1.387 1_565 S
C1681 H1684 0.950 . S
C1682 C1681 1.387 1_545 S
C1682 C1685 1.387 . S
H1683 C1679 0.950 . S
H1684 C1681 0.950 . S
C1685 C1676 1.390 . S
C1685 H1678 0.950 . S
C1685 C1682 1.387 . S
C1686 C1687 1.387 . S
C1686 H1690 0.950 . S
C1686 C1695 1.390 . S
C1687 C1686 1.387 . S
C1687 C1689 1.387 . S
H1688 C1695 0.950 . S
C1689 C1687 1.387 . S
C1689 C1691 1.390 . S
C1689 H1693 0.950 . S
H1690 C1686 0.950 . S
C1691 C1689 1.390 . S
C1691 C1692 1.387 . S
C1691 H1694 0.950 . S
C1692 C1691 1.387 . S
C1692 C1695 1.387 . S
H1693 C1689 0.950 . S
H1694 C1691 0.950 . S
C1695 C1686 1.390 . S
C1695 H1688 0.950 . S
C1695 C1692 1.387 . S
C1696 C1697 1.387 1_556 S
C1696 H1700 0.950 . S
C1696 C1705 1.390 . S
C1697 C1696 1.387 1_554 S
C1697 C1699 1.387 . S
H1698 C1705 0.950 . S
C1699 C1697 1.387 . S
C1699 C1701 1.390 . S
C1699 H1703 0.950 . S
H1700 C1696 0.950 . S
C1701 C1699 1.390 . S
C1701 C1702 1.368 1_554 S
C1701 H1704 0.950 . S
C1702 C1701 1.368 1_556 S
C1702 C1705 1.405 . S
H1703 C1699 0.950 . S
H1704 C1701 0.950 . S
C1705 C1696 1.390 . S
C1705 H1698 0.950 . S
C1705 C1702 1.405 . S
C1706 C1707 1.387 . S
C1706 H1710 0.950 . S
C1706 C1715 1.390 . S
C1707 C1706 1.387 . S
C1707 C1709 1.387 . S
H1708 C1715 0.950 . S
C1709 C1707 1.387 . S
C1709 C1711 1.390 . S
C1709 H1713 0.950 . S
H1710 C1706 0.950 . S
C1711 C1709 1.390 . S
C1711 C1712 1.387 . S
C1711 H1714 0.950 . S
C1712 C1711 1.387 . S
C1712 C1715 1.387 . S
H1713 C1709 0.950 . S
H1714 C1711 0.950 . S
C1715 C1706 1.390 . S
C1715 H1708 0.950 . S
C1715 C1712 1.387 . S
C1716 C1717 1.387 . S
C1716 H1720 0.950 . S
C1716 C1725 1.390 . S
C1717 C1716 1.387 . S
C1717 C1719 1.387 . S
H1718 C1725 0.950 . S
C1719 C1717 1.387 . S
C1719 C1721 1.390 . S
C1719 H1723 0.950 . S
H1720 C1716 0.950 . S
C1721 C1719 1.390 . S
C1721 C1722 1.387 . S
C1721 H1724 0.950 . S
C1722 C1721 1.387 . S
C1722 C1725 1.387 . S
H1723 C1719 0.950 . S
H1724 C1721 0.950 . S
C1725 C1716 1.390 . S
C1725 H1718 0.950 . S
C1725 C1722 1.387 . S
C1726 C1727 1.387 . S
C1726 H1730 0.950 . S
C1726 C1735 1.390 . S
C1727 C1726 1.387 . S
C1727 C1729 1.387 . S
H1728 C1735 0.950 . S
C1729 C1727 1.387 . S
C1729 C1731 1.390 . S
C1729 H1733 0.950 . S
H1730 C1726 0.950 . S
C1731 C1729 1.390 . S
C1731 C1732 1.387 . S
C1731 H1734 0.950 . S
C1732 C1731 1.387 . S
C1732 C1735 1.387 . S
H1733 C1729 0.950 . S
H1734 C1731 0.950 . S
C1735 C1726 1.390 . S
C1735 H1728 0.950 . S
C1735 C1732 1.387 . S
C1736 C1737 1.387 . S
C1736 H1740 0.950 . S
C1736 C1745 1.390 . S
C1737 C1736 1.387 . S
C1737 C1739 1.387 . S
H1738 C1745 0.950 . S
C1739 C1737 1.387 . S
C1739 C1741 1.390 . S
C1739 H1743 0.950 . S
H1740 C1736 0.950 . S
C1741 C1739 1.390 . S
C1741 C1742 1.387 . S
C1741 H1744 0.950 . S
C1742 C1741 1.387 . S
C1742 C1745 1.387 . S
H1743 C1739 0.950 . S
H1744 C1741 0.950 . S
C1745 C1736 1.390 . S
C1745 H1738 0.950 . S
C1745 C1742 1.387 . S
C1746 C1747 1.387 . S
C1746 H1750 0.950 . S
C1746 C1755 1.390 . S
C1747 C1746 1.387 . S
C1747 C1749 1.387 . S
H1748 C1755 0.950 . S
C1749 C1747 1.387 . S
C1749 C1751 1.390 . S
C1749 H1753 0.950 . S
H1750 C1746 0.950 . S
C1751 C1749 1.390 . S
C1751 C1752 1.387 . S
C1751 H1754 0.950 . S
C1752 C1751 1.387 . S
C1752 C1755 1.387 . S
H1753 C1749 0.950 . S
H1754 C1751 0.950 . S
C1755 C1746 1.390 . S
C1755 H1748 0.950 . S
C1755 C1752 1.387 . S
C1756 C1757 1.387 . S
C1756 H1760 0.950 . S
C1756 C1765 1.390 . S
C1757 C1756 1.387 . S
C1757 C1759 1.387 1_545 S
H1758 C1765 0.950 . S
C1759 C1757 1.387 1_565 S
C1759 C1761 1.390 . S
C1759 H1763 0.950 . S
H1760 C1756 0.950 . S
C1761 C1759 1.390 . S
C1761 C1762 1.387 . S
C1761 H1764 0.950 . S
C1762 C1761 1.387 . S
C1762 C1765 1.387 1_565 S
H1763 C1759 0.950 . S
H1764 C1761 0.950 . S
C1765 C1756 1.390 . S
C1765 H1758 0.950 . S
C1765 C1762 1.387 1_545 S
C1766 C1767 1.387 . S
C1766 H1770 0.950 . S
C1766 C1775 1.390 . S
C1767 C1766 1.387 . S
C1767 C1769 1.387 1_556 S
H1768 C1775 0.950 . S
C1769 C1767 1.387 1_554 S
C1769 C1771 1.390 . S
C1769 H1773 0.950 . S
H1770 C1766 0.950 . S
C1771 C1769 1.390 . S
C1771 C1772 1.387 . S
C1771 H1774 0.950 . S
C1772 C1771 1.387 . S
C1772 C1775 1.387 1_554 S
H1773 C1769 0.950 . S
H1774 C1771 0.950 . S
C1775 C1766 1.390 . S
C1775 H1768 0.950 . S
C1775 C1772 1.387 1_556 S
C1776 C1777 1.387 1_455 S
C1776 H1780 0.950 . S
C1776 C1785 1.390 . S
C1777 C1776 1.387 1_655 S
C1777 C1779 1.387 . S
H1778 C1785 0.950 . S
C1779 C1777 1.387 . S
C1779 C1781 1.390 1_565 S
C1779 H1783 0.950 . S
H1780 C1776 0.950 . S
C1781 C1779 1.390 1_545 S
C1781 C1782 1.387 . S
C1781 H1784 0.950 . S
C1782 C1781 1.387 . S
C1782 C1785 1.387 1_645 S
H1783 C1779 0.950 . S
H1784 C1781 0.950 . S
C1785 C1776 1.390 . S
C1785 H1778 0.950 . S
C1785 C1782 1.387 1_465 S
C1786 C1787 1.387 1_655 S
C1786 H1790 0.950 . S
C1786 C1795 1.390 . S
C1787 C1786 1.387 1_455 S
C1787 C1789 1.387 . S
H1788 C1795 0.950 . S
C1789 C1787 1.387 . S
C1789 C1791 1.390 . S
C1789 H1793 0.950 . S
H1790 C1786 0.950 . S
C1791 C1789 1.390 . S
C1791 C1792 1.387 . S
C1791 H1794 0.950 . S
C1792 C1791 1.387 . S
C1792 C1795 1.387 1_455 S
H1793 C1789 0.950 . S
H1794 C1791 0.950 . S
C1795 C1786 1.390 . S
C1795 H1788 0.950 . S
C1795 C1792 1.387 1_655 S
C1796 C1797 1.387 . S
C1796 H1800 0.950 . S
C1796 C1805 1.390 1_556 S
C1797 C1796 1.387 . S
C1797 C1799 1.387 1_565 S
H1798 C1805 0.950 . S
C1799 C1797 1.387 1_545 S
C1799 C1801 1.390 1_556 S
C1799 H1803 0.950 . S
H1800 C1796 0.950 . S
C1801 C1799 1.390 1_554 S
C1801 C1802 1.387 1_545 S
C1801 H1804 0.950 . S
C1802 C1801 1.387 1_565 S
C1802 C1805 1.387 . S
H1803 C1799 0.950 . S
H1804 C1801 0.950 . S
C1805 C1796 1.390 1_554 S
C1805 H1798 0.950 . S
C1805 C1802 1.387 . S
C1806 C1807 1.387 . S
C1806 H1810 0.950 . S
C1806 C1815 1.390 1_554 S
C1807 C1806 1.387 . S
C1807 C1809 1.387 . S
H1808 C1815 0.950 . S
C1809 C1807 1.387 . S
C1809 C1811 1.390 1_554 S
C1809 H1813 0.950 . S
H1810 C1806 0.950 . S
C1811 C1809 1.390 1_556 S
C1811 C1812 1.387 . S
C1811 H1814 0.950 . S
C1812 C1811 1.387 . S
C1812 C1815 1.387 . S
H1813 C1809 0.950 . S
H1814 C1811 0.950 . S
C1815 C1806 1.390 1_556 S
C1815 H1808 0.950 . S
C1815 C1812 1.387 . S
C1816 C1817 1.387 . S
C1816 H1820 0.950 . S
C1816 C1825 1.390 . S
C1817 C1816 1.387 . S
C1817 C1819 1.387 1_545 S
H1818 C1825 0.950 . S
C1819 C1817 1.387 1_565 S
C1819 C1821 1.390 . S
C1819 H1823 0.950 . S
H1820 C1816 0.950 . S
C1821 C1819 1.390 . S
C1821 C1822 1.387 1_565 S
C1821 H1824 0.950 . S
C1822 C1821 1.387 1_545 S
C1822 C1825 1.387 . S
H1823 C1819 0.950 . S
H1824 C1821 0.950 . S
C1825 C1816 1.390 . S
C1825 H1818 0.950 . S
C1825 C1822 1.387 . S
C1826 C1827 1.387 . S
C1826 H1830 0.950 . S
C1826 C1835 1.390 . S
C1827 C1826 1.387 . S
C1827 C1829 1.387 . S
H1828 C1835 0.950 . S
C1829 C1827 1.387 . S
C1829 C1831 1.390 . S
C1829 H1833 0.950 . S
H1830 C1826 0.950 . S
C1831 C1829 1.390 . S
C1831 C1832 1.387 . S
C1831 H1834 0.950 . S
C1832 C1831 1.387 . S
C1832 C1835 1.387 . S
H1833 C1829 0.950 . S
H1834 C1831 0.950 . S
C1835 C1826 1.390 . S
C1835 H1828 0.950 . S
C1835 C1832 1.387 . S
C1836 C1837 1.387 1_554 S
C1836 H1840 0.950 . S
C1836 C1845 1.390 1_455 S
C1837 C1836 1.387 1_556 S
C1837 C1839 1.387 . S
H1838 C1845 0.950 . S
C1839 C1837 1.387 . S
C1839 C1841 1.390 1_455 S
C1839 H1843 0.950 . S
H1840 C1836 0.950 . S
C1841 C1839 1.390 1_655 S
C1841 C1842 1.387 . S
C1841 H1844 0.950 . S
C1842 C1841 1.387 . S
C1842 C1845 1.387 1_556 S
H1843 C1839 0.950 . S
H1844 C1841 0.950 . S
C1845 C1836 1.390 1_655 S
C1845 H1838 0.950 . S
C1845 C1842 1.387 1_554 S
C1846 C1847 1.387 . S
C1846 H1850 0.950 . S
C1846 C1855 1.390 1_455 S
C1847 C1846 1.387 . S
C1847 C1849 1.387 . S
H1848 C1855 0.950 . S
C1849 C1847 1.387 . S
C1849 C1851 1.390 1_455 S
C1849 H1853 0.950 . S
H1850 C1846 0.950 . S
C1851 C1849 1.390 1_655 S
C1851 C1852 1.387 . S
C1851 H1854 0.950 . S
C1852 C1851 1.387 . S
C1852 C1855 1.387 . S
H1853 C1849 0.950 . S
H1854 C1851 0.950 . S
C1855 C1846 1.390 1_655 S
C1855 H1848 0.950 . S
C1855 C1852 1.387 . S
C1856 C1857 1.387 . S
C1856 H1860 0.950 . S
C1856 C1865 1.390 . S
C1857 C1856 1.387 . S
C1857 C1859 1.387 . S
H1858 C1865 0.950 . S
C1859 C1857 1.387 . S
C1859 C1861 1.390 . S
C1859 H1863 0.950 . S
H1860 C1856 0.950 . S
C1861 C1859 1.390 . S
C1861 C1862 1.387 . S
C1861 H1864 0.950 . S
C1862 C1861 1.387 . S
C1862 C1865 1.387 . S
H1863 C1859 0.950 . S
H1864 C1861 0.950 . S
C1865 C1856 1.390 . S
C1865 H1858 0.950 . S
C1865 C1862 1.387 . S
C1866 C1867 1.387 . S
C1866 H1870 0.950 . S
C1866 C1875 1.390 . S
C1867 C1866 1.387 . S
C1867 C1869 1.387 . S
H1868 C1875 0.950 . S
C1869 C1867 1.387 . S
C1869 C1871 1.390 . S
C1869 H1873 0.950 . S
H1870 C1866 0.950 . S
C1871 C1869 1.390 . S
C1871 C1872 1.387 . S
C1871 H1874 0.950 . S
C1872 C1871 1.387 . S
C1872 C1875 1.387 . S
H1873 C1869 0.950 . S
H1874 C1871 0.950 . S
C1875 C1866 1.390 . S
C1875 H1868 0.950 . S
C1875 C1872 1.387 . S
C1876 C1877 1.387 . S
C1876 H1880 0.950 . S
C1876 C1885 1.390 1_565 S
C1877 C1876 1.387 . S
C1877 C1879 1.387 . S
H1878 C1885 0.950 . S
C1879 C1877 1.387 . S
C1879 C1881 1.390 1_565 S
C1879 H1883 0.950 . S
H1880 C1876 0.950 . S
C1881 C1879 1.390 1_545 S
C1881 C1882 1.387 . S
C1881 H1884 0.950 . S
C1882 C1881 1.387 . S
C1882 C1885 1.387 . S
H1883 C1879 0.950 . S
H1884 C1881 0.950 . S
C1885 C1876 1.390 1_545 S
C1885 H1878 0.950 . S
C1885 C1882 1.387 . S
C1886 C1887 1.387 1_556 S
C1886 H1890 0.950 . S
C1886 C1895 1.390 . S
C1887 C1886 1.387 1_554 S
C1887 C1889 1.387 . S
H1888 C1895 0.950 . S
C1889 C1887 1.387 . S
C1889 C1891 1.390 . S
C1889 H1893 0.950 . S
H1890 C1886 0.950 . S
C1891 C1889 1.390 . S
C1891 C1892 1.387 . S
C1891 H1894 0.950 . S
C1892 C1891 1.387 . S
C1892 C1895 1.387 1_554 S
H1893 C1889 0.950 . S
H1894 C1891 0.950 . S
C1895 C1886 1.390 . S
C1895 H1888 0.950 . S
C1895 C1892 1.387 1_556 S
C1417 C1055 0.925 . S
C1422 C33 0.912 . S
C1427 C92 1.001 . S
C1432 C996 0.966 . S
C1437 C151 1.092 . S
C1442 C1173 1.101 . S
C1447 C210 1.178 . S
C1452 C1114 1.127 . S
C1457 C269 0.916 . S
C1462 C1291 0.923 . S
C1467 C328 1.114 . S
C1472 C1350 1.118 . S
C1477 C1232 0.969 . S
C1482 C387 1.001 . S
C1487 C701 1.125 . S
C1492 C446 1.173 . S
C1497 C505 0.917 . S
C1502 C229 0.924 . S
C1507 C111 1.115 . S
C1512 C564 1.116 . S
C1517 C623 1.285 . S
C1522 C52 1.287 . S
C1527 C682 1.172 . S
C1532 C878 1.123 . S
C1537 C347 1.288 . S
C1542 C741 1.347 . S
C1547 C288 1.284 . S
C1552 C800 1.286 . S
C1557 C859 1.173 . S
C1562 C465 1.125 . S
C1567 C918 1.114 . S
C1572 C406 1.118 . S
C1577 C583 1.289 . S
C1582 C977 1.347 . S
C1587 C642 1.130 . S
C1592 C1036 1.176 . S
C1597 C524 1.285 . S
C1602 C1095 1.285 . S
C1607 C1154 1.091 . S
C1612 C1409 1.101 . S
C1617 C937 1.289 . S
C1622 C1213 1.347 . S
C1627 C1272 1.180 . S
C1632 C819 1.129 . S
C1637 C760 0.969 . S
C1642 C1331 0.999 . S
C1647 C1390 1.089 . S
C1652 C170 1.102 . S
C1657 C5 1.714 . S
C1662 C64 1.696 . S
C1667 C182 1.609 . S
C1672 C123 1.625 . S
C1677 C241 1.713 . S
C1682 C359 1.696 . S
C1687 C300 1.980 . S
C1692 C418 1.954 . S
C1697 C1303 1.695 . S
C1702 C477 1.713 . S
C1707 C536 1.980 . S
C1712 C654 1.954 . S
C1717 C1185 1.903 . S
C1722 C595 1.928 . S
C1727 C772 1.931 . S
C1732 C713 1.906 . S
C1737 C831 1.956 . S
C1742 C890 1.983 . S
C1747 C1067 1.930 . S
C1752 C949 1.906 . S
C1757 C1008 1.610 . S
C1762 C1126 1.626 . S
C1767 C1362 1.625 . S
C1772 C1244 1.609 . S
C1777 C121 1.354 . S
C1782 C3 1.361 . S
C1787 C62 1.589 . S
C1792 C180 1.580 . S
C1797 C1124 1.351 . S
C1802 C239 1.357 . S
C1807 C298 1.541 . S
C1812 C1065 1.537 . S
C1817 C357 1.585 . S
C1822 C1006 1.575 . S
C1827 C947 1.758 . S
C1832 C416 1.765 . S
C1837 C475 1.362 . S
C1842 C1360 1.356 . S
C1847 C534 1.537 . S
C1852 C593 1.532 . S
C1857 C1183 1.754 . S
C1862 C652 1.761 . S
C1867 C711 1.754 . S
C1872 C829 1.761 . S
C1877 C770 1.532 . S
C1882 C888 1.537 . S
C1887 C1301 1.589 . S
C1892 C1242 1.580 . S
