# Generated by pormake.
# Topology ume, (4)-cn, num edge types: 1
# Building blocks:
#     Node 0, Type 0, BuildingBlock: MUDLON_clean_sbu_0, # of connection points: 4
#     Node 1, Type 0, BuildingBlock: MUDLON_clean_sbu_0, # of connection points: 4
#     Node 2, Type 0, BuildingBlock: MUDLON_clean_sbu_0, # of connection points: 4
#     Node 3, Type 0, BuildingBlock: MUDLON_clean_sbu_0, # of connection points: 4
#     Node 4, Type 0, BuildingBlock: MUDLON_clean_sbu_0, # of connection points: 4
#     Node 5, Type 0, BuildingBlock: MUDLON_clean_sbu_0, # of connection points: 4
#     Node 6, Type 0, BuildingBlock: MUDLON_clean_sbu_0, # of connection points: 4
#     Node 7, Type 0, BuildingBlock: MUDLON_clean_sbu_0, # of connection points: 4
#     Node 8, Type 0, BuildingBlock: MUDLON_clean_sbu_0, # of connection points: 4
#     Node 9, Type 0, BuildingBlock: MUDLON_clean_sbu_0, # of connection points: 4
#     Node 10, Type 0, BuildingBlock: MUDLON_clean_sbu_0, # of connection points: 4
#     Node 11, Type 0, BuildingBlock: MUDLON_clean_sbu_0, # of connection points: 4
#     Node 12, Type 0, BuildingBlock: MUDLON_clean_sbu_0, # of connection points: 4
#     Node 13, Type 0, BuildingBlock: MUDLON_clean_sbu_0, # of connection points: 4
#     Node 14, Type 0, BuildingBlock: MUDLON_clean_sbu_0, # of connection points: 4
#     Node 15, Type 0, BuildingBlock: MUDLON_clean_sbu_0, # of connection points: 4
#     Edge 16, Type (0, 0), BuildingBlock: AJUNOK_clean_linker_0, # of connection points: 2
#     Edge 17, Type (0, 0), BuildingBlock: AJUNOK_clean_linker_0, # of connection points: 2
#     Edge 18, Type (0, 0), BuildingBlock: AJUNOK_clean_linker_0, # of connection points: 2
#     Edge 19, Type (0, 0), BuildingBlock: AJUNOK_clean_linker_0, # of connection points: 2
#     Edge 20, Type (0, 0), BuildingBlock: AJUNOK_clean_linker_0, # of connection points: 2
#     Edge 21, Type (0, 0), BuildingBlock: AJUNOK_clean_linker_0, # of connection points: 2
#     Edge 22, Type (0, 0), BuildingBlock: AJUNOK_clean_linker_0, # of connection points: 2
#     Edge 23, Type (0, 0), BuildingBlock: AJUNOK_clean_linker_0, # of connection points: 2
#     Edge 24, Type (0, 0), BuildingBlock: AJUNOK_clean_linker_0, # of connection points: 2
#     Edge 25, Type (0, 0), BuildingBlock: AJUNOK_clean_linker_0, # of connection points: 2
#     Edge 26, Type (0, 0), BuildingBlock: AJUNOK_clean_linker_0, # of connection points: 2
#     Edge 27, Type (0, 0), BuildingBlock: AJUNOK_clean_linker_0, # of connection points: 2
#     Edge 28, Type (0, 0), BuildingBlock: AJUNOK_clean_linker_0, # of connection points: 2
#     Edge 29, Type (0, 0), BuildingBlock: AJUNOK_clean_linker_0, # of connection points: 2
#     Edge 30, Type (0, 0), BuildingBlock: AJUNOK_clean_linker_0, # of connection points: 2
#     Edge 31, Type (0, 0), BuildingBlock: AJUNOK_clean_linker_0, # of connection points: 2
#     Edge 32, Type (0, 0), BuildingBlock: AJUNOK_clean_linker_0, # of connection points: 2
#     Edge 33, Type (0, 0), BuildingBlock: AJUNOK_clean_linker_0, # of connection points: 2
#     Edge 34, Type (0, 0), BuildingBlock: AJUNOK_clean_linker_0, # of connection points: 2
#     Edge 35, Type (0, 0), BuildingBlock: AJUNOK_clean_linker_0, # of connection points: 2
#     Edge 36, Type (0, 0), BuildingBlock: AJUNOK_clean_linker_0, # of connection points: 2
#     Edge 37, Type (0, 0), BuildingBlock: AJUNOK_clean_linker_0, # of connection points: 2
#     Edge 38, Type (0, 0), BuildingBlock: AJUNOK_clean_linker_0, # of connection points: 2
#     Edge 39, Type (0, 0), BuildingBlock: AJUNOK_clean_linker_0, # of connection points: 2
#     Edge 40, Type (0, 0), BuildingBlock: AJUNOK_clean_linker_0, # of connection points: 2
#     Edge 41, Type (0, 0), BuildingBlock: AJUNOK_clean_linker_0, # of connection points: 2
#     Edge 42, Type (0, 0), BuildingBlock: AJUNOK_clean_linker_0, # of connection points: 2
#     Edge 43, Type (0, 0), BuildingBlock: AJUNOK_clean_linker_0, # of connection points: 2
#     Edge 44, Type (0, 0), BuildingBlock: AJUNOK_clean_linker_0, # of connection points: 2
#     Edge 45, Type (0, 0), BuildingBlock: AJUNOK_clean_linker_0, # of connection points: 2
#     Edge 46, Type (0, 0), BuildingBlock: AJUNOK_clean_linker_0, # of connection points: 2
#     Edge 47, Type (0, 0), BuildingBlock: AJUNOK_clean_linker_0, # of connection points: 2
# Relax obj value: 0.086
# Max RMSD: 0.263
# Mean RMSD: 0.263
data_MOF--net-ume--node1-MUDLON_clean_sbu_0--edge1-AJUNOK_clean_linker_0
_symmetry_space_group_name_H-M    P1
_symmetry_Int_Tables_number       1
_symmetry_cell_setting            triclinic
loop_
_symmetry_equiv_pos_as_xyz
'x, y, z'
_cell_length_a     21.333706
_cell_length_b     21.684019
_cell_length_c     86.189121
_cell_angle_alpha  90.153253
_cell_angle_beta   89.758508
_cell_angle_gamma 90.037248
loop_
_atom_site_label
_atom_site_type_symbol
_atom_site_fract_x
_atom_site_fract_y
_atom_site_fract_z
_atom_type_partial_charge
Mg0 Mg 0.24004 0.11997 0.33635 0.0
C1 C 0.37241 0.08359 0.33308 0.0
O2 O 0.37362 0.14403 0.3341 0.0
C3 C 0.12484 0.03171 0.33858 0.0
O4 O 0.16438 0.99319 0.34503 0.0
C5 C 0.22634 0.17561 0.30532 0.0
O6 O 0.18691 0.12909 0.30485 0.0
O7 O 0.2539 0.18735 0.31806 0.0
O8 O 0.31918 0.05671 0.3332 0.0
O9 O 0.24973 0.15245 0.3602 0.0
C10 C 0.26564 0.10834 0.36905 0.0
O11 O 0.27138 0.05291 0.36303 0.0
O12 O 0.14481 0.08375 0.33393 0.0
Mg13 Mg 0.92498 0.75687 0.59086 0.0
C14 C 0.8806 0.78797 0.62362 0.0
O15 O 0.90169 0.84275 0.61974 0.0
C16 C 0.88022 0.74831 0.55838 0.0
O17 O 0.93563 0.72216 0.55747 0.0
C18 C 0.94994 0.623 0.58678 0.0
O19 O 0.88852 0.62444 0.58785 0.0
O20 O 0.97987 0.6737 0.58741 0.0
O21 O 0.88085 0.74532 0.61347 0.0
O22 O 0.98365 0.83908 0.59077 0.0
C23 C 0.95787 0.89086 0.58807 0.0
O24 O 0.89711 0.89241 0.58566 0.0
O25 O 0.86056 0.76621 0.5716 0.0
Mg26 Mg 0.26733 0.40524 0.84001 0.0
C27 C 0.1326 0.44088 0.84387 0.0
O28 O 0.13521 0.39315 0.85317 0.0
C29 C 0.40358 0.44093 0.83761 0.0
O30 O 0.409 0.38063 0.83832 0.0
C31 C 0.28459 0.3539 0.80854 0.0
O32 O 0.3096 0.40908 0.80739 0.0
O33 O 0.26557 0.33603 0.8218 0.0
O34 O 0.18165 0.45801 0.83663 0.0
O35 O 0.26494 0.37327 0.86397 0.0
C36 C 0.25273 0.41789 0.8731 0.0
O37 O 0.24677 0.47339 0.8672 0.0
O38 O 0.34901 0.46444 0.83771 0.0
Mg39 Mg 0.60375 0.7697 0.08814 0.0
C40 C 0.66516 0.74193 0.11929 0.0
O41 O 0.64697 0.68562 0.11593 0.0
C42 C 0.71317 0.74786 0.0653 0.0
O43 O 0.74415 0.73184 0.07781 0.0
C44 C 0.57413 0.90169 0.08575 0.0
O45 O 0.63566 0.90033 0.08521 0.0
O46 O 0.54474 0.85078 0.08677 0.0
O47 O 0.65763 0.78407 0.10925 0.0
O48 O 0.54957 0.6846 0.0898 0.0
C49 C 0.57739 0.6338 0.08702 0.0
O50 O 0.63699 0.63511 0.08315 0.0
O51 O 0.65688 0.76606 0.06666 0.0
Mg52 Mg 0.27625 0.40687 0.97237 0.0
C53 C 0.40041 0.45648 0.96118 0.0
O54 O 0.38465 0.42229 0.94923 0.0
C55 C 0.14096 0.4353 0.97669 0.0
O56 O 0.14055 0.37528 0.97458 0.0
C57 C 0.26184 0.3564 1.00403 0.0
O58 O 0.23336 0.40993 1.00503 0.0
O59 O 0.28369 0.33957 0.99092 0.0
O60 O 0.36326 0.45998 0.97274 0.0
O61 O 0.26411 0.37209 0.94878 0.0
C62 C 0.24235 0.41408 0.94004 0.0
O63 O 0.23065 0.4684 0.94616 0.0
O64 O 0.19348 0.46315 0.97682 0.0
Mg65 Mg 0.6272 0.76704 0.21695 0.0
C66 C 0.67523 0.801 0.1847 0.0
O67 O 0.65588 0.85591 0.18902 0.0
C68 C 0.66389 0.75988 0.24983 0.0
O69 O 0.60698 0.73669 0.24981 0.0
C70 C 0.60298 0.6332 0.22091 0.0
O71 O 0.6645 0.63541 0.22054 0.0
O72 O 0.57258 0.68342 0.21977 0.0
O73 O 0.67297 0.75713 0.19445 0.0
O74 O 0.56814 0.84885 0.21723 0.0
C75 C 0.59374 0.90032 0.22045 0.0
O76 O 0.65429 0.90158 0.22317 0.0
O77 O 0.68833 0.77532 0.23692 0.0
Mg78 Mg 0.27126 0.12396 0.46876 0.0
C79 C 0.14118 0.08034 0.47113 0.0
O80 O 0.1365 0.14033 0.46934 0.0
C81 C 0.39224 0.04365 0.47557 0.0
O82 O 0.35652 1.00635 0.48372 0.0
C83 C 0.28087 0.17857 0.50015 0.0
O84 O 0.31785 0.13033 0.501 0.0
O85 O 0.25609 0.1912 0.48713 0.0
O86 O 0.19586 0.0567 0.47154 0.0
O87 O 0.26311 0.15558 0.44491 0.0
C88 C 0.28222 0.11244 0.43604 0.0
O89 O 0.2989 0.06002 0.44242 0.0
O90 O 0.36823 0.0912 0.4694 0.0
Mg91 Mg 0.92287 0.76314 0.72187 0.0
C92 C 0.87444 0.73282 0.68942 0.0
O93 O 0.88485 0.67609 0.69402 0.0
C94 C 0.86796 0.77375 0.75382 0.0
O95 O 0.92065 0.80435 0.75556 0.0
C96 C 0.95367 0.89702 0.72566 0.0
O97 O 0.89281 0.89943 0.72345 0.0
O98 O 0.98009 0.84447 0.72599 0.0
O99 O 0.8828 0.77682 0.69898 0.0
O100 O 0.98017 0.67988 0.72171 0.0
C101 C 0.95469 0.62784 0.72438 0.0
O102 O 0.89411 0.62587 0.72716 0.0
O103 O 0.8544 0.75309 0.74042 0.0
Mg104 Mg 0.76917 0.6181 0.84049 0.0
C105 C 0.90275 0.58223 0.84347 0.0
O106 O 0.90042 0.63289 0.85183 0.0
C107 C 0.6319 0.58963 0.83899 0.0
O108 O 0.63077 0.64935 0.84158 0.0
C109 C 0.75463 0.67233 0.80933 0.0
O110 O 0.7264 0.61876 0.80795 0.0
O111 O 0.77472 0.68825 0.82263 0.0
O112 O 0.85319 0.56294 0.83688 0.0
O113 O 0.77326 0.64882 0.86461 0.0
C114 C 0.78697 0.60411 0.8735 0.0
O115 O 0.79263 0.54877 0.8674 0.0
O116 O 0.68479 0.56301 0.83777 0.0
Mg117 Mg 0.40663 0.26751 0.09351 0.0
C118 C 0.35929 0.29951 0.126 0.0
O119 O 0.37444 0.35545 0.12155 0.0
C120 C 0.35994 0.25649 0.06116 0.0
O121 O 0.41437 0.2284 0.06021 0.0
C122 C 0.43656 0.13373 0.08998 0.0
O123 O 0.37565 0.13181 0.09226 0.0
O124 O 0.46362 0.18599 0.08976 0.0
O125 O 0.36415 0.25548 0.11629 0.0
O126 O 0.46412 0.35053 0.09322 0.0
C127 C 0.43828 0.40207 0.09029 0.0
O128 O 0.37757 0.40337 0.08778 0.0
O129 O 0.34153 0.27584 0.07436 0.0
Mg130 Mg 0.73508 0.89952 0.34081 0.0
C131 C 0.60515 0.94218 0.33755 0.0
O132 O 0.60069 0.88228 0.33958 0.0
C133 C 0.85513 0.98218 0.33576 0.0
O134 O 0.81746 0.02366 0.32979 0.0
C135 C 0.7548 0.84955 0.30907 0.0
O136 O 0.79241 0.8975 0.30923 0.0
O137 O 0.72529 0.8359 0.32146 0.0
O138 O 0.65969 0.96636 0.33748 0.0
O139 O 0.71734 0.85975 0.36358 0.0
C140 C 0.76254 0.84691 0.37259 0.0
O141 O 0.8201 0.85126 0.36722 0.0
O142 O 0.83222 0.93206 0.34089 0.0
Mg143 Mg 0.12166 0.25885 0.58972 0.0
C144 C 0.16927 0.22933 0.6222 0.0
O145 O 0.15463 0.17304 0.61789 0.0
C146 C 0.16777 0.2689 0.55715 0.0
O147 O 0.11134 0.2927 0.55609 0.0
C148 C 0.08883 0.39125 0.58625 0.0
O149 O 0.1501 0.39355 0.58769 0.0
O150 O 0.06219 0.33878 0.58635 0.0
O151 O 0.16401 0.27282 0.61241 0.0
O152 O 0.06766 0.17356 0.58984 0.0
C153 C 0.09642 0.12328 0.58706 0.0
O154 O 0.15682 0.1254 0.58408 0.0
O155 O 0.18728 0.25245 0.57044 0.0
Mg156 Mg 0.77477 0.90233 0.47082 0.0
C157 C 0.90867 0.93687 0.4729 0.0
O158 O 0.90946 0.87629 0.47277 0.0
C159 C 0.65645 0.98115 0.46583 0.0
O160 O 0.68681 0.99818 0.45326 0.0
C161 C 0.77061 0.84871 0.50242 0.0
O162 O 0.73714 0.89912 0.50415 0.0
O163 O 0.79067 0.83499 0.48893 0.0
O164 O 0.85569 0.96397 0.47229 0.0
O165 O 0.77801 0.86404 0.44745 0.0
C166 C 0.72934 0.8516 0.43956 0.0
O167 O 0.67406 0.85666 0.4462 0.0
O168 O 0.68302 0.94422 0.47516 0.0
Mg169 Mg 0.12167 0.26107 0.72092 0.0
C170 C 0.16602 0.2888 0.68787 0.0
O171 O 0.14937 0.3451 0.69173 0.0
C172 C 0.1761 0.25072 0.75279 0.0
O173 O 0.12332 0.22027 0.75459 0.0
C174 C 0.09437 0.12796 0.72535 0.0
O175 O 0.15556 0.12845 0.72358 0.0
O176 O 0.06528 0.17917 0.72509 0.0
O177 O 0.16276 0.24657 0.69804 0.0
O178 O 0.06601 0.34548 0.72104 0.0
C179 C 0.09468 0.39614 0.72343 0.0
O180 O 0.15548 0.39461 0.72574 0.0
O181 O 0.19001 0.27094 0.73937 0.0
Mg182 Mg 0.77388 0.6113 0.97293 0.0
C183 C 0.64588 0.57349 0.96239 0.0
O184 O 0.65996 0.61593 0.95212 0.0
C185 C 0.90848 0.57657 0.97574 0.0
O186 O 0.91196 0.63591 0.97278 0.0
C187 C 0.79293 0.6605 1.00481 0.0
O188 O 0.82515 0.60895 1.00508 0.0
O189 O 0.76771 0.67681 0.9921 0.0
O190 O 0.68553 0.56051 0.97288 0.0
O191 O 0.78613 0.64731 0.94946 0.0
C192 C 0.80568 0.6054 0.94027 0.0
O193 O 0.81658 0.55032 0.94596 0.0
O194 O 0.85455 0.55186 0.97685 0.0
Mg195 Mg 0.43128 0.26874 0.22261 0.0
C196 C 0.37087 0.24092 0.19138 0.0
O197 O 0.38937 0.18478 0.19472 0.0
C198 C 0.32022 0.25329 0.24526 0.0
O199 O 0.28823 0.24056 0.23265 0.0
C200 C 0.46586 0.40044 0.22343 0.0
O201 O 0.40443 0.40214 0.22245 0.0
O202 O 0.49266 0.34812 0.22396 0.0
O203 O 0.3779 0.28318 0.20147 0.0
O204 O 0.48384 0.18281 0.22109 0.0
C205 C 0.45547 0.13229 0.22381 0.0
O206 O 0.39577 0.13405 0.22758 0.0
O207 O 0.37784 0.26705 0.24403 0.0
C208 C 0.94901 0.05108 0.33239 0.0
C209 C 0.92419 0.993 0.33632 0.0
C210 C 1.01373 0.06273 0.33297 0.0
C211 C 0.05668 0.01684 0.33751 0.0
H212 H 0.91823 0.08827 0.32895 0.0
H213 H 0.03 0.10853 0.32998 0.0
S214 S 1.01658 0.85562 0.34813 0.0
N215 N 0.94841 0.88807 0.34435 0.0
N216 N 0.06959 0.91005 0.34544 0.0
C217 C 0.03266 0.9582 0.34123 0.0
C218 C 0.96669 0.94629 0.34064 0.0
C219 C 0.04978 0.56224 0.58628 0.0
C220 C 0.98389 0.56325 0.58569 0.0
C221 C 0.08303 0.50654 0.58616 0.0
C222 C 0.05192 0.44929 0.58543 0.0
H223 H 0.07615 0.60483 0.5871 0.0
H224 H 0.13366 0.5086 0.58687 0.0
S225 S 0.87977 0.42622 0.58275 0.0
N226 N 0.88868 0.50175 0.58366 0.0
N227 N 0.95119 0.39721 0.58343 0.0
C228 C 0.98607 0.44954 0.58443 0.0
C229 C 0.9521 0.50639 0.58457 0.0
C230 C 0.57506 0.48888 0.83641 0.0
C231 C 0.57271 0.55347 0.83805 0.0
C232 C 0.52022 0.45324 0.83608 0.0
C233 C 0.46054 0.48054 0.83732 0.0
H234 H 0.61968 0.46532 0.83555 0.0
H235 H 0.52491 0.40368 0.83496 0.0
S236 S 0.42806 0.64815 0.84136 0.0
N237 N 0.50521 0.64349 0.84058 0.0
N238 N 0.40238 0.57657 0.83994 0.0
C239 C 0.45733 0.54521 0.8387 0.0
C240 C 0.51328 0.58157 0.83907 0.0
C241 C 0.44187 0.01836 0.08944 0.0
C242 C 0.47277 0.07557 0.08819 0.0
C243 C 0.47478 0.96257 0.08838 0.0
C244 C 0.54007 0.96149 0.08603 0.0
H245 H 0.39177 0.0164 0.09145 0.0
H246 H 0.44873 0.91996 0.08964 0.0
S247 S 0.6431 0.0985 0.08116 0.0
N248 N 0.57244 0.12758 0.08388 0.0
N249 N 0.63426 0.02296 0.08188 0.0
C250 C 0.5715 0.01836 0.08443 0.0
C251 C 0.53792 0.07525 0.08551 0.0
C252 C 0.08152 0.5348 0.97595 0.0
C253 C 0.08119 0.47029 0.97762 0.0
C254 C 0.02555 0.56858 0.97563 0.0
C255 C 0.96678 0.53941 0.97702 0.0
H256 H 0.1253 0.55949 0.97452 0.0
H257 H 0.02862 0.61803 0.97404 0.0
S258 S 0.94012 0.37171 0.98276 0.0
N259 N 1.01701 0.3787 0.98149 0.0
N260 N 0.91196 0.44216 0.9809 0.0
C261 C 0.96577 0.47506 0.97915 0.0
C262 C 0.02287 0.44058 0.97944 0.0
C263 C 0.47096 0.51553 0.22194 0.0
C264 C 0.50247 0.45878 0.22337 0.0
C265 C 0.50376 0.57145 0.22135 0.0
C266 C 0.56959 0.57319 0.22214 0.0
H267 H 0.42034 0.51701 0.22113 0.0
H268 H 0.47707 0.61362 0.2201 0.0
S269 S 0.6747 0.43772 0.22651 0.0
N270 N 0.60353 0.40796 0.22598 0.0
N271 N 0.66524 0.51295 0.22487 0.0
C272 C 0.60181 0.51685 0.2238 0.0
C273 C 0.5683 0.45977 0.22441 0.0
C274 C 0.49045 0.98592 0.48245 0.0
C275 C 0.46008 0.02995 0.47316 0.0
C276 C 0.55409 0.97155 0.48021 0.0
C277 C 0.59005 1.00013 0.46849 0.0
H278 H 0.46494 0.96221 0.49154 0.0
H279 H 0.57488 0.93693 0.48762 0.0
S280 S 0.53298 0.11887 0.44096 0.0
N281 N 0.47125 0.10236 0.45177 0.0
N282 N 0.59025 0.07524 0.44757 0.0
C283 C 0.56036 0.04458 0.45918 0.0
C284 C 0.49566 0.0595 0.46152 0.0
C285 C 0.99385 0.06797 0.72572 0.0
C286 C 0.05969 0.06861 0.72658 0.0
C287 C 0.96016 0.01241 0.72577 0.0
C288 C 0.99078 0.95501 0.72673 0.0
H289 H 0.96792 0.11067 0.72467 0.0
H290 H 0.90963 0.0147 0.72478 0.0
S291 S 0.1625 0.93118 0.73039 0.0
N292 N 0.15421 1.0067 0.72928 0.0
N293 N 0.09096 0.90252 0.72938 0.0
C294 C 0.05654 0.95498 0.7281 0.0
C295 C 0.09092 0.01163 0.72801 0.0
C296 C 0.48788 0.95102 0.33759 0.0
C297 C 0.54694 0.9795 0.33573 0.0
C298 C 0.43183 0.98451 0.33633 0.0
C299 C 0.43223 0.04808 0.33318 0.0
H300 H 0.48461 0.90233 0.34025 0.0
H301 H 0.38792 0.96046 0.33817 0.0
S302 S 0.57399 0.14426 0.32625 0.0
N303 N 0.60199 0.07484 0.32985 0.0
N304 N 0.49702 0.1378 0.32744 0.0
C305 C 0.49089 0.07699 0.33094 0.0
C306 C 0.54805 0.0428 0.33223 0.0
C307 C 0.96354 1.00624 0.58785 0.0
C308 C 0.99483 0.94904 0.58791 0.0
C309 C 0.99669 0.0621 0.58767 0.0
C310 C 0.06262 0.06327 0.58738 0.0
H311 H 0.91281 1.00812 0.58802 0.0
H312 H 0.97022 0.10471 0.58763 0.0
S313 S 0.16734 0.92632 0.58746 0.0
N314 N 0.09588 0.89713 0.58774 0.0
N315 N 0.15819 1.00189 0.58729 0.0
C316 C 0.09464 1.0064 0.58743 0.0
C317 C 0.0608 0.94944 0.58774 0.0
C318 C 0.05123 0.50434 0.85686 0.0
C319 C 0.07484 0.47759 0.8432 0.0
C320 C 0.99587 0.5389 0.85673 0.0
C321 C 0.96102 0.54584 0.84304 0.0
H322 H 0.07607 0.49904 0.86769 0.0
H323 H 0.9797 0.55949 0.86749 0.0
S324 S 1.00256 0.48366 0.80425 0.0
N325 N 0.06017 0.46053 0.8156 0.0
N326 N 0.95389 0.52307 0.81548 0.0
C327 C 0.98367 0.51854 0.82933 0.0
C328 C 0.04127 0.485 0.82937 0.0
C329 C 0.47745 0.57316 0.08864 0.0
C330 C 0.54337 0.57408 0.08814 0.0
C331 C 0.44416 0.51742 0.08935 0.0
C332 C 0.47532 0.46018 0.08976 0.0
H333 H 0.45113 0.61583 0.0883 0.0
H334 H 0.39344 0.51943 0.0896 0.0
S335 S 0.64777 0.43701 0.08917 0.0
N336 N 0.63878 0.51253 0.08839 0.0
N337 N 0.57626 0.40804 0.08983 0.0
C338 C 0.54129 0.4604 0.08947 0.0
C339 C 0.57524 0.51719 0.08862 0.0
C340 C 0.49417 0.49693 0.97542 0.0
C341 C 0.46214 0.48776 0.96136 0.0
C342 C 0.55431 0.52341 0.97567 0.0
C343 C 0.5838 0.54297 0.9619 0.0
H344 H 0.47318 0.48249 0.98629 0.0
H345 H 0.57738 0.5295 0.98674 0.0
S346 S 0.51938 0.53019 0.92209 0.0
N347 N 0.46441 0.50041 0.93334 0.0
N348 N 0.57642 0.55138 0.93384 0.0
C349 C 0.55195 0.53463 0.9478 0.0
C350 C 0.4914 0.50669 0.94752 0.0
C351 C 0.58817 0.01556 0.22158 0.0
C352 C 0.55681 0.95841 0.22102 0.0
C353 C 0.55507 0.07134 0.22233 0.0
C354 C 0.48916 0.07242 0.22272 0.0
H355 H 0.63889 0.01747 0.2214 0.0
H356 H 0.58158 0.11394 0.22277 0.0
S357 S 0.38428 0.93562 0.22132 0.0
N358 N 0.45571 0.90647 0.22072 0.0
N359 N 0.39351 0.01112 0.22223 0.0
C360 C 0.45706 0.01563 0.22211 0.0
C361 C 0.49084 0.95875 0.22122 0.0
C362 C 0.9681 0.03678 0.47146 0.0
C363 C 0.96866 0.97228 0.47311 0.0
C364 C 0.02399 0.07091 0.471 0.0
C365 C 0.08311 0.04221 0.47217 0.0
H366 H 0.92414 0.06128 0.47033 0.0
H367 H 0.02053 0.1204 0.46956 0.0
S368 S 0.11085 0.87458 0.47737 0.0
N369 N 0.03388 0.88105 0.47646 0.0
N370 N 0.13853 0.9453 0.47555 0.0
C371 C 0.08446 0.97783 0.47409 0.0
C372 C 0.02744 0.94294 0.47457 0.0
C373 C 0.99443 0.45668 0.72389 0.0
C374 C 0.06037 0.45592 0.72355 0.0
C375 C 0.96095 0.51236 0.72421 0.0
C376 C 0.9919 0.5698 0.72406 0.0
H377 H 0.96822 0.41388 0.72403 0.0
H378 H 0.91025 0.51016 0.7245 0.0
S379 S 0.16427 0.59364 0.723 0.0
N380 N 0.15554 0.51801 0.72298 0.0
N381 N 0.09266 0.62234 0.72348 0.0
C382 C 0.05787 0.5698 0.72362 0.0
C383 C 0.09203 0.51304 0.72341 0.0
C384 C 0.24054 0.15859 0.39471 0.0
C385 C 0.27654 0.11689 0.38585 0.0
C386 C 0.24436 0.15933 0.41103 0.0
C387 C 0.28438 0.11848 0.41892 0.0
H388 H 0.20707 0.18856 0.38907 0.0
H389 H 0.21379 0.18998 0.41749 0.0
S390 S 0.39668 1.00877 0.40076 0.0
N391 N 0.35908 0.03972 0.38602 0.0
N392 N 0.36673 0.04137 0.41644 0.0
C393 C 0.32369 0.07986 0.41005 0.0
C394 C 0.31963 0.07899 0.39358 0.0
C395 C 0.8724 0.82074 0.65142 0.0
C396 C 0.8674 0.77372 0.6402 0.0
C397 C 0.87082 0.80747 0.66732 0.0
C398 C 0.86446 0.74652 0.67271 0.0
H399 H 0.88025 0.8681 0.64795 0.0
H400 H 0.8777 0.84518 0.6754 0.0
S401 S 0.83971 0.60756 0.64819 0.0
N402 N 0.84833 0.66439 0.63566 0.0
N403 N 0.84563 0.63951 0.66553 0.0
C404 C 0.85491 0.69955 0.66165 0.0
C405 C 0.85627 0.71312 0.64542 0.0
C406 C 0.27997 0.36737 0.89845 0.0
C407 C 0.24312 0.40905 0.88995 0.0
C408 C 0.27712 0.36614 0.91479 0.0
C409 C 0.237 0.40625 0.92302 0.0
H410 H 0.31351 0.33803 0.89253 0.0
H411 H 0.30883 0.33608 0.92098 0.0
S412 S 0.12233 0.51499 0.9059 0.0
N413 N 0.15972 0.48521 0.89085 0.0
N414 N 0.15341 0.48212 0.9213 0.0
C415 C 0.19656 0.44442 0.91452 0.0
C416 C 0.1999 0.44605 0.89804 0.0
C417 C 0.68326 0.71143 0.1469 0.0
C418 C 0.68146 0.7581 0.13558 0.0
C419 C 0.6858 0.72569 0.16276 0.0
C420 C 0.68635 0.78727 0.16799 0.0
H421 H 0.6795 0.66337 0.14358 0.0
H422 H 0.68368 0.68798 0.17097 0.0
S423 S 0.69407 0.92652 0.14307 0.0
N424 N 0.68932 0.86845 0.13071 0.0
N425 N 0.69376 0.89512 0.16049 0.0
C426 C 0.68994 0.83427 0.15678 0.0
C427 C 0.68764 0.81974 0.1406 0.0
C428 C 0.76247 0.65347 0.89929 0.0
C429 C 0.79882 0.61268 0.89026 0.0
C430 C 0.76743 0.65415 0.91559 0.0
C431 C 0.80917 0.61432 0.92326 0.0
H432 H 0.72767 0.68244 0.89382 0.0
H433 H 0.73602 0.6834 0.92222 0.0
S434 S 0.92332 0.50814 0.90459 0.0
N435 N 0.88369 0.53798 0.89002 0.0
N436 N 0.89358 0.53978 0.92042 0.0
C437 C 0.84907 0.5771 0.91422 0.0
C438 C 0.84374 0.57613 0.89776 0.0
C439 C 0.35376 0.21005 0.16372 0.0
C440 C 0.35458 0.25678 0.17509 0.0
C441 C 0.35097 0.22419 0.14789 0.0
C442 C 0.34913 0.28572 0.14272 0.0
H443 H 0.35839 0.16207 0.16699 0.0
H444 H 0.35371 0.18648 0.13964 0.0
S445 S 0.33886 0.42489 0.16782 0.0
N446 N 0.34472 0.36695 0.18011 0.0
N447 N 0.33971 0.39346 0.15035 0.0
C448 C 0.34469 0.3327 0.15399 0.0
C449 C 0.34731 0.31827 0.17015 0.0
C450 C 0.80313 0.83442 0.3996 0.0
C451 C 0.75154 0.83794 0.3895 0.0
C452 C 0.79516 0.83582 0.41574 0.0
C453 C 0.73523 0.84059 0.42255 0.0
H454 H 0.8505 0.83309 0.39505 0.0
H455 H 0.83674 0.83534 0.42292 0.0
S456 S 0.58395 0.84336 0.40134 0.0
N457 N 0.63777 0.84052 0.38754 0.0
N458 N 0.62278 0.84303 0.41786 0.0
C459 C 0.68289 0.84019 0.41262 0.0
C460 C 0.69104 0.83891 0.39613 0.0
C461 C 0.17506 0.31958 0.65996 0.0
C462 C 0.17817 0.27308 0.6713 0.0
C463 C 0.17608 0.30529 0.64408 0.0
C464 C 0.18 0.24382 0.63886 0.0
H465 H 0.16912 0.3674 0.66331 0.0
H466 H 0.17065 0.34271 0.6359 0.0
S467 S 0.19923 0.10554 0.66372 0.0
N468 N 0.19288 0.1634 0.6761 0.0
N469 N 0.19454 0.13664 0.64631 0.0
C470 C 0.18762 0.19721 0.65004 0.0
C471 C 0.18681 0.21179 0.66623 0.0
C472 C 0.21274 0.19236 0.27686 0.0
C473 C 0.24576 0.20568 0.29059 0.0
C474 C 0.23542 0.21085 0.26232 0.0
C475 C 0.29228 0.24318 0.26087 0.0
H476 H 0.17009 0.16527 0.27724 0.0
H477 H 0.20945 0.19711 0.2521 0.0
S478 S 0.39259 0.29699 0.29338 0.0
N479 N 0.33512 0.25882 0.30191 0.0
N480 N 0.37778 0.29363 0.27461 0.0
C481 C 0.32374 0.2604 0.27458 0.0
C482 C 0.30044 0.24172 0.28942 0.0
C483 C 0.77112 0.83313 0.53116 0.0
C484 C 0.79227 0.81469 0.51635 0.0
C485 C 0.79744 0.80891 0.5447 0.0
C486 C 0.8462 0.76535 0.54402 0.0
H487 H 0.7355 0.86839 0.53237 0.0
H488 H 0.78123 0.82669 0.55577 0.0
S489 S 0.91257 0.69507 0.50818 0.0
N490 N 0.86049 0.74522 0.50186 0.0
N491 N 0.9099 0.69966 0.52729 0.0
C492 C 0.86501 0.74345 0.52931 0.0
C493 C 0.83805 0.76806 0.51549 0.0
C494 C 0.19387 0.24911 0.78147 0.0
C495 C 0.21289 0.26931 0.76665 0.0
C496 C 0.2204 0.27362 0.795 0.0
C497 C 0.2669 0.31956 0.79428 0.0
H498 H 0.15617 0.21599 0.78271 0.0
H499 H 0.20174 0.25874 0.80608 0.0
S500 S 0.34072 0.38105 0.7584 0.0
N501 N 0.28679 0.33256 0.75211 0.0
N502 N 0.33655 0.3786 0.77752 0.0
C503 C 0.28978 0.33675 0.77956 0.0
C504 C 0.26285 0.31164 0.76576 0.0
C505 C 0.80975 0.67402 0.03328 0.0
C506 C 0.77867 0.69254 1.01967 0.0
C507 C 0.79063 0.69506 0.04794 0.0
C508 C 0.73936 0.73523 0.04962 0.0
H509 H 0.84774 0.64098 0.03272 0.0
H510 H 0.8144 0.67713 0.05805 0.0
S511 S 0.64791 0.80505 1.01755 0.0
N512 N 0.69846 0.75907 1.00874 0.0
N513 N 0.66243 0.79856 0.03628 0.0
C514 C 0.7106 0.75758 0.03605 0.0
C515 C 0.73032 0.73632 1.02109 0.0
C516 C 0.35145 0.25617 0.03222 0.0
C517 C 0.32645 0.27379 0.04673 0.0
C518 C 0.32761 0.27997 1.01834 0.0
C519 C 0.27793 0.32254 1.01842 0.0
H520 H 0.39164 0.22579 0.03154 0.0
H521 H 0.3506 0.26735 1.00757 0.0
S522 S 0.18878 0.37565 0.05307 0.0
N523 N 0.24393 0.33051 0.06014 0.0
N524 N 0.19916 0.37518 0.03408 0.0
C525 C 0.24936 0.33692 0.03274 0.0
C526 C 0.27356 0.31255 0.04689 0.0
C527 C 0.68601 0.78071 0.29317 0.0
C528 C 0.73908 0.819 0.29414 0.0
C529 C 0.66405 0.75938 0.27883 0.0
C530 C 0.69428 0.77527 0.26484 0.0
H531 H 0.65934 0.76925 0.3035 0.0
H532 H 0.62154 0.73206 0.27874 0.0
S533 S 0.8407 0.86683 0.26117 0.0
N534 N 0.82552 0.86631 0.27996 0.0
N535 N 0.78412 0.8263 0.25302 0.0
C536 C 0.74987 0.81005 0.26571 0.0
C537 C 0.77225 0.8319 0.28034 0.0
C538 C 0.20532 0.24685 0.5144 0.0
C539 C 0.25951 0.20996 0.51458 0.0
C540 C 0.17788 0.26822 0.5282 0.0
C541 C 0.20354 0.25375 0.54279 0.0
H542 H 0.18199 0.25698 0.50356 0.0
H543 H 0.13475 0.29429 0.5274 0.0
S544 S 0.35068 0.16659 0.54953 0.0
N545 N 0.34199 0.1658 0.53051 0.0
N546 N 0.29042 0.20586 0.55643 0.0
C547 C 0.26018 0.22052 0.54309 0.0
C548 C 0.28812 0.19865 0.52901 0.0
C549 C 0.85094 0.77383 0.78257 0.0
C550 C 0.83063 0.75577 0.7677 0.0
C551 C 0.82326 0.7498 0.79604 0.0
C552 C 0.7742 0.70655 0.7952 0.0
H553 H 0.89044 0.80477 0.78389 0.0
H554 H 0.84284 0.76286 0.80715 0.0
S555 S 0.69649 0.65194 0.75921 0.0
N556 N 0.75305 0.69779 0.75303 0.0
N557 N 0.7011 0.65268 0.77832 0.0
C558 C 0.75025 0.69166 0.78045 0.0
C559 C 0.7784 0.71625 0.76672 0.0
loop_
_geom_bond_atom_site_label_1
_geom_bond_atom_site_label_2
_geom_bond_distance
_geom_bond_site_symmetry_2
_ccdc_geom_bond_type
Mg0 O7 2.141 . S
Mg0 O8 2.048 . S
Mg0 O9 2.048 . S
Mg0 O12 2.141 . S
C1 O2 1.313 . S
C1 O8 1.195 . S
O2 C1 1.313 . S
C3 O4 1.245 . S
C3 O12 1.289 . S
O4 C3 1.245 . S
C5 O6 1.245 . S
C5 O7 1.289 . S
O6 C5 1.245 . S
O7 Mg0 2.141 . S
O7 C5 1.289 . S
O8 Mg0 2.048 . S
O8 C1 1.195 . S
O9 Mg0 2.048 . S
O9 C10 1.195 . S
C10 O9 1.195 . S
C10 O11 1.313 . S
O11 C10 1.313 . S
O12 Mg0 2.141 . S
O12 C3 1.289 . S
Mg13 O20 2.141 . S
Mg13 O21 2.048 . S
Mg13 O22 2.048 . S
Mg13 O25 2.141 . S
C14 O15 1.313 . S
C14 O21 1.195 . S
O15 C14 1.313 . S
C16 O17 1.245 . S
C16 O25 1.289 . S
O17 C16 1.245 . S
C18 O19 1.245 . S
C18 O20 1.289 . S
O19 C18 1.245 . S
O20 Mg13 2.141 . S
O20 C18 1.289 . S
O21 Mg13 2.048 . S
O21 C14 1.195 . S
O22 Mg13 2.048 . S
O22 C23 1.195 . S
C23 O22 1.195 . S
C23 O24 1.313 . S
O24 C23 1.313 . S
O25 Mg13 2.141 . S
O25 C16 1.289 . S
Mg26 O33 2.141 . S
Mg26 O34 2.048 . S
Mg26 O35 2.048 . S
Mg26 O38 2.141 . S
C27 O28 1.313 . S
C27 O34 1.195 . S
O28 C27 1.313 . S
C29 O30 1.245 . S
C29 O38 1.289 . S
O30 C29 1.245 . S
C31 O32 1.245 . S
C31 O33 1.289 . S
O32 C31 1.245 . S
O33 Mg26 2.141 . S
O33 C31 1.289 . S
O34 Mg26 2.048 . S
O34 C27 1.195 . S
O35 Mg26 2.048 . S
O35 C36 1.195 . S
C36 O35 1.195 . S
C36 O37 1.313 . S
O37 C36 1.313 . S
O38 Mg26 2.141 . S
O38 C29 1.289 . S
Mg39 O46 2.141 . S
Mg39 O47 2.048 . S
Mg39 O48 2.048 . S
Mg39 O51 2.141 . S
C40 O41 1.313 . S
C40 O47 1.195 . S
O41 C40 1.313 . S
C42 O43 1.245 . S
C42 O51 1.289 . S
O43 C42 1.245 . S
C44 O45 1.245 . S
C44 O46 1.289 . S
O45 C44 1.245 . S
O46 Mg39 2.141 . S
O46 C44 1.289 . S
O47 Mg39 2.048 . S
O47 C40 1.195 . S
O48 Mg39 2.048 . S
O48 C49 1.195 . S
C49 O48 1.195 . S
C49 O50 1.313 . S
O50 C49 1.313 . S
O51 Mg39 2.141 . S
O51 C42 1.289 . S
Mg52 O59 2.141 . S
Mg52 O60 2.048 . S
Mg52 O61 2.048 . S
Mg52 O64 2.141 . S
C53 O54 1.313 . S
C53 O60 1.195 . S
O54 C53 1.313 . S
C55 O56 1.245 . S
C55 O64 1.289 . S
O56 C55 1.245 . S
C57 O58 1.245 . S
C57 O59 1.289 . S
O58 C57 1.245 . S
O59 Mg52 2.141 . S
O59 C57 1.289 . S
O60 Mg52 2.048 . S
O60 C53 1.195 . S
O61 Mg52 2.048 . S
O61 C62 1.195 . S
C62 O61 1.195 . S
C62 O63 1.313 . S
O63 C62 1.313 . S
O64 Mg52 2.141 . S
O64 C55 1.289 . S
Mg65 O72 2.141 . S
Mg65 O73 2.048 . S
Mg65 O74 2.048 . S
Mg65 O77 2.141 . S
C66 O67 1.313 . S
C66 O73 1.195 . S
O67 C66 1.313 . S
C68 O69 1.245 . S
C68 O77 1.289 . S
O69 C68 1.245 . S
C70 O71 1.245 . S
C70 O72 1.289 . S
O71 C70 1.245 . S
O72 Mg65 2.141 . S
O72 C70 1.289 . S
O73 Mg65 2.048 . S
O73 C66 1.195 . S
O74 Mg65 2.048 . S
O74 C75 1.195 . S
C75 O74 1.195 . S
C75 O76 1.313 . S
O76 C75 1.313 . S
O77 Mg65 2.141 . S
O77 C68 1.289 . S
Mg78 O85 2.141 . S
Mg78 O86 2.048 . S
Mg78 O87 2.048 . S
Mg78 O90 2.141 . S
C79 O80 1.313 . S
C79 O86 1.195 . S
O80 C79 1.313 . S
C81 O82 1.245 . S
C81 O90 1.289 . S
O82 C81 1.245 . S
C83 O84 1.245 . S
C83 O85 1.289 . S
O84 C83 1.245 . S
O85 Mg78 2.141 . S
O85 C83 1.289 . S
O86 Mg78 2.048 . S
O86 C79 1.195 . S
O87 Mg78 2.048 . S
O87 C88 1.195 . S
C88 O87 1.195 . S
C88 O89 1.313 . S
O89 C88 1.313 . S
O90 Mg78 2.141 . S
O90 C81 1.289 . S
Mg91 O98 2.141 . S
Mg91 O99 2.048 . S
Mg91 O100 2.048 . S
Mg91 O103 2.141 . S
C92 O93 1.313 . S
C92 O99 1.195 . S
O93 C92 1.313 . S
C94 O95 1.245 . S
C94 O103 1.289 . S
O95 C94 1.245 . S
C96 O97 1.245 . S
C96 O98 1.289 . S
O97 C96 1.245 . S
O98 Mg91 2.141 . S
O98 C96 1.289 . S
O99 Mg91 2.048 . S
O99 C92 1.195 . S
O100 Mg91 2.048 . S
O100 C101 1.195 . S
C101 O100 1.195 . S
C101 O102 1.313 . S
O102 C101 1.313 . S
O103 Mg91 2.141 . S
O103 C94 1.289 . S
Mg104 O111 2.141 . S
Mg104 O112 2.048 . S
Mg104 O113 2.048 . S
Mg104 O116 2.141 . S
C105 O106 1.313 . S
C105 O112 1.195 . S
O106 C105 1.313 . S
C107 O108 1.245 . S
C107 O116 1.289 . S
O108 C107 1.245 . S
C109 O110 1.245 . S
C109 O111 1.289 . S
O110 C109 1.245 . S
O111 Mg104 2.141 . S
O111 C109 1.289 . S
O112 Mg104 2.048 . S
O112 C105 1.195 . S
O113 Mg104 2.048 . S
O113 C114 1.195 . S
C114 O113 1.195 . S
C114 O115 1.313 . S
O115 C114 1.313 . S
O116 Mg104 2.141 . S
O116 C107 1.289 . S
Mg117 O124 2.141 . S
Mg117 O125 2.048 . S
Mg117 O126 2.048 . S
Mg117 O129 2.141 . S
C118 O119 1.313 . S
C118 O125 1.195 . S
O119 C118 1.313 . S
C120 O121 1.245 . S
C120 O129 1.289 . S
O121 C120 1.245 . S
C122 O123 1.245 . S
C122 O124 1.289 . S
O123 C122 1.245 . S
O124 Mg117 2.141 . S
O124 C122 1.289 . S
O125 Mg117 2.048 . S
O125 C118 1.195 . S
O126 Mg117 2.048 . S
O126 C127 1.195 . S
C127 O126 1.195 . S
C127 O128 1.313 . S
O128 C127 1.313 . S
O129 Mg117 2.141 . S
O129 C120 1.289 . S
Mg130 O137 2.141 . S
Mg130 O138 2.048 . S
Mg130 O139 2.048 . S
Mg130 O142 2.141 . S
C131 O132 1.313 . S
C131 O138 1.195 . S
O132 C131 1.313 . S
C133 O134 1.245 . S
C133 O142 1.289 . S
O134 C133 1.245 . S
C135 O136 1.245 . S
C135 O137 1.289 . S
O136 C135 1.245 . S
O137 Mg130 2.141 . S
O137 C135 1.289 . S
O138 Mg130 2.048 . S
O138 C131 1.195 . S
O139 Mg130 2.048 . S
O139 C140 1.195 . S
C140 O139 1.195 . S
C140 O141 1.313 . S
O141 C140 1.313 . S
O142 Mg130 2.141 . S
O142 C133 1.289 . S
Mg143 O150 2.141 . S
Mg143 O151 2.048 . S
Mg143 O152 2.048 . S
Mg143 O155 2.141 . S
C144 O145 1.313 . S
C144 O151 1.195 . S
O145 C144 1.313 . S
C146 O147 1.245 . S
C146 O155 1.289 . S
O147 C146 1.245 . S
C148 O149 1.245 . S
C148 O150 1.289 . S
O149 C148 1.245 . S
O150 Mg143 2.141 . S
O150 C148 1.289 . S
O151 Mg143 2.048 . S
O151 C144 1.195 . S
O152 Mg143 2.048 . S
O152 C153 1.195 . S
C153 O152 1.195 . S
C153 O154 1.313 . S
O154 C153 1.313 . S
O155 Mg143 2.141 . S
O155 C146 1.289 . S
Mg156 O163 2.141 . S
Mg156 O164 2.048 . S
Mg156 O165 2.048 . S
Mg156 O168 2.141 . S
C157 O158 1.313 . S
C157 O164 1.195 . S
O158 C157 1.313 . S
C159 O160 1.245 . S
C159 O168 1.289 . S
O160 C159 1.245 . S
C161 O162 1.245 . S
C161 O163 1.289 . S
O162 C161 1.245 . S
O163 Mg156 2.141 . S
O163 C161 1.289 . S
O164 Mg156 2.048 . S
O164 C157 1.195 . S
O165 Mg156 2.048 . S
O165 C166 1.195 . S
C166 O165 1.195 . S
C166 O167 1.313 . S
O167 C166 1.313 . S
O168 Mg156 2.141 . S
O168 C159 1.289 . S
Mg169 O176 2.141 . S
Mg169 O177 2.048 . S
Mg169 O178 2.048 . S
Mg169 O181 2.141 . S
C170 O171 1.313 . S
C170 O177 1.195 . S
O171 C170 1.313 . S
C172 O173 1.245 . S
C172 O181 1.289 . S
O173 C172 1.245 . S
C174 O175 1.245 . S
C174 O176 1.289 . S
O175 C174 1.245 . S
O176 Mg169 2.141 . S
O176 C174 1.289 . S
O177 Mg169 2.048 . S
O177 C170 1.195 . S
O178 Mg169 2.048 . S
O178 C179 1.195 . S
C179 O178 1.195 . S
C179 O180 1.313 . S
O180 C179 1.313 . S
O181 Mg169 2.141 . S
O181 C172 1.289 . S
Mg182 O189 2.141 . S
Mg182 O190 2.048 . S
Mg182 O191 2.048 . S
Mg182 O194 2.141 . S
C183 O184 1.313 . S
C183 O190 1.195 . S
O184 C183 1.313 . S
C185 O186 1.245 . S
C185 O194 1.289 . S
O186 C185 1.245 . S
C187 O188 1.245 . S
C187 O189 1.289 . S
O188 C187 1.245 . S
O189 Mg182 2.141 . S
O189 C187 1.289 . S
O190 Mg182 2.048 . S
O190 C183 1.195 . S
O191 Mg182 2.048 . S
O191 C192 1.195 . S
C192 O191 1.195 . S
C192 O193 1.313 . S
O193 C192 1.313 . S
O194 Mg182 2.141 . S
O194 C185 1.289 . S
Mg195 O202 2.141 . S
Mg195 O203 2.048 . S
Mg195 O204 2.048 . S
Mg195 O207 2.141 . S
C196 O197 1.313 . S
C196 O203 1.195 . S
O197 C196 1.313 . S
C198 O199 1.245 . S
C198 O207 1.289 . S
O199 C198 1.245 . S
C200 O201 1.245 . S
C200 O202 1.289 . S
O201 C200 1.245 . S
O202 Mg195 2.141 . S
O202 C200 1.289 . S
O203 Mg195 2.048 . S
O203 C196 1.195 . S
O204 Mg195 2.048 . S
O204 C205 1.195 . S
C205 O204 1.195 . S
C205 O206 1.313 . S
O206 C205 1.313 . S
O207 Mg195 2.141 . S
O207 C198 1.289 . S
C208 C209 1.369 1_545 S
C208 C210 1.419 . S
C208 H212 0.930 . S
C209 C208 1.369 1_565 S
C209 C218 1.429 1_655 S
C210 C208 1.419 . S
C210 C211 1.363 1_655 S
C210 H213 0.929 . S
C211 C210 1.363 1_455 S
C211 C217 1.428 1_545 S
H212 C208 0.930 . S
H213 C210 0.929 . S
S214 N215 1.613 . S
S214 N216 1.610 . S
N215 S214 1.613 . S
N215 C218 1.350 . S
N216 S214 1.610 . S
N216 C217 1.351 . S
C217 C211 1.428 1_565 S
C217 N216 1.351 . S
C217 C218 1.434 . S
C218 C209 1.429 1_455 S
C218 N215 1.350 . S
C218 C217 1.434 . S
C219 C220 1.369 . S
C219 C221 1.419 1_655 S
C219 H223 0.930 . S
C220 C219 1.369 . S
C220 C229 1.429 . S
C221 C219 1.419 1_455 S
C221 C222 1.363 . S
C221 H224 0.929 . S
C222 C221 1.363 . S
C222 C228 1.428 . S
H223 C219 0.930 . S
H224 C221 0.929 . S
S225 N226 1.613 . S
S225 N227 1.610 1_655 S
N226 S225 1.613 . S
N226 C229 1.350 . S
N227 S225 1.610 1_455 S
N227 C228 1.351 . S
C228 C222 1.428 . S
C228 N227 1.351 . S
C228 C229 1.434 1_455 S
C229 C220 1.429 . S
C229 N226 1.350 . S
C229 C228 1.434 1_655 S
C230 C231 1.369 . S
C230 C232 1.419 . S
C230 H234 0.930 . S
C231 C230 1.369 . S
C231 C240 1.429 . S
C232 C230 1.419 . S
C232 C233 1.363 . S
C232 H235 0.929 . S
C233 C232 1.363 . S
C233 C239 1.428 . S
H234 C230 0.930 . S
H235 C232 0.929 . S
S236 N237 1.613 . S
S236 N238 1.610 . S
N237 S236 1.613 . S
N237 C240 1.350 . S
N238 S236 1.610 . S
N238 C239 1.351 . S
C239 C233 1.428 . S
C239 N238 1.351 . S
C239 C240 1.434 . S
C240 C231 1.429 . S
C240 N237 1.350 . S
C240 C239 1.434 . S
C241 C242 1.369 1_565 S
C241 C243 1.419 . S
C241 H245 0.930 . S
C242 C241 1.369 1_545 S
C242 C251 1.429 . S
C243 C241 1.419 . S
C243 C244 1.363 . S
C243 H246 0.929 . S
C244 C243 1.363 . S
C244 C250 1.428 1_565 S
H245 C241 0.930 . S
H246 C243 0.929 . S
S247 N248 1.613 . S
S247 N249 1.610 . S
N248 S247 1.613 . S
N248 C251 1.350 . S
N249 S247 1.610 . S
N249 C250 1.351 . S
C250 C244 1.428 1_545 S
C250 N249 1.351 . S
C250 C251 1.434 . S
C251 C242 1.429 . S
C251 N248 1.350 . S
C251 C250 1.434 . S
C252 C253 1.369 1_655 S
C252 C254 1.419 . S
C252 H256 0.930 . S
C253 C252 1.369 1_455 S
C253 C262 1.429 . S
C254 C252 1.419 . S
C254 C255 1.363 . S
C254 H257 0.929 . S
C255 C254 1.363 . S
C255 C261 1.428 1_655 S
H256 C252 0.930 . S
H257 C254 0.929 . S
S258 N259 1.613 . S
S258 N260 1.610 . S
N259 S258 1.613 . S
N259 C262 1.350 . S
N260 S258 1.610 . S
N260 C261 1.351 . S
C261 C255 1.428 1_455 S
C261 N260 1.351 . S
C261 C262 1.434 . S
C262 C253 1.429 . S
C262 N259 1.350 . S
C262 C261 1.434 . S
C263 C264 1.369 . S
C263 C265 1.419 . S
C263 H267 0.930 . S
C264 C263 1.369 . S
C264 C273 1.429 . S
C265 C263 1.419 . S
C265 C266 1.363 . S
C265 H268 0.929 . S
C266 C265 1.363 . S
C266 C272 1.428 . S
H267 C263 0.930 . S
H268 C265 0.929 . S
S269 N270 1.613 . S
S269 N271 1.610 . S
N270 S269 1.613 . S
N270 C273 1.350 . S
N271 S269 1.610 . S
N271 C272 1.351 . S
C272 C266 1.428 . S
C272 N271 1.351 . S
C272 C273 1.434 . S
C273 C264 1.429 . S
C273 N270 1.350 . S
C273 C272 1.434 . S
C274 C275 1.369 1_565 S
C274 C276 1.419 . S
C274 H278 0.930 . S
C275 C274 1.369 1_545 S
C275 C284 1.429 . S
C276 C274 1.419 . S
C276 C277 1.363 . S
C276 H279 0.929 . S
C277 C276 1.363 . S
C277 C283 1.428 1_565 S
H278 C274 0.930 . S
H279 C276 0.929 . S
S280 N281 1.613 . S
S280 N282 1.610 . S
N281 S280 1.613 . S
N281 C284 1.350 . S
N282 S280 1.610 . S
N282 C283 1.351 . S
C283 C277 1.428 1_545 S
C283 N282 1.351 . S
C283 C284 1.434 . S
C284 C275 1.429 . S
C284 N281 1.350 . S
C284 C283 1.434 . S
C285 C286 1.369 . S
C285 C287 1.419 1_445 S
C285 H289 0.930 . S
C286 C285 1.369 . S
C286 C295 1.429 . S
C287 C285 1.419 1_665 S
C287 C288 1.363 . S
C287 H290 0.929 . S
C288 C287 1.363 . S
C288 C294 1.428 . S
H289 C285 0.930 . S
H290 C287 0.929 . S
S291 N292 1.613 1_565 S
S291 N293 1.610 1_455 S
N292 S291 1.613 1_545 S
N292 C295 1.350 . S
N293 S291 1.610 1_655 S
N293 C294 1.351 . S
C294 C288 1.428 . S
C294 N293 1.351 . S
C294 C295 1.434 1_665 S
C295 C286 1.429 . S
C295 N292 1.350 . S
C295 C294 1.434 1_445 S
C296 C297 1.369 . S
C296 C298 1.419 . S
C296 H300 0.930 . S
C297 C296 1.369 . S
C297 C306 1.429 1_565 S
C298 C296 1.419 . S
C298 C299 1.363 1_565 S
C298 H301 0.929 . S
C299 C298 1.363 1_545 S
C299 C305 1.428 . S
H300 C296 0.930 . S
H301 C298 0.929 . S
S302 N303 1.613 . S
S302 N304 1.610 . S
N303 S302 1.613 . S
N303 C306 1.350 . S
N304 S302 1.610 . S
N304 C305 1.351 . S
C305 C299 1.428 . S
C305 N304 1.351 . S
C305 C306 1.434 . S
C306 C297 1.429 1_545 S
C306 N303 1.350 . S
C306 C305 1.434 . S
C307 C308 1.369 1_545 S
C307 C309 1.419 . S
C307 H311 0.930 . S
C308 C307 1.369 1_565 S
C308 C317 1.429 1_655 S
C309 C307 1.419 . S
C309 C310 1.363 1_655 S
C309 H312 0.929 . S
C310 C309 1.363 1_455 S
C310 C316 1.428 1_545 S
H311 C307 0.930 . S
H312 C309 0.929 . S
S313 N314 1.613 . S
S313 N315 1.610 . S
N314 S313 1.613 . S
N314 C317 1.350 . S
N315 S313 1.610 . S
N315 C316 1.351 . S
C316 C310 1.428 1_565 S
C316 N315 1.351 . S
C316 C317 1.434 . S
C317 C308 1.429 1_455 S
C317 N314 1.350 . S
C317 C316 1.434 . S
C318 C319 1.369 . S
C318 C320 1.419 . S
C318 H322 0.930 . S
C319 C318 1.369 . S
C319 C328 1.429 1_455 S
C320 C318 1.419 . S
C320 C321 1.363 1_455 S
C320 H323 0.929 . S
C321 C320 1.363 1_655 S
C321 C327 1.428 . S
H322 C318 0.930 . S
H323 C320 0.929 . S
S324 N325 1.613 . S
S324 N326 1.610 . S
N325 S324 1.613 . S
N325 C328 1.350 . S
N326 S324 1.610 . S
N326 C327 1.351 . S
C327 C321 1.428 . S
C327 N326 1.351 . S
C327 C328 1.434 . S
C328 C319 1.429 1_655 S
C328 N325 1.350 . S
C328 C327 1.434 . S
C329 C330 1.369 . S
C329 C331 1.419 . S
C329 H333 0.930 . S
C330 C329 1.369 . S
C330 C339 1.429 . S
C331 C329 1.419 . S
C331 C332 1.363 . S
C331 H334 0.929 . S
C332 C331 1.363 . S
C332 C338 1.428 . S
H333 C329 0.930 . S
H334 C331 0.929 . S
S335 N336 1.613 . S
S335 N337 1.610 . S
N336 S335 1.613 . S
N336 C339 1.350 . S
N337 S335 1.610 . S
N337 C338 1.351 . S
C338 C332 1.428 . S
C338 N337 1.351 . S
C338 C339 1.434 . S
C339 C330 1.429 . S
C339 N336 1.350 . S
C339 C338 1.434 . S
C340 C341 1.369 . S
C340 C342 1.419 . S
C340 H344 0.930 . S
C341 C340 1.369 . S
C341 C350 1.429 . S
C342 C340 1.419 . S
C342 C343 1.363 . S
C342 H345 0.929 . S
C343 C342 1.363 . S
C343 C349 1.428 . S
H344 C340 0.930 . S
H345 C342 0.929 . S
S346 N347 1.613 . S
S346 N348 1.610 . S
N347 S346 1.613 . S
N347 C350 1.350 . S
N348 S346 1.610 . S
N348 C349 1.351 . S
C349 C343 1.428 . S
C349 N348 1.351 . S
C349 C350 1.434 . S
C350 C341 1.429 . S
C350 N347 1.350 . S
C350 C349 1.434 . S
C351 C352 1.369 1_545 S
C351 C353 1.419 . S
C351 H355 0.930 . S
C352 C351 1.369 1_565 S
C352 C361 1.429 . S
C353 C351 1.419 . S
C353 C354 1.363 . S
C353 H356 0.929 . S
C354 C353 1.363 . S
C354 C360 1.428 1_545 S
H355 C351 0.930 . S
H356 C353 0.929 . S
S357 N358 1.613 . S
S357 N359 1.610 . S
N358 S357 1.613 . S
N358 C361 1.350 . S
N359 S357 1.610 . S
N359 C360 1.351 . S
C360 C354 1.428 1_565 S
C360 N359 1.351 . S
C360 C361 1.434 . S
C361 C352 1.429 . S
C361 N358 1.350 . S
C361 C360 1.434 . S
C362 C363 1.369 1_545 S
C362 C364 1.419 . S
C362 H366 0.930 . S
C363 C362 1.369 1_565 S
C363 C372 1.429 1_655 S
C364 C362 1.419 . S
C364 C365 1.363 1_655 S
C364 H367 0.929 . S
C365 C364 1.363 1_455 S
C365 C371 1.428 1_545 S
H366 C362 0.930 . S
H367 C364 0.929 . S
S368 N369 1.613 . S
S368 N370 1.610 . S
N369 S368 1.613 . S
N369 C372 1.350 . S
N370 S368 1.610 . S
N370 C371 1.351 . S
C371 C365 1.428 1_565 S
C371 N370 1.351 . S
C371 C372 1.434 . S
C372 C363 1.429 1_455 S
C372 N369 1.350 . S
C372 C371 1.434 . S
C373 C374 1.369 . S
C373 C375 1.419 1_455 S
C373 H377 0.930 . S
C374 C373 1.369 . S
C374 C383 1.429 . S
C375 C373 1.419 1_655 S
C375 C376 1.363 . S
C375 H378 0.929 . S
C376 C375 1.363 . S
C376 C382 1.428 . S
H377 C373 0.930 . S
H378 C375 0.929 . S
S379 N380 1.613 . S
S379 N381 1.610 1_455 S
N380 S379 1.613 . S
N380 C383 1.350 . S
N381 S379 1.610 1_655 S
N381 C382 1.351 . S
C382 C376 1.428 . S
C382 N381 1.351 . S
C382 C383 1.434 1_655 S
C383 C374 1.429 . S
C383 N380 1.350 . S
C383 C382 1.434 1_455 S
C384 C385 1.369 . S
C384 C386 1.419 . S
C384 H388 0.930 . S
C385 C384 1.369 . S
C385 C394 1.429 . S
C386 C384 1.419 . S
C386 C387 1.363 . S
C386 H389 0.929 . S
C387 C386 1.363 . S
C387 C393 1.428 . S
H388 C384 0.930 . S
H389 C386 0.929 . S
S390 N391 1.613 . S
S390 N392 1.610 . S
N391 S390 1.613 . S
N391 C394 1.350 1_565 S
N392 S390 1.610 . S
N392 C393 1.351 1_565 S
C393 C387 1.428 . S
C393 N392 1.351 1_545 S
C393 C394 1.434 . S
C394 C385 1.429 . S
C394 N391 1.350 1_545 S
C394 C393 1.434 . S
C395 C396 1.369 . S
C395 C397 1.419 . S
C395 H399 0.930 . S
C396 C395 1.369 . S
C396 C405 1.429 . S
C397 C395 1.419 . S
C397 C398 1.363 . S
C397 H400 0.929 . S
C398 C397 1.363 . S
C398 C404 1.428 . S
H399 C395 0.930 . S
H400 C397 0.929 . S
S401 N402 1.613 . S
S401 N403 1.610 . S
N402 S401 1.613 . S
N402 C405 1.350 . S
N403 S401 1.610 . S
N403 C404 1.351 . S
C404 C398 1.428 . S
C404 N403 1.351 . S
C404 C405 1.434 . S
C405 C396 1.429 . S
C405 N402 1.350 . S
C405 C404 1.434 . S
C406 C407 1.369 . S
C406 C408 1.419 . S
C406 H410 0.930 . S
C407 C406 1.369 . S
C407 C416 1.429 . S
C408 C406 1.419 . S
C408 C409 1.363 . S
C408 H411 0.929 . S
C409 C408 1.363 . S
C409 C415 1.428 . S
H410 C406 0.930 . S
H411 C408 0.929 . S
S412 N413 1.613 . S
S412 N414 1.610 . S
N413 S412 1.613 . S
N413 C416 1.350 . S
N414 S412 1.610 . S
N414 C415 1.351 . S
C415 C409 1.428 . S
C415 N414 1.351 . S
C415 C416 1.434 . S
C416 C407 1.429 . S
C416 N413 1.350 . S
C416 C415 1.434 . S
C417 C418 1.369 . S
C417 C419 1.419 . S
C417 H421 0.930 . S
C418 C417 1.369 . S
C418 C427 1.429 . S
C419 C417 1.419 . S
C419 C420 1.363 . S
C419 H422 0.929 . S
C420 C419 1.363 . S
C420 C426 1.428 . S
H421 C417 0.930 . S
H422 C419 0.929 . S
S423 N424 1.613 . S
S423 N425 1.610 . S
N424 S423 1.613 . S
N424 C427 1.350 . S
N425 S423 1.610 . S
N425 C426 1.351 . S
C426 C420 1.428 . S
C426 N425 1.351 . S
C426 C427 1.434 . S
C427 C418 1.429 . S
C427 N424 1.350 . S
C427 C426 1.434 . S
C428 C429 1.369 . S
C428 C430 1.419 . S
C428 H432 0.930 . S
C429 C428 1.369 . S
C429 C438 1.429 . S
C430 C428 1.419 . S
C430 C431 1.363 . S
C430 H433 0.929 . S
C431 C430 1.363 . S
C431 C437 1.428 . S
H432 C428 0.930 . S
H433 C430 0.929 . S
S434 N435 1.613 . S
S434 N436 1.610 . S
N435 S434 1.613 . S
N435 C438 1.350 . S
N436 S434 1.610 . S
N436 C437 1.351 . S
C437 C431 1.428 . S
C437 N436 1.351 . S
C437 C438 1.434 . S
C438 C429 1.429 . S
C438 N435 1.350 . S
C438 C437 1.434 . S
C439 C440 1.369 . S
C439 C441 1.419 . S
C439 H443 0.930 . S
C440 C439 1.369 . S
C440 C449 1.429 . S
C441 C439 1.419 . S
C441 C442 1.363 . S
C441 H444 0.929 . S
C442 C441 1.363 . S
C442 C448 1.428 . S
H443 C439 0.930 . S
H444 C441 0.929 . S
S445 N446 1.613 . S
S445 N447 1.610 . S
N446 S445 1.613 . S
N446 C449 1.350 . S
N447 S445 1.610 . S
N447 C448 1.351 . S
C448 C442 1.428 . S
C448 N447 1.351 . S
C448 C449 1.434 . S
C449 C440 1.429 . S
C449 N446 1.350 . S
C449 C448 1.434 . S
C450 C451 1.369 . S
C450 C452 1.419 . S
C450 H454 0.930 . S
C451 C450 1.369 . S
C451 C460 1.429 . S
C452 C450 1.419 . S
C452 C453 1.363 . S
C452 H455 0.929 . S
C453 C452 1.363 . S
C453 C459 1.428 . S
H454 C450 0.930 . S
H455 C452 0.929 . S
S456 N457 1.613 . S
S456 N458 1.610 . S
N457 S456 1.613 . S
N457 C460 1.350 . S
N458 S456 1.610 . S
N458 C459 1.351 . S
C459 C453 1.428 . S
C459 N458 1.351 . S
C459 C460 1.434 . S
C460 C451 1.429 . S
C460 N457 1.350 . S
C460 C459 1.434 . S
C461 C462 1.369 . S
C461 C463 1.419 . S
C461 H465 0.930 . S
C462 C461 1.369 . S
C462 C471 1.429 . S
C463 C461 1.419 . S
C463 C464 1.363 . S
C463 H466 0.929 . S
C464 C463 1.363 . S
C464 C470 1.428 . S
H465 C461 0.930 . S
H466 C463 0.929 . S
S467 N468 1.613 . S
S467 N469 1.610 . S
N468 S467 1.613 . S
N468 C471 1.350 . S
N469 S467 1.610 . S
N469 C470 1.351 . S
C470 C464 1.428 . S
C470 N469 1.351 . S
C470 C471 1.434 . S
C471 C462 1.429 . S
C471 N468 1.350 . S
C471 C470 1.434 . S
C472 C473 1.369 . S
C472 C474 1.419 . S
C472 H476 0.930 . S
C473 C472 1.369 . S
C473 C482 1.429 . S
C474 C472 1.419 . S
C474 C475 1.363 . S
C474 H477 0.929 . S
C475 C474 1.363 . S
C475 C481 1.428 . S
H476 C472 0.930 . S
H477 C474 0.929 . S
S478 N479 1.613 . S
S478 N480 1.610 . S
N479 S478 1.613 . S
N479 C482 1.350 . S
N480 S478 1.610 . S
N480 C481 1.351 . S
C481 C475 1.428 . S
C481 N480 1.351 . S
C481 C482 1.434 . S
C482 C473 1.429 . S
C482 N479 1.350 . S
C482 C481 1.434 . S
C483 C484 1.369 . S
C483 C485 1.419 . S
C483 H487 0.930 . S
C484 C483 1.369 . S
C484 C493 1.429 . S
C485 C483 1.419 . S
C485 C486 1.363 . S
C485 H488 0.929 . S
C486 C485 1.363 . S
C486 C492 1.428 . S
H487 C483 0.930 . S
H488 C485 0.929 . S
S489 N490 1.613 . S
S489 N491 1.610 . S
N490 S489 1.613 . S
N490 C493 1.350 . S
N491 S489 1.610 . S
N491 C492 1.351 . S
C492 C486 1.428 . S
C492 N491 1.351 . S
C492 C493 1.434 . S
C493 C484 1.429 . S
C493 N490 1.350 . S
C493 C492 1.434 . S
C494 C495 1.369 . S
C494 C496 1.419 . S
C494 H498 0.930 . S
C495 C494 1.369 . S
C495 C504 1.429 . S
C496 C494 1.419 . S
C496 C497 1.363 . S
C496 H499 0.929 . S
C497 C496 1.363 . S
C497 C503 1.428 . S
H498 C494 0.930 . S
H499 C496 0.929 . S
S500 N501 1.613 . S
S500 N502 1.610 . S
N501 S500 1.613 . S
N501 C504 1.350 . S
N502 S500 1.610 . S
N502 C503 1.351 . S
C503 C497 1.428 . S
C503 N502 1.351 . S
C503 C504 1.434 . S
C504 C495 1.429 . S
C504 N501 1.350 . S
C504 C503 1.434 . S
C505 C506 1.318 1_554 S
C505 C507 1.464 . S
C505 H509 0.939 . S
C506 C505 1.318 1_556 S
C506 C515 1.429 . S
C507 C505 1.464 . S
C507 C508 1.363 . S
C507 H510 0.929 . S
C508 C507 1.363 . S
C508 C514 1.428 1_554 S
H509 C505 0.939 . S
H510 C507 0.929 . S
S511 N512 1.613 . S
S511 N513 1.610 . S
N512 S511 1.613 . S
N512 C515 1.350 . S
N513 S511 1.610 . S
N513 C514 1.351 . S
C514 C508 1.428 1_556 S
C514 N513 1.351 . S
C514 C515 1.434 . S
C515 C506 1.429 . S
C515 N512 1.350 . S
C515 C514 1.434 . S
C516 C517 1.369 . S
C516 C518 1.419 1_554 S
C516 H520 0.930 . S
C517 C516 1.369 . S
C517 C526 1.429 . S
C518 C516 1.419 1_556 S
C518 C519 1.363 . S
C518 H521 0.929 . S
C519 C518 1.363 . S
C519 C525 1.468 . S
H520 C516 0.930 . S
H521 C518 0.929 . S
S522 N523 1.613 . S
S522 N524 1.639 . S
N523 S522 1.613 . S
N523 C526 1.350 . S
N524 S522 1.639 . S
N524 C525 1.347 1_554 S
C525 C519 1.468 . S
C525 N524 1.347 1_556 S
C525 C526 1.393 1_556 S
C526 C517 1.429 . S
C526 N523 1.350 . S
C526 C525 1.393 1_554 S
C527 C528 1.369 . S
C527 C529 1.419 . S
C527 H531 0.930 . S
C528 C527 1.369 . S
C528 C537 1.429 . S
C529 C527 1.419 . S
C529 C530 1.363 . S
C529 H532 0.929 . S
C530 C529 1.363 . S
C530 C536 1.428 . S
H531 C527 0.930 . S
H532 C529 0.929 . S
S533 N534 1.613 . S
S533 N535 1.610 . S
N534 S533 1.613 . S
N534 C537 1.350 . S
N535 S533 1.610 . S
N535 C536 1.351 . S
C536 C530 1.428 . S
C536 N535 1.351 . S
C536 C537 1.434 . S
C537 C528 1.429 . S
C537 N534 1.350 . S
C537 C536 1.434 . S
C538 C539 1.369 . S
C538 C540 1.419 . S
C538 H542 0.930 . S
C539 C538 1.369 . S
C539 C548 1.429 . S
C540 C538 1.419 . S
C540 C541 1.363 . S
C540 H543 0.929 . S
C541 C540 1.363 . S
C541 C547 1.428 . S
H542 C538 0.930 . S
H543 C540 0.929 . S
S544 N545 1.613 . S
S544 N546 1.610 . S
N545 S544 1.613 . S
N545 C548 1.350 . S
N546 S544 1.610 . S
N546 C547 1.351 . S
C547 C541 1.428 . S
C547 N546 1.351 . S
C547 C548 1.434 . S
C548 C539 1.429 . S
C548 N545 1.350 . S
C548 C547 1.434 . S
C549 C550 1.369 . S
C549 C551 1.419 . S
C549 H553 0.930 . S
C550 C549 1.369 . S
C550 C559 1.429 . S
C551 C549 1.419 . S
C551 C552 1.363 . S
C551 H554 0.929 . S
C552 C551 1.363 . S
C552 C558 1.428 . S
H553 C549 0.930 . S
H554 C551 0.929 . S
S555 N556 1.613 . S
S555 N557 1.610 . S
N556 S555 1.613 . S
N556 C559 1.350 . S
N557 S555 1.610 . S
N557 C558 1.351 . S
C558 C552 1.428 . S
C558 N557 1.351 . S
C558 C559 1.434 . S
C559 C550 1.429 . S
C559 N556 1.350 . S
C559 C558 1.434 . S
C209 C133 1.990 . S
C211 C3 1.983 . S
C220 C18 2.178 . S
C222 C148 2.177 . S
C231 C107 1.981 . S
C233 C29 1.990 . S
C242 C122 2.175 . S
C244 C44 2.181 . S
C253 C55 1.984 . S
C255 C185 1.988 . S
C264 C200 2.179 . S
C266 C70 2.179 . S
C275 C81 1.989 . S
C277 C159 1.982 . S
C286 C174 2.178 . S
C288 C96 2.179 . S
C297 C131 1.734 . S
C299 C1 1.745 . S
C308 C23 1.868 . S
C310 C153 1.876 . S
C319 C27 1.742 . S
C321 C105 1.738 . S
C330 C49 1.877 . S
C332 C127 1.871 . S
C341 C53 1.744 . S
C343 C183 1.738 . S
C352 C75 1.869 . S
C354 C205 1.876 . S
C363 C157 1.746 . S
C365 C79 1.735 . S
C374 C179 1.873 . S
C376 C101 1.873 . S
C385 C10 1.597 . S
C387 C88 1.597 . S
C396 C14 1.577 . S
C398 C92 1.575 . S
C407 C36 1.597 . S
C409 C62 1.597 . S
C418 C40 1.578 . S
C420 C66 1.576 . S
C429 C114 1.596 . S
C431 C192 1.598 . S
C440 C196 1.580 . S
C442 C118 1.578 . S
C451 C140 1.596 . S
C453 C166 1.598 . S
C462 C170 1.579 . S
C464 C144 1.577 . S
C473 C5 1.755 . S
C475 C198 1.684 . S
C484 C161 1.757 . S
C486 C16 1.682 . S
C495 C172 1.679 . S
C497 C31 1.758 . S
C506 C187 1.755 . S
C508 C42 1.684 . S
C517 C120 1.676 . S
C519 C57 1.758 . S
C528 C135 1.760 . S
C530 C68 1.677 . S
C539 C83 1.755 . S
C541 C146 1.683 . S
C550 C94 1.681 . S
C552 C109 1.757 . S
