# Generated by pormake.
# Topology dft, (4)-cn, num edge types: 1
# Building blocks:
#     Node 0, Type 0, BuildingBlock: NAHDIM_clean_sbu_0, # of connection points: 4
#     Node 1, Type 0, BuildingBlock: NAHDIM_clean_sbu_0, # of connection points: 4
#     Node 2, Type 0, BuildingBlock: NAHDIM_clean_sbu_0, # of connection points: 4
#     Node 3, Type 0, BuildingBlock: NAHDIM_clean_sbu_0, # of connection points: 4
#     Node 4, Type 0, BuildingBlock: NAHDIM_clean_sbu_0, # of connection points: 4
#     Node 5, Type 0, BuildingBlock: NAHDIM_clean_sbu_0, # of connection points: 4
#     Node 6, Type 0, BuildingBlock: NAHDIM_clean_sbu_0, # of connection points: 4
#     Node 7, Type 0, BuildingBlock: NAHDIM_clean_sbu_0, # of connection points: 4
#     Edge 8, Type (0, 0), BuildingBlock: FUNLAD_clean_linker_0, # of connection points: 2
#     Edge 9, Type (0, 0), BuildingBlock: FUNLAD_clean_linker_0, # of connection points: 2
#     Edge 10, Type (0, 0), BuildingBlock: FUNLAD_clean_linker_0, # of connection points: 2
#     Edge 11, Type (0, 0), BuildingBlock: FUNLAD_clean_linker_0, # of connection points: 2
#     Edge 12, Type (0, 0), BuildingBlock: FUNLAD_clean_linker_0, # of connection points: 2
#     Edge 13, Type (0, 0), BuildingBlock: FUNLAD_clean_linker_0, # of connection points: 2
#     Edge 14, Type (0, 0), BuildingBlock: FUNLAD_clean_linker_0, # of connection points: 2
#     Edge 15, Type (0, 0), BuildingBlock: FUNLAD_clean_linker_0, # of connection points: 2
#     Edge 16, Type (0, 0), BuildingBlock: FUNLAD_clean_linker_0, # of connection points: 2
#     Edge 17, Type (0, 0), BuildingBlock: FUNLAD_clean_linker_0, # of connection points: 2
#     Edge 18, Type (0, 0), BuildingBlock: FUNLAD_clean_linker_0, # of connection points: 2
#     Edge 19, Type (0, 0), BuildingBlock: FUNLAD_clean_linker_0, # of connection points: 2
#     Edge 20, Type (0, 0), BuildingBlock: FUNLAD_clean_linker_0, # of connection points: 2
#     Edge 21, Type (0, 0), BuildingBlock: FUNLAD_clean_linker_0, # of connection points: 2
#     Edge 22, Type (0, 0), BuildingBlock: FUNLAD_clean_linker_0, # of connection points: 2
#     Edge 23, Type (0, 0), BuildingBlock: FUNLAD_clean_linker_0, # of connection points: 2
# Relax obj value: 0.139
# Max RMSD: 0.138
# Mean RMSD: 0.138
data_MOF--net-dft--node1-NAHDIM_clean_sbu_0--edge1-FUNLAD_clean_linker_0
_symmetry_space_group_name_H-M    P1
_symmetry_Int_Tables_number       1
_symmetry_cell_setting            triclinic
loop_
_symmetry_equiv_pos_as_xyz
'x, y, z'
_cell_length_a     40.608371
_cell_length_b     40.542222
_cell_length_c     44.932538
_cell_angle_alpha  89.911016
_cell_angle_beta   89.978832
_cell_angle_gamma 89.898961
loop_
_atom_site_label
_atom_site_type_symbol
_atom_site_fract_x
_atom_site_fract_y
_atom_site_fract_z
_atom_type_partial_charge
C0 C 0.36005 0.02493 0.1875 0.0
O1 O 0.34838 0.05293 0.17716 0.0
O2 O 0.27475 0.04722 0.19883 0.0
Zn3 Zn 0.29277 0.00571 0.18017 0.0
O4 O 0.28841 0.00693 0.13543 0.0
C5 C 0.23734 0.96999 0.2032 0.0
O6 O 0.22348 -0.0008 0.20101 0.0
O7 O 0.3406 0.0007 0.19088 0.0
C8 C 0.26074 0.01112 0.12271 0.0
O9 O 0.23432 0.01554 0.1391 0.0
C10 C 0.27159 0.07454 0.18522 0.0
O11 O 0.28101 0.07685 0.15732 0.0
O12 O 0.26738 0.96663 0.1958 0.0
C13 C 0.0176 0.35974 0.73378 0.0
O14 O 0.00092 0.33816 0.74954 0.0
O15 O 0.97947 0.28732 0.70743 0.0
Zn16 Zn 0.02216 0.30584 0.69209 0.0
O17 O 0.02154 0.30743 0.64712 0.0
C18 C 0.05233 0.24415 0.70085 0.0
O19 O 0.02393 0.23542 0.68933 0.0
O20 O 0.0296 0.35122 0.7088 0.0
C21 C 0.00195 0.28933 0.63232 0.0
O22 O 0.98112 0.27029 0.64662 0.0
C23 C 0.95151 0.30145 0.70723 0.0
O24 O 0.9488 0.33153 0.69656 0.0
O25 O 0.05822 0.27464 0.70465 0.0
C26 C 0.65834 0.97642 0.19532 0.0
O27 O 0.67191 0.95416 0.17795 0.0
O28 O 0.74591 0.9558 0.20519 0.0
Zn29 Zn 0.72422 -0.00092 0.19517 0.0
O30 O 0.72751 0.00637 0.15109 0.0
C31 C 0.76075 0.03403 0.24099 0.0
O32 O 0.75619 0.00697 0.25655 0.0
O33 O 0.67639 -0.0012 0.20645 0.0
C34 C 0.75535 0.00507 0.13823 0.0
O35 O 0.78171 -0.00163 0.15409 0.0
C36 C 0.73736 0.93759 0.22689 0.0
O37 O 0.7128 0.94684 0.24401 0.0
O38 O 0.74853 0.03618 0.21503 0.0
C39 C -0.00351 0.65579 0.74798 0.0
O40 O 0.01673 0.6744 0.76334 0.0
O41 O 0.03775 0.72657 0.72716 0.0
Zn42 Zn -0.00623 0.71328 0.71049 0.0
O43 O -0.00365 0.71355 0.66569 0.0
C44 C 0.96783 0.77521 0.73058 0.0
O45 O -0.00066 0.78229 0.73183 0.0
O46 O 0.98275 0.66755 0.72484 0.0
C47 C 0.00508 0.73993 0.65257 0.0
O48 O 0.01246 0.76593 0.66862 0.0
C49 C 0.06508 0.71867 0.71537 0.0
O50 O 0.06529 0.70075 0.69104 0.0
O51 O 0.9591 0.74636 0.72285 0.0
C52 C 0.36051 0.97269 0.79233 0.0
O53 O 0.35205 0.95361 0.81471 0.0
O54 O 0.27633 0.93385 0.77207 0.0
Zn55 Zn 0.29119 0.97754 0.7883 0.0
O56 O 0.2888 0.97763 0.83308 0.0
C57 C 0.23395 0.00794 0.76199 0.0
O58 O 0.22335 0.97735 0.76162 0.0
O59 O 0.3381 0.98579 0.77652 0.0
C60 C 0.26265 0.98313 0.84781 0.0
O61 O 0.23499 0.98879 0.83351 0.0
C62 C 0.27712 0.90732 0.78714 0.0
O63 O 0.28892 0.90785 0.81436 0.0
O64 O 0.26245 0.01401 0.77228 0.0
C65 C 0.02696 0.36034 0.26167 0.0
O66 O 0.05341 0.34404 0.25345 0.0
O67 O 0.05184 0.27893 0.27717 0.0
Zn68 Zn 0.01305 0.30138 0.29649 0.0
O69 O 0.01982 0.30655 0.3407 0.0
C70 C 0.97493 0.24274 0.28766 0.0
O71 O 0.00422 0.22908 0.28944 0.0
O72 O 0.00643 0.34667 0.27912 0.0
C73 C 0.02493 0.28205 0.35776 0.0
O74 O 0.02693 0.25236 0.34624 0.0
C75 C 0.08089 0.27873 0.28767 0.0
O76 O 0.087 0.29422 0.31271 0.0
O77 O 0.97238 0.27391 0.28971 0.0
C78 C 0.65131 0.05379 0.80592 0.0
O79 O 0.66223 0.07485 0.82578 0.0
O80 O 0.74195 0.07558 0.78525 0.0
Zn81 Zn 0.71918 0.03732 0.80477 0.0
O82 O 0.72102 0.04135 0.84926 0.0
C83 C 0.7596 0.99291 0.77016 0.0
O84 O 0.76198 0.01855 0.75237 0.0
O85 O 0.67175 0.03516 0.79266 0.0
C86 C 0.7475 0.03682 0.86374 0.0
O87 O 0.77483 0.03044 0.84917 0.0
C88 C 0.74361 0.10436 0.79628 0.0
O89 O 0.72912 0.11047 0.82183 0.0
O90 O 0.7421 -0.00491 0.79352 0.0
C91 C 0.98774 0.65717 0.27828 0.0
O92 O 0.96396 0.67662 0.269 0.0
O93 O 0.96276 0.73513 0.30464 0.0
Zn94 Zn 0.00508 0.71268 0.31606 0.0
O95 O 0.00782 0.70879 0.3606 0.0
C96 C 0.04038 0.75141 0.27432 0.0
O97 O 0.01524 0.74258 0.25776 0.0
O98 O 0.00782 0.66754 0.29783 0.0
C99 C 0.01164 0.73447 0.37638 0.0
O100 O 0.01401 0.76329 0.36314 0.0
C101 C 0.93636 0.73419 0.31981 0.0
O102 O 0.93563 0.71719 0.34472 0.0
O103 O 0.04218 0.74076 0.30088 0.0
C104 C 0.28626 0.00456 0.07227 0.0
C105 C 0.25823 0.01039 0.08986 0.0
C106 C 0.28376 0.00305 0.04129 0.0
C107 C 0.25307 0.00717 0.02718 0.0
C108 C 0.22523 0.01377 0.04473 0.0
C109 C 0.22771 0.0152 0.07573 0.0
C110 C 0.24927 0.00564 0.99429 0.0
C111 C 0.26979 0.98845 0.9765 0.0
C112 C 0.26677 0.98708 0.94353 0.0
C113 C 0.29467 0.97838 0.92684 0.0
C114 C 0.29327 0.97695 0.89583 0.0
C115 C 0.26376 0.98394 0.88073 0.0
H116 H 0.21463 -0.00075 0.94043 0.0
C117 C 0.23559 0.992 0.89738 0.0
C118 C 0.23701 0.99351 0.92846 0.0
H119 H 0.2124 -0.00276 0.88643 0.0
H120 H 0.31022 0.0011 0.08243 0.0
H121 H 0.30606 -0.00084 0.02858 0.0
H122 H 0.20136 0.01743 0.03445 0.0
H123 H 0.20566 0.01994 0.0886 0.0
H124 H 0.22854 0.01884 0.98474 0.0
H125 H 0.29029 0.97508 0.98629 0.0
H126 H 0.31783 0.97299 0.93782 0.0
H127 H 0.31541 0.97047 0.88371 0.0
C128 C 0.027 0.30712 0.58379 0.0
C129 C 0.00382 0.28809 0.59944 0.0
C130 C 0.02968 0.30458 0.55283 0.0
C131 C 0.00907 0.28301 0.53688 0.0
C132 C 0.98585 0.26419 0.55258 0.0
C133 C 0.98312 0.26678 0.58345 0.0
C134 C 0.01183 0.27824 0.50419 0.0
C135 C 0.02503 0.30057 0.48544 0.0
C136 C 0.02648 0.2953 0.45276 0.0
C137 C 0.02535 0.32272 0.43369 0.0
C138 C 0.02531 0.3185 0.40281 0.0
C139 C 0.02683 0.28673 0.39037 0.0
H140 H 0.03125 0.2419 0.45429 0.0
C141 C 0.02922 0.25935 0.40946 0.0
C142 C 0.02911 0.26356 0.44031 0.0
H143 H 0.0308 0.23456 0.40062 0.0
H144 H 0.04348 0.32361 0.59548 0.0
H145 H 0.04849 0.31888 0.54171 0.0
H146 H 0.96977 0.24727 0.54092 0.0
H147 H 0.96504 0.2517 0.59479 0.0
H148 H 0.001 0.25594 0.49511 0.0
H149 H 0.03304 0.32432 0.49384 0.0
H150 H 0.02374 0.34745 0.44269 0.0
H151 H 0.0237 0.34015 0.38872 0.0
C152 C 0.77541 0.02897 0.91304 0.0
C153 C 0.74686 0.03637 0.89666 0.0
C154 C 0.77419 0.02644 0.94407 0.0
C155 C 0.74432 0.03147 0.95939 0.0
C156 C 0.71596 0.03929 0.94297 0.0
C157 C 0.7172 0.04185 0.91201 0.0
C158 C 0.74108 0.02706 0.99212 0.0
C159 C 0.76648 0.02856 0.01138 0.0
C160 C 0.76285 0.02304 0.04397 0.0
C161 C 0.7907 0.01373 0.06052 0.0
C162 C 0.78833 0.00787 0.09112 0.0
C163 C 0.75801 0.01136 0.10588 0.0
H164 H 0.71079 0.03558 0.04741 0.0
C165 C 0.73025 0.02124 0.08946 0.0
C166 C 0.73264 0.02722 0.05892 0.0
H167 H 0.70661 0.02462 0.10024 0.0
H168 H 0.79861 0.02439 0.90186 0.0
H169 H 0.79647 0.0195 0.95568 0.0
H170 H 0.69261 0.04316 0.95412 0.0
H171 H 0.69471 0.04758 0.9001 0.0
H172 H 0.71646 0.0222 0.00038 0.0
H173 H 0.79115 0.03324 0.00315 0.0
H174 H 0.81434 0.01062 0.04969 0.0
H175 H 0.81024 0.00046 0.10314 0.0
C176 C 0.0183 0.76019 0.42666 0.0
C177 C 0.01279 0.732 0.40923 0.0
C178 C 0.01894 0.75801 0.4577 0.0
C179 C 0.01372 0.72753 0.47206 0.0
C180 C 0.00882 0.6993 0.45456 0.0
C181 C 0.00826 0.70148 0.42352 0.0
C182 C 0.01382 0.72394 0.50504 0.0
C183 C 0.00846 0.74917 0.52396 0.0
C184 C 0.00822 0.74556 0.55689 0.0
C185 C 0.0146 0.77349 0.57436 0.0
C186 C 0.01391 0.77154 0.60539 0.0
C187 C 0.00644 0.74164 0.61969 0.0
H188 H -0.00546 0.69371 0.5586 0.0
C189 C -0.00019 0.71366 0.60226 0.0
C190 C 0.00063 0.71558 0.57118 0.0
H191 H -0.00627 0.6903 0.6126 0.0
H192 H 0.02226 0.78401 0.41634 0.0
H193 H 0.02401 0.78023 0.47012 0.0
H194 H 0.00505 0.67546 0.46494 0.0
H195 H 0.00408 0.67923 0.41075 0.0
H196 H 0.01798 0.69934 0.51384 0.0
H197 H 0.00434 0.77381 0.51529 0.0
H198 H 0.02025 0.79694 0.56397 0.0
H199 H 0.01901 0.79361 0.61813 0.0
C200 C 0.40849 0.99115 0.20411 0.0
C201 C 0.39556 0.02141 0.19416 0.0
C202 C 0.44227 0.98755 0.2092 0.0
C203 C 0.46385 0.01413 0.20425 0.0
C204 C 0.45073 0.04461 0.19527 0.0
C205 C 0.417 0.04821 0.19015 0.0
C206 C 0.5001 0.01112 0.20789 0.0
C207 C 0.51652 0.98237 0.20513 0.0
C208 C 0.55305 0.9802 0.20494 0.0
C209 C 0.57308 0.00353 0.21939 0.0
C210 C 0.60735 0.00184 0.21688 0.0
C211 C 0.6223 0.97674 0.20005 0.0
H212 H 0.55328 0.93578 0.17827 0.0
C213 C 0.60233 0.95264 0.18676 0.0
C214 C 0.56809 0.9543 0.18931 0.0
H215 H 0.61307 0.9328 0.17386 0.0
H216 H 0.39256 0.97013 0.20777 0.0
H217 H 0.45122 0.96396 0.2171 0.0
H218 H 0.46673 0.06559 0.19157 0.0
H219 H 0.40783 0.07194 0.18273 0.0
H220 H 0.51386 0.03391 0.21022 0.0
H221 H 0.50305 0.95999 0.19998 0.0
H222 H 0.56247 0.02317 0.23257 0.0
H223 H 0.62207 0.02054 0.22774 0.0
C224 C -0.00303 0.4072 0.76403 0.0
C225 C 0.01987 0.39437 0.74362 0.0
C226 C -0.00291 0.44076 0.77109 0.0
C227 C 0.02046 0.46194 0.75815 0.0
C228 C 0.0444 0.44877 0.73903 0.0
C229 C 0.04388 0.41537 0.73152 0.0
C230 C 0.01979 0.49799 0.76322 0.0
C231 C 0.99143 0.51512 0.76482 0.0
C232 C 0.99088 0.55161 0.76374 0.0
C233 C 0.96654 0.56752 0.74683 0.0
C234 C 0.96772 0.60161 0.74238 0.0
C235 C 0.99289 0.62047 0.75536 0.0
H236 H 0.03376 0.55906 0.79169 0.0
C237 C 0.01601 0.60478 0.77389 0.0
C238 C 0.01514 0.57062 0.77792 0.0
H239 H 0.03559 0.61868 0.78437 0.0
H240 H 0.97824 0.39155 0.77379 0.0
H241 H 0.97878 0.45015 0.78643 0.0
H242 H 0.0628 0.46461 0.72898 0.0
H243 H 0.06201 0.40609 0.71595 0.0
H244 H 0.04304 0.51115 0.76174 0.0
H245 H 0.96807 0.50225 0.76291 0.0
H246 H 0.94744 0.55336 0.7359 0.0
H247 H 0.94938 0.61307 0.72823 0.0
C248 C 0.60362 0.02736 0.77992 0.0
C249 C 0.61555 0.04901 0.8018 0.0
C250 C 0.57004 0.02012 0.77824 0.0
C251 C 0.54779 0.03439 0.7985 0.0
C252 C 0.55962 0.05674 0.81973 0.0
C253 C 0.5931 0.06421 0.82124 0.0
C254 C 0.51281 0.02425 0.80001 0.0
C255 C 0.49579 0.01238 0.7767 0.0
C256 C 0.46146 0.00077 0.78013 0.0
C257 C 0.43835 0.00702 0.75764 0.0
C258 C 0.40549 -0.00246 0.76132 0.0
C259 C 0.39546 0.98099 0.78731 0.0
H260 H 0.46917 0.97731 0.82303 0.0
C261 C 0.419 0.97348 0.8092 0.0
C262 C 0.45163 0.98335 0.8057 0.0
H263 H 0.41212 0.96058 0.82938 0.0
H264 H 0.62034 0.01522 0.76464 0.0
H265 H 0.56191 0.00224 0.76197 0.0
H266 H 0.54299 0.06795 0.83567 0.0
H267 H 0.60148 0.08097 0.83837 0.0
H268 H 0.50041 0.02712 0.82131 0.0
H269 H 0.50653 0.01245 0.75457 0.0
H270 H 0.44552 0.02004 0.73759 0.0
H271 H 0.38792 0.00342 0.74396 0.0
C272 C -0.00564 0.41274 0.26206 0.0
C273 C 0.02282 0.39544 0.25347 0.0
C274 C 0.99202 0.44674 0.25756 0.0
C275 C 0.01811 0.46419 0.24425 0.0
C276 C 0.04598 0.44667 0.23462 0.0
C277 C 0.04826 0.4126 0.239 0.0
C278 C 0.01877 0.5008 0.24346 0.0
C279 C 0.99155 0.51972 0.24514 0.0
C280 C 0.99272 0.55575 0.25084 0.0
C281 C 0.96577 0.57548 0.24266 0.0
C282 C 0.96458 0.60878 0.25068 0.0
C283 C 0.99013 0.62282 0.2675 0.0
H284 H 0.03945 0.55553 0.27455 0.0
C285 C 0.0174 0.60323 0.27519 0.0
C286 C 0.0187 0.57008 0.267 0.0
H287 H 0.03747 0.61329 0.28817 0.0
H288 H 0.97431 0.40024 0.27325 0.0
H289 H 0.97046 0.45931 0.26602 0.0
H290 H 0.06651 0.45952 0.22449 0.0
H291 H 0.07052 0.4 0.23208 0.0
H292 H 0.0428 0.51248 0.24251 0.0
H293 H 0.9674 0.5085 0.24307 0.0
H294 H 0.94529 0.56497 0.23051 0.0
H295 H 0.94318 0.62322 0.24447 0.0
C296 C 0.13801 0.25516 0.28556 0.0
C297 C 0.10717 0.26024 0.27212 0.0
C298 C 0.16209 0.2361 0.27139 0.0
C299 C 0.15573 0.22178 0.24346 0.0
C300 C 0.12541 0.22798 0.22958 0.0
C301 C 0.10129 0.24679 0.24381 0.0
C302 C 0.1797 0.19982 0.22828 0.0
C303 C 0.20138 0.18073 0.2431 0.0
C304 C 0.22156 0.15502 0.22819 0.0
C305 C 0.23026 0.12666 0.24431 0.0
C306 C 0.24702 0.10076 0.2305 0.0
C307 C 0.25583 0.10288 0.20029 0.0
H308 H 0.22619 0.17971 0.18542 0.0
C309 C 0.24845 0.1319 0.18448 0.0
C310 C 0.23151 0.15775 0.19828 0.0
H311 H 0.25523 0.13447 0.16128 0.0
H312 H 0.1434 0.26547 0.30725 0.0
H313 H 0.18556 0.23269 0.28236 0.0
H314 H 0.11999 0.21752 0.20795 0.0
H315 H 0.07791 0.25049 0.23269 0.0
H316 H 0.17691 0.19679 0.2044 0.0
H317 H 0.20191 0.18137 0.26726 0.0
H318 H 0.22319 0.12407 0.26746 0.0
H319 H 0.2526 0.07888 0.24341 0.0
C320 C 0.92537 0.25007 0.72645 0.0
C321 C 0.92238 0.28344 0.7184 0.0
C322 C 0.89812 0.23246 0.73648 0.0
C323 C 0.8671 0.24773 0.73863 0.0
C324 C 0.86418 0.28131 0.73138 0.0
C325 C 0.89154 0.29899 0.72109 0.0
C326 C 0.83797 0.22908 0.74926 0.0
C327 C 0.83424 0.19679 0.74319 0.0
C328 C 0.80781 0.17559 0.75559 0.0
C329 C 0.80192 0.14506 0.74197 0.0
C330 C 0.78021 0.12245 0.75466 0.0
C331 C 0.764 0.12976 0.78149 0.0
H332 H 0.7951 0.20643 0.7935 0.0
C333 C 0.769 0.16075 0.79471 0.0
C334 C 0.79076 0.18347 0.78194 0.0
H335 H 0.75691 0.1671 0.81542 0.0
H336 H 0.9488 0.23737 0.72492 0.0
H337 H 0.90156 0.20693 0.74291 0.0
H338 H 0.84063 0.29372 0.73326 0.0
H339 H 0.88853 0.32475 0.71528 0.0
H340 H 0.81923 0.24236 0.76165 0.0
H341 H 0.85169 0.18494 0.72826 0.0
H342 H 0.81479 0.13829 0.72174 0.0
H343 H 0.77686 0.09886 0.7438 0.0
C344 C 0.90815 0.77038 0.28266 0.0
C345 C 0.90736 0.75342 0.30994 0.0
C346 C 0.88172 0.79012 0.27384 0.0
C347 C 0.85366 0.79321 0.29203 0.0
C348 C 0.85274 0.77602 0.31918 0.0
C349 C 0.87922 0.75614 0.32799 0.0
C350 C 0.82636 0.81621 0.28446 0.0
C351 C 0.8195 0.8256 0.25634 0.0
C352 C 0.79621 0.85261 0.24868 0.0
C353 C 0.80089 0.8695 0.22173 0.0
C354 C 0.78138 0.89669 0.21443 0.0
C355 C 0.75641 0.9074 0.2338 0.0
H356 H 0.76524 0.8495 0.28811 0.0
C357 C 0.75069 0.88966 0.2602 0.0
C358 C 0.77038 0.8625 0.2676 0.0
H359 H 0.73139 0.89708 0.27544 0.0
H360 H 0.92953 0.76899 0.26827 0.0
H361 H 0.88408 0.8038 0.25327 0.0
H362 H 0.8316 0.77825 0.33377 0.0
H363 H 0.87789 0.74348 0.3492 0.0
H364 H 0.81257 0.82656 0.30291 0.0
H365 H 0.83316 0.81473 0.23803 0.0
H366 H 0.82039 0.86225 0.20661 0.0
H367 H 0.78625 0.9096 0.19377 0.0
C368 C 0.12566 0.72991 0.71189 0.0
C369 C 0.09608 0.73144 0.72808 0.0
C370 C 0.15418 0.74485 0.7229 0.0
C371 C 0.15358 0.76149 0.75036 0.0
C372 C 0.12452 0.7613 0.76724 0.0
C373 C 0.096 0.74667 0.75615 0.0
C374 C 0.18198 0.78083 0.7615 0.0
C375 C 0.20307 0.79653 0.7432 0.0
C376 C 0.22585 0.8225 0.75394 0.0
C377 C 0.23281 0.8492 0.73509 0.0
C378 C 0.25045 0.87631 0.74558 0.0
C379 C 0.26189 0.87706 0.77509 0.0
H380 H 0.23501 0.80163 0.79774 0.0
C381 C 0.25684 0.84937 0.79338 0.0
C382 C 0.23898 0.82232 0.78292 0.0
H383 H 0.26572 0.849 0.81611 0.0
H384 H 0.12657 0.71802 0.69033 0.0
H385 H 0.17646 0.74366 0.70971 0.0
H386 H 0.12348 0.77367 0.78859 0.0
H387 H 0.07371 0.7479 0.76934 0.0
H388 H 0.1826 0.78603 0.7852 0.0
H389 H 0.20037 0.79387 0.71928 0.0
H390 H 0.22328 0.8498 0.71256 0.0
H391 H 0.25428 0.89707 0.73079 0.0
C392 C 0.80221 0.96202 0.74111 0.0
C393 C 0.77892 0.96266 0.76424 0.0
C394 C 0.82217 0.93434 0.73683 0.0
C395 C 0.81925 0.90671 0.75563 0.0
C396 C 0.79501 0.90677 0.77787 0.0
C397 C 0.77519 0.93456 0.78231 0.0
C398 C 0.84133 0.87769 0.75267 0.0
C399 C 0.87293 0.88068 0.744 0.0
C400 C 0.89635 0.85261 0.74206 0.0
C401 C 0.93017 0.85926 0.74389 0.0
C402 C 0.95325 0.83396 0.74095 0.0
C403 C 0.94305 0.80138 0.73572 0.0
H404 H 0.86017 0.81394 0.73493 0.0
C405 C 0.90916 0.79458 0.73407 0.0
C406 C 0.88599 0.81994 0.7372 0.0
H407 H 0.90051 0.76975 0.72986 0.0
H408 H 0.80548 0.98312 0.7266 0.0
H409 H 0.83986 0.93469 0.71881 0.0
H410 H 0.79202 0.88563 0.7924 0.0
H411 H 0.75728 0.93416 0.80017 0.0
H412 H 0.83204 0.85393 0.75998 0.0
H413 H 0.88279 0.90512 0.73965 0.0
H414 H 0.93882 0.88421 0.74749 0.0
H415 H 0.97915 0.84013 0.74224 0.0
C416 C 0.18361 0.94428 0.21713 0.0
C417 C 0.21782 0.94131 0.2133 0.0
C418 C 0.16486 0.91719 0.22605 0.0
C419 C 0.17994 0.88647 0.23135 0.0
C420 C 0.21421 0.88367 0.22821 0.0
C421 C 0.23298 0.91074 0.21901 0.0
C422 C 0.16055 0.8574 0.24109 0.0
C423 C 0.12919 0.85258 0.2324 0.0
C424 C 0.10853 0.82465 0.24272 0.0
C425 C 0.08157 0.81507 0.22526 0.0
C426 C 0.06003 0.79058 0.23513 0.0
C427 C 0.06474 0.77542 0.26295 0.0
H428 H 0.13369 0.81628 0.28478 0.0
C429 C 0.09199 0.78463 0.28031 0.0
C430 C 0.11369 0.80901 0.27033 0.0
H431 H 0.09622 0.77351 0.30191 0.0
H432 H 0.17118 0.96753 0.21312 0.0
H433 H 0.13864 0.92055 0.22919 0.0
H434 H 0.22645 0.86037 0.23252 0.0
H435 H 0.25933 0.90772 0.21645 0.0
H436 H 0.1729 0.83901 0.25471 0.0
H437 H 0.11823 0.86941 0.21636 0.0
H438 H 0.07691 0.82685 0.204 0.0
H439 H 0.03924 0.78413 0.22123 0.0
C440 C 0.0688 0.1851 0.70618 0.0
C441 C 0.07673 0.21865 0.70916 0.0
C442 C 0.09151 0.16071 0.71389 0.0
C443 C 0.12297 0.16928 0.72448 0.0
C444 C 0.13073 0.20282 0.72788 0.0
C445 C 0.10791 0.2273 0.7202 0.0
C446 C 0.14764 0.14395 0.73331 0.0
C447 C 0.1476 0.11294 0.7225 0.0
C448 C 0.17073 0.08673 0.73244 0.0
C449 C 0.16118 0.05367 0.72918 0.0
C450 C 0.18174 0.02812 0.73866 0.0
C451 C 0.21256 0.03506 0.75134 0.0
H452 H 0.21063 0.11878 0.74667 0.0
C453 C 0.22253 0.06811 0.75401 0.0
C454 C 0.20186 0.09371 0.74464 0.0
H455 H 0.24626 0.07427 0.76347 0.0
H456 H 0.04484 0.17756 0.6981 0.0
H457 H 0.0839 0.13525 0.71205 0.0
H458 H 0.15461 0.21013 0.73633 0.0
H459 H 0.11472 0.25294 0.72289 0.0
H460 H 0.1662 0.15131 0.74933 0.0
H461 H 0.12918 0.10576 0.70628 0.0
H462 H 0.13746 0.04757 0.71962 0.0
H463 H 0.17338 0.00292 0.73611 0.0
C464 C 0.94826 0.18739 0.28401 0.0
C465 C 0.9454 0.22192 0.28358 0.0
C466 C 0.92061 0.1675 0.27991 0.0
C467 C 0.88938 0.18174 0.27537 0.0
C468 C 0.88655 0.21624 0.27474 0.0
C469 C 0.91422 0.23618 0.27902 0.0
C470 C 0.85988 0.16123 0.26927 0.0
C471 C 0.85667 0.13006 0.2793 0.0
C472 C 0.8293 0.10778 0.2706 0.0
C473 C 0.8229 0.07983 0.28815 0.0
C474 C 0.79972 0.05644 0.27914 0.0
C475 C 0.78266 0.06037 0.25217 0.0
H476 H 0.81623 0.13286 0.22938 0.0
C477 C 0.78839 0.08878 0.23497 0.0
C478 C 0.8115 0.11218 0.24401 0.0
H479 H 0.77575 0.09252 0.21401 0.0
H480 H 0.97194 0.1756 0.2873 0.0
H481 H 0.92405 0.14104 0.27952 0.0
H482 H 0.86285 0.22783 0.27092 0.0
H483 H 0.91121 0.26272 0.27846 0.0
H484 H 0.84019 0.17247 0.25642 0.0
H485 H 0.87492 0.12018 0.29458 0.0
H486 H 0.83639 0.07569 0.30863 0.0
H487 H 0.79593 0.03482 0.2929 0.0
loop_
_geom_bond_atom_site_label_1
_geom_bond_atom_site_label_2
_geom_bond_distance
_geom_bond_site_symmetry_2
_ccdc_geom_bond_type
C0 O1 1.160 . S
C0 O7 1.185 . S
O1 C0 1.160 . S
O2 Zn3 1.899 . S
O2 C10 1.284 . S
Zn3 O2 1.899 . S
Zn3 O4 2.032 . S
Zn3 O7 2.086 . S
Zn3 O12 1.977 1_545 S
O4 Zn3 2.032 . S
O4 C8 1.278 . S
C5 O6 1.203 . S
C5 O12 1.267 . S
O6 C5 1.203 . S
O7 C0 1.185 . S
O7 Zn3 2.086 . S
C8 O4 1.278 . S
C8 O9 1.200 1_545 S
O9 C8 1.200 1_565 S
C10 O2 1.284 . S
C10 O11 1.273 . S
O11 C10 1.273 . S
O12 Zn3 1.977 1_565 S
O12 C5 1.267 . S
C13 O14 1.160 1_455 S
C13 O20 1.185 . S
O14 C13 1.160 1_655 S
O15 Zn16 1.899 1_655 S
O15 C23 1.284 . S
Zn16 O15 1.899 1_455 S
Zn16 O17 2.032 . S
Zn16 O20 2.086 . S
Zn16 O25 1.977 . S
O17 Zn16 2.032 . S
O17 C21 1.278 . S
C18 O19 1.203 . S
C18 O25 1.267 . S
O19 C18 1.203 . S
O20 C13 1.185 . S
O20 Zn16 2.086 . S
C21 O17 1.278 . S
C21 O22 1.211 . S
O22 C21 1.211 . S
C23 O15 1.284 . S
C23 O24 1.273 . S
O24 C23 1.273 . S
O25 Zn16 1.977 . S
O25 C18 1.267 . S
C26 O27 1.160 1_545 S
C26 O33 1.185 . S
O27 C26 1.160 1_565 S
O28 Zn29 1.899 1_565 S
O28 C36 1.284 . S
Zn29 O28 1.899 1_545 S
Zn29 O30 2.032 . S
Zn29 O33 2.086 . S
Zn29 O38 1.977 . S
O30 Zn29 2.032 . S
O30 C34 1.278 . S
C31 O32 1.203 . S
C31 O38 1.267 . S
O32 C31 1.203 . S
O33 C26 1.185 . S
O33 Zn29 2.086 . S
C34 O30 1.278 . S
C34 O35 1.211 . S
O35 C34 1.211 . S
C36 O28 1.284 . S
C36 O37 1.273 . S
O37 C36 1.273 . S
O38 Zn29 1.977 . S
O38 C31 1.267 . S
C39 O40 1.160 . S
C39 O46 1.185 . S
O40 C39 1.160 . S
O41 Zn42 1.899 . S
O41 C49 1.284 . S
Zn42 O41 1.899 . S
Zn42 O43 2.032 . S
Zn42 O46 2.086 . S
Zn42 O51 1.977 1_455 S
O43 Zn42 2.032 . S
O43 C47 1.278 . S
C44 O45 1.203 . S
C44 O51 1.267 . S
O45 C44 1.203 . S
O46 C39 1.185 . S
O46 Zn42 2.086 . S
C47 O43 1.278 . S
C47 O48 1.201 1_455 S
O48 C47 1.201 1_655 S
C49 O41 1.284 . S
C49 O50 1.273 . S
O50 C49 1.273 . S
O51 Zn42 1.977 1_655 S
O51 C44 1.267 . S
C52 O53 1.160 1_545 S
C52 O59 1.185 . S
O53 C52 1.160 1_565 S
O54 Zn55 1.899 1_565 S
O54 C62 1.284 . S
Zn55 O54 1.899 1_545 S
Zn55 O56 2.032 . S
Zn55 O59 2.086 . S
Zn55 O64 1.977 . S
O56 Zn55 2.032 . S
O56 C60 1.278 . S
C57 O58 1.203 . S
C57 O64 1.267 . S
O58 C57 1.203 . S
O59 C52 1.185 . S
O59 Zn55 2.086 . S
C60 O56 1.278 . S
C60 O61 1.211 . S
O61 C60 1.211 . S
C62 O54 1.284 . S
C62 O63 1.273 . S
O63 C62 1.273 . S
O64 Zn55 1.977 . S
O64 C57 1.267 . S
C65 O66 1.160 . S
C65 O72 1.185 . S
O66 C65 1.160 . S
O67 Zn68 1.899 . S
O67 C75 1.284 . S
Zn68 O67 1.899 . S
Zn68 O69 2.032 . S
Zn68 O72 2.086 . S
Zn68 O77 1.977 1_455 S
O69 Zn68 2.032 . S
O69 C73 1.278 . S
C70 O71 1.203 . S
C70 O77 1.267 . S
O71 C70 1.203 . S
O72 C65 1.185 . S
O72 Zn68 2.086 . S
C73 O69 1.278 . S
C73 O74 1.200 1_455 S
O74 C73 1.200 1_655 S
C75 O67 1.284 . S
C75 O76 1.273 . S
O76 C75 1.273 . S
O77 Zn68 1.977 1_655 S
O77 C70 1.267 . S
C78 O79 1.160 . S
C78 O85 1.185 . S
O79 C78 1.160 . S
O80 Zn81 1.899 . S
O80 C88 1.284 . S
Zn81 O80 1.899 . S
Zn81 O82 2.032 . S
Zn81 O85 2.086 . S
Zn81 O90 1.977 1_545 S
O82 Zn81 2.032 . S
O82 C86 1.278 . S
C83 O84 1.203 . S
C83 O90 1.267 . S
O84 C83 1.203 . S
O85 C78 1.185 . S
O85 Zn81 2.086 . S
C86 O82 1.278 . S
C86 O87 1.201 1_545 S
O87 C86 1.201 1_565 S
C88 O80 1.284 . S
C88 O89 1.273 . S
O89 C88 1.273 . S
O90 Zn81 1.977 1_565 S
O90 C83 1.267 . S
C91 O92 1.160 1_455 S
C91 O98 1.185 . S
O92 C91 1.160 1_655 S
O93 Zn94 1.899 1_655 S
O93 C101 1.284 . S
Zn94 O93 1.899 1_455 S
Zn94 O95 2.032 . S
Zn94 O98 2.086 . S
Zn94 O103 1.977 . S
O95 Zn94 2.032 . S
O95 C99 1.278 . S
C96 O97 1.203 . S
C96 O103 1.267 . S
O97 C96 1.203 . S
O98 C91 1.185 . S
O98 Zn94 2.086 . S
C99 O95 1.278 . S
C99 O100 1.211 . S
O100 C99 1.211 . S
C101 O93 1.284 . S
C101 O102 1.273 . S
O102 C101 1.273 . S
O103 Zn94 1.977 . S
O103 C96 1.267 . S
C104 C105 1.386 . S
C104 C106 1.383 . S
C104 H120 0.951 . S
C105 C104 1.386 . S
C105 C109 1.383 . S
C106 C104 1.383 . S
C106 C107 1.402 . S
C106 H121 0.951 . S
C107 C106 1.402 . S
C107 C108 1.375 . S
C107 C110 1.481 . S
C108 C107 1.375 . S
C108 C109 1.367 . S
C108 H122 0.951 . S
C109 C105 1.383 . S
C109 C108 1.367 . S
C109 H123 0.950 . S
C110 C107 1.481 . S
C110 C111 1.294 1_544 S
C110 H124 0.950 . S
C111 C110 1.294 1_566 S
C111 C112 1.480 . S
C111 H125 0.955 . S
C112 C111 1.480 . S
C112 C113 1.375 1_565 S
C112 C118 1.404 . S
C113 C112 1.375 1_545 S
C113 C114 1.369 . S
C113 H126 0.950 . S
C114 C113 1.369 . S
C114 C115 1.392 . S
C114 H127 0.951 . S
C115 C114 1.392 . S
C115 C117 1.383 1_545 S
H116 C118 0.949 . S
C117 C115 1.383 1_565 S
C117 C118 1.385 . S
C117 H119 0.951 . S
C118 C112 1.404 . S
C118 H116 0.949 . S
C118 C117 1.385 . S
H119 C117 0.951 . S
H120 C104 0.951 . S
H121 C106 0.951 . S
H122 C108 0.951 . S
H123 C109 0.950 . S
H124 C110 0.950 . S
H125 C111 0.955 . S
H126 C113 0.950 . S
H127 C114 0.951 . S
C128 C129 1.386 . S
C128 C130 1.383 . S
C128 H144 0.951 . S
C129 C128 1.386 . S
C129 C133 1.383 1_455 S
C130 C128 1.383 . S
C130 C131 1.402 . S
C130 H145 0.951 . S
C131 C130 1.402 . S
C131 C132 1.375 1_455 S
C131 C134 1.481 . S
C132 C131 1.375 1_655 S
C132 C133 1.367 . S
C132 H146 0.951 . S
C133 C129 1.383 1_655 S
C133 C132 1.367 . S
C133 H147 0.950 . S
C134 C131 1.481 . S
C134 C135 1.297 . S
C134 H148 0.950 1_455 S
C135 C134 1.297 . S
C135 C136 1.479 . S
C135 H149 0.950 . S
C136 C135 1.479 . S
C136 C137 1.375 . S
C136 C142 1.404 . S
C137 C136 1.375 . S
C137 C138 1.369 . S
C137 H150 0.950 . S
C138 C137 1.369 . S
C138 C139 1.392 . S
C138 H151 0.951 . S
C139 C138 1.392 . S
C139 C141 1.384 . S
H140 C142 0.949 1_655 S
C141 C139 1.384 . S
C141 C142 1.385 . S
C141 H143 0.950 1_455 S
C142 C136 1.404 . S
C142 H140 0.949 1_455 S
C142 C141 1.385 . S
H143 C141 0.950 1_655 S
H144 C128 0.951 . S
H145 C130 0.951 . S
H146 C132 0.951 . S
H147 C133 0.950 . S
H148 C134 0.950 1_655 S
H149 C135 0.950 . S
H150 C137 0.950 . S
H151 C138 0.951 . S
C152 C153 1.386 . S
C152 C154 1.383 . S
C152 H168 0.951 . S
C153 C152 1.386 . S
C153 C157 1.383 . S
C154 C152 1.383 . S
C154 C155 1.402 . S
C154 H169 0.951 . S
C155 C154 1.402 . S
C155 C156 1.375 . S
C155 C158 1.481 . S
C156 C155 1.375 . S
C156 C157 1.367 . S
C156 H170 0.951 . S
C157 C153 1.383 . S
C157 C156 1.367 . S
C157 H171 0.950 . S
C158 C155 1.481 . S
C158 C159 1.297 1_556 S
C158 H172 0.950 . S
C159 C158 1.297 1_554 S
C159 C160 1.479 . S
C159 H173 0.950 . S
C160 C159 1.479 . S
C160 C161 1.375 . S
C160 C166 1.404 . S
C161 C160 1.375 . S
C161 C162 1.369 . S
C161 H174 0.950 . S
C162 C161 1.369 . S
C162 C163 1.392 . S
C162 H175 0.951 . S
C163 C162 1.392 . S
C163 C165 1.384 . S
H164 C166 0.949 . S
C165 C163 1.384 . S
C165 C166 1.385 . S
C165 H167 0.950 . S
C166 C160 1.404 . S
C166 H164 0.949 . S
C166 C165 1.385 . S
H167 C165 0.950 . S
H168 C152 0.951 . S
H169 C154 0.951 . S
H170 C156 0.951 . S
H171 C157 0.950 . S
H172 C158 0.950 . S
H173 C159 0.950 . S
H174 C161 0.950 . S
H175 C162 0.951 . S
C176 C177 1.386 1_655 S
C176 C178 1.383 . S
C176 H192 0.951 . S
C177 C176 1.386 1_455 S
C177 C181 1.383 . S
C178 C176 1.383 . S
C178 C179 1.402 1_655 S
C178 H193 0.951 . S
C179 C178 1.402 1_455 S
C179 C180 1.375 . S
C179 C182 1.481 . S
C180 C179 1.375 . S
C180 C181 1.367 . S
C180 H194 0.951 . S
C181 C177 1.383 . S
C181 C180 1.367 . S
C181 H195 0.950 . S
C182 C179 1.481 . S
C182 C183 1.297 1_455 S
C182 H196 0.950 . S
C183 C182 1.297 1_655 S
C183 C184 1.478 1_655 S
C183 H197 0.950 . S
C184 C183 1.478 1_455 S
C184 C185 1.368 1_455 S
C184 C190 1.414 . S
C185 C184 1.368 1_655 S
C185 C186 1.369 . S
C185 H198 0.950 . S
C186 C185 1.369 . S
C186 C187 1.392 1_655 S
C186 H199 0.951 . S
C187 C186 1.392 1_455 S
C187 C189 1.384 . S
H188 C190 0.949 . S
C189 C187 1.384 . S
C189 C190 1.385 . S
C189 H191 0.950 . S
C190 C184 1.414 . S
C190 H188 0.949 . S
C190 C189 1.385 . S
H191 C189 0.950 . S
H192 C176 0.951 . S
H193 C178 0.951 . S
H194 C180 0.951 . S
H195 C181 0.950 . S
H196 C182 0.950 . S
H197 C183 0.950 . S
H198 C185 0.950 . S
H199 C186 0.951 . S
C200 C201 1.386 . S
C200 C202 1.383 . S
C200 H216 0.951 . S
C201 C200 1.386 . S
C201 C205 1.383 . S
C202 C200 1.383 . S
C202 C203 1.402 . S
C202 H217 0.951 . S
C203 C202 1.402 . S
C203 C204 1.375 . S
C203 C206 1.481 . S
C204 C203 1.375 . S
C204 C205 1.367 . S
C204 H218 0.951 . S
C205 C201 1.383 . S
C205 C204 1.367 . S
C205 H219 0.950 . S
C206 C203 1.481 . S
C206 C207 1.297 1_545 S
C206 H220 0.950 . S
C207 C206 1.297 1_565 S
C207 C208 1.479 . S
C207 H221 0.950 . S
C208 C207 1.479 . S
C208 C209 1.375 . S
C208 C214 1.406 . S
C209 C208 1.375 . S
C209 C210 1.369 . S
C209 H222 0.950 . S
C210 C209 1.369 . S
C210 C211 1.392 1_565 S
C210 H223 0.951 . S
C211 C210 1.392 1_545 S
C211 C213 1.384 . S
H212 C214 0.949 . S
C213 C211 1.384 . S
C213 C214 1.383 1_545 S
C213 H215 0.950 . S
C214 C208 1.406 . S
C214 H212 0.949 . S
C214 C213 1.383 1_565 S
H215 C213 0.950 . S
H216 C200 0.951 . S
H217 C202 0.951 . S
H218 C204 0.951 . S
H219 C205 0.950 . S
H220 C206 0.950 . S
H221 C207 0.950 . S
H222 C209 0.950 . S
H223 C210 0.951 . S
C224 C225 1.386 1_655 S
C224 C226 1.383 . S
C224 H240 0.951 . S
C225 C224 1.386 1_455 S
C225 C229 1.383 . S
C226 C224 1.383 . S
C226 C227 1.402 1_655 S
C226 H241 0.951 . S
C227 C226 1.402 1_455 S
C227 C228 1.375 . S
C227 C230 1.481 . S
C228 C227 1.375 . S
C228 C229 1.367 . S
C228 H242 0.951 . S
C229 C225 1.383 . S
C229 C228 1.367 . S
C229 H243 0.950 . S
C230 C227 1.481 . S
C230 C231 1.295 1_455 S
C230 H244 0.950 . S
C231 C230 1.295 1_655 S
C231 C232 1.479 1_655 S
C231 H245 0.952 . S
C232 C231 1.479 1_455 S
C232 C233 1.375 1_455 S
C232 C238 1.404 . S
C233 C232 1.375 1_655 S
C233 C234 1.369 . S
C233 H246 0.950 . S
C234 C233 1.369 . S
C234 C235 1.392 1_655 S
C234 H247 0.951 . S
C235 C234 1.392 1_455 S
C235 C237 1.384 . S
H236 C238 0.949 . S
C237 C235 1.384 . S
C237 C238 1.385 . S
C237 H239 0.950 . S
C238 C232 1.404 . S
C238 H236 0.949 . S
C238 C237 1.385 . S
H239 C237 0.950 . S
H240 C224 0.951 . S
H241 C226 0.951 . S
H242 C228 0.951 . S
H243 C229 0.950 . S
H244 C230 0.950 . S
H245 C231 0.952 . S
H246 C233 0.950 . S
H247 C234 0.951 . S
C248 C249 1.386 . S
C248 C250 1.383 . S
C248 H264 0.951 . S
C249 C248 1.386 . S
C249 C253 1.383 . S
C250 C248 1.383 . S
C250 C251 1.402 . S
C250 H265 0.951 . S
C251 C250 1.402 . S
C251 C252 1.379 . S
C251 C254 1.479 1_545 S
C252 C251 1.379 . S
C252 C253 1.372 . S
C252 H266 0.942 1_545 S
C253 C249 1.383 . S
C253 C252 1.372 . S
C253 H267 0.950 . S
C254 C251 1.479 1_565 S
C254 C255 1.296 1_565 S
C254 H268 0.953 . S
C255 C254 1.296 1_545 S
C255 C256 1.479 1_545 S
C255 H269 0.950 . S
C256 C255 1.479 1_565 S
C256 C257 1.375 1_565 S
C256 C262 1.404 . S
C257 C256 1.375 1_545 S
C257 C258 1.369 . S
C257 H270 0.950 . S
C258 C257 1.369 . S
C258 C259 1.392 . S
C258 H271 0.951 . S
C259 C258 1.392 . S
C259 C261 1.384 1_545 S
H260 C262 0.949 . S
C261 C259 1.384 1_565 S
C261 C262 1.385 . S
C261 H263 0.950 . S
C262 C256 1.404 . S
C262 H260 0.949 . S
C262 C261 1.385 . S
H263 C261 0.950 . S
H264 C248 0.951 . S
H265 C250 0.951 . S
H266 C252 0.942 1_565 S
H267 C253 0.950 . S
H268 C254 0.953 . S
H269 C255 0.950 . S
H270 C257 0.950 . S
H271 C258 0.951 . S
C272 C273 1.382 1_655 S
C272 C274 1.383 . S
C272 H288 0.954 . S
C273 C272 1.382 1_455 S
C273 C277 1.383 . S
C274 C272 1.383 . S
C274 C275 1.402 1_655 S
C274 H289 0.951 . S
C275 C274 1.402 1_455 S
C275 C276 1.375 . S
C275 C278 1.481 . S
C276 C275 1.375 . S
C276 C277 1.367 . S
C276 H290 0.951 . S
C277 C273 1.383 . S
C277 C276 1.367 . S
C277 H291 0.950 . S
C278 C275 1.481 . S
C278 C279 1.297 1_455 S
C278 H292 0.950 . S
C279 C278 1.297 1_655 S
C279 C280 1.479 . S
C279 H293 0.950 . S
C280 C279 1.479 . S
C280 C281 1.375 . S
C280 C286 1.404 1_655 S
C281 C280 1.375 . S
C281 C282 1.369 . S
C281 H294 0.950 . S
C282 C281 1.369 . S
C282 C283 1.392 1_655 S
C282 H295 0.951 . S
C283 C282 1.392 1_455 S
C283 C285 1.384 . S
H284 C286 0.949 . S
C285 C283 1.384 . S
C285 C286 1.385 . S
C285 H287 0.950 . S
C286 C280 1.404 1_455 S
C286 H284 0.949 . S
C286 C285 1.385 . S
H287 C285 0.950 . S
H288 C272 0.954 . S
H289 C274 0.951 . S
H290 C276 0.951 . S
H291 C277 0.950 . S
H292 C278 0.950 . S
H293 C279 0.950 . S
H294 C281 0.950 . S
H295 C282 0.951 . S
C296 C297 1.386 . S
C296 C298 1.383 . S
C296 H312 0.951 . S
C297 C296 1.386 . S
C297 C301 1.383 . S
C298 C296 1.383 . S
C298 C299 1.402 . S
C298 H313 0.951 . S
C299 C298 1.402 . S
C299 C300 1.375 . S
C299 C302 1.481 . S
C300 C299 1.375 . S
C300 C301 1.367 . S
C300 H314 0.951 . S
C301 C297 1.383 . S
C301 C300 1.367 . S
C301 H315 0.950 . S
C302 C299 1.481 . S
C302 C303 1.297 . S
C302 H316 0.950 . S
C303 C302 1.297 . S
C303 C304 1.479 . S
C303 H317 0.950 . S
C304 C303 1.479 . S
C304 C305 1.375 . S
C304 C310 1.404 . S
C305 C304 1.375 . S
C305 C306 1.369 . S
C305 H318 0.950 . S
C306 C305 1.369 . S
C306 C307 1.392 . S
C306 H319 0.951 . S
C307 C306 1.392 . S
C307 C309 1.384 . S
H308 C310 0.949 . S
C309 C307 1.384 . S
C309 C310 1.385 . S
C309 H311 0.950 . S
C310 C304 1.404 . S
C310 H308 0.949 . S
C310 C309 1.385 . S
H311 C309 0.950 . S
H312 C296 0.951 . S
H313 C298 0.951 . S
H314 C300 0.951 . S
H315 C301 0.950 . S
H316 C302 0.950 . S
H317 C303 0.950 . S
H318 C305 0.950 . S
H319 C306 0.951 . S
C320 C321 1.386 . S
C320 C322 1.383 . S
C320 H336 0.951 . S
C321 C320 1.386 . S
C321 C325 1.383 . S
C322 C320 1.383 . S
C322 C323 1.402 . S
C322 H337 0.951 . S
C323 C322 1.402 . S
C323 C324 1.375 . S
C323 C326 1.481 . S
C324 C323 1.375 . S
C324 C325 1.367 . S
C324 H338 0.951 . S
C325 C321 1.383 . S
C325 C324 1.367 . S
C325 H339 0.950 . S
C326 C323 1.481 . S
C326 C327 1.297 . S
C326 H340 0.950 . S
C327 C326 1.297 . S
C327 C328 1.479 . S
C327 H341 0.950 . S
C328 C327 1.479 . S
C328 C329 1.375 . S
C328 C334 1.404 . S
C329 C328 1.375 . S
C329 C330 1.369 . S
C329 H342 0.950 . S
C330 C329 1.369 . S
C330 C331 1.392 . S
C330 H343 0.951 . S
C331 C330 1.392 . S
C331 C333 1.384 . S
H332 C334 0.949 . S
C333 C331 1.384 . S
C333 C334 1.385 . S
C333 H335 0.950 . S
C334 C328 1.404 . S
C334 H332 0.949 . S
C334 C333 1.385 . S
H335 C333 0.950 . S
H336 C320 0.951 . S
H337 C322 0.951 . S
H338 C324 0.951 . S
H339 C325 0.950 . S
H340 C326 0.950 . S
H341 C327 0.950 . S
H342 C329 0.950 . S
H343 C330 0.951 . S
C344 C345 1.386 . S
C344 C346 1.383 . S
C344 H360 0.951 . S
C345 C344 1.386 . S
C345 C349 1.383 . S
C346 C344 1.383 . S
C346 C347 1.402 . S
C346 H361 0.951 . S
C347 C346 1.402 . S
C347 C348 1.375 . S
C347 C350 1.481 . S
C348 C347 1.375 . S
C348 C349 1.367 . S
C348 H362 0.951 . S
C349 C345 1.383 . S
C349 C348 1.367 . S
C349 H363 0.950 . S
C350 C347 1.481 . S
C350 C351 1.297 . S
C350 H364 0.950 . S
C351 C350 1.297 . S
C351 C352 1.479 . S
C351 H365 0.950 . S
C352 C351 1.479 . S
C352 C353 1.375 . S
C352 C358 1.404 . S
C353 C352 1.375 . S
C353 C354 1.369 . S
C353 H366 0.950 . S
C354 C353 1.369 . S
C354 C355 1.392 . S
C354 H367 0.951 . S
C355 C354 1.392 . S
C355 C357 1.384 . S
H356 C358 0.949 . S
C357 C355 1.384 . S
C357 C358 1.385 . S
C357 H359 0.950 . S
C358 C352 1.404 . S
C358 H356 0.949 . S
C358 C357 1.385 . S
H359 C357 0.950 . S
H360 C344 0.951 . S
H361 C346 0.951 . S
H362 C348 0.951 . S
H363 C349 0.950 . S
H364 C350 0.950 . S
H365 C351 0.950 . S
H366 C353 0.950 . S
H367 C354 0.951 . S
C368 C369 1.386 . S
C368 C370 1.383 . S
C368 H384 0.951 . S
C369 C368 1.386 . S
C369 C373 1.383 . S
C370 C368 1.383 . S
C370 C371 1.402 . S
C370 H385 0.951 . S
C371 C370 1.402 . S
C371 C372 1.375 . S
C371 C374 1.481 . S
C372 C371 1.375 . S
C372 C373 1.367 . S
C372 H386 0.951 . S
C373 C369 1.383 . S
C373 C372 1.367 . S
C373 H387 0.950 . S
C374 C371 1.481 . S
C374 C375 1.297 . S
C374 H388 0.950 . S
C375 C374 1.297 . S
C375 C376 1.479 . S
C375 H389 0.950 . S
C376 C375 1.479 . S
C376 C377 1.375 . S
C376 C382 1.404 . S
C377 C376 1.375 . S
C377 C378 1.369 . S
C377 H390 0.950 . S
C378 C377 1.369 . S
C378 C379 1.392 . S
C378 H391 0.951 . S
C379 C378 1.392 . S
C379 C381 1.384 . S
H380 C382 0.949 . S
C381 C379 1.384 . S
C381 C382 1.385 . S
C381 H383 0.950 . S
C382 C376 1.404 . S
C382 H380 0.949 . S
C382 C381 1.385 . S
H383 C381 0.950 . S
H384 C368 0.951 . S
H385 C370 0.951 . S
H386 C372 0.951 . S
H387 C373 0.950 . S
H388 C374 0.950 . S
H389 C375 0.950 . S
H390 C377 0.950 . S
H391 C378 0.951 . S
C392 C393 1.386 . S
C392 C394 1.383 . S
C392 H408 0.951 . S
C393 C392 1.386 . S
C393 C397 1.383 . S
C394 C392 1.383 . S
C394 C395 1.402 . S
C394 H409 0.951 . S
C395 C394 1.402 . S
C395 C396 1.375 . S
C395 C398 1.481 . S
C396 C395 1.375 . S
C396 C397 1.367 . S
C396 H410 0.951 . S
C397 C393 1.383 . S
C397 C396 1.367 . S
C397 H411 0.950 . S
C398 C395 1.481 . S
C398 C399 1.297 . S
C398 H412 0.950 . S
C399 C398 1.297 . S
C399 C400 1.479 . S
C399 H413 0.950 . S
C400 C399 1.479 . S
C400 C401 1.375 . S
C400 C406 1.404 . S
C401 C400 1.375 . S
C401 C402 1.369 . S
C401 H414 0.950 . S
C402 C401 1.369 . S
C402 C403 1.392 . S
C402 H415 0.951 . S
C403 C402 1.392 . S
C403 C405 1.384 . S
H404 C406 0.949 . S
C405 C403 1.384 . S
C405 C406 1.385 . S
C405 H407 0.950 . S
C406 C400 1.404 . S
C406 H404 0.949 . S
C406 C405 1.385 . S
H407 C405 0.950 . S
H408 C392 0.951 . S
H409 C394 0.951 . S
H410 C396 0.951 . S
H411 C397 0.950 . S
H412 C398 0.950 . S
H413 C399 0.950 . S
H414 C401 0.950 . S
H415 C402 0.951 . S
C416 C417 1.386 . S
C416 C418 1.383 . S
C416 H432 0.951 . S
C417 C416 1.386 . S
C417 C421 1.383 . S
C418 C416 1.383 . S
C418 C419 1.402 . S
C418 H433 0.951 . S
C419 C418 1.402 . S
C419 C420 1.375 . S
C419 C422 1.481 . S
C420 C419 1.375 . S
C420 C421 1.367 . S
C420 H434 0.951 . S
C421 C417 1.383 . S
C421 C420 1.367 . S
C421 H435 0.950 . S
C422 C419 1.481 . S
C422 C423 1.297 . S
C422 H436 0.950 . S
C423 C422 1.297 . S
C423 C424 1.479 . S
C423 H437 0.950 . S
C424 C423 1.479 . S
C424 C425 1.375 . S
C424 C430 1.404 . S
C425 C424 1.375 . S
C425 C426 1.369 . S
C425 H438 0.950 . S
C426 C425 1.369 . S
C426 C427 1.392 . S
C426 H439 0.951 . S
C427 C426 1.392 . S
C427 C429 1.384 . S
H428 C430 0.949 . S
C429 C427 1.384 . S
C429 C430 1.385 . S
C429 H431 0.950 . S
C430 C424 1.404 . S
C430 H428 0.949 . S
C430 C429 1.385 . S
H431 C429 0.950 . S
H432 C416 0.951 . S
H433 C418 0.951 . S
H434 C420 0.951 . S
H435 C421 0.950 . S
H436 C422 0.950 . S
H437 C423 0.950 . S
H438 C425 0.950 . S
H439 C426 0.951 . S
C440 C441 1.386 . S
C440 C442 1.383 . S
C440 H456 0.951 . S
C441 C440 1.386 . S
C441 C445 1.383 . S
C442 C440 1.383 . S
C442 C443 1.402 . S
C442 H457 0.951 . S
C443 C442 1.402 . S
C443 C444 1.375 . S
C443 C446 1.481 . S
C444 C443 1.375 . S
C444 C445 1.367 . S
C444 H458 0.951 . S
C445 C441 1.383 . S
C445 C444 1.367 . S
C445 H459 0.950 . S
C446 C443 1.481 . S
C446 C447 1.297 . S
C446 H460 0.950 . S
C447 C446 1.297 . S
C447 C448 1.479 . S
C447 H461 0.950 . S
C448 C447 1.479 . S
C448 C449 1.375 . S
C448 C454 1.404 . S
C449 C448 1.375 . S
C449 C450 1.369 . S
C449 H462 0.950 . S
C450 C449 1.369 . S
C450 C451 1.392 . S
C450 H463 0.951 . S
C451 C450 1.392 . S
C451 C453 1.384 . S
H452 C454 0.949 . S
C453 C451 1.384 . S
C453 C454 1.385 . S
C453 H455 0.950 . S
C454 C448 1.404 . S
C454 H452 0.949 . S
C454 C453 1.385 . S
H455 C453 0.950 . S
H456 C440 0.951 . S
H457 C442 0.951 . S
H458 C444 0.951 . S
H459 C445 0.950 . S
H460 C446 0.950 . S
H461 C447 0.950 . S
H462 C449 0.950 . S
H463 C450 0.951 . S
C464 C465 1.386 . S
C464 C466 1.383 . S
C464 H480 0.951 . S
C465 C464 1.386 . S
C465 C469 1.383 . S
C466 C464 1.383 . S
C466 C467 1.402 . S
C466 H481 0.951 . S
C467 C466 1.402 . S
C467 C468 1.375 . S
C467 C470 1.481 . S
C468 C467 1.375 . S
C468 C469 1.367 . S
C468 H482 0.951 . S
C469 C465 1.383 . S
C469 C468 1.367 . S
C469 H483 0.950 . S
C470 C467 1.481 . S
C470 C471 1.297 . S
C470 H484 0.950 . S
C471 C470 1.297 . S
C471 C472 1.479 . S
C471 H485 0.950 . S
C472 C471 1.479 . S
C472 C473 1.375 . S
C472 C478 1.404 . S
C473 C472 1.375 . S
C473 C474 1.369 . S
C473 H486 0.950 . S
C474 C473 1.369 . S
C474 C475 1.392 . S
C474 H487 0.951 . S
C475 C474 1.392 . S
C475 C477 1.384 . S
H476 C478 0.949 . S
C477 C475 1.384 . S
C477 C478 1.385 . S
C477 H479 0.950 . S
C478 C472 1.404 . S
C478 H476 0.949 . S
C478 C477 1.385 . S
H479 C477 0.950 . S
H480 C464 0.951 . S
H481 C466 0.951 . S
H482 C468 0.951 . S
H483 C469 0.950 . S
H484 C470 0.950 . S
H485 C471 0.950 . S
H486 C473 0.950 . S
H487 C474 0.951 . S
C105 C8 1.512 . S
C115 C60 1.552 . S
C129 C21 1.521 . S
C139 C73 1.529 . S
C153 C86 1.550 . S
C163 C34 1.494 . S
C177 C99 1.545 . S
C187 C47 1.511 . S
C201 C0 1.035 . S
C211 C26 0.991 . S
C225 C13 1.035 . S
C235 C39 1.045 . S
C249 C78 1.041 . S
C259 C52 0.995 . S
C273 C65 1.024 . S
C283 C91 0.995 . S
C297 C75 1.274 . S
C307 C10 1.190 . S
C321 C23 1.273 . S
C331 C88 1.192 . S
C345 C101 1.273 . S
C355 C36 1.194 . S
C369 C49 1.274 . S
C379 C62 1.191 . S
C393 C83 1.178 . S
C403 C44 1.142 . S
C417 C5 1.198 . S
C427 C96 1.226 . S
C441 C18 1.197 . S
C451 C57 1.180 . S
C465 C70 1.206 . S
C475 C31 1.215 . S
