# Generated by pormake.
# Topology ure, (4)-cn, num edge types: 1
# Building blocks:
#     Node 0, Type 0, BuildingBlock: TATPOV_clean_sbu_0, # of connection points: 4
#     Node 1, Type 0, BuildingBlock: TATPOV_clean_sbu_0, # of connection points: 4
#     Node 2, Type 0, BuildingBlock: TATPOV_clean_sbu_0, # of connection points: 4
#     Node 3, Type 0, BuildingBlock: TATPOV_clean_sbu_0, # of connection points: 4
#     Node 4, Type 0, BuildingBlock: TATPOV_clean_sbu_0, # of connection points: 4
#     Node 5, Type 0, BuildingBlock: TATPOV_clean_sbu_0, # of connection points: 4
#     Node 6, Type 0, BuildingBlock: TATPOV_clean_sbu_0, # of connection points: 4
#     Node 7, Type 0, BuildingBlock: TATPOV_clean_sbu_0, # of connection points: 4
#     Node 8, Type 0, BuildingBlock: TATPOV_clean_sbu_0, # of connection points: 4
#     Node 9, Type 0, BuildingBlock: TATPOV_clean_sbu_0, # of connection points: 4
#     Node 10, Type 0, BuildingBlock: TATPOV_clean_sbu_0, # of connection points: 4
#     Node 11, Type 0, BuildingBlock: TATPOV_clean_sbu_0, # of connection points: 4
#     Node 12, Type 0, BuildingBlock: TATPOV_clean_sbu_0, # of connection points: 4
#     Node 13, Type 0, BuildingBlock: TATPOV_clean_sbu_0, # of connection points: 4
#     Node 14, Type 0, BuildingBlock: TATPOV_clean_sbu_0, # of connection points: 4
#     Node 15, Type 0, BuildingBlock: TATPOV_clean_sbu_0, # of connection points: 4
#     Edge 16, Type (0, 0), BuildingBlock: EZIPEK_clean_linker_0, # of connection points: 2
#     Edge 17, Type (0, 0), BuildingBlock: EZIPEK_clean_linker_0, # of connection points: 2
#     Edge 18, Type (0, 0), BuildingBlock: EZIPEK_clean_linker_0, # of connection points: 2
#     Edge 19, Type (0, 0), BuildingBlock: EZIPEK_clean_linker_0, # of connection points: 2
#     Edge 20, Type (0, 0), BuildingBlock: EZIPEK_clean_linker_0, # of connection points: 2
#     Edge 21, Type (0, 0), BuildingBlock: EZIPEK_clean_linker_0, # of connection points: 2
#     Edge 22, Type (0, 0), BuildingBlock: EZIPEK_clean_linker_0, # of connection points: 2
#     Edge 23, Type (0, 0), BuildingBlock: EZIPEK_clean_linker_0, # of connection points: 2
#     Edge 24, Type (0, 0), BuildingBlock: EZIPEK_clean_linker_0, # of connection points: 2
#     Edge 25, Type (0, 0), BuildingBlock: EZIPEK_clean_linker_0, # of connection points: 2
#     Edge 26, Type (0, 0), BuildingBlock: EZIPEK_clean_linker_0, # of connection points: 2
#     Edge 27, Type (0, 0), BuildingBlock: EZIPEK_clean_linker_0, # of connection points: 2
#     Edge 28, Type (0, 0), BuildingBlock: EZIPEK_clean_linker_0, # of connection points: 2
#     Edge 29, Type (0, 0), BuildingBlock: EZIPEK_clean_linker_0, # of connection points: 2
#     Edge 30, Type (0, 0), BuildingBlock: EZIPEK_clean_linker_0, # of connection points: 2
#     Edge 31, Type (0, 0), BuildingBlock: EZIPEK_clean_linker_0, # of connection points: 2
#     Edge 32, Type (0, 0), BuildingBlock: EZIPEK_clean_linker_0, # of connection points: 2
#     Edge 33, Type (0, 0), BuildingBlock: EZIPEK_clean_linker_0, # of connection points: 2
#     Edge 34, Type (0, 0), BuildingBlock: EZIPEK_clean_linker_0, # of connection points: 2
#     Edge 35, Type (0, 0), BuildingBlock: EZIPEK_clean_linker_0, # of connection points: 2
#     Edge 36, Type (0, 0), BuildingBlock: EZIPEK_clean_linker_0, # of connection points: 2
#     Edge 37, Type (0, 0), BuildingBlock: EZIPEK_clean_linker_0, # of connection points: 2
#     Edge 38, Type (0, 0), BuildingBlock: EZIPEK_clean_linker_0, # of connection points: 2
#     Edge 39, Type (0, 0), BuildingBlock: EZIPEK_clean_linker_0, # of connection points: 2
#     Edge 40, Type (0, 0), BuildingBlock: EZIPEK_clean_linker_0, # of connection points: 2
#     Edge 41, Type (0, 0), BuildingBlock: EZIPEK_clean_linker_0, # of connection points: 2
#     Edge 42, Type (0, 0), BuildingBlock: EZIPEK_clean_linker_0, # of connection points: 2
#     Edge 43, Type (0, 0), BuildingBlock: EZIPEK_clean_linker_0, # of connection points: 2
#     Edge 44, Type (0, 0), BuildingBlock: EZIPEK_clean_linker_0, # of connection points: 2
#     Edge 45, Type (0, 0), BuildingBlock: EZIPEK_clean_linker_0, # of connection points: 2
#     Edge 46, Type (0, 0), BuildingBlock: EZIPEK_clean_linker_0, # of connection points: 2
#     Edge 47, Type (0, 0), BuildingBlock: EZIPEK_clean_linker_0, # of connection points: 2
# Relax obj value: 0.108
# Max RMSD: 0.074
# Mean RMSD: 0.074
data_MOF--net-ure--node1-TATPOV_clean_sbu_0--edge1-EZIPEK_clean_linker_0
_symmetry_space_group_name_H-M    P1
_symmetry_Int_Tables_number       1
_symmetry_cell_setting            triclinic
loop_
_symmetry_equiv_pos_as_xyz
'x, y, z'
_cell_length_a     24.192235
_cell_length_b     22.579314
_cell_length_c     22.575709
_cell_angle_alpha  89.825523
_cell_angle_beta   90.176947
_cell_angle_gamma 89.986483
loop_
_atom_site_label
_atom_site_type_symbol
_atom_site_fract_x
_atom_site_fract_y
_atom_site_fract_z
_atom_type_partial_charge
Zn0 Zn 0.34746 0.30225 0.34272 0.0
Zn1 Zn 0.28489 0.25633 0.27507 0.0
O2 O 0.3609 0.22798 0.24238 0.0
O3 O 0.40883 0.29885 0.28415 0.0
O4 O 0.22424 0.22189 0.22414 0.0
O5 O 0.34215 0.24051 0.40595 0.0
O6 O 0.26969 0.2138 0.35489 0.0
C7 C 0.40667 0.25505 0.24955 0.0
C8 C 0.28152 0.38974 0.30652 0.0
O9 O 0.27174 0.3484 0.26943 0.0
O10 O 0.31003 0.37884 0.35202 0.0
C11 C 0.23149 0.18936 0.17908 0.0
O12 O 0.28176 0.17817 0.16039 0.0
C13 C 0.30044 0.20735 0.40043 0.0
Zn14 Zn 0.90528 0.08567 0.55591 0.0
Zn15 Zn 0.95946 0.00273 0.51901 0.0
O16 O 0.88323 0.96153 0.52962 0.0
O17 O 0.84595 0.03011 0.58495 0.0
O18 O 0.01159 0.94131 0.48542 0.0
O19 O 0.89569 0.12771 0.4794 0.0
O20 O 0.96443 0.07021 0.45524 0.0
C21 C 0.84425 0.97829 0.56371 0.0
C22 C 0.99268 0.07015 0.6304 0.0
O23 O 0.99214 0.0218 0.60148 0.0
O24 O 0.96509 0.11376 0.61146 0.0
C25 C 0.06311 0.95211 0.48911 0.0
O26 O 0.07966 0.00037 0.51614 0.0
C27 C 0.93329 0.1143 0.44314 0.0
Zn28 Zn 0.11823 0.67533 0.79341 0.0
Zn29 Zn 0.19145 0.75309 0.75319 0.0
O30 O 0.11909 0.77223 0.7066 0.0
O31 O 0.06211 0.70164 0.73392 0.0
O32 O 0.24864 0.80829 0.71812 0.0
O33 O 0.12396 0.71287 0.87391 0.0
O34 O 0.19094 0.77132 0.84302 0.0
C35 C 0.0724 0.74638 0.70194 0.0
C36 C 0.21388 0.6188 0.74919 0.0
O37 O 0.22744 0.67201 0.73729 0.0
O38 O 0.16853 0.60757 0.77456 0.0
C39 C 0.25018 0.81784 0.66257 0.0
O40 O 0.21255 0.79416 0.62794 0.0
C41 C 0.16072 0.75126 0.88472 0.0
Zn42 Zn 0.56149 0.93121 0.06367 0.0
Zn43 Zn 0.52327 0.01365 0.01441 0.0
O44 O 0.60685 0.02436 0.99086 0.0
O45 O 0.63661 0.96582 0.06212 0.0
O46 O 0.47402 0.07455 0.97394 0.0
O47 O 0.54355 0.86691 0.008 0.0
O48 O 0.48649 0.93675 0.98018 0.0
C49 C 0.64674 0.00265 0.02141 0.0
C50 C 0.50925 0.99267 0.14737 0.0
O51 O 0.51368 0.03002 0.10513 0.0
O52 O 0.51803 0.93865 0.13733 0.0
C53 C 0.48305 0.12626 0.95388 0.0
O54 O 0.53283 0.14922 0.95742 0.0
C55 C 0.50161 0.88267 0.97871 0.0
Zn56 Zn 0.32059 0.7191 0.18003 0.0
Zn57 Zn 0.27174 0.76976 0.25126 0.0
O58 O 0.35234 0.80628 0.25551 0.0
O59 O 0.39459 0.73182 0.21309 0.0
O60 O 0.22493 0.81675 0.308 0.0
O61 O 0.29651 0.76345 0.1084 0.0
O62 O 0.22906 0.7806 0.17034 0.0
C63 C 0.39711 0.77969 0.2415 0.0
C64 C 0.27084 0.63664 0.24991 0.0
O65 O 0.26763 0.68256 0.28246 0.0
O66 O 0.28675 0.64186 0.19712 0.0
C67 C 0.22198 0.80756 0.3635 0.0
O68 O 0.253 0.76658 0.38826 0.0
C69 C 0.24762 0.78045 0.11743 0.0
Zn70 Zn 0.59225 0.07488 0.48491 0.0
Zn71 Zn 0.51589 0.02645 0.52562 0.0
O72 O 0.58592 0.98084 0.5582 0.0
O73 O 0.64396 0.00763 0.48892 0.0
O74 O 0.45027 0.98829 0.56572 0.0
O75 O 0.59627 0.13612 0.54935 0.0
O76 O 0.5083 0.11636 0.54396 0.0
C77 C 0.63264 0.97491 0.53255 0.0
C78 C 0.51903 0.0487 0.3954 0.0
O79 O 0.50382 0.01326 0.43628 0.0
O80 O 0.55311 0.08949 0.40718 0.0
C81 C 0.4356 0.93608 0.55184 0.0
O82 O 0.46375 0.90683 0.51176 0.0
C83 C 0.54697 0.15271 0.55593 0.0
Zn84 Zn 0.18468 0.31997 0.65102 0.0
Zn85 Zn 0.22821 0.26748 0.73532 0.0
O86 O 0.14505 0.26383 0.7609 0.0
O87 O 0.1149 0.32934 0.69598 0.0
O88 O 0.27667 0.2242 0.7955 0.0
O89 O 0.18888 0.25401 0.59371 0.0
O90 O 0.24338 0.21577 0.66126 0.0
C91 C 0.10594 0.29581 0.73984 0.0
C92 C 0.26382 0.39364 0.69507 0.0
O93 O 0.26006 0.35352 0.73486 0.0
O94 O 0.23818 0.3866 0.64676 0.0
C95 C 0.30102 0.24926 0.83868 0.0
O96 O 0.29117 0.30518 0.84979 0.0
C97 C 0.2215 0.21339 0.60992 0.0
Zn98 Zn 0.95314 0.93895 0.91127 0.0
Zn99 Zn 0.00234 0.98272 0.98941 0.0
O100 O 0.92041 0.00265 0.01129 0.0
O101 O 0.8862 0.98764 0.9231 0.0
O102 O 0.0507 0.02229 0.0503 0.0
O103 O 0.95132 0.85798 0.94404 0.0
O104 O 0.02151 0.89203 0.99533 0.0
C105 C 0.87977 0.00558 0.9753 0.0
C106 C 0.02997 0.00613 0.85915 0.0
O107 O 0.02836 0.02469 0.91234 0.0
O108 O 0.00537 0.95866 0.84605 0.0
C109 C 0.05059 0.07851 0.05317 0.0
O110 O 0.01537 0.10888 0.02069 0.0
C111 C 0.99247 0.8484 0.97712 0.0
Zn112 Zn 0.80196 0.19381 0.72234 0.0
Zn113 Zn 0.75149 0.2702 0.75679 0.0
O114 O 0.83283 0.30182 0.76508 0.0
O115 O 0.8651 0.21246 0.77673 0.0
O116 O 0.6973 0.33205 0.7856 0.0
O117 O 0.80674 0.21514 0.638 0.0
O118 O 0.7295 0.25663 0.66722 0.0
C119 C 0.87309 0.26749 0.77819 0.0
C120 C 0.73029 0.14459 0.79408 0.0
O121 O 0.73681 0.19731 0.81266 0.0
O122 O 0.74582 0.13264 0.74237 0.0
C123 C 0.68272 0.33269 0.83966 0.0
O124 O 0.70675 0.29673 0.87764 0.0
C125 C 0.76073 0.23827 0.62549 0.0
Zn126 Zn 0.1044 0.5169 0.93732 0.0
Zn127 Zn 0.02831 0.46842 0.9836 0.0
O128 O 0.09965 0.43831 0.02631 0.0
O129 O 0.16212 0.45717 0.95915 0.0
O130 O 0.96674 0.42586 0.02617 0.0
O131 O 0.09635 0.59209 0.98261 0.0
O132 O 0.01238 0.5581 0.99569 0.0
C133 C 0.14908 0.4328 0.00755 0.0
C134 C 0.03595 0.47319 0.85039 0.0
O135 O 0.01892 0.444 0.89523 0.0
O136 O 0.06982 0.51507 0.85772 0.0
C137 C 0.97237 0.37115 0.03816 0.0
O138 O 0.01788 0.34355 0.02274 0.0
C139 C 0.04676 0.60094 0.99714 0.0
Zn140 Zn 0.71693 0.81566 0.13804 0.0
Zn141 Zn 0.73517 0.73748 0.21568 0.0
O142 O 0.65419 0.76125 0.23472 0.0
O143 O 0.6494 0.8434 0.18197 0.0
O144 O 0.7631 0.67838 0.27631 0.0
O145 O 0.70855 0.75628 0.07352 0.0
O146 O 0.74075 0.69069 0.13682 0.0
C147 C 0.62774 0.80754 0.21833 0.0
C148 C 0.81191 0.8456 0.1966 0.0
O149 O 0.79207 0.80444 0.22877 0.0
O150 O 0.78929 0.85692 0.14733 0.0
C151 C 0.77867 0.69547 0.32736 0.0
O152 O 0.7679 0.74981 0.34436 0.0
C153 C 0.72541 0.70439 0.08447 0.0
Zn154 Zn 0.06078 0.37189 0.51856 0.0
Zn155 Zn 0.00963 0.44859 0.47017 0.0
O156 O 0.08858 0.47618 0.44688 0.0
O157 O 0.12792 0.42217 0.51615 0.0
O158 O 0.95518 0.5063 0.43353 0.0
O159 O 0.05378 0.30914 0.45774 0.0
O160 O 0.98913 0.36963 0.42704 0.0
C161 C 0.13154 0.46139 0.47629 0.0
C162 C 1.00149 0.4195 0.60454 0.0
O163 O 0.99809 0.45673 0.56195 0.0
O164 O 0.01996 0.36825 0.5946 0.0
C165 C 0.94231 0.55656 0.4547 0.0
O166 O 0.96679 0.57568 0.503 0.0
C167 C 0.01434 0.32012 0.42268 0.0
Zn168 Zn 0.41128 0.60463 0.10513 0.0
Zn169 Zn 0.46145 0.5421 0.03016 0.0
O170 O 0.38542 0.50013 0.03621 0.0
O171 O 0.35843 0.53688 0.12093 0.0
O172 O 0.50993 0.49275 0.97765 0.0
O173 O 0.39607 0.66699 0.04189 0.0
O174 O 0.45688 0.62167 0.9867 0.0
C175 C 0.35072 0.50118 0.07869 0.0
C176 C 0.51384 0.57593 0.15034 0.0
O177 O 0.5097 0.54206 0.1056 0.0
O178 O 0.47646 0.61402 0.1591 0.0
C179 C 0.49686 0.4623 0.9326 0.0
O180 O 0.44527 0.46025 0.91442 0.0
C181 C 0.42485 0.66554 0.99507 0.0
Zn182 Zn 0.82841 0.81222 0.83589 0.0
Zn183 Zn 0.75198 0.79177 0.76306 0.0
O184 O 0.8215 0.78827 0.70853 0.0
O185 O 0.88332 0.82234 0.77124 0.0
O186 O 0.6861 0.77412 0.71064 0.0
O187 O 0.82292 0.73549 0.87869 0.0
O188 O 0.74544 0.72721 0.82916 0.0
C189 C 0.8705 0.80639 0.71935 0.0
C190 C 0.75459 0.90646 0.83434 0.0
O191 O 0.73689 0.87735 0.78995 0.0
O192 O 0.79138 0.88451 0.86769 0.0
C193 C 0.68711 0.73231 0.67318 0.0
O194 O 0.73255 0.70133 0.66619 0.0
C195 C 0.7782 0.70811 0.86936 0.0
Zn196 Zn 0.68536 0.09674 0.29425 0.0
Zn197 Zn 0.74633 0.17886 0.25315 0.0
O198 O 0.66791 0.19177 0.21736 0.0
O199 O 0.62418 0.10898 0.2363 0.0
O200 O 0.79405 0.24021 0.21378 0.0
O201 O 0.68236 0.13794 0.37304 0.0
O202 O 0.7461 0.19965 0.34102 0.0
C203 C 0.62407 0.16048 0.2145 0.0
C204 C 0.78749 0.05049 0.25994 0.0
O205 O 0.79303 0.10338 0.24143 0.0
O206 O 0.74302 0.03497 0.28478 0.0
C207 C 0.80887 0.23054 0.16071 0.0
O208 O 0.79032 0.18347 0.13301 0.0
C209 C 0.71641 0.17936 0.38294 0.0
Zn210 Zn 0.45271 0.44037 0.4165 0.0
Zn211 Zn 0.47972 0.51812 0.48585 0.0
O212 O 0.39403 0.52785 0.48203 0.0
O213 O 0.38052 0.47914 0.39937 0.0
O214 O 0.51262 0.58073 0.53938 0.0
O215 O 0.45719 0.37533 0.47608 0.0
O216 O 0.50043 0.4411 0.53062 0.0
C217 C 0.36163 0.51058 0.44079 0.0
C218 C 0.53682 0.49874 0.36402 0.0
O219 O 0.52332 0.53221 0.4072 0.0
O220 O 0.51387 0.4488 0.3594 0.0
C221 C 0.51136 0.63656 0.53197 0.0
O222 O 0.48069 0.6596 0.48967 0.0
C223 C 0.48425 0.38808 0.5222 0.0
C224 C 0.17289 0.17869 0.08822 0.0
C225 C 0.18317 0.16346 0.14813 0.0
C226 C 0.10056 0.1003 0.14837 0.0
C227 C 0.09482 0.10948 0.08645 0.0
N228 N 0.13153 0.14954 0.99518 0.0
N229 N 0.16094 0.10431 0.23417 0.0
C230 C 0.13242 0.14681 0.05571 0.0
C231 C 0.14795 0.12298 0.17814 0.0
N232 N 0.20043 0.22506 0.06284 0.0
N233 N 0.05994 0.07145 0.17897 0.0
H234 H 0.1955 0.1194 0.25733 0.0
H235 H 0.14014 0.07022 0.25586 0.0
H236 H 0.02449 0.05469 0.1586 0.0
H237 H 0.05885 0.06891 0.22503 0.0
H238 H 0.18985 0.24237 0.02155 0.0
H239 H 0.23023 0.24984 0.08527 0.0
H240 H 0.16177 0.1711 0.97045 0.0
H241 H 0.10382 0.1256 0.96915 0.0
C242 C 0.14185 0.9406 0.41808 0.0
C243 C 0.1041 0.91422 0.45833 0.0
C244 C 0.14239 0.81635 0.43521 0.0
C245 C 0.18357 0.84375 0.39962 0.0
N246 N 0.23071 0.93328 0.37014 0.0
N247 N 0.07578 0.8282 0.51432 0.0
C248 C 0.18579 0.90631 0.39499 0.0
C249 C 0.10648 0.85237 0.46965 0.0
N250 N 0.13415 0.99753 0.3991 0.0
N251 N 0.13555 0.75628 0.43393 0.0
H252 H 0.0493 0.85315 0.54071 0.0
H253 H 0.0804 0.78457 0.52868 0.0
H254 H 0.15977 0.72831 0.40811 0.0
H255 H 0.10252 0.73471 0.45418 0.0
H256 H 0.15707 0.01643 0.3649 0.0
H257 H 0.10104 0.02366 0.41264 0.0
H258 H 0.23675 0.97898 0.3711 0.0
H259 H 0.26475 0.90976 0.35443 0.0
C260 C 0.39712 0.85481 0.61533 0.0
C261 C 0.38819 0.90739 0.58201 0.0
C262 C 0.28948 0.90479 0.60731 0.0
C263 C 0.29775 0.84948 0.63603 0.0
N264 N 0.35714 0.76639 0.65851 0.0
N265 N 0.32514 0.97851 0.53891 0.0
C266 C 0.35098 0.82301 0.63776 0.0
C267 C 0.33416 0.93156 0.57617 0.0
N268 N 0.44985 0.83634 0.62738 0.0
N269 N 0.23926 0.93235 0.61106 0.0
H270 H 0.35665 -0.00083 0.51516 0.0
H271 H 0.28597 0.99412 0.52772 0.0
H272 H 0.20557 0.91378 0.63309 0.0
H273 H 0.23208 0.9755 0.59655 0.0
H274 H 0.45913 0.80193 0.65659 0.0
H275 H 0.48484 0.85885 0.61253 0.0
H276 H 0.39363 0.74227 0.65449 0.0
H277 H 0.32444 0.74131 0.6751 0.0
C278 C 0.44189 0.17877 0.86547 0.0
C279 C 0.43693 0.15954 0.92517 0.0
C280 C 0.34077 0.19531 0.92675 0.0
C281 C 0.34766 0.2189 0.86902 0.0
N282 N 0.40817 0.24386 0.78797 0.0
N283 N 0.38427 0.15715 0.01592 0.0
C284 C 0.39926 0.21387 0.83976 0.0
C285 C 0.387 0.16985 0.95675 0.0
N286 N 0.48571 0.16063 0.832 0.0
N287 N 0.28961 0.19565 0.95223 0.0
H288 H 0.417 0.13844 0.0396 0.0
H289 H 0.35141 0.16976 0.04277 0.0
H290 H 0.25526 0.21521 0.93209 0.0
H291 H 0.28029 0.1725 0.99088 0.0
H292 H 0.48831 0.16793 0.7865 0.0
H293 H 0.51718 0.13364 0.84849 0.0
H294 H 0.44709 0.24779 0.76873 0.0
H295 H 0.37782 0.26937 0.76708 0.0
C296 C 0.63337 0.42907 0.85751 0.0
C297 C 0.633 0.36628 0.85791 0.0
C298 C 0.54116 0.36603 0.90396 0.0
C299 C 0.54075 0.42882 0.90173 0.0
N300 N 0.58029 0.5199 0.86543 0.0
N301 N 0.58225 0.27491 0.86854 0.0
C302 C 0.58506 0.46029 0.8751 0.0
C303 C 0.58553 0.33472 0.87725 0.0
N304 N 0.68064 0.45885 0.84293 0.0
N305 N 0.50056 0.33637 0.93392 0.0
H306 H 0.61333 0.25046 0.84803 0.0
H307 H 0.54672 0.25036 0.87665 0.0
H308 H 0.467 0.35754 0.95355 0.0
H309 H 0.50207 0.2912 0.94325 0.0
H310 H 0.68558 0.50432 0.84841 0.0
H311 H 0.71668 0.43746 0.82943 0.0
H312 H 0.60851 0.54438 0.8407 0.0
H313 H 0.5453 0.54405 0.87744 0.0
C314 C 0.87585 0.33066 0.04573 0.0
C315 C 0.929 0.33884 0.07127 0.0
C316 C 0.90374 0.27501 0.155 0.0
C317 C 0.84953 0.26969 0.13129 0.0
N318 N 0.78063 0.30021 0.06007 0.0
N319 N 0.98998 0.32959 0.15555 0.0
C320 C 0.83461 0.29974 0.07829 0.0
C321 C 0.94192 0.31414 0.12751 0.0
N322 N 0.86542 0.35037 0.98945 0.0
N323 N 0.91969 0.24059 0.20205 0.0
H324 H 0.01871 0.35871 0.13714 0.0
H325 H 0.99897 0.31814 0.19925 0.0
H326 H 0.89338 0.21071 0.22313 0.0
H327 H 0.96036 0.23773 0.21706 0.0
H328 H 0.82988 0.3396 0.96571 0.0
H329 H 0.8942 0.37387 0.9644 0.0
H330 H 0.76597 0.32632 0.02533 0.0
H331 H 0.74925 0.27835 0.08298 0.0
C332 C 0.91286 0.61546 0.36561 0.0
C333 C 0.90097 0.5941 0.42341 0.0
C334 C 0.80758 0.6372 0.41747 0.0
C335 C 0.82031 0.66017 0.36058 0.0
N336 N 0.8883 0.68227 0.28558 0.0
N337 N 0.84017 0.59004 0.50794 0.0
C338 C 0.87377 0.65212 0.33588 0.0
C339 C 0.84934 0.60695 0.45058 0.0
N340 N 0.96174 0.60085 0.33904 0.0
N341 N 0.75488 0.64233 0.43868 0.0
H342 H 0.86805 0.56453 0.53238 0.0
H343 H 0.80644 0.604 0.53276 0.0
H344 H 0.72356 0.66427 0.41553 0.0
H345 H 0.74084 0.62164 0.47702 0.0
H346 H 0.96965 0.60774 0.29424 0.0
H347 H 0.99381 0.57894 0.36095 0.0
H348 H 0.92844 0.68405 0.26922 0.0
H349 H 0.86138 0.71013 0.26253 0.0
C350 C 0.5449 0.67359 0.62993 0.0
C351 C 0.54981 0.67379 0.56739 0.0
C352 C 0.6382 0.72693 0.57556 0.0
C353 C 0.63727 0.71786 0.63771 0.0
N354 N 0.59112 0.68124 0.72509 0.0
N355 N 0.60051 0.70116 0.47944 0.0
C356 C 0.59057 0.69171 0.66538 0.0
C357 C 0.59587 0.70155 0.53976 0.0
N358 N 0.49602 0.65685 0.65517 0.0
N359 N 0.67928 0.76058 0.55107 0.0
H360 H 0.56942 0.68585 0.45152 0.0
H361 H 0.63603 0.7136 0.45673 0.0
H362 H 0.7105 0.78019 0.57628 0.0
H363 H 0.68024 0.77322 0.50676 0.0
H364 H 0.48755 0.66102 0.70015 0.0
H365 H 0.46178 0.64409 0.63 0.0
H366 H 0.56139 0.65601 0.74686 0.0
H367 H 0.62338 0.69451 0.75273 0.0
C368 C 0.31988 0.16206 0.50048 0.0
C369 C 0.28344 0.16952 0.45158 0.0
C370 C 0.2042 0.15866 0.51631 0.0
C371 C 0.23998 0.17033 0.56462 0.0
N372 N 0.32829 0.14552 0.60682 0.0
N373 N 0.19712 0.13472 0.41171 0.0
C374 C 0.29704 0.15904 0.55828 0.0
C375 C 0.22726 0.1541 0.45885 0.0
N376 N 0.37553 0.15993 0.49135 0.0
N377 N 0.14857 0.15579 0.52558 0.0
H378 H 0.21541 0.12652 0.37074 0.0
H379 H 0.1565 0.1201 0.41523 0.0
H380 H 0.13218 0.15647 0.56836 0.0
H381 H 0.1194 0.1539 0.49161 0.0
H382 H 0.4047 0.16156 0.52525 0.0
H383 H 0.39207 0.15649 0.44887 0.0
H384 H 0.36982 0.13374 0.60475 0.0
H385 H 0.3105 0.1393 0.6484 0.0
C386 C 0.0033 0.08933 0.79697 0.0
C387 C 0.04358 0.04622 0.80967 0.0
C388 C 0.06674 0.04368 0.70434 0.0
C389 C 0.01527 0.07119 0.69146 0.0
N390 N 0.9279 0.10717 0.73079 0.0
N391 N 0.11817 0.98501 0.7762 0.0
C392 C 0.9821 0.09225 0.73887 0.0
C393 C 0.07768 0.02514 0.76353 0.0
N394 N 0.98169 0.12329 0.84101 0.0
N395 N 0.10428 0.03486 0.66033 0.0
H396 H 0.12742 0.97286 0.81982 0.0
H397 H 0.14049 0.9627 0.74376 0.0
H398 H 0.09759 0.05056 0.61741 0.0
H399 H 0.14373 0.01788 0.66792 0.0
H400 H 0.95302 0.15681 0.83256 0.0
H401 H 0.99744 0.12235 0.88406 0.0
H402 H 0.90157 0.11306 0.76662 0.0
H403 H 0.90684 0.10483 0.69066 0.0
C404 C 0.18692 0.71283 0.98454 0.0
C405 C 0.17568 0.7623 0.94748 0.0
C406 C 0.20205 0.8287 0.02881 0.0
C407 C 0.2098 0.77865 0.06594 0.0
N408 N 0.19078 0.67566 0.08456 0.0
N409 N 0.16143 0.86761 0.93792 0.0
C410 C 0.19511 0.72177 0.04565 0.0
C411 C 0.17961 0.82058 0.97074 0.0
N412 N 0.19513 0.6578 0.96103 0.0
N413 N 0.21788 0.88326 0.04829 0.0
H414 H 0.14448 0.86263 0.89566 0.0
H415 H 0.15891 0.91053 0.95448 0.0
H416 H 0.23233 0.89009 0.09137 0.0
H417 H 0.21897 0.92063 0.02116 0.0
H418 H 0.2096 0.62211 0.9861 0.0
H419 H 0.19354 0.64902 0.91579 0.0
H420 H 0.17526 0.63446 0.07204 0.0
H421 H 0.1964 0.68081 0.13008 0.0
C422 C 0.46772 0.05458 0.29821 0.0
C423 C 0.51215 0.03207 0.33279 0.0
C424 C 0.55725 0.99419 0.24433 0.0
C425 C 0.51078 0.01173 0.2099 0.0
N426 N 0.42065 0.05635 0.20259 0.0
N427 N 0.5939 0.97122 0.34125 0.0
C428 C 0.46566 0.04173 0.23632 0.0
C429 C 0.55514 -0.00115 0.30655 0.0
N430 N 0.42795 0.08816 0.32473 0.0
N431 N 0.60491 0.97633 0.21717 0.0
H432 H 0.59399 0.9734 0.38736 0.0
H433 H 0.62303 0.9416 0.32484 0.0
H434 H 0.60955 0.97566 0.17135 0.0
H435 H 0.64199 0.96905 0.23957 0.0
H436 H 0.39709 0.11083 0.30184 0.0
H437 H 0.42741 0.09543 0.37032 0.0
H438 H 0.38428 0.07394 0.21956 0.0
H439 H 0.41881 0.04839 0.15713 0.0
C440 C 0.49659 0.21787 0.28433 0.0
C441 C 0.46 0.2262 0.23604 0.0
C442 C 0.53219 0.19054 0.1688 0.0
C443 C 0.57029 0.1912 0.21668 0.0
N444 N 0.59067 0.22337 0.31666 0.0
N445 N 0.4445 0.22743 0.13059 0.0
C446 C 0.55313 0.21075 0.27324 0.0
C447 C 0.47798 0.21426 0.17749 0.0
N448 N 0.47718 0.21501 0.34112 0.0
N449 N 0.54751 0.16704 0.11578 0.0
H450 H 0.40438 0.24351 0.13597 0.0
H451 H 0.45817 0.22647 0.08689 0.0
H452 H 0.58747 0.15137 0.10816 0.0
H453 H 0.51978 0.16022 0.08109 0.0
H454 H 0.50215 0.20384 0.37721 0.0
H455 H 0.43516 0.21614 0.35113 0.0
H456 H 0.57942 0.24317 0.35645 0.0
H457 H 0.63313 0.22163 0.31026 0.0
C458 C 0.93543 0.26444 0.37776 0.0
C459 C 0.99284 0.27086 0.38549 0.0
C460 C 0.00356 0.16364 0.37744 0.0
C461 C 0.9481 0.15866 0.39644 0.0
N462 N 0.85676 0.19981 0.39111 0.0
N463 N 0.08204 0.2302 0.36379 0.0
C464 C 0.91227 0.20752 0.38693 0.0
C465 C 0.02725 0.2213 0.37461 0.0
N466 N 0.90407 0.31196 0.36139 0.0
N467 N 0.03243 0.11399 0.36288 0.0
H468 H 0.09821 0.2729 0.3594 0.0
H469 H 0.11058 0.19633 0.35802 0.0
H470 H 0.01326 0.07259 0.3613 0.0
H471 H 0.07273 0.11446 0.34697 0.0
H472 H 0.86201 0.30928 0.35184 0.0
H473 H 0.92207 0.35252 0.35043 0.0
H474 H 0.82954 0.23518 0.39509 0.0
H475 H 0.83924 0.15754 0.3926 0.0
C476 C 0.92844 0.74972 0.64763 0.0
C477 C 0.91587 0.80419 0.67513 0.0
C478 C 0.01344 0.83223 0.67053 0.0
C479 C 0.02612 0.77133 0.66604 0.0
N480 N 0.99994 0.6764 0.62776 0.0
N481 N 0.94259 0.90472 0.69429 0.0
C482 C 0.98479 0.73176 0.64553 0.0
C483 C 0.95728 0.84856 0.6787 0.0
N484 N 0.88686 0.71544 0.62556 0.0
N485 N 0.05463 0.87334 0.66773 0.0
H486 H 0.90112 0.91688 0.69814 0.0
H487 H 0.97072 0.93807 0.70447 0.0
H488 H 0.09519 0.86169 0.6575 0.0
H489 H 0.04764 0.91878 0.66826 0.0
H490 H 0.89316 0.67557 0.6036 0.0
H491 H 0.84609 0.73036 0.62412 0.0
H492 H 0.97218 0.64277 0.61742 0.0
H493 H 0.04155 0.66464 0.62384 0.0
C494 C 0.47597 0.73093 0.92257 0.0
C495 C 0.42868 0.72003 0.95754 0.0
C496 C 0.41253 0.82622 0.96705 0.0
C497 C 0.46838 0.83549 0.94986 0.0
N498 N 0.54762 0.80146 0.89565 0.0
N499 N 0.33746 0.75524 0.97804 0.0
C500 C 0.49765 0.7894 0.92092 0.0
C501 C 0.3919 0.76732 0.96822 0.0
N502 N 0.49844 0.6862 0.89006 0.0
N503 N 0.38102 0.87228 0.98662 0.0
H504 H 0.32226 0.71196 0.97644 0.0
H505 H 0.30711 0.78771 0.98104 0.0
H506 H 0.39247 0.91635 0.98105 0.0
H507 H 0.34336 0.86679 0.00816 0.0
H508 H 0.53129 0.69192 0.86096 0.0
H509 H 0.47936 0.64489 0.88684 0.0
H510 H 0.57452 0.76916 0.87997 0.0
H511 H 0.5623 0.8448 0.8917 0.0
C512 C 0.5443 0.81524 0.28571 0.0
C513 C 0.56733 0.81184 0.22794 0.0
C514 C 0.47479 0.81791 0.18506 0.0
C515 C 0.45159 0.8092 0.2416 0.0
N516 N 0.46271 0.79942 0.34686 0.0
N517 N 0.5522 0.79495 0.12305 0.0
C518 C 0.48583 0.80891 0.29263 0.0
C519 C 0.53208 0.81003 0.17753 0.0
N520 N 0.5782 0.82329 0.33346 0.0
N521 N 0.44126 0.83062 0.13788 0.0
H522 H 0.59356 0.78504 0.11497 0.0
H523 H 0.52639 0.78485 0.08743 0.0
H524 H 0.39869 0.8367 0.1426 0.0
H525 H 0.45648 0.84104 0.09599 0.0
H526 H 0.56368 0.83077 0.37616 0.0
H527 H 0.62103 0.82682 0.32934 0.0
H528 H 0.48566 0.79207 0.38529 0.0
H529 H 0.41996 0.79674 0.3525 0.0
C530 C 0.49047 0.23872 0.5948 0.0
C531 C 0.53539 0.21704 0.56071 0.0
C532 C 0.55978 0.31855 0.53481 0.0
C533 C 0.50828 0.3382 0.55546 0.0
N534 N 0.42301 0.31786 0.60584 0.0
N535 N 0.59939 0.23873 0.48067 0.0
C536 C 0.47327 0.29863 0.58656 0.0
C537 C 0.56746 0.25745 0.52673 0.0
N538 N 0.46446 0.20249 0.63433 0.0
N539 N 0.59918 0.35809 0.51743 0.0
H540 H 0.60073 0.19516 0.46579 0.0
H541 H 0.61721 0.26854 0.45107 0.0
H542 H 0.5944 0.40367 0.52259 0.0
H543 H 0.63852 0.34473 0.50431 0.0
H544 H 0.43339 0.21707 0.66259 0.0
H545 H 0.47728 0.15904 0.64218 0.0
H546 H 0.39287 0.28968 0.62293 0.0
H547 H 0.41112 0.36221 0.60215 0.0
C548 C 0.02524 0.29745 0.8119 0.0
C549 C 0.04714 0.28535 0.75496 0.0
C550 C 0.95396 0.27987 0.71374 0.0
C551 C 0.93133 0.28627 0.77111 0.0
N552 N 0.94481 0.293 0.87645 0.0
N553 N 0.03197 0.24586 0.65704 0.0
C554 C 0.96686 0.29272 0.8209 0.0
C555 C 0.01129 0.27078 0.7075 0.0
N556 N 0.05983 0.31439 0.85662 0.0
N557 N 0.92056 0.28245 0.66489 0.0
H558 H 0.07371 0.23532 0.65203 0.0
H559 H 0.00703 0.22956 0.6231 0.0
H560 H 0.87853 0.29194 0.66757 0.0
H561 H 0.93564 0.28264 0.62171 0.0
H562 H 0.04608 0.3281 0.898 0.0
H563 H 0.10252 0.31766 0.85111 0.0
H564 H 0.96851 0.29142 0.91499 0.0
H565 H 0.90222 0.29171 0.88357 0.0
C566 C 0.02083 0.76127 0.04187 0.0
C567 C 0.01013 0.78599 0.98503 0.0
C568 C 0.01117 0.68714 0.94115 0.0
C569 C 0.02733 0.66285 0.99649 0.0
N570 N 0.05536 0.67685 0.0979 0.0
N571 N 0.01209 0.77396 0.87868 0.0
C572 C 0.03468 0.69999 0.04646 0.0
C573 C 0.01001 0.74928 0.93411 0.0
N574 N 0.01542 0.79531 0.09142 0.0
N575 N 0.99768 0.65095 0.89483 0.0
H576 H 0.01652 0.81938 0.8715 0.0
H577 H 0.01651 0.74924 0.84011 0.0
H578 H 0.99897 0.60489 0.89738 0.0
H579 H 0.98008 0.66659 0.85559 0.0
H580 H 0.01716 0.77813 0.13425 0.0
H581 H 0.00494 0.84006 0.0898 0.0
H582 H 0.06763 0.70278 0.13368 0.0
H583 H 0.06346 0.63173 0.10322 0.0
C584 C 0.32391 0.48437 0.27592 0.0
C585 C 0.27512 0.45258 0.2898 0.0
C586 C 0.22134 0.5446 0.28419 0.0
C587 C 0.27118 0.57629 0.27489 0.0
N588 N 0.37072 0.5788 0.27733 0.0
N589 N 0.17811 0.45153 0.31302 0.0
C590 C 0.32273 0.5468 0.27584 0.0
C591 C 0.22384 0.48243 0.29575 0.0
N592 N 0.37117 0.45473 0.261 0.0
N593 N 0.17195 0.57364 0.28017 0.0
H594 H 0.17866 0.40575 0.3195 0.0
H595 H 0.1407 0.47142 0.32394 0.0
H596 H 0.16947 0.61939 0.27399 0.0
H597 H 0.13379 0.55235 0.28034 0.0
H598 H 0.40638 0.47576 0.24479 0.0
H599 H 0.37336 0.40867 0.25894 0.0
H600 H 0.40951 0.5597 0.28371 0.0
H601 H 0.37119 0.625 0.27855 0.0
C602 C 0.6824 0.05653 0.8358 0.0
C603 C 0.72935 0.09382 0.83486 0.0
C604 C 0.79019 0.00926 0.83462 0.0
C605 C 0.74418 0.97065 0.83798 0.0
N606 N 0.6463 0.95737 0.8531 0.0
N607 N 0.82525 0.10621 0.85879 0.0
C608 C 0.68994 0.9942 0.8428 0.0
C609 C 0.78209 0.06986 0.84528 0.0
N610 N 0.63142 0.08069 0.82675 0.0
N611 N 0.84018 0.98965 0.81448 0.0
H612 H 0.81937 0.1513 0.86665 0.0
H613 H 0.86474 0.09023 0.86827 0.0
H614 H 0.84731 0.94623 0.80089 0.0
H615 H 0.87316 0.01815 0.80615 0.0
H616 H 0.59573 0.05562 0.82065 0.0
H617 H 0.62597 0.1265 0.8236 0.0
H618 H 0.60646 0.97259 0.86155 0.0
H619 H 0.6511 0.91163 0.85755 0.0
C620 C 0.24871 0.4873 0.1026 0.0
C621 C 0.29832 0.46603 0.07572 0.0
C622 C 0.24323 0.39153 0.0237 0.0
C623 C 0.19493 0.41668 0.04815 0.0
N624 N 0.15728 0.45992 0.13615 0.0
N625 N 0.34293 0.38104 0.03129 0.0
C626 C 0.20035 0.45286 0.09814 0.0
C627 C 0.29589 0.4121 0.04322 0.0
N628 N 0.24453 0.54345 0.12396 0.0
N629 N 0.23828 0.35103 0.97947 0.0
H630 H 0.38137 0.39332 0.04832 0.0
H631 H 0.34269 0.33981 0.01068 0.0
H632 H 0.19959 0.33576 0.96559 0.0
H633 H 0.27195 0.33457 0.9562 0.0
H634 H 0.20835 0.55971 0.14291 0.0
H635 H 0.2724 0.5765 0.1124 0.0
H636 H 0.16044 0.48555 0.17439 0.0
H637 H 0.12152 0.43428 0.13255 0.0
C638 C 0.85671 0.99459 0.19802 0.0
C639 C 0.83173 0.00548 0.25367 0.0
C640 C 0.84704 0.90265 0.28258 0.0
C641 C 0.85061 0.88992 0.22172 0.0
N642 N 0.89556 0.91936 0.13282 0.0
N643 N 0.82721 0.97809 0.35654 0.0
C644 C 0.86895 0.93494 0.18339 0.0
C645 C 0.83636 0.96214 0.29914 0.0
N646 N 0.86479 0.03952 0.15855 0.0
N647 N 0.85218 0.85784 0.32274 0.0
H648 H 0.82148 0.02241 0.36823 0.0
H649 H 0.82642 0.94853 0.39194 0.0
H650 H 0.86265 0.8151 0.30919 0.0
H651 H 0.85009 0.86349 0.36838 0.0
H652 H 0.87683 0.03277 0.11491 0.0
H653 H 0.8608 0.08389 0.17024 0.0
H654 H 0.91527 0.94976 0.10558 0.0
H655 H 0.9023 0.87483 0.1225 0.0
C656 C 0.79291 0.95431 0.9985 0.0
C657 C 0.82201 0.00859 0.99628 0.0
C658 C 0.73461 0.06282 0.00846 0.0
C659 C 0.70555 0.0083 0.00405 0.0
N660 N 0.70655 0.9041 0.98027 0.0
N661 N 0.8222 0.11501 0.99657 0.0
C662 C 0.73471 0.95465 0.99471 0.0
C663 C 0.79333 0.06322 0.00064 0.0
N664 N 0.82114 0.90215 0.00471 0.0
N665 N 0.7064 0.11343 0.02176 0.0
H666 H 0.86525 0.11588 0.9936 0.0
H667 H 0.80369 0.15653 0.99348 0.0
H668 H 0.66352 0.11435 0.02634 0.0
H669 H 0.72544 0.15371 0.03093 0.0
H670 H 0.80184 0.86163 0.01242 0.0
H671 H 0.86408 0.90026 0.00843 0.0
H672 H 0.72589 0.86477 0.96813 0.0
H673 H 0.6638 0.9032 0.97399 0.0
C674 C 0.26316 0.55415 0.67589 0.0
C675 C 0.25128 0.56897 0.73559 0.0
C676 C 0.28774 0.47304 0.76846 0.0
C677 C 0.28502 0.45405 0.70913 0.0
N678 N 0.30478 0.48255 0.60943 0.0
N679 N 0.26329 0.54883 0.83985 0.0
C680 C 0.28459 0.49706 0.66371 0.0
C681 C 0.26811 0.53064 0.78245 0.0
N682 N 0.24946 0.59189 0.63076 0.0
N683 N 0.31112 0.43687 0.80998 0.0
H684 H 0.25296 0.59232 0.85071 0.0
H685 H 0.26869 0.5211 0.87632 0.0
H686 H 0.33102 0.39781 0.79762 0.0
H687 H 0.31665 0.4483 0.85423 0.0
H688 H 0.25092 0.57994 0.58625 0.0
H689 H 0.23399 0.63434 0.63771 0.0
H690 H 0.31058 0.51345 0.57574 0.0
H691 H 0.32176 0.44078 0.60154 0.0
C692 C 0.22727 0.43203 0.45612 0.0
C693 C 0.18812 0.47849 0.45833 0.0
C694 C 0.26335 0.55022 0.44431 0.0
C695 C 0.30198 0.50364 0.45231 0.0
N696 N 0.31913 0.4027 0.48346 0.0
N697 N 0.16886 0.58342 0.45975 0.0
C698 C 0.28336 0.44536 0.46388 0.0
C699 C 0.2059 0.53835 0.45343 0.0
N700 N 0.2109 0.37506 0.44537 0.0
N701 N 0.28131 0.60496 0.42743 0.0
H702 H 0.12675 0.5761 0.46609 0.0
H703 H 0.18054 0.62772 0.46257 0.0
H704 H 0.32319 0.61462 0.42198 0.0
H705 H 0.25461 0.63908 0.41514 0.0
H706 H 0.23873 0.34028 0.4397 0.0
H707 H 0.1701 0.36408 0.43493 0.0
H708 H 0.30618 0.3607 0.49684 0.0
H709 H 0.36035 0.41174 0.49321 0.0
C710 C 0.79964 0.64414 0.95648 0.0
C711 C 0.76002 0.6641 0.9147 0.0
C712 C 0.68895 0.66377 0.99037 0.0
C713 C 0.7317 0.66363 0.03351 0.0
N714 N 0.82283 0.63003 0.06067 0.0
N715 N 0.66492 0.65561 0.88582 0.0
C716 C 0.78538 0.64421 0.01761 0.0
C717 C 0.70352 0.66079 0.92957 0.0
N718 N 0.85084 0.6282 0.93692 0.0
N719 N 0.63554 0.67145 0.00802 0.0
H720 H 0.6765 0.64972 0.84171 0.0
H721 H 0.62282 0.65069 0.8937 0.0
H722 H 0.62495 0.67177 0.05287 0.0
H723 H 0.6026 0.67828 0.979 0.0
H724 H 0.88283 0.61343 0.96406 0.0
H725 H 0.85981 0.62732 0.89167 0.0
H726 H 0.86405 0.61982 0.05271 0.0
H727 H 0.81155 0.62595 0.105 0.0
C728 C 0.57173 0.58337 0.30299 0.0
C729 C 0.56875 0.52176 0.3125 0.0
C730 C 0.5768 0.50626 0.20593 0.0
C731 C 0.55514 0.56406 0.1982 0.0
N732 N 0.55385 0.66398 0.23454 0.0
N733 N 0.59445 0.42587 0.27568 0.0
C734 C 0.56096 0.60513 0.24515 0.0
C735 C 0.58088 0.48349 0.26457 0.0
N736 N 0.58581 0.61981 0.34857 0.0
N737 N 0.59385 0.47458 0.15801 0.0
H738 H 0.60219 0.4109 0.31875 0.0
H739 H 0.59811 0.39365 0.24305 0.0
H740 H 0.59619 0.49371 0.11595 0.0
H741 H 0.61141 0.43259 0.16076 0.0
H742 H 0.59188 0.66523 0.3437 0.0
H743 H 0.59786 0.60262 0.38961 0.0
H744 H 0.54958 0.69485 0.26824 0.0
H745 H 0.5515 0.68083 0.19148 0.0
C746 C 0.73037 0.25848 0.46129 0.0
C747 C 0.72628 0.19772 0.44502 0.0
C748 C 0.72889 0.16884 0.54905 0.0
C749 C 0.73947 0.22821 0.56517 0.0
N750 N 0.75695 0.32932 0.53721 0.0
N751 N 0.74138 0.09541 0.47346 0.0
C752 C 0.7421 0.27318 0.52143 0.0
C753 C 0.73084 0.15287 0.48889 0.0
N754 N 0.72101 0.30189 0.42015 0.0
N755 N 0.71741 0.12741 0.59146 0.0
H756 H 0.74841 0.08208 0.42996 0.0
H757 H 0.75028 0.06245 0.50448 0.0
H758 H 0.71373 0.13828 0.63607 0.0
H759 H 0.70515 0.08432 0.58144 0.0
H760 H 0.71898 0.34672 0.43055 0.0
H761 H 0.70998 0.29293 0.37643 0.0
H762 H 0.76576 0.36261 0.50664 0.0
H763 H 0.76336 0.34155 0.58125 0.0
C764 C 0.96011 0.43568 0.70587 0.0
C765 C 0.0052 0.44061 0.66627 0.0
C766 C 0.06883 0.45301 0.74899 0.0
C767 C 0.02371 0.45499 0.78876 0.0
N768 N 0.92496 0.45543 0.80464 0.0
N769 N 0.09935 0.4717 0.64941 0.0
C770 C 0.9687 0.44802 0.76729 0.0
C771 C 0.0585 0.45517 0.68766 0.0
N772 N 0.90948 0.41929 0.68474 0.0
N773 N 0.1217 0.4465 0.76975 0.0
H774 H 0.09235 0.47706 0.60421 0.0
H775 H 0.13778 0.48727 0.66344 0.0
H776 H 0.13085 0.43978 0.81448 0.0
H777 H 0.15558 0.44029 0.74208 0.0
H778 H 0.87612 0.40891 0.71187 0.0
H779 H 0.90193 0.41298 0.63964 0.0
H780 H 0.88399 0.45632 0.79044 0.0
H781 H 0.92967 0.46481 0.84953 0.0
C782 C 0.75736 0.95718 0.62096 0.0
C783 C 0.79262 0.94282 0.57278 0.0
C784 C 0.71339 0.90987 0.51512 0.0
C785 C 0.67844 0.93824 0.55658 0.0
N786 N 0.66325 0.96028 0.65918 0.0
N787 N 0.80545 0.873 0.49357 0.0
C788 C 0.69914 0.95152 0.61357 0.0
C789 C 0.77118 0.90788 0.52619 0.0
N790 N 0.77977 0.97857 0.67214 0.0
N791 N 0.69137 0.88913 0.46349 0.0
H792 H 0.84701 0.86748 0.50466 0.0
H793 H 0.79131 0.84399 0.4611 0.0
H794 H 0.64868 0.88838 0.45634 0.0
H795 H 0.71512 0.87446 0.42801 0.0
H796 H 0.75673 0.99667 0.70644 0.0
H797 H 0.82238 0.97855 0.67948 0.0
H798 H 0.67546 0.96821 0.70267 0.0
H799 H 0.62087 0.95346 0.65416 0.0
loop_
_geom_bond_atom_site_label_1
_geom_bond_atom_site_label_2
_geom_bond_distance
_geom_bond_site_symmetry_2
_ccdc_geom_bond_type
Zn0 O3 2.031 . S
Zn0 O5 2.049 . S
Zn0 O10 2.067 . S
Zn1 O2 1.962 . S
Zn1 O4 1.986 . S
Zn1 O6 1.996 . S
Zn1 O9 1.943 . S
O2 Zn1 1.962 . S
O2 C7 1.254 . S
O3 Zn0 2.031 . S
O3 C7 1.269 . S
O4 Zn1 1.986 . S
O4 C11 1.262 . S
O5 Zn0 2.049 . S
O5 C13 1.260 . S
O6 Zn1 1.996 . S
O6 C13 1.257 . S
C7 O2 1.254 . S
C7 O3 1.269 . S
C8 O9 1.249 . S
C8 O10 1.270 . S
O9 Zn1 1.943 . S
O9 C8 1.249 . S
O10 Zn0 2.067 . S
O10 C8 1.270 . S
C11 O4 1.262 . S
C11 O12 1.232 . S
O12 C11 1.232 . S
C13 O5 1.260 . S
C13 O6 1.257 . S
Zn14 O17 2.031 . S
Zn14 O19 2.049 . S
Zn14 O24 2.067 . S
Zn15 O16 1.962 1_545 S
Zn15 O18 1.986 1_645 S
Zn15 O20 1.996 . S
Zn15 O23 1.943 1_545 S
O16 Zn15 1.962 1_565 S
O16 C21 1.254 . S
O17 Zn14 2.031 . S
O17 C21 1.269 1_545 S
O18 Zn15 1.986 1_465 S
O18 C25 1.262 . S
O19 Zn14 2.049 . S
O19 C27 1.260 . S
O20 Zn15 1.996 . S
O20 C27 1.257 . S
C21 O16 1.254 . S
C21 O17 1.269 1_565 S
C22 O23 1.249 1_545 S
C22 O24 1.270 . S
O23 Zn15 1.943 1_565 S
O23 C22 1.249 1_565 S
O24 Zn14 2.067 . S
O24 C22 1.270 . S
C25 O18 1.262 . S
C25 O26 1.232 1_455 S
O26 C25 1.232 1_655 S
C27 O19 1.260 . S
C27 O20 1.257 . S
Zn28 O31 2.031 . S
Zn28 O33 2.049 . S
Zn28 O38 2.067 . S
Zn29 O30 1.962 . S
Zn29 O32 1.986 . S
Zn29 O34 1.996 . S
Zn29 O37 1.943 . S
O30 Zn29 1.962 . S
O30 C35 1.254 . S
O31 Zn28 2.031 . S
O31 C35 1.269 . S
O32 Zn29 1.986 . S
O32 C39 1.262 . S
O33 Zn28 2.049 . S
O33 C41 1.260 . S
O34 Zn29 1.996 . S
O34 C41 1.257 . S
C35 O30 1.254 . S
C35 O31 1.269 . S
C36 O37 1.249 . S
C36 O38 1.270 . S
O37 Zn29 1.943 . S
O37 C36 1.249 . S
O38 Zn28 2.067 . S
O38 C36 1.270 . S
C39 O32 1.262 . S
C39 O40 1.232 . S
O40 C39 1.232 . S
C41 O33 1.260 . S
C41 O34 1.257 . S
Zn42 O45 2.031 . S
Zn42 O47 2.049 . S
Zn42 O52 2.067 . S
Zn43 O44 1.961 1_564 S
Zn43 O46 1.984 1_564 S
Zn43 O48 1.996 . S
Zn43 O51 1.946 1_565 S
O44 Zn43 1.961 1_546 S
O44 C49 1.254 1_556 S
O45 Zn42 2.031 . S
O45 C49 1.269 1_565 S
O46 Zn43 1.984 1_546 S
O46 C53 1.262 . S
O47 Zn42 2.049 . S
O47 C55 1.260 . S
O48 Zn43 1.996 . S
O48 C55 1.260 . S
C49 O44 1.254 1_554 S
C49 O45 1.269 1_545 S
C50 O51 1.249 1_565 S
C50 O52 1.270 . S
O51 Zn43 1.946 1_545 S
O51 C50 1.249 1_545 S
O52 Zn42 2.067 . S
O52 C50 1.270 . S
C53 O46 1.262 . S
C53 O54 1.232 . S
O54 C53 1.232 . S
C55 O47 1.260 . S
C55 O48 1.260 . S
Zn56 O59 2.031 . S
Zn56 O61 2.049 . S
Zn56 O66 2.067 . S
Zn57 O58 1.962 . S
Zn57 O60 1.986 . S
Zn57 O62 1.996 . S
Zn57 O65 1.943 . S
O58 Zn57 1.962 . S
O58 C63 1.254 . S
O59 Zn56 2.031 . S
O59 C63 1.269 . S
O60 Zn57 1.986 . S
O60 C67 1.262 . S
O61 Zn56 2.049 . S
O61 C69 1.260 . S
O62 Zn57 1.996 . S
O62 C69 1.257 . S
C63 O58 1.254 . S
C63 O59 1.269 . S
C64 O65 1.249 . S
C64 O66 1.270 . S
O65 Zn57 1.943 . S
O65 C64 1.249 . S
O66 Zn56 2.067 . S
O66 C64 1.270 . S
C67 O60 1.262 . S
C67 O68 1.232 . S
O68 C67 1.232 . S
C69 O61 1.260 . S
C69 O62 1.257 . S
Zn70 O73 2.031 . S
Zn70 O75 2.049 . S
Zn70 O80 2.067 . S
Zn71 O72 1.962 1_545 S
Zn71 O74 1.986 1_545 S
Zn71 O76 1.996 . S
Zn71 O79 1.943 1_545 S
O72 Zn71 1.962 1_565 S
O72 C77 1.254 . S
O73 Zn70 2.031 . S
O73 C77 1.269 1_545 S
O74 Zn71 1.986 1_565 S
O74 C81 1.262 . S
O75 Zn70 2.049 . S
O75 C83 1.260 . S
O76 Zn71 1.996 . S
O76 C83 1.257 . S
C77 O72 1.254 . S
C77 O73 1.269 1_565 S
C78 O79 1.249 1_545 S
C78 O80 1.270 . S
O79 Zn71 1.943 1_565 S
O79 C78 1.249 1_565 S
O80 Zn70 2.067 . S
O80 C78 1.270 . S
C81 O74 1.262 . S
C81 O82 1.232 . S
O82 C81 1.232 . S
C83 O75 1.260 . S
C83 O76 1.257 . S
Zn84 O87 2.031 . S
Zn84 O89 2.049 . S
Zn84 O94 2.067 . S
Zn85 O86 1.962 . S
Zn85 O88 1.986 . S
Zn85 O90 1.996 . S
Zn85 O93 1.943 . S
O86 Zn85 1.962 . S
O86 C91 1.254 . S
O87 Zn84 2.031 . S
O87 C91 1.269 . S
O88 Zn85 1.986 . S
O88 C95 1.262 . S
O89 Zn84 2.049 . S
O89 C97 1.260 . S
O90 Zn85 1.996 . S
O90 C97 1.257 . S
C91 O86 1.254 . S
C91 O87 1.269 . S
C92 O93 1.249 . S
C92 O94 1.270 . S
O93 Zn85 1.943 . S
O93 C92 1.249 . S
O94 Zn84 2.067 . S
O94 C92 1.270 . S
C95 O88 1.262 . S
C95 O96 1.232 . S
O96 C95 1.232 . S
C97 O89 1.260 . S
C97 O90 1.257 . S
Zn98 O101 2.031 . S
Zn98 O103 2.049 . S
Zn98 O108 2.067 . S
Zn99 O100 1.961 1_566 S
Zn99 O102 1.984 1_666 S
Zn99 O104 1.996 . S
Zn99 O107 1.946 1_565 S
O100 Zn99 1.961 1_544 S
O100 C105 1.254 1_554 S
O101 Zn98 2.031 . S
O101 C105 1.269 1_565 S
O102 Zn99 1.984 1_444 S
O102 C109 1.262 . S
O103 Zn98 2.049 . S
O103 C111 1.260 . S
O104 Zn99 1.996 . S
O104 C111 1.260 . S
C105 O100 1.254 1_556 S
C105 O101 1.269 1_545 S
C106 O107 1.249 1_565 S
C106 O108 1.270 . S
O107 Zn99 1.946 1_545 S
O107 C106 1.249 1_545 S
O108 Zn98 2.067 . S
O108 C106 1.270 . S
C109 O102 1.262 . S
C109 O110 1.232 1_455 S
O110 C109 1.232 1_655 S
C111 O103 1.260 . S
C111 O104 1.260 . S
Zn112 O115 2.031 . S
Zn112 O117 2.049 . S
Zn112 O122 2.067 . S
Zn113 O114 1.962 . S
Zn113 O116 1.986 . S
Zn113 O118 1.996 . S
Zn113 O121 1.943 . S
O114 Zn113 1.962 . S
O114 C119 1.254 . S
O115 Zn112 2.031 . S
O115 C119 1.269 . S
O116 Zn113 1.986 . S
O116 C123 1.262 . S
O117 Zn112 2.049 . S
O117 C125 1.260 . S
O118 Zn113 1.996 . S
O118 C125 1.257 . S
C119 O114 1.254 . S
C119 O115 1.269 . S
C120 O121 1.249 . S
C120 O122 1.270 . S
O121 Zn113 1.943 . S
O121 C120 1.249 . S
O122 Zn112 2.067 . S
O122 C120 1.270 . S
C123 O116 1.262 . S
C123 O124 1.232 . S
O124 C123 1.232 . S
C125 O117 1.260 . S
C125 O118 1.257 . S
Zn126 O129 2.031 . S
Zn126 O131 2.049 . S
Zn126 O136 2.067 . S
Zn127 O128 1.961 1_556 S
Zn127 O130 1.984 1_456 S
Zn127 O132 1.996 . S
Zn127 O135 1.946 . S
O128 Zn127 1.961 1_554 S
O128 C133 1.254 1_554 S
O129 Zn126 2.031 . S
O129 C133 1.269 . S
O130 Zn127 1.984 1_654 S
O130 C137 1.262 . S
O131 Zn126 2.049 . S
O131 C139 1.260 . S
O132 Zn127 1.996 . S
O132 C139 1.260 . S
C133 O128 1.254 1_556 S
C133 O129 1.269 . S
C134 O135 1.249 . S
C134 O136 1.270 . S
O135 Zn127 1.946 . S
O135 C134 1.249 . S
O136 Zn126 2.067 . S
O136 C134 1.270 . S
C137 O130 1.262 . S
C137 O138 1.232 1_655 S
O138 C137 1.232 1_455 S
C139 O131 1.260 . S
C139 O132 1.260 . S
Zn140 O143 2.031 . S
Zn140 O145 2.049 . S
Zn140 O150 2.067 . S
Zn141 O142 1.962 . S
Zn141 O144 1.986 . S
Zn141 O146 1.996 . S
Zn141 O149 1.943 . S
O142 Zn141 1.962 . S
O142 C147 1.254 . S
O143 Zn140 2.031 . S
O143 C147 1.269 . S
O144 Zn141 1.986 . S
O144 C151 1.262 . S
O145 Zn140 2.049 . S
O145 C153 1.260 . S
O146 Zn141 1.996 . S
O146 C153 1.257 . S
C147 O142 1.254 . S
C147 O143 1.269 . S
C148 O149 1.249 . S
C148 O150 1.270 . S
O149 Zn141 1.943 . S
O149 C148 1.249 . S
O150 Zn140 2.067 . S
O150 C148 1.270 . S
C151 O144 1.262 . S
C151 O152 1.232 . S
O152 C151 1.232 . S
C153 O145 1.260 . S
C153 O146 1.257 . S
Zn154 O157 2.031 . S
Zn154 O159 2.049 . S
Zn154 O164 2.067 . S
Zn155 O156 1.962 . S
Zn155 O158 1.986 1_455 S
Zn155 O160 1.996 . S
Zn155 O163 1.943 . S
O156 Zn155 1.962 . S
O156 C161 1.254 . S
O157 Zn154 2.031 . S
O157 C161 1.269 . S
O158 Zn155 1.986 1_655 S
O158 C165 1.262 . S
O159 Zn154 2.049 . S
O159 C167 1.260 . S
O160 Zn155 1.996 . S
O160 C167 1.257 . S
C161 O156 1.254 . S
C161 O157 1.269 . S
C162 O163 1.249 . S
C162 O164 1.270 . S
O163 Zn155 1.943 . S
O163 C162 1.249 . S
O164 Zn154 2.067 . S
O164 C162 1.270 . S
C165 O158 1.262 . S
C165 O166 1.232 1_655 S
O166 C165 1.232 1_455 S
C167 O159 1.260 . S
C167 O160 1.257 . S
Zn168 O171 2.031 . S
Zn168 O173 2.049 . S
Zn168 O178 2.067 . S
Zn169 O170 1.961 1_554 S
Zn169 O172 1.984 1_554 S
Zn169 O174 1.996 . S
Zn169 O177 1.946 . S
O170 Zn169 1.961 1_556 S
O170 C175 1.254 1_556 S
O171 Zn168 2.031 . S
O171 C175 1.269 . S
O172 Zn169 1.984 1_556 S
O172 C179 1.262 . S
O173 Zn168 2.049 . S
O173 C181 1.260 . S
O174 Zn169 1.996 . S
O174 C181 1.260 . S
C175 O170 1.254 1_554 S
C175 O171 1.269 . S
C176 O177 1.249 . S
C176 O178 1.270 . S
O177 Zn169 1.946 . S
O177 C176 1.249 . S
O178 Zn168 2.067 . S
O178 C176 1.270 . S
C179 O172 1.262 . S
C179 O180 1.232 . S
O180 C179 1.232 . S
C181 O173 1.260 . S
C181 O174 1.260 . S
Zn182 O185 2.031 . S
Zn182 O187 2.049 . S
Zn182 O192 2.067 . S
Zn183 O184 1.962 . S
Zn183 O186 1.986 . S
Zn183 O188 1.996 . S
Zn183 O191 1.943 . S
O184 Zn183 1.962 . S
O184 C189 1.254 . S
O185 Zn182 2.031 . S
O185 C189 1.269 . S
O186 Zn183 1.986 . S
O186 C193 1.262 . S
O187 Zn182 2.049 . S
O187 C195 1.260 . S
O188 Zn183 1.996 . S
O188 C195 1.257 . S
C189 O184 1.254 . S
C189 O185 1.269 . S
C190 O191 1.249 . S
C190 O192 1.270 . S
O191 Zn183 1.943 . S
O191 C190 1.249 . S
O192 Zn182 2.067 . S
O192 C190 1.270 . S
C193 O186 1.262 . S
C193 O194 1.232 . S
O194 C193 1.232 . S
C195 O187 1.260 . S
C195 O188 1.257 . S
Zn196 O199 2.031 . S
Zn196 O201 2.049 . S
Zn196 O206 2.067 . S
Zn197 O198 1.962 . S
Zn197 O200 1.986 . S
Zn197 O202 1.996 . S
Zn197 O205 1.943 . S
O198 Zn197 1.962 . S
O198 C203 1.254 . S
O199 Zn196 2.031 . S
O199 C203 1.269 . S
O200 Zn197 1.986 . S
O200 C207 1.262 . S
O201 Zn196 2.049 . S
O201 C209 1.260 . S
O202 Zn197 1.996 . S
O202 C209 1.257 . S
C203 O198 1.254 . S
C203 O199 1.269 . S
C204 O205 1.249 . S
C204 O206 1.270 . S
O205 Zn197 1.943 . S
O205 C204 1.249 . S
O206 Zn196 2.067 . S
O206 C204 1.270 . S
C207 O200 1.262 . S
C207 O208 1.232 . S
O208 C207 1.232 . S
C209 O201 1.260 . S
C209 O202 1.257 . S
Zn210 O213 2.031 . S
Zn210 O215 2.049 . S
Zn210 O220 2.067 . S
Zn211 O212 1.962 . S
Zn211 O214 1.986 . S
Zn211 O216 1.996 . S
Zn211 O219 1.943 . S
O212 Zn211 1.962 . S
O212 C217 1.254 . S
O213 Zn210 2.031 . S
O213 C217 1.269 . S
O214 Zn211 1.986 . S
O214 C221 1.262 . S
O215 Zn210 2.049 . S
O215 C223 1.260 . S
O216 Zn211 1.996 . S
O216 C223 1.257 . S
C217 O212 1.254 . S
C217 O213 1.269 . S
C218 O219 1.249 . S
C218 O220 1.270 . S
O219 Zn211 1.943 . S
O219 C218 1.249 . S
O220 Zn210 2.067 . S
O220 C218 1.270 . S
C221 O214 1.262 . S
C221 O222 1.232 . S
O222 C221 1.232 . S
C223 O215 1.260 . S
C223 O216 1.257 . S
C224 C225 1.363 . S
C224 C230 1.379 . S
C224 N232 1.356 . S
C225 C224 1.363 . S
C225 C231 1.363 . S
C226 C227 1.363 . S
C226 C231 1.379 . S
C226 N233 1.356 . S
C227 C226 1.363 . S
C227 C230 1.363 . S
N228 C230 1.356 . S
N228 H240 0.984 . S
N228 H241 0.985 . S
N229 C231 1.356 . S
N229 H234 0.984 . S
N229 H235 0.985 . S
C230 C224 1.379 . S
C230 C227 1.363 . S
C230 N228 1.356 . S
C231 C225 1.363 . S
C231 C226 1.379 . S
C231 N229 1.356 . S
N232 C224 1.356 . S
N232 H238 0.984 . S
N232 H239 0.984 . S
N233 C226 1.356 . S
N233 H236 0.984 . S
N233 H237 0.985 1_545 S
H234 N229 0.984 . S
H235 N229 0.985 . S
H236 N233 0.984 . S
H237 N233 0.985 1_565 S
H238 N232 0.984 . S
H239 N232 0.984 . S
H240 N228 0.984 . S
H241 N228 0.985 . S
C242 C243 1.363 . S
C242 C248 1.379 . S
C242 N250 1.356 . S
C243 C242 1.363 . S
C243 C249 1.363 . S
C244 C245 1.363 . S
C244 C249 1.379 . S
C244 N251 1.356 . S
C245 C244 1.363 . S
C245 C248 1.363 . S
N246 C248 1.356 . S
N246 H258 0.984 . S
N246 H259 0.985 . S
N247 C249 1.356 . S
N247 H252 0.984 . S
N247 H253 0.985 . S
C248 C242 1.379 . S
C248 C245 1.363 . S
C248 N246 1.356 . S
C249 C243 1.363 . S
C249 C244 1.379 . S
C249 N247 1.356 . S
N250 C242 1.356 . S
N250 H256 0.984 1_565 S
N250 H257 0.984 . S
N251 C244 1.356 . S
N251 H254 0.984 . S
N251 H255 0.985 . S
H252 N247 0.984 . S
H253 N247 0.985 . S
H254 N251 0.984 . S
H255 N251 0.985 . S
H256 N250 0.984 1_545 S
H257 N250 0.984 . S
H258 N246 0.984 . S
H259 N246 0.985 . S
C260 C261 1.363 . S
C260 C266 1.379 . S
C260 N268 1.356 . S
C261 C260 1.363 . S
C261 C267 1.363 . S
C262 C263 1.363 . S
C262 C267 1.379 . S
C262 N269 1.356 . S
C263 C262 1.363 . S
C263 C266 1.363 . S
N264 C266 1.356 . S
N264 H276 0.984 . S
N264 H277 0.985 . S
N265 C267 1.356 . S
N265 H270 0.984 . S
N265 H271 0.985 . S
C266 C260 1.379 . S
C266 C263 1.363 . S
C266 N264 1.356 . S
C267 C261 1.363 . S
C267 C262 1.379 . S
C267 N265 1.356 . S
N268 C260 1.356 . S
N268 H274 0.984 . S
N268 H275 0.984 . S
N269 C262 1.356 . S
N269 H272 0.984 . S
N269 H273 0.985 . S
H270 N265 0.984 . S
H271 N265 0.985 . S
H272 N269 0.984 . S
H273 N269 0.985 . S
H274 N268 0.984 . S
H275 N268 0.984 . S
H276 N264 0.984 . S
H277 N264 0.985 . S
C278 C279 1.363 . S
C278 C284 1.379 . S
C278 N286 1.356 . S
C279 C278 1.363 . S
C279 C285 1.363 . S
C280 C281 1.363 . S
C280 C285 1.379 . S
C280 N287 1.356 . S
C281 C280 1.363 . S
C281 C284 1.363 . S
N282 C284 1.356 . S
N282 H294 0.984 . S
N282 H295 0.985 . S
N283 C285 1.356 . S
N283 H288 0.984 . S
N283 H289 0.985 . S
C284 C278 1.379 . S
C284 C281 1.363 . S
C284 N282 1.356 . S
C285 C279 1.363 . S
C285 C280 1.379 . S
C285 N283 1.356 . S
N286 C278 1.356 . S
N286 H292 0.984 . S
N286 H293 0.984 . S
N287 C280 1.356 . S
N287 H290 0.984 . S
N287 H291 0.985 . S
H288 N283 0.984 . S
H289 N283 0.985 . S
H290 N287 0.984 . S
H291 N287 0.985 . S
H292 N286 0.984 . S
H293 N286 0.984 . S
H294 N282 0.984 . S
H295 N282 0.985 . S
C296 C297 1.363 . S
C296 C302 1.379 . S
C296 N304 1.356 . S
C297 C296 1.363 . S
C297 C303 1.363 . S
C298 C299 1.363 . S
C298 C303 1.379 . S
C298 N305 1.356 . S
C299 C298 1.363 . S
C299 C302 1.363 . S
N300 C302 1.356 . S
N300 H312 0.984 . S
N300 H313 0.985 . S
N301 C303 1.356 . S
N301 H306 0.984 . S
N301 H307 0.985 . S
C302 C296 1.379 . S
C302 C299 1.363 . S
C302 N300 1.356 . S
C303 C297 1.363 . S
C303 C298 1.379 . S
C303 N301 1.356 . S
N304 C296 1.356 . S
N304 H310 0.984 . S
N304 H311 0.984 . S
N305 C298 1.356 . S
N305 H308 0.984 . S
N305 H309 0.985 . S
H306 N301 0.984 . S
H307 N301 0.985 . S
H308 N305 0.984 . S
H309 N305 0.985 . S
H310 N304 0.984 . S
H311 N304 0.984 . S
H312 N300 0.984 . S
H313 N300 0.985 . S
C314 C315 1.363 . S
C314 C320 1.379 . S
C314 N322 1.356 . S
C315 C314 1.363 . S
C315 C321 1.363 . S
C316 C317 1.363 . S
C316 C321 1.379 . S
C316 N323 1.356 . S
C317 C316 1.363 . S
C317 C320 1.363 . S
N318 C320 1.356 . S
N318 H330 0.984 . S
N318 H331 0.985 . S
N319 C321 1.356 . S
N319 H324 0.984 . S
N319 H325 0.985 . S
C320 C314 1.379 . S
C320 C317 1.363 . S
C320 N318 1.356 . S
C321 C315 1.363 . S
C321 C316 1.379 . S
C321 N319 1.356 . S
N322 C314 1.356 . S
N322 H328 0.984 1_554 S
N322 H329 0.984 1_554 S
N323 C316 1.356 . S
N323 H326 0.984 . S
N323 H327 0.985 . S
H324 N319 0.984 . S
H325 N319 0.985 . S
H326 N323 0.984 . S
H327 N323 0.985 . S
H328 N322 0.984 1_556 S
H329 N322 0.984 1_556 S
H330 N318 0.984 . S
H331 N318 0.985 . S
C332 C333 1.363 . S
C332 C338 1.379 . S
C332 N340 1.356 . S
C333 C332 1.363 . S
C333 C339 1.363 . S
C334 C335 1.363 . S
C334 C339 1.379 . S
C334 N341 1.356 . S
C335 C334 1.363 . S
C335 C338 1.363 . S
N336 C338 1.356 . S
N336 H348 0.984 . S
N336 H349 0.985 . S
N337 C339 1.356 . S
N337 H342 0.984 . S
N337 H343 0.985 . S
C338 C332 1.379 . S
C338 C335 1.363 . S
C338 N336 1.356 . S
C339 C333 1.363 . S
C339 C334 1.379 . S
C339 N337 1.356 . S
N340 C332 1.356 . S
N340 H346 0.984 . S
N340 H347 0.984 . S
N341 C334 1.356 . S
N341 H344 0.984 . S
N341 H345 0.985 . S
H342 N337 0.984 . S
H343 N337 0.985 . S
H344 N341 0.984 . S
H345 N341 0.985 . S
H346 N340 0.984 . S
H347 N340 0.984 . S
H348 N336 0.984 . S
H349 N336 0.985 . S
C350 C351 1.363 . S
C350 C356 1.379 . S
C350 N358 1.356 . S
C351 C350 1.363 . S
C351 C357 1.363 . S
C352 C353 1.363 . S
C352 C357 1.379 . S
C352 N359 1.356 . S
C353 C352 1.363 . S
C353 C356 1.363 . S
N354 C356 1.356 . S
N354 H366 0.984 . S
N354 H367 0.985 . S
N355 C357 1.356 . S
N355 H360 0.984 . S
N355 H361 0.985 . S
C356 C350 1.379 . S
C356 C353 1.363 . S
C356 N354 1.356 . S
C357 C351 1.363 . S
C357 C352 1.379 . S
C357 N355 1.356 . S
N358 C350 1.356 . S
N358 H364 0.984 . S
N358 H365 0.984 . S
N359 C352 1.356 . S
N359 H362 0.984 . S
N359 H363 0.985 . S
H360 N355 0.984 . S
H361 N355 0.985 . S
H362 N359 0.984 . S
H363 N359 0.985 . S
H364 N358 0.984 . S
H365 N358 0.984 . S
H366 N354 0.984 . S
H367 N354 0.985 . S
C368 C369 1.363 . S
C368 C374 1.379 . S
C368 N376 1.356 . S
C369 C368 1.363 . S
C369 C375 1.363 . S
C370 C371 1.363 . S
C370 C375 1.379 . S
C370 N377 1.356 . S
C371 C370 1.363 . S
C371 C374 1.363 . S
N372 C374 1.356 . S
N372 H384 0.984 . S
N372 H385 0.985 . S
N373 C375 1.356 . S
N373 H378 0.984 . S
N373 H379 0.985 . S
C374 C368 1.379 . S
C374 C371 1.363 . S
C374 N372 1.356 . S
C375 C369 1.363 . S
C375 C370 1.379 . S
C375 N373 1.356 . S
N376 C368 1.356 . S
N376 H382 0.984 . S
N376 H383 0.984 . S
N377 C370 1.356 . S
N377 H380 0.984 . S
N377 H381 0.985 . S
H378 N373 0.984 . S
H379 N373 0.985 . S
H380 N377 0.984 . S
H381 N377 0.985 . S
H382 N376 0.984 . S
H383 N376 0.984 . S
H384 N372 0.984 . S
H385 N372 0.985 . S
C386 C387 1.363 . S
C386 C392 1.379 . S
C386 N394 1.356 . S
C387 C386 1.363 . S
C387 C393 1.363 1_545 S
C388 C389 1.363 . S
C388 C393 1.379 . S
C388 N395 1.356 1_655 S
C389 C388 1.363 . S
C389 C392 1.363 1_565 S
N390 C392 1.356 . S
N390 H402 0.984 . S
N390 H403 0.985 . S
N391 C393 1.356 1_455 S
N391 H396 0.984 1_455 S
N391 H397 0.985 . S
C392 C386 1.379 . S
C392 C389 1.363 1_545 S
C392 N390 1.356 . S
C393 C387 1.363 1_565 S
C393 C388 1.379 . S
C393 N391 1.356 1_655 S
N394 C386 1.356 . S
N394 H400 0.984 . S
N394 H401 0.984 . S
N395 C388 1.356 1_455 S
N395 H398 0.984 1_455 S
N395 H399 0.985 . S
H396 N391 0.984 1_655 S
H397 N391 0.985 . S
H398 N395 0.984 1_655 S
H399 N395 0.985 . S
H400 N394 0.984 . S
H401 N394 0.984 . S
H402 N390 0.984 . S
H403 N390 0.985 . S
C404 C405 1.363 . S
C404 C410 1.379 1_556 S
C404 N412 1.356 . S
C405 C404 1.363 . S
C405 C411 1.363 . S
C406 C407 1.363 . S
C406 C411 1.379 1_554 S
C406 N413 1.356 . S
C407 C406 1.363 . S
C407 C410 1.363 . S
N408 C410 1.356 . S
N408 H420 0.984 . S
N408 H421 0.985 . S
N409 C411 1.356 . S
N409 H414 0.984 . S
N409 H415 0.985 . S
C410 C404 1.379 1_554 S
C410 C407 1.363 . S
C410 N408 1.356 . S
C411 C405 1.363 . S
C411 C406 1.379 1_556 S
C411 N409 1.356 . S
N412 C404 1.356 . S
N412 H418 0.984 . S
N412 H419 0.984 . S
N413 C406 1.356 . S
N413 H416 0.984 . S
N413 H417 0.985 . S
H414 N409 0.984 . S
H415 N409 0.985 . S
H416 N413 0.984 . S
H417 N413 0.985 . S
H418 N412 0.984 . S
H419 N412 0.984 . S
H420 N408 0.984 . S
H421 N408 0.985 . S
C422 C423 1.363 1_545 S
C422 C428 1.379 . S
C422 N430 1.356 . S
C423 C422 1.363 1_565 S
C423 C429 1.363 . S
C424 C425 1.363 1_565 S
C424 C429 1.379 . S
C424 N431 1.356 . S
C425 C424 1.363 1_545 S
C425 C428 1.363 . S
N426 C428 1.356 . S
N426 H438 0.984 . S
N426 H439 0.985 . S
N427 C429 1.356 . S
N427 H432 0.984 . S
N427 H433 0.985 . S
C428 C422 1.379 . S
C428 C425 1.363 . S
C428 N426 1.356 . S
C429 C423 1.363 . S
C429 C424 1.379 . S
C429 N427 1.356 . S
N430 C422 1.356 . S
N430 H436 0.984 . S
N430 H437 0.984 . S
N431 C424 1.356 . S
N431 H434 0.984 . S
N431 H435 0.985 . S
H432 N427 0.984 . S
H433 N427 0.985 . S
H434 N431 0.984 . S
H435 N431 0.985 . S
H436 N430 0.984 . S
H437 N430 0.984 . S
H438 N426 0.984 . S
H439 N426 0.985 . S
C440 C441 1.363 . S
C440 C446 1.379 . S
C440 N448 1.356 . S
C441 C440 1.363 . S
C441 C447 1.363 . S
C442 C443 1.363 . S
C442 C447 1.379 . S
C442 N449 1.356 . S
C443 C442 1.363 . S
C443 C446 1.363 . S
N444 C446 1.356 . S
N444 H456 0.984 . S
N444 H457 0.985 . S
N445 C447 1.356 . S
N445 H450 0.984 . S
N445 H451 0.985 . S
C446 C440 1.379 . S
C446 C443 1.363 . S
C446 N444 1.356 . S
C447 C441 1.363 . S
C447 C442 1.379 . S
C447 N445 1.356 . S
N448 C440 1.356 . S
N448 H454 0.984 . S
N448 H455 0.984 . S
N449 C442 1.356 . S
N449 H452 0.984 . S
N449 H453 0.985 . S
H450 N445 0.984 . S
H451 N445 0.985 . S
H452 N449 0.984 . S
H453 N449 0.985 . S
H454 N448 0.984 . S
H455 N448 0.984 . S
H456 N444 0.984 . S
H457 N444 0.985 . S
C458 C459 1.363 . S
C458 C464 1.379 . S
C458 N466 1.356 . S
C459 C458 1.363 . S
C459 C465 1.363 1_655 S
C460 C461 1.363 . S
C460 C465 1.379 . S
C460 N467 1.356 . S
C461 C460 1.363 . S
C461 C464 1.363 1_455 S
N462 C464 1.356 . S
N462 H474 0.984 . S
N462 H475 0.985 . S
N463 C465 1.356 . S
N463 H468 0.984 . S
N463 H469 0.985 . S
C464 C458 1.379 . S
C464 C461 1.363 1_655 S
C464 N462 1.356 . S
C465 C459 1.363 1_455 S
C465 C460 1.379 . S
C465 N463 1.356 . S
N466 C458 1.356 . S
N466 H472 0.984 . S
N466 H473 0.984 . S
N467 C460 1.356 . S
N467 H470 0.984 . S
N467 H471 0.985 . S
H468 N463 0.984 . S
H469 N463 0.985 . S
H470 N467 0.984 . S
H471 N467 0.985 . S
H472 N466 0.984 . S
H473 N466 0.984 . S
H474 N462 0.984 . S
H475 N462 0.985 . S
C476 C477 1.363 . S
C476 C482 1.379 1_655 S
C476 N484 1.356 . S
C477 C476 1.363 . S
C477 C483 1.363 . S
C478 C479 1.363 . S
C478 C483 1.379 1_455 S
C478 N485 1.356 . S
C479 C478 1.363 . S
C479 C482 1.363 . S
N480 C482 1.356 . S
N480 H492 0.984 . S
N480 H493 0.985 . S
N481 C483 1.356 . S
N481 H486 0.984 . S
N481 H487 0.985 . S
C482 C476 1.379 1_455 S
C482 C479 1.363 . S
C482 N480 1.356 . S
C483 C477 1.363 . S
C483 C478 1.379 1_655 S
C483 N481 1.356 . S
N484 C476 1.356 . S
N484 H490 0.984 . S
N484 H491 0.984 . S
N485 C478 1.356 . S
N485 H488 0.984 . S
N485 H489 0.985 . S
H486 N481 0.984 . S
H487 N481 0.985 . S
H488 N485 0.984 . S
H489 N485 0.985 . S
H490 N484 0.984 . S
H491 N484 0.984 . S
H492 N480 0.984 . S
H493 N480 0.985 . S
C494 C495 1.363 1_556 S
C494 C500 1.379 . S
C494 N502 1.356 . S
C495 C494 1.363 1_554 S
C495 C501 1.363 . S
C496 C497 1.363 . S
C496 C501 1.379 . S
C496 N503 1.356 . S
C497 C496 1.363 . S
C497 C500 1.363 1_554 S
N498 C500 1.356 . S
N498 H510 0.984 . S
N498 H511 0.985 . S
N499 C501 1.356 . S
N499 H504 0.984 . S
N499 H505 0.985 . S
C500 C494 1.379 . S
C500 C497 1.363 1_556 S
C500 N498 1.356 . S
C501 C495 1.363 . S
C501 C496 1.379 . S
C501 N499 1.356 . S
N502 C494 1.356 . S
N502 H508 0.984 . S
N502 H509 0.984 . S
N503 C496 1.356 . S
N503 H506 0.984 . S
N503 H507 0.985 . S
H504 N499 0.984 . S
H505 N499 0.985 . S
H506 N503 0.984 . S
H507 N503 0.985 . S
H508 N502 0.984 . S
H509 N502 0.984 . S
H510 N498 0.984 . S
H511 N498 0.985 . S
C512 C513 1.363 . S
C512 C518 1.379 . S
C512 N520 1.356 . S
C513 C512 1.363 . S
C513 C519 1.363 . S
C514 C515 1.363 . S
C514 C519 1.379 . S
C514 N521 1.356 . S
C515 C514 1.363 . S
C515 C518 1.363 . S
N516 C518 1.356 . S
N516 H528 0.984 . S
N516 H529 0.985 . S
N517 C519 1.356 . S
N517 H522 0.984 . S
N517 H523 0.985 . S
C518 C512 1.379 . S
C518 C515 1.363 . S
C518 N516 1.356 . S
C519 C513 1.363 . S
C519 C514 1.379 . S
C519 N517 1.356 . S
N520 C512 1.356 . S
N520 H526 0.984 . S
N520 H527 0.984 . S
N521 C514 1.356 . S
N521 H524 0.984 . S
N521 H525 0.985 . S
H522 N517 0.984 . S
H523 N517 0.985 . S
H524 N521 0.984 . S
H525 N521 0.985 . S
H526 N520 0.984 . S
H527 N520 0.984 . S
H528 N516 0.984 . S
H529 N516 0.985 . S
C530 C531 1.363 . S
C530 C536 1.379 . S
C530 N538 1.356 . S
C531 C530 1.363 . S
C531 C537 1.363 . S
C532 C533 1.363 . S
C532 C537 1.379 . S
C532 N539 1.356 . S
C533 C532 1.363 . S
C533 C536 1.363 . S
N534 C536 1.356 . S
N534 H546 0.984 . S
N534 H547 0.985 . S
N535 C537 1.356 . S
N535 H540 0.984 . S
N535 H541 0.985 . S
C536 C530 1.379 . S
C536 C533 1.363 . S
C536 N534 1.356 . S
C537 C531 1.363 . S
C537 C532 1.379 . S
C537 N535 1.356 . S
N538 C530 1.356 . S
N538 H544 0.984 . S
N538 H545 0.984 . S
N539 C532 1.356 . S
N539 H542 0.984 . S
N539 H543 0.985 . S
H540 N535 0.984 . S
H541 N535 0.985 . S
H542 N539 0.984 . S
H543 N539 0.985 . S
H544 N538 0.984 . S
H545 N538 0.984 . S
H546 N534 0.984 . S
H547 N534 0.985 . S
C548 C549 1.363 . S
C548 C554 1.379 1_455 S
C548 N556 1.356 . S
C549 C548 1.363 . S
C549 C555 1.363 . S
C550 C551 1.363 . S
C550 C555 1.379 1_655 S
C550 N557 1.356 . S
C551 C550 1.363 . S
C551 C554 1.363 . S
N552 C554 1.356 . S
N552 H564 0.984 . S
N552 H565 0.985 . S
N553 C555 1.356 . S
N553 H558 0.984 . S
N553 H559 0.985 . S
C554 C548 1.379 1_655 S
C554 C551 1.363 . S
C554 N552 1.356 . S
C555 C549 1.363 . S
C555 C550 1.379 1_455 S
C555 N553 1.356 . S
N556 C548 1.356 . S
N556 H562 0.984 . S
N556 H563 0.984 . S
N557 C550 1.356 . S
N557 H560 0.984 . S
N557 H561 0.985 . S
H558 N553 0.984 . S
H559 N553 0.985 . S
H560 N557 0.984 . S
H561 N557 0.985 . S
H562 N556 0.984 . S
H563 N556 0.984 . S
H564 N552 0.984 . S
H565 N552 0.985 . S
C566 C567 1.363 1_554 S
C566 C572 1.379 . S
C566 N574 1.356 . S
C567 C566 1.363 1_556 S
C567 C573 1.363 1_455 S
C568 C569 1.363 . S
C568 C573 1.379 . S
C568 N575 1.356 . S
C569 C568 1.363 . S
C569 C572 1.363 1_656 S
N570 C572 1.356 . S
N570 H582 0.984 . S
N570 H583 0.985 . S
N571 C573 1.356 . S
N571 H576 0.984 . S
N571 H577 0.985 . S
C572 C566 1.379 . S
C572 C569 1.363 1_454 S
C572 N570 1.356 . S
C573 C567 1.363 1_655 S
C573 C568 1.379 . S
C573 N571 1.356 . S
N574 C566 1.356 . S
N574 H580 0.984 . S
N574 H581 0.984 . S
N575 C568 1.356 . S
N575 H578 0.984 . S
N575 H579 0.985 . S
H576 N571 0.984 . S
H577 N571 0.985 . S
H578 N575 0.984 . S
H579 N575 0.985 . S
H580 N574 0.984 . S
H581 N574 0.984 . S
H582 N570 0.984 . S
H583 N570 0.985 . S
C584 C585 1.363 . S
C584 C590 1.379 . S
C584 N592 1.356 . S
C585 C584 1.363 . S
C585 C591 1.363 . S
C586 C587 1.363 . S
C586 C591 1.379 . S
C586 N593 1.356 . S
C587 C586 1.363 . S
C587 C590 1.363 . S
N588 C590 1.356 . S
N588 H600 0.984 . S
N588 H601 0.985 . S
N589 C591 1.356 . S
N589 H594 0.984 . S
N589 H595 0.985 . S
C590 C584 1.379 . S
C590 C587 1.363 . S
C590 N588 1.356 . S
C591 C585 1.363 . S
C591 C586 1.379 . S
C591 N589 1.356 . S
N592 C584 1.356 . S
N592 H598 0.984 . S
N592 H599 0.984 . S
N593 C586 1.356 . S
N593 H596 0.984 . S
N593 H597 0.985 . S
H594 N589 0.984 . S
H595 N589 0.985 . S
H596 N593 0.984 . S
H597 N593 0.985 . S
H598 N592 0.984 . S
H599 N592 0.984 . S
H600 N588 0.984 . S
H601 N588 0.985 . S
C602 C603 1.363 . S
C602 C608 1.379 1_545 S
C602 N610 1.356 . S
C603 C602 1.363 . S
C603 C609 1.363 . S
C604 C605 1.363 . S
C604 C609 1.379 1_565 S
C604 N611 1.356 . S
C605 C604 1.363 . S
C605 C608 1.363 . S
N606 C608 1.356 . S
N606 H618 0.984 . S
N606 H619 0.985 . S
N607 C609 1.356 . S
N607 H612 0.984 . S
N607 H613 0.985 . S
C608 C602 1.379 1_565 S
C608 C605 1.363 . S
C608 N606 1.356 . S
C609 C603 1.363 . S
C609 C604 1.379 1_545 S
C609 N607 1.356 . S
N610 C602 1.356 . S
N610 H616 0.984 . S
N610 H617 0.984 . S
N611 C604 1.356 . S
N611 H614 0.984 . S
N611 H615 0.985 . S
H612 N607 0.984 . S
H613 N607 0.985 . S
H614 N611 0.984 . S
H615 N611 0.985 . S
H616 N610 0.984 . S
H617 N610 0.984 . S
H618 N606 0.984 . S
H619 N606 0.985 . S
C620 C621 1.363 1_554 S
C620 C626 1.379 . S
C620 N628 1.356 . S
C621 C620 1.363 1_556 S
C621 C627 1.363 . S
C622 C623 1.363 1_556 S
C622 C627 1.379 . S
C622 N629 1.356 . S
C623 C622 1.363 1_554 S
C623 C626 1.363 . S
N624 C626 1.356 . S
N624 H636 0.984 . S
N624 H637 0.985 . S
N625 C627 1.356 . S
N625 H630 0.984 . S
N625 H631 0.985 . S
C626 C620 1.379 . S
C626 C623 1.363 . S
C626 N624 1.356 . S
C627 C621 1.363 . S
C627 C622 1.379 . S
C627 N625 1.356 . S
N628 C620 1.356 . S
N628 H634 0.984 . S
N628 H635 0.984 . S
N629 C622 1.356 . S
N629 H632 0.984 . S
N629 H633 0.985 . S
H630 N625 0.984 . S
H631 N625 0.985 . S
H632 N629 0.984 . S
H633 N629 0.985 . S
H634 N628 0.984 . S
H635 N628 0.984 . S
H636 N624 0.984 . S
H637 N624 0.985 . S
C638 C639 1.363 . S
C638 C644 1.379 1_545 S
C638 N646 1.356 . S
C639 C638 1.363 . S
C639 C645 1.363 . S
C640 C641 1.363 . S
C640 C645 1.379 1_565 S
C640 N647 1.356 . S
C641 C640 1.363 . S
C641 C644 1.363 . S
N642 C644 1.356 . S
N642 H654 0.984 . S
N642 H655 0.985 . S
N643 C645 1.356 . S
N643 H648 0.984 . S
N643 H649 0.985 . S
C644 C638 1.379 1_565 S
C644 C641 1.363 . S
C644 N642 1.356 . S
C645 C639 1.363 . S
C645 C640 1.379 1_545 S
C645 N643 1.356 . S
N646 C638 1.356 . S
N646 H652 0.984 . S
N646 H653 0.984 . S
N647 C640 1.356 . S
N647 H650 0.984 . S
N647 H651 0.985 . S
H648 N643 0.984 . S
H649 N643 0.985 . S
H650 N647 0.984 . S
H651 N647 0.985 . S
H652 N646 0.984 . S
H653 N646 0.984 . S
H654 N642 0.984 . S
H655 N642 0.985 . S
C656 C657 1.363 1_566 S
C656 C662 1.379 . S
C656 N664 1.356 . S
C657 C656 1.363 1_544 S
C657 C663 1.363 . S
C658 C659 1.363 1_554 S
C658 C663 1.379 . S
C658 N665 1.356 . S
C659 C658 1.363 1_556 S
C659 C662 1.363 1_545 S
N660 C662 1.356 . S
N660 H672 0.984 . S
N660 H673 0.985 . S
N661 C663 1.356 . S
N661 H666 0.984 . S
N661 H667 0.985 . S
C662 C656 1.379 . S
C662 C659 1.363 1_565 S
C662 N660 1.356 . S
C663 C657 1.363 . S
C663 C658 1.379 . S
C663 N661 1.356 . S
N664 C656 1.356 . S
N664 H670 0.984 . S
N664 H671 0.984 . S
N665 C658 1.356 . S
N665 H668 0.984 . S
N665 H669 0.985 . S
H666 N661 0.984 . S
H667 N661 0.985 . S
H668 N665 0.984 . S
H669 N665 0.985 . S
H670 N664 0.984 . S
H671 N664 0.984 . S
H672 N660 0.984 . S
H673 N660 0.985 . S
C674 C675 1.363 . S
C674 C680 1.379 . S
C674 N682 1.356 . S
C675 C674 1.363 . S
C675 C681 1.363 . S
C676 C677 1.363 . S
C676 C681 1.379 . S
C676 N683 1.356 . S
C677 C676 1.363 . S
C677 C680 1.363 . S
N678 C680 1.356 . S
N678 H690 0.984 . S
N678 H691 0.985 . S
N679 C681 1.356 . S
N679 H684 0.984 . S
N679 H685 0.985 . S
C680 C674 1.379 . S
C680 C677 1.363 . S
C680 N678 1.356 . S
C681 C675 1.363 . S
C681 C676 1.379 . S
C681 N679 1.356 . S
N682 C674 1.356 . S
N682 H688 0.984 . S
N682 H689 0.984 . S
N683 C676 1.356 . S
N683 H686 0.984 . S
N683 H687 0.985 . S
H684 N679 0.984 . S
H685 N679 0.985 . S
H686 N683 0.984 . S
H687 N683 0.985 . S
H688 N682 0.984 . S
H689 N682 0.984 . S
H690 N678 0.984 . S
H691 N678 0.985 . S
C692 C693 1.363 . S
C692 C698 1.379 . S
C692 N700 1.356 . S
C693 C692 1.363 . S
C693 C699 1.363 . S
C694 C695 1.363 . S
C694 C699 1.379 . S
C694 N701 1.356 . S
C695 C694 1.363 . S
C695 C698 1.363 . S
N696 C698 1.356 . S
N696 H708 0.984 . S
N696 H709 0.985 . S
N697 C699 1.356 . S
N697 H702 0.984 . S
N697 H703 0.985 . S
C698 C692 1.379 . S
C698 C695 1.363 . S
C698 N696 1.356 . S
C699 C693 1.363 . S
C699 C694 1.379 . S
C699 N697 1.356 . S
N700 C692 1.356 . S
N700 H706 0.984 . S
N700 H707 0.984 . S
N701 C694 1.356 . S
N701 H704 0.984 . S
N701 H705 0.985 . S
H702 N697 0.984 . S
H703 N697 0.985 . S
H704 N701 0.984 . S
H705 N701 0.985 . S
H706 N700 0.984 . S
H707 N700 0.984 . S
H708 N696 0.984 . S
H709 N696 0.985 . S
C710 C711 1.363 . S
C710 C716 1.379 1_556 S
C710 N718 1.356 . S
C711 C710 1.363 . S
C711 C717 1.363 . S
C712 C713 1.363 . S
C712 C717 1.379 1_554 S
C712 N719 1.356 . S
C713 C712 1.363 . S
C713 C716 1.363 . S
N714 C716 1.356 . S
N714 H726 0.984 . S
N714 H727 0.985 . S
N715 C717 1.356 . S
N715 H720 0.984 . S
N715 H721 0.985 . S
C716 C710 1.379 1_554 S
C716 C713 1.363 . S
C716 N714 1.356 . S
C717 C711 1.363 . S
C717 C712 1.379 1_556 S
C717 N715 1.356 . S
N718 C710 1.356 . S
N718 H724 0.984 . S
N718 H725 0.984 . S
N719 C712 1.356 . S
N719 H722 0.984 . S
N719 H723 0.985 . S
H720 N715 0.984 . S
H721 N715 0.985 . S
H722 N719 0.984 . S
H723 N719 0.985 . S
H724 N718 0.984 . S
H725 N718 0.984 . S
H726 N714 0.984 . S
H727 N714 0.985 . S
C728 C729 1.363 . S
C728 C734 1.379 . S
C728 N736 1.356 . S
C729 C728 1.363 . S
C729 C735 1.363 . S
C730 C731 1.363 . S
C730 C735 1.379 . S
C730 N737 1.356 . S
C731 C730 1.363 . S
C731 C734 1.363 . S
N732 C734 1.356 . S
N732 H744 0.984 . S
N732 H745 0.985 . S
N733 C735 1.356 . S
N733 H738 0.984 . S
N733 H739 0.985 . S
C734 C728 1.379 . S
C734 C731 1.363 . S
C734 N732 1.356 . S
C735 C729 1.363 . S
C735 C730 1.379 . S
C735 N733 1.356 . S
N736 C728 1.356 . S
N736 H742 0.984 . S
N736 H743 0.984 . S
N737 C730 1.356 . S
N737 H740 0.984 . S
N737 H741 0.985 . S
H738 N733 0.984 . S
H739 N733 0.985 . S
H740 N737 0.984 . S
H741 N737 0.985 . S
H742 N736 0.984 . S
H743 N736 0.984 . S
H744 N732 0.984 . S
H745 N732 0.985 . S
C746 C747 1.363 . S
C746 C752 1.379 . S
C746 N754 1.356 . S
C747 C746 1.363 . S
C747 C753 1.363 . S
C748 C749 1.363 . S
C748 C753 1.379 . S
C748 N755 1.356 . S
C749 C748 1.363 . S
C749 C752 1.363 . S
N750 C752 1.356 . S
N750 H762 0.984 . S
N750 H763 0.985 . S
N751 C753 1.356 . S
N751 H756 0.984 . S
N751 H757 0.985 . S
C752 C746 1.379 . S
C752 C749 1.363 . S
C752 N750 1.356 . S
C753 C747 1.363 . S
C753 C748 1.379 . S
C753 N751 1.356 . S
N754 C746 1.356 . S
N754 H760 0.984 . S
N754 H761 0.984 . S
N755 C748 1.356 . S
N755 H758 0.984 . S
N755 H759 0.985 . S
H756 N751 0.984 . S
H757 N751 0.985 . S
H758 N755 0.984 . S
H759 N755 0.985 . S
H760 N754 0.984 . S
H761 N754 0.984 . S
H762 N750 0.984 . S
H763 N750 0.985 . S
C764 C765 1.363 . S
C764 C770 1.379 . S
C764 N772 1.356 1_455 S
C765 C764 1.363 . S
C765 C771 1.363 . S
C766 C767 1.363 . S
C766 C771 1.379 . S
C766 N773 1.356 . S
C767 C766 1.363 . S
C767 C770 1.363 . S
N768 C770 1.356 1_655 S
N768 H780 0.984 . S
N768 H781 0.985 . S
N769 C771 1.356 . S
N769 H774 0.984 . S
N769 H775 0.985 . S
C770 C764 1.379 . S
C770 C767 1.363 . S
C770 N768 1.356 1_455 S
C771 C765 1.363 . S
C771 C766 1.379 . S
C771 N769 1.356 . S
N772 C764 1.356 1_655 S
N772 H778 0.984 . S
N772 H779 0.984 . S
N773 C766 1.356 . S
N773 H776 0.984 . S
N773 H777 0.985 . S
H774 N769 0.984 . S
H775 N769 0.985 . S
H776 N773 0.984 . S
H777 N773 0.985 . S
H778 N772 0.984 . S
H779 N772 0.984 . S
H780 N768 0.984 . S
H781 N768 0.985 . S
C782 C783 1.363 1_545 S
C782 C788 1.379 . S
C782 N790 1.356 . S
C783 C782 1.363 1_565 S
C783 C789 1.363 . S
C784 C785 1.363 . S
C784 C789 1.379 . S
C784 N791 1.356 . S
C785 C784 1.363 . S
C785 C788 1.363 1_565 S
N786 C788 1.356 . S
N786 H798 0.984 . S
N786 H799 0.985 . S
N787 C789 1.356 . S
N787 H792 0.984 . S
N787 H793 0.985 . S
C788 C782 1.379 . S
C788 C785 1.363 1_545 S
C788 N786 1.356 . S
C789 C783 1.363 . S
C789 C784 1.379 . S
C789 N787 1.356 . S
N790 C782 1.356 . S
N790 H796 0.984 . S
N790 H797 0.984 . S
N791 C784 1.356 . S
N791 H794 0.984 . S
N791 H795 0.985 . S
H792 N787 0.984 . S
H793 N787 0.985 . S
H794 N791 0.984 . S
H795 N791 0.985 . S
H796 N790 0.984 . S
H797 N790 0.984 . S
H798 N786 0.984 . S
H799 N786 0.985 . S
C225 C11 1.673 . S
C227 C109 1.673 . S
C243 C25 1.673 . S
C245 C67 1.673 . S
C261 C81 1.673 . S
C263 C39 1.673 . S
C279 C53 1.673 . S
C281 C95 1.673 . S
C297 C123 1.673 . S
C299 C179 1.673 . S
C315 C137 1.673 . S
C317 C207 1.673 . S
C333 C165 1.673 . S
C335 C151 1.673 . S
C351 C221 1.673 . S
C353 C193 1.673 . S
C369 C13 1.168 . S
C371 C97 1.168 . S
C387 C106 1.347 1_545 S
C389 C22 1.347 1_565 S
C405 C41 1.168 . S
C407 C69 1.168 . S
C423 C78 1.347 1_565 S
C425 C50 1.347 1_545 S
C441 C7 1.210 . S
C443 C203 1.210 . S
C459 C167 1.168 1_655 S
C461 C27 1.168 1_455 S
C477 C189 1.210 . S
C479 C35 1.210 . S
C495 C181 1.168 . S
C497 C55 1.168 . S
C513 C147 1.210 . S
C515 C63 1.210 . S
C531 C83 1.168 . S
C533 C223 1.168 . S
C549 C91 1.210 . S
C551 C119 1.210 . S
C567 C111 1.168 1_455 S
C569 C139 1.168 1_655 S
C585 C8 1.347 . S
C587 C64 1.347 . S
C603 C120 1.347 . S
C605 C190 1.347 . S
C621 C175 1.209 1_556 S
C623 C133 1.209 1_554 S
C639 C204 1.347 . S
C641 C148 1.347 . S
C657 C105 1.210 1_554 S
C659 C49 1.210 1_556 S
C675 C36 1.347 . S
C677 C92 1.347 . S
C693 C161 1.209 . S
C695 C217 1.209 . S
C711 C195 1.168 . S
C713 C153 1.168 . S
C729 C218 1.347 . S
C731 C176 1.347 . S
C747 C209 1.168 . S
C749 C125 1.168 . S
C765 C162 1.347 . S
C767 C134 1.347 . S
C783 C21 1.210 . S
C785 C77 1.210 . S
