# Generated by pormake.
# Topology sxg, (6)-cn, num edge types: 1
# Building blocks:
#     Node 0, Type 0, BuildingBlock: UKALOJ_clean_sbu_0, # of connection points: 6
#     Node 1, Type 0, BuildingBlock: UKALOJ_clean_sbu_0, # of connection points: 6
#     Node 2, Type 0, BuildingBlock: UKALOJ_clean_sbu_0, # of connection points: 6
#     Node 3, Type 0, BuildingBlock: UKALOJ_clean_sbu_0, # of connection points: 6
#     Node 4, Type 0, BuildingBlock: UKALOJ_clean_sbu_0, # of connection points: 6
#     Node 5, Type 0, BuildingBlock: UKALOJ_clean_sbu_0, # of connection points: 6
#     Node 6, Type 0, BuildingBlock: UKALOJ_clean_sbu_0, # of connection points: 6
#     Node 7, Type 0, BuildingBlock: UKALOJ_clean_sbu_0, # of connection points: 6
#     Node 8, Type 0, BuildingBlock: UKALOJ_clean_sbu_0, # of connection points: 6
#     Node 9, Type 0, BuildingBlock: UKALOJ_clean_sbu_0, # of connection points: 6
#     Node 10, Type 0, BuildingBlock: UKALOJ_clean_sbu_0, # of connection points: 6
#     Node 11, Type 0, BuildingBlock: UKALOJ_clean_sbu_0, # of connection points: 6
#     Node 12, Type 0, BuildingBlock: UKALOJ_clean_sbu_0, # of connection points: 6
#     Node 13, Type 0, BuildingBlock: UKALOJ_clean_sbu_0, # of connection points: 6
#     Node 14, Type 0, BuildingBlock: UKALOJ_clean_sbu_0, # of connection points: 6
#     Node 15, Type 0, BuildingBlock: UKALOJ_clean_sbu_0, # of connection points: 6
#     Node 16, Type 0, BuildingBlock: UKALOJ_clean_sbu_0, # of connection points: 6
#     Node 17, Type 0, BuildingBlock: UKALOJ_clean_sbu_0, # of connection points: 6
#     Node 18, Type 0, BuildingBlock: UKALOJ_clean_sbu_0, # of connection points: 6
#     Node 19, Type 0, BuildingBlock: UKALOJ_clean_sbu_0, # of connection points: 6
#     Node 20, Type 0, BuildingBlock: UKALOJ_clean_sbu_0, # of connection points: 6
#     Node 21, Type 0, BuildingBlock: UKALOJ_clean_sbu_0, # of connection points: 6
#     Node 22, Type 0, BuildingBlock: UKALOJ_clean_sbu_0, # of connection points: 6
#     Node 23, Type 0, BuildingBlock: UKALOJ_clean_sbu_0, # of connection points: 6
#     Edge 24, Type (0, 0), BuildingBlock: ZUJKAS_clean_linker_0, # of connection points: 2
#     Edge 25, Type (0, 0), BuildingBlock: ZUJKAS_clean_linker_0, # of connection points: 2
#     Edge 26, Type (0, 0), BuildingBlock: ZUJKAS_clean_linker_0, # of connection points: 2
#     Edge 27, Type (0, 0), BuildingBlock: ZUJKAS_clean_linker_0, # of connection points: 2
#     Edge 28, Type (0, 0), BuildingBlock: ZUJKAS_clean_linker_0, # of connection points: 2
#     Edge 29, Type (0, 0), BuildingBlock: ZUJKAS_clean_linker_0, # of connection points: 2
#     Edge 30, Type (0, 0), BuildingBlock: ZUJKAS_clean_linker_0, # of connection points: 2
#     Edge 31, Type (0, 0), BuildingBlock: ZUJKAS_clean_linker_0, # of connection points: 2
#     Edge 32, Type (0, 0), BuildingBlock: ZUJKAS_clean_linker_0, # of connection points: 2
#     Edge 33, Type (0, 0), BuildingBlock: ZUJKAS_clean_linker_0, # of connection points: 2
#     Edge 34, Type (0, 0), BuildingBlock: ZUJKAS_clean_linker_0, # of connection points: 2
#     Edge 35, Type (0, 0), BuildingBlock: ZUJKAS_clean_linker_0, # of connection points: 2
#     Edge 36, Type (0, 0), BuildingBlock: ZUJKAS_clean_linker_0, # of connection points: 2
#     Edge 37, Type (0, 0), BuildingBlock: ZUJKAS_clean_linker_0, # of connection points: 2
#     Edge 38, Type (0, 0), BuildingBlock: ZUJKAS_clean_linker_0, # of connection points: 2
#     Edge 39, Type (0, 0), BuildingBlock: ZUJKAS_clean_linker_0, # of connection points: 2
#     Edge 40, Type (0, 0), BuildingBlock: ZUJKAS_clean_linker_0, # of connection points: 2
#     Edge 41, Type (0, 0), BuildingBlock: ZUJKAS_clean_linker_0, # of connection points: 2
#     Edge 42, Type (0, 0), BuildingBlock: ZUJKAS_clean_linker_0, # of connection points: 2
#     Edge 43, Type (0, 0), BuildingBlock: ZUJKAS_clean_linker_0, # of connection points: 2
#     Edge 44, Type (0, 0), BuildingBlock: ZUJKAS_clean_linker_0, # of connection points: 2
#     Edge 45, Type (0, 0), BuildingBlock: ZUJKAS_clean_linker_0, # of connection points: 2
#     Edge 46, Type (0, 0), BuildingBlock: ZUJKAS_clean_linker_0, # of connection points: 2
#     Edge 47, Type (0, 0), BuildingBlock: ZUJKAS_clean_linker_0, # of connection points: 2
#     Edge 48, Type (0, 0), BuildingBlock: ZUJKAS_clean_linker_0, # of connection points: 2
#     Edge 49, Type (0, 0), BuildingBlock: ZUJKAS_clean_linker_0, # of connection points: 2
#     Edge 50, Type (0, 0), BuildingBlock: ZUJKAS_clean_linker_0, # of connection points: 2
#     Edge 51, Type (0, 0), BuildingBlock: ZUJKAS_clean_linker_0, # of connection points: 2
#     Edge 52, Type (0, 0), BuildingBlock: ZUJKAS_clean_linker_0, # of connection points: 2
#     Edge 53, Type (0, 0), BuildingBlock: ZUJKAS_clean_linker_0, # of connection points: 2
#     Edge 54, Type (0, 0), BuildingBlock: ZUJKAS_clean_linker_0, # of connection points: 2
#     Edge 55, Type (0, 0), BuildingBlock: ZUJKAS_clean_linker_0, # of connection points: 2
#     Edge 56, Type (0, 0), BuildingBlock: ZUJKAS_clean_linker_0, # of connection points: 2
#     Edge 57, Type (0, 0), BuildingBlock: ZUJKAS_clean_linker_0, # of connection points: 2
#     Edge 58, Type (0, 0), BuildingBlock: ZUJKAS_clean_linker_0, # of connection points: 2
#     Edge 59, Type (0, 0), BuildingBlock: ZUJKAS_clean_linker_0, # of connection points: 2
#     Edge 60, Type (0, 0), BuildingBlock: ZUJKAS_clean_linker_0, # of connection points: 2
#     Edge 61, Type (0, 0), BuildingBlock: ZUJKAS_clean_linker_0, # of connection points: 2
#     Edge 62, Type (0, 0), BuildingBlock: ZUJKAS_clean_linker_0, # of connection points: 2
#     Edge 63, Type (0, 0), BuildingBlock: ZUJKAS_clean_linker_0, # of connection points: 2
#     Edge 64, Type (0, 0), BuildingBlock: ZUJKAS_clean_linker_0, # of connection points: 2
#     Edge 65, Type (0, 0), BuildingBlock: ZUJKAS_clean_linker_0, # of connection points: 2
#     Edge 66, Type (0, 0), BuildingBlock: ZUJKAS_clean_linker_0, # of connection points: 2
#     Edge 67, Type (0, 0), BuildingBlock: ZUJKAS_clean_linker_0, # of connection points: 2
#     Edge 68, Type (0, 0), BuildingBlock: ZUJKAS_clean_linker_0, # of connection points: 2
#     Edge 69, Type (0, 0), BuildingBlock: ZUJKAS_clean_linker_0, # of connection points: 2
#     Edge 70, Type (0, 0), BuildingBlock: ZUJKAS_clean_linker_0, # of connection points: 2
#     Edge 71, Type (0, 0), BuildingBlock: ZUJKAS_clean_linker_0, # of connection points: 2
#     Edge 72, Type (0, 0), BuildingBlock: ZUJKAS_clean_linker_0, # of connection points: 2
#     Edge 73, Type (0, 0), BuildingBlock: ZUJKAS_clean_linker_0, # of connection points: 2
#     Edge 74, Type (0, 0), BuildingBlock: ZUJKAS_clean_linker_0, # of connection points: 2
#     Edge 75, Type (0, 0), BuildingBlock: ZUJKAS_clean_linker_0, # of connection points: 2
#     Edge 76, Type (0, 0), BuildingBlock: ZUJKAS_clean_linker_0, # of connection points: 2
#     Edge 77, Type (0, 0), BuildingBlock: ZUJKAS_clean_linker_0, # of connection points: 2
#     Edge 78, Type (0, 0), BuildingBlock: ZUJKAS_clean_linker_0, # of connection points: 2
#     Edge 79, Type (0, 0), BuildingBlock: ZUJKAS_clean_linker_0, # of connection points: 2
#     Edge 80, Type (0, 0), BuildingBlock: ZUJKAS_clean_linker_0, # of connection points: 2
#     Edge 81, Type (0, 0), BuildingBlock: ZUJKAS_clean_linker_0, # of connection points: 2
#     Edge 82, Type (0, 0), BuildingBlock: ZUJKAS_clean_linker_0, # of connection points: 2
#     Edge 83, Type (0, 0), BuildingBlock: ZUJKAS_clean_linker_0, # of connection points: 2
#     Edge 84, Type (0, 0), BuildingBlock: ZUJKAS_clean_linker_0, # of connection points: 2
#     Edge 85, Type (0, 0), BuildingBlock: ZUJKAS_clean_linker_0, # of connection points: 2
#     Edge 86, Type (0, 0), BuildingBlock: ZUJKAS_clean_linker_0, # of connection points: 2
#     Edge 87, Type (0, 0), BuildingBlock: ZUJKAS_clean_linker_0, # of connection points: 2
#     Edge 88, Type (0, 0), BuildingBlock: ZUJKAS_clean_linker_0, # of connection points: 2
#     Edge 89, Type (0, 0), BuildingBlock: ZUJKAS_clean_linker_0, # of connection points: 2
#     Edge 90, Type (0, 0), BuildingBlock: ZUJKAS_clean_linker_0, # of connection points: 2
#     Edge 91, Type (0, 0), BuildingBlock: ZUJKAS_clean_linker_0, # of connection points: 2
#     Edge 92, Type (0, 0), BuildingBlock: ZUJKAS_clean_linker_0, # of connection points: 2
#     Edge 93, Type (0, 0), BuildingBlock: ZUJKAS_clean_linker_0, # of connection points: 2
#     Edge 94, Type (0, 0), BuildingBlock: ZUJKAS_clean_linker_0, # of connection points: 2
#     Edge 95, Type (0, 0), BuildingBlock: ZUJKAS_clean_linker_0, # of connection points: 2
# Relax obj value: 0.279
# Max RMSD: 0.277
# Mean RMSD: 0.277
data_MOF--net-sxg--node1-UKALOJ_clean_sbu_0--edge1-ZUJKAS_clean_linker_0
_symmetry_space_group_name_H-M    P1
_symmetry_Int_Tables_number       1
_symmetry_cell_setting            triclinic
loop_
_symmetry_equiv_pos_as_xyz
'x, y, z'
_cell_length_a     60.561585
_cell_length_b     60.584513
_cell_length_c     60.532677
_cell_angle_alpha  89.97066
_cell_angle_beta   89.997729
_cell_angle_gamma 89.998959
loop_
_atom_site_label
_atom_site_type_symbol
_atom_site_fract_x
_atom_site_fract_y
_atom_site_fract_z
_atom_type_partial_charge
Zn0 Zn 0.02005 0.27268 0.20776 0.0
O1 O 0.9952 0.26685 0.23107 0.0
C2 C 0.00951 0.32092 0.20878 0.0
Zn3 Zn 0.04068 0.29132 0.23176 0.0
C4 C 0.9974 0.27513 0.25019 0.0
O5 O 0.01494 0.28564 0.25492 0.0
C6 C 0.06274 0.28873 0.18846 0.0
O7 O 0.05606 0.26213 0.24127 0.0
O8 O 0.03644 0.24286 0.2176 0.0
N9 N 0.0572 0.30855 0.25557 0.0
C10 C 0.07851 0.31433 0.25821 0.0
C11 C 0.05984 0.33216 0.28206 0.0
N12 N 0.04569 0.31939 0.27067 0.0
N13 N 0.0806 0.3292 0.27469 0.0
C14 C 0.98322 0.26044 0.1745 0.0
C15 C -0.00071 0.23693 0.15393 0.0
N16 N 0.00296 0.25612 0.18376 0.0
N17 N 0.01282 0.24125 0.1711 0.0
N18 N 0.98061 0.24883 0.1557 0.0
H19 H 0.96891 0.27912 0.20144 0.0
H20 H 0.94951 0.26916 0.18101 0.0
H21 H 0.9672 0.2918 0.17453 0.0
C22 C 0.96631 0.27601 0.18362 0.0
C23 C 0.09689 0.30698 0.24337 0.0
H24 H 0.09374 0.29002 0.23727 0.0
H25 H 0.11295 0.30716 0.25211 0.0
H26 H 0.09801 0.31849 0.22916 0.0
O27 O 0.0658 0.2967 0.20764 0.0
O28 O 0.04493 0.2785 0.18438 0.0
C29 C 0.05124 0.24369 0.23256 0.0
O30 O 0.00415 0.3031 0.19905 0.0
O31 O 0.02515 0.32061 0.22268 0.0
Zn32 Zn 0.47768 0.72304 0.70817 0.0
O33 O 0.5018 0.72715 0.7327 0.0
C34 C 0.48786 0.67461 0.70626 0.0
Zn35 Zn 0.45687 0.70285 0.73067 0.0
C36 C 0.49933 0.71755 0.75119 0.0
O37 O 0.48189 0.70644 0.75479 0.0
C38 C 0.43539 0.70833 0.68721 0.0
O39 O 0.44207 0.73204 0.74166 0.0
O40 O 0.46168 0.75249 0.71898 0.0
N41 N 0.43898 0.68456 0.75243 0.0
C42 C 0.41709 0.68149 0.75486 0.0
C43 C 0.43332 0.6588 0.7763 0.0
N44 N 0.44903 0.67061 0.76593 0.0
N45 N 0.41309 0.6652 0.76959 0.0
C46 C 0.51648 0.73639 0.67779 0.0
C47 C 0.50017 0.75645 0.65395 0.0
N48 N 0.49583 0.74005 0.68528 0.0
N49 N 0.48584 0.7528 0.67058 0.0
N50 N 0.51947 0.74612 0.65793 0.0
H51 H 0.53374 0.72923 0.70802 0.0
H52 H 0.55075 0.72838 0.68377 0.0
H53 H 0.5316 0.70641 0.68934 0.0
C54 C 0.53414 0.72443 0.69042 0.0
C55 C 0.39976 0.69514 0.74363 0.0
H56 H 0.40578 0.71212 0.74059 0.0
H57 H 0.38451 0.69583 0.75378 0.0
H58 H 0.39566 0.68765 0.72747 0.0
O59 O 0.43219 0.69935 0.70592 0.0
O60 O 0.45319 0.71883 0.68385 0.0
C61 C 0.44695 0.75091 0.73392 0.0
O62 O 0.49334 0.69315 0.69812 0.0
O63 O 0.4721 0.67378 0.72001 0.0
Zn64 Zn 0.5384 0.20882 0.76727 0.0
O65 O 0.5521 0.23873 0.75663 0.0
C66 C 0.55827 0.21574 0.81151 0.0
Zn67 Zn 0.51584 0.22757 0.78939 0.0
C68 C 0.54565 0.25723 0.76412 0.0
O69 O 0.53029 0.25782 0.77849 0.0
C70 C 0.50858 0.17874 0.79129 0.0
O71 O 0.49195 0.22981 0.76422 0.0
O72 O 0.51398 0.21113 0.74236 0.0
N73 N 0.49586 0.24399 0.81118 0.0
C74 C 0.47528 0.23948 0.81846 0.0
C75 C 0.48923 0.263 0.84054 0.0
N76 N 0.50433 0.25889 0.82473 0.0
N77 N 0.47079 0.25106 0.83697 0.0
C78 C 0.57979 0.18827 0.74491 0.0
C79 C 0.56497 0.16616 0.72195 0.0
N80 N 0.5578 0.19135 0.74604 0.0
N81 N 0.54864 0.17777 0.73156 0.0
N82 N 0.58472 0.17235 0.73009 0.0
H83 H 0.59014 0.21848 0.76056 0.0
H84 H 0.61223 0.20245 0.74829 0.0
H85 H 0.59957 0.19358 0.77363 0.0
C86 C 0.59641 0.20157 0.75749 0.0
C87 C 0.46026 0.22232 0.80879 0.0
H88 H 0.46685 0.21522 0.79335 0.0
H89 H 0.44402 0.22985 0.80499 0.0
H90 H 0.45742 0.20907 0.82111 0.0
O91 O 0.50212 0.19684 0.79968 0.0
O92 O 0.52433 0.17896 0.7775 0.0
C93 C 0.49563 0.22075 0.74566 0.0
O94 O 0.56237 0.2067 0.793 0.0
O95 O 0.53987 0.22535 0.81433 0.0
Zn96 Zn 0.95573 0.78978 0.26586 0.0
O97 O 0.9413 0.75981 0.25699 0.0
C98 C 0.93574 0.78557 0.31027 0.0
Zn99 Zn 0.97791 0.77144 0.28875 0.0
C100 C 0.94714 0.74143 0.26527 0.0
O101 O 0.96255 0.74094 0.27962 0.0
C102 C 0.98631 0.82031 0.2879 0.0
O103 O 0.00165 0.76691 0.26397 0.0
O104 O 0.98038 0.78544 0.24129 0.0
N105 N 0.9974 0.75612 0.3118 0.0
C106 C 0.01751 0.76185 0.31943 0.0
C107 C 0.00392 0.73894 0.34237 0.0
N108 N 0.9891 0.74164 0.32595 0.0
N109 N 0.02184 0.75158 0.33871 0.0
C110 C 0.9155 0.81124 0.24151 0.0
C111 C 0.93215 0.82958 0.21655 0.0
N112 N 0.93714 0.8063 0.24304 0.0
N113 N 0.94738 0.81746 0.22726 0.0
N114 N 0.91195 0.82586 0.22506 0.0
H115 H 0.9023 0.7865 0.26332 0.0
H116 H 0.88173 0.80296 0.24951 0.0
H117 H 0.89753 0.81484 0.27156 0.0
C118 C 0.89824 0.80332 0.25735 0.0
C119 C 0.03323 0.77724 0.30803 0.0
H120 H 0.03009 0.77804 0.29008 0.0
H121 H 0.0505 0.77183 0.31094 0.0
H122 H 0.03152 0.79401 0.31495 0.0
O123 O 0.99259 0.80246 0.29699 0.0
O124 O 0.97036 0.8198 0.27437 0.0
C125 C -0.00163 0.77533 0.24506 0.0
O126 O 0.93169 0.79383 0.29138 0.0
O127 O 0.95401 0.77582 0.31344 0.0
Zn128 Zn 0.23079 0.03856 0.29231 0.0
O129 O 0.24016 0.05364 0.26264 0.0
C130 C 0.18704 0.05967 0.28874 0.0
Zn131 Zn 0.20727 0.01702 0.27412 0.0
C132 C 0.23174 0.04773 0.24435 0.0
O133 O 0.21725 0.03248 0.24408 0.0
C134 C 0.20806 0.00746 0.32245 0.0
O135 O 0.2312 0.99244 0.26956 0.0
O136 O 0.25465 0.0135 0.2874 0.0
N137 N 0.18398 -0.00101 0.25762 0.0
C138 C 0.175 0.97922 0.26237 0.0
C139 C 0.15468 0.99418 0.23789 0.0
N140 N 0.17149 0.00815 0.24216 0.0
N141 N 0.15652 0.97592 0.25043 0.0
C142 C 0.25627 0.07774 0.31412 0.0
C143 C 0.27956 0.06021 0.33378 0.0
N144 N 0.25389 0.05612 0.30946 0.0
N145 N 0.26865 0.04532 0.32144 0.0
N146 N 0.27222 0.08073 0.32941 0.0
H147 H 0.23511 0.09104 0.28878 0.0
H148 H 0.25072 0.11138 0.30379 0.0
H149 H 0.22774 0.09814 0.31692 0.0
C150 C 0.24164 0.09559 0.30527 0.0
C151 C 0.18414 0.96296 0.27862 0.0
H152 H 0.20192 0.96579 0.28171 0.0
H153 H 0.18166 0.9459 0.27241 0.0
H154 H 0.17502 0.9644 0.29436 0.0
O155 O 0.19828 0.00189 0.30472 0.0
O156 O 0.22189 0.02315 0.32191 0.0
C157 C 0.2503 0.99544 0.27767 0.0
O158 O 0.20601 0.06303 0.29708 0.0
O159 O 0.18335 0.04168 0.27869 0.0
Zn160 Zn 0.29097 0.97816 0.77281 0.0
O161 O 0.26769 0.00334 0.7686 0.0
C162 C 0.28906 0.9861 0.82151 0.0
Zn163 Zn 0.2662 0.95695 0.78969 0.0
C164 C 0.24824 0.00085 0.77604 0.0
O165 O 0.24282 0.98272 0.78514 0.0
C166 C 0.30973 0.9348 0.78651 0.0
O167 O 0.25716 0.94334 0.75948 0.0
O168 O 0.28144 0.96374 0.74186 0.0
N169 N 0.2429 0.93882 0.80586 0.0
C170 C 0.24086 0.91692 0.80906 0.0
C171 C 0.2177 0.93273 0.83025 0.0
N172 N 0.22828 0.94861 0.81883 0.0
N173 N 0.22535 0.91266 0.82451 0.0
C174 C 0.32423 0.01573 0.763 0.0
C175 C 0.34488 0.00119 0.73855 0.0
N176 N 0.31506 0.99625 0.75749 0.0
N177 N 0.32778 0.98735 0.74206 0.0
N178 N 0.34302 0.01909 0.75158 0.0
H179 H 0.29716 0.02867 0.78248 0.0
H180 H 0.3172 0.04885 0.77334 0.0
H181 H 0.32405 0.0302 0.79512 0.0
C182 C 0.31489 0.03171 0.7794 0.0
C183 C 0.25331 0.89969 0.79639 0.0
H184 H 0.25723 0.90563 0.77952 0.0
H185 H 0.24354 0.88423 0.79533 0.0
H186 H 0.269 0.89595 0.80496 0.0
O187 O 0.2904 0.93174 0.79408 0.0
O188 O 0.31426 0.95295 0.77711 0.0
C189 C 0.26631 0.94912 0.74152 0.0
O190 O 0.29947 0.99212 0.80427 0.0
O191 O 0.27481 0.97088 0.81995 0.0
Zn192 Zn 0.70882 0.4789 0.72642 0.0
O193 O 0.73347 0.50281 0.73129 0.0
C194 C 0.70919 0.48841 0.67794 0.0
Zn195 Zn 0.73217 0.45743 0.70791 0.0
C196 C 0.75244 0.4999 0.72285 0.0
O197 O 0.75645 0.48218 0.71236 0.0
C198 C 0.68795 0.43672 0.71187 0.0
O199 O 0.74176 0.44254 0.73757 0.0
O200 O 0.71844 0.46299 0.75645 0.0
N201 N 0.75453 0.43932 0.69038 0.0
C202 C 0.75568 0.41766 0.68561 0.0
C203 C 0.77953 0.43397 0.66558 0.0
N204 N 0.76958 0.4494 0.67811 0.0
N205 N 0.77103 0.41388 0.66988 0.0
C206 C 0.67766 0.51764 0.73749 0.0
C207 C 0.65558 0.50309 0.76064 0.0
N208 N 0.68586 0.49761 0.74264 0.0
N209 N 0.67226 0.48871 0.7573 0.0
N210 N 0.65857 0.52134 0.7483 0.0
H211 H 0.7061 0.53071 0.72015 0.0
H212 H 0.68557 0.55089 0.72806 0.0
H213 H 0.68035 0.53261 0.70555 0.0
C214 C 0.68821 0.53381 0.72197 0.0
C215 C 0.74236 0.40015 0.69688 0.0
H216 H 0.73859 0.40501 0.71413 0.0
H217 H 0.75138 0.3842 0.69684 0.0
H218 H 0.72664 0.39788 0.68785 0.0
O219 O 0.70703 0.43307 0.7039 0.0
O220 O 0.68425 0.45486 0.72163 0.0
C221 C 0.73318 0.44797 0.75594 0.0
O222 O 0.70006 0.49426 0.69591 0.0
O223 O 0.72293 0.47264 0.67819 0.0
Zn224 Zn 0.76567 0.53661 0.20842 0.0
O225 O 0.75509 0.55202 0.23743 0.0
C226 C 0.8098 0.55712 0.21375 0.0
Zn227 Zn 0.78805 0.51536 0.22829 0.0
C228 C 0.76282 0.54683 0.25623 0.0
O229 O 0.77737 0.5317 0.25762 0.0
C230 C 0.78941 0.50503 0.17995 0.0
O231 O 0.76327 0.4917 0.23253 0.0
O232 O 0.74099 0.51198 0.21239 0.0
N233 N 0.81025 0.49695 0.24584 0.0
C234 C 0.81871 0.47686 0.24151 0.0
C235 C 0.83956 0.49189 0.26546 0.0
N236 N 0.82306 0.50615 0.26099 0.0
N237 N 0.83725 0.4734 0.25334 0.0
C238 C 0.74294 0.57656 0.18574 0.0
C239 C 0.72033 0.56052 0.1641 0.0
N240 N 0.74421 0.55476 0.18988 0.0
N241 N 0.72995 0.54484 0.1766 0.0
N242 N 0.72826 0.58059 0.16944 0.0
H243 H 0.75851 0.58851 0.21544 0.0
H244 H 0.74589 0.60964 0.19843 0.0
H245 H 0.77137 0.59697 0.19008 0.0
C246 C 0.75532 0.59392 0.19826 0.0
C247 C 0.80889 0.46036 0.22589 0.0
H248 H 0.79105 0.46327 0.22339 0.0
H249 H 0.81148 0.44339 0.23232 0.0
H250 H 0.8173 0.46144 0.20974 0.0
O251 O 0.7979 0.49943 0.19833 0.0
O252 O 0.77582 0.52092 0.17945 0.0
C253 C 0.74464 0.49442 0.22334 0.0
O254 O 0.79117 0.56071 0.20473 0.0
O255 O 0.81279 0.53922 0.22419 0.0
Zn256 Zn 0.26615 0.20181 0.0144 0.0
O257 O 0.26215 0.22601 0.99015 0.0
C258 C 0.31371 0.19794 0.00184 0.0
Zn259 Zn 0.28786 0.22357 0.03446 0.0
C260 C 0.27233 0.24422 0.99214 0.0
O261 O 0.28393 0.24776 0.00931 0.0
C262 C 0.28149 0.18031 0.05617 0.0
O263 O 0.2602 0.23601 0.05101 0.0
O264 O 0.2382 0.21449 0.03185 0.0
N265 N 0.30825 0.24448 0.05117 0.0
C266 C 0.31313 0.24624 0.0728 0.0
C267 C 0.33529 0.26727 0.05537 0.0
N268 N 0.32189 0.25776 0.04038 0.0
N269 N 0.33019 0.26024 0.07585 0.0
C270 C 0.24808 0.17115 0.97746 0.0
C271 C 0.22458 0.15214 0.99537 0.0
N272 N 0.24626 0.18025 0.99769 0.0
N273 N 0.2313 0.16866 0.00864 0.0
N274 N 0.23484 0.1533 0.97565 0.0
H275 H 0.272 0.19436 0.96431 0.0
H276 H 0.2557 0.18035 0.94411 0.0
H277 H 0.27703 0.16544 0.95808 0.0
C278 C 0.26425 0.17838 0.96017 0.0
C279 C 0.30072 0.23493 0.09098 0.0
H280 H 0.28331 0.23204 0.08618 0.0
H281 H 0.30125 0.24496 0.10631 0.0
H282 H 0.30854 0.2188 0.09445 0.0
O283 O 0.29147 0.19855 0.05905 0.0
O284 O 0.27019 0.17751 0.03876 0.0
C285 C 0.24087 0.22914 0.0467 0.0
O286 O 0.29479 0.19004 0.9973 0.0
O287 O 0.31548 0.21161 0.01759 0.0
Zn288 Zn 0.77374 0.28561 0.98 0.0
O289 O 0.77061 0.26024 0.00332 0.0
C290 C 0.82255 0.28594 0.9875 0.0
Zn291 Zn 0.79181 0.26341 0.95703 0.0
C292 C 0.77912 0.24148 -0.00052 0.0
O293 O 0.78877 0.23809 0.98113 0.0
C294 C 0.7861 0.3082 0.93799 0.0
O295 O 0.76166 0.25384 0.94298 0.0
O296 O 0.7433 0.27586 0.96523 0.0
N297 N 0.80888 0.24216 0.93729 0.0
C298 C 0.812 0.24153 0.91528 0.0
C299 C 0.83397 0.21812 0.92963 0.0
N300 N 0.82235 0.2274 0.94616 0.0
N301 N 0.82787 0.22677 0.91005 0.0
C302 C 0.7634 0.31547 0.02005 0.0
C303 C 0.73832 0.33652 0.00727 0.0
N304 N 0.75774 0.30755 5e-05 0.0
N305 N 0.74193 0.32049 0.99225 0.0
N306 N 0.7517 0.3338 0.02482 0.0
H307 H 0.7818 0.28727 0.03196 0.0
H308 H 0.77489 0.3076 0.05272 0.0
H309 H 0.79618 0.31314 0.03304 0.0
C310 C 0.77996 0.30512 0.03527 0.0
C311 C 0.79884 0.25458 0.8989 0.0
H312 H 0.78196 0.25774 0.90522 0.0
H313 H 0.79785 0.24569 0.8829 0.0
H314 H 0.80702 0.27065 0.89602 0.0
O315 O 0.79461 0.28955 0.93343 0.0
O316 O 0.77676 0.31087 0.95654 0.0
C317 C 0.7434 0.26181 0.94958 0.0
O318 O 0.80469 0.29465 0.99424 0.0
O319 O 0.82191 0.27258 0.97141 0.0
Zn320 Zn 0.72259 0.70946 0.47909 0.0
O321 O 0.72534 0.73357 0.50362 0.0
C322 C 0.67383 0.70953 0.48659 0.0
Zn323 Zn 0.70485 0.73289 0.45703 0.0
C324 C 0.71758 0.75277 0.50039 0.0
O325 O 0.70865 0.75742 0.48194 0.0
C326 C 0.70994 0.68868 0.43642 0.0
O327 O 0.73485 0.74232 0.44308 0.0
O328 O 0.75335 0.71997 0.46487 0.0
N329 N 0.68805 0.75502 0.43798 0.0
C330 C 0.68507 0.75644 0.41598 0.0
C331 C 0.66325 0.77956 0.43096 0.0
N332 N 0.67466 0.76961 0.44725 0.0
N333 N 0.66938 0.77153 0.41114 0.0
C334 C 0.73238 0.67752 0.51776 0.0
C335 C 0.75847 0.65784 0.50482 0.0
N336 N 0.7384 0.68658 0.49834 0.0
N337 N 0.75481 0.67447 0.49044 0.0
N338 N 0.7445 0.65936 0.52206 0.0
H339 H 0.71235 0.70436 0.53014 0.0
H340 H 0.71961 0.68357 0.55033 0.0
H341 H 0.69918 0.67775 0.52982 0.0
C342 C 0.71492 0.68649 0.53284 0.0
C343 C 0.69818 0.7438 0.39925 0.0
H344 H 0.71499 0.74024 0.40552 0.0
H345 H 0.69934 0.7532 0.38355 0.0
H346 H 0.68986 0.72792 0.39582 0.0
O347 O 0.70135 0.70747 0.43264 0.0
O348 O 0.71969 0.68539 0.45465 0.0
C349 C 0.75315 0.73433 0.44947 0.0
O350 O 0.69146 0.69985 0.49258 0.0
O351 O 0.67475 0.72388 0.47139 0.0
Zn352 Zn 0.20713 0.76818 0.53635 0.0
O353 O 0.23534 0.75555 0.55187 0.0
C354 C 0.21626 0.81192 0.55638 0.0
Zn355 Zn 0.22857 0.78872 0.51476 0.0
C356 C 0.25464 0.76154 0.5463 0.0
O357 O 0.25704 0.77556 0.5308 0.0
C358 C 0.18046 0.794 0.50473 0.0
O359 O 0.23005 0.76349 0.49108 0.0
O360 O 0.20897 0.7429 0.51221 0.0
N361 N 0.24806 0.8089 0.49597 0.0
C362 C 0.24523 0.8173 0.47553 0.0
C363 C 0.27052 0.83605 0.4911 0.0
N364 N 0.26411 0.82031 0.50544 0.0
N365 N 0.25894 0.83456 0.47214 0.0
C366 C 0.18343 0.748 0.57704 0.0
C367 C 0.15987 0.7268 0.56181 0.0
N368 N 0.18715 0.74866 0.55512 0.0
N369 N 0.17264 0.7353 0.5457 0.0
N370 N 0.16624 0.73458 0.58165 0.0
H371 H 0.21445 0.76152 0.58818 0.0
H372 H 0.19706 0.75044 0.60984 0.0
H373 H 0.1903 0.77629 0.59698 0.0
C374 C 0.19721 0.75965 0.59398 0.0
C375 C 0.22785 0.80989 0.45953 0.0
H376 H 0.21947 0.79466 0.46506 0.0
H377 H 0.23551 0.80642 0.44329 0.0
H378 H 0.21568 0.82335 0.45712 0.0
O379 O 0.19939 0.80125 0.49925 0.0
O380 O 0.17898 0.78035 0.52054 0.0
C381 C 0.21964 0.74558 0.49431 0.0
O382 O 0.20555 0.79423 0.55995 0.0
O383 O 0.22711 0.81388 0.53857 0.0
Zn384 Zn 0.95922 0.7063 0.76857 0.0
O385 O 0.94172 0.73409 0.75786 0.0
C386 C 0.93736 0.70937 0.81188 0.0
Zn387 Zn 0.97893 0.72713 0.79151 0.0
C388 C 0.94592 0.75313 0.76558 0.0
O389 O 0.96093 0.75529 0.78016 0.0
C390 C 0.99235 0.67982 0.79306 0.0
O391 O 0.00339 0.73316 0.7678 0.0
O392 O 0.98419 0.71277 0.74479 0.0
N393 N 0.9948 0.7461 0.81452 0.0
C394 C 0.01492 0.74425 0.82386 0.0
C395 C 0.99606 0.76599 0.84401 0.0
N396 N 0.98326 0.75996 0.82685 0.0
N397 N 0.01607 0.75639 0.84253 0.0
C398 C 0.92239 0.68065 0.74335 0.0
C399 C 0.94177 0.66108 0.72148 0.0
N400 N 0.9436 0.68683 0.74596 0.0
N401 N 0.95555 0.67488 0.7321 0.0
N402 N 0.92082 0.66445 0.72812 0.0
H403 H 0.90698 0.70592 0.76308 0.0
H404 H 0.88801 0.68903 0.74768 0.0
H405 H 0.90147 0.67778 0.77153 0.0
C406 C 0.90364 0.68894 0.75717 0.0
C407 C 0.03274 0.72896 0.81607 0.0
H408 H 0.0292 0.7223 0.79944 0.0
H409 H 0.04868 0.7379 0.81533 0.0
H410 H 0.03463 0.71533 0.82815 0.0
O411 O 0.99646 0.69837 0.80196 0.0
O412 O 0.97695 0.67848 0.77894 0.0
C413 C 0.00122 0.72436 0.74889 0.0
O414 O 0.93477 0.70021 0.79317 0.0
O415 O 0.95439 0.72107 0.81524 0.0
Zn416 Zn 0.51423 0.26749 0.28839 0.0
O417 O 0.4906 0.26301 0.26346 0.0
C418 C 0.5024 0.31522 0.2907 0.0
Zn419 Zn 0.53541 0.28832 0.26678 0.0
C420 C 0.49377 0.27231 0.24493 0.0
O421 O 0.51128 0.28345 0.24185 0.0
C422 C 0.55549 0.28326 0.31083 0.0
O423 O 0.55232 0.26027 0.25603 0.0
O424 O 0.53167 0.239 0.277 0.0
N425 N 0.55248 0.30785 0.24528 0.0
C426 C 0.57387 0.31372 0.24362 0.0
C427 C 0.55575 0.3338 0.22113 0.0
N428 N 0.54132 0.32013 0.23104 0.0
N429 N 0.57633 0.33003 0.22862 0.0
C430 C 0.47579 0.25104 0.3181 0.0
C431 C 0.49256 0.22855 0.33925 0.0
N432 N 0.49644 0.24865 0.31012 0.0
N433 N 0.50669 0.23432 0.32306 0.0
N434 N 0.47299 0.23879 0.33653 0.0
H435 H 0.46418 0.27436 0.2934 0.0
H436 H 0.4432 0.25805 0.30625 0.0
H437 H 0.45572 0.27989 0.32165 0.0
C438 C 0.45896 0.26687 0.30919 0.0
C439 C 0.59189 0.30498 0.25814 0.0
H440 H 0.58815 0.28788 0.26347 0.0
H441 H 0.60797 0.30504 0.24944 0.0
H442 H 0.59338 0.31577 0.27286 0.0
O443 O 0.55898 0.29286 0.29248 0.0
O444 O 0.53802 0.27196 0.31329 0.0
C445 C 0.54727 0.24115 0.26303 0.0
O446 O 0.49735 0.2966 0.29896 0.0
O447 O 0.51833 0.31638 0.27717 0.0
Zn448 Zn 0.45566 0.78973 0.23083 0.0
O449 O 0.44314 0.75961 0.24168 0.0
C450 C 0.43282 0.78454 0.18793 0.0
Zn451 Zn 0.47684 0.77259 0.20625 0.0
C452 C 0.44888 0.74159 0.23264 0.0
O453 O 0.46288 0.74189 0.21693 0.0
C454 C 0.48386 0.82115 0.20602 0.0
O455 O 0.50235 0.76929 0.22976 0.0
O456 O 0.48188 0.78728 0.25366 0.0
N457 N 0.49504 0.75671 0.18268 0.0
C458 C 0.51514 0.76095 0.17405 0.0
C459 C 0.49938 0.73773 0.15287 0.0
N460 N 0.48544 0.74201 0.16966 0.0
N461 N 0.51819 0.74934 0.15528 0.0
C462 C 0.41566 0.80955 0.25593 0.0
C463 C 0.43161 0.83128 0.2785 0.0
N464 N 0.43756 0.80643 0.25375 0.0
N465 N 0.44744 0.81975 0.26799 0.0
N466 N 0.41147 0.82528 0.27118 0.0
H467 H 0.40427 0.77941 0.24091 0.0
H468 H 0.38284 0.79592 0.25365 0.0
H469 H 0.39484 0.80431 0.22779 0.0
C470 C 0.39839 0.79647 0.24396 0.0
C471 C 0.53095 0.77794 0.18266 0.0
H472 H 0.52593 0.78436 0.19898 0.0
H473 H 0.54762 0.77058 0.18432 0.0
H474 H 0.53219 0.79167 0.1706 0.0
O475 O 0.49023 0.80356 0.19655 0.0
O476 O 0.4686 0.82007 0.22032 0.0
C477 C 0.49999 0.77789 0.24876 0.0
O478 O 0.42986 0.79183 0.20736 0.0
O479 O 0.45128 0.77612 0.18276 0.0
Zn480 Zn 0.03963 0.20274 0.72723 0.0
O481 O 0.05463 0.23226 0.73657 0.0
C482 C 0.061 0.20636 0.68338 0.0
Zn483 Zn 0.01853 0.22129 0.70359 0.0
C484 C 0.04934 0.25068 0.72811 0.0
O485 O 0.0343 0.25137 0.71341 0.0
C486 C 0.00888 0.17272 0.70436 0.0
O487 O 0.99411 0.2262 0.72759 0.0
O488 O 0.01449 0.20774 0.7512 0.0
N489 N 0.00056 0.23783 0.68026 0.0
C490 C 0.98071 0.23326 0.67136 0.0
C491 C 0.99586 0.25746 0.65086 0.0
N492 N 0.00984 0.25312 0.66765 0.0
N493 N 0.97747 0.24515 0.65283 0.0
C494 C 0.07939 0.1819 0.75198 0.0
C495 C 0.06336 0.16236 0.77641 0.0
N496 N 0.05759 0.18581 0.75019 0.0
N497 N 0.04767 0.17386 0.76561 0.0
N498 N 0.08343 0.16724 0.76821 0.0
H499 H 0.09178 0.20883 0.73224 0.0
H500 H 0.11264 0.1934 0.7471 0.0
H501 H 0.09975 0.1815 0.72327 0.0
C502 C 0.09687 0.19217 0.73783 0.0
C503 C 0.96435 0.21718 0.68056 0.0
H504 H 0.96753 0.21362 0.6982 0.0
H505 H 0.94738 0.22383 0.67864 0.0
H506 H 0.9652 0.20167 0.671 0.0
O507 O 0.00319 0.19053 0.69475 0.0
O508 O 0.02448 0.17321 0.7183 0.0
C509 C 0.99675 0.21805 0.74673 0.0
O510 O 0.06418 0.19799 0.70238 0.0
O511 O 0.0431 0.21655 0.67961 0.0
Zn512 Zn 0.76528 0.95913 0.70646 0.0
O513 O 0.75485 0.94361 0.73563 0.0
C514 C 0.80846 0.93674 0.71087 0.0
Zn515 Zn 0.7889 0.9796 0.72571 0.0
C516 C 0.76288 0.94901 0.75424 0.0
O517 O 0.77758 0.964 0.75518 0.0
C518 C 0.78985 0.98997 0.67755 0.0
O519 O 0.76554 0.00482 0.72988 0.0
O520 O 0.7418 0.98465 0.71136 0.0
N521 N 0.81209 0.99661 0.74335 0.0
C522 C 0.82152 0.01653 0.74021 0.0
C523 C 0.84129 -0.0008 0.76356 0.0
N524 N 0.82421 0.98604 0.75818 0.0
N525 N 0.83998 0.01849 0.75255 0.0
C526 C 0.74042 0.9206 0.68346 0.0
C527 C 0.71676 0.93786 0.66403 0.0
N528 N 0.74239 0.94215 0.68844 0.0
N529 N 0.72744 0.95283 0.67655 0.0
N530 N 0.72456 0.91748 0.66817 0.0
H531 H 0.75922 0.90669 0.71031 0.0
H532 H 0.7446 0.88679 0.69345 0.0
H533 H 0.76889 0.89995 0.68283 0.0
C534 C 0.75407 0.90247 0.69325 0.0
C535 C 0.81392 0.03328 0.72364 0.0
H536 H 0.79746 0.02921 0.71687 0.0
H537 H 0.81287 0.04974 0.73152 0.0
H538 H 0.82624 0.03441 0.71013 0.0
O539 O 0.79938 0.99477 0.69564 0.0
O540 O 0.77531 0.97491 0.6774 0.0
C541 C 0.74648 0.00244 0.72148 0.0
O542 O 0.78971 0.93418 0.70178 0.0
O543 O 0.81226 0.95432 0.72158 0.0
Zn544 Zn 0.70467 0.0154 0.22585 0.0
O545 O 0.72825 0.99077 0.23143 0.0
C546 C 0.70466 0.00433 0.17765 0.0
Zn547 Zn 0.72844 0.03559 0.20649 0.0
C548 C 0.74712 0.99259 0.22249 0.0
O549 O 0.75172 0.00986 0.21144 0.0
C550 C 0.68521 0.05791 0.20995 0.0
O551 O 0.73888 0.05088 0.23554 0.0
O552 O 0.71498 0.03203 0.25528 0.0
N553 N 0.75124 0.05244 0.18832 0.0
C554 C 0.75349 0.07408 0.18379 0.0
C555 C 0.77574 0.05671 0.16283 0.0
N556 N 0.76528 0.04169 0.17547 0.0
N557 N 0.76857 0.07719 0.16766 0.0
C558 C 0.67173 0.97869 0.23903 0.0
C559 C 0.65114 0.99524 0.26219 0.0
N560 N 0.68105 -0.00155 0.24307 0.0
N561 N 0.66839 0.0086 0.25773 0.0
N562 N 0.65283 0.97638 0.25056 0.0
H563 H 0.69889 0.96384 0.22112 0.0
H564 H 0.67813 0.94478 0.23106 0.0
H565 H 0.67232 0.96208 0.20792 0.0
C566 C 0.68101 0.96142 0.22394 0.0
C567 C 0.74165 0.09219 0.19579 0.0
H568 H 0.73802 0.08725 0.21303 0.0
H569 H 0.75171 0.10751 0.19578 0.0
H570 H 0.72584 0.09572 0.18735 0.0
O571 O 0.70431 0.06074 0.20171 0.0
O572 O 0.6811 0.04019 0.22032 0.0
C573 C 0.73024 0.04646 0.25414 0.0
O574 O 0.69539 -0.00094 0.19577 0.0
O575 O 0.71845 0.02005 0.17751 0.0
Zn576 Zn 0.29022 0.51584 0.26855 0.0
O577 O 0.26556 0.49212 0.26444 0.0
C578 C 0.29189 0.50551 0.31671 0.0
Zn579 Zn 0.26821 0.53752 0.28832 0.0
C580 C 0.247 0.49512 0.27368 0.0
O581 O 0.24352 0.51286 0.28434 0.0
C582 C 0.31228 0.55764 0.283 0.0
O583 O 0.25752 0.55325 0.25946 0.0
O584 O 0.27929 0.53232 0.23936 0.0
N585 N 0.24663 0.55532 0.30702 0.0
C586 C 0.2453 0.57696 0.31189 0.0
C587 C 0.22162 0.56031 0.33188 0.0
N588 N 0.23173 0.54504 0.31929 0.0
N589 N 0.22988 0.5805 0.32761 0.0
C590 C 0.31998 0.47704 0.2533 0.0
C591 C 0.34103 0.49317 0.23023 0.0
N592 N 0.3121 0.49765 0.25047 0.0
N593 N 0.32498 0.50751 0.23581 0.0
N594 N 0.33824 0.47386 0.24092 0.0
H595 H 0.29527 0.46589 0.2768 0.0
H596 H 0.30888 0.44448 0.26165 0.0
H597 H 0.32361 0.45842 0.2831 0.0
C598 C 0.31127 0.4607 0.26975 0.0
C599 C 0.25836 0.59466 0.3006 0.0
H600 H 0.26204 0.58992 0.2833 0.0
H601 H 0.24921 0.61053 0.30078 0.0
H602 H 0.27416 0.59701 0.30949 0.0
O603 O 0.29373 0.56155 0.29204 0.0
O604 O 0.31498 0.53967 0.27262 0.0
C605 C 0.26507 0.54776 0.24067 0.0
O606 O 0.30034 0.49979 0.29836 0.0
O607 O 0.27851 0.52159 0.31717 0.0
Zn608 Zn 0.22792 0.4564 0.79089 0.0
O609 O 0.23927 0.44138 0.76175 0.0
C610 C 0.18455 0.43535 0.78416 0.0
Zn611 Zn 0.20624 0.47759 0.77016 0.0
C612 C 0.23213 0.4467 0.74272 0.0
O613 O 0.21759 0.4618 0.74093 0.0
C614 C 0.20332 0.48761 0.81863 0.0
O615 O 0.23093 0.50168 0.7668 0.0
O616 O 0.25215 0.48128 0.78787 0.0
N617 N 0.18402 0.49638 0.75301 0.0
C618 C 0.17828 0.51764 0.75618 0.0
C619 C 0.15238 0.50253 0.73787 0.0
N620 N 0.16804 0.48709 0.74133 0.0
N621 N 0.15833 0.52183 0.74718 0.0
C622 C 0.25201 0.41714 0.81418 0.0
C623 C 0.27414 0.43469 0.83514 0.0
N624 N 0.24976 0.43877 0.80951 0.0
N625 N 0.26378 0.44958 0.82233 0.0
N626 N 0.26718 0.41416 0.83026 0.0
H627 H 0.23246 0.40384 0.78761 0.0
H628 H 0.24712 0.38347 0.80355 0.0
H629 H 0.22337 0.39673 0.81522 0.0
C630 C 0.23797 0.39927 0.80446 0.0
C631 C 0.19274 0.5347 0.7669 0.0
H632 H 0.20864 0.53562 0.75789 0.0
H633 H 0.18509 0.55132 0.7664 0.0
H634 H 0.19636 0.53029 0.78423 0.0
O635 O 0.19558 0.49301 0.79989 0.0
O636 O 0.21688 0.47172 0.81982 0.0
C637 C 0.24904 0.4989 0.77695 0.0
O638 O 0.20287 0.43201 0.79388 0.0
O639 O 0.1817 0.45319 0.77356 0.0
Zn640 Zn 0.72652 0.78848 0.9805 0.0
O641 O 0.7295 0.76391 0.00469 0.0
C642 C 0.6783 0.79149 0.99027 0.0
Zn643 Zn 0.70643 0.76656 0.959 0.0
C644 C 0.72017 0.74539 0.00165 0.0
O645 O 0.70975 0.7419 0.98375 0.0
C646 C 0.71303 0.8103 0.93825 0.0
O647 O 0.73522 0.75521 0.9436 0.0
O648 O 0.75565 0.7765 0.96469 0.0
N649 N 0.68754 0.74535 0.94099 0.0
C650 C 0.68339 0.74392 0.91919 0.0
C651 C 0.66191 0.72128 0.93541 0.0
N652 N 0.67434 0.73108 0.95102 0.0
N653 N 0.66723 0.7291 0.91528 0.0
C654 C 0.74193 0.81828 0.01929 0.0
C655 C 0.76587 0.83845 0.0033 0.0
N656 N 0.74488 0.81008 -0.0012 0.0
N657 N 0.76007 0.82242 0.98905 0.0
N658 N 0.75476 0.83623 0.02247 0.0
H659 H 0.71731 0.79452 0.03007 0.0
H660 H 0.73315 0.8069 0.05165 0.0
H661 H 0.71239 0.82297 0.03812 0.0
C662 C 0.72512 0.81006 0.03552 0.0
C663 C 0.69569 0.75635 0.9017 0.0
H664 H 0.71286 0.75977 0.90703 0.0
H665 H 0.69592 0.74686 0.88602 0.0
H666 H 0.68727 0.77226 0.8986 0.0
O667 O 0.70339 0.79198 0.93476 0.0
O668 O 0.72357 0.81303 0.95615 0.0
C669 C 0.75413 0.76226 0.94929 0.0
O670 O 0.69679 0.79973 0.99582 0.0
O671 O 0.67765 0.77758 0.97464 0.0
Zn672 Zn 0.22264 0.70646 0.01501 0.0
O673 O 0.22653 0.73092 0.99061 0.0
C674 C 0.17419 0.70545 0.00655 0.0
Zn675 Zn 0.20424 0.72969 0.03665 0.0
C676 C 0.21726 0.74954 0.99331 0.0
O677 O 0.20697 0.75345 0.01118 0.0
C678 C 0.20969 0.68588 0.05786 0.0
O679 O 0.23396 0.74099 0.05031 0.0
O680 O 0.25252 0.71669 0.03067 0.0
N681 N 0.1864 0.75169 0.05482 0.0
C682 C 0.1827 0.75343 0.07668 0.0
C683 C 0.16076 0.77569 0.06059 0.0
N684 N 0.17293 0.76575 0.04486 0.0
N685 N 0.16648 0.76818 0.08073 0.0
C686 C 0.23601 0.67548 0.97633 0.0
C687 C 0.25948 0.65465 0.99218 0.0
N688 N 0.23968 0.68388 0.99661 0.0
N689 N 0.25457 0.67112 0.00628 0.0
N690 N 0.24809 0.65702 0.9732 0.0
H691 H 0.21276 0.70038 0.96524 0.0
H692 H 0.22647 0.68548 0.94369 0.0
H693 H 0.20533 0.67195 0.95925 0.0
C694 C 0.21909 0.68397 0.96037 0.0
C695 C 0.1956 0.74144 0.09405 0.0
H696 H 0.21268 0.73821 0.08832 0.0
H697 H 0.19605 0.75117 0.10958 0.0
H698 H 0.18754 0.72545 0.09758 0.0
O699 O 0.20174 0.70493 0.06172 0.0
O700 O 0.21872 0.68218 0.03933 0.0
C701 C 0.25218 0.73212 0.04494 0.0
O702 O 0.1922 0.69688 3e-05 0.0
O703 O 0.17456 0.71893 0.02256 0.0
Zn704 Zn 0.2706 0.29164 0.51519 0.0
O705 O 0.26611 0.26765 0.49071 0.0
C706 C 0.3185 0.29377 0.50342 0.0
Zn707 Zn 0.29125 0.26897 0.53537 0.0
C708 C 0.27569 0.24912 0.49274 0.0
O709 O 0.28692 0.24512 0.51005 0.0
C710 C 0.28612 0.31223 0.55736 0.0
O711 O 0.26286 0.25748 0.5513 0.0
O712 O 0.24185 0.27994 0.53206 0.0
N713 N 0.31056 0.24719 0.55233 0.0
C714 C 0.31516 0.24519 0.574 0.0
C715 C 0.33668 0.2234 0.55673 0.0
N716 N 0.32379 0.23344 0.54164 0.0
N717 N 0.33166 0.23055 0.57718 0.0
C718 C 0.25431 0.32273 0.4777 0.0
C719 C 0.23181 0.34326 0.49521 0.0
N720 N 0.25201 0.3141 0.49811 0.0
N721 N 0.23769 0.32668 0.50881 0.0
N722 N 0.24196 0.34115 0.47551 0.0
H723 H 0.27748 0.29843 0.46511 0.0
H724 H 0.26152 0.31252 0.44458 0.0
H725 H 0.28338 0.32698 0.45812 0.0
C726 C 0.27019 0.31452 0.46057 0.0
C727 C 0.30291 0.25682 0.59207 0.0
H728 H 0.28562 0.26013 0.58712 0.0
H729 H 0.30308 0.24681 0.60743 0.0
H730 H 0.31107 0.27278 0.59557 0.0
O731 O 0.2954 0.29361 0.56012 0.0
O732 O 0.27512 0.31566 0.53986 0.0
C733 C 0.24382 0.26502 0.54678 0.0
O734 O 0.29995 0.30237 0.49864 0.0
O735 O 0.31956 0.27997 0.51912 0.0
Zn736 Zn 0.7884 0.23236 0.45517 0.0
O737 O 0.75822 0.24197 0.44131 0.0
C738 C 0.78271 0.18804 0.43526 0.0
Zn739 Zn 0.77026 0.2097 0.47767 0.0
C740 C 0.73991 0.23404 0.44781 0.0
O741 O 0.73971 0.2198 0.46331 0.0
C742 C 0.81918 0.20928 0.485 0.0
O743 O 0.76731 0.23462 0.50148 0.0
O744 O 0.78532 0.25723 0.47962 0.0
N745 N 0.75451 0.18728 0.49748 0.0
C746 C 0.76031 0.17917 0.51739 0.0
C747 C 0.73554 0.15792 0.50437 0.0
N748 N 0.7389 0.17419 0.48954 0.0
N749 N 0.74892 0.16059 0.52194 0.0
C750 C 0.80842 0.25488 0.41367 0.0
C751 C 0.8302 0.27826 0.4283 0.0
N752 N 0.80528 0.25397 0.43568 0.0
N753 N 0.81864 0.26872 0.44472 0.0
N754 N 0.8242 0.2698 0.40862 0.0
H755 H 0.77832 0.23897 0.40334 0.0
H756 H 0.79447 0.25095 0.38116 0.0
H757 H 0.80328 0.22583 0.39427 0.0
C758 C 0.79527 0.24199 0.39714 0.0
C759 C 0.77664 0.18966 0.53278 0.0
H760 H 0.77783 0.20765 0.52997 0.0
H761 H 0.77184 0.18652 0.55019 0.0
H762 H 0.79313 0.18233 0.53017 0.0
O763 O 0.80133 0.20035 0.49152 0.0
O764 O 0.8185 0.2231 0.4693 0.0
C765 C 0.77579 0.25346 0.49795 0.0
O766 O 0.79136 0.20674 0.43127 0.0
O767 O 0.7731 0.18492 0.45361 0.0
H768 H 0.07855 0.37255 0.26705 0.0
H769 H 0.10912 0.39897 0.26852 0.0
H770 H 0.15298 0.34715 0.2901 0.0
H771 H 0.12205 0.32065 0.28895 0.0
H772 H 0.15637 0.39045 0.31324 0.0
H773 H 0.16031 0.39601 0.22174 0.0
H774 H 0.13317 0.39967 0.23319 0.0
H775 H 0.14687 0.37351 0.23599 0.0
C776 C 0.09467 0.36695 0.2724 0.0
C777 C 0.09821 0.34468 0.27765 0.0
C778 C 0.11208 0.38193 0.27309 0.0
C779 C 0.13328 0.37484 0.27904 0.0
C780 C 0.1367 0.35279 0.28528 0.0
H781 H 0.25013 0.45473 0.25395 0.0
H782 H 0.22373 0.4243 0.25605 0.0
C783 C 0.1192 0.33774 0.28455 0.0
C784 C 0.15184 0.39053 0.27797 0.0
H785 H 0.18001 0.42337 0.24194 0.0
C786 C 0.16175 0.39753 0.29768 0.0
C787 C 0.15892 0.39942 0.25758 0.0
C788 C 0.14943 0.39166 0.23587 0.0
C789 C 0.17807 0.41396 0.29757 0.0
C790 C 0.18429 0.42371 0.27725 0.0
C791 C 0.17499 0.41603 0.25749 0.0
C792 C 0.20017 0.44215 0.2761 0.0
C793 C 0.1885 0.42078 0.31915 0.0
C794 C 0.19534 0.46238 0.28626 0.0
C795 C 0.21032 0.47985 0.28502 0.0
C796 C 0.23032 0.47736 0.2735 0.0
C797 C 0.23485 0.45719 0.26292 0.0
C798 C 0.21985 0.43976 0.26417 0.0
H799 H 0.18637 0.40793 0.33208 0.0
H800 H 0.20641 0.42412 0.31704 0.0
H801 H 0.1805 0.43615 0.32511 0.0
H802 H 0.17997 0.46466 0.29512 0.0
H803 H 0.20635 0.49517 0.29332 0.0
H804 H 0.25212 0.53473 0.74969 0.0
H805 H 0.27896 0.56486 0.75184 0.0
H806 H 0.30925 0.53396 0.80847 0.0
H807 H 0.28305 0.50347 0.80597 0.0
H808 H 0.28685 0.59427 0.78458 0.0
H809 H 0.36188 0.54389 0.76929 0.0
H810 H 0.3344 0.53328 0.76502 0.0
H811 H 0.34593 0.53444 0.79239 0.0
C812 C 0.26466 0.53426 0.76244 0.0
C813 C 0.26569 0.51662 0.77747 0.0
C814 C 0.2799 0.55151 0.76371 0.0
C815 C 0.29629 0.55145 0.7801 0.0
C816 C 0.29711 0.53403 0.79534 0.0
H817 H 0.401 0.64674 0.80818 0.0
H818 H 0.37039 0.62069 0.8139 0.0
C819 C 0.2821 0.51664 0.7939 0.0
C820 C 0.31242 0.56972 0.78133 0.0
H821 H 0.36756 0.58119 0.77946 0.0
C822 C 0.30449 0.59142 0.78349 0.0
C823 C 0.33544 0.56592 0.77988 0.0
C824 C 0.34494 0.54315 0.7763 0.0
C825 C 0.31903 0.60943 0.78407 0.0
C826 C 0.34192 0.60555 0.78261 0.0
C827 C 0.34991 0.58393 0.78089 0.0
C828 C 0.35789 0.62373 0.78058 0.0
C829 C 0.30996 0.63253 0.78594 0.0
C830 C 0.36071 0.63398 0.76006 0.0
C831 C 0.37825 0.64847 0.75669 0.0
C832 C 0.39303 0.65328 0.77394 0.0
C833 C 0.38963 0.64356 0.79475 0.0
C834 C 0.37222 0.62878 0.79804 0.0
H835 H 0.29207 0.63261 0.79001 0.0
H836 H 0.31907 0.64187 0.79883 0.0
H837 H 0.31236 0.64128 0.77 0.0
H838 H 0.35008 0.62978 0.74628 0.0
H839 H 0.38097 0.65467 0.74019 0.0
H840 H 0.60094 0.15587 0.69214 0.0
H841 H 0.63092 0.1287 0.68863 0.0
H842 H 0.64286 0.13291 0.75871 0.0
H843 H 0.61266 0.15917 0.76238 0.0
H844 H 0.67787 0.12819 0.70257 0.0
H845 H 0.62434 0.06773 0.74617 0.0
H846 H 0.6138 0.09307 0.73453 0.0
H847 H 0.62822 0.09342 0.76047 0.0
C848 C 0.61039 0.15133 0.70664 0.0
C849 C 0.60478 0.15998 0.72743 0.0
C850 C 0.62744 0.1359 0.70464 0.0
C851 C 0.63891 0.12877 0.72346 0.0
C852 C 0.63413 0.13823 0.74402 0.0
H853 H 0.75226 0.04355 0.73914 0.0
H854 H 0.72632 0.07447 0.73834 0.0
C855 C 0.61709 0.15355 0.74603 0.0
C856 C 0.65438 0.11001 0.7221 0.0
H857 H 0.66136 0.05695 0.73962 0.0
C858 C 0.67431 0.11258 0.71058 0.0
C859 C 0.6494 0.08959 0.73226 0.0
C860 C 0.6277 0.08562 0.74389 0.0
C861 C 0.68973 0.0953 0.70948 0.0
C862 C 0.68509 0.07519 0.72043 0.0
C863 C 0.66492 0.07249 0.73144 0.0
C864 C 0.70089 0.05662 0.7207 0.0
C865 C 0.71072 0.09861 0.69646 0.0
C866 C 0.69487 0.03619 0.71164 0.0
C867 C 0.70953 0.01843 0.71226 0.0
C868 C 0.73043 0.02078 0.72209 0.0
C869 C 0.73627 0.04119 0.73147 0.0
C870 C 0.72158 0.05895 0.73083 0.0
H871 H 0.70924 0.11254 0.6846 0.0
H872 H 0.72443 0.10241 0.70801 0.0
H873 H 0.71515 0.08343 0.68719 0.0
H874 H 0.67887 0.03405 0.70393 0.0
H875 H 0.70455 0.00294 0.70485 0.0
H876 H 0.9124 0.86928 0.23241 0.0
H877 H 0.88086 0.89454 0.23113 0.0
H878 H 0.83847 0.8408 0.21144 0.0
H879 H 0.87037 0.81543 0.2125 0.0
H880 H 0.83388 0.88338 0.1869 0.0
H881 H 0.82978 0.89175 0.27811 0.0
H882 H 0.85692 0.89546 0.26671 0.0
H883 H 0.84361 0.86903 0.2646 0.0
C884 C 0.89637 0.86299 0.22761 0.0
C885 C 0.89357 0.84054 0.22276 0.0
C886 C 0.87841 0.87731 0.22702 0.0
C887 C 0.85738 0.86939 0.22155 0.0
C888 C 0.85462 0.84709 0.21589 0.0
H889 H 0.74192 0.95309 0.24366 0.0
H890 H 0.76678 0.9213 0.2427 0.0
C891 C 0.87268 0.83268 0.21656 0.0
C892 C 0.83842 0.88463 0.22215 0.0
H893 H 0.81048 0.91889 0.25699 0.0
C894 C 0.82849 0.89095 0.20221 0.0
C895 C 0.83131 0.89418 0.24222 0.0
C896 C 0.84079 0.88714 0.26417 0.0
C897 C 0.81231 0.90753 0.20172 0.0
C898 C 0.80627 0.91809 0.22166 0.0
C899 C 0.81538 0.91092 0.24171 0.0
C900 C 0.79118 0.93723 0.22204 0.0
C901 C 0.80199 0.91375 0.1799 0.0
C902 C 0.79701 0.95683 0.21118 0.0
C903 C 0.78294 0.97507 0.21179 0.0
C904 C 0.76285 0.974 0.22337 0.0
C905 C 0.7573 0.95446 0.23463 0.0
C906 C 0.77141 0.93625 0.23403 0.0
H907 H 0.80363 0.90026 0.16757 0.0
H908 H 0.78422 0.91779 0.18191 0.0
H909 H 0.81049 0.92854 0.17321 0.0
H910 H 0.81248 0.95805 0.20228 0.0
H911 H 0.7877 0.98987 0.20295 0.0
H912 H 0.29561 0.20869 0.49096 0.0
H913 H 0.2964 0.18312 0.45976 0.0
H914 H 0.25596 0.22777 0.42176 0.0
H915 H 0.25485 0.25339 0.45294 0.0
H916 H 0.24155 0.18443 0.42042 0.0
H917 H 0.33101 0.18976 0.4018 0.0
H918 H 0.32533 0.18358 0.43026 0.0
H919 H 0.3169 0.20969 0.41892 0.0
C920 C 0.28682 0.21306 0.476 0.0
C921 C 0.27514 0.23305 0.47443 0.0
C922 C 0.2875 0.19854 0.45812 0.0
C923 C 0.27663 0.20382 0.43835 0.0
C924 C 0.26463 0.22355 0.43684 0.0
H925 H 0.28642 0.1217 0.31859 0.0
H926 H 0.28783 0.15397 0.34343 0.0
C927 C 0.26394 0.23809 0.4547 0.0
C928 C 0.27691 0.18818 0.41965 0.0
H929 H 0.31142 0.15922 0.38577 0.0
C930 C 0.25679 0.17912 0.41265 0.0
C931 C 0.2968 0.1816 0.4093 0.0
C932 C 0.31872 0.19182 0.41528 0.0
C933 C 0.25613 0.16278 0.39631 0.0
C934 C 0.27613 0.15516 0.38702 0.0
C935 C 0.29616 0.16498 0.39316 0.0
C936 C 0.27653 0.1359 0.37213 0.0
C937 C 0.23406 0.1535 0.38939 0.0
C938 C 0.27029 0.11517 0.3803 0.0
C939 C 0.26945 0.097 0.36626 0.0
C940 C 0.27484 0.09927 0.34385 0.0
C941 C 0.28187 0.11981 0.33578 0.0
C942 C 0.28276 0.13809 0.3499 0.0
H943 H 0.22032 0.16494 0.39349 0.0
H944 H 0.23373 0.15008 0.37137 0.0
H945 H 0.23112 0.13774 0.39826 0.0
H946 H 0.26576 0.11313 0.3975 0.0
H947 H 0.26402 0.08124 0.37273 0.0
H948 H 0.18678 0.89679 0.83999 0.0
H949 H 0.18224 0.86715 0.86748 0.0
H950 H 0.25247 0.85554 0.86638 0.0
H951 H 0.2571 0.88534 0.83982 0.0
H952 H 0.19758 0.81968 0.86829 0.0
H953 H 0.23589 0.8744 0.93116 0.0
H954 H 0.22488 0.88468 0.90541 0.0
H955 H 0.25143 0.87147 0.90604 0.0
C956 C 0.20109 0.88748 0.8453 0.0
C957 C 0.22219 0.89297 0.83735 0.0
C958 C 0.19851 0.87064 0.86091 0.0
C959 C 0.21706 0.85932 0.86892 0.0
C960 C 0.23798 0.86412 0.86032 0.0
H961 H 0.23568 0.74567 0.95224 0.0
H962 H 0.23386 0.77226 0.92189 0.0
C963 C 0.24056 0.88091 0.84482 0.0
C964 C 0.21507 0.84383 0.88761 0.0
H965 H 0.23089 0.83687 0.94122 0.0
C966 C 0.20469 0.82342 0.8843 0.0
C967 C 0.2241 0.84901 0.9085 0.0
C968 C 0.23454 0.87115 0.91315 0.0
C969 C 0.20377 0.80766 0.9013 0.0
C970 C 0.21375 0.81247 0.92188 0.0
C971 C 0.22346 0.83318 0.92534 0.0
C972 C 0.21456 0.79622 0.94007 0.0
C973 C 0.19206 0.78608 0.89714 0.0
C974 C 0.20492 0.80123 0.96052 0.0
C975 C 0.20614 0.78621 0.97796 0.0
C976 C 0.21715 0.76596 0.97527 0.0
C977 C 0.22709 0.76113 0.95484 0.0
C978 C 0.22586 0.77618 0.93741 0.0
H979 H 0.18038 0.78733 0.88303 0.0
H980 H 0.20445 0.7732 0.89309 0.0
H981 H 0.18281 0.78064 0.91201 0.0
H982 H 0.1963 0.81672 0.96292 0.0
H983 H 0.19827 0.79042 0.99347 0.0
H984 H 0.75765 0.25019 0.5391 0.0
H985 H 0.75931 0.27728 0.56893 0.0
H986 H 0.79628 0.32142 0.52699 0.0
H987 H 0.79449 0.29454 0.4969 0.0
H988 H 0.79746 0.29577 0.58909 0.0
H989 H 0.74426 0.3592 0.54927 0.0
H990 H 0.74545 0.33102 0.53967 0.0
H991 H 0.76732 0.34993 0.53305 0.0
C992 C 0.76597 0.26573 0.53612 0.0
C993 C 0.77579 0.2703 0.51557 0.0
C994 C 0.767 0.28112 0.55322 0.0
C995 C 0.77778 0.30135 0.55006 0.0
C996 C 0.78763 0.30599 0.52961 0.0
H997 H 0.80908 0.3975 0.65367 0.0
H998 H 0.81276 0.36887 0.62508 0.0
C999 C 0.78659 0.29062 0.51246 0.0
C1000 C 0.7786 0.31756 0.56824 0.0
H1001 H 0.76042 0.36858 0.58344 0.0
C1002 C 0.78944 0.31174 0.5879 0.0
C1003 C 0.76799 0.33826 0.56655 0.0
C1004 C 0.75543 0.345 0.54609 0.0
C1005 C 0.78979 0.32609 0.60609 0.0
C1006 C 0.77919 0.34678 0.60437 0.0
C1007 C 0.76859 0.35268 0.58461 0.0
C1008 C 0.7777 0.3622 0.62319 0.0
C1009 C 0.80088 0.31881 0.62718 0.0
C1010 C 0.75685 0.36783 0.63148 0.0
C1011 C 0.75477 0.38413 0.64755 0.0
C1012 C 0.77353 0.39496 0.65583 0.0
C1013 C 0.79447 0.38901 0.64783 0.0
C1014 C 0.79656 0.37269 0.63162 0.0
H1015 H 0.80462 0.30085 0.62714 0.0
H1016 H 0.81664 0.32793 0.62917 0.0
H1017 H 0.79031 0.3226 0.64168 0.0
H1018 H 0.74209 0.36013 0.62494 0.0
H1019 H 0.73837 0.38907 0.6525 0.0
H1020 H 0.76067 0.60727 0.15449 0.0
H1021 H 0.75692 0.63735 0.12805 0.0
H1022 H 0.68661 0.6264 0.12537 0.0
H1023 H 0.69028 0.59655 0.15269 0.0
H1024 H 0.73994 0.62996 0.0855 0.0
H1025 H 0.69265 0.6946 0.1305 0.0
H1026 H 0.70738 0.6728 0.14458 0.0
H1027 H 0.68144 0.66711 0.13141 0.0
C1028 C 0.74429 0.61192 0.14913 0.0
C1029 C 0.72564 0.60009 0.1562 0.0
C1030 C 0.74221 0.62889 0.13374 0.0
C1031 C 0.72147 0.63424 0.12499 0.0
C1032 C 0.7027 0.62278 0.13228 0.0
H1033 H 0.70213 0.70402 0.00061 0.0
H1034 H 0.70149 0.67677 0.03045 0.0
C1035 C 0.70479 0.60576 0.14777 0.0
C1036 C 0.72003 0.65036 0.10675 0.0
H1037 H 0.69984 0.701 0.09259 0.0
C1038 C 0.73114 0.64549 0.087 0.0
C1039 C 0.70861 0.67058 0.1089 0.0
C1040 C 0.69695 0.67677 0.13002 0.0
C1041 C 0.73129 0.66039 0.06932 0.0
C1042 C 0.71975 0.68055 0.07138 0.0
C1043 C 0.70855 0.68543 0.0911 0.0
C1044 C 0.71976 0.69707 0.05346 0.0
C1045 C 0.74422 0.65472 0.04878 0.0
C1046 C 0.73003 0.71755 0.0567 0.0
C1047 C 0.73046 0.73313 0.03973 0.0
C1048 C 0.7205 0.72852 0.01925 0.0
C1049 C 0.71011 0.708 0.01612 0.0
C1050 C 0.70972 0.69241 0.03312 0.0
H1051 H 0.75588 0.64085 0.05163 0.0
H1052 H 0.7326 0.64976 0.0355 0.0
H1053 H 0.75371 0.66925 0.04284 0.0
H1054 H 0.73784 0.7214 0.07234 0.0
H1055 H 0.73845 0.74884 0.04273 0.0
H1056 H 0.34504 0.22822 0.10298 0.0
H1057 H 0.37116 0.23234 0.13333 0.0
H1058 H 0.37469 0.30236 0.12086 0.0
H1059 H 0.34774 0.29829 0.09069 0.0
H1060 H 0.41417 0.24908 0.12703 0.0
H1061 H 0.3668 0.29756 0.18909 0.0
H1062 H 0.35355 0.28239 0.16708 0.0
H1063 H 0.36692 0.30819 0.16133 0.0
C1064 C 0.35062 0.24461 0.10729 0.0
C1065 C 0.34382 0.26308 0.09503 0.0
C1066 C 0.3658 0.2469 0.12441 0.0
C1067 C 0.37459 0.26768 0.1295 0.0
C1068 C 0.36773 0.28625 0.11744 0.0
H1069 H 0.49585 0.2894 0.20321 0.0
H1070 H 0.46698 0.28889 0.17497 0.0
C1071 C 0.35247 0.28394 0.10024 0.0
C1072 C 0.39221 0.26939 0.14625 0.0
H1073 H 0.40438 0.29038 0.1971 0.0
C1074 C 0.41208 0.25814 0.14234 0.0
C1075 C 0.38927 0.28111 0.1662 0.0
C1076 C 0.36795 0.2929 0.17137 0.0
C1077 C 0.42915 0.25824 0.15794 0.0
C1078 C 0.42631 0.27011 0.17781 0.0
C1079 C 0.40645 0.28139 0.18175 0.0
C1080 C 0.44366 0.27059 0.19491 0.0
C1081 C 0.4499 0.24525 0.15328 0.0
C1082 C 0.43992 0.26066 0.21549 0.0
C1083 C 0.45636 0.26087 0.23165 0.0
C1084 C 0.47676 0.27117 0.2275 0.0
C1085 C 0.48038 0.28119 0.20686 0.0
C1086 C 0.46394 0.28092 0.1907 0.0
H1087 H 0.4476 0.23336 0.13951 0.0
H1088 H 0.46335 0.2568 0.14863 0.0
H1089 H 0.45528 0.23603 0.1682 0.0
H1090 H 0.42431 0.25264 0.21898 0.0
H1091 H 0.453 0.25315 0.24744 0.0
H1092 H 0.84168 0.25992 0.88356 0.0
H1093 H 0.86757 0.25712 0.85295 0.0
H1094 H 0.87111 0.18664 0.86229 0.0
H1095 H 0.84424 0.18933 0.8926 0.0
H1096 H 0.90994 0.24128 0.85964 0.0
H1097 H 0.86656 0.19328 0.79453 0.0
H1098 H 0.85208 0.20698 0.81673 0.0
H1099 H 0.86601 0.18129 0.8217 0.0
C1100 C 0.84701 0.2437 0.87841 0.0
C1101 C 0.84036 0.22472 0.88998 0.0
C1102 C 0.86212 0.24217 0.86113 0.0
C1103 C 0.87103 0.22166 0.8552 0.0
C1104 C 0.86405 0.20256 0.86631 0.0
H1105 H 0.99672 0.20219 0.78904 0.0
H1106 H 0.96615 0.20278 0.81545 0.0
C1107 C 0.84882 0.2041 0.88361 0.0
C1108 C 0.88936 0.22078 0.83911 0.0
H1109 H 0.90478 0.20011 0.78902 0.0
C1110 C 0.90881 0.23232 0.84417 0.0
C1111 C 0.88773 0.20915 0.81896 0.0
C1112 C 0.86693 0.1971 0.81248 0.0
C1113 C 0.92676 0.23252 0.8296 0.0
C1114 C 0.92531 0.22058 0.80962 0.0
C1115 C 0.90583 0.20912 0.80447 0.0
C1116 C 0.94375 0.22015 0.79369 0.0
C1117 C 0.947 0.24581 0.83551 0.0
C1118 C 0.94111 0.22952 0.77269 0.0
C1119 C 0.95851 0.22924 0.75757 0.0
C1120 C 0.97881 0.21943 0.76319 0.0
C1121 C 0.98136 0.21002 0.78427 0.0
C1122 C 0.96394 0.21035 0.79938 0.0
H1123 H 0.94355 0.25794 0.84884 0.0
H1124 H 0.96015 0.23449 0.84141 0.0
H1125 H 0.9534 0.25481 0.82086 0.0
H1126 H 0.9256 0.23713 0.76803 0.0
H1127 H 0.95595 0.23649 0.74141 0.0
H1128 H 0.50046 0.79561 0.29019 0.0
H1129 H 0.53157 0.79762 0.31575 0.0
H1130 H 0.57258 0.76308 0.26887 0.0
H1131 H 0.54161 0.76125 0.24298 0.0
H1132 H 0.55427 0.76278 0.33394 0.0
H1133 H 0.61055 0.81667 0.28567 0.0
H1134 H 0.58154 0.8139 0.27933 0.0
H1135 H 0.60076 0.79297 0.27079 0.0
C1136 C 0.51609 0.78844 0.28527 0.0
C1137 C 0.51855 0.77821 0.26457 0.0
C1138 C 0.53386 0.78968 0.29987 0.0
C1139 C 0.55444 0.78084 0.29402 0.0
C1140 C 0.55695 0.77045 0.27347 0.0
H1141 H 0.65564 0.7394 0.38335 0.0
H1142 H 0.62967 0.74335 0.35297 0.0
C1143 C 0.53917 0.7692 0.25882 0.0
C1144 C 0.57286 0.78138 0.31001 0.0
H1145 H 0.62591 0.79906 0.31749 0.0
C1146 C 0.56988 0.77081 0.33039 0.0
C1147 C 0.59308 0.79215 0.3054 0.0
C1148 C 0.59668 0.80476 0.2842 0.0
C1149 C 0.58679 0.77022 0.34614 0.0
C1150 C 0.60734 0.78013 0.34117 0.0
C1151 C 0.61019 0.79125 0.32105 0.0
C1152 C 0.626 0.77864 0.35676 0.0
C1153 C 0.58251 0.75903 0.36801 0.0
C1154 C 0.63329 0.79738 0.36824 0.0
C1155 C 0.64862 0.79521 0.38539 0.0
C1156 C 0.65699 0.77434 0.39109 0.0
C1157 C 0.65033 0.7558 0.37882 0.0
C1158 C 0.63514 0.75798 0.36168 0.0
H1159 H 0.56456 0.75707 0.37128 0.0
H1160 H 0.59008 0.74235 0.36783 0.0
H1161 H 0.58999 0.76851 0.38181 0.0
H1162 H 0.62631 0.81346 0.36467 0.0
H1163 H 0.65331 0.80965 0.39482 0.0
H1164 H 0.15434 0.76778 0.60889 0.0
H1165 H 0.12907 0.76551 0.64015 0.0
H1166 H 0.12187 0.69552 0.62935 0.0
H1167 H 0.14796 0.69768 0.59831 0.0
H1168 H 0.08554 0.7514 0.6349 0.0
H1169 H 0.13 0.70056 0.69709 0.0
H1170 H 0.14398 0.71438 0.67463 0.0
H1171 H 0.12912 0.68921 0.66967 0.0
C1172 C 0.14821 0.75176 0.61378 0.0
C1173 C 0.15364 0.73275 0.60165 0.0
C1174 C 0.13351 0.75053 0.63144 0.0
C1175 C 0.12387 0.73031 0.63723 0.0
C1176 C 0.12953 0.71119 0.62543 0.0
H1177 H 0.00079 0.70959 0.70628 0.0
H1178 H 0.0308 0.71144 0.67933 0.0
C1179 C 0.14429 0.71243 0.60771 0.0
C1180 C 0.10626 0.72978 0.6541 0.0
H1181 H 0.09212 0.70808 0.70416 0.0
C1182 C 0.08699 0.74201 0.65009 0.0
C1183 C 0.10834 0.7176 0.6739 0.0
C1184 C 0.12903 0.70481 0.67926 0.0
C1185 C 0.06957 0.74218 0.66529 0.0
C1186 C 0.07141 0.7296 0.68484 0.0
C1187 C 0.09079 0.7176 0.68904 0.0
C1188 C 0.05329 0.72865 0.7011 0.0
C1189 C 0.04939 0.75599 0.66044 0.0
C1190 C 0.05616 0.73758 0.72225 0.0
C1191 C 0.03905 0.73662 0.73768 0.0
C1192 C 0.01886 0.72653 0.73221 0.0
C1193 C 0.01609 0.71759 0.71096 0.0
C1194 C 0.03318 0.71864 0.69554 0.0
H1195 H 0.05259 0.7684 0.6473 0.0
H1196 H 0.03583 0.74506 0.65476 0.0
H1197 H 0.04369 0.76469 0.67554 0.0
H1198 H 0.07164 0.74533 0.7268 0.0
H1199 H 0.04176 0.74351 0.75397 0.0
H1200 H 0.9223 0.62146 0.73778 0.0
H1201 H 0.89187 0.59492 0.73562 0.0
H1202 H 0.84898 0.64609 0.71073 0.0
H1203 H 0.87979 0.67261 0.71246 0.0
H1204 H 0.85092 0.59943 0.75843 0.0
H1205 H 0.84067 0.59351 0.66722 0.0
H1206 H 0.86541 0.60434 0.67986 0.0
H1207 H 0.84083 0.62084 0.67884 0.0
C1208 C 0.90643 0.62688 0.73158 0.0
C1209 C 0.90316 0.64896 0.72543 0.0
C1210 C 0.88909 0.61182 0.73046 0.0
C1211 C 0.86826 0.61858 0.72298 0.0
C1212 C 0.86502 0.64057 0.71637 0.0
H1213 H 0.74855 0.54046 0.74226 0.0
H1214 H 0.77582 0.57024 0.74253 0.0
C1215 C 0.88246 0.65568 0.71752 0.0
C1216 C 0.84986 0.6026 0.72302 0.0
H1217 H 0.81602 0.57285 0.68924 0.0
C1218 C 0.84316 0.59369 0.74334 0.0
C1219 C 0.84 0.59512 0.70325 0.0
C1220 C 0.84712 0.60377 0.68099 0.0
C1221 C 0.82697 0.5772 0.74442 0.0
C1222 C 0.8171 0.56969 0.72466 0.0
C1223 C 0.82362 0.57878 0.70434 0.0
C1224 C 0.80061 0.55176 0.72466 0.0
C1225 C 0.82103 0.56747 0.7666 0.0
C1226 C 0.80552 0.53165 0.71432 0.0
C1227 C 0.79002 0.51461 0.71412 0.0
C1228 C 0.76929 0.51747 0.72416 0.0
C1229 C 0.76444 0.53767 0.73454 0.0
C1230 C 0.77998 0.55469 0.73474 0.0
H1231 H 0.83332 0.5718 0.77952 0.0
H1232 H 0.80472 0.57393 0.77186 0.0
H1233 H 0.8198 0.54921 0.76555 0.0
H1234 H 0.82139 0.52913 0.70645 0.0
H1235 H 0.79422 0.4993 0.70589 0.0
H1236 H 0.6176 0.32109 0.21409 0.0
H1237 H 0.64888 0.34713 0.21287 0.0
H1238 H 0.60632 0.39905 0.23666 0.0
H1239 H 0.5754 0.37302 0.23825 0.0
H1240 H 0.65228 0.389 0.18981 0.0
H1241 H 0.6588 0.39771 0.28082 0.0
H1242 H 0.64423 0.37518 0.2678 0.0
H1243 H 0.63139 0.40182 0.27025 0.0
C1244 C 0.61514 0.33805 0.21915 0.0
C1245 C 0.59439 0.34514 0.22658 0.0
C1246 C 0.63285 0.35286 0.21835 0.0
C1247 C 0.6299 0.37484 0.22507 0.0
C1248 C 0.60897 0.38204 0.23181 0.0
H1249 H 0.70369 0.49398 0.20427 0.0
H1250 H 0.677 0.46368 0.20426 0.0
C1251 C 0.59135 0.36729 0.23256 0.0
C1252 C 0.64857 0.39048 0.22515 0.0
H1253 H 0.67786 0.42451 0.25912 0.0
C1254 C 0.65808 0.39663 0.20494 0.0
C1255 C 0.65621 0.40012 0.24498 0.0
C1256 C 0.6473 0.39325 0.26723 0.0
C1257 C 0.67452 0.41292 0.20398 0.0
C1258 C 0.68129 0.42341 0.22372 0.0
C1259 C 0.67239 0.4166 0.244 0.0
C1260 C 0.69739 0.44171 0.22372 0.0
C1261 C 0.68449 0.41876 0.1819 0.0
C1262 C 0.71735 0.43957 0.23525 0.0
C1263 C 0.73253 0.45688 0.23546 0.0
C1264 C 0.72794 0.47669 0.22423 0.0
C1265 C 0.70773 0.47892 0.21304 0.0
C1266 C 0.69255 0.46157 0.21284 0.0
H1267 H 0.68191 0.40544 0.16956 0.0
H1268 H 0.67652 0.43398 0.17553 0.0
H1269 H 0.70248 0.42197 0.18346 0.0
H1270 H 0.72126 0.42439 0.24389 0.0
H1271 H 0.74797 0.45461 0.24421 0.0
H1272 H 0.38276 0.83882 0.23977 0.0
H1273 H 0.35313 0.86551 0.24424 0.0
H1274 H 0.36739 0.86997 0.31387 0.0
H1275 H 0.39678 0.84225 0.30958 0.0
H1276 H 0.31984 0.8712 0.3011 0.0
H1277 H 0.37338 0.93041 0.25594 0.0
H1278 H 0.36899 0.9047 0.24183 0.0
H1279 H 0.38374 0.905 0.26759 0.0
C1280 C 0.37894 0.84454 0.25622 0.0
C1281 C 0.39172 0.83799 0.27446 0.0
C1282 C 0.36223 0.86013 0.25868 0.0
C1283 C 0.35829 0.86979 0.27932 0.0
C1284 C 0.37024 0.86261 0.29782 0.0
H1285 H 0.29225 0.99628 0.29415 0.0
H1286 H 0.31829 0.96555 0.29652 0.0
C1287 C 0.38694 0.84686 0.29537 0.0
C1288 C 0.3432 0.88882 0.28092 0.0
H1289 H 0.33623 0.94138 0.26201 0.0
C1290 C 0.32341 0.88662 0.29272 0.0
C1291 C 0.34822 0.90898 0.27027 0.0
C1292 C 0.36982 0.91258 0.25836 0.0
C1293 C 0.30803 0.90394 0.29344 0.0
C1294 C 0.31257 0.92368 0.2818 0.0
C1295 C 0.33272 0.9261 0.27069 0.0
C1296 C 0.29659 0.94203 0.28066 0.0
C1297 C 0.28713 0.90106 0.30671 0.0
C1298 C 0.276 0.93902 0.27051 0.0
C1299 C 0.26112 0.95655 0.269 0.0
C1300 C 0.26667 0.97741 0.27755 0.0
C1301 C 0.2875 0.98044 0.28735 0.0
C1302 C 0.30236 0.9629 0.28882 0.0
H1303 H 0.2888 0.88769 0.31917 0.0
H1304 H 0.28261 0.9166 0.31531 0.0
H1305 H 0.2734 0.89661 0.29542 0.0
H1306 H 0.27148 0.92314 0.26366 0.0
H1307 H 0.24519 0.95368 0.2614 0.0
H1308 H 0.25848 0.04447 0.77362 0.0
H1309 H 0.23331 0.07579 0.77632 0.0
H1310 H 0.17795 0.03105 0.78001 0.0
H1311 H 0.20324 -0.00041 0.77855 0.0
H1312 H 0.2029 0.0899 0.75096 0.0
H1313 H 0.16366 0.06991 0.83073 0.0
H1314 H 0.18773 0.05544 0.82085 0.0
H1315 H 0.1605 0.04735 0.81189 0.0
C1316 C 0.24093 0.0413 0.77502 0.0
C1317 C 0.23278 0.01961 0.77592 0.0
C1318 C 0.22658 0.05923 0.77665 0.0
C1319 C 0.20377 0.05581 0.77891 0.0
C1320 C 0.19554 0.03412 0.7791 0.0
H1321 H 0.1008 0.141 0.73742 0.0
H1322 H 0.13213 0.11598 0.74165 0.0
C1323 C 0.20995 0.01616 0.77797 0.0
C1324 C 0.18853 0.07494 0.77994 0.0
H1325 H 0.14357 0.09515 0.80719 0.0
C1326 C 0.19015 0.09119 0.76348 0.0
C1327 C 0.1723 0.07711 0.79663 0.0
C1328 C 0.17113 0.06164 0.81615 0.0
C1329 C 0.17526 0.10886 0.76256 0.0
C1330 C 0.15767 0.10976 0.77793 0.0
C1331 C 0.15679 0.09424 0.79513 0.0
C1332 C 0.13917 0.12556 0.77542 0.0
C1333 C 0.17861 0.12632 0.74508 0.0
C1334 C 0.13207 0.13863 0.79327 0.0
C1335 C 0.11378 0.15257 0.79094 0.0
C1336 C 0.10266 0.15377 0.77069 0.0
C1337 C 0.10966 0.14068 0.75295 0.0
C1338 C 0.12759 0.12653 0.75536 0.0
H1339 H 0.19639 0.12816 0.74094 0.0
H1340 H 0.1699 0.1213 0.72975 0.0
H1341 H 0.17216 0.14261 0.75046 0.0
H1342 H 0.14058 0.13792 0.809 0.0
H1343 H 0.1083 0.16241 0.80482 0.0
H1344 H 0.68801 0.89305 0.66137 0.0
H1345 H 0.68432 0.86189 0.6354 0.0
H1346 H 0.75209 0.87113 0.61522 0.0
H1347 H 0.75583 0.90134 0.64168 0.0
H1348 H 0.68738 0.8604 0.59226 0.0
H1349 H 0.75246 0.8065 0.62611 0.0
H1350 H 0.7425 0.83038 0.64082 0.0
H1351 H 0.76365 0.83317 0.62002 0.0
C1352 C 0.70207 0.888 0.65155 0.0
C1353 C 0.72231 0.89899 0.65368 0.0
C1354 C 0.70001 0.87036 0.63676 0.0
C1355 C 0.71813 0.86378 0.62379 0.0
C1356 C 0.73816 0.87528 0.62563 0.0
H1357 H 0.71561 0.79776 0.49757 0.0
H1358 H 0.71449 0.82411 0.52821 0.0
C1359 C 0.74029 0.89256 0.64061 0.0
C1360 C 0.71602 0.84571 0.60745 0.0
H1361 H 0.74258 0.80009 0.588 0.0
C1362 C 0.69923 0.84699 0.59152 0.0
C1363 C 0.73117 0.82795 0.60674 0.0
C1364 C 0.74827 0.82429 0.62452 0.0
C1365 C 0.69778 0.83154 0.57432 0.0
C1366 C 0.7141 0.81489 0.57255 0.0
C1367 C 0.73031 0.81309 0.58905 0.0
C1368 C 0.71479 0.7991 0.55384 0.0
C1369 C 0.67863 0.83314 0.55845 0.0
C1370 C 0.7164 0.77637 0.55801 0.0
C1371 C 0.71786 0.76141 0.54058 0.0
C1372 C 0.71739 0.76887 0.5186 0.0
C1373 C 0.71584 0.7916 0.51437 0.0
C1374 C 0.71492 0.80662 0.53187 0.0
H1375 H 0.66415 0.84124 0.5663 0.0
H1376 H 0.68355 0.84336 0.54405 0.0
H1377 H 0.67349 0.81662 0.55242 0.0
H1378 H 0.71642 0.77015 0.57479 0.0
H1379 H 0.71886 0.74396 0.54433 0.0
H1380 H 0.7967 0.19991 0.99733 0.0
H1381 H 0.79768 0.17215 0.02671 0.0
H1382 H 0.76238 0.21632 0.06996 0.0
H1383 H 0.76146 0.24425 0.04086 0.0
H1384 H 0.80029 0.19568 0.08932 0.0
H1385 H 0.7439 0.13592 0.04825 0.0
H1386 H 0.76713 0.14492 0.0321 0.0
H1387 H 0.74606 0.16436 0.03963 0.0
C1388 C 0.78901 0.20367 0.01304 0.0
C1389 C 0.77886 0.22422 0.01672 0.0
C1390 C 0.7896 0.1878 0.02978 0.0
C1391 C 0.77997 0.19219 0.05038 0.0
C1392 C 0.76989 0.21267 0.05413 0.0
H1393 H 0.73716 0.10439 0.15159 0.0
H1394 H 0.7421 0.1337 0.12451 0.0
C1395 C 0.76929 0.22854 0.03744 0.0
C1396 C 0.78021 0.17543 0.06809 0.0
H1397 H 0.75954 0.12502 0.0822 0.0
C1398 C 0.79148 0.18017 0.0878 0.0
C1399 C 0.76856 0.15534 0.06598 0.0
C1400 C 0.75556 0.1498 0.04545 0.0
C1401 C 0.79125 0.16533 0.10561 0.0
C1402 C 0.77958 0.14526 0.10347 0.0
C1403 C 0.76854 0.14044 0.08368 0.0
C1404 C 0.77747 0.12945 0.12192 0.0
C1405 C 0.80289 0.17144 0.12677 0.0
C1406 C 0.79581 0.1176 0.12969 0.0
C1407 C 0.79304 0.10104 0.14557 0.0
C1408 C 0.77194 0.09623 0.15392 0.0
C1409 C 0.75373 0.10841 0.14632 0.0
C1410 C 0.75649 0.12492 0.13055 0.0
H1411 H 0.80775 0.18912 0.12708 0.0
H1412 H 0.79217 0.16799 0.14125 0.0
H1413 H 0.81805 0.16129 0.12848 0.0
H1414 H 0.81208 0.1206 0.1229 0.0
H1415 H 0.80721 0.09152 0.15089 0.0
H1416 H 0.23855 0.74738 0.45341 0.0
H1417 H 0.23636 0.71981 0.42408 0.0
H1418 H 0.19678 0.67803 0.46604 0.0
H1419 H 0.19903 0.70542 0.49565 0.0
H1420 H 0.23167 0.65623 0.44553 0.0
H1421 H 0.18295 0.70471 0.38497 0.0
H1422 H 0.20694 0.71893 0.39505 0.0
H1423 H 0.18491 0.71219 0.41379 0.0
C1424 C 0.22939 0.73232 0.45644 0.0
C1425 C 0.21898 0.72856 0.47687 0.0
C1426 C 0.22797 0.7167 0.43958 0.0
C1427 C 0.21604 0.69713 0.44279 0.0
C1428 C 0.20587 0.69317 0.46322 0.0
H1429 H 0.19093 0.59597 0.34241 0.0
H1430 H 0.18553 0.62512 0.37022 0.0
C1431 C 0.20725 0.70879 0.48012 0.0
C1432 C 0.21521 0.6803 0.42517 0.0
H1433 H 0.20071 0.67213 0.37127 0.0
C1434 C 0.2247 0.65962 0.42937 0.0
C1435 C 0.20584 0.68472 0.40422 0.0
C1436 C 0.19438 0.70626 0.39924 0.0
C1437 C 0.22587 0.64349 0.41286 0.0
C1438 C 0.21758 0.64833 0.39158 0.0
C1439 C 0.20727 0.66865 0.38758 0.0
C1440 C 0.22032 0.63264 0.37316 0.0
C1441 C 0.23617 0.62144 0.41823 0.0
C1442 C 0.24154 0.62781 0.36534 0.0
C1443 C 0.2446 0.61133 0.34959 0.0
C1444 C 0.22644 0.59962 0.34117 0.0
C1445 C 0.2051 0.60501 0.34849 0.0
C1446 C 0.20203 0.62156 0.3643 0.0
H1447 H 0.2368 0.61844 0.43633 0.0
H1448 H 0.22685 0.60778 0.41031 0.0
H1449 H 0.25333 0.62108 0.41181 0.0
H1450 H 0.25583 0.63625 0.37202 0.0
H1451 H 0.26127 0.60696 0.34495 0.0
H1452 H 0.25139 0.24036 0.9524 0.0
H1453 H 0.25232 0.26628 0.92149 0.0
H1454 H 0.29307 0.3105 0.95963 0.0
H1455 H 0.29251 0.28456 0.99057 0.0
H1456 H 0.23767 0.30911 0.92061 0.0
H1457 H 0.32706 0.30528 0.90141 0.0
H1458 H 0.31339 0.28505 0.91855 0.0
H1459 H 0.32156 0.31122 0.92993 0.0
C1460 C 0.26054 0.25561 0.95425 0.0
C1461 C 0.27187 0.26044 0.97395 0.0
C1462 C 0.26112 0.27034 0.93653 0.0
C1463 C 0.27311 0.29005 0.93815 0.0
C1464 C 0.28417 0.29509 0.95788 0.0
H1465 H 0.25777 0.41291 0.87332 0.0
H1466 H 0.25982 0.38083 0.89785 0.0
C1467 C 0.28363 0.28037 0.97562 0.0
C1468 C 0.27309 0.30595 0.91965 0.0
H1469 H 0.30696 0.33574 0.88583 0.0
C1470 C 0.25279 0.31474 0.91281 0.0
C1471 C 0.29281 0.31292 0.90925 0.0
C1472 C 0.31492 0.30297 0.91498 0.0
C1473 C 0.25177 0.33117 0.89658 0.0
C1474 C 0.2716 0.33921 0.88726 0.0
C1475 C 0.29182 0.32966 0.89325 0.0
C1476 C 0.27162 0.35858 0.8725 0.0
C1477 C 0.2295 0.34005 0.88978 0.0
C1478 C 0.27834 0.35677 0.85038 0.0
C1479 C 0.27728 0.37515 0.83641 0.0
C1480 C 0.26959 0.39543 0.8445 0.0
C1481 C 0.26366 0.39733 0.86681 0.0
C1482 C 0.26468 0.37906 0.88071 0.0
H1483 H 0.21604 0.32819 0.89363 0.0
H1484 H 0.22615 0.35554 0.89895 0.0
H1485 H 0.2291 0.34382 0.87182 0.0
H1486 H 0.28398 0.34109 0.84388 0.0
H1487 H 0.28232 0.37357 0.81932 0.0
H1488 H 0.50059 0.69631 0.79099 0.0
H1489 H 0.53067 0.69631 0.81791 0.0
H1490 H 0.56825 0.74012 0.77619 0.0
H1491 H 0.53835 0.74013 0.74904 0.0
H1492 H 0.59238 0.70287 0.79319 0.0
H1493 H 0.5468 0.74894 0.85832 0.0
H1494 H 0.53299 0.72496 0.84762 0.0
H1495 H 0.53779 0.74826 0.8299 0.0
C1496 C 0.51518 0.70608 0.78758 0.0
C1497 C 0.51704 0.71833 0.76793 0.0
C1498 C 0.53233 0.70604 0.80298 0.0
C1499 C 0.55153 0.71835 0.79905 0.0
C1500 C 0.5535 0.73053 0.77946 0.0
H1501 H 0.65112 0.76132 0.88916 0.0
H1502 H 0.62472 0.75707 0.85904 0.0
C1503 C 0.53638 0.73058 0.76403 0.0
C1504 C 0.56955 0.71866 0.81544 0.0
H1505 H 0.58218 0.73545 0.86768 0.0
C1506 C 0.5902 0.70994 0.80951 0.0
C1507 C 0.56656 0.72802 0.83661 0.0
C1508 C 0.54492 0.73826 0.84352 0.0
C1509 C 0.60802 0.71033 0.82432 0.0
C1510 C 0.60496 0.71961 0.84548 0.0
C1511 C 0.58432 0.72826 0.85141 0.0
C1512 C 0.62316 0.7215 0.86152 0.0
C1513 C 0.63011 0.70132 0.8172 0.0
C1514 C 0.6312 0.70282 0.87261 0.0
C1515 C 0.64653 0.70522 0.88973 0.0
C1516 C 0.65409 0.72628 0.89576 0.0
C1517 C 0.64633 0.74485 0.88424 0.0
C1518 C 0.63103 0.74247 0.86724 0.0
H1519 H 0.6305 0.69732 0.79929 0.0
H1520 H 0.64338 0.71343 0.82086 0.0
H1521 H 0.63376 0.68605 0.82665 0.0
H1522 H 0.62499 0.68654 0.86862 0.0
H1523 H 0.65204 0.69077 0.8987 0.0
H1524 H 0.03955 0.75726 0.24872 0.0
H1525 H 0.06943 0.7586 0.22161 0.0
H1526 H 0.02723 0.79403 0.17647 0.0
H1527 H 0.99712 0.79259 0.20335 0.0
H1528 H 0.04991 0.75908 0.15714 0.0
H1529 H 0.10652 0.81302 0.20492 0.0
H1530 H 0.09712 0.78916 0.21982 0.0
H1531 H 0.07762 0.81 0.21167 0.0
C1532 C 0.03657 0.76526 0.23299 0.0
C1533 C 0.01596 0.77483 0.22818 0.0
C1534 C 0.05374 0.7662 0.21763 0.0
C1535 C 0.05063 0.77681 0.19727 0.0
C1536 C 0.02997 0.78595 0.19221 0.0
H1537 H 0.14954 0.80619 0.09632 0.0
H1538 H 0.12183 0.8099 0.12585 0.0
C1539 C 0.01278 0.78504 0.20755 0.0
C1540 C 0.06871 0.77766 0.18091 0.0
H1541 H 0.12161 0.79553 0.17295 0.0
C1542 C 0.06553 0.76717 0.16053 0.0
C1543 C 0.08893 0.7885 0.18533 0.0
C1544 C 0.09275 0.801 0.20653 0.0
C1545 C 0.08232 0.76664 0.14464 0.0
C1546 C 0.10288 0.7766 0.14943 0.0
C1547 C 0.10587 0.78771 0.16951 0.0
C1548 C 0.12151 0.77508 0.13382 0.0
C1549 C 0.07795 0.7554 0.12282 0.0
C1550 C 0.13084 0.75446 0.12914 0.0
C1551 C 0.1465 0.75236 0.11241 0.0
C1552 C 0.15338 0.77092 0.10031 0.0
C1553 C 0.14468 0.79174 0.10566 0.0
C1554 C 0.12893 0.79384 0.12243 0.0
H1555 H 0.05999 0.75334 0.11969 0.0
H1556 H 0.08529 0.7649 0.10896 0.0
H1557 H 0.08562 0.73876 0.12299 0.0
H1558 H 0.1253 0.73982 0.1378 0.0
H1559 H 0.15213 0.736 0.1081 0.0
H1560 H 0.4539 0.23778 0.74815 0.0
H1561 H 0.42497 0.23612 0.72003 0.0
H1562 H 0.46899 0.20094 0.6765 0.0
H1563 H 0.49815 0.20274 0.70437 0.0
H1564 H 0.44752 0.23594 0.65641 0.0
H1565 H 0.38818 0.18239 0.70119 0.0
H1566 H 0.39699 0.20607 0.7167 0.0
H1567 H 0.41672 0.18514 0.70938 0.0
C1568 C 0.45745 0.22971 0.73258 0.0
C1569 C 0.47833 0.22042 0.72847 0.0
C1570 C 0.44083 0.22858 0.71664 0.0
C1571 C 0.44475 0.21804 0.69639 0.0
C1572 C 0.46562 0.20897 0.69212 0.0
H1573 H 0.34827 0.19197 0.59179 0.0
H1574 H 0.3756 0.1871 0.62154 0.0
C1575 C 0.48226 0.21008 0.70804 0.0
C1576 C 0.42743 0.21747 0.67921 0.0
H1577 H 0.3746 0.20063 0.66888 0.0
C1578 C 0.43164 0.22807 0.65906 0.0
C1579 C 0.40686 0.20692 0.68266 0.0
C1580 C 0.40193 0.19429 0.70357 0.0
C1581 C 0.41555 0.22906 0.64249 0.0
C1582 C 0.39463 0.21946 0.64634 0.0
C1583 C 0.39062 0.20817 0.66616 0.0
C1584 C 0.37658 0.22174 0.63013 0.0
C1585 C 0.421 0.24048 0.621 0.0
C1586 C 0.36784 0.24267 0.62564 0.0
C1587 C 0.35239 0.24542 0.60882 0.0
C1588 C 0.34515 0.22722 0.59641 0.0
C1589 C 0.35343 0.20614 0.60137 0.0
C1590 C 0.36895 0.20338 0.61827 0.0
H1591 H 0.43911 0.24214 0.61857 0.0
H1592 H 0.41395 0.23135 0.60675 0.0
H1593 H 0.41373 0.2573 0.6211 0.0
H1594 H 0.37355 0.25702 0.63467 0.0
H1595 H 0.34703 0.26196 0.60479 0.0
H1596 H 0.83769 0.23698 0.38148 0.0
H1597 H 0.86457 0.23995 0.35178 0.0
H1598 H 0.869 0.31015 0.36251 0.0
H1599 H 0.84113 0.30736 0.39193 0.0
H1600 H 0.87079 0.29557 0.31597 0.0
H1601 H 0.92926 0.25208 0.37174 0.0
H1602 H 0.90359 0.23789 0.36734 0.0
H1603 H 0.90372 0.26401 0.3814 0.0
C1604 C 0.84345 0.25321 0.37685 0.0
C1605 C 0.83687 0.27206 0.38868 0.0
C1606 C 0.85915 0.25482 0.36011 0.0
C1607 C 0.86888 0.27521 0.35519 0.0
C1608 C 0.86161 0.29427 0.36612 0.0
H1609 H 0.99643 0.29165 0.29216 0.0
H1610 H 0.96487 0.2929 0.3173 0.0
C1611 C 0.84576 0.29268 0.38285 0.0
C1612 C 0.88807 0.27613 0.3402 0.0
H1613 H 0.94103 0.25773 0.33482 0.0
C1614 C 0.88619 0.28739 0.32005 0.0
C1615 C 0.90822 0.26575 0.34586 0.0
C1616 C 0.91149 0.25442 0.36784 0.0
C1617 C 0.90387 0.288 0.30505 0.0
C1618 C 0.92368 0.27681 0.31035 0.0
C1619 C 0.92571 0.26607 0.33075 0.0
C1620 C 0.94262 0.27603 0.29501 0.0
C1621 C 0.90131 0.30079 0.2838 0.0
C1622 C 0.94062 0.26566 0.27441 0.0
C1623 C 0.95863 0.26481 0.26004 0.0
C1624 C 0.97896 0.27425 0.26612 0.0
C1625 C 0.98101 0.28419 0.287 0.0
C1626 C 0.963 0.28501 0.30135 0.0
H1627 H 0.88751 0.31284 0.28474 0.0
H1628 H 0.91674 0.30979 0.27966 0.0
H1629 H 0.89771 0.28912 0.27014 0.0
H1630 H 0.92514 0.25821 0.26946 0.0
H1631 H 0.95651 0.25705 0.24407 0.0
H1632 H 0.19 0.10174 0.30525 0.0
H1633 H 0.16407 0.13209 0.29921 0.0
H1634 H 0.12023 0.08794 0.2646 0.0
H1635 H 0.14578 0.05752 0.27085 0.0
H1636 H 0.15308 0.14655 0.25759 0.0
H1637 H 0.07742 0.12226 0.30317 0.0
H1638 H 0.10396 0.10965 0.30827 0.0
H1639 H 0.08759 0.10119 0.28498 0.0
C1640 C 0.17464 0.09837 0.29681 0.0
C1641 C 0.17006 0.07723 0.28843 0.0
C1642 C 0.15984 0.11573 0.29334 0.0
C1643 C 0.14016 0.11222 0.2816 0.0
C1644 C 0.1351 0.09094 0.27408 0.0
H1645 H 0.04522 0.20079 0.21893 0.0
H1646 H 0.06627 0.16818 0.23082 0.0
C1647 C 0.14984 0.07358 0.27756 0.0
C1648 C 0.12617 0.13116 0.27506 0.0
H1649 H 0.07367 0.15169 0.27715 0.0
C1650 C 0.13576 0.14776 0.26204 0.0
C1651 C 0.10352 0.13254 0.28064 0.0
C1652 C 0.09254 0.11556 0.2952 0.0
C1653 C 0.12329 0.16562 0.25428 0.0
C1654 C 0.1007 0.16703 0.2599 0.0
C1655 C 0.091 0.15042 0.27281 0.0
C1656 C 0.08726 0.18628 0.25335 0.0
C1657 C 0.1343 0.18276 0.2399 0.0
C1658 C 0.09197 0.20702 0.26237 0.0
C1659 C 0.08009 0.22553 0.25568 0.0
C1660 C 0.06318 0.22368 0.23983 0.0
C1661 C 0.05819 0.20276 0.23109 0.0
C1662 C 0.07012 0.18415 0.23789 0.0
H1663 H 0.15018 0.17671 0.23298 0.0
H1664 H 0.12332 0.18768 0.22606 0.0
H1665 H 0.13779 0.19768 0.24994 0.0
H1666 H 0.10499 0.2089 0.2745 0.0
H1667 H 0.08433 0.24135 0.26284 0.0
H1668 H 0.3493 0.93428 0.76514 0.0
H1669 H 0.37427 0.90309 0.76052 0.0
H1670 H 0.33314 0.86357 0.80317 0.0
H1671 H 0.30783 0.89476 0.80778 0.0
H1672 H 0.3984 0.87654 0.78943 0.0
H1673 H 0.33364 0.82886 0.74511 0.0
H1674 H 0.33078 0.85787 0.75115 0.0
H1675 H 0.32619 0.83768 0.77243 0.0
C1676 C 0.34563 0.91906 0.77379 0.0
C1677 C 0.32628 0.91685 0.78647 0.0
C1678 C 0.35997 0.90125 0.77112 0.0
C1679 C 0.35527 0.88092 0.7811 0.0
C1680 C 0.33674 0.87901 0.7949 0.0
H1681 H 0.4146 0.75206 0.76513 0.0
H1682 H 0.39375 0.78397 0.77796 0.0
C1683 C 0.3223 0.89684 0.79752 0.0
C1684 C 0.36915 0.86151 0.7759 0.0
H1685 H 0.36789 0.81124 0.75055 0.0
C1686 C 0.39176 0.86221 0.78099 0.0
C1687 C 0.36042 0.84297 0.76472 0.0
C1688 C 0.33648 0.84177 0.75782 0.0
C1689 C 0.40587 0.84471 0.77535 0.0
C1690 C 0.39711 0.82624 0.76411 0.0
C1691 C 0.3745 0.82546 0.7592 0.0
C1692 C 0.41101 0.80739 0.75726 0.0
C1693 C 0.42993 0.84597 0.78163 0.0
C1694 C 0.42765 0.81004 0.74132 0.0
C1695 C 0.43965 0.79176 0.73385 0.0
C1696 C 0.43509 0.77058 0.74218 0.0
C1697 C 0.41856 0.76812 0.75834 0.0
C1698 C 0.40661 0.78634 0.76574 0.0
H1699 H 0.43297 0.8587 0.79448 0.0
H1700 H 0.4359 0.82978 0.78783 0.0
H1701 H 0.4398 0.85035 0.76682 0.0
H1702 H 0.43099 0.82614 0.73429 0.0
H1703 H 0.45222 0.79418 0.72136 0.0
H1704 H 0.69325 0.3923 0.70579 0.0
H1705 H 0.66567 0.36342 0.71145 0.0
H1706 H 0.6163 0.41288 0.72486 0.0
H1707 H 0.6438 0.44195 0.71914 0.0
H1708 H 0.64129 0.36133 0.75454 0.0
H1709 H 0.58724 0.36672 0.68025 0.0
H1710 H 0.61567 0.37581 0.67997 0.0
H1711 H 0.59508 0.3921 0.69363 0.0
C1712 C 0.67644 0.3971 0.7093 0.0
C1713 C 0.67073 0.41943 0.71192 0.0
C1714 C 0.66072 0.38057 0.71268 0.0
C1715 C 0.63899 0.38609 0.71846 0.0
C1716 C 0.63296 0.40835 0.72018 0.0
H1717 H 0.54284 0.29879 0.78193 0.0
H1718 H 0.56377 0.33165 0.77069 0.0
C1719 C 0.64871 0.4249 0.71697 0.0
C1720 C 0.62327 0.36855 0.72475 0.0
H1721 H 0.57677 0.34141 0.70809 0.0
C1722 C 0.62712 0.357 0.74446 0.0
C1723 C 0.60487 0.36309 0.71151 0.0
C1724 C 0.60038 0.37493 0.69007 0.0
C1725 C 0.61306 0.33992 0.75125 0.0
C1726 C 0.5947 0.33437 0.73798 0.0
C1727 C 0.59077 0.34595 0.71829 0.0
C1728 C 0.58046 0.31541 0.74361 0.0
C1729 C 0.61817 0.32752 0.77226 0.0
C1730 C 0.58271 0.29567 0.73181 0.0
C1731 C 0.57099 0.27693 0.73824 0.0
C1732 C 0.55663 0.27766 0.7565 0.0
C1733 C 0.55377 0.29772 0.76781 0.0
C1734 C 0.5657 0.31647 0.76144 0.0
H1735 H 0.63442 0.33226 0.77934 0.0
H1736 H 0.60518 0.33103 0.78471 0.0
H1737 H 0.61814 0.30946 0.76913 0.0
H1738 H 0.59408 0.2946 0.71802 0.0
H1739 H 0.57348 0.26177 0.7291 0.0
H1740 H 0.80973 0.59775 0.19356 0.0
H1741 H 0.83614 0.62777 0.19925 0.0
H1742 H 0.87541 0.58548 0.24099 0.0
H1743 H 0.84926 0.55545 0.23537 0.0
H1744 H 0.84472 0.64519 0.24094 0.0
H1745 H 0.92212 0.61499 0.20228 0.0
H1746 H 0.89543 0.60318 0.19615 0.0
H1747 H 0.90967 0.59578 0.22114 0.0
C1748 C 0.82412 0.59473 0.20369 0.0
C1749 C 0.8272 0.57428 0.21421 0.0
C1750 C 0.83924 0.61188 0.20687 0.0
C1751 C 0.8578 0.60879 0.22042 0.0
C1752 C 0.86143 0.58811 0.23014 0.0
H1753 H 0.95272 0.69904 0.28068 0.0
H1754 H 0.93168 0.66611 0.26976 0.0
C1755 C 0.84634 0.57099 0.22699 0.0
C1756 C 0.87203 0.62774 0.22632 0.0
H1757 H 0.92521 0.64654 0.22564 0.0
C1758 C 0.86228 0.64557 0.23743 0.0
C1759 C 0.89499 0.62801 0.22199 0.0
C1760 C 0.90618 0.60956 0.20956 0.0
C1761 C 0.87489 0.66361 0.24451 0.0
C1762 C 0.8978 0.66398 0.24004 0.0
C1763 C 0.90764 0.64611 0.22907 0.0
C1764 C 0.91148 0.68333 0.24583 0.0
C1765 C 0.86365 0.68202 0.257 0.0
C1766 C 0.90734 0.70365 0.23563 0.0
C1767 C 0.91919 0.72236 0.24181 0.0
C1768 C 0.93556 0.72111 0.25827 0.0
C1769 C 0.94017 0.70055 0.26803 0.0
C1770 C 0.92822 0.68175 0.2618 0.0
H1771 H 0.84751 0.6767 0.26391 0.0
H1772 H 0.87423 0.68804 0.27072 0.0
H1773 H 0.86059 0.69603 0.24559 0.0
H1774 H 0.89472 0.7051 0.22302 0.0
H1775 H 0.9153 0.73787 0.23379 0.0
H1776 H 0.2174 0.0397 0.20214 0.0
H1777 H 0.2289 0.05866 0.16827 0.0
H1778 H 0.27313 0.09964 0.20612 0.0
H1779 H 0.26201 0.08074 0.23989 0.0
H1780 H 0.22466 0.10359 0.15968 0.0
H1781 H 0.31257 0.0783 0.15567 0.0
H1782 H 0.29258 0.0643 0.17284 0.0
H1783 H 0.30471 0.08986 0.18182 0.0
C1784 C 0.22971 0.05262 0.20321 0.0
C1785 C 0.23882 0.05867 0.2237 0.0
C1786 C 0.23628 0.0634 0.18386 0.0
C1787 C 0.25216 0.08026 0.18467 0.0
C1788 C 0.26127 0.08631 0.20507 0.0
H1789 H 0.30066 0.18145 0.09732 0.0
H1790 H 0.29459 0.1555 0.12771 0.0
C1791 C 0.25474 0.07558 0.22438 0.0
C1792 C 0.25813 0.09263 0.16446 0.0
H1793 H 0.30178 0.10826 0.13232 0.0
C1794 C 0.24146 0.10441 0.15352 0.0
C1795 C 0.28011 0.09374 0.1566 0.0
C1796 C 0.2985 0.08072 0.16721 0.0
C1797 C 0.24627 0.11782 0.13528 0.0
C1798 C 0.26829 0.11914 0.12757 0.0
C1799 C 0.28494 0.10718 0.13832 0.0
C1800 C 0.27422 0.13328 0.10857 0.0
C1801 C 0.22788 0.13101 0.12483 0.0
C1802 C 0.26547 0.12887 0.08761 0.0
C1803 C 0.26879 0.1437 0.07029 0.0
C1804 C 0.28101 0.16318 0.07361 0.0
C1805 C 0.29095 0.1668 0.09428 0.0
C1806 C 0.28756 0.15195 0.11165 0.0
H1807 H 0.21311 0.13198 0.13568 0.0
H1808 H 0.23345 0.14804 0.12096 0.0
H1809 H 0.22286 0.123 0.10913 0.0
H1810 H 0.25548 0.1143 0.08484 0.0
H1811 H 0.26109 0.14023 0.05452 0.0
H1812 H 0.2842 0.95395 0.70002 0.0
H1813 H 0.27396 0.93359 0.66648 0.0
H1814 H 0.223 0.89948 0.7027 0.0
H1815 H 0.23313 0.91938 0.7361 0.0
H1816 H 0.25202 0.87174 0.67941 0.0
H1817 H 0.2188 0.93887 0.62621 0.0
H1818 H 0.24559 0.94365 0.6381 0.0
H1819 H 0.22184 0.94182 0.65575 0.0
C1820 C 0.27066 0.94229 0.70074 0.0
C1821 C 0.25954 0.93825 0.72073 0.0
C1822 C 0.26476 0.93078 0.68157 0.0
C1823 C 0.24759 0.9152 0.68212 0.0
C1824 C 0.23625 0.91148 0.70193 0.0
H1825 H 0.19315 0.81524 0.59523 0.0
H1826 H 0.19965 0.84144 0.62529 0.0
C1827 C 0.24211 0.92289 0.72102 0.0
C1828 C 0.24229 0.90152 0.66261 0.0
H1829 H 0.2217 0.90334 0.61014 0.0
C1830 C 0.24534 0.87863 0.66427 0.0
C1831 C 0.23368 0.91063 0.64291 0.0
C1832 C 0.22959 0.93507 0.64056 0.0
C1833 C 0.24011 0.86453 0.6467 0.0
C1834 C 0.23118 0.87357 0.6271 0.0
C1835 C 0.22836 0.8965 0.62529 0.0
C1836 C 0.22535 0.85937 0.60811 0.0
C1837 C 0.24461 0.84014 0.64912 0.0
C1838 C 0.23693 0.86146 0.58818 0.0
C1839 C 0.23324 0.84656 0.571 0.0
C1840 C 0.21788 0.82929 0.57345 0.0
C1841 C 0.20541 0.82803 0.59299 0.0
C1842 C 0.20909 0.84299 0.61017 0.0
H1843 H 0.25624 0.83666 0.66289 0.0
H1844 H 0.22889 0.83143 0.65267 0.0
H1845 H 0.25161 0.83321 0.63364 0.0
H1846 H 0.24945 0.87409 0.58624 0.0
H1847 H 0.24306 0.8481 0.55612 0.0
H1848 H 0.71878 0.45477 0.79843 0.0
H1849 H 0.73047 0.43493 0.83178 0.0
H1850 H 0.77496 0.39537 0.79271 0.0
H1851 H 0.76369 0.41513 0.75954 0.0
H1852 H 0.72666 0.38996 0.83945 0.0
H1853 H 0.81447 0.41529 0.84337 0.0
H1854 H 0.79436 0.42961 0.82662 0.0
H1855 H 0.80672 0.4044 0.81692 0.0
C1856 C 0.7312 0.44198 0.797 0.0
C1857 C 0.74035 0.43659 0.77634 0.0
C1858 C 0.73787 0.4307 0.81604 0.0
C1859 C 0.75389 0.41399 0.81475 0.0
C1860 C 0.76301 0.4086 0.79417 0.0
H1861 H 0.80367 0.30886 0.8961 0.0
H1862 H 0.79667 0.33625 0.86718 0.0
C1863 C 0.75639 0.41982 0.77518 0.0
C1864 C 0.76007 0.40105 0.83456 0.0
H1865 H 0.80424 0.38388 0.86518 0.0
C1866 C 0.74356 0.38887 0.84529 0.0
C1867 C 0.78217 0.39959 0.84203 0.0
C1868 C 0.80042 0.41309 0.83177 0.0
C1869 C 0.74866 0.37463 0.86283 0.0
C1870 C 0.77082 0.37282 0.87 0.0
C1871 C 0.78729 0.38529 0.85956 0.0
C1872 C 0.77711 0.35763 0.88806 0.0
C1873 C 0.73042 0.36104 0.87305 0.0
C1874 C 0.7691 0.36105 0.90949 0.0
C1875 C 0.77296 0.34541 0.92597 0.0
C1876 C 0.78495 0.32605 0.92132 0.0
C1877 C 0.79408 0.32335 0.90014 0.0
C1878 C 0.79018 0.33904 0.88363 0.0
H1879 H 0.71533 0.36086 0.86262 0.0
H1880 H 0.73592 0.34376 0.87575 0.0
H1881 H 0.72599 0.36815 0.88935 0.0
H1882 H 0.75931 0.37552 0.9133 0.0
H1883 H 0.76584 0.34817 0.94215 0.0
H1884 H 0.77514 0.54034 0.29938 0.0
H1885 H 0.76267 0.56114 0.3318 0.0
H1886 H 0.72093 0.60113 0.29019 0.0
H1887 H 0.73294 0.58039 0.2579 0.0
H1888 H 0.76785 0.60599 0.33835 0.0
H1889 H 0.67903 0.58397 0.33992 0.0
H1890 H 0.69912 0.56857 0.32416 0.0
H1891 H 0.68814 0.59406 0.31357 0.0
C1892 C 0.76313 0.55341 0.29719 0.0
C1893 C 0.755 0.55867 0.27608 0.0
C1894 C 0.75602 0.56524 0.3157 0.0
C1895 C 0.74058 0.58238 0.31342 0.0
C1896 C 0.73241 0.58759 0.2924 0.0
H1897 H 0.69338 0.68992 0.39408 0.0
H1898 H 0.69958 0.66276 0.36477 0.0
C1899 C 0.73946 0.57581 0.27393 0.0
C1900 C 0.73422 0.59599 0.33267 0.0
H1901 H 0.68986 0.61497 0.36192 0.0
C1902 C 0.75085 0.60775 0.34368 0.0
C1903 C 0.71198 0.59835 0.33945 0.0
C1904 C 0.69355 0.58541 0.3288 0.0
C1905 C 0.74578 0.62229 0.36094 0.0
C1906 C 0.72352 0.62485 0.36755 0.0
C1907 C 0.70689 0.61295 0.35672 0.0
C1908 C 0.71742 0.63994 0.38569 0.0
C1909 C 0.7642 0.63526 0.3716 0.0
C1910 C 0.7247 0.63564 0.40721 0.0
C1911 C 0.72131 0.65113 0.42389 0.0
C1912 C 0.71052 0.67121 0.41936 0.0
C1913 C 0.70203 0.67484 0.39805 0.0
C1914 C 0.70548 0.65929 0.38131 0.0
H1915 H 0.77952 0.635 0.3615 0.0
H1916 H 0.7592 0.6527 0.37423 0.0
H1917 H 0.76805 0.62796 0.38797 0.0
H1918 H 0.73362 0.6206 0.41095 0.0
H1919 H 0.72786 0.64763 0.44018 0.0
H1920 H 0.19687 0.22011 0.04089 0.0
H1921 H 0.16581 0.23445 0.06252 0.0
H1922 H 0.21101 0.272 0.10274 0.0
H1923 H 0.24198 0.25816 0.08109 0.0
H1924 H 0.15887 0.22885 0.10683 0.0
H1925 H 0.16488 0.31812 0.08755 0.0
H1926 H 0.1791 0.2973 0.07163 0.0
H1927 H 0.19027 0.30656 0.09756 0.0
C1928 C 0.20016 0.23159 0.05421 0.0
C1929 C 0.22188 0.23805 0.05921 0.0
C1930 C 0.18242 0.23978 0.06652 0.0
C1931 C 0.18608 0.25461 0.08397 0.0
C1932 C 0.20774 0.26105 0.08898 0.0
H1933 H 0.10628 0.30051 0.19346 0.0
H1934 H 0.13624 0.2943 0.16692 0.0
C1935 C 0.22545 0.25296 0.07667 0.0
C1936 C 0.16747 0.26217 0.09792 0.0
H1937 H 0.14154 0.30817 0.11784 0.0
C1938 C 0.15495 0.24617 0.10906 0.0
C1939 C 0.16249 0.28482 0.1009 0.0
C1940 C 0.17475 0.30269 0.08862 0.0
C1941 C 0.13784 0.25221 0.12342 0.0
C1942 C 0.13301 0.27482 0.12654 0.0
C1943 C 0.14542 0.29086 0.1154 0.0
C1944 C 0.11484 0.28182 0.14121 0.0
C1945 C 0.12524 0.23439 0.13547 0.0
C1946 C 0.09294 0.27762 0.13511 0.0
C1947 C 0.07586 0.28116 0.15014 0.0
C1948 C 0.08038 0.28898 0.17156 0.0
C1949 C 0.10224 0.29451 0.17712 0.0
C1950 C 0.11937 0.29094 0.16201 0.0
H1951 H 0.13357 0.21809 0.13434 0.0
H1952 H 0.12323 0.23876 0.15317 0.0
H1953 H 0.10852 0.23281 0.12814 0.0
H1954 H 0.08917 0.27076 0.11903 0.0
H1955 H 0.05919 0.2769 0.14524 0.0
H1956 H 0.70134 0.27651 0.95781 0.0
H1957 H 0.66744 0.26603 0.93832 0.0
H1958 H 0.7048 0.22172 0.89697 0.0
H1959 H 0.73857 0.23183 0.91637 0.0
H1960 H 0.65977 0.27142 0.89319 0.0
H1961 H 0.65297 0.18323 0.91666 0.0
H1962 H 0.67032 0.20248 0.93143 0.0
H1963 H 0.67959 0.19054 0.90586 0.0
C1964 C 0.70229 0.26435 0.94474 0.0
C1965 C 0.72265 0.25498 0.93868 0.0
C1966 C 0.68292 0.25838 0.93364 0.0
C1967 C 0.68359 0.24283 0.91647 0.0
C1968 C 0.70384 0.23335 0.91052 0.0
H1969 H 0.59943 0.1967 0.81201 0.0
H1970 H 0.62878 0.2027 0.83912 0.0
C1971 C 0.72317 0.2393 0.92154 0.0
C1972 C 0.66348 0.23764 0.9036 0.0
H1973 H 0.63104 0.19505 0.88595 0.0
C1974 C 0.65327 0.25479 0.89184 0.0
C1975 C 0.65518 0.21589 0.90179 0.0
C1976 C 0.66494 0.197 0.91477 0.0
C1977 C 0.63544 0.25065 0.87767 0.0
C1978 C 0.62737 0.22883 0.87556 0.0
C1979 C 0.63731 0.21173 0.88761 0.0
C1980 C 0.609 0.22348 0.86039 0.0
C1981 C 0.62589 0.26952 0.86446 0.0
C1982 C 0.588 0.23258 0.8638 0.0
C1983 C 0.57127 0.22932 0.84828 0.0
C1984 C 0.57523 0.21681 0.82909 0.0
C1985 C 0.59595 0.20671 0.82637 0.0
C1986 C 0.6127 0.21003 0.8419 0.0
H1987 H 0.63706 0.28407 0.86423 0.0
H1988 H 0.62261 0.26439 0.84716 0.0
H1989 H 0.60999 0.27469 0.87196 0.0
H1990 H 0.58471 0.24266 0.87821 0.0
H1991 H 0.55545 0.23717 0.85105 0.0
H1992 H 0.79585 0.72149 0.45823 0.0
H1993 H 0.82943 0.73329 0.4388 0.0
H1994 H 0.79028 0.77485 0.39621 0.0
H1995 H 0.75697 0.76357 0.41556 0.0
H1996 H 0.83888 0.72768 0.39476 0.0
H1997 H 0.83888 0.81679 0.41484 0.0
H1998 H 0.82218 0.79704 0.42968 0.0
H1999 H 0.81303 0.80783 0.40352 0.0
C2000 C 0.79446 0.73333 0.44489 0.0
C2001 C 0.77374 0.74165 0.43853 0.0
C2002 C 0.81364 0.74006 0.43383 0.0
C2003 C 0.81238 0.7553 0.41636 0.0
C2004 C 0.79173 0.76357 0.41003 0.0
H2005 H 0.8926 0.79949 0.30816 0.0
H2006 H 0.86368 0.7934 0.3358 0.0
C2007 C 0.77264 0.75693 0.42104 0.0
C2008 C 0.83232 0.76147 0.40359 0.0
H2009 H 0.86117 0.80578 0.38386 0.0
C2010 C 0.84398 0.74472 0.39266 0.0
C2011 C 0.83887 0.78374 0.4008 0.0
C2012 C 0.82771 0.80235 0.41302 0.0
C2013 C 0.86149 0.74969 0.37833 0.0
C2014 C 0.86761 0.77198 0.37506 0.0
C2015 C 0.85631 0.78872 0.38634 0.0
C2016 C 0.88548 0.77807 0.3596 0.0
C2017 C 0.87285 0.73114 0.36617 0.0
C2018 C 0.90734 0.77216 0.36422 0.0
C2019 C 0.92386 0.77564 0.34854 0.0
C2020 C 0.91881 0.78513 0.32791 0.0
C2021 C 0.89705 0.79213 0.32382 0.0
C2022 C 0.88051 0.78865 0.33958 0.0
H2023 H 0.86356 0.71537 0.36742 0.0
H2024 H 0.87493 0.73536 0.34844 0.0
H2025 H 0.88952 0.72853 0.37333 0.0
H2026 H 0.9115 0.76423 0.37972 0.0
H2027 H 0.94047 0.77019 0.35234 0.0
H2028 H 0.39502 0.68773 0.68828 0.0
H2029 H 0.36477 0.69199 0.66182 0.0
H2030 H 0.40603 0.73337 0.6211 0.0
H2031 H 0.43628 0.72918 0.64729 0.0
H2032 H 0.34619 0.73272 0.65172 0.0
H2033 H 0.3776 0.69238 0.57577 0.0
H2034 H 0.38951 0.68747 0.60269 0.0
H2035 H 0.39649 0.71199 0.58747 0.0
C2036 C 0.39776 0.69749 0.67357 0.0
C2037 C 0.418 0.70829 0.67004 0.0
C2038 C 0.38048 0.69985 0.65843 0.0
C2039 C 0.38324 0.71282 0.63941 0.0
C2040 C 0.40368 0.72292 0.63543 0.0
H2041 H 0.29823 0.77309 0.54175 0.0
H2042 H 0.32947 0.75997 0.56395 0.0
C2043 C 0.42093 0.7206 0.65054 0.0
C2044 C 0.36418 0.71777 0.62494 0.0
H2045 H 0.34631 0.71611 0.57146 0.0
C2046 C 0.34608 0.72884 0.63423 0.0
C2047 C 0.36423 0.71289 0.6021 0.0
C2048 C 0.38291 0.70035 0.59142 0.0
C2049 C 0.32824 0.73569 0.62118 0.0
C2050 C 0.32835 0.73097 0.5983 0.0
C2051 C 0.34634 0.71972 0.58901 0.0
C2052 C 0.30985 0.73769 0.58385 0.0
C2053 C 0.30973 0.74852 0.63187 0.0
C2054 C 0.28867 0.72908 0.58738 0.0
C2055 C 0.27085 0.73657 0.57486 0.0
C2056 C 0.27391 0.7527 0.55842 0.0
C2057 C 0.29533 0.76071 0.55434 0.0
C2058 C 0.31317 0.75322 0.56696 0.0
H2059 H 0.31468 0.75537 0.64816 0.0
H2060 H 0.30425 0.76232 0.6211 0.0
H2061 H 0.29543 0.73738 0.63455 0.0
H2062 H 0.28587 0.71679 0.60008 0.0
H2063 H 0.25462 0.7299 0.57832 0.0
H2064 H 0.80678 0.89669 0.68959 0.0
H2065 H 0.83177 0.86536 0.69471 0.0
H2066 H 0.87235 0.90462 0.73808 0.0
H2067 H 0.84768 0.93599 0.73293 0.0
H2068 H 0.89676 0.87779 0.70926 0.0
H2069 H 0.83115 0.8307 0.75303 0.0
H2070 H 0.82411 0.83968 0.72564 0.0
H2071 H 0.82865 0.85976 0.747 0.0
C2072 C 0.82109 0.89872 0.70006 0.0
C2073 C 0.82497 0.91873 0.71116 0.0
C2074 C 0.83533 0.88079 0.70301 0.0
C2075 C 0.85361 0.88256 0.71717 0.0
C2076 C 0.85824 0.90287 0.7272 0.0
H2077 H 0.95049 0.79652 0.77771 0.0
H2078 H 0.92879 0.82806 0.7646 0.0
C2079 C 0.84408 0.92079 0.72424 0.0
C2080 C 0.86728 0.86305 0.7226 0.0
H2081 H 0.8654 0.81291 0.74825 0.0
C2082 C 0.88993 0.86355 0.71771 0.0
C2083 C 0.85829 0.8446 0.73377 0.0
C2084 C 0.83427 0.84362 0.74037 0.0
C2085 C 0.90385 0.84595 0.72357 0.0
C2086 C 0.89487 0.82761 0.73489 0.0
C2087 C 0.87219 0.82702 0.73955 0.0
C2088 C 0.90866 0.80882 0.7422 0.0
C2089 C 0.92796 0.84702 0.71742 0.0
C2090 C 0.90424 0.78756 0.73424 0.0
C2091 C 0.91646 0.76955 0.74177 0.0
C2092 C 0.93329 0.77243 0.75754 0.0
C2093 C 0.9377 0.79377 0.76551 0.0
C2094 C 0.92544 0.81182 0.75793 0.0
H2095 H 0.93107 0.85934 0.70418 0.0
H2096 H 0.93771 0.85192 0.73214 0.0
H2097 H 0.93401 0.83066 0.7118 0.0
H2098 H 0.89125 0.7849 0.72222 0.0
H2099 H 0.91258 0.75334 0.7353 0.0
H2100 H 0.68722 0.09797 0.1887 0.0
H2101 H 0.66197 0.12919 0.1933 0.0
H2102 H 0.62037 0.08951 0.23534 0.0
H2103 H 0.64532 0.05828 0.23076 0.0
H2104 H 0.59669 0.11678 0.20601 0.0
H2105 H 0.66124 0.16294 0.25226 0.0
H2106 H 0.66899 0.15426 0.22497 0.0
H2107 H 0.66376 0.13395 0.24597 0.0
C2108 C 0.67264 0.09583 0.19877 0.0
C2109 C 0.66856 0.07577 0.20972 0.0
C2110 C 0.65824 0.11368 0.2014 0.0
C2111 C 0.6396 0.11175 0.21506 0.0
C2112 C 0.63476 0.09136 0.22485 0.0
H2113 H 0.54163 0.19759 0.27421 0.0
H2114 H 0.56322 0.16597 0.26113 0.0
C2115 C 0.64908 0.07354 0.22221 0.0
C2116 C 0.62584 0.1312 0.22038 0.0
H2117 H 0.62718 0.18089 0.24686 0.0
C2118 C 0.60333 0.13086 0.21486 0.0
C2119 C 0.63457 0.14942 0.23209 0.0
C2120 C 0.65841 0.1502 0.23937 0.0
C2121 C 0.58932 0.14841 0.22061 0.0
C2122 C 0.59804 0.16652 0.23244 0.0
C2123 C 0.62058 0.16694 0.23776 0.0
C2124 C 0.58418 0.18531 0.23957 0.0
C2125 C 0.56538 0.14754 0.21378 0.0
C2126 C 0.58906 0.20663 0.23204 0.0
C2127 C 0.57692 0.22467 0.23956 0.0
C2128 C 0.55968 0.22177 0.25488 0.0
C2129 C 0.55474 0.20036 0.26236 0.0
C2130 C 0.56695 0.18227 0.25479 0.0
H2131 H 0.56257 0.13541 0.20032 0.0
H2132 H 0.5552 0.14252 0.22817 0.0
H2133 H 0.55957 0.16401 0.20818 0.0
H2134 H 0.60239 0.20931 0.2204 0.0
H2135 H 0.5812 0.24093 0.23346 0.0
H2136 H 0.41761 0.73652 0.26455 0.0
H2137 H 0.3991 0.70271 0.27583 0.0
H2138 H 0.43827 0.6655 0.22943 0.0
H2139 H 0.45678 0.69954 0.21765 0.0
H2140 H 0.39404 0.65692 0.22617 0.0
H2141 H 0.41969 0.65165 0.31378 0.0
H2142 H 0.4081 0.67804 0.30698 0.0
H2143 H 0.43343 0.66934 0.29408 0.0
C2144 C 0.42254 0.72114 0.25686 0.0
C2145 C 0.43872 0.72072 0.24019 0.0
C2146 C 0.41204 0.70178 0.2635 0.0
C2147 C 0.41762 0.68154 0.2538 0.0
C2148 C 0.4339 0.68096 0.23728 0.0
H2149 H 0.35325 0.55349 0.26486 0.0
H2150 H 0.38066 0.58246 0.25924 0.0
C2151 C 0.44443 0.7004 0.23056 0.0
C2152 C 0.40506 0.66142 0.25969 0.0
H2153 H 0.38792 0.63017 0.30345 0.0
C2154 C 0.39298 0.65084 0.243 0.0
C2155 C 0.40363 0.65362 0.28169 0.0
C2156 C 0.41709 0.66363 0.30011 0.0
C2157 C 0.37884 0.63318 0.24785 0.0
C2158 C 0.37697 0.62579 0.26992 0.0
C2159 C 0.38937 0.63601 0.28657 0.0
C2160 C 0.36175 0.60771 0.27591 0.0
C2161 C 0.36542 0.62303 0.22945 0.0
C2162 C 0.34248 0.61219 0.28796 0.0
C2163 C 0.32672 0.59564 0.29127 0.0
C2164 C 0.33005 0.57439 0.28257 0.0
C2165 C 0.35002 0.56973 0.27161 0.0
C2166 C 0.36572 0.58625 0.26833 0.0
H2167 H 0.3657 0.63327 0.21422 0.0
H2168 H 0.37228 0.60654 0.22537 0.0
H2169 H 0.34799 0.62074 0.23469 0.0
H2170 H 0.33924 0.6287 0.29402 0.0
H2171 H 0.31165 0.59974 0.2999 0.0
H2172 H 0.04321 0.29338 0.71389 0.0
H2173 H 0.06407 0.32621 0.72542 0.0
H2174 H 0.10242 0.28628 0.77018 0.0
H2175 H 0.08199 0.25359 0.75883 0.0
H2176 H 0.07083 0.3441 0.7704 0.0
H2177 H 0.14837 0.3172 0.7294 0.0
H2178 H 0.12174 0.3057 0.72253 0.0
H2179 H 0.1359 0.29689 0.74708 0.0
C2180 C 0.05605 0.29163 0.72622 0.0
C2181 C 0.06104 0.27086 0.73531 0.0
C2182 C 0.06789 0.31037 0.7328 0.0
C2183 C 0.08491 0.30852 0.74843 0.0
C2184 C 0.08954 0.28794 0.75787 0.0
H2185 H 0.18602 0.39375 0.80199 0.0
H2186 H 0.16006 0.36354 0.79547 0.0
C2187 C 0.07778 0.26929 0.75137 0.0
C2188 C 0.09829 0.32791 0.7547 0.0
H2189 H 0.1509 0.34793 0.75341 0.0
C2190 C 0.08831 0.34508 0.7666 0.0
C2191 C 0.12107 0.32898 0.74975 0.0
C2192 C 0.13243 0.31132 0.73633 0.0
C2193 C 0.10071 0.36316 0.77416 0.0
C2194 C 0.12354 0.36414 0.76933 0.0
C2195 C 0.13343 0.34702 0.75727 0.0
C2196 C 0.1375 0.3831 0.77583 0.0
C2197 C 0.08939 0.38079 0.78763 0.0
C2198 C 0.13321 0.40416 0.76726 0.0
C2199 C 0.14799 0.42144 0.77097 0.0
C2200 C 0.16747 0.41792 0.78317 0.0
C2201 C 0.17125 0.39702 0.7925 0.0
C2202 C 0.15643 0.37973 0.78878 0.0
H2203 H 0.07375 0.37468 0.79502 0.0
H2204 H 0.10031 0.38683 0.80107 0.0
H2205 H 0.08534 0.39497 0.77675 0.0
H2206 H 0.11894 0.40702 0.75687 0.0
H2207 H 0.14457 0.43732 0.7635 0.0
H2208 H 0.69427 0.80995 0.8969 0.0
H2209 H 0.70034 0.83662 0.86713 0.0
H2210 H 0.73929 0.87687 0.91103 0.0
H2211 H 0.73368 0.85022 0.94073 0.0
H2212 H 0.69268 0.88377 0.86386 0.0
H2213 H 0.78162 0.86132 0.85956 0.0
H2214 H 0.76154 0.84459 0.8739 0.0
H2215 H 0.7719 0.8694 0.88641 0.0
C2216 C 0.704 0.82451 0.90028 0.0
C2217 C 0.71383 0.82769 0.92108 0.0
C2218 C 0.70738 0.83978 0.88328 0.0
C2219 C 0.72062 0.85844 0.88682 0.0
C2220 C 0.72937 0.86233 0.90789 0.0
H2221 H 0.77659 0.95576 0.79687 0.0
H2222 H 0.76496 0.93551 0.82992 0.0
C2223 C 0.72605 0.8471 0.92486 0.0
C2224 C 0.72633 0.8732 0.86822 0.0
H2225 H 0.7697 0.89046 0.83664 0.0
C2226 C 0.7095 0.88529 0.85788 0.0
C2227 C 0.7483 0.87508 0.86053 0.0
C2228 C 0.7669 0.86179 0.87051 0.0
C2229 C 0.71413 0.89942 0.84008 0.0
C2230 C 0.73608 0.90114 0.83227 0.0
C2231 C 0.75291 0.88919 0.84276 0.0
C2232 C 0.74191 0.91443 0.81259 0.0
C2233 C 0.69554 0.91257 0.82996 0.0
C2234 C 0.73289 0.90917 0.79193 0.0
C2235 C 0.73948 0.92066 0.77306 0.0
C2236 C 0.75537 0.93754 0.77447 0.0
C2237 C 0.76429 0.94288 0.79523 0.0
C2238 C 0.75767 0.93135 0.81412 0.0
H2239 H 0.68144 0.91434 0.84156 0.0
H2240 H 0.70122 0.92927 0.82495 0.0
H2241 H 0.68946 0.90388 0.81501 0.0
H2242 H 0.72111 0.89581 0.79029 0.0
H2243 H 0.73235 0.91603 0.75731 0.0
H2244 H 0.76226 0.07792 0.25623 0.0
H2245 H 0.77393 0.09919 0.28831 0.0
H2246 H 0.72707 0.06422 0.32896 0.0
H2247 H 0.71528 0.04255 0.29682 0.0
H2248 H 0.74579 0.12644 0.31343 0.0
H2249 H 0.78536 0.06144 0.36481 0.0
H2250 H 0.78018 0.05793 0.33563 0.0
H2251 H 0.75797 0.05532 0.35512 0.0
C2252 C 0.75452 0.07454 0.27201 0.0
C2253 C 0.73781 0.05852 0.27397 0.0
C2254 C 0.76125 0.08673 0.29032 0.0
C2255 C 0.75153 0.0831 0.311 0.0
C2256 C 0.73503 0.06697 0.31318 0.0
H2257 H 0.75894 0.14985 0.43629 0.0
H2258 H 0.7532 0.12374 0.40618 0.0
C2259 C 0.72823 0.05471 0.2948 0.0
C2260 C 0.75779 0.09729 0.32985 0.0
H2261 H 0.78133 0.09681 0.38109 0.0
C2262 C 0.75366 0.12001 0.32819 0.0
C2263 C 0.76798 0.08876 0.34904 0.0
C2264 C 0.77334 0.06456 0.35131 0.0
C2265 C 0.75913 0.13446 0.34541 0.0
C2266 C 0.76945 0.12599 0.36458 0.0
C2267 C 0.77357 0.10325 0.36627 0.0
C2268 C 0.7751 0.14045 0.38344 0.0
C2269 C 0.75323 0.15858 0.34316 0.0
C2270 C 0.78997 0.15804 0.38086 0.0
C2271 C 0.79325 0.1731 0.39805 0.0
C2272 C 0.78179 0.17071 0.41809 0.0
C2273 C 0.76794 0.15228 0.42102 0.0
C2274 C 0.76463 0.1373 0.40383 0.0
H2275 H 0.74083 0.16139 0.32992 0.0
H2276 H 0.74657 0.16518 0.35892 0.0
H2277 H 0.76829 0.1681 0.33889 0.0
H2278 H 0.7986 0.16043 0.36538 0.0
H2279 H 0.80437 0.18682 0.39544 0.0
H2280 H 0.22833 0.64506 0.0549 0.0
H2281 H 0.23431 0.61856 0.08462 0.0
H2282 H 0.19962 0.66112 0.12992 0.0
H2283 H 0.19326 0.68768 0.10017 0.0
H2284 H 0.25821 0.62964 0.12288 0.0
H2285 H 0.17411 0.59934 0.14336 0.0
H2286 H 0.18052 0.61277 0.11748 0.0
H2287 H 0.17683 0.62886 0.14212 0.0
C2288 C 0.22158 0.64867 0.07107 0.0
C2289 C 0.21048 0.66867 0.0752 0.0
C2290 C 0.22505 0.63348 0.08803 0.0
C2291 C 0.21734 0.63784 0.1094 0.0
C2292 C 0.20545 0.65731 0.11344 0.0
H2293 H 0.23726 0.58309 0.23874 0.0
H2294 H 0.22564 0.60361 0.20607 0.0
C2295 C 0.20196 0.67257 0.09645 0.0
C2296 C 0.22363 0.62307 0.12781 0.0
H2297 H 0.20286 0.59007 0.1685 0.0
C2298 C 0.24615 0.62081 0.13275 0.0
C2299 C 0.2078 0.61172 0.14066 0.0
C2300 C 0.18346 0.61308 0.13558 0.0
C2301 C 0.25329 0.60792 0.15061 0.0
C2302 C 0.23747 0.59662 0.16355 0.0
C2303 C 0.21494 0.5987 0.15847 0.0
C2304 C 0.24396 0.58338 0.18305 0.0
C2305 C 0.27764 0.60714 0.15591 0.0
C2306 C 0.25789 0.56498 0.18087 0.0
C2307 C 0.26471 0.55324 0.19956 0.0
C2308 C 0.25753 0.55962 0.2207 0.0
C2309 C 0.24314 0.57774 0.22271 0.0
C2310 C 0.23642 0.58948 0.20406 0.0
H2311 H 0.28685 0.62078 0.14778 0.0
H2312 H 0.28044 0.60815 0.17401 0.0
H2313 H 0.28462 0.5913 0.14994 0.0
H2314 H 0.26355 0.55976 0.16472 0.0
H2315 H 0.27565 0.53926 0.19745 0.0
H2316 H 0.21907 0.45147 0.69956 0.0
H2317 H 0.23211 0.43041 0.66752 0.0
H2318 H 0.27742 0.39474 0.7093 0.0
H2319 H 0.2644 0.41536 0.74134 0.0
H2320 H 0.27578 0.4252 0.64967 0.0
H2321 H 0.24043 0.34603 0.6797 0.0
H2322 H 0.23259 0.3724 0.69112 0.0
H2323 H 0.25824 0.35975 0.69902 0.0
C2324 C 0.23185 0.43919 0.7019 0.0
C2325 C 0.24055 0.43495 0.72302 0.0
C2326 C 0.2393 0.42722 0.6836 0.0
C2327 C 0.25548 0.41083 0.68616 0.0
C2328 C 0.26465 0.40705 0.70707 0.0
H2329 H 0.30802 0.31119 0.59707 0.0
H2330 H 0.30346 0.33666 0.62808 0.0
C2331 C 0.2572 0.41892 0.72535 0.0
C2332 C 0.26243 0.39724 0.6671 0.0
H2333 H 0.26268 0.34438 0.64771 0.0
C2334 C 0.27293 0.40754 0.64919 0.0
C2335 C 0.25871 0.3742 0.66662 0.0
C2336 C 0.24671 0.36241 0.68503 0.0
C2337 C 0.27999 0.39531 0.63079 0.0
C2338 C 0.27611 0.37229 0.63025 0.0
C2339 C 0.26579 0.36201 0.64827 0.0
C2340 C 0.2813 0.35863 0.61067 0.0
C2341 C 0.29171 0.40706 0.61221 0.0
C2342 C 0.27061 0.36273 0.59055 0.0
C2343 C 0.2731 0.34817 0.57287 0.0
C2344 C 0.28618 0.32908 0.57505 0.0
C2345 C 0.29764 0.32554 0.59493 0.0
C2346 C 0.29511 0.34013 0.61264 0.0
H2347 H 0.2991 0.42287 0.61784 0.0
H2348 H 0.30494 0.39658 0.60505 0.0
H2349 H 0.27965 0.41089 0.59895 0.0
H2350 H 0.25955 0.37667 0.5888 0.0
H2351 H 0.26401 0.35143 0.55781 0.0
H2352 H 0.94008 0.72427 0.8542 0.0
H2353 H 0.90996 0.72883 0.88054 0.0
H2354 H 0.86497 0.69805 0.83474 0.0
H2355 H 0.89511 0.69329 0.8082 0.0
H2356 H 0.87258 0.75448 0.86904 0.0
H2357 H 0.84906 0.66972 0.89515 0.0
H2358 H 0.87565 0.67607 0.88316 0.0
H2359 H 0.85168 0.67388 0.86585 0.0
C2360 C 0.92389 0.71803 0.84985 0.0
C2361 C 0.91995 0.70854 0.829 0.0
C2362 C 0.90671 0.72065 0.86495 0.0
C2363 C 0.8853 0.71371 0.85961 0.0
C2364 C 0.88148 0.70321 0.8393 0.0
H2365 H 0.75562 0.73502 0.91349 0.0
H2366 H 0.78814 0.7229 0.89303 0.0
C2367 C 0.89871 0.70056 0.82412 0.0
C2368 C 0.86668 0.71981 0.87417 0.0
H2369 H 0.82493 0.69882 0.90565 0.0
C2370 C 0.86225 0.74233 0.87722 0.0
C2371 C 0.85322 0.70389 0.88461 0.0
C2372 C 0.85766 0.67951 0.88223 0.0
C2373 C 0.84438 0.74942 0.89009 0.0
C2374 C 0.83089 0.73352 0.90061 0.0
C2375 C 0.83539 0.71096 0.89766 0.0
C2376 C 0.81147 0.74003 0.91395 0.0
C2377 C 0.83966 0.77384 0.89166 0.0
C2378 C 0.81386 0.75339 0.93275 0.0
C2379 C 0.79526 0.76053 0.94443 0.0
C2380 C 0.77399 0.75419 0.93762 0.0
C2381 C 0.77176 0.74025 0.91916 0.0
C2382 C 0.79032 0.73325 0.90746 0.0
H2383 H 0.84804 0.78329 0.87834 0.0
H2384 H 0.82165 0.77714 0.89071 0.0
H2385 H 0.84578 0.78014 0.90774 0.0
H2386 H 0.83009 0.75845 0.93827 0.0
H2387 H 0.79754 0.77109 0.95868 0.0
H2388 H 0.28496 0.70605 0.06101 0.0
H2389 H 0.31623 0.71758 0.08394 0.0
H2390 H 0.2971 0.78574 0.07552 0.0
H2391 H 0.26487 0.77402 0.05416 0.0
H2392 H 0.35097 0.74016 0.07926 0.0
H2393 H 0.29971 0.78484 0.14021 0.0
H2394 H 0.28772 0.7685 0.11847 0.0
H2395 H 0.29667 0.79641 0.11316 0.0
C2396 C 0.28757 0.72348 0.06405 0.0
C2397 C 0.27252 0.73917 0.05611 0.0
C2398 C 0.30539 0.73008 0.07714 0.0
C2399 C 0.30871 0.75254 0.08208 0.0
C2400 C 0.29442 0.76829 0.07281 0.0
H2401 H 0.43425 0.7915 0.1435 0.0
H2402 H 0.40415 0.78621 0.11697 0.0
C2403 C 0.27618 0.76163 0.06038 0.0
C2404 C 0.32691 0.75931 0.09712 0.0
H2405 H 0.33846 0.78987 0.14307 0.0
C2406 C 0.34819 0.75093 0.09329 0.0
C2407 C 0.32329 0.77308 0.11571 0.0
C2408 C 0.30057 0.78101 0.12227 0.0
C2409 C 0.36583 0.75569 0.10755 0.0
C2410 C 0.36243 0.77033 0.12551 0.0
C2411 C 0.34121 0.7789 0.12918 0.0
C2412 C 0.38022 0.77589 0.14152 0.0
C2413 C 0.38758 0.74412 0.10367 0.0
C2414 C 0.37642 0.77348 0.16432 0.0
C2415 C 0.39328 0.77752 0.17951 0.0
C2416 C 0.41439 0.78358 0.17216 0.0
C2417 C 0.4181 0.78666 0.14949 0.0
C2418 C 0.401 0.78334 0.13433 0.0
H2419 H 0.38535 0.72865 0.09406 0.0
H2420 H 0.39861 0.75507 0.09397 0.0
H2421 H 0.39585 0.73992 0.11949 0.0
H2422 H 0.36055 0.76784 0.17037 0.0
H2423 H 0.3901 0.77479 0.19691 0.0
H2424 H 0.24345 0.2342 0.57956 0.0
H2425 H 0.21177 0.22051 0.6003 0.0
H2426 H 0.16857 0.26278 0.56265 0.0
H2427 H 0.20027 0.27655 0.54153 0.0
H2428 H 0.18326 0.24656 0.62599 0.0
H2429 H 0.13798 0.20178 0.55995 0.0
H2430 H 0.16667 0.20953 0.55735 0.0
H2431 H 0.14536 0.22978 0.55346 0.0
C2432 C 0.22721 0.24051 0.57551 0.0
C2433 C 0.22438 0.25648 0.55885 0.0
C2434 C 0.20913 0.23263 0.5874 0.0
C2435 C 0.18784 0.24042 0.58281 0.0
C2436 C 0.18485 0.25626 0.56614 0.0
H2437 H 0.06068 0.22773 0.64374 0.0
H2438 H 0.09173 0.23354 0.6188 0.0
C2439 C 0.20298 0.26421 0.5542 0.0
C2440 C 0.16903 0.23285 0.59645 0.0
H2441 H 0.11957 0.20591 0.59435 0.0
C2442 C 0.16939 0.23752 0.61914 0.0
C2443 C 0.15101 0.22112 0.58738 0.0
C2444 C 0.15021 0.21505 0.56323 0.0
C2445 C 0.15193 0.23126 0.63297 0.0
C2446 C 0.13384 0.21955 0.62393 0.0
C2447 C 0.13354 0.21474 0.60124 0.0
C2448 C 0.11452 0.21345 0.63759 0.0
C2449 C 0.15264 0.2379 0.65701 0.0
C2450 C 0.1168 0.19947 0.65595 0.0
C2451 C 0.09906 0.19615 0.67036 0.0
C2452 C 0.07873 0.20669 0.66656 0.0
C2453 C 0.07614 0.21947 0.6473 0.0
C2454 C 0.09387 0.22282 0.63297 0.0
H2455 H 0.16508 0.25102 0.66012 0.0
H2456 H 0.13626 0.24392 0.66262 0.0
H2457 H 0.15714 0.22334 0.66718 0.0
H2458 H 0.1325 0.19166 0.65949 0.0
H2459 H 0.10149 0.1859 0.68478 0.0
H2460 H 0.55183 0.26536 0.35199 0.0
H2461 H 0.58099 0.26062 0.37938 0.0
H2462 H 0.62645 0.29572 0.33727 0.0
H2463 H 0.59729 0.30072 0.30977 0.0
H2464 H 0.61973 0.23746 0.36974 0.0
H2465 H 0.63836 0.32232 0.39875 0.0
H2466 H 0.61291 0.31529 0.38483 0.0
H2467 H 0.63784 0.31928 0.36923 0.0
C2468 C 0.5679 0.27247 0.34868 0.0
C2469 C 0.57227 0.28333 0.32859 0.0
C2470 C 0.58454 0.26973 0.36439 0.0
C2471 C 0.6058 0.27793 0.36042 0.0
C2472 C 0.61002 0.2896 0.34082 0.0
H2473 H 0.73577 0.2617 0.41256 0.0
H2474 H 0.70206 0.27242 0.39339 0.0
C2475 C 0.59336 0.29235 0.32506 0.0
C2476 C 0.62405 0.27223 0.37563 0.0
H2477 H 0.66451 0.29434 0.40799 0.0
C2478 C 0.62938 0.24985 0.37835 0.0
C2479 C 0.63659 0.28848 0.3867 0.0
C2480 C 0.63106 0.31269 0.38493 0.0
C2481 C 0.64746 0.24328 0.39123 0.0
C2482 C 0.66023 0.25954 0.40207 0.0
C2483 C 0.65463 0.28192 0.39971 0.0
C2484 C 0.68033 0.25372 0.41471 0.0
C2485 C 0.65326 0.21907 0.39235 0.0
C2486 C 0.67924 0.23989 0.4333 0.0
C2487 C 0.69857 0.23356 0.44428 0.0
C2488 C 0.71924 0.24115 0.43693 0.0
C2489 C 0.72014 0.25549 0.41865 0.0
C2490 C 0.70087 0.26171 0.40768 0.0
H2491 H 0.64492 0.20941 0.37917 0.0
H2492 H 0.67137 0.21661 0.39082 0.0
H2493 H 0.64795 0.21232 0.40854 0.0
H2494 H 0.66348 0.23388 0.43922 0.0
H2495 H 0.69732 0.22264 0.4584 0.0
H2496 H 0.9751 0.288 0.13584 0.0
H2497 H 0.94974 0.29668 0.10555 0.0
H2498 H 0.92836 0.22877 0.10408 0.0
H2499 H 0.95368 0.22018 0.13484 0.0
H2500 H 0.94811 0.2771 0.0624 0.0
H2501 H 0.87053 0.26594 0.11036 0.0
H2502 H 0.8971 0.26945 0.12345 0.0
H2503 H 0.88978 0.24336 0.11145 0.0
C2504 C 0.96466 0.27507 0.12927 0.0
C2505 C 0.9657 0.2536 0.13794 0.0
C2506 C 0.95041 0.27996 0.11187 0.0
C2507 C 0.937 0.26344 0.10283 0.0
C2508 C 0.93836 0.2418 0.11112 0.0
H2509 H 0.8598 0.2609 0.98419 0.0
H2510 H 0.88961 0.25832 0.0111 0.0
C2511 C 0.95276 0.23689 0.12855 0.0
C2512 C 0.92161 0.26904 0.08473 0.0
H2513 H 0.86688 0.27295 0.07212 0.0
C2514 C 0.93034 0.27622 0.06448 0.0
C2515 C 0.89849 0.26823 0.0877 0.0
C2516 C 0.88831 0.26151 0.10945 0.0
C2517 C 0.91646 0.2822 0.04688 0.0
C2518 C 0.89334 0.28081 0.04968 0.0
C2519 C 0.88464 0.27402 0.07007 0.0
C2520 C 0.87774 0.28518 0.03141 0.0
C2521 C 0.9266 0.29008 0.02553 0.0
C2522 C 0.86151 0.30157 0.03358 0.0
C2523 C 0.84442 0.30316 0.01815 0.0
C2524 C 0.84309 0.2881 0.00055 0.0
C2525 C 0.86028 0.27276 0.99757 0.0
C2526 C 0.87739 0.27125 0.01294 0.0
H2527 H 0.94388 0.29574 0.02793 0.0
H2528 H 0.92678 0.27626 0.0135 0.0
H2529 H 0.91681 0.30378 0.01828 0.0
H2530 H 0.8616 0.31257 0.0477 0.0
H2531 H 0.83179 0.31553 0.02055 0.0
H2532 H 0.66312 0.67729 0.51665 0.0
H2533 H 0.63386 0.67931 0.54451 0.0
H2534 H 0.60972 0.73933 0.51468 0.0
H2535 H 0.6386 0.73733 0.48688 0.0
H2536 H 0.63171 0.71265 0.57378 0.0
H2537 H 0.55267 0.7086 0.52825 0.0
H2538 H 0.57857 0.70037 0.51597 0.0
H2539 H 0.57074 0.72905 0.51679 0.0
C2540 C 0.65132 0.69066 0.51581 0.0
C2541 C 0.65344 0.70735 0.49983 0.0
C2542 C 0.63456 0.69175 0.53167 0.0
C2543 C 0.61957 0.70945 0.53166 0.0
C2544 C 0.62078 0.72528 0.5148 0.0
H2545 H 0.5365 0.77435 0.628 0.0
H2546 H 0.56147 0.76504 0.59727 0.0
C2547 C 0.63742 0.72414 0.49891 0.0
C2548 C 0.60461 0.71306 0.55068 0.0
H2549 H 0.55126 0.72505 0.56451 0.0
C2550 C 0.61407 0.71502 0.57179 0.0
C2551 C 0.58162 0.7163 0.54804 0.0
C2552 C 0.57029 0.71324 0.52606 0.0
C2553 C 0.60125 0.72075 0.59019 0.0
C2554 C 0.57846 0.72466 0.58737 0.0
C2555 C 0.56886 0.72233 0.56644 0.0
C2556 C 0.56422 0.73058 0.60621 0.0
C2557 C 0.61212 0.72309 0.61249 0.0
C2558 C 0.55763 0.71425 0.62118 0.0
C2559 C 0.54342 0.71949 0.63851 0.0
C2560 C 0.53583 0.74126 0.64141 0.0
C2561 C 0.5425 0.7576 0.62635 0.0
C2562 C 0.55662 0.75229 0.60884 0.0
H2563 H 0.6304 0.72193 0.61146 0.0
H2564 H 0.6076 0.73917 0.62005 0.0
H2565 H 0.60606 0.70985 0.62363 0.0
H2566 H 0.56307 0.69734 0.61911 0.0
H2567 H 0.53771 0.7063 0.64911 0.0
H2568 H 0.35549 0.21408 0.00646 0.0
H2569 H 0.38252 0.21919 0.97702 0.0
H2570 H 0.34155 0.18186 0.93243 0.0
H2571 H 0.31428 0.17658 0.96182 0.0
H2572 H 0.39452 0.17697 0.93211 0.0
H2573 H 0.35767 0.26069 0.92265 0.0
H2574 H 0.36365 0.25152 0.95033 0.0
H2575 H 0.34266 0.23783 0.93457 0.0
C2576 C 0.35244 0.20636 0.9906 0.0
C2577 C 0.33246 0.19525 0.98638 0.0
C2578 C 0.36791 0.20938 0.9738 0.0
C2579 C 0.36375 0.20123 0.95256 0.0
C2580 C 0.3449 0.18838 0.94875 0.0
H2581 H 0.42631 0.25138 0.83216 0.0
H2582 H 0.39908 0.23805 0.85923 0.0
C2583 C 0.32935 0.18535 0.96559 0.0
C2584 C 0.37788 0.20827 0.93399 0.0
H2585 H 0.39014 0.25323 0.90228 0.0
C2586 C 0.39353 0.19356 0.92544 0.0
C2587 C 0.3762 0.22983 0.9252 0.0
C2588 C 0.35907 0.24593 0.93348 0.0
C2589 C 0.40816 0.20017 0.90868 0.0
C2590 C 0.40718 0.22209 0.9006 0.0
C2591 C 0.39095 0.23651 0.90864 0.0
C2592 C 0.42337 0.23061 0.88439 0.0
C2593 C 0.42452 0.18364 0.89976 0.0
C2594 C 0.44585 0.23148 0.88988 0.0
C2595 C 0.46127 0.23901 0.8745 0.0
C2596 C 0.45448 0.24582 0.85339 0.0
C2597 C 0.4319 0.24579 0.84819 0.0
C2598 C 0.41642 0.23827 0.86362 0.0
H2599 H 0.4192 0.16641 0.90308 0.0
H2600 H 0.42682 0.18575 0.88168 0.0
H2601 H 0.44073 0.18621 0.90791 0.0
H2602 H 0.45149 0.22615 0.906 0.0
H2603 H 0.47862 0.23887 0.87882 0.0
H2604 H 0.17805 0.81862 0.46676 0.0
H2605 H 0.14905 0.81662 0.43873 0.0
H2606 H 0.11023 0.77532 0.48187 0.0
H2607 H 0.13894 0.77734 0.50992 0.0
H2608 H 0.13795 0.77669 0.42007 0.0
H2609 H 0.06369 0.81612 0.45601 0.0
H2610 H 0.09111 0.82073 0.46681 0.0
H2611 H 0.07603 0.7962 0.47416 0.0
C2612 C 0.16311 0.80961 0.47052 0.0
C2613 C 0.16101 0.79786 0.49043 0.0
C2614 C 0.14655 0.80846 0.45447 0.0
C2615 C 0.1275 0.7958 0.45821 0.0
C2616 C 0.12463 0.78545 0.47873 0.0
H2617 H 0.04827 0.72446 0.36217 0.0
H2618 H 0.07458 0.7354 0.39124 0.0
C2619 C 0.14115 0.78657 0.49475 0.0
C2620 C 0.11207 0.79098 0.43987 0.0
H2621 H 0.05763 0.79177 0.42538 0.0
C2622 C 0.12042 0.78022 0.4211 0.0
C2623 C 0.08924 0.79561 0.44126 0.0
C2624 C 0.0795 0.808 0.46056 0.0
C2625 C 0.10646 0.77351 0.40388 0.0
C2626 C 0.08351 0.77733 0.40568 0.0
C2627 C 0.07522 0.78858 0.4242 0.0
C2628 C 0.06787 0.7704 0.38822 0.0
C2629 C 0.11644 0.76256 0.38384 0.0
C2630 C 0.05506 0.78634 0.3774 0.0
C2631 C 0.04011 0.78009 0.36106 0.0
C2632 C 0.0378 0.75781 0.3551 0.0
C2633 C 0.05022 0.74176 0.36624 0.0
C2634 C 0.06523 0.74802 0.38268 0.0
H2635 H 0.13445 0.76584 0.38255 0.0
H2636 H 0.11407 0.74444 0.38508 0.0
H2637 H 0.1083 0.76834 0.36845 0.0
H2638 H 0.0566 0.80365 0.38164 0.0
H2639 H 0.02995 0.79265 0.35344 0.0
H2640 H 0.1364 0.97092 0.28956 0.0
H2641 H 0.10601 0.94577 0.29835 0.0
H2642 H 0.10518 0.9233 0.23073 0.0
H2643 H 0.13608 0.94839 0.22204 0.0
H2644 H 0.06324 0.94439 0.27824 0.0
H2645 H 0.11016 0.866 0.26887 0.0
H2646 H 0.12359 0.89242 0.2721 0.0
H2647 H 0.11177 0.88487 0.24598 0.0
C2648 C 0.13001 0.96024 0.27674 0.0
C2649 C 0.13888 0.96093 0.25532 0.0
C2650 C 0.11254 0.94612 0.28168 0.0
C2651 C 0.10362 0.9325 0.26527 0.0
C2652 C 0.11214 0.93346 0.24369 0.0
H2653 H 0.98411 0.85709 0.26209 0.0
H2654 H 0.01152 0.8864 0.25949 0.0
C2655 C 0.12965 0.94772 0.23872 0.0
C2656 C 0.08526 0.91746 0.27089 0.0
H2657 H 0.07179 0.86301 0.27546 0.0
C2658 C 0.06507 0.92659 0.27767 0.0
C2659 C 0.0879 0.8943 0.27046 0.0
C2660 C 0.10955 0.88371 0.26414 0.0
C2661 C 0.04721 0.91308 0.28364 0.0
C2662 C 0.04968 0.88991 0.28264 0.0
C2663 C 0.07001 0.88081 0.27624 0.0
C2664 C 0.03113 0.87468 0.28696 0.0
C2665 C 0.02592 0.92364 0.29106 0.0
C2666 C 0.03275 0.85873 0.30369 0.0
C2667 C 0.01701 0.84193 0.3053 0.0
C2668 C -0.00031 0.84062 0.28992 0.0
C2669 C 0.99727 0.85757 0.27419 0.0
C2670 C 0.01293 0.87439 0.27267 0.0
H2671 H 0.02848 0.94097 0.29648 0.0
H2672 H 0.01407 0.92377 0.27707 0.0
H2673 H 0.01835 0.91418 0.30484 0.0
H2674 H 0.04665 0.8588 0.31496 0.0
H2675 H 0.01895 0.82951 0.31798 0.0
H2676 H 0.47277 0.17237 0.81818 0.0
H2677 H 0.44603 0.14223 0.8157 0.0
H2678 H 0.48742 0.10939 0.76796 0.0
H2679 H 0.51423 0.13923 0.77044 0.0
H2680 H 0.42491 0.13383 0.77638 0.0
H2681 H 0.46689 0.05825 0.80632 0.0
H2682 H 0.47685 0.08565 0.81254 0.0
H2683 H 0.48274 0.07321 0.78622 0.0
C2684 C 0.47645 0.15847 0.80759 0.0
C2685 C 0.49545 0.15839 0.79426 0.0
C2686 C 0.46116 0.14126 0.80619 0.0
C2687 C 0.46474 0.1236 0.79163 0.0
C2688 C 0.48447 0.12268 0.77954 0.0
H2689 H 0.36418 0.04653 0.72362 0.0
H2690 H 0.39438 0.07214 0.7331 0.0
C2691 C 0.49976 0.13985 0.78095 0.0
C2692 C 0.44677 0.10778 0.78685 0.0
H2693 H 0.4343 0.05291 0.78456 0.0
C2694 C 0.42687 0.11614 0.77838 0.0
C2695 C 0.4494 0.08475 0.78946 0.0
C2696 C 0.47005 0.07492 0.79933 0.0
C2697 C 0.40962 0.10206 0.77209 0.0
C2698 C 0.41254 0.07899 0.77398 0.0
C2699 C 0.43227 0.07062 0.78284 0.0
C2700 C 0.39489 0.06331 0.76778 0.0
C2701 C 0.38834 0.112 0.76377 0.0
C2702 C 0.38575 0.04951 0.78396 0.0
C2703 C 0.36877 0.035 0.77852 0.0
C2704 C 0.36052 0.03411 0.75687 0.0
C2705 C 0.37009 0.04737 0.74048 0.0
C2706 C 0.38717 0.06196 0.74591 0.0
H2707 H 0.38688 0.12972 0.76824 0.0
H2708 H 0.38782 0.11072 0.74549 0.0
H2709 H 0.37384 0.10303 0.77053 0.0
H2710 H 0.39166 0.0501 0.80084 0.0
H2711 H 0.36221 0.02422 0.79119 0.0
H2712 H 0.64183 0.52727 0.70767 0.0
H2713 H 0.61229 0.55257 0.69689 0.0
H2714 H 0.60552 0.57341 0.7647 0.0
H2715 H 0.63576 0.54833 0.7754 0.0
H2716 H 0.5687 0.55294 0.71191 0.0
H2717 H 0.61177 0.63187 0.73 0.0
H2718 H 0.6262 0.60589 0.72769 0.0
H2719 H 0.61129 0.61249 0.75248 0.0
C2720 C 0.63444 0.53772 0.72013 0.0
C2721 C 0.64149 0.53657 0.74221 0.0
C2722 C 0.6174 0.55191 0.71403 0.0
C2723 C 0.60701 0.56512 0.72992 0.0
C2724 C 0.61369 0.56367 0.75212 0.0
H2725 H 0.48469 0.63485 0.72714 0.0
H2726 H 0.51307 0.60648 0.7292 0.0
C2727 C 0.63081 0.54939 0.75824 0.0
C2728 C 0.58887 0.57999 0.72316 0.0
H2729 H 0.57374 0.63415 0.72092 0.0
C2730 C 0.5698 0.57071 0.71378 0.0
C2731 C 0.59057 0.60315 0.72526 0.0
C2732 C 0.61112 0.61403 0.73422 0.0
C2733 C 0.55208 0.58401 0.70698 0.0
C2734 C 0.55346 0.6071 0.70986 0.0
C2735 C 0.57276 0.6164 0.71872 0.0
C2736 C 0.53462 0.62194 0.70525 0.0
C2737 C 0.53209 0.57325 0.69673 0.0
C2738 C 0.53704 0.63974 0.69061 0.0
C2739 C 0.52078 0.65606 0.68936 0.0
C2740 C 0.50204 0.655 0.70304 0.0
C2741 C 0.49893 0.63625 0.71642 0.0
C2742 C 0.51514 0.61993 0.71759 0.0
H2743 H 0.53615 0.55678 0.68977 0.0
H2744 H 0.51926 0.57092 0.70961 0.0
H2745 H 0.52503 0.58372 0.68343 0.0
H2746 H 0.55196 0.6415 0.68088 0.0
H2747 H 0.52347 0.67004 0.67857 0.0
H2748 H 0.01346 0.359 0.23246 0.0
H2749 H 0.98502 0.38691 0.23794 0.0
H2750 H 0.94448 0.35573 0.18844 0.0
H2751 H 0.973 0.32774 0.18267 0.0
H2752 H 0.96134 0.41679 0.21014 0.0
H2753 H 0.90825 0.35154 0.24701 0.0
H2754 H 0.93736 0.34763 0.24193 0.0
H2755 H 0.91801 0.34595 0.21952 0.0
C2756 C -0.00125 0.3583 0.22231 0.0
C2757 C 0.99521 0.34068 0.20755 0.0
C2758 C 0.98248 0.37427 0.22554 0.0
C2759 C 0.96245 0.37293 0.21408 0.0
C2760 C 0.95967 0.35664 0.19785 0.0
H2761 H 0.85537 0.46625 0.2135 0.0
H2762 H 0.88596 0.44155 0.20472 0.0
C2763 C 0.97598 0.34067 0.19455 0.0
C2764 C 0.94396 0.38754 0.22037 0.0
H2765 H 0.89261 0.38718 0.24364 0.0
C2766 C 0.94628 0.41037 0.21742 0.0
C2767 C 0.92463 0.37905 0.2304 0.0
C2768 C 0.92188 0.35473 0.23513 0.0
C2769 C 0.92947 0.42497 0.22376 0.0
C2770 C 0.90978 0.41642 0.233 0.0
C2771 C 0.90768 0.39363 0.23641 0.0
C2772 C 0.89085 0.43081 0.23846 0.0
C2773 C 0.93304 0.44945 0.22077 0.0
C2774 C 0.88305 0.43246 0.26027 0.0
C2775 C 0.8652 0.44629 0.26523 0.0
C2776 C 0.85476 0.45825 0.24837 0.0
C2777 C 0.86261 0.45651 0.22661 0.0
C2778 C 0.88035 0.44276 0.22166 0.0
H2779 H 0.95087 0.45358 0.2195 0.0
H2780 H 0.92489 0.45487 0.20527 0.0
H2781 H 0.92577 0.45892 0.23468 0.0
H2782 H 0.89097 0.42329 0.27344 0.0
H2783 H 0.85953 0.44772 0.28213 0.0
H2784 H 0.24538 0.11188 0.98717 0.0
H2785 H 0.25601 0.0818 0.96238 0.0
H2786 H 0.24298 0.12353 0.90609 0.0
H2787 H 0.23147 0.15343 0.93101 0.0
H2788 H 0.22801 0.08058 0.90075 0.0
H2789 H 0.31502 0.08154 0.92943 0.0
H2790 H 0.2953 0.07796 0.95129 0.0
H2791 H 0.29572 0.10332 0.93584 0.0
C2792 C 0.2444 0.11444 0.96949 0.0
C2793 C 0.23798 0.135 0.96091 0.0
C2794 C 0.25076 0.0974 0.95538 0.0
C2795 C 0.25092 0.10069 0.93246 0.0
C2796 C 0.24332 0.12082 0.92378 0.0
H2797 H 0.31365 0.02328 0.83008 0.0
H2798 H 0.30584 0.05069 0.85863 0.0
C2799 C 0.23687 0.13787 0.93794 0.0
C2800 C 0.25919 0.08317 0.9176 0.0
H2801 H 0.30459 0.05176 0.90597 0.0
C2802 C 0.24475 0.0743 0.90185 0.0
C2803 C 0.28117 0.0753 0.91887 0.0
C2804 C 0.29779 0.08515 0.93461 0.0
C2805 C 0.25156 0.0574 0.88759 0.0
C2806 C 0.27326 0.04888 0.88949 0.0
C2807 C 0.28787 0.05808 0.90489 0.0
C2808 C 0.28106 0.03086 0.87503 0.0
C2809 C 0.23559 0.04903 0.87036 0.0
C2810 C 0.27078 0.01016 0.87572 0.0
C2811 C 0.27509 0.99456 0.85934 0.0
C2812 C 0.28979 -0.00056 0.84198 0.0
C2813 C 0.30186 0.01924 0.8428 0.0
C2814 C 0.29745 0.0349 0.85917 0.0
H2815 H 0.22169 0.0607 0.86766 0.0
H2816 H 0.24409 0.04626 0.85434 0.0
H2817 H 0.22856 0.03305 0.87591 0.0
H2818 H 0.25848 0.00655 0.88821 0.0
H2819 H 0.26573 0.97933 0.85947 0.0
H2820 H 0.72327 0.35529 0.05147 0.0
H2821 H 0.7322 0.38594 0.07672 0.0
H2822 H 0.80079 0.38117 0.0581 0.0
H2823 H 0.79179 0.35132 0.03257 0.0
H2824 H 0.76273 0.38666 0.11285 0.0
H2825 H 0.78523 0.44641 0.04699 0.0
H2826 H 0.76998 0.4214 0.04149 0.0
H2827 H 0.79938 0.42041 0.04534 0.0
C2828 C 0.74021 0.36078 0.05302 0.0
C2829 C 0.75695 0.35061 0.04066 0.0
C2830 C 0.7453 0.3782 0.06733 0.0
C2831 C 0.76713 0.38586 0.0691 0.0
C2832 C 0.78384 0.37561 0.05683 0.0
H2833 H 0.81843 0.47076 0.17333 0.0
H2834 H 0.81521 0.44193 0.14517 0.0
C2835 C 0.77876 0.35827 0.0426 0.0
C2836 C 0.77257 0.40457 0.08378 0.0
H2837 H 0.79317 0.45706 0.08391 0.0
C2838 C 0.76938 0.40206 0.10657 0.0
C2839 C 0.78109 0.42466 0.07541 0.0
C2840 C 0.78396 0.42855 0.05095 0.0
C2841 C 0.77466 0.4191 0.12132 0.0
C2842 C 0.78366 0.439 0.11301 0.0
C2843 C 0.78664 0.44161 0.09019 0.0
C2844 C 0.78839 0.45785 0.12774 0.0
C2845 C 0.77008 0.41591 0.14563 0.0
C2846 C 0.77531 0.47686 0.12639 0.0
C2847 C 0.77702 0.49323 0.14249 0.0
C2848 C 0.79183 0.4908 0.16025 0.0
C2849 C 0.80637 0.47273 0.16033 0.0
C2850 C 0.8046 0.45629 0.14422 0.0
H2851 H 0.75934 0.40137 0.14877 0.0
H2852 H 0.78592 0.41332 0.15449 0.0
H2853 H 0.76203 0.43078 0.15271 0.0
H2854 H 0.76287 0.47844 0.11362 0.0
H2855 H 0.76567 0.50704 0.14176 0.0
H2856 H 0.70532 0.63921 0.52723 0.0
H2857 H 0.69657 0.60904 0.55264 0.0
H2858 H 0.7641 0.60854 0.5753 0.0
H2859 H 0.77275 0.63926 0.54999 0.0
H2860 H 0.71672 0.56641 0.5542 0.0
H2861 H 0.72608 0.61327 0.63262 0.0
H2862 H 0.72278 0.62668 0.60618 0.0
H2863 H 0.74896 0.61504 0.61377 0.0
C2864 C 0.71812 0.63301 0.53805 0.0
C2865 C 0.73952 0.64193 0.53731 0.0
C2866 C 0.7132 0.61562 0.55231 0.0
C2867 C 0.7296 0.60683 0.56605 0.0
C2868 C 0.75113 0.61542 0.56507 0.0
H2869 H 0.7346 0.4869 0.6408 0.0
H2870 H 0.73662 0.51464 0.61171 0.0
C2871 C 0.75609 0.63282 0.55067 0.0
C2872 C 0.72408 0.58844 0.58113 0.0
H2873 H 0.72021 0.57476 0.63565 0.0
C2874 C 0.71742 0.5682 0.57202 0.0
C2875 C 0.72468 0.59102 0.60432 0.0
C2876 C 0.73083 0.61271 0.6149 0.0
C2877 C 0.71182 0.55023 0.58556 0.0
C2878 C 0.71307 0.55262 0.60874 0.0
C2879 C 0.71927 0.57301 0.61784 0.0
C2880 C 0.7092 0.53394 0.62399 0.0
C2881 C 0.70453 0.5289 0.575 0.0
C2882 C 0.69271 0.53529 0.64023 0.0
C2883 C 0.69145 0.51937 0.6569 0.0
C2884 C 0.70691 0.50209 0.65781 0.0
C2885 C 0.72242 0.49999 0.64063 0.0
C2886 C 0.72361 0.51584 0.62393 0.0
H2887 H 0.69877 0.5315 0.55776 0.0
H2888 H 0.71868 0.51728 0.57455 0.0
H2889 H 0.69104 0.52108 0.58465 0.0
H2890 H 0.68136 0.5491 0.64045 0.0
H2891 H 0.67895 0.52111 0.66953 0.0
H2892 H 0.25151 0.87689 0.48269 0.0
H2893 H 0.24081 0.90666 0.45758 0.0
H2894 H 0.24698 0.8623 0.40219 0.0
H2895 H 0.25862 0.83264 0.42736 0.0
H2896 H 0.26428 0.90371 0.39402 0.0
H2897 H 0.17991 0.91044 0.42885 0.0
H2898 H 0.20116 0.91314 0.44934 0.0
H2899 H 0.19796 0.88746 0.43476 0.0
C2900 C 0.25094 0.87364 0.46511 0.0
C2901 C 0.25551 0.85244 0.45693 0.0
C2902 C 0.24452 0.89052 0.45084 0.0
C2903 C 0.24243 0.88647 0.42814 0.0
C2904 C 0.24811 0.86562 0.41974 0.0
H2905 H 0.18045 0.97234 0.3306 0.0
H2906 H 0.18726 0.94258 0.35713 0.0
C2907 C 0.25463 0.8487 0.43406 0.0
C2908 C 0.23439 0.90411 0.41327 0.0
H2909 H 0.1914 0.93968 0.40489 0.0
C2910 C 0.2483 0.91148 0.39629 0.0
C2911 C 0.21335 0.91393 0.41605 0.0
C2912 C 0.19712 0.9057 0.43309 0.0
C2913 C 0.24205 0.92898 0.38249 0.0
C2914 C 0.22155 0.93961 0.38609 0.0
C2915 C 0.20727 0.93173 0.40251 0.0
C2916 C 0.21486 0.95894 0.37281 0.0
C2917 C 0.2574 0.93592 0.36409 0.0
C2918 C 0.22721 0.97846 0.37386 0.0
C2919 C 0.22347 0.99536 0.35866 0.0
C2920 C 0.20732 0.99296 0.34211 0.0
C2921 C 0.19343 0.97436 0.34265 0.0
C2922 C 0.19723 0.9574 0.35787 0.0
H2923 H 0.26971 0.92289 0.3602 0.0
H2924 H 0.248 0.93985 0.34883 0.0
H2925 H 0.2665 0.95098 0.36918 0.0
H2926 H 0.24055 0.98012 0.38566 0.0
H2927 H 0.23432 0.00956 0.35896 0.0
H2928 H 0.00489 0.74106 0.88249 0.0
H2929 H 0.03 0.73064 0.9125 0.0
H2930 H 0.08554 0.75206 0.87334 0.0
H2931 H 0.06025 0.76292 0.84343 0.0
H2932 H 0.06496 0.69908 0.90875 0.0
H2933 H 0.0946 0.7821 0.93425 0.0
H2934 H 0.0699 0.77818 0.918 0.0
H2935 H 0.09659 0.77629 0.9052 0.0
C2936 C 0.02243 0.74393 0.88055 0.0
C2937 C 0.03076 0.75273 0.86077 0.0
C2938 C 0.03673 0.73781 0.89754 0.0
C2939 C 0.05957 0.74062 0.89511 0.0
C2940 C 0.06792 0.74994 0.87557 0.0
H2941 H 0.16885 0.68453 0.96675 0.0
H2942 H 0.13873 0.69039 0.94059 0.0
C2943 C 0.05357 0.756 0.8585 0.0
C2944 C 0.07463 0.73307 0.91278 0.0
H2945 H 0.1126 0.75124 0.95015 0.0
C2946 C 0.07535 0.71046 0.91789 0.0
C2947 C 0.08793 0.74801 0.92475 0.0
C2948 C 0.08717 0.77253 0.92047 0.0
C2949 C 0.08936 0.70233 0.93449 0.0
C2950 C 0.10303 0.71722 0.9461 0.0
C2951 C 0.10206 0.73986 0.94119 0.0
C2952 C 0.11895 0.70986 0.9631 0.0
C2953 C 0.08932 0.67797 0.93961 0.0
C2954 C 0.11748 0.71824 0.98462 0.0
C2955 C 0.1347 0.71498 -0.00042 0.0
C2956 C 0.15383 0.70344 0.99318 0.0
C2957 C 0.15443 0.69352 0.97219 0.0
C2958 C 0.13717 0.69682 0.95721 0.0
H2959 H 0.07423 0.66971 0.93323 0.0
H2960 H 0.10387 0.67014 0.93168 0.0
H2961 H 0.09047 0.67508 0.95769 0.0
H2962 H 0.1035 0.7283 0.98948 0.0
H2963 H 0.13361 0.72275 0.01566 0.0
H2964 H 0.42844 0.23528 0.33417 0.0
H2965 H 0.4019 0.2479 0.36223 0.0
H2966 H 0.45582 0.26372 0.40602 0.0
H2967 H 0.48222 0.25176 0.37783 0.0
H2968 H 0.39538 0.23437 0.40634 0.0
H2969 H 0.42122 0.32209 0.4016 0.0
H2970 H 0.42862 0.302 0.38085 0.0
H2971 H 0.44364 0.3033 0.40644 0.0
C2972 C 0.4345 0.24149 0.3498 0.0
C2973 C 0.45728 0.24289 0.35382 0.0
C2974 C 0.41941 0.24861 0.36579 0.0
C2975 C 0.42697 0.25726 0.38594 0.0
C2976 C 0.44969 0.25759 0.39036 0.0
H2977 H 0.3596 0.27611 0.50855 0.0
H2978 H 0.38658 0.26968 0.47934 0.0
C2979 C 0.46472 0.2505 0.37442 0.0
C2980 C 0.4112 0.26595 0.40245 0.0
H2981 H 0.39799 0.3122 0.43195 0.0
C2982 C 0.39583 0.25141 0.41183 0.0
C2983 C 0.41166 0.28828 0.40932 0.0
C2984 C 0.42702 0.3049 0.3989 0.0
C2985 C 0.3814 0.25843 0.42851 0.0
C2986 C 0.38262 0.28047 0.43613 0.0
C2987 C 0.39741 0.29524 0.42624 0.0
C2988 C 0.36867 0.28814 0.45458 0.0
C2989 C 0.36498 0.24224 0.43799 0.0
C2990 C 0.35044 0.30183 0.45059 0.0
C2991 C 0.33496 0.30565 0.4673 0.0
C2992 C 0.33751 0.29573 0.48817 0.0
C2993 C 0.35697 0.28383 0.49262 0.0
C2994 C 0.37238 0.28002 0.47593 0.0
H2995 H 0.36317 0.22734 0.42744 0.0
H2996 H 0.37065 0.23687 0.45458 0.0
H2997 H 0.34853 0.2501 0.43995 0.0
H2998 H 0.34748 0.3084 0.4342 0.0
H2999 H 0.3203 0.31504 0.46338 0.0
H3000 H 0.63705 0.7748 0.98345 0.0
H3001 H 0.60756 0.77174 0.0107 0.0
H3002 H 0.64525 0.81128 0.05633 0.0
H3003 H 0.67481 0.81468 0.02904 0.0
H3004 H 0.61782 0.75098 0.05161 0.0
H3005 H 0.58091 0.83419 0.06344 0.0
H3006 H 0.59597 0.82665 0.03879 0.0
H3007 H 0.61058 0.83297 0.0638 0.0
C3008 C 0.63885 0.78343 -0.00099 0.0
C3009 C 0.65849 0.7947 0.00421 0.0
C3010 C 0.62197 0.7816 0.01458 0.0
C3011 C 0.6243 0.79117 0.03553 0.0
C3012 C 0.64307 0.80392 0.04017 0.0
H3013 H 0.56264 0.7459 0.15751 0.0
H3014 H 0.58914 0.75644 0.12854 0.0
C3015 C 0.66 0.80578 0.02456 0.0
C3016 C 0.60861 0.78528 0.05328 0.0
H3017 H 0.57041 0.80631 0.08897 0.0
C3018 C 0.6074 0.76306 0.05975 0.0
C3019 C 0.59511 0.8011 0.06382 0.0
C3020 C 0.59549 0.82506 0.05707 0.0
C3021 C 0.59304 0.7562 0.07656 0.0
C3022 C 0.57973 0.77204 0.08729 0.0
C3023 C 0.58081 0.79427 0.08076 0.0
C3024 C 0.56401 0.76567 0.10483 0.0
C3025 C 0.59194 0.73203 0.08249 0.0
C3026 C 0.54125 0.76743 0.10102 0.0
C3027 C 0.52626 0.76146 0.11747 0.0
C3028 C 0.5338 0.75387 0.13804 0.0
C3029 C 0.55656 0.75193 0.14182 0.0
C3030 C 0.57161 0.75782 0.1253 0.0
H3031 H 0.60008 0.72149 0.06987 0.0
H3032 H 0.6004 0.72934 0.09853 0.0
H3033 H 0.57451 0.72662 0.08435 0.0
H3034 H 0.53511 0.77343 0.08531 0.0
H3035 H 0.50874 0.76323 0.11436 0.0
H3036 H 0.85639 0.23438 0.48217 0.0
H3037 H 0.88623 0.23634 0.50905 0.0
H3038 H 0.85841 0.18114 0.5444 0.0
H3039 H 0.82853 0.17881 0.51725 0.0
H3040 H 0.8635 0.21992 0.56976 0.0
H3041 H 0.94067 0.1991 0.52499 0.0
H3042 H 0.92358 0.21891 0.51102 0.0
H3043 H 0.91367 0.19123 0.51504 0.0
C3044 C 0.85691 0.22219 0.49526 0.0
C3045 C 0.83974 0.20676 0.49792 0.0
C3046 C 0.87405 0.22333 0.51061 0.0
C3047 C 0.87445 0.20895 0.52874 0.0
C3048 C 0.85827 0.19247 0.53055 0.0
H3049 H 0.9728 0.20622 0.63238 0.0
H3050 H 0.9473 0.19735 0.60227 0.0
C3051 C 0.84114 0.19125 0.51513 0.0
C3052 C 0.89003 0.21299 0.54709 0.0
H3053 H 0.94476 0.21745 0.55969 0.0
C3054 C 0.88128 0.21918 0.56764 0.0
C3055 C 0.91316 0.21204 0.5442 0.0
C3056 C 0.92338 0.20477 0.52268 0.0
C3057 C 0.89508 0.22487 0.58534 0.0
C3058 C 0.91819 0.22458 0.58225 0.0
C3059 C 0.92698 0.21793 0.56185 0.0
C3060 C 0.93355 0.23025 0.60034 0.0
C3061 C 0.88486 0.23096 0.60724 0.0
C3062 C 0.93438 0.25176 0.60901 0.0
C3063 C 0.94885 0.25677 0.62634 0.0
C3064 C 0.96241 0.24027 0.63524 0.0
C3065 C 0.96188 0.21894 0.6262 0.0
C3066 C 0.94756 0.21396 0.6089 0.0
H3067 H 0.86722 0.22598 0.60819 0.0
H3068 H 0.89396 0.22308 0.62108 0.0
H3069 H 0.88579 0.24911 0.60948 0.0
H3070 H 0.92393 0.26463 0.60231 0.0
H3071 H 0.94938 0.27337 0.63292 0.0
H3072 H 0.8807 0.00681 0.73987 0.0
H3073 H 0.91114 0.0315 0.72979 0.0
H3074 H 0.87046 0.08786 0.74532 0.0
H3075 H 0.84015 0.06303 0.75599 0.0
H3076 H 0.91017 0.06436 0.69634 0.0
H3077 H 0.92851 0.09908 0.77932 0.0
H3078 H 0.9124 0.07429 0.77554 0.0
H3079 H 0.9001 0.10088 0.77092 0.0
C3080 C 0.87847 0.02447 0.74147 0.0
C3081 C 0.85818 0.03313 0.74859 0.0
C3082 C 0.89572 0.03852 0.73554 0.0
C3083 C 0.89303 0.06146 0.73685 0.0
C3084 C 0.87289 0.07018 0.74437 0.0
H3085 H 0.97139 0.16603 0.67962 0.0
H3086 H 0.94405 0.13696 0.68522 0.0
C3087 C 0.85558 0.05607 0.75028 0.0
C3088 C 0.91122 0.07617 0.72989 0.0
H3089 H 0.94703 0.11518 0.74889 0.0
C3090 C 0.91831 0.07546 0.7078 0.0
C3091 C 0.92188 0.0904 0.74497 0.0
C3092 C 0.91552 0.09116 0.76906 0.0
C3093 C 0.93567 0.08887 0.70032 0.0
C3094 C 0.94601 0.10344 0.71531 0.0
C3095 C 0.93904 0.10397 0.73743 0.0
C3096 C 0.96392 0.11861 0.70859 0.0
C3097 C 0.94301 0.08717 0.67657 0.0
C3098 C 0.9844 0.11759 0.71933 0.0
C3099 C -7e-05 0.13432 0.71634 0.0
C3100 C 0.99517 0.15254 0.70269 0.0
C3101 C 0.97542 0.15251 0.6905 0.0
C3102 C 0.95982 0.13577 0.69356 0.0
H3103 H 0.93737 0.07152 0.66883 0.0
H3104 H 0.93586 0.10109 0.66704 0.0
H3105 H 0.96127 0.08818 0.67526 0.0
H3106 H 0.98791 0.10441 0.73091 0.0
H3107 H 0.01506 0.13365 0.72587 0.0
H3108 H 0.6345 0.96948 0.2108 0.0
H3109 H 0.60364 0.94505 0.20209 0.0
H3110 H 0.59812 0.92747 0.27096 0.0
H3111 H 0.62981 0.95159 0.27956 0.0
H3112 H 0.59691 0.89125 0.24237 0.0
H3113 H 0.53855 0.95622 0.21507 0.0
H3114 H 0.56463 0.95741 0.20104 0.0
H3115 H 0.56343 0.96232 0.23032 0.0
C3116 C 0.627 0.96001 0.22397 0.0
C3117 C 0.63484 0.96177 0.24573 0.0
C3118 C 0.60912 0.94643 0.21907 0.0
C3119 C 0.59844 0.93468 0.23591 0.0
C3120 C 0.60614 0.93649 0.25775 0.0
H3121 H 0.4772 0.86014 0.22765 0.0
H3122 H 0.50448 0.88926 0.23314 0.0
C3123 C 0.62414 0.95015 0.26266 0.0
C3124 C 0.57974 0.91998 0.23041 0.0
H3125 H 0.52894 0.91904 0.2059 0.0
C3126 C 0.58199 0.89732 0.23453 0.0
C3127 C 0.56023 0.92802 0.22037 0.0
C3128 C 0.55642 0.95235 0.21663 0.0
C3129 C 0.56543 0.88236 0.22838 0.0
C3130 C 0.54635 0.8903 0.21744 0.0
C3131 C 0.54382 0.91301 0.21386 0.0
C3132 C 0.52843 0.87519 0.2107 0.0
C3133 C 0.56836 0.85823 0.23389 0.0
C3134 C 0.53236 0.85846 0.19518 0.0
C3135 C 0.51676 0.84179 0.19192 0.0
C3136 C 0.49706 0.84161 0.2042 0.0
C3137 C 0.4923 0.85965 0.21806 0.0
C3138 C 0.50789 0.8763 0.22129 0.0
H3139 H 0.58141 0.85561 0.24654 0.0
H3140 H 0.55269 0.85099 0.24008 0.0
H3141 H 0.57322 0.84913 0.21875 0.0
H3142 H 0.54797 0.85766 0.18647 0.0
H3143 H 0.5208 0.82835 0.18088 0.0
H3144 H 0.4624 0.31718 0.3119 0.0
H3145 H 0.43407 0.34549 0.30661 0.0
H3146 H 0.48025 0.38491 0.26947 0.0
H3147 H 0.50859 0.35675 0.27449 0.0
H3148 H 0.43269 0.39542 0.31257 0.0
H3149 H 0.4285 0.36497 0.22598 0.0
H3150 H 0.44089 0.34916 0.24803 0.0
H3151 H 0.45561 0.37188 0.23596 0.0
C3152 C 0.46672 0.3321 0.30312 0.0
C3153 C 0.48759 0.33445 0.29319 0.0
C3154 C 0.45051 0.34825 0.30011 0.0
C3155 C 0.45503 0.36695 0.28724 0.0
C3156 C 0.47644 0.37037 0.27918 0.0
H3157 H 0.37941 0.48256 0.25451 0.0
H3158 H 0.40737 0.45568 0.26602 0.0
C3159 C 0.49261 0.35427 0.28215 0.0
C3160 C 0.43696 0.38163 0.28012 0.0
H3161 H 0.40759 0.39687 0.23447 0.0
C3162 C 0.42711 0.39575 0.29555 0.0
C3163 C 0.42953 0.3816 0.25796 0.0
C3164 C 0.439 0.36599 0.241 0.0
C3165 C 0.41036 0.41045 0.28918 0.0
C3166 C 0.40359 0.41107 0.2668 0.0
C3167 C 0.41299 0.39644 0.25156 0.0
C3168 C 0.38711 0.42716 0.25879 0.0
C3169 C 0.39996 0.42511 0.30642 0.0
C3170 C 0.36692 0.41994 0.24998 0.0
C3171 C 0.35106 0.43529 0.24317 0.0
C3172 C 0.3553 0.45797 0.245 0.0
C3173 C 0.37589 0.46511 0.2529 0.0
C3174 C 0.39169 0.44982 0.25973 0.0
H3175 H 0.40282 0.41873 0.3234 0.0
H3176 H 0.40736 0.44184 0.30534 0.0
H3177 H 0.3819 0.42669 0.30367 0.0
H3178 H 0.36326 0.40248 0.24884 0.0
H3179 H 0.33539 0.42951 0.23681 0.0
H3180 H 0.1306 0.54369 0.72005 0.0
H3181 H 0.10217 0.57061 0.7311 0.0
H3182 H 0.12264 0.56424 0.79906 0.0
H3183 H 0.1506 0.53728 0.78812 0.0
H3184 H 0.07608 0.55975 0.7914 0.0
H3185 H 0.11166 0.63533 0.75321 0.0
H3186 H 0.10932 0.61172 0.73536 0.0
H3187 H 0.12787 0.61085 0.75847 0.0
C3188 C 0.12916 0.54841 0.73724 0.0
C3189 C 0.14314 0.53902 0.75314 0.0
C3190 C 0.11303 0.56371 0.74354 0.0
C3191 C 0.11058 0.56958 0.76586 0.0
C3192 C 0.12445 0.56009 0.78175 0.0
H3193 H 0.03208 0.67901 0.81466 0.0
H3194 H 0.06065 0.65073 0.81138 0.0
C3195 C 0.14056 0.54492 0.77545 0.0
C3196 C 0.09301 0.58498 0.77289 0.0
H3197 H 0.07583 0.6384 0.76858 0.0
C3198 C 0.07602 0.57698 0.7865 0.0
C3199 C 0.09322 0.60745 0.76667 0.0
C3200 C 0.11156 0.61699 0.75277 0.0
C3201 C 0.05889 0.59082 0.79367 0.0
C3202 C 0.05877 0.61314 0.78693 0.0
C3203 C 0.07602 0.62124 0.77371 0.0
C3204 C 0.04042 0.62826 0.79241 0.0
C3205 C 0.0411 0.58153 0.80842 0.0
C3206 C 0.01939 0.62461 0.78346 0.0
C3207 C 0.00305 0.64076 0.78526 0.0
C3208 C 0.00751 0.6609 0.79596 0.0
C3209 C 0.0281 0.66378 0.80628 0.0
C3210 C 0.04449 0.64766 0.80437 0.0
H3211 H 0.04646 0.566 0.81658 0.0
H3212 H 0.03631 0.59364 0.82133 0.0
H3213 H 0.02625 0.57783 0.79833 0.0
H3214 H 0.016 0.60986 0.77395 0.0
H3215 H 0.98735 0.63798 0.77714 0.0
H3216 H 0.75657 0.8334 0.06711 0.0
H3217 H 0.7449 0.86203 0.09343 0.0
H3218 H 0.73371 0.90703 0.03932 0.0
H3219 H 0.74458 0.87826 0.0131 0.0
H3220 H 0.76105 0.90433 0.10107 0.0
H3221 H 0.67434 0.90725 0.07179 0.0
H3222 H 0.69304 0.88519 0.06456 0.0
H3223 H 0.69421 0.91112 0.05012 0.0
C3224 C 0.75149 0.84938 0.06095 0.0
C3225 C 0.75105 0.8536 0.03816 0.0
C3226 C 0.74495 0.86571 0.07592 0.0
C3227 C 0.73788 0.88641 0.06823 0.0
C3228 C 0.73854 0.89097 0.04553 0.0
H3229 H 0.72757 0.00817 0.13909 0.0
H3230 H 0.73341 0.9793 0.11171 0.0
C3231 C 0.74503 0.87468 0.03062 0.0
C3232 C 0.72995 0.9034 0.08387 0.0
H3233 H 0.68579 0.93645 0.09574 0.0
C3234 C 0.74456 0.91125 0.10001 0.0
C3235 C 0.70829 0.91212 0.08265 0.0
C3236 C 0.69147 0.90335 0.0665 0.0
C3237 C 0.73834 0.92818 0.1145 0.0
C3238 C 0.71709 0.93769 0.1125 0.0
C3239 C 0.70218 0.92933 0.09692 0.0
C3240 C 0.71033 0.95645 0.12651 0.0
C3241 C 0.75454 0.93576 0.13188 0.0
C3242 C 0.69423 0.95367 0.14293 0.0
C3243 C 0.69068 0.97026 0.15859 0.0
C3244 C 0.70329 0.98974 0.15808 0.0
C3245 C 0.71777 0.99325 0.14022 0.0
C3246 C 0.72127 0.97672 0.12461 0.0
H3247 H 0.76791 0.9235 0.13459 0.0
H3248 H 0.76226 0.95148 0.12647 0.0
H3249 H 0.74605 0.93881 0.14786 0.0
H3250 H 0.68535 0.93821 0.14438 0.0
H3251 H 0.679 0.96728 0.17171 0.0
H3252 H 0.17923 0.52589 0.82098 0.0
H3253 H 0.18348 0.55488 0.84879 0.0
H3254 H 0.22513 0.51199 0.88743 0.0
H3255 H 0.22124 0.48301 0.85973 0.0
H3256 H 0.17894 0.55706 0.89834 0.0
H3257 H 0.26442 0.56594 0.86592 0.0
H3258 H 0.24295 0.55163 0.85097 0.0
H3259 H 0.2565 0.53843 0.87381 0.0
C3260 C 0.18884 0.5224 0.83565 0.0
C3261 C 0.20033 0.50233 0.83788 0.0
C3262 C 0.19123 0.53899 0.85151 0.0
C3263 C 0.20503 0.53565 0.8698 0.0
C3264 C 0.21469 0.51491 0.87319 0.0
H3265 H 0.23525 0.61589 0.98313 0.0
H3266 H 0.22423 0.5869 0.95717 0.0
C3267 C 0.21234 0.49835 0.85737 0.0
C3268 C 0.21134 0.55441 0.88401 0.0
H3269 H 0.25532 0.58687 0.89766 0.0
C3270 C 0.19559 0.56366 0.8982 0.0
C3271 C 0.23297 0.56319 0.88336 0.0
C3272 C 0.25019 0.55447 0.86759 0.0
C3273 C 0.20116 0.58114 0.91237 0.0
C3274 C 0.22308 0.58928 0.91241 0.0
C3275 C 0.2386 0.58045 0.8977 0.0
C3276 C 0.23038 0.6066 0.92798 0.0
C3277 C 0.18354 0.59084 0.92707 0.0
C3278 C 0.23838 0.62689 0.9201 0.0
C3279 C 0.24491 0.64334 0.93492 0.0
C3280 C 0.24361 0.63963 0.95776 0.0
C3281 C 0.23639 0.61903 0.96556 0.0
C3282 C 0.22985 0.60264 0.95079 0.0
H3283 H 0.1667 0.58699 0.92091 0.0
H3284 H 0.18516 0.58376 0.9439 0.0
H3285 H 0.18534 0.60904 0.92834 0.0
H3286 H 0.23922 0.6301 0.90251 0.0
H3287 H 0.25083 0.65898 0.92862 0.0
H3288 H 0.25598 0.38192 0.48521 0.0
H3289 H 0.26638 0.41097 0.45899 0.0
H3290 H 0.24747 0.36882 0.40477 0.0
H3291 H 0.23664 0.33986 0.43115 0.0
H3292 H 0.29906 0.40608 0.42463 0.0
H3293 H 0.21597 0.42869 0.39256 0.0
H3294 H 0.21976 0.41382 0.41815 0.0
H3295 H 0.22262 0.39976 0.3922 0.0
C3296 C 0.25366 0.3791 0.4677 0.0
C3297 C 0.24558 0.35876 0.46008 0.0
C3298 C 0.25977 0.39555 0.45278 0.0
C3299 C 0.25768 0.392 0.43 0.0
C3300 C 0.24906 0.37189 0.42232 0.0
H3301 H 0.31279 0.46547 0.3203 0.0
H3302 H 0.30718 0.43817 0.34952 0.0
C3303 C 0.24301 0.35537 0.4373 0.0
C3304 C 0.26515 0.40919 0.41435 0.0
H3305 H 0.24674 0.4455 0.37545 0.0
C3306 C 0.28767 0.41474 0.41386 0.0
C3307 C 0.25016 0.42048 0.4005 0.0
C3308 C 0.22574 0.41558 0.40089 0.0
C3309 C 0.29563 0.43127 0.39968 0.0
C3310 C 0.28067 0.4424 0.38569 0.0
C3311 C 0.25815 0.43689 0.38626 0.0
C3312 C 0.28779 0.45988 0.37022 0.0
C3313 C 0.31987 0.43698 0.39996 0.0
C3314 C 0.2794 0.4813 0.37257 0.0
C3315 C 0.28255 0.4969 0.35592 0.0
C3316 C 0.29396 0.49126 0.33647 0.0
C3317 C 0.30386 0.47032 0.33498 0.0
C3318 C 0.3007 0.45469 0.3517 0.0
H3319 H 0.32838 0.43004 0.41467 0.0
H3320 H 0.32785 0.43014 0.38494 0.0
H3321 H 0.32221 0.45516 0.39977 0.0
H3322 H 0.26945 0.48561 0.38681 0.0
H3323 H 0.2748 0.51292 0.35771 0.0
H3324 H 0.78931 0.14428 0.531 0.0
H3325 H 0.7984 0.11459 0.55666 0.0
H3326 H 0.72937 0.10716 0.57259 0.0
H3327 H 0.72032 0.13778 0.54733 0.0
H3328 H 0.75738 0.10668 0.60969 0.0
H3329 H 0.7869 0.04924 0.54476 0.0
H3330 H 0.8003 0.07566 0.54421 0.0
H3331 H 0.77121 0.07381 0.53853 0.0
C3332 C 0.77616 0.13681 0.54048 0.0
C3333 C 0.75418 0.14376 0.53781 0.0
C3334 C 0.78131 0.11953 0.55477 0.0
C3335 C 0.76454 0.10853 0.56631 0.0
C3336 C 0.74254 0.11545 0.56377 0.0
H3337 H 0.76927 0.98578 0.63766 0.0
H3338 H 0.76528 0.01439 0.60958 0.0
C3339 C 0.73738 0.13286 0.54944 0.0
C3340 C 0.77012 0.08989 0.58108 0.0
H3341 H 0.7942 0.03891 0.58201 0.0
C3342 C 0.76538 0.09183 0.60366 0.0
C3343 C 0.78036 0.07047 0.57307 0.0
C3344 C 0.78482 0.06701 0.54879 0.0
C3345 C 0.7709 0.07497 0.61856 0.0
C3346 C 0.78182 0.05588 0.61066 0.0
C3347 C 0.78623 0.05377 0.58803 0.0
C3348 C 0.78743 0.03738 0.62557 0.0
C3349 C 0.7646 0.07753 0.64256 0.0
C3350 C 0.80224 0.04037 0.64313 0.0
C3351 C 0.80465 0.02399 0.65922 0.0
C3352 C 0.79221 0.00443 0.65799 0.0
C3353 C 0.77896 0.00073 0.63925 0.0
C3354 C 0.77659 0.01709 0.62318 0.0
H3355 H 0.75221 0.09083 0.64502 0.0
H3356 H 0.75777 0.06187 0.64922 0.0
H3357 H 0.77952 0.08178 0.65231 0.0
H3358 H 0.81115 0.05577 0.64493 0.0
H3359 H 0.81523 0.02723 0.67323 0.0
loop_
_geom_bond_atom_site_label_1
_geom_bond_atom_site_label_2
_geom_bond_distance
_geom_bond_site_symmetry_2
_ccdc_geom_bond_type
Zn0 O1 2.055 . S
Zn0 O8 2.046 . S
Zn0 N16 2.036 . S
Zn0 O28 2.053 . S
Zn0 O30 2.066 . S
O1 Zn0 2.055 . S
O1 C4 1.259 . S
C2 O30 1.256 . S
C2 O31 1.244 . S
Zn3 O5 2.046 . S
Zn3 O7 2.055 . S
Zn3 N9 2.036 . S
Zn3 O27 2.066 . S
Zn3 O31 2.053 . S
C4 O1 1.259 . S
C4 O5 1.254 . S
O5 Zn3 2.046 . S
O5 C4 1.254 . S
C6 O27 1.256 . S
C6 O28 1.244 . S
O7 Zn3 2.055 . S
O7 C29 1.259 . S
O8 Zn0 2.046 . S
O8 C29 1.254 . S
N9 Zn3 2.036 . S
N9 C10 1.298 . S
N9 N12 1.398 . S
C10 N9 1.298 . S
C10 N13 1.367 . S
C10 C23 1.481 . S
C11 N12 1.299 . S
C11 N13 1.379 . S
N12 N9 1.398 . S
N12 C11 1.299 . S
N13 C10 1.367 . S
N13 C11 1.379 . S
C14 N16 1.298 1_655 S
C14 N18 1.367 . S
C14 C22 1.481 . S
C15 N17 1.299 1_655 S
C15 N18 1.379 . S
N16 Zn0 2.036 . S
N16 C14 1.298 1_455 S
N16 N17 1.398 . S
N17 C15 1.299 1_455 S
N17 N16 1.398 . S
N18 C14 1.367 . S
N18 C15 1.379 . S
H19 C22 0.980 . S
H20 C22 0.981 . S
H21 C22 0.981 . S
C22 C14 1.481 . S
C22 H19 0.980 . S
C22 H20 0.981 . S
C22 H21 0.981 . S
C23 C10 1.481 . S
C23 H24 0.980 . S
C23 H25 0.981 . S
C23 H26 0.981 . S
H24 C23 0.980 . S
H25 C23 0.981 . S
H26 C23 0.981 . S
O27 Zn3 2.066 . S
O27 C6 1.256 . S
O28 Zn0 2.053 . S
O28 C6 1.244 . S
C29 O7 1.259 . S
C29 O8 1.254 . S
O30 Zn0 2.066 . S
O30 C2 1.256 . S
O31 C2 1.244 . S
O31 Zn3 2.053 . S
Zn32 O33 2.055 . S
Zn32 O40 2.046 . S
Zn32 N48 2.036 . S
Zn32 O60 2.053 . S
Zn32 O62 2.066 . S
O33 Zn32 2.055 . S
O33 C36 1.259 . S
C34 O62 1.256 . S
C34 O63 1.244 . S
Zn35 O37 2.046 . S
Zn35 O39 2.055 . S
Zn35 N41 2.036 . S
Zn35 O59 2.066 . S
Zn35 O63 2.053 . S
C36 O33 1.259 . S
C36 O37 1.254 . S
O37 Zn35 2.046 . S
O37 C36 1.254 . S
C38 O59 1.256 . S
C38 O60 1.244 . S
O39 Zn35 2.055 . S
O39 C61 1.259 . S
O40 Zn32 2.046 . S
O40 C61 1.254 . S
N41 Zn35 2.036 . S
N41 C42 1.298 . S
N41 N44 1.398 . S
C42 N41 1.298 . S
C42 N45 1.367 . S
C42 C55 1.481 . S
C43 N44 1.299 . S
C43 N45 1.379 . S
N44 N41 1.398 . S
N44 C43 1.299 . S
N45 C42 1.367 . S
N45 C43 1.379 . S
C46 N48 1.298 . S
C46 N50 1.367 . S
C46 C54 1.481 . S
C47 N49 1.299 . S
C47 N50 1.379 . S
N48 Zn32 2.036 . S
N48 C46 1.298 . S
N48 N49 1.398 . S
N49 C47 1.299 . S
N49 N48 1.398 . S
N50 C46 1.367 . S
N50 C47 1.379 . S
H51 C54 0.980 . S
H52 C54 0.981 . S
H53 C54 0.981 . S
C54 C46 1.481 . S
C54 H51 0.980 . S
C54 H52 0.981 . S
C54 H53 0.981 . S
C55 C42 1.481 . S
C55 H56 0.980 . S
C55 H57 0.981 . S
C55 H58 0.981 . S
H56 C55 0.980 . S
H57 C55 0.981 . S
H58 C55 0.981 . S
O59 Zn35 2.066 . S
O59 C38 1.256 . S
O60 Zn32 2.053 . S
O60 C38 1.244 . S
C61 O39 1.259 . S
C61 O40 1.254 . S
O62 Zn32 2.066 . S
O62 C34 1.256 . S
O63 C34 1.244 . S
O63 Zn35 2.053 . S
Zn64 O65 2.055 . S
Zn64 O72 2.046 . S
Zn64 N80 2.036 . S
Zn64 O92 2.053 . S
Zn64 O94 2.066 . S
O65 Zn64 2.055 . S
O65 C68 1.259 . S
C66 O94 1.256 . S
C66 O95 1.244 . S
Zn67 O69 2.046 . S
Zn67 O71 2.055 . S
Zn67 N73 2.036 . S
Zn67 O91 2.066 . S
Zn67 O95 2.053 . S
C68 O65 1.259 . S
C68 O69 1.254 . S
O69 Zn67 2.046 . S
O69 C68 1.254 . S
C70 O91 1.256 . S
C70 O92 1.244 . S
O71 Zn67 2.055 . S
O71 C93 1.259 . S
O72 Zn64 2.046 . S
O72 C93 1.254 . S
N73 Zn67 2.036 . S
N73 C74 1.298 . S
N73 N76 1.398 . S
C74 N73 1.298 . S
C74 N77 1.367 . S
C74 C87 1.481 . S
C75 N76 1.299 . S
C75 N77 1.379 . S
N76 N73 1.398 . S
N76 C75 1.299 . S
N77 C74 1.367 . S
N77 C75 1.379 . S
C78 N80 1.298 . S
C78 N82 1.367 . S
C78 C86 1.481 . S
C79 N81 1.299 . S
C79 N82 1.379 . S
N80 Zn64 2.036 . S
N80 C78 1.298 . S
N80 N81 1.398 . S
N81 C79 1.299 . S
N81 N80 1.398 . S
N82 C78 1.367 . S
N82 C79 1.379 . S
H83 C86 0.980 . S
H84 C86 0.981 . S
H85 C86 0.981 . S
C86 C78 1.481 . S
C86 H83 0.980 . S
C86 H84 0.981 . S
C86 H85 0.981 . S
C87 C74 1.481 . S
C87 H88 0.980 . S
C87 H89 0.981 . S
C87 H90 0.981 . S
H88 C87 0.980 . S
H89 C87 0.981 . S
H90 C87 0.981 . S
O91 Zn67 2.066 . S
O91 C70 1.256 . S
O92 Zn64 2.053 . S
O92 C70 1.244 . S
C93 O71 1.259 . S
C93 O72 1.254 . S
O94 Zn64 2.066 . S
O94 C66 1.256 . S
O95 C66 1.244 . S
O95 Zn67 2.053 . S
Zn96 O97 2.055 . S
Zn96 O104 2.046 . S
Zn96 N112 2.036 . S
Zn96 O124 2.053 . S
Zn96 O126 2.066 . S
O97 Zn96 2.055 . S
O97 C100 1.259 . S
C98 O126 1.256 . S
C98 O127 1.244 . S
Zn99 O101 2.046 . S
Zn99 O103 2.055 . S
Zn99 N105 2.036 . S
Zn99 O123 2.066 . S
Zn99 O127 2.053 . S
C100 O97 1.259 . S
C100 O101 1.254 . S
O101 Zn99 2.046 . S
O101 C100 1.254 . S
C102 O123 1.256 . S
C102 O124 1.244 . S
O103 Zn99 2.055 . S
O103 C125 1.259 . S
O104 Zn96 2.046 . S
O104 C125 1.254 . S
N105 Zn99 2.036 . S
N105 C106 1.298 1_655 S
N105 N108 1.398 . S
C106 N105 1.298 1_455 S
C106 N109 1.367 . S
C106 C119 1.481 . S
C107 N108 1.299 1_455 S
C107 N109 1.379 . S
N108 N105 1.398 . S
N108 C107 1.299 1_655 S
N109 C106 1.367 . S
N109 C107 1.379 . S
C110 N112 1.298 . S
C110 N114 1.367 . S
C110 C118 1.481 . S
C111 N113 1.299 . S
C111 N114 1.379 . S
N112 Zn96 2.036 . S
N112 C110 1.298 . S
N112 N113 1.398 . S
N113 C111 1.299 . S
N113 N112 1.398 . S
N114 C110 1.367 . S
N114 C111 1.379 . S
H115 C118 0.980 . S
H116 C118 0.981 . S
H117 C118 0.981 . S
C118 C110 1.481 . S
C118 H115 0.980 . S
C118 H116 0.981 . S
C118 H117 0.981 . S
C119 C106 1.481 . S
C119 H120 0.980 . S
C119 H121 0.981 . S
C119 H122 0.981 . S
H120 C119 0.980 . S
H121 C119 0.981 . S
H122 C119 0.981 . S
O123 Zn99 2.066 . S
O123 C102 1.256 . S
O124 Zn96 2.053 . S
O124 C102 1.244 . S
C125 O103 1.259 . S
C125 O104 1.254 . S
O126 Zn96 2.066 . S
O126 C98 1.256 . S
O127 C98 1.244 . S
O127 Zn99 2.053 . S
Zn128 O129 2.055 . S
Zn128 O136 2.046 . S
Zn128 N144 2.036 . S
Zn128 O156 2.053 . S
Zn128 O158 2.066 . S
O129 Zn128 2.055 . S
O129 C132 1.259 . S
C130 O158 1.256 . S
C130 O159 1.244 . S
Zn131 O133 2.046 . S
Zn131 O135 2.055 . S
Zn131 N137 2.036 . S
Zn131 O155 2.066 . S
Zn131 O159 2.053 . S
C132 O129 1.259 . S
C132 O133 1.254 . S
O133 Zn131 2.046 . S
O133 C132 1.254 . S
C134 O155 1.256 . S
C134 O156 1.244 . S
O135 Zn131 2.055 . S
O135 C157 1.259 . S
O136 Zn128 2.046 . S
O136 C157 1.254 . S
N137 Zn131 2.036 . S
N137 C138 1.298 1_545 S
N137 N140 1.398 . S
C138 N137 1.298 1_565 S
C138 N141 1.367 . S
C138 C151 1.481 . S
C139 N140 1.299 1_565 S
C139 N141 1.379 . S
N140 N137 1.398 . S
N140 C139 1.299 1_545 S
N141 C138 1.367 . S
N141 C139 1.379 . S
C142 N144 1.298 . S
C142 N146 1.367 . S
C142 C150 1.481 . S
C143 N145 1.299 . S
C143 N146 1.379 . S
N144 Zn128 2.036 . S
N144 C142 1.298 . S
N144 N145 1.398 . S
N145 C143 1.299 . S
N145 N144 1.398 . S
N146 C142 1.367 . S
N146 C143 1.379 . S
H147 C150 0.980 . S
H148 C150 0.981 . S
H149 C150 0.981 . S
C150 C142 1.481 . S
C150 H147 0.980 . S
C150 H148 0.981 . S
C150 H149 0.981 . S
C151 C138 1.481 . S
C151 H152 0.980 . S
C151 H153 0.981 . S
C151 H154 0.981 . S
H152 C151 0.980 . S
H153 C151 0.981 . S
H154 C151 0.981 . S
O155 Zn131 2.066 . S
O155 C134 1.256 . S
O156 Zn128 2.053 . S
O156 C134 1.244 . S
C157 O135 1.259 . S
C157 O136 1.254 . S
O158 Zn128 2.066 . S
O158 C130 1.256 . S
O159 C130 1.244 . S
O159 Zn131 2.053 . S
Zn160 O161 2.055 . S
Zn160 O168 2.046 . S
Zn160 N176 2.036 . S
Zn160 O188 2.053 . S
Zn160 O190 2.066 . S
O161 Zn160 2.055 . S
O161 C164 1.259 . S
C162 O190 1.256 . S
C162 O191 1.244 . S
Zn163 O165 2.046 . S
Zn163 O167 2.055 . S
Zn163 N169 2.036 . S
Zn163 O187 2.066 . S
Zn163 O191 2.053 . S
C164 O161 1.259 . S
C164 O165 1.254 . S
O165 Zn163 2.046 . S
O165 C164 1.254 . S
C166 O187 1.256 . S
C166 O188 1.244 . S
O167 Zn163 2.055 . S
O167 C189 1.259 . S
O168 Zn160 2.046 . S
O168 C189 1.254 . S
N169 Zn163 2.036 . S
N169 C170 1.298 . S
N169 N172 1.398 . S
C170 N169 1.298 . S
C170 N173 1.367 . S
C170 C183 1.481 . S
C171 N172 1.299 . S
C171 N173 1.379 . S
N172 N169 1.398 . S
N172 C171 1.299 . S
N173 C170 1.367 . S
N173 C171 1.379 . S
C174 N176 1.298 1_545 S
C174 N178 1.367 . S
C174 C182 1.481 . S
C175 N177 1.299 1_545 S
C175 N178 1.379 . S
N176 Zn160 2.036 . S
N176 C174 1.298 1_565 S
N176 N177 1.398 . S
N177 C175 1.299 1_565 S
N177 N176 1.398 . S
N178 C174 1.367 . S
N178 C175 1.379 . S
H179 C182 0.980 . S
H180 C182 0.981 . S
H181 C182 0.981 . S
C182 C174 1.481 . S
C182 H179 0.980 . S
C182 H180 0.981 . S
C182 H181 0.981 . S
C183 C170 1.481 . S
C183 H184 0.980 . S
C183 H185 0.981 . S
C183 H186 0.981 . S
H184 C183 0.980 . S
H185 C183 0.981 . S
H186 C183 0.981 . S
O187 Zn163 2.066 . S
O187 C166 1.256 . S
O188 Zn160 2.053 . S
O188 C166 1.244 . S
C189 O167 1.259 . S
C189 O168 1.254 . S
O190 Zn160 2.066 . S
O190 C162 1.256 . S
O191 C162 1.244 . S
O191 Zn163 2.053 . S
Zn192 O193 2.055 . S
Zn192 O200 2.046 . S
Zn192 N208 2.036 . S
Zn192 O220 2.053 . S
Zn192 O222 2.066 . S
O193 Zn192 2.055 . S
O193 C196 1.259 . S
C194 O222 1.256 . S
C194 O223 1.244 . S
Zn195 O197 2.046 . S
Zn195 O199 2.055 . S
Zn195 N201 2.036 . S
Zn195 O219 2.066 . S
Zn195 O223 2.053 . S
C196 O193 1.259 . S
C196 O197 1.254 . S
O197 Zn195 2.046 . S
O197 C196 1.254 . S
C198 O219 1.256 . S
C198 O220 1.244 . S
O199 Zn195 2.055 . S
O199 C221 1.259 . S
O200 Zn192 2.046 . S
O200 C221 1.254 . S
N201 Zn195 2.036 . S
N201 C202 1.298 . S
N201 N204 1.398 . S
C202 N201 1.298 . S
C202 N205 1.367 . S
C202 C215 1.481 . S
C203 N204 1.299 . S
C203 N205 1.379 . S
N204 N201 1.398 . S
N204 C203 1.299 . S
N205 C202 1.367 . S
N205 C203 1.379 . S
C206 N208 1.298 . S
C206 N210 1.367 . S
C206 C214 1.481 . S
C207 N209 1.299 . S
C207 N210 1.379 . S
N208 Zn192 2.036 . S
N208 C206 1.298 . S
N208 N209 1.398 . S
N209 C207 1.299 . S
N209 N208 1.398 . S
N210 C206 1.367 . S
N210 C207 1.379 . S
H211 C214 0.980 . S
H212 C214 0.981 . S
H213 C214 0.981 . S
C214 C206 1.481 . S
C214 H211 0.980 . S
C214 H212 0.981 . S
C214 H213 0.981 . S
C215 C202 1.481 . S
C215 H216 0.980 . S
C215 H217 0.981 . S
C215 H218 0.981 . S
H216 C215 0.980 . S
H217 C215 0.981 . S
H218 C215 0.981 . S
O219 Zn195 2.066 . S
O219 C198 1.256 . S
O220 Zn192 2.053 . S
O220 C198 1.244 . S
C221 O199 1.259 . S
C221 O200 1.254 . S
O222 Zn192 2.066 . S
O222 C194 1.256 . S
O223 C194 1.244 . S
O223 Zn195 2.053 . S
Zn224 O225 2.055 . S
Zn224 O232 2.046 . S
Zn224 N240 2.036 . S
Zn224 O252 2.053 . S
Zn224 O254 2.066 . S
O225 Zn224 2.055 . S
O225 C228 1.259 . S
C226 O254 1.256 . S
C226 O255 1.244 . S
Zn227 O229 2.046 . S
Zn227 O231 2.055 . S
Zn227 N233 2.036 . S
Zn227 O251 2.066 . S
Zn227 O255 2.053 . S
C228 O225 1.259 . S
C228 O229 1.254 . S
O229 Zn227 2.046 . S
O229 C228 1.254 . S
C230 O251 1.256 . S
C230 O252 1.244 . S
O231 Zn227 2.055 . S
O231 C253 1.259 . S
O232 Zn224 2.046 . S
O232 C253 1.254 . S
N233 Zn227 2.036 . S
N233 C234 1.298 . S
N233 N236 1.398 . S
C234 N233 1.298 . S
C234 N237 1.367 . S
C234 C247 1.481 . S
C235 N236 1.299 . S
C235 N237 1.379 . S
N236 N233 1.398 . S
N236 C235 1.299 . S
N237 C234 1.367 . S
N237 C235 1.379 . S
C238 N240 1.298 . S
C238 N242 1.367 . S
C238 C246 1.481 . S
C239 N241 1.299 . S
C239 N242 1.379 . S
N240 Zn224 2.036 . S
N240 C238 1.298 . S
N240 N241 1.398 . S
N241 C239 1.299 . S
N241 N240 1.398 . S
N242 C238 1.367 . S
N242 C239 1.379 . S
H243 C246 0.980 . S
H244 C246 0.981 . S
H245 C246 0.981 . S
C246 C238 1.481 . S
C246 H243 0.980 . S
C246 H244 0.981 . S
C246 H245 0.981 . S
C247 C234 1.481 . S
C247 H248 0.980 . S
C247 H249 0.981 . S
C247 H250 0.981 . S
H248 C247 0.980 . S
H249 C247 0.981 . S
H250 C247 0.981 . S
O251 Zn227 2.066 . S
O251 C230 1.256 . S
O252 Zn224 2.053 . S
O252 C230 1.244 . S
C253 O231 1.259 . S
C253 O232 1.254 . S
O254 Zn224 2.066 . S
O254 C226 1.256 . S
O255 C226 1.244 . S
O255 Zn227 2.053 . S
Zn256 O257 2.055 . S
Zn256 O264 2.046 . S
Zn256 N272 2.036 . S
Zn256 O284 2.053 . S
Zn256 O286 2.066 . S
O257 Zn256 2.055 . S
O257 C260 1.259 . S
C258 O286 1.256 . S
C258 O287 1.244 . S
Zn259 O261 2.046 . S
Zn259 O263 2.055 . S
Zn259 N265 2.036 . S
Zn259 O283 2.066 . S
Zn259 O287 2.053 . S
C260 O257 1.259 . S
C260 O261 1.254 . S
O261 Zn259 2.046 . S
O261 C260 1.254 . S
C262 O283 1.256 . S
C262 O284 1.244 . S
O263 Zn259 2.055 . S
O263 C285 1.259 . S
O264 Zn256 2.046 . S
O264 C285 1.254 . S
N265 Zn259 2.036 . S
N265 C266 1.298 . S
N265 N268 1.398 . S
C266 N265 1.298 . S
C266 N269 1.367 . S
C266 C279 1.481 . S
C267 N268 1.299 . S
C267 N269 1.379 . S
N268 N265 1.398 . S
N268 C267 1.299 . S
N269 C266 1.367 . S
N269 C267 1.379 . S
C270 N272 1.298 1_556 S
C270 N274 1.367 . S
C270 C278 1.481 . S
C271 N273 1.299 1_556 S
C271 N274 1.379 . S
N272 Zn256 2.036 . S
N272 C270 1.298 1_554 S
N272 N273 1.398 . S
N273 C271 1.299 1_554 S
N273 N272 1.398 . S
N274 C270 1.367 . S
N274 C271 1.379 . S
H275 C278 0.980 . S
H276 C278 0.981 . S
H277 C278 0.981 . S
C278 C270 1.481 . S
C278 H275 0.980 . S
C278 H276 0.981 . S
C278 H277 0.981 . S
C279 C266 1.481 . S
C279 H280 0.980 . S
C279 H281 0.981 . S
C279 H282 0.981 . S
H280 C279 0.980 . S
H281 C279 0.981 . S
H282 C279 0.981 . S
O283 Zn259 2.066 . S
O283 C262 1.256 . S
O284 Zn256 2.053 . S
O284 C262 1.244 . S
C285 O263 1.259 . S
C285 O264 1.254 . S
O286 Zn256 2.066 . S
O286 C258 1.256 . S
O287 C258 1.244 . S
O287 Zn259 2.053 . S
Zn288 O289 2.055 . S
Zn288 O296 2.046 . S
Zn288 N304 2.036 . S
Zn288 O316 2.053 . S
Zn288 O318 2.066 . S
O289 Zn288 2.055 . S
O289 C292 1.259 . S
C290 O318 1.256 . S
C290 O319 1.244 . S
Zn291 O293 2.046 . S
Zn291 O295 2.055 . S
Zn291 N297 2.036 . S
Zn291 O315 2.066 . S
Zn291 O319 2.053 . S
C292 O289 1.259 . S
C292 O293 1.254 . S
O293 Zn291 2.046 . S
O293 C292 1.254 . S
C294 O315 1.256 . S
C294 O316 1.244 . S
O295 Zn291 2.055 . S
O295 C317 1.259 . S
O296 Zn288 2.046 . S
O296 C317 1.254 . S
N297 Zn291 2.036 . S
N297 C298 1.298 . S
N297 N300 1.398 . S
C298 N297 1.298 . S
C298 N301 1.367 . S
C298 C311 1.481 . S
C299 N300 1.299 . S
C299 N301 1.379 . S
N300 N297 1.398 . S
N300 C299 1.299 . S
N301 C298 1.367 . S
N301 C299 1.379 . S
C302 N304 1.298 1_554 S
C302 N306 1.367 . S
C302 C310 1.481 . S
C303 N305 1.299 1_554 S
C303 N306 1.379 . S
N304 Zn288 2.036 . S
N304 C302 1.298 1_556 S
N304 N305 1.398 . S
N305 C303 1.299 1_556 S
N305 N304 1.398 . S
N306 C302 1.367 . S
N306 C303 1.379 . S
H307 C310 0.980 . S
H308 C310 0.981 . S
H309 C310 0.981 . S
C310 C302 1.481 . S
C310 H307 0.980 . S
C310 H308 0.981 . S
C310 H309 0.981 . S
C311 C298 1.481 . S
C311 H312 0.980 . S
C311 H313 0.981 . S
C311 H314 0.981 . S
H312 C311 0.980 . S
H313 C311 0.981 . S
H314 C311 0.981 . S
O315 Zn291 2.066 . S
O315 C294 1.256 . S
O316 Zn288 2.053 . S
O316 C294 1.244 . S
C317 O295 1.259 . S
C317 O296 1.254 . S
O318 Zn288 2.066 . S
O318 C290 1.256 . S
O319 C290 1.244 . S
O319 Zn291 2.053 . S
Zn320 O321 2.055 . S
Zn320 O328 2.046 . S
Zn320 N336 2.036 . S
Zn320 O348 2.053 . S
Zn320 O350 2.066 . S
O321 Zn320 2.055 . S
O321 C324 1.259 . S
C322 O350 1.256 . S
C322 O351 1.244 . S
Zn323 O325 2.046 . S
Zn323 O327 2.055 . S
Zn323 N329 2.036 . S
Zn323 O347 2.066 . S
Zn323 O351 2.053 . S
C324 O321 1.259 . S
C324 O325 1.254 . S
O325 Zn323 2.046 . S
O325 C324 1.254 . S
C326 O347 1.256 . S
C326 O348 1.244 . S
O327 Zn323 2.055 . S
O327 C349 1.259 . S
O328 Zn320 2.046 . S
O328 C349 1.254 . S
N329 Zn323 2.036 . S
N329 C330 1.298 . S
N329 N332 1.398 . S
C330 N329 1.298 . S
C330 N333 1.367 . S
C330 C343 1.481 . S
C331 N332 1.299 . S
C331 N333 1.379 . S
N332 N329 1.398 . S
N332 C331 1.299 . S
N333 C330 1.367 . S
N333 C331 1.379 . S
C334 N336 1.298 . S
C334 N338 1.367 . S
C334 C342 1.481 . S
C335 N337 1.299 . S
C335 N338 1.379 . S
N336 Zn320 2.036 . S
N336 C334 1.298 . S
N336 N337 1.398 . S
N337 C335 1.299 . S
N337 N336 1.398 . S
N338 C334 1.367 . S
N338 C335 1.379 . S
H339 C342 0.980 . S
H340 C342 0.981 . S
H341 C342 0.981 . S
C342 C334 1.481 . S
C342 H339 0.980 . S
C342 H340 0.981 . S
C342 H341 0.981 . S
C343 C330 1.481 . S
C343 H344 0.980 . S
C343 H345 0.981 . S
C343 H346 0.981 . S
H344 C343 0.980 . S
H345 C343 0.981 . S
H346 C343 0.981 . S
O347 Zn323 2.066 . S
O347 C326 1.256 . S
O348 Zn320 2.053 . S
O348 C326 1.244 . S
C349 O327 1.259 . S
C349 O328 1.254 . S
O350 Zn320 2.066 . S
O350 C322 1.256 . S
O351 C322 1.244 . S
O351 Zn323 2.053 . S
Zn352 O353 2.055 . S
Zn352 O360 2.046 . S
Zn352 N368 2.036 . S
Zn352 O380 2.053 . S
Zn352 O382 2.066 . S
O353 Zn352 2.055 . S
O353 C356 1.259 . S
C354 O382 1.256 . S
C354 O383 1.244 . S
Zn355 O357 2.046 . S
Zn355 O359 2.055 . S
Zn355 N361 2.036 . S
Zn355 O379 2.066 . S
Zn355 O383 2.053 . S
C356 O353 1.259 . S
C356 O357 1.254 . S
O357 Zn355 2.046 . S
O357 C356 1.254 . S
C358 O379 1.256 . S
C358 O380 1.244 . S
O359 Zn355 2.055 . S
O359 C381 1.259 . S
O360 Zn352 2.046 . S
O360 C381 1.254 . S
N361 Zn355 2.036 . S
N361 C362 1.298 . S
N361 N364 1.398 . S
C362 N361 1.298 . S
C362 N365 1.367 . S
C362 C375 1.481 . S
C363 N364 1.299 . S
C363 N365 1.379 . S
N364 N361 1.398 . S
N364 C363 1.299 . S
N365 C362 1.367 . S
N365 C363 1.379 . S
C366 N368 1.298 . S
C366 N370 1.367 . S
C366 C374 1.481 . S
C367 N369 1.299 . S
C367 N370 1.379 . S
N368 Zn352 2.036 . S
N368 C366 1.298 . S
N368 N369 1.398 . S
N369 C367 1.299 . S
N369 N368 1.398 . S
N370 C366 1.367 . S
N370 C367 1.379 . S
H371 C374 0.980 . S
H372 C374 0.981 . S
H373 C374 0.981 . S
C374 C366 1.481 . S
C374 H371 0.980 . S
C374 H372 0.981 . S
C374 H373 0.981 . S
C375 C362 1.481 . S
C375 H376 0.980 . S
C375 H377 0.981 . S
C375 H378 0.981 . S
H376 C375 0.980 . S
H377 C375 0.981 . S
H378 C375 0.981 . S
O379 Zn355 2.066 . S
O379 C358 1.256 . S
O380 Zn352 2.053 . S
O380 C358 1.244 . S
C381 O359 1.259 . S
C381 O360 1.254 . S
O382 Zn352 2.066 . S
O382 C354 1.256 . S
O383 C354 1.244 . S
O383 Zn355 2.053 . S
Zn384 O385 2.055 . S
Zn384 O392 2.046 . S
Zn384 N400 2.036 . S
Zn384 O412 2.053 . S
Zn384 O414 2.066 . S
O385 Zn384 2.055 . S
O385 C388 1.259 . S
C386 O414 1.256 . S
C386 O415 1.244 . S
Zn387 O389 2.046 . S
Zn387 O391 2.055 . S
Zn387 N393 2.036 . S
Zn387 O411 2.066 . S
Zn387 O415 2.053 . S
C388 O385 1.259 . S
C388 O389 1.254 . S
O389 Zn387 2.046 . S
O389 C388 1.254 . S
C390 O411 1.256 . S
C390 O412 1.244 . S
O391 Zn387 2.055 . S
O391 C413 1.259 . S
O392 Zn384 2.046 . S
O392 C413 1.254 . S
N393 Zn387 2.036 . S
N393 C394 1.298 1_655 S
N393 N396 1.398 . S
C394 N393 1.298 1_455 S
C394 N397 1.367 . S
C394 C407 1.481 . S
C395 N396 1.299 1_455 S
C395 N397 1.379 . S
N396 N393 1.398 . S
N396 C395 1.299 1_655 S
N397 C394 1.367 . S
N397 C395 1.379 . S
C398 N400 1.298 . S
C398 N402 1.367 . S
C398 C406 1.481 . S
C399 N401 1.299 . S
C399 N402 1.379 . S
N400 Zn384 2.036 . S
N400 C398 1.298 . S
N400 N401 1.398 . S
N401 C399 1.299 . S
N401 N400 1.398 . S
N402 C398 1.367 . S
N402 C399 1.379 . S
H403 C406 0.980 . S
H404 C406 0.981 . S
H405 C406 0.981 . S
C406 C398 1.481 . S
C406 H403 0.980 . S
C406 H404 0.981 . S
C406 H405 0.981 . S
C407 C394 1.481 . S
C407 H408 0.980 . S
C407 H409 0.981 . S
C407 H410 0.981 . S
H408 C407 0.980 . S
H409 C407 0.981 . S
H410 C407 0.981 . S
O411 Zn387 2.066 . S
O411 C390 1.256 . S
O412 Zn384 2.053 . S
O412 C390 1.244 . S
C413 O391 1.259 . S
C413 O392 1.254 . S
O414 Zn384 2.066 . S
O414 C386 1.256 . S
O415 C386 1.244 . S
O415 Zn387 2.053 . S
Zn416 O417 2.055 . S
Zn416 O424 2.046 . S
Zn416 N432 2.036 . S
Zn416 O444 2.053 . S
Zn416 O446 2.066 . S
O417 Zn416 2.055 . S
O417 C420 1.259 . S
C418 O446 1.256 . S
C418 O447 1.244 . S
Zn419 O421 2.046 . S
Zn419 O423 2.055 . S
Zn419 N425 2.036 . S
Zn419 O443 2.066 . S
Zn419 O447 2.053 . S
C420 O417 1.259 . S
C420 O421 1.254 . S
O421 Zn419 2.046 . S
O421 C420 1.254 . S
C422 O443 1.256 . S
C422 O444 1.244 . S
O423 Zn419 2.055 . S
O423 C445 1.259 . S
O424 Zn416 2.046 . S
O424 C445 1.254 . S
N425 Zn419 2.036 . S
N425 C426 1.298 . S
N425 N428 1.398 . S
C426 N425 1.298 . S
C426 N429 1.367 . S
C426 C439 1.481 . S
C427 N428 1.299 . S
C427 N429 1.379 . S
N428 N425 1.398 . S
N428 C427 1.299 . S
N429 C426 1.367 . S
N429 C427 1.379 . S
C430 N432 1.298 . S
C430 N434 1.367 . S
C430 C438 1.481 . S
C431 N433 1.299 . S
C431 N434 1.379 . S
N432 Zn416 2.036 . S
N432 C430 1.298 . S
N432 N433 1.398 . S
N433 C431 1.299 . S
N433 N432 1.398 . S
N434 C430 1.367 . S
N434 C431 1.379 . S
H435 C438 0.980 . S
H436 C438 0.981 . S
H437 C438 0.981 . S
C438 C430 1.481 . S
C438 H435 0.980 . S
C438 H436 0.981 . S
C438 H437 0.981 . S
C439 C426 1.481 . S
C439 H440 0.980 . S
C439 H441 0.981 . S
C439 H442 0.981 . S
H440 C439 0.980 . S
H441 C439 0.981 . S
H442 C439 0.981 . S
O443 Zn419 2.066 . S
O443 C422 1.256 . S
O444 Zn416 2.053 . S
O444 C422 1.244 . S
C445 O423 1.259 . S
C445 O424 1.254 . S
O446 Zn416 2.066 . S
O446 C418 1.256 . S
O447 C418 1.244 . S
O447 Zn419 2.053 . S
Zn448 O449 2.055 . S
Zn448 O456 2.046 . S
Zn448 N464 2.036 . S
Zn448 O476 2.053 . S
Zn448 O478 2.066 . S
O449 Zn448 2.055 . S
O449 C452 1.259 . S
C450 O478 1.256 . S
C450 O479 1.244 . S
Zn451 O453 2.046 . S
Zn451 O455 2.055 . S
Zn451 N457 2.036 . S
Zn451 O475 2.066 . S
Zn451 O479 2.053 . S
C452 O449 1.259 . S
C452 O453 1.254 . S
O453 Zn451 2.046 . S
O453 C452 1.254 . S
C454 O475 1.256 . S
C454 O476 1.244 . S
O455 Zn451 2.055 . S
O455 C477 1.259 . S
O456 Zn448 2.046 . S
O456 C477 1.254 . S
N457 Zn451 2.036 . S
N457 C458 1.298 . S
N457 N460 1.398 . S
C458 N457 1.298 . S
C458 N461 1.367 . S
C458 C471 1.481 . S
C459 N460 1.299 . S
C459 N461 1.379 . S
N460 N457 1.398 . S
N460 C459 1.299 . S
N461 C458 1.367 . S
N461 C459 1.379 . S
C462 N464 1.298 . S
C462 N466 1.367 . S
C462 C470 1.481 . S
C463 N465 1.299 . S
C463 N466 1.379 . S
N464 Zn448 2.036 . S
N464 C462 1.298 . S
N464 N465 1.398 . S
N465 C463 1.299 . S
N465 N464 1.398 . S
N466 C462 1.367 . S
N466 C463 1.379 . S
H467 C470 0.980 . S
H468 C470 0.981 . S
H469 C470 0.981 . S
C470 C462 1.481 . S
C470 H467 0.980 . S
C470 H468 0.981 . S
C470 H469 0.981 . S
C471 C458 1.481 . S
C471 H472 0.980 . S
C471 H473 0.981 . S
C471 H474 0.981 . S
H472 C471 0.980 . S
H473 C471 0.981 . S
H474 C471 0.981 . S
O475 Zn451 2.066 . S
O475 C454 1.256 . S
O476 Zn448 2.053 . S
O476 C454 1.244 . S
C477 O455 1.259 . S
C477 O456 1.254 . S
O478 Zn448 2.066 . S
O478 C450 1.256 . S
O479 C450 1.244 . S
O479 Zn451 2.053 . S
Zn480 O481 2.055 . S
Zn480 O488 2.046 . S
Zn480 N496 2.036 . S
Zn480 O508 2.053 . S
Zn480 O510 2.066 . S
O481 Zn480 2.055 . S
O481 C484 1.259 . S
C482 O510 1.256 . S
C482 O511 1.244 . S
Zn483 O485 2.046 . S
Zn483 O487 2.055 . S
Zn483 N489 2.036 . S
Zn483 O507 2.066 . S
Zn483 O511 2.053 . S
C484 O481 1.259 . S
C484 O485 1.254 . S
O485 Zn483 2.046 . S
O485 C484 1.254 . S
C486 O507 1.256 . S
C486 O508 1.244 . S
O487 Zn483 2.055 . S
O487 C509 1.259 . S
O488 Zn480 2.046 . S
O488 C509 1.254 . S
N489 Zn483 2.036 . S
N489 C490 1.298 1_455 S
N489 N492 1.398 . S
C490 N489 1.298 1_655 S
C490 N493 1.367 . S
C490 C503 1.481 . S
C491 N492 1.299 1_655 S
C491 N493 1.379 . S
N492 N489 1.398 . S
N492 C491 1.299 1_455 S
N493 C490 1.367 . S
N493 C491 1.379 . S
C494 N496 1.298 . S
C494 N498 1.367 . S
C494 C502 1.481 . S
C495 N497 1.299 . S
C495 N498 1.379 . S
N496 Zn480 2.036 . S
N496 C494 1.298 . S
N496 N497 1.398 . S
N497 C495 1.299 . S
N497 N496 1.398 . S
N498 C494 1.367 . S
N498 C495 1.379 . S
H499 C502 0.980 . S
H500 C502 0.981 . S
H501 C502 0.981 . S
C502 C494 1.481 . S
C502 H499 0.980 . S
C502 H500 0.981 . S
C502 H501 0.981 . S
C503 C490 1.481 . S
C503 H504 0.980 . S
C503 H505 0.981 . S
C503 H506 0.981 . S
H504 C503 0.980 . S
H505 C503 0.981 . S
H506 C503 0.981 . S
O507 Zn483 2.066 . S
O507 C486 1.256 . S
O508 Zn480 2.053 . S
O508 C486 1.244 . S
C509 O487 1.259 . S
C509 O488 1.254 . S
O510 Zn480 2.066 . S
O510 C482 1.256 . S
O511 C482 1.244 . S
O511 Zn483 2.053 . S
Zn512 O513 2.055 . S
Zn512 O520 2.046 . S
Zn512 N528 2.036 . S
Zn512 O540 2.053 . S
Zn512 O542 2.066 . S
O513 Zn512 2.055 . S
O513 C516 1.259 . S
C514 O542 1.256 . S
C514 O543 1.244 . S
Zn515 O517 2.046 . S
Zn515 O519 2.055 . S
Zn515 N521 2.036 . S
Zn515 O539 2.066 . S
Zn515 O543 2.053 . S
C516 O513 1.259 . S
C516 O517 1.254 . S
O517 Zn515 2.046 . S
O517 C516 1.254 . S
C518 O539 1.256 . S
C518 O540 1.244 . S
O519 Zn515 2.055 . S
O519 C541 1.259 . S
O520 Zn512 2.046 . S
O520 C541 1.254 . S
N521 Zn515 2.036 . S
N521 C522 1.298 1_565 S
N521 N524 1.398 . S
C522 N521 1.298 1_545 S
C522 N525 1.367 . S
C522 C535 1.481 . S
C523 N524 1.299 1_545 S
C523 N525 1.379 . S
N524 N521 1.398 . S
N524 C523 1.299 1_565 S
N525 C522 1.367 . S
N525 C523 1.379 . S
C526 N528 1.298 . S
C526 N530 1.367 . S
C526 C534 1.481 . S
C527 N529 1.299 . S
C527 N530 1.379 . S
N528 Zn512 2.036 . S
N528 C526 1.298 . S
N528 N529 1.398 . S
N529 C527 1.299 . S
N529 N528 1.398 . S
N530 C526 1.367 . S
N530 C527 1.379 . S
H531 C534 0.980 . S
H532 C534 0.981 . S
H533 C534 0.981 . S
C534 C526 1.481 . S
C534 H531 0.980 . S
C534 H532 0.981 . S
C534 H533 0.981 . S
C535 C522 1.481 . S
C535 H536 0.980 . S
C535 H537 0.981 . S
C535 H538 0.981 . S
H536 C535 0.980 . S
H537 C535 0.981 . S
H538 C535 0.981 . S
O539 Zn515 2.066 . S
O539 C518 1.256 . S
O540 Zn512 2.053 . S
O540 C518 1.244 . S
C541 O519 1.259 . S
C541 O520 1.254 . S
O542 Zn512 2.066 . S
O542 C514 1.256 . S
O543 C514 1.244 . S
O543 Zn515 2.053 . S
Zn544 O545 2.055 . S
Zn544 O552 2.046 . S
Zn544 N560 2.036 . S
Zn544 O572 2.053 . S
Zn544 O574 2.066 . S
O545 Zn544 2.055 . S
O545 C548 1.259 . S
C546 O574 1.256 . S
C546 O575 1.244 . S
Zn547 O549 2.046 . S
Zn547 O551 2.055 . S
Zn547 N553 2.036 . S
Zn547 O571 2.066 . S
Zn547 O575 2.053 . S
C548 O545 1.259 . S
C548 O549 1.254 . S
O549 Zn547 2.046 . S
O549 C548 1.254 . S
C550 O571 1.256 . S
C550 O572 1.244 . S
O551 Zn547 2.055 . S
O551 C573 1.259 . S
O552 Zn544 2.046 . S
O552 C573 1.254 . S
N553 Zn547 2.036 . S
N553 C554 1.298 . S
N553 N556 1.398 . S
C554 N553 1.298 . S
C554 N557 1.367 . S
C554 C567 1.481 . S
C555 N556 1.299 . S
C555 N557 1.379 . S
N556 N553 1.398 . S
N556 C555 1.299 . S
N557 C554 1.367 . S
N557 C555 1.379 . S
C558 N560 1.298 1_565 S
C558 N562 1.367 . S
C558 C566 1.481 . S
C559 N561 1.299 1_565 S
C559 N562 1.379 . S
N560 Zn544 2.036 . S
N560 C558 1.298 1_545 S
N560 N561 1.398 . S
N561 C559 1.299 1_545 S
N561 N560 1.398 . S
N562 C558 1.367 . S
N562 C559 1.379 . S
H563 C566 0.980 . S
H564 C566 0.981 . S
H565 C566 0.981 . S
C566 C558 1.481 . S
C566 H563 0.980 . S
C566 H564 0.981 . S
C566 H565 0.981 . S
C567 C554 1.481 . S
C567 H568 0.980 . S
C567 H569 0.981 . S
C567 H570 0.981 . S
H568 C567 0.980 . S
H569 C567 0.981 . S
H570 C567 0.981 . S
O571 Zn547 2.066 . S
O571 C550 1.256 . S
O572 Zn544 2.053 . S
O572 C550 1.244 . S
C573 O551 1.259 . S
C573 O552 1.254 . S
O574 Zn544 2.066 . S
O574 C546 1.256 . S
O575 C546 1.244 . S
O575 Zn547 2.053 . S
Zn576 O577 2.055 . S
Zn576 O584 2.046 . S
Zn576 N592 2.036 . S
Zn576 O604 2.053 . S
Zn576 O606 2.066 . S
O577 Zn576 2.055 . S
O577 C580 1.259 . S
C578 O606 1.256 . S
C578 O607 1.244 . S
Zn579 O581 2.046 . S
Zn579 O583 2.055 . S
Zn579 N585 2.036 . S
Zn579 O603 2.066 . S
Zn579 O607 2.053 . S
C580 O577 1.259 . S
C580 O581 1.254 . S
O581 Zn579 2.046 . S
O581 C580 1.254 . S
C582 O603 1.256 . S
C582 O604 1.244 . S
O583 Zn579 2.055 . S
O583 C605 1.259 . S
O584 Zn576 2.046 . S
O584 C605 1.254 . S
N585 Zn579 2.036 . S
N585 C586 1.298 . S
N585 N588 1.398 . S
C586 N585 1.298 . S
C586 N589 1.367 . S
C586 C599 1.481 . S
C587 N588 1.299 . S
C587 N589 1.379 . S
N588 N585 1.398 . S
N588 C587 1.299 . S
N589 C586 1.367 . S
N589 C587 1.379 . S
C590 N592 1.298 . S
C590 N594 1.367 . S
C590 C598 1.481 . S
C591 N593 1.299 . S
C591 N594 1.379 . S
N592 Zn576 2.036 . S
N592 C590 1.298 . S
N592 N593 1.398 . S
N593 C591 1.299 . S
N593 N592 1.398 . S
N594 C590 1.367 . S
N594 C591 1.379 . S
H595 C598 0.980 . S
H596 C598 0.981 . S
H597 C598 0.981 . S
C598 C590 1.481 . S
C598 H595 0.980 . S
C598 H596 0.981 . S
C598 H597 0.981 . S
C599 C586 1.481 . S
C599 H600 0.980 . S
C599 H601 0.981 . S
C599 H602 0.981 . S
H600 C599 0.980 . S
H601 C599 0.981 . S
H602 C599 0.981 . S
O603 Zn579 2.066 . S
O603 C582 1.256 . S
O604 Zn576 2.053 . S
O604 C582 1.244 . S
C605 O583 1.259 . S
C605 O584 1.254 . S
O606 Zn576 2.066 . S
O606 C578 1.256 . S
O607 C578 1.244 . S
O607 Zn579 2.053 . S
Zn608 O609 2.055 . S
Zn608 O616 2.046 . S
Zn608 N624 2.036 . S
Zn608 O636 2.053 . S
Zn608 O638 2.066 . S
O609 Zn608 2.055 . S
O609 C612 1.259 . S
C610 O638 1.256 . S
C610 O639 1.244 . S
Zn611 O613 2.046 . S
Zn611 O615 2.055 . S
Zn611 N617 2.036 . S
Zn611 O635 2.066 . S
Zn611 O639 2.053 . S
C612 O609 1.259 . S
C612 O613 1.254 . S
O613 Zn611 2.046 . S
O613 C612 1.254 . S
C614 O635 1.256 . S
C614 O636 1.244 . S
O615 Zn611 2.055 . S
O615 C637 1.259 . S
O616 Zn608 2.046 . S
O616 C637 1.254 . S
N617 Zn611 2.036 . S
N617 C618 1.298 . S
N617 N620 1.398 . S
C618 N617 1.298 . S
C618 N621 1.367 . S
C618 C631 1.481 . S
C619 N620 1.299 . S
C619 N621 1.379 . S
N620 N617 1.398 . S
N620 C619 1.299 . S
N621 C618 1.367 . S
N621 C619 1.379 . S
C622 N624 1.298 . S
C622 N626 1.367 . S
C622 C630 1.481 . S
C623 N625 1.299 . S
C623 N626 1.379 . S
N624 Zn608 2.036 . S
N624 C622 1.298 . S
N624 N625 1.398 . S
N625 C623 1.299 . S
N625 N624 1.398 . S
N626 C622 1.367 . S
N626 C623 1.379 . S
H627 C630 0.980 . S
H628 C630 0.981 . S
H629 C630 0.981 . S
C630 C622 1.481 . S
C630 H627 0.980 . S
C630 H628 0.981 . S
C630 H629 0.981 . S
C631 C618 1.481 . S
C631 H632 0.980 . S
C631 H633 0.981 . S
C631 H634 0.981 . S
H632 C631 0.980 . S
H633 C631 0.981 . S
H634 C631 0.981 . S
O635 Zn611 2.066 . S
O635 C614 1.256 . S
O636 Zn608 2.053 . S
O636 C614 1.244 . S
C637 O615 1.259 . S
C637 O616 1.254 . S
O638 Zn608 2.066 . S
O638 C610 1.256 . S
O639 C610 1.244 . S
O639 Zn611 2.053 . S
Zn640 O641 2.055 . S
Zn640 O648 2.046 . S
Zn640 N656 2.036 . S
Zn640 O668 2.053 . S
Zn640 O670 2.066 . S
O641 Zn640 2.055 . S
O641 C644 1.259 . S
C642 O670 1.256 . S
C642 O671 1.244 . S
Zn643 O645 2.046 . S
Zn643 O647 2.055 . S
Zn643 N649 2.036 . S
Zn643 O667 2.066 . S
Zn643 O671 2.053 . S
C644 O641 1.259 . S
C644 O645 1.254 . S
O645 Zn643 2.046 . S
O645 C644 1.254 . S
C646 O667 1.256 . S
C646 O668 1.244 . S
O647 Zn643 2.055 . S
O647 C669 1.259 . S
O648 Zn640 2.046 . S
O648 C669 1.254 . S
N649 Zn643 2.036 . S
N649 C650 1.298 . S
N649 N652 1.398 . S
C650 N649 1.298 . S
C650 N653 1.367 . S
C650 C663 1.481 . S
C651 N652 1.299 . S
C651 N653 1.379 . S
N652 N649 1.398 . S
N652 C651 1.299 . S
N653 C650 1.367 . S
N653 C651 1.379 . S
C654 N656 1.298 1_554 S
C654 N658 1.367 . S
C654 C662 1.481 . S
C655 N657 1.299 1_554 S
C655 N658 1.379 . S
N656 Zn640 2.036 . S
N656 C654 1.298 1_556 S
N656 N657 1.398 . S
N657 C655 1.299 1_556 S
N657 N656 1.398 . S
N658 C654 1.367 . S
N658 C655 1.379 . S
H659 C662 0.980 . S
H660 C662 0.981 . S
H661 C662 0.981 . S
C662 C654 1.481 . S
C662 H659 0.980 . S
C662 H660 0.981 . S
C662 H661 0.981 . S
C663 C650 1.481 . S
C663 H664 0.980 . S
C663 H665 0.981 . S
C663 H666 0.981 . S
H664 C663 0.980 . S
H665 C663 0.981 . S
H666 C663 0.981 . S
O667 Zn643 2.066 . S
O667 C646 1.256 . S
O668 Zn640 2.053 . S
O668 C646 1.244 . S
C669 O647 1.259 . S
C669 O648 1.254 . S
O670 Zn640 2.066 . S
O670 C642 1.256 . S
O671 C642 1.244 . S
O671 Zn643 2.053 . S
Zn672 O673 2.055 . S
Zn672 O680 2.046 . S
Zn672 N688 2.036 . S
Zn672 O700 2.053 . S
Zn672 O702 2.066 . S
O673 Zn672 2.055 . S
O673 C676 1.259 . S
C674 O702 1.256 . S
C674 O703 1.244 . S
Zn675 O677 2.046 . S
Zn675 O679 2.055 . S
Zn675 N681 2.036 . S
Zn675 O699 2.066 . S
Zn675 O703 2.053 . S
C676 O673 1.259 . S
C676 O677 1.254 . S
O677 Zn675 2.046 . S
O677 C676 1.254 . S
C678 O699 1.256 . S
C678 O700 1.244 . S
O679 Zn675 2.055 . S
O679 C701 1.259 . S
O680 Zn672 2.046 . S
O680 C701 1.254 . S
N681 Zn675 2.036 . S
N681 C682 1.298 . S
N681 N684 1.398 . S
C682 N681 1.298 . S
C682 N685 1.367 . S
C682 C695 1.481 . S
C683 N684 1.299 . S
C683 N685 1.379 . S
N684 N681 1.398 . S
N684 C683 1.299 . S
N685 C682 1.367 . S
N685 C683 1.379 . S
C686 N688 1.298 1_556 S
C686 N690 1.367 . S
C686 C694 1.481 . S
C687 N689 1.299 1_556 S
C687 N690 1.379 . S
N688 Zn672 2.036 . S
N688 C686 1.298 1_554 S
N688 N689 1.398 . S
N689 C687 1.299 1_554 S
N689 N688 1.398 . S
N690 C686 1.367 . S
N690 C687 1.379 . S
H691 C694 0.980 . S
H692 C694 0.981 . S
H693 C694 0.981 . S
C694 C686 1.481 . S
C694 H691 0.980 . S
C694 H692 0.981 . S
C694 H693 0.981 . S
C695 C682 1.481 . S
C695 H696 0.980 . S
C695 H697 0.981 . S
C695 H698 0.981 . S
H696 C695 0.980 . S
H697 C695 0.981 . S
H698 C695 0.981 . S
O699 Zn675 2.066 . S
O699 C678 1.256 . S
O700 Zn672 2.053 . S
O700 C678 1.244 . S
C701 O679 1.259 . S
C701 O680 1.254 . S
O702 Zn672 2.066 . S
O702 C674 1.256 . S
O703 C674 1.244 . S
O703 Zn675 2.053 . S
Zn704 O705 2.055 . S
Zn704 O712 2.046 . S
Zn704 N720 2.036 . S
Zn704 O732 2.053 . S
Zn704 O734 2.066 . S
O705 Zn704 2.055 . S
O705 C708 1.259 . S
C706 O734 1.256 . S
C706 O735 1.244 . S
Zn707 O709 2.046 . S
Zn707 O711 2.055 . S
Zn707 N713 2.036 . S
Zn707 O731 2.066 . S
Zn707 O735 2.053 . S
C708 O705 1.259 . S
C708 O709 1.254 . S
O709 Zn707 2.046 . S
O709 C708 1.254 . S
C710 O731 1.256 . S
C710 O732 1.244 . S
O711 Zn707 2.055 . S
O711 C733 1.259 . S
O712 Zn704 2.046 . S
O712 C733 1.254 . S
N713 Zn707 2.036 . S
N713 C714 1.298 . S
N713 N716 1.398 . S
C714 N713 1.298 . S
C714 N717 1.367 . S
C714 C727 1.481 . S
C715 N716 1.299 . S
C715 N717 1.379 . S
N716 N713 1.398 . S
N716 C715 1.299 . S
N717 C714 1.367 . S
N717 C715 1.379 . S
C718 N720 1.298 . S
C718 N722 1.367 . S
C718 C726 1.481 . S
C719 N721 1.299 . S
C719 N722 1.379 . S
N720 Zn704 2.036 . S
N720 C718 1.298 . S
N720 N721 1.398 . S
N721 C719 1.299 . S
N721 N720 1.398 . S
N722 C718 1.367 . S
N722 C719 1.379 . S
H723 C726 0.980 . S
H724 C726 0.981 . S
H725 C726 0.981 . S
C726 C718 1.481 . S
C726 H723 0.980 . S
C726 H724 0.981 . S
C726 H725 0.981 . S
C727 C714 1.481 . S
C727 H728 0.980 . S
C727 H729 0.981 . S
C727 H730 0.981 . S
H728 C727 0.980 . S
H729 C727 0.981 . S
H730 C727 0.981 . S
O731 Zn707 2.066 . S
O731 C710 1.256 . S
O732 Zn704 2.053 . S
O732 C710 1.244 . S
C733 O711 1.259 . S
C733 O712 1.254 . S
O734 Zn704 2.066 . S
O734 C706 1.256 . S
O735 C706 1.244 . S
O735 Zn707 2.053 . S
Zn736 O737 2.055 . S
Zn736 O744 2.046 . S
Zn736 N752 2.036 . S
Zn736 O764 2.053 . S
Zn736 O766 2.066 . S
O737 Zn736 2.055 . S
O737 C740 1.259 . S
C738 O766 1.256 . S
C738 O767 1.244 . S
Zn739 O741 2.046 . S
Zn739 O743 2.055 . S
Zn739 N745 2.036 . S
Zn739 O763 2.066 . S
Zn739 O767 2.053 . S
C740 O737 1.259 . S
C740 O741 1.254 . S
O741 Zn739 2.046 . S
O741 C740 1.254 . S
C742 O763 1.256 . S
C742 O764 1.244 . S
O743 Zn739 2.055 . S
O743 C765 1.259 . S
O744 Zn736 2.046 . S
O744 C765 1.254 . S
N745 Zn739 2.036 . S
N745 C746 1.298 . S
N745 N748 1.398 . S
C746 N745 1.298 . S
C746 N749 1.367 . S
C746 C759 1.481 . S
C747 N748 1.299 . S
C747 N749 1.379 . S
N748 N745 1.398 . S
N748 C747 1.299 . S
N749 C746 1.367 . S
N749 C747 1.379 . S
C750 N752 1.298 . S
C750 N754 1.367 . S
C750 C758 1.481 . S
C751 N753 1.299 . S
C751 N754 1.379 . S
N752 Zn736 2.036 . S
N752 C750 1.298 . S
N752 N753 1.398 . S
N753 C751 1.299 . S
N753 N752 1.398 . S
N754 C750 1.367 . S
N754 C751 1.379 . S
H755 C758 0.980 . S
H756 C758 0.981 . S
H757 C758 0.981 . S
C758 C750 1.481 . S
C758 H755 0.980 . S
C758 H756 0.981 . S
C758 H757 0.981 . S
C759 C746 1.481 . S
C759 H760 0.980 . S
C759 H761 0.981 . S
C759 H762 0.981 . S
H760 C759 0.980 . S
H761 C759 0.981 . S
H762 C759 0.981 . S
O763 Zn739 2.066 . S
O763 C742 1.256 . S
O764 Zn736 2.053 . S
O764 C742 1.244 . S
C765 O743 1.259 . S
C765 O744 1.254 . S
O766 Zn736 2.066 . S
O766 C738 1.256 . S
O767 C738 1.244 . S
O767 Zn739 2.053 . S
H768 C776 0.929 . S
H769 C778 0.930 . S
H770 C780 0.930 . S
H771 C783 0.929 . S
H772 C786 0.930 . S
H773 C788 0.960 . S
H774 C788 0.960 . S
H775 C788 0.960 . S
C776 H768 0.929 . S
C776 C777 1.377 . S
C776 C778 1.384 . S
C777 C776 1.377 . S
C777 C783 1.390 . S
C778 H769 0.930 . S
C778 C776 1.384 . S
C778 C779 1.372 . S
C779 C778 1.372 . S
C779 C780 1.400 . S
C779 C784 1.490 . S
C780 H770 0.930 . S
C780 C779 1.400 . S
C780 C783 1.386 . S
H781 C797 0.930 . S
H782 C798 0.931 . S
C783 H771 0.929 . S
C783 C777 1.390 . S
C783 C780 1.386 . S
C784 C779 1.490 . S
C784 C786 1.395 . S
C784 C787 1.403 . S
H785 C791 0.930 . S
C786 H772 0.930 . S
C786 C784 1.395 . S
C786 C789 1.403 . S
C787 C784 1.403 . S
C787 C788 1.524 . S
C787 C791 1.400 . S
C788 H773 0.960 . S
C788 H774 0.960 . S
C788 H775 0.960 . S
C788 C787 1.524 . S
C789 C786 1.403 . S
C789 C790 1.392 . S
C789 C793 1.495 . S
C790 C789 1.392 . S
C790 C791 1.385 . S
C790 C792 1.478 . S
C791 H785 0.930 . S
C791 C787 1.400 . S
C791 C790 1.385 . S
C792 C790 1.478 . S
C792 C794 1.381 . S
C792 C798 1.383 . S
C793 C789 1.495 . S
C793 H799 0.959 . S
C793 H800 0.961 . S
C793 H801 0.960 . S
C794 C792 1.381 . S
C794 C795 1.394 . S
C794 H802 0.930 . S
C795 C794 1.394 . S
C795 C796 1.383 . S
C795 H803 0.929 . S
C796 C795 1.383 . S
C796 C797 1.377 . S
C797 H781 0.930 . S
C797 C796 1.377 . S
C797 C798 1.379 . S
C798 H782 0.931 . S
C798 C792 1.383 . S
C798 C797 1.379 . S
H799 C793 0.959 . S
H800 C793 0.961 . S
H801 C793 0.960 . S
H802 C794 0.930 . S
H803 C795 0.929 . S
H804 C812 0.929 . S
H805 C814 0.930 . S
H806 C816 0.930 . S
H807 C819 0.929 . S
H808 C822 0.930 . S
H809 C824 0.960 . S
H810 C824 0.960 . S
H811 C824 0.960 . S
C812 H804 0.929 . S
C812 C813 1.377 . S
C812 C814 1.384 . S
C813 C812 1.377 . S
C813 C819 1.390 . S
C814 H805 0.930 . S
C814 C812 1.384 . S
C814 C815 1.372 . S
C815 C814 1.372 . S
C815 C816 1.400 . S
C815 C820 1.490 . S
C816 H806 0.930 . S
C816 C815 1.400 . S
C816 C819 1.386 . S
H817 C833 0.930 . S
H818 C834 0.931 . S
C819 H807 0.929 . S
C819 C813 1.390 . S
C819 C816 1.386 . S
C820 C815 1.490 . S
C820 C822 1.395 . S
C820 C823 1.403 . S
H821 C827 0.930 . S
C822 H808 0.930 . S
C822 C820 1.395 . S
C822 C825 1.403 . S
C823 C820 1.403 . S
C823 C824 1.524 . S
C823 C827 1.400 . S
C824 H809 0.960 . S
C824 H810 0.960 . S
C824 H811 0.960 . S
C824 C823 1.524 . S
C825 C822 1.403 . S
C825 C826 1.392 . S
C825 C829 1.495 . S
C826 C825 1.392 . S
C826 C827 1.385 . S
C826 C828 1.478 . S
C827 H821 0.930 . S
C827 C823 1.400 . S
C827 C826 1.385 . S
C828 C826 1.478 . S
C828 C830 1.381 . S
C828 C834 1.383 . S
C829 C825 1.495 . S
C829 H835 0.959 . S
C829 H836 0.961 . S
C829 H837 0.960 . S
C830 C828 1.381 . S
C830 C831 1.394 . S
C830 H838 0.930 . S
C831 C830 1.394 . S
C831 C832 1.383 . S
C831 H839 0.929 . S
C832 C831 1.383 . S
C832 C833 1.377 . S
C833 H817 0.930 . S
C833 C832 1.377 . S
C833 C834 1.379 . S
C834 H818 0.931 . S
C834 C828 1.383 . S
C834 C833 1.379 . S
H835 C829 0.959 . S
H836 C829 0.961 . S
H837 C829 0.960 . S
H838 C830 0.930 . S
H839 C831 0.929 . S
H840 C848 0.929 . S
H841 C850 0.930 . S
H842 C852 0.930 . S
H843 C855 0.929 . S
H844 C858 0.930 . S
H845 C860 0.960 . S
H846 C860 0.960 . S
H847 C860 0.960 . S
C848 H840 0.929 . S
C848 C849 1.377 . S
C848 C850 1.384 . S
C849 C848 1.377 . S
C849 C855 1.390 . S
C850 H841 0.930 . S
C850 C848 1.384 . S
C850 C851 1.372 . S
C851 C850 1.372 . S
C851 C852 1.400 . S
C851 C856 1.490 . S
C852 H842 0.930 . S
C852 C851 1.400 . S
C852 C855 1.386 . S
H853 C869 0.930 1_565 S
H854 C870 0.931 . S
C855 H843 0.929 . S
C855 C849 1.390 . S
C855 C852 1.386 . S
C856 C851 1.490 . S
C856 C858 1.395 . S
C856 C859 1.403 . S
H857 C863 0.930 . S
C858 H844 0.930 . S
C858 C856 1.395 . S
C858 C861 1.403 . S
C859 C856 1.403 . S
C859 C860 1.524 . S
C859 C863 1.400 . S
C860 H845 0.960 . S
C860 H846 0.960 . S
C860 H847 0.960 . S
C860 C859 1.524 . S
C861 C858 1.403 . S
C861 C862 1.392 . S
C861 C865 1.495 . S
C862 C861 1.392 . S
C862 C863 1.385 . S
C862 C864 1.478 . S
C863 H857 0.930 . S
C863 C859 1.400 . S
C863 C862 1.385 . S
C864 C862 1.478 . S
C864 C866 1.381 . S
C864 C870 1.383 . S
C865 C861 1.495 . S
C865 H871 0.959 . S
C865 H872 0.961 . S
C865 H873 0.960 . S
C866 C864 1.381 . S
C866 C867 1.394 . S
C866 H874 0.930 . S
C867 C866 1.394 . S
C867 C868 1.383 . S
C867 H875 0.929 . S
C868 C867 1.383 . S
C868 C869 1.377 . S
C869 H853 0.930 1_545 S
C869 C868 1.377 . S
C869 C870 1.379 . S
C870 H854 0.931 . S
C870 C864 1.383 . S
C870 C869 1.379 . S
H871 C865 0.959 . S
H872 C865 0.961 . S
H873 C865 0.960 . S
H874 C866 0.930 . S
H875 C867 0.929 . S
H876 C884 0.929 . S
H877 C886 0.930 . S
H878 C888 0.930 . S
H879 C891 0.929 . S
H880 C894 0.930 . S
H881 C896 0.960 . S
H882 C896 0.960 . S
H883 C896 0.960 . S
C884 H876 0.929 . S
C884 C885 1.377 . S
C884 C886 1.384 . S
C885 C884 1.377 . S
C885 C891 1.390 . S
C886 H877 0.930 . S
C886 C884 1.384 . S
C886 C887 1.372 . S
C887 C886 1.372 . S
C887 C888 1.400 . S
C887 C892 1.490 . S
C888 H878 0.930 . S
C888 C887 1.400 . S
C888 C891 1.386 . S
H889 C905 0.930 . S
H890 C906 0.931 . S
C891 H879 0.929 . S
C891 C885 1.390 . S
C891 C888 1.386 . S
C892 C887 1.490 . S
C892 C894 1.395 . S
C892 C895 1.403 . S
H893 C899 0.930 . S
C894 H880 0.930 . S
C894 C892 1.395 . S
C894 C897 1.403 . S
C895 C892 1.403 . S
C895 C896 1.524 . S
C895 C899 1.400 . S
C896 H881 0.960 . S
C896 H882 0.960 . S
C896 H883 0.960 . S
C896 C895 1.524 . S
C897 C894 1.403 . S
C897 C898 1.392 . S
C897 C901 1.495 . S
C898 C897 1.392 . S
C898 C899 1.385 . S
C898 C900 1.478 . S
C899 H893 0.930 . S
C899 C895 1.400 . S
C899 C898 1.385 . S
C900 C898 1.478 . S
C900 C902 1.381 . S
C900 C906 1.383 . S
C901 C897 1.495 . S
C901 H907 0.959 . S
C901 H908 0.961 . S
C901 H909 0.960 . S
C902 C900 1.381 . S
C902 C903 1.394 1_565 S
C902 H910 0.930 . S
C903 C902 1.394 1_545 S
C903 C904 1.383 1_545 S
C903 H911 0.929 . S
C904 C903 1.383 1_565 S
C904 C905 1.377 . S
C905 H889 0.930 . S
C905 C904 1.377 . S
C905 C906 1.379 . S
C906 H890 0.931 . S
C906 C900 1.383 . S
C906 C905 1.379 . S
H907 C901 0.959 . S
H908 C901 0.961 . S
H909 C901 0.960 . S
H910 C902 0.930 . S
H911 C903 0.929 . S
H912 C920 0.929 . S
H913 C922 0.930 . S
H914 C924 0.930 . S
H915 C927 0.929 . S
H916 C930 0.930 . S
H917 C932 0.960 . S
H918 C932 0.960 . S
H919 C932 0.960 . S
C920 H912 0.929 . S
C920 C921 1.377 . S
C920 C922 1.384 . S
C921 C920 1.377 . S
C921 C927 1.390 . S
C922 H913 0.930 . S
C922 C920 1.384 . S
C922 C923 1.372 . S
C923 C922 1.372 . S
C923 C924 1.400 . S
C923 C928 1.490 . S
C924 H914 0.930 . S
C924 C923 1.400 . S
C924 C927 1.386 . S
H925 C941 0.930 . S
H926 C942 0.931 . S
C927 H915 0.929 . S
C927 C921 1.390 . S
C927 C924 1.386 . S
C928 C923 1.490 . S
C928 C930 1.395 . S
C928 C931 1.403 . S
H929 C935 0.930 . S
C930 H916 0.930 . S
C930 C928 1.395 . S
C930 C933 1.403 . S
C931 C928 1.403 . S
C931 C932 1.524 . S
C931 C935 1.400 . S
C932 H917 0.960 . S
C932 H918 0.960 . S
C932 H919 0.960 . S
C932 C931 1.524 . S
C933 C930 1.403 . S
C933 C934 1.392 . S
C933 C937 1.495 . S
C934 C933 1.392 . S
C934 C935 1.385 . S
C934 C936 1.478 . S
C935 H929 0.930 . S
C935 C931 1.400 . S
C935 C934 1.385 . S
C936 C934 1.478 . S
C936 C938 1.381 . S
C936 C942 1.383 . S
C937 C933 1.495 . S
C937 H943 0.959 . S
C937 H944 0.961 . S
C937 H945 0.960 . S
C938 C936 1.381 . S
C938 C939 1.394 . S
C938 H946 0.930 . S
C939 C938 1.394 . S
C939 C940 1.383 . S
C939 H947 0.929 . S
C940 C939 1.383 . S
C940 C941 1.377 . S
C941 H925 0.930 . S
C941 C940 1.377 . S
C941 C942 1.379 . S
C942 H926 0.931 . S
C942 C936 1.383 . S
C942 C941 1.379 . S
H943 C937 0.959 . S
H944 C937 0.961 . S
H945 C937 0.960 . S
H946 C938 0.930 . S
H947 C939 0.929 . S
H948 C956 0.929 . S
H949 C958 0.930 . S
H950 C960 0.930 . S
H951 C963 0.929 . S
H952 C966 0.930 . S
H953 C968 0.960 . S
H954 C968 0.960 . S
H955 C968 0.960 . S
C956 H948 0.929 . S
C956 C957 1.377 . S
C956 C958 1.384 . S
C957 C956 1.377 . S
C957 C963 1.390 . S
C958 H949 0.930 . S
C958 C956 1.384 . S
C958 C959 1.372 . S
C959 C958 1.372 . S
C959 C960 1.400 . S
C959 C964 1.490 . S
C960 H950 0.930 . S
C960 C959 1.400 . S
C960 C963 1.386 . S
H961 C977 0.930 1_554 S
H962 C978 0.931 . S
C963 H951 0.929 . S
C963 C957 1.390 . S
C963 C960 1.386 . S
C964 C959 1.490 . S
C964 C966 1.395 . S
C964 C967 1.403 . S
H965 C971 0.930 . S
C966 H952 0.930 . S
C966 C964 1.395 . S
C966 C969 1.403 . S
C967 C964 1.403 . S
C967 C968 1.524 . S
C967 C971 1.400 . S
C968 H953 0.960 . S
C968 H954 0.960 . S
C968 H955 0.960 . S
C968 C967 1.524 . S
C969 C966 1.403 . S
C969 C970 1.392 . S
C969 C973 1.495 . S
C970 C969 1.392 . S
C970 C971 1.385 . S
C970 C972 1.478 . S
C971 H965 0.930 . S
C971 C967 1.400 . S
C971 C970 1.385 . S
C972 C970 1.478 . S
C972 C974 1.381 . S
C972 C978 1.383 . S
C973 C969 1.495 . S
C973 H979 0.959 . S
C973 H980 0.961 . S
C973 H981 0.960 . S
C974 C972 1.381 . S
C974 C975 1.394 . S
C974 H982 0.930 . S
C975 C974 1.394 . S
C975 C976 1.383 . S
C975 H983 0.929 . S
C976 C975 1.383 . S
C976 C977 1.377 . S
C977 H961 0.930 1_556 S
C977 C976 1.377 . S
C977 C978 1.379 . S
C978 H962 0.931 . S
C978 C972 1.383 . S
C978 C977 1.379 . S
H979 C973 0.959 . S
H980 C973 0.961 . S
H981 C973 0.960 . S
H982 C974 0.930 . S
H983 C975 0.929 . S
H984 C992 0.929 . S
H985 C994 0.930 . S
H986 C996 0.930 . S
H987 C999 0.929 . S
H988 C1002 0.930 . S
H989 C1004 0.960 . S
H990 C1004 0.960 . S
H991 C1004 0.960 . S
C992 H984 0.929 . S
C992 C993 1.377 . S
C992 C994 1.384 . S
C993 C992 1.377 . S
C993 C999 1.390 . S
C994 H985 0.930 . S
C994 C992 1.384 . S
C994 C995 1.372 . S
C995 C994 1.372 . S
C995 C996 1.400 . S
C995 C1000 1.490 . S
C996 H986 0.930 . S
C996 C995 1.400 . S
C996 C999 1.386 . S
H997 C1013 0.930 . S
H998 C1014 0.931 . S
C999 H987 0.929 . S
C999 C993 1.390 . S
C999 C996 1.386 . S
C1000 C995 1.490 . S
C1000 C1002 1.395 . S
C1000 C1003 1.403 . S
H1001 C1007 0.930 . S
C1002 H988 0.930 . S
C1002 C1000 1.395 . S
C1002 C1005 1.403 . S
C1003 C1000 1.403 . S
C1003 C1004 1.524 . S
C1003 C1007 1.400 . S
C1004 H989 0.960 . S
C1004 H990 0.960 . S
C1004 H991 0.960 . S
C1004 C1003 1.524 . S
C1005 C1002 1.403 . S
C1005 C1006 1.392 . S
C1005 C1009 1.495 . S
C1006 C1005 1.392 . S
C1006 C1007 1.385 . S
C1006 C1008 1.478 . S
C1007 H1001 0.930 . S
C1007 C1003 1.400 . S
C1007 C1006 1.385 . S
C1008 C1006 1.478 . S
C1008 C1010 1.381 . S
C1008 C1014 1.383 . S
C1009 C1005 1.495 . S
C1009 H1015 0.959 . S
C1009 H1016 0.961 . S
C1009 H1017 0.960 . S
C1010 C1008 1.381 . S
C1010 C1011 1.394 . S
C1010 H1018 0.930 . S
C1011 C1010 1.394 . S
C1011 C1012 1.383 . S
C1011 H1019 0.929 . S
C1012 C1011 1.383 . S
C1012 C1013 1.377 . S
C1013 H997 0.930 . S
C1013 C1012 1.377 . S
C1013 C1014 1.379 . S
C1014 H998 0.931 . S
C1014 C1008 1.383 . S
C1014 C1013 1.379 . S
H1015 C1009 0.959 . S
H1016 C1009 0.961 . S
H1017 C1009 0.960 . S
H1018 C1010 0.930 . S
H1019 C1011 0.929 . S
H1020 C1028 0.929 . S
H1021 C1030 0.930 . S
H1022 C1032 0.930 . S
H1023 C1035 0.929 . S
H1024 C1038 0.930 . S
H1025 C1040 0.960 . S
H1026 C1040 0.960 . S
H1027 C1040 0.960 . S
C1028 H1020 0.929 . S
C1028 C1029 1.377 . S
C1028 C1030 1.384 . S
C1029 C1028 1.377 . S
C1029 C1035 1.390 . S
C1030 H1021 0.930 . S
C1030 C1028 1.384 . S
C1030 C1031 1.372 . S
C1031 C1030 1.372 . S
C1031 C1032 1.400 . S
C1031 C1036 1.490 . S
C1032 H1022 0.930 . S
C1032 C1031 1.400 . S
C1032 C1035 1.386 . S
H1033 C1049 0.930 1_556 S
H1034 C1050 0.931 . S
C1035 H1023 0.929 . S
C1035 C1029 1.390 . S
C1035 C1032 1.386 . S
C1036 C1031 1.490 . S
C1036 C1038 1.395 . S
C1036 C1039 1.403 . S
H1037 C1043 0.930 . S
C1038 H1024 0.930 . S
C1038 C1036 1.395 . S
C1038 C1041 1.403 . S
C1039 C1036 1.403 . S
C1039 C1040 1.524 . S
C1039 C1043 1.400 . S
C1040 H1025 0.960 . S
C1040 H1026 0.960 . S
C1040 H1027 0.960 . S
C1040 C1039 1.524 . S
C1041 C1038 1.403 . S
C1041 C1042 1.392 . S
C1041 C1045 1.495 . S
C1042 C1041 1.392 . S
C1042 C1043 1.385 . S
C1042 C1044 1.478 . S
C1043 H1037 0.930 . S
C1043 C1039 1.400 . S
C1043 C1042 1.385 . S
C1044 C1042 1.478 . S
C1044 C1046 1.381 . S
C1044 C1050 1.383 . S
C1045 C1041 1.495 . S
C1045 H1051 0.959 . S
C1045 H1052 0.961 . S
C1045 H1053 0.960 . S
C1046 C1044 1.381 . S
C1046 C1047 1.394 . S
C1046 H1054 0.930 . S
C1047 C1046 1.394 . S
C1047 C1048 1.383 . S
C1047 H1055 0.929 . S
C1048 C1047 1.383 . S
C1048 C1049 1.377 . S
C1049 H1033 0.930 1_554 S
C1049 C1048 1.377 . S
C1049 C1050 1.379 . S
C1050 H1034 0.931 . S
C1050 C1044 1.383 . S
C1050 C1049 1.379 . S
H1051 C1045 0.959 . S
H1052 C1045 0.961 . S
H1053 C1045 0.960 . S
H1054 C1046 0.930 . S
H1055 C1047 0.929 . S
H1056 C1064 0.929 . S
H1057 C1066 0.930 . S
H1058 C1068 0.930 . S
H1059 C1071 0.929 . S
H1060 C1074 0.930 . S
H1061 C1076 0.960 . S
H1062 C1076 0.960 . S
H1063 C1076 0.960 . S
C1064 H1056 0.929 . S
C1064 C1065 1.377 . S
C1064 C1066 1.384 . S
C1065 C1064 1.377 . S
C1065 C1071 1.390 . S
C1066 H1057 0.930 . S
C1066 C1064 1.384 . S
C1066 C1067 1.372 . S
C1067 C1066 1.372 . S
C1067 C1068 1.400 . S
C1067 C1072 1.490 . S
C1068 H1058 0.930 . S
C1068 C1067 1.400 . S
C1068 C1071 1.386 . S
H1069 C1085 0.930 . S
H1070 C1086 0.931 . S
C1071 H1059 0.929 . S
C1071 C1065 1.390 . S
C1071 C1068 1.386 . S
C1072 C1067 1.490 . S
C1072 C1074 1.395 . S
C1072 C1075 1.403 . S
H1073 C1079 0.930 . S
C1074 H1060 0.930 . S
C1074 C1072 1.395 . S
C1074 C1077 1.403 . S
C1075 C1072 1.403 . S
C1075 C1076 1.524 . S
C1075 C1079 1.400 . S
C1076 H1061 0.960 . S
C1076 H1062 0.960 . S
C1076 H1063 0.960 . S
C1076 C1075 1.524 . S
C1077 C1074 1.403 . S
C1077 C1078 1.392 . S
C1077 C1081 1.495 . S
C1078 C1077 1.392 . S
C1078 C1079 1.385 . S
C1078 C1080 1.478 . S
C1079 H1073 0.930 . S
C1079 C1075 1.400 . S
C1079 C1078 1.385 . S
C1080 C1078 1.478 . S
C1080 C1082 1.381 . S
C1080 C1086 1.383 . S
C1081 C1077 1.495 . S
C1081 H1087 0.959 . S
C1081 H1088 0.961 . S
C1081 H1089 0.960 . S
C1082 C1080 1.381 . S
C1082 C1083 1.394 . S
C1082 H1090 0.930 . S
C1083 C1082 1.394 . S
C1083 C1084 1.383 . S
C1083 H1091 0.929 . S
C1084 C1083 1.383 . S
C1084 C1085 1.377 . S
C1085 H1069 0.930 . S
C1085 C1084 1.377 . S
C1085 C1086 1.379 . S
C1086 H1070 0.931 . S
C1086 C1080 1.383 . S
C1086 C1085 1.379 . S
H1087 C1081 0.959 . S
H1088 C1081 0.961 . S
H1089 C1081 0.960 . S
H1090 C1082 0.930 . S
H1091 C1083 0.929 . S
H1092 C1100 0.929 . S
H1093 C1102 0.930 . S
H1094 C1104 0.930 . S
H1095 C1107 0.929 . S
H1096 C1110 0.930 . S
H1097 C1112 0.960 . S
H1098 C1112 0.960 . S
H1099 C1112 0.960 . S
C1100 H1092 0.929 . S
C1100 C1101 1.377 . S
C1100 C1102 1.384 . S
C1101 C1100 1.377 . S
C1101 C1107 1.390 . S
C1102 H1093 0.930 . S
C1102 C1100 1.384 . S
C1102 C1103 1.372 . S
C1103 C1102 1.372 . S
C1103 C1104 1.400 . S
C1103 C1108 1.490 . S
C1104 H1094 0.930 . S
C1104 C1103 1.400 . S
C1104 C1107 1.386 . S
H1105 C1121 0.930 . S
H1106 C1122 0.931 . S
C1107 H1095 0.929 . S
C1107 C1101 1.390 . S
C1107 C1104 1.386 . S
C1108 C1103 1.490 . S
C1108 C1110 1.395 . S
C1108 C1111 1.403 . S
H1109 C1115 0.930 . S
C1110 H1096 0.930 . S
C1110 C1108 1.395 . S
C1110 C1113 1.403 . S
C1111 C1108 1.403 . S
C1111 C1112 1.524 . S
C1111 C1115 1.400 . S
C1112 H1097 0.960 . S
C1112 H1098 0.960 . S
C1112 H1099 0.960 . S
C1112 C1111 1.524 . S
C1113 C1110 1.403 . S
C1113 C1114 1.392 . S
C1113 C1117 1.495 . S
C1114 C1113 1.392 . S
C1114 C1115 1.385 . S
C1114 C1116 1.478 . S
C1115 H1109 0.930 . S
C1115 C1111 1.400 . S
C1115 C1114 1.385 . S
C1116 C1114 1.478 . S
C1116 C1118 1.381 . S
C1116 C1122 1.383 . S
C1117 C1113 1.495 . S
C1117 H1123 0.959 . S
C1117 H1124 0.961 . S
C1117 H1125 0.960 . S
C1118 C1116 1.381 . S
C1118 C1119 1.394 . S
C1118 H1126 0.930 . S
C1119 C1118 1.394 . S
C1119 C1120 1.383 . S
C1119 H1127 0.946 . S
C1120 C1119 1.383 . S
C1120 C1121 1.377 . S
C1121 H1105 0.930 . S
C1121 C1120 1.377 . S
C1121 C1122 1.379 . S
C1122 H1106 0.931 . S
C1122 C1116 1.383 . S
C1122 C1121 1.379 . S
H1123 C1117 0.959 . S
H1124 C1117 0.961 . S
H1125 C1117 0.960 . S
H1126 C1118 0.930 . S
H1127 C1119 0.946 . S
H1128 C1136 0.929 . S
H1129 C1138 0.930 . S
H1130 C1140 0.930 . S
H1131 C1143 0.929 . S
H1132 C1146 0.930 . S
H1133 C1148 0.960 . S
H1134 C1148 0.960 . S
H1135 C1148 0.960 . S
C1136 H1128 0.929 . S
C1136 C1137 1.377 . S
C1136 C1138 1.384 . S
C1137 C1136 1.377 . S
C1137 C1143 1.390 . S
C1138 H1129 0.930 . S
C1138 C1136 1.384 . S
C1138 C1139 1.372 . S
C1139 C1138 1.372 . S
C1139 C1140 1.400 . S
C1139 C1144 1.490 . S
C1140 H1130 0.930 . S
C1140 C1139 1.400 . S
C1140 C1143 1.386 . S
H1141 C1157 0.930 . S
H1142 C1158 0.931 . S
C1143 H1131 0.929 . S
C1143 C1137 1.390 . S
C1143 C1140 1.386 . S
C1144 C1139 1.490 . S
C1144 C1146 1.395 . S
C1144 C1147 1.403 . S
H1145 C1151 0.930 . S
C1146 H1132 0.930 . S
C1146 C1144 1.395 . S
C1146 C1149 1.403 . S
C1147 C1144 1.403 . S
C1147 C1148 1.524 . S
C1147 C1151 1.400 . S
C1148 H1133 0.960 . S
C1148 H1134 0.960 . S
C1148 H1135 0.960 . S
C1148 C1147 1.524 . S
C1149 C1146 1.403 . S
C1149 C1150 1.392 . S
C1149 C1153 1.495 . S
C1150 C1149 1.392 . S
C1150 C1151 1.385 . S
C1150 C1152 1.478 . S
C1151 H1145 0.930 . S
C1151 C1147 1.400 . S
C1151 C1150 1.385 . S
C1152 C1150 1.478 . S
C1152 C1154 1.381 . S
C1152 C1158 1.383 . S
C1153 C1149 1.495 . S
C1153 H1159 0.959 . S
C1153 H1160 0.961 . S
C1153 H1161 0.960 . S
C1154 C1152 1.381 . S
C1154 C1155 1.394 . S
C1154 H1162 0.930 . S
C1155 C1154 1.394 . S
C1155 C1156 1.383 . S
C1155 H1163 0.929 . S
C1156 C1155 1.383 . S
C1156 C1157 1.377 . S
C1157 H1141 0.930 . S
C1157 C1156 1.377 . S
C1157 C1158 1.379 . S
C1158 H1142 0.931 . S
C1158 C1152 1.383 . S
C1158 C1157 1.379 . S
H1159 C1153 0.959 . S
H1160 C1153 0.961 . S
H1161 C1153 0.960 . S
H1162 C1154 0.930 . S
H1163 C1155 0.929 . S
H1164 C1172 0.929 . S
H1165 C1174 0.930 . S
H1166 C1176 0.930 . S
H1167 C1179 0.929 . S
H1168 C1182 0.930 . S
H1169 C1184 0.960 . S
H1170 C1184 0.960 . S
H1171 C1184 0.960 . S
C1172 H1164 0.929 . S
C1172 C1173 1.377 . S
C1172 C1174 1.384 . S
C1173 C1172 1.377 . S
C1173 C1179 1.390 . S
C1174 H1165 0.930 . S
C1174 C1172 1.384 . S
C1174 C1175 1.372 . S
C1175 C1174 1.372 . S
C1175 C1176 1.400 . S
C1175 C1180 1.490 . S
C1176 H1166 0.930 . S
C1176 C1175 1.400 . S
C1176 C1179 1.386 . S
H1177 C1193 0.930 1_655 S
H1178 C1194 0.931 . S
C1179 H1167 0.929 . S
C1179 C1173 1.390 . S
C1179 C1176 1.386 . S
C1180 C1175 1.490 . S
C1180 C1182 1.395 . S
C1180 C1183 1.403 . S
H1181 C1187 0.930 . S
C1182 H1168 0.930 . S
C1182 C1180 1.395 . S
C1182 C1185 1.403 . S
C1183 C1180 1.403 . S
C1183 C1184 1.524 . S
C1183 C1187 1.400 . S
C1184 H1169 0.960 . S
C1184 H1170 0.960 . S
C1184 H1171 0.960 . S
C1184 C1183 1.524 . S
C1185 C1182 1.403 . S
C1185 C1186 1.392 . S
C1185 C1189 1.495 . S
C1186 C1185 1.392 . S
C1186 C1187 1.385 . S
C1186 C1188 1.478 . S
C1187 H1181 0.930 . S
C1187 C1183 1.400 . S
C1187 C1186 1.385 . S
C1188 C1186 1.478 . S
C1188 C1190 1.381 . S
C1188 C1194 1.383 . S
C1189 C1185 1.495 . S
C1189 H1195 0.959 . S
C1189 H1196 0.961 . S
C1189 H1197 0.960 . S
C1190 C1188 1.381 . S
C1190 C1191 1.394 . S
C1190 H1198 0.930 . S
C1191 C1190 1.394 . S
C1191 C1192 1.383 . S
C1191 H1199 0.929 . S
C1192 C1191 1.383 . S
C1192 C1193 1.377 . S
C1193 H1177 0.930 1_455 S
C1193 C1192 1.377 . S
C1193 C1194 1.379 . S
C1194 H1178 0.931 . S
C1194 C1188 1.383 . S
C1194 C1193 1.379 . S
H1195 C1189 0.959 . S
H1196 C1189 0.961 . S
H1197 C1189 0.960 . S
H1198 C1190 0.930 . S
H1199 C1191 0.929 . S
H1200 C1208 0.929 . S
H1201 C1210 0.930 . S
H1202 C1212 0.930 . S
H1203 C1215 0.929 . S
H1204 C1218 0.930 . S
H1205 C1220 0.960 . S
H1206 C1220 0.960 . S
H1207 C1220 0.960 . S
C1208 H1200 0.929 . S
C1208 C1209 1.377 . S
C1208 C1210 1.384 . S
C1209 C1208 1.377 . S
C1209 C1215 1.390 . S
C1210 H1201 0.930 . S
C1210 C1208 1.384 . S
C1210 C1211 1.372 . S
C1211 C1210 1.372 . S
C1211 C1212 1.400 . S
C1211 C1216 1.490 . S
C1212 H1202 0.930 . S
C1212 C1211 1.400 . S
C1212 C1215 1.386 . S
H1213 C1229 0.930 . S
H1214 C1230 0.931 . S
C1215 H1203 0.929 . S
C1215 C1209 1.390 . S
C1215 C1212 1.386 . S
C1216 C1211 1.490 . S
C1216 C1218 1.395 . S
C1216 C1219 1.403 . S
H1217 C1223 0.930 . S
C1218 H1204 0.930 . S
C1218 C1216 1.395 . S
C1218 C1221 1.403 . S
C1219 C1216 1.403 . S
C1219 C1220 1.524 . S
C1219 C1223 1.400 . S
C1220 H1205 0.960 . S
C1220 H1206 0.960 . S
C1220 H1207 0.960 . S
C1220 C1219 1.524 . S
C1221 C1218 1.403 . S
C1221 C1222 1.392 . S
C1221 C1225 1.495 . S
C1222 C1221 1.392 . S
C1222 C1223 1.385 . S
C1222 C1224 1.478 . S
C1223 H1217 0.930 . S
C1223 C1219 1.400 . S
C1223 C1222 1.385 . S
C1224 C1222 1.478 . S
C1224 C1226 1.381 . S
C1224 C1230 1.383 . S
C1225 C1221 1.495 . S
C1225 H1231 0.959 . S
C1225 H1232 0.961 . S
C1225 H1233 0.960 . S
C1226 C1224 1.381 . S
C1226 C1227 1.394 . S
C1226 H1234 0.930 . S
C1227 C1226 1.394 . S
C1227 C1228 1.383 . S
C1227 H1235 0.929 . S
C1228 C1227 1.383 . S
C1228 C1229 1.377 . S
C1229 H1213 0.930 . S
C1229 C1228 1.377 . S
C1229 C1230 1.379 . S
C1230 H1214 0.931 . S
C1230 C1224 1.383 . S
C1230 C1229 1.379 . S
H1231 C1225 0.959 . S
H1232 C1225 0.961 . S
H1233 C1225 0.960 . S
H1234 C1226 0.930 . S
H1235 C1227 0.929 . S
H1236 C1244 0.929 . S
H1237 C1246 0.930 . S
H1238 C1248 0.930 . S
H1239 C1251 0.929 . S
H1240 C1254 0.930 . S
H1241 C1256 0.960 . S
H1242 C1256 0.960 . S
H1243 C1256 0.960 . S
C1244 H1236 0.929 . S
C1244 C1245 1.377 . S
C1244 C1246 1.384 . S
C1245 C1244 1.377 . S
C1245 C1251 1.390 . S
C1246 H1237 0.930 . S
C1246 C1244 1.384 . S
C1246 C1247 1.372 . S
C1247 C1246 1.372 . S
C1247 C1248 1.400 . S
C1247 C1252 1.490 . S
C1248 H1238 0.930 . S
C1248 C1247 1.400 . S
C1248 C1251 1.386 . S
H1249 C1265 0.930 . S
H1250 C1266 0.931 . S
C1251 H1239 0.929 . S
C1251 C1245 1.390 . S
C1251 C1248 1.386 . S
C1252 C1247 1.490 . S
C1252 C1254 1.395 . S
C1252 C1255 1.403 . S
H1253 C1259 0.930 . S
C1254 H1240 0.930 . S
C1254 C1252 1.395 . S
C1254 C1257 1.403 . S
C1255 C1252 1.403 . S
C1255 C1256 1.524 . S
C1255 C1259 1.400 . S
C1256 H1241 0.960 . S
C1256 H1242 0.960 . S
C1256 H1243 0.960 . S
C1256 C1255 1.524 . S
C1257 C1254 1.403 . S
C1257 C1258 1.392 . S
C1257 C1261 1.495 . S
C1258 C1257 1.392 . S
C1258 C1259 1.385 . S
C1258 C1260 1.478 . S
C1259 H1253 0.930 . S
C1259 C1255 1.400 . S
C1259 C1258 1.385 . S
C1260 C1258 1.478 . S
C1260 C1262 1.381 . S
C1260 C1266 1.383 . S
C1261 C1257 1.495 . S
C1261 H1267 0.959 . S
C1261 H1268 0.961 . S
C1261 H1269 0.960 . S
C1262 C1260 1.381 . S
C1262 C1263 1.394 . S
C1262 H1270 0.930 . S
C1263 C1262 1.394 . S
C1263 C1264 1.383 . S
C1263 H1271 0.929 . S
C1264 C1263 1.383 . S
C1264 C1265 1.377 . S
C1265 H1249 0.930 . S
C1265 C1264 1.377 . S
C1265 C1266 1.379 . S
C1266 H1250 0.931 . S
C1266 C1260 1.383 . S
C1266 C1265 1.379 . S
H1267 C1261 0.959 . S
H1268 C1261 0.961 . S
H1269 C1261 0.960 . S
H1270 C1262 0.930 . S
H1271 C1263 0.929 . S
H1272 C1280 0.929 . S
H1273 C1282 0.930 . S
H1274 C1284 0.930 . S
H1275 C1287 0.929 . S
H1276 C1290 0.930 . S
H1277 C1292 0.960 . S
H1278 C1292 0.960 . S
H1279 C1292 0.960 . S
C1280 H1272 0.929 . S
C1280 C1281 1.377 . S
C1280 C1282 1.384 . S
C1281 C1280 1.377 . S
C1281 C1287 1.390 . S
C1282 H1273 0.930 . S
C1282 C1280 1.384 . S
C1282 C1283 1.372 . S
C1283 C1282 1.372 . S
C1283 C1284 1.400 . S
C1283 C1288 1.490 . S
C1284 H1274 0.930 . S
C1284 C1283 1.400 . S
C1284 C1287 1.386 . S
H1285 C1301 0.930 1_545 S
H1286 C1302 0.931 . S
C1287 H1275 0.929 . S
C1287 C1281 1.390 . S
C1287 C1284 1.386 . S
C1288 C1283 1.490 . S
C1288 C1290 1.395 . S
C1288 C1291 1.403 . S
H1289 C1295 0.930 . S
C1290 H1276 0.930 . S
C1290 C1288 1.395 . S
C1290 C1293 1.403 . S
C1291 C1288 1.403 . S
C1291 C1292 1.524 . S
C1291 C1295 1.400 . S
C1292 H1277 0.960 . S
C1292 H1278 0.960 . S
C1292 H1279 0.960 . S
C1292 C1291 1.524 . S
C1293 C1290 1.403 . S
C1293 C1294 1.392 . S
C1293 C1297 1.495 . S
C1294 C1293 1.392 . S
C1294 C1295 1.385 . S
C1294 C1296 1.478 . S
C1295 H1289 0.930 . S
C1295 C1291 1.400 . S
C1295 C1294 1.385 . S
C1296 C1294 1.478 . S
C1296 C1298 1.381 . S
C1296 C1302 1.383 . S
C1297 C1293 1.495 . S
C1297 H1303 0.959 . S
C1297 H1304 0.961 . S
C1297 H1305 0.960 . S
C1298 C1296 1.381 . S
C1298 C1299 1.394 . S
C1298 H1306 0.930 . S
C1299 C1298 1.394 . S
C1299 C1300 1.383 . S
C1299 H1307 0.929 . S
C1300 C1299 1.383 . S
C1300 C1301 1.377 . S
C1301 H1285 0.930 1_565 S
C1301 C1300 1.377 . S
C1301 C1302 1.379 . S
C1302 H1286 0.931 . S
C1302 C1296 1.383 . S
C1302 C1301 1.379 . S
H1303 C1297 0.959 . S
H1304 C1297 0.961 . S
H1305 C1297 0.960 . S
H1306 C1298 0.930 . S
H1307 C1299 0.929 . S
H1308 C1316 0.929 . S
H1309 C1318 0.930 . S
H1310 C1320 0.930 . S
H1311 C1323 0.929 1_565 S
H1312 C1326 0.930 . S
H1313 C1328 0.960 . S
H1314 C1328 0.960 . S
H1315 C1328 0.960 . S
C1316 H1308 0.929 . S
C1316 C1317 1.377 . S
C1316 C1318 1.384 . S
C1317 C1316 1.377 . S
C1317 C1323 1.390 . S
C1318 H1309 0.930 . S
C1318 C1316 1.384 . S
C1318 C1319 1.372 . S
C1319 C1318 1.372 . S
C1319 C1320 1.400 . S
C1319 C1324 1.490 . S
C1320 H1310 0.930 . S
C1320 C1319 1.400 . S
C1320 C1323 1.386 . S
H1321 C1337 0.930 . S
H1322 C1338 0.931 . S
C1323 H1311 0.929 1_545 S
C1323 C1317 1.390 . S
C1323 C1320 1.386 . S
C1324 C1319 1.490 . S
C1324 C1326 1.395 . S
C1324 C1327 1.403 . S
H1325 C1331 0.930 . S
C1326 H1312 0.930 . S
C1326 C1324 1.395 . S
C1326 C1329 1.403 . S
C1327 C1324 1.403 . S
C1327 C1328 1.524 . S
C1327 C1331 1.400 . S
C1328 H1313 0.960 . S
C1328 H1314 0.960 . S
C1328 H1315 0.960 . S
C1328 C1327 1.524 . S
C1329 C1326 1.403 . S
C1329 C1330 1.392 . S
C1329 C1333 1.495 . S
C1330 C1329 1.392 . S
C1330 C1331 1.385 . S
C1330 C1332 1.478 . S
C1331 H1325 0.930 . S
C1331 C1327 1.400 . S
C1331 C1330 1.385 . S
C1332 C1330 1.478 . S
C1332 C1334 1.381 . S
C1332 C1338 1.383 . S
C1333 C1329 1.495 . S
C1333 H1339 0.959 . S
C1333 H1340 0.961 . S
C1333 H1341 0.960 . S
C1334 C1332 1.381 . S
C1334 C1335 1.394 . S
C1334 H1342 0.930 . S
C1335 C1334 1.394 . S
C1335 C1336 1.383 . S
C1335 H1343 0.929 . S
C1336 C1335 1.383 . S
C1336 C1337 1.377 . S
C1337 H1321 0.930 . S
C1337 C1336 1.377 . S
C1337 C1338 1.379 . S
C1338 H1322 0.931 . S
C1338 C1332 1.383 . S
C1338 C1337 1.379 . S
H1339 C1333 0.959 . S
H1340 C1333 0.961 . S
H1341 C1333 0.960 . S
H1342 C1334 0.930 . S
H1343 C1335 0.929 . S
H1344 C1352 0.929 . S
H1345 C1354 0.930 . S
H1346 C1356 0.930 . S
H1347 C1359 0.929 . S
H1348 C1362 0.930 . S
H1349 C1364 0.960 . S
H1350 C1364 0.960 . S
H1351 C1364 0.960 . S
C1352 H1344 0.929 . S
C1352 C1353 1.377 . S
C1352 C1354 1.384 . S
C1353 C1352 1.377 . S
C1353 C1359 1.390 . S
C1354 H1345 0.930 . S
C1354 C1352 1.384 . S
C1354 C1355 1.372 . S
C1355 C1354 1.372 . S
C1355 C1356 1.400 . S
C1355 C1360 1.490 . S
C1356 H1346 0.930 . S
C1356 C1355 1.400 . S
C1356 C1359 1.386 . S
H1357 C1373 0.930 . S
H1358 C1374 0.931 . S
C1359 H1347 0.929 . S
C1359 C1353 1.390 . S
C1359 C1356 1.386 . S
C1360 C1355 1.490 . S
C1360 C1362 1.395 . S
C1360 C1363 1.403 . S
H1361 C1367 0.930 . S
C1362 H1348 0.930 . S
C1362 C1360 1.395 . S
C1362 C1365 1.403 . S
C1363 C1360 1.403 . S
C1363 C1364 1.524 . S
C1363 C1367 1.400 . S
C1364 H1349 0.960 . S
C1364 H1350 0.960 . S
C1364 H1351 0.960 . S
C1364 C1363 1.524 . S
C1365 C1362 1.403 . S
C1365 C1366 1.392 . S
C1365 C1369 1.495 . S
C1366 C1365 1.392 . S
C1366 C1367 1.385 . S
C1366 C1368 1.478 . S
C1367 H1361 0.930 . S
C1367 C1363 1.400 . S
C1367 C1366 1.385 . S
C1368 C1366 1.478 . S
C1368 C1370 1.381 . S
C1368 C1374 1.383 . S
C1369 C1365 1.495 . S
C1369 H1375 0.959 . S
C1369 H1376 0.961 . S
C1369 H1377 0.960 . S
C1370 C1368 1.381 . S
C1370 C1371 1.394 . S
C1370 H1378 0.930 . S
C1371 C1370 1.394 . S
C1371 C1372 1.383 . S
C1371 H1379 0.929 . S
C1372 C1371 1.383 . S
C1372 C1373 1.377 . S
C1373 H1357 0.930 . S
C1373 C1372 1.377 . S
C1373 C1374 1.379 . S
C1374 H1358 0.931 . S
C1374 C1368 1.383 . S
C1374 C1373 1.379 . S
H1375 C1369 0.959 . S
H1376 C1369 0.961 . S
H1377 C1369 0.960 . S
H1378 C1370 0.930 . S
H1379 C1371 0.929 . S
H1380 C1388 0.929 . S
H1381 C1390 0.930 . S
H1382 C1392 0.930 . S
H1383 C1395 0.929 . S
H1384 C1398 0.930 . S
H1385 C1400 0.960 . S
H1386 C1400 0.960 . S
H1387 C1400 0.960 . S
C1388 H1380 0.929 . S
C1388 C1389 1.377 . S
C1388 C1390 1.384 . S
C1389 C1388 1.377 . S
C1389 C1395 1.390 . S
C1390 H1381 0.930 . S
C1390 C1388 1.384 . S
C1390 C1391 1.372 . S
C1391 C1390 1.372 . S
C1391 C1392 1.400 . S
C1391 C1396 1.490 . S
C1392 H1382 0.930 . S
C1392 C1391 1.400 . S
C1392 C1395 1.386 . S
H1393 C1409 0.930 . S
H1394 C1410 0.931 . S
C1395 H1383 0.929 . S
C1395 C1389 1.390 . S
C1395 C1392 1.386 . S
C1396 C1391 1.490 . S
C1396 C1398 1.395 . S
C1396 C1399 1.403 . S
H1397 C1403 0.930 . S
C1398 H1384 0.930 . S
C1398 C1396 1.395 . S
C1398 C1401 1.403 . S
C1399 C1396 1.403 . S
C1399 C1400 1.524 . S
C1399 C1403 1.400 . S
C1400 H1385 0.960 . S
C1400 H1386 0.960 . S
C1400 H1387 0.960 . S
C1400 C1399 1.524 . S
C1401 C1398 1.403 . S
C1401 C1402 1.392 . S
C1401 C1405 1.495 . S
C1402 C1401 1.392 . S
C1402 C1403 1.385 . S
C1402 C1404 1.478 . S
C1403 H1397 0.930 . S
C1403 C1399 1.400 . S
C1403 C1402 1.385 . S
C1404 C1402 1.478 . S
C1404 C1406 1.381 . S
C1404 C1410 1.383 . S
C1405 C1401 1.495 . S
C1405 H1411 0.959 . S
C1405 H1412 0.961 . S
C1405 H1413 0.960 . S
C1406 C1404 1.381 . S
C1406 C1407 1.394 . S
C1406 H1414 0.930 . S
C1407 C1406 1.394 . S
C1407 C1408 1.383 . S
C1407 H1415 0.929 . S
C1408 C1407 1.383 . S
C1408 C1409 1.377 . S
C1409 H1393 0.930 . S
C1409 C1408 1.377 . S
C1409 C1410 1.379 . S
C1410 H1394 0.931 . S
C1410 C1404 1.383 . S
C1410 C1409 1.379 . S
H1411 C1405 0.959 . S
H1412 C1405 0.961 . S
H1413 C1405 0.960 . S
H1414 C1406 0.930 . S
H1415 C1407 0.929 . S
H1416 C1424 0.929 . S
H1417 C1426 0.930 . S
H1418 C1428 0.930 . S
H1419 C1431 0.929 . S
H1420 C1434 0.930 . S
H1421 C1436 0.960 . S
H1422 C1436 0.960 . S
H1423 C1436 0.960 . S
C1424 H1416 0.929 . S
C1424 C1425 1.377 . S
C1424 C1426 1.384 . S
C1425 C1424 1.377 . S
C1425 C1431 1.390 . S
C1426 H1417 0.930 . S
C1426 C1424 1.384 . S
C1426 C1427 1.372 . S
C1427 C1426 1.372 . S
C1427 C1428 1.400 . S
C1427 C1432 1.490 . S
C1428 H1418 0.930 . S
C1428 C1427 1.400 . S
C1428 C1431 1.386 . S
H1429 C1445 0.930 . S
H1430 C1446 0.931 . S
C1431 H1419 0.929 . S
C1431 C1425 1.390 . S
C1431 C1428 1.386 . S
C1432 C1427 1.490 . S
C1432 C1434 1.395 . S
C1432 C1435 1.403 . S
H1433 C1439 0.930 . S
C1434 H1420 0.930 . S
C1434 C1432 1.395 . S
C1434 C1437 1.403 . S
C1435 C1432 1.403 . S
C1435 C1436 1.524 . S
C1435 C1439 1.400 . S
C1436 H1421 0.960 . S
C1436 H1422 0.960 . S
C1436 H1423 0.960 . S
C1436 C1435 1.524 . S
C1437 C1434 1.403 . S
C1437 C1438 1.392 . S
C1437 C1441 1.495 . S
C1438 C1437 1.392 . S
C1438 C1439 1.385 . S
C1438 C1440 1.478 . S
C1439 H1433 0.930 . S
C1439 C1435 1.400 . S
C1439 C1438 1.385 . S
C1440 C1438 1.478 . S
C1440 C1442 1.381 . S
C1440 C1446 1.383 . S
C1441 C1437 1.495 . S
C1441 H1447 0.959 . S
C1441 H1448 0.961 . S
C1441 H1449 0.960 . S
C1442 C1440 1.381 . S
C1442 C1443 1.394 . S
C1442 H1450 0.930 . S
C1443 C1442 1.394 . S
C1443 C1444 1.383 . S
C1443 H1451 0.929 . S
C1444 C1443 1.383 . S
C1444 C1445 1.377 . S
C1445 H1429 0.930 . S
C1445 C1444 1.377 . S
C1445 C1446 1.379 . S
C1446 H1430 0.931 . S
C1446 C1440 1.383 . S
C1446 C1445 1.379 . S
H1447 C1441 0.959 . S
H1448 C1441 0.961 . S
H1449 C1441 0.960 . S
H1450 C1442 0.930 . S
H1451 C1443 0.929 . S
H1452 C1460 0.929 . S
H1453 C1462 0.930 . S
H1454 C1464 0.930 . S
H1455 C1467 0.929 1_554 S
H1456 C1470 0.930 . S
H1457 C1472 0.960 . S
H1458 C1472 0.960 . S
H1459 C1472 0.960 . S
C1460 H1452 0.929 . S
C1460 C1461 1.377 . S
C1460 C1462 1.384 . S
C1461 C1460 1.377 . S
C1461 C1467 1.390 . S
C1462 H1453 0.930 . S
C1462 C1460 1.384 . S
C1462 C1463 1.372 . S
C1463 C1462 1.372 . S
C1463 C1464 1.400 . S
C1463 C1468 1.490 . S
C1464 H1454 0.930 . S
C1464 C1463 1.400 . S
C1464 C1467 1.386 . S
H1465 C1481 0.930 . S
H1466 C1482 0.931 . S
C1467 H1455 0.929 1_556 S
C1467 C1461 1.390 . S
C1467 C1464 1.386 . S
C1468 C1463 1.490 . S
C1468 C1470 1.395 . S
C1468 C1471 1.403 . S
H1469 C1475 0.930 . S
C1470 H1456 0.930 . S
C1470 C1468 1.395 . S
C1470 C1473 1.403 . S
C1471 C1468 1.403 . S
C1471 C1472 1.524 . S
C1471 C1475 1.400 . S
C1472 H1457 0.960 . S
C1472 H1458 0.960 . S
C1472 H1459 0.960 . S
C1472 C1471 1.524 . S
C1473 C1470 1.403 . S
C1473 C1474 1.392 . S
C1473 C1477 1.495 . S
C1474 C1473 1.392 . S
C1474 C1475 1.385 . S
C1474 C1476 1.478 . S
C1475 H1469 0.930 . S
C1475 C1471 1.400 . S
C1475 C1474 1.385 . S
C1476 C1474 1.478 . S
C1476 C1478 1.381 . S
C1476 C1482 1.383 . S
C1477 C1473 1.495 . S
C1477 H1483 0.959 . S
C1477 H1484 0.961 . S
C1477 H1485 0.960 . S
C1478 C1476 1.381 . S
C1478 C1479 1.394 . S
C1478 H1486 0.930 . S
C1479 C1478 1.394 . S
C1479 C1480 1.383 . S
C1479 H1487 0.929 . S
C1480 C1479 1.383 . S
C1480 C1481 1.377 . S
C1481 H1465 0.930 . S
C1481 C1480 1.377 . S
C1481 C1482 1.379 . S
C1482 H1466 0.931 . S
C1482 C1476 1.383 . S
C1482 C1481 1.379 . S
H1483 C1477 0.959 . S
H1484 C1477 0.961 . S
H1485 C1477 0.960 . S
H1486 C1478 0.930 . S
H1487 C1479 0.929 . S
H1488 C1496 0.929 . S
H1489 C1498 0.930 . S
H1490 C1500 0.930 . S
H1491 C1503 0.929 . S
H1492 C1506 0.930 . S
H1493 C1508 0.960 . S
H1494 C1508 0.960 . S
H1495 C1508 0.960 . S
C1496 H1488 0.929 . S
C1496 C1497 1.377 . S
C1496 C1498 1.384 . S
C1497 C1496 1.377 . S
C1497 C1503 1.390 . S
C1498 H1489 0.930 . S
C1498 C1496 1.384 . S
C1498 C1499 1.372 . S
C1499 C1498 1.372 . S
C1499 C1500 1.400 . S
C1499 C1504 1.490 . S
C1500 H1490 0.930 . S
C1500 C1499 1.400 . S
C1500 C1503 1.386 . S
H1501 C1517 0.930 . S
H1502 C1518 0.931 . S
C1503 H1491 0.929 . S
C1503 C1497 1.390 . S
C1503 C1500 1.386 . S
C1504 C1499 1.490 . S
C1504 C1506 1.395 . S
C1504 C1507 1.403 . S
H1505 C1511 0.930 . S
C1506 H1492 0.930 . S
C1506 C1504 1.395 . S
C1506 C1509 1.403 . S
C1507 C1504 1.403 . S
C1507 C1508 1.524 . S
C1507 C1511 1.400 . S
C1508 H1493 0.960 . S
C1508 H1494 0.960 . S
C1508 H1495 0.960 . S
C1508 C1507 1.524 . S
C1509 C1506 1.403 . S
C1509 C1510 1.392 . S
C1509 C1513 1.495 . S
C1510 C1509 1.392 . S
C1510 C1511 1.385 . S
C1510 C1512 1.478 . S
C1511 H1505 0.930 . S
C1511 C1507 1.400 . S
C1511 C1510 1.385 . S
C1512 C1510 1.478 . S
C1512 C1514 1.381 . S
C1512 C1518 1.383 . S
C1513 C1509 1.495 . S
C1513 H1519 0.959 . S
C1513 H1520 0.961 . S
C1513 H1521 0.960 . S
C1514 C1512 1.381 . S
C1514 C1515 1.394 . S
C1514 H1522 0.930 . S
C1515 C1514 1.394 . S
C1515 C1516 1.383 . S
C1515 H1523 0.929 . S
C1516 C1515 1.383 . S
C1516 C1517 1.377 . S
C1517 H1501 0.930 . S
C1517 C1516 1.377 . S
C1517 C1518 1.379 . S
C1518 H1502 0.931 . S
C1518 C1512 1.383 . S
C1518 C1517 1.379 . S
H1519 C1513 0.959 . S
H1520 C1513 0.961 . S
H1521 C1513 0.960 . S
H1522 C1514 0.930 . S
H1523 C1515 0.929 . S
H1524 C1532 0.929 1_655 S
H1525 C1534 0.930 . S
H1526 C1536 0.930 . S
H1527 C1539 0.929 . S
H1528 C1542 0.930 . S
H1529 C1544 0.960 . S
H1530 C1544 0.960 . S
H1531 C1544 0.960 . S
C1532 H1524 0.929 1_455 S
C1532 C1533 1.377 . S
C1532 C1534 1.384 . S
C1533 C1532 1.377 . S
C1533 C1539 1.390 . S
C1534 H1525 0.930 . S
C1534 C1532 1.384 . S
C1534 C1535 1.372 . S
C1535 C1534 1.372 . S
C1535 C1536 1.400 . S
C1535 C1540 1.490 . S
C1536 H1526 0.930 . S
C1536 C1535 1.400 . S
C1536 C1539 1.386 . S
H1537 C1553 0.930 . S
H1538 C1554 0.931 . S
C1539 H1527 0.929 . S
C1539 C1533 1.390 . S
C1539 C1536 1.386 . S
C1540 C1535 1.490 . S
C1540 C1542 1.395 . S
C1540 C1543 1.403 . S
H1541 C1547 0.930 . S
C1542 H1528 0.930 . S
C1542 C1540 1.395 . S
C1542 C1545 1.403 . S
C1543 C1540 1.403 . S
C1543 C1544 1.524 . S
C1543 C1547 1.400 . S
C1544 H1529 0.960 . S
C1544 H1530 0.960 . S
C1544 H1531 0.960 . S
C1544 C1543 1.524 . S
C1545 C1542 1.403 . S
C1545 C1546 1.392 . S
C1545 C1549 1.495 . S
C1546 C1545 1.392 . S
C1546 C1547 1.385 . S
C1546 C1548 1.478 . S
C1547 H1541 0.930 . S
C1547 C1543 1.400 . S
C1547 C1546 1.385 . S
C1548 C1546 1.478 . S
C1548 C1550 1.381 . S
C1548 C1554 1.383 . S
C1549 C1545 1.495 . S
C1549 H1555 0.959 . S
C1549 H1556 0.961 . S
C1549 H1557 0.960 . S
C1550 C1548 1.381 . S
C1550 C1551 1.394 . S
C1550 H1558 0.930 . S
C1551 C1550 1.394 . S
C1551 C1552 1.383 . S
C1551 H1559 0.929 . S
C1552 C1551 1.383 . S
C1552 C1553 1.377 . S
C1553 H1537 0.930 . S
C1553 C1552 1.377 . S
C1553 C1554 1.379 . S
C1554 H1538 0.931 . S
C1554 C1548 1.383 . S
C1554 C1553 1.379 . S
H1555 C1549 0.959 . S
H1556 C1549 0.961 . S
H1557 C1549 0.960 . S
H1558 C1550 0.930 . S
H1559 C1551 0.929 . S
H1560 C1568 0.929 . S
H1561 C1570 0.930 . S
H1562 C1572 0.930 . S
H1563 C1575 0.929 . S
H1564 C1578 0.930 . S
H1565 C1580 0.960 . S
H1566 C1580 0.960 . S
H1567 C1580 0.960 . S
C1568 H1560 0.929 . S
C1568 C1569 1.377 . S
C1568 C1570 1.384 . S
C1569 C1568 1.377 . S
C1569 C1575 1.390 . S
C1570 H1561 0.930 . S
C1570 C1568 1.384 . S
C1570 C1571 1.372 . S
C1571 C1570 1.372 . S
C1571 C1572 1.400 . S
C1571 C1576 1.490 . S
C1572 H1562 0.930 . S
C1572 C1571 1.400 . S
C1572 C1575 1.386 . S
H1573 C1589 0.930 . S
H1574 C1590 0.931 . S
C1575 H1563 0.929 . S
C1575 C1569 1.390 . S
C1575 C1572 1.386 . S
C1576 C1571 1.490 . S
C1576 C1578 1.395 . S
C1576 C1579 1.403 . S
H1577 C1583 0.930 . S
C1578 H1564 0.930 . S
C1578 C1576 1.395 . S
C1578 C1581 1.403 . S
C1579 C1576 1.403 . S
C1579 C1580 1.524 . S
C1579 C1583 1.400 . S
C1580 H1565 0.960 . S
C1580 H1566 0.960 . S
C1580 H1567 0.960 . S
C1580 C1579 1.524 . S
C1581 C1578 1.403 . S
C1581 C1582 1.392 . S
C1581 C1585 1.495 . S
C1582 C1581 1.392 . S
C1582 C1583 1.385 . S
C1582 C1584 1.478 . S
C1583 H1577 0.930 . S
C1583 C1579 1.400 . S
C1583 C1582 1.385 . S
C1584 C1582 1.478 . S
C1584 C1586 1.381 . S
C1584 C1590 1.383 . S
C1585 C1581 1.495 . S
C1585 H1591 0.959 . S
C1585 H1592 0.961 . S
C1585 H1593 0.960 . S
C1586 C1584 1.381 . S
C1586 C1587 1.394 . S
C1586 H1594 0.930 . S
C1587 C1586 1.394 . S
C1587 C1588 1.383 . S
C1587 H1595 0.929 . S
C1588 C1587 1.383 . S
C1588 C1589 1.377 . S
C1589 H1573 0.930 . S
C1589 C1588 1.377 . S
C1589 C1590 1.379 . S
C1590 H1574 0.931 . S
C1590 C1584 1.383 . S
C1590 C1589 1.379 . S
H1591 C1585 0.959 . S
H1592 C1585 0.961 . S
H1593 C1585 0.960 . S
H1594 C1586 0.930 . S
H1595 C1587 0.929 . S
H1596 C1604 0.929 . S
H1597 C1606 0.930 . S
H1598 C1608 0.930 . S
H1599 C1611 0.929 . S
H1600 C1614 0.930 . S
H1601 C1616 0.960 . S
H1602 C1616 0.960 . S
H1603 C1616 0.960 . S
C1604 H1596 0.929 . S
C1604 C1605 1.377 . S
C1604 C1606 1.384 . S
C1605 C1604 1.377 . S
C1605 C1611 1.390 . S
C1606 H1597 0.930 . S
C1606 C1604 1.384 . S
C1606 C1607 1.372 . S
C1607 C1606 1.372 . S
C1607 C1608 1.400 . S
C1607 C1612 1.490 . S
C1608 H1598 0.930 . S
C1608 C1607 1.400 . S
C1608 C1611 1.386 . S
H1609 C1625 0.955 . S
H1610 C1626 0.931 . S
C1611 H1599 0.929 . S
C1611 C1605 1.390 . S
C1611 C1608 1.386 . S
C1612 C1607 1.490 . S
C1612 C1614 1.395 . S
C1612 C1615 1.403 . S
H1613 C1619 0.930 . S
C1614 H1600 0.930 . S
C1614 C1612 1.395 . S
C1614 C1617 1.403 . S
C1615 C1612 1.403 . S
C1615 C1616 1.524 . S
C1615 C1619 1.400 . S
C1616 H1601 0.960 . S
C1616 H1602 0.960 . S
C1616 H1603 0.960 . S
C1616 C1615 1.524 . S
C1617 C1614 1.403 . S
C1617 C1618 1.392 . S
C1617 C1621 1.495 . S
C1618 C1617 1.392 . S
C1618 C1619 1.385 . S
C1618 C1620 1.478 . S
C1619 H1613 0.930 . S
C1619 C1615 1.400 . S
C1619 C1618 1.385 . S
C1620 C1618 1.478 . S
C1620 C1622 1.381 . S
C1620 C1626 1.383 . S
C1621 C1617 1.495 . S
C1621 H1627 0.959 . S
C1621 H1628 0.961 . S
C1621 H1629 0.960 . S
C1622 C1620 1.381 . S
C1622 C1623 1.394 . S
C1622 H1630 0.930 . S
C1623 C1622 1.394 . S
C1623 C1624 1.383 . S
C1623 H1631 0.929 . S
C1624 C1623 1.383 . S
C1624 C1625 1.377 . S
C1625 H1609 0.955 . S
C1625 C1624 1.377 . S
C1625 C1626 1.379 . S
C1626 H1610 0.931 . S
C1626 C1620 1.383 . S
C1626 C1625 1.379 . S
H1627 C1621 0.959 . S
H1628 C1621 0.961 . S
H1629 C1621 0.960 . S
H1630 C1622 0.930 . S
H1631 C1623 0.929 . S
H1632 C1640 0.929 . S
H1633 C1642 0.930 . S
H1634 C1644 0.930 . S
H1635 C1647 0.929 . S
H1636 C1650 0.930 . S
H1637 C1652 0.960 . S
H1638 C1652 0.960 . S
H1639 C1652 0.960 . S
C1640 H1632 0.929 . S
C1640 C1641 1.377 . S
C1640 C1642 1.384 . S
C1641 C1640 1.377 . S
C1641 C1647 1.390 . S
C1642 H1633 0.930 . S
C1642 C1640 1.384 . S
C1642 C1643 1.372 . S
C1643 C1642 1.372 . S
C1643 C1644 1.400 . S
C1643 C1648 1.490 . S
C1644 H1634 0.930 . S
C1644 C1643 1.400 . S
C1644 C1647 1.386 . S
H1645 C1661 0.930 . S
H1646 C1662 0.931 . S
C1647 H1635 0.929 . S
C1647 C1641 1.390 . S
C1647 C1644 1.386 . S
C1648 C1643 1.490 . S
C1648 C1650 1.395 . S
C1648 C1651 1.403 . S
H1649 C1655 0.930 . S
C1650 H1636 0.930 . S
C1650 C1648 1.395 . S
C1650 C1653 1.403 . S
C1651 C1648 1.403 . S
C1651 C1652 1.524 . S
C1651 C1655 1.400 . S
C1652 H1637 0.960 . S
C1652 H1638 0.960 . S
C1652 H1639 0.960 . S
C1652 C1651 1.524 . S
C1653 C1650 1.403 . S
C1653 C1654 1.392 . S
C1653 C1657 1.495 . S
C1654 C1653 1.392 . S
C1654 C1655 1.385 . S
C1654 C1656 1.478 . S
C1655 H1649 0.930 . S
C1655 C1651 1.400 . S
C1655 C1654 1.385 . S
C1656 C1654 1.478 . S
C1656 C1658 1.381 . S
C1656 C1662 1.383 . S
C1657 C1653 1.495 . S
C1657 H1663 0.959 . S
C1657 H1664 0.961 . S
C1657 H1665 0.960 . S
C1658 C1656 1.381 . S
C1658 C1659 1.394 . S
C1658 H1666 0.930 . S
C1659 C1658 1.394 . S
C1659 C1660 1.383 . S
C1659 H1667 0.929 . S
C1660 C1659 1.383 . S
C1660 C1661 1.377 . S
C1661 H1645 0.930 . S
C1661 C1660 1.377 . S
C1661 C1662 1.379 . S
C1662 H1646 0.931 . S
C1662 C1656 1.383 . S
C1662 C1661 1.379 . S
H1663 C1657 0.959 . S
H1664 C1657 0.961 . S
H1665 C1657 0.960 . S
H1666 C1658 0.930 . S
H1667 C1659 0.929 . S
H1668 C1676 0.929 . S
H1669 C1678 0.930 . S
H1670 C1680 0.930 . S
H1671 C1683 0.929 . S
H1672 C1686 0.930 . S
H1673 C1688 0.960 . S
H1674 C1688 0.960 . S
H1675 C1688 0.960 . S
C1676 H1668 0.929 . S
C1676 C1677 1.377 . S
C1676 C1678 1.384 . S
C1677 C1676 1.377 . S
C1677 C1683 1.390 . S
C1678 H1669 0.930 . S
C1678 C1676 1.384 . S
C1678 C1679 1.372 . S
C1679 C1678 1.372 . S
C1679 C1680 1.400 . S
C1679 C1684 1.490 . S
C1680 H1670 0.930 . S
C1680 C1679 1.400 . S
C1680 C1683 1.386 . S
H1681 C1697 0.930 . S
H1682 C1698 0.931 . S
C1683 H1671 0.929 . S
C1683 C1677 1.390 . S
C1683 C1680 1.386 . S
C1684 C1679 1.490 . S
C1684 C1686 1.395 . S
C1684 C1687 1.403 . S
H1685 C1691 0.930 . S
C1686 H1672 0.930 . S
C1686 C1684 1.395 . S
C1686 C1689 1.403 . S
C1687 C1684 1.403 . S
C1687 C1688 1.524 . S
C1687 C1691 1.400 . S
C1688 H1673 0.960 . S
C1688 H1674 0.960 . S
C1688 H1675 0.960 . S
C1688 C1687 1.524 . S
C1689 C1686 1.403 . S
C1689 C1690 1.392 . S
C1689 C1693 1.495 . S
C1690 C1689 1.392 . S
C1690 C1691 1.385 . S
C1690 C1692 1.478 . S
C1691 H1685 0.930 . S
C1691 C1687 1.400 . S
C1691 C1690 1.385 . S
C1692 C1690 1.478 . S
C1692 C1694 1.381 . S
C1692 C1698 1.383 . S
C1693 C1689 1.495 . S
C1693 H1699 0.959 . S
C1693 H1700 0.961 . S
C1693 H1701 0.960 . S
C1694 C1692 1.381 . S
C1694 C1695 1.394 . S
C1694 H1702 0.930 . S
C1695 C1694 1.394 . S
C1695 C1696 1.383 . S
C1695 H1703 0.929 . S
C1696 C1695 1.383 . S
C1696 C1697 1.377 . S
C1697 H1681 0.930 . S
C1697 C1696 1.377 . S
C1697 C1698 1.379 . S
C1698 H1682 0.931 . S
C1698 C1692 1.383 . S
C1698 C1697 1.379 . S
H1699 C1693 0.959 . S
H1700 C1693 0.961 . S
H1701 C1693 0.960 . S
H1702 C1694 0.930 . S
H1703 C1695 0.929 . S
H1704 C1712 0.929 . S
H1705 C1714 0.930 . S
H1706 C1716 0.930 . S
H1707 C1719 0.929 . S
H1708 C1722 0.930 . S
H1709 C1724 0.960 . S
H1710 C1724 0.960 . S
H1711 C1724 0.960 . S
C1712 H1704 0.929 . S
C1712 C1713 1.377 . S
C1712 C1714 1.384 . S
C1713 C1712 1.377 . S
C1713 C1719 1.390 . S
C1714 H1705 0.930 . S
C1714 C1712 1.384 . S
C1714 C1715 1.372 . S
C1715 C1714 1.372 . S
C1715 C1716 1.400 . S
C1715 C1720 1.490 . S
C1716 H1706 0.930 . S
C1716 C1715 1.400 . S
C1716 C1719 1.386 . S
H1717 C1733 0.930 . S
H1718 C1734 0.931 . S
C1719 H1707 0.929 . S
C1719 C1713 1.390 . S
C1719 C1716 1.386 . S
C1720 C1715 1.490 . S
C1720 C1722 1.395 . S
C1720 C1723 1.403 . S
H1721 C1727 0.930 . S
C1722 H1708 0.930 . S
C1722 C1720 1.395 . S
C1722 C1725 1.403 . S
C1723 C1720 1.403 . S
C1723 C1724 1.524 . S
C1723 C1727 1.400 . S
C1724 H1709 0.960 . S
C1724 H1710 0.960 . S
C1724 H1711 0.960 . S
C1724 C1723 1.524 . S
C1725 C1722 1.403 . S
C1725 C1726 1.392 . S
C1725 C1729 1.495 . S
C1726 C1725 1.392 . S
C1726 C1727 1.385 . S
C1726 C1728 1.478 . S
C1727 H1721 0.930 . S
C1727 C1723 1.400 . S
C1727 C1726 1.385 . S
C1728 C1726 1.478 . S
C1728 C1730 1.381 . S
C1728 C1734 1.383 . S
C1729 C1725 1.495 . S
C1729 H1735 0.959 . S
C1729 H1736 0.961 . S
C1729 H1737 0.960 . S
C1730 C1728 1.381 . S
C1730 C1731 1.394 . S
C1730 H1738 0.930 . S
C1731 C1730 1.394 . S
C1731 C1732 1.383 . S
C1731 H1739 0.929 . S
C1732 C1731 1.383 . S
C1732 C1733 1.377 . S
C1733 H1717 0.930 . S
C1733 C1732 1.377 . S
C1733 C1734 1.379 . S
C1734 H1718 0.931 . S
C1734 C1728 1.383 . S
C1734 C1733 1.379 . S
H1735 C1729 0.959 . S
H1736 C1729 0.961 . S
H1737 C1729 0.960 . S
H1738 C1730 0.930 . S
H1739 C1731 0.929 . S
H1740 C1748 0.929 . S
H1741 C1750 0.930 . S
H1742 C1752 0.930 . S
H1743 C1755 0.929 . S
H1744 C1758 0.930 . S
H1745 C1760 0.960 . S
H1746 C1760 0.960 . S
H1747 C1760 0.960 . S
C1748 H1740 0.929 . S
C1748 C1749 1.377 . S
C1748 C1750 1.384 . S
C1749 C1748 1.377 . S
C1749 C1755 1.390 . S
C1750 H1741 0.930 . S
C1750 C1748 1.384 . S
C1750 C1751 1.372 . S
C1751 C1750 1.372 . S
C1751 C1752 1.400 . S
C1751 C1756 1.490 . S
C1752 H1742 0.930 . S
C1752 C1751 1.400 . S
C1752 C1755 1.386 . S
H1753 C1769 0.930 . S
H1754 C1770 0.931 . S
C1755 H1743 0.929 . S
C1755 C1749 1.390 . S
C1755 C1752 1.386 . S
C1756 C1751 1.490 . S
C1756 C1758 1.395 . S
C1756 C1759 1.403 . S
H1757 C1763 0.930 . S
C1758 H1744 0.930 . S
C1758 C1756 1.395 . S
C1758 C1761 1.403 . S
C1759 C1756 1.403 . S
C1759 C1760 1.524 . S
C1759 C1763 1.400 . S
C1760 H1745 0.960 . S
C1760 H1746 0.960 . S
C1760 H1747 0.960 . S
C1760 C1759 1.524 . S
C1761 C1758 1.403 . S
C1761 C1762 1.392 . S
C1761 C1765 1.495 . S
C1762 C1761 1.392 . S
C1762 C1763 1.385 . S
C1762 C1764 1.478 . S
C1763 H1757 0.930 . S
C1763 C1759 1.400 . S
C1763 C1762 1.385 . S
C1764 C1762 1.478 . S
C1764 C1766 1.381 . S
C1764 C1770 1.383 . S
C1765 C1761 1.495 . S
C1765 H1771 0.959 . S
C1765 H1772 0.961 . S
C1765 H1773 0.960 . S
C1766 C1764 1.381 . S
C1766 C1767 1.394 . S
C1766 H1774 0.930 . S
C1767 C1766 1.394 . S
C1767 C1768 1.383 . S
C1767 H1775 0.929 . S
C1768 C1767 1.383 . S
C1768 C1769 1.377 . S
C1769 H1753 0.930 . S
C1769 C1768 1.377 . S
C1769 C1770 1.379 . S
C1770 H1754 0.931 . S
C1770 C1764 1.383 . S
C1770 C1769 1.379 . S
H1771 C1765 0.959 . S
H1772 C1765 0.961 . S
H1773 C1765 0.960 . S
H1774 C1766 0.930 . S
H1775 C1767 0.929 . S
H1776 C1784 0.929 . S
H1777 C1786 0.930 . S
H1778 C1788 0.930 . S
H1779 C1791 0.929 . S
H1780 C1794 0.930 . S
H1781 C1796 0.960 . S
H1782 C1796 0.960 . S
H1783 C1796 0.960 . S
C1784 H1776 0.929 . S
C1784 C1785 1.377 . S
C1784 C1786 1.384 . S
C1785 C1784 1.377 . S
C1785 C1791 1.390 . S
C1786 H1777 0.930 . S
C1786 C1784 1.384 . S
C1786 C1787 1.372 . S
C1787 C1786 1.372 . S
C1787 C1788 1.400 . S
C1787 C1792 1.490 . S
C1788 H1778 0.930 . S
C1788 C1787 1.400 . S
C1788 C1791 1.386 . S
H1789 C1805 0.930 . S
H1790 C1806 0.931 . S
C1791 H1779 0.929 . S
C1791 C1785 1.390 . S
C1791 C1788 1.386 . S
C1792 C1787 1.490 . S
C1792 C1794 1.395 . S
C1792 C1795 1.403 . S
H1793 C1799 0.930 . S
C1794 H1780 0.930 . S
C1794 C1792 1.395 . S
C1794 C1797 1.403 . S
C1795 C1792 1.403 . S
C1795 C1796 1.524 . S
C1795 C1799 1.400 . S
C1796 H1781 0.960 . S
C1796 H1782 0.960 . S
C1796 H1783 0.960 . S
C1796 C1795 1.524 . S
C1797 C1794 1.403 . S
C1797 C1798 1.392 . S
C1797 C1801 1.495 . S
C1798 C1797 1.392 . S
C1798 C1799 1.385 . S
C1798 C1800 1.478 . S
C1799 H1793 0.930 . S
C1799 C1795 1.400 . S
C1799 C1798 1.385 . S
C1800 C1798 1.478 . S
C1800 C1802 1.381 . S
C1800 C1806 1.383 . S
C1801 C1797 1.495 . S
C1801 H1807 0.959 . S
C1801 H1808 0.961 . S
C1801 H1809 0.960 . S
C1802 C1800 1.381 . S
C1802 C1803 1.394 . S
C1802 H1810 0.930 . S
C1803 C1802 1.394 . S
C1803 C1804 1.383 . S
C1803 H1811 0.929 . S
C1804 C1803 1.383 . S
C1804 C1805 1.377 . S
C1805 H1789 0.930 . S
C1805 C1804 1.377 . S
C1805 C1806 1.379 . S
C1806 H1790 0.931 . S
C1806 C1800 1.383 . S
C1806 C1805 1.379 . S
H1807 C1801 0.959 . S
H1808 C1801 0.961 . S
H1809 C1801 0.960 . S
H1810 C1802 0.930 . S
H1811 C1803 0.929 . S
H1812 C1820 0.929 . S
H1813 C1822 0.930 . S
H1814 C1824 0.930 . S
H1815 C1827 0.929 . S
H1816 C1830 0.930 . S
H1817 C1832 0.960 . S
H1818 C1832 0.960 . S
H1819 C1832 0.960 . S
C1820 H1812 0.929 . S
C1820 C1821 1.377 . S
C1820 C1822 1.384 . S
C1821 C1820 1.377 . S
C1821 C1827 1.390 . S
C1822 H1813 0.930 . S
C1822 C1820 1.384 . S
C1822 C1823 1.372 . S
C1823 C1822 1.372 . S
C1823 C1824 1.400 . S
C1823 C1828 1.490 . S
C1824 H1814 0.930 . S
C1824 C1823 1.400 . S
C1824 C1827 1.386 . S
H1825 C1841 0.930 . S
H1826 C1842 0.931 . S
C1827 H1815 0.929 . S
C1827 C1821 1.390 . S
C1827 C1824 1.386 . S
C1828 C1823 1.490 . S
C1828 C1830 1.395 . S
C1828 C1831 1.403 . S
H1829 C1835 0.930 . S
C1830 H1816 0.930 . S
C1830 C1828 1.395 . S
C1830 C1833 1.403 . S
C1831 C1828 1.403 . S
C1831 C1832 1.524 . S
C1831 C1835 1.400 . S
C1832 H1817 0.960 . S
C1832 H1818 0.960 . S
C1832 H1819 0.960 . S
C1832 C1831 1.524 . S
C1833 C1830 1.403 . S
C1833 C1834 1.392 . S
C1833 C1837 1.495 . S
C1834 C1833 1.392 . S
C1834 C1835 1.385 . S
C1834 C1836 1.478 . S
C1835 H1829 0.930 . S
C1835 C1831 1.400 . S
C1835 C1834 1.385 . S
C1836 C1834 1.478 . S
C1836 C1838 1.381 . S
C1836 C1842 1.383 . S
C1837 C1833 1.495 . S
C1837 H1843 0.959 . S
C1837 H1844 0.961 . S
C1837 H1845 0.960 . S
C1838 C1836 1.381 . S
C1838 C1839 1.394 . S
C1838 H1846 0.930 . S
C1839 C1838 1.394 . S
C1839 C1840 1.383 . S
C1839 H1847 0.929 . S
C1840 C1839 1.383 . S
C1840 C1841 1.377 . S
C1841 H1825 0.930 . S
C1841 C1840 1.377 . S
C1841 C1842 1.379 . S
C1842 H1826 0.931 . S
C1842 C1836 1.383 . S
C1842 C1841 1.379 . S
H1843 C1837 0.959 . S
H1844 C1837 0.961 . S
H1845 C1837 0.960 . S
H1846 C1838 0.930 . S
H1847 C1839 0.929 . S
H1848 C1856 0.929 . S
H1849 C1858 0.930 . S
H1850 C1860 0.930 . S
H1851 C1863 0.929 . S
H1852 C1866 0.930 . S
H1853 C1868 0.960 . S
H1854 C1868 0.960 . S
H1855 C1868 0.960 . S
C1856 H1848 0.929 . S
C1856 C1857 1.377 . S
C1856 C1858 1.384 . S
C1857 C1856 1.377 . S
C1857 C1863 1.390 . S
C1858 H1849 0.930 . S
C1858 C1856 1.384 . S
C1858 C1859 1.372 . S
C1859 C1858 1.372 . S
C1859 C1860 1.400 . S
C1859 C1864 1.490 . S
C1860 H1850 0.930 . S
C1860 C1859 1.400 . S
C1860 C1863 1.386 . S
H1861 C1877 0.930 . S
H1862 C1878 0.931 . S
C1863 H1851 0.929 . S
C1863 C1857 1.390 . S
C1863 C1860 1.386 . S
C1864 C1859 1.490 . S
C1864 C1866 1.395 . S
C1864 C1867 1.403 . S
H1865 C1871 0.930 . S
C1866 H1852 0.930 . S
C1866 C1864 1.395 . S
C1866 C1869 1.403 . S
C1867 C1864 1.403 . S
C1867 C1868 1.524 . S
C1867 C1871 1.400 . S
C1868 H1853 0.960 . S
C1868 H1854 0.960 . S
C1868 H1855 0.960 . S
C1868 C1867 1.524 . S
C1869 C1866 1.403 . S
C1869 C1870 1.392 . S
C1869 C1873 1.495 . S
C1870 C1869 1.392 . S
C1870 C1871 1.385 . S
C1870 C1872 1.478 . S
C1871 H1865 0.930 . S
C1871 C1867 1.400 . S
C1871 C1870 1.385 . S
C1872 C1870 1.478 . S
C1872 C1874 1.381 . S
C1872 C1878 1.383 . S
C1873 C1869 1.495 . S
C1873 H1879 0.959 . S
C1873 H1880 0.961 . S
C1873 H1881 0.960 . S
C1874 C1872 1.381 . S
C1874 C1875 1.394 . S
C1874 H1882 0.930 . S
C1875 C1874 1.394 . S
C1875 C1876 1.383 . S
C1875 H1883 0.929 . S
C1876 C1875 1.383 . S
C1876 C1877 1.377 . S
C1877 H1861 0.930 . S
C1877 C1876 1.377 . S
C1877 C1878 1.379 . S
C1878 H1862 0.931 . S
C1878 C1872 1.383 . S
C1878 C1877 1.379 . S
H1879 C1873 0.959 . S
H1880 C1873 0.961 . S
H1881 C1873 0.960 . S
H1882 C1874 0.930 . S
H1883 C1875 0.929 . S
H1884 C1892 0.929 . S
H1885 C1894 0.930 . S
H1886 C1896 0.930 . S
H1887 C1899 0.929 . S
H1888 C1902 0.930 . S
H1889 C1904 0.960 . S
H1890 C1904 0.960 . S
H1891 C1904 0.960 . S
C1892 H1884 0.929 . S
C1892 C1893 1.377 . S
C1892 C1894 1.384 . S
C1893 C1892 1.377 . S
C1893 C1899 1.390 . S
C1894 H1885 0.930 . S
C1894 C1892 1.384 . S
C1894 C1895 1.372 . S
C1895 C1894 1.372 . S
C1895 C1896 1.400 . S
C1895 C1900 1.490 . S
C1896 H1886 0.930 . S
C1896 C1895 1.400 . S
C1896 C1899 1.386 . S
H1897 C1913 0.930 . S
H1898 C1914 0.931 . S
C1899 H1887 0.929 . S
C1899 C1893 1.390 . S
C1899 C1896 1.386 . S
C1900 C1895 1.490 . S
C1900 C1902 1.395 . S
C1900 C1903 1.403 . S
H1901 C1907 0.930 . S
C1902 H1888 0.930 . S
C1902 C1900 1.395 . S
C1902 C1905 1.403 . S
C1903 C1900 1.403 . S
C1903 C1904 1.524 . S
C1903 C1907 1.400 . S
C1904 H1889 0.960 . S
C1904 H1890 0.960 . S
C1904 H1891 0.960 . S
C1904 C1903 1.524 . S
C1905 C1902 1.403 . S
C1905 C1906 1.392 . S
C1905 C1909 1.495 . S
C1906 C1905 1.392 . S
C1906 C1907 1.385 . S
C1906 C1908 1.478 . S
C1907 H1901 0.930 . S
C1907 C1903 1.400 . S
C1907 C1906 1.385 . S
C1908 C1906 1.478 . S
C1908 C1910 1.381 . S
C1908 C1914 1.383 . S
C1909 C1905 1.495 . S
C1909 H1915 0.959 . S
C1909 H1916 0.961 . S
C1909 H1917 0.960 . S
C1910 C1908 1.381 . S
C1910 C1911 1.394 . S
C1910 H1918 0.930 . S
C1911 C1910 1.394 . S
C1911 C1912 1.383 . S
C1911 H1919 0.929 . S
C1912 C1911 1.383 . S
C1912 C1913 1.377 . S
C1913 H1897 0.930 . S
C1913 C1912 1.377 . S
C1913 C1914 1.379 . S
C1914 H1898 0.931 . S
C1914 C1908 1.383 . S
C1914 C1913 1.379 . S
H1915 C1909 0.959 . S
H1916 C1909 0.961 . S
H1917 C1909 0.960 . S
H1918 C1910 0.930 . S
H1919 C1911 0.929 . S
H1920 C1928 0.929 . S
H1921 C1930 0.930 . S
H1922 C1932 0.930 . S
H1923 C1935 0.929 . S
H1924 C1938 0.930 . S
H1925 C1940 0.960 . S
H1926 C1940 0.960 . S
H1927 C1940 0.960 . S
C1928 H1920 0.929 . S
C1928 C1929 1.377 . S
C1928 C1930 1.384 . S
C1929 C1928 1.377 . S
C1929 C1935 1.390 . S
C1930 H1921 0.930 . S
C1930 C1928 1.384 . S
C1930 C1931 1.372 . S
C1931 C1930 1.372 . S
C1931 C1932 1.400 . S
C1931 C1936 1.490 . S
C1932 H1922 0.930 . S
C1932 C1931 1.400 . S
C1932 C1935 1.386 . S
H1933 C1949 0.930 . S
H1934 C1950 0.931 . S
C1935 H1923 0.929 . S
C1935 C1929 1.390 . S
C1935 C1932 1.386 . S
C1936 C1931 1.490 . S
C1936 C1938 1.395 . S
C1936 C1939 1.403 . S
H1937 C1943 0.930 . S
C1938 H1924 0.930 . S
C1938 C1936 1.395 . S
C1938 C1941 1.403 . S
C1939 C1936 1.403 . S
C1939 C1940 1.524 . S
C1939 C1943 1.400 . S
C1940 H1925 0.960 . S
C1940 H1926 0.960 . S
C1940 H1927 0.960 . S
C1940 C1939 1.524 . S
C1941 C1938 1.403 . S
C1941 C1942 1.392 . S
C1941 C1945 1.495 . S
C1942 C1941 1.392 . S
C1942 C1943 1.385 . S
C1942 C1944 1.478 . S
C1943 H1937 0.930 . S
C1943 C1939 1.400 . S
C1943 C1942 1.385 . S
C1944 C1942 1.478 . S
C1944 C1946 1.381 . S
C1944 C1950 1.383 . S
C1945 C1941 1.495 . S
C1945 H1951 0.959 . S
C1945 H1952 0.961 . S
C1945 H1953 0.960 . S
C1946 C1944 1.381 . S
C1946 C1947 1.394 . S
C1946 H1954 0.930 . S
C1947 C1946 1.394 . S
C1947 C1948 1.383 . S
C1947 H1955 0.929 . S
C1948 C1947 1.383 . S
C1948 C1949 1.377 . S
C1949 H1933 0.930 . S
C1949 C1948 1.377 . S
C1949 C1950 1.379 . S
C1950 H1934 0.931 . S
C1950 C1944 1.383 . S
C1950 C1949 1.379 . S
H1951 C1945 0.959 . S
H1952 C1945 0.961 . S
H1953 C1945 0.960 . S
H1954 C1946 0.930 . S
H1955 C1947 0.929 . S
H1956 C1964 0.929 . S
H1957 C1966 0.930 . S
H1958 C1968 0.930 . S
H1959 C1971 0.929 . S
H1960 C1974 0.930 . S
H1961 C1976 0.960 . S
H1962 C1976 0.960 . S
H1963 C1976 0.960 . S
C1964 H1956 0.929 . S
C1964 C1965 1.377 . S
C1964 C1966 1.384 . S
C1965 C1964 1.377 . S
C1965 C1971 1.390 . S
C1966 H1957 0.930 . S
C1966 C1964 1.384 . S
C1966 C1967 1.372 . S
C1967 C1966 1.372 . S
C1967 C1968 1.400 . S
C1967 C1972 1.490 . S
C1968 H1958 0.930 . S
C1968 C1967 1.400 . S
C1968 C1971 1.386 . S
H1969 C1985 0.930 . S
H1970 C1986 0.931 . S
C1971 H1959 0.929 . S
C1971 C1965 1.390 . S
C1971 C1968 1.386 . S
C1972 C1967 1.490 . S
C1972 C1974 1.395 . S
C1972 C1975 1.403 . S
H1973 C1979 0.930 . S
C1974 H1960 0.930 . S
C1974 C1972 1.395 . S
C1974 C1977 1.403 . S
C1975 C1972 1.403 . S
C1975 C1976 1.524 . S
C1975 C1979 1.400 . S
C1976 H1961 0.960 . S
C1976 H1962 0.960 . S
C1976 H1963 0.960 . S
C1976 C1975 1.524 . S
C1977 C1974 1.403 . S
C1977 C1978 1.392 . S
C1977 C1981 1.495 . S
C1978 C1977 1.392 . S
C1978 C1979 1.385 . S
C1978 C1980 1.478 . S
C1979 H1973 0.930 . S
C1979 C1975 1.400 . S
C1979 C1978 1.385 . S
C1980 C1978 1.478 . S
C1980 C1982 1.381 . S
C1980 C1986 1.383 . S
C1981 C1977 1.495 . S
C1981 H1987 0.959 . S
C1981 H1988 0.961 . S
C1981 H1989 0.960 . S
C1982 C1980 1.381 . S
C1982 C1983 1.394 . S
C1982 H1990 0.930 . S
C1983 C1982 1.394 . S
C1983 C1984 1.383 . S
C1983 H1991 0.929 . S
C1984 C1983 1.383 . S
C1984 C1985 1.377 . S
C1985 H1969 0.930 . S
C1985 C1984 1.377 . S
C1985 C1986 1.379 . S
C1986 H1970 0.931 . S
C1986 C1980 1.383 . S
C1986 C1985 1.379 . S
H1987 C1981 0.959 . S
H1988 C1981 0.961 . S
H1989 C1981 0.960 . S
H1990 C1982 0.930 . S
H1991 C1983 0.929 . S
H1992 C2000 0.929 . S
H1993 C2002 0.930 . S
H1994 C2004 0.930 . S
H1995 C2007 0.929 . S
H1996 C2010 0.930 . S
H1997 C2012 0.960 . S
H1998 C2012 0.960 . S
H1999 C2012 0.960 . S
C2000 H1992 0.929 . S
C2000 C2001 1.377 . S
C2000 C2002 1.384 . S
C2001 C2000 1.377 . S
C2001 C2007 1.390 . S
C2002 H1993 0.930 . S
C2002 C2000 1.384 . S
C2002 C2003 1.372 . S
C2003 C2002 1.372 . S
C2003 C2004 1.400 . S
C2003 C2008 1.490 . S
C2004 H1994 0.930 . S
C2004 C2003 1.400 . S
C2004 C2007 1.386 . S
H2005 C2021 0.930 . S
H2006 C2022 0.931 . S
C2007 H1995 0.929 . S
C2007 C2001 1.390 . S
C2007 C2004 1.386 . S
C2008 C2003 1.490 . S
C2008 C2010 1.395 . S
C2008 C2011 1.403 . S
H2009 C2015 0.930 . S
C2010 H1996 0.930 . S
C2010 C2008 1.395 . S
C2010 C2013 1.403 . S
C2011 C2008 1.403 . S
C2011 C2012 1.524 . S
C2011 C2015 1.400 . S
C2012 H1997 0.960 . S
C2012 H1998 0.960 . S
C2012 H1999 0.960 . S
C2012 C2011 1.524 . S
C2013 C2010 1.403 . S
C2013 C2014 1.392 . S
C2013 C2017 1.495 . S
C2014 C2013 1.392 . S
C2014 C2015 1.385 . S
C2014 C2016 1.478 . S
C2015 H2009 0.930 . S
C2015 C2011 1.400 . S
C2015 C2014 1.385 . S
C2016 C2014 1.478 . S
C2016 C2018 1.381 . S
C2016 C2022 1.383 . S
C2017 C2013 1.495 . S
C2017 H2023 0.959 . S
C2017 H2024 0.961 . S
C2017 H2025 0.960 . S
C2018 C2016 1.381 . S
C2018 C2019 1.394 . S
C2018 H2026 0.930 . S
C2019 C2018 1.394 . S
C2019 C2020 1.383 . S
C2019 H2027 0.929 . S
C2020 C2019 1.383 . S
C2020 C2021 1.377 . S
C2021 H2005 0.930 . S
C2021 C2020 1.377 . S
C2021 C2022 1.379 . S
C2022 H2006 0.931 . S
C2022 C2016 1.383 . S
C2022 C2021 1.379 . S
H2023 C2017 0.959 . S
H2024 C2017 0.961 . S
H2025 C2017 0.960 . S
H2026 C2018 0.930 . S
H2027 C2019 0.929 . S
H2028 C2036 0.929 . S
H2029 C2038 0.930 . S
H2030 C2040 0.930 . S
H2031 C2043 0.929 . S
H2032 C2046 0.930 . S
H2033 C2048 0.960 . S
H2034 C2048 0.960 . S
H2035 C2048 0.960 . S
C2036 H2028 0.929 . S
C2036 C2037 1.377 . S
C2036 C2038 1.384 . S
C2037 C2036 1.377 . S
C2037 C2043 1.390 . S
C2038 H2029 0.930 . S
C2038 C2036 1.384 . S
C2038 C2039 1.372 . S
C2039 C2038 1.372 . S
C2039 C2040 1.400 . S
C2039 C2044 1.490 . S
C2040 H2030 0.930 . S
C2040 C2039 1.400 . S
C2040 C2043 1.386 . S
H2041 C2057 0.930 . S
H2042 C2058 0.931 . S
C2043 H2031 0.929 . S
C2043 C2037 1.390 . S
C2043 C2040 1.386 . S
C2044 C2039 1.490 . S
C2044 C2046 1.395 . S
C2044 C2047 1.403 . S
H2045 C2051 0.930 . S
C2046 H2032 0.930 . S
C2046 C2044 1.395 . S
C2046 C2049 1.403 . S
C2047 C2044 1.403 . S
C2047 C2048 1.524 . S
C2047 C2051 1.400 . S
C2048 H2033 0.960 . S
C2048 H2034 0.960 . S
C2048 H2035 0.960 . S
C2048 C2047 1.524 . S
C2049 C2046 1.403 . S
C2049 C2050 1.392 . S
C2049 C2053 1.495 . S
C2050 C2049 1.392 . S
C2050 C2051 1.385 . S
C2050 C2052 1.478 . S
C2051 H2045 0.930 . S
C2051 C2047 1.400 . S
C2051 C2050 1.385 . S
C2052 C2050 1.478 . S
C2052 C2054 1.381 . S
C2052 C2058 1.383 . S
C2053 C2049 1.495 . S
C2053 H2059 0.959 . S
C2053 H2060 0.961 . S
C2053 H2061 0.960 . S
C2054 C2052 1.381 . S
C2054 C2055 1.394 . S
C2054 H2062 0.930 . S
C2055 C2054 1.394 . S
C2055 C2056 1.383 . S
C2055 H2063 0.929 . S
C2056 C2055 1.383 . S
C2056 C2057 1.377 . S
C2057 H2041 0.930 . S
C2057 C2056 1.377 . S
C2057 C2058 1.379 . S
C2058 H2042 0.931 . S
C2058 C2052 1.383 . S
C2058 C2057 1.379 . S
H2059 C2053 0.959 . S
H2060 C2053 0.961 . S
H2061 C2053 0.960 . S
H2062 C2054 0.930 . S
H2063 C2055 0.929 . S
H2064 C2072 0.929 . S
H2065 C2074 0.930 . S
H2066 C2076 0.930 . S
H2067 C2079 0.929 . S
H2068 C2082 0.930 . S
H2069 C2084 0.960 . S
H2070 C2084 0.960 . S
H2071 C2084 0.960 . S
C2072 H2064 0.929 . S
C2072 C2073 1.377 . S
C2072 C2074 1.384 . S
C2073 C2072 1.377 . S
C2073 C2079 1.390 . S
C2074 H2065 0.930 . S
C2074 C2072 1.384 . S
C2074 C2075 1.372 . S
C2075 C2074 1.372 . S
C2075 C2076 1.400 . S
C2075 C2080 1.490 . S
C2076 H2066 0.930 . S
C2076 C2075 1.400 . S
C2076 C2079 1.386 . S
H2077 C2093 0.930 . S
H2078 C2094 0.931 . S
C2079 H2067 0.929 . S
C2079 C2073 1.390 . S
C2079 C2076 1.386 . S
C2080 C2075 1.490 . S
C2080 C2082 1.395 . S
C2080 C2083 1.403 . S
H2081 C2087 0.930 . S
C2082 H2068 0.930 . S
C2082 C2080 1.395 . S
C2082 C2085 1.403 . S
C2083 C2080 1.403 . S
C2083 C2084 1.524 . S
C2083 C2087 1.400 . S
C2084 H2069 0.960 . S
C2084 H2070 0.960 . S
C2084 H2071 0.960 . S
C2084 C2083 1.524 . S
C2085 C2082 1.403 . S
C2085 C2086 1.392 . S
C2085 C2089 1.495 . S
C2086 C2085 1.392 . S
C2086 C2087 1.385 . S
C2086 C2088 1.478 . S
C2087 H2081 0.930 . S
C2087 C2083 1.400 . S
C2087 C2086 1.385 . S
C2088 C2086 1.478 . S
C2088 C2090 1.381 . S
C2088 C2094 1.383 . S
C2089 C2085 1.495 . S
C2089 H2095 0.959 . S
C2089 H2096 0.961 . S
C2089 H2097 0.960 . S
C2090 C2088 1.381 . S
C2090 C2091 1.394 . S
C2090 H2098 0.930 . S
C2091 C2090 1.394 . S
C2091 C2092 1.383 . S
C2091 H2099 0.929 . S
C2092 C2091 1.383 . S
C2092 C2093 1.377 . S
C2093 H2077 0.930 . S
C2093 C2092 1.377 . S
C2093 C2094 1.379 . S
C2094 H2078 0.931 . S
C2094 C2088 1.383 . S
C2094 C2093 1.379 . S
H2095 C2089 0.959 . S
H2096 C2089 0.961 . S
H2097 C2089 0.960 . S
H2098 C2090 0.930 . S
H2099 C2091 0.929 . S
H2100 C2108 0.929 . S
H2101 C2110 0.930 . S
H2102 C2112 0.930 . S
H2103 C2115 0.929 . S
H2104 C2118 0.930 . S
H2105 C2120 0.960 . S
H2106 C2120 0.960 . S
H2107 C2120 0.960 . S
C2108 H2100 0.929 . S
C2108 C2109 1.377 . S
C2108 C2110 1.384 . S
C2109 C2108 1.377 . S
C2109 C2115 1.390 . S
C2110 H2101 0.930 . S
C2110 C2108 1.384 . S
C2110 C2111 1.372 . S
C2111 C2110 1.372 . S
C2111 C2112 1.400 . S
C2111 C2116 1.490 . S
C2112 H2102 0.930 . S
C2112 C2111 1.400 . S
C2112 C2115 1.386 . S
H2113 C2129 0.930 . S
H2114 C2130 0.931 . S
C2115 H2103 0.929 . S
C2115 C2109 1.390 . S
C2115 C2112 1.386 . S
C2116 C2111 1.490 . S
C2116 C2118 1.395 . S
C2116 C2119 1.403 . S
H2117 C2123 0.930 . S
C2118 H2104 0.930 . S
C2118 C2116 1.395 . S
C2118 C2121 1.403 . S
C2119 C2116 1.403 . S
C2119 C2120 1.524 . S
C2119 C2123 1.400 . S
C2120 H2105 0.960 . S
C2120 H2106 0.960 . S
C2120 H2107 0.960 . S
C2120 C2119 1.524 . S
C2121 C2118 1.403 . S
C2121 C2122 1.392 . S
C2121 C2125 1.495 . S
C2122 C2121 1.392 . S
C2122 C2123 1.385 . S
C2122 C2124 1.478 . S
C2123 H2117 0.930 . S
C2123 C2119 1.400 . S
C2123 C2122 1.385 . S
C2124 C2122 1.478 . S
C2124 C2126 1.381 . S
C2124 C2130 1.383 . S
C2125 C2121 1.495 . S
C2125 H2131 0.959 . S
C2125 H2132 0.961 . S
C2125 H2133 0.960 . S
C2126 C2124 1.381 . S
C2126 C2127 1.394 . S
C2126 H2134 0.930 . S
C2127 C2126 1.394 . S
C2127 C2128 1.383 . S
C2127 H2135 0.929 . S
C2128 C2127 1.383 . S
C2128 C2129 1.377 . S
C2129 H2113 0.930 . S
C2129 C2128 1.377 . S
C2129 C2130 1.379 . S
C2130 H2114 0.931 . S
C2130 C2124 1.383 . S
C2130 C2129 1.379 . S
H2131 C2125 0.959 . S
H2132 C2125 0.961 . S
H2133 C2125 0.960 . S
H2134 C2126 0.930 . S
H2135 C2127 0.929 . S
H2136 C2144 0.929 . S
H2137 C2146 0.930 . S
H2138 C2148 0.930 . S
H2139 C2151 0.929 . S
H2140 C2154 0.930 . S
H2141 C2156 0.960 . S
H2142 C2156 0.960 . S
H2143 C2156 0.960 . S
C2144 H2136 0.929 . S
C2144 C2145 1.377 . S
C2144 C2146 1.384 . S
C2145 C2144 1.377 . S
C2145 C2151 1.390 . S
C2146 H2137 0.930 . S
C2146 C2144 1.384 . S
C2146 C2147 1.372 . S
C2147 C2146 1.372 . S
C2147 C2148 1.400 . S
C2147 C2152 1.490 . S
C2148 H2138 0.930 . S
C2148 C2147 1.400 . S
C2148 C2151 1.386 . S
H2149 C2165 0.930 . S
H2150 C2166 0.931 . S
C2151 H2139 0.929 . S
C2151 C2145 1.390 . S
C2151 C2148 1.386 . S
C2152 C2147 1.490 . S
C2152 C2154 1.395 . S
C2152 C2155 1.403 . S
H2153 C2159 0.930 . S
C2154 H2140 0.930 . S
C2154 C2152 1.395 . S
C2154 C2157 1.403 . S
C2155 C2152 1.403 . S
C2155 C2156 1.524 . S
C2155 C2159 1.400 . S
C2156 H2141 0.960 . S
C2156 H2142 0.960 . S
C2156 H2143 0.960 . S
C2156 C2155 1.524 . S
C2157 C2154 1.403 . S
C2157 C2158 1.392 . S
C2157 C2161 1.495 . S
C2158 C2157 1.392 . S
C2158 C2159 1.385 . S
C2158 C2160 1.478 . S
C2159 H2153 0.930 . S
C2159 C2155 1.400 . S
C2159 C2158 1.385 . S
C2160 C2158 1.478 . S
C2160 C2162 1.381 . S
C2160 C2166 1.383 . S
C2161 C2157 1.495 . S
C2161 H2167 0.959 . S
C2161 H2168 0.961 . S
C2161 H2169 0.960 . S
C2162 C2160 1.381 . S
C2162 C2163 1.394 . S
C2162 H2170 0.930 . S
C2163 C2162 1.394 . S
C2163 C2164 1.383 . S
C2163 H2171 0.929 . S
C2164 C2163 1.383 . S
C2164 C2165 1.377 . S
C2165 H2149 0.930 . S
C2165 C2164 1.377 . S
C2165 C2166 1.379 . S
C2166 H2150 0.931 . S
C2166 C2160 1.383 . S
C2166 C2165 1.379 . S
H2167 C2161 0.959 . S
H2168 C2161 0.961 . S
H2169 C2161 0.960 . S
H2170 C2162 0.930 . S
H2171 C2163 0.929 . S
H2172 C2180 0.929 . S
H2173 C2182 0.930 . S
H2174 C2184 0.930 . S
H2175 C2187 0.929 . S
H2176 C2190 0.930 . S
H2177 C2192 0.960 . S
H2178 C2192 0.960 . S
H2179 C2192 0.960 . S
C2180 H2172 0.929 . S
C2180 C2181 1.377 . S
C2180 C2182 1.384 . S
C2181 C2180 1.377 . S
C2181 C2187 1.390 . S
C2182 H2173 0.930 . S
C2182 C2180 1.384 . S
C2182 C2183 1.372 . S
C2183 C2182 1.372 . S
C2183 C2184 1.400 . S
C2183 C2188 1.490 . S
C2184 H2174 0.930 . S
C2184 C2183 1.400 . S
C2184 C2187 1.386 . S
H2185 C2201 0.930 . S
H2186 C2202 0.931 . S
C2187 H2175 0.929 . S
C2187 C2181 1.390 . S
C2187 C2184 1.386 . S
C2188 C2183 1.490 . S
C2188 C2190 1.395 . S
C2188 C2191 1.403 . S
H2189 C2195 0.930 . S
C2190 H2176 0.930 . S
C2190 C2188 1.395 . S
C2190 C2193 1.403 . S
C2191 C2188 1.403 . S
C2191 C2192 1.524 . S
C2191 C2195 1.400 . S
C2192 H2177 0.960 . S
C2192 H2178 0.960 . S
C2192 H2179 0.960 . S
C2192 C2191 1.524 . S
C2193 C2190 1.403 . S
C2193 C2194 1.392 . S
C2193 C2197 1.495 . S
C2194 C2193 1.392 . S
C2194 C2195 1.385 . S
C2194 C2196 1.478 . S
C2195 H2189 0.930 . S
C2195 C2191 1.400 . S
C2195 C2194 1.385 . S
C2196 C2194 1.478 . S
C2196 C2198 1.381 . S
C2196 C2202 1.383 . S
C2197 C2193 1.495 . S
C2197 H2203 0.959 . S
C2197 H2204 0.961 . S
C2197 H2205 0.960 . S
C2198 C2196 1.381 . S
C2198 C2199 1.394 . S
C2198 H2206 0.930 . S
C2199 C2198 1.394 . S
C2199 C2200 1.383 . S
C2199 H2207 0.929 . S
C2200 C2199 1.383 . S
C2200 C2201 1.377 . S
C2201 H2185 0.930 . S
C2201 C2200 1.377 . S
C2201 C2202 1.379 . S
C2202 H2186 0.931 . S
C2202 C2196 1.383 . S
C2202 C2201 1.379 . S
H2203 C2197 0.959 . S
H2204 C2197 0.961 . S
H2205 C2197 0.960 . S
H2206 C2198 0.930 . S
H2207 C2199 0.929 . S
H2208 C2216 0.929 . S
H2209 C2218 0.930 . S
H2210 C2220 0.930 . S
H2211 C2223 0.929 . S
H2212 C2226 0.930 . S
H2213 C2228 0.960 . S
H2214 C2228 0.960 . S
H2215 C2228 0.960 . S
C2216 H2208 0.929 . S
C2216 C2217 1.377 . S
C2216 C2218 1.384 . S
C2217 C2216 1.377 . S
C2217 C2223 1.390 . S
C2218 H2209 0.930 . S
C2218 C2216 1.384 . S
C2218 C2219 1.372 . S
C2219 C2218 1.372 . S
C2219 C2220 1.400 . S
C2219 C2224 1.490 . S
C2220 H2210 0.930 . S
C2220 C2219 1.400 . S
C2220 C2223 1.386 . S
H2221 C2237 0.930 . S
H2222 C2238 0.931 . S
C2223 H2211 0.929 . S
C2223 C2217 1.390 . S
C2223 C2220 1.386 . S
C2224 C2219 1.490 . S
C2224 C2226 1.395 . S
C2224 C2227 1.403 . S
H2225 C2231 0.930 . S
C2226 H2212 0.930 . S
C2226 C2224 1.395 . S
C2226 C2229 1.403 . S
C2227 C2224 1.403 . S
C2227 C2228 1.524 . S
C2227 C2231 1.400 . S
C2228 H2213 0.960 . S
C2228 H2214 0.960 . S
C2228 H2215 0.960 . S
C2228 C2227 1.524 . S
C2229 C2226 1.403 . S
C2229 C2230 1.392 . S
C2229 C2233 1.495 . S
C2230 C2229 1.392 . S
C2230 C2231 1.385 . S
C2230 C2232 1.478 . S
C2231 H2225 0.930 . S
C2231 C2227 1.400 . S
C2231 C2230 1.385 . S
C2232 C2230 1.478 . S
C2232 C2234 1.381 . S
C2232 C2238 1.383 . S
C2233 C2229 1.495 . S
C2233 H2239 0.959 . S
C2233 H2240 0.961 . S
C2233 H2241 0.960 . S
C2234 C2232 1.381 . S
C2234 C2235 1.394 . S
C2234 H2242 0.930 . S
C2235 C2234 1.394 . S
C2235 C2236 1.383 . S
C2235 H2243 0.929 . S
C2236 C2235 1.383 . S
C2236 C2237 1.377 . S
C2237 H2221 0.930 . S
C2237 C2236 1.377 . S
C2237 C2238 1.379 . S
C2238 H2222 0.931 . S
C2238 C2232 1.383 . S
C2238 C2237 1.379 . S
H2239 C2233 0.959 . S
H2240 C2233 0.961 . S
H2241 C2233 0.960 . S
H2242 C2234 0.930 . S
H2243 C2235 0.929 . S
H2244 C2252 0.929 . S
H2245 C2254 0.930 . S
H2246 C2256 0.930 . S
H2247 C2259 0.929 . S
H2248 C2262 0.930 . S
H2249 C2264 0.960 . S
H2250 C2264 0.960 . S
H2251 C2264 0.960 . S
C2252 H2244 0.929 . S
C2252 C2253 1.377 . S
C2252 C2254 1.384 . S
C2253 C2252 1.377 . S
C2253 C2259 1.390 . S
C2254 H2245 0.930 . S
C2254 C2252 1.384 . S
C2254 C2255 1.372 . S
C2255 C2254 1.372 . S
C2255 C2256 1.400 . S
C2255 C2260 1.490 . S
C2256 H2246 0.930 . S
C2256 C2255 1.400 . S
C2256 C2259 1.386 . S
H2257 C2273 0.930 . S
H2258 C2274 0.931 . S
C2259 H2247 0.929 . S
C2259 C2253 1.390 . S
C2259 C2256 1.386 . S
C2260 C2255 1.490 . S
C2260 C2262 1.395 . S
C2260 C2263 1.403 . S
H2261 C2267 0.930 . S
C2262 H2248 0.930 . S
C2262 C2260 1.395 . S
C2262 C2265 1.403 . S
C2263 C2260 1.403 . S
C2263 C2264 1.524 . S
C2263 C2267 1.400 . S
C2264 H2249 0.960 . S
C2264 H2250 0.960 . S
C2264 H2251 0.960 . S
C2264 C2263 1.524 . S
C2265 C2262 1.403 . S
C2265 C2266 1.392 . S
C2265 C2269 1.495 . S
C2266 C2265 1.392 . S
C2266 C2267 1.385 . S
C2266 C2268 1.478 . S
C2267 H2261 0.930 . S
C2267 C2263 1.400 . S
C2267 C2266 1.385 . S
C2268 C2266 1.478 . S
C2268 C2270 1.381 . S
C2268 C2274 1.383 . S
C2269 C2265 1.495 . S
C2269 H2275 0.959 . S
C2269 H2276 0.961 . S
C2269 H2277 0.960 . S
C2270 C2268 1.381 . S
C2270 C2271 1.394 . S
C2270 H2278 0.930 . S
C2271 C2270 1.394 . S
C2271 C2272 1.383 . S
C2271 H2279 0.929 . S
C2272 C2271 1.383 . S
C2272 C2273 1.377 . S
C2273 H2257 0.930 . S
C2273 C2272 1.377 . S
C2273 C2274 1.379 . S
C2274 H2258 0.931 . S
C2274 C2268 1.383 . S
C2274 C2273 1.379 . S
H2275 C2269 0.959 . S
H2276 C2269 0.961 . S
H2277 C2269 0.960 . S
H2278 C2270 0.930 . S
H2279 C2271 0.929 . S
H2280 C2288 0.929 . S
H2281 C2290 0.930 . S
H2282 C2292 0.930 . S
H2283 C2295 0.929 . S
H2284 C2298 0.930 . S
H2285 C2300 0.960 . S
H2286 C2300 0.960 . S
H2287 C2300 0.960 . S
C2288 H2280 0.929 . S
C2288 C2289 1.377 . S
C2288 C2290 1.384 . S
C2289 C2288 1.377 . S
C2289 C2295 1.390 . S
C2290 H2281 0.930 . S
C2290 C2288 1.384 . S
C2290 C2291 1.372 . S
C2291 C2290 1.372 . S
C2291 C2292 1.400 . S
C2291 C2296 1.490 . S
C2292 H2282 0.930 . S
C2292 C2291 1.400 . S
C2292 C2295 1.386 . S
H2293 C2309 0.930 . S
H2294 C2310 0.931 . S
C2295 H2283 0.929 . S
C2295 C2289 1.390 . S
C2295 C2292 1.386 . S
C2296 C2291 1.490 . S
C2296 C2298 1.395 . S
C2296 C2299 1.403 . S
H2297 C2303 0.930 . S
C2298 H2284 0.930 . S
C2298 C2296 1.395 . S
C2298 C2301 1.403 . S
C2299 C2296 1.403 . S
C2299 C2300 1.524 . S
C2299 C2303 1.400 . S
C2300 H2285 0.960 . S
C2300 H2286 0.960 . S
C2300 H2287 0.960 . S
C2300 C2299 1.524 . S
C2301 C2298 1.403 . S
C2301 C2302 1.392 . S
C2301 C2305 1.495 . S
C2302 C2301 1.392 . S
C2302 C2303 1.385 . S
C2302 C2304 1.478 . S
C2303 H2297 0.930 . S
C2303 C2299 1.400 . S
C2303 C2302 1.385 . S
C2304 C2302 1.478 . S
C2304 C2306 1.381 . S
C2304 C2310 1.383 . S
C2305 C2301 1.495 . S
C2305 H2311 0.959 . S
C2305 H2312 0.961 . S
C2305 H2313 0.960 . S
C2306 C2304 1.381 . S
C2306 C2307 1.394 . S
C2306 H2314 0.930 . S
C2307 C2306 1.394 . S
C2307 C2308 1.383 . S
C2307 H2315 0.929 . S
C2308 C2307 1.383 . S
C2308 C2309 1.377 . S
C2309 H2293 0.930 . S
C2309 C2308 1.377 . S
C2309 C2310 1.379 . S
C2310 H2294 0.931 . S
C2310 C2304 1.383 . S
C2310 C2309 1.379 . S
H2311 C2305 0.959 . S
H2312 C2305 0.961 . S
H2313 C2305 0.960 . S
H2314 C2306 0.930 . S
H2315 C2307 0.929 . S
H2316 C2324 0.929 . S
H2317 C2326 0.930 . S
H2318 C2328 0.930 . S
H2319 C2331 0.929 . S
H2320 C2334 0.930 . S
H2321 C2336 0.960 . S
H2322 C2336 0.960 . S
H2323 C2336 0.960 . S
C2324 H2316 0.929 . S
C2324 C2325 1.377 . S
C2324 C2326 1.384 . S
C2325 C2324 1.377 . S
C2325 C2331 1.390 . S
C2326 H2317 0.930 . S
C2326 C2324 1.384 . S
C2326 C2327 1.372 . S
C2327 C2326 1.372 . S
C2327 C2328 1.400 . S
C2327 C2332 1.490 . S
C2328 H2318 0.930 . S
C2328 C2327 1.400 . S
C2328 C2331 1.386 . S
H2329 C2345 0.930 . S
H2330 C2346 0.931 . S
C2331 H2319 0.929 . S
C2331 C2325 1.390 . S
C2331 C2328 1.386 . S
C2332 C2327 1.490 . S
C2332 C2334 1.395 . S
C2332 C2335 1.403 . S
H2333 C2339 0.930 . S
C2334 H2320 0.930 . S
C2334 C2332 1.395 . S
C2334 C2337 1.403 . S
C2335 C2332 1.403 . S
C2335 C2336 1.524 . S
C2335 C2339 1.400 . S
C2336 H2321 0.960 . S
C2336 H2322 0.960 . S
C2336 H2323 0.960 . S
C2336 C2335 1.524 . S
C2337 C2334 1.403 . S
C2337 C2338 1.392 . S
C2337 C2341 1.495 . S
C2338 C2337 1.392 . S
C2338 C2339 1.385 . S
C2338 C2340 1.478 . S
C2339 H2333 0.930 . S
C2339 C2335 1.400 . S
C2339 C2338 1.385 . S
C2340 C2338 1.478 . S
C2340 C2342 1.381 . S
C2340 C2346 1.383 . S
C2341 C2337 1.495 . S
C2341 H2347 0.959 . S
C2341 H2348 0.961 . S
C2341 H2349 0.960 . S
C2342 C2340 1.381 . S
C2342 C2343 1.394 . S
C2342 H2350 0.930 . S
C2343 C2342 1.394 . S
C2343 C2344 1.383 . S
C2343 H2351 0.929 . S
C2344 C2343 1.383 . S
C2344 C2345 1.377 . S
C2345 H2329 0.930 . S
C2345 C2344 1.377 . S
C2345 C2346 1.379 . S
C2346 H2330 0.931 . S
C2346 C2340 1.383 . S
C2346 C2345 1.379 . S
H2347 C2341 0.959 . S
H2348 C2341 0.961 . S
H2349 C2341 0.960 . S
H2350 C2342 0.930 . S
H2351 C2343 0.929 . S
H2352 C2360 0.929 . S
H2353 C2362 0.930 . S
H2354 C2364 0.930 . S
H2355 C2367 0.929 . S
H2356 C2370 0.930 . S
H2357 C2372 0.960 . S
H2358 C2372 0.960 . S
H2359 C2372 0.960 . S
C2360 H2352 0.929 . S
C2360 C2361 1.377 . S
C2360 C2362 1.384 . S
C2361 C2360 1.377 . S
C2361 C2367 1.390 . S
C2362 H2353 0.930 . S
C2362 C2360 1.384 . S
C2362 C2363 1.372 . S
C2363 C2362 1.372 . S
C2363 C2364 1.400 . S
C2363 C2368 1.490 . S
C2364 H2354 0.930 . S
C2364 C2363 1.400 . S
C2364 C2367 1.386 . S
H2365 C2381 0.930 . S
H2366 C2382 0.931 . S
C2367 H2355 0.929 . S
C2367 C2361 1.390 . S
C2367 C2364 1.386 . S
C2368 C2363 1.490 . S
C2368 C2370 1.395 . S
C2368 C2371 1.403 . S
H2369 C2375 0.930 . S
C2370 H2356 0.930 . S
C2370 C2368 1.395 . S
C2370 C2373 1.403 . S
C2371 C2368 1.403 . S
C2371 C2372 1.524 . S
C2371 C2375 1.400 . S
C2372 H2357 0.960 . S
C2372 H2358 0.960 . S
C2372 H2359 0.960 . S
C2372 C2371 1.524 . S
C2373 C2370 1.403 . S
C2373 C2374 1.392 . S
C2373 C2377 1.495 . S
C2374 C2373 1.392 . S
C2374 C2375 1.385 . S
C2374 C2376 1.478 . S
C2375 H2369 0.930 . S
C2375 C2371 1.400 . S
C2375 C2374 1.385 . S
C2376 C2374 1.478 . S
C2376 C2378 1.381 . S
C2376 C2382 1.383 . S
C2377 C2373 1.495 . S
C2377 H2383 0.959 . S
C2377 H2384 0.961 . S
C2377 H2385 0.960 . S
C2378 C2376 1.381 . S
C2378 C2379 1.394 . S
C2378 H2386 0.930 . S
C2379 C2378 1.394 . S
C2379 C2380 1.383 . S
C2379 H2387 0.929 . S
C2380 C2379 1.383 . S
C2380 C2381 1.377 . S
C2381 H2365 0.930 . S
C2381 C2380 1.377 . S
C2381 C2382 1.379 . S
C2382 H2366 0.931 . S
C2382 C2376 1.383 . S
C2382 C2381 1.379 . S
H2383 C2377 0.959 . S
H2384 C2377 0.961 . S
H2385 C2377 0.960 . S
H2386 C2378 0.930 . S
H2387 C2379 0.929 . S
H2388 C2396 0.929 . S
H2389 C2398 0.930 . S
H2390 C2400 0.930 . S
H2391 C2403 0.929 . S
H2392 C2406 0.930 . S
H2393 C2408 0.960 . S
H2394 C2408 0.960 . S
H2395 C2408 0.960 . S
C2396 H2388 0.929 . S
C2396 C2397 1.377 . S
C2396 C2398 1.384 . S
C2397 C2396 1.377 . S
C2397 C2403 1.390 . S
C2398 H2389 0.930 . S
C2398 C2396 1.384 . S
C2398 C2399 1.372 . S
C2399 C2398 1.372 . S
C2399 C2400 1.400 . S
C2399 C2404 1.490 . S
C2400 H2390 0.930 . S
C2400 C2399 1.400 . S
C2400 C2403 1.386 . S
H2401 C2417 0.930 . S
H2402 C2418 0.931 . S
C2403 H2391 0.929 . S
C2403 C2397 1.390 . S
C2403 C2400 1.386 . S
C2404 C2399 1.490 . S
C2404 C2406 1.395 . S
C2404 C2407 1.403 . S
H2405 C2411 0.930 . S
C2406 H2392 0.930 . S
C2406 C2404 1.395 . S
C2406 C2409 1.403 . S
C2407 C2404 1.403 . S
C2407 C2408 1.524 . S
C2407 C2411 1.400 . S
C2408 H2393 0.960 . S
C2408 H2394 0.960 . S
C2408 H2395 0.960 . S
C2408 C2407 1.524 . S
C2409 C2406 1.403 . S
C2409 C2410 1.392 . S
C2409 C2413 1.495 . S
C2410 C2409 1.392 . S
C2410 C2411 1.385 . S
C2410 C2412 1.478 . S
C2411 H2405 0.930 . S
C2411 C2407 1.400 . S
C2411 C2410 1.385 . S
C2412 C2410 1.478 . S
C2412 C2414 1.381 . S
C2412 C2418 1.383 . S
C2413 C2409 1.495 . S
C2413 H2419 0.959 . S
C2413 H2420 0.961 . S
C2413 H2421 0.960 . S
C2414 C2412 1.381 . S
C2414 C2415 1.394 . S
C2414 H2422 0.930 . S
C2415 C2414 1.394 . S
C2415 C2416 1.383 . S
C2415 H2423 0.929 . S
C2416 C2415 1.383 . S
C2416 C2417 1.377 . S
C2417 H2401 0.930 . S
C2417 C2416 1.377 . S
C2417 C2418 1.379 . S
C2418 H2402 0.931 . S
C2418 C2412 1.383 . S
C2418 C2417 1.379 . S
H2419 C2413 0.959 . S
H2420 C2413 0.961 . S
H2421 C2413 0.960 . S
H2422 C2414 0.930 . S
H2423 C2415 0.929 . S
H2424 C2432 0.929 . S
H2425 C2434 0.930 . S
H2426 C2436 0.930 . S
H2427 C2439 0.929 . S
H2428 C2442 0.930 . S
H2429 C2444 0.960 . S
H2430 C2444 0.960 . S
H2431 C2444 0.960 . S
C2432 H2424 0.929 . S
C2432 C2433 1.377 . S
C2432 C2434 1.384 . S
C2433 C2432 1.377 . S
C2433 C2439 1.390 . S
C2434 H2425 0.930 . S
C2434 C2432 1.384 . S
C2434 C2435 1.372 . S
C2435 C2434 1.372 . S
C2435 C2436 1.400 . S
C2435 C2440 1.490 . S
C2436 H2426 0.930 . S
C2436 C2435 1.400 . S
C2436 C2439 1.386 . S
H2437 C2453 0.930 . S
H2438 C2454 0.931 . S
C2439 H2427 0.929 . S
C2439 C2433 1.390 . S
C2439 C2436 1.386 . S
C2440 C2435 1.490 . S
C2440 C2442 1.395 . S
C2440 C2443 1.403 . S
H2441 C2447 0.930 . S
C2442 H2428 0.930 . S
C2442 C2440 1.395 . S
C2442 C2445 1.403 . S
C2443 C2440 1.403 . S
C2443 C2444 1.524 . S
C2443 C2447 1.400 . S
C2444 H2429 0.960 . S
C2444 H2430 0.960 . S
C2444 H2431 0.960 . S
C2444 C2443 1.524 . S
C2445 C2442 1.403 . S
C2445 C2446 1.392 . S
C2445 C2449 1.495 . S
C2446 C2445 1.392 . S
C2446 C2447 1.385 . S
C2446 C2448 1.478 . S
C2447 H2441 0.930 . S
C2447 C2443 1.400 . S
C2447 C2446 1.385 . S
C2448 C2446 1.478 . S
C2448 C2450 1.381 . S
C2448 C2454 1.383 . S
C2449 C2445 1.495 . S
C2449 H2455 0.959 . S
C2449 H2456 0.961 . S
C2449 H2457 0.960 . S
C2450 C2448 1.381 . S
C2450 C2451 1.394 . S
C2450 H2458 0.930 . S
C2451 C2450 1.394 . S
C2451 C2452 1.383 . S
C2451 H2459 0.929 . S
C2452 C2451 1.383 . S
C2452 C2453 1.377 . S
C2453 H2437 0.930 . S
C2453 C2452 1.377 . S
C2453 C2454 1.379 . S
C2454 H2438 0.931 . S
C2454 C2448 1.383 . S
C2454 C2453 1.379 . S
H2455 C2449 0.959 . S
H2456 C2449 0.961 . S
H2457 C2449 0.960 . S
H2458 C2450 0.930 . S
H2459 C2451 0.929 . S
H2460 C2468 0.929 . S
H2461 C2470 0.930 . S
H2462 C2472 0.930 . S
H2463 C2475 0.929 . S
H2464 C2478 0.930 . S
H2465 C2480 0.960 . S
H2466 C2480 0.960 . S
H2467 C2480 0.960 . S
C2468 H2460 0.929 . S
C2468 C2469 1.377 . S
C2468 C2470 1.384 . S
C2469 C2468 1.377 . S
C2469 C2475 1.390 . S
C2470 H2461 0.930 . S
C2470 C2468 1.384 . S
C2470 C2471 1.372 . S
C2471 C2470 1.372 . S
C2471 C2472 1.400 . S
C2471 C2476 1.490 . S
C2472 H2462 0.930 . S
C2472 C2471 1.400 . S
C2472 C2475 1.386 . S
H2473 C2489 0.930 . S
H2474 C2490 0.931 . S
C2475 H2463 0.929 . S
C2475 C2469 1.390 . S
C2475 C2472 1.386 . S
C2476 C2471 1.490 . S
C2476 C2478 1.395 . S
C2476 C2479 1.403 . S
H2477 C2483 0.930 . S
C2478 H2464 0.930 . S
C2478 C2476 1.395 . S
C2478 C2481 1.403 . S
C2479 C2476 1.403 . S
C2479 C2480 1.524 . S
C2479 C2483 1.400 . S
C2480 H2465 0.960 . S
C2480 H2466 0.960 . S
C2480 H2467 0.960 . S
C2480 C2479 1.524 . S
C2481 C2478 1.403 . S
C2481 C2482 1.392 . S
C2481 C2485 1.495 . S
C2482 C2481 1.392 . S
C2482 C2483 1.385 . S
C2482 C2484 1.478 . S
C2483 H2477 0.930 . S
C2483 C2479 1.400 . S
C2483 C2482 1.385 . S
C2484 C2482 1.478 . S
C2484 C2486 1.381 . S
C2484 C2490 1.383 . S
C2485 C2481 1.495 . S
C2485 H2491 0.959 . S
C2485 H2492 0.961 . S
C2485 H2493 0.960 . S
C2486 C2484 1.381 . S
C2486 C2487 1.394 . S
C2486 H2494 0.930 . S
C2487 C2486 1.394 . S
C2487 C2488 1.383 . S
C2487 H2495 0.929 . S
C2488 C2487 1.383 . S
C2488 C2489 1.377 . S
C2489 H2473 0.930 . S
C2489 C2488 1.377 . S
C2489 C2490 1.379 . S
C2490 H2474 0.931 . S
C2490 C2484 1.383 . S
C2490 C2489 1.379 . S
H2491 C2485 0.959 . S
H2492 C2485 0.961 . S
H2493 C2485 0.960 . S
H2494 C2486 0.930 . S
H2495 C2487 0.929 . S
H2496 C2504 0.929 . S
H2497 C2506 0.930 . S
H2498 C2508 0.930 . S
H2499 C2511 0.929 . S
H2500 C2514 0.930 . S
H2501 C2516 0.960 . S
H2502 C2516 0.960 . S
H2503 C2516 0.960 . S
C2504 H2496 0.929 . S
C2504 C2505 1.377 . S
C2504 C2506 1.384 . S
C2505 C2504 1.377 . S
C2505 C2511 1.390 . S
C2506 H2497 0.930 . S
C2506 C2504 1.384 . S
C2506 C2507 1.372 . S
C2507 C2506 1.372 . S
C2507 C2508 1.400 . S
C2507 C2512 1.490 . S
C2508 H2498 0.930 . S
C2508 C2507 1.400 . S
C2508 C2511 1.386 . S
H2509 C2525 0.930 . S
H2510 C2526 0.931 . S
C2511 H2499 0.929 . S
C2511 C2505 1.390 . S
C2511 C2508 1.386 . S
C2512 C2507 1.490 . S
C2512 C2514 1.395 . S
C2512 C2515 1.403 . S
H2513 C2519 0.930 . S
C2514 H2500 0.930 . S
C2514 C2512 1.395 . S
C2514 C2517 1.403 . S
C2515 C2512 1.403 . S
C2515 C2516 1.524 . S
C2515 C2519 1.400 . S
C2516 H2501 0.960 . S
C2516 H2502 0.960 . S
C2516 H2503 0.960 . S
C2516 C2515 1.524 . S
C2517 C2514 1.403 . S
C2517 C2518 1.392 . S
C2517 C2521 1.495 . S
C2518 C2517 1.392 . S
C2518 C2519 1.385 . S
C2518 C2520 1.478 . S
C2519 H2513 0.930 . S
C2519 C2515 1.400 . S
C2519 C2518 1.385 . S
C2520 C2518 1.478 . S
C2520 C2522 1.381 . S
C2520 C2526 1.383 . S
C2521 C2517 1.495 . S
C2521 H2527 0.959 . S
C2521 H2528 0.961 . S
C2521 H2529 0.960 . S
C2522 C2520 1.381 . S
C2522 C2523 1.394 . S
C2522 H2530 0.930 . S
C2523 C2522 1.394 . S
C2523 C2524 1.385 . S
C2523 H2531 0.929 . S
C2524 C2523 1.385 . S
C2524 C2525 1.378 . S
C2525 H2509 0.930 . S
C2525 C2524 1.378 . S
C2525 C2526 1.379 . S
C2526 H2510 0.931 . S
C2526 C2520 1.383 . S
C2526 C2525 1.379 . S
H2527 C2521 0.959 . S
H2528 C2521 0.961 . S
H2529 C2521 0.960 . S
H2530 C2522 0.930 . S
H2531 C2523 0.929 . S
H2532 C2540 0.929 . S
H2533 C2542 0.930 . S
H2534 C2544 0.930 . S
H2535 C2547 0.929 . S
H2536 C2550 0.930 . S
H2537 C2552 0.960 . S
H2538 C2552 0.960 . S
H2539 C2552 0.960 . S
C2540 H2532 0.929 . S
C2540 C2541 1.377 . S
C2540 C2542 1.384 . S
C2541 C2540 1.377 . S
C2541 C2547 1.390 . S
C2542 H2533 0.930 . S
C2542 C2540 1.384 . S
C2542 C2543 1.372 . S
C2543 C2542 1.372 . S
C2543 C2544 1.400 . S
C2543 C2548 1.490 . S
C2544 H2534 0.930 . S
C2544 C2543 1.400 . S
C2544 C2547 1.386 . S
H2545 C2561 0.930 . S
H2546 C2562 0.931 . S
C2547 H2535 0.929 . S
C2547 C2541 1.390 . S
C2547 C2544 1.386 . S
C2548 C2543 1.490 . S
C2548 C2550 1.395 . S
C2548 C2551 1.403 . S
H2549 C2555 0.930 . S
C2550 H2536 0.930 . S
C2550 C2548 1.395 . S
C2550 C2553 1.403 . S
C2551 C2548 1.403 . S
C2551 C2552 1.524 . S
C2551 C2555 1.400 . S
C2552 H2537 0.960 . S
C2552 H2538 0.960 . S
C2552 H2539 0.960 . S
C2552 C2551 1.524 . S
C2553 C2550 1.403 . S
C2553 C2554 1.392 . S
C2553 C2557 1.495 . S
C2554 C2553 1.392 . S
C2554 C2555 1.385 . S
C2554 C2556 1.478 . S
C2555 H2549 0.930 . S
C2555 C2551 1.400 . S
C2555 C2554 1.385 . S
C2556 C2554 1.478 . S
C2556 C2558 1.381 . S
C2556 C2562 1.383 . S
C2557 C2553 1.495 . S
C2557 H2563 0.959 . S
C2557 H2564 0.961 . S
C2557 H2565 0.960 . S
C2558 C2556 1.381 . S
C2558 C2559 1.394 . S
C2558 H2566 0.930 . S
C2559 C2558 1.394 . S
C2559 C2560 1.383 . S
C2559 H2567 0.929 . S
C2560 C2559 1.383 . S
C2560 C2561 1.377 . S
C2561 H2545 0.930 . S
C2561 C2560 1.377 . S
C2561 C2562 1.379 . S
C2562 H2546 0.931 . S
C2562 C2556 1.383 . S
C2562 C2561 1.379 . S
H2563 C2557 0.959 . S
H2564 C2557 0.961 . S
H2565 C2557 0.960 . S
H2566 C2558 0.930 . S
H2567 C2559 0.929 . S
H2568 C2576 0.929 . S
H2569 C2578 0.930 . S
H2570 C2580 0.930 . S
H2571 C2583 0.929 . S
H2572 C2586 0.930 . S
H2573 C2588 0.960 . S
H2574 C2588 0.960 . S
H2575 C2588 0.960 . S
C2576 H2568 0.929 . S
C2576 C2577 1.377 1_554 S
C2576 C2578 1.384 1_554 S
C2577 C2576 1.377 1_556 S
C2577 C2583 1.390 . S
C2578 H2569 0.930 . S
C2578 C2576 1.384 1_556 S
C2578 C2579 1.372 . S
C2579 C2578 1.372 . S
C2579 C2580 1.400 . S
C2579 C2584 1.490 . S
C2580 H2570 0.930 . S
C2580 C2579 1.400 . S
C2580 C2583 1.386 . S
H2581 C2597 0.930 . S
H2582 C2598 0.931 . S
C2583 H2571 0.929 . S
C2583 C2577 1.390 . S
C2583 C2580 1.386 . S
C2584 C2579 1.490 . S
C2584 C2586 1.395 . S
C2584 C2587 1.403 . S
H2585 C2591 0.930 . S
C2586 H2572 0.930 . S
C2586 C2584 1.395 . S
C2586 C2589 1.403 . S
C2587 C2584 1.403 . S
C2587 C2588 1.524 . S
C2587 C2591 1.400 . S
C2588 H2573 0.960 . S
C2588 H2574 0.960 . S
C2588 H2575 0.960 . S
C2588 C2587 1.524 . S
C2589 C2586 1.403 . S
C2589 C2590 1.392 . S
C2589 C2593 1.495 . S
C2590 C2589 1.392 . S
C2590 C2591 1.385 . S
C2590 C2592 1.478 . S
C2591 H2585 0.930 . S
C2591 C2587 1.400 . S
C2591 C2590 1.385 . S
C2592 C2590 1.478 . S
C2592 C2594 1.381 . S
C2592 C2598 1.383 . S
C2593 C2589 1.495 . S
C2593 H2599 0.959 . S
C2593 H2600 0.961 . S
C2593 H2601 0.960 . S
C2594 C2592 1.381 . S
C2594 C2595 1.394 . S
C2594 H2602 0.930 . S
C2595 C2594 1.394 . S
C2595 C2596 1.383 . S
C2595 H2603 0.929 . S
C2596 C2595 1.383 . S
C2596 C2597 1.377 . S
C2597 H2581 0.930 . S
C2597 C2596 1.377 . S
C2597 C2598 1.379 . S
C2598 H2582 0.931 . S
C2598 C2592 1.383 . S
C2598 C2597 1.379 . S
H2599 C2593 0.959 . S
H2600 C2593 0.961 . S
H2601 C2593 0.960 . S
H2602 C2594 0.930 . S
H2603 C2595 0.929 . S
H2604 C2612 0.929 . S
H2605 C2614 0.930 . S
H2606 C2616 0.930 . S
H2607 C2619 0.929 . S
H2608 C2622 0.930 . S
H2609 C2624 0.960 . S
H2610 C2624 0.960 . S
H2611 C2624 0.960 . S
C2612 H2604 0.929 . S
C2612 C2613 1.377 . S
C2612 C2614 1.384 . S
C2613 C2612 1.377 . S
C2613 C2619 1.390 . S
C2614 H2605 0.930 . S
C2614 C2612 1.384 . S
C2614 C2615 1.372 . S
C2615 C2614 1.372 . S
C2615 C2616 1.400 . S
C2615 C2620 1.490 . S
C2616 H2606 0.930 . S
C2616 C2615 1.400 . S
C2616 C2619 1.386 . S
H2617 C2633 0.930 . S
H2618 C2634 0.931 . S
C2619 H2607 0.929 . S
C2619 C2613 1.390 . S
C2619 C2616 1.386 . S
C2620 C2615 1.490 . S
C2620 C2622 1.395 . S
C2620 C2623 1.403 . S
H2621 C2627 0.930 . S
C2622 H2608 0.930 . S
C2622 C2620 1.395 . S
C2622 C2625 1.403 . S
C2623 C2620 1.403 . S
C2623 C2624 1.524 . S
C2623 C2627 1.400 . S
C2624 H2609 0.960 . S
C2624 H2610 0.960 . S
C2624 H2611 0.960 . S
C2624 C2623 1.524 . S
C2625 C2622 1.403 . S
C2625 C2626 1.392 . S
C2625 C2629 1.495 . S
C2626 C2625 1.392 . S
C2626 C2627 1.385 . S
C2626 C2628 1.478 . S
C2627 H2621 0.930 . S
C2627 C2623 1.400 . S
C2627 C2626 1.385 . S
C2628 C2626 1.478 . S
C2628 C2630 1.381 . S
C2628 C2634 1.383 . S
C2629 C2625 1.495 . S
C2629 H2635 0.959 . S
C2629 H2636 0.961 . S
C2629 H2637 0.960 . S
C2630 C2628 1.381 . S
C2630 C2631 1.394 . S
C2630 H2638 0.930 . S
C2631 C2630 1.394 . S
C2631 C2632 1.383 . S
C2631 H2639 0.929 . S
C2632 C2631 1.383 . S
C2632 C2633 1.377 . S
C2633 H2617 0.930 . S
C2633 C2632 1.377 . S
C2633 C2634 1.379 . S
C2634 H2618 0.931 . S
C2634 C2628 1.383 . S
C2634 C2633 1.379 . S
H2635 C2629 0.959 . S
H2636 C2629 0.961 . S
H2637 C2629 0.960 . S
H2638 C2630 0.930 . S
H2639 C2631 0.929 . S
H2640 C2648 0.929 . S
H2641 C2650 0.930 . S
H2642 C2652 0.930 . S
H2643 C2655 0.929 . S
H2644 C2658 0.930 . S
H2645 C2660 0.960 . S
H2646 C2660 0.960 . S
H2647 C2660 0.960 . S
C2648 H2640 0.929 . S
C2648 C2649 1.377 . S
C2648 C2650 1.384 . S
C2649 C2648 1.377 . S
C2649 C2655 1.390 . S
C2650 H2641 0.930 . S
C2650 C2648 1.384 . S
C2650 C2651 1.372 . S
C2651 C2650 1.372 . S
C2651 C2652 1.400 . S
C2651 C2656 1.490 . S
C2652 H2642 0.930 . S
C2652 C2651 1.400 . S
C2652 C2655 1.386 . S
H2653 C2669 0.930 . S
H2654 C2670 0.931 . S
C2655 H2643 0.929 . S
C2655 C2649 1.390 . S
C2655 C2652 1.386 . S
C2656 C2651 1.490 . S
C2656 C2658 1.395 . S
C2656 C2659 1.403 . S
H2657 C2663 0.930 . S
C2658 H2644 0.930 . S
C2658 C2656 1.395 . S
C2658 C2661 1.403 . S
C2659 C2656 1.403 . S
C2659 C2660 1.524 . S
C2659 C2663 1.400 . S
C2660 H2645 0.960 . S
C2660 H2646 0.960 . S
C2660 H2647 0.960 . S
C2660 C2659 1.524 . S
C2661 C2658 1.403 . S
C2661 C2662 1.392 . S
C2661 C2665 1.495 . S
C2662 C2661 1.392 . S
C2662 C2663 1.385 . S
C2662 C2664 1.478 . S
C2663 H2657 0.930 . S
C2663 C2659 1.400 . S
C2663 C2662 1.385 . S
C2664 C2662 1.478 . S
C2664 C2666 1.381 . S
C2664 C2670 1.383 . S
C2665 C2661 1.495 . S
C2665 H2671 0.959 . S
C2665 H2672 0.961 . S
C2665 H2673 0.960 . S
C2666 C2664 1.381 . S
C2666 C2667 1.394 . S
C2666 H2674 0.930 . S
C2667 C2666 1.394 . S
C2667 C2668 1.384 . S
C2667 H2675 0.947 . S
C2668 C2667 1.384 . S
C2668 C2669 1.378 . S
C2669 H2653 0.930 . S
C2669 C2668 1.378 . S
C2669 C2670 1.379 . S
C2670 H2654 0.931 . S
C2670 C2664 1.383 . S
C2670 C2669 1.379 . S
H2671 C2665 0.959 . S
H2672 C2665 0.961 . S
H2673 C2665 0.960 . S
H2674 C2666 0.930 . S
H2675 C2667 0.947 . S
H2676 C2684 0.929 . S
H2677 C2686 0.930 . S
H2678 C2688 0.930 . S
H2679 C2691 0.929 . S
H2680 C2694 0.930 . S
H2681 C2696 0.960 . S
H2682 C2696 0.960 . S
H2683 C2696 0.960 . S
C2684 H2676 0.929 . S
C2684 C2685 1.377 . S
C2684 C2686 1.384 . S
C2685 C2684 1.377 . S
C2685 C2691 1.390 . S
C2686 H2677 0.930 . S
C2686 C2684 1.384 . S
C2686 C2687 1.372 . S
C2687 C2686 1.372 . S
C2687 C2688 1.400 . S
C2687 C2692 1.490 . S
C2688 H2678 0.930 . S
C2688 C2687 1.400 . S
C2688 C2691 1.386 . S
H2689 C2705 0.930 . S
H2690 C2706 0.931 . S
C2691 H2679 0.929 . S
C2691 C2685 1.390 . S
C2691 C2688 1.386 . S
C2692 C2687 1.490 . S
C2692 C2694 1.395 . S
C2692 C2695 1.403 . S
H2693 C2699 0.930 . S
C2694 H2680 0.930 . S
C2694 C2692 1.395 . S
C2694 C2697 1.403 . S
C2695 C2692 1.403 . S
C2695 C2696 1.524 . S
C2695 C2699 1.400 . S
C2696 H2681 0.960 . S
C2696 H2682 0.960 . S
C2696 H2683 0.960 . S
C2696 C2695 1.524 . S
C2697 C2694 1.403 . S
C2697 C2698 1.392 . S
C2697 C2701 1.495 . S
C2698 C2697 1.392 . S
C2698 C2699 1.385 . S
C2698 C2700 1.478 . S
C2699 H2693 0.930 . S
C2699 C2695 1.400 . S
C2699 C2698 1.385 . S
C2700 C2698 1.478 . S
C2700 C2702 1.381 . S
C2700 C2706 1.383 . S
C2701 C2697 1.495 . S
C2701 H2707 0.959 . S
C2701 H2708 0.961 . S
C2701 H2709 0.960 . S
C2702 C2700 1.381 . S
C2702 C2703 1.394 . S
C2702 H2710 0.930 . S
C2703 C2702 1.394 . S
C2703 C2704 1.383 . S
C2703 H2711 0.929 . S
C2704 C2703 1.383 . S
C2704 C2705 1.377 . S
C2705 H2689 0.930 . S
C2705 C2704 1.377 . S
C2705 C2706 1.379 . S
C2706 H2690 0.931 . S
C2706 C2700 1.383 . S
C2706 C2705 1.379 . S
H2707 C2701 0.959 . S
H2708 C2701 0.961 . S
H2709 C2701 0.960 . S
H2710 C2702 0.930 . S
H2711 C2703 0.929 . S
H2712 C2720 0.929 . S
H2713 C2722 0.930 . S
H2714 C2724 0.930 . S
H2715 C2727 0.929 . S
H2716 C2730 0.930 . S
H2717 C2732 0.960 . S
H2718 C2732 0.960 . S
H2719 C2732 0.960 . S
C2720 H2712 0.929 . S
C2720 C2721 1.377 . S
C2720 C2722 1.384 . S
C2721 C2720 1.377 . S
C2721 C2727 1.390 . S
C2722 H2713 0.930 . S
C2722 C2720 1.384 . S
C2722 C2723 1.372 . S
C2723 C2722 1.372 . S
C2723 C2724 1.400 . S
C2723 C2728 1.490 . S
C2724 H2714 0.930 . S
C2724 C2723 1.400 . S
C2724 C2727 1.386 . S
H2725 C2741 0.930 . S
H2726 C2742 0.931 . S
C2727 H2715 0.929 . S
C2727 C2721 1.390 . S
C2727 C2724 1.386 . S
C2728 C2723 1.490 . S
C2728 C2730 1.395 . S
C2728 C2731 1.403 . S
H2729 C2735 0.930 . S
C2730 H2716 0.930 . S
C2730 C2728 1.395 . S
C2730 C2733 1.403 . S
C2731 C2728 1.403 . S
C2731 C2732 1.524 . S
C2731 C2735 1.400 . S
C2732 H2717 0.960 . S
C2732 H2718 0.960 . S
C2732 H2719 0.960 . S
C2732 C2731 1.524 . S
C2733 C2730 1.403 . S
C2733 C2734 1.392 . S
C2733 C2737 1.495 . S
C2734 C2733 1.392 . S
C2734 C2735 1.385 . S
C2734 C2736 1.478 . S
C2735 H2729 0.930 . S
C2735 C2731 1.400 . S
C2735 C2734 1.385 . S
C2736 C2734 1.478 . S
C2736 C2738 1.381 . S
C2736 C2742 1.383 . S
C2737 C2733 1.495 . S
C2737 H2743 0.959 . S
C2737 H2744 0.961 . S
C2737 H2745 0.960 . S
C2738 C2736 1.381 . S
C2738 C2739 1.394 . S
C2738 H2746 0.930 . S
C2739 C2738 1.394 . S
C2739 C2740 1.383 . S
C2739 H2747 0.929 . S
C2740 C2739 1.383 . S
C2740 C2741 1.377 . S
C2741 H2725 0.930 . S
C2741 C2740 1.377 . S
C2741 C2742 1.379 . S
C2742 H2726 0.931 . S
C2742 C2736 1.383 . S
C2742 C2741 1.379 . S
H2743 C2737 0.959 . S
H2744 C2737 0.961 . S
H2745 C2737 0.960 . S
H2746 C2738 0.930 . S
H2747 C2739 0.929 . S
H2748 C2756 0.937 . S
H2749 C2758 0.930 . S
H2750 C2760 0.930 . S
H2751 C2763 0.929 . S
H2752 C2766 0.930 . S
H2753 C2768 0.960 . S
H2754 C2768 0.960 . S
H2755 C2768 0.960 . S
C2756 H2748 0.937 . S
C2756 C2757 1.377 . S
C2756 C2758 1.384 . S
C2757 C2756 1.377 . S
C2757 C2763 1.390 . S
C2758 H2749 0.930 . S
C2758 C2756 1.384 . S
C2758 C2759 1.372 . S
C2759 C2758 1.372 . S
C2759 C2760 1.400 . S
C2759 C2764 1.490 . S
C2760 H2750 0.930 . S
C2760 C2759 1.400 . S
C2760 C2763 1.386 . S
H2761 C2777 0.930 . S
H2762 C2778 0.931 . S
C2763 H2751 0.929 . S
C2763 C2757 1.390 . S
C2763 C2760 1.386 . S
C2764 C2759 1.490 . S
C2764 C2766 1.395 . S
C2764 C2767 1.403 . S
H2765 C2771 0.930 . S
C2766 H2752 0.930 . S
C2766 C2764 1.395 . S
C2766 C2769 1.403 . S
C2767 C2764 1.403 . S
C2767 C2768 1.524 . S
C2767 C2771 1.400 . S
C2768 H2753 0.960 . S
C2768 H2754 0.960 . S
C2768 H2755 0.960 . S
C2768 C2767 1.524 . S
C2769 C2766 1.403 . S
C2769 C2770 1.392 . S
C2769 C2773 1.495 . S
C2770 C2769 1.392 . S
C2770 C2771 1.385 . S
C2770 C2772 1.478 . S
C2771 H2765 0.930 . S
C2771 C2767 1.400 . S
C2771 C2770 1.385 . S
C2772 C2770 1.478 . S
C2772 C2774 1.381 . S
C2772 C2778 1.383 . S
C2773 C2769 1.495 . S
C2773 H2779 0.959 . S
C2773 H2780 0.961 . S
C2773 H2781 0.960 . S
C2774 C2772 1.381 . S
C2774 C2775 1.394 . S
C2774 H2782 0.930 . S
C2775 C2774 1.394 . S
C2775 C2776 1.383 . S
C2775 H2783 0.929 . S
C2776 C2775 1.383 . S
C2776 C2777 1.377 . S
C2777 H2761 0.930 . S
C2777 C2776 1.377 . S
C2777 C2778 1.379 . S
C2778 H2762 0.931 . S
C2778 C2772 1.383 . S
C2778 C2777 1.379 . S
H2779 C2773 0.959 . S
H2780 C2773 0.961 . S
H2781 C2773 0.960 . S
H2782 C2774 0.930 . S
H2783 C2775 0.929 . S
H2784 C2792 0.929 . S
H2785 C2794 0.930 . S
H2786 C2796 0.930 . S
H2787 C2799 0.929 . S
H2788 C2802 0.930 . S
H2789 C2804 0.960 . S
H2790 C2804 0.960 . S
H2791 C2804 0.960 . S
C2792 H2784 0.929 . S
C2792 C2793 1.377 . S
C2792 C2794 1.384 . S
C2793 C2792 1.377 . S
C2793 C2799 1.390 . S
C2794 H2785 0.930 . S
C2794 C2792 1.384 . S
C2794 C2795 1.372 . S
C2795 C2794 1.372 . S
C2795 C2796 1.400 . S
C2795 C2800 1.490 . S
C2796 H2786 0.930 . S
C2796 C2795 1.400 . S
C2796 C2799 1.386 . S
H2797 C2813 0.930 . S
H2798 C2814 0.931 . S
C2799 H2787 0.929 . S
C2799 C2793 1.390 . S
C2799 C2796 1.386 . S
C2800 C2795 1.490 . S
C2800 C2802 1.395 . S
C2800 C2803 1.403 . S
H2801 C2807 0.930 . S
C2802 H2788 0.930 . S
C2802 C2800 1.395 . S
C2802 C2805 1.403 . S
C2803 C2800 1.403 . S
C2803 C2804 1.524 . S
C2803 C2807 1.400 . S
C2804 H2789 0.960 . S
C2804 H2790 0.960 . S
C2804 H2791 0.960 . S
C2804 C2803 1.524 . S
C2805 C2802 1.403 . S
C2805 C2806 1.392 . S
C2805 C2809 1.495 . S
C2806 C2805 1.392 . S
C2806 C2807 1.385 . S
C2806 C2808 1.478 . S
C2807 H2801 0.930 . S
C2807 C2803 1.400 . S
C2807 C2806 1.385 . S
C2808 C2806 1.478 . S
C2808 C2810 1.381 . S
C2808 C2814 1.383 . S
C2809 C2805 1.495 . S
C2809 H2815 0.959 . S
C2809 H2816 0.961 . S
C2809 H2817 0.960 . S
C2810 C2808 1.381 . S
C2810 C2811 1.394 1_545 S
C2810 H2818 0.930 . S
C2811 C2810 1.394 1_565 S
C2811 C2812 1.381 1_565 S
C2811 H2819 0.929 . S
C2812 C2811 1.381 1_545 S
C2812 C2813 1.394 . S
C2813 H2797 0.930 . S
C2813 C2812 1.394 . S
C2813 C2814 1.379 . S
C2814 H2798 0.931 . S
C2814 C2808 1.383 . S
C2814 C2813 1.379 . S
H2815 C2809 0.959 . S
H2816 C2809 0.961 . S
H2817 C2809 0.960 . S
H2818 C2810 0.930 . S
H2819 C2811 0.929 . S
H2820 C2828 0.929 . S
H2821 C2830 0.930 . S
H2822 C2832 0.930 . S
H2823 C2835 0.929 . S
H2824 C2838 0.930 . S
H2825 C2840 0.960 . S
H2826 C2840 0.960 . S
H2827 C2840 0.960 . S
C2828 H2820 0.929 . S
C2828 C2829 1.377 . S
C2828 C2830 1.384 . S
C2829 C2828 1.377 . S
C2829 C2835 1.390 . S
C2830 H2821 0.930 . S
C2830 C2828 1.384 . S
C2830 C2831 1.372 . S
C2831 C2830 1.372 . S
C2831 C2832 1.400 . S
C2831 C2836 1.490 . S
C2832 H2822 0.930 . S
C2832 C2831 1.400 . S
C2832 C2835 1.386 . S
H2833 C2849 0.930 . S
H2834 C2850 0.931 . S
C2835 H2823 0.929 . S
C2835 C2829 1.390 . S
C2835 C2832 1.386 . S
C2836 C2831 1.490 . S
C2836 C2838 1.395 . S
C2836 C2839 1.403 . S
H2837 C2843 0.930 . S
C2838 H2824 0.930 . S
C2838 C2836 1.395 . S
C2838 C2841 1.403 . S
C2839 C2836 1.403 . S
C2839 C2840 1.524 . S
C2839 C2843 1.400 . S
C2840 H2825 0.960 . S
C2840 H2826 0.960 . S
C2840 H2827 0.960 . S
C2840 C2839 1.524 . S
C2841 C2838 1.403 . S
C2841 C2842 1.392 . S
C2841 C2845 1.495 . S
C2842 C2841 1.392 . S
C2842 C2843 1.385 . S
C2842 C2844 1.478 . S
C2843 H2837 0.930 . S
C2843 C2839 1.400 . S
C2843 C2842 1.385 . S
C2844 C2842 1.478 . S
C2844 C2846 1.381 . S
C2844 C2850 1.383 . S
C2845 C2841 1.495 . S
C2845 H2851 0.959 . S
C2845 H2852 0.961 . S
C2845 H2853 0.960 . S
C2846 C2844 1.381 . S
C2846 C2847 1.394 . S
C2846 H2854 0.930 . S
C2847 C2846 1.394 . S
C2847 C2848 1.383 . S
C2847 H2855 0.929 . S
C2848 C2847 1.383 . S
C2848 C2849 1.377 . S
C2849 H2833 0.930 . S
C2849 C2848 1.377 . S
C2849 C2850 1.379 . S
C2850 H2834 0.931 . S
C2850 C2844 1.383 . S
C2850 C2849 1.379 . S
H2851 C2845 0.959 . S
H2852 C2845 0.961 . S
H2853 C2845 0.960 . S
H2854 C2846 0.930 . S
H2855 C2847 0.929 . S
H2856 C2864 0.929 . S
H2857 C2866 0.930 . S
H2858 C2868 0.930 . S
H2859 C2871 0.929 . S
H2860 C2874 0.930 . S
H2861 C2876 0.960 . S
H2862 C2876 0.960 . S
H2863 C2876 0.960 . S
C2864 H2856 0.929 . S
C2864 C2865 1.377 . S
C2864 C2866 1.384 . S
C2865 C2864 1.377 . S
C2865 C2871 1.390 . S
C2866 H2857 0.930 . S
C2866 C2864 1.384 . S
C2866 C2867 1.372 . S
C2867 C2866 1.372 . S
C2867 C2868 1.400 . S
C2867 C2872 1.490 . S
C2868 H2858 0.930 . S
C2868 C2867 1.400 . S
C2868 C2871 1.386 . S
H2869 C2885 0.930 . S
H2870 C2886 0.931 . S
C2871 H2859 0.929 . S
C2871 C2865 1.390 . S
C2871 C2868 1.386 . S
C2872 C2867 1.490 . S
C2872 C2874 1.395 . S
C2872 C2875 1.403 . S
H2873 C2879 0.930 . S
C2874 H2860 0.930 . S
C2874 C2872 1.395 . S
C2874 C2877 1.403 . S
C2875 C2872 1.403 . S
C2875 C2876 1.524 . S
C2875 C2879 1.400 . S
C2876 H2861 0.960 . S
C2876 H2862 0.960 . S
C2876 H2863 0.960 . S
C2876 C2875 1.524 . S
C2877 C2874 1.403 . S
C2877 C2878 1.392 . S
C2877 C2881 1.495 . S
C2878 C2877 1.392 . S
C2878 C2879 1.385 . S
C2878 C2880 1.478 . S
C2879 H2873 0.930 . S
C2879 C2875 1.400 . S
C2879 C2878 1.385 . S
C2880 C2878 1.478 . S
C2880 C2882 1.381 . S
C2880 C2886 1.383 . S
C2881 C2877 1.495 . S
C2881 H2887 0.959 . S
C2881 H2888 0.961 . S
C2881 H2889 0.960 . S
C2882 C2880 1.381 . S
C2882 C2883 1.394 . S
C2882 H2890 0.930 . S
C2883 C2882 1.394 . S
C2883 C2884 1.383 . S
C2883 H2891 0.929 . S
C2884 C2883 1.383 . S
C2884 C2885 1.377 . S
C2885 H2869 0.930 . S
C2885 C2884 1.377 . S
C2885 C2886 1.379 . S
C2886 H2870 0.931 . S
C2886 C2880 1.383 . S
C2886 C2885 1.379 . S
H2887 C2881 0.959 . S
H2888 C2881 0.961 . S
H2889 C2881 0.960 . S
H2890 C2882 0.930 . S
H2891 C2883 0.929 . S
H2892 C2900 0.929 . S
H2893 C2902 0.930 . S
H2894 C2904 0.930 . S
H2895 C2907 0.929 . S
H2896 C2910 0.930 . S
H2897 C2912 0.960 . S
H2898 C2912 0.960 . S
H2899 C2912 0.960 . S
C2900 H2892 0.929 . S
C2900 C2901 1.377 . S
C2900 C2902 1.384 . S
C2901 C2900 1.377 . S
C2901 C2907 1.390 . S
C2902 H2893 0.930 . S
C2902 C2900 1.384 . S
C2902 C2903 1.372 . S
C2903 C2902 1.372 . S
C2903 C2904 1.400 . S
C2903 C2908 1.490 . S
C2904 H2894 0.930 . S
C2904 C2903 1.400 . S
C2904 C2907 1.386 . S
H2905 C2921 0.930 . S
H2906 C2922 0.931 . S
C2907 H2895 0.929 . S
C2907 C2901 1.390 . S
C2907 C2904 1.386 . S
C2908 C2903 1.490 . S
C2908 C2910 1.395 . S
C2908 C2911 1.403 . S
H2909 C2915 0.930 . S
C2910 H2896 0.930 . S
C2910 C2908 1.395 . S
C2910 C2913 1.403 . S
C2911 C2908 1.403 . S
C2911 C2912 1.524 . S
C2911 C2915 1.400 . S
C2912 H2897 0.960 . S
C2912 H2898 0.960 . S
C2912 H2899 0.960 . S
C2912 C2911 1.524 . S
C2913 C2910 1.403 . S
C2913 C2914 1.392 . S
C2913 C2917 1.495 . S
C2914 C2913 1.392 . S
C2914 C2915 1.385 . S
C2914 C2916 1.478 . S
C2915 H2909 0.930 . S
C2915 C2911 1.400 . S
C2915 C2914 1.385 . S
C2916 C2914 1.478 . S
C2916 C2918 1.381 . S
C2916 C2922 1.383 . S
C2917 C2913 1.495 . S
C2917 H2923 0.959 . S
C2917 H2924 0.961 . S
C2917 H2925 0.960 . S
C2918 C2916 1.381 . S
C2918 C2919 1.394 1_565 S
C2918 H2926 0.930 . S
C2919 C2918 1.394 1_545 S
C2919 C2920 1.379 1_545 S
C2919 H2927 0.929 . S
C2920 C2919 1.379 1_565 S
C2920 C2921 1.405 . S
C2921 H2905 0.930 . S
C2921 C2920 1.405 . S
C2921 C2922 1.379 . S
C2922 H2906 0.931 . S
C2922 C2916 1.383 . S
C2922 C2921 1.379 . S
H2923 C2917 0.959 . S
H2924 C2917 0.961 . S
H2925 C2917 0.960 . S
H2926 C2918 0.930 . S
H2927 C2919 0.929 . S
H2928 C2936 0.929 . S
H2929 C2938 0.930 . S
H2930 C2940 0.930 . S
H2931 C2943 0.929 . S
H2932 C2946 0.930 . S
H2933 C2948 0.960 . S
H2934 C2948 0.960 . S
H2935 C2948 0.960 . S
C2936 H2928 0.929 . S
C2936 C2937 1.377 . S
C2936 C2938 1.384 . S
C2937 C2936 1.377 . S
C2937 C2943 1.390 . S
C2938 H2929 0.930 . S
C2938 C2936 1.384 . S
C2938 C2939 1.372 . S
C2939 C2938 1.372 . S
C2939 C2940 1.400 . S
C2939 C2944 1.490 . S
C2940 H2930 0.930 . S
C2940 C2939 1.400 . S
C2940 C2943 1.386 . S
H2941 C2957 0.930 . S
H2942 C2958 0.931 . S
C2943 H2931 0.929 . S
C2943 C2937 1.390 . S
C2943 C2940 1.386 . S
C2944 C2939 1.490 . S
C2944 C2946 1.395 . S
C2944 C2947 1.403 . S
H2945 C2951 0.930 . S
C2946 H2932 0.930 . S
C2946 C2944 1.395 . S
C2946 C2949 1.403 . S
C2947 C2944 1.403 . S
C2947 C2948 1.524 . S
C2947 C2951 1.400 . S
C2948 H2933 0.960 . S
C2948 H2934 0.960 . S
C2948 H2935 0.960 . S
C2948 C2947 1.524 . S
C2949 C2946 1.403 . S
C2949 C2950 1.392 . S
C2949 C2953 1.495 . S
C2950 C2949 1.392 . S
C2950 C2951 1.385 . S
C2950 C2952 1.478 . S
C2951 H2945 0.930 . S
C2951 C2947 1.400 . S
C2951 C2950 1.385 . S
C2952 C2950 1.478 . S
C2952 C2954 1.381 . S
C2952 C2958 1.383 . S
C2953 C2949 1.495 . S
C2953 H2959 0.959 . S
C2953 H2960 0.961 . S
C2953 H2961 0.960 . S
C2954 C2952 1.381 . S
C2954 C2955 1.394 1_556 S
C2954 H2962 0.930 . S
C2955 C2954 1.394 1_554 S
C2955 C2956 1.383 1_554 S
C2955 H2963 0.929 . S
C2956 C2955 1.383 1_556 S
C2956 C2957 1.377 . S
C2957 H2941 0.930 . S
C2957 C2956 1.377 . S
C2957 C2958 1.379 . S
C2958 H2942 0.931 . S
C2958 C2952 1.383 . S
C2958 C2957 1.379 . S
H2959 C2953 0.959 . S
H2960 C2953 0.961 . S
H2961 C2953 0.960 . S
H2962 C2954 0.930 . S
H2963 C2955 0.929 . S
H2964 C2972 0.929 . S
H2965 C2974 0.930 . S
H2966 C2976 0.930 . S
H2967 C2979 0.929 . S
H2968 C2982 0.930 . S
H2969 C2984 0.960 . S
H2970 C2984 0.960 . S
H2971 C2984 0.960 . S
C2972 H2964 0.929 . S
C2972 C2973 1.377 . S
C2972 C2974 1.384 . S
C2973 C2972 1.377 . S
C2973 C2979 1.390 . S
C2974 H2965 0.930 . S
C2974 C2972 1.384 . S
C2974 C2975 1.372 . S
C2975 C2974 1.372 . S
C2975 C2976 1.400 . S
C2975 C2980 1.490 . S
C2976 H2966 0.930 . S
C2976 C2975 1.400 . S
C2976 C2979 1.386 . S
H2977 C2993 0.930 . S
H2978 C2994 0.931 . S
C2979 H2967 0.929 . S
C2979 C2973 1.390 . S
C2979 C2976 1.386 . S
C2980 C2975 1.490 . S
C2980 C2982 1.395 . S
C2980 C2983 1.403 . S
H2981 C2987 0.930 . S
C2982 H2968 0.930 . S
C2982 C2980 1.395 . S
C2982 C2985 1.403 . S
C2983 C2980 1.403 . S
C2983 C2984 1.524 . S
C2983 C2987 1.400 . S
C2984 H2969 0.960 . S
C2984 H2970 0.960 . S
C2984 H2971 0.960 . S
C2984 C2983 1.524 . S
C2985 C2982 1.403 . S
C2985 C2986 1.392 . S
C2985 C2989 1.495 . S
C2986 C2985 1.392 . S
C2986 C2987 1.385 . S
C2986 C2988 1.478 . S
C2987 H2981 0.930 . S
C2987 C2983 1.400 . S
C2987 C2986 1.385 . S
C2988 C2986 1.478 . S
C2988 C2990 1.381 . S
C2988 C2994 1.383 . S
C2989 C2985 1.495 . S
C2989 H2995 0.959 . S
C2989 H2996 0.961 . S
C2989 H2997 0.960 . S
C2990 C2988 1.381 . S
C2990 C2991 1.394 . S
C2990 H2998 0.930 . S
C2991 C2990 1.394 . S
C2991 C2992 1.383 . S
C2991 H2999 0.929 . S
C2992 C2991 1.383 . S
C2992 C2993 1.377 . S
C2993 H2977 0.930 . S
C2993 C2992 1.377 . S
C2993 C2994 1.379 . S
C2994 H2978 0.931 . S
C2994 C2988 1.383 . S
C2994 C2993 1.379 . S
H2995 C2989 0.959 . S
H2996 C2989 0.961 . S
H2997 C2989 0.960 . S
H2998 C2990 0.930 . S
H2999 C2991 0.929 . S
H3000 C3008 0.929 1_556 S
H3001 C3010 0.930 . S
H3002 C3012 0.930 . S
H3003 C3015 0.929 . S
H3004 C3018 0.930 . S
H3005 C3020 0.960 . S
H3006 C3020 0.960 . S
H3007 C3020 0.960 . S
C3008 H3000 0.929 1_554 S
C3008 C3009 1.377 . S
C3008 C3010 1.384 . S
C3009 C3008 1.377 . S
C3009 C3015 1.390 . S
C3010 H3001 0.930 . S
C3010 C3008 1.384 . S
C3010 C3011 1.372 . S
C3011 C3010 1.372 . S
C3011 C3012 1.400 . S
C3011 C3016 1.490 . S
C3012 H3002 0.930 . S
C3012 C3011 1.400 . S
C3012 C3015 1.386 . S
H3013 C3029 0.930 . S
H3014 C3030 0.931 . S
C3015 H3003 0.929 . S
C3015 C3009 1.390 . S
C3015 C3012 1.386 . S
C3016 C3011 1.490 . S
C3016 C3018 1.395 . S
C3016 C3019 1.403 . S
H3017 C3023 0.930 . S
C3018 H3004 0.930 . S
C3018 C3016 1.395 . S
C3018 C3021 1.403 . S
C3019 C3016 1.403 . S
C3019 C3020 1.524 . S
C3019 C3023 1.400 . S
C3020 H3005 0.960 . S
C3020 H3006 0.960 . S
C3020 H3007 0.960 . S
C3020 C3019 1.524 . S
C3021 C3018 1.403 . S
C3021 C3022 1.392 . S
C3021 C3025 1.495 . S
C3022 C3021 1.392 . S
C3022 C3023 1.385 . S
C3022 C3024 1.478 . S
C3023 H3017 0.930 . S
C3023 C3019 1.400 . S
C3023 C3022 1.385 . S
C3024 C3022 1.478 . S
C3024 C3026 1.381 . S
C3024 C3030 1.383 . S
C3025 C3021 1.495 . S
C3025 H3031 0.959 . S
C3025 H3032 0.961 . S
C3025 H3033 0.960 . S
C3026 C3024 1.381 . S
C3026 C3027 1.394 . S
C3026 H3034 0.930 . S
C3027 C3026 1.394 . S
C3027 C3028 1.383 . S
C3027 H3035 0.929 . S
C3028 C3027 1.383 . S
C3028 C3029 1.377 . S
C3029 H3013 0.930 . S
C3029 C3028 1.377 . S
C3029 C3030 1.379 . S
C3030 H3014 0.931 . S
C3030 C3024 1.383 . S
C3030 C3029 1.379 . S
H3031 C3025 0.959 . S
H3032 C3025 0.961 . S
H3033 C3025 0.960 . S
H3034 C3026 0.930 . S
H3035 C3027 0.929 . S
H3036 C3044 0.929 . S
H3037 C3046 0.930 . S
H3038 C3048 0.930 . S
H3039 C3051 0.929 . S
H3040 C3054 0.930 . S
H3041 C3056 0.960 . S
H3042 C3056 0.960 . S
H3043 C3056 0.960 . S
C3044 H3036 0.929 . S
C3044 C3045 1.377 . S
C3044 C3046 1.384 . S
C3045 C3044 1.377 . S
C3045 C3051 1.390 . S
C3046 H3037 0.930 . S
C3046 C3044 1.384 . S
C3046 C3047 1.372 . S
C3047 C3046 1.372 . S
C3047 C3048 1.400 . S
C3047 C3052 1.490 . S
C3048 H3038 0.930 . S
C3048 C3047 1.400 . S
C3048 C3051 1.386 . S
H3049 C3065 0.930 . S
H3050 C3066 0.931 . S
C3051 H3039 0.929 . S
C3051 C3045 1.390 . S
C3051 C3048 1.386 . S
C3052 C3047 1.490 . S
C3052 C3054 1.395 . S
C3052 C3055 1.403 . S
H3053 C3059 0.930 . S
C3054 H3040 0.930 . S
C3054 C3052 1.395 . S
C3054 C3057 1.403 . S
C3055 C3052 1.403 . S
C3055 C3056 1.524 . S
C3055 C3059 1.400 . S
C3056 H3041 0.960 . S
C3056 H3042 0.960 . S
C3056 H3043 0.960 . S
C3056 C3055 1.524 . S
C3057 C3054 1.403 . S
C3057 C3058 1.392 . S
C3057 C3061 1.495 . S
C3058 C3057 1.392 . S
C3058 C3059 1.385 . S
C3058 C3060 1.478 . S
C3059 H3053 0.930 . S
C3059 C3055 1.400 . S
C3059 C3058 1.385 . S
C3060 C3058 1.478 . S
C3060 C3062 1.381 . S
C3060 C3066 1.383 . S
C3061 C3057 1.495 . S
C3061 H3067 0.959 . S
C3061 H3068 0.961 . S
C3061 H3069 0.960 . S
C3062 C3060 1.381 . S
C3062 C3063 1.394 . S
C3062 H3070 0.930 . S
C3063 C3062 1.394 . S
C3063 C3064 1.383 . S
C3063 H3071 0.929 . S
C3064 C3063 1.383 . S
C3064 C3065 1.377 . S
C3065 H3049 0.930 . S
C3065 C3064 1.377 . S
C3065 C3066 1.379 . S
C3066 H3050 0.931 . S
C3066 C3060 1.383 . S
C3066 C3065 1.379 . S
H3067 C3061 0.959 . S
H3068 C3061 0.961 . S
H3069 C3061 0.960 . S
H3070 C3062 0.930 . S
H3071 C3063 0.929 . S
H3072 C3080 0.929 . S
H3073 C3082 0.930 . S
H3074 C3084 0.930 . S
H3075 C3087 0.929 . S
H3076 C3090 0.930 . S
H3077 C3092 0.960 . S
H3078 C3092 0.960 . S
H3079 C3092 0.960 . S
C3080 H3072 0.929 . S
C3080 C3081 1.377 . S
C3080 C3082 1.384 . S
C3081 C3080 1.377 . S
C3081 C3087 1.390 . S
C3082 H3073 0.930 . S
C3082 C3080 1.384 . S
C3082 C3083 1.372 . S
C3083 C3082 1.372 . S
C3083 C3084 1.400 . S
C3083 C3088 1.490 . S
C3084 H3074 0.930 . S
C3084 C3083 1.400 . S
C3084 C3087 1.386 . S
H3085 C3101 0.930 . S
H3086 C3102 0.931 . S
C3087 H3075 0.929 . S
C3087 C3081 1.390 . S
C3087 C3084 1.386 . S
C3088 C3083 1.490 . S
C3088 C3090 1.395 . S
C3088 C3091 1.403 . S
H3089 C3095 0.930 . S
C3090 H3076 0.930 . S
C3090 C3088 1.395 . S
C3090 C3093 1.403 . S
C3091 C3088 1.403 . S
C3091 C3092 1.524 . S
C3091 C3095 1.400 . S
C3092 H3077 0.960 . S
C3092 H3078 0.960 . S
C3092 H3079 0.960 . S
C3092 C3091 1.524 . S
C3093 C3090 1.403 . S
C3093 C3094 1.392 . S
C3093 C3097 1.495 . S
C3094 C3093 1.392 . S
C3094 C3095 1.385 . S
C3094 C3096 1.478 . S
C3095 H3089 0.930 . S
C3095 C3091 1.400 . S
C3095 C3094 1.385 . S
C3096 C3094 1.478 . S
C3096 C3098 1.381 . S
C3096 C3102 1.383 . S
C3097 C3093 1.495 . S
C3097 H3103 0.959 . S
C3097 H3104 0.961 . S
C3097 H3105 0.960 . S
C3098 C3096 1.381 . S
C3098 C3099 1.394 1_655 S
C3098 H3106 0.930 . S
C3099 C3098 1.394 1_455 S
C3099 C3100 1.383 1_455 S
C3099 H3107 0.929 . S
C3100 C3099 1.383 1_655 S
C3100 C3101 1.377 . S
C3101 H3085 0.930 . S
C3101 C3100 1.377 . S
C3101 C3102 1.379 . S
C3102 H3086 0.931 . S
C3102 C3096 1.383 . S
C3102 C3101 1.379 . S
H3103 C3097 0.959 . S
H3104 C3097 0.961 . S
H3105 C3097 0.960 . S
H3106 C3098 0.930 . S
H3107 C3099 0.929 . S
H3108 C3116 0.929 . S
H3109 C3118 0.930 . S
H3110 C3120 0.930 . S
H3111 C3123 0.929 . S
H3112 C3126 0.930 . S
H3113 C3128 0.960 . S
H3114 C3128 0.960 . S
H3115 C3128 0.960 . S
C3116 H3108 0.929 . S
C3116 C3117 1.377 . S
C3116 C3118 1.384 . S
C3117 C3116 1.377 . S
C3117 C3123 1.390 . S
C3118 H3109 0.930 . S
C3118 C3116 1.384 . S
C3118 C3119 1.372 . S
C3119 C3118 1.372 . S
C3119 C3120 1.400 . S
C3119 C3124 1.490 . S
C3120 H3110 0.930 . S
C3120 C3119 1.400 . S
C3120 C3123 1.386 . S
H3121 C3137 0.930 . S
H3122 C3138 0.931 . S
C3123 H3111 0.929 . S
C3123 C3117 1.390 . S
C3123 C3120 1.386 . S
C3124 C3119 1.490 . S
C3124 C3126 1.395 . S
C3124 C3127 1.403 . S
H3125 C3131 0.930 . S
C3126 H3112 0.930 . S
C3126 C3124 1.395 . S
C3126 C3129 1.403 . S
C3127 C3124 1.403 . S
C3127 C3128 1.524 . S
C3127 C3131 1.400 . S
C3128 H3113 0.960 . S
C3128 H3114 0.960 . S
C3128 H3115 0.960 . S
C3128 C3127 1.524 . S
C3129 C3126 1.403 . S
C3129 C3130 1.392 . S
C3129 C3133 1.495 . S
C3130 C3129 1.392 . S
C3130 C3131 1.385 . S
C3130 C3132 1.478 . S
C3131 H3125 0.930 . S
C3131 C3127 1.400 . S
C3131 C3130 1.385 . S
C3132 C3130 1.478 . S
C3132 C3134 1.381 . S
C3132 C3138 1.383 . S
C3133 C3129 1.495 . S
C3133 H3139 0.959 . S
C3133 H3140 0.961 . S
C3133 H3141 0.960 . S
C3134 C3132 1.381 . S
C3134 C3135 1.394 . S
C3134 H3142 0.930 . S
C3135 C3134 1.394 . S
C3135 C3136 1.383 . S
C3135 H3143 0.929 . S
C3136 C3135 1.383 . S
C3136 C3137 1.377 . S
C3137 H3121 0.930 . S
C3137 C3136 1.377 . S
C3137 C3138 1.379 . S
C3138 H3122 0.931 . S
C3138 C3132 1.383 . S
C3138 C3137 1.379 . S
H3139 C3133 0.959 . S
H3140 C3133 0.961 . S
H3141 C3133 0.960 . S
H3142 C3134 0.930 . S
H3143 C3135 0.929 . S
H3144 C3152 0.929 . S
H3145 C3154 0.930 . S
H3146 C3156 0.930 . S
H3147 C3159 0.929 . S
H3148 C3162 0.930 . S
H3149 C3164 0.960 . S
H3150 C3164 0.960 . S
H3151 C3164 0.960 . S
C3152 H3144 0.929 . S
C3152 C3153 1.377 . S
C3152 C3154 1.384 . S
C3153 C3152 1.377 . S
C3153 C3159 1.390 . S
C3154 H3145 0.930 . S
C3154 C3152 1.384 . S
C3154 C3155 1.372 . S
C3155 C3154 1.372 . S
C3155 C3156 1.400 . S
C3155 C3160 1.490 . S
C3156 H3146 0.930 . S
C3156 C3155 1.400 . S
C3156 C3159 1.386 . S
H3157 C3173 0.930 . S
H3158 C3174 0.931 . S
C3159 H3147 0.929 . S
C3159 C3153 1.390 . S
C3159 C3156 1.386 . S
C3160 C3155 1.490 . S
C3160 C3162 1.395 . S
C3160 C3163 1.403 . S
H3161 C3167 0.930 . S
C3162 H3148 0.930 . S
C3162 C3160 1.395 . S
C3162 C3165 1.403 . S
C3163 C3160 1.403 . S
C3163 C3164 1.524 . S
C3163 C3167 1.400 . S
C3164 H3149 0.960 . S
C3164 H3150 0.960 . S
C3164 H3151 0.960 . S
C3164 C3163 1.524 . S
C3165 C3162 1.403 . S
C3165 C3166 1.392 . S
C3165 C3169 1.495 . S
C3166 C3165 1.392 . S
C3166 C3167 1.385 . S
C3166 C3168 1.478 . S
C3167 H3161 0.930 . S
C3167 C3163 1.400 . S
C3167 C3166 1.385 . S
C3168 C3166 1.478 . S
C3168 C3170 1.381 . S
C3168 C3174 1.383 . S
C3169 C3165 1.495 . S
C3169 H3175 0.959 . S
C3169 H3176 0.961 . S
C3169 H3177 0.960 . S
C3170 C3168 1.381 . S
C3170 C3171 1.394 . S
C3170 H3178 0.930 . S
C3171 C3170 1.394 . S
C3171 C3172 1.383 . S
C3171 H3179 0.929 . S
C3172 C3171 1.383 . S
C3172 C3173 1.377 . S
C3173 H3157 0.930 . S
C3173 C3172 1.377 . S
C3173 C3174 1.379 . S
C3174 H3158 0.931 . S
C3174 C3168 1.383 . S
C3174 C3173 1.379 . S
H3175 C3169 0.959 . S
H3176 C3169 0.961 . S
H3177 C3169 0.960 . S
H3178 C3170 0.930 . S
H3179 C3171 0.929 . S
H3180 C3188 0.929 . S
H3181 C3190 0.930 . S
H3182 C3192 0.930 . S
H3183 C3195 0.929 . S
H3184 C3198 0.930 . S
H3185 C3200 0.960 . S
H3186 C3200 0.960 . S
H3187 C3200 0.960 . S
C3188 H3180 0.929 . S
C3188 C3189 1.377 . S
C3188 C3190 1.384 . S
C3189 C3188 1.377 . S
C3189 C3195 1.390 . S
C3190 H3181 0.930 . S
C3190 C3188 1.384 . S
C3190 C3191 1.372 . S
C3191 C3190 1.372 . S
C3191 C3192 1.400 . S
C3191 C3196 1.490 . S
C3192 H3182 0.930 . S
C3192 C3191 1.400 . S
C3192 C3195 1.386 . S
H3193 C3209 0.930 . S
H3194 C3210 0.931 . S
C3195 H3183 0.929 . S
C3195 C3189 1.390 . S
C3195 C3192 1.386 . S
C3196 C3191 1.490 . S
C3196 C3198 1.395 . S
C3196 C3199 1.403 . S
H3197 C3203 0.930 . S
C3198 H3184 0.930 . S
C3198 C3196 1.395 . S
C3198 C3201 1.403 . S
C3199 C3196 1.403 . S
C3199 C3200 1.524 . S
C3199 C3203 1.400 . S
C3200 H3185 0.960 . S
C3200 H3186 0.960 . S
C3200 H3187 0.960 . S
C3200 C3199 1.524 . S
C3201 C3198 1.403 . S
C3201 C3202 1.392 . S
C3201 C3205 1.495 . S
C3202 C3201 1.392 . S
C3202 C3203 1.385 . S
C3202 C3204 1.478 . S
C3203 H3197 0.930 . S
C3203 C3199 1.400 . S
C3203 C3202 1.385 . S
C3204 C3202 1.478 . S
C3204 C3206 1.381 . S
C3204 C3210 1.383 . S
C3205 C3201 1.495 . S
C3205 H3211 0.959 . S
C3205 H3212 0.961 . S
C3205 H3213 0.960 . S
C3206 C3204 1.381 . S
C3206 C3207 1.394 1_455 S
C3206 H3214 0.930 . S
C3207 C3206 1.394 1_655 S
C3207 C3208 1.382 1_655 S
C3207 H3215 0.929 . S
C3208 C3207 1.382 1_455 S
C3208 C3209 1.388 . S
C3209 H3193 0.930 . S
C3209 C3208 1.388 . S
C3209 C3210 1.379 . S
C3210 H3194 0.931 . S
C3210 C3204 1.383 . S
C3210 C3209 1.379 . S
H3211 C3205 0.959 . S
H3212 C3205 0.961 . S
H3213 C3205 0.960 . S
H3214 C3206 0.930 . S
H3215 C3207 0.929 . S
H3216 C3224 0.929 . S
H3217 C3226 0.930 . S
H3218 C3228 0.930 . S
H3219 C3231 0.929 . S
H3220 C3234 0.930 . S
H3221 C3236 0.960 . S
H3222 C3236 0.960 . S
H3223 C3236 0.960 . S
C3224 H3216 0.929 . S
C3224 C3225 1.377 . S
C3224 C3226 1.384 . S
C3225 C3224 1.377 . S
C3225 C3231 1.390 . S
C3226 H3217 0.930 . S
C3226 C3224 1.384 . S
C3226 C3227 1.372 . S
C3227 C3226 1.372 . S
C3227 C3228 1.400 . S
C3227 C3232 1.490 . S
C3228 H3218 0.930 . S
C3228 C3227 1.400 . S
C3228 C3231 1.386 . S
H3229 C3245 0.930 . S
H3230 C3246 0.931 . S
C3231 H3219 0.929 . S
C3231 C3225 1.390 . S
C3231 C3228 1.386 . S
C3232 C3227 1.490 . S
C3232 C3234 1.395 . S
C3232 C3235 1.403 . S
H3233 C3239 0.930 . S
C3234 H3220 0.930 . S
C3234 C3232 1.395 . S
C3234 C3237 1.403 . S
C3235 C3232 1.403 . S
C3235 C3236 1.524 . S
C3235 C3239 1.400 . S
C3236 H3221 0.960 . S
C3236 H3222 0.960 . S
C3236 H3223 0.960 . S
C3236 C3235 1.524 . S
C3237 C3234 1.403 . S
C3237 C3238 1.392 . S
C3237 C3241 1.495 . S
C3238 C3237 1.392 . S
C3238 C3239 1.385 . S
C3238 C3240 1.478 . S
C3239 H3233 0.930 . S
C3239 C3235 1.400 . S
C3239 C3238 1.385 . S
C3240 C3238 1.478 . S
C3240 C3242 1.381 . S
C3240 C3246 1.383 . S
C3241 C3237 1.495 . S
C3241 H3247 0.959 . S
C3241 H3248 0.961 . S
C3241 H3249 0.960 . S
C3242 C3240 1.381 . S
C3242 C3243 1.394 . S
C3242 H3250 0.930 . S
C3243 C3242 1.394 . S
C3243 C3244 1.383 . S
C3243 H3251 0.929 . S
C3244 C3243 1.383 . S
C3244 C3245 1.377 1_565 S
C3245 H3229 0.930 . S
C3245 C3244 1.377 1_545 S
C3245 C3246 1.379 1_545 S
C3246 H3230 0.931 . S
C3246 C3240 1.383 . S
C3246 C3245 1.379 1_565 S
H3247 C3241 0.959 . S
H3248 C3241 0.961 . S
H3249 C3241 0.960 . S
H3250 C3242 0.930 . S
H3251 C3243 0.929 . S
H3252 C3260 0.929 . S
H3253 C3262 0.930 . S
H3254 C3264 0.930 . S
H3255 C3267 0.929 . S
H3256 C3270 0.930 . S
H3257 C3272 0.960 . S
H3258 C3272 0.960 . S
H3259 C3272 0.960 . S
C3260 H3252 0.929 . S
C3260 C3261 1.377 . S
C3260 C3262 1.384 . S
C3261 C3260 1.377 . S
C3261 C3267 1.390 . S
C3262 H3253 0.930 . S
C3262 C3260 1.384 . S
C3262 C3263 1.372 . S
C3263 C3262 1.372 . S
C3263 C3264 1.400 . S
C3263 C3268 1.490 . S
C3264 H3254 0.930 . S
C3264 C3263 1.400 . S
C3264 C3267 1.386 . S
H3265 C3281 0.930 . S
H3266 C3282 0.931 . S
C3267 H3255 0.929 . S
C3267 C3261 1.390 . S
C3267 C3264 1.386 . S
C3268 C3263 1.490 . S
C3268 C3270 1.395 . S
C3268 C3271 1.403 . S
H3269 C3275 0.930 . S
C3270 H3256 0.930 . S
C3270 C3268 1.395 . S
C3270 C3273 1.403 . S
C3271 C3268 1.403 . S
C3271 C3272 1.524 . S
C3271 C3275 1.400 . S
C3272 H3257 0.960 . S
C3272 H3258 0.960 . S
C3272 H3259 0.960 . S
C3272 C3271 1.524 . S
C3273 C3270 1.403 . S
C3273 C3274 1.392 . S
C3273 C3277 1.495 . S
C3274 C3273 1.392 . S
C3274 C3275 1.385 . S
C3274 C3276 1.478 . S
C3275 H3269 0.930 . S
C3275 C3271 1.400 . S
C3275 C3274 1.385 . S
C3276 C3274 1.478 . S
C3276 C3278 1.381 . S
C3276 C3282 1.383 . S
C3277 C3273 1.495 . S
C3277 H3283 0.959 . S
C3277 H3284 0.961 . S
C3277 H3285 0.960 . S
C3278 C3276 1.381 . S
C3278 C3279 1.394 . S
C3278 H3286 0.930 . S
C3279 C3278 1.394 . S
C3279 C3280 1.383 . S
C3279 H3287 0.929 . S
C3280 C3279 1.383 . S
C3280 C3281 1.377 . S
C3281 H3265 0.930 . S
C3281 C3280 1.377 . S
C3281 C3282 1.379 . S
C3282 H3266 0.931 . S
C3282 C3276 1.383 . S
C3282 C3281 1.379 . S
H3283 C3277 0.959 . S
H3284 C3277 0.961 . S
H3285 C3277 0.960 . S
H3286 C3278 0.930 . S
H3287 C3279 0.929 . S
H3288 C3296 0.929 . S
H3289 C3298 0.930 . S
H3290 C3300 0.930 . S
H3291 C3303 0.929 . S
H3292 C3306 0.930 . S
H3293 C3308 0.960 . S
H3294 C3308 0.960 . S
H3295 C3308 0.960 . S
C3296 H3288 0.929 . S
C3296 C3297 1.377 . S
C3296 C3298 1.384 . S
C3297 C3296 1.377 . S
C3297 C3303 1.390 . S
C3298 H3289 0.930 . S
C3298 C3296 1.384 . S
C3298 C3299 1.372 . S
C3299 C3298 1.372 . S
C3299 C3300 1.400 . S
C3299 C3304 1.490 . S
C3300 H3290 0.930 . S
C3300 C3299 1.400 . S
C3300 C3303 1.386 . S
H3301 C3317 0.930 . S
H3302 C3318 0.931 . S
C3303 H3291 0.929 . S
C3303 C3297 1.390 . S
C3303 C3300 1.386 . S
C3304 C3299 1.490 . S
C3304 C3306 1.395 . S
C3304 C3307 1.403 . S
H3305 C3311 0.930 . S
C3306 H3292 0.930 . S
C3306 C3304 1.395 . S
C3306 C3309 1.403 . S
C3307 C3304 1.403 . S
C3307 C3308 1.524 . S
C3307 C3311 1.400 . S
C3308 H3293 0.960 . S
C3308 H3294 0.960 . S
C3308 H3295 0.960 . S
C3308 C3307 1.524 . S
C3309 C3306 1.403 . S
C3309 C3310 1.392 . S
C3309 C3313 1.495 . S
C3310 C3309 1.392 . S
C3310 C3311 1.385 . S
C3310 C3312 1.478 . S
C3311 H3305 0.930 . S
C3311 C3307 1.400 . S
C3311 C3310 1.385 . S
C3312 C3310 1.478 . S
C3312 C3314 1.381 . S
C3312 C3318 1.383 . S
C3313 C3309 1.495 . S
C3313 H3319 0.959 . S
C3313 H3320 0.961 . S
C3313 H3321 0.960 . S
C3314 C3312 1.381 . S
C3314 C3315 1.394 . S
C3314 H3322 0.930 . S
C3315 C3314 1.394 . S
C3315 C3316 1.383 . S
C3315 H3323 0.929 . S
C3316 C3315 1.383 . S
C3316 C3317 1.377 . S
C3317 H3301 0.930 . S
C3317 C3316 1.377 . S
C3317 C3318 1.379 . S
C3318 H3302 0.931 . S
C3318 C3312 1.383 . S
C3318 C3317 1.379 . S
H3319 C3313 0.959 . S
H3320 C3313 0.961 . S
H3321 C3313 0.960 . S
H3322 C3314 0.930 . S
H3323 C3315 0.929 . S
H3324 C3332 0.929 . S
H3325 C3334 0.930 . S
H3326 C3336 0.930 . S
H3327 C3339 0.929 . S
H3328 C3342 0.930 . S
H3329 C3344 0.960 . S
H3330 C3344 0.960 . S
H3331 C3344 0.960 . S
C3332 H3324 0.929 . S
C3332 C3333 1.377 . S
C3332 C3334 1.384 . S
C3333 C3332 1.377 . S
C3333 C3339 1.390 . S
C3334 H3325 0.930 . S
C3334 C3332 1.384 . S
C3334 C3335 1.372 . S
C3335 C3334 1.372 . S
C3335 C3336 1.400 . S
C3335 C3340 1.490 . S
C3336 H3326 0.930 . S
C3336 C3335 1.400 . S
C3336 C3339 1.386 . S
H3337 C3353 0.914 1_565 S
H3338 C3354 0.931 . S
C3339 H3327 0.929 . S
C3339 C3333 1.390 . S
C3339 C3336 1.386 . S
C3340 C3335 1.490 . S
C3340 C3342 1.395 . S
C3340 C3343 1.403 . S
H3341 C3347 0.930 . S
C3342 H3328 0.930 . S
C3342 C3340 1.395 . S
C3342 C3345 1.403 . S
C3343 C3340 1.403 . S
C3343 C3344 1.524 . S
C3343 C3347 1.400 . S
C3344 H3329 0.960 . S
C3344 H3330 0.960 . S
C3344 H3331 0.960 . S
C3344 C3343 1.524 . S
C3345 C3342 1.403 . S
C3345 C3346 1.392 . S
C3345 C3349 1.495 . S
C3346 C3345 1.392 . S
C3346 C3347 1.385 . S
C3346 C3348 1.478 . S
C3347 H3341 0.930 . S
C3347 C3343 1.400 . S
C3347 C3346 1.385 . S
C3348 C3346 1.478 . S
C3348 C3350 1.381 . S
C3348 C3354 1.383 . S
C3349 C3345 1.495 . S
C3349 H3355 0.959 . S
C3349 H3356 0.961 . S
C3349 H3357 0.960 . S
C3350 C3348 1.381 . S
C3350 C3351 1.394 . S
C3350 H3358 0.930 . S
C3351 C3350 1.394 . S
C3351 C3352 1.383 . S
C3351 H3359 0.929 . S
C3352 C3351 1.383 . S
C3352 C3353 1.377 . S
C3353 H3337 0.914 1_545 S
C3353 C3352 1.377 . S
C3353 C3354 1.379 . S
C3354 H3338 0.931 . S
C3354 C3348 1.383 . S
C3354 C3353 1.379 . S
H3355 C3349 0.959 . S
H3356 C3349 0.961 . S
H3357 C3349 0.960 . S
H3358 C3350 0.930 . S
H3359 C3351 0.929 . S
C777 N13 0.980 . S
C796 C580 1.038 . S
C813 C637 1.027 . S
C832 N45 1.031 . S
C849 N82 0.988 . S
C868 C541 1.023 1_545 S
C885 N114 0.983 . S
C904 C548 1.037 1_565 S
C921 C708 1.031 . S
C940 N146 0.971 . S
C957 N173 0.989 . S
C976 C676 1.022 1_556 S
C993 C765 1.026 . S
C1012 N205 1.025 . S
C1029 N242 0.998 . S
C1048 C644 1.016 1_554 S
C1065 N269 0.993 . S
C1084 C420 1.027 . S
C1101 N301 0.993 . S
C1120 C509 1.027 1_655 S
C1137 C477 1.030 . S
C1156 N333 0.948 . S
C1173 N370 0.999 . S
C1192 C413 1.017 1_455 S
C1209 N402 0.980 . S
C1228 C196 1.016 . S
C1245 N429 0.998 . S
C1264 C253 1.038 . S
C1281 N466 0.985 . S
C1300 C157 1.028 1_565 S
C1317 C164 1.031 1_545 S
C1336 N498 1.020 . S
C1353 N530 0.999 . S
C1372 C324 1.036 . S
C1389 C292 1.030 1_554 S
C1408 N557 1.029 . S
C1425 C381 1.028 . S
C1444 N589 0.950 . S
C1461 C260 1.031 1_556 S
C1480 N626 1.016 . S
C1497 C36 1.031 . S
C1516 N653 1.029 . S
C1533 C125 1.027 1_455 S
C1552 N685 0.942 . S
C1569 C93 1.027 . S
C1588 N717 0.943 . S
C1605 N754 0.984 . S
C1624 C4 1.026 1_655 S
C1641 C130 1.703 . S
C1660 C29 1.714 . S
C1677 C166 1.697 . S
C1696 C61 1.721 . S
C1713 C198 1.700 . S
C1732 C68 1.728 . S
C1749 C226 1.703 . S
C1768 C100 1.721 . S
C1785 C132 1.720 . S
C1804 C262 1.679 . S
C1821 C189 1.722 . S
C1840 C354 1.683 . S
C1857 C221 1.720 . S
C1876 C294 1.679 . S
C1893 C228 1.719 . S
C1912 C326 1.690 . S
C1929 C285 1.719 . S
C1948 C6 1.696 . S
C1965 C317 1.719 . S
C1984 C66 1.682 . S
C2001 C349 1.719 . S
C2020 C98 1.691 . S
C2037 C38 1.703 . S
C2056 C356 1.716 . S
C2073 C514 1.701 . S
C2092 C388 1.713 . S
C2109 C550 1.702 . S
C2128 C445 1.714 . S
C2145 C452 1.721 . S
C2164 C582 1.685 . S
C2181 C484 1.723 . S
C2200 C610 1.713 . S
C2217 C646 1.698 . S
C2236 C516 1.707 . S
C2253 C573 1.719 . S
C2272 C738 1.684 . S
C2289 C678 1.702 . S
C2308 C605 1.728 . S
C2325 C612 1.723 . S
C2344 C710 1.705 . S
C2361 C386 1.701 . S
C2380 C669 1.728 . S
C2397 C701 1.722 . S
C2416 C450 1.690 . S
C2433 C733 1.719 . S
C2452 C482 1.686 . S
C2469 C422 1.703 . S
C2488 C740 1.720 . S
C2505 N18 1.360 . S
C2524 C290 1.397 1_554 S
C2541 C322 1.388 . S
C2560 N50 1.369 . S
C2577 C258 1.383 1_556 S
C2596 N77 1.334 . S
C2613 C358 1.387 . S
C2632 N109 1.387 . S
C2649 N141 1.359 . S
C2668 C102 1.397 1_455 S
C2685 C70 1.388 . S
C2704 N178 1.382 . S
C2721 N210 1.362 . S
C2740 C34 1.403 . S
C2757 C2 1.378 1_655 S
C2776 N237 1.336 . S
C2793 N274 1.353 . S
C2812 C162 1.363 1_545 S
C2829 N306 1.353 . S
C2848 C230 1.357 . S
C2865 N338 1.362 . S
C2884 C194 1.403 . S
C2901 N365 1.353 . S
C2920 C134 1.351 1_565 S
C2937 N397 1.355 . S
C2956 C674 1.398 1_556 S
C2973 N434 1.363 . S
C2992 C706 1.367 . S
C3009 C642 1.386 1_554 S
C3028 N461 1.337 . S
C3045 C742 1.382 . S
C3064 N493 1.383 . S
C3081 N525 1.357 . S
C3100 C486 1.402 1_655 S
C3117 N562 1.353 . S
C3136 C454 1.364 . S
C3153 C418 1.380 . S
C3172 N594 1.373 . S
C3189 N621 1.362 . S
C3208 C390 1.395 1_455 S
C3225 N658 1.360 . S
C3244 C546 1.358 1_565 S
C3261 C614 1.378 . S
C3280 N690 1.342 . S
C3297 N722 1.356 . S
C3316 C578 1.401 . S
C3333 N749 1.353 . S
C3352 C518 1.366 1_545 S
