# Generated by pormake.
# Topology tfs, (6)-cn, num edge types: 1
# Building blocks:
#     Node 0, Type 0, BuildingBlock: INOVEN_clean_sbu_0, # of connection points: 6
#     Node 1, Type 0, BuildingBlock: INOVEN_clean_sbu_0, # of connection points: 6
#     Node 2, Type 0, BuildingBlock: INOVEN_clean_sbu_0, # of connection points: 6
#     Node 3, Type 0, BuildingBlock: INOVEN_clean_sbu_0, # of connection points: 6
#     Node 4, Type 0, BuildingBlock: INOVEN_clean_sbu_0, # of connection points: 6
#     Node 5, Type 0, BuildingBlock: INOVEN_clean_sbu_0, # of connection points: 6
#     Edge 6, Type (0, 0), BuildingBlock: MIFKUJ_clean_linker_0, # of connection points: 2
#     Edge 7, Type (0, 0), BuildingBlock: MIFKUJ_clean_linker_0, # of connection points: 2
#     Edge 8, Type (0, 0), BuildingBlock: MIFKUJ_clean_linker_0, # of connection points: 2
#     Edge 9, Type (0, 0), BuildingBlock: MIFKUJ_clean_linker_0, # of connection points: 2
#     Edge 10, Type (0, 0), BuildingBlock: MIFKUJ_clean_linker_0, # of connection points: 2
#     Edge 11, Type (0, 0), BuildingBlock: MIFKUJ_clean_linker_0, # of connection points: 2
#     Edge 12, Type (0, 0), BuildingBlock: MIFKUJ_clean_linker_0, # of connection points: 2
#     Edge 13, Type (0, 0), BuildingBlock: MIFKUJ_clean_linker_0, # of connection points: 2
#     Edge 14, Type (0, 0), BuildingBlock: MIFKUJ_clean_linker_0, # of connection points: 2
#     Edge 15, Type (0, 0), BuildingBlock: MIFKUJ_clean_linker_0, # of connection points: 2
#     Edge 16, Type (0, 0), BuildingBlock: MIFKUJ_clean_linker_0, # of connection points: 2
#     Edge 17, Type (0, 0), BuildingBlock: MIFKUJ_clean_linker_0, # of connection points: 2
#     Edge 18, Type (0, 0), BuildingBlock: MIFKUJ_clean_linker_0, # of connection points: 2
#     Edge 19, Type (0, 0), BuildingBlock: MIFKUJ_clean_linker_0, # of connection points: 2
#     Edge 20, Type (0, 0), BuildingBlock: MIFKUJ_clean_linker_0, # of connection points: 2
#     Edge 21, Type (0, 0), BuildingBlock: MIFKUJ_clean_linker_0, # of connection points: 2
#     Edge 22, Type (0, 0), BuildingBlock: MIFKUJ_clean_linker_0, # of connection points: 2
#     Edge 23, Type (0, 0), BuildingBlock: MIFKUJ_clean_linker_0, # of connection points: 2
# Relax obj value: 0.473
# Max RMSD: 0.398
# Mean RMSD: 0.347
data_MOF--net-tfs--node1-INOVEN_clean_sbu_0--edge1-MIFKUJ_clean_linker_0
_symmetry_space_group_name_H-M    P1
_symmetry_Int_Tables_number       1
_symmetry_cell_setting            triclinic
loop_
_symmetry_equiv_pos_as_xyz
'x, y, z'
_cell_length_a     63.064769
_cell_length_b     62.634848
_cell_length_c     16.020966
_cell_angle_alpha  92.718136
_cell_angle_beta   100.7404
_cell_angle_gamma 120.11326
loop_
_atom_site_label
_atom_site_type_symbol
_atom_site_fract_x
_atom_site_fract_y
_atom_site_fract_z
_atom_type_partial_charge
Gd0 Gd 0.18761 0.39706 0.1921 0.0
Gd1 Gd 0.16108 0.41757 0.06521 0.0
C2 C 0.13146 0.38412 0.19124 0.0
C3 C 0.20596 0.38327 0.3223 0.0
C4 C 0.21983 0.37044 0.34343 0.0
C5 C 0.22839 0.36249 0.28092 0.0
C6 C 0.22425 0.36578 0.42758 0.0
C7 C 0.24573 0.34516 0.38722 0.0
C8 C 0.23707 0.35325 0.44938 0.0
C9 C 0.24129 0.34997 0.30271 0.0
C10 C 0.1657 0.37082 0.02961 0.0
C11 C 0.21761 0.42991 0.06389 0.0
C12 C 0.14227 0.432 0.93866 0.0
C13 C 0.14005 0.45418 0.93149 0.0
C14 C 0.13433 0.46428 -0.00204 0.0
C15 C 0.14552 0.46651 0.86061 0.0
C16 C 0.14012 0.49911 0.92359 0.0
C17 C 0.14561 0.48883 0.85671 0.0
C18 C 0.13425 0.48645 -0.00618 0.0
C19 C 0.18346 0.44492 0.22624 0.0
O20 O 0.15397 0.39112 0.23981 0.0
O21 O 0.12858 0.38829 0.11096 0.0
O22 O 0.21843 0.40532 0.30019 0.0
O23 O 0.18286 0.36944 0.27472 0.0
O24 O 0.18558 0.37254 0.07852 0.0
O25 O 0.15756 0.3811 0.07256 0.0
O26 O 0.19552 0.42525 0.01822 0.0
O27 O 0.22025 0.42347 0.14088 0.0
O28 O 0.1286 0.41611 0.98432 0.0
O29 O 0.16531 0.43639 0.9539 0.0
O30 O 0.16449 0.44413 0.17512 0.0
O31 O 0.19097 0.43363 0.18479 0.0
H32 H 0.22501 0.36589 0.21546 0.0
H33 H 0.21777 0.37186 0.47657 0.0
H34 H 0.24052 0.35022 0.51528 0.0
H35 H 0.24753 0.34379 0.25322 0.0
H36 H 0.13046 0.45535 0.05407 0.0
H37 H 0.15019 0.45912 0.80905 0.0
H38 H 0.15006 0.49809 0.80157 0.0
H39 H 0.13036 0.4941 0.04703 0.0
Gd40 Gd 0.7822 0.19466 0.84883 0.0
Gd41 Gd 0.83453 0.2191 0.79674 0.0
C42 C 0.8171 0.25547 0.8667 0.0
C43 C 0.74501 0.17871 0.92251 0.0
C44 C 0.72123 0.17847 0.90956 0.0
C45 C 0.70054 0.15893 0.93256 0.0
C46 C 0.71881 0.19727 0.87312 0.0
C47 C 0.6755 0.17796 0.889 0.0
C48 C 0.69621 0.19705 0.86305 0.0
C49 C 0.67784 0.15855 0.92182 0.0
C50 C 0.78036 0.20072 0.68335 0.0
C51 C 0.79769 0.15931 0.76572 0.0
C52 C 0.87314 0.23695 0.73141 0.0
C53 C 0.8886 0.23697 0.67336 0.0
C54 C 0.91439 0.24721 0.70936 0.0
C55 C 0.8793 0.23031 0.58357 0.0
C56 C 0.9222 0.24671 0.56662 0.0
C57 C 0.89602 0.23508 0.53047 0.0
C58 C 0.93102 0.2521 0.65679 0.0
C59 C 0.83688 0.21971 0.96671 0.0
O60 O 0.79822 0.23602 0.8885 0.0
O61 O 0.83193 0.25316 0.82287 0.0
O62 O 0.74611 0.16467 0.86251 0.0
O63 O 0.76584 0.2006 0.94821 0.0
O64 O 0.7606 0.18492 0.70818 0.0
O65 O 0.79768 0.21456 0.74746 0.0
O66 O 0.81401 0.17864 0.73555 0.0
O67 O 0.78771 0.16227 0.82773 0.0
O68 O 0.87108 0.22426 0.79532 0.0
O69 O 0.85349 0.23897 0.70157 0.0
O70 O 0.85504 0.23533 0.93471 0.0
O71 O 0.82012 0.20217 0.90697 0.0
H72 H 0.70195 0.14398 0.95918 0.0
H73 H 0.73456 0.21241 0.85403 0.0
H74 H 0.69555 0.21252 0.83827 0.0
H75 H 0.66221 0.14296 0.93953 0.0
H76 H 0.92195 0.25273 0.7785 0.0
H77 H 0.85942 0.2225 0.55448 0.0
H78 H 0.88858 0.2305 0.46127 0.0
H79 H 0.951 0.26147 0.68721 0.0
Gd80 Gd 0.55478 0.74807 0.17166 0.0
Gd81 Gd 0.59287 0.80102 0.14301 0.0
C82 C 0.5343 0.78218 0.08102 0.0
C83 C 0.51886 0.70918 0.21302 0.0
C84 C 0.49316 0.68817 0.17369 0.0
C85 C 0.48488 0.67955 0.08449 0.0
C86 C 0.47724 0.67553 0.22721 0.0
C87 C 0.44576 0.64441 0.10403 0.0
C88 C 0.45374 0.65388 0.19278 0.0
C89 C 0.46131 0.65781 0.04986 0.0
C90 C 0.57351 0.74993 0.03214 0.0
C91 C 0.61133 0.76685 0.24401 0.0
C92 C 0.6302 0.84145 0.11422 0.0
C93 C 0.64102 0.86832 0.14182 0.0
C94 C 0.62708 0.87692 0.17502 0.0
C95 C 0.66673 0.88495 0.14784 0.0
C96 C 0.66513 0.91811 0.2269 0.0
C97 C 0.6787 0.90963 0.18986 0.0
C98 C 0.63901 0.90164 0.21686 0.0
C99 C 0.57469 0.80022 0.28181 0.0
O100 O 0.52925 0.76148 0.11271 0.0
O101 O 0.55743 0.79973 0.07897 0.0
O102 O 0.53703 0.70911 0.18499 0.0
O103 O 0.52184 0.73144 0.2253 0.0
O104 O 0.56659 0.73126 0.07382 0.0
O105 O 0.56773 0.76481 0.06028 0.0
O106 O 0.61529 0.78248 0.18796 0.0
O107 O 0.58942 0.75502 0.26456 0.0
O108 O 0.60789 0.82893 0.06019 0.0
O109 O 0.63247 0.82963 0.17703 0.0
O110 O 0.58158 0.81832 0.23755 0.0
O111 O 0.58015 0.78484 0.25473 0.0
H112 H 0.49693 0.68918 0.04212 0.0
H113 H 0.48328 0.68204 0.29612 0.0
H114 H 0.44198 0.64429 0.23596 0.0
H115 H 0.45573 0.65096 0.98133 0.0
H116 H 0.60724 0.86425 0.17179 0.0
H117 H 0.67786 0.8785 0.12382 0.0
H118 H 0.69886 0.92164 0.19719 0.0
H119 H 0.6279 0.90764 0.24336 0.0
Gd120 Gd 0.84257 0.59737 0.92645 0.0
Gd121 Gd 0.82487 0.63289 0.85611 0.0
C122 C 0.79395 0.59485 0.97231 0.0
C123 C 0.85815 0.57241 0.0163 0.0
C124 C 0.85425 0.54709 0.00665 0.0
C125 C 0.8564 0.53654 0.93169 0.0
C126 C 0.84806 0.53314 0.07359 0.0
C127 C 0.84699 0.49869 -0.00786 0.0
C128 C 0.84436 0.50911 0.06632 0.0
C129 C 0.85292 0.5126 0.92472 0.0
C130 C 0.80871 0.57739 0.7715 0.0
C131 C 0.8684 0.63054 0.78997 0.0
C132 C 0.81028 0.66011 0.77766 0.0
C133 C 0.80008 0.66606 0.698 0.0
C134 C 0.80942 0.69133 0.69225 0.0
C135 C 0.77925 0.6476 0.63421 0.0
C136 C 0.77529 0.67991 0.56617 0.0
C137 C 0.76704 0.65449 0.56841 0.0
C138 C 0.79716 0.69821 0.62737 0.0
C139 C 0.85729 0.65059 0.01545 0.0
O140 O 0.81493 0.59486 0.00322 0.0
O141 O 0.79197 0.60611 0.90611 0.0
O142 O 0.87088 0.58754 0.9669 0.0
O143 O 0.83863 0.57378 0.02456 0.0
O144 O 0.82459 0.57052 0.8 0.0
O145 O 0.81006 0.59234 0.83017 0.0
O146 O 0.84774 0.63149 0.76694 0.0
O147 O 0.8731 0.62197 0.8609 0.0
O148 O 0.83365 0.66537 0.79338 0.0
O149 O 0.7951 0.63987 0.80526 0.0
O150 O 0.8399 0.65568 0.98974 0.0
O151 O 0.85751 0.63775 0.95339 0.0
H152 H 0.86082 0.54676 0.87854 0.0
H153 H 0.84621 0.54091 0.13181 0.0
H154 H 0.83995 0.49889 0.11946 0.0
H155 H 0.8547 0.50488 0.86628 0.0
H156 H 0.82536 0.70585 0.74125 0.0
H157 H 0.77171 0.62794 0.63735 0.0
H158 H 0.75057 0.63989 0.52142 0.0
H159 H 0.80395 0.71794 0.62903 0.0
Gd160 Gd 0.16941 0.78041 0.19725 0.0
Gd161 Gd 0.22394 0.80149 0.16358 0.0
C162 C 0.2104 0.83706 0.27158 0.0
C163 C 0.12673 0.75088 0.23193 0.0
C164 C 0.10236 0.74086 0.25516 0.0
C165 C 0.09521 0.7215 0.30412 0.0
C166 C 0.08583 0.74936 0.22753 0.0
C167 C 0.05538 0.7193 0.29927 0.0
C168 C 0.06258 0.73882 0.2503 0.0
C169 C 0.07195 0.71077 0.32574 0.0
C170 C 0.18002 0.80828 0.0732 0.0
C171 C 0.18327 0.74532 0.08441 0.0
C172 C 0.26793 0.82777 0.13233 0.0
C173 C 0.28928 0.82481 0.12653 0.0
C174 C 0.30872 0.84256 0.09307 0.0
C175 C 0.29045 0.80441 0.15394 0.0
C176 C 0.32998 0.819 0.1107 0.0
C177 C 0.31067 0.80157 0.14636 0.0
C178 C 0.32885 0.83966 0.08485 0.0
C179 C 0.2125 0.77277 0.28558 0.0
O180 O 0.18999 0.81745 0.28528 0.0
O181 O 0.22309 0.83503 0.21744 0.0
O182 O 0.12872 0.75718 0.15573 0.0
O183 O 0.14805 0.76231 0.29117 0.0
O184 O 0.1634 0.8061 0.11509 0.0
O185 O 0.18697 0.79306 0.09091 0.0
O186 O 0.20454 0.76486 0.07616 0.0
O187 O 0.16922 0.74718 0.13316 0.0
O188 O 0.26384 0.8284 0.20935 0.0
O189 O 0.24711 0.81428 0.07131 0.0
O190 O 0.22956 0.77535 0.24573 0.0
O191 O 0.20617 0.78841 0.26881 0.0
H192 H 0.10769 0.71465 0.32579 0.0
H193 H 0.09099 0.76423 0.1893 0.0
H194 H 0.05016 0.74574 0.22905 0.0
H195 H 0.06714 0.69608 0.36469 0.0
H196 H 0.30807 0.85843 0.07168 0.0
H197 H 0.27563 0.7906 0.18041 0.0
H198 H 0.31114 0.78568 0.16817 0.0
H199 H 0.34317 0.85326 0.05615 0.0
Gd200 Gd 0.41837 0.21062 0.77747 0.0
Gd201 Gd 0.45943 0.26251 0.74913 0.0
C202 C 0.40117 0.24415 0.68248 0.0
C203 C 0.38764 0.16931 0.82492 0.0
C204 C 0.37353 0.14263 0.78668 0.0
C205 C 0.38223 0.13356 0.72778 0.0
C206 C 0.35059 0.12619 0.80658 0.0
C207 C 0.34501 0.09173 0.70867 0.0
C208 C 0.33644 0.10099 0.76793 0.0
C209 C 0.36819 0.10835 0.68951 0.0
C210 C 0.42993 0.21023 0.62388 0.0
C211 C 0.478 0.22887 0.84098 0.0
C212 C 0.48947 0.30353 0.69958 0.0
C213 C 0.51434 0.32599 0.7377 0.0
C214 C 0.52695 0.32916 0.82349 0.0
C215 C 0.52523 0.34488 0.68879 0.0
C216 C 0.56091 0.37045 0.81189 0.0
C217 C 0.54832 0.36689 0.7254 0.0
C218 C 0.55004 0.3512 0.86031 0.0
C219 C 0.45009 0.26054 0.90795 0.0
O220 O 0.3966 0.22962 0.74206 0.0
O221 O 0.42304 0.25434 0.66102 0.0
O222 O 0.41223 0.18021 0.84869 0.0
O223 O 0.38038 0.18314 0.78533 0.0
O224 O 0.408 0.19507 0.63708 0.0
O225 O 0.4449 0.22339 0.69373 0.0
O226 O 0.48388 0.24717 0.79502 0.0
O227 O 0.45496 0.21504 0.85342 0.0
O228 O 0.47118 0.30071 0.73423 0.0
O229 O 0.48911 0.28265 0.68325 0.0
O230 O 0.47194 0.27558 0.89324 0.0
O231 O 0.43428 0.24941 0.83705 0.0
H232 H 0.39984 0.146 0.71106 0.0
H233 H 0.34346 0.13292 0.85127 0.0
H234 H 0.31852 0.08891 0.78325 0.0
H235 H 0.37561 0.10188 0.64524 0.0
H236 H 0.51875 0.31473 0.86226 0.0
H237 H 0.51577 0.3427 0.62239 0.0
H238 H 0.55633 0.3811 0.68576 0.0
H239 H 0.55908 0.35338 0.92722 0.0
H240 H 0.35519 0.22971 0.7168 0.0
H241 H 0.32648 0.24409 0.66111 0.0
H242 H 0.3763 0.28815 0.50518 0.0
H243 H 0.40511 0.27411 0.56072 0.0
H244 H 0.36355 0.3153 0.59694 0.0
H245 H 0.32026 0.23481 0.41479 0.0
H246 H 0.29968 0.18889 0.38412 0.0
H247 H 0.24487 0.18071 0.52386 0.0
H248 H 0.26535 0.22661 0.55641 0.0
H249 H 0.28803 0.35209 0.34025 0.0
H250 H 0.31206 0.33208 0.38549 0.0
H251 H 0.25951 0.28936 0.53559 0.0
H252 H 0.23495 0.30879 0.48863 0.0
H253 H 0.27262 0.26083 0.45076 0.0
H254 H 0.31505 0.34025 0.63381 0.0
H255 H 0.33542 0.38605 0.66896 0.0
H256 H 0.39172 0.39612 0.53384 0.0
H257 H 0.37146 0.35033 0.49677 0.0
C258 C 0.3599 0.24224 0.66994 0.0
C259 C 0.38251 0.25083 0.64352 0.0
C260 C 0.34343 0.25039 0.63801 0.0
C261 C 0.34924 0.26716 0.57886 0.0
C262 C 0.37149 0.27527 0.55098 0.0
C263 C 0.38791 0.26715 0.5827 0.0
C264 C 0.3329 0.27734 0.54905 0.0
C265 C 0.34375 0.30339 0.56387 0.0
C266 C 0.30687 0.26176 0.50855 0.0
C267 C 0.2945 0.23416 0.48878 0.0
C268 C 0.30395 0.22322 0.4396 0.0
C269 C 0.29228 0.1972 0.42175 0.0
C270 C 0.27103 0.18189 0.45222 0.0
C271 C 0.26136 0.19259 0.50041 0.0
C272 C 0.27297 0.21861 0.51851 0.0
C273 C 0.28137 0.33817 0.38187 0.0
C274 C 0.25967 0.33215 0.41127 0.0
C275 C 0.29524 0.3269 0.40825 0.0
C276 C 0.28776 0.30948 0.46485 0.0
C277 C 0.26568 0.30283 0.4922 0.0
C278 C 0.2518 0.31412 0.46591 0.0
C279 C 0.30342 0.29879 0.4974 0.0
C280 C 0.29243 0.2727 0.48365 0.0
C281 C 0.32932 0.3143 0.53952 0.0
C282 C 0.34158 0.34185 0.56177 0.0
C283 C 0.33165 0.35222 0.61096 0.0
C284 C 0.3432 0.37819 0.63135 0.0
C285 C 0.36481 0.39399 0.60346 0.0
C286 C 0.37495 0.38386 0.55529 0.0
C287 C 0.36346 0.3579 0.53463 0.0
H288 H 0.37372 0.41409 0.61933 0.0
H289 H 0.26202 0.16175 0.43833 0.0
H290 H 0.08289 0.37233 0.12416 0.0
H291 H 0.04593 0.34768 0.18216 0.0
H292 H 0.09278 0.33962 0.39589 0.0
H293 H 0.12976 0.3645 0.33978 0.0
H294 H 0.04822 0.2943 0.3117 0.0
H295 H 0.07523 0.37818 0.42939 0.0
H296 H 0.08696 0.42192 0.42523 0.0
H297 H 0.01281 0.3971 0.27066 0.0
H298 H 1.00073 0.35312 0.27291 0.0
H299 H 0.96647 0.24684 0.59076 0.0
H300 H 1.0005 0.26884 0.5193 0.0
H301 H 0.95396 0.28795 0.34503 0.0
H302 H 0.92047 0.26761 0.42084 0.0
H303 H 0.99783 0.3274 0.40305 0.0
H304 H 0.97026 0.24362 0.283 0.0
H305 H 0.95834 0.19965 0.28387 0.0
H306 H 0.03261 0.22363 0.43531 0.0
H307 H 0.0449 0.26775 0.43625 0.0
C308 C 0.08532 0.36544 0.18378 0.0
C309 C 0.10921 0.37032 0.22721 0.0
C310 C 0.06424 0.35142 0.21681 0.0
C311 C 0.06672 0.3419 0.29324 0.0
C312 C 0.09053 0.34683 0.33685 0.0
C313 C 0.11163 0.36112 0.30467 0.0
C314 C 0.0444 0.32642 0.3272 0.0
C315 C 0.03725 0.30152 0.33242 0.0
C316 C 0.0299 0.33582 0.35202 0.0
C317 C 0.03714 0.3623 0.35071 0.0
C318 C 0.06146 0.382 0.39399 0.0
C319 C 0.06818 0.40686 0.39206 0.0
C320 C 0.05066 0.4123 0.34755 0.0
C321 C 0.02637 0.39287 0.30503 0.0
C322 C 0.01958 0.36796 0.30668 0.0
C323 C 0.96338 0.25563 0.53702 0.0
C324 C 0.94076 0.25562 0.51218 0.0
C325 C 0.9828 0.26796 0.49538 0.0
C326 C 0.97979 0.27993 0.42615 0.0
C327 C 0.95675 0.27888 0.39833 0.0
C328 C 0.93745 0.26691 0.44103 0.0
C329 C 1.00129 0.29497 0.38703 0.0
C330 C 0.00848 0.31994 0.38137 0.0
C331 C 0.01572 0.28555 0.36103 0.0
C332 C 0.00841 0.25901 0.36039 0.0
C333 C 0.98399 0.23953 0.31705 0.0
C334 C 0.97718 0.21457 0.31711 0.0
C335 C 0.99468 0.20885 0.35981 0.0
C336 C 0.01906 0.22809 0.40236 0.0
C337 C 0.02597 0.25307 0.40254 0.0
H338 H 0.98937 0.18952 0.35978 0.0
H339 H 0.05588 0.43156 0.34612 0.0
H340 H 0.76131 0.11469 0.79914 0.0
H341 H 0.74084 0.07339 0.71124 0.0
H342 H 0.79097 0.1045 0.54251 0.0
H343 H 0.81141 0.14589 0.62939 0.0
H344 H 0.74239 0.07738 0.45324 0.0
H345 H 0.79616 0.06573 0.67634 0.0
H346 H 0.81492 0.06568 0.82577 0.0
H347 H 0.74146 0.01164 0.85657 0.0
H348 H 0.72221 0.01161 0.70762 0.0
H349 H 0.70386 0.96221 0.1988 0.0
H350 H 0.72789 1.00273 0.29376 0.0
H351 H 0.68063 0.97198 0.47138 0.0
H352 H 0.65728 0.93114 0.37882 0.0
H353 H 0.72853 0.99901 0.55651 0.0
H354 H 0.67443 0.01126 0.33727 0.0
H355 H 0.65489 0.01141 0.18906 0.0
H356 H 0.72794 0.06445 0.15248 0.0
H357 H 0.74796 0.06437 0.30018 0.0
C358 C 0.76833 0.11271 0.74432 0.0
C359 C 0.78798 0.13369 0.72131 0.0
C360 C 0.7566 0.08903 0.69411 0.0
C361 C 0.76437 0.08583 0.62023 0.0
C362 C 0.7846 0.10655 0.59905 0.0
C363 C 0.79636 0.1302 0.64918 0.0
C364 C 0.75033 0.06131 0.56189 0.0
C365 C 0.73972 0.0603 0.47549 0.0
C366 C 0.74618 0.03891 0.5915 0.0
C367 C 0.75772 0.03885 0.68105 0.0
C368 C 0.78398 0.05399 0.71519 0.0
C369 C 0.79471 0.05394 0.79977 0.0
C370 C 0.77938 0.03871 0.8507 0.0
C371 C 0.7533 0.02345 0.81708 0.0
C372 C 0.74248 0.02343 0.73255 0.0
C373 C 0.6986 0.96402 0.25816 0.0
C374 C 0.67855 0.94337 0.28087 0.0
C375 C 0.71223 0.98729 0.31209 0.0
C376 C 0.70593 0.9905 0.38945 0.0
C377 C 0.68582 0.96999 0.41198 0.0
C378 C 0.67227 0.9467 0.35834 0.0
C379 C 0.72061 0.01509 0.44778 0.0
C380 C 0.73129 0.01611 0.53417 0.0
C381 C 0.72471 0.0375 0.41832 0.0
C382 C 0.71272 0.0376 0.32949 0.0
C383 C 0.68635 0.0228 0.29739 0.0
C384 C 0.67518 0.0229 0.21352 0.0
C385 C 0.69017 0.03788 0.1613 0.0
C386 C 0.71635 0.05283 0.19295 0.0
C387 C 0.72762 0.05278 0.27676 0.0
H388 H 0.68148 0.03794 0.09639 0.0
H389 H 0.78773 0.0387 0.91617 0.0
H390 H 0.7236 0.65598 0.51615 0.0
H391 H 0.69841 0.67213 0.44336 0.0
H392 H 0.76611 0.73798 0.41744 0.0
H393 H 0.79155 0.72144 0.48629 0.0
H394 H 0.73447 0.74699 0.50516 0.0
H395 H 0.72948 0.70246 0.24428 0.0
H396 H 0.72168 0.66591 0.14893 0.0
H397 H 0.64409 0.62571 0.163 0.0
H398 H 0.65153 0.66189 0.25973 0.0
H399 H 0.65973 0.78935 0.22428 0.0
H400 H 0.69046 0.77654 0.26837 0.0
H401 H 0.63759 0.71731 0.38059 0.0
H402 H 0.60668 0.72986 0.33689 0.0
H403 H 0.66489 0.70811 0.23955 0.0
H404 H 0.69182 0.74747 0.57893 0.0
H405 H 0.70027 0.78332 0.68063 0.0
H406 H 0.73486 0.83323 0.50761 0.0
H407 H 0.72658 0.79762 0.40517 0.0
C408 C 0.73318 0.67346 0.49234 0.0
C409 C 0.75973 0.68749 0.50811 0.0
C410 C 0.7187 0.68276 0.4513 0.0
C411 C 0.73046 0.70632 0.42586 0.0
C412 C 0.75675 0.71983 0.43737 0.0
C413 C 0.77124 0.71037 0.4771 0.0
C414 C 0.71544 0.71767 0.39434 0.0
C415 C 0.71957 0.73873 0.44621 0.0
C416 C 0.69573 0.70663 0.31832 0.0
C417 C 0.69113 0.68483 0.25994 0.0
C418 C 0.71081 0.68575 0.22773 0.0
C419 C 0.70644 0.66511 0.17329 0.0
C420 C 0.68241 0.64348 0.15006 0.0
C421 C 0.66269 0.64247 0.18111 0.0
C422 C 0.66697 0.66305 0.2357 0.0
C423 C 0.65471 0.77375 0.2591 0.0
C424 C 0.63076 0.76065 0.27718 0.0
C425 C 0.67231 0.76652 0.28434 0.0
C426 C 0.66625 0.74611 0.32798 0.0
C427 C 0.64255 0.73318 0.34713 0.0
C428 C 0.62497 0.74043 0.32227 0.0
C429 C 0.68411 0.7374 0.35015 0.0
C430 C 0.68019 0.7166 0.29737 0.0
C431 C 0.70409 0.74867 0.42495 0.0
C432 C 0.7084 0.76997 0.48443 0.0
C433 C 0.70117 0.76611 0.56273 0.0
C434 C 0.70599 0.78637 0.62053 0.0
C435 C 0.71817 0.81055 0.60072 0.0
C436 C 0.72547 0.8145 0.52293 0.0
C437 C 0.72061 0.79429 0.46483 0.0
H438 H 0.72183 0.8262 0.6454 0.0
H439 H 0.67906 0.62752 0.10787 0.0
H440 H 0.02084 0.66978 0.29023 0.0
H441 H 0.98391 0.65155 0.35138 0.0
H442 H 0.99869 0.72548 0.43197 0.0
H443 H 0.03541 0.74371 0.36946 0.0
H444 H 0.98331 0.65508 0.50715 0.0
H445 H 0.9469 0.72475 0.4539 0.0
H446 H 0.93614 0.74412 0.33561 0.0
H447 H 0.92949 0.68806 0.14977 0.0
H448 H 0.94002 0.66826 0.26678 0.0
H449 H 0.91831 0.64414 0.82814 0.0
H450 H 0.94702 0.65833 0.73262 0.0
H451 H 0.88611 0.64769 0.52527 0.0
H452 H 0.85887 0.63733 0.62373 0.0
H453 H 0.92069 0.68119 0.49501 0.0
H454 H 0.91359 0.60479 0.56064 0.0
H455 H 0.91507 0.57424 0.65 0.0
H456 H 0.99403 0.62554 0.76114 0.0
H457 H 0.9931 0.65651 0.67346 0.0
C458 C 0.01597 0.6821 0.31996 0.0
C459 C 0.03111 0.70818 0.32572 0.0
C460 C 0.99484 0.67166 0.35483 0.0
C461 C 0.98844 0.68707 0.39662 0.0
C462 C 0.00291 0.71309 0.39897 0.0
C463 C 0.02396 0.72354 0.36341 0.0
C464 C 0.9685 0.67632 0.44564 0.0
C465 C 0.9694 0.66057 0.5039 0.0
C466 C 0.94973 0.68262 0.43955 0.0
C467 C 0.94464 0.69526 0.36926 0.0
C468 C 0.94326 0.71663 0.38781 0.0
C469 C 0.93717 0.72766 0.32096 0.0
C470 C 0.93226 0.7174 0.23525 0.0
C471 C 0.9335 0.69611 0.21619 0.0
C472 C 0.93963 0.68504 0.28277 0.0
C473 C 0.91121 0.64503 0.76233 0.0
C474 C 0.88617 0.63907 0.73318 0.0
C475 C 0.92752 0.65276 0.70689 0.0
C476 C 0.91872 0.65319 0.61968 0.0
C477 C 0.89374 0.64763 0.59156 0.0
C478 C 0.878 0.64149 0.64824 0.0
C479 C 0.93549 0.65999 0.55818 0.0
C480 C 0.93418 0.6752 0.49779 0.0
C481 C 0.95267 0.65165 0.55799 0.0
C482 C 0.95322 0.63305 0.61097 0.0
C483 C 0.93124 0.6096 0.60451 0.0
C484 C 0.93197 0.59222 0.65476 0.0
C485 C 0.95456 0.59797 0.71121 0.0
C486 C 0.97653 0.62112 0.71744 0.0
C487 C 0.97593 0.63858 0.66743 0.0
H488 H 0.95504 0.58447 0.75 0.0
H489 H 0.92741 0.72588 0.1836 0.0
H490 H 0.23671 0.88088 0.21463 0.0
H491 H 0.25709 0.92323 0.29337 0.0
H492 H 0.22707 0.89363 0.51003 0.0
H493 H 0.20625 0.85101 0.4305 0.0
H494 H 0.22621 0.93588 0.48658 0.0
H495 H 0.28732 0.91152 0.51063 0.0
H496 H 0.31109 0.8945 0.45817 0.0
H497 H 0.34086 0.95373 0.30991 0.0
H498 H 0.31694 0.9709 0.36044 0.0
H499 H 0.31713 0.05017 0.77915 0.0
H500 H 0.29193 0.00641 0.70862 0.0
H501 H 0.31347 0.02866 0.47271 0.0
H502 H 0.33811 0.07248 0.54166 0.0
H503 H 0.31866 0.98903 0.51635 0.0
H504 H 0.25573 0.01226 0.49146 0.0
H505 H 0.23184 0.0287 0.54667 0.0
H506 H 0.20618 0.97113 0.70335 0.0
H507 H 0.23022 0.95455 0.64993 0.0
C508 C 0.23421 0.88333 0.27876 0.0
C509 C 0.21994 0.86252 0.31657 0.0
C510 C 0.24594 0.90759 0.32381 0.0
C511 C 0.24409 0.91162 0.40837 0.0
C512 C 0.22885 0.89096 0.44496 0.0
C513 C 0.21686 0.86659 0.39935 0.0
C514 C 0.25903 0.93734 0.45909 0.0
C515 C 0.24648 0.94738 0.49428 0.0
C516 C 0.28547 0.95246 0.46853 0.0
C517 C 0.30016 0.94238 0.4388 0.0
C518 C 0.2988 0.92083 0.46641 0.0
C519 C 0.31232 0.91116 0.43705 0.0
C520 C 0.32743 0.923 0.3806 0.0
C521 C 0.32912 0.94457 0.35359 0.0
C522 C 0.31561 0.95429 0.38263 0.0
C523 C 0.31627 0.04584 0.71193 0.0
C524 C 0.32973 0.06497 0.66625 0.0
C525 C 0.30191 0.02078 0.67183 0.0
C526 C 0.30073 0.01429 0.5853 0.0
C527 C 0.31421 0.03325 0.53966 0.0
C528 C 0.32842 0.05831 0.57944 0.0
C529 C 0.28579 0.98772 0.54239 0.0
C530 C 0.29841 0.9775 0.50899 0.0
C531 C 0.25951 0.97242 0.53546 0.0
C532 C 0.245 0.98233 0.56743 0.0
C533 C 0.24517 0.00324 0.53826 0.0
C534 C 0.23157 0.01256 0.56911 0.0
C535 C 0.21756 1.00101 0.62867 0.0
C536 C 0.21707 0.98008 0.65732 0.0
C537 C 0.23067 0.9707 0.62674 0.0
H538 H 0.20703 0.00825 0.65247 0.0
H539 H 0.33787 0.91547 0.3579 0.0
H540 H 0.13757 0.70204 0.06234 0.0
H541 H 0.12719 0.65946 0.01587 0.0
H542 H 0.20154 0.68838 0.97202 0.0
H543 H 0.21229 0.73095 0.02113 0.0
H544 H 0.16134 0.64662 0.8439 0.0
H545 H 0.19424 0.67126 0.15199 0.0
H546 H 0.19551 0.68816 0.29622 0.0
H547 H 0.11948 0.62807 0.27521 0.0
H548 H 0.11759 0.6111 0.12996 0.0
H549 H 0.17637 0.54179 0.88052 0.0
H550 H 0.1803 0.58276 0.88961 0.0
H551 H 0.11109 0.55252 0.97405 0.0
H552 H 0.10712 0.51154 0.9654 0.0
H553 H 0.14668 0.59467 0.07565 0.0
H554 H 0.11421 0.56817 0.77141 0.0
H555 H 0.112 0.55183 0.62498 0.0
H556 H 0.18577 0.61475 0.63595 0.0
H557 H 0.18859 0.63129 0.78304 0.0
C558 C 0.15161 0.69941 0.04159 0.0
C559 C 0.17579 0.71996 0.04481 0.0
C560 C 0.1456 0.67506 0.01483 0.0
C561 C 0.16364 0.67082 -0.00918 0.0
C562 C 0.18729 0.69131 0.98956 0.0
C563 C 0.19338 0.71565 0.01705 0.0
C564 C 0.15875 0.64508 0.97572 0.0
C565 C 0.15833 0.63526 0.89452 0.0
C566 C 0.15437 0.63022 0.04159 0.0
C567 C 0.15568 0.64006 0.12973 0.0
C568 C 0.17773 0.66175 0.17785 0.0
C569 C 0.17857 0.67134 0.25979 0.0
C570 C 0.15757 0.65924 0.29476 0.0
C571 C 0.13572 0.63746 0.24796 0.0
C572 C 0.13475 0.62784 0.16582 0.0
C573 C 0.16175 0.54377 0.89948 0.0
C574 C 0.14144 0.52344 0.92233 0.0
C575 C 0.16402 0.5672 0.90467 0.0
C576 C 0.14589 0.57069 0.93192 0.0
C577 C 0.12533 0.55029 0.95307 0.0
C578 C 0.12312 0.5269 0.94826 0.0
C579 C 0.14914 0.59593 0.94332 0.0
C580 C 0.14943 0.6058 0.02436 0.0
C581 C 0.15331 0.61074 0.8771 0.0
C582 C 0.1517 0.60084 0.78864 0.0
C583 C 0.13005 0.57841 0.74292 0.0
C584 C 0.12868 0.56914 0.65973 0.0
C585 C 0.14876 0.58221 0.62127 0.0
C586 C 0.17024 0.60462 0.66587 0.0
C587 C 0.17173 0.61397 0.74913 0.0
H588 H 0.14765 0.575 0.55684 0.0
H589 H 0.15825 0.6667 0.35819 0.0
H590 H 0.46965 0.18431 0.88785 0.0
H591 H 0.49953 0.16978 0.90798 0.0
H592 H 0.55834 0.24168 0.87373 0.0
H593 H 0.52857 0.2562 0.8511 0.0
H594 H 0.53683 0.18474 0.7567 0.0
H595 H 0.60019 0.23836 0.09224 0.0
H596 H 0.59766 0.24787 0.24018 0.0
H597 H 0.52368 0.18196 0.19225 0.0
H598 H 0.52601 0.17188 0.04483 0.0
H599 H 0.655 0.1986 0.77587 0.0
H600 H 0.61927 0.20323 0.77919 0.0
H601 H 0.60494 0.16169 0.99019 0.0
H602 H 0.64265 0.1599 -0.00481 0.0
H603 H 0.59793 0.19564 0.02399 0.0
H604 H 0.56743 0.13771 0.76474 0.0
H605 H 0.56755 0.12095 0.6225 0.0
H606 H 0.56884 0.18351 0.51934 0.0
H607 H 0.56908 0.20084 0.66121 0.0
C608 C 0.48908 0.19723 0.88656 0.0
C609 C 0.49677 0.22145 0.86809 0.0
C610 C 0.50612 0.18889 0.89829 0.0
C611 C 0.53117 0.20484 0.89377 0.0
C612 C 0.53912 0.22926 0.87846 0.0
C613 C 0.52207 0.23749 0.86541 0.0
C614 C 0.5485 0.19549 0.89441 0.0
C615 C 0.55013 0.18686 0.81497 0.0
C616 C 0.56525 0.19771 0.97074 0.0
C617 C 0.56306 0.20467 0.05698 0.0
C618 C 0.58332 0.22602 0.11317 0.0
C619 C 0.58201 0.2314 0.19714 0.0
C620 C 0.56056 0.21548 0.22567 0.0
C621 C 0.5403 0.19426 0.1701 0.0
C622 C 0.54154 0.1888 0.08614 0.0
C623 C 0.64465 0.19077 0.82421 0.0
C624 C 0.65208 0.17886 0.88534 0.0
C625 C 0.62368 0.19295 0.82465 0.0
C626 C 0.60884 0.18229 0.88358 0.0
C627 C 0.6159 0.17001 0.94363 0.0
C628 C 0.63739 0.16861 0.94531 0.0
C629 C 0.58678 0.18504 0.88548 0.0
C630 C 0.58445 0.19289 0.96529 0.0
C631 C 0.5687 0.18108 0.80949 0.0
C632 C 0.56843 0.17065 0.72385 0.0
C633 C 0.56788 0.14797 0.71185 0.0
C634 C 0.56788 0.13836 0.63127 0.0
C635 C 0.56825 0.15118 0.56198 0.0
C636 C 0.56857 0.17361 0.57307 0.0
C637 C 0.5686 0.18331 0.65353 0.0
H638 H 0.56825 0.14371 0.49966 0.0
H639 H 0.55956 0.21968 0.29065 0.0
H640 H 0.42883 0.60195 0.17514 0.0
H641 H 0.38942 0.56206 0.12328 0.0
H642 H 0.36961 0.59079 0.90165 0.0
H643 H 0.40906 0.63139 0.95507 0.0
H644 H 0.33049 0.5669 0.97283 0.0
H645 H 0.38468 0.5462 0.87469 0.0
H646 H 0.42288 0.54418 0.87864 0.0
H647 H 0.40747 0.50023 0.08156 0.0
H648 H 0.36938 0.50229 0.07984 0.0
H649 H 0.2198 0.44744 0.91028 0.0
H650 H 0.25749 0.47894 0.86974 0.0
H651 H 0.3043 0.47879 0.1031 0.0
H652 H 0.26684 0.44708 0.14355 0.0
H653 H 0.32754 0.48621 0.97238 0.0
H654 H 0.28019 0.51886 0.09015 0.0
H655 H 0.24134 0.52008 0.08167 0.0
H656 H 0.24384 0.54092 0.83052 0.0
H657 H 0.28267 0.53973 0.83761 0.0
C658 C 0.41608 0.59989 0.11554 0.0
C659 C 0.42198 0.61992 0.06963 0.0
C660 C 0.39369 0.57691 0.08522 0.0
C661 C 0.37672 0.57326 0.00775 0.0
C662 C 0.38254 0.59314 0.96121 0.0
C663 C 0.40509 0.61626 -0.00839 0.0
C664 C 0.3523 0.54907 0.97983 0.0
C665 C 0.3298 0.54921 0.97029 0.0
C666 C 0.35129 0.52593 0.97595 0.0
C667 C 0.37416 0.52447 0.97723 0.0
C668 C 0.3895 0.53623 0.92054 0.0
C669 C 0.41114 0.53506 0.92234 0.0
C670 C 0.4176 0.5221 0.98034 0.0
C671 C 0.40242 0.51024 0.0366 0.0
C672 C 0.38077 0.51137 0.03511 0.0
C673 C 0.23815 0.45363 0.95202 0.0
C674 C 0.24029 0.44506 0.03105 0.0
C675 C 0.2597 0.47166 0.92855 0.0
C676 C 0.28369 0.48155 0.98403 0.0
C677 C 0.28597 0.4715 0.05936 0.0
C678 C 0.26448 0.45342 0.08269 0.0
C679 C 0.30616 0.50431 0.9706 0.0
C680 C 0.32824 0.50386 0.97211 0.0
C681 C 0.30676 0.52714 0.96629 0.0
C682 C 0.28409 0.5289 0.96391 0.0
C683 C 0.27242 0.52368 0.03316 0.0
C684 C 0.25041 0.52437 0.0286 0.0
C685 C 0.24007 0.53049 0.95548 0.0
C686 C 0.25183 0.53613 0.88704 0.0
C687 C 0.27384 0.53547 0.89132 0.0
H688 H 0.22298 0.53093 0.95192 0.0
H689 H 0.43437 0.52122 0.98165 0.0
H690 H 0.87753 0.48489 0.93809 0.0
H691 H 0.87245 0.44347 0.92492 0.0
H692 H 0.80468 0.41429 0.01793 0.0
H693 H 0.80991 0.45592 0.03238 0.0
H694 H 0.83248 0.39552 0.08762 0.0
H695 H 0.80144 0.40421 0.80332 0.0
H696 H 0.80252 0.42445 0.67456 0.0
H697 H 0.8668 0.42084 0.6424 0.0
H698 H 0.86634 0.40091 0.77178 0.0
H699 H 0.78726 0.2674 0.93651 0.0
H700 H 0.79267 0.30872 0.96567 0.0
H701 H 0.86127 0.34163 0.87697 0.0
H702 H 0.85578 0.30039 0.84615 0.0
H703 H 0.8314 0.3577 0.80641 0.0
H704 H 0.86234 0.34941 0.09577 0.0
H705 H 0.85923 0.32754 0.22116 0.0
H706 H 0.79229 0.32791 0.23829 0.0
H707 H 0.79503 0.34983 0.11306 0.0
C708 C 0.86148 0.46962 0.95533 0.0
C709 C 0.84399 0.47357 0.98551 0.0
C710 C 0.85862 0.44597 0.94794 0.0
C711 C 0.83797 0.42567 0.9692 0.0
C712 C 0.82075 0.42967 0.00113 0.0
C713 C 0.82374 0.45343 0.00928 0.0
C714 C 0.83415 0.40023 0.95607 0.0
C715 C 0.83196 0.38712 0.02589 0.0
C716 C 0.8337 0.38935 0.87576 0.0
C717 C 0.834 0.40128 0.79775 0.0
C718 C 0.81593 0.40791 0.76919 0.0
C719 C 0.81641 0.4193 0.69603 0.0
C720 C 0.83476 0.42398 0.65045 0.0
C721 C 0.85262 0.41723 0.67784 0.0
C722 C 0.85225 0.40587 0.75104 0.0
C723 C 0.80362 0.28346 0.92391 0.0
C724 C 0.82104 0.28059 0.88876 0.0
C725 C 0.80673 0.30707 0.94099 0.0
C726 C 0.82749 0.32828 0.92429 0.0
C727 C 0.8451 0.32551 0.89034 0.0
C728 C 0.84194 0.3019 0.87279 0.0
C729 C 0.83026 0.35322 0.93824 0.0
C730 C 0.83206 0.36616 0.86829 0.0
C731 C 0.83013 0.36378 0.01812 0.0
C732 C 0.82883 0.35117 0.09481 0.0
C733 C 0.84694 0.34479 0.1262 0.0
C734 C 0.84525 0.3324 0.19727 0.0
C735 C 0.82555 0.32629 0.23756 0.0
C736 C 0.80757 0.3327 0.20715 0.0
C737 C 0.80923 0.34519 0.13631 0.0
H738 H 0.82419 0.31657 0.29223 0.0
H739 H 0.83509 0.4328 0.59381 0.0
H740 H 0.38026 0.85454 0.13538 0.0
H741 H 0.41422 0.84834 0.11286 0.0
H742 H 0.36103 0.76904 0.0367 0.0
H743 H 0.32686 0.77509 0.05734 0.0
H744 H 0.40386 0.77929 0.15304 0.0
H745 H 0.38281 0.8046 0.88745 0.0
H746 H 0.37515 0.83197 0.79697 0.0
H747 H 0.45143 0.89243 0.90318 0.0
H748 H 0.45945 0.86552 -0.0047 0.0
H749 H 0.48435 0.74702 0.02206 0.0
H750 H 0.44891 0.75363 0.00627 0.0
H751 H 0.50096 0.83346 0.06983 0.0
H752 H 0.53658 0.82696 0.08241 0.0
H753 H 0.45827 0.82278 0.9559 0.0
H754 H 0.4789 0.79885 0.22621 0.0
H755 H 0.48742 0.77192 0.31663 0.0
H756 H 0.41246 0.70975 0.20439 0.0
H757 H 0.40363 0.73624 0.11232 0.0
C758 C 0.37571 0.83581 0.1129 0.0
C759 C 0.3508 0.81531 0.09828 0.0
C760 C 0.39516 0.8323 0.10017 0.0
C761 C 0.39011 0.80825 0.07241 0.0
C762 C 0.36534 0.78775 0.05826 0.0
C763 C 0.34586 0.79124 0.07064 0.0
C764 C 0.41077 0.80437 0.06037 0.0
C765 C 0.4155 0.78851 0.10897 0.0
C766 C 0.42638 0.81691 0.0045 0.0
C767 C 0.42165 0.83311 0.9489 0.0
C768 C 0.39789 0.82379 0.89205 0.0
C769 C 0.3935 0.83921 0.84037 0.0
C770 C 0.41277 0.86394 0.84448 0.0
C771 C 0.43651 0.87328 0.90014 0.0
C772 C 0.441 0.85794 0.95205 0.0
C773 C 0.48823 0.76601 0.03081 0.0
C774 C 0.51321 0.78648 0.05481 0.0
C775 C 0.46797 0.76976 0.022 0.0
C776 C 0.47232 0.794 0.03948 0.0
C777 C 0.49718 0.81458 0.05676 0.0
C778 C 0.51751 0.81085 0.06396 0.0
C779 C 0.45123 0.7976 0.04823 0.0
C780 C 0.44652 0.81348 -0.00043 0.0
C781 C 0.4357 0.78522 0.10458 0.0
C782 C 0.44067 0.76947 0.16191 0.0
C783 C 0.46426 0.77941 0.22064 0.0
C784 C 0.46915 0.76422 0.27213 0.0
C785 C 0.45051 0.73912 0.26611 0.0
C786 C 0.42689 0.72919 0.20891 0.0
C787 C 0.42192 0.74429 0.15711 0.0
H788 H 0.45435 0.72737 0.30587 0.0
H789 H 0.40933 0.87585 0.8044 0.0
H790 H 0.78864 0.56257 0.08768 0.0
H791 H 0.74904 0.52607 0.09858 0.0
H792 H 0.70706 0.55011 0.92593 0.0
H793 H 0.74646 0.58683 0.91559 0.0
H794 H 0.68137 0.52463 0.04662 0.0
H795 H 0.72602 0.51423 0.84427 0.0
H796 H 0.76428 0.51768 0.81197 0.0
H797 H 0.76307 0.46808 0.98966 0.0
H798 H 0.72499 0.46467 0.02397 0.0
H799 H 0.57329 0.41806 0.79003 0.0
H800 H 0.61329 0.45703 0.84994 0.0
H801 H 0.64309 0.41627 0.98593 0.0
H802 H 0.6033 0.37694 0.92324 0.0
H803 H 0.67662 0.44896 0.91068 0.0
H804 H 0.62734 0.45319 0.09396 0.0
H805 H 0.59049 0.45126 0.13312 0.0
H806 H 0.60083 0.51239 -0.00014 0.0
H807 H 0.63753 0.51447 0.95876 0.0
C808 C 0.77099 0.56055 0.05409 0.0
C809 C 0.77072 0.57727 -0.00119 0.0
C810 C 0.74836 0.53963 0.06038 0.0
C811 C 0.72517 0.53505 0.01117 0.0
C812 C 0.72477 0.55318 0.96382 0.0
C813 C 0.74737 0.57414 0.9577 0.0
C814 C 0.70191 0.51001 -0.00209 0.0
C815 C 0.68024 0.50805 0.01689 0.0
C816 C 0.70069 0.4883 0.96097 0.0
C817 C 0.72281 0.48936 0.9372 0.0
C818 C 0.73394 0.50409 0.87649 0.0
C819 C 0.7556 0.50606 0.85793 0.0
C820 C 0.76614 0.49315 0.89891 0.0
C821 C 0.75491 0.4781 0.95808 0.0
C822 C 0.73328 0.47612 0.97707 0.0
C823 C 0.58837 0.41731 0.83225 0.0
C824 C 0.58507 0.3943 0.85143 0.0
C825 C 0.61116 0.43969 0.86749 0.0
C826 C 0.63113 0.43968 0.92358 0.0
C827 C 0.6279 0.41678 0.94327 0.0
C828 C 0.60508 0.39432 0.90781 0.0
C829 C 0.6557 0.46351 0.95777 0.0
C830 C 0.67769 0.46531 0.94218 0.0
C831 C 0.65719 0.48502 -0.00176 0.0
C832 C 0.63511 0.48387 0.02277 0.0
C833 C 0.62165 0.46611 0.07243 0.0
C834 C 0.6008 0.465 0.09507 0.0
C835 C 0.59329 0.48166 0.06887 0.0
C836 C 0.60666 0.49949 0.02009 0.0
C837 C 0.62751 0.50066 -0.00281 0.0
H838 H 0.57715 0.48078 0.08648 0.0
H839 H 0.78298 0.49479 0.88477 0.0
H840 H 0.12931 0.37375 0.91988 0.0
H841 H 0.13074 0.3846 0.77614 0.0
H842 H 0.19424 0.37507 0.78327 0.0
H843 H 0.19339 0.36505 0.92865 0.0
H844 H 0.20584 0.42101 0.76366 0.0
H845 H 0.13644 0.33824 0.62564 0.0
H846 H 0.09362 0.30069 0.59634 0.0
H847 H 0.06099 0.346 0.54434 0.0
H848 H 0.10361 0.38384 0.57401 0.0
H849 H 0.22094 0.44596 0.34474 0.0
H850 H 0.2179 0.43437 0.48737 0.0
H851 H 0.15077 0.43858 0.46351 0.0
H852 H 0.15285 0.44832 0.31855 0.0
H853 H 0.14036 0.39516 0.49205 0.0
H854 H 0.20733 0.47745 0.62901 0.0
H855 H 0.24914 0.51638 0.66216 0.0
H856 H 0.28528 0.47453 0.72327 0.0
H857 H 0.2437 0.43531 0.68999 0.0
C858 C 0.14304 0.37318 0.88958 0.0
C859 C 0.16158 0.36912 0.93566 0.0
C860 C 0.14373 0.37921 0.80714 0.0
C861 C 0.16269 0.38077 0.76927 0.0
C862 C 0.17953 0.37406 0.81174 0.0
C863 C 0.17897 0.36823 0.89453 0.0
C864 C 0.16775 0.39357 0.69394 0.0
C865 C 0.19168 0.41512 0.70352 0.0
C866 C 0.14884 0.38656 0.61746 0.0
C867 C 0.12323 0.36389 0.6026 0.0
C868 C 0.12014 0.34023 0.60881 0.0
C869 C 0.0959 0.31888 0.59185 0.0
C870 C 0.0746 0.32097 0.56862 0.0
C871 C 0.0775 0.34441 0.56242 0.0
C872 C 0.10168 0.36579 0.57911 0.0
C873 C 0.20579 0.44469 0.37081 0.0
C874 C 0.18659 0.44692 0.31994 0.0
C875 C 0.20425 0.43849 0.45281 0.0
C876 C 0.1839 0.43531 0.48583 0.0
C877 C 0.16645 0.44063 0.43882 0.0
C878 C 0.16776 0.44637 0.35626 0.0
C879 C 0.17856 0.42266 0.56156 0.0
C880 C 0.15457 0.40115 0.55216 0.0
C881 C 0.19729 0.42994 0.63886 0.0
C882 C 0.22238 0.4534 0.65595 0.0
C883 C 0.2242 0.4765 0.64846 0.0
C884 C 0.24786 0.49863 0.66756 0.0
C885 C 0.26985 0.4979 0.69429 0.0
C886 C 0.26824 0.47505 0.70207 0.0
C887 C 0.24463 0.45287 0.68332 0.0
H888 H 0.28814 0.51506 0.70938 0.0
H889 H 0.05586 0.30444 0.55535 0.0
H890 H 0.80785 0.19934 0.5781 0.0
H891 H 0.81737 0.22247 0.45877 0.0
H892 H 0.76498 0.24584 0.48927 0.0
H893 H 0.75491 0.2218 0.60818 0.0
H894 H 0.76115 0.2364 0.32859 0.0
H895 H 0.82682 0.28815 0.54921 0.0
H896 H 0.86057 0.30513 0.68261 0.0
H897 H 0.90488 0.28633 0.55718 0.0
H898 H 0.87089 0.2678 0.42439 0.0
H899 H 0.85982 0.26812 0.04359 0.0
H900 H 0.84748 0.28488 0.15291 0.0
H901 H 0.78853 0.20999 0.1625 0.0
H902 H 0.80088 0.19303 0.05266 0.0
H903 H 0.85046 0.27753 0.31021 0.0
H904 H 0.73737 0.20958 0.19417 0.0
H905 H 0.7032 0.20586 0.07934 0.0
H906 H 0.75571 0.27422 0.00574 0.0
H907 H 0.79031 0.27852 0.12001 0.0
C908 C 0.79787 0.20882 0.55735 0.0
C909 C 0.78035 0.20855 0.59987 0.0
C910 C 0.80369 0.22249 0.49084 0.0
C911 C 0.79255 0.23662 0.46756 0.0
C912 C 0.77402 0.23535 0.50737 0.0
C913 C 0.76798 0.22136 0.57378 0.0
C914 C 0.79967 0.2513 0.39782 0.0
C915 C 0.78066 0.2456 0.32431 0.0
C916 C 0.82535 0.26599 0.39539 0.0
C917 C 0.84609 0.27661 0.47581 0.0
C918 C 0.84358 0.28729 0.55 0.0
C919 C 0.86277 0.2971 0.62587 0.0
C920 C 0.88483 0.29674 0.62839 0.0
C921 C 0.88772 0.2865 0.5551 0.0
C922 C 0.86842 0.27626 0.47942 0.0
C923 C 0.84426 0.25516 0.06923 0.0
C924 C 0.83115 0.22918 0.03967 0.0
C925 C 0.83698 0.26489 0.13048 0.0
C926 C 0.81659 0.24883 0.16362 0.0
C927 C 0.80378 0.22284 0.13532 0.0
C928 C 0.81111 0.21308 0.07411 0.0
C929 C 0.81153 0.25809 0.23919 0.0
C930 C 0.83101 0.26895 0.31471 0.0
C931 C 0.78647 0.24943 0.24412 0.0
C932 C 0.76648 0.24458 0.16698 0.0
C933 C 0.74175 0.22382 0.15346 0.0
C934 C 0.72227 0.22162 0.08838 0.0
C935 C 0.72728 0.24001 0.03622 0.0
C936 C 0.75191 0.2601 0.04666 0.0
C937 C 0.77149 0.26236 0.11132 0.0
H938 H 0.71207 0.23872 0.98766 0.0
H939 H 0.89969 0.30441 0.68711 0.0
H940 H 0.61812 0.79302 0.05149 0.0
H941 H 0.63744 0.81087 0.93778 0.0
H942 H 0.58675 0.74077 0.76613 0.0
H943 H 0.56745 0.72215 0.88379 0.0
H944 H 0.64314 0.79044 0.73362 0.0
H945 H 0.55408 0.75472 0.74149 0.0
H946 H 0.51686 0.7438 0.79855 0.0
H947 H 0.55305 0.81953 0.92761 0.0
H948 H 0.59108 0.83054 0.87471 0.0
H949 H 0.55736 0.76534 0.38185 0.0
H950 H 0.57519 0.77243 0.53596 0.0
H951 H 0.61444 0.85232 0.541 0.0
H952 H 0.59676 0.84536 0.38534 0.0
H953 H 0.58177 0.81888 0.68152 0.0
H954 H 0.65489 0.84939 0.57777 0.0
H955 H 0.67823 0.85253 0.46698 0.0
H956 H 0.66022 0.77694 0.4725 0.0
H957 H 0.63592 0.77289 0.58053 0.0
C958 C 0.61206 0.78074 -0.00793 0.0
C959 C 0.5909 0.75641 0.97604 0.0
C960 C 0.62343 0.79101 0.9267 0.0
C961 C 0.61296 0.77729 0.84379 0.0
C962 C 0.5949 0.75156 0.83054 0.0
C963 C 0.58372 0.74103 0.89728 0.0
C964 C 0.61294 0.79143 0.77415 0.0
C965 C 0.62979 0.79668 0.7217 0.0
C966 C 0.59629 0.80058 0.76213 0.0
C967 C 0.5758 0.79316 0.80726 0.0
C968 C 0.55456 0.76874 0.78532 0.0
C969 C 0.53324 0.76259 0.81621 0.0
C970 C 0.53265 0.78092 0.86697 0.0
C971 C 0.55365 0.80529 0.88892 0.0
C972 C 0.57522 0.81142 0.85943 0.0
C973 C 0.56896 0.78439 0.4164 0.0
C974 C 0.57616 0.80477 0.37264 0.0
C975 C 0.57945 0.78842 0.50353 0.0
C976 C 0.5969 0.81283 0.54721 0.0
C977 C 0.60155 0.83342 0.50644 0.0
C978 C 0.59109 0.82938 0.41848 0.0
C979 C 0.60993 0.81556 0.63544 0.0
C980 C 0.5961 0.81386 0.69548 0.0
C981 C 0.62819 0.80847 0.6506 0.0
C982 C 0.64345 0.81084 0.58735 0.0
C983 C 0.65567 0.83332 0.55474 0.0
C984 C 0.669 0.83523 0.49208 0.0
C985 C 0.67045 0.81483 0.46193 0.0
C986 C 0.65874 0.79258 0.49489 0.0
C987 C 0.64526 0.79049 0.55713 0.0
H988 H 0.68082 0.81635 0.41356 0.0
H989 H 0.51573 0.77628 0.88791 0.0
H990 H 0.79638 0.54028 0.64249 0.0
H991 H 0.79783 0.54619 0.4931 0.0
H992 H 0.80394 0.61753 0.54951 0.0
H993 H 0.79876 0.60976 0.69286 0.0
H994 H 0.78944 0.60452 0.39293 0.0
H995 H 0.85093 0.59329 0.60653 0.0
H996 H 0.86604 0.56795 0.67787 0.0
H997 H 0.8589 0.53154 0.43158 0.0
H998 H 0.84407 0.55709 0.35871 0.0
H999 H 0.86271 0.68113 0.15485 0.0
H1000 H 0.85788 0.66843 0.29532 0.0
H1001 H 0.86271 0.6044 0.21637 0.0
H1002 H 0.87224 0.62001 0.08343 0.0
H1003 H 0.86812 0.6074 0.36973 0.0
H1004 H 0.80603 0.61162 0.15478 0.0
H1005 H 0.78712 0.63165 0.06423 0.0
H1006 H 0.78904 0.6724 0.29139 0.0
H1007 H 0.80823 0.6529 0.38266 0.0
C1008 C 0.79656 0.55648 0.62081 0.0
C1009 C 0.79893 0.57537 0.67947 0.0
C1010 C 0.79774 0.56002 0.53602 0.0
C1011 C 0.80314 0.5832 0.51252 0.0
C1012 C 0.80078 0.59982 0.56682 0.0
C1013 C 0.79795 0.5955 0.64936 0.0
C1014 C 0.81527 0.59251 0.44074 0.0
C1015 C 0.80671 0.6052 0.38808 0.0
C1016 C 0.83725 0.59244 0.43152 0.0
C1017 C 0.84644 0.57735 0.47704 0.0
C1018 C 0.85309 0.58038 0.56745 0.0
C1019 C 0.86134 0.56572 0.60824 0.0
C1020 C 0.86331 0.54803 0.55927 0.0
C1021 C 0.85725 0.54516 0.46948 0.0
C1022 C 0.84891 0.55975 0.42847 0.0
C1023 C 0.86416 0.66515 0.16989 0.0
C1024 C 0.86575 0.65012 0.10664 0.0
C1025 C 0.861 0.65766 0.24951 0.0
C1026 C 0.85748 0.6342 0.2629 0.0
C1027 C 0.86409 0.62198 0.20627 0.0
C1028 C 0.86911 0.63057 0.12946 0.0
C1029 C 0.84291 0.62042 0.32496 0.0
C1030 C 0.85087 0.60673 0.37461 0.0
C1031 C 0.81997 0.61894 0.33007 0.0
C1032 C 0.80871 0.63092 0.27513 0.0
C1033 C 0.80239 0.62486 0.18496 0.0
C1034 C 0.7917 0.63614 0.13369 0.0
C1035 C 0.7869 0.65327 0.17203 0.0
C1036 C 0.79282 0.65917 0.26172 0.0
C1037 C 0.80364 0.64804 0.3132 0.0
H1038 H 0.77858 0.66194 0.13225 0.0
H1039 H 0.86958 0.53659 0.59091 0.0
H1040 H 0.16909 0.73574 0.31433 0.0
H1041 H 0.15857 0.73837 0.45305 0.0
H1042 H 0.23769 0.79131 0.56941 0.0
H1043 H 0.24777 0.78834 0.43242 0.0
H1044 H 0.21912 0.76755 0.6792 0.0
H1045 H 0.18909 0.81187 0.47691 0.0
H1046 H 0.16113 0.82071 0.37278 0.0
H1047 H 0.09621 0.76261 0.44185 0.0
H1048 H 0.12359 0.75372 0.54643 0.0
H1049 H 0.22172 0.84159 0.02559 0.0
H1050 H 0.22697 0.83459 0.88142 0.0
H1051 H 0.14654 0.78194 0.79472 0.0
H1052 H 0.14125 0.79083 0.93569 0.0
H1053 H 0.16188 0.80025 0.67106 0.0
H1054 H 0.20468 0.75448 0.86386 0.0
H1055 H 0.24188 0.756 0.95507 0.0
H1056 H 0.29083 0.82803 0.89559 0.0
H1057 H 0.25432 0.82668 0.80186 0.0
C1058 C 0.18419 0.74689 0.3712 0.0
C1059 C 0.20905 0.76233 0.36386 0.0
C1060 C 0.17814 0.74877 0.44954 0.0
C1061 C 0.19717 0.76585 0.52035 0.0
C1062 C 0.22257 0.77819 0.51528 0.0
C1063 C 0.22851 0.77617 0.43741 0.0
C1064 C 0.19132 0.77273 0.5983 0.0
C1065 C 0.20633 0.77447 0.6774 0.0
C1066 C 0.1746 0.78163 0.59633 0.0
C1067 C 0.15832 0.78172 0.5174 0.0
C1068 C 0.16879 0.80046 0.46731 0.0
C1069 C 0.15311 0.80569 0.40925 0.0
C1070 C 0.12701 0.79211 0.40024 0.0
C1071 C 0.11642 0.77298 0.44826 0.0
C1072 C 0.13196 0.76772 0.50642 0.0
C1073 C 0.20511 0.82983 0.97366 0.0
C1074 C 0.18116 0.81641 0.9906 0.0
C1075 C 0.20821 0.82504 0.8925 0.0
C1076 C 0.18743 0.80638 0.82942 0.0
C1077 C 0.16301 0.79603 0.84314 0.0
C1078 C 0.15985 0.80147 0.92321 0.0
C1079 C 0.19054 0.79611 0.75124 0.0
C1080 C 0.17438 0.793 0.67292 0.0
C1081 C 0.2069 0.78679 0.75324 0.0
C1082 C 0.22667 0.79096 0.8289 0.0
C1083 C 0.22325 0.7711 0.87334 0.0
C1084 C 0.24421 0.77173 0.92426 0.0
C1085 C 0.2685 0.79208 0.93145 0.0
C1086 C 0.27196 0.81233 0.89031 0.0
C1087 C 0.25117 0.8117 0.83857 0.0
H1088 H 0.28467 0.79194 0.96774 0.0
H1089 H 0.11501 0.79646 0.35623 0.0
H1090 H 0.46415 0.24145 0.54338 0.0
H1091 H 0.47587 0.22994 0.42009 0.0
H1092 H 0.43085 0.15176 0.44052 0.0
H1093 H 0.41768 0.16341 0.56076 0.0
H1094 H 0.49221 0.20198 0.34432 0.0
H1095 H 0.40432 0.12529 0.26582 0.0
H1096 H 0.36389 0.09884 0.30534 0.0
H1097 H 0.35816 0.16334 0.35932 0.0
H1098 H 0.39857 0.1901 0.32012 0.0
H1099 H 0.41132 0.21661 0.92649 0.0
H1100 H 0.41461 0.19023 0.02687 0.0
H1101 H 0.4836 0.25474 0.18105 0.0
H1102 H 0.4836 0.2788 0.06595 0.0
H1103 H 0.41075 0.18226 0.15671 0.0
H1104 H 0.51714 0.24663 0.33264 0.0
H1105 H 0.55749 0.27539 0.29774 0.0
H1106 H 0.52879 0.235 0.04034 0.0
H1107 H 0.48797 0.20582 0.07271 0.0
C1108 C 0.45698 0.22187 0.52162 0.0
C1109 C 0.43903 0.20321 0.55703 0.0
C1110 C 0.46412 0.21523 0.45267 0.0
C1111 C 0.4536 0.18983 0.41939 0.0
C1112 C 0.43852 0.17136 0.46344 0.0
C1113 C 0.43072 0.17799 0.53086 0.0
C1114 C 0.45209 0.18381 0.3277 0.0
C1115 C 0.47447 0.19691 0.30036 0.0
C1116 C 0.42883 0.17552 0.26867 0.0
C1117 C 0.40432 0.15957 0.29019 0.0
C1118 C 0.39432 0.13374 0.28579 0.0
C1119 C 0.37148 0.11873 0.30827 0.0
C1120 C 0.35847 0.12941 0.33484 0.0
C1121 C 0.36824 0.1551 0.33866 0.0
C1122 C 0.39106 0.17017 0.31615 0.0
C1123 C 0.4277 0.22468 0.98016 0.0
C1124 C 0.44801 0.2489 0.98542 0.0
C1125 C 0.42947 0.20974 0.03902 0.0
C1126 C 0.45033 0.21973 0.11051 0.0
C1127 C 0.4686 0.24551 0.12301 0.0
C1128 C 0.46808 0.2597 0.05899 0.0
C1129 C 0.45154 0.20378 0.17522 0.0
C1130 C 0.4288 0.18611 0.19434 0.0
C1131 C 0.47467 0.20745 0.22493 0.0
C1132 C 0.49944 0.22399 0.20514 0.0
C1133 C 0.51944 0.24365 0.26858 0.0
C1134 C 0.54229 0.26019 0.24891 0.0
C1135 C 0.54549 0.2572 0.16618 0.0
C1136 C 0.52596 0.23749 0.1034 0.0
C1137 C 0.50298 0.22092 0.12238 0.0
H1138 H 0.56322 0.26996 0.15097 0.0
H1139 H 0.34083 0.11778 0.35246 0.0
loop_
_geom_bond_atom_site_label_1
_geom_bond_atom_site_label_2
_geom_bond_distance
_geom_bond_site_symmetry_2
_ccdc_geom_bond_type
Gd0 C3 2.818 . S
Gd0 O20 2.377 1_554 S
Gd0 O22 2.448 1_554 S
Gd0 O23 2.506 . S
Gd0 O24 2.435 1_554 S
Gd0 O25 2.717 1_554 S
Gd0 O27 2.395 1_554 S
Gd0 O31 2.327 . S
Gd1 C12 2.818 . S
Gd1 O21 2.395 1_556 S
Gd1 O25 2.327 . S
Gd1 O26 2.377 1_556 S
Gd1 O28 2.448 1_556 S
Gd1 O29 2.506 . S
Gd1 O30 2.435 1_556 S
Gd1 O31 2.717 1_556 S
C2 O20 1.240 1_554 S
C2 O21 1.240 . S
C3 Gd0 2.818 . S
C3 C4 1.510 . S
C3 O22 1.249 1_554 S
C3 O23 1.252 . S
C4 C3 1.510 . S
C4 C5 1.404 . S
C4 C6 1.352 . S
C5 C4 1.404 . S
C5 C9 1.389 . S
C5 H32 0.930 1_554 S
C6 C4 1.352 . S
C6 C8 1.374 . S
C6 H33 0.931 . S
C7 C8 1.359 . S
C7 C9 1.364 . S
C8 C6 1.374 . S
C8 C7 1.359 . S
C8 H34 0.931 . S
C9 C5 1.389 . S
C9 C7 1.364 . S
C9 H35 0.931 . S
C10 O24 1.256 . S
C10 O25 1.257 . S
C11 O26 1.240 1_556 S
C11 O27 1.240 . S
C12 Gd1 2.818 . S
C12 C13 1.510 . S
C12 O28 1.249 1_556 S
C12 O29 1.252 . S
C13 C12 1.510 . S
C13 C14 1.404 . S
C13 C15 1.352 . S
C14 C13 1.404 . S
C14 C18 1.389 . S
C14 H36 0.930 1_556 S
C15 C13 1.352 . S
C15 C17 1.374 . S
C15 H37 0.931 . S
C16 C17 1.359 . S
C16 C18 1.364 . S
C17 C15 1.374 . S
C17 C16 1.359 . S
C17 H38 0.931 . S
C18 C14 1.389 . S
C18 C16 1.364 . S
C18 H39 0.931 . S
C19 O30 1.256 . S
C19 O31 1.257 . S
O20 Gd0 2.377 1_556 S
O20 C2 1.240 1_556 S
O21 Gd1 2.395 1_554 S
O21 C2 1.240 . S
O22 Gd0 2.448 1_556 S
O22 C3 1.249 1_556 S
O23 Gd0 2.506 . S
O23 C3 1.252 . S
O24 Gd0 2.435 1_556 S
O24 C10 1.256 . S
O25 Gd0 2.717 1_556 S
O25 Gd1 2.327 . S
O25 C10 1.257 . S
O26 Gd1 2.377 1_554 S
O26 C11 1.240 1_554 S
O27 Gd0 2.395 1_556 S
O27 C11 1.240 . S
O28 Gd1 2.448 1_554 S
O28 C12 1.249 1_554 S
O29 Gd1 2.506 . S
O29 C12 1.252 . S
O30 Gd1 2.435 1_554 S
O30 C19 1.256 . S
O31 Gd0 2.327 . S
O31 Gd1 2.717 1_554 S
O31 C19 1.257 . S
H32 C5 0.930 1_556 S
H33 C6 0.931 . S
H34 C8 0.931 . S
H35 C9 0.931 . S
H36 C14 0.930 1_554 S
H37 C15 0.931 . S
H38 C17 0.931 . S
H39 C18 0.931 . S
Gd40 C43 2.818 . S
Gd40 O60 2.377 . S
Gd40 O62 2.448 . S
Gd40 O63 2.506 1_556 S
Gd40 O64 2.435 . S
Gd40 O65 2.717 . S
Gd40 O67 2.395 . S
Gd40 O71 2.327 1_556 S
Gd41 C52 2.818 . S
Gd41 O61 2.395 1_556 S
Gd41 O65 2.327 . S
Gd41 O66 2.377 . S
Gd41 O68 2.448 1_556 S
Gd41 O69 2.506 . S
Gd41 O70 2.435 1_556 S
Gd41 O71 2.717 1_556 S
C42 O60 1.240 1_554 S
C42 O61 1.240 . S
C43 Gd40 2.818 . S
C43 C44 1.510 1_556 S
C43 O62 1.249 . S
C43 O63 1.252 1_556 S
C44 C43 1.510 1_554 S
C44 C45 1.404 1_554 S
C44 C46 1.352 . S
C45 C44 1.404 1_556 S
C45 C49 1.389 . S
C45 H72 0.930 . S
C46 C44 1.352 . S
C46 C48 1.374 . S
C46 H73 0.931 . S
C47 C48 1.359 . S
C47 C49 1.364 1_554 S
C48 C46 1.374 . S
C48 C47 1.359 . S
C48 H74 0.931 . S
C49 C45 1.389 . S
C49 C47 1.364 1_556 S
C49 H75 0.931 . S
C50 O64 1.256 . S
C50 O65 1.257 . S
C51 O66 1.240 . S
C51 O67 1.240 . S
C52 Gd41 2.818 . S
C52 C53 1.510 . S
C52 O68 1.249 1_556 S
C52 O69 1.252 . S
C53 C52 1.510 . S
C53 C54 1.404 . S
C53 C55 1.352 . S
C54 C53 1.404 . S
C54 C58 1.389 . S
C54 H76 0.930 1_556 S
C55 C53 1.352 . S
C55 C57 1.374 . S
C55 H77 0.931 . S
C56 C57 1.359 . S
C56 C58 1.364 . S
C57 C55 1.374 . S
C57 C56 1.359 . S
C57 H78 0.931 . S
C58 C54 1.389 . S
C58 C56 1.364 . S
C58 H79 0.931 1_556 S
C59 O70 1.256 . S
C59 O71 1.257 . S
O60 Gd40 2.377 . S
O60 C42 1.240 1_556 S
O61 Gd41 2.395 1_554 S
O61 C42 1.240 . S
O62 Gd40 2.448 . S
O62 C43 1.249 . S
O63 Gd40 2.506 1_554 S
O63 C43 1.252 1_554 S
O64 Gd40 2.435 . S
O64 C50 1.256 . S
O65 Gd40 2.717 . S
O65 Gd41 2.327 . S
O65 C50 1.257 . S
O66 Gd41 2.377 . S
O66 C51 1.240 . S
O67 Gd40 2.395 . S
O67 C51 1.240 . S
O68 Gd41 2.448 1_554 S
O68 C52 1.249 1_554 S
O69 Gd41 2.506 . S
O69 C52 1.252 . S
O70 Gd41 2.435 1_554 S
O70 C59 1.256 . S
O71 Gd40 2.327 1_554 S
O71 Gd41 2.717 1_554 S
O71 C59 1.257 . S
H72 C45 0.930 . S
H73 C46 0.931 . S
H74 C48 0.931 . S
H75 C49 0.931 . S
H76 C54 0.930 1_554 S
H77 C55 0.931 . S
H78 C57 0.931 . S
H79 C58 0.931 1_554 S
Gd80 C83 2.818 . S
Gd80 O100 2.377 . S
Gd80 O102 2.448 . S
Gd80 O103 2.506 1_556 S
Gd80 O104 2.435 . S
Gd80 O105 2.717 . S
Gd80 O107 2.395 1_556 S
Gd80 O111 2.327 1_556 S
Gd81 C92 2.818 . S
Gd81 O101 2.395 . S
Gd81 O105 2.327 1_554 S
Gd81 O106 2.377 . S
Gd81 O108 2.448 . S
Gd81 O109 2.506 . S
Gd81 O110 2.435 . S
Gd81 O111 2.717 . S
C82 O100 1.240 . S
C82 O101 1.240 1_556 S
C83 Gd80 2.818 . S
C83 C84 1.510 . S
C83 O102 1.249 . S
C83 O103 1.252 1_556 S
C84 C83 1.510 . S
C84 C85 1.404 . S
C84 C86 1.352 . S
C85 C84 1.404 . S
C85 C89 1.389 . S
C85 H112 0.930 . S
C86 C84 1.352 . S
C86 C88 1.374 . S
C86 H113 0.931 1_556 S
C87 C88 1.359 . S
C87 C89 1.364 . S
C88 C86 1.374 . S
C88 C87 1.359 . S
C88 H114 0.931 1_556 S
C89 C85 1.389 . S
C89 C87 1.364 . S
C89 H115 0.931 . S
C90 O104 1.256 . S
C90 O105 1.257 . S
C91 O106 1.240 . S
C91 O107 1.240 . S
C92 Gd81 2.818 . S
C92 C93 1.510 . S
C92 O108 1.249 . S
C92 O109 1.252 . S
C93 C92 1.510 . S
C93 C94 1.404 . S
C93 C95 1.352 . S
C94 C93 1.404 . S
C94 C98 1.389 . S
C94 H116 0.930 . S
C95 C93 1.352 . S
C95 C97 1.374 . S
C95 H117 0.931 1_554 S
C96 C97 1.359 . S
C96 C98 1.364 . S
C97 C95 1.374 . S
C97 C96 1.359 . S
C97 H118 0.931 . S
C98 C94 1.389 . S
C98 C96 1.364 . S
C98 H119 0.931 . S
C99 O110 1.256 . S
C99 O111 1.257 . S
O100 Gd80 2.377 . S
O100 C82 1.240 . S
O101 Gd81 2.395 . S
O101 C82 1.240 1_554 S
O102 Gd80 2.448 . S
O102 C83 1.249 . S
O103 Gd80 2.506 1_554 S
O103 C83 1.252 1_554 S
O104 Gd80 2.435 . S
O104 C90 1.256 . S
O105 Gd80 2.717 . S
O105 Gd81 2.327 1_556 S
O105 C90 1.257 . S
O106 Gd81 2.377 . S
O106 C91 1.240 . S
O107 Gd80 2.395 1_554 S
O107 C91 1.240 . S
O108 Gd81 2.448 . S
O108 C92 1.249 . S
O109 Gd81 2.506 . S
O109 C92 1.252 . S
O110 Gd81 2.435 . S
O110 C99 1.256 . S
O111 Gd80 2.327 1_554 S
O111 Gd81 2.717 . S
O111 C99 1.257 . S
H112 C85 0.930 . S
H113 C86 0.931 1_554 S
H114 C88 0.931 1_554 S
H115 C89 0.931 . S
H116 C94 0.930 . S
H117 C95 0.931 1_556 S
H118 C97 0.931 . S
H119 C98 0.931 . S
Gd120 C123 2.818 1_556 S
Gd120 O140 2.377 . S
Gd120 O142 2.448 . S
Gd120 O143 2.506 1_556 S
Gd120 O144 2.435 . S
Gd120 O145 2.717 . S
Gd120 O147 2.395 . S
Gd120 O151 2.327 1_556 S
Gd121 C132 2.818 . S
Gd121 O141 2.395 . S
Gd121 O145 2.327 . S
Gd121 O146 2.377 . S
Gd121 O148 2.448 . S
Gd121 O149 2.506 . S
Gd121 O150 2.435 1_556 S
Gd121 O151 2.717 1_556 S
C122 O140 1.240 . S
C122 O141 1.240 . S
C123 Gd120 2.818 1_554 S
C123 C124 1.510 . S
C123 O142 1.249 1_554 S
C123 O143 1.252 . S
C124 C123 1.510 . S
C124 C125 1.404 . S
C124 C126 1.352 . S
C125 C124 1.404 . S
C125 C129 1.389 . S
C125 H152 0.930 1_554 S
C126 C124 1.352 . S
C126 C128 1.374 . S
C126 H153 0.931 . S
C127 C128 1.359 . S
C127 C129 1.364 . S
C128 C126 1.374 . S
C128 C127 1.359 . S
C128 H154 0.931 . S
C129 C125 1.389 . S
C129 C127 1.364 . S
C129 H155 0.931 1_554 S
C130 O144 1.256 . S
C130 O145 1.257 . S
C131 O146 1.240 . S
C131 O147 1.240 . S
C132 Gd121 2.818 . S
C132 C133 1.510 . S
C132 O148 1.249 . S
C132 O149 1.252 . S
C133 C132 1.510 . S
C133 C134 1.404 . S
C133 C135 1.352 . S
C134 C133 1.404 . S
C134 C138 1.389 . S
C134 H156 0.930 . S
C135 C133 1.352 . S
C135 C137 1.374 . S
C135 H157 0.931 . S
C136 C137 1.359 . S
C136 C138 1.364 . S
C137 C135 1.374 . S
C137 C136 1.359 . S
C137 H158 0.931 . S
C138 C134 1.389 . S
C138 C136 1.364 . S
C138 H159 0.931 . S
C139 O150 1.256 . S
C139 O151 1.257 . S
O140 Gd120 2.377 . S
O140 C122 1.240 . S
O141 Gd121 2.395 . S
O141 C122 1.240 . S
O142 Gd120 2.448 . S
O142 C123 1.249 1_556 S
O143 Gd120 2.506 1_554 S
O143 C123 1.252 . S
O144 Gd120 2.435 . S
O144 C130 1.256 . S
O145 Gd120 2.717 . S
O145 Gd121 2.327 . S
O145 C130 1.257 . S
O146 Gd121 2.377 . S
O146 C131 1.240 . S
O147 Gd120 2.395 . S
O147 C131 1.240 . S
O148 Gd121 2.448 . S
O148 C132 1.249 . S
O149 Gd121 2.506 . S
O149 C132 1.252 . S
O150 Gd121 2.435 1_554 S
O150 C139 1.256 . S
O151 Gd120 2.327 1_554 S
O151 Gd121 2.717 1_554 S
O151 C139 1.257 . S
H152 C125 0.930 1_556 S
H153 C126 0.931 . S
H154 C128 0.931 . S
H155 C129 0.931 1_556 S
H156 C134 0.930 . S
H157 C135 0.931 . S
H158 C137 0.931 . S
H159 C138 0.931 . S
Gd160 C163 2.818 1_556 S
Gd160 O180 2.377 1_556 S
Gd160 O182 2.448 . S
Gd160 O183 2.506 1_556 S
Gd160 O184 2.435 . S
Gd160 O185 2.717 . S
Gd160 O187 2.395 . S
Gd160 O191 2.327 1_556 S
Gd161 C172 2.818 1_554 S
Gd161 O181 2.395 . S
Gd161 O185 2.327 1_554 S
Gd161 O186 2.377 . S
Gd161 O188 2.448 . S
Gd161 O189 2.506 1_554 S
Gd161 O190 2.435 . S
Gd161 O191 2.717 . S
C162 O180 1.240 . S
C162 O181 1.240 . S
C163 Gd160 2.818 1_554 S
C163 C164 1.510 . S
C163 O182 1.249 1_554 S
C163 O183 1.252 . S
C164 C163 1.510 . S
C164 C165 1.404 1_554 S
C164 C166 1.352 . S
C165 C164 1.404 1_556 S
C165 C169 1.389 1_556 S
C165 H192 0.930 . S
C166 C164 1.352 . S
C166 C168 1.374 . S
C166 H193 0.931 . S
C167 C168 1.359 . S
C167 C169 1.364 . S
C168 C166 1.374 . S
C168 C167 1.359 . S
C168 H194 0.931 . S
C169 C165 1.389 1_554 S
C169 C167 1.364 . S
C169 H195 0.931 1_554 S
C170 O184 1.256 . S
C170 O185 1.257 . S
C171 O186 1.240 1_556 S
C171 O187 1.240 . S
C172 Gd161 2.818 1_556 S
C172 C173 1.510 . S
C172 O188 1.249 1_556 S
C172 O189 1.252 . S
C173 C172 1.510 . S
C173 C174 1.404 1_556 S
C173 C175 1.352 . S
C174 C173 1.404 1_554 S
C174 C178 1.389 . S
C174 H196 0.930 . S
C175 C173 1.352 . S
C175 C177 1.374 . S
C175 H197 0.931 . S
C176 C177 1.359 . S
C176 C178 1.364 1_556 S
C177 C175 1.374 . S
C177 C176 1.359 . S
C177 H198 0.931 . S
C178 C174 1.389 . S
C178 C176 1.364 1_554 S
C178 H199 0.931 . S
C179 O190 1.256 . S
C179 O191 1.257 . S
O180 Gd160 2.377 1_554 S
O180 C162 1.240 . S
O181 Gd161 2.395 . S
O181 C162 1.240 . S
O182 Gd160 2.448 . S
O182 C163 1.249 1_556 S
O183 Gd160 2.506 1_554 S
O183 C163 1.252 . S
O184 Gd160 2.435 . S
O184 C170 1.256 . S
O185 Gd160 2.717 . S
O185 Gd161 2.327 1_556 S
O185 C170 1.257 . S
O186 Gd161 2.377 . S
O186 C171 1.240 1_554 S
O187 Gd160 2.395 . S
O187 C171 1.240 . S
O188 Gd161 2.448 . S
O188 C172 1.249 1_554 S
O189 Gd161 2.506 1_556 S
O189 C172 1.252 . S
O190 Gd161 2.435 . S
O190 C179 1.256 . S
O191 Gd160 2.327 1_554 S
O191 Gd161 2.717 . S
O191 C179 1.257 . S
H192 C165 0.930 . S
H193 C166 0.931 . S
H194 C168 0.931 . S
H195 C169 0.931 1_556 S
H196 C174 0.930 . S
H197 C175 0.931 . S
H198 C177 0.931 . S
H199 C178 0.931 . S
Gd200 C203 2.818 . S
Gd200 O220 2.377 . S
Gd200 O222 2.448 . S
Gd200 O223 2.506 . S
Gd200 O224 2.435 . S
Gd200 O225 2.717 . S
Gd200 O227 2.395 . S
Gd200 O231 2.327 1_556 S
Gd201 C212 2.818 1_556 S
Gd201 O221 2.395 . S
Gd201 O225 2.327 . S
Gd201 O226 2.377 1_556 S
Gd201 O228 2.448 1_556 S
Gd201 O229 2.506 . S
Gd201 O230 2.435 1_556 S
Gd201 O231 2.717 1_556 S
C202 O220 1.240 . S
C202 O221 1.240 . S
C203 Gd200 2.818 . S
C203 C204 1.510 . S
C203 O222 1.249 . S
C203 O223 1.252 . S
C204 C203 1.510 . S
C204 C205 1.404 . S
C204 C206 1.352 . S
C205 C204 1.404 . S
C205 C209 1.389 . S
C205 H232 0.930 . S
C206 C204 1.352 . S
C206 C208 1.374 . S
C206 H233 0.931 . S
C207 C208 1.359 . S
C207 C209 1.364 . S
C208 C206 1.374 . S
C208 C207 1.359 . S
C208 H234 0.931 . S
C209 C205 1.389 . S
C209 C207 1.364 . S
C209 H235 0.931 . S
C210 O224 1.256 . S
C210 O225 1.257 . S
C211 O226 1.240 1_556 S
C211 O227 1.240 . S
C212 Gd201 2.818 1_554 S
C212 C213 1.510 . S
C212 O228 1.249 . S
C212 O229 1.252 1_554 S
C213 C212 1.510 . S
C213 C214 1.404 . S
C213 C215 1.352 1_554 S
C214 C213 1.404 . S
C214 C218 1.389 . S
C214 H236 0.930 . S
C215 C213 1.352 1_556 S
C215 C217 1.374 1_556 S
C215 H237 0.931 . S
C216 C217 1.359 . S
C216 C218 1.364 . S
C217 C215 1.374 1_554 S
C217 C216 1.359 . S
C217 H238 0.931 1_554 S
C218 C214 1.389 . S
C218 C216 1.364 . S
C218 H239 0.931 . S
C219 O230 1.256 . S
C219 O231 1.257 . S
O220 Gd200 2.377 . S
O220 C202 1.240 . S
O221 Gd201 2.395 . S
O221 C202 1.240 . S
O222 Gd200 2.448 . S
O222 C203 1.249 . S
O223 Gd200 2.506 . S
O223 C203 1.252 . S
O224 Gd200 2.435 . S
O224 C210 1.256 . S
O225 Gd200 2.717 . S
O225 Gd201 2.327 . S
O225 C210 1.257 . S
O226 Gd201 2.377 1_554 S
O226 C211 1.240 1_554 S
O227 Gd200 2.395 . S
O227 C211 1.240 . S
O228 Gd201 2.448 1_554 S
O228 C212 1.249 . S
O229 Gd201 2.506 . S
O229 C212 1.252 1_556 S
O230 Gd201 2.435 1_554 S
O230 C219 1.256 . S
O231 Gd200 2.327 1_554 S
O231 Gd201 2.717 1_554 S
O231 C219 1.257 . S
H232 C205 0.930 . S
H233 C206 0.931 . S
H234 C208 0.931 . S
H235 C209 0.931 . S
H236 C214 0.930 . S
H237 C215 0.931 . S
H238 C217 0.931 1_556 S
H239 C218 0.931 . S
H240 C258 0.951 . S
H241 C260 0.951 . S
H242 C262 0.950 . S
H243 C263 0.950 . S
H244 C265 0.950 . S
H245 C268 0.950 . S
H246 C269 0.950 . S
H247 C271 0.950 . S
H248 C272 0.950 . S
H249 C273 0.951 . S
H250 C275 0.951 . S
H251 C277 0.950 . S
H252 C278 0.950 . S
H253 C280 0.950 . S
H254 C283 0.950 . S
H255 C284 0.950 . S
H256 C286 0.950 . S
H257 C287 0.950 . S
C258 H240 0.951 . S
C258 C259 1.366 . S
C258 C260 1.388 . S
C259 C258 1.366 . S
C259 C263 1.385 . S
C260 H241 0.951 . S
C260 C258 1.388 . S
C260 C261 1.366 . S
C261 C260 1.366 . S
C261 C262 1.414 . S
C261 C264 1.499 . S
C262 H242 0.950 . S
C262 C261 1.414 . S
C262 C263 1.374 . S
C263 H243 0.950 . S
C263 C259 1.385 . S
C263 C262 1.374 . S
C264 C261 1.499 . S
C264 C265 1.373 . S
C264 C266 1.389 . S
C265 H244 0.950 . S
C265 C264 1.373 . S
C265 C281 1.377 . S
C266 C264 1.389 . S
C266 C267 1.524 . S
C266 C280 1.377 . S
C267 C266 1.524 . S
C267 C268 1.397 . S
C267 C272 1.363 . S
C268 H245 0.950 . S
C268 C267 1.397 . S
C268 C269 1.334 . S
C269 H246 0.950 . S
C269 C268 1.334 . S
C269 C270 1.287 . S
C270 C269 1.287 . S
C270 C271 1.524 . S
C270 H289 0.913 . S
C271 H247 0.950 . S
C271 C270 1.524 . S
C271 C272 1.415 . S
C272 H248 0.950 . S
C272 C267 1.363 . S
C272 C271 1.415 . S
C273 H249 0.951 . S
C273 C274 1.366 . S
C273 C275 1.388 . S
C274 C273 1.366 . S
C274 C278 1.385 . S
C275 H250 0.951 . S
C275 C273 1.388 . S
C275 C276 1.366 . S
C276 C275 1.366 . S
C276 C277 1.414 . S
C276 C279 1.499 . S
C277 H251 0.950 . S
C277 C276 1.414 . S
C277 C278 1.374 . S
C278 H252 0.950 . S
C278 C274 1.385 . S
C278 C277 1.374 . S
C279 C276 1.499 . S
C279 C280 1.373 . S
C279 C281 1.389 . S
C280 H253 0.950 . S
C280 C266 1.377 . S
C280 C279 1.373 . S
C281 C265 1.377 . S
C281 C279 1.389 . S
C281 C282 1.524 . S
C282 C281 1.524 . S
C282 C283 1.397 . S
C282 C287 1.363 . S
C283 H254 0.950 . S
C283 C282 1.397 . S
C283 C284 1.334 . S
C284 H255 0.950 . S
C284 C283 1.334 . S
C284 C285 1.287 . S
C285 C284 1.287 . S
C285 C286 1.524 . S
C285 H288 0.999 . S
C286 H256 0.950 . S
C286 C285 1.524 . S
C286 C287 1.415 . S
C287 H257 0.950 . S
C287 C282 1.363 . S
C287 C286 1.415 . S
H288 C285 0.999 . S
H289 C270 0.913 . S
H290 C308 0.951 . S
H291 C310 0.951 . S
H292 C312 0.950 . S
H293 C313 0.950 . S
H294 C315 0.950 . S
H295 C318 0.950 . S
H296 C319 0.950 . S
H297 C321 0.950 . S
H298 C322 0.950 . S
H299 C323 0.951 . S
H300 C325 0.951 . S
H301 C327 0.950 . S
H302 C328 0.950 . S
H303 C330 0.934 1_655 S
H304 C333 0.950 . S
H305 C334 0.950 . S
H306 C336 0.950 . S
H307 C337 0.950 . S
C308 H290 0.951 . S
C308 C309 1.366 . S
C308 C310 1.388 . S
C309 C308 1.366 . S
C309 C313 1.385 . S
C310 H291 0.951 . S
C310 C308 1.388 . S
C310 C311 1.366 . S
C311 C310 1.366 . S
C311 C312 1.414 . S
C311 C314 1.499 . S
C312 H292 0.950 . S
C312 C311 1.414 . S
C312 C313 1.374 . S
C313 H293 0.950 . S
C313 C309 1.385 . S
C313 C312 1.374 . S
C314 C311 1.499 . S
C314 C315 1.373 . S
C314 C316 1.389 . S
C315 H294 0.950 . S
C315 C314 1.373 . S
C315 C331 1.377 . S
C316 C314 1.389 . S
C316 C317 1.524 . S
C316 C330 1.377 . S
C317 C316 1.524 . S
C317 C318 1.397 . S
C317 C322 1.363 1_455 S
C318 H295 0.950 . S
C318 C317 1.397 . S
C318 C319 1.334 . S
C319 H296 0.950 . S
C319 C318 1.334 . S
C319 C320 1.287 1_455 S
C320 C319 1.287 1_655 S
C320 C321 1.524 . S
C320 H339 0.913 . S
C321 H297 0.950 . S
C321 C320 1.524 . S
C321 C322 1.415 . S
C322 H298 0.950 . S
C322 C317 1.363 1_655 S
C322 C321 1.415 . S
C323 H299 0.951 . S
C323 C324 1.364 . S
C323 C325 1.388 . S
C324 C323 1.364 . S
C324 C328 1.385 1_455 S
C325 H300 0.951 . S
C325 C323 1.388 . S
C325 C326 1.366 . S
C326 C325 1.366 . S
C326 C327 1.414 1_455 S
C326 C329 1.499 . S
C327 H301 0.950 . S
C327 C326 1.414 1_655 S
C327 C328 1.374 . S
C328 H302 0.950 . S
C328 C324 1.385 1_655 S
C328 C327 1.374 . S
C329 C326 1.499 . S
C329 C330 1.373 . S
C329 C331 1.389 . S
C330 H303 0.934 1_455 S
C330 C316 1.377 . S
C330 C329 1.373 . S
C331 C315 1.377 . S
C331 C329 1.389 . S
C331 C332 1.524 . S
C332 C331 1.524 . S
C332 C333 1.397 . S
C332 C337 1.363 . S
C333 H304 0.950 . S
C333 C332 1.397 . S
C333 C334 1.334 . S
C334 H305 0.950 . S
C334 C333 1.334 . S
C334 C335 1.287 . S
C335 C334 1.287 . S
C335 C336 1.524 . S
C335 H338 0.999 . S
C336 H306 0.950 . S
C336 C335 1.524 . S
C336 C337 1.415 . S
C337 H307 0.950 . S
C337 C332 1.363 . S
C337 C336 1.415 . S
H338 C335 0.999 . S
H339 C320 0.913 . S
H340 C358 0.951 . S
H341 C360 0.951 . S
H342 C362 0.950 . S
H343 C363 0.950 . S
H344 C365 0.950 . S
H345 C368 0.950 . S
H346 C369 0.950 . S
H347 C371 0.950 . S
H348 C372 0.950 . S
H349 C373 0.951 . S
H350 C375 0.951 . S
H351 C377 0.950 . S
H352 C378 0.950 . S
H353 C380 0.950 . S
H354 C383 0.950 . S
H355 C384 0.950 . S
H356 C386 0.950 . S
H357 C387 0.950 . S
C358 H340 0.951 . S
C358 C359 1.366 . S
C358 C360 1.388 . S
C359 C358 1.366 . S
C359 C363 1.385 . S
C360 H341 0.951 . S
C360 C358 1.388 . S
C360 C361 1.366 . S
C361 C360 1.366 . S
C361 C362 1.414 . S
C361 C364 1.499 . S
C362 H342 0.950 . S
C362 C361 1.414 . S
C362 C363 1.374 . S
C363 H343 0.950 . S
C363 C359 1.385 . S
C363 C362 1.374 . S
C364 C361 1.499 . S
C364 C365 1.373 . S
C364 C366 1.389 . S
C365 H344 0.950 . S
C365 C364 1.373 . S
C365 C381 1.377 . S
C366 C364 1.389 . S
C366 C367 1.524 . S
C366 C380 1.377 . S
C367 C366 1.524 . S
C367 C368 1.397 . S
C367 C372 1.363 . S
C368 H345 0.950 . S
C368 C367 1.397 . S
C368 C369 1.334 . S
C369 H346 0.950 . S
C369 C368 1.334 . S
C369 C370 1.287 . S
C370 C369 1.287 . S
C370 C371 1.524 . S
C370 H389 0.913 . S
C371 H347 0.950 . S
C371 C370 1.524 . S
C371 C372 1.415 . S
C372 H348 0.950 . S
C372 C367 1.363 . S
C372 C371 1.415 . S
C373 H349 0.951 . S
C373 C374 1.366 . S
C373 C375 1.388 1_565 S
C374 C373 1.366 . S
C374 C378 1.385 . S
C375 H350 0.951 . S
C375 C373 1.388 1_545 S
C375 C376 1.366 . S
C376 C375 1.366 . S
C376 C377 1.414 1_545 S
C376 C379 1.499 . S
C377 H351 0.950 . S
C377 C376 1.414 1_565 S
C377 C378 1.374 . S
C378 H352 0.950 . S
C378 C374 1.385 . S
C378 C377 1.374 . S
C379 C376 1.499 . S
C379 C380 1.373 . S
C379 C381 1.389 . S
C380 H353 0.950 . S
C380 C366 1.377 . S
C380 C379 1.373 . S
C381 C365 1.377 . S
C381 C379 1.389 . S
C381 C382 1.524 . S
C382 C381 1.524 . S
C382 C383 1.397 . S
C382 C387 1.363 . S
C383 H354 0.950 . S
C383 C382 1.397 . S
C383 C384 1.334 . S
C384 H355 0.950 . S
C384 C383 1.334 . S
C384 C385 1.287 . S
C385 C384 1.287 . S
C385 C386 1.524 . S
C385 H388 0.999 . S
C386 H356 0.950 . S
C386 C385 1.524 . S
C386 C387 1.415 . S
C387 H357 0.950 . S
C387 C382 1.363 . S
C387 C386 1.415 . S
H388 C385 0.999 . S
H389 C370 0.913 . S
H390 C408 0.951 . S
H391 C410 0.951 . S
H392 C412 0.950 . S
H393 C413 0.950 . S
H394 C415 0.950 . S
H395 C418 0.950 . S
H396 C419 0.950 . S
H397 C421 0.950 . S
H398 C422 0.950 . S
H399 C423 0.951 . S
H400 C425 0.951 . S
H401 C427 0.950 . S
H402 C428 0.950 . S
H403 C430 0.950 . S
H404 C433 0.950 . S
H405 C434 0.950 . S
H406 C436 0.950 . S
H407 C437 0.950 . S
C408 H390 0.951 . S
C408 C409 1.366 . S
C408 C410 1.388 . S
C409 C408 1.366 . S
C409 C413 1.385 . S
C410 H391 0.951 . S
C410 C408 1.388 . S
C410 C411 1.366 . S
C411 C410 1.366 . S
C411 C412 1.414 . S
C411 C414 1.499 . S
C412 H392 0.950 . S
C412 C411 1.414 . S
C412 C413 1.374 . S
C413 H393 0.950 . S
C413 C409 1.385 . S
C413 C412 1.374 . S
C414 C411 1.499 . S
C414 C415 1.373 . S
C414 C416 1.389 . S
C415 H394 0.950 . S
C415 C414 1.373 . S
C415 C431 1.377 . S
C416 C414 1.389 . S
C416 C417 1.524 . S
C416 C430 1.377 . S
C417 C416 1.524 . S
C417 C418 1.397 . S
C417 C422 1.363 . S
C418 H395 0.950 . S
C418 C417 1.397 . S
C418 C419 1.334 . S
C419 H396 0.950 . S
C419 C418 1.334 . S
C419 C420 1.287 . S
C420 C419 1.287 . S
C420 C421 1.524 . S
C420 H439 0.913 . S
C421 H397 0.950 . S
C421 C420 1.524 . S
C421 C422 1.415 . S
C422 H398 0.950 . S
C422 C417 1.363 . S
C422 C421 1.415 . S
C423 H399 0.951 . S
C423 C424 1.366 . S
C423 C425 1.388 . S
C424 C423 1.366 . S
C424 C428 1.385 . S
C425 H400 0.951 . S
C425 C423 1.388 . S
C425 C426 1.366 . S
C426 C425 1.366 . S
C426 C427 1.414 . S
C426 C429 1.499 . S
C427 H401 0.950 . S
C427 C426 1.414 . S
C427 C428 1.374 . S
C428 H402 0.950 . S
C428 C424 1.385 . S
C428 C427 1.374 . S
C429 C426 1.499 . S
C429 C430 1.373 . S
C429 C431 1.389 . S
C430 H403 0.950 . S
C430 C416 1.377 . S
C430 C429 1.373 . S
C431 C415 1.377 . S
C431 C429 1.389 . S
C431 C432 1.524 . S
C432 C431 1.524 . S
C432 C433 1.397 . S
C432 C437 1.363 . S
C433 H404 0.950 . S
C433 C432 1.397 . S
C433 C434 1.334 . S
C434 H405 0.950 . S
C434 C433 1.334 . S
C434 C435 1.287 . S
C435 C434 1.287 . S
C435 C436 1.524 . S
C435 H438 0.999 . S
C436 H406 0.950 . S
C436 C435 1.524 . S
C436 C437 1.415 . S
C437 H407 0.950 . S
C437 C432 1.363 . S
C437 C436 1.415 . S
H438 C435 0.999 . S
H439 C420 0.913 . S
H440 C458 0.951 . S
H441 C460 0.951 . S
H442 C462 0.950 . S
H443 C463 0.950 . S
H444 C465 0.950 . S
H445 C468 0.950 . S
H446 C469 0.950 . S
H447 C471 0.950 . S
H448 C472 0.950 . S
H449 C473 0.951 . S
H450 C475 0.951 . S
H451 C477 0.950 . S
H452 C478 0.950 . S
H453 C480 0.950 . S
H454 C483 0.950 . S
H455 C484 0.950 . S
H456 C486 0.950 1_455 S
H457 C487 0.950 1_455 S
C458 H440 0.951 . S
C458 C459 1.365 . S
C458 C460 1.388 . S
C459 C458 1.365 . S
C459 C463 1.385 1_655 S
C460 H441 0.951 . S
C460 C458 1.388 . S
C460 C461 1.366 . S
C461 C460 1.366 . S
C461 C462 1.414 1_655 S
C461 C464 1.499 . S
C462 H442 0.950 . S
C462 C461 1.414 1_455 S
C462 C463 1.374 . S
C463 H443 0.950 . S
C463 C459 1.385 1_455 S
C463 C462 1.374 . S
C464 C461 1.499 . S
C464 C465 1.373 . S
C464 C466 1.389 . S
C465 H444 0.950 . S
C465 C464 1.373 . S
C465 C481 1.377 . S
C466 C464 1.389 . S
C466 C467 1.524 . S
C466 C480 1.377 . S
C467 C466 1.524 . S
C467 C468 1.397 . S
C467 C472 1.363 . S
C468 H445 0.950 . S
C468 C467 1.397 . S
C468 C469 1.334 . S
C469 H446 0.950 . S
C469 C468 1.334 . S
C469 C470 1.287 . S
C470 C469 1.287 . S
C470 C471 1.524 . S
C470 H489 0.913 . S
C471 H447 0.950 . S
C471 C470 1.524 . S
C471 C472 1.415 . S
C472 H448 0.950 . S
C472 C467 1.363 . S
C472 C471 1.415 . S
C473 H449 0.951 . S
C473 C474 1.366 . S
C473 C475 1.388 . S
C474 C473 1.366 . S
C474 C478 1.385 . S
C475 H450 0.951 . S
C475 C473 1.388 . S
C475 C476 1.366 . S
C476 C475 1.366 . S
C476 C477 1.414 . S
C476 C479 1.499 . S
C477 H451 0.950 . S
C477 C476 1.414 . S
C477 C478 1.374 . S
C478 H452 0.950 . S
C478 C474 1.385 . S
C478 C477 1.374 . S
C479 C476 1.499 . S
C479 C480 1.373 . S
C479 C481 1.389 . S
C480 H453 0.950 . S
C480 C466 1.377 . S
C480 C479 1.373 . S
C481 C465 1.377 . S
C481 C479 1.389 . S
C481 C482 1.524 . S
C482 C481 1.524 . S
C482 C483 1.397 . S
C482 C487 1.363 . S
C483 H454 0.950 . S
C483 C482 1.397 . S
C483 C484 1.334 . S
C484 H455 0.950 . S
C484 C483 1.334 . S
C484 C485 1.287 . S
C485 C484 1.287 . S
C485 C486 1.524 . S
C485 H488 0.999 . S
C486 H456 0.950 1_655 S
C486 C485 1.524 . S
C486 C487 1.415 . S
C487 H457 0.950 1_655 S
C487 C482 1.363 . S
C487 C486 1.415 . S
H488 C485 0.999 . S
H489 C470 0.913 . S
H490 C508 0.951 . S
H491 C510 0.951 . S
H492 C512 0.950 . S
H493 C513 0.950 . S
H494 C515 0.950 . S
H495 C518 0.950 . S
H496 C519 0.950 . S
H497 C521 0.950 . S
H498 C522 0.950 . S
H499 C523 0.951 . S
H500 C525 0.951 . S
H501 C527 0.950 . S
H502 C528 0.950 . S
H503 C530 0.950 . S
H504 C533 0.959 . S
H505 C534 0.950 1_545 S
H506 C536 0.950 . S
H507 C537 0.950 . S
C508 H490 0.951 . S
C508 C509 1.366 . S
C508 C510 1.388 . S
C509 C508 1.366 . S
C509 C513 1.385 . S
C510 H491 0.951 . S
C510 C508 1.388 . S
C510 C511 1.366 . S
C511 C510 1.366 . S
C511 C512 1.414 . S
C511 C514 1.499 . S
C512 H492 0.950 . S
C512 C511 1.414 . S
C512 C513 1.374 . S
C513 H493 0.950 . S
C513 C509 1.385 . S
C513 C512 1.374 . S
C514 C511 1.499 . S
C514 C515 1.373 . S
C514 C516 1.389 . S
C515 H494 0.950 . S
C515 C514 1.373 . S
C515 C531 1.377 . S
C516 C514 1.389 . S
C516 C517 1.524 . S
C516 C530 1.377 . S
C517 C516 1.524 . S
C517 C518 1.397 . S
C517 C522 1.363 . S
C518 H495 0.950 . S
C518 C517 1.397 . S
C518 C519 1.334 . S
C519 H496 0.950 . S
C519 C518 1.334 . S
C519 C520 1.287 . S
C520 C519 1.287 . S
C520 C521 1.524 . S
C520 H539 0.913 . S
C521 H497 0.950 . S
C521 C520 1.524 . S
C521 C522 1.415 . S
C522 H498 0.950 . S
C522 C517 1.363 . S
C522 C521 1.415 . S
C523 H499 0.951 . S
C523 C524 1.366 . S
C523 C525 1.388 1_545 S
C524 C523 1.366 . S
C524 C528 1.385 . S
C525 H500 0.951 . S
C525 C523 1.388 1_565 S
C525 C526 1.366 . S
C526 C525 1.366 . S
C526 C527 1.414 1_565 S
C526 C529 1.499 . S
C527 H501 0.950 . S
C527 C526 1.414 1_545 S
C527 C528 1.374 . S
C528 H502 0.950 . S
C528 C524 1.385 . S
C528 C527 1.374 . S
C529 C526 1.499 . S
C529 C530 1.373 . S
C529 C531 1.389 . S
C530 H503 0.950 . S
C530 C516 1.377 . S
C530 C529 1.373 . S
C531 C515 1.377 . S
C531 C529 1.389 . S
C531 C532 1.524 . S
C532 C531 1.524 . S
C532 C533 1.397 . S
C532 C537 1.363 . S
C533 H504 0.959 . S
C533 C532 1.397 . S
C533 C534 1.334 . S
C534 H505 0.950 1_565 S
C534 C533 1.334 . S
C534 C535 1.287 . S
C535 C534 1.287 . S
C535 C536 1.524 . S
C535 H538 0.999 . S
C536 H506 0.950 . S
C536 C535 1.524 . S
C536 C537 1.415 . S
C537 H507 0.950 . S
C537 C532 1.363 . S
C537 C536 1.415 . S
H538 C535 0.999 . S
H539 C520 0.913 . S
H540 C558 0.951 1_554 S
H541 C560 0.951 1_554 S
H542 C562 0.950 . S
H543 C563 0.950 . S
H544 C565 0.950 . S
H545 C568 0.950 . S
H546 C569 0.950 . S
H547 C571 0.950 . S
H548 C572 0.950 . S
H549 C573 0.951 . S
H550 C575 0.951 . S
H551 C577 0.950 . S
H552 C578 0.950 . S
H553 C580 0.950 1_554 S
H554 C583 0.950 . S
H555 C584 0.950 . S
H556 C586 0.950 . S
H557 C587 0.950 . S
C558 H540 0.951 1_556 S
C558 C559 1.366 . S
C558 C560 1.388 . S
C559 C558 1.366 . S
C559 C563 1.385 . S
C560 H541 0.951 1_556 S
C560 C558 1.388 . S
C560 C561 1.366 . S
C561 C560 1.366 . S
C561 C562 1.414 . S
C561 C564 1.499 . S
C562 H542 0.950 . S
C562 C561 1.414 . S
C562 C563 1.374 . S
C563 H543 0.950 . S
C563 C559 1.385 . S
C563 C562 1.374 . S
C564 C561 1.499 . S
C564 C565 1.373 . S
C564 C566 1.389 . S
C565 H544 0.950 . S
C565 C564 1.373 . S
C565 C581 1.377 . S
C566 C564 1.389 . S
C566 C567 1.524 1_556 S
C566 C580 1.377 . S
C567 C566 1.524 1_554 S
C567 C568 1.397 . S
C567 C572 1.363 . S
C568 H545 0.950 . S
C568 C567 1.397 . S
C568 C569 1.334 . S
C569 H546 0.950 . S
C569 C568 1.334 . S
C569 C570 1.287 . S
C570 C569 1.287 . S
C570 C571 1.524 . S
C570 H589 0.913 . S
C571 H547 0.950 . S
C571 C570 1.524 . S
C571 C572 1.415 . S
C572 H548 0.950 . S
C572 C567 1.363 . S
C572 C571 1.415 . S
C573 H549 0.951 . S
C573 C574 1.366 . S
C573 C575 1.388 . S
C574 C573 1.366 . S
C574 C578 1.385 . S
C575 H550 0.951 . S
C575 C573 1.388 . S
C575 C576 1.366 . S
C576 C575 1.366 . S
C576 C577 1.414 . S
C576 C579 1.499 . S
C577 H551 0.950 . S
C577 C576 1.414 . S
C577 C578 1.374 . S
C578 H552 0.950 . S
C578 C574 1.385 . S
C578 C577 1.374 . S
C579 C576 1.499 . S
C579 C580 1.373 . S
C579 C581 1.389 . S
C580 H553 0.950 1_556 S
C580 C566 1.377 . S
C580 C579 1.373 . S
C581 C565 1.377 . S
C581 C579 1.389 . S
C581 C582 1.524 . S
C582 C581 1.524 . S
C582 C583 1.397 . S
C582 C587 1.363 . S
C583 H554 0.950 . S
C583 C582 1.397 . S
C583 C584 1.334 . S
C584 H555 0.950 . S
C584 C583 1.334 . S
C584 C585 1.287 . S
C585 C584 1.287 . S
C585 C586 1.524 . S
C585 H588 0.999 . S
C586 H556 0.950 . S
C586 C585 1.524 . S
C586 C587 1.415 . S
C587 H557 0.950 . S
C587 C582 1.363 . S
C587 C586 1.415 . S
H588 C585 0.999 . S
H589 C570 0.913 . S
H590 C608 0.951 . S
H591 C610 0.951 . S
H592 C612 0.950 . S
H593 C613 0.950 . S
H594 C615 0.950 1_556 S
H595 C618 0.950 . S
H596 C619 0.950 . S
H597 C621 0.950 . S
H598 C622 0.950 1_556 S
H599 C623 0.951 . S
H600 C625 0.951 . S
H601 C627 0.950 . S
H602 C628 0.950 . S
H603 C630 0.950 . S
H604 C633 0.950 . S
H605 C634 0.950 . S
H606 C636 0.950 1_554 S
H607 C637 0.950 . S
C608 H590 0.951 . S
C608 C609 1.366 1_556 S
C608 C610 1.388 . S
C609 C608 1.366 1_554 S
C609 C613 1.385 . S
C610 H591 0.951 . S
C610 C608 1.388 . S
C610 C611 1.366 1_556 S
C611 C610 1.366 1_554 S
C611 C612 1.414 . S
C611 C614 1.499 . S
C612 H592 0.950 . S
C612 C611 1.414 . S
C612 C613 1.374 . S
C613 H593 0.950 . S
C613 C609 1.385 . S
C613 C612 1.374 . S
C614 C611 1.499 . S
C614 C615 1.373 . S
C614 C616 1.389 . S
C615 H594 0.950 1_554 S
C615 C614 1.373 . S
C615 C631 1.377 . S
C616 C614 1.389 . S
C616 C617 1.524 . S
C616 C630 1.377 . S
C617 C616 1.524 . S
C617 C618 1.397 . S
C617 C622 1.363 . S
C618 H595 0.950 . S
C618 C617 1.397 . S
C618 C619 1.334 . S
C619 H596 0.950 . S
C619 C618 1.334 . S
C619 C620 1.287 . S
C620 C619 1.287 . S
C620 C621 1.524 . S
C620 H639 0.913 . S
C621 H597 0.950 . S
C621 C620 1.524 . S
C621 C622 1.415 . S
C622 H598 0.950 1_554 S
C622 C617 1.363 . S
C622 C621 1.415 . S
C623 H599 0.951 . S
C623 C624 1.366 . S
C623 C625 1.388 . S
C624 C623 1.366 . S
C624 C628 1.385 1_554 S
C625 H600 0.951 . S
C625 C623 1.388 . S
C625 C626 1.366 . S
C626 C625 1.366 . S
C626 C627 1.414 1_554 S
C626 C629 1.499 . S
C627 H601 0.950 . S
C627 C626 1.414 1_556 S
C627 C628 1.374 . S
C628 H602 0.950 . S
C628 C624 1.385 1_556 S
C628 C627 1.374 . S
C629 C626 1.499 . S
C629 C630 1.373 . S
C629 C631 1.389 . S
C630 H603 0.950 . S
C630 C616 1.377 . S
C630 C629 1.373 . S
C631 C615 1.377 . S
C631 C629 1.389 . S
C631 C632 1.524 1_554 S
C632 C631 1.524 1_556 S
C632 C633 1.397 . S
C632 C637 1.363 1_556 S
C633 H604 0.950 . S
C633 C632 1.397 . S
C633 C634 1.334 . S
C634 H605 0.950 . S
C634 C633 1.334 . S
C634 C635 1.287 . S
C635 C634 1.287 . S
C635 C636 1.524 . S
C635 H638 0.999 . S
C636 H606 0.950 1_556 S
C636 C635 1.524 . S
C636 C637 1.415 1_556 S
C637 H607 0.950 . S
C637 C632 1.363 1_554 S
C637 C636 1.415 1_554 S
H638 C635 0.999 . S
H639 C620 0.913 . S
H640 C658 0.951 . S
H641 C660 0.951 . S
H642 C662 0.950 . S
H643 C663 0.950 . S
H644 C665 0.950 . S
H645 C668 0.950 . S
H646 C669 0.950 . S
H647 C671 0.950 . S
H648 C672 0.950 . S
H649 C673 0.951 . S
H650 C675 0.951 . S
H651 C677 0.950 . S
H652 C678 0.950 . S
H653 C680 0.950 . S
H654 C683 0.950 . S
H655 C684 0.950 . S
H656 C686 0.950 . S
H657 C687 0.950 . S
C658 H640 0.951 . S
C658 C659 1.366 . S
C658 C660 1.388 . S
C659 C658 1.366 . S
C659 C663 1.385 . S
C660 H641 0.951 . S
C660 C658 1.388 . S
C660 C661 1.366 . S
C661 C660 1.366 . S
C661 C662 1.414 . S
C661 C664 1.499 . S
C662 H642 0.950 . S
C662 C661 1.414 . S
C662 C663 1.374 . S
C663 H643 0.950 . S
C663 C659 1.385 . S
C663 C662 1.374 . S
C664 C661 1.499 . S
C664 C665 1.373 . S
C664 C666 1.389 . S
C665 H644 0.950 . S
C665 C664 1.373 . S
C665 C681 1.377 . S
C666 C664 1.389 . S
C666 C667 1.524 . S
C666 C680 1.377 . S
C667 C666 1.524 . S
C667 C668 1.397 . S
C667 C672 1.363 . S
C668 H645 0.950 . S
C668 C667 1.397 . S
C668 C669 1.334 . S
C669 H646 0.950 . S
C669 C668 1.334 . S
C669 C670 1.287 . S
C670 C669 1.287 . S
C670 C671 1.524 . S
C670 H689 0.913 . S
C671 H647 0.950 . S
C671 C670 1.524 . S
C671 C672 1.415 . S
C672 H648 0.950 . S
C672 C667 1.363 . S
C672 C671 1.415 . S
C673 H649 0.951 . S
C673 C674 1.366 . S
C673 C675 1.388 . S
C674 C673 1.366 . S
C674 C678 1.385 1_556 S
C675 H650 0.951 . S
C675 C673 1.388 . S
C675 C676 1.366 . S
C676 C675 1.366 . S
C676 C677 1.414 1_556 S
C676 C679 1.499 . S
C677 H651 0.950 . S
C677 C676 1.414 1_554 S
C677 C678 1.374 . S
C678 H652 0.950 . S
C678 C674 1.385 1_554 S
C678 C677 1.374 . S
C679 C676 1.499 . S
C679 C680 1.373 . S
C679 C681 1.389 . S
C680 H653 0.950 . S
C680 C666 1.377 . S
C680 C679 1.373 . S
C681 C665 1.377 . S
C681 C679 1.389 . S
C681 C682 1.524 . S
C682 C681 1.524 . S
C682 C683 1.397 1_556 S
C682 C687 1.363 . S
C683 H654 0.950 . S
C683 C682 1.397 1_554 S
C683 C684 1.334 . S
C684 H655 0.950 . S
C684 C683 1.334 . S
C684 C685 1.287 . S
C685 C684 1.287 . S
C685 C686 1.524 1_554 S
C685 H688 0.999 . S
C686 H656 0.950 . S
C686 C685 1.524 1_556 S
C686 C687 1.415 . S
C687 H657 0.950 . S
C687 C682 1.363 . S
C687 C686 1.415 . S
H688 C685 0.999 . S
H689 C670 0.913 . S
H690 C708 0.951 . S
H691 C710 0.940 1_556 S
H692 C712 0.950 . S
H693 C713 0.950 . S
H694 C715 0.950 . S
H695 C718 0.950 . S
H696 C719 0.950 . S
H697 C721 0.950 . S
H698 C722 0.950 . S
H699 C723 0.951 . S
H700 C725 0.951 . S
H701 C727 0.950 . S
H702 C728 0.950 . S
H703 C730 0.950 . S
H704 C733 0.950 . S
H705 C734 0.950 . S
H706 C736 0.950 . S
H707 C737 0.950 . S
C708 H690 0.951 . S
C708 C709 1.366 . S
C708 C710 1.388 . S
C709 C708 1.366 . S
C709 C713 1.385 . S
C710 H691 0.940 1_554 S
C710 C708 1.388 . S
C710 C711 1.366 . S
C711 C710 1.366 . S
C711 C712 1.414 . S
C711 C714 1.499 . S
C712 H692 0.950 . S
C712 C711 1.414 . S
C712 C713 1.374 . S
C713 H693 0.950 . S
C713 C709 1.385 . S
C713 C712 1.374 . S
C714 C711 1.499 . S
C714 C715 1.373 . S
C714 C716 1.389 1_554 S
C715 H694 0.950 . S
C715 C714 1.373 . S
C715 C731 1.377 . S
C716 C714 1.389 1_556 S
C716 C717 1.524 . S
C716 C730 1.377 . S
C717 C716 1.524 . S
C717 C718 1.397 . S
C717 C722 1.363 . S
C718 H695 0.950 . S
C718 C717 1.397 . S
C718 C719 1.334 . S
C719 H696 0.950 . S
C719 C718 1.334 . S
C719 C720 1.287 . S
C720 C719 1.287 . S
C720 C721 1.524 . S
C720 H739 0.913 . S
C721 H697 0.950 . S
C721 C720 1.524 . S
C721 C722 1.415 . S
C722 H698 0.950 . S
C722 C717 1.363 . S
C722 C721 1.415 . S
C723 H699 0.951 . S
C723 C724 1.366 . S
C723 C725 1.388 . S
C724 C723 1.366 . S
C724 C728 1.385 1_554 S
C725 H700 0.951 . S
C725 C723 1.388 . S
C725 C726 1.366 . S
C726 C725 1.366 . S
C726 C727 1.414 1_554 S
C726 C729 1.499 . S
C727 H701 0.950 . S
C727 C726 1.414 1_556 S
C727 C728 1.374 . S
C728 H702 0.950 . S
C728 C724 1.385 1_556 S
C728 C727 1.374 . S
C729 C726 1.499 . S
C729 C730 1.373 1_554 S
C729 C731 1.389 . S
C730 H703 0.950 . S
C730 C716 1.377 . S
C730 C729 1.373 1_556 S
C731 C715 1.377 . S
C731 C729 1.389 . S
C731 C732 1.524 . S
C732 C731 1.524 . S
C732 C733 1.397 . S
C732 C737 1.363 . S
C733 H704 0.950 . S
C733 C732 1.397 . S
C733 C734 1.334 . S
C734 H705 0.950 . S
C734 C733 1.334 . S
C734 C735 1.287 . S
C735 C734 1.287 . S
C735 C736 1.524 . S
C735 H738 0.999 . S
C736 H706 0.950 . S
C736 C735 1.524 . S
C736 C737 1.415 . S
C737 H707 0.950 . S
C737 C732 1.363 . S
C737 C736 1.415 . S
H738 C735 0.999 . S
H739 C720 0.913 . S
H740 C758 0.951 . S
H741 C760 0.951 . S
H742 C762 0.950 . S
H743 C763 0.950 . S
H744 C765 0.950 . S
H745 C768 0.950 . S
H746 C769 0.950 . S
H747 C771 0.950 . S
H748 C772 0.950 . S
H749 C773 0.951 . S
H750 C775 0.951 . S
H751 C777 0.950 . S
H752 C778 0.950 . S
H753 C780 0.950 1_554 S
H754 C783 0.950 . S
H755 C784 0.950 . S
H756 C786 0.950 . S
H757 C787 0.950 . S
C758 H740 0.951 . S
C758 C759 1.366 1_554 S
C758 C760 1.388 . S
C759 C758 1.366 1_556 S
C759 C763 1.385 . S
C760 H741 0.951 . S
C760 C758 1.388 . S
C760 C761 1.366 1_554 S
C761 C760 1.366 1_556 S
C761 C762 1.414 . S
C761 C764 1.499 . S
C762 H742 0.950 . S
C762 C761 1.414 . S
C762 C763 1.374 . S
C763 H743 0.950 . S
C763 C759 1.385 . S
C763 C762 1.374 . S
C764 C761 1.499 . S
C764 C765 1.373 . S
C764 C766 1.389 . S
C765 H744 0.950 . S
C765 C764 1.373 . S
C765 C781 1.377 . S
C766 C764 1.389 . S
C766 C767 1.524 1_556 S
C766 C780 1.377 . S
C767 C766 1.524 1_554 S
C767 C768 1.397 1_554 S
C767 C772 1.363 . S
C768 H745 0.950 . S
C768 C767 1.397 1_556 S
C768 C769 1.334 . S
C769 H746 0.950 . S
C769 C768 1.334 . S
C769 C770 1.287 1_556 S
C770 C769 1.287 1_554 S
C770 C771 1.524 . S
C770 H789 0.913 . S
C771 H747 0.950 . S
C771 C770 1.524 . S
C771 C772 1.415 . S
C772 H748 0.950 . S
C772 C767 1.363 . S
C772 C771 1.415 . S
C773 H749 0.951 . S
C773 C774 1.366 . S
C773 C775 1.388 . S
C774 C773 1.366 . S
C774 C778 1.385 1_556 S
C775 H750 0.951 . S
C775 C773 1.388 . S
C775 C776 1.366 . S
C776 C775 1.366 . S
C776 C777 1.414 1_556 S
C776 C779 1.499 . S
C777 H751 0.950 . S
C777 C776 1.414 1_554 S
C777 C778 1.374 . S
C778 H752 0.950 . S
C778 C774 1.385 1_554 S
C778 C777 1.374 . S
C779 C776 1.499 . S
C779 C780 1.373 . S
C779 C781 1.389 . S
C780 H753 0.950 1_556 S
C780 C766 1.377 . S
C780 C779 1.373 . S
C781 C765 1.377 . S
C781 C779 1.389 . S
C781 C782 1.524 . S
C782 C781 1.524 . S
C782 C783 1.397 . S
C782 C787 1.363 . S
C783 H754 0.950 . S
C783 C782 1.397 . S
C783 C784 1.334 . S
C784 H755 0.950 . S
C784 C783 1.334 . S
C784 C785 1.287 . S
C785 C784 1.287 . S
C785 C786 1.524 . S
C785 H788 0.999 . S
C786 H756 0.950 . S
C786 C785 1.524 . S
C786 C787 1.415 . S
C787 H757 0.950 . S
C787 C782 1.363 . S
C787 C786 1.415 . S
H788 C785 0.999 . S
H789 C770 0.913 . S
H790 C808 0.951 . S
H791 C810 0.951 . S
H792 C812 0.950 . S
H793 C813 0.950 . S
H794 C815 0.950 . S
H795 C818 0.950 . S
H796 C819 0.950 . S
H797 C821 0.950 . S
H798 C822 0.950 . S
H799 C823 0.951 1_556 S
H800 C825 0.951 1_556 S
H801 C827 0.950 . S
H802 C828 0.950 . S
H803 C830 0.950 . S
H804 C833 0.950 . S
H805 C834 0.950 . S
H806 C836 0.950 1_556 S
H807 C837 0.950 . S
C808 H790 0.951 . S
C808 C809 1.366 . S
C808 C810 1.388 . S
C809 C808 1.366 . S
C809 C813 1.385 1_554 S
C810 H791 0.951 . S
C810 C808 1.388 . S
C810 C811 1.366 . S
C811 C810 1.366 . S
C811 C812 1.414 1_554 S
C811 C814 1.499 . S
C812 H792 0.950 . S
C812 C811 1.414 1_556 S
C812 C813 1.374 . S
C813 H793 0.950 . S
C813 C809 1.385 1_556 S
C813 C812 1.374 . S
C814 C811 1.499 . S
C814 C815 1.373 . S
C814 C816 1.389 . S
C815 H794 0.950 . S
C815 C814 1.373 . S
C815 C831 1.377 . S
C816 C814 1.389 . S
C816 C817 1.524 . S
C816 C830 1.377 . S
C817 C816 1.524 . S
C817 C818 1.397 1_554 S
C817 C822 1.363 . S
C818 H795 0.950 . S
C818 C817 1.397 1_556 S
C818 C819 1.334 . S
C819 H796 0.950 . S
C819 C818 1.334 . S
C819 C820 1.287 . S
C820 C819 1.287 . S
C820 C821 1.524 1_556 S
C820 H839 0.913 . S
C821 H797 0.950 . S
C821 C820 1.524 1_554 S
C821 C822 1.415 . S
C822 H798 0.950 . S
C822 C817 1.363 . S
C822 C821 1.415 . S
C823 H799 0.951 1_554 S
C823 C824 1.366 . S
C823 C825 1.388 . S
C824 C823 1.366 . S
C824 C828 1.385 . S
C825 H800 0.951 1_554 S
C825 C823 1.388 . S
C825 C826 1.366 . S
C826 C825 1.366 . S
C826 C827 1.414 . S
C826 C829 1.499 . S
C827 H801 0.950 . S
C827 C826 1.414 . S
C827 C828 1.374 . S
C828 H802 0.950 . S
C828 C824 1.385 . S
C828 C827 1.374 . S
C829 C826 1.499 . S
C829 C830 1.373 . S
C829 C831 1.389 . S
C830 H803 0.950 . S
C830 C816 1.377 . S
C830 C829 1.373 . S
C831 C815 1.377 . S
C831 C829 1.389 . S
C831 C832 1.524 . S
C832 C831 1.524 . S
C832 C833 1.397 . S
C832 C837 1.363 1_554 S
C833 H804 0.950 . S
C833 C832 1.397 . S
C833 C834 1.334 . S
C834 H805 0.950 . S
C834 C833 1.334 . S
C834 C835 1.287 . S
C835 C834 1.287 . S
C835 C836 1.524 . S
C835 H838 0.999 . S
C836 H806 0.950 1_554 S
C836 C835 1.524 . S
C836 C837 1.415 1_554 S
C837 H807 0.950 . S
C837 C832 1.363 1_556 S
C837 C836 1.415 1_556 S
H838 C835 0.999 . S
H839 C820 0.913 . S
H840 C858 0.951 . S
H841 C860 0.951 . S
H842 C862 0.950 . S
H843 C863 0.950 . S
H844 C865 0.950 . S
H845 C868 0.950 . S
H846 C869 0.950 . S
H847 C871 0.950 . S
H848 C872 0.950 . S
H849 C873 0.951 . S
H850 C875 0.951 . S
H851 C877 0.950 . S
H852 C878 0.950 . S
H853 C880 0.950 . S
H854 C883 0.950 . S
H855 C884 0.950 . S
H856 C886 0.950 . S
H857 C887 0.950 . S
C858 H840 0.951 . S
C858 C859 1.366 . S
C858 C860 1.388 . S
C859 C858 1.366 . S
C859 C863 1.385 . S
C860 H841 0.951 . S
C860 C858 1.388 . S
C860 C861 1.366 . S
C861 C860 1.366 . S
C861 C862 1.414 . S
C861 C864 1.499 . S
C862 H842 0.950 . S
C862 C861 1.414 . S
C862 C863 1.374 . S
C863 H843 0.950 . S
C863 C859 1.385 . S
C863 C862 1.374 . S
C864 C861 1.499 . S
C864 C865 1.373 . S
C864 C866 1.389 . S
C865 H844 0.950 . S
C865 C864 1.373 . S
C865 C881 1.377 . S
C866 C864 1.389 . S
C866 C867 1.524 . S
C866 C880 1.377 . S
C867 C866 1.524 . S
C867 C868 1.397 . S
C867 C872 1.363 . S
C868 H845 0.950 . S
C868 C867 1.397 . S
C868 C869 1.334 . S
C869 H846 0.950 . S
C869 C868 1.334 . S
C869 C870 1.287 . S
C870 C869 1.287 . S
C870 C871 1.524 . S
C870 H889 0.913 . S
C871 H847 0.950 . S
C871 C870 1.524 . S
C871 C872 1.415 . S
C872 H848 0.950 . S
C872 C867 1.363 . S
C872 C871 1.415 . S
C873 H849 0.951 . S
C873 C874 1.366 . S
C873 C875 1.388 . S
C874 C873 1.366 . S
C874 C878 1.385 . S
C875 H850 0.951 . S
C875 C873 1.388 . S
C875 C876 1.366 . S
C876 C875 1.366 . S
C876 C877 1.414 . S
C876 C879 1.499 . S
C877 H851 0.950 . S
C877 C876 1.414 . S
C877 C878 1.374 . S
C878 H852 0.950 . S
C878 C874 1.385 . S
C878 C877 1.374 . S
C879 C876 1.499 . S
C879 C880 1.373 . S
C879 C881 1.389 . S
C880 H853 0.950 . S
C880 C866 1.377 . S
C880 C879 1.373 . S
C881 C865 1.377 . S
C881 C879 1.389 . S
C881 C882 1.524 . S
C882 C881 1.524 . S
C882 C883 1.397 . S
C882 C887 1.363 . S
C883 H854 0.950 . S
C883 C882 1.397 . S
C883 C884 1.334 . S
C884 H855 0.950 . S
C884 C883 1.334 . S
C884 C885 1.287 . S
C885 C884 1.287 . S
C885 C886 1.524 . S
C885 H888 0.999 . S
C886 H856 0.950 . S
C886 C885 1.524 . S
C886 C887 1.415 . S
C887 H857 0.950 . S
C887 C882 1.363 . S
C887 C886 1.415 . S
H888 C885 0.999 . S
H889 C870 0.913 . S
H890 C908 0.951 . S
H891 C910 0.951 . S
H892 C912 0.950 . S
H893 C913 0.950 . S
H894 C915 0.950 . S
H895 C918 0.950 . S
H896 C919 0.950 . S
H897 C921 0.950 . S
H898 C922 0.950 . S
H899 C923 0.951 . S
H900 C925 0.951 . S
H901 C927 0.950 . S
H902 C928 0.950 . S
H903 C930 0.950 . S
H904 C933 0.950 . S
H905 C934 0.950 . S
H906 C936 0.950 . S
H907 C937 0.950 . S
C908 H890 0.951 . S
C908 C909 1.366 . S
C908 C910 1.388 . S
C909 C908 1.366 . S
C909 C913 1.385 . S
C910 H891 0.951 . S
C910 C908 1.388 . S
C910 C911 1.366 . S
C911 C910 1.366 . S
C911 C912 1.414 . S
C911 C914 1.499 . S
C912 H892 0.950 . S
C912 C911 1.414 . S
C912 C913 1.374 . S
C913 H893 0.950 . S
C913 C909 1.385 . S
C913 C912 1.374 . S
C914 C911 1.499 . S
C914 C915 1.373 . S
C914 C916 1.389 . S
C915 H894 0.950 . S
C915 C914 1.373 . S
C915 C931 1.377 . S
C916 C914 1.389 . S
C916 C917 1.524 . S
C916 C930 1.377 . S
C917 C916 1.524 . S
C917 C918 1.397 . S
C917 C922 1.363 . S
C918 H895 0.950 . S
C918 C917 1.397 . S
C918 C919 1.334 . S
C919 H896 0.950 . S
C919 C918 1.334 . S
C919 C920 1.287 . S
C920 C919 1.287 . S
C920 C921 1.524 . S
C920 H939 0.913 . S
C921 H897 0.950 . S
C921 C920 1.524 . S
C921 C922 1.415 . S
C922 H898 0.950 . S
C922 C917 1.363 . S
C922 C921 1.415 . S
C923 H899 0.951 . S
C923 C924 1.366 . S
C923 C925 1.388 . S
C924 C923 1.366 . S
C924 C928 1.385 . S
C925 H900 0.951 . S
C925 C923 1.388 . S
C925 C926 1.366 . S
C926 C925 1.366 . S
C926 C927 1.414 . S
C926 C929 1.499 . S
C927 H901 0.950 . S
C927 C926 1.414 . S
C927 C928 1.374 . S
C928 H902 0.950 . S
C928 C924 1.385 . S
C928 C927 1.374 . S
C929 C926 1.499 . S
C929 C930 1.373 . S
C929 C931 1.389 . S
C930 H903 0.950 . S
C930 C916 1.377 . S
C930 C929 1.373 . S
C931 C915 1.377 . S
C931 C929 1.389 . S
C931 C932 1.524 . S
C932 C931 1.524 . S
C932 C933 1.397 . S
C932 C937 1.363 . S
C933 H904 0.950 . S
C933 C932 1.397 . S
C933 C934 1.334 . S
C934 H905 0.950 . S
C934 C933 1.334 . S
C934 C935 1.287 . S
C935 C934 1.287 . S
C935 C936 1.524 . S
C935 H938 0.999 . S
C936 H906 0.950 . S
C936 C935 1.524 . S
C936 C937 1.415 . S
C937 H907 0.950 . S
C937 C932 1.363 . S
C937 C936 1.415 . S
H938 C935 0.999 . S
H939 C920 0.913 . S
H940 C958 0.951 . S
H941 C960 0.951 . S
H942 C962 0.950 . S
H943 C963 0.950 . S
H944 C965 0.950 . S
H945 C968 0.950 . S
H946 C969 0.950 . S
H947 C971 0.950 . S
H948 C972 0.950 . S
H949 C973 0.951 . S
H950 C975 0.951 . S
H951 C977 0.950 . S
H952 C978 0.950 . S
H953 C980 0.950 . S
H954 C983 0.950 . S
H955 C984 0.950 . S
H956 C986 0.950 . S
H957 C987 0.950 . S
C958 H940 0.951 . S
C958 C959 1.366 . S
C958 C960 1.388 . S
C959 C958 1.366 . S
C959 C963 1.385 . S
C960 H941 0.951 . S
C960 C958 1.388 . S
C960 C961 1.366 . S
C961 C960 1.366 . S
C961 C962 1.414 . S
C961 C964 1.499 . S
C962 H942 0.950 . S
C962 C961 1.414 . S
C962 C963 1.374 . S
C963 H943 0.950 . S
C963 C959 1.385 . S
C963 C962 1.374 . S
C964 C961 1.499 . S
C964 C965 1.373 . S
C964 C966 1.389 . S
C965 H944 0.950 . S
C965 C964 1.373 . S
C965 C981 1.377 . S
C966 C964 1.389 . S
C966 C967 1.524 . S
C966 C980 1.377 . S
C967 C966 1.524 . S
C967 C968 1.397 . S
C967 C972 1.363 . S
C968 H945 0.950 . S
C968 C967 1.397 . S
C968 C969 1.334 . S
C969 H946 0.950 . S
C969 C968 1.334 . S
C969 C970 1.287 . S
C970 C969 1.287 . S
C970 C971 1.524 . S
C970 H989 0.913 . S
C971 H947 0.950 . S
C971 C970 1.524 . S
C971 C972 1.415 . S
C972 H948 0.950 . S
C972 C967 1.363 . S
C972 C971 1.415 . S
C973 H949 0.951 . S
C973 C974 1.366 . S
C973 C975 1.388 . S
C974 C973 1.366 . S
C974 C978 1.385 . S
C975 H950 0.951 . S
C975 C973 1.388 . S
C975 C976 1.366 . S
C976 C975 1.366 . S
C976 C977 1.414 . S
C976 C979 1.499 . S
C977 H951 0.950 . S
C977 C976 1.414 . S
C977 C978 1.374 . S
C978 H952 0.950 . S
C978 C974 1.385 . S
C978 C977 1.374 . S
C979 C976 1.499 . S
C979 C980 1.373 . S
C979 C981 1.389 . S
C980 H953 0.950 . S
C980 C966 1.377 . S
C980 C979 1.373 . S
C981 C965 1.377 . S
C981 C979 1.389 . S
C981 C982 1.524 . S
C982 C981 1.524 . S
C982 C983 1.397 . S
C982 C987 1.363 . S
C983 H954 0.950 . S
C983 C982 1.397 . S
C983 C984 1.334 . S
C984 H955 0.950 . S
C984 C983 1.334 . S
C984 C985 1.287 . S
C985 C984 1.287 . S
C985 C986 1.524 . S
C985 H988 0.999 . S
C986 H956 0.950 . S
C986 C985 1.524 . S
C986 C987 1.415 . S
C987 H957 0.950 . S
C987 C982 1.363 . S
C987 C986 1.415 . S
H988 C985 0.999 . S
H989 C970 0.913 . S
H990 C1008 0.951 . S
H991 C1010 0.951 . S
H992 C1012 0.950 . S
H993 C1013 0.950 . S
H994 C1015 0.950 . S
H995 C1018 0.950 . S
H996 C1019 0.950 . S
H997 C1021 0.950 . S
H998 C1022 0.950 . S
H999 C1023 0.951 . S
H1000 C1025 0.951 . S
H1001 C1027 0.950 . S
H1002 C1028 0.950 . S
H1003 C1030 0.950 . S
H1004 C1033 0.950 . S
H1005 C1034 0.950 . S
H1006 C1036 0.950 . S
H1007 C1037 0.950 . S
C1008 H990 0.951 . S
C1008 C1009 1.366 . S
C1008 C1010 1.388 . S
C1009 C1008 1.366 . S
C1009 C1013 1.385 . S
C1010 H991 0.951 . S
C1010 C1008 1.388 . S
C1010 C1011 1.366 . S
C1011 C1010 1.366 . S
C1011 C1012 1.414 . S
C1011 C1014 1.499 . S
C1012 H992 0.950 . S
C1012 C1011 1.414 . S
C1012 C1013 1.374 . S
C1013 H993 0.950 . S
C1013 C1009 1.385 . S
C1013 C1012 1.374 . S
C1014 C1011 1.499 . S
C1014 C1015 1.373 . S
C1014 C1016 1.389 . S
C1015 H994 0.950 . S
C1015 C1014 1.373 . S
C1015 C1031 1.377 . S
C1016 C1014 1.389 . S
C1016 C1017 1.524 . S
C1016 C1030 1.377 . S
C1017 C1016 1.524 . S
C1017 C1018 1.397 . S
C1017 C1022 1.363 . S
C1018 H995 0.950 . S
C1018 C1017 1.397 . S
C1018 C1019 1.334 . S
C1019 H996 0.950 . S
C1019 C1018 1.334 . S
C1019 C1020 1.287 . S
C1020 C1019 1.287 . S
C1020 C1021 1.524 . S
C1020 H1039 0.913 . S
C1021 H997 0.950 . S
C1021 C1020 1.524 . S
C1021 C1022 1.415 . S
C1022 H998 0.950 . S
C1022 C1017 1.363 . S
C1022 C1021 1.415 . S
C1023 H999 0.951 . S
C1023 C1024 1.366 . S
C1023 C1025 1.388 . S
C1024 C1023 1.366 . S
C1024 C1028 1.385 . S
C1025 H1000 0.951 . S
C1025 C1023 1.388 . S
C1025 C1026 1.366 . S
C1026 C1025 1.366 . S
C1026 C1027 1.414 . S
C1026 C1029 1.499 . S
C1027 H1001 0.950 . S
C1027 C1026 1.414 . S
C1027 C1028 1.374 . S
C1028 H1002 0.950 . S
C1028 C1024 1.385 . S
C1028 C1027 1.374 . S
C1029 C1026 1.499 . S
C1029 C1030 1.373 . S
C1029 C1031 1.389 . S
C1030 H1003 0.950 . S
C1030 C1016 1.377 . S
C1030 C1029 1.373 . S
C1031 C1015 1.377 . S
C1031 C1029 1.389 . S
C1031 C1032 1.524 . S
C1032 C1031 1.524 . S
C1032 C1033 1.397 . S
C1032 C1037 1.363 . S
C1033 H1004 0.950 . S
C1033 C1032 1.397 . S
C1033 C1034 1.334 . S
C1034 H1005 0.950 . S
C1034 C1033 1.334 . S
C1034 C1035 1.287 . S
C1035 C1034 1.287 . S
C1035 C1036 1.524 . S
C1035 H1038 0.999 . S
C1036 H1006 0.950 . S
C1036 C1035 1.524 . S
C1036 C1037 1.415 . S
C1037 H1007 0.950 . S
C1037 C1032 1.363 . S
C1037 C1036 1.415 . S
H1038 C1035 0.999 . S
H1039 C1020 0.913 . S
H1040 C1058 0.951 . S
H1041 C1060 0.951 . S
H1042 C1062 0.950 . S
H1043 C1063 0.950 . S
H1044 C1065 0.950 . S
H1045 C1068 0.950 . S
H1046 C1069 0.950 . S
H1047 C1071 0.950 . S
H1048 C1072 0.950 . S
H1049 C1073 0.951 . S
H1050 C1075 0.951 . S
H1051 C1077 0.950 . S
H1052 C1078 0.950 . S
H1053 C1080 0.950 . S
H1054 C1083 0.950 . S
H1055 C1084 0.950 . S
H1056 C1086 0.950 . S
H1057 C1087 0.950 . S
C1058 H1040 0.951 . S
C1058 C1059 1.366 . S
C1058 C1060 1.388 . S
C1059 C1058 1.366 . S
C1059 C1063 1.385 . S
C1060 H1041 0.951 . S
C1060 C1058 1.388 . S
C1060 C1061 1.366 . S
C1061 C1060 1.366 . S
C1061 C1062 1.414 . S
C1061 C1064 1.499 . S
C1062 H1042 0.950 . S
C1062 C1061 1.414 . S
C1062 C1063 1.374 . S
C1063 H1043 0.950 . S
C1063 C1059 1.385 . S
C1063 C1062 1.374 . S
C1064 C1061 1.499 . S
C1064 C1065 1.373 . S
C1064 C1066 1.389 . S
C1065 H1044 0.950 . S
C1065 C1064 1.373 . S
C1065 C1081 1.377 . S
C1066 C1064 1.389 . S
C1066 C1067 1.524 . S
C1066 C1080 1.377 . S
C1067 C1066 1.524 . S
C1067 C1068 1.397 . S
C1067 C1072 1.363 . S
C1068 H1045 0.950 . S
C1068 C1067 1.397 . S
C1068 C1069 1.334 . S
C1069 H1046 0.950 . S
C1069 C1068 1.334 . S
C1069 C1070 1.287 . S
C1070 C1069 1.287 . S
C1070 C1071 1.524 . S
C1070 H1089 0.913 . S
C1071 H1047 0.950 . S
C1071 C1070 1.524 . S
C1071 C1072 1.415 . S
C1072 H1048 0.950 . S
C1072 C1067 1.363 . S
C1072 C1071 1.415 . S
C1073 H1049 0.951 . S
C1073 C1074 1.366 . S
C1073 C1075 1.388 . S
C1074 C1073 1.366 . S
C1074 C1078 1.385 . S
C1075 H1050 0.951 . S
C1075 C1073 1.388 . S
C1075 C1076 1.366 . S
C1076 C1075 1.366 . S
C1076 C1077 1.414 . S
C1076 C1079 1.499 . S
C1077 H1051 0.950 . S
C1077 C1076 1.414 . S
C1077 C1078 1.374 . S
C1078 H1052 0.950 . S
C1078 C1074 1.385 . S
C1078 C1077 1.374 . S
C1079 C1076 1.499 . S
C1079 C1080 1.373 . S
C1079 C1081 1.389 . S
C1080 H1053 0.950 . S
C1080 C1066 1.377 . S
C1080 C1079 1.373 . S
C1081 C1065 1.377 . S
C1081 C1079 1.389 . S
C1081 C1082 1.524 . S
C1082 C1081 1.524 . S
C1082 C1083 1.397 . S
C1082 C1087 1.363 . S
C1083 H1054 0.950 . S
C1083 C1082 1.397 . S
C1083 C1084 1.334 . S
C1084 H1055 0.950 . S
C1084 C1083 1.334 . S
C1084 C1085 1.287 . S
C1085 C1084 1.287 . S
C1085 C1086 1.524 . S
C1085 H1088 0.999 . S
C1086 H1056 0.950 . S
C1086 C1085 1.524 . S
C1086 C1087 1.415 . S
C1087 H1057 0.950 . S
C1087 C1082 1.363 . S
C1087 C1086 1.415 . S
H1088 C1085 0.999 . S
H1089 C1070 0.913 . S
H1090 C1108 0.951 . S
H1091 C1110 0.951 . S
H1092 C1112 0.950 . S
H1093 C1113 0.950 . S
H1094 C1115 0.950 . S
H1095 C1118 0.950 . S
H1096 C1119 0.950 . S
H1097 C1121 0.950 . S
H1098 C1122 0.950 . S
H1099 C1123 0.951 . S
H1100 C1125 0.951 . S
H1101 C1127 0.950 . S
H1102 C1128 0.950 . S
H1103 C1130 0.950 . S
H1104 C1133 0.950 . S
H1105 C1134 0.950 . S
H1106 C1136 0.950 . S
H1107 C1137 0.950 . S
C1108 H1090 0.951 . S
C1108 C1109 1.366 . S
C1108 C1110 1.388 . S
C1109 C1108 1.366 . S
C1109 C1113 1.385 . S
C1110 H1091 0.951 . S
C1110 C1108 1.388 . S
C1110 C1111 1.366 . S
C1111 C1110 1.366 . S
C1111 C1112 1.414 . S
C1111 C1114 1.499 . S
C1112 H1092 0.950 . S
C1112 C1111 1.414 . S
C1112 C1113 1.374 . S
C1113 H1093 0.950 . S
C1113 C1109 1.385 . S
C1113 C1112 1.374 . S
C1114 C1111 1.499 . S
C1114 C1115 1.373 . S
C1114 C1116 1.389 . S
C1115 H1094 0.950 . S
C1115 C1114 1.373 . S
C1115 C1131 1.377 . S
C1116 C1114 1.389 . S
C1116 C1117 1.524 . S
C1116 C1130 1.377 . S
C1117 C1116 1.524 . S
C1117 C1118 1.397 . S
C1117 C1122 1.363 . S
C1118 H1095 0.950 . S
C1118 C1117 1.397 . S
C1118 C1119 1.334 . S
C1119 H1096 0.950 . S
C1119 C1118 1.334 . S
C1119 C1120 1.287 . S
C1120 C1119 1.287 . S
C1120 C1121 1.524 . S
C1120 H1139 0.913 . S
C1121 H1097 0.950 . S
C1121 C1120 1.524 . S
C1121 C1122 1.415 . S
C1122 H1098 0.950 . S
C1122 C1117 1.363 . S
C1122 C1121 1.415 . S
C1123 H1099 0.951 . S
C1123 C1124 1.366 . S
C1123 C1125 1.388 . S
C1124 C1123 1.366 . S
C1124 C1128 1.385 . S
C1125 H1100 0.951 . S
C1125 C1123 1.388 . S
C1125 C1126 1.366 . S
C1126 C1125 1.366 . S
C1126 C1127 1.414 . S
C1126 C1129 1.499 . S
C1127 H1101 0.950 . S
C1127 C1126 1.414 . S
C1127 C1128 1.374 . S
C1128 H1102 0.950 . S
C1128 C1124 1.385 . S
C1128 C1127 1.374 . S
C1129 C1126 1.499 . S
C1129 C1130 1.373 . S
C1129 C1131 1.389 . S
C1130 H1103 0.950 . S
C1130 C1116 1.377 . S
C1130 C1129 1.373 . S
C1131 C1115 1.377 . S
C1131 C1129 1.389 . S
C1131 C1132 1.524 . S
C1132 C1131 1.524 . S
C1132 C1133 1.397 . S
C1132 C1137 1.363 . S
C1133 H1104 0.950 . S
C1133 C1132 1.397 . S
C1133 C1134 1.334 . S
C1134 H1105 0.950 . S
C1134 C1133 1.334 . S
C1134 C1135 1.287 . S
C1135 C1134 1.287 . S
C1135 C1136 1.524 . S
C1135 H1138 0.999 . S
C1136 H1106 0.950 . S
C1136 C1135 1.524 . S
C1136 C1137 1.415 . S
C1137 H1107 0.950 . S
C1137 C1132 1.363 . S
C1137 C1136 1.415 . S
H1138 C1135 0.999 . S
H1139 C1120 0.913 . S
C259 C202 3.046 . S
C274 C7 2.913 . S
C309 C2 3.085 . S
C324 C56 2.881 1_455 S
C359 C51 2.960 . S
C374 C96 2.840 . S
C409 C136 2.915 . S
C424 C91 3.047 . S
C459 C167 2.882 1_655 S
C474 C131 3.086 . S
C509 C162 2.961 . S
C524 C207 2.840 . S
C559 C171 2.381 . S
C574 C16 2.379 . S
C609 C211 2.176 1_554 S
C624 C47 2.163 . S
C659 C87 2.186 . S
C674 C11 2.215 . S
C709 C127 2.379 . S
C724 C42 2.382 . S
C759 C176 2.163 . S
C774 C82 2.176 . S
C809 C122 2.214 1_554 S
C824 C216 2.186 . S
C859 C10 0.452 . S
C874 C19 0.452 . S
C909 C50 0.312 . S
C924 C59 0.312 . S
C959 C90 0.587 . S
C974 C99 0.587 . S
C1009 C130 0.455 . S
C1024 C139 0.455 . S
C1059 C179 0.313 . S
C1074 C170 0.313 . S
C1109 C210 0.587 . S
C1124 C219 0.587 . S
