# Generated by pormake.
# Topology wlr, (5)-cn, num edge types: 1
# Building blocks:
#     Node 0, Type 0, BuildingBlock: BEQFEK_clean_sbu_0, # of connection points: 5
#     Node 1, Type 0, BuildingBlock: BEQFEK_clean_sbu_0, # of connection points: 5
#     Node 2, Type 0, BuildingBlock: BEQFEK_clean_sbu_0, # of connection points: 5
#     Node 3, Type 0, BuildingBlock: BEQFEK_clean_sbu_0, # of connection points: 5
#     Node 4, Type 0, BuildingBlock: BEQFEK_clean_sbu_0, # of connection points: 5
#     Node 5, Type 0, BuildingBlock: BEQFEK_clean_sbu_0, # of connection points: 5
#     Node 6, Type 0, BuildingBlock: BEQFEK_clean_sbu_0, # of connection points: 5
#     Node 7, Type 0, BuildingBlock: BEQFEK_clean_sbu_0, # of connection points: 5
#     Node 8, Type 0, BuildingBlock: BEQFEK_clean_sbu_0, # of connection points: 5
#     Node 9, Type 0, BuildingBlock: BEQFEK_clean_sbu_0, # of connection points: 5
#     Node 10, Type 0, BuildingBlock: BEQFEK_clean_sbu_0, # of connection points: 5
#     Node 11, Type 0, BuildingBlock: BEQFEK_clean_sbu_0, # of connection points: 5
#     Node 12, Type 0, BuildingBlock: BEQFEK_clean_sbu_0, # of connection points: 5
#     Node 13, Type 0, BuildingBlock: BEQFEK_clean_sbu_0, # of connection points: 5
#     Node 14, Type 0, BuildingBlock: BEQFEK_clean_sbu_0, # of connection points: 5
#     Node 15, Type 0, BuildingBlock: BEQFEK_clean_sbu_0, # of connection points: 5
#     Node 16, Type 0, BuildingBlock: BEQFEK_clean_sbu_0, # of connection points: 5
#     Node 17, Type 0, BuildingBlock: BEQFEK_clean_sbu_0, # of connection points: 5
#     Node 18, Type 0, BuildingBlock: BEQFEK_clean_sbu_0, # of connection points: 5
#     Node 19, Type 0, BuildingBlock: BEQFEK_clean_sbu_0, # of connection points: 5
#     Node 20, Type 0, BuildingBlock: BEQFEK_clean_sbu_0, # of connection points: 5
#     Node 21, Type 0, BuildingBlock: BEQFEK_clean_sbu_0, # of connection points: 5
#     Node 22, Type 0, BuildingBlock: BEQFEK_clean_sbu_0, # of connection points: 5
#     Node 23, Type 0, BuildingBlock: BEQFEK_clean_sbu_0, # of connection points: 5
#     Node 24, Type 0, BuildingBlock: BEQFEK_clean_sbu_0, # of connection points: 5
#     Node 25, Type 0, BuildingBlock: BEQFEK_clean_sbu_0, # of connection points: 5
#     Node 26, Type 0, BuildingBlock: BEQFEK_clean_sbu_0, # of connection points: 5
#     Node 27, Type 0, BuildingBlock: BEQFEK_clean_sbu_0, # of connection points: 5
#     Node 28, Type 0, BuildingBlock: BEQFEK_clean_sbu_0, # of connection points: 5
#     Node 29, Type 0, BuildingBlock: BEQFEK_clean_sbu_0, # of connection points: 5
#     Node 30, Type 0, BuildingBlock: BEQFEK_clean_sbu_0, # of connection points: 5
#     Node 31, Type 0, BuildingBlock: BEQFEK_clean_sbu_0, # of connection points: 5
#     Node 32, Type 0, BuildingBlock: BEQFEK_clean_sbu_0, # of connection points: 5
#     Node 33, Type 0, BuildingBlock: BEQFEK_clean_sbu_0, # of connection points: 5
#     Node 34, Type 0, BuildingBlock: BEQFEK_clean_sbu_0, # of connection points: 5
#     Node 35, Type 0, BuildingBlock: BEQFEK_clean_sbu_0, # of connection points: 5
#     Edge 36, Type (0, 0), BuildingBlock: AJUNOK_clean_linker_0, # of connection points: 2
#     Edge 37, Type (0, 0), BuildingBlock: AJUNOK_clean_linker_0, # of connection points: 2
#     Edge 38, Type (0, 0), BuildingBlock: AJUNOK_clean_linker_0, # of connection points: 2
#     Edge 39, Type (0, 0), BuildingBlock: AJUNOK_clean_linker_0, # of connection points: 2
#     Edge 40, Type (0, 0), BuildingBlock: AJUNOK_clean_linker_0, # of connection points: 2
#     Edge 41, Type (0, 0), BuildingBlock: AJUNOK_clean_linker_0, # of connection points: 2
#     Edge 42, Type (0, 0), BuildingBlock: AJUNOK_clean_linker_0, # of connection points: 2
#     Edge 43, Type (0, 0), BuildingBlock: AJUNOK_clean_linker_0, # of connection points: 2
#     Edge 44, Type (0, 0), BuildingBlock: AJUNOK_clean_linker_0, # of connection points: 2
#     Edge 45, Type (0, 0), BuildingBlock: AJUNOK_clean_linker_0, # of connection points: 2
#     Edge 46, Type (0, 0), BuildingBlock: AJUNOK_clean_linker_0, # of connection points: 2
#     Edge 47, Type (0, 0), BuildingBlock: AJUNOK_clean_linker_0, # of connection points: 2
#     Edge 48, Type (0, 0), BuildingBlock: AJUNOK_clean_linker_0, # of connection points: 2
#     Edge 49, Type (0, 0), BuildingBlock: AJUNOK_clean_linker_0, # of connection points: 2
#     Edge 50, Type (0, 0), BuildingBlock: AJUNOK_clean_linker_0, # of connection points: 2
#     Edge 51, Type (0, 0), BuildingBlock: AJUNOK_clean_linker_0, # of connection points: 2
#     Edge 52, Type (0, 0), BuildingBlock: AJUNOK_clean_linker_0, # of connection points: 2
#     Edge 53, Type (0, 0), BuildingBlock: AJUNOK_clean_linker_0, # of connection points: 2
#     Edge 54, Type (0, 0), BuildingBlock: AJUNOK_clean_linker_0, # of connection points: 2
#     Edge 55, Type (0, 0), BuildingBlock: AJUNOK_clean_linker_0, # of connection points: 2
#     Edge 56, Type (0, 0), BuildingBlock: AJUNOK_clean_linker_0, # of connection points: 2
#     Edge 57, Type (0, 0), BuildingBlock: AJUNOK_clean_linker_0, # of connection points: 2
#     Edge 58, Type (0, 0), BuildingBlock: AJUNOK_clean_linker_0, # of connection points: 2
#     Edge 59, Type (0, 0), BuildingBlock: AJUNOK_clean_linker_0, # of connection points: 2
#     Edge 60, Type (0, 0), BuildingBlock: AJUNOK_clean_linker_0, # of connection points: 2
#     Edge 61, Type (0, 0), BuildingBlock: AJUNOK_clean_linker_0, # of connection points: 2
#     Edge 62, Type (0, 0), BuildingBlock: AJUNOK_clean_linker_0, # of connection points: 2
#     Edge 63, Type (0, 0), BuildingBlock: AJUNOK_clean_linker_0, # of connection points: 2
#     Edge 64, Type (0, 0), BuildingBlock: AJUNOK_clean_linker_0, # of connection points: 2
#     Edge 65, Type (0, 0), BuildingBlock: AJUNOK_clean_linker_0, # of connection points: 2
#     Edge 66, Type (0, 0), BuildingBlock: AJUNOK_clean_linker_0, # of connection points: 2
#     Edge 67, Type (0, 0), BuildingBlock: AJUNOK_clean_linker_0, # of connection points: 2
#     Edge 68, Type (0, 0), BuildingBlock: AJUNOK_clean_linker_0, # of connection points: 2
#     Edge 69, Type (0, 0), BuildingBlock: AJUNOK_clean_linker_0, # of connection points: 2
#     Edge 70, Type (0, 0), BuildingBlock: AJUNOK_clean_linker_0, # of connection points: 2
#     Edge 71, Type (0, 0), BuildingBlock: AJUNOK_clean_linker_0, # of connection points: 2
#     Edge 72, Type (0, 0), BuildingBlock: AJUNOK_clean_linker_0, # of connection points: 2
#     Edge 73, Type (0, 0), BuildingBlock: AJUNOK_clean_linker_0, # of connection points: 2
#     Edge 74, Type (0, 0), BuildingBlock: AJUNOK_clean_linker_0, # of connection points: 2
#     Edge 75, Type (0, 0), BuildingBlock: AJUNOK_clean_linker_0, # of connection points: 2
#     Edge 76, Type (0, 0), BuildingBlock: AJUNOK_clean_linker_0, # of connection points: 2
#     Edge 77, Type (0, 0), BuildingBlock: AJUNOK_clean_linker_0, # of connection points: 2
#     Edge 78, Type (0, 0), BuildingBlock: AJUNOK_clean_linker_0, # of connection points: 2
#     Edge 79, Type (0, 0), BuildingBlock: AJUNOK_clean_linker_0, # of connection points: 2
#     Edge 80, Type (0, 0), BuildingBlock: AJUNOK_clean_linker_0, # of connection points: 2
#     Edge 81, Type (0, 0), BuildingBlock: AJUNOK_clean_linker_0, # of connection points: 2
#     Edge 82, Type (0, 0), BuildingBlock: AJUNOK_clean_linker_0, # of connection points: 2
#     Edge 83, Type (0, 0), BuildingBlock: AJUNOK_clean_linker_0, # of connection points: 2
#     Edge 84, Type (0, 0), BuildingBlock: AJUNOK_clean_linker_0, # of connection points: 2
#     Edge 85, Type (0, 0), BuildingBlock: AJUNOK_clean_linker_0, # of connection points: 2
#     Edge 86, Type (0, 0), BuildingBlock: AJUNOK_clean_linker_0, # of connection points: 2
#     Edge 87, Type (0, 0), BuildingBlock: AJUNOK_clean_linker_0, # of connection points: 2
#     Edge 88, Type (0, 0), BuildingBlock: AJUNOK_clean_linker_0, # of connection points: 2
#     Edge 89, Type (0, 0), BuildingBlock: AJUNOK_clean_linker_0, # of connection points: 2
#     Edge 90, Type (0, 0), BuildingBlock: AJUNOK_clean_linker_0, # of connection points: 2
#     Edge 91, Type (0, 0), BuildingBlock: AJUNOK_clean_linker_0, # of connection points: 2
#     Edge 92, Type (0, 0), BuildingBlock: AJUNOK_clean_linker_0, # of connection points: 2
#     Edge 93, Type (0, 0), BuildingBlock: AJUNOK_clean_linker_0, # of connection points: 2
#     Edge 94, Type (0, 0), BuildingBlock: AJUNOK_clean_linker_0, # of connection points: 2
#     Edge 95, Type (0, 0), BuildingBlock: AJUNOK_clean_linker_0, # of connection points: 2
#     Edge 96, Type (0, 0), BuildingBlock: AJUNOK_clean_linker_0, # of connection points: 2
#     Edge 97, Type (0, 0), BuildingBlock: AJUNOK_clean_linker_0, # of connection points: 2
#     Edge 98, Type (0, 0), BuildingBlock: AJUNOK_clean_linker_0, # of connection points: 2
#     Edge 99, Type (0, 0), BuildingBlock: AJUNOK_clean_linker_0, # of connection points: 2
#     Edge 100, Type (0, 0), BuildingBlock: AJUNOK_clean_linker_0, # of connection points: 2
#     Edge 101, Type (0, 0), BuildingBlock: AJUNOK_clean_linker_0, # of connection points: 2
#     Edge 102, Type (0, 0), BuildingBlock: AJUNOK_clean_linker_0, # of connection points: 2
#     Edge 103, Type (0, 0), BuildingBlock: AJUNOK_clean_linker_0, # of connection points: 2
#     Edge 104, Type (0, 0), BuildingBlock: AJUNOK_clean_linker_0, # of connection points: 2
#     Edge 105, Type (0, 0), BuildingBlock: AJUNOK_clean_linker_0, # of connection points: 2
#     Edge 106, Type (0, 0), BuildingBlock: AJUNOK_clean_linker_0, # of connection points: 2
#     Edge 107, Type (0, 0), BuildingBlock: AJUNOK_clean_linker_0, # of connection points: 2
#     Edge 108, Type (0, 0), BuildingBlock: AJUNOK_clean_linker_0, # of connection points: 2
#     Edge 109, Type (0, 0), BuildingBlock: AJUNOK_clean_linker_0, # of connection points: 2
#     Edge 110, Type (0, 0), BuildingBlock: AJUNOK_clean_linker_0, # of connection points: 2
#     Edge 111, Type (0, 0), BuildingBlock: AJUNOK_clean_linker_0, # of connection points: 2
#     Edge 112, Type (0, 0), BuildingBlock: AJUNOK_clean_linker_0, # of connection points: 2
#     Edge 113, Type (0, 0), BuildingBlock: AJUNOK_clean_linker_0, # of connection points: 2
#     Edge 114, Type (0, 0), BuildingBlock: AJUNOK_clean_linker_0, # of connection points: 2
#     Edge 115, Type (0, 0), BuildingBlock: AJUNOK_clean_linker_0, # of connection points: 2
#     Edge 116, Type (0, 0), BuildingBlock: AJUNOK_clean_linker_0, # of connection points: 2
#     Edge 117, Type (0, 0), BuildingBlock: AJUNOK_clean_linker_0, # of connection points: 2
#     Edge 118, Type (0, 0), BuildingBlock: AJUNOK_clean_linker_0, # of connection points: 2
#     Edge 119, Type (0, 0), BuildingBlock: AJUNOK_clean_linker_0, # of connection points: 2
#     Edge 120, Type (0, 0), BuildingBlock: AJUNOK_clean_linker_0, # of connection points: 2
#     Edge 121, Type (0, 0), BuildingBlock: AJUNOK_clean_linker_0, # of connection points: 2
#     Edge 122, Type (0, 0), BuildingBlock: AJUNOK_clean_linker_0, # of connection points: 2
#     Edge 123, Type (0, 0), BuildingBlock: AJUNOK_clean_linker_0, # of connection points: 2
#     Edge 124, Type (0, 0), BuildingBlock: AJUNOK_clean_linker_0, # of connection points: 2
#     Edge 125, Type (0, 0), BuildingBlock: AJUNOK_clean_linker_0, # of connection points: 2
# Relax obj value: 0.129
# Max RMSD: 0.117
# Mean RMSD: 0.117
data_MOF--net-wlr--node1-BEQFEK_clean_sbu_0--edge1-AJUNOK_clean_linker_0
_symmetry_space_group_name_H-M    P1
_symmetry_Int_Tables_number       1
_symmetry_cell_setting            triclinic
loop_
_symmetry_equiv_pos_as_xyz
'x, y, z'
_cell_length_a     57.558361
_cell_length_b     57.452395
_cell_length_c     30.589763
_cell_angle_alpha  89.76358
_cell_angle_beta   90.022078
_cell_angle_gamma 120.03052
loop_
_atom_site_label
_atom_site_type_symbol
_atom_site_fract_x
_atom_site_fract_y
_atom_site_fract_z
_atom_type_partial_charge
Co0 Co 0.29411 0.21414 0.08544 0.0
Co1 Co 0.24359 0.20847 0.04101 0.0
C2 C 0.3023 0.24211 1.00235 0.0
O3 O 0.31245 0.23775 0.03609 0.0
O4 O 0.27665 0.2323 0.99945 0.0
C5 C 0.32658 0.19626 0.11177 0.0
O6 O 0.32572 0.191 0.06985 0.0
C7 C 0.20246 0.22451 0.01488 0.0
C8 C 0.16657 0.18416 1.01392 0.0
C9 C 0.17437 0.2111 1.00889 0.0
N10 N 0.21003 0.2061 0.02308 0.0
N11 N 0.18833 0.18209 0.02203 0.0
C12 C 0.22211 0.25399 1.01303 0.0
H13 H 0.24296 0.25765 1.01232 0.0
H14 H 0.21975 0.2638 0.04254 0.0
H15 H 0.21852 0.26301 0.98347 0.0
C16 C 0.27474 0.23133 0.16054 0.0
N17 N 0.27311 0.22448 0.11812 0.0
N18 N 0.24975 0.21894 0.10228 0.0
C19 C 0.23483 0.22027 0.13551 0.0
C20 C 0.2503 0.22841 0.17403 0.0
C21 C 0.29998 0.24212 0.1868 0.0
H22 H 0.31778 0.25175 0.165 0.0
H23 H 0.30118 0.25703 0.21099 0.0
H24 H 0.30028 0.22553 0.20477 0.0
O25 O 0.27315 0.17567 0.06618 0.0
O26 O 0.23601 0.17044 0.03657 0.0
H27 H 0.19523 0.20384 0.16389 0.0
H28 H 0.20222 0.22605 0.11737 0.0
C29 C 0.20537 0.21005 0.13164 0.0
H30 H 0.19616 0.19254 0.10941 0.0
H31 H 0.18817 0.16416 0.0283 0.0
O32 O 0.31904 0.21229 0.12482 0.0
C33 C 0.25066 0.16072 0.04816 0.0
Co34 Co 0.8069 0.08875 0.08122 0.0
Co35 Co 0.80574 0.03913 0.04221 0.0
C36 C 0.77395 0.06444 1.00175 0.0
O37 O 0.78146 0.08089 0.03338 0.0
O38 O 0.78166 0.04689 0.99932 0.0
C39 C 0.80145 0.13017 0.13376 0.0
O40 O 0.77582 0.1166 0.1438 0.0
C41 C 0.79086 0.98261 1.01202 0.0
C42 C 0.82406 0.98036 0.04419 0.0
C43 C 0.80107 0.96523 0.01982 0.0
N44 N 0.80695 0.00634 0.03189 0.0
N45 N 0.82682 1.00473 0.05047 0.0
C46 C 0.76755 0.97787 0.98419 0.0
H47 H 0.77162 0.99696 0.96835 0.0
H48 H 0.74953 0.97098 1.00516 0.0
H49 H 0.76352 0.96258 0.95875 0.0
C50 C 0.79555 0.05814 0.16411 0.0
N51 N 0.79833 0.06019 0.12023 0.0
N52 N 0.79576 0.03787 0.10416 0.0
C53 C 0.7898 0.02021 0.13787 0.0
C54 C 0.78937 0.03247 0.17718 0.0
C55 C 0.80287 0.08159 0.19351 0.0
H56 H 0.82076 0.09972 0.18044 0.0
H57 H 0.78591 0.08552 0.19506 0.0
H58 H 0.80749 0.07779 0.22711 0.0
O59 O 0.84299 0.10343 0.05934 0.0
O60 O 0.84498 0.06898 0.03273 0.0
H61 H 0.80358 0.99206 0.13342 0.0
H62 H 0.77157 0.9791 0.16008 0.0
C63 C 0.7843 0.99203 0.13288 0.0
H64 H 0.77411 0.9836 0.10134 0.0
H65 H 0.84205 0.0202 0.06858 0.0
O66 O 0.81209 0.11959 0.11159 0.0
C67 C 0.8563 0.09404 0.04151 0.0
Co68 Co 0.92659 0.72266 0.08109 0.0
Co69 Co 0.97622 0.77055 0.03915 0.0
C70 C 0.94994 0.71309 1.0003 0.0
O71 O 0.93359 0.70495 0.03223 0.0
O72 O 0.96831 0.73811 0.99753 0.0
C73 C 0.88597 0.67603 0.13571 0.0
O74 O 0.90075 0.6659 0.14909 0.0
C75 C 0.0341 0.81281 0.0149 0.0
C76 C 0.03123 0.84913 0.02753 0.0
C77 C 0.04928 0.84107 0.01563 0.0
N78 N 0.00844 0.80498 0.02601 0.0
N79 N 1.00712 0.82698 0.03314 0.0
C80 C 0.04406 0.79351 1.00816 0.0
H81 H 0.03133 0.77456 0.02646 0.0
H82 H 0.06531 0.80251 0.01853 0.0
H83 H 0.04253 0.78834 0.97298 0.0
C84 C 0.95823 0.74313 0.16261 0.0
N85 N 0.95574 0.7431 0.11874 0.0
N86 N 0.97784 0.76272 0.10151 0.0
C87 C 0.99572 0.77511 0.13445 0.0
C88 C 0.98381 0.7631 0.17454 0.0
C89 C 0.93535 0.72696 0.19319 0.0
H90 H 0.91657 0.72493 0.17971 0.0
H91 H 0.93302 0.70674 0.19749 0.0
H92 H 0.93889 0.73661 0.22573 0.0
O93 O 0.9117 0.74413 0.06055 0.0
O94 O 0.94582 0.7792 0.0295 0.0
H95 H 0.02375 0.81631 0.12022 0.0
H96 H 0.03648 0.80043 0.15681 0.0
C97 C 0.02388 0.79745 0.1276 0.0
H98 H 0.03281 0.79275 0.09942 0.0
H99 H 0.98979 0.8269 0.04332 0.0
O100 O 0.89579 0.69668 0.11181 0.0
C101 C 0.92109 0.76629 0.04067 0.0
Co102 Co 0.21474 0.29058 0.44354 0.0
Co103 Co 0.21076 0.24116 0.48989 0.0
C104 C 0.24266 0.30044 0.52712 0.0
O105 O 0.23716 0.30887 0.49254 0.0
O106 O 0.2344 0.27505 0.53159 0.0
C107 C 0.19988 0.32601 0.41574 0.0
O108 O 0.19292 0.32476 0.45692 0.0
C109 C 0.22812 0.20032 0.51071 0.0
C110 C 0.1886 0.16504 0.52582 0.0
C111 C 0.21544 0.17285 0.52118 0.0
N112 N 0.20945 0.20806 0.50942 0.0
N113 N 0.18597 0.18674 0.51878 0.0
C114 C 0.25683 0.2183 0.49801 0.0
H115 H 0.25861 0.23389 0.47452 0.0
H116 H 0.2654 0.20652 0.48361 0.0
H117 H 0.26854 0.22879 0.52753 0.0
C118 C 0.23197 0.27182 0.36906 0.0
N119 N 0.22553 0.26994 0.4117 0.0
N120 N 0.22113 0.2469 0.42782 0.0
C121 C 0.22319 0.2325 0.39429 0.0
C122 C 0.22986 0.24777 0.35549 0.0
C123 C 0.24212 0.29727 0.34306 0.0
H124 H 0.25451 0.31484 0.36423 0.0
H125 H 0.25435 0.29763 0.31475 0.0
H126 H 0.225 0.29917 0.33101 0.0
O127 O 0.17684 0.26986 0.46279 0.0
O128 O 0.17208 0.23301 0.49406 0.0
H129 H 0.20859 0.19314 0.36664 0.0
H130 H 0.23473 0.20314 0.40669 0.0
C131 C 0.21635 0.20381 0.39809 0.0
H132 H 0.20117 0.19341 0.4241 0.0
H133 H 0.16784 0.18672 0.51894 0.0
O134 O 0.21399 0.31595 0.404 0.0
C135 C 0.16225 0.24755 0.48189 0.0
Co136 Co 0.72682 0.93136 0.44298 0.0
Co137 Co 0.77481 0.97606 0.49124 0.0
C138 C 0.71516 0.94946 0.52534 0.0
O139 O 0.70671 0.93531 0.49091 0.0
O140 O 0.74054 0.96597 0.53044 0.0
C141 C 0.68118 0.8865 0.39976 0.0
O142 O 0.66387 0.88407 0.42994 0.0
C143 C 0.81511 0.03374 0.5152 0.0
C144 C 0.84998 0.029 0.53093 0.0
C145 C 0.84219 0.04808 0.52695 0.0
N146 N 0.80749 0.00739 0.51203 0.0
N147 N 0.82857 1.00492 0.52164 0.0
C148 C 0.79655 0.04465 0.50929 0.0
H149 H 0.7767 0.02876 0.49724 0.0
H150 H 0.80524 0.06186 0.48618 0.0
H151 H 0.79395 0.05226 0.54114 0.0
C152 C 0.74775 0.96776 0.36817 0.0
N153 N 0.74841 0.96258 0.41104 0.0
N154 N 0.7702 0.9819 0.42915 0.0
C155 C 0.78449 1.00006 0.39716 0.0
C156 C 0.7706 0.99159 0.35753 0.0
C157 C 0.72642 0.94925 0.33707 0.0
H158 H 0.72885 0.93156 0.33088 0.0
H159 H 0.70633 0.94215 0.35169 0.0
H160 H 0.7277 0.9592 0.3053 0.0
O161 O 0.74647 0.91384 0.46361 0.0
O162 O 0.78251 0.94491 0.49683 0.0
H163 H 0.82356 0.02024 0.42638 0.0
H164 H 0.822 0.03202 0.37191 0.0
C165 C 0.81127 0.02461 0.40353 0.0
H166 H 0.80831 0.04065 0.41775 0.0
H167 H 0.82858 0.98678 0.52094 0.0
O168 O 0.70505 0.90544 0.40147 0.0
C169 C 0.76821 0.92074 0.48354 0.0
Co170 Co 0.08424 0.79945 0.4396 0.0
Co171 Co 0.03917 0.80334 0.4876 0.0
C172 C 0.06531 0.77027 0.52363 0.0
O173 O 0.0797 0.77596 0.4893 0.0
O174 O 0.04844 0.77882 0.52798 0.0
C175 C 0.13273 0.80571 0.40236 0.0
O176 O 0.1403 0.80193 0.44095 0.0
C177 C 0.9828 0.78931 0.51655 0.0
C178 C 0.98618 0.82876 0.50345 0.0
C179 C 0.96814 0.80272 0.51588 0.0
N180 N 0.00839 0.80682 0.50457 0.0
N181 N 0.01008 0.83036 0.49742 0.0
C182 C 0.97199 0.75991 0.5237 0.0
H183 H 0.98757 0.75445 0.51654 0.0
H184 H 0.95421 0.74821 0.50255 0.0
H185 H 0.96533 0.75469 0.55816 0.0
C186 C 0.0473 0.78315 0.36558 0.0
N187 N 0.05282 0.78958 0.40817 0.0
N188 N 0.03371 0.79244 0.42614 0.0
C189 C 0.01546 0.78838 0.39442 0.0
C190 C 0.02361 0.78236 0.35503 0.0
C191 C 0.06533 0.77955 0.33445 0.0
H192 H 0.07244 0.76669 0.34967 0.0
H193 H 0.05496 0.77022 0.30338 0.0
H194 H 0.08293 0.79949 0.32675 0.0
O195 O 0.10191 0.83703 0.45943 0.0
O196 O 0.07071 0.84167 0.4931 0.0
H197 H 0.99738 0.81161 0.41231 0.0
H198 H 0.97951 0.78701 0.37018 0.0
C199 C 0.99116 0.79102 0.40091 0.0
H200 H 0.97821 0.77657 0.42639 0.0
H201 H 0.02739 0.8474 0.48627 0.0
O202 O 0.10925 0.8014 0.3967 0.0
C203 C 0.0949 0.85166 0.47992 0.0
Co204 Co 0.72226 0.80091 0.94608 0.0
Co205 Co 0.7723 0.80306 0.98643 0.0
C206 C 0.71455 0.7699 0.02693 0.0
O207 O 0.70443 0.77504 0.99392 0.0
O208 O 0.74017 0.7794 0.02945 0.0
C209 C 0.67609 0.79668 0.89124 0.0
O210 O 0.66364 0.77133 0.87949 0.0
C211 C 0.81539 0.78877 1.01105 0.0
C212 C 0.85089 0.82783 0.99418 0.0
C213 C 0.84346 0.80203 1.00762 0.0
N214 N 0.80693 0.80604 0.99931 0.0
N215 N 0.82847 0.82935 0.98986 0.0
C216 C 0.7969 0.75971 0.02117 0.0
H217 H 0.77635 0.75326 1.00915 0.0
H218 H 0.80451 0.74721 1.00629 0.0
H219 H 0.796 0.75671 0.05711 0.0
C220 C 0.74311 0.78976 0.8645 0.0
N221 N 0.74354 0.79323 0.9082 0.0
N222 N 0.76422 0.79261 0.92507 0.0
C223 C 0.77713 0.78775 0.89226 0.0
C224 C 0.7642 0.78588 0.85255 0.0
C225 C 0.72484 0.79339 0.834 0.0
H226 H 0.72329 0.81105 0.84411 0.0
H227 H 0.70465 0.7752 0.83531 0.0
H228 H 0.73223 0.79665 0.7998 0.0
O229 O 0.74257 0.83721 0.96895 0.0
O230 O 0.78059 0.84185 0.99319 0.0
H231 H 0.81882 0.80396 0.90585 0.0
H232 H 0.80484 0.77528 0.86967 0.0
C233 C 0.80089 0.78417 0.89888 0.0
H234 H 0.79723 0.77073 0.92724 0.0
H235 H 0.82786 0.8462 0.9786 0.0
O236 O 0.69693 0.80626 0.9143 0.0
C237 C 0.76548 0.85172 0.98552 0.0
Co238 Co 0.21293 0.92547 0.9448 0.0
Co239 Co 0.21386 0.9745 0.9871 0.0
C240 C 0.24523 0.94837 0.02597 0.0
O241 O 0.23775 0.93241 0.99361 0.0
O242 O 0.23787 0.96616 0.02897 0.0
C243 C 0.21729 0.88406 0.88886 0.0
O244 O 0.24195 0.89809 0.87397 0.0
C245 C 0.22854 0.03145 0.0173 0.0
C246 C 0.19203 0.03054 0.99306 0.0
C247 C 0.21617 0.04723 1.01364 0.0
N248 N 0.21219 0.00694 0.99968 0.0
N249 N 0.19045 0.00681 0.98557 0.0
C250 C 0.25515 0.03918 0.03716 0.0
H251 H 0.25627 0.02098 0.04569 0.0
H252 H 0.27124 0.05117 1.0131 0.0
H253 H 0.25851 0.05157 0.06678 0.0
C254 C 0.22445 0.95806 0.86366 0.0
N255 N 0.22162 0.95493 0.90745 0.0
N256 N 0.22413 0.97687 0.92515 0.0
C257 C 0.23022 0.99535 0.89278 0.0
C258 C 0.23048 0.98397 0.85235 0.0
C259 C 0.21772 0.9355 0.83259 0.0
H260 H 0.20086 0.91655 0.84566 0.0
H261 H 0.23553 0.93311 0.82829 0.0
H262 H 0.21178 0.93947 0.80013 0.0
O263 O 0.17667 0.91052 0.96564 0.0
O264 O 0.17436 0.94411 0.99524 0.0
H265 H 0.21794 0.02426 0.90409 0.0
H266 H 0.24875 0.03704 0.87326 0.0
C267 C 0.23682 0.02367 0.90067 0.0
H268 H 0.24836 0.03114 0.93143 0.0
H269 H 0.17461 0.99055 0.96976 0.0
O270 O 0.20769 0.89467 0.91344 0.0
C271 C 0.1631 0.9194 0.98408 0.0
Co272 Co 0.08969 0.29291 0.94473 0.0
Co273 Co 0.04237 0.24279 0.98846 0.0
C274 C 0.06851 0.30114 0.02747 0.0
O275 O 0.08395 0.30989 0.99453 0.0
O276 O 0.05101 0.27579 0.03068 0.0
C277 C 0.14104 0.32738 0.92579 0.0
O278 O 0.14244 0.32466 0.96821 0.0
C279 C 0.98437 0.19991 1.00807 0.0
C280 C 0.98985 0.1646 1.01283 0.0
C281 C 0.97032 0.17187 1.01298 0.0
N282 N 0.0109 0.2085 1.00467 0.0
N283 N 0.01377 0.18711 1.00798 0.0
C284 C 0.9727 0.21788 1.00302 0.0
H285 H 0.9871 0.23678 0.98597 0.0
H286 H 0.95348 0.20746 0.98478 0.0
H287 H 0.96856 0.22305 0.03591 0.0
C288 C 0.05492 0.27477 0.86803 0.0
N289 N 0.05881 0.27262 0.91087 0.0
N290 N 0.03952 0.24976 0.92646 0.0
C291 C 0.02329 0.23572 0.89257 0.0
C292 C 0.03259 0.25104 0.85389 0.0
C293 C 0.07154 0.30015 0.84257 0.0
H294 H 0.07702 0.31777 0.86379 0.0
H295 H 0.06059 0.30129 0.81354 0.0
H296 H 0.09048 0.30117 0.83208 0.0
O297 O 0.10578 0.27119 0.96368 0.0
O298 O 0.07273 0.23492 0.9943 0.0
H299 H 0.99681 0.19681 0.86415 0.0
H300 H 0.98273 0.20671 0.90813 0.0
C301 C 1.00113 0.20714 0.89617 0.0
H302 H 1.00665 0.19608 0.91984 0.0
H303 H 0.03208 0.18763 1.00531 0.0
O304 O 0.11822 0.31942 0.90869 0.0
C305 C 0.0972 0.24873 0.98258 0.0
Co306 Co 0.80579 0.72334 0.58835 0.0
Co307 Co 0.80385 0.77004 0.53989 0.0
C308 C 0.77551 0.71238 0.5032 0.0
O309 O 0.78388 0.70546 0.53654 0.0
O310 O 0.78027 0.73675 0.49914 0.0
C311 C 0.79469 0.677 0.64656 0.0
O312 O 0.76908 0.66873 0.65185 0.0
C313 C 0.78789 0.81184 0.51427 0.0
C314 C 0.82803 0.84812 0.51833 0.0
C315 C 0.80133 0.84007 0.51144 0.0
N316 N 0.80608 0.80402 0.52271 0.0
N317 N 0.82996 0.82598 0.52458 0.0
C318 C 0.75826 0.7928 0.51339 0.0
H319 H 0.75314 0.77451 0.53292 0.0
H320 H 0.7472 0.80262 0.52593 0.0
H321 H 0.75196 0.78636 0.47921 0.0
C322 C 0.79103 0.74462 0.66506 0.0
N323 N 0.79495 0.74392 0.62166 0.0
N324 N 0.7936 0.76369 0.60214 0.0
C325 C 0.78817 0.7772 0.63328 0.0
C326 C 0.78611 0.76527 0.67398 0.0
C327 C 0.79491 0.72792 0.69854 0.0
H328 H 0.81219 0.72549 0.68949 0.0
H329 H 0.77637 0.70806 0.70025 0.0
H330 H 0.79861 0.73715 0.73146 0.0
O331 O 0.84284 0.74569 0.57102 0.0
O332 O 0.8429 0.77846 0.53304 0.0
H333 H 0.805 0.81725 0.60829 0.0
H334 H 0.78433 0.81064 0.65637 0.0
C335 C 0.78659 0.80204 0.6253 0.0
H336 H 0.76908 0.79708 0.60425 0.0
H337 H 0.84767 0.82603 0.53201 0.0
O338 O 0.80936 0.69738 0.62331 0.0
C339 C 0.85524 0.76698 0.54862 0.0
Co340 Co 0.29436 0.08362 0.58171 0.0
Co341 Co 0.24313 0.03827 0.53871 0.0
C342 C 0.30064 0.06252 0.49767 0.0
O343 O 0.31096 0.07703 0.53114 0.0
O344 O 0.27501 0.04668 0.49539 0.0
C345 C 0.344 0.12597 0.63728 0.0
O346 O 0.36482 0.12243 0.63632 0.0
C347 C 0.20141 0.98051 0.51739 0.0
C348 C 0.166 0.98521 0.50716 0.0
C349 C 0.17376 0.96597 0.50857 0.0
N350 N 0.20923 0.00691 0.52089 0.0
N351 N 0.18784 0.00936 0.51442 0.0
C352 C 0.21968 0.96955 0.52633 0.0
H353 H 0.23603 0.98307 0.54875 0.0
H354 H 0.20837 0.94899 0.54047 0.0
H355 H 0.22917 0.96876 0.49525 0.0
C356 C 0.27444 0.04852 0.65933 0.0
N357 N 0.27293 0.05305 0.61639 0.0
N358 N 0.25023 0.03386 0.60019 0.0
C359 C 0.23622 0.01672 0.63346 0.0
C360 C 0.2513 0.02537 0.67193 0.0
C361 C 0.29663 0.06739 0.68873 0.0
H362 H 0.31618 0.072 0.67442 0.0
H363 H 0.29471 0.05884 0.722 0.0
H364 H 0.2962 0.08642 0.69128 0.0
O365 O 0.27432 0.10178 0.5639 0.0
O366 O 0.23677 0.07007 0.53445 0.0
H367 H 0.19815 0.98802 0.66205 0.0
H368 H 0.20898 0.97585 0.61697 0.0
C369 C 0.20825 0.99351 0.62969 0.0
H370 H 0.19646 0.9985 0.60674 0.0
H371 H 0.18794 0.02754 0.51619 0.0
O372 O 0.32312 0.11028 0.61627 0.0
C373 C 0.2518 0.09452 0.54603 0.0
Co374 Co 0.93015 0.21321 0.58853 0.0
Co375 Co 0.97587 0.21042 0.53968 0.0
C376 C 0.94815 0.2409 0.50255 0.0
O377 O 0.93408 0.2343 0.53705 0.0
O378 O 0.96647 0.23436 0.49796 0.0
C379 C 0.87988 0.19903 0.60782 0.0
O380 O 0.87868 0.19493 0.56546 0.0
C381 C 0.03294 0.22656 0.51214 0.0
C382 C 0.03021 0.18699 0.51811 0.0
C383 C 0.04849 0.21383 0.5098 0.0
N384 N 1.00733 0.20799 0.52234 0.0
N385 N 1.00601 0.18442 0.52517 0.0
C386 C 0.04115 0.25518 0.50233 0.0
H387 H 0.02361 0.2565 0.49052 0.0
H388 H 0.04826 0.26713 0.5328 0.0
H389 H 0.05724 0.2637 0.47721 0.0
C390 C 0.96738 0.23154 0.66166 0.0
N391 N 0.96201 0.22499 0.61924 0.0
N392 N 0.98046 0.22086 0.6019 0.0
C393 C 0.99758 0.22305 0.63438 0.0
C394 C 0.99008 0.23028 0.67374 0.0
C395 C 0.95071 0.23893 0.68961 0.0
H396 H 0.94255 0.2493 0.66953 0.0
H397 H 0.9627 0.25237 0.7167 0.0
H398 H 0.93357 0.22037 0.70338 0.0
O399 O 0.91386 0.17478 0.57309 0.0
O400 O 0.94481 0.17221 0.53401 0.0
H401 H 0.02295 0.2087 0.66142 0.0
H402 H 0.03588 0.22984 0.61309 0.0
C403 C 0.01758 0.21384 0.62942 0.0
H404 H 0.00903 0.19567 0.60871 0.0
H405 H 0.98868 0.16655 0.53362 0.0
O406 O 0.90275 0.21258 0.62544 0.0
C407 C 0.92131 0.16127 0.55049 0.0
Co408 Co 0.9585 0.54222 0.41604 0.0
Co409 Co 0.91242 0.54499 0.37054 0.0
C410 C 0.97043 0.57539 0.3346 0.0
O411 O 0.97723 0.56658 0.36741 0.0
O412 O 0.94574 0.5694 0.33004 0.0
C413 C 1.00417 0.54781 0.47232 0.0
O414 O 0.01626 0.57348 0.48207 0.0
C415 C 0.87001 0.56033 0.3457 0.0
C416 C 0.83464 0.51944 0.34594 0.0
C417 C 0.8421 0.54615 0.34042 0.0
N418 N 0.87841 0.54256 0.35423 0.0
N419 N 0.85694 0.51824 0.35408 0.0
C420 C 0.88836 0.58995 0.34063 0.0
H421 H 0.90959 0.59522 0.34504 0.0
H422 H 0.88323 0.60096 0.36489 0.0
H423 H 0.88563 0.59637 0.30767 0.0
C424 C 0.93756 0.55479 0.49539 0.0
N425 N 0.93785 0.55154 0.45176 0.0
N426 N 0.91882 0.55438 0.4332 0.0
C427 C 0.90643 0.5607 0.46507 0.0
C428 C 0.91794 0.56118 0.5058 0.0
C429 C 0.95353 0.54858 0.5272 0.0
H430 H 0.95461 0.53083 0.51606 0.0
H431 H 0.97412 0.56609 0.52929 0.0
H432 H 0.9444 0.54419 0.5603 0.0
O433 O 0.93755 0.50599 0.39554 0.0
O434 O 0.90385 0.50589 0.36171 0.0
H435 H 0.86627 0.54888 0.44628 0.0
H436 H 0.88068 0.5761 0.48557 0.0
C437 C 0.88484 0.56732 0.45646 0.0
H438 H 0.89129 0.58211 0.42948 0.0
H439 H 0.8573 0.5006 0.36058 0.0
O440 O 0.98338 0.53727 0.44911 0.0
C441 C 0.91605 0.4936 0.37417 0.0
Co442 Co 0.4721 0.41928 0.41697 0.0
Co443 Co 0.47042 0.37029 0.37319 0.0
C444 C 0.44009 0.39786 0.33554 0.0
O445 O 0.44867 0.41377 0.36784 0.0
O446 O 0.44584 0.37888 0.33214 0.0
C447 C 0.46712 0.46121 0.4695 0.0
O448 O 0.44104 0.44993 0.47464 0.0
C449 C 0.45429 0.31275 0.34623 0.0
C450 C 0.49273 0.31452 0.36081 0.0
C451 C 0.46678 0.29699 0.34719 0.0
N452 N 0.47214 0.33795 0.35951 0.0
N453 N 0.49501 0.33865 0.36774 0.0
C454 C 0.42658 0.3048 0.33127 0.0
H455 H 0.42637 0.32242 0.31669 0.0
H456 H 0.41286 0.29809 0.35988 0.0
H457 H 0.41929 0.28832 0.30699 0.0
C458 C 0.45713 0.38561 0.49625 0.0
N459 N 0.46168 0.38923 0.45284 0.0
N460 N 0.46108 0.36801 0.43561 0.0
C461 C 0.45601 0.35002 0.46841 0.0
C462 C 0.4533 0.36065 0.50786 0.0
C463 C 0.45868 0.40663 0.52677 0.0
H464 H 0.47813 0.42545 0.52223 0.0
H465 H 0.44228 0.41077 0.519 0.0
H466 H 0.45681 0.40021 0.56146 0.0
O467 O 0.50862 0.43393 0.39733 0.0
O468 O 0.50938 0.40052 0.36385 0.0
H469 H 0.47449 0.32685 0.45287 0.0
H470 H 0.44809 0.31144 0.49327 0.0
C471 C 0.45448 0.32348 0.46263 0.0
H472 H 0.44008 0.31216 0.43618 0.0
H473 H 0.5122 0.35558 0.37927 0.0
O474 O 0.47729 0.44937 0.44951 0.0
C475 C 0.52134 0.42497 0.37642 0.0
Co476 Co 0.59923 0.05485 0.41763 0.0
Co477 Co 0.64305 0.10504 0.37113 0.0
C478 C 0.61845 0.04532 0.33561 0.0
O479 O 0.60412 0.03542 0.36974 0.0
O480 O 0.63386 0.07108 0.33144 0.0
C481 C 0.55333 0.01004 0.46547 0.0
O482 O 0.5486 0.99104 0.43715 0.0
C483 C 0.70086 0.14674 0.35071 0.0
C484 C 0.69576 0.18181 0.33844 0.0
C485 C 0.71515 0.17443 0.34254 0.0
N486 N 0.67433 0.13842 0.35183 0.0
N487 N 0.67165 0.15962 0.344 0.0
C488 C 0.71231 0.12908 0.36123 0.0
H489 H 0.69726 0.11063 0.37859 0.0
H490 H 0.7307 0.14013 0.38137 0.0
H491 H 0.71794 0.1231 0.33033 0.0
C492 C 0.63594 0.07518 0.4918 0.0
N493 N 0.63058 0.07656 0.44933 0.0
N494 N 0.64815 0.09991 0.43289 0.0
C495 C 0.66462 0.11504 0.46579 0.0
C496 C 0.6576 0.09972 0.50474 0.0
C497 C 0.62063 0.05027 0.51896 0.0
H498 H 0.6129 0.03218 0.498 0.0
H499 H 0.63351 0.04912 0.54488 0.0
H500 H 0.60326 0.05035 0.53451 0.0
O501 O 0.58137 0.0746 0.39646 0.0
O502 O 0.61197 0.11207 0.36546 0.0
H503 H 0.68676 0.15492 0.49314 0.0
H504 H 0.70335 0.14786 0.44929 0.0
C505 C 0.68376 0.14458 0.46134 0.0
H506 H 0.67603 0.15349 0.43723 0.0
H507 H 0.65334 0.15922 0.34424 0.0
O508 O 0.57292 0.03335 0.46 0.0
C509 C 0.58778 0.09669 0.37761 0.0
Co510 Co 0.88241 0.62706 0.77496 0.0
Co511 Co 0.87848 0.57608 0.81767 0.0
C512 C 0.91176 0.63382 0.85793 0.0
O513 O 0.90662 0.64383 0.82469 0.0
O514 O 0.90231 0.60817 0.86087 0.0
C515 C 0.86751 0.66346 0.75735 0.0
O516 O 0.86431 0.66121 0.79997 0.0
C517 C 0.89196 0.53271 0.84455 0.0
C518 C 0.85262 0.49721 0.83033 0.0
C519 C 0.87831 0.50436 0.84378 0.0
N520 N 0.87492 0.54124 0.83179 0.0
N521 N 0.85146 0.51971 0.82381 0.0
C522 C 0.92044 0.5516 0.85711 0.0
H523 H 0.92323 0.5717 0.86486 0.0
H524 H 0.9338 0.55393 0.82929 0.0
H525 H 0.92613 0.54364 0.88578 0.0
C526 C 0.89675 0.6072 0.69644 0.0
N527 N 0.8913 0.60583 0.73959 0.0
N528 N 0.88956 0.5839 0.75637 0.0
C529 C 0.89371 0.57047 0.72359 0.0
C530 C 0.89841 0.58484 0.6845 0.0
C531 C 0.89825 0.62856 0.66653 0.0
H532 H 0.91184 0.64864 0.68068 0.0
H533 H 0.90548 0.62727 0.63349 0.0
H534 H 0.87797 0.62621 0.66361 0.0
O535 O 0.84484 0.6064 0.79585 0.0
O536 O 0.84015 0.56868 0.8231 0.0
H537 H 0.87147 0.52858 0.73887 0.0
H538 H 0.89726 0.53734 0.69799 0.0
C539 C 0.89211 0.54384 0.72886 0.0
H540 H 0.90611 0.5452 0.75494 0.0
H541 H 0.8347 0.52034 0.8124 0.0
O542 O 0.88101 0.65419 0.73937 0.0
C543 C 0.83034 0.58362 0.81354 0.0
Co544 Co 0.39071 0.25925 0.77621 0.0
Co545 Co 0.439 0.30754 0.82163 0.0
C546 C 0.38181 0.2813 0.85976 0.0
O547 O 0.37436 0.26566 0.82716 0.0
O548 O 0.40666 0.29974 0.86351 0.0
C549 C 0.34194 0.21534 0.72004 0.0
O550 O 0.32047 0.2176 0.71531 0.0
C551 C 0.48236 0.36465 0.84809 0.0
C552 C 0.51774 0.35992 0.83847 0.0
C553 C 0.51062 0.37886 0.84945 0.0
N554 N 0.47375 0.33884 0.83657 0.0
N555 N 0.49522 0.33641 0.83126 0.0
C556 C 0.46379 0.37506 0.85811 0.0
H557 H 0.44344 0.35818 0.86599 0.0
H558 H 0.46217 0.38584 0.82915 0.0
H559 H 0.47164 0.38936 0.88584 0.0
C560 C 0.41067 0.29407 0.69863 0.0
N561 N 0.41148 0.28995 0.74188 0.0
N562 N 0.43207 0.31091 0.75965 0.0
C563 C 0.44515 0.32927 0.72739 0.0
C564 C 0.43196 0.31916 0.68749 0.0
C565 C 0.39116 0.27317 0.66795 0.0
H566 H 0.39136 0.25422 0.67302 0.0
H567 H 0.37066 0.26936 0.67522 0.0
H568 H 0.39602 0.27912 0.63319 0.0
O569 O 0.4112 0.24243 0.79457 0.0
O570 O 0.44557 0.27572 0.8286 0.0
H571 H 0.48668 0.35308 0.74356 0.0
H572 H 0.47498 0.36895 0.70496 0.0
C573 C 0.46965 0.35603 0.73453 0.0
H574 H 0.466 0.36631 0.76191 0.0
H575 H 0.49458 0.31874 0.82143 0.0
O576 O 0.36126 0.23271 0.74226 0.0
C577 C 0.43284 0.25124 0.81593 0.0
Co578 Co 0.75651 0.13483 0.77668 0.0
Co579 Co 0.70927 0.13692 0.82049 0.0
C580 C 0.73492 0.10406 0.85848 0.0
O581 O 0.75069 0.11072 0.82585 0.0
O582 O 0.7176 0.11208 0.86116 0.0
C583 C 0.79606 0.12719 0.72347 0.0
O584 O 0.78444 0.10092 0.72657 0.0
C585 C 0.65181 0.12086 0.84432 0.0
C586 C 0.65553 0.16098 0.84055 0.0
C587 C 0.63679 0.13407 0.84665 0.0
N588 N 0.67775 0.1393 0.83622 0.0
N589 N 0.67964 0.16318 0.83458 0.0
C590 C 0.64259 0.09179 0.85197 0.0
H591 H 0.6592 0.08961 0.86595 0.0
H592 H 0.63705 0.08106 0.82025 0.0
H593 H 0.62509 0.08257 0.87447 0.0
C594 C 0.72165 0.11918 0.69907 0.0
N595 N 0.72586 0.12489 0.742 0.0
N596 N 0.70653 0.12809 0.75813 0.0
C597 C 0.6899 0.12577 0.72471 0.0
C598 C 0.69911 0.12034 0.68562 0.0
C599 C 0.73785 0.11061 0.67257 0.0
H600 H 0.74202 0.09698 0.69245 0.0
H601 H 0.72715 0.09982 0.64253 0.0
H602 H 0.75723 0.12857 0.66363 0.0
O603 O 0.77242 0.17206 0.79707 0.0
O604 O 0.73969 0.17477 0.8294 0.0
H605 H 0.66025 0.13438 0.69733 0.0
H606 H 0.65006 0.11352 0.74592 0.0
C607 C 0.66703 0.13098 0.72942 0.0
H608 H 0.67325 0.14896 0.74994 0.0
H609 H 0.69736 0.18106 0.82782 0.0
O610 O 0.78593 0.13992 0.74083 0.0
C611 C 0.76412 0.18561 0.81746 0.0
Co612 Co 0.39143 0.13331 0.27052 0.0
Co613 Co 0.43896 0.13421 0.31952 0.0
C614 C 0.38001 0.10268 0.35409 0.0
O615 O 0.3726 0.10957 0.3197 0.0
O616 O 0.40503 0.1101 0.35947 0.0
C617 C 0.34547 0.13472 0.23969 0.0
O618 O 0.33967 0.13544 0.28101 0.0
C619 C 0.47968 0.11747 0.34572 0.0
C620 C 0.51562 0.15771 0.35159 0.0
C621 C 0.50751 0.13061 0.35313 0.0
N622 N 0.47219 0.13618 0.33987 0.0
N623 N 0.4939 0.16009 0.34399 0.0
C624 C 0.46091 0.08798 0.34019 0.0
H625 H 0.4436 0.08445 0.31948 0.0
H626 H 0.47148 0.07814 0.3257 0.0
H627 H 0.45286 0.0788 0.37265 0.0
C628 C 0.41434 0.12059 0.19516 0.0
N629 N 0.41392 0.12455 0.23848 0.0
N630 N 0.4342 0.12417 0.25748 0.0
C631 C 0.44814 0.11962 0.22583 0.0
C632 C 0.43563 0.11677 0.18529 0.0
C633 C 0.39731 0.1248 0.16281 0.0
H634 H 0.39972 0.14493 0.16854 0.0
H635 H 0.37598 0.10919 0.16761 0.0
H636 H 0.40317 0.12419 0.12851 0.0
O637 O 0.41057 0.17055 0.29141 0.0
O638 O 0.44604 0.17295 0.32428 0.0
H639 H 0.48704 0.13582 0.25489 0.0
H640 H 0.48379 0.11992 0.20252 0.0
C641 C 0.4734 0.11888 0.23359 0.0
H642 H 0.46841 0.09977 0.2502 0.0
H643 H 0.49414 0.17824 0.3398 0.0
O644 O 0.36524 0.13188 0.23009 0.0
C645 C 0.43237 0.18387 0.31226 0.0
Co646 Co 0.88095 0.26074 0.2792 0.0
Co647 Co 0.87786 0.30785 0.32004 0.0
C648 C 0.91127 0.28373 0.35999 0.0
O649 O 0.90606 0.26829 0.32741 0.0
O650 O 0.90162 0.2997 0.36255 0.0
C651 C 0.88587 0.21809 0.22561 0.0
O652 O 0.91149 0.22847 0.21667 0.0
C653 C 0.89253 0.36524 0.34202 0.0
C654 C 0.85213 0.36058 0.33688 0.0
C655 C 0.87879 0.37963 0.34324 0.0
N656 N 0.87465 0.33906 0.33455 0.0
N657 N 0.85059 0.33662 0.33202 0.0
C658 C 0.92219 0.37638 0.3441 0.0
H659 H 0.92765 0.36226 0.32883 0.0
H660 H 0.93295 0.39629 0.32763 0.0
H661 H 0.92849 0.37905 0.37886 0.0
C662 C 0.89468 0.29412 0.19888 0.0
N663 N 0.88958 0.29029 0.24218 0.0
N664 N 0.88842 0.3108 0.25862 0.0
C665 C 0.89284 0.32845 0.2256 0.0
C666 C 0.89707 0.31846 0.18674 0.0
C667 C 0.89554 0.27402 0.16905 0.0
H668 H 0.91193 0.27046 0.17954 0.0
H669 H 0.89897 0.28101 0.13455 0.0
H670 H 0.87629 0.25474 0.17138 0.0
O671 O 0.84376 0.24388 0.30036 0.0
O672 O 0.83972 0.27706 0.32738 0.0
H673 H 0.89366 0.36364 0.19824 0.0
H674 H 0.90839 0.36783 0.25177 0.0
C675 C 0.89176 0.35377 0.23036 0.0
H676 H 0.87254 0.34919 0.24594 0.0
H677 H 0.83303 0.31864 0.32526 0.0
O678 O 0.8775 0.2312 0.24664 0.0
C679 C 0.82947 0.25225 0.31814 0.0
Co680 Co 0.7554 0.62306 0.28084 0.0
Co681 Co 0.70703 0.57375 0.32212 0.0
C682 C 0.7332 0.6312 0.36295 0.0
O683 O 0.74882 0.64071 0.3302 0.0
O684 O 0.71601 0.6058 0.36559 0.0
C685 C 0.79639 0.66965 0.22586 0.0
O686 O 0.78324 0.68218 0.21614 0.0
C687 C 0.64953 0.53088 0.34578 0.0
C688 C 0.65352 0.49512 0.33414 0.0
C689 C 0.63488 0.50269 0.34445 0.0
N690 N 0.67546 0.53923 0.33589 0.0
N691 N 0.67747 0.51756 0.32951 0.0
C692 C 0.63878 0.5495 0.35242 0.0
H693 H 0.65284 0.56969 0.33868 0.0
H694 H 0.61871 0.54123 0.33706 0.0
H695 H 0.6366 0.55163 0.38799 0.0
C696 C 0.72206 0.60325 0.19994 0.0
N697 N 0.72564 0.60252 0.24353 0.0
N698 N 0.70429 0.58191 0.2608 0.0
C699 C 0.68622 0.56918 0.22827 0.0
C700 C 0.69689 0.58239 0.18865 0.0
C701 C 0.74317 0.62207 0.16878 0.0
H702 H 0.76241 0.62286 0.17608 0.0
H703 H 0.74586 0.64243 0.17277 0.0
H704 H 0.73759 0.61576 0.13432 0.0
O705 O 0.77145 0.60233 0.30234 0.0
O706 O 0.7372 0.56498 0.32783 0.0
H707 H 0.66289 0.52777 0.2464 0.0
H708 H 0.64829 0.5378 0.20314 0.0
C709 C 0.6597 0.54416 0.23424 0.0
H710 H 0.64779 0.54779 0.25889 0.0
H711 H 0.6951 0.51801 0.32012 0.0
O712 O 0.78568 0.64844 0.24839 0.0
C713 C 0.76214 0.57931 0.3193 0.0
Co714 Co 0.47395 0.05657 0.91393 0.0
Co715 Co 0.47341 0.10446 0.87044 0.0
C716 C 0.44197 0.04591 0.83346 0.0
O717 O 0.44943 0.03827 0.86681 0.0
O718 O 0.4491 0.07101 0.82901 0.0
C719 C 0.46962 0.00955 0.96689 0.0
O720 O 0.4438 0.99465 0.97474 0.0
C721 C 0.457 0.1463 0.84934 0.0
C722 C 0.49748 0.18211 0.84625 0.0
C723 C 0.47057 0.17442 0.84467 0.0
N724 N 0.47531 0.13826 0.85414 0.0
N725 N 0.49937 0.15994 0.85183 0.0
C726 C 0.42738 0.12761 0.85251 0.0
H727 H 0.42304 0.10846 0.86851 0.0
H728 H 0.41772 0.13712 0.87093 0.0
H729 H 0.41879 0.12297 0.81908 0.0
C730 C 0.46054 0.07611 0.9937 0.0
N731 N 0.46478 0.07706 0.95021 0.0
N732 N 0.46447 0.09795 0.9331 0.0
C733 C 0.46022 0.11117 0.96619 0.0
C734 C 0.45747 0.09761 1.00564 0.0
C735 C 0.4613 0.05594 0.02389 0.0
H736 H 0.48044 0.05602 0.01927 0.0
H737 H 0.4445 0.03567 0.01579 0.0
H738 H 0.45957 0.06029 0.05866 0.0
O739 O 0.51011 0.07711 0.89109 0.0
O740 O 0.51229 0.1134 0.86254 0.0
H741 H 0.47705 0.15131 0.94142 0.0
H742 H 0.45938 0.14553 0.99288 0.0
C743 C 0.45946 0.13664 0.96078 0.0
H744 H 0.44101 0.13229 0.94285 0.0
H745 H 0.51732 0.15985 0.85565 0.0
O746 O 0.47891 0.03139 0.94631 0.0
C747 C 0.52329 0.09954 0.87209 0.0
Co748 Co 0.9577 0.42077 0.91559 0.0
Co749 Co 0.91087 0.37155 0.87346 0.0
C750 C 0.96857 0.39761 0.83655 0.0
O751 O 0.97637 0.41367 0.86872 0.0
O752 O 0.94352 0.37979 0.83242 0.0
C753 C 1.00339 0.46221 0.97073 0.0
O754 O 0.01563 0.44914 0.98284 0.0
C755 C 0.86913 0.31415 0.84789 0.0
C756 C 0.83306 0.31636 0.86545 0.0
C757 C 0.84115 0.29872 0.85124 0.0
N758 N 0.87695 0.33957 0.86041 0.0
N759 N 0.8551 0.34055 0.87029 0.0
C760 C 0.88814 0.30443 0.83699 0.0
H761 H 0.90871 0.31902 0.84832 0.0
H762 H 0.88125 0.28439 0.85204 0.0
H763 H 0.88863 0.30234 0.80102 0.0
C764 C 0.93685 0.38817 0.99691 0.0
N765 N 0.93696 0.39143 0.95318 0.0
N766 N 0.91821 0.36919 0.9353 0.0
C767 C 0.90632 0.35046 0.96741 0.0
C768 C 0.91764 0.36192 1.00791 0.0
C769 C 0.95275 0.41067 0.02805 0.0
H770 H 0.95412 0.42948 0.01574 0.0
H771 H 0.97327 0.41367 0.03095 0.0
H772 H 0.94338 0.40629 0.06096 0.0
O773 O 0.93729 0.43626 0.89203 0.0
O774 O 0.90148 0.40143 0.86475 0.0
H775 H 0.86598 0.32025 0.95311 0.0
H776 H 0.88398 0.30867 0.9871 0.0
C777 C 0.8857 0.32177 0.95908 0.0
H778 H 0.89134 0.31462 0.92958 0.0
H779 H 0.85526 0.35762 0.88217 0.0
O780 O 0.98264 0.45107 0.9475 0.0
C781 C 0.91479 0.42648 0.87347 0.0
Co782 Co 0.59428 0.54205 0.91772 0.0
Co783 Co 0.64382 0.54381 0.87588 0.0
C784 C 0.61707 0.5753 0.83777 0.0
O785 O 0.60125 0.56794 0.87044 0.0
O786 O 0.63466 0.56769 0.83438 0.0
C787 C 0.55274 0.54549 0.97351 0.0
O788 O 0.56663 0.57077 0.98548 0.0
C789 C 0.70097 0.56017 0.84584 0.0
C790 C 0.70087 0.52325 0.86661 0.0
C791 C 0.71726 0.54837 0.84846 0.0
N792 N 0.67646 0.54275 0.86243 0.0
N793 N 0.67677 0.52076 0.87438 0.0
C794 C 0.70788 0.58681 0.82649 0.0
H795 H 0.68987 0.58554 0.81089 0.0
H796 H 0.71432 0.60195 0.85294 0.0
H797 H 0.72428 0.59342 0.80208 0.0
C798 C 0.62735 0.55458 0.99907 0.0
N799 N 0.6239 0.55098 0.95539 0.0
N800 N 0.64583 0.55348 0.93765 0.0
C801 C 0.66431 0.55966 0.9698 0.0
C802 C 0.65318 0.56049 1.0101 0.0
C803 C 0.60539 0.54951 0.03048 0.0
H804 H 0.58628 0.53207 0.01951 0.0
H805 H 0.60315 0.56756 0.03179 0.0
H806 H 0.60983 0.54523 0.06388 0.0
O807 O 0.57949 0.50618 0.89352 0.0
O808 O 0.61438 0.50438 0.8683 0.0
H809 H 0.69221 0.54627 0.95716 0.0
H810 H 0.70561 0.57632 0.98998 0.0
C811 C 0.69237 0.56547 0.96198 0.0
H812 H 0.7005 0.57784 0.93199 0.0
H813 H 0.66054 0.50411 0.88894 0.0
O814 O 0.56301 0.53526 0.94954 0.0
C815 C 0.58925 0.49307 0.87613 0.0
Co816 Co 0.62694 0.8786 0.7491 0.0
Co817 Co 0.57767 0.87761 0.70719 0.0
C818 C 0.63573 0.91005 0.66823 0.0
O819 O 0.64509 0.90416 0.70141 0.0
O820 O 0.6103 0.90135 0.66519 0.0
C821 C 0.67326 0.88334 0.80482 0.0
O822 O 0.68512 0.90846 0.81777 0.0
C823 C 0.53621 0.89393 0.68072 0.0
C824 C 0.50004 0.8537 0.68387 0.0
C825 C 0.5082 0.88041 0.67571 0.0
N826 N 0.54383 0.87579 0.69134 0.0
N827 N 0.5219 0.85188 0.69297 0.0
C828 C 0.55541 0.92328 0.67441 0.0
H829 H 0.57616 0.92702 0.67021 0.0
H830 H 0.55495 0.93449 0.7035 0.0
H831 H 0.54945 0.9309 0.64559 0.0
C832 C 0.60592 0.8904 0.82992 0.0
N833 N 0.60556 0.88669 0.78629 0.0
N834 N 0.58501 0.88743 0.76902 0.0
C835 C 0.57193 0.89224 0.80162 0.0
C836 C 0.58483 0.89436 0.8415 0.0
C837 C 0.62423 0.88711 0.86083 0.0
H838 H 0.62609 0.86956 0.85108 0.0
H839 H 0.6443 0.90545 0.85965 0.0
H840 H 0.61667 0.8839 0.89493 0.0
O841 O 0.60664 0.84232 0.72562 0.0
O842 O 0.56911 0.83865 0.70033 0.0
H843 H 0.53059 0.87535 0.7847 0.0
H844 H 0.54235 0.90217 0.82456 0.0
C845 C 0.54773 0.89503 0.79469 0.0
H846 H 0.55184 0.90962 0.76798 0.0
H847 H 0.52172 0.83414 0.7011 0.0
O848 O 0.65255 0.87373 0.78135 0.0
C849 C 0.58384 0.82836 0.70827 0.0
Co850 Co 0.13618 0.75272 0.7477 0.0
Co851 Co 0.13779 0.70523 0.70511 0.0
C852 C 0.10489 0.73022 0.66637 0.0
O853 O 0.11114 0.74579 0.6991 0.0
O854 O 0.11362 0.7135 0.66325 0.0
C855 C 0.13112 0.79416 0.80359 0.0
O856 O 0.10551 0.78215 0.81366 0.0
C857 C 0.12189 0.64776 0.68095 0.0
C858 C 0.1616 0.65102 0.68837 0.0
C859 C 0.13495 0.63261 0.68003 0.0
N860 N 0.14015 0.67355 0.69042 0.0
N861 N 0.16378 0.67517 0.69431 0.0
C862 C 0.09313 0.63862 0.67111 0.0
H863 H 0.09147 0.65525 0.6557 0.0
H864 H 0.08149 0.63325 0.70203 0.0
H865 H 0.08443 0.62091 0.64916 0.0
C866 C 0.12267 0.71876 0.82781 0.0
N867 N 0.12733 0.72281 0.78438 0.0
N868 N 0.12788 0.70216 0.76712 0.0
C869 C 0.1235 0.68422 0.79973 0.0
C870 C 0.11998 0.69417 0.83925 0.0
C871 C 0.12275 0.73892 0.85862 0.0
H872 H 0.14147 0.75847 0.85406 0.0
H873 H 0.10537 0.74157 0.85125 0.0
H874 H 0.12144 0.73251 0.89323 0.0
O875 O 0.17326 0.76908 0.7265 0.0
O876 O 0.17627 0.73578 0.69733 0.0
H877 H 0.14268 0.66242 0.77939 0.0
H878 H 0.12009 0.64746 0.82527 0.0
C879 C 0.12331 0.65833 0.79377 0.0
H880 H 0.10705 0.6454 0.77085 0.0
H881 H 0.18144 0.69271 0.70246 0.0
O882 O 0.14051 0.78251 0.781 0.0
C883 C 0.18709 0.76052 0.70769 0.0
Co884 Co 0.26048 0.38746 0.7524 0.0
Co885 Co 0.30857 0.43737 0.70987 0.0
C886 C 0.28297 0.37919 0.67122 0.0
O887 O 0.26779 0.36933 0.70442 0.0
O888 O 0.29939 0.40478 0.66818 0.0
C889 C 0.22472 0.34065 0.8088 0.0
O890 O 0.24142 0.33143 0.81216 0.0
C891 C 0.36634 0.48019 0.68661 0.0
C892 C 0.36138 0.51583 0.68968 0.0
C893 C 0.38064 0.50841 0.68429 0.0
N894 N 0.34008 0.47176 0.69388 0.0
N895 N 0.33752 0.49338 0.6951 0.0
C896 C 0.37758 0.46171 0.68546 0.0
H897 H 0.36331 0.44203 0.70056 0.0
H898 H 0.39719 0.47086 0.70259 0.0
H899 H 0.38083 0.45821 0.65092 0.0
C900 C 0.2944 0.40892 0.83245 0.0
N901 N 0.29049 0.4092 0.78889 0.0
N902 N 0.31153 0.43 0.77121 0.0
C903 C 0.32959 0.44336 0.80343 0.0
C904 C 0.31934 0.43023 0.84314 0.0
C905 C 0.27382 0.39018 0.86437 0.0
H906 H 0.25404 0.38797 0.85651 0.0
H907 H 0.27259 0.37036 0.86236 0.0
H908 H 0.27915 0.39754 0.89843 0.0
O909 O 0.2439 0.40762 0.72918 0.0
O910 O 0.2781 0.44532 0.70431 0.0
H911 H 0.35194 0.48401 0.78069 0.0
H912 H 0.36581 0.47715 0.82884 0.0
C913 C 0.3556 0.46893 0.79717 0.0
H914 H 0.36893 0.46503 0.77617 0.0
H915 H 0.31952 0.49297 0.70141 0.0
O916 O 0.2309 0.36158 0.78676 0.0
C917 C 0.25311 0.43074 0.71237 0.0
Co918 Co 0.54741 0.9568 0.11272 0.0
Co919 Co 0.54677 0.90805 0.15486 0.0
C920 C 0.57901 0.96609 0.19341 0.0
O921 O 0.57219 0.97484 0.16052 0.0
O922 O 0.57108 0.94074 0.19683 0.0
C923 C 0.55287 1.00377 0.05869 0.0
O924 O 0.57883 0.01817 0.05173 0.0
C925 C 0.56026 0.8647 0.18231 0.0
C926 C 0.52098 0.82944 0.16665 0.0
C927 C 0.54637 0.83638 0.18136 0.0
N928 N 0.54358 0.87346 0.16866 0.0
N929 N 0.52017 0.85207 0.15972 0.0
C930 C 0.58862 0.88325 0.19586 0.0
H931 H 0.59144 0.90328 0.20436 0.0
H932 H 0.60224 0.88592 0.16824 0.0
H933 H 0.59396 0.87476 0.22422 0.0
C934 C 0.56086 0.93709 0.03233 0.0
N935 N 0.55643 0.93623 0.07583 0.0
N936 N 0.55664 0.91534 0.09304 0.0
C937 C 0.56134 0.90223 0.06037 0.0
C938 C 0.56422 0.91567 0.02081 0.0
C939 C 0.55983 0.95688 1.00164 0.0
H940 H 0.54078 0.95695 1.00653 0.0
H941 H 0.57676 0.97723 1.00889 0.0
H942 H 0.56121 0.95206 0.96699 0.0
O943 O 0.5108 0.93638 0.13487 0.0
O944 O 0.50812 0.89962 0.16207 0.0
H945 H 0.54205 0.86036 0.07551 0.0
H946 H 0.56887 0.87134 0.03598 0.0
C947 C 0.5623 0.8769 0.06637 0.0
H948 H 0.5763 0.87954 0.09327 0.0
H949 H 0.50369 0.85288 0.14742 0.0
O950 O 0.54291 0.98206 0.0798 0.0
C951 C 0.49723 0.91364 0.15285 0.0
Co952 Co 0.05892 0.59384 0.1128 0.0
Co953 Co 0.10817 0.64211 0.15274 0.0
C954 C 0.05098 0.61703 0.19354 0.0
O955 O 0.04131 0.60124 0.16121 0.0
O956 O 0.0764 0.63394 0.19579 0.0
C957 C 0.01123 0.55263 0.061 0.0
O958 O 0.99821 0.56552 0.05289 0.0
C959 C 0.15001 0.69935 0.17825 0.0
C960 C 0.18644 0.69713 0.16359 0.0
C961 C 0.17817 0.71484 0.17683 0.0
N962 N 0.14244 0.67403 0.16549 0.0
N963 N 0.16446 0.67304 0.1572 0.0
C964 C 0.13054 0.70772 0.19308 0.0
H965 H 0.11302 0.69052 0.20909 0.0
H966 H 0.12295 0.71366 0.16426 0.0
H967 H 0.14018 0.72488 0.21607 0.0
C968 C 0.07802 0.62602 0.03111 0.0
N969 N 0.07918 0.62297 0.07469 0.0
N970 N 0.09993 0.6444 0.09105 0.0
C971 C 0.1123 0.66225 0.05785 0.0
C972 C 0.09867 0.65125 0.0186 0.0
C973 C 0.05965 0.60381 1.00117 0.0
H974 H 0.05898 0.58487 1.01086 0.0
H975 H 0.03916 0.60089 1.00378 0.0
H976 H 0.06637 0.60828 0.96663 0.0
O977 O 0.07988 0.57796 0.13359 0.0
O978 O 0.11657 0.61175 0.16086 0.0
H979 H 0.15417 0.68671 0.07086 0.0
H980 H 0.14106 0.70189 0.0337 0.0
C981 C 0.13671 0.68928 0.06348 0.0
H982 H 0.1337 0.69968 0.09144 0.0
H983 H 0.16451 0.65593 0.14604 0.0
O984 O 0.03296 0.56364 0.08179 0.0
C985 C 0.10254 0.58685 0.15146 0.0
Co986 Co 0.41957 0.46563 0.11454 0.0
Co987 Co 0.37125 0.46722 0.15531 0.0
C988 C 0.39592 0.43434 0.19524 0.0
O989 O 0.41124 0.43958 0.16231 0.0
O990 O 0.38003 0.44403 0.19818 0.0
C991 C 0.46089 0.46093 0.05888 0.0
O992 O 0.44646 0.43619 0.04464 0.0
C993 C 0.31382 0.45121 0.18263 0.0
C994 C 0.31543 0.48934 0.16544 0.0
C995 C 0.29812 0.46353 0.1802 0.0
N996 N 0.33906 0.46901 0.16917 0.0
N997 N 0.33967 0.49176 0.15958 0.0
C998 C 0.30441 0.42247 0.19355 0.0
H999 H 0.31947 0.41691 0.18312 0.0
H1000 H 0.28482 0.40921 0.17761 0.0
H1001 H 0.30148 0.41956 0.22942 0.0
C1002 C 0.38739 0.45489 0.03299 0.0
N1003 N 0.39053 0.45807 0.07673 0.0
N1004 N 0.36899 0.45677 0.09403 0.0
C1005 C 0.35098 0.45163 0.06154 0.0
C1006 C 0.3621 0.45037 0.02155 0.0
C1007 C 0.40939 0.4595 1.00195 0.0
H1008 H 0.42875 0.47625 1.01367 0.0
H1009 H 0.41071 0.44095 0.99991 0.0
H1010 H 0.40561 0.46464 0.96869 0.0
O1011 O 0.43521 0.50177 0.13813 0.0
O1012 O 0.40148 0.50625 0.16152 0.0
H1013 H 0.32459 0.46678 0.07511 0.0
H1014 H 0.31029 0.43759 0.04006 0.0
C1015 C 0.32337 0.4472 0.06879 0.0
H1016 H 0.31428 0.4341 0.09775 0.0
H1017 H 0.35653 0.50882 0.14729 0.0
O1018 O 0.4507 0.47108 0.08328 0.0
C1019 C 0.42652 0.51615 0.15436 0.0
Co1020 Co 0.0564 0.46871 0.61658 0.0
Co1021 Co 0.10606 0.46984 0.6552 0.0
C1022 C 0.0484 0.43668 0.69554 0.0
O1023 O 0.03863 0.44262 0.66306 0.0
O1024 O 0.07393 0.44577 0.69806 0.0
C1025 C 0.00915 0.46421 0.56521 0.0
O1026 O 0.99566 0.43854 0.55548 0.0
C1027 C 0.14788 0.45413 0.68043 0.0
C1028 C 0.18405 0.4939 0.67119 0.0
C1029 C 0.17606 0.46758 0.68238 0.0
N1030 N 0.14011 0.47195 0.66872 0.0
N1031 N 0.16201 0.4956 0.66345 0.0
C1032 C 0.12859 0.42516 0.68986 0.0
H1033 H 0.10841 0.42219 0.69742 0.0
H1034 H 0.12682 0.41304 0.6606 0.0
H1035 H 0.13585 0.418 0.71758 0.0
C1036 C 0.07566 0.4568 0.53426 0.0
N1037 N 0.077 0.46072 0.57785 0.0
N1038 N 0.09801 0.46027 0.59365 0.0
C1039 C 0.11062 0.4557 0.56002 0.0
C1040 C 0.09668 0.4531 0.52115 0.0
C1041 C 0.05629 0.45948 0.50493 0.0
H1042 H 0.05555 0.47779 0.51368 0.0
H1043 H 0.03603 0.44172 0.50946 0.0
H1044 H 0.06208 0.46097 0.47002 0.0
O1045 O 0.07675 0.5048 0.64057 0.0
O1046 O 0.11494 0.50863 0.66255 0.0
H1047 H 0.15236 0.47416 0.57487 0.0
H1048 H 0.14113 0.44803 0.534 0.0
C1049 C 0.13567 0.4542 0.56488 0.0
H1050 H 0.13276 0.43955 0.59097 0.0
H1051 H 0.16201 0.513 0.65359 0.0
O1052 O 0.03084 0.47396 0.586 0.0
C1053 C 0.09997 0.5188 0.65634 0.0
Co1054 Co 0.54469 0.59195 0.61655 0.0
Co1055 Co 0.54546 0.64129 0.65619 0.0
C1056 C 0.5773 0.61578 0.69652 0.0
O1057 O 0.56986 0.59945 0.66472 0.0
O1058 O 0.56956 0.63332 0.6991 0.0
C1059 C 0.54918 0.54932 0.56471 0.0
O1060 O 0.57486 0.56149 0.55504 0.0
C1061 C 0.56097 0.69876 0.68221 0.0
C1062 C 0.52365 0.69761 0.66143 0.0
C1063 C 0.54887 0.71474 0.67824 0.0
N1064 N 0.54365 0.67375 0.66753 0.0
N1065 N 0.52142 0.67342 0.65559 0.0
C1066 C 0.5878 0.70636 0.70109 0.0
H1067 H 0.58692 0.68872 0.71767 0.0
H1068 H 0.60273 0.71251 0.67426 0.0
H1069 H 0.59435 0.72315 0.72461 0.0
C1070 C 0.55729 0.62338 0.53434 0.0
N1071 N 0.55373 0.62088 0.57806 0.0
N1072 N 0.55553 0.64287 0.59425 0.0
C1073 C 0.56137 0.66062 0.56075 0.0
C1074 C 0.56287 0.6489 0.52147 0.0
C1075 C 0.55161 0.60042 0.50476 0.0
H1076 H 0.53326 0.58205 0.51593 0.0
H1077 H 0.5687 0.59666 0.50591 0.0
H1078 H 0.54851 0.60459 0.47047 0.0
O1079 O 0.50831 0.577 0.63767 0.0
O1080 O 0.5063 0.61124 0.66508 0.0
H1081 H 0.54569 0.68692 0.57023 0.0
H1082 H 0.57574 0.7011 0.5372 0.0
C1083 C 0.56547 0.68828 0.56606 0.0
H1084 H 0.57763 0.6977 0.59567 0.0
H1085 H 0.50477 0.65669 0.64229 0.0
O1086 O 0.53952 0.56122 0.58585 0.0
C1087 C 0.49494 0.58628 0.65564 0.0
Co1088 Co 0.41991 0.95824 0.6084 0.0
Co1089 Co 0.37404 0.90761 0.65313 0.0
C1090 C 0.39933 0.96635 0.6909 0.0
O1091 O 0.41354 0.97654 0.65684 0.0
O1092 O 0.38372 0.94064 0.69437 0.0
C1093 C 0.46989 0.99805 0.58295 0.0
O1094 O 0.47433 1.00028 0.62524 0.0
C1095 C 0.31633 0.86575 0.67633 0.0
C1096 C 0.32103 0.82998 0.68052 0.0
C1097 C 0.30183 0.83773 0.68169 0.0
N1098 N 0.34268 0.87377 0.67147 0.0
N1099 N 0.34512 0.85214 0.6746 0.0
C1100 C 0.3052 0.88424 0.67224 0.0
H1101 H 0.3198 0.90317 0.65547 0.0
H1102 H 0.2859 0.87431 0.65418 0.0
H1103 H 0.30134 0.88929 0.70542 0.0
C1104 C 0.38486 0.93699 0.53175 0.0
N1105 N 0.38929 0.93607 0.57482 0.0
N1106 N 0.36964 0.91396 0.59205 0.0
C1107 C 0.3522 0.89976 0.55954 0.0
C1108 C 0.36135 0.91402 0.52033 0.0
C1109 C 0.40389 0.95862 0.50128 0.0
H1110 H 0.40932 0.97858 0.51483 0.0
H1111 H 0.39519 0.95663 0.46822 0.0
H1112 H 0.42247 0.95739 0.49829 0.0
O1113 O 0.4381 0.93874 0.63005 0.0
O1114 O 0.40514 0.90051 0.65657 0.0
H1115 H 0.31977 0.863 0.533 0.0
H1116 H 0.31215 0.87479 0.58237 0.0
C1117 C 0.32787 0.87263 0.56508 0.0
H1118 H 0.33286 0.85958 0.58503 0.0
H1119 H 0.3632 0.85227 0.67087 0.0
O1120 O 0.44624 0.98392 0.56898 0.0
C1121 C 0.42988 0.91575 0.64712 0.0
Co1122 Co 0.13296 0.38752 0.25608 0.0
Co1123 Co 0.13767 0.43745 0.20941 0.0
C1124 C 0.1049 0.37957 0.17137 0.0
O1125 O 0.11014 0.37 0.20503 0.0
O1126 O 0.11359 0.40504 0.16818 0.0
C1127 C 0.14297 0.34813 0.28383 0.0
O1128 O 0.15061 0.34931 0.24304 0.0
C1129 C 0.12418 0.48057 0.18412 0.0
C1130 C 0.16497 0.51595 0.18635 0.0
C1131 C 0.13832 0.50869 0.18105 0.0
N1132 N 0.14183 0.47196 0.19162 0.0
N1133 N 0.16614 0.49337 0.19232 0.0
C1134 C 0.09442 0.46241 0.18388 0.0
H1135 H 0.08891 0.44297 0.20003 0.0
H1136 H 0.08436 0.47215 0.20046 0.0
H1137 H 0.08735 0.45835 0.14953 0.0
C1138 C 0.11699 0.4082 0.33107 0.0
N1139 N 0.12346 0.40928 0.28844 0.0
N1140 N 0.12655 0.43152 0.27072 0.0
C1141 C 0.1227 0.44573 0.30258 0.0
C1142 C 0.11635 0.43126 0.34187 0.0
C1143 C 0.11394 0.38654 0.36191 0.0
H1144 H 0.09961 0.36657 0.34815 0.0
H1145 H 0.10697 0.38845 0.39473 0.0
H1146 H 0.13366 0.38785 0.3658 0.0
O1147 O 0.17142 0.40726 0.23885 0.0
O1148 O 0.17511 0.44269 0.20393 0.0
H1149 H 0.14492 0.48633 0.27947 0.0
H1150 H 0.12482 0.48189 0.32769 0.0
C1151 C 0.12563 0.47287 0.29614 0.0
H1152 H 0.10909 0.47094 0.27511 0.0
H1153 H 0.18359 0.49271 0.1988 0.0
O1154 O 0.13109 0.36061 0.29511 0.0
C1155 C 0.18546 0.42885 0.21745 0.0
Co1156 Co 0.62304 0.74975 0.25249 0.0
Co1157 Co 0.57588 0.70233 0.20719 0.0
C1158 C 0.63511 0.73098 0.17071 0.0
O1159 O 0.64271 0.74542 0.20488 0.0
O1160 O 0.61001 0.71298 0.16592 0.0
C1161 C 0.66767 0.79658 0.29718 0.0
O1162 O 0.68756 0.79828 0.27364 0.0
C1163 C 0.53401 0.64569 0.17733 0.0
C1164 C 0.49799 0.64695 0.19874 0.0
C1165 C 0.5059 0.62985 0.18125 0.0
N1166 N 0.54184 0.67054 0.19283 0.0
N1167 N 0.52002 0.67097 0.20498 0.0
C1168 C 0.55314 0.6382 0.15775 0.0
H1169 H 0.56982 0.65597 0.14131 0.0
H1170 H 0.56206 0.63189 0.18416 0.0
H1171 H 0.54282 0.62161 0.1339 0.0
C1172 C 0.60412 0.71493 0.3299 0.0
N1173 N 0.60294 0.71921 0.28678 0.0
N1174 N 0.5822 0.69841 0.26916 0.0
C1175 C 0.56924 0.68004 0.30151 0.0
C1176 C 0.58268 0.69008 0.34113 0.0
C1177 C 0.62484 0.73488 0.3603 0.0
H1178 H 0.64507 0.74297 0.34563 0.0
H1179 H 0.6243 0.72578 0.39262 0.0
H1180 H 0.62106 0.75182 0.36519 0.0
O1181 O 0.60256 0.76559 0.22973 0.0
O1182 O 0.5665 0.73202 0.20057 0.0
H1183 H 0.52725 0.65708 0.28879 0.0
H1184 H 0.53954 0.64064 0.3247 0.0
C1185 C 0.54423 0.6536 0.29524 0.0
H1186 H 0.54663 0.64321 0.26661 0.0
H1187 H 0.52021 0.68753 0.21925 0.0
O1188 O 0.64414 0.77789 0.29086 0.0
C1189 C 0.58026 0.75676 0.21079 0.0
Co1190 Co 0.26353 0.8784 0.24939 0.0
Co1191 Co 0.31178 0.87745 0.20684 0.0
C1192 C 0.28665 0.91016 0.1681 0.0
O1193 O 0.27117 0.90384 0.2011 0.0
O1194 O 0.30342 0.90151 0.16463 0.0
C1195 C 0.2137 0.87248 0.27762 0.0
O1196 O 0.2079 0.87417 0.23666 0.0
C1197 C 0.36857 0.8912 0.17963 0.0
C1198 C 0.36501 0.85211 0.19597 0.0
C1199 C 0.38326 0.87765 0.1811 0.0
N1200 N 0.34315 0.87422 0.19321 0.0
N1201 N 0.3414 0.85093 0.20257 0.0
C1202 C 0.37814 0.91954 0.16566 0.0
H1203 H 0.36087 0.92205 0.15642 0.0
H1204 H 0.38873 0.93326 0.19329 0.0
H1205 H 0.39227 0.92513 0.13772 0.0
C1206 C 0.29568 0.88907 0.32881 0.0
N1207 N 0.29298 0.88601 0.28512 0.0
N1208 N 0.31468 0.88767 0.2681 0.0
C1209 C 0.33251 0.89293 0.30103 0.0
C1210 C 0.32108 0.89427 0.34072 0.0
C1211 C 0.27287 0.88292 0.35923 0.0
H1212 H 0.25528 0.86338 0.35016 0.0
H1213 H 0.26736 0.89881 0.35624 0.0
H1214 H 0.2778 0.88138 0.39377 0.0
O1215 O 0.24638 0.84173 0.22658 0.0
O1216 O 0.28072 0.83888 0.20047 0.0
H1217 H 0.35781 0.87634 0.28915 0.0
H1218 H 0.37264 0.90563 0.32391 0.0
C1219 C 0.35979 0.89632 0.29485 0.0
H1220 H 0.36949 0.9091 0.26579 0.0
H1221 H 0.32416 0.83428 0.21484 0.0
O1222 O 0.23699 0.87762 0.28794 0.0
C1223 C 0.25569 0.82823 0.20875 0.0
C1224 C 0.34712 0.15001 0.16315 0.0
C1225 C 0.33544 0.14531 0.20514 0.0
C1226 C 0.34414 0.16653 0.13307 0.0
C1227 C 0.32878 0.17837 0.14349 0.0
H1228 H 0.35973 0.14195 0.15384 0.0
H1229 H 0.3545 0.17061 0.10197 0.0
S1230 S 0.2865 0.16498 0.24252 0.0
N1231 N 0.3033 0.14912 0.25174 0.0
N1232 N 0.2963 0.17903 0.19382 0.0
C1233 C 0.31425 0.1712 0.18305 0.0
C1234 C 0.31775 0.15476 0.21414 0.0
C1235 C 0.84484 0.17221 0.13543 0.0
C1236 C 0.82062 0.15441 0.15694 0.0
C1237 C 0.86681 0.19184 0.1584 0.0
C1238 C 0.86515 0.19432 0.20354 0.0
H1239 H 0.84705 0.1704 0.10061 0.0
H1240 H 0.88485 0.20559 0.14059 0.0
S1241 S 0.80685 0.15229 0.27544 0.0
N1242 N 0.79662 0.14003 0.22596 0.0
N1243 N 0.83781 0.17761 0.2694 0.0
C1244 C 0.84104 0.17686 0.22549 0.0
C1245 C 0.81871 0.15679 0.20208 0.0
C1246 C 0.84007 0.67171 0.22551 0.0
C1247 C 0.82039 0.67444 0.20237 0.0
C1248 C 0.86033 0.66985 0.20355 0.0
C1249 C 0.86124 0.67035 0.15781 0.0
H1250 H 0.83951 0.67062 0.26091 0.0
H1251 H 0.87589 0.66912 0.22242 0.0
S1252 S 0.81322 0.67494 0.08229 0.0
N1253 N 0.80212 0.67596 0.13161 0.0
N1254 N 0.84041 0.67264 0.08992 0.0
C1255 C 0.84136 0.67249 0.13433 0.0
C1256 C 0.82091 0.67462 0.15671 0.0
C1257 C 0.1673 0.35836 0.35393 0.0
C1258 C 0.15585 0.34098 0.31808 0.0
C1259 C 0.18149 0.35333 0.38586 0.0
C1260 C 0.18503 0.33108 0.38224 0.0
H1261 H 0.16612 0.37649 0.35662 0.0
H1262 H 0.19024 0.36718 0.41289 0.0
S1263 S 0.15669 0.27816 0.29713 0.0
N1264 N 0.14751 0.30001 0.2821 0.0
N1265 N 0.17413 0.29014 0.34256 0.0
C1266 C 0.17316 0.31317 0.34715 0.0
C1267 C 0.15866 0.3183 0.31474 0.0
C1268 C 0.69596 0.84126 0.3308 0.0
C1269 C 0.67053 0.81903 0.32401 0.0
C1270 C 0.6989 0.86339 0.35379 0.0
C1271 C 0.6765 0.86405 0.37137 0.0
H1272 H 0.71377 0.84164 0.3183 0.0
H1273 H 0.71916 0.87986 0.3586 0.0
S1274 S 0.60517 0.81195 0.35937 0.0
N1275 N 0.622 0.7996 0.33439 0.0
N1276 N 0.6281 0.84154 0.378 0.0
C1277 C 0.6509 0.84231 0.36399 0.0
C1278 C 0.64776 0.81968 0.34038 0.0
C1279 C 0.1743 0.81843 0.36067 0.0
C1280 C 0.15263 0.82226 0.36937 0.0
C1281 C 0.19383 0.8348 0.33037 0.0
C1282 C 0.19244 0.85571 0.30842 0.0
H1283 H 0.17603 0.80262 0.37708 0.0
H1284 H 0.21008 0.83092 0.32381 0.0
S1285 S 0.14064 0.87508 0.32196 0.0
N1286 N 0.13115 0.84897 0.35481 0.0
N1287 N 0.16852 0.88 0.29824 0.0
C1288 C 0.171 0.85983 0.31685 0.0
C1289 C 0.15091 0.84304 0.34739 0.0
C1290 C 0.67516 0.83903 0.89282 0.0
C1291 C 0.6722 0.81687 0.86868 0.0
C1292 C 0.67777 0.86187 0.87185 0.0
C1293 C 0.67783 0.86326 0.82615 0.0
H1294 H 0.67586 0.83881 0.92823 0.0
H1295 H 0.67873 0.87801 0.89143 0.0
S1296 S 0.67362 0.81198 0.74835 0.0
N1297 N 0.67146 0.79856 0.79705 0.0
N1298 N 0.67615 0.8415 0.75727 0.0
C1299 C 0.67552 0.84153 0.80169 0.0
C1300 C 0.67265 0.81824 0.82304 0.0
C1301 C 0.17343 0.83733 0.80159 0.0
C1302 C 0.15121 0.8182 0.82591 0.0
C1303 C 0.19607 0.85771 0.82231 0.0
C1304 C 0.1972 0.85931 0.86799 0.0
H1305 H 0.17338 0.83626 0.76621 0.0
H1306 H 0.21226 0.87281 0.80252 0.0
S1307 S 0.14553 0.81252 0.94637 0.0
N1308 N 0.13252 0.80088 0.89773 0.0
N1309 N 0.17501 0.83954 0.93712 0.0
C1310 C 0.17536 0.83994 0.89267 0.0
C1311 C 0.1523 0.81931 0.87153 0.0
C1312 C 0.16057 0.33276 0.85175 0.0
C1313 C 0.1631 0.33085 0.89713 0.0
C1314 C 0.1797 0.33354 0.82306 0.0
C1315 C 0.20203 0.33229 0.83853 0.0
H1316 H 0.14375 0.33384 0.83814 0.0
H1317 H 0.17753 0.33614 0.78845 0.0
S1318 S 0.21809 0.32681 0.95396 0.0
N1319 N 0.18967 0.32728 0.95622 0.0
N1320 N 0.22576 0.32884 0.90156 0.0
C1321 C 0.20466 0.32977 0.88355 0.0
C1322 C 0.18524 0.3292 0.91306 0.0
C1323 C 0.84918 0.66474 0.68437 0.0
C1324 C 0.84873 0.66755 0.73 0.0
C1325 C 0.82988 0.66543 0.65776 0.0
C1326 C 0.80919 0.66856 0.67572 0.0
H1327 H 0.86462 0.66212 0.66886 0.0
H1328 H 0.83168 0.66445 0.62262 0.0
S1329 S 0.79966 0.6785 0.79234 0.0
N1330 N 0.82647 0.67506 0.79163 0.0
N1331 N 0.78951 0.67522 0.74115 0.0
C1332 C 0.80818 0.67109 0.72107 0.0
C1333 C 0.82822 0.67103 0.7483 0.0
C1334 C 0.32015 0.14866 0.66628 0.0
C1335 C 0.34438 0.14849 0.66076 0.0
C1336 C 0.31969 0.17031 0.68572 0.0
C1337 C 0.34337 0.19264 0.70057 0.0
H1338 H 0.30127 0.132 0.6552 0.0
H1339 H 0.30054 0.16947 0.6891 0.0
S1340 S 0.41209 0.20195 0.69424 0.0
N1341 N 0.39259 0.17232 0.67192 0.0
N1342 N 0.39187 0.21311 0.70924 0.0
C1343 C 0.36774 0.19254 0.69616 0.0
C1344 C 0.36819 0.17043 0.67606 0.0
C1345 C 0.84002 0.16686 0.70978 0.0
C1346 C 0.81846 0.14281 0.69409 0.0
C1347 C 0.85921 0.18553 0.68128 0.0
C1348 C 0.8572 0.18099 0.63595 0.0
H1349 H 0.84174 0.17147 0.74438 0.0
H1350 H 0.87581 0.20359 0.69494 0.0
S1351 S 0.80263 0.12196 0.57866 0.0
N1352 N 0.79498 0.11584 0.63103 0.0
N1353 N 0.83086 0.15114 0.57657 0.0
C1354 C 0.83518 0.15723 0.61977 0.0
C1355 C 0.8159 0.138 0.64911 0.0
C1356 C 1.0032 0.50457 0.47465 0.0
C1357 C 0.00887 0.52853 0.49614 0.0
C1358 C 1.00109 0.48264 0.49779 0.0
C1359 C 1.00463 0.48407 0.5431 0.0
H1360 H 0.99981 0.50261 0.43965 0.0
H1361 H 0.99769 0.46494 0.47997 0.0
S1362 S 0.01902 0.54171 0.61483 0.0
N1363 N 0.01717 0.55205 0.56517 0.0
N1364 N 0.01389 0.51092 0.60901 0.0
C1365 C 0.0103 0.50785 0.56502 0.0
C1366 C 0.01242 0.53016 0.54142 0.0
C1367 C 0.51133 0.50218 0.4737 0.0
C1368 C 0.48627 0.48503 0.49341 0.0
C1369 C 0.53258 0.52198 0.49774 0.0
C1370 C 0.52936 0.52511 0.54224 0.0
H1371 H 0.51464 0.49994 0.43946 0.0
H1372 H 0.55123 0.53542 0.48112 0.0
S1373 S 0.46834 0.48426 0.60961 0.0
N1374 N 0.45979 0.47159 0.56 0.0
N1375 N 0.49969 0.50912 0.60567 0.0
C1376 C 0.50447 0.5079 0.56245 0.0
C1377 C 0.48284 0.48784 0.53785 0.0
C1378 C 0.4893 0.97944 0.5315 0.0
C1379 C 0.49141 1.00182 0.55366 0.0
C1380 C 0.50986 0.98199 0.50414 0.0
C1381 C 0.53306 0.00705 0.49793 0.0
H1382 H 0.47167 0.95975 0.53565 0.0
H1383 H 0.50737 0.96431 0.48738 0.0
S1384 S 0.54708 0.07197 0.5481 0.0
N1385 N 0.5175 0.0495 0.56779 0.0
N1386 N 0.55646 0.05507 0.51615 0.0
C1387 C 0.53526 0.02967 0.52036 0.0
C1388 C 0.5143 0.02685 0.54832 0.0
C1389 C 0.50872 1.00067 0.05632 0.0
C1390 C 0.53339 0.0083 0.03546 0.0
C1391 C 0.48713 0.99915 0.0332 0.0
C1392 C 0.48964 1.00518 0.98856 0.0
H1393 H 0.506 0.99543 0.09076 0.0
H1394 H 0.46881 0.99418 0.0506 0.0
S1395 S 0.5493 0.02465 0.91838 0.0
N1396 N 0.55865 0.0207 0.9676 0.0
N1397 N 0.51812 0.01836 0.92375 0.0
C1398 C 0.51409 0.01259 0.9672 0.0
C1399 C 0.53605 0.01417 0.99081 0.0
C1400 C 0.01338 0.49 0.03704 0.0
C1401 C 1.00794 0.48676 0.99224 0.0
C1402 C 0.01225 0.5104 0.05975 0.0
C1403 C 1.00563 0.52811 0.03837 0.0
H1404 H 0.01769 0.47627 0.05487 0.0
H1405 H 0.01716 0.51275 0.09427 0.0
S1406 S 0.99074 0.52844 0.92086 0.0
N1407 N 0.9962 0.50299 0.92682 0.0
N1408 N 0.99445 0.54166 0.96997 0.0
C1409 C 1.00018 0.52509 0.99363 0.0
C1410 C 1.00141 0.5044 0.9704 0.0
C1411 C 0.48712 0.48239 0.99203 0.0
C1412 C 0.4859 0.48046 0.03772 0.0
C1413 C 0.50813 0.5048 0.97145 0.0
C1414 C 0.52827 0.52601 0.99596 0.0
H1415 H 0.47131 0.46704 0.9722 0.0
H1416 H 0.50888 0.50543 0.93603 0.0
S1417 S 0.53514 0.52913 0.11626 0.0
N1418 N 0.50702 0.50068 0.10691 0.0
N1419 N 0.54674 0.54281 0.06783 0.0
C1420 C 0.52744 0.52411 0.04156 0.0
C1421 C 0.50619 0.50125 0.06252 0.0
C1422 C 0.26054 0.12306 0.03575 0.0
C1423 C 0.24165 0.13168 0.04092 0.0
C1424 C 0.25251 0.09586 0.02788 0.0
C1425 C 0.22517 0.0759 0.0259 0.0
H1426 H 0.28181 0.13758 0.03659 0.0
H1427 H 0.26799 0.09088 0.02193 0.0
S1428 S 0.16767 0.08767 0.04163 0.0
N1429 N 0.19442 0.11784 0.04566 0.0
N1430 N 0.17921 0.06698 0.03271 0.0
C1431 C 0.20614 0.08431 0.0325 0.0
C1432 C 0.21435 0.11201 0.03959 0.0
C1433 C 0.89775 0.13911 0.05196 0.0
C1434 C 0.88536 0.11333 0.03251 0.0
C1435 C 0.92485 0.1582 0.04448 0.0
C1436 C 0.94093 0.15248 0.01722 0.0
H1437 H 0.88653 0.14464 0.07384 0.0
H1438 H 0.93341 0.17725 0.06136 0.0
S1439 S 0.9184 0.08894 0.95614 0.0
N1440 N 0.89141 0.08375 0.98329 0.0
N1441 N 0.94231 0.11954 0.9692 0.0
C1442 C 0.92885 0.12699 0.99709 0.0
C1443 C 0.90116 0.10749 1.0047 0.0
C1444 C 0.87913 0.76757 0.05822 0.0
C1445 C 0.90215 0.77637 0.03158 0.0
C1446 C 0.85989 0.77529 0.04983 0.0
C1447 C 0.8627 0.79203 1.01427 0.0
H1448 H 0.87597 0.75471 0.08623 0.0
H1449 H 0.8431 0.7686 0.07208 0.0
S1450 S 0.91796 0.81889 0.93242 0.0
N1451 N 0.92581 0.80176 0.96699 0.0
N1452 N 0.8897 0.81611 0.95081 0.0
C1453 C 0.88541 0.80068 0.98701 0.0
C1454 C 0.90509 0.79293 0.99574 0.0
C1455 C 0.08579 0.20572 0.48623 0.0
C1456 C 0.07793 0.22394 0.50196 0.0
C1457 C 0.11294 0.21308 0.48096 0.0
C1458 C 0.1336 0.23922 0.49031 0.0
H1459 H 0.07077 0.18534 0.47786 0.0
H1460 H 0.11774 0.19835 0.46855 0.0
S1461 S 0.12525 0.29411 0.53673 0.0
N1462 N 0.0943 0.2688 0.53146 0.0
N1463 N 0.14487 0.28311 0.51797 0.0
C1464 C 0.12635 0.25765 0.50624 0.0
C1465 C 0.09872 0.24995 0.51295 0.0
C1466 C 0.7959 0.90358 0.52167 0.0
C1467 C 0.77633 0.89989 0.49059 0.0
C1468 C 0.80317 0.88379 0.52885 0.0
C1469 C 0.79121 0.85936 0.50539 0.0
H1470 H 0.80564 0.92184 0.54079 0.0
H1471 H 0.81844 0.88773 0.55306 0.0
S1472 S 0.74079 0.84066 0.41728 0.0
N1473 N 0.74609 0.87012 0.4344 0.0
N1474 N 0.76027 0.83367 0.44751 0.0
C1475 C 0.77195 0.85557 0.47382 0.0
C1476 C 0.76443 0.87561 0.46652 0.0
C1477 C 0.10937 0.89735 0.51311 0.0
C1478 C 0.11553 0.88061 0.48807 0.0
C1479 C 0.12852 0.92461 0.5203 0.0
C1480 C 0.1548 0.93642 0.50306 0.0
H1481 H 0.08953 0.88944 0.52713 0.0
H1482 H 0.12262 0.93661 0.5395 0.0
S1483 S 0.18094 0.90211 0.43288 0.0
N1484 N 0.15009 0.87847 0.44511 0.0
N1485 N 0.18528 0.92948 0.45757 0.0
C1486 C 0.16118 0.92004 0.47775 0.0
C1487 C 0.1418 0.89228 0.47055 0.0
C1488 C 0.8015 0.90017 0.99604 0.0
C1489 C 0.77419 0.88049 0.99461 0.0
C1490 C 0.80968 0.92746 1.00263 0.0
C1491 C 0.79098 0.93635 1.00846 0.0
H1492 H 0.81671 0.89456 0.9915 0.0
H1493 H 0.83101 0.94176 1.00339 0.0
S1494 S 0.71689 0.89223 1.01178 0.0
N1495 N 0.72831 0.87161 1.00123 0.0
N1496 N 0.74372 0.92233 0.01605 0.0
C1497 C 0.76359 0.9167 1.00805 0.0
C1498 C 0.75523 0.88899 1.00056 0.0
C1499 C 0.11934 0.90319 0.02526 0.0
C1500 C 0.13385 0.89993 0.99121 0.0
C1501 C 0.09226 0.88374 0.03332 0.0
C1502 C 0.07851 0.86021 1.00776 0.0
H1503 H 0.12905 0.92062 0.04627 0.0
H1504 H 0.082 0.88715 0.06007 0.0
S1505 S 0.10611 0.84409 0.91049 0.0
N1506 N 0.13147 0.87227 0.92921 0.0
N1507 N 0.08086 0.83656 0.94401 0.0
C1508 C 0.09253 0.8572 0.9728 0.0
C1509 C 0.12005 0.87683 0.96463 0.0
C1510 C 0.16204 0.24821 1.006 0.0
C1511 C 0.1548 0.22097 1.00101 0.0
C1512 C 0.14333 0.25691 0.99997 0.0
C1513 C 0.11627 0.23876 0.98999 0.0
H1514 H 0.18201 0.26319 0.01536 0.0
H1515 H 0.15004 0.27808 1.00395 0.0
S1516 S 0.08629 0.16568 0.97127 0.0
N1517 N 0.11796 0.17609 0.98304 0.0
N1518 N 0.08314 0.19263 0.97389 0.0
C1519 C 0.10853 0.21163 0.98496 0.0
C1520 C 0.12763 0.20274 0.98996 0.0
C1521 C 0.89628 0.788 0.50006 0.0
C1522 C 0.88441 0.77765 0.54101 0.0
C1523 C 0.92323 0.7954 0.49181 0.0
C1524 C 0.93916 0.79251 0.52405 0.0
H1525 H 0.88455 0.78983 0.47399 0.0
H1526 H 0.93167 0.80333 0.45986 0.0
S1527 S 0.91871 0.76976 0.63813 0.0
N1528 N 0.8915 0.76708 0.6152 0.0
N1529 N 0.94184 0.78099 0.59942 0.0
C1530 C 0.92775 0.78288 0.5653 0.0
C1531 C 0.90047 0.77547 0.57382 0.0
C1532 C 0.21995 0.10877 0.51502 0.0
C1533 C 0.24331 0.11511 0.53892 0.0
C1534 C 0.21161 0.1278 0.5086 0.0
C1535 C 0.2263 0.15412 0.52543 0.0
H1536 H 0.20787 0.08889 0.50129 0.0
H1537 H 0.19334 0.12177 0.49036 0.0
S1538 S 0.28791 0.18076 0.59266 0.0
N1539 N 0.28057 0.14983 0.58071 0.0
N1540 N 0.2645 0.18497 0.56904 0.0
C1541 C 0.24955 0.16073 0.54949 0.0
C1542 C 0.25811 0.14142 0.55613 0.0
C1543 C 0.89463 0.11393 0.57774 0.0
C1544 C 0.90171 0.13248 0.54317 0.0
C1545 C 0.87479 0.08681 0.57243 0.0
C1546 C 0.86065 0.07741 0.53286 0.0
H1547 H 0.90465 0.12041 0.60901 0.0
H1548 H 0.87049 0.07302 0.59951 0.0
S1549 S 0.87143 0.11819 0.43269 0.0
N1550 N 0.89295 0.13979 0.46829 0.0
N1551 N 0.85556 0.08891 0.45833 0.0
C1552 C 0.86734 0.09589 0.49825 0.0
C1553 C 0.88786 0.12341 0.50345 0.0
C1554 C 0.90917 0.42401 0.3792 0.0
C1555 C 0.88897 0.40897 0.34873 0.0
C1556 C 0.91746 0.45112 0.38705 0.0
C1557 C 0.90591 0.46454 0.36487 0.0
H1558 H 0.91818 0.41464 0.39816 0.0
H1559 H 0.93297 0.46154 0.4113 0.0
S1560 S 0.85297 0.43439 0.28022 0.0
N1561 N 0.85807 0.40965 0.2951 0.0
N1562 N 0.87361 0.46055 0.31008 0.0
C1563 C 0.88579 0.44976 0.33406 0.0
C1564 C 0.87736 0.42207 0.32599 0.0
C1565 C 0.56398 0.4682 0.39161 0.0
C1566 C 0.55034 0.44411 0.36734 0.0
C1567 C 0.59098 0.48737 0.38345 0.0
C1568 C 0.60561 0.48341 0.35053 0.0
H1569 H 0.55379 0.47229 0.41766 0.0
H1570 H 0.60057 0.505 0.40397 0.0
S1571 S 0.57923 0.42477 0.27575 0.0
N1572 N 0.55356 0.41803 0.30791 0.0
N1573 N 0.60415 0.454 0.29222 0.0
C1574 C 0.59221 0.45959 0.32566 0.0
C1575 C 0.5647 0.44 0.33412 0.0
C1576 C 0.57177 0.12668 0.34452 0.0
C1577 C 0.5666 0.10437 0.37069 0.0
C1578 C 0.55226 0.13435 0.33832 0.0
C1579 C 0.52658 0.12011 0.35785 0.0
H1580 H 0.5911 0.13844 0.32872 0.0
H1581 H 0.55745 0.1518 0.31806 0.0
S1582 S 0.5033 0.06137 0.43219 0.0
N1583 N 0.53382 0.06861 0.41771 0.0
N1584 N 0.4978 0.08352 0.40669 0.0
C1585 C 0.52117 0.09791 0.38434 0.0
C1586 C 0.54098 0.08997 0.39061 0.0
C1587 C 0.78123 0.54847 0.81478 0.0
C1588 C 0.80171 0.57494 0.82293 0.0
C1589 C 0.75406 0.54056 0.82167 0.0
C1590 C 0.74616 0.55868 0.83737 0.0
H1591 H 0.7862 0.53384 0.80241 0.0
H1592 H 0.73906 0.51991 0.81485 0.0
S1593 S 0.79262 0.62911 0.87065 0.0
N1594 N 0.81252 0.61872 0.85079 0.0
N1595 N 0.76179 0.60352 0.86579 0.0
C1596 C 0.7666 0.585 0.84693 0.0
C1597 C 0.79423 0.59317 0.8392 0.0
C1598 C 0.42776 0.20521 0.81086 0.0
C1599 C 0.44271 0.23206 0.82555 0.0
C1600 C 0.43645 0.18658 0.81772 0.0
C1601 C 0.46032 0.1937 0.84033 0.0
H1602 H 0.40914 0.19837 0.7933 0.0
H1603 H 0.42465 0.16674 0.80391 0.0
S1604 S 0.50628 0.26085 0.88826 0.0
N1605 N 0.48235 0.26445 0.86514 0.0
N1606 N 0.49835 0.22942 0.87918 0.0
C1607 C 0.47522 0.22032 0.85616 0.0
C1608 C 0.46649 0.23942 0.8487 0.0
C1609 C 0.82538 0.25595 0.80854 0.0
C1610 C 0.82255 0.26942 0.84459 0.0
C1611 C 0.80636 0.22891 0.80009 0.0
C1612 C 0.78362 0.21431 0.8271 0.0
H1613 H 0.84191 0.26652 0.78594 0.0
H1614 H 0.80928 0.2195 0.77161 0.0
S1615 S 0.76827 0.23962 0.92794 0.0
N1616 N 0.79618 0.26554 0.9092 0.0
N1617 N 0.76041 0.21503 0.89285 0.0
C1618 C 0.78085 0.22743 0.86363 0.0
C1619 C 0.80029 0.25485 0.87246 0.0
C1620 C 0.47497 0.26022 0.32105 0.0
C1621 C 0.4568 0.26786 0.33763 0.0
C1622 C 0.46737 0.23308 0.31417 0.0
C1623 C 0.44113 0.21236 0.32304 0.0
H1624 H 0.49538 0.27542 0.31316 0.0
H1625 H 0.48196 0.22837 0.30084 0.0
S1626 S 0.38672 0.22042 0.37232 0.0
N1627 N 0.41212 0.25145 0.36771 0.0
N1628 N 0.39742 0.20088 0.35198 0.0
C1629 C 0.42288 0.21949 0.34029 0.0
C1630 C 0.43077 0.24706 0.34828 0.0
C1631 C 0.78866 0.20639 0.30877 0.0
C1632 C 0.8005 0.23247 0.32684 0.0
C1633 C 0.7614 0.18732 0.31531 0.0
C1634 C 0.74466 0.19353 0.34 0.0
H1635 H 0.80043 0.20076 0.28846 0.0
H1636 H 0.75321 0.16795 0.29952 0.0
S1637 S 0.76564 0.25795 0.3972 0.0
N1638 N 0.79322 0.26273 0.3726 0.0
N1639 N 0.74211 0.22711 0.38456 0.0
C1640 C 0.75624 0.21926 0.35901 0.0
C1641 C 0.78405 0.23864 0.35254 0.0
C1642 C 0.8228 0.57576 0.35976 0.0
C1643 C 0.82258 0.55566 0.33331 0.0
C1644 C 0.80257 0.58267 0.35611 0.0
C1645 C 0.78107 0.56929 0.3267 0.0
H1646 H 0.83825 0.58577 0.38418 0.0
H1647 H 0.80372 0.59859 0.3765 0.0
S1648 S 0.77217 0.51664 0.24807 0.0
N1649 N 0.79966 0.52344 0.27523 0.0
N1650 N 0.76167 0.53623 0.26899 0.0
C1651 C 0.78072 0.54937 0.29995 0.0
C1652 C 0.8014 0.54255 0.30324 0.0
C1653 C 0.57227 0.13404 0.87636 0.0
C1654 C 0.55184 0.10893 0.86197 0.0
C1655 C 0.59944 0.1414 0.87205 0.0
C1656 C 0.60741 0.12413 0.85267 0.0
H1657 H 0.56722 0.14773 0.89237 0.0
H1658 H 0.61439 0.16087 0.88437 0.0
S1659 S 0.56093 0.0574 0.80436 0.0
N1660 N 0.54095 0.06727 0.82562 0.0
N1661 N 0.59178 0.08184 0.81427 0.0
C1662 C 0.58694 0.09935 0.83652 0.0
C1663 C 0.55927 0.09161 0.842 0.0
C1664 C 0.91471 0.49155 0.84881 0.0
C1665 C 0.8875 0.48432 0.85203 0.0
C1666 C 0.92305 0.47257 0.85499 0.0
C1667 C 0.90459 0.44522 0.86347 0.0
H1668 H 0.92991 0.5118 0.84058 0.0
H1669 H 0.94431 0.47943 0.85275 0.0
S1670 S 0.83106 0.41517 0.87545 0.0
N1671 N 0.84202 0.44725 0.86521 0.0
N1672 N 0.8579 0.4118 0.87507 0.0
C1673 C 0.87735 0.43745 0.86607 0.0
C1674 C 0.8688 0.45687 0.86073 0.0
C1675 C 0.52492 0.42853 0.84677 0.0
C1676 C 0.53062 0.40804 0.85743 0.0
C1677 C 0.54425 0.45588 0.85196 0.0
C1678 C 0.57043 0.4641 0.86687 0.0
H1679 H 0.50565 0.4237 0.83345 0.0
H1680 H 0.53866 0.47082 0.84393 0.0
S1681 S 0.59571 0.41895 0.90116 0.0
N1682 N 0.56455 0.39835 0.88549 0.0
N1683 N 0.60079 0.44962 0.89363 0.0
C1684 C 0.57657 0.44403 0.87736 0.0
C1685 C 0.55676 0.41613 0.87297 0.0
C1686 C 0.54061 0.75198 0.70108 0.0
C1687 C 0.55891 0.7439 0.68701 0.0
C1688 C 0.54838 0.77927 0.70654 0.0
C1689 C 0.57489 0.79969 0.6985 0.0
H1690 H 0.51996 0.73701 0.70804 0.0
H1691 H 0.53368 0.78434 0.71811 0.0
S1692 S 0.62976 0.79014 0.6551 0.0
N1693 N 0.60406 0.75933 0.66013 0.0
N1694 N 0.61904 0.81024 0.67275 0.0
C1695 C 0.59329 0.79204 0.68366 0.0
C1696 C 0.58525 0.76431 0.67733 0.0
C1697 C 0.25578 0.82491 0.71084 0.0
C1698 C 0.27224 0.81862 0.68548 0.0
C1699 C 0.22842 0.80609 0.71744 0.0
C1700 C 0.2162 0.78004 0.69905 0.0
H1701 H 0.2642 0.84418 0.72696 0.0
H1702 H 0.21689 0.81199 0.73786 0.0
S1703 S 0.25014 0.7541 0.62758 0.0
N1704 N 0.27397 0.78482 0.64015 0.0
N1705 N 0.22284 0.7496 0.65278 0.0
C1706 C 0.23237 0.77369 0.67302 0.0
C1707 C 0.26022 0.79287 0.66625 0.0
C1708 C 0.20809 0.42297 0.68815 0.0
C1709 C 0.23412 0.44067 0.70381 0.0
C1710 C 0.18921 0.43143 0.68174 0.0
C1711 C 0.19531 0.45778 0.69193 0.0
H1712 H 0.20239 0.40244 0.6801 0.0
H1713 H 0.17006 0.41729 0.66768 0.0
S1714 S 0.26009 0.51124 0.73771 0.0
N1715 N 0.2647 0.48534 0.731 0.0
N1716 N 0.22924 0.50112 0.72084 0.0
C1717 C 0.22122 0.47548 0.70855 0.0
C1718 C 0.24056 0.46698 0.71409 0.0
C1719 C 0.43248 0.91392 0.17794 0.0
C1720 C 0.41232 0.88691 0.17234 0.0
C1721 C 0.45979 0.92219 0.17208 0.0
C1722 C 0.46831 0.90374 0.16157 0.0
H1723 H 0.42747 0.92887 0.18794 0.0
H1724 H 0.47445 0.94326 0.17637 0.0
S1725 S 0.42405 0.8309 0.14193 0.0
N1726 N 0.40322 0.84184 0.15402 0.0
N1727 N 0.45445 0.85742 0.14477 0.0
C1728 C 0.44857 0.87672 0.15622 0.0
C1729 C 0.4207 0.86833 0.16123 0.0
C1730 C 0.10761 0.52304 0.14653 0.0
C1731 C 0.12845 0.52817 0.17577 0.0
C1732 C 0.09958 0.54216 0.13902 0.0
C1733 C 0.11209 0.56737 0.16027 0.0
H1734 H 0.09788 0.50445 0.12831 0.0
H1735 H 0.08358 0.53717 0.11575 0.0
S1736 S 0.16658 0.59003 0.24217 0.0
N1737 N 0.16067 0.55989 0.22768 0.0
N1738 N 0.1457 0.59574 0.21326 0.0
C1739 C 0.13275 0.57262 0.18995 0.0
C1740 C 0.14088 0.55309 0.19773 0.0
C1741 C 0.44027 0.5653 0.15602 0.0
C1742 C 0.44648 0.54487 0.16329 0.0
C1743 C 0.45995 0.59259 0.16059 0.0
C1744 C 0.48662 0.60068 0.17296 0.0
H1745 H 0.42027 0.56023 0.14578 0.0
H1746 H 0.45414 0.60755 0.15435 0.0
S1747 S 0.51183 0.55451 0.2022 0.0
N1748 N 0.48062 0.53438 0.18639 0.0
N1749 N 0.51684 0.5853 0.19747 0.0
C1750 C 0.49271 0.58029 0.18186 0.0
C1751 C 0.47285 0.55255 0.17641 0.0
C1752 C 0.14176 0.59512 0.6538 0.0
C1753 C 0.12483 0.60324 0.67384 0.0
C1754 C 0.13424 0.56785 0.64987 0.0
C1755 C 0.10933 0.5475 0.66546 0.0
H1756 H 0.16108 0.61004 0.64078 0.0
H1757 H 0.14767 0.56266 0.63337 0.0
S1758 S 0.05887 0.55729 0.72528 0.0
N1759 N 0.08315 0.5881 0.71391 0.0
N1760 N 0.06832 0.53701 0.70385 0.0
C1761 C 0.09236 0.55516 0.68613 0.0
C1762 C 0.10025 0.58293 0.69101 0.0
C1763 C 0.45334 0.54133 0.64462 0.0
C1764 C 0.4658 0.56705 0.66424 0.0
C1765 C 0.42618 0.52229 0.65188 0.0
C1766 C 0.41006 0.52796 0.67924 0.0
H1767 H 0.46458 0.53586 0.6227 0.0
H1768 H 0.41768 0.50334 0.63478 0.0
S1769 S 0.43271 0.59179 0.73983 0.0
N1770 N 0.4597 0.5968 0.7129 0.0
N1771 N 0.40882 0.56115 0.727 0.0
C1772 C 0.42224 0.55353 0.69931 0.0
C1773 C 0.44995 0.57298 0.69176 0.0
C1774 C 0.47386 0.92302 0.67652 0.0
C1775 C 0.44959 0.90657 0.65437 0.0
C1776 C 0.49315 0.91498 0.68261 0.0
C1777 C 0.48921 0.89046 0.66578 0.0
H1778 H 0.47773 0.94203 0.69001 0.0
H1779 H 0.51079 0.92775 0.7017 0.0
S1780 S 0.43034 0.84176 0.60065 0.0
N1781 N 0.42345 0.86559 0.61323 0.0
N1782 N 0.45974 0.85082 0.62308 0.0
C1783 C 0.4653 0.87432 0.64234 0.0
C1784 C 0.44553 0.88228 0.63696 0.0
C1785 C 0.22892 0.42988 0.23483 0.0
C1786 C 0.21398 0.43723 0.20708 0.0
C1787 C 0.25584 0.43751 0.22546 0.0
C1788 C 0.26878 0.45255 0.18776 0.0
H1789 H 0.21992 0.4186 0.26453 0.0
H1790 H 0.26677 0.43232 0.24861 0.0
S1791 S 0.2376 0.47365 0.10152 0.0
N1792 N 0.21367 0.45843 0.13845 0.0
N1793 N 0.26378 0.47239 0.12064 0.0
C1794 C 0.25373 0.45911 0.15904 0.0
C1795 C 0.22651 0.45156 0.16871 0.0
C1796 C 0.58201 0.82267 0.18592 0.0
C1797 C 0.55507 0.81616 0.19047 0.0
C1798 C 0.58975 0.80322 0.19204 0.0
C1799 C 0.57086 0.77618 0.20171 0.0
H1800 H 0.59734 0.84267 0.17655 0.0
H1801 H 0.6108 0.8094 0.18859 0.0
S1802 S 0.49795 0.74831 0.21851 0.0
N1803 N 0.50953 0.78035 0.20703 0.0
N1804 N 0.52419 0.74395 0.2166 0.0
C1805 C 0.54391 0.76921 0.20602 0.0
C1806 C 0.53603 0.7891 0.20082 0.0
C1807 C 0.22268 0.75194 0.20334 0.0
C1808 C 0.19719 0.74402 0.18523 0.0
C1809 C 0.242 0.7792 0.20947 0.0
C1810 C 0.23652 0.79967 0.19808 0.0
H1811 H 0.22776 0.73689 0.21314 0.0
H1812 H 0.26104 0.78423 0.22429 0.0
S1813 S 0.17497 0.79049 0.14348 0.0
N1814 N 0.16933 0.7596 0.15078 0.0
N1815 N 0.20484 0.81051 0.1647 0.0
C1816 C 0.21152 0.79218 0.17896 0.0
C1817 C 0.19206 0.76449 0.17193 0.0
C1818 C 0.25174 0.22267 0.25624 0.0
C1819 C 0.24268 0.23137 0.22006 0.0
C1820 C 0.24701 0.2273 0.29976 0.0
C1821 C 0.23225 0.24013 0.30929 0.0
H1822 H 0.26287 0.21234 0.25108 0.0
H1823 H 0.25557 0.22136 0.32606 0.0
S1824 S 0.20058 0.26339 0.22717 0.0
N1825 N 0.21729 0.25269 0.19756 0.0
N1826 N 0.20524 0.25786 0.27854 0.0
C1827 C 0.22135 0.24707 0.27352 0.0
C1828 C 0.22724 0.24352 0.22926 0.0
C1829 C 0.79754 0.00849 0.24036 0.0
C1830 C 0.78441 0.0217 0.22323 0.0
C1831 C 0.79402 0.99978 0.28443 0.0
C1832 C 0.77747 1.00419 0.31311 0.0
H1833 H 0.81081 1.00506 0.21972 0.0
H1834 H 0.80395 0.98913 0.29597 0.0
S1835 S 0.73724 0.03605 0.28438 0.0
N1836 N 0.7529 0.03715 0.23852 0.0
N1837 N 0.74708 0.02155 0.32091 0.0
C1838 C 0.76411 0.01706 0.29636 0.0
C1839 C 0.76739 0.02563 0.25164 0.0
C1840 C 0.99877 0.75211 0.29232 0.0
C1841 C 0.01178 0.77805 0.31031 0.0
C1842 C 0.99042 0.74776 0.24839 0.0
C1843 C 0.99473 0.76915 0.22036 0.0
H1844 H 0.99546 0.73507 0.31221 0.0
H1845 H 0.98061 0.72737 0.23615 0.0
S1846 S 0.02883 0.84117 0.2516 0.0
N1847 N 0.02961 0.82559 0.29663 0.0
N1848 N 0.01304 0.81747 0.21464 0.0
C1849 C 1.00788 0.79527 0.23807 0.0
C1850 C 0.01655 0.79968 0.28286 0.0
C1851 C 0.75034 0.76153 0.78065 0.0
C1852 C 0.77077 0.78114 0.80712 0.0
C1853 C 0.75529 0.75726 0.73718 0.0
C1854 C 0.78081 0.77259 0.71813 0.0
H1855 H 0.73031 0.74919 0.79379 0.0
H1856 H 0.73907 0.74157 0.71845 0.0
S1857 S 0.84142 0.8261 0.77285 0.0
N1858 N 0.81769 0.81611 0.81047 0.0
N1859 N 0.82699 0.80758 0.72919 0.0
C1860 C 0.80148 0.79214 0.74406 0.0
C1861 C 0.79647 0.79652 0.78841 0.0
C1862 C 0.25656 1.00003 0.73454 0.0
C1863 C 0.24443 0.01403 0.71723 0.0
C1864 C 0.25233 0.99105 0.77827 0.0
C1865 C 0.23578 0.99566 0.80681 0.0
H1866 H 0.26967 0.99621 0.71416 0.0
H1867 H 0.26226 0.98043 0.7899 0.0
S1868 S 0.20011 0.0324 0.77748 0.0
N1869 N 0.2161 0.03317 0.73215 0.0
N1870 N 0.20726 0.01551 0.81373 0.0
C1871 C 0.22372 0.00992 0.78982 0.0
C1872 C 0.22821 0.01922 0.74524 0.0
C1873 C 0.99445 0.22997 0.79922 0.0
C1874 C 0.02219 0.24359 0.80777 0.0
C1875 C 0.98443 0.22456 0.75617 0.0
C1876 C 1.00157 0.23375 0.71927 0.0
H1877 H 0.98024 0.22381 0.82596 0.0
H1878 H 0.9629 0.21331 0.75201 0.0
S1879 S 0.07594 0.26788 0.72345 0.0
N1880 N 0.06655 0.26216 0.77516 0.0
N1881 N 0.04801 0.25652 0.69498 0.0
C1882 C 0.02936 0.24689 0.7274 0.0
C1883 C 0.03953 0.25081 0.77128 0.0
C1884 C 0.93315 0.58496 0.5782 0.0
C1885 C 0.91187 0.56732 0.55079 0.0
C1886 C 0.92867 0.59006 0.62149 0.0
C1887 C 0.9027 0.57772 0.63941 0.0
H1888 H 0.95358 0.59499 0.56603 0.0
H1889 H 0.94568 0.6039 0.64108 0.0
S1890 S 0.83989 0.53019 0.58231 0.0
N1891 N 0.86365 0.53729 0.54568 0.0
N1892 N 0.85529 0.54761 0.62643 0.0
C1893 C 0.88119 0.56027 0.61256 0.0
C1894 C 0.88573 0.55493 0.56845 0.0
C1895 C 0.42347 0.34109 0.57339 0.0
C1896 C 0.44825 0.34913 0.55297 0.0
C1897 C 0.41876 0.33219 0.61711 0.0
C1898 C 0.43868 0.3311 0.64243 0.0
H1899 H 0.40763 0.34181 0.5554 0.0
H1900 H 0.39923 0.32591 0.63124 0.0
S1901 S 0.50754 0.35139 0.60479 0.0
N1902 N 0.49339 0.35669 0.56177 0.0
N1903 N 0.48442 0.33942 0.64361 0.0
C1904 C 0.46372 0.33952 0.62252 0.0
C1905 C 0.4685 0.3486 0.57789 0.0
C1906 C 0.66106 0.10235 0.63051 0.0
C1907 C 0.68868 0.11772 0.63953 0.0
C1908 C 0.65128 0.09792 0.58725 0.0
C1909 C 0.66865 0.10747 0.5506 0.0
H1910 H 0.64681 0.09314 0.657 0.0
H1911 H 0.62979 0.08655 0.58272 0.0
S1912 S 0.74275 0.15082 0.5563 0.0
N1913 N 0.733 0.14578 0.60787 0.0
N1914 N 0.71515 0.13376 0.52724 0.0
C1915 C 0.6963 0.12333 0.55929 0.0
C1916 C 0.70612 0.1292 0.60339 0.0
C1917 C 0.46691 0.12844 0.11987 0.0
C1918 C 0.44225 0.11105 0.14056 0.0
C1919 C 0.47162 0.12463 0.07575 0.0
C1920 C 0.45176 0.10345 0.05073 0.0
H1921 H 0.48243 0.14541 0.13754 0.0
H1922 H 0.49096 0.13819 0.06123 0.0
S1923 S 0.38386 0.05269 0.08904 0.0
N1924 N 0.39791 0.07188 0.13215 0.0
N1925 N 0.40666 0.06512 0.04983 0.0
C1926 C 0.42717 0.08606 0.07105 0.0
C1927 C 0.42245 0.08976 0.11571 0.0
C1928 C 0.92787 0.34527 0.12525 0.0
C1929 C 0.90165 0.32994 0.14166 0.0
C1930 C 0.93266 0.35492 0.08189 0.0
C1931 C 0.91146 0.34981 0.0531 0.0
H1932 H 0.94481 0.34962 0.146 0.0
H1933 H 0.95326 0.36646 0.07079 0.0
S1934 S 0.83892 0.31003 0.08055 0.0
N1935 N 0.85415 0.3092 0.12582 0.0
N1936 N 0.86299 0.32829 0.04515 0.0
C1937 C 0.88507 0.33433 0.06932 0.0
C1938 C 0.88023 0.32423 0.11337 0.0
C1939 C 0.66291 0.58451 0.08257 0.0
C1940 C 0.6652 0.56601 0.05523 0.0
C1941 C 0.67274 0.58929 0.12578 0.0
C1942 C 0.68509 0.57563 0.14372 0.0
H1943 H 0.65351 0.59551 0.07035 0.0
H1944 H 0.67078 0.60392 0.14527 0.0
S1945 S 0.69616 0.52517 0.08685 0.0
N1946 N 0.68067 0.53374 0.05017 0.0
N1947 N 0.69943 0.54311 0.13091 0.0
C1948 C 0.68763 0.55719 0.11697 0.0
C1949 C 0.67766 0.55231 0.07291 0.0
C1950 C 0.59417 0.9247 0.9557 0.0
C1951 C 0.56903 0.90892 0.97579 0.0
C1952 C 0.59882 0.92005 0.91225 0.0
C1953 C 0.57844 0.89963 0.88675 0.0
H1954 H 0.61038 0.94086 0.97374 0.0
H1955 H 0.61861 0.93262 0.89838 0.0
S1956 S 0.50877 0.85309 0.92396 0.0
N1957 N 0.52329 0.87244 0.96679 0.0
N1958 N 0.53201 0.86342 0.88544 0.0
C1959 C 0.55311 0.88383 0.90647 0.0
C1960 C 0.54843 0.88852 0.95086 0.0
C1961 C 0.1299 0.67293 0.95362 0.0
C1962 C 0.1044 0.66284 0.97311 0.0
C1963 C 0.13475 0.68228 0.90986 0.0
C1964 C 0.11428 0.68189 0.88399 0.0
H1965 H 0.14611 0.67328 0.97213 0.0
H1966 H 0.1547 0.69018 0.89634 0.0
S1967 S 0.04439 0.65822 0.91934 0.0
N1968 N 0.05875 0.65376 0.96284 0.0
N1969 N 0.06786 0.67098 0.88118 0.0
C1970 C 0.08889 0.67204 0.90311 0.0
C1971 C 0.08395 0.66259 0.94742 0.0
C1972 C 0.34275 0.42244 0.90575 0.0
C1973 C 0.33141 0.437 0.88769 0.0
C1974 C 0.35223 0.42672 0.94906 0.0
C1975 C 0.35056 0.44559 0.97629 0.0
H1976 H 0.34408 0.40743 0.88632 0.0
H1977 H 0.36082 0.41499 0.96146 0.0
S1978 S 0.32208 0.4886 0.94439 0.0
N1979 N 0.31847 0.47061 0.90024 0.0
N1980 N 0.33676 0.47917 0.98125 0.0
C1981 C 0.33914 0.46023 0.95849 0.0
C1982 C 0.32948 0.45582 0.91431 0.0
C1983 C 0.12673 0.46417 0.45441 0.0
C1984 C 0.10207 0.44743 0.47561 0.0
C1985 C 0.13105 0.45964 0.41049 0.0
C1986 C 0.11084 0.43825 0.38627 0.0
H1987 H 0.14268 0.48098 0.47174 0.0
H1988 H 0.15047 0.4726 0.39569 0.0
S1989 S 0.04299 0.38863 0.42658 0.0
N1990 N 0.05749 0.40844 0.46887 0.0
N1991 N 0.06539 0.40044 0.38675 0.0
C1992 C 0.08617 0.42163 0.40706 0.0
C1993 C 0.08185 0.42606 0.45156 0.0
C1994 C 0.55814 0.68075 0.41335 0.0
C1995 C 0.57627 0.67797 0.38593 0.0
C1996 C 0.55417 0.67185 0.45734 0.0
C1997 C 0.56833 0.66001 0.47563 0.0
H1998 H 0.5472 0.69015 0.40083 0.0
H1999 H 0.53969 0.67398 0.47698 0.0
S2000 S 0.61926 0.64975 0.41791 0.0
N2001 N 0.60902 0.66341 0.38051 0.0
N2002 N 0.60217 0.6473 0.46273 0.0
C2003 C 0.58682 0.65763 0.44847 0.0
C2004 C 0.59065 0.66647 0.40384 0.0
C2005 C 0.34372 0.88532 0.40471 0.0
C2006 C 0.33231 0.8998 0.38614 0.0
C2007 C 0.35223 0.88913 0.44877 0.0
C2008 C 0.34937 0.90734 0.47579 0.0
H2009 H 0.34577 0.87073 0.38528 0.0
H2010 H 0.36141 0.87805 0.46162 0.0
S2011 S 0.32147 0.95054 0.44321 0.0
N2012 N 0.31968 0.93381 0.39839 0.0
N2013 N 0.33464 0.94001 0.48093 0.0
C2014 C 0.33806 0.92184 0.45766 0.0
C2015 C 0.32983 0.91834 0.41297 0.0
C2016 C 0.34862 0.27458 0.97218 0.0
C2017 C 0.32112 0.25598 0.96459 0.0
C2018 C 0.36794 0.28413 0.9381 0.0
C2019 C 0.36081 0.2752 0.89474 0.0
H2020 H 0.35551 0.28115 1.0052 0.0
H2021 H 0.38879 0.29755 0.94628 0.0
S2022 S 0.29134 0.22657 0.85723 0.0
N2023 N 0.28792 0.22943 0.91015 0.0
N2024 N 0.32343 0.24688 0.84642 0.0
C2025 C 0.3331 0.25719 0.88664 0.0
C2026 C 0.31353 0.24775 0.92129 0.0
C2027 C 0.76408 0.06637 0.92135 0.0
C2028 C 0.75885 0.06898 0.96545 0.0
C2029 C 0.75489 0.07636 0.88715 0.0
C2030 C 0.7397 0.0892 0.89512 0.0
H2031 H 0.77677 0.05807 0.91322 0.0
H2032 H 0.76072 0.07491 0.85407 0.0
S2033 S 0.71849 0.09907 1.00466 0.0
N2034 N 0.73591 0.08395 0.01494 0.0
N2035 N 0.71861 0.10225 0.95098 0.0
C2036 C 0.73308 0.09055 0.93892 0.0
C2037 C 0.74267 0.08065 0.97381 0.0
C2038 C 0.91731 0.64564 0.93858 0.0
C2039 C 0.92614 0.65289 0.89518 0.0
C2040 C 0.92625 0.66501 0.97233 0.0
C2041 C 0.94474 0.6927 0.96473 0.0
H2042 H 0.9021 0.62514 0.94616 0.0
H2043 H 0.91768 0.65821 1.00458 0.0
S2044 S 0.97612 0.72183 0.85751 0.0
N2045 N 0.95596 0.68961 0.84708 0.0
N2046 N 0.97285 0.72556 0.91025 0.0
C2047 C 0.95483 0.69989 0.92192 0.0
C2048 C 0.94551 0.6802 0.8874 0.0
C2049 C 0.25977 0.31396 0.60579 0.0
C2050 C 0.25669 0.32117 0.56294 0.0
C2051 C 0.26971 0.33308 0.64016 0.0
C2052 C 0.27758 0.36048 0.63329 0.0
H2053 H 0.2535 0.29321 0.61332 0.0
H2054 H 0.27052 0.32616 0.6728 0.0
S2055 S 0.27278 0.39022 0.5284 0.0
N2056 N 0.26229 0.3585 0.51661 0.0
N2057 N 0.28076 0.39345 0.58065 0.0
C2058 C 0.27518 0.36808 0.59069 0.0
C2059 C 0.26484 0.34877 0.55584 0.0
C2060 C 0.68316 0.93925 0.63941 0.0
C2061 C 0.65517 0.92439 0.63118 0.0
C2062 C 0.70242 0.94884 0.60531 0.0
C2063 C 0.69475 0.94378 0.56108 0.0
H2064 H 0.69039 0.94273 0.67277 0.0
H2065 H 0.72349 0.95909 0.6139 0.0
S2066 S 0.62411 0.90683 0.52123 0.0
N2067 N 0.62105 0.90612 0.57493 0.0
N2068 N 0.65666 0.92378 0.51118 0.0
C2069 C 0.66677 0.92981 0.55237 0.0
C2070 C 0.64722 0.92029 0.58714 0.0
C2071 C 0.08948 0.74647 0.55216 0.0
C2072 C 0.07114 0.75575 0.55981 0.0
C2073 C 0.0987 0.73628 0.58598 0.0
C2074 C 0.09029 0.73498 0.62951 0.0
H2075 H 0.09773 0.74796 0.51978 0.0
H2076 H 0.11376 0.73088 0.57827 0.0
S2077 S 0.04057 0.75387 0.6675 0.0
N2078 N 0.04341 0.76064 0.6146 0.0
N2079 N 0.06093 0.74205 0.67794 0.0
C2080 C 0.07109 0.74301 0.63747 0.0
C2081 C 0.06146 0.75314 0.60287 0.0
C2082 C 0.66913 0.73579 0.05899 0.0
C2083 C 0.69602 0.75655 0.06525 0.0
C2084 C 0.64983 0.72655 0.09325 0.0
C2085 C 0.65629 0.73804 0.13534 0.0
H2086 H 0.66271 0.7271 0.02683 0.0
H2087 H 0.62946 0.71102 0.08614 0.0
S2088 S 0.72362 0.7947 0.16769 0.0
N2089 N 0.72762 0.78891 0.11629 0.0
N2090 N 0.69229 0.7724 0.18007 0.0
C2091 C 0.68337 0.75883 0.14179 0.0
C2092 C 0.70289 0.76784 0.10709 0.0
C2093 C 0.28197 0.91768 0.08757 0.0
C2094 C 0.28165 0.92478 0.13144 0.0
C2095 C 0.27149 0.92661 0.05375 0.0
C2096 C 0.26039 0.94337 0.06183 0.0
H2097 H 0.28886 0.90378 0.07953 0.0
H2098 H 0.27123 0.91939 0.02101 0.0
S2099 S 0.2569 0.96975 0.17061 0.0
N2100 N 0.27071 0.95107 0.18067 0.0
N2101 N 0.25157 0.96798 0.11738 0.0
C2102 C 0.26132 0.95178 0.10524 0.0
C2103 C 0.27171 0.94244 0.13979 0.0
C2104 C 0.06555 0.3136 0.10679 0.0
C2105 C 0.07377 0.32146 0.06321 0.0
C2106 C 0.07446 0.33265 0.14118 0.0
C2107 C 0.09164 0.36056 0.1337 0.0
H2108 H 0.05322 0.29248 0.11482 0.0
H2109 H 0.06849 0.32529 0.17427 0.0
S2110 S 0.11899 0.39218 0.02598 0.0
N2111 N 0.10004 0.3599 0.01497 0.0
N2112 N 0.11631 0.39484 0.07916 0.0
C2113 C 0.09921 0.36877 0.09026 0.0
C2114 C 0.09043 0.34952 0.05533 0.0
C2115 C 0.72926 0.66545 0.41137 0.0
C2116 C 0.74096 0.64946 0.40192 0.0
C2117 C 0.74041 0.68621 0.44337 0.0
C2118 C 0.7638 0.69189 0.4669 0.0
H2119 H 0.71176 0.66231 0.39327 0.0
H2120 H 0.73057 0.69771 0.44988 0.0
S2121 S 0.80369 0.65782 0.4507 0.0
N2122 N 0.77827 0.64231 0.41662 0.0
N2123 N 0.79897 0.68052 0.47573 0.0
C2124 C 0.77575 0.67623 0.45684 0.0
C2125 C 0.76449 0.65536 0.42468 0.0
C2126 C 0.3658 0.08547 0.4324 0.0
C2127 C 0.35884 0.08829 0.3893 0.0
C2128 C 0.34656 0.07563 0.46662 0.0
C2129 C 0.31923 0.06761 0.45951 0.0
H2130 H 0.38651 0.09199 0.44028 0.0
H2131 H 0.35338 0.07508 0.49942 0.0
S2132 S 0.28998 0.07098 0.35339 0.0
N2133 N 0.32182 0.08181 0.34203 0.0
N2134 N 0.28646 0.06352 0.40598 0.0
C2135 C 0.31181 0.06956 0.41655 0.0
C2136 C 0.33132 0.0798 0.38174 0.0
C2137 C 0.94734 0.2767 0.39528 0.0
C2138 C 0.92335 0.27775 0.39877 0.0
C2139 C 0.95589 0.26559 0.42895 0.0
C2140 C 0.94044 0.25436 0.46713 0.0
H2141 H 0.95928 0.28396 0.36575 0.0
H2142 H 0.97438 0.26524 0.42453 0.0
S2143 S 0.87371 0.24849 0.48859 0.0
N2144 N 0.88337 0.26463 0.44151 0.0
N2145 N 0.8983 0.24338 0.50371 0.0
C2146 C 0.91604 0.25495 0.47019 0.0
C2147 C 0.90779 0.26665 0.43642 0.0
C2148 C 1.00488 0.6041 0.22338 0.0
C2149 C 0.03211 0.612 0.23112 0.0
C2150 C 0.98532 0.59389 0.25712 0.0
C2151 C 0.99188 0.59049 0.30019 0.0
H2152 H 0.9984 0.60494 0.19045 0.0
H2153 H 0.96467 0.58741 0.24882 0.0
S2154 S 0.06033 0.60727 0.33743 0.0
N2155 N 0.06437 0.61542 0.2851 0.0
N2156 N 0.02839 0.59634 0.34812 0.0
C2157 C 0.01931 0.59889 0.30836 0.0
C2158 C 0.03913 0.60957 0.2741 0.0
C2159 C 0.41573 0.43846 0.26931 0.0
C2160 C 0.40179 0.42198 0.23381 0.0
C2161 C 0.4273 0.43002 0.30173 0.0
C2162 C 0.42562 0.40451 0.30064 0.0
H2163 H 0.41898 0.45872 0.27092 0.0
H2164 H 0.43849 0.44427 0.32728 0.0
S2165 S 0.38934 0.35279 0.21594 0.0
N2166 N 0.38594 0.37846 0.20001 0.0
N2167 N 0.40707 0.36226 0.26155 0.0
C2168 C 0.41097 0.38746 0.26587 0.0
C2169 C 0.39932 0.39627 0.23242 0.0
C2170 C 0.6035 0.01408 0.22135 0.0
C2171 C 0.59383 0.98632 0.22927 0.0
C2172 C 0.61334 0.03339 0.25511 0.0
C2173 C 0.61392 0.02604 0.29882 0.0
H2174 H 0.60251 0.02099 0.18878 0.0
H2175 H 0.61904 0.05397 0.24717 0.0
S2176 S 0.59402 0.957 0.33738 0.0
N2177 N 0.58789 0.95332 0.28436 0.0
N2178 N 0.60605 0.98924 0.3476 0.0
C2179 C 0.6057 0.99869 0.30698 0.0
C2180 C 0.59585 0.97903 0.27244 0.0
C2181 C 0.41128 0.0119 0.72272 0.0
C2182 C 0.40515 0.98496 0.72906 0.0
C2183 C 0.42178 0.03123 0.75672 0.0
C2184 C 0.42722 0.02472 0.79857 0.0
H2185 H 0.40865 0.01833 0.69067 0.0
H2186 H 0.42664 0.05166 0.74956 0.0
S2187 S 0.41657 0.9572 0.83105 0.0
N2188 N 0.40627 0.95323 0.77991 0.0
N2189 N 0.42584 0.98859 0.84327 0.0
C2190 C 0.42087 0.99757 0.80515 0.0
C2191 C 0.40994 0.97803 0.77071 0.0
C2192 C 1.00138 0.4058 0.72399 0.0
C2193 C 0.02923 0.42195 0.73253 0.0
C2194 C 0.98194 0.39626 0.75775 0.0
C2195 C 0.9893 0.4027 0.80182 0.0
H2196 H 0.99437 0.4014 0.69054 0.0
H2197 H 0.96091 0.3851 0.7489 0.0
S2198 S 0.05953 0.44325 0.8424 0.0
N2199 N 0.06295 0.44283 0.7889 0.0
N2200 N 0.02698 0.42525 0.85211 0.0
C2201 C 0.01719 0.41785 0.81094 0.0
C2202 C 0.03694 0.42732 0.77653 0.0
C2203 C 0.58667 0.61263 0.77686 0.0
C2204 C 0.5925 0.61118 0.73263 0.0
C2205 C 0.59601 0.6024 0.81052 0.0
C2206 C 0.61197 0.59046 0.80188 0.0
H2207 H 0.57339 0.62017 0.78543 0.0
H2208 H 0.5897 0.60295 0.84367 0.0
S2209 S 0.63503 0.5839 0.69182 0.0
N2210 N 0.61685 0.59831 0.68237 0.0
N2211 N 0.63448 0.57964 0.7453 0.0
C2212 C 0.61919 0.59032 0.75801 0.0
C2213 C 0.60943 0.60044 0.72366 0.0
loop_
_geom_bond_atom_site_label_1
_geom_bond_atom_site_label_2
_geom_bond_distance
_geom_bond_site_symmetry_2
_ccdc_geom_bond_type
Co0 O3 1.970 . S
Co0 N17 1.989 . S
Co0 O25 1.967 . S
Co0 O32 1.920 . S
Co1 O4 1.966 1_554 S
Co1 N10 2.022 . S
Co1 N18 1.993 . S
Co1 O26 1.941 . S
C2 O3 1.251 1_556 S
C2 O4 1.264 . S
O3 Co0 1.970 . S
O3 C2 1.251 1_554 S
O4 Co1 1.966 1_556 S
O4 C2 1.264 . S
C5 O6 1.235 . S
C5 O32 1.289 . S
O6 C5 1.235 . S
C7 C9 1.400 . S
C7 N10 1.351 1_556 S
C7 C12 1.501 . S
C8 C9 1.387 1_554 S
C8 N11 1.341 . S
C9 C7 1.400 . S
C9 C8 1.387 1_556 S
N10 Co1 2.022 . S
N10 C7 1.351 1_554 S
N10 N11 1.365 . S
N11 C8 1.341 . S
N11 N10 1.365 . S
N11 H31 0.862 . S
C12 C7 1.501 . S
C12 H13 0.961 . S
C12 H14 0.961 . S
C12 H15 0.960 . S
H13 C12 0.961 . S
H14 C12 0.961 . S
H15 C12 0.960 . S
C16 N17 1.342 . S
C16 C20 1.401 . S
C16 C21 1.499 . S
N17 Co0 1.989 . S
N17 C16 1.342 . S
N17 N18 1.388 . S
N18 Co1 1.993 . S
N18 N17 1.388 . S
N18 C19 1.346 . S
C19 N18 1.346 . S
C19 C20 1.396 . S
C19 C29 1.510 . S
C20 C16 1.401 . S
C20 C19 1.396 . S
C21 C16 1.499 . S
C21 H22 0.959 . S
C21 H23 0.960 . S
C21 H24 0.961 . S
H22 C21 0.959 . S
H23 C21 0.960 . S
H24 C21 0.961 . S
O25 Co0 1.967 . S
O25 C33 1.258 . S
O26 Co1 1.941 . S
O26 C33 1.266 . S
H27 C29 0.959 . S
H28 C29 0.961 . S
C29 C19 1.510 . S
C29 H27 0.959 . S
C29 H28 0.961 . S
C29 H30 0.960 . S
H30 C29 0.960 . S
H31 N11 0.862 . S
O32 Co0 1.920 . S
O32 C5 1.289 . S
C33 O25 1.258 . S
C33 O26 1.266 . S
Co34 O37 1.970 . S
Co34 N51 1.989 . S
Co34 O59 1.967 . S
Co34 O66 1.920 . S
Co35 O38 1.966 1_554 S
Co35 N44 2.022 . S
Co35 N52 1.993 . S
Co35 O60 1.941 . S
C36 O37 1.251 1_556 S
C36 O38 1.264 . S
O37 Co34 1.970 . S
O37 C36 1.251 1_554 S
O38 Co35 1.966 1_556 S
O38 C36 1.264 . S
C39 O40 1.235 . S
C39 O66 1.289 . S
O40 C39 1.235 . S
C41 C43 1.400 . S
C41 N44 1.351 1_566 S
C41 C46 1.501 . S
C42 C43 1.387 1_554 S
C42 N45 1.341 . S
C43 C41 1.400 . S
C43 C42 1.387 1_556 S
N44 Co35 2.022 . S
N44 C41 1.351 1_544 S
N44 N45 1.365 1_545 S
N45 C42 1.341 . S
N45 N44 1.365 1_565 S
N45 H65 0.862 . S
C46 C41 1.501 . S
C46 H47 0.961 1_565 S
C46 H48 0.961 . S
C46 H49 0.960 . S
H47 C46 0.961 1_545 S
H48 C46 0.961 . S
H49 C46 0.960 . S
C50 N51 1.342 . S
C50 C54 1.401 . S
C50 C55 1.499 . S
N51 Co34 1.989 . S
N51 C50 1.342 . S
N51 N52 1.388 . S
N52 Co35 1.993 . S
N52 N51 1.388 . S
N52 C53 1.346 . S
C53 N52 1.346 . S
C53 C54 1.396 . S
C53 C63 1.510 1_545 S
C54 C50 1.401 . S
C54 C53 1.396 . S
C55 C50 1.499 . S
C55 H56 0.959 . S
C55 H57 0.960 . S
C55 H58 0.961 . S
H56 C55 0.959 . S
H57 C55 0.960 . S
H58 C55 0.961 . S
O59 Co34 1.967 . S
O59 C67 1.258 . S
O60 Co35 1.941 . S
O60 C67 1.266 . S
H61 C63 0.959 . S
H62 C63 0.961 . S
C63 C53 1.510 1_565 S
C63 H61 0.959 . S
C63 H62 0.961 . S
C63 H64 0.960 . S
H64 C63 0.960 . S
H65 N45 0.862 . S
O66 Co34 1.920 . S
O66 C39 1.289 . S
C67 O59 1.258 . S
C67 O60 1.266 . S
Co68 O71 1.970 . S
Co68 N85 1.989 . S
Co68 O93 1.967 . S
Co68 O100 1.920 . S
Co69 O72 1.966 1_554 S
Co69 N78 2.022 . S
Co69 N86 1.993 . S
Co69 O94 1.941 . S
C70 O71 1.251 1_556 S
C70 O72 1.264 . S
O71 Co68 1.970 . S
O71 C70 1.251 1_554 S
O72 Co69 1.966 1_556 S
O72 C70 1.264 . S
C73 O74 1.235 . S
C73 O100 1.289 . S
O74 C73 1.235 . S
C75 C77 1.400 . S
C75 N78 1.351 1_456 S
C75 C80 1.501 . S
C76 C77 1.387 1_554 S
C76 N79 1.341 . S
C77 C75 1.400 . S
C77 C76 1.387 1_556 S
N78 Co69 2.022 . S
N78 C75 1.351 1_654 S
N78 N79 1.365 1_655 S
N79 C76 1.341 . S
N79 N78 1.365 1_455 S
N79 H99 0.862 . S
C80 C75 1.501 . S
C80 H81 0.961 1_455 S
C80 H82 0.961 . S
C80 H83 0.960 . S
H81 C80 0.961 1_655 S
H82 C80 0.961 . S
H83 C80 0.960 . S
C84 N85 1.342 . S
C84 C88 1.401 . S
C84 C89 1.499 . S
N85 Co68 1.989 . S
N85 C84 1.342 . S
N85 N86 1.388 . S
N86 Co69 1.993 . S
N86 N85 1.388 . S
N86 C87 1.346 . S
C87 N86 1.346 . S
C87 C88 1.396 . S
C87 C97 1.510 1_655 S
C88 C84 1.401 . S
C88 C87 1.396 . S
C89 C84 1.499 . S
C89 H90 0.959 . S
C89 H91 0.960 . S
C89 H92 0.961 . S
H90 C89 0.959 . S
H91 C89 0.960 . S
H92 C89 0.961 . S
O93 Co68 1.967 . S
O93 C101 1.258 . S
O94 Co69 1.941 . S
O94 C101 1.266 . S
H95 C97 0.959 . S
H96 C97 0.961 . S
C97 C87 1.510 1_455 S
C97 H95 0.959 . S
C97 H96 0.961 . S
C97 H98 0.960 . S
H98 C97 0.960 . S
H99 N79 0.862 . S
O100 Co68 1.920 . S
O100 C73 1.289 . S
C101 O93 1.258 . S
C101 O94 1.266 . S
Co102 O105 1.970 . S
Co102 N119 1.989 . S
Co102 O127 1.967 . S
Co102 O134 1.920 . S
Co103 O106 1.966 . S
Co103 N112 2.022 . S
Co103 N120 1.993 . S
Co103 O128 1.941 . S
C104 O105 1.258 . S
C104 O106 1.263 . S
O105 Co102 1.970 . S
O105 C104 1.258 . S
O106 Co103 1.966 . S
O106 C104 1.263 . S
C107 O108 1.235 . S
C107 O134 1.289 . S
O108 C107 1.235 . S
C109 C111 1.400 . S
C109 N112 1.351 . S
C109 C114 1.501 . S
C110 C111 1.387 . S
C110 N113 1.341 . S
C111 C109 1.400 . S
C111 C110 1.387 . S
N112 Co103 2.022 . S
N112 C109 1.351 . S
N112 N113 1.365 . S
N113 C110 1.341 . S
N113 N112 1.365 . S
N113 H133 0.862 . S
C114 C109 1.501 . S
C114 H115 0.961 . S
C114 H116 0.961 . S
C114 H117 0.960 . S
H115 C114 0.961 . S
H116 C114 0.961 . S
H117 C114 0.960 . S
C118 N119 1.342 . S
C118 C122 1.401 . S
C118 C123 1.499 . S
N119 Co102 1.989 . S
N119 C118 1.342 . S
N119 N120 1.388 . S
N120 Co103 1.993 . S
N120 N119 1.388 . S
N120 C121 1.346 . S
C121 N120 1.346 . S
C121 C122 1.396 . S
C121 C131 1.510 . S
C122 C118 1.401 . S
C122 C121 1.396 . S
C123 C118 1.499 . S
C123 H124 0.959 . S
C123 H125 0.960 . S
C123 H126 0.961 . S
H124 C123 0.959 . S
H125 C123 0.960 . S
H126 C123 0.961 . S
O127 Co102 1.967 . S
O127 C135 1.258 . S
O128 Co103 1.941 . S
O128 C135 1.266 . S
H129 C131 0.959 . S
H130 C131 0.961 . S
C131 C121 1.510 . S
C131 H129 0.959 . S
C131 H130 0.961 . S
C131 H132 0.960 . S
H132 C131 0.960 . S
H133 N113 0.862 . S
O134 Co102 1.920 . S
O134 C107 1.289 . S
C135 O127 1.258 . S
C135 O128 1.266 . S
Co136 O139 1.970 . S
Co136 N153 1.989 . S
Co136 O161 1.967 . S
Co136 O168 1.920 . S
Co137 O140 1.966 . S
Co137 N146 2.022 . S
Co137 N154 1.993 . S
Co137 O162 1.941 . S
C138 O139 1.258 . S
C138 O140 1.263 . S
O139 Co136 1.970 . S
O139 C138 1.258 . S
O140 Co137 1.966 . S
O140 C138 1.263 . S
C141 O142 1.235 . S
C141 O168 1.289 . S
O142 C141 1.235 . S
C143 C145 1.400 . S
C143 N146 1.351 1_545 S
C143 C148 1.501 . S
C144 C145 1.387 . S
C144 N147 1.341 . S
C145 C143 1.400 . S
C145 C144 1.387 . S
N146 Co137 2.022 . S
N146 C143 1.351 1_565 S
N146 N147 1.365 1_565 S
N147 C144 1.341 . S
N147 N146 1.365 1_545 S
N147 H167 0.862 . S
C148 C143 1.501 . S
C148 H149 0.961 1_545 S
C148 H150 0.961 . S
C148 H151 0.960 . S
H149 C148 0.961 1_565 S
H150 C148 0.961 . S
H151 C148 0.960 . S
C152 N153 1.342 . S
C152 C156 1.401 . S
C152 C157 1.499 . S
N153 Co136 1.989 . S
N153 C152 1.342 . S
N153 N154 1.388 . S
N154 Co137 1.993 . S
N154 N153 1.388 . S
N154 C155 1.346 . S
C155 N154 1.346 . S
C155 C156 1.396 . S
C155 C165 1.510 1_565 S
C156 C152 1.401 . S
C156 C155 1.396 . S
C157 C152 1.499 . S
C157 H158 0.959 . S
C157 H159 0.960 . S
C157 H160 0.961 . S
H158 C157 0.959 . S
H159 C157 0.960 . S
H160 C157 0.961 . S
O161 Co136 1.967 . S
O161 C169 1.258 . S
O162 Co137 1.941 . S
O162 C169 1.266 . S
H163 C165 0.959 . S
H164 C165 0.961 . S
C165 C155 1.510 1_545 S
C165 H163 0.959 . S
C165 H164 0.961 . S
C165 H166 0.960 . S
H166 C165 0.960 . S
H167 N147 0.862 . S
O168 Co136 1.920 . S
O168 C141 1.289 . S
C169 O161 1.258 . S
C169 O162 1.266 . S
Co170 O173 1.970 . S
Co170 N187 1.989 . S
Co170 O195 1.967 . S
Co170 O202 1.920 . S
Co171 O174 1.966 . S
Co171 N180 2.022 . S
Co171 N188 1.993 . S
Co171 O196 1.941 . S
C172 O173 1.258 . S
C172 O174 1.263 . S
O173 Co170 1.970 . S
O173 C172 1.258 . S
O174 Co171 1.966 . S
O174 C172 1.263 . S
C175 O176 1.235 . S
C175 O202 1.289 . S
O176 C175 1.235 . S
C177 C179 1.400 . S
C177 N180 1.351 1_655 S
C177 C182 1.501 . S
C178 C179 1.387 . S
C178 N181 1.341 . S
C179 C177 1.400 . S
C179 C178 1.387 . S
N180 Co171 2.022 . S
N180 C177 1.351 1_455 S
N180 N181 1.365 1_455 S
N181 C178 1.341 . S
N181 N180 1.365 1_655 S
N181 H201 0.862 . S
C182 C177 1.501 . S
C182 H183 0.961 1_655 S
C182 H184 0.961 . S
C182 H185 0.960 . S
H183 C182 0.961 1_455 S
H184 C182 0.961 . S
H185 C182 0.960 . S
C186 N187 1.342 . S
C186 C190 1.401 . S
C186 C191 1.499 . S
N187 Co170 1.989 . S
N187 C186 1.342 . S
N187 N188 1.388 . S
N188 Co171 1.993 . S
N188 N187 1.388 . S
N188 C189 1.346 . S
C189 N188 1.346 . S
C189 C190 1.396 . S
C189 C199 1.510 1_455 S
C190 C186 1.401 . S
C190 C189 1.396 . S
C191 C186 1.499 . S
C191 H192 0.959 . S
C191 H193 0.960 . S
C191 H194 0.961 . S
H192 C191 0.959 . S
H193 C191 0.960 . S
H194 C191 0.961 . S
O195 Co170 1.967 . S
O195 C203 1.258 . S
O196 Co171 1.941 . S
O196 C203 1.266 . S
H197 C199 0.959 . S
H198 C199 0.961 . S
C199 C189 1.510 1_655 S
C199 H197 0.959 . S
C199 H198 0.961 . S
C199 H200 0.960 . S
H200 C199 0.960 . S
H201 N181 0.862 . S
O202 Co170 1.920 . S
O202 C175 1.289 . S
C203 O195 1.258 . S
C203 O196 1.266 . S
Co204 O207 1.970 . S
Co204 N221 1.989 . S
Co204 O229 1.967 . S
Co204 O236 1.920 . S
Co205 O208 1.966 1_556 S
Co205 N214 2.022 . S
Co205 N222 1.993 . S
Co205 O230 1.941 . S
C206 O207 1.251 1_554 S
C206 O208 1.264 . S
O207 Co204 1.970 . S
O207 C206 1.251 1_556 S
O208 Co205 1.966 1_554 S
O208 C206 1.264 . S
C209 O210 1.235 . S
C209 O236 1.289 . S
O210 C209 1.235 . S
C211 C213 1.400 . S
C211 N214 1.351 1_554 S
C211 C216 1.501 . S
C212 C213 1.387 1_556 S
C212 N215 1.341 . S
C213 C211 1.400 . S
C213 C212 1.387 1_554 S
N214 Co205 2.022 . S
N214 C211 1.351 1_556 S
N214 N215 1.365 . S
N215 C212 1.341 . S
N215 N214 1.365 . S
N215 H235 0.862 . S
C216 C211 1.501 . S
C216 H217 0.961 . S
C216 H218 0.961 . S
C216 H219 0.960 . S
H217 C216 0.961 . S
H218 C216 0.961 . S
H219 C216 0.960 . S
C220 N221 1.342 . S
C220 C224 1.401 . S
C220 C225 1.499 . S
N221 Co204 1.989 . S
N221 C220 1.342 . S
N221 N222 1.388 . S
N222 Co205 1.993 . S
N222 N221 1.388 . S
N222 C223 1.346 . S
C223 N222 1.346 . S
C223 C224 1.396 . S
C223 C233 1.510 . S
C224 C220 1.401 . S
C224 C223 1.396 . S
C225 C220 1.499 . S
C225 H226 0.959 . S
C225 H227 0.960 . S
C225 H228 0.961 . S
H226 C225 0.959 . S
H227 C225 0.960 . S
H228 C225 0.961 . S
O229 Co204 1.967 . S
O229 C237 1.258 . S
O230 Co205 1.941 . S
O230 C237 1.266 . S
H231 C233 0.959 . S
H232 C233 0.961 . S
C233 C223 1.510 . S
C233 H231 0.959 . S
C233 H232 0.961 . S
C233 H234 0.960 . S
H234 C233 0.960 . S
H235 N215 0.862 . S
O236 Co204 1.920 . S
O236 C209 1.289 . S
C237 O229 1.258 . S
C237 O230 1.266 . S
Co238 O241 1.970 . S
Co238 N255 1.989 . S
Co238 O263 1.967 . S
Co238 O270 1.920 . S
Co239 O242 1.966 1_556 S
Co239 N248 2.022 . S
Co239 N256 1.993 . S
Co239 O264 1.941 . S
C240 O241 1.251 1_554 S
C240 O242 1.264 . S
O241 Co238 1.970 . S
O241 C240 1.251 1_556 S
O242 Co239 1.966 1_554 S
O242 C240 1.264 . S
C243 O244 1.235 . S
C243 O270 1.289 . S
O244 C243 1.235 . S
C245 C247 1.400 . S
C245 N248 1.351 1_544 S
C245 C250 1.501 . S
C246 C247 1.387 1_556 S
C246 N249 1.341 . S
C247 C245 1.400 . S
C247 C246 1.387 1_554 S
N248 Co239 2.022 . S
N248 C245 1.351 1_566 S
N248 N249 1.365 1_565 S
N249 C246 1.341 . S
N249 N248 1.365 1_545 S
N249 H269 0.862 . S
C250 C245 1.501 . S
C250 H251 0.961 1_545 S
C250 H252 0.961 . S
C250 H253 0.960 . S
H251 C250 0.961 1_565 S
H252 C250 0.961 . S
H253 C250 0.960 . S
C254 N255 1.342 . S
C254 C258 1.401 . S
C254 C259 1.499 . S
N255 Co238 1.989 . S
N255 C254 1.342 . S
N255 N256 1.388 . S
N256 Co239 1.993 . S
N256 N255 1.388 . S
N256 C257 1.346 . S
C257 N256 1.346 . S
C257 C258 1.396 . S
C257 C267 1.510 1_565 S
C258 C254 1.401 . S
C258 C257 1.396 . S
C259 C254 1.499 . S
C259 H260 0.959 . S
C259 H261 0.960 . S
C259 H262 0.961 . S
H260 C259 0.959 . S
H261 C259 0.960 . S
H262 C259 0.961 . S
O263 Co238 1.967 . S
O263 C271 1.258 . S
O264 Co239 1.941 . S
O264 C271 1.266 . S
H265 C267 0.959 . S
H266 C267 0.961 . S
C267 C257 1.510 1_545 S
C267 H265 0.959 . S
C267 H266 0.961 . S
C267 H268 0.960 . S
H268 C267 0.960 . S
H269 N249 0.862 . S
O270 Co238 1.920 . S
O270 C243 1.289 . S
C271 O263 1.258 . S
C271 O264 1.266 . S
Co272 O275 1.970 . S
Co272 N289 1.989 . S
Co272 O297 1.967 . S
Co272 O304 1.920 . S
Co273 O276 1.966 1_556 S
Co273 N282 2.022 . S
Co273 N290 1.993 . S
Co273 O298 1.941 . S
C274 O275 1.251 1_554 S
C274 O276 1.264 . S
O275 Co272 1.970 . S
O275 C274 1.251 1_556 S
O276 Co273 1.966 1_554 S
O276 C274 1.264 . S
C277 O278 1.235 . S
C277 O304 1.289 . S
O278 C277 1.235 . S
C279 C281 1.400 . S
C279 N282 1.351 1_654 S
C279 C284 1.501 . S
C280 C281 1.387 1_556 S
C280 N283 1.341 . S
C281 C279 1.400 . S
C281 C280 1.387 1_554 S
N282 Co273 2.022 . S
N282 C279 1.351 1_456 S
N282 N283 1.365 1_455 S
N283 C280 1.341 . S
N283 N282 1.365 1_655 S
N283 H303 0.862 . S
C284 C279 1.501 . S
C284 H285 0.961 1_655 S
C284 H286 0.961 . S
C284 H287 0.960 . S
H285 C284 0.961 1_455 S
H286 C284 0.961 . S
H287 C284 0.960 . S
C288 N289 1.342 . S
C288 C292 1.401 . S
C288 C293 1.499 . S
N289 Co272 1.989 . S
N289 C288 1.342 . S
N289 N290 1.388 . S
N290 Co273 1.993 . S
N290 N289 1.388 . S
N290 C291 1.346 . S
C291 N290 1.346 . S
C291 C292 1.396 . S
C291 C301 1.510 1_455 S
C292 C288 1.401 . S
C292 C291 1.396 . S
C293 C288 1.499 . S
C293 H294 0.959 . S
C293 H295 0.960 . S
C293 H296 0.961 . S
H294 C293 0.959 . S
H295 C293 0.960 . S
H296 C293 0.961 . S
O297 Co272 1.967 . S
O297 C305 1.258 . S
O298 Co273 1.941 . S
O298 C305 1.266 . S
H299 C301 0.959 . S
H300 C301 0.961 . S
C301 C291 1.510 1_655 S
C301 H299 0.959 . S
C301 H300 0.961 . S
C301 H302 0.960 . S
H302 C301 0.960 . S
H303 N283 0.862 . S
O304 Co272 1.920 . S
O304 C277 1.289 . S
C305 O297 1.258 . S
C305 O298 1.266 . S
Co306 O309 1.970 . S
Co306 N323 1.989 . S
Co306 O331 1.967 . S
Co306 O338 1.920 . S
Co307 O310 1.966 . S
Co307 N316 2.022 . S
Co307 N324 1.993 . S
Co307 O332 1.941 . S
C308 O309 1.258 . S
C308 O310 1.263 . S
O309 Co306 1.970 . S
O309 C308 1.258 . S
O310 Co307 1.966 . S
O310 C308 1.263 . S
C311 O312 1.235 . S
C311 O338 1.289 . S
O312 C311 1.235 . S
C313 C315 1.400 . S
C313 N316 1.351 . S
C313 C318 1.501 . S
C314 C315 1.387 . S
C314 N317 1.341 . S
C315 C313 1.400 . S
C315 C314 1.387 . S
N316 Co307 2.022 . S
N316 C313 1.351 . S
N316 N317 1.365 . S
N317 C314 1.341 . S
N317 N316 1.365 . S
N317 H337 0.862 . S
C318 C313 1.501 . S
C318 H319 0.961 . S
C318 H320 0.961 . S
C318 H321 0.960 . S
H319 C318 0.961 . S
H320 C318 0.961 . S
H321 C318 0.960 . S
C322 N323 1.342 . S
C322 C326 1.401 . S
C322 C327 1.499 . S
N323 Co306 1.989 . S
N323 C322 1.342 . S
N323 N324 1.388 . S
N324 Co307 1.993 . S
N324 N323 1.388 . S
N324 C325 1.346 . S
C325 N324 1.346 . S
C325 C326 1.396 . S
C325 C335 1.510 . S
C326 C322 1.401 . S
C326 C325 1.396 . S
C327 C322 1.499 . S
C327 H328 0.959 . S
C327 H329 0.960 . S
C327 H330 0.961 . S
H328 C327 0.959 . S
H329 C327 0.960 . S
H330 C327 0.961 . S
O331 Co306 1.967 . S
O331 C339 1.258 . S
O332 Co307 1.941 . S
O332 C339 1.266 . S
H333 C335 0.959 . S
H334 C335 0.961 . S
C335 C325 1.510 . S
C335 H333 0.959 . S
C335 H334 0.961 . S
C335 H336 0.960 . S
H336 C335 0.960 . S
H337 N317 0.862 . S
O338 Co306 1.920 . S
O338 C311 1.289 . S
C339 O331 1.258 . S
C339 O332 1.266 . S
Co340 O343 1.970 . S
Co340 N357 1.989 . S
Co340 O365 1.967 . S
Co340 O372 1.920 . S
Co341 O344 1.966 . S
Co341 N350 2.022 . S
Co341 N358 1.993 . S
Co341 O366 1.941 . S
C342 O343 1.258 . S
C342 O344 1.263 . S
O343 Co340 1.970 . S
O343 C342 1.258 . S
O344 Co341 1.966 . S
O344 C342 1.263 . S
C345 O346 1.235 . S
C345 O372 1.289 . S
O346 C345 1.235 . S
C347 C349 1.400 . S
C347 N350 1.351 1_565 S
C347 C352 1.501 . S
C348 C349 1.387 . S
C348 N351 1.341 . S
C349 C347 1.400 . S
C349 C348 1.387 . S
N350 Co341 2.022 . S
N350 C347 1.351 1_545 S
N350 N351 1.365 1_545 S
N351 C348 1.341 . S
N351 N350 1.365 1_565 S
N351 H371 0.862 . S
C352 C347 1.501 . S
C352 H353 0.961 1_565 S
C352 H354 0.961 . S
C352 H355 0.960 . S
H353 C352 0.961 1_545 S
H354 C352 0.961 . S
H355 C352 0.960 . S
C356 N357 1.342 . S
C356 C360 1.401 . S
C356 C361 1.499 . S
N357 Co340 1.989 . S
N357 C356 1.342 . S
N357 N358 1.388 . S
N358 Co341 1.993 . S
N358 N357 1.388 . S
N358 C359 1.346 . S
C359 N358 1.346 . S
C359 C360 1.396 . S
C359 C369 1.510 1_545 S
C360 C356 1.401 . S
C360 C359 1.396 . S
C361 C356 1.499 . S
C361 H362 0.959 . S
C361 H363 0.960 . S
C361 H364 0.961 . S
H362 C361 0.959 . S
H363 C361 0.960 . S
H364 C361 0.961 . S
O365 Co340 1.967 . S
O365 C373 1.258 . S
O366 Co341 1.941 . S
O366 C373 1.266 . S
H367 C369 0.959 . S
H368 C369 0.961 . S
C369 C359 1.510 1_565 S
C369 H367 0.959 . S
C369 H368 0.961 . S
C369 H370 0.960 . S
H370 C369 0.960 . S
H371 N351 0.862 . S
O372 Co340 1.920 . S
O372 C345 1.289 . S
C373 O365 1.258 . S
C373 O366 1.266 . S
Co374 O377 1.970 . S
Co374 N391 1.989 . S
Co374 O399 1.967 . S
Co374 O406 1.920 . S
Co375 O378 1.966 . S
Co375 N384 2.022 . S
Co375 N392 1.993 . S
Co375 O400 1.941 . S
C376 O377 1.258 . S
C376 O378 1.263 . S
O377 Co374 1.970 . S
O377 C376 1.258 . S
O378 Co375 1.966 . S
O378 C376 1.263 . S
C379 O380 1.235 . S
C379 O406 1.289 . S
O380 C379 1.235 . S
C381 C383 1.400 . S
C381 N384 1.351 1_455 S
C381 C386 1.501 . S
C382 C383 1.387 . S
C382 N385 1.341 . S
C383 C381 1.400 . S
C383 C382 1.387 . S
N384 Co375 2.022 . S
N384 C381 1.351 1_655 S
N384 N385 1.365 1_655 S
N385 C382 1.341 . S
N385 N384 1.365 1_455 S
N385 H405 0.862 . S
C386 C381 1.501 . S
C386 H387 0.961 1_455 S
C386 H388 0.961 . S
C386 H389 0.960 . S
H387 C386 0.961 1_655 S
H388 C386 0.961 . S
H389 C386 0.960 . S
C390 N391 1.342 . S
C390 C394 1.401 . S
C390 C395 1.499 . S
N391 Co374 1.989 . S
N391 C390 1.342 . S
N391 N392 1.388 . S
N392 Co375 1.993 . S
N392 N391 1.388 . S
N392 C393 1.346 . S
C393 N392 1.346 . S
C393 C394 1.396 . S
C393 C403 1.510 1_655 S
C394 C390 1.401 . S
C394 C393 1.396 . S
C395 C390 1.499 . S
C395 H396 0.959 . S
C395 H397 0.960 . S
C395 H398 0.961 . S
H396 C395 0.959 . S
H397 C395 0.960 . S
H398 C395 0.961 . S
O399 Co374 1.967 . S
O399 C407 1.258 . S
O400 Co375 1.941 . S
O400 C407 1.266 . S
H401 C403 0.959 . S
H402 C403 0.961 . S
C403 C393 1.510 1_455 S
C403 H401 0.959 . S
C403 H402 0.961 . S
C403 H404 0.960 . S
H404 C403 0.960 . S
H405 N385 0.862 . S
O406 Co374 1.920 . S
O406 C379 1.289 . S
C407 O399 1.258 . S
C407 O400 1.266 . S
Co408 O411 1.970 . S
Co408 N425 1.989 . S
Co408 O433 1.967 . S
Co408 O440 1.920 . S
Co409 O412 1.966 . S
Co409 N418 2.022 . S
Co409 N426 1.993 . S
Co409 O434 1.941 . S
C410 O411 1.258 . S
C410 O412 1.263 . S
O411 Co408 1.970 . S
O411 C410 1.258 . S
O412 Co409 1.966 . S
O412 C410 1.263 . S
C413 O414 1.235 . S
C413 O440 1.289 . S
O414 C413 1.235 . S
C415 C417 1.400 . S
C415 N418 1.351 . S
C415 C420 1.501 . S
C416 C417 1.387 . S
C416 N419 1.341 . S
C417 C415 1.400 . S
C417 C416 1.387 . S
N418 Co409 2.022 . S
N418 C415 1.351 . S
N418 N419 1.365 . S
N419 C416 1.341 . S
N419 N418 1.365 . S
N419 H439 0.862 . S
C420 C415 1.501 . S
C420 H421 0.961 . S
C420 H422 0.961 . S
C420 H423 0.960 . S
H421 C420 0.961 . S
H422 C420 0.961 . S
H423 C420 0.960 . S
C424 N425 1.342 . S
C424 C428 1.401 . S
C424 C429 1.499 . S
N425 Co408 1.989 . S
N425 C424 1.342 . S
N425 N426 1.388 . S
N426 Co409 1.993 . S
N426 N425 1.388 . S
N426 C427 1.346 . S
C427 N426 1.346 . S
C427 C428 1.396 . S
C427 C437 1.510 . S
C428 C424 1.401 . S
C428 C427 1.396 . S
C429 C424 1.499 . S
C429 H430 0.959 . S
C429 H431 0.960 . S
C429 H432 0.961 . S
H430 C429 0.959 . S
H431 C429 0.960 . S
H432 C429 0.961 . S
O433 Co408 1.967 . S
O433 C441 1.258 . S
O434 Co409 1.941 . S
O434 C441 1.266 . S
H435 C437 0.959 . S
H436 C437 0.961 . S
C437 C427 1.510 . S
C437 H435 0.959 . S
C437 H436 0.961 . S
C437 H438 0.960 . S
H438 C437 0.960 . S
H439 N419 0.862 . S
O440 Co408 1.920 . S
O440 C413 1.289 . S
C441 O433 1.258 . S
C441 O434 1.266 . S
Co442 O445 1.970 . S
Co442 N459 1.989 . S
Co442 O467 1.967 . S
Co442 O474 1.920 . S
Co443 O446 1.966 . S
Co443 N452 2.022 . S
Co443 N460 1.993 . S
Co443 O468 1.941 . S
C444 O445 1.258 . S
C444 O446 1.263 . S
O445 Co442 1.970 . S
O445 C444 1.258 . S
O446 Co443 1.966 . S
O446 C444 1.263 . S
C447 O448 1.235 . S
C447 O474 1.289 . S
O448 C447 1.235 . S
C449 C451 1.400 . S
C449 N452 1.351 . S
C449 C454 1.501 . S
C450 C451 1.387 . S
C450 N453 1.341 . S
C451 C449 1.400 . S
C451 C450 1.387 . S
N452 Co443 2.022 . S
N452 C449 1.351 . S
N452 N453 1.365 . S
N453 C450 1.341 . S
N453 N452 1.365 . S
N453 H473 0.862 . S
C454 C449 1.501 . S
C454 H455 0.961 . S
C454 H456 0.961 . S
C454 H457 0.960 . S
H455 C454 0.961 . S
H456 C454 0.961 . S
H457 C454 0.960 . S
C458 N459 1.342 . S
C458 C462 1.401 . S
C458 C463 1.499 . S
N459 Co442 1.989 . S
N459 C458 1.342 . S
N459 N460 1.388 . S
N460 Co443 1.993 . S
N460 N459 1.388 . S
N460 C461 1.346 . S
C461 N460 1.346 . S
C461 C462 1.396 . S
C461 C471 1.510 . S
C462 C458 1.401 . S
C462 C461 1.396 . S
C463 C458 1.499 . S
C463 H464 0.959 . S
C463 H465 0.960 . S
C463 H466 0.961 . S
H464 C463 0.959 . S
H465 C463 0.960 . S
H466 C463 0.961 . S
O467 Co442 1.967 . S
O467 C475 1.258 . S
O468 Co443 1.941 . S
O468 C475 1.266 . S
H469 C471 0.959 . S
H470 C471 0.961 . S
C471 C461 1.510 . S
C471 H469 0.959 . S
C471 H470 0.961 . S
C471 H472 0.960 . S
H472 C471 0.960 . S
H473 N453 0.862 . S
O474 Co442 1.920 . S
O474 C447 1.289 . S
C475 O467 1.258 . S
C475 O468 1.266 . S
Co476 O479 1.970 . S
Co476 N493 1.989 . S
Co476 O501 1.967 . S
Co476 O508 1.920 . S
Co477 O480 1.966 . S
Co477 N486 2.022 . S
Co477 N494 1.993 . S
Co477 O502 1.941 . S
C478 O479 1.258 . S
C478 O480 1.263 . S
O479 Co476 1.970 . S
O479 C478 1.258 . S
O480 Co477 1.966 . S
O480 C478 1.263 . S
C481 O482 1.235 . S
C481 O508 1.289 . S
O482 C481 1.235 . S
C483 C485 1.400 . S
C483 N486 1.351 . S
C483 C488 1.501 . S
C484 C485 1.387 . S
C484 N487 1.341 . S
C485 C483 1.400 . S
C485 C484 1.387 . S
N486 Co477 2.022 . S
N486 C483 1.351 . S
N486 N487 1.365 . S
N487 C484 1.341 . S
N487 N486 1.365 . S
N487 H507 0.862 . S
C488 C483 1.501 . S
C488 H489 0.961 . S
C488 H490 0.961 . S
C488 H491 0.960 . S
H489 C488 0.961 . S
H490 C488 0.961 . S
H491 C488 0.960 . S
C492 N493 1.342 . S
C492 C496 1.401 . S
C492 C497 1.499 . S
N493 Co476 1.989 . S
N493 C492 1.342 . S
N493 N494 1.388 . S
N494 Co477 1.993 . S
N494 N493 1.388 . S
N494 C495 1.346 . S
C495 N494 1.346 . S
C495 C496 1.396 . S
C495 C505 1.510 . S
C496 C492 1.401 . S
C496 C495 1.396 . S
C497 C492 1.499 . S
C497 H498 0.959 . S
C497 H499 0.960 . S
C497 H500 0.961 . S
H498 C497 0.959 . S
H499 C497 0.960 . S
H500 C497 0.961 . S
O501 Co476 1.967 . S
O501 C509 1.258 . S
O502 Co477 1.941 . S
O502 C509 1.266 . S
H503 C505 0.959 . S
H504 C505 0.961 . S
C505 C495 1.510 . S
C505 H503 0.959 . S
C505 H504 0.961 . S
C505 H506 0.960 . S
H506 C505 0.960 . S
H507 N487 0.862 . S
O508 Co476 1.920 . S
O508 C481 1.289 . S
C509 O501 1.258 . S
C509 O502 1.266 . S
Co510 O513 1.970 . S
Co510 N527 1.989 . S
Co510 O535 1.967 . S
Co510 O542 1.920 . S
Co511 O514 1.966 . S
Co511 N520 2.022 . S
Co511 N528 1.993 . S
Co511 O536 1.941 . S
C512 O513 1.258 . S
C512 O514 1.263 . S
O513 Co510 1.970 . S
O513 C512 1.258 . S
O514 Co511 1.966 . S
O514 C512 1.263 . S
C515 O516 1.235 . S
C515 O542 1.289 . S
O516 C515 1.235 . S
C517 C519 1.400 . S
C517 N520 1.351 . S
C517 C522 1.501 . S
C518 C519 1.387 . S
C518 N521 1.341 . S
C519 C517 1.400 . S
C519 C518 1.387 . S
N520 Co511 2.022 . S
N520 C517 1.351 . S
N520 N521 1.365 . S
N521 C518 1.341 . S
N521 N520 1.365 . S
N521 H541 0.862 . S
C522 C517 1.501 . S
C522 H523 0.961 . S
C522 H524 0.961 . S
C522 H525 0.960 . S
H523 C522 0.961 . S
H524 C522 0.961 . S
H525 C522 0.960 . S
C526 N527 1.342 . S
C526 C530 1.401 . S
C526 C531 1.499 . S
N527 Co510 1.989 . S
N527 C526 1.342 . S
N527 N528 1.388 . S
N528 Co511 1.993 . S
N528 N527 1.388 . S
N528 C529 1.346 . S
C529 N528 1.346 . S
C529 C530 1.396 . S
C529 C539 1.510 . S
C530 C526 1.401 . S
C530 C529 1.396 . S
C531 C526 1.499 . S
C531 H532 0.959 . S
C531 H533 0.960 . S
C531 H534 0.961 . S
H532 C531 0.959 . S
H533 C531 0.960 . S
H534 C531 0.961 . S
O535 Co510 1.967 . S
O535 C543 1.258 . S
O536 Co511 1.941 . S
O536 C543 1.266 . S
H537 C539 0.959 . S
H538 C539 0.961 . S
C539 C529 1.510 . S
C539 H537 0.959 . S
C539 H538 0.961 . S
C539 H540 0.960 . S
H540 C539 0.960 . S
H541 N521 0.862 . S
O542 Co510 1.920 . S
O542 C515 1.289 . S
C543 O535 1.258 . S
C543 O536 1.266 . S
Co544 O547 1.970 . S
Co544 N561 1.989 . S
Co544 O569 1.967 . S
Co544 O576 1.920 . S
Co545 O548 1.966 . S
Co545 N554 2.022 . S
Co545 N562 1.993 . S
Co545 O570 1.941 . S
C546 O547 1.258 . S
C546 O548 1.263 . S
O547 Co544 1.970 . S
O547 C546 1.258 . S
O548 Co545 1.966 . S
O548 C546 1.263 . S
C549 O550 1.235 . S
C549 O576 1.289 . S
O550 C549 1.235 . S
C551 C553 1.400 . S
C551 N554 1.351 . S
C551 C556 1.501 . S
C552 C553 1.387 . S
C552 N555 1.341 . S
C553 C551 1.400 . S
C553 C552 1.387 . S
N554 Co545 2.022 . S
N554 C551 1.351 . S
N554 N555 1.365 . S
N555 C552 1.341 . S
N555 N554 1.365 . S
N555 H575 0.862 . S
C556 C551 1.501 . S
C556 H557 0.961 . S
C556 H558 0.961 . S
C556 H559 0.960 . S
H557 C556 0.961 . S
H558 C556 0.961 . S
H559 C556 0.960 . S
C560 N561 1.342 . S
C560 C564 1.401 . S
C560 C565 1.499 . S
N561 Co544 1.989 . S
N561 C560 1.342 . S
N561 N562 1.388 . S
N562 Co545 1.993 . S
N562 N561 1.388 . S
N562 C563 1.346 . S
C563 N562 1.346 . S
C563 C564 1.396 . S
C563 C573 1.510 . S
C564 C560 1.401 . S
C564 C563 1.396 . S
C565 C560 1.499 . S
C565 H566 0.959 . S
C565 H567 0.960 . S
C565 H568 0.961 . S
H566 C565 0.959 . S
H567 C565 0.960 . S
H568 C565 0.961 . S
O569 Co544 1.967 . S
O569 C577 1.258 . S
O570 Co545 1.941 . S
O570 C577 1.266 . S
H571 C573 0.959 . S
H572 C573 0.961 . S
C573 C563 1.510 . S
C573 H571 0.959 . S
C573 H572 0.961 . S
C573 H574 0.960 . S
H574 C573 0.960 . S
H575 N555 0.862 . S
O576 Co544 1.920 . S
O576 C549 1.289 . S
C577 O569 1.258 . S
C577 O570 1.266 . S
Co578 O581 1.970 . S
Co578 N595 1.989 . S
Co578 O603 1.967 . S
Co578 O610 1.920 . S
Co579 O582 1.966 . S
Co579 N588 2.022 . S
Co579 N596 1.993 . S
Co579 O604 1.941 . S
C580 O581 1.258 . S
C580 O582 1.263 . S
O581 Co578 1.970 . S
O581 C580 1.258 . S
O582 Co579 1.966 . S
O582 C580 1.263 . S
C583 O584 1.235 . S
C583 O610 1.289 . S
O584 C583 1.235 . S
C585 C587 1.400 . S
C585 N588 1.351 . S
C585 C590 1.501 . S
C586 C587 1.387 . S
C586 N589 1.341 . S
C587 C585 1.400 . S
C587 C586 1.387 . S
N588 Co579 2.022 . S
N588 C585 1.351 . S
N588 N589 1.365 . S
N589 C586 1.341 . S
N589 N588 1.365 . S
N589 H609 0.862 . S
C590 C585 1.501 . S
C590 H591 0.961 . S
C590 H592 0.961 . S
C590 H593 0.960 . S
H591 C590 0.961 . S
H592 C590 0.961 . S
H593 C590 0.960 . S
C594 N595 1.342 . S
C594 C598 1.401 . S
C594 C599 1.499 . S
N595 Co578 1.989 . S
N595 C594 1.342 . S
N595 N596 1.388 . S
N596 Co579 1.993 . S
N596 N595 1.388 . S
N596 C597 1.346 . S
C597 N596 1.346 . S
C597 C598 1.396 . S
C597 C607 1.510 . S
C598 C594 1.401 . S
C598 C597 1.396 . S
C599 C594 1.499 . S
C599 H600 0.959 . S
C599 H601 0.960 . S
C599 H602 0.961 . S
H600 C599 0.959 . S
H601 C599 0.960 . S
H602 C599 0.961 . S
O603 Co578 1.967 . S
O603 C611 1.258 . S
O604 Co579 1.941 . S
O604 C611 1.266 . S
H605 C607 0.959 . S
H606 C607 0.961 . S
C607 C597 1.510 . S
C607 H605 0.959 . S
C607 H606 0.961 . S
C607 H608 0.960 . S
H608 C607 0.960 . S
H609 N589 0.862 . S
O610 Co578 1.920 . S
O610 C583 1.289 . S
C611 O603 1.258 . S
C611 O604 1.266 . S
Co612 O615 1.970 . S
Co612 N629 1.989 . S
Co612 O637 1.967 . S
Co612 O644 1.920 . S
Co613 O616 1.966 . S
Co613 N622 2.022 . S
Co613 N630 1.993 . S
Co613 O638 1.941 . S
C614 O615 1.258 . S
C614 O616 1.263 . S
O615 Co612 1.970 . S
O615 C614 1.258 . S
O616 Co613 1.966 . S
O616 C614 1.263 . S
C617 O618 1.235 . S
C617 O644 1.289 . S
O618 C617 1.235 . S
C619 C621 1.400 . S
C619 N622 1.351 . S
C619 C624 1.501 . S
C620 C621 1.387 . S
C620 N623 1.341 . S
C621 C619 1.400 . S
C621 C620 1.387 . S
N622 Co613 2.022 . S
N622 C619 1.351 . S
N622 N623 1.365 . S
N623 C620 1.341 . S
N623 N622 1.365 . S
N623 H643 0.862 . S
C624 C619 1.501 . S
C624 H625 0.961 . S
C624 H626 0.961 . S
C624 H627 0.960 . S
H625 C624 0.961 . S
H626 C624 0.961 . S
H627 C624 0.960 . S
C628 N629 1.342 . S
C628 C632 1.401 . S
C628 C633 1.499 . S
N629 Co612 1.989 . S
N629 C628 1.342 . S
N629 N630 1.388 . S
N630 Co613 1.993 . S
N630 N629 1.388 . S
N630 C631 1.346 . S
C631 N630 1.346 . S
C631 C632 1.396 . S
C631 C641 1.510 . S
C632 C628 1.401 . S
C632 C631 1.396 . S
C633 C628 1.499 . S
C633 H634 0.959 . S
C633 H635 0.960 . S
C633 H636 0.961 . S
H634 C633 0.959 . S
H635 C633 0.960 . S
H636 C633 0.961 . S
O637 Co612 1.967 . S
O637 C645 1.258 . S
O638 Co613 1.941 . S
O638 C645 1.266 . S
H639 C641 0.959 . S
H640 C641 0.961 . S
C641 C631 1.510 . S
C641 H639 0.959 . S
C641 H640 0.961 . S
C641 H642 0.960 . S
H642 C641 0.960 . S
H643 N623 0.862 . S
O644 Co612 1.920 . S
O644 C617 1.289 . S
C645 O637 1.258 . S
C645 O638 1.266 . S
Co646 O649 1.970 . S
Co646 N663 1.989 . S
Co646 O671 1.967 . S
Co646 O678 1.920 . S
Co647 O650 1.966 . S
Co647 N656 2.022 . S
Co647 N664 1.993 . S
Co647 O672 1.941 . S
C648 O649 1.258 . S
C648 O650 1.263 . S
O649 Co646 1.970 . S
O649 C648 1.258 . S
O650 Co647 1.966 . S
O650 C648 1.263 . S
C651 O652 1.235 . S
C651 O678 1.289 . S
O652 C651 1.235 . S
C653 C655 1.400 . S
C653 N656 1.351 . S
C653 C658 1.501 . S
C654 C655 1.387 . S
C654 N657 1.341 . S
C655 C653 1.400 . S
C655 C654 1.387 . S
N656 Co647 2.022 . S
N656 C653 1.351 . S
N656 N657 1.365 . S
N657 C654 1.341 . S
N657 N656 1.365 . S
N657 H677 0.862 . S
C658 C653 1.501 . S
C658 H659 0.961 . S
C658 H660 0.961 . S
C658 H661 0.960 . S
H659 C658 0.961 . S
H660 C658 0.961 . S
H661 C658 0.960 . S
C662 N663 1.342 . S
C662 C666 1.401 . S
C662 C667 1.499 . S
N663 Co646 1.989 . S
N663 C662 1.342 . S
N663 N664 1.388 . S
N664 Co647 1.993 . S
N664 N663 1.388 . S
N664 C665 1.346 . S
C665 N664 1.346 . S
C665 C666 1.396 . S
C665 C675 1.510 . S
C666 C662 1.401 . S
C666 C665 1.396 . S
C667 C662 1.499 . S
C667 H668 0.959 . S
C667 H669 0.960 . S
C667 H670 0.961 . S
H668 C667 0.959 . S
H669 C667 0.960 . S
H670 C667 0.961 . S
O671 Co646 1.967 . S
O671 C679 1.258 . S
O672 Co647 1.941 . S
O672 C679 1.266 . S
H673 C675 0.959 . S
H674 C675 0.961 . S
C675 C665 1.510 . S
C675 H673 0.959 . S
C675 H674 0.961 . S
C675 H676 0.960 . S
H676 C675 0.960 . S
H677 N657 0.862 . S
O678 Co646 1.920 . S
O678 C651 1.289 . S
C679 O671 1.258 . S
C679 O672 1.266 . S
Co680 O683 1.970 . S
Co680 N697 1.989 . S
Co680 O705 1.967 . S
Co680 O712 1.920 . S
Co681 O684 1.966 . S
Co681 N690 2.022 . S
Co681 N698 1.993 . S
Co681 O706 1.941 . S
C682 O683 1.258 . S
C682 O684 1.263 . S
O683 Co680 1.970 . S
O683 C682 1.258 . S
O684 Co681 1.966 . S
O684 C682 1.263 . S
C685 O686 1.235 . S
C685 O712 1.289 . S
O686 C685 1.235 . S
C687 C689 1.400 . S
C687 N690 1.351 . S
C687 C692 1.501 . S
C688 C689 1.387 . S
C688 N691 1.341 . S
C689 C687 1.400 . S
C689 C688 1.387 . S
N690 Co681 2.022 . S
N690 C687 1.351 . S
N690 N691 1.365 . S
N691 C688 1.341 . S
N691 N690 1.365 . S
N691 H711 0.862 . S
C692 C687 1.501 . S
C692 H693 0.961 . S
C692 H694 0.961 . S
C692 H695 0.960 . S
H693 C692 0.961 . S
H694 C692 0.961 . S
H695 C692 0.960 . S
C696 N697 1.342 . S
C696 C700 1.401 . S
C696 C701 1.499 . S
N697 Co680 1.989 . S
N697 C696 1.342 . S
N697 N698 1.388 . S
N698 Co681 1.993 . S
N698 N697 1.388 . S
N698 C699 1.346 . S
C699 N698 1.346 . S
C699 C700 1.396 . S
C699 C709 1.510 . S
C700 C696 1.401 . S
C700 C699 1.396 . S
C701 C696 1.499 . S
C701 H702 0.959 . S
C701 H703 0.960 . S
C701 H704 0.961 . S
H702 C701 0.959 . S
H703 C701 0.960 . S
H704 C701 0.961 . S
O705 Co680 1.967 . S
O705 C713 1.258 . S
O706 Co681 1.941 . S
O706 C713 1.266 . S
H707 C709 0.959 . S
H708 C709 0.961 . S
C709 C699 1.510 . S
C709 H707 0.959 . S
C709 H708 0.961 . S
C709 H710 0.960 . S
H710 C709 0.960 . S
H711 N691 0.862 . S
O712 Co680 1.920 . S
O712 C685 1.289 . S
C713 O705 1.258 . S
C713 O706 1.266 . S
Co714 O717 1.970 . S
Co714 N731 1.989 . S
Co714 O739 1.967 . S
Co714 O746 1.920 . S
Co715 O718 1.966 . S
Co715 N724 2.022 . S
Co715 N732 1.993 . S
Co715 O740 1.941 . S
C716 O717 1.258 . S
C716 O718 1.263 . S
O717 Co714 1.970 . S
O717 C716 1.258 . S
O718 Co715 1.966 . S
O718 C716 1.263 . S
C719 O720 1.235 . S
C719 O746 1.289 . S
O720 C719 1.235 . S
C721 C723 1.400 . S
C721 N724 1.351 . S
C721 C726 1.501 . S
C722 C723 1.387 . S
C722 N725 1.341 . S
C723 C721 1.400 . S
C723 C722 1.387 . S
N724 Co715 2.022 . S
N724 C721 1.351 . S
N724 N725 1.365 . S
N725 C722 1.341 . S
N725 N724 1.365 . S
N725 H745 0.862 . S
C726 C721 1.501 . S
C726 H727 0.961 . S
C726 H728 0.961 . S
C726 H729 0.960 . S
H727 C726 0.961 . S
H728 C726 0.961 . S
H729 C726 0.960 . S
C730 N731 1.342 . S
C730 C734 1.401 . S
C730 C735 1.499 1_556 S
N731 Co714 1.989 . S
N731 C730 1.342 . S
N731 N732 1.388 . S
N732 Co715 1.993 . S
N732 N731 1.388 . S
N732 C733 1.346 . S
C733 N732 1.346 . S
C733 C734 1.396 . S
C733 C743 1.510 . S
C734 C730 1.401 . S
C734 C733 1.396 . S
C735 C730 1.499 1_554 S
C735 H736 0.959 . S
C735 H737 0.960 . S
C735 H738 0.961 . S
H736 C735 0.959 . S
H737 C735 0.960 . S
H738 C735 0.961 . S
O739 Co714 1.967 . S
O739 C747 1.258 . S
O740 Co715 1.941 . S
O740 C747 1.266 . S
H741 C743 0.959 . S
H742 C743 0.961 . S
C743 C733 1.510 . S
C743 H741 0.959 . S
C743 H742 0.961 . S
C743 H744 0.960 . S
H744 C743 0.960 . S
H745 N725 0.862 . S
O746 Co714 1.920 . S
O746 C719 1.289 . S
C747 O739 1.258 . S
C747 O740 1.266 . S
Co748 O751 1.970 . S
Co748 N765 1.989 . S
Co748 O773 1.967 . S
Co748 O780 1.920 . S
Co749 O752 1.966 . S
Co749 N758 2.022 . S
Co749 N766 1.993 . S
Co749 O774 1.941 . S
C750 O751 1.258 . S
C750 O752 1.263 . S
O751 Co748 1.970 . S
O751 C750 1.258 . S
O752 Co749 1.966 . S
O752 C750 1.263 . S
C753 O754 1.235 . S
C753 O780 1.289 . S
O754 C753 1.235 . S
C755 C757 1.400 . S
C755 N758 1.351 . S
C755 C760 1.501 . S
C756 C757 1.387 . S
C756 N759 1.341 . S
C757 C755 1.400 . S
C757 C756 1.387 . S
N758 Co749 2.022 . S
N758 C755 1.351 . S
N758 N759 1.365 . S
N759 C756 1.341 . S
N759 N758 1.365 . S
N759 H779 0.862 . S
C760 C755 1.501 . S
C760 H761 0.961 . S
C760 H762 0.961 . S
C760 H763 0.960 . S
H761 C760 0.961 . S
H762 C760 0.961 . S
H763 C760 0.960 . S
C764 N765 1.342 . S
C764 C768 1.401 . S
C764 C769 1.499 1_556 S
N765 Co748 1.989 . S
N765 C764 1.342 . S
N765 N766 1.388 . S
N766 Co749 1.993 . S
N766 N765 1.388 . S
N766 C767 1.346 . S
C767 N766 1.346 . S
C767 C768 1.396 . S
C767 C777 1.510 . S
C768 C764 1.401 . S
C768 C767 1.396 . S
C769 C764 1.499 1_554 S
C769 H770 0.959 . S
C769 H771 0.960 . S
C769 H772 0.961 . S
H770 C769 0.959 . S
H771 C769 0.960 . S
H772 C769 0.961 . S
O773 Co748 1.967 . S
O773 C781 1.258 . S
O774 Co749 1.941 . S
O774 C781 1.266 . S
H775 C777 0.959 . S
H776 C777 0.961 . S
C777 C767 1.510 . S
C777 H775 0.959 . S
C777 H776 0.961 . S
C777 H778 0.960 . S
H778 C777 0.960 . S
H779 N759 0.862 . S
O780 Co748 1.920 . S
O780 C753 1.289 . S
C781 O773 1.258 . S
C781 O774 1.266 . S
Co782 O785 1.970 . S
Co782 N799 1.989 . S
Co782 O807 1.967 . S
Co782 O814 1.920 . S
Co783 O786 1.966 . S
Co783 N792 2.022 . S
Co783 N800 1.993 . S
Co783 O808 1.941 . S
C784 O785 1.258 . S
C784 O786 1.263 . S
O785 Co782 1.970 . S
O785 C784 1.258 . S
O786 Co783 1.966 . S
O786 C784 1.263 . S
C787 O788 1.235 . S
C787 O814 1.289 . S
O788 C787 1.235 . S
C789 C791 1.400 . S
C789 N792 1.351 . S
C789 C794 1.501 . S
C790 C791 1.387 . S
C790 N793 1.341 . S
C791 C789 1.400 . S
C791 C790 1.387 . S
N792 Co783 2.022 . S
N792 C789 1.351 . S
N792 N793 1.365 . S
N793 C790 1.341 . S
N793 N792 1.365 . S
N793 H813 0.862 . S
C794 C789 1.501 . S
C794 H795 0.961 . S
C794 H796 0.961 . S
C794 H797 0.960 . S
H795 C794 0.961 . S
H796 C794 0.961 . S
H797 C794 0.960 . S
C798 N799 1.342 . S
C798 C802 1.401 . S
C798 C803 1.499 1_556 S
N799 Co782 1.989 . S
N799 C798 1.342 . S
N799 N800 1.388 . S
N800 Co783 1.993 . S
N800 N799 1.388 . S
N800 C801 1.346 . S
C801 N800 1.346 . S
C801 C802 1.396 . S
C801 C811 1.510 . S
C802 C798 1.401 . S
C802 C801 1.396 . S
C803 C798 1.499 1_554 S
C803 H804 0.959 . S
C803 H805 0.960 . S
C803 H806 0.961 . S
H804 C803 0.959 . S
H805 C803 0.960 . S
H806 C803 0.961 . S
O807 Co782 1.967 . S
O807 C815 1.258 . S
O808 Co783 1.941 . S
O808 C815 1.266 . S
H809 C811 0.959 . S
H810 C811 0.961 . S
C811 C801 1.510 . S
C811 H809 0.959 . S
C811 H810 0.961 . S
C811 H812 0.960 . S
H812 C811 0.960 . S
H813 N793 0.862 . S
O814 Co782 1.920 . S
O814 C787 1.289 . S
C815 O807 1.258 . S
C815 O808 1.266 . S
Co816 O819 1.970 . S
Co816 N833 1.989 . S
Co816 O841 1.967 . S
Co816 O848 1.920 . S
Co817 O820 1.966 . S
Co817 N826 2.022 . S
Co817 N834 1.993 . S
Co817 O842 1.941 . S
C818 O819 1.258 . S
C818 O820 1.263 . S
O819 Co816 1.970 . S
O819 C818 1.258 . S
O820 Co817 1.966 . S
O820 C818 1.263 . S
C821 O822 1.235 . S
C821 O848 1.289 . S
O822 C821 1.235 . S
C823 C825 1.400 . S
C823 N826 1.351 . S
C823 C828 1.501 . S
C824 C825 1.387 . S
C824 N827 1.341 . S
C825 C823 1.400 . S
C825 C824 1.387 . S
N826 Co817 2.022 . S
N826 C823 1.351 . S
N826 N827 1.365 . S
N827 C824 1.341 . S
N827 N826 1.365 . S
N827 H847 0.862 . S
C828 C823 1.501 . S
C828 H829 0.961 . S
C828 H830 0.961 . S
C828 H831 0.960 . S
H829 C828 0.961 . S
H830 C828 0.961 . S
H831 C828 0.960 . S
C832 N833 1.342 . S
C832 C836 1.401 . S
C832 C837 1.499 . S
N833 Co816 1.989 . S
N833 C832 1.342 . S
N833 N834 1.388 . S
N834 Co817 1.993 . S
N834 N833 1.388 . S
N834 C835 1.346 . S
C835 N834 1.346 . S
C835 C836 1.396 . S
C835 C845 1.510 . S
C836 C832 1.401 . S
C836 C835 1.396 . S
C837 C832 1.499 . S
C837 H838 0.959 . S
C837 H839 0.960 . S
C837 H840 0.961 . S
H838 C837 0.959 . S
H839 C837 0.960 . S
H840 C837 0.961 . S
O841 Co816 1.967 . S
O841 C849 1.258 . S
O842 Co817 1.941 . S
O842 C849 1.266 . S
H843 C845 0.959 . S
H844 C845 0.961 . S
C845 C835 1.510 . S
C845 H843 0.959 . S
C845 H844 0.961 . S
C845 H846 0.960 . S
H846 C845 0.960 . S
H847 N827 0.862 . S
O848 Co816 1.920 . S
O848 C821 1.289 . S
C849 O841 1.258 . S
C849 O842 1.266 . S
Co850 O853 1.970 . S
Co850 N867 1.989 . S
Co850 O875 1.967 . S
Co850 O882 1.920 . S
Co851 O854 1.966 . S
Co851 N860 2.022 . S
Co851 N868 1.993 . S
Co851 O876 1.941 . S
C852 O853 1.258 . S
C852 O854 1.263 . S
O853 Co850 1.970 . S
O853 C852 1.258 . S
O854 Co851 1.966 . S
O854 C852 1.263 . S
C855 O856 1.235 . S
C855 O882 1.289 . S
O856 C855 1.235 . S
C857 C859 1.400 . S
C857 N860 1.351 . S
C857 C862 1.501 . S
C858 C859 1.387 . S
C858 N861 1.341 . S
C859 C857 1.400 . S
C859 C858 1.387 . S
N860 Co851 2.022 . S
N860 C857 1.351 . S
N860 N861 1.365 . S
N861 C858 1.341 . S
N861 N860 1.365 . S
N861 H881 0.862 . S
C862 C857 1.501 . S
C862 H863 0.961 . S
C862 H864 0.961 . S
C862 H865 0.960 . S
H863 C862 0.961 . S
H864 C862 0.961 . S
H865 C862 0.960 . S
C866 N867 1.342 . S
C866 C870 1.401 . S
C866 C871 1.499 . S
N867 Co850 1.989 . S
N867 C866 1.342 . S
N867 N868 1.388 . S
N868 Co851 1.993 . S
N868 N867 1.388 . S
N868 C869 1.346 . S
C869 N868 1.346 . S
C869 C870 1.396 . S
C869 C879 1.510 . S
C870 C866 1.401 . S
C870 C869 1.396 . S
C871 C866 1.499 . S
C871 H872 0.959 . S
C871 H873 0.960 . S
C871 H874 0.961 . S
H872 C871 0.959 . S
H873 C871 0.960 . S
H874 C871 0.961 . S
O875 Co850 1.967 . S
O875 C883 1.258 . S
O876 Co851 1.941 . S
O876 C883 1.266 . S
H877 C879 0.959 . S
H878 C879 0.961 . S
C879 C869 1.510 . S
C879 H877 0.959 . S
C879 H878 0.961 . S
C879 H880 0.960 . S
H880 C879 0.960 . S
H881 N861 0.862 . S
O882 Co850 1.920 . S
O882 C855 1.289 . S
C883 O875 1.258 . S
C883 O876 1.266 . S
Co884 O887 1.970 . S
Co884 N901 1.989 . S
Co884 O909 1.967 . S
Co884 O916 1.920 . S
Co885 O888 1.966 . S
Co885 N894 2.022 . S
Co885 N902 1.993 . S
Co885 O910 1.941 . S
C886 O887 1.258 . S
C886 O888 1.263 . S
O887 Co884 1.970 . S
O887 C886 1.258 . S
O888 Co885 1.966 . S
O888 C886 1.263 . S
C889 O890 1.235 . S
C889 O916 1.289 . S
O890 C889 1.235 . S
C891 C893 1.400 . S
C891 N894 1.351 . S
C891 C896 1.501 . S
C892 C893 1.387 . S
C892 N895 1.341 . S
C893 C891 1.400 . S
C893 C892 1.387 . S
N894 Co885 2.022 . S
N894 C891 1.351 . S
N894 N895 1.365 . S
N895 C892 1.341 . S
N895 N894 1.365 . S
N895 H915 0.862 . S
C896 C891 1.501 . S
C896 H897 0.961 . S
C896 H898 0.961 . S
C896 H899 0.960 . S
H897 C896 0.961 . S
H898 C896 0.961 . S
H899 C896 0.960 . S
C900 N901 1.342 . S
C900 C904 1.401 . S
C900 C905 1.499 . S
N901 Co884 1.989 . S
N901 C900 1.342 . S
N901 N902 1.388 . S
N902 Co885 1.993 . S
N902 N901 1.388 . S
N902 C903 1.346 . S
C903 N902 1.346 . S
C903 C904 1.396 . S
C903 C913 1.510 . S
C904 C900 1.401 . S
C904 C903 1.396 . S
C905 C900 1.499 . S
C905 H906 0.959 . S
C905 H907 0.960 . S
C905 H908 0.961 . S
H906 C905 0.959 . S
H907 C905 0.960 . S
H908 C905 0.961 . S
O909 Co884 1.967 . S
O909 C917 1.258 . S
O910 Co885 1.941 . S
O910 C917 1.266 . S
H911 C913 0.959 . S
H912 C913 0.961 . S
C913 C903 1.510 . S
C913 H911 0.959 . S
C913 H912 0.961 . S
C913 H914 0.960 . S
H914 C913 0.960 . S
H915 N895 0.862 . S
O916 Co884 1.920 . S
O916 C889 1.289 . S
C917 O909 1.258 . S
C917 O910 1.266 . S
Co918 O921 1.970 . S
Co918 N935 1.989 . S
Co918 O943 1.967 . S
Co918 O950 1.920 . S
Co919 O922 1.966 . S
Co919 N928 2.022 . S
Co919 N936 1.993 . S
Co919 O944 1.941 . S
C920 O921 1.258 . S
C920 O922 1.263 . S
O921 Co918 1.970 . S
O921 C920 1.258 . S
O922 Co919 1.966 . S
O922 C920 1.263 . S
C923 O924 1.235 . S
C923 O950 1.289 . S
O924 C923 1.235 . S
C925 C927 1.400 . S
C925 N928 1.351 . S
C925 C930 1.501 . S
C926 C927 1.387 . S
C926 N929 1.341 . S
C927 C925 1.400 . S
C927 C926 1.387 . S
N928 Co919 2.022 . S
N928 C925 1.351 . S
N928 N929 1.365 . S
N929 C926 1.341 . S
N929 N928 1.365 . S
N929 H949 0.862 . S
C930 C925 1.501 . S
C930 H931 0.961 . S
C930 H932 0.961 . S
C930 H933 0.960 . S
H931 C930 0.961 . S
H932 C930 0.961 . S
H933 C930 0.960 . S
C934 N935 1.342 . S
C934 C938 1.401 . S
C934 C939 1.499 1_554 S
N935 Co918 1.989 . S
N935 C934 1.342 . S
N935 N936 1.388 . S
N936 Co919 1.993 . S
N936 N935 1.388 . S
N936 C937 1.346 . S
C937 N936 1.346 . S
C937 C938 1.396 . S
C937 C947 1.510 . S
C938 C934 1.401 . S
C938 C937 1.396 . S
C939 C934 1.499 1_556 S
C939 H940 0.959 . S
C939 H941 0.960 . S
C939 H942 0.961 . S
H940 C939 0.959 . S
H941 C939 0.960 . S
H942 C939 0.961 . S
O943 Co918 1.967 . S
O943 C951 1.258 . S
O944 Co919 1.941 . S
O944 C951 1.266 . S
H945 C947 0.959 . S
H946 C947 0.961 . S
C947 C937 1.510 . S
C947 H945 0.959 . S
C947 H946 0.961 . S
C947 H948 0.960 . S
H948 C947 0.960 . S
H949 N929 0.862 . S
O950 Co918 1.920 . S
O950 C923 1.289 . S
C951 O943 1.258 . S
C951 O944 1.266 . S
Co952 O955 1.970 . S
Co952 N969 1.989 . S
Co952 O977 1.967 . S
Co952 O984 1.920 . S
Co953 O956 1.966 . S
Co953 N962 2.022 . S
Co953 N970 1.993 . S
Co953 O978 1.941 . S
C954 O955 1.258 . S
C954 O956 1.263 . S
O955 Co952 1.970 . S
O955 C954 1.258 . S
O956 Co953 1.966 . S
O956 C954 1.263 . S
C957 O958 1.235 . S
C957 O984 1.289 . S
O958 C957 1.235 . S
C959 C961 1.400 . S
C959 N962 1.351 . S
C959 C964 1.501 . S
C960 C961 1.387 . S
C960 N963 1.341 . S
C961 C959 1.400 . S
C961 C960 1.387 . S
N962 Co953 2.022 . S
N962 C959 1.351 . S
N962 N963 1.365 . S
N963 C960 1.341 . S
N963 N962 1.365 . S
N963 H983 0.862 . S
C964 C959 1.501 . S
C964 H965 0.961 . S
C964 H966 0.961 . S
C964 H967 0.960 . S
H965 C964 0.961 . S
H966 C964 0.961 . S
H967 C964 0.960 . S
C968 N969 1.342 . S
C968 C972 1.401 . S
C968 C973 1.499 1_554 S
N969 Co952 1.989 . S
N969 C968 1.342 . S
N969 N970 1.388 . S
N970 Co953 1.993 . S
N970 N969 1.388 . S
N970 C971 1.346 . S
C971 N970 1.346 . S
C971 C972 1.396 . S
C971 C981 1.510 . S
C972 C968 1.401 . S
C972 C971 1.396 . S
C973 C968 1.499 1_556 S
C973 H974 0.959 . S
C973 H975 0.960 . S
C973 H976 0.961 . S
H974 C973 0.959 . S
H975 C973 0.960 . S
H976 C973 0.961 . S
O977 Co952 1.967 . S
O977 C985 1.258 . S
O978 Co953 1.941 . S
O978 C985 1.266 . S
H979 C981 0.959 . S
H980 C981 0.961 . S
C981 C971 1.510 . S
C981 H979 0.959 . S
C981 H980 0.961 . S
C981 H982 0.960 . S
H982 C981 0.960 . S
H983 N963 0.862 . S
O984 Co952 1.920 . S
O984 C957 1.289 . S
C985 O977 1.258 . S
C985 O978 1.266 . S
Co986 O989 1.970 . S
Co986 N1003 1.989 . S
Co986 O1011 1.967 . S
Co986 O1018 1.920 . S
Co987 O990 1.966 . S
Co987 N996 2.022 . S
Co987 N1004 1.993 . S
Co987 O1012 1.941 . S
C988 O989 1.258 . S
C988 O990 1.263 . S
O989 Co986 1.970 . S
O989 C988 1.258 . S
O990 Co987 1.966 . S
O990 C988 1.263 . S
C991 O992 1.235 . S
C991 O1018 1.289 . S
O992 C991 1.235 . S
C993 C995 1.400 . S
C993 N996 1.351 . S
C993 C998 1.501 . S
C994 C995 1.387 . S
C994 N997 1.341 . S
C995 C993 1.400 . S
C995 C994 1.387 . S
N996 Co987 2.022 . S
N996 C993 1.351 . S
N996 N997 1.365 . S
N997 C994 1.341 . S
N997 N996 1.365 . S
N997 H1017 0.862 . S
C998 C993 1.501 . S
C998 H999 0.961 . S
C998 H1000 0.961 . S
C998 H1001 0.960 . S
H999 C998 0.961 . S
H1000 C998 0.961 . S
H1001 C998 0.960 . S
C1002 N1003 1.342 . S
C1002 C1006 1.401 . S
C1002 C1007 1.499 1_554 S
N1003 Co986 1.989 . S
N1003 C1002 1.342 . S
N1003 N1004 1.388 . S
N1004 Co987 1.993 . S
N1004 N1003 1.388 . S
N1004 C1005 1.346 . S
C1005 N1004 1.346 . S
C1005 C1006 1.396 . S
C1005 C1015 1.510 . S
C1006 C1002 1.401 . S
C1006 C1005 1.396 . S
C1007 C1002 1.499 1_556 S
C1007 H1008 0.959 . S
C1007 H1009 0.960 . S
C1007 H1010 0.961 . S
H1008 C1007 0.959 . S
H1009 C1007 0.960 . S
H1010 C1007 0.961 . S
O1011 Co986 1.967 . S
O1011 C1019 1.258 . S
O1012 Co987 1.941 . S
O1012 C1019 1.266 . S
H1013 C1015 0.959 . S
H1014 C1015 0.961 . S
C1015 C1005 1.510 . S
C1015 H1013 0.959 . S
C1015 H1014 0.961 . S
C1015 H1016 0.960 . S
H1016 C1015 0.960 . S
H1017 N997 0.862 . S
O1018 Co986 1.920 . S
O1018 C991 1.289 . S
C1019 O1011 1.258 . S
C1019 O1012 1.266 . S
Co1020 O1023 1.970 . S
Co1020 N1037 1.989 . S
Co1020 O1045 1.967 . S
Co1020 O1052 1.920 . S
Co1021 O1024 1.966 . S
Co1021 N1030 2.022 . S
Co1021 N1038 1.993 . S
Co1021 O1046 1.941 . S
C1022 O1023 1.258 . S
C1022 O1024 1.263 . S
O1023 Co1020 1.970 . S
O1023 C1022 1.258 . S
O1024 Co1021 1.966 . S
O1024 C1022 1.263 . S
C1025 O1026 1.235 . S
C1025 O1052 1.289 . S
O1026 C1025 1.235 . S
C1027 C1029 1.400 . S
C1027 N1030 1.351 . S
C1027 C1032 1.501 . S
C1028 C1029 1.387 . S
C1028 N1031 1.341 . S
C1029 C1027 1.400 . S
C1029 C1028 1.387 . S
N1030 Co1021 2.022 . S
N1030 C1027 1.351 . S
N1030 N1031 1.365 . S
N1031 C1028 1.341 . S
N1031 N1030 1.365 . S
N1031 H1051 0.862 . S
C1032 C1027 1.501 . S
C1032 H1033 0.961 . S
C1032 H1034 0.961 . S
C1032 H1035 0.960 . S
H1033 C1032 0.961 . S
H1034 C1032 0.961 . S
H1035 C1032 0.960 . S
C1036 N1037 1.342 . S
C1036 C1040 1.401 . S
C1036 C1041 1.499 . S
N1037 Co1020 1.989 . S
N1037 C1036 1.342 . S
N1037 N1038 1.388 . S
N1038 Co1021 1.993 . S
N1038 N1037 1.388 . S
N1038 C1039 1.346 . S
C1039 N1038 1.346 . S
C1039 C1040 1.396 . S
C1039 C1049 1.510 . S
C1040 C1036 1.401 . S
C1040 C1039 1.396 . S
C1041 C1036 1.499 . S
C1041 H1042 0.959 . S
C1041 H1043 0.960 . S
C1041 H1044 0.961 . S
H1042 C1041 0.959 . S
H1043 C1041 0.960 . S
H1044 C1041 0.961 . S
O1045 Co1020 1.967 . S
O1045 C1053 1.258 . S
O1046 Co1021 1.941 . S
O1046 C1053 1.266 . S
H1047 C1049 0.959 . S
H1048 C1049 0.961 . S
C1049 C1039 1.510 . S
C1049 H1047 0.959 . S
C1049 H1048 0.961 . S
C1049 H1050 0.960 . S
H1050 C1049 0.960 . S
H1051 N1031 0.862 . S
O1052 Co1020 1.920 . S
O1052 C1025 1.289 . S
C1053 O1045 1.258 . S
C1053 O1046 1.266 . S
Co1054 O1057 1.970 . S
Co1054 N1071 1.989 . S
Co1054 O1079 1.967 . S
Co1054 O1086 1.920 . S
Co1055 O1058 1.966 . S
Co1055 N1064 2.022 . S
Co1055 N1072 1.993 . S
Co1055 O1080 1.941 . S
C1056 O1057 1.258 . S
C1056 O1058 1.263 . S
O1057 Co1054 1.970 . S
O1057 C1056 1.258 . S
O1058 Co1055 1.966 . S
O1058 C1056 1.263 . S
C1059 O1060 1.235 . S
C1059 O1086 1.289 . S
O1060 C1059 1.235 . S
C1061 C1063 1.400 . S
C1061 N1064 1.351 . S
C1061 C1066 1.501 . S
C1062 C1063 1.387 . S
C1062 N1065 1.341 . S
C1063 C1061 1.400 . S
C1063 C1062 1.387 . S
N1064 Co1055 2.022 . S
N1064 C1061 1.351 . S
N1064 N1065 1.365 . S
N1065 C1062 1.341 . S
N1065 N1064 1.365 . S
N1065 H1085 0.862 . S
C1066 C1061 1.501 . S
C1066 H1067 0.961 . S
C1066 H1068 0.961 . S
C1066 H1069 0.960 . S
H1067 C1066 0.961 . S
H1068 C1066 0.961 . S
H1069 C1066 0.960 . S
C1070 N1071 1.342 . S
C1070 C1074 1.401 . S
C1070 C1075 1.499 . S
N1071 Co1054 1.989 . S
N1071 C1070 1.342 . S
N1071 N1072 1.388 . S
N1072 Co1055 1.993 . S
N1072 N1071 1.388 . S
N1072 C1073 1.346 . S
C1073 N1072 1.346 . S
C1073 C1074 1.396 . S
C1073 C1083 1.510 . S
C1074 C1070 1.401 . S
C1074 C1073 1.396 . S
C1075 C1070 1.499 . S
C1075 H1076 0.959 . S
C1075 H1077 0.960 . S
C1075 H1078 0.961 . S
H1076 C1075 0.959 . S
H1077 C1075 0.960 . S
H1078 C1075 0.961 . S
O1079 Co1054 1.967 . S
O1079 C1087 1.258 . S
O1080 Co1055 1.941 . S
O1080 C1087 1.266 . S
H1081 C1083 0.959 . S
H1082 C1083 0.961 . S
C1083 C1073 1.510 . S
C1083 H1081 0.959 . S
C1083 H1082 0.961 . S
C1083 H1084 0.960 . S
H1084 C1083 0.960 . S
H1085 N1065 0.862 . S
O1086 Co1054 1.920 . S
O1086 C1059 1.289 . S
C1087 O1079 1.258 . S
C1087 O1080 1.266 . S
Co1088 O1091 1.970 . S
Co1088 N1105 1.989 . S
Co1088 O1113 1.967 . S
Co1088 O1120 1.920 . S
Co1089 O1092 1.966 . S
Co1089 N1098 2.022 . S
Co1089 N1106 1.993 . S
Co1089 O1114 1.941 . S
C1090 O1091 1.258 . S
C1090 O1092 1.263 . S
O1091 Co1088 1.970 . S
O1091 C1090 1.258 . S
O1092 Co1089 1.966 . S
O1092 C1090 1.263 . S
C1093 O1094 1.235 . S
C1093 O1120 1.289 . S
O1094 C1093 1.235 . S
C1095 C1097 1.400 . S
C1095 N1098 1.351 . S
C1095 C1100 1.501 . S
C1096 C1097 1.387 . S
C1096 N1099 1.341 . S
C1097 C1095 1.400 . S
C1097 C1096 1.387 . S
N1098 Co1089 2.022 . S
N1098 C1095 1.351 . S
N1098 N1099 1.365 . S
N1099 C1096 1.341 . S
N1099 N1098 1.365 . S
N1099 H1119 0.862 . S
C1100 C1095 1.501 . S
C1100 H1101 0.961 . S
C1100 H1102 0.961 . S
C1100 H1103 0.960 . S
H1101 C1100 0.961 . S
H1102 C1100 0.961 . S
H1103 C1100 0.960 . S
C1104 N1105 1.342 . S
C1104 C1108 1.401 . S
C1104 C1109 1.499 . S
N1105 Co1088 1.989 . S
N1105 C1104 1.342 . S
N1105 N1106 1.388 . S
N1106 Co1089 1.993 . S
N1106 N1105 1.388 . S
N1106 C1107 1.346 . S
C1107 N1106 1.346 . S
C1107 C1108 1.396 . S
C1107 C1117 1.510 . S
C1108 C1104 1.401 . S
C1108 C1107 1.396 . S
C1109 C1104 1.499 . S
C1109 H1110 0.959 . S
C1109 H1111 0.960 . S
C1109 H1112 0.961 . S
H1110 C1109 0.959 . S
H1111 C1109 0.960 . S
H1112 C1109 0.961 . S
O1113 Co1088 1.967 . S
O1113 C1121 1.258 . S
O1114 Co1089 1.941 . S
O1114 C1121 1.266 . S
H1115 C1117 0.959 . S
H1116 C1117 0.961 . S
C1117 C1107 1.510 . S
C1117 H1115 0.959 . S
C1117 H1116 0.961 . S
C1117 H1118 0.960 . S
H1118 C1117 0.960 . S
H1119 N1099 0.862 . S
O1120 Co1088 1.920 . S
O1120 C1093 1.289 . S
C1121 O1113 1.258 . S
C1121 O1114 1.266 . S
Co1122 O1125 1.970 . S
Co1122 N1139 1.989 . S
Co1122 O1147 1.967 . S
Co1122 O1154 1.920 . S
Co1123 O1126 1.966 . S
Co1123 N1132 2.022 . S
Co1123 N1140 1.993 . S
Co1123 O1148 1.941 . S
C1124 O1125 1.258 . S
C1124 O1126 1.263 . S
O1125 Co1122 1.970 . S
O1125 C1124 1.258 . S
O1126 Co1123 1.966 . S
O1126 C1124 1.263 . S
C1127 O1128 1.235 . S
C1127 O1154 1.289 . S
O1128 C1127 1.235 . S
C1129 C1131 1.400 . S
C1129 N1132 1.351 . S
C1129 C1134 1.501 . S
C1130 C1131 1.387 . S
C1130 N1133 1.341 . S
C1131 C1129 1.400 . S
C1131 C1130 1.387 . S
N1132 Co1123 2.022 . S
N1132 C1129 1.351 . S
N1132 N1133 1.365 . S
N1133 C1130 1.341 . S
N1133 N1132 1.365 . S
N1133 H1153 0.862 . S
C1134 C1129 1.501 . S
C1134 H1135 0.961 . S
C1134 H1136 0.961 . S
C1134 H1137 0.960 . S
H1135 C1134 0.961 . S
H1136 C1134 0.961 . S
H1137 C1134 0.960 . S
C1138 N1139 1.342 . S
C1138 C1142 1.401 . S
C1138 C1143 1.499 . S
N1139 Co1122 1.989 . S
N1139 C1138 1.342 . S
N1139 N1140 1.388 . S
N1140 Co1123 1.993 . S
N1140 N1139 1.388 . S
N1140 C1141 1.346 . S
C1141 N1140 1.346 . S
C1141 C1142 1.396 . S
C1141 C1151 1.510 . S
C1142 C1138 1.401 . S
C1142 C1141 1.396 . S
C1143 C1138 1.499 . S
C1143 H1144 0.959 . S
C1143 H1145 0.960 . S
C1143 H1146 0.961 . S
H1144 C1143 0.959 . S
H1145 C1143 0.960 . S
H1146 C1143 0.961 . S
O1147 Co1122 1.967 . S
O1147 C1155 1.258 . S
O1148 Co1123 1.941 . S
O1148 C1155 1.266 . S
H1149 C1151 0.959 . S
H1150 C1151 0.961 . S
C1151 C1141 1.510 . S
C1151 H1149 0.959 . S
C1151 H1150 0.961 . S
C1151 H1152 0.960 . S
H1152 C1151 0.960 . S
H1153 N1133 0.862 . S
O1154 Co1122 1.920 . S
O1154 C1127 1.289 . S
C1155 O1147 1.258 . S
C1155 O1148 1.266 . S
Co1156 O1159 1.970 . S
Co1156 N1173 1.989 . S
Co1156 O1181 1.967 . S
Co1156 O1188 1.920 . S
Co1157 O1160 1.966 . S
Co1157 N1166 2.022 . S
Co1157 N1174 1.993 . S
Co1157 O1182 1.941 . S
C1158 O1159 1.258 . S
C1158 O1160 1.263 . S
O1159 Co1156 1.970 . S
O1159 C1158 1.258 . S
O1160 Co1157 1.966 . S
O1160 C1158 1.263 . S
C1161 O1162 1.235 . S
C1161 O1188 1.289 . S
O1162 C1161 1.235 . S
C1163 C1165 1.400 . S
C1163 N1166 1.351 . S
C1163 C1168 1.501 . S
C1164 C1165 1.387 . S
C1164 N1167 1.341 . S
C1165 C1163 1.400 . S
C1165 C1164 1.387 . S
N1166 Co1157 2.022 . S
N1166 C1163 1.351 . S
N1166 N1167 1.365 . S
N1167 C1164 1.341 . S
N1167 N1166 1.365 . S
N1167 H1187 0.862 . S
C1168 C1163 1.501 . S
C1168 H1169 0.961 . S
C1168 H1170 0.961 . S
C1168 H1171 0.960 . S
H1169 C1168 0.961 . S
H1170 C1168 0.961 . S
H1171 C1168 0.960 . S
C1172 N1173 1.342 . S
C1172 C1176 1.401 . S
C1172 C1177 1.499 . S
N1173 Co1156 1.989 . S
N1173 C1172 1.342 . S
N1173 N1174 1.388 . S
N1174 Co1157 1.993 . S
N1174 N1173 1.388 . S
N1174 C1175 1.346 . S
C1175 N1174 1.346 . S
C1175 C1176 1.396 . S
C1175 C1185 1.510 . S
C1176 C1172 1.401 . S
C1176 C1175 1.396 . S
C1177 C1172 1.499 . S
C1177 H1178 0.959 . S
C1177 H1179 0.960 . S
C1177 H1180 0.961 . S
H1178 C1177 0.959 . S
H1179 C1177 0.960 . S
H1180 C1177 0.961 . S
O1181 Co1156 1.967 . S
O1181 C1189 1.258 . S
O1182 Co1157 1.941 . S
O1182 C1189 1.266 . S
H1183 C1185 0.959 . S
H1184 C1185 0.961 . S
C1185 C1175 1.510 . S
C1185 H1183 0.959 . S
C1185 H1184 0.961 . S
C1185 H1186 0.960 . S
H1186 C1185 0.960 . S
H1187 N1167 0.862 . S
O1188 Co1156 1.920 . S
O1188 C1161 1.289 . S
C1189 O1181 1.258 . S
C1189 O1182 1.266 . S
Co1190 O1193 1.970 . S
Co1190 N1207 1.989 . S
Co1190 O1215 1.967 . S
Co1190 O1222 1.920 . S
Co1191 O1194 1.966 . S
Co1191 N1200 2.022 . S
Co1191 N1208 1.993 . S
Co1191 O1216 1.941 . S
C1192 O1193 1.258 . S
C1192 O1194 1.263 . S
O1193 Co1190 1.970 . S
O1193 C1192 1.258 . S
O1194 Co1191 1.966 . S
O1194 C1192 1.263 . S
C1195 O1196 1.235 . S
C1195 O1222 1.289 . S
O1196 C1195 1.235 . S
C1197 C1199 1.400 . S
C1197 N1200 1.351 . S
C1197 C1202 1.501 . S
C1198 C1199 1.387 . S
C1198 N1201 1.341 . S
C1199 C1197 1.400 . S
C1199 C1198 1.387 . S
N1200 Co1191 2.022 . S
N1200 C1197 1.351 . S
N1200 N1201 1.365 . S
N1201 C1198 1.341 . S
N1201 N1200 1.365 . S
N1201 H1221 0.862 . S
C1202 C1197 1.501 . S
C1202 H1203 0.961 . S
C1202 H1204 0.961 . S
C1202 H1205 0.960 . S
H1203 C1202 0.961 . S
H1204 C1202 0.961 . S
H1205 C1202 0.960 . S
C1206 N1207 1.342 . S
C1206 C1210 1.401 . S
C1206 C1211 1.499 . S
N1207 Co1190 1.989 . S
N1207 C1206 1.342 . S
N1207 N1208 1.388 . S
N1208 Co1191 1.993 . S
N1208 N1207 1.388 . S
N1208 C1209 1.346 . S
C1209 N1208 1.346 . S
C1209 C1210 1.396 . S
C1209 C1219 1.510 . S
C1210 C1206 1.401 . S
C1210 C1209 1.396 . S
C1211 C1206 1.499 . S
C1211 H1212 0.959 . S
C1211 H1213 0.960 . S
C1211 H1214 0.961 . S
H1212 C1211 0.959 . S
H1213 C1211 0.960 . S
H1214 C1211 0.961 . S
O1215 Co1190 1.967 . S
O1215 C1223 1.258 . S
O1216 Co1191 1.941 . S
O1216 C1223 1.266 . S
H1217 C1219 0.959 . S
H1218 C1219 0.961 . S
C1219 C1209 1.510 . S
C1219 H1217 0.959 . S
C1219 H1218 0.961 . S
C1219 H1220 0.960 . S
H1220 C1219 0.960 . S
H1221 N1201 0.862 . S
O1222 Co1190 1.920 . S
O1222 C1195 1.289 . S
C1223 O1215 1.258 . S
C1223 O1216 1.266 . S
C1224 C1225 1.369 . S
C1224 C1226 1.419 . S
C1224 H1228 0.930 . S
C1225 C1224 1.369 . S
C1225 C1234 1.429 . S
C1226 C1224 1.419 . S
C1226 C1227 1.363 . S
C1226 H1229 0.929 . S
C1227 C1226 1.363 . S
C1227 C1233 1.428 . S
H1228 C1224 0.930 . S
H1229 C1226 0.929 . S
S1230 N1231 1.613 . S
S1230 N1232 1.610 . S
N1231 S1230 1.613 . S
N1231 C1234 1.350 . S
N1232 S1230 1.610 . S
N1232 C1233 1.351 . S
C1233 C1227 1.428 . S
C1233 N1232 1.351 . S
C1233 C1234 1.434 . S
C1234 C1225 1.429 . S
C1234 N1231 1.350 . S
C1234 C1233 1.434 . S
C1235 C1236 1.369 . S
C1235 C1237 1.419 . S
C1235 H1239 0.930 . S
C1236 C1235 1.369 . S
C1236 C1245 1.429 . S
C1237 C1235 1.419 . S
C1237 C1238 1.363 . S
C1237 H1240 0.929 . S
C1238 C1237 1.363 . S
C1238 C1244 1.428 . S
H1239 C1235 0.930 . S
H1240 C1237 0.929 . S
S1241 N1242 1.613 . S
S1241 N1243 1.610 . S
N1242 S1241 1.613 . S
N1242 C1245 1.350 . S
N1243 S1241 1.610 . S
N1243 C1244 1.351 . S
C1244 C1238 1.428 . S
C1244 N1243 1.351 . S
C1244 C1245 1.434 . S
C1245 C1236 1.429 . S
C1245 N1242 1.350 . S
C1245 C1244 1.434 . S
C1246 C1247 1.369 . S
C1246 C1248 1.419 . S
C1246 H1250 0.930 . S
C1247 C1246 1.369 . S
C1247 C1256 1.429 . S
C1248 C1246 1.419 . S
C1248 C1249 1.363 . S
C1248 H1251 0.929 . S
C1249 C1248 1.363 . S
C1249 C1255 1.428 . S
H1250 C1246 0.930 . S
H1251 C1248 0.929 . S
S1252 N1253 1.613 . S
S1252 N1254 1.610 . S
N1253 S1252 1.613 . S
N1253 C1256 1.350 . S
N1254 S1252 1.610 . S
N1254 C1255 1.351 . S
C1255 C1249 1.428 . S
C1255 N1254 1.351 . S
C1255 C1256 1.434 . S
C1256 C1247 1.429 . S
C1256 N1253 1.350 . S
C1256 C1255 1.434 . S
C1257 C1258 1.369 . S
C1257 C1259 1.419 . S
C1257 H1261 0.930 . S
C1258 C1257 1.369 . S
C1258 C1267 1.429 . S
C1259 C1257 1.419 . S
C1259 C1260 1.363 . S
C1259 H1262 0.929 . S
C1260 C1259 1.363 . S
C1260 C1266 1.428 . S
H1261 C1257 0.930 . S
H1262 C1259 0.929 . S
S1263 N1264 1.613 . S
S1263 N1265 1.610 . S
N1264 S1263 1.613 . S
N1264 C1267 1.350 . S
N1265 S1263 1.610 . S
N1265 C1266 1.351 . S
C1266 C1260 1.428 . S
C1266 N1265 1.351 . S
C1266 C1267 1.434 . S
C1267 C1258 1.429 . S
C1267 N1264 1.350 . S
C1267 C1266 1.434 . S
C1268 C1269 1.369 . S
C1268 C1270 1.419 . S
C1268 H1272 0.930 . S
C1269 C1268 1.369 . S
C1269 C1278 1.429 . S
C1270 C1268 1.419 . S
C1270 C1271 1.363 . S
C1270 H1273 0.929 . S
C1271 C1270 1.363 . S
C1271 C1277 1.428 . S
H1272 C1268 0.930 . S
H1273 C1270 0.929 . S
S1274 N1275 1.613 . S
S1274 N1276 1.610 . S
N1275 S1274 1.613 . S
N1275 C1278 1.350 . S
N1276 S1274 1.610 . S
N1276 C1277 1.351 . S
C1277 C1271 1.428 . S
C1277 N1276 1.351 . S
C1277 C1278 1.434 . S
C1278 C1269 1.429 . S
C1278 N1275 1.350 . S
C1278 C1277 1.434 . S
C1279 C1280 1.369 . S
C1279 C1281 1.419 . S
C1279 H1283 0.930 . S
C1280 C1279 1.369 . S
C1280 C1289 1.429 . S
C1281 C1279 1.419 . S
C1281 C1282 1.363 . S
C1281 H1284 0.929 . S
C1282 C1281 1.363 . S
C1282 C1288 1.428 . S
H1283 C1279 0.930 . S
H1284 C1281 0.929 . S
S1285 N1286 1.613 . S
S1285 N1287 1.610 . S
N1286 S1285 1.613 . S
N1286 C1289 1.350 . S
N1287 S1285 1.610 . S
N1287 C1288 1.351 . S
C1288 C1282 1.428 . S
C1288 N1287 1.351 . S
C1288 C1289 1.434 . S
C1289 C1280 1.429 . S
C1289 N1286 1.350 . S
C1289 C1288 1.434 . S
C1290 C1291 1.369 . S
C1290 C1292 1.419 . S
C1290 H1294 0.930 . S
C1291 C1290 1.369 . S
C1291 C1300 1.429 . S
C1292 C1290 1.419 . S
C1292 C1293 1.363 . S
C1292 H1295 0.929 . S
C1293 C1292 1.363 . S
C1293 C1299 1.428 . S
H1294 C1290 0.930 . S
H1295 C1292 0.929 . S
S1296 N1297 1.613 . S
S1296 N1298 1.610 . S
N1297 S1296 1.613 . S
N1297 C1300 1.350 . S
N1298 S1296 1.610 . S
N1298 C1299 1.351 . S
C1299 C1293 1.428 . S
C1299 N1298 1.351 . S
C1299 C1300 1.434 . S
C1300 C1291 1.429 . S
C1300 N1297 1.350 . S
C1300 C1299 1.434 . S
C1301 C1302 1.369 . S
C1301 C1303 1.419 . S
C1301 H1305 0.930 . S
C1302 C1301 1.369 . S
C1302 C1311 1.429 . S
C1303 C1301 1.419 . S
C1303 C1304 1.363 . S
C1303 H1306 0.929 . S
C1304 C1303 1.363 . S
C1304 C1310 1.428 . S
H1305 C1301 0.930 . S
H1306 C1303 0.929 . S
S1307 N1308 1.613 . S
S1307 N1309 1.610 . S
N1308 S1307 1.613 . S
N1308 C1311 1.350 . S
N1309 S1307 1.610 . S
N1309 C1310 1.351 . S
C1310 C1304 1.428 . S
C1310 N1309 1.351 . S
C1310 C1311 1.434 . S
C1311 C1302 1.429 . S
C1311 N1308 1.350 . S
C1311 C1310 1.434 . S
C1312 C1313 1.369 . S
C1312 C1314 1.419 . S
C1312 H1316 0.930 . S
C1313 C1312 1.369 . S
C1313 C1322 1.429 . S
C1314 C1312 1.419 . S
C1314 C1315 1.363 . S
C1314 H1317 0.929 . S
C1315 C1314 1.363 . S
C1315 C1321 1.428 . S
H1316 C1312 0.930 . S
H1317 C1314 0.929 . S
S1318 N1319 1.613 . S
S1318 N1320 1.610 . S
N1319 S1318 1.613 . S
N1319 C1322 1.350 . S
N1320 S1318 1.610 . S
N1320 C1321 1.351 . S
C1321 C1315 1.428 . S
C1321 N1320 1.351 . S
C1321 C1322 1.434 . S
C1322 C1313 1.429 . S
C1322 N1319 1.350 . S
C1322 C1321 1.434 . S
C1323 C1324 1.369 . S
C1323 C1325 1.419 . S
C1323 H1327 0.930 . S
C1324 C1323 1.369 . S
C1324 C1333 1.429 . S
C1325 C1323 1.419 . S
C1325 C1326 1.363 . S
C1325 H1328 0.929 . S
C1326 C1325 1.363 . S
C1326 C1332 1.428 . S
H1327 C1323 0.930 . S
H1328 C1325 0.929 . S
S1329 N1330 1.613 . S
S1329 N1331 1.610 . S
N1330 S1329 1.613 . S
N1330 C1333 1.350 . S
N1331 S1329 1.610 . S
N1331 C1332 1.351 . S
C1332 C1326 1.428 . S
C1332 N1331 1.351 . S
C1332 C1333 1.434 . S
C1333 C1324 1.429 . S
C1333 N1330 1.350 . S
C1333 C1332 1.434 . S
C1334 C1335 1.369 . S
C1334 C1336 1.419 . S
C1334 H1338 0.930 . S
C1335 C1334 1.369 . S
C1335 C1344 1.429 . S
C1336 C1334 1.419 . S
C1336 C1337 1.363 . S
C1336 H1339 0.929 . S
C1337 C1336 1.363 . S
C1337 C1343 1.428 . S
H1338 C1334 0.930 . S
H1339 C1336 0.929 . S
S1340 N1341 1.613 . S
S1340 N1342 1.610 . S
N1341 S1340 1.613 . S
N1341 C1344 1.350 . S
N1342 S1340 1.610 . S
N1342 C1343 1.351 . S
C1343 C1337 1.428 . S
C1343 N1342 1.351 . S
C1343 C1344 1.434 . S
C1344 C1335 1.429 . S
C1344 N1341 1.350 . S
C1344 C1343 1.434 . S
C1345 C1346 1.369 . S
C1345 C1347 1.419 . S
C1345 H1349 0.930 . S
C1346 C1345 1.369 . S
C1346 C1355 1.429 . S
C1347 C1345 1.419 . S
C1347 C1348 1.363 . S
C1347 H1350 0.929 . S
C1348 C1347 1.363 . S
C1348 C1354 1.428 . S
H1349 C1345 0.930 . S
H1350 C1347 0.929 . S
S1351 N1352 1.613 . S
S1351 N1353 1.610 . S
N1352 S1351 1.613 . S
N1352 C1355 1.350 . S
N1353 S1351 1.610 . S
N1353 C1354 1.351 . S
C1354 C1348 1.428 . S
C1354 N1353 1.351 . S
C1354 C1355 1.434 . S
C1355 C1346 1.429 . S
C1355 N1352 1.350 . S
C1355 C1354 1.434 . S
C1356 C1357 1.369 . S
C1356 C1358 1.419 1_655 S
C1356 H1360 0.930 . S
C1357 C1356 1.369 . S
C1357 C1366 1.429 . S
C1358 C1356 1.419 1_455 S
C1358 C1359 1.363 . S
C1358 H1361 0.929 . S
C1359 C1358 1.363 . S
C1359 C1365 1.428 . S
H1360 C1356 0.930 . S
H1361 C1358 0.929 . S
S1362 N1363 1.613 1_455 S
S1362 N1364 1.610 . S
N1363 S1362 1.613 1_655 S
N1363 C1366 1.350 . S
N1364 S1362 1.610 . S
N1364 C1365 1.351 . S
C1365 C1359 1.428 . S
C1365 N1364 1.351 . S
C1365 C1366 1.434 1_455 S
C1366 C1357 1.429 . S
C1366 N1363 1.350 . S
C1366 C1365 1.434 1_655 S
C1367 C1368 1.369 . S
C1367 C1369 1.419 . S
C1367 H1371 0.930 . S
C1368 C1367 1.369 . S
C1368 C1377 1.429 . S
C1369 C1367 1.419 . S
C1369 C1370 1.363 . S
C1369 H1372 0.929 . S
C1370 C1369 1.363 . S
C1370 C1376 1.428 . S
H1371 C1367 0.930 . S
H1372 C1369 0.929 . S
S1373 N1374 1.613 . S
S1373 N1375 1.610 . S
N1374 S1373 1.613 . S
N1374 C1377 1.350 . S
N1375 S1373 1.610 . S
N1375 C1376 1.351 . S
C1376 C1370 1.428 . S
C1376 N1375 1.351 . S
C1376 C1377 1.434 . S
C1377 C1368 1.429 . S
C1377 N1374 1.350 . S
C1377 C1376 1.434 . S
C1378 C1379 1.369 . S
C1378 C1380 1.419 . S
C1378 H1382 0.930 . S
C1379 C1378 1.369 . S
C1379 C1388 1.429 1_565 S
C1380 C1378 1.419 . S
C1380 C1381 1.363 1_565 S
C1380 H1383 0.929 . S
C1381 C1380 1.363 1_545 S
C1381 C1387 1.428 . S
H1382 C1378 0.930 . S
H1383 C1380 0.929 . S
S1384 N1385 1.613 . S
S1384 N1386 1.610 . S
N1385 S1384 1.613 . S
N1385 C1388 1.350 . S
N1386 S1384 1.610 . S
N1386 C1387 1.351 . S
C1387 C1381 1.428 . S
C1387 N1386 1.351 . S
C1387 C1388 1.434 . S
C1388 C1379 1.429 1_545 S
C1388 N1385 1.350 . S
C1388 C1387 1.434 . S
C1389 C1390 1.369 . S
C1389 C1391 1.419 . S
C1389 H1393 0.930 . S
C1390 C1389 1.369 . S
C1390 C1399 1.429 1_564 S
C1391 C1389 1.419 . S
C1391 C1392 1.363 1_564 S
C1391 H1394 0.929 . S
C1392 C1391 1.363 1_546 S
C1392 C1398 1.428 . S
H1393 C1389 0.930 . S
H1394 C1391 0.929 . S
S1395 N1396 1.613 . S
S1395 N1397 1.610 . S
N1396 S1395 1.613 . S
N1396 C1399 1.350 . S
N1397 S1395 1.610 . S
N1397 C1398 1.351 . S
C1398 C1392 1.428 . S
C1398 N1397 1.351 . S
C1398 C1399 1.434 . S
C1399 C1390 1.429 1_546 S
C1399 N1396 1.350 . S
C1399 C1398 1.434 . S
C1400 C1401 1.369 1_454 S
C1400 C1402 1.419 . S
C1400 H1404 0.930 . S
C1401 C1400 1.369 1_656 S
C1401 C1410 1.429 . S
C1402 C1400 1.419 . S
C1402 C1403 1.363 . S
C1402 H1405 0.929 . S
C1403 C1402 1.363 . S
C1403 C1409 1.428 1_454 S
H1404 C1400 0.930 . S
H1405 C1402 0.929 . S
S1406 N1407 1.613 . S
S1406 N1408 1.610 . S
N1407 S1406 1.613 . S
N1407 C1410 1.350 . S
N1408 S1406 1.610 . S
N1408 C1409 1.351 . S
C1409 C1403 1.428 1_656 S
C1409 N1408 1.351 . S
C1409 C1410 1.434 . S
C1410 C1401 1.429 . S
C1410 N1407 1.350 . S
C1410 C1409 1.434 . S
C1411 C1412 1.369 1_556 S
C1411 C1413 1.419 . S
C1411 H1415 0.930 . S
C1412 C1411 1.369 1_554 S
C1412 C1421 1.429 . S
C1413 C1411 1.419 . S
C1413 C1414 1.363 . S
C1413 H1416 0.929 . S
C1414 C1413 1.363 . S
C1414 C1420 1.428 1_556 S
H1415 C1411 0.930 . S
H1416 C1413 0.929 . S
S1417 N1418 1.613 . S
S1417 N1419 1.610 . S
N1418 S1417 1.613 . S
N1418 C1421 1.350 . S
N1419 S1417 1.610 . S
N1419 C1420 1.351 . S
C1420 C1414 1.428 1_554 S
C1420 N1419 1.351 . S
C1420 C1421 1.434 . S
C1421 C1412 1.429 . S
C1421 N1418 1.350 . S
C1421 C1420 1.434 . S
C1422 C1423 1.369 . S
C1422 C1424 1.419 . S
C1422 H1426 0.930 . S
C1423 C1422 1.369 . S
C1423 C1432 1.429 . S
C1424 C1422 1.419 . S
C1424 C1425 1.363 . S
C1424 H1427 0.929 . S
C1425 C1424 1.363 . S
C1425 C1431 1.428 . S
H1426 C1422 0.930 . S
H1427 C1424 0.929 . S
S1428 N1429 1.613 . S
S1428 N1430 1.610 . S
N1429 S1428 1.613 . S
N1429 C1432 1.350 . S
N1430 S1428 1.610 . S
N1430 C1431 1.351 . S
C1431 C1425 1.428 . S
C1431 N1430 1.351 . S
C1431 C1432 1.434 . S
C1432 C1423 1.429 . S
C1432 N1429 1.350 . S
C1432 C1431 1.434 . S
C1433 C1434 1.369 . S
C1433 C1435 1.419 . S
C1433 H1437 0.930 . S
C1434 C1433 1.369 . S
C1434 C1443 1.429 1_554 S
C1435 C1433 1.419 . S
C1435 C1436 1.363 . S
C1435 H1438 0.929 . S
C1436 C1435 1.363 . S
C1436 C1442 1.428 1_554 S
H1437 C1433 0.930 . S
H1438 C1435 0.929 . S
S1439 N1440 1.613 . S
S1439 N1441 1.610 . S
N1440 S1439 1.613 . S
N1440 C1443 1.350 . S
N1441 S1439 1.610 . S
N1441 C1442 1.351 . S
C1442 C1436 1.428 1_556 S
C1442 N1441 1.351 . S
C1442 C1443 1.434 . S
C1443 C1434 1.429 1_556 S
C1443 N1440 1.350 . S
C1443 C1442 1.434 . S
C1444 C1445 1.369 . S
C1444 C1446 1.419 . S
C1444 H1448 0.930 . S
C1445 C1444 1.369 . S
C1445 C1454 1.429 1_554 S
C1446 C1444 1.419 . S
C1446 C1447 1.363 . S
C1446 H1449 0.929 . S
C1447 C1446 1.363 . S
C1447 C1453 1.428 1_554 S
H1448 C1444 0.930 . S
H1449 C1446 0.929 . S
S1450 N1451 1.613 . S
S1450 N1452 1.610 . S
N1451 S1450 1.613 . S
N1451 C1454 1.350 . S
N1452 S1450 1.610 . S
N1452 C1453 1.351 . S
C1453 C1447 1.428 1_556 S
C1453 N1452 1.351 . S
C1453 C1454 1.434 . S
C1454 C1445 1.429 1_556 S
C1454 N1451 1.350 . S
C1454 C1453 1.434 . S
C1455 C1456 1.369 . S
C1455 C1457 1.419 . S
C1455 H1459 0.930 . S
C1456 C1455 1.369 . S
C1456 C1465 1.429 . S
C1457 C1455 1.419 . S
C1457 C1458 1.363 . S
C1457 H1460 0.929 . S
C1458 C1457 1.363 . S
C1458 C1464 1.428 . S
H1459 C1455 0.930 . S
H1460 C1457 0.929 . S
S1461 N1462 1.613 . S
S1461 N1463 1.610 . S
N1462 S1461 1.613 . S
N1462 C1465 1.350 . S
N1463 S1461 1.610 . S
N1463 C1464 1.351 . S
C1464 C1458 1.428 . S
C1464 N1463 1.351 . S
C1464 C1465 1.434 . S
C1465 C1456 1.429 . S
C1465 N1462 1.350 . S
C1465 C1464 1.434 . S
C1466 C1467 1.369 . S
C1466 C1468 1.419 . S
C1466 H1470 0.930 . S
C1467 C1466 1.369 . S
C1467 C1476 1.429 . S
C1468 C1466 1.419 . S
C1468 C1469 1.363 . S
C1468 H1471 0.929 . S
C1469 C1468 1.363 . S
C1469 C1475 1.428 . S
H1470 C1466 0.930 . S
H1471 C1468 0.929 . S
S1472 N1473 1.613 . S
S1472 N1474 1.610 . S
N1473 S1472 1.613 . S
N1473 C1476 1.350 . S
N1474 S1472 1.610 . S
N1474 C1475 1.351 . S
C1475 C1469 1.428 . S
C1475 N1474 1.351 . S
C1475 C1476 1.434 . S
C1476 C1467 1.429 . S
C1476 N1473 1.350 . S
C1476 C1475 1.434 . S
C1477 C1478 1.369 . S
C1477 C1479 1.419 . S
C1477 H1481 0.930 . S
C1478 C1477 1.369 . S
C1478 C1487 1.429 . S
C1479 C1477 1.419 . S
C1479 C1480 1.363 . S
C1479 H1482 0.929 . S
C1480 C1479 1.363 . S
C1480 C1486 1.428 . S
H1481 C1477 0.930 . S
H1482 C1479 0.929 . S
S1483 N1484 1.613 . S
S1483 N1485 1.610 . S
N1484 S1483 1.613 . S
N1484 C1487 1.350 . S
N1485 S1483 1.610 . S
N1485 C1486 1.351 . S
C1486 C1480 1.428 . S
C1486 N1485 1.351 . S
C1486 C1487 1.434 . S
C1487 C1478 1.429 . S
C1487 N1484 1.350 . S
C1487 C1486 1.434 . S
C1488 C1489 1.369 . S
C1488 C1490 1.419 . S
C1488 H1492 0.930 . S
C1489 C1488 1.369 . S
C1489 C1498 1.429 . S
C1490 C1488 1.419 . S
C1490 C1491 1.363 . S
C1490 H1493 0.929 . S
C1491 C1490 1.363 . S
C1491 C1497 1.428 . S
H1492 C1488 0.930 . S
H1493 C1490 0.929 . S
S1494 N1495 1.613 . S
S1494 N1496 1.610 . S
N1495 S1494 1.613 . S
N1495 C1498 1.350 . S
N1496 S1494 1.610 . S
N1496 C1497 1.351 . S
C1497 C1491 1.428 . S
C1497 N1496 1.351 . S
C1497 C1498 1.434 . S
C1498 C1489 1.429 . S
C1498 N1495 1.350 . S
C1498 C1497 1.434 . S
C1499 C1500 1.373 . S
C1499 C1501 1.418 1_556 S
C1499 H1503 0.926 1_556 S
C1500 C1499 1.373 . S
C1500 C1509 1.429 . S
C1501 C1499 1.418 1_554 S
C1501 C1502 1.363 1_554 S
C1501 H1504 0.929 . S
C1502 C1501 1.363 1_556 S
C1502 C1508 1.428 . S
H1503 C1499 0.926 1_554 S
H1504 C1501 0.929 . S
S1505 N1506 1.613 . S
S1505 N1507 1.610 . S
N1506 S1505 1.613 . S
N1506 C1509 1.350 . S
N1507 S1505 1.610 . S
N1507 C1508 1.351 . S
C1508 C1502 1.428 . S
C1508 N1507 1.351 . S
C1508 C1509 1.434 . S
C1509 C1500 1.429 . S
C1509 N1506 1.350 . S
C1509 C1508 1.434 . S
C1510 C1511 1.369 . S
C1510 C1512 1.419 . S
C1510 H1514 0.930 . S
C1511 C1510 1.369 . S
C1511 C1520 1.429 . S
C1512 C1510 1.419 . S
C1512 C1513 1.363 . S
C1512 H1515 0.929 . S
C1513 C1512 1.363 . S
C1513 C1519 1.428 . S
H1514 C1510 0.930 . S
H1515 C1512 0.929 . S
S1516 N1517 1.613 . S
S1516 N1518 1.610 . S
N1517 S1516 1.613 . S
N1517 C1520 1.350 . S
N1518 S1516 1.610 . S
N1518 C1519 1.351 . S
C1519 C1513 1.428 . S
C1519 N1518 1.351 . S
C1519 C1520 1.434 . S
C1520 C1511 1.429 . S
C1520 N1517 1.350 . S
C1520 C1519 1.434 . S
C1521 C1522 1.369 . S
C1521 C1523 1.419 . S
C1521 H1525 0.930 . S
C1522 C1521 1.369 . S
C1522 C1531 1.429 . S
C1523 C1521 1.419 . S
C1523 C1524 1.363 . S
C1523 H1526 0.929 . S
C1524 C1523 1.363 . S
C1524 C1530 1.428 . S
H1525 C1521 0.930 . S
H1526 C1523 0.929 . S
S1527 N1528 1.613 . S
S1527 N1529 1.610 . S
N1528 S1527 1.613 . S
N1528 C1531 1.350 . S
N1529 S1527 1.610 . S
N1529 C1530 1.351 . S
C1530 C1524 1.428 . S
C1530 N1529 1.351 . S
C1530 C1531 1.434 . S
C1531 C1522 1.429 . S
C1531 N1528 1.350 . S
C1531 C1530 1.434 . S
C1532 C1533 1.369 . S
C1532 C1534 1.419 . S
C1532 H1536 0.930 . S
C1533 C1532 1.369 . S
C1533 C1542 1.429 . S
C1534 C1532 1.419 . S
C1534 C1535 1.363 . S
C1534 H1537 0.929 . S
C1535 C1534 1.363 . S
C1535 C1541 1.428 . S
H1536 C1532 0.930 . S
H1537 C1534 0.929 . S
S1538 N1539 1.613 . S
S1538 N1540 1.610 . S
N1539 S1538 1.613 . S
N1539 C1542 1.350 . S
N1540 S1538 1.610 . S
N1540 C1541 1.351 . S
C1541 C1535 1.428 . S
C1541 N1540 1.351 . S
C1541 C1542 1.434 . S
C1542 C1533 1.429 . S
C1542 N1539 1.350 . S
C1542 C1541 1.434 . S
C1543 C1544 1.369 . S
C1543 C1545 1.419 . S
C1543 H1547 0.930 . S
C1544 C1543 1.369 . S
C1544 C1553 1.429 . S
C1545 C1543 1.419 . S
C1545 C1546 1.363 . S
C1545 H1548 0.929 . S
C1546 C1545 1.363 . S
C1546 C1552 1.428 . S
H1547 C1543 0.930 . S
H1548 C1545 0.929 . S
S1549 N1550 1.613 . S
S1549 N1551 1.610 . S
N1550 S1549 1.613 . S
N1550 C1553 1.350 . S
N1551 S1549 1.610 . S
N1551 C1552 1.351 . S
C1552 C1546 1.428 . S
C1552 N1551 1.351 . S
C1552 C1553 1.434 . S
C1553 C1544 1.429 . S
C1553 N1550 1.350 . S
C1553 C1552 1.434 . S
C1554 C1555 1.369 . S
C1554 C1556 1.419 . S
C1554 H1558 0.930 . S
C1555 C1554 1.369 . S
C1555 C1564 1.429 . S
C1556 C1554 1.419 . S
C1556 C1557 1.363 . S
C1556 H1559 0.929 . S
C1557 C1556 1.363 . S
C1557 C1563 1.428 . S
H1558 C1554 0.930 . S
H1559 C1556 0.929 . S
S1560 N1561 1.613 . S
S1560 N1562 1.610 . S
N1561 S1560 1.613 . S
N1561 C1564 1.350 . S
N1562 S1560 1.610 . S
N1562 C1563 1.351 . S
C1563 C1557 1.428 . S
C1563 N1562 1.351 . S
C1563 C1564 1.434 . S
C1564 C1555 1.429 . S
C1564 N1561 1.350 . S
C1564 C1563 1.434 . S
C1565 C1566 1.369 . S
C1565 C1567 1.419 . S
C1565 H1569 0.930 . S
C1566 C1565 1.369 . S
C1566 C1575 1.429 . S
C1567 C1565 1.419 . S
C1567 C1568 1.363 . S
C1567 H1570 0.929 . S
C1568 C1567 1.363 . S
C1568 C1574 1.428 . S
H1569 C1565 0.930 . S
H1570 C1567 0.929 . S
S1571 N1572 1.613 . S
S1571 N1573 1.610 . S
N1572 S1571 1.613 . S
N1572 C1575 1.350 . S
N1573 S1571 1.610 . S
N1573 C1574 1.351 . S
C1574 C1568 1.428 . S
C1574 N1573 1.351 . S
C1574 C1575 1.434 . S
C1575 C1566 1.429 . S
C1575 N1572 1.350 . S
C1575 C1574 1.434 . S
C1576 C1577 1.369 . S
C1576 C1578 1.419 . S
C1576 H1580 0.930 . S
C1577 C1576 1.369 . S
C1577 C1586 1.429 . S
C1578 C1576 1.419 . S
C1578 C1579 1.363 . S
C1578 H1581 0.929 . S
C1579 C1578 1.363 . S
C1579 C1585 1.428 . S
H1580 C1576 0.930 . S
H1581 C1578 0.929 . S
S1582 N1583 1.613 . S
S1582 N1584 1.610 . S
N1583 S1582 1.613 . S
N1583 C1586 1.350 . S
N1584 S1582 1.610 . S
N1584 C1585 1.351 . S
C1585 C1579 1.428 . S
C1585 N1584 1.351 . S
C1585 C1586 1.434 . S
C1586 C1577 1.429 . S
C1586 N1583 1.350 . S
C1586 C1585 1.434 . S
C1587 C1588 1.369 . S
C1587 C1589 1.419 . S
C1587 H1591 0.930 . S
C1588 C1587 1.369 . S
C1588 C1597 1.429 . S
C1589 C1587 1.419 . S
C1589 C1590 1.363 . S
C1589 H1592 0.929 . S
C1590 C1589 1.363 . S
C1590 C1596 1.428 . S
H1591 C1587 0.930 . S
H1592 C1589 0.929 . S
S1593 N1594 1.613 . S
S1593 N1595 1.610 . S
N1594 S1593 1.613 . S
N1594 C1597 1.350 . S
N1595 S1593 1.610 . S
N1595 C1596 1.351 . S
C1596 C1590 1.428 . S
C1596 N1595 1.351 . S
C1596 C1597 1.434 . S
C1597 C1588 1.429 . S
C1597 N1594 1.350 . S
C1597 C1596 1.434 . S
C1598 C1599 1.369 . S
C1598 C1600 1.419 . S
C1598 H1602 0.930 . S
C1599 C1598 1.369 . S
C1599 C1608 1.429 . S
C1600 C1598 1.419 . S
C1600 C1601 1.363 . S
C1600 H1603 0.929 . S
C1601 C1600 1.363 . S
C1601 C1607 1.428 . S
H1602 C1598 0.930 . S
H1603 C1600 0.929 . S
S1604 N1605 1.613 . S
S1604 N1606 1.610 . S
N1605 S1604 1.613 . S
N1605 C1608 1.350 . S
N1606 S1604 1.610 . S
N1606 C1607 1.351 . S
C1607 C1601 1.428 . S
C1607 N1606 1.351 . S
C1607 C1608 1.434 . S
C1608 C1599 1.429 . S
C1608 N1605 1.350 . S
C1608 C1607 1.434 . S
C1609 C1610 1.369 . S
C1609 C1611 1.419 . S
C1609 H1613 0.930 . S
C1610 C1609 1.369 . S
C1610 C1619 1.429 . S
C1611 C1609 1.419 . S
C1611 C1612 1.363 . S
C1611 H1614 0.929 . S
C1612 C1611 1.363 . S
C1612 C1618 1.428 . S
H1613 C1609 0.930 . S
H1614 C1611 0.929 . S
S1615 N1616 1.613 . S
S1615 N1617 1.610 . S
N1616 S1615 1.613 . S
N1616 C1619 1.350 . S
N1617 S1615 1.610 . S
N1617 C1618 1.351 . S
C1618 C1612 1.428 . S
C1618 N1617 1.351 . S
C1618 C1619 1.434 . S
C1619 C1610 1.429 . S
C1619 N1616 1.350 . S
C1619 C1618 1.434 . S
C1620 C1621 1.369 . S
C1620 C1622 1.419 . S
C1620 H1624 0.930 . S
C1621 C1620 1.369 . S
C1621 C1630 1.429 . S
C1622 C1620 1.419 . S
C1622 C1623 1.363 . S
C1622 H1625 0.929 . S
C1623 C1622 1.363 . S
C1623 C1629 1.428 . S
H1624 C1620 0.930 . S
H1625 C1622 0.929 . S
S1626 N1627 1.613 . S
S1626 N1628 1.610 . S
N1627 S1626 1.613 . S
N1627 C1630 1.350 . S
N1628 S1626 1.610 . S
N1628 C1629 1.351 . S
C1629 C1623 1.428 . S
C1629 N1628 1.351 . S
C1629 C1630 1.434 . S
C1630 C1621 1.429 . S
C1630 N1627 1.350 . S
C1630 C1629 1.434 . S
C1631 C1632 1.369 . S
C1631 C1633 1.419 . S
C1631 H1635 0.930 . S
C1632 C1631 1.369 . S
C1632 C1641 1.429 . S
C1633 C1631 1.419 . S
C1633 C1634 1.363 . S
C1633 H1636 0.929 . S
C1634 C1633 1.363 . S
C1634 C1640 1.428 . S
H1635 C1631 0.930 . S
H1636 C1633 0.929 . S
S1637 N1638 1.613 . S
S1637 N1639 1.610 . S
N1638 S1637 1.613 . S
N1638 C1641 1.350 . S
N1639 S1637 1.610 . S
N1639 C1640 1.351 . S
C1640 C1634 1.428 . S
C1640 N1639 1.351 . S
C1640 C1641 1.434 . S
C1641 C1632 1.429 . S
C1641 N1638 1.350 . S
C1641 C1640 1.434 . S
C1642 C1643 1.369 . S
C1642 C1644 1.419 . S
C1642 H1646 0.930 . S
C1643 C1642 1.369 . S
C1643 C1652 1.429 . S
C1644 C1642 1.419 . S
C1644 C1645 1.363 . S
C1644 H1647 0.929 . S
C1645 C1644 1.363 . S
C1645 C1651 1.428 . S
H1646 C1642 0.930 . S
H1647 C1644 0.929 . S
S1648 N1649 1.613 . S
S1648 N1650 1.610 . S
N1649 S1648 1.613 . S
N1649 C1652 1.350 . S
N1650 S1648 1.610 . S
N1650 C1651 1.351 . S
C1651 C1645 1.428 . S
C1651 N1650 1.351 . S
C1651 C1652 1.434 . S
C1652 C1643 1.429 . S
C1652 N1649 1.350 . S
C1652 C1651 1.434 . S
C1653 C1654 1.369 . S
C1653 C1655 1.419 . S
C1653 H1657 0.930 . S
C1654 C1653 1.369 . S
C1654 C1663 1.429 . S
C1655 C1653 1.419 . S
C1655 C1656 1.363 . S
C1655 H1658 0.929 . S
C1656 C1655 1.363 . S
C1656 C1662 1.428 . S
H1657 C1653 0.930 . S
H1658 C1655 0.929 . S
S1659 N1660 1.613 . S
S1659 N1661 1.610 . S
N1660 S1659 1.613 . S
N1660 C1663 1.350 . S
N1661 S1659 1.610 . S
N1661 C1662 1.351 . S
C1662 C1656 1.428 . S
C1662 N1661 1.351 . S
C1662 C1663 1.434 . S
C1663 C1654 1.429 . S
C1663 N1660 1.350 . S
C1663 C1662 1.434 . S
C1664 C1665 1.369 . S
C1664 C1666 1.419 . S
C1664 H1668 0.930 . S
C1665 C1664 1.369 . S
C1665 C1674 1.429 . S
C1666 C1664 1.419 . S
C1666 C1667 1.363 . S
C1666 H1669 0.929 . S
C1667 C1666 1.363 . S
C1667 C1673 1.428 . S
H1668 C1664 0.930 . S
H1669 C1666 0.929 . S
S1670 N1671 1.613 . S
S1670 N1672 1.610 . S
N1671 S1670 1.613 . S
N1671 C1674 1.350 . S
N1672 S1670 1.610 . S
N1672 C1673 1.351 . S
C1673 C1667 1.428 . S
C1673 N1672 1.351 . S
C1673 C1674 1.434 . S
C1674 C1665 1.429 . S
C1674 N1671 1.350 . S
C1674 C1673 1.434 . S
C1675 C1676 1.369 . S
C1675 C1677 1.419 . S
C1675 H1679 0.930 . S
C1676 C1675 1.369 . S
C1676 C1685 1.429 . S
C1677 C1675 1.419 . S
C1677 C1678 1.363 . S
C1677 H1680 0.929 . S
C1678 C1677 1.363 . S
C1678 C1684 1.428 . S
H1679 C1675 0.930 . S
H1680 C1677 0.929 . S
S1681 N1682 1.613 . S
S1681 N1683 1.610 . S
N1682 S1681 1.613 . S
N1682 C1685 1.350 . S
N1683 S1681 1.610 . S
N1683 C1684 1.351 . S
C1684 C1678 1.428 . S
C1684 N1683 1.351 . S
C1684 C1685 1.434 . S
C1685 C1676 1.429 . S
C1685 N1682 1.350 . S
C1685 C1684 1.434 . S
C1686 C1687 1.369 . S
C1686 C1688 1.419 . S
C1686 H1690 0.930 . S
C1687 C1686 1.369 . S
C1687 C1696 1.429 . S
C1688 C1686 1.419 . S
C1688 C1689 1.363 . S
C1688 H1691 0.929 . S
C1689 C1688 1.363 . S
C1689 C1695 1.428 . S
H1690 C1686 0.930 . S
H1691 C1688 0.929 . S
S1692 N1693 1.613 . S
S1692 N1694 1.610 . S
N1693 S1692 1.613 . S
N1693 C1696 1.350 . S
N1694 S1692 1.610 . S
N1694 C1695 1.351 . S
C1695 C1689 1.428 . S
C1695 N1694 1.351 . S
C1695 C1696 1.434 . S
C1696 C1687 1.429 . S
C1696 N1693 1.350 . S
C1696 C1695 1.434 . S
C1697 C1698 1.369 . S
C1697 C1699 1.419 . S
C1697 H1701 0.930 . S
C1698 C1697 1.369 . S
C1698 C1707 1.429 . S
C1699 C1697 1.419 . S
C1699 C1700 1.363 . S
C1699 H1702 0.929 . S
C1700 C1699 1.363 . S
C1700 C1706 1.428 . S
H1701 C1697 0.930 . S
H1702 C1699 0.929 . S
S1703 N1704 1.613 . S
S1703 N1705 1.610 . S
N1704 S1703 1.613 . S
N1704 C1707 1.350 . S
N1705 S1703 1.610 . S
N1705 C1706 1.351 . S
C1706 C1700 1.428 . S
C1706 N1705 1.351 . S
C1706 C1707 1.434 . S
C1707 C1698 1.429 . S
C1707 N1704 1.350 . S
C1707 C1706 1.434 . S
C1708 C1709 1.369 . S
C1708 C1710 1.419 . S
C1708 H1712 0.930 . S
C1709 C1708 1.369 . S
C1709 C1718 1.429 . S
C1710 C1708 1.419 . S
C1710 C1711 1.363 . S
C1710 H1713 0.929 . S
C1711 C1710 1.363 . S
C1711 C1717 1.428 . S
H1712 C1708 0.930 . S
H1713 C1710 0.929 . S
S1714 N1715 1.613 . S
S1714 N1716 1.610 . S
N1715 S1714 1.613 . S
N1715 C1718 1.350 . S
N1716 S1714 1.610 . S
N1716 C1717 1.351 . S
C1717 C1711 1.428 . S
C1717 N1716 1.351 . S
C1717 C1718 1.434 . S
C1718 C1709 1.429 . S
C1718 N1715 1.350 . S
C1718 C1717 1.434 . S
C1719 C1720 1.369 . S
C1719 C1721 1.419 . S
C1719 H1723 0.930 . S
C1720 C1719 1.369 . S
C1720 C1729 1.429 . S
C1721 C1719 1.419 . S
C1721 C1722 1.363 . S
C1721 H1724 0.929 . S
C1722 C1721 1.363 . S
C1722 C1728 1.428 . S
H1723 C1719 0.930 . S
H1724 C1721 0.929 . S
S1725 N1726 1.613 . S
S1725 N1727 1.610 . S
N1726 S1725 1.613 . S
N1726 C1729 1.350 . S
N1727 S1725 1.610 . S
N1727 C1728 1.351 . S
C1728 C1722 1.428 . S
C1728 N1727 1.351 . S
C1728 C1729 1.434 . S
C1729 C1720 1.429 . S
C1729 N1726 1.350 . S
C1729 C1728 1.434 . S
C1730 C1731 1.369 . S
C1730 C1732 1.419 . S
C1730 H1734 0.930 . S
C1731 C1730 1.369 . S
C1731 C1740 1.429 . S
C1732 C1730 1.419 . S
C1732 C1733 1.363 . S
C1732 H1735 0.929 . S
C1733 C1732 1.363 . S
C1733 C1739 1.428 . S
H1734 C1730 0.930 . S
H1735 C1732 0.929 . S
S1736 N1737 1.613 . S
S1736 N1738 1.610 . S
N1737 S1736 1.613 . S
N1737 C1740 1.350 . S
N1738 S1736 1.610 . S
N1738 C1739 1.351 . S
C1739 C1733 1.428 . S
C1739 N1738 1.351 . S
C1739 C1740 1.434 . S
C1740 C1731 1.429 . S
C1740 N1737 1.350 . S
C1740 C1739 1.434 . S
C1741 C1742 1.369 . S
C1741 C1743 1.419 . S
C1741 H1745 0.930 . S
C1742 C1741 1.369 . S
C1742 C1751 1.429 . S
C1743 C1741 1.419 . S
C1743 C1744 1.363 . S
C1743 H1746 0.929 . S
C1744 C1743 1.363 . S
C1744 C1750 1.428 . S
H1745 C1741 0.930 . S
H1746 C1743 0.929 . S
S1747 N1748 1.613 . S
S1747 N1749 1.610 . S
N1748 S1747 1.613 . S
N1748 C1751 1.350 . S
N1749 S1747 1.610 . S
N1749 C1750 1.351 . S
C1750 C1744 1.428 . S
C1750 N1749 1.351 . S
C1750 C1751 1.434 . S
C1751 C1742 1.429 . S
C1751 N1748 1.350 . S
C1751 C1750 1.434 . S
C1752 C1753 1.369 . S
C1752 C1754 1.419 . S
C1752 H1756 0.930 . S
C1753 C1752 1.369 . S
C1753 C1762 1.429 . S
C1754 C1752 1.419 . S
C1754 C1755 1.363 . S
C1754 H1757 0.929 . S
C1755 C1754 1.363 . S
C1755 C1761 1.428 . S
H1756 C1752 0.930 . S
H1757 C1754 0.929 . S
S1758 N1759 1.613 . S
S1758 N1760 1.610 . S
N1759 S1758 1.613 . S
N1759 C1762 1.350 . S
N1760 S1758 1.610 . S
N1760 C1761 1.351 . S
C1761 C1755 1.428 . S
C1761 N1760 1.351 . S
C1761 C1762 1.434 . S
C1762 C1753 1.429 . S
C1762 N1759 1.350 . S
C1762 C1761 1.434 . S
C1763 C1764 1.369 . S
C1763 C1765 1.419 . S
C1763 H1767 0.930 . S
C1764 C1763 1.369 . S
C1764 C1773 1.429 . S
C1765 C1763 1.419 . S
C1765 C1766 1.363 . S
C1765 H1768 0.929 . S
C1766 C1765 1.363 . S
C1766 C1772 1.428 . S
H1767 C1763 0.930 . S
H1768 C1765 0.929 . S
S1769 N1770 1.613 . S
S1769 N1771 1.610 . S
N1770 S1769 1.613 . S
N1770 C1773 1.350 . S
N1771 S1769 1.610 . S
N1771 C1772 1.351 . S
C1772 C1766 1.428 . S
C1772 N1771 1.351 . S
C1772 C1773 1.434 . S
C1773 C1764 1.429 . S
C1773 N1770 1.350 . S
C1773 C1772 1.434 . S
C1774 C1775 1.369 . S
C1774 C1776 1.419 . S
C1774 H1778 0.930 . S
C1775 C1774 1.369 . S
C1775 C1784 1.429 . S
C1776 C1774 1.419 . S
C1776 C1777 1.363 . S
C1776 H1779 0.929 . S
C1777 C1776 1.363 . S
C1777 C1783 1.428 . S
H1778 C1774 0.930 . S
H1779 C1776 0.929 . S
S1780 N1781 1.613 . S
S1780 N1782 1.610 . S
N1781 S1780 1.613 . S
N1781 C1784 1.350 . S
N1782 S1780 1.610 . S
N1782 C1783 1.351 . S
C1783 C1777 1.428 . S
C1783 N1782 1.351 . S
C1783 C1784 1.434 . S
C1784 C1775 1.429 . S
C1784 N1781 1.350 . S
C1784 C1783 1.434 . S
C1785 C1786 1.369 . S
C1785 C1787 1.419 . S
C1785 H1789 0.930 . S
C1786 C1785 1.369 . S
C1786 C1795 1.429 . S
C1787 C1785 1.419 . S
C1787 C1788 1.363 . S
C1787 H1790 0.929 . S
C1788 C1787 1.363 . S
C1788 C1794 1.428 . S
H1789 C1785 0.930 . S
H1790 C1787 0.929 . S
S1791 N1792 1.613 . S
S1791 N1793 1.610 . S
N1792 S1791 1.613 . S
N1792 C1795 1.350 . S
N1793 S1791 1.610 . S
N1793 C1794 1.351 . S
C1794 C1788 1.428 . S
C1794 N1793 1.351 . S
C1794 C1795 1.434 . S
C1795 C1786 1.429 . S
C1795 N1792 1.350 . S
C1795 C1794 1.434 . S
C1796 C1797 1.369 . S
C1796 C1798 1.419 . S
C1796 H1800 0.930 . S
C1797 C1796 1.369 . S
C1797 C1806 1.429 . S
C1798 C1796 1.419 . S
C1798 C1799 1.363 . S
C1798 H1801 0.929 . S
C1799 C1798 1.363 . S
C1799 C1805 1.428 . S
H1800 C1796 0.930 . S
H1801 C1798 0.929 . S
S1802 N1803 1.613 . S
S1802 N1804 1.610 . S
N1803 S1802 1.613 . S
N1803 C1806 1.350 . S
N1804 S1802 1.610 . S
N1804 C1805 1.351 . S
C1805 C1799 1.428 . S
C1805 N1804 1.351 . S
C1805 C1806 1.434 . S
C1806 C1797 1.429 . S
C1806 N1803 1.350 . S
C1806 C1805 1.434 . S
C1807 C1808 1.369 . S
C1807 C1809 1.419 . S
C1807 H1811 0.930 . S
C1808 C1807 1.369 . S
C1808 C1817 1.429 . S
C1809 C1807 1.419 . S
C1809 C1810 1.363 . S
C1809 H1812 0.929 . S
C1810 C1809 1.363 . S
C1810 C1816 1.428 . S
H1811 C1807 0.930 . S
H1812 C1809 0.929 . S
S1813 N1814 1.613 . S
S1813 N1815 1.610 . S
N1814 S1813 1.613 . S
N1814 C1817 1.350 . S
N1815 S1813 1.610 . S
N1815 C1816 1.351 . S
C1816 C1810 1.428 . S
C1816 N1815 1.351 . S
C1816 C1817 1.434 . S
C1817 C1808 1.429 . S
C1817 N1814 1.350 . S
C1817 C1816 1.434 . S
C1818 C1819 1.369 . S
C1818 C1820 1.419 . S
C1818 H1822 0.930 . S
C1819 C1818 1.369 . S
C1819 C1828 1.429 . S
C1820 C1818 1.419 . S
C1820 C1821 1.363 . S
C1820 H1823 0.929 . S
C1821 C1820 1.363 . S
C1821 C1827 1.428 . S
H1822 C1818 0.930 . S
H1823 C1820 0.929 . S
S1824 N1825 1.613 . S
S1824 N1826 1.610 . S
N1825 S1824 1.613 . S
N1825 C1828 1.350 . S
N1826 S1824 1.610 . S
N1826 C1827 1.351 . S
C1827 C1821 1.428 . S
C1827 N1826 1.351 . S
C1827 C1828 1.434 . S
C1828 C1819 1.429 . S
C1828 N1825 1.350 . S
C1828 C1827 1.434 . S
C1829 C1830 1.369 1_565 S
C1829 C1831 1.419 . S
C1829 H1833 0.930 . S
C1830 C1829 1.369 1_545 S
C1830 C1839 1.429 . S
C1831 C1829 1.419 . S
C1831 C1832 1.363 . S
C1831 H1834 0.929 . S
C1832 C1831 1.363 . S
C1832 C1838 1.428 1_565 S
H1833 C1829 0.930 . S
H1834 C1831 0.929 . S
S1835 N1836 1.613 . S
S1835 N1837 1.610 . S
N1836 S1835 1.613 . S
N1836 C1839 1.350 . S
N1837 S1835 1.610 . S
N1837 C1838 1.351 . S
C1838 C1832 1.428 1_545 S
C1838 N1837 1.351 . S
C1838 C1839 1.434 . S
C1839 C1830 1.429 . S
C1839 N1836 1.350 . S
C1839 C1838 1.434 . S
C1840 C1841 1.369 1_655 S
C1840 C1842 1.419 . S
C1840 H1844 0.930 . S
C1841 C1840 1.369 1_455 S
C1841 C1850 1.429 . S
C1842 C1840 1.419 . S
C1842 C1843 1.363 . S
C1842 H1845 0.929 . S
C1843 C1842 1.363 . S
C1843 C1849 1.428 1_655 S
H1844 C1840 0.930 . S
H1845 C1842 0.929 . S
S1846 N1847 1.613 . S
S1846 N1848 1.610 . S
N1847 S1846 1.613 . S
N1847 C1850 1.350 . S
N1848 S1846 1.610 . S
N1848 C1849 1.351 . S
C1849 C1843 1.428 1_455 S
C1849 N1848 1.351 . S
C1849 C1850 1.434 . S
C1850 C1841 1.429 . S
C1850 N1847 1.350 . S
C1850 C1849 1.434 . S
C1851 C1852 1.369 . S
C1851 C1853 1.419 . S
C1851 H1855 0.930 . S
C1852 C1851 1.369 . S
C1852 C1861 1.429 . S
C1853 C1851 1.419 . S
C1853 C1854 1.363 . S
C1853 H1856 0.929 . S
C1854 C1853 1.363 . S
C1854 C1860 1.428 . S
H1855 C1851 0.930 . S
H1856 C1853 0.929 . S
S1857 N1858 1.613 . S
S1857 N1859 1.610 . S
N1858 S1857 1.613 . S
N1858 C1861 1.350 . S
N1859 S1857 1.610 . S
N1859 C1860 1.351 . S
C1860 C1854 1.428 . S
C1860 N1859 1.351 . S
C1860 C1861 1.434 . S
C1861 C1852 1.429 . S
C1861 N1858 1.350 . S
C1861 C1860 1.434 . S
C1862 C1863 1.369 1_565 S
C1862 C1864 1.419 . S
C1862 H1866 0.930 . S
C1863 C1862 1.369 1_545 S
C1863 C1872 1.429 . S
C1864 C1862 1.419 . S
C1864 C1865 1.363 . S
C1864 H1867 0.929 . S
C1865 C1864 1.363 . S
C1865 C1871 1.428 1_565 S
H1866 C1862 0.930 . S
H1867 C1864 0.929 . S
S1868 N1869 1.613 . S
S1868 N1870 1.610 . S
N1869 S1868 1.613 . S
N1869 C1872 1.350 . S
N1870 S1868 1.610 . S
N1870 C1871 1.351 . S
C1871 C1865 1.428 1_545 S
C1871 N1870 1.351 . S
C1871 C1872 1.434 . S
C1872 C1863 1.429 . S
C1872 N1869 1.350 . S
C1872 C1871 1.434 . S
C1873 C1874 1.369 1_655 S
C1873 C1875 1.419 . S
C1873 H1877 0.930 . S
C1874 C1873 1.369 1_455 S
C1874 C1883 1.429 . S
C1875 C1873 1.419 . S
C1875 C1876 1.363 . S
C1875 H1878 0.929 . S
C1876 C1875 1.363 . S
C1876 C1882 1.428 1_655 S
H1877 C1873 0.930 . S
H1878 C1875 0.929 . S
S1879 N1880 1.613 . S
S1879 N1881 1.610 . S
N1880 S1879 1.613 . S
N1880 C1883 1.350 . S
N1881 S1879 1.610 . S
N1881 C1882 1.351 . S
C1882 C1876 1.428 1_455 S
C1882 N1881 1.351 . S
C1882 C1883 1.434 . S
C1883 C1874 1.429 . S
C1883 N1880 1.350 . S
C1883 C1882 1.434 . S
C1884 C1885 1.369 . S
C1884 C1886 1.419 . S
C1884 H1888 0.930 . S
C1885 C1884 1.369 . S
C1885 C1894 1.429 . S
C1886 C1884 1.419 . S
C1886 C1887 1.363 . S
C1886 H1889 0.929 . S
C1887 C1886 1.363 . S
C1887 C1893 1.428 . S
H1888 C1884 0.930 . S
H1889 C1886 0.929 . S
S1890 N1891 1.613 . S
S1890 N1892 1.610 . S
N1891 S1890 1.613 . S
N1891 C1894 1.350 . S
N1892 S1890 1.610 . S
N1892 C1893 1.351 . S
C1893 C1887 1.428 . S
C1893 N1892 1.351 . S
C1893 C1894 1.434 . S
C1894 C1885 1.429 . S
C1894 N1891 1.350 . S
C1894 C1893 1.434 . S
C1895 C1896 1.369 . S
C1895 C1897 1.419 . S
C1895 H1899 0.930 . S
C1896 C1895 1.369 . S
C1896 C1905 1.429 . S
C1897 C1895 1.419 . S
C1897 C1898 1.363 . S
C1897 H1900 0.929 . S
C1898 C1897 1.363 . S
C1898 C1904 1.428 . S
H1899 C1895 0.930 . S
H1900 C1897 0.929 . S
S1901 N1902 1.613 . S
S1901 N1903 1.610 . S
N1902 S1901 1.613 . S
N1902 C1905 1.350 . S
N1903 S1901 1.610 . S
N1903 C1904 1.351 . S
C1904 C1898 1.428 . S
C1904 N1903 1.351 . S
C1904 C1905 1.434 . S
C1905 C1896 1.429 . S
C1905 N1902 1.350 . S
C1905 C1904 1.434 . S
C1906 C1907 1.369 . S
C1906 C1908 1.419 . S
C1906 H1910 0.930 . S
C1907 C1906 1.369 . S
C1907 C1916 1.429 . S
C1908 C1906 1.419 . S
C1908 C1909 1.363 . S
C1908 H1911 0.929 . S
C1909 C1908 1.363 . S
C1909 C1915 1.428 . S
H1910 C1906 0.930 . S
H1911 C1908 0.929 . S
S1912 N1913 1.613 . S
S1912 N1914 1.610 . S
N1913 S1912 1.613 . S
N1913 C1916 1.350 . S
N1914 S1912 1.610 . S
N1914 C1915 1.351 . S
C1915 C1909 1.428 . S
C1915 N1914 1.351 . S
C1915 C1916 1.434 . S
C1916 C1907 1.429 . S
C1916 N1913 1.350 . S
C1916 C1915 1.434 . S
C1917 C1918 1.369 . S
C1917 C1919 1.419 . S
C1917 H1921 0.930 . S
C1918 C1917 1.369 . S
C1918 C1927 1.429 . S
C1919 C1917 1.419 . S
C1919 C1920 1.363 . S
C1919 H1922 0.929 . S
C1920 C1919 1.363 . S
C1920 C1926 1.428 . S
H1921 C1917 0.930 . S
H1922 C1919 0.929 . S
S1923 N1924 1.613 . S
S1923 N1925 1.610 . S
N1924 S1923 1.613 . S
N1924 C1927 1.350 . S
N1925 S1923 1.610 . S
N1925 C1926 1.351 . S
C1926 C1920 1.428 . S
C1926 N1925 1.351 . S
C1926 C1927 1.434 . S
C1927 C1918 1.429 . S
C1927 N1924 1.350 . S
C1927 C1926 1.434 . S
C1928 C1929 1.369 . S
C1928 C1930 1.419 . S
C1928 H1932 0.930 . S
C1929 C1928 1.369 . S
C1929 C1938 1.429 . S
C1930 C1928 1.419 . S
C1930 C1931 1.363 . S
C1930 H1933 0.929 . S
C1931 C1930 1.363 . S
C1931 C1937 1.428 . S
H1932 C1928 0.930 . S
H1933 C1930 0.929 . S
S1934 N1935 1.613 . S
S1934 N1936 1.610 . S
N1935 S1934 1.613 . S
N1935 C1938 1.350 . S
N1936 S1934 1.610 . S
N1936 C1937 1.351 . S
C1937 C1931 1.428 . S
C1937 N1936 1.351 . S
C1937 C1938 1.434 . S
C1938 C1929 1.429 . S
C1938 N1935 1.350 . S
C1938 C1937 1.434 . S
C1939 C1940 1.369 . S
C1939 C1941 1.419 . S
C1939 H1943 0.930 . S
C1940 C1939 1.369 . S
C1940 C1949 1.429 . S
C1941 C1939 1.419 . S
C1941 C1942 1.363 . S
C1941 H1944 0.929 . S
C1942 C1941 1.363 . S
C1942 C1948 1.428 . S
H1943 C1939 0.930 . S
H1944 C1941 0.929 . S
S1945 N1946 1.613 . S
S1945 N1947 1.610 . S
N1946 S1945 1.613 . S
N1946 C1949 1.350 . S
N1947 S1945 1.610 . S
N1947 C1948 1.351 . S
C1948 C1942 1.428 . S
C1948 N1947 1.351 . S
C1948 C1949 1.434 . S
C1949 C1940 1.429 . S
C1949 N1946 1.350 . S
C1949 C1948 1.434 . S
C1950 C1951 1.369 . S
C1950 C1952 1.419 . S
C1950 H1954 0.930 . S
C1951 C1950 1.369 . S
C1951 C1960 1.429 . S
C1952 C1950 1.419 . S
C1952 C1953 1.363 . S
C1952 H1955 0.929 . S
C1953 C1952 1.363 . S
C1953 C1959 1.428 . S
H1954 C1950 0.930 . S
H1955 C1952 0.929 . S
S1956 N1957 1.613 . S
S1956 N1958 1.610 . S
N1957 S1956 1.613 . S
N1957 C1960 1.350 . S
N1958 S1956 1.610 . S
N1958 C1959 1.351 . S
C1959 C1953 1.428 . S
C1959 N1958 1.351 . S
C1959 C1960 1.434 . S
C1960 C1951 1.429 . S
C1960 N1957 1.350 . S
C1960 C1959 1.434 . S
C1961 C1962 1.369 . S
C1961 C1963 1.419 . S
C1961 H1965 0.930 . S
C1962 C1961 1.369 . S
C1962 C1971 1.429 . S
C1963 C1961 1.419 . S
C1963 C1964 1.363 . S
C1963 H1966 0.929 . S
C1964 C1963 1.363 . S
C1964 C1970 1.428 . S
H1965 C1961 0.930 . S
H1966 C1963 0.929 . S
S1967 N1968 1.613 . S
S1967 N1969 1.610 . S
N1968 S1967 1.613 . S
N1968 C1971 1.350 . S
N1969 S1967 1.610 . S
N1969 C1970 1.351 . S
C1970 C1964 1.428 . S
C1970 N1969 1.351 . S
C1970 C1971 1.434 . S
C1971 C1962 1.429 . S
C1971 N1968 1.350 . S
C1971 C1970 1.434 . S
C1972 C1973 1.369 . S
C1972 C1974 1.419 . S
C1972 H1976 0.930 . S
C1973 C1972 1.369 . S
C1973 C1982 1.429 . S
C1974 C1972 1.419 . S
C1974 C1975 1.363 . S
C1974 H1977 0.929 . S
C1975 C1974 1.363 . S
C1975 C1981 1.428 . S
H1976 C1972 0.930 . S
H1977 C1974 0.929 . S
S1978 N1979 1.613 . S
S1978 N1980 1.610 . S
N1979 S1978 1.613 . S
N1979 C1982 1.350 . S
N1980 S1978 1.610 . S
N1980 C1981 1.351 . S
C1981 C1975 1.428 . S
C1981 N1980 1.351 . S
C1981 C1982 1.434 . S
C1982 C1973 1.429 . S
C1982 N1979 1.350 . S
C1982 C1981 1.434 . S
C1983 C1984 1.369 . S
C1983 C1985 1.419 . S
C1983 H1987 0.930 . S
C1984 C1983 1.369 . S
C1984 C1993 1.429 . S
C1985 C1983 1.419 . S
C1985 C1986 1.363 . S
C1985 H1988 0.929 . S
C1986 C1985 1.363 . S
C1986 C1992 1.428 . S
H1987 C1983 0.930 . S
H1988 C1985 0.929 . S
S1989 N1990 1.613 . S
S1989 N1991 1.610 . S
N1990 S1989 1.613 . S
N1990 C1993 1.350 . S
N1991 S1989 1.610 . S
N1991 C1992 1.351 . S
C1992 C1986 1.428 . S
C1992 N1991 1.351 . S
C1992 C1993 1.434 . S
C1993 C1984 1.429 . S
C1993 N1990 1.350 . S
C1993 C1992 1.434 . S
C1994 C1995 1.369 . S
C1994 C1996 1.419 . S
C1994 H1998 0.930 . S
C1995 C1994 1.369 . S
C1995 C2004 1.429 . S
C1996 C1994 1.419 . S
C1996 C1997 1.363 . S
C1996 H1999 0.929 . S
C1997 C1996 1.363 . S
C1997 C2003 1.428 . S
H1998 C1994 0.930 . S
H1999 C1996 0.929 . S
S2000 N2001 1.613 . S
S2000 N2002 1.610 . S
N2001 S2000 1.613 . S
N2001 C2004 1.350 . S
N2002 S2000 1.610 . S
N2002 C2003 1.351 . S
C2003 C1997 1.428 . S
C2003 N2002 1.351 . S
C2003 C2004 1.434 . S
C2004 C1995 1.429 . S
C2004 N2001 1.350 . S
C2004 C2003 1.434 . S
C2005 C2006 1.369 . S
C2005 C2007 1.419 . S
C2005 H2009 0.930 . S
C2006 C2005 1.369 . S
C2006 C2015 1.429 . S
C2007 C2005 1.419 . S
C2007 C2008 1.363 . S
C2007 H2010 0.929 . S
C2008 C2007 1.363 . S
C2008 C2014 1.428 . S
H2009 C2005 0.930 . S
H2010 C2007 0.929 . S
S2011 N2012 1.613 . S
S2011 N2013 1.610 . S
N2012 S2011 1.613 . S
N2012 C2015 1.350 . S
N2013 S2011 1.610 . S
N2013 C2014 1.351 . S
C2014 C2008 1.428 . S
C2014 N2013 1.351 . S
C2014 C2015 1.434 . S
C2015 C2006 1.429 . S
C2015 N2012 1.350 . S
C2015 C2014 1.434 . S
C2016 C2017 1.369 . S
C2016 C2018 1.419 . S
C2016 H2020 0.930 . S
C2017 C2016 1.369 . S
C2017 C2026 1.429 . S
C2018 C2016 1.419 . S
C2018 C2019 1.363 . S
C2018 H2021 0.929 . S
C2019 C2018 1.363 . S
C2019 C2025 1.428 . S
H2020 C2016 0.930 . S
H2021 C2018 0.929 . S
S2022 N2023 1.613 . S
S2022 N2024 1.610 . S
N2023 S2022 1.613 . S
N2023 C2026 1.350 . S
N2024 S2022 1.610 . S
N2024 C2025 1.351 . S
C2025 C2019 1.428 . S
C2025 N2024 1.351 . S
C2025 C2026 1.434 . S
C2026 C2017 1.429 . S
C2026 N2023 1.350 . S
C2026 C2025 1.434 . S
C2027 C2028 1.369 . S
C2027 C2029 1.419 . S
C2027 H2031 0.930 . S
C2028 C2027 1.369 . S
C2028 C2037 1.429 . S
C2029 C2027 1.419 . S
C2029 C2030 1.363 . S
C2029 H2032 0.929 . S
C2030 C2029 1.363 . S
C2030 C2036 1.428 . S
H2031 C2027 0.930 . S
H2032 C2029 0.929 . S
S2033 N2034 1.613 . S
S2033 N2035 1.610 . S
N2034 S2033 1.613 . S
N2034 C2037 1.350 . S
N2035 S2033 1.610 . S
N2035 C2036 1.351 . S
C2036 C2030 1.428 . S
C2036 N2035 1.351 . S
C2036 C2037 1.434 . S
C2037 C2028 1.429 . S
C2037 N2034 1.350 . S
C2037 C2036 1.434 . S
C2038 C2039 1.369 . S
C2038 C2040 1.419 . S
C2038 H2042 0.930 . S
C2039 C2038 1.369 . S
C2039 C2048 1.429 . S
C2040 C2038 1.419 . S
C2040 C2041 1.363 . S
C2040 H2043 0.929 . S
C2041 C2040 1.363 . S
C2041 C2047 1.428 . S
H2042 C2038 0.930 . S
H2043 C2040 0.929 . S
S2044 N2045 1.613 . S
S2044 N2046 1.610 . S
N2045 S2044 1.613 . S
N2045 C2048 1.350 . S
N2046 S2044 1.610 . S
N2046 C2047 1.351 . S
C2047 C2041 1.428 . S
C2047 N2046 1.351 . S
C2047 C2048 1.434 . S
C2048 C2039 1.429 . S
C2048 N2045 1.350 . S
C2048 C2047 1.434 . S
C2049 C2050 1.369 . S
C2049 C2051 1.419 . S
C2049 H2053 0.930 . S
C2050 C2049 1.369 . S
C2050 C2059 1.429 . S
C2051 C2049 1.419 . S
C2051 C2052 1.363 . S
C2051 H2054 0.929 . S
C2052 C2051 1.363 . S
C2052 C2058 1.428 . S
H2053 C2049 0.930 . S
H2054 C2051 0.929 . S
S2055 N2056 1.613 . S
S2055 N2057 1.610 . S
N2056 S2055 1.613 . S
N2056 C2059 1.350 . S
N2057 S2055 1.610 . S
N2057 C2058 1.351 . S
C2058 C2052 1.428 . S
C2058 N2057 1.351 . S
C2058 C2059 1.434 . S
C2059 C2050 1.429 . S
C2059 N2056 1.350 . S
C2059 C2058 1.434 . S
C2060 C2061 1.369 . S
C2060 C2062 1.419 . S
C2060 H2064 0.930 . S
C2061 C2060 1.369 . S
C2061 C2070 1.429 . S
C2062 C2060 1.419 . S
C2062 C2063 1.363 . S
C2062 H2065 0.929 . S
C2063 C2062 1.363 . S
C2063 C2069 1.428 . S
H2064 C2060 0.930 . S
H2065 C2062 0.929 . S
S2066 N2067 1.613 . S
S2066 N2068 1.610 . S
N2067 S2066 1.613 . S
N2067 C2070 1.350 . S
N2068 S2066 1.610 . S
N2068 C2069 1.351 . S
C2069 C2063 1.428 . S
C2069 N2068 1.351 . S
C2069 C2070 1.434 . S
C2070 C2061 1.429 . S
C2070 N2067 1.350 . S
C2070 C2069 1.434 . S
C2071 C2072 1.369 . S
C2071 C2073 1.419 . S
C2071 H2075 0.930 . S
C2072 C2071 1.369 . S
C2072 C2081 1.429 . S
C2073 C2071 1.419 . S
C2073 C2074 1.363 . S
C2073 H2076 0.929 . S
C2074 C2073 1.363 . S
C2074 C2080 1.428 . S
H2075 C2071 0.930 . S
H2076 C2073 0.929 . S
S2077 N2078 1.613 . S
S2077 N2079 1.610 . S
N2078 S2077 1.613 . S
N2078 C2081 1.350 . S
N2079 S2077 1.610 . S
N2079 C2080 1.351 . S
C2080 C2074 1.428 . S
C2080 N2079 1.351 . S
C2080 C2081 1.434 . S
C2081 C2072 1.429 . S
C2081 N2078 1.350 . S
C2081 C2080 1.434 . S
C2082 C2083 1.369 . S
C2082 C2084 1.419 . S
C2082 H2086 0.930 . S
C2083 C2082 1.369 . S
C2083 C2092 1.429 . S
C2084 C2082 1.419 . S
C2084 C2085 1.363 . S
C2084 H2087 0.929 . S
C2085 C2084 1.363 . S
C2085 C2091 1.428 . S
H2086 C2082 0.930 . S
H2087 C2084 0.929 . S
S2088 N2089 1.613 . S
S2088 N2090 1.610 . S
N2089 S2088 1.613 . S
N2089 C2092 1.350 . S
N2090 S2088 1.610 . S
N2090 C2091 1.351 . S
C2091 C2085 1.428 . S
C2091 N2090 1.351 . S
C2091 C2092 1.434 . S
C2092 C2083 1.429 . S
C2092 N2089 1.350 . S
C2092 C2091 1.434 . S
C2093 C2094 1.369 . S
C2093 C2095 1.419 . S
C2093 H2097 0.930 . S
C2094 C2093 1.369 . S
C2094 C2103 1.429 . S
C2095 C2093 1.419 . S
C2095 C2096 1.363 . S
C2095 H2098 0.929 . S
C2096 C2095 1.363 . S
C2096 C2102 1.428 . S
H2097 C2093 0.930 . S
H2098 C2095 0.929 . S
S2099 N2100 1.613 . S
S2099 N2101 1.610 . S
N2100 S2099 1.613 . S
N2100 C2103 1.350 . S
N2101 S2099 1.610 . S
N2101 C2102 1.351 . S
C2102 C2096 1.428 . S
C2102 N2101 1.351 . S
C2102 C2103 1.434 . S
C2103 C2094 1.429 . S
C2103 N2100 1.350 . S
C2103 C2102 1.434 . S
C2104 C2105 1.369 . S
C2104 C2106 1.419 . S
C2104 H2108 0.930 . S
C2105 C2104 1.369 . S
C2105 C2114 1.429 . S
C2106 C2104 1.419 . S
C2106 C2107 1.363 . S
C2106 H2109 0.929 . S
C2107 C2106 1.363 . S
C2107 C2113 1.428 . S
H2108 C2104 0.930 . S
H2109 C2106 0.929 . S
S2110 N2111 1.613 . S
S2110 N2112 1.610 . S
N2111 S2110 1.613 . S
N2111 C2114 1.350 . S
N2112 S2110 1.610 . S
N2112 C2113 1.351 . S
C2113 C2107 1.428 . S
C2113 N2112 1.351 . S
C2113 C2114 1.434 . S
C2114 C2105 1.429 . S
C2114 N2111 1.350 . S
C2114 C2113 1.434 . S
C2115 C2116 1.369 . S
C2115 C2117 1.419 . S
C2115 H2119 0.930 . S
C2116 C2115 1.369 . S
C2116 C2125 1.429 . S
C2117 C2115 1.419 . S
C2117 C2118 1.363 . S
C2117 H2120 0.929 . S
C2118 C2117 1.363 . S
C2118 C2124 1.428 . S
H2119 C2115 0.930 . S
H2120 C2117 0.929 . S
S2121 N2122 1.613 . S
S2121 N2123 1.610 . S
N2122 S2121 1.613 . S
N2122 C2125 1.350 . S
N2123 S2121 1.610 . S
N2123 C2124 1.351 . S
C2124 C2118 1.428 . S
C2124 N2123 1.351 . S
C2124 C2125 1.434 . S
C2125 C2116 1.429 . S
C2125 N2122 1.350 . S
C2125 C2124 1.434 . S
C2126 C2127 1.369 . S
C2126 C2128 1.419 . S
C2126 H2130 0.930 . S
C2127 C2126 1.369 . S
C2127 C2136 1.429 . S
C2128 C2126 1.419 . S
C2128 C2129 1.363 . S
C2128 H2131 0.929 . S
C2129 C2128 1.363 . S
C2129 C2135 1.428 . S
H2130 C2126 0.930 . S
H2131 C2128 0.929 . S
S2132 N2133 1.613 . S
S2132 N2134 1.610 . S
N2133 S2132 1.613 . S
N2133 C2136 1.350 . S
N2134 S2132 1.610 . S
N2134 C2135 1.351 . S
C2135 C2129 1.428 . S
C2135 N2134 1.351 . S
C2135 C2136 1.434 . S
C2136 C2127 1.429 . S
C2136 N2133 1.350 . S
C2136 C2135 1.434 . S
C2137 C2138 1.369 . S
C2137 C2139 1.419 . S
C2137 H2141 0.930 . S
C2138 C2137 1.369 . S
C2138 C2147 1.429 . S
C2139 C2137 1.419 . S
C2139 C2140 1.363 . S
C2139 H2142 0.929 . S
C2140 C2139 1.363 . S
C2140 C2146 1.428 . S
H2141 C2137 0.930 . S
H2142 C2139 0.929 . S
S2143 N2144 1.613 . S
S2143 N2145 1.610 . S
N2144 S2143 1.613 . S
N2144 C2147 1.350 . S
N2145 S2143 1.610 . S
N2145 C2146 1.351 . S
C2146 C2140 1.428 . S
C2146 N2145 1.351 . S
C2146 C2147 1.434 . S
C2147 C2138 1.429 . S
C2147 N2144 1.350 . S
C2147 C2146 1.434 . S
C2148 C2149 1.369 . S
C2148 C2150 1.419 1_455 S
C2148 H2152 0.948 . S
C2149 C2148 1.369 . S
C2149 C2158 1.429 . S
C2150 C2148 1.419 1_655 S
C2150 C2151 1.363 . S
C2150 H2153 0.929 . S
C2151 C2150 1.363 . S
C2151 C2157 1.455 . S
H2152 C2148 0.948 . S
H2153 C2150 0.929 . S
S2154 N2155 1.613 . S
S2154 N2156 1.610 . S
N2155 S2154 1.613 . S
N2155 C2158 1.350 . S
N2156 S2154 1.610 . S
N2156 C2157 1.339 1_455 S
C2157 C2151 1.455 . S
C2157 N2156 1.339 1_655 S
C2157 C2158 1.416 1_655 S
C2158 C2149 1.429 . S
C2158 N2155 1.350 . S
C2158 C2157 1.416 1_455 S
C2159 C2160 1.369 . S
C2159 C2161 1.419 . S
C2159 H2163 0.930 . S
C2160 C2159 1.369 . S
C2160 C2169 1.429 . S
C2161 C2159 1.419 . S
C2161 C2162 1.363 . S
C2161 H2164 0.929 . S
C2162 C2161 1.363 . S
C2162 C2168 1.428 . S
H2163 C2159 0.930 . S
H2164 C2161 0.929 . S
S2165 N2166 1.613 . S
S2165 N2167 1.610 . S
N2166 S2165 1.613 . S
N2166 C2169 1.350 . S
N2167 S2165 1.610 . S
N2167 C2168 1.351 . S
C2168 C2162 1.428 . S
C2168 N2167 1.351 . S
C2168 C2169 1.434 . S
C2169 C2160 1.429 . S
C2169 N2166 1.350 . S
C2169 C2168 1.434 . S
C2170 C2171 1.369 . S
C2170 C2172 1.419 1_565 S
C2170 H2174 0.930 . S
C2171 C2170 1.369 . S
C2171 C2180 1.429 . S
C2172 C2170 1.419 1_545 S
C2172 C2173 1.363 . S
C2172 H2175 0.929 . S
C2173 C2172 1.363 . S
C2173 C2179 1.428 . S
H2174 C2170 0.930 . S
H2175 C2172 0.929 . S
S2176 N2177 1.613 . S
S2176 N2178 1.573 1_565 S
N2177 S2176 1.613 . S
N2177 C2180 1.350 . S
N2178 S2176 1.573 1_545 S
N2178 C2179 1.368 . S
C2179 C2173 1.428 . S
C2179 N2178 1.368 . S
C2179 C2180 1.434 1_545 S
C2180 C2171 1.429 . S
C2180 N2177 1.350 . S
C2180 C2179 1.434 1_565 S
C2181 C2182 1.369 . S
C2181 C2183 1.419 1_565 S
C2181 H2185 0.930 . S
C2182 C2181 1.369 . S
C2182 C2191 1.429 . S
C2183 C2181 1.419 1_545 S
C2183 C2184 1.363 . S
C2183 H2186 0.929 . S
C2184 C2183 1.363 . S
C2184 C2190 1.428 . S
H2185 C2181 0.930 . S
H2186 C2183 0.929 . S
S2187 N2188 1.613 . S
S2187 N2189 1.610 1_565 S
N2188 S2187 1.613 . S
N2188 C2191 1.350 . S
N2189 S2187 1.610 1_545 S
N2189 C2190 1.351 . S
C2190 C2184 1.428 . S
C2190 N2189 1.351 . S
C2190 C2191 1.434 1_545 S
C2191 C2182 1.429 . S
C2191 N2188 1.350 . S
C2191 C2190 1.434 1_565 S
C2192 C2193 1.369 1_655 S
C2192 C2194 1.419 . S
C2192 H2196 0.930 . S
C2193 C2192 1.369 1_455 S
C2193 C2202 1.429 . S
C2194 C2192 1.419 . S
C2194 C2195 1.363 . S
C2194 H2197 0.929 . S
C2195 C2194 1.363 . S
C2195 C2201 1.428 1_655 S
H2196 C2192 0.930 . S
H2197 C2194 0.929 . S
S2198 N2199 1.613 . S
S2198 N2200 1.610 . S
N2199 S2198 1.613 . S
N2199 C2202 1.350 . S
N2200 S2198 1.610 . S
N2200 C2201 1.351 . S
C2201 C2195 1.428 1_455 S
C2201 N2200 1.351 . S
C2201 C2202 1.434 . S
C2202 C2193 1.429 . S
C2202 N2199 1.350 . S
C2202 C2201 1.434 . S
C2203 C2204 1.369 . S
C2203 C2205 1.419 . S
C2203 H2207 0.930 . S
C2204 C2203 1.369 . S
C2204 C2213 1.429 . S
C2205 C2203 1.419 . S
C2205 C2206 1.363 . S
C2205 H2208 0.929 . S
C2206 C2205 1.363 . S
C2206 C2212 1.428 . S
H2207 C2203 0.930 . S
H2208 C2205 0.929 . S
S2209 N2210 1.613 . S
S2209 N2211 1.610 . S
N2210 S2209 1.613 . S
N2210 C2213 1.350 . S
N2211 S2209 1.610 . S
N2211 C2212 1.351 . S
C2212 C2206 1.428 . S
C2212 N2211 1.351 . S
C2212 C2213 1.434 . S
C2213 C2204 1.429 . S
C2213 N2210 1.350 . S
C2213 C2212 1.434 . S
C1225 C617 1.149 . S
C1227 C5 1.141 . S
C1236 C39 1.147 . S
C1238 C651 1.143 . S
C1247 C685 1.141 . S
C1249 C73 1.147 . S
C1258 C1127 1.149 . S
C1260 C107 1.141 . S
C1269 C1161 1.140 . S
C1271 C141 1.148 . S
C1280 C175 1.141 . S
C1282 C1195 1.148 . S
C1291 C209 1.140 . S
C1293 C821 1.148 . S
C1302 C855 1.145 . S
C1304 C243 1.145 . S
C1313 C277 1.147 . S
C1315 C889 1.143 . S
C1324 C515 1.145 . S
C1326 C311 1.144 . S
C1335 C345 1.148 . S
C1337 C549 1.141 . S
C1346 C583 1.147 . S
C1348 C379 1.143 . S
C1357 C413 1.147 . S
C1359 C1025 1.143 . S
C1368 C447 1.148 . S
C1370 C1059 1.142 . S
C1379 C1093 1.148 . S
C1381 C481 1.141 . S
C1390 C923 1.148 . S
C1392 C719 1.142 . S
C1401 C753 1.144 . S
C1403 C957 1.145 . S
C1412 C991 1.146 . S
C1414 C787 1.143 . S
C1423 C33 1.422 . S
C1425 C247 1.281 . S
C1434 C67 1.423 . S
C1436 C281 1.280 . S
C1445 C101 1.423 . S
C1447 C213 1.282 . S
C1456 C383 1.294 . S
C1458 C135 1.416 . S
C1467 C169 1.415 . S
C1469 C315 1.292 . S
C1478 C203 1.415 . S
C1480 C349 1.292 . S
C1489 C237 1.415 . S
C1491 C43 1.292 . S
C1500 C271 1.416 . S
C1502 C77 1.291 . S
C1511 C9 1.281 . S
C1513 C305 1.421 . S
C1522 C339 1.421 . S
C1524 C179 1.284 . S
C1533 C373 1.416 . S
C1535 C111 1.291 . S
C1544 C407 1.418 . S
C1546 C145 1.287 . S
C1555 C655 1.282 . S
C1557 C441 1.421 . S
C1566 C475 1.423 . S
C1568 C689 1.280 . S
C1577 C509 1.416 . S
C1579 C621 1.292 . S
C1588 C543 1.417 . S
C1590 C791 1.290 . S
C1599 C577 1.423 . S
C1601 C723 1.280 . S
C1610 C757 1.286 . S
C1612 C611 1.420 . S
C1621 C451 1.288 . S
C1623 C645 1.419 . S
C1632 C679 1.422 . S
C1634 C485 1.281 . S
C1643 C417 1.288 . S
C1645 C713 1.419 . S
C1654 C747 1.416 . S
C1656 C587 1.291 . S
C1665 C519 1.281 . S
C1667 C781 1.422 . S
C1676 C553 1.285 . S
C1678 C815 1.420 . S
C1687 C1063 1.293 . S
C1689 C849 1.417 . S
C1698 C1097 1.280 . S
C1700 C883 1.422 . S
C1709 C917 1.419 . S
C1711 C1029 1.285 . S
C1720 C1199 1.278 . S
C1722 C951 1.422 . S
C1731 C1131 1.282 . S
C1733 C985 1.422 . S
C1742 C1019 1.416 . S
C1744 C1165 1.291 . S
C1753 C859 1.284 . S
C1755 C1053 1.420 . S
C1764 C1087 1.423 . S
C1766 C893 1.281 . S
C1775 C1121 1.422 . S
C1777 C825 1.283 . S
C1786 C1155 1.419 . S
C1788 C995 1.286 . S
C1797 C927 1.283 . S
C1799 C1189 1.421 . S
C1808 C961 1.286 . S
C1810 C1223 1.419 . S
C1819 C20 1.575 . S
C1821 C122 1.574 . S
C1830 C54 1.574 . S
C1832 C156 1.575 . S
C1841 C190 1.576 . S
C1843 C88 1.576 . S
C1852 C224 1.576 . S
C1854 C326 1.576 . S
C1863 C360 1.574 . S
C1865 C258 1.576 . S
C1874 C292 1.574 . S
C1876 C394 1.575 . S
C1885 C428 1.576 . S
C1887 C530 1.575 . S
C1896 C462 1.576 . S
C1898 C564 1.576 . S
C1907 C598 1.575 . S
C1909 C496 1.576 . S
C1918 C632 1.574 . S
C1920 C734 1.574 1_554 S
C1929 C666 1.574 . S
C1931 C768 1.576 1_554 S
C1940 C802 1.576 1_554 S
C1942 C700 1.576 . S
C1951 C938 1.576 1_556 S
C1953 C836 1.576 . S
C1962 C972 1.574 1_556 S
C1964 C870 1.575 . S
C1973 C904 1.576 . S
C1975 C1006 1.576 1_556 S
C1984 C1040 1.574 . S
C1986 C1142 1.574 . S
C1995 C1176 1.575 . S
C1997 C1074 1.574 . S
C2006 C1210 1.574 . S
C2008 C1108 1.575 . S
C2017 C2 2.273 . S
C2019 C546 2.266 . S
C2028 C36 2.274 . S
C2030 C580 2.268 . S
C2039 C512 2.268 . S
C2041 C70 2.274 . S
C2050 C104 2.265 . S
C2052 C886 2.267 . S
C2061 C818 2.267 . S
C2063 C138 2.266 . S
C2072 C172 2.269 . S
C2074 C852 2.267 . S
C2083 C206 2.273 . S
C2085 C1158 2.266 . S
C2094 C1192 2.266 . S
C2096 C240 2.275 . S
C2105 C274 2.272 . S
C2107 C1124 2.266 . S
C2116 C682 2.266 . S
C2118 C308 2.266 . S
C2127 C614 2.265 . S
C2129 C342 2.266 . S
C2138 C648 2.267 . S
C2140 C376 2.266 . S
C2149 C954 2.266 . S
C2151 C410 2.266 . S
C2160 C988 2.268 . S
C2162 C444 2.268 . S
C2171 C920 2.268 . S
C2173 C478 2.267 . S
C2182 C1090 2.267 . S
C2184 C716 2.266 . S
C2193 C1022 2.268 . S
C2195 C750 2.266 . S
C2204 C1056 2.266 . S
C2206 C784 2.268 . S
