# Generated by pormake.
# Topology wjt, (5)-cn, num edge types: 1
# Building blocks:
#     Node 0, Type 0, BuildingBlock: XOMCOT_clean_sbu_1, # of connection points: 5
#     Node 1, Type 0, BuildingBlock: XOMCOT_clean_sbu_1, # of connection points: 5
#     Node 2, Type 0, BuildingBlock: XOMCOT_clean_sbu_1, # of connection points: 5
#     Node 3, Type 0, BuildingBlock: XOMCOT_clean_sbu_1, # of connection points: 5
#     Node 4, Type 0, BuildingBlock: XOMCOT_clean_sbu_1, # of connection points: 5
#     Node 5, Type 0, BuildingBlock: XOMCOT_clean_sbu_1, # of connection points: 5
#     Node 6, Type 0, BuildingBlock: XOMCOT_clean_sbu_1, # of connection points: 5
#     Node 7, Type 0, BuildingBlock: XOMCOT_clean_sbu_1, # of connection points: 5
#     Node 8, Type 0, BuildingBlock: XOMCOT_clean_sbu_1, # of connection points: 5
#     Node 9, Type 0, BuildingBlock: XOMCOT_clean_sbu_1, # of connection points: 5
#     Node 10, Type 0, BuildingBlock: XOMCOT_clean_sbu_1, # of connection points: 5
#     Node 11, Type 0, BuildingBlock: XOMCOT_clean_sbu_1, # of connection points: 5
#     Edge 12, Type (0, 0), BuildingBlock: MIFKUJ_clean_linker_0, # of connection points: 2
#     Edge 13, Type (0, 0), BuildingBlock: MIFKUJ_clean_linker_0, # of connection points: 2
#     Edge 14, Type (0, 0), BuildingBlock: MIFKUJ_clean_linker_0, # of connection points: 2
#     Edge 15, Type (0, 0), BuildingBlock: MIFKUJ_clean_linker_0, # of connection points: 2
#     Edge 16, Type (0, 0), BuildingBlock: MIFKUJ_clean_linker_0, # of connection points: 2
#     Edge 17, Type (0, 0), BuildingBlock: MIFKUJ_clean_linker_0, # of connection points: 2
#     Edge 18, Type (0, 0), BuildingBlock: MIFKUJ_clean_linker_0, # of connection points: 2
#     Edge 19, Type (0, 0), BuildingBlock: MIFKUJ_clean_linker_0, # of connection points: 2
#     Edge 20, Type (0, 0), BuildingBlock: MIFKUJ_clean_linker_0, # of connection points: 2
#     Edge 21, Type (0, 0), BuildingBlock: MIFKUJ_clean_linker_0, # of connection points: 2
#     Edge 22, Type (0, 0), BuildingBlock: MIFKUJ_clean_linker_0, # of connection points: 2
#     Edge 23, Type (0, 0), BuildingBlock: MIFKUJ_clean_linker_0, # of connection points: 2
#     Edge 24, Type (0, 0), BuildingBlock: MIFKUJ_clean_linker_0, # of connection points: 2
#     Edge 25, Type (0, 0), BuildingBlock: MIFKUJ_clean_linker_0, # of connection points: 2
#     Edge 26, Type (0, 0), BuildingBlock: MIFKUJ_clean_linker_0, # of connection points: 2
#     Edge 27, Type (0, 0), BuildingBlock: MIFKUJ_clean_linker_0, # of connection points: 2
#     Edge 28, Type (0, 0), BuildingBlock: MIFKUJ_clean_linker_0, # of connection points: 2
#     Edge 29, Type (0, 0), BuildingBlock: MIFKUJ_clean_linker_0, # of connection points: 2
#     Edge 30, Type (0, 0), BuildingBlock: MIFKUJ_clean_linker_0, # of connection points: 2
#     Edge 31, Type (0, 0), BuildingBlock: MIFKUJ_clean_linker_0, # of connection points: 2
#     Edge 32, Type (0, 0), BuildingBlock: MIFKUJ_clean_linker_0, # of connection points: 2
#     Edge 33, Type (0, 0), BuildingBlock: MIFKUJ_clean_linker_0, # of connection points: 2
#     Edge 34, Type (0, 0), BuildingBlock: MIFKUJ_clean_linker_0, # of connection points: 2
#     Edge 35, Type (0, 0), BuildingBlock: MIFKUJ_clean_linker_0, # of connection points: 2
#     Edge 36, Type (0, 0), BuildingBlock: MIFKUJ_clean_linker_0, # of connection points: 2
#     Edge 37, Type (0, 0), BuildingBlock: MIFKUJ_clean_linker_0, # of connection points: 2
#     Edge 38, Type (0, 0), BuildingBlock: MIFKUJ_clean_linker_0, # of connection points: 2
#     Edge 39, Type (0, 0), BuildingBlock: MIFKUJ_clean_linker_0, # of connection points: 2
#     Edge 40, Type (0, 0), BuildingBlock: MIFKUJ_clean_linker_0, # of connection points: 2
#     Edge 41, Type (0, 0), BuildingBlock: MIFKUJ_clean_linker_0, # of connection points: 2
# Relax obj value: 0.211
# Max RMSD: 0.161
# Mean RMSD: 0.161
data_MOF--net-wjt--node1-XOMCOT_clean_sbu_1--edge1-MIFKUJ_clean_linker_0
_symmetry_space_group_name_H-M    P1
_symmetry_Int_Tables_number       1
_symmetry_cell_setting            triclinic
loop_
_symmetry_equiv_pos_as_xyz
'x, y, z'
_cell_length_a     88.230617
_cell_length_b     88.179035
_cell_length_c     21.516139
_cell_angle_alpha  90.026231
_cell_angle_beta   89.998226
_cell_angle_gamma 120.01079
loop_
_atom_site_label
_atom_site_type_symbol
_atom_site_fract_x
_atom_site_fract_y
_atom_site_fract_z
_atom_type_partial_charge
C0 C 0.29226 0.43 0.29287 0.0
C1 C 0.28762 0.42628 0.35423 0.0
N2 N 0.29713 0.41975 0.37955 0.0
N3 N 0.30455 0.42571 0.27907 0.0
C4 C 0.30722 0.41946 0.3328 0.0
H5 H 0.28732 0.43597 0.26107 0.0
Co6 Co 0.31606 0.42981 0.20326 0.0
C7 C 0.32905 0.40428 0.19475 0.0
O8 O 0.34032 0.41369 0.15142 0.0
N9 N 0.3276 0.4344 0.125 0.0
C10 C 0.34639 0.44657 0.04654 0.0
C11 C 0.34366 0.4476 0.10879 0.0
C12 C 0.32097 0.42552 0.07112 0.0
N13 N 0.33207 0.43271 0.02274 0.0
O14 O 0.29377 0.41556 0.16314 0.0
H15 H 0.35304 0.45751 0.13948 0.0
H16 H 0.30806 0.41416 0.06691 0.0
O17 O 0.31876 0.40918 0.21737 0.0
C18 C 0.28814 0.42522 0.14077 0.0
O19 O 0.29828 0.44231 0.14457 0.0
N20 N 0.33724 0.44502 0.24383 0.0
C21 C 0.36803 0.47202 0.296 0.0
C22 C 0.36402 0.45448 0.3001 0.0
C23 C 0.34854 0.44115 0.27387 0.0
C24 C 0.3403 0.46176 0.24318 0.0
C25 C 0.35571 0.47548 0.26776 0.0
H26 H 0.34576 0.42786 0.27878 0.0
H27 H 0.33099 0.46455 0.22073 0.0
H28 H 0.31699 0.41557 0.33824 0.0
H29 H 0.27823 0.4286 0.37848 0.0
H30 H 0.35806 0.45544 0.02085 0.0
H31 H 0.37272 0.45102 0.32354 0.0
H32 H 0.3581 0.4887 0.26273 0.0
C33 C 0.86396 0.31564 0.59336 0.0
C34 C 0.86039 0.31126 0.65516 0.0
N35 N 0.87112 0.30555 0.67556 0.0
N36 N 0.87692 0.31276 0.5752 0.0
C37 C 0.88078 0.30635 0.62579 0.0
H38 H 0.85809 0.32131 0.56425 0.0
Co39 Co 0.88814 0.31842 0.49907 0.0
C40 C 0.91855 0.31383 0.52369 0.0
O41 O 0.91433 0.30303 0.4764 0.0
N42 N 0.89936 0.3241 0.42235 0.0
C43 C 0.91905 0.33587 0.34682 0.0
C44 C 0.91612 0.33621 0.40949 0.0
C45 C 0.89231 0.31685 0.36702 0.0
N46 N 0.90402 0.32365 0.32034 0.0
O47 O 0.87864 0.29384 0.48198 0.0
H48 H 0.92559 0.34471 0.44353 0.0
H49 H 0.87888 0.30662 0.36099 0.0
O50 O 0.90907 0.32054 0.53707 0.0
C51 C 0.86298 0.28751 0.46231 0.0
O52 O 0.85643 0.29801 0.45918 0.0
N53 N 0.8959 0.34211 0.51417 0.0
C54 C 0.90113 0.37558 0.53748 0.0
C55 C 0.90825 0.36807 0.57717 0.0
C56 C 0.90544 0.35125 0.56476 0.0
C57 C 0.88923 0.34931 0.47444 0.0
C58 C 0.89188 0.36608 0.48472 0.0
H59 H 0.91018 0.34528 0.59745 0.0
H60 H 0.88135 0.34175 0.43538 0.0
H61 H 0.89086 0.3028 0.62661 0.0
H62 H 0.85134 0.31314 0.68361 0.0
H63 H 0.93119 0.34415 0.32258 0.0
H64 H 0.91522 0.37474 0.619 0.0
H65 H 0.88637 0.37137 0.45215 0.0
C66 C 0.57102 0.85943 0.92053 0.0
C67 C 0.57403 0.85815 0.98245 0.0
N68 N 0.57914 0.87378 0.00941 0.0
N69 N 0.57426 0.87579 0.90856 0.0
C70 C 0.57922 0.88424 0.96354 0.0
H71 H 0.56616 0.84891 0.88698 0.0
Co72 Co 0.57026 0.88357 0.83395 0.0
C73 C 0.59768 0.92202 0.8253 0.0
O74 O 0.59097 0.92416 0.77394 0.0
N75 N 0.56567 0.89082 0.75686 0.0
C76 C 0.55236 0.89571 0.67778 0.0
C77 C 0.55155 0.89209 0.74019 0.0
C78 C 0.57471 0.89358 0.70322 0.0
N79 N 0.56691 0.89654 0.6546 0.0
O80 O 0.58468 0.87588 0.79271 0.0
H81 H 0.54084 0.88982 0.77035 0.0
H82 H 0.58685 0.89342 0.69966 0.0
O83 O 0.59073 0.90691 0.851 0.0
C84 C 0.57513 0.86147 0.76416 0.0
O85 O 0.55804 0.8546 0.76644 0.0
N86 N 0.55487 0.88922 0.87462 0.0
C87 C 0.52675 0.89224 0.91893 0.0
C88 C 0.5434 0.90713 0.91225 0.0
C89 C 0.55735 0.90536 0.8899 0.0
C90 C 0.53908 0.87457 0.88449 0.0
C91 C 0.52485 0.87576 0.90648 0.0
H92 H 0.56977 0.91704 0.88294 0.0
H93 H 0.53736 0.86189 0.87249 0.0
H94 H 0.58185 0.8975 0.9705 0.0
H95 H 0.57213 0.8465 0.00609 0.0
H96 H 0.54251 0.89671 0.65099 0.0
H97 H 0.54545 0.9201 0.92131 0.0
H98 H 0.51234 0.86389 0.91214 0.0
C99 C 0.7019 0.56002 0.25467 0.0
C100 C 0.70576 0.56207 0.31701 0.0
N101 N 0.70085 0.57312 0.3406 0.0
N102 N 0.69474 0.56986 0.23875 0.0
C103 C 0.69437 0.57773 0.29199 0.0
H104 H 0.70305 0.55089 0.22439 0.0
Co105 Co 0.68378 0.569 0.16423 0.0
C106 C 0.68541 0.60327 0.15641 0.0
O107 O 0.69075 0.60517 0.09845 0.0
N108 N 0.67236 0.56771 0.08927 0.0
C109 C 0.65353 0.56721 0.01937 0.0
C110 C 0.65731 0.56802 0.08164 0.0
C111 C 0.67735 0.56658 0.03099 0.0
N112 N 0.66621 0.56635 0.98752 0.0
O113 O 0.70647 0.58299 0.12575 0.0
H114 H 0.64973 0.56921 0.11875 0.0
H115 H 0.68924 0.56654 0.02015 0.0
O116 O 0.68274 0.58979 0.18714 0.0
C117 C 0.71215 0.57296 0.10758 0.0
O118 O 0.70158 0.55595 0.1119 0.0
N119 N 0.66219 0.5542 0.2018 0.0
C120 C 0.63111 0.52823 0.25415 0.0
C121 C 0.63636 0.54596 0.26237 0.0
C122 C 0.65216 0.55885 0.2365 0.0
C123 C 0.65728 0.53705 0.19361 0.0
C124 C 0.64183 0.52383 0.21969 0.0
H125 H 0.65614 0.57243 0.2442 0.0
H126 H 0.66552 0.53366 0.16672 0.0
H127 H 0.68844 0.58581 0.29581 0.0
H128 H 0.71045 0.55483 0.34359 0.0
H129 H 0.64239 0.56742 -0.00064 0.0
H130 H 0.62843 0.54981 0.28914 0.0
H131 H 0.63814 0.51026 0.21209 0.0
C132 C 0.1465 0.70876 0.61739 0.0
C133 C 0.14757 0.71337 0.67878 0.0
N134 N 0.13135 0.70485 0.70332 0.0
N135 N 0.12968 0.69749 0.60266 0.0
C136 C 0.12071 0.69539 0.65597 0.0
H137 H 0.15745 0.71298 0.58612 0.0
Co138 Co 0.12264 0.68654 0.52566 0.0
C139 C 0.08388 0.66912 0.52192 0.0
O140 O 0.08377 0.65675 0.4877 0.0
N141 N 0.11616 0.67569 0.44564 0.0
C142 C 0.11033 0.65808 0.36388 0.0
C143 C 0.1142 0.66021 0.42608 0.0
C144 C 0.11327 0.68257 0.39364 0.0
N145 N 0.10991 0.67225 0.34306 0.0
O146 O 0.12951 0.70897 0.48856 0.0
H147 H 0.11514 0.65067 0.4545 0.0
H148 H 0.11399 0.69516 0.39251 0.0
O149 O 0.09851 0.68202 0.54015 0.0
C150 C 0.14495 0.71527 0.46663 0.0
O151 O 0.1524 0.70557 0.46912 0.0
N152 N 0.11809 0.66542 0.56348 0.0
C153 C 0.1165 0.63524 0.61215 0.0
C154 C 0.10315 0.63912 0.62426 0.0
C155 C 0.10429 0.6544 0.60017 0.0
C156 C 0.13187 0.66267 0.556 0.0
C157 C 0.13117 0.6475 0.57841 0.0
H158 H 0.09418 0.65732 0.61222 0.0
H159 H 0.14314 0.67199 0.52959 0.0
H160 H 0.1068 0.68646 0.66077 0.0
H161 H 0.15947 0.72206 0.70365 0.0
H162 H 0.10802 0.64684 0.33645 0.0
H163 H 0.09197 0.63055 0.65265 0.0
H164 H 0.14188 0.64527 0.56766 0.0
C165 C 0.45811 0.14935 0.96162 0.0
C166 C 0.45793 0.15358 0.023 0.0
N167 N 0.44285 0.14118 0.04878 0.0
N168 N 0.44324 0.13433 0.94859 0.0
C169 C 0.4341 0.12978 0.00235 0.0
H170 H 0.46862 0.15649 0.92884 0.0
Co171 Co 0.43799 0.12269 0.87219 0.0
C172 C 0.41917 0.08628 0.92859 0.0
O173 O 0.43221 0.08348 0.91836 0.0
N174 N 0.43246 0.11136 0.79439 0.0
C175 C 0.42668 0.09301 0.71517 0.0
C176 C 0.42979 0.09541 0.77793 0.0
C177 C 0.43087 0.11836 0.74053 0.0
N178 N 0.42734 0.10746 0.69176 0.0
O179 O 0.42065 0.1295 0.85782 0.0
H180 H 0.43059 0.08619 0.80839 0.0
H181 H 0.43283 0.13144 0.73663 0.0
O182 O 0.42 0.10064 0.91204 0.0
C183 C 0.42801 0.14573 0.84401 0.0
O184 O 0.44516 0.15479 0.84047 0.0
N185 N 0.45663 0.11788 0.88455 0.0
C186 C 0.48707 0.1158 0.89963 0.0
C187 C 0.47604 0.11321 0.95021 0.0
C188 C 0.46102 0.11448 0.94189 0.0
C189 C 0.46774 0.12122 0.83557 0.0
C190 C 0.48275 0.11981 0.8417 0.0
H191 H 0.45279 0.11251 0.98175 0.0
H192 H 0.46531 0.12547 0.7915 0.0
H193 H 0.42165 0.1179 0.0081 0.0
H194 H 0.46827 0.16479 0.04688 0.0
H195 H 0.42424 0.08156 0.68873 0.0
H196 H 0.47899 0.1102 0.9959 0.0
H197 H 0.49125 0.12247 0.80193 0.0
C198 C 0.54778 0.68775 0.38029 0.0
C199 C 0.54772 0.69208 0.31891 0.0
N200 N 0.56406 0.69858 0.29643 0.0
N201 N 0.56409 0.69154 0.39604 0.0
C202 C 0.57374 0.69825 0.34426 0.0
H203 H 0.5366 0.68175 0.41105 0.0
Co204 Co 0.57088 0.68724 0.47204 0.0
C205 C 0.60643 0.69325 0.44661 0.0
O206 O 0.61281 0.70342 0.4956 0.0
N207 N 0.57748 0.68294 0.54866 0.0
C208 C 0.58578 0.67259 0.62754 0.0
C209 C 0.58268 0.67144 0.56453 0.0
C210 C 0.57733 0.69073 0.60221 0.0
N211 N 0.58238 0.68475 0.65106 0.0
O212 O 0.58485 0.71216 0.48636 0.0
H213 H 0.58392 0.66266 0.53248 0.0
H214 H 0.57355 0.70061 0.60517 0.0
O215 O 0.59026 0.68644 0.43312 0.0
C216 C 0.5754 0.71899 0.49861 0.0
O217 O 0.55832 0.70877 0.50044 0.0
N218 N 0.55627 0.66314 0.45913 0.0
C219 C 0.5303 0.62854 0.43802 0.0
C220 C 0.5444 0.6371 0.3967 0.0
C221 C 0.55733 0.65444 0.40822 0.0
C222 C 0.54278 0.65494 0.50011 0.0
C223 C 0.52977 0.63755 0.49091 0.0
H224 H 0.56771 0.6611 0.37463 0.0
H225 H 0.54182 0.66214 0.53917 0.0
H226 H 0.58754 0.70253 0.34121 0.0
H227 H 0.53638 0.68978 0.29212 0.0
H228 H 0.58975 0.66473 0.65403 0.0
H229 H 0.54518 0.63058 0.35518 0.0
H230 H 0.51893 0.63148 0.52325 0.0
C231 C 0.85782 0.56683 0.6987 0.0
C232 C 0.85757 0.5704 0.63659 0.0
N233 N 0.87424 0.57942 0.61604 0.0
N234 N 0.87456 0.57363 0.71719 0.0
C235 C 0.8842 0.58119 0.66603 0.0
H236 H 0.84651 0.55912 0.72765 0.0
Co237 Co 0.88266 0.57102 0.7933 0.0
C238 C 0.9166 0.60485 0.80806 0.0
O239 O 0.9143 0.60645 0.8674 0.0
N240 N 0.89088 0.56809 0.8716 0.0
C241 C 0.90292 0.56041 0.94766 0.0
C242 C 0.89912 0.55902 0.88535 0.0
C243 C 0.88971 0.57465 0.92718 0.0
N244 N 0.89698 0.57027 0.97379 0.0
O245 O 0.87318 0.58442 0.83062 0.0
H246 H 0.90221 0.55162 0.85298 0.0
H247 H 0.88421 0.58306 0.93358 0.0
O248 O 0.90502 0.59192 0.77705 0.0
C249 C 0.85788 0.57389 0.85137 0.0
O250 O 0.85236 0.55701 0.84873 0.0
N251 N 0.89002 0.55671 0.75502 0.0
C252 C 0.89593 0.53107 0.7033 0.0
C253 C 0.9095 0.54857 0.70696 0.0
C254 C 0.90625 0.56131 0.73237 0.0
C255 C 0.87668 0.53985 0.75118 0.0
C256 C 0.87932 0.52684 0.7255 0.0
H257 H 0.91689 0.57467 0.73503 0.0
H258 H 0.86392 0.53648 0.7691 0.0
H259 H 0.89829 0.58732 0.66511 0.0
H260 H 0.84595 0.56585 0.6083 0.0
H261 H 0.90928 0.55436 0.97196 0.0
H262 H 0.9225 0.55235 0.69045 0.0
H263 H 0.86851 0.51348 0.72459 0.0
C264 C 0.2874 0.85751 0.03151 0.0
C265 C 0.2843 0.85787 0.96891 0.0
N266 N 0.29664 0.87344 0.94609 0.0
N267 N 0.30153 0.87283 0.04777 0.0
C268 C 0.30681 0.88224 0.99491 0.0
H269 H 0.28009 0.84662 0.06269 0.0
Co270 Co 0.31236 0.87941 0.12439 0.0
C271 C 0.30876 0.91166 0.12688 0.0
O272 O 0.29483 0.9049 0.16259 0.0
N273 N 0.32327 0.88599 0.2018 0.0
C274 C 0.33979 0.88885 0.2838 0.0
C275 C 0.3365 0.88381 0.22262 0.0
C276 C 0.3186 0.89213 0.25133 0.0
N277 N 0.32843 0.89396 0.30177 0.0
O278 O 0.28983 0.87111 0.16302 0.0
H279 H 0.34286 0.87819 0.196 0.0
H280 H 0.30767 0.89444 0.2514 0.0
O281 O 0.31581 0.90263 0.11163 0.0
C282 C 0.28476 0.85673 0.19181 0.0
O283 O 0.29508 0.84996 0.19212 0.0
N284 N 0.33409 0.88616 0.08708 0.0
C285 C 0.36666 0.89217 0.04586 0.0
C286 C 0.36454 0.90606 0.06721 0.0
C287 C 0.34814 0.90278 0.08789 0.0
C288 C 0.33575 0.87261 0.06472 0.0
C289 C 0.35189 0.87532 0.04372 0.0
H290 H 0.34702 0.91347 0.10731 0.0
H291 H 0.32459 0.85948 0.06566 0.0
H292 H 0.31817 0.89522 0.99213 0.0
H293 H 0.27425 0.84724 0.94186 0.0
H294 H 0.34901 0.88771 0.31389 0.0
H295 H 0.37553 0.9193 0.06929 0.0
H296 H 0.3529 0.86414 0.02871 0.0
C297 C 0.43439 0.29598 0.4198 0.0
C298 C 0.42964 0.29258 0.35834 0.0
N299 N 0.42213 0.30202 0.34142 0.0
N300 N 0.42982 0.30745 0.44167 0.0
C301 C 0.42239 0.31089 0.39295 0.0
H302 H 0.44136 0.29094 0.44601 0.0
Co303 Co 0.43482 0.31763 0.51968 0.0
C304 C 0.40891 0.32982 0.54076 0.0
O305 O 0.41899 0.34123 0.58275 0.0
N306 N 0.44017 0.32779 0.59958 0.0
C307 C 0.45264 0.34542 0.68069 0.0
C308 C 0.45411 0.34306 0.61834 0.0
C309 C 0.43064 0.32099 0.65198 0.0
N310 N 0.43787 0.33151 0.70161 0.0
O311 O 0.42144 0.29476 0.55624 0.0
H312 H 0.46474 0.35211 0.58914 0.0
H313 H 0.41831 0.3088 0.65349 0.0
O314 O 0.4138 0.31999 0.51415 0.0
C315 C 0.43175 0.28936 0.57353 0.0
O316 O 0.44867 0.29992 0.56632 0.0
N317 N 0.44933 0.33952 0.48217 0.0
C318 C 0.47577 0.37096 0.43258 0.0
C319 C 0.45861 0.36788 0.43833 0.0
C320 C 0.44548 0.35195 0.46253 0.0
C321 C 0.4657 0.34194 0.47375 0.0
C322 C 0.47914 0.35758 0.4495 0.0
H323 H 0.43241 0.34984 0.46466 0.0
H324 H 0.46844 0.3318 0.48808 0.0
H325 H 0.41772 0.32012 0.39486 0.0
H326 H 0.43241 0.28452 0.32775 0.0
H327 H 0.46184 0.35639 0.7087 0.0
H328 H 0.45533 0.37766 0.424 0.0
H329 H 0.49218 0.35935 0.44599 0.0
C330 C 0.14303 0.42831 0.74869 0.0
C331 C 0.14323 0.42435 0.68692 0.0
N332 N 0.12728 0.41922 0.66301 0.0
N333 N 0.12699 0.42551 0.76355 0.0
C334 C 0.1177 0.42004 0.71032 0.0
H335 H 0.15396 0.4331 0.7805 0.0
Co336 Co 0.11994 0.42884 0.84085 0.0
C337 C 0.08109 0.40552 0.84535 0.0
O338 O 0.07989 0.41599 0.88592 0.0
N339 N 0.11319 0.43235 0.92081 0.0
C340 C 0.10842 0.44359 0.00639 0.0
C341 C 0.113 0.44646 0.94469 0.0
C342 C 0.10858 0.42111 0.9693 0.0
N343 N 0.10576 0.42767 0.02187 0.0
O344 O 0.1271 0.41327 0.87599 0.0
H345 H 0.11631 0.45836 0.92008 0.0
H346 H 0.10746 0.40835 0.96634 0.0
O347 O 0.09614 0.40915 0.82448 0.0
C348 C 0.14162 0.42217 0.90454 0.0
O349 O 0.14864 0.43928 0.90674 0.0
N350 N 0.1151 0.44548 0.80569 0.0
C351 C 0.11382 0.47466 0.76149 0.0
C352 C 0.09957 0.45764 0.75319 0.0
C353 C 0.1005 0.44318 0.77526 0.0
C354 C 0.12945 0.46175 0.81017 0.0
C355 C 0.129 0.47651 0.78974 0.0
H356 H 0.08957 0.43032 0.76656 0.0
H357 H 0.14114 0.4633 0.83243 0.0
H358 H 0.10416 0.41671 0.70619 0.0
H359 H 0.15436 0.42567 0.66115 0.0
H360 H 0.10796 0.45289 0.03807 0.0
H361 H 0.08783 0.45543 0.72939 0.0
H362 H 0.14035 0.48927 0.7978 0.0
C363 C 0.72278 0.13849 0.01969 0.0
C364 C 0.72556 0.1357 0.95896 0.0
N365 N 0.71271 0.11967 0.94213 0.0
N366 N 0.70831 0.12423 0.04122 0.0
C367 C 0.70256 0.11294 0.99292 0.0
H368 H 0.73038 0.15055 0.04513 0.0
Co369 Co 0.69767 0.12205 0.11783 0.0
C370 C 0.67923 0.08381 0.14796 0.0
O371 O 0.66785 0.08554 0.18213 0.0
N372 N 0.68732 0.12036 0.19598 0.0
C373 C 0.67186 0.12142 0.27594 0.0
C374 C 0.67453 0.12373 0.21292 0.0
C375 C 0.69233 0.11629 0.24988 0.0
N376 N 0.68311 0.11677 0.29901 0.0
O377 O 0.71977 0.12948 0.15855 0.0
H378 H 0.66757 0.12783 0.18238 0.0
H379 H 0.70239 0.11272 0.25289 0.0
O380 O 0.69166 0.09727 0.12114 0.0
C381 C 0.7268 0.14578 0.17085 0.0
O382 O 0.71827 0.15389 0.15528 0.0
N383 N 0.67666 0.11673 0.07645 0.0
C384 C 0.6467 0.11447 0.02276 0.0
C385 C 0.64852 0.09958 0.02824 0.0
C386 C 0.66361 0.10099 0.05491 0.0
C387 C 0.67582 0.13154 0.06628 0.0
C388 C 0.66086 0.1307 0.04085 0.0
H389 H 0.66466 0.08937 0.05679 0.0
H390 H 0.68653 0.14404 0.08131 0.0
H391 H 0.69076 0.10028 0.99393 0.0
H392 H 0.73546 0.14521 0.92821 0.0
H393 H 0.66267 0.12347 0.30287 0.0
H394 H 0.63836 0.08689 0.01214 0.0
H395 H 0.66024 0.14263 0.03772 0.0
H396 H 0.26891 0.44121 0.1427 0.0
H397 H 0.23939 0.43045 0.10384 0.0
H398 H 0.23671 0.38244 0.04486 0.0
H399 H 0.26658 0.39311 0.08555 0.0
H400 H 0.22601 0.40228 0.95275 0.0
H401 H 0.21272 0.37607 0.15389 0.0
H402 H 0.21618 0.3751 0.26726 0.0
H403 H 0.20343 0.41575 0.29219 0.0
H404 H 0.20022 0.41721 0.17891 0.0
H405 H 0.14207 0.39217 0.87113 0.0
H406 H 0.16195 0.38247 0.91218 0.0
H407 H 0.18245 0.42498 0.04442 0.0
H408 H 0.16282 0.43449 0.00425 0.0
H409 H 0.17946 0.39625 0.09695 0.0
H410 H 0.20138 0.42817 0.90163 0.0
H411 H 0.20022 0.43238 0.78877 0.0
H412 H 0.19847 0.38358 0.75373 0.0
H413 H 0.19934 0.37896 0.86655 0.0
C414 C 0.2621 0.42833 0.12159 0.0
C415 C 0.27006 0.41799 0.1172 0.0
C416 C 0.24518 0.42218 0.09961 0.0
C417 C 0.23583 0.40563 0.07191 0.0
C418 C 0.24372 0.39523 0.06649 0.0
C419 C 0.26069 0.40129 0.08984 0.0
C420 C 0.21795 0.39983 0.04831 0.0
C421 C 0.21554 0.40028 0.98405 0.0
C422 C 0.20448 0.39767 0.08935 0.0
C423 C 0.20627 0.39677 0.15772 0.0
C424 C 0.21078 0.38489 0.18347 0.0
C425 C 0.21268 0.38425 0.24776 0.0
C426 C 0.21004 0.39536 0.2869 0.0
C427 C 0.20546 0.40714 0.26183 0.0
C428 C 0.20357 0.40786 0.19756 0.0
C429 C 0.15056 0.39912 0.90991 0.0
C430 C 0.15103 0.41415 0.93424 0.0
C431 C 0.16197 0.39366 0.93305 0.0
C432 C 0.17384 0.4031 0.98104 0.0
C433 C 0.17344 0.41744 0.0075 0.0
C434 C 0.16226 0.42294 0.98423 0.0
C435 C 0.18776 0.39935 0.00145 0.0
C436 C 0.18952 0.39732 0.06531 0.0
C437 C 0.20072 0.40031 0.96009 0.0
C438 C 0.2001 0.40307 0.89245 0.0
C439 C 0.20055 0.41825 0.86986 0.0
C440 C 0.19998 0.42073 0.80592 0.0
C441 C 0.19918 0.40822 0.76411 0.0
C442 C 0.19901 0.39322 0.78617 0.0
C443 C 0.19952 0.39066 0.8501 0.0
H444 H 0.19876 0.41017 0.71462 0.0
H445 H 0.21152 0.39484 0.33666 0.0
H446 H 0.74401 0.13474 0.25027 0.0
H447 H 0.77204 0.15353 0.30404 0.0
H448 H 0.77667 0.19868 0.20857 0.0
H449 H 0.74914 0.18026 0.15562 0.0
H450 H 0.80776 0.20005 0.21294 0.0
H451 H 0.75938 0.18751 0.35348 0.0
H452 H 0.73352 0.16814 0.41694 0.0
H453 H 0.76389 0.15089 0.51938 0.0
H454 H 0.78987 0.16997 0.45579 0.0
H455 H 0.83695 0.27655 0.37808 0.0
H456 H 0.81915 0.24747 0.33435 0.0
H457 H 0.84739 0.22851 0.44241 0.0
H458 H 0.86582 0.25817 0.48637 0.0
H459 H 0.80566 0.20781 0.44056 0.0
H460 H 0.85641 0.22882 0.31163 0.0
H461 H 0.881 0.25132 0.25037 0.0
H462 H 0.84485 0.25477 0.12571 0.0
H463 H 0.82004 0.23254 0.18685 0.0
C464 C 0.75124 0.14863 0.24023 0.0
C465 C 0.74437 0.15606 0.19909 0.0
C466 C 0.76717 0.15935 0.27106 0.0
C467 C 0.77645 0.17755 0.26046 0.0
C468 C 0.76985 0.18471 0.21739 0.0
C469 C 0.754 0.17414 0.18741 0.0
C470 C 0.79241 0.18972 0.29621 0.0
C471 C 0.80742 0.20156 0.26288 0.0
C472 C 0.79214 0.19153 0.36158 0.0
C473 C 0.77649 0.17996 0.39933 0.0
C474 C 0.76049 0.17945 0.38911 0.0
C475 C 0.74582 0.16855 0.42515 0.0
C476 C 0.74706 0.15827 0.47207 0.0
C477 C 0.76295 0.15884 0.48293 0.0
C478 C 0.77764 0.16968 0.44688 0.0
C479 C 0.83946 0.26627 0.39287 0.0
C480 C 0.85277 0.26965 0.43595 0.0
C481 C 0.82926 0.24963 0.36763 0.0
C482 C 0.83193 0.23586 0.38517 0.0
C483 C 0.84514 0.23902 0.42843 0.0
C484 C 0.85567 0.25592 0.45319 0.0
C485 C 0.82063 0.21841 0.3568 0.0
C486 C 0.80641 0.20573 0.39122 0.0
C487 C 0.82147 0.21596 0.29221 0.0
C488 C 0.83634 0.22901 0.25405 0.0
C489 C 0.85369 0.23443 0.27134 0.0
C490 C 0.86768 0.24715 0.23662 0.0
C491 C 0.8645 0.25449 0.18423 0.0
C492 C 0.84731 0.24908 0.16628 0.0
C493 C 0.83327 0.23638 0.20092 0.0
H494 H 0.87536 0.26436 0.15756 0.0
H495 H 0.73573 0.14995 0.50023 0.0
H496 H 0.60624 0.74115 0.5591 0.0
H497 H 0.61542 0.77089 0.59732 0.0
H498 H 0.57011 0.76834 0.5105 0.0
H499 H 0.56096 0.73892 0.47322 0.0
H500 H 0.59842 0.80059 0.49756 0.0
H501 H 0.56864 0.75794 0.65873 0.0
H502 H 0.56363 0.73458 0.73293 0.0
H503 H 0.61359 0.76813 0.81736 0.0
H504 H 0.61902 0.79164 0.74287 0.0
H505 H 0.56004 0.8399 0.66636 0.0
H506 H 0.56949 0.82164 0.61375 0.0
H507 H 0.616 0.84358 0.72731 0.0
H508 H 0.60646 0.86213 0.78083 0.0
H509 H 0.59719 0.8069 0.72629 0.0
H510 H 0.61987 0.85259 0.57397 0.0
H511 H 0.61888 0.8741 0.50332 0.0
H512 H 0.57637 0.83253 0.40276 0.0
H513 H 0.57684 0.81079 0.47339 0.0
C514 C 0.59853 0.74717 0.54714 0.0
C515 C 0.58287 0.73776 0.51344 0.0
C516 C 0.60371 0.76408 0.56921 0.0
C517 C 0.5934 0.77182 0.55702 0.0
C518 C 0.57832 0.76272 0.52034 0.0
C519 C 0.57306 0.74585 0.49927 0.0
C520 C 0.59712 0.78866 0.58608 0.0
C521 C 0.59834 0.80208 0.54758 0.0
C522 C 0.59725 0.79071 0.65139 0.0
C523 C 0.59435 0.77644 0.69468 0.0
C524 C 0.57867 0.76025 0.69254 0.0
C525 C 0.57572 0.74701 0.73473 0.0
C526 C 0.58828 0.74988 0.77977 0.0
C527 C 0.60389 0.76593 0.78237 0.0
C528 C 0.60691 0.77922 0.74013 0.0
C529 C 0.57242 0.84107 0.67969 0.0
C530 C 0.58248 0.85239 0.72793 0.0
C531 C 0.57788 0.83069 0.64918 0.0
C532 C 0.59355 0.83134 0.66607 0.0
C533 C 0.60393 0.84297 0.71323 0.0
C534 C 0.59852 0.85359 0.74354 0.0
C535 C 0.59791 0.8186 0.6377 0.0
C536 C 0.5981 0.80586 0.67633 0.0
C537 C 0.59852 0.81693 0.57239 0.0
C538 C 0.59842 0.83003 0.52912 0.0
C539 C 0.61026 0.84803 0.53696 0.0
C540 C 0.60979 0.86027 0.49686 0.0
C541 C 0.5976 0.85467 0.44849 0.0
C542 C 0.58585 0.83683 0.44013 0.0
C543 C 0.58623 0.82455 0.48013 0.0
H544 H 0.5972 0.86411 0.4175 0.0
H545 H 0.58581 0.73971 0.81298 0.0
H546 H 0.86161 0.60706 0.84911 0.0
H547 H 0.83976 0.61507 0.88249 0.0
H548 H 0.80538 0.56179 0.94081 0.0
H549 H 0.82674 0.5538 0.90818 0.0
H550 H 0.78871 0.57443 0.86631 0.0
H551 H 0.83011 0.59484 0.04316 0.0
H552 H 0.8594 0.61442 0.08692 0.0
H553 H 0.85601 0.65932 0.03016 0.0
H554 H 0.82681 0.63997 0.98506 0.0
H555 H 0.72867 0.55447 0.09251 0.0
H556 H 0.75623 0.56318 0.0409 0.0
H557 H 0.76376 0.61478 0.00927 0.0
H558 H 0.73567 0.60605 0.06205 0.0
H559 H 0.79583 0.6126 0.04647 0.0
H560 H 0.75106 0.59186 0.89666 0.0
H561 H 0.72155 0.57249 0.85499 0.0
H562 H 0.73126 0.52942 0.85365 0.0
H563 H 0.76059 0.54833 0.89803 0.0
C564 C 0.84944 0.59715 0.8696 0.0
C565 C 0.8459 0.57977 0.87561 0.0
C566 C 0.83696 0.60172 0.88847 0.0
C567 C 0.82084 0.58897 0.91362 0.0
C568 C 0.8176 0.57181 0.92086 0.0
C569 C 0.82993 0.56728 0.9023 0.0
C570 C 0.8069 0.59286 0.93246 0.0
C571 C 0.79029 0.58289 0.90534 0.0
C572 C 0.8091 0.6045 0.98151 0.0
C573 C 0.82641 0.61599 0.01009 0.0
C574 C 0.83567 0.60889 0.03969 0.0
C575 C 0.85225 0.61995 0.06476 0.0
C576 C 0.85959 0.63811 0.0611 0.0
C577 C 0.85032 0.64525 0.03277 0.0
C578 C 0.83377 0.63425 0.00745 0.0
C579 C 0.73613 0.56775 0.07506 0.0
C580 C 0.72981 0.57949 0.08061 0.0
C581 C 0.75198 0.57272 0.04574 0.0
C582 C 0.76195 0.58954 0.02065 0.0
C583 C 0.75622 0.60171 0.02841 0.0
C584 C 0.74018 0.5967 0.05827 0.0
C585 C 0.77752 0.59331 0.98265 0.0
C586 C 0.79435 0.60464 0.00599 0.0
C587 C 0.77558 0.58302 0.92949 0.0
C588 C 0.7581 0.57159 0.90084 0.0
C589 C 0.7469 0.57824 0.88785 0.0
C590 C 0.73017 0.56732 0.86378 0.0
C591 C 0.72455 0.54976 0.8513 0.0
C592 C 0.73565 0.54305 0.86317 0.0
C593 C 0.75234 0.55388 0.88793 0.0
H594 H 0.71159 0.54134 0.83256 0.0
H595 H 0.87244 0.64669 0.08021 0.0
H596 H 0.17995 0.73577 0.47117 0.0
H597 H 0.19805 0.76475 0.42706 0.0
H598 H 0.1519 0.76496 0.36228 0.0
H599 H 0.13338 0.73555 0.40786 0.0
H600 H 0.17984 0.77444 0.27003 0.0
H601 H 0.1723 0.79253 0.46893 0.0
H602 H 0.17013 0.79191 0.58322 0.0
H603 H 0.22352 0.80391 0.59819 0.0
H604 H 0.22596 0.80433 0.48402 0.0
H605 H 0.25412 0.8567 0.16557 0.0
H606 H 0.22518 0.83771 0.21305 0.0
H607 H 0.24833 0.81652 0.33714 0.0
H608 H 0.27685 0.83514 0.29021 0.0
H609 H 0.22492 0.82305 0.39716 0.0
H610 H 0.22894 0.79652 0.2023 0.0
H611 H 0.23099 0.79492 0.08841 0.0
H612 H 0.18397 0.79752 0.06656 0.0
H613 H 0.18184 0.79948 0.1804 0.0
C614 C 0.17356 0.74197 0.44799 0.0
C615 C 0.15525 0.73339 0.44286 0.0
C616 C 0.18395 0.75861 0.42304 0.0
C617 C 0.17634 0.76708 0.39178 0.0
C618 C 0.158 0.75866 0.38659 0.0
C619 C 0.14747 0.74195 0.41277 0.0
C620 C 0.18809 0.78435 0.36271 0.0
C621 C 0.18936 0.78537 0.29766 0.0
C622 C 0.20059 0.79851 0.39885 0.0
C623 C 0.1993 0.79845 0.46774 0.0
C624 C 0.18356 0.79495 0.49655 0.0
C625 C 0.18228 0.79464 0.56136 0.0
C626 C 0.19668 0.79787 0.59794 0.0
C627 C 0.21239 0.80144 0.56979 0.0
C628 C 0.21374 0.80175 0.505 0.0
C629 C 0.25299 0.84817 0.20369 0.0
C630 C 0.26769 0.84729 0.224 0.0
C631 C 0.23647 0.83729 0.23051 0.0
C632 C 0.23457 0.82561 0.27846 0.0
C633 C 0.24944 0.82541 0.30036 0.0
C634 C 0.26575 0.83602 0.27325 0.0
C635 C 0.21721 0.81273 0.30465 0.0
C636 C 0.21495 0.81252 0.36931 0.0
C637 C 0.20388 0.7993 0.26811 0.0
C638 C 0.20542 0.7985 0.19975 0.0
C639 C 0.21918 0.79701 0.17317 0.0
C640 C 0.22033 0.79599 0.10864 0.0
C641 C 0.20768 0.79623 0.07026 0.0
C642 C 0.19382 0.79745 0.09634 0.0
C643 C 0.19265 0.79854 0.16083 0.0
H644 H 0.20855 0.79536 0.02033 0.0
H645 H 0.19566 0.79762 0.6481 0.0
H646 H 0.39818 0.26446 0.60852 0.0
H647 H 0.38876 0.23521 0.65198 0.0
H648 H 0.44177 0.2452 0.63893 0.0
H649 H 0.45112 0.27394 0.59587 0.0
H650 H 0.41959 0.21302 0.60003 0.0
H651 H 0.42624 0.25002 0.77467 0.0
H652 H 0.42003 0.27024 0.83393 0.0
H653 H 0.36587 0.23055 0.84732 0.0
H654 H 0.37174 0.21014 0.7872 0.0
H655 H 0.43339 0.17624 0.89083 0.0
H656 H 0.42428 0.19567 0.84483 0.0
H657 H 0.39259 0.15561 0.71161 0.0
H658 H 0.40175 0.13598 0.7584 0.0
H659 H 0.3964 0.19853 0.81501 0.0
H660 H 0.40322 0.17776 0.56528 0.0
H661 H 0.41706 0.1633 0.50976 0.0
H662 H 0.45439 0.17697 0.65753 0.0
H663 H 0.44117 0.19199 0.71277 0.0
C664 C 0.40774 0.26032 0.61472 0.0
C665 C 0.4254 0.27156 0.59894 0.0
C666 C 0.40237 0.24364 0.63952 0.0
C667 C 0.41456 0.23798 0.64852 0.0
C668 C 0.43208 0.24916 0.6319 0.0
C669 C 0.43743 0.26571 0.60766 0.0
C670 C 0.40968 0.22084 0.67767 0.0
C671 C 0.4141 0.2096 0.64646 0.0
C672 C 0.40293 0.21661 0.73878 0.0
C673 C 0.39937 0.22865 0.77583 0.0
C674 C 0.41298 0.24564 0.78992 0.0
C675 C 0.40954 0.25713 0.82365 0.0
C676 C 0.39256 0.25169 0.84415 0.0
C677 C 0.379 0.23474 0.83122 0.0
C678 C 0.38238 0.2232 0.79732 0.0
C679 C 0.42392 0.17134 0.85334 0.0
C680 C 0.4182 0.15466 0.8282 0.0
C681 C 0.41868 0.18244 0.82709 0.0
C682 C 0.40789 0.17721 0.77429 0.0
C683 C 0.40096 0.15994 0.75224 0.0
C684 C 0.40607 0.14869 0.77918 0.0
C685 C 0.40655 0.1908 0.7376 0.0
C686 C 0.40105 0.20143 0.76744 0.0
C687 C 0.41311 0.19497 0.67608 0.0
C688 C 0.42093 0.18564 0.64381 0.0
C689 C 0.41435 0.17763 0.58595 0.0
C690 C 0.42215 0.16942 0.55439 0.0
C691 C 0.43653 0.16913 0.58031 0.0
C692 C 0.4432 0.17712 0.63766 0.0
C693 C 0.43557 0.1855 0.66907 0.0
H694 H 0.44257 0.1628 0.55589 0.0
H695 H 0.38995 0.26062 0.87018 0.0
H696 H 0.51191 0.61759 0.32997 0.0
H697 H 0.48519 0.58976 0.31001 0.0
H698 H 0.48859 0.5717 0.4932 0.0
H699 H 0.51492 0.59991 0.51415 0.0
H700 H 0.47587 0.55764 0.30094 0.0
H701 H 0.44849 0.54498 0.55217 0.0
H702 H 0.45015 0.56174 0.64634 0.0
H703 H 0.46207 0.60665 0.53431 0.0
H704 H 0.46025 0.59009 0.43949 0.0
H705 H 0.40026 0.47414 0.29628 0.0
H706 H 0.42835 0.49886 0.32718 0.0
H707 H 0.40306 0.52845 0.37378 0.0
H708 H 0.37475 0.50332 0.34818 0.0
H709 H 0.42704 0.53627 0.45236 0.0
H710 H 0.42528 0.53288 0.23012 0.0
H711 H 0.42188 0.51898 0.12764 0.0
H712 H 0.46526 0.51127 0.16716 0.0
H713 H 0.46878 0.52493 0.27026 0.0
C714 C 0.50705 0.60758 0.36566 0.0
C715 C 0.5154 0.6109 0.4237 0.0
C716 C 0.49177 0.59167 0.35427 0.0
C717 C 0.48463 0.57867 0.40044 0.0
C718 C 0.49353 0.58165 0.45735 0.0
C719 C 0.50862 0.59771 0.4692 0.0
C720 C 0.46759 0.56235 0.38953 0.0
C721 C 0.46523 0.55295 0.33423 0.0
C722 C 0.45349 0.55633 0.43218 0.0
C723 C 0.45444 0.56635 0.48886 0.0
C724 C 0.45142 0.55842 0.54767 0.0
C725 C 0.45239 0.56788 0.60114 0.0
C726 C 0.45628 0.58527 0.59632 0.0
C727 C 0.45912 0.5932 0.538 0.0
C728 C 0.45814 0.58379 0.48439 0.0
C729 C 0.40053 0.48572 0.31451 0.0
C730 C 0.3851 0.48668 0.31886 0.0
C731 C 0.41672 0.5 0.3313 0.0
C732 C 0.41797 0.51576 0.35133 0.0
C733 C 0.40254 0.51654 0.35797 0.0
C734 C 0.38631 0.50216 0.34239 0.0
C735 C 0.4353 0.5316 0.36363 0.0
C736 C 0.43773 0.54088 0.41928 0.0
C737 C 0.44921 0.53792 0.32011 0.0
C738 C 0.44717 0.52975 0.25813 0.0
C739 C 0.43402 0.52811 0.21711 0.0
C740 C 0.43208 0.52029 0.1589 0.0
C741 C 0.44332 0.5142 0.14097 0.0
C742 C 0.45655 0.51596 0.18116 0.0
C743 C 0.45853 0.52375 0.23947 0.0
H744 H 0.4418 0.50815 0.09589 0.0
H745 H 0.45704 0.59258 0.63778 0.0
H746 H 0.87474 0.50393 0.62641 0.0
H747 H 0.87796 0.47897 0.59635 0.0
H748 H 0.92726 0.50144 0.69352 0.0
H749 H 0.92403 0.52643 0.72453 0.0
H750 H 0.92758 0.48584 0.57968 0.0
H751 H 0.8924 0.47102 0.76428 0.0
H752 H 0.86803 0.46816 0.82897 0.0
H753 H 0.83098 0.4326 0.69602 0.0
H754 H 0.85515 0.43546 0.63003 0.0
H755 H 0.92879 0.4051 0.58921 0.0
H756 H 0.92998 0.43264 0.61648 0.0
H757 H 0.8776 0.41244 0.54578 0.0
H758 H 0.87597 0.38473 0.5215 0.0
H759 H 0.88051 0.42774 0.65179 0.0
H760 H 0.91511 0.4431 0.46496 0.0
H761 H 0.93916 0.44625 0.3977 0.0
H762 H 0.97685 0.48064 0.53144 0.0
H763 H 0.95301 0.4775 0.59991 0.0
C764 C 0.88629 0.5036 0.64131 0.0
C765 C 0.899 0.51705 0.67869 0.0
C766 C 0.88815 0.48936 0.62389 0.0
C767 C 0.90271 0.48821 0.64357 0.0
C768 C 0.9159 0.50205 0.67797 0.0
C769 C 0.91405 0.51634 0.69552 0.0
C770 C 0.90354 0.47206 0.6313 0.0
C771 C 0.91743 0.47314 0.59609 0.0
C772 C 0.89016 0.45548 0.652 0.0
C773 C 0.87559 0.45357 0.69197 0.0
C774 C 0.87906 0.46268 0.74863 0.0
C775 C 0.86528 0.46105 0.78555 0.0
C776 C 0.84797 0.45024 0.76655 0.0
C777 C 0.8444 0.44099 0.71065 0.0
C778 C 0.85813 0.4426 0.67349 0.0
C779 C 0.91749 0.40648 0.57982 0.0
C780 C 0.90233 0.39267 0.55264 0.0
C781 C 0.91826 0.42232 0.59483 0.0
C782 C 0.90396 0.42474 0.58248 0.0
C783 C 0.88884 0.41096 0.55557 0.0
C784 C 0.88801 0.39514 0.54099 0.0
C785 C 0.90438 0.44136 0.59888 0.0
C786 C 0.89072 0.4404 0.63533 0.0
C787 C 0.91793 0.45799 0.57898 0.0
C788 C 0.93227 0.45991 0.53785 0.0
C789 C 0.92853 0.45122 0.48025 0.0
C790 C 0.94212 0.45303 0.44187 0.0
C791 C 0.95952 0.4636 0.46037 0.0
C792 C 0.96336 0.47243 0.51722 0.0
C793 C 0.94982 0.47065 0.55581 0.0
H794 H 0.97002 0.46498 0.43059 0.0
H795 H 0.83732 0.44899 0.7952 0.0
H796 H 0.49445 0.87486 0.86539 0.0
H797 H 0.46886 0.87758 0.88848 0.0
H798 H 0.49811 0.9163 0.02874 0.0
H799 H 0.52384 0.91336 0.00666 0.0
H800 H 0.46498 0.89195 0.0684 0.0
H801 H 0.49041 0.92918 0.89216 0.0
H802 H 0.503 0.937 0.78687 0.0
H803 H 0.45471 0.89675 0.7089 0.0
H804 H 0.4419 0.8885 0.81385 0.0
H805 H 0.39786 0.91328 0.10484 0.0
H806 H 0.42636 0.91617 0.08314 0.0
H807 H 0.40386 0.8796 0.93125 0.0
H808 H 0.37545 0.8772 0.95099 0.0
H809 H 0.43537 0.90581 0.9001 0.0
H810 H 0.4108 0.86694 0.0751 0.0
H811 H 0.39801 0.85829 0.17991 0.0
H812 H 0.44445 0.9009 0.25956 0.0
H813 H 0.45743 0.90995 0.15506 0.0
C814 C 0.49543 0.88383 0.90168 0.0
C815 C 0.51119 0.89385 0.93437 0.0
C816 C 0.48082 0.8855 0.91435 0.0
C817 C 0.48163 0.8973 0.95977 0.0
C818 C 0.49724 0.90718 0.99325 0.0
C819 C 0.51194 0.90556 0.98038 0.0
C820 C 0.46604 0.8991 0.9722 0.0
C821 C 0.45868 0.89531 0.03193 0.0
C822 C 0.45762 0.90313 0.92425 0.0
C823 C 0.46524 0.90813 0.86097 0.0
C824 C 0.48251 0.9219 0.85262 0.0
C825 C 0.48969 0.92643 0.79298 0.0
C826 C 0.47967 0.91736 0.74123 0.0
C827 C 0.46245 0.90376 0.74902 0.0
C828 C 0.45522 0.89916 0.80858 0.0
C829 C 0.39902 0.90611 0.06601 0.0
C830 C 0.3843 0.89493 0.02982 0.0
C831 C 0.41531 0.90762 0.05414 0.0
C832 C 0.41721 0.89787 0.00624 0.0
C833 C 0.4027 0.88718 0.9687 0.0
C834 C 0.38642 0.88571 0.98038 0.0
C835 C 0.43415 0.89841 0.99612 0.0
C836 C 0.44176 0.90263 0.93677 0.0
C837 C 0.44275 0.8947 0.04437 0.0
C838 C 0.435 0.88924 0.10722 0.0
C839 C 0.41823 0.87454 0.11493 0.0
C840 C 0.41095 0.86956 0.17428 0.0
C841 C 0.42039 0.87907 0.22635 0.0
C842 C 0.43715 0.89356 0.21917 0.0
C843 C 0.44447 0.89862 0.1599 0.0
H844 H 0.41474 0.87518 0.27226 0.0
H845 H 0.48525 0.92088 0.6951 0.0
H846 H 0.59855 0.5239 0.23751 0.0
H847 H 0.57048 0.49893 0.27078 0.0
H848 H 0.59795 0.47609 0.36126 0.0
H849 H 0.62597 0.50088 0.32739 0.0
H850 H 0.55831 0.46339 0.23841 0.0
H851 H 0.57475 0.45602 0.49201 0.0
H852 H 0.59222 0.47471 0.57953 0.0
H853 H 0.58661 0.51714 0.50853 0.0
H854 H 0.56918 0.49874 0.42062 0.0
H855 H 0.5024 0.37734 0.35214 0.0
H856 H 0.52739 0.4057 0.32359 0.0
H857 H 0.50684 0.43192 0.43534 0.0
H858 H 0.48203 0.40356 0.46545 0.0
H859 H 0.54126 0.44497 0.45721 0.0
H860 H 0.50455 0.43241 0.27727 0.0
H861 H 0.4865 0.41455 0.1894 0.0
H862 H 0.5308 0.41333 0.11265 0.0
H863 H 0.54909 0.43106 0.2004 0.0
C864 C 0.59855 0.51365 0.26526 0.0
C865 C 0.61435 0.51422 0.2798 0.0
C866 C 0.58256 0.49939 0.28389 0.0
C867 C 0.58217 0.4857 0.31843 0.0
C868 C 0.59798 0.48657 0.33487 0.0
C869 C 0.61394 0.50067 0.3154 0.0
C870 C 0.56526 0.47 0.33454 0.0
C871 C 0.55451 0.45938 0.28622 0.0
C872 C 0.56028 0.46489 0.39686 0.0
C873 C 0.57077 0.47604 0.44958 0.0
C874 C 0.57724 0.46933 0.49517 0.0
C875 C 0.58717 0.47989 0.54476 0.0
C876 C 0.59057 0.49712 0.5495 0.0
C877 C 0.58405 0.50383 0.50467 0.0
C878 C 0.57422 0.49337 0.45481 0.0
C879 C 0.5032 0.38914 0.37066 0.0
C880 C 0.49024 0.38819 0.41115 0.0
C881 C 0.51743 0.40535 0.35391 0.0
C882 C 0.51894 0.42095 0.37704 0.0
C883 C 0.50593 0.42006 0.41691 0.0
C884 C 0.49167 0.40385 0.43359 0.0
C885 C 0.53436 0.43815 0.36101 0.0
C886 C 0.54493 0.44901 0.40936 0.0
C887 C 0.53909 0.44354 0.29862 0.0
C888 C 0.52815 0.43297 0.24561 0.0
C889 C 0.51041 0.42824 0.24185 0.0
C890 C 0.50015 0.41816 0.19202 0.0
C891 C 0.50749 0.41278 0.14552 0.0
C892 C 0.52513 0.4175 0.1487 0.0
C893 C 0.53546 0.4276 0.1984 0.0
H894 H 0.49953 0.40498 0.10694 0.0
H895 H 0.59826 0.50528 0.58791 0.0
H896 H 0.08521 0.47934 0.76358 0.0
H897 H 0.0842 0.50582 0.73772 0.0
H898 H 0.1392 0.53255 0.69381 0.0
H899 H 0.14024 0.50596 0.71584 0.0
H900 H 0.12674 0.54997 0.78358 0.0
H901 H 0.1153 0.52277 0.57974 0.0
H902 H 0.0991 0.49851 0.50594 0.0
H903 H 0.05175 0.49918 0.54587 0.0
H904 H 0.06764 0.5233 0.62066 0.0
H905 H 0.14289 0.6294 0.6508 0.0
H906 H 0.14084 0.60161 0.67657 0.0
H907 H 0.08481 0.57522 0.65228 0.0
H908 H 0.0869 0.6028 0.62127 0.0
H909 H 0.09581 0.55644 0.60191 0.0
H910 H 0.10556 0.58349 0.80032 0.0
H911 H 0.11987 0.60671 0.87921 0.0
H912 H 0.16747 0.60513 0.85876 0.0
H913 H 0.15352 0.58206 0.77909 0.0
C914 C 0.09704 0.49068 0.74709 0.0
C915 C 0.11284 0.49043 0.7423 0.0
C916 C 0.09644 0.50586 0.73287 0.0
C917 C 0.11165 0.52112 0.71434 0.0
C918 C 0.12736 0.52091 0.70865 0.0
C919 C 0.12792 0.50569 0.72173 0.0
C920 C 0.11134 0.53748 0.70223 0.0
C921 C 0.12015 0.55152 0.74358 0.0
C922 C 0.10214 0.53913 0.65141 0.0
C923 C 0.09261 0.52469 0.60633 0.0
C924 C 0.1014 0.51762 0.57326 0.0
C925 C 0.09228 0.50393 0.53114 0.0
C926 C 0.07439 0.49727 0.52137 0.0
C927 C 0.0656 0.50433 0.55357 0.0
C928 C 0.07466 0.51802 0.59579 0.0
C929 C 0.13012 0.61771 0.65018 0.0
C930 C 0.11508 0.61846 0.63348 0.0
C931 C 0.12893 0.60179 0.66605 0.0
C932 C 0.11263 0.58627 0.66745 0.0
C933 C 0.09755 0.58699 0.65179 0.0
C934 C 0.09875 0.60287 0.6348 0.0
C935 C 0.11146 0.56925 0.68292 0.0
C936 C 0.10234 0.555 0.64231 0.0
C937 C 0.12008 0.56728 0.7353 0.0
C938 C 0.12853 0.58114 0.78332 0.0
C939 C 0.11912 0.58818 0.81231 0.0
C940 C 0.12716 0.6013 0.85722 0.0
C941 C 0.14458 0.60742 0.87388 0.0
C942 C 0.15398 0.60039 0.84576 0.0
C943 C 0.14601 0.58727 0.80077 0.0
H944 H 0.15078 0.61758 0.90867 0.0
H945 H 0.06736 0.48666 0.48873 0.0
H946 H 0.61325 0.08748 0.04284 0.0
H947 H 0.58583 0.08564 0.01236 0.0
H948 H 0.6144 0.1368 0.92819 0.0
H949 H 0.64193 0.13817 0.95413 0.0
H950 H 0.57201 0.10316 0.04821 0.0
H951 H 0.59108 0.14231 0.81608 0.0
H952 H 0.61021 0.14726 0.72568 0.0
H953 H 0.60781 0.0981 0.7591 0.0
H954 H 0.58847 0.09275 0.84914 0.0
H955 H 0.51198 0.13154 0.98933 0.0
H956 H 0.53869 0.13004 0.00327 0.0
H957 H 0.52534 0.09629 0.84291 0.0
H958 H 0.49885 0.09828 0.82767 0.0
H959 H 0.55859 0.1181 0.84087 0.0
H960 H 0.51915 0.08015 0.99503 0.0
H961 H 0.49825 0.07145 0.08208 0.0
H962 H 0.53817 0.11092 0.19773 0.0
H963 H 0.55925 0.12002 0.11107 0.0
C964 C 0.61379 0.09816 0.01626 0.0
C965 C 0.62994 0.11298 0.00097 0.0
C966 C 0.59802 0.09717 -0.00047 0.0
C967 C 0.59796 0.11103 0.96764 0.0
C968 C 0.61403 0.12578 0.95182 0.0
C969 C 0.62982 0.12666 0.96763 0.0
C970 C 0.58111 0.11041 0.95402 0.0
C971 C 0.56909 0.10637 0.00274 0.0
C972 C 0.57703 0.11424 0.89444 0.0
C973 C 0.58845 0.11722 0.83974 0.0
C974 C 0.59456 0.13252 0.80396 0.0
C975 C 0.60546 0.1354 0.75281 0.0
C976 C 0.61027 0.12303 0.73678 0.0
C977 C 0.60413 0.10771 0.77171 0.0
C978 C 0.59322 0.10475 0.82285 0.0
C979 C 0.51473 0.12376 0.95723 0.0
C980 C 0.50329 0.1149 0.90776 0.0
C981 C 0.52998 0.12288 0.96524 0.0
C982 C 0.5339 0.11277 0.92485 0.0
C983 C 0.52261 0.10414 0.87475 0.0
C984 C 0.50748 0.10526 0.86613 0.0
C985 C 0.5497 0.11113 0.93534 0.0
C986 C 0.56151 0.11479 0.88616 0.0
C987 C 0.55333 0.10637 0.99396 0.0
C988 C 0.54074 0.10086 0.04639 0.0
C989 C 0.52344 0.08705 0.03891 0.0
C990 C 0.51156 0.08204 0.08819 0.0
C991 C 0.51687 0.09065 0.14536 0.0
C992 C 0.53408 0.10427 0.1534 0.0
C993 C 0.546 0.10935 0.10424 0.0
H994 H 0.50766 0.08675 0.18345 0.0
H995 H 0.61872 0.12529 0.69722 0.0
H996 H 0.35564 0.39742 0.17977 0.0
H997 H 0.3617 0.37791 0.24003 0.0
H998 H 0.31345 0.3599 0.3414 0.0
H999 H 0.3078 0.38046 0.28305 0.0
H1000 H 0.33604 0.36446 0.41922 0.0
H1001 H 0.32101 0.33294 0.23247 0.0
H1002 H 0.31991 0.32705 0.12007 0.0
H1003 H 0.37487 0.34441 0.12023 0.0
H1004 H 0.3764 0.3507 0.23238 0.0
H1005 H 0.38242 0.30696 0.4636 0.0
H1006 H 0.36068 0.31191 0.41045 0.0
H1007 H 0.38248 0.36258 0.49853 0.0
H1008 H 0.40318 0.35721 0.55421 0.0
H1009 H 0.36373 0.33255 0.32819 0.0
H1010 H 0.3572 0.37906 0.50837 0.0
H1011 H 0.35439 0.38059 0.6219 0.0
H1012 H 0.33441 0.32525 0.63662 0.0
H1013 H 0.337 0.32331 0.52318 0.0
C1014 C 0.34611 0.38914 0.21414 0.0
C1015 C 0.33118 0.3905 0.22634 0.0
C1016 C 0.34955 0.37779 0.24843 0.0
C1017 C 0.33789 0.36702 0.29466 0.0
C1018 C 0.32266 0.36797 0.30588 0.0
C1019 C 0.31938 0.37967 0.27227 0.0
C1020 C 0.34259 0.35608 0.33427 0.0
C1021 C 0.34188 0.35729 0.39921 0.0
C1022 C 0.34959 0.34604 0.30871 0.0
C1023 C 0.34881 0.34236 0.24099 0.0
C1024 C 0.3329 0.33562 0.2085 0.0
C1025 C 0.3322 0.3322 0.14479 0.0
C1026 C 0.34731 0.33537 0.11302 0.0
C1027 C 0.36317 0.34196 0.1449 0.0
C1028 C 0.36395 0.34543 0.20859 0.0
C1029 C 0.38221 0.31894 0.47275 0.0
C1030 C 0.39444 0.33161 0.51353 0.0
C1031 C 0.36984 0.32182 0.44211 0.0
C1032 C 0.36963 0.33754 0.45093 0.0
C1033 C 0.38178 0.35006 0.49228 0.0
C1034 C 0.3938 0.34702 0.5239 0.0
C1035 C 0.35807 0.34179 0.41293 0.0
C1036 C 0.35749 0.33932 0.34828 0.0
C1037 C 0.3492 0.34999 0.43889 0.0
C1038 C 0.34736 0.35106 0.50716 0.0
C1039 C 0.35208 0.36718 0.53571 0.0
C1040 C 0.35056 0.36814 0.60008 0.0
C1041 C 0.34421 0.35304 0.6364 0.0
C1042 C 0.33936 0.33695 0.60844 0.0
C1043 C 0.34089 0.33592 0.54412 0.0
H1044 H 0.34304 0.35382 0.68623 0.0
H1045 H 0.34674 0.33271 0.06371 0.0
H1046 H 0.04756 0.39575 0.87692 0.0
H1047 H 0.02087 0.37609 0.82154 0.0
H1048 H 0.05049 0.36415 0.69066 0.0
H1049 H 0.07762 0.38446 0.74523 0.0
H1050 H 0.02849 0.37059 0.63061 0.0
H1051 H 0.02222 0.33337 0.7999 0.0
H1052 H 0.02206 0.32496 0.90926 0.0
H1053 H 0.98026 0.33509 0.94941 0.0
H1054 H 0.98032 0.3438 0.8405 0.0
H1055 H 0.94612 0.30933 0.49119 0.0
H1056 H 0.9743 0.32087 0.54469 0.0
H1057 H 0.95676 0.34318 0.68642 0.0
H1058 H 0.92862 0.33163 0.63365 0.0
H1059 H 0.97373 0.3273 0.73589 0.0
H1060 H 0.98282 0.36765 0.5682 0.0
H1061 H 0.98349 0.37636 0.45891 0.0
H1062 H 0.02057 0.35988 0.41552 0.0
H1063 H 0.01985 0.35075 0.52442 0.0
C1064 C 0.04848 0.38881 0.83684 0.0
C1065 C 0.0648 0.39173 0.81559 0.0
C1066 C 0.0331 0.37742 0.80533 0.0
C1067 C 0.03354 0.36837 0.75229 0.0
C1068 C 0.04978 0.37091 0.73162 0.0
C1069 C 0.06527 0.38245 0.76306 0.0
C1070 C 0.01712 0.35727 0.71673 0.0
C1071 C 0.01662 0.36081 0.65334 0.0
C1072 C 1.00151 0.34466 0.7464 0.0
C1073 C 1.00135 0.33933 0.812 0.0
C1074 C 0.01306 0.33391 0.83211 0.0
C1075 C 0.01298 0.32908 0.89404 0.0
C1076 C 1.00118 0.32951 0.93627 0.0
C1077 C 0.9894 0.33475 0.91664 0.0
C1078 C 0.98943 0.33961 0.85478 0.0
C1079 C 0.94821 0.31656 0.53405 0.0
C1080 C 0.93515 0.31966 0.55793 0.0
C1081 C 0.96436 0.32322 0.56437 0.0
C1082 C 0.96772 0.33305 0.61921 0.0
C1083 C 0.95449 0.33567 0.6441 0.0
C1084 C 0.93842 0.32912 0.6137 0.0
C1085 C 0.98506 0.34099 0.65047 0.0
C1086 C 0.9857 0.33683 0.71301 0.0
C1087 C 1.0008 0.35294 0.6199 0.0
C1088 C 1.00107 0.35827 0.55429 0.0
C1089 C 0.99095 0.36568 0.53523 0.0
C1090 C 0.99137 0.37073 0.47336 0.0
C1091 C 1.002 0.3686 0.43024 0.0
C1092 C 0.01228 0.36146 0.44893 0.0
C1093 C 0.01186 0.35633 0.5107 0.0
H1094 H 0.00232 0.37254 0.38239 0.0
H1095 H 1.00114 0.32577 0.9842 0.0
H1096 H 0.70061 0.07308 0.09413 0.0
H1097 H 0.69174 0.04419 0.04977 0.0
H1098 H 0.63836 0.02614 0.1053 0.0
H1099 H 0.64734 0.05428 0.15313 0.0
H1100 H 0.64227 1.00052 0.11458 0.0
H1101 H 0.65512 0.04173 0.94782 0.0
H1102 H 0.67379 0.06917 0.89133 0.0
H1103 H 0.71274 0.0541 0.86553 0.0
H1104 H 0.69411 0.0264 0.92163 0.0
H1105 H 0.60942 0.95609 0.7952 0.0
H1106 H 0.62757 0.98198 0.85671 0.0
H1107 H 0.63467 0.95027 0.99354 0.0
H1108 H 0.61552 0.92391 0.9331 0.0
H1109 H 0.65818 0.99981 0.89405 0.0
H1110 H 0.63874 0.96913 0.14116 0.0
H1111 H 0.61429 0.94417 0.1948 0.0
H1112 H 0.57906 0.94036 0.04999 0.0
H1113 H 0.60315 0.96572 0.99672 0.0
C1114 C 0.68707 0.06279 0.09785 0.0
C1115 C 0.6747 0.06601 0.12702 0.0
C1116 C 0.68195 0.04631 0.07198 0.0
C1117 C 0.66425 0.03296 0.0727 0.0
C1118 C 0.65209 0.03605 0.10404 0.0
C1119 C 0.65727 0.05228 0.13134 0.0
C1120 C 0.65794 0.01618 0.0378 0.0
C1121 C 0.64589 1.00035 0.0665 0.0
C1122 C 0.66233 0.01585 0.97468 0.0
C1123 C 0.67334 0.03213 0.9393 0.0
C1124 C 0.66767 0.04429 0.93005 0.0
C1125 C 0.67825 0.05989 0.89813 0.0
C1126 C 0.69452 0.06346 0.87516 0.0
C1127 C 0.70016 0.05134 0.88358 0.0
C1128 C 0.68956 0.03565 0.91513 0.0
C1129 C 0.61492 0.95453 0.83808 0.0
C1130 C 0.61082 0.93783 0.85942 0.0
C1131 C 0.62545 0.96947 0.87326 0.0
C1132 C 0.6324 0.96821 0.93045 0.0
C1133 C 0.6292 0.95163 0.95026 0.0
C1134 C 0.61833 0.93655 0.91546 0.0
C1135 C 0.64196 0.98418 0.97014 0.0
C1136 C 0.65477 0.99985 0.94247 0.0
C1137 C 0.63742 0.98452 0.03318 0.0
C1138 C 0.62285 0.9691 0.06433 0.0
C1139 C 0.62578 0.96296 0.12076 0.0
C1140 C 0.61197 0.94879 0.15122 0.0
C1141 C 0.59517 0.9406 0.12555 0.0
C1142 C 0.5921 0.94666 0.06963 0.0
C1143 C 0.60583 0.96096 0.03937 0.0
H1144 H 0.58451 0.92962 0.14916 0.0
H1145 H 0.70272 0.07556 0.85055 0.0
H1146 H 0.60252 0.68244 0.3261 0.0
H1147 H 0.61821 0.67011 0.27176 0.0
H1148 H 0.6494 0.67762 0.43576 0.0
H1149 H 0.6344 0.69094 0.48894 0.0
H1150 H 0.66899 0.68305 0.34123 0.0
H1151 H 0.61172 0.63721 0.39597 0.0
H1152 H 0.5795 0.62243 0.40064 0.0
H1153 H 0.57677 0.61842 0.20161 0.0
H1154 H 0.60901 0.63348 0.19566 0.0
H1155 H 0.68386 0.61043 0.27912 0.0
H1156 H 0.67245 0.62834 0.32363 0.0
H1157 H 0.66213 0.64019 0.13951 0.0
H1158 H 0.674 0.62271 0.09448 0.0
H1159 H 0.63244 0.62514 0.24112 0.0
H1160 H 0.6915 0.67139 0.19278 0.0
H1161 H 0.72365 0.68522 0.19629 0.0
H1162 H 0.72235 0.68599 0.39573 0.0
H1163 H 0.69014 0.6719 0.39338 0.0
C1164 C 0.61291 0.6817 0.35019 0.0
C1165 C 0.61718 0.68756 0.41185 0.0
C1166 C 0.62179 0.67452 0.31927 0.0
C1167 C 0.63469 0.67243 0.35012 0.0
C1168 C 0.63947 0.67898 0.4109 0.0
C1169 C 0.63088 0.68659 0.44133 0.0
C1170 C 0.64262 0.66277 0.32011 0.0
C1171 C 0.66093 0.67033 0.31986 0.0
C1172 C 0.63221 0.64613 0.29187 0.0
C1173 C 0.6128 0.63662 0.29534 0.0
C1174 C 0.60426 0.63324 0.35317 0.0
C1175 C 0.58599 0.62483 0.35606 0.0
C1176 C 0.5761 0.61953 0.30146 0.0
C1177 C 0.58446 0.62256 0.24387 0.0
C1178 C 0.60273 0.63103 0.2407 0.0
C1179 C 0.67935 0.61701 0.24808 0.0
C1180 C 0.6799 0.61523 0.18328 0.0
C1181 C 0.67284 0.62722 0.27358 0.0
C1182 C 0.66644 0.63553 0.23479 0.0
C1183 C 0.66703 0.63387 0.17012 0.0
C1184 C 0.67392 0.62399 0.14453 0.0
C1185 C 0.65866 0.64554 0.26205 0.0
C1186 C 0.6404 0.63793 0.26217 0.0
C1187 C 0.66905 0.66189 0.29143 0.0
C1188 C 0.6884 0.67042 0.2929 0.0
C1189 C 0.69805 0.67434 0.23739 0.0
C1190 C 0.71629 0.68227 0.23917 0.0
C1191 C 0.72504 0.68643 0.29621 0.0
C1192 C 0.71556 0.68273 0.35159 0.0
C1193 C 0.69731 0.67479 0.35005 0.0
H1194 H 0.73916 0.69257 0.29749 0.0
H1195 H 0.56197 0.61304 0.30378 0.0
H1196 H 0.07468 0.69293 0.5653 0.0
H1197 H 0.04622 0.68631 0.60889 0.0
H1198 H 0.02747 0.63101 0.58759 0.0
H1199 H 0.05511 0.63756 0.54132 0.0
H1200 H 0.00303 0.63536 0.55616 0.0
H1201 H 0.04163 0.65504 0.73335 0.0
H1202 H 0.06752 0.67585 0.79346 0.0
H1203 H 0.0504 0.71366 0.78678 0.0
H1204 H 0.02441 0.69303 0.72607 0.0
H1205 H 0.94864 0.61679 0.86008 0.0
H1206 H 0.97699 0.63149 0.80769 0.0
H1207 H 0.95184 0.63416 0.63907 0.0
H1208 H 0.92332 0.61814 0.6904 0.0
H1209 H 0.99799 0.65949 0.75824 0.0
H1210 H 0.9729 0.6327 0.51095 0.0
H1211 H 0.94825 0.60737 0.45932 0.0
H1212 H 0.93976 0.57613 0.6224 0.0
H1213 H 0.96448 0.60116 0.67478 0.0
C1214 C 0.06438 0.67941 0.56975 0.0
C1215 C 0.06708 0.6658 0.54931 0.0
C1216 C 0.04815 0.6756 0.59498 0.0
C1217 C 0.03457 0.6581 0.60198 0.0
C1218 C 0.0375 0.64462 0.5821 0.0
C1219 C 0.05342 0.6484 0.55569 0.0
C1220 C 0.01727 0.65343 0.63013 0.0
C1221 C 1.00197 0.64073 0.60026 0.0
C1222 C 0.01571 0.66022 0.68792 0.0
C1223 C 0.03123 0.6726 0.72458 0.0
C1224 C 0.04345 0.66784 0.7444 0.0
C1225 C 0.05814 0.6796 0.77862 0.0
C1226 C 0.06067 0.69613 0.79372 0.0
C1227 C 0.04845 0.70087 0.77489 0.0
C1228 C 0.03373 0.68915 0.74063 0.0
C1229 C 0.94923 0.62069 0.812 0.0
C1230 C 0.93382 0.61621 0.77906 0.0
C1231 C 0.96546 0.62914 0.78196 0.0
C1232 C 0.96668 0.63366 0.71869 0.0
C1233 C 0.95132 0.63032 0.68716 0.0
C1234 C 0.93502 0.6213 0.71661 0.0
C1235 C 0.98381 0.64087 0.68549 0.0
C1236 C 0.99903 0.65421 0.71392 0.0
C1237 C 0.98541 0.634 0.62778 0.0
C1238 C 0.97039 0.61888 0.59703 0.0
C1239 C 0.96576 0.62041 0.53579 0.0
C1240 C 0.95178 0.6061 0.50642 0.0
C1241 C 0.94238 0.59016 0.53775 0.0
C1242 C 0.94698 0.5885 0.59842 0.0
C1243 C 0.96097 0.60274 0.62797 0.0
H1244 H 0.93157 0.57909 0.51499 0.0
H1245 H 0.07206 0.70525 0.82013 0.0
H1246 H 0.41699 0.07361 0.04401 0.0
H1247 H 0.39421 0.04521 0.08307 0.0
H1248 H 0.36412 0.03755 0.91608 0.0
H1249 H 0.38674 0.06641 0.87806 0.0
H1250 H 0.34253 0.02103 0.01513 0.0
H1251 H 0.39279 0.02348 0.92042 0.0
H1252 H 0.42434 0.03482 0.90461 0.0
H1253 H 0.429 0.02076 0.09179 0.0
H1254 H 0.3975 0.00959 0.10904 0.0
H1255 H 0.33102 0.92645 0.0293 0.0
H1256 H 0.34592 0.95691 0.99619 0.0
H1257 H 0.32071 0.96933 0.14354 0.0
H1258 H 0.30511 0.9385 0.1754 0.0
H1259 H 0.36908 0.98372 0.0513 0.0
H1260 H 0.31923 0.00646 0.1076 0.0
H1261 H 0.28725 0.99437 0.1097 0.0
H1262 H 0.28049 0.95557 0.97474 0.0
H1263 H 0.31242 0.96756 0.97126 0.0
C1264 C 0.40515 0.06616 0.01696 0.0
C1265 C 0.40347 0.07212 0.95838 0.0
C1266 C 0.39221 0.04989 0.03902 0.0
C1267 C 0.37764 0.03906 0.00188 0.0
C1268 C 0.37524 0.04566 0.94551 0.0
C1269 C 0.38811 0.06214 0.92387 0.0
C1270 C 0.36648 0.02019 0.01773 0.0
C1271 C 0.34829 0.01285 0.02333 0.0
C1272 C 0.37393 0.00937 0.02661 0.0
C1273 C 0.39283 0.01586 0.0162 0.0
C1274 C 0.40057 0.02291 0.95833 0.0
C1275 C 0.41844 0.0293 0.94911 0.0
C1276 C 0.42868 0.02855 0.99722 0.0
C1277 C 0.42106 0.02136 0.05461 0.0
C1278 C 0.4032 0.01499 0.06413 0.0
C1279 C 0.32847 0.93559 0.05434 0.0
C1280 C 0.3169 0.93004 0.10513 0.0
C1281 C 0.33705 0.95307 0.03539 0.0
C1282 C 0.33448 0.96553 0.06714 0.0
C1283 C 0.32272 0.95998 0.11746 0.0
C1284 C 0.31387 0.94236 0.13587 0.0
C1285 C 0.34498 0.98439 0.0495 0.0
C1286 C 0.36318 0.9918 0.04352 0.0
C1287 C 0.33741 0.99503 0.03839 0.0
C1288 C 0.3182 0.9878 0.03973 0.0
C1289 C 0.31091 0.99538 0.07825 0.0
C1290 C 0.2928 0.98854 0.07969 0.0
C1291 C 0.28184 0.97417 0.04254 0.0
C1292 C 0.28898 0.96665 0.00369 0.0
C1293 C 0.30709 0.97345 0.00204 0.0
H1294 H 0.26782 0.96889 0.04375 0.0
H1295 H 0.44252 0.03351 0.99 0.0
H1296 H 0.28883 0.43334 0.47818 0.0
H1297 H 0.29266 0.42932 0.58752 0.0
H1298 H 0.3115 0.39415 0.53931 0.0
H1299 H 0.30759 0.39806 0.42885 0.0
H1300 H 0.28046 0.40235 0.66811 0.0
H1301 H 0.34501 0.40274 0.64056 0.0
H1302 H 0.36875 0.41141 0.5637 0.0
H1303 H 0.35995 0.45222 0.49649 0.0
H1304 H 0.33635 0.44392 0.57344 0.0
H1305 H 0.31002 0.40031 0.97602 0.0
H1306 H 0.30294 0.39247 0.86635 0.0
H1307 H 0.33933 0.44581 0.81379 0.0
H1308 H 0.34638 0.45371 0.92256 0.0
H1309 H 0.34156 0.42325 0.73564 0.0
H1310 H 0.29545 0.4308 0.82943 0.0
H1311 H 0.27206 0.42365 0.90632 0.0
H1312 H 0.24444 0.37054 0.84079 0.0
H1313 H 0.26782 0.37732 0.7642 0.0
C1314 C 0.29343 0.42444 0.49047 0.0
C1315 C 0.29801 0.41612 0.44443 0.0
C1316 C 0.29562 0.42216 0.55326 0.0
C1317 C 0.30248 0.41155 0.57161 0.0
C1318 C 0.30636 0.40257 0.5261 0.0
C1319 C 0.30421 0.40489 0.46301 0.0
C1320 C 0.3069 0.41128 0.63795 0.0
C1321 C 0.29377 0.40668 0.68291 0.0
C1322 C 0.32428 0.41705 0.65727 0.0
C1323 C 0.33881 0.42256 0.6122 0.0
C1324 C 0.34822 0.4136 0.6095 0.0
C1325 C 0.36163 0.41844 0.56593 0.0
C1326 C 0.36581 0.43231 0.52509 0.0
C1327 C 0.35667 0.44144 0.52802 0.0
C1328 C 0.34328 0.43667 0.57159 0.0
C1329 C 0.31652 0.41035 0.94108 0.0
C1330 C 0.3287 0.42767 0.95822 0.0
C1331 C 0.31252 0.40583 0.87844 0.0
C1332 C 0.32052 0.41859 0.83194 0.0
C1333 C 0.33308 0.43572 0.84884 0.0
C1334 C 0.33711 0.44022 0.91122 0.0
C1335 C 0.31519 0.41463 0.76587 0.0
C1336 C 0.32816 0.41846 0.72094 0.0
C1337 C 0.29771 0.40844 0.74661 0.0
C1338 C 0.28347 0.40451 0.79162 0.0
C1339 C 0.28443 0.41758 0.83166 0.0
C1340 C 0.27118 0.41359 0.87518 0.0
C1341 C 0.25681 0.39663 0.87859 0.0
C1342 C 0.25561 0.38366 0.83821 0.0
C1343 C 0.26885 0.38756 0.79475 0.0
H1344 H 0.24662 0.39354 0.91247 0.0
H1345 H 0.37615 0.436 0.49128 0.0
H1346 H 0.92763 0.32549 0.2359 0.0
H1347 H 0.92247 0.3182 0.12535 0.0
H1348 H 0.86823 0.30352 0.14821 0.0
H1349 H 0.87329 0.31072 0.25844 0.0
H1350 H 0.87125 0.28112 0.07258 0.0
H1351 H 0.89841 0.34395 0.09272 0.0
H1352 H 0.92141 0.37337 0.12565 0.0
H1353 H 0.95941 0.36787 0.01825 0.0
H1354 H 0.93666 0.33831 0.98532 0.0
H1355 H 0.84763 0.29476 0.76998 0.0
H1356 H 0.85365 0.2933 0.88005 0.0
H1357 H 0.90673 0.30729 0.83519 0.0
H1358 H 0.90107 0.30941 0.72592 0.0
H1359 H 0.906 0.32829 0.92109 0.0
H1360 H 0.87762 0.26662 0.88986 0.0
H1361 H 0.85443 0.23726 0.85752 0.0
H1362 H 0.81858 0.24021 0.98513 0.0
H1363 H 0.84145 0.26974 0.01742 0.0
C1364 C 0.91464 0.32077 0.21727 0.0
C1365 C 0.90092 0.31886 0.25575 0.0
C1366 C 0.91168 0.31653 0.15425 0.0
C1367 C 0.89502 0.31055 0.12851 0.0
C1368 C 0.88119 0.3081 0.16718 0.0
C1369 C 0.88411 0.31223 0.2302 0.0
C1370 C 0.89212 0.3077 0.06078 0.0
C1371 C 0.87876 0.29142 0.03935 0.0
C1372 C 0.90221 0.32107 0.01752 0.0
C1373 C 0.91588 0.33885 0.03715 0.0
C1374 C 0.9117 0.34897 0.07652 0.0
C1375 C 0.92469 0.36567 0.09512 0.0
C1376 C 0.94188 0.37246 0.07421 0.0
C1377 C 0.9461 0.36258 0.03451 0.0
C1378 C 0.93317 0.34585 0.01584 0.0
C1379 C 0.86053 0.29738 0.78352 0.0
C1380 C 0.87387 0.30232 0.73905 0.0
C1381 C 0.8639 0.29634 0.84634 0.0
C1382 C 0.88063 0.30011 0.8657 0.0
C1383 C 0.89372 0.30428 0.82116 0.0
C1384 C 0.89039 0.30536 0.75849 0.0
C1385 C 0.88502 0.30168 0.93261 0.0
C1386 C 0.89864 0.31781 0.95403 0.0
C1387 C 0.87512 0.28817 0.97568 0.0
C1388 C 0.86123 0.27051 0.95562 0.0
C1389 C 0.86474 0.26111 0.91052 0.0
C1390 C 0.85165 0.24441 0.89228 0.0
C1391 C 0.83503 0.2369 0.91911 0.0
C1392 C 0.83145 0.24606 0.96428 0.0
C1393 C 0.84447 0.26279 0.98258 0.0
H1394 H 0.82493 0.22395 0.905 0.0
H1395 H 0.95191 0.3854 0.08865 0.0
H1396 H 0.56293 0.85129 0.10423 0.0
H1397 H 0.56471 0.85853 0.21438 0.0
H1398 H 0.60227 0.91239 0.17353 0.0
H1399 H 0.60054 0.90526 0.06257 0.0
H1400 H 0.61009 0.9011 0.282 0.0
H1401 H 0.5613 0.9019 0.18988 0.0
H1402 H 0.53436 0.89038 0.12731 0.0
H1403 H 0.5081 0.84685 0.25224 0.0
H1404 H 0.53501 0.85798 0.31498 0.0
H1405 H 0.56036 0.91389 0.56458 0.0
H1406 H 0.56648 0.91426 0.45351 0.0
H1407 H 0.59056 0.88286 0.48781 0.0
H1408 H 0.58445 0.88239 0.59845 0.0
H1409 H 0.55356 0.88743 0.37852 0.0
H1410 H 0.62173 0.89125 0.37319 0.0
H1411 H 0.64901 0.90474 0.4342 0.0
H1412 H 0.63784 0.94396 0.50146 0.0
H1413 H 0.61057 0.93083 0.44039 0.0
C1414 C 0.5718 0.86462 0.11866 0.0
C1415 C 0.58148 0.87775 0.07472 0.0
C1416 C 0.57272 0.86876 0.18157 0.0
C1417 C 0.58335 0.88608 0.20171 0.0
C1418 C 0.5938 0.89903 0.15855 0.0
C1419 C 0.59275 0.89495 0.09536 0.0
C1420 C 0.58253 0.89077 0.2671 0.0
C1421 C 0.59778 0.89815 0.30337 0.0
C1422 C 0.56651 0.88738 0.29406 0.0
C1423 C 0.55022 0.88072 0.25685 0.0
C1424 C 0.54982 0.88981 0.20376 0.0
C1425 C 0.53455 0.88336 0.16828 0.0
C1426 C 0.51954 0.86787 0.18573 0.0
C1427 C 0.51975 0.85884 0.23876 0.0
C1428 C 0.53501 0.86522 0.27432 0.0
C1429 C 0.56706 0.90716 0.54839 0.0
C1430 C 0.57188 0.89809 0.59023 0.0
C1431 C 0.5706 0.90743 0.48504 0.0
C1432 C 0.57905 0.89865 0.46238 0.0
C1433 C 0.58429 0.88996 0.50429 0.0
C1434 C 0.5808 0.88973 0.56764 0.0
C1435 C 0.58105 0.89732 0.39455 0.0
C1436 C 0.56596 0.89053 0.35753 0.0
C1437 C 0.59729 0.9016 0.3669 0.0
C1438 C 0.61389 0.90983 0.40293 0.0
C1439 C 0.62507 0.90276 0.40094 0.0
C1440 C 0.64056 0.91035 0.43553 0.0
C1441 C 0.64512 0.92515 0.47193 0.0
C1442 C 0.63424 0.93243 0.47355 0.0
C1443 C 0.61874 0.92488 0.43905 0.0
H1444 H 0.65711 0.931 0.49872 0.0
H1445 H 0.50772 0.86289 0.15821 0.0
H1446 H 0.68561 0.55562 0.92264 0.0
H1447 H 0.69156 0.55885 0.81137 0.0
H1448 H 0.65755 0.58041 0.78896 0.0
H1449 H 0.65185 0.57779 0.90059 0.0
H1450 H 0.65363 0.55405 0.698 0.0
H1451 H 0.69686 0.60699 0.79515 0.0
H1452 H 0.7204 0.62524 0.86867 0.0
H1453 H 0.75328 0.60745 0.78823 0.0
H1454 H 0.72965 0.58844 0.71607 0.0
H1455 H 0.67882 0.58279 0.393 0.0
H1456 H 0.67391 0.58444 0.50303 0.0
H1457 H 0.71364 0.57128 0.54698 0.0
H1458 H 0.71941 0.57052 0.43637 0.0
H1459 H 0.71426 0.59501 0.62722 0.0
H1460 H 0.67072 0.53943 0.54211 0.0
H1461 H 0.64809 0.52107 0.46551 0.0
H1462 H 0.61713 0.54394 0.5205 0.0
H1463 H 0.63964 0.56252 0.59713 0.0
C1464 C 0.67947 0.56119 0.89446 0.0
C1465 C 0.66844 0.5667 0.92107 0.0
C1466 C 0.68285 0.56294 0.83083 0.0
C1467 C 0.67522 0.57013 0.79262 0.0
C1468 C 0.66359 0.57489 0.81811 0.0
C1469 C 0.6603 0.5733 0.88193 0.0
C1470 C 0.6798 0.57308 0.72622 0.0
C1471 C 0.66682 0.56317 0.68238 0.0
C1472 C 0.69713 0.58476 0.70645 0.0
C1473 C 0.7113 0.59601 0.75073 0.0
C1474 C 0.70896 0.60667 0.79387 0.0
C1475 C 0.72235 0.61718 0.83532 0.0
C1476 C 0.73829 0.61742 0.83341 0.0
C1477 C 0.7409 0.60719 0.78987 0.0
C1478 C 0.72747 0.59648 0.74886 0.0
C1479 C 0.68692 0.58069 0.42557 0.0
C1480 C 0.69939 0.57625 0.40545 0.0
C1481 C 0.68392 0.58147 0.48872 0.0
C1482 C 0.6931 0.57754 0.53291 0.0
C1483 C 0.70629 0.57417 0.51339 0.0
C1484 C 0.70944 0.57357 0.45017 0.0
C1485 C 0.68818 0.57582 0.59916 0.0
C1486 C 0.70107 0.58594 0.64294 0.0
C1487 C 0.67084 0.56418 0.61904 0.0
C1488 C 0.65693 0.55247 0.57496 0.0
C1489 C 0.65909 0.54055 0.5378 0.0
C1490 C 0.64628 0.53011 0.49438 0.0
C1491 C 0.6312 0.53137 0.48799 0.0
C1492 C 0.62882 0.54297 0.52546 0.0
C1493 C 0.64157 0.55343 0.569 0.0
H1494 H 0.62136 0.52336 0.45405 0.0
H1495 H 0.74866 0.62559 0.86548 0.0
H1496 H 0.10255 0.69715 0.30116 0.0
H1497 H 0.10141 0.70498 0.19307 0.0
H1498 H 0.11132 0.66421 0.13161 0.0
H1499 H 0.11296 0.65657 0.23851 0.0
H1500 H 0.1275 0.71658 0.10624 0.0
H1501 H 0.08944 0.64654 -0.00116 0.0
H1502 H 0.06512 0.61735 0.0273 0.0
H1503 H 0.04503 0.64092 0.15277 0.0
H1504 H 0.06906 0.67027 0.1244 0.0
H1505 H 0.15244 0.71068 0.80272 0.0
H1506 H 0.14463 0.70853 0.91187 0.0
H1507 H 0.0922 0.69553 0.86191 0.0
H1508 H 0.09996 0.69772 0.75134 0.0
H1509 H 0.09133 0.67334 0.9447 0.0
H1510 H 0.12052 0.7352 0.93003 0.0
H1511 H 0.14384 0.76511 0.90388 0.0
H1512 H 0.17958 0.75937 0.02357 0.0
H1513 H 0.15659 0.72934 0.04969 0.0
C1514 C 0.10452 0.68982 0.26491 0.0
C1515 C 0.1079 0.67619 0.27933 0.0
C1516 C 0.10376 0.69428 0.20302 0.0
C1517 C 0.10609 0.68506 0.15438 0.0
C1518 C 0.10914 0.67129 0.16843 0.0
C1519 C 0.11004 0.66691 0.23002 0.0
C1520 C 0.10655 0.69036 0.08874 0.0
C1521 C 0.1195 0.70722 0.07082 0.0
C1522 C 0.09577 0.67824 0.04292 0.0
C1523 C 0.08114 0.66062 0.0597 0.0
C1524 C 0.07978 0.64551 0.03222 0.0
C1525 C 0.06605 0.62893 0.04841 0.0
C1526 C 0.05356 0.62728 0.09191 0.0
C1527 C 0.05474 0.64222 0.11921 0.0
C1528 C 0.06843 0.65883 0.10316 0.0
C1529 C 0.13933 0.70773 0.81454 0.0
C1530 C 0.12684 0.70442 0.76801 0.0
C1531 C 0.13489 0.70653 0.87725 0.0
C1532 C 0.11788 0.70212 0.89509 0.0
C1533 C 0.1054 0.69901 0.84895 0.0
C1534 C 0.10983 0.70017 0.78594 0.0
C1535 C 0.11292 0.69932 0.96177 0.0
C1536 C 0.09913 0.68288 0.97996 0.0
C1537 C 0.12282 0.71192 0.00784 0.0
C1538 C 0.13681 0.72994 0.9916 0.0
C1539 C 0.13339 0.74025 0.95038 0.0
C1540 C 0.14655 0.75725 0.93563 0.0
C1541 C 0.16318 0.76414 0.96203 0.0
C1542 C 0.16669 0.75403 0.00319 0.0
C1543 C 0.15359 0.73702 0.01803 0.0
H1544 H 0.17335 0.77731 0.95066 0.0
H1545 H 0.04295 0.61443 0.1044 0.0
H1546 H 0.41317 0.12629 0.64659 0.0
H1547 H 0.40982 0.13158 0.53676 0.0
H1548 H 0.43463 0.10207 0.48267 0.0
H1549 H 0.43739 0.09625 0.59169 0.0
H1550 H 0.4338 0.14885 0.45143 0.0
H1551 H 0.4191 0.08161 0.34757 0.0
H1552 H 0.40283 0.05038 0.37651 0.0
H1553 H 0.37003 0.06008 0.4982 0.0
H1554 H 0.38591 0.09131 0.46932 0.0
H1555 H 0.46468 0.15466 0.14775 0.0
H1556 H 0.45682 0.14989 0.25716 0.0
H1557 H 0.4023 0.11844 0.20798 0.0
H1558 H 0.41008 0.12329 0.09773 0.0
H1559 H 0.41076 0.1021 0.29131 0.0
H1560 H 0.41755 0.1585 0.27518 0.0
H1561 H 0.43124 0.18972 0.2472 0.0
H1562 H 0.47486 0.20162 0.36625 0.0
H1563 H 0.46158 0.17043 0.39422 0.0
C1564 C 0.41785 0.12093 0.61111 0.0
C1565 C 0.42546 0.11079 0.62756 0.0
C1566 C 0.41594 0.12395 0.54852 0.0
C1567 C 0.42185 0.11712 0.50146 0.0
C1568 C 0.4296 0.10715 0.51801 0.0
C1569 C 0.43123 0.10387 0.58035 0.0
C1570 C 0.42079 0.12105 0.43503 0.0
C1571 C 0.42863 0.13863 0.41646 0.0
C1572 C 0.41356 0.10769 0.38944 0.0
C1573 C 0.40379 0.08885 0.40653 0.0
C1574 C 0.40835 0.07707 0.38023 0.0
C1575 C 0.39921 0.05936 0.39669 0.0
C1576 C 0.38544 0.05325 0.43927 0.0
C1577 C 0.38074 0.06483 0.46537 0.0
C1578 C 0.38983 0.08255 0.44903 0.0
C1579 C 0.45098 0.14705 0.15987 0.0
C1580 C 0.43803 0.13937 0.11362 0.0
C1581 C 0.44649 0.14432 0.2227 0.0
C1582 C 0.42895 0.13395 0.24089 0.0
C1583 C 0.41593 0.1265 0.19501 0.0
C1584 C 0.42041 0.12922 0.13199 0.0
C1585 C 0.42453 0.12993 0.30767 0.0
C1586 C 0.41566 0.11232 0.32632 0.0
C1587 C 0.43047 0.14326 0.35335 0.0
C1588 C 0.4386 0.16207 0.33644 0.0
C1589 C 0.43014 0.16774 0.29499 0.0
C1590 C 0.43781 0.18545 0.27921 0.0
C1591 C 0.45393 0.19764 0.30484 0.0
C1592 C 0.46238 0.19216 0.3464 0.0
C1593 C 0.45477 0.17446 0.36229 0.0
H1594 H 0.45984 0.21135 0.29259 0.0
H1595 H 0.37839 0.03954 0.45198 0.0
H1596 H 0.55175 0.71202 0.2105 0.0
H1597 H 0.55817 0.71493 0.09896 0.0
H1598 H 0.59443 0.69617 0.12678 0.0
H1599 H 0.58825 0.69347 0.23794 0.0
H1600 H 0.60619 0.72104 0.03836 0.0
H1601 H 0.55252 0.66811 0.08689 0.0
H1602 H 0.52298 0.65082 0.13186 0.0
H1603 H 0.50456 0.67785 0.01573 0.0
H1604 H 0.53409 0.69548 0.9707 0.0
H1605 H 0.60181 0.68198 0.74347 0.0
H1606 H 0.60163 0.68905 0.85316 0.0
H1607 H 0.56489 0.70653 0.81332 0.0
H1608 H 0.56446 0.69892 0.70464 0.0
H1609 H 0.55414 0.68469 0.907 0.0
H1610 H 0.60856 0.73545 0.84981 0.0
H1611 H 0.63829 0.75153 0.80596 0.0
H1612 H 0.65576 0.72704 0.93794 0.0
H1613 H 0.62602 0.71064 0.98206 0.0
C1614 C 0.56124 0.70874 0.19273 0.0
C1615 C 0.56937 0.70237 0.23262 0.0
C1616 C 0.56493 0.71044 0.12925 0.0
C1617 C 0.57655 0.70549 0.10466 0.0
C1618 C 0.58544 0.70009 0.14489 0.0
C1619 C 0.58189 0.69855 0.20841 0.0
C1620 C 0.57819 0.70425 0.03677 0.0
C1621 C 0.59486 0.71306 0.00948 0.0
C1622 C 0.56334 0.69392 -0.00068 0.0
C1623 C 0.54555 0.68324 0.02596 0.0
C1624 C 0.5422 0.67045 0.07128 0.0
C1625 C 0.52546 0.66058 0.09673 0.0
C1626 C 0.51191 0.66327 0.0768 0.0
C1627 C 0.51508 0.6758 0.03121 0.0
C1628 C 0.53181 0.68573 0.00569 0.0
C1629 C 0.59369 0.68732 0.75805 0.0
C1630 C 0.58312 0.68981 0.71511 0.0
C1631 C 0.59379 0.69159 0.82061 0.0
C1632 C 0.58344 0.69856 0.84116 0.0
C1633 C 0.57311 0.70132 0.79829 0.0
C1634 C 0.57296 0.69703 0.73595 0.0
C1635 C 0.58217 0.70159 0.90805 0.0
C1636 C 0.56551 0.69295 0.9354 0.0
C1637 C 0.59707 0.71188 0.9454 0.0
C1638 C 0.61498 0.72171 0.91888 0.0
C1639 C 0.61868 0.73339 0.86916 0.0
C1640 C 0.63556 0.74259 0.84431 0.0
C1641 C 0.64891 0.74028 0.86905 0.0
C1642 C 0.64541 0.7288 0.91878 0.0
C1643 C 0.62854 0.71957 0.94377 0.0
H1644 H 0.66198 0.74741 0.84977 0.0
H1645 H 0.49896 0.65562 0.09656 0.0
H1646 H 0.87424 0.57664 0.03692 0.0
H1647 H 0.87538 0.58376 0.14691 0.0
H1648 H 0.92305 0.5818 0.16697 0.0
H1649 H 0.92194 0.57462 0.05661 0.0
H1650 H 0.90118 0.56374 0.25519 0.0
H1651 H 0.9231 0.62032 0.17304 0.0
H1652 H 0.92538 0.64433 0.10789 0.0
H1653 H 0.87773 0.63772 0.18665 0.0
H1654 H 0.87478 0.61324 0.25053 0.0
H1655 H 0.90598 0.58724 0.56801 0.0
H1656 H 0.91449 0.5918 0.45955 0.0
H1657 H 0.86458 0.586 0.40973 0.0
H1658 H 0.85607 0.58227 0.51904 0.0
H1659 H 0.89262 0.61137 0.3391 0.0
H1660 H 0.86983 0.5507 0.40743 0.0
H1661 H 0.87028 0.52906 0.47895 0.0
H1662 H 0.92374 0.54677 0.42979 0.0
H1663 H 0.92365 0.56866 0.35855 0.0
C1664 C 0.88512 0.578 0.06447 0.0
C1665 C 0.898 0.57505 0.03817 0.0
C1666 C 0.88577 0.58211 0.12733 0.0
C1667 C 0.89942 0.58352 0.16496 0.0
C1668 C 0.91241 0.58078 0.1387 0.0
C1669 C 0.91172 0.5766 0.07581 0.0
C1670 C 0.89933 0.5866 0.2325 0.0
C1671 C 0.89966 0.57438 0.27342 0.0
C1672 C 0.89727 0.60044 0.25641 0.0
C1673 C 0.89864 0.61478 0.21629 0.0
C1674 C 0.91294 0.62377 0.17577 0.0
C1675 C 0.91436 0.63749 0.13902 0.0
C1676 C 0.90167 0.64251 0.14289 0.0
C1677 C 0.88751 0.63378 0.1834 0.0
C1678 C 0.88593 0.61994 0.21979 0.0
C1679 C 0.89686 0.58735 0.5348 0.0
C1680 C 0.8801 0.58402 0.55271 0.0
C1681 C 0.9018 0.58989 0.47254 0.0
C1682 C 0.89004 0.58887 0.42688 0.0
C1683 C 0.87378 0.58669 0.44453 0.0
C1684 C 0.86886 0.58432 0.50697 0.0
C1685 C 0.89395 0.58827 0.3606 0.0
C1686 C 0.89435 0.60092 0.32028 0.0
C1687 C 0.89696 0.57502 0.33718 0.0
C1688 C 0.89676 0.56135 0.37794 0.0
C1689 C 0.88167 0.54997 0.41193 0.0
C1690 C 0.88187 0.53768 0.45246 0.0
C1691 C 0.89704 0.53655 0.45898 0.0
C1692 C 0.912 0.54764 0.42467 0.0
C1693 C 0.91188 0.55998 0.38416 0.0
H1694 H 0.89719 0.52707 0.49056 0.0
H1695 H 0.90287 0.65321 0.11469 0.0
H1696 H 0.35274 0.91135 0.38972 0.0
H1697 H 0.34736 0.91251 0.50078 0.0
H1698 H 0.29168 0.88433 0.46695 0.0
H1699 H 0.29706 0.88348 0.3558 0.0
H1700 H 0.30005 0.90805 0.56042 0.0
H1701 H 0.3121 0.8623 0.50519 0.0
H1702 H 0.32909 0.85005 0.4576 0.0
H1703 H 0.37265 0.88206 0.57666 0.0
H1704 H 0.35599 0.8947 0.62431 0.0
H1705 H 0.27227 0.86418 0.85545 0.0
H1706 H 0.27775 0.87194 0.74504 0.0
H1707 H 0.33314 0.90263 0.78194 0.0
H1708 H 0.32782 0.89473 0.89155 0.0
H1709 H 0.32503 0.87886 0.68754 0.0
H1710 H 0.31122 0.92297 0.74824 0.0
H1711 H 0.2932 0.93406 0.79559 0.0
H1712 H 0.25158 0.90354 0.66741 0.0
H1713 H 0.26927 0.89206 0.61985 0.0
C1714 C 0.3394 0.90573 0.40604 0.0
C1715 C 0.32533 0.89718 0.36457 0.0
C1716 C 0.33632 0.9064 0.46926 0.0
C1717 C 0.31911 0.89819 0.49209 0.0
C1718 C 0.30505 0.89073 0.45021 0.0
C1719 C 0.30814 0.89025 0.38678 0.0
C1720 C 0.31582 0.89567 0.55972 0.0
C1721 C 0.30539 0.90157 0.58826 0.0
C1722 C 0.32289 0.8873 0.59593 0.0
C1723 C 0.33287 0.87957 0.56785 0.0
C1724 C 0.32534 0.86681 0.52092 0.0
C1725 C 0.33491 0.85979 0.49396 0.0
C1726 C 0.35196 0.86531 0.51398 0.0
C1727 C 0.35945 0.87782 0.56113 0.0
C1728 C 0.34995 0.88491 0.58815 0.0
C1729 C 0.28559 0.87263 0.83992 0.0
C1730 C 0.2996 0.87884 0.8821 0.0
C1731 C 0.28868 0.87719 0.77711 0.0
C1732 C 0.30584 0.88795 0.75564 0.0
C1733 C 0.3198 0.89439 0.7978 0.0
C1734 C 0.31672 0.88994 0.86048 0.0
C1735 C 0.30944 0.89141 0.68856 0.0
C1736 C 0.31982 0.88552 0.65996 0.0
C1737 C 0.30216 0.89959 0.6525 0.0
C1738 C 0.29152 0.90652 0.68088 0.0
C1739 C 0.29817 0.9185 0.7305 0.0
C1740 C 0.28802 0.92488 0.75731 0.0
C1741 C 0.27124 0.91947 0.73463 0.0
C1742 C 0.26458 0.9077 0.68498 0.0
C1743 C 0.27467 0.90126 0.65804 0.0
H1744 H 0.2634 0.92443 0.75544 0.0
H1745 H 0.35934 0.85986 0.49305 0.0
H1746 H 0.42141 0.30054 0.7621 0.0
H1747 H 0.41281 0.29593 0.87164 0.0
H1748 H 0.4307 0.35109 0.89149 0.0
H1749 H 0.43978 0.35573 0.78251 0.0
H1750 H 0.44352 0.34197 0.97915 0.0
H1751 H 0.38653 0.31848 0.89725 0.0
H1752 H 0.36086 0.30031 0.83147 0.0
H1753 H 0.3556 0.25371 0.91493 0.0
H1754 H 0.38146 0.27155 0.9804 0.0
H1755 H 0.42091 0.33006 0.29467 0.0
H1756 H 0.4169 0.33513 0.18615 0.0
H1757 H 0.40915 0.28428 0.1376 0.0
H1758 H 0.41243 0.27876 0.24659 0.0
H1759 H 0.38843 0.2937 0.06691 0.0
H1760 H 0.45007 0.31966 0.13217 0.0
H1761 H 0.47472 0.33898 0.20068 0.0
H1762 H 0.46863 0.38271 0.1497 0.0
H1763 H 0.44399 0.36366 0.081 0.0
C1764 C 0.42322 0.31159 0.78975 0.0
C1765 C 0.43137 0.32851 0.76423 0.0
C1766 C 0.41823 0.30895 0.85222 0.0
C1767 C 0.42096 0.32315 0.88985 0.0
C1768 C 0.42851 0.33995 0.86355 0.0
C1769 C 0.43374 0.34261 0.80144 0.0
C1770 C 0.41757 0.32079 0.95774 0.0
C1771 C 0.43128 0.33163 -0.00194 0.0
C1772 C 0.40169 0.30723 0.98286 0.0
C1773 C 0.38611 0.29639 0.94336 0.0
C1774 C 0.38003 0.30435 0.90119 0.0
C1775 C 0.36541 0.2941 0.864 0.0
C1776 C 0.35663 0.27587 0.8689 0.0
C1777 C 0.36241 0.26784 0.9112 0.0
C1778 C 0.37705 0.27802 0.9484 0.0
C1779 C 0.41785 0.31972 0.26145 0.0
C1780 C 0.41733 0.3041 0.2793 0.0
C1781 C 0.41565 0.3227 0.19927 0.0
C1782 C 0.41306 0.31021 0.15383 0.0
C1783 C 0.41124 0.29412 0.172 0.0
C1784 C 0.41334 0.29108 0.2342 0.0
C1785 C 0.41444 0.31465 0.08704 0.0
C1786 C 0.40045 0.30419 0.04729 0.0
C1787 C 0.42993 0.32873 0.06221 0.0
C1788 C 0.44515 0.34024 0.10182 0.0
C1789 C 0.45402 0.33341 0.13562 0.0
C1790 C 0.468 0.34431 0.17443 0.0
C1791 C 0.47328 0.36208 0.17952 0.0
C1792 C 0.46462 0.36898 0.14558 0.0
C1793 C 0.45067 0.35815 0.1066 0.0
H1794 H 0.48406 0.3705 0.20975 0.0
H1795 H 0.34532 0.26796 0.84004 0.0
H1796 H 0.13728 0.40243 0.58223 0.0
H1797 H 0.12983 0.39714 0.47165 0.0
H1798 H 0.09841 0.42188 0.48901 0.0
H1799 H 0.1054 0.42665 0.59969 0.0
H1800 H 0.08288 0.39508 0.41378 0.0
H1801 H 0.14202 0.44391 0.43565 0.0
H1802 H 0.17287 0.45845 0.46926 0.0
H1803 H 0.18068 0.42154 0.3639 0.0
H1804 H 0.14979 0.40664 0.33035 0.0
H1805 H 0.08909 0.43313 0.11729 0.0
H1806 H 0.08858 0.42459 0.22565 0.0
H1807 H 0.11588 0.39726 0.1748 0.0
H1808 H 0.11685 0.40616 0.06677 0.0
H1809 H 0.13239 0.42034 0.26483 0.0
H1810 H 0.07389 0.37503 0.22812 0.0
H1811 H 0.04311 0.36127 0.1945 0.0
H1812 H 0.03391 0.39237 0.32626 0.0
H1813 H 0.06471 0.40656 0.35991 0.0
C1814 C 0.12871 0.40662 0.5623 0.0
C1815 C 0.12202 0.41507 0.5992 0.0
C1816 C 0.12446 0.40361 0.49925 0.0
C1817 C 0.11382 0.4094 0.47176 0.0
C1818 C 0.10663 0.41728 0.50916 0.0
C1819 C 0.11064 0.42002 0.57236 0.0
C1820 C 0.1109 0.40823 0.4036 0.0
C1821 C 0.09369 0.4007 0.3811 0.0
C1822 C 0.125 0.41508 0.3609 0.0
C1823 C 0.14355 0.42403 0.38116 0.0
C1824 C 0.15028 0.43882 0.42007 0.0
C1825 C 0.16778 0.44713 0.43905 0.0
C1826 C 0.17871 0.44089 0.41891 0.0
C1827 C 0.17219 0.42634 0.3796 0.0
C1828 C 0.15469 0.41795 0.3606 0.0
C1829 C 0.09478 0.42512 0.12912 0.0
C1830 C 0.10313 0.42045 0.08356 0.0
C1831 C 0.0943 0.42007 0.19092 0.0
C1832 C 0.10211 0.4102 0.20824 0.0
C1833 C 0.10971 0.4048 0.16235 0.0
C1834 C 0.11016 0.40982 0.10053 0.0
C1835 C 0.10437 0.40756 0.27486 0.0
C1836 C 0.12151 0.41443 0.29718 0.0
C1837 C 0.0902 0.40027 0.31721 0.0
C1838 C 0.07171 0.39199 0.29619 0.0
C1839 C 0.06537 0.37909 0.24946 0.0
C1840 C 0.0479 0.37118 0.23048 0.0
C1841 C 0.03657 0.37596 0.25815 0.0
C1842 C 0.0427 0.38868 0.30482 0.0
C1843 C 0.06017 0.39666 0.32388 0.0
H1844 H 0.02303 0.36979 0.24351 0.0
H1845 H 0.19226 0.44735 0.43362 0.0
H1846 H 0.65806 0.10373 0.38753 0.0
H1847 H 0.66195 0.09975 0.49758 0.0
H1848 H 0.71676 0.11835 0.46557 0.0
H1849 H 0.71297 0.12247 0.35544 0.0
H1850 H 0.70299 0.09105 0.54528 0.0
H1851 H 0.70358 0.14551 0.52354 0.0
H1852 H 0.6924 0.1649 0.49081 0.0
H1853 H 0.64639 0.13543 0.60233 0.0
H1854 H 0.65718 0.11568 0.635 0.0
H1855 H 0.73538 0.12311 0.85166 0.0
H1856 H 0.72857 0.11682 0.7409 0.0
H1857 H 0.67373 0.0958 0.78066 0.0
H1858 H 0.68052 0.10232 0.89089 0.0
H1859 H 0.68651 0.12261 0.69742 0.0
H1860 H 0.68598 0.06795 0.7184 0.0
H1861 H 0.69709 0.0483 0.74856 0.0
H1862 H 0.74384 0.07928 0.64236 0.0
H1863 H 0.73281 0.09889 0.61035 0.0
C1864 C 0.67094 0.10702 0.40401 0.0
C1865 C 0.68523 0.11357 0.36304 0.0
C1866 C 0.67314 0.10468 0.46676 0.0
C1867 C 0.68971 0.10905 0.48983 0.0
C1868 C 0.70388 0.11498 0.44868 0.0
C1869 C 0.70168 0.11728 0.38579 0.0
C1870 C 0.69239 0.1082 0.55732 0.0
C1871 C 0.69953 0.09806 0.57857 0.0
C1872 C 0.6876 0.11713 0.60072 0.0
C1873 C 0.6811 0.129 0.58117 0.0
C1874 C 0.69101 0.14307 0.54067 0.0
C1875 C 0.68476 0.15414 0.52219 0.0
C1876 C 0.66867 0.15136 0.54432 0.0
C1877 C 0.65883 0.13754 0.58512 0.0
C1878 C 0.66501 0.12641 0.60365 0.0
C1879 C 0.72186 0.1168 0.83668 0.0
C1880 C 0.70849 0.11321 0.87959 0.0
C1881 C 0.71796 0.11308 0.77367 0.0
C1882 C 0.70063 0.1058 0.75274 0.0
C1883 C 0.68717 0.10135 0.79601 0.0
C1884 C 0.69105 0.10501 0.85894 0.0
C1885 C 0.69694 0.10531 0.68556 0.0
C1886 C 0.68976 0.11539 0.66425 0.0
C1887 C 0.7018 0.09645 0.64232 0.0
C1888 C 0.70865 0.08495 0.66246 0.0
C1889 C 0.69868 0.07063 0.70182 0.0
C1890 C 0.70493 0.05947 0.71907 0.0
C1891 C 0.72124 0.06264 0.69793 0.0
C1892 C 0.73124 0.07687 0.65888 0.0
C1893 C 0.72495 0.08795 0.64083 0.0
H1894 H 0.72607 0.05402 0.71155 0.0
H1895 H 0.66386 0.15995 0.52998 0.0
loop_
_geom_bond_atom_site_label_1
_geom_bond_atom_site_label_2
_geom_bond_distance
_geom_bond_site_symmetry_2
_ccdc_geom_bond_type
C0 C1 1.351 . S
C0 N3 1.368 . S
C0 H5 0.931 . S
C1 C0 1.351 . S
C1 N2 1.373 . S
C1 H29 0.930 . S
N2 C1 1.373 . S
N2 C4 1.340 . S
N3 C0 1.368 . S
N3 C4 1.321 . S
N3 Co6 2.135 . S
C4 N2 1.340 . S
C4 N3 1.321 . S
C4 H28 0.930 . S
H5 C0 0.931 . S
Co6 N3 2.135 . S
Co6 N9 2.121 . S
Co6 O14 2.055 . S
Co6 O17 2.039 . S
Co6 N20 2.140 . S
C7 O8 1.227 . S
C7 O17 1.265 . S
O8 C7 1.227 . S
N9 Co6 2.121 . S
N9 C11 1.375 . S
N9 C12 1.313 . S
C10 C11 1.338 . S
C10 N13 1.377 . S
C10 H30 0.930 . S
C11 N9 1.375 . S
C11 C10 1.338 . S
C11 H15 0.931 . S
C12 N9 1.313 . S
C12 N13 1.344 . S
C12 H16 0.930 . S
N13 C10 1.377 . S
N13 C12 1.344 . S
O14 Co6 2.055 . S
O14 C18 1.253 . S
H15 C11 0.931 . S
H16 C12 0.930 . S
O17 Co6 2.039 . S
O17 C7 1.265 . S
C18 O14 1.253 . S
C18 O19 1.227 . S
O19 C18 1.227 . S
N20 Co6 2.140 . S
N20 C23 1.346 . S
N20 C24 1.345 . S
C21 C22 1.387 . S
C21 C25 1.391 . S
C22 C21 1.387 . S
C22 C23 1.369 . S
C22 H31 0.929 . S
C23 N20 1.346 . S
C23 C22 1.369 . S
C23 H26 0.928 . S
C24 N20 1.345 . S
C24 C25 1.371 . S
C24 H27 0.931 . S
C25 C21 1.391 . S
C25 C24 1.371 . S
C25 H32 0.930 . S
H26 C23 0.928 . S
H27 C24 0.931 . S
H28 C4 0.930 . S
H29 C1 0.930 . S
H30 C10 0.930 . S
H31 C22 0.929 . S
H32 C25 0.930 . S
C33 C34 1.351 . S
C33 N36 1.368 . S
C33 H38 0.931 . S
C34 C33 1.351 . S
C34 N35 1.373 . S
C34 H62 0.930 . S
N35 C34 1.373 . S
N35 C37 1.340 . S
N36 C33 1.368 . S
N36 C37 1.321 . S
N36 Co39 2.135 . S
C37 N35 1.340 . S
C37 N36 1.321 . S
C37 H61 0.930 . S
H38 C33 0.931 . S
Co39 N36 2.135 . S
Co39 N42 2.121 . S
Co39 O47 2.055 . S
Co39 O50 2.039 . S
Co39 N53 2.140 . S
C40 O41 1.227 . S
C40 O50 1.265 . S
O41 C40 1.227 . S
N42 Co39 2.121 . S
N42 C44 1.375 . S
N42 C45 1.313 . S
C43 C44 1.338 . S
C43 N46 1.377 . S
C43 H63 0.930 . S
C44 N42 1.375 . S
C44 C43 1.338 . S
C44 H48 0.931 . S
C45 N42 1.313 . S
C45 N46 1.344 . S
C45 H49 0.930 . S
N46 C43 1.377 . S
N46 C45 1.344 . S
O47 Co39 2.055 . S
O47 C51 1.253 . S
H48 C44 0.931 . S
H49 C45 0.930 . S
O50 Co39 2.039 . S
O50 C40 1.265 . S
C51 O47 1.253 . S
C51 O52 1.227 . S
O52 C51 1.227 . S
N53 Co39 2.140 . S
N53 C56 1.346 . S
N53 C57 1.345 . S
C54 C55 1.387 . S
C54 C58 1.391 . S
C55 C54 1.387 . S
C55 C56 1.369 . S
C55 H64 0.929 . S
C56 N53 1.346 . S
C56 C55 1.369 . S
C56 H59 0.928 . S
C57 N53 1.345 . S
C57 C58 1.371 . S
C57 H60 0.931 . S
C58 C54 1.391 . S
C58 C57 1.371 . S
C58 H65 0.930 . S
H59 C56 0.928 . S
H60 C57 0.931 . S
H61 C37 0.930 . S
H62 C34 0.930 . S
H63 C43 0.930 . S
H64 C55 0.929 . S
H65 C58 0.930 . S
C66 C67 1.351 . S
C66 N69 1.368 . S
C66 H71 0.931 1_554 S
C67 C66 1.351 . S
C67 N68 1.373 . S
C67 H95 0.930 . S
N68 C67 1.373 . S
N68 C70 1.340 . S
N69 C66 1.368 . S
N69 C70 1.321 . S
N69 Co72 2.135 1_554 S
C70 N68 1.340 . S
C70 N69 1.321 . S
C70 H94 0.930 . S
H71 C66 0.931 1_556 S
Co72 N69 2.135 1_556 S
Co72 N75 2.121 . S
Co72 O80 2.055 . S
Co72 O83 2.039 . S
Co72 N86 2.140 . S
C73 O74 1.227 . S
C73 O83 1.265 . S
O74 C73 1.227 . S
N75 Co72 2.121 . S
N75 C77 1.375 . S
N75 C78 1.313 . S
C76 C77 1.338 . S
C76 N79 1.377 . S
C76 H96 0.930 . S
C77 N75 1.375 . S
C77 C76 1.338 . S
C77 H81 0.931 . S
C78 N75 1.313 . S
C78 N79 1.344 . S
C78 H82 0.930 . S
N79 C76 1.377 . S
N79 C78 1.344 . S
O80 Co72 2.055 . S
O80 C84 1.253 . S
H81 C77 0.931 . S
H82 C78 0.930 . S
O83 Co72 2.039 . S
O83 C73 1.265 . S
C84 O80 1.253 . S
C84 O85 1.227 . S
O85 C84 1.227 . S
N86 Co72 2.140 . S
N86 C89 1.346 . S
N86 C90 1.345 . S
C87 C88 1.387 . S
C87 C91 1.391 . S
C88 C87 1.387 . S
C88 C89 1.369 . S
C88 H97 0.929 1_556 S
C89 N86 1.346 . S
C89 C88 1.369 . S
C89 H92 0.920 1_556 S
C90 N86 1.345 . S
C90 C91 1.371 . S
C90 H93 0.931 . S
C91 C87 1.391 . S
C91 C90 1.371 . S
C91 H98 0.930 . S
H92 C89 0.920 1_554 S
H93 C90 0.931 . S
H94 C70 0.930 . S
H95 C67 0.930 . S
H96 C76 0.930 . S
H97 C88 0.929 1_554 S
H98 C91 0.930 . S
C99 C100 1.351 . S
C99 N102 1.368 . S
C99 H104 0.931 . S
C100 C99 1.351 . S
C100 N101 1.373 . S
C100 H128 0.930 . S
N101 C100 1.373 . S
N101 C103 1.340 . S
N102 C99 1.368 . S
N102 C103 1.321 . S
N102 Co105 2.135 . S
C103 N101 1.340 . S
C103 N102 1.321 . S
C103 H127 0.930 . S
H104 C99 0.931 . S
Co105 N102 2.135 . S
Co105 N108 2.121 . S
Co105 O113 2.055 . S
Co105 O116 2.039 . S
Co105 N119 2.140 . S
C106 O107 1.227 . S
C106 O116 1.265 . S
O107 C106 1.227 . S
N108 Co105 2.121 . S
N108 C110 1.375 . S
N108 C111 1.313 . S
C109 C110 1.338 . S
C109 N112 1.377 . S
C109 H129 0.930 . S
C110 N108 1.375 . S
C110 C109 1.338 . S
C110 H114 0.931 . S
C111 N108 1.313 . S
C111 N112 1.344 . S
C111 H115 0.930 . S
N112 C109 1.377 . S
N112 C111 1.344 . S
O113 Co105 2.055 . S
O113 C117 1.253 . S
H114 C110 0.931 . S
H115 C111 0.930 . S
O116 Co105 2.039 . S
O116 C106 1.265 . S
C117 O113 1.253 . S
C117 O118 1.227 . S
O118 C117 1.227 . S
N119 Co105 2.140 . S
N119 C122 1.346 . S
N119 C123 1.345 . S
C120 C121 1.387 . S
C120 C124 1.391 . S
C121 C120 1.387 . S
C121 C122 1.369 . S
C121 H130 0.929 . S
C122 N119 1.346 . S
C122 C121 1.369 . S
C122 H125 0.928 . S
C123 N119 1.345 . S
C123 C124 1.371 . S
C123 H126 0.931 . S
C124 C120 1.391 . S
C124 C123 1.371 . S
C124 H131 0.930 . S
H125 C122 0.928 . S
H126 C123 0.931 . S
H127 C103 0.930 . S
H128 C100 0.930 . S
H129 C109 0.930 . S
H130 C121 0.929 . S
H131 C124 0.930 . S
C132 C133 1.351 . S
C132 N135 1.368 . S
C132 H137 0.931 . S
C133 C132 1.351 . S
C133 N134 1.373 . S
C133 H161 0.930 . S
N134 C133 1.373 . S
N134 C136 1.340 . S
N135 C132 1.368 . S
N135 C136 1.321 . S
N135 Co138 2.135 . S
C136 N134 1.340 . S
C136 N135 1.321 . S
C136 H160 0.930 . S
H137 C132 0.931 . S
Co138 N135 2.135 . S
Co138 N141 2.121 . S
Co138 O146 2.055 . S
Co138 O149 2.039 . S
Co138 N152 2.140 . S
C139 O140 1.227 . S
C139 O149 1.265 . S
O140 C139 1.227 . S
N141 Co138 2.121 . S
N141 C143 1.375 . S
N141 C144 1.313 . S
C142 C143 1.338 . S
C142 N145 1.377 . S
C142 H162 0.930 . S
C143 N141 1.375 . S
C143 C142 1.338 . S
C143 H147 0.931 . S
C144 N141 1.313 . S
C144 N145 1.344 . S
C144 H148 0.930 . S
N145 C142 1.377 . S
N145 C144 1.344 . S
O146 Co138 2.055 . S
O146 C150 1.253 . S
H147 C143 0.931 . S
H148 C144 0.930 . S
O149 Co138 2.039 . S
O149 C139 1.265 . S
C150 O146 1.253 . S
C150 O151 1.227 . S
O151 C150 1.227 . S
N152 Co138 2.140 . S
N152 C155 1.346 . S
N152 C156 1.345 . S
C153 C154 1.387 . S
C153 C157 1.391 . S
C154 C153 1.387 . S
C154 C155 1.369 . S
C154 H163 0.929 . S
C155 N152 1.346 . S
C155 C154 1.369 . S
C155 H158 0.928 . S
C156 N152 1.345 . S
C156 C157 1.371 . S
C156 H159 0.931 . S
C157 C153 1.391 . S
C157 C156 1.371 . S
C157 H164 0.930 . S
H158 C155 0.928 . S
H159 C156 0.931 . S
H160 C136 0.930 . S
H161 C133 0.930 . S
H162 C142 0.930 . S
H163 C154 0.929 . S
H164 C157 0.930 . S
C165 C166 1.351 . S
C165 N168 1.368 . S
C165 H170 0.931 1_554 S
C166 C165 1.351 . S
C166 N167 1.373 . S
C166 H194 0.930 . S
N167 C166 1.373 . S
N167 C169 1.340 . S
N168 C165 1.368 . S
N168 C169 1.321 . S
N168 Co171 2.135 1_554 S
C169 N167 1.340 . S
C169 N168 1.321 . S
C169 H193 0.930 . S
H170 C165 0.931 1_556 S
Co171 N168 2.135 1_556 S
Co171 N174 2.121 . S
Co171 O179 2.055 . S
Co171 O182 2.039 . S
Co171 N185 2.140 . S
C172 O173 1.227 . S
C172 O182 1.265 . S
O173 C172 1.227 . S
N174 Co171 2.121 . S
N174 C176 1.375 . S
N174 C177 1.313 . S
C175 C176 1.338 . S
C175 N178 1.377 . S
C175 H195 0.930 . S
C176 N174 1.375 . S
C176 C175 1.338 . S
C176 H180 0.931 . S
C177 N174 1.313 . S
C177 N178 1.344 . S
C177 H181 0.930 . S
N178 C175 1.377 . S
N178 C177 1.344 . S
O179 Co171 2.055 . S
O179 C183 1.253 . S
H180 C176 0.931 . S
H181 C177 0.930 . S
O182 Co171 2.039 . S
O182 C172 1.265 . S
C183 O179 1.253 . S
C183 O184 1.227 . S
O184 C183 1.227 . S
N185 Co171 2.140 . S
N185 C188 1.346 . S
N185 C189 1.345 . S
C186 C187 1.387 . S
C186 C190 1.391 . S
C187 C186 1.387 . S
C187 C188 1.369 . S
C187 H196 0.929 1_556 S
C188 N185 1.346 . S
C188 C187 1.369 . S
C188 H191 0.921 1_556 S
C189 N185 1.345 . S
C189 C190 1.371 . S
C189 H192 0.931 . S
C190 C186 1.391 . S
C190 C189 1.371 . S
C190 H197 0.930 . S
H191 C188 0.921 1_554 S
H192 C189 0.931 . S
H193 C169 0.930 . S
H194 C166 0.930 . S
H195 C175 0.930 . S
H196 C187 0.929 1_554 S
H197 C190 0.930 . S
C198 C199 1.351 . S
C198 N201 1.368 . S
C198 H203 0.931 . S
C199 C198 1.351 . S
C199 N200 1.373 . S
C199 H227 0.930 . S
N200 C199 1.373 . S
N200 C202 1.340 . S
N201 C198 1.368 . S
N201 C202 1.321 . S
N201 Co204 2.135 . S
C202 N200 1.340 . S
C202 N201 1.321 . S
C202 H226 0.930 . S
H203 C198 0.931 . S
Co204 N201 2.135 . S
Co204 N207 2.121 . S
Co204 O212 2.055 . S
Co204 O215 2.039 . S
Co204 N218 2.140 . S
C205 O206 1.227 . S
C205 O215 1.265 . S
O206 C205 1.227 . S
N207 Co204 2.121 . S
N207 C209 1.375 . S
N207 C210 1.313 . S
C208 C209 1.338 . S
C208 N211 1.377 . S
C208 H228 0.930 . S
C209 N207 1.375 . S
C209 C208 1.338 . S
C209 H213 0.931 . S
C210 N207 1.313 . S
C210 N211 1.344 . S
C210 H214 0.930 . S
N211 C208 1.377 . S
N211 C210 1.344 . S
O212 Co204 2.055 . S
O212 C216 1.253 . S
H213 C209 0.931 . S
H214 C210 0.930 . S
O215 Co204 2.039 . S
O215 C205 1.265 . S
C216 O212 1.253 . S
C216 O217 1.227 . S
O217 C216 1.227 . S
N218 Co204 2.140 . S
N218 C221 1.346 . S
N218 C222 1.345 . S
C219 C220 1.387 . S
C219 C223 1.391 . S
C220 C219 1.387 . S
C220 C221 1.369 . S
C220 H229 0.929 . S
C221 N218 1.346 . S
C221 C220 1.369 . S
C221 H224 0.928 . S
C222 N218 1.345 . S
C222 C223 1.371 . S
C222 H225 0.931 . S
C223 C219 1.391 . S
C223 C222 1.371 . S
C223 H230 0.930 . S
H224 C221 0.928 . S
H225 C222 0.931 . S
H226 C202 0.930 . S
H227 C199 0.930 . S
H228 C208 0.930 . S
H229 C220 0.929 . S
H230 C223 0.930 . S
C231 C232 1.351 . S
C231 N234 1.368 . S
C231 H236 0.931 . S
C232 C231 1.351 . S
C232 N233 1.373 . S
C232 H260 0.930 . S
N233 C232 1.373 . S
N233 C235 1.340 . S
N234 C231 1.368 . S
N234 C235 1.321 . S
N234 Co237 2.135 . S
C235 N233 1.340 . S
C235 N234 1.321 . S
C235 H259 0.930 . S
H236 C231 0.931 . S
Co237 N234 2.135 . S
Co237 N240 2.121 . S
Co237 O245 2.055 . S
Co237 O248 2.039 . S
Co237 N251 2.140 . S
C238 O239 1.227 . S
C238 O248 1.265 . S
O239 C238 1.227 . S
N240 Co237 2.121 . S
N240 C242 1.375 . S
N240 C243 1.313 . S
C241 C242 1.338 . S
C241 N244 1.377 . S
C241 H261 0.930 . S
C242 N240 1.375 . S
C242 C241 1.338 . S
C242 H246 0.931 . S
C243 N240 1.313 . S
C243 N244 1.344 . S
C243 H247 0.930 . S
N244 C241 1.377 . S
N244 C243 1.344 . S
O245 Co237 2.055 . S
O245 C249 1.253 . S
H246 C242 0.931 . S
H247 C243 0.930 . S
O248 Co237 2.039 . S
O248 C238 1.265 . S
C249 O245 1.253 . S
C249 O250 1.227 . S
O250 C249 1.227 . S
N251 Co237 2.140 . S
N251 C254 1.346 . S
N251 C255 1.345 . S
C252 C253 1.387 . S
C252 C256 1.391 . S
C253 C252 1.387 . S
C253 C254 1.369 . S
C253 H262 0.929 . S
C254 N251 1.346 . S
C254 C253 1.369 . S
C254 H257 0.928 . S
C255 N251 1.345 . S
C255 C256 1.371 . S
C255 H258 0.931 . S
C256 C252 1.391 . S
C256 C255 1.371 . S
C256 H263 0.930 . S
H257 C254 0.928 . S
H258 C255 0.931 . S
H259 C235 0.930 . S
H260 C232 0.930 . S
H261 C241 0.930 . S
H262 C253 0.929 . S
H263 C256 0.930 . S
C264 C265 1.351 . S
C264 N267 1.368 . S
C264 H269 0.931 1_556 S
C265 C264 1.351 . S
C265 N266 1.373 . S
C265 H293 0.930 . S
N266 C265 1.373 . S
N266 C268 1.340 . S
N267 C264 1.368 . S
N267 C268 1.321 . S
N267 Co270 2.135 1_556 S
C268 N266 1.340 . S
C268 N267 1.321 . S
C268 H292 0.930 . S
H269 C264 0.931 1_554 S
Co270 N267 2.135 1_554 S
Co270 N273 2.121 . S
Co270 O278 2.055 . S
Co270 O281 2.039 . S
Co270 N284 2.140 . S
C271 O272 1.227 . S
C271 O281 1.265 . S
O272 C271 1.227 . S
N273 Co270 2.121 . S
N273 C275 1.375 . S
N273 C276 1.313 . S
C274 C275 1.338 . S
C274 N277 1.377 . S
C274 H294 0.930 . S
C275 N273 1.375 . S
C275 C274 1.338 . S
C275 H279 0.931 . S
C276 N273 1.313 . S
C276 N277 1.344 . S
C276 H280 0.930 . S
N277 C274 1.377 . S
N277 C276 1.344 . S
O278 Co270 2.055 . S
O278 C282 1.253 . S
H279 C275 0.931 . S
H280 C276 0.930 . S
O281 Co270 2.039 . S
O281 C271 1.265 . S
C282 O278 1.253 . S
C282 O283 1.227 . S
O283 C282 1.227 . S
N284 Co270 2.140 . S
N284 C287 1.346 . S
N284 C288 1.345 . S
C285 C286 1.387 . S
C285 C289 1.391 . S
C286 C285 1.387 . S
C286 C287 1.369 . S
C286 H295 0.929 1_554 S
C287 N284 1.346 . S
C287 C286 1.369 . S
C287 H290 0.920 1_554 S
C288 N284 1.345 . S
C288 C289 1.371 . S
C288 H291 0.931 . S
C289 C285 1.391 . S
C289 C288 1.371 . S
C289 H296 0.930 . S
H290 C287 0.920 1_556 S
H291 C288 0.931 . S
H292 C268 0.930 . S
H293 C265 0.930 . S
H294 C274 0.930 . S
H295 C286 0.929 1_556 S
H296 C289 0.930 . S
C297 C298 1.351 . S
C297 N300 1.368 . S
C297 H302 0.931 . S
C298 C297 1.351 . S
C298 N299 1.373 . S
C298 H326 0.930 . S
N299 C298 1.373 . S
N299 C301 1.340 . S
N300 C297 1.368 . S
N300 C301 1.321 . S
N300 Co303 2.135 . S
C301 N299 1.340 . S
C301 N300 1.321 . S
C301 H325 0.930 . S
H302 C297 0.931 . S
Co303 N300 2.135 . S
Co303 N306 2.121 . S
Co303 O311 2.055 . S
Co303 O314 2.039 . S
Co303 N317 2.140 . S
C304 O305 1.227 . S
C304 O314 1.265 . S
O305 C304 1.227 . S
N306 Co303 2.121 . S
N306 C308 1.375 . S
N306 C309 1.313 . S
C307 C308 1.338 . S
C307 N310 1.377 . S
C307 H327 0.930 . S
C308 N306 1.375 . S
C308 C307 1.338 . S
C308 H312 0.931 . S
C309 N306 1.313 . S
C309 N310 1.344 . S
C309 H313 0.930 . S
N310 C307 1.377 . S
N310 C309 1.344 . S
O311 Co303 2.055 . S
O311 C315 1.253 . S
H312 C308 0.931 . S
H313 C309 0.930 . S
O314 Co303 2.039 . S
O314 C304 1.265 . S
C315 O311 1.253 . S
C315 O316 1.227 . S
O316 C315 1.227 . S
N317 Co303 2.140 . S
N317 C320 1.346 . S
N317 C321 1.345 . S
C318 C319 1.387 . S
C318 C322 1.391 . S
C319 C318 1.387 . S
C319 C320 1.369 . S
C319 H328 0.929 . S
C320 N317 1.346 . S
C320 C319 1.369 . S
C320 H323 0.928 . S
C321 N317 1.345 . S
C321 C322 1.371 . S
C321 H324 0.931 . S
C322 C318 1.391 . S
C322 C321 1.371 . S
C322 H329 0.930 . S
H323 C320 0.928 . S
H324 C321 0.931 . S
H325 C301 0.930 . S
H326 C298 0.930 . S
H327 C307 0.930 . S
H328 C319 0.929 . S
H329 C322 0.930 . S
C330 C331 1.351 . S
C330 N333 1.368 . S
C330 H335 0.931 . S
C331 C330 1.351 . S
C331 N332 1.373 . S
C331 H359 0.930 . S
N332 C331 1.373 . S
N332 C334 1.340 . S
N333 C330 1.368 . S
N333 C334 1.321 . S
N333 Co336 2.135 . S
C334 N332 1.340 . S
C334 N333 1.321 . S
C334 H358 0.930 . S
H335 C330 0.931 . S
Co336 N333 2.135 . S
Co336 N339 2.121 . S
Co336 O344 2.055 . S
Co336 O347 2.039 . S
Co336 N350 2.140 . S
C337 O338 1.227 . S
C337 O347 1.265 . S
O338 C337 1.227 . S
N339 Co336 2.121 . S
N339 C341 1.375 . S
N339 C342 1.313 . S
C340 C341 1.338 . S
C340 N343 1.377 . S
C340 H360 0.930 . S
C341 N339 1.375 . S
C341 C340 1.338 . S
C341 H345 0.931 . S
C342 N339 1.313 . S
C342 N343 1.344 . S
C342 H346 0.930 . S
N343 C340 1.377 . S
N343 C342 1.344 . S
O344 Co336 2.055 . S
O344 C348 1.253 . S
H345 C341 0.931 . S
H346 C342 0.930 . S
O347 Co336 2.039 . S
O347 C337 1.265 . S
C348 O344 1.253 . S
C348 O349 1.227 . S
O349 C348 1.227 . S
N350 Co336 2.140 . S
N350 C353 1.346 . S
N350 C354 1.345 . S
C351 C352 1.387 . S
C351 C355 1.391 . S
C352 C351 1.387 . S
C352 C353 1.369 . S
C352 H361 0.929 . S
C353 N350 1.346 . S
C353 C352 1.369 . S
C353 H356 0.928 . S
C354 N350 1.345 . S
C354 C355 1.371 . S
C354 H357 0.931 . S
C355 C351 1.391 . S
C355 C354 1.371 . S
C355 H362 0.930 . S
H356 C353 0.928 . S
H357 C354 0.931 . S
H358 C334 0.930 . S
H359 C331 0.930 . S
H360 C340 0.930 . S
H361 C352 0.929 . S
H362 C355 0.930 . S
C363 C364 1.351 . S
C363 N366 1.368 . S
C363 H368 0.931 1_556 S
C364 C363 1.351 . S
C364 N365 1.373 . S
C364 H392 0.930 . S
N365 C364 1.373 . S
N365 C367 1.340 . S
N366 C363 1.368 . S
N366 C367 1.321 . S
N366 Co369 2.135 1_556 S
C367 N365 1.340 . S
C367 N366 1.321 . S
C367 H391 0.930 . S
H368 C363 0.931 1_554 S
Co369 N366 2.135 1_554 S
Co369 N372 2.121 . S
Co369 O377 2.055 . S
Co369 O380 2.039 . S
Co369 N383 2.140 . S
C370 O371 1.227 . S
C370 O380 1.265 . S
O371 C370 1.227 . S
N372 Co369 2.121 . S
N372 C374 1.375 . S
N372 C375 1.313 . S
C373 C374 1.338 . S
C373 N376 1.377 . S
C373 H393 0.930 . S
C374 N372 1.375 . S
C374 C373 1.338 . S
C374 H378 0.931 . S
C375 N372 1.313 . S
C375 N376 1.344 . S
C375 H379 0.930 . S
N376 C373 1.377 . S
N376 C375 1.344 . S
O377 Co369 2.055 . S
O377 C381 1.253 . S
H378 C374 0.931 . S
H379 C375 0.930 . S
O380 Co369 2.039 . S
O380 C370 1.265 . S
C381 O377 1.253 . S
C381 O382 1.227 . S
O382 C381 1.227 . S
N383 Co369 2.140 . S
N383 C386 1.346 . S
N383 C387 1.345 . S
C384 C385 1.387 . S
C384 C388 1.391 . S
C385 C384 1.387 . S
C385 C386 1.369 . S
C385 H394 0.929 1_554 S
C386 N383 1.346 . S
C386 C385 1.369 . S
C386 H389 0.920 1_554 S
C387 N383 1.345 . S
C387 C388 1.371 . S
C387 H390 0.931 . S
C388 C384 1.391 . S
C388 C387 1.371 . S
C388 H395 0.930 . S
H389 C386 0.920 1_556 S
H390 C387 0.931 . S
H391 C367 0.930 . S
H392 C364 0.930 . S
H393 C373 0.930 . S
H394 C385 0.929 1_556 S
H395 C388 0.930 . S
H396 C414 0.951 . S
H397 C416 0.951 . S
H398 C418 0.950 . S
H399 C419 0.950 . S
H400 C421 0.950 . S
H401 C424 0.950 . S
H402 C425 0.950 . S
H403 C427 0.950 . S
H404 C428 0.950 . S
H405 C429 0.951 . S
H406 C431 0.951 . S
H407 C433 0.950 . S
H408 C434 0.950 . S
H409 C436 0.950 . S
H410 C439 0.950 . S
H411 C440 0.950 . S
H412 C442 0.950 . S
H413 C443 0.950 . S
C414 H396 0.951 . S
C414 C415 1.366 . S
C414 C416 1.388 . S
C415 C414 1.366 . S
C415 C419 1.385 . S
C416 H397 0.951 . S
C416 C414 1.388 . S
C416 C417 1.366 . S
C417 C416 1.366 . S
C417 C418 1.414 . S
C417 C420 1.499 . S
C418 H398 0.950 . S
C418 C417 1.414 . S
C418 C419 1.374 . S
C419 H399 0.950 . S
C419 C415 1.385 . S
C419 C418 1.374 . S
C420 C417 1.499 . S
C420 C421 1.373 1_554 S
C420 C422 1.389 . S
C421 H400 0.950 . S
C421 C420 1.373 1_556 S
C421 C437 1.377 . S
C422 C420 1.389 . S
C422 C423 1.524 . S
C422 C436 1.377 . S
C423 C422 1.524 . S
C423 C424 1.397 . S
C423 C428 1.363 . S
C424 H401 0.950 . S
C424 C423 1.397 . S
C424 C425 1.334 . S
C425 H402 0.950 . S
C425 C424 1.334 . S
C425 C426 1.287 . S
C426 C425 1.287 . S
C426 C427 1.524 . S
C426 H445 0.913 . S
C427 H403 0.950 . S
C427 C426 1.524 . S
C427 C428 1.415 . S
C428 H404 0.950 . S
C428 C423 1.363 . S
C428 C427 1.415 . S
C429 H405 0.951 . S
C429 C430 1.366 . S
C429 C431 1.388 . S
C430 C429 1.366 . S
C430 C434 1.385 . S
C431 H406 0.951 . S
C431 C429 1.388 . S
C431 C432 1.366 . S
C432 C431 1.366 . S
C432 C433 1.414 . S
C432 C435 1.499 . S
C433 H407 0.950 . S
C433 C432 1.414 . S
C433 C434 1.374 . S
C434 H408 0.950 . S
C434 C430 1.385 . S
C434 C433 1.374 . S
C435 C432 1.499 . S
C435 C436 1.373 1_556 S
C435 C437 1.389 . S
C436 H409 0.950 . S
C436 C422 1.377 . S
C436 C435 1.373 1_554 S
C437 C421 1.377 . S
C437 C435 1.389 . S
C437 C438 1.524 . S
C438 C437 1.524 . S
C438 C439 1.397 . S
C438 C443 1.363 . S
C439 H410 0.950 . S
C439 C438 1.397 . S
C439 C440 1.334 . S
C440 H411 0.950 . S
C440 C439 1.334 . S
C440 C441 1.287 . S
C441 C440 1.287 . S
C441 C442 1.524 . S
C441 H444 0.999 . S
C442 H412 0.950 . S
C442 C441 1.524 . S
C442 C443 1.415 . S
C443 H413 0.950 . S
C443 C438 1.363 . S
C443 C442 1.415 . S
H444 C441 0.999 . S
H445 C426 0.913 . S
H446 C464 0.951 . S
H447 C466 0.951 . S
H448 C468 0.950 . S
H449 C469 0.950 . S
H450 C471 0.950 . S
H451 C474 0.950 . S
H452 C475 0.950 . S
H453 C477 0.950 . S
H454 C478 0.950 . S
H455 C479 0.951 . S
H456 C481 0.951 . S
H457 C483 0.950 . S
H458 C484 0.950 . S
H459 C486 0.950 . S
H460 C489 0.950 . S
H461 C490 0.950 . S
H462 C492 0.950 . S
H463 C493 0.950 . S
C464 H446 0.951 . S
C464 C465 1.366 . S
C464 C466 1.388 . S
C465 C464 1.366 . S
C465 C469 1.385 . S
C466 H447 0.951 . S
C466 C464 1.388 . S
C466 C467 1.366 . S
C467 C466 1.366 . S
C467 C468 1.414 . S
C467 C470 1.499 . S
C468 H448 0.950 . S
C468 C467 1.414 . S
C468 C469 1.374 . S
C469 H449 0.950 . S
C469 C465 1.385 . S
C469 C468 1.374 . S
C470 C467 1.499 . S
C470 C471 1.373 . S
C470 C472 1.389 . S
C471 H450 0.950 . S
C471 C470 1.373 . S
C471 C487 1.377 . S
C472 C470 1.389 . S
C472 C473 1.524 . S
C472 C486 1.377 . S
C473 C472 1.524 . S
C473 C474 1.397 . S
C473 C478 1.363 . S
C474 H451 0.950 . S
C474 C473 1.397 . S
C474 C475 1.334 . S
C475 H452 0.950 . S
C475 C474 1.334 . S
C475 C476 1.287 . S
C476 C475 1.287 . S
C476 C477 1.524 . S
C476 H495 0.913 . S
C477 H453 0.950 . S
C477 C476 1.524 . S
C477 C478 1.415 . S
C478 H454 0.950 . S
C478 C473 1.363 . S
C478 C477 1.415 . S
C479 H455 0.951 . S
C479 C480 1.366 . S
C479 C481 1.388 . S
C480 C479 1.366 . S
C480 C484 1.385 . S
C481 H456 0.951 . S
C481 C479 1.388 . S
C481 C482 1.366 . S
C482 C481 1.366 . S
C482 C483 1.414 . S
C482 C485 1.499 . S
C483 H457 0.950 . S
C483 C482 1.414 . S
C483 C484 1.374 . S
C484 H458 0.950 . S
C484 C480 1.385 . S
C484 C483 1.374 . S
C485 C482 1.499 . S
C485 C486 1.373 . S
C485 C487 1.389 . S
C486 H459 0.950 . S
C486 C472 1.377 . S
C486 C485 1.373 . S
C487 C471 1.377 . S
C487 C485 1.389 . S
C487 C488 1.524 . S
C488 C487 1.524 . S
C488 C489 1.397 . S
C488 C493 1.363 . S
C489 H460 0.950 . S
C489 C488 1.397 . S
C489 C490 1.334 . S
C490 H461 0.950 . S
C490 C489 1.334 . S
C490 C491 1.287 . S
C491 C490 1.287 . S
C491 C492 1.524 . S
C491 H494 0.999 . S
C492 H462 0.950 . S
C492 C491 1.524 . S
C492 C493 1.415 . S
C493 H463 0.950 . S
C493 C488 1.363 . S
C493 C492 1.415 . S
H494 C491 0.999 . S
H495 C476 0.913 . S
H496 C514 0.951 . S
H497 C516 0.951 . S
H498 C518 0.950 . S
H499 C519 0.950 . S
H500 C521 0.950 . S
H501 C524 0.950 . S
H502 C525 0.950 . S
H503 C527 0.950 . S
H504 C528 0.950 . S
H505 C529 0.951 . S
H506 C531 0.951 . S
H507 C533 0.950 . S
H508 C534 0.950 . S
H509 C536 0.950 . S
H510 C539 0.950 . S
H511 C540 0.950 . S
H512 C542 0.950 . S
H513 C543 0.950 . S
C514 H496 0.951 . S
C514 C515 1.366 . S
C514 C516 1.388 . S
C515 C514 1.366 . S
C515 C519 1.385 . S
C516 H497 0.951 . S
C516 C514 1.388 . S
C516 C517 1.366 . S
C517 C516 1.366 . S
C517 C518 1.414 . S
C517 C520 1.499 . S
C518 H498 0.950 . S
C518 C517 1.414 . S
C518 C519 1.374 . S
C519 H499 0.950 . S
C519 C515 1.385 . S
C519 C518 1.374 . S
C520 C517 1.499 . S
C520 C521 1.373 . S
C520 C522 1.389 . S
C521 H500 0.950 . S
C521 C520 1.373 . S
C521 C537 1.377 . S
C522 C520 1.389 . S
C522 C523 1.524 . S
C522 C536 1.377 . S
C523 C522 1.524 . S
C523 C524 1.397 . S
C523 C528 1.363 . S
C524 H501 0.950 . S
C524 C523 1.397 . S
C524 C525 1.334 . S
C525 H502 0.950 . S
C525 C524 1.334 . S
C525 C526 1.287 . S
C526 C525 1.287 . S
C526 C527 1.524 . S
C526 H545 0.913 . S
C527 H503 0.950 . S
C527 C526 1.524 . S
C527 C528 1.415 . S
C528 H504 0.950 . S
C528 C523 1.363 . S
C528 C527 1.415 . S
C529 H505 0.951 . S
C529 C530 1.366 . S
C529 C531 1.388 . S
C530 C529 1.366 . S
C530 C534 1.385 . S
C531 H506 0.951 . S
C531 C529 1.388 . S
C531 C532 1.366 . S
C532 C531 1.366 . S
C532 C533 1.414 . S
C532 C535 1.499 . S
C533 H507 0.950 . S
C533 C532 1.414 . S
C533 C534 1.374 . S
C534 H508 0.950 . S
C534 C530 1.385 . S
C534 C533 1.374 . S
C535 C532 1.499 . S
C535 C536 1.373 . S
C535 C537 1.389 . S
C536 H509 0.950 . S
C536 C522 1.377 . S
C536 C535 1.373 . S
C537 C521 1.377 . S
C537 C535 1.389 . S
C537 C538 1.524 . S
C538 C537 1.524 . S
C538 C539 1.397 . S
C538 C543 1.363 . S
C539 H510 0.950 . S
C539 C538 1.397 . S
C539 C540 1.334 . S
C540 H511 0.950 . S
C540 C539 1.334 . S
C540 C541 1.287 . S
C541 C540 1.287 . S
C541 C542 1.524 . S
C541 H544 0.999 . S
C542 H512 0.950 . S
C542 C541 1.524 . S
C542 C543 1.415 . S
C543 H513 0.950 . S
C543 C538 1.363 . S
C543 C542 1.415 . S
H544 C541 0.999 . S
H545 C526 0.913 . S
H546 C564 0.951 . S
H547 C566 0.951 . S
H548 C568 0.950 . S
H549 C569 0.950 . S
H550 C571 0.950 . S
H551 C574 0.950 . S
H552 C575 0.950 . S
H553 C577 0.950 . S
H554 C578 0.950 . S
H555 C579 0.951 . S
H556 C581 0.951 . S
H557 C583 0.950 . S
H558 C584 0.950 . S
H559 C586 0.950 . S
H560 C589 0.950 . S
H561 C590 0.950 . S
H562 C592 0.950 . S
H563 C593 0.950 . S
C564 H546 0.951 . S
C564 C565 1.366 . S
C564 C566 1.388 . S
C565 C564 1.366 . S
C565 C569 1.385 . S
C566 H547 0.951 . S
C566 C564 1.388 . S
C566 C567 1.366 . S
C567 C566 1.366 . S
C567 C568 1.414 . S
C567 C570 1.499 . S
C568 H548 0.950 . S
C568 C567 1.414 . S
C568 C569 1.374 . S
C569 H549 0.950 . S
C569 C565 1.385 . S
C569 C568 1.374 . S
C570 C567 1.499 . S
C570 C571 1.373 . S
C570 C572 1.389 . S
C571 H550 0.950 . S
C571 C570 1.373 . S
C571 C587 1.377 1_556 S
C572 C570 1.389 . S
C572 C573 1.524 . S
C572 C586 1.377 1_556 S
C573 C572 1.524 . S
C573 C574 1.397 . S
C573 C578 1.363 . S
C574 H551 0.950 . S
C574 C573 1.397 . S
C574 C575 1.334 . S
C575 H552 0.950 . S
C575 C574 1.334 . S
C575 C576 1.287 . S
C576 C575 1.287 . S
C576 C577 1.524 . S
C576 H595 0.913 . S
C577 H553 0.950 . S
C577 C576 1.524 . S
C577 C578 1.415 . S
C578 H554 0.950 . S
C578 C573 1.363 . S
C578 C577 1.415 . S
C579 H555 0.951 . S
C579 C580 1.366 . S
C579 C581 1.388 . S
C580 C579 1.366 . S
C580 C584 1.385 . S
C581 H556 0.951 . S
C581 C579 1.388 . S
C581 C582 1.366 . S
C582 C581 1.366 . S
C582 C583 1.414 . S
C582 C585 1.499 . S
C583 H557 0.950 . S
C583 C582 1.414 . S
C583 C584 1.374 . S
C584 H558 0.950 . S
C584 C580 1.385 . S
C584 C583 1.374 . S
C585 C582 1.499 . S
C585 C586 1.373 . S
C585 C587 1.389 . S
C586 H559 0.950 . S
C586 C572 1.377 1_554 S
C586 C585 1.373 . S
C587 C571 1.377 1_554 S
C587 C585 1.389 . S
C587 C588 1.524 . S
C588 C587 1.524 . S
C588 C589 1.397 . S
C588 C593 1.363 . S
C589 H560 0.950 . S
C589 C588 1.397 . S
C589 C590 1.334 . S
C590 H561 0.950 . S
C590 C589 1.334 . S
C590 C591 1.287 . S
C591 C590 1.287 . S
C591 C592 1.524 . S
C591 H594 0.999 . S
C592 H562 0.950 . S
C592 C591 1.524 . S
C592 C593 1.415 . S
C593 H563 0.950 . S
C593 C588 1.363 . S
C593 C592 1.415 . S
H594 C591 0.999 . S
H595 C576 0.913 . S
H596 C614 0.951 . S
H597 C616 0.951 . S
H598 C618 0.950 . S
H599 C619 0.950 . S
H600 C621 0.950 . S
H601 C624 0.950 . S
H602 C625 0.950 . S
H603 C627 0.950 . S
H604 C628 0.950 . S
H605 C629 0.951 . S
H606 C631 0.951 . S
H607 C633 0.950 . S
H608 C634 0.950 . S
H609 C636 0.950 . S
H610 C639 0.950 . S
H611 C640 0.950 . S
H612 C642 0.950 . S
H613 C643 0.950 . S
C614 H596 0.951 . S
C614 C615 1.366 . S
C614 C616 1.388 . S
C615 C614 1.366 . S
C615 C619 1.385 . S
C616 H597 0.951 . S
C616 C614 1.388 . S
C616 C617 1.366 . S
C617 C616 1.366 . S
C617 C618 1.414 . S
C617 C620 1.499 . S
C618 H598 0.950 . S
C618 C617 1.414 . S
C618 C619 1.374 . S
C619 H599 0.950 . S
C619 C615 1.385 . S
C619 C618 1.374 . S
C620 C617 1.499 . S
C620 C621 1.373 . S
C620 C622 1.389 . S
C621 H600 0.950 . S
C621 C620 1.373 . S
C621 C637 1.377 . S
C622 C620 1.389 . S
C622 C623 1.524 . S
C622 C636 1.377 . S
C623 C622 1.524 . S
C623 C624 1.397 . S
C623 C628 1.363 . S
C624 H601 0.950 . S
C624 C623 1.397 . S
C624 C625 1.334 . S
C625 H602 0.950 . S
C625 C624 1.334 . S
C625 C626 1.287 . S
C626 C625 1.287 . S
C626 C627 1.524 . S
C626 H645 0.913 . S
C627 H603 0.950 . S
C627 C626 1.524 . S
C627 C628 1.415 . S
C628 H604 0.950 . S
C628 C623 1.363 . S
C628 C627 1.415 . S
C629 H605 0.951 . S
C629 C630 1.366 . S
C629 C631 1.388 . S
C630 C629 1.366 . S
C630 C634 1.385 . S
C631 H606 0.951 . S
C631 C629 1.388 . S
C631 C632 1.366 . S
C632 C631 1.366 . S
C632 C633 1.414 . S
C632 C635 1.499 . S
C633 H607 0.950 . S
C633 C632 1.414 . S
C633 C634 1.374 . S
C634 H608 0.950 . S
C634 C630 1.385 . S
C634 C633 1.374 . S
C635 C632 1.499 . S
C635 C636 1.373 . S
C635 C637 1.389 . S
C636 H609 0.950 . S
C636 C622 1.377 . S
C636 C635 1.373 . S
C637 C621 1.377 . S
C637 C635 1.389 . S
C637 C638 1.524 . S
C638 C637 1.524 . S
C638 C639 1.397 . S
C638 C643 1.363 . S
C639 H610 0.950 . S
C639 C638 1.397 . S
C639 C640 1.334 . S
C640 H611 0.950 . S
C640 C639 1.334 . S
C640 C641 1.287 . S
C641 C640 1.287 . S
C641 C642 1.524 . S
C641 H644 0.999 . S
C642 H612 0.950 . S
C642 C641 1.524 . S
C642 C643 1.415 . S
C643 H613 0.950 . S
C643 C638 1.363 . S
C643 C642 1.415 . S
H644 C641 0.999 . S
H645 C626 0.913 . S
H646 C664 0.951 . S
H647 C666 0.951 . S
H648 C668 0.950 . S
H649 C669 0.950 . S
H650 C671 0.950 . S
H651 C674 0.950 . S
H652 C675 0.950 . S
H653 C677 0.950 . S
H654 C678 0.950 . S
H655 C679 0.951 . S
H656 C681 0.951 . S
H657 C683 0.950 . S
H658 C684 0.950 . S
H659 C686 0.950 . S
H660 C689 0.950 . S
H661 C690 0.950 . S
H662 C692 0.950 . S
H663 C693 0.950 . S
C664 H646 0.951 . S
C664 C665 1.366 . S
C664 C666 1.388 . S
C665 C664 1.366 . S
C665 C669 1.385 . S
C666 H647 0.951 . S
C666 C664 1.388 . S
C666 C667 1.366 . S
C667 C666 1.366 . S
C667 C668 1.414 . S
C667 C670 1.499 . S
C668 H648 0.950 . S
C668 C667 1.414 . S
C668 C669 1.374 . S
C669 H649 0.950 . S
C669 C665 1.385 . S
C669 C668 1.374 . S
C670 C667 1.499 . S
C670 C671 1.373 . S
C670 C672 1.389 . S
C671 H650 0.950 . S
C671 C670 1.373 . S
C671 C687 1.377 . S
C672 C670 1.389 . S
C672 C673 1.524 . S
C672 C686 1.377 . S
C673 C672 1.524 . S
C673 C674 1.397 . S
C673 C678 1.363 . S
C674 H651 0.950 . S
C674 C673 1.397 . S
C674 C675 1.334 . S
C675 H652 0.950 . S
C675 C674 1.334 . S
C675 C676 1.287 . S
C676 C675 1.287 . S
C676 C677 1.524 . S
C676 H695 0.913 . S
C677 H653 0.950 . S
C677 C676 1.524 . S
C677 C678 1.415 . S
C678 H654 0.950 . S
C678 C673 1.363 . S
C678 C677 1.415 . S
C679 H655 0.951 . S
C679 C680 1.366 . S
C679 C681 1.388 . S
C680 C679 1.366 . S
C680 C684 1.385 . S
C681 H656 0.951 . S
C681 C679 1.388 . S
C681 C682 1.366 . S
C682 C681 1.366 . S
C682 C683 1.414 . S
C682 C685 1.499 . S
C683 H657 0.950 . S
C683 C682 1.414 . S
C683 C684 1.374 . S
C684 H658 0.950 . S
C684 C680 1.385 . S
C684 C683 1.374 . S
C685 C682 1.499 . S
C685 C686 1.373 . S
C685 C687 1.389 . S
C686 H659 0.950 . S
C686 C672 1.377 . S
C686 C685 1.373 . S
C687 C671 1.377 . S
C687 C685 1.389 . S
C687 C688 1.524 . S
C688 C687 1.524 . S
C688 C689 1.397 . S
C688 C693 1.363 . S
C689 H660 0.950 . S
C689 C688 1.397 . S
C689 C690 1.334 . S
C690 H661 0.950 . S
C690 C689 1.334 . S
C690 C691 1.287 . S
C691 C690 1.287 . S
C691 C692 1.524 . S
C691 H694 0.999 . S
C692 H662 0.950 . S
C692 C691 1.524 . S
C692 C693 1.415 . S
C693 H663 0.950 . S
C693 C688 1.363 . S
C693 C692 1.415 . S
H694 C691 0.999 . S
H695 C676 0.913 . S
H696 C714 0.951 . S
H697 C716 0.951 . S
H698 C718 0.950 . S
H699 C719 0.950 . S
H700 C721 0.950 . S
H701 C724 0.950 . S
H702 C725 0.950 . S
H703 C727 0.950 . S
H704 C728 0.950 . S
H705 C729 0.951 . S
H706 C731 0.951 . S
H707 C733 0.950 . S
H708 C734 0.950 . S
H709 C736 0.950 . S
H710 C739 0.950 . S
H711 C740 0.950 . S
H712 C742 0.950 . S
H713 C743 0.950 . S
C714 H696 0.951 . S
C714 C715 1.366 . S
C714 C716 1.388 . S
C715 C714 1.366 . S
C715 C719 1.385 . S
C716 H697 0.951 . S
C716 C714 1.388 . S
C716 C717 1.366 . S
C717 C716 1.366 . S
C717 C718 1.414 . S
C717 C720 1.499 . S
C718 H698 0.950 . S
C718 C717 1.414 . S
C718 C719 1.374 . S
C719 H699 0.950 . S
C719 C715 1.385 . S
C719 C718 1.374 . S
C720 C717 1.499 . S
C720 C721 1.373 . S
C720 C722 1.389 . S
C721 H700 0.950 . S
C721 C720 1.373 . S
C721 C737 1.377 . S
C722 C720 1.389 . S
C722 C723 1.524 . S
C722 C736 1.377 . S
C723 C722 1.524 . S
C723 C724 1.397 . S
C723 C728 1.363 . S
C724 H701 0.950 . S
C724 C723 1.397 . S
C724 C725 1.334 . S
C725 H702 0.950 . S
C725 C724 1.334 . S
C725 C726 1.287 . S
C726 C725 1.287 . S
C726 C727 1.524 . S
C726 H745 0.913 . S
C727 H703 0.950 . S
C727 C726 1.524 . S
C727 C728 1.415 . S
C728 H704 0.950 . S
C728 C723 1.363 . S
C728 C727 1.415 . S
C729 H705 0.951 . S
C729 C730 1.366 . S
C729 C731 1.388 . S
C730 C729 1.366 . S
C730 C734 1.385 . S
C731 H706 0.951 . S
C731 C729 1.388 . S
C731 C732 1.366 . S
C732 C731 1.366 . S
C732 C733 1.414 . S
C732 C735 1.499 . S
C733 H707 0.950 . S
C733 C732 1.414 . S
C733 C734 1.374 . S
C734 H708 0.950 . S
C734 C730 1.385 . S
C734 C733 1.374 . S
C735 C732 1.499 . S
C735 C736 1.373 . S
C735 C737 1.389 . S
C736 H709 0.950 . S
C736 C722 1.377 . S
C736 C735 1.373 . S
C737 C721 1.377 . S
C737 C735 1.389 . S
C737 C738 1.524 . S
C738 C737 1.524 . S
C738 C739 1.397 . S
C738 C743 1.363 . S
C739 H710 0.950 . S
C739 C738 1.397 . S
C739 C740 1.334 . S
C740 H711 0.950 . S
C740 C739 1.334 . S
C740 C741 1.287 . S
C741 C740 1.287 . S
C741 C742 1.524 . S
C741 H744 0.999 . S
C742 H712 0.950 . S
C742 C741 1.524 . S
C742 C743 1.415 . S
C743 H713 0.950 . S
C743 C738 1.363 . S
C743 C742 1.415 . S
H744 C741 0.999 . S
H745 C726 0.913 . S
H746 C764 0.951 . S
H747 C766 0.951 . S
H748 C768 0.950 . S
H749 C769 0.950 . S
H750 C771 0.950 . S
H751 C774 0.950 . S
H752 C775 0.950 . S
H753 C777 0.950 . S
H754 C778 0.950 . S
H755 C779 0.951 . S
H756 C781 0.951 . S
H757 C783 0.950 . S
H758 C784 0.950 . S
H759 C786 0.950 . S
H760 C789 0.950 . S
H761 C790 0.950 . S
H762 C792 0.950 . S
H763 C793 0.950 . S
C764 H746 0.951 . S
C764 C765 1.366 . S
C764 C766 1.388 . S
C765 C764 1.366 . S
C765 C769 1.385 . S
C766 H747 0.951 . S
C766 C764 1.388 . S
C766 C767 1.366 . S
C767 C766 1.366 . S
C767 C768 1.414 . S
C767 C770 1.499 . S
C768 H748 0.950 . S
C768 C767 1.414 . S
C768 C769 1.374 . S
C769 H749 0.950 . S
C769 C765 1.385 . S
C769 C768 1.374 . S
C770 C767 1.499 . S
C770 C771 1.373 . S
C770 C772 1.389 . S
C771 H750 0.950 . S
C771 C770 1.373 . S
C771 C787 1.377 . S
C772 C770 1.389 . S
C772 C773 1.524 . S
C772 C786 1.377 . S
C773 C772 1.524 . S
C773 C774 1.397 . S
C773 C778 1.363 . S
C774 H751 0.950 . S
C774 C773 1.397 . S
C774 C775 1.334 . S
C775 H752 0.950 . S
C775 C774 1.334 . S
C775 C776 1.287 . S
C776 C775 1.287 . S
C776 C777 1.524 . S
C776 H795 0.913 . S
C777 H753 0.950 . S
C777 C776 1.524 . S
C777 C778 1.415 . S
C778 H754 0.950 . S
C778 C773 1.363 . S
C778 C777 1.415 . S
C779 H755 0.951 . S
C779 C780 1.366 . S
C779 C781 1.388 . S
C780 C779 1.366 . S
C780 C784 1.385 . S
C781 H756 0.951 . S
C781 C779 1.388 . S
C781 C782 1.366 . S
C782 C781 1.366 . S
C782 C783 1.414 . S
C782 C785 1.499 . S
C783 H757 0.950 . S
C783 C782 1.414 . S
C783 C784 1.374 . S
C784 H758 0.950 . S
C784 C780 1.385 . S
C784 C783 1.374 . S
C785 C782 1.499 . S
C785 C786 1.373 . S
C785 C787 1.389 . S
C786 H759 0.950 . S
C786 C772 1.377 . S
C786 C785 1.373 . S
C787 C771 1.377 . S
C787 C785 1.389 . S
C787 C788 1.524 . S
C788 C787 1.524 . S
C788 C789 1.397 . S
C788 C793 1.363 . S
C789 H760 0.950 . S
C789 C788 1.397 . S
C789 C790 1.334 . S
C790 H761 0.950 . S
C790 C789 1.334 . S
C790 C791 1.287 . S
C791 C790 1.287 . S
C791 C792 1.524 . S
C791 H794 0.999 . S
C792 H762 0.950 . S
C792 C791 1.524 . S
C792 C793 1.415 . S
C793 H763 0.950 . S
C793 C788 1.363 . S
C793 C792 1.415 . S
H794 C791 0.999 . S
H795 C776 0.913 . S
H796 C814 0.951 . S
H797 C816 0.951 . S
H798 C818 0.950 . S
H799 C819 0.950 . S
H800 C821 0.950 . S
H801 C824 0.950 . S
H802 C825 0.950 . S
H803 C827 0.950 . S
H804 C828 0.950 . S
H805 C829 0.951 . S
H806 C831 0.951 . S
H807 C833 0.950 . S
H808 C834 0.950 . S
H809 C836 0.950 . S
H810 C839 0.950 . S
H811 C840 0.950 . S
H812 C842 0.950 . S
H813 C843 0.950 . S
C814 H796 0.951 . S
C814 C815 1.366 . S
C814 C816 1.388 . S
C815 C814 1.366 . S
C815 C819 1.385 1_556 S
C816 H797 0.951 . S
C816 C814 1.388 . S
C816 C817 1.366 . S
C817 C816 1.366 . S
C817 C818 1.414 1_556 S
C817 C820 1.499 . S
C818 H798 0.950 . S
C818 C817 1.414 1_554 S
C818 C819 1.374 . S
C819 H799 0.950 . S
C819 C815 1.385 1_554 S
C819 C818 1.374 . S
C820 C817 1.499 . S
C820 C821 1.373 1_556 S
C820 C822 1.389 . S
C821 H800 0.950 . S
C821 C820 1.373 1_554 S
C821 C837 1.377 . S
C822 C820 1.389 . S
C822 C823 1.524 . S
C822 C836 1.377 . S
C823 C822 1.524 . S
C823 C824 1.397 . S
C823 C828 1.363 . S
C824 H801 0.950 . S
C824 C823 1.397 . S
C824 C825 1.334 . S
C825 H802 0.950 . S
C825 C824 1.334 . S
C825 C826 1.287 . S
C826 C825 1.287 . S
C826 C827 1.524 . S
C826 H845 0.913 . S
C827 H803 0.950 . S
C827 C826 1.524 . S
C827 C828 1.415 . S
C828 H804 0.950 . S
C828 C823 1.363 . S
C828 C827 1.415 . S
C829 H805 0.951 . S
C829 C830 1.366 . S
C829 C831 1.388 . S
C830 C829 1.366 . S
C830 C834 1.385 1_554 S
C831 H806 0.951 . S
C831 C829 1.388 . S
C831 C832 1.366 . S
C832 C831 1.366 . S
C832 C833 1.414 1_554 S
C832 C835 1.499 . S
C833 H807 0.950 . S
C833 C832 1.414 1_556 S
C833 C834 1.374 . S
C834 H808 0.950 . S
C834 C830 1.385 1_556 S
C834 C833 1.374 . S
C835 C832 1.499 . S
C835 C836 1.373 1_554 S
C835 C837 1.389 . S
C836 H809 0.950 . S
C836 C822 1.377 . S
C836 C835 1.373 1_556 S
C837 C821 1.377 . S
C837 C835 1.389 . S
C837 C838 1.524 . S
C838 C837 1.524 . S
C838 C839 1.397 . S
C838 C843 1.363 . S
C839 H810 0.950 . S
C839 C838 1.397 . S
C839 C840 1.334 . S
C840 H811 0.950 . S
C840 C839 1.334 . S
C840 C841 1.287 . S
C841 C840 1.287 . S
C841 C842 1.524 . S
C841 H844 0.999 . S
C842 H812 0.950 . S
C842 C841 1.524 . S
C842 C843 1.415 . S
C843 H813 0.950 . S
C843 C838 1.363 . S
C843 C842 1.415 . S
H844 C841 0.999 . S
H845 C826 0.913 . S
H846 C864 0.951 . S
H847 C866 0.951 . S
H848 C868 0.950 . S
H849 C869 0.950 . S
H850 C871 0.950 . S
H851 C874 0.950 . S
H852 C875 0.950 . S
H853 C877 0.950 . S
H854 C878 0.950 . S
H855 C879 0.951 . S
H856 C881 0.951 . S
H857 C883 0.950 . S
H858 C884 0.950 . S
H859 C886 0.950 . S
H860 C889 0.950 . S
H861 C890 0.950 . S
H862 C892 0.950 . S
H863 C893 0.950 . S
C864 H846 0.951 . S
C864 C865 1.366 . S
C864 C866 1.388 . S
C865 C864 1.366 . S
C865 C869 1.385 . S
C866 H847 0.951 . S
C866 C864 1.388 . S
C866 C867 1.366 . S
C867 C866 1.366 . S
C867 C868 1.414 . S
C867 C870 1.499 . S
C868 H848 0.950 . S
C868 C867 1.414 . S
C868 C869 1.374 . S
C869 H849 0.950 . S
C869 C865 1.385 . S
C869 C868 1.374 . S
C870 C867 1.499 . S
C870 C871 1.373 . S
C870 C872 1.389 . S
C871 H850 0.950 . S
C871 C870 1.373 . S
C871 C887 1.377 . S
C872 C870 1.389 . S
C872 C873 1.524 . S
C872 C886 1.377 . S
C873 C872 1.524 . S
C873 C874 1.397 . S
C873 C878 1.363 . S
C874 H851 0.950 . S
C874 C873 1.397 . S
C874 C875 1.334 . S
C875 H852 0.950 . S
C875 C874 1.334 . S
C875 C876 1.287 . S
C876 C875 1.287 . S
C876 C877 1.524 . S
C876 H895 0.913 . S
C877 H853 0.950 . S
C877 C876 1.524 . S
C877 C878 1.415 . S
C878 H854 0.950 . S
C878 C873 1.363 . S
C878 C877 1.415 . S
C879 H855 0.951 . S
C879 C880 1.366 . S
C879 C881 1.388 . S
C880 C879 1.366 . S
C880 C884 1.385 . S
C881 H856 0.951 . S
C881 C879 1.388 . S
C881 C882 1.366 . S
C882 C881 1.366 . S
C882 C883 1.414 . S
C882 C885 1.499 . S
C883 H857 0.950 . S
C883 C882 1.414 . S
C883 C884 1.374 . S
C884 H858 0.950 . S
C884 C880 1.385 . S
C884 C883 1.374 . S
C885 C882 1.499 . S
C885 C886 1.373 . S
C885 C887 1.389 . S
C886 H859 0.950 . S
C886 C872 1.377 . S
C886 C885 1.373 . S
C887 C871 1.377 . S
C887 C885 1.389 . S
C887 C888 1.524 . S
C888 C887 1.524 . S
C888 C889 1.397 . S
C888 C893 1.363 . S
C889 H860 0.950 . S
C889 C888 1.397 . S
C889 C890 1.334 . S
C890 H861 0.950 . S
C890 C889 1.334 . S
C890 C891 1.287 . S
C891 C890 1.287 . S
C891 C892 1.524 . S
C891 H894 0.999 . S
C892 H862 0.950 . S
C892 C891 1.524 . S
C892 C893 1.415 . S
C893 H863 0.950 . S
C893 C888 1.363 . S
C893 C892 1.415 . S
H894 C891 0.999 . S
H895 C876 0.913 . S
H896 C914 0.951 . S
H897 C916 0.951 . S
H898 C918 0.950 . S
H899 C919 0.950 . S
H900 C921 0.950 . S
H901 C924 0.950 . S
H902 C925 0.950 . S
H903 C927 0.950 . S
H904 C928 0.950 . S
H905 C929 0.951 . S
H906 C931 0.951 . S
H907 C933 0.950 . S
H908 C934 0.950 . S
H909 C936 0.950 . S
H910 C939 0.950 . S
H911 C940 0.950 . S
H912 C942 0.950 . S
H913 C943 0.950 . S
C914 H896 0.951 . S
C914 C915 1.366 . S
C914 C916 1.388 . S
C915 C914 1.366 . S
C915 C919 1.385 . S
C916 H897 0.951 . S
C916 C914 1.388 . S
C916 C917 1.366 . S
C917 C916 1.366 . S
C917 C918 1.414 . S
C917 C920 1.499 . S
C918 H898 0.950 . S
C918 C917 1.414 . S
C918 C919 1.374 . S
C919 H899 0.950 . S
C919 C915 1.385 . S
C919 C918 1.374 . S
C920 C917 1.499 . S
C920 C921 1.373 . S
C920 C922 1.389 . S
C921 H900 0.950 . S
C921 C920 1.373 . S
C921 C937 1.377 . S
C922 C920 1.389 . S
C922 C923 1.524 . S
C922 C936 1.377 . S
C923 C922 1.524 . S
C923 C924 1.397 . S
C923 C928 1.363 . S
C924 H901 0.950 . S
C924 C923 1.397 . S
C924 C925 1.334 . S
C925 H902 0.950 . S
C925 C924 1.334 . S
C925 C926 1.287 . S
C926 C925 1.287 . S
C926 C927 1.524 . S
C926 H945 0.913 . S
C927 H903 0.950 . S
C927 C926 1.524 . S
C927 C928 1.415 . S
C928 H904 0.950 . S
C928 C923 1.363 . S
C928 C927 1.415 . S
C929 H905 0.951 . S
C929 C930 1.366 . S
C929 C931 1.388 . S
C930 C929 1.366 . S
C930 C934 1.385 . S
C931 H906 0.951 . S
C931 C929 1.388 . S
C931 C932 1.366 . S
C932 C931 1.366 . S
C932 C933 1.414 . S
C932 C935 1.499 . S
C933 H907 0.950 . S
C933 C932 1.414 . S
C933 C934 1.374 . S
C934 H908 0.950 . S
C934 C930 1.385 . S
C934 C933 1.374 . S
C935 C932 1.499 . S
C935 C936 1.373 . S
C935 C937 1.389 . S
C936 H909 0.950 . S
C936 C922 1.377 . S
C936 C935 1.373 . S
C937 C921 1.377 . S
C937 C935 1.389 . S
C937 C938 1.524 . S
C938 C937 1.524 . S
C938 C939 1.397 . S
C938 C943 1.363 . S
C939 H910 0.950 . S
C939 C938 1.397 . S
C939 C940 1.334 . S
C940 H911 0.950 . S
C940 C939 1.334 . S
C940 C941 1.287 . S
C941 C940 1.287 . S
C941 C942 1.524 . S
C941 H944 0.999 . S
C942 H912 0.950 . S
C942 C941 1.524 . S
C942 C943 1.415 . S
C943 H913 0.950 . S
C943 C938 1.363 . S
C943 C942 1.415 . S
H944 C941 0.999 . S
H945 C926 0.913 . S
H946 C964 0.951 1_556 S
H947 C966 0.951 . S
H948 C968 0.950 . S
H949 C969 0.950 . S
H950 C971 0.950 . S
H951 C974 0.950 . S
H952 C975 0.950 . S
H953 C977 0.950 . S
H954 C978 0.950 . S
H955 C979 0.951 1_554 S
H956 C981 0.951 . S
H957 C983 0.950 . S
H958 C984 0.950 . S
H959 C986 0.950 . S
H960 C989 0.950 . S
H961 C990 0.950 . S
H962 C992 0.950 . S
H963 C993 0.950 . S
C964 H946 0.951 1_554 S
C964 C965 1.366 . S
C964 C966 1.388 1_554 S
C965 C964 1.366 . S
C965 C969 1.385 . S
C966 H947 0.951 . S
C966 C964 1.388 1_556 S
C966 C967 1.366 1_556 S
C967 C966 1.366 1_554 S
C967 C968 1.414 . S
C967 C970 1.499 . S
C968 H948 0.950 . S
C968 C967 1.414 . S
C968 C969 1.374 . S
C969 H949 0.950 . S
C969 C965 1.385 . S
C969 C968 1.374 . S
C970 C967 1.499 . S
C970 C971 1.373 . S
C970 C972 1.389 1_554 S
C971 H950 0.950 . S
C971 C970 1.373 . S
C971 C987 1.377 . S
C972 C970 1.389 1_556 S
C972 C973 1.524 . S
C972 C986 1.377 . S
C973 C972 1.524 . S
C973 C974 1.397 . S
C973 C978 1.363 . S
C974 H951 0.950 . S
C974 C973 1.397 . S
C974 C975 1.334 . S
C975 H952 0.950 . S
C975 C974 1.334 . S
C975 C976 1.287 . S
C976 C975 1.287 . S
C976 C977 1.524 . S
C976 H995 0.913 . S
C977 H953 0.950 . S
C977 C976 1.524 . S
C977 C978 1.415 . S
C978 H954 0.950 . S
C978 C973 1.363 . S
C978 C977 1.415 . S
C979 H955 0.951 1_556 S
C979 C980 1.366 . S
C979 C981 1.388 1_556 S
C980 C979 1.366 . S
C980 C984 1.385 . S
C981 H956 0.951 . S
C981 C979 1.388 1_554 S
C981 C982 1.366 1_554 S
C982 C981 1.366 1_556 S
C982 C983 1.414 . S
C982 C985 1.499 . S
C983 H957 0.950 . S
C983 C982 1.414 . S
C983 C984 1.374 . S
C984 H958 0.950 . S
C984 C980 1.385 . S
C984 C983 1.374 . S
C985 C982 1.499 . S
C985 C986 1.373 . S
C985 C987 1.389 1_556 S
C986 H959 0.950 . S
C986 C972 1.377 . S
C986 C985 1.373 . S
C987 C971 1.377 . S
C987 C985 1.389 1_554 S
C987 C988 1.524 . S
C988 C987 1.524 . S
C988 C989 1.397 . S
C988 C993 1.363 . S
C989 H960 0.950 . S
C989 C988 1.397 . S
C989 C990 1.334 . S
C990 H961 0.950 . S
C990 C989 1.334 . S
C990 C991 1.287 . S
C991 C990 1.287 . S
C991 C992 1.524 . S
C991 H994 0.999 . S
C992 H962 0.950 . S
C992 C991 1.524 . S
C992 C993 1.415 . S
C993 H963 0.950 . S
C993 C988 1.363 . S
C993 C992 1.415 . S
H994 C991 0.999 . S
H995 C976 0.913 . S
H996 C1014 0.951 . S
H997 C1016 0.951 . S
H998 C1018 0.950 . S
H999 C1019 0.950 . S
H1000 C1021 0.950 . S
H1001 C1024 0.950 . S
H1002 C1025 0.950 . S
H1003 C1027 0.950 . S
H1004 C1028 0.950 . S
H1005 C1029 0.951 . S
H1006 C1031 0.951 . S
H1007 C1033 0.950 . S
H1008 C1034 0.950 . S
H1009 C1036 0.950 . S
H1010 C1039 0.950 . S
H1011 C1040 0.950 . S
H1012 C1042 0.950 . S
H1013 C1043 0.950 . S
C1014 H996 0.951 . S
C1014 C1015 1.366 . S
C1014 C1016 1.388 . S
C1015 C1014 1.366 . S
C1015 C1019 1.385 . S
C1016 H997 0.951 . S
C1016 C1014 1.388 . S
C1016 C1017 1.366 . S
C1017 C1016 1.366 . S
C1017 C1018 1.414 . S
C1017 C1020 1.499 . S
C1018 H998 0.950 . S
C1018 C1017 1.414 . S
C1018 C1019 1.374 . S
C1019 H999 0.950 . S
C1019 C1015 1.385 . S
C1019 C1018 1.374 . S
C1020 C1017 1.499 . S
C1020 C1021 1.373 . S
C1020 C1022 1.389 . S
C1021 H1000 0.950 . S
C1021 C1020 1.373 . S
C1021 C1037 1.377 . S
C1022 C1020 1.389 . S
C1022 C1023 1.524 . S
C1022 C1036 1.377 . S
C1023 C1022 1.524 . S
C1023 C1024 1.397 . S
C1023 C1028 1.363 . S
C1024 H1001 0.950 . S
C1024 C1023 1.397 . S
C1024 C1025 1.334 . S
C1025 H1002 0.950 . S
C1025 C1024 1.334 . S
C1025 C1026 1.287 . S
C1026 C1025 1.287 . S
C1026 C1027 1.524 . S
C1026 H1045 0.913 . S
C1027 H1003 0.950 . S
C1027 C1026 1.524 . S
C1027 C1028 1.415 . S
C1028 H1004 0.950 . S
C1028 C1023 1.363 . S
C1028 C1027 1.415 . S
C1029 H1005 0.951 . S
C1029 C1030 1.366 . S
C1029 C1031 1.388 . S
C1030 C1029 1.366 . S
C1030 C1034 1.385 . S
C1031 H1006 0.951 . S
C1031 C1029 1.388 . S
C1031 C1032 1.366 . S
C1032 C1031 1.366 . S
C1032 C1033 1.414 . S
C1032 C1035 1.499 . S
C1033 H1007 0.950 . S
C1033 C1032 1.414 . S
C1033 C1034 1.374 . S
C1034 H1008 0.950 . S
C1034 C1030 1.385 . S
C1034 C1033 1.374 . S
C1035 C1032 1.499 . S
C1035 C1036 1.373 . S
C1035 C1037 1.389 . S
C1036 H1009 0.950 . S
C1036 C1022 1.377 . S
C1036 C1035 1.373 . S
C1037 C1021 1.377 . S
C1037 C1035 1.389 . S
C1037 C1038 1.524 . S
C1038 C1037 1.524 . S
C1038 C1039 1.397 . S
C1038 C1043 1.363 . S
C1039 H1010 0.950 . S
C1039 C1038 1.397 . S
C1039 C1040 1.334 . S
C1040 H1011 0.950 . S
C1040 C1039 1.334 . S
C1040 C1041 1.287 . S
C1041 C1040 1.287 . S
C1041 C1042 1.524 . S
C1041 H1044 0.999 . S
C1042 H1012 0.950 . S
C1042 C1041 1.524 . S
C1042 C1043 1.415 . S
C1043 H1013 0.950 . S
C1043 C1038 1.363 . S
C1043 C1042 1.415 . S
H1044 C1041 0.999 . S
H1045 C1026 0.913 . S
H1046 C1064 0.951 . S
H1047 C1066 0.951 . S
H1048 C1068 0.950 . S
H1049 C1069 0.950 . S
H1050 C1071 0.950 . S
H1051 C1074 0.950 . S
H1052 C1075 0.950 . S
H1053 C1077 0.950 . S
H1054 C1078 0.939 1_655 S
H1055 C1079 0.951 . S
H1056 C1081 0.951 . S
H1057 C1083 0.950 . S
H1058 C1084 0.950 . S
H1059 C1086 0.950 . S
H1060 C1089 0.950 . S
H1061 C1090 0.950 . S
H1062 C1092 0.950 . S
H1063 C1093 0.939 1_455 S
C1064 H1046 0.951 . S
C1064 C1065 1.366 . S
C1064 C1066 1.388 . S
C1065 C1064 1.366 . S
C1065 C1069 1.385 . S
C1066 H1047 0.951 . S
C1066 C1064 1.388 . S
C1066 C1067 1.366 . S
C1067 C1066 1.366 . S
C1067 C1068 1.414 . S
C1067 C1070 1.499 . S
C1068 H1048 0.950 . S
C1068 C1067 1.414 . S
C1068 C1069 1.374 . S
C1069 H1049 0.950 . S
C1069 C1065 1.385 . S
C1069 C1068 1.374 . S
C1070 C1067 1.499 . S
C1070 C1071 1.373 . S
C1070 C1072 1.389 . S
C1071 H1050 0.950 . S
C1071 C1070 1.373 . S
C1071 C1087 1.377 1_455 S
C1072 C1070 1.389 . S
C1072 C1073 1.524 . S
C1072 C1086 1.377 1_455 S
C1073 C1072 1.524 . S
C1073 C1074 1.397 . S
C1073 C1078 1.363 . S
C1074 H1051 0.950 . S
C1074 C1073 1.397 . S
C1074 C1075 1.334 . S
C1075 H1052 0.950 . S
C1075 C1074 1.334 . S
C1075 C1076 1.287 . S
C1076 C1075 1.287 . S
C1076 C1077 1.524 . S
C1076 H1095 0.913 . S
C1077 H1053 0.950 . S
C1077 C1076 1.524 . S
C1077 C1078 1.415 . S
C1078 H1054 0.939 1_455 S
C1078 C1073 1.363 . S
C1078 C1077 1.415 . S
C1079 H1055 0.951 . S
C1079 C1080 1.366 . S
C1079 C1081 1.388 . S
C1080 C1079 1.366 . S
C1080 C1084 1.385 . S
C1081 H1056 0.951 . S
C1081 C1079 1.388 . S
C1081 C1082 1.366 . S
C1082 C1081 1.366 . S
C1082 C1083 1.414 . S
C1082 C1085 1.499 . S
C1083 H1057 0.950 . S
C1083 C1082 1.414 . S
C1083 C1084 1.374 . S
C1084 H1058 0.950 . S
C1084 C1080 1.385 . S
C1084 C1083 1.374 . S
C1085 C1082 1.499 . S
C1085 C1086 1.373 . S
C1085 C1087 1.389 . S
C1086 H1059 0.950 . S
C1086 C1072 1.377 1_655 S
C1086 C1085 1.373 . S
C1087 C1071 1.377 1_655 S
C1087 C1085 1.389 . S
C1087 C1088 1.524 . S
C1088 C1087 1.524 . S
C1088 C1089 1.397 . S
C1088 C1093 1.363 . S
C1089 H1060 0.950 . S
C1089 C1088 1.397 . S
C1089 C1090 1.334 . S
C1090 H1061 0.950 . S
C1090 C1089 1.334 . S
C1090 C1091 1.287 . S
C1091 C1090 1.287 . S
C1091 C1092 1.524 . S
C1091 H1094 0.999 . S
C1092 H1062 0.950 . S
C1092 C1091 1.524 . S
C1092 C1093 1.415 . S
C1093 H1063 0.939 1_655 S
C1093 C1088 1.363 . S
C1093 C1092 1.415 . S
H1094 C1091 0.999 . S
H1095 C1076 0.913 . S
H1096 C1114 0.951 . S
H1097 C1116 0.951 . S
H1098 C1118 0.950 1_556 S
H1099 C1119 0.950 . S
H1100 C1121 0.950 . S
H1101 C1124 0.950 . S
H1102 C1125 0.950 . S
H1103 C1127 0.950 . S
H1104 C1128 0.950 . S
H1105 C1129 0.951 . S
H1106 C1131 0.951 . S
H1107 C1133 0.950 1_554 S
H1108 C1134 0.950 . S
H1109 C1136 0.950 . S
H1110 C1139 0.950 . S
H1111 C1140 0.950 . S
H1112 C1142 0.950 . S
H1113 C1143 0.950 . S
C1114 H1096 0.951 . S
C1114 C1115 1.366 . S
C1114 C1116 1.388 . S
C1115 C1114 1.366 . S
C1115 C1119 1.385 . S
C1116 H1097 0.951 . S
C1116 C1114 1.388 . S
C1116 C1117 1.366 . S
C1117 C1116 1.366 . S
C1117 C1118 1.414 . S
C1117 C1120 1.499 . S
C1118 H1098 0.950 1_554 S
C1118 C1117 1.414 . S
C1118 C1119 1.374 . S
C1119 H1099 0.950 . S
C1119 C1115 1.385 . S
C1119 C1118 1.374 . S
C1120 C1117 1.499 . S
C1120 C1121 1.373 . S
C1120 C1122 1.389 1_554 S
C1121 H1100 0.950 . S
C1121 C1120 1.373 . S
C1121 C1137 1.377 1_545 S
C1122 C1120 1.389 1_556 S
C1122 C1123 1.524 . S
C1122 C1136 1.377 1_545 S
C1123 C1122 1.524 . S
C1123 C1124 1.397 . S
C1123 C1128 1.363 . S
C1124 H1101 0.950 . S
C1124 C1123 1.397 . S
C1124 C1125 1.334 . S
C1125 H1102 0.950 . S
C1125 C1124 1.334 . S
C1125 C1126 1.287 . S
C1126 C1125 1.287 . S
C1126 C1127 1.524 . S
C1126 H1145 0.913 . S
C1127 H1103 0.950 . S
C1127 C1126 1.524 . S
C1127 C1128 1.415 . S
C1128 H1104 0.950 . S
C1128 C1123 1.363 . S
C1128 C1127 1.415 . S
C1129 H1105 0.951 . S
C1129 C1130 1.366 . S
C1129 C1131 1.388 . S
C1130 C1129 1.366 . S
C1130 C1134 1.385 . S
C1131 H1106 0.951 . S
C1131 C1129 1.388 . S
C1131 C1132 1.366 . S
C1132 C1131 1.366 . S
C1132 C1133 1.414 . S
C1132 C1135 1.499 . S
C1133 H1107 0.950 1_556 S
C1133 C1132 1.414 . S
C1133 C1134 1.374 . S
C1134 H1108 0.950 . S
C1134 C1130 1.385 . S
C1134 C1133 1.374 . S
C1135 C1132 1.499 . S
C1135 C1136 1.373 . S
C1135 C1137 1.389 1_556 S
C1136 H1109 0.950 . S
C1136 C1122 1.377 1_565 S
C1136 C1135 1.373 . S
C1137 C1121 1.377 1_565 S
C1137 C1135 1.389 1_554 S
C1137 C1138 1.524 . S
C1138 C1137 1.524 . S
C1138 C1139 1.397 . S
C1138 C1143 1.363 . S
C1139 H1110 0.950 . S
C1139 C1138 1.397 . S
C1139 C1140 1.334 . S
C1140 H1111 0.950 . S
C1140 C1139 1.334 . S
C1140 C1141 1.287 . S
C1141 C1140 1.287 . S
C1141 C1142 1.524 . S
C1141 H1144 0.999 . S
C1142 H1112 0.950 . S
C1142 C1141 1.524 . S
C1142 C1143 1.415 . S
C1143 H1113 0.950 . S
C1143 C1138 1.363 . S
C1143 C1142 1.415 . S
H1144 C1141 0.999 . S
H1145 C1126 0.913 . S
H1146 C1164 0.951 . S
H1147 C1166 0.951 . S
H1148 C1168 0.950 . S
H1149 C1169 0.950 . S
H1150 C1171 0.950 . S
H1151 C1174 0.950 . S
H1152 C1175 0.950 . S
H1153 C1177 0.950 . S
H1154 C1178 0.950 . S
H1155 C1179 0.951 . S
H1156 C1181 0.951 . S
H1157 C1183 0.950 . S
H1158 C1184 0.950 . S
H1159 C1186 0.950 . S
H1160 C1189 0.950 . S
H1161 C1190 0.950 . S
H1162 C1192 0.950 . S
H1163 C1193 0.950 . S
C1164 H1146 0.951 . S
C1164 C1165 1.366 . S
C1164 C1166 1.388 . S
C1165 C1164 1.366 . S
C1165 C1169 1.385 . S
C1166 H1147 0.951 . S
C1166 C1164 1.388 . S
C1166 C1167 1.366 . S
C1167 C1166 1.366 . S
C1167 C1168 1.414 . S
C1167 C1170 1.499 . S
C1168 H1148 0.950 . S
C1168 C1167 1.414 . S
C1168 C1169 1.374 . S
C1169 H1149 0.950 . S
C1169 C1165 1.385 . S
C1169 C1168 1.374 . S
C1170 C1167 1.499 . S
C1170 C1171 1.373 . S
C1170 C1172 1.389 . S
C1171 H1150 0.950 . S
C1171 C1170 1.373 . S
C1171 C1187 1.377 . S
C1172 C1170 1.389 . S
C1172 C1173 1.524 . S
C1172 C1186 1.377 . S
C1173 C1172 1.524 . S
C1173 C1174 1.397 . S
C1173 C1178 1.363 . S
C1174 H1151 0.950 . S
C1174 C1173 1.397 . S
C1174 C1175 1.334 . S
C1175 H1152 0.950 . S
C1175 C1174 1.334 . S
C1175 C1176 1.287 . S
C1176 C1175 1.287 . S
C1176 C1177 1.524 . S
C1176 H1195 0.913 . S
C1177 H1153 0.950 . S
C1177 C1176 1.524 . S
C1177 C1178 1.415 . S
C1178 H1154 0.950 . S
C1178 C1173 1.363 . S
C1178 C1177 1.415 . S
C1179 H1155 0.951 . S
C1179 C1180 1.366 . S
C1179 C1181 1.388 . S
C1180 C1179 1.366 . S
C1180 C1184 1.385 . S
C1181 H1156 0.951 . S
C1181 C1179 1.388 . S
C1181 C1182 1.366 . S
C1182 C1181 1.366 . S
C1182 C1183 1.414 . S
C1182 C1185 1.499 . S
C1183 H1157 0.950 . S
C1183 C1182 1.414 . S
C1183 C1184 1.374 . S
C1184 H1158 0.950 . S
C1184 C1180 1.385 . S
C1184 C1183 1.374 . S
C1185 C1182 1.499 . S
C1185 C1186 1.373 . S
C1185 C1187 1.389 . S
C1186 H1159 0.950 . S
C1186 C1172 1.377 . S
C1186 C1185 1.373 . S
C1187 C1171 1.377 . S
C1187 C1185 1.389 . S
C1187 C1188 1.524 . S
C1188 C1187 1.524 . S
C1188 C1189 1.397 . S
C1188 C1193 1.363 . S
C1189 H1160 0.950 . S
C1189 C1188 1.397 . S
C1189 C1190 1.334 . S
C1190 H1161 0.950 . S
C1190 C1189 1.334 . S
C1190 C1191 1.287 . S
C1191 C1190 1.287 . S
C1191 C1192 1.524 . S
C1191 H1194 0.999 . S
C1192 H1162 0.950 . S
C1192 C1191 1.524 . S
C1192 C1193 1.415 . S
C1193 H1163 0.950 . S
C1193 C1188 1.363 . S
C1193 C1192 1.415 . S
H1194 C1191 0.999 . S
H1195 C1176 0.913 . S
H1196 C1214 0.951 . S
H1197 C1216 0.951 . S
H1198 C1218 0.950 . S
H1199 C1219 0.950 . S
H1200 C1221 0.950 . S
H1201 C1224 0.950 . S
H1202 C1225 0.950 . S
H1203 C1227 0.950 . S
H1204 C1228 0.950 . S
H1205 C1229 0.951 . S
H1206 C1231 0.951 . S
H1207 C1233 0.950 . S
H1208 C1234 0.950 . S
H1209 C1236 0.950 . S
H1210 C1239 0.950 . S
H1211 C1240 0.950 . S
H1212 C1242 0.950 . S
H1213 C1243 0.950 . S
C1214 H1196 0.951 . S
C1214 C1215 1.366 . S
C1214 C1216 1.388 . S
C1215 C1214 1.366 . S
C1215 C1219 1.385 . S
C1216 H1197 0.951 . S
C1216 C1214 1.388 . S
C1216 C1217 1.366 . S
C1217 C1216 1.366 . S
C1217 C1218 1.414 . S
C1217 C1220 1.499 . S
C1218 H1198 0.950 . S
C1218 C1217 1.414 . S
C1218 C1219 1.374 . S
C1219 H1199 0.950 . S
C1219 C1215 1.385 . S
C1219 C1218 1.374 . S
C1220 C1217 1.499 . S
C1220 C1221 1.373 . S
C1220 C1222 1.389 . S
C1221 H1200 0.950 . S
C1221 C1220 1.373 . S
C1221 C1237 1.377 1_455 S
C1222 C1220 1.389 . S
C1222 C1223 1.524 . S
C1222 C1236 1.377 1_455 S
C1223 C1222 1.524 . S
C1223 C1224 1.397 . S
C1223 C1228 1.363 . S
C1224 H1201 0.950 . S
C1224 C1223 1.397 . S
C1224 C1225 1.334 . S
C1225 H1202 0.950 . S
C1225 C1224 1.334 . S
C1225 C1226 1.287 . S
C1226 C1225 1.287 . S
C1226 C1227 1.524 . S
C1226 H1245 0.913 . S
C1227 H1203 0.950 . S
C1227 C1226 1.524 . S
C1227 C1228 1.415 . S
C1228 H1204 0.950 . S
C1228 C1223 1.363 . S
C1228 C1227 1.415 . S
C1229 H1205 0.951 . S
C1229 C1230 1.366 . S
C1229 C1231 1.388 . S
C1230 C1229 1.366 . S
C1230 C1234 1.385 . S
C1231 H1206 0.951 . S
C1231 C1229 1.388 . S
C1231 C1232 1.366 . S
C1232 C1231 1.366 . S
C1232 C1233 1.414 . S
C1232 C1235 1.499 . S
C1233 H1207 0.950 . S
C1233 C1232 1.414 . S
C1233 C1234 1.374 . S
C1234 H1208 0.950 . S
C1234 C1230 1.385 . S
C1234 C1233 1.374 . S
C1235 C1232 1.499 . S
C1235 C1236 1.373 . S
C1235 C1237 1.389 . S
C1236 H1209 0.950 . S
C1236 C1222 1.377 1_655 S
C1236 C1235 1.373 . S
C1237 C1221 1.377 1_655 S
C1237 C1235 1.389 . S
C1237 C1238 1.524 . S
C1238 C1237 1.524 . S
C1238 C1239 1.397 . S
C1238 C1243 1.363 . S
C1239 H1210 0.950 . S
C1239 C1238 1.397 . S
C1239 C1240 1.334 . S
C1240 H1211 0.950 . S
C1240 C1239 1.334 . S
C1240 C1241 1.287 . S
C1241 C1240 1.287 . S
C1241 C1242 1.524 . S
C1241 H1244 0.999 . S
C1242 H1212 0.950 . S
C1242 C1241 1.524 . S
C1242 C1243 1.415 . S
C1243 H1213 0.950 . S
C1243 C1238 1.363 . S
C1243 C1242 1.415 . S
H1244 C1241 0.999 . S
H1245 C1226 0.913 . S
H1246 C1264 0.951 . S
H1247 C1266 0.951 1_554 S
H1248 C1268 0.950 . S
H1249 C1269 0.950 . S
H1250 C1271 0.950 . S
H1251 C1274 0.950 . S
H1252 C1275 0.950 . S
H1253 C1277 0.950 . S
H1254 C1278 0.950 . S
H1255 C1279 0.951 . S
H1256 C1281 0.951 1_556 S
H1257 C1283 0.950 . S
H1258 C1284 0.950 . S
H1259 C1286 0.950 . S
H1260 C1289 0.950 . S
H1261 C1290 0.950 . S
H1262 C1292 0.950 . S
H1263 C1293 0.950 . S
C1264 H1246 0.951 . S
C1264 C1265 1.366 . S
C1264 C1266 1.388 . S
C1265 C1264 1.366 . S
C1265 C1269 1.385 . S
C1266 H1247 0.951 1_556 S
C1266 C1264 1.388 . S
C1266 C1267 1.366 . S
C1267 C1266 1.366 . S
C1267 C1268 1.414 . S
C1267 C1270 1.499 . S
C1268 H1248 0.950 . S
C1268 C1267 1.414 . S
C1268 C1269 1.374 . S
C1269 H1249 0.950 . S
C1269 C1265 1.385 . S
C1269 C1268 1.374 . S
C1270 C1267 1.499 . S
C1270 C1271 1.373 1_556 S
C1270 C1272 1.389 . S
C1271 H1250 0.950 . S
C1271 C1270 1.373 1_554 S
C1271 C1287 1.377 1_545 S
C1272 C1270 1.389 . S
C1272 C1273 1.524 . S
C1272 C1286 1.377 1_545 S
C1273 C1272 1.524 . S
C1273 C1274 1.397 . S
C1273 C1278 1.363 . S
C1274 H1251 0.950 . S
C1274 C1273 1.397 . S
C1274 C1275 1.334 . S
C1275 H1252 0.950 . S
C1275 C1274 1.334 . S
C1275 C1276 1.287 . S
C1276 C1275 1.287 . S
C1276 C1277 1.524 . S
C1276 H1295 0.913 . S
C1277 H1253 0.950 . S
C1277 C1276 1.524 . S
C1277 C1278 1.415 . S
C1278 H1254 0.950 . S
C1278 C1273 1.363 . S
C1278 C1277 1.415 . S
C1279 H1255 0.951 . S
C1279 C1280 1.366 . S
C1279 C1281 1.388 . S
C1280 C1279 1.366 . S
C1280 C1284 1.385 . S
C1281 H1256 0.951 1_554 S
C1281 C1279 1.388 . S
C1281 C1282 1.366 . S
C1282 C1281 1.366 . S
C1282 C1283 1.414 . S
C1282 C1285 1.499 . S
C1283 H1257 0.950 . S
C1283 C1282 1.414 . S
C1283 C1284 1.374 . S
C1284 H1258 0.950 . S
C1284 C1280 1.385 . S
C1284 C1283 1.374 . S
C1285 C1282 1.499 . S
C1285 C1286 1.373 1_554 S
C1285 C1287 1.389 . S
C1286 H1259 0.950 . S
C1286 C1272 1.377 1_565 S
C1286 C1285 1.373 1_556 S
C1287 C1271 1.377 1_565 S
C1287 C1285 1.389 . S
C1287 C1288 1.524 . S
C1288 C1287 1.524 . S
C1288 C1289 1.397 . S
C1288 C1293 1.363 . S
C1289 H1260 0.950 . S
C1289 C1288 1.397 . S
C1289 C1290 1.334 . S
C1290 H1261 0.950 . S
C1290 C1289 1.334 . S
C1290 C1291 1.287 . S
C1291 C1290 1.287 . S
C1291 C1292 1.524 . S
C1291 H1294 0.999 . S
C1292 H1262 0.950 . S
C1292 C1291 1.524 . S
C1292 C1293 1.415 . S
C1293 H1263 0.950 . S
C1293 C1288 1.363 . S
C1293 C1292 1.415 . S
H1294 C1291 0.999 . S
H1295 C1276 0.913 . S
H1296 C1314 0.951 . S
H1297 C1316 0.951 . S
H1298 C1318 0.950 . S
H1299 C1319 0.950 . S
H1300 C1321 0.950 . S
H1301 C1324 0.950 . S
H1302 C1325 0.950 . S
H1303 C1327 0.950 . S
H1304 C1328 0.950 . S
H1305 C1329 0.957 . S
H1306 C1331 0.951 . S
H1307 C1333 0.950 . S
H1308 C1334 0.950 . S
H1309 C1336 0.950 . S
H1310 C1339 0.950 . S
H1311 C1340 0.950 . S
H1312 C1342 0.950 . S
H1313 C1343 0.950 . S
C1314 H1296 0.951 . S
C1314 C1315 1.366 . S
C1314 C1316 1.388 . S
C1315 C1314 1.366 . S
C1315 C1319 1.385 . S
C1316 H1297 0.951 . S
C1316 C1314 1.388 . S
C1316 C1317 1.366 . S
C1317 C1316 1.366 . S
C1317 C1318 1.414 . S
C1317 C1320 1.499 . S
C1318 H1298 0.950 . S
C1318 C1317 1.414 . S
C1318 C1319 1.374 . S
C1319 H1299 0.950 . S
C1319 C1315 1.385 . S
C1319 C1318 1.374 . S
C1320 C1317 1.499 . S
C1320 C1321 1.373 . S
C1320 C1322 1.389 . S
C1321 H1300 0.950 . S
C1321 C1320 1.373 . S
C1321 C1337 1.377 . S
C1322 C1320 1.389 . S
C1322 C1323 1.524 . S
C1322 C1336 1.377 . S
C1323 C1322 1.524 . S
C1323 C1324 1.397 . S
C1323 C1328 1.363 . S
C1324 H1301 0.950 . S
C1324 C1323 1.397 . S
C1324 C1325 1.334 . S
C1325 H1302 0.950 . S
C1325 C1324 1.334 . S
C1325 C1326 1.287 . S
C1326 C1325 1.287 . S
C1326 C1327 1.524 . S
C1326 H1345 0.913 . S
C1327 H1303 0.950 . S
C1327 C1326 1.524 . S
C1327 C1328 1.415 . S
C1328 H1304 0.950 . S
C1328 C1323 1.363 . S
C1328 C1327 1.415 . S
C1329 H1305 0.957 . S
C1329 C1330 1.366 1_556 S
C1329 C1331 1.388 . S
C1330 C1329 1.366 1_554 S
C1330 C1334 1.385 1_554 S
C1331 H1306 0.951 . S
C1331 C1329 1.388 . S
C1331 C1332 1.366 . S
C1332 C1331 1.366 . S
C1332 C1333 1.414 . S
C1332 C1335 1.499 . S
C1333 H1307 0.950 . S
C1333 C1332 1.414 . S
C1333 C1334 1.374 . S
C1334 H1308 0.950 . S
C1334 C1330 1.385 1_556 S
C1334 C1333 1.374 . S
C1335 C1332 1.499 . S
C1335 C1336 1.373 . S
C1335 C1337 1.389 . S
C1336 H1309 0.950 . S
C1336 C1322 1.377 . S
C1336 C1335 1.373 . S
C1337 C1321 1.377 . S
C1337 C1335 1.389 . S
C1337 C1338 1.524 . S
C1338 C1337 1.524 . S
C1338 C1339 1.397 . S
C1338 C1343 1.363 . S
C1339 H1310 0.950 . S
C1339 C1338 1.397 . S
C1339 C1340 1.334 . S
C1340 H1311 0.950 . S
C1340 C1339 1.334 . S
C1340 C1341 1.287 . S
C1341 C1340 1.287 . S
C1341 C1342 1.524 . S
C1341 H1344 0.999 . S
C1342 H1312 0.950 . S
C1342 C1341 1.524 . S
C1342 C1343 1.415 . S
C1343 H1313 0.950 . S
C1343 C1338 1.363 . S
C1343 C1342 1.415 . S
H1344 C1341 0.999 . S
H1345 C1326 0.913 . S
H1346 C1364 0.951 . S
H1347 C1366 0.951 . S
H1348 C1368 0.950 . S
H1349 C1369 0.950 . S
H1350 C1371 0.950 . S
H1351 C1374 0.950 . S
H1352 C1375 0.950 . S
H1353 C1377 0.950 . S
H1354 C1378 0.950 . S
H1355 C1379 0.951 . S
H1356 C1381 0.951 . S
H1357 C1383 0.950 . S
H1358 C1384 0.950 . S
H1359 C1386 0.950 . S
H1360 C1389 0.950 . S
H1361 C1390 0.950 . S
H1362 C1392 0.950 . S
H1363 C1393 0.950 . S
C1364 H1346 0.951 . S
C1364 C1365 1.366 . S
C1364 C1366 1.388 . S
C1365 C1364 1.366 . S
C1365 C1369 1.385 . S
C1366 H1347 0.951 . S
C1366 C1364 1.388 . S
C1366 C1367 1.366 . S
C1367 C1366 1.366 . S
C1367 C1368 1.414 . S
C1367 C1370 1.499 . S
C1368 H1348 0.950 . S
C1368 C1367 1.414 . S
C1368 C1369 1.374 . S
C1369 H1349 0.950 . S
C1369 C1365 1.385 . S
C1369 C1368 1.374 . S
C1370 C1367 1.499 . S
C1370 C1371 1.373 . S
C1370 C1372 1.389 . S
C1371 H1350 0.950 . S
C1371 C1370 1.373 . S
C1371 C1387 1.377 . S
C1372 C1370 1.389 . S
C1372 C1373 1.524 . S
C1372 C1386 1.377 . S
C1373 C1372 1.524 . S
C1373 C1374 1.397 . S
C1373 C1378 1.363 . S
C1374 H1351 0.950 . S
C1374 C1373 1.397 . S
C1374 C1375 1.334 . S
C1375 H1352 0.950 . S
C1375 C1374 1.334 . S
C1375 C1376 1.287 . S
C1376 C1375 1.287 . S
C1376 C1377 1.524 . S
C1376 H1395 0.913 . S
C1377 H1353 0.950 . S
C1377 C1376 1.524 . S
C1377 C1378 1.415 . S
C1378 H1354 0.950 . S
C1378 C1373 1.363 . S
C1378 C1377 1.415 . S
C1379 H1355 0.951 . S
C1379 C1380 1.366 . S
C1379 C1381 1.388 . S
C1380 C1379 1.366 . S
C1380 C1384 1.385 . S
C1381 H1356 0.951 . S
C1381 C1379 1.388 . S
C1381 C1382 1.366 . S
C1382 C1381 1.366 . S
C1382 C1383 1.414 . S
C1382 C1385 1.499 1_556 S
C1383 H1357 0.950 . S
C1383 C1382 1.414 . S
C1383 C1384 1.374 . S
C1384 H1358 0.950 . S
C1384 C1380 1.385 . S
C1384 C1383 1.374 . S
C1385 C1382 1.499 1_554 S
C1385 C1386 1.373 . S
C1385 C1387 1.389 . S
C1386 H1359 0.950 . S
C1386 C1372 1.377 . S
C1386 C1385 1.373 . S
C1387 C1371 1.377 . S
C1387 C1385 1.389 . S
C1387 C1388 1.524 . S
C1388 C1387 1.524 . S
C1388 C1389 1.397 1_554 S
C1388 C1393 1.363 . S
C1389 H1360 0.950 . S
C1389 C1388 1.397 1_556 S
C1389 C1390 1.334 . S
C1390 H1361 0.950 . S
C1390 C1389 1.334 . S
C1390 C1391 1.287 . S
C1391 C1390 1.287 . S
C1391 C1392 1.524 1_556 S
C1391 H1394 0.999 . S
C1392 H1362 0.950 . S
C1392 C1391 1.524 1_554 S
C1392 C1393 1.415 . S
C1393 H1363 0.950 . S
C1393 C1388 1.363 . S
C1393 C1392 1.415 . S
H1394 C1391 0.999 . S
H1395 C1376 0.913 . S
H1396 C1414 0.951 . S
H1397 C1416 0.951 . S
H1398 C1418 0.950 . S
H1399 C1419 0.950 . S
H1400 C1421 0.950 . S
H1401 C1424 0.950 . S
H1402 C1425 0.950 . S
H1403 C1427 0.950 . S
H1404 C1428 0.950 . S
H1405 C1429 0.951 . S
H1406 C1431 0.951 . S
H1407 C1433 0.950 . S
H1408 C1434 0.950 . S
H1409 C1436 0.950 . S
H1410 C1439 0.950 . S
H1411 C1440 0.950 . S
H1412 C1442 0.950 . S
H1413 C1443 0.950 . S
C1414 H1396 0.951 . S
C1414 C1415 1.366 . S
C1414 C1416 1.388 . S
C1415 C1414 1.366 . S
C1415 C1419 1.385 . S
C1416 H1397 0.951 . S
C1416 C1414 1.388 . S
C1416 C1417 1.366 . S
C1417 C1416 1.366 . S
C1417 C1418 1.414 . S
C1417 C1420 1.499 . S
C1418 H1398 0.950 . S
C1418 C1417 1.414 . S
C1418 C1419 1.374 . S
C1419 H1399 0.950 . S
C1419 C1415 1.385 . S
C1419 C1418 1.374 . S
C1420 C1417 1.499 . S
C1420 C1421 1.373 . S
C1420 C1422 1.389 . S
C1421 H1400 0.950 . S
C1421 C1420 1.373 . S
C1421 C1437 1.377 . S
C1422 C1420 1.389 . S
C1422 C1423 1.524 . S
C1422 C1436 1.377 . S
C1423 C1422 1.524 . S
C1423 C1424 1.397 . S
C1423 C1428 1.363 . S
C1424 H1401 0.950 . S
C1424 C1423 1.397 . S
C1424 C1425 1.334 . S
C1425 H1402 0.950 . S
C1425 C1424 1.334 . S
C1425 C1426 1.287 . S
C1426 C1425 1.287 . S
C1426 C1427 1.524 . S
C1426 H1445 0.913 . S
C1427 H1403 0.950 . S
C1427 C1426 1.524 . S
C1427 C1428 1.415 . S
C1428 H1404 0.950 . S
C1428 C1423 1.363 . S
C1428 C1427 1.415 . S
C1429 H1405 0.951 . S
C1429 C1430 1.366 . S
C1429 C1431 1.388 . S
C1430 C1429 1.366 . S
C1430 C1434 1.385 . S
C1431 H1406 0.951 . S
C1431 C1429 1.388 . S
C1431 C1432 1.366 . S
C1432 C1431 1.366 . S
C1432 C1433 1.414 . S
C1432 C1435 1.499 . S
C1433 H1407 0.950 . S
C1433 C1432 1.414 . S
C1433 C1434 1.374 . S
C1434 H1408 0.950 . S
C1434 C1430 1.385 . S
C1434 C1433 1.374 . S
C1435 C1432 1.499 . S
C1435 C1436 1.373 . S
C1435 C1437 1.389 . S
C1436 H1409 0.950 . S
C1436 C1422 1.377 . S
C1436 C1435 1.373 . S
C1437 C1421 1.377 . S
C1437 C1435 1.389 . S
C1437 C1438 1.524 . S
C1438 C1437 1.524 . S
C1438 C1439 1.397 . S
C1438 C1443 1.363 . S
C1439 H1410 0.950 . S
C1439 C1438 1.397 . S
C1439 C1440 1.334 . S
C1440 H1411 0.950 . S
C1440 C1439 1.334 . S
C1440 C1441 1.287 . S
C1441 C1440 1.287 . S
C1441 C1442 1.524 . S
C1441 H1444 0.999 . S
C1442 H1412 0.950 . S
C1442 C1441 1.524 . S
C1442 C1443 1.415 . S
C1443 H1413 0.950 . S
C1443 C1438 1.363 . S
C1443 C1442 1.415 . S
H1444 C1441 0.999 . S
H1445 C1426 0.913 . S
H1446 C1464 0.951 1_554 S
H1447 C1466 0.951 . S
H1448 C1468 0.950 . S
H1449 C1469 0.950 . S
H1450 C1471 0.950 . S
H1451 C1474 0.950 . S
H1452 C1475 0.950 . S
H1453 C1477 0.950 . S
H1454 C1478 0.950 . S
H1455 C1479 0.951 . S
H1456 C1481 0.951 . S
H1457 C1483 0.950 . S
H1458 C1484 0.950 . S
H1459 C1486 0.950 . S
H1460 C1489 0.950 . S
H1461 C1490 0.950 . S
H1462 C1492 0.950 . S
H1463 C1493 0.950 . S
C1464 H1446 0.951 1_556 S
C1464 C1465 1.366 1_556 S
C1464 C1466 1.388 . S
C1465 C1464 1.366 1_554 S
C1465 C1469 1.385 1_554 S
C1466 H1447 0.951 . S
C1466 C1464 1.388 . S
C1466 C1467 1.366 . S
C1467 C1466 1.366 . S
C1467 C1468 1.414 . S
C1467 C1470 1.499 . S
C1468 H1448 0.950 . S
C1468 C1467 1.414 . S
C1468 C1469 1.374 . S
C1469 H1449 0.950 . S
C1469 C1465 1.385 1_556 S
C1469 C1468 1.374 . S
C1470 C1467 1.499 . S
C1470 C1471 1.373 . S
C1470 C1472 1.389 . S
C1471 H1450 0.950 . S
C1471 C1470 1.373 . S
C1471 C1487 1.377 . S
C1472 C1470 1.389 . S
C1472 C1473 1.524 . S
C1472 C1486 1.377 . S
C1473 C1472 1.524 . S
C1473 C1474 1.397 . S
C1473 C1478 1.363 . S
C1474 H1451 0.950 . S
C1474 C1473 1.397 . S
C1474 C1475 1.334 . S
C1475 H1452 0.950 . S
C1475 C1474 1.334 . S
C1475 C1476 1.287 . S
C1476 C1475 1.287 . S
C1476 C1477 1.524 . S
C1476 H1495 0.913 . S
C1477 H1453 0.950 . S
C1477 C1476 1.524 . S
C1477 C1478 1.415 . S
C1478 H1454 0.950 . S
C1478 C1473 1.363 . S
C1478 C1477 1.415 . S
C1479 H1455 0.951 . S
C1479 C1480 1.366 . S
C1479 C1481 1.388 . S
C1480 C1479 1.366 . S
C1480 C1484 1.385 . S
C1481 H1456 0.951 . S
C1481 C1479 1.388 . S
C1481 C1482 1.366 . S
C1482 C1481 1.366 . S
C1482 C1483 1.414 . S
C1482 C1485 1.499 . S
C1483 H1457 0.950 . S
C1483 C1482 1.414 . S
C1483 C1484 1.374 . S
C1484 H1458 0.950 . S
C1484 C1480 1.385 . S
C1484 C1483 1.374 . S
C1485 C1482 1.499 . S
C1485 C1486 1.373 . S
C1485 C1487 1.389 . S
C1486 H1459 0.950 . S
C1486 C1472 1.377 . S
C1486 C1485 1.373 . S
C1487 C1471 1.377 . S
C1487 C1485 1.389 . S
C1487 C1488 1.524 . S
C1488 C1487 1.524 . S
C1488 C1489 1.397 . S
C1488 C1493 1.363 . S
C1489 H1460 0.950 . S
C1489 C1488 1.397 . S
C1489 C1490 1.334 . S
C1490 H1461 0.950 . S
C1490 C1489 1.334 . S
C1490 C1491 1.287 . S
C1491 C1490 1.287 . S
C1491 C1492 1.524 . S
C1491 H1494 0.999 . S
C1492 H1462 0.950 . S
C1492 C1491 1.524 . S
C1492 C1493 1.415 . S
C1493 H1463 0.950 . S
C1493 C1488 1.363 . S
C1493 C1492 1.415 . S
H1494 C1491 0.999 . S
H1495 C1476 0.913 . S
H1496 C1514 0.951 . S
H1497 C1516 0.951 . S
H1498 C1518 0.950 . S
H1499 C1519 0.950 . S
H1500 C1521 0.950 . S
H1501 C1524 0.950 . S
H1502 C1525 0.950 . S
H1503 C1527 0.950 . S
H1504 C1528 0.950 . S
H1505 C1529 0.951 . S
H1506 C1531 0.951 . S
H1507 C1533 0.950 . S
H1508 C1534 0.950 . S
H1509 C1536 0.950 . S
H1510 C1539 0.950 . S
H1511 C1540 0.950 . S
H1512 C1542 0.950 . S
H1513 C1543 0.950 . S
C1514 H1496 0.951 . S
C1514 C1515 1.366 . S
C1514 C1516 1.388 . S
C1515 C1514 1.366 . S
C1515 C1519 1.385 . S
C1516 H1497 0.951 . S
C1516 C1514 1.388 . S
C1516 C1517 1.366 . S
C1517 C1516 1.366 . S
C1517 C1518 1.414 . S
C1517 C1520 1.499 . S
C1518 H1498 0.950 . S
C1518 C1517 1.414 . S
C1518 C1519 1.374 . S
C1519 H1499 0.950 . S
C1519 C1515 1.385 . S
C1519 C1518 1.374 . S
C1520 C1517 1.499 . S
C1520 C1521 1.373 . S
C1520 C1522 1.389 . S
C1521 H1500 0.950 . S
C1521 C1520 1.373 . S
C1521 C1537 1.377 . S
C1522 C1520 1.389 . S
C1522 C1523 1.524 . S
C1522 C1536 1.377 . S
C1523 C1522 1.524 . S
C1523 C1524 1.397 . S
C1523 C1528 1.363 . S
C1524 H1501 0.950 . S
C1524 C1523 1.397 . S
C1524 C1525 1.334 . S
C1525 H1502 0.950 . S
C1525 C1524 1.334 . S
C1525 C1526 1.287 . S
C1526 C1525 1.287 . S
C1526 C1527 1.524 . S
C1526 H1545 0.913 . S
C1527 H1503 0.950 . S
C1527 C1526 1.524 . S
C1527 C1528 1.415 . S
C1528 H1504 0.950 . S
C1528 C1523 1.363 . S
C1528 C1527 1.415 . S
C1529 H1505 0.951 . S
C1529 C1530 1.366 . S
C1529 C1531 1.388 . S
C1530 C1529 1.366 . S
C1530 C1534 1.385 . S
C1531 H1506 0.951 . S
C1531 C1529 1.388 . S
C1531 C1532 1.366 . S
C1532 C1531 1.366 . S
C1532 C1533 1.414 . S
C1532 C1535 1.499 1_556 S
C1533 H1507 0.950 . S
C1533 C1532 1.414 . S
C1533 C1534 1.374 . S
C1534 H1508 0.950 . S
C1534 C1530 1.385 . S
C1534 C1533 1.374 . S
C1535 C1532 1.499 1_554 S
C1535 C1536 1.373 . S
C1535 C1537 1.389 . S
C1536 H1509 0.950 . S
C1536 C1522 1.377 . S
C1536 C1535 1.373 . S
C1537 C1521 1.377 . S
C1537 C1535 1.389 . S
C1537 C1538 1.524 . S
C1538 C1537 1.524 . S
C1538 C1539 1.397 1_554 S
C1538 C1543 1.363 . S
C1539 H1510 0.950 . S
C1539 C1538 1.397 1_556 S
C1539 C1540 1.334 . S
C1540 H1511 0.950 . S
C1540 C1539 1.334 . S
C1540 C1541 1.287 . S
C1541 C1540 1.287 . S
C1541 C1542 1.524 1_556 S
C1541 H1544 0.999 . S
C1542 H1512 0.950 . S
C1542 C1541 1.524 1_554 S
C1542 C1543 1.415 . S
C1543 H1513 0.950 . S
C1543 C1538 1.363 . S
C1543 C1542 1.415 . S
H1544 C1541 0.999 . S
H1545 C1526 0.913 . S
H1546 C1564 0.951 . S
H1547 C1566 0.951 . S
H1548 C1568 0.950 . S
H1549 C1569 0.950 . S
H1550 C1571 0.950 . S
H1551 C1574 0.950 . S
H1552 C1575 0.950 . S
H1553 C1577 0.950 . S
H1554 C1578 0.950 . S
H1555 C1579 0.951 . S
H1556 C1581 0.951 . S
H1557 C1583 0.950 . S
H1558 C1584 0.950 . S
H1559 C1586 0.950 . S
H1560 C1589 0.950 . S
H1561 C1590 0.950 . S
H1562 C1592 0.950 . S
H1563 C1593 0.950 . S
C1564 H1546 0.951 . S
C1564 C1565 1.366 . S
C1564 C1566 1.388 . S
C1565 C1564 1.366 . S
C1565 C1569 1.385 . S
C1566 H1547 0.951 . S
C1566 C1564 1.388 . S
C1566 C1567 1.366 . S
C1567 C1566 1.366 . S
C1567 C1568 1.414 . S
C1567 C1570 1.499 . S
C1568 H1548 0.950 . S
C1568 C1567 1.414 . S
C1568 C1569 1.374 . S
C1569 H1549 0.950 . S
C1569 C1565 1.385 . S
C1569 C1568 1.374 . S
C1570 C1567 1.499 . S
C1570 C1571 1.373 . S
C1570 C1572 1.389 . S
C1571 H1550 0.950 . S
C1571 C1570 1.373 . S
C1571 C1587 1.377 . S
C1572 C1570 1.389 . S
C1572 C1573 1.524 . S
C1572 C1586 1.377 . S
C1573 C1572 1.524 . S
C1573 C1574 1.397 . S
C1573 C1578 1.363 . S
C1574 H1551 0.950 . S
C1574 C1573 1.397 . S
C1574 C1575 1.334 . S
C1575 H1552 0.950 . S
C1575 C1574 1.334 . S
C1575 C1576 1.287 . S
C1576 C1575 1.287 . S
C1576 C1577 1.524 . S
C1576 H1595 0.913 . S
C1577 H1553 0.950 . S
C1577 C1576 1.524 . S
C1577 C1578 1.415 . S
C1578 H1554 0.950 . S
C1578 C1573 1.363 . S
C1578 C1577 1.415 . S
C1579 H1555 0.951 . S
C1579 C1580 1.366 . S
C1579 C1581 1.388 . S
C1580 C1579 1.366 . S
C1580 C1584 1.385 . S
C1581 H1556 0.951 . S
C1581 C1579 1.388 . S
C1581 C1582 1.366 . S
C1582 C1581 1.366 . S
C1582 C1583 1.414 . S
C1582 C1585 1.499 . S
C1583 H1557 0.950 . S
C1583 C1582 1.414 . S
C1583 C1584 1.374 . S
C1584 H1558 0.950 . S
C1584 C1580 1.385 . S
C1584 C1583 1.374 . S
C1585 C1582 1.499 . S
C1585 C1586 1.373 . S
C1585 C1587 1.389 . S
C1586 H1559 0.950 . S
C1586 C1572 1.377 . S
C1586 C1585 1.373 . S
C1587 C1571 1.377 . S
C1587 C1585 1.389 . S
C1587 C1588 1.524 . S
C1588 C1587 1.524 . S
C1588 C1589 1.397 . S
C1588 C1593 1.363 . S
C1589 H1560 0.950 . S
C1589 C1588 1.397 . S
C1589 C1590 1.334 . S
C1590 H1561 0.950 . S
C1590 C1589 1.334 . S
C1590 C1591 1.287 . S
C1591 C1590 1.287 . S
C1591 C1592 1.524 . S
C1591 H1594 0.999 . S
C1592 H1562 0.950 . S
C1592 C1591 1.524 . S
C1592 C1593 1.415 . S
C1593 H1563 0.950 . S
C1593 C1588 1.363 . S
C1593 C1592 1.415 . S
H1594 C1591 0.999 . S
H1595 C1576 0.913 . S
H1596 C1614 0.951 . S
H1597 C1616 0.951 . S
H1598 C1618 0.950 . S
H1599 C1619 0.950 . S
H1600 C1621 0.950 . S
H1601 C1624 0.950 . S
H1602 C1625 0.950 . S
H1603 C1627 0.950 . S
H1604 C1628 0.950 . S
H1605 C1629 0.951 . S
H1606 C1631 0.951 . S
H1607 C1633 0.950 . S
H1608 C1634 0.950 . S
H1609 C1636 0.950 . S
H1610 C1639 0.950 . S
H1611 C1640 0.950 . S
H1612 C1642 0.950 . S
H1613 C1643 0.950 . S
C1614 H1596 0.951 . S
C1614 C1615 1.366 . S
C1614 C1616 1.388 . S
C1615 C1614 1.366 . S
C1615 C1619 1.385 . S
C1616 H1597 0.951 . S
C1616 C1614 1.388 . S
C1616 C1617 1.366 . S
C1617 C1616 1.366 . S
C1617 C1618 1.414 . S
C1617 C1620 1.499 1_554 S
C1618 H1598 0.950 . S
C1618 C1617 1.414 . S
C1618 C1619 1.374 . S
C1619 H1599 0.950 . S
C1619 C1615 1.385 . S
C1619 C1618 1.374 . S
C1620 C1617 1.499 1_556 S
C1620 C1621 1.373 . S
C1620 C1622 1.389 . S
C1621 H1600 0.950 . S
C1621 C1620 1.373 . S
C1621 C1637 1.377 . S
C1622 C1620 1.389 . S
C1622 C1623 1.524 . S
C1622 C1636 1.377 . S
C1623 C1622 1.524 . S
C1623 C1624 1.397 1_556 S
C1623 C1628 1.363 . S
C1624 H1601 0.950 . S
C1624 C1623 1.397 1_554 S
C1624 C1625 1.334 . S
C1625 H1602 0.950 . S
C1625 C1624 1.334 . S
C1625 C1626 1.287 . S
C1626 C1625 1.287 . S
C1626 C1627 1.524 1_554 S
C1626 H1645 0.913 . S
C1627 H1603 0.950 . S
C1627 C1626 1.524 1_556 S
C1627 C1628 1.415 . S
C1628 H1604 0.950 . S
C1628 C1623 1.363 . S
C1628 C1627 1.415 . S
C1629 H1605 0.951 . S
C1629 C1630 1.366 . S
C1629 C1631 1.388 . S
C1630 C1629 1.366 . S
C1630 C1634 1.385 . S
C1631 H1606 0.951 . S
C1631 C1629 1.388 . S
C1631 C1632 1.366 . S
C1632 C1631 1.366 . S
C1632 C1633 1.414 . S
C1632 C1635 1.499 . S
C1633 H1607 0.950 . S
C1633 C1632 1.414 . S
C1633 C1634 1.374 . S
C1634 H1608 0.950 . S
C1634 C1630 1.385 . S
C1634 C1633 1.374 . S
C1635 C1632 1.499 . S
C1635 C1636 1.373 . S
C1635 C1637 1.389 . S
C1636 H1609 0.950 . S
C1636 C1622 1.377 . S
C1636 C1635 1.373 . S
C1637 C1621 1.377 . S
C1637 C1635 1.389 . S
C1637 C1638 1.524 . S
C1638 C1637 1.524 . S
C1638 C1639 1.397 . S
C1638 C1643 1.363 . S
C1639 H1610 0.950 . S
C1639 C1638 1.397 . S
C1639 C1640 1.334 . S
C1640 H1611 0.950 . S
C1640 C1639 1.334 . S
C1640 C1641 1.287 . S
C1641 C1640 1.287 . S
C1641 C1642 1.524 . S
C1641 H1644 0.999 . S
C1642 H1612 0.950 . S
C1642 C1641 1.524 . S
C1642 C1643 1.415 . S
C1643 H1613 0.950 . S
C1643 C1638 1.363 . S
C1643 C1642 1.415 . S
H1644 C1641 0.999 . S
H1645 C1626 0.913 . S
H1646 C1664 0.951 1_556 S
H1647 C1666 0.951 . S
H1648 C1668 0.950 . S
H1649 C1669 0.950 . S
H1650 C1671 0.950 . S
H1651 C1674 0.950 . S
H1652 C1675 0.950 . S
H1653 C1677 0.950 . S
H1654 C1678 0.950 . S
H1655 C1679 0.951 . S
H1656 C1681 0.951 . S
H1657 C1683 0.950 . S
H1658 C1684 0.950 . S
H1659 C1686 0.950 . S
H1660 C1689 0.950 . S
H1661 C1690 0.950 . S
H1662 C1692 0.950 . S
H1663 C1693 0.950 . S
C1664 H1646 0.951 1_554 S
C1664 C1665 1.366 1_554 S
C1664 C1666 1.388 . S
C1665 C1664 1.366 1_556 S
C1665 C1669 1.385 1_556 S
C1666 H1647 0.951 . S
C1666 C1664 1.388 . S
C1666 C1667 1.366 . S
C1667 C1666 1.366 . S
C1667 C1668 1.414 . S
C1667 C1670 1.499 . S
C1668 H1648 0.950 . S
C1668 C1667 1.414 . S
C1668 C1669 1.374 . S
C1669 H1649 0.950 . S
C1669 C1665 1.385 1_554 S
C1669 C1668 1.374 . S
C1670 C1667 1.499 . S
C1670 C1671 1.373 . S
C1670 C1672 1.389 . S
C1671 H1650 0.950 . S
C1671 C1670 1.373 . S
C1671 C1687 1.377 . S
C1672 C1670 1.389 . S
C1672 C1673 1.524 . S
C1672 C1686 1.377 . S
C1673 C1672 1.524 . S
C1673 C1674 1.397 . S
C1673 C1678 1.363 . S
C1674 H1651 0.950 . S
C1674 C1673 1.397 . S
C1674 C1675 1.334 . S
C1675 H1652 0.950 . S
C1675 C1674 1.334 . S
C1675 C1676 1.287 . S
C1676 C1675 1.287 . S
C1676 C1677 1.524 . S
C1676 H1695 0.913 . S
C1677 H1653 0.950 . S
C1677 C1676 1.524 . S
C1677 C1678 1.415 . S
C1678 H1654 0.950 . S
C1678 C1673 1.363 . S
C1678 C1677 1.415 . S
C1679 H1655 0.951 . S
C1679 C1680 1.366 . S
C1679 C1681 1.388 . S
C1680 C1679 1.366 . S
C1680 C1684 1.385 . S
C1681 H1656 0.951 . S
C1681 C1679 1.388 . S
C1681 C1682 1.366 . S
C1682 C1681 1.366 . S
C1682 C1683 1.414 . S
C1682 C1685 1.499 . S
C1683 H1657 0.950 . S
C1683 C1682 1.414 . S
C1683 C1684 1.374 . S
C1684 H1658 0.950 . S
C1684 C1680 1.385 . S
C1684 C1683 1.374 . S
C1685 C1682 1.499 . S
C1685 C1686 1.373 . S
C1685 C1687 1.389 . S
C1686 H1659 0.950 . S
C1686 C1672 1.377 . S
C1686 C1685 1.373 . S
C1687 C1671 1.377 . S
C1687 C1685 1.389 . S
C1687 C1688 1.524 . S
C1688 C1687 1.524 . S
C1688 C1689 1.397 . S
C1688 C1693 1.363 . S
C1689 H1660 0.950 . S
C1689 C1688 1.397 . S
C1689 C1690 1.334 . S
C1690 H1661 0.950 . S
C1690 C1689 1.334 . S
C1690 C1691 1.287 . S
C1691 C1690 1.287 . S
C1691 C1692 1.524 . S
C1691 H1694 0.999 . S
C1692 H1662 0.950 . S
C1692 C1691 1.524 . S
C1692 C1693 1.415 . S
C1693 H1663 0.950 . S
C1693 C1688 1.363 . S
C1693 C1692 1.415 . S
H1694 C1691 0.999 . S
H1695 C1676 0.913 . S
H1696 C1714 0.951 . S
H1697 C1716 0.951 . S
H1698 C1718 0.950 . S
H1699 C1719 0.950 . S
H1700 C1721 0.950 . S
H1701 C1724 0.950 . S
H1702 C1725 0.950 . S
H1703 C1727 0.950 . S
H1704 C1728 0.950 . S
H1705 C1729 0.951 . S
H1706 C1731 0.951 . S
H1707 C1733 0.950 . S
H1708 C1734 0.950 . S
H1709 C1736 0.950 . S
H1710 C1739 0.950 . S
H1711 C1740 0.950 . S
H1712 C1742 0.950 . S
H1713 C1743 0.950 . S
C1714 H1696 0.951 . S
C1714 C1715 1.366 . S
C1714 C1716 1.388 . S
C1715 C1714 1.366 . S
C1715 C1719 1.385 . S
C1716 H1697 0.951 . S
C1716 C1714 1.388 . S
C1716 C1717 1.366 . S
C1717 C1716 1.366 . S
C1717 C1718 1.414 . S
C1717 C1720 1.499 . S
C1718 H1698 0.950 . S
C1718 C1717 1.414 . S
C1718 C1719 1.374 . S
C1719 H1699 0.950 . S
C1719 C1715 1.385 . S
C1719 C1718 1.374 . S
C1720 C1717 1.499 . S
C1720 C1721 1.373 . S
C1720 C1722 1.389 . S
C1721 H1700 0.950 . S
C1721 C1720 1.373 . S
C1721 C1737 1.377 . S
C1722 C1720 1.389 . S
C1722 C1723 1.524 . S
C1722 C1736 1.377 . S
C1723 C1722 1.524 . S
C1723 C1724 1.397 . S
C1723 C1728 1.363 . S
C1724 H1701 0.950 . S
C1724 C1723 1.397 . S
C1724 C1725 1.334 . S
C1725 H1702 0.950 . S
C1725 C1724 1.334 . S
C1725 C1726 1.287 . S
C1726 C1725 1.287 . S
C1726 C1727 1.524 . S
C1726 H1745 0.913 . S
C1727 H1703 0.950 . S
C1727 C1726 1.524 . S
C1727 C1728 1.415 . S
C1728 H1704 0.950 . S
C1728 C1723 1.363 . S
C1728 C1727 1.415 . S
C1729 H1705 0.951 . S
C1729 C1730 1.366 . S
C1729 C1731 1.388 . S
C1730 C1729 1.366 . S
C1730 C1734 1.385 . S
C1731 H1706 0.951 . S
C1731 C1729 1.388 . S
C1731 C1732 1.366 . S
C1732 C1731 1.366 . S
C1732 C1733 1.414 . S
C1732 C1735 1.499 . S
C1733 H1707 0.950 . S
C1733 C1732 1.414 . S
C1733 C1734 1.374 . S
C1734 H1708 0.950 . S
C1734 C1730 1.385 . S
C1734 C1733 1.374 . S
C1735 C1732 1.499 . S
C1735 C1736 1.373 . S
C1735 C1737 1.389 . S
C1736 H1709 0.950 . S
C1736 C1722 1.377 . S
C1736 C1735 1.373 . S
C1737 C1721 1.377 . S
C1737 C1735 1.389 . S
C1737 C1738 1.524 . S
C1738 C1737 1.524 . S
C1738 C1739 1.397 . S
C1738 C1743 1.363 . S
C1739 H1710 0.950 . S
C1739 C1738 1.397 . S
C1739 C1740 1.334 . S
C1740 H1711 0.950 . S
C1740 C1739 1.334 . S
C1740 C1741 1.287 . S
C1741 C1740 1.287 . S
C1741 C1742 1.524 . S
C1741 H1744 0.999 . S
C1742 H1712 0.950 . S
C1742 C1741 1.524 . S
C1742 C1743 1.415 . S
C1743 H1713 0.950 . S
C1743 C1738 1.363 . S
C1743 C1742 1.415 . S
H1744 C1741 0.999 . S
H1745 C1726 0.913 . S
H1746 C1764 0.951 . S
H1747 C1766 0.951 . S
H1748 C1768 0.950 . S
H1749 C1769 0.950 . S
H1750 C1771 0.950 . S
H1751 C1774 0.950 . S
H1752 C1775 0.950 . S
H1753 C1777 0.950 . S
H1754 C1778 0.950 . S
H1755 C1779 0.951 . S
H1756 C1781 0.951 . S
H1757 C1783 0.950 . S
H1758 C1784 0.950 . S
H1759 C1786 0.950 . S
H1760 C1789 0.950 . S
H1761 C1790 0.950 . S
H1762 C1792 0.950 . S
H1763 C1793 0.950 . S
C1764 H1746 0.951 . S
C1764 C1765 1.366 . S
C1764 C1766 1.388 . S
C1765 C1764 1.366 . S
C1765 C1769 1.385 . S
C1766 H1747 0.951 . S
C1766 C1764 1.388 . S
C1766 C1767 1.366 . S
C1767 C1766 1.366 . S
C1767 C1768 1.414 . S
C1767 C1770 1.499 . S
C1768 H1748 0.950 . S
C1768 C1767 1.414 . S
C1768 C1769 1.374 . S
C1769 H1749 0.950 . S
C1769 C1765 1.385 . S
C1769 C1768 1.374 . S
C1770 C1767 1.499 . S
C1770 C1771 1.373 . S
C1770 C1772 1.389 . S
C1771 H1750 0.950 . S
C1771 C1770 1.373 . S
C1771 C1787 1.377 . S
C1772 C1770 1.389 . S
C1772 C1773 1.524 . S
C1772 C1786 1.377 . S
C1773 C1772 1.524 . S
C1773 C1774 1.397 . S
C1773 C1778 1.363 . S
C1774 H1751 0.950 . S
C1774 C1773 1.397 . S
C1774 C1775 1.334 . S
C1775 H1752 0.950 . S
C1775 C1774 1.334 . S
C1775 C1776 1.287 . S
C1776 C1775 1.287 . S
C1776 C1777 1.524 . S
C1776 H1795 0.913 . S
C1777 H1753 0.950 . S
C1777 C1776 1.524 . S
C1777 C1778 1.415 . S
C1778 H1754 0.950 . S
C1778 C1773 1.363 . S
C1778 C1777 1.415 . S
C1779 H1755 0.951 . S
C1779 C1780 1.366 . S
C1779 C1781 1.388 . S
C1780 C1779 1.366 . S
C1780 C1784 1.385 . S
C1781 H1756 0.951 . S
C1781 C1779 1.388 . S
C1781 C1782 1.366 . S
C1782 C1781 1.366 . S
C1782 C1783 1.414 . S
C1782 C1785 1.499 1_554 S
C1783 H1757 0.950 . S
C1783 C1782 1.414 . S
C1783 C1784 1.374 . S
C1784 H1758 0.950 . S
C1784 C1780 1.385 . S
C1784 C1783 1.374 . S
C1785 C1782 1.499 1_556 S
C1785 C1786 1.373 . S
C1785 C1787 1.389 . S
C1786 H1759 0.950 . S
C1786 C1772 1.377 . S
C1786 C1785 1.373 . S
C1787 C1771 1.377 . S
C1787 C1785 1.389 . S
C1787 C1788 1.524 . S
C1788 C1787 1.524 . S
C1788 C1789 1.397 1_556 S
C1788 C1793 1.363 . S
C1789 H1760 0.950 . S
C1789 C1788 1.397 1_554 S
C1789 C1790 1.334 . S
C1790 H1761 0.950 . S
C1790 C1789 1.334 . S
C1790 C1791 1.287 . S
C1791 C1790 1.287 . S
C1791 C1792 1.524 . S
C1791 H1794 0.999 . S
C1792 H1762 0.950 . S
C1792 C1791 1.524 . S
C1792 C1793 1.415 1_554 S
C1793 H1763 0.950 . S
C1793 C1788 1.363 . S
C1793 C1792 1.415 1_556 S
H1794 C1791 0.999 . S
H1795 C1776 0.913 . S
H1796 C1814 0.951 . S
H1797 C1816 0.951 . S
H1798 C1818 0.950 . S
H1799 C1819 0.950 . S
H1800 C1821 0.950 . S
H1801 C1824 0.950 . S
H1802 C1825 0.950 . S
H1803 C1827 0.950 . S
H1804 C1828 0.950 . S
H1805 C1829 0.951 . S
H1806 C1831 0.951 . S
H1807 C1833 0.950 . S
H1808 C1834 0.950 1_556 S
H1809 C1836 0.950 . S
H1810 C1839 0.950 . S
H1811 C1840 0.950 . S
H1812 C1842 0.950 . S
H1813 C1843 0.950 . S
C1814 H1796 0.951 . S
C1814 C1815 1.366 . S
C1814 C1816 1.388 . S
C1815 C1814 1.366 . S
C1815 C1819 1.385 . S
C1816 H1797 0.951 . S
C1816 C1814 1.388 . S
C1816 C1817 1.366 . S
C1817 C1816 1.366 . S
C1817 C1818 1.414 . S
C1817 C1820 1.499 . S
C1818 H1798 0.950 . S
C1818 C1817 1.414 . S
C1818 C1819 1.374 . S
C1819 H1799 0.950 . S
C1819 C1815 1.385 . S
C1819 C1818 1.374 . S
C1820 C1817 1.499 . S
C1820 C1821 1.373 . S
C1820 C1822 1.389 . S
C1821 H1800 0.950 . S
C1821 C1820 1.373 . S
C1821 C1837 1.377 . S
C1822 C1820 1.389 . S
C1822 C1823 1.524 . S
C1822 C1836 1.377 . S
C1823 C1822 1.524 . S
C1823 C1824 1.397 . S
C1823 C1828 1.363 . S
C1824 H1801 0.950 . S
C1824 C1823 1.397 . S
C1824 C1825 1.334 . S
C1825 H1802 0.950 . S
C1825 C1824 1.334 . S
C1825 C1826 1.287 . S
C1826 C1825 1.287 . S
C1826 C1827 1.524 . S
C1826 H1845 0.913 . S
C1827 H1803 0.950 . S
C1827 C1826 1.524 . S
C1827 C1828 1.415 . S
C1828 H1804 0.950 . S
C1828 C1823 1.363 . S
C1828 C1827 1.415 . S
C1829 H1805 0.951 . S
C1829 C1830 1.366 1_554 S
C1829 C1831 1.388 . S
C1830 C1829 1.366 1_556 S
C1830 C1834 1.385 1_556 S
C1831 H1806 0.951 . S
C1831 C1829 1.388 . S
C1831 C1832 1.366 . S
C1832 C1831 1.366 . S
C1832 C1833 1.414 . S
C1832 C1835 1.499 . S
C1833 H1807 0.950 . S
C1833 C1832 1.414 . S
C1833 C1834 1.374 . S
C1834 H1808 0.950 1_554 S
C1834 C1830 1.385 1_554 S
C1834 C1833 1.374 . S
C1835 C1832 1.499 . S
C1835 C1836 1.373 . S
C1835 C1837 1.389 . S
C1836 H1809 0.950 . S
C1836 C1822 1.377 . S
C1836 C1835 1.373 . S
C1837 C1821 1.377 . S
C1837 C1835 1.389 . S
C1837 C1838 1.524 . S
C1838 C1837 1.524 . S
C1838 C1839 1.397 . S
C1838 C1843 1.363 . S
C1839 H1810 0.950 . S
C1839 C1838 1.397 . S
C1839 C1840 1.334 . S
C1840 H1811 0.950 . S
C1840 C1839 1.334 . S
C1840 C1841 1.287 . S
C1841 C1840 1.287 . S
C1841 C1842 1.524 . S
C1841 H1844 0.999 . S
C1842 H1812 0.950 . S
C1842 C1841 1.524 . S
C1842 C1843 1.415 . S
C1843 H1813 0.950 . S
C1843 C1838 1.363 . S
C1843 C1842 1.415 . S
H1844 C1841 0.999 . S
H1845 C1826 0.913 . S
H1846 C1864 0.951 . S
H1847 C1866 0.951 . S
H1848 C1868 0.950 . S
H1849 C1869 0.950 . S
H1850 C1871 0.950 . S
H1851 C1874 0.950 . S
H1852 C1875 0.950 . S
H1853 C1877 0.950 . S
H1854 C1878 0.950 . S
H1855 C1879 0.951 . S
H1856 C1881 0.951 . S
H1857 C1883 0.950 . S
H1858 C1884 0.950 . S
H1859 C1886 0.950 . S
H1860 C1889 0.950 . S
H1861 C1890 0.950 . S
H1862 C1892 0.950 . S
H1863 C1893 0.950 . S
C1864 H1846 0.951 . S
C1864 C1865 1.366 . S
C1864 C1866 1.388 . S
C1865 C1864 1.366 . S
C1865 C1869 1.385 . S
C1866 H1847 0.951 . S
C1866 C1864 1.388 . S
C1866 C1867 1.366 . S
C1867 C1866 1.366 . S
C1867 C1868 1.414 . S
C1867 C1870 1.499 . S
C1868 H1848 0.950 . S
C1868 C1867 1.414 . S
C1868 C1869 1.374 . S
C1869 H1849 0.950 . S
C1869 C1865 1.385 . S
C1869 C1868 1.374 . S
C1870 C1867 1.499 . S
C1870 C1871 1.373 . S
C1870 C1872 1.389 . S
C1871 H1850 0.950 . S
C1871 C1870 1.373 . S
C1871 C1887 1.377 . S
C1872 C1870 1.389 . S
C1872 C1873 1.524 . S
C1872 C1886 1.377 . S
C1873 C1872 1.524 . S
C1873 C1874 1.397 . S
C1873 C1878 1.363 . S
C1874 H1851 0.950 . S
C1874 C1873 1.397 . S
C1874 C1875 1.334 . S
C1875 H1852 0.950 . S
C1875 C1874 1.334 . S
C1875 C1876 1.287 . S
C1876 C1875 1.287 . S
C1876 C1877 1.524 . S
C1876 H1895 0.913 . S
C1877 H1853 0.950 . S
C1877 C1876 1.524 . S
C1877 C1878 1.415 . S
C1878 H1854 0.950 . S
C1878 C1873 1.363 . S
C1878 C1877 1.415 . S
C1879 H1855 0.951 . S
C1879 C1880 1.366 . S
C1879 C1881 1.388 . S
C1880 C1879 1.366 . S
C1880 C1884 1.385 . S
C1881 H1856 0.951 . S
C1881 C1879 1.388 . S
C1881 C1882 1.366 . S
C1882 C1881 1.366 . S
C1882 C1883 1.414 . S
C1882 C1885 1.499 . S
C1883 H1857 0.950 . S
C1883 C1882 1.414 . S
C1883 C1884 1.374 . S
C1884 H1858 0.950 . S
C1884 C1880 1.385 . S
C1884 C1883 1.374 . S
C1885 C1882 1.499 . S
C1885 C1886 1.373 . S
C1885 C1887 1.389 . S
C1886 H1859 0.950 . S
C1886 C1872 1.377 . S
C1886 C1885 1.373 . S
C1887 C1871 1.377 . S
C1887 C1885 1.389 . S
C1887 C1888 1.524 . S
C1888 C1887 1.524 . S
C1888 C1889 1.397 . S
C1888 C1893 1.363 . S
C1889 H1860 0.950 . S
C1889 C1888 1.397 . S
C1889 C1890 1.334 . S
C1890 H1861 0.950 . S
C1890 C1889 1.334 . S
C1890 C1891 1.287 . S
C1891 C1890 1.287 . S
C1891 C1892 1.524 . S
C1891 H1894 0.999 . S
C1892 H1862 0.950 . S
C1892 C1891 1.524 . S
C1892 C1893 1.415 . S
C1893 H1863 0.950 . S
C1893 C1888 1.363 . S
C1893 C1892 1.415 . S
H1894 C1891 0.999 . S
H1895 C1876 0.913 . S
C415 C18 1.259 . S
C430 C348 1.259 . S
C465 C381 1.260 . S
C480 C51 1.259 . S
C515 C216 1.260 . S
C530 C84 1.260 . S
C565 C249 1.259 . S
C580 C117 1.260 . S
C615 C150 1.259 . S
C630 C282 1.259 . S
C665 C315 1.260 . S
C680 C183 1.260 . S
C715 C219 1.600 . S
C730 C21 1.600 . S
C765 C252 1.600 . S
C780 C54 1.600 . S
C815 C87 1.600 . S
C830 C285 1.600 . S
C865 C120 1.600 . S
C880 C318 1.600 . S
C915 C351 1.600 . S
C930 C153 1.600 . S
C965 C384 1.600 . S
C980 C186 1.600 . S
C1015 C7 1.250 . S
C1030 C304 1.250 . S
C1065 C337 1.251 . S
C1080 C40 1.250 . S
C1115 C370 1.250 . S
C1130 C73 1.251 . S
C1165 C205 1.251 . S
C1180 C106 1.250 . S
C1215 C139 1.251 . S
C1230 C238 1.251 . S
C1265 C172 1.251 . S
C1280 C271 1.250 . S
C1315 N2 0.882 . S
C1330 N13 0.882 . S
C1365 N46 0.882 . S
C1380 N35 0.882 . S
C1415 N68 0.882 . S
C1430 N79 0.882 . S
C1465 N112 0.882 . S
C1480 N101 0.882 . S
C1515 N145 0.882 . S
C1530 N134 0.882 . S
C1565 N178 0.883 . S
C1580 N167 0.882 . S
C1615 N200 0.882 . S
C1630 N211 0.883 . S
C1665 N244 0.883 . S
C1680 N233 0.882 . S
C1715 N277 0.882 . S
C1730 N266 0.882 . S
C1765 N310 0.883 . S
C1780 N299 0.882 . S
C1815 N332 0.882 . S
C1830 N343 0.883 . S
C1865 N376 0.882 . S
C1880 N365 0.882 . S
