# Generated by pormake.
# Topology pcu-h, (3)-cn, num edge types: 1
# Building blocks:
#     Node 0, Type 0, BuildingBlock: WUSLED_clean_sbu_0, # of connection points: 3
#     Node 1, Type 0, BuildingBlock: WUSLED_clean_sbu_0, # of connection points: 3
#     Node 2, Type 0, BuildingBlock: WUSLED_clean_sbu_0, # of connection points: 3
#     Node 3, Type 0, BuildingBlock: WUSLED_clean_sbu_0, # of connection points: 3
#     Node 4, Type 0, BuildingBlock: WUSLED_clean_sbu_0, # of connection points: 3
#     Node 5, Type 0, BuildingBlock: WUSLED_clean_sbu_0, # of connection points: 3
#     Node 6, Type 0, BuildingBlock: WUSLED_clean_sbu_0, # of connection points: 3
#     Node 7, Type 0, BuildingBlock: WUSLED_clean_sbu_0, # of connection points: 3
#     Node 8, Type 0, BuildingBlock: WUSLED_clean_sbu_0, # of connection points: 3
#     Node 9, Type 0, BuildingBlock: WUSLED_clean_sbu_0, # of connection points: 3
#     Node 10, Type 0, BuildingBlock: WUSLED_clean_sbu_0, # of connection points: 3
#     Node 11, Type 0, BuildingBlock: WUSLED_clean_sbu_0, # of connection points: 3
#     Node 12, Type 0, BuildingBlock: WUSLED_clean_sbu_0, # of connection points: 3
#     Node 13, Type 0, BuildingBlock: WUSLED_clean_sbu_0, # of connection points: 3
#     Node 14, Type 0, BuildingBlock: WUSLED_clean_sbu_0, # of connection points: 3
#     Node 15, Type 0, BuildingBlock: WUSLED_clean_sbu_0, # of connection points: 3
#     Node 16, Type 0, BuildingBlock: WUSLED_clean_sbu_0, # of connection points: 3
#     Node 17, Type 0, BuildingBlock: WUSLED_clean_sbu_0, # of connection points: 3
#     Edge 18, Type (0, 0), BuildingBlock: ZUJKAS_clean_linker_0, # of connection points: 2
#     Edge 19, Type (0, 0), BuildingBlock: ZUJKAS_clean_linker_0, # of connection points: 2
#     Edge 20, Type (0, 0), BuildingBlock: ZUJKAS_clean_linker_0, # of connection points: 2
#     Edge 21, Type (0, 0), BuildingBlock: ZUJKAS_clean_linker_0, # of connection points: 2
#     Edge 22, Type (0, 0), BuildingBlock: ZUJKAS_clean_linker_0, # of connection points: 2
#     Edge 23, Type (0, 0), BuildingBlock: ZUJKAS_clean_linker_0, # of connection points: 2
#     Edge 24, Type (0, 0), BuildingBlock: ZUJKAS_clean_linker_0, # of connection points: 2
#     Edge 25, Type (0, 0), BuildingBlock: ZUJKAS_clean_linker_0, # of connection points: 2
#     Edge 26, Type (0, 0), BuildingBlock: ZUJKAS_clean_linker_0, # of connection points: 2
#     Edge 27, Type (0, 0), BuildingBlock: ZUJKAS_clean_linker_0, # of connection points: 2
#     Edge 28, Type (0, 0), BuildingBlock: ZUJKAS_clean_linker_0, # of connection points: 2
#     Edge 29, Type (0, 0), BuildingBlock: ZUJKAS_clean_linker_0, # of connection points: 2
#     Edge 30, Type (0, 0), BuildingBlock: ZUJKAS_clean_linker_0, # of connection points: 2
#     Edge 31, Type (0, 0), BuildingBlock: ZUJKAS_clean_linker_0, # of connection points: 2
#     Edge 32, Type (0, 0), BuildingBlock: ZUJKAS_clean_linker_0, # of connection points: 2
#     Edge 33, Type (0, 0), BuildingBlock: ZUJKAS_clean_linker_0, # of connection points: 2
#     Edge 34, Type (0, 0), BuildingBlock: ZUJKAS_clean_linker_0, # of connection points: 2
#     Edge 35, Type (0, 0), BuildingBlock: ZUJKAS_clean_linker_0, # of connection points: 2
#     Edge 36, Type (0, 0), BuildingBlock: ZUJKAS_clean_linker_0, # of connection points: 2
#     Edge 37, Type (0, 0), BuildingBlock: ZUJKAS_clean_linker_0, # of connection points: 2
#     Edge 38, Type (0, 0), BuildingBlock: ZUJKAS_clean_linker_0, # of connection points: 2
#     Edge 39, Type (0, 0), BuildingBlock: ZUJKAS_clean_linker_0, # of connection points: 2
#     Edge 40, Type (0, 0), BuildingBlock: ZUJKAS_clean_linker_0, # of connection points: 2
#     Edge 41, Type (0, 0), BuildingBlock: ZUJKAS_clean_linker_0, # of connection points: 2
#     Edge 42, Type (0, 0), BuildingBlock: ZUJKAS_clean_linker_0, # of connection points: 2
#     Edge 43, Type (0, 0), BuildingBlock: ZUJKAS_clean_linker_0, # of connection points: 2
#     Edge 44, Type (0, 0), BuildingBlock: ZUJKAS_clean_linker_0, # of connection points: 2
# Relax obj value: 0.000
# Max RMSD: 0.008
# Mean RMSD: 0.007
data_MOF--net-pcu-h--node1-WUSLED_clean_sbu_0--edge1-ZUJKAS_clean_linker_0
_symmetry_space_group_name_H-M    P1
_symmetry_Int_Tables_number       1
_symmetry_cell_setting            triclinic
loop_
_symmetry_equiv_pos_as_xyz
'x, y, z'
_cell_length_a     140.40359
_cell_length_b     139.33419
_cell_length_c     35.320687
_cell_angle_alpha  89.906957
_cell_angle_beta   90.091705
_cell_angle_gamma 120.11191
loop_
_atom_site_label
_atom_site_type_symbol
_atom_site_fract_x
_atom_site_fract_y
_atom_site_fract_z
_atom_type_partial_charge
C0 C 0.24228 0.15262 0.04669 0.0
C1 C 0.23225 0.14627 0.02755 0.0
C2 C 0.22797 0.16115 0.03472 0.0
C3 C 0.22517 0.15051 0.02153 0.0
C4 C 0.23801 0.1674 0.05414 0.0
C5 C 0.24507 0.16318 0.06002 0.0
U6 U 0.24981 0.12954 0.0523 0.0
O7 O 0.26478 0.12975 0.03204 0.0
O8 O 0.26071 0.12763 0.09257 0.0
C9 C 0.26798 0.12908 0.06645 0.0
C10 C 0.25006 0.14855 0.05263 0.0
C11 C 0.27971 0.13677 0.07563 0.0
C12 C 0.29412 0.15172 0.11303 0.0
C13 C 0.28298 0.14518 0.10295 0.0
C14 C 0.29889 0.14176 0.06795 0.0
C15 C 0.30221 0.15 0.09601 0.0
C16 C 0.28779 0.13522 0.058 0.0
C17 C 0.22724 0.09892 0.03544 0.0
C18 C 0.22845 0.08314 0.01163 0.0
C19 C 0.21256 0.08003 0.04808 0.0
C20 C 0.21705 0.0915 0.05181 0.0
C21 C 0.21815 0.07569 0.02771 0.0
C22 C 0.23297 0.09464 0.01555 0.0
C23 C 0.23137 0.11098 0.03822 0.0
O24 O 0.2485 0.14256 0.08322 0.0
O25 O 0.25244 0.14457 0.02264 0.0
O26 O 0.23816 0.11734 0.01161 0.0
O27 O 0.23419 0.11534 0.07222 0.0
H28 H 0.22992 0.13806 0.01717 0.0
H29 H 0.21746 0.14541 0.00686 0.0
H30 H 0.24052 0.17568 0.06422 0.0
H31 H 0.25278 0.16822 0.07476 0.0
H32 H 0.29633 0.15792 0.13492 0.0
H33 H 0.27693 0.14657 0.11703 0.0
H34 H 0.30488 0.14032 0.05365 0.0
H35 H 0.28548 0.12881 0.03681 0.0
H36 H 0.23303 0.08009 0.99611 0.0
H37 H 0.20456 0.07457 0.0604 0.0
H38 H 0.21245 0.09459 0.06708 0.0
H39 H 0.24087 0.10017 0.00272 0.0
C40 C 0.89041 0.09844 0.05281 0.0
C41 C 0.89552 0.09485 0.02679 0.0
C42 C 0.88094 0.07559 0.03576 0.0
C43 C 0.89083 0.08353 0.01834 0.0
C44 C 0.87603 0.07926 0.06242 0.0
C45 C 0.88071 0.09055 0.07076 0.0
U46 U 0.91368 0.12908 0.06113 0.0
O47 O 0.9134 0.14425 0.0458 0.0
O48 O 0.91601 0.14132 0.105 0.0
C49 C 0.91439 0.14761 0.08112 0.0
C50 C 0.89475 0.11032 0.06101 0.0
C51 C 0.90687 0.15151 0.09389 0.0
C52 C 0.88983 0.15207 0.08894 0.0
C53 C 0.89643 0.14766 0.0776 0.0
C54 C 0.90389 0.16403 0.13355 0.0
C55 C 0.89353 0.16042 0.11679 0.0
C56 C 0.91047 0.15965 0.12216 0.0
C57 C 0.94386 0.13733 0.03881 0.0
C58 C 0.95925 0.15462 0.01522 0.0
C59 C 0.96273 0.1415 0.04862 0.0
C60 C 0.95139 0.13443 0.05323 0.0
C61 C 0.96683 0.15165 0.02926 0.0
C62 C 0.94789 0.14755 0.02003 0.0
C63 C 0.93191 0.12931 0.04231 0.0
O64 O 0.90103 0.11426 0.09118 0.0
O65 O 0.89843 0.11714 0.03194 0.0
O66 O 0.92536 0.13015 0.01756 0.0
O67 O 0.9279 0.12724 0.07685 0.0
H68 H 0.90304 0.1008 0.01265 0.0
H69 H 0.8948 0.08103 -0.00251 0.0
H70 H 0.86856 0.07341 0.07697 0.0
H71 H 0.87666 0.09314 0.09107 0.0
H72 H 0.88195 0.14913 0.07518 0.0
H73 H 0.89344 0.14136 0.05575 0.0
H74 H 0.90694 0.17027 0.1556 0.0
H75 H 0.91847 0.16273 0.13523 0.0
H76 H 0.96212 0.16243 0.00059 0.0
H77 H 0.96829 0.13887 0.0594 0.0
H78 H 0.94849 0.12657 0.06762 0.0
H79 H 0.94228 0.15003 0.00873 0.0
C80 C 0.89025 0.80021 0.04666 0.0
C81 C 0.89648 0.8102 0.02679 0.0
C82 C 0.88154 0.81432 0.0323 0.0
C83 C 0.89216 0.81718 0.01958 0.0
C84 C 0.87539 0.80431 0.05233 0.0
C85 C 0.8797 0.79735 0.05939 0.0
U86 U 0.91346 0.79311 0.05373 0.0
O87 O 0.91592 0.78308 0.09681 0.0
O88 O 0.91329 0.77779 0.03739 0.0
C89 C 0.91442 0.77532 0.07244 0.0
C90 C 0.89447 0.7926 0.05428 0.0
C91 C 0.90701 0.76375 0.08461 0.0
C92 C 0.88908 0.74686 0.08616 0.0
C93 C 0.89575 0.758 0.07546 0.0
C94 C 0.90479 0.74718 0.11583 0.0
C95 C 0.89355 0.74126 0.10618 0.0
C96 C 0.91143 0.75828 0.10512 0.0
C97 C 0.94348 0.81551 0.03146 0.0
C98 C 0.95879 0.81251 0.01781 0.0
C99 C 0.96231 0.831 0.03189 0.0
C100 C 0.951 0.82684 0.03632 0.0
C101 C 0.96637 0.82391 0.02239 0.0
C102 C 0.94746 0.80833 0.02242 0.0
C103 C 0.93159 0.81148 0.03522 0.0
O104 O 0.89816 0.78968 0.02487 0.0
O105 O 0.90075 0.79486 0.08437 0.0
O106 O 0.92762 0.80929 0.06981 0.0
O107 O 0.92507 0.80407 0.01034 0.0
H108 H 0.90467 0.81259 0.01685 0.0
H109 H 0.89718 0.82487 0.00445 0.0
H110 H 0.86714 0.80175 0.06207 0.0
H111 H 0.87474 0.78967 0.07469 0.0
H112 H 0.88048 0.74255 0.078 0.0
H113 H 0.89216 0.76208 0.05968 0.0
H114 H 0.90849 0.74325 0.13183 0.0
H115 H 0.92008 0.76258 0.11264 0.0
H116 H 0.96163 0.80679 0.01093 0.0
H117 H 0.96785 0.83983 0.03516 0.0
H118 H 0.9481 0.83252 0.0432 0.0
H119 H 0.94181 0.79954 0.01874 0.0
C120 C 0.10652 0.23323 0.94355 0.0
C121 C 0.10284 0.22349 0.96487 0.0
C122 C 0.08376 0.21914 0.95775 0.0
C123 C 0.09157 0.21652 0.972 0.0
C124 C 0.08754 0.22891 0.93625 0.0
C125 C 0.09878 0.23585 0.92927 0.0
U126 U 0.13692 0.24058 0.93673 0.0
O127 O 0.14926 0.25061 0.89344 0.0
O128 O 0.15193 0.25603 0.95275 0.0
C129 C 0.15542 0.25847 0.91761 0.0
C130 C 0.11832 0.24087 0.93603 0.0
C131 C 0.15944 0.27001 0.90493 0.0
C132 C 0.16011 0.2878 0.90955 0.0
C133 C 0.15559 0.27668 0.92078 0.0
C134 C 0.17217 0.28562 0.86592 0.0
C135 C 0.16857 0.29246 0.88226 0.0
C136 C 0.16768 0.27456 0.8772 0.0
C137 C 0.14502 0.21839 0.95898 0.0
C138 C 0.1625 0.22061 0.9807 0.0
C139 C 0.14908 0.20346 0.95078 0.0
C140 C 0.14197 0.2077 0.94627 0.0
C141 C 0.1594 0.20982 0.96831 0.0
C142 C 0.15539 0.22487 0.97597 0.0
C143 C 0.13704 0.22235 0.95534 0.0
O144 O 0.12493 0.24385 0.96548 0.0
O145 O 0.12237 0.23863 0.90601 0.0
O146 O 0.13511 0.22445 0.92076 0.0
O147 O 0.13781 0.22973 0.9802 0.0
H148 H 0.10869 0.22128 0.97603 0.0
H149 H 0.08895 0.20902 0.98831 0.0
H150 H 0.08182 0.2313 0.9253 0.0
H151 H 0.10145 0.24335 0.91284 0.0
H152 H 0.15717 0.29281 0.92294 0.0
H153 H 0.14922 0.27337 0.94221 0.0
H154 H 0.17849 0.28882 0.8443 0.0
H155 H 0.17075 0.26957 0.86448 0.0
H156 H 0.17044 0.22578 0.99389 0.0
H157 H 0.14636 0.19509 0.94132 0.0
H158 H 0.134 0.20254 0.93323 0.0
H159 H 0.15798 0.23318 0.98587 0.0
C160 C 0.80848 0.93522 0.9386 0.0
C161 C 0.81814 0.93906 0.96012 0.0
C162 C 0.82205 0.95817 0.95348 0.0
C163 C 0.82487 0.95043 0.96748 0.0
C164 C 0.81247 0.95424 0.9313 0.0
C165 C 0.80577 0.9429 0.92402 0.0
U166 U 0.80119 0.90454 0.93235 0.0
O167 O 0.78605 0.88955 0.95117 0.0
O168 O 0.7906 0.89181 0.89107 0.0
C169 C 0.78311 0.8858 0.9165 0.0
C170 C 0.80091 0.92328 0.93181 0.0
C171 C 0.77153 0.88193 0.90621 0.0
C172 C 0.75748 0.8844 0.87449 0.0
C173 C 0.76849 0.88855 0.88523 0.0
C174 C 0.7524 0.86707 0.90621 0.0
C175 C 0.74929 0.87358 0.88473 0.0
C176 C 0.76338 0.8712 0.91676 0.0
C177 C 0.82343 0.8965 0.95217 0.0
C178 C 0.82136 0.87898 0.97438 0.0
C179 C 0.8383 0.89248 0.94403 0.0
C180 C 0.83403 0.89958 0.9393 0.0
C181 C 0.83207 0.88212 0.96194 0.0
C182 C 0.81707 0.88608 0.96945 0.0
C183 C 0.81947 0.9045 0.94857 0.0
O184 O 0.80284 0.91907 0.90148 0.0
O185 O 0.79827 0.91676 0.96156 0.0
O186 O 0.81247 0.90396 0.97438 0.0
O187 O 0.81695 0.90613 0.9142 0.0
H188 H 0.82039 0.93325 0.97161 0.0
H189 H 0.83214 0.95314 0.98486 0.0
H190 H 0.81013 0.95993 0.91939 0.0
H191 H 0.79838 0.94011 0.9072 0.0
H192 H 0.75537 0.88969 0.85835 0.0
H193 H 0.77463 0.89689 0.87691 0.0
H194 H 0.74637 0.85866 0.91419 0.0
H195 H 0.76555 0.86594 0.93282 0.0
H196 H 0.81628 0.87101 0.98786 0.0
H197 H 0.84661 0.89525 0.9345 0.0
H198 H 0.83911 0.90759 0.92604 0.0
H199 H 0.80883 0.88346 0.97948 0.0
C200 C 0.10606 0.88042 0.9445 0.0
C201 C 0.10222 0.88746 0.95676 0.0
C202 C 0.08328 0.87193 0.95671 0.0
C203 C 0.09093 0.88325 0.96286 0.0
C204 C 0.08723 0.86496 0.94439 0.0
C205 C 0.09849 0.86917 0.93836 0.0
U206 U 0.13649 0.90362 0.94121 0.0
O207 O 0.15122 0.90325 0.96081 0.0
O208 O 0.14946 0.90616 0.9008 0.0
C209 C 0.15523 0.90442 0.92644 0.0
C210 C 0.11788 0.88456 0.93824 0.0
C211 C 0.15929 0.89682 0.91587 0.0
C212 C 0.15775 0.88107 0.88069 0.0
C213 C 0.15338 0.88778 0.89141 0.0
C214 C 0.17385 0.89222 0.91929 0.0
C215 C 0.16807 0.88323 0.89441 0.0
C216 C 0.16951 0.89893 0.92982 0.0
C217 C 0.14407 0.93373 0.96545 0.0
C218 C 0.16163 0.95054 0.95395 0.0
C219 C 0.14784 0.95129 0.99292 0.0
C220 C 0.1408 0.9399 0.98762 0.0
C221 C 0.15835 0.95679 0.97611 0.0
C222 C 0.15456 0.9391 0.94876 0.0
C223 C 0.13626 0.92179 0.95979 0.0
O224 O 0.1223 0.89105 0.90869 0.0
O225 O 0.12416 0.88809 0.96851 0.0
O226 O 0.13671 0.91504 0.98481 0.0
O227 O 0.13505 0.91809 0.92487 0.0
H228 H 0.10795 0.89619 0.96161 0.0
H229 H 0.08819 0.88889 0.97195 0.0
H230 H 0.08164 0.85619 0.93995 0.0
H231 H 0.1013 0.8636 0.92906 0.0
H232 H 0.15301 0.87415 0.86182 0.0
H233 H 0.14544 0.88594 0.88038 0.0
H234 H 0.18188 0.89424 0.93002 0.0
H235 H 0.17423 0.90588 0.94859 0.0
H236 H 0.16969 0.95447 0.9409 0.0
H237 H 0.14495 0.95583 0.00964 0.0
H238 H 0.13273 0.93592 0.00063 0.0
H239 H 0.15726 0.93447 0.93163 0.0
C240 C 0.90878 0.48652 0.38008 0.0
C241 C 0.90049 0.48175 0.35242 0.0
C242 C 0.89491 0.49545 0.36554 0.0
C243 C 0.89363 0.48618 0.34518 0.0
C244 C 0.90312 0.50004 0.39366 0.0
C245 C 0.90997 0.49563 0.40075 0.0
U246 U 0.9164 0.46347 0.38502 0.0
O247 O 0.93176 0.46403 0.36845 0.0
O248 O 0.9264 0.46092 0.42776 0.0
C249 C 0.93425 0.46287 0.40344 0.0
C250 C 0.91645 0.48237 0.38741 0.0
C251 C 0.94569 0.47053 0.41612 0.0
C252 C 0.96359 0.48728 0.40853 0.0
C253 C 0.95256 0.48062 0.39748 0.0
C254 C 0.96098 0.47404 0.4576 0.0
C255 C 0.96796 0.48403 0.43857 0.0
C256 C 0.95 0.46737 0.44642 0.0
C257 C 0.89445 0.43331 0.3588 0.0
C258 C 0.89409 0.41616 0.37557 0.0
C259 C 0.88183 0.41603 0.32705 0.0
C260 C 0.88616 0.42743 0.33199 0.0
C261 C 0.88568 0.41021 0.3489 0.0
C262 C 0.89846 0.42762 0.3804 0.0
C263 C 0.89842 0.44524 0.36435 0.0
O264 O 0.91419 0.47582 0.41691 0.0
O265 O 0.91968 0.47904 0.35777 0.0
O266 O 0.90584 0.45208 0.34017 0.0
O267 O 0.90043 0.44889 0.39941 0.0
H268 H 0.89939 0.47468 0.33614 0.0
H269 H 0.88748 0.48247 0.32311 0.0
H270 H 0.90423 0.50703 0.41045 0.0
H271 H 0.91627 0.49941 0.42236 0.0
H272 H 0.96869 0.49498 0.39355 0.0
H273 H 0.94947 0.48331 0.37409 0.0
H274 H 0.96409 0.4712 0.48052 0.0
H275 H 0.9449 0.4596 0.46108 0.0
H276 H 0.89734 0.41198 0.39258 0.0
H277 H 0.87526 0.41172 0.30668 0.0
H278 H 0.88291 0.43165 0.31515 0.0
H279 H 0.9049 0.432 0.40118 0.0
C280 C 0.55727 0.43217 0.38394 0.0
C281 C 0.56155 0.42867 0.35456 0.0
C282 C 0.54835 0.40927 0.36899 0.0
C283 C 0.55711 0.41732 0.34707 0.0
C284 C 0.54423 0.41285 0.39872 0.0
C285 C 0.54863 0.42417 0.40602 0.0
U286 U 0.58017 0.46295 0.38975 0.0
O287 O 0.57965 0.47795 0.37383 0.0
O288 O 0.58267 0.47543 0.433 0.0
C289 C 0.58073 0.48146 0.40898 0.0
C290 C 0.5614 0.44405 0.39159 0.0
C291 C 0.57303 0.48513 0.42191 0.0
C292 C 0.55608 0.48581 0.41543 0.0
C293 C 0.56286 0.48163 0.40393 0.0
C294 C 0.56936 0.49681 0.46364 0.0
C295 C 0.55928 0.4935 0.44531 0.0
C296 C 0.57616 0.49269 0.45198 0.0
C297 C 0.61008 0.47095 0.36381 0.0
C298 C 0.62666 0.48873 0.37523 0.0
C299 C 0.62771 0.4746 0.3387 0.0
C300 C 0.61637 0.46754 0.34313 0.0
C301 C 0.63305 0.48526 0.35494 0.0
C302 C 0.61528 0.48163 0.37966 0.0
C303 C 0.59822 0.46307 0.36903 0.0
O304 O 0.56786 0.44825 0.42122 0.0
O305 O 0.56473 0.45075 0.36217 0.0
O306 O 0.59153 0.4639 0.34494 0.0
O307 O 0.59459 0.46139 0.40406 0.0
H308 H 0.56827 0.43468 0.33724 0.0
H309 H 0.56056 0.41485 0.32425 0.0
H310 H 0.53742 0.40691 0.41586 0.0
H311 H 0.54519 0.42669 0.42875 0.0
H312 H 0.54831 0.48298 0.40099 0.0
H313 H 0.5602 0.47576 0.38075 0.0
H314 H 0.57216 0.50281 0.48641 0.0
H315 H 0.58398 0.49556 0.46616 0.0
H316 H 0.6305 0.49684 0.38835 0.0
H317 H 0.63229 0.4717 0.3223 0.0
H318 H 0.61251 0.45935 0.33054 0.0
H319 H 0.61056 0.48442 0.39576 0.0
C320 C 0.55623 0.1333 0.37263 0.0
C321 C 0.56324 0.14448 0.36308 0.0
C322 C 0.54743 0.14721 0.35639 0.0
C323 C 0.55888 0.15138 0.35509 0.0
C324 C 0.54048 0.13598 0.36591 0.0
C325 C 0.54485 0.12911 0.37392 0.0
U326 U 0.5795 0.12628 0.38118 0.0
O327 O 0.58215 0.11677 0.42585 0.0
O328 O 0.57916 0.11073 0.36723 0.0
C329 C 0.58037 0.10865 0.4027 0.0
C330 C 0.56054 0.12584 0.38169 0.0
C331 C 0.57291 0.09724 0.4166 0.0
C332 C 0.556 0.07931 0.4125 0.0
C333 C 0.56251 0.09033 0.40033 0.0
C334 C 0.57005 0.08203 0.45799 0.0
C335 C 0.55975 0.07496 0.4412 0.0
C336 C 0.57654 0.09301 0.44575 0.0
C337 C 0.60937 0.14819 0.35417 0.0
C338 C 0.62645 0.14911 0.3738 0.0
C339 C 0.62643 0.15999 0.32035 0.0
C340 C 0.61512 0.15575 0.32507 0.0
C341 C 0.63228 0.15679 0.34476 0.0
C342 C 0.6151 0.14482 0.37838 0.0
C343 C 0.59751 0.14426 0.35914 0.0
O344 O 0.564 0.12248 0.35283 0.0
O345 O 0.56707 0.12858 0.41128 0.0
O346 O 0.59382 0.14261 0.39412 0.0
O347 O 0.59077 0.13651 0.33561 0.0
H348 H 0.57207 0.14785 0.36185 0.0
H349 H 0.56447 0.15995 0.3475 0.0
H350 H 0.53166 0.13251 0.36781 0.0
H351 H 0.5393 0.12052 0.38138 0.0
H352 H 0.54817 0.07412 0.39869 0.0
H353 H 0.55949 0.09339 0.3778 0.0
H354 H 0.57313 0.07908 0.48065 0.0
H355 H 0.58451 0.09818 0.45881 0.0
H356 H 0.63066 0.14635 0.39283 0.0
H357 H 0.63065 0.16599 0.29803 0.0
H358 H 0.61088 0.1585 0.30616 0.0
H359 H 0.61082 0.13894 0.40096 0.0
C360 C 0.77356 0.568 0.2877 0.0
C361 C 0.76798 0.55688 0.27576 0.0
C362 C 0.75068 0.55432 0.30132 0.0
C363 C 0.75666 0.55012 0.28243 0.0
C364 C 0.75639 0.56541 0.31382 0.0
C365 C 0.76768 0.57216 0.307 0.0
U366 U 0.80376 0.57485 0.2785 0.0
O367 O 0.81621 0.58501 0.23594 0.0
O368 O 0.81898 0.59 0.29567 0.0
C369 C 0.82252 0.59262 0.26067 0.0
C370 C 0.78538 0.57554 0.2795 0.0
C371 C 0.82675 0.60429 0.24952 0.0
C372 C 0.82462 0.61879 0.21891 0.0
C373 C 0.82014 0.60772 0.23071 0.0
C374 C 0.84226 0.62312 0.24529 0.0
C375 C 0.83578 0.62661 0.2257 0.0
C376 C 0.83779 0.6121 0.25698 0.0
C377 C 0.811 0.55202 0.29986 0.0
C378 C 0.82894 0.5537 0.29026 0.0
C379 C 0.81433 0.5373 0.32043 0.0
C380 C 0.80731 0.54165 0.31683 0.0
C381 C 0.82524 0.54322 0.30705 0.0
C382 C 0.82188 0.55806 0.28669 0.0
C383 C 0.80329 0.55626 0.2962 0.0
O384 O 0.7921 0.57839 0.3086 0.0
O385 O 0.78932 0.57344 0.24884 0.0
O386 O 0.80162 0.55867 0.26172 0.0
O387 O 0.80436 0.56367 0.3214 0.0
H388 H 0.77233 0.55345 0.26086 0.0
H389 H 0.75255 0.54168 0.27204 0.0
H390 H 0.75215 0.5689 0.32907 0.0
H391 H 0.77181 0.58069 0.31662 0.0
H392 H 0.8194 0.62114 0.20369 0.0
H393 H 0.81158 0.60183 0.2247 0.0
H394 H 0.85081 0.62893 0.25172 0.0
H395 H 0.84302 0.60964 0.27162 0.0
H396 H 0.83725 0.55846 0.27934 0.0
H397 H 0.81122 0.52932 0.33414 0.0
H398 H 0.79895 0.53689 0.32735 0.0
H399 H 0.82489 0.5661 0.27351 0.0
C400 C 0.47528 0.26905 0.27056 0.0
C401 C 0.48428 0.27257 0.29527 0.0
C402 C 0.48913 0.2919 0.28644 0.0
C403 C 0.49111 0.28389 0.30324 0.0
C404 C 0.48017 0.2883 0.26139 0.0
C405 C 0.47333 0.27701 0.25361 0.0
U406 U 0.4682 0.23855 0.26229 0.0
O407 O 0.45296 0.22326 0.27782 0.0
O408 O 0.45838 0.22621 0.21856 0.0
C409 C 0.45057 0.21988 0.24253 0.0
C410 C 0.46772 0.25719 0.26239 0.0
C411 C 0.43911 0.21586 0.22988 0.0
C412 C 0.42129 0.21476 0.23604 0.0
C413 C 0.43231 0.21929 0.2473 0.0
C414 C 0.42379 0.20355 0.18924 0.0
C415 C 0.41684 0.20672 0.20711 0.0
C416 C 0.43477 0.20804 0.20057 0.0
C417 C 0.49068 0.23102 0.28478 0.0
C418 C 0.48804 0.2126 0.29613 0.0
C419 C 0.50643 0.22822 0.28723 0.0
C420 C 0.50206 0.23522 0.28251 0.0
C421 C 0.49951 0.21682 0.29445 0.0
C422 C 0.48367 0.21963 0.29132 0.0
C423 C 0.48645 0.23878 0.28107 0.0
O424 O 0.47002 0.25325 0.23215 0.0
O425 O 0.46469 0.25039 0.29147 0.0
O426 O 0.47897 0.23767 0.30578 0.0
O427 O 0.48432 0.24065 0.24648 0.0
H428 H 0.48598 0.26657 0.30852 0.0
H429 H 0.498 0.28637 0.32232 0.0
H430 H 0.47829 0.29419 0.24834 0.0
H431 H 0.46642 0.27447 0.23453 0.0
H432 H 0.41619 0.21735 0.25067 0.0
H433 H 0.43545 0.22533 0.26998 0.0
H434 H 0.42076 0.19757 0.16638 0.0
H435 H 0.43986 0.2053 0.18663 0.0
H436 H 0.48246 0.20389 0.30193 0.0
H437 H 0.51525 0.23175 0.285 0.0
H438 H 0.5076 0.24397 0.27728 0.0
H439 H 0.47485 0.21621 0.29313 0.0
C440 C 0.77257 0.21454 0.27884 0.0
C441 C 0.76897 0.21992 0.30378 0.0
C442 C 0.74977 0.20616 0.29055 0.0
C443 C 0.75769 0.21575 0.30968 0.0
C444 C 0.75345 0.20092 0.26525 0.0
C445 C 0.76471 0.20506 0.25954 0.0
U446 U 0.80325 0.23724 0.27393 0.0
O447 O 0.81786 0.23673 0.29433 0.0
O448 O 0.816 0.23901 0.2338 0.0
C449 C 0.82176 0.23745 0.25998 0.0
C450 C 0.78438 0.21843 0.27309 0.0
C451 C 0.82578 0.22973 0.2507 0.0
C452 C 0.82498 0.21454 0.21397 0.0
C453 C 0.82041 0.2211 0.22429 0.0
C454 C 0.84016 0.22494 0.25704 0.0
C455 C 0.83502 0.21648 0.22982 0.0
C456 C 0.83561 0.23148 0.26724 0.0
C457 C 0.81174 0.268 0.29131 0.0
C458 C 0.8278 0.28367 0.32026 0.0
C459 C 0.81701 0.28697 0.27409 0.0
C460 C 0.80998 0.27552 0.27021 0.0
C461 C 0.82595 0.29121 0.29941 0.0
C462 C 0.82079 0.27219 0.3162 0.0
C463 C 0.80367 0.25597 0.2883 0.0
O464 O 0.78889 0.22443 0.24259 0.0
O465 O 0.79074 0.22223 0.30316 0.0
O466 O 0.80392 0.24946 0.31483 0.0
O467 O 0.80207 0.25163 0.25423 0.0
H468 H 0.77489 0.2273 0.31886 0.0
H469 H 0.75515 0.22007 0.32901 0.0
H470 H 0.74762 0.19345 0.2504 0.0
H471 H 0.7673 0.20076 0.24026 0.0
H472 H 0.82081 0.20816 0.19276 0.0
H473 H 0.8128 0.21955 0.21108 0.0
H474 H 0.84777 0.22655 0.27045 0.0
H475 H 0.83989 0.23807 0.28773 0.0
H476 H 0.83467 0.28664 0.3397 0.0
H477 H 0.81523 0.29251 0.25796 0.0
H478 H 0.80303 0.27253 0.25109 0.0
H479 H 0.82238 0.26661 0.33287 0.0
C480 C 0.57627 0.81983 0.71127 0.0
C481 C 0.56571 0.81297 0.69627 0.0
C482 C 0.56203 0.82836 0.69761 0.0
C483 C 0.55865 0.8172 0.68942 0.0
C484 C 0.57265 0.83516 0.7126 0.0
C485 C 0.57967 0.83094 0.71933 0.0
U486 U 0.58349 0.79658 0.71933 0.0
O487 O 0.59871 0.79679 0.70299 0.0
O488 O 0.59358 0.79435 0.76253 0.0
C489 C 0.60126 0.79585 0.73812 0.0
C490 C 0.58389 0.81566 0.71889 0.0
C491 C 0.61275 0.80345 0.7501 0.0
C492 C 0.62982 0.82125 0.74787 0.0
C493 C 0.6188 0.81444 0.73693 0.0
C494 C 0.6288 0.80626 0.78569 0.0
C495 C 0.63498 0.81724 0.77235 0.0
C496 C 0.61783 0.79946 0.77465 0.0
C497 C 0.56118 0.76606 0.69942 0.0
C498 C 0.5621 0.75029 0.67389 0.0
C499 C 0.54682 0.74715 0.71387 0.0
C500 C 0.55128 0.75862 0.71754 0.0
C501 C 0.55211 0.74282 0.69176 0.0
C502 C 0.56661 0.76179 0.67775 0.0
C503 C 0.56527 0.77813 0.70219 0.0
O504 O 0.58178 0.80948 0.7493 0.0
O505 O 0.58667 0.81181 0.68957 0.0
O506 O 0.5725 0.78459 0.67677 0.0
O507 O 0.5675 0.78238 0.73645 0.0
H508 H 0.56292 0.80435 0.68997 0.0
H509 H 0.55051 0.81169 0.67823 0.0
H510 H 0.57561 0.84383 0.7187 0.0
H511 H 0.5878 0.83638 0.73082 0.0
H512 H 0.63428 0.82969 0.73738 0.0
H513 H 0.61503 0.81772 0.71808 0.0
H514 H 0.63251 0.80282 0.80409 0.0
H515 H 0.61333 0.79101 0.78503 0.0
H516 H 0.56646 0.74725 0.65698 0.0
H517 H 0.53905 0.74167 0.72761 0.0
H518 H 0.5469 0.76169 0.73416 0.0
H519 H 0.57427 0.76731 0.66348 0.0
C520 C 0.22373 0.76538 0.71795 0.0
C521 C 0.22666 0.76158 0.6856 0.0
C522 C 0.21417 0.74232 0.70405 0.0
C523 C 0.22192 0.75017 0.67871 0.0
C524 C 0.21149 0.74621 0.73682 0.0
C525 C 0.21619 0.75759 0.74359 0.0
U526 U 0.24671 0.79625 0.72175 0.0
O527 O 0.24602 0.81115 0.70571 0.0
O528 O 0.24946 0.80888 0.76465 0.0
C529 C 0.24739 0.81483 0.7407 0.0
C530 C 0.22798 0.77733 0.72501 0.0
C531 C 0.23981 0.81859 0.75416 0.0
C532 C 0.22241 0.8185 0.75134 0.0
C533 C 0.22913 0.81429 0.73937 0.0
C534 C 0.23684 0.83116 0.79362 0.0
C535 C 0.2262 0.82703 0.77851 0.0
C536 C 0.24355 0.827 0.78152 0.0
C537 C 0.27651 0.80436 0.6941 0.0
C538 C 0.29312 0.82207 0.70602 0.0
C539 C 0.29397 0.80836 0.66636 0.0
C540 C 0.28268 0.8012 0.67159 0.0
C541 C 0.29937 0.81889 0.68359 0.0
C542 C 0.28178 0.81488 0.71117 0.0
C543 C 0.2647 0.79639 0.69999 0.0
O544 O 0.23461 0.78165 0.7542 0.0
O545 O 0.23112 0.78391 0.69529 0.0
O546 O 0.25784 0.79707 0.67627 0.0
O547 O 0.26122 0.79477 0.73522 0.0
H548 H 0.23248 0.76742 0.66534 0.0
H549 H 0.22412 0.74752 0.65303 0.0
H550 H 0.20574 0.74046 0.75738 0.0
H551 H 0.21383 0.76032 0.76879 0.0
H552 H 0.21423 0.81503 0.73943 0.0
H553 H 0.22601 0.80776 0.71834 0.0
H554 H 0.24009 0.83782 0.81419 0.0
H555 H 0.25177 0.83048 0.7932 0.0
H556 H 0.29697 0.83015 0.71938 0.0
H557 H 0.29851 0.80554 0.64941 0.0
H558 H 0.27877 0.7931 0.65831 0.0
H559 H 0.27715 0.81749 0.7286 0.0
C560 C 0.22308 0.46686 0.70259 0.0
C561 C 0.22944 0.4783 0.70978 0.0
C562 C 0.21434 0.48096 0.68867 0.0
C563 C 0.2251 0.48527 0.703 0.0
C564 C 0.20809 0.46952 0.68107 0.0
C565 C 0.21242 0.46256 0.68801 0.0
U566 U 0.24604 0.45937 0.71119 0.0
O567 O 0.24813 0.44897 0.75355 0.0
O568 O 0.24571 0.44401 0.69377 0.0
C569 C 0.24658 0.44129 0.72872 0.0
C570 C 0.22721 0.45917 0.71076 0.0
C571 C 0.23903 0.42961 0.73967 0.0
C572 C 0.22382 0.41548 0.77691 0.0
C573 C 0.23036 0.42657 0.76546 0.0
C574 C 0.23436 0.41028 0.73629 0.0
C575 C 0.22583 0.4072 0.7628 0.0
C576 C 0.24088 0.42134 0.72498 0.0
C577 C 0.27622 0.48141 0.68836 0.0
C578 C 0.29318 0.4822 0.70892 0.0
C579 C 0.29339 0.49296 0.6547 0.0
C580 C 0.28209 0.48885 0.65908 0.0
C581 C 0.29911 0.48974 0.67965 0.0
C582 C 0.28183 0.47805 0.71316 0.0
C583 C 0.26436 0.47757 0.69275 0.0
O584 O 0.23089 0.45616 0.68157 0.0
O585 O 0.23337 0.46128 0.74116 0.0
O586 O 0.26038 0.47537 0.72737 0.0
O587 O 0.25774 0.47029 0.66772 0.0
H588 H 0.23773 0.48182 0.72083 0.0
H589 H 0.23019 0.49406 0.70875 0.0
H590 H 0.19974 0.46588 0.67051 0.0
H591 H 0.20736 0.45376 0.68235 0.0
H592 H 0.21738 0.41344 0.79753 0.0
H593 H 0.22873 0.43279 0.7772 0.0
H594 H 0.23603 0.40414 0.72419 0.0
H595 H 0.24749 0.42347 0.70497 0.0
H596 H 0.29729 0.47945 0.72836 0.0
H597 H 0.29769 0.49884 0.63217 0.0
H598 H 0.27794 0.4916 0.63972 0.0
H599 H 0.27748 0.47226 0.73588 0.0
C600 C 0.44008 0.89999 0.61876 0.0
C601 C 0.43458 0.88907 0.6048 0.0
C602 C 0.41725 0.88592 0.63209 0.0
C603 C 0.42327 0.88212 0.6113 0.0
C604 C 0.42286 0.8968 0.64648 0.0
C605 C 0.43412 0.90375 0.6398 0.0
U606 U 0.4705 0.90759 0.60822 0.0
O607 O 0.48283 0.91838 0.56632 0.0
O608 O 0.48553 0.92277 0.62659 0.0
C609 C 0.489 0.92583 0.59172 0.0
C610 C 0.45186 0.90776 0.6108 0.0
C611 C 0.49305 0.93762 0.58217 0.0
C612 C 0.4924 0.95199 0.54462 0.0
C613 C 0.48781 0.94081 0.55508 0.0
C614 C 0.50734 0.95698 0.58886 0.0
C615 C 0.50232 0.96021 0.56102 0.0
C616 C 0.50277 0.94583 0.59919 0.0
C617 C 0.47861 0.88516 0.62508 0.0
C618 C 0.49667 0.88786 0.64115 0.0
C619 C 0.48221 0.86984 0.62019 0.0
C620 C 0.47506 0.87405 0.61638 0.0
C621 C 0.49309 0.87665 0.63295 0.0
C622 C 0.48951 0.89208 0.63716 0.0
C623 C 0.47063 0.88913 0.62273 0.0
O624 O 0.4586 0.91044 0.6398 0.0
O625 O 0.45589 0.90608 0.57953 0.0
O626 O 0.46881 0.89176 0.58881 0.0
O627 O 0.47138 0.89613 0.64907 0.0
H628 H 0.43898 0.88593 0.58863 0.0
H629 H 0.41925 0.87375 0.60019 0.0
H630 H 0.41848 0.90006 0.6622 0.0
H631 H 0.43818 0.91214 0.65072 0.0
H632 H 0.48834 0.95414 0.52291 0.0
H633 H 0.48029 0.93465 0.54146 0.0
H634 H 0.51485 0.96307 0.60269 0.0
H635 H 0.50696 0.94358 0.62019 0.0
H636 H 0.50503 0.89338 0.65058 0.0
H637 H 0.4791 0.86116 0.61406 0.0
H638 H 0.46667 0.86856 0.60715 0.0
H639 H 0.49246 0.90071 0.64387 0.0
C640 C 0.14064 0.60181 0.60999 0.0
C641 C 0.15152 0.60591 0.62226 0.0
C642 C 0.15423 0.62464 0.62663 0.0
C643 C 0.15827 0.61724 0.63046 0.0
C644 C 0.14332 0.62042 0.6141 0.0
C645 C 0.13662 0.60914 0.60591 0.0
U646 U 0.13402 0.57145 0.60141 0.0
O647 O 0.11881 0.55608 0.6165 0.0
O648 O 0.12435 0.55912 0.55738 0.0
C649 C 0.11647 0.55278 0.58112 0.0
C650 C 0.1333 0.58996 0.6013 0.0
C651 C 0.10506 0.54891 0.56831 0.0
C652 C 0.08736 0.54806 0.57458 0.0
C653 C 0.09833 0.55238 0.58603 0.0
C654 C 0.08975 0.53698 0.52694 0.0
C655 C 0.08291 0.54026 0.54501 0.0
C656 C 0.10068 0.54124 0.53855 0.0
C657 C 0.1564 0.56402 0.62625 0.0
C658 C 0.15442 0.5457 0.62015 0.0
C659 C 0.17117 0.56085 0.64639 0.0
C660 C 0.16692 0.56795 0.64168 0.0
C661 C 0.16499 0.54962 0.63578 0.0
C662 C 0.15016 0.55284 0.61549 0.0
C663 C 0.15223 0.57178 0.62173 0.0
O664 O 0.13591 0.58617 0.57139 0.0
O665 O 0.13024 0.58313 0.6303 0.0
O666 O 0.1446 0.57062 0.64586 0.0
O667 O 0.15021 0.57357 0.58686 0.0
H668 H 0.15477 0.60036 0.62561 0.0
H669 H 0.16658 0.62016 0.64036 0.0
H670 H 0.13997 0.62586 0.61016 0.0
H671 H 0.12826 0.60614 0.5963 0.0
H672 H 0.08237 0.55087 0.5888 0.0
H673 H 0.10151 0.55834 0.60894 0.0
H674 H 0.08658 0.5309 0.5044 0.0
H675 H 0.10568 0.5384 0.52457 0.0
H676 H 0.14939 0.53708 0.61199 0.0
H677 H 0.17939 0.56422 0.6579 0.0
H678 H 0.17188 0.57657 0.65002 0.0
H679 H 0.142 0.54964 0.60358 0.0
C680 C 0.43923 0.54763 0.61044 0.0
C681 C 0.4357 0.55308 0.63526 0.0
C682 C 0.41648 0.53909 0.62347 0.0
C683 C 0.42442 0.54882 0.64181 0.0
C684 C 0.42011 0.53374 0.59843 0.0
C685 C 0.43136 0.53797 0.59205 0.0
U686 U 0.46981 0.5706 0.60667 0.0
O687 O 0.48456 0.56996 0.62365 0.0
O688 O 0.48244 0.57322 0.56433 0.0
C689 C 0.48829 0.57121 0.58879 0.0
C690 C 0.45103 0.55172 0.60356 0.0
C691 C 0.49211 0.56358 0.5761 0.0
C692 C 0.49296 0.54659 0.58258 0.0
C693 C 0.48857 0.55326 0.59361 0.0
C694 C 0.50425 0.5603 0.53574 0.0
C695 C 0.50091 0.55007 0.55367 0.0
C696 C 0.49992 0.56697 0.54691 0.0
C697 C 0.47785 0.60071 0.63325 0.0
C698 C 0.49487 0.61776 0.61824 0.0
C699 C 0.48219 0.61805 0.66396 0.0
C700 C 0.47515 0.60666 0.65879 0.0
C701 C 0.49212 0.62379 0.64364 0.0
C702 C 0.48781 0.60631 0.61316 0.0
C703 C 0.46995 0.58879 0.62742 0.0
O704 O 0.45539 0.55832 0.57424 0.0
O705 O 0.45748 0.55499 0.63348 0.0
O706 O 0.47052 0.58192 0.65159 0.0
O707 O 0.46841 0.58521 0.59229 0.0
H708 H 0.44164 0.5606 0.64962 0.0
H709 H 0.42192 0.55322 0.66094 0.0
H710 H 0.41426 0.52616 0.58421 0.0
H711 H 0.43391 0.53362 0.57287 0.0
H712 H 0.49011 0.53871 0.59667 0.0
H713 H 0.48253 0.55039 0.61611 0.0
H714 H 0.51045 0.56331 0.51373 0.0
H715 H 0.50282 0.57492 0.53313 0.0
H716 H 0.5025 0.62187 0.60242 0.0
H717 H 0.47971 0.62242 0.68331 0.0
H718 H 0.46749 0.60251 0.67445 0.0
H719 H 0.49008 0.60187 0.59338 0.0
H720 H 0.2177 0.0643 0.96361 0.0
H721 H 0.20836 0.04416 0.95453 0.0
H722 H 0.1978 0.0392 0.07101 0.0
H723 H 0.2071 0.05928 0.08033 0.0
H724 H 0.21065 0.02753 0.99031 0.0
H725 H 0.16885 0.02124 0.01406 0.0
H726 H 0.18072 0.03478 0.00637 0.0
H727 H 0.17826 0.02831 0.05218 0.0
C728 C 0.21349 0.05893 0.98742 0.0
C729 C 0.21307 0.06344 0.02263 0.0
C730 C 0.20811 0.04741 0.98213 0.0
C731 C 0.20218 0.04015 0.01185 0.0
C732 C 0.20207 0.04462 0.04736 0.0
H733 H 0.1618 0.96896 0.04084 0.0
H734 H 0.17289 0.98907 0.04859 0.0
C735 C 0.20741 0.05612 0.05265 0.0
C736 C 0.19602 0.02792 0.00574 0.0
H737 H 0.17031 1.00502 0.01055 0.0
C738 C 0.20182 0.02261 0.99453 0.0
C739 C 0.18449 0.02149 0.01113 0.0
C740 C 0.17768 0.02674 0.02124 0.0
C741 C 0.19645 1.01102 0.98956 0.0
C742 C 0.18493 1.00459 0.9954 0.0
C743 C 0.17914 1.00993 0.00627 0.0
C744 C 0.17869 0.99231 0.99072 0.0
C745 C 0.20318 1.00574 0.9791 0.0
C746 C 0.17824 0.98738 0.95557 0.0
C747 C 0.17185 0.97585 0.95098 0.0
C748 C 0.1657 0.969 0.98139 0.0
C749 C 0.16629 0.97397 0.01665 0.0
C750 C 0.17268 0.98548 0.0212 0.0
H751 H 0.21208 1.01132 0.9851 0.0
H752 H 0.20032 0.99783 0.9947 0.0
H753 H 0.20226 1.00387 0.94834 0.0
H754 H 0.18261 0.99248 0.93139 0.0
H755 H 0.17147 0.97234 0.9233 0.0
H756 H 0.97743 0.16311 0.96497 0.0
H757 H 0.99728 0.17445 0.9541 0.0
H758 H 1.00348 0.16809 0.06838 0.0
H759 H 0.98365 0.15673 0.07945 0.0
H760 H 1.0131 0.19332 0.98968 0.0
H761 H 1.02247 0.15934 0.00772 0.0
H762 H 1.00859 0.15677 0.0024 0.0
H763 H 1.01549 0.16107 0.04737 0.0
C764 C 0.983 0.16419 0.98791 0.0
C765 C 0.97892 0.15893 0.02304 0.0
C766 C 0.99436 0.17064 0.98158 0.0
C767 C 1.0019 0.17196 0.01015 0.0
C768 C 0.99785 0.16695 0.04553 0.0
H769 H 0.07373 0.20838 0.02387 0.0
H770 H 0.05397 0.19703 0.03672 0.0
C771 C 0.9865 0.16047 0.05185 0.0
C772 C 1.01398 0.1787 0.00302 0.0
H773 H 0.03776 0.17757 0.00218 0.0
C774 C 1.01848 0.18986 0.99227 0.0
C775 C 1.02103 0.17421 0.00648 0.0
C776 C 1.01666 0.16217 0.01627 0.0
C777 C 0.02982 0.19667 0.98541 0.0
C778 C 0.03686 0.19217 0.98875 0.0
C779 C 0.03238 0.18103 -0.00032 0.0
C780 C 0.04888 0.19885 0.98059 0.0
C781 C 0.0342 0.2087 0.97539 0.0
C782 C 0.05262 0.20345 0.94452 0.0
C783 C 0.06391 0.2099 0.93705 0.0
C784 C 0.07174 0.21185 0.96541 0.0
C785 C 0.06796 0.20699 0.00127 0.0
C786 C 0.05665 0.20054 0.00873 0.0
H787 H 0.02842 0.21155 0.98399 0.0
H788 H 0.04229 0.2141 0.98907 0.0
H789 H 0.03532 0.20974 0.94427 0.0
H790 H 0.0468 0.20202 0.92204 0.0
H791 H 0.0665 0.2133 0.90889 0.0
H792 H 0.86938 0.81949 0.08008 0.0
H793 H 0.86098 0.83084 0.06668 0.0
H794 H 0.87486 0.83745 0.9544 0.0
H795 H 0.88302 0.82583 0.96716 0.0
H796 H 0.87075 0.85308 0.04659 0.0
H797 H 0.84232 0.82636 0.93359 0.0
H798 H 0.84934 0.82169 0.96495 0.0
H799 H 0.85652 0.8306 0.92561 0.0
C800 C 0.87056 0.82326 0.05236 0.0
C801 C 0.87682 0.82165 0.0246 0.0
C802 C 0.86581 0.82981 0.04484 0.0
C803 C 0.86712 0.83486 0.00932 0.0
C804 C 0.87354 0.83347 0.98177 0.0
H805 H 0.84458 0.87769 0.91313 0.0
H806 H 0.85316 0.8664 0.92494 0.0
C807 C 0.87832 0.82692 0.98929 0.0
C808 C 0.86189 0.84168 0.00145 0.0
H809 H 0.84335 0.84366 0.94381 0.0
C810 C 0.86473 0.851 0.0242 0.0
C811 C 0.85403 0.83898 0.9722 0.0
C812 C 0.85027 0.82881 0.94786 0.0
C813 C 0.86007 0.85776 0.01819 0.0
C814 C 0.85219 0.85503 0.98903 0.0
C815 C 0.84938 0.84575 0.96615 0.0
C816 C 0.84679 0.86173 0.98182 0.0
C817 C 0.86378 0.8679 0.04264 0.0
C818 C 0.84018 0.86271 0.00961 0.0
C819 C 0.83528 0.86918 0.00298 0.0
C820 C 0.83686 0.8748 0.96836 0.0
C821 C 0.84331 0.87361 0.94031 0.0
C822 C 0.84818 0.86711 0.94693 0.0
H823 H 0.87174 0.87037 0.05694 0.0
H824 H 0.8647 0.87502 0.0256 0.0
H825 H 0.85751 0.86607 0.06483 0.0
H826 H 0.83883 0.85848 0.03652 0.0
H827 H 0.83043 0.86996 0.02531 0.0
H828 H 0.89078 0.06307 0.0223 0.0
H829 H 0.88183 0.04333 0.00597 0.0
H830 H 0.85008 0.04104 0.01169 0.0
H831 H 0.85893 0.06076 0.02661 0.0
H832 H 0.8665 0.02494 0.04662 0.0
H833 H 0.84878 0.0273 0.90911 0.0
H834 H 0.85928 0.03946 0.93315 0.0
H835 H 0.84509 0.0333 0.94724 0.0
C836 C 0.8819 0.05841 0.01957 0.0
C837 C 0.8756 0.06356 0.02574 0.0
C838 C 0.87679 0.04709 0.01048 0.0
C839 C 0.86528 0.04071 0.00703 0.0
C840 C 0.85898 0.04581 0.01345 0.0
H841 H 0.815 0.97277 0.97068 0.0
H842 H 0.82611 0.99263 0.98327 0.0
C843 C 0.86407 0.05709 0.02249 0.0
C844 C 0.85979 0.02868 -0.00235 0.0
H845 H 0.84176 1.00921 0.93555 0.0
C846 C 0.86118 0.02151 0.02211 0.0
C847 C 0.85287 0.02419 0.9656 0.0
C848 C 0.85149 0.03147 0.93705 0.0
C849 C 0.85552 1.00996 0.01621 0.0
C850 C 0.84838 1.00546 0.98471 0.0
C851 C 0.84718 1.01265 0.95982 0.0
C852 C 0.84176 0.99329 0.97767 0.0
C853 C 0.85691 1.00262 0.04448 0.0
C854 C 0.84685 0.98702 0.9701 0.0
C855 C 0.8405 0.97562 0.96261 0.0
C856 C 0.82891 0.97026 0.9623 0.0
C857 C 0.82388 0.97661 0.97004 0.0
C858 C 0.83023 0.98798 0.97747 0.0
H859 H 0.86073 1.00708 0.07127 0.0
H860 H 0.84886 0.99518 0.05114 0.0
H861 H 0.86233 0.99977 0.0322 0.0
H862 H 0.85574 0.99097 0.96937 0.0
H863 H 0.84467 0.97105 0.95626 0.0
H864 H 0.06595 0.85649 0.91426 0.0
H865 H 0.04626 0.84851 0.92621 0.0
H866 H 0.05352 0.86889 0.02575 0.0
H867 H 0.07326 0.87686 0.01425 0.0
H868 H 0.03414 0.83673 0.98971 0.0
H869 H 0.03163 0.8749 0.96878 0.0
H870 H 0.04334 0.87384 0.9536 0.0
H871 H 0.04181 0.87627 0.00258 0.0
C872 C 0.06339 0.85926 0.93881 0.0
C873 C 0.07124 0.86735 0.96327 0.0
C874 C 0.0521 0.85472 0.94549 0.0
C875 C 0.04838 0.85818 0.9766 0.0
C876 C 0.05618 0.86624 0.0011 0.0
H877 H 0.98347 0.83976 0.06453 0.0
H878 H 1.00323 0.84772 0.05391 0.0
C879 C 0.06748 0.8708 0.99445 0.0
C880 C 0.03636 0.85311 0.98393 0.0
H881 H 1.01564 0.85911 0.99232 0.0
C882 C 0.03009 0.84162 0.99014 0.0
C883 C 0.03107 0.85949 0.98461 0.0
C884 C 0.03727 0.87179 0.97672 0.0
C885 C 1.01872 0.83635 -0.0024 0.0
C886 C 1.01341 0.84272 -0.00189 0.0
C887 C 1.0197 0.85422 0.99197 0.0
C888 C 1.00135 0.83763 0.00487 0.0
C889 C 1.01257 0.82406 0.00576 0.0
C890 C 0.99367 0.82934 0.98073 0.0
C891 C 0.98234 0.82477 0.98674 0.0
C892 C 0.97843 0.82847 0.0168 0.0
C893 C 0.98616 0.83679 0.04088 0.0
C894 C 0.99748 0.84133 0.03492 0.0
H895 H 1.01822 0.82108 0.01481 0.0
H896 H 1.00628 0.82197 0.02817 0.0
H897 H 1.0083 0.81951 0.97964 0.0
H898 H 0.99643 0.82653 0.95679 0.0
H899 H 0.97664 0.81852 0.96723 0.0
H900 H 0.21618 0.15963 0.97055 0.0
H901 H 0.20463 0.16792 0.95902 0.0
H902 H 0.21145 0.18153 0.07184 0.0
H903 H 0.22294 0.17324 0.08369 0.0
H904 H 0.1859 0.16503 -0.00314 0.0
H905 H 0.21966 0.20881 0.00658 0.0
H906 H 0.2222 0.19739 0.0019 0.0
H907 H 0.21855 0.20053 0.04712 0.0
C908 C 0.21515 0.16431 0.99305 0.0
C909 C 0.22058 0.16583 0.02797 0.0
C910 C 0.20859 0.16909 0.98633 0.0
C911 C 0.20734 0.17554 0.01428 0.0
C912 C 0.21252 0.17684 0.04946 0.0
H913 H 0.17174 0.21158 0.03111 0.0
H914 H 0.18324 0.2032 0.0416 0.0
C915 C 0.21909 0.17208 0.0562 0.0
C916 C 0.20051 0.18078 0.00684 0.0
H917 H 0.20146 0.20577 0.00354 0.0
C918 C 0.18931 0.17394 -0.00189 0.0
C919 C 0.20496 0.19241 0.00855 0.0
C920 C 0.21702 0.20024 0.0162 0.0
C921 C 0.18239 0.17839 0.99187 0.0
C922 C 0.18683 0.19003 0.99362 0.0
C923 C 0.19804 0.19686 0.00225 0.0
C924 C 0.17999 0.19528 0.98673 0.0
C925 C 0.17032 0.17055 0.98446 0.0
C926 C 0.1745 0.19383 0.95209 0.0
C927 C 0.16792 0.19862 0.94599 0.0
C928 C 0.16677 0.20508 0.97426 0.0
C929 C 0.1725 0.20675 0.00859 0.0
C930 C 0.17904 0.20191 0.01471 0.0
H931 H 0.1677 0.162 0.99432 0.0
H932 H 0.16515 0.17342 -0.0013 0.0
H933 H 0.16875 0.17018 0.95356 0.0
H934 H 0.17533 0.18902 0.92965 0.0
H935 H 0.1638 0.19734 0.91896 0.0
H936 H 0.83422 0.30273 0.36574 0.0
H937 H 0.84507 0.32287 0.37439 0.0
H938 H 0.84476 0.32754 0.2538 0.0
H939 H 0.83392 0.30745 0.24491 0.0
H940 H 0.86548 0.33884 0.34651 0.0
H941 H 0.83269 0.34665 0.2944 0.0
H942 H 0.8301 0.33293 0.306 0.0
H943 H 0.8363 0.33921 0.26144 0.0
C944 C 0.83655 0.30803 0.341 0.0
C945 C 0.8331 0.30345 0.30463 0.0
C946 C 0.84272 0.31956 0.34602 0.0
C947 C 0.84555 0.32675 0.31484 0.0
C948 C 0.84243 0.32219 0.27841 0.0
H949 H 0.87967 0.39817 0.283 0.0
H950 H 0.87047 0.37802 0.27565 0.0
C951 C 0.83624 0.31068 0.27337 0.0
C952 C 0.8517 0.339 0.32039 0.0
H953 H 0.85026 0.36247 0.30488 0.0
C954 C 0.86214 0.344 0.33757 0.0
C955 C 0.84733 0.34576 0.30882 0.0
C956 C 0.83595 0.34087 0.29197 0.0
C957 C 0.86842 0.35558 0.34266 0.0
C958 C 0.86407 0.36233 0.33078 0.0
C959 C 0.85362 0.35731 0.31381 0.0
C960 C 0.8702 0.37461 0.33553 0.0
C961 C 0.87975 0.3605 0.35985 0.0
C962 C 0.87312 0.37944 0.37166 0.0
C963 C 0.87837 0.39099 0.37599 0.0
C964 C 0.88071 0.39796 0.34427 0.0
C965 C 0.87787 0.39307 0.3081 0.0
C966 C 0.87265 0.38155 0.30382 0.0
H967 H 0.88298 0.35468 0.35821 0.0
H968 H 0.88564 0.36836 0.34548 0.0
H969 H 0.87935 0.36234 0.39016 0.0
H970 H 0.87111 0.37427 0.39665 0.0
H971 H 0.88027 0.39443 0.40429 0.0
H972 H 0.64476 0.50778 0.34196 0.0
H973 H 0.66469 0.51958 0.33332 0.0
H974 H 0.66882 0.49123 0.35014 0.0
H975 H 0.64899 0.47942 0.35902 0.0
H976 H 0.6822 0.52392 0.38144 0.0
H977 H 0.68455 0.50362 0.24963 0.0
H978 H 0.67167 0.50141 0.26866 0.0
H979 H 0.67813 0.49418 0.28835 0.0
C980 C 0.64991 0.50406 0.34408 0.0
C981 C 0.64522 0.49261 0.3508 0.0
C982 C 0.66131 0.51082 0.33896 0.0
C983 C 0.66825 0.50626 0.3403 0.0
C984 C 0.66362 0.4949 0.34795 0.0
H985 H 0.73879 0.53211 0.31945 0.0
H986 H 0.7189 0.52066 0.32923 0.0
C987 C 0.65226 0.48815 0.35302 0.0
C988 C 0.68033 0.51339 0.33414 0.0
H989 H 0.70157 0.51648 0.27826 0.0
C990 C 0.68643 0.52234 0.35874 0.0
C991 C 0.68586 0.51132 0.30454 0.0
C992 C 0.67972 0.50218 0.27604 0.0
C993 C 0.69791 0.52911 0.35504 0.0
C994 C 0.70344 0.527 0.32559 0.0
C995 C 0.69734 0.51807 0.30092 0.0
C996 C 0.71553 0.534 0.31966 0.0
C997 C 0.70407 0.53833 0.38323 0.0
C998 C 0.72024 0.54528 0.31043 0.0
C999 C 0.7316 0.55184 0.30448 0.0
C1000 C 0.73854 0.54727 0.30754 0.0
C1001 C 0.73374 0.53592 0.31645 0.0
C1002 C 0.72237 0.52936 0.32228 0.0
H1003 H 0.69915 0.53715 0.40922 0.0
H1004 H 0.71198 0.53889 0.39142 0.0
H1005 H 0.70597 0.54635 0.37016 0.0
H1006 H 0.71511 0.549 0.30738 0.0
H1007 H 0.73492 0.56047 0.29686 0.0
H1008 H 0.55538 0.16888 0.37791 0.0
H1009 H 0.54714 0.18051 0.36643 0.0
H1010 H 0.52053 0.15374 0.30511 0.0
H1011 H 0.52872 0.1421 0.31621 0.0
H1012 H 0.54204 0.18734 0.29883 0.0
H1013 H 0.50421 0.16174 0.38305 0.0
H1014 H 0.51613 0.16007 0.38603 0.0
H1015 H 0.50669 0.15418 0.34703 0.0
C1016 C 0.54782 0.16549 0.3617 0.0
C1017 C 0.54268 0.1545 0.34827 0.0
C1018 C 0.54309 0.17213 0.35533 0.0
C1019 C 0.5331 0.16793 0.33555 0.0
C1020 C 0.52809 0.15707 0.32131 0.0
H1021 H 0.49159 0.1954 0.26969 0.0
H1022 H 0.49974 0.1836 0.2791 0.0
C1023 C 0.53279 0.15042 0.32768 0.0
C1024 C 0.52798 0.17495 0.32946 0.0
H1025 H 0.50473 0.17633 0.34673 0.0
C1026 C 0.5339 0.18496 0.30944 0.0
C1027 C 0.51734 0.17182 0.34322 0.0
C1028 C 0.51074 0.16142 0.36633 0.0
C1029 C 0.52943 0.19184 0.30232 0.0
C1030 C 0.5188 0.18873 0.31615 0.0
C1031 C 0.51286 0.1787 0.33605 0.0
C1032 C 0.51379 0.19586 0.31081 0.0
C1033 C 0.53604 0.20227 0.27938 0.0
C1034 C 0.51884 0.20659 0.32614 0.0
C1035 C 0.51417 0.21332 0.32103 0.0
C1036 C 0.5043 0.20948 0.30055 0.0
C1037 C 0.49914 0.19862 0.28583 0.0
C1038 C 0.50383 0.19188 0.29101 0.0
H1039 H 0.54255 0.20195 0.26251 0.0
H1040 H 0.53065 0.20368 0.25985 0.0
H1041 H 0.54011 0.20948 0.29881 0.0
H1042 H 0.52638 0.20974 0.34236 0.0
H1043 H 0.51826 0.22152 0.33354 0.0
H1044 H 0.54179 0.39207 0.41933 0.0
H1045 H 0.53278 0.3722 0.40558 0.0
H1046 H 0.53435 0.37918 0.28605 0.0
H1047 H 0.5434 0.39906 0.29957 0.0
H1048 H 0.51319 0.35913 0.37084 0.0
H1049 H 0.54636 0.3582 0.289 0.0
H1050 H 0.5487 0.37009 0.31658 0.0
H1051 H 0.54255 0.36779 0.27032 0.0
C1052 C 0.54024 0.38938 0.39009 0.0
C1053 C 0.54335 0.39719 0.36056 0.0
C1054 C 0.53512 0.37801 0.38226 0.0
C1055 C 0.53302 0.37416 0.34475 0.0
C1056 C 0.53613 0.38193 0.31519 0.0
H1057 H 0.49686 0.30957 0.23756 0.0
H1058 H 0.50759 0.32936 0.25272 0.0
C1059 C 0.5413 0.39331 0.32297 0.0
C1060 C 0.52708 0.36202 0.33674 0.0
H1061 H 0.52873 0.34177 0.28756 0.0
C1062 C 0.51664 0.35533 0.35288 0.0
C1063 C 0.53156 0.35703 0.31325 0.0
C1064 C 0.54295 0.36362 0.29657 0.0
C1065 C 0.51045 0.34388 0.34551 0.0
C1066 C 0.51488 0.33892 0.32175 0.0
C1067 C 0.52534 0.34558 0.30573 0.0
C1068 C 0.50867 0.32686 0.31267 0.0
C1069 C 0.4991 0.33722 0.36245 0.0
C1070 C 0.50587 0.31886 0.34121 0.0
C1071 C 0.4997 0.30752 0.33266 0.0
C1072 C 0.4962 0.30395 0.29533 0.0
C1073 C 0.49925 0.31201 0.26669 0.0
C1074 C 0.50546 0.32333 0.27525 0.0
H1075 H 0.49592 0.34262 0.37271 0.0
H1076 H 0.4932 0.33129 0.34144 0.0
H1077 H 0.49942 0.33238 0.38689 0.0
H1078 H 0.50841 0.32138 0.3702 0.0
H1079 H 0.49746 0.30157 0.35545 0.0
H1080 H 0.64814 0.1639 0.40019 0.0
H1081 H 0.6681 0.17252 0.39215 0.0
H1082 H 0.66386 0.16914 0.27106 0.0
H1083 H 0.64393 0.16055 0.27883 0.0
H1084 H 0.68078 0.16486 0.35961 0.0
H1085 H 0.68629 0.20185 0.28162 0.0
H1086 H 0.67371 0.19254 0.30615 0.0
H1087 H 0.67642 0.18901 0.26 0.0
C1088 C 0.65144 0.16491 0.37185 0.0
C1089 C 0.64441 0.1616 0.34014 0.0
C1090 C 0.66287 0.1699 0.36729 0.0
C1091 C 0.66753 0.17171 0.33096 0.0
C1092 C 0.66051 0.16814 0.29933 0.0
H1093 H 0.73309 0.19776 0.23814 0.0
H1094 H 0.7133 0.18945 0.24933 0.0
C1095 C 0.6491 0.1632 0.30384 0.0
C1096 C 0.6797 0.1772 0.32611 0.0
H1097 H 0.7017 0.19909 0.28303 0.0
C1098 C 0.68536 0.17239 0.3431 0.0
C1099 C 0.68571 0.18705 0.30462 0.0
C1100 C 0.68025 0.19299 0.28735 0.0
C1101 C 0.69679 0.17697 0.33836 0.0
C1102 C 0.70275 0.18673 0.31644 0.0
C1103 C 0.69711 0.19159 0.29972 0.0
C1104 C 0.71482 0.19191 0.30997 0.0
C1105 C 0.70234 0.17118 0.35599 0.0
C1106 C 0.7223 0.19623 0.34026 0.0
C1107 C 0.73363 0.20098 0.33396 0.0
C1108 C 0.73774 0.20152 0.29719 0.0
C1109 C 0.73022 0.19734 0.26687 0.0
C1110 C 0.7189 0.19264 0.27318 0.0
H1111 H 0.6963 0.16253 0.36447 0.0
H1112 H 0.70836 0.17099 0.3361 0.0
H1113 H 0.70687 0.17577 0.38171 0.0
H1114 H 0.71936 0.19592 0.36881 0.0
H1115 H 0.73916 0.20404 0.358 0.0
H1116 H 0.87279 0.48468 0.34842 0.0
H1117 H 0.86125 0.49289 0.33558 0.0
H1118 H 0.8892 0.52556 0.35322 0.0
H1119 H 0.90088 0.51749 0.36446 0.0
H1120 H 0.85633 0.50548 0.38186 0.0
H1121 H 0.87754 0.52969 0.25349 0.0
H1122 H 0.88003 0.51912 0.27261 0.0
H1123 H 0.88658 0.53276 0.29326 0.0
C1124 C 0.87654 0.49363 0.34894 0.0
C1125 C 0.88781 0.5004 0.35741 0.0
C1126 C 0.8699 0.49831 0.34185 0.0
C1127 C 0.87437 0.50986 0.34283 0.0
C1128 C 0.88559 0.51664 0.35147 0.0
H1129 H 0.84729 0.55397 0.32516 0.0
H1130 H 0.85913 0.54586 0.3333 0.0
C1131 C 0.89223 0.51198 0.35845 0.0
C1132 C 0.86723 0.5148 0.33622 0.0
H1133 H 0.86434 0.53346 0.28145 0.0
C1134 C 0.85805 0.51154 0.35972 0.0
C1135 C 0.86947 0.52275 0.3074 0.0
C1136 C 0.87888 0.52622 0.28 0.0
C1137 C 0.85118 0.51613 0.35569 0.0
C1138 C 0.85345 0.52411 0.32702 0.0
C1139 C 0.86263 0.52738 0.30349 0.0
C1140 C 0.84633 0.52907 0.32086 0.0
C1141 C 0.84168 0.51259 0.38273 0.0
C1142 C 0.83526 0.52238 0.31034 0.0
C1143 C 0.82849 0.52699 0.30542 0.0
C1144 C 0.83263 0.53843 0.3108 0.0
C1145 C 0.84382 0.54516 0.32048 0.0
C1146 C 0.8506 0.54053 0.32534 0.0
H1147 H 0.84267 0.5086 0.40856 0.0
H1148 H 0.84083 0.51978 0.39138 0.0
H1149 H 0.83393 0.50648 0.36847 0.0
H1150 H 0.83185 0.51356 0.30585 0.0
H1151 H 0.82 0.52158 0.29713 0.0
H1152 H 0.54206 0.72651 0.74541 0.0
H1153 H 0.53291 0.70641 0.73651 0.0
H1154 H 0.54134 0.71124 0.61797 0.0
H1155 H 0.55054 0.73136 0.62668 0.0
H1156 H 0.51529 0.69345 0.69131 0.0
H1157 H 0.55095 0.68925 0.64764 0.0
H1158 H 0.55255 0.70177 0.6687 0.0
H1159 H 0.54906 0.69888 0.61941 0.0
C1160 C 0.542 0.7233 0.71744 0.0
C1161 C 0.54706 0.73058 0.68677 0.0
C1162 C 0.53679 0.7118 0.71242 0.0
C1163 C 0.53655 0.70728 0.67668 0.0
C1164 C 0.54165 0.7145 0.64603 0.0
H1165 H 0.50342 0.63954 0.58897 0.0
H1166 H 0.51438 0.65971 0.59689 0.0
C1167 C 0.5469 0.72603 0.65105 0.0
C1168 C 0.53047 0.69501 0.67126 0.0
H1169 H 0.53325 0.67317 0.64158 0.0
C1170 C 0.51924 0.68902 0.68063 0.0
C1171 C 0.5356 0.68921 0.65711 0.0
C1172 C 0.54773 0.69508 0.64794 0.0
C1173 C 0.51298 0.67746 0.67588 0.0
C1174 C 0.51811 0.67165 0.66193 0.0
C1175 C 0.52932 0.67763 0.65229 0.0
C1176 C 0.51196 0.65936 0.65745 0.0
C1177 C 0.50086 0.67159 0.68514 0.0
C1178 C 0.50718 0.65243 0.68896 0.0
C1179 C 0.50095 0.64091 0.68457 0.0
C1180 C 0.49939 0.63602 0.64853 0.0
C1181 C 0.5045 0.64298 0.61716 0.0
C1182 C 0.51073 0.65453 0.6216 0.0
H1183 H 0.49764 0.67742 0.68589 0.0
H1184 H 0.49601 0.66497 0.66415 0.0
H1185 H 0.49952 0.66767 0.71347 0.0
H1186 H 0.50823 0.65595 0.71703 0.0
H1187 H 0.49735 0.63581 0.70947 0.0
H1188 H 0.40541 0.88345 0.69678 0.0
H1189 H 0.3855 0.87205 0.70602 0.0
H1190 H 0.38172 0.86078 0.59045 0.0
H1191 H 0.40162 0.87212 0.58104 0.0
H1192 H 0.36873 0.87296 0.66996 0.0
H1193 H 0.36462 0.8317 0.64688 0.0
H1194 H 0.37778 0.84408 0.65404 0.0
H1195 H 0.37122 0.84117 0.60837 0.0
C1196 C 0.40035 0.87855 0.6733 0.0
C1197 C 0.40515 0.87868 0.63819 0.0
C1198 C 0.38896 0.872 0.67867 0.0
C1199 C 0.3821 0.8654 0.64914 0.0
C1200 C 0.38685 0.86556 0.614 0.0
H1201 H 0.31159 0.82257 0.61899 0.0
H1202 H 0.33153 0.83408 0.61144 0.0
C1203 C 0.39825 0.87206 0.60864 0.0
C1204 C 0.36995 0.85865 0.65477 0.0
H1205 H 0.34798 0.83225 0.64957 0.0
C1206 C 0.3642 0.86405 0.66574 0.0
C1207 C 0.36402 0.84701 0.64926 0.0
C1208 C 0.36973 0.84062 0.63935 0.0
C1209 C 0.3527 0.85818 0.67051 0.0
C1210 C 0.34677 0.84656 0.6647 0.0
C1211 C 0.35252 0.84116 0.6539 0.0
C1212 C 0.3346 0.83984 0.66942 0.0
C1213 C 0.34696 0.86452 0.6808 0.0
C1214 C 0.32965 0.83919 0.70459 0.0
C1215 C 0.31822 0.83257 0.70907 0.0
C1216 C 0.31149 0.82637 0.67852 0.0
C1217 C 0.3165 0.8271 0.64328 0.0
C1218 C 0.32791 0.83372 0.63885 0.0
H1219 H 0.35219 0.87353 0.67482 0.0
H1220 H 0.33909 0.8613 0.66507 0.0
H1221 H 0.34507 0.86351 0.71153 0.0
H1222 H 0.33465 0.84364 0.72882 0.0
H1223 H 0.3147 0.83207 0.73675 0.0
H1224 H 0.17702 0.5488 0.69571 0.0
H1225 H 0.18536 0.53715 0.703 0.0
H1226 H 0.17153 0.52146 0.59598 0.0
H1227 H 0.16345 0.53335 0.58781 0.0
H1228 H 0.17571 0.51435 0.70628 0.0
H1229 H 0.20394 0.53095 0.58312 0.0
H1230 H 0.19691 0.53774 0.60201 0.0
H1231 H 0.18972 0.52583 0.57181 0.0
C1232 C 0.17584 0.54296 0.67345 0.0
C1233 C 0.16964 0.54211 0.64096 0.0
C1234 C 0.18056 0.53625 0.67782 0.0
C1235 C 0.17925 0.52855 0.64976 0.0
C1236 C 0.17286 0.52749 0.61767 0.0
H1237 H 0.20168 0.4807 0.62893 0.0
H1238 H 0.19309 0.4921 0.61999 0.0
C1239 C 0.16812 0.53421 0.61327 0.0
C1240 C 0.18446 0.52158 0.65447 0.0
H1241 H 0.20293 0.51541 0.61451 0.0
C1242 C 0.18168 0.51462 0.68627 0.0
C1243 C 0.19227 0.52191 0.62836 0.0
C1244 C 0.19598 0.52958 0.59457 0.0
C1245 C 0.18637 0.50788 0.6924 0.0
C1246 C 0.19419 0.50823 0.66636 0.0
C1247 C 0.19694 0.51515 0.63446 0.0
C1248 C 0.19959 0.50146 0.67171 0.0
C1249 C 0.18273 0.50027 0.72634 0.0
C1250 C 0.20628 0.50305 0.70342 0.0
C1251 C 0.21118 0.49653 0.70867 0.0
C1252 C 0.20953 0.48827 0.68227 0.0
C1253 C 0.203 0.48686 0.65014 0.0
C1254 C 0.19813 0.49341 0.64485 0.0
H1255 H 0.17481 0.49892 0.73803 0.0
H1256 H 0.18179 0.49209 0.71895 0.0
H1257 H 0.18907 0.50404 0.7489 0.0
H1258 H 0.20768 0.50934 0.72421 0.0
H1259 H 0.21609 0.4978 0.73384 0.0
H1260 H 0.14824 0.63816 0.66305 0.0
H1261 H 0.15947 0.65804 0.67543 0.0
H1262 H 0.18751 0.65832 0.62469 0.0
H1263 H 0.17622 0.63846 0.611 0.0
H1264 H 0.17843 0.66958 0.71815 0.0
H1265 H 0.18647 0.68333 0.56804 0.0
H1266 H 0.17607 0.66948 0.58158 0.0
H1267 H 0.19033 0.67327 0.58095 0.0
C1268 C 0.15676 0.64245 0.65408 0.0
C1269 C 0.16127 0.63669 0.63563 0.0
C1270 C 0.1632 0.65382 0.66145 0.0
C1271 C 0.1743 0.65973 0.65046 0.0
C1272 C 0.17892 0.65399 0.63278 0.0
H1273 H 0.2232 0.73054 0.67302 0.0
H1274 H 0.21407 0.71057 0.66044 0.0
C1275 C 0.17247 0.64259 0.62538 0.0
C1276 C 0.18098 0.67188 0.65797 0.0
H1277 H 0.19532 0.6972 0.61469 0.0
C1278 C 0.18213 0.67561 0.69551 0.0
C1279 C 0.18585 0.67976 0.62845 0.0
C1280 C 0.18457 0.67631 0.58744 0.0
C1281 C 0.18798 0.68699 0.70434 0.0
C1282 C 0.19267 0.69487 0.67479 0.0
C1283 C 0.19172 0.69115 0.63731 0.0
C1284 C 0.19823 0.70702 0.68214 0.0
C1285 C 0.18915 0.69046 0.7453 0.0
C1286 C 0.19232 0.71171 0.69786 0.0
C1287 C 0.19749 0.72312 0.70481 0.0
C1288 C 0.2087 0.73015 0.69613 0.0
C1289 C 0.21455 0.72543 0.67983 0.0
C1290 C 0.20936 0.714 0.67278 0.0
H1291 H 0.1878 0.68359 0.76466 0.0
H1292 H 0.19743 0.6977 0.75093 0.0
H1293 H 0.18292 0.69287 0.75204 0.0
H1294 H 0.18366 0.70655 0.70446 0.0
H1295 H 0.19262 0.72645 0.71652 0.0
H1296 H 0.39962 0.53022 0.57177 0.0
H1297 H 0.37988 0.52196 0.58353 0.0
H1298 H 0.38629 0.52893 0.70268 0.0
H1299 H 0.40606 0.53724 0.69114 0.0
H1300 H 0.36635 0.50405 0.62733 0.0
H1301 H 0.36631 0.54147 0.6806 0.0
H1302 H 0.37804 0.5422 0.65698 0.0
H1303 H 0.3754 0.53819 0.70596 0.0
C1304 C 0.39684 0.53 0.60052 0.0
C1305 C 0.40446 0.53442 0.6305 0.0
C1306 C 0.38554 0.5253 0.60717 0.0
C1307 C 0.38157 0.52495 0.64392 0.0
C1308 C 0.38914 0.52934 0.67395 0.0
H1309 H 0.31493 0.49704 0.73522 0.0
H1310 H 0.33486 0.5051 0.72748 0.0
C1311 C 0.40046 0.53409 0.6673 0.0
C1312 C 0.36949 0.51963 0.65077 0.0
H1313 H 0.34949 0.52439 0.68533 0.0
C1314 C 0.36267 0.50852 0.63991 0.0
C1315 C 0.36467 0.52543 0.66732 0.0
C1316 C 0.37145 0.53751 0.67809 0.0
C1317 C 0.35121 0.50304 0.64537 0.0
C1318 C 0.34638 0.50886 0.66168 0.0
C1319 C 0.3532 0.51993 0.67291 0.0
C1320 C 0.33425 0.50369 0.66644 0.0
C1321 C 0.34436 0.49101 0.6341 0.0
C1322 C 0.32728 0.50026 0.63471 0.0
C1323 C 0.3159 0.49563 0.63904 0.0
C1324 C 0.31121 0.49434 0.67523 0.0
C1325 C 0.31823 0.49776 0.70699 0.0
C1326 C 0.32963 0.50245 0.7026 0.0
H1327 H 0.34946 0.487 0.63138 0.0
H1328 H 0.33773 0.4863 0.65507 0.0
H1329 H 0.34045 0.49046 0.60626 0.0
H1330 H 0.33066 0.50128 0.60648 0.0
H1331 H 0.31075 0.49302 0.61398 0.0
H1332 H 0.49547 0.86207 0.58723 0.0
H1333 H 0.50695 0.85369 0.59812 0.0
H1334 H 0.51921 0.8724 0.70141 0.0
H1335 H 0.50755 0.88061 0.69127 0.0
H1336 H 0.52995 0.86379 0.60655 0.0
H1337 H 0.50823 0.84036 0.73581 0.0
H1338 H 0.50247 0.84633 0.70417 0.0
H1339 H 0.51291 0.85495 0.73778 0.0
C1340 C 0.50054 0.86435 0.61244 0.0
C1341 C 0.50051 0.87197 0.6385 0.0
C1342 C 0.50715 0.85959 0.6185 0.0
C1343 C 0.51381 0.86227 0.65089 0.0
C1344 C 0.51399 0.87005 0.67656 0.0
H1345 H 0.55895 0.84267 0.74227 0.0
H1346 H 0.54736 0.8508 0.72967 0.0
C1347 C 0.50741 0.87484 0.67047 0.0
C1348 C 0.52062 0.85698 0.65766 0.0
H1349 H 0.52475 0.8406 0.71993 0.0
C1350 C 0.52878 0.85867 0.63124 0.0
C1351 C 0.51909 0.85029 0.68987 0.0
C1352 C 0.51014 0.84777 0.71841 0.0
C1353 C 0.53562 0.85408 0.63659 0.0
C1354 C 0.53412 0.84743 0.66888 0.0
C1355 C 0.52591 0.8457 0.6952 0.0
C1356 C 0.54109 0.84236 0.67628 0.0
C1357 C 0.5446 0.85666 0.60812 0.0
C1358 C 0.54132 0.83474 0.65077 0.0
C1359 C 0.548 0.83011 0.65779 0.0
C1360 C 0.55459 0.83296 0.69058 0.0
C1361 C 0.55416 0.84043 0.71641 0.0
C1362 C 0.54747 0.84504 0.70938 0.0
H1363 H 0.54647 0.86404 0.59066 0.0
H1364 H 0.55227 0.85816 0.62242 0.0
H1365 H 0.54188 0.84948 0.58879 0.0
H1366 H 0.53631 0.83237 0.62539 0.0
H1367 H 0.54816 0.82445 0.63718 0.0
H1368 H 0.31686 0.1426 0.10514 0.0
H1369 H 0.33619 0.15321 0.1239 0.0
H1370 H 0.33375 0.18274 0.13345 0.0
H1371 H 0.31438 0.1722 0.11419 0.0
H1372 H 0.35347 0.17174 0.08846 0.0
H1373 H 0.34731 0.18174 0.23543 0.0
H1374 H 0.33625 0.17118 0.20748 0.0
H1375 H 0.34088 0.18558 0.1991 0.0
C1376 C 0.32042 0.15137 0.11091 0.0
C1377 C 0.31401 0.15652 0.108 0.0
C1378 C 0.33148 0.15742 0.12188 0.0
C1379 C 0.33641 0.16875 0.13055 0.0
C1380 C 0.33008 0.17395 0.12766 0.0
H1381 H 0.40402 0.21651 0.20077 0.0
H1382 H 0.38464 0.20778 0.18175 0.0
C1383 C 0.31899 0.16791 0.11663 0.0
C1384 C 0.34824 0.17509 0.14162 0.0
H1385 H 0.3657 0.18963 0.21422 0.0
C1386 C 0.35614 0.17565 0.11596 0.0
C1387 C 0.35174 0.18025 0.17743 0.0
C1388 C 0.34362 0.17962 0.20665 0.0
C1389 C 0.36741 0.18121 0.12509 0.0
C1390 C 0.3709 0.18619 0.16117 0.0
C1391 C 0.36303 0.18581 0.1866 0.0
C1392 C 0.38261 0.19148 0.1734 0.0
C1393 C 0.37551 0.18181 0.09582 0.0
C1394 C 0.38787 0.18519 0.17578 0.0
C1395 C 0.39891 0.19012 0.18686 0.0
C1396 C 0.40498 0.20149 0.19596 0.0
C1397 C 0.39962 0.20773 0.19424 0.0
C1398 C 0.38854 0.20277 0.18319 0.0
H1399 H 0.37201 0.1804 0.06678 0.0
H1400 H 0.38322 0.18999 0.09658 0.0
H1401 H 0.37763 0.17528 0.10185 0.0
H1402 H 0.3834 0.17641 0.16929 0.0
H1403 H 0.40264 0.18496 0.18872 0.0
H1404 H 0.85694 0.22406 0.21764 0.0
H1405 H 0.86568 0.21347 0.19853 0.0
H1406 H 0.83395 0.18362 0.19432 0.0
H1407 H 0.8251 0.19414 0.21388 0.0
H1408 H 0.86529 0.19554 0.23531 0.0
H1409 H 0.84728 0.18363 0.09105 0.0
H1410 H 0.84687 0.19438 0.1182 0.0
H1411 H 0.83749 0.18003 0.12875 0.0
C1412 C 0.85179 0.21522 0.21294 0.0
C1413 C 0.84029 0.20997 0.21747 0.0
C1414 C 0.85682 0.20919 0.20177 0.0
C1415 C 0.85049 0.19777 0.19454 0.0
C1416 C 0.839 0.19246 0.19898 0.0
H1417 H 0.87103 0.15024 0.12604 0.0
H1418 H 0.8602 0.15878 0.14537 0.0
C1419 C 0.83395 0.1985 0.2102 0.0
C1420 C 0.85601 0.19145 0.1834 0.0
H1421 H 0.85839 0.17631 0.11166 0.0
C1422 C 0.86377 0.19133 0.20828 0.0
C1423 C 0.85399 0.1859 0.14821 0.0
C1424 C 0.84603 0.18603 0.11979 0.0
C1425 C 0.86957 0.18586 0.19895 0.0
C1426 C 0.86772 0.18051 0.16344 0.0
C1427 C 0.85981 0.18042 0.13884 0.0
C1428 C 0.87423 0.17533 0.15088 0.0
C1429 C 0.87755 0.18577 0.2274 0.0
C1430 C 0.8857 0.18181 0.14676 0.0
C1431 C 0.8919 0.17699 0.13551 0.0
C1432 C 0.88679 0.16553 0.12797 0.0
C1433 C 0.87525 0.15909 0.13136 0.0
C1434 C 0.86904 0.16394 0.14258 0.0
H1435 H 0.87577 0.18743 0.25654 0.0
H1436 H 0.87731 0.17768 0.22727 0.0
H1437 H 0.88602 0.19236 0.21996 0.0
H1438 H 0.88987 0.19066 0.15208 0.0
H1439 H 0.90071 0.18229 0.13234 0.0
H1440 H 0.85621 0.63966 0.19453 0.0
H1441 H 0.86465 0.65894 0.17378 0.0
H1442 H 0.83506 0.65934 0.20312 0.0
H1443 H 0.82665 0.64011 0.22523 0.0
H1444 H 0.85795 0.66825 0.11774 0.0
H1445 H 0.85884 0.68678 0.25785 0.0
H1446 H 0.85628 0.67279 0.25285 0.0
H1447 H 0.84554 0.67587 0.24298 0.0
C1448 C 0.85152 0.64387 0.1971 0.0
C1449 C 0.84077 0.63832 0.21201 0.0
C1450 C 0.85634 0.65489 0.18491 0.0
C1451 C 0.85057 0.66067 0.18739 0.0
C1452 C 0.83977 0.65513 0.20158 0.0
H1453 H 0.87214 0.73016 0.13192 0.0
H1454 H 0.86104 0.71053 0.14948 0.0
C1455 C 0.83492 0.64408 0.21382 0.0
C1456 C 0.85589 0.67245 0.1746 0.0
H1457 H 0.86502 0.69893 0.20536 0.0
C1458 C 0.85947 0.67495 0.1369 0.0
C1459 C 0.85784 0.6812 0.19953 0.0
C1460 C 0.85452 0.67909 0.24065 0.0
C1461 C 0.86497 0.68594 0.12348 0.0
C1462 C 0.86715 0.69473 0.14861 0.0
C1463 C 0.86336 0.69221 0.18611 0.0
C1464 C 0.87377 0.70659 0.13699 0.0
C1465 C 0.86831 0.68803 0.08237 0.0
C1466 C 0.88465 0.71095 0.12441 0.0
C1467 C 0.89098 0.72212 0.11414 0.0
C1468 C 0.88663 0.72928 0.11651 0.0
C1469 C 0.87572 0.72489 0.12925 0.0
C1470 C 0.86938 0.71368 0.13955 0.0
H1471 H 0.86323 0.68055 0.06478 0.0
H1472 H 0.86754 0.69503 0.07086 0.0
H1473 H 0.87703 0.69016 0.07972 0.0
H1474 H 0.8883 0.70572 0.12286 0.0
H1475 H 0.89929 0.72514 0.1041 0.0
H1476 H 0.19038 0.30706 0.86806 0.0
H1477 H 0.19892 0.32643 0.84829 0.0
H1478 H 0.16732 0.32452 0.85199 0.0
H1479 H 0.15864 0.30503 0.87138 0.0
H1480 H 0.19427 0.33499 0.78347 0.0
H1481 H 0.18706 0.35251 0.91439 0.0
H1482 H 0.18575 0.33895 0.91309 0.0
H1483 H 0.17503 0.34098 0.89399 0.0
C1484 C 0.1852 0.3107 0.86447 0.0
C1485 C 0.17378 0.30441 0.87123 0.0
C1486 C 0.19012 0.32183 0.85336 0.0
C1487 C 0.1838 0.32699 0.84902 0.0
C1488 C 0.17242 0.32079 0.85586 0.0
H1489 H 0.20357 0.39494 0.77762 0.0
H1490 H 0.19293 0.37551 0.79798 0.0
C1491 C 0.16746 0.30963 0.86696 0.0
C1492 C 0.18915 0.33875 0.83612 0.0
H1493 H 0.19522 0.36481 0.86284 0.0
C1494 C 0.19446 0.34151 0.80083 0.0
C1495 C 0.18935 0.34725 0.85866 0.0
C1496 C 0.18408 0.34484 0.89729 0.0
C1497 C 0.19999 0.3525 0.78752 0.0
C1498 C 0.20042 0.36104 0.81039 0.0
C1499 C 0.19491 0.35827 0.84535 0.0
C1500 C 0.20688 0.37293 0.79901 0.0
C1501 C 0.20525 0.35486 0.74884 0.0
C1502 C 0.2183 0.37802 0.79362 0.0
C1503 C 0.22441 0.38911 0.78221 0.0
C1504 C 0.21926 0.39543 0.776 0.0
C1505 C 0.20784 0.39037 0.7823 0.0
C1506 C 0.20172 0.37925 0.79379 0.0
H1507 H 0.20161 0.34729 0.7309 0.0
H1508 H 0.20434 0.36138 0.73398 0.0
H1509 H 0.21417 0.35783 0.75201 0.0
H1510 H 0.22252 0.37341 0.79839 0.0
H1511 H 0.23322 0.39277 0.77861 0.0
H1512 H 0.73054 0.86084 0.9261 0.0
H1513 H 0.71139 0.85241 0.90507 0.0
H1514 H 0.72229 0.86761 0.79538 0.0
H1515 H 0.74149 0.87585 0.81584 0.0
H1516 H 0.69952 0.86233 0.8773 0.0
H1517 H 0.70213 0.83466 0.76982 0.0
H1518 H 0.7125 0.84159 0.80582 0.0
H1519 H 0.71219 0.84911 0.76492 0.0
C1520 C 0.72888 0.86233 0.89739 0.0
C1521 C 0.73759 0.86896 0.87258 0.0
C1522 C 0.71792 0.85756 0.88549 0.0
C1523 C 0.71539 0.85923 0.84846 0.0
C1524 C 0.72403 0.86605 0.82388 0.0
H1525 H 0.65247 0.83154 0.72795 0.0
H1526 H 0.67191 0.84251 0.74606 0.0
C1527 C 0.73502 0.87085 0.83578 0.0
C1528 C 0.70371 0.85378 0.83572 0.0
H1529 H 0.68536 0.83472 0.77324 0.0
C1530 C 0.69642 0.8563 0.85453 0.0
C1531 C 0.69966 0.84592 0.80593 0.0
C1532 C 0.70698 0.84256 0.78558 0.0
C1533 C 0.68524 0.85122 0.84429 0.0
C1534 C 0.68116 0.84324 0.81488 0.0
C1535 C 0.68848 0.84084 0.79573 0.0
C1536 C 0.66928 0.83702 0.80439 0.0
C1537 C 0.67793 0.85457 0.86473 0.0
C1538 C 0.66131 0.83024 0.83106 0.0
C1539 C 0.65019 0.824 0.82085 0.0
C1540 C 0.64677 0.82433 0.78361 0.0
C1541 C 0.65477 0.83119 0.75698 0.0
C1542 C 0.66591 0.83741 0.76723 0.0
H1543 H 0.6828 0.86285 0.87817 0.0
H1544 H 0.67183 0.85475 0.84515 0.0
H1545 H 0.67338 0.84845 0.88743 0.0
H1546 H 0.66371 0.82962 0.85972 0.0
H1547 H 0.64427 0.8189 0.84219 0.0
H1548 H 0.21315 0.83204 0.73431 0.0
H1549 H 0.2026 0.84084 0.75383 0.0
H1550 H 0.21293 0.84166 0.86935 0.0
H1551 H 0.22348 0.83287 0.85013 0.0
H1552 H 0.1855 0.83453 0.80564 0.0
H1553 H 0.22214 0.87399 0.8499 0.0
H1554 H 0.22319 0.86368 0.82232 0.0
H1555 H 0.22105 0.86196 0.87264 0.0
C1556 C 0.21309 0.83399 0.76394 0.0
C1557 C 0.21926 0.83183 0.79058 0.0
C1558 C 0.20709 0.83907 0.77503 0.0
C1559 C 0.20714 0.84213 0.81294 0.0
C1560 C 0.21299 0.83966 0.83978 0.0
H1561 H 0.17926 0.8758 0.93804 0.0
H1562 H 0.18815 0.86543 0.91774 0.0
C1563 C 0.21902 0.83461 0.82872 0.0
C1564 C 0.20113 0.84795 0.82442 0.0
H1565 H 0.20471 0.87176 0.86534 0.0
C1566 C 0.1897 0.84269 0.81853 0.0
C1567 C 0.20661 0.85861 0.84119 0.0
C1568 C 0.21894 0.86495 0.8466 0.0
C1569 C 0.18358 0.84769 0.82978 0.0
C1570 C 0.18906 0.85832 0.84681 0.0
C1571 C 0.20049 0.86359 0.85246 0.0
C1572 C 0.18314 0.86416 0.85915 0.0
C1573 C 0.17126 0.84141 0.8242 0.0
C1574 C 0.17735 0.86694 0.83301 0.0
C1575 C 0.17226 0.87291 0.84455 0.0
C1576 C 0.17294 0.87633 0.88244 0.0
C1577 C 0.17867 0.87344 0.90857 0.0
C1578 C 0.18373 0.86746 0.89703 0.0
H1579 H 0.16804 0.83238 0.82039 0.0
H1580 H 0.167 0.84261 0.84863 0.0
H1581 H 0.1692 0.84455 0.7984 0.0
H1582 H 0.17699 0.86473 0.80345 0.0
H1583 H 0.16808 0.87513 0.82352 0.0
H1584 H 0.06481 0.53313 0.59081 0.0
H1585 H 0.04544 0.52425 0.57196 0.0
H1586 H 0.05492 0.52743 0.45454 0.0
H1587 H 0.07429 0.53623 0.47317 0.0
H1588 H 0.03406 0.53135 0.52828 0.0
H1589 H 0.03267 0.49467 0.46153 0.0
H1590 H 0.04403 0.50426 0.49072 0.0
H1591 H 0.04311 0.50762 0.44213 0.0
C1592 C 0.06279 0.53202 0.56095 0.0
C1593 C 0.07113 0.53533 0.53353 0.0
C1594 C 0.05169 0.5269 0.55021 0.0
C1595 C 0.04867 0.52495 0.51184 0.0
C1596 C 0.05699 0.52854 0.48436 0.0
H1597 H 0.98591 0.49434 0.3917 0.0
H1598 H 1.0054 0.5048 0.4095 0.0
C1599 C 0.06808 0.5336 0.49507 0.0
C1600 C 0.03683 0.5192 0.50064 0.0
H1601 H 1.01699 0.49667 0.45277 0.0
C1602 C 0.03032 0.52374 0.5119 0.0
C1603 C 0.03192 0.50925 0.47928 0.0
C1604 C 0.03825 0.50359 0.468 0.0
C1605 C 1.01912 0.51872 0.5019 0.0
C1606 C 1.01425 0.50882 0.48041 0.0
C1607 C 1.02074 0.50429 0.46908 0.0
C1608 C 1.00238 0.50292 0.46982 0.0
C1609 C 1.01264 0.52416 0.51384 0.0
C1610 C 0.99418 0.49835 0.49779 0.0
C1611 C 0.98303 0.49237 0.48771 0.0
C1612 C 0.97982 0.49082 0.44939 0.0
C1613 C 0.98806 0.4955 0.42146 0.0
C1614 C 0.99922 0.50142 0.43158 0.0
H1615 H 1.01811 0.53298 0.52191 0.0
H1616 H 1.00707 0.52377 0.49078 0.0
H1617 H 1.00751 0.5197 0.53876 0.0
H1618 H 0.99642 0.49924 0.52747 0.0
H1619 H 0.97692 0.48896 0.50997 0.0
H1620 H 0.55454 0.49733 0.51717 0.0
H1621 H 0.54372 0.5059 0.53581 0.0
H1622 H 0.53762 0.50936 0.41829 0.0
H1623 H 0.54834 0.50072 0.39948 0.0
H1624 H 0.54739 0.52647 0.52064 0.0
H1625 H 0.50691 0.49562 0.46097 0.0
H1626 H 0.51814 0.4929 0.4657 0.0
H1627 H 0.51775 0.50097 0.42652 0.0
C1628 C 0.55087 0.49988 0.49527 0.0
C1629 C 0.55228 0.49829 0.4568 0.0
C1630 C 0.54465 0.50476 0.50598 0.0
C1631 C 0.53968 0.50814 0.47853 0.0
C1632 C 0.54109 0.50656 0.44009 0.0
H1633 H 0.50567 0.54581 0.4824 0.0
H1634 H 0.51492 0.5355 0.46512 0.0
C1635 C 0.54726 0.50163 0.42936 0.0
C1636 C 0.53349 0.51377 0.4901 0.0
H1637 H 0.50872 0.51276 0.48149 0.0
C1638 C 0.5389 0.52341 0.51231 0.0
C1639 C 0.52241 0.50981 0.47924 0.0
C1640 C 0.51592 0.4992 0.45711 0.0
C1641 C 0.53365 0.52931 0.52325 0.0
C1642 C 0.52262 0.52541 0.51207 0.0
C1643 C 0.51718 0.51576 0.48998 0.0
C1644 C 0.51666 0.53132 0.52272 0.0
C1645 C 0.54002 0.53982 0.54596 0.0
C1646 C 0.51438 0.53224 0.56082 0.0
C1647 C 0.5091 0.53813 0.57081 0.0
C1648 C 0.50598 0.54326 0.54289 0.0
C1649 C 0.50808 0.54211 0.50467 0.0
C1650 C 0.51331 0.53617 0.49471 0.0
H1651 H 0.54903 0.543 0.54508 0.0
H1652 H 0.53843 0.5464 0.53532 0.0
H1653 H 0.53733 0.53813 0.57595 0.0
H1654 H 0.51676 0.52844 0.58289 0.0
H1655 H 0.50769 0.5389 0.6005 0.0
H1656 H 0.56718 0.0607 0.45942 0.0
H1657 H 0.55646 0.04138 0.47979 0.0
H1658 H 0.52657 0.04276 0.46996 0.0
H1659 H 0.53725 0.0622 0.45001 0.0
H1660 H 0.54248 0.03266 0.54294 0.0
H1661 H 0.51966 1.01489 0.40873 0.0
H1662 H 0.53173 0.02853 0.41119 0.0
H1663 H 0.51869 0.02633 0.42762 0.0
C1664 C 0.55833 0.05696 0.46184 0.0
C1665 C 0.55311 0.06308 0.4531 0.0
C1666 C 0.5522 0.04586 0.4733 0.0
C1667 C 0.54069 0.04056 0.47601 0.0
C1668 C 0.53542 0.0466 0.46737 0.0
H1669 H 0.49238 0.97239 0.54301 0.0
H1670 H 0.50125 0.99187 0.52317 0.0
C1671 C 0.54156 0.05773 0.45594 0.0
C1672 C 0.53432 0.0288 0.48884 0.0
H1673 H 0.51503 1.00264 0.46073 0.0
C1674 C 0.53647 0.0261 0.52496 0.0
C1675 C 0.52643 0.02024 0.46547 0.0
C1676 C 0.52401 0.02257 0.42596 0.0
C1677 C 0.53098 1.01511 0.53834 0.0
C1678 C 0.52327 1.00651 0.51469 0.0
C1679 C 0.52095 1.00923 0.47883 0.0
C1680 C 0.51783 0.99464 0.52622 0.0
C1681 C 0.53342 1.01283 0.5779 0.0
C1682 C 0.52417 0.98964 0.53384 0.0
C1683 C 0.51913 0.97851 0.54497 0.0
C1684 C 0.50761 0.97206 0.54864 0.0
C1685 C 0.50125 0.97705 0.5403 0.0
C1686 C 0.50632 0.98821 0.5291 0.0
H1687 H 0.53697 0.0204 0.59581 0.0
H1688 H 0.52586 1.00623 0.5918 0.0
H1689 H 0.53951 1.00998 0.57646 0.0
H1690 H 0.53304 0.99433 0.53089 0.0
H1691 H 0.52429 0.97492 0.5502 0.0
loop_
_geom_bond_atom_site_label_1
_geom_bond_atom_site_label_2
_geom_bond_distance
_geom_bond_site_symmetry_2
_ccdc_geom_bond_type
C0 C1 1.264 . S
C0 C5 1.479 . S
C0 C10 1.465 . S
C1 C0 1.264 . S
C1 C3 1.339 . S
C1 H28 0.931 . S
C2 C3 1.395 . S
C2 C4 1.320 . S
C3 C1 1.339 . S
C3 C2 1.395 . S
C3 H29 0.929 . S
C4 C2 1.320 . S
C4 C5 1.405 . S
C4 H30 0.930 . S
C5 C0 1.479 . S
C5 C4 1.405 . S
C5 H31 0.931 . S
U6 O7 2.454 . S
U6 O8 2.458 . S
U6 C9 2.984 . S
U6 C10 2.847 . S
U6 C23 2.882 . S
U6 O24 2.441 . S
U6 O25 2.420 . S
U6 O26 2.455 . S
U6 O27 2.449 . S
O7 U6 2.454 . S
O7 C9 1.353 . S
O8 U6 2.458 . S
O8 C9 1.286 . S
C9 U6 2.984 . S
C9 O7 1.353 . S
C9 O8 1.286 . S
C9 C11 1.363 . S
C10 C0 1.465 . S
C10 U6 2.847 . S
C10 O24 1.249 . S
C10 O25 1.202 . S
C11 C9 1.363 . S
C11 C13 1.408 . S
C11 C16 1.342 . S
C12 C13 1.310 . S
C12 C15 1.461 . S
C12 H32 0.932 . S
C13 C11 1.408 . S
C13 C12 1.310 . S
C13 H33 0.930 . S
C14 C15 1.474 . S
C14 C16 1.285 . S
C14 H34 0.929 . S
C15 C12 1.461 . S
C15 C14 1.474 . S
C16 C11 1.342 . S
C16 C14 1.285 . S
C16 H35 0.930 . S
C17 C20 1.424 . S
C17 C22 1.245 . S
C17 C23 1.428 . S
C18 C21 1.260 . S
C18 C22 1.477 . S
C18 H36 0.932 . S
C19 C20 1.384 . S
C19 C21 1.479 . S
C19 H37 0.929 . S
C20 C17 1.424 . S
C20 C19 1.384 . S
C20 H38 0.928 . S
C21 C18 1.260 . S
C21 C19 1.479 . S
C22 C17 1.245 . S
C22 C18 1.477 . S
C22 H39 0.932 . S
C23 U6 2.882 . S
C23 C17 1.428 . S
C23 O26 1.301 . S
C23 O27 1.282 . S
O24 U6 2.441 . S
O24 C10 1.249 . S
O25 U6 2.420 . S
O25 C10 1.202 . S
O26 U6 2.455 . S
O26 C23 1.301 . S
O27 U6 2.449 . S
O27 C23 1.282 . S
H28 C1 0.931 . S
H29 C3 0.929 . S
H30 C4 0.930 . S
H31 C5 0.931 . S
H32 C12 0.932 . S
H33 C13 0.930 . S
H34 C14 0.929 . S
H35 C16 0.930 . S
H36 C18 0.932 . S
H37 C19 0.929 . S
H38 C20 0.928 . S
H39 C22 0.932 . S
C40 C41 1.264 . S
C40 C45 1.479 . S
C40 C50 1.465 . S
C41 C40 1.264 . S
C41 C43 1.339 . S
C41 H68 0.931 . S
C42 C43 1.395 . S
C42 C44 1.320 . S
C43 C41 1.339 . S
C43 C42 1.395 . S
C43 H69 0.929 . S
C44 C42 1.320 . S
C44 C45 1.405 . S
C44 H70 0.930 . S
C45 C40 1.479 . S
C45 C44 1.405 . S
C45 H71 0.931 . S
U46 O47 2.454 . S
U46 O48 2.458 . S
U46 C49 2.984 . S
U46 C50 2.847 . S
U46 C63 2.882 . S
U46 O64 2.441 . S
U46 O65 2.420 . S
U46 O66 2.455 . S
U46 O67 2.449 . S
O47 U46 2.454 . S
O47 C49 1.353 . S
O48 U46 2.458 . S
O48 C49 1.286 . S
C49 U46 2.984 . S
C49 O47 1.353 . S
C49 O48 1.286 . S
C49 C51 1.363 . S
C50 C40 1.465 . S
C50 U46 2.847 . S
C50 O64 1.249 . S
C50 O65 1.202 . S
C51 C49 1.363 . S
C51 C53 1.408 . S
C51 C56 1.342 . S
C52 C53 1.310 . S
C52 C55 1.461 . S
C52 H72 0.932 . S
C53 C51 1.408 . S
C53 C52 1.310 . S
C53 H73 0.930 . S
C54 C55 1.474 . S
C54 C56 1.285 . S
C54 H74 0.929 . S
C55 C52 1.461 . S
C55 C54 1.474 . S
C56 C51 1.342 . S
C56 C54 1.285 . S
C56 H75 0.930 . S
C57 C60 1.424 . S
C57 C62 1.245 . S
C57 C63 1.428 . S
C58 C61 1.260 . S
C58 C62 1.477 . S
C58 H76 0.932 . S
C59 C60 1.384 . S
C59 C61 1.479 . S
C59 H77 0.929 . S
C60 C57 1.424 . S
C60 C59 1.384 . S
C60 H78 0.928 . S
C61 C58 1.260 . S
C61 C59 1.479 . S
C62 C57 1.245 . S
C62 C58 1.477 . S
C62 H79 0.932 . S
C63 U46 2.882 . S
C63 C57 1.428 . S
C63 O66 1.301 . S
C63 O67 1.282 . S
O64 U46 2.441 . S
O64 C50 1.249 . S
O65 U46 2.420 . S
O65 C50 1.202 . S
O66 U46 2.455 . S
O66 C63 1.301 . S
O67 U46 2.449 . S
O67 C63 1.282 . S
H68 C41 0.931 . S
H69 C43 0.929 . S
H70 C44 0.930 . S
H71 C45 0.931 . S
H72 C52 0.932 . S
H73 C53 0.930 . S
H74 C54 0.929 . S
H75 C56 0.930 . S
H76 C58 0.932 . S
H77 C59 0.929 . S
H78 C60 0.928 . S
H79 C62 0.932 . S
C80 C81 1.264 . S
C80 C85 1.479 . S
C80 C90 1.465 . S
C81 C80 1.264 . S
C81 C83 1.339 . S
C81 H108 0.931 . S
C82 C83 1.395 1_556 S
C82 C84 1.320 1_556 S
C83 C81 1.339 . S
C83 C82 1.395 1_554 S
C83 H109 0.929 1_554 S
C84 C82 1.320 1_554 S
C84 C85 1.405 . S
C84 H110 0.930 . S
C85 C80 1.479 . S
C85 C84 1.405 . S
C85 H111 0.931 . S
U86 O87 2.454 . S
U86 O88 2.458 . S
U86 C89 2.984 . S
U86 C90 2.847 . S
U86 C103 2.882 . S
U86 O104 2.441 . S
U86 O105 2.420 . S
U86 O106 2.455 . S
U86 O107 2.449 . S
O87 U86 2.454 . S
O87 C89 1.353 . S
O88 U86 2.458 . S
O88 C89 1.286 . S
C89 U86 2.984 . S
C89 O87 1.353 . S
C89 O88 1.286 . S
C89 C91 1.363 . S
C90 C80 1.465 . S
C90 U86 2.847 . S
C90 O104 1.249 . S
C90 O105 1.202 . S
C91 C89 1.363 . S
C91 C93 1.408 . S
C91 C96 1.342 . S
C92 C93 1.310 . S
C92 C95 1.461 . S
C92 H112 0.932 . S
C93 C91 1.408 . S
C93 C92 1.310 . S
C93 H113 0.930 . S
C94 C95 1.474 . S
C94 C96 1.285 . S
C94 H114 0.929 . S
C95 C92 1.461 . S
C95 C94 1.474 . S
C96 C91 1.342 . S
C96 C94 1.285 . S
C96 H115 0.930 . S
C97 C100 1.424 . S
C97 C102 1.245 . S
C97 C103 1.428 . S
C98 C101 1.260 . S
C98 C102 1.477 . S
C98 H116 0.932 . S
C99 C100 1.384 . S
C99 C101 1.479 . S
C99 H117 0.937 . S
C100 C97 1.424 . S
C100 C99 1.384 . S
C100 H118 0.928 . S
C101 C98 1.260 . S
C101 C99 1.479 . S
C102 C97 1.245 . S
C102 C98 1.477 . S
C102 H119 0.932 . S
C103 U86 2.882 . S
C103 C97 1.428 . S
C103 O106 1.301 . S
C103 O107 1.282 . S
O104 U86 2.441 . S
O104 C90 1.249 . S
O105 U86 2.420 . S
O105 C90 1.202 . S
O106 U86 2.455 . S
O106 C103 1.301 . S
O107 U86 2.449 . S
O107 C103 1.282 . S
H108 C81 0.931 . S
H109 C83 0.929 1_556 S
H110 C84 0.930 . S
H111 C85 0.931 . S
H112 C92 0.932 . S
H113 C93 0.930 . S
H114 C94 0.929 . S
H115 C96 0.930 . S
H116 C98 0.932 . S
H117 C99 0.937 . S
H118 C100 0.928 . S
H119 C102 0.932 . S
C120 C121 1.264 . S
C120 C125 1.479 . S
C120 C130 1.465 . S
C121 C120 1.264 . S
C121 C123 1.339 . S
C121 H148 0.931 . S
C122 C123 1.395 1_554 S
C122 C124 1.320 1_554 S
C123 C121 1.339 . S
C123 C122 1.395 1_556 S
C123 H149 0.929 1_556 S
C124 C122 1.320 1_556 S
C124 C125 1.405 . S
C124 H150 0.930 . S
C125 C120 1.479 . S
C125 C124 1.405 . S
C125 H151 0.931 . S
U126 O127 2.454 . S
U126 O128 2.458 . S
U126 C129 2.984 . S
U126 C130 2.847 . S
U126 C143 2.882 . S
U126 O144 2.441 . S
U126 O145 2.420 . S
U126 O146 2.455 . S
U126 O147 2.449 . S
O127 U126 2.454 . S
O127 C129 1.353 . S
O128 U126 2.458 . S
O128 C129 1.286 . S
C129 U126 2.984 . S
C129 O127 1.353 . S
C129 O128 1.286 . S
C129 C131 1.363 . S
C130 C120 1.465 . S
C130 U126 2.847 . S
C130 O144 1.249 . S
C130 O145 1.202 . S
C131 C129 1.363 . S
C131 C133 1.408 . S
C131 C136 1.342 . S
C132 C133 1.310 . S
C132 C135 1.461 . S
C132 H152 0.932 . S
C133 C131 1.408 . S
C133 C132 1.310 . S
C133 H153 0.930 . S
C134 C135 1.474 . S
C134 C136 1.285 . S
C134 H154 0.929 . S
C135 C132 1.461 . S
C135 C134 1.474 . S
C136 C131 1.342 . S
C136 C134 1.285 . S
C136 H155 0.930 . S
C137 C140 1.424 . S
C137 C142 1.245 . S
C137 C143 1.428 . S
C138 C141 1.260 . S
C138 C142 1.477 . S
C138 H156 0.932 . S
C139 C140 1.384 . S
C139 C141 1.479 . S
C139 H157 0.931 . S
C140 C137 1.424 . S
C140 C139 1.384 . S
C140 H158 0.928 . S
C141 C138 1.260 . S
C141 C139 1.479 . S
C142 C137 1.245 . S
C142 C138 1.477 . S
C142 H159 0.932 . S
C143 U126 2.882 . S
C143 C137 1.428 . S
C143 O146 1.301 . S
C143 O147 1.282 . S
O144 U126 2.441 . S
O144 C130 1.249 . S
O145 U126 2.420 . S
O145 C130 1.202 . S
O146 U126 2.455 . S
O146 C143 1.301 . S
O147 U126 2.449 . S
O147 C143 1.282 . S
H148 C121 0.931 . S
H149 C123 0.929 1_554 S
H150 C124 0.930 . S
H151 C125 0.931 . S
H152 C132 0.932 . S
H153 C133 0.930 . S
H154 C134 0.929 . S
H155 C136 0.930 . S
H156 C138 0.932 . S
H157 C139 0.931 . S
H158 C140 0.928 . S
H159 C142 0.932 . S
C160 C161 1.264 . S
C160 C165 1.479 . S
C160 C170 1.465 . S
C161 C160 1.264 . S
C161 C163 1.339 . S
C161 H188 0.931 . S
C162 C163 1.395 . S
C162 C164 1.320 . S
C163 C161 1.339 . S
C163 C162 1.395 . S
C163 H189 0.929 . S
C164 C162 1.320 . S
C164 C165 1.405 . S
C164 H190 0.930 . S
C165 C160 1.479 . S
C165 C164 1.405 . S
C165 H191 0.931 . S
U166 O167 2.454 . S
U166 O168 2.458 . S
U166 C169 2.984 . S
U166 C170 2.847 . S
U166 C183 2.882 . S
U166 O184 2.441 . S
U166 O185 2.420 . S
U166 O186 2.455 . S
U166 O187 2.449 . S
O167 U166 2.454 . S
O167 C169 1.353 . S
O168 U166 2.458 . S
O168 C169 1.286 . S
C169 U166 2.984 . S
C169 O167 1.353 . S
C169 O168 1.286 . S
C169 C171 1.363 . S
C170 C160 1.465 . S
C170 U166 2.847 . S
C170 O184 1.249 . S
C170 O185 1.202 . S
C171 C169 1.363 . S
C171 C173 1.408 . S
C171 C176 1.342 . S
C172 C173 1.310 . S
C172 C175 1.461 . S
C172 H192 0.932 . S
C173 C171 1.408 . S
C173 C172 1.310 . S
C173 H193 0.930 . S
C174 C175 1.474 . S
C174 C176 1.285 . S
C174 H194 0.929 . S
C175 C172 1.461 . S
C175 C174 1.474 . S
C176 C171 1.342 . S
C176 C174 1.285 . S
C176 H195 0.930 . S
C177 C180 1.424 . S
C177 C182 1.245 . S
C177 C183 1.428 . S
C178 C181 1.260 . S
C178 C182 1.477 . S
C178 H196 0.932 . S
C179 C180 1.384 . S
C179 C181 1.479 . S
C179 H197 0.929 . S
C180 C177 1.424 . S
C180 C179 1.384 . S
C180 H198 0.928 . S
C181 C178 1.260 . S
C181 C179 1.479 . S
C182 C177 1.245 . S
C182 C178 1.477 . S
C182 H199 0.932 . S
C183 U166 2.882 . S
C183 C177 1.428 . S
C183 O186 1.301 . S
C183 O187 1.282 . S
O184 U166 2.441 . S
O184 C170 1.249 . S
O185 U166 2.420 . S
O185 C170 1.202 . S
O186 U166 2.455 . S
O186 C183 1.301 . S
O187 U166 2.449 . S
O187 C183 1.282 . S
H188 C161 0.931 . S
H189 C163 0.929 . S
H190 C164 0.930 . S
H191 C165 0.931 . S
H192 C172 0.932 . S
H193 C173 0.930 . S
H194 C174 0.929 . S
H195 C176 0.930 . S
H196 C178 0.932 . S
H197 C179 0.929 . S
H198 C180 0.928 . S
H199 C182 0.932 . S
C200 C201 1.264 . S
C200 C205 1.479 . S
C200 C210 1.465 . S
C201 C200 1.264 . S
C201 C203 1.339 . S
C201 H228 0.931 1_556 S
C202 C203 1.395 . S
C202 C204 1.320 . S
C203 C201 1.339 . S
C203 C202 1.395 . S
C203 H229 0.929 1_556 S
C204 C202 1.320 . S
C204 C205 1.405 . S
C204 H230 0.930 . S
C205 C200 1.479 . S
C205 C204 1.405 . S
C205 H231 0.931 . S
U206 O207 2.454 . S
U206 O208 2.458 . S
U206 C209 2.984 . S
U206 C210 2.847 . S
U206 C223 2.882 . S
U206 O224 2.441 . S
U206 O225 2.420 . S
U206 O226 2.455 . S
U206 O227 2.449 1_556 S
O207 U206 2.454 . S
O207 C209 1.353 . S
O208 U206 2.458 . S
O208 C209 1.286 . S
C209 U206 2.984 . S
C209 O207 1.353 . S
C209 O208 1.286 . S
C209 C211 1.363 . S
C210 C200 1.465 . S
C210 U206 2.847 . S
C210 O224 1.249 . S
C210 O225 1.202 . S
C211 C209 1.363 . S
C211 C213 1.408 . S
C211 C216 1.342 . S
C212 C213 1.310 . S
C212 C215 1.461 . S
C212 H232 0.932 . S
C213 C211 1.408 . S
C213 C212 1.310 . S
C213 H233 0.930 . S
C214 C215 1.474 . S
C214 C216 1.285 . S
C214 H234 0.929 . S
C215 C212 1.461 . S
C215 C214 1.474 . S
C216 C211 1.342 . S
C216 C214 1.285 . S
C216 H235 0.930 . S
C217 C220 1.424 . S
C217 C222 1.245 . S
C217 C223 1.428 . S
C218 C221 1.260 . S
C218 C222 1.477 . S
C218 H236 0.932 . S
C219 C220 1.384 . S
C219 C221 1.479 . S
C219 H237 0.929 1_556 S
C220 C217 1.424 . S
C220 C219 1.384 . S
C220 H238 0.928 . S
C221 C218 1.260 . S
C221 C219 1.479 . S
C222 C217 1.245 . S
C222 C218 1.477 . S
C222 H239 0.932 . S
C223 U206 2.882 . S
C223 C217 1.428 . S
C223 O226 1.301 . S
C223 O227 1.282 1_556 S
O224 U206 2.441 . S
O224 C210 1.249 . S
O225 U206 2.420 . S
O225 C210 1.202 . S
O226 U206 2.455 . S
O226 C223 1.301 . S
O227 U206 2.449 1_554 S
O227 C223 1.282 1_554 S
H228 C201 0.931 1_554 S
H229 C203 0.929 1_554 S
H230 C204 0.930 . S
H231 C205 0.931 . S
H232 C212 0.932 . S
H233 C213 0.930 . S
H234 C214 0.929 . S
H235 C216 0.930 . S
H236 C218 0.932 . S
H237 C219 0.929 1_554 S
H238 C220 0.928 . S
H239 C222 0.932 . S
C240 C241 1.264 . S
C240 C245 1.479 . S
C240 C250 1.465 . S
C241 C240 1.264 . S
C241 C243 1.339 . S
C241 H268 0.931 . S
C242 C243 1.395 . S
C242 C244 1.320 . S
C243 C241 1.339 . S
C243 C242 1.395 . S
C243 H269 0.929 . S
C244 C242 1.320 . S
C244 C245 1.405 . S
C244 H270 0.930 . S
C245 C240 1.479 . S
C245 C244 1.405 . S
C245 H271 0.931 . S
U246 O247 2.454 . S
U246 O248 2.458 . S
U246 C249 2.984 . S
U246 C250 2.847 . S
U246 C263 2.882 . S
U246 O264 2.441 . S
U246 O265 2.420 . S
U246 O266 2.455 . S
U246 O267 2.449 . S
O247 U246 2.454 . S
O247 C249 1.353 . S
O248 U246 2.458 . S
O248 C249 1.286 . S
C249 U246 2.984 . S
C249 O247 1.353 . S
C249 O248 1.286 . S
C249 C251 1.363 . S
C250 C240 1.465 . S
C250 U246 2.847 . S
C250 O264 1.249 . S
C250 O265 1.202 . S
C251 C249 1.363 . S
C251 C253 1.408 . S
C251 C256 1.342 . S
C252 C253 1.310 . S
C252 C255 1.461 . S
C252 H272 0.932 . S
C253 C251 1.408 . S
C253 C252 1.310 . S
C253 H273 0.930 . S
C254 C255 1.474 . S
C254 C256 1.285 . S
C254 H274 0.929 . S
C255 C252 1.461 . S
C255 C254 1.474 . S
C256 C251 1.342 . S
C256 C254 1.285 . S
C256 H275 0.930 . S
C257 C260 1.424 . S
C257 C262 1.245 . S
C257 C263 1.428 . S
C258 C261 1.260 . S
C258 C262 1.477 . S
C258 H276 0.932 . S
C259 C260 1.384 . S
C259 C261 1.479 . S
C259 H277 0.929 . S
C260 C257 1.424 . S
C260 C259 1.384 . S
C260 H278 0.928 . S
C261 C258 1.260 . S
C261 C259 1.479 . S
C262 C257 1.245 . S
C262 C258 1.477 . S
C262 H279 0.932 . S
C263 U246 2.882 . S
C263 C257 1.428 . S
C263 O266 1.301 . S
C263 O267 1.282 . S
O264 U246 2.441 . S
O264 C250 1.249 . S
O265 U246 2.420 . S
O265 C250 1.202 . S
O266 U246 2.455 . S
O266 C263 1.301 . S
O267 U246 2.449 . S
O267 C263 1.282 . S
H268 C241 0.931 . S
H269 C243 0.929 . S
H270 C244 0.930 . S
H271 C245 0.931 . S
H272 C252 0.932 . S
H273 C253 0.930 . S
H274 C254 0.929 . S
H275 C256 0.930 . S
H276 C258 0.932 . S
H277 C259 0.929 . S
H278 C260 0.928 . S
H279 C262 0.932 . S
C280 C281 1.264 . S
C280 C285 1.479 . S
C280 C290 1.465 . S
C281 C280 1.264 . S
C281 C283 1.339 . S
C281 H308 0.931 . S
C282 C283 1.395 . S
C282 C284 1.320 . S
C283 C281 1.339 . S
C283 C282 1.395 . S
C283 H309 0.929 . S
C284 C282 1.320 . S
C284 C285 1.405 . S
C284 H310 0.930 . S
C285 C280 1.479 . S
C285 C284 1.405 . S
C285 H311 0.931 . S
U286 O287 2.454 . S
U286 O288 2.458 . S
U286 C289 2.984 . S
U286 C290 2.847 . S
U286 C303 2.882 . S
U286 O304 2.441 . S
U286 O305 2.420 . S
U286 O306 2.455 . S
U286 O307 2.449 . S
O287 U286 2.454 . S
O287 C289 1.353 . S
O288 U286 2.458 . S
O288 C289 1.286 . S
C289 U286 2.984 . S
C289 O287 1.353 . S
C289 O288 1.286 . S
C289 C291 1.363 . S
C290 C280 1.465 . S
C290 U286 2.847 . S
C290 O304 1.249 . S
C290 O305 1.202 . S
C291 C289 1.363 . S
C291 C293 1.408 . S
C291 C296 1.342 . S
C292 C293 1.310 . S
C292 C295 1.461 . S
C292 H312 0.932 . S
C293 C291 1.408 . S
C293 C292 1.310 . S
C293 H313 0.930 . S
C294 C295 1.474 . S
C294 C296 1.285 . S
C294 H314 0.929 . S
C295 C292 1.461 . S
C295 C294 1.474 . S
C296 C291 1.342 . S
C296 C294 1.285 . S
C296 H315 0.930 . S
C297 C300 1.424 . S
C297 C302 1.245 . S
C297 C303 1.428 . S
C298 C301 1.260 . S
C298 C302 1.477 . S
C298 H316 0.932 . S
C299 C300 1.384 . S
C299 C301 1.479 . S
C299 H317 0.929 . S
C300 C297 1.424 . S
C300 C299 1.384 . S
C300 H318 0.928 . S
C301 C298 1.260 . S
C301 C299 1.479 . S
C302 C297 1.245 . S
C302 C298 1.477 . S
C302 H319 0.932 . S
C303 U286 2.882 . S
C303 C297 1.428 . S
C303 O306 1.301 . S
C303 O307 1.282 . S
O304 U286 2.441 . S
O304 C290 1.249 . S
O305 U286 2.420 . S
O305 C290 1.202 . S
O306 U286 2.455 . S
O306 C303 1.301 . S
O307 U286 2.449 . S
O307 C303 1.282 . S
H308 C281 0.931 . S
H309 C283 0.929 . S
H310 C284 0.930 . S
H311 C285 0.931 . S
H312 C292 0.932 . S
H313 C293 0.930 . S
H314 C294 0.929 . S
H315 C296 0.930 . S
H316 C298 0.932 . S
H317 C299 0.929 . S
H318 C300 0.928 . S
H319 C302 0.932 . S
C320 C321 1.264 . S
C320 C325 1.479 . S
C320 C330 1.465 . S
C321 C320 1.264 . S
C321 C323 1.339 . S
C321 H348 0.931 . S
C322 C323 1.395 . S
C322 C324 1.320 . S
C323 C321 1.339 . S
C323 C322 1.395 . S
C323 H349 0.929 . S
C324 C322 1.320 . S
C324 C325 1.405 . S
C324 H350 0.930 . S
C325 C320 1.479 . S
C325 C324 1.405 . S
C325 H351 0.931 . S
U326 O327 2.454 . S
U326 O328 2.458 . S
U326 C329 2.984 . S
U326 C330 2.847 . S
U326 C343 2.882 . S
U326 O344 2.441 . S
U326 O345 2.420 . S
U326 O346 2.455 . S
U326 O347 2.449 . S
O327 U326 2.454 . S
O327 C329 1.353 . S
O328 U326 2.458 . S
O328 C329 1.286 . S
C329 U326 2.984 . S
C329 O327 1.353 . S
C329 O328 1.286 . S
C329 C331 1.363 . S
C330 C320 1.465 . S
C330 U326 2.847 . S
C330 O344 1.249 . S
C330 O345 1.202 . S
C331 C329 1.363 . S
C331 C333 1.408 . S
C331 C336 1.342 . S
C332 C333 1.310 . S
C332 C335 1.461 . S
C332 H352 0.932 . S
C333 C331 1.408 . S
C333 C332 1.310 . S
C333 H353 0.930 . S
C334 C335 1.474 . S
C334 C336 1.285 . S
C334 H354 0.929 . S
C335 C332 1.461 . S
C335 C334 1.474 . S
C336 C331 1.342 . S
C336 C334 1.285 . S
C336 H355 0.930 . S
C337 C340 1.424 . S
C337 C342 1.245 . S
C337 C343 1.428 . S
C338 C341 1.260 . S
C338 C342 1.477 . S
C338 H356 0.932 . S
C339 C340 1.384 . S
C339 C341 1.479 . S
C339 H357 0.929 . S
C340 C337 1.424 . S
C340 C339 1.384 . S
C340 H358 0.928 . S
C341 C338 1.260 . S
C341 C339 1.479 . S
C342 C337 1.245 . S
C342 C338 1.477 . S
C342 H359 0.932 . S
C343 U326 2.882 . S
C343 C337 1.428 . S
C343 O346 1.301 . S
C343 O347 1.282 . S
O344 U326 2.441 . S
O344 C330 1.249 . S
O345 U326 2.420 . S
O345 C330 1.202 . S
O346 U326 2.455 . S
O346 C343 1.301 . S
O347 U326 2.449 . S
O347 C343 1.282 . S
H348 C321 0.931 . S
H349 C323 0.929 . S
H350 C324 0.930 . S
H351 C325 0.931 . S
H352 C332 0.932 . S
H353 C333 0.930 . S
H354 C334 0.929 . S
H355 C336 0.930 . S
H356 C338 0.932 . S
H357 C339 0.929 . S
H358 C340 0.928 . S
H359 C342 0.932 . S
C360 C361 1.264 . S
C360 C365 1.479 . S
C360 C370 1.465 . S
C361 C360 1.264 . S
C361 C363 1.339 . S
C361 H388 0.931 . S
C362 C363 1.395 . S
C362 C364 1.320 . S
C363 C361 1.339 . S
C363 C362 1.395 . S
C363 H389 0.929 . S
C364 C362 1.320 . S
C364 C365 1.405 . S
C364 H390 0.930 . S
C365 C360 1.479 . S
C365 C364 1.405 . S
C365 H391 0.931 . S
U366 O367 2.454 . S
U366 O368 2.458 . S
U366 C369 2.984 . S
U366 C370 2.847 . S
U366 C383 2.882 . S
U366 O384 2.441 . S
U366 O385 2.420 . S
U366 O386 2.455 . S
U366 O387 2.449 . S
O367 U366 2.454 . S
O367 C369 1.353 . S
O368 U366 2.458 . S
O368 C369 1.286 . S
C369 U366 2.984 . S
C369 O367 1.353 . S
C369 O368 1.286 . S
C369 C371 1.363 . S
C370 C360 1.465 . S
C370 U366 2.847 . S
C370 O384 1.249 . S
C370 O385 1.202 . S
C371 C369 1.363 . S
C371 C373 1.408 . S
C371 C376 1.342 . S
C372 C373 1.310 . S
C372 C375 1.461 . S
C372 H392 0.932 . S
C373 C371 1.408 . S
C373 C372 1.310 . S
C373 H393 0.930 . S
C374 C375 1.474 . S
C374 C376 1.285 . S
C374 H394 0.929 . S
C375 C372 1.461 . S
C375 C374 1.474 . S
C376 C371 1.342 . S
C376 C374 1.285 . S
C376 H395 0.930 . S
C377 C380 1.424 . S
C377 C382 1.245 . S
C377 C383 1.428 . S
C378 C381 1.260 . S
C378 C382 1.477 . S
C378 H396 0.932 . S
C379 C380 1.384 . S
C379 C381 1.479 . S
C379 H397 0.929 . S
C380 C377 1.424 . S
C380 C379 1.384 . S
C380 H398 0.928 . S
C381 C378 1.260 . S
C381 C379 1.479 . S
C382 C377 1.245 . S
C382 C378 1.477 . S
C382 H399 0.932 . S
C383 U366 2.882 . S
C383 C377 1.428 . S
C383 O386 1.301 . S
C383 O387 1.282 . S
O384 U366 2.441 . S
O384 C370 1.249 . S
O385 U366 2.420 . S
O385 C370 1.202 . S
O386 U366 2.455 . S
O386 C383 1.301 . S
O387 U366 2.449 . S
O387 C383 1.282 . S
H388 C361 0.931 . S
H389 C363 0.929 . S
H390 C364 0.930 . S
H391 C365 0.931 . S
H392 C372 0.932 . S
H393 C373 0.930 . S
H394 C374 0.929 . S
H395 C376 0.930 . S
H396 C378 0.932 . S
H397 C379 0.929 . S
H398 C380 0.928 . S
H399 C382 0.932 . S
C400 C401 1.264 . S
C400 C405 1.479 . S
C400 C410 1.465 . S
C401 C400 1.264 . S
C401 C403 1.339 . S
C401 H428 0.931 . S
C402 C403 1.395 . S
C402 C404 1.320 . S
C403 C401 1.339 . S
C403 C402 1.395 . S
C403 H429 0.929 . S
C404 C402 1.320 . S
C404 C405 1.405 . S
C404 H430 0.930 . S
C405 C400 1.479 . S
C405 C404 1.405 . S
C405 H431 0.931 . S
U406 O407 2.454 . S
U406 O408 2.458 . S
U406 C409 2.984 . S
U406 C410 2.847 . S
U406 C423 2.882 . S
U406 O424 2.441 . S
U406 O425 2.420 . S
U406 O426 2.455 . S
U406 O427 2.449 . S
O407 U406 2.454 . S
O407 C409 1.353 . S
O408 U406 2.458 . S
O408 C409 1.286 . S
C409 U406 2.984 . S
C409 O407 1.353 . S
C409 O408 1.286 . S
C409 C411 1.363 . S
C410 C400 1.465 . S
C410 U406 2.847 . S
C410 O424 1.249 . S
C410 O425 1.202 . S
C411 C409 1.363 . S
C411 C413 1.408 . S
C411 C416 1.342 . S
C412 C413 1.310 . S
C412 C415 1.461 . S
C412 H432 0.932 . S
C413 C411 1.408 . S
C413 C412 1.310 . S
C413 H433 0.930 . S
C414 C415 1.474 . S
C414 C416 1.285 . S
C414 H434 0.929 . S
C415 C412 1.461 . S
C415 C414 1.474 . S
C416 C411 1.342 . S
C416 C414 1.285 . S
C416 H435 0.930 . S
C417 C420 1.424 . S
C417 C422 1.245 . S
C417 C423 1.428 . S
C418 C421 1.260 . S
C418 C422 1.477 . S
C418 H436 0.932 . S
C419 C420 1.384 . S
C419 C421 1.479 . S
C419 H437 0.929 . S
C420 C417 1.424 . S
C420 C419 1.384 . S
C420 H438 0.928 . S
C421 C418 1.260 . S
C421 C419 1.479 . S
C422 C417 1.245 . S
C422 C418 1.477 . S
C422 H439 0.932 . S
C423 U406 2.882 . S
C423 C417 1.428 . S
C423 O426 1.301 . S
C423 O427 1.282 . S
O424 U406 2.441 . S
O424 C410 1.249 . S
O425 U406 2.420 . S
O425 C410 1.202 . S
O426 U406 2.455 . S
O426 C423 1.301 . S
O427 U406 2.449 . S
O427 C423 1.282 . S
H428 C401 0.931 . S
H429 C403 0.929 . S
H430 C404 0.930 . S
H431 C405 0.931 . S
H432 C412 0.932 . S
H433 C413 0.930 . S
H434 C414 0.929 . S
H435 C416 0.930 . S
H436 C418 0.932 . S
H437 C419 0.929 . S
H438 C420 0.928 . S
H439 C422 0.932 . S
C440 C441 1.264 . S
C440 C445 1.479 . S
C440 C450 1.465 . S
C441 C440 1.264 . S
C441 C443 1.339 . S
C441 H468 0.931 . S
C442 C443 1.395 . S
C442 C444 1.320 . S
C443 C441 1.339 . S
C443 C442 1.395 . S
C443 H469 0.929 . S
C444 C442 1.320 . S
C444 C445 1.405 . S
C444 H470 0.930 . S
C445 C440 1.479 . S
C445 C444 1.405 . S
C445 H471 0.931 . S
U446 O447 2.454 . S
U446 O448 2.458 . S
U446 C449 2.984 . S
U446 C450 2.847 . S
U446 C463 2.882 . S
U446 O464 2.441 . S
U446 O465 2.420 . S
U446 O466 2.455 . S
U446 O467 2.449 . S
O447 U446 2.454 . S
O447 C449 1.353 . S
O448 U446 2.458 . S
O448 C449 1.286 . S
C449 U446 2.984 . S
C449 O447 1.353 . S
C449 O448 1.286 . S
C449 C451 1.363 . S
C450 C440 1.465 . S
C450 U446 2.847 . S
C450 O464 1.249 . S
C450 O465 1.202 . S
C451 C449 1.363 . S
C451 C453 1.408 . S
C451 C456 1.342 . S
C452 C453 1.310 . S
C452 C455 1.461 . S
C452 H472 0.932 . S
C453 C451 1.408 . S
C453 C452 1.310 . S
C453 H473 0.930 . S
C454 C455 1.474 . S
C454 C456 1.285 . S
C454 H474 0.929 . S
C455 C452 1.461 . S
C455 C454 1.474 . S
C456 C451 1.342 . S
C456 C454 1.285 . S
C456 H475 0.930 . S
C457 C460 1.424 . S
C457 C462 1.245 . S
C457 C463 1.428 . S
C458 C461 1.260 . S
C458 C462 1.477 . S
C458 H476 0.932 . S
C459 C460 1.384 . S
C459 C461 1.479 . S
C459 H477 0.929 . S
C460 C457 1.424 . S
C460 C459 1.384 . S
C460 H478 0.928 . S
C461 C458 1.260 . S
C461 C459 1.479 . S
C462 C457 1.245 . S
C462 C458 1.477 . S
C462 H479 0.932 . S
C463 U446 2.882 . S
C463 C457 1.428 . S
C463 O466 1.301 . S
C463 O467 1.282 . S
O464 U446 2.441 . S
O464 C450 1.249 . S
O465 U446 2.420 . S
O465 C450 1.202 . S
O466 U446 2.455 . S
O466 C463 1.301 . S
O467 U446 2.449 . S
O467 C463 1.282 . S
H468 C441 0.931 . S
H469 C443 0.929 . S
H470 C444 0.930 . S
H471 C445 0.931 . S
H472 C452 0.932 . S
H473 C453 0.930 . S
H474 C454 0.929 . S
H475 C456 0.930 . S
H476 C458 0.932 . S
H477 C459 0.929 . S
H478 C460 0.928 . S
H479 C462 0.932 . S
C480 C481 1.264 . S
C480 C485 1.479 . S
C480 C490 1.465 . S
C481 C480 1.264 . S
C481 C483 1.339 . S
C481 H508 0.931 . S
C482 C483 1.395 . S
C482 C484 1.320 . S
C483 C481 1.339 . S
C483 C482 1.395 . S
C483 H509 0.929 . S
C484 C482 1.320 . S
C484 C485 1.405 . S
C484 H510 0.930 . S
C485 C480 1.479 . S
C485 C484 1.405 . S
C485 H511 0.931 . S
U486 O487 2.454 . S
U486 O488 2.458 . S
U486 C489 2.984 . S
U486 C490 2.847 . S
U486 C503 2.882 . S
U486 O504 2.441 . S
U486 O505 2.420 . S
U486 O506 2.455 . S
U486 O507 2.449 . S
O487 U486 2.454 . S
O487 C489 1.353 . S
O488 U486 2.458 . S
O488 C489 1.286 . S
C489 U486 2.984 . S
C489 O487 1.353 . S
C489 O488 1.286 . S
C489 C491 1.363 . S
C490 C480 1.465 . S
C490 U486 2.847 . S
C490 O504 1.249 . S
C490 O505 1.202 . S
C491 C489 1.363 . S
C491 C493 1.408 . S
C491 C496 1.342 . S
C492 C493 1.310 . S
C492 C495 1.461 . S
C492 H512 0.932 . S
C493 C491 1.408 . S
C493 C492 1.310 . S
C493 H513 0.930 . S
C494 C495 1.474 . S
C494 C496 1.285 . S
C494 H514 0.929 . S
C495 C492 1.461 . S
C495 C494 1.474 . S
C496 C491 1.342 . S
C496 C494 1.285 . S
C496 H515 0.930 . S
C497 C500 1.424 . S
C497 C502 1.245 . S
C497 C503 1.428 . S
C498 C501 1.260 . S
C498 C502 1.477 . S
C498 H516 0.932 . S
C499 C500 1.384 . S
C499 C501 1.479 . S
C499 H517 0.929 . S
C500 C497 1.424 . S
C500 C499 1.384 . S
C500 H518 0.928 . S
C501 C498 1.260 . S
C501 C499 1.479 . S
C502 C497 1.245 . S
C502 C498 1.477 . S
C502 H519 0.932 . S
C503 U486 2.882 . S
C503 C497 1.428 . S
C503 O506 1.301 . S
C503 O507 1.282 . S
O504 U486 2.441 . S
O504 C490 1.249 . S
O505 U486 2.420 . S
O505 C490 1.202 . S
O506 U486 2.455 . S
O506 C503 1.301 . S
O507 U486 2.449 . S
O507 C503 1.282 . S
H508 C481 0.931 . S
H509 C483 0.929 . S
H510 C484 0.930 . S
H511 C485 0.931 . S
H512 C492 0.932 . S
H513 C493 0.930 . S
H514 C494 0.929 . S
H515 C496 0.930 . S
H516 C498 0.932 . S
H517 C499 0.929 . S
H518 C500 0.928 . S
H519 C502 0.932 . S
C520 C521 1.264 . S
C520 C525 1.479 . S
C520 C530 1.465 . S
C521 C520 1.264 . S
C521 C523 1.339 . S
C521 H548 0.931 . S
C522 C523 1.395 . S
C522 C524 1.320 . S
C523 C521 1.339 . S
C523 C522 1.395 . S
C523 H549 0.929 . S
C524 C522 1.320 . S
C524 C525 1.405 . S
C524 H550 0.930 . S
C525 C520 1.479 . S
C525 C524 1.405 . S
C525 H551 0.931 . S
U526 O527 2.454 . S
U526 O528 2.458 . S
U526 C529 2.984 . S
U526 C530 2.847 . S
U526 C543 2.882 . S
U526 O544 2.441 . S
U526 O545 2.420 . S
U526 O546 2.455 . S
U526 O547 2.449 . S
O527 U526 2.454 . S
O527 C529 1.353 . S
O528 U526 2.458 . S
O528 C529 1.286 . S
C529 U526 2.984 . S
C529 O527 1.353 . S
C529 O528 1.286 . S
C529 C531 1.363 . S
C530 C520 1.465 . S
C530 U526 2.847 . S
C530 O544 1.249 . S
C530 O545 1.202 . S
C531 C529 1.363 . S
C531 C533 1.408 . S
C531 C536 1.342 . S
C532 C533 1.310 . S
C532 C535 1.461 . S
C532 H552 0.932 . S
C533 C531 1.408 . S
C533 C532 1.310 . S
C533 H553 0.930 . S
C534 C535 1.474 . S
C534 C536 1.285 . S
C534 H554 0.929 . S
C535 C532 1.461 . S
C535 C534 1.474 . S
C536 C531 1.342 . S
C536 C534 1.285 . S
C536 H555 0.930 . S
C537 C540 1.424 . S
C537 C542 1.245 . S
C537 C543 1.428 . S
C538 C541 1.260 . S
C538 C542 1.477 . S
C538 H556 0.932 . S
C539 C540 1.384 . S
C539 C541 1.479 . S
C539 H557 0.929 . S
C540 C537 1.424 . S
C540 C539 1.384 . S
C540 H558 0.928 . S
C541 C538 1.260 . S
C541 C539 1.479 . S
C542 C537 1.245 . S
C542 C538 1.477 . S
C542 H559 0.932 . S
C543 U526 2.882 . S
C543 C537 1.428 . S
C543 O546 1.301 . S
C543 O547 1.282 . S
O544 U526 2.441 . S
O544 C530 1.249 . S
O545 U526 2.420 . S
O545 C530 1.202 . S
O546 U526 2.455 . S
O546 C543 1.301 . S
O547 U526 2.449 . S
O547 C543 1.282 . S
H548 C521 0.931 . S
H549 C523 0.929 . S
H550 C524 0.930 . S
H551 C525 0.931 . S
H552 C532 0.932 . S
H553 C533 0.930 . S
H554 C534 0.929 . S
H555 C536 0.930 . S
H556 C538 0.932 . S
H557 C539 0.929 . S
H558 C540 0.928 . S
H559 C542 0.932 . S
C560 C561 1.264 . S
C560 C565 1.479 . S
C560 C570 1.465 . S
C561 C560 1.264 . S
C561 C563 1.339 . S
C561 H588 0.931 . S
C562 C563 1.395 . S
C562 C564 1.320 . S
C563 C561 1.339 . S
C563 C562 1.395 . S
C563 H589 0.929 . S
C564 C562 1.320 . S
C564 C565 1.405 . S
C564 H590 0.930 . S
C565 C560 1.479 . S
C565 C564 1.405 . S
C565 H591 0.931 . S
U566 O567 2.454 . S
U566 O568 2.458 . S
U566 C569 2.984 . S
U566 C570 2.847 . S
U566 C583 2.882 . S
U566 O584 2.441 . S
U566 O585 2.420 . S
U566 O586 2.455 . S
U566 O587 2.449 . S
O567 U566 2.454 . S
O567 C569 1.353 . S
O568 U566 2.458 . S
O568 C569 1.286 . S
C569 U566 2.984 . S
C569 O567 1.353 . S
C569 O568 1.286 . S
C569 C571 1.363 . S
C570 C560 1.465 . S
C570 U566 2.847 . S
C570 O584 1.249 . S
C570 O585 1.202 . S
C571 C569 1.363 . S
C571 C573 1.408 . S
C571 C576 1.342 . S
C572 C573 1.310 . S
C572 C575 1.461 . S
C572 H592 0.932 . S
C573 C571 1.408 . S
C573 C572 1.310 . S
C573 H593 0.930 . S
C574 C575 1.474 . S
C574 C576 1.285 . S
C574 H594 0.929 . S
C575 C572 1.461 . S
C575 C574 1.474 . S
C576 C571 1.342 . S
C576 C574 1.285 . S
C576 H595 0.930 . S
C577 C580 1.424 . S
C577 C582 1.245 . S
C577 C583 1.428 . S
C578 C581 1.260 . S
C578 C582 1.477 . S
C578 H596 0.932 . S
C579 C580 1.384 . S
C579 C581 1.479 . S
C579 H597 0.929 . S
C580 C577 1.424 . S
C580 C579 1.384 . S
C580 H598 0.928 . S
C581 C578 1.260 . S
C581 C579 1.479 . S
C582 C577 1.245 . S
C582 C578 1.477 . S
C582 H599 0.932 . S
C583 U566 2.882 . S
C583 C577 1.428 . S
C583 O586 1.301 . S
C583 O587 1.282 . S
O584 U566 2.441 . S
O584 C570 1.249 . S
O585 U566 2.420 . S
O585 C570 1.202 . S
O586 U566 2.455 . S
O586 C583 1.301 . S
O587 U566 2.449 . S
O587 C583 1.282 . S
H588 C561 0.931 . S
H589 C563 0.929 . S
H590 C564 0.930 . S
H591 C565 0.931 . S
H592 C572 0.932 . S
H593 C573 0.930 . S
H594 C574 0.929 . S
H595 C576 0.930 . S
H596 C578 0.932 . S
H597 C579 0.929 . S
H598 C580 0.928 . S
H599 C582 0.932 . S
C600 C601 1.264 . S
C600 C605 1.479 . S
C600 C610 1.465 . S
C601 C600 1.264 . S
C601 C603 1.339 . S
C601 H628 0.931 . S
C602 C603 1.395 . S
C602 C604 1.320 . S
C603 C601 1.339 . S
C603 C602 1.395 . S
C603 H629 0.929 . S
C604 C602 1.320 . S
C604 C605 1.405 . S
C604 H630 0.930 . S
C605 C600 1.479 . S
C605 C604 1.405 . S
C605 H631 0.931 . S
U606 O607 2.454 . S
U606 O608 2.458 . S
U606 C609 2.984 . S
U606 C610 2.847 . S
U606 C623 2.882 . S
U606 O624 2.441 . S
U606 O625 2.420 . S
U606 O626 2.455 . S
U606 O627 2.449 . S
O607 U606 2.454 . S
O607 C609 1.353 . S
O608 U606 2.458 . S
O608 C609 1.286 . S
C609 U606 2.984 . S
C609 O607 1.353 . S
C609 O608 1.286 . S
C609 C611 1.363 . S
C610 C600 1.465 . S
C610 U606 2.847 . S
C610 O624 1.249 . S
C610 O625 1.202 . S
C611 C609 1.363 . S
C611 C613 1.408 . S
C611 C616 1.342 . S
C612 C613 1.310 . S
C612 C615 1.461 . S
C612 H632 0.932 . S
C613 C611 1.408 . S
C613 C612 1.310 . S
C613 H633 0.930 . S
C614 C615 1.474 . S
C614 C616 1.285 . S
C614 H634 0.929 . S
C615 C612 1.461 . S
C615 C614 1.474 . S
C616 C611 1.342 . S
C616 C614 1.285 . S
C616 H635 0.930 . S
C617 C620 1.424 . S
C617 C622 1.245 . S
C617 C623 1.428 . S
C618 C621 1.260 . S
C618 C622 1.477 . S
C618 H636 0.932 . S
C619 C620 1.384 . S
C619 C621 1.479 . S
C619 H637 0.929 . S
C620 C617 1.424 . S
C620 C619 1.384 . S
C620 H638 0.928 . S
C621 C618 1.260 . S
C621 C619 1.479 . S
C622 C617 1.245 . S
C622 C618 1.477 . S
C622 H639 0.932 . S
C623 U606 2.882 . S
C623 C617 1.428 . S
C623 O626 1.301 . S
C623 O627 1.282 . S
O624 U606 2.441 . S
O624 C610 1.249 . S
O625 U606 2.420 . S
O625 C610 1.202 . S
O626 U606 2.455 . S
O626 C623 1.301 . S
O627 U606 2.449 . S
O627 C623 1.282 . S
H628 C601 0.931 . S
H629 C603 0.929 . S
H630 C604 0.930 . S
H631 C605 0.931 . S
H632 C612 0.932 . S
H633 C613 0.930 . S
H634 C614 0.929 . S
H635 C616 0.930 . S
H636 C618 0.932 . S
H637 C619 0.929 . S
H638 C620 0.928 . S
H639 C622 0.932 . S
C640 C641 1.264 . S
C640 C645 1.479 . S
C640 C650 1.465 . S
C641 C640 1.264 . S
C641 C643 1.339 . S
C641 H668 0.931 . S
C642 C643 1.395 . S
C642 C644 1.320 . S
C643 C641 1.339 . S
C643 C642 1.395 . S
C643 H669 0.929 . S
C644 C642 1.320 . S
C644 C645 1.405 . S
C644 H670 0.930 . S
C645 C640 1.479 . S
C645 C644 1.405 . S
C645 H671 0.931 . S
U646 O647 2.454 . S
U646 O648 2.458 . S
U646 C649 2.984 . S
U646 C650 2.847 . S
U646 C663 2.882 . S
U646 O664 2.441 . S
U646 O665 2.420 . S
U646 O666 2.455 . S
U646 O667 2.449 . S
O647 U646 2.454 . S
O647 C649 1.353 . S
O648 U646 2.458 . S
O648 C649 1.286 . S
C649 U646 2.984 . S
C649 O647 1.353 . S
C649 O648 1.286 . S
C649 C651 1.363 . S
C650 C640 1.465 . S
C650 U646 2.847 . S
C650 O664 1.249 . S
C650 O665 1.202 . S
C651 C649 1.363 . S
C651 C653 1.408 . S
C651 C656 1.342 . S
C652 C653 1.310 . S
C652 C655 1.461 . S
C652 H672 0.932 . S
C653 C651 1.408 . S
C653 C652 1.310 . S
C653 H673 0.930 . S
C654 C655 1.474 . S
C654 C656 1.285 . S
C654 H674 0.929 . S
C655 C652 1.461 . S
C655 C654 1.474 . S
C656 C651 1.342 . S
C656 C654 1.285 . S
C656 H675 0.930 . S
C657 C660 1.424 . S
C657 C662 1.245 . S
C657 C663 1.428 . S
C658 C661 1.260 . S
C658 C662 1.477 . S
C658 H676 0.932 . S
C659 C660 1.384 . S
C659 C661 1.479 . S
C659 H677 0.929 . S
C660 C657 1.424 . S
C660 C659 1.384 . S
C660 H678 0.928 . S
C661 C658 1.260 . S
C661 C659 1.479 . S
C662 C657 1.245 . S
C662 C658 1.477 . S
C662 H679 0.932 . S
C663 U646 2.882 . S
C663 C657 1.428 . S
C663 O666 1.301 . S
C663 O667 1.282 . S
O664 U646 2.441 . S
O664 C650 1.249 . S
O665 U646 2.420 . S
O665 C650 1.202 . S
O666 U646 2.455 . S
O666 C663 1.301 . S
O667 U646 2.449 . S
O667 C663 1.282 . S
H668 C641 0.931 . S
H669 C643 0.929 . S
H670 C644 0.930 . S
H671 C645 0.931 . S
H672 C652 0.932 . S
H673 C653 0.930 . S
H674 C654 0.929 . S
H675 C656 0.930 . S
H676 C658 0.932 . S
H677 C659 0.929 . S
H678 C660 0.928 . S
H679 C662 0.932 . S
C680 C681 1.264 . S
C680 C685 1.479 . S
C680 C690 1.465 . S
C681 C680 1.264 . S
C681 C683 1.339 . S
C681 H708 0.931 . S
C682 C683 1.395 . S
C682 C684 1.320 . S
C683 C681 1.339 . S
C683 C682 1.395 . S
C683 H709 0.929 . S
C684 C682 1.320 . S
C684 C685 1.405 . S
C684 H710 0.930 . S
C685 C680 1.479 . S
C685 C684 1.405 . S
C685 H711 0.931 . S
U686 O687 2.454 . S
U686 O688 2.458 . S
U686 C689 2.984 . S
U686 C690 2.847 . S
U686 C703 2.882 . S
U686 O704 2.441 . S
U686 O705 2.420 . S
U686 O706 2.455 . S
U686 O707 2.449 . S
O687 U686 2.454 . S
O687 C689 1.353 . S
O688 U686 2.458 . S
O688 C689 1.286 . S
C689 U686 2.984 . S
C689 O687 1.353 . S
C689 O688 1.286 . S
C689 C691 1.363 . S
C690 C680 1.465 . S
C690 U686 2.847 . S
C690 O704 1.249 . S
C690 O705 1.202 . S
C691 C689 1.363 . S
C691 C693 1.408 . S
C691 C696 1.342 . S
C692 C693 1.310 . S
C692 C695 1.461 . S
C692 H712 0.932 . S
C693 C691 1.408 . S
C693 C692 1.310 . S
C693 H713 0.930 . S
C694 C695 1.474 . S
C694 C696 1.285 . S
C694 H714 0.929 . S
C695 C692 1.461 . S
C695 C694 1.474 . S
C696 C691 1.342 . S
C696 C694 1.285 . S
C696 H715 0.930 . S
C697 C700 1.424 . S
C697 C702 1.245 . S
C697 C703 1.428 . S
C698 C701 1.260 . S
C698 C702 1.477 . S
C698 H716 0.932 . S
C699 C700 1.384 . S
C699 C701 1.479 . S
C699 H717 0.929 . S
C700 C697 1.424 . S
C700 C699 1.384 . S
C700 H718 0.928 . S
C701 C698 1.260 . S
C701 C699 1.479 . S
C702 C697 1.245 . S
C702 C698 1.477 . S
C702 H719 0.932 . S
C703 U686 2.882 . S
C703 C697 1.428 . S
C703 O706 1.301 . S
C703 O707 1.282 . S
O704 U686 2.441 . S
O704 C690 1.249 . S
O705 U686 2.420 . S
O705 C690 1.202 . S
O706 U686 2.455 . S
O706 C703 1.301 . S
O707 U686 2.449 . S
O707 C703 1.282 . S
H708 C681 0.931 . S
H709 C683 0.929 . S
H710 C684 0.930 . S
H711 C685 0.931 . S
H712 C692 0.932 . S
H713 C693 0.930 . S
H714 C694 0.929 . S
H715 C696 0.930 . S
H716 C698 0.932 . S
H717 C699 0.929 . S
H718 C700 0.928 . S
H719 C702 0.932 . S
H720 C728 0.929 . S
H721 C730 0.930 . S
H722 C732 0.930 . S
H723 C735 0.929 . S
H724 C738 0.930 . S
H725 C740 0.960 . S
H726 C740 0.960 . S
H727 C740 0.960 1_554 S
C728 H720 0.929 . S
C728 C729 1.377 1_556 S
C728 C730 1.384 . S
C729 C728 1.377 1_554 S
C729 C735 1.390 . S
C730 H721 0.930 . S
C730 C728 1.384 . S
C730 C731 1.372 1_556 S
C731 C730 1.372 1_554 S
C731 C732 1.400 . S
C731 C736 1.490 . S
C732 H722 0.930 . S
C732 C731 1.400 . S
C732 C735 1.386 . S
H733 C749 0.930 . S
H734 C750 0.931 . S
C735 H723 0.929 . S
C735 C729 1.390 . S
C735 C732 1.386 . S
C736 C731 1.490 . S
C736 C738 1.395 . S
C736 C739 1.403 1_554 S
H737 C743 0.930 . S
C738 H724 0.930 . S
C738 C736 1.395 . S
C738 C741 1.403 1_545 S
C739 C736 1.403 1_556 S
C739 C740 1.524 . S
C739 C743 1.400 1_545 S
C740 H725 0.960 . S
C740 H726 0.960 . S
C740 H727 0.960 1_556 S
C740 C739 1.524 . S
C741 C738 1.403 1_565 S
C741 C742 1.400 . S
C741 C745 1.495 . S
C742 C741 1.400 . S
C742 C743 1.380 1_554 S
C742 C744 1.476 1_554 S
C743 H737 0.930 . S
C743 C739 1.400 1_565 S
C743 C742 1.380 1_556 S
C744 C742 1.476 1_556 S
C744 C746 1.381 . S
C744 C750 1.383 1_556 S
C745 C741 1.495 . S
C745 H751 0.959 . S
C745 H752 0.961 . S
C745 H753 0.960 1_554 S
C746 C744 1.381 . S
C746 C747 1.394 . S
C746 H754 0.930 . S
C747 C746 1.394 . S
C747 C748 1.383 . S
C747 H755 0.929 . S
C748 C747 1.383 . S
C748 C749 1.377 1_556 S
C749 H733 0.930 . S
C749 C748 1.377 1_554 S
C749 C750 1.379 . S
C750 H734 0.931 . S
C750 C744 1.383 1_554 S
C750 C749 1.379 . S
H751 C745 0.959 . S
H752 C745 0.961 . S
H753 C745 0.960 1_556 S
H754 C746 0.930 . S
H755 C747 0.929 . S
H756 C764 0.929 . S
H757 C766 0.930 1_556 S
H758 C768 0.930 . S
H759 C771 0.929 . S
H760 C774 0.930 . S
H761 C776 0.960 . S
H762 C776 0.960 . S
H763 C776 0.960 . S
C764 H756 0.929 . S
C764 C765 1.377 . S
C764 C766 1.384 . S
C765 C764 1.377 . S
C765 C771 1.390 . S
C766 H757 0.930 1_554 S
C766 C764 1.384 . S
C766 C767 1.372 . S
C767 C766 1.372 . S
C767 C768 1.400 . S
C767 C772 1.490 . S
C768 H758 0.930 . S
C768 C767 1.400 . S
C768 C771 1.386 . S
H769 C785 0.930 . S
H770 C786 0.931 . S
C771 H759 0.929 . S
C771 C765 1.390 . S
C771 C768 1.386 . S
C772 C767 1.490 . S
C772 C774 1.395 . S
C772 C775 1.403 . S
H773 C779 0.930 . S
C774 H760 0.930 . S
C774 C772 1.395 . S
C774 C777 1.403 1_655 S
C775 C772 1.403 . S
C775 C776 1.524 . S
C775 C779 1.400 1_655 S
C776 H761 0.960 . S
C776 H762 0.960 . S
C776 H763 0.960 . S
C776 C775 1.524 . S
C777 C774 1.403 1_455 S
C777 C778 1.392 . S
C777 C781 1.495 . S
C778 C777 1.392 . S
C778 C779 1.385 . S
C778 C780 1.478 . S
C779 H773 0.930 . S
C779 C775 1.400 1_455 S
C779 C778 1.385 . S
C780 C778 1.478 . S
C780 C782 1.381 1_554 S
C780 C786 1.383 . S
C781 C777 1.495 . S
C781 H787 0.959 . S
C781 H788 0.961 . S
C781 H789 0.943 1_554 S
C782 C780 1.381 1_556 S
C782 C783 1.394 . S
C782 H790 0.930 . S
C783 C782 1.394 . S
C783 C784 1.383 1_556 S
C783 H791 0.929 . S
C784 C783 1.383 1_554 S
C784 C785 1.377 . S
C785 H769 0.930 . S
C785 C784 1.377 . S
C785 C786 1.379 . S
C786 H770 0.931 . S
C786 C780 1.383 . S
C786 C785 1.379 . S
H787 C781 0.959 . S
H788 C781 0.961 . S
H789 C781 0.943 1_556 S
H790 C782 0.930 . S
H791 C783 0.929 . S
H792 C800 0.929 . S
H793 C802 0.930 . S
H794 C804 0.930 . S
H795 C807 0.929 . S
H796 C810 0.930 1_554 S
H797 C812 0.960 . S
H798 C812 0.960 . S
H799 C812 0.960 . S
C800 H792 0.929 . S
C800 C801 1.377 1_554 S
C800 C802 1.384 . S
C801 C800 1.377 1_556 S
C801 C807 1.390 . S
C802 H793 0.930 . S
C802 C800 1.384 . S
C802 C803 1.372 1_554 S
C803 C802 1.372 1_556 S
C803 C804 1.400 . S
C803 C808 1.490 . S
C804 H794 0.930 . S
C804 C803 1.400 . S
C804 C807 1.386 . S
H805 C821 0.930 . S
H806 C822 0.931 . S
C807 H795 0.929 . S
C807 C801 1.390 . S
C807 C804 1.386 . S
C808 C803 1.490 . S
C808 C810 1.395 . S
C808 C811 1.403 . S
H809 C815 0.930 . S
C810 H796 0.930 1_556 S
C810 C808 1.395 . S
C810 C813 1.403 . S
C811 C808 1.403 . S
C811 C812 1.524 . S
C811 C815 1.400 . S
C812 H797 0.960 . S
C812 H798 0.960 . S
C812 H799 0.960 . S
C812 C811 1.524 . S
C813 C810 1.403 . S
C813 C814 1.392 . S
C813 C817 1.495 1_556 S
C814 C813 1.392 . S
C814 C815 1.385 . S
C814 C816 1.478 . S
C815 H809 0.930 . S
C815 C811 1.400 . S
C815 C814 1.385 . S
C816 C814 1.478 . S
C816 C818 1.381 . S
C816 C822 1.383 . S
C817 C813 1.495 1_554 S
C817 H823 0.959 . S
C817 H824 0.961 1_554 S
C817 H825 0.960 . S
C818 C816 1.381 . S
C818 C819 1.394 . S
C818 H826 0.930 1_556 S
C819 C818 1.394 . S
C819 C820 1.383 . S
C819 H827 0.929 . S
C820 C819 1.383 . S
C820 C821 1.377 . S
C821 H805 0.930 . S
C821 C820 1.377 . S
C821 C822 1.379 . S
C822 H806 0.931 . S
C822 C816 1.383 . S
C822 C821 1.379 . S
H823 C817 0.959 . S
H824 C817 0.961 1_556 S
H825 C817 0.960 . S
H826 C818 0.930 1_554 S
H827 C819 0.929 . S
H828 C836 0.929 . S
H829 C838 0.930 . S
H830 C840 0.930 . S
H831 C843 0.929 . S
H832 C846 0.930 . S
H833 C848 0.960 . S
H834 C848 0.960 . S
H835 C848 0.960 . S
C836 H828 0.929 . S
C836 C837 1.377 . S
C836 C838 1.384 . S
C837 C836 1.377 . S
C837 C843 1.390 . S
C838 H829 0.930 . S
C838 C836 1.384 . S
C838 C839 1.372 . S
C839 C838 1.372 . S
C839 C840 1.400 . S
C839 C844 1.490 . S
C840 H830 0.930 . S
C840 C839 1.400 . S
C840 C843 1.386 . S
H841 C857 0.930 . S
H842 C858 0.931 . S
C843 H831 0.929 . S
C843 C837 1.390 . S
C843 C840 1.386 . S
C844 C839 1.490 . S
C844 C846 1.395 . S
C844 C847 1.403 1_554 S
H845 C851 0.930 . S
C846 H832 0.930 . S
C846 C844 1.395 . S
C846 C849 1.403 1_545 S
C847 C844 1.403 1_556 S
C847 C848 1.524 . S
C847 C851 1.400 1_545 S
C848 H833 0.960 . S
C848 H834 0.960 . S
C848 H835 0.960 . S
C848 C847 1.524 . S
C849 C846 1.403 1_565 S
C849 C850 1.392 1_554 S
C849 C853 1.495 . S
C850 C849 1.392 1_556 S
C850 C851 1.385 . S
C850 C852 1.478 . S
C851 H845 0.930 . S
C851 C847 1.400 1_565 S
C851 C850 1.385 . S
C852 C850 1.478 . S
C852 C854 1.381 . S
C852 C858 1.383 . S
C853 C849 1.495 . S
C853 H859 0.959 . S
C853 H860 0.961 . S
C853 H861 0.960 . S
C854 C852 1.381 . S
C854 C855 1.394 . S
C854 H862 0.930 . S
C855 C854 1.394 . S
C855 C856 1.383 . S
C855 H863 0.929 . S
C856 C855 1.383 . S
C856 C857 1.377 . S
C857 H841 0.930 . S
C857 C856 1.377 . S
C857 C858 1.379 . S
C858 H842 0.931 . S
C858 C852 1.383 . S
C858 C857 1.379 . S
H859 C853 0.959 . S
H860 C853 0.961 . S
H861 C853 0.960 . S
H862 C854 0.930 . S
H863 C855 0.929 . S
H864 C872 0.929 . S
H865 C874 0.930 . S
H866 C876 0.930 . S
H867 C879 0.929 . S
H868 C882 0.930 . S
H869 C884 0.960 . S
H870 C884 0.960 . S
H871 C884 0.960 . S
C872 H864 0.929 . S
C872 C873 1.377 . S
C872 C874 1.384 . S
C873 C872 1.377 . S
C873 C879 1.390 1_556 S
C874 H865 0.930 . S
C874 C872 1.384 . S
C874 C875 1.372 . S
C875 C874 1.372 . S
C875 C876 1.400 1_556 S
C875 C880 1.490 . S
C876 H866 0.930 . S
C876 C875 1.400 1_554 S
C876 C879 1.386 . S
H877 C893 0.930 . S
H878 C894 0.931 . S
C879 H867 0.929 . S
C879 C873 1.390 1_554 S
C879 C876 1.386 . S
C880 C875 1.490 . S
C880 C882 1.395 1_556 S
C880 C883 1.403 . S
H881 C887 0.930 . S
C882 H868 0.930 . S
C882 C880 1.395 1_554 S
C882 C885 1.403 1_455 S
C883 C880 1.403 . S
C883 C884 1.524 . S
C883 C887 1.400 1_455 S
C884 H869 0.960 . S
C884 H870 0.960 . S
C884 H871 0.960 . S
C884 C883 1.524 . S
C885 C882 1.403 1_655 S
C885 C886 1.392 1_554 S
C885 C889 1.495 . S
C886 C885 1.392 1_556 S
C886 C887 1.385 . S
C886 C888 1.478 . S
C887 H881 0.930 . S
C887 C883 1.400 1_655 S
C887 C886 1.385 . S
C888 C886 1.478 . S
C888 C890 1.386 . S
C888 C894 1.377 1_556 S
C889 C885 1.495 . S
C889 H895 0.959 . S
C889 H896 0.961 . S
C889 H897 0.960 . S
C890 C888 1.386 . S
C890 C891 1.394 . S
C890 H898 0.930 . S
C891 C890 1.394 . S
C891 C892 1.383 1_556 S
C891 H899 0.929 . S
C892 C891 1.383 1_554 S
C892 C893 1.377 . S
C893 H877 0.930 . S
C893 C892 1.377 . S
C893 C894 1.379 . S
C894 H878 0.931 . S
C894 C888 1.377 1_554 S
C894 C893 1.379 . S
H895 C889 0.959 . S
H896 C889 0.961 . S
H897 C889 0.960 . S
H898 C890 0.930 . S
H899 C891 0.929 . S
H900 C908 0.929 . S
H901 C910 0.930 . S
H902 C912 0.930 . S
H903 C915 0.929 . S
H904 C918 0.930 . S
H905 C920 0.960 . S
H906 C920 0.960 1_556 S
H907 C920 0.960 . S
C908 H900 0.929 . S
C908 C909 1.377 1_556 S
C908 C910 1.384 . S
C909 C908 1.377 1_554 S
C909 C915 1.390 . S
C910 H901 0.930 . S
C910 C908 1.384 . S
C910 C911 1.372 1_556 S
C911 C910 1.372 1_554 S
C911 C912 1.400 . S
C911 C916 1.490 . S
C912 H902 0.930 . S
C912 C911 1.400 . S
C912 C915 1.386 . S
H913 C929 0.930 . S
H914 C930 0.931 . S
C915 H903 0.929 . S
C915 C909 1.390 . S
C915 C912 1.386 . S
C916 C911 1.490 . S
C916 C918 1.395 . S
C916 C919 1.403 . S
H917 C923 0.930 . S
C918 H904 0.930 . S
C918 C916 1.395 . S
C918 C921 1.403 . S
C919 C916 1.403 . S
C919 C920 1.524 . S
C919 C923 1.400 . S
C920 H905 0.960 . S
C920 H906 0.960 1_554 S
C920 H907 0.960 . S
C920 C919 1.524 . S
C921 C918 1.403 . S
C921 C922 1.392 . S
C921 C925 1.495 . S
C922 C921 1.392 . S
C922 C923 1.385 . S
C922 C924 1.478 . S
C923 H917 0.930 . S
C923 C919 1.400 . S
C923 C922 1.385 . S
C924 C922 1.478 . S
C924 C926 1.381 1_554 S
C924 C930 1.383 . S
C925 C921 1.495 . S
C925 H931 0.959 . S
C925 H932 0.961 . S
C925 H933 0.960 1_554 S
C926 C924 1.381 1_556 S
C926 C927 1.394 . S
C926 H934 0.930 . S
C927 C926 1.394 . S
C927 C928 1.375 1_556 S
C927 H935 0.929 . S
C928 C927 1.375 1_554 S
C928 C929 1.386 . S
C929 H913 0.930 . S
C929 C928 1.386 . S
C929 C930 1.379 . S
C930 H914 0.931 . S
C930 C924 1.383 . S
C930 C929 1.379 . S
H931 C925 0.959 . S
H932 C925 0.961 . S
H933 C925 0.960 1_556 S
H934 C926 0.930 . S
H935 C927 0.929 . S
H936 C944 0.929 . S
H937 C946 0.930 . S
H938 C948 0.930 . S
H939 C951 0.929 . S
H940 C954 0.930 . S
H941 C956 0.960 . S
H942 C956 0.960 . S
H943 C956 0.960 . S
C944 H936 0.929 . S
C944 C945 1.377 . S
C944 C946 1.384 . S
C945 C944 1.377 . S
C945 C951 1.390 . S
C946 H937 0.930 . S
C946 C944 1.384 . S
C946 C947 1.372 . S
C947 C946 1.372 . S
C947 C948 1.400 . S
C947 C952 1.490 . S
C948 H938 0.930 . S
C948 C947 1.400 . S
C948 C951 1.386 . S
H949 C965 0.930 . S
H950 C966 0.931 . S
C951 H939 0.929 . S
C951 C945 1.390 . S
C951 C948 1.386 . S
C952 C947 1.490 . S
C952 C954 1.395 . S
C952 C955 1.403 . S
H953 C959 0.930 . S
C954 H940 0.930 . S
C954 C952 1.395 . S
C954 C957 1.403 . S
C955 C952 1.403 . S
C955 C956 1.524 . S
C955 C959 1.400 . S
C956 H941 0.960 . S
C956 H942 0.960 . S
C956 H943 0.960 . S
C956 C955 1.524 . S
C957 C954 1.403 . S
C957 C958 1.392 . S
C957 C961 1.495 . S
C958 C957 1.392 . S
C958 C959 1.385 . S
C958 C960 1.478 . S
C959 H953 0.930 . S
C959 C955 1.400 . S
C959 C958 1.385 . S
C960 C958 1.478 . S
C960 C962 1.381 . S
C960 C966 1.383 . S
C961 C957 1.495 . S
C961 H967 0.959 . S
C961 H968 0.961 . S
C961 H969 0.960 . S
C962 C960 1.381 . S
C962 C963 1.394 . S
C962 H970 0.930 . S
C963 C962 1.394 . S
C963 C964 1.383 . S
C963 H971 0.929 . S
C964 C963 1.383 . S
C964 C965 1.377 . S
C965 H949 0.930 . S
C965 C964 1.377 . S
C965 C966 1.379 . S
C966 H950 0.931 . S
C966 C960 1.383 . S
C966 C965 1.379 . S
H967 C961 0.959 . S
H968 C961 0.961 . S
H969 C961 0.960 . S
H970 C962 0.930 . S
H971 C963 0.929 . S
H972 C980 0.929 . S
H973 C982 0.930 . S
H974 C984 0.930 . S
H975 C987 0.929 . S
H976 C990 0.930 . S
H977 C992 0.960 . S
H978 C992 0.960 . S
H979 C992 0.960 . S
C980 H972 0.929 . S
C980 C981 1.377 . S
C980 C982 1.384 . S
C981 C980 1.377 . S
C981 C987 1.390 . S
C982 H973 0.930 . S
C982 C980 1.384 . S
C982 C983 1.372 . S
C983 C982 1.372 . S
C983 C984 1.400 . S
C983 C988 1.490 . S
C984 H974 0.930 . S
C984 C983 1.400 . S
C984 C987 1.386 . S
H985 C1001 0.930 . S
H986 C1002 0.931 . S
C987 H975 0.929 . S
C987 C981 1.390 . S
C987 C984 1.386 . S
C988 C983 1.490 . S
C988 C990 1.395 . S
C988 C991 1.403 . S
H989 C995 0.930 . S
C990 H976 0.930 . S
C990 C988 1.395 . S
C990 C993 1.403 . S
C991 C988 1.403 . S
C991 C992 1.524 . S
C991 C995 1.400 . S
C992 H977 0.960 . S
C992 H978 0.960 . S
C992 H979 0.960 . S
C992 C991 1.524 . S
C993 C990 1.403 . S
C993 C994 1.392 . S
C993 C997 1.495 . S
C994 C993 1.392 . S
C994 C995 1.385 . S
C994 C996 1.478 . S
C995 H989 0.930 . S
C995 C991 1.400 . S
C995 C994 1.385 . S
C996 C994 1.478 . S
C996 C998 1.381 . S
C996 C1002 1.383 . S
C997 C993 1.495 . S
C997 H1003 0.959 . S
C997 H1004 0.961 . S
C997 H1005 0.960 . S
C998 C996 1.381 . S
C998 C999 1.394 . S
C998 H1006 0.930 . S
C999 C998 1.394 . S
C999 C1000 1.383 . S
C999 H1007 0.929 . S
C1000 C999 1.383 . S
C1000 C1001 1.377 . S
C1001 H985 0.930 . S
C1001 C1000 1.377 . S
C1001 C1002 1.379 . S
C1002 H986 0.931 . S
C1002 C996 1.383 . S
C1002 C1001 1.379 . S
H1003 C997 0.959 . S
H1004 C997 0.961 . S
H1005 C997 0.960 . S
H1006 C998 0.930 . S
H1007 C999 0.929 . S
H1008 C1016 0.929 . S
H1009 C1018 0.930 . S
H1010 C1020 0.930 . S
H1011 C1023 0.929 . S
H1012 C1026 0.930 . S
H1013 C1028 0.960 . S
H1014 C1028 0.960 . S
H1015 C1028 0.960 . S
C1016 H1008 0.929 . S
C1016 C1017 1.377 . S
C1016 C1018 1.384 . S
C1017 C1016 1.377 . S
C1017 C1023 1.390 . S
C1018 H1009 0.930 . S
C1018 C1016 1.384 . S
C1018 C1019 1.372 . S
C1019 C1018 1.372 . S
C1019 C1020 1.400 . S
C1019 C1024 1.490 . S
C1020 H1010 0.930 . S
C1020 C1019 1.400 . S
C1020 C1023 1.386 . S
H1021 C1037 0.930 . S
H1022 C1038 0.931 . S
C1023 H1011 0.929 . S
C1023 C1017 1.390 . S
C1023 C1020 1.386 . S
C1024 C1019 1.490 . S
C1024 C1026 1.395 . S
C1024 C1027 1.403 . S
H1025 C1031 0.930 . S
C1026 H1012 0.930 . S
C1026 C1024 1.395 . S
C1026 C1029 1.403 . S
C1027 C1024 1.403 . S
C1027 C1028 1.524 . S
C1027 C1031 1.400 . S
C1028 H1013 0.960 . S
C1028 H1014 0.960 . S
C1028 H1015 0.960 . S
C1028 C1027 1.524 . S
C1029 C1026 1.403 . S
C1029 C1030 1.392 . S
C1029 C1033 1.495 . S
C1030 C1029 1.392 . S
C1030 C1031 1.385 . S
C1030 C1032 1.478 . S
C1031 H1025 0.930 . S
C1031 C1027 1.400 . S
C1031 C1030 1.385 . S
C1032 C1030 1.478 . S
C1032 C1034 1.381 . S
C1032 C1038 1.383 . S
C1033 C1029 1.495 . S
C1033 H1039 0.959 . S
C1033 H1040 0.961 . S
C1033 H1041 0.960 . S
C1034 C1032 1.381 . S
C1034 C1035 1.394 . S
C1034 H1042 0.930 . S
C1035 C1034 1.394 . S
C1035 C1036 1.383 . S
C1035 H1043 0.929 . S
C1036 C1035 1.383 . S
C1036 C1037 1.377 . S
C1037 H1021 0.930 . S
C1037 C1036 1.377 . S
C1037 C1038 1.379 . S
C1038 H1022 0.931 . S
C1038 C1032 1.383 . S
C1038 C1037 1.379 . S
H1039 C1033 0.959 . S
H1040 C1033 0.961 . S
H1041 C1033 0.960 . S
H1042 C1034 0.930 . S
H1043 C1035 0.929 . S
H1044 C1052 0.929 . S
H1045 C1054 0.930 . S
H1046 C1056 0.930 . S
H1047 C1059 0.929 . S
H1048 C1062 0.930 . S
H1049 C1064 0.960 . S
H1050 C1064 0.960 . S
H1051 C1064 0.960 . S
C1052 H1044 0.929 . S
C1052 C1053 1.377 . S
C1052 C1054 1.384 . S
C1053 C1052 1.377 . S
C1053 C1059 1.390 . S
C1054 H1045 0.930 . S
C1054 C1052 1.384 . S
C1054 C1055 1.372 . S
C1055 C1054 1.372 . S
C1055 C1056 1.400 . S
C1055 C1060 1.490 . S
C1056 H1046 0.930 . S
C1056 C1055 1.400 . S
C1056 C1059 1.386 . S
H1057 C1073 0.930 . S
H1058 C1074 0.931 . S
C1059 H1047 0.929 . S
C1059 C1053 1.390 . S
C1059 C1056 1.386 . S
C1060 C1055 1.490 . S
C1060 C1062 1.395 . S
C1060 C1063 1.403 . S
H1061 C1067 0.930 . S
C1062 H1048 0.930 . S
C1062 C1060 1.395 . S
C1062 C1065 1.403 . S
C1063 C1060 1.403 . S
C1063 C1064 1.524 . S
C1063 C1067 1.400 . S
C1064 H1049 0.960 . S
C1064 H1050 0.960 . S
C1064 H1051 0.960 . S
C1064 C1063 1.524 . S
C1065 C1062 1.403 . S
C1065 C1066 1.392 . S
C1065 C1069 1.495 . S
C1066 C1065 1.392 . S
C1066 C1067 1.385 . S
C1066 C1068 1.478 . S
C1067 H1061 0.930 . S
C1067 C1063 1.400 . S
C1067 C1066 1.385 . S
C1068 C1066 1.478 . S
C1068 C1070 1.381 . S
C1068 C1074 1.383 . S
C1069 C1065 1.495 . S
C1069 H1075 0.959 . S
C1069 H1076 0.961 . S
C1069 H1077 0.960 . S
C1070 C1068 1.381 . S
C1070 C1071 1.394 . S
C1070 H1078 0.930 . S
C1071 C1070 1.394 . S
C1071 C1072 1.383 . S
C1071 H1079 0.929 . S
C1072 C1071 1.383 . S
C1072 C1073 1.377 . S
C1073 H1057 0.930 . S
C1073 C1072 1.377 . S
C1073 C1074 1.379 . S
C1074 H1058 0.931 . S
C1074 C1068 1.383 . S
C1074 C1073 1.379 . S
H1075 C1069 0.959 . S
H1076 C1069 0.961 . S
H1077 C1069 0.960 . S
H1078 C1070 0.930 . S
H1079 C1071 0.929 . S
H1080 C1088 0.929 . S
H1081 C1090 0.930 . S
H1082 C1092 0.930 . S
H1083 C1095 0.929 . S
H1084 C1098 0.930 . S
H1085 C1100 0.960 . S
H1086 C1100 0.960 . S
H1087 C1100 0.960 . S
C1088 H1080 0.929 . S
C1088 C1089 1.377 . S
C1088 C1090 1.384 . S
C1089 C1088 1.377 . S
C1089 C1095 1.390 . S
C1090 H1081 0.930 . S
C1090 C1088 1.384 . S
C1090 C1091 1.372 . S
C1091 C1090 1.372 . S
C1091 C1092 1.400 . S
C1091 C1096 1.490 . S
C1092 H1082 0.930 . S
C1092 C1091 1.400 . S
C1092 C1095 1.386 . S
H1093 C1109 0.930 . S
H1094 C1110 0.931 . S
C1095 H1083 0.929 . S
C1095 C1089 1.390 . S
C1095 C1092 1.386 . S
C1096 C1091 1.490 . S
C1096 C1098 1.395 . S
C1096 C1099 1.403 . S
H1097 C1103 0.930 . S
C1098 H1084 0.930 . S
C1098 C1096 1.395 . S
C1098 C1101 1.403 . S
C1099 C1096 1.403 . S
C1099 C1100 1.524 . S
C1099 C1103 1.400 . S
C1100 H1085 0.960 . S
C1100 H1086 0.960 . S
C1100 H1087 0.960 . S
C1100 C1099 1.524 . S
C1101 C1098 1.403 . S
C1101 C1102 1.392 . S
C1101 C1105 1.495 . S
C1102 C1101 1.392 . S
C1102 C1103 1.385 . S
C1102 C1104 1.478 . S
C1103 H1097 0.930 . S
C1103 C1099 1.400 . S
C1103 C1102 1.385 . S
C1104 C1102 1.478 . S
C1104 C1106 1.381 . S
C1104 C1110 1.383 . S
C1105 C1101 1.495 . S
C1105 H1111 0.959 . S
C1105 H1112 0.961 . S
C1105 H1113 0.960 . S
C1106 C1104 1.381 . S
C1106 C1107 1.394 . S
C1106 H1114 0.930 . S
C1107 C1106 1.394 . S
C1107 C1108 1.383 . S
C1107 H1115 0.929 . S
C1108 C1107 1.383 . S
C1108 C1109 1.377 . S
C1109 H1093 0.930 . S
C1109 C1108 1.377 . S
C1109 C1110 1.379 . S
C1110 H1094 0.931 . S
C1110 C1104 1.383 . S
C1110 C1109 1.379 . S
H1111 C1105 0.959 . S
H1112 C1105 0.961 . S
H1113 C1105 0.960 . S
H1114 C1106 0.930 . S
H1115 C1107 0.929 . S
H1116 C1124 0.929 . S
H1117 C1126 0.930 . S
H1118 C1128 0.930 . S
H1119 C1131 0.929 . S
H1120 C1134 0.930 . S
H1121 C1136 0.960 . S
H1122 C1136 0.960 . S
H1123 C1136 0.960 . S
C1124 H1116 0.929 . S
C1124 C1125 1.377 . S
C1124 C1126 1.384 . S
C1125 C1124 1.377 . S
C1125 C1131 1.390 . S
C1126 H1117 0.930 . S
C1126 C1124 1.384 . S
C1126 C1127 1.372 . S
C1127 C1126 1.372 . S
C1127 C1128 1.400 . S
C1127 C1132 1.490 . S
C1128 H1118 0.930 . S
C1128 C1127 1.400 . S
C1128 C1131 1.386 . S
H1129 C1145 0.930 . S
H1130 C1146 0.931 . S
C1131 H1119 0.929 . S
C1131 C1125 1.390 . S
C1131 C1128 1.386 . S
C1132 C1127 1.490 . S
C1132 C1134 1.395 . S
C1132 C1135 1.403 . S
H1133 C1139 0.930 . S
C1134 H1120 0.930 . S
C1134 C1132 1.395 . S
C1134 C1137 1.403 . S
C1135 C1132 1.403 . S
C1135 C1136 1.524 . S
C1135 C1139 1.400 . S
C1136 H1121 0.960 . S
C1136 H1122 0.960 . S
C1136 H1123 0.960 . S
C1136 C1135 1.524 . S
C1137 C1134 1.403 . S
C1137 C1138 1.392 . S
C1137 C1141 1.495 . S
C1138 C1137 1.392 . S
C1138 C1139 1.385 . S
C1138 C1140 1.478 . S
C1139 H1133 0.930 . S
C1139 C1135 1.400 . S
C1139 C1138 1.385 . S
C1140 C1138 1.478 . S
C1140 C1142 1.381 . S
C1140 C1146 1.383 . S
C1141 C1137 1.495 . S
C1141 H1147 0.959 . S
C1141 H1148 0.961 . S
C1141 H1149 0.960 . S
C1142 C1140 1.381 . S
C1142 C1143 1.394 . S
C1142 H1150 0.930 . S
C1143 C1142 1.394 . S
C1143 C1144 1.383 . S
C1143 H1151 0.929 . S
C1144 C1143 1.383 . S
C1144 C1145 1.377 . S
C1145 H1129 0.930 . S
C1145 C1144 1.377 . S
C1145 C1146 1.379 . S
C1146 H1130 0.931 . S
C1146 C1140 1.383 . S
C1146 C1145 1.379 . S
H1147 C1141 0.959 . S
H1148 C1141 0.961 . S
H1149 C1141 0.960 . S
H1150 C1142 0.930 . S
H1151 C1143 0.929 . S
H1152 C1160 0.929 . S
H1153 C1162 0.930 . S
H1154 C1164 0.930 . S
H1155 C1167 0.929 . S
H1156 C1170 0.930 . S
H1157 C1172 0.960 . S
H1158 C1172 0.960 . S
H1159 C1172 0.960 . S
C1160 H1152 0.929 . S
C1160 C1161 1.377 . S
C1160 C1162 1.384 . S
C1161 C1160 1.377 . S
C1161 C1167 1.390 . S
C1162 H1153 0.930 . S
C1162 C1160 1.384 . S
C1162 C1163 1.372 . S
C1163 C1162 1.372 . S
C1163 C1164 1.400 . S
C1163 C1168 1.490 . S
C1164 H1154 0.930 . S
C1164 C1163 1.400 . S
C1164 C1167 1.386 . S
H1165 C1181 0.930 . S
H1166 C1182 0.931 . S
C1167 H1155 0.929 . S
C1167 C1161 1.390 . S
C1167 C1164 1.386 . S
C1168 C1163 1.490 . S
C1168 C1170 1.395 . S
C1168 C1171 1.403 . S
H1169 C1175 0.930 . S
C1170 H1156 0.930 . S
C1170 C1168 1.395 . S
C1170 C1173 1.403 . S
C1171 C1168 1.403 . S
C1171 C1172 1.524 . S
C1171 C1175 1.400 . S
C1172 H1157 0.960 . S
C1172 H1158 0.960 . S
C1172 H1159 0.960 . S
C1172 C1171 1.524 . S
C1173 C1170 1.403 . S
C1173 C1174 1.392 . S
C1173 C1177 1.495 . S
C1174 C1173 1.392 . S
C1174 C1175 1.385 . S
C1174 C1176 1.478 . S
C1175 H1169 0.930 . S
C1175 C1171 1.400 . S
C1175 C1174 1.385 . S
C1176 C1174 1.478 . S
C1176 C1178 1.381 . S
C1176 C1182 1.383 . S
C1177 C1173 1.495 . S
C1177 H1183 0.959 . S
C1177 H1184 0.961 . S
C1177 H1185 0.960 . S
C1178 C1176 1.381 . S
C1178 C1179 1.394 . S
C1178 H1186 0.930 . S
C1179 C1178 1.394 . S
C1179 C1180 1.383 . S
C1179 H1187 0.929 . S
C1180 C1179 1.383 . S
C1180 C1181 1.377 . S
C1181 H1165 0.930 . S
C1181 C1180 1.377 . S
C1181 C1182 1.379 . S
C1182 H1166 0.931 . S
C1182 C1176 1.383 . S
C1182 C1181 1.379 . S
H1183 C1177 0.959 . S
H1184 C1177 0.961 . S
H1185 C1177 0.960 . S
H1186 C1178 0.930 . S
H1187 C1179 0.929 . S
H1188 C1196 0.929 . S
H1189 C1198 0.930 . S
H1190 C1200 0.930 . S
H1191 C1203 0.929 . S
H1192 C1206 0.930 . S
H1193 C1208 0.960 . S
H1194 C1208 0.960 . S
H1195 C1208 0.960 . S
C1196 H1188 0.929 . S
C1196 C1197 1.377 . S
C1196 C1198 1.384 . S
C1197 C1196 1.377 . S
C1197 C1203 1.390 . S
C1198 H1189 0.930 . S
C1198 C1196 1.384 . S
C1198 C1199 1.372 . S
C1199 C1198 1.372 . S
C1199 C1200 1.400 . S
C1199 C1204 1.490 . S
C1200 H1190 0.930 . S
C1200 C1199 1.400 . S
C1200 C1203 1.386 . S
H1201 C1217 0.930 . S
H1202 C1218 0.931 . S
C1203 H1191 0.929 . S
C1203 C1197 1.390 . S
C1203 C1200 1.386 . S
C1204 C1199 1.490 . S
C1204 C1206 1.395 . S
C1204 C1207 1.403 . S
H1205 C1211 0.930 . S
C1206 H1192 0.930 . S
C1206 C1204 1.395 . S
C1206 C1209 1.403 . S
C1207 C1204 1.403 . S
C1207 C1208 1.524 . S
C1207 C1211 1.400 . S
C1208 H1193 0.960 . S
C1208 H1194 0.960 . S
C1208 H1195 0.960 . S
C1208 C1207 1.524 . S
C1209 C1206 1.403 . S
C1209 C1210 1.392 . S
C1209 C1213 1.495 . S
C1210 C1209 1.392 . S
C1210 C1211 1.385 . S
C1210 C1212 1.478 . S
C1211 H1205 0.930 . S
C1211 C1207 1.400 . S
C1211 C1210 1.385 . S
C1212 C1210 1.478 . S
C1212 C1214 1.381 . S
C1212 C1218 1.383 . S
C1213 C1209 1.495 . S
C1213 H1219 0.959 . S
C1213 H1220 0.961 . S
C1213 H1221 0.960 . S
C1214 C1212 1.381 . S
C1214 C1215 1.394 . S
C1214 H1222 0.930 . S
C1215 C1214 1.394 . S
C1215 C1216 1.383 . S
C1215 H1223 0.929 . S
C1216 C1215 1.383 . S
C1216 C1217 1.377 . S
C1217 H1201 0.930 . S
C1217 C1216 1.377 . S
C1217 C1218 1.379 . S
C1218 H1202 0.931 . S
C1218 C1212 1.383 . S
C1218 C1217 1.379 . S
H1219 C1213 0.959 . S
H1220 C1213 0.961 . S
H1221 C1213 0.960 . S
H1222 C1214 0.930 . S
H1223 C1215 0.929 . S
H1224 C1232 0.929 . S
H1225 C1234 0.930 . S
H1226 C1236 0.930 . S
H1227 C1239 0.929 . S
H1228 C1242 0.930 . S
H1229 C1244 0.960 . S
H1230 C1244 0.960 . S
H1231 C1244 0.960 . S
C1232 H1224 0.929 . S
C1232 C1233 1.377 . S
C1232 C1234 1.384 . S
C1233 C1232 1.377 . S
C1233 C1239 1.390 . S
C1234 H1225 0.930 . S
C1234 C1232 1.384 . S
C1234 C1235 1.372 . S
C1235 C1234 1.372 . S
C1235 C1236 1.400 . S
C1235 C1240 1.490 . S
C1236 H1226 0.930 . S
C1236 C1235 1.400 . S
C1236 C1239 1.386 . S
H1237 C1253 0.930 . S
H1238 C1254 0.931 . S
C1239 H1227 0.929 . S
C1239 C1233 1.390 . S
C1239 C1236 1.386 . S
C1240 C1235 1.490 . S
C1240 C1242 1.395 . S
C1240 C1243 1.403 . S
H1241 C1247 0.930 . S
C1242 H1228 0.930 . S
C1242 C1240 1.395 . S
C1242 C1245 1.403 . S
C1243 C1240 1.403 . S
C1243 C1244 1.524 . S
C1243 C1247 1.400 . S
C1244 H1229 0.960 . S
C1244 H1230 0.960 . S
C1244 H1231 0.960 . S
C1244 C1243 1.524 . S
C1245 C1242 1.403 . S
C1245 C1246 1.392 . S
C1245 C1249 1.495 . S
C1246 C1245 1.392 . S
C1246 C1247 1.385 . S
C1246 C1248 1.478 . S
C1247 H1241 0.930 . S
C1247 C1243 1.400 . S
C1247 C1246 1.385 . S
C1248 C1246 1.478 . S
C1248 C1250 1.381 . S
C1248 C1254 1.383 . S
C1249 C1245 1.495 . S
C1249 H1255 0.959 . S
C1249 H1256 0.961 . S
C1249 H1257 0.960 . S
C1250 C1248 1.381 . S
C1250 C1251 1.394 . S
C1250 H1258 0.930 . S
C1251 C1250 1.394 . S
C1251 C1252 1.383 . S
C1251 H1259 0.929 . S
C1252 C1251 1.383 . S
C1252 C1253 1.377 . S
C1253 H1237 0.930 . S
C1253 C1252 1.377 . S
C1253 C1254 1.379 . S
C1254 H1238 0.931 . S
C1254 C1248 1.383 . S
C1254 C1253 1.379 . S
H1255 C1249 0.959 . S
H1256 C1249 0.961 . S
H1257 C1249 0.960 . S
H1258 C1250 0.930 . S
H1259 C1251 0.929 . S
H1260 C1268 0.929 . S
H1261 C1270 0.930 . S
H1262 C1272 0.930 . S
H1263 C1275 0.929 . S
H1264 C1278 0.930 . S
H1265 C1280 0.960 . S
H1266 C1280 0.960 . S
H1267 C1280 0.960 . S
C1268 H1260 0.929 . S
C1268 C1269 1.377 . S
C1268 C1270 1.384 . S
C1269 C1268 1.377 . S
C1269 C1275 1.390 . S
C1270 H1261 0.930 . S
C1270 C1268 1.384 . S
C1270 C1271 1.372 . S
C1271 C1270 1.372 . S
C1271 C1272 1.400 . S
C1271 C1276 1.490 . S
C1272 H1262 0.930 . S
C1272 C1271 1.400 . S
C1272 C1275 1.386 . S
H1273 C1289 0.930 . S
H1274 C1290 0.931 . S
C1275 H1263 0.929 . S
C1275 C1269 1.390 . S
C1275 C1272 1.386 . S
C1276 C1271 1.490 . S
C1276 C1278 1.395 . S
C1276 C1279 1.403 . S
H1277 C1283 0.930 . S
C1278 H1264 0.930 . S
C1278 C1276 1.395 . S
C1278 C1281 1.403 . S
C1279 C1276 1.403 . S
C1279 C1280 1.524 . S
C1279 C1283 1.400 . S
C1280 H1265 0.960 . S
C1280 H1266 0.960 . S
C1280 H1267 0.960 . S
C1280 C1279 1.524 . S
C1281 C1278 1.403 . S
C1281 C1282 1.392 . S
C1281 C1285 1.495 . S
C1282 C1281 1.392 . S
C1282 C1283 1.385 . S
C1282 C1284 1.478 . S
C1283 H1277 0.930 . S
C1283 C1279 1.400 . S
C1283 C1282 1.385 . S
C1284 C1282 1.478 . S
C1284 C1286 1.381 . S
C1284 C1290 1.383 . S
C1285 C1281 1.495 . S
C1285 H1291 0.959 . S
C1285 H1292 0.961 . S
C1285 H1293 0.960 . S
C1286 C1284 1.381 . S
C1286 C1287 1.394 . S
C1286 H1294 0.930 . S
C1287 C1286 1.394 . S
C1287 C1288 1.383 . S
C1287 H1295 0.929 . S
C1288 C1287 1.383 . S
C1288 C1289 1.377 . S
C1289 H1273 0.930 . S
C1289 C1288 1.377 . S
C1289 C1290 1.379 . S
C1290 H1274 0.931 . S
C1290 C1284 1.383 . S
C1290 C1289 1.379 . S
H1291 C1285 0.959 . S
H1292 C1285 0.961 . S
H1293 C1285 0.960 . S
H1294 C1286 0.930 . S
H1295 C1287 0.929 . S
H1296 C1304 0.929 . S
H1297 C1306 0.930 . S
H1298 C1308 0.930 . S
H1299 C1311 0.929 . S
H1300 C1314 0.930 . S
H1301 C1316 0.960 . S
H1302 C1316 0.960 . S
H1303 C1316 0.960 . S
C1304 H1296 0.929 . S
C1304 C1305 1.377 . S
C1304 C1306 1.384 . S
C1305 C1304 1.377 . S
C1305 C1311 1.390 . S
C1306 H1297 0.930 . S
C1306 C1304 1.384 . S
C1306 C1307 1.372 . S
C1307 C1306 1.372 . S
C1307 C1308 1.400 . S
C1307 C1312 1.490 . S
C1308 H1298 0.930 . S
C1308 C1307 1.400 . S
C1308 C1311 1.386 . S
H1309 C1325 0.930 . S
H1310 C1326 0.931 . S
C1311 H1299 0.929 . S
C1311 C1305 1.390 . S
C1311 C1308 1.386 . S
C1312 C1307 1.490 . S
C1312 C1314 1.395 . S
C1312 C1315 1.403 . S
H1313 C1319 0.930 . S
C1314 H1300 0.930 . S
C1314 C1312 1.395 . S
C1314 C1317 1.403 . S
C1315 C1312 1.403 . S
C1315 C1316 1.524 . S
C1315 C1319 1.400 . S
C1316 H1301 0.960 . S
C1316 H1302 0.960 . S
C1316 H1303 0.960 . S
C1316 C1315 1.524 . S
C1317 C1314 1.403 . S
C1317 C1318 1.392 . S
C1317 C1321 1.495 . S
C1318 C1317 1.392 . S
C1318 C1319 1.385 . S
C1318 C1320 1.478 . S
C1319 H1313 0.930 . S
C1319 C1315 1.400 . S
C1319 C1318 1.385 . S
C1320 C1318 1.478 . S
C1320 C1322 1.381 . S
C1320 C1326 1.383 . S
C1321 C1317 1.495 . S
C1321 H1327 0.959 . S
C1321 H1328 0.961 . S
C1321 H1329 0.960 . S
C1322 C1320 1.381 . S
C1322 C1323 1.394 . S
C1322 H1330 0.930 . S
C1323 C1322 1.394 . S
C1323 C1324 1.383 . S
C1323 H1331 0.929 . S
C1324 C1323 1.383 . S
C1324 C1325 1.377 . S
C1325 H1309 0.930 . S
C1325 C1324 1.377 . S
C1325 C1326 1.379 . S
C1326 H1310 0.931 . S
C1326 C1320 1.383 . S
C1326 C1325 1.379 . S
H1327 C1321 0.959 . S
H1328 C1321 0.961 . S
H1329 C1321 0.960 . S
H1330 C1322 0.930 . S
H1331 C1323 0.929 . S
H1332 C1340 0.929 . S
H1333 C1342 0.930 . S
H1334 C1344 0.930 . S
H1335 C1347 0.929 . S
H1336 C1350 0.930 . S
H1337 C1352 0.960 . S
H1338 C1352 0.960 . S
H1339 C1352 0.960 . S
C1340 H1332 0.929 . S
C1340 C1341 1.377 . S
C1340 C1342 1.384 . S
C1341 C1340 1.377 . S
C1341 C1347 1.390 . S
C1342 H1333 0.930 . S
C1342 C1340 1.384 . S
C1342 C1343 1.372 . S
C1343 C1342 1.372 . S
C1343 C1344 1.400 . S
C1343 C1348 1.490 . S
C1344 H1334 0.930 . S
C1344 C1343 1.400 . S
C1344 C1347 1.386 . S
H1345 C1361 0.930 . S
H1346 C1362 0.931 . S
C1347 H1335 0.929 . S
C1347 C1341 1.390 . S
C1347 C1344 1.386 . S
C1348 C1343 1.490 . S
C1348 C1350 1.395 . S
C1348 C1351 1.403 . S
H1349 C1355 0.930 . S
C1350 H1336 0.930 . S
C1350 C1348 1.395 . S
C1350 C1353 1.403 . S
C1351 C1348 1.403 . S
C1351 C1352 1.524 . S
C1351 C1355 1.400 . S
C1352 H1337 0.960 . S
C1352 H1338 0.960 . S
C1352 H1339 0.960 . S
C1352 C1351 1.524 . S
C1353 C1350 1.403 . S
C1353 C1354 1.392 . S
C1353 C1357 1.495 . S
C1354 C1353 1.392 . S
C1354 C1355 1.385 . S
C1354 C1356 1.478 . S
C1355 H1349 0.930 . S
C1355 C1351 1.400 . S
C1355 C1354 1.385 . S
C1356 C1354 1.478 . S
C1356 C1358 1.381 . S
C1356 C1362 1.383 . S
C1357 C1353 1.495 . S
C1357 H1363 0.959 . S
C1357 H1364 0.961 . S
C1357 H1365 0.960 . S
C1358 C1356 1.381 . S
C1358 C1359 1.394 . S
C1358 H1366 0.930 . S
C1359 C1358 1.394 . S
C1359 C1360 1.383 . S
C1359 H1367 0.929 . S
C1360 C1359 1.383 . S
C1360 C1361 1.377 . S
C1361 H1345 0.930 . S
C1361 C1360 1.377 . S
C1361 C1362 1.379 . S
C1362 H1346 0.931 . S
C1362 C1356 1.383 . S
C1362 C1361 1.379 . S
H1363 C1357 0.959 . S
H1364 C1357 0.961 . S
H1365 C1357 0.960 . S
H1366 C1358 0.930 . S
H1367 C1359 0.929 . S
H1368 C1376 0.929 . S
H1369 C1378 0.930 . S
H1370 C1380 0.930 . S
H1371 C1383 0.929 . S
H1372 C1386 0.930 . S
H1373 C1388 0.960 . S
H1374 C1388 0.960 . S
H1375 C1388 0.960 . S
C1376 H1368 0.929 . S
C1376 C1377 1.377 . S
C1376 C1378 1.384 . S
C1377 C1376 1.377 . S
C1377 C1383 1.390 . S
C1378 H1369 0.930 . S
C1378 C1376 1.384 . S
C1378 C1379 1.372 . S
C1379 C1378 1.372 . S
C1379 C1380 1.400 . S
C1379 C1384 1.490 . S
C1380 H1370 0.930 . S
C1380 C1379 1.400 . S
C1380 C1383 1.386 . S
H1381 C1397 0.930 . S
H1382 C1398 0.931 . S
C1383 H1371 0.929 . S
C1383 C1377 1.390 . S
C1383 C1380 1.386 . S
C1384 C1379 1.490 . S
C1384 C1386 1.395 . S
C1384 C1387 1.403 . S
H1385 C1391 0.930 . S
C1386 H1372 0.930 . S
C1386 C1384 1.395 . S
C1386 C1389 1.403 . S
C1387 C1384 1.403 . S
C1387 C1388 1.524 . S
C1387 C1391 1.400 . S
C1388 H1373 0.960 . S
C1388 H1374 0.960 . S
C1388 H1375 0.960 . S
C1388 C1387 1.524 . S
C1389 C1386 1.403 . S
C1389 C1390 1.392 . S
C1389 C1393 1.495 . S
C1390 C1389 1.392 . S
C1390 C1391 1.385 . S
C1390 C1392 1.478 . S
C1391 H1385 0.930 . S
C1391 C1387 1.400 . S
C1391 C1390 1.385 . S
C1392 C1390 1.478 . S
C1392 C1394 1.381 . S
C1392 C1398 1.383 . S
C1393 C1389 1.495 . S
C1393 H1399 0.959 . S
C1393 H1400 0.961 . S
C1393 H1401 0.960 . S
C1394 C1392 1.381 . S
C1394 C1395 1.394 . S
C1394 H1402 0.930 . S
C1395 C1394 1.394 . S
C1395 C1396 1.383 . S
C1395 H1403 0.929 . S
C1396 C1395 1.383 . S
C1396 C1397 1.377 . S
C1397 H1381 0.930 . S
C1397 C1396 1.377 . S
C1397 C1398 1.379 . S
C1398 H1382 0.931 . S
C1398 C1392 1.383 . S
C1398 C1397 1.379 . S
H1399 C1393 0.959 . S
H1400 C1393 0.961 . S
H1401 C1393 0.960 . S
H1402 C1394 0.930 . S
H1403 C1395 0.929 . S
H1404 C1412 0.929 . S
H1405 C1414 0.930 . S
H1406 C1416 0.930 . S
H1407 C1419 0.929 . S
H1408 C1422 0.930 . S
H1409 C1424 0.960 . S
H1410 C1424 0.960 . S
H1411 C1424 0.960 . S
C1412 H1404 0.929 . S
C1412 C1413 1.377 . S
C1412 C1414 1.384 . S
C1413 C1412 1.377 . S
C1413 C1419 1.390 . S
C1414 H1405 0.930 . S
C1414 C1412 1.384 . S
C1414 C1415 1.372 . S
C1415 C1414 1.372 . S
C1415 C1416 1.400 . S
C1415 C1420 1.490 . S
C1416 H1406 0.930 . S
C1416 C1415 1.400 . S
C1416 C1419 1.386 . S
H1417 C1433 0.930 . S
H1418 C1434 0.931 . S
C1419 H1407 0.929 . S
C1419 C1413 1.390 . S
C1419 C1416 1.386 . S
C1420 C1415 1.490 . S
C1420 C1422 1.395 . S
C1420 C1423 1.403 . S
H1421 C1427 0.930 . S
C1422 H1408 0.930 . S
C1422 C1420 1.395 . S
C1422 C1425 1.403 . S
C1423 C1420 1.403 . S
C1423 C1424 1.524 . S
C1423 C1427 1.400 . S
C1424 H1409 0.960 . S
C1424 H1410 0.960 . S
C1424 H1411 0.960 . S
C1424 C1423 1.524 . S
C1425 C1422 1.403 . S
C1425 C1426 1.392 . S
C1425 C1429 1.495 . S
C1426 C1425 1.392 . S
C1426 C1427 1.385 . S
C1426 C1428 1.478 . S
C1427 H1421 0.930 . S
C1427 C1423 1.400 . S
C1427 C1426 1.385 . S
C1428 C1426 1.478 . S
C1428 C1430 1.381 . S
C1428 C1434 1.383 . S
C1429 C1425 1.495 . S
C1429 H1435 0.959 . S
C1429 H1436 0.961 . S
C1429 H1437 0.960 . S
C1430 C1428 1.381 . S
C1430 C1431 1.394 . S
C1430 H1438 0.930 . S
C1431 C1430 1.394 . S
C1431 C1432 1.383 . S
C1431 H1439 0.929 . S
C1432 C1431 1.383 . S
C1432 C1433 1.377 . S
C1433 H1417 0.930 . S
C1433 C1432 1.377 . S
C1433 C1434 1.379 . S
C1434 H1418 0.931 . S
C1434 C1428 1.383 . S
C1434 C1433 1.379 . S
H1435 C1429 0.959 . S
H1436 C1429 0.961 . S
H1437 C1429 0.960 . S
H1438 C1430 0.930 . S
H1439 C1431 0.929 . S
H1440 C1448 0.929 . S
H1441 C1450 0.930 . S
H1442 C1452 0.930 . S
H1443 C1455 0.929 . S
H1444 C1458 0.930 . S
H1445 C1460 0.960 . S
H1446 C1460 0.960 . S
H1447 C1460 0.960 . S
C1448 H1440 0.929 . S
C1448 C1449 1.377 . S
C1448 C1450 1.384 . S
C1449 C1448 1.377 . S
C1449 C1455 1.390 . S
C1450 H1441 0.930 . S
C1450 C1448 1.384 . S
C1450 C1451 1.372 . S
C1451 C1450 1.372 . S
C1451 C1452 1.400 . S
C1451 C1456 1.490 . S
C1452 H1442 0.930 . S
C1452 C1451 1.400 . S
C1452 C1455 1.386 . S
H1453 C1469 0.930 . S
H1454 C1470 0.931 . S
C1455 H1443 0.929 . S
C1455 C1449 1.390 . S
C1455 C1452 1.386 . S
C1456 C1451 1.490 . S
C1456 C1458 1.395 . S
C1456 C1459 1.403 . S
H1457 C1463 0.930 . S
C1458 H1444 0.930 . S
C1458 C1456 1.395 . S
C1458 C1461 1.403 . S
C1459 C1456 1.403 . S
C1459 C1460 1.524 . S
C1459 C1463 1.400 . S
C1460 H1445 0.960 . S
C1460 H1446 0.960 . S
C1460 H1447 0.960 . S
C1460 C1459 1.524 . S
C1461 C1458 1.403 . S
C1461 C1462 1.392 . S
C1461 C1465 1.495 . S
C1462 C1461 1.392 . S
C1462 C1463 1.385 . S
C1462 C1464 1.478 . S
C1463 H1457 0.930 . S
C1463 C1459 1.400 . S
C1463 C1462 1.385 . S
C1464 C1462 1.478 . S
C1464 C1466 1.381 . S
C1464 C1470 1.383 . S
C1465 C1461 1.495 . S
C1465 H1471 0.959 . S
C1465 H1472 0.961 . S
C1465 H1473 0.960 . S
C1466 C1464 1.381 . S
C1466 C1467 1.394 . S
C1466 H1474 0.930 . S
C1467 C1466 1.394 . S
C1467 C1468 1.383 . S
C1467 H1475 0.929 . S
C1468 C1467 1.383 . S
C1468 C1469 1.377 . S
C1469 H1453 0.930 . S
C1469 C1468 1.377 . S
C1469 C1470 1.379 . S
C1470 H1454 0.931 . S
C1470 C1464 1.383 . S
C1470 C1469 1.379 . S
H1471 C1465 0.959 . S
H1472 C1465 0.961 . S
H1473 C1465 0.960 . S
H1474 C1466 0.930 . S
H1475 C1467 0.929 . S
H1476 C1484 0.929 . S
H1477 C1486 0.930 . S
H1478 C1488 0.930 . S
H1479 C1491 0.929 . S
H1480 C1494 0.930 . S
H1481 C1496 0.960 . S
H1482 C1496 0.960 . S
H1483 C1496 0.960 . S
C1484 H1476 0.929 . S
C1484 C1485 1.377 . S
C1484 C1486 1.384 . S
C1485 C1484 1.377 . S
C1485 C1491 1.390 . S
C1486 H1477 0.930 . S
C1486 C1484 1.384 . S
C1486 C1487 1.372 . S
C1487 C1486 1.372 . S
C1487 C1488 1.400 . S
C1487 C1492 1.490 . S
C1488 H1478 0.930 . S
C1488 C1487 1.400 . S
C1488 C1491 1.386 . S
H1489 C1505 0.930 . S
H1490 C1506 0.931 . S
C1491 H1479 0.929 . S
C1491 C1485 1.390 . S
C1491 C1488 1.386 . S
C1492 C1487 1.490 . S
C1492 C1494 1.395 . S
C1492 C1495 1.403 . S
H1493 C1499 0.930 . S
C1494 H1480 0.930 . S
C1494 C1492 1.395 . S
C1494 C1497 1.403 . S
C1495 C1492 1.403 . S
C1495 C1496 1.524 . S
C1495 C1499 1.400 . S
C1496 H1481 0.960 . S
C1496 H1482 0.960 . S
C1496 H1483 0.960 . S
C1496 C1495 1.524 . S
C1497 C1494 1.403 . S
C1497 C1498 1.392 . S
C1497 C1501 1.495 . S
C1498 C1497 1.392 . S
C1498 C1499 1.385 . S
C1498 C1500 1.478 . S
C1499 H1493 0.930 . S
C1499 C1495 1.400 . S
C1499 C1498 1.385 . S
C1500 C1498 1.478 . S
C1500 C1502 1.381 . S
C1500 C1506 1.383 . S
C1501 C1497 1.495 . S
C1501 H1507 0.959 . S
C1501 H1508 0.961 . S
C1501 H1509 0.960 . S
C1502 C1500 1.381 . S
C1502 C1503 1.394 . S
C1502 H1510 0.930 . S
C1503 C1502 1.394 . S
C1503 C1504 1.383 . S
C1503 H1511 0.929 . S
C1504 C1503 1.383 . S
C1504 C1505 1.377 . S
C1505 H1489 0.930 . S
C1505 C1504 1.377 . S
C1505 C1506 1.379 . S
C1506 H1490 0.931 . S
C1506 C1500 1.383 . S
C1506 C1505 1.379 . S
H1507 C1501 0.959 . S
H1508 C1501 0.961 . S
H1509 C1501 0.960 . S
H1510 C1502 0.930 . S
H1511 C1503 0.929 . S
H1512 C1520 0.929 . S
H1513 C1522 0.930 . S
H1514 C1524 0.930 . S
H1515 C1527 0.929 . S
H1516 C1530 0.930 . S
H1517 C1532 0.960 . S
H1518 C1532 0.960 . S
H1519 C1532 0.960 . S
C1520 H1512 0.929 . S
C1520 C1521 1.377 . S
C1520 C1522 1.384 . S
C1521 C1520 1.377 . S
C1521 C1527 1.390 . S
C1522 H1513 0.930 . S
C1522 C1520 1.384 . S
C1522 C1523 1.372 . S
C1523 C1522 1.372 . S
C1523 C1524 1.400 . S
C1523 C1528 1.490 . S
C1524 H1514 0.930 . S
C1524 C1523 1.400 . S
C1524 C1527 1.386 . S
H1525 C1541 0.930 . S
H1526 C1542 0.931 . S
C1527 H1515 0.929 . S
C1527 C1521 1.390 . S
C1527 C1524 1.386 . S
C1528 C1523 1.490 . S
C1528 C1530 1.395 . S
C1528 C1531 1.403 . S
H1529 C1535 0.930 . S
C1530 H1516 0.930 . S
C1530 C1528 1.395 . S
C1530 C1533 1.403 . S
C1531 C1528 1.403 . S
C1531 C1532 1.524 . S
C1531 C1535 1.400 . S
C1532 H1517 0.960 . S
C1532 H1518 0.960 . S
C1532 H1519 0.960 . S
C1532 C1531 1.524 . S
C1533 C1530 1.403 . S
C1533 C1534 1.392 . S
C1533 C1537 1.495 . S
C1534 C1533 1.392 . S
C1534 C1535 1.385 . S
C1534 C1536 1.478 . S
C1535 H1529 0.930 . S
C1535 C1531 1.400 . S
C1535 C1534 1.385 . S
C1536 C1534 1.478 . S
C1536 C1538 1.381 . S
C1536 C1542 1.383 . S
C1537 C1533 1.495 . S
C1537 H1543 0.959 . S
C1537 H1544 0.961 . S
C1537 H1545 0.960 . S
C1538 C1536 1.381 . S
C1538 C1539 1.394 . S
C1538 H1546 0.930 . S
C1539 C1538 1.394 . S
C1539 C1540 1.383 . S
C1539 H1547 0.929 . S
C1540 C1539 1.383 . S
C1540 C1541 1.377 . S
C1541 H1525 0.930 . S
C1541 C1540 1.377 . S
C1541 C1542 1.379 . S
C1542 H1526 0.931 . S
C1542 C1536 1.383 . S
C1542 C1541 1.379 . S
H1543 C1537 0.959 . S
H1544 C1537 0.961 . S
H1545 C1537 0.960 . S
H1546 C1538 0.930 . S
H1547 C1539 0.929 . S
H1548 C1556 0.929 . S
H1549 C1558 0.930 . S
H1550 C1560 0.930 . S
H1551 C1563 0.929 . S
H1552 C1566 0.930 . S
H1553 C1568 0.960 . S
H1554 C1568 0.960 . S
H1555 C1568 0.960 . S
C1556 H1548 0.929 . S
C1556 C1557 1.377 . S
C1556 C1558 1.384 . S
C1557 C1556 1.377 . S
C1557 C1563 1.390 . S
C1558 H1549 0.930 . S
C1558 C1556 1.384 . S
C1558 C1559 1.372 . S
C1559 C1558 1.372 . S
C1559 C1560 1.400 . S
C1559 C1564 1.490 . S
C1560 H1550 0.930 . S
C1560 C1559 1.400 . S
C1560 C1563 1.386 . S
H1561 C1577 0.930 . S
H1562 C1578 0.931 . S
C1563 H1551 0.929 . S
C1563 C1557 1.390 . S
C1563 C1560 1.386 . S
C1564 C1559 1.490 . S
C1564 C1566 1.395 . S
C1564 C1567 1.403 . S
H1565 C1571 0.930 . S
C1566 H1552 0.930 . S
C1566 C1564 1.395 . S
C1566 C1569 1.403 . S
C1567 C1564 1.403 . S
C1567 C1568 1.524 . S
C1567 C1571 1.400 . S
C1568 H1553 0.960 . S
C1568 H1554 0.960 . S
C1568 H1555 0.960 . S
C1568 C1567 1.524 . S
C1569 C1566 1.403 . S
C1569 C1570 1.392 . S
C1569 C1573 1.495 . S
C1570 C1569 1.392 . S
C1570 C1571 1.385 . S
C1570 C1572 1.478 . S
C1571 H1565 0.930 . S
C1571 C1567 1.400 . S
C1571 C1570 1.385 . S
C1572 C1570 1.478 . S
C1572 C1574 1.381 . S
C1572 C1578 1.383 . S
C1573 C1569 1.495 . S
C1573 H1579 0.959 . S
C1573 H1580 0.961 . S
C1573 H1581 0.960 . S
C1574 C1572 1.381 . S
C1574 C1575 1.394 . S
C1574 H1582 0.930 . S
C1575 C1574 1.394 . S
C1575 C1576 1.383 . S
C1575 H1583 0.929 . S
C1576 C1575 1.383 . S
C1576 C1577 1.377 . S
C1577 H1561 0.930 . S
C1577 C1576 1.377 . S
C1577 C1578 1.379 . S
C1578 H1562 0.931 . S
C1578 C1572 1.383 . S
C1578 C1577 1.379 . S
H1579 C1573 0.959 . S
H1580 C1573 0.961 . S
H1581 C1573 0.960 . S
H1582 C1574 0.930 . S
H1583 C1575 0.929 . S
H1584 C1592 0.929 . S
H1585 C1594 0.930 . S
H1586 C1596 0.930 . S
H1587 C1599 0.929 . S
H1588 C1602 0.930 . S
H1589 C1604 0.960 . S
H1590 C1604 0.960 . S
H1591 C1604 0.960 . S
C1592 H1584 0.929 . S
C1592 C1593 1.377 . S
C1592 C1594 1.384 . S
C1593 C1592 1.377 . S
C1593 C1599 1.390 . S
C1594 H1585 0.930 . S
C1594 C1592 1.384 . S
C1594 C1595 1.372 . S
C1595 C1594 1.372 . S
C1595 C1596 1.400 . S
C1595 C1600 1.490 . S
C1596 H1586 0.930 . S
C1596 C1595 1.400 . S
C1596 C1599 1.386 . S
H1597 C1613 0.930 . S
H1598 C1614 0.931 . S
C1599 H1587 0.929 . S
C1599 C1593 1.390 . S
C1599 C1596 1.386 . S
C1600 C1595 1.490 . S
C1600 C1602 1.395 . S
C1600 C1603 1.403 . S
H1601 C1607 0.930 . S
C1602 H1588 0.930 . S
C1602 C1600 1.395 . S
C1602 C1605 1.403 1_455 S
C1603 C1600 1.403 . S
C1603 C1604 1.524 . S
C1603 C1607 1.400 1_455 S
C1604 H1589 0.960 . S
C1604 H1590 0.960 . S
C1604 H1591 0.960 . S
C1604 C1603 1.524 . S
C1605 C1602 1.403 1_655 S
C1605 C1606 1.392 . S
C1605 C1609 1.495 . S
C1606 C1605 1.392 . S
C1606 C1607 1.385 . S
C1606 C1608 1.478 . S
C1607 H1601 0.930 . S
C1607 C1603 1.400 1_655 S
C1607 C1606 1.385 . S
C1608 C1606 1.478 . S
C1608 C1610 1.381 . S
C1608 C1614 1.383 . S
C1609 C1605 1.495 . S
C1609 H1615 0.959 . S
C1609 H1616 0.961 . S
C1609 H1617 0.960 . S
C1610 C1608 1.381 . S
C1610 C1611 1.394 . S
C1610 H1618 0.930 . S
C1611 C1610 1.394 . S
C1611 C1612 1.383 . S
C1611 H1619 0.929 . S
C1612 C1611 1.383 . S
C1612 C1613 1.377 . S
C1613 H1597 0.930 . S
C1613 C1612 1.377 . S
C1613 C1614 1.379 . S
C1614 H1598 0.931 . S
C1614 C1608 1.383 . S
C1614 C1613 1.379 . S
H1615 C1609 0.959 . S
H1616 C1609 0.961 . S
H1617 C1609 0.960 . S
H1618 C1610 0.930 . S
H1619 C1611 0.929 . S
H1620 C1628 0.929 . S
H1621 C1630 0.930 . S
H1622 C1632 0.930 . S
H1623 C1635 0.929 . S
H1624 C1638 0.930 . S
H1625 C1640 0.960 . S
H1626 C1640 0.960 . S
H1627 C1640 0.960 . S
C1628 H1620 0.929 . S
C1628 C1629 1.377 . S
C1628 C1630 1.384 . S
C1629 C1628 1.377 . S
C1629 C1635 1.390 . S
C1630 H1621 0.930 . S
C1630 C1628 1.384 . S
C1630 C1631 1.372 . S
C1631 C1630 1.372 . S
C1631 C1632 1.400 . S
C1631 C1636 1.490 . S
C1632 H1622 0.930 . S
C1632 C1631 1.400 . S
C1632 C1635 1.386 . S
H1633 C1649 0.930 . S
H1634 C1650 0.931 . S
C1635 H1623 0.929 . S
C1635 C1629 1.390 . S
C1635 C1632 1.386 . S
C1636 C1631 1.490 . S
C1636 C1638 1.395 . S
C1636 C1639 1.403 . S
H1637 C1643 0.930 . S
C1638 H1624 0.930 . S
C1638 C1636 1.395 . S
C1638 C1641 1.403 . S
C1639 C1636 1.403 . S
C1639 C1640 1.524 . S
C1639 C1643 1.400 . S
C1640 H1625 0.960 . S
C1640 H1626 0.960 . S
C1640 H1627 0.960 . S
C1640 C1639 1.524 . S
C1641 C1638 1.403 . S
C1641 C1642 1.392 . S
C1641 C1645 1.495 . S
C1642 C1641 1.392 . S
C1642 C1643 1.385 . S
C1642 C1644 1.478 . S
C1643 H1637 0.930 . S
C1643 C1639 1.400 . S
C1643 C1642 1.385 . S
C1644 C1642 1.478 . S
C1644 C1646 1.381 . S
C1644 C1650 1.383 . S
C1645 C1641 1.495 . S
C1645 H1651 0.959 . S
C1645 H1652 0.961 . S
C1645 H1653 0.960 . S
C1646 C1644 1.381 . S
C1646 C1647 1.394 . S
C1646 H1654 0.930 . S
C1647 C1646 1.394 . S
C1647 C1648 1.383 . S
C1647 H1655 0.929 . S
C1648 C1647 1.383 . S
C1648 C1649 1.377 . S
C1649 H1633 0.930 . S
C1649 C1648 1.377 . S
C1649 C1650 1.379 . S
C1650 H1634 0.931 . S
C1650 C1644 1.383 . S
C1650 C1649 1.379 . S
H1651 C1645 0.959 . S
H1652 C1645 0.961 . S
H1653 C1645 0.960 . S
H1654 C1646 0.930 . S
H1655 C1647 0.929 . S
H1656 C1664 0.929 . S
H1657 C1666 0.930 . S
H1658 C1668 0.930 . S
H1659 C1671 0.929 . S
H1660 C1674 0.930 . S
H1661 C1676 0.960 1_565 S
H1662 C1676 0.960 . S
H1663 C1676 0.960 . S
C1664 H1656 0.929 . S
C1664 C1665 1.377 . S
C1664 C1666 1.384 . S
C1665 C1664 1.377 . S
C1665 C1671 1.390 . S
C1666 H1657 0.930 . S
C1666 C1664 1.384 . S
C1666 C1667 1.372 . S
C1667 C1666 1.372 . S
C1667 C1668 1.400 . S
C1667 C1672 1.490 . S
C1668 H1658 0.930 . S
C1668 C1667 1.400 . S
C1668 C1671 1.386 . S
H1669 C1685 0.930 . S
H1670 C1686 0.931 . S
C1671 H1659 0.929 . S
C1671 C1665 1.390 . S
C1671 C1668 1.386 . S
C1672 C1667 1.490 . S
C1672 C1674 1.395 . S
C1672 C1675 1.403 . S
H1673 C1679 0.930 . S
C1674 H1660 0.930 . S
C1674 C1672 1.395 . S
C1674 C1677 1.403 1_545 S
C1675 C1672 1.403 . S
C1675 C1676 1.524 . S
C1675 C1679 1.400 1_545 S
C1676 H1661 0.960 1_545 S
C1676 H1662 0.960 . S
C1676 H1663 0.960 . S
C1676 C1675 1.524 . S
C1677 C1674 1.403 1_565 S
C1677 C1678 1.392 . S
C1677 C1681 1.495 . S
C1678 C1677 1.392 . S
C1678 C1679 1.385 . S
C1678 C1680 1.478 . S
C1679 H1673 0.930 . S
C1679 C1675 1.400 1_565 S
C1679 C1678 1.385 . S
C1680 C1678 1.478 . S
C1680 C1682 1.381 . S
C1680 C1686 1.383 . S
C1681 C1677 1.495 . S
C1681 H1687 0.959 1_565 S
C1681 H1688 0.961 . S
C1681 H1689 0.960 . S
C1682 C1680 1.381 . S
C1682 C1683 1.394 . S
C1682 H1690 0.930 . S
C1683 C1682 1.394 . S
C1683 C1684 1.383 . S
C1683 H1691 0.929 . S
C1684 C1683 1.383 . S
C1684 C1685 1.377 . S
C1685 H1669 0.930 . S
C1685 C1684 1.377 . S
C1685 C1686 1.379 . S
C1686 H1670 0.931 . S
C1686 C1680 1.383 . S
C1686 C1685 1.379 . S
H1687 C1681 0.959 1_545 S
H1688 C1681 0.961 . S
H1689 C1681 0.960 . S
H1690 C1682 0.930 . S
H1691 C1683 0.929 . S
C729 C21 1.514 . S
C748 C221 1.510 . S
C765 C61 1.462 . S
C784 C122 1.458 . S
C801 C82 1.469 . S
C820 C181 1.459 . S
C837 C42 1.473 . S
C856 C162 1.465 . S
C873 C202 1.531 . S
C892 C101 1.517 . S
C909 C2 1.520 . S
C928 C141 1.506 1_554 S
C945 C461 1.514 . S
C964 C261 1.510 . S
C981 C301 1.463 . S
C1000 C362 1.470 . S
C1017 C322 1.467 . S
C1036 C421 1.475 . S
C1053 C282 1.478 . S
C1072 C402 1.453 . S
C1089 C341 1.515 . S
C1108 C442 1.511 . S
C1125 C242 1.523 . S
C1144 C381 1.521 . S
C1161 C501 1.520 . S
C1180 C701 1.518 . S
C1197 C602 1.467 . S
C1216 C541 1.459 . S
C1233 C661 1.467 . S
C1252 C562 1.452 . S
C1269 C642 1.472 . S
C1288 C522 1.483 . S
C1305 C682 1.530 . S
C1324 C581 1.523 . S
C1341 C621 1.516 . S
C1360 C482 1.510 . S
C1377 C15 1.511 . S
C1396 C415 1.511 . S
C1413 C455 1.506 . S
C1432 C55 1.505 . S
C1449 C375 1.517 . S
C1468 C95 1.518 . S
C1485 C135 1.515 . S
C1504 C575 1.515 . S
C1521 C175 1.511 . S
C1540 C495 1.510 . S
C1557 C535 1.506 . S
C1576 C215 1.503 . S
C1593 C655 1.508 . S
C1612 C255 1.507 . S
C1629 C295 1.507 . S
C1648 C695 1.504 . S
C1665 C335 1.515 . S
C1684 C615 1.515 . S
