# Generated by pormake.
# Topology uki, (4)-cn, num edge types: 1
# Building blocks:
#     Node 0, Type 0, BuildingBlock: MUDLON_clean_sbu_0, # of connection points: 4
#     Node 1, Type 0, BuildingBlock: MUDLON_clean_sbu_0, # of connection points: 4
#     Node 2, Type 0, BuildingBlock: MUDLON_clean_sbu_0, # of connection points: 4
#     Node 3, Type 0, BuildingBlock: MUDLON_clean_sbu_0, # of connection points: 4
#     Node 4, Type 0, BuildingBlock: MUDLON_clean_sbu_0, # of connection points: 4
#     Node 5, Type 0, BuildingBlock: MUDLON_clean_sbu_0, # of connection points: 4
#     Node 6, Type 0, BuildingBlock: MUDLON_clean_sbu_0, # of connection points: 4
#     Node 7, Type 0, BuildingBlock: MUDLON_clean_sbu_0, # of connection points: 4
#     Node 8, Type 0, BuildingBlock: MUDLON_clean_sbu_0, # of connection points: 4
#     Node 9, Type 0, BuildingBlock: MUDLON_clean_sbu_0, # of connection points: 4
#     Node 10, Type 0, BuildingBlock: MUDLON_clean_sbu_0, # of connection points: 4
#     Node 11, Type 0, BuildingBlock: MUDLON_clean_sbu_0, # of connection points: 4
#     Node 12, Type 0, BuildingBlock: MUDLON_clean_sbu_0, # of connection points: 4
#     Node 13, Type 0, BuildingBlock: MUDLON_clean_sbu_0, # of connection points: 4
#     Node 14, Type 0, BuildingBlock: MUDLON_clean_sbu_0, # of connection points: 4
#     Node 15, Type 0, BuildingBlock: MUDLON_clean_sbu_0, # of connection points: 4
#     Edge 16, Type (0, 0), BuildingBlock: OJICUG_clean_linker_0, # of connection points: 2
#     Edge 17, Type (0, 0), BuildingBlock: OJICUG_clean_linker_0, # of connection points: 2
#     Edge 18, Type (0, 0), BuildingBlock: OJICUG_clean_linker_0, # of connection points: 2
#     Edge 19, Type (0, 0), BuildingBlock: OJICUG_clean_linker_0, # of connection points: 2
#     Edge 20, Type (0, 0), BuildingBlock: OJICUG_clean_linker_0, # of connection points: 2
#     Edge 21, Type (0, 0), BuildingBlock: OJICUG_clean_linker_0, # of connection points: 2
#     Edge 22, Type (0, 0), BuildingBlock: OJICUG_clean_linker_0, # of connection points: 2
#     Edge 23, Type (0, 0), BuildingBlock: OJICUG_clean_linker_0, # of connection points: 2
#     Edge 24, Type (0, 0), BuildingBlock: OJICUG_clean_linker_0, # of connection points: 2
#     Edge 25, Type (0, 0), BuildingBlock: OJICUG_clean_linker_0, # of connection points: 2
#     Edge 26, Type (0, 0), BuildingBlock: OJICUG_clean_linker_0, # of connection points: 2
#     Edge 27, Type (0, 0), BuildingBlock: OJICUG_clean_linker_0, # of connection points: 2
#     Edge 28, Type (0, 0), BuildingBlock: OJICUG_clean_linker_0, # of connection points: 2
#     Edge 29, Type (0, 0), BuildingBlock: OJICUG_clean_linker_0, # of connection points: 2
#     Edge 30, Type (0, 0), BuildingBlock: OJICUG_clean_linker_0, # of connection points: 2
#     Edge 31, Type (0, 0), BuildingBlock: OJICUG_clean_linker_0, # of connection points: 2
#     Edge 32, Type (0, 0), BuildingBlock: OJICUG_clean_linker_0, # of connection points: 2
#     Edge 33, Type (0, 0), BuildingBlock: OJICUG_clean_linker_0, # of connection points: 2
#     Edge 34, Type (0, 0), BuildingBlock: OJICUG_clean_linker_0, # of connection points: 2
#     Edge 35, Type (0, 0), BuildingBlock: OJICUG_clean_linker_0, # of connection points: 2
#     Edge 36, Type (0, 0), BuildingBlock: OJICUG_clean_linker_0, # of connection points: 2
#     Edge 37, Type (0, 0), BuildingBlock: OJICUG_clean_linker_0, # of connection points: 2
#     Edge 38, Type (0, 0), BuildingBlock: OJICUG_clean_linker_0, # of connection points: 2
#     Edge 39, Type (0, 0), BuildingBlock: OJICUG_clean_linker_0, # of connection points: 2
#     Edge 40, Type (0, 0), BuildingBlock: OJICUG_clean_linker_0, # of connection points: 2
#     Edge 41, Type (0, 0), BuildingBlock: OJICUG_clean_linker_0, # of connection points: 2
#     Edge 42, Type (0, 0), BuildingBlock: OJICUG_clean_linker_0, # of connection points: 2
#     Edge 43, Type (0, 0), BuildingBlock: OJICUG_clean_linker_0, # of connection points: 2
#     Edge 44, Type (0, 0), BuildingBlock: OJICUG_clean_linker_0, # of connection points: 2
#     Edge 45, Type (0, 0), BuildingBlock: OJICUG_clean_linker_0, # of connection points: 2
#     Edge 46, Type (0, 0), BuildingBlock: OJICUG_clean_linker_0, # of connection points: 2
#     Edge 47, Type (0, 0), BuildingBlock: OJICUG_clean_linker_0, # of connection points: 2
# Relax obj value: 0.065
# Max RMSD: 0.232
# Mean RMSD: 0.232
data_MOF--net-uki--node1-MUDLON_clean_sbu_0--edge1-OJICUG_clean_linker_0
_symmetry_space_group_name_H-M    P1
_symmetry_Int_Tables_number       1
_symmetry_cell_setting            triclinic
loop_
_symmetry_equiv_pos_as_xyz
'x, y, z'
_cell_length_a     23.846123
_cell_length_b     23.563931
_cell_length_c     53.764355
_cell_angle_alpha  90.25194
_cell_angle_beta   90.098201
_cell_angle_gamma 89.794399
loop_
_atom_site_label
_atom_site_type_symbol
_atom_site_fract_x
_atom_site_fract_y
_atom_site_fract_z
_atom_type_partial_charge
Mg0 Mg 0.10893 0.25364 0.31132 0.0
C1 C 0.98664 0.28007 0.30489 0.0
O2 O 0.98829 0.22689 0.29754 0.0
C3 C 0.19402 0.22008 0.34951 0.0
O4 O 0.19233 0.1746 0.33532 0.0
C5 C 0.13289 0.32246 0.26509 0.0
O6 O 0.0785 0.33072 0.26655 0.0
O7 O 0.15635 0.28879 0.28041 0.0
O8 O 0.03122 0.30257 0.31341 0.0
O9 O 0.08613 0.16466 0.30675 0.0
C10 C 0.06495 0.14162 0.3259 0.0
O11 O 0.06042 0.17191 0.34639 0.0
O12 O 0.16218 0.26186 0.34431 0.0
Mg13 Mg 0.24252 0.94288 0.7171 0.0
C14 C 0.25928 0.07053 0.71724 0.0
O15 O 0.20498 0.06948 0.71319 0.0
C16 C 0.20911 0.85951 0.67804 0.0
O17 O 0.16397 0.86281 0.69196 0.0
C18 C 0.31062 0.91678 0.76327 0.0
O19 O 0.31553 0.97229 0.76342 0.0
O20 O 0.27936 0.89346 0.74699 0.0
O21 O 0.28655 1.02396 0.71712 0.0
O22 O 0.15426 0.96159 0.72277 0.0
C23 C 0.134 0.98287 0.74259 0.0
O24 O 0.16693 0.99096 0.76189 0.0
O25 O 0.2509 0.89073 0.68347 0.0
Mg26 Mg 0.94449 0.79688 0.3105 0.0
C27 C 0.06778 0.77522 0.3065 0.0
O28 O 0.06435 0.82762 0.29842 0.0
C29 C 0.85356 0.82911 0.34621 0.0
O30 O 0.85561 0.87398 0.33183 0.0
C31 C 0.857 0.7576 0.27183 0.0
O32 O 0.8227 0.79082 0.28434 0.0
O33 O 0.90842 0.75567 0.27799 0.0
O34 O 0.02376 0.75175 0.31493 0.0
O35 O 0.96453 0.88643 0.30588 0.0
C36 C 0.98229 0.91103 0.32547 0.0
O37 O 0.98476 0.88188 0.34623 0.0
O38 O 0.88681 0.78787 0.34186 0.0
Mg39 Mg 0.79967 0.11232 0.71463 0.0
C40 C 0.76855 0.98837 0.71745 0.0
O41 O 0.82323 0.98411 0.71977 0.0
C42 C 0.83672 0.19944 0.67817 0.0
O43 O 0.88064 0.19479 0.69282 0.0
C44 C 0.73958 0.13765 0.76292 0.0
O45 O 0.73539 0.08208 0.76298 0.0
O46 O 0.76785 0.16136 0.74584 0.0
O47 O 0.74711 0.03678 0.71286 0.0
O48 O 0.886 0.08507 0.71961 0.0
C49 C 0.90939 0.07664 0.74054 0.0
O50 O 0.88145 0.08737 0.76108 0.0
O51 O 0.79446 0.16794 0.68221 0.0
Mg52 Mg 0.10641 0.29861 0.96504 0.0
C53 C 0.9837 0.27647 0.96936 0.0
O54 O 0.9871 0.32833 0.97826 0.0
C55 C 0.19648 0.33065 0.92901 0.0
O56 O 0.1934 0.37639 0.94301 0.0
C57 C 0.19383 0.25849 1.00343 0.0
O58 O 0.22826 0.29084 0.99081 0.0
O59 O 0.14229 0.25743 0.99746 0.0
O60 O 0.02758 0.25344 0.96034 0.0
O61 O 0.08569 0.38814 0.97002 0.0
C62 C 0.06633 0.41234 0.9507 0.0
O63 O 0.06284 0.38285 0.92995 0.0
O64 O 0.16424 0.28914 0.93372 0.0
Mg65 Mg 0.30551 0.9448 0.05786 0.0
C66 C 0.28814 0.07216 0.05833 0.0
O67 O 0.34235 0.07065 0.06263 0.0
C68 C 0.34142 0.8678 0.09926 0.0
O69 O 0.38911 0.87635 0.0877 0.0
C70 C 0.23941 0.91793 1.01112 0.0
O71 O 0.23484 0.97349 1.01065 0.0
O72 O 0.26953 0.89492 0.02785 0.0
O73 O 0.26089 1.02579 0.05799 0.0
O74 O 0.39312 0.96448 0.05189 0.0
C75 C 0.41323 0.98248 0.03153 0.0
O76 O 0.38078 0.98574 1.01181 0.0
O77 O 0.29763 0.89333 0.09152 0.0
Mg78 Mg 0.94249 0.75659 0.96637 0.0
C79 C 0.06512 0.77967 0.97017 0.0
O80 O 0.06224 0.72799 0.97909 0.0
C81 C 0.85079 0.72284 0.93131 0.0
O82 O 0.85435 0.67807 0.94571 0.0
C83 C 0.85562 0.79829 1.00462 0.0
O84 O 0.82087 0.76642 0.99177 0.0
O85 O 0.90729 0.79836 0.99891 0.0
O86 O 1.02087 0.80224 0.96129 0.0
O87 O 0.96407 0.66729 0.9711 0.0
C88 C 0.98264 0.64318 0.95155 0.0
O89 O 0.98496 0.67269 0.93089 0.0
O90 O 0.8834 0.76453 0.93539 0.0
Mg91 Mg 0.74493 0.1144 0.05795 0.0
C92 C 0.76232 0.98716 0.05876 0.0
O93 O 0.70815 0.98897 0.06305 0.0
C94 C 0.70996 0.19705 0.09719 0.0
O95 O 0.66427 0.19226 0.08367 0.0
C96 C 0.80989 0.13994 1.01096 0.0
O97 O 0.81421 0.08435 1.0105 0.0
O98 O 0.78034 0.16344 0.02781 0.0
O99 O 0.78968 0.03346 0.05828 0.0
O100 O 0.6573 0.0943 0.0521 0.0
C101 C 0.63675 0.07686 0.03164 0.0
O102 O 0.66867 0.07447 1.01177 0.0
O103 O 0.7526 0.16708 0.09144 0.0
Mg104 Mg 0.6073 0.75259 0.8113 0.0
C105 C 0.48478 0.77842 0.8052 0.0
O106 O 0.48653 0.72522 0.79788 0.0
C107 C 0.6931 0.71966 0.8493 0.0
O108 O 0.69166 0.67422 0.83508 0.0
C109 C 0.63053 0.82158 0.76505 0.0
O110 O 0.57622 0.83011 0.76677 0.0
O111 O 0.6542 0.78775 0.78023 0.0
O112 O 0.52939 0.80115 0.81357 0.0
O113 O 0.58484 0.6635 0.80682 0.0
C114 C 0.5642 0.64029 0.82605 0.0
O115 O 0.55999 0.67047 0.84658 0.0
O116 O 0.66086 0.76119 0.84418 0.0
Mg117 Mg 0.74463 0.44498 0.21658 0.0
C118 C 0.76197 0.57257 0.216 0.0
O119 O 0.7078 0.57174 0.21158 0.0
C120 C 0.71007 0.36175 0.17763 0.0
O121 O 0.66503 0.36556 0.19159 0.0
C122 C 0.81327 0.41895 0.26261 0.0
O123 O 0.81842 0.47443 0.26267 0.0
O124 O 0.78177 0.39564 0.24642 0.0
O125 O 0.78894 0.52585 0.21633 0.0
O126 O 0.65658 0.46409 0.22261 0.0
C127 C 0.63727 0.48733 0.24221 0.0
O128 O 0.67117 0.49735 0.261 0.0
O129 O 0.75218 0.39259 0.18299 0.0
Mg130 Mg 0.44332 0.29563 0.8109 0.0
C131 C 0.56647 0.27365 0.80659 0.0
O132 O 0.56302 0.32601 0.79846 0.0
C133 C 0.3531 0.32854 0.84681 0.0
O134 O 0.35534 0.37338 0.83242 0.0
C135 C 0.35498 0.25567 0.77282 0.0
O136 O 0.32084 0.28827 0.78571 0.0
O137 O 0.40669 0.25437 0.77852 0.0
O138 O 0.52253 0.25029 0.81516 0.0
O139 O 0.46357 0.38512 0.8062 0.0
C140 C 0.48186 0.40958 0.82572 0.0
O141 O 0.48474 0.38032 0.84644 0.0
O142 O 0.38597 0.28702 0.8424 0.0
Mg143 Mg 0.30168 0.61409 0.21493 0.0
C144 C 0.27117 0.49014 0.21823 0.0
O145 O 0.32576 0.48644 0.22105 0.0
C146 C 0.33789 0.7015 0.17846 0.0
O147 O 0.38182 0.69733 0.19313 0.0
C148 C 0.24151 0.63942 0.26321 0.0
O149 O 0.23738 0.58384 0.26329 0.0
O150 O 0.26981 0.66311 0.24613 0.0
O151 O 0.24953 0.53824 0.21322 0.0
O152 O 0.38817 0.5872 0.21972 0.0
C153 C 0.41261 0.581 0.24057 0.0
O154 O 0.38577 0.59406 0.26115 0.0
O155 O 0.29595 0.66957 0.18249 0.0
Mg156 Mg 0.60743 0.7974 0.46462 0.0
C157 C 0.48491 0.77506 0.46937 0.0
O158 O 0.48855 0.82675 0.47843 0.0
C159 C 0.6969 0.83002 0.4284 0.0
O160 O 0.69358 0.87575 0.44239 0.0
C161 C 0.6953 0.75693 0.50275 0.0
O162 O 0.72968 0.78903 0.48998 0.0
O163 O 0.64364 0.75614 0.49695 0.0
O164 O 0.52858 0.75216 0.46008 0.0
O165 O 0.5866 0.88688 0.46969 0.0
C166 C 0.5667 0.911 0.45046 0.0
O167 O 0.56274 0.88144 0.42975 0.0
O168 O 0.66503 0.78825 0.43318 0.0
Mg169 Mg 0.80682 0.44335 0.55769 0.0
C170 C 0.7897 0.57075 0.55775 0.0
O171 O 0.84394 0.56918 0.56196 0.0
C172 C 0.84184 0.36578 0.599 0.0
O173 O 0.88954 0.37363 0.58735 0.0
C174 C 0.74109 0.41636 0.51086 0.0
O175 O 0.7366 0.47193 0.51034 0.0
O176 O 0.77108 0.39339 0.52765 0.0
O177 O 0.76233 0.52444 0.55762 0.0
O178 O 0.89456 0.46278 0.55192 0.0
C179 C 0.91509 0.48002 0.53152 0.0
O180 O 0.88303 0.48256 0.51166 0.0
O181 O 0.79836 0.392 0.59135 0.0
Mg182 Mg 0.44378 0.2555 0.4665 0.0
C183 C 0.56655 0.27826 0.47005 0.0
O184 O 0.56371 0.22649 0.47889 0.0
C185 C 0.35163 0.22229 0.43155 0.0
O186 O 0.35496 0.17752 0.44597 0.0
C187 C 0.35728 0.29695 0.50497 0.0
O188 O 0.32248 0.26484 0.49226 0.0
O189 O 0.40884 0.29727 0.49909 0.0
O190 O 0.52222 0.30097 0.46133 0.0
O191 O 0.46515 0.16612 0.47115 0.0
C192 C 0.48327 0.14193 0.45154 0.0
O193 O 0.48529 0.17139 0.43086 0.0
O194 O 0.38456 0.26375 0.43558 0.0
Mg195 Mg 0.24636 0.61288 0.5582 0.0
C196 C 0.26407 0.48569 0.55921 0.0
O197 O 0.20994 0.48738 0.56361 0.0
C198 C 0.21072 0.69534 0.5974 0.0
O199 O 0.16518 0.69036 0.5838 0.0
C200 C 0.31141 0.63847 0.51123 0.0
O201 O 0.31571 0.58288 0.51076 0.0
O202 O 0.28187 0.66196 0.52809 0.0
O203 O 0.29129 0.53206 0.5586 0.0
O204 O 0.15883 0.59252 0.55222 0.0
C205 C 0.13862 0.57438 0.5318 0.0
O206 O 0.17088 0.57136 0.51205 0.0
O207 O 0.25355 0.66558 0.59171 0.0
C208 C 0.22585 0.35248 0.2479 0.0
C209 C 0.1674 0.35959 0.24906 0.0
H210 H 0.30442 0.38761 0.23681 0.0
C211 C 0.14289 0.40632 0.23692 0.0
H212 H 0.24605 0.31674 0.25687 0.0
C213 C 0.17641 0.44727 0.22553 0.0
C214 C 0.23513 0.44213 0.22587 0.0
H215 H 0.09793 0.41298 0.23732 0.0
H216 H 0.15638 0.48423 0.21749 0.0
C217 C 0.25933 0.39318 0.23635 0.0
C218 C 0.38809 0.78843 0.7877 0.0
C219 C 0.43504 0.81356 0.79908 0.0
H220 H 0.31156 0.80129 0.76768 0.0
C221 C 0.43638 0.8729 0.80176 0.0
H222 H 0.38537 0.74279 0.78556 0.0
C223 C 0.39376 0.90653 0.79155 0.0
C224 C 0.34914 0.88146 0.77839 0.0
H225 H 0.47176 0.89359 0.81056 0.0
H226 H 0.39753 0.95225 0.79278 0.0
C227 C 0.34567 0.822 0.77743 0.0
C228 C 0.75497 0.67154 0.23305 0.0
C229 C 0.78839 0.62485 0.22597 0.0
H230 H 0.75038 0.75021 0.25308 0.0
C231 C 0.84603 0.62602 0.2314 0.0
H232 H 0.71041 0.67215 0.22912 0.0
C233 C 0.869 0.67105 0.245 0.0
C234 C 0.83473 0.71565 0.2537 0.0
H235 H 0.87302 0.59093 0.22612 0.0
H236 H 0.91312 0.66929 0.24977 0.0
C237 C 0.77784 0.71631 0.24687 0.0
C238 C 0.66297 0.26508 0.78893 0.0
C239 C 0.61696 0.23941 0.80066 0.0
H240 H 0.73831 0.25305 0.76801 0.0
C241 C 0.61683 0.18013 0.80344 0.0
H242 H 0.66482 0.31072 0.78675 0.0
C243 C 0.65928 0.14697 0.79273 0.0
C244 C 0.70248 0.1725 0.77898 0.0
H245 H 0.58224 0.15904 0.81254 0.0
H246 H 0.65619 0.10121 0.7939 0.0
C247 C 0.70521 0.232 0.77816 0.0
C248 C 0.29562 0.17099 0.04166 0.0
C249 C 0.26195 0.12477 0.0486 0.0
H250 H 0.30055 0.24962 0.02194 0.0
C251 C 0.20427 0.12677 0.04332 0.0
H252 H 0.34023 0.17097 0.04549 0.0
C253 C 0.18147 0.17216 0.02997 0.0
C254 C 0.21596 0.21627 0.02137 0.0
H255 H 0.1771 0.09206 0.04852 0.0
H256 H 0.13729 0.17105 0.02528 0.0
C257 C 0.27292 0.21611 0.02807 0.0
C258 C 0.20478 0.82292 0.99711 0.0
C259 C 0.20143 0.88236 0.99584 0.0
H260 H 0.16476 0.74376 0.9895 0.0
C261 C 0.1572 0.90722 0.98232 0.0
H262 H 0.23867 0.80236 1.00709 0.0
C263 C 0.11454 0.87351 0.97225 0.0
C264 C 0.11546 0.81435 0.97546 0.0
H265 H 0.15361 0.95291 0.98081 0.0
H266 H 0.07925 0.89413 0.9633 0.0
C267 C 0.16231 0.78929 0.987 0.0
C268 C 0.86853 0.88556 0.03088 0.0
C269 C 0.83381 0.84126 0.02243 0.0
H270 H 0.87328 0.96642 0.0491 0.0
C271 C 0.77687 0.84197 0.02906 0.0
H272 H 0.91269 0.88628 0.02622 0.0
C273 C 0.75441 0.88773 0.04245 0.0
C274 C 0.78829 0.93408 0.04924 0.0
H275 H 0.74907 0.80834 0.02303 0.0
H276 H 0.70981 0.88809 0.04624 0.0
C277 C 0.84596 0.93161 0.04402 0.0
C278 C 0.89128 0.14967 0.98183 0.0
C279 C 0.84758 0.17501 0.99553 0.0
H280 H 0.96875 0.162 0.96249 0.0
C281 C 0.84458 0.23449 0.99684 0.0
H282 H 0.89459 0.10394 0.98028 0.0
C283 C 0.88693 0.26771 0.98657 0.0
C284 C 0.93332 0.24219 0.97484 0.0
H285 H 0.81108 0.25542 1.00696 0.0
H286 H 0.8848 0.3133 0.9891 0.0
C287 C 0.93383 0.18297 0.97159 0.0
C288 C 0.64027 0.90548 0.73689 0.0
C289 C 0.66481 0.85851 0.74884 0.0
H290 H 0.65372 0.98336 0.71743 0.0
C291 C 0.72316 0.85092 0.74728 0.0
H292 H 0.59538 0.91249 0.73759 0.0
C293 C 0.75657 0.89139 0.73554 0.0
C294 C 0.73241 0.94058 0.72526 0.0
H295 H 0.74337 0.81498 0.75609 0.0
H296 H 0.80163 0.88546 0.7357 0.0
C297 C 0.67373 0.94619 0.7253 0.0
C298 C 0.89011 0.29043 0.28727 0.0
C299 C 0.93713 0.31542 0.29865 0.0
H300 H 0.81372 0.3035 0.26717 0.0
C301 C 0.93877 0.37477 0.30122 0.0
H302 H 0.88717 0.24479 0.28521 0.0
C303 C 0.89636 0.40853 0.29091 0.0
C304 C 0.85165 0.38357 0.27777 0.0
H305 H 0.97422 0.39536 0.31002 0.0
H306 H 0.90035 0.45424 0.29207 0.0
C307 C 0.8479 0.32412 0.2769 0.0
C308 C 0.25228 0.16923 0.73456 0.0
C309 C 0.28574 0.12279 0.72721 0.0
H310 H 0.24786 0.24774 0.75473 0.0
C311 C 0.34352 0.12422 0.73232 0.0
H312 H 0.20761 0.16965 0.73089 0.0
C313 C 0.36666 0.16928 0.74585 0.0
C314 C 0.33242 0.21366 0.75479 0.0
H315 H 0.37053 0.08931 0.72683 0.0
H316 H 0.41092 0.16774 0.75036 0.0
C317 C 0.27532 0.21402 0.74831 0.0
C318 C 0.11837 0.6818 0.3035 0.0
C319 C 0.11839 0.74107 0.30067 0.0
H320 H 0.15796 0.60294 0.2941 0.0
C321 C 0.16445 0.7668 0.289 0.0
H322 H 0.08375 0.66067 0.31256 0.0
C323 C 0.20684 0.73375 0.27833 0.0
C324 C 0.20423 0.67425 0.2792 0.0
H325 H 0.16622 0.81243 0.28678 0.0
H326 H 0.23999 0.75483 0.26822 0.0
C327 C 0.16098 0.64869 0.29289 0.0
C328 C 0.79725 0.66939 0.54087 0.0
C329 C 0.76354 0.62331 0.54795 0.0
H330 H 0.80218 0.74787 0.52104 0.0
C331 C 0.70582 0.62539 0.54275 0.0
H332 H 0.84188 0.66931 0.54463 0.0
C333 C 0.68299 0.67074 0.52937 0.0
C334 C 0.71751 0.71472 0.52067 0.0
H335 H 0.67862 0.59077 0.54805 0.0
H336 H 0.63877 0.6697 0.52477 0.0
C337 C 0.77453 0.71446 0.52726 0.0
C338 C 0.65889 0.40568 0.48207 0.0
C339 C 0.70309 0.3808 0.49559 0.0
H340 H 0.58089 0.39265 0.46308 0.0
C341 C 0.70634 0.32136 0.49691 0.0
H342 H 0.65537 0.45136 0.48052 0.0
C343 C 0.6638 0.28776 0.48684 0.0
C344 C 0.61697 0.31286 0.4753 0.0
H345 H 0.7402 0.30078 0.5069 0.0
H346 H 0.66617 0.24224 0.48938 0.0
C347 C 0.61615 0.372 0.47204 0.0
C348 C 0.25625 0.38617 0.54299 0.0
C349 C 0.29008 0.43264 0.54969 0.0
H350 H 0.25091 0.30672 0.52363 0.0
C351 C 0.34769 0.43032 0.54433 0.0
H352 H 0.2117 0.38642 0.54688 0.0
C353 C 0.37024 0.38431 0.53116 0.0
C354 C 0.33555 0.33989 0.52281 0.0
H355 H 0.37497 0.46523 0.54934 0.0
H356 H 0.41435 0.38515 0.5264 0.0
C357 C 0.27869 0.34044 0.52958 0.0
C358 C 0.38834 0.76626 0.48678 0.0
C359 C 0.43459 0.74075 0.47494 0.0
H360 H 0.31267 0.75396 0.5073 0.0
C361 C 0.43506 0.68154 0.47167 0.0
H362 H 0.38625 0.81185 0.48933 0.0
C363 C 0.3926 0.64823 0.48198 0.0
C364 C 0.34903 0.67356 0.49577 0.0
H365 H 0.46989 0.66058 0.4625 0.0
H366 H 0.39588 0.6025 0.48041 0.0
C367 C 0.34607 0.73304 0.49711 0.0
C368 C 0.29027 0.17143 0.40123 0.0
C369 C 0.31098 0.22293 0.41069 0.0
H370 H 0.23765 0.13035 0.37447 0.0
C371 C 0.29203 0.2741 0.40018 0.0
H372 H 0.3041 0.13127 0.40887 0.0
C373 C 0.25284 0.2736 0.38067 0.0
C374 C 0.233 0.22187 0.37098 0.0
H375 H 0.30706 0.31445 0.40719 0.0
H376 H 0.23894 0.31354 0.37285 0.0
C377 C 0.25224 0.17089 0.38147 0.0
C378 C 0.26228 0.75776 0.62804 0.0
C379 C 0.21164 0.73651 0.61835 0.0
H380 H 0.30141 0.81447 0.65422 0.0
C381 C 0.1608 0.75669 0.62823 0.0
H382 H 0.30213 0.74332 0.62068 0.0
C383 C 0.16041 0.79672 0.64745 0.0
C384 C 0.21081 0.81846 0.65705 0.0
H385 H 0.12104 0.74126 0.62122 0.0
H386 H 0.12035 0.8109 0.65469 0.0
C387 C 0.26186 0.79881 0.64708 0.0
C388 C 0.75658 0.77694 0.39734 0.0
C389 C 0.73656 0.82852 0.40723 0.0
H390 H 0.81045 0.7365 0.3705 0.0
C391 C 0.75554 0.87967 0.39696 0.0
H392 H 0.74286 0.73687 0.40497 0.0
C393 C 0.79322 0.87944 0.37712 0.0
C394 C 0.81384 0.82809 0.36736 0.0
H395 H 0.74081 0.92011 0.4041 0.0
H396 H 0.80668 0.91973 0.3696 0.0
C397 C 0.79544 0.77674 0.37774 0.0
C398 C 0.8878 0.26597 0.6502 0.0
C399 C 0.83689 0.2418 0.65781 0.0
H400 H 0.92912 0.32368 0.62582 0.0
C401 C 0.78691 0.2597 0.64626 0.0
H402 H 0.92709 0.25322 0.65868 0.0
C403 C 0.78799 0.3011 0.62755 0.0
C404 C 0.83918 0.32462 0.61978 0.0
H405 H 0.74696 0.24214 0.65183 0.0
H406 H 0.74894 0.31392 0.61889 0.0
C407 C 0.88897 0.30649 0.63133 0.0
C408 C 0.25583 0.37986 0.8977 0.0
C409 C 0.23627 0.32887 0.90789 0.0
H410 H 0.30739 0.41952 0.87037 0.0
C411 C 0.25575 0.27713 0.89794 0.0
H412 H 0.24154 0.42042 0.90488 0.0
C413 C 0.2946 0.27662 0.87834 0.0
C414 C 0.31353 0.32782 0.86801 0.0
H415 H 0.24158 0.23716 0.90552 0.0
H416 H 0.30915 0.23627 0.87105 0.0
C417 C 0.2935 0.37934 0.87785 0.0
C418 C 0.38833 0.7686 0.15052 0.0
C419 C 0.33767 0.74383 0.15809 0.0
H420 H 0.42908 0.82678 0.12616 0.0
C421 C 0.28753 0.76111 0.14649 0.0
H422 H 0.42772 0.75633 0.15904 0.0
C423 C 0.28822 0.80249 0.12777 0.0
C424 C 0.33916 0.82662 0.12004 0.0
H425 H 0.24777 0.74308 0.15202 0.0
H426 H 0.24906 0.81483 0.11907 0.0
C427 C 0.38911 0.8091 0.13164 0.0
C428 C 0.78998 0.6716 0.90089 0.0
C429 C 0.8102 0.72324 0.91042 0.0
H430 H 0.73772 0.63019 0.87409 0.0
C431 C 0.79077 0.7743 0.89998 0.0
H432 H 0.80419 0.63152 0.90848 0.0
C433 C 0.75156 0.77354 0.88047 0.0
C434 C 0.73219 0.72169 0.87072 0.0
H435 H 0.80542 0.81475 0.90704 0.0
H436 H 0.73726 0.81341 0.87271 0.0
C437 C 0.75194 0.67083 0.88113 0.0
C438 C 0.66067 0.2589 0.12804 0.0
C439 C 0.7113 0.23834 0.1181 0.0
H440 H 0.62079 0.31355 0.1545 0.0
C441 C 0.76216 0.25932 0.12767 0.0
H442 H 0.62076 0.24369 0.12111 0.0
C443 C 0.76216 0.30049 0.14665 0.0
C444 C 0.71132 0.32054 0.15669 0.0
H445 H 0.80185 0.24459 0.12026 0.0
H446 H 0.80186 0.31594 0.15371 0.0
C447 C 0.66069 0.29906 0.1472 0.0
C448 C 1.01096 0.99955 0.3476 0.0
C449 C 1.00221 0.97044 0.32508 0.0
H450 H 0.03745 0.07606 0.36545 0.0
C451 C 1.01446 0.99802 0.3026 0.0
H452 H 1.00191 0.97958 0.36524 0.0
C453 C 0.03562 0.05348 0.30273 0.0
C454 C 0.04417 0.0825 0.32533 0.0
H455 H 1.00843 0.97654 0.28495 0.0
H456 H 0.04481 0.07374 0.28516 0.0
C457 C 0.03137 0.05496 0.34772 0.0
C458 C 0.99118 0.03003 0.71973 0.0
C459 C 0.96653 0.05192 0.74149 0.0
H460 H 0.0626 0.99042 0.70311 0.0
C461 C 0.99671 0.04917 0.76394 0.0
H462 H 0.96897 0.03103 0.70215 0.0
C463 C 0.05088 1.02595 0.76449 0.0
C464 C 0.07559 1.00449 0.74264 0.0
H465 H 0.97879 0.06552 0.78104 0.0
H466 H 0.07348 1.02516 0.78198 0.0
C467 C 0.04487 1.00637 0.72032 0.0
C468 C 0.0345 0.50015 0.92904 0.0
C469 C 0.04585 0.47171 0.9514 0.0
H470 H 1.00575 0.57617 0.91162 0.0
C471 C 0.03578 0.49997 0.97407 0.0
H472 H 0.04179 0.47965 0.91126 0.0
C473 C 1.01435 0.55548 0.97428 0.0
C474 C 1.00332 0.58387 0.95183 0.0
H475 H 0.04383 0.47902 0.99161 0.0
H476 H 1.00699 0.57632 0.99198 0.0
C477 C 1.01379 0.55558 0.92925 0.0
C478 C 0.49872 1.01701 0.0536 0.0
C479 C 0.47084 1.00555 0.0311 0.0
H480 H 0.57216 0.04923 0.07137 0.0
C481 C 0.49771 1.01839 1.00857 0.0
H482 H 0.47911 1.00807 0.07131 0.0
C483 C 0.55167 0.0418 1.0086 0.0
C484 C 0.5792 0.05363 0.03117 0.0
H485 H 0.47719 1.01015 0.99094 0.0
H486 H 0.57164 0.05088 0.99099 0.0
C487 C 0.55201 0.04109 0.05364 0.0
C488 C 0.51114 0.49793 0.84783 0.0
C489 C 0.50178 0.46899 0.82531 0.0
H490 H 0.538 0.57435 0.86565 0.0
C491 C 0.51339 0.49676 0.80281 0.0
H492 H 0.5026 0.47781 0.86549 0.0
C493 C 0.53448 0.55224 0.80291 0.0
C494 C 0.54358 0.58111 0.8255 0.0
H495 H 0.50688 0.4754 0.78516 0.0
H496 H 0.54313 0.57266 0.78532 0.0
C497 C 0.53146 0.55337 0.84792 0.0
C498 C 0.55541 0.53298 0.26404 0.0
C499 C 0.57887 0.50895 0.24243 0.0
H500 H 0.48429 0.57456 0.28049 0.0
C501 C 0.54687 0.50823 0.22045 0.0
H502 H 0.57901 0.53425 0.28126 0.0
C503 C 0.49316 0.53184 0.21993 0.0
C504 C 0.46977 0.5563 0.24144 0.0
H505 H 0.56362 0.49023 0.20343 0.0
H506 H 0.46995 0.53079 0.2026 0.0
C507 C 0.50122 0.55617 0.26359 0.0
C508 C 0.51539 0.05427 0.47418 0.0
C509 C 0.50382 0.08257 0.45176 0.0
H510 H 0.54527 0.97786 0.49143 0.0
C511 C 0.51365 0.05416 0.42915 0.0
H512 H 0.50854 0.0752 0.4919 0.0
C513 C 0.53428 0.9987 0.42889 0.0
C514 C 0.54622 0.97036 0.45122 0.0
H515 H 0.50517 0.07468 0.41155 0.0
H516 H 0.54109 0.97812 0.41109 0.0
C517 C 0.53676 0.99873 0.47391 0.0
C518 C 1.00017 0.51534 0.55367 0.0
C519 C 0.97272 0.50306 0.53115 0.0
H520 H 0.07328 0.5482 0.57148 0.0
C521 C 1.00002 0.51507 0.50863 0.0
H522 H 0.98022 0.50704 0.57136 0.0
C523 C 0.05398 0.53848 0.5087 0.0
C524 C 0.08108 0.55113 0.53128 0.0
H525 H 0.97984 0.50619 0.49098 0.0
H526 H 0.07428 0.54691 0.4911 0.0
C527 C 0.05347 0.53942 0.55373 0.0
loop_
_geom_bond_atom_site_label_1
_geom_bond_atom_site_label_2
_geom_bond_distance
_geom_bond_site_symmetry_2
_ccdc_geom_bond_type
Mg0 O7 2.141 . S
Mg0 O8 2.048 . S
Mg0 O9 2.048 . S
Mg0 O12 2.141 . S
C1 O2 1.313 1_455 S
C1 O8 1.195 . S
O2 C1 1.313 1_655 S
C3 O4 1.245 . S
C3 O12 1.289 . S
O4 C3 1.245 . S
C5 O6 1.245 . S
C5 O7 1.289 . S
O6 C5 1.245 . S
O7 Mg0 2.141 . S
O7 C5 1.289 . S
O8 Mg0 2.048 . S
O8 C1 1.195 . S
O9 Mg0 2.048 . S
O9 C10 1.195 . S
C10 O9 1.195 . S
C10 O11 1.313 . S
O11 C10 1.313 . S
O12 Mg0 2.141 . S
O12 C3 1.289 . S
Mg13 O20 2.141 . S
Mg13 O21 2.048 . S
Mg13 O22 2.048 . S
Mg13 O25 2.141 . S
C14 O15 1.313 . S
C14 O21 1.195 . S
O15 C14 1.313 . S
C16 O17 1.245 . S
C16 O25 1.289 . S
O17 C16 1.245 . S
C18 O19 1.245 . S
C18 O20 1.289 . S
O19 C18 1.245 . S
O20 Mg13 2.141 . S
O20 C18 1.289 . S
O21 Mg13 2.048 . S
O21 C14 1.195 . S
O22 Mg13 2.048 . S
O22 C23 1.195 . S
C23 O22 1.195 . S
C23 O24 1.313 . S
O24 C23 1.313 . S
O25 Mg13 2.141 . S
O25 C16 1.289 . S
Mg26 O33 2.141 . S
Mg26 O34 2.048 . S
Mg26 O35 2.048 . S
Mg26 O38 2.141 . S
C27 O28 1.313 1_655 S
C27 O34 1.195 . S
O28 C27 1.313 1_455 S
C29 O30 1.245 . S
C29 O38 1.289 . S
O30 C29 1.245 . S
C31 O32 1.245 . S
C31 O33 1.289 . S
O32 C31 1.245 . S
O33 Mg26 2.141 . S
O33 C31 1.289 . S
O34 Mg26 2.048 . S
O34 C27 1.195 . S
O35 Mg26 2.048 . S
O35 C36 1.195 . S
C36 O35 1.195 . S
C36 O37 1.313 . S
O37 C36 1.313 . S
O38 Mg26 2.141 . S
O38 C29 1.289 . S
Mg39 O46 2.141 . S
Mg39 O47 2.048 . S
Mg39 O48 2.048 . S
Mg39 O51 2.141 . S
C40 O41 1.313 . S
C40 O47 1.195 . S
O41 C40 1.313 . S
C42 O43 1.245 . S
C42 O51 1.289 . S
O43 C42 1.245 . S
C44 O45 1.245 . S
C44 O46 1.289 . S
O45 C44 1.245 . S
O46 Mg39 2.141 . S
O46 C44 1.289 . S
O47 Mg39 2.048 . S
O47 C40 1.195 . S
O48 Mg39 2.048 . S
O48 C49 1.195 . S
C49 O48 1.195 . S
C49 O50 1.313 . S
O50 C49 1.313 . S
O51 Mg39 2.141 . S
O51 C42 1.289 . S
Mg52 O59 2.141 . S
Mg52 O60 2.048 . S
Mg52 O61 2.048 . S
Mg52 O64 2.141 . S
C53 O54 1.313 1_455 S
C53 O60 1.195 . S
O54 C53 1.313 1_655 S
C55 O56 1.245 . S
C55 O64 1.289 . S
O56 C55 1.245 . S
C57 O58 1.245 . S
C57 O59 1.289 . S
O58 C57 1.245 . S
O59 Mg52 2.141 . S
O59 C57 1.289 . S
O60 Mg52 2.048 . S
O60 C53 1.195 . S
O61 Mg52 2.048 . S
O61 C62 1.195 . S
C62 O61 1.195 . S
C62 O63 1.313 . S
O63 C62 1.313 . S
O64 Mg52 2.141 . S
O64 C55 1.289 . S
Mg65 O72 2.141 . S
Mg65 O73 2.048 . S
Mg65 O74 2.048 . S
Mg65 O77 2.141 . S
C66 O67 1.313 1_554 S
C66 O73 1.195 . S
O67 C66 1.313 1_556 S
C68 O69 1.245 . S
C68 O77 1.289 . S
O69 C68 1.245 . S
C70 O71 1.245 . S
C70 O72 1.289 . S
O71 C70 1.245 . S
O72 Mg65 2.141 . S
O72 C70 1.289 . S
O73 Mg65 2.048 . S
O73 C66 1.195 . S
O74 Mg65 2.048 . S
O74 C75 1.195 . S
C75 O74 1.195 . S
C75 O76 1.313 . S
O76 C75 1.313 . S
O77 Mg65 2.141 . S
O77 C68 1.289 . S
Mg78 O85 2.141 . S
Mg78 O86 2.048 . S
Mg78 O87 2.048 . S
Mg78 O90 2.141 . S
C79 O80 1.313 1_655 S
C79 O86 1.195 . S
O80 C79 1.313 1_455 S
C81 O82 1.245 . S
C81 O90 1.289 . S
O82 C81 1.245 . S
C83 O84 1.245 . S
C83 O85 1.289 . S
O84 C83 1.245 . S
O85 Mg78 2.141 . S
O85 C83 1.289 . S
O86 Mg78 2.048 . S
O86 C79 1.195 . S
O87 Mg78 2.048 . S
O87 C88 1.195 . S
C88 O87 1.195 . S
C88 O89 1.313 . S
O89 C88 1.313 . S
O90 Mg78 2.141 . S
O90 C81 1.289 . S
Mg91 O98 2.141 . S
Mg91 O99 2.048 . S
Mg91 O100 2.048 . S
Mg91 O103 2.141 . S
C92 O93 1.313 1_554 S
C92 O99 1.195 . S
O93 C92 1.313 1_556 S
C94 O95 1.245 . S
C94 O103 1.289 . S
O95 C94 1.245 . S
C96 O97 1.245 . S
C96 O98 1.289 . S
O97 C96 1.245 . S
O98 Mg91 2.141 . S
O98 C96 1.289 . S
O99 Mg91 2.048 . S
O99 C92 1.195 . S
O100 Mg91 2.048 . S
O100 C101 1.195 . S
C101 O100 1.195 . S
C101 O102 1.313 . S
O102 C101 1.313 . S
O103 Mg91 2.141 . S
O103 C94 1.289 . S
Mg104 O111 2.141 . S
Mg104 O112 2.048 . S
Mg104 O113 2.048 . S
Mg104 O116 2.141 . S
C105 O106 1.313 . S
C105 O112 1.195 . S
O106 C105 1.313 . S
C107 O108 1.245 . S
C107 O116 1.289 . S
O108 C107 1.245 . S
C109 O110 1.245 . S
C109 O111 1.289 . S
O110 C109 1.245 . S
O111 Mg104 2.141 . S
O111 C109 1.289 . S
O112 Mg104 2.048 . S
O112 C105 1.195 . S
O113 Mg104 2.048 . S
O113 C114 1.195 . S
C114 O113 1.195 . S
C114 O115 1.313 . S
O115 C114 1.313 . S
O116 Mg104 2.141 . S
O116 C107 1.289 . S
Mg117 O124 2.141 . S
Mg117 O125 2.048 . S
Mg117 O126 2.048 . S
Mg117 O129 2.141 . S
C118 O119 1.313 . S
C118 O125 1.195 . S
O119 C118 1.313 . S
C120 O121 1.245 . S
C120 O129 1.289 . S
O121 C120 1.245 . S
C122 O123 1.245 . S
C122 O124 1.289 . S
O123 C122 1.245 . S
O124 Mg117 2.141 . S
O124 C122 1.289 . S
O125 Mg117 2.048 . S
O125 C118 1.195 . S
O126 Mg117 2.048 . S
O126 C127 1.195 . S
C127 O126 1.195 . S
C127 O128 1.313 . S
O128 C127 1.313 . S
O129 Mg117 2.141 . S
O129 C120 1.289 . S
Mg130 O137 2.141 . S
Mg130 O138 2.048 . S
Mg130 O139 2.048 . S
Mg130 O142 2.141 . S
C131 O132 1.313 . S
C131 O138 1.195 . S
O132 C131 1.313 . S
C133 O134 1.245 . S
C133 O142 1.289 . S
O134 C133 1.245 . S
C135 O136 1.245 . S
C135 O137 1.289 . S
O136 C135 1.245 . S
O137 Mg130 2.141 . S
O137 C135 1.289 . S
O138 Mg130 2.048 . S
O138 C131 1.195 . S
O139 Mg130 2.048 . S
O139 C140 1.195 . S
C140 O139 1.195 . S
C140 O141 1.313 . S
O141 C140 1.313 . S
O142 Mg130 2.141 . S
O142 C133 1.289 . S
Mg143 O150 2.141 . S
Mg143 O151 2.048 . S
Mg143 O152 2.048 . S
Mg143 O155 2.141 . S
C144 O145 1.313 . S
C144 O151 1.195 . S
O145 C144 1.313 . S
C146 O147 1.245 . S
C146 O155 1.289 . S
O147 C146 1.245 . S
C148 O149 1.245 . S
C148 O150 1.289 . S
O149 C148 1.245 . S
O150 Mg143 2.141 . S
O150 C148 1.289 . S
O151 Mg143 2.048 . S
O151 C144 1.195 . S
O152 Mg143 2.048 . S
O152 C153 1.195 . S
C153 O152 1.195 . S
C153 O154 1.313 . S
O154 C153 1.313 . S
O155 Mg143 2.141 . S
O155 C146 1.289 . S
Mg156 O163 2.141 . S
Mg156 O164 2.048 . S
Mg156 O165 2.048 . S
Mg156 O168 2.141 . S
C157 O158 1.313 . S
C157 O164 1.195 . S
O158 C157 1.313 . S
C159 O160 1.245 . S
C159 O168 1.289 . S
O160 C159 1.245 . S
C161 O162 1.245 . S
C161 O163 1.289 . S
O162 C161 1.245 . S
O163 Mg156 2.141 . S
O163 C161 1.289 . S
O164 Mg156 2.048 . S
O164 C157 1.195 . S
O165 Mg156 2.048 . S
O165 C166 1.195 . S
C166 O165 1.195 . S
C166 O167 1.313 . S
O167 C166 1.313 . S
O168 Mg156 2.141 . S
O168 C159 1.289 . S
Mg169 O176 2.141 . S
Mg169 O177 2.048 . S
Mg169 O178 2.048 . S
Mg169 O181 2.141 . S
C170 O171 1.313 . S
C170 O177 1.195 . S
O171 C170 1.313 . S
C172 O173 1.245 . S
C172 O181 1.289 . S
O173 C172 1.245 . S
C174 O175 1.245 . S
C174 O176 1.289 . S
O175 C174 1.245 . S
O176 Mg169 2.141 . S
O176 C174 1.289 . S
O177 Mg169 2.048 . S
O177 C170 1.195 . S
O178 Mg169 2.048 . S
O178 C179 1.195 . S
C179 O178 1.195 . S
C179 O180 1.313 . S
O180 C179 1.313 . S
O181 Mg169 2.141 . S
O181 C172 1.289 . S
Mg182 O189 2.141 . S
Mg182 O190 2.048 . S
Mg182 O191 2.048 . S
Mg182 O194 2.141 . S
C183 O184 1.313 . S
C183 O190 1.195 . S
O184 C183 1.313 . S
C185 O186 1.245 . S
C185 O194 1.289 . S
O186 C185 1.245 . S
C187 O188 1.245 . S
C187 O189 1.289 . S
O188 C187 1.245 . S
O189 Mg182 2.141 . S
O189 C187 1.289 . S
O190 Mg182 2.048 . S
O190 C183 1.195 . S
O191 Mg182 2.048 . S
O191 C192 1.195 . S
C192 O191 1.195 . S
C192 O193 1.313 . S
O193 C192 1.313 . S
O194 Mg182 2.141 . S
O194 C185 1.289 . S
Mg195 O202 2.141 . S
Mg195 O203 2.048 . S
Mg195 O204 2.048 . S
Mg195 O207 2.141 . S
C196 O197 1.313 . S
C196 O203 1.195 . S
O197 C196 1.313 . S
C198 O199 1.245 . S
C198 O207 1.289 . S
O199 C198 1.245 . S
C200 O201 1.245 . S
C200 O202 1.289 . S
O201 C200 1.245 . S
O202 Mg195 2.141 . S
O202 C200 1.289 . S
O203 Mg195 2.048 . S
O203 C196 1.195 . S
O204 Mg195 2.048 . S
O204 C205 1.195 . S
C205 O204 1.195 . S
C205 O206 1.313 . S
O206 C205 1.313 . S
O207 Mg195 2.141 . S
O207 C198 1.289 . S
C208 C209 1.387 . S
C208 H212 0.950 . S
C208 C217 1.390 . S
C209 C208 1.387 . S
C209 C211 1.387 . S
H210 C217 0.950 . S
C211 C209 1.387 . S
C211 C213 1.390 . S
C211 H215 0.950 . S
H212 C208 0.950 . S
C213 C211 1.390 . S
C213 C214 1.387 . S
C213 H216 0.950 . S
C214 C213 1.387 . S
C214 C217 1.387 . S
H215 C211 0.950 . S
H216 C213 0.950 . S
C217 C208 1.390 . S
C217 H210 0.950 . S
C217 C214 1.387 . S
C218 C219 1.387 . S
C218 H222 0.950 . S
C218 C227 1.390 . S
C219 C218 1.387 . S
C219 C221 1.387 . S
H220 C227 0.950 . S
C221 C219 1.387 . S
C221 C223 1.390 . S
C221 H225 0.950 . S
H222 C218 0.950 . S
C223 C221 1.390 . S
C223 C224 1.387 . S
C223 H226 0.950 . S
C224 C223 1.387 . S
C224 C227 1.387 . S
H225 C221 0.950 . S
H226 C223 0.950 . S
C227 C218 1.390 . S
C227 H220 0.950 . S
C227 C224 1.387 . S
C228 C229 1.387 . S
C228 H232 0.950 . S
C228 C237 1.390 . S
C229 C228 1.387 . S
C229 C231 1.387 . S
H230 C237 0.950 . S
C231 C229 1.387 . S
C231 C233 1.390 . S
C231 H235 0.950 . S
H232 C228 0.950 . S
C233 C231 1.390 . S
C233 C234 1.387 . S
C233 H236 0.950 . S
C234 C233 1.387 . S
C234 C237 1.387 . S
H235 C231 0.950 . S
H236 C233 0.950 . S
C237 C228 1.390 . S
C237 H230 0.950 . S
C237 C234 1.387 . S
C238 C239 1.387 . S
C238 H242 0.950 . S
C238 C247 1.390 . S
C239 C238 1.387 . S
C239 C241 1.387 . S
H240 C247 0.950 . S
C241 C239 1.387 . S
C241 C243 1.390 . S
C241 H245 0.950 . S
H242 C238 0.950 . S
C243 C241 1.390 . S
C243 C244 1.387 . S
C243 H246 0.950 . S
C244 C243 1.387 . S
C244 C247 1.387 . S
H245 C241 0.950 . S
H246 C243 0.950 . S
C247 C238 1.390 . S
C247 H240 0.950 . S
C247 C244 1.387 . S
C248 C249 1.387 . S
C248 H252 0.950 . S
C248 C257 1.390 . S
C249 C248 1.387 . S
C249 C251 1.387 1_556 S
H250 C257 0.950 . S
C251 C249 1.387 1_554 S
C251 C253 1.390 . S
C251 H255 0.950 . S
H252 C248 0.950 . S
C253 C251 1.390 . S
C253 C254 1.387 1_554 S
C253 H256 0.950 . S
C254 C253 1.387 1_556 S
C254 C257 1.387 . S
H255 C251 0.950 . S
H256 C253 0.950 . S
C257 C248 1.390 . S
C257 H250 0.950 . S
C257 C254 1.387 . S
C258 C259 1.387 . S
C258 H262 0.950 . S
C258 C267 1.390 . S
C259 C258 1.387 . S
C259 C261 1.387 . S
H260 C267 0.950 . S
C261 C259 1.387 . S
C261 C263 1.390 1_554 S
C261 H265 0.950 1_554 S
H262 C258 0.950 . S
C263 C261 1.390 1_556 S
C263 C264 1.387 1_556 S
C263 H266 0.950 . S
C264 C263 1.387 1_554 S
C264 C267 1.387 . S
H265 C261 0.950 1_556 S
H266 C263 0.950 . S
C267 C258 1.390 . S
C267 H260 0.950 . S
C267 C264 1.387 . S
C268 C269 1.387 1_554 S
C268 H272 0.950 . S
C268 C277 1.390 . S
C269 C268 1.387 1_556 S
C269 C271 1.387 . S
H270 C277 0.950 . S
C271 C269 1.387 . S
C271 C273 1.390 . S
C271 H275 0.950 . S
H272 C268 0.950 . S
C273 C271 1.390 . S
C273 C274 1.387 . S
C273 H276 0.950 . S
C274 C273 1.387 . S
C274 C277 1.387 1_556 S
H275 C271 0.950 . S
H276 C273 0.950 . S
C277 C268 1.390 . S
C277 H270 0.950 . S
C277 C274 1.387 1_554 S
C278 C279 1.392 . S
C278 H282 0.947 1_554 S
C278 C287 1.388 1_554 S
C279 C278 1.392 . S
C279 C281 1.387 . S
H280 C287 0.950 . S
C281 C279 1.387 . S
C281 C283 1.390 . S
C281 H285 0.950 . S
H282 C278 0.947 1_556 S
C283 C281 1.390 . S
C283 C284 1.387 . S
C283 H286 0.950 . S
C284 C283 1.387 . S
C284 C287 1.387 1_554 S
H285 C281 0.950 . S
H286 C283 0.950 . S
C287 C278 1.388 1_556 S
C287 H280 0.950 . S
C287 C284 1.387 1_556 S
C288 C289 1.387 . S
C288 H292 0.950 . S
C288 C297 1.390 . S
C289 C288 1.387 . S
C289 C291 1.387 . S
H290 C297 0.950 . S
C291 C289 1.387 . S
C291 C293 1.390 . S
C291 H295 0.950 . S
H292 C288 0.950 . S
C293 C291 1.390 . S
C293 C294 1.387 . S
C293 H296 0.950 . S
C294 C293 1.387 . S
C294 C297 1.387 . S
H295 C291 0.950 . S
H296 C293 0.950 . S
C297 C288 1.390 . S
C297 H290 0.950 . S
C297 C294 1.387 . S
C298 C299 1.387 . S
C298 H302 0.950 . S
C298 C307 1.390 . S
C299 C298 1.387 . S
C299 C301 1.387 . S
H300 C307 0.950 . S
C301 C299 1.387 . S
C301 C303 1.390 . S
C301 H305 0.950 . S
H302 C298 0.950 . S
C303 C301 1.390 . S
C303 C304 1.387 . S
C303 H306 0.950 . S
C304 C303 1.387 . S
C304 C307 1.387 . S
H305 C301 0.950 . S
H306 C303 0.950 . S
C307 C298 1.390 . S
C307 H300 0.950 . S
C307 C304 1.387 . S
C308 C309 1.387 . S
C308 H312 0.950 . S
C308 C317 1.390 . S
C309 C308 1.387 . S
C309 C311 1.387 . S
H310 C317 0.950 . S
C311 C309 1.387 . S
C311 C313 1.390 . S
C311 H315 0.950 . S
H312 C308 0.950 . S
C313 C311 1.390 . S
C313 C314 1.387 . S
C313 H316 0.950 . S
C314 C313 1.387 . S
C314 C317 1.387 . S
H315 C311 0.950 . S
H316 C313 0.950 . S
C317 C308 1.390 . S
C317 H310 0.950 . S
C317 C314 1.387 . S
C318 C319 1.387 . S
C318 H322 0.950 . S
C318 C327 1.390 . S
C319 C318 1.387 . S
C319 C321 1.387 . S
H320 C327 0.950 . S
C321 C319 1.387 . S
C321 C323 1.390 . S
C321 H325 0.950 . S
H322 C318 0.950 . S
C323 C321 1.390 . S
C323 C324 1.387 . S
C323 H326 0.950 . S
C324 C323 1.387 . S
C324 C327 1.387 . S
H325 C321 0.950 . S
H326 C323 0.950 . S
C327 C318 1.390 . S
C327 H320 0.950 . S
C327 C324 1.387 . S
C328 C329 1.387 . S
C328 H332 0.950 . S
C328 C337 1.390 . S
C329 C328 1.387 . S
C329 C331 1.387 . S
H330 C337 0.950 . S
C331 C329 1.387 . S
C331 C333 1.390 . S
C331 H335 0.950 . S
H332 C328 0.950 . S
C333 C331 1.390 . S
C333 C334 1.387 . S
C333 H336 0.950 . S
C334 C333 1.387 . S
C334 C337 1.387 . S
H335 C331 0.950 . S
H336 C333 0.950 . S
C337 C328 1.390 . S
C337 H330 0.950 . S
C337 C334 1.387 . S
C338 C339 1.387 . S
C338 H342 0.950 . S
C338 C347 1.390 . S
C339 C338 1.387 . S
C339 C341 1.387 . S
H340 C347 0.950 . S
C341 C339 1.387 . S
C341 C343 1.390 . S
C341 H345 0.950 . S
H342 C338 0.950 . S
C343 C341 1.390 . S
C343 C344 1.387 . S
C343 H346 0.950 . S
C344 C343 1.387 . S
C344 C347 1.387 . S
H345 C341 0.950 . S
H346 C343 0.950 . S
C347 C338 1.390 . S
C347 H340 0.950 . S
C347 C344 1.387 . S
C348 C349 1.387 . S
C348 H352 0.950 . S
C348 C357 1.390 . S
C349 C348 1.387 . S
C349 C351 1.387 . S
H350 C357 0.950 . S
C351 C349 1.387 . S
C351 C353 1.390 . S
C351 H355 0.950 . S
H352 C348 0.950 . S
C353 C351 1.390 . S
C353 C354 1.387 . S
C353 H356 0.950 . S
C354 C353 1.387 . S
C354 C357 1.387 . S
H355 C351 0.950 . S
H356 C353 0.950 . S
C357 C348 1.390 . S
C357 H350 0.950 . S
C357 C354 1.387 . S
C358 C359 1.387 . S
C358 H362 0.950 . S
C358 C367 1.390 . S
C359 C358 1.387 . S
C359 C361 1.387 . S
H360 C367 0.950 . S
C361 C359 1.387 . S
C361 C363 1.390 . S
C361 H365 0.950 . S
H362 C358 0.950 . S
C363 C361 1.390 . S
C363 C364 1.387 . S
C363 H366 0.950 . S
C364 C363 1.387 . S
C364 C367 1.387 . S
H365 C361 0.950 . S
H366 C363 0.950 . S
C367 C358 1.390 . S
C367 H360 0.950 . S
C367 C364 1.387 . S
C368 C369 1.387 . S
C368 H372 0.950 . S
C368 C377 1.390 . S
C369 C368 1.387 . S
C369 C371 1.387 . S
H370 C377 0.950 . S
C371 C369 1.387 . S
C371 C373 1.390 . S
C371 H375 0.950 . S
H372 C368 0.950 . S
C373 C371 1.390 . S
C373 C374 1.387 . S
C373 H376 0.950 . S
C374 C373 1.387 . S
C374 C377 1.387 . S
H375 C371 0.950 . S
H376 C373 0.950 . S
C377 C368 1.390 . S
C377 H370 0.950 . S
C377 C374 1.387 . S
C378 C379 1.387 . S
C378 H382 0.950 . S
C378 C387 1.390 . S
C379 C378 1.387 . S
C379 C381 1.387 . S
H380 C387 0.950 . S
C381 C379 1.387 . S
C381 C383 1.390 . S
C381 H385 0.950 . S
H382 C378 0.950 . S
C383 C381 1.390 . S
C383 C384 1.387 . S
C383 H386 0.950 . S
C384 C383 1.387 . S
C384 C387 1.387 . S
H385 C381 0.950 . S
H386 C383 0.950 . S
C387 C378 1.390 . S
C387 H380 0.950 . S
C387 C384 1.387 . S
C388 C389 1.387 . S
C388 H392 0.950 . S
C388 C397 1.390 . S
C389 C388 1.387 . S
C389 C391 1.387 . S
H390 C397 0.950 . S
C391 C389 1.387 . S
C391 C393 1.390 . S
C391 H395 0.950 . S
H392 C388 0.950 . S
C393 C391 1.390 . S
C393 C394 1.387 . S
C393 H396 0.950 . S
C394 C393 1.387 . S
C394 C397 1.387 . S
H395 C391 0.950 . S
H396 C393 0.950 . S
C397 C388 1.390 . S
C397 H390 0.950 . S
C397 C394 1.387 . S
C398 C399 1.387 . S
C398 H402 0.950 . S
C398 C407 1.390 . S
C399 C398 1.387 . S
C399 C401 1.387 . S
H400 C407 0.950 . S
C401 C399 1.387 . S
C401 C403 1.390 . S
C401 H405 0.950 . S
H402 C398 0.950 . S
C403 C401 1.390 . S
C403 C404 1.387 . S
C403 H406 0.950 . S
C404 C403 1.387 . S
C404 C407 1.387 . S
H405 C401 0.950 . S
H406 C403 0.950 . S
C407 C398 1.390 . S
C407 H400 0.950 . S
C407 C404 1.387 . S
C408 C409 1.387 . S
C408 H412 0.950 . S
C408 C417 1.390 . S
C409 C408 1.387 . S
C409 C411 1.387 . S
H410 C417 0.950 . S
C411 C409 1.387 . S
C411 C413 1.390 . S
C411 H415 0.950 . S
H412 C408 0.950 . S
C413 C411 1.390 . S
C413 C414 1.387 . S
C413 H416 0.950 . S
C414 C413 1.387 . S
C414 C417 1.387 . S
H415 C411 0.950 . S
H416 C413 0.950 . S
C417 C408 1.390 . S
C417 H410 0.950 . S
C417 C414 1.387 . S
C418 C419 1.387 . S
C418 H422 0.950 . S
C418 C427 1.390 . S
C419 C418 1.387 . S
C419 C421 1.387 . S
H420 C427 0.950 . S
C421 C419 1.387 . S
C421 C423 1.390 . S
C421 H425 0.950 . S
H422 C418 0.950 . S
C423 C421 1.390 . S
C423 C424 1.387 . S
C423 H426 0.950 . S
C424 C423 1.387 . S
C424 C427 1.387 . S
H425 C421 0.950 . S
H426 C423 0.950 . S
C427 C418 1.390 . S
C427 H420 0.950 . S
C427 C424 1.387 . S
C428 C429 1.387 . S
C428 H432 0.950 . S
C428 C437 1.390 . S
C429 C428 1.387 . S
C429 C431 1.387 . S
H430 C437 0.950 . S
C431 C429 1.387 . S
C431 C433 1.390 . S
C431 H435 0.950 . S
H432 C428 0.950 . S
C433 C431 1.390 . S
C433 C434 1.387 . S
C433 H436 0.950 . S
C434 C433 1.387 . S
C434 C437 1.387 . S
H435 C431 0.950 . S
H436 C433 0.950 . S
C437 C428 1.390 . S
C437 H430 0.950 . S
C437 C434 1.387 . S
C438 C439 1.387 . S
C438 H442 0.950 . S
C438 C447 1.390 . S
C439 C438 1.387 . S
C439 C441 1.387 . S
H440 C447 0.950 . S
C441 C439 1.387 . S
C441 C443 1.390 . S
C441 H445 0.950 . S
H442 C438 0.950 . S
C443 C441 1.390 . S
C443 C444 1.387 . S
C443 H446 0.950 . S
C444 C443 1.387 . S
C444 C447 1.387 . S
H445 C441 0.950 . S
H446 C443 0.950 . S
C447 C438 1.390 . S
C447 H440 0.950 . S
C447 C444 1.387 . S
C448 C449 1.387 . S
C448 H452 0.950 . S
C448 C457 1.390 1_665 S
C449 C448 1.387 . S
C449 C451 1.387 . S
H450 C457 0.950 . S
C451 C449 1.387 . S
C451 C453 1.390 1_665 S
C451 H455 0.950 . S
H452 C448 0.950 . S
C453 C451 1.390 1_445 S
C453 C454 1.387 . S
C453 H456 0.950 . S
C454 C453 1.387 . S
C454 C457 1.387 . S
H455 C451 0.950 . S
H456 C453 0.950 . S
C457 C448 1.390 1_445 S
C457 H450 0.950 . S
C457 C454 1.387 . S
C458 C459 1.387 . S
C458 H462 0.950 . S
C458 C467 1.390 1_645 S
C459 C458 1.387 . S
C459 C461 1.387 . S
H460 C467 0.950 . S
C461 C459 1.387 . S
C461 C463 1.390 1_645 S
C461 H465 0.950 . S
H462 C458 0.950 . S
C463 C461 1.390 1_465 S
C463 C464 1.387 . S
C463 H466 0.950 . S
C464 C463 1.387 . S
C464 C467 1.387 . S
H465 C461 0.950 . S
H466 C463 0.950 . S
C467 C458 1.390 1_465 S
C467 H460 0.950 . S
C467 C464 1.387 . S
C468 C469 1.387 . S
C468 H472 0.950 . S
C468 C477 1.390 1_455 S
C469 C468 1.387 . S
C469 C471 1.387 . S
H470 C477 0.950 . S
C471 C469 1.387 . S
C471 C473 1.390 1_455 S
C471 H475 0.950 . S
H472 C468 0.950 . S
C473 C471 1.390 1_655 S
C473 C474 1.387 . S
C473 H476 0.950 . S
C474 C473 1.387 . S
C474 C477 1.387 . S
H475 C471 0.950 . S
H476 C473 0.950 . S
C477 C468 1.390 1_655 S
C477 H470 0.950 . S
C477 C474 1.387 . S
C478 C479 1.387 . S
C478 H482 0.950 . S
C478 C487 1.390 1_565 S
C479 C478 1.387 . S
C479 C481 1.387 . S
H480 C487 0.950 . S
C481 C479 1.387 . S
C481 C483 1.390 1_565 S
C481 H485 0.950 . S
H482 C478 0.950 . S
C483 C481 1.390 1_545 S
C483 C484 1.387 . S
C483 H486 0.950 . S
C484 C483 1.387 . S
C484 C487 1.387 . S
H485 C481 0.950 . S
H486 C483 0.950 . S
C487 C478 1.390 1_545 S
C487 H480 0.950 . S
C487 C484 1.387 . S
C488 C489 1.387 . S
C488 H492 0.950 . S
C488 C497 1.390 . S
C489 C488 1.387 . S
C489 C491 1.387 . S
H490 C497 0.950 . S
C491 C489 1.387 . S
C491 C493 1.390 . S
C491 H495 0.950 . S
H492 C488 0.950 . S
C493 C491 1.390 . S
C493 C494 1.387 . S
C493 H496 0.950 . S
C494 C493 1.387 . S
C494 C497 1.387 . S
H495 C491 0.950 . S
H496 C493 0.950 . S
C497 C488 1.390 . S
C497 H490 0.950 . S
C497 C494 1.387 . S
C498 C499 1.387 . S
C498 H502 0.950 . S
C498 C507 1.390 . S
C499 C498 1.387 . S
C499 C501 1.387 . S
H500 C507 0.950 . S
C501 C499 1.387 . S
C501 C503 1.390 . S
C501 H505 0.950 . S
H502 C498 0.950 . S
C503 C501 1.390 . S
C503 C504 1.387 . S
C503 H506 0.950 . S
C504 C503 1.387 . S
C504 C507 1.387 . S
H505 C501 0.950 . S
H506 C503 0.950 . S
C507 C498 1.390 . S
C507 H500 0.950 . S
C507 C504 1.387 . S
C508 C509 1.387 . S
C508 H512 0.950 . S
C508 C517 1.390 1_545 S
C509 C508 1.387 . S
C509 C511 1.387 . S
H510 C517 0.950 . S
C511 C509 1.387 . S
C511 C513 1.390 1_545 S
C511 H515 0.950 . S
H512 C508 0.950 . S
C513 C511 1.390 1_565 S
C513 C514 1.387 . S
C513 H516 0.950 . S
C514 C513 1.387 . S
C514 C517 1.387 . S
H515 C511 0.950 . S
H516 C513 0.950 . S
C517 C508 1.390 1_565 S
C517 H510 0.950 . S
C517 C514 1.387 . S
C518 C519 1.387 . S
C518 H522 0.950 . S
C518 C527 1.390 1_655 S
C519 C518 1.387 . S
C519 C521 1.387 . S
H520 C527 0.950 . S
C521 C519 1.387 . S
C521 C523 1.390 1_655 S
C521 H525 0.950 . S
H522 C518 0.950 . S
C523 C521 1.390 1_455 S
C523 C524 1.387 . S
C523 H526 0.950 . S
C524 C523 1.387 . S
C524 C527 1.387 . S
H525 C521 0.950 . S
H526 C523 0.950 . S
C527 C518 1.390 1_455 S
C527 H520 0.950 . S
C527 C524 1.387 . S
C209 C5 1.686 . S
C214 C144 1.677 . S
C219 C105 1.624 . S
C224 C18 1.648 . S
C229 C118 1.677 . S
C234 C31 1.686 . S
C239 C131 1.624 . S
C244 C44 1.648 . S
C249 C66 1.677 1_546 S
C254 C57 1.686 . S
C259 C70 1.648 . S
C264 C79 1.624 1_454 S
C269 C83 1.686 . S
C274 C92 1.676 1_566 S
C279 C96 1.650 . S
C284 C53 1.623 1_654 S
C289 C109 1.686 . S
C294 C40 1.677 1_565 S
C299 C1 1.623 1_655 S
C304 C122 1.648 . S
C309 C14 1.677 1_545 S
C314 C135 1.686 . S
C319 C27 1.623 1_455 S
C324 C148 1.650 . S
C329 C170 1.677 . S
C334 C161 1.686 . S
C339 C174 1.650 . S
C344 C183 1.622 . S
C349 C196 1.677 . S
C354 C187 1.686 . S
C359 C157 1.624 . S
C364 C200 1.648 . S
C369 C185 1.774 . S
C374 C3 1.774 . S
C379 C198 1.891 . S
C384 C16 1.891 . S
C389 C159 1.777 . S
C394 C29 1.777 . S
C399 C42 1.892 . S
C404 C172 1.892 . S
C409 C55 1.774 . S
C414 C133 1.774 . S
C419 C146 1.892 . S
C424 C68 1.892 . S
C429 C81 1.774 . S
C434 C107 1.774 . S
C439 C94 1.892 . S
C444 C120 1.892 . S
C449 C36 1.594 . S
C454 C10 1.594 . S
C459 C49 1.565 . S
C464 C23 1.565 . S
C469 C62 1.594 . S
C474 C88 1.594 . S
C479 C75 1.565 . S
C484 C101 1.565 . S
C489 C140 1.594 . S
C494 C114 1.594 . S
C499 C127 1.564 . S
C504 C153 1.564 . S
C509 C192 1.593 . S
C514 C166 1.593 . S
C519 C179 1.565 . S
C524 C205 1.565 . S
