# Generated by pormake.
# Topology whw, (6)-cn, num edge types: 1
# Building blocks:
#     Node 0, Type 0, BuildingBlock: UKALOJ_clean_sbu_0, # of connection points: 6
#     Node 1, Type 0, BuildingBlock: UKALOJ_clean_sbu_0, # of connection points: 6
#     Node 2, Type 0, BuildingBlock: UKALOJ_clean_sbu_0, # of connection points: 6
#     Node 3, Type 0, BuildingBlock: UKALOJ_clean_sbu_0, # of connection points: 6
#     Node 4, Type 0, BuildingBlock: UKALOJ_clean_sbu_0, # of connection points: 6
#     Node 5, Type 0, BuildingBlock: UKALOJ_clean_sbu_0, # of connection points: 6
#     Node 6, Type 0, BuildingBlock: UKALOJ_clean_sbu_0, # of connection points: 6
#     Node 7, Type 0, BuildingBlock: UKALOJ_clean_sbu_0, # of connection points: 6
#     Node 8, Type 0, BuildingBlock: UKALOJ_clean_sbu_0, # of connection points: 6
#     Node 9, Type 0, BuildingBlock: UKALOJ_clean_sbu_0, # of connection points: 6
#     Node 10, Type 0, BuildingBlock: UKALOJ_clean_sbu_0, # of connection points: 6
#     Node 11, Type 0, BuildingBlock: UKALOJ_clean_sbu_0, # of connection points: 6
#     Node 12, Type 0, BuildingBlock: UKALOJ_clean_sbu_0, # of connection points: 6
#     Node 13, Type 0, BuildingBlock: UKALOJ_clean_sbu_0, # of connection points: 6
#     Node 14, Type 0, BuildingBlock: UKALOJ_clean_sbu_0, # of connection points: 6
#     Node 15, Type 0, BuildingBlock: UKALOJ_clean_sbu_0, # of connection points: 6
#     Edge 16, Type (0, 0), BuildingBlock: AJUNOK_clean_linker_0, # of connection points: 2
#     Edge 17, Type (0, 0), BuildingBlock: AJUNOK_clean_linker_0, # of connection points: 2
#     Edge 18, Type (0, 0), BuildingBlock: AJUNOK_clean_linker_0, # of connection points: 2
#     Edge 19, Type (0, 0), BuildingBlock: AJUNOK_clean_linker_0, # of connection points: 2
#     Edge 20, Type (0, 0), BuildingBlock: AJUNOK_clean_linker_0, # of connection points: 2
#     Edge 21, Type (0, 0), BuildingBlock: AJUNOK_clean_linker_0, # of connection points: 2
#     Edge 22, Type (0, 0), BuildingBlock: AJUNOK_clean_linker_0, # of connection points: 2
#     Edge 23, Type (0, 0), BuildingBlock: AJUNOK_clean_linker_0, # of connection points: 2
#     Edge 24, Type (0, 0), BuildingBlock: AJUNOK_clean_linker_0, # of connection points: 2
#     Edge 25, Type (0, 0), BuildingBlock: AJUNOK_clean_linker_0, # of connection points: 2
#     Edge 26, Type (0, 0), BuildingBlock: AJUNOK_clean_linker_0, # of connection points: 2
#     Edge 27, Type (0, 0), BuildingBlock: AJUNOK_clean_linker_0, # of connection points: 2
#     Edge 28, Type (0, 0), BuildingBlock: AJUNOK_clean_linker_0, # of connection points: 2
#     Edge 29, Type (0, 0), BuildingBlock: AJUNOK_clean_linker_0, # of connection points: 2
#     Edge 30, Type (0, 0), BuildingBlock: AJUNOK_clean_linker_0, # of connection points: 2
#     Edge 31, Type (0, 0), BuildingBlock: AJUNOK_clean_linker_0, # of connection points: 2
#     Edge 32, Type (0, 0), BuildingBlock: AJUNOK_clean_linker_0, # of connection points: 2
#     Edge 33, Type (0, 0), BuildingBlock: AJUNOK_clean_linker_0, # of connection points: 2
#     Edge 34, Type (0, 0), BuildingBlock: AJUNOK_clean_linker_0, # of connection points: 2
#     Edge 35, Type (0, 0), BuildingBlock: AJUNOK_clean_linker_0, # of connection points: 2
#     Edge 36, Type (0, 0), BuildingBlock: AJUNOK_clean_linker_0, # of connection points: 2
#     Edge 37, Type (0, 0), BuildingBlock: AJUNOK_clean_linker_0, # of connection points: 2
#     Edge 38, Type (0, 0), BuildingBlock: AJUNOK_clean_linker_0, # of connection points: 2
#     Edge 39, Type (0, 0), BuildingBlock: AJUNOK_clean_linker_0, # of connection points: 2
#     Edge 40, Type (0, 0), BuildingBlock: AJUNOK_clean_linker_0, # of connection points: 2
#     Edge 41, Type (0, 0), BuildingBlock: AJUNOK_clean_linker_0, # of connection points: 2
#     Edge 42, Type (0, 0), BuildingBlock: AJUNOK_clean_linker_0, # of connection points: 2
#     Edge 43, Type (0, 0), BuildingBlock: AJUNOK_clean_linker_0, # of connection points: 2
#     Edge 44, Type (0, 0), BuildingBlock: AJUNOK_clean_linker_0, # of connection points: 2
#     Edge 45, Type (0, 0), BuildingBlock: AJUNOK_clean_linker_0, # of connection points: 2
#     Edge 46, Type (0, 0), BuildingBlock: AJUNOK_clean_linker_0, # of connection points: 2
#     Edge 47, Type (0, 0), BuildingBlock: AJUNOK_clean_linker_0, # of connection points: 2
#     Edge 48, Type (0, 0), BuildingBlock: AJUNOK_clean_linker_0, # of connection points: 2
#     Edge 49, Type (0, 0), BuildingBlock: AJUNOK_clean_linker_0, # of connection points: 2
#     Edge 50, Type (0, 0), BuildingBlock: AJUNOK_clean_linker_0, # of connection points: 2
#     Edge 51, Type (0, 0), BuildingBlock: AJUNOK_clean_linker_0, # of connection points: 2
#     Edge 52, Type (0, 0), BuildingBlock: AJUNOK_clean_linker_0, # of connection points: 2
#     Edge 53, Type (0, 0), BuildingBlock: AJUNOK_clean_linker_0, # of connection points: 2
#     Edge 54, Type (0, 0), BuildingBlock: AJUNOK_clean_linker_0, # of connection points: 2
#     Edge 55, Type (0, 0), BuildingBlock: AJUNOK_clean_linker_0, # of connection points: 2
#     Edge 56, Type (0, 0), BuildingBlock: AJUNOK_clean_linker_0, # of connection points: 2
#     Edge 57, Type (0, 0), BuildingBlock: AJUNOK_clean_linker_0, # of connection points: 2
#     Edge 58, Type (0, 0), BuildingBlock: AJUNOK_clean_linker_0, # of connection points: 2
#     Edge 59, Type (0, 0), BuildingBlock: AJUNOK_clean_linker_0, # of connection points: 2
#     Edge 60, Type (0, 0), BuildingBlock: AJUNOK_clean_linker_0, # of connection points: 2
#     Edge 61, Type (0, 0), BuildingBlock: AJUNOK_clean_linker_0, # of connection points: 2
#     Edge 62, Type (0, 0), BuildingBlock: AJUNOK_clean_linker_0, # of connection points: 2
#     Edge 63, Type (0, 0), BuildingBlock: AJUNOK_clean_linker_0, # of connection points: 2
# Relax obj value: 1.029
# Max RMSD: 0.243
# Mean RMSD: 0.243
data_MOF--net-whw--node1-UKALOJ_clean_sbu_0--edge1-AJUNOK_clean_linker_0
_symmetry_space_group_name_H-M    P1
_symmetry_Int_Tables_number       1
_symmetry_cell_setting            triclinic
loop_
_symmetry_equiv_pos_as_xyz
'x, y, z'
_cell_length_a     51.335101
_cell_length_b     51.018881
_cell_length_c     15.744086
_cell_angle_alpha  90.145551
_cell_angle_beta   89.996818
_cell_angle_gamma 90.041177
loop_
_atom_site_label
_atom_site_type_symbol
_atom_site_fract_x
_atom_site_fract_y
_atom_site_fract_z
_atom_type_partial_charge
Zn0 Zn 0.07387 0.15248 0.15086 0.0
O1 O 0.04406 0.16133 0.04249 0.0
C2 C 0.11586 0.16283 1.01413 0.0
Zn3 Zn 0.08302 0.19258 0.12659 0.0
C4 C 0.03906 0.18513 0.0194 0.0
O5 O 0.05374 0.20327 0.04655 0.0
C6 C 0.11869 0.16768 0.26246 0.0
O7 O 0.05547 0.20294 0.23076 0.0
O8 O 0.04137 0.16251 0.24024 0.0
N9 N 0.1017 0.22642 0.1226 0.0
C10 C 0.1095 0.24048 0.18937 0.0
C11 C 0.13119 0.25383 0.08397 0.0
N12 N 0.1165 0.23356 0.05784 0.0
N13 N 0.1258 0.26009 0.16562 0.0
C14 C 0.06694 0.09382 0.08988 0.0
C15 C 0.05726 0.07352 0.20344 0.0
N16 N 0.06504 0.11211 0.15224 0.0
N17 N 0.05892 0.09933 0.22263 0.0
N18 N 0.06246 0.06936 0.12051 0.0
H19 H 0.06353 0.11969 0.98249 0.0
H20 H 0.06277 0.0851 0.95636 0.0
H21 H 0.09287 0.10081 0.98565 0.0
C22 C 0.07164 0.1002 0.99823 0.0
C23 C 0.10024 0.23584 0.27902 0.0
H24 H 0.08045 0.24384 0.28764 0.0
H25 H 0.11404 0.24448 0.32517 0.0
H26 H 0.0981 0.21515 0.2955 0.0
O27 O 0.11484 0.18434 0.20549 0.0
O28 O 0.10247 0.14859 0.26465 0.0
C29 C 0.03869 0.18671 0.26045 0.0
O30 O 0.10771 0.14386 0.05974 0.0
O31 O 0.10559 0.18474 0.02464 0.0
Zn32 Zn 0.18239 0.77998 0.39353 0.0
O33 O 0.17382 0.74767 0.30439 0.0
C34 C 0.17028 0.81913 0.25851 0.0
Zn35 Zn 0.14086 0.79178 0.3995 0.0
C36 C 0.1499 0.7448 0.28441 0.0
O37 O 0.13334 0.76055 0.31469 0.0
C38 C 0.16927 0.82692 0.51069 0.0
O39 O 0.12963 0.76731 0.49663 0.0
O40 O 0.17028 0.75323 0.50456 0.0
N41 N 0.10535 0.80669 0.37764 0.0
C42 C 0.10179 0.83307 0.37583 0.0
C43 C 0.09561 0.8187 0.25133 0.0
N44 N 0.10018 0.79799 0.30057 0.0
N45 N 0.09658 0.84147 0.29589 0.0
C46 C 0.23979 0.76508 0.33355 0.0
C47 C 0.26249 0.77535 0.44153 0.0
N48 N 0.22279 0.771 0.39696 0.0
N49 N 0.23715 0.77722 0.46392 0.0
N50 N 0.26494 0.76809 0.35944 0.0
H51 H 0.21882 0.73707 0.25888 0.0
H52 H 0.24851 0.74768 0.21079 0.0
H53 H 0.22038 0.76924 0.21343 0.0
C54 C 0.23159 0.75429 0.24897 0.0
C55 C 0.10205 0.85024 0.45358 0.0
H56 H 0.10592 0.83884 0.51204 0.0
H57 H 0.08311 0.85981 0.46422 0.0
H58 H 0.11638 0.86616 0.4441 0.0
O59 O 0.14738 0.82073 0.48191 0.0
O60 O 0.1891 0.81344 0.48748 0.0
C61 C 0.14634 0.75216 0.53016 0.0
O62 O 0.19015 0.80564 0.27957 0.0
O63 O 0.15013 0.81654 0.30202 0.0
Zn64 Zn 0.55802 0.89223 0.65093 0.0
O65 O 0.58495 0.87845 0.54118 0.0
C66 C 0.51321 0.88058 0.52939 0.0
Zn67 Zn 0.54501 0.85103 0.64906 0.0
C68 C 0.58665 0.85383 0.52184 0.0
O69 O 0.57167 0.83779 0.55951 0.0
C70 C 0.51479 0.88291 0.78068 0.0
O71 O 0.57468 0.84238 0.74715 0.0
O72 O 0.5899 0.88263 0.74238 0.0
N73 N 0.52685 0.81671 0.66055 0.0
C74 C 0.51519 0.8089 0.75569 0.0
C75 C 0.49721 0.7735 0.62443 0.0
N76 N 0.51691 0.79773 0.58791 0.0
N77 N 0.49559 0.78129 0.7337 0.0
C78 C 0.56674 0.95108 0.5821 0.0
C79 C 0.57653 0.97138 0.69572 0.0
N80 N 0.5687 0.93271 0.64432 0.0
N81 N 0.57485 0.94562 0.71457 0.0
N82 N 0.5712 0.97573 0.613 0.0
H83 H 0.57092 0.92495 0.47571 0.0
H84 H 0.57079 0.95948 0.44848 0.0
H85 H 0.54104 0.94299 0.47819 0.0
C86 C 0.56225 0.94433 0.49062 0.0
C87 C 0.52419 0.81746 0.84094 0.0
H88 H 0.53606 0.83545 0.84056 0.0
H89 H 0.53676 0.80152 0.86396 0.0
H90 H 0.50725 0.81913 0.88403 0.0
O91 O 0.51658 0.86266 0.73598 0.0
O92 O 0.53111 0.9013 0.7652 0.0
C93 C 0.59175 0.85918 0.77096 0.0
O94 O 0.52605 0.9001 0.55805 0.0
O95 O 0.5188 0.858 0.55544 0.0
Zn96 Zn 0.44441 0.26323 0.89547 0.0
O97 O 0.45194 0.29408 0.8014 0.0
C98 C 0.44522 0.21445 0.78983 0.0
Zn99 Zn 0.48146 0.24656 0.88972 0.0
C100 C 0.47055 0.28753 0.75211 0.0
O101 O 0.48226 0.26608 0.76704 0.0
C102 C 0.46202 0.21997 0.02947 0.0
O103 O 0.49942 0.28229 0.94539 0.0
O104 O 0.45985 0.29175 0.99172 0.0
N105 N 0.51223 0.22528 0.84495 0.0
C106 C 0.53639 0.21766 0.86469 0.0
C107 C 0.52495 0.19434 0.76048 0.0
N108 N 0.50531 0.21015 0.78073 0.0
N109 N 0.54607 0.20042 0.80605 0.0
C110 C 0.38537 0.27499 0.84715 0.0
C111 C 0.36675 0.28043 0.96635 0.0
N112 N 0.40436 0.27385 0.90736 0.0
N113 N 0.39254 0.27731 0.98133 0.0
N114 N 0.36149 0.27887 0.88242 0.0
H115 H 0.4103 0.27979 0.73769 0.0
H116 H 0.37618 0.28564 0.71818 0.0
H117 H 0.388 0.25275 0.73201 0.0
C118 C 0.39033 0.27334 0.75343 0.0
C119 C 0.54686 0.2202 0.95268 0.0
H120 H 0.54396 0.20128 0.98575 0.0
H121 H 0.53634 0.23576 0.98755 0.0
H122 H 0.56796 0.22409 0.95319 0.0
O123 O 0.48366 0.22808 1.00223 0.0
O124 O 0.44103 0.22992 0.99753 0.0
C125 C 0.48441 0.29724 0.99023 0.0
O126 O 0.43318 0.23616 0.78987 0.0
O127 O 0.46178 0.21184 0.84717 0.0
Zn128 Zn 0.06724 0.84406 0.85424 0.0
O129 O 0.03581 0.85153 0.7718 0.0
C130 C 0.10607 0.86876 0.74834 0.0
Zn131 Zn 0.06527 0.88672 0.88476 0.0
C132 C 0.02405 0.87228 0.7538 0.0
O133 O 0.03283 0.89351 0.78646 0.0
C134 C 0.10803 0.85528 0.98292 0.0
O135 O 0.03372 0.88126 0.98479 0.0
O136 O 0.03937 0.83995 0.9545 0.0
N137 N 0.06775 0.92731 0.90568 0.0
C138 C 0.06461 0.94367 0.97301 0.0
C139 C 0.07462 0.96738 0.86684 0.0
N140 N 0.07389 0.94228 0.84009 0.0
N141 N 0.06887 0.96901 0.9502 0.0
C142 C 0.04434 0.80198 0.77235 0.0
C143 C 0.03354 0.78906 0.89364 0.0
N144 N 0.06518 0.80471 0.82342 0.0
N145 N 0.05927 0.79339 0.89597 0.0
N146 N 0.02321 0.7957 0.81782 0.0
H147 H 0.02601 0.81401 0.65607 0.0
H148 H 0.04759 0.7866 0.6472 0.0
H149 H 0.06122 0.81887 0.65951 0.0
C150 C 0.04482 0.80594 0.6783 0.0
C151 C 0.05859 0.93457 0.06112 0.0
H152 H 0.06603 0.91439 0.07096 0.0
H153 H 0.03715 0.93435 0.07002 0.0
H154 H 0.06722 0.94804 0.1089 0.0
O155 O 0.09737 0.87809 0.97903 0.0
O156 O 0.09837 0.83699 0.93797 0.0
C157 C 0.02736 0.85728 0.99736 0.0
O158 O 0.09412 0.84746 0.75979 0.0
O159 O 0.09788 0.88941 0.78665 0.0
Zn160 Zn 0.49063 0.78408 0.18175 0.0
O161 O 0.49547 0.75737 0.07218 0.0
C162 C 0.46861 0.82655 0.05602 0.0
Zn163 Zn 0.44933 0.78062 0.15781 0.0
C164 C 0.47782 0.74284 0.0392 0.0
O165 O 0.45409 0.74734 0.06142 0.0
C166 C 0.46785 0.8209 0.29383 0.0
O167 O 0.45274 0.74984 0.26428 0.0
O168 O 0.49529 0.75143 0.25494 0.0
N169 N 0.40806 0.78017 0.15998 0.0
C170 C 0.38896 0.76595 0.19826 0.0
C171 C 0.37101 0.79991 0.1471 0.0
N172 N 0.39654 0.80115 0.12824 0.0
N173 N 0.3653 0.77809 0.19168 0.0
C174 C 0.5439 0.80004 0.12949 0.0
C175 C 0.5688 0.78934 0.23082 0.0
N176 N 0.52894 0.79034 0.19078 0.0
N177 N 0.54417 0.78429 0.25551 0.0
N178 N 0.56924 0.79926 0.15126 0.0
H179 H 0.51568 0.79849 0.02788 0.0
H180 H 0.54568 0.80816 0.99312 0.0
H181 H 0.52991 0.83063 0.05435 0.0
C182 C 0.53312 0.80957 0.04721 0.0
C183 C 0.39364 0.73985 0.23847 0.0
H184 H 0.40982 0.7296 0.20556 0.0
H185 H 0.37587 0.72749 0.23535 0.0
H186 H 0.3992 0.74275 0.30594 0.0
O187 O 0.44775 0.81477 0.25009 0.0
O188 O 0.48794 0.80698 0.28652 0.0
C189 C 0.47522 0.74062 0.28493 0.0
O190 O 0.48607 0.82029 0.10891 0.0
O191 O 0.4489 0.81122 0.05171 0.0
Zn192 Zn 0.55596 0.16255 0.40601 0.0
O193 O 0.58619 0.17711 0.50426 0.0
C194 C 0.50953 0.1841 0.51999 0.0
Zn195 Zn 0.54554 0.20447 0.39433 0.0
C196 C 0.59055 0.20182 0.51538 0.0
O197 O 0.57578 0.21801 0.47656 0.0
C198 C 0.50987 0.16892 0.29137 0.0
O199 O 0.57443 0.20579 0.2998 0.0
O200 O 0.58791 0.16554 0.30465 0.0
N201 N 0.53465 0.23819 0.33386 0.0
C202 C 0.52871 0.23416 0.22947 0.0
C203 C 0.52147 0.28765 0.28438 0.0
N204 N 0.53048 0.26753 0.36386 0.0
N205 N 0.51968 0.26585 0.1978 0.0
C206 C 0.56324 0.10452 0.49037 0.0
C207 C 0.57163 0.0826 0.37852 0.0
N208 N 0.56423 0.12198 0.42521 0.0
N209 N 0.56957 0.10803 0.35628 0.0
N210 N 0.56774 0.07961 0.4625 0.0
H211 H 0.55893 0.13302 0.5904 0.0
H212 H 0.56816 0.10032 0.62502 0.0
H213 H 0.53543 0.10663 0.59067 0.0
C214 C 0.55618 0.11169 0.57951 0.0
C215 C 0.53628 0.21281 0.16838 0.0
H216 H 0.54141 0.19392 0.19688 0.0
H217 H 0.55365 0.21936 0.13268 0.0
H218 H 0.52054 0.21052 0.12125 0.0
O219 O 0.51507 0.19095 0.3221 0.0
O220 O 0.52596 0.15043 0.30644 0.0
C221 C 0.58999 0.18862 0.2733 0.0
O222 O 0.5227 0.16313 0.50371 0.0
O223 O 0.5168 0.20556 0.48655 0.0
Zn224 Zn 0.13731 0.25585 0.66924 0.0
O225 O 0.12909 0.28561 0.57274 0.0
C226 C 0.1696 0.22311 0.5394 0.0
Zn227 Zn 0.17878 0.26555 0.66423 0.0
C228 C 0.14617 0.30212 0.54803 0.0
O229 O 0.16966 0.29922 0.57481 0.0
C230 C 0.1656 0.21993 0.7825 0.0
O231 O 0.16505 0.29246 0.77598 0.0
O232 O 0.12374 0.28237 0.75644 0.0
N233 N 0.21852 0.27637 0.67695 0.0
C234 C 0.23519 0.27724 0.74406 0.0
C235 C 0.25804 0.28223 0.63259 0.0
N236 N 0.23297 0.27962 0.60809 0.0
N237 N 0.2602 0.28091 0.71785 0.0
C238 C 0.09892 0.22245 0.58179 0.0
C239 C 0.0902 0.19718 0.68492 0.0
N240 N 0.10323 0.23621 0.65395 0.0
N241 N 0.09727 0.22045 0.7176 0.0
N242 N 0.0916 0.19722 0.59904 0.0
H243 H 0.08739 0.24349 0.46937 0.0
H244 H 0.11111 0.21797 0.45058 0.0
H245 H 0.11991 0.24845 0.49497 0.0
C246 C 0.10466 0.23343 0.49476 0.0
C247 C 0.22719 0.27277 0.83433 0.0
H248 H 0.20698 0.26533 0.83843 0.0
H249 H 0.22804 0.29162 0.8694 0.0
H250 H 0.24084 0.25893 0.86541 0.0
O251 O 0.18592 0.23053 0.75074 0.0
O252 O 0.14391 0.22963 0.76453 0.0
C253 C 0.14073 0.2962 0.79443 0.0
O254 O 0.15013 0.22696 0.58508 0.0
O255 O 0.18857 0.23906 0.5495 0.0
Zn256 Zn 0.99149 0.2765 0.64614 0.0
O257 O 0.98857 0.24991 0.54193 0.0
C258 C 0.96932 0.31743 0.53851 0.0
Zn259 Zn 0.94793 0.27114 0.64868 0.0
C260 C 0.97037 0.23743 0.50735 0.0
O261 O 0.94744 0.24109 0.53752 0.0
C262 C 0.97288 0.31062 0.77762 0.0
O263 O 0.95015 0.23865 0.74537 0.0
O264 O 0.99185 0.24505 0.73352 0.0
N265 N 0.90675 0.27199 0.65656 0.0
C266 C 0.88969 0.26966 0.72217 0.0
C267 C 0.8673 0.27785 0.61179 0.0
N268 N 0.89258 0.27701 0.58825 0.0
N269 N 0.86473 0.2733 0.69577 0.0
C270 C 0.03661 0.25933 0.57306 0.0
C271 C 0.04203 0.23573 0.68105 0.0
N272 N 0.03204 0.27452 0.64104 0.0
N273 N 0.03917 0.26065 0.70784 0.0
N274 N 0.03866 0.234 0.59617 0.0
H275 H 0.05595 0.27476 0.46553 0.0
H276 H 0.02769 0.2555 0.43956 0.0
H277 H 0.02374 0.28722 0.48221 0.0
C278 C 0.03589 0.26959 0.4848 0.0
C279 C 0.89759 0.26511 0.81249 0.0
H280 H 0.91805 0.27103 0.82341 0.0
H281 H 0.89579 0.2439 0.82683 0.0
H282 H 0.8846 0.27604 0.85637 0.0
O283 O 0.95107 0.3008 0.7536 0.0
O284 O 0.99381 0.30257 0.74409 0.0
C285 C 0.97337 0.23264 0.7673 0.0
O286 O 0.99068 0.30848 0.56629 0.0
O287 O 0.9481 0.30517 0.55601 0.0
Zn288 Zn 0.64105 0.75862 0.1019 0.0
O289 O 0.64024 0.80103 0.07137 0.0
C290 C 0.67612 0.73503 0.97378 0.0
Zn291 Zn 0.68052 0.76677 0.13541 0.0
C292 C 0.65807 0.80955 0.02382 0.0
O293 O 0.67984 0.79724 0.02683 0.0
C294 C 0.65552 0.735 0.27256 0.0
O295 O 0.66887 0.79928 0.22785 0.0
O296 O 0.63089 0.77917 0.22937 0.0
N297 N 0.72101 0.77177 0.15384 0.0
C298 C 0.73738 0.77266 0.22167 0.0
C299 C 0.76089 0.77436 0.11085 0.0
N300 N 0.73589 0.77283 0.08541 0.0
N301 N 0.76282 0.77435 0.19642 0.0
C302 C 0.57451 0.72915 0.95237 0.0
C303 C 0.55275 0.75945 0.96896 0.0
N304 N 0.57546 0.73239 0.03791 0.0
N305 N 0.55499 0.74791 0.04561 0.0
N306 N 0.57299 0.75312 0.91724 0.0
H307 H 0.59151 0.69058 0.95358 0.0
H308 H 0.60559 0.7137 0.87832 0.0
H309 H 0.57495 0.69955 0.85693 0.0
C310 C 0.58749 0.70673 0.90842 0.0
C311 C 0.72803 0.77248 0.31168 0.0
H312 H 0.70755 0.77927 0.31538 0.0
H313 H 0.74056 0.78513 0.352 0.0
H314 H 0.72874 0.75213 0.33628 0.0
O315 O 0.67804 0.73668 0.23839 0.0
O316 O 0.63767 0.74991 0.24389 0.0
C317 C 0.64535 0.79824 0.25593 0.0
O318 O 0.66004 0.75357 0.9691 0.0
O319 O 0.68825 0.73296 0.04406 0.0
Zn320 Zn 0.68265 0.28342 0.90694 0.0
O321 O 0.67544 0.25142 0.81288 0.0
C322 C 0.67368 0.33124 0.79795 0.0
Zn323 Zn 0.64371 0.29872 0.91185 0.0
C324 C 0.65525 0.25672 0.76905 0.0
O325 O 0.64176 0.27644 0.79199 0.0
C326 C 0.66703 0.32697 0.03965 0.0
O327 O 0.63174 0.26473 0.98469 0.0
O328 O 0.67256 0.25506 1.01238 0.0
N329 N 0.60715 0.31343 0.8888 0.0
C330 C 0.59257 0.29208 0.8839 0.0
C331 C 0.59541 0.30722 0.75882 0.0
N332 N 0.6068 0.32431 0.81229 0.0
N333 N 0.58693 0.28643 0.80308 0.0
C334 C 0.741 0.27579 0.84361 0.0
C335 C 0.76227 0.2698 0.95776 0.0
N336 N 0.72333 0.27557 0.90793 0.0
N337 N 0.73677 0.27177 0.97866 0.0
N338 N 0.76564 0.27253 0.87325 0.0
H339 H 0.71479 0.26861 0.73899 0.0
H340 H 0.74893 0.26795 0.71129 0.0
H341 H 0.73286 0.29858 0.73265 0.0
C342 C 0.73399 0.27768 0.75135 0.0
C343 C 0.5762 0.28297 0.9556 0.0
H344 H 0.57524 0.29843 1.00518 0.0
H345 H 0.58435 0.26495 0.98369 0.0
H346 H 0.55646 0.27833 0.9311 0.0
O347 O 0.64469 0.31911 0.01854 0.0
O348 O 0.6872 0.31679 1.00386 0.0
C349 C 0.64814 0.25066 0.02479 0.0
O350 O 0.68869 0.31136 0.79966 0.0
O351 O 0.65567 0.33209 0.85135 0.0
Zn352 Zn 0.94748 0.77019 0.38983 0.0
O353 O 0.94318 0.80074 0.28638 0.0
C354 C 0.97204 0.72825 0.27554 0.0
Zn355 Zn 0.99093 0.77039 0.39112 0.0
C356 C 0.96573 0.8083 0.26298 0.0
O357 O 0.98489 0.79716 0.29611 0.0
C358 C 0.97881 0.73036 0.51228 0.0
O359 O 0.98945 0.80155 0.47754 0.0
O360 O 0.94718 0.80374 0.48983 0.0
N361 N 0.02937 0.77729 0.36508 0.0
C362 C 0.03398 0.80321 0.3712 0.0
C363 C 0.03724 0.79298 0.24075 0.0
N364 N 0.03342 0.77078 0.28475 0.0
N365 N 0.03621 0.8141 0.29252 0.0
C366 C 0.88614 0.77904 0.36569 0.0
C367 C 0.87154 0.74057 0.38614 0.0
N368 N 0.90655 0.76423 0.39222 0.0
N369 N 0.89719 0.74039 0.40519 0.0
N370 N 0.86388 0.76452 0.35989 0.0
H371 H 0.90211 0.8167 0.39764 0.0
H372 H 0.86849 0.81738 0.36196 0.0
H373 H 0.89469 0.81228 0.28743 0.0
C374 C 0.88782 0.80807 0.35269 0.0
C375 C 0.04538 0.81387 0.45198 0.0
H376 H 0.03376 0.80762 0.50704 0.0
H377 H 0.04766 0.83519 0.45324 0.0
H378 H 0.06443 0.8045 0.46337 0.0
O379 O 0.9982 0.74334 0.48487 0.0
O380 O 0.95568 0.7376 0.48937 0.0
C381 C 0.96977 0.81305 0.50863 0.0
O382 O 0.94976 0.73806 0.29295 0.0
O383 O 0.9921 0.73891 0.30671 0.0
Zn384 Zn 0.56853 0.65386 0.64439 0.0
O385 O 0.53437 0.65618 0.55258 0.0
C386 C 0.60744 0.67156 0.5134 0.0
Zn387 Zn 0.57263 0.69729 0.63375 0.0
C388 C 0.52848 0.67904 0.52508 0.0
O389 O 0.54215 0.69817 0.54854 0.0
C390 C 0.61431 0.67792 0.74748 0.0
O391 O 0.54364 0.70279 0.73392 0.0
O392 O 0.53974 0.66048 0.7549 0.0
N393 N 0.57797 0.73542 0.60545 0.0
C394 C 0.57479 0.75413 0.66301 0.0
C395 C 0.55467 0.76583 0.55425 0.0
N396 N 0.56699 0.74356 0.53475 0.0
N397 N 0.5574 0.77219 0.63751 0.0
C398 C 0.56574 0.59335 0.58628 0.0
C399 C 0.56288 0.57282 0.70312 0.0
N400 N 0.56569 0.6118 0.64905 0.0
N401 N 0.56389 0.59875 0.72141 0.0
N402 N 0.56424 0.56859 0.61852 0.0
H403 H 0.55563 0.6186 0.48174 0.0
H404 H 0.55614 0.58407 0.45603 0.0
H405 H 0.58609 0.60203 0.47124 0.0
C406 C 0.56571 0.59982 0.49347 0.0
C407 C 0.59439 0.75901 0.73047 0.0
H408 H 0.59342 0.74299 0.77665 0.0
H409 H 0.59111 0.77835 0.76063 0.0
H410 H 0.61418 0.75821 0.70257 0.0
O411 O 0.6034 0.6979 0.71604 0.0
O412 O 0.60378 0.65531 0.73471 0.0
C413 C 0.53268 0.68402 0.77404 0.0
O414 O 0.59691 0.6502 0.53774 0.0
O415 O 0.59915 0.69284 0.5426 0.0
Zn416 Zn 0.04809 0.34603 0.18739 0.0
O417 O 0.07833 0.34961 0.28099 0.0
C418 C 1.01106 0.37968 0.29602 0.0
Zn419 Zn 0.05621 0.39109 0.1754 0.0
C420 C 0.0923 0.36838 0.30755 0.0
O421 O 0.08816 0.39141 0.27676 0.0
C422 C 1.01379 0.36349 0.05817 0.0
O423 O 0.08629 0.38408 0.07412 0.0
O424 O 0.07751 0.34302 0.09484 0.0
N425 N 0.05576 0.4314 0.1495 0.0
C426 C 0.07177 0.44989 0.1161 0.0
C427 C 0.03452 0.46753 0.1316 0.0
N428 N 0.03273 0.44265 0.15878 0.0
N429 N 0.05873 0.47287 0.10341 0.0
C430 C 0.03936 0.31909 0.33428 0.0
C431 C 0.02261 0.28736 0.27381 0.0
N432 N 0.02175 0.32921 0.2805 0.0
N433 N 1.00879 0.30858 0.25124 0.0
N434 N 0.04473 0.29424 0.31496 0.0
H435 H 0.04818 0.35289 0.40983 0.0
H436 H 0.06246 0.32248 0.44904 0.0
H437 H 0.02836 0.32958 0.46063 0.0
C438 C 0.04535 0.33158 0.41821 0.0
C439 C 0.10019 0.44545 0.10095 0.0
H440 H 0.10798 0.43156 0.14878 0.0
H441 H 0.11115 0.46419 0.10397 0.0
H442 H 0.1029 0.43642 0.0374 0.0
O443 O 0.02479 0.38553 0.07574 0.0
O444 O 0.02075 0.34298 0.09677 0.0
C445 C 0.09078 0.36008 0.05673 0.0
O446 O 1.01723 0.35763 0.26626 0.0
O447 O 0.02552 0.39911 0.27745 0.0
Zn448 Zn 0.58151 0.34091 0.39677 0.0
O449 O 0.55828 0.33719 0.2827 0.0
C450 C 0.61771 0.37341 0.29703 0.0
Zn451 Zn 0.57027 0.38251 0.40518 0.0
C452 C 0.54215 0.3542 0.25656 0.0
O453 O 0.54094 0.37612 0.29714 0.0
C454 C 0.61169 0.36449 0.53184 0.0
O455 O 0.53945 0.37002 0.50068 0.0
O456 O 0.54924 0.32924 0.46958 0.0
N457 N 0.56154 0.42348 0.41759 0.0
C458 C 0.56296 0.44097 0.483 0.0
C459 C 0.55572 0.46307 0.37122 0.0
N460 N 0.55689 0.43753 0.3486 0.0
N461 N 0.55951 0.46603 0.45547 0.0
C462 C 0.59137 0.29301 0.3093 0.0
C463 C 0.57865 0.26549 0.39853 0.0
N464 N 0.59344 0.30404 0.38569 0.0
N465 N 0.5865 0.28658 0.44254 0.0
N466 N 0.57895 0.26982 0.3139 0.0
H467 H 0.59888 0.31478 0.19485 0.0
H468 H 0.61532 0.28333 0.20077 0.0
H469 H 0.62692 0.31018 0.26208 0.0
C470 C 0.60899 0.30078 0.23739 0.0
C471 C 0.56991 0.43364 0.57206 0.0
H472 H 0.56447 0.41297 0.58487 0.0
H473 H 0.56006 0.44671 0.6183 0.0
H474 H 0.59124 0.43594 0.58059 0.0
O475 O 0.60074 0.38561 0.50661 0.0
O476 O 0.60414 0.34291 0.50157 0.0
C477 C 0.53491 0.34536 0.50963 0.0
O478 O 0.61323 0.35134 0.32914 0.0
O479 O 0.6014 0.39192 0.31022 0.0
Zn480 Zn 0.05896 0.6567 0.9055 0.0
O481 O 0.08527 0.66741 1.012 0.0
C482 C 1.01853 0.66638 0.03969 0.0
Zn483 Zn 0.04734 0.69688 0.91679 0.0
C484 C 0.09091 0.69131 0.02912 0.0
O485 O 0.07848 0.70958 0.99232 0.0
C486 C 1.0157 0.66602 0.78635 0.0
O487 O 0.06962 0.7076 0.80719 0.0
O488 O 0.09006 0.66963 0.81544 0.0
N489 N 0.02712 0.73085 0.929 0.0
C490 C 1.00817 0.73792 0.87468 0.0
C491 C 0.99667 0.7508 0.99795 0.0
N492 N 0.01986 0.73877 1.00556 0.0
N493 N 0.98826 0.75028 0.91666 0.0
C494 C 0.07021 0.59934 0.97328 0.0
C495 C 0.07652 0.57771 0.85979 0.0
N496 N 0.07031 0.61687 0.90841 0.0
N497 N 0.07432 0.60321 0.83811 0.0
N498 N 0.07385 0.57435 0.94451 0.0
H499 H 0.07327 0.62737 0.07608 0.0
H500 H 0.07844 0.59396 0.10652 0.0
H501 H 0.04606 0.60583 0.08231 0.0
C502 C 0.06695 0.60705 0.06469 0.0
C503 C 1.0111 0.73418 0.78001 0.0
H504 H 1.01775 0.75214 0.74847 0.0
H505 H 0.99265 0.72762 0.75147 0.0
H506 H 0.02675 0.7204 0.76378 0.0
O507 O 1.0146 0.68367 0.84235 0.0
O508 O 0.03417 0.6495 0.79267 0.0
C509 C 0.08806 0.69263 0.7827 0.0
O510 O 0.02596 0.64668 0.99595 0.0
O511 O 0.02799 0.68827 0.023 0.0
C512 C 0.13315 0.16037 0.86805 0.0
C513 C 0.13854 0.16256 0.95525 0.0
C514 C 0.14616 0.17619 0.8082 0.0
C515 C 0.1647 0.19526 0.83316 0.0
H516 H 0.11631 0.14926 0.84715 0.0
H517 H 0.13915 0.17596 0.7433 0.0
S518 S 0.19111 0.20327 0.04959 0.0
N519 N 0.16825 0.18067 0.06013 0.0
N520 N 0.19169 0.21112 0.94797 0.0
C521 C 0.17314 0.19462 0.91753 0.0
C522 C 0.16033 0.17802 0.97832 0.0
C523 C 0.15452 0.85747 0.17497 0.0
C524 C 0.16596 0.83224 0.17504 0.0
C525 C 0.13761 0.86583 0.10935 0.0
C526 C 0.13037 0.84889 0.04243 0.0
H527 H 0.15673 0.86998 0.23024 0.0
H528 H 0.12844 0.88486 0.11524 0.0
S529 S 0.15774 0.78218 1.00643 0.0
N530 N 0.17142 0.79192 0.09599 0.0
N531 N 0.13905 0.80666 0.97556 0.0
C532 C 0.14347 0.82447 0.03822 0.0
C533 C 0.16134 0.81644 0.10352 0.0
C534 C 0.45844 0.85349 0.41109 0.0
C535 C 0.47171 0.84672 0.3363 0.0
C536 C 0.46971 0.87124 0.46971 0.0
C537 C 0.49493 0.88162 0.45686 0.0
H538 H 0.44094 0.84298 0.42882 0.0
H539 H 0.46045 0.87374 0.53098 0.0
S540 S 0.53375 0.87586 0.26004 0.0
N541 N 0.50804 0.85711 0.24308 0.0
N542 N 0.52943 0.88893 0.35505 0.0
C543 C 0.50588 0.87862 0.37609 0.0
C544 C 0.49435 0.86115 0.31584 0.0
C545 C 0.46535 0.1756 0.71444 0.0
C546 C 0.45006 0.19878 0.71048 0.0
C547 C 0.48302 0.16879 0.64856 0.0
C548 C 0.48574 0.18484 0.57655 0.0
H549 H 0.46652 0.16483 0.77354 0.0
H550 H 0.49651 0.15279 0.65877 0.0
S551 S 0.44045 0.23879 0.51862 0.0
N552 N 0.43215 0.23139 0.61653 0.0
N553 N 0.46437 0.21859 0.49306 0.0
C554 C 0.46654 0.20443 0.56528 0.0
C555 C 0.44873 0.21123 0.63184 0.0
C556 C 0.98504 0.809 0.12246 0.0
C557 C 0.9721 0.82359 0.18466 0.0
C558 C 1.00233 0.82048 0.06513 0.0
C559 C 1.0067 0.84776 0.06007 0.0
H560 H 0.98396 0.78779 0.12389 0.0
H561 H 1.01334 0.80712 0.02674 0.0
S562 S 0.97834 0.89573 0.2117 0.0
N563 N 0.96618 0.86732 0.24318 0.0
N564 N 0.99639 0.88948 0.12699 0.0
C565 C 0.99306 0.86319 0.12015 0.0
C566 C 0.97631 0.85105 0.18351 0.0
C567 C 0.98952 0.1905 0.83492 0.0
C568 C 0.98042 0.21652 0.84353 0.0
C569 C 1.00698 0.17911 0.89481 0.0
C570 C 1.01603 0.19346 0.96567 0.0
H571 H 0.98428 0.17944 0.77886 0.0
H572 H 1.01471 0.15974 0.88249 0.0
S573 S 0.99384 0.26045 0.02615 0.0
N574 N 0.97908 0.25468 0.93487 0.0
N575 N 1.01067 0.23371 0.0474 0.0
C576 C 1.00474 0.21846 0.97907 0.0
C577 C 0.98726 0.22984 0.91837 0.0
C578 C 0.63404 0.25309 0.62588 0.0
C579 C 0.64545 0.2402 0.69527 0.0
C580 C 0.6184 0.23978 0.56626 0.0
C581 C 0.61198 0.21294 0.573 0.0
H582 H 0.63626 0.27412 0.61943 0.0
H583 H 0.61048 0.25114 0.51569 0.0
S584 S 0.64003 0.16865 0.73615 0.0
N585 N 0.65225 0.19768 0.76106 0.0
N586 N 0.62172 0.17306 0.65094 0.0
C587 C 0.62507 0.19913 0.6381 0.0
C588 C 0.64192 0.21265 0.69842 0.0
C589 C 0.61144 0.85414 0.37936 0.0
C590 C 0.60586 0.84238 0.45853 0.0
C591 C 0.6258 0.84061 0.31526 0.0
C592 C 0.63553 0.81496 0.32812 0.0
H593 H 0.60342 0.87325 0.36496 0.0
H594 H 0.62819 0.84979 0.25379 0.0
S595 S 0.62847 0.77616 0.52504 0.0
N596 N 0.61299 0.80378 0.5462 0.0
N597 N 0.63962 0.77918 0.42736 0.0
C598 C 0.63104 0.80362 0.40779 0.0
C599 C 0.61643 0.81709 0.47237 0.0
C600 C 0.62269 0.70118 0.31426 0.0
C601 C 0.64735 0.71271 0.32828 0.0
C602 C 0.61263 0.68146 0.3659 0.0
C603 C 0.62522 0.6744 0.44093 0.0
H604 H 0.60965 0.70852 0.26696 0.0
H605 H 0.59272 0.67514 0.35464 0.0
S606 S 0.69035 0.69787 0.51033 0.0
N607 N 0.68538 0.71334 0.41958 0.0
N608 N 0.66441 0.67926 0.52612 0.0
C609 C 0.65044 0.68469 0.45508 0.0
C610 C 0.66177 0.70344 0.39766 0.0
C611 C 0.67006 0.3354 0.64203 0.0
C612 C 0.66943 0.34772 0.72165 0.0
C613 C 0.65284 0.34306 0.57752 0.0
C614 C 0.6345 0.36342 0.58988 0.0
H615 H 0.68125 0.3176 0.63303 0.0
H616 H 0.65234 0.33136 0.51998 0.0
S617 S 0.63042 0.4066 0.77819 0.0
N618 N 0.65334 0.38515 0.80237 0.0
N619 N 0.62066 0.39907 0.68115 0.0
C620 C 0.63652 0.37844 0.66396 0.0
C621 C 0.65427 0.3708 0.72959 0.0
C622 C 1.00378 0.36522 0.90391 0.0
C623 C 0.99545 0.35952 0.98666 0.0
C624 C 0.99403 0.35098 0.83422 0.0
C625 C 0.97526 0.33097 0.84469 0.0
H626 H 0.02 0.37844 0.8939 0.0
H627 H 1.00287 0.35411 0.77259 0.0
S628 S 0.94286 0.31308 0.0462 0.0
N629 N 0.96429 0.33576 0.07363 0.0
N630 N 0.94554 0.30963 0.94218 0.0
C631 C 0.96427 0.3277 0.92535 0.0
C632 C 0.97447 0.34188 0.99651 0.0
C633 C 0.99596 0.68654 0.24708 0.0
C634 C 0.97601 0.70411 0.22318 0.0
C635 C 1.00645 0.66823 0.18948 0.0
C636 C 0.99781 0.66708 0.10487 0.0
H637 H 1.00519 0.68853 0.30869 0.0
H638 H 0.02398 0.65784 0.2077 0.0
S639 S 0.9426 0.70493 1.01496 0.0
N640 N 0.94512 0.71597 0.11341 0.0
N641 N 0.965 0.68188 1.00484 0.0
C642 C 0.97536 0.68182 0.08428 0.0
C643 C 0.96462 0.70052 0.14304 0.0
C644 C 0.50436 0.30865 0.54806 0.0
C645 C 0.51394 0.33405 0.56623 0.0
C646 C 0.48875 0.2946 0.60584 0.0
C647 C 0.48132 0.3053 0.68453 0.0
H648 H 0.50998 0.29889 0.48978 0.0
H649 H 0.48343 0.27461 0.59026 0.0
S650 S 0.49915 0.37173 0.76229 0.0
N651 N 0.5133 0.36986 0.66812 0.0
N652 N 0.48361 0.34366 0.77597 0.0
C653 C 0.48924 0.33131 0.70172 0.0
C654 C 0.50551 0.34563 0.64286 0.0
C655 C 0.48809 0.70408 0.48993 0.0
C656 C 0.50689 0.6853 0.46467 0.0
C657 C 0.47472 0.71989 0.43036 0.0
C658 C 0.4798 0.71778 0.3428 0.0
H659 H 0.48559 0.70842 0.55687 0.0
H660 H 0.46251 0.73565 0.45369 0.0
S661 S 0.52567 0.67066 0.24251 0.0
N662 N 0.52829 0.66456 0.34516 0.0
N663 N 0.50352 0.69398 0.23373 0.0
C664 C 0.49696 0.69767 0.31654 0.0
C665 C 0.51038 0.68152 0.3771 0.0
C666 C 0.14809 0.72455 0.13898 0.0
C667 C 0.14019 0.72444 0.2245 0.0
C668 C 0.13291 0.7122 0.07565 0.0
C669 C 0.10994 0.69843 0.09632 0.0
H670 H 0.16485 0.73601 0.1201 0.0
H671 H 0.13845 0.71454 1.00972 0.0
S672 S 0.08269 0.68959 0.31203 0.0
N673 N 0.10897 0.70775 0.32695 0.0
N674 N 0.08141 0.68356 0.20896 0.0
C675 C 0.10317 0.69629 0.18226 0.0
C676 C 0.11811 0.70946 0.24614 0.0
C677 C 0.14407 0.32398 0.93124 0.0
C678 C 0.13081 0.31688 0.85592 0.0
C679 C 0.13212 0.34019 0.99403 0.0
C680 C 0.10686 0.35079 0.98279 0.0
H681 H 0.16303 0.31563 0.94433 0.0
H682 H 0.14214 0.34323 0.0538 0.0
S683 S 0.064 0.33896 0.79744 0.0
N684 N 0.0908 0.32254 0.77483 0.0
N685 N 0.06944 0.35307 0.89013 0.0
C686 C 0.09411 0.34481 0.90641 0.0
C687 C 0.10578 0.32798 0.84388 0.0
C688 C 0.09273 0.29473 0.3141 0.0
C689 C 0.069 0.29233 0.26958 0.0
C690 C 0.11654 0.29244 0.27099 0.0
C691 C 0.11661 0.28585 0.18463 0.0
H692 H 0.09287 0.29601 0.38265 0.0
H693 H 0.13381 0.28857 0.30814 0.0
S694 S 0.06214 0.29032 0.03284 0.0
N695 N 0.04873 0.29177 0.12779 0.0
N696 N 0.09373 0.29089 0.0511 0.0
C697 C 0.0944 0.29256 0.13751 0.0
C698 C 0.07002 0.29263 0.17936 0.0
C699 C 0.05152 0.8456 0.18539 0.0
C700 C 0.03855 0.84106 0.26382 0.0
C701 C 0.07324 0.86265 0.18579 0.0
C702 C 0.08466 0.86584 0.26668 0.0
H703 H 0.05031 0.83164 0.1339 0.0
H704 H 0.08533 0.86262 0.13058 0.0
S705 S 0.03697 0.89911 0.40381 0.0
N706 N 0.02168 0.87292 0.36597 0.0
N707 N 0.06705 0.89828 0.36562 0.0
C708 C 0.0654 0.87566 0.32069 0.0
C709 C 0.04139 0.86188 0.32174 0.0
C710 C 0.53055 0.75795 0.76431 0.0
C711 C 0.53446 0.77619 0.69112 0.0
C712 C 0.50176 0.76147 0.79821 0.0
C713 C 0.47513 0.77745 0.77938 0.0
H714 H 0.54462 0.74511 0.79215 0.0
H715 H 0.50055 0.75138 0.85729 0.0
S716 S 0.44354 0.82449 0.62141 0.0
N717 N 0.47488 0.82674 0.59398 0.0
N718 N 0.44074 0.80563 0.7077 0.0
C719 C 0.466 0.79988 0.72199 0.0
C720 C 0.48469 0.81295 0.65986 0.0
C721 C 0.59744 0.23965 0.81768 0.0
C722 C 0.58535 0.26023 0.77247 0.0
C723 C 0.59015 0.21376 0.80463 0.0
C724 C 0.5679 0.20913 0.75692 0.0
H725 H 0.61098 0.24351 0.86802 0.0
H726 H 0.59678 0.19917 0.84951 0.0
S727 S 0.54111 0.25316 0.59103 0.0
N728 N 0.55965 0.27221 0.65028 0.0
N729 N 0.54481 0.22325 0.62887 0.0
C730 C 0.56235 0.22762 0.69173 0.0
C731 C 0.57002 0.254 0.70316 0.0
C732 C 0.9825 0.8104 0.87692 0.0
C733 C 0.99616 0.80227 0.80341 0.0
C734 C 0.96662 0.79174 0.91855 0.0
C735 C 0.96682 0.76612 0.88501 0.0
H736 H 0.98743 0.82865 0.90741 0.0
H737 H 0.95938 0.79545 0.98173 0.0
S738 S 0.9545 0.76542 0.65667 0.0
N739 N 0.97928 0.78584 0.66907 0.0
N740 N 0.94668 0.75393 0.7513 0.0
C741 C 0.96439 0.76741 0.79734 0.0
C742 C 0.98128 0.78492 0.75425 0.0
C743 C 0.59309 0.79644 0.93557 0.0
C744 C 0.59654 0.76901 0.93407 0.0
C745 C 0.59063 0.80936 1.01509 0.0
C746 C 0.58916 0.79416 0.09006 0.0
H747 H 0.58547 0.80621 0.88015 0.0
H748 H 0.58365 0.82938 0.01609 0.0
S749 S 0.61635 0.72218 0.11086 0.0
N750 N 0.62097 0.73399 1.01001 0.0
N751 N 0.60064 0.74999 0.15023 0.0
C752 C 0.60069 0.7693 0.08608 0.0
C753 C 0.61129 0.76013 1.00457 0.0
C754 C 0.5332 0.2725 0.12053 0.0
C755 C 0.50237 0.26787 0.13967 0.0
C756 C 0.56105 0.27167 0.16515 0.0
C757 C 0.55687 0.2652 0.25678 0.0
H758 H 0.5356 0.27697 0.05439 0.0
H759 H 0.57915 0.27517 0.13312 0.0
S760 S 0.45312 0.25649 0.31624 0.0
N761 N 0.45873 0.26157 0.21306 0.0
N762 N 0.48137 0.25196 0.36714 0.0
C763 C 0.49677 0.253 0.29775 0.0
C764 C 0.4849 0.25954 0.21266 0.0
C765 C 0.07042 0.18808 0.46603 0.0
C766 C 0.0782 0.17811 0.54498 0.0
C767 C 0.05109 0.20757 0.47062 0.0
C768 C 0.03695 0.20991 0.54775 0.0
H769 H 0.08295 0.18669 0.41112 0.0
H770 H 0.05086 0.22205 0.42127 0.0
S771 S 0.02909 0.15324 0.69192 0.0
N772 N 0.05649 0.14748 0.63979 0.0
N773 N 1.0172 0.1811 0.65439 0.0
C774 C 0.03515 0.18616 0.59369 0.0
C775 C 0.05607 0.16803 0.58545 0.0
C776 C 0.04488 0.02482 0.08927 0.0
C777 C 0.06452 0.04395 0.07908 0.0
C778 C 0.04664 0.99996 0.04967 0.0
C779 C 0.06824 0.99321 0.99891 0.0
H780 H 0.0278 0.02936 0.12684 0.0
H781 H 0.03068 0.98625 0.0567 0.0
S782 S 0.12658 0.03459 0.96213 0.0
N783 N 0.10757 0.05295 0.02238 0.0
N784 N 0.11048 1.00697 0.94625 0.0
C785 C 0.08833 1.01183 0.9908 0.0
C786 C 0.08663 0.03693 0.03141 0.0
C787 C 0.31233 0.7579 0.34858 0.0
C788 C 0.28936 0.76805 0.31194 0.0
C789 C 0.33688 0.76021 0.30831 0.0
C790 C 0.33968 0.77255 0.22856 0.0
H791 H 0.31139 0.74868 0.41038 0.0
H792 H 0.3538 0.75335 0.34234 0.0
S793 S 0.28598 0.80447 0.10831 0.0
N794 N 0.27167 0.79312 0.19454 0.0
N795 N 0.31679 0.79557 0.1158 0.0
C796 C 0.3167 0.78266 0.1912 0.0
C797 C 0.29191 0.78088 0.23329 0.0
C798 C 0.58677 0.04712 0.56309 0.0
C799 C 0.56702 0.05446 0.5059 0.0
C800 C 0.5881 1.02138 0.59648 0.0
C801 C 0.5699 1.0017 0.57379 0.0
H802 H 0.60166 0.06119 0.5804 0.0
H803 H 0.60378 1.01671 0.63988 0.0
S804 S 0.51268 1.01211 0.43326 0.0
N805 N 0.52814 0.0405 0.4314 0.0
N806 N 0.52976 0.99295 0.49671 0.0
C807 C 0.54954 1.00925 0.5188 0.0
C808 C 0.5484 0.03532 0.48417 0.0
C809 C 0.32907 0.26166 0.7774 0.0
C810 C 0.33571 0.27934 0.84303 0.0
C811 C 0.30432 0.26208 0.73832 0.0
C812 C 0.28471 0.27971 0.76418 0.0
H813 H 0.34296 0.24712 0.75644 0.0
H814 H 0.3004 0.24836 0.68729 0.0
S815 S 0.29164 0.32997 0.93321 0.0
N816 N 0.32013 0.31491 0.93241 0.0
N817 N 0.27383 0.31553 0.85923 0.0
C818 C 0.29081 0.29715 0.83066 0.0
C819 C 0.31612 0.29689 0.87017 0.0
C820 C 0.80944 0.25349 0.84321 0.0
C821 C 0.79051 0.27302 0.82864 0.0
C822 C 0.8338 0.25377 0.80104 0.0
C823 C 0.84035 0.27376 0.74309 0.0
H824 H 0.80518 0.23764 0.88663 0.0
H825 H 0.84733 0.23792 0.81246 0.0
S826 S 0.79917 0.33123 0.69057 0.0
N827 N 0.78132 0.31426 0.75822 0.0
N828 N 0.82638 0.31443 0.67786 0.0
C829 C 0.82182 0.29369 0.7297 0.0
C830 C 0.79718 0.29348 0.77286 0.0
C831 C 0.8156 0.75919 0.35994 0.0
C832 C 0.83828 0.77027 0.32398 0.0
C833 C 0.7909 0.76127 0.32051 0.0
C834 C 0.78752 0.77482 0.24315 0.0
H835 H 0.81713 0.74803 0.41813 0.0
H836 H 0.77477 0.75104 0.34928 0.0
S837 S 0.84082 0.80613 0.11914 0.0
N838 N 0.85571 0.79368 0.20261 0.0
N839 N 0.80964 0.7994 0.13218 0.0
C840 C 0.8101 0.78628 0.2072 0.0
C841 C 0.83526 0.78365 0.24648 0.0
C842 C 0.54581 0.52336 0.60431 0.0
C843 C 0.5635 0.54288 0.57688 0.0
C844 C 0.54493 0.49813 0.56638 0.0
C845 C 0.56188 0.49111 0.49968 0.0
H846 H 0.53221 0.52781 0.6549 0.0
H847 H 0.53048 0.48421 0.58807 0.0
S848 S 0.61391 0.53334 0.41037 0.0
N849 N 0.60012 0.55194 0.48369 0.0
N850 N 0.59778 0.50532 0.41106 0.0
C851 C 0.57999 0.51016 0.47296 0.0
C852 C 0.58105 0.53572 0.51192 0.0
C853 C 0.05737 0.54561 0.06208 0.0
C854 C 0.07255 0.54904 0.98819 0.0
C855 C 0.0547 0.52109 0.10158 0.0
C856 C 0.06609 0.49818 0.06802 0.0
H857 H 0.04615 0.56148 0.08836 0.0
H858 H 0.04253 0.51985 0.15762 0.0
S859 S 0.1049 0.49496 0.86925 0.0
N860 N 0.09838 0.52645 0.88092 0.0
N861 N 0.09113 0.48014 0.95082 0.0
C862 C 0.08069 0.50088 0.99278 0.0
C863 C 0.08423 0.52619 0.95384 0.0
C864 C 0.13646 0.16739 0.41601 0.0
C865 C 0.13863 0.17543 0.3307 0.0
C866 C 0.14959 0.18096 0.48275 0.0
C867 C 0.16567 0.20329 0.46826 0.0
H868 H 0.1228 0.15205 0.43247 0.0
H869 H 0.14518 0.17532 0.54747 0.0
S870 S 0.18106 0.23039 0.25665 0.0
N871 N 0.16136 0.20559 0.23603 0.0
N872 N 0.18477 0.2308 0.36065 0.0
C873 C 0.16992 0.2099 0.38317 0.0
C874 C 0.15677 0.19612 0.31514 0.0
C875 C 0.15486 0.86985 0.56701 0.0
C876 C 0.16842 0.84612 0.58188 0.0
C877 C 0.13623 0.87968 0.62539 0.0
C878 C 0.13157 0.86672 0.7025 0.0
H879 H 0.15576 0.87865 0.50455 0.0
H880 H 0.12365 0.89561 0.60602 0.0
S881 S 0.16847 0.80944 0.78388 0.0
N882 N 0.18022 0.81396 0.68745 0.0
N883 N 0.14683 0.83293 0.79896 0.0
C884 C 0.14859 0.84601 0.72412 0.0
C885 C 0.16697 0.83583 0.66404 0.0
C886 C 0.4968 0.86517 1.00711 0.0
C887 C 0.47451 0.84907 0.99455 0.0
C888 C 0.50865 0.87944 0.94002 0.0
C889 C 0.49752 0.88026 0.85839 0.0
H890 H 0.50639 0.86538 0.06819 0.0
H891 H 0.52769 0.88801 0.9506 0.0
S892 S 0.43075 0.85644 0.80945 0.0
N893 N 0.43665 0.84403 0.90428 0.0
N894 N 0.45736 0.87244 0.78087 0.0
C895 C 0.47231 0.86908 0.85102 0.0
C896 C 0.46096 0.85349 0.91833 0.0
C897 C 0.46709 0.18586 0.24033 0.0
C898 C 0.4887 0.16909 0.22557 0.0
C899 C 0.45458 0.19951 0.17366 0.0
C900 C 0.46343 0.1972 0.08975 0.0
H901 H 0.46196 0.19108 0.30497 0.0
H902 H 0.44002 0.21404 0.18923 0.0
S903 S 0.51338 0.14995 1.01355 0.0
N904 N 0.51374 0.1464 0.11783 0.0
N905 N 0.49053 0.17184 0.99321 0.0
C906 C 0.48168 0.17701 0.07286 0.0
C907 C 0.49425 0.16298 0.14059 0.0
C908 C 0.99822 0.85123 0.54364 0.0
C909 C 0.97565 0.83692 0.56411 0.0
C910 C 1.01187 0.86691 0.60251 0.0
C911 C 1.00326 0.86981 0.68652 0.0
H912 H 1.00683 0.84793 0.48298 0.0
H913 H 0.03093 0.87418 0.5847 0.0
S914 S 0.93956 0.84511 0.76645 0.0
N915 N 0.94136 0.8327 0.66946 0.0
N916 N 0.96656 0.86229 0.78125 0.0
C917 C 0.97837 0.85902 0.70488 0.0
C918 C 0.9645 0.84279 0.6437 0.0
C919 C 0.98839 0.23444 0.3591 0.0
C920 C 0.97798 0.22113 0.43004 0.0
C921 C 1.0068 0.22275 0.30328 0.0
C922 C 1.01568 0.19674 0.3136 0.0
H923 H 0.98416 0.25509 0.35138 0.0
H924 H 1.01504 0.23462 0.25321 0.0
S925 S 0.99006 0.15079 0.47643 0.0
N926 N 0.97528 0.17875 0.49901 0.0
N927 N 1.00853 0.15648 0.39242 0.0
C928 C 1.00299 0.18208 0.37778 0.0
C929 C 0.98463 0.19428 0.43618 0.0
C930 C 0.6185 0.21226 0.06215 0.0
C931 C 0.63797 0.23039 0.08709 0.0
C932 C 0.60509 0.19622 0.12163 0.0
C933 C 0.61018 0.19766 0.20968 0.0
H934 H 0.61286 0.21116 0.99604 0.0
H935 H 0.5893 0.18397 0.09895 0.0
S936 S 0.65796 0.2429 0.30995 0.0
N937 N 0.66123 0.24873 0.20728 0.0
N938 N 0.63563 0.21971 0.31824 0.0
C939 C 0.62985 0.21543 0.23514 0.0
C940 C 0.64384 0.23138 0.17446 0.0
C941 C 0.61654 0.86126 0.91208 0.0
C942 C 0.61389 0.8509 0.82929 0.0
C943 C 0.63374 0.84989 0.97265 0.0
C944 C 0.64957 0.8279 0.95325 0.0
H945 H 0.60373 0.87691 0.93251 0.0
H946 H 0.63288 0.85693 0.03755 0.0
S947 S 0.65432 0.79707 0.74024 0.0
N948 N 0.63173 0.81982 0.72797 0.0
N949 N 0.66398 0.79909 0.84008 0.0
C950 C 0.64912 0.81935 0.86804 0.0
C951 C 0.63131 0.83057 0.80688 0.0
C952 C 0.65435 0.70466 0.76944 0.0
C953 C 0.63891 0.68333 0.79711 0.0
C954 C 0.6701 0.71919 0.82559 0.0
C955 C 0.67184 0.71287 0.91226 0.0
H956 H 0.65197 0.71213 0.7055 0.0
H957 H 0.67872 0.73724 0.80272 0.0
S958 S 0.6405 0.65526 1.01389 0.0
N959 N 0.63019 0.65389 0.91448 0.0
N960 N 0.66026 0.68081 0.0198 0.0
C961 C 0.65962 0.68932 0.93821 0.0
C962 C 0.64317 0.67457 0.88072 0.0
C963 C 0.66102 0.35716 0.25167 0.0
C964 C 0.63977 0.37419 0.23593 0.0
C965 C 0.6743 0.34452 0.18492 0.0
C966 C 0.66729 0.34921 0.10035 0.0
H967 H 0.66477 0.35049 0.31583 0.0
H968 H 0.6873 0.32847 0.20003 0.0
S969 S 0.61905 0.39808 0.02514 0.0
N970 N 0.61661 0.39927 0.12969 0.0
N971 N 0.64247 0.37682 1.00439 0.0
C972 C 0.64978 0.37001 0.08431 0.0
C973 C 0.63576 0.38229 0.15216 0.0
C974 C 0.9693 0.36135 0.34475 0.0
C975 C 0.99055 0.37829 0.36296 0.0
C976 C 0.9599 0.34313 0.40491 0.0
C977 C 0.97065 0.342 0.48673 0.0
H978 H 0.96291 0.35904 0.27952 0.0
H979 H 0.94638 0.32811 0.38422 0.0
S980 S 1.01909 0.38861 0.5761 0.0
N981 N 1.01684 0.39712 0.47518 0.0
N982 N 0.99838 0.36417 0.58944 0.0
C983 C 0.98815 0.36219 0.51011 0.0
C984 C 0.99803 0.38031 0.44831 0.0
C985 C 1.01887 0.67971 0.63519 0.0
C986 C 1.00276 0.67238 0.70331 0.0
C987 C 1.01019 0.69709 0.57174 0.0
C988 C 0.98463 0.70756 0.57117 0.0
H989 H 0.03924 0.67427 0.6358 0.0
H990 H 0.0243 0.70348 0.52498 0.0
S991 S 0.93258 0.6889 0.72318 0.0
N992 N 0.95874 0.67371 0.7594 0.0
N993 N 0.94171 0.70425 0.63569 0.0
C994 C 0.96721 0.69734 0.63206 0.0
C995 C 0.97643 0.68035 0.69906 0.0
C996 C 0.53636 0.34019 0.10237 0.0
C997 C 0.52496 0.34695 0.18121 0.0
C998 C 0.52223 0.32696 0.03738 0.0
C999 C 0.49625 0.31829 0.049 0.0
H1000 H 0.55687 0.34405 0.09218 0.0
H1001 H 0.53251 0.32162 0.97987 0.0
S1002 S 0.45641 0.33299 0.24088 0.0
N1003 N 0.48508 0.346 0.26336 0.0
N1004 N 0.45901 0.3205 0.1443 0.0
C1005 C 0.48404 0.32674 0.12514 0.0
C1006 C 0.4983 0.34082 0.19055 0.0
C1007 C 0.51034 0.70764 0.99461 0.0
C1008 C 0.48635 0.7205 0.97945 0.0
C1009 C 0.52341 0.69269 0.93135 0.0
C1010 C 0.51406 0.69071 0.84736 0.0
H1011 H 0.51975 0.71002 0.05565 0.0
H1012 H 0.54183 0.68384 0.94757 0.0
S1013 S 0.44847 0.7135 0.77959 0.0
N1014 N 0.45041 0.72352 0.87943 0.0
N1015 N 0.47614 0.69821 0.7585 0.0
C1016 C 0.48841 0.70025 0.83456 0.0
C1017 C 0.4742 0.71412 0.90122 0.0
C1018 C 0.11254 0.71918 0.57137 0.0
C1019 C 0.13596 0.7323 0.59215 0.0
C1020 C 0.09823 0.70482 0.63189 0.0
C1021 C 0.1066 0.70267 0.71657 0.0
H1022 H 0.10444 0.72109 0.50814 0.0
H1023 H 0.07978 0.69637 0.61297 0.0
S1024 S 0.16638 0.73313 0.80574 0.0
N1025 N 0.16691 0.7418 0.70459 0.0
N1026 N 0.14004 0.71486 0.81834 0.0
C1027 C 0.13041 0.71489 0.73805 0.0
C1028 C 0.14511 0.72958 0.67598 0.0
C1029 C 0.13449 0.34635 0.3519 0.0
C1030 C 0.1123 0.36132 0.37485 0.0
C1031 C 0.14721 0.32916 0.41008 0.0
C1032 C 0.13758 0.3251 0.49299 0.0
H1033 H 0.14078 0.34619 0.28623 0.0
H1034 H 0.1632 0.31723 0.38731 0.0
S1035 S 0.08452 0.36397 0.59202 0.0
N1036 N 0.08537 0.37482 0.49332 0.0
N1037 N 0.10731 0.34125 0.59887 0.0
C1038 C 0.11707 0.34173 0.51881 0.0
C1039 C 0.105 0.36005 0.46099 0.0
loop_
_geom_bond_atom_site_label_1
_geom_bond_atom_site_label_2
_geom_bond_distance
_geom_bond_site_symmetry_2
_ccdc_geom_bond_type
Zn0 O1 2.055 . S
Zn0 O8 2.046 . S
Zn0 N16 2.036 . S
Zn0 O28 2.053 . S
Zn0 O30 2.066 . S
O1 Zn0 2.055 . S
O1 C4 1.259 . S
C2 O30 1.256 . S
C2 O31 1.244 . S
Zn3 O5 2.046 . S
Zn3 O7 2.055 . S
Zn3 N9 2.036 . S
Zn3 O27 2.066 . S
Zn3 O31 2.053 . S
C4 O1 1.259 . S
C4 O5 1.254 . S
O5 Zn3 2.046 . S
O5 C4 1.254 . S
C6 O27 1.256 . S
C6 O28 1.244 . S
O7 Zn3 2.055 . S
O7 C29 1.259 . S
O8 Zn0 2.046 . S
O8 C29 1.254 . S
N9 Zn3 2.036 . S
N9 C10 1.298 . S
N9 N12 1.398 . S
C10 N9 1.298 . S
C10 N13 1.367 . S
C10 C23 1.481 . S
C11 N12 1.299 . S
C11 N13 1.379 . S
N12 N9 1.398 . S
N12 C11 1.299 . S
N13 C10 1.367 . S
N13 C11 1.379 . S
C14 N16 1.298 . S
C14 N18 1.367 . S
C14 C22 1.482 . S
C15 N17 1.299 . S
C15 N18 1.379 . S
N16 Zn0 2.036 . S
N16 C14 1.298 . S
N16 N17 1.398 . S
N17 C15 1.299 . S
N17 N16 1.398 . S
N18 C14 1.367 . S
N18 C15 1.379 . S
H19 C22 0.980 . S
H20 C22 0.980 1_556 S
H21 C22 0.980 1_556 S
C22 C14 1.482 . S
C22 H19 0.980 . S
C22 H20 0.980 1_554 S
C22 H21 0.980 1_554 S
C23 C10 1.481 . S
C23 H24 0.980 . S
C23 H25 0.981 . S
C23 H26 0.981 . S
H24 C23 0.980 . S
H25 C23 0.981 . S
H26 C23 0.981 . S
O27 Zn3 2.066 . S
O27 C6 1.256 . S
O28 Zn0 2.053 . S
O28 C6 1.244 . S
C29 O7 1.259 . S
C29 O8 1.254 . S
O30 Zn0 2.066 . S
O30 C2 1.256 . S
O31 C2 1.244 . S
O31 Zn3 2.053 . S
Zn32 O33 2.055 . S
Zn32 O40 2.046 . S
Zn32 N48 2.036 . S
Zn32 O60 2.053 . S
Zn32 O62 2.066 . S
O33 Zn32 2.055 . S
O33 C36 1.259 . S
C34 O62 1.256 . S
C34 O63 1.244 . S
Zn35 O37 2.046 . S
Zn35 O39 2.055 . S
Zn35 N41 2.036 . S
Zn35 O59 2.066 . S
Zn35 O63 2.053 . S
C36 O33 1.259 . S
C36 O37 1.254 . S
O37 Zn35 2.046 . S
O37 C36 1.254 . S
C38 O59 1.256 . S
C38 O60 1.244 . S
O39 Zn35 2.055 . S
O39 C61 1.259 . S
O40 Zn32 2.046 . S
O40 C61 1.254 . S
N41 Zn35 2.036 . S
N41 C42 1.298 . S
N41 N44 1.398 . S
C42 N41 1.298 . S
C42 N45 1.367 . S
C42 C55 1.481 . S
C43 N44 1.299 . S
C43 N45 1.379 . S
N44 N41 1.398 . S
N44 C43 1.299 . S
N45 C42 1.367 . S
N45 C43 1.379 . S
C46 N48 1.298 . S
C46 N50 1.367 . S
C46 C54 1.481 . S
C47 N49 1.299 . S
C47 N50 1.379 . S
N48 Zn32 2.036 . S
N48 C46 1.298 . S
N48 N49 1.398 . S
N49 C47 1.299 . S
N49 N48 1.398 . S
N50 C46 1.367 . S
N50 C47 1.379 . S
H51 C54 0.980 . S
H52 C54 0.981 . S
H53 C54 0.981 . S
C54 C46 1.481 . S
C54 H51 0.980 . S
C54 H52 0.981 . S
C54 H53 0.981 . S
C55 C42 1.481 . S
C55 H56 0.980 . S
C55 H57 0.981 . S
C55 H58 0.981 . S
H56 C55 0.980 . S
H57 C55 0.981 . S
H58 C55 0.981 . S
O59 Zn35 2.066 . S
O59 C38 1.256 . S
O60 Zn32 2.053 . S
O60 C38 1.244 . S
C61 O39 1.259 . S
C61 O40 1.254 . S
O62 Zn32 2.066 . S
O62 C34 1.256 . S
O63 C34 1.244 . S
O63 Zn35 2.053 . S
Zn64 O65 2.055 . S
Zn64 O72 2.046 . S
Zn64 N80 2.036 . S
Zn64 O92 2.053 . S
Zn64 O94 2.066 . S
O65 Zn64 2.055 . S
O65 C68 1.259 . S
C66 O94 1.256 . S
C66 O95 1.244 . S
Zn67 O69 2.046 . S
Zn67 O71 2.055 . S
Zn67 N73 2.036 . S
Zn67 O91 2.066 . S
Zn67 O95 2.053 . S
C68 O65 1.259 . S
C68 O69 1.254 . S
O69 Zn67 2.046 . S
O69 C68 1.254 . S
C70 O91 1.256 . S
C70 O92 1.244 . S
O71 Zn67 2.055 . S
O71 C93 1.259 . S
O72 Zn64 2.046 . S
O72 C93 1.254 . S
N73 Zn67 2.036 . S
N73 C74 1.298 . S
N73 N76 1.398 . S
C74 N73 1.298 . S
C74 N77 1.367 . S
C74 C87 1.481 . S
C75 N76 1.299 . S
C75 N77 1.379 . S
N76 N73 1.398 . S
N76 C75 1.299 . S
N77 C74 1.367 . S
N77 C75 1.379 . S
C78 N80 1.298 . S
C78 N82 1.367 . S
C78 C86 1.481 . S
C79 N81 1.299 . S
C79 N82 1.379 . S
N80 Zn64 2.036 . S
N80 C78 1.298 . S
N80 N81 1.398 . S
N81 C79 1.299 . S
N81 N80 1.398 . S
N82 C78 1.367 . S
N82 C79 1.379 . S
H83 C86 0.980 . S
H84 C86 0.981 . S
H85 C86 0.981 . S
C86 C78 1.481 . S
C86 H83 0.980 . S
C86 H84 0.981 . S
C86 H85 0.981 . S
C87 C74 1.481 . S
C87 H88 0.980 . S
C87 H89 0.981 . S
C87 H90 0.981 . S
H88 C87 0.980 . S
H89 C87 0.981 . S
H90 C87 0.981 . S
O91 Zn67 2.066 . S
O91 C70 1.256 . S
O92 Zn64 2.053 . S
O92 C70 1.244 . S
C93 O71 1.259 . S
C93 O72 1.254 . S
O94 Zn64 2.066 . S
O94 C66 1.256 . S
O95 C66 1.244 . S
O95 Zn67 2.053 . S
Zn96 O97 2.055 . S
Zn96 O104 2.046 . S
Zn96 N112 2.036 . S
Zn96 O124 2.053 . S
Zn96 O126 2.066 . S
O97 Zn96 2.055 . S
O97 C100 1.259 . S
C98 O126 1.256 . S
C98 O127 1.244 . S
Zn99 O101 2.046 . S
Zn99 O103 2.055 . S
Zn99 N105 2.036 . S
Zn99 O123 2.066 . S
Zn99 O127 2.053 . S
C100 O97 1.259 . S
C100 O101 1.254 . S
O101 Zn99 2.046 . S
O101 C100 1.254 . S
C102 O123 1.256 1_554 S
C102 O124 1.244 1_554 S
O103 Zn99 2.055 . S
O103 C125 1.259 1_556 S
O104 Zn96 2.046 . S
O104 C125 1.254 1_556 S
N105 Zn99 2.036 . S
N105 C106 1.298 . S
N105 N108 1.398 . S
C106 N105 1.298 . S
C106 N109 1.367 . S
C106 C119 1.481 1_556 S
C107 N108 1.299 . S
C107 N109 1.379 . S
N108 N105 1.398 . S
N108 C107 1.299 . S
N109 C106 1.367 . S
N109 C107 1.379 . S
C110 N112 1.298 . S
C110 N114 1.367 . S
C110 C118 1.481 . S
C111 N113 1.299 . S
C111 N114 1.379 . S
N112 Zn96 2.036 . S
N112 C110 1.298 . S
N112 N113 1.398 . S
N113 C111 1.299 . S
N113 N112 1.398 . S
N114 C110 1.367 . S
N114 C111 1.379 . S
H115 C118 0.980 . S
H116 C118 0.981 . S
H117 C118 0.981 . S
C118 C110 1.481 . S
C118 H115 0.980 . S
C118 H116 0.981 . S
C118 H117 0.981 . S
C119 C106 1.481 1_554 S
C119 H120 0.980 . S
C119 H121 0.981 . S
C119 H122 0.981 . S
H120 C119 0.980 . S
H121 C119 0.981 . S
H122 C119 0.981 . S
O123 Zn99 2.066 . S
O123 C102 1.256 1_556 S
O124 Zn96 2.053 . S
O124 C102 1.244 1_556 S
C125 O103 1.259 1_554 S
C125 O104 1.254 1_554 S
O126 Zn96 2.066 . S
O126 C98 1.256 . S
O127 C98 1.244 . S
O127 Zn99 2.053 . S
Zn128 O129 2.055 . S
Zn128 O136 2.046 . S
Zn128 N144 2.036 . S
Zn128 O156 2.053 . S
Zn128 O158 2.066 . S
O129 Zn128 2.055 . S
O129 C132 1.259 . S
C130 O158 1.256 . S
C130 O159 1.244 . S
Zn131 O133 2.046 . S
Zn131 O135 2.055 . S
Zn131 N137 2.036 . S
Zn131 O155 2.066 . S
Zn131 O159 2.053 . S
C132 O129 1.259 . S
C132 O133 1.254 . S
O133 Zn131 2.046 . S
O133 C132 1.254 . S
C134 O155 1.256 . S
C134 O156 1.244 . S
O135 Zn131 2.055 . S
O135 C157 1.259 . S
O136 Zn128 2.046 . S
O136 C157 1.254 . S
N137 Zn131 2.036 . S
N137 C138 1.298 . S
N137 N140 1.398 . S
C138 N137 1.298 . S
C138 N141 1.367 . S
C138 C151 1.482 . S
C139 N140 1.299 . S
C139 N141 1.379 . S
N140 N137 1.398 . S
N140 C139 1.299 . S
N141 C138 1.367 . S
N141 C139 1.379 . S
C142 N144 1.298 . S
C142 N146 1.367 . S
C142 C150 1.481 . S
C143 N145 1.299 . S
C143 N146 1.379 . S
N144 Zn128 2.036 . S
N144 C142 1.298 . S
N144 N145 1.398 . S
N145 C143 1.299 . S
N145 N144 1.398 . S
N146 C142 1.367 . S
N146 C143 1.379 . S
H147 C150 0.980 . S
H148 C150 0.981 . S
H149 C150 0.981 . S
C150 C142 1.481 . S
C150 H147 0.980 . S
C150 H148 0.981 . S
C150 H149 0.981 . S
C151 C138 1.482 . S
C151 H152 0.980 . S
C151 H153 0.980 1_556 S
C151 H154 0.980 1_556 S
H152 C151 0.980 . S
H153 C151 0.980 1_554 S
H154 C151 0.980 1_554 S
O155 Zn131 2.066 . S
O155 C134 1.256 . S
O156 Zn128 2.053 . S
O156 C134 1.244 . S
C157 O135 1.259 . S
C157 O136 1.254 . S
O158 Zn128 2.066 . S
O158 C130 1.256 . S
O159 C130 1.244 . S
O159 Zn131 2.053 . S
Zn160 O161 2.055 . S
Zn160 O168 2.046 . S
Zn160 N176 2.036 . S
Zn160 O188 2.053 . S
Zn160 O190 2.066 . S
O161 Zn160 2.055 . S
O161 C164 1.259 1_554 S
C162 O190 1.256 1_556 S
C162 O191 1.244 1_556 S
Zn163 O165 2.046 . S
Zn163 O167 2.055 . S
Zn163 N169 2.036 . S
Zn163 O187 2.066 . S
Zn163 O191 2.053 . S
C164 O161 1.259 1_556 S
C164 O165 1.254 1_556 S
O165 Zn163 2.046 . S
O165 C164 1.254 1_554 S
C166 O187 1.256 . S
C166 O188 1.244 . S
O167 Zn163 2.055 . S
O167 C189 1.259 . S
O168 Zn160 2.046 . S
O168 C189 1.254 . S
N169 Zn163 2.036 . S
N169 C170 1.298 . S
N169 N172 1.398 . S
C170 N169 1.298 . S
C170 N173 1.367 . S
C170 C183 1.481 . S
C171 N172 1.299 . S
C171 N173 1.379 . S
N172 N169 1.398 . S
N172 C171 1.299 . S
N173 C170 1.367 . S
N173 C171 1.379 . S
C174 N176 1.298 . S
C174 N178 1.367 . S
C174 C182 1.481 1_554 S
C175 N177 1.299 . S
C175 N178 1.379 . S
N176 Zn160 2.036 . S
N176 C174 1.298 . S
N176 N177 1.398 . S
N177 C175 1.299 . S
N177 N176 1.398 . S
N178 C174 1.367 . S
N178 C175 1.379 . S
H179 C182 0.980 . S
H180 C182 0.981 . S
H181 C182 0.981 . S
C182 C174 1.481 1_556 S
C182 H179 0.980 . S
C182 H180 0.981 . S
C182 H181 0.981 . S
C183 C170 1.481 . S
C183 H184 0.980 . S
C183 H185 0.981 . S
C183 H186 0.981 . S
H184 C183 0.980 . S
H185 C183 0.981 . S
H186 C183 0.981 . S
O187 Zn163 2.066 . S
O187 C166 1.256 . S
O188 Zn160 2.053 . S
O188 C166 1.244 . S
C189 O167 1.259 . S
C189 O168 1.254 . S
O190 Zn160 2.066 . S
O190 C162 1.256 1_554 S
O191 C162 1.244 1_554 S
O191 Zn163 2.053 . S
Zn192 O193 2.055 . S
Zn192 O200 2.046 . S
Zn192 N208 2.036 . S
Zn192 O220 2.053 . S
Zn192 O222 2.066 . S
O193 Zn192 2.055 . S
O193 C196 1.259 . S
C194 O222 1.256 . S
C194 O223 1.244 . S
Zn195 O197 2.046 . S
Zn195 O199 2.055 . S
Zn195 N201 2.036 . S
Zn195 O219 2.066 . S
Zn195 O223 2.053 . S
C196 O193 1.259 . S
C196 O197 1.254 . S
O197 Zn195 2.046 . S
O197 C196 1.254 . S
C198 O219 1.256 . S
C198 O220 1.244 . S
O199 Zn195 2.055 . S
O199 C221 1.259 . S
O200 Zn192 2.046 . S
O200 C221 1.254 . S
N201 Zn195 2.036 . S
N201 C202 1.298 . S
N201 N204 1.398 . S
C202 N201 1.298 . S
C202 N205 1.367 . S
C202 C215 1.481 . S
C203 N204 1.299 . S
C203 N205 1.379 . S
N204 N201 1.398 . S
N204 C203 1.299 . S
N205 C202 1.367 . S
N205 C203 1.379 . S
C206 N208 1.298 . S
C206 N210 1.367 . S
C206 C214 1.481 . S
C207 N209 1.299 . S
C207 N210 1.379 . S
N208 Zn192 2.036 . S
N208 C206 1.298 . S
N208 N209 1.398 . S
N209 C207 1.299 . S
N209 N208 1.398 . S
N210 C206 1.367 . S
N210 C207 1.379 . S
H211 C214 0.980 . S
H212 C214 0.981 . S
H213 C214 0.981 . S
C214 C206 1.481 . S
C214 H211 0.980 . S
C214 H212 0.981 . S
C214 H213 0.981 . S
C215 C202 1.481 . S
C215 H216 0.980 . S
C215 H217 0.981 . S
C215 H218 0.981 . S
H216 C215 0.980 . S
H217 C215 0.981 . S
H218 C215 0.981 . S
O219 Zn195 2.066 . S
O219 C198 1.256 . S
O220 Zn192 2.053 . S
O220 C198 1.244 . S
C221 O199 1.259 . S
C221 O200 1.254 . S
O222 Zn192 2.066 . S
O222 C194 1.256 . S
O223 C194 1.244 . S
O223 Zn195 2.053 . S
Zn224 O225 2.055 . S
Zn224 O232 2.046 . S
Zn224 N240 2.036 . S
Zn224 O252 2.053 . S
Zn224 O254 2.066 . S
O225 Zn224 2.055 . S
O225 C228 1.259 . S
C226 O254 1.256 . S
C226 O255 1.244 . S
Zn227 O229 2.046 . S
Zn227 O231 2.055 . S
Zn227 N233 2.036 . S
Zn227 O251 2.066 . S
Zn227 O255 2.053 . S
C228 O225 1.259 . S
C228 O229 1.254 . S
O229 Zn227 2.046 . S
O229 C228 1.254 . S
C230 O251 1.256 . S
C230 O252 1.244 . S
O231 Zn227 2.055 . S
O231 C253 1.259 . S
O232 Zn224 2.046 . S
O232 C253 1.254 . S
N233 Zn227 2.036 . S
N233 C234 1.298 . S
N233 N236 1.398 . S
C234 N233 1.298 . S
C234 N237 1.367 . S
C234 C247 1.481 . S
C235 N236 1.299 . S
C235 N237 1.379 . S
N236 N233 1.398 . S
N236 C235 1.299 . S
N237 C234 1.367 . S
N237 C235 1.379 . S
C238 N240 1.298 . S
C238 N242 1.367 . S
C238 C246 1.481 . S
C239 N241 1.299 . S
C239 N242 1.379 . S
N240 Zn224 2.036 . S
N240 C238 1.298 . S
N240 N241 1.398 . S
N241 C239 1.299 . S
N241 N240 1.398 . S
N242 C238 1.367 . S
N242 C239 1.379 . S
H243 C246 0.980 . S
H244 C246 0.981 . S
H245 C246 0.981 . S
C246 C238 1.481 . S
C246 H243 0.980 . S
C246 H244 0.981 . S
C246 H245 0.981 . S
C247 C234 1.481 . S
C247 H248 0.980 . S
C247 H249 0.981 . S
C247 H250 0.981 . S
H248 C247 0.980 . S
H249 C247 0.981 . S
H250 C247 0.981 . S
O251 Zn227 2.066 . S
O251 C230 1.256 . S
O252 Zn224 2.053 . S
O252 C230 1.244 . S
C253 O231 1.259 . S
C253 O232 1.254 . S
O254 Zn224 2.066 . S
O254 C226 1.256 . S
O255 C226 1.244 . S
O255 Zn227 2.053 . S
Zn256 O257 2.055 . S
Zn256 O264 2.046 . S
Zn256 N272 2.036 1_655 S
Zn256 O284 2.053 . S
Zn256 O286 2.066 . S
O257 Zn256 2.055 . S
O257 C260 1.259 . S
C258 O286 1.256 . S
C258 O287 1.244 . S
Zn259 O261 2.046 . S
Zn259 O263 2.055 . S
Zn259 N265 2.036 . S
Zn259 O283 2.066 . S
Zn259 O287 2.053 . S
C260 O257 1.259 . S
C260 O261 1.254 . S
O261 Zn259 2.046 . S
O261 C260 1.254 . S
C262 O283 1.256 . S
C262 O284 1.244 . S
O263 Zn259 2.055 . S
O263 C285 1.259 . S
O264 Zn256 2.046 . S
O264 C285 1.254 . S
N265 Zn259 2.036 . S
N265 C266 1.298 . S
N265 N268 1.398 . S
C266 N265 1.298 . S
C266 N269 1.367 . S
C266 C279 1.481 . S
C267 N268 1.299 . S
C267 N269 1.379 . S
N268 N265 1.398 . S
N268 C267 1.299 . S
N269 C266 1.367 . S
N269 C267 1.379 . S
C270 N272 1.298 . S
C270 N274 1.367 . S
C270 C278 1.481 . S
C271 N273 1.299 . S
C271 N274 1.379 . S
N272 Zn256 2.036 1_455 S
N272 C270 1.298 . S
N272 N273 1.398 . S
N273 C271 1.299 . S
N273 N272 1.398 . S
N274 C270 1.367 . S
N274 C271 1.379 . S
H275 C278 0.980 . S
H276 C278 0.981 . S
H277 C278 0.981 . S
C278 C270 1.481 . S
C278 H275 0.980 . S
C278 H276 0.981 . S
C278 H277 0.981 . S
C279 C266 1.481 . S
C279 H280 0.980 . S
C279 H281 0.981 . S
C279 H282 0.981 . S
H280 C279 0.980 . S
H281 C279 0.981 . S
H282 C279 0.981 . S
O283 Zn259 2.066 . S
O283 C262 1.256 . S
O284 Zn256 2.053 . S
O284 C262 1.244 . S
C285 O263 1.259 . S
C285 O264 1.254 . S
O286 Zn256 2.066 . S
O286 C258 1.256 . S
O287 C258 1.244 . S
O287 Zn259 2.053 . S
Zn288 O289 2.055 . S
Zn288 O296 2.046 . S
Zn288 N304 2.036 . S
Zn288 O316 2.053 . S
Zn288 O318 2.066 . S
O289 Zn288 2.055 . S
O289 C292 1.259 1_554 S
C290 O318 1.256 1_556 S
C290 O319 1.244 1_556 S
Zn291 O293 2.046 . S
Zn291 O295 2.055 . S
Zn291 N297 2.036 . S
Zn291 O315 2.066 . S
Zn291 O319 2.053 . S
C292 O289 1.259 1_556 S
C292 O293 1.254 1_556 S
O293 Zn291 2.046 . S
O293 C292 1.254 1_554 S
C294 O315 1.256 . S
C294 O316 1.244 . S
O295 Zn291 2.055 . S
O295 C317 1.259 . S
O296 Zn288 2.046 . S
O296 C317 1.254 . S
N297 Zn291 2.036 . S
N297 C298 1.298 . S
N297 N300 1.398 . S
C298 N297 1.298 . S
C298 N301 1.367 . S
C298 C311 1.481 . S
C299 N300 1.299 . S
C299 N301 1.379 . S
N300 N297 1.398 . S
N300 C299 1.299 . S
N301 C298 1.367 . S
N301 C299 1.379 . S
C302 N304 1.298 . S
C302 N306 1.367 . S
C302 C310 1.481 1_554 S
C303 N305 1.299 . S
C303 N306 1.379 . S
N304 Zn288 2.036 . S
N304 C302 1.298 . S
N304 N305 1.398 . S
N305 C303 1.299 . S
N305 N304 1.398 . S
N306 C302 1.367 . S
N306 C303 1.379 . S
H307 C310 0.980 . S
H308 C310 0.981 . S
H309 C310 0.981 . S
C310 C302 1.481 1_556 S
C310 H307 0.980 . S
C310 H308 0.981 . S
C310 H309 0.981 . S
C311 C298 1.481 . S
C311 H312 0.980 . S
C311 H313 0.981 . S
C311 H314 0.981 . S
H312 C311 0.980 . S
H313 C311 0.981 . S
H314 C311 0.981 . S
O315 Zn291 2.066 . S
O315 C294 1.256 . S
O316 Zn288 2.053 . S
O316 C294 1.244 . S
C317 O295 1.259 . S
C317 O296 1.254 . S
O318 Zn288 2.066 . S
O318 C290 1.256 1_554 S
O319 C290 1.244 1_554 S
O319 Zn291 2.053 . S
Zn320 O321 2.055 . S
Zn320 O328 2.046 . S
Zn320 N336 2.036 . S
Zn320 O348 2.053 . S
Zn320 O350 2.066 . S
O321 Zn320 2.055 . S
O321 C324 1.259 . S
C322 O350 1.256 . S
C322 O351 1.244 . S
Zn323 O325 2.046 . S
Zn323 O327 2.055 . S
Zn323 N329 2.036 . S
Zn323 O347 2.066 . S
Zn323 O351 2.053 . S
C324 O321 1.259 . S
C324 O325 1.254 . S
O325 Zn323 2.046 . S
O325 C324 1.254 . S
C326 O347 1.256 1_554 S
C326 O348 1.244 1_554 S
O327 Zn323 2.055 . S
O327 C349 1.259 1_556 S
O328 Zn320 2.046 . S
O328 C349 1.254 1_556 S
N329 Zn323 2.036 . S
N329 C330 1.298 . S
N329 N332 1.398 . S
C330 N329 1.298 . S
C330 N333 1.367 . S
C330 C343 1.481 1_556 S
C331 N332 1.299 . S
C331 N333 1.379 . S
N332 N329 1.398 . S
N332 C331 1.299 . S
N333 C330 1.367 . S
N333 C331 1.379 . S
C334 N336 1.298 . S
C334 N338 1.367 . S
C334 C342 1.481 . S
C335 N337 1.299 . S
C335 N338 1.379 . S
N336 Zn320 2.036 . S
N336 C334 1.298 . S
N336 N337 1.398 . S
N337 C335 1.299 . S
N337 N336 1.398 . S
N338 C334 1.367 . S
N338 C335 1.379 . S
H339 C342 0.980 . S
H340 C342 0.981 . S
H341 C342 0.981 . S
C342 C334 1.481 . S
C342 H339 0.980 . S
C342 H340 0.981 . S
C342 H341 0.981 . S
C343 C330 1.481 1_554 S
C343 H344 0.980 . S
C343 H345 0.981 . S
C343 H346 0.981 . S
H344 C343 0.980 . S
H345 C343 0.981 . S
H346 C343 0.981 . S
O347 Zn323 2.066 . S
O347 C326 1.256 1_556 S
O348 Zn320 2.053 . S
O348 C326 1.244 1_556 S
C349 O327 1.259 1_554 S
C349 O328 1.254 1_554 S
O350 Zn320 2.066 . S
O350 C322 1.256 . S
O351 C322 1.244 . S
O351 Zn323 2.053 . S
Zn352 O353 2.055 . S
Zn352 O360 2.046 . S
Zn352 N368 2.036 . S
Zn352 O380 2.053 . S
Zn352 O382 2.066 . S
O353 Zn352 2.055 . S
O353 C356 1.259 . S
C354 O382 1.256 . S
C354 O383 1.244 . S
Zn355 O357 2.046 . S
Zn355 O359 2.055 . S
Zn355 N361 2.036 1_655 S
Zn355 O379 2.066 . S
Zn355 O383 2.053 . S
C356 O353 1.259 . S
C356 O357 1.254 . S
O357 Zn355 2.046 . S
O357 C356 1.254 . S
C358 O379 1.256 . S
C358 O380 1.244 . S
O359 Zn355 2.055 . S
O359 C381 1.259 . S
O360 Zn352 2.046 . S
O360 C381 1.254 . S
N361 Zn355 2.036 1_455 S
N361 C362 1.298 . S
N361 N364 1.398 . S
C362 N361 1.298 . S
C362 N365 1.367 . S
C362 C375 1.481 . S
C363 N364 1.299 . S
C363 N365 1.379 . S
N364 N361 1.398 . S
N364 C363 1.299 . S
N365 C362 1.367 . S
N365 C363 1.379 . S
C366 N368 1.298 . S
C366 N370 1.367 . S
C366 C374 1.481 . S
C367 N369 1.299 . S
C367 N370 1.379 . S
N368 Zn352 2.036 . S
N368 C366 1.298 . S
N368 N369 1.398 . S
N369 C367 1.299 . S
N369 N368 1.398 . S
N370 C366 1.367 . S
N370 C367 1.379 . S
H371 C374 0.980 . S
H372 C374 0.981 . S
H373 C374 0.981 . S
C374 C366 1.481 . S
C374 H371 0.980 . S
C374 H372 0.981 . S
C374 H373 0.981 . S
C375 C362 1.481 . S
C375 H376 0.980 . S
C375 H377 0.981 . S
C375 H378 0.981 . S
H376 C375 0.980 . S
H377 C375 0.981 . S
H378 C375 0.981 . S
O379 Zn355 2.066 . S
O379 C358 1.256 . S
O380 Zn352 2.053 . S
O380 C358 1.244 . S
C381 O359 1.259 . S
C381 O360 1.254 . S
O382 Zn352 2.066 . S
O382 C354 1.256 . S
O383 C354 1.244 . S
O383 Zn355 2.053 . S
Zn384 O385 2.055 . S
Zn384 O392 2.046 . S
Zn384 N400 2.036 . S
Zn384 O412 2.053 . S
Zn384 O414 2.066 . S
O385 Zn384 2.055 . S
O385 C388 1.259 . S
C386 O414 1.256 . S
C386 O415 1.244 . S
Zn387 O389 2.046 . S
Zn387 O391 2.055 . S
Zn387 N393 2.036 . S
Zn387 O411 2.066 . S
Zn387 O415 2.053 . S
C388 O385 1.259 . S
C388 O389 1.254 . S
O389 Zn387 2.046 . S
O389 C388 1.254 . S
C390 O411 1.256 . S
C390 O412 1.244 . S
O391 Zn387 2.055 . S
O391 C413 1.259 . S
O392 Zn384 2.046 . S
O392 C413 1.254 . S
N393 Zn387 2.036 . S
N393 C394 1.298 . S
N393 N396 1.398 . S
C394 N393 1.298 . S
C394 N397 1.367 . S
C394 C407 1.481 . S
C395 N396 1.299 . S
C395 N397 1.379 . S
N396 N393 1.398 . S
N396 C395 1.299 . S
N397 C394 1.367 . S
N397 C395 1.379 . S
C398 N400 1.298 . S
C398 N402 1.367 . S
C398 C406 1.481 . S
C399 N401 1.299 . S
C399 N402 1.379 . S
N400 Zn384 2.036 . S
N400 C398 1.298 . S
N400 N401 1.398 . S
N401 C399 1.299 . S
N401 N400 1.398 . S
N402 C398 1.367 . S
N402 C399 1.379 . S
H403 C406 0.980 . S
H404 C406 0.981 . S
H405 C406 0.981 . S
C406 C398 1.481 . S
C406 H403 0.980 . S
C406 H404 0.981 . S
C406 H405 0.981 . S
C407 C394 1.481 . S
C407 H408 0.980 . S
C407 H409 0.981 . S
C407 H410 0.981 . S
H408 C407 0.980 . S
H409 C407 0.981 . S
H410 C407 0.981 . S
O411 Zn387 2.066 . S
O411 C390 1.256 . S
O412 Zn384 2.053 . S
O412 C390 1.244 . S
C413 O391 1.259 . S
C413 O392 1.254 . S
O414 Zn384 2.066 . S
O414 C386 1.256 . S
O415 C386 1.244 . S
O415 Zn387 2.053 . S
Zn416 O417 2.055 . S
Zn416 O424 2.046 . S
Zn416 N432 2.036 . S
Zn416 O444 2.053 . S
Zn416 O446 2.066 . S
O417 Zn416 2.055 . S
O417 C420 1.259 . S
C418 O446 1.256 . S
C418 O447 1.244 . S
Zn419 O421 2.046 . S
Zn419 O423 2.055 . S
Zn419 N425 2.036 . S
Zn419 O443 2.066 . S
Zn419 O447 2.053 . S
C420 O417 1.259 . S
C420 O421 1.254 . S
O421 Zn419 2.046 . S
O421 C420 1.254 . S
C422 O443 1.256 . S
C422 O444 1.244 . S
O423 Zn419 2.055 . S
O423 C445 1.259 . S
O424 Zn416 2.046 . S
O424 C445 1.254 . S
N425 Zn419 2.036 . S
N425 C426 1.298 . S
N425 N428 1.398 . S
C426 N425 1.298 . S
C426 N429 1.367 . S
C426 C439 1.482 . S
C427 N428 1.299 . S
C427 N429 1.379 . S
N428 N425 1.398 . S
N428 C427 1.299 . S
N429 C426 1.367 . S
N429 C427 1.379 . S
C430 N432 1.298 . S
C430 N434 1.367 . S
C430 C438 1.481 . S
C431 N433 1.299 . S
C431 N434 1.379 . S
N432 Zn416 2.036 . S
N432 C430 1.298 . S
N432 N433 1.398 . S
N433 C431 1.299 . S
N433 N432 1.398 . S
N434 C430 1.367 . S
N434 C431 1.379 . S
H435 C438 0.980 . S
H436 C438 0.981 . S
H437 C438 0.981 . S
C438 C430 1.481 . S
C438 H435 0.980 . S
C438 H436 0.981 . S
C438 H437 0.981 . S
C439 C426 1.482 . S
C439 H440 0.980 . S
C439 H441 0.980 1_554 S
C439 H442 0.980 1_554 S
H440 C439 0.980 . S
H441 C439 0.980 1_556 S
H442 C439 0.980 1_556 S
O443 Zn419 2.066 . S
O443 C422 1.256 . S
O444 Zn416 2.053 . S
O444 C422 1.244 . S
C445 O423 1.259 . S
C445 O424 1.254 . S
O446 Zn416 2.066 . S
O446 C418 1.256 . S
O447 C418 1.244 . S
O447 Zn419 2.053 . S
Zn448 O449 2.055 . S
Zn448 O456 2.046 . S
Zn448 N464 2.036 . S
Zn448 O476 2.053 . S
Zn448 O478 2.066 . S
O449 Zn448 2.055 . S
O449 C452 1.259 . S
C450 O478 1.256 . S
C450 O479 1.244 . S
Zn451 O453 2.046 . S
Zn451 O455 2.055 . S
Zn451 N457 2.036 . S
Zn451 O475 2.066 . S
Zn451 O479 2.053 . S
C452 O449 1.259 . S
C452 O453 1.254 . S
O453 Zn451 2.046 . S
O453 C452 1.254 . S
C454 O475 1.256 . S
C454 O476 1.244 . S
O455 Zn451 2.055 . S
O455 C477 1.259 . S
O456 Zn448 2.046 . S
O456 C477 1.254 . S
N457 Zn451 2.036 . S
N457 C458 1.298 . S
N457 N460 1.398 . S
C458 N457 1.298 . S
C458 N461 1.367 . S
C458 C471 1.481 . S
C459 N460 1.299 . S
C459 N461 1.379 . S
N460 N457 1.398 . S
N460 C459 1.299 . S
N461 C458 1.367 . S
N461 C459 1.379 . S
C462 N464 1.298 . S
C462 N466 1.367 . S
C462 C470 1.481 . S
C463 N465 1.299 . S
C463 N466 1.379 . S
N464 Zn448 2.036 . S
N464 C462 1.298 . S
N464 N465 1.398 . S
N465 C463 1.299 . S
N465 N464 1.398 . S
N466 C462 1.367 . S
N466 C463 1.379 . S
H467 C470 0.980 . S
H468 C470 0.981 . S
H469 C470 0.981 . S
C470 C462 1.481 . S
C470 H467 0.980 . S
C470 H468 0.981 . S
C470 H469 0.981 . S
C471 C458 1.481 . S
C471 H472 0.980 . S
C471 H473 0.981 . S
C471 H474 0.981 . S
H472 C471 0.980 . S
H473 C471 0.981 . S
H474 C471 0.981 . S
O475 Zn451 2.066 . S
O475 C454 1.256 . S
O476 Zn448 2.053 . S
O476 C454 1.244 . S
C477 O455 1.259 . S
C477 O456 1.254 . S
O478 Zn448 2.066 . S
O478 C450 1.256 . S
O479 C450 1.244 . S
O479 Zn451 2.053 . S
Zn480 O481 2.055 . S
Zn480 O488 2.046 . S
Zn480 N496 2.036 . S
Zn480 O508 2.053 . S
Zn480 O510 2.066 . S
O481 Zn480 2.055 . S
O481 C484 1.259 . S
C482 O510 1.256 . S
C482 O511 1.244 . S
Zn483 O485 2.046 . S
Zn483 O487 2.055 . S
Zn483 N489 2.036 . S
Zn483 O507 2.066 . S
Zn483 O511 2.053 . S
C484 O481 1.259 . S
C484 O485 1.254 . S
O485 Zn483 2.046 . S
O485 C484 1.254 . S
C486 O507 1.256 . S
C486 O508 1.244 . S
O487 Zn483 2.055 . S
O487 C509 1.259 . S
O488 Zn480 2.046 . S
O488 C509 1.254 . S
N489 Zn483 2.036 . S
N489 C490 1.298 . S
N489 N492 1.398 . S
C490 N489 1.298 . S
C490 N493 1.367 . S
C490 C503 1.481 . S
C491 N492 1.299 . S
C491 N493 1.379 . S
N492 N489 1.398 . S
N492 C491 1.299 . S
N493 C490 1.367 . S
N493 C491 1.379 . S
C494 N496 1.298 . S
C494 N498 1.367 . S
C494 C502 1.482 . S
C495 N497 1.299 . S
C495 N498 1.379 . S
N496 Zn480 2.036 . S
N496 C494 1.298 . S
N496 N497 1.398 . S
N497 C495 1.299 . S
N497 N496 1.398 . S
N498 C494 1.367 . S
N498 C495 1.379 . S
H499 C502 0.980 . S
H500 C502 0.980 1_554 S
H501 C502 0.980 1_554 S
C502 C494 1.482 . S
C502 H499 0.980 . S
C502 H500 0.980 1_556 S
C502 H501 0.980 1_556 S
C503 C490 1.481 . S
C503 H504 0.980 . S
C503 H505 0.981 . S
C503 H506 0.981 . S
H504 C503 0.980 . S
H505 C503 0.981 . S
H506 C503 0.981 . S
O507 Zn483 2.066 . S
O507 C486 1.256 . S
O508 Zn480 2.053 . S
O508 C486 1.244 . S
C509 O487 1.259 . S
C509 O488 1.254 . S
O510 Zn480 2.066 . S
O510 C482 1.256 . S
O511 C482 1.244 . S
O511 Zn483 2.053 . S
C512 C513 1.369 . S
C512 C514 1.419 . S
C512 H516 0.930 . S
C513 C512 1.369 . S
C513 C522 1.429 . S
C514 C512 1.419 . S
C514 C515 1.363 . S
C514 H517 0.929 . S
C515 C514 1.363 . S
C515 C521 1.428 . S
H516 C512 0.930 . S
H517 C514 0.929 . S
S518 N519 1.613 . S
S518 N520 1.610 1_554 S
N519 S518 1.613 . S
N519 C522 1.350 1_554 S
N520 S518 1.610 1_556 S
N520 C521 1.351 . S
C521 C515 1.428 . S
C521 N520 1.351 . S
C521 C522 1.434 . S
C522 C513 1.429 . S
C522 N519 1.350 1_556 S
C522 C521 1.434 . S
C523 C524 1.369 . S
C523 C525 1.419 . S
C523 H527 0.930 . S
C524 C523 1.369 . S
C524 C533 1.429 . S
C525 C523 1.419 . S
C525 C526 1.363 . S
C525 H528 0.929 . S
C526 C525 1.363 . S
C526 C532 1.428 . S
H527 C523 0.930 . S
H528 C525 0.929 . S
S529 N530 1.613 . S
S529 N531 1.610 . S
N530 S529 1.613 . S
N530 C533 1.350 . S
N531 S529 1.610 . S
N531 C532 1.351 . S
C532 C526 1.428 . S
C532 N531 1.351 . S
C532 C533 1.434 . S
C533 C524 1.429 . S
C533 N530 1.350 . S
C533 C532 1.434 . S
C534 C535 1.369 . S
C534 C536 1.419 . S
C534 H538 0.930 . S
C535 C534 1.369 . S
C535 C544 1.429 . S
C536 C534 1.419 . S
C536 C537 1.363 . S
C536 H539 0.929 . S
C537 C536 1.363 . S
C537 C543 1.428 . S
H538 C534 0.930 . S
H539 C536 0.929 . S
S540 N541 1.613 . S
S540 N542 1.610 . S
N541 S540 1.613 . S
N541 C544 1.350 . S
N542 S540 1.610 . S
N542 C543 1.351 . S
C543 C537 1.428 . S
C543 N542 1.351 . S
C543 C544 1.434 . S
C544 C535 1.429 . S
C544 N541 1.350 . S
C544 C543 1.434 . S
C545 C546 1.369 . S
C545 C547 1.419 . S
C545 H549 0.930 . S
C546 C545 1.369 . S
C546 C555 1.429 . S
C547 C545 1.419 . S
C547 C548 1.363 . S
C547 H550 0.929 . S
C548 C547 1.363 . S
C548 C554 1.428 . S
H549 C545 0.930 . S
H550 C547 0.929 . S
S551 N552 1.613 . S
S551 N553 1.610 . S
N552 S551 1.613 . S
N552 C555 1.350 . S
N553 S551 1.610 . S
N553 C554 1.351 . S
C554 C548 1.428 . S
C554 N553 1.351 . S
C554 C555 1.434 . S
C555 C546 1.429 . S
C555 N552 1.350 . S
C555 C554 1.434 . S
C556 C557 1.369 . S
C556 C558 1.419 . S
C556 H560 0.930 . S
C557 C556 1.369 . S
C557 C566 1.429 . S
C558 C556 1.419 . S
C558 C559 1.363 . S
C558 H561 0.929 . S
C559 C558 1.363 . S
C559 C565 1.428 . S
H560 C556 0.930 . S
H561 C558 0.929 . S
S562 N563 1.613 . S
S562 N564 1.610 . S
N563 S562 1.613 . S
N563 C566 1.350 . S
N564 S562 1.610 . S
N564 C565 1.351 . S
C565 C559 1.428 . S
C565 N564 1.351 . S
C565 C566 1.434 . S
C566 C557 1.429 . S
C566 N563 1.350 . S
C566 C565 1.434 . S
C567 C568 1.369 . S
C567 C569 1.419 . S
C567 H571 0.930 . S
C568 C567 1.369 . S
C568 C577 1.429 . S
C569 C567 1.419 . S
C569 C570 1.363 . S
C569 H572 0.929 . S
C570 C569 1.363 . S
C570 C576 1.428 . S
H571 C567 0.930 . S
H572 C569 0.929 . S
S573 N574 1.613 1_455 S
S573 N575 1.610 . S
N574 S573 1.613 1_655 S
N574 C577 1.350 . S
N575 S573 1.610 . S
N575 C576 1.351 1_455 S
C576 C570 1.428 . S
C576 N575 1.351 1_655 S
C576 C577 1.434 . S
C577 C568 1.429 . S
C577 N574 1.350 . S
C577 C576 1.434 . S
C578 C579 1.369 . S
C578 C580 1.419 . S
C578 H582 0.930 . S
C579 C578 1.369 . S
C579 C588 1.429 . S
C580 C578 1.419 . S
C580 C581 1.363 . S
C580 H583 0.929 . S
C581 C580 1.363 . S
C581 C587 1.428 . S
H582 C578 0.930 . S
H583 C580 0.929 . S
S584 N585 1.613 . S
S584 N586 1.610 . S
N585 S584 1.613 . S
N585 C588 1.350 . S
N586 S584 1.610 . S
N586 C587 1.351 . S
C587 C581 1.428 . S
C587 N586 1.351 . S
C587 C588 1.434 . S
C588 C579 1.429 . S
C588 N585 1.350 . S
C588 C587 1.434 . S
C589 C590 1.369 . S
C589 C591 1.419 . S
C589 H593 0.930 . S
C590 C589 1.369 . S
C590 C599 1.429 . S
C591 C589 1.419 . S
C591 C592 1.363 . S
C591 H594 0.929 . S
C592 C591 1.363 . S
C592 C598 1.428 . S
H593 C589 0.930 . S
H594 C591 0.929 . S
S595 N596 1.613 . S
S595 N597 1.610 . S
N596 S595 1.613 . S
N596 C599 1.350 . S
N597 S595 1.610 . S
N597 C598 1.351 . S
C598 C592 1.428 . S
C598 N597 1.351 . S
C598 C599 1.434 . S
C599 C590 1.429 . S
C599 N596 1.350 . S
C599 C598 1.434 . S
C600 C601 1.369 . S
C600 C602 1.419 . S
C600 H604 0.930 . S
C601 C600 1.369 . S
C601 C610 1.429 . S
C602 C600 1.419 . S
C602 C603 1.363 . S
C602 H605 0.929 . S
C603 C602 1.363 . S
C603 C609 1.428 . S
H604 C600 0.930 . S
H605 C602 0.929 . S
S606 N607 1.613 . S
S606 N608 1.610 . S
N607 S606 1.613 . S
N607 C610 1.350 . S
N608 S606 1.610 . S
N608 C609 1.351 . S
C609 C603 1.428 . S
C609 N608 1.351 . S
C609 C610 1.434 . S
C610 C601 1.429 . S
C610 N607 1.350 . S
C610 C609 1.434 . S
C611 C612 1.369 . S
C611 C613 1.419 . S
C611 H615 0.930 . S
C612 C611 1.369 . S
C612 C621 1.429 . S
C613 C611 1.419 . S
C613 C614 1.363 . S
C613 H616 0.929 . S
C614 C613 1.363 . S
C614 C620 1.428 . S
H615 C611 0.930 . S
H616 C613 0.929 . S
S617 N618 1.613 . S
S617 N619 1.610 . S
N618 S617 1.613 . S
N618 C621 1.350 . S
N619 S617 1.610 . S
N619 C620 1.351 . S
C620 C614 1.428 . S
C620 N619 1.351 . S
C620 C621 1.434 . S
C621 C612 1.429 . S
C621 N618 1.350 . S
C621 C620 1.434 . S
C622 C623 1.369 . S
C622 C624 1.419 . S
C622 H626 0.930 . S
C623 C622 1.369 . S
C623 C632 1.429 . S
C624 C622 1.419 . S
C624 C625 1.363 . S
C624 H627 0.929 . S
C625 C624 1.363 . S
C625 C631 1.428 . S
H626 C622 0.930 . S
H627 C624 0.929 . S
S628 N629 1.613 . S
S628 N630 1.610 1_554 S
N629 S628 1.613 . S
N629 C632 1.350 1_554 S
N630 S628 1.610 1_556 S
N630 C631 1.351 . S
C631 C625 1.428 . S
C631 N630 1.351 . S
C631 C632 1.434 . S
C632 C623 1.429 . S
C632 N629 1.350 1_556 S
C632 C631 1.434 . S
C633 C634 1.369 . S
C633 C635 1.419 . S
C633 H637 0.930 . S
C634 C633 1.369 . S
C634 C643 1.429 . S
C635 C633 1.419 . S
C635 C636 1.363 . S
C635 H638 0.929 1_655 S
C636 C635 1.363 . S
C636 C642 1.428 . S
H637 C633 0.930 . S
H638 C635 0.929 1_455 S
S639 N640 1.613 . S
S639 N641 1.610 . S
N640 S639 1.613 . S
N640 C643 1.350 . S
N641 S639 1.610 . S
N641 C642 1.351 . S
C642 C636 1.428 . S
C642 N641 1.351 . S
C642 C643 1.434 . S
C643 C634 1.429 . S
C643 N640 1.350 . S
C643 C642 1.434 . S
C644 C645 1.369 . S
C644 C646 1.419 . S
C644 H648 0.930 . S
C645 C644 1.369 . S
C645 C654 1.429 . S
C646 C644 1.419 . S
C646 C647 1.363 . S
C646 H649 0.929 . S
C647 C646 1.363 . S
C647 C653 1.428 . S
H648 C644 0.930 . S
H649 C646 0.929 . S
S650 N651 1.613 . S
S650 N652 1.610 . S
N651 S650 1.613 . S
N651 C654 1.350 . S
N652 S650 1.610 . S
N652 C653 1.351 . S
C653 C647 1.428 . S
C653 N652 1.351 . S
C653 C654 1.434 . S
C654 C645 1.429 . S
C654 N651 1.350 . S
C654 C653 1.434 . S
C655 C656 1.369 . S
C655 C657 1.419 . S
C655 H659 0.930 . S
C656 C655 1.369 . S
C656 C665 1.429 . S
C657 C655 1.419 . S
C657 C658 1.363 . S
C657 H660 0.929 . S
C658 C657 1.363 . S
C658 C664 1.428 . S
H659 C655 0.930 . S
H660 C657 0.929 . S
S661 N662 1.613 . S
S661 N663 1.610 . S
N662 S661 1.613 . S
N662 C665 1.350 . S
N663 S661 1.610 . S
N663 C664 1.351 . S
C664 C658 1.428 . S
C664 N663 1.351 . S
C664 C665 1.434 . S
C665 C656 1.429 . S
C665 N662 1.350 . S
C665 C664 1.434 . S
C666 C667 1.369 . S
C666 C668 1.419 . S
C666 H670 0.930 . S
C667 C666 1.369 . S
C667 C676 1.429 . S
C668 C666 1.419 . S
C668 C669 1.363 . S
C668 H671 0.929 1_554 S
C669 C668 1.363 . S
C669 C675 1.428 . S
H670 C666 0.930 . S
H671 C668 0.929 1_556 S
S672 N673 1.613 . S
S672 N674 1.610 . S
N673 S672 1.613 . S
N673 C676 1.350 . S
N674 S672 1.610 . S
N674 C675 1.351 . S
C675 C669 1.428 . S
C675 N674 1.351 . S
C675 C676 1.434 . S
C676 C667 1.429 . S
C676 N673 1.350 . S
C676 C675 1.434 . S
C677 C678 1.369 . S
C677 C679 1.419 . S
C677 H681 0.930 . S
C678 C677 1.369 . S
C678 C687 1.429 . S
C679 C677 1.419 . S
C679 C680 1.363 . S
C679 H682 0.929 . S
C680 C679 1.363 . S
C680 C686 1.428 . S
H681 C677 0.930 . S
H682 C679 0.929 . S
S683 N684 1.613 . S
S683 N685 1.610 . S
N684 S683 1.613 . S
N684 C687 1.350 . S
N685 S683 1.610 . S
N685 C686 1.351 . S
C686 C680 1.428 . S
C686 N685 1.351 . S
C686 C687 1.434 . S
C687 C678 1.429 . S
C687 N684 1.350 . S
C687 C686 1.434 . S
C688 C689 1.369 . S
C688 C690 1.419 . S
C688 H692 0.930 . S
C689 C688 1.369 . S
C689 C698 1.429 . S
C690 C688 1.419 . S
C690 C691 1.363 . S
C690 H693 0.929 . S
C691 C690 1.363 . S
C691 C697 1.428 . S
H692 C688 0.930 . S
H693 C690 0.929 . S
S694 N695 1.613 . S
S694 N696 1.610 1_655 S
N695 S694 1.613 . S
N695 C698 1.350 1_655 S
N696 S694 1.610 1_455 S
N696 C697 1.351 . S
C697 C691 1.428 . S
C697 N696 1.351 . S
C697 C698 1.434 . S
C698 C689 1.429 . S
C698 N695 1.350 1_455 S
C698 C697 1.434 . S
C699 C700 1.369 . S
C699 C701 1.419 . S
C699 H703 0.930 . S
C700 C699 1.369 . S
C700 C709 1.429 . S
C701 C699 1.419 . S
C701 C702 1.363 . S
C701 H704 0.929 . S
C702 C701 1.363 . S
C702 C708 1.428 . S
H703 C699 0.930 . S
H704 C701 0.929 . S
S705 N706 1.613 . S
S705 N707 1.610 . S
N706 S705 1.613 . S
N706 C709 1.350 . S
N707 S705 1.610 . S
N707 C708 1.351 . S
C708 C702 1.428 . S
C708 N707 1.351 . S
C708 C709 1.434 . S
C709 C700 1.429 . S
C709 N706 1.350 . S
C709 C708 1.434 . S
C710 C711 1.369 . S
C710 C712 1.419 . S
C710 H714 0.930 . S
C711 C710 1.369 . S
C711 C720 1.429 . S
C712 C710 1.419 . S
C712 C713 1.363 . S
C712 H715 0.929 . S
C713 C712 1.363 . S
C713 C719 1.428 . S
H714 C710 0.930 . S
H715 C712 0.929 . S
S716 N717 1.613 . S
S716 N718 1.610 . S
N717 S716 1.613 . S
N717 C720 1.350 . S
N718 S716 1.610 . S
N718 C719 1.351 . S
C719 C713 1.428 . S
C719 N718 1.351 . S
C719 C720 1.434 . S
C720 C711 1.429 . S
C720 N717 1.350 . S
C720 C719 1.434 . S
C721 C722 1.369 . S
C721 C723 1.419 . S
C721 H725 0.930 . S
C722 C721 1.369 . S
C722 C731 1.429 . S
C723 C721 1.419 . S
C723 C724 1.363 . S
C723 H726 0.929 . S
C724 C723 1.363 . S
C724 C730 1.428 . S
H725 C721 0.930 . S
H726 C723 0.929 . S
S727 N728 1.613 . S
S727 N729 1.610 . S
N728 S727 1.613 . S
N728 C731 1.350 . S
N729 S727 1.610 . S
N729 C730 1.351 . S
C730 C724 1.428 . S
C730 N729 1.351 . S
C730 C731 1.434 . S
C731 C722 1.429 . S
C731 N728 1.350 . S
C731 C730 1.434 . S
C732 C733 1.369 . S
C732 C734 1.419 . S
C732 H736 0.930 . S
C733 C732 1.369 . S
C733 C742 1.429 . S
C734 C732 1.419 . S
C734 C735 1.363 . S
C734 H737 0.929 . S
C735 C734 1.363 . S
C735 C741 1.428 . S
H736 C732 0.930 . S
H737 C734 0.929 . S
S738 N739 1.613 1_655 S
S738 N740 1.610 . S
N739 S738 1.613 1_455 S
N739 C742 1.350 . S
N740 S738 1.610 . S
N740 C741 1.351 1_655 S
C741 C735 1.428 . S
C741 N740 1.351 1_455 S
C741 C742 1.434 . S
C742 C733 1.429 . S
C742 N739 1.350 . S
C742 C741 1.434 . S
C743 C744 1.369 . S
C743 C745 1.419 . S
C743 H747 0.930 . S
C744 C743 1.369 . S
C744 C753 1.429 . S
C745 C743 1.419 . S
C745 C746 1.363 . S
C745 H748 0.929 . S
C746 C745 1.363 . S
C746 C752 1.428 . S
H747 C743 0.930 . S
H748 C745 0.929 . S
S749 N750 1.613 . S
S749 N751 1.610 . S
N750 S749 1.613 . S
N750 C753 1.350 . S
N751 S749 1.610 . S
N751 C752 1.351 . S
C752 C746 1.428 . S
C752 N751 1.351 . S
C752 C753 1.434 . S
C753 C744 1.429 . S
C753 N750 1.350 . S
C753 C752 1.434 . S
C754 C755 1.369 . S
C754 C756 1.419 . S
C754 H758 0.930 . S
C755 C754 1.369 . S
C755 C764 1.429 . S
C756 C754 1.419 . S
C756 C757 1.363 . S
C756 H759 0.929 . S
C757 C756 1.363 . S
C757 C763 1.428 . S
H758 C754 0.930 . S
H759 C756 0.929 . S
S760 N761 1.613 . S
S760 N762 1.610 . S
N761 S760 1.613 . S
N761 C764 1.350 . S
N762 S760 1.610 . S
N762 C763 1.351 . S
C763 C757 1.428 . S
C763 N762 1.351 . S
C763 C764 1.434 . S
C764 C755 1.429 . S
C764 N761 1.350 . S
C764 C763 1.434 . S
C765 C766 1.369 . S
C765 C767 1.419 . S
C765 H769 0.930 . S
C766 C765 1.369 . S
C766 C775 1.429 . S
C767 C765 1.419 . S
C767 C768 1.363 . S
C767 H770 0.929 . S
C768 C767 1.363 . S
C768 C774 1.428 . S
H769 C765 0.930 . S
H770 C767 0.929 . S
S771 N772 1.613 . S
S771 N773 1.610 . S
N772 S771 1.613 . S
N772 C775 1.350 . S
N773 S771 1.610 . S
N773 C774 1.351 . S
C774 C768 1.428 . S
C774 N773 1.351 . S
C774 C775 1.434 . S
C775 C766 1.429 . S
C775 N772 1.350 . S
C775 C774 1.434 . S
C776 C777 1.369 . S
C776 C778 1.419 1_545 S
C776 H780 0.930 . S
C777 C776 1.369 . S
C777 C786 1.429 1_554 S
C778 C776 1.419 1_565 S
C778 C779 1.363 1_554 S
C778 H781 0.929 . S
C779 C778 1.363 1_556 S
C779 C785 1.446 . S
H780 C776 0.930 . S
H781 C778 0.929 . S
S782 N783 1.613 . S
S782 N784 1.610 . S
N783 S782 1.613 . S
N783 C786 1.350 . S
N784 S782 1.610 . S
N784 C785 1.349 1_545 S
C785 C779 1.446 . S
C785 N784 1.349 1_565 S
C785 C786 1.416 1_565 S
C786 C777 1.429 1_556 S
C786 N783 1.350 . S
C786 C785 1.416 1_545 S
C787 C788 1.369 . S
C787 C789 1.419 . S
C787 H791 0.930 . S
C788 C787 1.369 . S
C788 C797 1.429 . S
C789 C787 1.419 . S
C789 C790 1.363 . S
C789 H792 0.929 . S
C790 C789 1.363 . S
C790 C796 1.428 . S
H791 C787 0.930 . S
H792 C789 0.929 . S
S793 N794 1.613 . S
S793 N795 1.610 . S
N794 S793 1.613 . S
N794 C797 1.350 . S
N795 S793 1.610 . S
N795 C796 1.351 . S
C796 C790 1.428 . S
C796 N795 1.351 . S
C796 C797 1.434 . S
C797 C788 1.429 . S
C797 N794 1.350 . S
C797 C796 1.434 . S
C798 C799 1.369 . S
C798 C800 1.419 . S
C798 H802 0.930 . S
C799 C798 1.369 . S
C799 C808 1.429 1_545 S
C800 C798 1.419 . S
C800 C801 1.363 1_545 S
C800 H803 0.929 . S
C801 C800 1.363 1_565 S
C801 C807 1.428 . S
H802 C798 0.930 . S
H803 C800 0.929 . S
S804 N805 1.613 . S
S804 N806 1.610 . S
N805 S804 1.613 . S
N805 C808 1.350 . S
N806 S804 1.610 . S
N806 C807 1.351 . S
C807 C801 1.428 . S
C807 N806 1.351 . S
C807 C808 1.434 . S
C808 C799 1.429 1_565 S
C808 N805 1.350 . S
C808 C807 1.434 . S
C809 C810 1.369 . S
C809 C811 1.419 . S
C809 H813 0.930 . S
C810 C809 1.369 . S
C810 C819 1.429 . S
C811 C809 1.419 . S
C811 C812 1.363 . S
C811 H814 0.929 . S
C812 C811 1.363 . S
C812 C818 1.428 . S
H813 C809 0.930 . S
H814 C811 0.929 . S
S815 N816 1.613 . S
S815 N817 1.610 . S
N816 S815 1.613 . S
N816 C819 1.350 . S
N817 S815 1.610 . S
N817 C818 1.351 . S
C818 C812 1.428 . S
C818 N817 1.351 . S
C818 C819 1.434 . S
C819 C810 1.429 . S
C819 N816 1.350 . S
C819 C818 1.434 . S
C820 C821 1.369 . S
C820 C822 1.419 . S
C820 H824 0.930 . S
C821 C820 1.369 . S
C821 C830 1.429 . S
C822 C820 1.419 . S
C822 C823 1.363 . S
C822 H825 0.929 . S
C823 C822 1.363 . S
C823 C829 1.428 . S
H824 C820 0.930 . S
H825 C822 0.929 . S
S826 N827 1.613 . S
S826 N828 1.610 . S
N827 S826 1.613 . S
N827 C830 1.350 . S
N828 S826 1.610 . S
N828 C829 1.351 . S
C829 C823 1.428 . S
C829 N828 1.351 . S
C829 C830 1.434 . S
C830 C821 1.429 . S
C830 N827 1.350 . S
C830 C829 1.434 . S
C831 C832 1.369 . S
C831 C833 1.419 . S
C831 H835 0.930 . S
C832 C831 1.369 . S
C832 C841 1.429 . S
C833 C831 1.419 . S
C833 C834 1.363 . S
C833 H836 0.929 . S
C834 C833 1.363 . S
C834 C840 1.428 . S
H835 C831 0.930 . S
H836 C833 0.929 . S
S837 N838 1.613 . S
S837 N839 1.610 . S
N838 S837 1.613 . S
N838 C841 1.350 . S
N839 S837 1.610 . S
N839 C840 1.351 . S
C840 C834 1.428 . S
C840 N839 1.351 . S
C840 C841 1.434 . S
C841 C832 1.429 . S
C841 N838 1.350 . S
C841 C840 1.434 . S
C842 C843 1.369 . S
C842 C844 1.419 . S
C842 H846 0.930 . S
C843 C842 1.369 . S
C843 C852 1.429 . S
C844 C842 1.419 . S
C844 C845 1.363 . S
C844 H847 0.929 . S
C845 C844 1.363 . S
C845 C851 1.428 . S
H846 C842 0.930 . S
H847 C844 0.929 . S
S848 N849 1.613 . S
S848 N850 1.610 . S
N849 S848 1.613 . S
N849 C852 1.350 . S
N850 S848 1.610 . S
N850 C851 1.351 . S
C851 C845 1.428 . S
C851 N850 1.351 . S
C851 C852 1.434 . S
C852 C843 1.429 . S
C852 N849 1.350 . S
C852 C851 1.434 . S
C853 C854 1.369 1_554 S
C853 C855 1.419 . S
C853 H857 0.930 . S
C854 C853 1.369 1_556 S
C854 C863 1.429 . S
C855 C853 1.419 . S
C855 C856 1.363 . S
C855 H858 0.929 . S
C856 C855 1.363 . S
C856 C862 1.428 1_554 S
H857 C853 0.930 . S
H858 C855 0.929 . S
S859 N860 1.613 . S
S859 N861 1.610 . S
N860 S859 1.613 . S
N860 C863 1.350 . S
N861 S859 1.610 . S
N861 C862 1.351 . S
C862 C856 1.428 1_556 S
C862 N861 1.351 . S
C862 C863 1.434 . S
C863 C854 1.429 . S
C863 N860 1.350 . S
C863 C862 1.434 . S
C864 C865 1.369 . S
C864 C866 1.419 . S
C864 H868 0.930 . S
C865 C864 1.369 . S
C865 C874 1.429 . S
C866 C864 1.419 . S
C866 C867 1.363 . S
C866 H869 0.929 . S
C867 C866 1.363 . S
C867 C873 1.428 . S
H868 C864 0.930 . S
H869 C866 0.929 . S
S870 N871 1.613 . S
S870 N872 1.610 . S
N871 S870 1.613 . S
N871 C874 1.350 . S
N872 S870 1.610 . S
N872 C873 1.351 . S
C873 C867 1.428 . S
C873 N872 1.351 . S
C873 C874 1.434 . S
C874 C865 1.429 . S
C874 N871 1.350 . S
C874 C873 1.434 . S
C875 C876 1.369 . S
C875 C877 1.419 . S
C875 H879 0.930 . S
C876 C875 1.369 . S
C876 C885 1.429 . S
C877 C875 1.419 . S
C877 C878 1.363 . S
C877 H880 0.929 . S
C878 C877 1.363 . S
C878 C884 1.428 . S
H879 C875 0.930 . S
H880 C877 0.929 . S
S881 N882 1.613 . S
S881 N883 1.610 . S
N882 S881 1.613 . S
N882 C885 1.350 . S
N883 S881 1.610 . S
N883 C884 1.351 . S
C884 C878 1.428 . S
C884 N883 1.351 . S
C884 C885 1.434 . S
C885 C876 1.429 . S
C885 N882 1.350 . S
C885 C884 1.434 . S
C886 C887 1.369 . S
C886 C888 1.419 . S
C886 H890 0.930 . S
C887 C886 1.369 . S
C887 C896 1.429 . S
C888 C886 1.419 . S
C888 C889 1.363 . S
C888 H891 0.929 . S
C889 C888 1.363 . S
C889 C895 1.428 . S
H890 C886 0.930 . S
H891 C888 0.929 . S
S892 N893 1.613 . S
S892 N894 1.610 . S
N893 S892 1.613 . S
N893 C896 1.350 . S
N894 S892 1.610 . S
N894 C895 1.351 . S
C895 C889 1.428 . S
C895 N894 1.351 . S
C895 C896 1.434 . S
C896 C887 1.429 . S
C896 N893 1.350 . S
C896 C895 1.434 . S
C897 C898 1.369 . S
C897 C899 1.419 . S
C897 H901 0.930 . S
C898 C897 1.369 . S
C898 C907 1.429 . S
C899 C897 1.419 . S
C899 C900 1.363 . S
C899 H902 0.929 . S
C900 C899 1.363 . S
C900 C906 1.428 . S
H901 C897 0.930 . S
H902 C899 0.929 . S
S903 N904 1.613 1_556 S
S903 N905 1.610 . S
N904 S903 1.613 1_554 S
N904 C907 1.350 . S
N905 S903 1.610 . S
N905 C906 1.351 1_556 S
C906 C900 1.428 . S
C906 N905 1.351 1_554 S
C906 C907 1.434 . S
C907 C898 1.429 . S
C907 N904 1.350 . S
C907 C906 1.434 . S
C908 C909 1.369 . S
C908 C910 1.419 . S
C908 H912 0.930 . S
C909 C908 1.369 . S
C909 C918 1.429 . S
C910 C908 1.419 . S
C910 C911 1.363 . S
C910 H913 0.929 1_655 S
C911 C910 1.363 . S
C911 C917 1.428 . S
H912 C908 0.930 . S
H913 C910 0.929 1_455 S
S914 N915 1.613 . S
S914 N916 1.610 . S
N915 S914 1.613 . S
N915 C918 1.350 . S
N916 S914 1.610 . S
N916 C917 1.351 . S
C917 C911 1.428 . S
C917 N916 1.351 . S
C917 C918 1.434 . S
C918 C909 1.429 . S
C918 N915 1.350 . S
C918 C917 1.434 . S
C919 C920 1.369 . S
C919 C921 1.419 . S
C919 H923 0.930 . S
C920 C919 1.369 . S
C920 C929 1.429 . S
C921 C919 1.419 . S
C921 C922 1.363 . S
C921 H924 0.929 1_655 S
C922 C921 1.363 . S
C922 C928 1.428 . S
H923 C919 0.930 . S
H924 C921 0.929 1_455 S
S925 N926 1.613 . S
S925 N927 1.610 . S
N926 S925 1.613 . S
N926 C929 1.350 . S
N927 S925 1.610 . S
N927 C928 1.351 . S
C928 C922 1.428 . S
C928 N927 1.351 . S
C928 C929 1.434 . S
C929 C920 1.429 . S
C929 N926 1.350 . S
C929 C928 1.434 . S
C930 C931 1.369 . S
C930 C932 1.419 . S
C930 H934 0.930 . S
C931 C930 1.369 . S
C931 C940 1.429 . S
C932 C930 1.419 . S
C932 C933 1.363 . S
C932 H935 0.929 . S
C933 C932 1.363 . S
C933 C939 1.428 . S
H934 C930 0.930 . S
H935 C932 0.929 . S
S936 N937 1.613 . S
S936 N938 1.610 . S
N937 S936 1.613 . S
N937 C940 1.350 . S
N938 S936 1.610 . S
N938 C939 1.351 . S
C939 C933 1.428 . S
C939 N938 1.351 . S
C939 C940 1.434 . S
C940 C931 1.429 . S
C940 N937 1.350 . S
C940 C939 1.434 . S
C941 C942 1.369 . S
C941 C943 1.419 . S
C941 H945 0.930 . S
C942 C941 1.369 . S
C942 C951 1.429 . S
C943 C941 1.419 . S
C943 C944 1.363 . S
C943 H946 0.929 1_556 S
C944 C943 1.363 . S
C944 C950 1.428 . S
H945 C941 0.930 . S
H946 C943 0.929 1_554 S
S947 N948 1.613 . S
S947 N949 1.610 . S
N948 S947 1.613 . S
N948 C951 1.350 . S
N949 S947 1.610 . S
N949 C950 1.351 . S
C950 C944 1.428 . S
C950 N949 1.351 . S
C950 C951 1.434 . S
C951 C942 1.429 . S
C951 N948 1.350 . S
C951 C950 1.434 . S
C952 C953 1.369 . S
C952 C954 1.419 . S
C952 H956 0.930 . S
C953 C952 1.369 . S
C953 C962 1.429 . S
C954 C952 1.419 . S
C954 C955 1.363 . S
C954 H957 0.929 . S
C955 C954 1.363 . S
C955 C961 1.428 . S
H956 C952 0.930 . S
H957 C954 0.929 . S
S958 N959 1.613 . S
S958 N960 1.610 . S
N959 S958 1.613 . S
N959 C962 1.350 . S
N960 S958 1.610 . S
N960 C961 1.351 . S
C961 C955 1.428 . S
C961 N960 1.351 . S
C961 C962 1.434 . S
C962 C953 1.429 . S
C962 N959 1.350 . S
C962 C961 1.434 . S
C963 C964 1.369 . S
C963 C965 1.419 . S
C963 H967 0.930 . S
C964 C963 1.369 . S
C964 C973 1.429 . S
C965 C963 1.419 . S
C965 C966 1.363 . S
C965 H968 0.929 . S
C966 C965 1.363 . S
C966 C972 1.428 . S
H967 C963 0.930 . S
H968 C965 0.929 . S
S969 N970 1.613 1_556 S
S969 N971 1.610 . S
N970 S969 1.613 1_554 S
N970 C973 1.350 . S
N971 S969 1.610 . S
N971 C972 1.351 1_556 S
C972 C966 1.428 . S
C972 N971 1.351 1_554 S
C972 C973 1.434 . S
C973 C964 1.429 . S
C973 N970 1.350 . S
C973 C972 1.434 . S
C974 C975 1.369 . S
C974 C976 1.419 . S
C974 H978 0.930 . S
C975 C974 1.369 . S
C975 C984 1.429 . S
C976 C974 1.419 . S
C976 C977 1.363 . S
C976 H979 0.929 . S
C977 C976 1.363 . S
C977 C983 1.428 . S
H978 C974 0.930 . S
H979 C976 0.929 . S
S980 N981 1.613 . S
S980 N982 1.610 . S
N981 S980 1.613 . S
N981 C984 1.350 . S
N982 S980 1.610 . S
N982 C983 1.351 . S
C983 C977 1.428 . S
C983 N982 1.351 . S
C983 C984 1.434 . S
C984 C975 1.429 . S
C984 N981 1.350 . S
C984 C983 1.434 . S
C985 C986 1.369 . S
C985 C987 1.419 . S
C985 H989 0.930 1_655 S
C986 C985 1.369 . S
C986 C995 1.429 . S
C987 C985 1.419 . S
C987 C988 1.363 . S
C987 H990 0.929 . S
C988 C987 1.363 . S
C988 C994 1.428 . S
H989 C985 0.930 1_455 S
H990 C987 0.929 . S
S991 N992 1.613 . S
S991 N993 1.610 . S
N992 S991 1.613 . S
N992 C995 1.350 . S
N993 S991 1.610 . S
N993 C994 1.351 . S
C994 C988 1.428 . S
C994 N993 1.351 . S
C994 C995 1.434 . S
C995 C986 1.429 . S
C995 N992 1.350 . S
C995 C994 1.434 . S
C996 C997 1.369 . S
C996 C998 1.419 . S
C996 H1000 0.930 . S
C997 C996 1.369 . S
C997 C1006 1.429 . S
C998 C996 1.419 . S
C998 C999 1.363 . S
C998 H1001 0.929 . S
C999 C998 1.363 . S
C999 C1005 1.428 . S
H1000 C996 0.930 . S
H1001 C998 0.929 . S
S1002 N1003 1.613 . S
S1002 N1004 1.610 . S
N1003 S1002 1.613 . S
N1003 C1006 1.350 . S
N1004 S1002 1.610 . S
N1004 C1005 1.351 . S
C1005 C999 1.428 . S
C1005 N1004 1.351 . S
C1005 C1006 1.434 . S
C1006 C997 1.429 . S
C1006 N1003 1.350 . S
C1006 C1005 1.434 . S
C1007 C1008 1.369 . S
C1007 C1009 1.419 . S
C1007 H1011 0.930 . S
C1008 C1007 1.369 . S
C1008 C1017 1.429 . S
C1009 C1007 1.419 . S
C1009 C1010 1.363 . S
C1009 H1012 0.929 . S
C1010 C1009 1.363 . S
C1010 C1016 1.428 . S
H1011 C1007 0.930 . S
H1012 C1009 0.929 . S
S1013 N1014 1.613 . S
S1013 N1015 1.610 . S
N1014 S1013 1.613 . S
N1014 C1017 1.350 . S
N1015 S1013 1.610 . S
N1015 C1016 1.351 . S
C1016 C1010 1.428 . S
C1016 N1015 1.351 . S
C1016 C1017 1.434 . S
C1017 C1008 1.429 . S
C1017 N1014 1.350 . S
C1017 C1016 1.434 . S
C1018 C1019 1.369 . S
C1018 C1020 1.419 . S
C1018 H1022 0.930 . S
C1019 C1018 1.369 . S
C1019 C1028 1.429 . S
C1020 C1018 1.419 . S
C1020 C1021 1.363 . S
C1020 H1023 0.929 . S
C1021 C1020 1.363 . S
C1021 C1027 1.428 . S
H1022 C1018 0.930 . S
H1023 C1020 0.929 . S
S1024 N1025 1.613 . S
S1024 N1026 1.610 . S
N1025 S1024 1.613 . S
N1025 C1028 1.350 . S
N1026 S1024 1.610 . S
N1026 C1027 1.351 . S
C1027 C1021 1.428 . S
C1027 N1026 1.351 . S
C1027 C1028 1.434 . S
C1028 C1019 1.429 . S
C1028 N1025 1.350 . S
C1028 C1027 1.434 . S
C1029 C1030 1.369 . S
C1029 C1031 1.419 . S
C1029 H1033 0.930 . S
C1030 C1029 1.369 . S
C1030 C1039 1.429 . S
C1031 C1029 1.419 . S
C1031 C1032 1.363 . S
C1031 H1034 0.929 . S
C1032 C1031 1.363 . S
C1032 C1038 1.428 . S
H1033 C1029 0.930 . S
H1034 C1031 0.929 . S
S1035 N1036 1.613 . S
S1035 N1037 1.610 . S
N1036 S1035 1.613 . S
N1036 C1039 1.350 . S
N1037 S1035 1.610 . S
N1037 C1038 1.351 . S
C1038 C1032 1.428 . S
C1038 N1037 1.351 . S
C1038 C1039 1.434 . S
C1039 C1030 1.429 . S
C1039 N1036 1.350 . S
C1039 C1038 1.434 . S
C513 C2 2.320 1_556 S
C515 C230 2.323 . S
C524 C34 2.319 . S
C526 C134 2.319 1_554 S
C535 C166 2.319 . S
C537 C66 2.320 . S
C546 C98 2.322 . S
C548 C194 2.319 . S
C557 C356 2.060 . S
C559 C157 2.061 1_654 S
C568 C285 2.055 . S
C570 C4 2.058 1_656 S
C579 C324 2.057 . S
C581 C196 2.061 . S
C590 C68 2.055 . S
C592 C317 2.060 . S
C601 C294 2.322 . S
C603 C386 2.323 . S
C612 C322 2.319 . S
C614 C454 2.323 . S
C623 C422 2.318 1_656 S
C625 C262 2.321 . S
C634 C354 2.323 . S
C636 C482 2.323 1_654 S
C645 C477 2.059 . S
C647 C100 2.056 . S
C656 C388 2.060 . S
C658 C189 2.056 . S
C667 C36 2.059 . S
C669 C484 2.061 1_554 S
C678 C253 2.055 . S
C680 C445 2.058 1_556 S
C689 N434 1.111 . S
C691 N13 1.119 . S
C700 N365 1.126 . S
C702 N45 1.117 . S
C711 N397 1.121 . S
C713 N77 1.113 . S
C722 N333 1.111 . S
C724 N109 1.119 . S
C733 N146 1.126 . S
C735 N493 1.117 . S
C744 N306 1.110 . S
C746 N178 1.119 . S
C755 N205 1.110 . S
C757 N466 1.116 . S
C766 N242 1.112 . S
C768 N274 1.113 . S
C777 N18 1.438 . S
C779 N141 1.439 . S
C788 N50 1.438 . S
C790 N173 1.439 . S
C799 N210 1.439 . S
C801 N82 1.438 . S
C810 N114 1.439 . S
C812 N237 1.438 . S
C821 N338 1.439 . S
C823 N269 1.439 . S
C832 N370 1.438 . S
C834 N301 1.438 . S
C843 N402 1.438 . S
C845 N461 1.438 . S
C854 N498 1.438 . S
C856 N429 1.438 . S
C865 C6 1.791 . S
C867 C226 1.798 . S
C876 C38 1.800 . S
C878 C130 1.794 . S
C887 C162 1.794 . S
C889 C70 1.791 . S
C898 C198 1.793 . S
C900 C102 1.791 . S
C909 C381 1.771 . S
C911 C132 1.773 1_655 S
C920 C260 1.773 . S
C922 C29 1.771 1_655 S
C931 C349 1.774 . S
C933 C221 1.766 . S
C942 C93 1.764 . S
C944 C292 1.771 . S
C953 C390 1.800 . S
C955 C290 1.796 . S
C964 C450 1.797 . S
C966 C326 1.791 . S
C975 C418 1.800 1_655 S
C977 C258 1.794 . S
C986 C486 1.798 1_655 S
C988 C358 1.798 . S
C997 C452 1.769 . S
C999 C125 1.773 . S
C1008 C164 1.772 . S
C1010 C413 1.772 . S
C1019 C61 1.773 . S
C1021 C509 1.772 . S
C1030 C420 1.773 . S
C1032 C228 1.771 . S
