# Generated by pormake.
# Topology unm, (4)-cn, num edge types: 1
# Building blocks:
#     Node 0, Type 0, BuildingBlock: TATPOV_clean_sbu_0, # of connection points: 4
#     Node 1, Type 0, BuildingBlock: TATPOV_clean_sbu_0, # of connection points: 4
#     Node 2, Type 0, BuildingBlock: TATPOV_clean_sbu_0, # of connection points: 4
#     Node 3, Type 0, BuildingBlock: TATPOV_clean_sbu_0, # of connection points: 4
#     Node 4, Type 0, BuildingBlock: TATPOV_clean_sbu_0, # of connection points: 4
#     Node 5, Type 0, BuildingBlock: TATPOV_clean_sbu_0, # of connection points: 4
#     Node 6, Type 0, BuildingBlock: TATPOV_clean_sbu_0, # of connection points: 4
#     Node 7, Type 0, BuildingBlock: TATPOV_clean_sbu_0, # of connection points: 4
#     Edge 8, Type (0, 0), BuildingBlock: XUDNAN_clean_linker_2, # of connection points: 2
#     Edge 9, Type (0, 0), BuildingBlock: XUDNAN_clean_linker_2, # of connection points: 2
#     Edge 10, Type (0, 0), BuildingBlock: XUDNAN_clean_linker_2, # of connection points: 2
#     Edge 11, Type (0, 0), BuildingBlock: XUDNAN_clean_linker_2, # of connection points: 2
#     Edge 12, Type (0, 0), BuildingBlock: XUDNAN_clean_linker_2, # of connection points: 2
#     Edge 13, Type (0, 0), BuildingBlock: XUDNAN_clean_linker_2, # of connection points: 2
#     Edge 14, Type (0, 0), BuildingBlock: XUDNAN_clean_linker_2, # of connection points: 2
#     Edge 15, Type (0, 0), BuildingBlock: XUDNAN_clean_linker_2, # of connection points: 2
#     Edge 16, Type (0, 0), BuildingBlock: XUDNAN_clean_linker_2, # of connection points: 2
#     Edge 17, Type (0, 0), BuildingBlock: XUDNAN_clean_linker_2, # of connection points: 2
#     Edge 18, Type (0, 0), BuildingBlock: XUDNAN_clean_linker_2, # of connection points: 2
#     Edge 19, Type (0, 0), BuildingBlock: XUDNAN_clean_linker_2, # of connection points: 2
#     Edge 20, Type (0, 0), BuildingBlock: XUDNAN_clean_linker_2, # of connection points: 2
#     Edge 21, Type (0, 0), BuildingBlock: XUDNAN_clean_linker_2, # of connection points: 2
#     Edge 22, Type (0, 0), BuildingBlock: XUDNAN_clean_linker_2, # of connection points: 2
#     Edge 23, Type (0, 0), BuildingBlock: XUDNAN_clean_linker_2, # of connection points: 2
# Relax obj value: 0.130
# Max RMSD: 0.140
# Mean RMSD: 0.140
data_MOF--net-unm--node1-TATPOV_clean_sbu_0--edge1-XUDNAN_clean_linker_2
_symmetry_space_group_name_H-M    P1
_symmetry_Int_Tables_number       1
_symmetry_cell_setting            triclinic
loop_
_symmetry_equiv_pos_as_xyz
'x, y, z'
_cell_length_a     25.723807
_cell_length_b     25.702613
_cell_length_c     42.435122
_cell_angle_alpha  90.082867
_cell_angle_beta   90.142604
_cell_angle_gamma 90.314311
loop_
_atom_site_label
_atom_site_type_symbol
_atom_site_fract_x
_atom_site_fract_y
_atom_site_fract_z
_atom_type_partial_charge
Zn0 Zn 0.89574 0.20968 0.12601 0.0
Zn1 Zn 0.9804 0.22135 0.1634 0.0
O2 O 0.91859 0.21307 0.19473 0.0
O3 O 0.85221 0.19252 0.16415 0.0
O4 O 0.04552 0.23245 0.19063 0.0
O5 O 0.93316 0.15655 0.0999 0.0
O6 O 0.99923 0.16036 0.13314 0.0
C7 C 0.87053 0.2013 0.1914 0.0
C8 C 0.94091 0.31114 0.1224 0.0
O9 O 0.97474 0.29095 0.14055 0.0
O10 O 0.90174 0.28496 0.11345 0.0
C11 C 0.08722 0.24805 0.17737 0.0
O12 O 0.08714 0.25461 0.14667 0.0
C13 C 0.97762 0.14128 0.10853 0.0
Zn14 Zn 0.29213 0.42646 0.63653 0.0
Zn15 Zn 0.26355 0.50771 0.67248 0.0
O16 O 0.27767 0.44631 0.70379 0.0
O17 O 0.30784 0.38238 0.67466 0.0
O18 O 0.24643 0.57056 0.69964 0.0
O19 O 0.34502 0.47053 0.61322 0.0
O20 O 0.31567 0.53738 0.64013 0.0
C21 C 0.2942 0.39962 0.70134 0.0
C22 C 0.18525 0.45941 0.62832 0.0
O23 O 0.19746 0.49361 0.64875 0.0
O24 O 0.21776 0.42543 0.61962 0.0
C25 C 0.22939 0.61149 0.6863 0.0
O26 O 0.22326 0.61143 0.65555 0.0
C27 C 0.34389 0.51912 0.61815 0.0
Zn28 Zn 0.08314 0.76899 0.12512 0.0
Zn29 Zn 0.99655 0.78203 0.16203 0.0
O30 O 0.05759 0.78788 0.19436 0.0
O31 O 0.12684 0.78331 0.16394 0.0
O32 O 0.92834 0.7835 0.18679 0.0
O33 O 0.05483 0.82544 0.09644 0.0
O34 O 0.9898 0.84069 0.12897 0.0
C35 C 0.10704 0.78776 0.19113 0.0
C36 C 0.01805 0.6803 0.12525 0.0
O37 O 0.98994 0.71035 0.14177 0.0
O38 O 0.0626 0.69466 0.11607 0.0
C39 C 0.91808 0.74842 0.20711 0.0
O40 O 0.95408 0.71426 0.21415 0.0
C41 C 0.01452 0.8509 0.10364 0.0
Zn42 Zn 0.73085 0.58522 0.61699 0.0
Zn43 Zn 0.72639 0.50303 0.65764 0.0
O44 O 0.72443 0.56775 0.68773 0.0
O45 O 0.71716 0.63307 0.65441 0.0
O46 O 0.72906 0.43718 0.68429 0.0
O47 O 0.67552 0.54822 0.59076 0.0
O48 O 0.66531 0.48833 0.62742 0.0
C49 C 0.72003 0.61659 0.68253 0.0
C50 C 0.82154 0.52404 0.61566 0.0
O51 O 0.79449 0.49627 0.63423 0.0
O52 O 0.80525 0.56776 0.6063 0.0
C53 C 0.76995 0.42466 0.69942 0.0
O54 O 0.80886 0.45791 0.7009 0.0
C55 C 0.65314 0.50744 0.60071 0.0
Zn56 Zn 0.39481 0.263 0.3954 0.0
Zn57 Zn 0.47979 0.28903 0.36223 0.0
O58 O 0.41717 0.30027 0.33082 0.0
O59 O 0.34809 0.28427 0.35988 0.0
O60 O 0.54664 0.29929 0.33736 0.0
O61 O 0.41981 0.31097 0.42978 0.0
O62 O 0.48893 0.33414 0.40256 0.0
C63 C 0.36769 0.29648 0.33356 0.0
C64 C 0.46298 0.17866 0.38803 0.0
O65 O 0.48972 0.21372 0.37451 0.0
O66 O 0.41783 0.18842 0.3981 0.0
C67 C 0.55668 0.26657 0.31565 0.0
O68 O 0.52095 0.23211 0.30788 0.0
C69 C 0.46231 0.33589 0.42791 0.0
Zn70 Zn 0.24948 0.91624 0.90345 0.0
Zn71 Zn 0.21804 0.00263 0.87193 0.0
O72 O 0.20232 0.94237 0.83988 0.0
O73 O 0.22438 0.87298 0.8672 0.0
O74 O 0.20581 0.07162 0.84893 0.0
O75 O 0.20236 0.93644 0.93899 0.0
O76 O 0.17414 0.00516 0.91317 0.0
C77 C 0.20728 0.89297 0.842 0.0
C78 C 0.3323 0.98536 0.89277 0.0
O79 O 0.29528 0.01155 0.881 0.0
O80 O 0.32396 0.94044 0.90383 0.0
C81 C 0.23656 0.08288 0.82637 0.0
O82 O 0.27004 0.04763 0.81707 0.0
C83 C 0.17388 0.97641 0.93776 0.0
Zn84 Zn 0.58093 0.70484 0.39636 0.0
Zn85 Zn 0.49618 0.71911 0.36004 0.0
O86 O 0.5573 0.69966 0.32961 0.0
O87 O 0.62349 0.67872 0.35993 0.0
O88 O 0.43111 0.72711 0.33274 0.0
O89 O 0.54131 0.65908 0.42679 0.0
O90 O 0.4714 0.67664 0.3988 0.0
C91 C 0.60463 0.68533 0.33265 0.0
C92 C 0.54442 0.81123 0.39269 0.0
O93 O 0.50893 0.7915 0.37549 0.0
O94 O 0.58047 0.7833 0.40389 0.0
C95 C 0.39012 0.74427 0.34589 0.0
O96 O 0.39147 0.75461 0.37622 0.0
C97 C 0.49249 0.65668 0.42316 0.0
Zn98 Zn 0.80699 0.10214 0.88395 0.0
Zn99 Zn 0.80413 0.01187 0.85847 0.0
O100 O 0.82155 0.06702 0.82296 0.0
O101 O 0.84255 0.13836 0.84875 0.0
O102 O 0.8028 0.93987 0.83693 0.0
O103 O 0.8445 0.07955 0.92212 0.0
O104 O 0.85008 0.00256 0.89968 0.0
C105 C 0.83691 0.11454 0.8229 0.0
C106 C 0.70411 0.06186 0.87968 0.0
O107 O 0.72812 0.0213 0.87066 0.0
O108 O 0.7289 0.10351 0.88529 0.0
C109 C 0.77672 0.93159 0.81177 0.0
O110 O 0.75253 0.97081 0.79851 0.0
C111 C 0.85941 0.03285 0.92306 0.0
H112 H 0.99107 0.153 0.04573 0.0
H113 H 0.03106 0.05285 0.12408 0.0
H114 H 0.08115 0.99627 0.08778 0.0
H115 H 0.98549 0.05555 0.98084 0.0
H116 H 0.01479 0.10189 0.95476 0.0
H117 H 0.97562 0.12423 0.9872 0.0
H118 H 0.05772 0.18106 1.00293 0.0
H119 H 0.09581 0.15216 0.97203 0.0
H120 H 0.11766 0.14845 0.01234 0.0
H121 H 0.12612 0.95119 0.0428 0.0
H122 H 0.17131 0.92541 0.99424 0.0
H123 H 0.10842 0.06024 0.94602 0.0
C124 C 0.00967 0.11856 0.05506 0.0
C125 C 0.0067 0.10643 0.08747 0.0
C126 C 0.03285 0.06235 0.09924 0.0
C127 C 0.06109 0.03007 0.0788 0.0
C128 C 0.06351 0.0433 0.04692 0.0
C129 C 0.03913 0.08694 0.03519 0.0
C130 C 0.05273 0.09597 1.00084 0.0
C131 C 0.00418 0.09441 0.97972 0.0
C132 C 0.08277 0.14746 0.99682 0.0
C133 C 0.08728 0.04962 0.99475 0.0
C134 C 0.09266 0.01958 0.02157 0.0
C135 C 0.12244 0.9746 0.02174 0.0
C136 C 0.14781 0.96023 0.9939 0.0
C137 C 0.14354 0.99081 0.96615 0.0
C138 C 0.11249 0.03596 0.9667 0.0
H139 H 0.4303 0.5043 0.58198 0.0
H140 H 0.30349 0.61135 0.59793 0.0
H141 H 0.3261 0.65819 0.54886 0.0
H142 H 0.52158 0.60075 0.54827 0.0
H143 H 0.54717 0.55347 0.52131 0.0
H144 H 0.5218 0.53308 0.55886 0.0
H145 H 0.45622 0.46968 0.53026 0.0
H146 H 0.48239 0.48987 0.49263 0.0
H147 H 0.41403 0.49505 0.50036 0.0
H148 H 0.35572 0.6843 0.49311 0.0
H149 H 0.40102 0.69959 0.44247 0.0
H150 H 0.51217 0.5796 0.46582 0.0
C151 C 0.40836 0.53864 0.57568 0.0
C152 C 0.36544 0.55436 0.59384 0.0
C153 C 0.33715 0.59908 0.58462 0.0
C154 C 0.34934 0.62561 0.55658 0.0
C155 C 0.39064 0.60758 0.53843 0.0
C156 C 0.42063 0.56621 0.54823 0.0
C157 C 0.46211 0.55359 0.5244 0.0
C158 C 0.51642 0.56055 0.53902 0.0
C159 C 0.45337 0.49873 0.5111 0.0
C160 C 0.45138 0.59408 0.49957 0.0
C161 C 0.4091 0.62421 0.5076 0.0
C162 C 0.38946 0.6615 0.48697 0.0
C163 C 0.41497 0.66936 0.45805 0.0
C164 C 0.46008 0.64062 0.45026 0.0
C165 C 0.47794 0.60215 0.47123 0.0
H166 H 0.01645 0.8441 0.03948 0.0
H167 H 0.9624 0.94106 0.11631 0.0
H168 H 0.92074 1.00005 0.0778 0.0
H169 H 0.03643 0.94731 0.97901 0.0
H170 H 0.0128 0.90459 0.94862 0.0
H171 H 0.04474 0.87797 0.98281 0.0
H172 H 0.96133 0.82003 0.99052 0.0
H173 H 0.92957 0.85109 0.95776 0.0
H174 H 0.89946 0.85135 0.99606 0.0
H175 H 0.88379 0.04675 0.03155 0.0
H176 H 0.84928 0.07693 0.98082 0.0
H177 H 0.9204 0.94541 0.93349 0.0
C178 C 0.99683 0.87844 0.04811 0.0
C179 C 0.99321 0.88865 0.08083 0.0
C180 C 0.96575 0.93284 0.09135 0.0
C181 C 0.9421 0.96648 0.06966 0.0
C182 C 0.94552 0.95474 0.03762 0.0
C183 C 0.9719 0.91165 0.02682 0.0
C184 C 0.96543 0.90521 0.99141 0.0
C185 C 0.01804 0.90891 0.97449 0.0
C186 C 0.93727 0.85387 0.98349 0.0
C187 C 0.93173 0.95177 0.98392 0.0
C188 C 0.9212 0.97992 1.01097 0.0
C189 C 0.89159 0.02493 1.01026 0.0
C190 C 0.87242 0.04186 0.98118 0.0
C191 C 0.88227 0.01366 0.95301 0.0
C192 C 0.91217 0.96776 0.95453 0.0
H193 H 0.55356 0.3929 0.43561 0.0
H194 H 0.42076 0.33125 0.48683 0.0
H195 H 0.45894 0.36183 0.53655 0.0
H196 H 0.64995 0.36421 0.4999 0.0
H197 H 0.68704 0.42236 0.49187 0.0
H198 H 0.65278 0.38964 0.46039 0.0
H199 H 0.60762 0.47504 0.44711 0.0
H200 H 0.63798 0.50888 0.4795 0.0
H201 H 0.56826 0.50701 0.47598 0.0
H202 H 0.50892 0.40104 0.58093 0.0
H203 H 0.566 0.45215 0.61662 0.0
H204 H 0.66279 0.4949 0.53711 0.0
C205 C 0.53247 0.38602 0.45727 0.0
C206 C 0.48393 0.35976 0.45709 0.0
C207 C 0.45781 0.35141 0.48609 0.0
C208 C 0.47955 0.36791 0.51465 0.0
C209 C 0.52733 0.39342 0.51408 0.0
C210 C 0.55345 0.40285 0.48619 0.0
C211 C 0.60279 0.434 0.49225 0.0
C212 C 0.65098 0.40055 0.48572 0.0
C213 C 0.6042 0.48423 0.47261 0.0
C214 C 0.59736 0.44467 0.52732 0.0
C215 C 0.55482 0.41891 0.53965 0.0
C216 C 0.54254 0.42127 0.57164 0.0
C217 C 0.57488 0.45052 0.5917 0.0
C218 C 0.61791 0.47827 0.57948 0.0
C219 C 0.62925 0.47512 0.54689 0.0
H220 H 0.1002 0.24742 0.24206 0.0
H221 H 0.18291 0.27611 0.15471 0.0
H222 H 0.26252 0.29678 0.18487 0.0
H223 H 0.16266 0.35034 0.28728 0.0
H224 H 0.16476 0.31279 0.3231 0.0
H225 H 0.11387 0.30126 0.29465 0.0
H226 H 0.13898 0.20384 0.29183 0.0
H227 H 0.18963 0.21503 0.32043 0.0
H228 H 0.20509 0.18638 0.28283 0.0
H229 H 0.33497 0.31149 0.225 0.0
H230 H 0.3932 0.31698 0.27152 0.0
H231 H 0.26224 0.28105 0.33221 0.0
C232 C 0.13499 0.25811 0.22925 0.0
C233 C 0.13508 0.26002 0.19593 0.0
C234 C 0.18162 0.27431 0.18019 0.0
C235 C 0.22716 0.28627 0.19713 0.0
C236 C 0.22574 0.28415 0.22992 0.0
C237 C 0.1808 0.27045 0.24581 0.0
C238 C 0.18978 0.27022 0.28111 0.0
C239 C 0.15574 0.31109 0.29749 0.0
C240 C 0.18033 0.21562 0.29485 0.0
C241 C 0.24684 0.28525 0.28258 0.0
C242 C 0.26698 0.29333 0.25286 0.0
C243 C 0.31944 0.30566 0.24842 0.0
C244 C 0.35226 0.30889 0.275 0.0
C245 C 0.33252 0.29989 0.30566 0.0
C246 C 0.2788 0.28877 0.30924 0.0
H247 H 0.23388 0.62441 0.75061 0.0
H248 H 0.199 0.70665 0.6639 0.0
H249 H 0.18273 0.78685 0.69437 0.0
H250 H 0.13715 0.68981 0.7994 0.0
H251 H 0.17891 0.691 0.83357 0.0
H252 H 0.18484 0.63949 0.80498 0.0
H253 H 0.28267 0.66146 0.79815 0.0
H254 H 0.27706 0.7128 0.82677 0.0
H255 H 0.30179 0.7269 0.78799 0.0
H256 H 0.17576 0.86032 0.73469 0.0
H257 H 0.17965 0.91923 0.78099 0.0
H258 H 0.21678 0.78729 0.84057 0.0
C259 C 0.22238 0.65911 0.738 0.0
C260 C 0.21775 0.65909 0.70483 0.0
C261 C 0.20276 0.70554 0.68931 0.0
C262 C 0.19332 0.75136 0.70643 0.0
C263 C 0.19858 0.75013 0.73911 0.0
C264 C 0.21257 0.70507 0.7547 0.0
C265 C 0.21739 0.71428 0.7898 0.0
C266 C 0.17717 0.68171 0.80801 0.0
C267 C 0.27303 0.70322 0.80134 0.0
C268 C 0.205 0.77172 0.79148 0.0
C269 C 0.19393 0.79187 0.7621 0.0
C270 C 0.18382 0.84478 0.75787 0.0
C271 C 0.18598 0.87797 0.78431 0.0
C272 C 0.19824 0.85807 0.81452 0.0
C273 C 0.20685 0.804 0.81794 0.0
H274 H 0.70463 0.64869 0.32977 0.0
H275 H 0.58847 0.7303 0.27475 0.0
H276 H 0.65547 0.75303 0.23541 0.0
H277 H 0.80433 0.7369 0.3201 0.0
H278 H 0.85594 0.69007 0.31675 0.0
H279 H 0.79804 0.67392 0.3384 0.0
H280 H 0.78309 0.59249 0.30345 0.0
H281 H 0.84168 0.60768 0.28208 0.0
H282 H 0.78109 0.59942 0.26119 0.0
H283 H 0.7383 0.77782 0.20617 0.0
H284 H 0.82723 0.79182 0.18561 0.0
H285 H 0.88849 0.69168 0.2589 0.0
C286 C 0.69281 0.66992 0.30896 0.0
C287 C 0.64101 0.68747 0.3054 0.0
C288 C 0.62757 0.71578 0.27793 0.0
C289 C 0.66556 0.72928 0.25553 0.0
C290 C 0.71674 0.71352 0.26061 0.0
C291 C 0.7301 0.68334 0.28627 0.0
C292 C 0.78812 0.6731 0.28704 0.0
C293 C 0.81304 0.69481 0.31737 0.0
C294 C 0.79914 0.6147 0.2832 0.0
C295 C 0.80562 0.7035 0.25835 0.0
C296 C 0.76395 0.72666 0.24342 0.0
C297 C 0.77104 0.75908 0.2174 0.0
C298 C 0.82179 0.76717 0.20603 0.0
C299 C 0.86494 0.74272 0.22052 0.0
C300 C 0.85639 0.7106 0.24708 0.0
H301 H 0.84052 0.3914 0.74347 0.0
H302 H 0.71378 0.33702 0.68415 0.0
H303 H 0.72754 0.24729 0.70332 0.0
H304 H 0.92318 0.27653 0.73668 0.0
H305 H 0.94319 0.27919 0.77739 0.0
H306 H 0.92671 0.33822 0.75686 0.0
H307 H 0.8582 0.36029 0.79951 0.0
H308 H 0.87536 0.30204 0.82041 0.0
H309 H 0.80873 0.31294 0.80905 0.0
H310 H 0.75357 0.16343 0.73054 0.0
H311 H 0.77894 0.09696 0.76963 0.0
H312 H 0.88665 0.20694 0.81215 0.0
C313 C 0.81588 0.36057 0.73432 0.0
C314 C 0.77622 0.37126 0.71218 0.0
C315 C 0.74432 0.32987 0.70119 0.0
C316 C 0.75223 0.27864 0.71169 0.0
C317 C 0.79205 0.26935 0.73331 0.0
C318 C 0.8228 0.30939 0.74485 0.0
C319 C 0.85972 0.29009 0.77007 0.0
C320 C 0.91657 0.29639 0.75961 0.0
C321 C 0.84988 0.31797 0.80162 0.0
C322 C 0.84413 0.23319 0.77151 0.0
C323 C 0.80598 0.22159 0.74958 0.0
C324 C 0.78373 0.17201 0.74763 0.0
C325 C 0.79882 0.13421 0.76974 0.0
C326 C 0.83506 0.14656 0.79384 0.0
C327 C 0.8594 0.19607 0.79376 0.0
H328 H 0.58639 0.20999 0.26408 0.0
H329 H 0.64689 0.31367 0.33632 0.0
H330 H 0.73583 0.30127 0.31556 0.0
H331 H 0.69355 0.12003 0.26324 0.0
H332 H 0.69138 0.11093 0.22113 0.0
H333 H 0.63288 0.12662 0.2423 0.0
H334 H 0.61833 0.20683 0.20642 0.0
H335 H 0.67622 0.19084 0.18485 0.0
H336 H 0.66959 0.25443 0.2023 0.0
H337 H 0.81889 0.27675 0.28647 0.0
H338 H 0.8862 0.25178 0.24783 0.0
H339 H 0.7701 0.16575 0.19441 0.0
C340 C 0.61828 0.23019 0.27558 0.0
C341 C 0.60959 0.26275 0.3019 0.0
C342 C 0.65248 0.2887 0.31605 0.0
C343 C 0.70322 0.28153 0.30458 0.0
C344 C 0.71045 0.24846 0.27886 0.0
C345 C 0.66897 0.22379 0.26431 0.0
C346 C 0.68656 0.19229 0.23614 0.0
C347 C 0.67543 0.13401 0.24101 0.0
C348 C 0.66119 0.21231 0.20563 0.0
C349 C 0.7444 0.20354 0.23679 0.0
C350 C 0.75768 0.2353 0.26188 0.0
C351 C 0.80886 0.25178 0.26679 0.0
C352 C 0.84698 0.23703 0.24484 0.0
C353 C 0.83359 0.20666 0.21808 0.0
C354 C 0.78178 0.18872 0.21466 0.0
H355 H 0.33179 0.30008 0.7049 0.0
H356 H 0.24184 0.41319 0.75729 0.0
H357 H 0.21827 0.34512 0.79595 0.0
H358 H 0.24576 0.19652 0.71244 0.0
H359 H 0.29462 0.14704 0.71687 0.0
H360 H 0.30931 0.2056 0.69541 0.0
H361 H 0.3881 0.2241 0.73197 0.0
H362 H 0.3743 0.16498 0.75321 0.0
H363 H 0.37878 0.226 0.77405 0.0
H364 H 0.19674 0.26107 0.8258 0.0
H365 H 0.18725 0.17172 0.84696 0.0
H366 H 0.29213 0.11503 0.77488 0.0
C367 C 0.30821 0.31103 0.72492 0.0
C368 C 0.28889 0.36227 0.72801 0.0
C369 C 0.25767 0.37451 0.75448 0.0
C370 C 0.24374 0.33592 0.77649 0.0
C371 C 0.26176 0.28532 0.77195 0.0
C372 C 0.29416 0.27315 0.7471 0.0
C373 C 0.30694 0.21566 0.74673 0.0
C374 C 0.28801 0.1897 0.71604 0.0
C375 C 0.3655 0.2072 0.7518 0.0
C376 C 0.27579 0.197 0.77481 0.0
C377 C 0.24993 0.23762 0.78913 0.0
C378 C 0.21736 0.22917 0.81493 0.0
C379 C 0.21189 0.17818 0.82667 0.0
C380 C 0.23893 0.13618 0.81267 0.0
C381 C 0.271 0.14612 0.78628 0.0
H382 H 0.37609 0.74153 0.28135 0.0
H383 H 0.29421 0.76874 0.36911 0.0
H384 H 0.21351 0.78566 0.3394 0.0
H385 H 0.31093 0.84165 0.23665 0.0
H386 H 0.30906 0.80409 0.20076 0.0
H387 H 0.36051 0.79402 0.22893 0.0
H388 H 0.3372 0.6959 0.23162 0.0
H389 H 0.28589 0.70564 0.20334 0.0
H390 H 0.27157 0.67648 0.24095 0.0
H391 H 0.14035 0.79749 0.29982 0.0
H392 H 0.08173 0.80343 0.25358 0.0
H393 H 0.21221 0.77126 0.19197 0.0
C394 C 0.34119 0.75094 0.29434 0.0
C395 C 0.34163 0.75364 0.32763 0.0
C396 C 0.29504 0.76641 0.34364 0.0
C397 C 0.24889 0.77615 0.32696 0.0
C398 C 0.24981 0.77336 0.29418 0.0
C399 C 0.2948 0.76119 0.27804 0.0
C400 C 0.28537 0.76074 0.24278 0.0
C401 C 0.31843 0.80262 0.22632 0.0
C402 C 0.2956 0.70646 0.22886 0.0
C403 C 0.22804 0.77407 0.24164 0.0
C404 C 0.20813 0.78121 0.2715 0.0
C405 C 0.15564 0.79232 0.2763 0.0
C406 C 0.12261 0.7957 0.24989 0.0
C407 C 0.14221 0.78825 0.21905 0.0
C408 C 0.19585 0.7778 0.21512 0.0
H409 H 0.69981 0.72138 0.68017 0.0
H410 H 0.75225 0.60041 0.74377 0.0
H411 H 0.77133 0.66724 0.78435 0.0
H412 H 0.7946 0.81469 0.69961 0.0
H413 H 0.75173 0.86976 0.69699 0.0
H414 H 0.73863 0.81228 0.67398 0.0
H415 H 0.64658 0.80521 0.69828 0.0
H416 H 0.65913 0.86311 0.72109 0.0
H417 H 0.63949 0.8039 0.74053 0.0
H418 H 0.79188 0.74958 0.81648 0.0
H419 H 0.80435 0.83804 0.83859 0.0
H420 H 0.73632 0.90403 0.75406 0.0
C421 C 0.71448 0.70866 0.7028 0.0
C422 C 0.72437 0.65535 0.70869 0.0
C423 C 0.74385 0.64077 0.73868 0.0
C424 C 0.75511 0.67859 0.76185 0.0
C425 C 0.7462 0.7309 0.75488 0.0
C426 C 0.72553 0.74576 0.7262 0.0
C427 C 0.72033 0.80443 0.7242 0.0
C428 C 0.7533 0.82657 0.69709 0.0
C429 C 0.66297 0.82007 0.72083 0.0
C430 C 0.74212 0.82053 0.75599 0.0
C431 C 0.75699 0.77767 0.77339 0.0
C432 C 0.77982 0.78327 0.80311 0.0
C433 C 0.78701 0.83376 0.81544 0.0
C434 C 0.77122 0.87821 0.7982 0.0
C435 C 0.74857 0.87106 0.76804 0.0
H436 H 0.07313 0.59034 0.12509 0.0
H437 H 0.91919 0.65314 0.1094 0.0
H438 H 0.8852 0.56439 0.09948 0.0
H439 H 0.06532 0.47931 0.0692 0.0
H440 H 0.09903 0.43644 0.0958 0.0
H441 H 0.11315 0.50522 0.09619 0.0
H442 H 0.09255 0.50872 0.15594 0.0
H443 H 0.07845 0.44013 0.15571 0.0
H444 H 0.03044 0.48537 0.16974 0.0
H445 H 0.86699 0.46953 0.09487 0.0
H446 H 0.86303 0.37439 0.10192 0.0
H447 H 0.02761 0.3731 0.12488 0.0
C448 C 0.0326 0.5853 0.11873 0.0
C449 C 0.99875 0.62813 0.11741 0.0
C450 C 0.94557 0.62045 0.11022 0.0
C451 C 0.92611 0.57039 0.10436 0.0
C452 C 0.96032 0.52868 0.10625 0.0
C453 C 0.01232 0.5355 0.11362 0.0
C454 C 0.03924 0.48388 0.1183 0.0
C455 C 0.08169 0.47575 0.09338 0.0
C456 C 0.06144 0.47928 0.15192 0.0
C457 C 0.99396 0.44706 0.11317 0.0
C458 C 0.94916 0.47363 0.10542 0.0
C459 C 0.90187 0.44819 0.10068 0.0
C460 C 0.90005 0.39417 0.1047 0.0
C461 C 0.94501 0.36654 0.114 0.0
C462 C 0.99268 0.39329 0.1177 0.0
H463 H 0.909 0.58219 0.6092 0.0
H464 H 0.84978 0.42435 0.60346 0.0
H465 H 0.93893 0.39183 0.59517 0.0
H466 H 0.02466 0.56676 0.55477 0.0
H467 H 0.06456 0.60682 0.58011 0.0
H468 H 0.99579 0.61903 0.57691 0.0
H469 H 0.98705 0.61103 0.63758 0.0
H470 H 0.05541 0.59857 0.64093 0.0
H471 H 0.00921 0.5527 0.65685 0.0
H472 H 0.03402 0.37536 0.5954 0.0
H473 H 0.12755 0.37545 0.60926 0.0
H474 H 0.12413 0.54331 0.61915 0.0
C475 C 0.91482 0.54109 0.60488 0.0
C476 C 0.87302 0.50572 0.60635 0.0
C477 C 0.88172 0.45191 0.60204 0.0
C478 C 0.93202 0.43321 0.59708 0.0
C479 C 0.97296 0.4689 0.59681 0.0
C480 C 0.96491 0.52176 0.60074 0.0
C481 C 0.01559 0.55083 0.60524 0.0
C482 C 0.02574 0.58805 0.5776 0.0
C483 C 0.01686 0.57993 0.63703 0.0
C484 C 0.05305 0.50582 0.60487 0.0
C485 C 0.02805 0.45911 0.59885 0.0
C486 C 0.05424 0.41175 0.59961 0.0
C487 C 0.10717 0.4121 0.60752 0.0
C488 C 0.13245 0.45936 0.61533 0.0
C489 C 0.1054 0.50671 0.61321 0.0
H490 H 0.41096 0.08672 0.39368 0.0
H491 H 0.56576 0.15456 0.39229 0.0
H492 H 0.60384 0.06737 0.39975 0.0
H493 H 0.43637 0.98267 0.45064 0.0
H494 H 0.39645 0.93639 0.42955 0.0
H495 H 0.38126 0.00471 0.42808 0.0
H496 H 0.3849 0.00217 0.367 0.0
H497 H 0.39979 0.93394 0.36831 0.0
H498 H 0.44253 0.9782 0.34787 0.0
H499 H 0.62487 0.97263 0.40522 0.0
H500 H 0.62747 0.87641 0.40195 0.0
H501 H 0.45909 0.87176 0.39647 0.0
C502 C 0.45281 0.08323 0.39547 0.0
C503 C 0.48552 0.12703 0.39273 0.0
C504 C 0.54015 0.12115 0.39439 0.0
C505 C 0.56207 0.072 0.39888 0.0
C506 C 0.52871 0.0294 0.40137 0.0
C507 C 0.47529 0.03448 0.39936 0.0
C508 C 0.44825 0.98225 0.39946 0.0
C509 C 0.41354 0.97617 0.42868 0.0
C510 C 0.41706 0.97365 0.36884 0.0
C511 C 0.49486 0.94698 0.40117 0.0
C512 C 0.54088 0.97479 0.40302 0.0
C513 C 0.58911 0.95034 0.40395 0.0
C514 C 0.59025 0.8959 0.40217 0.0
C515 C 0.5435 0.86724 0.39882 0.0
C516 C 0.49537 0.89305 0.39891 0.0
H517 H 0.42378 0.93213 0.89508 0.0
H518 H 0.35976 0.0878 0.88952 0.0
H519 H 0.44859 0.12457 0.88768 0.0
H520 H 0.53704 0.96358 0.9427 0.0
H521 H 0.57879 0.91959 0.92159 0.0
H522 H 0.51025 0.90579 0.92464 0.0
H523 H 0.5036 0.9002 0.86375 0.0
H524 H 0.57204 0.91411 0.86051 0.0
H525 H 0.52558 0.95431 0.84021 0.0
H526 H 0.5436 0.14415 0.88614 0.0
H527 H 0.6392 0.14533 0.88173 0.0
H528 H 0.64084 0.97648 0.88531 0.0
C529 C 0.42852 0.97398 0.8939 0.0
C530 C 0.38516 0.00726 0.89276 0.0
C531 C 0.39267 0.06173 0.89052 0.0
C532 C 0.44286 0.08295 0.88955 0.0
C533 C 0.48483 0.04903 0.8905 0.0
C534 C 0.47825 0.99573 0.89239 0.0
C535 C 0.52978 0.96776 0.89124 0.0
C536 C 0.53953 0.9374 0.92187 0.0
C537 C 0.53291 0.932 0.86219 0.0
C538 C 0.56634 0.01371 0.88835 0.0
C539 C 0.53965 0.06023 0.88833 0.0
C540 C 0.56501 0.10802 0.88609 0.0
C541 C 0.61923 0.10826 0.88366 0.0
C542 C 0.64724 0.06097 0.88309 0.0
C543 C 0.62035 0.01318 0.8855 0.0
loop_
_geom_bond_atom_site_label_1
_geom_bond_atom_site_label_2
_geom_bond_distance
_geom_bond_site_symmetry_2
_ccdc_geom_bond_type
Zn0 O3 2.030 1_455 S
Zn0 O5 2.049 . S
Zn0 O10 2.067 . S
Zn1 O2 1.962 . S
Zn1 O4 1.986 . S
Zn1 O6 1.996 . S
Zn1 O9 1.943 . S
O2 Zn1 1.962 . S
O2 C7 1.254 . S
O3 Zn0 2.030 1_655 S
O3 C7 1.267 1_655 S
O4 Zn1 1.986 . S
O4 C11 1.262 . S
O5 Zn0 2.049 . S
O5 C13 1.260 . S
O6 Zn1 1.996 . S
O6 C13 1.257 . S
C7 O2 1.254 . S
C7 O3 1.267 1_455 S
C8 O9 1.249 . S
C8 O10 1.270 . S
O9 Zn1 1.943 . S
O9 C8 1.249 . S
O10 Zn0 2.067 . S
O10 C8 1.270 . S
C11 O4 1.262 . S
C11 O12 1.232 . S
O12 C11 1.232 . S
C13 O5 1.260 . S
C13 O6 1.257 . S
Zn14 O17 2.031 . S
Zn14 O19 2.049 . S
Zn14 O24 2.067 . S
Zn15 O16 1.962 . S
Zn15 O18 1.986 . S
Zn15 O20 1.996 . S
Zn15 O23 1.943 . S
O16 Zn15 1.962 . S
O16 C21 1.254 . S
O17 Zn14 2.031 . S
O17 C21 1.269 . S
O18 Zn15 1.986 . S
O18 C25 1.262 . S
O19 Zn14 2.049 . S
O19 C27 1.260 . S
O20 Zn15 1.996 . S
O20 C27 1.257 . S
C21 O16 1.254 . S
C21 O17 1.269 . S
C22 O23 1.249 . S
C22 O24 1.270 . S
O23 Zn15 1.943 . S
O23 C22 1.249 . S
O24 Zn14 2.067 . S
O24 C22 1.270 . S
C25 O18 1.262 . S
C25 O26 1.232 . S
O26 C25 1.232 . S
C27 O19 1.260 . S
C27 O20 1.257 . S
Zn28 O31 2.030 1_655 S
Zn28 O33 2.049 . S
Zn28 O38 2.067 . S
Zn29 O30 1.962 . S
Zn29 O32 1.986 . S
Zn29 O34 1.996 . S
Zn29 O37 1.943 . S
O30 Zn29 1.962 . S
O30 C35 1.254 . S
O31 Zn28 2.030 1_455 S
O31 C35 1.267 1_455 S
O32 Zn29 1.986 . S
O32 C39 1.262 . S
O33 Zn28 2.049 . S
O33 C41 1.260 . S
O34 Zn29 1.996 . S
O34 C41 1.257 . S
C35 O30 1.254 . S
C35 O31 1.267 1_655 S
C36 O37 1.249 . S
C36 O38 1.270 . S
O37 Zn29 1.943 . S
O37 C36 1.249 . S
O38 Zn28 2.067 . S
O38 C36 1.270 . S
C39 O32 1.262 . S
C39 O40 1.232 . S
O40 C39 1.232 . S
C41 O33 1.260 . S
C41 O34 1.257 . S
Zn42 O45 2.031 . S
Zn42 O47 2.049 . S
Zn42 O52 2.067 . S
Zn43 O44 1.962 . S
Zn43 O46 1.986 . S
Zn43 O48 1.996 . S
Zn43 O51 1.943 . S
O44 Zn43 1.962 . S
O44 C49 1.254 . S
O45 Zn42 2.031 . S
O45 C49 1.269 . S
O46 Zn43 1.986 . S
O46 C53 1.262 . S
O47 Zn42 2.049 . S
O47 C55 1.260 . S
O48 Zn43 1.996 . S
O48 C55 1.257 . S
C49 O44 1.254 . S
C49 O45 1.269 . S
C50 O51 1.249 . S
C50 O52 1.270 . S
O51 Zn43 1.943 . S
O51 C50 1.249 . S
O52 Zn42 2.067 . S
O52 C50 1.270 . S
C53 O46 1.262 . S
C53 O54 1.232 . S
O54 C53 1.232 . S
C55 O47 1.260 . S
C55 O48 1.257 . S
Zn56 O59 2.031 . S
Zn56 O61 2.049 . S
Zn56 O66 2.067 . S
Zn57 O58 1.962 . S
Zn57 O60 1.986 . S
Zn57 O62 1.996 . S
Zn57 O65 1.943 . S
O58 Zn57 1.962 . S
O58 C63 1.254 . S
O59 Zn56 2.031 . S
O59 C63 1.269 . S
O60 Zn57 1.986 . S
O60 C67 1.262 . S
O61 Zn56 2.049 . S
O61 C69 1.260 . S
O62 Zn57 1.996 . S
O62 C69 1.257 . S
C63 O58 1.254 . S
C63 O59 1.269 . S
C64 O65 1.249 . S
C64 O66 1.270 . S
O65 Zn57 1.943 . S
O65 C64 1.249 . S
O66 Zn56 2.067 . S
O66 C64 1.270 . S
C67 O60 1.262 . S
C67 O68 1.232 . S
O68 C67 1.232 . S
C69 O61 1.260 . S
C69 O62 1.257 . S
Zn70 O73 2.030 1_545 S
Zn70 O75 2.049 . S
Zn70 O80 2.067 . S
Zn71 O72 1.962 . S
Zn71 O74 1.986 . S
Zn71 O76 1.996 . S
Zn71 O79 1.943 . S
O72 Zn71 1.962 . S
O72 C77 1.254 . S
O73 Zn70 2.030 1_565 S
O73 C77 1.267 1_565 S
O74 Zn71 1.986 . S
O74 C81 1.262 . S
O75 Zn70 2.049 . S
O75 C83 1.260 . S
O76 Zn71 1.996 . S
O76 C83 1.257 . S
C77 O72 1.254 . S
C77 O73 1.267 1_545 S
C78 O79 1.249 . S
C78 O80 1.270 . S
O79 Zn71 1.943 . S
O79 C78 1.249 . S
O80 Zn70 2.067 . S
O80 C78 1.270 . S
C81 O74 1.262 . S
C81 O82 1.232 . S
O82 C81 1.232 . S
C83 O75 1.260 . S
C83 O76 1.257 . S
Zn84 O87 2.031 . S
Zn84 O89 2.049 . S
Zn84 O94 2.067 . S
Zn85 O86 1.962 . S
Zn85 O88 1.986 . S
Zn85 O90 1.996 . S
Zn85 O93 1.943 . S
O86 Zn85 1.962 . S
O86 C91 1.254 . S
O87 Zn84 2.031 . S
O87 C91 1.269 . S
O88 Zn85 1.986 . S
O88 C95 1.262 . S
O89 Zn84 2.049 . S
O89 C97 1.260 . S
O90 Zn85 1.996 . S
O90 C97 1.257 . S
C91 O86 1.254 . S
C91 O87 1.269 . S
C92 O93 1.249 . S
C92 O94 1.270 . S
O93 Zn85 1.943 . S
O93 C92 1.249 . S
O94 Zn84 2.067 . S
O94 C92 1.270 . S
C95 O88 1.262 . S
C95 O96 1.232 . S
O96 C95 1.232 . S
C97 O89 1.260 . S
C97 O90 1.257 . S
Zn98 O101 2.030 1_565 S
Zn98 O103 2.049 . S
Zn98 O108 2.067 . S
Zn99 O100 1.962 . S
Zn99 O102 1.986 . S
Zn99 O104 1.996 . S
Zn99 O107 1.943 . S
O100 Zn99 1.962 . S
O100 C105 1.254 . S
O101 Zn98 2.030 1_545 S
O101 C105 1.267 1_545 S
O102 Zn99 1.986 . S
O102 C109 1.262 . S
O103 Zn98 2.049 . S
O103 C111 1.260 . S
O104 Zn99 1.996 . S
O104 C111 1.257 . S
C105 O100 1.254 . S
C105 O101 1.267 1_565 S
C106 O107 1.249 . S
C106 O108 1.270 . S
O107 Zn99 1.943 . S
O107 C106 1.249 . S
O108 Zn98 2.067 . S
O108 C106 1.270 . S
C109 O102 1.262 . S
C109 O110 1.232 . S
O110 C109 1.232 . S
C111 O103 1.260 . S
C111 O104 1.257 . S
H112 C124 0.930 . S
H113 C126 0.930 . S
H114 C127 0.930 . S
H115 C131 0.959 . S
H116 C131 0.959 . S
H117 C131 0.961 . S
H118 C132 0.960 . S
H119 C132 0.961 . S
H120 C132 0.959 . S
H121 C135 0.929 . S
H122 C136 0.931 . S
H123 C138 0.930 . S
C124 H112 0.930 . S
C124 C125 1.399 . S
C124 C129 1.399 . S
C125 C124 1.399 . S
C125 C126 1.376 . S
C126 H113 0.930 . S
C126 C125 1.376 . S
C126 C127 1.388 . S
C127 H114 0.930 . S
C127 C126 1.388 . S
C127 C128 1.390 . S
C128 C127 1.390 . S
C128 C129 1.394 . S
C128 C134 1.465 1_554 S
C129 C124 1.399 . S
C129 C128 1.394 . S
C129 C130 1.516 1_554 S
C130 C129 1.516 1_556 S
C130 C131 1.502 . S
C130 C132 1.561 . S
C130 C133 1.526 . S
C131 H115 0.959 . S
C131 H116 0.959 . S
C131 H117 0.961 . S
C131 C130 1.502 . S
C132 H118 0.960 . S
C132 H119 0.961 . S
C132 H120 0.959 . S
C132 C130 1.561 . S
C133 C130 1.526 . S
C133 C134 1.396 . S
C133 C138 1.390 . S
C134 C128 1.465 1_556 S
C134 C133 1.396 . S
C134 C135 1.399 . S
C135 H121 0.929 . S
C135 C134 1.399 . S
C135 C136 1.385 . S
C136 H122 0.931 . S
C136 C135 1.385 . S
C136 C137 1.389 . S
C137 C136 1.389 . S
C137 C138 1.387 . S
C138 H123 0.930 . S
C138 C133 1.390 . S
C138 C137 1.387 . S
H139 C151 0.930 . S
H140 C153 0.930 . S
H141 C154 0.930 . S
H142 C158 0.959 . S
H143 C158 0.959 . S
H144 C158 0.961 . S
H145 C159 0.960 . S
H146 C159 0.961 . S
H147 C159 0.959 . S
H148 C162 0.929 . S
H149 C163 0.931 . S
H150 C165 0.930 . S
C151 H139 0.930 . S
C151 C152 1.399 . S
C151 C156 1.399 . S
C152 C151 1.399 . S
C152 C153 1.376 . S
C153 H140 0.930 . S
C153 C152 1.376 . S
C153 C154 1.388 . S
C154 H141 0.930 . S
C154 C153 1.388 . S
C154 C155 1.390 . S
C155 C154 1.390 . S
C155 C156 1.394 . S
C155 C161 1.465 . S
C156 C151 1.399 . S
C156 C155 1.394 . S
C156 C157 1.516 . S
C157 C156 1.516 . S
C157 C158 1.502 . S
C157 C159 1.561 . S
C157 C160 1.526 . S
C158 H142 0.959 . S
C158 H143 0.959 . S
C158 H144 0.961 . S
C158 C157 1.502 . S
C159 H145 0.960 . S
C159 H146 0.961 . S
C159 H147 0.959 . S
C159 C157 1.561 . S
C160 C157 1.526 . S
C160 C161 1.396 . S
C160 C165 1.390 . S
C161 C155 1.465 . S
C161 C160 1.396 . S
C161 C162 1.399 . S
C162 H148 0.929 . S
C162 C161 1.399 . S
C162 C163 1.385 . S
C163 H149 0.931 . S
C163 C162 1.385 . S
C163 C164 1.389 . S
C164 C163 1.389 . S
C164 C165 1.387 . S
C165 H150 0.930 . S
C165 C160 1.390 . S
C165 C164 1.387 . S
H166 C178 0.930 . S
H167 C180 0.930 . S
H168 C181 0.930 . S
H169 C185 0.959 . S
H170 C185 0.959 . S
H171 C185 0.961 . S
H172 C186 0.940 1_554 S
H173 C186 0.961 . S
H174 C186 0.959 . S
H175 C189 0.929 . S
H176 C190 0.931 . S
H177 C192 0.930 . S
C178 H166 0.930 . S
C178 C179 1.399 . S
C178 C183 1.399 . S
C179 C178 1.399 . S
C179 C180 1.376 . S
C180 H167 0.930 . S
C180 C179 1.376 . S
C180 C181 1.388 . S
C181 H168 0.930 . S
C181 C180 1.388 . S
C181 C182 1.390 . S
C182 C181 1.390 . S
C182 C183 1.394 . S
C182 C188 1.465 1_554 S
C183 C178 1.399 . S
C183 C182 1.394 . S
C183 C184 1.516 1_554 S
C184 C183 1.516 1_556 S
C184 C185 1.502 . S
C184 C186 1.561 . S
C184 C187 1.526 . S
C185 H169 0.959 . S
C185 H170 0.959 . S
C185 H171 0.961 . S
C185 C184 1.502 . S
C186 H172 0.940 1_556 S
C186 H173 0.961 . S
C186 H174 0.959 . S
C186 C184 1.561 . S
C187 C184 1.526 . S
C187 C188 1.396 . S
C187 C192 1.390 . S
C188 C182 1.465 1_556 S
C188 C187 1.396 . S
C188 C189 1.399 . S
C189 H175 0.929 . S
C189 C188 1.399 . S
C189 C190 1.385 . S
C190 H176 0.931 . S
C190 C189 1.385 . S
C190 C191 1.389 . S
C191 C190 1.389 . S
C191 C192 1.387 . S
C192 H177 0.930 . S
C192 C187 1.390 . S
C192 C191 1.387 . S
H193 C205 0.930 . S
H194 C207 0.930 . S
H195 C208 0.930 . S
H196 C212 0.959 . S
H197 C212 0.959 . S
H198 C212 0.961 . S
H199 C213 0.960 . S
H200 C213 0.961 . S
H201 C213 0.959 . S
H202 C216 0.929 . S
H203 C217 0.931 . S
H204 C219 0.930 . S
C205 H193 0.930 . S
C205 C206 1.399 . S
C205 C210 1.399 . S
C206 C205 1.399 . S
C206 C207 1.376 . S
C207 H194 0.930 . S
C207 C206 1.376 . S
C207 C208 1.388 . S
C208 H195 0.930 . S
C208 C207 1.388 . S
C208 C209 1.390 . S
C209 C208 1.390 . S
C209 C210 1.394 . S
C209 C215 1.465 . S
C210 C205 1.399 . S
C210 C209 1.394 . S
C210 C211 1.516 . S
C211 C210 1.516 . S
C211 C212 1.502 . S
C211 C213 1.561 . S
C211 C214 1.526 . S
C212 H196 0.959 . S
C212 H197 0.959 . S
C212 H198 0.961 . S
C212 C211 1.502 . S
C213 H199 0.960 . S
C213 H200 0.961 . S
C213 H201 0.959 . S
C213 C211 1.561 . S
C214 C211 1.526 . S
C214 C215 1.396 . S
C214 C219 1.390 . S
C215 C209 1.465 . S
C215 C214 1.396 . S
C215 C216 1.399 . S
C216 H202 0.929 . S
C216 C215 1.399 . S
C216 C217 1.385 . S
C217 H203 0.931 . S
C217 C216 1.385 . S
C217 C218 1.389 . S
C218 C217 1.389 . S
C218 C219 1.387 . S
C219 H204 0.930 . S
C219 C214 1.390 . S
C219 C218 1.387 . S
H220 C232 0.930 . S
H221 C234 0.930 . S
H222 C235 0.930 . S
H223 C239 0.959 . S
H224 C239 0.959 . S
H225 C239 0.961 . S
H226 C240 0.960 . S
H227 C240 0.961 . S
H228 C240 0.959 . S
H229 C243 0.929 . S
H230 C244 0.931 . S
H231 C246 0.930 . S
C232 H220 0.930 . S
C232 C233 1.399 . S
C232 C237 1.399 . S
C233 C232 1.399 . S
C233 C234 1.376 . S
C234 H221 0.930 . S
C234 C233 1.376 . S
C234 C235 1.388 . S
C235 H222 0.930 . S
C235 C234 1.388 . S
C235 C236 1.390 . S
C236 C235 1.390 . S
C236 C237 1.394 . S
C236 C242 1.465 . S
C237 C232 1.399 . S
C237 C236 1.394 . S
C237 C238 1.516 . S
C238 C237 1.516 . S
C238 C239 1.502 . S
C238 C240 1.561 . S
C238 C241 1.526 . S
C239 H223 0.959 . S
C239 H224 0.959 . S
C239 H225 0.961 . S
C239 C238 1.502 . S
C240 H226 0.960 . S
C240 H227 0.961 . S
C240 H228 0.959 . S
C240 C238 1.561 . S
C241 C238 1.526 . S
C241 C242 1.396 . S
C241 C246 1.390 . S
C242 C236 1.465 . S
C242 C241 1.396 . S
C242 C243 1.399 . S
C243 H229 0.929 . S
C243 C242 1.399 . S
C243 C244 1.385 . S
C244 H230 0.931 . S
C244 C243 1.385 . S
C244 C245 1.389 . S
C245 C244 1.389 . S
C245 C246 1.387 . S
C246 H231 0.930 . S
C246 C241 1.390 . S
C246 C245 1.387 . S
H247 C259 0.930 . S
H248 C261 0.930 . S
H249 C262 0.930 . S
H250 C266 0.959 . S
H251 C266 0.959 . S
H252 C266 0.961 . S
H253 C267 0.960 . S
H254 C267 0.961 . S
H255 C267 0.959 . S
H256 C270 0.929 . S
H257 C271 0.931 . S
H258 C273 0.930 . S
C259 H247 0.930 . S
C259 C260 1.399 . S
C259 C264 1.399 . S
C260 C259 1.399 . S
C260 C261 1.376 . S
C261 H248 0.930 . S
C261 C260 1.376 . S
C261 C262 1.388 . S
C262 H249 0.930 . S
C262 C261 1.388 . S
C262 C263 1.390 . S
C263 C262 1.390 . S
C263 C264 1.394 . S
C263 C269 1.465 . S
C264 C259 1.399 . S
C264 C263 1.394 . S
C264 C265 1.516 . S
C265 C264 1.516 . S
C265 C266 1.502 . S
C265 C267 1.561 . S
C265 C268 1.526 . S
C266 H250 0.959 . S
C266 H251 0.959 . S
C266 H252 0.961 . S
C266 C265 1.502 . S
C267 H253 0.960 . S
C267 H254 0.961 . S
C267 H255 0.959 . S
C267 C265 1.561 . S
C268 C265 1.526 . S
C268 C269 1.396 . S
C268 C273 1.390 . S
C269 C263 1.465 . S
C269 C268 1.396 . S
C269 C270 1.399 . S
C270 H256 0.929 . S
C270 C269 1.399 . S
C270 C271 1.385 . S
C271 H257 0.931 . S
C271 C270 1.385 . S
C271 C272 1.389 . S
C272 C271 1.389 . S
C272 C273 1.387 . S
C273 H258 0.930 . S
C273 C268 1.390 . S
C273 C272 1.387 . S
H274 C286 0.930 . S
H275 C288 0.930 . S
H276 C289 0.930 . S
H277 C293 0.959 . S
H278 C293 0.959 . S
H279 C293 0.961 . S
H280 C294 0.960 . S
H281 C294 0.961 . S
H282 C294 0.959 . S
H283 C297 0.929 . S
H284 C298 0.931 . S
H285 C300 0.930 . S
C286 H274 0.930 . S
C286 C287 1.399 . S
C286 C291 1.399 . S
C287 C286 1.399 . S
C287 C288 1.376 . S
C288 H275 0.930 . S
C288 C287 1.376 . S
C288 C289 1.388 . S
C289 H276 0.930 . S
C289 C288 1.388 . S
C289 C290 1.390 . S
C290 C289 1.390 . S
C290 C291 1.394 . S
C290 C296 1.465 . S
C291 C286 1.399 . S
C291 C290 1.394 . S
C291 C292 1.516 . S
C292 C291 1.516 . S
C292 C293 1.502 . S
C292 C294 1.561 . S
C292 C295 1.526 . S
C293 H277 0.959 . S
C293 H278 0.959 . S
C293 H279 0.961 . S
C293 C292 1.502 . S
C294 H280 0.960 . S
C294 H281 0.961 . S
C294 H282 0.959 . S
C294 C292 1.561 . S
C295 C292 1.526 . S
C295 C296 1.396 . S
C295 C300 1.390 . S
C296 C290 1.465 . S
C296 C295 1.396 . S
C296 C297 1.399 . S
C297 H283 0.929 . S
C297 C296 1.399 . S
C297 C298 1.385 . S
C298 H284 0.931 . S
C298 C297 1.385 . S
C298 C299 1.389 . S
C299 C298 1.389 . S
C299 C300 1.387 . S
C300 H285 0.930 . S
C300 C295 1.390 . S
C300 C299 1.387 . S
H301 C313 0.930 . S
H302 C315 0.930 . S
H303 C316 0.930 . S
H304 C320 0.959 . S
H305 C320 0.959 . S
H306 C320 0.961 . S
H307 C321 0.960 . S
H308 C321 0.961 . S
H309 C321 0.959 . S
H310 C324 0.929 . S
H311 C325 0.931 1_565 S
H312 C327 0.930 . S
C313 H301 0.930 . S
C313 C314 1.399 . S
C313 C318 1.399 . S
C314 C313 1.399 . S
C314 C315 1.376 . S
C315 H302 0.930 . S
C315 C314 1.376 . S
C315 C316 1.388 . S
C316 H303 0.930 . S
C316 C315 1.388 . S
C316 C317 1.390 . S
C317 C316 1.390 . S
C317 C318 1.394 . S
C317 C323 1.465 . S
C318 C313 1.399 . S
C318 C317 1.394 . S
C318 C319 1.516 . S
C319 C318 1.516 . S
C319 C320 1.502 . S
C319 C321 1.561 . S
C319 C322 1.526 . S
C320 H304 0.959 . S
C320 H305 0.959 . S
C320 H306 0.961 . S
C320 C319 1.502 . S
C321 H307 0.960 . S
C321 H308 0.961 . S
C321 H309 0.959 . S
C321 C319 1.561 . S
C322 C319 1.526 . S
C322 C323 1.396 . S
C322 C327 1.390 . S
C323 C317 1.465 . S
C323 C322 1.396 . S
C323 C324 1.399 . S
C324 H310 0.929 . S
C324 C323 1.399 . S
C324 C325 1.385 . S
C325 H311 0.931 1_545 S
C325 C324 1.385 . S
C325 C326 1.389 . S
C326 C325 1.389 . S
C326 C327 1.387 . S
C327 H312 0.930 . S
C327 C322 1.390 . S
C327 C326 1.387 . S
H328 C340 0.930 . S
H329 C342 0.930 . S
H330 C343 0.930 . S
H331 C347 0.959 . S
H332 C347 0.959 . S
H333 C347 0.961 . S
H334 C348 0.960 . S
H335 C348 0.961 . S
H336 C348 0.959 . S
H337 C351 0.929 . S
H338 C352 0.931 1_455 S
H339 C354 0.930 . S
C340 H328 0.930 . S
C340 C341 1.399 . S
C340 C345 1.399 . S
C341 C340 1.399 . S
C341 C342 1.376 . S
C342 H329 0.930 . S
C342 C341 1.376 . S
C342 C343 1.388 . S
C343 H330 0.930 . S
C343 C342 1.388 . S
C343 C344 1.390 . S
C344 C343 1.390 . S
C344 C345 1.394 . S
C344 C350 1.465 . S
C345 C340 1.399 . S
C345 C344 1.394 . S
C345 C346 1.516 . S
C346 C345 1.516 . S
C346 C347 1.502 . S
C346 C348 1.561 . S
C346 C349 1.526 . S
C347 H331 0.959 . S
C347 H332 0.959 . S
C347 H333 0.961 . S
C347 C346 1.502 . S
C348 H334 0.960 . S
C348 H335 0.961 . S
C348 H336 0.959 . S
C348 C346 1.561 . S
C349 C346 1.526 . S
C349 C350 1.396 . S
C349 C354 1.390 . S
C350 C344 1.465 . S
C350 C349 1.396 . S
C350 C351 1.399 . S
C351 H337 0.929 . S
C351 C350 1.399 . S
C351 C352 1.385 . S
C352 H338 0.931 1_655 S
C352 C351 1.385 . S
C352 C353 1.389 . S
C353 C352 1.389 . S
C353 C354 1.387 . S
C354 H339 0.930 . S
C354 C349 1.390 . S
C354 C353 1.387 . S
H355 C367 0.930 . S
H356 C369 0.930 . S
H357 C370 0.930 . S
H358 C374 0.959 . S
H359 C374 0.959 . S
H360 C374 0.961 . S
H361 C375 0.960 . S
H362 C375 0.961 . S
H363 C375 0.959 . S
H364 C378 0.929 . S
H365 C379 0.931 . S
H366 C381 0.930 . S
C367 H355 0.930 . S
C367 C368 1.399 . S
C367 C372 1.399 . S
C368 C367 1.399 . S
C368 C369 1.376 . S
C369 H356 0.930 . S
C369 C368 1.376 . S
C369 C370 1.388 . S
C370 H357 0.930 . S
C370 C369 1.388 . S
C370 C371 1.390 . S
C371 C370 1.390 . S
C371 C372 1.394 . S
C371 C377 1.465 . S
C372 C367 1.399 . S
C372 C371 1.394 . S
C372 C373 1.516 . S
C373 C372 1.516 . S
C373 C374 1.502 . S
C373 C375 1.561 . S
C373 C376 1.526 . S
C374 H358 0.959 . S
C374 H359 0.959 . S
C374 H360 0.961 . S
C374 C373 1.502 . S
C375 H361 0.960 . S
C375 H362 0.961 . S
C375 H363 0.959 . S
C375 C373 1.561 . S
C376 C373 1.526 . S
C376 C377 1.396 . S
C376 C381 1.390 . S
C377 C371 1.465 . S
C377 C376 1.396 . S
C377 C378 1.399 . S
C378 H364 0.929 . S
C378 C377 1.399 . S
C378 C379 1.385 . S
C379 H365 0.931 . S
C379 C378 1.385 . S
C379 C380 1.389 . S
C380 C379 1.389 . S
C380 C381 1.387 . S
C381 H366 0.930 . S
C381 C376 1.390 . S
C381 C380 1.387 . S
H382 C394 0.930 . S
H383 C396 0.930 . S
H384 C397 0.930 . S
H385 C401 0.959 . S
H386 C401 0.959 . S
H387 C401 0.961 . S
H388 C402 0.960 . S
H389 C402 0.961 . S
H390 C402 0.959 . S
H391 C405 0.929 . S
H392 C406 0.931 . S
H393 C408 0.930 . S
C394 H382 0.930 . S
C394 C395 1.399 . S
C394 C399 1.399 . S
C395 C394 1.399 . S
C395 C396 1.376 . S
C396 H383 0.930 . S
C396 C395 1.376 . S
C396 C397 1.388 . S
C397 H384 0.930 . S
C397 C396 1.388 . S
C397 C398 1.390 . S
C398 C397 1.390 . S
C398 C399 1.394 . S
C398 C404 1.465 . S
C399 C394 1.399 . S
C399 C398 1.394 . S
C399 C400 1.516 . S
C400 C399 1.516 . S
C400 C401 1.502 . S
C400 C402 1.561 . S
C400 C403 1.526 . S
C401 H385 0.959 . S
C401 H386 0.959 . S
C401 H387 0.961 . S
C401 C400 1.502 . S
C402 H388 0.960 . S
C402 H389 0.961 . S
C402 H390 0.959 . S
C402 C400 1.561 . S
C403 C400 1.526 . S
C403 C404 1.396 . S
C403 C408 1.390 . S
C404 C398 1.465 . S
C404 C403 1.396 . S
C404 C405 1.399 . S
C405 H391 0.929 . S
C405 C404 1.399 . S
C405 C406 1.385 . S
C406 H392 0.931 . S
C406 C405 1.385 . S
C406 C407 1.389 . S
C407 C406 1.389 . S
C407 C408 1.387 . S
C408 H393 0.930 . S
C408 C403 1.390 . S
C408 C407 1.387 . S
H409 C421 0.930 . S
H410 C423 0.930 . S
H411 C424 0.930 . S
H412 C428 0.959 . S
H413 C428 0.959 . S
H414 C428 0.961 . S
H415 C429 0.960 . S
H416 C429 0.961 . S
H417 C429 0.959 . S
H418 C432 0.929 . S
H419 C433 0.931 . S
H420 C435 0.930 . S
C421 H409 0.930 . S
C421 C422 1.399 . S
C421 C426 1.399 . S
C422 C421 1.399 . S
C422 C423 1.376 . S
C423 H410 0.930 . S
C423 C422 1.376 . S
C423 C424 1.388 . S
C424 H411 0.930 . S
C424 C423 1.388 . S
C424 C425 1.390 . S
C425 C424 1.390 . S
C425 C426 1.394 . S
C425 C431 1.465 . S
C426 C421 1.399 . S
C426 C425 1.394 . S
C426 C427 1.516 . S
C427 C426 1.516 . S
C427 C428 1.502 . S
C427 C429 1.561 . S
C427 C430 1.526 . S
C428 H412 0.959 . S
C428 H413 0.959 . S
C428 H414 0.961 . S
C428 C427 1.502 . S
C429 H415 0.960 . S
C429 H416 0.961 . S
C429 H417 0.959 . S
C429 C427 1.561 . S
C430 C427 1.526 . S
C430 C431 1.396 . S
C430 C435 1.390 . S
C431 C425 1.465 . S
C431 C430 1.396 . S
C431 C432 1.399 . S
C432 H418 0.929 . S
C432 C431 1.399 . S
C432 C433 1.385 . S
C433 H419 0.931 . S
C433 C432 1.385 . S
C433 C434 1.389 . S
C434 C433 1.389 . S
C434 C435 1.387 . S
C435 H420 0.930 . S
C435 C430 1.390 . S
C435 C434 1.387 . S
H436 C448 0.930 . S
H437 C450 0.930 . S
H438 C451 0.930 1_455 S
H439 C455 0.959 . S
H440 C455 0.959 . S
H441 C455 0.961 . S
H442 C456 0.960 . S
H443 C456 0.961 . S
H444 C456 0.959 . S
H445 C459 0.929 . S
H446 C460 0.931 . S
H447 C462 0.930 . S
C448 H436 0.930 . S
C448 C449 1.399 . S
C448 C453 1.399 . S
C449 C448 1.399 . S
C449 C450 1.376 . S
C450 H437 0.930 . S
C450 C449 1.376 . S
C450 C451 1.388 . S
C451 H438 0.930 1_655 S
C451 C450 1.388 . S
C451 C452 1.392 . S
C452 C451 1.392 . S
C452 C453 1.404 . S
C452 C458 1.455 1_655 S
C453 C448 1.399 . S
C453 C452 1.404 . S
C453 C454 1.516 . S
C454 C453 1.516 . S
C454 C455 1.502 . S
C454 C456 1.561 1_655 S
C454 C457 1.526 1_655 S
C455 H439 0.959 . S
C455 H440 0.959 . S
C455 H441 0.961 . S
C455 C454 1.502 . S
C456 H442 0.960 . S
C456 H443 0.961 . S
C456 H444 0.959 . S
C456 C454 1.561 1_455 S
C457 C454 1.526 1_455 S
C457 C458 1.396 . S
C457 C462 1.390 . S
C458 C452 1.455 1_455 S
C458 C457 1.396 . S
C458 C459 1.399 . S
C459 H445 0.929 . S
C459 C458 1.399 . S
C459 C460 1.385 . S
C460 H446 0.931 . S
C460 C459 1.385 . S
C460 C461 1.389 . S
C461 C460 1.389 . S
C461 C462 1.387 . S
C462 H447 0.930 . S
C462 C457 1.390 . S
C462 C461 1.387 . S
H463 C475 0.930 . S
H464 C477 0.930 . S
H465 C478 0.930 . S
H466 C482 0.959 . S
H467 C482 0.959 . S
H468 C482 0.961 . S
H469 C483 0.960 . S
H470 C483 0.961 1_455 S
H471 C483 0.959 . S
H472 C486 0.929 . S
H473 C487 0.931 . S
H474 C489 0.930 . S
C475 H463 0.930 . S
C475 C476 1.399 . S
C475 C480 1.399 . S
C476 C475 1.399 . S
C476 C477 1.376 . S
C477 H464 0.930 . S
C477 C476 1.376 . S
C477 C478 1.388 . S
C478 H465 0.930 . S
C478 C477 1.388 . S
C478 C479 1.390 . S
C479 C478 1.390 . S
C479 C480 1.394 . S
C479 C485 1.465 1_655 S
C480 C475 1.399 . S
C480 C479 1.394 . S
C480 C481 1.516 1_655 S
C481 C480 1.516 1_455 S
C481 C482 1.502 . S
C481 C483 1.561 1_455 S
C481 C484 1.526 . S
C482 H466 0.959 . S
C482 H467 0.959 . S
C482 H468 0.961 . S
C482 C481 1.502 . S
C483 H469 0.960 . S
C483 H470 0.961 1_655 S
C483 H471 0.959 . S
C483 C481 1.561 1_655 S
C484 C481 1.526 . S
C484 C485 1.396 . S
C484 C489 1.390 . S
C485 C479 1.465 1_455 S
C485 C484 1.396 . S
C485 C486 1.399 . S
C486 H472 0.929 . S
C486 C485 1.399 . S
C486 C487 1.385 . S
C487 H473 0.931 . S
C487 C486 1.385 . S
C487 C488 1.389 . S
C488 C487 1.389 . S
C488 C489 1.387 . S
C489 H474 0.930 . S
C489 C484 1.390 . S
C489 C488 1.387 . S
H490 C502 0.930 . S
H491 C504 0.930 . S
H492 C505 0.930 . S
H493 C509 0.959 . S
H494 C509 0.959 1_565 S
H495 C509 0.961 . S
H496 C510 0.960 1_545 S
H497 C510 0.961 . S
H498 C510 0.959 . S
H499 C513 0.929 . S
H500 C514 0.931 . S
H501 C516 0.930 . S
C502 H490 0.930 . S
C502 C503 1.399 . S
C502 C507 1.399 . S
C503 C502 1.399 . S
C503 C504 1.376 . S
C504 H491 0.930 . S
C504 C503 1.376 . S
C504 C505 1.388 . S
C505 H492 0.930 . S
C505 C504 1.388 . S
C505 C506 1.390 . S
C506 C505 1.390 . S
C506 C507 1.394 . S
C506 C512 1.465 1_545 S
C507 C502 1.399 . S
C507 C506 1.394 . S
C507 C508 1.516 . S
C508 C507 1.516 . S
C508 C509 1.502 . S
C508 C510 1.561 1_545 S
C508 C511 1.526 1_545 S
C509 H493 0.959 . S
C509 H494 0.959 1_545 S
C509 H495 0.961 . S
C509 C508 1.502 . S
C510 H496 0.960 1_565 S
C510 H497 0.961 . S
C510 H498 0.959 . S
C510 C508 1.561 1_565 S
C511 C508 1.526 1_565 S
C511 C512 1.396 . S
C511 C516 1.390 . S
C512 C506 1.465 1_565 S
C512 C511 1.396 . S
C512 C513 1.399 . S
C513 H499 0.929 . S
C513 C512 1.399 . S
C513 C514 1.385 . S
C514 H500 0.931 . S
C514 C513 1.385 . S
C514 C515 1.389 . S
C515 C514 1.389 . S
C515 C516 1.387 . S
C516 H501 0.930 . S
C516 C511 1.390 . S
C516 C515 1.387 . S
H517 C529 0.930 . S
H518 C531 0.930 . S
H519 C532 0.930 . S
H520 C536 0.959 . S
H521 C536 0.959 . S
H522 C536 0.961 . S
H523 C537 0.960 . S
H524 C537 0.961 1_565 S
H525 C537 0.959 . S
H526 C540 0.920 1_545 S
H527 C541 0.931 . S
H528 C543 0.930 . S
C529 H517 0.930 . S
C529 C530 1.399 . S
C529 C534 1.399 . S
C530 C529 1.399 . S
C530 C531 1.376 . S
C531 H518 0.930 . S
C531 C530 1.376 . S
C531 C532 1.388 . S
C532 H519 0.930 . S
C532 C531 1.388 . S
C532 C533 1.390 . S
C533 C532 1.390 . S
C533 C534 1.394 . S
C533 C539 1.471 . S
C534 C529 1.399 . S
C534 C533 1.394 . S
C534 C535 1.516 1_545 S
C535 C534 1.516 1_565 S
C535 C536 1.502 . S
C535 C537 1.561 1_565 S
C535 C538 1.526 . S
C536 H520 0.959 . S
C536 H521 0.959 . S
C536 H522 0.961 . S
C536 C535 1.502 . S
C537 H523 0.960 . S
C537 H524 0.961 1_545 S
C537 H525 0.959 . S
C537 C535 1.561 1_545 S
C538 C535 1.526 . S
C538 C539 1.389 1_565 S
C538 C543 1.390 . S
C539 C533 1.471 . S
C539 C538 1.389 1_545 S
C539 C540 1.398 1_545 S
C540 H526 0.920 1_565 S
C540 C539 1.398 1_565 S
C540 C541 1.396 . S
C541 H527 0.931 . S
C541 C540 1.396 . S
C541 C542 1.389 . S
C542 C541 1.389 . S
C542 C543 1.387 . S
C543 H528 0.930 . S
C543 C538 1.390 . S
C543 C542 1.387 . S
C125 C13 1.354 . S
C137 C83 1.269 . S
C152 C27 1.314 . S
C164 C97 1.345 . S
C179 C41 1.348 . S
C191 C111 1.265 . S
C206 C69 1.271 . S
C218 C55 1.355 . S
C233 C11 1.441 . S
C245 C63 1.400 . S
C260 C25 1.437 . S
C272 C77 1.441 1_565 S
C287 C91 1.421 . S
C299 C39 1.467 . S
C314 C53 1.467 . S
C326 C105 1.414 1_545 S
C341 C67 1.465 . S
C353 C7 1.404 1_655 S
C368 C21 1.389 . S
C380 C81 1.456 . S
C395 C95 1.452 . S
C407 C35 1.455 1_455 S
C422 C49 1.423 . S
C434 C109 1.467 . S
C449 C36 0.840 . S
C461 C8 0.892 . S
C476 C50 0.833 . S
C488 C22 0.894 . S
C503 C64 0.833 . S
C515 C92 0.796 . S
C530 C78 0.851 . S
C542 C106 0.789 . S
