# Generated by pormake.
# Topology whp, (6)-cn, num edge types: 1
# Building blocks:
#     Node 0, Type 0, BuildingBlock: IZENUY_clean_sbu_0, # of connection points: 6
#     Node 1, Type 0, BuildingBlock: IZENUY_clean_sbu_0, # of connection points: 6
#     Node 2, Type 0, BuildingBlock: IZENUY_clean_sbu_0, # of connection points: 6
#     Node 3, Type 0, BuildingBlock: IZENUY_clean_sbu_0, # of connection points: 6
#     Node 4, Type 0, BuildingBlock: IZENUY_clean_sbu_0, # of connection points: 6
#     Node 5, Type 0, BuildingBlock: IZENUY_clean_sbu_0, # of connection points: 6
#     Node 6, Type 0, BuildingBlock: IZENUY_clean_sbu_0, # of connection points: 6
#     Node 7, Type 0, BuildingBlock: IZENUY_clean_sbu_0, # of connection points: 6
#     Node 8, Type 0, BuildingBlock: IZENUY_clean_sbu_0, # of connection points: 6
#     Node 9, Type 0, BuildingBlock: IZENUY_clean_sbu_0, # of connection points: 6
#     Node 10, Type 0, BuildingBlock: IZENUY_clean_sbu_0, # of connection points: 6
#     Node 11, Type 0, BuildingBlock: IZENUY_clean_sbu_0, # of connection points: 6
#     Node 12, Type 0, BuildingBlock: IZENUY_clean_sbu_0, # of connection points: 6
#     Node 13, Type 0, BuildingBlock: IZENUY_clean_sbu_0, # of connection points: 6
#     Node 14, Type 0, BuildingBlock: IZENUY_clean_sbu_0, # of connection points: 6
#     Node 15, Type 0, BuildingBlock: IZENUY_clean_sbu_0, # of connection points: 6
#     Edge 16, Type (0, 0), BuildingBlock: CIFDUS_clean_linker_0, # of connection points: 2
#     Edge 17, Type (0, 0), BuildingBlock: CIFDUS_clean_linker_0, # of connection points: 2
#     Edge 18, Type (0, 0), BuildingBlock: CIFDUS_clean_linker_0, # of connection points: 2
#     Edge 19, Type (0, 0), BuildingBlock: CIFDUS_clean_linker_0, # of connection points: 2
#     Edge 20, Type (0, 0), BuildingBlock: CIFDUS_clean_linker_0, # of connection points: 2
#     Edge 21, Type (0, 0), BuildingBlock: CIFDUS_clean_linker_0, # of connection points: 2
#     Edge 22, Type (0, 0), BuildingBlock: CIFDUS_clean_linker_0, # of connection points: 2
#     Edge 23, Type (0, 0), BuildingBlock: CIFDUS_clean_linker_0, # of connection points: 2
#     Edge 24, Type (0, 0), BuildingBlock: CIFDUS_clean_linker_0, # of connection points: 2
#     Edge 25, Type (0, 0), BuildingBlock: CIFDUS_clean_linker_0, # of connection points: 2
#     Edge 26, Type (0, 0), BuildingBlock: CIFDUS_clean_linker_0, # of connection points: 2
#     Edge 27, Type (0, 0), BuildingBlock: CIFDUS_clean_linker_0, # of connection points: 2
#     Edge 28, Type (0, 0), BuildingBlock: CIFDUS_clean_linker_0, # of connection points: 2
#     Edge 29, Type (0, 0), BuildingBlock: CIFDUS_clean_linker_0, # of connection points: 2
#     Edge 30, Type (0, 0), BuildingBlock: CIFDUS_clean_linker_0, # of connection points: 2
#     Edge 31, Type (0, 0), BuildingBlock: CIFDUS_clean_linker_0, # of connection points: 2
#     Edge 32, Type (0, 0), BuildingBlock: CIFDUS_clean_linker_0, # of connection points: 2
#     Edge 33, Type (0, 0), BuildingBlock: CIFDUS_clean_linker_0, # of connection points: 2
#     Edge 34, Type (0, 0), BuildingBlock: CIFDUS_clean_linker_0, # of connection points: 2
#     Edge 35, Type (0, 0), BuildingBlock: CIFDUS_clean_linker_0, # of connection points: 2
#     Edge 36, Type (0, 0), BuildingBlock: CIFDUS_clean_linker_0, # of connection points: 2
#     Edge 37, Type (0, 0), BuildingBlock: CIFDUS_clean_linker_0, # of connection points: 2
#     Edge 38, Type (0, 0), BuildingBlock: CIFDUS_clean_linker_0, # of connection points: 2
#     Edge 39, Type (0, 0), BuildingBlock: CIFDUS_clean_linker_0, # of connection points: 2
#     Edge 40, Type (0, 0), BuildingBlock: CIFDUS_clean_linker_0, # of connection points: 2
#     Edge 41, Type (0, 0), BuildingBlock: CIFDUS_clean_linker_0, # of connection points: 2
#     Edge 42, Type (0, 0), BuildingBlock: CIFDUS_clean_linker_0, # of connection points: 2
#     Edge 43, Type (0, 0), BuildingBlock: CIFDUS_clean_linker_0, # of connection points: 2
#     Edge 44, Type (0, 0), BuildingBlock: CIFDUS_clean_linker_0, # of connection points: 2
#     Edge 45, Type (0, 0), BuildingBlock: CIFDUS_clean_linker_0, # of connection points: 2
#     Edge 46, Type (0, 0), BuildingBlock: CIFDUS_clean_linker_0, # of connection points: 2
#     Edge 47, Type (0, 0), BuildingBlock: CIFDUS_clean_linker_0, # of connection points: 2
#     Edge 48, Type (0, 0), BuildingBlock: CIFDUS_clean_linker_0, # of connection points: 2
#     Edge 49, Type (0, 0), BuildingBlock: CIFDUS_clean_linker_0, # of connection points: 2
#     Edge 50, Type (0, 0), BuildingBlock: CIFDUS_clean_linker_0, # of connection points: 2
#     Edge 51, Type (0, 0), BuildingBlock: CIFDUS_clean_linker_0, # of connection points: 2
#     Edge 52, Type (0, 0), BuildingBlock: CIFDUS_clean_linker_0, # of connection points: 2
#     Edge 53, Type (0, 0), BuildingBlock: CIFDUS_clean_linker_0, # of connection points: 2
#     Edge 54, Type (0, 0), BuildingBlock: CIFDUS_clean_linker_0, # of connection points: 2
#     Edge 55, Type (0, 0), BuildingBlock: CIFDUS_clean_linker_0, # of connection points: 2
#     Edge 56, Type (0, 0), BuildingBlock: CIFDUS_clean_linker_0, # of connection points: 2
#     Edge 57, Type (0, 0), BuildingBlock: CIFDUS_clean_linker_0, # of connection points: 2
#     Edge 58, Type (0, 0), BuildingBlock: CIFDUS_clean_linker_0, # of connection points: 2
#     Edge 59, Type (0, 0), BuildingBlock: CIFDUS_clean_linker_0, # of connection points: 2
#     Edge 60, Type (0, 0), BuildingBlock: CIFDUS_clean_linker_0, # of connection points: 2
#     Edge 61, Type (0, 0), BuildingBlock: CIFDUS_clean_linker_0, # of connection points: 2
#     Edge 62, Type (0, 0), BuildingBlock: CIFDUS_clean_linker_0, # of connection points: 2
#     Edge 63, Type (0, 0), BuildingBlock: CIFDUS_clean_linker_0, # of connection points: 2
# Relax obj value: 0.322
# Max RMSD: 0.246
# Mean RMSD: 0.246
data_MOF--net-whp--node1-IZENUY_clean_sbu_0--edge1-CIFDUS_clean_linker_0
_symmetry_space_group_name_H-M    P1
_symmetry_Int_Tables_number       1
_symmetry_cell_setting            triclinic
loop_
_symmetry_equiv_pos_as_xyz
'x, y, z'
_cell_length_a     41.969584
_cell_length_b     41.979561
_cell_length_c     25.174664
_cell_angle_alpha  90.011866
_cell_angle_beta   89.782654
_cell_angle_gamma 89.810588
loop_
_atom_site_label
_atom_site_type_symbol
_atom_site_fract_x
_atom_site_fract_y
_atom_site_fract_z
_atom_type_partial_charge
Fe0 Fe 0.3619 0.53874 0.2894 0.0
Fe1 Fe 0.31776 0.57837 0.36058 0.0
O2 O 0.32456 0.54395 0.32163 0.0
Fe3 Fe 0.29434 0.51476 0.31434 0.0
O4 O 0.30518 0.50517 0.24456 0.0
O5 O 0.34272 0.53992 0.22561 0.0
O6 O 0.37007 0.58127 0.28132 0.0
C7 C 0.3521 0.60547 0.28097 0.0
C8 C 0.34724 0.47671 0.323 0.0
O9 O 0.32558 0.60488 0.30479 0.0
C10 C 0.2901 0.53265 0.42313 0.0
O11 O 0.38319 0.53797 0.35218 0.0
O12 O 0.35902 0.58085 0.3834 0.0
O13 O 0.32022 0.48377 0.34178 0.0
O14 O 0.36116 0.49512 0.29092 0.0
C15 C 0.259 0.57003 0.30738 0.0
O16 O 0.31022 0.55463 0.4188 0.0
O17 O 0.27788 0.51976 0.38241 0.0
C18 C 0.3812 0.56036 0.38559 0.0
O19 O 0.27504 0.58178 0.34506 0.0
O20 O 0.26678 0.54374 0.28668 0.0
C21 C 0.32023 0.52214 0.21097 0.0
Fe22 Fe 1.00772 0.29381 0.83497 0.0
Fe23 Fe 0.97946 0.35998 0.80906 0.0
O24 O 0.97717 0.32292 0.84194 0.0
Fe25 Fe 0.94372 0.31494 0.88276 0.0
O26 O 0.93188 0.28329 0.8389 0.0
O27 O 0.97927 0.25995 0.83707 0.0
O28 O 1.00328 0.29248 0.7635 0.0
C29 C 1.00231 0.31584 0.73213 0.0
C30 C 0.99325 0.2854 0.93973 0.0
O31 O 0.99904 0.34409 0.74915 0.0
C32 C 0.95718 0.37536 0.91281 0.0
O33 O 0.04085 0.32288 0.83062 0.0
O34 O 0.01661 0.36916 0.84061 0.0
O35 O 0.96422 0.28685 0.9271 0.0
O36 O 0.01452 0.29287 0.90656 0.0
C37 C 0.91596 0.35103 0.79979 0.0
O38 O 0.96033 0.38224 0.86387 0.0
O39 O 0.95471 0.34671 0.92768 0.0
C40 C 0.0414 0.35232 0.84211 0.0
O41 O 0.94189 0.35365 0.77503 0.0
O42 O 0.91584 0.34132 0.84729 0.0
C43 C 0.94948 0.25987 0.82725 0.0
Fe44 Fe 0.22351 1.00734 0.30849 0.0
Fe45 Fe 0.15885 0.97664 0.28103 0.0
O46 O 0.19605 0.97533 0.31406 0.0
Fe47 Fe 0.20558 0.94212 0.35408 0.0
O48 O 0.23932 0.93262 0.31262 0.0
O49 O 0.25926 0.98111 0.31237 0.0
O50 O 0.22592 1.00268 0.23717 0.0
C51 C 0.20267 1.0016 0.20567 0.0
C52 C 0.23034 0.99327 0.41351 0.0
O53 O 0.17437 0.99808 0.22263 0.0
C54 C 0.14355 0.95078 0.38201 0.0
O55 O 0.19272 0.03901 0.30338 0.0
O56 O 0.14804 0.01271 0.31532 0.0
O57 O 0.23061 0.96414 0.401 0.0
O58 O 0.22291 0.01423 0.37994 0.0
C59 C 0.17196 0.91387 0.26815 0.0
O60 O 0.13702 0.95523 0.33346 0.0
O61 O 0.17207 0.9501 0.39768 0.0
C62 C 0.16365 0.03817 0.31732 0.0
O63 O 0.16649 0.93995 0.24509 0.0
O64 O 0.1826 0.91332 0.31509 0.0
C65 C 0.26239 0.95122 0.30481 0.0
Fe66 Fe 0.51085 0.2228 0.83119 0.0
Fe67 Fe 0.54026 0.15798 0.80066 0.0
O68 O 0.54234 0.19456 0.83514 0.0
Fe69 Fe 0.57618 0.20285 0.87443 0.0
O70 O 0.58616 0.23652 0.83314 0.0
O71 O 0.53793 0.25755 0.83515 0.0
O72 O 0.51498 0.22595 0.75972 0.0
C73 C 0.51584 0.20318 0.72711 0.0
C74 C 0.52607 0.22894 0.93599 0.0
O75 O 0.51898 0.17461 0.7429 0.0
C76 C 0.56603 0.14104 0.90127 0.0
O77 O 0.47855 0.19285 0.8256 0.0
O78 O 0.50408 0.14733 0.83461 0.0
O79 O 0.55509 0.2285 0.92238 0.0
O80 O 0.50465 0.22181 0.90305 0.0
C81 C 0.60315 0.16878 0.7871 0.0
O82 O 0.56143 0.13502 0.85243 0.0
O83 O 0.56755 0.16942 0.9176 0.0
C84 C 0.47878 0.16337 0.83681 0.0
O85 O 0.57667 0.16583 0.76446 0.0
O86 O 0.6043 0.17879 0.83452 0.0
C87 C 0.56771 0.25988 0.82565 0.0
Fe88 Fe 0.80784 0.44494 0.15923 0.0
Fe89 Fe 0.78155 0.50788 0.20136 0.0
O90 O 0.81153 0.47796 0.20214 0.0
Fe91 Fe 0.84509 0.48062 0.24457 0.0
O92 O 0.83746 0.44224 0.27517 0.0
O93 O 0.83066 0.41702 0.20015 0.0
O94 O 0.77258 0.43206 0.1939 0.0
C95 C 0.74786 0.449 0.1989 0.0
C96 C 0.87009 0.45975 0.14504 0.0
O97 O 0.74872 0.47893 0.18993 0.0
C98 C 0.83906 0.54303 0.21159 0.0
O99 O 0.78406 0.46547 0.10898 0.0
O100 O 0.78717 0.51567 0.13084 0.0
O101 O 0.87277 0.46289 0.19514 0.0
O102 O 0.8431 0.45698 0.12354 0.0
C103 C 0.79266 0.50059 0.30845 0.0
O104 O 0.80892 0.54156 0.21434 0.0
O105 O 0.85613 0.51864 0.21732 0.0
C106 C 0.78237 0.49451 0.09645 0.0
O107 O 0.77353 0.50219 0.27032 0.0
O108 O 0.82257 0.49856 0.30078 0.0
C109 C 0.8365 0.41665 0.24923 0.0
Fe110 Fe 0.07087 0.80322 0.64718 0.0
Fe111 Fe 1.00772 0.78077 0.69528 0.0
O112 O 0.03712 0.81086 0.68743 0.0
Fe113 Fe 0.03295 0.84842 0.71906 0.0
O114 O 0.0708 0.84492 0.75329 0.0
O115 O 0.09799 0.82941 0.68341 0.0
O116 O 0.08347 0.7713 0.69044 0.0
C117 C 0.06681 0.74694 0.6996 0.0
C118 C 0.05664 0.8636 0.6161 0.0
O119 O 0.03682 0.74741 0.69197 0.0
C120 C 0.97096 0.83801 0.68956 0.0
O121 O 0.05084 0.77529 0.60282 0.0
O122 O 1.0002 0.7789 0.62394 0.0
O123 O 0.05137 0.87088 0.66426 0.0
O124 O 0.05981 0.83489 0.60199 0.0
C125 C 0.01304 0.80365 0.79698 0.0
O126 O 0.97359 0.80875 0.70153 0.0
O127 O 0.9951 0.85562 0.6871 0.0
C128 C 0.02187 0.77161 0.59118 0.0
O129 O 0.0134 0.78009 0.76606 0.0
O130 O 0.01432 0.83203 0.77961 0.0
C131 C 0.09701 0.84088 0.72974 0.0
Fe132 Fe 0.71499 0.07311 0.16384 0.0
Fe133 Fe 0.7375 1.00902 0.21023 0.0
O134 O 0.70726 0.03842 0.20156 0.0
Fe135 Fe 0.66951 0.03303 0.2321 0.0
O136 O 0.66086 0.07526 0.242 0.0
O137 O 0.70463 0.09981 0.21853 0.0
O138 O 0.75666 0.07654 0.18499 0.0
C139 C 0.77106 0.06474 0.22457 0.0
C140 C 0.65202 0.05554 0.13452 0.0
O141 O 0.76333 0.03779 0.243 0.0
C142 C 0.6853 0.97149 0.19519 0.0
O143 O 0.72565 0.04978 0.1059 0.0
O144 O 0.7572 0.01569 0.14573 0.0
O145 O 0.64893 0.03363 0.1686 0.0
O146 O 0.67472 0.0753 0.13652 0.0
C147 C 0.70948 0.01332 0.31095 0.0
O148 O 0.71295 0.97844 0.17858 0.0
O149 O 0.67056 0.98956 0.22715 0.0
C150 C 0.74737 0.02903 0.10384 0.0
O151 O 0.72398 0.99687 0.27645 0.0
O152 O 0.68801 0.03281 0.29738 0.0
C153 C 0.67797 0.0999 0.24187 0.0
Fe154 Fe 0.50742 0.73627 0.69046 0.0
Fe155 Fe 0.48109 0.66971 0.71808 0.0
O156 O 0.47801 0.70621 0.68313 0.0
Fe157 Fe 0.44558 0.71258 0.63971 0.0
O158 O 0.43195 0.74597 0.67894 0.0
O159 O 0.47868 0.76964 0.68227 0.0
O160 O 0.49998 0.7393 0.76119 0.0
C161 C 0.4998 0.71647 0.79374 0.0
C162 C 0.49667 0.74106 0.58394 0.0
O163 O 0.49863 0.68774 0.778 0.0
C164 C 0.4605 0.65107 0.61536 0.0
O165 O 0.54105 0.70828 0.70109 0.0
O166 O 0.51947 0.66128 0.68857 0.0
O167 O 0.46723 0.73884 0.59381 0.0
O168 O 0.51699 0.73538 0.61957 0.0
C169 C 0.41696 0.67793 0.72434 0.0
O170 O 0.46381 0.64554 0.66454 0.0
O171 O 0.45769 0.67925 0.59834 0.0
C172 C 0.54364 0.67882 0.69057 0.0
O173 O 0.44255 0.67477 0.7498 0.0
O174 O 0.41723 0.68779 0.67688 0.0
C175 C 0.44851 0.77037 0.68803 0.0
Fe176 Fe 0.72441 0.50632 0.7174 0.0
Fe177 Fe 0.6567 0.48078 0.73536 0.0
O178 O 0.69512 0.47656 0.70652 0.0
Fe179 Fe 0.7042 0.44267 0.66773 0.0
O180 O 0.74608 0.44017 0.6885 0.0
O181 O 0.75104 0.47779 0.74885 0.0
O182 O 0.71013 0.51636 0.78462 0.0
C183 C 0.69542 0.49857 0.81709 0.0
C184 C 0.73479 0.48855 0.61005 0.0
O185 O 0.67393 0.48002 0.80103 0.0
C186 C 0.6411 0.45902 0.637 0.0
O187 O 0.69923 0.5366 0.68637 0.0
O188 O 0.65661 0.52445 0.7331 0.0
O189 O 0.7139 0.4671 0.61102 0.0
O190 O 0.74445 0.50132 0.65258 0.0
C191 C 0.6677 0.41419 0.74373 0.0
O192 O 0.63729 0.48094 0.67087 0.0
O193 O 0.66407 0.43947 0.64012 0.0
C194 C 0.67133 0.54302 0.70212 0.0
O195 O 0.64931 0.43807 0.74278 0.0
O196 O 0.69474 0.41541 0.72174 0.0
C197 C 0.76023 0.45187 0.72831 0.0
Fe198 Fe 0.01094 0.72545 0.18867 0.0
Fe199 Fe 0.04175 0.66299 0.22926 0.0
O200 O 0.04273 0.69752 0.18896 0.0
Fe201 Fe 0.07603 0.70397 0.14715 0.0
O202 O 0.0865 0.73899 0.18421 0.0
O203 O 0.03822 0.76022 0.18104 0.0
O204 O 0.01379 0.73208 0.25881 0.0
C205 C 0.01419 0.71155 0.29512 0.0
C206 C 0.02615 0.72767 0.08406 0.0
O207 O 0.02096 0.68256 0.28558 0.0
C208 C 0.06501 0.64145 0.12887 0.0
O209 O 0.97887 0.6955 0.1973 0.0
O210 O 1.0051 0.64994 0.19981 0.0
O211 O 0.05506 0.72809 0.09737 0.0
O212 O 1.00504 0.72099 0.11762 0.0
C213 C 0.1049 0.67422 0.23633 0.0
O214 O 0.06205 0.63761 0.17888 0.0
O215 O 0.06618 0.66904 0.10893 0.0
C216 C 0.9797 0.66536 0.19317 0.0
O217 O 0.07907 0.67307 0.26184 0.0
O218 O 0.1046 0.68119 0.18751 0.0
C219 C 0.06815 0.76271 0.18958 0.0
Fe220 Fe 0.79165 0.01688 0.69477 0.0
Fe221 Fe 0.8592 0.03628 0.73468 0.0
O222 O 0.82411 0.04388 0.69748 0.0
Fe223 Fe 0.82115 0.08002 0.66151 0.0
O224 O 0.79084 0.09389 0.70698 0.0
O225 O 0.76182 0.04993 0.69875 0.0
O226 O 0.78817 0.01546 0.76535 0.0
C227 C 0.80808 0.01712 0.80235 0.0
C228 C 0.78543 0.04015 0.59544 0.0
O229 O 0.83772 0.02055 0.79349 0.0
C230 C 0.87863 0.05665 0.63074 0.0
O231 O 0.81632 0.9803 0.69205 0.0
O232 O 0.86518 0.99763 0.70582 0.0
O233 O 0.7908 0.06715 0.6147 0.0
O234 O 0.79165 0.01577 0.62237 0.0
C235 C 0.85972 0.10049 0.74572 0.0
O236 O 0.88523 0.05134 0.67969 0.0
O237 O 0.85122 0.06585 0.61639 0.0
C238 C 0.84623 0.97597 0.6929 0.0
O239 O 0.85766 0.07428 0.76903 0.0
O240 O 0.85093 0.10257 0.6983 0.0
C241 C 0.76512 0.07878 0.71444 0.0
Fe242 Fe 0.47893 0.86089 0.2195 0.0
Fe243 Fe 0.44491 0.81417 0.14601 0.0
O244 O 0.47805 0.82372 0.1861 0.0
Fe245 Fe 0.51018 0.79619 0.1912 0.0
O246 O 0.50601 0.79394 0.26265 0.0
O247 O 0.49967 0.84524 0.27853 0.0
O248 O 0.44184 0.85347 0.2546 0.0
C249 C 0.41598 0.84825 0.231 0.0
C250 C 0.54096 0.85618 0.18365 0.0
O251 O 0.41592 0.83778 0.18397 0.0
C252 C 0.49573 0.78847 0.08635 0.0
O253 O 0.45813 0.88264 0.16629 0.0
O254 O 0.45338 0.84724 0.10219 0.0
O255 O 0.54185 0.82682 0.1956 0.0
O256 O 0.5154 0.87179 0.18646 0.0
C257 C 0.45388 0.75812 0.19725 0.0
O258 O 0.46673 0.78834 0.09963 0.0
O259 O 0.51678 0.79635 0.11937 0.0
C260 C 0.4541 0.87584 0.11765 0.0
O261 O 0.43517 0.78101 0.18814 0.0
O262 O 0.48374 0.76075 0.18851 0.0
C263 C 0.50411 0.81692 0.29474 0.0
Fe264 Fe 0.17011 0.53714 0.79054 0.0
Fe265 Fe 0.21396 0.57349 0.86595 0.0
O266 O 0.20696 0.54048 0.82415 0.0
Fe267 Fe 0.23693 0.51081 0.81713 0.0
O268 O 0.23925 0.51754 0.74649 0.0
O269 O 0.18768 0.51871 0.73023 0.0
O270 O 0.17464 0.57531 0.7576 0.0
C271 C 0.17812 0.60116 0.78226 0.0
C272 C 0.17973 0.475 0.82025 0.0
O273 O 0.18859 0.6014 0.82923 0.0
C274 C 0.24252 0.52309 0.9228 0.0
O275 O 0.14656 0.55513 0.84498 0.0
O276 O 0.1814 0.5621 0.90916 0.0
O277 O 0.20901 0.47714 0.8084 0.0
O278 O 0.16212 0.49925 0.82137 0.0
C279 C 0.27112 0.56938 0.81578 0.0
O280 O 0.24072 0.55232 0.91122 0.0
O281 O 0.23655 0.50217 0.88829 0.0
C282 C 0.15298 0.55897 0.89384 0.0
O283 O 0.24677 0.58629 0.82466 0.0
O284 O 0.27041 0.53938 0.82338 0.0
C285 C 0.21641 0.5173 0.71407 0.0
Fe286 Fe 0.9446 0.21548 0.38749 0.0
Fe287 Fe 1.00631 0.23724 0.33373 0.0
O288 O 0.97703 0.20753 0.34432 0.0
Fe289 Fe 0.97998 0.16994 0.31334 0.0
O290 O 0.94129 0.17416 0.2827 0.0
O291 O 0.91633 0.18772 0.35553 0.0
O292 O 0.93044 0.24663 0.34393 0.0
C293 C 0.94699 0.2709 0.33304 0.0
C294 C 0.96268 0.15639 0.42019 0.0
O295 O 0.97717 0.27051 0.33929 0.0
C296 C 0.04286 0.17999 0.33666 0.0
O297 O 0.96602 0.24431 0.42901 0.0
O298 O 0.01581 0.2383 0.40449 0.0
O299 O 0.96401 0.14786 0.37164 0.0
O300 O 0.95804 0.18512 0.4326 0.0
C301 C 0.99807 0.21425 0.23256 0.0
O302 O 0.04019 0.20922 0.32469 0.0
O303 O 0.01869 0.16266 0.34131 0.0
C304 C 0.99542 0.2455 0.43947 0.0
O305 O 0.99885 0.238 0.26319 0.0
O306 O 0.9964 0.18596 0.25051 0.0
C307 C 0.91587 0.17685 0.30868 0.0
Fe308 Fe 0.34649 0.97965 0.78111 0.0
Fe309 Fe 0.30164 0.94448 0.85677 0.0
O310 O 0.30947 0.97729 0.81482 0.0
Fe311 Fe 0.28035 1.00785 0.80785 0.0
O312 O 0.278 1.00142 0.73698 0.0
O313 O 0.32973 0.99882 0.72159 0.0
O314 O 0.34082 0.94185 0.74769 0.0
C315 C 0.33682 0.91601 0.77218 0.0
C316 C 0.33862 0.0419 0.81165 0.0
O317 O 0.32615 0.91588 0.81924 0.0
C318 C 0.27442 0.99573 0.91373 0.0
O319 O 0.36944 0.96064 0.83455 0.0
O320 O 0.33466 0.95483 0.89945 0.0
O321 O 0.30937 0.0407 0.79935 0.0
O322 O 0.35546 0.01709 0.81257 0.0
C323 C 0.24449 0.95012 0.80767 0.0
O324 O 0.27549 0.96639 0.90271 0.0
O325 O 0.28083 0.01634 0.87892 0.0
C326 C 0.3631 0.95683 0.88339 0.0
O327 O 0.26844 0.93267 0.81621 0.0
O328 O 0.24603 0.98018 0.81424 0.0
C329 C 0.30124 1.0008 0.70511 0.0
Fe330 Fe 0.51215 0.28367 0.33073 0.0
Fe331 Fe 0.53883 0.34997 0.30283 0.0
O332 O 0.54192 0.31336 0.33748 0.0
Fe333 Fe 0.57475 0.30644 0.37992 0.0
O334 O 0.58768 0.27297 0.34004 0.0
O335 O 0.54059 0.25004 0.33799 0.0
O336 O 0.51905 0.28061 0.25991 0.0
C337 C 0.51941 0.3034 0.2273 0.0
C338 C 0.5238 0.27863 0.43701 0.0
O339 O 0.52071 0.33214 0.24306 0.0
C340 C 0.56093 0.36807 0.4052 0.0
O341 O 0.47871 0.31197 0.32083 0.0
O342 O 0.50073 0.35875 0.33324 0.0
O343 O 0.55319 0.28032 0.42627 0.0
O344 O 0.50323 0.28461 0.40189 0.0
C345 C 0.60279 0.34117 0.29481 0.0
O346 O 0.55687 0.37383 0.35621 0.0
O347 O 0.56348 0.3398 0.42188 0.0
C348 C 0.47638 0.34144 0.33137 0.0
O349 O 0.57698 0.34461 0.27014 0.0
O350 O 0.60297 0.33103 0.34212 0.0
C351 C 0.57065 0.24891 0.33083 0.0
H352 H 0.38912 0.54569 0.48861 0.0
H353 H 0.43151 0.59595 0.35733 0.0
H354 H 0.46416 0.62704 0.41855 0.0
H355 H 0.47229 0.64667 0.50963 0.0
H356 H 0.42967 0.59636 0.64115 0.0
H357 H 0.40583 0.55821 0.58 0.0
C358 C 0.40667 0.56238 0.4736 0.0
C359 C 0.40839 0.56845 0.41896 0.0
C360 C 0.42469 0.58066 0.50915 0.0
C361 C 0.43047 0.59061 0.39942 0.0
C362 C 0.44872 0.60869 0.43443 0.0
C363 C 0.4584 0.62688 0.52481 0.0
C364 C 0.45224 0.6246 0.57952 0.0
C365 C 0.44476 0.60503 0.48942 0.0
C366 C 0.43463 0.59866 0.59906 0.0
C367 C 0.42085 0.57691 0.56412 0.0
H368 H 0.88212 0.47655 0.04396 0.0
H369 H 0.91863 0.42028 0.17347 0.0
H370 H 0.95345 0.3912 0.11204 0.0
H371 H 0.96524 0.37533 0.01968 0.0
H372 H 0.92814 0.43174 0.89048 0.0
H373 H 0.90217 0.46754 0.95354 0.0
C374 C 0.89854 0.45864 0.0588 0.0
C375 C 0.89771 0.45021 0.1127 0.0
C376 C 0.91791 0.4417 0.0232 0.0
C377 C 0.91907 0.4272 0.132 0.0
C378 C 0.93865 0.41031 0.09681 0.0
C379 C 0.95206 0.3959 1.00553 0.0
C380 C 0.94805 0.40058 0.95068 0.0
C381 C 0.93701 0.41631 0.04203 0.0
C382 C 0.93144 0.42757 0.93258 0.0
C383 C 0.91642 0.44796 0.96859 0.0
H384 H 0.04875 0.86532 0.50946 0.0
H385 H 0.08987 0.91696 0.64037 0.0
H386 H 0.11838 0.95147 0.57843 0.0
H387 H 0.13744 0.96167 0.48742 0.0
H388 H 0.09486 0.91143 0.35635 0.0
H389 H 0.06073 0.88196 0.41779 0.0
C390 C 0.06338 0.88463 0.52422 0.0
C391 C 0.06756 0.88844 0.57913 0.0
C392 C 0.07965 0.9044 0.48842 0.0
C393 C 0.08626 0.91367 0.59813 0.0
C394 C 0.10278 0.93324 0.56278 0.0
C395 C 0.12016 0.94475 0.47245 0.0
C396 C 0.11882 0.93836 0.41782 0.0
C397 C 0.10054 0.92804 0.50793 0.0
C398 C 0.09619 0.91672 0.39842 0.0
C399 C 0.07686 0.89971 0.43351 0.0
H400 H 0.55388 0.13442 1.0064 0.0
H401 H 0.60481 0.0914 0.87564 0.0
H402 H 0.63317 0.05638 0.93714 0.0
H403 H 0.64949 0.04447 0.02921 0.0
H404 H 0.59788 0.08664 0.15969 0.0
H405 H 0.56323 0.11506 0.09749 0.0
C406 C 0.57062 0.11679 0.99145 0.0
C407 C 0.57756 0.11564 0.93685 0.0
C408 C 0.58672 0.09667 0.02702 0.0
C409 C 0.59906 0.09261 0.91759 0.0
C410 C 0.61543 0.07274 0.95276 0.0
C411 C 0.62976 0.05886 0.0437 0.0
C412 C 0.62577 0.06332 0.09855 0.0
C413 C 0.61026 0.07536 1.00768 0.0
C414 C 0.60077 0.08251 0.11743 0.0
C415 C 0.58129 0.09904 0.08192 0.0
H416 H 0.5487 0.37378 0.51066 0.0
H417 H 0.59538 0.42048 0.37929 0.0
H418 H 0.62087 0.45766 0.44034 0.0
H419 H 0.6367 0.47071 0.53209 0.0
H420 H 0.58942 0.42478 0.66321 0.0
H421 H 0.55674 0.39397 0.60156 0.0
C422 C 0.56387 0.39261 0.49548 0.0
C423 C 0.57054 0.39419 0.44084 0.0
C424 C 0.57832 0.41401 0.53079 0.0
C425 C 0.58991 0.41883 0.4213 0.0
C426 C 0.60464 0.43999 0.45619 0.0
C427 C 0.61821 0.45498 0.54686 0.0
C428 C 0.61498 0.45014 0.6017 0.0
C429 C 0.59993 0.43705 0.51113 0.0
C430 C 0.59166 0.4292 0.62094 0.0
C431 C 0.57334 0.4113 0.58573 0.0
H432 H 0.15235 0.54968 1.00042 0.0
H433 H 0.09643 0.58781 0.87162 0.0
H434 H 0.06011 0.61291 0.9351 0.0
H435 H 0.05018 0.63156 0.02622 0.0
H436 H 0.10549 0.5932 0.15533 0.0
H437 H 0.13578 0.56011 0.09294 0.0
C438 C 0.13176 0.56288 0.9864 0.0
C439 C 0.12734 0.56741 0.93157 0.0
C440 C 0.11106 0.57737 0.02314 0.0
C441 C 0.10037 0.58408 0.91368 0.0
C442 C 0.07971 0.59863 0.94995 0.0
C443 C 0.06822 0.61518 0.04071 0.0
C444 C 0.07601 0.61506 0.09492 0.0
C445 C 0.08565 0.59653 1.00462 0.0
C446 C 0.09915 0.59364 0.11366 0.0
C447 C 0.11666 0.57497 0.07794 0.0
H448 H 0.93654 0.09706 0.41722 0.0
H449 H 0.98351 0.16367 0.5209 0.0
H450 H 0.96802 0.13232 0.59827 0.0
H451 H 0.93111 0.09329 0.6367 0.0
H452 H 0.88009 0.02978 0.53344 0.0
H453 H 0.90777 0.0516 0.45606 0.0
C454 C 0.94429 0.10401 0.45661 0.0
C455 C 0.9606 0.13283 0.46356 0.0
C456 C 0.93428 0.08644 0.50122 0.0
C457 C 0.97044 0.14175 0.51479 0.0
C458 C 0.96156 0.12388 0.55908 0.0
C459 C 0.92735 0.08323 0.59751 0.0
C460 C 0.90379 0.06004 0.59047 0.0
C461 C 0.94203 0.09716 0.55299 0.0
C462 C 0.89838 0.04757 0.5395 0.0
C463 C 0.91388 0.06033 0.49523 0.0
H464 H 0.36668 0.96774 0.9891 0.0
H465 H 0.41622 0.92285 0.85846 0.0
H466 H 0.4523 0.89645 0.92037 0.0
H467 H 0.4642 0.87998 0.01191 0.0
H468 H 0.41568 0.92585 0.1426 0.0
H469 H 0.38516 0.95851 0.08052 0.0
C470 C 0.38585 0.95271 0.97433 0.0
C471 C 0.38859 0.9468 0.91965 0.0
C472 C 0.4065 0.93765 1.0101 0.0
C473 C 0.41369 0.9277 0.90055 0.0
C474 C 0.43418 0.91242 0.9359 0.0
C475 C 0.44748 0.89771 0.02662 0.0
C476 C 0.4418 0.90032 0.08139 0.0
C477 C 0.43001 0.9163 0.99078 0.0
C478 C 0.42042 0.92352 0.10043 0.0
C479 C 0.40278 0.94199 0.06499 0.0
H480 H 0.35314 0.41913 0.27412 0.0
H481 H 0.38319 0.4728 0.41073 0.0
H482 H 0.42456 0.43318 0.42941 0.0
H483 H 0.45691 0.3876 0.39902 0.0
H484 H 0.42627 0.3325 0.26431 0.0
H485 H 0.38008 0.36778 0.2531 0.0
C486 C 0.36804 0.42139 0.30901 0.0
C487 C 0.36505 0.44853 0.34145 0.0
C488 C 0.39189 0.39848 0.31934 0.0
C489 C 0.38482 0.45175 0.3859 0.0
C490 C 0.40866 0.42928 0.39622 0.0
C491 C 0.43961 0.38288 0.3681 0.0
C492 C 0.44501 0.35767 0.33233 0.0
C493 C 0.41313 0.40318 0.36213 0.0
C494 C 0.42247 0.35166 0.29251 0.0
C495 C 0.39622 0.372 0.28584 0.0
H496 H 0.09852 0.35138 0.78841 0.0
H497 H 0.05014 0.39203 0.92391 0.0
H498 H 0.09228 0.43127 0.93417 0.0
H499 H 0.13738 0.45964 0.89557 0.0
H500 H 0.18614 0.42127 0.75897 0.0
H501 H 0.14991 0.37537 0.75839 0.0
C502 C 0.09794 0.36814 0.82119 0.0
C503 C 0.07127 0.36899 0.85527 0.0
C504 C 0.12203 0.3914 0.82602 0.0
C505 C 0.07044 0.39107 0.89719 0.0
C506 C 0.09442 0.41363 0.90289 0.0
C507 C 0.14057 0.44074 0.86656 0.0
C508 C 0.16408 0.44381 0.82716 0.0
C509 C 0.11949 0.41491 0.86615 0.0
C510 C 0.16822 0.41925 0.78985 0.0
C511 C 0.14732 0.39318 0.78928 0.0
H512 H 0.16314 0.09872 0.27477 0.0
H513 H 0.12503 0.0413 0.40193 0.0
H514 H 0.0876 0.08344 0.42542 0.0
H515 H 0.06009 0.13237 0.40127 0.0
H516 H 0.09489 0.18987 0.27199 0.0
H517 H 0.13952 0.15263 0.25855 0.0
C518 C 0.14719 0.09596 0.30842 0.0
C519 C 0.14656 0.06687 0.33631 0.0
C520 C 0.12491 0.12019 0.32098 0.0
C521 C 0.12567 0.06338 0.37962 0.0
C522 C 0.10422 0.08743 0.39305 0.0
C523 C 0.07795 0.13719 0.37104 0.0
C524 C 0.07414 0.16361 0.33744 0.0
C525 C 0.10277 0.11532 0.36272 0.0
C526 C 0.09745 0.16975 0.29859 0.0
C527 C 0.12275 0.14823 0.29052 0.0
H528 H 0.38299 0.05427 0.88477 0.0
H529 H 0.33213 0.09761 0.7552 0.0
H530 H 0.36893 0.14306 0.75647 0.0
H531 H 0.42092 0.16583 0.78591 0.0
H532 H 0.47137 0.12008 0.91403 0.0
H533 H 0.42922 0.08068 0.92269 0.0
C534 C 0.37954 0.07407 0.85763 0.0
C535 C 0.35519 0.07256 0.81965 0.0
C536 C 0.40095 0.09962 0.85818 0.0
C537 C 0.3507 0.09836 0.78493 0.0
C538 C 0.37192 0.12419 0.78539 0.0
C539 C 0.42203 0.14782 0.81673 0.0
C540 C 0.44926 0.14568 0.84912 0.0
C541 C 0.3979 0.12451 0.82061 0.0
C542 C 0.4507 0.12204 0.88853 0.0
C543 C 0.42669 0.09941 0.89335 0.0
H544 H 0.91953 0.66842 0.23773 0.0
H545 H 0.97637 0.61907 0.12048 0.0
H546 H 0.93512 0.57895 0.11042 0.0
H547 H 0.88713 0.55351 0.14422 0.0
H548 H 0.82953 0.60033 0.26274 0.0
H549 H 0.86627 0.64594 0.26268 0.0
C550 C 0.9223 0.64938 0.20895 0.0
C551 C 0.95102 0.64655 0.18007 0.0
C552 C 0.89854 0.62569 0.20418 0.0
C553 C 0.95455 0.62159 0.1433 0.0
C554 C 0.93103 0.59856 0.13766 0.0
C555 C 0.88223 0.57408 0.16913 0.0
C556 C 0.85589 0.57359 0.20364 0.0
C557 C 0.90358 0.59969 0.16932 0.0
C558 C 0.84962 0.60033 0.2356 0.0
C559 C 0.8708 0.62623 0.23587 0.0
H560 H 0.9516 0.88217 0.61868 0.0
H561 H 0.92021 0.83042 0.75682 0.0
H562 H 0.8741 0.86617 0.76586 0.0
H563 H 0.84811 0.91786 0.74261 0.0
H564 H 0.88034 0.96861 0.60385 0.0
H565 H 0.92005 0.92736 0.58602 0.0
C566 C 0.93412 0.87819 0.64983 0.0
C567 C 0.93935 0.85386 0.68718 0.0
C568 C 0.9078 0.89885 0.65474 0.0
C569 C 0.91656 0.84887 0.72736 0.0
C570 C 0.89034 0.86951 0.73279 0.0
C571 C 0.86291 0.91903 0.70726 0.0
C572 C 0.8611 0.94603 0.67417 0.0
C573 C 0.88634 0.89535 0.69783 0.0
C574 C 0.88101 0.94779 0.62931 0.0
C575 C 0.904 0.92439 0.61947 0.0
H576 H 0.60223 0.85001 0.22178 0.0
H577 H 0.54444 0.90311 0.11126 0.0
H578 H 0.58774 0.9405 0.09638 0.0
H579 H 0.6381 0.96334 0.12603 0.0
H580 H 0.69548 0.91332 0.24017 0.0
H581 H 0.65703 0.86932 0.24167 0.0
C582 C 0.59955 0.86927 0.19344 0.0
C583 C 0.57001 0.87402 0.1682 0.0
C584 C 0.62452 0.8914 0.18592 0.0
C585 C 0.56678 0.89921 0.13175 0.0
C586 C 0.59154 0.92064 0.12316 0.0
C587 C 0.6428 0.9421 0.14938 0.0
C588 C 0.66977 0.94112 0.18204 0.0
C589 C 0.62001 0.91771 0.15154 0.0
C590 C 0.67524 0.91409 0.21361 0.0
C591 C 0.65297 0.8892 0.21507 0.0
H592 H 0.56257 0.63212 0.62397 0.0
H593 H 0.59447 0.68883 0.75598 0.0
H594 H 0.64064 0.65353 0.76738 0.0
H595 H 0.66694 0.60158 0.74801 0.0
H596 H 0.63485 0.54584 0.61505 0.0
H597 H 0.59405 0.58578 0.59508 0.0
C598 C 0.58014 0.63719 0.65431 0.0
C599 C 0.5751 0.66283 0.68933 0.0
C600 C 0.60646 0.61678 0.6606 0.0
C601 C 0.59799 0.66932 0.72837 0.0
C602 C 0.62422 0.64896 0.73517 0.0
C603 C 0.65172 0.59893 0.71357 0.0
C604 C 0.65395 0.57114 0.68256 0.0
C605 C 0.62807 0.62195 0.7027 0.0
C606 C 0.63377 0.56738 0.63876 0.0
C607 C 0.61027 0.59004 0.62771 0.0
H608 H 0.29078 0.55235 0.97147 0.0
H609 H 0.22491 0.47472 0.99044 0.0
H610 H 0.24393 0.46617 0.08177 0.0
H611 H 0.27701 0.48397 0.15837 0.0
H612 H 0.34351 0.56118 0.13452 0.0
H613 H 0.32658 0.56652 0.04316 0.0
C614 C 0.28078 0.53334 0.99546 0.0
C615 C 0.25634 0.51438 0.97471 0.0
C616 C 0.29185 0.52861 0.04724 0.0
C617 C 0.24386 0.48954 1.00573 0.0
C618 C 0.25459 0.48483 0.05796 0.0
C619 C 0.288 0.50169 0.13298 0.0
C620 C 0.3114 0.52224 0.15383 0.0
C621 C 0.27823 0.50468 0.07956 0.0
C622 C 0.32546 0.54498 0.12005 0.0
C623 C 0.31576 0.5482 0.06757 0.0
H624 H 0.03285 0.26802 0.67853 0.0
H625 H 0.97207 0.34993 0.65577 0.0
H626 H 0.96604 0.33639 0.562 0.0
H627 H 0.97428 0.29871 0.48828 0.0
H628 H 0.03756 0.21868 0.50837 0.0
H629 H 0.04673 0.23409 0.60118 0.0
C630 C 0.01868 0.28312 0.65277 0.0
C631 C 1.00277 0.30984 0.67413 0.0
C632 C 0.01569 0.27544 0.59854 0.0
C633 C 0.9847 0.32936 0.64027 0.0
C634 C 0.98107 0.32152 0.5867 0.0
C635 C 0.9905 0.28502 0.51287 0.0
C636 C 1.00519 0.2576 0.49194 0.0
C637 C 0.99592 0.29429 0.56568 0.0
C638 C 0.02626 0.24004 0.52375 0.0
C639 C 0.03127 0.24872 0.57682 0.0
H640 H 0.22061 0.97556 0.96122 0.0
H641 H 0.30172 0.03654 0.9842 0.0
H642 H 0.28583 0.04537 0.07709 0.0
H643 H 0.25115 0.03167 0.15353 0.0
H644 H 0.16827 0.97316 0.12795 0.0
H645 H 0.18224 0.96772 0.03413 0.0
C646 C 0.23445 0.99119 0.98649 0.0
C647 C 0.26233 1.00527 0.96643 0.0
C648 C 0.22491 0.99643 0.0393 0.0
C649 C 0.28007 0.02564 0.99902 0.0
C650 C 0.27109 0.03049 0.05209 0.0
C651 C 0.23594 0.01812 0.12717 0.0
C652 C 0.20884 1.00263 0.14774 0.0
C653 C 0.24391 0.01543 0.07297 0.0
C654 C 0.18916 0.98542 0.11308 0.0
C655 C 0.19724 0.98213 0.05948 0.0
H656 H 0.54395 0.22425 0.48331 0.0
H657 H 0.48297 0.30558 0.50876 0.0
H658 H 0.4737 0.28879 0.60102 0.0
H659 H 0.48663 0.25294 0.67636 0.0
H660 H 0.54479 0.16968 0.64805 0.0
H661 H 0.55118 0.18492 0.55499 0.0
C662 C 0.52823 0.23797 0.50896 0.0
C663 C 0.51425 0.26615 0.48963 0.0
C664 C 0.52264 0.22785 0.56145 0.0
C665 C 0.4938 0.28371 0.52286 0.0
C666 C 0.48869 0.27419 0.57562 0.0
C667 C 0.5003 0.23792 0.64957 0.0
C668 C 0.51536 0.21027 0.66927 0.0
C669 C 0.50349 0.24661 0.59567 0.0
C670 C 0.53279 0.19093 0.63396 0.0
C671 C 0.53664 0.19976 0.58075 0.0
H672 H 0.82026 0.51335 0.40605 0.0
H673 H 0.73235 0.48391 0.33188 0.0
H674 H 0.70686 0.47937 0.41762 0.0
H675 H 0.70907 0.48175 0.51343 0.0
H676 H 0.79512 0.51174 0.59152 0.0
H677 H 0.82145 0.51848 0.50495 0.0
C678 C 0.79556 0.50606 0.40886 0.0
C679 C 0.77839 0.49913 0.36234 0.0
C680 C 0.78053 0.50364 0.45902 0.0
C681 C 0.74625 0.48978 0.36672 0.0
C682 C 0.73149 0.48702 0.41588 0.0
C683 C 0.73358 0.4899 0.51159 0.0
C684 C 0.75019 0.49599 0.55865 0.0
C685 C 0.74838 0.49368 0.46217 0.0
C686 C 0.78177 0.50698 0.55566 0.0
C687 C 0.79689 0.51063 0.5062 0.0
H688 H 0.98447 0.75485 0.84868 0.0
H689 H 0.04262 0.83795 0.87402 0.0
H690 H 0.0513 0.822 0.96637 0.0
H691 H 0.04619 0.78179 0.03729 0.0
H692 H 0.98544 0.70048 0.0139 0.0
H693 H 0.97385 0.71823 0.92311 0.0
C694 C 0.99858 0.76972 0.87477 0.0
C695 C 0.01307 0.79741 0.85467 0.0
C696 C 1.0033 0.76047 0.92774 0.0
C697 C 0.03107 0.81666 0.8888 0.0
C698 C 0.03628 0.80738 0.94139 0.0
C699 C 0.03025 0.76816 0.01224 0.0
C700 C 0.017 0.73969 0.03142 0.0
C701 C 0.02318 0.77893 0.96083 0.0
C702 C 0.99592 0.72241 0.99948 0.0
C703 C 0.98938 0.73253 0.94774 0.0
H704 H 0.70593 0.05894 0.38633 0.0
H705 H 0.73733 0.96235 0.35945 0.0
H706 H 0.76219 0.9611 0.44712 0.0
H707 H 0.77883 0.98921 0.52858 0.0
H708 H 0.74979 0.08707 0.5514 0.0
H709 H 0.7204 0.08603 0.46853 0.0
C710 C 0.7176 0.0374 0.40019 0.0
C711 C 0.7197 0.01079 0.36674 0.0
C712 C 0.73279 0.03723 0.44969 0.0
C713 C 0.73542 0.98319 0.38469 0.0
C714 C 0.74977 0.98249 0.43466 0.0
C715 C 0.76586 0.01016 0.51549 0.0
C716 C 0.7668 0.03819 0.54588 0.0
C717 C 0.74927 0.00966 0.46704 0.0
C718 C 0.74989 0.06524 0.52843 0.0
C719 C 0.73289 0.0647 0.48109 0.0
H720 H 0.47416 0.73529 0.03868 0.0
H721 H 0.53611 0.81561 0.01431 0.0
H722 H 0.54378 0.80005 0.92103 0.0
H723 H 0.52939 0.76552 0.84487 0.0
H724 H 0.47039 0.68312 0.87203 0.0
H725 H 0.46519 0.69733 0.96582 0.0
C726 C 0.48971 0.74908 0.01302 0.0
C727 C 0.50444 0.77662 0.03295 0.0
C728 C 0.49434 0.73968 0.95996 0.0
C729 C 0.52472 0.79422 0.99973 0.0
C730 C 0.5289 0.78543 0.9464 0.0
C731 C 0.51569 0.75054 0.87154 0.0
C732 C 0.50006 0.72344 0.85147 0.0
C733 C 0.51331 0.75854 0.9258 0.0
C734 C 0.48271 0.70402 0.88652 0.0
C735 C 0.4796 0.71222 0.94011 0.0
H736 H 0.73822 0.537 0.86792 0.0
H737 H 0.67443 0.45776 0.89329 0.0
H738 H 0.6952 0.45064 0.98247 0.0
H739 H 0.7339 0.464 0.05064 0.0
H740 H 0.797 0.54375 0.029 0.0
H741 H 0.77396 0.55376 0.94081 0.0
C742 C 0.72856 0.51847 0.89323 0.0
C743 C 0.70493 0.49781 0.87363 0.0
C744 C 0.74068 0.5144 0.94481 0.0
C745 C 0.69258 0.47402 0.90713 0.0
C746 C 0.70456 0.46979 0.95815 0.0
C747 C 0.74257 0.48364 0.02661 0.0
C748 C 0.76742 0.50281 0.04548 0.0
C749 C 0.72903 0.48934 0.97685 0.0
C750 C 0.77796 0.52864 0.01484 0.0
C751 C 0.76485 0.53425 0.96455 0.0
H752 H 0.03203 0.68496 0.38965 0.0
H753 H 0.97894 0.76336 0.32272 0.0
H754 H 0.97214 0.78677 0.41053 0.0
H755 H 0.98707 0.78868 0.50506 0.0
H756 H 0.04305 0.7123 0.57098 0.0
H757 H 0.04242 0.68423 0.48587 0.0
C758 C 0.01844 0.7068 0.39452 0.0
C759 C 1.00638 0.72251 0.34961 0.0
C760 C 0.01521 0.72066 0.44522 0.0
C761 C 0.98891 0.75094 0.35656 0.0
C762 C 0.98493 0.7644 0.40683 0.0
C763 C 0.99823 0.76546 0.50092 0.0
C764 C 0.01486 0.75237 0.54386 0.0
C765 C 0.99878 0.75002 0.45128 0.0
C766 C 0.02995 0.72262 0.53814 0.0
C767 C 0.02978 0.70668 0.48948 0.0
H768 H 0.72564 0.04422 1.00644 0.0
H769 H 0.80516 0.99958 0.08513 0.0
H770 H 0.83211 0.99211 0.99933 0.0
H771 H 0.83313 0.99927 0.90047 0.0
H772 H 0.75148 0.04329 0.82588 0.0
H773 H 0.72586 0.05013 0.91103 0.0
C774 C 0.74888 0.03282 1.00502 0.0
C775 C 0.76335 0.02264 0.05219 0.0
C776 C 0.76407 0.02853 0.9559 0.0
C777 C 0.79337 1.0076 0.04934 0.0
C778 C 0.80888 1.00344 1.00026 0.0
C779 C 0.80978 0.01028 0.90311 0.0
C780 C 0.79426 0.02033 0.85649 0.0
C781 C 0.79453 0.01398 0.95305 0.0
C782 C 0.76392 0.03469 0.86072 0.0
C783 C 0.74912 0.03882 0.90959 0.0
H784 H 0.53469 0.76821 0.34577 0.0
H785 H 0.47442 0.85003 0.37363 0.0
H786 H 0.46822 0.83464 0.46667 0.0
H787 H 0.47593 0.79528 0.53813 0.0
H788 H 0.53867 0.71527 0.5129 0.0
H789 H 0.54817 0.73259 0.42098 0.0
C790 C 0.52061 0.78292 0.37246 0.0
C791 C 0.50486 0.81014 0.35263 0.0
C792 C 0.51745 0.77411 0.42626 0.0
C793 C 0.48692 0.82909 0.38782 0.0
C794 C 0.48318 0.82018 0.441 0.0
C795 C 0.49209 0.78198 0.51261 0.0
C796 C 0.50649 0.75399 0.53183 0.0
C797 C 0.49774 0.79238 0.46033 0.0
C798 C 0.52751 0.73698 0.49884 0.0
C799 C 0.53275 0.74679 0.44629 0.0
H800 H 0.27495 0.51374 0.66866 0.0
H801 H 0.17504 0.51704 0.629 0.0
H802 H 0.18874 0.51849 0.53425 0.0
H803 H 0.22974 0.52312 0.46264 0.0
H804 H 0.32909 0.52286 0.50577 0.0
H805 H 0.31497 0.51553 0.59894 0.0
C806 C 0.256 0.51448 0.6395 0.0
C807 C 0.22396 0.51542 0.65626 0.0
C808 C 0.26404 0.51585 0.58542 0.0
C809 C 0.19992 0.51635 0.61745 0.0
C810 C 0.20775 0.51722 0.56318 0.0
C811 C 0.24817 0.52077 0.49248 0.0
C812 C 0.28042 0.52339 0.47748 0.0
C813 C 0.23979 0.51752 0.54664 0.0
C814 C 0.30413 0.52091 0.51648 0.0
C815 C 0.29608 0.51682 0.56976 0.0
H816 H 0.031 0.25944 0.17808 0.0
H817 H 0.96445 0.18246 0.15725 0.0
H818 H 0.95792 0.19695 0.06368 0.0
H819 H 0.96794 0.23429 0.98976 0.0
H820 H 0.03733 0.30884 1.00842 0.0
H821 H 0.04623 0.29249 0.10077 0.0
C822 C 0.01544 0.24559 0.15276 0.0
C823 C 0.99806 0.22003 0.17452 0.0
C824 C 0.0122 0.25377 0.09881 0.0
C825 C 0.9782 0.20208 0.1413 0.0
C826 C 0.9743 0.21051 0.08792 0.0
C827 C 0.98529 0.24665 0.01398 0.0
C828 C 1.00179 0.27288 0.99271 0.0
C829 C 0.99068 0.2367 0.06655 0.0
C830 C 0.02447 0.28853 0.02403 0.0
C831 C 0.02941 0.27928 0.07684 0.0
H832 H 0.28381 0.97274 0.46148 0.0
H833 H 0.20221 0.03384 0.484 0.0
H834 H 0.21765 0.04296 0.57677 0.0
H835 H 0.25234 0.0299 0.65306 0.0
H836 H 0.33586 0.97156 0.6279 0.0
H837 H 0.322 0.96526 0.53432 0.0
C838 C 0.2697 0.98838 0.48666 0.0
C839 C 0.24183 1.00243 0.46654 0.0
C840 C 0.27904 0.99387 0.53934 0.0
C841 C 0.22382 0.02291 0.49894 0.0
C842 C 0.23255 0.02795 0.55191 0.0
C843 C 0.26767 0.01616 0.62683 0.0
C844 C 0.29494 1.00099 0.64737 0.0
C845 C 0.25979 0.01304 0.57281 0.0
C846 C 0.31483 0.98355 0.61296 0.0
C847 C 0.30681 0.97978 0.55954 0.0
H848 H 0.54798 0.28221 0.98353 0.0
H849 H 0.48561 0.20225 1.0082 0.0
H850 H 0.47699 0.21868 0.10081 0.0
H851 H 0.4903 0.25406 0.17632 0.0
H852 H 0.54945 0.3363 0.14891 0.0
H853 H 0.55598 0.32104 0.05575 0.0
C854 C 0.53221 0.26865 1.00915 0.0
C855 C 0.51761 0.24095 0.98947 0.0
C856 C 0.52689 0.27865 0.06179 0.0
C857 C 0.49698 0.2237 0.0226 0.0
C858 C 0.49221 0.23302 0.07554 0.0
C859 C 0.50429 0.26882 0.14971 0.0
C860 C 0.51955 0.29619 0.16959 0.0
C861 C 0.50747 0.26018 0.09583 0.0
C862 C 0.53734 0.31525 0.13458 0.0
C863 C 0.54124 0.30641 0.08136 0.0
H864 H 0.21977 0.61109 0.36144 0.0
H865 H 0.23477 0.56804 0.20762 0.0
H866 H 0.18978 0.59803 0.1718 0.0
H867 H 0.1463 0.63634 0.18378 0.0
H868 H 0.1272 0.67588 0.33871 0.0
H869 H 0.17385 0.64773 0.37454 0.0
C870 C 0.21313 0.60831 0.32011 0.0
C871 C 0.23068 0.5874 0.28719 0.0
C872 C 0.18669 0.62517 0.29996 0.0
C873 C 0.22158 0.58378 0.23387 0.0
C874 C 0.19596 0.60106 0.21327 0.0
C875 C 0.15249 0.63903 0.22533 0.0
C876 C 0.13366 0.65858 0.25843 0.0
C877 C 0.17843 0.62186 0.24587 0.0
C878 C 0.14151 0.66119 0.31242 0.0
C879 C 0.16811 0.64504 0.33285 0.0
H880 H 0.86738 0.15959 0.70509 0.0
H881 H 0.89224 0.10156 0.84035 0.0
H882 H 0.92446 0.14506 0.87603 0.0
H883 H 0.9455 0.20014 0.86861 0.0
H884 H 0.91808 0.25799 0.73491 0.0
H885 H 0.88747 0.21379 0.69807 0.0
C886 C 0.87974 0.15638 0.74248 0.0
C887 C 0.87738 0.12731 0.76993 0.0
C888 C 0.89816 0.18137 0.76261 0.0
C889 C 0.89352 0.12373 0.81845 0.0
C890 C 0.91211 0.14853 0.83873 0.0
C891 C 0.93314 0.20268 0.83107 0.0
C892 C 0.93424 0.23184 0.80383 0.0
C893 C 0.91475 0.17743 0.81101 0.0
C894 C 0.91765 0.23548 0.75598 0.0
C895 C 0.90006 0.21034 0.73516 0.0
H896 H 0.27513 0.88997 0.27786 0.0
H897 H 0.32115 0.98002 0.3076 0.0
H898 H 0.37331 0.95505 0.29326 0.0
H899 H 0.40574 0.90769 0.26958 0.0
H900 H 0.35881 0.81897 0.23501 0.0
H901 H 0.30703 0.84315 0.25531 0.0
C902 C 0.29652 0.90424 0.28137 0.0
C903 C 0.29414 0.93689 0.29382 0.0
C904 C 0.32629 0.88978 0.27297 0.0
C905 C 0.32221 0.95492 0.29777 0.0
C906 C 0.35206 0.94059 0.2899 0.0
C907 C 0.38417 0.89356 0.26786 0.0
C908 C 0.38594 0.86145 0.25205 0.0
C909 C 0.35439 0.90803 0.27749 0.0
C910 C 0.35789 0.84357 0.24799 0.0
C911 C 0.32834 0.85746 0.25912 0.0
H912 H 0.63009 0.27323 0.80497 0.0
H913 H 0.53694 0.31704 0.81453 0.0
H914 H 0.56014 0.36864 0.79267 0.0
H915 H 0.60639 0.40108 0.76986 0.0
H916 H 0.69954 0.35757 0.75812 0.0
H917 H 0.6767 0.306 0.78255 0.0
C918 C 0.6148 0.29404 0.80237 0.0
C919 C 0.58174 0.29116 0.8115 0.0
C920 C 0.62829 0.32368 0.78971 0.0
C921 C 0.5624 0.31845 0.80772 0.0
C922 C 0.57566 0.34802 0.79532 0.0
C923 C 0.62188 0.38044 0.77307 0.0
C924 C 0.65473 0.38329 0.76231 0.0
C925 C 0.60854 0.35088 0.78626 0.0
C926 C 0.67422 0.35611 0.76624 0.0
C927 C 0.66115 0.3266 0.78006 0.0
H928 H 0.74042 0.39028 0.24109 0.0
H929 H 0.68686 0.47133 0.1846 0.0
H930 H 0.63694 0.44361 0.20464 0.0
H931 H 0.60865 0.39685 0.24107 0.0
H932 H 0.66284 0.31787 0.30315 0.0
H933 H 0.71253 0.34403 0.27713 0.0
C934 C 0.71784 0.40188 0.23279 0.0
C935 C 0.71738 0.4328 0.21113 0.0
C936 C 0.6894 0.38603 0.24507 0.0
C937 C 0.6879 0.44759 0.20138 0.0
C938 C 0.65936 0.4317 0.21264 0.0
C939 C 0.63137 0.38518 0.2479 0.0
C940 C 0.63223 0.35529 0.2732 0.0
C941 C 0.65984 0.40094 0.23464 0.0
C942 C 0.66173 0.34074 0.2833 0.0
C943 C 0.69007 0.35576 0.26869 0.0
H944 H 0.12749 0.73925 0.73439 0.0
H945 H 0.04346 0.68627 0.69151 0.0
H946 H 0.07174 0.63622 0.70792 0.0
H947 H 0.12006 0.60748 0.73686 0.0
H948 H 0.20255 0.66077 0.78547 0.0
H949 H 0.17546 0.71076 0.76334 0.0
C950 C 0.11534 0.71676 0.72854 0.0
C951 C 0.08337 0.71655 0.71176 0.0
C952 C 0.13164 0.68813 0.73847 0.0
C953 C 0.06796 0.68717 0.70478 0.0
C954 C 0.08418 0.65852 0.71383 0.0
C955 C 0.13224 0.63006 0.74146 0.0
C956 C 0.16341 0.63059 0.76173 0.0
C957 C 0.11603 0.6587 0.7307 0.0
C958 C 0.17869 0.65992 0.76925 0.0
C959 C 0.16314 0.68844 0.75697 0.0
H960 H 0.80596 0.11173 0.17858 0.0
H961 H 0.79582 0.05891 0.32465 0.0
H962 H 0.83783 0.09099 0.36536 0.0
H963 H 0.87821 0.13374 0.35884 0.0
H964 H 0.89077 0.18329 0.21037 0.0
H965 H 0.84671 0.15327 0.1714 0.0
C966 C 0.81292 0.10718 0.21933 0.0
C967 C 0.79776 0.08288 0.24846 0.0
C968 C 0.83731 0.12544 0.24221 0.0
C969 C 0.80729 0.07723 0.30113 0.0
C970 C 0.83116 0.09572 0.32456 0.0
C971 C 0.87082 0.13826 0.31827 0.0
C972 C 0.88714 0.1611 0.28769 0.0
C973 C 0.84633 0.11994 0.29551 0.0
C974 C 0.87817 0.16611 0.2347 0.0
C975 C 0.85316 0.14883 0.21239 0.0
H976 H 0.39493 0.90974 0.72621 0.0
H977 H 0.31253 0.85625 0.77567 0.0
H978 H 0.33967 0.80635 0.75258 0.0
H979 H 0.38765 0.77801 0.72261 0.0
H980 H 0.47171 0.83115 0.67943 0.0
H981 H 0.4433 0.88115 0.69644 0.0
C982 C 0.38277 0.88715 0.73082 0.0
C983 C 0.3516 0.88654 0.75157 0.0
C984 C 0.39902 0.85856 0.71952 0.0
C985 C 0.33638 0.85717 0.75909 0.0
C986 C 0.35196 0.82871 0.74624 0.0
C987 C 0.39977 0.80052 0.71671 0.0
C988 C 0.43178 0.8008 0.69965 0.0
C989 C 0.38344 0.8291 0.72718 0.0
C990 C 0.44717 0.83021 0.69278 0.0
C991 C 0.43087 0.85882 0.70223 0.0
H992 H 0.8738 0.38773 0.85337 0.0
H993 H 0.89456 0.35019 0.69761 0.0
H994 H 0.84766 0.3777 0.66172 0.0
H995 H 0.80111 0.41288 0.67484 0.0
H996 H 0.78322 0.45386 0.82936 0.0
H997 H 0.82884 0.42477 0.8656 0.0
C998 C 0.8678 0.38533 0.81167 0.0
C999 C 0.88715 0.36655 0.77823 0.0
C1000 C 0.84155 0.40206 0.79114 0.0
C1001 C 0.87977 0.36432 0.72404 0.0
C1002 C 0.85305 0.38008 0.70359 0.0
C1003 C 0.80722 0.41542 0.71646 0.0
C1004 C 0.78874 0.43539 0.74945 0.0
C1005 C 0.83383 0.3991 0.73676 0.0
C1006 C 0.79716 0.43877 0.80312 0.0
C1007 C 0.82313 0.42203 0.8239 0.0
H1008 H 0.11361 0.90504 0.22466 0.0
H1009 H 0.20013 0.85587 0.26731 0.0
H1010 H 0.17561 0.80473 0.24554 0.0
H1011 H 0.12891 0.77405 0.21985 0.0
H1012 H 0.04084 0.82226 0.18214 0.0
H1013 H 0.06646 0.87382 0.19731 0.0
C1014 C 0.12724 0.88313 0.22787 0.0
C1015 C 0.1588 0.88409 0.24652 0.0
C1016 C 0.11252 0.85373 0.2173 0.0
C1017 C 0.17596 0.85558 0.25231 0.0
C1018 C 0.16187 0.82641 0.24028 0.0
C1019 C 0.11523 0.79579 0.21466 0.0
C1020 C 0.08293 0.79421 0.19981 0.0
C1021 C 0.13001 0.82518 0.22372 0.0
C1022 C 0.06565 0.82271 0.19378 0.0
C1023 C 0.08035 0.85221 0.20218 0.0
H1024 H 0.70579 0.08195 0.6726 0.0
H1025 H 0.76361 0.11666 0.8011 0.0
H1026 H 0.71904 0.14902 0.83391 0.0
H1027 H 0.66355 0.16701 0.82629 0.0
H1028 H 0.60646 0.13449 0.69472 0.0
H1029 H 0.65096 0.10239 0.6622 0.0
C1030 C 0.70838 0.09644 0.70801 0.0
C1031 C 0.73757 0.09673 0.735 0.0
C1032 C 0.68299 0.11572 0.72558 0.0
C1033 C 0.74114 0.11606 0.78006 0.0
C1034 C 0.71576 0.1346 0.79865 0.0
C1035 C 0.6609 0.15319 0.79017 0.0
C1036 C 0.63156 0.15311 0.76328 0.0
C1037 C 0.68659 0.1347 0.77162 0.0
C1038 C 0.62871 0.13509 0.71636 0.0
C1039 C 0.6541 0.1165 0.69784 0.0
H1040 H 0.39165 0.74555 0.21896 0.0
H1041 H 0.48427 0.70064 0.20914 0.0
H1042 H 0.46038 0.64932 0.23155 0.0
H1043 H 0.41359 0.61755 0.25448 0.0
H1044 H 0.3211 0.66248 0.26642 0.0
H1045 H 0.34472 0.71365 0.2417 0.0
C1046 C 0.40672 0.72457 0.2216 0.0
C1047 C 0.43979 0.72701 0.2122 0.0
C1048 C 0.39284 0.69519 0.23447 0.0
C1049 C 0.45882 0.69953 0.21616 0.0
C1050 C 0.44515 0.67015 0.22883 0.0
C1051 C 0.39842 0.63842 0.25124 0.0
C1052 C 0.3655 0.6361 0.2621 0.0
C1053 C 0.41221 0.66774 0.23796 0.0
C1054 C 0.34643 0.66355 0.25819 0.0
C1055 C 0.35995 0.69281 0.24422 0.0
H1056 H 0.41055 0.62111 0.77418 0.0
H1057 H 0.35709 0.70204 0.7177 0.0
H1058 H 0.30712 0.67579 0.74228 0.0
H1059 H 0.27871 0.62897 0.77609 0.0
H1060 H 0.33188 0.5462 0.82634 0.0
H1061 H 0.3819 0.5738 0.80734 0.0
C1062 C 0.38793 0.63316 0.76827 0.0
C1063 C 0.38736 0.66365 0.74512 0.0
C1064 C 0.35931 0.61738 0.78053 0.0
C1065 C 0.35798 0.6787 0.73604 0.0
C1066 C 0.32948 0.66364 0.74979 0.0
C1067 C 0.30124 0.61697 0.78306 0.0
C1068 C 0.30152 0.58556 0.80275 0.0
C1069 C 0.32985 0.63281 0.77139 0.0
C1070 C 0.33094 0.57028 0.81097 0.0
C1071 C 0.35957 0.58612 0.80037 0.0
H1072 H 0.89479 0.41033 0.29245 0.0
H1073 H 0.81055 0.35766 0.25115 0.0
H1074 H 0.8372 0.30759 0.2748 0.0
H1075 H 0.88542 0.27881 0.30238 0.0
H1076 H 0.97114 0.33133 0.33698 0.0
H1077 H 0.94319 0.38142 0.32005 0.0
C1078 C 0.88214 0.38788 0.28997 0.0
C1079 C 0.85059 0.38749 0.27151 0.0
C1080 C 0.89809 0.35921 0.30132 0.0
C1081 C 0.83467 0.35835 0.26632 0.0
C1082 C 0.84998 0.3298 0.27936 0.0
C1083 C 0.89799 0.30121 0.30638 0.0
C1084 C 0.93036 0.30126 0.32098 0.0
C1085 C 0.88187 0.32992 0.29605 0.0
C1086 C 0.94631 0.33053 0.32551 0.0
C1087 C 0.93029 0.35923 0.31613 0.0
H1088 H 0.1039 0.90046 0.76976 0.0
H1089 H 0.15574 0.81444 0.73274 0.0
H1090 H 0.206 0.84068 0.75451 0.0
H1091 H 0.23524 0.88859 0.77925 0.0
H1092 H 0.18429 0.97606 0.81114 0.0
H1093 H 0.13362 0.94893 0.79538 0.0
C1094 C 0.1262 0.88738 0.7677 0.0
C1095 C 0.12626 0.85544 0.75073 0.0
C1096 C 0.15511 0.90304 0.77826 0.0
C1097 C 0.15526 0.83892 0.74643 0.0
C1098 C 0.18394 0.85397 0.75847 0.0
C1099 C 0.21308 0.9018 0.78296 0.0
C1100 C 0.21363 0.93436 0.79642 0.0
C1101 C 0.18417 0.88614 0.77355 0.0
C1102 C 0.18462 0.95105 0.80056 0.0
C1103 C 0.15562 0.93549 0.79185 0.0
H1104 H 0.61664 0.10999 0.2719 0.0
H1105 H 0.7069 0.15813 0.25539 0.0
H1106 H 0.68167 0.20838 0.28222 0.0
H1107 H 0.63358 0.23878 0.3078 0.0
H1108 H 0.54335 0.19014 0.3213 0.0
H1109 H 0.56914 0.1399 0.29779 0.0
C1110 C 0.63102 0.13135 0.27458 0.0
C1111 C 0.66376 0.13015 0.26179 0.0
C1112 C 0.61629 0.16013 0.28908 0.0
C1113 C 0.68173 0.15827 0.26508 0.0
C1114 C 0.66728 0.18703 0.28028 0.0
C1115 C 0.61952 0.21718 0.30579 0.0
C1116 C 0.58648 0.21835 0.31646 0.0
C1117 C 0.6345 0.18829 0.29193 0.0
C1118 C 0.56873 0.19008 0.3133 0.0
C1119 C 0.58349 0.16128 0.29994 0.0
loop_
_geom_bond_atom_site_label_1
_geom_bond_atom_site_label_2
_geom_bond_distance
_geom_bond_site_symmetry_2
_ccdc_geom_bond_type
Fe0 O2 1.918 . S
Fe0 O5 1.997 . S
Fe0 O6 2.002 . S
Fe0 O11 1.976 . S
Fe0 O14 1.996 . S
Fe1 O2 1.918 . S
Fe1 O9 1.997 . S
Fe1 O12 1.996 . S
Fe1 O16 1.976 . S
Fe1 O19 2.002 . S
O2 Fe0 1.918 . S
O2 Fe1 1.918 . S
O2 Fe3 1.918 . S
Fe3 O2 1.918 . S
Fe3 O4 2.002 . S
Fe3 O13 1.976 . S
Fe3 O17 1.996 . S
Fe3 O20 1.997 . S
O4 Fe3 2.002 . S
O4 C21 1.295 . S
O5 Fe0 1.997 . S
O5 C21 1.235 . S
O6 Fe0 2.002 . S
O6 C7 1.295 . S
C7 O6 1.295 . S
C7 O9 1.235 . S
C8 O13 1.287 . S
C8 O14 1.255 . S
O9 Fe1 1.997 . S
O9 C7 1.235 . S
C10 O16 1.287 . S
C10 O17 1.255 . S
O11 Fe0 1.976 . S
O11 C18 1.287 . S
O12 Fe1 1.996 . S
O12 C18 1.255 . S
O13 Fe3 1.976 . S
O13 C8 1.287 . S
O14 Fe0 1.996 . S
O14 C8 1.255 . S
C15 O19 1.295 . S
C15 O20 1.235 . S
O16 Fe1 1.976 . S
O16 C10 1.287 . S
O17 Fe3 1.996 . S
O17 C10 1.255 . S
C18 O11 1.287 . S
C18 O12 1.255 . S
O19 Fe1 2.002 . S
O19 C15 1.295 . S
O20 Fe3 1.997 . S
O20 C15 1.235 . S
C21 O4 1.295 . S
C21 O5 1.235 . S
Fe22 O24 1.918 1_455 S
Fe22 O27 1.997 1_455 S
Fe22 O28 2.002 . S
Fe22 O33 1.976 . S
Fe22 O36 1.996 . S
Fe23 O24 1.918 . S
Fe23 O31 1.997 . S
Fe23 O34 1.996 1_655 S
Fe23 O38 1.976 . S
Fe23 O41 2.002 . S
O24 Fe22 1.918 1_655 S
O24 Fe23 1.918 . S
O24 Fe25 1.918 . S
Fe25 O24 1.918 . S
Fe25 O26 2.002 . S
Fe25 O35 1.976 . S
Fe25 O39 1.996 . S
Fe25 O42 1.997 . S
O26 Fe25 2.002 . S
O26 C43 1.295 . S
O27 Fe22 1.997 1_655 S
O27 C43 1.235 . S
O28 Fe22 2.002 . S
O28 C29 1.295 1_455 S
C29 O28 1.295 1_655 S
C29 O31 1.235 . S
C30 O35 1.287 . S
C30 O36 1.255 1_655 S
O31 Fe23 1.997 . S
O31 C29 1.235 . S
C32 O38 1.287 . S
C32 O39 1.255 . S
O33 Fe22 1.976 . S
O33 C40 1.287 . S
O34 Fe23 1.996 1_455 S
O34 C40 1.255 . S
O35 Fe25 1.976 . S
O35 C30 1.287 . S
O36 Fe22 1.996 . S
O36 C30 1.255 1_455 S
C37 O41 1.295 . S
C37 O42 1.235 . S
O38 Fe23 1.976 . S
O38 C32 1.287 . S
O39 Fe25 1.996 . S
O39 C32 1.255 . S
C40 O33 1.287 . S
C40 O34 1.255 . S
O41 Fe23 2.002 . S
O41 C37 1.295 . S
O42 Fe25 1.997 . S
O42 C37 1.235 . S
C43 O26 1.295 . S
C43 O27 1.235 . S
Fe44 O46 1.918 1_545 S
Fe44 O49 1.997 1_545 S
Fe44 O50 2.002 . S
Fe44 O55 1.976 . S
Fe44 O58 1.996 . S
Fe45 O46 1.918 . S
Fe45 O53 1.997 . S
Fe45 O56 1.996 1_565 S
Fe45 O60 1.976 . S
Fe45 O63 2.002 . S
O46 Fe44 1.918 1_565 S
O46 Fe45 1.918 . S
O46 Fe47 1.918 . S
Fe47 O46 1.918 . S
Fe47 O48 2.002 . S
Fe47 O57 1.976 . S
Fe47 O61 1.996 . S
Fe47 O64 1.997 . S
O48 Fe47 2.002 . S
O48 C65 1.295 . S
O49 Fe44 1.997 1_565 S
O49 C65 1.235 . S
O50 Fe44 2.002 . S
O50 C51 1.295 1_545 S
C51 O50 1.295 1_565 S
C51 O53 1.235 . S
C52 O57 1.287 . S
C52 O58 1.255 1_565 S
O53 Fe45 1.997 . S
O53 C51 1.235 . S
C54 O60 1.287 . S
C54 O61 1.255 . S
O55 Fe44 1.976 . S
O55 C62 1.287 . S
O56 Fe45 1.996 1_545 S
O56 C62 1.255 . S
O57 Fe47 1.976 . S
O57 C52 1.287 . S
O58 Fe44 1.996 . S
O58 C52 1.255 1_545 S
C59 O63 1.295 . S
C59 O64 1.235 . S
O60 Fe45 1.976 . S
O60 C54 1.287 . S
O61 Fe47 1.996 . S
O61 C54 1.255 . S
C62 O55 1.287 . S
C62 O56 1.255 . S
O63 Fe45 2.002 . S
O63 C59 1.295 . S
O64 Fe47 1.997 . S
O64 C59 1.235 . S
C65 O48 1.295 . S
C65 O49 1.235 . S
Fe66 O68 1.918 . S
Fe66 O71 1.997 . S
Fe66 O72 2.002 . S
Fe66 O77 1.976 . S
Fe66 O80 1.996 . S
Fe67 O68 1.918 . S
Fe67 O75 1.997 . S
Fe67 O78 1.996 . S
Fe67 O82 1.976 . S
Fe67 O85 2.002 . S
O68 Fe66 1.918 . S
O68 Fe67 1.918 . S
O68 Fe69 1.918 . S
Fe69 O68 1.918 . S
Fe69 O70 2.002 . S
Fe69 O79 1.976 . S
Fe69 O83 1.996 . S
Fe69 O86 1.997 . S
O70 Fe69 2.002 . S
O70 C87 1.295 . S
O71 Fe66 1.997 . S
O71 C87 1.235 . S
O72 Fe66 2.002 . S
O72 C73 1.295 . S
C73 O72 1.295 . S
C73 O75 1.235 . S
C74 O79 1.287 . S
C74 O80 1.255 . S
O75 Fe67 1.997 . S
O75 C73 1.235 . S
C76 O82 1.287 . S
C76 O83 1.255 . S
O77 Fe66 1.976 . S
O77 C84 1.287 . S
O78 Fe67 1.996 . S
O78 C84 1.255 . S
O79 Fe69 1.976 . S
O79 C74 1.287 . S
O80 Fe66 1.996 . S
O80 C74 1.255 . S
C81 O85 1.295 . S
C81 O86 1.235 . S
O82 Fe67 1.976 . S
O82 C76 1.287 . S
O83 Fe69 1.996 . S
O83 C76 1.255 . S
C84 O77 1.287 . S
C84 O78 1.255 . S
O85 Fe67 2.002 . S
O85 C81 1.295 . S
O86 Fe69 1.997 . S
O86 C81 1.235 . S
C87 O70 1.295 . S
C87 O71 1.235 . S
Fe88 O90 1.918 . S
Fe88 O93 1.997 . S
Fe88 O94 2.002 . S
Fe88 O99 1.976 . S
Fe88 O102 1.996 . S
Fe89 O90 1.918 . S
Fe89 O97 1.997 . S
Fe89 O100 1.996 . S
Fe89 O104 1.976 . S
Fe89 O107 2.002 . S
O90 Fe88 1.918 . S
O90 Fe89 1.918 . S
O90 Fe91 1.918 . S
Fe91 O90 1.918 . S
Fe91 O92 2.002 . S
Fe91 O101 1.976 . S
Fe91 O105 1.996 . S
Fe91 O108 1.997 . S
O92 Fe91 2.002 . S
O92 C109 1.295 . S
O93 Fe88 1.997 . S
O93 C109 1.235 . S
O94 Fe88 2.002 . S
O94 C95 1.295 . S
C95 O94 1.295 . S
C95 O97 1.235 . S
C96 O101 1.287 . S
C96 O102 1.255 . S
O97 Fe89 1.997 . S
O97 C95 1.235 . S
C98 O104 1.287 . S
C98 O105 1.255 . S
O99 Fe88 1.976 . S
O99 C106 1.287 . S
O100 Fe89 1.996 . S
O100 C106 1.255 . S
O101 Fe91 1.976 . S
O101 C96 1.287 . S
O102 Fe88 1.996 . S
O102 C96 1.255 . S
C103 O107 1.295 . S
C103 O108 1.235 . S
O104 Fe89 1.976 . S
O104 C98 1.287 . S
O105 Fe91 1.996 . S
O105 C98 1.255 . S
C106 O99 1.287 . S
C106 O100 1.255 . S
O107 Fe89 2.002 . S
O107 C103 1.295 . S
O108 Fe91 1.997 . S
O108 C103 1.235 . S
C109 O92 1.295 . S
C109 O93 1.235 . S
Fe110 O112 1.918 . S
Fe110 O115 1.997 . S
Fe110 O116 2.002 . S
Fe110 O121 1.976 . S
Fe110 O124 1.996 . S
Fe111 O112 1.918 1_655 S
Fe111 O119 1.997 1_655 S
Fe111 O122 1.996 . S
Fe111 O126 1.976 . S
Fe111 O129 2.002 . S
O112 Fe110 1.918 . S
O112 Fe111 1.918 1_455 S
O112 Fe113 1.918 . S
Fe113 O112 1.918 . S
Fe113 O114 2.002 . S
Fe113 O123 1.976 . S
Fe113 O127 1.996 1_455 S
Fe113 O130 1.997 . S
O114 Fe113 2.002 . S
O114 C131 1.295 . S
O115 Fe110 1.997 . S
O115 C131 1.235 . S
O116 Fe110 2.002 . S
O116 C117 1.295 . S
C117 O116 1.295 . S
C117 O119 1.235 . S
C118 O123 1.287 . S
C118 O124 1.255 . S
O119 Fe111 1.997 1_455 S
O119 C117 1.235 . S
C120 O126 1.287 . S
C120 O127 1.255 . S
O121 Fe110 1.976 . S
O121 C128 1.287 . S
O122 Fe111 1.996 . S
O122 C128 1.255 1_655 S
O123 Fe113 1.976 . S
O123 C118 1.287 . S
O124 Fe110 1.996 . S
O124 C118 1.255 . S
C125 O129 1.295 1_455 S
C125 O130 1.235 . S
O126 Fe111 1.976 . S
O126 C120 1.287 . S
O127 Fe113 1.996 1_655 S
O127 C120 1.255 . S
C128 O121 1.287 . S
C128 O122 1.255 1_455 S
O129 Fe111 2.002 . S
O129 C125 1.295 1_655 S
O130 Fe113 1.997 . S
O130 C125 1.235 . S
C131 O114 1.295 . S
C131 O115 1.235 . S
Fe132 O134 1.918 . S
Fe132 O137 1.997 . S
Fe132 O138 2.002 . S
Fe132 O143 1.976 . S
Fe132 O146 1.996 . S
Fe133 O134 1.918 1_565 S
Fe133 O141 1.997 1_565 S
Fe133 O144 1.996 . S
Fe133 O148 1.976 . S
Fe133 O151 2.002 . S
O134 Fe132 1.918 . S
O134 Fe133 1.918 1_545 S
O134 Fe135 1.918 . S
Fe135 O134 1.918 . S
Fe135 O136 2.002 . S
Fe135 O145 1.976 . S
Fe135 O149 1.996 1_545 S
Fe135 O152 1.997 . S
O136 Fe135 2.002 . S
O136 C153 1.295 . S
O137 Fe132 1.997 . S
O137 C153 1.235 . S
O138 Fe132 2.002 . S
O138 C139 1.295 . S
C139 O138 1.295 . S
C139 O141 1.235 . S
C140 O145 1.287 . S
C140 O146 1.255 . S
O141 Fe133 1.997 1_545 S
O141 C139 1.235 . S
C142 O148 1.287 . S
C142 O149 1.255 . S
O143 Fe132 1.976 . S
O143 C150 1.287 . S
O144 Fe133 1.996 . S
O144 C150 1.255 1_565 S
O145 Fe135 1.976 . S
O145 C140 1.287 . S
O146 Fe132 1.996 . S
O146 C140 1.255 . S
C147 O151 1.295 1_545 S
C147 O152 1.235 . S
O148 Fe133 1.976 . S
O148 C142 1.287 . S
O149 Fe135 1.996 1_565 S
O149 C142 1.255 . S
C150 O143 1.287 . S
C150 O144 1.255 1_545 S
O151 Fe133 2.002 . S
O151 C147 1.295 1_565 S
O152 Fe135 1.997 . S
O152 C147 1.235 . S
C153 O136 1.295 . S
C153 O137 1.235 . S
Fe154 O156 1.918 . S
Fe154 O159 1.997 . S
Fe154 O160 2.002 . S
Fe154 O165 1.976 . S
Fe154 O168 1.996 . S
Fe155 O156 1.918 . S
Fe155 O163 1.997 . S
Fe155 O166 1.996 . S
Fe155 O170 1.976 . S
Fe155 O173 2.002 . S
O156 Fe154 1.918 . S
O156 Fe155 1.918 . S
O156 Fe157 1.918 . S
Fe157 O156 1.918 . S
Fe157 O158 2.002 . S
Fe157 O167 1.976 . S
Fe157 O171 1.996 . S
Fe157 O174 1.997 . S
O158 Fe157 2.002 . S
O158 C175 1.295 . S
O159 Fe154 1.997 . S
O159 C175 1.235 . S
O160 Fe154 2.002 . S
O160 C161 1.295 . S
C161 O160 1.295 . S
C161 O163 1.235 . S
C162 O167 1.287 . S
C162 O168 1.255 . S
O163 Fe155 1.997 . S
O163 C161 1.235 . S
C164 O170 1.287 . S
C164 O171 1.255 . S
O165 Fe154 1.976 . S
O165 C172 1.287 . S
O166 Fe155 1.996 . S
O166 C172 1.255 . S
O167 Fe157 1.976 . S
O167 C162 1.287 . S
O168 Fe154 1.996 . S
O168 C162 1.255 . S
C169 O173 1.295 . S
C169 O174 1.235 . S
O170 Fe155 1.976 . S
O170 C164 1.287 . S
O171 Fe157 1.996 . S
O171 C164 1.255 . S
C172 O165 1.287 . S
C172 O166 1.255 . S
O173 Fe155 2.002 . S
O173 C169 1.295 . S
O174 Fe157 1.997 . S
O174 C169 1.235 . S
C175 O158 1.295 . S
C175 O159 1.235 . S
Fe176 O178 1.918 . S
Fe176 O181 1.997 . S
Fe176 O182 2.002 . S
Fe176 O187 1.976 . S
Fe176 O190 1.996 . S
Fe177 O178 1.918 . S
Fe177 O185 1.997 . S
Fe177 O188 1.996 . S
Fe177 O192 1.976 . S
Fe177 O195 2.002 . S
O178 Fe176 1.918 . S
O178 Fe177 1.918 . S
O178 Fe179 1.918 . S
Fe179 O178 1.918 . S
Fe179 O180 2.002 . S
Fe179 O189 1.976 . S
Fe179 O193 1.996 . S
Fe179 O196 1.997 . S
O180 Fe179 2.002 . S
O180 C197 1.295 . S
O181 Fe176 1.997 . S
O181 C197 1.235 . S
O182 Fe176 2.002 . S
O182 C183 1.295 . S
C183 O182 1.295 . S
C183 O185 1.235 . S
C184 O189 1.287 . S
C184 O190 1.255 . S
O185 Fe177 1.997 . S
O185 C183 1.235 . S
C186 O192 1.287 . S
C186 O193 1.255 . S
O187 Fe176 1.976 . S
O187 C194 1.287 . S
O188 Fe177 1.996 . S
O188 C194 1.255 . S
O189 Fe179 1.976 . S
O189 C184 1.287 . S
O190 Fe176 1.996 . S
O190 C184 1.255 . S
C191 O195 1.295 . S
C191 O196 1.235 . S
O192 Fe177 1.976 . S
O192 C186 1.287 . S
O193 Fe179 1.996 . S
O193 C186 1.255 . S
C194 O187 1.287 . S
C194 O188 1.255 . S
O195 Fe177 2.002 . S
O195 C191 1.295 . S
O196 Fe179 1.997 . S
O196 C191 1.235 . S
C197 O180 1.295 . S
C197 O181 1.235 . S
Fe198 O200 1.918 1_655 S
Fe198 O203 1.997 1_655 S
Fe198 O204 2.002 . S
Fe198 O209 1.976 . S
Fe198 O212 1.996 . S
Fe199 O200 1.918 . S
Fe199 O207 1.997 . S
Fe199 O210 1.996 1_455 S
Fe199 O214 1.976 . S
Fe199 O217 2.002 . S
O200 Fe198 1.918 1_455 S
O200 Fe199 1.918 . S
O200 Fe201 1.918 . S
Fe201 O200 1.918 . S
Fe201 O202 2.002 . S
Fe201 O211 1.976 . S
Fe201 O215 1.996 . S
Fe201 O218 1.997 . S
O202 Fe201 2.002 . S
O202 C219 1.295 . S
O203 Fe198 1.997 1_455 S
O203 C219 1.235 . S
O204 Fe198 2.002 . S
O204 C205 1.295 1_655 S
C205 O204 1.295 1_455 S
C205 O207 1.235 . S
C206 O211 1.287 . S
C206 O212 1.255 1_455 S
O207 Fe199 1.997 . S
O207 C205 1.235 . S
C208 O214 1.287 . S
C208 O215 1.255 . S
O209 Fe198 1.976 . S
O209 C216 1.287 . S
O210 Fe199 1.996 1_655 S
O210 C216 1.255 . S
O211 Fe201 1.976 . S
O211 C206 1.287 . S
O212 Fe198 1.996 . S
O212 C206 1.255 1_655 S
C213 O217 1.295 . S
C213 O218 1.235 . S
O214 Fe199 1.976 . S
O214 C208 1.287 . S
O215 Fe201 1.996 . S
O215 C208 1.255 . S
C216 O209 1.287 . S
C216 O210 1.255 . S
O217 Fe199 2.002 . S
O217 C213 1.295 . S
O218 Fe201 1.997 . S
O218 C213 1.235 . S
C219 O202 1.295 . S
C219 O203 1.235 . S
Fe220 O222 1.918 1_565 S
Fe220 O225 1.997 1_565 S
Fe220 O226 2.002 . S
Fe220 O231 1.976 . S
Fe220 O234 1.996 . S
Fe221 O222 1.918 . S
Fe221 O229 1.997 . S
Fe221 O232 1.996 1_545 S
Fe221 O236 1.976 . S
Fe221 O239 2.002 . S
O222 Fe220 1.918 1_545 S
O222 Fe221 1.918 . S
O222 Fe223 1.918 . S
Fe223 O222 1.918 . S
Fe223 O224 2.002 . S
Fe223 O233 1.976 . S
Fe223 O237 1.996 . S
Fe223 O240 1.997 . S
O224 Fe223 2.002 . S
O224 C241 1.295 . S
O225 Fe220 1.997 1_545 S
O225 C241 1.235 . S
O226 Fe220 2.002 . S
O226 C227 1.295 1_565 S
C227 O226 1.295 1_545 S
C227 O229 1.235 . S
C228 O233 1.287 . S
C228 O234 1.255 1_545 S
O229 Fe221 1.997 . S
O229 C227 1.235 . S
C230 O236 1.287 . S
C230 O237 1.255 . S
O231 Fe220 1.976 . S
O231 C238 1.287 . S
O232 Fe221 1.996 1_565 S
O232 C238 1.255 . S
O233 Fe223 1.976 . S
O233 C228 1.287 . S
O234 Fe220 1.996 . S
O234 C228 1.255 1_565 S
C235 O239 1.295 . S
C235 O240 1.235 . S
O236 Fe221 1.976 . S
O236 C230 1.287 . S
O237 Fe223 1.996 . S
O237 C230 1.255 . S
C238 O231 1.287 . S
C238 O232 1.255 . S
O239 Fe221 2.002 . S
O239 C235 1.295 . S
O240 Fe223 1.997 . S
O240 C235 1.235 . S
C241 O224 1.295 . S
C241 O225 1.235 . S
Fe242 O244 1.918 . S
Fe242 O247 1.997 . S
Fe242 O248 2.002 . S
Fe242 O253 1.976 . S
Fe242 O256 1.996 . S
Fe243 O244 1.918 . S
Fe243 O251 1.997 . S
Fe243 O254 1.996 . S
Fe243 O258 1.976 . S
Fe243 O261 2.002 . S
O244 Fe242 1.918 . S
O244 Fe243 1.918 . S
O244 Fe245 1.918 . S
Fe245 O244 1.918 . S
Fe245 O246 2.002 . S
Fe245 O255 1.976 . S
Fe245 O259 1.996 . S
Fe245 O262 1.997 . S
O246 Fe245 2.002 . S
O246 C263 1.295 . S
O247 Fe242 1.997 . S
O247 C263 1.235 . S
O248 Fe242 2.002 . S
O248 C249 1.295 . S
C249 O248 1.295 . S
C249 O251 1.235 . S
C250 O255 1.287 . S
C250 O256 1.255 . S
O251 Fe243 1.997 . S
O251 C249 1.235 . S
C252 O258 1.287 . S
C252 O259 1.255 . S
O253 Fe242 1.976 . S
O253 C260 1.287 . S
O254 Fe243 1.996 . S
O254 C260 1.255 . S
O255 Fe245 1.976 . S
O255 C250 1.287 . S
O256 Fe242 1.996 . S
O256 C250 1.255 . S
C257 O261 1.295 . S
C257 O262 1.235 . S
O258 Fe243 1.976 . S
O258 C252 1.287 . S
O259 Fe245 1.996 . S
O259 C252 1.255 . S
C260 O253 1.287 . S
C260 O254 1.255 . S
O261 Fe243 2.002 . S
O261 C257 1.295 . S
O262 Fe245 1.997 . S
O262 C257 1.235 . S
C263 O246 1.295 . S
C263 O247 1.235 . S
Fe264 O266 1.918 . S
Fe264 O269 1.997 . S
Fe264 O270 2.002 . S
Fe264 O275 1.976 . S
Fe264 O278 1.996 . S
Fe265 O266 1.918 . S
Fe265 O273 1.997 . S
Fe265 O276 1.996 . S
Fe265 O280 1.976 . S
Fe265 O283 2.002 . S
O266 Fe264 1.918 . S
O266 Fe265 1.918 . S
O266 Fe267 1.918 . S
Fe267 O266 1.918 . S
Fe267 O268 2.002 . S
Fe267 O277 1.976 . S
Fe267 O281 1.996 . S
Fe267 O284 1.997 . S
O268 Fe267 2.002 . S
O268 C285 1.295 . S
O269 Fe264 1.997 . S
O269 C285 1.235 . S
O270 Fe264 2.002 . S
O270 C271 1.295 . S
C271 O270 1.295 . S
C271 O273 1.235 . S
C272 O277 1.287 . S
C272 O278 1.255 . S
O273 Fe265 1.997 . S
O273 C271 1.235 . S
C274 O280 1.287 . S
C274 O281 1.255 . S
O275 Fe264 1.976 . S
O275 C282 1.287 . S
O276 Fe265 1.996 . S
O276 C282 1.255 . S
O277 Fe267 1.976 . S
O277 C272 1.287 . S
O278 Fe264 1.996 . S
O278 C272 1.255 . S
C279 O283 1.295 . S
C279 O284 1.235 . S
O280 Fe265 1.976 . S
O280 C274 1.287 . S
O281 Fe267 1.996 . S
O281 C274 1.255 . S
C282 O275 1.287 . S
C282 O276 1.255 . S
O283 Fe265 2.002 . S
O283 C279 1.295 . S
O284 Fe267 1.997 . S
O284 C279 1.235 . S
C285 O268 1.295 . S
C285 O269 1.235 . S
Fe286 O288 1.918 . S
Fe286 O291 1.997 . S
Fe286 O292 2.002 . S
Fe286 O297 1.976 . S
Fe286 O300 1.996 . S
Fe287 O288 1.918 1_455 S
Fe287 O295 1.997 1_455 S
Fe287 O298 1.996 . S
Fe287 O302 1.976 . S
Fe287 O305 2.002 . S
O288 Fe286 1.918 . S
O288 Fe287 1.918 1_655 S
O288 Fe289 1.918 . S
Fe289 O288 1.918 . S
Fe289 O290 2.002 . S
Fe289 O299 1.976 . S
Fe289 O303 1.996 1_655 S
Fe289 O306 1.997 . S
O290 Fe289 2.002 . S
O290 C307 1.295 . S
O291 Fe286 1.997 . S
O291 C307 1.235 . S
O292 Fe286 2.002 . S
O292 C293 1.295 . S
C293 O292 1.295 . S
C293 O295 1.235 . S
C294 O299 1.287 . S
C294 O300 1.255 . S
O295 Fe287 1.997 1_655 S
O295 C293 1.235 . S
C296 O302 1.287 . S
C296 O303 1.255 . S
O297 Fe286 1.976 . S
O297 C304 1.287 . S
O298 Fe287 1.996 . S
O298 C304 1.255 1_455 S
O299 Fe289 1.976 . S
O299 C294 1.287 . S
O300 Fe286 1.996 . S
O300 C294 1.255 . S
C301 O305 1.295 1_655 S
C301 O306 1.235 . S
O302 Fe287 1.976 . S
O302 C296 1.287 . S
O303 Fe289 1.996 1_455 S
O303 C296 1.255 . S
C304 O297 1.287 . S
C304 O298 1.255 1_655 S
O305 Fe287 2.002 . S
O305 C301 1.295 1_455 S
O306 Fe289 1.997 . S
O306 C301 1.235 . S
C307 O290 1.295 . S
C307 O291 1.235 . S
Fe308 O310 1.918 . S
Fe308 O313 1.997 . S
Fe308 O314 2.002 . S
Fe308 O319 1.976 . S
Fe308 O322 1.996 1_565 S
Fe309 O310 1.918 . S
Fe309 O317 1.997 . S
Fe309 O320 1.996 . S
Fe309 O324 1.976 . S
Fe309 O327 2.002 . S
O310 Fe308 1.918 . S
O310 Fe309 1.918 . S
O310 Fe311 1.918 1_565 S
Fe311 O310 1.918 1_545 S
Fe311 O312 2.002 . S
Fe311 O321 1.976 . S
Fe311 O325 1.996 . S
Fe311 O328 1.997 1_545 S
O312 Fe311 2.002 . S
O312 C329 1.295 1_545 S
O313 Fe308 1.997 . S
O313 C329 1.235 . S
O314 Fe308 2.002 . S
O314 C315 1.295 . S
C315 O314 1.295 . S
C315 O317 1.235 . S
C316 O321 1.287 . S
C316 O322 1.255 . S
O317 Fe309 1.997 . S
O317 C315 1.235 . S
C318 O324 1.287 . S
C318 O325 1.255 1_565 S
O319 Fe308 1.976 . S
O319 C326 1.287 . S
O320 Fe309 1.996 . S
O320 C326 1.255 . S
O321 Fe311 1.976 . S
O321 C316 1.287 . S
O322 Fe308 1.996 1_545 S
O322 C316 1.255 . S
C323 O327 1.295 . S
C323 O328 1.235 . S
O324 Fe309 1.976 . S
O324 C318 1.287 . S
O325 Fe311 1.996 . S
O325 C318 1.255 1_545 S
C326 O319 1.287 . S
C326 O320 1.255 . S
O327 Fe309 2.002 . S
O327 C323 1.295 . S
O328 Fe311 1.997 1_565 S
O328 C323 1.235 . S
C329 O312 1.295 1_565 S
C329 O313 1.235 . S
Fe330 O332 1.918 . S
Fe330 O335 1.997 . S
Fe330 O336 2.002 . S
Fe330 O341 1.976 . S
Fe330 O344 1.996 . S
Fe331 O332 1.918 . S
Fe331 O339 1.997 . S
Fe331 O342 1.996 . S
Fe331 O346 1.976 . S
Fe331 O349 2.002 . S
O332 Fe330 1.918 . S
O332 Fe331 1.918 . S
O332 Fe333 1.918 . S
Fe333 O332 1.918 . S
Fe333 O334 2.002 . S
Fe333 O343 1.976 . S
Fe333 O347 1.996 . S
Fe333 O350 1.997 . S
O334 Fe333 2.002 . S
O334 C351 1.295 . S
O335 Fe330 1.997 . S
O335 C351 1.235 . S
O336 Fe330 2.002 . S
O336 C337 1.295 . S
C337 O336 1.295 . S
C337 O339 1.235 . S
C338 O343 1.287 . S
C338 O344 1.255 . S
O339 Fe331 1.997 . S
O339 C337 1.235 . S
C340 O346 1.287 . S
C340 O347 1.255 . S
O341 Fe330 1.976 . S
O341 C348 1.287 . S
O342 Fe331 1.996 . S
O342 C348 1.255 . S
O343 Fe333 1.976 . S
O343 C338 1.287 . S
O344 Fe330 1.996 . S
O344 C338 1.255 . S
C345 O349 1.295 . S
C345 O350 1.235 . S
O346 Fe331 1.976 . S
O346 C340 1.287 . S
O347 Fe333 1.996 . S
O347 C340 1.255 . S
C348 O341 1.287 . S
C348 O342 1.255 . S
O349 Fe331 2.002 . S
O349 C345 1.295 . S
O350 Fe333 1.997 . S
O350 C345 1.235 . S
C351 O334 1.295 . S
C351 O335 1.235 . S
H352 C358 0.930 . S
H353 C361 0.930 . S
H354 C362 0.930 . S
H355 C363 0.930 . S
H356 C366 0.930 . S
H357 C367 0.930 . S
C358 H352 0.930 . S
C358 C359 1.355 . S
C358 C360 1.415 . S
C359 C358 1.355 . S
C359 C361 1.419 . S
C360 C358 1.415 . S
C360 C365 1.425 . S
C360 C367 1.409 . S
C361 H353 0.930 . S
C361 C359 1.419 . S
C361 C362 1.362 . S
C362 H354 0.930 . S
C362 C361 1.362 . S
C362 C365 1.409 . S
C363 H355 0.930 . S
C363 C364 1.355 . S
C363 C365 1.415 . S
C364 C363 1.355 . S
C364 C366 1.419 . S
C365 C360 1.425 . S
C365 C362 1.409 . S
C365 C363 1.415 . S
C366 H356 0.930 . S
C366 C364 1.419 . S
C366 C367 1.362 . S
C367 H357 0.930 . S
C367 C360 1.409 . S
C367 C366 1.362 . S
H368 C374 0.930 . S
H369 C377 0.930 . S
H370 C378 0.930 . S
H371 C379 0.930 . S
H372 C382 0.930 . S
H373 C383 0.930 . S
C374 H368 0.930 . S
C374 C375 1.355 . S
C374 C376 1.415 . S
C375 C374 1.355 . S
C375 C377 1.419 . S
C376 C374 1.415 . S
C376 C381 1.425 1_554 S
C376 C383 1.408 1_554 S
C377 H369 0.930 . S
C377 C375 1.419 . S
C377 C378 1.362 . S
C378 H370 0.930 . S
C378 C377 1.362 . S
C378 C381 1.409 1_554 S
C379 H371 0.930 . S
C379 C380 1.355 . S
C379 C381 1.415 . S
C380 C379 1.355 . S
C380 C382 1.419 . S
C381 C376 1.425 1_556 S
C381 C378 1.409 1_556 S
C381 C379 1.415 . S
C382 H372 0.930 . S
C382 C380 1.419 . S
C382 C383 1.362 . S
C383 H373 0.930 . S
C383 C376 1.408 1_556 S
C383 C382 1.362 . S
H384 C390 0.930 . S
H385 C393 0.930 . S
H386 C394 0.930 . S
H387 C395 0.930 . S
H388 C398 0.930 . S
H389 C399 0.930 . S
C390 H384 0.930 . S
C390 C391 1.355 . S
C390 C392 1.415 . S
C391 C390 1.355 . S
C391 C393 1.419 . S
C392 C390 1.415 . S
C392 C397 1.425 . S
C392 C399 1.409 . S
C393 H385 0.930 . S
C393 C391 1.419 . S
C393 C394 1.362 . S
C394 H386 0.930 . S
C394 C393 1.362 . S
C394 C397 1.409 . S
C395 H387 0.930 . S
C395 C396 1.355 . S
C395 C397 1.415 . S
C396 C395 1.355 . S
C396 C398 1.419 . S
C397 C392 1.425 . S
C397 C394 1.409 . S
C397 C395 1.415 . S
C398 H388 0.930 . S
C398 C396 1.419 . S
C398 C399 1.362 . S
C399 H389 0.930 . S
C399 C392 1.409 . S
C399 C398 1.362 . S
H400 C406 0.930 . S
H401 C409 0.930 . S
H402 C410 0.930 . S
H403 C411 0.930 . S
H404 C414 0.930 . S
H405 C415 0.930 . S
C406 H400 0.930 . S
C406 C407 1.355 . S
C406 C408 1.415 . S
C407 C406 1.355 . S
C407 C409 1.419 . S
C408 C406 1.415 . S
C408 C413 1.425 1_556 S
C408 C415 1.409 1_556 S
C409 H401 0.930 . S
C409 C407 1.419 . S
C409 C410 1.362 . S
C410 H402 0.930 . S
C410 C409 1.362 . S
C410 C413 1.409 1_556 S
C411 H403 0.930 . S
C411 C412 1.355 . S
C411 C413 1.415 . S
C412 C411 1.355 . S
C412 C414 1.419 . S
C413 C408 1.425 1_554 S
C413 C410 1.409 1_554 S
C413 C411 1.415 . S
C414 H404 0.930 . S
C414 C412 1.419 . S
C414 C415 1.362 . S
C415 H405 0.930 . S
C415 C408 1.409 1_554 S
C415 C414 1.362 . S
H416 C422 0.930 . S
H417 C425 0.930 . S
H418 C426 0.930 . S
H419 C427 0.930 . S
H420 C430 0.930 . S
H421 C431 0.930 . S
C422 H416 0.930 . S
C422 C423 1.355 . S
C422 C424 1.415 . S
C423 C422 1.355 . S
C423 C425 1.419 . S
C424 C422 1.415 . S
C424 C429 1.425 . S
C424 C431 1.409 . S
C425 H417 0.930 . S
C425 C423 1.419 . S
C425 C426 1.362 . S
C426 H418 0.930 . S
C426 C425 1.362 . S
C426 C429 1.409 . S
C427 H419 0.930 . S
C427 C428 1.355 . S
C427 C429 1.415 . S
C428 C427 1.355 . S
C428 C430 1.419 . S
C429 C424 1.425 . S
C429 C426 1.409 . S
C429 C427 1.415 . S
C430 H420 0.930 . S
C430 C428 1.419 . S
C430 C431 1.362 . S
C431 H421 0.930 . S
C431 C424 1.409 . S
C431 C430 1.362 . S
H432 C438 0.930 . S
H433 C441 0.930 . S
H434 C442 0.930 . S
H435 C443 0.930 . S
H436 C446 0.930 . S
H437 C447 0.930 . S
C438 H432 0.930 . S
C438 C439 1.355 . S
C438 C440 1.415 1_556 S
C439 C438 1.355 . S
C439 C441 1.419 . S
C440 C438 1.415 1_554 S
C440 C445 1.425 1_554 S
C440 C447 1.409 . S
C441 H433 0.930 . S
C441 C439 1.419 . S
C441 C442 1.362 . S
C442 H434 0.930 . S
C442 C441 1.362 . S
C442 C445 1.409 . S
C443 H435 0.930 . S
C443 C444 1.355 . S
C443 C445 1.415 1_554 S
C444 C443 1.355 . S
C444 C446 1.419 . S
C445 C440 1.425 1_556 S
C445 C442 1.409 . S
C445 C443 1.415 1_556 S
C446 H436 0.930 . S
C446 C444 1.419 . S
C446 C447 1.362 . S
C447 H437 0.930 . S
C447 C440 1.409 . S
C447 C446 1.362 . S
H448 C454 0.930 . S
H449 C457 0.930 . S
H450 C458 0.930 . S
H451 C459 0.930 . S
H452 C462 0.930 . S
H453 C463 0.930 . S
C454 H448 0.930 . S
C454 C455 1.355 . S
C454 C456 1.415 . S
C455 C454 1.355 . S
C455 C457 1.419 . S
C456 C454 1.415 . S
C456 C461 1.425 . S
C456 C463 1.409 . S
C457 H449 0.930 . S
C457 C455 1.419 . S
C457 C458 1.362 . S
C458 H450 0.930 . S
C458 C457 1.362 . S
C458 C461 1.409 . S
C459 H451 0.930 . S
C459 C460 1.355 . S
C459 C461 1.415 . S
C460 C459 1.355 . S
C460 C462 1.419 . S
C461 C456 1.425 . S
C461 C458 1.409 . S
C461 C459 1.415 . S
C462 H452 0.930 . S
C462 C460 1.419 . S
C462 C463 1.362 . S
C463 H453 0.930 . S
C463 C456 1.409 . S
C463 C462 1.362 . S
H464 C470 0.930 . S
H465 C473 0.930 . S
H466 C474 0.930 . S
H467 C475 0.930 . S
H468 C478 0.930 . S
H469 C479 0.930 . S
C470 H464 0.930 . S
C470 C471 1.355 . S
C470 C472 1.415 1_556 S
C471 C470 1.355 . S
C471 C473 1.419 . S
C472 C470 1.415 1_554 S
C472 C477 1.425 1_554 S
C472 C479 1.409 . S
C473 H465 0.930 . S
C473 C471 1.419 . S
C473 C474 1.362 . S
C474 H466 0.930 . S
C474 C473 1.362 . S
C474 C477 1.409 . S
C475 H467 0.930 . S
C475 C476 1.355 . S
C475 C477 1.415 1_554 S
C476 C475 1.355 . S
C476 C478 1.419 . S
C477 C472 1.425 1_556 S
C477 C474 1.409 . S
C477 C475 1.415 1_556 S
C478 H468 0.930 . S
C478 C476 1.419 . S
C478 C479 1.362 . S
C479 H469 0.930 . S
C479 C472 1.409 . S
C479 C478 1.362 . S
H480 C486 0.930 . S
H481 C489 0.930 . S
H482 C490 0.930 . S
H483 C491 0.930 . S
H484 C494 0.930 . S
H485 C495 0.930 . S
C486 H480 0.930 . S
C486 C487 1.355 . S
C486 C488 1.415 . S
C487 C486 1.355 . S
C487 C489 1.419 . S
C488 C486 1.415 . S
C488 C493 1.425 . S
C488 C495 1.409 . S
C489 H481 0.930 . S
C489 C487 1.419 . S
C489 C490 1.362 . S
C490 H482 0.930 . S
C490 C489 1.362 . S
C490 C493 1.409 . S
C491 H483 0.930 . S
C491 C492 1.355 . S
C491 C493 1.415 . S
C492 C491 1.355 . S
C492 C494 1.419 . S
C493 C488 1.425 . S
C493 C490 1.409 . S
C493 C491 1.415 . S
C494 H484 0.930 . S
C494 C492 1.419 . S
C494 C495 1.362 . S
C495 H485 0.930 . S
C495 C488 1.409 . S
C495 C494 1.362 . S
H496 C502 0.930 . S
H497 C505 0.930 . S
H498 C506 0.930 . S
H499 C507 0.930 . S
H500 C510 0.930 . S
H501 C511 0.930 . S
C502 H496 0.930 . S
C502 C503 1.355 . S
C502 C504 1.415 . S
C503 C502 1.355 . S
C503 C505 1.419 . S
C504 C502 1.415 . S
C504 C509 1.425 . S
C504 C511 1.409 . S
C505 H497 0.930 . S
C505 C503 1.419 . S
C505 C506 1.362 . S
C506 H498 0.930 . S
C506 C505 1.362 . S
C506 C509 1.409 . S
C507 H499 0.930 . S
C507 C508 1.355 . S
C507 C509 1.415 . S
C508 C507 1.355 . S
C508 C510 1.419 . S
C509 C504 1.425 . S
C509 C506 1.409 . S
C509 C507 1.415 . S
C510 H500 0.930 . S
C510 C508 1.419 . S
C510 C511 1.362 . S
C511 H501 0.930 . S
C511 C504 1.409 . S
C511 C510 1.362 . S
H512 C518 0.930 . S
H513 C521 0.930 . S
H514 C522 0.930 . S
H515 C523 0.930 . S
H516 C526 0.930 . S
H517 C527 0.930 . S
C518 H512 0.930 . S
C518 C519 1.355 . S
C518 C520 1.415 . S
C519 C518 1.355 . S
C519 C521 1.419 . S
C520 C518 1.415 . S
C520 C525 1.425 . S
C520 C527 1.409 . S
C521 H513 0.930 . S
C521 C519 1.419 . S
C521 C522 1.362 . S
C522 H514 0.930 . S
C522 C521 1.362 . S
C522 C525 1.409 . S
C523 H515 0.930 . S
C523 C524 1.355 . S
C523 C525 1.415 . S
C524 C523 1.355 . S
C524 C526 1.419 . S
C525 C520 1.425 . S
C525 C522 1.409 . S
C525 C523 1.415 . S
C526 H516 0.930 . S
C526 C524 1.419 . S
C526 C527 1.362 . S
C527 H517 0.930 . S
C527 C520 1.409 . S
C527 C526 1.362 . S
H528 C534 0.930 . S
H529 C537 0.930 . S
H530 C538 0.930 . S
H531 C539 0.930 . S
H532 C542 0.930 . S
H533 C543 0.930 . S
C534 H528 0.930 . S
C534 C535 1.355 . S
C534 C536 1.415 . S
C535 C534 1.355 . S
C535 C537 1.419 . S
C536 C534 1.415 . S
C536 C541 1.425 . S
C536 C543 1.409 . S
C537 H529 0.930 . S
C537 C535 1.419 . S
C537 C538 1.362 . S
C538 H530 0.930 . S
C538 C537 1.362 . S
C538 C541 1.409 . S
C539 H531 0.930 . S
C539 C540 1.355 . S
C539 C541 1.415 . S
C540 C539 1.355 . S
C540 C542 1.419 . S
C541 C536 1.425 . S
C541 C538 1.409 . S
C541 C539 1.415 . S
C542 H532 0.930 . S
C542 C540 1.419 . S
C542 C543 1.362 . S
C543 H533 0.930 . S
C543 C536 1.409 . S
C543 C542 1.362 . S
H544 C550 0.930 . S
H545 C553 0.930 . S
H546 C554 0.930 . S
H547 C555 0.930 . S
H548 C558 0.930 . S
H549 C559 0.930 . S
C550 H544 0.930 . S
C550 C551 1.355 . S
C550 C552 1.415 . S
C551 C550 1.355 . S
C551 C553 1.419 . S
C552 C550 1.415 . S
C552 C557 1.425 . S
C552 C559 1.409 . S
C553 H545 0.930 . S
C553 C551 1.419 . S
C553 C554 1.362 . S
C554 H546 0.930 . S
C554 C553 1.362 . S
C554 C557 1.409 . S
C555 H547 0.930 . S
C555 C556 1.355 . S
C555 C557 1.415 . S
C556 C555 1.355 . S
C556 C558 1.419 . S
C557 C552 1.425 . S
C557 C554 1.409 . S
C557 C555 1.415 . S
C558 H548 0.930 . S
C558 C556 1.419 . S
C558 C559 1.362 . S
C559 H549 0.930 . S
C559 C552 1.409 . S
C559 C558 1.362 . S
H560 C566 0.930 . S
H561 C569 0.930 . S
H562 C570 0.930 . S
H563 C571 0.930 . S
H564 C574 0.930 . S
H565 C575 0.930 . S
C566 H560 0.930 . S
C566 C567 1.355 . S
C566 C568 1.415 . S
C567 C566 1.355 . S
C567 C569 1.419 . S
C568 C566 1.415 . S
C568 C573 1.425 . S
C568 C575 1.409 . S
C569 H561 0.930 . S
C569 C567 1.419 . S
C569 C570 1.362 . S
C570 H562 0.930 . S
C570 C569 1.362 . S
C570 C573 1.409 . S
C571 H563 0.930 . S
C571 C572 1.355 . S
C571 C573 1.415 . S
C572 C571 1.355 . S
C572 C574 1.419 . S
C573 C568 1.425 . S
C573 C570 1.409 . S
C573 C571 1.415 . S
C574 H564 0.930 . S
C574 C572 1.419 . S
C574 C575 1.362 . S
C575 H565 0.930 . S
C575 C568 1.409 . S
C575 C574 1.362 . S
H576 C582 0.930 . S
H577 C585 0.930 . S
H578 C586 0.930 . S
H579 C587 0.930 . S
H580 C590 0.930 . S
H581 C591 0.930 . S
C582 H576 0.930 . S
C582 C583 1.355 . S
C582 C584 1.415 . S
C583 C582 1.355 . S
C583 C585 1.419 . S
C584 C582 1.415 . S
C584 C589 1.425 . S
C584 C591 1.409 . S
C585 H577 0.930 . S
C585 C583 1.419 . S
C585 C586 1.362 . S
C586 H578 0.930 . S
C586 C585 1.362 . S
C586 C589 1.409 . S
C587 H579 0.930 . S
C587 C588 1.355 . S
C587 C589 1.415 . S
C588 C587 1.355 . S
C588 C590 1.419 . S
C589 C584 1.425 . S
C589 C586 1.409 . S
C589 C587 1.415 . S
C590 H580 0.930 . S
C590 C588 1.419 . S
C590 C591 1.362 . S
C591 H581 0.930 . S
C591 C584 1.409 . S
C591 C590 1.362 . S
H592 C598 0.930 . S
H593 C601 0.930 . S
H594 C602 0.930 . S
H595 C603 0.930 . S
H596 C606 0.930 . S
H597 C607 0.930 . S
C598 H592 0.930 . S
C598 C599 1.355 . S
C598 C600 1.415 . S
C599 C598 1.355 . S
C599 C601 1.419 . S
C600 C598 1.415 . S
C600 C605 1.425 . S
C600 C607 1.409 . S
C601 H593 0.930 . S
C601 C599 1.419 . S
C601 C602 1.362 . S
C602 H594 0.930 . S
C602 C601 1.362 . S
C602 C605 1.409 . S
C603 H595 0.930 . S
C603 C604 1.355 . S
C603 C605 1.415 . S
C604 C603 1.355 . S
C604 C606 1.419 . S
C605 C600 1.425 . S
C605 C602 1.409 . S
C605 C603 1.415 . S
C606 H596 0.930 . S
C606 C604 1.419 . S
C606 C607 1.362 . S
C607 H597 0.930 . S
C607 C600 1.409 . S
C607 C606 1.362 . S
H608 C614 0.930 . S
H609 C617 0.930 . S
H610 C618 0.930 . S
H611 C619 0.930 . S
H612 C622 0.930 . S
H613 C623 0.930 . S
C614 H608 0.930 . S
C614 C615 1.355 1_554 S
C614 C616 1.415 . S
C615 C614 1.355 1_556 S
C615 C617 1.419 . S
C616 C614 1.415 . S
C616 C621 1.425 . S
C616 C623 1.409 . S
C617 H609 0.930 . S
C617 C615 1.419 . S
C617 C618 1.362 1_556 S
C618 H610 0.930 . S
C618 C617 1.362 1_554 S
C618 C621 1.409 . S
C619 H611 0.930 . S
C619 C620 1.355 . S
C619 C621 1.415 . S
C620 C619 1.355 . S
C620 C622 1.419 . S
C621 C616 1.425 . S
C621 C618 1.409 . S
C621 C619 1.415 . S
C622 H612 0.930 . S
C622 C620 1.419 . S
C622 C623 1.362 . S
C623 H613 0.930 . S
C623 C616 1.409 . S
C623 C622 1.362 . S
H624 C630 0.930 . S
H625 C633 0.930 . S
H626 C634 0.930 . S
H627 C635 0.930 . S
H628 C638 0.930 . S
H629 C639 0.930 . S
C630 H624 0.930 . S
C630 C631 1.355 1_455 S
C630 C632 1.415 . S
C631 C630 1.355 1_655 S
C631 C633 1.419 . S
C632 C630 1.415 . S
C632 C637 1.425 1_455 S
C632 C639 1.409 . S
C633 H625 0.930 . S
C633 C631 1.419 . S
C633 C634 1.362 . S
C634 H626 0.930 . S
C634 C633 1.362 . S
C634 C637 1.409 . S
C635 H627 0.930 . S
C635 C636 1.355 . S
C635 C637 1.415 . S
C636 C635 1.355 . S
C636 C638 1.419 1_655 S
C637 C632 1.425 1_655 S
C637 C634 1.409 . S
C637 C635 1.415 . S
C638 H628 0.930 . S
C638 C636 1.419 1_455 S
C638 C639 1.362 . S
C639 H629 0.930 . S
C639 C632 1.409 . S
C639 C638 1.362 . S
H640 C646 0.930 . S
H641 C649 0.930 . S
H642 C650 0.930 . S
H643 C651 0.930 . S
H644 C654 0.930 . S
H645 C655 0.930 . S
C646 H640 0.930 . S
C646 C647 1.355 1_554 S
C646 C648 1.415 . S
C647 C646 1.355 1_556 S
C647 C649 1.419 1_565 S
C648 C646 1.415 . S
C648 C653 1.425 1_565 S
C648 C655 1.409 . S
C649 H641 0.930 . S
C649 C647 1.419 1_545 S
C649 C650 1.362 1_556 S
C650 H642 0.930 . S
C650 C649 1.362 1_554 S
C650 C653 1.409 . S
C651 H643 0.930 . S
C651 C652 1.355 1_545 S
C651 C653 1.415 . S
C652 C651 1.355 1_565 S
C652 C654 1.419 . S
C653 C648 1.425 1_545 S
C653 C650 1.409 . S
C653 C651 1.415 . S
C654 H644 0.930 . S
C654 C652 1.419 . S
C654 C655 1.362 . S
C655 H645 0.930 . S
C655 C648 1.409 . S
C655 C654 1.362 . S
H656 C662 0.930 . S
H657 C665 0.930 . S
H658 C666 0.930 . S
H659 C667 0.930 . S
H660 C670 0.930 . S
H661 C671 0.930 . S
C662 H656 0.930 . S
C662 C663 1.355 . S
C662 C664 1.415 . S
C663 C662 1.355 . S
C663 C665 1.419 . S
C664 C662 1.415 . S
C664 C669 1.425 . S
C664 C671 1.409 . S
C665 H657 0.930 . S
C665 C663 1.419 . S
C665 C666 1.362 . S
C666 H658 0.930 . S
C666 C665 1.362 . S
C666 C669 1.409 . S
C667 H659 0.930 . S
C667 C668 1.355 . S
C667 C669 1.415 . S
C668 C667 1.355 . S
C668 C670 1.419 . S
C669 C664 1.425 . S
C669 C666 1.409 . S
C669 C667 1.415 . S
C670 H660 0.930 . S
C670 C668 1.419 . S
C670 C671 1.362 . S
C671 H661 0.930 . S
C671 C664 1.409 . S
C671 C670 1.362 . S
H672 C678 0.930 . S
H673 C681 0.930 . S
H674 C682 0.930 . S
H675 C683 0.930 . S
H676 C686 0.930 . S
H677 C687 0.930 . S
C678 H672 0.930 . S
C678 C679 1.355 . S
C678 C680 1.415 . S
C679 C678 1.355 . S
C679 C681 1.419 . S
C680 C678 1.415 . S
C680 C685 1.425 . S
C680 C687 1.409 . S
C681 H673 0.930 . S
C681 C679 1.419 . S
C681 C682 1.362 . S
C682 H674 0.930 . S
C682 C681 1.362 . S
C682 C685 1.409 . S
C683 H675 0.930 . S
C683 C684 1.355 . S
C683 C685 1.415 . S
C684 C683 1.355 . S
C684 C686 1.419 . S
C685 C680 1.425 . S
C685 C682 1.409 . S
C685 C683 1.415 . S
C686 H676 0.930 . S
C686 C684 1.419 . S
C686 C687 1.362 . S
C687 H677 0.930 . S
C687 C680 1.409 . S
C687 C686 1.362 . S
H688 C694 0.930 . S
H689 C697 0.930 . S
H690 C698 0.930 . S
H691 C699 0.930 . S
H692 C702 0.930 . S
H693 C703 0.930 . S
C694 H688 0.930 . S
C694 C695 1.355 1_655 S
C694 C696 1.415 . S
C695 C694 1.355 1_455 S
C695 C697 1.419 . S
C696 C694 1.415 . S
C696 C701 1.425 1_655 S
C696 C703 1.409 . S
C697 H689 0.930 . S
C697 C695 1.419 . S
C697 C698 1.362 . S
C698 H690 0.930 . S
C698 C697 1.362 . S
C698 C701 1.409 . S
C699 H691 0.930 . S
C699 C700 1.355 . S
C699 C701 1.415 1_554 S
C700 C699 1.355 . S
C700 C702 1.419 1_454 S
C701 C696 1.425 1_455 S
C701 C698 1.409 . S
C701 C699 1.415 1_556 S
C702 H692 0.930 . S
C702 C700 1.419 1_656 S
C702 C703 1.362 . S
C703 H693 0.930 . S
C703 C696 1.409 . S
C703 C702 1.362 . S
H704 C710 0.930 . S
H705 C713 0.930 . S
H706 C714 0.930 . S
H707 C715 0.930 . S
H708 C718 0.930 . S
H709 C719 0.930 . S
C710 H704 0.930 . S
C710 C711 1.355 . S
C710 C712 1.415 . S
C711 C710 1.355 . S
C711 C713 1.419 . S
C712 C710 1.415 . S
C712 C717 1.425 . S
C712 C719 1.409 . S
C713 H705 0.930 . S
C713 C711 1.419 . S
C713 C714 1.362 . S
C714 H706 0.930 . S
C714 C713 1.362 . S
C714 C717 1.409 . S
C715 H707 0.930 . S
C715 C716 1.355 . S
C715 C717 1.415 . S
C716 C715 1.355 . S
C716 C718 1.419 . S
C717 C712 1.425 . S
C717 C714 1.409 . S
C717 C715 1.415 . S
C718 H708 0.930 . S
C718 C716 1.419 . S
C718 C719 1.362 . S
C719 H709 0.930 . S
C719 C712 1.409 . S
C719 C718 1.362 . S
H720 C726 0.930 1_554 S
H721 C729 0.930 1_554 S
H722 C730 0.930 . S
H723 C731 0.930 . S
H724 C734 0.930 . S
H725 C735 0.930 . S
C726 H720 0.930 1_556 S
C726 C727 1.355 1_556 S
C726 C728 1.415 . S
C727 C726 1.355 1_554 S
C727 C729 1.419 1_554 S
C728 C726 1.415 . S
C728 C733 1.425 . S
C728 C735 1.409 . S
C729 H721 0.930 1_556 S
C729 C727 1.419 1_556 S
C729 C730 1.362 . S
C730 H722 0.930 . S
C730 C729 1.362 . S
C730 C733 1.409 . S
C731 H723 0.930 . S
C731 C732 1.355 . S
C731 C733 1.415 . S
C732 C731 1.355 . S
C732 C734 1.419 . S
C733 C728 1.425 . S
C733 C730 1.409 . S
C733 C731 1.415 . S
C734 H724 0.930 . S
C734 C732 1.419 . S
C734 C735 1.362 . S
C735 H725 0.930 . S
C735 C728 1.409 . S
C735 C734 1.362 . S
H736 C742 0.930 . S
H737 C745 0.930 . S
H738 C746 0.930 . S
H739 C747 0.930 . S
H740 C750 0.930 . S
H741 C751 0.930 . S
C742 H736 0.930 . S
C742 C743 1.355 . S
C742 C744 1.415 . S
C743 C742 1.355 . S
C743 C745 1.419 . S
C744 C742 1.415 . S
C744 C749 1.425 . S
C744 C751 1.409 . S
C745 H737 0.930 . S
C745 C743 1.419 . S
C745 C746 1.362 . S
C746 H738 0.930 . S
C746 C745 1.362 . S
C746 C749 1.409 . S
C747 H739 0.930 . S
C747 C748 1.355 1_556 S
C747 C749 1.415 . S
C748 C747 1.355 1_554 S
C748 C750 1.419 . S
C749 C744 1.425 . S
C749 C746 1.409 . S
C749 C747 1.415 . S
C750 H740 0.930 . S
C750 C748 1.419 . S
C750 C751 1.362 1_554 S
C751 H741 0.930 . S
C751 C744 1.409 . S
C751 C750 1.362 1_556 S
H752 C758 0.930 . S
H753 C761 0.930 . S
H754 C762 0.930 . S
H755 C763 0.930 . S
H756 C766 0.930 . S
H757 C767 0.930 . S
C758 H752 0.930 . S
C758 C759 1.355 . S
C758 C760 1.415 . S
C759 C758 1.355 . S
C759 C761 1.419 1_455 S
C760 C758 1.415 . S
C760 C765 1.414 1_455 S
C760 C767 1.409 . S
C761 H753 0.930 . S
C761 C759 1.419 1_655 S
C761 C762 1.362 . S
C762 H754 0.930 . S
C762 C761 1.362 . S
C762 C765 1.420 . S
C763 H755 0.930 . S
C763 C764 1.355 1_655 S
C763 C765 1.415 . S
C764 C763 1.355 1_455 S
C764 C766 1.419 . S
C765 C760 1.414 1_655 S
C765 C762 1.420 . S
C765 C763 1.415 . S
C766 H756 0.930 . S
C766 C764 1.419 . S
C766 C767 1.362 . S
C767 H757 0.930 . S
C767 C760 1.409 . S
C767 C766 1.362 . S
H768 C774 0.930 . S
H769 C777 0.932 . S
H770 C778 0.930 . S
H771 C779 0.930 1_565 S
H772 C782 0.930 . S
H773 C783 0.930 . S
C774 H768 0.930 . S
C774 C775 1.355 1_556 S
C774 C776 1.415 . S
C775 C774 1.355 1_554 S
C775 C777 1.416 1_545 S
C776 C774 1.415 . S
C776 C781 1.425 . S
C776 C783 1.409 . S
C777 H769 0.932 . S
C777 C775 1.416 1_565 S
C777 C778 1.363 1_554 S
C778 H770 0.930 . S
C778 C777 1.363 1_556 S
C778 C781 1.409 1_565 S
C779 H771 0.930 1_545 S
C779 C780 1.355 . S
C779 C781 1.415 . S
C780 C779 1.355 . S
C780 C782 1.419 . S
C781 C776 1.425 . S
C781 C778 1.409 1_545 S
C781 C779 1.415 . S
C782 H772 0.930 . S
C782 C780 1.419 . S
C782 C783 1.362 . S
C783 H773 0.930 . S
C783 C776 1.409 . S
C783 C782 1.362 . S
H784 C790 0.930 . S
H785 C793 0.930 . S
H786 C794 0.930 . S
H787 C795 0.930 . S
H788 C798 0.930 . S
H789 C799 0.930 . S
C790 H784 0.930 . S
C790 C791 1.355 . S
C790 C792 1.415 . S
C791 C790 1.355 . S
C791 C793 1.419 . S
C792 C790 1.415 . S
C792 C797 1.425 . S
C792 C799 1.409 . S
C793 H785 0.930 . S
C793 C791 1.419 . S
C793 C794 1.362 . S
C794 H786 0.930 . S
C794 C793 1.362 . S
C794 C797 1.409 . S
C795 H787 0.930 . S
C795 C796 1.355 . S
C795 C797 1.415 . S
C796 C795 1.355 . S
C796 C798 1.419 . S
C797 C792 1.425 . S
C797 C794 1.409 . S
C797 C795 1.415 . S
C798 H788 0.930 . S
C798 C796 1.419 . S
C798 C799 1.362 . S
C799 H789 0.930 . S
C799 C792 1.409 . S
C799 C798 1.362 . S
H800 C806 0.930 . S
H801 C809 0.930 . S
H802 C810 0.930 . S
H803 C811 0.930 . S
H804 C814 0.930 . S
H805 C815 0.930 . S
C806 H800 0.930 . S
C806 C807 1.355 . S
C806 C808 1.415 . S
C807 C806 1.355 . S
C807 C809 1.419 . S
C808 C806 1.415 . S
C808 C813 1.425 . S
C808 C815 1.409 . S
C809 H801 0.930 . S
C809 C807 1.419 . S
C809 C810 1.362 . S
C810 H802 0.930 . S
C810 C809 1.362 . S
C810 C813 1.409 . S
C811 H803 0.930 . S
C811 C812 1.355 . S
C811 C813 1.415 . S
C812 C811 1.355 . S
C812 C814 1.419 . S
C813 C808 1.425 . S
C813 C810 1.409 . S
C813 C811 1.415 . S
C814 H804 0.930 . S
C814 C812 1.419 . S
C814 C815 1.362 . S
C815 H805 0.930 . S
C815 C808 1.409 . S
C815 C814 1.362 . S
H816 C822 0.930 . S
H817 C825 0.930 . S
H818 C826 0.930 . S
H819 C827 0.930 . S
H820 C830 0.930 . S
H821 C831 0.930 . S
C822 H816 0.930 . S
C822 C823 1.355 1_455 S
C822 C824 1.415 . S
C823 C822 1.355 1_655 S
C823 C825 1.419 . S
C824 C822 1.415 . S
C824 C829 1.425 1_455 S
C824 C831 1.409 . S
C825 H817 0.930 . S
C825 C823 1.419 . S
C825 C826 1.362 . S
C826 H818 0.930 . S
C826 C825 1.362 . S
C826 C829 1.409 . S
C827 H819 0.930 . S
C827 C828 1.355 1_554 S
C827 C829 1.415 . S
C828 C827 1.355 1_556 S
C828 C830 1.419 1_655 S
C829 C824 1.425 1_655 S
C829 C826 1.409 . S
C829 C827 1.415 . S
C830 H820 0.930 . S
C830 C828 1.419 1_455 S
C830 C831 1.362 1_556 S
C831 H821 0.930 . S
C831 C824 1.409 . S
C831 C830 1.362 1_554 S
H832 C838 0.932 . S
H833 C841 0.930 . S
H834 C842 0.930 . S
H835 C843 0.930 . S
H836 C846 0.930 . S
H837 C847 0.930 . S
C838 H832 0.932 . S
C838 C839 1.355 . S
C838 C840 1.415 . S
C839 C838 1.355 . S
C839 C841 1.419 . S
C840 C838 1.415 . S
C840 C845 1.425 . S
C840 C847 1.409 1_565 S
C841 H833 0.930 . S
C841 C839 1.419 . S
C841 C842 1.362 . S
C842 H834 0.930 . S
C842 C841 1.362 . S
C842 C845 1.409 . S
C843 H835 0.930 . S
C843 C844 1.355 . S
C843 C845 1.415 . S
C844 C843 1.355 . S
C844 C846 1.419 1_565 S
C845 C840 1.425 . S
C845 C842 1.409 . S
C845 C843 1.415 . S
C846 H836 0.930 . S
C846 C844 1.419 1_545 S
C846 C847 1.362 . S
C847 H837 0.930 . S
C847 C840 1.409 1_545 S
C847 C846 1.362 . S
H848 C854 0.930 . S
H849 C857 0.930 . S
H850 C858 0.930 . S
H851 C859 0.930 . S
H852 C862 0.930 . S
H853 C863 0.930 . S
C854 H848 0.930 . S
C854 C855 1.355 1_554 S
C854 C856 1.415 . S
C855 C854 1.355 1_556 S
C855 C857 1.419 . S
C856 C854 1.415 . S
C856 C861 1.425 . S
C856 C863 1.409 . S
C857 H849 0.930 . S
C857 C855 1.419 . S
C857 C858 1.362 1_556 S
C858 H850 0.930 . S
C858 C857 1.362 1_554 S
C858 C861 1.409 . S
C859 H851 0.930 . S
C859 C860 1.355 . S
C859 C861 1.415 . S
C860 C859 1.355 . S
C860 C862 1.419 . S
C861 C856 1.425 . S
C861 C858 1.409 . S
C861 C859 1.415 . S
C862 H852 0.930 . S
C862 C860 1.419 . S
C862 C863 1.362 . S
C863 H853 0.930 . S
C863 C856 1.409 . S
C863 C862 1.362 . S
H864 C870 0.930 . S
H865 C873 0.930 . S
H866 C874 0.930 . S
H867 C875 0.930 . S
H868 C878 0.930 . S
H869 C879 0.930 . S
C870 H864 0.930 . S
C870 C871 1.355 . S
C870 C872 1.415 . S
C871 C870 1.355 . S
C871 C873 1.419 . S
C872 C870 1.415 . S
C872 C877 1.425 . S
C872 C879 1.409 . S
C873 H865 0.930 . S
C873 C871 1.419 . S
C873 C874 1.362 . S
C874 H866 0.930 . S
C874 C873 1.362 . S
C874 C877 1.409 . S
C875 H867 0.930 . S
C875 C876 1.355 . S
C875 C877 1.415 . S
C876 C875 1.355 . S
C876 C878 1.419 . S
C877 C872 1.425 . S
C877 C874 1.409 . S
C877 C875 1.415 . S
C878 H868 0.930 . S
C878 C876 1.419 . S
C878 C879 1.362 . S
C879 H869 0.930 . S
C879 C872 1.409 . S
C879 C878 1.362 . S
H880 C886 0.930 . S
H881 C889 0.930 . S
H882 C890 0.930 . S
H883 C891 0.930 . S
H884 C894 0.930 . S
H885 C895 0.930 . S
C886 H880 0.930 . S
C886 C887 1.355 . S
C886 C888 1.415 . S
C887 C886 1.355 . S
C887 C889 1.419 . S
C888 C886 1.415 . S
C888 C893 1.425 . S
C888 C895 1.409 . S
C889 H881 0.930 . S
C889 C887 1.419 . S
C889 C890 1.362 . S
C890 H882 0.930 . S
C890 C889 1.362 . S
C890 C893 1.409 . S
C891 H883 0.930 . S
C891 C892 1.355 . S
C891 C893 1.415 . S
C892 C891 1.355 . S
C892 C894 1.419 . S
C893 C888 1.425 . S
C893 C890 1.409 . S
C893 C891 1.415 . S
C894 H884 0.930 . S
C894 C892 1.419 . S
C894 C895 1.362 . S
C895 H885 0.930 . S
C895 C888 1.409 . S
C895 C894 1.362 . S
H896 C902 0.930 . S
H897 C905 0.930 . S
H898 C906 0.930 . S
H899 C907 0.930 . S
H900 C910 0.930 . S
H901 C911 0.930 . S
C902 H896 0.930 . S
C902 C903 1.355 . S
C902 C904 1.415 . S
C903 C902 1.355 . S
C903 C905 1.419 . S
C904 C902 1.415 . S
C904 C909 1.425 . S
C904 C911 1.409 . S
C905 H897 0.930 . S
C905 C903 1.419 . S
C905 C906 1.362 . S
C906 H898 0.930 . S
C906 C905 1.362 . S
C906 C909 1.409 . S
C907 H899 0.930 . S
C907 C908 1.355 . S
C907 C909 1.415 . S
C908 C907 1.355 . S
C908 C910 1.419 . S
C909 C904 1.425 . S
C909 C906 1.409 . S
C909 C907 1.415 . S
C910 H900 0.930 . S
C910 C908 1.419 . S
C910 C911 1.362 . S
C911 H901 0.930 . S
C911 C904 1.409 . S
C911 C910 1.362 . S
H912 C918 0.930 . S
H913 C921 0.930 . S
H914 C922 0.930 . S
H915 C923 0.930 . S
H916 C926 0.930 . S
H917 C927 0.930 . S
C918 H912 0.930 . S
C918 C919 1.355 . S
C918 C920 1.415 . S
C919 C918 1.355 . S
C919 C921 1.419 . S
C920 C918 1.415 . S
C920 C925 1.425 . S
C920 C927 1.409 . S
C921 H913 0.930 . S
C921 C919 1.419 . S
C921 C922 1.362 . S
C922 H914 0.930 . S
C922 C921 1.362 . S
C922 C925 1.409 . S
C923 H915 0.930 . S
C923 C924 1.355 . S
C923 C925 1.415 . S
C924 C923 1.355 . S
C924 C926 1.419 . S
C925 C920 1.425 . S
C925 C922 1.409 . S
C925 C923 1.415 . S
C926 H916 0.930 . S
C926 C924 1.419 . S
C926 C927 1.362 . S
C927 H917 0.930 . S
C927 C920 1.409 . S
C927 C926 1.362 . S
H928 C934 0.930 . S
H929 C937 0.930 . S
H930 C938 0.930 . S
H931 C939 0.930 . S
H932 C942 0.930 . S
H933 C943 0.930 . S
C934 H928 0.930 . S
C934 C935 1.355 . S
C934 C936 1.415 . S
C935 C934 1.355 . S
C935 C937 1.419 . S
C936 C934 1.415 . S
C936 C941 1.425 . S
C936 C943 1.409 . S
C937 H929 0.930 . S
C937 C935 1.419 . S
C937 C938 1.362 . S
C938 H930 0.930 . S
C938 C937 1.362 . S
C938 C941 1.409 . S
C939 H931 0.930 . S
C939 C940 1.355 . S
C939 C941 1.415 . S
C940 C939 1.355 . S
C940 C942 1.419 . S
C941 C936 1.425 . S
C941 C938 1.409 . S
C941 C939 1.415 . S
C942 H932 0.930 . S
C942 C940 1.419 . S
C942 C943 1.362 . S
C943 H933 0.930 . S
C943 C936 1.409 . S
C943 C942 1.362 . S
H944 C950 0.930 . S
H945 C953 0.930 . S
H946 C954 0.930 . S
H947 C955 0.930 . S
H948 C958 0.930 . S
H949 C959 0.930 . S
C950 H944 0.930 . S
C950 C951 1.355 . S
C950 C952 1.415 . S
C951 C950 1.355 . S
C951 C953 1.419 . S
C952 C950 1.415 . S
C952 C957 1.425 . S
C952 C959 1.409 . S
C953 H945 0.930 . S
C953 C951 1.419 . S
C953 C954 1.362 . S
C954 H946 0.930 . S
C954 C953 1.362 . S
C954 C957 1.409 . S
C955 H947 0.930 . S
C955 C956 1.355 . S
C955 C957 1.415 . S
C956 C955 1.355 . S
C956 C958 1.419 . S
C957 C952 1.425 . S
C957 C954 1.409 . S
C957 C955 1.415 . S
C958 H948 0.930 . S
C958 C956 1.419 . S
C958 C959 1.362 . S
C959 H949 0.930 . S
C959 C952 1.409 . S
C959 C958 1.362 . S
H960 C966 0.930 . S
H961 C969 0.930 . S
H962 C970 0.930 . S
H963 C971 0.930 . S
H964 C974 0.930 . S
H965 C975 0.930 . S
C966 H960 0.930 . S
C966 C967 1.355 . S
C966 C968 1.415 . S
C967 C966 1.355 . S
C967 C969 1.419 . S
C968 C966 1.415 . S
C968 C973 1.425 . S
C968 C975 1.409 . S
C969 H961 0.930 . S
C969 C967 1.419 . S
C969 C970 1.362 . S
C970 H962 0.930 . S
C970 C969 1.362 . S
C970 C973 1.409 . S
C971 H963 0.930 . S
C971 C972 1.355 . S
C971 C973 1.415 . S
C972 C971 1.355 . S
C972 C974 1.419 . S
C973 C968 1.425 . S
C973 C970 1.409 . S
C973 C971 1.415 . S
C974 H964 0.930 . S
C974 C972 1.419 . S
C974 C975 1.362 . S
C975 H965 0.930 . S
C975 C968 1.409 . S
C975 C974 1.362 . S
H976 C982 0.930 . S
H977 C985 0.930 . S
H978 C986 0.930 . S
H979 C987 0.930 . S
H980 C990 0.930 . S
H981 C991 0.930 . S
C982 H976 0.930 . S
C982 C983 1.355 . S
C982 C984 1.415 . S
C983 C982 1.355 . S
C983 C985 1.419 . S
C984 C982 1.415 . S
C984 C989 1.425 . S
C984 C991 1.409 . S
C985 H977 0.930 . S
C985 C983 1.419 . S
C985 C986 1.362 . S
C986 H978 0.930 . S
C986 C985 1.362 . S
C986 C989 1.409 . S
C987 H979 0.930 . S
C987 C988 1.355 . S
C987 C989 1.415 . S
C988 C987 1.355 . S
C988 C990 1.419 . S
C989 C984 1.425 . S
C989 C986 1.409 . S
C989 C987 1.415 . S
C990 H980 0.930 . S
C990 C988 1.419 . S
C990 C991 1.362 . S
C991 H981 0.930 . S
C991 C984 1.409 . S
C991 C990 1.362 . S
H992 C998 0.930 . S
H993 C1001 0.930 . S
H994 C1002 0.930 . S
H995 C1003 0.930 . S
H996 C1006 0.930 . S
H997 C1007 0.930 . S
C998 H992 0.930 . S
C998 C999 1.355 . S
C998 C1000 1.415 . S
C999 C998 1.355 . S
C999 C1001 1.419 . S
C1000 C998 1.415 . S
C1000 C1005 1.425 . S
C1000 C1007 1.409 . S
C1001 H993 0.930 . S
C1001 C999 1.419 . S
C1001 C1002 1.362 . S
C1002 H994 0.930 . S
C1002 C1001 1.362 . S
C1002 C1005 1.409 . S
C1003 H995 0.930 . S
C1003 C1004 1.355 . S
C1003 C1005 1.415 . S
C1004 C1003 1.355 . S
C1004 C1006 1.419 . S
C1005 C1000 1.425 . S
C1005 C1002 1.409 . S
C1005 C1003 1.415 . S
C1006 H996 0.930 . S
C1006 C1004 1.419 . S
C1006 C1007 1.362 . S
C1007 H997 0.930 . S
C1007 C1000 1.409 . S
C1007 C1006 1.362 . S
H1008 C1014 0.930 . S
H1009 C1017 0.930 . S
H1010 C1018 0.930 . S
H1011 C1019 0.930 . S
H1012 C1022 0.930 . S
H1013 C1023 0.930 . S
C1014 H1008 0.930 . S
C1014 C1015 1.355 . S
C1014 C1016 1.415 . S
C1015 C1014 1.355 . S
C1015 C1017 1.419 . S
C1016 C1014 1.415 . S
C1016 C1021 1.425 . S
C1016 C1023 1.409 . S
C1017 H1009 0.930 . S
C1017 C1015 1.419 . S
C1017 C1018 1.362 . S
C1018 H1010 0.930 . S
C1018 C1017 1.362 . S
C1018 C1021 1.409 . S
C1019 H1011 0.930 . S
C1019 C1020 1.355 . S
C1019 C1021 1.415 . S
C1020 C1019 1.355 . S
C1020 C1022 1.419 . S
C1021 C1016 1.425 . S
C1021 C1018 1.409 . S
C1021 C1019 1.415 . S
C1022 H1012 0.930 . S
C1022 C1020 1.419 . S
C1022 C1023 1.362 . S
C1023 H1013 0.930 . S
C1023 C1016 1.409 . S
C1023 C1022 1.362 . S
H1024 C1030 0.930 . S
H1025 C1033 0.930 . S
H1026 C1034 0.930 . S
H1027 C1035 0.930 . S
H1028 C1038 0.930 . S
H1029 C1039 0.930 . S
C1030 H1024 0.930 . S
C1030 C1031 1.355 . S
C1030 C1032 1.415 . S
C1031 C1030 1.355 . S
C1031 C1033 1.419 . S
C1032 C1030 1.415 . S
C1032 C1037 1.425 . S
C1032 C1039 1.409 . S
C1033 H1025 0.930 . S
C1033 C1031 1.419 . S
C1033 C1034 1.362 . S
C1034 H1026 0.930 . S
C1034 C1033 1.362 . S
C1034 C1037 1.409 . S
C1035 H1027 0.930 . S
C1035 C1036 1.355 . S
C1035 C1037 1.415 . S
C1036 C1035 1.355 . S
C1036 C1038 1.419 . S
C1037 C1032 1.425 . S
C1037 C1034 1.409 . S
C1037 C1035 1.415 . S
C1038 H1028 0.930 . S
C1038 C1036 1.419 . S
C1038 C1039 1.362 . S
C1039 H1029 0.930 . S
C1039 C1032 1.409 . S
C1039 C1038 1.362 . S
H1040 C1046 0.930 . S
H1041 C1049 0.930 . S
H1042 C1050 0.930 . S
H1043 C1051 0.930 . S
H1044 C1054 0.930 . S
H1045 C1055 0.930 . S
C1046 H1040 0.930 . S
C1046 C1047 1.355 . S
C1046 C1048 1.415 . S
C1047 C1046 1.355 . S
C1047 C1049 1.419 . S
C1048 C1046 1.415 . S
C1048 C1053 1.425 . S
C1048 C1055 1.409 . S
C1049 H1041 0.930 . S
C1049 C1047 1.419 . S
C1049 C1050 1.362 . S
C1050 H1042 0.930 . S
C1050 C1049 1.362 . S
C1050 C1053 1.409 . S
C1051 H1043 0.930 . S
C1051 C1052 1.355 . S
C1051 C1053 1.415 . S
C1052 C1051 1.355 . S
C1052 C1054 1.419 . S
C1053 C1048 1.425 . S
C1053 C1050 1.409 . S
C1053 C1051 1.415 . S
C1054 H1044 0.930 . S
C1054 C1052 1.419 . S
C1054 C1055 1.362 . S
C1055 H1045 0.930 . S
C1055 C1048 1.409 . S
C1055 C1054 1.362 . S
H1056 C1062 0.930 . S
H1057 C1065 0.930 . S
H1058 C1066 0.930 . S
H1059 C1067 0.930 . S
H1060 C1070 0.930 . S
H1061 C1071 0.930 . S
C1062 H1056 0.930 . S
C1062 C1063 1.355 . S
C1062 C1064 1.415 . S
C1063 C1062 1.355 . S
C1063 C1065 1.419 . S
C1064 C1062 1.415 . S
C1064 C1069 1.425 . S
C1064 C1071 1.409 . S
C1065 H1057 0.930 . S
C1065 C1063 1.419 . S
C1065 C1066 1.362 . S
C1066 H1058 0.930 . S
C1066 C1065 1.362 . S
C1066 C1069 1.409 . S
C1067 H1059 0.930 . S
C1067 C1068 1.355 . S
C1067 C1069 1.415 . S
C1068 C1067 1.355 . S
C1068 C1070 1.419 . S
C1069 C1064 1.425 . S
C1069 C1066 1.409 . S
C1069 C1067 1.415 . S
C1070 H1060 0.930 . S
C1070 C1068 1.419 . S
C1070 C1071 1.362 . S
C1071 H1061 0.930 . S
C1071 C1064 1.409 . S
C1071 C1070 1.362 . S
H1072 C1078 0.930 . S
H1073 C1081 0.930 . S
H1074 C1082 0.930 . S
H1075 C1083 0.930 . S
H1076 C1086 0.930 . S
H1077 C1087 0.930 . S
C1078 H1072 0.930 . S
C1078 C1079 1.355 . S
C1078 C1080 1.415 . S
C1079 C1078 1.355 . S
C1079 C1081 1.419 . S
C1080 C1078 1.415 . S
C1080 C1085 1.425 . S
C1080 C1087 1.409 . S
C1081 H1073 0.930 . S
C1081 C1079 1.419 . S
C1081 C1082 1.362 . S
C1082 H1074 0.930 . S
C1082 C1081 1.362 . S
C1082 C1085 1.409 . S
C1083 H1075 0.930 . S
C1083 C1084 1.355 . S
C1083 C1085 1.415 . S
C1084 C1083 1.355 . S
C1084 C1086 1.419 . S
C1085 C1080 1.425 . S
C1085 C1082 1.409 . S
C1085 C1083 1.415 . S
C1086 H1076 0.930 . S
C1086 C1084 1.419 . S
C1086 C1087 1.362 . S
C1087 H1077 0.930 . S
C1087 C1080 1.409 . S
C1087 C1086 1.362 . S
H1088 C1094 0.930 . S
H1089 C1097 0.930 . S
H1090 C1098 0.930 . S
H1091 C1099 0.930 . S
H1092 C1102 0.930 . S
H1093 C1103 0.930 . S
C1094 H1088 0.930 . S
C1094 C1095 1.355 . S
C1094 C1096 1.415 . S
C1095 C1094 1.355 . S
C1095 C1097 1.419 . S
C1096 C1094 1.415 . S
C1096 C1101 1.425 . S
C1096 C1103 1.409 . S
C1097 H1089 0.930 . S
C1097 C1095 1.419 . S
C1097 C1098 1.362 . S
C1098 H1090 0.930 . S
C1098 C1097 1.362 . S
C1098 C1101 1.409 . S
C1099 H1091 0.930 . S
C1099 C1100 1.355 . S
C1099 C1101 1.415 . S
C1100 C1099 1.355 . S
C1100 C1102 1.419 . S
C1101 C1096 1.425 . S
C1101 C1098 1.409 . S
C1101 C1099 1.415 . S
C1102 H1092 0.930 . S
C1102 C1100 1.419 . S
C1102 C1103 1.362 . S
C1103 H1093 0.930 . S
C1103 C1096 1.409 . S
C1103 C1102 1.362 . S
H1104 C1110 0.930 . S
H1105 C1113 0.930 . S
H1106 C1114 0.930 . S
H1107 C1115 0.930 . S
H1108 C1118 0.930 . S
H1109 C1119 0.930 . S
C1110 H1104 0.930 . S
C1110 C1111 1.355 . S
C1110 C1112 1.415 . S
C1111 C1110 1.355 . S
C1111 C1113 1.419 . S
C1112 C1110 1.415 . S
C1112 C1117 1.425 . S
C1112 C1119 1.409 . S
C1113 H1105 0.930 . S
C1113 C1111 1.419 . S
C1113 C1114 1.362 . S
C1114 H1106 0.930 . S
C1114 C1113 1.362 . S
C1114 C1117 1.409 . S
C1115 H1107 0.930 . S
C1115 C1116 1.355 . S
C1115 C1117 1.415 . S
C1116 C1115 1.355 . S
C1116 C1118 1.419 . S
C1117 C1112 1.425 . S
C1117 C1114 1.409 . S
C1117 C1115 1.415 . S
C1118 H1108 0.930 . S
C1118 C1116 1.419 . S
C1118 C1119 1.362 . S
C1119 H1109 0.930 . S
C1119 C1112 1.409 . S
C1119 C1118 1.362 . S
C359 C18 1.096 . S
C364 C164 1.062 . S
C375 C96 1.106 . S
C380 C32 1.049 . S
C391 C118 1.090 . S
C396 C54 1.070 . S
C407 C76 1.036 . S
C412 C140 1.108 . S
C423 C340 1.059 . S
C428 C186 1.099 . S
C439 C282 1.106 . S
C444 C208 1.049 . S
C455 C294 1.063 . S
C460 C230 1.076 . S
C471 C326 1.107 . S
C476 C260 1.048 . S
C487 C8 1.327 . S
C492 C348 1.265 . S
C503 C40 1.290 . S
C508 C272 1.302 . S
C519 C62 1.275 . S
C524 C296 1.317 . S
C535 C316 1.295 . S
C540 C84 1.298 . S
C551 C216 1.310 . S
C556 C98 1.282 . S
C567 C120 1.296 . S
C572 C238 1.297 . S
C583 C250 1.266 . S
C588 C142 1.326 . S
C599 C172 1.306 . S
C604 C194 1.287 . S
C615 C274 1.465 . S
C620 C21 1.422 . S
C631 C29 1.457 . S
C636 C304 1.458 . S
C647 C318 1.458 . S
C652 C51 1.419 . S
C663 C338 1.458 . S
C668 C73 1.457 . S
C679 C103 1.422 . S
C684 C184 1.449 . S
C695 C125 1.462 . S
C700 C206 1.453 . S
C711 C147 1.419 . S
C716 C228 1.458 . S
C727 C252 1.441 . S
C732 C161 1.464 . S
C743 C183 1.420 . S
C748 C106 1.453 . S
C759 C205 1.432 . S
C764 C128 1.440 . S
C775 C150 1.460 . S
C780 C227 1.419 . S
C791 C263 1.422 . S
C796 C162 1.465 . S
C807 C285 1.462 . S
C812 C10 1.452 . S
C823 C301 1.423 . S
C828 C30 1.465 . S
C839 C52 1.442 . S
C844 C329 1.464 . S
C855 C74 1.466 . S
C860 C337 1.442 . S
C871 C15 1.583 . S
C876 C213 1.541 . S
C887 C235 1.467 . S
C892 C43 1.544 . S
C903 C65 1.564 . S
C908 C249 1.502 . S
C919 C87 1.556 . S
C924 C191 1.486 . S
C935 C95 1.555 . S
C940 C345 1.496 . S
C951 C117 1.562 . S
C956 C271 1.498 . S
C967 C139 1.575 . S
C972 C307 1.534 . S
C983 C315 1.468 . S
C988 C175 1.545 . S
C999 C37 1.497 . S
C1004 C197 1.556 . S
C1015 C59 1.510 . S
C1020 C219 1.569 . S
C1031 C241 1.553 . S
C1036 C81 1.492 . S
C1047 C257 1.583 . S
C1052 C7 1.542 . S
C1063 C169 1.511 . S
C1068 C279 1.569 . S
C1079 C109 1.540 . S
C1084 C293 1.583 . S
C1095 C131 1.476 . S
C1100 C323 1.550 . S
C1111 C153 1.468 . S
C1116 C351 1.544 . S
