# Generated by pormake.
# Topology reo-e, (6)-cn, num edge types: 1
# Building blocks:
#     Node 0, Type 0, BuildingBlock: OJICUG_clean_sbu_0, # of connection points: 6
#     Node 1, Type 0, BuildingBlock: OJICUG_clean_sbu_0, # of connection points: 6
#     Node 2, Type 0, BuildingBlock: OJICUG_clean_sbu_0, # of connection points: 6
#     Node 3, Type 0, BuildingBlock: OJICUG_clean_sbu_0, # of connection points: 6
#     Node 4, Type 0, BuildingBlock: OJICUG_clean_sbu_0, # of connection points: 6
#     Node 5, Type 0, BuildingBlock: OJICUG_clean_sbu_0, # of connection points: 6
#     Node 6, Type 0, BuildingBlock: OJICUG_clean_sbu_0, # of connection points: 6
#     Node 7, Type 0, BuildingBlock: OJICUG_clean_sbu_0, # of connection points: 6
#     Node 8, Type 0, BuildingBlock: OJICUG_clean_sbu_0, # of connection points: 6
#     Node 9, Type 0, BuildingBlock: OJICUG_clean_sbu_0, # of connection points: 6
#     Node 10, Type 0, BuildingBlock: OJICUG_clean_sbu_0, # of connection points: 6
#     Node 11, Type 0, BuildingBlock: OJICUG_clean_sbu_0, # of connection points: 6
#     Edge 12, Type (0, 0), BuildingBlock: XUDNAN_clean_linker_2, # of connection points: 2
#     Edge 13, Type (0, 0), BuildingBlock: XUDNAN_clean_linker_2, # of connection points: 2
#     Edge 14, Type (0, 0), BuildingBlock: XUDNAN_clean_linker_2, # of connection points: 2
#     Edge 15, Type (0, 0), BuildingBlock: XUDNAN_clean_linker_2, # of connection points: 2
#     Edge 16, Type (0, 0), BuildingBlock: XUDNAN_clean_linker_2, # of connection points: 2
#     Edge 17, Type (0, 0), BuildingBlock: XUDNAN_clean_linker_2, # of connection points: 2
#     Edge 18, Type (0, 0), BuildingBlock: XUDNAN_clean_linker_2, # of connection points: 2
#     Edge 19, Type (0, 0), BuildingBlock: XUDNAN_clean_linker_2, # of connection points: 2
#     Edge 20, Type (0, 0), BuildingBlock: XUDNAN_clean_linker_2, # of connection points: 2
#     Edge 21, Type (0, 0), BuildingBlock: XUDNAN_clean_linker_2, # of connection points: 2
#     Edge 22, Type (0, 0), BuildingBlock: XUDNAN_clean_linker_2, # of connection points: 2
#     Edge 23, Type (0, 0), BuildingBlock: XUDNAN_clean_linker_2, # of connection points: 2
#     Edge 24, Type (0, 0), BuildingBlock: XUDNAN_clean_linker_2, # of connection points: 2
#     Edge 25, Type (0, 0), BuildingBlock: XUDNAN_clean_linker_2, # of connection points: 2
#     Edge 26, Type (0, 0), BuildingBlock: XUDNAN_clean_linker_2, # of connection points: 2
#     Edge 27, Type (0, 0), BuildingBlock: XUDNAN_clean_linker_2, # of connection points: 2
#     Edge 28, Type (0, 0), BuildingBlock: XUDNAN_clean_linker_2, # of connection points: 2
#     Edge 29, Type (0, 0), BuildingBlock: XUDNAN_clean_linker_2, # of connection points: 2
#     Edge 30, Type (0, 0), BuildingBlock: XUDNAN_clean_linker_2, # of connection points: 2
#     Edge 31, Type (0, 0), BuildingBlock: XUDNAN_clean_linker_2, # of connection points: 2
#     Edge 32, Type (0, 0), BuildingBlock: XUDNAN_clean_linker_2, # of connection points: 2
#     Edge 33, Type (0, 0), BuildingBlock: XUDNAN_clean_linker_2, # of connection points: 2
#     Edge 34, Type (0, 0), BuildingBlock: XUDNAN_clean_linker_2, # of connection points: 2
#     Edge 35, Type (0, 0), BuildingBlock: XUDNAN_clean_linker_2, # of connection points: 2
#     Edge 36, Type (0, 0), BuildingBlock: XUDNAN_clean_linker_2, # of connection points: 2
#     Edge 37, Type (0, 0), BuildingBlock: XUDNAN_clean_linker_2, # of connection points: 2
#     Edge 38, Type (0, 0), BuildingBlock: XUDNAN_clean_linker_2, # of connection points: 2
#     Edge 39, Type (0, 0), BuildingBlock: XUDNAN_clean_linker_2, # of connection points: 2
#     Edge 40, Type (0, 0), BuildingBlock: XUDNAN_clean_linker_2, # of connection points: 2
#     Edge 41, Type (0, 0), BuildingBlock: XUDNAN_clean_linker_2, # of connection points: 2
#     Edge 42, Type (0, 0), BuildingBlock: XUDNAN_clean_linker_2, # of connection points: 2
#     Edge 43, Type (0, 0), BuildingBlock: XUDNAN_clean_linker_2, # of connection points: 2
#     Edge 44, Type (0, 0), BuildingBlock: XUDNAN_clean_linker_2, # of connection points: 2
#     Edge 45, Type (0, 0), BuildingBlock: XUDNAN_clean_linker_2, # of connection points: 2
#     Edge 46, Type (0, 0), BuildingBlock: XUDNAN_clean_linker_2, # of connection points: 2
#     Edge 47, Type (0, 0), BuildingBlock: XUDNAN_clean_linker_2, # of connection points: 2
# Relax obj value: 0.131
# Max RMSD: 0.142
# Mean RMSD: 0.142
data_MOF--net-reo-e--node1-OJICUG_clean_sbu_0--edge1-XUDNAN_clean_linker_2
_symmetry_space_group_name_H-M    P1
_symmetry_Int_Tables_number       1
_symmetry_cell_setting            triclinic
loop_
_symmetry_equiv_pos_as_xyz
'x, y, z'
_cell_length_a     39.780495
_cell_length_b     39.718826
_cell_length_c     39.728207
_cell_angle_alpha  90.142453
_cell_angle_beta   90.066189
_cell_angle_gamma 90.132703
loop_
_atom_site_label
_atom_site_type_symbol
_atom_site_fract_x
_atom_site_fract_y
_atom_site_fract_z
_atom_type_partial_charge
Sc0 Sc 0.17907 0.18116 0.45235 0.0
Sc1 Sc 0.23799 0.23296 0.494 0.0
Sc2 Sc 0.19145 0.17238 0.53955 0.0
O3 O 0.20289 0.19559 0.49533 0.0
C4 C 0.11908 0.17905 0.50495 0.0
C5 C 0.18527 0.25999 0.43949 0.0
C6 C 0.19651 0.25003 0.56096 0.0
C7 C 0.25548 0.1898 0.42824 0.0
C8 C 0.19136 0.11053 0.48886 0.0
C9 C 0.26993 0.18363 0.549 0.0
O10 O 0.1298 0.18328 0.4751 0.0
O11 O 0.20935 0.26448 0.46014 0.0
O12 O 0.18613 0.21995 0.56494 0.0
O13 O 0.22597 0.17761 0.42535 0.0
O14 O 0.19579 0.12239 0.51831 0.0
O15 O 0.27202 0.20673 0.52703 0.0
O16 O 0.18416 0.12884 0.46375 0.0
O17 O 0.26377 0.21011 0.45175 0.0
O18 O 0.24264 0.16869 0.55603 0.0
O19 O 0.17144 0.23154 0.43496 0.0
O20 O 0.13853 0.17377 0.52972 0.0
O21 O 0.21531 0.25889 0.5365 0.0
Sc22 Sc 0.79979 0.18367 0.54441 0.0
Sc23 Sc 0.75552 0.24184 0.49401 0.0
Sc24 Sc 0.81189 0.1858 0.45615 0.0
O25 O 0.78915 0.20379 0.49826 0.0
C26 C 0.87207 0.18587 0.50936 0.0
C27 C 0.79601 0.2628 0.56007 0.0
C28 C 0.80967 0.26377 0.43892 0.0
C29 C 0.72127 0.19584 0.55041 0.0
C30 C 0.79755 0.11839 0.49736 0.0
C31 C 0.73597 0.19608 0.43128 0.0
O32 O 0.85292 0.18466 0.53493 0.0
O33 O 0.77913 0.26957 0.53379 0.0
O34 O 0.82251 0.23471 0.43593 0.0
O35 O 0.74789 0.18053 0.55901 0.0
O36 O 0.80353 0.13494 0.47079 0.0
O37 O 0.72881 0.21766 0.45377 0.0
O38 O 0.79574 0.13202 0.52635 0.0
O39 O 0.72072 0.21859 0.52804 0.0
O40 O 0.76493 0.18271 0.42868 0.0
O41 O 0.80465 0.23297 0.56807 0.0
O42 O 0.861 0.1866 0.47931 0.0
O43 O 0.78548 0.26993 0.45882 0.0
Sc44 Sc 0.80025 0.80741 0.54099 0.0
Sc45 Sc 0.7451 0.75543 0.49546 0.0
Sc46 Sc 0.80691 0.80169 0.45216 0.0
O47 O 0.78413 0.78823 0.4962 0.0
C48 C 0.8008 0.87133 0.49224 0.0
C49 C 0.72156 0.80517 0.55419 0.0
C50 C 0.72882 0.79996 0.43151 0.0
C51 C 0.78838 0.72942 0.55749 0.0
C52 C 0.86975 0.79755 0.50245 0.0
C53 C 0.79475 0.72415 0.43988 0.0
O54 O 0.80028 0.85839 0.52157 0.0
O55 O 0.71565 0.7826 0.53223 0.0
O56 O 0.75946 0.80693 0.42524 0.0
O57 O 0.80163 0.75787 0.56451 0.0
O58 O 0.85746 0.79796 0.47285 0.0
O59 O 0.7695 0.72309 0.45943 0.0
O60 O 0.85178 0.80053 0.52857 0.0
O61 O 0.76773 0.72514 0.53346 0.0
O62 O 0.81202 0.75061 0.43502 0.0
O63 O 0.75073 0.81689 0.55949 0.0
O64 O 0.80326 0.85392 0.46543 0.0
O65 O 0.71958 0.78315 0.45704 0.0
Sc66 Sc 0.17771 0.79224 0.45043 0.0
Sc67 Sc 0.23768 0.74384 0.49361 0.0
Sc68 Sc 0.18864 0.80227 0.53808 0.0
O69 O 0.20132 0.77949 0.49403 0.0
C70 C 0.18821 0.86351 0.48719 0.0
C71 C 0.25363 0.785 0.4266 0.0
C72 C 0.26846 0.79542 0.54605 0.0
C73 C 0.18458 0.71252 0.44275 0.0
C74 C 0.11694 0.79352 0.50178 0.0
C75 C 0.19659 0.72606 0.56023 0.0
O76 O 0.18074 0.84504 0.46206 0.0
O77 O 0.2613 0.76399 0.44938 0.0
O78 O 0.24009 0.80666 0.55558 0.0
O79 O 0.17236 0.74064 0.43366 0.0
O80 O 0.13574 0.80033 0.5268 0.0
O81 O 0.21832 0.7195 0.53776 0.0
O82 O 0.12836 0.78831 0.47237 0.0
O83 O 0.20753 0.7099 0.46476 0.0
O84 O 0.1824 0.7546 0.563 0.0
O85 O 0.22463 0.79812 0.42413 0.0
O86 O 0.19332 0.85182 0.51655 0.0
O87 O 0.27159 0.77396 0.5226 0.0
Sc88 Sc 0.45572 0.18087 0.18075 0.0
Sc89 Sc 0.49284 0.23499 0.24129 0.0
Sc90 Sc 0.54364 0.18918 0.18564 0.0
O91 O 0.49732 0.20156 0.20272 0.0
C92 C 0.50471 0.11831 0.18448 0.0
C93 C 0.43369 0.18418 0.2587 0.0
C94 C 0.55636 0.19138 0.26453 0.0
C95 C 0.43417 0.25721 0.19062 0.0
C96 C 0.50331 0.19312 0.11694 0.0
C97 C 0.55246 0.26785 0.19909 0.0
O98 O 0.47507 0.13027 0.18518 0.0
O99 O 0.45665 0.20465 0.26764 0.0
O100 O 0.56251 0.18039 0.23518 0.0
O101 O 0.43303 0.22957 0.17439 0.0
O102 O 0.52974 0.19673 0.13443 0.0
O103 O 0.52755 0.26986 0.21894 0.0
O104 O 0.47502 0.18551 0.12979 0.0
O105 O 0.45328 0.26193 0.21593 0.0
O106 O 0.56199 0.24028 0.186 0.0
O107 O 0.43019 0.17408 0.22844 0.0
O108 O 0.53083 0.13677 0.18324 0.0
O109 O 0.53258 0.2119 0.27081 0.0
Sc110 Sc 0.81163 0.53897 0.19425 0.0
Sc111 Sc 0.75428 0.49421 0.24431 0.0
Sc112 Sc 0.80191 0.45126 0.18339 0.0
O113 O 0.78925 0.49481 0.20728 0.0
C114 C 0.80208 0.50239 0.12263 0.0
C115 C 0.73518 0.56014 0.20257 0.0
C116 C 0.7228 0.44131 0.19298 0.0
C117 C 0.8052 0.54813 0.27395 0.0
C118 C 0.87301 0.48872 0.19265 0.0
C119 C 0.79742 0.42828 0.25987 0.0
O120 O 0.80951 0.52725 0.14144 0.0
O121 O 0.72873 0.53758 0.22433 0.0
O122 O 0.75065 0.43312 0.17961 0.0
O123 O 0.81641 0.55721 0.24542 0.0
O124 O 0.85455 0.46363 0.18499 0.0
O125 O 0.77644 0.45095 0.26812 0.0
O126 O 0.86131 0.51792 0.19854 0.0
O127 O 0.78393 0.52461 0.27742 0.0
O128 O 0.80927 0.42545 0.2303 0.0
O129 O 0.76372 0.56327 0.18849 0.0
O130 O 0.79644 0.47305 0.13405 0.0
O131 O 0.72035 0.46367 0.21567 0.0
Sc132 Sc 0.451 0.80784 0.18822 0.0
Sc133 Sc 0.49591 0.75228 0.23924 0.0
Sc134 Sc 0.53867 0.79998 0.17937 0.0
O135 O 0.49516 0.78684 0.20216 0.0
C136 C 0.48676 0.79754 0.11764 0.0
C137 C 0.43366 0.72897 0.19675 0.0
C138 C 0.55358 0.72394 0.19045 0.0
C139 C 0.43712 0.80122 0.26504 0.0
C140 C 0.50197 0.87047 0.186 0.0
C141 C 0.55789 0.79716 0.25816 0.0
O142 O 0.46094 0.79894 0.1363 0.0
O143 O 0.46075 0.72176 0.21218 0.0
O144 O 0.55341 0.74912 0.17099 0.0
O145 O 0.43642 0.81903 0.23867 0.0
O146 O 0.52796 0.85205 0.18522 0.0
O147 O 0.53107 0.78214 0.26714 0.0
O148 O 0.47219 0.85847 0.18566 0.0
O149 O 0.4553 0.77506 0.26752 0.0
O150 O 0.56577 0.80214 0.22738 0.0
O151 O 0.42508 0.75911 0.18949 0.0
O152 O 0.51662 0.79927 0.1292 0.0
O153 O 0.53653 0.72309 0.21749 0.0
Sc154 Sc 0.18894 0.44836 0.18213 0.0
Sc155 Sc 0.24152 0.4884 0.24089 0.0
Sc156 Sc 0.18342 0.53642 0.194 0.0
O157 O 0.20466 0.49111 0.20561 0.0
C158 C 0.18975 0.50125 0.12184 0.0
C159 C 0.26735 0.4342 0.18742 0.0
C160 C 0.26156 0.55485 0.20069 0.0
C161 C 0.19698 0.42436 0.25872 0.0
C162 C 0.11981 0.48725 0.19339 0.0
C163 C 0.19194 0.54307 0.27304 0.0
O164 O 0.19091 0.47122 0.13286 0.0
O165 O 0.27204 0.45415 0.21203 0.0
O166 O 0.23183 0.56171 0.19095 0.0
O167 O 0.1848 0.42122 0.2292 0.0
O168 O 0.13254 0.51658 0.19601 0.0
O169 O 0.21554 0.52165 0.27481 0.0
O170 O 0.13735 0.46119 0.18804 0.0
O171 O 0.21774 0.4474 0.26667 0.0
O172 O 0.17767 0.55101 0.24563 0.0
O173 O 0.23887 0.43009 0.17362 0.0
O174 O 0.18692 0.52676 0.141 0.0
O175 O 0.26874 0.52905 0.21811 0.0
Sc176 Sc 0.44379 0.80386 0.79887 0.0
Sc177 Sc 0.49732 0.75043 0.75327 0.0
Sc178 Sc 0.53198 0.81067 0.80875 0.0
O179 O 0.49106 0.78828 0.78705 0.0
C180 C 0.48389 0.87363 0.79662 0.0
C181 C 0.43731 0.79231 0.72001 0.0
C182 C 0.55556 0.8018 0.7325 0.0
C183 C 0.4334 0.72436 0.79421 0.0
C184 C 0.4811 0.80389 0.87033 0.0
C185 C 0.55524 0.73359 0.80605 0.0
O186 O 0.45726 0.85605 0.79461 0.0
O187 O 0.46164 0.77167 0.71858 0.0
O188 O 0.55699 0.81673 0.76087 0.0
O189 O 0.42419 0.75344 0.80385 0.0
O190 O 0.51077 0.80662 0.85864 0.0
O191 O 0.53426 0.72509 0.78343 0.0
O192 O 0.45506 0.80308 0.85174 0.0
O193 O 0.45952 0.71938 0.7765 0.0
O194 O 0.55729 0.76345 0.81751 0.0
O195 O 0.42773 0.80605 0.74724 0.0
O196 O 0.51258 0.86093 0.80242 0.0
O197 O 0.53571 0.77737 0.72659 0.0
Sc198 Sc 0.1846 0.44878 0.81327 0.0
Sc199 Sc 0.23605 0.48854 0.75347 0.0
Sc200 Sc 0.18043 0.53673 0.80292 0.0
O201 O 0.20029 0.49138 0.78982 0.0
C202 C 0.11609 0.48813 0.80167 0.0
C203 C 0.19259 0.42404 0.73631 0.0
C204 C 0.18778 0.54585 0.72412 0.0
C205 C 0.26234 0.43478 0.80758 0.0
C206 C 0.18587 0.50141 0.87438 0.0
C207 C 0.25904 0.553 0.79519 0.0
O208 O 0.13317 0.46143 0.80525 0.0
O209 O 0.2106 0.44878 0.72699 0.0
O210 O 0.17348 0.55174 0.75198 0.0
O211 O 0.23469 0.43224 0.82323 0.0
O212 O 0.18512 0.52707 0.8555 0.0
O213 O 0.26495 0.52729 0.77711 0.0
O214 O 0.18483 0.47149 0.86295 0.0
O215 O 0.26579 0.45259 0.78123 0.0
O216 O 0.22966 0.56091 0.80529 0.0
O217 O 0.18263 0.42034 0.76657 0.0
O218 O 0.12922 0.51744 0.80164 0.0
O219 O 0.21147 0.52461 0.72089 0.0
Sc220 Sc 0.4508 0.18737 0.80611 0.0
Sc221 Sc 0.49277 0.24456 0.75382 0.0
Sc222 Sc 0.5398 0.18549 0.79956 0.0
O223 O 0.49448 0.20571 0.78658 0.0
C224 C 0.50033 0.18823 0.86954 0.0
C225 C 0.43436 0.2654 0.80464 0.0
C226 C 0.55468 0.26502 0.79966 0.0
C227 C 0.43331 0.19785 0.72805 0.0
C228 C 0.49287 0.12025 0.79355 0.0
C229 C 0.55093 0.19905 0.72204 0.0
O230 O 0.47081 0.18774 0.85703 0.0
O231 O 0.45517 0.27169 0.78133 0.0
O232 O 0.56312 0.23486 0.80665 0.0
O233 O 0.42669 0.18497 0.7567 0.0
O234 O 0.52188 0.13389 0.79421 0.0
O235 O 0.52968 0.22278 0.72126 0.0
O236 O 0.4659 0.13666 0.79772 0.0
O237 O 0.45632 0.21953 0.72362 0.0
O238 O 0.55731 0.18228 0.74843 0.0
O239 O 0.43036 0.23617 0.81676 0.0
O240 O 0.52682 0.18708 0.85172 0.0
O241 O 0.52935 0.27221 0.78166 0.0
Sc242 Sc 0.80781 0.54178 0.80464 0.0
Sc243 Sc 0.74597 0.4985 0.75837 0.0
Sc244 Sc 0.79984 0.45319 0.81206 0.0
O245 O 0.78454 0.4978 0.7917 0.0
C246 C 0.86967 0.49174 0.79968 0.0
C247 C 0.79437 0.55445 0.72683 0.0
C248 C 0.78823 0.43408 0.73494 0.0
C249 C 0.73039 0.5632 0.80355 0.0
C250 C 0.80327 0.50281 0.87501 0.0
C251 C 0.72082 0.4413 0.80887 0.0
O252 O 0.85748 0.52121 0.79739 0.0
O253 O 0.77135 0.53235 0.72467 0.0
O254 O 0.80211 0.42868 0.76332 0.0
O255 O 0.76062 0.56698 0.81341 0.0
O256 O 0.79886 0.47341 0.86287 0.0
O257 O 0.71552 0.46449 0.78757 0.0
O258 O 0.80803 0.52856 0.85673 0.0
O259 O 0.72132 0.53971 0.78365 0.0
O260 O 0.74987 0.43405 0.81983 0.0
O261 O 0.80984 0.56098 0.75403 0.0
O262 O 0.85189 0.46592 0.806 0.0
O263 O 0.76754 0.4579 0.7298 0.0
H264 H 0.2201 0.31831 0.42651 0.0
H265 H 0.1299 0.26309 0.39861 0.0
H266 H 0.12038 0.30242 0.35174 0.0
H267 H 0.18864 0.40397 0.40179 0.0
H268 H 0.22949 0.41616 0.38639 0.0
H269 H 0.22604 0.38711 0.42102 0.0
H270 H 0.26234 0.34412 0.38811 0.0
H271 H 0.26542 0.37267 0.35319 0.0
H272 H 0.24915 0.33075 0.34673 0.0
H273 H 0.12548 0.34189 0.30291 0.0
H274 H 0.1422 0.38214 0.2586 0.0
H275 H 0.22852 0.41204 0.31874 0.0
C276 C 0.19767 0.31518 0.41134 0.0
C277 C 0.17575 0.28759 0.41635 0.0
C278 C 0.14709 0.28402 0.39535 0.0
C279 C 0.14143 0.30625 0.36862 0.0
C280 C 0.16443 0.33217 0.36338 0.0
C281 C 0.19166 0.33713 0.3845 0.0
C282 C 0.21407 0.36523 0.37179 0.0
C283 C 0.21457 0.39488 0.39673 0.0
C284 C 0.24984 0.3524 0.36452 0.0
C285 C 0.19583 0.37441 0.33965 0.0
C286 C 0.16714 0.35523 0.33533 0.0
C287 C 0.14753 0.35754 0.30631 0.0
C288 C 0.15737 0.38027 0.28117 0.0
C289 C 0.18656 0.40038 0.28524 0.0
C290 C 0.20581 0.3974 0.31503 0.0
H291 H 0.56983 0.22501 0.32361 0.0
H292 H 0.59755 0.13659 0.26558 0.0
H293 H 0.64384 0.1253 0.30514 0.0
H294 H 0.65036 0.25282 0.33861 0.0
H295 H 0.64334 0.26765 0.38093 0.0
H296 H 0.609 0.2661 0.35148 0.0
H297 H 0.57475 0.22873 0.39245 0.0
H298 H 0.60887 0.23051 0.4223 0.0
H299 H 0.59295 0.19034 0.40823 0.0
H300 H 0.69152 0.12783 0.34597 0.0
H301 H 0.73537 0.14232 0.38765 0.0
H302 H 0.67655 0.22874 0.41942 0.0
C303 C 0.58493 0.20266 0.31988 0.0
C304 C 0.57999 0.18165 0.29157 0.0
C305 C 0.60086 0.15308 0.28709 0.0
C306 C 0.6272 0.14638 0.30947 0.0
C307 C 0.63226 0.16832 0.33635 0.0
C308 C 0.61148 0.19565 0.34195 0.0
C309 C 0.62406 0.2168 0.37114 0.0
C310 C 0.63217 0.25297 0.35985 0.0
C311 C 0.59864 0.21657 0.40026 0.0
C312 C 0.65567 0.1977 0.38028 0.0
C313 C 0.65982 0.16967 0.36011 0.0
C314 C 0.68828 0.14938 0.36235 0.0
C315 C 0.71316 0.15794 0.38594 0.0
C316 C 0.70938 0.18656 0.40693 0.0
C317 C 0.68005 0.20643 0.4041 0.0
H318 H 0.81908 0.71819 0.37579 0.0
H319 H 0.7899 0.66014 0.46336 0.0
H320 H 0.80029 0.60748 0.432 0.0
H321 H 0.7765 0.66933 0.31877 0.0
H322 H 0.80671 0.67258 0.28515 0.0
H323 H 0.804 0.70538 0.31623 0.0
H324 H 0.86735 0.69824 0.32973 0.0
H325 H 0.87022 0.66522 0.29864 0.0
H326 H 0.88319 0.6574 0.34139 0.0
H327 H 0.80597 0.56212 0.39001 0.0
H328 H 0.80246 0.5269 0.33906 0.0
H329 H 0.8265 0.61379 0.27748 0.0
C330 C 0.81595 0.69433 0.38858 0.0
C331 C 0.80406 0.69304 0.422 0.0
C332 C 0.79909 0.66151 0.43773 0.0
C333 C 0.80522 0.63153 0.42024 0.0
C334 C 0.81618 0.63355 0.38701 0.0
C335 C 0.82141 0.66412 0.37123 0.0
C336 C 0.82857 0.65931 0.33407 0.0
C337 C 0.80238 0.67772 0.31229 0.0
C338 C 0.86448 0.67072 0.32546 0.0
C339 C 0.82502 0.62142 0.33117 0.0
C340 C 0.81874 0.60704 0.3622 0.0
C341 C 0.81147 0.57293 0.36565 0.0
C342 C 0.80942 0.55316 0.33654 0.0
C343 C 0.81434 0.5676 0.30434 0.0
C344 C 0.82336 0.60193 0.3018 0.0
H345 H 0.31189 0.75161 0.41183 0.0
H346 H 0.25491 0.84128 0.38685 0.0
H347 H 0.29955 0.85852 0.34727 0.0
H348 H 0.39564 0.78894 0.40624 0.0
H349 H 0.41369 0.7519 0.38728 0.0
H350 H 0.37863 0.74794 0.41569 0.0
H351 H 0.34479 0.71566 0.36998 0.0
H352 H 0.37984 0.7192 0.34165 0.0
H353 H 0.33909 0.73449 0.32913 0.0
H354 H 0.34894 0.86467 0.30883 0.0
H355 H 0.3967 0.85678 0.27025 0.0
H356 H 0.42093 0.7625 0.31984 0.0
C357 C 0.30894 0.77507 0.39833 0.0
C358 C 0.28 0.79519 0.40253 0.0
C359 C 0.27683 0.82542 0.38395 0.0
C360 C 0.30217 0.83556 0.36165 0.0
C361 C 0.3304 0.81515 0.35819 0.0
C362 C 0.33379 0.7854 0.37579 0.0
C363 C 0.36534 0.76676 0.36565 0.0
C364 C 0.38977 0.76372 0.3955 0.0
C365 C 0.35674 0.73199 0.3507 0.0
C366 C 0.3789 0.79041 0.33912 0.0
C367 C 0.35866 0.81841 0.33558 0.0
C368 C 0.36512 0.84297 0.31151 0.0
C369 C 0.39236 0.83824 0.28972 0.0
C370 C 0.41263 0.80898 0.29195 0.0
C371 C 0.40624 0.78532 0.31767 0.0
H372 H 0.23229 0.66927 0.57517 0.0
H373 H 0.13929 0.72152 0.59813 0.0
H374 H 0.12326 0.67567 0.63683 0.0
H375 H 0.19911 0.5828 0.58029 0.0
H376 H 0.2367 0.56709 0.6001 0.0
H377 H 0.23921 0.60199 0.57128 0.0
H378 H 0.26869 0.63822 0.61705 0.0
H379 H 0.26661 0.60338 0.64577 0.0
H380 H 0.24884 0.64342 0.65751 0.0
H381 H 0.11917 0.62678 0.67556 0.0
H382 H 0.12969 0.58127 0.71617 0.0
H383 H 0.22585 0.56113 0.6687 0.0
C384 C 0.20831 0.67085 0.58796 0.0
C385 C 0.18693 0.69886 0.58354 0.0
C386 C 0.15608 0.70032 0.60122 0.0
C387 C 0.14662 0.67426 0.62297 0.0
C388 C 0.16829 0.64701 0.62672 0.0
C389 C 0.19862 0.64525 0.60994 0.0
C390 C 0.21879 0.61489 0.62082 0.0
C391 C 0.22373 0.59023 0.59136 0.0
C392 C 0.25272 0.62563 0.63621 0.0
C393 C 0.19547 0.60034 0.64711 0.0
C394 C 0.16619 0.6189 0.6496 0.0
C395 C 0.1418 0.61183 0.67364 0.0
C396 C 0.14805 0.58595 0.6966 0.0
C397 C 0.17859 0.56765 0.69555 0.0
C398 C 0.20203 0.57424 0.66973 0.0
H399 H 0.27132 0.16703 0.6155 0.0
H400 H 0.33565 0.18618 0.52956 0.0
H401 H 0.38561 0.18233 0.56631 0.0
H402 H 0.31316 0.21913 0.66941 0.0
H403 H 0.30827 0.19395 0.70679 0.0
H404 H 0.27813 0.19051 0.67322 0.0
H405 H 0.28864 0.12627 0.66944 0.0
H406 H 0.31872 0.12944 0.7033 0.0
H407 H 0.33085 0.11088 0.6637 0.0
H408 H 0.42701 0.18467 0.6122 0.0
H409 H 0.45792 0.19527 0.66471 0.0
H410 H 0.3672 0.17675 0.72245 0.0
C411 C 0.29603 0.16909 0.60426 0.0
C412 C 0.29981 0.17633 0.56965 0.0
C413 C 0.33236 0.1803 0.55597 0.0
C414 C 0.36082 0.17798 0.57661 0.0
C415 C 0.35621 0.17186 0.61085 0.0
C416 C 0.32466 0.16744 0.62467 0.0
C417 C 0.32637 0.16589 0.66281 0.0
C418 C 0.30524 0.19405 0.67899 0.0
C419 C 0.3155 0.13104 0.67556 0.0
C420 C 0.36364 0.17163 0.66835 0.0
C421 C 0.38036 0.17422 0.63792 0.0
C422 C 0.41433 0.18218 0.63616 0.0
C423 C 0.43159 0.18839 0.66616 0.0
C424 C 0.41488 0.18691 0.69764 0.0
C425 C 0.38065 0.17753 0.69879 0.0
H426 H 0.79572 0.36519 0.7329 0.0
H427 H 0.79956 0.45513 0.67133 0.0
H428 H 0.81018 0.42034 0.62101 0.0
H429 H 0.85878 0.31473 0.68471 0.0
H430 H 0.83505 0.27629 0.68915 0.0
H431 H 0.83304 0.3082 0.72145 0.0
H432 H 0.76817 0.30974 0.71584 0.0
H433 H 0.76998 0.27787 0.68364 0.0
H434 H 0.74955 0.31742 0.67519 0.0
H435 H 0.81438 0.37699 0.57711 0.0
H436 H 0.80884 0.32693 0.54091 0.0
H437 H 0.80091 0.26355 0.62939 0.0
C438 C 0.7997 0.37743 0.70891 0.0
C439 C 0.79722 0.41279 0.70589 0.0
C440 C 0.80149 0.42806 0.67405 0.0
C441 C 0.80774 0.40854 0.64541 0.0
C442 C 0.80943 0.37373 0.64896 0.0
C443 C 0.8054 0.35816 0.6798 0.0
C444 C 0.80465 0.32012 0.67579 0.0
C445 C 0.83467 0.30388 0.69385 0.0
C446 C 0.77109 0.30544 0.68835 0.0
C447 C 0.80793 0.31689 0.63784 0.0
C448 C 0.81124 0.34821 0.62308 0.0
C449 C 0.81228 0.35228 0.58833 0.0
C450 C 0.80901 0.3237 0.56798 0.0
C451 C 0.80467 0.29139 0.58236 0.0
C452 C 0.80495 0.28786 0.61778 0.0
H453 H 0.66165 0.77325 0.56635 0.0
H454 H 0.7207 0.86086 0.59485 0.0
H455 H 0.68027 0.87355 0.64006 0.0
H456 H 0.57694 0.80937 0.58802 0.0
H457 H 0.56243 0.76938 0.60376 0.0
H458 H 0.59248 0.7708 0.56985 0.0
H459 H 0.63282 0.7331 0.60441 0.0
H460 H 0.60321 0.7319 0.6385 0.0
H461 H 0.64555 0.74638 0.64596 0.0
H462 H 0.63878 0.87174 0.68728 0.0
H463 H 0.59785 0.85672 0.73149 0.0
H464 H 0.56599 0.77041 0.67201 0.0
C465 C 0.66545 0.79577 0.58131 0.0
C466 C 0.69428 0.81609 0.57698 0.0
C467 C 0.69878 0.8449 0.59768 0.0
C468 C 0.67589 0.8524 0.62337 0.0
C469 C 0.64849 0.83103 0.6279 0.0
C470 C 0.64293 0.80353 0.60718 0.0
C471 C 0.61355 0.78265 0.61943 0.0
C472 C 0.58463 0.78309 0.59374 0.0
C473 C 0.62446 0.74638 0.62756 0.0
C474 C 0.6044 0.80192 0.651 0.0
C475 C 0.62451 0.82999 0.65524 0.0
C476 C 0.62241 0.85019 0.68392 0.0
C477 C 0.59922 0.84134 0.70899 0.0
C478 C 0.57858 0.81245 0.70525 0.0
C479 C 0.58104 0.79289 0.67557 0.0
H480 H 0.42332 0.212 0.32115 0.0
H481 H 0.3845 0.13578 0.25275 0.0
H482 H 0.33697 0.12564 0.29135 0.0
H483 H 0.39688 0.17086 0.40059 0.0
H484 H 0.38617 0.21053 0.41987 0.0
H485 H 0.41937 0.20857 0.38908 0.0
H486 H 0.38931 0.25434 0.35383 0.0
H487 H 0.35591 0.25624 0.38425 0.0
H488 H 0.3464 0.24763 0.3407 0.0
H489 H 0.29074 0.12797 0.33435 0.0
H490 H 0.24989 0.14165 0.37889 0.0
H491 H 0.31866 0.21686 0.41898 0.0
C492 C 0.40538 0.1925 0.31462 0.0
C493 C 0.40787 0.17454 0.2839 0.0
C494 C 0.3833 0.14979 0.27613 0.0
C495 C 0.3562 0.14382 0.29794 0.0
C496 C 0.35402 0.16271 0.32749 0.0
C497 C 0.3781 0.18638 0.33597 0.0
C498 C 0.36863 0.20508 0.36788 0.0
C499 C 0.39429 0.19835 0.39602 0.0
C500 C 0.36483 0.24306 0.36125 0.0
C501 C 0.33505 0.18882 0.37558 0.0
C502 C 0.32723 0.16423 0.35216 0.0
C503 C 0.29678 0.14689 0.35306 0.0
C504 C 0.27366 0.15498 0.37844 0.0
C505 C 0.28097 0.18034 0.4026 0.0
C506 C 0.31233 0.19714 0.40118 0.0
H507 H 0.77153 0.41977 0.32316 0.0
H508 H 0.84864 0.38226 0.25551 0.0
H509 H 0.86602 0.34108 0.29848 0.0
H510 H 0.81904 0.40795 0.40255 0.0
H511 H 0.78194 0.39491 0.42508 0.0
H512 H 0.77849 0.42439 0.39082 0.0
H513 H 0.73519 0.38531 0.36126 0.0
H514 H 0.73833 0.35597 0.39546 0.0
H515 H 0.74618 0.34207 0.35297 0.0
H516 H 0.87124 0.3005 0.34622 0.0
H517 H 0.86133 0.26131 0.39319 0.0
H518 H 0.78093 0.32562 0.42956 0.0
C519 C 0.79247 0.40333 0.31753 0.0
C520 C 0.80873 0.40432 0.28595 0.0
C521 C 0.83571 0.38196 0.27948 0.0
C522 C 0.84598 0.35867 0.30384 0.0
C523 C 0.82917 0.35818 0.33458 0.0
C524 C 0.80296 0.37991 0.34146 0.0
C525 C 0.78696 0.37222 0.37509 0.0
C526 C 0.79192 0.40162 0.39985 0.0
C527 C 0.74947 0.36335 0.37092 0.0
C528 C 0.8074 0.34191 0.38547 0.0
C529 C 0.83206 0.33461 0.3621 0.0
C530 C 0.85235 0.30622 0.36495 0.0
C531 C 0.8465 0.28409 0.39174 0.0
C532 C 0.82033 0.29033 0.41513 0.0
C533 C 0.8014 0.32027 0.41244 0.0
H534 H 0.62706 0.79498 0.25939 0.0
H535 H 0.53996 0.82331 0.31848 0.0
H536 H 0.57658 0.83549 0.36709 0.0
H537 H 0.66633 0.75063 0.32262 0.0
H538 H 0.70883 0.76259 0.31232 0.0
H539 H 0.67706 0.76215 0.28009 0.0
H540 H 0.69001 0.82455 0.26632 0.0
H541 H 0.72199 0.82516 0.29853 0.0
H542 H 0.68851 0.85566 0.29941 0.0
H543 H 0.62 0.83636 0.41107 0.0
H544 H 0.66829 0.82569 0.44848 0.0
H545 H 0.72872 0.79705 0.36234 0.0
C546 C 0.61598 0.80486 0.28225 0.0
C547 C 0.58077 0.80862 0.28517 0.0
C548 C 0.56691 0.82044 0.31576 0.0
C549 C 0.58752 0.82759 0.34343 0.0
C550 C 0.62201 0.82271 0.34019 0.0
C551 C 0.63629 0.81173 0.31041 0.0
C552 C 0.67357 0.80488 0.31503 0.0
C553 C 0.68191 0.76787 0.30705 0.0
C554 C 0.69477 0.82901 0.29355 0.0
C555 C 0.67761 0.81251 0.3523 0.0
C556 C 0.64757 0.82323 0.36608 0.0
C557 C 0.64386 0.82874 0.40051 0.0
C558 C 0.67136 0.82252 0.42156 0.0
C559 C 0.70223 0.81108 0.40817 0.0
C560 C 0.70564 0.80675 0.37301 0.0
H561 H 0.15898 0.70648 0.3791 0.0
H562 H 0.18847 0.64841 0.46659 0.0
H563 H 0.18283 0.59609 0.43377 0.0
H564 H 0.10057 0.63945 0.34048 0.0
H565 H 0.11436 0.65047 0.29872 0.0
H566 H 0.11194 0.68235 0.33102 0.0
H567 H 0.17438 0.69766 0.32046 0.0
H568 H 0.17718 0.66569 0.2886 0.0
H569 H 0.20593 0.66529 0.32371 0.0
H570 H 0.18716 0.55271 0.38975 0.0
H571 H 0.19787 0.52055 0.33767 0.0
H572 H 0.16459 0.60576 0.27832 0.0
C573 C 0.16274 0.68263 0.39169 0.0
C574 C 0.17408 0.68143 0.42532 0.0
C575 C 0.17979 0.64986 0.44077 0.0
C576 C 0.17644 0.61997 0.42241 0.0
C577 C 0.16703 0.62206 0.38873 0.0
C578 C 0.15969 0.65252 0.37358 0.0
C579 C 0.15483 0.64832 0.33599 0.0
C580 C 0.11824 0.65557 0.32597 0.0
C581 C 0.17957 0.67054 0.31605 0.0
C582 C 0.16293 0.6113 0.33215 0.0
C583 C 0.1692 0.59647 0.36295 0.0
C584 C 0.18132 0.56368 0.36554 0.0
C585 C 0.18762 0.54572 0.33585 0.0
C586 C 0.18178 0.56064 0.30408 0.0
C587 C 0.16848 0.5935 0.30232 0.0
H588 H 0.27294 0.81807 0.61112 0.0
H589 H 0.33323 0.79214 0.52389 0.0
H590 H 0.38464 0.7968 0.55818 0.0
H591 H 0.33693 0.8763 0.65225 0.0
H592 H 0.32572 0.86138 0.69357 0.0
H593 H 0.29439 0.86316 0.66078 0.0
H594 H 0.28134 0.79989 0.66991 0.0
H595 H 0.31281 0.79776 0.70229 0.0
H596 H 0.3149 0.76961 0.66669 0.0
H597 H 0.42765 0.7936 0.60306 0.0
H598 H 0.46004 0.78586 0.65544 0.0
H599 H 0.37249 0.81453 0.7139 0.0
C600 C 0.29706 0.81474 0.59895 0.0
C601 C 0.29912 0.80489 0.56484 0.0
C602 C 0.33108 0.79974 0.55001 0.0
C603 C 0.36045 0.80247 0.56924 0.0
C604 C 0.35748 0.81064 0.60319 0.0
C605 C 0.32666 0.81719 0.61788 0.0
C606 C 0.33007 0.8216 0.65563 0.0
C607 C 0.32126 0.85777 0.66617 0.0
C608 C 0.30851 0.79567 0.67472 0.0
C609 C 0.36725 0.81478 0.65998 0.0
C610 C 0.38267 0.80901 0.62936 0.0
C611 C 0.4161 0.79888 0.62715 0.0
C612 C 0.43421 0.79429 0.65703 0.0
C613 C 0.41882 0.79982 0.68869 0.0
C614 C 0.3851 0.81079 0.69004 0.0
H615 H 0.22388 0.31305 0.57175 0.0
H616 H 0.14864 0.24357 0.60995 0.0
H617 H 0.13649 0.2826 0.65657 0.0
H618 H 0.25652 0.33661 0.6503 0.0
H619 H 0.26361 0.38012 0.6396 0.0
H620 H 0.26419 0.3484 0.60719 0.0
H621 H 0.21824 0.38071 0.57422 0.0
H622 H 0.2176 0.41264 0.60653 0.0
H623 H 0.1793 0.39125 0.59485 0.0
H624 H 0.13582 0.32657 0.70182 0.0
H625 H 0.1462 0.37306 0.74191 0.0
H626 H 0.22133 0.41432 0.67421 0.0
C627 C 0.20438 0.30632 0.58951 0.0
C628 C 0.18722 0.27518 0.58703 0.0
C629 C 0.16223 0.2672 0.61122 0.0
C630 C 0.15503 0.28926 0.63781 0.0
C631 C 0.17287 0.31937 0.6399 0.0
C632 C 0.19689 0.32806 0.61632 0.0
C633 C 0.21377 0.36108 0.6255 0.0
C634 C 0.25177 0.35624 0.63098 0.0
C635 C 0.2068 0.38801 0.59868 0.0
C636 C 0.19597 0.36918 0.65823 0.0
C637 C 0.17233 0.34491 0.66598 0.0
C638 C 0.15397 0.34598 0.69583 0.0
C639 C 0.16011 0.37245 0.7185 0.0
C640 C 0.18443 0.39752 0.71121 0.0
C641 C 0.20222 0.3959 0.6804 0.0
H642 H 0.61399 0.17225 0.71548 0.0
H643 H 0.52919 0.2098 0.65805 0.0
H644 H 0.5617 0.20369 0.60569 0.0
H645 H 0.67394 0.21662 0.67346 0.0
H646 H 0.7061 0.18474 0.67413 0.0
H647 H 0.67432 0.18528 0.70621 0.0
H648 H 0.65816 0.12367 0.69161 0.0
H649 H 0.69009 0.12291 0.65943 0.0
H650 H 0.64714 0.1128 0.64891 0.0
H651 H 0.60512 0.20257 0.56163 0.0
H652 H 0.65724 0.20688 0.52846 0.0
H653 H 0.71446 0.16995 0.61377 0.0
C654 C 0.60198 0.1781 0.69174 0.0
C655 C 0.56913 0.19137 0.69071 0.0
C656 C 0.55442 0.19967 0.65934 0.0
C657 C 0.57256 0.19602 0.62944 0.0
C658 C 0.6053 0.18391 0.63135 0.0
C659 C 0.61989 0.17489 0.66163 0.0
C660 C 0.65676 0.16659 0.65718 0.0
C661 C 0.67907 0.18969 0.67902 0.0
C662 C 0.66342 0.12927 0.66473 0.0
C663 C 0.66092 0.17402 0.62006 0.0
C664 C 0.63076 0.18331 0.60553 0.0
C665 C 0.62878 0.19462 0.57245 0.0
C666 C 0.65853 0.19718 0.55388 0.0
C667 C 0.6898 0.18857 0.56853 0.0
C668 C 0.69081 0.176 0.60173 0.0
H669 H 0.8108 0.62132 0.72427 0.0
H670 H 0.79258 0.53357 0.6616 0.0
H671 H 0.79752 0.56882 0.61077 0.0
H672 H 0.76033 0.67486 0.67895 0.0
H673 H 0.78606 0.712 0.68361 0.0
H674 H 0.78777 0.67937 0.71485 0.0
H675 H 0.85216 0.67439 0.70658 0.0
H676 H 0.8507 0.70724 0.67537 0.0
H677 H 0.86882 0.66697 0.66504 0.0
H678 H 0.79693 0.61337 0.56794 0.0
H679 H 0.78927 0.66504 0.53495 0.0
H680 H 0.80636 0.72544 0.62461 0.0
C681 C 0.80903 0.60944 0.69976 0.0
C682 C 0.80179 0.5747 0.69669 0.0
C683 C 0.79836 0.56011 0.66436 0.0
C684 C 0.80129 0.57989 0.63541 0.0
C685 C 0.8075 0.61423 0.63925 0.0
C686 C 0.81137 0.62898 0.67055 0.0
C687 C 0.81376 0.66703 0.66773 0.0
C688 C 0.78528 0.68431 0.68744 0.0
C689 C 0.84843 0.67965 0.67937 0.0
C690 C 0.80937 0.67138 0.63007 0.0
C691 C 0.80644 0.64048 0.61419 0.0
C692 C 0.79969 0.6377 0.57996 0.0
C693 C 0.79517 0.66724 0.5615 0.0
C694 C 0.79723 0.69924 0.57725 0.0
C695 C 0.80521 0.70134 0.61186 0.0
H696 H 0.42217 0.31636 0.22406 0.0
H697 H 0.39475 0.26053 0.13392 0.0
H698 H 0.35439 0.30509 0.11887 0.0
H699 H 0.34196 0.34037 0.24538 0.0
H700 H 0.35326 0.3815 0.26105 0.0
H701 H 0.38351 0.34799 0.26195 0.0
H702 H 0.42527 0.38469 0.22782 0.0
H703 H 0.39499 0.41838 0.22675 0.0
H704 H 0.41229 0.40219 0.18806 0.0
H705 H 0.31252 0.35179 0.11719 0.0
H706 H 0.27094 0.3959 0.13006 0.0
H707 H 0.32594 0.4213 0.22117 0.0
C708 C 0.40825 0.31377 0.20076 0.0
C709 C 0.41172 0.28493 0.18015 0.0
C710 C 0.39256 0.28236 0.15015 0.0
C711 C 0.36972 0.30766 0.14125 0.0
C712 C 0.36652 0.33544 0.16247 0.0
C713 C 0.38533 0.33868 0.19156 0.0
C714 C 0.37486 0.36926 0.21173 0.0
C715 C 0.36266 0.35916 0.2471 0.0
C716 C 0.40357 0.39516 0.21369 0.0
C717 C 0.34628 0.38196 0.19013 0.0
C718 C 0.34225 0.36248 0.16152 0.0
C719 C 0.31575 0.36759 0.13919 0.0
C720 C 0.29221 0.39266 0.14679 0.0
C721 C 0.29523 0.41214 0.17658 0.0
C722 C 0.32322 0.40728 0.19791 0.0
H723 H 0.26156 0.62193 0.80375 0.0
H724 H 0.32274 0.53164 0.80577 0.0
H725 H 0.37363 0.56622 0.81299 0.0
H726 H 0.31556 0.6687 0.75452 0.0
H727 H 0.30907 0.70856 0.77528 0.0
H728 H 0.27658 0.67702 0.77607 0.0
H729 H 0.2759 0.67905 0.84126 0.0
H730 H 0.30833 0.71085 0.84067 0.0
H731 H 0.31443 0.67264 0.86428 0.0
H732 H 0.41809 0.60943 0.81139 0.0
H733 H 0.45379 0.65956 0.80295 0.0
H734 H 0.36501 0.72284 0.80293 0.0
C735 C 0.28558 0.60953 0.80682 0.0
C736 C 0.28824 0.57415 0.80435 0.0
C737 C 0.32018 0.55874 0.80754 0.0
C738 C 0.34923 0.57814 0.81182 0.0
C739 C 0.34601 0.61298 0.813 0.0
C740 C 0.31505 0.62865 0.81089 0.0
C741 C 0.31916 0.66662 0.8096 0.0
C742 C 0.30422 0.68105 0.77693 0.0
C743 C 0.30353 0.68327 0.84082 0.0
C744 C 0.35719 0.66961 0.81008 0.0
C745 C 0.3721 0.63832 0.8124 0.0
C746 C 0.4068 0.63417 0.81028 0.0
C747 C 0.42686 0.66273 0.80531 0.0
C748 C 0.41218 0.69503 0.80266 0.0
C749 C 0.37694 0.69851 0.80568 0.0
H750 H 0.32315 0.42618 0.77652 0.0
H751 H 0.26556 0.39535 0.86406 0.0
H752 H 0.30923 0.3539 0.87813 0.0
H753 H 0.34484 0.34847 0.75095 0.0
H754 H 0.38674 0.35848 0.73686 0.0
H755 H 0.35509 0.39061 0.73758 0.0
H756 H 0.393 0.42798 0.77551 0.0
H757 H 0.42506 0.39597 0.77468 0.0
H758 H 0.40927 0.41124 0.81437 0.0
H759 H 0.35286 0.30926 0.87674 0.0
H760 H 0.39437 0.26599 0.86087 0.0
H761 H 0.424 0.32638 0.77485 0.0
C762 C 0.3202 0.41152 0.79927 0.0
C763 C 0.29088 0.414 0.81909 0.0
C764 C 0.28778 0.39392 0.84839 0.0
C765 C 0.31255 0.37039 0.85674 0.0
C766 C 0.34047 0.36758 0.83583 0.0
C767 C 0.34467 0.38793 0.80795 0.0
C768 C 0.37487 0.37732 0.78744 0.0
C769 C 0.36475 0.36817 0.75109 0.0
C770 C 0.40217 0.40476 0.78805 0.0
C771 C 0.38576 0.34664 0.80704 0.0
C772 C 0.36602 0.3418 0.83522 0.0
C773 C 0.36905 0.31319 0.85523 0.0
C774 C 0.39253 0.28866 0.84588 0.0
C775 C 0.41251 0.29287 0.81669 0.0
C776 C 0.40954 0.32267 0.79762 0.0
H777 H 0.72112 0.37329 0.81756 0.0
H778 H 0.65606 0.46068 0.81976 0.0
H779 H 0.6068 0.4236 0.82791 0.0
H780 H 0.67 0.32595 0.7673 0.0
H781 H 0.67846 0.28579 0.78653 0.0
H782 H 0.7093 0.31885 0.78876 0.0
H783 H 0.7099 0.31463 0.85382 0.0
H784 H 0.67909 0.28131 0.85181 0.0
H785 H 0.67106 0.31832 0.87685 0.0
H786 H 0.56471 0.37812 0.82733 0.0
H787 H 0.53157 0.32718 0.81523 0.0
H788 H 0.62307 0.26806 0.81109 0.0
C789 C 0.69661 0.38458 0.82112 0.0
C790 C 0.69228 0.4198 0.81873 0.0
C791 C 0.65979 0.43376 0.82195 0.0
C792 C 0.63177 0.41291 0.82674 0.0
C793 C 0.6367 0.37818 0.82799 0.0
C794 C 0.66829 0.36403 0.82524 0.0
C795 C 0.66614 0.32596 0.82242 0.0
C796 C 0.68189 0.31343 0.78929 0.0
C797 C 0.68252 0.30906 0.85306 0.0
C798 C 0.62835 0.32104 0.82257 0.0
C799 C 0.61198 0.35149 0.82661 0.0
C800 C 0.57718 0.35407 0.82472 0.0
C801 C 0.55861 0.325 0.81766 0.0
C802 C 0.57479 0.29369 0.81231 0.0
C803 C 0.61006 0.29153 0.81575 0.0
H804 H 0.66581 0.57022 0.78033 0.0
H805 H 0.73771 0.6136 0.85054 0.0
H806 H 0.69718 0.65847 0.86435 0.0
H807 H 0.6385 0.64533 0.7469 0.0
H808 H 0.59517 0.63286 0.74204 0.0
H809 H 0.62769 0.60154 0.74142 0.0
H810 H 0.59825 0.56964 0.79005 0.0
H811 H 0.56551 0.60094 0.79081 0.0
H812 H 0.58872 0.5916 0.82863 0.0
H813 H 0.65146 0.70204 0.86576 0.0
H814 H 0.60499 0.74125 0.85365 0.0
H815 H 0.56324 0.66913 0.78254 0.0
C816 C 0.67283 0.58866 0.7992 0.0
C817 C 0.70498 0.58825 0.81439 0.0
C818 C 0.71325 0.61329 0.83854 0.0
C819 C 0.69032 0.63882 0.8467 0.0
C820 C 0.65914 0.63887 0.83068 0.0
C821 C 0.65033 0.61433 0.80755 0.0
C822 C 0.61654 0.62166 0.79167 0.0
C823 C 0.61969 0.6256 0.75325 0.0
C824 C 0.59073 0.59433 0.80085 0.0
C825 C 0.60827 0.65479 0.80857 0.0
C826 C 0.63286 0.66406 0.83138 0.0
C827 C 0.63179 0.69481 0.84833 0.0
C828 C 0.60528 0.71696 0.84122 0.0
C829 C 0.58033 0.70835 0.81716 0.0
C830 C 0.58161 0.67645 0.80133 0.0
H831 H 0.57169 0.67126 0.23131 0.0
H832 H 0.59018 0.71491 0.13286 0.0
H833 H 0.63623 0.67469 0.12368 0.0
H834 H 0.65471 0.66114 0.25375 0.0
H835 H 0.64953 0.6215 0.27514 0.0
H836 H 0.61486 0.65036 0.27248 0.0
H837 H 0.57785 0.6042 0.24474 0.0
H838 H 0.61229 0.57495 0.24775 0.0
H839 H 0.59274 0.5828 0.20758 0.0
H840 H 0.68481 0.63555 0.12819 0.0
H841 H 0.73001 0.59626 0.1443 0.0
H842 H 0.6793 0.57696 0.23907 0.0
C843 C 0.58477 0.67177 0.20743 0.0
C844 C 0.57729 0.69632 0.18286 0.0
C845 C 0.59542 0.69641 0.15214 0.0
C846 C 0.62163 0.67363 0.14662 0.0
C847 C 0.62919 0.65066 0.17188 0.0
C848 C 0.611 0.64916 0.20146 0.0
C849 C 0.62568 0.62349 0.22541 0.0
C850 C 0.63686 0.64013 0.25864 0.0
C851 C 0.60065 0.59464 0.23173 0.0
C852 C 0.65553 0.6116 0.20506 0.0
C853 C 0.65703 0.62751 0.17422 0.0
C854 C 0.68362 0.62244 0.152 0.0
C855 C 0.70928 0.6003 0.16149 0.0
C856 C 0.70805 0.58345 0.19284 0.0
C857 C 0.68067 0.5891 0.21473 0.0
H858 H 0.36433 0.72744 0.19608 0.0
H859 H 0.45277 0.6661 0.17871 0.0
H860 H 0.41686 0.61613 0.1709 0.0
H861 H 0.32242 0.66904 0.24537 0.0
H862 H 0.28071 0.67768 0.22992 0.0
H863 H 0.31244 0.70999 0.22869 0.0
H864 H 0.30326 0.71687 0.16452 0.0
H865 H 0.27128 0.68464 0.16557 0.0
H866 H 0.3065 0.68061 0.13734 0.0
H867 H 0.37357 0.57207 0.17275 0.0
H868 H 0.32433 0.5358 0.18302 0.0
H869 H 0.2624 0.62423 0.19858 0.0
C870 C 0.37592 0.70366 0.18956 0.0
C871 C 0.41129 0.70061 0.18771 0.0
C872 C 0.42573 0.66894 0.18018 0.0
C873 C 0.40554 0.64045 0.17555 0.0
C874 C 0.37088 0.64397 0.17853 0.0
C875 C 0.35602 0.67471 0.18517 0.0
C876 C 0.31839 0.67066 0.1903 0.0
C877 C 0.30789 0.68254 0.22567 0.0
C878 C 0.29869 0.6893 0.16279 0.0
C879 C 0.31473 0.63277 0.18655 0.0
C880 C 0.34537 0.61805 0.17943 0.0
C881 C 0.34928 0.58328 0.17765 0.0
C882 C 0.32124 0.56289 0.18367 0.0
C883 C 0.28961 0.57727 0.19122 0.0
C884 C 0.28617 0.61268 0.19206 0.0
H885 H 0.61762 0.27325 0.17719 0.0
H886 H 0.53047 0.33269 0.20499 0.0
H887 H 0.56335 0.38471 0.19696 0.0
H888 H 0.67524 0.32041 0.22161 0.0
H889 H 0.70899 0.31684 0.19157 0.0
H890 H 0.67728 0.28462 0.19368 0.0
H891 H 0.66444 0.29273 0.13023 0.0
H892 H 0.69616 0.32515 0.12797 0.0
H893 H 0.65372 0.33397 0.11476 0.0
H894 H 0.60663 0.42931 0.19332 0.0
H895 H 0.65825 0.46354 0.19693 0.0
H896 H 0.71796 0.37579 0.17163 0.0
C897 C 0.60523 0.29725 0.1807 0.0
C898 C 0.57145 0.29894 0.19153 0.0
C899 C 0.55634 0.33079 0.19671 0.0
C900 C 0.57472 0.36049 0.19194 0.0
C901 C 0.60816 0.35795 0.18191 0.0
C902 C 0.62333 0.32717 0.17633 0.0
C903 C 0.66058 0.33131 0.16948 0.0
C904 C 0.68175 0.31218 0.19565 0.0
C905 C 0.66923 0.32012 0.13346 0.0
C906 C 0.66422 0.36908 0.1735 0.0
C907 C 0.63351 0.38399 0.17999 0.0
C908 C 0.63074 0.41808 0.18765 0.0
C909 C 0.6602 0.43728 0.18973 0.0
C910 C 0.69203 0.42233 0.18432 0.0
C911 C 0.69391 0.38803 0.17508 0.0
H912 H 0.1911 0.91441 0.53454 0.0
H913 H 0.19268 0.89553 0.42671 0.0
H914 H 0.19685 0.95633 0.41628 0.0
H915 H 0.13997 0.98745 0.53104 0.0
H916 H 0.1617 0.00955 0.56427 0.0
H917 H 0.16099 0.96423 0.5638 0.0
H918 H 0.2261 0.96318 0.56547 0.0
H919 H 0.22702 0.00855 0.56594 0.0
H920 H 0.24959 0.98571 0.53391 0.0
H921 H 0.19843 0.01823 0.4168 0.0
H922 H 0.19628 0.07894 0.42813 0.0
H923 H 0.19337 0.05916 0.53569 0.0
C924 C 0.19264 0.92306 0.50876 0.0
C925 C 0.19151 0.90013 0.48146 0.0
C926 C 0.1933 0.91252 0.44807 0.0
C927 C 0.19585 0.94703 0.44184 0.0
C928 C 0.19661 0.96889 0.46921 0.0
C929 C 0.19506 0.95756 0.50201 0.0
C930 C 0.19494 0.98677 0.52668 0.0
C931 C 0.16246 0.987 0.54768 0.0
C932 C 0.22628 0.986 0.54934 0.0
C933 C 0.19613 0.01621 0.5025 0.0
C934 C 0.19736 0.00515 0.46952 0.0
C935 C 0.19763 0.02729 0.4425 0.0
C936 C 0.19626 0.06177 0.44927 0.0
C937 C 0.19454 0.07391 0.48284 0.0
C938 C 0.19488 0.05072 0.5098 0.0
H939 H 0.06688 0.18348 0.45921 0.0
H940 H 0.08842 0.17841 0.56641 0.0
H941 H 0.028 0.18081 0.57868 0.0
H942 H -0.00325 0.24117 0.46564 0.0
H943 H 0.9728 0.2209 0.43277 0.0
H944 H 0.01806 0.21944 0.43199 0.0
H945 H 0.01592 0.15427 0.42939 0.0
H946 H 0.97068 0.15552 0.43015 0.0
H947 H 0.99315 0.13145 0.46127 0.0
H948 H 0.96589 0.18307 0.57991 0.0
H949 H 0.90492 0.18425 0.56989 0.0
H950 H 0.9227 0.18757 0.46195 0.0
C951 C 0.05892 0.18299 0.48526 0.0
C952 C 0.08254 0.18071 0.51179 0.0
C953 C 0.07095 0.18002 0.54555 0.0
C954 C 0.03663 0.18146 0.55286 0.0
C955 C 0.0141 0.18358 0.5262 0.0
C956 C 0.02462 0.18431 0.49308 0.0
C957 C 0.9949 0.1861 0.46925 0.0
C958 C -0.00432 0.21885 0.44871 0.0
C959 C 0.99359 0.15498 0.44616 0.0
C960 C 0.96613 0.18606 0.49423 0.0
C961 C 0.97788 0.18473 0.52692 0.0
C962 C 0.9563 0.18416 0.55443 0.0
C963 C 0.92166 0.18484 0.54842 0.0
C964 C 0.90886 0.18598 0.51511 0.0
C965 C 0.93157 0.18673 0.48772 0.0
H966 H 0.80715 0.06704 0.54371 0.0
H967 H 0.77536 0.08708 0.44101 0.0
H968 H 0.77049 0.02648 0.43027 0.0
H969 H 0.85774 -0.00327 0.52461 0.0
H970 H 0.84671 0.97251 0.5613 0.0
H971 H 0.84499 0.01779 0.56276 0.0
H972 H 0.78263 0.01509 0.58127 0.0
H973 H 0.78423 0.96974 0.58013 0.0
H974 H 0.75283 0.99181 0.55607 0.0
H975 H 0.77348 0.96522 0.42817 0.0
H976 H 0.78131 0.9045 0.43579 0.0
H977 H 0.81037 0.92148 0.54 0.0
C978 C 0.79857 0.05858 0.51923 0.0
C979 C 0.79182 0.08183 0.49316 0.0
C980 C 0.78102 0.0698 0.46129 0.0
C981 C 0.77801 0.03539 0.45492 0.0
C982 C 0.78572 0.01314 0.48068 0.0
C983 C 0.79548 0.02399 0.5123 0.0
C984 C 0.80362 0.9942 0.53479 0.0
C985 C 0.84045 0.99539 0.54655 0.0
C986 C 0.77937 0.99262 0.56484 0.0
C987 C 0.79756 0.9652 0.5105 0.0
C988 C 0.78714 0.97694 0.47952 0.0
C989 C 0.78129 0.95557 0.45239 0.0
C990 C 0.78606 0.92108 0.45696 0.0
C991 C 0.79651 0.90813 0.48849 0.0
C992 C 0.80215 0.93058 0.51568 0.0
H993 H 0.06576 0.7939 0.45468 0.0
H994 H 0.08505 0.78837 0.56225 0.0
H995 H 0.02428 0.78616 0.57298 0.0
H996 H 0.99451 0.84769 0.46035 0.0
H997 H 0.97148 0.82771 0.42666 0.0
H998 H 0.01673 0.82684 0.42674 0.0
H999 H 0.01552 0.76172 0.42302 0.0
H1000 H 0.97022 0.76238 0.4229 0.0
H1001 H 0.99241 0.73804 0.45401 0.0
H1002 H 0.96263 0.78627 0.57289 0.0
H1003 H 0.90214 0.79011 0.5624 0.0
H1004 H 0.9208 0.79647 0.45472 0.0
C1005 C 0.05719 0.7919 0.48045 0.0
C1006 C 0.08026 0.79132 0.50762 0.0
C1007 C 0.06797 0.78903 0.54101 0.0
C1008 C 0.03347 0.7876 0.5474 0.0
C1009 C 0.01148 0.78851 0.52018 0.0
C1010 C 0.02266 0.79065 0.48737 0.0
C1011 C 0.9933 0.79254 0.46297 0.0
C1012 C 0.99406 0.82567 0.44301 0.0
C1013 C 0.99284 0.76184 0.43933 0.0
C1014 C 0.96397 0.79162 0.48735 0.0
C1015 C 0.97526 0.78899 0.52014 0.0
C1016 C 0.9534 0.78825 0.54733 0.0
C1017 C 0.91897 0.79054 0.541 0.0
C1018 C 0.90648 0.79373 0.50766 0.0
C1019 C 0.92943 0.79398 0.48045 0.0
H1020 H 0.45571 0.17356 0.92117 0.0
H1021 H 0.55552 0.21337 0.90087 0.0
H1022 H 0.5649 0.22147 0.96133 0.0
H1023 H 0.43682 0.22865 0.99263 0.0
H1024 H 0.41574 0.19624 0.01633 0.0
H1025 H 0.41544 0.19487 0.97098 0.0
H1026 H 0.44064 0.1348 0.97232 0.0
H1027 H 0.44093 0.13596 0.01764 0.0
H1028 H 0.47923 0.1275 0.99497 0.0
H1029 H 0.56496 0.22441 0.02262 0.0
H1030 H 0.55677 0.21963 0.08351 0.0
H1031 H 0.45739 0.17683 0.06674 0.0
C1032 C 0.4794 0.18417 0.92953 0.0
C1033 C 0.5049 0.19271 0.90623 0.0
C1034 C 0.53569 0.20629 0.91815 0.0
C1035 C 0.54124 0.21124 0.95248 0.0
C1036 C 0.51585 0.20241 0.97475 0.0
C1037 C 0.48559 0.189 0.96402 0.0
C1038 C 0.46336 0.18034 0.99386 0.0
C1039 C 0.43092 0.20128 0.99342 0.0
C1040 C 0.4556 0.1424 0.99474 0.0
C1041 C 0.48613 0.19071 0.02283 0.0
C1042 C 0.51609 0.20364 0.01096 0.0
C1043 C 0.54161 0.21438 0.03235 0.0
C1044 C 0.53667 0.21143 0.06698 0.0
C1045 C 0.50647 0.19768 0.08007 0.0
C1046 C 0.48067 0.18757 0.05758 0.0
H1047 H 0.79974 0.45534 0.9261 0.0
H1048 H 0.80393 0.56319 0.90766 0.0
H1049 H 0.80215 0.57392 0.96832 0.0
H1050 H 0.74295 0.4597 -0.00221 0.0
H1051 H 0.76373 0.42659 0.02069 0.0
H1052 H 0.76445 0.42666 0.97534 0.0
H1053 H 0.82954 0.42466 0.97627 0.0
H1054 H 0.82901 0.42453 0.0216 0.0
H1055 H 0.85254 0.45632 -0.00059 0.0
H1056 H 0.80118 0.57398 0.02998 0.0
H1057 H 0.80187 0.56309 0.09076 0.0
H1058 H 0.79831 0.45535 0.07126 0.0
C1059 C 0.80015 0.48118 0.93483 0.0
C1060 C 0.80205 0.50834 0.9119 0.0
C1061 C 0.80265 0.54182 0.92449 0.0
C1062 C 0.80153 0.54829 0.95901 0.0
C1063 C 0.79978 0.5211 0.98082 0.0
C1064 C 0.79912 0.48821 0.96945 0.0
C1065 C 0.79793 0.4638 -0.00123 0.0
C1066 C 0.76532 0.44296 -0.0019 0.0
C1067 C 0.82912 0.44098 -0.00098 0.0
C1068 C 0.79832 0.48826 0.02819 0.0
C1069 C 0.79925 0.52114 0.01707 0.0
C1070 C 0.80038 0.54835 0.03912 0.0
C1071 C 0.80085 0.54184 0.07365 0.0
C1072 C 0.80022 0.50835 0.08591 0.0
C1073 C 0.79865 0.48123 0.06275 0.0
H1074 H 0.53246 0.80543 0.06562 0.0
H1075 H 0.42757 0.78261 0.08645 0.0
H1076 H 0.41577 0.78063 0.02592 0.0
H1077 H 0.51748 0.85936 0.99602 0.0
H1078 H 0.55292 0.84514 0.97164 0.0
H1079 H 0.55425 0.84307 0.0169 0.0
H1080 H 0.56698 0.77919 0.01377 0.0
H1081 H 0.56589 0.7811 0.96846 0.0
H1082 H 0.53911 0.75187 0.99047 0.0
H1083 H 0.41389 0.78381 0.96421 0.0
H1084 H 0.42257 0.78997 0.90338 0.0
H1085 H 0.52867 0.81026 0.92079 0.0
C1086 C 0.50713 0.79963 0.05742 0.0
C1087 C 0.48097 0.79432 0.08094 0.0
C1088 C 0.44808 0.78701 0.06909 0.0
C1089 C 0.44105 0.78573 0.03468 0.0
C1090 C 0.46714 0.79166 0.01226 0.0
C1091 C 0.49957 0.79825 0.02295 0.0
C1092 C 0.52262 0.80446 0.99319 0.0
C1093 C 0.5377 0.84013 0.99453 0.0
C1094 C 0.55029 0.77754 0.99137 0.0
C1095 C 0.49787 0.80077 0.96432 0.0
C1096 C 0.46607 0.79331 0.97606 0.0
C1097 C 0.43871 0.78943 0.95459 0.0
C1098 C 0.44393 0.79312 0.92002 0.0
C1099 C 0.47633 0.80061 0.90715 0.0
C1100 C 0.50364 0.80442 0.92974 0.0
H1101 H 0.18438 0.4544 0.92567 0.0
H1102 H 0.19278 0.56186 0.90651 0.0
H1103 H 0.19623 0.57263 0.96723 0.0
H1104 H 0.1326 0.4615 -0.001 0.0
H1105 H 0.15243 0.42732 0.02114 0.0
H1106 H 0.1516 0.42743 0.97582 0.0
H1107 H 0.2165 0.42213 0.97453 0.0
H1108 H 0.21753 0.42203 0.01988 0.0
H1109 H 0.24186 0.45256 -0.00317 0.0
H1110 H 0.19748 0.57265 0.02921 0.0
H1111 H 0.1962 0.56179 0.09003 0.0
H1112 H 0.18714 0.45439 0.07039 0.0
C1113 C 0.18708 0.48017 0.93423 0.0
C1114 C 0.18826 0.50723 0.91115 0.0
C1115 C 0.19172 0.54061 0.92351 0.0
C1116 C 0.19379 0.54708 0.95803 0.0
C1117 C 0.19242 0.51995 0.98 0.0
C1118 C 0.18917 0.48716 0.96876 0.0
C1119 C 0.18772 0.46281 -0.00192 0.0
C1120 C 0.15408 0.44364 -0.00147 0.0
C1121 C 0.2177 0.43845 -0.00273 0.0
C1122 C 0.1904 0.48718 0.02741 0.0
C1123 C 0.19319 0.51996 0.01626 0.0
C1124 C 0.19541 0.54708 0.03835 0.0
C1125 C 0.19458 0.5406 0.0729 0.0
C1126 C 0.19153 0.50721 0.08512 0.0
C1127 C 0.18964 0.48017 0.06192 0.0
H1128 H 0.06921 0.53518 0.19241 0.0
H1129 H 0.08723 0.4277 0.20239 0.0
H1130 H 0.02658 0.41752 0.20552 0.0
H1131 H -0.00365 0.53818 0.24926 0.0
H1132 H 0.97416 0.56853 0.224 0.0
H1133 H 0.01946 0.56822 0.22437 0.0
H1134 H 0.01989 0.56229 0.15941 0.0
H1135 H 0.97463 0.56246 0.15885 0.0
H1136 H -0.00275 0.52802 0.1399 0.0
H1137 H 0.96507 0.41762 0.20424 0.0
H1138 H 0.90444 0.42843 0.20017 0.0
H1139 H 0.92427 0.53577 0.19181 0.0
C1140 C 0.06037 0.50959 0.19563 0.0
C1141 C 0.08311 0.48228 0.19696 0.0
C1142 C 0.07046 0.4491 0.20099 0.0
C1143 C 0.03598 0.44297 0.20294 0.0
C1144 C 0.0143 0.47023 0.201 0.0
C1145 C 0.02578 0.50291 0.19762 0.0
C1146 C -0.0034 0.52733 0.19511 0.0
C1147 C -0.00335 0.55202 0.22497 0.0
C1148 C -0.00287 0.54612 0.1613 0.0
C1149 C 0.96714 0.50307 0.19707 0.0
C1150 C 0.97812 0.47031 0.20057 0.0
C1151 C 0.95603 0.44317 0.20174 0.0
C1152 C 0.92163 0.4496 0.19922 0.0
C1153 C 0.90956 0.48294 0.19563 0.0
C1154 C 0.93271 0.51004 0.19479 0.0
H1155 H 0.92107 0.53823 0.80595 0.0
H1156 H 0.90054 0.43331 0.78223 0.0
H1157 H 0.9611 0.42272 0.77674 0.0
H1158 H 0.99442 0.54771 0.74975 0.0
H1159 H 0.01703 0.574 0.77913 0.0
H1160 H 0.97173 0.57454 0.77844 0.0
H1161 H 0.97059 0.56001 0.84197 0.0
H1162 H 0.01583 0.5593 0.84284 0.0
H1163 H 0.9923 0.52305 0.85668 0.0
H1164 H 0.02259 0.42188 0.77735 0.0
H1165 H 0.08324 0.43065 0.78401 0.0
H1166 H 0.06597 0.53613 0.80774 0.0
C1167 C 0.92936 0.5132 0.79907 0.0
C1168 C 0.90607 0.48659 0.79454 0.0
C1169 C 0.91789 0.45404 0.78603 0.0
C1170 C 0.95224 0.44777 0.78267 0.0
C1171 C 0.97453 0.47429 0.78787 0.0
C1172 C 0.96377 0.50638 0.79581 0.0
C1173 C 0.99344 0.52973 0.8019 0.0
C1174 C 0.99419 0.55818 0.77574 0.0
C1175 C 0.993 0.54384 0.83799 0.0
C1176 C 0.02241 0.50547 0.79677 0.0
C1177 C 0.01071 0.47375 0.78842 0.0
C1178 C 0.03217 0.44663 0.78364 0.0
C1179 C 0.06663 0.45191 0.78769 0.0
C1180 C 0.07946 0.48409 0.79653 0.0
C1181 C 0.05698 0.51133 0.80076 0.0
H1182 H 0.53656 0.06833 0.8093 0.0
H1183 H 0.44019 0.09003 0.76276 0.0
H1184 H 0.42947 0.02953 0.75577 0.0
H1185 H 0.55594 0.99273 0.7573 0.0
H1186 H 0.57452 0.97048 0.79213 0.0
H1187 H 0.57663 0.01579 0.79057 0.0
H1188 H 0.54887 0.01911 0.84943 0.0
H1189 H 0.54642 0.97388 0.85106 0.0
H1190 H 0.50892 -0.00127 0.85628 0.0
H1191 H 0.42613 0.96796 0.75824 0.0
H1192 H 0.43153 0.90711 0.76784 0.0
H1193 H 0.53009 0.92327 0.81247 0.0
C1194 C 0.5136 0.06024 0.797 0.0
C1195 C 0.48918 0.08386 0.78666 0.0
C1196 C 0.45914 0.07238 0.77114 0.0
C1197 C 0.45284 0.03806 0.7669 0.0
C1198 C 0.47683 0.01538 0.7782 0.0
C1199 C 0.50674 0.02579 0.7927 0.0
C1200 C 0.5272 0.99574 0.80428 0.0
C1201 C 0.56055 0.99356 0.78491 0.0
C1202 C 0.53319 -0.00305 0.84253 0.0
C1203 C 0.50369 0.96711 0.79467 0.0
C1204 C 0.47491 0.97917 0.77951 0.0
C1205 C 0.4487 0.95806 0.76974 0.0
C1206 C 0.45194 0.92352 0.77552 0.0
C1207 C 0.48123 0.91034 0.7909 0.0
C1208 C 0.50752 0.93252 0.8004 0.0
H1209 H 0.45474 0.92206 0.18633 0.0
H1210 H 0.56238 0.90268 0.18776 0.0
H1211 H 0.57354 0.96317 0.18813 0.0
H1212 H 0.45834 0.99405 0.13176 0.0
H1213 H 0.42614 0.01733 0.15356 0.0
H1214 H 0.42564 0.97198 0.15412 0.0
H1215 H 0.42543 0.97277 0.21933 0.0
H1216 H 0.42587 0.01813 0.21896 0.0
H1217 H 0.45792 0.99546 0.24155 0.0
H1218 H 0.57435 0.02439 0.18726 0.0
H1219 H 0.56459 0.08519 0.18586 0.0
H1220 H 0.45657 0.06763 0.18526 0.0
C1221 C 0.48061 0.93057 0.18684 0.0
C1222 C 0.50759 0.90736 0.18695 0.0
C1223 C 0.54113 0.91967 0.1876 0.0
C1224 C 0.54787 0.95411 0.18784 0.0
C1225 C 0.5209 0.97618 0.18754 0.0
C1226 C 0.48794 0.96518 0.18715 0.0
C1227 C 0.46391 0.99485 0.18669 0.0
C1228 C 0.44223 0.99452 0.15462 0.0
C1229 C 0.44199 0.99532 0.21853 0.0
C1230 C 0.48871 0.02398 0.18655 0.0
C1231 C 0.52138 0.01237 0.18713 0.0
C1232 C 0.5489 0.03395 0.18688 0.0
C1233 C 0.543 0.06853 0.18604 0.0
C1234 C 0.50977 0.08139 0.18542 0.0
C1235 C 0.48225 0.05867 0.18574 0.0
loop_
_geom_bond_atom_site_label_1
_geom_bond_atom_site_label_2
_geom_bond_distance
_geom_bond_site_symmetry_2
_ccdc_geom_bond_type
Sc0 O3 2.025 . S
Sc0 O10 2.105 . S
Sc0 O13 2.105 . S
Sc0 O16 2.105 . S
Sc0 O19 2.105 . S
Sc1 O3 2.025 . S
Sc1 O11 2.105 . S
Sc1 O15 2.105 . S
Sc1 O17 2.105 . S
Sc1 O21 2.105 . S
Sc2 O3 2.025 . S
Sc2 O12 2.105 . S
Sc2 O14 2.105 . S
Sc2 O18 2.105 . S
Sc2 O20 2.105 . S
O3 Sc0 2.025 . S
O3 Sc1 2.025 . S
O3 Sc2 2.025 . S
C4 O10 1.268 . S
C4 O20 1.268 . S
C5 O11 1.268 . S
C5 O19 1.268 . S
C6 O12 1.268 . S
C6 O21 1.268 . S
C7 O13 1.268 . S
C7 O17 1.268 . S
C8 O14 1.268 . S
C8 O16 1.268 . S
C9 O15 1.268 . S
C9 O18 1.268 . S
O10 Sc0 2.105 . S
O10 C4 1.268 . S
O11 Sc1 2.105 . S
O11 C5 1.268 . S
O12 Sc2 2.105 . S
O12 C6 1.268 . S
O13 Sc0 2.105 . S
O13 C7 1.268 . S
O14 Sc2 2.105 . S
O14 C8 1.268 . S
O15 Sc1 2.105 . S
O15 C9 1.268 . S
O16 Sc0 2.105 . S
O16 C8 1.268 . S
O17 Sc1 2.105 . S
O17 C7 1.268 . S
O18 Sc2 2.105 . S
O18 C9 1.268 . S
O19 Sc0 2.105 . S
O19 C5 1.268 . S
O20 Sc2 2.105 . S
O20 C4 1.268 . S
O21 Sc1 2.105 . S
O21 C6 1.268 . S
Sc22 O25 2.025 . S
Sc22 O32 2.105 . S
Sc22 O35 2.105 . S
Sc22 O38 2.105 . S
Sc22 O41 2.105 . S
Sc23 O25 2.025 . S
Sc23 O33 2.105 . S
Sc23 O37 2.105 . S
Sc23 O39 2.105 . S
Sc23 O43 2.105 . S
Sc24 O25 2.025 . S
Sc24 O34 2.105 . S
Sc24 O36 2.105 . S
Sc24 O40 2.105 . S
Sc24 O42 2.105 . S
O25 Sc22 2.025 . S
O25 Sc23 2.025 . S
O25 Sc24 2.025 . S
C26 O32 1.268 . S
C26 O42 1.268 . S
C27 O33 1.268 . S
C27 O41 1.268 . S
C28 O34 1.268 . S
C28 O43 1.268 . S
C29 O35 1.268 . S
C29 O39 1.268 . S
C30 O36 1.268 . S
C30 O38 1.268 . S
C31 O37 1.268 . S
C31 O40 1.268 . S
O32 Sc22 2.105 . S
O32 C26 1.268 . S
O33 Sc23 2.105 . S
O33 C27 1.268 . S
O34 Sc24 2.105 . S
O34 C28 1.268 . S
O35 Sc22 2.105 . S
O35 C29 1.268 . S
O36 Sc24 2.105 . S
O36 C30 1.268 . S
O37 Sc23 2.105 . S
O37 C31 1.268 . S
O38 Sc22 2.105 . S
O38 C30 1.268 . S
O39 Sc23 2.105 . S
O39 C29 1.268 . S
O40 Sc24 2.105 . S
O40 C31 1.268 . S
O41 Sc22 2.105 . S
O41 C27 1.268 . S
O42 Sc24 2.105 . S
O42 C26 1.268 . S
O43 Sc23 2.105 . S
O43 C28 1.268 . S
Sc44 O47 2.025 . S
Sc44 O54 2.105 . S
Sc44 O57 2.105 . S
Sc44 O60 2.105 . S
Sc44 O63 2.105 . S
Sc45 O47 2.025 . S
Sc45 O55 2.105 . S
Sc45 O59 2.105 . S
Sc45 O61 2.105 . S
Sc45 O65 2.105 . S
Sc46 O47 2.025 . S
Sc46 O56 2.105 . S
Sc46 O58 2.105 . S
Sc46 O62 2.105 . S
Sc46 O64 2.105 . S
O47 Sc44 2.025 . S
O47 Sc45 2.025 . S
O47 Sc46 2.025 . S
C48 O54 1.268 . S
C48 O64 1.268 . S
C49 O55 1.268 . S
C49 O63 1.268 . S
C50 O56 1.268 . S
C50 O65 1.268 . S
C51 O57 1.268 . S
C51 O61 1.268 . S
C52 O58 1.268 . S
C52 O60 1.268 . S
C53 O59 1.268 . S
C53 O62 1.268 . S
O54 Sc44 2.105 . S
O54 C48 1.268 . S
O55 Sc45 2.105 . S
O55 C49 1.268 . S
O56 Sc46 2.105 . S
O56 C50 1.268 . S
O57 Sc44 2.105 . S
O57 C51 1.268 . S
O58 Sc46 2.105 . S
O58 C52 1.268 . S
O59 Sc45 2.105 . S
O59 C53 1.268 . S
O60 Sc44 2.105 . S
O60 C52 1.268 . S
O61 Sc45 2.105 . S
O61 C51 1.268 . S
O62 Sc46 2.105 . S
O62 C53 1.268 . S
O63 Sc44 2.105 . S
O63 C49 1.268 . S
O64 Sc46 2.105 . S
O64 C48 1.268 . S
O65 Sc45 2.105 . S
O65 C50 1.268 . S
Sc66 O69 2.025 . S
Sc66 O76 2.105 . S
Sc66 O79 2.105 . S
Sc66 O82 2.105 . S
Sc66 O85 2.105 . S
Sc67 O69 2.025 . S
Sc67 O77 2.105 . S
Sc67 O81 2.105 . S
Sc67 O83 2.105 . S
Sc67 O87 2.105 . S
Sc68 O69 2.025 . S
Sc68 O78 2.105 . S
Sc68 O80 2.105 . S
Sc68 O84 2.105 . S
Sc68 O86 2.105 . S
O69 Sc66 2.025 . S
O69 Sc67 2.025 . S
O69 Sc68 2.025 . S
C70 O76 1.268 . S
C70 O86 1.268 . S
C71 O77 1.268 . S
C71 O85 1.268 . S
C72 O78 1.268 . S
C72 O87 1.268 . S
C73 O79 1.268 . S
C73 O83 1.268 . S
C74 O80 1.268 . S
C74 O82 1.268 . S
C75 O81 1.268 . S
C75 O84 1.268 . S
O76 Sc66 2.105 . S
O76 C70 1.268 . S
O77 Sc67 2.105 . S
O77 C71 1.268 . S
O78 Sc68 2.105 . S
O78 C72 1.268 . S
O79 Sc66 2.105 . S
O79 C73 1.268 . S
O80 Sc68 2.105 . S
O80 C74 1.268 . S
O81 Sc67 2.105 . S
O81 C75 1.268 . S
O82 Sc66 2.105 . S
O82 C74 1.268 . S
O83 Sc67 2.105 . S
O83 C73 1.268 . S
O84 Sc68 2.105 . S
O84 C75 1.268 . S
O85 Sc66 2.105 . S
O85 C71 1.268 . S
O86 Sc68 2.105 . S
O86 C70 1.268 . S
O87 Sc67 2.105 . S
O87 C72 1.268 . S
Sc88 O91 2.025 . S
Sc88 O98 2.105 . S
Sc88 O101 2.105 . S
Sc88 O104 2.105 . S
Sc88 O107 2.105 . S
Sc89 O91 2.025 . S
Sc89 O99 2.105 . S
Sc89 O103 2.105 . S
Sc89 O105 2.105 . S
Sc89 O109 2.105 . S
Sc90 O91 2.025 . S
Sc90 O100 2.105 . S
Sc90 O102 2.105 . S
Sc90 O106 2.105 . S
Sc90 O108 2.105 . S
O91 Sc88 2.025 . S
O91 Sc89 2.025 . S
O91 Sc90 2.025 . S
C92 O98 1.268 . S
C92 O108 1.268 . S
C93 O99 1.268 . S
C93 O107 1.268 . S
C94 O100 1.268 . S
C94 O109 1.268 . S
C95 O101 1.268 . S
C95 O105 1.268 . S
C96 O102 1.268 . S
C96 O104 1.268 . S
C97 O103 1.268 . S
C97 O106 1.268 . S
O98 Sc88 2.105 . S
O98 C92 1.268 . S
O99 Sc89 2.105 . S
O99 C93 1.268 . S
O100 Sc90 2.105 . S
O100 C94 1.268 . S
O101 Sc88 2.105 . S
O101 C95 1.268 . S
O102 Sc90 2.105 . S
O102 C96 1.268 . S
O103 Sc89 2.105 . S
O103 C97 1.268 . S
O104 Sc88 2.105 . S
O104 C96 1.268 . S
O105 Sc89 2.105 . S
O105 C95 1.268 . S
O106 Sc90 2.105 . S
O106 C97 1.268 . S
O107 Sc88 2.105 . S
O107 C93 1.268 . S
O108 Sc90 2.105 . S
O108 C92 1.268 . S
O109 Sc89 2.105 . S
O109 C94 1.268 . S
Sc110 O113 2.025 . S
Sc110 O120 2.105 . S
Sc110 O123 2.105 . S
Sc110 O126 2.105 . S
Sc110 O129 2.105 . S
Sc111 O113 2.025 . S
Sc111 O121 2.105 . S
Sc111 O125 2.105 . S
Sc111 O127 2.105 . S
Sc111 O131 2.105 . S
Sc112 O113 2.025 . S
Sc112 O122 2.105 . S
Sc112 O124 2.105 . S
Sc112 O128 2.105 . S
Sc112 O130 2.105 . S
O113 Sc110 2.025 . S
O113 Sc111 2.025 . S
O113 Sc112 2.025 . S
C114 O120 1.268 . S
C114 O130 1.268 . S
C115 O121 1.268 . S
C115 O129 1.268 . S
C116 O122 1.268 . S
C116 O131 1.268 . S
C117 O123 1.268 . S
C117 O127 1.268 . S
C118 O124 1.268 . S
C118 O126 1.268 . S
C119 O125 1.268 . S
C119 O128 1.268 . S
O120 Sc110 2.105 . S
O120 C114 1.268 . S
O121 Sc111 2.105 . S
O121 C115 1.268 . S
O122 Sc112 2.105 . S
O122 C116 1.268 . S
O123 Sc110 2.105 . S
O123 C117 1.268 . S
O124 Sc112 2.105 . S
O124 C118 1.268 . S
O125 Sc111 2.105 . S
O125 C119 1.268 . S
O126 Sc110 2.105 . S
O126 C118 1.268 . S
O127 Sc111 2.105 . S
O127 C117 1.268 . S
O128 Sc112 2.105 . S
O128 C119 1.268 . S
O129 Sc110 2.105 . S
O129 C115 1.268 . S
O130 Sc112 2.105 . S
O130 C114 1.268 . S
O131 Sc111 2.105 . S
O131 C116 1.268 . S
Sc132 O135 2.025 . S
Sc132 O142 2.105 . S
Sc132 O145 2.105 . S
Sc132 O148 2.105 . S
Sc132 O151 2.105 . S
Sc133 O135 2.025 . S
Sc133 O143 2.105 . S
Sc133 O147 2.105 . S
Sc133 O149 2.105 . S
Sc133 O153 2.105 . S
Sc134 O135 2.025 . S
Sc134 O144 2.105 . S
Sc134 O146 2.105 . S
Sc134 O150 2.105 . S
Sc134 O152 2.105 . S
O135 Sc132 2.025 . S
O135 Sc133 2.025 . S
O135 Sc134 2.025 . S
C136 O142 1.268 . S
C136 O152 1.268 . S
C137 O143 1.268 . S
C137 O151 1.268 . S
C138 O144 1.268 . S
C138 O153 1.268 . S
C139 O145 1.268 . S
C139 O149 1.268 . S
C140 O146 1.268 . S
C140 O148 1.268 . S
C141 O147 1.268 . S
C141 O150 1.268 . S
O142 Sc132 2.105 . S
O142 C136 1.268 . S
O143 Sc133 2.105 . S
O143 C137 1.268 . S
O144 Sc134 2.105 . S
O144 C138 1.268 . S
O145 Sc132 2.105 . S
O145 C139 1.268 . S
O146 Sc134 2.105 . S
O146 C140 1.268 . S
O147 Sc133 2.105 . S
O147 C141 1.268 . S
O148 Sc132 2.105 . S
O148 C140 1.268 . S
O149 Sc133 2.105 . S
O149 C139 1.268 . S
O150 Sc134 2.105 . S
O150 C141 1.268 . S
O151 Sc132 2.105 . S
O151 C137 1.268 . S
O152 Sc134 2.105 . S
O152 C136 1.268 . S
O153 Sc133 2.105 . S
O153 C138 1.268 . S
Sc154 O157 2.025 . S
Sc154 O164 2.105 . S
Sc154 O167 2.105 . S
Sc154 O170 2.105 . S
Sc154 O173 2.105 . S
Sc155 O157 2.025 . S
Sc155 O165 2.105 . S
Sc155 O169 2.105 . S
Sc155 O171 2.105 . S
Sc155 O175 2.105 . S
Sc156 O157 2.025 . S
Sc156 O166 2.105 . S
Sc156 O168 2.105 . S
Sc156 O172 2.105 . S
Sc156 O174 2.105 . S
O157 Sc154 2.025 . S
O157 Sc155 2.025 . S
O157 Sc156 2.025 . S
C158 O164 1.268 . S
C158 O174 1.268 . S
C159 O165 1.268 . S
C159 O173 1.268 . S
C160 O166 1.268 . S
C160 O175 1.268 . S
C161 O167 1.268 . S
C161 O171 1.268 . S
C162 O168 1.268 . S
C162 O170 1.268 . S
C163 O169 1.268 . S
C163 O172 1.268 . S
O164 Sc154 2.105 . S
O164 C158 1.268 . S
O165 Sc155 2.105 . S
O165 C159 1.268 . S
O166 Sc156 2.105 . S
O166 C160 1.268 . S
O167 Sc154 2.105 . S
O167 C161 1.268 . S
O168 Sc156 2.105 . S
O168 C162 1.268 . S
O169 Sc155 2.105 . S
O169 C163 1.268 . S
O170 Sc154 2.105 . S
O170 C162 1.268 . S
O171 Sc155 2.105 . S
O171 C161 1.268 . S
O172 Sc156 2.105 . S
O172 C163 1.268 . S
O173 Sc154 2.105 . S
O173 C159 1.268 . S
O174 Sc156 2.105 . S
O174 C158 1.268 . S
O175 Sc155 2.105 . S
O175 C160 1.268 . S
Sc176 O179 2.025 . S
Sc176 O186 2.105 . S
Sc176 O189 2.105 . S
Sc176 O192 2.105 . S
Sc176 O195 2.105 . S
Sc177 O179 2.025 . S
Sc177 O187 2.105 . S
Sc177 O191 2.105 . S
Sc177 O193 2.105 . S
Sc177 O197 2.105 . S
Sc178 O179 2.025 . S
Sc178 O188 2.105 . S
Sc178 O190 2.105 . S
Sc178 O194 2.105 . S
Sc178 O196 2.105 . S
O179 Sc176 2.025 . S
O179 Sc177 2.025 . S
O179 Sc178 2.025 . S
C180 O186 1.268 . S
C180 O196 1.268 . S
C181 O187 1.268 . S
C181 O195 1.268 . S
C182 O188 1.268 . S
C182 O197 1.268 . S
C183 O189 1.268 . S
C183 O193 1.268 . S
C184 O190 1.268 . S
C184 O192 1.268 . S
C185 O191 1.268 . S
C185 O194 1.268 . S
O186 Sc176 2.105 . S
O186 C180 1.268 . S
O187 Sc177 2.105 . S
O187 C181 1.268 . S
O188 Sc178 2.105 . S
O188 C182 1.268 . S
O189 Sc176 2.105 . S
O189 C183 1.268 . S
O190 Sc178 2.105 . S
O190 C184 1.268 . S
O191 Sc177 2.105 . S
O191 C185 1.268 . S
O192 Sc176 2.105 . S
O192 C184 1.268 . S
O193 Sc177 2.105 . S
O193 C183 1.268 . S
O194 Sc178 2.105 . S
O194 C185 1.268 . S
O195 Sc176 2.105 . S
O195 C181 1.268 . S
O196 Sc178 2.105 . S
O196 C180 1.268 . S
O197 Sc177 2.105 . S
O197 C182 1.268 . S
Sc198 O201 2.025 . S
Sc198 O208 2.105 . S
Sc198 O211 2.105 . S
Sc198 O214 2.105 . S
Sc198 O217 2.105 . S
Sc199 O201 2.025 . S
Sc199 O209 2.105 . S
Sc199 O213 2.105 . S
Sc199 O215 2.105 . S
Sc199 O219 2.105 . S
Sc200 O201 2.025 . S
Sc200 O210 2.105 . S
Sc200 O212 2.105 . S
Sc200 O216 2.105 . S
Sc200 O218 2.105 . S
O201 Sc198 2.025 . S
O201 Sc199 2.025 . S
O201 Sc200 2.025 . S
C202 O208 1.268 . S
C202 O218 1.268 . S
C203 O209 1.268 . S
C203 O217 1.268 . S
C204 O210 1.268 . S
C204 O219 1.268 . S
C205 O211 1.268 . S
C205 O215 1.268 . S
C206 O212 1.268 . S
C206 O214 1.268 . S
C207 O213 1.268 . S
C207 O216 1.268 . S
O208 Sc198 2.105 . S
O208 C202 1.268 . S
O209 Sc199 2.105 . S
O209 C203 1.268 . S
O210 Sc200 2.105 . S
O210 C204 1.268 . S
O211 Sc198 2.105 . S
O211 C205 1.268 . S
O212 Sc200 2.105 . S
O212 C206 1.268 . S
O213 Sc199 2.105 . S
O213 C207 1.268 . S
O214 Sc198 2.105 . S
O214 C206 1.268 . S
O215 Sc199 2.105 . S
O215 C205 1.268 . S
O216 Sc200 2.105 . S
O216 C207 1.268 . S
O217 Sc198 2.105 . S
O217 C203 1.268 . S
O218 Sc200 2.105 . S
O218 C202 1.268 . S
O219 Sc199 2.105 . S
O219 C204 1.268 . S
Sc220 O223 2.025 . S
Sc220 O230 2.105 . S
Sc220 O233 2.105 . S
Sc220 O236 2.105 . S
Sc220 O239 2.105 . S
Sc221 O223 2.025 . S
Sc221 O231 2.105 . S
Sc221 O235 2.105 . S
Sc221 O237 2.105 . S
Sc221 O241 2.105 . S
Sc222 O223 2.025 . S
Sc222 O232 2.105 . S
Sc222 O234 2.105 . S
Sc222 O238 2.105 . S
Sc222 O240 2.105 . S
O223 Sc220 2.025 . S
O223 Sc221 2.025 . S
O223 Sc222 2.025 . S
C224 O230 1.268 . S
C224 O240 1.268 . S
C225 O231 1.268 . S
C225 O239 1.268 . S
C226 O232 1.268 . S
C226 O241 1.268 . S
C227 O233 1.268 . S
C227 O237 1.268 . S
C228 O234 1.268 . S
C228 O236 1.268 . S
C229 O235 1.268 . S
C229 O238 1.268 . S
O230 Sc220 2.105 . S
O230 C224 1.268 . S
O231 Sc221 2.105 . S
O231 C225 1.268 . S
O232 Sc222 2.105 . S
O232 C226 1.268 . S
O233 Sc220 2.105 . S
O233 C227 1.268 . S
O234 Sc222 2.105 . S
O234 C228 1.268 . S
O235 Sc221 2.105 . S
O235 C229 1.268 . S
O236 Sc220 2.105 . S
O236 C228 1.268 . S
O237 Sc221 2.105 . S
O237 C227 1.268 . S
O238 Sc222 2.105 . S
O238 C229 1.268 . S
O239 Sc220 2.105 . S
O239 C225 1.268 . S
O240 Sc222 2.105 . S
O240 C224 1.268 . S
O241 Sc221 2.105 . S
O241 C226 1.268 . S
Sc242 O245 2.025 . S
Sc242 O252 2.105 . S
Sc242 O255 2.105 . S
Sc242 O258 2.105 . S
Sc242 O261 2.105 . S
Sc243 O245 2.025 . S
Sc243 O253 2.105 . S
Sc243 O257 2.105 . S
Sc243 O259 2.105 . S
Sc243 O263 2.105 . S
Sc244 O245 2.025 . S
Sc244 O254 2.105 . S
Sc244 O256 2.105 . S
Sc244 O260 2.105 . S
Sc244 O262 2.105 . S
O245 Sc242 2.025 . S
O245 Sc243 2.025 . S
O245 Sc244 2.025 . S
C246 O252 1.268 . S
C246 O262 1.268 . S
C247 O253 1.268 . S
C247 O261 1.268 . S
C248 O254 1.268 . S
C248 O263 1.268 . S
C249 O255 1.268 . S
C249 O259 1.268 . S
C250 O256 1.268 . S
C250 O258 1.268 . S
C251 O257 1.268 . S
C251 O260 1.268 . S
O252 Sc242 2.105 . S
O252 C246 1.268 . S
O253 Sc243 2.105 . S
O253 C247 1.268 . S
O254 Sc244 2.105 . S
O254 C248 1.268 . S
O255 Sc242 2.105 . S
O255 C249 1.268 . S
O256 Sc244 2.105 . S
O256 C250 1.268 . S
O257 Sc243 2.105 . S
O257 C251 1.268 . S
O258 Sc242 2.105 . S
O258 C250 1.268 . S
O259 Sc243 2.105 . S
O259 C249 1.268 . S
O260 Sc244 2.105 . S
O260 C251 1.268 . S
O261 Sc242 2.105 . S
O261 C247 1.268 . S
O262 Sc244 2.105 . S
O262 C246 1.268 . S
O263 Sc243 2.105 . S
O263 C248 1.268 . S
H264 C276 0.930 . S
H265 C278 0.930 . S
H266 C279 0.930 . S
H267 C283 0.959 . S
H268 C283 0.959 . S
H269 C283 0.961 . S
H270 C284 0.960 . S
H271 C284 0.961 . S
H272 C284 0.959 . S
H273 C287 0.929 . S
H274 C288 0.931 . S
H275 C290 0.930 . S
C276 H264 0.930 . S
C276 C277 1.399 . S
C276 C281 1.399 . S
C277 C276 1.399 . S
C277 C278 1.376 . S
C278 H265 0.930 . S
C278 C277 1.376 . S
C278 C279 1.388 . S
C279 H266 0.930 . S
C279 C278 1.388 . S
C279 C280 1.390 . S
C280 C279 1.390 . S
C280 C281 1.394 . S
C280 C286 1.465 . S
C281 C276 1.399 . S
C281 C280 1.394 . S
C281 C282 1.516 . S
C282 C281 1.516 . S
C282 C283 1.502 . S
C282 C284 1.561 . S
C282 C285 1.526 . S
C283 H267 0.959 . S
C283 H268 0.959 . S
C283 H269 0.961 . S
C283 C282 1.502 . S
C284 H270 0.960 . S
C284 H271 0.961 . S
C284 H272 0.959 . S
C284 C282 1.561 . S
C285 C282 1.526 . S
C285 C286 1.396 . S
C285 C290 1.390 . S
C286 C280 1.465 . S
C286 C285 1.396 . S
C286 C287 1.399 . S
C287 H273 0.929 . S
C287 C286 1.399 . S
C287 C288 1.385 . S
C288 H274 0.931 . S
C288 C287 1.385 . S
C288 C289 1.389 . S
C289 C288 1.389 . S
C289 C290 1.387 . S
C290 H275 0.930 . S
C290 C285 1.390 . S
C290 C289 1.387 . S
H291 C303 0.930 . S
H292 C305 0.930 . S
H293 C306 0.930 . S
H294 C310 0.959 . S
H295 C310 0.959 . S
H296 C310 0.961 . S
H297 C311 0.960 . S
H298 C311 0.961 . S
H299 C311 0.959 . S
H300 C314 0.929 . S
H301 C315 0.931 . S
H302 C317 0.930 . S
C303 H291 0.930 . S
C303 C304 1.399 . S
C303 C308 1.399 . S
C304 C303 1.399 . S
C304 C305 1.376 . S
C305 H292 0.930 . S
C305 C304 1.376 . S
C305 C306 1.388 . S
C306 H293 0.930 . S
C306 C305 1.388 . S
C306 C307 1.390 . S
C307 C306 1.390 . S
C307 C308 1.394 . S
C307 C313 1.465 . S
C308 C303 1.399 . S
C308 C307 1.394 . S
C308 C309 1.516 . S
C309 C308 1.516 . S
C309 C310 1.502 . S
C309 C311 1.561 . S
C309 C312 1.526 . S
C310 H294 0.959 . S
C310 H295 0.959 . S
C310 H296 0.961 . S
C310 C309 1.502 . S
C311 H297 0.960 . S
C311 H298 0.961 . S
C311 H299 0.959 . S
C311 C309 1.561 . S
C312 C309 1.526 . S
C312 C313 1.396 . S
C312 C317 1.390 . S
C313 C307 1.465 . S
C313 C312 1.396 . S
C313 C314 1.399 . S
C314 H300 0.929 . S
C314 C313 1.399 . S
C314 C315 1.385 . S
C315 H301 0.931 . S
C315 C314 1.385 . S
C315 C316 1.389 . S
C316 C315 1.389 . S
C316 C317 1.387 . S
C317 H302 0.930 . S
C317 C312 1.390 . S
C317 C316 1.387 . S
H318 C330 0.930 . S
H319 C332 0.930 . S
H320 C333 0.930 . S
H321 C337 0.959 . S
H322 C337 0.959 . S
H323 C337 0.961 . S
H324 C338 0.960 . S
H325 C338 0.961 . S
H326 C338 0.959 . S
H327 C341 0.929 . S
H328 C342 0.931 . S
H329 C344 0.930 . S
C330 H318 0.930 . S
C330 C331 1.399 . S
C330 C335 1.399 . S
C331 C330 1.399 . S
C331 C332 1.376 . S
C332 H319 0.930 . S
C332 C331 1.376 . S
C332 C333 1.388 . S
C333 H320 0.930 . S
C333 C332 1.388 . S
C333 C334 1.390 . S
C334 C333 1.390 . S
C334 C335 1.394 . S
C334 C340 1.465 . S
C335 C330 1.399 . S
C335 C334 1.394 . S
C335 C336 1.516 . S
C336 C335 1.516 . S
C336 C337 1.502 . S
C336 C338 1.561 . S
C336 C339 1.526 . S
C337 H321 0.959 . S
C337 H322 0.959 . S
C337 H323 0.961 . S
C337 C336 1.502 . S
C338 H324 0.960 . S
C338 H325 0.961 . S
C338 H326 0.959 . S
C338 C336 1.561 . S
C339 C336 1.526 . S
C339 C340 1.396 . S
C339 C344 1.390 . S
C340 C334 1.465 . S
C340 C339 1.396 . S
C340 C341 1.399 . S
C341 H327 0.929 . S
C341 C340 1.399 . S
C341 C342 1.385 . S
C342 H328 0.931 . S
C342 C341 1.385 . S
C342 C343 1.389 . S
C343 C342 1.389 . S
C343 C344 1.387 . S
C344 H329 0.930 . S
C344 C339 1.390 . S
C344 C343 1.387 . S
H345 C357 0.930 . S
H346 C359 0.930 . S
H347 C360 0.930 . S
H348 C364 0.959 . S
H349 C364 0.959 . S
H350 C364 0.961 . S
H351 C365 0.960 . S
H352 C365 0.961 . S
H353 C365 0.959 . S
H354 C368 0.929 . S
H355 C369 0.931 . S
H356 C371 0.930 . S
C357 H345 0.930 . S
C357 C358 1.399 . S
C357 C362 1.399 . S
C358 C357 1.399 . S
C358 C359 1.376 . S
C359 H346 0.930 . S
C359 C358 1.376 . S
C359 C360 1.388 . S
C360 H347 0.930 . S
C360 C359 1.388 . S
C360 C361 1.390 . S
C361 C360 1.390 . S
C361 C362 1.394 . S
C361 C367 1.465 . S
C362 C357 1.399 . S
C362 C361 1.394 . S
C362 C363 1.516 . S
C363 C362 1.516 . S
C363 C364 1.502 . S
C363 C365 1.561 . S
C363 C366 1.526 . S
C364 H348 0.959 . S
C364 H349 0.959 . S
C364 H350 0.961 . S
C364 C363 1.502 . S
C365 H351 0.960 . S
C365 H352 0.961 . S
C365 H353 0.959 . S
C365 C363 1.561 . S
C366 C363 1.526 . S
C366 C367 1.396 . S
C366 C371 1.390 . S
C367 C361 1.465 . S
C367 C366 1.396 . S
C367 C368 1.399 . S
C368 H354 0.929 . S
C368 C367 1.399 . S
C368 C369 1.385 . S
C369 H355 0.931 . S
C369 C368 1.385 . S
C369 C370 1.389 . S
C370 C369 1.389 . S
C370 C371 1.387 . S
C371 H356 0.930 . S
C371 C366 1.390 . S
C371 C370 1.387 . S
H372 C384 0.930 . S
H373 C386 0.930 . S
H374 C387 0.930 . S
H375 C391 0.959 . S
H376 C391 0.959 . S
H377 C391 0.961 . S
H378 C392 0.960 . S
H379 C392 0.961 . S
H380 C392 0.959 . S
H381 C395 0.929 . S
H382 C396 0.931 . S
H383 C398 0.930 . S
C384 H372 0.930 . S
C384 C385 1.399 . S
C384 C389 1.399 . S
C385 C384 1.399 . S
C385 C386 1.376 . S
C386 H373 0.930 . S
C386 C385 1.376 . S
C386 C387 1.388 . S
C387 H374 0.930 . S
C387 C386 1.388 . S
C387 C388 1.390 . S
C388 C387 1.390 . S
C388 C389 1.394 . S
C388 C394 1.465 . S
C389 C384 1.399 . S
C389 C388 1.394 . S
C389 C390 1.516 . S
C390 C389 1.516 . S
C390 C391 1.502 . S
C390 C392 1.561 . S
C390 C393 1.526 . S
C391 H375 0.959 . S
C391 H376 0.959 . S
C391 H377 0.961 . S
C391 C390 1.502 . S
C392 H378 0.960 . S
C392 H379 0.961 . S
C392 H380 0.959 . S
C392 C390 1.561 . S
C393 C390 1.526 . S
C393 C394 1.396 . S
C393 C398 1.390 . S
C394 C388 1.465 . S
C394 C393 1.396 . S
C394 C395 1.399 . S
C395 H381 0.929 . S
C395 C394 1.399 . S
C395 C396 1.385 . S
C396 H382 0.931 . S
C396 C395 1.385 . S
C396 C397 1.389 . S
C397 C396 1.389 . S
C397 C398 1.387 . S
C398 H383 0.930 . S
C398 C393 1.390 . S
C398 C397 1.387 . S
H399 C411 0.930 . S
H400 C413 0.930 . S
H401 C414 0.930 . S
H402 C418 0.959 . S
H403 C418 0.959 . S
H404 C418 0.961 . S
H405 C419 0.960 . S
H406 C419 0.961 . S
H407 C419 0.959 . S
H408 C422 0.929 . S
H409 C423 0.931 . S
H410 C425 0.930 . S
C411 H399 0.930 . S
C411 C412 1.399 . S
C411 C416 1.399 . S
C412 C411 1.399 . S
C412 C413 1.376 . S
C413 H400 0.930 . S
C413 C412 1.376 . S
C413 C414 1.388 . S
C414 H401 0.930 . S
C414 C413 1.388 . S
C414 C415 1.390 . S
C415 C414 1.390 . S
C415 C416 1.394 . S
C415 C421 1.465 . S
C416 C411 1.399 . S
C416 C415 1.394 . S
C416 C417 1.516 . S
C417 C416 1.516 . S
C417 C418 1.502 . S
C417 C419 1.561 . S
C417 C420 1.526 . S
C418 H402 0.959 . S
C418 H403 0.959 . S
C418 H404 0.961 . S
C418 C417 1.502 . S
C419 H405 0.960 . S
C419 H406 0.961 . S
C419 H407 0.959 . S
C419 C417 1.561 . S
C420 C417 1.526 . S
C420 C421 1.396 . S
C420 C425 1.390 . S
C421 C415 1.465 . S
C421 C420 1.396 . S
C421 C422 1.399 . S
C422 H408 0.929 . S
C422 C421 1.399 . S
C422 C423 1.385 . S
C423 H409 0.931 . S
C423 C422 1.385 . S
C423 C424 1.389 . S
C424 C423 1.389 . S
C424 C425 1.387 . S
C425 H410 0.930 . S
C425 C420 1.390 . S
C425 C424 1.387 . S
H426 C438 0.930 . S
H427 C440 0.930 . S
H428 C441 0.930 . S
H429 C445 0.959 . S
H430 C445 0.959 . S
H431 C445 0.961 . S
H432 C446 0.960 . S
H433 C446 0.961 . S
H434 C446 0.959 . S
H435 C449 0.929 . S
H436 C450 0.931 . S
H437 C452 0.930 . S
C438 H426 0.930 . S
C438 C439 1.399 . S
C438 C443 1.399 . S
C439 C438 1.399 . S
C439 C440 1.376 . S
C440 H427 0.930 . S
C440 C439 1.376 . S
C440 C441 1.388 . S
C441 H428 0.930 . S
C441 C440 1.388 . S
C441 C442 1.390 . S
C442 C441 1.390 . S
C442 C443 1.394 . S
C442 C448 1.465 . S
C443 C438 1.399 . S
C443 C442 1.394 . S
C443 C444 1.516 . S
C444 C443 1.516 . S
C444 C445 1.502 . S
C444 C446 1.561 . S
C444 C447 1.526 . S
C445 H429 0.959 . S
C445 H430 0.959 . S
C445 H431 0.961 . S
C445 C444 1.502 . S
C446 H432 0.960 . S
C446 H433 0.961 . S
C446 H434 0.959 . S
C446 C444 1.561 . S
C447 C444 1.526 . S
C447 C448 1.396 . S
C447 C452 1.390 . S
C448 C442 1.465 . S
C448 C447 1.396 . S
C448 C449 1.399 . S
C449 H435 0.929 . S
C449 C448 1.399 . S
C449 C450 1.385 . S
C450 H436 0.931 . S
C450 C449 1.385 . S
C450 C451 1.389 . S
C451 C450 1.389 . S
C451 C452 1.387 . S
C452 H437 0.930 . S
C452 C447 1.390 . S
C452 C451 1.387 . S
H453 C465 0.930 . S
H454 C467 0.930 . S
H455 C468 0.930 . S
H456 C472 0.959 . S
H457 C472 0.959 . S
H458 C472 0.961 . S
H459 C473 0.960 . S
H460 C473 0.961 . S
H461 C473 0.959 . S
H462 C476 0.929 . S
H463 C477 0.931 . S
H464 C479 0.930 . S
C465 H453 0.930 . S
C465 C466 1.399 . S
C465 C470 1.399 . S
C466 C465 1.399 . S
C466 C467 1.376 . S
C467 H454 0.930 . S
C467 C466 1.376 . S
C467 C468 1.388 . S
C468 H455 0.930 . S
C468 C467 1.388 . S
C468 C469 1.390 . S
C469 C468 1.390 . S
C469 C470 1.394 . S
C469 C475 1.465 . S
C470 C465 1.399 . S
C470 C469 1.394 . S
C470 C471 1.516 . S
C471 C470 1.516 . S
C471 C472 1.502 . S
C471 C473 1.561 . S
C471 C474 1.526 . S
C472 H456 0.959 . S
C472 H457 0.959 . S
C472 H458 0.961 . S
C472 C471 1.502 . S
C473 H459 0.960 . S
C473 H460 0.961 . S
C473 H461 0.959 . S
C473 C471 1.561 . S
C474 C471 1.526 . S
C474 C475 1.396 . S
C474 C479 1.390 . S
C475 C469 1.465 . S
C475 C474 1.396 . S
C475 C476 1.399 . S
C476 H462 0.929 . S
C476 C475 1.399 . S
C476 C477 1.385 . S
C477 H463 0.931 . S
C477 C476 1.385 . S
C477 C478 1.389 . S
C478 C477 1.389 . S
C478 C479 1.387 . S
C479 H464 0.930 . S
C479 C474 1.390 . S
C479 C478 1.387 . S
H480 C492 0.930 . S
H481 C494 0.930 . S
H482 C495 0.930 . S
H483 C499 0.959 . S
H484 C499 0.959 . S
H485 C499 0.961 . S
H486 C500 0.960 . S
H487 C500 0.961 . S
H488 C500 0.959 . S
H489 C503 0.929 . S
H490 C504 0.931 . S
H491 C506 0.930 . S
C492 H480 0.930 . S
C492 C493 1.399 . S
C492 C497 1.399 . S
C493 C492 1.399 . S
C493 C494 1.376 . S
C494 H481 0.930 . S
C494 C493 1.376 . S
C494 C495 1.388 . S
C495 H482 0.930 . S
C495 C494 1.388 . S
C495 C496 1.390 . S
C496 C495 1.390 . S
C496 C497 1.394 . S
C496 C502 1.465 . S
C497 C492 1.399 . S
C497 C496 1.394 . S
C497 C498 1.516 . S
C498 C497 1.516 . S
C498 C499 1.502 . S
C498 C500 1.561 . S
C498 C501 1.526 . S
C499 H483 0.959 . S
C499 H484 0.959 . S
C499 H485 0.961 . S
C499 C498 1.502 . S
C500 H486 0.960 . S
C500 H487 0.961 . S
C500 H488 0.959 . S
C500 C498 1.561 . S
C501 C498 1.526 . S
C501 C502 1.396 . S
C501 C506 1.390 . S
C502 C496 1.465 . S
C502 C501 1.396 . S
C502 C503 1.399 . S
C503 H489 0.929 . S
C503 C502 1.399 . S
C503 C504 1.385 . S
C504 H490 0.931 . S
C504 C503 1.385 . S
C504 C505 1.389 . S
C505 C504 1.389 . S
C505 C506 1.387 . S
C506 H491 0.930 . S
C506 C501 1.390 . S
C506 C505 1.387 . S
H507 C519 0.930 . S
H508 C521 0.930 . S
H509 C522 0.930 . S
H510 C526 0.959 . S
H511 C526 0.959 . S
H512 C526 0.961 . S
H513 C527 0.960 . S
H514 C527 0.961 . S
H515 C527 0.959 . S
H516 C530 0.929 . S
H517 C531 0.931 . S
H518 C533 0.930 . S
C519 H507 0.930 . S
C519 C520 1.399 . S
C519 C524 1.399 . S
C520 C519 1.399 . S
C520 C521 1.376 . S
C521 H508 0.930 . S
C521 C520 1.376 . S
C521 C522 1.388 . S
C522 H509 0.930 . S
C522 C521 1.388 . S
C522 C523 1.390 . S
C523 C522 1.390 . S
C523 C524 1.394 . S
C523 C529 1.465 . S
C524 C519 1.399 . S
C524 C523 1.394 . S
C524 C525 1.516 . S
C525 C524 1.516 . S
C525 C526 1.502 . S
C525 C527 1.561 . S
C525 C528 1.526 . S
C526 H510 0.959 . S
C526 H511 0.959 . S
C526 H512 0.961 . S
C526 C525 1.502 . S
C527 H513 0.960 . S
C527 H514 0.961 . S
C527 H515 0.959 . S
C527 C525 1.561 . S
C528 C525 1.526 . S
C528 C529 1.396 . S
C528 C533 1.390 . S
C529 C523 1.465 . S
C529 C528 1.396 . S
C529 C530 1.399 . S
C530 H516 0.929 . S
C530 C529 1.399 . S
C530 C531 1.385 . S
C531 H517 0.931 . S
C531 C530 1.385 . S
C531 C532 1.389 . S
C532 C531 1.389 . S
C532 C533 1.387 . S
C533 H518 0.930 . S
C533 C528 1.390 . S
C533 C532 1.387 . S
H534 C546 0.930 . S
H535 C548 0.930 . S
H536 C549 0.930 . S
H537 C553 0.959 . S
H538 C553 0.959 . S
H539 C553 0.961 . S
H540 C554 0.960 . S
H541 C554 0.961 . S
H542 C554 0.959 . S
H543 C557 0.929 . S
H544 C558 0.931 . S
H545 C560 0.930 . S
C546 H534 0.930 . S
C546 C547 1.399 . S
C546 C551 1.399 . S
C547 C546 1.399 . S
C547 C548 1.376 . S
C548 H535 0.930 . S
C548 C547 1.376 . S
C548 C549 1.388 . S
C549 H536 0.930 . S
C549 C548 1.388 . S
C549 C550 1.390 . S
C550 C549 1.390 . S
C550 C551 1.394 . S
C550 C556 1.465 . S
C551 C546 1.399 . S
C551 C550 1.394 . S
C551 C552 1.516 . S
C552 C551 1.516 . S
C552 C553 1.502 . S
C552 C554 1.561 . S
C552 C555 1.526 . S
C553 H537 0.959 . S
C553 H538 0.959 . S
C553 H539 0.961 . S
C553 C552 1.502 . S
C554 H540 0.960 . S
C554 H541 0.961 . S
C554 H542 0.959 . S
C554 C552 1.561 . S
C555 C552 1.526 . S
C555 C556 1.396 . S
C555 C560 1.390 . S
C556 C550 1.465 . S
C556 C555 1.396 . S
C556 C557 1.399 . S
C557 H543 0.929 . S
C557 C556 1.399 . S
C557 C558 1.385 . S
C558 H544 0.931 . S
C558 C557 1.385 . S
C558 C559 1.389 . S
C559 C558 1.389 . S
C559 C560 1.387 . S
C560 H545 0.930 . S
C560 C555 1.390 . S
C560 C559 1.387 . S
H561 C573 0.930 . S
H562 C575 0.930 . S
H563 C576 0.930 . S
H564 C580 0.959 . S
H565 C580 0.959 . S
H566 C580 0.961 . S
H567 C581 0.960 . S
H568 C581 0.961 . S
H569 C581 0.959 . S
H570 C584 0.929 . S
H571 C585 0.931 . S
H572 C587 0.930 . S
C573 H561 0.930 . S
C573 C574 1.399 . S
C573 C578 1.399 . S
C574 C573 1.399 . S
C574 C575 1.376 . S
C575 H562 0.930 . S
C575 C574 1.376 . S
C575 C576 1.388 . S
C576 H563 0.930 . S
C576 C575 1.388 . S
C576 C577 1.390 . S
C577 C576 1.390 . S
C577 C578 1.394 . S
C577 C583 1.465 . S
C578 C573 1.399 . S
C578 C577 1.394 . S
C578 C579 1.516 . S
C579 C578 1.516 . S
C579 C580 1.502 . S
C579 C581 1.561 . S
C579 C582 1.526 . S
C580 H564 0.959 . S
C580 H565 0.959 . S
C580 H566 0.961 . S
C580 C579 1.502 . S
C581 H567 0.960 . S
C581 H568 0.961 . S
C581 H569 0.959 . S
C581 C579 1.561 . S
C582 C579 1.526 . S
C582 C583 1.396 . S
C582 C587 1.390 . S
C583 C577 1.465 . S
C583 C582 1.396 . S
C583 C584 1.399 . S
C584 H570 0.929 . S
C584 C583 1.399 . S
C584 C585 1.385 . S
C585 H571 0.931 . S
C585 C584 1.385 . S
C585 C586 1.389 . S
C586 C585 1.389 . S
C586 C587 1.387 . S
C587 H572 0.930 . S
C587 C582 1.390 . S
C587 C586 1.387 . S
H588 C600 0.930 . S
H589 C602 0.930 . S
H590 C603 0.930 . S
H591 C607 0.959 . S
H592 C607 0.959 . S
H593 C607 0.961 . S
H594 C608 0.960 . S
H595 C608 0.961 . S
H596 C608 0.959 . S
H597 C611 0.929 . S
H598 C612 0.931 . S
H599 C614 0.930 . S
C600 H588 0.930 . S
C600 C601 1.399 . S
C600 C605 1.399 . S
C601 C600 1.399 . S
C601 C602 1.376 . S
C602 H589 0.930 . S
C602 C601 1.376 . S
C602 C603 1.388 . S
C603 H590 0.930 . S
C603 C602 1.388 . S
C603 C604 1.390 . S
C604 C603 1.390 . S
C604 C605 1.394 . S
C604 C610 1.465 . S
C605 C600 1.399 . S
C605 C604 1.394 . S
C605 C606 1.516 . S
C606 C605 1.516 . S
C606 C607 1.502 . S
C606 C608 1.561 . S
C606 C609 1.526 . S
C607 H591 0.959 . S
C607 H592 0.959 . S
C607 H593 0.961 . S
C607 C606 1.502 . S
C608 H594 0.960 . S
C608 H595 0.961 . S
C608 H596 0.959 . S
C608 C606 1.561 . S
C609 C606 1.526 . S
C609 C610 1.396 . S
C609 C614 1.390 . S
C610 C604 1.465 . S
C610 C609 1.396 . S
C610 C611 1.399 . S
C611 H597 0.929 . S
C611 C610 1.399 . S
C611 C612 1.385 . S
C612 H598 0.931 . S
C612 C611 1.385 . S
C612 C613 1.389 . S
C613 C612 1.389 . S
C613 C614 1.387 . S
C614 H599 0.930 . S
C614 C609 1.390 . S
C614 C613 1.387 . S
H615 C627 0.930 . S
H616 C629 0.930 . S
H617 C630 0.930 . S
H618 C634 0.959 . S
H619 C634 0.959 . S
H620 C634 0.961 . S
H621 C635 0.960 . S
H622 C635 0.961 . S
H623 C635 0.959 . S
H624 C638 0.929 . S
H625 C639 0.931 . S
H626 C641 0.930 . S
C627 H615 0.930 . S
C627 C628 1.399 . S
C627 C632 1.399 . S
C628 C627 1.399 . S
C628 C629 1.376 . S
C629 H616 0.930 . S
C629 C628 1.376 . S
C629 C630 1.388 . S
C630 H617 0.930 . S
C630 C629 1.388 . S
C630 C631 1.390 . S
C631 C630 1.390 . S
C631 C632 1.394 . S
C631 C637 1.465 . S
C632 C627 1.399 . S
C632 C631 1.394 . S
C632 C633 1.516 . S
C633 C632 1.516 . S
C633 C634 1.502 . S
C633 C635 1.561 . S
C633 C636 1.526 . S
C634 H618 0.959 . S
C634 H619 0.959 . S
C634 H620 0.961 . S
C634 C633 1.502 . S
C635 H621 0.960 . S
C635 H622 0.961 . S
C635 H623 0.959 . S
C635 C633 1.561 . S
C636 C633 1.526 . S
C636 C637 1.396 . S
C636 C641 1.390 . S
C637 C631 1.465 . S
C637 C636 1.396 . S
C637 C638 1.399 . S
C638 H624 0.929 . S
C638 C637 1.399 . S
C638 C639 1.385 . S
C639 H625 0.931 . S
C639 C638 1.385 . S
C639 C640 1.389 . S
C640 C639 1.389 . S
C640 C641 1.387 . S
C641 H626 0.930 . S
C641 C636 1.390 . S
C641 C640 1.387 . S
H642 C654 0.930 . S
H643 C656 0.930 . S
H644 C657 0.930 . S
H645 C661 0.959 . S
H646 C661 0.959 . S
H647 C661 0.961 . S
H648 C662 0.960 . S
H649 C662 0.961 . S
H650 C662 0.959 . S
H651 C665 0.929 . S
H652 C666 0.931 . S
H653 C668 0.930 . S
C654 H642 0.930 . S
C654 C655 1.399 . S
C654 C659 1.399 . S
C655 C654 1.399 . S
C655 C656 1.376 . S
C656 H643 0.930 . S
C656 C655 1.376 . S
C656 C657 1.388 . S
C657 H644 0.930 . S
C657 C656 1.388 . S
C657 C658 1.390 . S
C658 C657 1.390 . S
C658 C659 1.394 . S
C658 C664 1.465 . S
C659 C654 1.399 . S
C659 C658 1.394 . S
C659 C660 1.516 . S
C660 C659 1.516 . S
C660 C661 1.502 . S
C660 C662 1.561 . S
C660 C663 1.526 . S
C661 H645 0.959 . S
C661 H646 0.959 . S
C661 H647 0.961 . S
C661 C660 1.502 . S
C662 H648 0.960 . S
C662 H649 0.961 . S
C662 H650 0.959 . S
C662 C660 1.561 . S
C663 C660 1.526 . S
C663 C664 1.396 . S
C663 C668 1.390 . S
C664 C658 1.465 . S
C664 C663 1.396 . S
C664 C665 1.399 . S
C665 H651 0.929 . S
C665 C664 1.399 . S
C665 C666 1.385 . S
C666 H652 0.931 . S
C666 C665 1.385 . S
C666 C667 1.389 . S
C667 C666 1.389 . S
C667 C668 1.387 . S
C668 H653 0.930 . S
C668 C663 1.390 . S
C668 C667 1.387 . S
H669 C681 0.930 . S
H670 C683 0.930 . S
H671 C684 0.930 . S
H672 C688 0.959 . S
H673 C688 0.959 . S
H674 C688 0.961 . S
H675 C689 0.960 . S
H676 C689 0.961 . S
H677 C689 0.959 . S
H678 C692 0.929 . S
H679 C693 0.931 . S
H680 C695 0.930 . S
C681 H669 0.930 . S
C681 C682 1.399 . S
C681 C686 1.399 . S
C682 C681 1.399 . S
C682 C683 1.376 . S
C683 H670 0.930 . S
C683 C682 1.376 . S
C683 C684 1.388 . S
C684 H671 0.930 . S
C684 C683 1.388 . S
C684 C685 1.390 . S
C685 C684 1.390 . S
C685 C686 1.394 . S
C685 C691 1.465 . S
C686 C681 1.399 . S
C686 C685 1.394 . S
C686 C687 1.516 . S
C687 C686 1.516 . S
C687 C688 1.502 . S
C687 C689 1.561 . S
C687 C690 1.526 . S
C688 H672 0.959 . S
C688 H673 0.959 . S
C688 H674 0.961 . S
C688 C687 1.502 . S
C689 H675 0.960 . S
C689 H676 0.961 . S
C689 H677 0.959 . S
C689 C687 1.561 . S
C690 C687 1.526 . S
C690 C691 1.396 . S
C690 C695 1.390 . S
C691 C685 1.465 . S
C691 C690 1.396 . S
C691 C692 1.399 . S
C692 H678 0.929 . S
C692 C691 1.399 . S
C692 C693 1.385 . S
C693 H679 0.931 . S
C693 C692 1.385 . S
C693 C694 1.389 . S
C694 C693 1.389 . S
C694 C695 1.387 . S
C695 H680 0.930 . S
C695 C690 1.390 . S
C695 C694 1.387 . S
H696 C708 0.930 . S
H697 C710 0.930 . S
H698 C711 0.930 . S
H699 C715 0.959 . S
H700 C715 0.959 . S
H701 C715 0.961 . S
H702 C716 0.960 . S
H703 C716 0.961 . S
H704 C716 0.959 . S
H705 C719 0.929 . S
H706 C720 0.931 . S
H707 C722 0.930 . S
C708 H696 0.930 . S
C708 C709 1.399 . S
C708 C713 1.399 . S
C709 C708 1.399 . S
C709 C710 1.376 . S
C710 H697 0.930 . S
C710 C709 1.376 . S
C710 C711 1.388 . S
C711 H698 0.930 . S
C711 C710 1.388 . S
C711 C712 1.390 . S
C712 C711 1.390 . S
C712 C713 1.394 . S
C712 C718 1.465 . S
C713 C708 1.399 . S
C713 C712 1.394 . S
C713 C714 1.516 . S
C714 C713 1.516 . S
C714 C715 1.502 . S
C714 C716 1.561 . S
C714 C717 1.526 . S
C715 H699 0.959 . S
C715 H700 0.959 . S
C715 H701 0.961 . S
C715 C714 1.502 . S
C716 H702 0.960 . S
C716 H703 0.961 . S
C716 H704 0.959 . S
C716 C714 1.561 . S
C717 C714 1.526 . S
C717 C718 1.396 . S
C717 C722 1.390 . S
C718 C712 1.465 . S
C718 C717 1.396 . S
C718 C719 1.399 . S
C719 H705 0.929 . S
C719 C718 1.399 . S
C719 C720 1.385 . S
C720 H706 0.931 . S
C720 C719 1.385 . S
C720 C721 1.389 . S
C721 C720 1.389 . S
C721 C722 1.387 . S
C722 H707 0.930 . S
C722 C717 1.390 . S
C722 C721 1.387 . S
H723 C735 0.930 . S
H724 C737 0.930 . S
H725 C738 0.930 . S
H726 C742 0.959 . S
H727 C742 0.959 . S
H728 C742 0.961 . S
H729 C743 0.960 . S
H730 C743 0.961 . S
H731 C743 0.959 . S
H732 C746 0.929 . S
H733 C747 0.931 . S
H734 C749 0.930 . S
C735 H723 0.930 . S
C735 C736 1.399 . S
C735 C740 1.399 . S
C736 C735 1.399 . S
C736 C737 1.376 . S
C737 H724 0.930 . S
C737 C736 1.376 . S
C737 C738 1.388 . S
C738 H725 0.930 . S
C738 C737 1.388 . S
C738 C739 1.390 . S
C739 C738 1.390 . S
C739 C740 1.394 . S
C739 C745 1.465 . S
C740 C735 1.399 . S
C740 C739 1.394 . S
C740 C741 1.516 . S
C741 C740 1.516 . S
C741 C742 1.502 . S
C741 C743 1.561 . S
C741 C744 1.526 . S
C742 H726 0.959 . S
C742 H727 0.959 . S
C742 H728 0.961 . S
C742 C741 1.502 . S
C743 H729 0.960 . S
C743 H730 0.961 . S
C743 H731 0.959 . S
C743 C741 1.561 . S
C744 C741 1.526 . S
C744 C745 1.396 . S
C744 C749 1.390 . S
C745 C739 1.465 . S
C745 C744 1.396 . S
C745 C746 1.399 . S
C746 H732 0.929 . S
C746 C745 1.399 . S
C746 C747 1.385 . S
C747 H733 0.931 . S
C747 C746 1.385 . S
C747 C748 1.389 . S
C748 C747 1.389 . S
C748 C749 1.387 . S
C749 H734 0.930 . S
C749 C744 1.390 . S
C749 C748 1.387 . S
H750 C762 0.930 . S
H751 C764 0.930 . S
H752 C765 0.930 . S
H753 C769 0.959 . S
H754 C769 0.959 . S
H755 C769 0.961 . S
H756 C770 0.960 . S
H757 C770 0.961 . S
H758 C770 0.959 . S
H759 C773 0.929 . S
H760 C774 0.931 . S
H761 C776 0.930 . S
C762 H750 0.930 . S
C762 C763 1.399 . S
C762 C767 1.399 . S
C763 C762 1.399 . S
C763 C764 1.376 . S
C764 H751 0.930 . S
C764 C763 1.376 . S
C764 C765 1.388 . S
C765 H752 0.930 . S
C765 C764 1.388 . S
C765 C766 1.390 . S
C766 C765 1.390 . S
C766 C767 1.394 . S
C766 C772 1.465 . S
C767 C762 1.399 . S
C767 C766 1.394 . S
C767 C768 1.516 . S
C768 C767 1.516 . S
C768 C769 1.502 . S
C768 C770 1.561 . S
C768 C771 1.526 . S
C769 H753 0.959 . S
C769 H754 0.959 . S
C769 H755 0.961 . S
C769 C768 1.502 . S
C770 H756 0.960 . S
C770 H757 0.961 . S
C770 H758 0.959 . S
C770 C768 1.561 . S
C771 C768 1.526 . S
C771 C772 1.396 . S
C771 C776 1.390 . S
C772 C766 1.465 . S
C772 C771 1.396 . S
C772 C773 1.399 . S
C773 H759 0.929 . S
C773 C772 1.399 . S
C773 C774 1.385 . S
C774 H760 0.931 . S
C774 C773 1.385 . S
C774 C775 1.389 . S
C775 C774 1.389 . S
C775 C776 1.387 . S
C776 H761 0.930 . S
C776 C771 1.390 . S
C776 C775 1.387 . S
H777 C789 0.930 . S
H778 C791 0.930 . S
H779 C792 0.930 . S
H780 C796 0.959 . S
H781 C796 0.959 . S
H782 C796 0.961 . S
H783 C797 0.960 . S
H784 C797 0.961 . S
H785 C797 0.959 . S
H786 C800 0.929 . S
H787 C801 0.931 . S
H788 C803 0.930 . S
C789 H777 0.930 . S
C789 C790 1.399 . S
C789 C794 1.399 . S
C790 C789 1.399 . S
C790 C791 1.376 . S
C791 H778 0.930 . S
C791 C790 1.376 . S
C791 C792 1.388 . S
C792 H779 0.930 . S
C792 C791 1.388 . S
C792 C793 1.390 . S
C793 C792 1.390 . S
C793 C794 1.394 . S
C793 C799 1.465 . S
C794 C789 1.399 . S
C794 C793 1.394 . S
C794 C795 1.516 . S
C795 C794 1.516 . S
C795 C796 1.502 . S
C795 C797 1.561 . S
C795 C798 1.526 . S
C796 H780 0.959 . S
C796 H781 0.959 . S
C796 H782 0.961 . S
C796 C795 1.502 . S
C797 H783 0.960 . S
C797 H784 0.961 . S
C797 H785 0.959 . S
C797 C795 1.561 . S
C798 C795 1.526 . S
C798 C799 1.396 . S
C798 C803 1.390 . S
C799 C793 1.465 . S
C799 C798 1.396 . S
C799 C800 1.399 . S
C800 H786 0.929 . S
C800 C799 1.399 . S
C800 C801 1.385 . S
C801 H787 0.931 . S
C801 C800 1.385 . S
C801 C802 1.389 . S
C802 C801 1.389 . S
C802 C803 1.387 . S
C803 H788 0.930 . S
C803 C798 1.390 . S
C803 C802 1.387 . S
H804 C816 0.930 . S
H805 C818 0.930 . S
H806 C819 0.930 . S
H807 C823 0.959 . S
H808 C823 0.959 . S
H809 C823 0.961 . S
H810 C824 0.960 . S
H811 C824 0.961 . S
H812 C824 0.959 . S
H813 C827 0.929 . S
H814 C828 0.931 . S
H815 C830 0.930 . S
C816 H804 0.930 . S
C816 C817 1.399 . S
C816 C821 1.399 . S
C817 C816 1.399 . S
C817 C818 1.376 . S
C818 H805 0.930 . S
C818 C817 1.376 . S
C818 C819 1.388 . S
C819 H806 0.930 . S
C819 C818 1.388 . S
C819 C820 1.390 . S
C820 C819 1.390 . S
C820 C821 1.394 . S
C820 C826 1.465 . S
C821 C816 1.399 . S
C821 C820 1.394 . S
C821 C822 1.516 . S
C822 C821 1.516 . S
C822 C823 1.502 . S
C822 C824 1.561 . S
C822 C825 1.526 . S
C823 H807 0.959 . S
C823 H808 0.959 . S
C823 H809 0.961 . S
C823 C822 1.502 . S
C824 H810 0.960 . S
C824 H811 0.961 . S
C824 H812 0.959 . S
C824 C822 1.561 . S
C825 C822 1.526 . S
C825 C826 1.396 . S
C825 C830 1.390 . S
C826 C820 1.465 . S
C826 C825 1.396 . S
C826 C827 1.399 . S
C827 H813 0.929 . S
C827 C826 1.399 . S
C827 C828 1.385 . S
C828 H814 0.931 . S
C828 C827 1.385 . S
C828 C829 1.389 . S
C829 C828 1.389 . S
C829 C830 1.387 . S
C830 H815 0.930 . S
C830 C825 1.390 . S
C830 C829 1.387 . S
H831 C843 0.930 . S
H832 C845 0.930 . S
H833 C846 0.930 . S
H834 C850 0.959 . S
H835 C850 0.959 . S
H836 C850 0.961 . S
H837 C851 0.960 . S
H838 C851 0.961 . S
H839 C851 0.959 . S
H840 C854 0.929 . S
H841 C855 0.931 . S
H842 C857 0.930 . S
C843 H831 0.930 . S
C843 C844 1.399 . S
C843 C848 1.399 . S
C844 C843 1.399 . S
C844 C845 1.376 . S
C845 H832 0.930 . S
C845 C844 1.376 . S
C845 C846 1.388 . S
C846 H833 0.930 . S
C846 C845 1.388 . S
C846 C847 1.390 . S
C847 C846 1.390 . S
C847 C848 1.394 . S
C847 C853 1.465 . S
C848 C843 1.399 . S
C848 C847 1.394 . S
C848 C849 1.516 . S
C849 C848 1.516 . S
C849 C850 1.502 . S
C849 C851 1.561 . S
C849 C852 1.526 . S
C850 H834 0.959 . S
C850 H835 0.959 . S
C850 H836 0.961 . S
C850 C849 1.502 . S
C851 H837 0.960 . S
C851 H838 0.961 . S
C851 H839 0.959 . S
C851 C849 1.561 . S
C852 C849 1.526 . S
C852 C853 1.396 . S
C852 C857 1.390 . S
C853 C847 1.465 . S
C853 C852 1.396 . S
C853 C854 1.399 . S
C854 H840 0.929 . S
C854 C853 1.399 . S
C854 C855 1.385 . S
C855 H841 0.931 . S
C855 C854 1.385 . S
C855 C856 1.389 . S
C856 C855 1.389 . S
C856 C857 1.387 . S
C857 H842 0.930 . S
C857 C852 1.390 . S
C857 C856 1.387 . S
H858 C870 0.930 . S
H859 C872 0.930 . S
H860 C873 0.930 . S
H861 C877 0.959 . S
H862 C877 0.959 . S
H863 C877 0.961 . S
H864 C878 0.960 . S
H865 C878 0.961 . S
H866 C878 0.959 . S
H867 C881 0.929 . S
H868 C882 0.931 . S
H869 C884 0.930 . S
C870 H858 0.930 . S
C870 C871 1.399 . S
C870 C875 1.399 . S
C871 C870 1.399 . S
C871 C872 1.376 . S
C872 H859 0.930 . S
C872 C871 1.376 . S
C872 C873 1.388 . S
C873 H860 0.930 . S
C873 C872 1.388 . S
C873 C874 1.390 . S
C874 C873 1.390 . S
C874 C875 1.394 . S
C874 C880 1.465 . S
C875 C870 1.399 . S
C875 C874 1.394 . S
C875 C876 1.516 . S
C876 C875 1.516 . S
C876 C877 1.502 . S
C876 C878 1.561 . S
C876 C879 1.526 . S
C877 H861 0.959 . S
C877 H862 0.959 . S
C877 H863 0.961 . S
C877 C876 1.502 . S
C878 H864 0.960 . S
C878 H865 0.961 . S
C878 H866 0.959 . S
C878 C876 1.561 . S
C879 C876 1.526 . S
C879 C880 1.396 . S
C879 C884 1.390 . S
C880 C874 1.465 . S
C880 C879 1.396 . S
C880 C881 1.399 . S
C881 H867 0.929 . S
C881 C880 1.399 . S
C881 C882 1.385 . S
C882 H868 0.931 . S
C882 C881 1.385 . S
C882 C883 1.389 . S
C883 C882 1.389 . S
C883 C884 1.387 . S
C884 H869 0.930 . S
C884 C879 1.390 . S
C884 C883 1.387 . S
H885 C897 0.930 . S
H886 C899 0.930 . S
H887 C900 0.930 . S
H888 C904 0.959 . S
H889 C904 0.959 . S
H890 C904 0.961 . S
H891 C905 0.960 . S
H892 C905 0.961 . S
H893 C905 0.959 . S
H894 C908 0.929 . S
H895 C909 0.931 . S
H896 C911 0.930 . S
C897 H885 0.930 . S
C897 C898 1.399 . S
C897 C902 1.399 . S
C898 C897 1.399 . S
C898 C899 1.376 . S
C899 H886 0.930 . S
C899 C898 1.376 . S
C899 C900 1.388 . S
C900 H887 0.930 . S
C900 C899 1.388 . S
C900 C901 1.390 . S
C901 C900 1.390 . S
C901 C902 1.394 . S
C901 C907 1.465 . S
C902 C897 1.399 . S
C902 C901 1.394 . S
C902 C903 1.516 . S
C903 C902 1.516 . S
C903 C904 1.502 . S
C903 C905 1.561 . S
C903 C906 1.526 . S
C904 H888 0.959 . S
C904 H889 0.959 . S
C904 H890 0.961 . S
C904 C903 1.502 . S
C905 H891 0.960 . S
C905 H892 0.961 . S
C905 H893 0.959 . S
C905 C903 1.561 . S
C906 C903 1.526 . S
C906 C907 1.396 . S
C906 C911 1.390 . S
C907 C901 1.465 . S
C907 C906 1.396 . S
C907 C908 1.399 . S
C908 H894 0.929 . S
C908 C907 1.399 . S
C908 C909 1.385 . S
C909 H895 0.931 . S
C909 C908 1.385 . S
C909 C910 1.389 . S
C910 C909 1.389 . S
C910 C911 1.387 . S
C911 H896 0.930 . S
C911 C906 1.390 . S
C911 C910 1.387 . S
H912 C924 0.930 . S
H913 C926 0.930 . S
H914 C927 0.930 . S
H915 C931 0.962 . S
H916 C931 0.980 . S
H917 C931 0.938 1_565 S
H918 C932 0.956 1_565 S
H919 C932 0.964 . S
H920 C932 0.959 . S
H921 C935 0.929 . S
H922 C936 0.931 . S
H923 C938 0.930 . S
C924 H912 0.930 . S
C924 C925 1.399 . S
C924 C929 1.399 . S
C925 C924 1.399 . S
C925 C926 1.376 . S
C926 H913 0.930 . S
C926 C925 1.376 . S
C926 C927 1.388 . S
C927 H914 0.930 . S
C927 C926 1.388 . S
C927 C928 1.390 . S
C928 C927 1.390 . S
C928 C929 1.394 . S
C928 C934 1.465 1_565 S
C929 C924 1.399 . S
C929 C928 1.394 . S
C929 C930 1.516 1_565 S
C930 C929 1.516 1_545 S
C930 C931 1.502 . S
C930 C932 1.561 . S
C930 C933 1.526 . S
C931 H915 0.962 . S
C931 H916 0.980 . S
C931 H917 0.938 1_545 S
C931 C930 1.502 . S
C932 H918 0.956 1_545 S
C932 H919 0.964 . S
C932 H920 0.959 . S
C932 C930 1.561 . S
C933 C930 1.526 . S
C933 C934 1.396 . S
C933 C938 1.390 . S
C934 C928 1.465 1_545 S
C934 C933 1.396 . S
C934 C935 1.399 . S
C935 H921 0.929 . S
C935 C934 1.399 . S
C935 C936 1.385 . S
C936 H922 0.931 . S
C936 C935 1.385 . S
C936 C937 1.389 . S
C937 C936 1.389 . S
C937 C938 1.387 . S
C938 H923 0.930 . S
C938 C933 1.390 . S
C938 C937 1.387 . S
H939 C951 0.930 . S
H940 C953 0.930 . S
H941 C954 0.930 . S
H942 C958 0.962 . S
H943 C958 0.980 . S
H944 C958 0.938 1_455 S
H945 C959 0.956 1_455 S
H946 C959 0.964 . S
H947 C959 0.959 . S
H948 C962 0.929 . S
H949 C963 0.931 . S
H950 C965 0.930 . S
C951 H939 0.930 . S
C951 C952 1.399 . S
C951 C956 1.399 . S
C952 C951 1.399 . S
C952 C953 1.376 . S
C953 H940 0.930 . S
C953 C952 1.376 . S
C953 C954 1.388 . S
C954 H941 0.930 . S
C954 C953 1.388 . S
C954 C955 1.390 . S
C955 C954 1.390 . S
C955 C956 1.394 . S
C955 C961 1.465 1_455 S
C956 C951 1.399 . S
C956 C955 1.394 . S
C956 C957 1.516 1_455 S
C957 C956 1.516 1_655 S
C957 C958 1.502 . S
C957 C959 1.561 . S
C957 C960 1.526 . S
C958 H942 0.962 . S
C958 H943 0.980 . S
C958 H944 0.938 1_655 S
C958 C957 1.502 . S
C959 H945 0.956 1_655 S
C959 H946 0.964 . S
C959 H947 0.959 . S
C959 C957 1.561 . S
C960 C957 1.526 . S
C960 C961 1.396 . S
C960 C965 1.390 . S
C961 C955 1.465 1_655 S
C961 C960 1.396 . S
C961 C962 1.399 . S
C962 H948 0.929 . S
C962 C961 1.399 . S
C962 C963 1.385 . S
C963 H949 0.931 . S
C963 C962 1.385 . S
C963 C964 1.389 . S
C964 C963 1.389 . S
C964 C965 1.387 . S
C965 H950 0.930 . S
C965 C960 1.390 . S
C965 C964 1.387 . S
H966 C978 0.930 . S
H967 C980 0.930 . S
H968 C981 0.930 . S
H969 C985 0.962 . S
H970 C985 0.980 . S
H971 C985 0.938 1_545 S
H972 C986 0.956 1_545 S
H973 C986 0.964 . S
H974 C986 0.959 . S
H975 C989 0.929 . S
H976 C990 0.931 . S
H977 C992 0.930 . S
C978 H966 0.930 . S
C978 C979 1.399 . S
C978 C983 1.399 . S
C979 C978 1.399 . S
C979 C980 1.376 . S
C980 H967 0.930 . S
C980 C979 1.376 . S
C980 C981 1.388 . S
C981 H968 0.930 . S
C981 C980 1.388 . S
C981 C982 1.390 . S
C982 C981 1.390 . S
C982 C983 1.394 . S
C982 C988 1.465 1_545 S
C983 C978 1.399 . S
C983 C982 1.394 . S
C983 C984 1.516 1_545 S
C984 C983 1.516 1_565 S
C984 C985 1.502 . S
C984 C986 1.561 . S
C984 C987 1.526 . S
C985 H969 0.962 . S
C985 H970 0.980 . S
C985 H971 0.938 1_565 S
C985 C984 1.502 . S
C986 H972 0.956 1_565 S
C986 H973 0.964 . S
C986 H974 0.959 . S
C986 C984 1.561 . S
C987 C984 1.526 . S
C987 C988 1.396 . S
C987 C992 1.390 . S
C988 C982 1.465 1_565 S
C988 C987 1.396 . S
C988 C989 1.399 . S
C989 H975 0.929 . S
C989 C988 1.399 . S
C989 C990 1.385 . S
C990 H976 0.931 . S
C990 C989 1.385 . S
C990 C991 1.389 . S
C991 C990 1.389 . S
C991 C992 1.387 . S
C992 H977 0.930 . S
C992 C987 1.390 . S
C992 C991 1.387 . S
H993 C1005 0.930 . S
H994 C1007 0.930 . S
H995 C1008 0.930 . S
H996 C1012 0.962 . S
H997 C1012 0.980 . S
H998 C1012 0.938 1_455 S
H999 C1013 0.956 1_455 S
H1000 C1013 0.964 . S
H1001 C1013 0.959 . S
H1002 C1016 0.929 . S
H1003 C1017 0.931 . S
H1004 C1019 0.930 . S
C1005 H993 0.930 . S
C1005 C1006 1.399 . S
C1005 C1010 1.399 . S
C1006 C1005 1.399 . S
C1006 C1007 1.376 . S
C1007 H994 0.930 . S
C1007 C1006 1.376 . S
C1007 C1008 1.388 . S
C1008 H995 0.930 . S
C1008 C1007 1.388 . S
C1008 C1009 1.390 . S
C1009 C1008 1.390 . S
C1009 C1010 1.394 . S
C1009 C1015 1.465 1_455 S
C1010 C1005 1.399 . S
C1010 C1009 1.394 . S
C1010 C1011 1.516 1_455 S
C1011 C1010 1.516 1_655 S
C1011 C1012 1.502 . S
C1011 C1013 1.561 . S
C1011 C1014 1.526 . S
C1012 H996 0.962 . S
C1012 H997 0.980 . S
C1012 H998 0.938 1_655 S
C1012 C1011 1.502 . S
C1013 H999 0.956 1_655 S
C1013 H1000 0.964 . S
C1013 H1001 0.959 . S
C1013 C1011 1.561 . S
C1014 C1011 1.526 . S
C1014 C1015 1.396 . S
C1014 C1019 1.390 . S
C1015 C1009 1.465 1_655 S
C1015 C1014 1.396 . S
C1015 C1016 1.399 . S
C1016 H1002 0.929 . S
C1016 C1015 1.399 . S
C1016 C1017 1.385 . S
C1017 H1003 0.931 . S
C1017 C1016 1.385 . S
C1017 C1018 1.389 . S
C1018 C1017 1.389 . S
C1018 C1019 1.387 . S
C1019 H1004 0.930 . S
C1019 C1014 1.390 . S
C1019 C1018 1.387 . S
H1020 C1032 0.930 . S
H1021 C1034 0.930 . S
H1022 C1035 0.930 . S
H1023 C1039 0.962 . S
H1024 C1039 0.980 . S
H1025 C1039 0.938 1_556 S
H1026 C1040 0.956 1_556 S
H1027 C1040 0.964 . S
H1028 C1040 0.959 . S
H1029 C1043 0.929 . S
H1030 C1044 0.931 . S
H1031 C1046 0.930 . S
C1032 H1020 0.930 . S
C1032 C1033 1.399 . S
C1032 C1037 1.399 . S
C1033 C1032 1.399 . S
C1033 C1034 1.376 . S
C1034 H1021 0.930 . S
C1034 C1033 1.376 . S
C1034 C1035 1.388 . S
C1035 H1022 0.930 . S
C1035 C1034 1.388 . S
C1035 C1036 1.390 . S
C1036 C1035 1.390 . S
C1036 C1037 1.394 . S
C1036 C1042 1.465 1_556 S
C1037 C1032 1.399 . S
C1037 C1036 1.394 . S
C1037 C1038 1.516 1_556 S
C1038 C1037 1.516 1_554 S
C1038 C1039 1.502 . S
C1038 C1040 1.561 . S
C1038 C1041 1.526 . S
C1039 H1023 0.962 . S
C1039 H1024 0.980 . S
C1039 H1025 0.938 1_554 S
C1039 C1038 1.502 . S
C1040 H1026 0.956 1_554 S
C1040 H1027 0.964 . S
C1040 H1028 0.959 . S
C1040 C1038 1.561 . S
C1041 C1038 1.526 . S
C1041 C1042 1.396 . S
C1041 C1046 1.390 . S
C1042 C1036 1.465 1_554 S
C1042 C1041 1.396 . S
C1042 C1043 1.399 . S
C1043 H1029 0.929 . S
C1043 C1042 1.399 . S
C1043 C1044 1.385 . S
C1044 H1030 0.931 . S
C1044 C1043 1.385 . S
C1044 C1045 1.389 . S
C1045 C1044 1.389 . S
C1045 C1046 1.387 . S
C1046 H1031 0.930 . S
C1046 C1041 1.390 . S
C1046 C1045 1.387 . S
H1047 C1059 0.930 . S
H1048 C1061 0.930 . S
H1049 C1062 0.930 . S
H1050 C1066 0.962 . S
H1051 C1066 0.980 . S
H1052 C1066 0.938 1_556 S
H1053 C1067 0.956 1_556 S
H1054 C1067 0.964 . S
H1055 C1067 0.959 . S
H1056 C1070 0.929 . S
H1057 C1071 0.931 . S
H1058 C1073 0.930 . S
C1059 H1047 0.930 . S
C1059 C1060 1.399 . S
C1059 C1064 1.399 . S
C1060 C1059 1.399 . S
C1060 C1061 1.376 . S
C1061 H1048 0.930 . S
C1061 C1060 1.376 . S
C1061 C1062 1.388 . S
C1062 H1049 0.930 . S
C1062 C1061 1.388 . S
C1062 C1063 1.390 . S
C1063 C1062 1.390 . S
C1063 C1064 1.394 . S
C1063 C1069 1.465 1_556 S
C1064 C1059 1.399 . S
C1064 C1063 1.394 . S
C1064 C1065 1.516 1_556 S
C1065 C1064 1.516 1_554 S
C1065 C1066 1.502 . S
C1065 C1067 1.561 . S
C1065 C1068 1.526 . S
C1066 H1050 0.962 . S
C1066 H1051 0.980 . S
C1066 H1052 0.938 1_554 S
C1066 C1065 1.502 . S
C1067 H1053 0.956 1_554 S
C1067 H1054 0.964 . S
C1067 H1055 0.959 . S
C1067 C1065 1.561 . S
C1068 C1065 1.526 . S
C1068 C1069 1.396 . S
C1068 C1073 1.390 . S
C1069 C1063 1.465 1_554 S
C1069 C1068 1.396 . S
C1069 C1070 1.399 . S
C1070 H1056 0.929 . S
C1070 C1069 1.399 . S
C1070 C1071 1.385 . S
C1071 H1057 0.931 . S
C1071 C1070 1.385 . S
C1071 C1072 1.389 . S
C1072 C1071 1.389 . S
C1072 C1073 1.387 . S
C1073 H1058 0.930 . S
C1073 C1068 1.390 . S
C1073 C1072 1.387 . S
H1074 C1086 0.930 . S
H1075 C1088 0.930 . S
H1076 C1089 0.930 . S
H1077 C1093 0.962 . S
H1078 C1093 0.980 . S
H1079 C1093 0.938 1_554 S
H1080 C1094 0.956 1_554 S
H1081 C1094 0.964 . S
H1082 C1094 0.959 . S
H1083 C1097 0.929 . S
H1084 C1098 0.931 . S
H1085 C1100 0.930 . S
C1086 H1074 0.930 . S
C1086 C1087 1.399 . S
C1086 C1091 1.399 . S
C1087 C1086 1.399 . S
C1087 C1088 1.376 . S
C1088 H1075 0.930 . S
C1088 C1087 1.376 . S
C1088 C1089 1.388 . S
C1089 H1076 0.930 . S
C1089 C1088 1.388 . S
C1089 C1090 1.390 . S
C1090 C1089 1.390 . S
C1090 C1091 1.394 . S
C1090 C1096 1.465 1_554 S
C1091 C1086 1.399 . S
C1091 C1090 1.394 . S
C1091 C1092 1.516 1_554 S
C1092 C1091 1.516 1_556 S
C1092 C1093 1.502 . S
C1092 C1094 1.561 . S
C1092 C1095 1.526 . S
C1093 H1077 0.962 . S
C1093 H1078 0.980 . S
C1093 H1079 0.938 1_556 S
C1093 C1092 1.502 . S
C1094 H1080 0.956 1_556 S
C1094 H1081 0.964 . S
C1094 H1082 0.959 . S
C1094 C1092 1.561 . S
C1095 C1092 1.526 . S
C1095 C1096 1.396 . S
C1095 C1100 1.390 . S
C1096 C1090 1.465 1_556 S
C1096 C1095 1.396 . S
C1096 C1097 1.399 . S
C1097 H1083 0.929 . S
C1097 C1096 1.399 . S
C1097 C1098 1.385 . S
C1098 H1084 0.931 . S
C1098 C1097 1.385 . S
C1098 C1099 1.389 . S
C1099 C1098 1.389 . S
C1099 C1100 1.387 . S
C1100 H1085 0.930 . S
C1100 C1095 1.390 . S
C1100 C1099 1.387 . S
H1101 C1113 0.930 . S
H1102 C1115 0.930 . S
H1103 C1116 0.930 . S
H1104 C1120 0.962 . S
H1105 C1120 0.980 . S
H1106 C1120 0.938 1_556 S
H1107 C1121 0.956 1_556 S
H1108 C1121 0.964 . S
H1109 C1121 0.959 . S
H1110 C1124 0.929 . S
H1111 C1125 0.931 . S
H1112 C1127 0.930 . S
C1113 H1101 0.930 . S
C1113 C1114 1.399 . S
C1113 C1118 1.399 . S
C1114 C1113 1.399 . S
C1114 C1115 1.376 . S
C1115 H1102 0.930 . S
C1115 C1114 1.376 . S
C1115 C1116 1.388 . S
C1116 H1103 0.930 . S
C1116 C1115 1.388 . S
C1116 C1117 1.390 . S
C1117 C1116 1.390 . S
C1117 C1118 1.394 . S
C1117 C1123 1.465 1_556 S
C1118 C1113 1.399 . S
C1118 C1117 1.394 . S
C1118 C1119 1.516 1_556 S
C1119 C1118 1.516 1_554 S
C1119 C1120 1.502 . S
C1119 C1121 1.561 . S
C1119 C1122 1.526 . S
C1120 H1104 0.962 . S
C1120 H1105 0.980 . S
C1120 H1106 0.938 1_554 S
C1120 C1119 1.502 . S
C1121 H1107 0.956 1_554 S
C1121 H1108 0.964 . S
C1121 H1109 0.959 . S
C1121 C1119 1.561 . S
C1122 C1119 1.526 . S
C1122 C1123 1.396 . S
C1122 C1127 1.390 . S
C1123 C1117 1.465 1_554 S
C1123 C1122 1.396 . S
C1123 C1124 1.399 . S
C1124 H1110 0.929 . S
C1124 C1123 1.399 . S
C1124 C1125 1.385 . S
C1125 H1111 0.931 . S
C1125 C1124 1.385 . S
C1125 C1126 1.389 . S
C1126 C1125 1.389 . S
C1126 C1127 1.387 . S
C1127 H1112 0.930 . S
C1127 C1122 1.390 . S
C1127 C1126 1.387 . S
H1128 C1140 0.930 . S
H1129 C1142 0.930 . S
H1130 C1143 0.930 . S
H1131 C1147 0.962 . S
H1132 C1147 0.980 . S
H1133 C1147 0.938 1_455 S
H1134 C1148 0.956 1_455 S
H1135 C1148 0.964 . S
H1136 C1148 0.959 . S
H1137 C1151 0.929 . S
H1138 C1152 0.931 . S
H1139 C1154 0.930 . S
C1140 H1128 0.930 . S
C1140 C1141 1.399 . S
C1140 C1145 1.399 . S
C1141 C1140 1.399 . S
C1141 C1142 1.376 . S
C1142 H1129 0.930 . S
C1142 C1141 1.376 . S
C1142 C1143 1.388 . S
C1143 H1130 0.930 . S
C1143 C1142 1.388 . S
C1143 C1144 1.390 . S
C1144 C1143 1.390 . S
C1144 C1145 1.394 . S
C1144 C1150 1.465 1_455 S
C1145 C1140 1.399 . S
C1145 C1144 1.394 . S
C1145 C1146 1.516 1_455 S
C1146 C1145 1.516 1_655 S
C1146 C1147 1.502 . S
C1146 C1148 1.561 . S
C1146 C1149 1.526 . S
C1147 H1131 0.962 . S
C1147 H1132 0.980 . S
C1147 H1133 0.938 1_655 S
C1147 C1146 1.502 . S
C1148 H1134 0.956 1_655 S
C1148 H1135 0.964 . S
C1148 H1136 0.959 . S
C1148 C1146 1.561 . S
C1149 C1146 1.526 . S
C1149 C1150 1.396 . S
C1149 C1154 1.390 . S
C1150 C1144 1.465 1_655 S
C1150 C1149 1.396 . S
C1150 C1151 1.399 . S
C1151 H1137 0.929 . S
C1151 C1150 1.399 . S
C1151 C1152 1.385 . S
C1152 H1138 0.931 . S
C1152 C1151 1.385 . S
C1152 C1153 1.389 . S
C1153 C1152 1.389 . S
C1153 C1154 1.387 . S
C1154 H1139 0.930 . S
C1154 C1149 1.390 . S
C1154 C1153 1.387 . S
H1155 C1167 0.930 . S
H1156 C1169 0.930 . S
H1157 C1170 0.930 . S
H1158 C1174 0.962 . S
H1159 C1174 0.980 . S
H1160 C1174 0.938 1_655 S
H1161 C1175 0.956 1_655 S
H1162 C1175 0.964 . S
H1163 C1175 0.959 . S
H1164 C1178 0.929 . S
H1165 C1179 0.931 . S
H1166 C1181 0.930 . S
C1167 H1155 0.930 . S
C1167 C1168 1.399 . S
C1167 C1172 1.399 . S
C1168 C1167 1.399 . S
C1168 C1169 1.376 . S
C1169 H1156 0.930 . S
C1169 C1168 1.376 . S
C1169 C1170 1.388 . S
C1170 H1157 0.930 . S
C1170 C1169 1.388 . S
C1170 C1171 1.390 . S
C1171 C1170 1.390 . S
C1171 C1172 1.394 . S
C1171 C1177 1.465 1_655 S
C1172 C1167 1.399 . S
C1172 C1171 1.394 . S
C1172 C1173 1.516 1_655 S
C1173 C1172 1.516 1_455 S
C1173 C1174 1.502 . S
C1173 C1175 1.561 . S
C1173 C1176 1.526 . S
C1174 H1158 0.962 . S
C1174 H1159 0.980 . S
C1174 H1160 0.938 1_455 S
C1174 C1173 1.502 . S
C1175 H1161 0.956 1_455 S
C1175 H1162 0.964 . S
C1175 H1163 0.959 . S
C1175 C1173 1.561 . S
C1176 C1173 1.526 . S
C1176 C1177 1.396 . S
C1176 C1181 1.390 . S
C1177 C1171 1.465 1_455 S
C1177 C1176 1.396 . S
C1177 C1178 1.399 . S
C1178 H1164 0.929 . S
C1178 C1177 1.399 . S
C1178 C1179 1.385 . S
C1179 H1165 0.931 . S
C1179 C1178 1.385 . S
C1179 C1180 1.389 . S
C1180 C1179 1.389 . S
C1180 C1181 1.387 . S
C1181 H1166 0.930 . S
C1181 C1176 1.390 . S
C1181 C1180 1.387 . S
H1182 C1194 0.930 . S
H1183 C1196 0.930 . S
H1184 C1197 0.930 . S
H1185 C1201 0.962 . S
H1186 C1201 0.980 . S
H1187 C1201 0.938 1_545 S
H1188 C1202 0.956 1_545 S
H1189 C1202 0.964 . S
H1190 C1202 0.959 . S
H1191 C1205 0.929 . S
H1192 C1206 0.931 . S
H1193 C1208 0.930 . S
C1194 H1182 0.930 . S
C1194 C1195 1.399 . S
C1194 C1199 1.399 . S
C1195 C1194 1.399 . S
C1195 C1196 1.376 . S
C1196 H1183 0.930 . S
C1196 C1195 1.376 . S
C1196 C1197 1.388 . S
C1197 H1184 0.930 . S
C1197 C1196 1.388 . S
C1197 C1198 1.390 . S
C1198 C1197 1.390 . S
C1198 C1199 1.394 . S
C1198 C1204 1.465 1_545 S
C1199 C1194 1.399 . S
C1199 C1198 1.394 . S
C1199 C1200 1.516 1_545 S
C1200 C1199 1.516 1_565 S
C1200 C1201 1.502 . S
C1200 C1202 1.561 . S
C1200 C1203 1.526 . S
C1201 H1185 0.962 . S
C1201 H1186 0.980 . S
C1201 H1187 0.938 1_565 S
C1201 C1200 1.502 . S
C1202 H1188 0.956 1_565 S
C1202 H1189 0.964 . S
C1202 H1190 0.959 . S
C1202 C1200 1.561 . S
C1203 C1200 1.526 . S
C1203 C1204 1.396 . S
C1203 C1208 1.390 . S
C1204 C1198 1.465 1_565 S
C1204 C1203 1.396 . S
C1204 C1205 1.399 . S
C1205 H1191 0.929 . S
C1205 C1204 1.399 . S
C1205 C1206 1.385 . S
C1206 H1192 0.931 . S
C1206 C1205 1.385 . S
C1206 C1207 1.389 . S
C1207 C1206 1.389 . S
C1207 C1208 1.387 . S
C1208 H1193 0.930 . S
C1208 C1203 1.390 . S
C1208 C1207 1.387 . S
H1209 C1221 0.930 . S
H1210 C1223 0.930 . S
H1211 C1224 0.930 . S
H1212 C1228 0.962 . S
H1213 C1228 0.980 . S
H1214 C1228 0.938 1_565 S
H1215 C1229 0.956 1_565 S
H1216 C1229 0.964 . S
H1217 C1229 0.959 . S
H1218 C1232 0.929 . S
H1219 C1233 0.931 . S
H1220 C1235 0.930 . S
C1221 H1209 0.930 . S
C1221 C1222 1.399 . S
C1221 C1226 1.399 . S
C1222 C1221 1.399 . S
C1222 C1223 1.376 . S
C1223 H1210 0.930 . S
C1223 C1222 1.376 . S
C1223 C1224 1.388 . S
C1224 H1211 0.930 . S
C1224 C1223 1.388 . S
C1224 C1225 1.390 . S
C1225 C1224 1.390 . S
C1225 C1226 1.394 . S
C1225 C1231 1.465 1_565 S
C1226 C1221 1.399 . S
C1226 C1225 1.394 . S
C1226 C1227 1.516 1_565 S
C1227 C1226 1.516 1_545 S
C1227 C1228 1.502 . S
C1227 C1229 1.561 . S
C1227 C1230 1.526 . S
C1228 H1212 0.962 . S
C1228 H1213 0.980 . S
C1228 H1214 0.938 1_545 S
C1228 C1227 1.502 . S
C1229 H1215 0.956 1_545 S
C1229 H1216 0.964 . S
C1229 H1217 0.959 . S
C1229 C1227 1.561 . S
C1230 C1227 1.526 . S
C1230 C1231 1.396 . S
C1230 C1235 1.390 . S
C1231 C1225 1.465 1_545 S
C1231 C1230 1.396 . S
C1231 C1232 1.399 . S
C1232 H1218 0.929 . S
C1232 C1231 1.399 . S
C1232 C1233 1.385 . S
C1233 H1219 0.931 . S
C1233 C1232 1.385 . S
C1233 C1234 1.389 . S
C1234 C1233 1.389 . S
C1234 C1235 1.387 . S
C1235 H1220 0.930 . S
C1235 C1230 1.390 . S
C1235 C1234 1.387 . S
C277 C5 1.392 . S
C289 C161 1.402 . S
C304 C94 1.388 . S
C316 C31 1.385 . S
C331 C53 1.387 . S
C343 C117 1.385 . S
C358 C71 1.444 . S
C370 C139 1.453 . S
C385 C75 1.459 . S
C397 C204 1.461 . S
C412 C9 1.419 . S
C424 C227 1.408 . S
C439 C248 1.406 . S
C451 C27 1.418 . S
C466 C49 1.437 . S
C478 C182 1.447 . S
C493 C93 1.387 . S
C505 C7 1.394 . S
C520 C119 1.388 . S
C532 C28 1.396 . S
C547 C141 1.421 . S
C559 C50 1.409 . S
C574 C73 1.384 . S
C586 C163 1.388 . S
C601 C72 1.455 . S
C613 C181 1.460 . S
C628 C6 1.410 . S
C640 C203 1.400 . S
C655 C229 1.415 . S
C667 C29 1.404 . S
C682 C247 1.462 . S
C694 C51 1.458 . S
C709 C95 1.461 . S
C721 C159 1.461 . S
C736 C207 1.409 . S
C748 C183 1.399 . S
C763 C205 1.461 . S
C775 C225 1.461 . S
C790 C251 1.405 . S
C802 C226 1.396 . S
C817 C249 1.461 . S
C829 C185 1.457 . S
C844 C138 1.391 . S
C856 C115 1.387 . S
C871 C137 1.416 . S
C883 C160 1.405 . S
C898 C97 1.409 . S
C910 C116 1.400 . S
C925 C70 1.550 . S
C937 C8 1.545 . S
C952 C4 1.531 . S
C964 C26 1.537 . S
C979 C30 1.550 . S
C991 C48 1.546 . S
C1006 C74 1.533 . S
C1018 C52 1.528 . S
C1033 C224 1.550 . S
C1045 C96 1.553 . S
C1060 C250 1.522 . S
C1072 C114 1.527 . S
C1087 C136 1.523 . S
C1099 C184 1.520 . S
C1114 C206 1.554 . S
C1126 C158 1.552 . S
C1141 C162 1.548 . S
C1153 C118 1.552 . S
C1168 C246 1.551 . S
C1180 C202 1.554 . S
C1195 C228 1.547 . S
C1207 C180 1.551 . S
C1222 C140 1.523 . S
C1234 C92 1.520 . S
