# Generated by pormake.
# Topology ukk, (4)-cn, num edge types: 1
# Building blocks:
#     Node 0, Type 0, BuildingBlock: MUDLON_clean_sbu_0, # of connection points: 4
#     Node 1, Type 0, BuildingBlock: MUDLON_clean_sbu_0, # of connection points: 4
#     Node 2, Type 0, BuildingBlock: MUDLON_clean_sbu_0, # of connection points: 4
#     Node 3, Type 0, BuildingBlock: MUDLON_clean_sbu_0, # of connection points: 4
#     Node 4, Type 0, BuildingBlock: MUDLON_clean_sbu_0, # of connection points: 4
#     Node 5, Type 0, BuildingBlock: MUDLON_clean_sbu_0, # of connection points: 4
#     Node 6, Type 0, BuildingBlock: MUDLON_clean_sbu_0, # of connection points: 4
#     Node 7, Type 0, BuildingBlock: MUDLON_clean_sbu_0, # of connection points: 4
#     Node 8, Type 0, BuildingBlock: MUDLON_clean_sbu_0, # of connection points: 4
#     Node 9, Type 0, BuildingBlock: MUDLON_clean_sbu_0, # of connection points: 4
#     Node 10, Type 0, BuildingBlock: MUDLON_clean_sbu_0, # of connection points: 4
#     Node 11, Type 0, BuildingBlock: MUDLON_clean_sbu_0, # of connection points: 4
#     Node 12, Type 0, BuildingBlock: MUDLON_clean_sbu_0, # of connection points: 4
#     Node 13, Type 0, BuildingBlock: MUDLON_clean_sbu_0, # of connection points: 4
#     Node 14, Type 0, BuildingBlock: MUDLON_clean_sbu_0, # of connection points: 4
#     Node 15, Type 0, BuildingBlock: MUDLON_clean_sbu_0, # of connection points: 4
#     Edge 16, Type (0, 0), BuildingBlock: AJUNOK_clean_linker_0, # of connection points: 2
#     Edge 17, Type (0, 0), BuildingBlock: AJUNOK_clean_linker_0, # of connection points: 2
#     Edge 18, Type (0, 0), BuildingBlock: AJUNOK_clean_linker_0, # of connection points: 2
#     Edge 19, Type (0, 0), BuildingBlock: AJUNOK_clean_linker_0, # of connection points: 2
#     Edge 20, Type (0, 0), BuildingBlock: AJUNOK_clean_linker_0, # of connection points: 2
#     Edge 21, Type (0, 0), BuildingBlock: AJUNOK_clean_linker_0, # of connection points: 2
#     Edge 22, Type (0, 0), BuildingBlock: AJUNOK_clean_linker_0, # of connection points: 2
#     Edge 23, Type (0, 0), BuildingBlock: AJUNOK_clean_linker_0, # of connection points: 2
#     Edge 24, Type (0, 0), BuildingBlock: AJUNOK_clean_linker_0, # of connection points: 2
#     Edge 25, Type (0, 0), BuildingBlock: AJUNOK_clean_linker_0, # of connection points: 2
#     Edge 26, Type (0, 0), BuildingBlock: AJUNOK_clean_linker_0, # of connection points: 2
#     Edge 27, Type (0, 0), BuildingBlock: AJUNOK_clean_linker_0, # of connection points: 2
#     Edge 28, Type (0, 0), BuildingBlock: AJUNOK_clean_linker_0, # of connection points: 2
#     Edge 29, Type (0, 0), BuildingBlock: AJUNOK_clean_linker_0, # of connection points: 2
#     Edge 30, Type (0, 0), BuildingBlock: AJUNOK_clean_linker_0, # of connection points: 2
#     Edge 31, Type (0, 0), BuildingBlock: AJUNOK_clean_linker_0, # of connection points: 2
#     Edge 32, Type (0, 0), BuildingBlock: AJUNOK_clean_linker_0, # of connection points: 2
#     Edge 33, Type (0, 0), BuildingBlock: AJUNOK_clean_linker_0, # of connection points: 2
#     Edge 34, Type (0, 0), BuildingBlock: AJUNOK_clean_linker_0, # of connection points: 2
#     Edge 35, Type (0, 0), BuildingBlock: AJUNOK_clean_linker_0, # of connection points: 2
#     Edge 36, Type (0, 0), BuildingBlock: AJUNOK_clean_linker_0, # of connection points: 2
#     Edge 37, Type (0, 0), BuildingBlock: AJUNOK_clean_linker_0, # of connection points: 2
#     Edge 38, Type (0, 0), BuildingBlock: AJUNOK_clean_linker_0, # of connection points: 2
#     Edge 39, Type (0, 0), BuildingBlock: AJUNOK_clean_linker_0, # of connection points: 2
#     Edge 40, Type (0, 0), BuildingBlock: AJUNOK_clean_linker_0, # of connection points: 2
#     Edge 41, Type (0, 0), BuildingBlock: AJUNOK_clean_linker_0, # of connection points: 2
#     Edge 42, Type (0, 0), BuildingBlock: AJUNOK_clean_linker_0, # of connection points: 2
#     Edge 43, Type (0, 0), BuildingBlock: AJUNOK_clean_linker_0, # of connection points: 2
#     Edge 44, Type (0, 0), BuildingBlock: AJUNOK_clean_linker_0, # of connection points: 2
#     Edge 45, Type (0, 0), BuildingBlock: AJUNOK_clean_linker_0, # of connection points: 2
#     Edge 46, Type (0, 0), BuildingBlock: AJUNOK_clean_linker_0, # of connection points: 2
#     Edge 47, Type (0, 0), BuildingBlock: AJUNOK_clean_linker_0, # of connection points: 2
# Relax obj value: 0.000
# Max RMSD: 0.074
# Mean RMSD: 0.074
data_MOF--net-ukk--node1-MUDLON_clean_sbu_0--edge1-AJUNOK_clean_linker_0
_symmetry_space_group_name_H-M    P1
_symmetry_Int_Tables_number       1
_symmetry_cell_setting            triclinic
loop_
_symmetry_equiv_pos_as_xyz
'x, y, z'
_cell_length_a     44.036233
_cell_length_b     44.435671
_cell_length_c     7.1098057
_cell_angle_alpha  89.914206
_cell_angle_beta   90.082299
_cell_angle_gamma 89.690248
loop_
_atom_site_label
_atom_site_type_symbol
_atom_site_fract_x
_atom_site_fract_y
_atom_site_fract_z
_atom_type_partial_charge
Mg0 Mg 0.40069 0.13551 0.08625 0.0
C1 C 0.39143 0.20159 0.03894 0.0
O2 O 0.38399 0.19123 0.8722 0.0
C3 C 0.41988 0.08603 0.36226 0.0
O4 O 0.44687 0.0924 0.29511 0.0
C5 C 0.33529 0.12427 0.02868 0.0
O6 O 0.33898 0.12362 0.21199 0.0
O7 O 0.35866 0.12839 0.92568 0.0
O8 O 0.39887 0.18283 0.16704 0.0
O9 O 0.44559 0.12721 0.95836 0.0
C10 C 0.46545 0.14801 0.96109 0.0
O11 O 0.45678 0.17522 0.00982 0.0
O12 O 0.39745 0.10254 0.31429 0.0
Mg13 Mg 0.14179 0.64646 0.86004 0.0
C14 C 0.20656 0.6519 0.88847 0.0
O15 O 0.19601 0.64533 0.05637 0.0
C16 C 0.09336 0.6486 0.5177 0.0
O17 O 0.11411 0.65663 0.39546 0.0
C18 C 0.13794 0.70938 0.93882 0.0
O19 O 0.1455 0.7064 0.76107 0.0
O20 O 0.13426 0.68559 0.03636 0.0
O21 O 0.18757 0.6548 0.7538 0.0
O22 O 0.14611 0.60037 0.96501 0.0
C23 C 0.1563 0.58553 0.82526 0.0
O24 O 0.16102 0.60015 0.6672 0.0
O25 O 0.10071 0.64421 0.68861 0.0
Mg26 Mg 0.64616 0.90037 0.08145 0.0
C27 C 0.65306 0.83458 0.02101 0.0
O28 O 0.65145 0.84509 0.84839 0.0
C29 C 0.62891 0.95175 0.34735 0.0
O30 O 0.60185 0.94677 0.27633 0.0
C31 C 0.71009 0.91301 0.00852 0.0
O32 O 0.70763 0.91281 0.19259 0.0
O33 O 0.68625 0.90879 0.91024 0.0
O34 O 0.65108 0.85301 0.15786 0.0
O35 O 0.60137 0.90791 0.95408 0.0
C36 C 0.58152 0.88716 0.95724 0.0
O37 O 0.58964 0.86029 0.01614 0.0
O38 O 0.6504 0.93361 0.30695 0.0
Mg39 Mg 0.90892 0.39197 0.89991 0.0
C40 C 0.84401 0.38489 0.92897 0.0
O41 O 0.85421 0.39124 0.0981 0.0
C42 C 0.95567 0.38987 0.5506 0.0
O43 O 0.93416 0.38188 0.43316 0.0
C44 C 0.91336 0.32801 0.97989 0.0
O45 O 0.90501 0.33045 0.80301 0.0
O46 O 0.91712 0.35214 0.07394 0.0
O47 O 0.86315 0.38302 0.79485 0.0
O48 O 0.90509 0.43789 0.01383 0.0
C49 C 0.8902 0.45409 0.89729 0.0
O50 O 0.88045 0.44147 0.74176 0.0
O51 O 0.94931 0.3944 0.72274 0.0
Mg52 Mg 0.4006 0.39586 0.10984 0.0
C53 C 0.39917 0.33188 0.13808 0.0
O54 O 0.40254 0.34313 0.30757 0.0
C55 C 0.39287 0.45952 0.02605 0.0
O56 O 0.38348 0.45531 0.1993 0.0
C57 C 0.33518 0.39417 0.18934 0.0
O58 O 0.33767 0.38533 0.01376 0.0
O59 O 0.35945 0.39991 0.28039 0.0
O60 O 0.39681 0.35018 0.00025 0.0
O61 O 0.44567 0.39353 0.24501 0.0
C62 C 0.46371 0.41572 0.23234 0.0
O63 O 0.45313 0.44114 0.16486 0.0
O64 O 0.40079 0.43652 0.93044 0.0
Mg65 Mg 0.40378 0.64978 0.87662 0.0
C66 C 0.33828 0.65897 0.80668 0.0
O67 O 0.35071 0.66256 0.64035 0.0
C68 C 0.45847 0.66642 0.12589 0.0
O69 O 0.45647 0.69195 0.03361 0.0
C70 C 0.40456 0.71394 0.80056 0.0
O71 O 0.39078 0.71037 0.96275 0.0
O72 O 0.4137 0.69041 0.7144 0.0
O73 O 0.35563 0.65366 0.94685 0.0
O74 O 0.40742 0.60395 0.76367 0.0
C75 C 0.39968 0.58693 0.89981 0.0
O76 O 0.39007 0.59964 0.05569 0.0
O77 O 0.43763 0.64693 0.10382 0.0
Mg78 Mg 0.64857 0.64124 0.13514 0.0
C79 C 0.65786 0.70486 0.14253 0.0
O80 O 0.65901 0.69484 0.31635 0.0
C81 C 0.64876 0.57763 0.0811 0.0
O82 O 0.65014 0.58353 0.26207 0.0
C83 C 0.71349 0.6318 0.20359 0.0
O84 O 0.70988 0.6285 0.0213 0.0
O85 O 0.69002 0.63711 0.30338 0.0
O86 O 0.65363 0.68582 0.01094 0.0
O87 O 0.60427 0.64627 0.27501 0.0
C88 C 0.58227 0.6288 0.23612 0.0
O89 O 0.58774 0.60457 0.1362 0.0
O90 O 0.64793 0.59978 0.96718 0.0
Mg91 Mg 0.64757 0.38666 0.88135 0.0
C92 C 0.71275 0.37567 0.83111 0.0
O93 O 0.70123 0.37366 0.66111 0.0
C94 C 0.58806 0.40097 0.03823 0.0
O95 O 0.58915 0.41479 0.87511 0.0
C96 C 0.634 0.32453 0.78803 0.0
O97 O 0.63323 0.32628 0.97242 0.0
O98 O 0.63889 0.34859 0.69495 0.0
O99 O 0.69469 0.3803 0.96837 0.0
O100 O 0.64708 0.43404 0.79212 0.0
C101 C 0.6512 0.44931 0.94161 0.0
O102 O 0.65626 0.43461 0.09928 0.0
O103 O 0.61088 0.38535 0.09119 0.0
Mg104 Mg 0.90081 0.63889 0.60138 0.0
C105 C 0.89219 0.70417 0.55384 0.0
O106 O 0.8858 0.69267 0.38848 0.0
C107 C 0.88562 0.57911 0.73871 0.0
O108 O 0.87833 0.57968 0.55965 0.0
C109 C 0.83576 0.64027 0.51941 0.0
O110 O 0.83848 0.64978 0.69354 0.0
O111 O 0.85993 0.63399 0.42856 0.0
O112 O 0.89967 0.68621 0.68653 0.0
O113 O 0.94625 0.63067 0.48678 0.0
C114 C 0.96271 0.64912 0.39561 0.0
O115 O 0.95067 0.67436 0.33389 0.0
O116 O 0.89653 0.60285 0.81266 0.0
Mg117 Mg 0.64479 0.14099 0.36303 0.0
C118 C 0.71068 0.14575 0.43945 0.0
O119 O 0.69828 0.14419 0.60715 0.0
C120 C 0.59291 0.12317 0.09953 0.0
O121 O 0.59968 0.09644 0.16686 0.0
C122 C 0.64213 0.20532 0.44673 0.0
O123 O 0.65353 0.20334 0.27644 0.0
O124 O 0.63574 0.18097 0.53291 0.0
O125 O 0.69328 0.14511 0.29569 0.0
O126 O 0.63727 0.09652 0.49076 0.0
C127 C 0.65775 0.07624 0.47745 0.0
O128 O 0.68427 0.08364 0.40779 0.0
O129 O 0.61029 0.14515 0.13994 0.0
Mg130 Mg 0.14928 0.39745 0.59659 0.0
C131 C 0.15458 0.33263 0.57626 0.0
O132 O 0.15574 0.34199 0.40109 0.0
C133 C 0.1588 0.45848 0.6828 0.0
O134 O 0.15892 0.45463 0.49952 0.0
C135 C 0.21374 0.40249 0.51528 0.0
O136 O 0.21111 0.40318 0.69927 0.0
O137 O 0.18959 0.40011 0.4169 0.0
O138 O 0.15184 0.35203 0.70691 0.0
O139 O 0.10275 0.40455 0.49488 0.0
C140 C 0.08553 0.38765 0.39759 0.0
O141 O 0.09689 0.36353 0.3172 0.0
O142 O 0.15468 0.43557 0.78702 0.0
Mg143 Mg 0.40766 0.89767 0.38831 0.0
C144 C 0.34186 0.88746 0.44265 0.0
O145 O 0.35343 0.88065 0.60779 0.0
C146 C 0.45594 0.91418 0.09926 0.0
O147 O 0.44928 0.94151 0.15673 0.0
C148 C 0.42295 0.83391 0.48409 0.0
O149 O 0.4307 0.8353 0.30606 0.0
O150 O 0.41448 0.85804 0.56602 0.0
O151 O 0.35982 0.89564 0.31191 0.0
O152 O 0.41669 0.94213 0.50911 0.0
C153 C 0.3954 0.96137 0.52967 0.0
O154 O 0.36726 0.9526 0.50505 0.0
O155 O 0.43992 0.89238 0.15811 0.0
Mg156 Mg 0.89586 0.90047 0.61331 0.0
C157 C 0.8966 0.83461 0.65806 0.0
O158 O 0.90406 0.84487 0.82507 0.0
C159 C 0.91418 0.95565 0.3892 0.0
O160 O 0.93791 0.95264 0.4995 0.0
C161 C 0.83147 0.90498 0.68754 0.0
O162 O 0.83413 0.89565 0.51299 0.0
O163 O 0.85566 0.90918 0.78234 0.0
O164 O 0.89136 0.85357 0.52699 0.0
O165 O 0.94097 0.90242 0.74192 0.0
C166 C 0.96045 0.89247 0.62512 0.0
O167 O 0.9508 0.88242 0.46201 0.0
O168 O 0.89346 0.93575 0.39596 0.0
Mg169 Mg 0.90868 0.14274 0.37404 0.0
C170 C 0.84251 0.15383 0.35118 0.0
O171 O 0.85274 0.16151 0.18442 0.0
C172 C 0.95371 0.15294 0.72432 0.0
O173 O 0.93323 0.16997 0.8066 0.0
C174 C 0.91985 0.20758 0.30708 0.0
O175 O 0.92022 0.20509 0.49092 0.0
O176 O 0.91557 0.18391 0.20955 0.0
O177 O 0.86171 0.14544 0.47559 0.0
O178 O 0.91329 0.09924 0.23077 0.0
C179 C 0.89151 0.08048 0.22548 0.0
O180 O 0.86425 0.08973 0.27363 0.0
O181 O 0.94749 0.14033 0.5684 0.0
Mg182 Mg 0.14592 0.13923 0.67565 0.0
C183 C 0.15899 0.20337 0.70649 0.0
O184 O 0.16573 0.19227 0.87281 0.0
C185 C 0.13675 0.07946 0.55947 0.0
O186 O 0.1313 0.08216 0.7404 0.0
C187 C 0.21167 0.13352 0.73202 0.0
O188 O 0.20816 0.14225 0.55662 0.0
O189 O 0.18791 0.13 0.83219 0.0
O190 O 0.14999 0.18535 0.579 0.0
O191 O 0.10074 0.13579 0.80807 0.0
C192 C 0.08374 0.15822 0.8478 0.0
O193 O 0.09519 0.18541 0.84021 0.0
O194 O 0.14493 0.10284 0.46961 0.0
Mg195 Mg 0.14576 0.89271 0.32835 0.0
C196 C 0.21087 0.89254 0.31966 0.0
O197 O 0.2014 0.89943 0.14945 0.0
C198 C 0.09172 0.89096 0.65496 0.0
O199 O 0.10757 0.8826 0.80286 0.0
C200 C 0.13339 0.83046 0.25072 0.0
O201 O 0.13053 0.83396 0.43329 0.0
O202 O 0.13994 0.85344 0.15148 0.0
O203 O 0.19103 0.8878 0.44641 0.0
O204 O 0.14428 0.9388 0.22207 0.0
C205 C 0.14625 0.95459 0.37086 0.0
O206 O 0.15093 0.94068 0.53171 0.0
O207 O 0.10455 0.89388 0.49609 0.0
C208 C 0.43204 1.00404 0.49287 0.0
C209 C 0.40246 0.99415 0.53419 0.0
C210 C 0.43794 0.03437 0.45223 0.0
C211 C 0.41453 0.05612 0.45116 0.0
H212 H 0.45053 0.98801 0.47973 0.0
H213 H 0.46075 0.04033 0.40978 0.0
S214 S 0.33449 0.04322 0.59299 0.0
N215 N 0.35049 1.00955 0.60302 0.0
N216 N 0.36161 0.06644 0.52692 0.0
C217 C 0.38549 0.04709 0.51116 0.0
C218 C 0.37946 1.01616 0.55247 0.0
C219 C 0.04091 0.63064 0.58714 0.0
C220 C 0.06073 0.64587 0.46459 0.0
C221 C 1.00952 0.63032 0.55638 0.0
C222 C 0.99632 0.64563 0.40314 0.0
H223 H 0.04959 0.61942 0.71163 0.0
H224 H 0.99539 0.61919 0.65964 0.0
S225 S 0.03811 0.68594 0.02709 0.0
N226 N 0.06497 0.67411 0.1723 0.0
N227 N 1.00568 0.67429 0.1177 0.0
C228 C 1.01585 0.65977 0.27405 0.0
C229 C 0.04808 0.65963 0.30365 0.0
C230 C 0.61284 1.00401 0.43855 0.0
C231 C 0.63582 0.9818 0.43003 0.0
C232 C 0.61977 0.03438 0.47102 0.0
C233 C 0.64998 0.0438 0.49516 0.0
H234 H 0.58946 0.9983 0.40822 0.0
H235 H 0.6015 0.05076 0.46352 0.0
S236 S 0.71771 0.99389 0.52953 0.0
N237 N 0.68943 0.97086 0.48212 0.0
N238 N 0.70241 0.02786 0.54063 0.0
C239 C 0.67276 0.02149 0.50625 0.0
C240 C 0.66569 0.99052 0.47457 0.0
C241 C 0.04012 0.40615 0.5736 0.0
C242 C 0.05204 0.39146 0.4145 0.0
C243 C 1.00894 0.4063 0.6114 0.0
C244 C 0.98803 0.39216 0.49074 0.0
H245 H 0.05509 0.41648 0.67557 0.0
H246 H 1.00132 0.41704 0.7398 0.0
S247 S 1.00702 0.35409 0.04076 0.0
N248 N 0.04023 0.36459 0.12603 0.0
N249 N 0.98138 0.36568 0.19421 0.0
C250 C 0.99938 0.37904 0.32446 0.0
C251 C 0.03139 0.37843 0.28738 0.0
C252 C 0.38926 0.50346 0.79938 0.0
C253 C 0.40036 0.49066 0.96769 0.0
C254 C 0.3912 0.53483 0.76703 0.0
C255 C 0.40456 0.55394 0.90149 0.0
H256 H 0.37728 0.48958 0.69885 0.0
H257 H 0.38045 0.54433 0.64317 0.0
S258 S 0.44159 0.53066 0.34766 0.0
N259 N 0.42817 0.49917 0.25828 0.0
N260 N 0.43251 0.55725 0.1951 0.0
C261 C 0.41795 0.54086 0.06131 0.0
C262 C 0.41566 0.50942 0.09515 0.0
C263 C 0.49638 0.62655 0.21391 0.0
C264 C 0.4883 0.65724 0.20728 0.0
C265 C 0.52669 0.61746 0.23935 0.0
C266 C 0.55013 0.63863 0.26169 0.0
H267 H 0.47965 0.60938 0.18479 0.0
H268 H 0.532 0.59367 0.2301 0.0
S269 S 0.53998 0.72148 0.29455 0.0
N270 N 0.50548 0.70861 0.25413 0.0
N271 N 0.56234 0.69156 0.30382 0.0
C272 C 0.54188 0.66922 0.27552 0.0
C273 C 0.511 0.6785 0.24767 0.0
C274 C 0.63432 0.49432 0.11668 0.0
C275 C 0.64704 0.48239 0.95155 0.0
C276 C 0.6336 0.52523 0.14996 0.0
C277 C 0.64599 0.54578 0.02107 0.0
H278 H 0.62552 0.47955 0.22481 0.0
H279 H 0.62403 0.53298 0.28173 0.0
S280 S 0.68074 0.52641 0.56168 0.0
N281 N 0.67088 0.49354 0.65153 0.0
N282 N 0.67005 0.55218 0.71597 0.0
C283 C 0.65749 0.53445 0.85032 0.0
C284 C 0.65794 0.50261 0.81526 0.0
C285 C 0.51006 0.38228 0.21995 0.0
C286 C 0.49722 0.41123 0.24263 0.0
C287 C 0.54095 0.37853 0.17363 0.0
C288 C 0.55988 0.4036 0.14913 0.0
H289 H 0.49572 0.36255 0.22224 0.0
H290 H 0.54933 0.35618 0.14067 0.0
S291 S 0.53928 0.48344 0.23051 0.0
N292 N 0.50746 0.46487 0.26802 0.0
N293 N 0.56497 0.45768 0.17657 0.0
C294 C 0.54811 0.43224 0.18973 0.0
C295 C 0.51693 0.43609 0.23829 0.0
C296 C 0.90999 0.50597 0.96891 0.0
C297 C 0.88574 0.48701 0.91874 0.0
C298 C 0.90877 0.53715 0.92987 0.0
C299 C 0.88333 0.55002 0.83935 0.0
H300 H 0.93094 0.49635 0.02241 0.0
H301 H 0.92883 0.55059 0.95449 0.0
S302 S 0.81189 0.511 0.71515 0.0
N303 N 0.83391 0.48427 0.80307 0.0
N304 N 0.83196 0.54222 0.72644 0.0
C305 C 0.85798 0.53173 0.80687 0.0
C306 C 0.8591 0.50036 0.84761 0.0
C307 C 0.55067 0.15855 0.00916 0.0
C308 C 0.56196 0.12892 0.02007 0.0
C309 C 0.51978 0.16446 0.97589 0.0
C310 C 0.49866 0.14101 0.95199 0.0
H311 H 0.56537 0.17741 0.03812 0.0
H312 H 0.51222 0.18769 0.97936 0.0
S313 S 0.51745 0.05951 0.93091 0.0
N314 N 0.55021 0.07589 0.97652 0.0
N315 N 0.49221 0.08701 0.91474 0.0
C316 C 0.51008 0.11135 0.94551 0.0
C317 C 0.54164 0.10532 0.9795 0.0
C318 C 0.17921 0.54023 0.68143 0.0
C319 C 0.16137 0.5525 0.82656 0.0
C320 C 0.17984 0.5094 0.64673 0.0
C321 C 0.1629 0.48929 0.75636 0.0
H322 H 0.1917 0.55469 0.58656 0.0
H323 H 0.19265 0.50141 0.52644 0.0
S324 S 0.1169 0.50899 0.17543 0.0
N325 N 0.12949 0.54171 0.09758 0.0
N326 N 0.13095 0.48313 0.03237 0.0
C327 C 0.14726 0.5007 0.9136 0.0
C328 C 0.14644 0.53249 0.94883 0.0
C329 C 0.50797 0.93098 0.00454 0.0
C330 C 0.48605 0.90801 0.01193 0.0
C331 C 0.53866 0.92443 0.96977 0.0
C332 C 0.54866 0.89464 0.94156 0.0
H333 H 0.50186 0.95398 0.03863 0.0
H334 H 0.55487 0.94262 0.97886 0.0
S335 S 0.49933 0.82742 0.89911 0.0
N336 N 0.47572 0.85511 0.95214 0.0
N337 N 0.53336 0.84278 0.88876 0.0
C338 C 0.52652 0.87197 0.92807 0.0
C339 C 0.49523 0.87866 0.96255 0.0
C340 C 0.87906 0.99641 0.27611 0.0
C341 C 0.9088 0.98516 0.29592 0.0
C342 C 0.87366 0.02697 0.2368 0.0
C343 C 0.89778 0.04747 0.21509 0.0
H344 H 0.8598 0.98213 0.30546 0.0
H345 H 0.85035 0.03485 0.23578 0.0
S346 S 0.97984 0.02757 0.2103 0.0
N347 N 0.96258 0.99563 0.25951 0.0
N348 N 0.95257 0.05289 0.1844 0.0
C349 C 0.92757 0.03573 0.21425 0.0
C350 C 0.93304 1.00464 0.25533 0.0
C351 C 1.0052 0.12868 0.73204 0.0
C352 C 0.98574 0.152 0.79247 0.0
C353 C 0.03664 0.12973 0.76394 0.0
C354 C 0.05012 0.15444 0.8549 0.0
H355 H 0.99622 0.10994 0.65247 0.0
H356 H 0.05063 0.11188 0.70614 0.0
S357 S 1.00896 0.21951 0.06307 0.0
N358 N 0.98199 0.199 0.96616 0.0
N359 N 0.0411 0.20128 0.02299 0.0
C360 C 0.03074 0.17696 0.92707 0.0
C361 C 0.99858 0.17566 0.89695 0.0
C362 C 0.1203 0.99681 0.52538 0.0
C363 C 0.1389 0.98698 0.37745 0.0
C364 C 0.11816 0.02716 0.57223 0.0
C365 C 0.13472 0.04911 0.47409 0.0
H366 H 0.10846 0.98065 0.6127 0.0
H367 H 0.10454 0.03319 0.69341 0.0
S368 S 0.18294 0.03553 0.05469 0.0
N369 N 0.17129 1.00162 0.11692 0.0
N370 N 0.1674 0.05933 0.20565 0.0
C371 C 0.15134 0.04 0.31454 0.0
C372 C 0.15342 1.00871 0.26605 0.0
C373 C 1.00884 0.8844 0.8079 0.0
C374 C 0.99338 0.89663 0.65208 0.0
C375 C 0.04087 0.88377 0.81368 0.0
C376 C 0.05824 0.89555 0.66432 0.0
H377 H 0.9962 0.87388 0.92064 0.0
H378 H 0.05199 0.87284 0.93159 0.0
S379 S 0.02773 0.9349 0.24124 0.0
N380 N 0.99736 0.92374 0.35689 0.0
N381 N 0.05696 0.92362 0.36902 0.0
C382 C 0.04266 0.90991 0.51523 0.0
C383 C 1.01037 0.91014 0.5087 0.0
C384 C 0.38516 0.28606 0.95039 0.0
C385 C 0.3978 0.29867 0.11365 0.0
C386 C 0.38273 0.25472 0.92949 0.0
C387 C 0.39313 0.23468 0.07001 0.0
H388 H 0.37673 0.30046 0.83864 0.0
H389 H 0.37266 0.24619 0.80124 0.0
S390 S 0.42967 0.25624 0.52064 0.0
N391 N 0.42176 0.28856 0.41657 0.0
N392 N 0.4174 0.22994 0.37616 0.0
C393 C 0.40606 0.24703 0.23336 0.0
C394 C 0.40839 0.2789 0.25519 0.0
C395 C 0.25963 0.64454 0.00543 0.0
C396 C 0.23992 0.65465 0.86184 0.0
C397 C 0.29125 0.64666 0.98826 0.0
C398 C 0.30464 0.6588 0.82597 0.0
H399 H 0.25064 0.63458 0.13273 0.0
H400 H 0.30526 0.63819 0.10221 0.0
S401 S 0.26327 0.69037 0.41346 0.0
N402 N 0.23615 0.67852 0.555 0.0
N403 N 0.29558 0.68241 0.52123 0.0
C404 C 0.28523 0.66942 0.68186 0.0
C405 C 0.25292 0.66732 0.69989 0.0
C406 C 0.64548 0.78145 0.91359 0.0
C407 C 0.6556 0.80164 0.05273 0.0
C408 C 0.64715 0.75015 0.94023 0.0
C409 C 0.65894 0.73783 0.10751 0.0
H410 H 0.63562 0.78988 0.78401 0.0
H411 H 0.63842 0.73559 0.83096 0.0
S412 S 0.69165 0.78096 0.50668 0.0
N413 N 0.67986 0.80704 0.35758 0.0
N414 N 0.68314 0.74843 0.4086 0.0
C415 C 0.67002 0.75782 0.24539 0.0
C416 C 0.66824 0.78964 0.21809 0.0
C417 C 0.75901 0.38813 0.02079 0.0
C418 C 0.74628 0.37585 0.85684 0.0
C419 C 0.79054 0.3909 0.0414 0.0
C420 C 0.81078 0.38131 0.8998 0.0
H421 H 0.74453 0.39635 0.13275 0.0
H422 H 0.79904 0.40105 0.16937 0.0
S423 S 0.78926 0.3451 0.44969 0.0
N424 N 0.75655 0.35241 0.55375 0.0
N425 N 0.81579 0.35749 0.59397 0.0
C426 C 0.79845 0.36834 0.73681 0.0
C427 C 0.76625 0.36559 0.71527 0.0
C428 C 0.90448 0.75027 0.74305 0.0
C429 C 0.89214 0.73746 0.57937 0.0
C430 C 0.90584 0.7816 0.76603 0.0
C431 C 0.89481 0.80154 0.62698 0.0
H432 H 0.91352 0.73604 0.85375 0.0
H433 H 0.91587 0.7902 0.89427 0.0
S434 S 0.85864 0.77964 0.17613 0.0
N435 N 0.86758 0.74737 0.27778 0.0
N436 N 0.87013 0.80607 0.3222 0.0
C437 C 0.88204 0.78907 0.46355 0.0
C438 C 0.88067 0.75714 0.43976 0.0
C439 C 0.78903 0.16272 0.24091 0.0
C440 C 0.80904 0.1525 0.38293 0.0
C441 C 0.75739 0.16016 0.25893 0.0
C442 C 0.7443 0.14769 0.42115 0.0
H443 H 0.79782 0.1726 0.11284 0.0
H444 H 0.7431 0.16828 0.14532 0.0
S445 S 0.78627 0.11669 0.8328 0.0
N446 N 0.81316 0.12878 0.69039 0.0
N447 N 0.75383 0.12441 0.72595 0.0
C448 C 0.76394 0.13754 0.56518 0.0
C449 C 0.79622 0.13988 0.5459 0.0
C450 C 0.14535 0.27964 0.47916 0.0
C451 C 0.15583 0.29999 0.61575 0.0
C452 C 0.1469 0.24849 0.5083 0.0
C453 C 0.15903 0.23642 0.67545 0.0
H454 H 0.13558 0.28783 0.34871 0.0
H455 H 0.13822 0.23384 0.39935 0.0
S456 S 0.19142 0.28032 0.07244 0.0
N457 N 0.1798 0.3061 0.92081 0.0
N458 N 0.18293 0.24757 0.97702 0.0
C459 C 0.16996 0.25662 0.81265 0.0
C460 C 0.16822 0.28839 0.78279 0.0
C461 C 0.2645 0.9016 0.22176 0.0
C462 C 0.24401 0.89072 0.35763 0.0
C463 C 0.29596 0.90003 0.24922 0.0
C464 C 0.3084 0.88764 0.41442 0.0
H465 H 0.25624 0.91163 0.09233 0.0
H466 H 0.31059 0.90893 0.1404 0.0
S467 S 0.26474 0.85467 0.8113 0.0
N468 N 0.23847 0.86626 0.66154 0.0
N469 N 0.29761 0.86334 0.71452 0.0
C470 C 0.2882 0.87639 0.55133 0.0
C471 C 0.25605 0.87797 0.52291 0.0
C472 C 0.26826 0.13807 0.70024 0.0
C473 C 0.24298 0.12906 0.80824 0.0
C474 C 0.29809 0.13532 0.76875 0.0
C475 C 0.30398 0.12359 0.94889 0.0
H476 H 0.26506 0.14794 0.56221 0.0
H477 H 0.31655 0.14336 0.68192 0.0
S478 S 0.24636 0.09312 0.27933 0.0
N479 N 0.22627 0.10547 0.09854 0.0
N480 N 0.28214 0.10029 0.22765 0.0
C481 C 0.27905 0.11334 0.05557 0.0
C482 C 0.24865 0.11611 0.98548 0.0
C483 C 0.14403 0.79426 0.98898 0.0
C484 C 0.13194 0.79983 0.16841 0.0
C485 C 0.14552 0.76499 0.91632 0.0
C486 C 0.13497 0.74004 0.01983 0.0
H487 H 0.15316 0.81251 0.90557 0.0
H488 H 0.15559 0.76194 0.77869 0.0
S489 S 0.09763 0.74297 0.48687 0.0
N490 N 0.10667 0.77824 0.44142 0.0
N491 N 0.10971 0.72331 0.30471 0.0
C492 C 0.1218 0.74542 0.19653 0.0
C493 C 0.12019 0.77527 0.27061 0.0
C494 C 0.74556 0.90268 0.74073 0.0
C495 C 0.7407 0.91437 0.92174 0.0
C496 C 0.77493 0.90022 0.66617 0.0
C497 C 0.80068 0.90946 0.76901 0.0
H498 H 0.72668 0.89438 0.65823 0.0
H499 H 0.77741 0.89033 0.52786 0.0
S500 S 0.79969 0.94585 0.23846 0.0
N501 N 0.76373 0.93819 0.19467 0.0
N502 N 0.81887 0.9336 0.05422 0.0
C503 C 0.79597 0.92258 0.94652 0.0
C504 C 0.76603 0.92504 0.02272 0.0
C505 C 0.90928 0.2429 0.03878 0.0
C506 C 0.92121 0.23796 0.21962 0.0
C507 C 0.90726 0.27201 0.9628 0.0
C508 C 0.91713 0.29747 0.0641 0.0
H509 H 0.90052 0.22427 0.95725 0.0
H510 H 0.89724 0.27453 0.8244 0.0
S511 S 0.95439 0.29613 0.53259 0.0
N512 N 0.94601 0.2606 0.49059 0.0
N513 N 0.94198 0.31519 0.34822 0.0
C514 C 0.93035 0.29266 0.2418 0.0
C515 C 0.93248 0.26298 0.31918 0.0
C516 C 0.24929 0.39017 0.25004 0.0
C517 C 0.2445 0.40255 0.42933 0.0
C518 C 0.27864 0.38767 0.17441 0.0
C519 C 0.30445 0.39758 0.27442 0.0
H520 H 0.23034 0.38162 0.16921 0.0
H521 H 0.28106 0.37753 0.03678 0.0
S522 S 0.30373 0.43513 0.74041 0.0
N523 N 0.26779 0.42709 0.69904 0.0
N524 N 0.32276 0.42249 0.55665 0.0
C525 C 0.29983 0.41097 0.45125 0.0
C526 C 0.26995 0.41344 0.52854 0.0
C527 C 0.43043 0.7779 0.48191 0.0
C528 C 0.42023 0.80395 0.57651 0.0
C529 C 0.42556 0.74898 0.55542 0.0
C530 C 0.41017 0.74483 0.72664 0.0
H531 H 0.4419 0.77974 0.34766 0.0
H532 H 0.43363 0.72977 0.47598 0.0
S533 S 0.37908 0.8056 0.03185 0.0
N534 N 0.3944 0.82359 0.8527 0.0
N535 N 0.38514 0.76953 0.99093 0.0
C536 C 0.40029 0.77073 0.82458 0.0
C537 C 0.40537 0.80018 0.74985 0.0
C538 C 0.74975 0.64412 0.46495 0.0
C539 C 0.74463 0.63188 0.28552 0.0
C540 C 0.77923 0.64661 0.53835 0.0
C541 C 0.80491 0.63686 0.43618 0.0
H542 H 0.73093 0.65248 0.54803 0.0
H543 H 0.78182 0.6566 0.67637 0.0
S544 S 0.80364 0.60045 0.96701 0.0
N545 N 0.76766 0.60807 0.01195 0.0
N546 N 0.82292 0.61271 0.1505 0.0
C547 C 0.80005 0.62376 0.25878 0.0
C548 C 0.76999 0.62128 0.18369 0.0
C549 C 0.6473 0.26152 0.43557 0.0
C550 C 0.63773 0.23557 0.53345 0.0
C551 C 0.64486 0.29034 0.51497 0.0
C552 C 0.63286 0.29448 0.69619 0.0
H553 H 0.65733 0.25963 0.29705 0.0
H554 H 0.65337 0.30936 0.43589 0.0
S555 S 0.60119 0.23469 0.00349 0.0
N556 N 0.61344 0.21644 0.81602 0.0
N557 N 0.60887 0.27047 0.96522 0.0
C558 C 0.62206 0.26894 0.79272 0.0
C559 C 0.62449 0.23956 0.71165 0.0
loop_
_geom_bond_atom_site_label_1
_geom_bond_atom_site_label_2
_geom_bond_distance
_geom_bond_site_symmetry_2
_ccdc_geom_bond_type
Mg0 O7 2.141 . S
Mg0 O8 2.048 . S
Mg0 O9 2.048 . S
Mg0 O12 2.141 . S
C1 O2 1.313 1_554 S
C1 O8 1.195 . S
O2 C1 1.313 1_556 S
C3 O4 1.245 1_554 S
C3 O12 1.289 . S
O4 C3 1.245 1_556 S
C5 O6 1.245 1_554 S
C5 O7 1.289 . S
O6 C5 1.245 1_556 S
O7 Mg0 2.141 . S
O7 C5 1.289 . S
O8 Mg0 2.048 . S
O8 C1 1.195 . S
O9 Mg0 2.048 . S
O9 C10 1.195 . S
C10 O9 1.195 . S
C10 O11 1.313 . S
O11 C10 1.313 . S
O12 Mg0 2.141 . S
O12 C3 1.289 . S
Mg13 O20 2.141 1_556 S
Mg13 O21 2.048 . S
Mg13 O22 2.048 . S
Mg13 O25 2.141 . S
C14 O15 1.313 . S
C14 O21 1.195 . S
O15 C14 1.313 . S
C16 O17 1.245 . S
C16 O25 1.289 . S
O17 C16 1.245 . S
C18 O19 1.245 . S
C18 O20 1.289 1_556 S
O19 C18 1.245 . S
O20 Mg13 2.141 1_554 S
O20 C18 1.289 1_554 S
O21 Mg13 2.048 . S
O21 C14 1.195 . S
O22 Mg13 2.048 . S
O22 C23 1.195 . S
C23 O22 1.195 . S
C23 O24 1.313 . S
O24 C23 1.313 . S
O25 Mg13 2.141 . S
O25 C16 1.289 . S
Mg26 O33 2.141 . S
Mg26 O34 2.048 . S
Mg26 O35 2.048 . S
Mg26 O38 2.141 . S
C27 O28 1.313 1_554 S
C27 O34 1.195 . S
O28 C27 1.313 1_556 S
C29 O30 1.245 1_554 S
C29 O38 1.289 . S
O30 C29 1.245 1_556 S
C31 O32 1.245 1_554 S
C31 O33 1.289 . S
O32 C31 1.245 1_556 S
O33 Mg26 2.141 . S
O33 C31 1.289 . S
O34 Mg26 2.048 . S
O34 C27 1.195 . S
O35 Mg26 2.048 . S
O35 C36 1.195 . S
C36 O35 1.195 . S
C36 O37 1.313 . S
O37 C36 1.313 . S
O38 Mg26 2.141 . S
O38 C29 1.289 . S
Mg39 O46 2.141 1_556 S
Mg39 O47 2.048 . S
Mg39 O48 2.048 . S
Mg39 O51 2.141 . S
C40 O41 1.313 . S
C40 O47 1.195 . S
O41 C40 1.313 . S
C42 O43 1.245 . S
C42 O51 1.289 . S
O43 C42 1.245 . S
C44 O45 1.245 . S
C44 O46 1.289 1_556 S
O45 C44 1.245 . S
O46 Mg39 2.141 1_554 S
O46 C44 1.289 1_554 S
O47 Mg39 2.048 . S
O47 C40 1.195 . S
O48 Mg39 2.048 . S
O48 C49 1.195 . S
C49 O48 1.195 . S
C49 O50 1.313 . S
O50 C49 1.313 . S
O51 Mg39 2.141 . S
O51 C42 1.289 . S
Mg52 O59 2.141 . S
Mg52 O60 2.048 . S
Mg52 O61 2.048 1_554 S
Mg52 O64 2.141 1_554 S
C53 O54 1.313 . S
C53 O60 1.195 . S
O54 C53 1.313 . S
C55 O56 1.245 . S
C55 O64 1.289 1_554 S
O56 C55 1.245 . S
C57 O58 1.245 . S
C57 O59 1.289 . S
O58 C57 1.245 . S
O59 Mg52 2.141 . S
O59 C57 1.289 . S
O60 Mg52 2.048 . S
O60 C53 1.195 . S
O61 Mg52 2.048 1_556 S
O61 C62 1.195 1_556 S
C62 O61 1.195 1_554 S
C62 O63 1.313 . S
O63 C62 1.313 . S
O64 Mg52 2.141 1_556 S
O64 C55 1.289 1_556 S
Mg65 O72 2.141 . S
Mg65 O73 2.048 . S
Mg65 O74 2.048 . S
Mg65 O77 2.141 . S
C66 O67 1.313 1_556 S
C66 O73 1.195 . S
O67 C66 1.313 1_554 S
C68 O69 1.245 1_556 S
C68 O77 1.289 . S
O69 C68 1.245 1_554 S
C70 O71 1.245 . S
C70 O72 1.289 . S
O71 C70 1.245 . S
O72 Mg65 2.141 . S
O72 C70 1.289 . S
O73 Mg65 2.048 . S
O73 C66 1.195 . S
O74 Mg65 2.048 . S
O74 C75 1.195 . S
C75 O74 1.195 . S
C75 O76 1.313 1_556 S
O76 C75 1.313 1_554 S
O77 Mg65 2.141 . S
O77 C68 1.289 . S
Mg78 O85 2.141 . S
Mg78 O86 2.048 . S
Mg78 O87 2.048 1_554 S
Mg78 O90 2.141 1_554 S
C79 O80 1.313 . S
C79 O86 1.195 . S
O80 C79 1.313 . S
C81 O82 1.245 . S
C81 O90 1.289 1_554 S
O82 C81 1.245 . S
C83 O84 1.245 . S
C83 O85 1.289 . S
O84 C83 1.245 . S
O85 Mg78 2.141 . S
O85 C83 1.289 . S
O86 Mg78 2.048 . S
O86 C79 1.195 . S
O87 Mg78 2.048 1_556 S
O87 C88 1.195 1_556 S
C88 O87 1.195 1_554 S
C88 O89 1.313 . S
O89 C88 1.313 . S
O90 Mg78 2.141 1_556 S
O90 C81 1.289 1_556 S
Mg91 O98 2.141 . S
Mg91 O99 2.048 . S
Mg91 O100 2.048 . S
Mg91 O103 2.141 . S
C92 O93 1.313 1_556 S
C92 O99 1.195 . S
O93 C92 1.313 1_554 S
C94 O95 1.245 1_556 S
C94 O103 1.289 . S
O95 C94 1.245 1_554 S
C96 O97 1.245 . S
C96 O98 1.289 . S
O97 C96 1.245 . S
O98 Mg91 2.141 . S
O98 C96 1.289 . S
O99 Mg91 2.048 . S
O99 C92 1.195 . S
O100 Mg91 2.048 . S
O100 C101 1.195 . S
C101 O100 1.195 . S
C101 O102 1.313 1_556 S
O102 C101 1.313 1_554 S
O103 Mg91 2.141 . S
O103 C94 1.289 . S
Mg104 O111 2.141 . S
Mg104 O112 2.048 . S
Mg104 O113 2.048 . S
Mg104 O116 2.141 . S
C105 O106 1.313 . S
C105 O112 1.195 . S
O106 C105 1.313 . S
C107 O108 1.245 . S
C107 O116 1.289 . S
O108 C107 1.245 . S
C109 O110 1.245 . S
C109 O111 1.289 . S
O110 C109 1.245 . S
O111 Mg104 2.141 . S
O111 C109 1.289 . S
O112 Mg104 2.048 . S
O112 C105 1.195 . S
O113 Mg104 2.048 . S
O113 C114 1.195 . S
C114 O113 1.195 . S
C114 O115 1.313 . S
O115 C114 1.313 . S
O116 Mg104 2.141 . S
O116 C107 1.289 . S
Mg117 O124 2.141 . S
Mg117 O125 2.048 . S
Mg117 O126 2.048 . S
Mg117 O129 2.141 . S
C118 O119 1.313 . S
C118 O125 1.195 . S
O119 C118 1.313 . S
C120 O121 1.245 . S
C120 O129 1.289 . S
O121 C120 1.245 . S
C122 O123 1.245 . S
C122 O124 1.289 . S
O123 C122 1.245 . S
O124 Mg117 2.141 . S
O124 C122 1.289 . S
O125 Mg117 2.048 . S
O125 C118 1.195 . S
O126 Mg117 2.048 . S
O126 C127 1.195 . S
C127 O126 1.195 . S
C127 O128 1.313 . S
O128 C127 1.313 . S
O129 Mg117 2.141 . S
O129 C120 1.289 . S
Mg130 O137 2.141 . S
Mg130 O138 2.048 . S
Mg130 O139 2.048 . S
Mg130 O142 2.141 . S
C131 O132 1.313 . S
C131 O138 1.195 . S
O132 C131 1.313 . S
C133 O134 1.245 . S
C133 O142 1.289 . S
O134 C133 1.245 . S
C135 O136 1.245 . S
C135 O137 1.289 . S
O136 C135 1.245 . S
O137 Mg130 2.141 . S
O137 C135 1.289 . S
O138 Mg130 2.048 . S
O138 C131 1.195 . S
O139 Mg130 2.048 . S
O139 C140 1.195 . S
C140 O139 1.195 . S
C140 O141 1.313 . S
O141 C140 1.313 . S
O142 Mg130 2.141 . S
O142 C133 1.289 . S
Mg143 O150 2.141 . S
Mg143 O151 2.048 . S
Mg143 O152 2.048 . S
Mg143 O155 2.141 . S
C144 O145 1.313 . S
C144 O151 1.195 . S
O145 C144 1.313 . S
C146 O147 1.245 . S
C146 O155 1.289 . S
O147 C146 1.245 . S
C148 O149 1.245 . S
C148 O150 1.289 . S
O149 C148 1.245 . S
O150 Mg143 2.141 . S
O150 C148 1.289 . S
O151 Mg143 2.048 . S
O151 C144 1.195 . S
O152 Mg143 2.048 . S
O152 C153 1.195 . S
C153 O152 1.195 . S
C153 O154 1.313 . S
O154 C153 1.313 . S
O155 Mg143 2.141 . S
O155 C146 1.289 . S
Mg156 O163 2.141 . S
Mg156 O164 2.048 . S
Mg156 O165 2.048 . S
Mg156 O168 2.141 . S
C157 O158 1.313 . S
C157 O164 1.195 . S
O158 C157 1.313 . S
C159 O160 1.245 . S
C159 O168 1.289 . S
O160 C159 1.245 . S
C161 O162 1.245 . S
C161 O163 1.289 . S
O162 C161 1.245 . S
O163 Mg156 2.141 . S
O163 C161 1.289 . S
O164 Mg156 2.048 . S
O164 C157 1.195 . S
O165 Mg156 2.048 . S
O165 C166 1.195 . S
C166 O165 1.195 . S
C166 O167 1.313 . S
O167 C166 1.313 . S
O168 Mg156 2.141 . S
O168 C159 1.289 . S
Mg169 O176 2.141 . S
Mg169 O177 2.048 . S
Mg169 O178 2.048 . S
Mg169 O181 2.141 . S
C170 O171 1.313 . S
C170 O177 1.195 . S
O171 C170 1.313 . S
C172 O173 1.245 . S
C172 O181 1.289 . S
O173 C172 1.245 . S
C174 O175 1.245 . S
C174 O176 1.289 . S
O175 C174 1.245 . S
O176 Mg169 2.141 . S
O176 C174 1.289 . S
O177 Mg169 2.048 . S
O177 C170 1.195 . S
O178 Mg169 2.048 . S
O178 C179 1.195 . S
C179 O178 1.195 . S
C179 O180 1.313 . S
O180 C179 1.313 . S
O181 Mg169 2.141 . S
O181 C172 1.289 . S
Mg182 O189 2.141 . S
Mg182 O190 2.048 . S
Mg182 O191 2.048 . S
Mg182 O194 2.141 . S
C183 O184 1.313 . S
C183 O190 1.195 . S
O184 C183 1.313 . S
C185 O186 1.245 . S
C185 O194 1.289 . S
O186 C185 1.245 . S
C187 O188 1.245 . S
C187 O189 1.289 . S
O188 C187 1.245 . S
O189 Mg182 2.141 . S
O189 C187 1.289 . S
O190 Mg182 2.048 . S
O190 C183 1.195 . S
O191 Mg182 2.048 . S
O191 C192 1.195 . S
C192 O191 1.195 . S
C192 O193 1.313 . S
O193 C192 1.313 . S
O194 Mg182 2.141 . S
O194 C185 1.289 . S
Mg195 O202 2.141 . S
Mg195 O203 2.048 . S
Mg195 O204 2.048 . S
Mg195 O207 2.141 . S
C196 O197 1.313 . S
C196 O203 1.195 . S
O197 C196 1.313 . S
C198 O199 1.245 . S
C198 O207 1.289 . S
O199 C198 1.245 . S
C200 O201 1.245 . S
C200 O202 1.289 . S
O201 C200 1.245 . S
O202 Mg195 2.141 . S
O202 C200 1.289 . S
O203 Mg195 2.048 . S
O203 C196 1.195 . S
O204 Mg195 2.048 . S
O204 C205 1.195 . S
C205 O204 1.195 . S
C205 O206 1.313 . S
O206 C205 1.313 . S
O207 Mg195 2.141 . S
O207 C198 1.289 . S
C208 C209 1.369 . S
C208 C210 1.419 1_565 S
C208 H212 0.930 . S
C209 C208 1.369 . S
C209 C218 1.429 . S
C210 C208 1.419 1_545 S
C210 C211 1.363 . S
C210 H213 0.929 . S
C211 C210 1.363 . S
C211 C217 1.428 . S
H212 C208 0.930 . S
H213 C210 0.929 . S
S214 N215 1.613 . S
S214 N216 1.610 1_565 S
N215 S214 1.613 . S
N215 C218 1.350 . S
N216 S214 1.610 1_545 S
N216 C217 1.351 . S
C217 C211 1.428 . S
C217 N216 1.351 . S
C217 C218 1.434 1_545 S
C218 C209 1.429 . S
C218 N215 1.350 . S
C218 C217 1.434 1_565 S
C219 C220 1.369 . S
C219 C221 1.419 1_455 S
C219 H223 0.930 1_556 S
C220 C219 1.369 . S
C220 C229 1.429 . S
C221 C219 1.419 1_655 S
C221 C222 1.363 . S
C221 H224 0.929 1_556 S
C222 C221 1.363 . S
C222 C228 1.428 . S
H223 C219 0.930 1_554 S
H224 C221 0.929 1_554 S
S225 N226 1.613 . S
S225 N227 1.610 1_455 S
N226 S225 1.613 . S
N226 C229 1.350 . S
N227 S225 1.610 1_655 S
N227 C228 1.351 . S
C228 C222 1.428 . S
C228 N227 1.351 . S
C228 C229 1.434 1_655 S
C229 C220 1.429 . S
C229 N226 1.350 . S
C229 C228 1.434 1_455 S
C230 C231 1.369 . S
C230 C232 1.419 1_565 S
C230 H234 0.930 . S
C231 C230 1.369 . S
C231 C240 1.429 . S
C232 C230 1.419 1_545 S
C232 C233 1.363 . S
C232 H235 0.929 . S
C233 C232 1.363 . S
C233 C239 1.428 . S
H234 C230 0.930 . S
H235 C232 0.929 . S
S236 N237 1.613 1_545 S
S236 N238 1.610 1_556 S
N237 S236 1.613 1_565 S
N237 C240 1.350 1_556 S
N238 S236 1.610 1_554 S
N238 C239 1.352 . S
C239 C233 1.428 . S
C239 N238 1.352 . S
C239 C240 1.434 1_545 S
C240 C231 1.429 . S
C240 N237 1.350 1_554 S
C240 C239 1.434 1_565 S
C241 C242 1.369 . S
C241 C243 1.419 1_455 S
C241 H245 0.930 . S
C242 C241 1.369 . S
C242 C251 1.429 . S
C243 C241 1.419 1_655 S
C243 C244 1.363 . S
C243 H246 0.929 1_556 S
C244 C243 1.363 . S
C244 C250 1.428 . S
H245 C241 0.930 . S
H246 C243 0.929 1_554 S
S247 N248 1.613 1_655 S
S247 N249 1.610 . S
N248 S247 1.613 1_455 S
N248 C251 1.350 . S
N249 S247 1.610 . S
N249 C250 1.351 . S
C250 C244 1.428 . S
C250 N249 1.351 . S
C250 C251 1.434 1_655 S
C251 C242 1.429 . S
C251 N248 1.350 . S
C251 C250 1.434 1_455 S
C252 C253 1.369 1_556 S
C252 C254 1.419 . S
C252 H256 0.930 . S
C253 C252 1.369 1_554 S
C253 C262 1.429 . S
C254 C252 1.419 . S
C254 C255 1.363 1_556 S
C254 H257 0.929 . S
C255 C254 1.363 1_554 S
C255 C261 1.428 . S
H256 C252 0.930 . S
H257 C254 0.929 . S
S258 N259 1.613 . S
S258 N260 1.610 . S
N259 S258 1.613 . S
N259 C262 1.350 . S
N260 S258 1.610 . S
N260 C261 1.351 . S
C261 C255 1.428 . S
C261 N260 1.351 . S
C261 C262 1.434 . S
C262 C253 1.429 . S
C262 N259 1.350 . S
C262 C261 1.434 . S
C263 C264 1.369 1_554 S
C263 C265 1.419 . S
C263 H267 0.930 . S
C264 C263 1.369 1_556 S
C264 C273 1.429 . S
C265 C263 1.419 . S
C265 C266 1.363 1_554 S
C265 H268 0.929 . S
C266 C265 1.363 1_556 S
C266 C272 1.428 . S
H267 C263 0.930 . S
H268 C265 0.929 . S
S269 N270 1.613 . S
S269 N271 1.610 . S
N270 S269 1.613 . S
N270 C273 1.350 . S
N271 S269 1.610 . S
N271 C272 1.351 . S
C272 C266 1.428 . S
C272 N271 1.351 . S
C272 C273 1.434 . S
C273 C264 1.429 . S
C273 N270 1.350 . S
C273 C272 1.434 . S
C274 C275 1.369 . S
C274 C276 1.419 . S
C274 H278 0.930 . S
C275 C274 1.369 . S
C275 C284 1.429 1_554 S
C276 C274 1.419 . S
C276 C277 1.363 . S
C276 H279 0.929 . S
C277 C276 1.363 . S
C277 C283 1.428 1_554 S
H278 C274 0.930 . S
H279 C276 0.929 . S
S280 N281 1.613 . S
S280 N282 1.610 . S
N281 S280 1.613 . S
N281 C284 1.350 . S
N282 S280 1.610 . S
N282 C283 1.351 . S
C283 C277 1.428 1_556 S
C283 N282 1.351 . S
C283 C284 1.434 . S
C284 C275 1.429 1_556 S
C284 N281 1.350 . S
C284 C283 1.434 . S
C285 C286 1.369 . S
C285 C287 1.419 . S
C285 H289 0.930 . S
C286 C285 1.369 . S
C286 C295 1.429 1_556 S
C287 C285 1.419 . S
C287 C288 1.363 . S
C287 H290 0.929 . S
C288 C287 1.363 . S
C288 C294 1.428 1_556 S
H289 C285 0.930 . S
H290 C287 0.929 . S
S291 N292 1.613 . S
S291 N293 1.610 . S
N292 S291 1.613 . S
N292 C295 1.350 . S
N293 S291 1.610 . S
N293 C294 1.351 . S
C294 C288 1.428 1_554 S
C294 N293 1.351 . S
C294 C295 1.434 . S
C295 C286 1.429 1_554 S
C295 N292 1.350 . S
C295 C294 1.434 . S
C296 C297 1.369 . S
C296 C298 1.419 . S
C296 H300 0.930 . S
C297 C296 1.369 . S
C297 C306 1.429 . S
C298 C296 1.419 . S
C298 C299 1.363 . S
C298 H301 0.929 . S
C299 C298 1.363 . S
C299 C305 1.428 . S
H300 C296 0.930 . S
H301 C298 0.929 . S
S302 N303 1.613 . S
S302 N304 1.610 . S
N303 S302 1.613 . S
N303 C306 1.350 . S
N304 S302 1.610 . S
N304 C305 1.351 . S
C305 C299 1.428 . S
C305 N304 1.351 . S
C305 C306 1.434 . S
C306 C297 1.429 . S
C306 N303 1.350 . S
C306 C305 1.434 . S
C307 C308 1.369 . S
C307 C309 1.419 . S
C307 H311 0.930 . S
C308 C307 1.369 . S
C308 C317 1.429 . S
C309 C307 1.419 . S
C309 C310 1.363 . S
C309 H312 0.929 . S
C310 C309 1.363 . S
C310 C316 1.428 . S
H311 C307 0.930 . S
H312 C309 0.929 . S
S313 N314 1.613 . S
S313 N315 1.610 . S
N314 S313 1.613 . S
N314 C317 1.350 . S
N315 S313 1.610 . S
N315 C316 1.351 . S
C316 C310 1.428 . S
C316 N315 1.351 . S
C316 C317 1.434 . S
C317 C308 1.429 . S
C317 N314 1.350 . S
C317 C316 1.434 . S
C318 C319 1.369 . S
C318 C320 1.419 . S
C318 H322 0.930 . S
C319 C318 1.369 . S
C319 C328 1.429 . S
C320 C318 1.419 . S
C320 C321 1.363 . S
C320 H323 0.929 . S
C321 C320 1.363 . S
C321 C327 1.428 . S
H322 C318 0.930 . S
H323 C320 0.929 . S
S324 N325 1.613 1_554 S
S324 N326 1.610 1_554 S
N325 S324 1.613 1_556 S
N325 C328 1.350 . S
N326 S324 1.610 1_556 S
N326 C327 1.351 . S
C327 C321 1.428 . S
C327 N326 1.351 . S
C327 C328 1.434 . S
C328 C319 1.429 . S
C328 N325 1.350 . S
C328 C327 1.434 . S
C329 C330 1.369 . S
C329 C331 1.419 . S
C329 H333 0.930 . S
C330 C329 1.369 . S
C330 C339 1.429 . S
C331 C329 1.419 . S
C331 C332 1.363 . S
C331 H334 0.929 . S
C332 C331 1.363 . S
C332 C338 1.428 . S
H333 C329 0.930 . S
H334 C331 0.929 . S
S335 N336 1.613 . S
S335 N337 1.610 . S
N336 S335 1.613 . S
N336 C339 1.350 . S
N337 S335 1.610 . S
N337 C338 1.351 . S
C338 C332 1.428 . S
C338 N337 1.351 . S
C338 C339 1.434 . S
C339 C330 1.429 . S
C339 N336 1.350 . S
C339 C338 1.434 . S
C340 C341 1.369 . S
C340 C342 1.419 1_565 S
C340 H344 0.930 . S
C341 C340 1.369 . S
C341 C350 1.429 . S
C342 C340 1.419 1_545 S
C342 C343 1.363 . S
C342 H345 0.929 . S
C343 C342 1.363 . S
C343 C349 1.428 . S
H344 C340 0.930 . S
H345 C342 0.929 . S
S346 N347 1.613 1_545 S
S346 N348 1.610 . S
N347 S346 1.613 1_565 S
N347 C350 1.350 . S
N348 S346 1.610 . S
N348 C349 1.351 . S
C349 C343 1.428 . S
C349 N348 1.351 . S
C349 C350 1.434 1_545 S
C350 C341 1.429 . S
C350 N347 1.350 . S
C350 C349 1.434 1_565 S
C351 C352 1.369 . S
C351 C353 1.419 1_655 S
C351 H355 0.930 . S
C352 C351 1.369 . S
C352 C361 1.429 . S
C353 C351 1.419 1_455 S
C353 C354 1.363 . S
C353 H356 0.929 . S
C354 C353 1.363 . S
C354 C360 1.428 . S
H355 C351 0.930 . S
H356 C353 0.929 . S
S357 N358 1.613 . S
S357 N359 1.610 1_655 S
N358 S357 1.613 . S
N358 C361 1.350 . S
N359 S357 1.610 1_455 S
N359 C360 1.351 . S
C360 C354 1.428 . S
C360 N359 1.351 . S
C360 C361 1.434 1_455 S
C361 C352 1.429 . S
C361 N358 1.350 . S
C361 C360 1.434 1_655 S
C362 C363 1.369 . S
C362 C364 1.419 1_565 S
C362 H366 0.930 . S
C363 C362 1.369 . S
C363 C372 1.429 . S
C364 C362 1.419 1_545 S
C364 C365 1.363 . S
C364 H367 0.929 . S
C365 C364 1.363 . S
C365 C371 1.428 . S
H366 C362 0.930 . S
H367 C364 0.929 . S
S368 N369 1.617 . S
S368 N370 1.607 1_565 S
N369 S368 1.617 . S
N369 C372 1.350 . S
N370 S368 1.607 1_545 S
N370 C371 1.351 . S
C371 C365 1.428 . S
C371 N370 1.351 . S
C371 C372 1.434 1_545 S
C372 C363 1.429 . S
C372 N369 1.350 . S
C372 C371 1.434 1_565 S
C373 C374 1.369 . S
C373 C375 1.419 1_655 S
C373 H377 0.930 . S
C374 C373 1.369 . S
C374 C383 1.429 . S
C375 C373 1.419 1_455 S
C375 C376 1.363 . S
C375 H378 0.929 . S
C376 C375 1.363 . S
C376 C382 1.428 . S
H377 C373 0.930 . S
H378 C375 0.929 . S
S379 N380 1.613 . S
S379 N381 1.610 1_655 S
N380 S379 1.613 . S
N380 C383 1.350 . S
N381 S379 1.610 1_455 S
N381 C382 1.351 . S
C382 C376 1.428 . S
C382 N381 1.351 . S
C382 C383 1.434 1_455 S
C383 C374 1.429 . S
C383 N380 1.350 . S
C383 C382 1.434 1_655 S
C384 C385 1.369 . S
C384 C386 1.419 . S
C384 H388 0.930 . S
C385 C384 1.369 . S
C385 C394 1.429 . S
C386 C384 1.419 . S
C386 C387 1.363 . S
C386 H389 0.929 . S
C387 C386 1.363 . S
C387 C393 1.428 . S
H388 C384 0.930 . S
H389 C386 0.929 . S
S390 N391 1.613 . S
S390 N392 1.610 . S
N391 S390 1.613 . S
N391 C394 1.350 . S
N392 S390 1.610 . S
N392 C393 1.351 . S
C393 C387 1.428 . S
C393 N392 1.351 . S
C393 C394 1.434 . S
C394 C385 1.429 . S
C394 N391 1.350 . S
C394 C393 1.434 . S
C395 C396 1.369 . S
C395 C397 1.419 . S
C395 H399 0.930 . S
C396 C395 1.369 . S
C396 C405 1.429 1_556 S
C397 C395 1.419 . S
C397 C398 1.363 . S
C397 H400 0.929 . S
C398 C397 1.363 . S
C398 C404 1.428 1_556 S
H399 C395 0.930 . S
H400 C397 0.929 . S
S401 N402 1.613 . S
S401 N403 1.610 . S
N402 S401 1.613 . S
N402 C405 1.350 . S
N403 S401 1.610 . S
N403 C404 1.351 . S
C404 C398 1.428 1_554 S
C404 N403 1.351 . S
C404 C405 1.434 . S
C405 C396 1.429 1_554 S
C405 N402 1.350 . S
C405 C404 1.434 . S
C406 C407 1.369 1_556 S
C406 C408 1.419 . S
C406 H410 0.930 . S
C407 C406 1.369 1_554 S
C407 C416 1.429 . S
C408 C406 1.419 . S
C408 C409 1.363 1_556 S
C408 H411 0.929 . S
C409 C408 1.363 1_554 S
C409 C415 1.428 . S
H410 C406 0.930 . S
H411 C408 0.929 . S
S412 N413 1.613 . S
S412 N414 1.610 . S
N413 S412 1.613 . S
N413 C416 1.350 . S
N414 S412 1.610 . S
N414 C415 1.351 . S
C415 C409 1.428 . S
C415 N414 1.351 . S
C415 C416 1.434 . S
C416 C407 1.429 . S
C416 N413 1.350 . S
C416 C415 1.434 . S
C417 C418 1.369 . S
C417 C419 1.419 . S
C417 H421 0.930 . S
C418 C417 1.369 . S
C418 C427 1.429 1_556 S
C419 C417 1.419 . S
C419 C420 1.363 . S
C419 H422 0.929 . S
C420 C419 1.363 . S
C420 C426 1.428 1_556 S
H421 C417 0.930 . S
H422 C419 0.929 . S
S423 N424 1.613 . S
S423 N425 1.610 . S
N424 S423 1.613 . S
N424 C427 1.350 . S
N425 S423 1.610 . S
N425 C426 1.351 . S
C426 C420 1.428 1_554 S
C426 N425 1.351 . S
C426 C427 1.434 . S
C427 C418 1.429 1_554 S
C427 N424 1.350 . S
C427 C426 1.434 . S
C428 C429 1.369 . S
C428 C430 1.419 . S
C428 H432 0.930 . S
C429 C428 1.369 . S
C429 C438 1.429 . S
C430 C428 1.419 . S
C430 C431 1.363 . S
C430 H433 0.929 . S
C431 C430 1.363 . S
C431 C437 1.428 . S
H432 C428 0.930 . S
H433 C430 0.929 . S
S434 N435 1.613 . S
S434 N436 1.610 . S
N435 S434 1.613 . S
N435 C438 1.350 . S
N436 S434 1.610 . S
N436 C437 1.351 . S
C437 C431 1.428 . S
C437 N436 1.351 . S
C437 C438 1.434 . S
C438 C429 1.429 . S
C438 N435 1.350 . S
C438 C437 1.434 . S
C439 C440 1.369 . S
C439 C441 1.419 . S
C439 H443 0.930 . S
C440 C439 1.369 . S
C440 C449 1.429 . S
C441 C439 1.419 . S
C441 C442 1.363 . S
C441 H444 0.929 . S
C442 C441 1.363 . S
C442 C448 1.428 . S
H443 C439 0.930 . S
H444 C441 0.929 . S
S445 N446 1.613 . S
S445 N447 1.610 . S
N446 S445 1.613 . S
N446 C449 1.350 . S
N447 S445 1.610 . S
N447 C448 1.351 . S
C448 C442 1.428 . S
C448 N447 1.351 . S
C448 C449 1.434 . S
C449 C440 1.429 . S
C449 N446 1.350 . S
C449 C448 1.434 . S
C450 C451 1.369 . S
C450 C452 1.419 . S
C450 H454 0.930 . S
C451 C450 1.369 . S
C451 C460 1.429 . S
C452 C450 1.419 . S
C452 C453 1.363 . S
C452 H455 0.929 . S
C453 C452 1.363 . S
C453 C459 1.428 . S
H454 C450 0.930 . S
H455 C452 0.929 . S
S456 N457 1.613 1_554 S
S456 N458 1.610 1_554 S
N457 S456 1.613 1_556 S
N457 C460 1.350 . S
N458 S456 1.610 1_556 S
N458 C459 1.351 . S
C459 C453 1.428 . S
C459 N458 1.351 . S
C459 C460 1.434 . S
C460 C451 1.429 . S
C460 N457 1.350 . S
C460 C459 1.434 . S
C461 C462 1.369 . S
C461 C463 1.419 . S
C461 H465 0.930 . S
C462 C461 1.369 . S
C462 C471 1.429 . S
C463 C461 1.419 . S
C463 C464 1.363 . S
C463 H466 0.929 . S
C464 C463 1.363 . S
C464 C470 1.428 . S
H465 C461 0.930 . S
H466 C463 0.929 . S
S467 N468 1.613 . S
S467 N469 1.610 . S
N468 S467 1.613 . S
N468 C471 1.350 . S
N469 S467 1.610 . S
N469 C470 1.351 . S
C470 C464 1.428 . S
C470 N469 1.351 . S
C470 C471 1.434 . S
C471 C462 1.429 . S
C471 N468 1.350 . S
C471 C470 1.434 . S
C472 C473 1.369 . S
C472 C474 1.419 . S
C472 H476 0.930 . S
C473 C472 1.369 . S
C473 C482 1.429 . S
C474 C472 1.419 . S
C474 C475 1.363 . S
C474 H477 0.929 . S
C475 C474 1.363 . S
C475 C481 1.428 1_556 S
H476 C472 0.930 . S
H477 C474 0.929 . S
S478 N479 1.613 . S
S478 N480 1.610 . S
N479 S478 1.613 . S
N479 C482 1.350 1_554 S
N480 S478 1.610 . S
N480 C481 1.351 . S
C481 C475 1.428 1_554 S
C481 N480 1.351 . S
C481 C482 1.434 1_554 S
C482 C473 1.429 . S
C482 N479 1.350 1_556 S
C482 C481 1.434 1_556 S
C483 C484 1.369 . S
C483 C485 1.419 . S
C483 H487 0.930 . S
C484 C483 1.369 . S
C484 C493 1.429 . S
C485 C483 1.419 . S
C485 C486 1.363 . S
C485 H488 0.929 1_554 S
C486 C485 1.363 . S
C486 C492 1.428 . S
H487 C483 0.930 . S
H488 C485 0.929 1_556 S
S489 N490 1.613 . S
S489 N491 1.610 . S
N490 S489 1.613 . S
N490 C493 1.350 . S
N491 S489 1.610 . S
N491 C492 1.351 . S
C492 C486 1.428 . S
C492 N491 1.351 . S
C492 C493 1.434 . S
C493 C484 1.429 . S
C493 N490 1.350 . S
C493 C492 1.434 . S
C494 C495 1.369 1_554 S
C494 C496 1.419 1_554 S
C494 H498 0.930 . S
C495 C494 1.369 1_556 S
C495 C504 1.429 . S
C496 C494 1.419 1_556 S
C496 C497 1.363 . S
C496 H499 0.929 1_556 S
C497 C496 1.363 . S
C497 C503 1.428 . S
H498 C494 0.930 . S
H499 C496 0.929 1_554 S
S500 N501 1.613 . S
S500 N502 1.610 . S
N501 S500 1.613 . S
N501 C504 1.350 . S
N502 S500 1.610 . S
N502 C503 1.351 . S
C503 C497 1.428 . S
C503 N502 1.351 . S
C503 C504 1.434 . S
C504 C495 1.429 . S
C504 N501 1.350 . S
C504 C503 1.434 . S
C505 C506 1.369 . S
C505 C507 1.419 1_554 S
C505 H509 0.930 1_554 S
C506 C505 1.369 . S
C506 C515 1.429 . S
C507 C505 1.419 1_556 S
C507 C508 1.363 1_556 S
C507 H510 0.929 . S
C508 C507 1.363 1_554 S
C508 C514 1.428 . S
H509 C505 0.930 1_556 S
H510 C507 0.929 . S
S511 N512 1.613 . S
S511 N513 1.610 . S
N512 S511 1.613 . S
N512 C515 1.350 . S
N513 S511 1.610 . S
N513 C514 1.351 . S
C514 C508 1.428 . S
C514 N513 1.351 . S
C514 C515 1.434 . S
C515 C506 1.429 . S
C515 N512 1.350 . S
C515 C514 1.434 . S
C516 C517 1.369 . S
C516 C518 1.419 . S
C516 H520 0.930 . S
C517 C516 1.369 . S
C517 C526 1.429 . S
C518 C516 1.419 . S
C518 C519 1.363 . S
C518 H521 0.929 . S
C519 C518 1.363 . S
C519 C525 1.428 . S
H520 C516 0.930 . S
H521 C518 0.929 . S
S522 N523 1.613 1_556 S
S522 N524 1.610 1_556 S
N523 S522 1.613 1_554 S
N523 C526 1.350 . S
N524 S522 1.610 1_554 S
N524 C525 1.351 . S
C525 C519 1.428 . S
C525 N524 1.351 . S
C525 C526 1.434 . S
C526 C517 1.429 . S
C526 N523 1.350 . S
C526 C525 1.434 . S
C527 C528 1.369 . S
C527 C529 1.419 . S
C527 H531 0.930 . S
C528 C527 1.369 . S
C528 C537 1.429 . S
C529 C527 1.419 . S
C529 C530 1.363 . S
C529 H532 0.929 . S
C530 C529 1.363 . S
C530 C536 1.428 . S
H531 C527 0.930 . S
H532 C529 0.929 . S
S533 N534 1.613 . S
S533 N535 1.610 . S
N534 S533 1.613 . S
N534 C537 1.350 . S
N535 S533 1.610 . S
N535 C536 1.351 . S
C536 C530 1.428 . S
C536 N535 1.351 . S
C536 C537 1.434 . S
C537 C528 1.429 . S
C537 N534 1.350 . S
C537 C536 1.434 . S
C538 C539 1.369 . S
C538 C540 1.419 . S
C538 H542 0.930 . S
C539 C538 1.369 . S
C539 C548 1.429 . S
C540 C538 1.419 . S
C540 C541 1.363 . S
C540 H543 0.929 . S
C541 C540 1.363 . S
C541 C547 1.428 . S
H542 C538 0.930 . S
H543 C540 0.929 . S
S544 N545 1.613 . S
S544 N546 1.610 . S
N545 S544 1.613 . S
N545 C548 1.350 . S
N546 S544 1.610 . S
N546 C547 1.351 . S
C547 C541 1.428 . S
C547 N546 1.351 . S
C547 C548 1.434 . S
C548 C539 1.429 . S
C548 N545 1.350 . S
C548 C547 1.434 . S
C549 C550 1.369 . S
C549 C551 1.419 . S
C549 H553 0.930 . S
C550 C549 1.369 . S
C550 C559 1.429 . S
C551 C549 1.419 . S
C551 C552 1.363 . S
C551 H554 0.929 . S
C552 C551 1.363 . S
C552 C558 1.428 . S
H553 C549 0.930 . S
H554 C551 0.929 . S
S555 N556 1.613 . S
S555 N557 1.610 . S
N556 S555 1.613 . S
N556 C559 1.350 . S
N557 S555 1.610 . S
N557 C558 1.351 . S
C558 C552 1.428 . S
C558 N557 1.351 . S
C558 C559 1.434 . S
C559 C550 1.429 . S
C559 N556 1.350 . S
C559 C558 1.434 . S
C209 C153 1.521 . S
C211 C3 1.514 . S
C220 C16 1.507 . S
C222 C114 1.503 . S
C231 C29 1.513 . S
C233 C127 1.521 . S
C242 C140 1.502 . S
C244 C42 1.508 . S
C253 C55 1.512 . S
C255 C75 1.522 1_554 S
C264 C68 1.510 . S
C266 C88 1.506 1_556 S
C275 C101 1.522 1_554 S
C277 C81 1.515 . S
C286 C62 1.503 1_556 S
C288 C94 1.508 . S
C297 C49 1.521 . S
C299 C107 1.513 . S
C308 C120 1.510 . S
C310 C10 1.505 . S
C319 C23 1.522 . S
C321 C133 1.515 . S
C330 C146 1.510 . S
C332 C36 1.506 . S
C341 C159 1.513 . S
C343 C179 1.522 . S
C352 C172 1.507 . S
C354 C192 1.503 . S
C363 C205 1.521 . S
C365 C185 1.514 . S
C374 C166 1.507 . S
C376 C198 1.511 . S
C385 C53 1.518 . S
C387 C1 1.518 . S
C396 C14 1.501 . S
C398 C66 1.499 . S
C407 C27 1.519 . S
C409 C79 1.519 . S
C418 C92 1.497 . S
C420 C40 1.502 . S
C429 C105 1.518 . S
C431 C157 1.518 . S
C440 C170 1.501 . S
C442 C118 1.498 . S
C451 C131 1.519 . S
C453 C183 1.519 . S
C462 C196 1.500 . S
C464 C144 1.499 . S
C473 C187 1.509 . S
C475 C5 1.516 1_556 S
C484 C200 1.558 . S
C486 C18 1.558 1_554 S
C495 C31 1.509 1_556 S
C497 C161 1.516 . S
C506 C174 1.558 . S
C508 C44 1.558 1_554 S
C517 C135 1.509 . S
C519 C57 1.516 . S
C528 C148 1.558 . S
C530 C70 1.558 . S
C539 C83 1.511 . S
C541 C109 1.514 . S
C550 C122 1.558 . S
C552 C96 1.558 . S
