# Generated by pormake.
# Topology vbm, (6)-cn, num edge types: 1
# Building blocks:
#     Node 0, Type 0, BuildingBlock: BETDIP_clean_sbu_0, # of connection points: 6
#     Node 1, Type 0, BuildingBlock: BETDIP_clean_sbu_0, # of connection points: 6
#     Node 2, Type 0, BuildingBlock: BETDIP_clean_sbu_0, # of connection points: 6
#     Node 3, Type 0, BuildingBlock: BETDIP_clean_sbu_0, # of connection points: 6
#     Node 4, Type 0, BuildingBlock: BETDIP_clean_sbu_0, # of connection points: 6
#     Node 5, Type 0, BuildingBlock: BETDIP_clean_sbu_0, # of connection points: 6
#     Node 6, Type 0, BuildingBlock: BETDIP_clean_sbu_0, # of connection points: 6
#     Node 7, Type 0, BuildingBlock: BETDIP_clean_sbu_0, # of connection points: 6
#     Node 8, Type 0, BuildingBlock: BETDIP_clean_sbu_0, # of connection points: 6
#     Node 9, Type 0, BuildingBlock: BETDIP_clean_sbu_0, # of connection points: 6
#     Node 10, Type 0, BuildingBlock: BETDIP_clean_sbu_0, # of connection points: 6
#     Node 11, Type 0, BuildingBlock: BETDIP_clean_sbu_0, # of connection points: 6
#     Node 12, Type 0, BuildingBlock: BETDIP_clean_sbu_0, # of connection points: 6
#     Node 13, Type 0, BuildingBlock: BETDIP_clean_sbu_0, # of connection points: 6
#     Node 14, Type 0, BuildingBlock: BETDIP_clean_sbu_0, # of connection points: 6
#     Node 15, Type 0, BuildingBlock: BETDIP_clean_sbu_0, # of connection points: 6
#     Edge 16, Type (0, 0), BuildingBlock: EZIPEK_clean_linker_0, # of connection points: 2
#     Edge 17, Type (0, 0), BuildingBlock: EZIPEK_clean_linker_0, # of connection points: 2
#     Edge 18, Type (0, 0), BuildingBlock: EZIPEK_clean_linker_0, # of connection points: 2
#     Edge 19, Type (0, 0), BuildingBlock: EZIPEK_clean_linker_0, # of connection points: 2
#     Edge 20, Type (0, 0), BuildingBlock: EZIPEK_clean_linker_0, # of connection points: 2
#     Edge 21, Type (0, 0), BuildingBlock: EZIPEK_clean_linker_0, # of connection points: 2
#     Edge 22, Type (0, 0), BuildingBlock: EZIPEK_clean_linker_0, # of connection points: 2
#     Edge 23, Type (0, 0), BuildingBlock: EZIPEK_clean_linker_0, # of connection points: 2
#     Edge 24, Type (0, 0), BuildingBlock: EZIPEK_clean_linker_0, # of connection points: 2
#     Edge 25, Type (0, 0), BuildingBlock: EZIPEK_clean_linker_0, # of connection points: 2
#     Edge 26, Type (0, 0), BuildingBlock: EZIPEK_clean_linker_0, # of connection points: 2
#     Edge 27, Type (0, 0), BuildingBlock: EZIPEK_clean_linker_0, # of connection points: 2
#     Edge 28, Type (0, 0), BuildingBlock: EZIPEK_clean_linker_0, # of connection points: 2
#     Edge 29, Type (0, 0), BuildingBlock: EZIPEK_clean_linker_0, # of connection points: 2
#     Edge 30, Type (0, 0), BuildingBlock: EZIPEK_clean_linker_0, # of connection points: 2
#     Edge 31, Type (0, 0), BuildingBlock: EZIPEK_clean_linker_0, # of connection points: 2
#     Edge 32, Type (0, 0), BuildingBlock: EZIPEK_clean_linker_0, # of connection points: 2
#     Edge 33, Type (0, 0), BuildingBlock: EZIPEK_clean_linker_0, # of connection points: 2
#     Edge 34, Type (0, 0), BuildingBlock: EZIPEK_clean_linker_0, # of connection points: 2
#     Edge 35, Type (0, 0), BuildingBlock: EZIPEK_clean_linker_0, # of connection points: 2
#     Edge 36, Type (0, 0), BuildingBlock: EZIPEK_clean_linker_0, # of connection points: 2
#     Edge 37, Type (0, 0), BuildingBlock: EZIPEK_clean_linker_0, # of connection points: 2
#     Edge 38, Type (0, 0), BuildingBlock: EZIPEK_clean_linker_0, # of connection points: 2
#     Edge 39, Type (0, 0), BuildingBlock: EZIPEK_clean_linker_0, # of connection points: 2
#     Edge 40, Type (0, 0), BuildingBlock: EZIPEK_clean_linker_0, # of connection points: 2
#     Edge 41, Type (0, 0), BuildingBlock: EZIPEK_clean_linker_0, # of connection points: 2
#     Edge 42, Type (0, 0), BuildingBlock: EZIPEK_clean_linker_0, # of connection points: 2
#     Edge 43, Type (0, 0), BuildingBlock: EZIPEK_clean_linker_0, # of connection points: 2
#     Edge 44, Type (0, 0), BuildingBlock: EZIPEK_clean_linker_0, # of connection points: 2
#     Edge 45, Type (0, 0), BuildingBlock: EZIPEK_clean_linker_0, # of connection points: 2
#     Edge 46, Type (0, 0), BuildingBlock: EZIPEK_clean_linker_0, # of connection points: 2
#     Edge 47, Type (0, 0), BuildingBlock: EZIPEK_clean_linker_0, # of connection points: 2
#     Edge 48, Type (0, 0), BuildingBlock: EZIPEK_clean_linker_0, # of connection points: 2
#     Edge 49, Type (0, 0), BuildingBlock: EZIPEK_clean_linker_0, # of connection points: 2
#     Edge 50, Type (0, 0), BuildingBlock: EZIPEK_clean_linker_0, # of connection points: 2
#     Edge 51, Type (0, 0), BuildingBlock: EZIPEK_clean_linker_0, # of connection points: 2
#     Edge 52, Type (0, 0), BuildingBlock: EZIPEK_clean_linker_0, # of connection points: 2
#     Edge 53, Type (0, 0), BuildingBlock: EZIPEK_clean_linker_0, # of connection points: 2
#     Edge 54, Type (0, 0), BuildingBlock: EZIPEK_clean_linker_0, # of connection points: 2
#     Edge 55, Type (0, 0), BuildingBlock: EZIPEK_clean_linker_0, # of connection points: 2
#     Edge 56, Type (0, 0), BuildingBlock: EZIPEK_clean_linker_0, # of connection points: 2
#     Edge 57, Type (0, 0), BuildingBlock: EZIPEK_clean_linker_0, # of connection points: 2
#     Edge 58, Type (0, 0), BuildingBlock: EZIPEK_clean_linker_0, # of connection points: 2
#     Edge 59, Type (0, 0), BuildingBlock: EZIPEK_clean_linker_0, # of connection points: 2
#     Edge 60, Type (0, 0), BuildingBlock: EZIPEK_clean_linker_0, # of connection points: 2
#     Edge 61, Type (0, 0), BuildingBlock: EZIPEK_clean_linker_0, # of connection points: 2
#     Edge 62, Type (0, 0), BuildingBlock: EZIPEK_clean_linker_0, # of connection points: 2
#     Edge 63, Type (0, 0), BuildingBlock: EZIPEK_clean_linker_0, # of connection points: 2
# Relax obj value: 0.068
# Max RMSD: 0.155
# Mean RMSD: 0.155
data_MOF--net-vbm--node1-BETDIP_clean_sbu_0--edge1-EZIPEK_clean_linker_0
_symmetry_space_group_name_H-M    P1
_symmetry_Int_Tables_number       1
_symmetry_cell_setting            triclinic
loop_
_symmetry_equiv_pos_as_xyz
'x, y, z'
_cell_length_a     39.247483
_cell_length_b     21.14324
_cell_length_c     39.229303
_cell_angle_alpha  89.565195
_cell_angle_beta   90.007221
_cell_angle_gamma 89.917428
loop_
_atom_site_label
_atom_site_type_symbol
_atom_site_fract_x
_atom_site_fract_y
_atom_site_fract_z
_atom_type_partial_charge
Tb0 Tb 0.13121 0.09468 0.15778 0.0
Tb1 Tb 0.09303 0.21446 0.16801 0.0
C2 C 0.15637 0.98481 0.15929 0.0
C3 C 0.1459 0.91782 0.16138 0.0
C4 C 0.12775 0.89352 0.18951 0.0
C5 C 0.11996 0.82898 0.19144 0.0
C6 C 0.1301 0.78803 0.16529 0.0
C7 C 0.14798 0.81232 0.13718 0.0
C8 C 0.15592 0.87661 0.13532 0.0
C9 C 0.11999 0.16222 0.10127 0.0
C10 C 0.05031 0.09367 0.16269 0.0
C11 C 0.06937 0.32484 0.16258 0.0
C12 C 0.0816 0.39096 0.16386 0.0
C13 C 0.07983 0.42886 0.13433 0.0
C14 C 0.08904 0.49264 0.13535 0.0
C15 C 0.09989 0.51977 0.166 0.0
C16 C 0.10216 0.48199 0.19548 0.0
C17 C 0.09316 0.41802 0.19443 0.0
C18 C 0.1043 0.14906 0.22534 0.0
C19 C 0.17379 0.21663 0.16608 0.0
O20 O 0.15194 1.01973 0.18628 0.0
O21 O 0.14876 1.01517 0.13118 0.0
O22 O 0.0993 0.15292 0.12547 0.0
O23 O 0.14758 0.13109 0.10811 0.0
O24 O 0.07892 0.0613 0.16683 0.0
O25 O 0.04988 0.15525 0.15777 0.0
O26 O 0.07933 0.29116 0.13654 0.0
O27 O 0.06953 0.29221 0.19104 0.0
O28 O 0.12445 0.15546 0.20036 0.0
O29 O 0.07745 0.18257 0.2186 0.0
O30 O 0.14508 0.24856 0.16294 0.0
O31 O 0.17469 0.1544 0.16864 0.0
H32 H 0.11985 0.92407 0.2101 0.0
H33 H 0.10614 0.81088 0.21332 0.0
H34 H 0.156 0.78134 0.11681 0.0
H35 H 0.17021 0.89412 0.11358 0.0
H36 H 0.07078 0.40935 0.11053 0.0
H37 H 0.08709 0.5212 0.11239 0.0
H38 H 0.11045 0.5023 0.21935 0.0
H39 H 0.09473 0.39021 0.21768 0.0
Tb40 Tb 0.83421 0.99022 0.16658 0.0
Tb41 Tb 0.87305 0.8711 0.17025 0.0
C42 C 0.81061 0.09975 0.17651 0.0
C43 C 0.81983 0.16706 0.17151 0.0
C44 C 0.8467 0.19492 0.18982 0.0
C45 C 0.85316 0.25977 0.18672 0.0
C46 C 0.83295 0.29784 0.16531 0.0
C47 C 0.80649 0.27008 0.14662 0.0
C48 C 0.79989 0.2053 0.14984 0.0
C49 C 0.84013 0.93306 0.10675 0.0
C50 C 0.91576 0.99017 0.16066 0.0
C51 C 0.89588 0.76003 0.16529 0.0
C52 C 0.88263 0.69441 0.16428 0.0
C53 C 0.86948 0.66849 0.13404 0.0
C54 C 0.85943 0.60498 0.13304 0.0
C55 C 0.86242 0.56645 0.16217 0.0
C56 C 0.87494 0.59234 0.19247 0.0
C57 C 0.88508 0.65562 0.19348 0.0
C58 C 0.86656 0.93162 0.22955 0.0
C59 C 0.79321 0.86649 0.17225 0.0
O60 O 0.82791 0.06736 0.19914 0.0
O61 O 0.80439 0.06675 0.1492 0.0
O62 O 0.86294 0.93698 0.12948 0.0
O63 O 0.8142 0.9658 0.1167 0.0
O64 O 0.88759 1.02292 0.16679 0.0
O65 O 0.91557 0.9287 0.15616 0.0
O66 O 0.88983 0.79698 0.13904 0.0
O67 O 0.89259 0.78986 0.19416 0.0
O68 O 0.84402 0.92484 0.20683 0.0
O69 O 0.89395 0.90416 0.2187 0.0
O70 O 0.82143 0.83766 0.16329 0.0
O71 O 0.79277 0.92688 0.18054 0.0
H72 H 0.86242 0.16696 0.20692 0.0
H73 H 0.8737 0.28047 0.2013 0.0
H74 H 0.79066 0.29877 0.12996 0.0
H75 H 0.77882 0.18519 0.13575 0.0
H76 H 0.86747 0.69684 0.11102 0.0
H77 H 0.84986 0.58558 0.10943 0.0
H78 H 0.87749 0.56315 0.21515 0.0
H79 H 0.89541 0.67393 0.21703 0.0
Tb80 Tb 0.13494 0.99922 0.39844 0.0
Tb81 Tb 0.1032 0.87372 0.38553 0.0
C82 C 0.16395 0.1047 0.3921 0.0
C83 C 0.15719 0.17219 0.39897 0.0
C84 C 0.12641 0.20107 0.38897 0.0
C85 C 0.12199 0.26636 0.39239 0.0
C86 C 0.14811 0.30379 0.406 0.0
C87 C 0.17836 0.27475 0.41714 0.0
C88 C 0.1829 0.20945 0.4135 0.0
C89 C 0.11429 0.94292 0.45551 0.0
C90 C 0.05518 0.98299 0.40271 0.0
C91 C 0.08372 0.76068 0.38151 0.0
C92 C 0.09633 0.69624 0.3884 0.0
C93 C 0.12101 0.68347 0.41354 0.0
C94 C 0.13219 0.62122 0.41927 0.0
C95 C 0.11899 0.57146 0.39974 0.0
C96 C 0.09464 0.58455 0.37451 0.0
C97 C 0.08338 0.64642 0.36894 0.0
C98 C 0.10461 0.95502 0.33269 0.0
C99 C 0.18261 0.8787 0.39063 0.0
O100 O 0.14548 0.07851 0.36823 0.0
O101 O 0.1685 0.0672 0.41846 0.0
O102 O 0.12756 0.91543 0.42987 0.0
O103 O 0.11415 1.00317 0.44941 0.0
O104 O 0.08016 1.02184 0.39329 0.0
O105 O 0.06061 0.92231 0.40733 0.0
O106 O 0.07766 0.79679 0.40786 0.0
O107 O 0.09871 0.79122 0.3566 0.0
O108 O 0.12728 0.94467 0.35461 0.0
O109 O 0.08004 0.9162 0.33907 0.0
O110 O 0.15528 0.84326 0.38845 0.0
O111 O 0.18121 0.941 0.39396 0.0
H112 H 0.10609 0.17352 0.37777 0.0
H113 H 0.09843 0.28796 0.38379 0.0
H114 H 0.19872 0.30289 0.42783 0.0
H115 H 0.20683 0.18823 0.4213 0.0
H116 H 0.13152 0.72142 0.42865 0.0
H117 H 0.15111 0.61183 0.43878 0.0
H118 H 0.08425 0.54672 0.35922 0.0
H119 H 0.06447 0.65542 0.34935 0.0
Tb120 Tb 0.83661 0.07314 0.40359 0.0
Tb121 Tb 0.87689 0.19211 0.39375 0.0
C122 C 0.81256 0.96331 0.39657 0.0
C123 C 0.82309 0.89614 0.39799 0.0
C124 C 0.85173 0.87378 0.38013 0.0
C125 C 0.85976 0.80915 0.38047 0.0
C126 C 0.83924 0.76601 0.39852 0.0
C127 C 0.81084 0.78837 0.41651 0.0
C128 C 0.80283 0.85287 0.41621 0.0
C129 C 0.84193 0.14004 0.46011 0.0
C130 C 0.91841 0.07345 0.41311 0.0
C131 C 0.90134 0.3025 0.39238 0.0
C132 C 0.89047 0.36899 0.39553 0.0
C133 C 0.8559 0.38611 0.3972 0.0
C134 C 0.84646 0.45007 0.39837 0.0
C135 C 0.87148 0.4976 0.3978 0.0
C136 C 0.90598 0.48028 0.39648 0.0
C137 C 0.91537 0.4165 0.39536 0.0
C138 C 0.87179 0.11668 0.33977 0.0
C139 C 0.79702 0.1983 0.39312 0.0
O140 O 0.82436 0.99784 0.37141 0.0
O141 O 0.81211 0.99406 0.42535 0.0
O142 O 0.86486 0.1334 0.43757 0.0
O143 O 0.81562 0.10695 0.45133 0.0
O144 O 0.89009 0.04079 0.40731 0.0
O145 O 0.91878 0.13565 0.41114 0.0
O146 O 0.90005 0.26719 0.41991 0.0
O147 O 0.89046 0.27261 0.36545 0.0
O148 O 0.84905 0.12994 0.36121 0.0
O149 O 0.89831 0.15036 0.34697 0.0
O150 O 0.82557 0.22689 0.40122 0.0
O151 O 0.79572 0.13674 0.38754 0.0
H152 H 0.8677 0.90599 0.36567 0.0
H153 H 0.88178 0.79268 0.36644 0.0
H154 H 0.7947 0.75577 0.43051 0.0
H155 H 0.78048 0.86891 0.42988 0.0
H156 H 0.83626 0.35026 0.39725 0.0
H157 H 0.8197 0.46256 0.39941 0.0
H158 H 0.92561 0.51624 0.39603 0.0
H159 H 0.94215 0.40426 0.39393 0.0
Tb160 Tb 0.87166 0.8748 0.89613 0.0
Tb161 Tb 0.82947 0.99317 0.90173 0.0
C162 C 0.89602 0.76461 0.90084 0.0
C163 C 0.88383 0.6983 0.90077 0.0
C164 C 0.89613 0.65578 0.92556 0.0
C165 C 0.88687 0.59187 0.92483 0.0
C166 C 0.86527 0.5692 0.89914 0.0
C167 C 0.85241 0.61181 0.87465 0.0
C168 C 0.86154 0.67586 0.87549 0.0
C169 C 0.86717 0.94591 0.83997 0.0
C170 C 0.79108 0.86717 0.89159 0.0
C171 C 0.80615 0.10323 0.89217 0.0
C172 C 0.81771 0.17008 0.8936 0.0
C173 C 0.8248 0.20341 0.86322 0.0
C174 C 0.8331 0.26778 0.86392 0.0
C175 C 0.83437 0.30017 0.89499 0.0
C176 C 0.82775 0.26701 0.9254 0.0
C177 C 0.81942 0.20262 0.92474 0.0
C178 C 0.83575 0.92899 0.96006 0.0
C179 C 0.91073 0.99719 0.91321 0.0
O180 O 0.88789 0.79894 0.92725 0.0
O181 O 0.89361 0.79644 0.87221 0.0
O182 O 0.84394 0.93403 0.86131 0.0
O183 O 0.89354 0.91238 0.84842 0.0
O184 O 0.8199 0.83857 0.89952 0.0
O185 O 0.7893 0.92884 0.88599 0.0
O186 O 0.81895 0.06823 0.86797 0.0
O187 O 0.80334 0.07199 0.92095 0.0
O188 O 0.85827 0.9367 0.93734 0.0
O189 O 0.80903 0.96063 0.95044 0.0
O190 O 0.88232 1.02754 0.9048 0.0
O191 O 0.91189 0.93479 0.91442 0.0
H192 H 0.91338 0.67186 0.94523 0.0
H193 H 0.89703 0.55979 0.94396 0.0
H194 H 0.83568 0.59527 0.85466 0.0
H195 H 0.85163 0.7075 0.85605 0.0
H196 H 0.82336 0.17995 0.83879 0.0
H197 H 0.83812 0.29258 0.84018 0.0
H198 H 0.82863 0.29124 0.94962 0.0
H199 H 0.81383 0.1787 0.94859 0.0
Tb200 Tb 0.09203 0.2081 0.88561 0.0
Tb201 Tb 0.12659 0.08834 0.90362 0.0
C202 C 0.0691 0.31846 0.87683 0.0
C203 C 0.08006 0.38512 0.87834 0.0
C204 C 0.09385 0.41133 0.90817 0.0
C205 C 0.10142 0.47593 0.90947 0.0
C206 C 0.0955 0.51494 0.88097 0.0
C207 C 0.08252 0.48865 0.85098 0.0
C208 C 0.07476 0.42425 0.84973 0.0
C209 C 0.09828 0.12466 0.83498 0.0
C210 C 0.17156 0.2081 0.89323 0.0
C211 C 0.14943 0.97701 0.90621 0.0
C212 C 0.13898 0.91103 0.9012 0.0
C213 C 0.11481 0.89391 0.8765 0.0
C214 C 0.10659 0.83009 0.87181 0.0
C215 C 0.12232 0.78308 0.8919 0.0
C216 C 0.14616 0.80048 0.91671 0.0
C217 C 0.15444 0.86398 0.92128 0.0
C218 C 0.11934 0.16419 0.95688 0.0
C219 C 0.04545 0.09775 0.90335 0.0
O220 O 0.06679 0.287 0.90559 0.0
O221 O 0.08216 0.28439 0.85245 0.0
O222 O 0.12005 0.13811 0.85737 0.0
O223 O 0.07234 0.16133 0.83943 0.0
O224 O 0.14328 0.24124 0.89544 0.0
O225 O 0.17143 0.14562 0.89181 0.0
O226 O 0.15117 1.01331 0.87911 0.0
O227 O 0.13615 1.00603 0.93232 0.0
O228 O 0.09802 0.15622 0.933 0.0
O229 O 0.1451 0.12762 0.95117 0.0
O230 O 0.07235 0.06117 0.89735 0.0
O231 O 0.04866 0.15934 0.90566 0.0
H232 H 0.09825 0.38229 0.9306 0.0
H233 H 0.1115 0.49569 0.93278 0.0
H234 H 0.07782 0.51824 0.8288 0.0
H235 H 0.06402 0.40514 0.82654 0.0
H236 H 0.10256 0.92962 0.86077 0.0
H237 H 0.08812 0.8173 0.85254 0.0
H238 H 0.15848 0.76478 0.93239 0.0
H239 H 0.17317 0.87638 0.94039 0.0
Tb240 Tb 0.87564 0.1942 0.66996 0.0
Tb241 Tb 0.83628 0.07453 0.66465 0.0
C242 C 0.89939 0.30427 0.66251 0.0
C243 C 0.88696 0.37023 0.66179 0.0
C244 C 0.9037 0.41479 0.6411 0.0
C245 C 0.89394 0.47845 0.64151 0.0
C246 C 0.86731 0.4986 0.66272 0.0
C247 C 0.84999 0.45386 0.6829 0.0
C248 C 0.85969 0.39005 0.68239 0.0
C249 C 0.86621 0.13337 0.72915 0.0
C250 C 0.79527 0.19902 0.67085 0.0
C251 C 0.81156 0.96516 0.6728 0.0
C252 C 0.82144 0.89766 0.67094 0.0
C253 C 0.81635 0.85858 0.69962 0.0
C254 C 0.82376 0.79392 0.69829 0.0
C255 C 0.83623 0.76711 0.66817 0.0
C256 C 0.84155 0.80594 0.63947 0.0
C257 C 0.83426 0.87078 0.64082 0.0
C258 C 0.84475 0.13641 0.60594 0.0
C259 C 0.91789 0.07256 0.66326 0.0
O260 O 0.89039 0.26834 0.63705 0.0
O261 O 0.89772 0.27444 0.69177 0.0
O262 O 0.84501 0.13916 0.70504 0.0
O263 O 0.89348 0.16368 0.72021 0.0
O264 O 0.82389 0.22871 0.66384 0.0
O265 O 0.79433 0.13762 0.67736 0.0
O266 O 0.82525 0.99805 0.69729 0.0
O267 O 0.80971 0.9974 0.64428 0.0
O268 O 0.86662 0.12924 0.62934 0.0
O269 O 0.81787 0.10465 0.61451 0.0
O270 O 0.88933 0.0404 0.66828 0.0
O271 O 0.91833 0.13428 0.65887 0.0
H272 H 0.92477 0.4005 0.62504 0.0
H273 H 0.90759 0.51228 0.62578 0.0
H274 H 0.82937 0.46854 0.69943 0.0
H275 H 0.84638 0.35648 0.69851 0.0
H276 H 0.80631 0.87806 0.72304 0.0
H277 H 0.81957 0.76465 0.72068 0.0
H278 H 0.85127 0.78597 0.61605 0.0
H279 H 0.8384 0.89962 0.61827 0.0
Tb280 Tb 0.1025 0.87044 0.66791 0.0
Tb281 Tb 0.13586 0.99573 0.65906 0.0
C282 C 0.08283 0.75723 0.66622 0.0
C283 C 0.09665 0.69356 0.659 0.0
C284 C 0.07785 0.65233 0.63838 0.0
C285 C 0.08798 0.58926 0.63464 0.0
C286 C 0.11696 0.56626 0.65172 0.0
C287 C 0.13664 0.60804 0.67118 0.0
C288 C 0.12667 0.67128 0.67469 0.0
C289 C 0.1064 0.9394 0.72475 0.0
C290 C 0.18228 0.87351 0.66418 0.0
C291 C 0.16683 0.09897 0.66692 0.0
C292 C 0.16153 0.16729 0.66107 0.0
C293 C 0.17266 0.20973 0.68605 0.0
C294 C 0.16641 0.27454 0.68252 0.0
C295 C 0.14907 0.29801 0.65384 0.0
C296 C 0.13843 0.25589 0.62845 0.0
C297 C 0.1445 0.19079 0.63209 0.0
C298 C 0.11339 0.94612 0.60086 0.0
C299 C 0.05608 0.98663 0.65909 0.0
O300 O 0.07954 0.79656 0.64044 0.0
O301 O 0.09408 0.78507 0.69368 0.0
O302 O 0.12861 0.93411 0.70165 0.0
O303 O 0.08043 0.90598 0.71549 0.0
O304 O 0.15459 0.83894 0.6664 0.0
O305 O 0.18153 0.93596 0.66148 0.0
O306 O 0.14709 0.07317 0.68998 0.0
O307 O 0.1708 0.06275 0.64024 0.0
O308 O 0.12719 0.91687 0.62555 0.0
O309 O 0.11324 1.00573 0.60844 0.0
O310 O 0.08256 1.0221 0.66741 0.0
O311 O 0.05933 0.92628 0.65181 0.0
H312 H 0.05464 0.66836 0.62608 0.0
H313 H 0.0725 0.55773 0.6195 0.0
H314 H 0.1591 0.59116 0.6845 0.0
H315 H 0.14182 0.70204 0.6906 0.0
H316 H 0.18569 0.19253 0.70866 0.0
H317 H 0.17461 0.30634 0.70242 0.0
H318 H 0.12479 0.27328 0.60627 0.0
H319 H 0.13545 0.15888 0.61262 0.0
Tb320 Tb 0.62942 0.58423 0.16048 0.0
Tb321 Tb 0.59706 0.71083 0.17049 0.0
C322 C 0.65962 0.48048 0.16946 0.0
C323 C 0.65427 0.41255 0.16357 0.0
C324 C 0.66327 0.36959 0.18949 0.0
C325 C 0.65729 0.305 0.18558 0.0
C326 C 0.64241 0.28239 0.15558 0.0
C327 C 0.63391 0.32501 0.12929 0.0
C328 C 0.63966 0.3899 0.13331 0.0
C329 C 0.60908 0.63685 0.10236 0.0
C330 C 0.54958 0.60017 0.15728 0.0
C331 C 0.57768 0.82414 0.17004 0.0
C332 C 0.5916 0.8877 0.1627 0.0
C333 C 0.57486 0.92697 0.13901 0.0
C334 C 0.58494 0.98989 0.13458 0.0
C335 C 0.6117 1.01465 0.15408 0.0
C336 C 0.62944 0.97486 0.17671 0.0
C337 C 0.61958 0.91175 0.18092 0.0
C338 C 0.59926 0.63374 0.22512 0.0
C339 C 0.67644 0.70538 0.16782 0.0
O340 O 0.6395 0.5062 0.1921 0.0
O341 O 0.66443 0.51701 0.14274 0.0
O342 O 0.62209 0.66575 0.1276 0.0
O343 O 0.60888 0.57688 0.10945 0.0
O344 O 0.57484 0.56211 0.16704 0.0
O345 O 0.55483 0.65984 0.14997 0.0
O346 O 0.57365 0.78616 0.1441 0.0
O347 O 0.58935 0.79479 0.19714 0.0
O348 O 0.62158 0.6426 0.20271 0.0
O349 O 0.5745 0.67211 0.21822 0.0
O350 O 0.64908 0.74098 0.16941 0.0
O351 O 0.67524 0.64308 0.16472 0.0
H352 H 0.67447 0.38621 0.21303 0.0
H353 H 0.66379 0.27268 0.20614 0.0
H354 H 0.62217 0.30816 0.10608 0.0
H355 H 0.63232 0.42226 0.11306 0.0
H356 H 0.55323 0.90955 0.12472 0.0
H357 H 0.57099 1.02003 0.117 0.0
H358 H 0.65018 0.99324 0.19192 0.0
H359 H 0.63316 0.88255 0.19923 0.0
Tb360 Tb 0.33161 0.50274 0.16124 0.0
Tb361 Tb 0.36985 0.38387 0.16893 0.0
C362 C 0.30841 0.61327 0.16859 0.0
C363 C 0.31808 0.68007 0.16312 0.0
C364 C 0.34885 0.70459 0.1758 0.0
C365 C 0.35571 0.76941 0.17326 0.0
C366 C 0.33204 0.81055 0.15789 0.0
C367 C 0.30181 0.78585 0.14434 0.0
C368 C 0.29483 0.72116 0.14709 0.0
C369 C 0.33921 0.44139 0.10276 0.0
C370 C 0.41332 0.50128 0.15633 0.0
C371 C 0.39323 0.27275 0.16872 0.0
C372 C 0.38133 0.20675 0.16552 0.0
C373 C 0.36146 0.18655 0.1378 0.0
C374 C 0.35188 0.12295 0.13512 0.0
C375 C 0.36193 0.0789 0.16015 0.0
C376 C 0.38134 0.09918 0.18798 0.0
C377 C 0.39103 0.1625 0.19058 0.0
C378 C 0.36421 0.45189 0.22585 0.0
C379 C 0.29011 0.38001 0.16804 0.0
O380 O 0.3249 0.58189 0.19218 0.0
O381 O 0.30298 0.57911 0.14153 0.0
O382 O 0.36112 0.44625 0.12626 0.0
O383 O 0.31287 0.47445 0.11147 0.0
O384 O 0.38499 0.53494 0.15992 0.0
O385 O 0.41318 0.43922 0.15507 0.0
O386 O 0.39195 0.30925 0.14162 0.0
O387 O 0.38391 0.30234 0.19632 0.0
O388 O 0.34126 0.44238 0.20379 0.0
O389 O 0.39131 0.4229 0.21555 0.0
O390 O 0.31849 0.35087 0.15989 0.0
O391 O 0.28949 0.44089 0.17517 0.0
H392 H 0.36725 0.67404 0.18831 0.0
H393 H 0.3792 0.78769 0.18379 0.0
H394 H 0.2833 0.81692 0.13236 0.0
H395 H 0.27088 0.70338 0.13734 0.0
H396 H 0.35357 0.21957 0.11812 0.0
H397 H 0.33681 0.10797 0.1135 0.0
H398 H 0.38926 0.06577 0.20752 0.0
H399 H 0.40638 0.17691 0.21212 0.0
Tb400 Tb 0.63849 0.4946 0.39512 0.0
Tb401 Tb 0.6035 0.36816 0.38885 0.0
C402 C 0.66939 0.59739 0.38477 0.0
C403 C 0.6642 0.66547 0.39118 0.0
C404 C 0.67616 0.70956 0.36709 0.0
C405 C 0.66992 0.77422 0.37122 0.0
C406 C 0.6517 0.79588 0.3996 0.0
C407 C 0.64016 0.752 0.42408 0.0
C408 C 0.64624 0.68712 0.41984 0.0
C409 C 0.6174 0.44646 0.45432 0.0
C410 C 0.55816 0.48713 0.39816 0.0
C411 C 0.58358 0.25532 0.394 0.0
C412 C 0.59779 0.19152 0.40069 0.0
C413 C 0.57852 0.14768 0.41953 0.0
C414 C 0.58899 0.08448 0.42223 0.0
C415 C 0.61881 0.06395 0.40586 0.0
C416 C 0.63896 0.10834 0.38829 0.0
C417 C 0.62863 0.1717 0.38583 0.0
C418 C 0.60658 0.43707 0.33139 0.0
C419 C 0.68349 0.36981 0.38966 0.0
O420 O 0.64822 0.57209 0.36303 0.0
O421 O 0.67509 0.56047 0.41117 0.0
O422 O 0.62962 0.41602 0.42943 0.0
O423 O 0.6192 0.50604 0.44666 0.0
O424 O 0.58472 0.52221 0.38913 0.0
O425 O 0.56075 0.42587 0.40418 0.0
O426 O 0.58275 0.29526 0.41942 0.0
O427 O 0.59254 0.28238 0.36526 0.0
O428 O 0.62895 0.43188 0.35435 0.0
O429 O 0.58158 0.40097 0.34052 0.0
O430 O 0.65543 0.33617 0.38797 0.0
O431 O 0.68344 0.43242 0.39209 0.0
H432 H 0.68984 0.69381 0.3447 0.0
H433 H 0.6788 0.80732 0.35198 0.0
H434 H 0.62581 0.7679 0.44599 0.0
H435 H 0.63647 0.65391 0.43857 0.0
H436 H 0.55467 0.16181 0.43114 0.0
H437 H 0.57312 0.05099 0.43592 0.0
H438 H 0.66208 0.09349 0.37555 0.0
H439 H 0.6441 0.20454 0.37125 0.0
Tb440 Tb 0.34002 0.59101 0.39884 0.0
Tb441 Tb 0.3812 0.71054 0.39012 0.0
C442 C 0.31656 0.48166 0.38922 0.0
C443 C 0.32736 0.41453 0.39156 0.0
C444 C 0.33139 0.37947 0.36149 0.0
C445 C 0.33937 0.31502 0.36297 0.0
C446 C 0.34334 0.28432 0.39454 0.0
C447 C 0.33968 0.31914 0.42465 0.0
C448 C 0.3317 0.3837 0.42321 0.0
C449 C 0.34756 0.65551 0.45571 0.0
C450 C 0.42214 0.58766 0.40452 0.0
C451 C 0.40529 0.82056 0.39419 0.0
C452 C 0.39275 0.88644 0.39644 0.0
C453 C 0.40722 0.92721 0.42051 0.0
C454 C 0.39787 0.99109 0.42137 0.0
C455 C 0.37403 1.01535 0.39799 0.0
C456 C 0.35886 0.97437 0.37444 0.0
C457 C 0.36805 0.91037 0.37372 0.0
C458 C 0.37335 0.64073 0.33457 0.0
C459 C 0.30056 0.7171 0.38948 0.0
O460 O 0.33097 0.51598 0.36538 0.0
O461 O 0.31263 0.51297 0.41764 0.0
O462 O 0.36983 0.64883 0.43254 0.0
O463 O 0.32117 0.62161 0.4481 0.0
O464 O 0.39286 0.55656 0.40276 0.0
O465 O 0.42358 0.64997 0.40256 0.0
O466 O 0.40023 0.78384 0.42075 0.0
O467 O 0.40003 0.79122 0.36542 0.0
O468 O 0.35171 0.6514 0.35758 0.0
O469 O 0.39977 0.67545 0.34076 0.0
O470 O 0.32952 0.74627 0.39571 0.0
O471 O 0.29896 0.65536 0.38447 0.0
H472 H 0.32791 0.40179 0.33676 0.0
H473 H 0.34214 0.28888 0.33948 0.0
H474 H 0.34272 0.29615 0.44924 0.0
H475 H 0.32856 0.40914 0.44685 0.0
H476 H 0.42633 0.9099 0.43822 0.0
H477 H 0.40979 1.02197 0.43976 0.0
H478 H 0.34037 0.99222 0.35624 0.0
H479 H 0.35639 0.88004 0.35493 0.0
Tb480 Tb 0.36927 0.37561 0.89237 0.0
Tb481 Tb 0.33103 0.4949 0.89635 0.0
C482 C 0.39283 0.26478 0.89725 0.0
C483 C 0.3804 0.19924 0.90135 0.0
C484 C 0.39963 0.15611 0.92077 0.0
C485 C 0.39049 0.0922 0.92226 0.0
C486 C 0.36205 0.07033 0.90414 0.0
C487 C 0.34207 0.11377 0.88563 0.0
C488 C 0.35108 0.17785 0.88433 0.0
C489 C 0.36154 0.437 0.83288 0.0
C490 C 0.28952 0.37045 0.89272 0.0
C491 C 0.30769 0.60487 0.88594 0.0
C492 C 0.31688 0.67204 0.89045 0.0
C493 C 0.31124 0.71441 0.86329 0.0
C494 C 0.31878 0.77864 0.8667 0.0
C495 C 0.33199 0.8017 0.89741 0.0
C496 C 0.33781 0.75951 0.92464 0.0
C497 C 0.33036 0.69501 0.9212 0.0
C498 C 0.33853 0.43783 0.9565 0.0
C499 C 0.41309 0.49411 0.90048 0.0
O500 O 0.38927 0.30249 0.92327 0.0
O501 O 0.38589 0.29309 0.86835 0.0
O502 O 0.33952 0.43037 0.85615 0.0
O503 O 0.38889 0.40841 0.84317 0.0
O504 O 0.31795 0.342 0.90166 0.0
O505 O 0.28899 0.43103 0.88397 0.0
O506 O 0.32563 0.57346 0.86375 0.0
O507 O 0.30121 0.57115 0.91322 0.0
O508 O 0.36066 0.44186 0.93308 0.0
O509 O 0.31192 0.46921 0.9466 0.0
O510 O 0.38481 0.52753 0.8955 0.0
O511 O 0.41277 0.43234 0.90412 0.0
H512 H 0.42229 0.17159 0.93408 0.0
H513 H 0.40616 0.05941 0.93672 0.0
H514 H 0.31999 0.09777 0.87155 0.0
H515 H 0.3357 0.21026 0.86931 0.0
H516 H 0.30086 0.69775 0.83939 0.0
H517 H 0.31426 0.81048 0.8454 0.0
H518 H 0.34816 0.77653 0.94846 0.0
H519 H 0.33503 0.66332 0.94251 0.0
Tb520 Tb 0.59614 0.70043 0.88983 0.0
Tb521 Tb 0.63162 0.57467 0.90003 0.0
C522 C 0.57651 0.81377 0.89207 0.0
C523 C 0.59091 0.87737 0.89842 0.0
C524 C 0.57407 0.91832 0.92086 0.0
C525 C 0.58464 0.98121 0.92416 0.0
C526 C 0.61208 1.00443 0.90479 0.0
C527 C 0.62985 0.96293 0.88337 0.0
C528 C 0.61948 0.89985 0.88031 0.0
C529 C 0.59717 0.62583 0.83525 0.0
C530 C 0.67633 0.69846 0.89089 0.0
C531 C 0.66321 0.47223 0.8916 0.0
C532 C 0.65743 0.40358 0.89635 0.0
C533 C 0.66456 0.36274 0.86918 0.0
C534 C 0.65827 0.29784 0.87217 0.0
C535 C 0.64493 0.27253 0.90249 0.0
C536 C 0.63826 0.31295 0.92996 0.0
C537 C 0.64437 0.37811 0.92691 0.0
C538 C 0.60971 0.62757 0.95744 0.0
C539 C 0.55156 0.58049 0.90193 0.0
O540 O 0.5744 0.7747 0.91807 0.0
O541 O 0.58626 0.78546 0.86416 0.0
O542 O 0.62032 0.63272 0.85732 0.0
O543 O 0.57359 0.66647 0.84226 0.0
O544 O 0.64824 0.73182 0.88734 0.0
O545 O 0.67636 0.63654 0.89632 0.0
O546 O 0.64467 0.49964 0.86795 0.0
O547 O 0.66632 0.5072 0.9189 0.0
O548 O 0.62257 0.65578 0.93184 0.0
O549 O 0.61055 0.56731 0.95131 0.0
O550 O 0.57861 0.54535 0.89509 0.0
O551 O 0.55365 0.6423 0.90652 0.0
H552 H 0.55201 0.90219 0.93506 0.0
H553 H 0.57064 1.01248 0.94085 0.0
H554 H 0.65111 0.97989 0.86827 0.0
H555 H 0.63315 0.86938 0.86294 0.0
H556 H 0.6746 0.38128 0.84539 0.0
H557 H 0.6634 0.26741 0.85067 0.0
H558 H 0.62776 0.29418 0.95347 0.0
H559 H 0.63849 0.40851 0.94822 0.0
Tb560 Tb 0.37725 0.70839 0.67143 0.0
Tb561 Tb 0.34259 0.58956 0.65374 0.0
C562 C 0.39919 0.81883 0.68094 0.0
C563 C 0.38779 0.88523 0.67826 0.0
C564 C 0.37639 0.91171 0.64728 0.0
C565 C 0.36813 0.97605 0.64523 0.0
C566 C 0.371 1.0145 0.67409 0.0
C567 C 0.38158 0.98788 0.70515 0.0
C568 C 0.39 0.92377 0.70718 0.0
C569 C 0.37007 0.62467 0.72255 0.0
C570 C 0.29849 0.70963 0.66325 0.0
C571 C 0.319 0.47898 0.65057 0.0
C572 C 0.32876 0.41231 0.65504 0.0
C573 C 0.35222 0.39265 0.68004 0.0
C574 C 0.35973 0.32826 0.6842 0.0
C575 C 0.34399 0.28317 0.6633 0.0
C576 C 0.32082 0.30307 0.63821 0.0
C577 C 0.31322 0.36716 0.63418 0.0
C578 C 0.34996 0.6672 0.60053 0.0
C579 C 0.4238 0.59892 0.65536 0.0
O580 O 0.40373 0.78746 0.65268 0.0
O581 O 0.38466 0.7845 0.7046 0.0
O582 O 0.34867 0.63855 0.69978 0.0
O583 O 0.39604 0.66114 0.71824 0.0
O584 O 0.3268 0.74164 0.65895 0.0
O585 O 0.29846 0.64743 0.66686 0.0
O586 O 0.31778 0.51389 0.67793 0.0
O587 O 0.33237 0.5089 0.62459 0.0
O588 O 0.37139 0.65727 0.62414 0.0
O589 O 0.32378 0.6318 0.60664 0.0
O590 O 0.39681 0.56223 0.66094 0.0
O591 O 0.42055 0.66021 0.65165 0.0
H592 H 0.37437 0.88311 0.62459 0.0
H593 H 0.35996 0.99608 0.62107 0.0
H594 H 0.38393 1.01704 0.72762 0.0
H595 H 0.39882 0.90444 0.73128 0.0
H596 H 0.36449 0.42684 0.6964 0.0
H597 H 0.3777 0.31354 0.70367 0.0
H598 H 0.30851 0.26888 0.6219 0.0
H599 H 0.29497 0.38152 0.61487 0.0
Tb600 Tb 0.60222 0.37125 0.66595 0.0
Tb601 Tb 0.63991 0.49593 0.65754 0.0
C602 C 0.58221 0.25816 0.66232 0.0
C603 C 0.59658 0.19401 0.65701 0.0
C604 C 0.57876 0.15081 0.63669 0.0
C605 C 0.5894 0.08764 0.63459 0.0
C606 C 0.61795 0.06633 0.65302 0.0
C607 C 0.63661 0.11001 0.67234 0.0
C608 C 0.62612 0.17334 0.67422 0.0
C609 C 0.60138 0.44517 0.72063 0.0
C610 C 0.68242 0.37044 0.66789 0.0
C611 C 0.67115 0.59791 0.66802 0.0
C612 C 0.66514 0.66668 0.66334 0.0
C613 C 0.67281 0.70773 0.69027 0.0
C614 C 0.66617 0.77264 0.6874 0.0
C615 C 0.65185 0.79783 0.65746 0.0
C616 C 0.64455 0.75713 0.63026 0.0
C617 C 0.65103 0.69197 0.6332 0.0
C618 C 0.61823 0.44603 0.59938 0.0
C619 C 0.55983 0.49424 0.65336 0.0
O620 O 0.58203 0.29733 0.63628 0.0
O621 O 0.59042 0.28623 0.69077 0.0
O622 O 0.62553 0.43811 0.69954 0.0
O623 O 0.57814 0.40444 0.71283 0.0
O624 O 0.65386 0.33871 0.67129 0.0
O625 O 0.68361 0.43206 0.6618 0.0
O626 O 0.65179 0.56988 0.69075 0.0
O627 O 0.67553 0.56342 0.64067 0.0
O628 O 0.63016 0.41611 0.62495 0.0
O629 O 0.62021 0.50599 0.60595 0.0
O630 O 0.58757 0.52772 0.65919 0.0
O631 O 0.56054 0.43201 0.64951 0.0
H632 H 0.55592 0.16547 0.62325 0.0
H633 H 0.57468 0.0548 0.6195 0.0
H634 H 0.65874 0.09465 0.6867 0.0
H635 H 0.64051 0.20557 0.68999 0.0
H636 H 0.68356 0.68935 0.7138 0.0
H637 H 0.67182 0.80319 0.70871 0.0
H638 H 0.6333 0.77568 0.60703 0.0
H639 H 0.64464 0.66141 0.61212 0.0
C640 C 0.21104 0.29161 0.19765 0.0
C641 C 0.20533 0.25345 0.1686 0.0
C642 C 0.25057 0.30802 0.138 0.0
C643 C 0.25869 0.34195 0.16794 0.0
N644 N 0.25128 0.35621 0.22849 0.0
N645 N 0.22518 0.21402 0.11457 0.0
C646 C 0.24011 0.33142 0.19845 0.0
C647 C 0.22693 0.25786 0.13989 0.0
N648 N 0.18884 0.28951 0.22449 0.0
N649 N 0.26431 0.32562 0.1074 0.0
H650 H 0.20839 0.17595 0.11533 0.0
H651 H 0.24264 0.21199 0.0946 0.0
H652 H 0.28009 0.36489 0.10479 0.0
H653 H 0.25692 0.30606 0.08424 0.0
H654 H 0.18944 0.32172 0.24445 0.0
H655 H 0.16865 0.25756 0.22591 0.0
H656 H 0.2407 0.34479 0.25208 0.0
H657 H 0.27321 0.38361 0.23021 0.0
C658 C 0.73731 0.83615 0.14753 0.0
C659 C 0.76209 0.8279 0.17339 0.0
C660 C 0.73233 0.73348 0.19459 0.0
C661 C 0.70903 0.73955 0.16717 0.0
N662 N 0.69368 0.78694 0.11324 0.0
N663 N 0.78586 0.76619 0.21971 0.0
C664 C 0.71289 0.78806 0.14234 0.0
C665 C 0.76047 0.77555 0.19631 0.0
N666 N 0.73678 0.89015 0.12816 0.0
N667 N 0.72666 0.68973 0.21979 0.0
H668 H 0.80529 0.79891 0.22381 0.0
H669 H 0.78856 0.72481 0.23402 0.0
H670 H 0.70697 0.6568 0.21881 0.0
H671 H 0.74024 0.68816 0.24258 0.0
H672 H 0.71709 0.90156 0.1114 0.0
H673 H 0.75422 0.92668 0.13117 0.0
H674 H 0.69766 0.81723 0.09257 0.0
H675 H 0.67599 0.75141 0.10828 0.0
C676 C 0.2672 0.80682 0.3639 0.0
C677 C 0.26945 0.75667 0.38823 0.0
C678 C 0.21942 0.79781 0.41797 0.0
C679 C 0.21532 0.84434 0.39206 0.0
N680 N 0.23265 0.89004 0.33839 0.0
N681 N 0.24465 0.69841 0.4353 0.0
C682 C 0.23869 0.84853 0.36461 0.0
C683 C 0.24462 0.75028 0.4143 0.0
N684 N 0.29222 0.81422 0.33994 0.0
N685 N 0.19964 0.8002 0.44665 0.0
H686 H 0.26281 0.66274 0.43399 0.0
H687 H 0.22488 0.68763 0.45205 0.0
H688 H 0.18092 0.83452 0.45028 0.0
H689 H 0.20385 0.77223 0.46821 0.0
H690 H 0.29453 0.85417 0.32445 0.0
H691 H 0.31175 0.7814 0.33645 0.0
H692 H 0.24624 0.89024 0.31561 0.0
H693 H 0.21258 0.92239 0.33854 0.0
C694 C 0.76683 0.28953 0.36576 0.0
C695 C 0.76651 0.23889 0.38988 0.0
C696 C 0.71708 0.28541 0.41806 0.0
C697 C 0.71535 0.33268 0.39222 0.0
N698 N 0.73683 0.37833 0.3401 0.0
N699 N 0.73825 0.18271 0.43555 0.0
C700 C 0.73996 0.3348 0.36582 0.0
C701 C 0.74063 0.2349 0.41493 0.0
N702 N 0.79297 0.29429 0.34281 0.0
N703 N 0.69684 0.29024 0.44632 0.0
H704 H 0.75514 0.14484 0.43432 0.0
H705 H 0.71768 0.17412 0.4517 0.0
H706 H 0.67989 0.32766 0.44989 0.0
H707 H 0.69927 0.26115 0.46772 0.0
H708 H 0.79739 0.33418 0.32775 0.0
H709 H 0.81132 0.25903 0.33976 0.0
H710 H 0.75113 0.37746 0.31777 0.0
H711 H 0.71873 0.4143 0.34046 0.0
C712 C 0.73267 0.73191 0.86617 0.0
C713 C 0.70819 0.73537 0.89261 0.0
C714 C 0.73453 0.8321 0.91423 0.0
C715 C 0.76041 0.8268 0.88919 0.0
N716 N 0.78593 0.77035 0.84238 0.0
N717 N 0.69017 0.77884 0.94625 0.0
C718 C 0.76006 0.77607 0.86552 0.0
C719 C 0.71042 0.78269 0.91791 0.0
N720 N 0.72897 0.68803 0.84104 0.0
N721 N 0.73265 0.8845 0.93434 0.0
H722 H 0.67293 0.74201 0.95028 0.0
H723 H 0.6929 0.808 0.96734 0.0
H724 H 0.74993 0.92162 0.93291 0.0
H725 H 0.71207 0.8941 0.95025 0.0
H726 H 0.7433 0.68764 0.81873 0.0
H727 H 0.71032 0.65304 0.84186 0.0
H728 H 0.78969 0.73055 0.82739 0.0
H729 H 0.80464 0.80482 0.83897 0.0
C730 C 0.24901 0.29809 0.92263 0.0
C731 C 0.25824 0.33137 0.89247 0.0
C732 C 0.21083 0.28185 0.86219 0.0
C733 C 0.20379 0.24413 0.89146 0.0
N734 N 0.22122 0.20628 0.94693 0.0
N735 N 0.25328 0.34224 0.8314 0.0
C736 C 0.22455 0.24891 0.92085 0.0
C737 C 0.24058 0.32003 0.86159 0.0
N738 N 0.26268 0.31511 0.95326 0.0
N739 N 0.18913 0.28141 0.83494 0.0
H740 H 0.27609 0.3671 0.82977 0.0
H741 H 0.24324 0.33014 0.80775 0.0
H742 H 0.16794 0.25186 0.83364 0.0
H743 H 0.19095 0.31339 0.81469 0.0
H744 H 0.25447 0.29661 0.97653 0.0
H745 H 0.27961 0.35271 0.95572 0.0
H746 H 0.23782 0.20416 0.96763 0.0
H747 H 0.20412 0.16883 0.94611 0.0
C748 C 0.73666 0.33371 0.69526 0.0
C749 C 0.71361 0.33182 0.66752 0.0
C750 C 0.73949 0.23383 0.647 0.0
C751 C 0.76435 0.23829 0.67299 0.0
N752 N 0.78786 0.2916 0.72178 0.0
N753 N 0.6969 0.28871 0.61334 0.0
C754 C 0.7633 0.28815 0.69711 0.0
C755 C 0.71612 0.28422 0.64237 0.0
N756 N 0.73226 0.37754 0.72032 0.0
N757 N 0.73796 0.18132 0.62696 0.0
H758 H 0.68018 0.32621 0.60865 0.0
H759 H 0.69998 0.25916 0.59245 0.0
H760 H 0.75488 0.14358 0.62932 0.0
H761 H 0.71809 0.17247 0.61006 0.0
H762 H 0.74551 0.37716 0.74329 0.0
H763 H 0.71409 0.41341 0.71873 0.0
H764 H 0.79127 0.33049 0.73751 0.0
H765 H 0.80583 0.25591 0.72584 0.0
C766 C 0.23806 0.83979 0.68961 0.0
C767 C 0.21465 0.83825 0.66216 0.0
C768 C 0.24256 0.74414 0.63901 0.0
C769 C 0.26695 0.74719 0.66556 0.0
N770 N 0.28952 0.79804 0.71561 0.0
N771 N 0.19858 0.79906 0.607 0.0
C772 C 0.26512 0.79516 0.69073 0.0
C773 C 0.21806 0.79318 0.63578 0.0
N774 N 0.2337 0.88257 0.71515 0.0
N775 N 0.24258 0.69424 0.61706 0.0
H776 H 0.18109 0.83577 0.60348 0.0
H777 H 0.20202 0.77182 0.58528 0.0
H778 H 0.26028 0.65764 0.61836 0.0
H779 H 0.22328 0.68595 0.59945 0.0
H780 H 0.24671 0.88118 0.73825 0.0
H781 H 0.21619 0.91932 0.71346 0.0
H782 H 0.29271 0.83629 0.73182 0.0
H783 H 0.30757 0.76245 0.71952 0.0
C784 C 0.07799 0.05039 0.30243 0.0
C785 C 0.10538 1.00644 0.30577 0.0
C786 C 0.13715 0.06757 0.26198 0.0
C787 C 0.10837 0.10727 0.25673 0.0
N788 N 0.06204 0.1569 0.28677 0.0
N789 N 0.1595 0.96881 0.28477 0.0
C790 C 0.08176 0.10467 0.28117 0.0
C791 C 0.13477 1.01438 0.28475 0.0
N792 N 0.04779 0.04052 0.31882 0.0
N793 N 0.16774 0.08432 0.24809 0.0
H794 H 0.15826 0.92816 0.29992 0.0
H795 H 0.17946 0.96793 0.26729 0.0
H796 H 0.17124 0.127 0.23516 0.0
H797 H 0.19049 0.06082 0.25335 0.0
H798 H 0.02594 0.06705 0.31369 0.0
H799 H 0.04328 1.00251 0.33492 0.0
H800 H 0.04415 0.15958 0.30633 0.0
H801 H 0.06748 0.20087 0.2759 0.0
C802 C 0.83948 0.06035 0.2927 0.0
C803 C 0.8695 0.0659 0.31297 0.0
C804 C 0.89224 0.97016 0.28515 0.0
C805 C 0.86431 0.96984 0.26213 0.0
N806 N 0.80438 0.99248 0.25774 0.0
N807 N 0.92645 1.02716 0.32568 0.0
C808 C 0.83579 1.00851 0.26979 0.0
C809 C 0.89642 1.02118 0.3084 0.0
N810 N 0.81528 0.10687 0.29348 0.0
N811 N 0.91278 0.91804 0.28755 0.0
H812 H 0.93064 0.05973 0.34483 0.0
H813 H 0.94839 1.00209 0.31932 0.0
H814 H 0.90746 0.87612 0.27482 0.0
H815 H 0.93158 0.91235 0.30606 0.0
H816 H 0.79498 0.10906 0.2764 0.0
H817 H 0.81733 0.14708 0.30853 0.0
H818 H 0.78206 1.01569 0.26473 0.0
H819 H 0.8 0.95017 0.2451 0.0
C820 C 0.88972 0.09305 0.78563 0.0
C821 C 0.86269 0.09427 0.76163 0.0
C822 C 0.83644 1.00383 0.79181 0.0
C823 C 0.86595 0.99698 0.81281 0.0
N824 N 0.92315 1.03356 0.82615 0.0
N825 N 0.8029 0.07294 0.75524 0.0
C826 C 0.89327 0.04101 0.80869 0.0
C827 C 0.83378 0.05596 0.76843 0.0
N828 N 0.90995 0.14516 0.78913 0.0
N829 N 0.81176 0.95828 0.79242 0.0
H830 H 0.79927 0.1155 0.74223 0.0
H831 H 0.78019 0.05026 0.76151 0.0
H832 H 0.81308 0.91803 0.80785 0.0
H833 H 0.79174 0.95695 0.77501 0.0
H834 H 0.92812 0.14971 0.80827 0.0
H835 H 0.90478 0.1879 0.77677 0.0
H836 H 0.94521 0.05851 0.81996 0.0
H837 H 0.92721 0.99998 0.84508 0.0
C838 C 0.07573 1.02774 0.8036 0.0
C839 C 0.10169 0.07412 0.80815 0.0
C840 C 0.13589 1.02012 0.76404 0.0
C841 C 0.10834 0.97852 0.75713 0.0
N842 N 0.06234 0.92235 0.78438 0.0
N843 N 0.15483 0.11886 0.78859 0.0
C844 C 0.08114 0.97637 0.78093 0.0
C845 C 0.13154 0.07093 0.78756 0.0
N846 N 0.04529 1.03281 0.82013 0.0
N847 N 0.16726 1.00754 0.75083 0.0
H848 H 0.15227 0.15788 0.80441 0.0
H849 H 0.1748 0.12335 0.77126 0.0
H850 H 0.17217 0.96651 0.73735 0.0
H851 H 0.18922 1.03231 0.75729 0.0
H852 H 0.02416 1.00515 0.81422 0.0
H853 H 0.03985 0.06805 0.83745 0.0
H854 H 0.04419 0.91572 0.80345 0.0
H855 H 0.06873 0.88046 0.7721 0.0
C856 C 0.63551 0.5194 0.29262 0.0
C857 C 0.60688 0.48095 0.30053 0.0
C858 C 0.57294 0.54129 0.25853 0.0
C859 C 0.6007 0.58345 0.25267 0.0
N860 N 0.65643 0.61898 0.27 0.0
N861 N 0.55614 0.43609 0.27585 0.0
C862 C 0.63156 0.57383 0.27113 0.0
C863 C 0.57764 0.48644 0.27935 0.0
N864 N 0.6672 0.50058 0.30282 0.0
N865 N 0.54162 0.55342 0.2449 0.0
H866 H 0.56163 0.39141 0.28575 0.0
H867 H 0.53605 0.43527 0.2585 0.0
H868 H 0.53655 0.59178 0.22923 0.0
H869 H 0.51974 0.52875 0.25201 0.0
H870 H 0.68954 0.52328 0.29533 0.0
H871 H 0.67146 0.45701 0.31455 0.0
H872 H 0.67778 0.61815 0.28577 0.0
H873 H 0.65392 0.66108 0.25621 0.0
C874 C 0.39759 0.54858 0.30044 0.0
C875 C 0.37033 0.59135 0.30714 0.0
C876 C 0.33491 0.53337 0.26541 0.0
C877 C 0.36304 0.49363 0.25729 0.0
N878 N 0.41284 0.44404 0.28162 0.0
N879 N 0.31493 0.63094 0.29086 0.0
C880 C 0.39214 0.49588 0.27878 0.0
C881 C 0.33935 0.58497 0.2885 0.0
N882 N 0.42917 0.55771 0.31414 0.0
N883 N 0.30322 0.51892 0.25355 0.0
H884 H 0.31754 0.67074 0.30614 0.0
H885 H 0.29375 0.63344 0.27492 0.0
H886 H 0.29836 0.47874 0.23938 0.0
H887 H 0.28109 0.5418 0.26136 0.0
H888 H 0.4507 0.53391 0.30536 0.0
H889 H 0.43491 0.59134 0.33235 0.0
H890 H 0.43312 0.44102 0.29866 0.0
H891 H 0.40644 0.4003 0.27137 0.0
C892 C 0.33163 0.51837 0.79311 0.0
C893 C 0.35932 0.47687 0.8005 0.0
C894 C 0.3926 0.52784 0.75476 0.0
C895 C 0.36637 0.57362 0.74941 0.0
N896 N 0.31248 0.61709 0.76753 0.0
N897 N 0.40618 0.42215 0.7742 0.0
C898 C 0.33606 0.5695 0.76932 0.0
C899 C 0.38699 0.47581 0.77725 0.0
N900 N 0.30024 0.50613 0.80648 0.0
N901 N 0.42354 0.53411 0.73924 0.0
H902 H 0.39985 0.37993 0.78654 0.0
H903 H 0.42473 0.41631 0.75548 0.0
H904 H 0.42934 0.57012 0.72224 0.0
H905 H 0.44467 0.50668 0.74584 0.0
H906 H 0.27824 0.5305 0.79944 0.0
H907 H 0.29529 0.46631 0.8212 0.0
H908 H 0.29211 0.62115 0.78437 0.0
H909 H 0.31504 0.65637 0.75154 0.0
C910 C 0.6292 0.56161 0.79062 0.0
C911 C 0.59763 0.58127 0.80502 0.0
C912 C 0.56789 0.5127 0.76339 0.0
C913 C 0.59982 0.49064 0.75041 0.0
N914 N 0.66002 0.47899 0.76173 0.0
N915 N 0.53605 0.58521 0.79828 0.0
C916 C 0.63022 0.51103 0.76675 0.0
C917 C 0.56681 0.55919 0.78971 0.0
N918 N 0.65828 0.59471 0.79731 0.0
N919 N 0.53789 0.48825 0.75159 0.0
H920 H 0.53126 0.6106 0.82024 0.0
H921 H 0.51445 0.58212 0.78295 0.0
H922 H 0.5349 0.46675 0.72811 0.0
H923 H 0.51518 0.49007 0.76531 0.0
H924 H 0.68131 0.5861 0.78493 0.0
H925 H 0.65837 0.63661 0.81106 0.0
H926 H 0.68211 0.48807 0.77561 0.0
H927 H 0.66153 0.43764 0.74759 0.0
C928 C 0.13544 0.22018 1.01047 0.0
C929 C 0.11133 0.18225 0.99302 0.0
C930 C 0.08291 0.16125 0.04806 0.0
C931 C 0.11186 0.1843 0.06558 0.0
N932 N 0.16275 0.24705 0.06413 0.0
N933 N 0.0617 0.11416 0.99651 0.0
C934 C 0.13708 0.21784 0.04687 0.0
C935 C 0.08449 0.15312 1.01203 0.0
N936 N 0.15659 0.25865 0.99202 0.0
N937 N 0.05365 0.14825 0.06548 0.0
H938 H 0.06084 0.10744 0.97043 0.0
H939 H 0.04492 0.08506 1.00995 0.0
H940 H 0.05069 0.15872 0.09115 0.0
H941 H 0.03092 0.13588 0.05355 0.0
H942 H 0.17342 0.2908 1.00278 0.0
H943 H 0.15503 0.26233 0.96552 0.0
H944 H 0.18447 0.26559 0.0526 0.0
H945 H 0.16223 0.25188 0.09058 0.0
C946 C 0.85423 0.9818 1.01442 0.0
C947 C 0.84421 0.9258 0.99716 0.0
C948 C 0.83805 0.87043 0.05228 0.0
C949 C 0.84712 0.92685 0.06951 0.0
N950 N 0.87014 1.0324 0.06748 0.0
N951 N 0.83298 0.81415 0.9985 0.0
C952 C 0.85747 0.98112 0.05064 0.0
C953 C 0.83832 0.86912 1.01581 0.0
N954 N 0.85886 1.0367 0.99631 0.0
N955 N 0.82784 0.81894 0.07089 0.0
H956 H 0.83253 0.81232 0.97193 0.0
H957 H 0.83145 0.76983 1.01008 0.0
H958 H 0.82894 0.81759 0.09744 0.0
H959 H 0.81711 0.77858 0.06038 0.0
H960 H 0.86162 0.08094 1.00738 0.0
H961 H 0.85812 1.03909 0.9698 0.0
H962 H 0.88186 0.07058 0.05542 0.0
H963 H 0.87151 1.03486 0.09397 0.0
C964 C 0.1481 0.93677 0.50987 0.0
C965 C 0.1178 0.92155 0.49188 0.0
C966 C 0.08871 0.90122 0.54665 0.0
C967 C 0.11704 0.92665 0.56433 0.0
N968 N 0.17495 0.96418 0.56368 0.0
N969 N 0.0601 0.8841 0.49244 0.0
C970 C 0.14736 0.9419 0.54619 0.0
C971 C 0.08853 0.90114 0.51017 0.0
N972 N 0.17749 0.94716 0.49198 0.0
N973 N 0.06206 0.87703 0.56491 0.0
H974 H 0.06042 0.87836 0.46611 0.0
H975 H 0.03632 0.87662 0.50343 0.0
H976 H 0.06176 0.87673 0.59145 0.0
H977 H 0.04156 0.85323 0.55419 0.0
H978 H 0.20133 0.95273 0.50311 0.0
H979 H 0.17856 0.94545 0.46546 0.0
H980 H 0.19641 0.9838 0.55223 0.0
H981 H 0.17607 0.96494 0.59022 0.0
C982 C 0.87855 0.13132 0.55097 0.0
C983 C 0.85094 0.15671 0.56965 0.0
C984 C 0.82505 0.19125 0.51524 0.0
C985 C 0.84834 0.15244 0.49713 0.0
N986 N 0.8934 0.07395 0.50038 0.0
N987 N 0.79911 0.21752 0.56962 0.0
C988 C 0.87447 0.12008 0.51551 0.0
C989 C 0.82467 0.18922 0.55169 0.0
N990 N 0.90866 0.11783 0.56671 0.0
N991 N 0.80341 0.23012 0.49753 0.0
H992 H 0.80007 0.22219 0.59605 0.0
H993 H 0.77681 0.23479 0.55857 0.0
H994 H 0.80335 0.23287 0.47096 0.0
H995 H 0.78766 0.26343 0.50899 0.0
H996 H 0.93025 0.10328 0.55338 0.0
H997 H 0.91343 0.12997 0.59189 0.0
H998 H 0.91055 0.04551 0.51383 0.0
H999 H 0.88903 0.0585 0.47571 0.0
C1000 C 0.58393 0.67677 0.04699 0.0
C1001 C 0.61293 0.65669 0.06581 0.0
C1002 C 0.64334 0.63533 1.01212 0.0
C1003 C 0.61323 0.64995 0.99347 0.0
N1004 N 0.55865 0.70126 0.99183 0.0
N1005 N 0.67285 0.63269 0.06673 0.0
C1006 C 0.58478 0.67638 1.01056 0.0
C1007 C 0.64359 0.6416 0.04839 0.0
N1008 N 0.55507 0.6936 0.06408 0.0
N1009 N 0.67122 0.61279 0.99517 0.0
H1010 H 0.67363 0.63602 0.0932 0.0
H1011 H 0.69684 0.62705 0.0559 0.0
H1012 H 0.67267 0.61157 0.96865 0.0
H1013 H 0.69255 0.59351 1.00709 0.0
H1014 H 0.53147 0.70053 0.05253 0.0
H1015 H 0.55475 0.69932 0.09041 0.0
H1016 H 0.53838 0.72644 1.00214 0.0
H1017 H 0.55863 0.70041 0.96531 0.0
C1018 C 0.35348 0.49279 1.01118 0.0
C1019 C 0.34711 0.43541 0.99359 0.0
C1020 C 0.34361 0.37829 0.0485 0.0
C1021 C 0.34823 0.43626 0.0659 0.0
N1022 N 0.36706 0.54457 0.0645 0.0
N1023 N 0.34199 0.32213 0.99446 0.0
C1024 C 0.35634 0.49213 0.04738 0.0
C1025 C 0.34434 0.37752 1.01201 0.0
N1026 N 0.35506 0.54863 0.99341 0.0
N1027 N 0.3375 0.32454 0.06703 0.0
H1028 H 0.34159 0.32075 0.96791 0.0
H1029 H 0.34231 0.27747 1.00573 0.0
H1030 H 0.33882 0.32366 0.09358 0.0
H1031 H 0.33035 0.2815 0.0566 0.0
H1032 H 0.35482 0.59289 1.00484 0.0
H1033 H 0.35494 0.55118 0.96686 0.0
H1034 H 0.37689 0.58468 0.05254 0.0
H1035 H 0.36914 0.54595 0.09097 0.0
C1036 C 0.65172 0.43739 0.50837 0.0
C1037 C 0.62064 0.4262 0.4908 0.0
C1038 C 0.5928 0.40174 0.54556 0.0
C1039 C 0.62167 0.42489 0.56318 0.0
N1040 N 0.68011 0.45913 0.56217 0.0
N1041 N 0.56182 0.39462 0.49214 0.0
C1042 C 0.65182 0.43987 0.54477 0.0
C1043 C 0.59142 0.40626 0.50925 0.0
N1044 N 0.68104 0.4461 0.49013 0.0
N1045 N 0.5668 0.37511 0.56366 0.0
H1046 H 0.56061 0.39385 0.46565 0.0
H1047 H 0.53836 0.38814 0.50402 0.0
H1048 H 0.56727 0.3724 0.59014 0.0
H1049 H 0.54629 0.35175 0.55262 0.0
H1050 H 0.70516 0.44869 0.50102 0.0
H1051 H 0.68167 0.44569 0.46358 0.0
H1052 H 0.70157 0.47869 0.55067 0.0
H1053 H 0.68173 0.45726 0.58869 0.0
C1054 C 0.33344 0.71877 0.54513 0.0
C1055 C 0.35801 0.68394 0.56416 0.0
C1056 C 0.37921 0.63671 0.51133 0.0
C1057 C 0.35482 0.67159 0.49204 0.0
N1058 N 0.31393 0.75652 0.48973 0.0
N1059 N 0.41272 0.63166 0.56292 0.0
C1060 C 0.33374 0.71642 0.50873 0.0
C1061 C 0.3838 0.65043 0.54647 0.0
N1062 N 0.30906 0.75241 0.56205 0.0
N1063 N 0.39608 0.58682 0.4972 0.0
H1064 H 0.41832 0.64578 0.58756 0.0
H1065 H 0.43322 0.61057 0.55047 0.0
H1066 H 0.39234 0.57222 0.47222 0.0
H1067 H 0.41127 0.55587 0.51138 0.0
H1068 H 0.28771 0.77208 0.55029 0.0
H1069 H 0.30974 0.75864 0.58841 0.0
H1070 H 0.30009 0.79383 0.50001 0.0
H1071 H 0.31367 0.75578 0.46316 0.0
C1072 C 0.96258 0.04391 0.19187 0.0
C1073 C 0.94916 1.02144 0.16063 0.0
C1074 C 0.00464 1.03454 0.13287 0.0
C1075 C 0.01733 0.0609 0.16335 0.0
N1076 N 0.01025 0.0894 0.22214 0.0
N1077 N 0.95523 1.0011 0.10056 0.0
C1078 C -0.00323 0.0652 0.19294 0.0
C1079 C 0.96965 1.01815 0.13087 0.0
N1080 N 0.94318 0.04184 0.22085 0.0
N1081 N 0.02633 1.02395 0.10622 0.0
H1082 H 0.92965 0.98861 0.09832 0.0
H1083 H 0.96766 1.00378 0.07717 0.0
H1084 H 0.0522 1.03509 0.10717 0.0
H1085 H 0.0196 0.99971 0.08425 0.0
H1086 H 0.95252 0.0497 0.24526 0.0
H1087 H 0.91752 1.02963 0.22094 0.0
H1088 H -0.00395 0.10291 0.24326 0.0
H1089 H 0.03629 0.09618 0.22505 0.0
C1090 C 0.9586 0.98225 0.40523 0.0
C1091 C 0.9515 0.04111 0.42024 0.0
C1092 C 0.01276 0.05639 0.43061 0.0
C1093 C 0.01972 1.00568 0.40795 0.0
N1094 N -0.00235 0.92392 0.37057 0.0
N1095 N 0.97066 0.12547 0.45637 0.0
C1096 C -0.0078 0.96944 0.39451 0.0
C1097 C 0.97836 0.07548 0.43585 0.0
N1098 N 0.93398 0.93691 0.40299 0.0
N1099 N 0.03866 0.08425 0.4483 0.0
H1100 H 0.94604 0.13334 0.46544 0.0
H1101 H -0.01174 0.15892 0.46444 0.0
H1102 H 0.06413 0.07262 0.44508 0.0
H1103 H 0.03511 0.11657 0.46783 0.0
H1104 H 0.93874 0.89148 0.39399 0.0
H1105 H 0.9107 0.94064 0.41554 0.0
H1106 H 0.97784 0.902 0.35749 0.0
H1107 H 0.02152 0.91234 0.36111 0.0
C1108 C 0.0042 1.02057 0.93081 0.0
C1109 C 0.01061 0.07168 0.90779 0.0
C1110 C 0.94917 0.09024 0.90226 0.0
C1111 C 0.94298 1.03241 0.91926 0.0
N1112 N 0.96191 0.96047 0.96284 0.0
N1113 N -0.01183 0.14838 0.86705 0.0
C1114 C 0.96985 1.00229 0.93729 0.0
C1115 C 0.98281 0.10482 0.8924 0.0
N1116 N 0.03058 0.98935 0.94633 0.0
N1117 N 0.92362 0.13343 0.89758 0.0
H1118 H 0.01204 0.15908 0.85721 0.0
H1119 H 0.96846 0.16896 0.85305 0.0
H1120 H 0.90001 0.12941 0.90949 0.0
H1121 H 0.92764 0.1783 0.88718 0.0
H1122 H 0.02787 0.9468 0.95952 0.0
H1123 H 0.05579 1.00423 0.94528 0.0
H1124 H 0.97961 0.93953 0.97911 0.0
H1125 H 0.93676 0.95226 0.97033 0.0
C1126 C 0.9649 1.01786 0.63296 0.0
C1127 C 0.95108 0.04014 0.66385 0.0
C1128 C 0.00656 1.02996 0.69194 0.0
C1129 C 0.0211 1.01251 0.66015 0.0
N1130 N 0.01573 0.99906 0.59944 0.0
N1131 N 0.95644 0.06317 0.7234 0.0
C1132 C 0.00063 1.00863 0.63039 0.0
C1133 C 0.9713 0.04463 0.69359 0.0
N1134 N 0.94361 1.00429 0.60646 0.0
N1135 N 0.02621 1.03058 0.72068 0.0
H1136 H 0.93009 0.06521 0.72618 0.0
H1137 H 0.96966 0.07619 0.74522 0.0
H1138 H 0.05249 1.02556 0.72015 0.0
H1139 H 0.01675 1.03494 0.7453 0.0
H1140 H 0.95153 0.98272 0.58405 0.0
H1141 H 0.91721 1.00932 0.60829 0.0
H1142 H 0.00277 1.00122 0.57631 0.0
H1143 H 0.04205 0.99495 0.5966 0.0
C1144 C 0.45631 0.57687 0.1791 0.0
C1145 C 0.44653 0.53284 0.15403 0.0
C1146 C 0.50485 0.52966 0.13221 0.0
C1147 C 0.51404 0.57744 0.15568 0.0
N1148 N 0.49432 0.66114 0.19343 0.0
N1149 N 0.45875 0.48151 0.1007 0.0
C1150 C 0.48848 0.6061 0.17636 0.0
C1151 C 0.47001 0.51336 0.12872 0.0
N1152 N 0.43615 0.58807 0.20687 0.0
N1153 N 0.52908 0.50022 0.113 0.0
H1154 H 0.43303 0.4717 0.09654 0.0
H1155 H 0.47423 0.47122 0.07989 0.0
H1156 H 0.55468 0.51279 0.11336 0.0
H1157 H 0.52404 0.46033 0.09841 0.0
H1158 H 0.44437 0.61437 0.22768 0.0
H1159 H 0.41282 0.56597 0.21107 0.0
H1160 H 0.4749 0.68627 0.20543 0.0
H1161 H 0.51737 0.685 0.19345 0.0
C1162 C 0.46323 0.50264 0.38669 0.0
C1163 C 0.45491 0.55296 0.40888 0.0
C1164 C 0.51489 0.55683 0.42735 0.0
C1165 C 0.5236 0.51546 0.40041 0.0
N1166 N 0.50636 0.46292 0.34904 0.0
N1167 N 0.47242 0.62454 0.45328 0.0
C1168 C 0.49781 0.492 0.37871 0.0
C1169 C 0.48071 0.57896 0.43017 0.0
N1170 N 0.43876 0.46422 0.37331 0.0
N1171 N 0.53893 0.57349 0.45077 0.0
H1172 H 0.4473 0.63614 0.45918 0.0
H1173 H 0.49034 0.65184 0.46604 0.0
H1174 H 0.5644 0.56082 0.4485 0.0
H1175 H 0.53344 0.59684 0.47338 0.0
H1176 H 0.44479 0.4235 0.35974 0.0
H1177 H 0.41303 0.46705 0.37919 0.0
H1178 H 0.48854 0.44871 0.33097 0.0
H1179 H 0.53131 0.46214 0.34039 0.0
C1180 C 0.46118 0.54543 0.93192 0.0
C1181 C 0.44685 0.52457 0.90082 0.0
C1182 C 0.50334 0.52076 0.87505 0.0
C1183 C 0.51724 0.55109 0.90398 0.0
N1184 N 0.51027 0.58809 0.96148 0.0
N1185 N 0.45299 0.50708 0.84065 0.0
C1186 C 0.49625 0.56268 0.93284 0.0
C1187 C 0.46758 0.5168 0.87175 0.0
N1188 N 0.44159 0.54625 0.96069 0.0
N1189 N 0.52384 0.4931 0.85134 0.0
H1190 H 0.42666 0.50809 0.83726 0.0
H1191 H 0.4669 0.50615 0.81801 0.0
H1192 H 0.55027 0.49252 0.85278 0.0
H1193 H 0.5143 0.46488 0.83187 0.0
H1194 H 0.45109 0.55452 0.98501 0.0
H1195 H 0.41572 0.53533 0.96034 0.0
H1196 H 0.49608 0.60543 0.98179 0.0
H1197 H 0.53655 0.59198 0.96462 0.0
C1198 C 0.46757 0.52559 0.63071 0.0
C1199 C 0.45881 0.57299 0.65456 0.0
C1200 C 0.51767 0.57458 0.67581 0.0
C1201 C 0.52647 0.52735 0.65168 0.0
N1202 N 0.51321 0.47862 0.59813 0.0
N1203 N 0.47807 0.65399 0.69395 0.0
C1204 C 0.50231 0.50836 0.62692 0.0
C1205 C 0.48463 0.60126 0.67502 0.0
N1206 N 0.44314 0.4985 0.61075 0.0
N1207 N 0.53981 0.59245 0.7009 0.0
H1208 H 0.45397 0.67138 0.69913 0.0
H1209 H 0.4972 0.6833 0.70329 0.0
H1210 H 0.56477 0.57727 0.70333 0.0
H1211 H 0.53253 0.61911 0.7219 0.0
H1212 H 0.44767 0.45843 0.59612 0.0
H1213 H 0.41791 0.51375 0.60997 0.0
H1214 H 0.49741 0.46796 0.57764 0.0
H1215 H 0.53903 0.47299 0.59283 0.0
C1216 C 0.14869 0.67508 0.17333 0.0
C1217 C 0.12212 0.71938 0.16716 0.0
C1218 C 0.08059 0.63303 0.16504 0.0
C1219 C 0.10763 0.58852 0.16737 0.0
N1220 N 0.16793 0.5664 0.16896 0.0
N1221 N 0.06364 0.74069 0.15187 0.0
C1222 C 0.14187 0.6093 0.17031 0.0
C1223 C 0.08825 0.69844 0.16165 0.0
N1224 N 0.18021 0.69589 0.18292 0.0
N1225 N 0.04755 0.6129 0.16705 0.0
H1226 H 0.0682 0.78904 0.14906 0.0
H1227 H 0.03948 0.72724 0.14374 0.0
H1228 H 0.04089 0.56538 0.16975 0.0
H1229 H 0.02687 0.64355 0.16914 0.0
H1230 H 0.19964 0.66586 0.19116 0.0
H1231 H 0.1861 0.74371 0.18553 0.0
H1232 H 0.19348 0.57917 0.16717 0.0
H1233 H 0.16394 0.51783 0.16679 0.0
C1234 C 0.81672 0.41036 0.17856 0.0
C1235 C 0.83941 0.36709 0.16279 0.0
C1236 C 0.87743 0.45453 0.14696 0.0
C1237 C 0.85374 0.49807 0.16088 0.0
N1238 N 0.79822 0.51938 0.18438 0.0
N1239 N 0.8878 0.34837 0.12636 0.0
C1240 C 0.82253 0.47652 0.17499 0.0
C1241 C 0.86875 0.38934 0.14532 0.0
N1242 N 0.79042 0.38819 0.19813 0.0
N1243 N 0.90874 0.47516 0.13642 0.0
H1244 H 0.88216 0.30031 0.12449 0.0
H1245 H 0.90734 0.36278 0.11014 0.0
H1246 H 0.91592 0.52264 0.13674 0.0
H1247 H 0.92856 0.44485 0.12981 0.0
H1248 H 0.77526 0.41704 0.21328 0.0
H1249 H 0.78534 0.34014 0.20146 0.0
H1250 H 0.77355 0.50681 0.19141 0.0
H1251 H 0.8018 0.56817 0.18239 0.0
C1252 C 0.1616 0.41318 0.38392 0.0
C1253 C 0.1439 0.37375 0.40747 0.0
C1254 C 0.11191 0.46547 0.42836 0.0
C1255 C 0.13015 0.50496 0.40537 0.0
N1256 N 0.17719 0.51985 0.36676 0.0
N1257 N 0.10785 0.36344 0.45689 0.0
C1258 C 0.15666 0.47983 0.38498 0.0
C1259 C 0.12077 0.40033 0.43121 0.0
N1260 N 0.1817 0.38673 0.35935 0.0
N1261 N 0.08536 0.48986 0.44662 0.0
H1262 H 0.11395 0.31564 0.45974 0.0
H1263 H 0.09352 0.38114 0.47701 0.0
H1264 H 0.07901 0.5378 0.44621 0.0
H1265 H 0.06836 0.46222 0.46061 0.0
H1266 H 0.19214 0.41227 0.33912 0.0
H1267 H 0.18591 0.33818 0.35754 0.0
H1268 H 0.1992 0.50524 0.35425 0.0
H1269 H 0.17389 0.56883 0.36661 0.0
C1270 C 0.86721 0.60159 0.42833 0.0
C1271 C 0.86184 0.56585 0.39831 0.0
C1272 C 0.8387 0.66016 0.36948 0.0
C1273 C 0.84717 0.69705 0.39836 0.0
N1274 N 0.8738 0.70532 0.45352 0.0
N1275 N 0.84706 0.56231 0.33866 0.0
C1276 C 0.8626 0.66839 0.42735 0.0
C1277 C 0.84875 0.59544 0.36842 0.0
N1278 N 0.87576 0.57133 0.45805 0.0
N1279 N 0.82022 0.68657 0.34346 0.0
H1280 H 0.85394 0.51479 0.33688 0.0
H1281 H 0.84143 0.58304 0.31517 0.0
H1282 H 0.8127 0.73392 0.34317 0.0
H1283 H 0.80995 0.66055 0.32352 0.0
H1284 H 0.87649 0.59365 0.48161 0.0
H1285 H 0.87929 0.52249 0.45974 0.0
H1286 H 0.8886 0.68825 0.47361 0.0
H1287 H 0.87069 0.75433 0.4538 0.0
C1288 C 0.81563 0.41352 0.90181 0.0
C1289 C 0.84214 0.36923 0.89562 0.0
C1290 C 0.88268 0.45651 0.88775 0.0
C1291 C 0.85701 0.50035 0.89739 0.0
N1292 N 0.8003 0.5201 0.9185 0.0
N1293 N 0.90192 0.34742 0.88775 0.0
C1294 C 0.82377 0.47872 0.90572 0.0
C1295 C 0.87598 0.39043 0.88996 0.0
N1296 N 0.78253 0.3935 0.90293 0.0
N1297 N 0.9131 0.4781 0.87533 0.0
H1298 H 0.89803 0.29867 0.88912 0.0
H1299 H 0.92757 0.35999 0.88743 0.0
H1300 H 0.91888 0.52608 0.87302 0.0
H1301 H 0.93142 0.4488 0.86448 0.0
H1302 H 0.76177 0.42421 0.90359 0.0
H1303 H 0.77557 0.3462 0.90024 0.0
H1304 H 0.7769 0.50606 0.9285 0.0
H1305 H 0.80528 0.56811 0.92176 0.0
C1306 C 0.13345 0.60879 0.87121 0.0
C1307 C 0.10192 0.58397 0.88279 0.0
C1308 C 0.08362 0.68972 0.90051 0.0
C1309 C 0.1143 0.71511 0.88708 0.0
N1310 N 0.16584 0.70163 0.85449 0.0
N1311 N 0.04472 0.60076 0.90331 0.0
C1312 C 0.1385 0.67538 0.87091 0.0
C1313 C 0.07629 0.6245 0.89589 0.0
N1314 N 0.15885 0.56853 0.86135 0.0
N1315 N 0.06214 0.72741 0.91887 0.0
H1316 H 0.03865 0.55296 0.90104 0.0
H1317 H 0.0238 0.62894 0.90922 0.0
H1318 H 0.06643 0.77556 0.92251 0.0
H1319 H 0.04141 0.71025 0.93264 0.0
H1320 H 0.1837 0.58303 0.85635 0.0
H1321 H 0.15579 0.51956 0.86056 0.0
H1322 H 0.18255 0.67603 0.83926 0.0
H1323 H 0.17028 0.75026 0.85368 0.0
C1324 C 0.81978 0.65579 0.65282 0.0
C1325 C 0.84395 0.69819 0.66686 0.0
C1326 C 0.88126 0.60891 0.68173 0.0
C1327 C 0.85867 0.56718 0.66477 0.0
N1328 N 0.80865 0.55128 0.63021 0.0
N1329 N 0.89967 0.71705 0.6905 0.0
C1330 C 0.82845 0.5907 0.64928 0.0
C1331 C 0.87527 0.67526 0.68015 0.0
N1332 N 0.78822 0.67753 0.64365 0.0
N1333 N 0.90781 0.5849 0.70037 0.0
H1334 H 0.89602 0.76594 0.69024 0.0
H1335 H 0.92446 0.70376 0.69677 0.0
H1336 H 0.91292 0.53659 0.70234 0.0
H1337 H 0.92297 0.61219 0.7163 0.0
H1338 H 0.76815 0.64801 0.6369 0.0
H1339 H 0.7812 0.72502 0.64532 0.0
H1340 H 0.78837 0.56686 0.61523 0.0
H1341 H 0.81409 0.50334 0.62718 0.0
C1342 C 0.10987 0.38832 0.66707 0.0
C1343 C 0.14035 0.36646 0.65168 0.0
C1344 C 0.15409 0.47493 0.63345 0.0
C1345 C 0.12512 0.49736 0.65141 0.0
N1346 N 0.07883 0.47704 0.6905 0.0
N1347 N 0.19381 0.38861 0.62388 0.0
C1348 C 0.10384 0.45445 0.66956 0.0
C1349 C 0.16315 0.40971 0.63587 0.0
N1350 N 0.08643 0.34575 0.67897 0.0
N1351 N 0.1723 0.51563 0.61328 0.0
H1352 H 0.20078 0.34097 0.62428 0.0
H1353 H 0.21326 0.41853 0.61572 0.0
H1354 H 0.1664 0.5636 0.61095 0.0
H1355 H 0.19155 0.50121 0.59681 0.0
H1356 H 0.06202 0.35843 0.68681 0.0
H1357 H 0.09028 0.29694 0.67847 0.0
H1358 H 0.06501 0.4486 0.70728 0.0
H1359 H 0.07384 0.52513 0.69351 0.0
C1360 C 0.6499 0.10567 0.13783 0.0
C1361 C 0.61925 0.08353 0.15297 0.0
C1362 C 0.60195 0.19263 0.16501 0.0
C1363 C 0.63394 0.21423 0.15286 0.0
N1364 N 0.69012 0.19208 0.13118 0.0
N1365 N 0.56875 0.10435 0.18624 0.0
C1366 C 0.65844 0.17094 0.14019 0.0
C1367 C 0.59588 0.12662 0.16786 0.0
N1368 N 0.67031 0.06456 0.12044 0.0
N1369 N 0.57724 0.23533 0.1736 0.0
H1370 H 0.56357 0.05632 0.18947 0.0
H1371 H 0.55303 0.13309 0.20088 0.0
H1372 H 0.58103 0.28414 0.17286 0.0
H1373 H 0.55213 0.22269 0.1788 0.0
H1374 H 0.69121 0.07866 0.10595 0.0
H1375 H 0.6648 1.0165 0.11826 0.0
H1376 H 0.71043 0.16218 0.12557 0.0
H1377 H 0.69683 0.2398 0.13147 0.0
C1378 C 0.36383 0.90493 0.13489 0.0
C1379 C 0.33849 0.87993 0.15698 0.0
C1380 C 0.32478 0.98707 0.17649 0.0
C1381 C 0.35261 1.011 0.15733 0.0
N1382 N 0.40127 0.99271 0.12118 0.0
N1383 N 0.29787 0.89547 0.20238 0.0
C1384 C 0.37283 0.96995 0.13721 0.0
C1385 C 0.31962 0.92058 0.17866 0.0
N1386 N 0.37861 0.86686 0.11104 0.0
N1387 N 0.30295 1.02808 0.19216 0.0
H1388 H 0.29355 0.84702 0.205 0.0
H1389 H 0.28625 0.92203 0.22137 0.0
H1390 H 0.30618 0.07704 0.19137 0.0
H1391 H 0.2801 1.01411 0.2034 0.0
H1392 H 0.39461 0.88363 0.09184 0.0
H1393 H 0.3726 0.81907 0.10857 0.0
H1394 H 0.41928 0.96389 0.1095 0.0
H1395 H 0.40824 0.04029 0.12161 0.0
C1396 C 0.60691 0.95385 0.38503 0.0
C1397 C 0.62738 0.99513 0.40479 0.0
C1398 C 0.66517 0.9062 0.41973 0.0
C1399 C 0.64299 0.8643 0.40239 0.0
N1400 N 0.59008 0.84607 0.37284 0.0
N1401 N 0.6733 1.00988 0.44475 0.0
C1402 C 0.61301 0.88754 0.38638 0.0
C1403 C 0.65585 0.9711 0.42318 0.0
N1404 N 0.58259 0.97832 0.36368 0.0
N1405 N 0.6955 0.88417 0.43224 0.0
H1406 H 0.66721 0.05753 0.44786 0.0
H1407 H 0.69205 0.99396 0.46152 0.0
H1408 H 0.70265 0.83669 0.43104 0.0
H1409 H 0.71459 0.91341 0.44163 0.0
H1410 H 0.56944 0.95145 0.34587 0.0
H1411 H 0.57762 1.02663 0.36144 0.0
H1412 H 0.56592 0.85939 0.36445 0.0
H1413 H 0.59403 0.79728 0.37246 0.0
C1414 C 0.33367 0.10616 0.40838 0.0
C1415 C 0.36602 0.08432 0.39728 0.0
C1416 C 0.38449 0.19402 0.38783 0.0
C1417 C 0.35122 0.21542 0.39596 0.0
N1418 N 0.29245 0.19177 0.40866 0.0
N1419 N 0.42017 0.10628 0.37058 0.0
C1420 C 0.3253 0.17144 0.40479 0.0
C1421 C 0.39091 0.12797 0.3854 0.0
N1422 N 0.31136 0.06486 0.42336 0.0
N1423 N 0.41022 0.23683 0.38332 0.0
H1424 H 0.4257 0.0583 0.36796 0.0
H1425 H 0.43755 0.13558 0.35812 0.0
H1426 H 0.40649 0.28561 0.38476 0.0
H1427 H 0.43575 0.22403 0.38108 0.0
H1428 H 0.28891 0.07898 0.43526 0.0
H1429 H 0.31661 1.01678 0.42648 0.0
H1430 H 0.27181 0.16124 0.41128 0.0
H1431 H 0.28534 0.23919 0.40641 0.0
C1432 C 0.31705 0.91159 0.91703 0.0
C1433 C 0.34021 0.87016 0.90055 0.0
C1434 C 0.37601 0.96045 0.88421 0.0
C1435 C 0.35439 1.0013 0.90304 0.0
N1436 N 0.30731 1.01496 0.94176 0.0
N1437 N 0.39453 0.85294 0.87351 0.0
C1438 C 0.32569 0.97663 0.92069 0.0
C1439 C 0.37055 0.894 0.88565 0.0
N1440 N 0.28636 0.88912 0.92825 0.0
N1441 N 0.40094 0.98537 0.86381 0.0
H1442 H 0.39129 0.80397 0.87385 0.0
H1443 H 0.41878 0.86692 0.86581 0.0
H1444 H 0.40558 1.0338 0.86172 0.0
H1445 H 0.41504 0.95867 0.84662 0.0
H1446 H 0.26677 0.91812 0.93689 0.0
H1447 H 0.27941 0.84164 0.92654 0.0
H1448 H 0.28835 0.99845 0.9581 0.0
H1449 H 0.31285 0.06278 0.94501 0.0
C1450 C 0.60421 0.1832 0.89231 0.0
C1451 C 0.63627 0.20401 0.90456 0.0
C1452 C 0.65136 0.09458 0.92002 0.0
C1453 C 0.62053 0.07327 0.905 0.0
N1454 N 0.57052 0.09596 0.87119 0.0
N1455 N 0.69234 0.17983 0.92608 0.0
C1456 C 0.59767 0.11727 0.88969 0.0
C1457 C 0.66044 0.15974 0.91731 0.0
N1458 N 0.57977 0.22657 0.88361 0.0
N1459 N 0.67142 0.05287 0.93775 0.0
H1460 H 0.6995 0.22732 0.92532 0.0
H1461 H 0.7124 0.14925 0.93177 0.0
H1462 H 0.66553 1.00497 0.94028 0.0
H1463 H 0.69239 0.06639 0.95219 0.0
H1464 H 0.55461 0.21452 0.8783 0.0
H1465 H 0.58382 0.27529 0.8844 0.0
H1466 H 0.55514 0.12535 0.85632 0.0
H1467 H 0.56507 0.0481 0.86808 0.0
C1468 C 0.33198 0.10752 0.68164 0.0
C1469 C 0.36417 0.08341 0.67161 0.0
C1470 C 0.38282 0.18995 0.65507 0.0
C1471 C 0.35157 0.21469 0.6674 0.0
N1472 N 0.29855 0.19938 0.69739 0.0
N1473 N 0.42221 0.10153 0.6539 0.0
C1474 C 0.32671 0.17408 0.68211 0.0
C1475 C 0.3902 0.12464 0.65982 0.0
N1476 N 0.30624 0.06667 0.6899 0.0
N1477 N 0.40487 0.2284 0.63764 0.0
H1478 H 0.42843 0.05373 0.65638 0.0
H1479 H 0.44324 0.1302 0.64908 0.0
H1480 H 0.4005 0.2766 0.63378 0.0
H1481 H 0.42618 0.2118 0.62467 0.0
H1482 H 0.28112 0.08083 0.69373 0.0
H1483 H 0.30938 1.01765 0.69039 0.0
H1484 H 0.2812 0.17292 0.71159 0.0
H1485 H 0.29393 0.24794 0.69832 0.0
C1486 C 0.61168 0.88798 0.66908 0.0
C1487 C 0.64308 0.86654 0.6554 0.0
C1488 C 0.65702 0.9754 0.63768 0.0
C1489 C 0.6269 0.99746 0.65386 0.0
N1490 N 0.57886 0.97628 0.69059 0.0
N1491 N 0.69796 0.89003 0.63095 0.0
C1492 C 0.60508 0.9541 0.67105 0.0
C1493 C 0.66644 0.91037 0.6409 0.0
N1494 N 0.58785 0.84501 0.67967 0.0
N1495 N 0.67602 1.01618 0.6183 0.0
H1496 H 0.70537 0.84265 0.63215 0.0
H1497 H 0.71761 0.92045 0.62387 0.0
H1498 H 0.66989 0.06392 0.61532 0.0
H1499 H 0.69624 1.0019 0.603 0.0
H1500 H 0.56299 0.85727 0.68618 0.0
H1501 H 0.59198 0.79626 0.67933 0.0
H1502 H 0.56438 0.94764 0.7067 0.0
H1503 H 0.57346 1.0243 0.69324 0.0
loop_
_geom_bond_atom_site_label_1
_geom_bond_atom_site_label_2
_geom_bond_distance
_geom_bond_site_symmetry_2
_ccdc_geom_bond_type
Tb0 C2 2.809 1_545 S
Tb0 O20 2.484 1_545 S
Tb0 O21 2.440 1_545 S
Tb0 O22 2.658 . S
Tb0 O23 2.409 . S
Tb0 O24 2.378 . S
Tb0 O28 2.325 . S
Tb0 O31 2.341 . S
Tb1 C11 2.809 . S
Tb1 O22 2.325 . S
Tb1 O25 2.341 . S
Tb1 O26 2.484 . S
Tb1 O27 2.440 . S
Tb1 O28 2.658 . S
Tb1 O29 2.409 . S
Tb1 O30 2.378 . S
C2 Tb0 2.809 1_565 S
C2 C3 1.514 . S
C2 O20 1.248 . S
C2 O21 1.266 . S
C3 C2 1.514 . S
C3 C4 1.359 . S
C3 C8 1.348 . S
C4 C3 1.359 . S
C4 C5 1.380 . S
C4 H32 0.929 . S
C5 C4 1.380 . S
C5 C6 1.347 . S
C5 H33 0.931 . S
C6 C5 1.347 . S
C6 C7 1.369 . S
C7 C6 1.369 . S
C7 C8 1.408 . S
C7 H34 0.930 . S
C8 C3 1.348 . S
C8 C7 1.408 . S
C8 H35 0.930 . S
C9 O22 1.281 . S
C9 O23 1.254 . S
C10 O24 1.236 . S
C10 O25 1.266 . S
C11 Tb1 2.809 . S
C11 C12 1.514 . S
C11 O26 1.248 . S
C11 O27 1.266 . S
C12 C11 1.514 . S
C12 C13 1.359 . S
C12 C17 1.348 . S
C13 C12 1.359 . S
C13 C14 1.380 . S
C13 H36 0.929 . S
C14 C13 1.380 . S
C14 C15 1.347 . S
C14 H37 0.931 . S
C15 C14 1.347 . S
C15 C16 1.369 . S
C16 C15 1.369 . S
C16 C17 1.408 . S
C16 H38 0.930 . S
C17 C12 1.348 . S
C17 C16 1.408 . S
C17 H39 0.930 . S
C18 O28 1.281 . S
C18 O29 1.254 . S
C19 O30 1.236 . S
C19 O31 1.266 . S
O20 Tb0 2.484 1_565 S
O20 C2 1.248 . S
O21 Tb0 2.440 1_565 S
O21 C2 1.266 . S
O22 Tb0 2.658 . S
O22 Tb1 2.325 . S
O22 C9 1.281 . S
O23 Tb0 2.409 . S
O23 C9 1.254 . S
O24 Tb0 2.378 . S
O24 C10 1.236 . S
O25 Tb1 2.341 . S
O25 C10 1.266 . S
O26 Tb1 2.484 . S
O26 C11 1.248 . S
O27 Tb1 2.440 . S
O27 C11 1.266 . S
O28 Tb0 2.325 . S
O28 Tb1 2.658 . S
O28 C18 1.281 . S
O29 Tb1 2.409 . S
O29 C18 1.254 . S
O30 Tb1 2.378 . S
O30 C19 1.236 . S
O31 Tb0 2.341 . S
O31 C19 1.266 . S
H32 C4 0.929 . S
H33 C5 0.931 . S
H34 C7 0.930 . S
H35 C8 0.930 . S
H36 C13 0.929 . S
H37 C14 0.931 . S
H38 C16 0.930 . S
H39 C17 0.930 . S
Tb40 C42 2.809 1_565 S
Tb40 O60 2.484 1_565 S
Tb40 O61 2.440 1_565 S
Tb40 O62 2.658 . S
Tb40 O63 2.409 . S
Tb40 O64 2.378 . S
Tb40 O68 2.325 . S
Tb40 O71 2.341 . S
Tb41 C51 2.809 . S
Tb41 O62 2.325 . S
Tb41 O65 2.341 . S
Tb41 O66 2.484 . S
Tb41 O67 2.440 . S
Tb41 O68 2.658 . S
Tb41 O69 2.409 . S
Tb41 O70 2.378 . S
C42 Tb40 2.809 1_545 S
C42 C43 1.514 . S
C42 O60 1.248 . S
C42 O61 1.266 . S
C43 C42 1.514 . S
C43 C44 1.359 . S
C43 C48 1.348 . S
C44 C43 1.359 . S
C44 C45 1.380 . S
C44 H72 0.929 . S
C45 C44 1.380 . S
C45 C46 1.347 . S
C45 H73 0.931 . S
C46 C45 1.347 . S
C46 C47 1.369 . S
C47 C46 1.369 . S
C47 C48 1.408 . S
C47 H74 0.930 . S
C48 C43 1.348 . S
C48 C47 1.408 . S
C48 H75 0.930 . S
C49 O62 1.281 . S
C49 O63 1.254 . S
C50 O64 1.236 . S
C50 O65 1.266 . S
C51 Tb41 2.809 . S
C51 C52 1.514 . S
C51 O66 1.248 . S
C51 O67 1.266 . S
C52 C51 1.514 . S
C52 C53 1.359 . S
C52 C57 1.348 . S
C53 C52 1.359 . S
C53 C54 1.380 . S
C53 H76 0.929 . S
C54 C53 1.380 . S
C54 C55 1.347 . S
C54 H77 0.931 . S
C55 C54 1.347 . S
C55 C56 1.369 . S
C56 C55 1.369 . S
C56 C57 1.408 . S
C56 H78 0.930 . S
C57 C52 1.348 . S
C57 C56 1.408 . S
C57 H79 0.930 . S
C58 O68 1.281 . S
C58 O69 1.254 . S
C59 O70 1.236 . S
C59 O71 1.266 . S
O60 Tb40 2.484 1_545 S
O60 C42 1.248 . S
O61 Tb40 2.440 1_545 S
O61 C42 1.266 . S
O62 Tb40 2.658 . S
O62 Tb41 2.325 . S
O62 C49 1.281 . S
O63 Tb40 2.409 . S
O63 C49 1.254 . S
O64 Tb40 2.378 . S
O64 C50 1.236 . S
O65 Tb41 2.341 . S
O65 C50 1.266 . S
O66 Tb41 2.484 . S
O66 C51 1.248 . S
O67 Tb41 2.440 . S
O67 C51 1.266 . S
O68 Tb40 2.325 . S
O68 Tb41 2.658 . S
O68 C58 1.281 . S
O69 Tb41 2.409 . S
O69 C58 1.254 . S
O70 Tb41 2.378 . S
O70 C59 1.236 . S
O71 Tb40 2.341 . S
O71 C59 1.266 . S
H72 C44 0.929 . S
H73 C45 0.931 . S
H74 C47 0.930 . S
H75 C48 0.930 . S
H76 C53 0.929 . S
H77 C54 0.931 . S
H78 C56 0.930 . S
H79 C57 0.930 . S
Tb80 C82 2.809 1_565 S
Tb80 O100 2.484 1_565 S
Tb80 O101 2.440 1_565 S
Tb80 O102 2.658 . S
Tb80 O103 2.409 . S
Tb80 O104 2.378 . S
Tb80 O108 2.325 . S
Tb80 O111 2.341 . S
Tb81 C91 2.809 . S
Tb81 O102 2.325 . S
Tb81 O105 2.341 . S
Tb81 O106 2.484 . S
Tb81 O107 2.440 . S
Tb81 O108 2.658 . S
Tb81 O109 2.409 . S
Tb81 O110 2.378 . S
C82 Tb80 2.809 1_545 S
C82 C83 1.514 . S
C82 O100 1.248 . S
C82 O101 1.266 . S
C83 C82 1.514 . S
C83 C84 1.359 . S
C83 C88 1.348 . S
C84 C83 1.359 . S
C84 C85 1.380 . S
C84 H112 0.929 . S
C85 C84 1.380 . S
C85 C86 1.347 . S
C85 H113 0.931 . S
C86 C85 1.347 . S
C86 C87 1.369 . S
C87 C86 1.369 . S
C87 C88 1.408 . S
C87 H114 0.930 . S
C88 C83 1.348 . S
C88 C87 1.408 . S
C88 H115 0.930 . S
C89 O102 1.281 . S
C89 O103 1.254 . S
C90 O104 1.236 . S
C90 O105 1.266 . S
C91 Tb81 2.809 . S
C91 C92 1.514 . S
C91 O106 1.248 . S
C91 O107 1.266 . S
C92 C91 1.514 . S
C92 C93 1.359 . S
C92 C97 1.348 . S
C93 C92 1.359 . S
C93 C94 1.380 . S
C93 H116 0.929 . S
C94 C93 1.380 . S
C94 C95 1.347 . S
C94 H117 0.931 . S
C95 C94 1.347 . S
C95 C96 1.369 . S
C96 C95 1.369 . S
C96 C97 1.408 . S
C96 H118 0.930 . S
C97 C92 1.348 . S
C97 C96 1.408 . S
C97 H119 0.930 . S
C98 O108 1.281 . S
C98 O109 1.254 . S
C99 O110 1.236 . S
C99 O111 1.266 . S
O100 Tb80 2.484 1_545 S
O100 C82 1.248 . S
O101 Tb80 2.440 1_545 S
O101 C82 1.266 . S
O102 Tb80 2.658 . S
O102 Tb81 2.325 . S
O102 C89 1.281 . S
O103 Tb80 2.409 . S
O103 C89 1.254 . S
O104 Tb80 2.378 . S
O104 C90 1.236 . S
O105 Tb81 2.341 . S
O105 C90 1.266 . S
O106 Tb81 2.484 . S
O106 C91 1.248 . S
O107 Tb81 2.440 . S
O107 C91 1.266 . S
O108 Tb80 2.325 . S
O108 Tb81 2.658 . S
O108 C98 1.281 . S
O109 Tb81 2.409 . S
O109 C98 1.254 . S
O110 Tb81 2.378 . S
O110 C99 1.236 . S
O111 Tb80 2.341 . S
O111 C99 1.266 . S
H112 C84 0.929 . S
H113 C85 0.931 . S
H114 C87 0.930 . S
H115 C88 0.930 . S
H116 C93 0.929 . S
H117 C94 0.931 . S
H118 C96 0.930 . S
H119 C97 0.930 . S
Tb120 C122 2.809 1_545 S
Tb120 O140 2.484 1_545 S
Tb120 O141 2.440 1_545 S
Tb120 O142 2.658 . S
Tb120 O143 2.409 . S
Tb120 O144 2.378 . S
Tb120 O148 2.325 . S
Tb120 O151 2.341 . S
Tb121 C131 2.809 . S
Tb121 O142 2.325 . S
Tb121 O145 2.341 . S
Tb121 O146 2.484 . S
Tb121 O147 2.440 . S
Tb121 O148 2.658 . S
Tb121 O149 2.409 . S
Tb121 O150 2.378 . S
C122 Tb120 2.809 1_565 S
C122 C123 1.514 . S
C122 O140 1.248 . S
C122 O141 1.266 . S
C123 C122 1.514 . S
C123 C124 1.359 . S
C123 C128 1.348 . S
C124 C123 1.359 . S
C124 C125 1.380 . S
C124 H152 0.929 . S
C125 C124 1.380 . S
C125 C126 1.347 . S
C125 H153 0.931 . S
C126 C125 1.347 . S
C126 C127 1.369 . S
C127 C126 1.369 . S
C127 C128 1.408 . S
C127 H154 0.930 . S
C128 C123 1.348 . S
C128 C127 1.408 . S
C128 H155 0.930 . S
C129 O142 1.281 . S
C129 O143 1.254 . S
C130 O144 1.236 . S
C130 O145 1.266 . S
C131 Tb121 2.809 . S
C131 C132 1.514 . S
C131 O146 1.248 . S
C131 O147 1.266 . S
C132 C131 1.514 . S
C132 C133 1.359 . S
C132 C137 1.348 . S
C133 C132 1.359 . S
C133 C134 1.380 . S
C133 H156 0.929 . S
C134 C133 1.380 . S
C134 C135 1.347 . S
C134 H157 0.931 . S
C135 C134 1.347 . S
C135 C136 1.369 . S
C136 C135 1.369 . S
C136 C137 1.408 . S
C136 H158 0.930 . S
C137 C132 1.348 . S
C137 C136 1.408 . S
C137 H159 0.930 . S
C138 O148 1.281 . S
C138 O149 1.254 . S
C139 O150 1.236 . S
C139 O151 1.266 . S
O140 Tb120 2.484 1_565 S
O140 C122 1.248 . S
O141 Tb120 2.440 1_565 S
O141 C122 1.266 . S
O142 Tb120 2.658 . S
O142 Tb121 2.325 . S
O142 C129 1.281 . S
O143 Tb120 2.409 . S
O143 C129 1.254 . S
O144 Tb120 2.378 . S
O144 C130 1.236 . S
O145 Tb121 2.341 . S
O145 C130 1.266 . S
O146 Tb121 2.484 . S
O146 C131 1.248 . S
O147 Tb121 2.440 . S
O147 C131 1.266 . S
O148 Tb120 2.325 . S
O148 Tb121 2.658 . S
O148 C138 1.281 . S
O149 Tb121 2.409 . S
O149 C138 1.254 . S
O150 Tb121 2.378 . S
O150 C139 1.236 . S
O151 Tb120 2.341 . S
O151 C139 1.266 . S
H152 C124 0.929 . S
H153 C125 0.931 . S
H154 C127 0.930 . S
H155 C128 0.930 . S
H156 C133 0.929 . S
H157 C134 0.931 . S
H158 C136 0.930 . S
H159 C137 0.930 . S
Tb160 C162 2.809 . S
Tb160 O180 2.484 . S
Tb160 O181 2.440 . S
Tb160 O182 2.658 . S
Tb160 O183 2.409 . S
Tb160 O184 2.378 . S
Tb160 O188 2.325 . S
Tb160 O191 2.341 . S
Tb161 C171 2.809 1_565 S
Tb161 O182 2.325 . S
Tb161 O185 2.341 . S
Tb161 O186 2.484 1_565 S
Tb161 O187 2.440 1_565 S
Tb161 O188 2.658 . S
Tb161 O189 2.409 . S
Tb161 O190 2.378 . S
C162 Tb160 2.809 . S
C162 C163 1.514 . S
C162 O180 1.248 . S
C162 O181 1.266 . S
C163 C162 1.514 . S
C163 C164 1.359 . S
C163 C168 1.348 . S
C164 C163 1.359 . S
C164 C165 1.380 . S
C164 H192 0.929 . S
C165 C164 1.380 . S
C165 C166 1.347 . S
C165 H193 0.931 . S
C166 C165 1.347 . S
C166 C167 1.369 . S
C167 C166 1.369 . S
C167 C168 1.408 . S
C167 H194 0.930 . S
C168 C163 1.348 . S
C168 C167 1.408 . S
C168 H195 0.930 . S
C169 O182 1.281 . S
C169 O183 1.254 . S
C170 O184 1.236 . S
C170 O185 1.266 . S
C171 Tb161 2.809 1_545 S
C171 C172 1.514 . S
C171 O186 1.248 . S
C171 O187 1.266 . S
C172 C171 1.514 . S
C172 C173 1.359 . S
C172 C177 1.348 . S
C173 C172 1.359 . S
C173 C174 1.380 . S
C173 H196 0.929 . S
C174 C173 1.380 . S
C174 C175 1.347 . S
C174 H197 0.931 . S
C175 C174 1.347 . S
C175 C176 1.369 . S
C176 C175 1.369 . S
C176 C177 1.408 . S
C176 H198 0.930 . S
C177 C172 1.348 . S
C177 C176 1.408 . S
C177 H199 0.930 . S
C178 O188 1.281 . S
C178 O189 1.254 . S
C179 O190 1.236 . S
C179 O191 1.266 . S
O180 Tb160 2.484 . S
O180 C162 1.248 . S
O181 Tb160 2.440 . S
O181 C162 1.266 . S
O182 Tb160 2.658 . S
O182 Tb161 2.325 . S
O182 C169 1.281 . S
O183 Tb160 2.409 . S
O183 C169 1.254 . S
O184 Tb160 2.378 . S
O184 C170 1.236 . S
O185 Tb161 2.341 . S
O185 C170 1.266 . S
O186 Tb161 2.484 1_545 S
O186 C171 1.248 . S
O187 Tb161 2.440 1_545 S
O187 C171 1.266 . S
O188 Tb160 2.325 . S
O188 Tb161 2.658 . S
O188 C178 1.281 . S
O189 Tb161 2.409 . S
O189 C178 1.254 . S
O190 Tb161 2.378 . S
O190 C179 1.236 . S
O191 Tb160 2.341 . S
O191 C179 1.266 . S
H192 C164 0.929 . S
H193 C165 0.931 . S
H194 C167 0.930 . S
H195 C168 0.930 . S
H196 C173 0.929 . S
H197 C174 0.931 . S
H198 C176 0.930 . S
H199 C177 0.930 . S
Tb200 C202 2.809 . S
Tb200 O220 2.484 . S
Tb200 O221 2.440 . S
Tb200 O222 2.658 . S
Tb200 O223 2.409 . S
Tb200 O224 2.378 . S
Tb200 O228 2.325 . S
Tb200 O231 2.341 . S
Tb201 C211 2.809 1_545 S
Tb201 O222 2.325 . S
Tb201 O225 2.341 . S
Tb201 O226 2.484 1_545 S
Tb201 O227 2.440 1_545 S
Tb201 O228 2.658 . S
Tb201 O229 2.409 . S
Tb201 O230 2.378 . S
C202 Tb200 2.809 . S
C202 C203 1.514 . S
C202 O220 1.248 . S
C202 O221 1.266 . S
C203 C202 1.514 . S
C203 C204 1.359 . S
C203 C208 1.348 . S
C204 C203 1.359 . S
C204 C205 1.380 . S
C204 H232 0.929 . S
C205 C204 1.380 . S
C205 C206 1.347 . S
C205 H233 0.931 . S
C206 C205 1.347 . S
C206 C207 1.369 . S
C207 C206 1.369 . S
C207 C208 1.408 . S
C207 H234 0.930 . S
C208 C203 1.348 . S
C208 C207 1.408 . S
C208 H235 0.930 . S
C209 O222 1.281 . S
C209 O223 1.254 . S
C210 O224 1.236 . S
C210 O225 1.266 . S
C211 Tb201 2.809 1_565 S
C211 C212 1.514 . S
C211 O226 1.248 . S
C211 O227 1.266 . S
C212 C211 1.514 . S
C212 C213 1.359 . S
C212 C217 1.348 . S
C213 C212 1.359 . S
C213 C214 1.380 . S
C213 H236 0.929 . S
C214 C213 1.380 . S
C214 C215 1.347 . S
C214 H237 0.931 . S
C215 C214 1.347 . S
C215 C216 1.369 . S
C216 C215 1.369 . S
C216 C217 1.408 . S
C216 H238 0.930 . S
C217 C212 1.348 . S
C217 C216 1.408 . S
C217 H239 0.930 . S
C218 O228 1.281 . S
C218 O229 1.254 . S
C219 O230 1.236 . S
C219 O231 1.266 . S
O220 Tb200 2.484 . S
O220 C202 1.248 . S
O221 Tb200 2.440 . S
O221 C202 1.266 . S
O222 Tb200 2.658 . S
O222 Tb201 2.325 . S
O222 C209 1.281 . S
O223 Tb200 2.409 . S
O223 C209 1.254 . S
O224 Tb200 2.378 . S
O224 C210 1.236 . S
O225 Tb201 2.341 . S
O225 C210 1.266 . S
O226 Tb201 2.484 1_565 S
O226 C211 1.248 . S
O227 Tb201 2.440 1_565 S
O227 C211 1.266 . S
O228 Tb200 2.325 . S
O228 Tb201 2.658 . S
O228 C218 1.281 . S
O229 Tb201 2.409 . S
O229 C218 1.254 . S
O230 Tb201 2.378 . S
O230 C219 1.236 . S
O231 Tb200 2.341 . S
O231 C219 1.266 . S
H232 C204 0.929 . S
H233 C205 0.931 . S
H234 C207 0.930 . S
H235 C208 0.930 . S
H236 C213 0.929 . S
H237 C214 0.931 . S
H238 C216 0.930 . S
H239 C217 0.930 . S
Tb240 C242 2.809 . S
Tb240 O260 2.484 . S
Tb240 O261 2.440 . S
Tb240 O262 2.658 . S
Tb240 O263 2.409 . S
Tb240 O264 2.378 . S
Tb240 O268 2.325 . S
Tb240 O271 2.341 . S
Tb241 C251 2.809 1_545 S
Tb241 O262 2.325 . S
Tb241 O265 2.341 . S
Tb241 O266 2.484 1_545 S
Tb241 O267 2.440 1_545 S
Tb241 O268 2.658 . S
Tb241 O269 2.409 . S
Tb241 O270 2.378 . S
C242 Tb240 2.809 . S
C242 C243 1.514 . S
C242 O260 1.248 . S
C242 O261 1.266 . S
C243 C242 1.514 . S
C243 C244 1.359 . S
C243 C248 1.348 . S
C244 C243 1.359 . S
C244 C245 1.380 . S
C244 H272 0.929 . S
C245 C244 1.380 . S
C245 C246 1.347 . S
C245 H273 0.931 . S
C246 C245 1.347 . S
C246 C247 1.369 . S
C247 C246 1.369 . S
C247 C248 1.408 . S
C247 H274 0.930 . S
C248 C243 1.348 . S
C248 C247 1.408 . S
C248 H275 0.930 . S
C249 O262 1.281 . S
C249 O263 1.254 . S
C250 O264 1.236 . S
C250 O265 1.266 . S
C251 Tb241 2.809 1_565 S
C251 C252 1.514 . S
C251 O266 1.248 . S
C251 O267 1.266 . S
C252 C251 1.514 . S
C252 C253 1.359 . S
C252 C257 1.348 . S
C253 C252 1.359 . S
C253 C254 1.380 . S
C253 H276 0.929 . S
C254 C253 1.380 . S
C254 C255 1.347 . S
C254 H277 0.931 . S
C255 C254 1.347 . S
C255 C256 1.369 . S
C256 C255 1.369 . S
C256 C257 1.408 . S
C256 H278 0.930 . S
C257 C252 1.348 . S
C257 C256 1.408 . S
C257 H279 0.930 . S
C258 O268 1.281 . S
C258 O269 1.254 . S
C259 O270 1.236 . S
C259 O271 1.266 . S
O260 Tb240 2.484 . S
O260 C242 1.248 . S
O261 Tb240 2.440 . S
O261 C242 1.266 . S
O262 Tb240 2.658 . S
O262 Tb241 2.325 . S
O262 C249 1.281 . S
O263 Tb240 2.409 . S
O263 C249 1.254 . S
O264 Tb240 2.378 . S
O264 C250 1.236 . S
O265 Tb241 2.341 . S
O265 C250 1.266 . S
O266 Tb241 2.484 1_565 S
O266 C251 1.248 . S
O267 Tb241 2.440 1_565 S
O267 C251 1.266 . S
O268 Tb240 2.325 . S
O268 Tb241 2.658 . S
O268 C258 1.281 . S
O269 Tb241 2.409 . S
O269 C258 1.254 . S
O270 Tb241 2.378 . S
O270 C259 1.236 . S
O271 Tb240 2.341 . S
O271 C259 1.266 . S
H272 C244 0.929 . S
H273 C245 0.931 . S
H274 C247 0.930 . S
H275 C248 0.930 . S
H276 C253 0.929 . S
H277 C254 0.931 . S
H278 C256 0.930 . S
H279 C257 0.930 . S
Tb280 C282 2.809 . S
Tb280 O300 2.484 . S
Tb280 O301 2.440 . S
Tb280 O302 2.658 . S
Tb280 O303 2.409 . S
Tb280 O304 2.378 . S
Tb280 O308 2.325 . S
Tb280 O311 2.341 . S
Tb281 C291 2.809 1_565 S
Tb281 O302 2.325 . S
Tb281 O305 2.341 . S
Tb281 O306 2.484 1_565 S
Tb281 O307 2.440 1_565 S
Tb281 O308 2.658 . S
Tb281 O309 2.409 . S
Tb281 O310 2.378 . S
C282 Tb280 2.809 . S
C282 C283 1.514 . S
C282 O300 1.248 . S
C282 O301 1.266 . S
C283 C282 1.514 . S
C283 C284 1.359 . S
C283 C288 1.348 . S
C284 C283 1.359 . S
C284 C285 1.380 . S
C284 H312 0.929 . S
C285 C284 1.380 . S
C285 C286 1.347 . S
C285 H313 0.931 . S
C286 C285 1.347 . S
C286 C287 1.369 . S
C287 C286 1.369 . S
C287 C288 1.408 . S
C287 H314 0.930 . S
C288 C283 1.348 . S
C288 C287 1.408 . S
C288 H315 0.930 . S
C289 O302 1.281 . S
C289 O303 1.254 . S
C290 O304 1.236 . S
C290 O305 1.266 . S
C291 Tb281 2.809 1_545 S
C291 C292 1.514 . S
C291 O306 1.248 . S
C291 O307 1.266 . S
C292 C291 1.514 . S
C292 C293 1.359 . S
C292 C297 1.348 . S
C293 C292 1.359 . S
C293 C294 1.380 . S
C293 H316 0.929 . S
C294 C293 1.380 . S
C294 C295 1.347 . S
C294 H317 0.931 . S
C295 C294 1.347 . S
C295 C296 1.369 . S
C296 C295 1.369 . S
C296 C297 1.408 . S
C296 H318 0.930 . S
C297 C292 1.348 . S
C297 C296 1.408 . S
C297 H319 0.930 . S
C298 O308 1.281 . S
C298 O309 1.254 . S
C299 O310 1.236 . S
C299 O311 1.266 . S
O300 Tb280 2.484 . S
O300 C282 1.248 . S
O301 Tb280 2.440 . S
O301 C282 1.266 . S
O302 Tb280 2.658 . S
O302 Tb281 2.325 . S
O302 C289 1.281 . S
O303 Tb280 2.409 . S
O303 C289 1.254 . S
O304 Tb280 2.378 . S
O304 C290 1.236 . S
O305 Tb281 2.341 . S
O305 C290 1.266 . S
O306 Tb281 2.484 1_545 S
O306 C291 1.248 . S
O307 Tb281 2.440 1_545 S
O307 C291 1.266 . S
O308 Tb280 2.325 . S
O308 Tb281 2.658 . S
O308 C298 1.281 . S
O309 Tb281 2.409 . S
O309 C298 1.254 . S
O310 Tb281 2.378 . S
O310 C299 1.236 . S
O311 Tb280 2.341 . S
O311 C299 1.266 . S
H312 C284 0.929 . S
H313 C285 0.931 . S
H314 C287 0.930 . S
H315 C288 0.930 . S
H316 C293 0.929 . S
H317 C294 0.931 . S
H318 C296 0.930 . S
H319 C297 0.930 . S
Tb320 C322 2.809 . S
Tb320 O340 2.484 . S
Tb320 O341 2.440 . S
Tb320 O342 2.658 . S
Tb320 O343 2.409 . S
Tb320 O344 2.378 . S
Tb320 O348 2.325 . S
Tb320 O351 2.341 . S
Tb321 C331 2.809 . S
Tb321 O342 2.325 . S
Tb321 O345 2.341 . S
Tb321 O346 2.484 . S
Tb321 O347 2.440 . S
Tb321 O348 2.658 . S
Tb321 O349 2.409 . S
Tb321 O350 2.378 . S
C322 Tb320 2.809 . S
C322 C323 1.514 . S
C322 O340 1.248 . S
C322 O341 1.266 . S
C323 C322 1.514 . S
C323 C324 1.359 . S
C323 C328 1.348 . S
C324 C323 1.359 . S
C324 C325 1.380 . S
C324 H352 0.929 . S
C325 C324 1.380 . S
C325 C326 1.347 . S
C325 H353 0.931 . S
C326 C325 1.347 . S
C326 C327 1.369 . S
C327 C326 1.369 . S
C327 C328 1.408 . S
C327 H354 0.930 . S
C328 C323 1.348 . S
C328 C327 1.408 . S
C328 H355 0.930 . S
C329 O342 1.281 . S
C329 O343 1.254 . S
C330 O344 1.236 . S
C330 O345 1.266 . S
C331 Tb321 2.809 . S
C331 C332 1.514 . S
C331 O346 1.248 . S
C331 O347 1.266 . S
C332 C331 1.514 . S
C332 C333 1.359 . S
C332 C337 1.348 . S
C333 C332 1.359 . S
C333 C334 1.380 . S
C333 H356 0.929 . S
C334 C333 1.380 . S
C334 C335 1.347 . S
C334 H357 0.931 . S
C335 C334 1.347 . S
C335 C336 1.369 . S
C336 C335 1.369 . S
C336 C337 1.408 . S
C336 H358 0.930 . S
C337 C332 1.348 . S
C337 C336 1.408 . S
C337 H359 0.930 . S
C338 O348 1.281 . S
C338 O349 1.254 . S
C339 O350 1.236 . S
C339 O351 1.266 . S
O340 Tb320 2.484 . S
O340 C322 1.248 . S
O341 Tb320 2.440 . S
O341 C322 1.266 . S
O342 Tb320 2.658 . S
O342 Tb321 2.325 . S
O342 C329 1.281 . S
O343 Tb320 2.409 . S
O343 C329 1.254 . S
O344 Tb320 2.378 . S
O344 C330 1.236 . S
O345 Tb321 2.341 . S
O345 C330 1.266 . S
O346 Tb321 2.484 . S
O346 C331 1.248 . S
O347 Tb321 2.440 . S
O347 C331 1.266 . S
O348 Tb320 2.325 . S
O348 Tb321 2.658 . S
O348 C338 1.281 . S
O349 Tb321 2.409 . S
O349 C338 1.254 . S
O350 Tb321 2.378 . S
O350 C339 1.236 . S
O351 Tb320 2.341 . S
O351 C339 1.266 . S
H352 C324 0.929 . S
H353 C325 0.931 . S
H354 C327 0.930 . S
H355 C328 0.930 . S
H356 C333 0.929 . S
H357 C334 0.931 . S
H358 C336 0.930 . S
H359 C337 0.930 . S
Tb360 C362 2.809 . S
Tb360 O380 2.484 . S
Tb360 O381 2.440 . S
Tb360 O382 2.658 . S
Tb360 O383 2.409 . S
Tb360 O384 2.378 . S
Tb360 O388 2.325 . S
Tb360 O391 2.341 . S
Tb361 C371 2.809 . S
Tb361 O382 2.325 . S
Tb361 O385 2.341 . S
Tb361 O386 2.484 . S
Tb361 O387 2.440 . S
Tb361 O388 2.658 . S
Tb361 O389 2.409 . S
Tb361 O390 2.378 . S
C362 Tb360 2.809 . S
C362 C363 1.514 . S
C362 O380 1.248 . S
C362 O381 1.266 . S
C363 C362 1.514 . S
C363 C364 1.359 . S
C363 C368 1.348 . S
C364 C363 1.359 . S
C364 C365 1.380 . S
C364 H392 0.929 . S
C365 C364 1.380 . S
C365 C366 1.347 . S
C365 H393 0.931 . S
C366 C365 1.347 . S
C366 C367 1.369 . S
C367 C366 1.369 . S
C367 C368 1.408 . S
C367 H394 0.930 . S
C368 C363 1.348 . S
C368 C367 1.408 . S
C368 H395 0.930 . S
C369 O382 1.281 . S
C369 O383 1.254 . S
C370 O384 1.236 . S
C370 O385 1.266 . S
C371 Tb361 2.809 . S
C371 C372 1.514 . S
C371 O386 1.248 . S
C371 O387 1.266 . S
C372 C371 1.514 . S
C372 C373 1.359 . S
C372 C377 1.348 . S
C373 C372 1.359 . S
C373 C374 1.380 . S
C373 H396 0.929 . S
C374 C373 1.380 . S
C374 C375 1.347 . S
C374 H397 0.931 . S
C375 C374 1.347 . S
C375 C376 1.369 . S
C376 C375 1.369 . S
C376 C377 1.408 . S
C376 H398 0.930 . S
C377 C372 1.348 . S
C377 C376 1.408 . S
C377 H399 0.930 . S
C378 O388 1.281 . S
C378 O389 1.254 . S
C379 O390 1.236 . S
C379 O391 1.266 . S
O380 Tb360 2.484 . S
O380 C362 1.248 . S
O381 Tb360 2.440 . S
O381 C362 1.266 . S
O382 Tb360 2.658 . S
O382 Tb361 2.325 . S
O382 C369 1.281 . S
O383 Tb360 2.409 . S
O383 C369 1.254 . S
O384 Tb360 2.378 . S
O384 C370 1.236 . S
O385 Tb361 2.341 . S
O385 C370 1.266 . S
O386 Tb361 2.484 . S
O386 C371 1.248 . S
O387 Tb361 2.440 . S
O387 C371 1.266 . S
O388 Tb360 2.325 . S
O388 Tb361 2.658 . S
O388 C378 1.281 . S
O389 Tb361 2.409 . S
O389 C378 1.254 . S
O390 Tb361 2.378 . S
O390 C379 1.236 . S
O391 Tb360 2.341 . S
O391 C379 1.266 . S
H392 C364 0.929 . S
H393 C365 0.931 . S
H394 C367 0.930 . S
H395 C368 0.930 . S
H396 C373 0.929 . S
H397 C374 0.931 . S
H398 C376 0.930 . S
H399 C377 0.930 . S
Tb400 C402 2.809 . S
Tb400 O420 2.484 . S
Tb400 O421 2.440 . S
Tb400 O422 2.658 . S
Tb400 O423 2.409 . S
Tb400 O424 2.378 . S
Tb400 O428 2.325 . S
Tb400 O431 2.341 . S
Tb401 C411 2.809 . S
Tb401 O422 2.325 . S
Tb401 O425 2.341 . S
Tb401 O426 2.484 . S
Tb401 O427 2.440 . S
Tb401 O428 2.658 . S
Tb401 O429 2.409 . S
Tb401 O430 2.378 . S
C402 Tb400 2.809 . S
C402 C403 1.514 . S
C402 O420 1.248 . S
C402 O421 1.266 . S
C403 C402 1.514 . S
C403 C404 1.359 . S
C403 C408 1.348 . S
C404 C403 1.359 . S
C404 C405 1.380 . S
C404 H432 0.929 . S
C405 C404 1.380 . S
C405 C406 1.347 . S
C405 H433 0.931 . S
C406 C405 1.347 . S
C406 C407 1.369 . S
C407 C406 1.369 . S
C407 C408 1.408 . S
C407 H434 0.930 . S
C408 C403 1.348 . S
C408 C407 1.408 . S
C408 H435 0.930 . S
C409 O422 1.281 . S
C409 O423 1.254 . S
C410 O424 1.236 . S
C410 O425 1.266 . S
C411 Tb401 2.809 . S
C411 C412 1.514 . S
C411 O426 1.248 . S
C411 O427 1.266 . S
C412 C411 1.514 . S
C412 C413 1.359 . S
C412 C417 1.348 . S
C413 C412 1.359 . S
C413 C414 1.380 . S
C413 H436 0.929 . S
C414 C413 1.380 . S
C414 C415 1.347 . S
C414 H437 0.931 . S
C415 C414 1.347 . S
C415 C416 1.369 . S
C416 C415 1.369 . S
C416 C417 1.408 . S
C416 H438 0.930 . S
C417 C412 1.348 . S
C417 C416 1.408 . S
C417 H439 0.930 . S
C418 O428 1.281 . S
C418 O429 1.254 . S
C419 O430 1.236 . S
C419 O431 1.266 . S
O420 Tb400 2.484 . S
O420 C402 1.248 . S
O421 Tb400 2.440 . S
O421 C402 1.266 . S
O422 Tb400 2.658 . S
O422 Tb401 2.325 . S
O422 C409 1.281 . S
O423 Tb400 2.409 . S
O423 C409 1.254 . S
O424 Tb400 2.378 . S
O424 C410 1.236 . S
O425 Tb401 2.341 . S
O425 C410 1.266 . S
O426 Tb401 2.484 . S
O426 C411 1.248 . S
O427 Tb401 2.440 . S
O427 C411 1.266 . S
O428 Tb400 2.325 . S
O428 Tb401 2.658 . S
O428 C418 1.281 . S
O429 Tb401 2.409 . S
O429 C418 1.254 . S
O430 Tb401 2.378 . S
O430 C419 1.236 . S
O431 Tb400 2.341 . S
O431 C419 1.266 . S
H432 C404 0.929 . S
H433 C405 0.931 . S
H434 C407 0.930 . S
H435 C408 0.930 . S
H436 C413 0.929 . S
H437 C414 0.931 . S
H438 C416 0.930 . S
H439 C417 0.930 . S
Tb440 C442 2.809 . S
Tb440 O460 2.484 . S
Tb440 O461 2.440 . S
Tb440 O462 2.658 . S
Tb440 O463 2.409 . S
Tb440 O464 2.378 . S
Tb440 O468 2.325 . S
Tb440 O471 2.341 . S
Tb441 C451 2.809 . S
Tb441 O462 2.325 . S
Tb441 O465 2.341 . S
Tb441 O466 2.484 . S
Tb441 O467 2.440 . S
Tb441 O468 2.658 . S
Tb441 O469 2.409 . S
Tb441 O470 2.378 . S
C442 Tb440 2.809 . S
C442 C443 1.514 . S
C442 O460 1.248 . S
C442 O461 1.266 . S
C443 C442 1.514 . S
C443 C444 1.359 . S
C443 C448 1.348 . S
C444 C443 1.359 . S
C444 C445 1.380 . S
C444 H472 0.929 . S
C445 C444 1.380 . S
C445 C446 1.347 . S
C445 H473 0.931 . S
C446 C445 1.347 . S
C446 C447 1.369 . S
C447 C446 1.369 . S
C447 C448 1.408 . S
C447 H474 0.930 . S
C448 C443 1.348 . S
C448 C447 1.408 . S
C448 H475 0.930 . S
C449 O462 1.281 . S
C449 O463 1.254 . S
C450 O464 1.236 . S
C450 O465 1.266 . S
C451 Tb441 2.809 . S
C451 C452 1.514 . S
C451 O466 1.248 . S
C451 O467 1.266 . S
C452 C451 1.514 . S
C452 C453 1.359 . S
C452 C457 1.348 . S
C453 C452 1.359 . S
C453 C454 1.380 . S
C453 H476 0.929 . S
C454 C453 1.380 . S
C454 C455 1.347 . S
C454 H477 0.931 . S
C455 C454 1.347 . S
C455 C456 1.369 . S
C456 C455 1.369 . S
C456 C457 1.408 . S
C456 H478 0.930 . S
C457 C452 1.348 . S
C457 C456 1.408 . S
C457 H479 0.930 . S
C458 O468 1.281 . S
C458 O469 1.254 . S
C459 O470 1.236 . S
C459 O471 1.266 . S
O460 Tb440 2.484 . S
O460 C442 1.248 . S
O461 Tb440 2.440 . S
O461 C442 1.266 . S
O462 Tb440 2.658 . S
O462 Tb441 2.325 . S
O462 C449 1.281 . S
O463 Tb440 2.409 . S
O463 C449 1.254 . S
O464 Tb440 2.378 . S
O464 C450 1.236 . S
O465 Tb441 2.341 . S
O465 C450 1.266 . S
O466 Tb441 2.484 . S
O466 C451 1.248 . S
O467 Tb441 2.440 . S
O467 C451 1.266 . S
O468 Tb440 2.325 . S
O468 Tb441 2.658 . S
O468 C458 1.281 . S
O469 Tb441 2.409 . S
O469 C458 1.254 . S
O470 Tb441 2.378 . S
O470 C459 1.236 . S
O471 Tb440 2.341 . S
O471 C459 1.266 . S
H472 C444 0.929 . S
H473 C445 0.931 . S
H474 C447 0.930 . S
H475 C448 0.930 . S
H476 C453 0.929 . S
H477 C454 0.931 . S
H478 C456 0.930 . S
H479 C457 0.930 . S
Tb480 C482 2.809 . S
Tb480 O500 2.484 . S
Tb480 O501 2.440 . S
Tb480 O502 2.658 . S
Tb480 O503 2.409 . S
Tb480 O504 2.378 . S
Tb480 O508 2.325 . S
Tb480 O511 2.341 . S
Tb481 C491 2.809 . S
Tb481 O502 2.325 . S
Tb481 O505 2.341 . S
Tb481 O506 2.484 . S
Tb481 O507 2.440 . S
Tb481 O508 2.658 . S
Tb481 O509 2.409 . S
Tb481 O510 2.378 . S
C482 Tb480 2.809 . S
C482 C483 1.514 . S
C482 O500 1.248 . S
C482 O501 1.266 . S
C483 C482 1.514 . S
C483 C484 1.359 . S
C483 C488 1.348 . S
C484 C483 1.359 . S
C484 C485 1.380 . S
C484 H512 0.929 . S
C485 C484 1.380 . S
C485 C486 1.347 . S
C485 H513 0.931 . S
C486 C485 1.347 . S
C486 C487 1.369 . S
C487 C486 1.369 . S
C487 C488 1.408 . S
C487 H514 0.930 . S
C488 C483 1.348 . S
C488 C487 1.408 . S
C488 H515 0.930 . S
C489 O502 1.281 . S
C489 O503 1.254 . S
C490 O504 1.236 . S
C490 O505 1.266 . S
C491 Tb481 2.809 . S
C491 C492 1.514 . S
C491 O506 1.248 . S
C491 O507 1.266 . S
C492 C491 1.514 . S
C492 C493 1.359 . S
C492 C497 1.348 . S
C493 C492 1.359 . S
C493 C494 1.380 . S
C493 H516 0.929 . S
C494 C493 1.380 . S
C494 C495 1.347 . S
C494 H517 0.931 . S
C495 C494 1.347 . S
C495 C496 1.369 . S
C496 C495 1.369 . S
C496 C497 1.408 . S
C496 H518 0.930 . S
C497 C492 1.348 . S
C497 C496 1.408 . S
C497 H519 0.930 . S
C498 O508 1.281 . S
C498 O509 1.254 . S
C499 O510 1.236 . S
C499 O511 1.266 . S
O500 Tb480 2.484 . S
O500 C482 1.248 . S
O501 Tb480 2.440 . S
O501 C482 1.266 . S
O502 Tb480 2.658 . S
O502 Tb481 2.325 . S
O502 C489 1.281 . S
O503 Tb480 2.409 . S
O503 C489 1.254 . S
O504 Tb480 2.378 . S
O504 C490 1.236 . S
O505 Tb481 2.341 . S
O505 C490 1.266 . S
O506 Tb481 2.484 . S
O506 C491 1.248 . S
O507 Tb481 2.440 . S
O507 C491 1.266 . S
O508 Tb480 2.325 . S
O508 Tb481 2.658 . S
O508 C498 1.281 . S
O509 Tb481 2.409 . S
O509 C498 1.254 . S
O510 Tb481 2.378 . S
O510 C499 1.236 . S
O511 Tb480 2.341 . S
O511 C499 1.266 . S
H512 C484 0.929 . S
H513 C485 0.931 . S
H514 C487 0.930 . S
H515 C488 0.930 . S
H516 C493 0.929 . S
H517 C494 0.931 . S
H518 C496 0.930 . S
H519 C497 0.930 . S
Tb520 C522 2.809 . S
Tb520 O540 2.484 . S
Tb520 O541 2.440 . S
Tb520 O542 2.658 . S
Tb520 O543 2.409 . S
Tb520 O544 2.378 . S
Tb520 O548 2.325 . S
Tb520 O551 2.341 . S
Tb521 C531 2.809 . S
Tb521 O542 2.325 . S
Tb521 O545 2.341 . S
Tb521 O546 2.484 . S
Tb521 O547 2.440 . S
Tb521 O548 2.658 . S
Tb521 O549 2.409 . S
Tb521 O550 2.378 . S
C522 Tb520 2.809 . S
C522 C523 1.514 . S
C522 O540 1.248 . S
C522 O541 1.266 . S
C523 C522 1.514 . S
C523 C524 1.359 . S
C523 C528 1.348 . S
C524 C523 1.359 . S
C524 C525 1.380 . S
C524 H552 0.929 . S
C525 C524 1.380 . S
C525 C526 1.347 . S
C525 H553 0.931 . S
C526 C525 1.347 . S
C526 C527 1.369 . S
C527 C526 1.369 . S
C527 C528 1.408 . S
C527 H554 0.930 . S
C528 C523 1.348 . S
C528 C527 1.408 . S
C528 H555 0.930 . S
C529 O542 1.281 . S
C529 O543 1.254 . S
C530 O544 1.236 . S
C530 O545 1.266 . S
C531 Tb521 2.809 . S
C531 C532 1.514 . S
C531 O546 1.248 . S
C531 O547 1.266 . S
C532 C531 1.514 . S
C532 C533 1.359 . S
C532 C537 1.348 . S
C533 C532 1.359 . S
C533 C534 1.380 . S
C533 H556 0.929 . S
C534 C533 1.380 . S
C534 C535 1.347 . S
C534 H557 0.931 . S
C535 C534 1.347 . S
C535 C536 1.369 . S
C536 C535 1.369 . S
C536 C537 1.408 . S
C536 H558 0.930 . S
C537 C532 1.348 . S
C537 C536 1.408 . S
C537 H559 0.930 . S
C538 O548 1.281 . S
C538 O549 1.254 . S
C539 O550 1.236 . S
C539 O551 1.266 . S
O540 Tb520 2.484 . S
O540 C522 1.248 . S
O541 Tb520 2.440 . S
O541 C522 1.266 . S
O542 Tb520 2.658 . S
O542 Tb521 2.325 . S
O542 C529 1.281 . S
O543 Tb520 2.409 . S
O543 C529 1.254 . S
O544 Tb520 2.378 . S
O544 C530 1.236 . S
O545 Tb521 2.341 . S
O545 C530 1.266 . S
O546 Tb521 2.484 . S
O546 C531 1.248 . S
O547 Tb521 2.440 . S
O547 C531 1.266 . S
O548 Tb520 2.325 . S
O548 Tb521 2.658 . S
O548 C538 1.281 . S
O549 Tb521 2.409 . S
O549 C538 1.254 . S
O550 Tb521 2.378 . S
O550 C539 1.236 . S
O551 Tb520 2.341 . S
O551 C539 1.266 . S
H552 C524 0.929 . S
H553 C525 0.931 . S
H554 C527 0.930 . S
H555 C528 0.930 . S
H556 C533 0.929 . S
H557 C534 0.931 . S
H558 C536 0.930 . S
H559 C537 0.930 . S
Tb560 C562 2.809 . S
Tb560 O580 2.484 . S
Tb560 O581 2.440 . S
Tb560 O582 2.658 . S
Tb560 O583 2.409 . S
Tb560 O584 2.378 . S
Tb560 O588 2.325 . S
Tb560 O591 2.341 . S
Tb561 C571 2.809 . S
Tb561 O582 2.325 . S
Tb561 O585 2.341 . S
Tb561 O586 2.484 . S
Tb561 O587 2.440 . S
Tb561 O588 2.658 . S
Tb561 O589 2.409 . S
Tb561 O590 2.378 . S
C562 Tb560 2.809 . S
C562 C563 1.514 . S
C562 O580 1.248 . S
C562 O581 1.266 . S
C563 C562 1.514 . S
C563 C564 1.359 . S
C563 C568 1.348 . S
C564 C563 1.359 . S
C564 C565 1.380 . S
C564 H592 0.929 . S
C565 C564 1.380 . S
C565 C566 1.347 . S
C565 H593 0.931 . S
C566 C565 1.347 . S
C566 C567 1.369 . S
C567 C566 1.369 . S
C567 C568 1.408 . S
C567 H594 0.930 . S
C568 C563 1.348 . S
C568 C567 1.408 . S
C568 H595 0.930 . S
C569 O582 1.281 . S
C569 O583 1.254 . S
C570 O584 1.236 . S
C570 O585 1.266 . S
C571 Tb561 2.809 . S
C571 C572 1.514 . S
C571 O586 1.248 . S
C571 O587 1.266 . S
C572 C571 1.514 . S
C572 C573 1.359 . S
C572 C577 1.348 . S
C573 C572 1.359 . S
C573 C574 1.380 . S
C573 H596 0.929 . S
C574 C573 1.380 . S
C574 C575 1.347 . S
C574 H597 0.931 . S
C575 C574 1.347 . S
C575 C576 1.369 . S
C576 C575 1.369 . S
C576 C577 1.408 . S
C576 H598 0.930 . S
C577 C572 1.348 . S
C577 C576 1.408 . S
C577 H599 0.930 . S
C578 O588 1.281 . S
C578 O589 1.254 . S
C579 O590 1.236 . S
C579 O591 1.266 . S
O580 Tb560 2.484 . S
O580 C562 1.248 . S
O581 Tb560 2.440 . S
O581 C562 1.266 . S
O582 Tb560 2.658 . S
O582 Tb561 2.325 . S
O582 C569 1.281 . S
O583 Tb560 2.409 . S
O583 C569 1.254 . S
O584 Tb560 2.378 . S
O584 C570 1.236 . S
O585 Tb561 2.341 . S
O585 C570 1.266 . S
O586 Tb561 2.484 . S
O586 C571 1.248 . S
O587 Tb561 2.440 . S
O587 C571 1.266 . S
O588 Tb560 2.325 . S
O588 Tb561 2.658 . S
O588 C578 1.281 . S
O589 Tb561 2.409 . S
O589 C578 1.254 . S
O590 Tb561 2.378 . S
O590 C579 1.236 . S
O591 Tb560 2.341 . S
O591 C579 1.266 . S
H592 C564 0.929 . S
H593 C565 0.931 . S
H594 C567 0.930 . S
H595 C568 0.930 . S
H596 C573 0.929 . S
H597 C574 0.931 . S
H598 C576 0.930 . S
H599 C577 0.930 . S
Tb600 C602 2.809 . S
Tb600 O620 2.484 . S
Tb600 O621 2.440 . S
Tb600 O622 2.658 . S
Tb600 O623 2.409 . S
Tb600 O624 2.378 . S
Tb600 O628 2.325 . S
Tb600 O631 2.341 . S
Tb601 C611 2.809 . S
Tb601 O622 2.325 . S
Tb601 O625 2.341 . S
Tb601 O626 2.484 . S
Tb601 O627 2.440 . S
Tb601 O628 2.658 . S
Tb601 O629 2.409 . S
Tb601 O630 2.378 . S
C602 Tb600 2.809 . S
C602 C603 1.514 . S
C602 O620 1.248 . S
C602 O621 1.266 . S
C603 C602 1.514 . S
C603 C604 1.359 . S
C603 C608 1.348 . S
C604 C603 1.359 . S
C604 C605 1.380 . S
C604 H632 0.929 . S
C605 C604 1.380 . S
C605 C606 1.347 . S
C605 H633 0.931 . S
C606 C605 1.347 . S
C606 C607 1.369 . S
C607 C606 1.369 . S
C607 C608 1.408 . S
C607 H634 0.930 . S
C608 C603 1.348 . S
C608 C607 1.408 . S
C608 H635 0.930 . S
C609 O622 1.281 . S
C609 O623 1.254 . S
C610 O624 1.236 . S
C610 O625 1.266 . S
C611 Tb601 2.809 . S
C611 C612 1.514 . S
C611 O626 1.248 . S
C611 O627 1.266 . S
C612 C611 1.514 . S
C612 C613 1.359 . S
C612 C617 1.348 . S
C613 C612 1.359 . S
C613 C614 1.380 . S
C613 H636 0.929 . S
C614 C613 1.380 . S
C614 C615 1.347 . S
C614 H637 0.931 . S
C615 C614 1.347 . S
C615 C616 1.369 . S
C616 C615 1.369 . S
C616 C617 1.408 . S
C616 H638 0.930 . S
C617 C612 1.348 . S
C617 C616 1.408 . S
C617 H639 0.930 . S
C618 O628 1.281 . S
C618 O629 1.254 . S
C619 O630 1.236 . S
C619 O631 1.266 . S
O620 Tb600 2.484 . S
O620 C602 1.248 . S
O621 Tb600 2.440 . S
O621 C602 1.266 . S
O622 Tb600 2.658 . S
O622 Tb601 2.325 . S
O622 C609 1.281 . S
O623 Tb600 2.409 . S
O623 C609 1.254 . S
O624 Tb600 2.378 . S
O624 C610 1.236 . S
O625 Tb601 2.341 . S
O625 C610 1.266 . S
O626 Tb601 2.484 . S
O626 C611 1.248 . S
O627 Tb601 2.440 . S
O627 C611 1.266 . S
O628 Tb600 2.325 . S
O628 Tb601 2.658 . S
O628 C618 1.281 . S
O629 Tb601 2.409 . S
O629 C618 1.254 . S
O630 Tb601 2.378 . S
O630 C619 1.236 . S
O631 Tb600 2.341 . S
O631 C619 1.266 . S
H632 C604 0.929 . S
H633 C605 0.931 . S
H634 C607 0.930 . S
H635 C608 0.930 . S
H636 C613 0.929 . S
H637 C614 0.931 . S
H638 C616 0.930 . S
H639 C617 0.930 . S
C640 C641 1.363 . S
C640 C646 1.379 . S
C640 N648 1.356 . S
C641 C640 1.363 . S
C641 C647 1.363 . S
C642 C643 1.363 . S
C642 C647 1.379 . S
C642 N649 1.356 . S
C643 C642 1.363 . S
C643 C646 1.363 . S
N644 C646 1.356 . S
N644 H656 0.984 . S
N644 H657 0.985 . S
N645 C647 1.356 . S
N645 H650 0.984 . S
N645 H651 0.985 . S
C646 C640 1.379 . S
C646 C643 1.363 . S
C646 N644 1.356 . S
C647 C641 1.363 . S
C647 C642 1.379 . S
C647 N645 1.356 . S
N648 C640 1.356 . S
N648 H654 0.984 . S
N648 H655 0.984 . S
N649 C642 1.356 . S
N649 H652 0.984 . S
N649 H653 0.985 . S
H650 N645 0.984 . S
H651 N645 0.985 . S
H652 N649 0.984 . S
H653 N649 0.985 . S
H654 N648 0.984 . S
H655 N648 0.984 . S
H656 N644 0.984 . S
H657 N644 0.985 . S
C658 C659 1.363 . S
C658 C664 1.379 . S
C658 N666 1.356 . S
C659 C658 1.363 . S
C659 C665 1.363 . S
C660 C661 1.363 . S
C660 C665 1.379 . S
C660 N667 1.356 . S
C661 C660 1.363 . S
C661 C664 1.363 . S
N662 C664 1.356 . S
N662 H674 0.984 . S
N662 H675 0.985 . S
N663 C665 1.356 . S
N663 H668 0.984 . S
N663 H669 0.985 . S
C664 C658 1.379 . S
C664 C661 1.363 . S
C664 N662 1.356 . S
C665 C659 1.363 . S
C665 C660 1.379 . S
C665 N663 1.356 . S
N666 C658 1.356 . S
N666 H672 0.984 . S
N666 H673 0.984 . S
N667 C660 1.356 . S
N667 H670 0.984 . S
N667 H671 0.985 . S
H668 N663 0.984 . S
H669 N663 0.985 . S
H670 N667 0.984 . S
H671 N667 0.985 . S
H672 N666 0.984 . S
H673 N666 0.984 . S
H674 N662 0.984 . S
H675 N662 0.985 . S
C676 C677 1.363 . S
C676 C682 1.379 . S
C676 N684 1.356 . S
C677 C676 1.363 . S
C677 C683 1.363 . S
C678 C679 1.363 . S
C678 C683 1.379 . S
C678 N685 1.356 . S
C679 C678 1.363 . S
C679 C682 1.363 . S
N680 C682 1.356 . S
N680 H692 0.984 . S
N680 H693 0.985 . S
N681 C683 1.356 . S
N681 H686 0.984 . S
N681 H687 0.985 . S
C682 C676 1.379 . S
C682 C679 1.363 . S
C682 N680 1.356 . S
C683 C677 1.363 . S
C683 C678 1.379 . S
C683 N681 1.356 . S
N684 C676 1.356 . S
N684 H690 0.984 . S
N684 H691 0.984 . S
N685 C678 1.356 . S
N685 H688 0.984 . S
N685 H689 0.985 . S
H686 N681 0.984 . S
H687 N681 0.985 . S
H688 N685 0.984 . S
H689 N685 0.985 . S
H690 N684 0.984 . S
H691 N684 0.984 . S
H692 N680 0.984 . S
H693 N680 0.985 . S
C694 C695 1.363 . S
C694 C700 1.379 . S
C694 N702 1.356 . S
C695 C694 1.363 . S
C695 C701 1.363 . S
C696 C697 1.363 . S
C696 C701 1.379 . S
C696 N703 1.356 . S
C697 C696 1.363 . S
C697 C700 1.363 . S
N698 C700 1.356 . S
N698 H710 0.984 . S
N698 H711 0.985 . S
N699 C701 1.356 . S
N699 H704 0.984 . S
N699 H705 0.985 . S
C700 C694 1.379 . S
C700 C697 1.363 . S
C700 N698 1.356 . S
C701 C695 1.363 . S
C701 C696 1.379 . S
C701 N699 1.356 . S
N702 C694 1.356 . S
N702 H708 0.984 . S
N702 H709 0.984 . S
N703 C696 1.356 . S
N703 H706 0.984 . S
N703 H707 0.985 . S
H704 N699 0.984 . S
H705 N699 0.985 . S
H706 N703 0.984 . S
H707 N703 0.985 . S
H708 N702 0.984 . S
H709 N702 0.984 . S
H710 N698 0.984 . S
H711 N698 0.985 . S
C712 C713 1.363 . S
C712 C718 1.379 . S
C712 N720 1.356 . S
C713 C712 1.363 . S
C713 C719 1.363 . S
C714 C715 1.363 . S
C714 C719 1.379 . S
C714 N721 1.356 . S
C715 C714 1.363 . S
C715 C718 1.363 . S
N716 C718 1.356 . S
N716 H728 0.984 . S
N716 H729 0.985 . S
N717 C719 1.356 . S
N717 H722 0.984 . S
N717 H723 0.985 . S
C718 C712 1.379 . S
C718 C715 1.363 . S
C718 N716 1.356 . S
C719 C713 1.363 . S
C719 C714 1.379 . S
C719 N717 1.356 . S
N720 C712 1.356 . S
N720 H726 0.984 . S
N720 H727 0.984 . S
N721 C714 1.356 . S
N721 H724 0.984 . S
N721 H725 0.985 . S
H722 N717 0.984 . S
H723 N717 0.985 . S
H724 N721 0.984 . S
H725 N721 0.985 . S
H726 N720 0.984 . S
H727 N720 0.984 . S
H728 N716 0.984 . S
H729 N716 0.985 . S
C730 C731 1.363 . S
C730 C736 1.379 . S
C730 N738 1.356 . S
C731 C730 1.363 . S
C731 C737 1.363 . S
C732 C733 1.363 . S
C732 C737 1.379 . S
C732 N739 1.356 . S
C733 C732 1.363 . S
C733 C736 1.363 . S
N734 C736 1.356 . S
N734 H746 0.984 . S
N734 H747 0.985 . S
N735 C737 1.356 . S
N735 H740 0.984 . S
N735 H741 0.985 . S
C736 C730 1.379 . S
C736 C733 1.363 . S
C736 N734 1.356 . S
C737 C731 1.363 . S
C737 C732 1.379 . S
C737 N735 1.356 . S
N738 C730 1.356 . S
N738 H744 0.984 . S
N738 H745 0.984 . S
N739 C732 1.356 . S
N739 H742 0.984 . S
N739 H743 0.985 . S
H740 N735 0.984 . S
H741 N735 0.985 . S
H742 N739 0.984 . S
H743 N739 0.985 . S
H744 N738 0.984 . S
H745 N738 0.984 . S
H746 N734 0.984 . S
H747 N734 0.985 . S
C748 C749 1.363 . S
C748 C754 1.379 . S
C748 N756 1.356 . S
C749 C748 1.363 . S
C749 C755 1.363 . S
C750 C751 1.363 . S
C750 C755 1.379 . S
C750 N757 1.356 . S
C751 C750 1.363 . S
C751 C754 1.363 . S
N752 C754 1.356 . S
N752 H764 0.984 . S
N752 H765 0.985 . S
N753 C755 1.356 . S
N753 H758 0.984 . S
N753 H759 0.985 . S
C754 C748 1.379 . S
C754 C751 1.363 . S
C754 N752 1.356 . S
C755 C749 1.363 . S
C755 C750 1.379 . S
C755 N753 1.356 . S
N756 C748 1.356 . S
N756 H762 0.984 . S
N756 H763 0.984 . S
N757 C750 1.356 . S
N757 H760 0.984 . S
N757 H761 0.985 . S
H758 N753 0.984 . S
H759 N753 0.985 . S
H760 N757 0.984 . S
H761 N757 0.985 . S
H762 N756 0.984 . S
H763 N756 0.984 . S
H764 N752 0.984 . S
H765 N752 0.985 . S
C766 C767 1.363 . S
C766 C772 1.379 . S
C766 N774 1.356 . S
C767 C766 1.363 . S
C767 C773 1.363 . S
C768 C769 1.363 . S
C768 C773 1.379 . S
C768 N775 1.356 . S
C769 C768 1.363 . S
C769 C772 1.363 . S
N770 C772 1.356 . S
N770 H782 0.984 . S
N770 H783 0.985 . S
N771 C773 1.356 . S
N771 H776 0.984 . S
N771 H777 0.985 . S
C772 C766 1.379 . S
C772 C769 1.363 . S
C772 N770 1.356 . S
C773 C767 1.363 . S
C773 C768 1.379 . S
C773 N771 1.356 . S
N774 C766 1.356 . S
N774 H780 0.984 . S
N774 H781 0.984 . S
N775 C768 1.356 . S
N775 H778 0.984 . S
N775 H779 0.985 . S
H776 N771 0.984 . S
H777 N771 0.985 . S
H778 N775 0.984 . S
H779 N775 0.985 . S
H780 N774 0.984 . S
H781 N774 0.984 . S
H782 N770 0.984 . S
H783 N770 0.985 . S
C784 C785 1.363 1_545 S
C784 C790 1.379 . S
C784 N792 1.356 1_545 S
C785 C784 1.363 1_565 S
C785 C791 1.363 . S
C786 C787 1.363 1_565 S
C786 C791 1.379 . S
C786 N793 1.356 1_565 S
C787 C786 1.363 1_545 S
C787 C790 1.363 . S
N788 C790 1.356 . S
N788 H800 0.984 . S
N788 H801 0.985 . S
N789 C791 1.356 . S
N789 H794 0.984 . S
N789 H795 0.985 . S
C790 C784 1.379 . S
C790 C787 1.363 . S
C790 N788 1.356 . S
C791 C785 1.363 . S
C791 C786 1.379 . S
C791 N789 1.356 . S
N792 C784 1.356 1_565 S
N792 H798 0.984 1_565 S
N792 H799 0.984 . S
N793 C786 1.356 1_545 S
N793 H796 0.984 . S
N793 H797 0.985 1_545 S
H794 N789 0.984 . S
H795 N789 0.985 . S
H796 N793 0.984 . S
H797 N793 0.985 1_565 S
H798 N792 0.984 1_545 S
H799 N792 0.984 . S
H800 N788 0.984 . S
H801 N788 0.985 . S
C802 C803 1.363 . S
C802 C808 1.379 . S
C802 N810 1.356 . S
C803 C802 1.363 . S
C803 C809 1.363 1_545 S
C804 C805 1.363 . S
C804 C809 1.379 . S
C804 N811 1.356 . S
C805 C804 1.363 . S
C805 C808 1.363 1_565 S
N806 C808 1.356 . S
N806 H818 0.984 . S
N806 H819 0.985 1_545 S
N807 C809 1.356 . S
N807 H812 0.984 1_565 S
N807 H813 0.985 . S
C808 C802 1.379 . S
C808 C805 1.363 1_545 S
C808 N806 1.356 . S
C809 C803 1.363 1_565 S
C809 C804 1.379 . S
C809 N807 1.356 . S
N810 C802 1.356 . S
N810 H816 0.984 . S
N810 H817 0.984 . S
N811 C804 1.356 . S
N811 H814 0.984 . S
N811 H815 0.985 . S
H812 N807 0.984 1_545 S
H813 N807 0.985 . S
H814 N811 0.984 . S
H815 N811 0.985 . S
H816 N810 0.984 . S
H817 N810 0.984 . S
H818 N806 0.984 . S
H819 N806 0.985 1_565 S
C820 C821 1.363 . S
C820 C826 1.379 . S
C820 N828 1.356 . S
C821 C820 1.363 . S
C821 C827 1.363 1_545 S
C822 C823 1.363 . S
C822 C827 1.379 . S
C822 N829 1.356 . S
C823 C822 1.363 . S
C823 C826 1.363 1_565 S
N824 C826 1.355 1_565 S
N824 H836 0.977 1_565 S
N824 H837 0.994 . S
N825 C827 1.355 1_545 S
N825 H830 0.994 . S
N825 H831 0.977 1_545 S
C826 C820 1.379 . S
C826 C823 1.363 1_545 S
C826 N824 1.355 1_545 S
C827 C821 1.363 1_565 S
C827 C822 1.379 . S
C827 N825 1.355 1_565 S
N828 C820 1.356 . S
N828 H834 0.984 . S
N828 H835 0.984 . S
N829 C822 1.356 . S
N829 H832 0.984 . S
N829 H833 0.985 . S
H830 N825 0.994 . S
H831 N825 0.977 1_565 S
H832 N829 0.984 . S
H833 N829 0.985 . S
H834 N828 0.984 . S
H835 N828 0.984 . S
H836 N824 0.977 1_545 S
H837 N824 0.994 . S
C838 C839 1.363 1_565 S
C838 C844 1.379 . S
C838 N846 1.356 . S
C839 C838 1.363 1_545 S
C839 C845 1.363 . S
C840 C841 1.363 1_545 S
C840 C845 1.379 . S
C840 N847 1.356 . S
C841 C840 1.363 1_565 S
C841 C844 1.363 . S
N842 C844 1.356 . S
N842 H854 0.984 . S
N842 H855 0.985 . S
N843 C845 1.356 . S
N843 H848 0.984 . S
N843 H849 0.985 . S
C844 C838 1.379 . S
C844 C841 1.363 . S
C844 N842 1.356 . S
C845 C839 1.363 . S
C845 C840 1.379 . S
C845 N843 1.356 . S
N846 C838 1.356 . S
N846 H852 0.984 . S
N846 H853 0.984 1_565 S
N847 C840 1.356 . S
N847 H850 0.984 1_545 S
N847 H851 0.985 . S
H848 N843 0.984 . S
H849 N843 0.985 . S
H850 N847 0.984 1_565 S
H851 N847 0.985 . S
H852 N846 0.984 . S
H853 N846 0.984 1_545 S
H854 N842 0.984 . S
H855 N842 0.985 . S
C856 C857 1.363 . S
C856 C862 1.379 . S
C856 N864 1.356 . S
C857 C856 1.363 . S
C857 C863 1.363 . S
C858 C859 1.363 . S
C858 C863 1.379 . S
C858 N865 1.356 . S
C859 C858 1.363 . S
C859 C862 1.363 . S
N860 C862 1.356 . S
N860 H872 0.984 . S
N860 H873 0.985 . S
N861 C863 1.356 . S
N861 H866 0.984 . S
N861 H867 0.985 . S
C862 C856 1.379 . S
C862 C859 1.363 . S
C862 N860 1.356 . S
C863 C857 1.363 . S
C863 C858 1.379 . S
C863 N861 1.356 . S
N864 C856 1.356 . S
N864 H870 0.984 . S
N864 H871 0.984 . S
N865 C858 1.356 . S
N865 H868 0.984 . S
N865 H869 0.985 . S
H866 N861 0.984 . S
H867 N861 0.985 . S
H868 N865 0.984 . S
H869 N865 0.985 . S
H870 N864 0.984 . S
H871 N864 0.984 . S
H872 N860 0.984 . S
H873 N860 0.985 . S
C874 C875 1.363 . S
C874 C880 1.379 . S
C874 N882 1.356 . S
C875 C874 1.363 . S
C875 C881 1.363 . S
C876 C877 1.363 . S
C876 C881 1.379 . S
C876 N883 1.356 . S
C877 C876 1.363 . S
C877 C880 1.363 . S
N878 C880 1.356 . S
N878 H890 0.984 . S
N878 H891 0.985 . S
N879 C881 1.356 . S
N879 H884 0.984 . S
N879 H885 0.985 . S
C880 C874 1.379 . S
C880 C877 1.363 . S
C880 N878 1.356 . S
C881 C875 1.363 . S
C881 C876 1.379 . S
C881 N879 1.356 . S
N882 C874 1.356 . S
N882 H888 0.984 . S
N882 H889 0.984 . S
N883 C876 1.356 . S
N883 H886 0.984 . S
N883 H887 0.985 . S
H884 N879 0.984 . S
H885 N879 0.985 . S
H886 N883 0.984 . S
H887 N883 0.985 . S
H888 N882 0.984 . S
H889 N882 0.984 . S
H890 N878 0.984 . S
H891 N878 0.985 . S
C892 C893 1.363 . S
C892 C898 1.379 . S
C892 N900 1.356 . S
C893 C892 1.363 . S
C893 C899 1.363 . S
C894 C895 1.363 . S
C894 C899 1.379 . S
C894 N901 1.356 . S
C895 C894 1.363 . S
C895 C898 1.363 . S
N896 C898 1.356 . S
N896 H908 0.984 . S
N896 H909 0.985 . S
N897 C899 1.356 . S
N897 H902 0.984 . S
N897 H903 0.985 . S
C898 C892 1.379 . S
C898 C895 1.363 . S
C898 N896 1.356 . S
C899 C893 1.363 . S
C899 C894 1.379 . S
C899 N897 1.356 . S
N900 C892 1.356 . S
N900 H906 0.984 . S
N900 H907 0.984 . S
N901 C894 1.356 . S
N901 H904 0.984 . S
N901 H905 0.985 . S
H902 N897 0.984 . S
H903 N897 0.985 . S
H904 N901 0.984 . S
H905 N901 0.985 . S
H906 N900 0.984 . S
H907 N900 0.984 . S
H908 N896 0.984 . S
H909 N896 0.985 . S
C910 C911 1.363 . S
C910 C916 1.379 . S
C910 N918 1.356 . S
C911 C910 1.363 . S
C911 C917 1.363 . S
C912 C913 1.363 . S
C912 C917 1.379 . S
C912 N919 1.356 . S
C913 C912 1.363 . S
C913 C916 1.363 . S
N914 C916 1.356 . S
N914 H926 0.984 . S
N914 H927 0.985 . S
N915 C917 1.356 . S
N915 H920 0.984 . S
N915 H921 0.985 . S
C916 C910 1.379 . S
C916 C913 1.363 . S
C916 N914 1.356 . S
C917 C911 1.363 . S
C917 C912 1.379 . S
C917 N915 1.356 . S
N918 C910 1.356 . S
N918 H924 0.984 . S
N918 H925 0.984 . S
N919 C912 1.356 . S
N919 H922 0.984 . S
N919 H923 0.985 . S
H920 N915 0.984 . S
H921 N915 0.985 . S
H922 N919 0.984 . S
H923 N919 0.985 . S
H924 N918 0.984 . S
H925 N918 0.984 . S
H926 N914 0.984 . S
H927 N914 0.985 . S
C928 C929 1.363 . S
C928 C934 1.379 1_556 S
C928 N936 1.356 . S
C929 C928 1.363 . S
C929 C935 1.363 . S
C930 C931 1.363 . S
C930 C935 1.379 1_554 S
C930 N937 1.356 . S
C931 C930 1.363 . S
C931 C934 1.363 . S
N932 C934 1.356 . S
N932 H944 0.984 . S
N932 H945 0.985 . S
N933 C935 1.356 . S
N933 H938 0.984 . S
N933 H939 0.985 . S
C934 C928 1.379 1_554 S
C934 C931 1.363 . S
C934 N932 1.356 . S
C935 C929 1.363 . S
C935 C930 1.379 1_556 S
C935 N933 1.356 . S
N936 C928 1.356 . S
N936 H942 0.984 . S
N936 H943 0.984 . S
N937 C930 1.356 . S
N937 H940 0.984 . S
N937 H941 0.985 . S
H938 N933 0.984 . S
H939 N933 0.985 . S
H940 N937 0.984 . S
H941 N937 0.985 . S
H942 N936 0.984 . S
H943 N936 0.984 . S
H944 N932 0.984 . S
H945 N932 0.985 . S
C946 C947 1.363 . S
C946 C952 1.379 1_556 S
C946 N954 1.356 . S
C947 C946 1.363 . S
C947 C953 1.363 . S
C948 C949 1.363 . S
C948 C953 1.379 1_554 S
C948 N955 1.356 . S
C949 C948 1.363 . S
C949 C952 1.363 . S
N950 C952 1.356 . S
N950 H962 0.984 . S
N950 H963 0.985 . S
N951 C953 1.356 . S
N951 H956 0.984 . S
N951 H957 0.985 . S
C952 C946 1.379 1_554 S
C952 C949 1.363 . S
C952 N950 1.356 . S
C953 C947 1.363 . S
C953 C948 1.379 1_556 S
C953 N951 1.356 . S
N954 C946 1.356 . S
N954 H960 0.984 . S
N954 H961 0.984 . S
N955 C948 1.356 . S
N955 H958 0.984 . S
N955 H959 0.985 . S
H956 N951 0.984 . S
H957 N951 0.985 . S
H958 N955 0.984 . S
H959 N955 0.985 . S
H960 N954 0.984 . S
H961 N954 0.984 . S
H962 N950 0.984 . S
H963 N950 0.985 . S
C964 C965 1.363 . S
C964 C970 1.379 . S
C964 N972 1.356 . S
C965 C964 1.363 . S
C965 C971 1.363 . S
C966 C967 1.363 . S
C966 C971 1.379 . S
C966 N973 1.356 . S
C967 C966 1.363 . S
C967 C970 1.363 . S
N968 C970 1.356 . S
N968 H980 0.984 . S
N968 H981 0.985 . S
N969 C971 1.356 . S
N969 H974 0.984 . S
N969 H975 0.985 . S
C970 C964 1.379 . S
C970 C967 1.363 . S
C970 N968 1.356 . S
C971 C965 1.363 . S
C971 C966 1.379 . S
C971 N969 1.356 . S
N972 C964 1.356 . S
N972 H978 0.984 . S
N972 H979 0.984 . S
N973 C966 1.356 . S
N973 H976 0.984 . S
N973 H977 0.985 . S
H974 N969 0.984 . S
H975 N969 0.985 . S
H976 N973 0.984 . S
H977 N973 0.985 . S
H978 N972 0.984 . S
H979 N972 0.984 . S
H980 N968 0.984 . S
H981 N968 0.985 . S
C982 C983 1.363 . S
C982 C988 1.379 . S
C982 N990 1.356 . S
C983 C982 1.363 . S
C983 C989 1.363 . S
C984 C985 1.363 . S
C984 C989 1.379 . S
C984 N991 1.356 . S
C985 C984 1.363 . S
C985 C988 1.363 . S
N986 C988 1.356 . S
N986 H998 0.984 . S
N986 H999 0.985 . S
N987 C989 1.356 . S
N987 H992 0.984 . S
N987 H993 0.985 . S
C988 C982 1.379 . S
C988 C985 1.363 . S
C988 N986 1.356 . S
C989 C983 1.363 . S
C989 C984 1.379 . S
C989 N987 1.356 . S
N990 C982 1.356 . S
N990 H996 0.984 . S
N990 H997 0.984 . S
N991 C984 1.356 . S
N991 H994 0.984 . S
N991 H995 0.985 . S
H992 N987 0.984 . S
H993 N987 0.985 . S
H994 N991 0.984 . S
H995 N991 0.985 . S
H996 N990 0.984 . S
H997 N990 0.984 . S
H998 N986 0.984 . S
H999 N986 0.985 . S
C1000 C1001 1.363 . S
C1000 C1006 1.379 1_554 S
C1000 N1008 1.356 . S
C1001 C1000 1.363 . S
C1001 C1007 1.363 . S
C1002 C1003 1.363 . S
C1002 C1007 1.379 1_556 S
C1002 N1009 1.356 . S
C1003 C1002 1.363 . S
C1003 C1006 1.363 . S
N1004 C1006 1.356 . S
N1004 H1016 0.984 . S
N1004 H1017 0.985 . S
N1005 C1007 1.356 . S
N1005 H1010 0.984 . S
N1005 H1011 0.985 . S
C1006 C1000 1.379 1_556 S
C1006 C1003 1.363 . S
C1006 N1004 1.356 . S
C1007 C1001 1.363 . S
C1007 C1002 1.379 1_554 S
C1007 N1005 1.356 . S
N1008 C1000 1.356 . S
N1008 H1014 0.984 . S
N1008 H1015 0.984 . S
N1009 C1002 1.356 . S
N1009 H1012 0.984 . S
N1009 H1013 0.985 . S
H1010 N1005 0.984 . S
H1011 N1005 0.985 . S
H1012 N1009 0.984 . S
H1013 N1009 0.985 . S
H1014 N1008 0.984 . S
H1015 N1008 0.984 . S
H1016 N1004 0.984 . S
H1017 N1004 0.985 . S
C1018 C1019 1.363 . S
C1018 C1024 1.379 1_556 S
C1018 N1026 1.356 . S
C1019 C1018 1.363 . S
C1019 C1025 1.363 . S
C1020 C1021 1.363 . S
C1020 C1025 1.379 1_554 S
C1020 N1027 1.356 . S
C1021 C1020 1.363 . S
C1021 C1024 1.363 . S
N1022 C1024 1.356 . S
N1022 H1034 0.984 . S
N1022 H1035 0.985 . S
N1023 C1025 1.356 . S
N1023 H1028 0.984 . S
N1023 H1029 0.985 . S
C1024 C1018 1.379 1_554 S
C1024 C1021 1.363 . S
C1024 N1022 1.356 . S
C1025 C1019 1.363 . S
C1025 C1020 1.379 1_556 S
C1025 N1023 1.356 . S
N1026 C1018 1.356 . S
N1026 H1032 0.984 . S
N1026 H1033 0.984 . S
N1027 C1020 1.356 . S
N1027 H1030 0.984 . S
N1027 H1031 0.985 . S
H1028 N1023 0.984 . S
H1029 N1023 0.985 . S
H1030 N1027 0.984 . S
H1031 N1027 0.985 . S
H1032 N1026 0.984 . S
H1033 N1026 0.984 . S
H1034 N1022 0.984 . S
H1035 N1022 0.985 . S
C1036 C1037 1.363 . S
C1036 C1042 1.379 . S
C1036 N1044 1.356 . S
C1037 C1036 1.363 . S
C1037 C1043 1.363 . S
C1038 C1039 1.363 . S
C1038 C1043 1.379 . S
C1038 N1045 1.356 . S
C1039 C1038 1.363 . S
C1039 C1042 1.363 . S
N1040 C1042 1.356 . S
N1040 H1052 0.984 . S
N1040 H1053 0.985 . S
N1041 C1043 1.356 . S
N1041 H1046 0.984 . S
N1041 H1047 0.985 . S
C1042 C1036 1.379 . S
C1042 C1039 1.363 . S
C1042 N1040 1.356 . S
C1043 C1037 1.363 . S
C1043 C1038 1.379 . S
C1043 N1041 1.356 . S
N1044 C1036 1.356 . S
N1044 H1050 0.984 . S
N1044 H1051 0.984 . S
N1045 C1038 1.356 . S
N1045 H1048 0.984 . S
N1045 H1049 0.985 . S
H1046 N1041 0.984 . S
H1047 N1041 0.985 . S
H1048 N1045 0.984 . S
H1049 N1045 0.985 . S
H1050 N1044 0.984 . S
H1051 N1044 0.984 . S
H1052 N1040 0.984 . S
H1053 N1040 0.985 . S
C1054 C1055 1.363 . S
C1054 C1060 1.379 . S
C1054 N1062 1.356 . S
C1055 C1054 1.363 . S
C1055 C1061 1.363 . S
C1056 C1057 1.363 . S
C1056 C1061 1.379 . S
C1056 N1063 1.356 . S
C1057 C1056 1.363 . S
C1057 C1060 1.363 . S
N1058 C1060 1.356 . S
N1058 H1070 0.984 . S
N1058 H1071 0.985 . S
N1059 C1061 1.356 . S
N1059 H1064 0.984 . S
N1059 H1065 0.985 . S
C1060 C1054 1.379 . S
C1060 C1057 1.363 . S
C1060 N1058 1.356 . S
C1061 C1055 1.363 . S
C1061 C1056 1.379 . S
C1061 N1059 1.356 . S
N1062 C1054 1.356 . S
N1062 H1068 0.984 . S
N1062 H1069 0.984 . S
N1063 C1056 1.356 . S
N1063 H1066 0.984 . S
N1063 H1067 0.985 . S
H1064 N1059 0.984 . S
H1065 N1059 0.985 . S
H1066 N1063 0.984 . S
H1067 N1063 0.985 . S
H1068 N1062 0.984 . S
H1069 N1062 0.984 . S
H1070 N1058 0.984 . S
H1071 N1058 0.985 . S
C1072 C1073 1.363 1_545 S
C1072 C1078 1.379 1_655 S
C1072 N1080 1.356 . S
C1073 C1072 1.363 1_565 S
C1073 C1079 1.363 . S
C1074 C1075 1.363 1_565 S
C1074 C1079 1.379 1_455 S
C1074 N1081 1.356 . S
C1075 C1074 1.363 1_545 S
C1075 C1078 1.363 . S
N1076 C1078 1.356 . S
N1076 H1088 0.984 . S
N1076 H1089 0.985 . S
N1077 C1079 1.356 . S
N1077 H1082 0.984 . S
N1077 H1083 0.985 . S
C1078 C1072 1.379 1_455 S
C1078 C1075 1.363 . S
C1078 N1076 1.356 . S
C1079 C1073 1.363 . S
C1079 C1074 1.379 1_655 S
C1079 N1077 1.356 . S
N1080 C1072 1.356 . S
N1080 H1086 0.984 . S
N1080 H1087 0.984 . S
N1081 C1074 1.356 . S
N1081 H1084 0.984 . S
N1081 H1085 0.985 . S
H1082 N1077 0.984 . S
H1083 N1077 0.985 . S
H1084 N1081 0.984 . S
H1085 N1081 0.985 . S
H1086 N1080 0.984 . S
H1087 N1080 0.984 . S
H1088 N1076 0.984 . S
H1089 N1076 0.985 . S
C1090 C1091 1.363 1_565 S
C1090 C1096 1.379 1_655 S
C1090 N1098 1.356 . S
C1091 C1090 1.363 1_545 S
C1091 C1097 1.363 . S
C1092 C1093 1.363 1_545 S
C1092 C1097 1.379 1_455 S
C1092 N1099 1.356 . S
C1093 C1092 1.363 1_565 S
C1093 C1096 1.363 . S
N1094 C1096 1.356 . S
N1094 H1106 0.984 . S
N1094 H1107 0.985 . S
N1095 C1097 1.356 . S
N1095 H1100 0.984 . S
N1095 H1101 0.985 . S
C1096 C1090 1.379 1_455 S
C1096 C1093 1.363 . S
C1096 N1094 1.356 . S
C1097 C1091 1.363 . S
C1097 C1092 1.379 1_655 S
C1097 N1095 1.356 . S
N1098 C1090 1.356 . S
N1098 H1104 0.984 . S
N1098 H1105 0.984 . S
N1099 C1092 1.356 . S
N1099 H1102 0.984 . S
N1099 H1103 0.985 . S
H1100 N1095 0.984 . S
H1101 N1095 0.985 . S
H1102 N1099 0.984 . S
H1103 N1099 0.985 . S
H1104 N1098 0.984 . S
H1105 N1098 0.984 . S
H1106 N1094 0.984 . S
H1107 N1094 0.985 . S
C1108 C1109 1.363 1_565 S
C1108 C1114 1.379 1_455 S
C1108 N1116 1.356 . S
C1109 C1108 1.363 1_545 S
C1109 C1115 1.363 . S
C1110 C1111 1.363 1_545 S
C1110 C1115 1.379 1_655 S
C1110 N1117 1.356 . S
C1111 C1110 1.363 1_565 S
C1111 C1114 1.363 . S
N1112 C1114 1.356 . S
N1112 H1124 0.984 . S
N1112 H1125 0.985 . S
N1113 C1115 1.356 . S
N1113 H1118 0.984 . S
N1113 H1119 0.985 . S
C1114 C1108 1.379 1_655 S
C1114 C1111 1.363 . S
C1114 N1112 1.356 . S
C1115 C1109 1.363 . S
C1115 C1110 1.379 1_455 S
C1115 N1113 1.356 . S
N1116 C1108 1.356 . S
N1116 H1122 0.984 . S
N1116 H1123 0.984 . S
N1117 C1110 1.356 . S
N1117 H1120 0.984 . S
N1117 H1121 0.985 . S
H1118 N1113 0.984 . S
H1119 N1113 0.985 . S
H1120 N1117 0.984 . S
H1121 N1117 0.985 . S
H1122 N1116 0.984 . S
H1123 N1116 0.984 . S
H1124 N1112 0.984 . S
H1125 N1112 0.985 . S
C1126 C1127 1.363 1_565 S
C1126 C1132 1.379 1_655 S
C1126 N1134 1.356 . S
C1127 C1126 1.363 1_545 S
C1127 C1133 1.363 . S
C1128 C1129 1.363 1_545 S
C1128 C1133 1.379 1_455 S
C1128 N1135 1.356 . S
C1129 C1128 1.363 1_565 S
C1129 C1132 1.363 . S
N1130 C1132 1.356 . S
N1130 H1142 0.984 . S
N1130 H1143 0.985 . S
N1131 C1133 1.356 . S
N1131 H1136 0.984 . S
N1131 H1137 0.985 . S
C1132 C1126 1.379 1_455 S
C1132 C1129 1.363 . S
C1132 N1130 1.356 . S
C1133 C1127 1.363 . S
C1133 C1128 1.379 1_655 S
C1133 N1131 1.356 . S
N1134 C1126 1.356 . S
N1134 H1140 0.984 . S
N1134 H1141 0.984 . S
N1135 C1128 1.356 . S
N1135 H1138 0.984 . S
N1135 H1139 0.985 . S
H1136 N1131 0.984 . S
H1137 N1131 0.985 . S
H1138 N1135 0.984 . S
H1139 N1135 0.985 . S
H1140 N1134 0.984 . S
H1141 N1134 0.984 . S
H1142 N1130 0.984 . S
H1143 N1130 0.985 . S
C1144 C1145 1.363 . S
C1144 C1150 1.379 . S
C1144 N1152 1.356 . S
C1145 C1144 1.363 . S
C1145 C1151 1.363 . S
C1146 C1147 1.363 . S
C1146 C1151 1.379 . S
C1146 N1153 1.356 . S
C1147 C1146 1.363 . S
C1147 C1150 1.363 . S
N1148 C1150 1.356 . S
N1148 H1160 0.984 . S
N1148 H1161 0.985 . S
N1149 C1151 1.356 . S
N1149 H1154 0.984 . S
N1149 H1155 0.985 . S
C1150 C1144 1.379 . S
C1150 C1147 1.363 . S
C1150 N1148 1.356 . S
C1151 C1145 1.363 . S
C1151 C1146 1.379 . S
C1151 N1149 1.356 . S
N1152 C1144 1.356 . S
N1152 H1158 0.984 . S
N1152 H1159 0.984 . S
N1153 C1146 1.356 . S
N1153 H1156 0.984 . S
N1153 H1157 0.985 . S
H1154 N1149 0.984 . S
H1155 N1149 0.985 . S
H1156 N1153 0.984 . S
H1157 N1153 0.985 . S
H1158 N1152 0.984 . S
H1159 N1152 0.984 . S
H1160 N1148 0.984 . S
H1161 N1148 0.985 . S
C1162 C1163 1.363 . S
C1162 C1168 1.379 . S
C1162 N1170 1.356 . S
C1163 C1162 1.363 . S
C1163 C1169 1.363 . S
C1164 C1165 1.363 . S
C1164 C1169 1.379 . S
C1164 N1171 1.356 . S
C1165 C1164 1.363 . S
C1165 C1168 1.363 . S
N1166 C1168 1.356 . S
N1166 H1178 0.984 . S
N1166 H1179 0.985 . S
N1167 C1169 1.356 . S
N1167 H1172 0.984 . S
N1167 H1173 0.985 . S
C1168 C1162 1.379 . S
C1168 C1165 1.363 . S
C1168 N1166 1.356 . S
C1169 C1163 1.363 . S
C1169 C1164 1.379 . S
C1169 N1167 1.356 . S
N1170 C1162 1.356 . S
N1170 H1176 0.984 . S
N1170 H1177 0.984 . S
N1171 C1164 1.356 . S
N1171 H1174 0.984 . S
N1171 H1175 0.985 . S
H1172 N1167 0.984 . S
H1173 N1167 0.985 . S
H1174 N1171 0.984 . S
H1175 N1171 0.985 . S
H1176 N1170 0.984 . S
H1177 N1170 0.984 . S
H1178 N1166 0.984 . S
H1179 N1166 0.985 . S
C1180 C1181 1.363 . S
C1180 C1186 1.379 . S
C1180 N1188 1.356 . S
C1181 C1180 1.363 . S
C1181 C1187 1.363 . S
C1182 C1183 1.363 . S
C1182 C1187 1.379 . S
C1182 N1189 1.356 . S
C1183 C1182 1.363 . S
C1183 C1186 1.363 . S
N1184 C1186 1.356 . S
N1184 H1196 0.984 . S
N1184 H1197 0.985 . S
N1185 C1187 1.356 . S
N1185 H1190 0.984 . S
N1185 H1191 0.985 . S
C1186 C1180 1.379 . S
C1186 C1183 1.363 . S
C1186 N1184 1.356 . S
C1187 C1181 1.363 . S
C1187 C1182 1.379 . S
C1187 N1185 1.356 . S
N1188 C1180 1.356 . S
N1188 H1194 0.984 . S
N1188 H1195 0.984 . S
N1189 C1182 1.356 . S
N1189 H1192 0.984 . S
N1189 H1193 0.985 . S
H1190 N1185 0.984 . S
H1191 N1185 0.985 . S
H1192 N1189 0.984 . S
H1193 N1189 0.985 . S
H1194 N1188 0.984 . S
H1195 N1188 0.984 . S
H1196 N1184 0.984 . S
H1197 N1184 0.985 . S
C1198 C1199 1.363 . S
C1198 C1204 1.379 . S
C1198 N1206 1.356 . S
C1199 C1198 1.363 . S
C1199 C1205 1.363 . S
C1200 C1201 1.363 . S
C1200 C1205 1.379 . S
C1200 N1207 1.356 . S
C1201 C1200 1.363 . S
C1201 C1204 1.363 . S
N1202 C1204 1.356 . S
N1202 H1214 0.984 . S
N1202 H1215 0.985 . S
N1203 C1205 1.356 . S
N1203 H1208 0.984 . S
N1203 H1209 0.985 . S
C1204 C1198 1.379 . S
C1204 C1201 1.363 . S
C1204 N1202 1.356 . S
C1205 C1199 1.363 . S
C1205 C1200 1.379 . S
C1205 N1203 1.356 . S
N1206 C1198 1.356 . S
N1206 H1212 0.984 . S
N1206 H1213 0.984 . S
N1207 C1200 1.356 . S
N1207 H1210 0.984 . S
N1207 H1211 0.985 . S
H1208 N1203 0.984 . S
H1209 N1203 0.985 . S
H1210 N1207 0.984 . S
H1211 N1207 0.985 . S
H1212 N1206 0.984 . S
H1213 N1206 0.984 . S
H1214 N1202 0.984 . S
H1215 N1202 0.985 . S
C1216 C1217 1.363 . S
C1216 C1222 1.379 . S
C1216 N1224 1.356 . S
C1217 C1216 1.363 . S
C1217 C1223 1.363 . S
C1218 C1219 1.363 . S
C1218 C1223 1.379 . S
C1218 N1225 1.356 . S
C1219 C1218 1.363 . S
C1219 C1222 1.363 . S
N1220 C1222 1.356 . S
N1220 H1232 0.984 . S
N1220 H1233 0.985 . S
N1221 C1223 1.356 . S
N1221 H1226 0.984 . S
N1221 H1227 0.985 . S
C1222 C1216 1.379 . S
C1222 C1219 1.363 . S
C1222 N1220 1.356 . S
C1223 C1217 1.363 . S
C1223 C1218 1.379 . S
C1223 N1221 1.356 . S
N1224 C1216 1.356 . S
N1224 H1230 0.984 . S
N1224 H1231 0.984 . S
N1225 C1218 1.356 . S
N1225 H1228 0.984 . S
N1225 H1229 0.985 . S
H1226 N1221 0.984 . S
H1227 N1221 0.985 . S
H1228 N1225 0.984 . S
H1229 N1225 0.985 . S
H1230 N1224 0.984 . S
H1231 N1224 0.984 . S
H1232 N1220 0.984 . S
H1233 N1220 0.985 . S
C1234 C1235 1.363 . S
C1234 C1240 1.379 . S
C1234 N1242 1.356 . S
C1235 C1234 1.363 . S
C1235 C1241 1.363 . S
C1236 C1237 1.363 . S
C1236 C1241 1.379 . S
C1236 N1243 1.356 . S
C1237 C1236 1.363 . S
C1237 C1240 1.363 . S
N1238 C1240 1.356 . S
N1238 H1250 0.984 . S
N1238 H1251 0.985 . S
N1239 C1241 1.356 . S
N1239 H1244 0.984 . S
N1239 H1245 0.985 . S
C1240 C1234 1.379 . S
C1240 C1237 1.363 . S
C1240 N1238 1.356 . S
C1241 C1235 1.363 . S
C1241 C1236 1.379 . S
C1241 N1239 1.356 . S
N1242 C1234 1.356 . S
N1242 H1248 0.984 . S
N1242 H1249 0.984 . S
N1243 C1236 1.356 . S
N1243 H1246 0.984 . S
N1243 H1247 0.985 . S
H1244 N1239 0.984 . S
H1245 N1239 0.985 . S
H1246 N1243 0.984 . S
H1247 N1243 0.985 . S
H1248 N1242 0.984 . S
H1249 N1242 0.984 . S
H1250 N1238 0.984 . S
H1251 N1238 0.985 . S
C1252 C1253 1.363 . S
C1252 C1258 1.379 . S
C1252 N1260 1.356 . S
C1253 C1252 1.363 . S
C1253 C1259 1.363 . S
C1254 C1255 1.363 . S
C1254 C1259 1.379 . S
C1254 N1261 1.356 . S
C1255 C1254 1.363 . S
C1255 C1258 1.363 . S
N1256 C1258 1.356 . S
N1256 H1268 0.984 . S
N1256 H1269 0.985 . S
N1257 C1259 1.356 . S
N1257 H1262 0.984 . S
N1257 H1263 0.985 . S
C1258 C1252 1.379 . S
C1258 C1255 1.363 . S
C1258 N1256 1.356 . S
C1259 C1253 1.363 . S
C1259 C1254 1.379 . S
C1259 N1257 1.356 . S
N1260 C1252 1.356 . S
N1260 H1266 0.984 . S
N1260 H1267 0.984 . S
N1261 C1254 1.356 . S
N1261 H1264 0.984 . S
N1261 H1265 0.985 . S
H1262 N1257 0.984 . S
H1263 N1257 0.985 . S
H1264 N1261 0.984 . S
H1265 N1261 0.985 . S
H1266 N1260 0.984 . S
H1267 N1260 0.984 . S
H1268 N1256 0.984 . S
H1269 N1256 0.985 . S
C1270 C1271 1.363 . S
C1270 C1276 1.379 . S
C1270 N1278 1.356 . S
C1271 C1270 1.363 . S
C1271 C1277 1.363 . S
C1272 C1273 1.363 . S
C1272 C1277 1.379 . S
C1272 N1279 1.356 . S
C1273 C1272 1.363 . S
C1273 C1276 1.363 . S
N1274 C1276 1.356 . S
N1274 H1286 0.984 . S
N1274 H1287 0.985 . S
N1275 C1277 1.356 . S
N1275 H1280 0.984 . S
N1275 H1281 0.985 . S
C1276 C1270 1.379 . S
C1276 C1273 1.363 . S
C1276 N1274 1.356 . S
C1277 C1271 1.363 . S
C1277 C1272 1.379 . S
C1277 N1275 1.356 . S
N1278 C1270 1.356 . S
N1278 H1284 0.984 . S
N1278 H1285 0.984 . S
N1279 C1272 1.356 . S
N1279 H1282 0.984 . S
N1279 H1283 0.985 . S
H1280 N1275 0.984 . S
H1281 N1275 0.985 . S
H1282 N1279 0.984 . S
H1283 N1279 0.985 . S
H1284 N1278 0.984 . S
H1285 N1278 0.984 . S
H1286 N1274 0.984 . S
H1287 N1274 0.985 . S
C1288 C1289 1.363 . S
C1288 C1294 1.379 . S
C1288 N1296 1.356 . S
C1289 C1288 1.363 . S
C1289 C1295 1.363 . S
C1290 C1291 1.363 . S
C1290 C1295 1.379 . S
C1290 N1297 1.356 . S
C1291 C1290 1.363 . S
C1291 C1294 1.363 . S
N1292 C1294 1.356 . S
N1292 H1304 0.984 . S
N1292 H1305 0.985 . S
N1293 C1295 1.356 . S
N1293 H1298 0.984 . S
N1293 H1299 0.985 . S
C1294 C1288 1.379 . S
C1294 C1291 1.363 . S
C1294 N1292 1.356 . S
C1295 C1289 1.363 . S
C1295 C1290 1.379 . S
C1295 N1293 1.356 . S
N1296 C1288 1.356 . S
N1296 H1302 0.984 . S
N1296 H1303 0.984 . S
N1297 C1290 1.356 . S
N1297 H1300 0.984 . S
N1297 H1301 0.985 . S
H1298 N1293 0.984 . S
H1299 N1293 0.985 . S
H1300 N1297 0.984 . S
H1301 N1297 0.985 . S
H1302 N1296 0.984 . S
H1303 N1296 0.984 . S
H1304 N1292 0.984 . S
H1305 N1292 0.985 . S
C1306 C1307 1.363 . S
C1306 C1312 1.379 . S
C1306 N1314 1.356 . S
C1307 C1306 1.363 . S
C1307 C1313 1.363 . S
C1308 C1309 1.363 . S
C1308 C1313 1.379 . S
C1308 N1315 1.356 . S
C1309 C1308 1.363 . S
C1309 C1312 1.363 . S
N1310 C1312 1.356 . S
N1310 H1322 0.984 . S
N1310 H1323 0.985 . S
N1311 C1313 1.356 . S
N1311 H1316 0.984 . S
N1311 H1317 0.985 . S
C1312 C1306 1.379 . S
C1312 C1309 1.363 . S
C1312 N1310 1.356 . S
C1313 C1307 1.363 . S
C1313 C1308 1.379 . S
C1313 N1311 1.356 . S
N1314 C1306 1.356 . S
N1314 H1320 0.984 . S
N1314 H1321 0.984 . S
N1315 C1308 1.356 . S
N1315 H1318 0.984 . S
N1315 H1319 0.985 . S
H1316 N1311 0.984 . S
H1317 N1311 0.985 . S
H1318 N1315 0.984 . S
H1319 N1315 0.985 . S
H1320 N1314 0.984 . S
H1321 N1314 0.984 . S
H1322 N1310 0.984 . S
H1323 N1310 0.985 . S
C1324 C1325 1.363 . S
C1324 C1330 1.379 . S
C1324 N1332 1.356 . S
C1325 C1324 1.363 . S
C1325 C1331 1.363 . S
C1326 C1327 1.363 . S
C1326 C1331 1.379 . S
C1326 N1333 1.356 . S
C1327 C1326 1.363 . S
C1327 C1330 1.363 . S
N1328 C1330 1.356 . S
N1328 H1340 0.984 . S
N1328 H1341 0.985 . S
N1329 C1331 1.356 . S
N1329 H1334 0.984 . S
N1329 H1335 0.985 . S
C1330 C1324 1.379 . S
C1330 C1327 1.363 . S
C1330 N1328 1.356 . S
C1331 C1325 1.363 . S
C1331 C1326 1.379 . S
C1331 N1329 1.356 . S
N1332 C1324 1.356 . S
N1332 H1338 0.984 . S
N1332 H1339 0.984 . S
N1333 C1326 1.356 . S
N1333 H1336 0.984 . S
N1333 H1337 0.985 . S
H1334 N1329 0.984 . S
H1335 N1329 0.985 . S
H1336 N1333 0.984 . S
H1337 N1333 0.985 . S
H1338 N1332 0.984 . S
H1339 N1332 0.984 . S
H1340 N1328 0.984 . S
H1341 N1328 0.985 . S
C1342 C1343 1.363 . S
C1342 C1348 1.379 . S
C1342 N1350 1.356 . S
C1343 C1342 1.363 . S
C1343 C1349 1.363 . S
C1344 C1345 1.363 . S
C1344 C1349 1.379 . S
C1344 N1351 1.356 . S
C1345 C1344 1.363 . S
C1345 C1348 1.363 . S
N1346 C1348 1.356 . S
N1346 H1358 0.984 . S
N1346 H1359 0.985 . S
N1347 C1349 1.356 . S
N1347 H1352 0.984 . S
N1347 H1353 0.985 . S
C1348 C1342 1.379 . S
C1348 C1345 1.363 . S
C1348 N1346 1.356 . S
C1349 C1343 1.363 . S
C1349 C1344 1.379 . S
C1349 N1347 1.356 . S
N1350 C1342 1.356 . S
N1350 H1356 0.984 . S
N1350 H1357 0.984 . S
N1351 C1344 1.356 . S
N1351 H1354 0.984 . S
N1351 H1355 0.985 . S
H1352 N1347 0.984 . S
H1353 N1347 0.985 . S
H1354 N1351 0.984 . S
H1355 N1351 0.985 . S
H1356 N1350 0.984 . S
H1357 N1350 0.984 . S
H1358 N1346 0.984 . S
H1359 N1346 0.985 . S
C1360 C1361 1.363 . S
C1360 C1366 1.379 . S
C1360 N1368 1.356 . S
C1361 C1360 1.363 . S
C1361 C1367 1.363 . S
C1362 C1363 1.363 . S
C1362 C1367 1.379 . S
C1362 N1369 1.356 . S
C1363 C1362 1.363 . S
C1363 C1366 1.363 . S
N1364 C1366 1.356 . S
N1364 H1376 0.984 . S
N1364 H1377 0.985 . S
N1365 C1367 1.356 . S
N1365 H1370 0.984 1_545 S
N1365 H1371 0.985 . S
C1366 C1360 1.379 . S
C1366 C1363 1.363 . S
C1366 N1364 1.356 . S
C1367 C1361 1.363 . S
C1367 C1362 1.379 . S
C1367 N1365 1.356 . S
N1368 C1360 1.356 . S
N1368 H1374 0.984 . S
N1368 H1375 0.984 1_545 S
N1369 C1362 1.356 . S
N1369 H1372 0.984 . S
N1369 H1373 0.985 . S
H1370 N1365 0.984 1_565 S
H1371 N1365 0.985 . S
H1372 N1369 0.984 . S
H1373 N1369 0.985 . S
H1374 N1368 0.984 . S
H1375 N1368 0.984 1_565 S
H1376 N1364 0.984 . S
H1377 N1364 0.985 . S
C1378 C1379 1.363 . S
C1378 C1384 1.379 . S
C1378 N1386 1.356 . S
C1379 C1378 1.363 . S
C1379 C1385 1.363 . S
C1380 C1381 1.363 . S
C1380 C1385 1.379 . S
C1380 N1387 1.356 . S
C1381 C1380 1.363 . S
C1381 C1384 1.363 . S
N1382 C1384 1.356 1_545 S
N1382 H1394 0.984 . S
N1382 H1395 0.985 . S
N1383 C1385 1.356 . S
N1383 H1388 0.984 . S
N1383 H1389 0.985 . S
C1384 C1378 1.379 . S
C1384 C1381 1.363 . S
C1384 N1382 1.356 1_565 S
C1385 C1379 1.363 . S
C1385 C1380 1.379 . S
C1385 N1383 1.356 . S
N1386 C1378 1.356 . S
N1386 H1392 0.984 . S
N1386 H1393 0.984 . S
N1387 C1380 1.356 . S
N1387 H1390 0.984 1_565 S
N1387 H1391 0.985 . S
H1388 N1383 0.984 . S
H1389 N1383 0.985 . S
H1390 N1387 0.984 1_545 S
H1391 N1387 0.985 . S
H1392 N1386 0.984 . S
H1393 N1386 0.984 . S
H1394 N1382 0.984 . S
H1395 N1382 0.985 . S
C1396 C1397 1.363 . S
C1396 C1402 1.379 . S
C1396 N1404 1.356 . S
C1397 C1396 1.363 . S
C1397 C1403 1.363 . S
C1398 C1399 1.363 . S
C1398 C1403 1.379 . S
C1398 N1405 1.356 . S
C1399 C1398 1.363 . S
C1399 C1402 1.363 . S
N1400 C1402 1.356 . S
N1400 H1412 0.984 . S
N1400 H1413 0.985 . S
N1401 C1403 1.356 . S
N1401 H1406 0.984 1_565 S
N1401 H1407 0.985 . S
C1402 C1396 1.379 . S
C1402 C1399 1.363 . S
C1402 N1400 1.356 . S
C1403 C1397 1.363 . S
C1403 C1398 1.379 . S
C1403 N1401 1.356 . S
N1404 C1396 1.356 . S
N1404 H1410 0.984 . S
N1404 H1411 0.984 1_565 S
N1405 C1398 1.356 . S
N1405 H1408 0.984 . S
N1405 H1409 0.985 . S
H1406 N1401 0.984 1_545 S
H1407 N1401 0.985 . S
H1408 N1405 0.984 . S
H1409 N1405 0.985 . S
H1410 N1404 0.984 . S
H1411 N1404 0.984 1_545 S
H1412 N1400 0.984 . S
H1413 N1400 0.985 . S
C1414 C1415 1.363 . S
C1414 C1420 1.379 . S
C1414 N1422 1.356 . S
C1415 C1414 1.363 . S
C1415 C1421 1.363 . S
C1416 C1417 1.363 . S
C1416 C1421 1.379 . S
C1416 N1423 1.356 . S
C1417 C1416 1.363 . S
C1417 C1420 1.363 . S
N1418 C1420 1.356 . S
N1418 H1430 0.984 . S
N1418 H1431 0.985 . S
N1419 C1421 1.356 . S
N1419 H1424 0.984 1_545 S
N1419 H1425 0.985 . S
C1420 C1414 1.379 . S
C1420 C1417 1.363 . S
C1420 N1418 1.356 . S
C1421 C1415 1.363 . S
C1421 C1416 1.379 . S
C1421 N1419 1.356 . S
N1422 C1414 1.356 . S
N1422 H1428 0.984 . S
N1422 H1429 0.984 1_545 S
N1423 C1416 1.356 . S
N1423 H1426 0.984 . S
N1423 H1427 0.985 . S
H1424 N1419 0.984 1_565 S
H1425 N1419 0.985 . S
H1426 N1423 0.984 . S
H1427 N1423 0.985 . S
H1428 N1422 0.984 . S
H1429 N1422 0.984 1_565 S
H1430 N1418 0.984 . S
H1431 N1418 0.985 . S
C1432 C1433 1.363 . S
C1432 C1438 1.379 . S
C1432 N1440 1.356 . S
C1433 C1432 1.363 . S
C1433 C1439 1.363 . S
C1434 C1435 1.363 . S
C1434 C1439 1.379 . S
C1434 N1441 1.356 . S
C1435 C1434 1.363 . S
C1435 C1438 1.363 . S
N1436 C1438 1.356 . S
N1436 H1448 0.984 . S
N1436 H1449 0.985 1_565 S
N1437 C1439 1.356 . S
N1437 H1442 0.984 . S
N1437 H1443 0.985 . S
C1438 C1432 1.379 . S
C1438 C1435 1.363 . S
C1438 N1436 1.356 . S
C1439 C1433 1.363 . S
C1439 C1434 1.379 . S
C1439 N1437 1.356 . S
N1440 C1432 1.356 . S
N1440 H1446 0.984 . S
N1440 H1447 0.984 . S
N1441 C1434 1.356 . S
N1441 H1444 0.984 1_565 S
N1441 H1445 0.985 . S
H1442 N1437 0.984 . S
H1443 N1437 0.985 . S
H1444 N1441 0.984 1_545 S
H1445 N1441 0.985 . S
H1446 N1440 0.984 . S
H1447 N1440 0.984 . S
H1448 N1436 0.984 . S
H1449 N1436 0.985 1_545 S
C1450 C1451 1.363 . S
C1450 C1456 1.379 . S
C1450 N1458 1.356 . S
C1451 C1450 1.363 . S
C1451 C1457 1.363 . S
C1452 C1453 1.363 . S
C1452 C1457 1.379 . S
C1452 N1459 1.356 . S
C1453 C1452 1.363 . S
C1453 C1456 1.363 . S
N1454 C1456 1.356 . S
N1454 H1466 0.984 . S
N1454 H1467 0.985 1_545 S
N1455 C1457 1.356 . S
N1455 H1460 0.984 . S
N1455 H1461 0.985 . S
C1456 C1450 1.379 . S
C1456 C1453 1.363 . S
C1456 N1454 1.356 . S
C1457 C1451 1.363 . S
C1457 C1452 1.379 . S
C1457 N1455 1.356 . S
N1458 C1450 1.356 . S
N1458 H1464 0.984 . S
N1458 H1465 0.984 . S
N1459 C1452 1.356 . S
N1459 H1462 0.984 1_545 S
N1459 H1463 0.985 . S
H1460 N1455 0.984 . S
H1461 N1455 0.985 . S
H1462 N1459 0.984 1_565 S
H1463 N1459 0.985 . S
H1464 N1458 0.984 . S
H1465 N1458 0.984 . S
H1466 N1454 0.984 . S
H1467 N1454 0.985 1_565 S
C1468 C1469 1.363 . S
C1468 C1474 1.379 . S
C1468 N1476 1.356 . S
C1469 C1468 1.363 . S
C1469 C1475 1.363 . S
C1470 C1471 1.363 . S
C1470 C1475 1.379 . S
C1470 N1477 1.356 . S
C1471 C1470 1.363 . S
C1471 C1474 1.363 . S
N1472 C1474 1.356 . S
N1472 H1484 0.984 . S
N1472 H1485 0.985 . S
N1473 C1475 1.356 1_565 S
N1473 H1478 0.984 . S
N1473 H1479 0.985 . S
C1474 C1468 1.379 . S
C1474 C1471 1.363 . S
C1474 N1472 1.356 . S
C1475 C1469 1.363 . S
C1475 C1470 1.379 . S
C1475 N1473 1.356 1_545 S
N1476 C1468 1.356 . S
N1476 H1482 0.984 . S
N1476 H1483 0.984 1_545 S
N1477 C1470 1.356 . S
N1477 H1480 0.984 . S
N1477 H1481 0.985 . S
H1478 N1473 0.984 . S
H1479 N1473 0.985 . S
H1480 N1477 0.984 . S
H1481 N1477 0.985 . S
H1482 N1476 0.984 . S
H1483 N1476 0.984 1_565 S
H1484 N1472 0.984 . S
H1485 N1472 0.985 . S
C1486 C1487 1.363 . S
C1486 C1492 1.379 . S
C1486 N1494 1.356 . S
C1487 C1486 1.363 . S
C1487 C1493 1.363 . S
C1488 C1489 1.363 . S
C1488 C1493 1.379 . S
C1488 N1495 1.356 . S
C1489 C1488 1.363 . S
C1489 C1492 1.363 . S
N1490 C1492 1.356 . S
N1490 H1502 0.984 . S
N1490 H1503 0.985 1_565 S
N1491 C1493 1.356 . S
N1491 H1496 0.984 . S
N1491 H1497 0.985 . S
C1492 C1486 1.379 . S
C1492 C1489 1.363 . S
C1492 N1490 1.356 . S
C1493 C1487 1.363 . S
C1493 C1488 1.379 . S
C1493 N1491 1.356 . S
N1494 C1486 1.356 . S
N1494 H1500 0.984 . S
N1494 H1501 0.984 . S
N1495 C1488 1.356 . S
N1495 H1498 0.984 1_565 S
N1495 H1499 0.985 . S
H1496 N1491 0.984 . S
H1497 N1491 0.985 . S
H1498 N1495 0.984 1_545 S
H1499 N1495 0.985 . S
H1500 N1494 0.984 . S
H1501 N1494 0.984 . S
H1502 N1490 0.984 . S
H1503 N1490 0.985 1_545 S
C641 C19 1.612 . S
C643 C379 1.612 . S
C659 C59 1.612 . S
C661 C339 1.612 . S
C677 C459 1.612 . S
C679 C99 1.612 . S
C695 C139 1.612 . S
C697 C419 1.612 . S
C713 C530 1.612 . S
C715 C170 1.612 . S
C731 C490 1.612 . S
C733 C210 1.612 . S
C749 C610 1.612 . S
C751 C250 1.612 . S
C767 C290 1.612 . S
C769 C570 1.612 . S
C785 C98 1.773 . S
C787 C18 1.773 . S
C803 C138 1.773 . S
C805 C58 1.773 . S
C821 C249 1.773 . S
C823 C169 1.773 . S
C839 C209 1.773 . S
C841 C289 1.773 . S
C857 C418 1.773 . S
C859 C338 1.773 . S
C875 C458 1.773 . S
C877 C378 1.773 . S
C893 C489 1.773 . S
C895 C569 1.773 . S
C911 C529 1.773 . S
C913 C609 1.773 . S
C929 C218 1.515 . S
C931 C9 1.515 . S
C947 C178 1.515 . S
C949 C49 1.515 . S
C965 C89 1.515 . S
C967 C298 1.515 . S
C983 C258 1.515 . S
C985 C129 1.515 . S
C1001 C329 1.515 . S
C1003 C538 1.515 . S
C1019 C498 1.515 . S
C1021 C369 1.515 . S
C1037 C409 1.515 . S
C1039 C618 1.515 . S
C1055 C578 1.515 . S
C1057 C449 1.515 . S
C1073 C50 1.644 . S
C1075 C10 1.644 . S
C1091 C130 1.644 . S
C1093 C90 1.644 . S
C1109 C219 1.644 . S
C1111 C179 1.644 . S
C1127 C259 1.644 . S
C1129 C299 1.644 . S
C1145 C370 1.644 . S
C1147 C330 1.644 . S
C1163 C450 1.644 . S
C1165 C410 1.644 . S
C1181 C499 1.644 . S
C1183 C539 1.644 . S
C1199 C579 1.644 . S
C1201 C619 1.644 . S
C1217 C6 1.515 . S
C1219 C15 1.515 . S
C1235 C46 1.515 . S
C1237 C55 1.515 . S
C1253 C86 1.515 . S
C1255 C95 1.515 . S
C1271 C135 1.515 . S
C1273 C126 1.515 . S
C1289 C175 1.515 . S
C1291 C166 1.515 . S
C1307 C206 1.515 . S
C1309 C215 1.515 . S
C1325 C255 1.515 . S
C1327 C246 1.515 . S
C1343 C295 1.515 . S
C1345 C286 1.515 . S
C1361 C335 1.515 1_545 S
C1363 C326 1.515 . S
C1379 C366 1.515 . S
C1381 C375 1.515 1_565 S
C1397 C415 1.515 1_565 S
C1399 C406 1.515 . S
C1415 C455 1.515 1_545 S
C1417 C446 1.515 . S
C1433 C495 1.515 . S
C1435 C486 1.515 1_565 S
C1451 C535 1.515 . S
C1453 C526 1.515 1_545 S
C1469 C566 1.515 1_545 S
C1471 C575 1.515 . S
C1487 C615 1.515 . S
C1489 C606 1.515 1_565 S
