# Generated by pormake.
# Topology vba, (4)-cn, num edge types: 1
# Building blocks:
#     Node 0, Type 0, BuildingBlock: ESEHIV_clean_sbu_0, # of connection points: 4
#     Node 1, Type 0, BuildingBlock: ESEHIV_clean_sbu_0, # of connection points: 4
#     Node 2, Type 0, BuildingBlock: ESEHIV_clean_sbu_0, # of connection points: 4
#     Node 3, Type 0, BuildingBlock: ESEHIV_clean_sbu_0, # of connection points: 4
#     Node 4, Type 0, BuildingBlock: ESEHIV_clean_sbu_0, # of connection points: 4
#     Node 5, Type 0, BuildingBlock: ESEHIV_clean_sbu_0, # of connection points: 4
#     Node 6, Type 0, BuildingBlock: ESEHIV_clean_sbu_0, # of connection points: 4
#     Node 7, Type 0, BuildingBlock: ESEHIV_clean_sbu_0, # of connection points: 4
#     Node 8, Type 0, BuildingBlock: ESEHIV_clean_sbu_0, # of connection points: 4
#     Node 9, Type 0, BuildingBlock: ESEHIV_clean_sbu_0, # of connection points: 4
#     Node 10, Type 0, BuildingBlock: ESEHIV_clean_sbu_0, # of connection points: 4
#     Node 11, Type 0, BuildingBlock: ESEHIV_clean_sbu_0, # of connection points: 4
#     Node 12, Type 0, BuildingBlock: ESEHIV_clean_sbu_0, # of connection points: 4
#     Node 13, Type 0, BuildingBlock: ESEHIV_clean_sbu_0, # of connection points: 4
#     Node 14, Type 0, BuildingBlock: ESEHIV_clean_sbu_0, # of connection points: 4
#     Node 15, Type 0, BuildingBlock: ESEHIV_clean_sbu_0, # of connection points: 4
#     Node 16, Type 0, BuildingBlock: ESEHIV_clean_sbu_0, # of connection points: 4
#     Node 17, Type 0, BuildingBlock: ESEHIV_clean_sbu_0, # of connection points: 4
#     Node 18, Type 0, BuildingBlock: ESEHIV_clean_sbu_0, # of connection points: 4
#     Node 19, Type 0, BuildingBlock: ESEHIV_clean_sbu_0, # of connection points: 4
#     Node 20, Type 0, BuildingBlock: ESEHIV_clean_sbu_0, # of connection points: 4
#     Node 21, Type 0, BuildingBlock: ESEHIV_clean_sbu_0, # of connection points: 4
#     Node 22, Type 0, BuildingBlock: ESEHIV_clean_sbu_0, # of connection points: 4
#     Node 23, Type 0, BuildingBlock: ESEHIV_clean_sbu_0, # of connection points: 4
#     Node 24, Type 0, BuildingBlock: ESEHIV_clean_sbu_0, # of connection points: 4
#     Node 25, Type 0, BuildingBlock: ESEHIV_clean_sbu_0, # of connection points: 4
#     Node 26, Type 0, BuildingBlock: ESEHIV_clean_sbu_0, # of connection points: 4
#     Node 27, Type 0, BuildingBlock: ESEHIV_clean_sbu_0, # of connection points: 4
#     Node 28, Type 0, BuildingBlock: ESEHIV_clean_sbu_0, # of connection points: 4
#     Node 29, Type 0, BuildingBlock: ESEHIV_clean_sbu_0, # of connection points: 4
#     Node 30, Type 0, BuildingBlock: ESEHIV_clean_sbu_0, # of connection points: 4
#     Node 31, Type 0, BuildingBlock: ESEHIV_clean_sbu_0, # of connection points: 4
#     Edge 32, Type (0, 0), BuildingBlock: KIFKEQ_clean_linker_1, # of connection points: 2
#     Edge 33, Type (0, 0), BuildingBlock: KIFKEQ_clean_linker_1, # of connection points: 2
#     Edge 34, Type (0, 0), BuildingBlock: KIFKEQ_clean_linker_1, # of connection points: 2
#     Edge 35, Type (0, 0), BuildingBlock: KIFKEQ_clean_linker_1, # of connection points: 2
#     Edge 36, Type (0, 0), BuildingBlock: KIFKEQ_clean_linker_1, # of connection points: 2
#     Edge 37, Type (0, 0), BuildingBlock: KIFKEQ_clean_linker_1, # of connection points: 2
#     Edge 38, Type (0, 0), BuildingBlock: KIFKEQ_clean_linker_1, # of connection points: 2
#     Edge 39, Type (0, 0), BuildingBlock: KIFKEQ_clean_linker_1, # of connection points: 2
#     Edge 40, Type (0, 0), BuildingBlock: KIFKEQ_clean_linker_1, # of connection points: 2
#     Edge 41, Type (0, 0), BuildingBlock: KIFKEQ_clean_linker_1, # of connection points: 2
#     Edge 42, Type (0, 0), BuildingBlock: KIFKEQ_clean_linker_1, # of connection points: 2
#     Edge 43, Type (0, 0), BuildingBlock: KIFKEQ_clean_linker_1, # of connection points: 2
#     Edge 44, Type (0, 0), BuildingBlock: KIFKEQ_clean_linker_1, # of connection points: 2
#     Edge 45, Type (0, 0), BuildingBlock: KIFKEQ_clean_linker_1, # of connection points: 2
#     Edge 46, Type (0, 0), BuildingBlock: KIFKEQ_clean_linker_1, # of connection points: 2
#     Edge 47, Type (0, 0), BuildingBlock: KIFKEQ_clean_linker_1, # of connection points: 2
#     Edge 48, Type (0, 0), BuildingBlock: KIFKEQ_clean_linker_1, # of connection points: 2
#     Edge 49, Type (0, 0), BuildingBlock: KIFKEQ_clean_linker_1, # of connection points: 2
#     Edge 50, Type (0, 0), BuildingBlock: KIFKEQ_clean_linker_1, # of connection points: 2
#     Edge 51, Type (0, 0), BuildingBlock: KIFKEQ_clean_linker_1, # of connection points: 2
#     Edge 52, Type (0, 0), BuildingBlock: KIFKEQ_clean_linker_1, # of connection points: 2
#     Edge 53, Type (0, 0), BuildingBlock: KIFKEQ_clean_linker_1, # of connection points: 2
#     Edge 54, Type (0, 0), BuildingBlock: KIFKEQ_clean_linker_1, # of connection points: 2
#     Edge 55, Type (0, 0), BuildingBlock: KIFKEQ_clean_linker_1, # of connection points: 2
#     Edge 56, Type (0, 0), BuildingBlock: KIFKEQ_clean_linker_1, # of connection points: 2
#     Edge 57, Type (0, 0), BuildingBlock: KIFKEQ_clean_linker_1, # of connection points: 2
#     Edge 58, Type (0, 0), BuildingBlock: KIFKEQ_clean_linker_1, # of connection points: 2
#     Edge 59, Type (0, 0), BuildingBlock: KIFKEQ_clean_linker_1, # of connection points: 2
#     Edge 60, Type (0, 0), BuildingBlock: KIFKEQ_clean_linker_1, # of connection points: 2
#     Edge 61, Type (0, 0), BuildingBlock: KIFKEQ_clean_linker_1, # of connection points: 2
#     Edge 62, Type (0, 0), BuildingBlock: KIFKEQ_clean_linker_1, # of connection points: 2
#     Edge 63, Type (0, 0), BuildingBlock: KIFKEQ_clean_linker_1, # of connection points: 2
#     Edge 64, Type (0, 0), BuildingBlock: KIFKEQ_clean_linker_1, # of connection points: 2
#     Edge 65, Type (0, 0), BuildingBlock: KIFKEQ_clean_linker_1, # of connection points: 2
#     Edge 66, Type (0, 0), BuildingBlock: KIFKEQ_clean_linker_1, # of connection points: 2
#     Edge 67, Type (0, 0), BuildingBlock: KIFKEQ_clean_linker_1, # of connection points: 2
#     Edge 68, Type (0, 0), BuildingBlock: KIFKEQ_clean_linker_1, # of connection points: 2
#     Edge 69, Type (0, 0), BuildingBlock: KIFKEQ_clean_linker_1, # of connection points: 2
#     Edge 70, Type (0, 0), BuildingBlock: KIFKEQ_clean_linker_1, # of connection points: 2
#     Edge 71, Type (0, 0), BuildingBlock: KIFKEQ_clean_linker_1, # of connection points: 2
#     Edge 72, Type (0, 0), BuildingBlock: KIFKEQ_clean_linker_1, # of connection points: 2
#     Edge 73, Type (0, 0), BuildingBlock: KIFKEQ_clean_linker_1, # of connection points: 2
#     Edge 74, Type (0, 0), BuildingBlock: KIFKEQ_clean_linker_1, # of connection points: 2
#     Edge 75, Type (0, 0), BuildingBlock: KIFKEQ_clean_linker_1, # of connection points: 2
#     Edge 76, Type (0, 0), BuildingBlock: KIFKEQ_clean_linker_1, # of connection points: 2
#     Edge 77, Type (0, 0), BuildingBlock: KIFKEQ_clean_linker_1, # of connection points: 2
#     Edge 78, Type (0, 0), BuildingBlock: KIFKEQ_clean_linker_1, # of connection points: 2
#     Edge 79, Type (0, 0), BuildingBlock: KIFKEQ_clean_linker_1, # of connection points: 2
#     Edge 80, Type (0, 0), BuildingBlock: KIFKEQ_clean_linker_1, # of connection points: 2
#     Edge 81, Type (0, 0), BuildingBlock: KIFKEQ_clean_linker_1, # of connection points: 2
#     Edge 82, Type (0, 0), BuildingBlock: KIFKEQ_clean_linker_1, # of connection points: 2
#     Edge 83, Type (0, 0), BuildingBlock: KIFKEQ_clean_linker_1, # of connection points: 2
#     Edge 84, Type (0, 0), BuildingBlock: KIFKEQ_clean_linker_1, # of connection points: 2
#     Edge 85, Type (0, 0), BuildingBlock: KIFKEQ_clean_linker_1, # of connection points: 2
#     Edge 86, Type (0, 0), BuildingBlock: KIFKEQ_clean_linker_1, # of connection points: 2
#     Edge 87, Type (0, 0), BuildingBlock: KIFKEQ_clean_linker_1, # of connection points: 2
#     Edge 88, Type (0, 0), BuildingBlock: KIFKEQ_clean_linker_1, # of connection points: 2
#     Edge 89, Type (0, 0), BuildingBlock: KIFKEQ_clean_linker_1, # of connection points: 2
#     Edge 90, Type (0, 0), BuildingBlock: KIFKEQ_clean_linker_1, # of connection points: 2
#     Edge 91, Type (0, 0), BuildingBlock: KIFKEQ_clean_linker_1, # of connection points: 2
#     Edge 92, Type (0, 0), BuildingBlock: KIFKEQ_clean_linker_1, # of connection points: 2
#     Edge 93, Type (0, 0), BuildingBlock: KIFKEQ_clean_linker_1, # of connection points: 2
#     Edge 94, Type (0, 0), BuildingBlock: KIFKEQ_clean_linker_1, # of connection points: 2
#     Edge 95, Type (0, 0), BuildingBlock: KIFKEQ_clean_linker_1, # of connection points: 2
# Relax obj value: 0.005
# Max RMSD: 0.021
# Mean RMSD: 0.021
data_MOF--net-vba--node1-ESEHIV_clean_sbu_0--edge1-KIFKEQ_clean_linker_1
_symmetry_space_group_name_H-M    P1
_symmetry_Int_Tables_number       1
_symmetry_cell_setting            triclinic
loop_
_symmetry_equiv_pos_as_xyz
'x, y, z'
_cell_length_a     25.044524
_cell_length_b     114.94597
_cell_length_c     53.381271
_cell_angle_alpha  89.968443
_cell_angle_beta   90.290324
_cell_angle_gamma 90.119176
loop_
_atom_site_label
_atom_site_type_symbol
_atom_site_fract_x
_atom_site_fract_y
_atom_site_fract_z
_atom_type_partial_charge
Cu0 Cu 0.33595 0.08776 0.02166 0.0
N1 N 0.28124 0.09533 1.00387 0.0
N2 N 0.23763 0.11135 0.99108 0.0
C3 C 0.27568 0.10692 1.00632 0.0
C4 C 0.21788 0.10203 0.9786 0.0
C5 C 0.24505 0.09214 0.98646 0.0
O6 O 0.31538 0.09009 0.05695 0.0
C7 C 0.4021 0.09141 0.98356 0.0
O8 O 0.36444 0.08457 0.97473 0.0
H9 H 0.29985 0.11198 1.01915 0.0
H10 H 0.23969 0.08337 0.97954 0.0
N11 N 0.34781 0.07165 1.01704 0.0
N12 N 0.39808 0.05542 1.01539 0.0
C13 C 0.39597 0.06682 0.02167 0.0
C14 C 0.31779 0.063 1.00744 0.0
C15 C 0.34861 0.053 1.00644 0.0
C16 C 0.27074 0.08505 0.06138 0.0
O17 O 0.24852 0.07909 0.04309 0.0
H18 H 0.42951 0.07182 0.02864 0.0
H19 H 0.27695 0.06394 1.0011 0.0
O20 O 0.39969 0.09472 1.00646 0.0
H21 H 0.18711 0.10232 0.96431 0.0
H22 H 0.33542 0.04464 0.99944 0.0
Cu23 Cu 0.02547 0.2194 1.0174 0.0
N24 N 0.0851 0.21188 1.00349 0.0
N25 N 0.13214 0.19607 0.99243 0.0
C26 C 0.08884 0.2002 1.0045 0.0
C27 C 0.15711 0.20568 0.98361 0.0
C28 C 0.12792 0.21543 0.9904 0.0
O29 O 0.03591 0.21719 0.05393 0.0
C30 C 0.97337 0.21413 0.97464 0.0
O31 O 1.01582 0.21992 0.96742 0.0
H32 H 0.05972 0.19486 1.01403 0.0
H33 H 0.13675 0.22437 0.98569 0.0
N34 N 1.01494 0.23545 1.01178 0.0
N35 N 0.96661 0.25192 1.00881 0.0
C36 C 0.96661 0.24046 1.01468 0.0
C37 C 0.04716 0.24403 1.00372 0.0
C38 C 1.01751 0.25418 1.00188 0.0
C39 C 0.08043 0.22152 0.06149 0.0
O40 O 0.10961 0.22714 0.04503 0.0
H41 H 0.93169 0.23562 0.02044 0.0
H42 H 0.08897 0.24299 0.99931 0.0
O43 O 0.96612 0.21246 0.99816 0.0
H44 H 0.19317 0.20571 0.97254 0.0
H45 H 0.03258 0.26257 0.99598 0.0
Cu46 Cu 0.29234 0.22327 0.28218 0.0
N47 N 0.23721 0.21467 0.29703 0.0
N48 N 0.20048 0.19735 0.30656 0.0
C49 C 0.2256 0.20382 0.289 0.0
C50 C 0.19535 0.20457 0.32639 0.0
C51 C 0.21859 0.21516 0.3206 0.0
O52 O 0.28051 0.22079 0.24582 0.0
C53 C 0.38158 0.22188 0.31611 0.0
O54 O 0.38652 0.23315 0.31323 0.0
H55 H 0.23969 0.20049 0.2713 0.0
H56 H 0.22639 0.22219 0.33356 0.0
N57 N 0.29145 0.23953 0.28839 0.0
N58 N 0.32122 0.25802 0.29097 0.0
C59 C 0.32788 0.24741 0.28033 0.0
C60 C 0.25951 0.24546 0.30397 0.0
C61 C 0.27762 0.25679 0.3056 0.0
C62 C 0.23396 0.22402 0.23851 0.0
O63 O 0.20266 0.22894 0.25509 0.0
H64 H 0.361 0.24515 0.26835 0.0
H65 H 0.22647 0.24172 0.31417 0.0
O66 O 0.35298 0.21617 0.30042 0.0
H67 H 0.18037 0.20209 0.34461 0.0
H68 H 0.26051 0.26352 0.31722 0.0
Cu69 Cu 1.01537 0.08852 0.26879 0.0
N70 N 0.07663 0.09559 0.28259 0.0
N71 N 0.12411 0.11127 0.29445 0.0
C72 C 0.0767 0.10719 0.28618 0.0
C73 C 0.15575 0.10176 0.29596 0.0
C74 C 0.12627 0.09207 0.28865 0.0
O75 O 0.02641 0.09084 0.23259 0.0
C76 C 0.96777 0.09442 0.3113 0.0
O77 O 1.00767 0.08762 0.31771 0.0
H78 H 0.04259 0.1126 0.28182 0.0
H79 H 0.14038 0.08321 0.28732 0.0
N80 N 1.00147 0.07252 0.27448 0.0
N81 N 0.95181 0.05614 0.2764 0.0
C82 C 0.95381 0.06747 0.26936 0.0
C83 C 0.03098 0.06411 0.28525 0.0
C84 C 1.00065 0.05403 0.28636 0.0
C85 C 0.06411 0.08438 0.2244 0.0
O86 O 0.08585 0.07686 0.23988 0.0
H87 H 0.92108 0.07213 0.2607 0.0
H88 H 0.07124 0.06528 0.29225 0.0
O89 O 0.95899 0.09629 0.28797 0.0
H90 H 0.19723 0.10179 0.30174 0.0
H91 H 1.01334 0.04587 0.29453 0.0
Cu92 Cu 0.81327 0.97489 1.01983 0.0
N93 N 0.8868 0.97298 0.02434 0.0
N94 N 0.95797 0.96115 0.02386 0.0
C95 C 0.90664 0.96252 0.03086 0.0
C96 C 0.97123 0.9713 1.01268 0.0
C97 C 0.92716 0.97855 1.01287 0.0
O98 O 0.8058 0.96851 0.98603 0.0
C99 C 0.79753 0.97055 0.06895 0.0
O100 O 0.83026 0.9795 0.06876 0.0
H101 H 0.8817 0.95549 0.03762 0.0
H102 H 0.92317 0.9867 1.00288 0.0
N103 N 0.78816 0.99039 0.02158 0.0
N104 N 0.73117 1.00555 0.02194 0.0
C105 C 0.73687 0.99389 1.01891 0.0
C106 C 0.81599 1.00012 0.02662 0.0
C107 C 0.78122 1.00942 0.02685 0.0
C108 C 0.81047 0.97555 0.96765 0.0
O109 O 0.80222 0.98666 0.97163 0.0
H110 H 0.70457 0.98794 1.01469 0.0
H111 H 0.85851 1.0004 0.03022 0.0
O112 O 0.78155 0.96649 0.04793 0.0
H113 H 1.00863 0.97305 1.00332 0.0
H114 H 0.7923 1.01833 0.03083 0.0
Cu115 Cu 0.09529 0.84561 1.00506 0.0
N116 N 0.11308 0.8614 0.99998 0.0
N117 N 0.10952 0.88091 1.00197 0.0
C118 C 0.09082 0.87072 1.01123 0.0
C119 C 0.1457 0.87783 0.98453 0.0
C120 C 0.14779 0.86585 0.98336 0.0
O121 O 0.02948 0.84223 0.98538 0.0
C122 C 0.0547 0.8462 0.05638 0.0
O123 O 1.00928 0.85008 0.04729 0.0
H124 H 0.06073 0.87003 0.02561 0.0
H125 H 0.17207 0.86079 0.97077 0.0
N126 N 0.15063 0.83594 0.99268 0.0
N127 N 0.21683 0.8228 0.98898 0.0
C128 C 0.18047 0.82772 1.00451 0.0
C129 C 0.16826 0.83599 0.96892 0.0
C130 C 0.20904 0.82804 0.96664 0.0
C131 C 0.99147 0.84948 0.98179 0.0
O132 O 0.99194 0.85934 0.99419 0.0
H133 H 0.17616 0.82551 0.02411 0.0
H134 H 0.15232 0.84144 0.95416 0.0
O135 O 0.09203 0.84335 0.04143 0.0
H136 H 0.16766 0.88378 0.97269 0.0
H137 H 0.23084 0.82613 0.94967 0.0
Cu138 Cu 0.71307 0.84426 0.78254 0.0
N139 N 0.77839 0.85004 0.77065 0.0
N140 N 0.8328 0.86525 0.76317 0.0
C141 C 0.78195 0.86141 0.76458 0.0
C142 C 0.86286 0.85578 0.7685 0.0
C143 C 0.82918 0.84643 0.77325 0.0
O144 O 0.72013 0.84715 0.81899 0.0
C145 C 0.66972 0.84946 0.73785 0.0
O146 O 0.70316 0.84094 0.73339 0.0
H147 H 0.74743 0.86703 0.76375 0.0
H148 H 0.84087 0.83794 0.78007 0.0
N149 N 0.69493 0.82839 0.77735 0.0
N150 N 0.64118 0.81269 0.77377 0.0
C151 C 0.64482 0.82413 0.77976 0.0
C152 C 0.72438 0.81934 0.76948 0.0
C153 C 0.69152 0.80968 0.76733 0.0
C154 C 0.74832 0.83959 0.83074 0.0
O155 O 0.76348 0.83025 0.81856 0.0
H156 H 0.6114 0.8295 0.78517 0.0
H157 H 0.76657 0.81977 0.76534 0.0
O158 O 0.66352 0.85283 0.76054 0.0
H159 H 0.90592 0.85573 0.77022 0.0
H160 H 0.7041 0.80112 0.76148 0.0
Cu161 Cu 0.04659 0.97341 0.774 0.0
N162 N 0.97939 0.96655 0.76877 0.0
N163 N 0.92701 0.9508 0.76393 0.0
C164 C 0.9722 0.95518 0.77411 0.0
C165 C 0.90437 0.95987 0.75177 0.0
C166 C 0.93678 0.96958 0.75477 0.0
O167 O 0.06391 0.96733 0.80729 0.0
C168 C 0.06965 0.97248 0.72487 0.0
O169 O 0.03353 0.98072 0.72641 0.0
H170 H 1.00218 0.94997 0.78351 0.0
H171 H 0.93143 0.97798 0.74596 0.0
N172 N 0.05071 0.98992 0.77407 0.0
N173 N 0.08801 1.00779 0.77299 0.0
C174 C 0.09501 0.99626 0.76888 0.0
C175 C 1.01421 0.99773 0.78155 0.0
C176 C 0.03702 1.00871 0.78094 0.0
C177 C 0.0685 0.9741 0.82608 0.0
O178 O 0.08531 0.98478 0.82235 0.0
H179 H 0.13235 0.99238 0.76314 0.0
H180 H 0.97432 0.99557 0.7877 0.0
O181 O 0.08639 0.96779 0.74512 0.0
H182 H 0.8682 0.95943 0.74063 0.0
H183 H 1.01749 1.01675 0.78609 0.0
Cu184 Cu 0.30158 0.58865 0.53395 0.0
N185 N 0.23672 0.59553 0.5239 0.0
N186 N 0.18524 0.61088 0.51399 0.0
C187 C 0.23262 0.60722 0.5232 0.0
C188 C 0.15811 0.60099 0.50867 0.0
C189 C 0.18992 0.59152 0.51486 0.0
O190 O 0.30206 0.59108 0.57045 0.0
C191 C 0.33831 0.5948 0.48898 0.0
O192 O 0.29787 0.58782 0.48439 0.0
H193 H 0.2651 0.61293 0.52859 0.0
H194 H 0.17989 0.58244 0.51248 0.0
N195 N 0.31259 0.57257 0.52807 0.0
N196 N 0.3572 0.55556 0.52689 0.0
C197 C 0.35909 0.56701 0.53291 0.0
C198 C 0.27998 0.56436 0.51852 0.0
C199 C 0.30722 0.5539 0.51784 0.0
C200 C 0.26829 0.58448 0.58146 0.0
O201 O 0.24172 0.57689 0.56783 0.0
H202 H 0.39356 0.57133 0.54096 0.0
H203 H 0.23941 0.56585 0.51236 0.0
O204 O 0.35224 0.59656 0.51178 0.0
H205 H 0.11822 0.60058 0.50083 0.0
H206 H 0.29151 0.54575 0.5108 0.0
Cu207 Cu 0.96864 0.71784 0.50743 0.0
N208 N 0.02901 0.71077 0.49341 0.0
N209 N 0.07759 0.69464 0.48664 0.0
C210 C 0.04825 0.70078 0.50317 0.0
C211 C 0.07712 0.70113 0.46551 0.0
C212 C 0.04682 0.71102 0.46967 0.0
O213 O 0.98045 0.71597 0.5439 0.0
C214 C 0.87954 0.71432 0.47443 0.0
O215 O 0.86373 0.72486 0.48017 0.0
H216 H 0.03563 0.69745 0.52116 0.0
H217 H 0.03432 0.71725 0.45566 0.0
N218 N 0.95849 0.7339 0.50123 0.0
N219 N 0.91343 0.75091 0.50125 0.0
C220 C 0.92108 0.74048 0.51268 0.0
C221 C 0.97631 0.74045 0.48218 0.0
C222 C 0.94897 0.7509 0.48219 0.0
C223 C 0.02567 0.72012 0.55091 0.0
O224 O 0.05509 0.72544 0.53408 0.0
H225 H 0.89731 0.7372 0.52797 0.0
H226 H 1.00467 0.73758 0.4683 0.0
O227 O 0.91298 0.70922 0.48889 0.0
H228 H 0.09444 0.6986 0.44781 0.0
H229 H 0.95334 0.75764 0.46822 0.0
Cu230 Cu 0.23067 0.73125 0.76937 0.0
N231 N 0.16162 0.72725 0.78007 0.0
N232 N 0.09584 0.71414 0.78474 0.0
C233 C 0.14898 0.71596 0.78333 0.0
C234 C 0.0739 0.72483 0.78247 0.0
C235 C 0.11459 0.73291 0.77959 0.0
O236 O 0.22672 0.7263 0.73393 0.0
C237 C 0.26677 0.72716 0.81623 0.0
O238 O 0.23002 0.73523 0.81855 0.0
H239 H 0.17832 0.70907 0.78234 0.0
H240 H 0.10977 0.74206 0.7755 0.0
N241 N 0.25126 0.74712 0.77104 0.0
N242 N 0.30669 0.76262 0.77252 0.0
C243 C 0.30197 0.75101 0.76836 0.0
C244 C 0.2227 0.75657 0.77721 0.0
C245 C 0.25652 0.7661 0.77804 0.0
C246 C 0.19202 0.73223 0.72167 0.0
O247 O 0.17217 0.74151 0.7325 0.0
H248 H 0.33484 0.74533 0.76373 0.0
H249 H 0.18058 0.75653 0.78151 0.0
O250 O 0.27681 0.72341 0.79414 0.0
H251 H 0.03152 0.72662 0.78172 0.0
H252 H 0.245 0.77484 0.78315 0.0
Cu253 Cu 0.97014 0.59861 0.76741 0.0
N254 N 0.94445 0.61379 0.76345 0.0
N255 N 0.94597 0.63331 0.76429 0.0
C256 C 0.97402 0.6234 0.7678 0.0
C257 C 0.89651 0.62973 0.75748 0.0
C258 C 0.89573 0.61769 0.75695 0.0
O259 O 0.03357 0.59808 0.746 0.0
C260 C 0.98849 0.58858 0.81729 0.0
O261 O 0.98074 0.57821 0.80761 0.0
H262 H 1.01521 0.62305 0.77396 0.0
H263 H 0.86203 0.61218 0.75231 0.0
N264 N 0.9205 0.58733 0.75569 0.0
N265 N 0.86149 0.57264 0.75119 0.0
C266 C 0.88476 0.58028 0.76737 0.0
C267 C 0.91881 0.58409 0.7315 0.0
C268 C 0.88296 0.5751 0.72868 0.0
C269 C 0.0627 0.58922 0.74196 0.0
O270 O 0.05283 0.57952 0.75415 0.0
H271 H 0.8774 0.58044 0.78733 0.0
H272 H 0.94323 0.58785 0.71692 0.0
O273 O 0.98699 0.59749 0.80314 0.0
H274 H 0.86331 0.63538 0.75297 0.0
H275 H 0.87367 0.57064 0.71134 0.0
Cu276 Cu 0.71154 0.46364 0.52434 0.0
N277 N 0.75393 0.45334 0.54315 0.0
N278 N 0.79085 0.43593 0.55148 0.0
C279 C 0.76394 0.44252 0.53469 0.0
C280 C 0.79777 0.44297 0.57156 0.0
C281 C 0.77485 0.45369 0.5664 0.0
O282 O 0.74463 0.46526 0.49088 0.0
C283 C 0.61666 0.45191 0.54149 0.0
O284 O 0.57347 0.4457 0.53735 0.0
H285 H 0.74968 0.43947 0.51669 0.0
H286 H 0.77226 0.46103 0.57899 0.0
N287 N 0.69697 0.47856 0.53733 0.0
N288 N 0.65033 0.49512 0.54277 0.0
C289 C 0.65655 0.48533 0.52896 0.0
C290 C 0.71794 0.48433 0.55697 0.0
C291 C 0.68936 0.49451 0.56036 0.0
C292 C 0.79539 0.46487 0.48826 0.0
O293 O 0.82547 0.46358 0.50829 0.0
H294 H 0.6313 0.48286 0.51334 0.0
H295 H 0.75042 0.4812 0.56854 0.0
O296 O 0.64334 0.4556 0.52267 0.0
H297 H 0.81751 0.44058 0.58887 0.0
H298 H 0.69582 0.50071 0.5753 0.0
Cu299 Cu 0.03165 0.33439 0.50388 0.0
N300 N 0.96277 0.33896 0.51347 0.0
N301 N 0.90267 0.3527 0.52333 0.0
C302 C 0.95441 0.34945 0.52411 0.0
C303 C 0.87718 0.34381 0.51172 0.0
C304 C 0.91439 0.33537 0.50556 0.0
O305 O 0.03434 0.34009 0.46907 0.0
C306 C 0.06294 0.33706 0.55157 0.0
O307 O 0.02786 0.32854 0.55172 0.0
H308 H 0.98665 0.3551 0.53007 0.0
H309 H 0.9073 0.32768 0.49435 0.0
N310 N 0.04716 0.31824 0.50495 0.0
N311 N 0.09554 0.30172 0.50462 0.0
C312 C 0.09624 0.31348 0.50242 0.0
C313 C 1.01414 0.3092 0.50901 0.0
C314 C 0.04367 0.29905 0.50876 0.0
C315 C 1.01778 0.33318 0.45189 0.0
O316 O 1.01045 0.32219 0.45756 0.0
H317 H 0.1317 0.3186 0.49889 0.0
H318 H 0.97167 0.30995 0.51217 0.0
O319 O 0.07553 0.34148 0.53039 0.0
H320 H 0.83521 0.34366 0.5068 0.0
H321 H 0.02801 0.2904 0.51192 0.0
Cu322 Cu 0.68881 0.35039 0.27276 0.0
N323 N 0.67412 0.36641 0.27467 0.0
N324 N 0.68573 0.38579 0.27321 0.0
C325 C 0.70945 0.37522 0.2721 0.0
C326 C 0.63335 0.38346 0.27665 0.0
C327 C 0.62636 0.37156 0.27745 0.0
O328 O 0.75316 0.34739 0.29321 0.0
C329 C 0.73513 0.35099 0.22378 0.0
O330 O 0.77567 0.35616 0.23486 0.0
H331 H 0.75158 0.37383 0.26893 0.0
H332 H 0.5889 0.36698 0.27961 0.0
N333 N 0.63062 0.34165 0.28549 0.0
N334 N 0.56552 0.32835 0.29119 0.0
C335 C 0.60756 0.33172 0.27687 0.0
C336 C 0.60252 0.34452 0.30597 0.0
C337 C 0.56268 0.33643 0.30948 0.0
C338 C 0.75571 0.35202 0.31495 0.0
O339 O 0.71535 0.3584 0.32244 0.0
H340 H 0.62074 0.32717 0.26027 0.0
H341 H 0.61032 0.35205 0.31755 0.0
O342 O 0.69671 0.34715 0.23704 0.0
H343 H 0.60205 0.38987 0.27854 0.0
H344 H 0.5341 0.33644 0.32462 0.0
Cu345 Cu 1.00981 0.47869 0.27361 0.0
N346 N 0.93856 0.47572 0.26452 0.0
N347 N 0.86859 0.46368 0.25977 0.0
C348 C 0.92221 0.46467 0.26108 0.0
C349 C 0.85025 0.47466 0.26243 0.0
C350 C 0.89356 0.48209 0.2654 0.0
O351 O 1.00812 0.47417 0.3093 0.0
C352 C 0.03615 0.47236 0.22615 0.0
O353 O 0.99955 0.48041 0.22299 0.0
H354 H 0.94941 0.45737 0.26153 0.0
H355 H 0.89203 0.49129 0.26949 0.0
N356 N 0.03485 0.49418 0.27084 0.0
N357 N 0.09368 0.50906 0.2707 0.0
C358 C 0.08539 0.49765 0.27597 0.0
C359 C 1.01013 0.5037 0.2619 0.0
C360 C 0.04605 0.51286 0.26188 0.0
C361 C 0.97925 0.48108 0.32228 0.0
O362 O 0.96299 0.49074 0.31154 0.0
H363 H 0.11554 0.49183 0.28328 0.0
H364 H 0.96927 0.50391 0.25528 0.0
O365 O 0.05053 0.46979 0.24857 0.0
H366 H 0.80861 0.47712 0.26318 0.0
H367 H 0.03787 0.52155 0.25513 0.0
Cu368 Cu 0.79681 0.08623 0.52918 0.0
N369 N 0.72622 0.08991 0.52039 0.0
N370 N 0.66355 0.10331 0.51166 0.0
C371 C 0.71496 0.10008 0.50887 0.0
C372 C 0.64124 0.09472 0.52543 0.0
C373 C 0.68005 0.0865 0.53089 0.0
O374 O 0.80094 0.093 0.56307 0.0
C375 C 0.82331 0.08785 0.48064 0.0
O376 O 0.7895 0.07911 0.48205 0.0
H377 H 0.74552 0.10568 0.50116 0.0
H378 H 0.6761 0.07924 0.54365 0.0
N379 N 0.8153 0.07025 0.52992 0.0
N380 N 0.86753 0.0543 0.52972 0.0
C381 C 0.86584 0.06609 0.52995 0.0
C382 C 0.78374 0.06077 0.52964 0.0
C383 C 0.8157 0.05096 0.52952 0.0
C384 C 0.80169 0.08657 0.58264 0.0
O385 O 0.81448 0.07555 0.58039 0.0
H386 H 0.90069 0.07167 0.52969 0.0
H387 H 0.74057 0.06098 0.52941 0.0
O388 O 0.83684 0.09294 0.50105 0.0
H389 H 0.60083 0.09473 0.53251 0.0
H390 H 0.80163 0.04206 0.5295 0.0
Cu391 Cu 0.46926 0.21351 0.51518 0.0
N392 N 0.51211 0.20376 0.49559 0.0
N393 N 0.54993 0.1866 0.48623 0.0
C394 C 0.52609 0.19314 0.50397 0.0
C395 C 0.55099 0.1935 0.46568 0.0
C396 C 0.52755 0.20408 0.4715 0.0
O397 O 0.50589 0.21488 0.54793 0.0
C398 C 0.37563 0.20097 0.49865 0.0
O399 O 0.3338 0.19441 0.50311 0.0
H400 H 0.5159 0.19006 0.5225 0.0
H401 H 0.51993 0.2112 0.45873 0.0
N402 N 0.45244 0.22844 0.50275 0.0
N403 N 0.40364 0.24469 0.49691 0.0
C404 C 0.41008 0.23478 0.51038 0.0
C405 C 0.47438 0.23463 0.48404 0.0
C406 C 0.44449 0.24462 0.48042 0.0
C407 C 0.55482 0.21807 0.54806 0.0
O408 O 0.57706 0.22074 0.52656 0.0
H409 H 0.38355 0.23193 0.5251 0.0
H410 H 0.50857 0.23192 0.47326 0.0
O411 O 0.4024 0.20497 0.51728 0.0
H412 H 0.56637 0.19103 0.44755 0.0
H413 H 0.45125 0.25109 0.46603 0.0
Cu414 Cu 0.77898 0.22796 0.76019 0.0
N415 N 0.70647 0.22494 0.76613 0.0
N416 N 0.6367 0.21263 0.76697 0.0
C417 C 0.68959 0.21403 0.77104 0.0
C418 C 0.61942 0.22319 0.75931 0.0
C419 C 0.66258 0.23074 0.75868 0.0
O420 O 0.7831 0.22268 0.72511 0.0
C421 C 0.79884 0.22212 0.80903 0.0
O422 O 0.75996 0.22974 0.81065 0.0
H423 H 0.71681 0.20695 0.77498 0.0
H424 H 0.66266 0.23949 0.75118 0.0
N425 N 0.80193 0.24365 0.76277 0.0
N426 N 0.85751 0.25913 0.76392 0.0
C427 C 0.85251 0.24755 0.75945 0.0
C428 C 0.77385 0.25308 0.7696 0.0
C429 C 0.80776 0.26259 0.77026 0.0
C430 C 0.76502 0.22986 0.7088 0.0
O431 O 0.75545 0.2406 0.71582 0.0
H432 H 0.88524 0.2419 0.75445 0.0
H433 H 0.73179 0.25303 0.77408 0.0
O434 O 0.81667 0.21958 0.78725 0.0
H435 H 0.57918 0.22516 0.75321 0.0
H436 H 0.7963 0.27138 0.77501 0.0
Cu437 Cu 0.46675 0.0982 0.7597 0.0
N438 N 0.45004 0.11417 0.75818 0.0
N439 N 0.46032 0.13361 0.75794 0.0
C440 C 0.48412 0.12315 0.75459 0.0
C441 C 0.409 0.13103 0.76344 0.0
C442 C 0.40289 0.1191 0.76361 0.0
O443 O 0.52242 0.09532 0.73448 0.0
C444 C 0.50865 0.10193 0.80915 0.0
O445 O 0.52617 0.11176 0.79973 0.0
H446 H 0.52601 0.12197 0.75051 0.0
H447 H 0.3671 0.11433 0.76842 0.0
N448 N 0.406 0.08923 0.75056 0.0
N449 N 0.34279 0.07527 0.74768 0.0
C450 C 0.38413 0.07965 0.76138 0.0
C451 C 0.3772 0.09096 0.72956 0.0
C452 C 0.33856 0.08244 0.72773 0.0
C453 C 0.57226 0.09746 0.7366 0.0
O454 O 0.59119 0.10118 0.75815 0.0
H455 H 0.3992 0.07577 0.77849 0.0
H456 H 0.38446 0.09787 0.71624 0.0
O457 O 0.48597 0.09456 0.79464 0.0
H458 H 0.37845 0.13727 0.76824 0.0
H459 H 0.30946 0.08161 0.71278 0.0
Cu460 Cu 0.2586 0.96984 0.51917 0.0
N461 N 0.31502 0.96278 0.53695 0.0
N462 N 0.35875 0.94728 0.5522 0.0
C463 C 0.3159 0.95112 0.53929 0.0
C464 C 0.38658 0.95699 0.55816 0.0
C465 C 0.35925 0.96658 0.54885 0.0
O466 O 0.27787 0.96749 0.48393 0.0
C467 C 0.19854 0.9637 0.55729 0.0
O468 O 0.23424 0.97098 0.56633 0.0
H469 H 0.28573 0.94551 0.5311 0.0
H470 H 0.37099 0.97561 0.5505 0.0
N471 N 0.24366 0.98577 0.5248 0.0
N472 N 0.1929 1.00185 0.52847 0.0
C473 C 0.19391 0.9903 0.52348 0.0
C474 C 0.27556 0.99478 0.53089 0.0
C475 C 0.24447 1.00468 0.53307 0.0
C476 C 0.32368 0.97178 0.47877 0.0
O477 O 0.34842 0.97782 0.4962 0.0
H478 H 0.15907 0.98516 0.51872 0.0
H479 H 0.31827 0.99419 0.5337 0.0
O480 O 0.19778 0.96168 0.53374 0.0
H481 H 0.42374 0.95717 0.56858 0.0
H482 H 0.25879 1.01326 0.5381 0.0
Cu483 Cu 0.54415 0.84041 0.52728 0.0
N484 N 0.48448 0.84577 0.54469 0.0
N485 N 0.44201 0.86184 0.5578 0.0
C486 C 0.46561 0.85636 0.53844 0.0
C487 C 0.44442 0.85417 0.57695 0.0
C488 C 0.47133 0.84433 0.56892 0.0
O489 O 0.52431 0.84282 0.49184 0.0
C490 C 0.63136 0.84692 0.55901 0.0
O491 O 0.64834 0.83618 0.5571 0.0
H492 H 0.47522 0.86052 0.52085 0.0
H493 H 0.48654 0.83746 0.58081 0.0
N494 N 0.56309 0.82461 0.53216 0.0
N495 N 0.61176 0.80815 0.53071 0.0
C496 C 0.60623 0.81922 0.52234 0.0
C497 C 0.53994 0.8166 0.54695 0.0
C498 C 0.56967 0.80648 0.54608 0.0
C499 C 0.48082 0.8377 0.48552 0.0
O500 O 0.45755 0.83101 0.50222 0.0
H501 H 0.63377 0.82349 0.50975 0.0
H502 H 0.50467 0.81809 0.55809 0.0
O503 O 0.59712 0.85068 0.54316 0.0
H504 H 0.4335 0.85608 0.59611 0.0
H505 H 0.56183 0.79866 0.55672 0.0
Cu506 Cu 0.23857 0.83805 0.27292 0.0
N507 N 0.29521 0.84553 0.2564 0.0
N508 N 0.34322 0.86131 0.24586 0.0
C509 C 0.30707 0.8567 0.26172 0.0
C510 C 0.35468 0.85259 0.22975 0.0
C511 C 0.32495 0.84286 0.23629 0.0
O512 O 0.25316 0.84137 0.30864 0.0
C513 C 0.17309 0.84035 0.23276 0.0
O514 O 0.20821 0.83261 0.22553 0.0
H515 H 0.28703 0.86153 0.27629 0.0
H516 H 0.32357 0.83463 0.22649 0.0
N517 N 0.23131 0.82173 0.26989 0.0
N518 N 0.18825 0.80453 0.26974 0.0
C519 C 0.18421 0.81617 0.27291 0.0
C520 C 0.26679 0.81332 0.26464 0.0
C521 C 0.2404 0.8027 0.26461 0.0
C522 C 0.30018 0.83811 0.31512 0.0
O523 O 0.32937 0.83273 0.29835 0.0
H524 H 0.1476 0.82064 0.27755 0.0
H525 H 0.30869 0.81479 0.26095 0.0
O526 O 0.1764 0.84445 0.25503 0.0
H527 H 0.38183 0.85324 0.2141 0.0
H528 H 0.25818 0.79433 0.26069 0.0
Cu529 Cu 0.57399 0.96814 0.2711 0.0
N530 N 0.51333 0.96093 0.25678 0.0
N531 N 0.46239 0.94535 0.24771 0.0
C532 C 0.50558 0.94944 0.26016 0.0
C533 C 0.44192 0.95476 0.23587 0.0
C534 C 0.47336 0.96438 0.24156 0.0
O535 O 0.56059 0.96611 0.30705 0.0
C536 C 0.62587 0.96176 0.23028 0.0
O537 O 0.58663 0.96846 0.22261 0.0
H538 H 0.53258 0.9441 0.27108 0.0
H539 H 0.46797 0.97316 0.23472 0.0
N540 N 0.58776 0.98412 0.26519 0.0
N541 N 0.63708 1.00055 0.26325 0.0
C542 C 0.63584 0.98913 0.26959 0.0
C543 C 0.55714 0.99266 0.25568 0.0
C544 C 0.58733 1.00276 0.25448 0.0
C545 C 0.51653 0.97099 0.31299 0.0
O546 O 0.49201 0.97723 0.29582 0.0
H547 H 0.66966 0.98433 0.27685 0.0
H548 H 0.51595 0.99163 0.24992 0.0
O549 O 0.63221 0.96019 0.25384 0.0
H550 H 0.4068 0.95473 0.22398 0.0
H551 H 0.57331 1.01111 0.24778 0.0
Cu552 Cu 0.83542 0.58913 0.03141 0.0
N553 N 0.77888 0.59732 1.01599 0.0
N554 N 0.73287 0.61344 1.00573 0.0
C555 C 0.77714 0.60904 1.01677 0.0
C556 C 0.70542 0.60399 0.99768 0.0
C557 C 0.7339 0.59406 1.004 0.0
O558 O 0.81923 0.59056 0.06738 0.0
C559 C 0.89554 0.59409 0.99209 0.0
O560 O 0.8534 0.58867 0.98314 0.0
H561 H 0.80755 0.61422 0.02598 0.0
H562 H 0.72229 0.58515 1.00036 0.0
N563 N 0.84584 0.57313 0.02452 0.0
N564 N 0.89419 0.55669 0.02094 0.0
C565 C 0.89328 0.56788 0.02881 0.0
C566 C 0.81521 0.56497 1.01346 0.0
C567 C 0.84478 0.55482 1.01136 0.0
C568 C 0.7761 0.58507 0.07254 0.0
O569 O 0.75269 0.57922 0.05442 0.0
H570 H 0.92678 0.57232 0.03741 0.0
H571 H 0.77482 0.56634 1.00688 0.0
O572 O 0.89871 0.59595 1.01571 0.0
H573 H 0.66751 0.60419 0.98788 0.0
H574 H 0.83125 0.54682 1.00274 0.0
Cu575 Cu 0.52197 0.72347 1.01978 0.0
N576 N 0.58332 0.7149 1.01122 0.0
N577 N 0.63168 0.69862 1.00588 0.0
C578 C 0.58281 0.70317 1.01017 0.0
C579 C 0.66436 0.70797 1.00408 0.0
C580 C 0.63452 0.71798 1.00754 0.0
O581 O 0.51947 0.72131 0.0565 0.0
C582 C 0.48087 0.71813 0.97417 0.0
O583 O 0.52882 0.72224 0.96957 0.0
H584 H 0.54689 0.69808 1.01283 0.0
H585 H 0.64945 0.72681 1.0081 0.0
N586 N 0.52125 0.73963 1.0126 0.0
N587 N 0.48513 0.75733 1.00607 0.0
C588 C 0.4791 0.74673 1.01682 0.0
C589 C 0.5553 0.74599 0.99877 0.0
C590 C 0.53325 0.75687 0.99476 0.0
C591 C 0.55266 0.72764 0.06879 0.0
O592 O 0.57963 0.73563 0.05661 0.0
H593 H 0.44323 0.74391 0.02632 0.0
H594 H 0.59229 0.74279 0.99107 0.0
O595 O 0.46612 0.71739 0.9971 0.0
H596 H 0.70711 0.70762 1.00137 0.0
H597 H 0.55078 0.7638 0.98379 0.0
Cu598 Cu 0.81933 0.71426 0.27215 0.0
N599 N 0.77718 0.70568 0.29444 0.0
N600 N 0.7457 0.689 0.31066 0.0
C601 C 0.76724 0.6943 0.29048 0.0
C602 C 0.74118 0.69752 0.32798 0.0
C603 C 0.76085 0.70778 0.31798 0.0
O604 O 0.78195 0.71461 0.23944 0.0
C605 C 0.91004 0.70052 0.28869 0.0
O606 O 0.95102 0.69383 0.28362 0.0
H607 H 0.778 0.68995 0.27328 0.0
H608 H 0.76609 0.71594 0.32777 0.0
N609 N 0.83815 0.7295 0.28193 0.0
N610 N 0.88765 0.74582 0.28549 0.0
C611 C 0.88296 0.73517 0.27478 0.0
C612 C 0.81315 0.73684 0.29754 0.0
C613 C 0.84345 0.74686 0.2998 0.0
C614 C 0.73681 0.7197 0.23744 0.0
O615 O 0.71709 0.72482 0.25735 0.0
H616 H 0.91168 0.73143 0.26206 0.0
H617 H 0.77588 0.735 0.30688 0.0
O618 O 0.88521 0.70537 0.27043 0.0
H619 H 0.7275 0.69634 0.34701 0.0
H620 H 0.83391 0.75421 0.31157 0.0
Cu621 Cu 0.51907 0.58612 0.27975 0.0
N622 N 0.58209 0.59089 0.29597 0.0
N623 N 0.63763 0.60486 0.3098 0.0
C624 C 0.58828 0.60225 0.30134 0.0
C625 C 0.66413 0.59462 0.30966 0.0
C626 C 0.62964 0.58598 0.30113 0.0
O627 O 0.53534 0.58901 0.24421 0.0
C628 C 0.46825 0.59266 0.32111 0.0
O629 O 0.49873 0.58395 0.32807 0.0
H630 H 0.55761 0.60864 0.29756 0.0
H631 H 0.63935 0.57694 0.29789 0.0
N632 N 0.49556 0.57055 0.28377 0.0
N633 N 0.4375 0.55554 0.28476 0.0
C634 C 0.44505 0.56693 0.27913 0.0
C635 C 0.52114 0.56114 0.29272 0.0
C636 C 0.48563 0.5519 0.29329 0.0
C637 C 0.57059 0.58198 0.23591 0.0
O638 O 0.5867 0.57355 0.25074 0.0
H639 H 0.41409 0.5727 0.27238 0.0
H640 H 0.56246 0.56103 0.29869 0.0
O641 O 0.46685 0.59551 0.29793 0.0
H642 H 0.7057 0.59348 0.3147 0.0
H643 H 0.4949 0.54318 0.29952 0.0
Cu644 Cu 0.26675 0.46837 0.02089 0.0
N645 N 0.32632 0.46086 0.03532 0.0
N646 N 0.37461 0.44517 0.04622 0.0
C647 C 0.32995 0.44916 0.03486 0.0
C648 C 0.40046 0.45486 0.0541 0.0
C649 C 0.37051 0.46453 0.04742 0.0
O650 O 0.27829 0.46613 0.9845 0.0
C651 C 0.21443 0.46302 0.06326 0.0
O652 O 0.25695 0.46878 0.07074 0.0
H653 H 0.3002 0.44371 0.02593 0.0
H654 H 0.38021 0.47353 0.0512 0.0
N655 N 0.2559 0.48443 0.02628 0.0
N656 N 0.20788 0.50098 0.02856 0.0
C657 C 0.20786 0.48953 0.0226 0.0
C658 C 0.28788 0.49296 0.03494 0.0
C659 C 0.25845 0.50314 0.03635 0.0
C660 C 0.32305 0.47048 0.97752 0.0
O661 O 0.35132 0.4762 0.99427 0.0
H662 H 0.17311 0.48475 1.01622 0.0
H663 H 0.32938 0.49186 0.04006 0.0
O664 O 0.20721 0.46141 0.03969 0.0
H665 H 0.438 0.45499 0.06422 0.0
H666 H 0.27346 0.51149 0.04257 0.0
Cu667 Cu 0.58342 0.33851 1.0087 0.0
N668 N 0.52935 0.34522 0.02812 0.0
N669 N 0.48612 0.36091 0.0427 0.0
C670 C 0.51778 0.35654 0.02464 0.0
C671 C 0.47657 0.35181 0.05816 0.0
C672 C 0.50376 0.34215 0.04923 0.0
O673 O 0.55843 0.34157 0.97414 0.0
C674 C 0.65597 0.34222 0.04541 0.0
O675 O 0.62828 0.33328 0.05346 0.0
H676 H 0.53451 0.36159 1.00947 0.0
H677 H 0.50709 0.33375 0.05827 0.0
N678 N 0.59745 0.32237 1.01183 0.0
N679 N 0.64762 0.30611 1.01306 0.0
C680 C 0.64552 0.31754 1.00695 0.0
C681 C 0.56768 0.31367 0.02125 0.0
C682 C 0.59835 0.30365 0.02194 0.0
C683 C 0.51265 0.33687 0.9704 0.0
O684 O 0.49284 0.33045 0.9885 0.0
H685 H 0.67871 0.32249 0.99958 0.0
H686 H 0.52726 0.31462 0.02796 0.0
O687 O 0.64548 0.34637 0.02365 0.0
H688 H 0.45415 0.35225 0.07541 0.0
H689 H 0.58574 0.29534 0.02936 0.0
Cu690 Cu 0.25683 0.34229 0.76326 0.0
N691 N 0.32126 0.34864 0.75126 0.0
N692 N 0.37296 0.36414 0.74267 0.0
C693 C 0.32289 0.35984 0.74362 0.0
C694 C 0.40457 0.35524 0.75004 0.0
C695 C 0.37256 0.34569 0.75537 0.0
O696 O 0.26394 0.34504 0.79957 0.0
C697 C 0.21435 0.348 0.71916 0.0
O698 O 0.25479 0.34114 0.71412 0.0
H699 H 0.28745 0.3651 0.74129 0.0
H700 H 0.38549 0.33758 0.76364 0.0
N701 N 0.24051 0.32635 0.75788 0.0
N702 N 0.18774 0.31045 0.75526 0.0
C703 C 0.19137 0.32182 0.76184 0.0
C704 C 0.26932 0.31756 0.74833 0.0
C705 C 0.23707 0.30776 0.74682 0.0
C706 C 0.29437 0.33767 0.81057 0.0
O707 O 0.31133 0.32868 0.79777 0.0
H708 H 0.15877 0.32687 0.76934 0.0
H709 H 0.31047 0.31827 0.74245 0.0
O710 O 0.20353 0.35013 0.74214 0.0
H711 H 0.44736 0.35578 0.75273 0.0
H712 H 0.24885 0.2994 0.7394 0.0
Cu713 Cu 0.54272 0.47471 0.76013 0.0
N714 N 0.4843 0.46719 0.74512 0.0
N715 N 0.44224 0.45052 0.73495 0.0
C716 C 0.47209 0.45624 0.75215 0.0
C717 C 0.43494 0.45833 0.71627 0.0
C718 C 0.46132 0.46856 0.72249 0.0
O719 O 0.53141 0.47121 0.79611 0.0
C720 C 0.62531 0.47326 0.72332 0.0
O721 O 0.62627 0.48464 0.72487 0.0
H722 H 0.49002 0.45217 0.7684 0.0
H723 H 0.4674 0.47599 0.71039 0.0
N724 N 0.54691 0.49115 0.75703 0.0
N725 N 0.58412 0.50902 0.75832 0.0
C726 C 0.58781 0.49777 0.7657 0.0
C727 C 0.51542 0.49854 0.74419 0.0
C728 C 0.53812 0.50953 0.74501 0.0
C729 C 0.48615 0.475 0.80374 0.0
O730 O 0.45709 0.48107 0.78788 0.0
H731 H 0.62104 0.49422 0.77623 0.0
H732 H 0.47968 0.49603 0.73408 0.0
O733 O 0.60028 0.46747 0.74011 0.0
H734 H 0.41484 0.45661 0.69867 0.0
H735 H 0.5233 0.51716 0.73535 0.0
H736 H 0.18993 0.07115 0.07641 0.0
H737 H 0.284 0.10052 0.10131 0.0
H738 H 0.13701 0.07211 0.11408 0.0
H739 H 0.23012 0.1014 0.13993 0.0
H740 H 0.07904 0.10397 0.1947 0.0
H741 H 0.13088 0.10505 0.15549 0.0
H742 H 0.15563 0.06793 0.15859 0.0
H743 H 0.10465 0.06688 0.19705 0.0
C744 C 0.19962 0.07783 0.08999 0.0
C745 C 0.24175 0.08572 0.08575 0.0
C746 C 0.16904 0.07836 0.11173 0.0
C747 C 0.17919 0.08681 0.13013 0.0
C748 C 0.221 0.09483 0.12601 0.0
C749 C 0.25226 0.09425 0.10406 0.0
C750 C 0.09469 0.09605 0.1866 0.0
C751 C 0.08712 0.08531 0.19881 0.0
C752 C 0.12508 0.09668 0.16442 0.0
C753 C 0.1476 0.08657 0.15389 0.0
C754 C 0.13868 0.07588 0.16595 0.0
C755 C 0.10922 0.07527 0.18804 0.0
H756 H 0.1323 0.22763 0.22207 0.0
H757 H 0.28619 0.21612 0.19588 0.0
H758 H 0.09548 0.22559 0.18025 0.0
H759 H 0.24868 0.2139 0.15353 0.0
H760 H 0.18059 0.2268 0.07771 0.0
H761 H 0.21751 0.22602 0.11966 0.0
H762 H 0.068 0.21247 0.14721 0.0
H763 H 0.03024 0.21341 0.10464 0.0
C764 C 0.15848 0.22458 0.2074 0.0
C765 C 0.21266 0.22215 0.21251 0.0
C766 C 0.13693 0.22329 0.18329 0.0
C767 C 0.16874 0.21956 0.16327 0.0
C768 C 0.22287 0.21692 0.16837 0.0
C769 C 0.2445 0.21815 0.1927 0.0
C770 C 0.15523 0.2236 0.09258 0.0
C771 C 0.10196 0.22026 0.08761 0.0
C772 C 0.17689 0.22304 0.11678 0.0
C773 C 0.14612 0.21917 0.13707 0.0
C774 C 0.09296 0.21562 0.13214 0.0
C775 C 0.07122 0.2161 0.1077 0.0
H776 H 0.05928 0.98779 0.86754 0.0
H777 H 1.00735 0.95474 0.83731 0.0
H778 H 0.99401 0.986 0.90096 0.0
H779 H 0.9424 0.95292 0.87143 0.0
H780 H 0.87359 0.95618 0.95968 0.0
H781 H 0.93967 0.95375 0.92613 0.0
H782 H 0.88463 0.98548 0.89161 0.0
H783 H 0.81835 0.98782 0.92441 0.0
C784 C 0.03499 0.98 0.86831 0.0
C785 C 0.03837 0.97149 0.84945 0.0
C786 C 0.99741 0.97901 0.88746 0.0
C787 C 0.96273 0.96941 0.88854 0.0
C788 C 0.96866 0.96042 0.87096 0.0
C789 C 1.006 0.96147 0.85149 0.0
C790 C 0.87433 0.96241 0.94445 0.0
C791 C 0.84071 0.97224 0.94482 0.0
C792 C 0.91242 0.96105 0.92538 0.0
C793 C 0.91772 0.96954 0.90658 0.0
C794 C 0.88182 0.9789 0.90609 0.0
C795 C 0.84365 0.98019 0.92484 0.0
H796 H 0.77678 0.82306 0.86439 0.0
H797 H 0.77492 0.86028 0.85435 0.0
H798 H 0.83043 0.82524 0.90216 0.0
H799 H 0.83026 0.86253 0.89211 0.0
H800 H 0.90494 0.86317 0.9707 0.0
H801 H 0.8404 0.86103 0.93668 0.0
H802 H 0.91983 0.82961 0.91302 0.0
H803 H 0.98366 0.83163 0.94743 0.0
C804 C 0.78726 0.83176 0.87048 0.0
C805 C 0.77136 0.84149 0.85627 0.0
C806 C 0.81875 0.83301 0.89206 0.0
C807 C 0.83601 0.84404 0.90015 0.0
C808 C 0.81777 0.85387 0.88666 0.0
C809 C 0.78573 0.85261 0.86501 0.0
C810 C 0.90844 0.85572 0.9584 0.0
C811 C 0.94972 0.84755 0.962 0.0
C812 C 0.87148 0.85455 0.93867 0.0
C813 C 0.87447 0.84516 0.92184 0.0
C814 C 0.91534 0.83688 0.9257 0.0
C815 C 0.9523 0.83805 0.94547 0.0
H816 H 0.27173 0.60389 0.61226 0.0
H817 H 0.22931 0.56751 0.61113 0.0
H818 H 0.23092 0.60576 0.65391 0.0
H819 H 0.18809 0.56933 0.65182 0.0
H820 H 0.13704 0.57258 0.73071 0.0
H821 H 0.19812 0.5721 0.69536 0.0
H822 H 0.14161 0.60583 0.67146 0.0
H823 H 0.08168 0.60645 0.70735 0.0
C824 C 0.25488 0.59625 0.62112 0.0
C825 C 0.25378 0.58556 0.60836 0.0
C826 C 0.23085 0.59733 0.64485 0.0
C827 C 0.20577 0.58771 0.65636 0.0
C828 C 0.20742 0.57692 0.64396 0.0
C829 C 0.23093 0.57588 0.62041 0.0
C830 C 0.13805 0.57997 0.71812 0.0
C831 C 0.10387 0.58949 0.72182 0.0
C832 C 0.17302 0.57968 0.6977 0.0
C833 C 0.17455 0.58886 0.68018 0.0
C834 C 0.14209 0.59863 0.68456 0.0
C835 C 0.10732 0.59895 0.70512 0.0
H836 H 0.13007 0.71979 0.56433 0.0
H837 H 0.97223 0.71798 0.59612 0.0
H838 H 0.16925 0.72064 0.60603 0.0
H839 H 1.01181 0.71882 0.63836 0.0
H840 H 0.09853 0.7396 0.70148 0.0
H841 H 0.05712 0.73438 0.66201 0.0
H842 H 0.18678 0.71081 0.64661 0.0
H843 H 0.22896 0.71609 0.68685 0.0
C844 C 0.10361 0.71942 0.5803 0.0
C845 C 0.04781 0.71895 0.57681 0.0
C846 C 0.1263 0.71981 0.60431 0.0
C847 C 0.09393 0.71988 0.62569 0.0
C848 C 0.03805 0.7189 0.6223 0.0
C849 C 1.01525 0.71835 0.59812 0.0
C850 C 0.11856 0.73326 0.68985 0.0
C851 C 0.16772 0.72838 0.69738 0.0
C852 C 0.09417 0.73016 0.6672 0.0
C853 C 0.1182 0.72213 0.65102 0.0
C854 C 0.16714 0.71707 0.65857 0.0
C855 C 0.19139 0.72007 0.68162 0.0
H856 H 0.91221 0.4942 0.35034 0.0
H857 H 0.99333 0.46106 0.35111 0.0
H858 H 0.86751 0.48929 0.38902 0.0
H859 H 0.94819 0.45617 0.39066 0.0
H860 H 0.8987 0.45981 0.47604 0.0
H861 H 0.94401 0.46278 0.43614 0.0
H862 H 0.79728 0.47557 0.40371 0.0
H863 H 0.75169 0.47256 0.4437 0.0
C864 C 0.92092 0.48584 0.35879 0.0
C865 C 0.95666 0.47803 0.34736 0.0
C866 C 0.89466 0.483 0.38101 0.0
C867 C 0.90347 0.47227 0.39288 0.0
C868 C 0.94037 0.46452 0.38199 0.0
C869 C 0.96639 0.46732 0.35936 0.0
C870 C 0.87585 0.46319 0.46037 0.0
C871 C 0.82145 0.46603 0.46323 0.0
C872 C 0.9019 0.46481 0.43741 0.0
C873 C 0.87454 0.46946 0.41668 0.0
C874 C 0.81981 0.47207 0.41935 0.0
C875 C 0.79353 0.47031 0.44226 0.0
H876 H 0.76922 0.36105 0.36174 0.0
H877 H 0.84776 0.33919 0.30752 0.0
H878 H 0.84112 0.35774 0.39137 0.0
H879 H 0.9213 0.33609 0.33723 0.0
H880 H 0.99488 0.32044 0.41028 0.0
H881 H 0.93851 0.32589 0.3751 0.0
H882 H 0.93129 0.36109 0.40319 0.0
H883 H 0.98669 0.35546 0.43909 0.0
C884 C 0.80221 0.35562 0.35597 0.0
C885 C 0.80222 0.35031 0.33219 0.0
C886 C 0.84404 0.35382 0.373 0.0
C887 C 0.88755 0.34667 0.36688 0.0
C888 C 0.88829 0.34156 0.34282 0.0
C889 C 0.84617 0.34336 0.3257 0.0
C890 C 0.98223 0.32942 0.40875 0.0
C891 C 0.99502 0.33748 0.42773 0.0
C892 C 0.94991 0.33257 0.38838 0.0
C893 C 0.92931 0.34391 0.3863 0.0
C894 C 0.94533 0.35221 0.40437 0.0
C895 C 0.97779 0.34903 0.42483 0.0
H896 H 0.81894 0.07811 0.62973 0.0
H897 H 0.72389 0.10313 0.58906 0.0
H898 H 0.76546 0.08146 0.66718 0.0
H899 H 0.6699 0.10641 0.62658 0.0
H900 H 0.54444 0.09526 0.68696 0.0
H901 H 0.60342 0.09415 0.65067 0.0
H902 H 0.74079 0.09634 0.69955 0.0
H903 H 0.68188 0.09755 0.73587 0.0
C904 C 0.78734 0.08453 0.62894 0.0
C905 C 0.77607 0.09041 0.6064 0.0
C906 C 0.75659 0.08644 0.65043 0.0
C907 C 0.71298 0.09413 0.64989 0.0
C908 C 0.70283 0.10034 0.6276 0.0
C909 C 0.73425 0.09857 0.60618 0.0
C910 C 0.58721 0.09549 0.69002 0.0
C911 C 0.60826 0.09644 0.71445 0.0
C912 C 0.62106 0.09497 0.66915 0.0
C913 C 0.67696 0.09521 0.67212 0.0
C914 C 0.698 0.09608 0.69655 0.0
C915 C 0.66415 0.09679 0.71739 0.0
H916 H 0.65762 0.22562 0.55293 0.0
H917 H 0.5274 0.21176 0.59653 0.0
H918 H 0.71263 0.22687 0.5904 0.0
H919 H 0.583 0.21314 0.6345 0.0
H920 H 0.71537 0.20929 0.69542 0.0
H921 H 0.66529 0.20547 0.65647 0.0
H922 H 0.71495 0.23887 0.62769 0.0
H923 H 0.76442 0.24259 0.66619 0.0
C924 C 0.64051 0.22283 0.57054 0.0
C925 C 0.58762 0.21867 0.57158 0.0
C926 C 0.67226 0.22358 0.59214 0.0
C927 C 0.65244 0.22017 0.61564 0.0
C928 C 0.59986 0.21576 0.61673 0.0
C929 C 0.56777 0.21506 0.59498 0.0
C930 C 0.71682 0.21563 0.68041 0.0
C931 C 0.74461 0.22618 0.68376 0.0
C932 C 0.68737 0.21354 0.65826 0.0
C933 C 0.68575 0.22187 0.63885 0.0
C934 C 0.71552 0.23218 0.64197 0.0
C935 C 0.74412 0.23431 0.66409 0.0
H936 H 0.28334 0.96287 0.4343 0.0
H937 H 0.4279 0.9761 0.46845 0.0
H938 H 0.33091 0.96071 0.39445 0.0
H939 H 0.4747 0.97404 0.42906 0.0
H940 H 0.55717 0.9621 0.35756 0.0
H941 H 0.51013 0.96037 0.39775 0.0
H942 H 0.36736 0.97423 0.3634 0.0
H943 H 0.41346 0.97589 0.32383 0.0
C944 C 0.32515 0.96525 0.43338 0.0
C945 C 0.35146 0.96978 0.45454 0.0
C946 C 0.35246 0.96403 0.41057 0.0
C947 C 0.40678 0.96721 0.40851 0.0
C948 C 0.43325 0.97137 0.42994 0.0
C949 C 0.406 0.97267 0.45253 0.0
C950 C 0.51569 0.96469 0.35864 0.0
C951 C 0.48945 0.96925 0.3375 0.0
C952 C 0.4887 0.96372 0.38163 0.0
C953 C 0.43477 0.96715 0.38383 0.0
C954 C 0.40846 0.97136 0.36243 0.0
C955 C 0.43536 0.97243 0.33971 0.0
H956 H 0.51694 0.84955 0.44355 0.0
H957 H 0.38289 0.82974 0.47117 0.0
H958 H 0.47127 0.85163 0.403 0.0
H959 H 0.33805 0.83169 0.43103 0.0
H960 H 0.25063 0.84318 0.36033 0.0
H961 H 0.29348 0.84478 0.40177 0.0
H962 H 0.44758 0.83932 0.36787 0.0
H963 H 0.40542 0.83789 0.32706 0.0
C964 C 0.47785 0.84567 0.44105 0.0
C965 C 0.45404 0.8394 0.46068 0.0
C966 C 0.45158 0.84684 0.41778 0.0
C967 C 0.40067 0.84184 0.41362 0.0
C968 C 0.37664 0.83581 0.43349 0.0
C969 C 0.40289 0.83459 0.45656 0.0
C970 C 0.29365 0.84249 0.36178 0.0
C971 C 0.32434 0.84029 0.34033 0.0
C972 C 0.31831 0.84333 0.38553 0.0
C973 C 0.37423 0.84214 0.3883 0.0
C974 C 0.40472 0.84042 0.36663 0.0
C975 C 0.38022 0.83948 0.34313 0.0
H976 H 0.78568 0.60108 0.1116 0.0
H977 H 0.70462 0.56946 0.08972 0.0
H978 H 0.73382 0.60131 0.15087 0.0
H979 H 0.65348 0.56979 0.12799 0.0
H980 H 0.62186 0.56515 0.21036 0.0
H981 H 0.67399 0.56675 0.17246 0.0
H982 H 0.6344 0.60319 0.1669 0.0
H983 H 0.58168 0.6016 0.20574 0.0
C984 C 0.75738 0.59416 0.11522 0.0
C985 C 0.74972 0.58521 0.09754 0.0
C986 C 0.72719 0.59437 0.13751 0.0
C987 C 0.68943 0.58555 0.14261 0.0
C988 C 0.68243 0.57665 0.12491 0.0
C989 C 0.71192 0.57648 0.10283 0.0
C990 C 0.62371 0.57353 0.2011 0.0
C991 C 0.59706 0.58323 0.21109 0.0
C992 C 0.65377 0.57444 0.17926 0.0
C993 C 0.65851 0.58509 0.16654 0.0
C994 C 0.63189 0.59487 0.17636 0.0
C995 C 0.6011 0.59393 0.19837 0.0
H996 H 0.75459 0.70742 0.1936 0.0
H997 H 0.64853 0.73267 0.22645 0.0
H998 H 0.70322 0.70838 0.1543 0.0
H999 H 0.59785 0.73363 0.18748 0.0
H1000 H 0.57418 0.74394 0.10388 0.0
H1001 H 0.61563 0.74128 0.14487 0.0
H1002 H 0.61082 0.70405 0.13477 0.0
H1003 H 0.56827 0.70678 0.09345 0.0
C1004 C 0.7204 0.71316 0.19251 0.0
C1005 C 0.70611 0.72002 0.21327 0.0
C1006 C 0.69064 0.71363 0.17003 0.0
C1007 C 0.64629 0.7211 0.16764 0.0
C1008 C 0.6319 0.72785 0.1885 0.0
C1009 C 0.66109 0.72728 0.21094 0.0
C1010 C 0.58062 0.73517 0.11065 0.0
C1011 C 0.56711 0.72558 0.09554 0.0
C1012 C 0.6046 0.73363 0.13418 0.0
C1013 C 0.61693 0.72245 0.1432 0.0
C1014 C 0.60224 0.71279 0.12836 0.0
C1015 C 0.57711 0.71433 0.10486 0.0
H1016 H 0.38461 0.47903 0.81915 0.0
H1017 H 0.53474 0.46529 0.84593 0.0
H1018 H 0.34547 0.47623 0.86007 0.0
H1019 H 0.49476 0.46231 0.88743 0.0
H1020 H 0.42542 0.47458 0.96351 0.0
H1021 H 0.46457 0.47401 0.92216 0.0
H1022 H 0.31376 0.4626 0.89118 0.0
H1023 H 0.27381 0.46333 0.93315 0.0
C1024 C 0.40946 0.47532 0.83375 0.0
C1025 C 0.46333 0.47251 0.8291 0.0
C1026 C 0.38651 0.47359 0.85732 0.0
C1027 C 0.41656 0.46902 0.87729 0.0
C1028 C 0.47032 0.46596 0.87262 0.0
C1029 C 0.49334 0.46763 0.84879 0.0
C1030 C 0.40027 0.47188 0.94799 0.0
C1031 C 0.34599 0.46912 0.95181 0.0
C1032 C 0.42319 0.47144 0.92415 0.0
C1033 C 0.39268 0.46828 0.90308 0.0
C1034 C 0.33855 0.46521 0.90688 0.0
C1035 C 0.31555 0.46556 0.93097 0.0
H1036 H 0.33392 0.35769 0.8327 0.0
H1037 H 0.30926 0.32103 0.8453 0.0
H1038 H 0.38748 0.3588 0.87159 0.0
H1039 H 0.36189 0.32207 0.88358 0.0
H1040 H 0.41265 0.32868 0.96217 0.0
H1041 H 0.35655 0.33052 0.92552 0.0
H1042 H 0.47839 0.3508 0.88881 0.0
H1043 H 0.53573 0.34909 0.9264 0.0
C1044 C 0.33858 0.34997 0.84414 0.0
C1045 C 0.31649 0.33931 0.83621 0.0
C1046 C 0.37002 0.35055 0.86613 0.0
C1047 C 0.37916 0.34052 0.88075 0.0
C1048 C 0.35539 0.33 0.87305 0.0
C1049 C 0.32491 0.3294 0.85111 0.0
C1050 C 0.42809 0.33358 0.94644 0.0
C1051 C 0.47946 0.3386 0.9473 0.0
C1052 C 0.39554 0.33462 0.92529 0.0
C1053 C 0.41293 0.3407 0.90403 0.0
C1054 C 0.46363 0.34609 0.90493 0.0
C1055 C 0.49667 0.34503 0.92637 0.0
H1056 H 0.41351 0.03459 0.99155 0.0
H1057 H 0.48923 0.05865 0.04284 0.0
H1058 H 0.49278 1.02228 0.99307 0.0
H1059 H 0.56817 0.04647 0.04398 0.0
H1060 H 0.7224 1.02919 1.01814 0.0
H1061 H 0.64155 0.04074 1.01684 0.0
H1062 H 0.54635 1.00948 0.02073 0.0
H1063 H 0.62746 0.9978 0.02237 0.0
C1064 C 0.44661 0.03727 1.00329 0.0
C1065 C 0.44441 0.04779 1.01687 0.0
C1066 C 0.49229 1.03017 1.00415 0.0
C1067 C 0.53735 0.03339 1.01848 0.0
C1068 C 0.53484 0.04379 0.03232 0.0
C1069 C 0.48919 0.05083 0.03161 0.0
C1070 C 0.68456 1.02468 1.01899 0.0
C1071 C 0.68238 1.01243 0.02057 0.0
C1072 C 0.63783 1.03137 1.01822 0.0
C1073 C 0.58709 1.0261 1.01883 0.0
C1074 C 0.58461 1.01387 0.02 0.0
C1075 C 0.63147 1.00715 0.02095 0.0
H1076 H 0.64762 0.28238 1.01219 0.0
H1077 H 0.75321 0.31212 1.01135 0.0
H1078 H 0.72451 0.26945 1.01095 0.0
H1079 H 0.82999 0.29919 1.01011 0.0
H1080 H 0.95517 0.27258 0.98398 0.0
H1081 H 0.87857 0.28564 0.98456 0.0
H1082 H 0.79789 0.26253 0.03576 0.0
H1083 H 0.87419 0.24951 0.0352 0.0
C1084 C 0.68711 0.2862 1.0119 0.0
C1085 C 0.69359 0.29838 1.01187 0.0
C1086 C 0.73148 0.27875 1.01121 0.0
C1087 C 0.78394 0.2832 1.01047 0.0
C1088 C 0.79043 0.29538 1.01028 0.0
C1089 C 0.74607 0.30284 1.01099 0.0
C1090 C 0.92139 0.2703 0.99554 0.0
C1091 C 0.92138 0.25987 1.00944 0.0
C1092 C 0.8772 0.27783 0.99588 0.0
C1093 C 0.83148 0.27519 1.01013 0.0
C1094 C 0.83167 0.26481 0.02415 0.0
C1095 C 0.87579 0.25729 0.02383 0.0
H1096 H 0.39139 0.26367 0.25373 0.0
H1097 H 0.33294 0.27533 0.32536 0.0
H1098 H 0.45075 0.28061 0.25188 0.0
H1099 H 0.39194 0.29202 0.32366 0.0
H1100 H 0.46172 0.3269 0.30482 0.0
H1101 H 0.40345 0.31002 0.30323 0.0
H1102 H 0.52955 0.28997 0.26935 0.0
H1103 H 0.58808 0.30712 0.27068 0.0
C1104 C 0.39119 0.26979 0.26913 0.0
C1105 C 0.35651 0.26809 0.28956 0.0
C1106 C 0.42546 0.27952 0.26811 0.0
C1107 C 0.42613 0.28786 0.28749 0.0
C1108 C 0.39191 0.28604 0.308 0.0
C1109 C 0.35774 0.27638 0.30899 0.0
C1110 C 0.47731 0.3189 0.2971 0.0
C1111 C 0.53009 0.31839 0.28822 0.0
C1112 C 0.44374 0.30915 0.29623 0.0
C1113 C 0.46168 0.29845 0.28658 0.0
C1114 C 0.51398 0.29802 0.27685 0.0
C1115 C 0.54769 0.30787 0.27762 0.0
H1116 H 0.65153 1.02108 0.2383 0.0
H1117 H 0.72624 0.99844 0.29263 0.0
H1118 H 0.72707 0.03438 0.24133 0.0
H1119 H 0.80165 1.01175 0.29569 0.0
H1120 H 0.95365 0.03238 0.27731 0.0
H1121 H 0.87817 1.01906 0.27408 0.0
H1122 H 0.77076 0.04825 0.26785 0.0
H1123 H 0.84612 0.06156 0.27101 0.0
C1124 C 0.68369 1.01893 0.25107 0.0
C1125 C 0.68216 1.00856 0.26517 0.0
C1126 C 0.72731 1.02662 0.25284 0.0
C1127 C 0.77103 1.02423 0.26876 0.0
C1128 C 0.76946 1.01387 0.28288 0.0
C1129 C 0.72585 1.00618 0.28112 0.0
C1130 C 0.91401 0.03601 0.27543 0.0
C1131 C 0.90664 0.04816 0.27441 0.0
C1132 C 0.87042 1.02832 0.2736 0.0
C1133 C 0.81783 0.03248 0.27067 0.0
C1134 C 0.81047 0.04463 0.26964 0.0
C1135 C 0.85404 0.05232 0.27148 0.0
H1136 H 0.46933 0.77239 0.96765 0.0
H1137 H 0.4121 0.76356 0.04124 0.0
H1138 H 0.40457 0.78801 0.96482 0.0
H1139 H 0.34827 0.77963 0.03913 0.0
H1140 H 0.20581 0.80349 1.01822 0.0
H1141 H 0.26977 0.78752 0.02306 0.0
H1142 H 0.38246 0.80634 0.9771 0.0
H1143 H 0.31754 0.8218 0.97144 0.0
C1144 C 0.4434 0.77392 0.98346 0.0
C1145 C 0.44641 0.76672 1.00474 0.0
C1146 C 0.40609 0.78299 0.98195 0.0
C1147 C 0.37088 0.78538 1.00187 0.0
C1148 C 0.37383 0.77811 0.02318 0.0
C1149 C 0.41074 0.76888 0.0245 0.0
C1150 C 0.24447 0.80419 1.00935 0.0
C1151 C 0.25631 0.81388 0.99424 0.0
C1152 C 0.28145 0.79503 1.01213 0.0
C1153 C 0.33172 0.79538 1.00018 0.0
C1154 C 0.34395 0.80539 0.98598 0.0
C1155 C 0.30677 0.81438 0.98287 0.0
H1156 H 0.5461 0.81676 0.79715 0.0
H1157 H 0.62643 0.79178 0.75017 0.0
H1158 H 0.46624 0.80469 0.79655 0.0
H1159 H 0.54649 0.7797 0.74973 0.0
H1160 H 0.41058 0.75529 0.77512 0.0
H1161 H 0.491 0.76724 0.77535 0.0
H1162 H 0.39448 0.79819 0.76964 0.0
H1163 H 0.31409 0.78629 0.76928 0.0
C1164 C 0.54695 0.80876 0.7865 0.0
C1165 C 0.59348 0.80538 0.77366 0.0
C1166 C 0.50076 0.8018 0.78616 0.0
C1167 C 0.49939 0.79116 0.77305 0.0
C1168 C 0.54594 0.78773 0.76034 0.0
C1169 C 0.59211 0.79472 0.7606 0.0
C1170 C 0.40617 0.76462 0.77366 0.0
C1171 C 0.35504 0.76972 0.77224 0.0
C1172 C 0.45266 0.77152 0.7738 0.0
C1173 C 0.4497 0.78375 0.7726 0.0
C1174 C 0.39867 0.78884 0.77105 0.0
C1175 C 0.35223 0.78195 0.77082 0.0
H1176 H 0.09282 1.02824 0.79877 0.0
H1177 H 0.1727 1.00863 0.74124 0.0
H1178 H 0.15714 0.04408 0.79363 0.0
H1179 H 0.23739 1.02441 0.73626 0.0
H1180 H 0.29876 0.06088 0.71301 0.0
H1181 H 0.23939 0.0444 0.72 0.0
H1182 H 0.25277 0.04954 0.79986 0.0
H1183 H 0.31238 0.06622 0.79273 0.0
C1184 C 0.12402 1.02728 0.78499 0.0
C1185 C 0.12711 1.0171 0.77034 0.0
C1186 C 0.16139 0.03635 0.78222 0.0
C1187 C 0.20271 0.0356 0.76449 0.0
C1188 C 0.20599 1.02539 0.74996 0.0
C1189 C 0.16902 1.01626 0.75294 0.0
C1190 C 0.28915 0.05853 0.7321 0.0
C1191 C 0.3103 0.06499 0.75229 0.0
C1192 C 0.25533 0.04897 0.73613 0.0
C1193 C 0.24092 0.04557 0.76051 0.0
C1194 C 0.26251 0.05193 0.7808 0.0
C1195 C 0.2971 0.06145 0.77675 0.0
H1196 H 0.55566 0.49345 0.51719 0.0
H1197 H 0.64908 0.51702 0.56279 0.0
H1198 H 0.48649 0.50808 0.51308 0.0
H1199 H 0.57852 0.53148 0.55962 0.0
H1200 H 0.46475 0.5594 0.52881 0.0
H1201 H 0.53551 0.54497 0.53253 0.0
H1202 H 0.41718 0.51761 0.53478 0.0
H1203 H 0.34661 0.53203 0.53077 0.0
C1204 C 0.56184 0.50173 0.52636 0.0
C1205 C 0.60877 0.50393 0.54031 0.0
C1206 C 0.52144 0.51014 0.52425 0.0
C1207 C 0.52628 0.52106 0.53607 0.0
C1208 C 0.57322 0.52328 0.54996 0.0
C1209 C 0.61374 0.51487 0.55203 0.0
C1210 C 0.45365 0.55032 0.53028 0.0
C1211 C 0.39951 0.54697 0.52941 0.0
C1212 C 0.49447 0.54199 0.53247 0.0
C1213 C 0.48259 0.53002 0.53393 0.0
C1214 C 0.42838 0.52668 0.53322 0.0
C1215 C 0.38761 0.535 0.53095 0.0
H1216 H 0.71402 0.81329 0.51709 0.0
H1217 H 0.60902 0.7845 0.53346 0.0
H1218 H 0.78746 0.79976 0.51053 0.0
H1219 H 0.68212 0.77095 0.52661 0.0
H1220 H 0.83446 0.75003 0.53683 0.0
H1221 H 0.76328 0.76386 0.54374 0.0
H1222 H 0.82337 0.78532 0.48377 0.0
H1223 H 0.89565 0.77171 0.4772 0.0
C1224 C 0.70626 0.80407 0.519 0.0
C1225 C 0.65518 0.80006 0.52587 0.0
C1226 C 0.74861 0.79626 0.51521 0.0
C1227 C 0.74132 0.78416 0.51808 0.0
C1228 C 0.69002 0.78017 0.5247 0.0
C1229 C 0.64777 0.78798 0.52857 0.0
C1230 C 0.83317 0.75766 0.52502 0.0
C1231 C 0.8717 0.75949 0.50619 0.0
C1232 C 0.79156 0.76563 0.52894 0.0
C1233 C 0.78673 0.77576 0.51423 0.0
C1234 C 0.82562 0.77772 0.49571 0.0
C1235 C 0.8673 0.76976 0.49179 0.0
H1236 H 0.8616 0.55125 0.73042 0.0
H1237 H 0.77581 0.57275 0.78257 0.0
H1238 H 0.79475 0.53597 0.7348 0.0
H1239 H 0.70798 0.55733 0.78707 0.0
H1240 H 0.56813 0.53247 0.75904 0.0
H1241 H 0.63618 0.54781 0.76038 0.0
H1242 H 0.75938 0.5217 0.76494 0.0
H1243 H 0.6917 0.50644 0.76331 0.0
C1244 C 0.82848 0.55268 0.74299 0.0
C1245 C 0.82404 0.56326 0.75607 0.0
C1246 C 0.7902 0.54386 0.74565 0.0
C1247 C 0.74568 0.54536 0.76127 0.0
C1248 C 0.7415 0.55589 0.77474 0.0
C1249 C 0.78055 0.56469 0.77236 0.0
C1250 C 0.60971 0.53 0.76043 0.0
C1251 C 0.62412 0.51815 0.76099 0.0
C1252 C 0.64879 0.53881 0.76143 0.0
C1253 C 0.70351 0.53604 0.76268 0.0
C1254 C 0.71777 0.5242 0.76377 0.0
C1255 C 0.67876 0.51541 0.76306 0.0
H1256 H 0.09235 0.27845 0.49467 0.0
H1257 H 0.20168 0.30653 0.51123 0.0
H1258 H 0.16674 0.26493 0.49296 0.0
H1259 H 0.27627 0.29296 0.50955 0.0
H1260 H 0.40319 0.26724 0.48089 0.0
H1261 H 0.32936 0.28103 0.48226 0.0
H1262 H 0.23121 0.25516 0.51849 0.0
H1263 H 0.30417 0.24128 0.5163 0.0
C1264 C 0.1321 0.28178 0.49818 0.0
C1265 C 0.14038 0.29369 0.5032 0.0
C1266 C 0.17508 0.27396 0.49722 0.0
C1267 C 0.22797 0.27775 0.50122 0.0
C1268 C 0.23638 0.28968 0.50603 0.0
C1269 C 0.19333 0.29751 0.50702 0.0
C1270 C 0.36583 0.26444 0.48902 0.0
C1271 C 0.36017 0.25305 0.49846 0.0
C1272 C 0.32343 0.27243 0.49005 0.0
C1273 C 0.27383 0.26929 0.50046 0.0
C1274 C 0.26832 0.25792 0.51002 0.0
C1275 C 0.31071 0.24995 0.50905 0.0
H1276 H 0.19565 0.5007 0.27407 0.0
H1277 H 0.10539 0.53267 0.2727 0.0
H1278 H 0.27818 0.51183 0.27744 0.0
H1279 H 0.18794 0.54378 0.27603 0.0
H1280 H 0.34911 0.56048 0.25648 0.0
H1281 H 0.26671 0.5493 0.25329 0.0
H1282 H 0.33027 0.52396 0.30507 0.0
H1283 H 0.41266 0.53512 0.30832 0.0
C1284 C 0.19305 0.51008 0.27471 0.0
C1285 C 0.14313 0.51569 0.27306 0.0
C1286 C 0.24073 0.51651 0.27666 0.0
C1287 C 0.24023 0.52877 0.27698 0.0
C1288 C 0.19035 0.53438 0.27541 0.0
C1289 C 0.14268 0.52796 0.27352 0.0
C1290 C 0.34564 0.55259 0.26739 0.0
C1291 C 0.38826 0.54881 0.2827 0.0
C1292 C 0.29803 0.54614 0.26556 0.0
C1293 C 0.29132 0.53566 0.27892 0.0
C1294 C 0.33393 0.53186 0.29416 0.0
C1295 C 0.38151 0.53832 0.29604 0.0
H1296 H 0.08927 0.99577 0.53684 0.0
H1297 H 0.19029 1.02533 0.52127 0.0
H1298 H 1.01148 1.00842 0.53738 0.0
H1299 H 0.11236 0.03801 0.52145 0.0
H1300 H 0.96791 0.05951 0.54645 0.0
H1301 H 0.04627 0.04696 0.54648 0.0
H1302 H 0.9531 1.01956 0.51218 0.0
H1303 H 0.87479 0.03205 0.5125 0.0
C1304 C 0.09499 1.00496 0.53325 0.0
C1305 C 0.1465 1.00945 0.52892 0.0
C1306 C 0.05008 1.01226 0.53352 0.0
C1307 C 0.05499 1.02434 0.52937 0.0
C1308 C 0.10661 1.02883 0.52513 0.0
C1309 C 0.15158 1.02152 0.52497 0.0
C1310 C 0.9641 0.05084 0.53875 0.0
C1311 C 0.91452 0.04686 0.52952 0.0
C1312 C 1.00932 0.0436 0.53872 0.0
C1313 C 1.00661 0.03214 0.52937 0.0
C1314 C 0.95701 1.0282 0.52002 0.0
C1315 C 0.91179 0.03542 0.52015 0.0
H1316 H 0.876 0.2799 0.78718 0.0
H1317 H 0.94954 0.2548 0.7382 0.0
H1318 H 0.95543 0.29201 0.78502 0.0
H1319 H 0.02925 0.267 0.73591 0.0
H1320 H 0.18439 0.28669 0.7562 0.0
H1321 H 0.10565 0.2742 0.75825 0.0
H1322 H 1.00459 0.30458 0.75841 0.0
H1323 H 0.08306 0.31702 0.7565 0.0
C1324 C 0.90879 0.27697 0.77571 0.0
C1325 C 0.90559 0.26629 0.76278 0.0
C1326 C 0.95471 0.28398 0.77444 0.0
C1327 C 0.99927 0.28061 0.76016 0.0
C1328 C 0.99632 0.26989 0.74738 0.0
C1329 C 0.9503 0.26285 0.74867 0.0
C1330 C 0.14545 0.29074 0.75651 0.0
C1331 C 0.14073 0.30296 0.7563 0.0
C1332 C 0.09999 0.28353 0.75765 0.0
C1333 C 0.04818 0.28829 0.75862 0.0
C1334 C 0.04353 0.30051 0.75822 0.0
C1335 C 0.08891 0.3077 0.7571 0.0
H1336 H 0.19676 0.78152 0.28143 0.0
H1337 H 0.08214 0.80797 0.26154 0.0
H1338 H 0.12468 0.7673 0.28508 0.0
H1339 H 1.01026 0.7938 0.2648 0.0
H1340 H 0.88676 0.76897 0.29705 0.0
H1341 H 0.95954 0.78283 0.29351 0.0
H1342 H 0.06046 0.75596 0.26308 0.0
H1343 H 0.98842 0.74193 0.26777 0.0
C1344 C 0.15628 0.7843 0.27759 0.0
C1345 C 0.14557 0.79597 0.27134 0.0
C1346 C 0.11473 0.77611 0.27964 0.0
C1347 C 0.06111 0.77932 0.27537 0.0
C1348 C 0.05062 0.79097 0.2688 0.0
C1349 C 0.09209 0.79916 0.26688 0.0
C1350 C 0.92446 0.76592 0.28982 0.0
C1351 C 0.93104 0.75419 0.28278 0.0
C1352 C 0.96635 0.77397 0.28747 0.0
C1353 C 1.01635 0.77063 0.2779 0.0
C1354 C 0.02298 0.75891 0.27081 0.0
C1355 C 0.9811 0.75084 0.27322 0.0
H1356 H 0.11669 0.49889 1.00062 0.0
H1357 H 0.19598 0.52153 0.05358 0.0
H1358 H 0.04138 0.51221 0.99876 0.0
H1359 H 0.1205 0.53484 0.05178 0.0
H1360 H 1.00027 0.56203 0.02408 0.0
H1361 H 0.07538 0.54868 0.02588 0.0
H1362 H 0.96662 0.51955 0.02152 0.0
H1363 H 0.89131 0.53295 1.01964 0.0
C1364 C 0.11811 0.50664 1.01208 0.0
C1365 C 0.16301 0.50902 0.0273 0.0
C1366 C 0.07456 0.51433 1.01103 0.0
C1367 C 0.07429 0.52469 0.02512 0.0
C1368 C 0.11923 0.52708 0.0403 0.0
C1369 C 0.16281 0.5194 0.04136 0.0
C1370 C 0.99204 0.55279 0.02376 0.0
C1371 C 0.93912 0.54866 0.02184 0.0
C1372 C 0.03545 0.54508 0.0248 0.0
C1373 C 0.0276 0.53294 0.02394 0.0
C1374 C 0.97469 0.5288 0.02189 0.0
C1375 C 0.93122 0.53653 0.02084 0.0
H1376 H 0.47622 0.07751 0.96329 0.0
H1377 H 0.41569 0.11254 0.96143 0.0
H1378 H 0.51484 0.08016 0.92177 0.0
H1379 H 0.45389 0.11526 0.9197 0.0
H1380 H 0.54027 0.1175 0.84512 0.0
H1381 H 0.53082 0.11586 0.89045 0.0
H1382 H 0.46667 0.08122 0.88148 0.0
H1383 H 0.47611 0.08282 0.83613 0.0
C1384 C 0.47371 0.086 0.95451 0.0
C1385 C 0.44395 0.09491 0.96579 0.0
C1386 C 0.49487 0.08745 0.9305 0.0
C1387 C 0.48652 0.09783 0.91713 0.0
C1388 C 0.46131 0.10716 0.92947 0.0
C1389 C 0.43998 0.10568 0.95355 0.0
C1390 C 0.52485 0.10944 0.85279 0.0
C1391 C 0.50877 0.10029 0.83686 0.0
C1392 C 0.51923 0.10855 0.87883 0.0
C1393 C 0.49798 0.09843 0.8897 0.0
C1394 C 0.48388 0.08909 0.87383 0.0
C1395 C 0.48903 0.09003 0.84776 0.0
H1396 H 0.87317 0.22235 0.96555 0.0
H1397 H 0.99269 0.199 0.93725 0.0
H1398 H 0.82795 0.22207 0.92494 0.0
H1399 H 0.94683 0.19825 0.89682 0.0
H1400 H 0.90192 0.21524 0.82031 0.0
H1401 H 0.93779 0.21064 0.86191 0.0
H1402 H 0.77909 0.21309 0.89292 0.0
H1403 H 0.74426 0.21812 0.85177 0.0
C1404 C 0.88804 0.21664 0.95103 0.0
C1405 C 0.93569 0.21049 0.95474 0.0
C1406 C 0.86247 0.21654 0.92753 0.0
C1407 C 0.88397 0.21025 0.90718 0.0
C1408 C 0.92953 0.2034 0.91168 0.0
C1409 C 0.95526 0.20361 0.93506 0.0
C1410 C 0.87474 0.21456 0.83596 0.0
C1411 C 0.8204 0.21715 0.83275 0.0
C1412 C 0.89517 0.2119 0.85992 0.0
C1413 C 0.86155 0.21163 0.88114 0.0
C1414 C 0.80665 0.21351 0.87739 0.0
C1415 C 0.78654 0.21631 0.85364 0.0
H1416 H 0.36663 0.22161 0.4742 0.0
H1417 H 0.40797 0.18572 0.46264 0.0
H1418 H 0.37989 0.22561 0.42981 0.0
H1419 H 0.41859 0.18949 0.41756 0.0
H1420 H 0.44379 0.23166 0.35256 0.0
H1421 H 0.45058 0.226 0.39641 0.0
H1422 H 0.35679 0.19526 0.38118 0.0
H1423 H 0.34939 0.20099 0.33704 0.0
C1424 C 0.38108 0.21471 0.46235 0.0
C1425 C 0.38943 0.20355 0.4722 0.0
C1426 C 0.38768 0.21691 0.43673 0.0
C1427 C 0.40092 0.2079 0.42004 0.0
C1428 C 0.40856 0.19664 0.42985 0.0
C1429 C 0.40281 0.1945 0.45565 0.0
C1430 C 0.42542 0.22356 0.35833 0.0
C1431 C 0.39571 0.21684 0.34112 0.0
C1432 C 0.42909 0.22035 0.3836 0.0
C1433 C 0.40361 0.21027 0.39246 0.0
C1434 C 0.37706 0.20308 0.37499 0.0
C1435 C 0.37296 0.20634 0.34962 0.0
H1436 H 0.80479 0.07671 0.43684 0.0
H1437 H 0.88099 0.10751 0.46669 0.0
H1438 H 0.83037 0.08218 0.39507 0.0
H1439 H 0.90631 0.11323 0.42394 0.0
H1440 H 1.00738 0.106 0.35084 0.0
H1441 H 0.96677 0.10713 0.39199 0.0
H1442 H 0.81765 0.09482 0.36055 0.0
H1443 H 0.85968 0.0933 0.31932 0.0
C1444 C 0.82671 0.08477 0.43451 0.0
C1445 C 0.84106 0.09163 0.45532 0.0
C1446 C 0.8408 0.08801 0.41027 0.0
C1447 C 0.86973 0.09827 0.40582 0.0
C1448 C 0.884 0.10525 0.42661 0.0
C1449 C 0.86975 0.10197 0.45113 0.0
C1450 C 0.96522 0.10401 0.35256 0.0
C1451 C 0.93666 0.09953 0.33195 0.0
C1452 C 0.94186 0.10464 0.37624 0.0
C1453 C 0.88925 0.10077 0.37989 0.0
C1454 C 0.85877 0.09759 0.35858 0.0
C1455 C 0.88238 0.09692 0.3348 0.0
H1456 H 0.82129 0.97914 0.11497 0.0
H1457 H 0.73544 0.95114 0.07875 0.0
H1458 H 0.78945 0.97279 0.15522 0.0
H1459 H 0.70477 0.94435 0.11976 0.0
H1460 H 0.59283 0.95156 0.18789 0.0
H1461 H 0.64231 0.95045 0.14919 0.0
H1462 H 0.78683 0.9599 0.18904 0.0
H1463 H 0.73562 0.96154 0.22791 0.0
C1464 C 0.79619 0.97146 0.11561 0.0
C1465 C 0.78023 0.96577 0.09347 0.0
C1466 C 0.77845 0.96768 0.13895 0.0
C1467 C 0.74443 0.958 0.14105 0.0
C1468 C 0.73034 0.95194 0.11895 0.0
C1469 C 0.74787 0.95581 0.0954 0.0
C1470 C 0.63563 0.95298 0.18854 0.0
C1471 C 0.66036 0.95676 0.21078 0.0
C1472 C 0.66423 0.95231 0.16625 0.0
C1473 C 0.71852 0.9554 0.16564 0.0
C1474 C 0.74468 0.9578 0.18862 0.0
C1475 C 0.71571 0.95853 0.21104 0.0
H1476 H 0.98164 0.84691 0.09476 0.0
H1477 H 0.15112 0.84588 0.08045 0.0
H1478 H 0.99988 0.84769 0.14002 0.0
H1479 H 0.16904 0.84691 0.12532 0.0
H1480 H 0.19062 0.85918 0.20378 0.0
H1481 H 0.15571 0.86177 0.16122 0.0
H1482 H 0.04503 0.83351 0.17301 0.0
H1483 H 0.08084 0.83083 0.21546 0.0
C1484 C 0.0227 0.84687 0.10122 0.0
C1485 C 0.06489 0.84627 0.08392 0.0
C1486 C 0.03309 0.84733 0.12713 0.0
C1487 C 0.0859 0.84752 0.13624 0.0
C1488 C 0.12792 0.84697 0.11891 0.0
C1489 C 0.11759 0.84626 0.09316 0.0
C1490 C 0.15687 0.85396 0.19774 0.0
C1491 C 0.1374 0.84503 0.21317 0.0
C1492 C 0.13752 0.85529 0.17322 0.0
C1493 C 0.09804 0.84775 0.16365 0.0
C1494 C 0.07518 0.8395 0.17987 0.0
C1495 C 0.0952 0.83806 0.20429 0.0
H1496 H 0.7241 0.86545 0.71146 0.0
H1497 H 0.57589 0.8464 0.71264 0.0
H1498 H 0.71359 0.86868 0.66643 0.0
H1499 H 0.5645 0.84986 0.66759 0.0
H1500 H 0.71689 0.84589 0.59055 0.0
H1501 H 0.71928 0.85105 0.63491 0.0
H1502 H 0.56019 0.86513 0.62898 0.0
H1503 H 0.55874 0.86043 0.58413 0.0
C1504 C 0.68755 0.86259 0.70238 0.0
C1505 C 0.65018 0.85591 0.71571 0.0
C1506 C 0.68195 0.86429 0.6765 0.0
C1507 C 0.63847 0.85944 0.6634 0.0
C1508 C 0.59819 0.8538 0.67718 0.0
C1509 C 0.60432 0.85193 0.70307 0.0
C1510 C 0.68319 0.85048 0.59846 0.0
C1511 C 0.6377 0.85274 0.58375 0.0
C1512 C 0.68448 0.85342 0.62392 0.0
C1513 C 0.63979 0.85845 0.63551 0.0
C1514 C 0.59518 0.86125 0.62059 0.0
C1515 C 0.59452 0.85861 0.59487 0.0
H1516 H 0.23024 0.94875 0.59277 0.0
H1517 H 0.09213 0.96689 0.56463 0.0
H1518 H 0.19169 0.94825 0.63439 0.0
H1519 H 0.05155 0.9659 0.60611 0.0
H1520 H 0.05976 0.98443 0.68163 0.0
H1521 H 0.07811 0.97805 0.63952 0.0
H1522 H 0.13125 0.94477 0.66793 0.0
H1523 H 0.11378 0.95143 0.71085 0.0
C1524 C 0.18986 0.95193 0.5952 0.0
C1525 C 0.16413 0.95789 0.5756 0.0
C1526 C 0.16782 0.95173 0.61919 0.0
C1527 C 0.11935 0.95744 0.62391 0.0
C1528 C 0.08989 0.96178 0.60331 0.0
C1529 C 0.1124 0.96211 0.57935 0.0
C1530 C 0.07535 0.97573 0.67902 0.0
C1531 C 0.08556 0.96846 0.69964 0.0
C1532 C 0.08507 0.97197 0.65469 0.0
C1533 C 0.10498 0.96076 0.65007 0.0
C1534 C 0.11573 0.95345 0.67074 0.0
C1535 C 0.10618 0.95728 0.69533 0.0
H1536 H 0.4428 0.59454 0.47379 0.0
H1537 H 0.28654 0.60739 0.45422 0.0
H1538 H 0.47318 0.59844 0.43103 0.0
H1539 H 0.31664 0.6115 0.41174 0.0
H1540 H 0.36454 0.59303 0.33596 0.0
H1541 H 0.33499 0.59776 0.37828 0.0
H1542 H 0.49168 0.61143 0.39565 0.0
H1543 H 0.52086 0.60658 0.3533 0.0
C1544 C 0.41582 0.59873 0.46069 0.0
C1545 C 0.36251 0.60072 0.46727 0.0
C1546 C 0.43298 0.60092 0.4361 0.0
C1547 C 0.39701 0.60511 0.41774 0.0
C1548 C 0.34509 0.60807 0.42518 0.0
C1549 C 0.32804 0.60585 0.44961 0.0
C1550 C 0.3916 0.59763 0.3484 0.0
C1551 C 0.44454 0.59966 0.34126 0.0
C1552 C 0.37498 0.60026 0.3728 0.0
C1553 C 0.41124 0.60485 0.39058 0.0
C1554 C 0.46295 0.60777 0.38262 0.0
C1555 C 0.4794 0.60518 0.35823 0.0
H1556 H 0.88891 0.68344 0.32257 0.0
H1557 H 0.90147 0.72064 0.31565 0.0
H1558 H 0.87368 0.68547 0.36773 0.0
H1559 H 0.88441 0.7228 0.36035 0.0
H1560 H 0.92726 0.69582 0.45028 0.0
H1561 H 0.92712 0.69184 0.40524 0.0
H1562 H 0.81583 0.71994 0.3934 0.0
H1563 H 0.81567 0.7239 0.43822 0.0
C1564 C 0.88714 0.69208 0.33062 0.0
C1565 C 0.89416 0.70193 0.31532 0.0
C1566 C 0.8787 0.69324 0.3565 0.0
C1567 C 0.8773 0.70431 0.36776 0.0
C1568 C 0.88386 0.71416 0.35232 0.0
C1569 C 0.89281 0.71296 0.32652 0.0
C1570 C 0.90167 0.70096 0.43819 0.0
C1571 C 0.87165 0.71023 0.44806 0.0
C1572 C 0.90168 0.69869 0.41229 0.0
C1573 C 0.872 0.70567 0.39557 0.0
C1574 C 0.83987 0.71451 0.40562 0.0
C1575 C 0.83952 0.71672 0.43144 0.0
H1576 H 0.37035 0.71643 0.97197 0.0
H1577 H 0.51183 0.71442 0.92635 0.0
H1578 H 0.31505 0.71581 0.93392 0.0
H1579 H 0.45764 0.7143 0.88877 0.0
H1580 H 0.34981 0.71127 0.82148 0.0
H1581 H 0.3967 0.70597 0.86033 0.0
H1582 H 0.294 0.72905 0.90194 0.0
H1583 H 0.24684 0.73392 0.86393 0.0
C1584 C 0.3896 0.71566 0.95393 0.0
C1585 C 0.44552 0.71564 0.95228 0.0
C1586 C 0.35803 0.71543 0.93202 0.0
C1587 C 0.38169 0.7152 0.908 0.0
C1588 C 0.43754 0.71439 0.90667 0.0
C1589 C 0.46882 0.71458 0.92841 0.0
C1590 C 0.33703 0.71508 0.839 0.0
C1591 C 0.2948 0.7231 0.83938 0.0
C1592 C 0.36399 0.71209 0.86133 0.0
C1593 C 0.3494 0.71708 0.88454 0.0
C1594 C 0.3061 0.72481 0.88478 0.0
C1595 C 0.27929 0.72774 0.86268 0.0
H1596 H 0.98003 0.57203 0.85416 0.0
H1597 H 1.0075 0.60878 0.8432 0.0
H1598 H 0.97646 0.57508 0.89925 0.0
H1599 H 1.00521 0.6118 0.88838 0.0
H1600 H 0.89876 0.61252 0.96103 0.0
H1601 H 0.93603 0.61184 0.91907 0.0
H1602 H 1.0193 0.58013 0.93813 0.0
H1603 H 0.98065 0.58081 0.98009 0.0
C1604 C 0.9864 0.58073 0.86137 0.0
C1605 C 0.99339 0.59016 0.84493 0.0
C1606 C 0.9848 0.58249 0.88735 0.0
C1607 C 0.99033 0.59372 0.89764 0.0
C1608 C 1.00003 0.60306 0.88121 0.0
C1609 C 1.0015 0.60131 0.85524 0.0
C1610 C 0.92767 0.60581 0.95672 0.0
C1611 C 0.93772 0.59687 0.97398 0.0
C1612 C 0.94866 0.60532 0.93247 0.0
C1613 C 0.97991 0.59578 0.92489 0.0
C1614 C 0.99457 0.58749 0.94311 0.0
C1615 C 0.97352 0.58801 0.96739 0.0
H1616 H 0.65134 0.43674 0.57737 0.0
H1617 H 0.60854 0.47257 0.56575 0.0
H1618 H 0.66294 0.44051 0.62246 0.0
H1619 H 0.62254 0.47656 0.61019 0.0
H1620 H 0.68802 0.48277 0.6872 0.0
H1621 H 0.69451 0.47698 0.64347 0.0
H1622 H 0.6011 0.44626 0.65894 0.0
H1623 H 0.59391 0.45214 0.703 0.0
C1624 C 0.64608 0.4455 0.58436 0.0
C1625 C 0.63179 0.45452 0.56782 0.0
C1626 C 0.65234 0.44765 0.61016 0.0
C1627 C 0.64439 0.45888 0.61997 0.0
C1628 C 0.63043 0.46788 0.60327 0.0
C1629 C 0.62331 0.46567 0.57765 0.0
C1630 C 0.66975 0.47463 0.68152 0.0
C1631 C 0.64013 0.46797 0.69875 0.0
C1632 C 0.67324 0.47135 0.65632 0.0
C1633 C 0.64765 0.46125 0.64754 0.0
C1634 C 0.62141 0.45409 0.66508 0.0
C1635 C 0.6175 0.45743 0.6904 0.0
H1636 H 0.12439 0.35667 0.56213 0.0
H1637 H 0.04475 0.32753 0.59703 0.0
H1638 H 0.15242 0.36359 0.6038 0.0
H1639 H 0.07276 0.33421 0.63773 0.0
H1640 H 0.10589 0.34775 0.71132 0.0
H1641 H 0.06282 0.34833 0.66999 0.0
H1642 H 0.21351 0.35778 0.63644 0.0
H1643 H 0.25535 0.35757 0.67759 0.0
C1644 C 0.11295 0.35175 0.57856 0.0
C1645 C 0.08253 0.34152 0.57612 0.0
C1646 C 0.12872 0.35573 0.60245 0.0
C1647 C 0.11413 0.34957 0.62431 0.0
C1648 C 0.08349 0.33941 0.6216 0.0
C1649 C 0.068 0.33547 0.598 0.0
C1650 C 0.1289 0.35053 0.69525 0.0
C1651 C 0.18387 0.35255 0.69756 0.0
C1652 C 0.10462 0.35067 0.67147 0.0
C1653 C 0.13507 0.35277 0.64969 0.0
C1654 C 0.18867 0.35612 0.6526 0.0
C1655 C 0.21273 0.35599 0.67626 0.0
H1656 H 0.626 0.36133 0.07092 0.0
H1657 H 0.75073 0.33573 0.06542 0.0
H1658 H 0.65121 0.36503 0.11455 0.0
H1659 H 0.77687 0.33957 0.10887 0.0
H1660 H 0.81538 0.35379 0.18939 0.0
H1661 H 0.80706 0.35465 0.14356 0.0
H1662 H 0.63694 0.34952 0.14966 0.0
H1663 H 0.64517 0.34841 0.19517 0.0
C1664 C 0.66108 0.35706 0.07852 0.0
C1665 C 0.68721 0.34844 0.06461 0.0
C1666 C 0.67483 0.35899 0.10367 0.0
C1667 C 0.71547 0.35245 0.11524 0.0
C1668 C 0.74554 0.34478 0.10047 0.0
C1669 C 0.7311 0.3427 0.07545 0.0
C1670 C 0.77625 0.3528 0.18091 0.0
C1671 C 0.73099 0.35095 0.19596 0.0
C1672 C 0.77153 0.35334 0.1547 0.0
C1673 C 0.72127 0.35235 0.14304 0.0
C1674 C 0.6761 0.35054 0.15811 0.0
C1675 C 0.68093 0.34975 0.18419 0.0
H1676 H 0.98245 0.46711 0.18369 0.0
H1677 H 0.13984 0.46557 0.21658 0.0
H1678 H 1.01843 0.46159 0.14321 0.0
H1679 H 0.17686 0.46047 0.17563 0.0
H1680 H 0.23451 0.44835 0.10149 0.0
H1681 H 0.18782 0.44771 0.14149 0.0
H1682 H 0.06683 0.47058 0.11116 0.0
H1683 H 0.11298 0.47076 0.07099 0.0
C1684 C 0.0249 0.46544 0.18228 0.0
C1685 C 0.05837 0.46681 0.20334 0.0
C1686 C 0.04567 0.46238 0.15893 0.0
C1687 C 0.10084 0.46077 0.15574 0.0
C1688 C 0.13408 0.46152 0.17721 0.0
C1689 C 0.113 0.46444 0.20079 0.0
C1690 C 0.19651 0.45277 0.10311 0.0
C1691 C 0.17666 0.45938 0.08295 0.0
C1692 C 0.17028 0.45262 0.12623 0.0
C1693 C 0.12385 0.45925 0.12998 0.0
C1694 C 0.10206 0.46523 0.10915 0.0
C1695 C 0.12817 0.46527 0.0859 0.0
H1696 H 0.06841 0.17694 0.9974 0.0
H1697 H 0.23019 0.18735 0.98064 0.0
H1698 H 0.0944 0.15668 0.99545 0.0
H1699 H 0.25562 0.16696 0.97729 0.0
H1700 H 0.29762 0.13027 1.00382 0.0
H1701 H 0.27179 0.15053 1.00255 0.0
H1702 H 0.11989 0.14088 0.96988 0.0
H1703 H 0.14481 0.1204 0.97246 0.0
C1704 C 0.10962 0.17497 0.99325 0.0
C1705 C 0.14726 0.18394 0.98959 0.0
C1706 C 0.1244 0.16324 0.99172 0.0
C1707 C 0.17728 0.16005 0.98628 0.0
C1708 C 0.21469 0.16901 0.98194 0.0
C1709 C 0.19993 0.18077 0.9836 0.0
C1710 C 0.25841 0.13237 0.9966 0.0
C1711 C 0.22308 0.12353 0.98862 0.0
C1712 C 0.24385 0.14411 0.99548 0.0
C1713 C 0.19358 0.14748 0.98615 0.0
C1714 C 0.15865 0.13868 0.97756 0.0
C1715 C 0.17318 0.12689 0.97879 0.0
H1716 H 0.13225 0.18494 0.33593 0.0
H1717 H 0.24558 0.18114 0.27574 0.0
H1718 H 0.11686 0.164 0.33554 0.0
H1719 H 0.22834 0.1604 0.27459 0.0
H1720 H 0.22183 0.12169 0.29153 0.0
H1721 H 0.24183 0.14241 0.29617 0.0
H1722 H 0.07549 0.14915 0.31136 0.0
H1723 H 0.05623 0.12851 0.30784 0.0
C1724 C 0.15386 0.1797 0.32257 0.0
C1725 C 0.19003 0.1849 0.30583 0.0
C1726 C 0.14466 0.16764 0.32218 0.0
C1727 C 0.1713 0.1604 0.30501 0.0
C1728 C 0.20754 0.1656 0.28833 0.0
C1729 C 0.2168 0.17763 0.28874 0.0
C1730 C 0.18975 0.12757 0.29624 0.0
C1731 C 0.1373 0.12338 0.29902 0.0
C1732 C 0.20104 0.13951 0.29862 0.0
C1733 C 0.16023 0.14757 0.30393 0.0
C1734 C 0.10816 0.14329 0.30746 0.0
C1735 C 0.09693 0.1314 0.3051 0.0
H1736 H 1.013 0.88734 0.02056 0.0
H1737 H 0.16439 0.90116 0.99601 0.0
H1738 H 0.98063 0.90701 0.02759 0.0
H1739 H 0.13208 0.92087 1.00314 0.0
H1740 H 0.03045 0.95397 0.98931 0.0
H1741 H 0.07 0.93469 0.98574 0.0
H1742 H 0.98936 0.92403 0.05333 0.0
H1743 H 0.9495 0.94331 0.05672 0.0
C1744 C 0.03979 0.89454 1.01703 0.0
C1745 C 0.09139 0.89259 1.00763 0.0
C1746 C 1.02117 0.90588 0.02108 0.0
C1747 C 0.05361 0.9156 1.0159 0.0
C1748 C 0.10557 0.91364 1.00695 0.0
C1749 C 0.12418 0.9023 1.00288 0.0
C1750 C 0.02196 0.94761 1.00369 0.0
C1751 C 0.98654 0.95021 0.02327 0.0
C1752 C 0.04463 0.9365 1.00163 0.0
C1753 C 0.03262 0.9277 1.01912 0.0
C1754 C 0.99872 0.93047 0.0392 0.0
C1755 C 0.97601 0.94155 0.04122 0.0
H1756 H 0.77784 0.88286 0.74097 0.0
H1757 H 0.92509 0.87535 0.78008 0.0
H1758 H 0.79947 0.90345 0.74128 0.0
H1759 H 0.94829 0.89595 0.77918 0.0
H1760 H 0.94674 0.93454 0.79956 0.0
H1761 H 0.92582 0.91384 0.79807 0.0
H1762 H 0.85281 0.91851 0.72524 0.0
H1763 H 0.87286 0.93927 0.72714 0.0
C1764 C 0.8151 0.88556 0.74952 0.0
C1765 C 0.84925 0.87734 0.76082 0.0
C1766 C 0.8279 0.89744 0.74943 0.0
C1767 C 0.87556 0.90153 0.76044 0.0
C1768 C 0.91068 0.89325 0.77095 0.0
C1769 C 0.89772 0.88134 0.77115 0.0
C1770 C 0.92624 0.93114 0.78322 0.0
C1771 C 0.91153 0.93862 0.76348 0.0
C1772 C 0.91448 0.91922 0.78226 0.0
C1773 C 0.8879 0.91434 0.76143 0.0
C1774 C 0.87267 0.92187 0.74178 0.0
C1775 C 0.88412 0.93384 0.74284 0.0
H1776 H 0.09219 0.67806 0.45068 0.0
H1777 H 0.10471 0.68408 0.5303 0.0
H1778 H 0.11837 0.65781 0.457 0.0
H1779 H 0.1288 0.66381 0.53673 0.0
H1780 H 0.22228 0.63005 0.53829 0.0
H1781 H 0.19896 0.65022 0.53066 0.0
H1782 H 0.08618 0.63946 0.47373 0.0
H1783 H 0.1113 0.61916 0.48073 0.0
C1784 C 0.10086 0.67512 0.46952 0.0
C1785 C 0.09624 0.68279 0.48997 0.0
C1786 C 0.11519 0.66343 0.4732 0.0
C1787 C 0.12558 0.65907 0.49741 0.0
C1788 C 0.12171 0.6668 0.51777 0.0
C1789 C 0.10735 0.67846 0.51411 0.0
C1790 C 0.19286 0.63192 0.52396 0.0
C1791 C 0.16901 0.62287 0.51006 0.0
C1792 C 0.17894 0.64356 0.51976 0.0
C1793 C 0.14053 0.64657 0.50157 0.0
C1794 C 0.11637 0.63753 0.4877 0.0
C1795 C 0.13031 0.62584 0.49193 0.0
H1796 H 0.13253 0.69408 0.80487 0.0
H1797 H 0.99975 0.70856 0.76366 0.0
H1798 H 0.09408 0.67471 0.8006 0.0
H1799 H 0.96116 0.68911 0.75918 0.0
H1800 H 0.88726 0.65275 0.77403 0.0
H1801 H 0.92042 0.67254 0.78041 0.0
H1802 H 0.08147 0.6606 0.76794 0.0
H1803 H 0.04854 0.64094 0.76161 0.0
C1804 C 0.09504 0.69313 0.79489 0.0
C1805 C 0.06958 0.7029 0.78443 0.0
C1806 C 0.07301 0.682 0.79235 0.0
C1807 C 0.02481 0.68026 0.7792 0.0
C1808 C 0.99816 0.69009 0.76955 0.0
C1809 C 1.02025 0.70127 0.77215 0.0
C1810 C 0.92969 0.65435 0.77246 0.0
C1811 C 0.96513 0.64514 0.76748 0.0
C1812 C 0.94875 0.66573 0.77614 0.0
C1813 C 1.00377 0.66821 0.77496 0.0
C1814 C 0.03899 0.65902 0.76961 0.0
C1815 C 1.02001 0.64769 0.76594 0.0
H1816 H 0.80126 0.42385 0.50787 0.0
H1817 H 0.81677 0.42027 0.58815 0.0
H1818 H 0.82451 0.40352 0.50266 0.0
H1819 H 0.84091 0.39985 0.58279 0.0
H1820 H 0.94058 0.3675 0.55882 0.0
H1821 H 0.91264 0.38751 0.56649 0.0
H1822 H 0.7898 0.38396 0.50996 0.0
H1823 H 0.81864 0.36404 0.50189 0.0
C1824 C 0.80904 0.41875 0.52451 0.0
C1825 C 0.80648 0.42384 0.54851 0.0
C1826 C 0.82245 0.40702 0.52147 0.0
C1827 C 0.8342 0.39995 0.54229 0.0
C1828 C 0.83246 0.40502 0.56629 0.0
C1829 C 0.81866 0.41679 0.56937 0.0
C1830 C 0.90751 0.37097 0.54806 0.0
C1831 C 0.88217 0.36412 0.5296 0.0
C1832 C 0.89116 0.38244 0.55261 0.0
C1833 C 0.84915 0.38744 0.53874 0.0
C1834 C 0.82279 0.38048 0.52078 0.0
C1835 C 0.83893 0.36898 0.51633 0.0
H1836 H 0.79079 0.39128 0.27975 0.0
H1837 H 0.6378 0.40633 0.26089 0.0
H1838 H 0.83266 0.41027 0.27516 0.0
H1839 H 0.6798 0.42534 0.25656 0.0
H1840 H 0.76919 0.45953 0.27848 0.0
H1841 H 0.72351 0.44076 0.28116 0.0
H1842 H 0.85489 0.42442 0.24281 0.0
H1843 H 0.90019 0.44312 0.24002 0.0
C1844 C 0.76598 0.39857 0.27443 0.0
C1845 C 0.71068 0.39714 0.27067 0.0
C1846 C 0.79011 0.40951 0.2718 0.0
C1847 C 0.7597 0.41937 0.26539 0.0
C1848 C 0.7044 0.41798 0.26179 0.0
C1849 C 0.68027 0.40703 0.26432 0.0
C1850 C 0.78795 0.45198 0.27028 0.0
C1851 C 0.83875 0.45286 0.25927 0.0
C1852 C 0.76179 0.44119 0.27186 0.0
C1853 C 0.7858 0.43101 0.26251 0.0
C1854 C 0.83572 0.432 0.25076 0.0
C1855 C 0.86171 0.44275 0.24912 0.0
H1856 H 0.58696 0.1152 0.53703 0.0
H1857 H 0.69167 0.11747 0.47326 0.0
H1858 H 0.55775 0.13516 0.52962 0.0
H1859 H 0.66338 0.13754 0.46615 0.0
H1860 H 0.56433 0.17062 0.44895 0.0
H1861 H 0.58849 0.15014 0.4537 0.0
H1862 H 0.59676 0.15456 0.53391 0.0
H1863 H 0.57347 0.17494 0.52924 0.0
C1864 C 0.60325 0.11988 0.52121 0.0
C1865 C 0.64189 0.11469 0.50581 0.0
C1866 C 0.58698 0.1314 0.51713 0.0
C1867 C 0.60857 0.13805 0.49742 0.0
C1868 C 0.64567 0.13271 0.48144 0.0
C1869 C 0.66221 0.12121 0.48563 0.0
C1870 C 0.57177 0.16728 0.46759 0.0
C1871 C 0.56638 0.17453 0.4887 0.0
C1872 C 0.58553 0.15549 0.47032 0.0
C1873 C 0.59403 0.15061 0.49423 0.0
C1874 C 0.58932 0.1579 0.51524 0.0
C1875 C 0.57593 0.16966 0.51253 0.0
H1876 H 0.41152 0.15465 0.75254 0.0
H1877 H 0.56595 0.13882 0.76424 0.0
H1878 H 0.4521 0.17385 0.75566 0.0
H1879 H 0.6068 0.158 0.76619 0.0
H1880 H 0.65731 0.19355 0.79524 0.0
H1881 H 0.61414 0.17457 0.79275 0.0
H1882 H 0.50851 0.18756 0.73499 0.0
H1883 H 0.55144 0.20659 0.73777 0.0
C1884 C 0.45414 0.15521 0.7557 0.0
C1885 C 0.48513 0.14506 0.75825 0.0
C1886 C 0.47761 0.16629 0.75723 0.0
C1887 C 0.53288 0.16757 0.76131 0.0
C1888 C 0.56401 0.15742 0.76345 0.0
C1889 C 0.54054 0.14635 0.76197 0.0
C1890 C 0.62487 0.19237 0.78201 0.0
C1891 C 0.60809 0.20164 0.76668 0.0
C1892 C 0.60017 0.18143 0.78047 0.0
C1893 C 0.55797 0.17941 0.76348 0.0
C1894 C 0.54041 0.18877 0.74851 0.0
C1895 C 0.56505 0.19973 0.75012 0.0
H1896 H 0.45748 0.93769 0.55693 0.0
H1897 H 0.28945 0.92942 0.55885 0.0
H1898 H 0.47878 0.91701 0.56126 0.0
H1899 H 0.31048 0.9088 0.56249 0.0
H1900 H 0.36753 0.87251 0.58662 0.0
H1901 H 0.34866 0.89344 0.58883 0.0
H1902 H 0.47238 0.89998 0.53453 0.0
H1903 H 0.49187 0.87934 0.53287 0.0
C1904 C 0.42512 0.93149 0.55855 0.0
C1905 C 0.37178 0.93523 0.55722 0.0
C1906 C 0.43724 0.91961 0.56079 0.0
C1907 C 0.39634 0.91118 0.56196 0.0
C1908 C 0.34305 0.915 0.56175 0.0
C1909 C 0.33097 0.92684 0.55937 0.0
C1910 C 0.39072 0.87846 0.57528 0.0
C1911 C 0.43055 0.87418 0.55929 0.0
C1912 C 0.37981 0.89044 0.57643 0.0
C1913 C 0.409 0.89845 0.56185 0.0
C1914 C 0.44942 0.89414 0.54624 0.0
C1915 C 0.46 0.88222 0.54497 0.0
H1916 H 0.4788 0.92874 0.28303 0.0
H1917 H 0.40396 0.93457 0.21111 0.0
H1918 H 0.45223 0.90845 0.28159 0.0
H1919 H 0.37535 0.91419 0.21007 0.0
H1920 H 0.38009 0.87384 0.20602 0.0
H1921 H 0.40852 0.89424 0.20591 0.0
H1922 H 0.37503 0.89647 0.28504 0.0
H1923 H 0.34874 0.87613 0.2853 0.0
C1924 C 0.45668 0.92571 0.26684 0.0
C1925 C 0.44392 0.93337 0.24711 0.0
C1926 C 0.44081 0.91404 0.26614 0.0
C1927 C 0.41142 0.90959 0.24574 0.0
C1928 C 0.39838 0.91724 0.22599 0.0
C1929 C 0.41425 0.92899 0.22671 0.0
C1930 C 0.3794 0.87865 0.22343 0.0
C1931 C 0.36194 0.87327 0.24566 0.0
C1932 C 0.39509 0.89041 0.22332 0.0
C1933 C 0.39412 0.89708 0.24546 0.0
C1934 C 0.37699 0.89164 0.26765 0.0
C1935 C 0.36128 0.87995 0.26775 0.0
H1936 H 0.71821 0.6889 0.98331 0.0
H1937 H 0.57781 0.68028 0.02614 0.0
H1938 H 0.74207 0.66834 0.98174 0.0
H1939 H 0.60169 0.65982 0.0247 0.0
H1940 H 0.63304 0.62255 0.99976 0.0
H1941 H 0.60835 0.64306 0.99828 0.0
H1942 H 0.77411 0.65271 1.00712 0.0
H1943 H 0.79888 0.63228 1.00756 0.0
C1944 C 0.69252 0.68266 0.99253 0.0
C1945 C 0.64591 0.68637 1.00479 0.0
C1946 C 0.70625 0.67082 0.99165 0.0
C1947 C 0.67386 0.6623 1.00305 0.0
C1948 C 0.62721 0.66602 1.01526 0.0
C1949 C 0.61348 0.67784 1.01611 0.0
C1950 C 0.66434 0.62902 1.00108 0.0
C1951 C 0.71803 0.62564 1.00395 0.0
C1952 C 0.65009 0.64084 1.00052 0.0
C1953 C 0.68909 0.64966 1.00272 0.0
C1954 C 0.74284 0.64625 1.00513 0.0
C1955 C 0.75705 0.63446 1.00572 0.0
H1956 H 0.78553 0.67102 0.28316 0.0
H1957 H 0.68031 0.67869 0.34485 0.0
H1958 H 0.76238 0.65061 0.28608 0.0
H1959 H 0.6594 0.65806 0.34872 0.0
H1960 H 0.58065 0.62342 0.32566 0.0
H1961 H 0.60982 0.64352 0.32796 0.0
H1962 H 0.77002 0.633 0.30874 0.0
H1963 H 0.73974 0.61283 0.30515 0.0
C1964 C 0.75745 0.66841 0.29742 0.0
C1965 C 0.73416 0.67668 0.31348 0.0
C1966 C 0.74484 0.65658 0.29939 0.0
C1967 C 0.70882 0.65257 0.31761 0.0
C1968 C 0.68667 0.66078 0.33417 0.0
C1969 C 0.6991 0.67266 0.33211 0.0
C1970 C 0.62213 0.62536 0.32188 0.0
C1971 C 0.65756 0.61648 0.31476 0.0
C1972 C 0.63913 0.63694 0.32354 0.0
C1973 C 0.69232 0.64002 0.31832 0.0
C1974 C 0.72849 0.63104 0.31242 0.0
C1975 C 0.71134 0.61942 0.31067 0.0
H1976 H 0.31092 0.42593 0.04494 0.0
H1977 H 0.47524 0.43675 0.0534 0.0
H1978 H 0.33838 0.40567 0.0459 0.0
H1979 H 0.50256 0.41642 0.05547 0.0
H1980 H 0.53874 0.37999 0.02545 0.0
H1981 H 0.51159 0.40016 0.02823 0.0
H1982 H 0.37295 0.38995 0.0708 0.0
H1983 H 0.39933 0.36953 0.06707 0.0
C1984 C 0.35298 0.42403 0.04707 0.0
C1985 C 0.39085 0.4331 0.04871 0.0
C1986 C 0.3687 0.41234 0.04798 0.0
C1987 C 0.42283 0.4093 0.05063 0.0
C1988 C 0.46058 0.41836 0.05301 0.0
C1989 C 0.44483 0.43008 0.05208 0.0
C1990 C 0.50213 0.38195 0.03521 0.0
C1991 C 0.47086 0.37301 0.04571 0.0
C1992 C 0.48693 0.39363 0.03716 0.0
C1993 C 0.43997 0.3968 0.04975 0.0
C1994 C 0.40906 0.38788 0.06069 0.0
C1995 C 0.4244 0.37615 0.05876 0.0
H1996 H 0.41901 0.43649 0.69489 0.0
H1997 H 0.43727 0.43615 0.77542 0.0
H1998 H 0.40459 0.41548 0.69533 0.0
H1999 H 0.42397 0.41519 0.77568 0.0
H2000 H 0.45322 0.37629 0.76524 0.0
H2001 H 0.47011 0.39722 0.76235 0.0
H2002 H 0.33979 0.40059 0.70962 0.0
H2003 H 0.32345 0.37965 0.71232 0.0
C2004 C 0.41954 0.43202 0.71272 0.0
C2005 C 0.42986 0.43815 0.7351 0.0
C2006 C 0.41145 0.41992 0.71294 0.0
C2007 C 0.41381 0.41358 0.73551 0.0
C2008 C 0.4231 0.41972 0.75788 0.0
C2009 C 0.43069 0.4318 0.7577 0.0
C2010 C 0.4288 0.38145 0.75271 0.0
C2011 C 0.38688 0.37627 0.73906 0.0
C2012 C 0.43803 0.39349 0.75126 0.0
C2013 C 0.406 0.40065 0.73591 0.0
C2014 C 0.36539 0.39538 0.72155 0.0
C2015 C 0.35581 0.38338 0.72321 0.0
loop_
_geom_bond_atom_site_label_1
_geom_bond_atom_site_label_2
_geom_bond_distance
_geom_bond_site_symmetry_2
_ccdc_geom_bond_type
Cu0 N1 1.999 . S
Cu0 O6 1.974 . S
Cu0 N11 1.985 . S
Cu0 O20 1.959 1_554 S
N1 Cu0 1.999 . S
N1 C3 1.263 . S
N1 C5 1.389 1_554 S
N2 C3 1.358 . S
N2 C4 1.400 1_554 S
C3 N1 1.263 . S
C3 N2 1.358 . S
C3 H9 0.930 . S
C4 N2 1.400 1_556 S
C4 C5 1.351 . S
C4 H21 0.930 . S
C5 N1 1.389 1_556 S
C5 C4 1.351 . S
C5 H10 0.930 . S
O6 Cu0 1.974 . S
O6 C16 1.282 . S
C7 O8 1.261 . S
C7 O20 1.251 . S
O8 C7 1.261 . S
H9 C3 0.930 . S
H10 C5 0.930 . S
N11 Cu0 1.985 . S
N11 C13 1.337 . S
N11 C14 1.390 . S
N12 C13 1.346 . S
N12 C15 1.336 . S
C13 N11 1.337 . S
C13 N12 1.346 . S
C13 H18 0.927 1_554 S
C14 N11 1.390 . S
C14 C15 1.346 . S
C14 H19 0.930 . S
C15 N12 1.336 . S
C15 C14 1.346 . S
C15 H22 0.929 . S
C16 O6 1.282 . S
C16 O17 1.216 . S
O17 C16 1.216 . S
H18 C13 0.927 1_556 S
H19 C14 0.930 . S
O20 Cu0 1.959 1_556 S
O20 C7 1.251 . S
H21 C4 0.930 . S
H22 C15 0.929 . S
Cu23 N24 1.999 . S
Cu23 O29 1.974 . S
Cu23 N34 1.985 . S
Cu23 O43 1.959 1_554 S
N24 Cu23 1.999 . S
N24 C26 1.263 1_655 S
N24 C28 1.389 1_554 S
N25 C26 1.358 . S
N25 C27 1.391 1_454 S
C26 N24 1.263 1_455 S
C26 N25 1.358 . S
C26 H32 0.930 . S
C27 N25 1.391 1_656 S
C27 C28 1.358 . S
C27 H44 0.932 . S
C28 N24 1.389 1_556 S
C28 C27 1.358 . S
C28 H33 0.930 . S
O29 Cu23 1.974 . S
O29 C39 1.282 1_655 S
C30 O31 1.261 . S
C30 O43 1.251 . S
O31 C30 1.261 . S
H32 C26 0.930 . S
H33 C28 0.930 . S
N34 Cu23 1.985 . S
N34 C36 1.337 . S
N34 C37 1.390 . S
N35 C36 1.346 . S
N35 C38 1.336 . S
C36 N34 1.337 . S
C36 N35 1.346 . S
C36 H41 0.927 1_554 S
C37 N34 1.390 . S
C37 C38 1.346 . S
C37 H42 0.930 . S
C38 N35 1.336 . S
C38 C37 1.346 . S
C38 H45 0.929 . S
C39 O29 1.282 1_455 S
C39 O40 1.216 . S
O40 C39 1.216 . S
H41 C36 0.927 1_556 S
H42 C37 0.930 . S
O43 Cu23 1.959 1_556 S
O43 C30 1.251 . S
H44 C27 0.932 . S
H45 C38 0.929 . S
Cu46 N47 1.999 . S
Cu46 O52 1.974 . S
Cu46 N57 1.985 . S
Cu46 O66 1.959 . S
N47 Cu46 1.999 . S
N47 C49 1.263 . S
N47 C51 1.389 . S
N48 C49 1.358 . S
N48 C50 1.400 . S
C49 N47 1.263 . S
C49 N48 1.358 . S
C49 H55 0.930 . S
C50 N48 1.400 . S
C50 C51 1.351 . S
C50 H67 0.930 . S
C51 N47 1.389 . S
C51 C50 1.351 . S
C51 H56 0.930 . S
O52 Cu46 1.974 . S
O52 C62 1.282 . S
C53 O54 1.261 . S
C53 O66 1.251 . S
O54 C53 1.261 . S
H55 C49 0.930 . S
H56 C51 0.930 . S
N57 Cu46 1.985 . S
N57 C59 1.335 . S
N57 C60 1.390 . S
N58 C59 1.345 . S
N58 C61 1.336 . S
C59 N57 1.335 . S
C59 N58 1.345 . S
C59 H64 0.930 . S
C60 N57 1.390 . S
C60 C61 1.346 . S
C60 H65 0.930 . S
C61 N58 1.336 . S
C61 C60 1.346 . S
C61 H68 0.929 . S
C62 O52 1.282 . S
C62 O63 1.216 . S
O63 C62 1.216 . S
H64 C59 0.930 . S
H65 C60 0.930 . S
O66 Cu46 1.959 . S
O66 C53 1.251 . S
H67 C50 0.930 . S
H68 C61 0.929 . S
Cu69 N70 1.999 . S
Cu69 O75 1.974 . S
Cu69 N80 1.985 . S
Cu69 O89 1.959 . S
N70 Cu69 1.999 . S
N70 C72 1.263 1_655 S
N70 C74 1.389 . S
N71 C72 1.358 . S
N71 C73 1.391 1_455 S
C72 N70 1.263 1_455 S
C72 N71 1.358 . S
C72 H78 0.930 . S
C73 N71 1.391 1_655 S
C73 C74 1.358 . S
C73 H90 0.932 . S
C74 N70 1.389 . S
C74 C73 1.358 . S
C74 H79 0.930 . S
O75 Cu69 1.974 . S
O75 C85 1.282 1_655 S
C76 O77 1.261 . S
C76 O89 1.251 . S
O77 C76 1.261 . S
H78 C72 0.930 . S
H79 C74 0.930 . S
N80 Cu69 1.985 . S
N80 C82 1.335 . S
N80 C83 1.390 . S
N81 C82 1.345 . S
N81 C84 1.336 . S
C82 N80 1.335 . S
C82 N81 1.345 . S
C82 H87 0.930 . S
C83 N80 1.390 . S
C83 C84 1.346 . S
C83 H88 0.930 . S
C84 N81 1.336 . S
C84 C83 1.346 . S
C84 H91 0.929 . S
C85 O75 1.282 1_455 S
C85 O86 1.216 . S
O86 C85 1.216 . S
H87 C82 0.930 . S
H88 C83 0.930 . S
O89 Cu69 1.959 . S
O89 C76 1.251 . S
H90 C73 0.932 . S
H91 C84 0.929 . S
Cu92 N93 1.999 . S
Cu92 O98 1.974 . S
Cu92 N103 1.985 . S
Cu92 O112 1.959 1_556 S
N93 Cu92 1.999 . S
N93 C95 1.263 . S
N93 C97 1.389 1_556 S
N94 C95 1.358 . S
N94 C96 1.400 1_556 S
C95 N93 1.263 . S
C95 N94 1.358 . S
C95 H101 0.930 . S
C96 N94 1.400 1_554 S
C96 C97 1.351 . S
C96 H113 0.930 . S
C97 N93 1.389 1_554 S
C97 C96 1.351 . S
C97 H102 0.930 . S
O98 Cu92 1.974 . S
O98 C108 1.282 . S
C99 O100 1.261 . S
C99 O112 1.251 . S
O100 C99 1.261 . S
H101 C95 0.930 . S
H102 C97 0.930 . S
N103 Cu92 1.985 . S
N103 C105 1.337 . S
N103 C106 1.390 . S
N104 C105 1.346 . S
N104 C107 1.336 . S
C105 N103 1.337 . S
C105 N104 1.346 . S
C105 H110 0.927 1_556 S
C106 N103 1.390 . S
C106 C107 1.346 . S
C106 H111 0.930 . S
C107 N104 1.336 . S
C107 C106 1.346 . S
C107 H114 0.929 . S
C108 O98 1.282 . S
C108 O109 1.216 . S
O109 C108 1.216 . S
H110 C105 0.927 1_554 S
H111 C106 0.930 . S
O112 Cu92 1.959 1_554 S
O112 C99 1.251 . S
H113 C96 0.930 . S
H114 C107 0.929 . S
Cu115 N116 1.999 . S
Cu115 O121 1.974 . S
Cu115 N126 1.985 . S
Cu115 O135 1.959 1_556 S
N116 Cu115 1.999 . S
N116 C118 1.263 1_455 S
N116 C120 1.389 1_556 S
N117 C118 1.358 . S
N117 C119 1.391 1_656 S
C118 N116 1.263 1_655 S
C118 N117 1.358 . S
C118 H124 0.930 . S
C119 N117 1.391 1_454 S
C119 C120 1.358 . S
C119 H136 0.932 . S
C120 N116 1.389 1_554 S
C120 C119 1.358 . S
C120 H125 0.930 . S
O121 Cu115 1.974 . S
O121 C131 1.282 1_455 S
C122 O123 1.261 . S
C122 O135 1.251 . S
O123 C122 1.261 . S
H124 C118 0.930 . S
H125 C120 0.930 . S
N126 Cu115 1.985 . S
N126 C128 1.337 . S
N126 C129 1.390 . S
N127 C128 1.346 . S
N127 C130 1.336 . S
C128 N126 1.337 . S
C128 N127 1.346 . S
C128 H133 0.927 1_556 S
C129 N126 1.390 . S
C129 C130 1.346 . S
C129 H134 0.930 . S
C130 N127 1.336 . S
C130 C129 1.346 . S
C130 H137 0.929 . S
C131 O121 1.282 1_655 S
C131 O132 1.216 . S
O132 C131 1.216 . S
H133 C128 0.927 1_554 S
H134 C129 0.930 . S
O135 Cu115 1.959 1_554 S
O135 C122 1.251 . S
H136 C119 0.932 . S
H137 C130 0.929 . S
Cu138 N139 1.999 . S
Cu138 O144 1.974 . S
Cu138 N149 1.985 . S
Cu138 O158 1.959 . S
N139 Cu138 1.999 . S
N139 C141 1.263 . S
N139 C143 1.389 . S
N140 C141 1.358 . S
N140 C142 1.400 . S
C141 N139 1.263 . S
C141 N140 1.358 . S
C141 H147 0.930 . S
C142 N140 1.400 . S
C142 C143 1.351 . S
C142 H159 0.930 . S
C143 N139 1.389 . S
C143 C142 1.351 . S
C143 H148 0.930 . S
O144 Cu138 1.974 . S
O144 C154 1.282 . S
C145 O146 1.261 . S
C145 O158 1.251 . S
O146 C145 1.261 . S
H147 C141 0.930 . S
H148 C143 0.930 . S
N149 Cu138 1.985 . S
N149 C151 1.335 . S
N149 C152 1.390 . S
N150 C151 1.345 . S
N150 C153 1.336 . S
C151 N149 1.335 . S
C151 N150 1.345 . S
C151 H156 0.930 . S
C152 N149 1.390 . S
C152 C153 1.346 . S
C152 H157 0.930 . S
C153 N150 1.336 . S
C153 C152 1.346 . S
C153 H160 0.929 . S
C154 O144 1.282 . S
C154 O155 1.216 . S
O155 C154 1.216 . S
H156 C151 0.930 . S
H157 C152 0.930 . S
O158 Cu138 1.959 . S
O158 C145 1.251 . S
H159 C142 0.930 . S
H160 C153 0.929 . S
Cu161 N162 1.999 . S
Cu161 O167 1.974 . S
Cu161 N172 1.985 . S
Cu161 O181 1.959 . S
N162 Cu161 1.999 . S
N162 C164 1.263 1_455 S
N162 C166 1.389 . S
N163 C164 1.358 . S
N163 C165 1.391 1_655 S
C164 N162 1.263 1_655 S
C164 N163 1.358 . S
C164 H170 0.930 . S
C165 N163 1.391 1_455 S
C165 C166 1.358 . S
C165 H182 0.932 . S
C166 N162 1.389 . S
C166 C165 1.358 . S
C166 H171 0.930 . S
O167 Cu161 1.974 . S
O167 C177 1.282 1_455 S
C168 O169 1.261 . S
C168 O181 1.251 . S
O169 C168 1.261 . S
H170 C164 0.930 . S
H171 C166 0.930 . S
N172 Cu161 1.985 . S
N172 C174 1.335 . S
N172 C175 1.390 . S
N173 C174 1.345 . S
N173 C176 1.336 . S
C174 N172 1.335 . S
C174 N173 1.345 . S
C174 H179 0.930 . S
C175 N172 1.390 . S
C175 C176 1.346 . S
C175 H180 0.930 . S
C176 N173 1.336 . S
C176 C175 1.346 . S
C176 H183 0.929 . S
C177 O167 1.282 1_655 S
C177 O178 1.216 . S
O178 C177 1.216 . S
H179 C174 0.930 . S
H180 C175 0.930 . S
O181 Cu161 1.959 . S
O181 C168 1.251 . S
H182 C165 0.932 . S
H183 C176 0.929 . S
Cu184 N185 1.999 . S
Cu184 O190 1.974 . S
Cu184 N195 1.985 . S
Cu184 O204 1.959 . S
N185 Cu184 1.999 . S
N185 C187 1.263 . S
N185 C189 1.389 . S
N186 C187 1.358 . S
N186 C188 1.400 . S
C187 N185 1.263 . S
C187 N186 1.358 . S
C187 H193 0.930 . S
C188 N186 1.400 . S
C188 C189 1.351 . S
C188 H205 0.930 . S
C189 N185 1.389 . S
C189 C188 1.351 . S
C189 H194 0.930 . S
O190 Cu184 1.974 . S
O190 C200 1.282 . S
C191 O192 1.261 . S
C191 O204 1.251 . S
O192 C191 1.261 . S
H193 C187 0.930 . S
H194 C189 0.930 . S
N195 Cu184 1.985 . S
N195 C197 1.335 . S
N195 C198 1.390 . S
N196 C197 1.345 . S
N196 C199 1.336 . S
C197 N195 1.335 . S
C197 N196 1.345 . S
C197 H202 0.930 . S
C198 N195 1.390 . S
C198 C199 1.346 . S
C198 H203 0.930 . S
C199 N196 1.336 . S
C199 C198 1.346 . S
C199 H206 0.929 . S
C200 O190 1.282 . S
C200 O201 1.216 . S
O201 C200 1.216 . S
H202 C197 0.930 . S
H203 C198 0.930 . S
O204 Cu184 1.959 . S
O204 C191 1.251 . S
H205 C188 0.930 . S
H206 C199 0.929 . S
Cu207 N208 1.999 . S
Cu207 O213 1.974 . S
Cu207 N218 1.985 . S
Cu207 O227 1.959 . S
N208 Cu207 1.999 . S
N208 C210 1.263 1_655 S
N208 C212 1.389 . S
N209 C210 1.358 . S
N209 C211 1.392 1_455 S
C210 N208 1.263 1_455 S
C210 N209 1.358 . S
C210 H216 0.930 . S
C211 N209 1.392 1_655 S
C211 C212 1.357 . S
C211 H228 0.932 . S
C212 N208 1.389 . S
C212 C211 1.357 . S
C212 H217 0.930 . S
O213 Cu207 1.974 . S
O213 C223 1.282 1_655 S
C214 O215 1.261 . S
C214 O227 1.251 . S
O215 C214 1.261 . S
H216 C210 0.930 . S
H217 C212 0.930 . S
N218 Cu207 1.985 . S
N218 C220 1.335 . S
N218 C221 1.390 . S
N219 C220 1.345 . S
N219 C222 1.336 . S
C220 N218 1.335 . S
C220 N219 1.345 . S
C220 H225 0.930 . S
C221 N218 1.390 . S
C221 C222 1.346 . S
C221 H226 0.930 . S
C222 N219 1.336 . S
C222 C221 1.346 . S
C222 H229 0.929 . S
C223 O213 1.282 1_455 S
C223 O224 1.216 . S
O224 C223 1.216 . S
H225 C220 0.930 . S
H226 C221 0.930 . S
O227 Cu207 1.959 . S
O227 C214 1.251 . S
H228 C211 0.932 . S
H229 C222 0.929 . S
Cu230 N231 1.999 . S
Cu230 O236 1.974 . S
Cu230 N241 1.985 . S
Cu230 O250 1.959 . S
N231 Cu230 1.999 . S
N231 C233 1.263 . S
N231 C235 1.389 . S
N232 C233 1.358 . S
N232 C234 1.400 . S
C233 N231 1.263 . S
C233 N232 1.358 . S
C233 H239 0.930 . S
C234 N232 1.400 . S
C234 C235 1.351 . S
C234 H251 0.930 . S
C235 N231 1.389 . S
C235 C234 1.351 . S
C235 H240 0.930 . S
O236 Cu230 1.974 . S
O236 C246 1.282 . S
C237 O238 1.261 . S
C237 O250 1.251 . S
O238 C237 1.261 . S
H239 C233 0.930 . S
H240 C235 0.930 . S
N241 Cu230 1.985 . S
N241 C243 1.335 . S
N241 C244 1.390 . S
N242 C243 1.345 . S
N242 C245 1.336 . S
C243 N241 1.335 . S
C243 N242 1.345 . S
C243 H248 0.930 . S
C244 N241 1.390 . S
C244 C245 1.346 . S
C244 H249 0.930 . S
C245 N242 1.336 . S
C245 C244 1.346 . S
C245 H252 0.929 . S
C246 O236 1.282 . S
C246 O247 1.216 . S
O247 C246 1.216 . S
H248 C243 0.930 . S
H249 C244 0.930 . S
O250 Cu230 1.959 . S
O250 C237 1.251 . S
H251 C234 0.930 . S
H252 C245 0.929 . S
Cu253 N254 1.999 . S
Cu253 O259 1.974 . S
Cu253 N264 1.985 . S
Cu253 O273 1.959 . S
N254 Cu253 1.999 . S
N254 C256 1.263 1_655 S
N254 C258 1.389 . S
N255 C256 1.358 . S
N255 C257 1.393 1_455 S
C256 N254 1.263 1_455 S
C256 N255 1.358 . S
C256 H262 0.930 . S
C257 N255 1.393 1_655 S
C257 C258 1.357 . S
C257 H274 0.932 . S
C258 N254 1.389 . S
C258 C257 1.357 . S
C258 H263 0.930 . S
O259 Cu253 1.974 . S
O259 C269 1.282 1_655 S
C260 O261 1.261 . S
C260 O273 1.251 . S
O261 C260 1.261 . S
H262 C256 0.930 . S
H263 C258 0.930 . S
N264 Cu253 1.985 . S
N264 C266 1.335 . S
N264 C267 1.390 . S
N265 C266 1.345 . S
N265 C268 1.336 . S
C266 N264 1.335 . S
C266 N265 1.345 . S
C266 H271 0.930 . S
C267 N264 1.390 . S
C267 C268 1.346 . S
C267 H272 0.930 . S
C268 N265 1.336 . S
C268 C267 1.346 . S
C268 H275 0.929 . S
C269 O259 1.282 1_455 S
C269 O270 1.216 . S
O270 C269 1.216 . S
H271 C266 0.930 . S
H272 C267 0.930 . S
O273 Cu253 1.959 . S
O273 C260 1.251 . S
H274 C257 0.932 . S
H275 C268 0.929 . S
Cu276 N277 1.999 . S
Cu276 O282 1.974 . S
Cu276 N287 1.985 . S
Cu276 O296 1.959 . S
N277 Cu276 1.999 . S
N277 C279 1.263 . S
N277 C281 1.389 . S
N278 C279 1.358 . S
N278 C280 1.400 . S
C279 N277 1.263 . S
C279 N278 1.358 . S
C279 H285 0.930 . S
C280 N278 1.400 . S
C280 C281 1.351 . S
C280 H297 0.930 . S
C281 N277 1.389 . S
C281 C280 1.351 . S
C281 H286 0.930 . S
O282 Cu276 1.974 . S
O282 C292 1.282 . S
C283 O284 1.261 . S
C283 O296 1.251 . S
O284 C283 1.261 . S
H285 C279 0.930 . S
H286 C281 0.930 . S
N287 Cu276 1.985 . S
N287 C289 1.335 . S
N287 C290 1.390 . S
N288 C289 1.345 . S
N288 C291 1.336 . S
C289 N287 1.335 . S
C289 N288 1.345 . S
C289 H294 0.930 . S
C290 N287 1.390 . S
C290 C291 1.346 . S
C290 H295 0.930 . S
C291 N288 1.336 . S
C291 C290 1.346 . S
C291 H298 0.929 . S
C292 O282 1.282 . S
C292 O293 1.216 . S
O293 C292 1.216 . S
H294 C289 0.930 . S
H295 C290 0.930 . S
O296 Cu276 1.959 . S
O296 C283 1.251 . S
H297 C280 0.930 . S
H298 C291 0.929 . S
Cu299 N300 1.999 . S
Cu299 O305 1.974 . S
Cu299 N310 1.985 . S
Cu299 O319 1.959 . S
N300 Cu299 1.999 . S
N300 C302 1.263 1_455 S
N300 C304 1.389 . S
N301 C302 1.358 . S
N301 C303 1.392 1_655 S
C302 N300 1.263 1_655 S
C302 N301 1.358 . S
C302 H308 0.930 . S
C303 N301 1.392 1_455 S
C303 C304 1.357 . S
C303 H320 0.932 . S
C304 N300 1.389 . S
C304 C303 1.357 . S
C304 H309 0.930 . S
O305 Cu299 1.974 . S
O305 C315 1.282 1_455 S
C306 O307 1.261 . S
C306 O319 1.251 . S
O307 C306 1.261 . S
H308 C302 0.930 . S
H309 C304 0.930 . S
N310 Cu299 1.985 . S
N310 C312 1.335 . S
N310 C313 1.390 . S
N311 C312 1.345 . S
N311 C314 1.336 . S
C312 N310 1.335 . S
C312 N311 1.345 . S
C312 H317 0.930 . S
C313 N310 1.390 . S
C313 C314 1.346 . S
C313 H318 0.930 . S
C314 N311 1.336 . S
C314 C313 1.346 . S
C314 H321 0.929 . S
C315 O305 1.282 1_655 S
C315 O316 1.216 . S
O316 C315 1.216 . S
H317 C312 0.930 . S
H318 C313 0.930 . S
O319 Cu299 1.959 . S
O319 C306 1.251 . S
H320 C303 0.932 . S
H321 C314 0.929 . S
Cu322 N323 1.999 . S
Cu322 O328 1.974 . S
Cu322 N333 1.985 . S
Cu322 O342 1.959 . S
N323 Cu322 1.999 . S
N323 C325 1.263 . S
N323 C327 1.389 . S
N324 C325 1.358 . S
N324 C326 1.400 . S
C325 N323 1.263 . S
C325 N324 1.358 . S
C325 H331 0.930 . S
C326 N324 1.400 . S
C326 C327 1.351 . S
C326 H343 0.930 . S
C327 N323 1.389 . S
C327 C326 1.351 . S
C327 H332 0.930 . S
O328 Cu322 1.974 . S
O328 C338 1.282 . S
C329 O330 1.261 . S
C329 O342 1.251 . S
O330 C329 1.261 . S
H331 C325 0.930 . S
H332 C327 0.930 . S
N333 Cu322 1.985 . S
N333 C335 1.335 . S
N333 C336 1.390 . S
N334 C335 1.345 . S
N334 C337 1.336 . S
C335 N333 1.335 . S
C335 N334 1.345 . S
C335 H340 0.930 . S
C336 N333 1.390 . S
C336 C337 1.346 . S
C336 H341 0.930 . S
C337 N334 1.336 . S
C337 C336 1.346 . S
C337 H344 0.929 . S
C338 O328 1.282 . S
C338 O339 1.216 . S
O339 C338 1.216 . S
H340 C335 0.930 . S
H341 C336 0.930 . S
O342 Cu322 1.959 . S
O342 C329 1.251 . S
H343 C326 0.930 . S
H344 C337 0.929 . S
Cu345 N346 1.999 . S
Cu345 O351 1.974 . S
Cu345 N356 1.985 . S
Cu345 O365 1.959 . S
N346 Cu345 1.999 . S
N346 C348 1.263 1_455 S
N346 C350 1.389 . S
N347 C348 1.358 . S
N347 C349 1.393 1_655 S
C348 N346 1.263 1_655 S
C348 N347 1.358 . S
C348 H354 0.930 . S
C349 N347 1.393 1_455 S
C349 C350 1.357 . S
C349 H366 0.932 . S
C350 N346 1.389 . S
C350 C349 1.357 . S
C350 H355 0.930 . S
O351 Cu345 1.974 . S
O351 C361 1.282 1_455 S
C352 O353 1.261 . S
C352 O365 1.251 . S
O353 C352 1.261 . S
H354 C348 0.930 . S
H355 C350 0.930 . S
N356 Cu345 1.985 . S
N356 C358 1.335 . S
N356 C359 1.390 . S
N357 C358 1.345 . S
N357 C360 1.336 . S
C358 N356 1.335 . S
C358 N357 1.345 . S
C358 H363 0.930 . S
C359 N356 1.390 . S
C359 C360 1.346 . S
C359 H364 0.930 . S
C360 N357 1.336 . S
C360 C359 1.346 . S
C360 H367 0.929 . S
C361 O351 1.282 1_655 S
C361 O362 1.216 . S
O362 C361 1.216 . S
H363 C358 0.930 . S
H364 C359 0.930 . S
O365 Cu345 1.959 . S
O365 C352 1.251 . S
H366 C349 0.932 . S
H367 C360 0.929 . S
Cu368 N369 1.999 . S
Cu368 O374 1.974 . S
Cu368 N379 1.985 . S
Cu368 O388 1.959 . S
N369 Cu368 1.999 . S
N369 C371 1.263 . S
N369 C373 1.389 . S
N370 C371 1.358 . S
N370 C372 1.400 . S
C371 N369 1.263 . S
C371 N370 1.358 . S
C371 H377 0.930 . S
C372 N370 1.400 . S
C372 C373 1.351 . S
C372 H389 0.930 . S
C373 N369 1.389 . S
C373 C372 1.351 . S
C373 H378 0.930 . S
O374 Cu368 1.974 . S
O374 C384 1.282 . S
C375 O376 1.261 . S
C375 O388 1.251 . S
O376 C375 1.261 . S
H377 C371 0.930 . S
H378 C373 0.930 . S
N379 Cu368 1.985 . S
N379 C381 1.335 . S
N379 C382 1.390 . S
N380 C381 1.345 . S
N380 C383 1.336 . S
C381 N379 1.335 . S
C381 N380 1.345 . S
C381 H386 0.930 . S
C382 N379 1.390 . S
C382 C383 1.346 . S
C382 H387 0.930 . S
C383 N380 1.336 . S
C383 C382 1.346 . S
C383 H390 0.929 . S
C384 O374 1.282 . S
C384 O385 1.216 . S
O385 C384 1.216 . S
H386 C381 0.930 . S
H387 C382 0.930 . S
O388 Cu368 1.959 . S
O388 C375 1.251 . S
H389 C372 0.930 . S
H390 C383 0.929 . S
Cu391 N392 1.999 . S
Cu391 O397 1.974 . S
Cu391 N402 1.985 . S
Cu391 O411 1.959 . S
N392 Cu391 1.999 . S
N392 C394 1.263 . S
N392 C396 1.389 . S
N393 C394 1.358 . S
N393 C395 1.400 . S
C394 N392 1.263 . S
C394 N393 1.358 . S
C394 H400 0.930 . S
C395 N393 1.400 . S
C395 C396 1.351 . S
C395 H412 0.930 . S
C396 N392 1.389 . S
C396 C395 1.351 . S
C396 H401 0.930 . S
O397 Cu391 1.974 . S
O397 C407 1.282 . S
C398 O399 1.261 . S
C398 O411 1.251 . S
O399 C398 1.261 . S
H400 C394 0.930 . S
H401 C396 0.930 . S
N402 Cu391 1.985 . S
N402 C404 1.335 . S
N402 C405 1.390 . S
N403 C404 1.345 . S
N403 C406 1.336 . S
C404 N402 1.335 . S
C404 N403 1.345 . S
C404 H409 0.930 . S
C405 N402 1.390 . S
C405 C406 1.346 . S
C405 H410 0.930 . S
C406 N403 1.336 . S
C406 C405 1.346 . S
C406 H413 0.929 . S
C407 O397 1.282 . S
C407 O408 1.216 . S
O408 C407 1.216 . S
H409 C404 0.930 . S
H410 C405 0.930 . S
O411 Cu391 1.959 . S
O411 C398 1.251 . S
H412 C395 0.930 . S
H413 C406 0.929 . S
Cu414 N415 1.999 . S
Cu414 O420 1.974 . S
Cu414 N425 1.985 . S
Cu414 O434 1.959 . S
N415 Cu414 1.999 . S
N415 C417 1.263 . S
N415 C419 1.389 . S
N416 C417 1.358 . S
N416 C418 1.400 . S
C417 N415 1.263 . S
C417 N416 1.358 . S
C417 H423 0.930 . S
C418 N416 1.400 . S
C418 C419 1.351 . S
C418 H435 0.930 . S
C419 N415 1.389 . S
C419 C418 1.351 . S
C419 H424 0.930 . S
O420 Cu414 1.974 . S
O420 C430 1.282 . S
C421 O422 1.261 . S
C421 O434 1.251 . S
O422 C421 1.261 . S
H423 C417 0.930 . S
H424 C419 0.930 . S
N425 Cu414 1.985 . S
N425 C427 1.335 . S
N425 C428 1.390 . S
N426 C427 1.345 . S
N426 C429 1.336 . S
C427 N425 1.335 . S
C427 N426 1.345 . S
C427 H432 0.930 . S
C428 N425 1.390 . S
C428 C429 1.346 . S
C428 H433 0.930 . S
C429 N426 1.336 . S
C429 C428 1.346 . S
C429 H436 0.929 . S
C430 O420 1.282 . S
C430 O431 1.216 . S
O431 C430 1.216 . S
H432 C427 0.930 . S
H433 C428 0.930 . S
O434 Cu414 1.959 . S
O434 C421 1.251 . S
H435 C418 0.930 . S
H436 C429 0.929 . S
Cu437 N438 1.999 . S
Cu437 O443 1.974 . S
Cu437 N448 1.985 . S
Cu437 O457 1.959 . S
N438 Cu437 1.999 . S
N438 C440 1.263 . S
N438 C442 1.389 . S
N439 C440 1.358 . S
N439 C441 1.400 . S
C440 N438 1.263 . S
C440 N439 1.358 . S
C440 H446 0.930 . S
C441 N439 1.400 . S
C441 C442 1.351 . S
C441 H458 0.930 . S
C442 N438 1.389 . S
C442 C441 1.351 . S
C442 H447 0.930 . S
O443 Cu437 1.974 . S
O443 C453 1.282 . S
C444 O445 1.261 . S
C444 O457 1.251 . S
O445 C444 1.261 . S
H446 C440 0.930 . S
H447 C442 0.930 . S
N448 Cu437 1.985 . S
N448 C450 1.335 . S
N448 C451 1.390 . S
N449 C450 1.345 . S
N449 C452 1.336 . S
C450 N448 1.335 . S
C450 N449 1.345 . S
C450 H455 0.930 . S
C451 N448 1.390 . S
C451 C452 1.346 . S
C451 H456 0.930 . S
C452 N449 1.336 . S
C452 C451 1.346 . S
C452 H459 0.929 . S
C453 O443 1.282 . S
C453 O454 1.216 . S
O454 C453 1.216 . S
H455 C450 0.930 . S
H456 C451 0.930 . S
O457 Cu437 1.959 . S
O457 C444 1.251 . S
H458 C441 0.930 . S
H459 C452 0.929 . S
Cu460 N461 1.999 . S
Cu460 O466 1.974 . S
Cu460 N471 1.985 . S
Cu460 O480 1.959 . S
N461 Cu460 1.999 . S
N461 C463 1.263 . S
N461 C465 1.389 . S
N462 C463 1.358 . S
N462 C464 1.400 . S
C463 N461 1.263 . S
C463 N462 1.358 . S
C463 H469 0.930 . S
C464 N462 1.400 . S
C464 C465 1.351 . S
C464 H481 0.930 . S
C465 N461 1.389 . S
C465 C464 1.351 . S
C465 H470 0.930 . S
O466 Cu460 1.974 . S
O466 C476 1.282 . S
C467 O468 1.261 . S
C467 O480 1.251 . S
O468 C467 1.261 . S
H469 C463 0.930 . S
H470 C465 0.930 . S
N471 Cu460 1.985 . S
N471 C473 1.335 . S
N471 C474 1.390 . S
N472 C473 1.345 . S
N472 C475 1.336 . S
C473 N471 1.335 . S
C473 N472 1.345 . S
C473 H478 0.930 . S
C474 N471 1.390 . S
C474 C475 1.346 . S
C474 H479 0.930 . S
C475 N472 1.336 . S
C475 C474 1.346 . S
C475 H482 0.929 . S
C476 O466 1.282 . S
C476 O477 1.216 . S
O477 C476 1.216 . S
H478 C473 0.930 . S
H479 C474 0.930 . S
O480 Cu460 1.959 . S
O480 C467 1.251 . S
H481 C464 0.930 . S
H482 C475 0.929 . S
Cu483 N484 1.999 . S
Cu483 O489 1.974 . S
Cu483 N494 1.985 . S
Cu483 O503 1.959 . S
N484 Cu483 1.999 . S
N484 C486 1.263 . S
N484 C488 1.389 . S
N485 C486 1.358 . S
N485 C487 1.400 . S
C486 N484 1.263 . S
C486 N485 1.358 . S
C486 H492 0.930 . S
C487 N485 1.400 . S
C487 C488 1.351 . S
C487 H504 0.930 . S
C488 N484 1.389 . S
C488 C487 1.351 . S
C488 H493 0.930 . S
O489 Cu483 1.974 . S
O489 C499 1.282 . S
C490 O491 1.261 . S
C490 O503 1.251 . S
O491 C490 1.261 . S
H492 C486 0.930 . S
H493 C488 0.930 . S
N494 Cu483 1.985 . S
N494 C496 1.335 . S
N494 C497 1.390 . S
N495 C496 1.345 . S
N495 C498 1.336 . S
C496 N494 1.335 . S
C496 N495 1.345 . S
C496 H501 0.930 . S
C497 N494 1.390 . S
C497 C498 1.346 . S
C497 H502 0.930 . S
C498 N495 1.336 . S
C498 C497 1.346 . S
C498 H505 0.929 . S
C499 O489 1.282 . S
C499 O500 1.216 . S
O500 C499 1.216 . S
H501 C496 0.930 . S
H502 C497 0.930 . S
O503 Cu483 1.959 . S
O503 C490 1.251 . S
H504 C487 0.930 . S
H505 C498 0.929 . S
Cu506 N507 1.999 . S
Cu506 O512 1.974 . S
Cu506 N517 1.985 . S
Cu506 O526 1.959 . S
N507 Cu506 1.999 . S
N507 C509 1.263 . S
N507 C511 1.389 . S
N508 C509 1.358 . S
N508 C510 1.400 . S
C509 N507 1.263 . S
C509 N508 1.358 . S
C509 H515 0.930 . S
C510 N508 1.400 . S
C510 C511 1.351 . S
C510 H527 0.930 . S
C511 N507 1.389 . S
C511 C510 1.351 . S
C511 H516 0.930 . S
O512 Cu506 1.974 . S
O512 C522 1.282 . S
C513 O514 1.261 . S
C513 O526 1.251 . S
O514 C513 1.261 . S
H515 C509 0.930 . S
H516 C511 0.930 . S
N517 Cu506 1.985 . S
N517 C519 1.335 . S
N517 C520 1.390 . S
N518 C519 1.345 . S
N518 C521 1.336 . S
C519 N517 1.335 . S
C519 N518 1.345 . S
C519 H524 0.930 . S
C520 N517 1.390 . S
C520 C521 1.346 . S
C520 H525 0.930 . S
C521 N518 1.336 . S
C521 C520 1.346 . S
C521 H528 0.929 . S
C522 O512 1.282 . S
C522 O523 1.216 . S
O523 C522 1.216 . S
H524 C519 0.930 . S
H525 C520 0.930 . S
O526 Cu506 1.959 . S
O526 C513 1.251 . S
H527 C510 0.930 . S
H528 C521 0.929 . S
Cu529 N530 1.999 . S
Cu529 O535 1.974 . S
Cu529 N540 1.985 . S
Cu529 O549 1.959 . S
N530 Cu529 1.999 . S
N530 C532 1.263 . S
N530 C534 1.389 . S
N531 C532 1.358 . S
N531 C533 1.400 . S
C532 N530 1.263 . S
C532 N531 1.358 . S
C532 H538 0.930 . S
C533 N531 1.400 . S
C533 C534 1.351 . S
C533 H550 0.930 . S
C534 N530 1.389 . S
C534 C533 1.351 . S
C534 H539 0.930 . S
O535 Cu529 1.974 . S
O535 C545 1.282 . S
C536 O537 1.261 . S
C536 O549 1.251 . S
O537 C536 1.261 . S
H538 C532 0.930 . S
H539 C534 0.930 . S
N540 Cu529 1.985 . S
N540 C542 1.335 . S
N540 C543 1.390 . S
N541 C542 1.345 . S
N541 C544 1.336 . S
C542 N540 1.335 . S
C542 N541 1.345 . S
C542 H547 0.930 . S
C543 N540 1.390 . S
C543 C544 1.346 . S
C543 H548 0.930 . S
C544 N541 1.336 . S
C544 C543 1.346 . S
C544 H551 0.929 . S
C545 O535 1.282 . S
C545 O546 1.216 . S
O546 C545 1.216 . S
H547 C542 0.930 . S
H548 C543 0.930 . S
O549 Cu529 1.959 . S
O549 C536 1.251 . S
H550 C533 0.930 . S
H551 C544 0.929 . S
Cu552 N553 1.999 . S
Cu552 O558 1.974 . S
Cu552 N563 1.985 . S
Cu552 O572 1.959 1_554 S
N553 Cu552 1.999 . S
N553 C555 1.263 . S
N553 C557 1.389 1_554 S
N554 C555 1.358 . S
N554 C556 1.400 1_554 S
C555 N553 1.263 . S
C555 N554 1.358 . S
C555 H561 0.930 . S
C556 N554 1.400 1_556 S
C556 C557 1.351 . S
C556 H573 0.930 . S
C557 N553 1.389 1_556 S
C557 C556 1.351 . S
C557 H562 0.930 . S
O558 Cu552 1.974 . S
O558 C568 1.282 . S
C559 O560 1.261 . S
C559 O572 1.251 . S
O560 C559 1.261 . S
H561 C555 0.930 . S
H562 C557 0.930 . S
N563 Cu552 1.985 . S
N563 C565 1.337 . S
N563 C566 1.390 . S
N564 C565 1.346 . S
N564 C567 1.336 . S
C565 N563 1.337 . S
C565 N564 1.346 . S
C565 H570 0.927 1_554 S
C566 N563 1.390 . S
C566 C567 1.346 . S
C566 H571 0.930 . S
C567 N564 1.336 . S
C567 C566 1.346 . S
C567 H574 0.929 . S
C568 O558 1.282 . S
C568 O569 1.216 . S
O569 C568 1.216 . S
H570 C565 0.927 1_556 S
H571 C566 0.930 . S
O572 Cu552 1.959 1_556 S
O572 C559 1.251 . S
H573 C556 0.930 . S
H574 C567 0.929 . S
Cu575 N576 1.999 . S
Cu575 O581 1.974 . S
Cu575 N586 1.985 . S
Cu575 O595 1.959 1_554 S
N576 Cu575 1.999 . S
N576 C578 1.263 . S
N576 C580 1.389 1_554 S
N577 C578 1.358 . S
N577 C579 1.400 1_554 S
C578 N576 1.263 . S
C578 N577 1.358 . S
C578 H584 0.930 . S
C579 N577 1.400 1_556 S
C579 C580 1.351 . S
C579 H596 0.930 . S
C580 N576 1.389 1_556 S
C580 C579 1.351 . S
C580 H585 0.930 . S
O581 Cu575 1.974 . S
O581 C591 1.282 . S
C582 O583 1.261 . S
C582 O595 1.251 . S
O583 C582 1.261 . S
H584 C578 0.930 . S
H585 C580 0.930 . S
N586 Cu575 1.985 . S
N586 C588 1.337 . S
N586 C589 1.390 . S
N587 C588 1.346 . S
N587 C590 1.336 . S
C588 N586 1.337 . S
C588 N587 1.346 . S
C588 H593 0.928 1_554 S
C589 N586 1.390 . S
C589 C590 1.346 . S
C589 H594 0.930 . S
C590 N587 1.336 . S
C590 C589 1.346 . S
C590 H597 0.929 . S
C591 O581 1.282 . S
C591 O592 1.216 . S
O592 C591 1.216 . S
H593 C588 0.928 1_556 S
H594 C589 0.930 . S
O595 Cu575 1.959 1_556 S
O595 C582 1.251 . S
H596 C579 0.930 . S
H597 C590 0.929 . S
Cu598 N599 1.999 . S
Cu598 O604 1.974 . S
Cu598 N609 1.985 . S
Cu598 O618 1.959 . S
N599 Cu598 1.999 . S
N599 C601 1.263 . S
N599 C603 1.389 . S
N600 C601 1.358 . S
N600 C602 1.400 . S
C601 N599 1.263 . S
C601 N600 1.358 . S
C601 H607 0.930 . S
C602 N600 1.400 . S
C602 C603 1.351 . S
C602 H619 0.930 . S
C603 N599 1.389 . S
C603 C602 1.351 . S
C603 H608 0.930 . S
O604 Cu598 1.974 . S
O604 C614 1.282 . S
C605 O606 1.261 . S
C605 O618 1.251 . S
O606 C605 1.261 . S
H607 C601 0.930 . S
H608 C603 0.930 . S
N609 Cu598 1.985 . S
N609 C611 1.335 . S
N609 C612 1.390 . S
N610 C611 1.345 . S
N610 C613 1.336 . S
C611 N609 1.335 . S
C611 N610 1.345 . S
C611 H616 0.930 . S
C612 N609 1.390 . S
C612 C613 1.346 . S
C612 H617 0.930 . S
C613 N610 1.336 . S
C613 C612 1.346 . S
C613 H620 0.929 . S
C614 O604 1.282 . S
C614 O615 1.216 . S
O615 C614 1.216 . S
H616 C611 0.930 . S
H617 C612 0.930 . S
O618 Cu598 1.959 . S
O618 C605 1.251 . S
H619 C602 0.930 . S
H620 C613 0.929 . S
Cu621 N622 1.999 . S
Cu621 O627 1.974 . S
Cu621 N632 1.985 . S
Cu621 O641 1.959 . S
N622 Cu621 1.999 . S
N622 C624 1.263 . S
N622 C626 1.389 . S
N623 C624 1.358 . S
N623 C625 1.400 . S
C624 N622 1.263 . S
C624 N623 1.358 . S
C624 H630 0.930 . S
C625 N623 1.400 . S
C625 C626 1.351 . S
C625 H642 0.930 . S
C626 N622 1.389 . S
C626 C625 1.351 . S
C626 H631 0.930 . S
O627 Cu621 1.974 . S
O627 C637 1.282 . S
C628 O629 1.261 . S
C628 O641 1.251 . S
O629 C628 1.261 . S
H630 C624 0.930 . S
H631 C626 0.930 . S
N632 Cu621 1.985 . S
N632 C634 1.335 . S
N632 C635 1.390 . S
N633 C634 1.345 . S
N633 C636 1.336 . S
C634 N632 1.335 . S
C634 N633 1.345 . S
C634 H639 0.930 . S
C635 N632 1.390 . S
C635 C636 1.346 . S
C635 H640 0.930 . S
C636 N633 1.336 . S
C636 C635 1.346 . S
C636 H643 0.929 . S
C637 O627 1.282 . S
C637 O638 1.216 . S
O638 C637 1.216 . S
H639 C634 0.930 . S
H640 C635 0.930 . S
O641 Cu621 1.959 . S
O641 C628 1.251 . S
H642 C625 0.930 . S
H643 C636 0.929 . S
Cu644 N645 1.999 . S
Cu644 O650 1.974 . S
Cu644 N655 1.985 . S
Cu644 O664 1.959 1_556 S
N645 Cu644 1.999 . S
N645 C647 1.263 . S
N645 C649 1.389 1_556 S
N646 C647 1.358 . S
N646 C648 1.400 1_556 S
C647 N645 1.263 . S
C647 N646 1.358 . S
C647 H653 0.930 . S
C648 N646 1.400 1_554 S
C648 C649 1.351 . S
C648 H665 0.930 . S
C649 N645 1.389 1_554 S
C649 C648 1.351 . S
C649 H654 0.930 . S
O650 Cu644 1.974 . S
O650 C660 1.282 . S
C651 O652 1.261 . S
C651 O664 1.251 . S
O652 C651 1.261 . S
H653 C647 0.930 . S
H654 C649 0.930 . S
N655 Cu644 1.985 . S
N655 C657 1.337 . S
N655 C658 1.390 . S
N656 C657 1.346 . S
N656 C659 1.336 . S
C657 N655 1.337 . S
C657 N656 1.346 . S
C657 H662 0.927 1_556 S
C658 N655 1.390 . S
C658 C659 1.346 . S
C658 H663 0.930 . S
C659 N656 1.336 . S
C659 C658 1.346 . S
C659 H666 0.929 . S
C660 O650 1.282 . S
C660 O661 1.216 . S
O661 C660 1.216 . S
H662 C657 0.927 1_554 S
H663 C658 0.930 . S
O664 Cu644 1.959 1_554 S
O664 C651 1.251 . S
H665 C648 0.930 . S
H666 C659 0.929 . S
Cu667 N668 1.999 . S
Cu667 O673 1.974 . S
Cu667 N678 1.985 . S
Cu667 O687 1.959 1_556 S
N668 Cu667 1.999 . S
N668 C670 1.263 . S
N668 C672 1.389 1_556 S
N669 C670 1.358 . S
N669 C671 1.400 1_556 S
C670 N668 1.263 . S
C670 N669 1.358 . S
C670 H676 0.930 . S
C671 N669 1.400 1_554 S
C671 C672 1.351 . S
C671 H688 0.930 . S
C672 N668 1.389 1_554 S
C672 C671 1.351 . S
C672 H677 0.930 . S
O673 Cu667 1.974 . S
O673 C683 1.282 . S
C674 O675 1.261 . S
C674 O687 1.251 . S
O675 C674 1.261 . S
H676 C670 0.930 . S
H677 C672 0.930 . S
N678 Cu667 1.985 . S
N678 C680 1.337 . S
N678 C681 1.390 . S
N679 C680 1.346 . S
N679 C682 1.336 . S
C680 N678 1.337 . S
C680 N679 1.346 . S
C680 H685 0.928 1_556 S
C681 N678 1.390 . S
C681 C682 1.346 . S
C681 H686 0.930 . S
C682 N679 1.336 . S
C682 C681 1.346 . S
C682 H689 0.929 . S
C683 O673 1.282 . S
C683 O684 1.216 . S
O684 C683 1.216 . S
H685 C680 0.928 1_554 S
H686 C681 0.930 . S
O687 Cu667 1.959 1_554 S
O687 C674 1.251 . S
H688 C671 0.930 . S
H689 C682 0.929 . S
Cu690 N691 1.999 . S
Cu690 O696 1.974 . S
Cu690 N701 1.985 . S
Cu690 O710 1.959 . S
N691 Cu690 1.999 . S
N691 C693 1.263 . S
N691 C695 1.389 . S
N692 C693 1.358 . S
N692 C694 1.400 . S
C693 N691 1.263 . S
C693 N692 1.358 . S
C693 H699 0.930 . S
C694 N692 1.400 . S
C694 C695 1.351 . S
C694 H711 0.930 . S
C695 N691 1.389 . S
C695 C694 1.351 . S
C695 H700 0.930 . S
O696 Cu690 1.974 . S
O696 C706 1.282 . S
C697 O698 1.261 . S
C697 O710 1.251 . S
O698 C697 1.261 . S
H699 C693 0.930 . S
H700 C695 0.930 . S
N701 Cu690 1.985 . S
N701 C703 1.335 . S
N701 C704 1.390 . S
N702 C703 1.345 . S
N702 C705 1.336 . S
C703 N701 1.335 . S
C703 N702 1.345 . S
C703 H708 0.930 . S
C704 N701 1.390 . S
C704 C705 1.346 . S
C704 H709 0.930 . S
C705 N702 1.336 . S
C705 C704 1.346 . S
C705 H712 0.929 . S
C706 O696 1.282 . S
C706 O707 1.216 . S
O707 C706 1.216 . S
H708 C703 0.930 . S
H709 C704 0.930 . S
O710 Cu690 1.959 . S
O710 C697 1.251 . S
H711 C694 0.930 . S
H712 C705 0.929 . S
Cu713 N714 1.999 . S
Cu713 O719 1.974 . S
Cu713 N724 1.985 . S
Cu713 O733 1.959 . S
N714 Cu713 1.999 . S
N714 C716 1.263 . S
N714 C718 1.389 . S
N715 C716 1.358 . S
N715 C717 1.400 . S
C716 N714 1.263 . S
C716 N715 1.358 . S
C716 H722 0.930 . S
C717 N715 1.400 . S
C717 C718 1.351 . S
C717 H734 0.930 . S
C718 N714 1.389 . S
C718 C717 1.351 . S
C718 H723 0.930 . S
O719 Cu713 1.974 . S
O719 C729 1.282 . S
C720 O721 1.261 . S
C720 O733 1.251 . S
O721 C720 1.261 . S
H722 C716 0.930 . S
H723 C718 0.930 . S
N724 Cu713 1.985 . S
N724 C726 1.335 . S
N724 C727 1.390 . S
N725 C726 1.345 . S
N725 C728 1.336 . S
C726 N724 1.335 . S
C726 N725 1.345 . S
C726 H731 0.930 . S
C727 N724 1.390 . S
C727 C728 1.346 . S
C727 H732 0.930 . S
C728 N725 1.336 . S
C728 C727 1.346 . S
C728 H735 0.929 . S
C729 O719 1.282 . S
C729 O730 1.216 . S
O730 C729 1.216 . S
H731 C726 0.930 . S
H732 C727 0.930 . S
O733 Cu713 1.959 . S
O733 C720 1.251 . S
H734 C717 0.930 . S
H735 C728 0.929 . S
H736 C744 0.950 . S
H737 C749 0.950 . S
H738 C746 0.950 . S
H739 C748 0.950 . S
H740 C750 0.950 . S
H741 C752 0.950 . S
H742 C754 0.950 . S
H743 C755 0.950 . S
C744 H736 0.950 . S
C744 C745 1.386 . S
C744 C746 1.391 . S
C745 C744 1.386 . S
C745 C749 1.393 . S
C746 H738 0.950 . S
C746 C744 1.391 . S
C746 C747 1.400 . S
C747 C746 1.400 . S
C747 C748 1.398 . S
C747 C753 1.491 . S
C748 H739 0.950 . S
C748 C747 1.398 . S
C748 C749 1.391 . S
C749 H737 0.950 . S
C749 C745 1.393 . S
C749 C748 1.391 . S
C750 H740 0.950 . S
C750 C751 1.386 . S
C750 C752 1.391 . S
C751 C750 1.386 . S
C751 C755 1.393 . S
C752 H741 0.950 . S
C752 C750 1.391 . S
C752 C753 1.400 . S
C753 C747 1.491 . S
C753 C752 1.400 . S
C753 C754 1.398 . S
C754 H742 0.950 . S
C754 C753 1.398 . S
C754 C755 1.391 . S
C755 H743 0.950 . S
C755 C751 1.393 . S
C755 C754 1.391 . S
H756 C764 0.950 . S
H757 C769 0.950 . S
H758 C766 0.950 . S
H759 C768 0.950 . S
H760 C770 0.950 . S
H761 C772 0.950 . S
H762 C774 0.950 . S
H763 C775 0.950 . S
C764 H756 0.950 . S
C764 C765 1.386 . S
C764 C766 1.391 . S
C765 C764 1.386 . S
C765 C769 1.393 . S
C766 H758 0.950 . S
C766 C764 1.391 . S
C766 C767 1.400 . S
C767 C766 1.400 . S
C767 C768 1.398 . S
C767 C773 1.491 . S
C768 H759 0.950 . S
C768 C767 1.398 . S
C768 C769 1.391 . S
C769 H757 0.950 . S
C769 C765 1.393 . S
C769 C768 1.391 . S
C770 H760 0.950 . S
C770 C771 1.386 . S
C770 C772 1.391 . S
C771 C770 1.386 . S
C771 C775 1.393 . S
C772 H761 0.950 . S
C772 C770 1.391 . S
C772 C773 1.400 . S
C773 C767 1.491 . S
C773 C772 1.400 . S
C773 C774 1.398 . S
C774 H762 0.950 . S
C774 C773 1.398 . S
C774 C775 1.391 . S
C775 H763 0.950 . S
C775 C771 1.393 . S
C775 C774 1.391 . S
H776 C784 0.950 . S
H777 C789 0.950 . S
H778 C786 0.950 . S
H779 C788 0.950 . S
H780 C790 0.950 . S
H781 C792 0.950 . S
H782 C794 0.950 . S
H783 C795 0.950 . S
C784 H776 0.950 . S
C784 C785 1.386 . S
C784 C786 1.391 . S
C785 C784 1.386 . S
C785 C789 1.393 . S
C786 H778 0.950 . S
C786 C784 1.391 . S
C786 C787 1.400 . S
C787 C786 1.400 . S
C787 C788 1.398 . S
C787 C793 1.491 . S
C788 H779 0.950 . S
C788 C787 1.398 . S
C788 C789 1.391 . S
C789 H777 0.950 . S
C789 C785 1.393 . S
C789 C788 1.391 . S
C790 H780 0.950 . S
C790 C791 1.386 . S
C790 C792 1.391 . S
C791 C790 1.386 . S
C791 C795 1.393 . S
C792 H781 0.950 . S
C792 C790 1.391 . S
C792 C793 1.400 . S
C793 C787 1.491 . S
C793 C792 1.400 . S
C793 C794 1.398 . S
C794 H782 0.950 . S
C794 C793 1.398 . S
C794 C795 1.391 . S
C795 H783 0.950 . S
C795 C791 1.393 . S
C795 C794 1.391 . S
H796 C804 0.950 . S
H797 C809 0.950 . S
H798 C806 0.950 . S
H799 C808 0.950 . S
H800 C810 0.950 . S
H801 C812 0.950 . S
H802 C814 0.950 . S
H803 C815 0.950 1_455 S
C804 H796 0.950 . S
C804 C805 1.386 . S
C804 C806 1.391 . S
C805 C804 1.386 . S
C805 C809 1.393 . S
C806 H798 0.950 . S
C806 C804 1.391 . S
C806 C807 1.400 . S
C807 C806 1.400 . S
C807 C808 1.398 . S
C807 C813 1.491 . S
C808 H799 0.950 . S
C808 C807 1.398 . S
C808 C809 1.391 . S
C809 H797 0.950 . S
C809 C805 1.393 . S
C809 C808 1.391 . S
C810 H800 0.950 . S
C810 C811 1.386 . S
C810 C812 1.391 . S
C811 C810 1.386 . S
C811 C815 1.393 . S
C812 H801 0.950 . S
C812 C810 1.391 . S
C812 C813 1.400 . S
C813 C807 1.491 . S
C813 C812 1.400 . S
C813 C814 1.398 . S
C814 H802 0.950 . S
C814 C813 1.398 . S
C814 C815 1.391 . S
C815 H803 0.950 1_655 S
C815 C811 1.393 . S
C815 C814 1.391 . S
H816 C824 0.950 . S
H817 C829 0.950 . S
H818 C826 0.950 . S
H819 C828 0.950 . S
H820 C830 0.950 . S
H821 C832 0.950 . S
H822 C834 0.950 . S
H823 C835 0.950 . S
C824 H816 0.950 . S
C824 C825 1.386 . S
C824 C826 1.391 . S
C825 C824 1.386 . S
C825 C829 1.393 . S
C826 H818 0.950 . S
C826 C824 1.391 . S
C826 C827 1.400 . S
C827 C826 1.400 . S
C827 C828 1.398 . S
C827 C833 1.491 . S
C828 H819 0.950 . S
C828 C827 1.398 . S
C828 C829 1.391 . S
C829 H817 0.950 . S
C829 C825 1.393 . S
C829 C828 1.391 . S
C830 H820 0.950 . S
C830 C831 1.386 . S
C830 C832 1.391 . S
C831 C830 1.386 . S
C831 C835 1.393 . S
C832 H821 0.950 . S
C832 C830 1.391 . S
C832 C833 1.400 . S
C833 C827 1.491 . S
C833 C832 1.400 . S
C833 C834 1.398 . S
C834 H822 0.950 . S
C834 C833 1.398 . S
C834 C835 1.391 . S
C835 H823 0.950 . S
C835 C831 1.393 . S
C835 C834 1.391 . S
H836 C844 0.950 . S
H837 C849 0.938 1_655 S
H838 C846 0.950 . S
H839 C848 0.950 . S
H840 C850 0.950 . S
H841 C852 0.950 . S
H842 C854 0.950 . S
H843 C855 0.950 . S
C844 H836 0.950 . S
C844 C845 1.386 . S
C844 C846 1.391 . S
C845 C844 1.386 . S
C845 C849 1.393 . S
C846 H838 0.950 . S
C846 C844 1.391 . S
C846 C847 1.400 . S
C847 C846 1.400 . S
C847 C848 1.398 . S
C847 C853 1.491 . S
C848 H839 0.950 . S
C848 C847 1.398 . S
C848 C849 1.391 . S
C849 H837 0.938 1_455 S
C849 C845 1.393 . S
C849 C848 1.391 . S
C850 H840 0.950 . S
C850 C851 1.386 . S
C850 C852 1.391 . S
C851 C850 1.386 . S
C851 C855 1.393 . S
C852 H841 0.950 . S
C852 C850 1.391 . S
C852 C853 1.400 . S
C853 C847 1.491 . S
C853 C852 1.400 . S
C853 C854 1.398 . S
C854 H842 0.950 . S
C854 C853 1.398 . S
C854 C855 1.391 . S
C855 H843 0.950 . S
C855 C851 1.393 . S
C855 C854 1.391 . S
H856 C864 0.950 . S
H857 C869 0.943 1_455 S
H858 C866 0.950 . S
H859 C868 0.950 . S
H860 C870 0.950 . S
H861 C872 0.950 . S
H862 C874 0.950 . S
H863 C875 0.950 . S
C864 H856 0.950 . S
C864 C865 1.386 . S
C864 C866 1.391 . S
C865 C864 1.386 . S
C865 C869 1.393 . S
C866 H858 0.950 . S
C866 C864 1.391 . S
C866 C867 1.400 . S
C867 C866 1.400 . S
C867 C868 1.398 . S
C867 C873 1.491 . S
C868 H859 0.950 . S
C868 C867 1.398 . S
C868 C869 1.391 . S
C869 H857 0.943 1_655 S
C869 C865 1.393 . S
C869 C868 1.391 . S
C870 H860 0.950 . S
C870 C871 1.386 . S
C870 C872 1.391 . S
C871 C870 1.386 . S
C871 C875 1.393 . S
C872 H861 0.950 . S
C872 C870 1.391 . S
C872 C873 1.400 . S
C873 C867 1.491 . S
C873 C872 1.400 . S
C873 C874 1.398 . S
C874 H862 0.950 . S
C874 C873 1.398 . S
C874 C875 1.391 . S
C875 H863 0.950 . S
C875 C871 1.393 . S
C875 C874 1.391 . S
H876 C884 0.950 . S
H877 C889 0.950 . S
H878 C886 0.950 . S
H879 C888 0.950 . S
H880 C890 0.950 . S
H881 C892 0.950 . S
H882 C894 0.950 . S
H883 C895 0.950 . S
C884 H876 0.950 . S
C884 C885 1.386 . S
C884 C886 1.391 . S
C885 C884 1.386 . S
C885 C889 1.393 . S
C886 H878 0.950 . S
C886 C884 1.391 . S
C886 C887 1.400 . S
C887 C886 1.400 . S
C887 C888 1.398 . S
C887 C893 1.491 . S
C888 H879 0.950 . S
C888 C887 1.398 . S
C888 C889 1.391 . S
C889 H877 0.950 . S
C889 C885 1.393 . S
C889 C888 1.391 . S
C890 H880 0.950 . S
C890 C891 1.386 . S
C890 C892 1.391 . S
C891 C890 1.386 . S
C891 C895 1.393 . S
C892 H881 0.950 . S
C892 C890 1.391 . S
C892 C893 1.400 . S
C893 C887 1.491 . S
C893 C892 1.400 . S
C893 C894 1.398 . S
C894 H882 0.950 . S
C894 C893 1.398 . S
C894 C895 1.391 . S
C895 H883 0.950 . S
C895 C891 1.393 . S
C895 C894 1.391 . S
H896 C904 0.950 . S
H897 C909 0.950 . S
H898 C906 0.950 . S
H899 C908 0.950 . S
H900 C910 0.950 . S
H901 C912 0.950 . S
H902 C914 0.950 . S
H903 C915 0.950 . S
C904 H896 0.950 . S
C904 C905 1.386 . S
C904 C906 1.391 . S
C905 C904 1.386 . S
C905 C909 1.393 . S
C906 H898 0.950 . S
C906 C904 1.391 . S
C906 C907 1.400 . S
C907 C906 1.400 . S
C907 C908 1.398 . S
C907 C913 1.491 . S
C908 H899 0.950 . S
C908 C907 1.398 . S
C908 C909 1.391 . S
C909 H897 0.950 . S
C909 C905 1.393 . S
C909 C908 1.391 . S
C910 H900 0.950 . S
C910 C911 1.386 . S
C910 C912 1.391 . S
C911 C910 1.386 . S
C911 C915 1.393 . S
C912 H901 0.950 . S
C912 C910 1.391 . S
C912 C913 1.400 . S
C913 C907 1.491 . S
C913 C912 1.400 . S
C913 C914 1.398 . S
C914 H902 0.950 . S
C914 C913 1.398 . S
C914 C915 1.391 . S
C915 H903 0.950 . S
C915 C911 1.393 . S
C915 C914 1.391 . S
H916 C924 0.950 . S
H917 C929 0.950 . S
H918 C926 0.950 . S
H919 C928 0.950 . S
H920 C930 0.950 . S
H921 C932 0.950 . S
H922 C934 0.950 . S
H923 C935 0.950 . S
C924 H916 0.950 . S
C924 C925 1.386 . S
C924 C926 1.391 . S
C925 C924 1.386 . S
C925 C929 1.393 . S
C926 H918 0.950 . S
C926 C924 1.391 . S
C926 C927 1.400 . S
C927 C926 1.400 . S
C927 C928 1.398 . S
C927 C933 1.491 . S
C928 H919 0.950 . S
C928 C927 1.398 . S
C928 C929 1.391 . S
C929 H917 0.950 . S
C929 C925 1.393 . S
C929 C928 1.391 . S
C930 H920 0.950 . S
C930 C931 1.386 . S
C930 C932 1.391 . S
C931 C930 1.386 . S
C931 C935 1.393 . S
C932 H921 0.950 . S
C932 C930 1.391 . S
C932 C933 1.400 . S
C933 C927 1.491 . S
C933 C932 1.400 . S
C933 C934 1.398 . S
C934 H922 0.950 . S
C934 C933 1.398 . S
C934 C935 1.391 . S
C935 H923 0.950 . S
C935 C931 1.393 . S
C935 C934 1.391 . S
H936 C944 0.950 . S
H937 C949 0.950 . S
H938 C946 0.950 . S
H939 C948 0.950 . S
H940 C950 0.950 . S
H941 C952 0.950 . S
H942 C954 0.950 . S
H943 C955 0.950 . S
C944 H936 0.950 . S
C944 C945 1.386 . S
C944 C946 1.391 . S
C945 C944 1.386 . S
C945 C949 1.393 . S
C946 H938 0.950 . S
C946 C944 1.391 . S
C946 C947 1.400 . S
C947 C946 1.400 . S
C947 C948 1.398 . S
C947 C953 1.491 . S
C948 H939 0.950 . S
C948 C947 1.398 . S
C948 C949 1.391 . S
C949 H937 0.950 . S
C949 C945 1.393 . S
C949 C948 1.391 . S
C950 H940 0.950 . S
C950 C951 1.386 . S
C950 C952 1.391 . S
C951 C950 1.386 . S
C951 C955 1.393 . S
C952 H941 0.950 . S
C952 C950 1.391 . S
C952 C953 1.400 . S
C953 C947 1.491 . S
C953 C952 1.400 . S
C953 C954 1.398 . S
C954 H942 0.950 . S
C954 C953 1.398 . S
C954 C955 1.391 . S
C955 H943 0.950 . S
C955 C951 1.393 . S
C955 C954 1.391 . S
H956 C964 0.950 . S
H957 C969 0.950 . S
H958 C966 0.950 . S
H959 C968 0.950 . S
H960 C970 0.950 . S
H961 C972 0.950 . S
H962 C974 0.950 . S
H963 C975 0.950 . S
C964 H956 0.950 . S
C964 C965 1.386 . S
C964 C966 1.391 . S
C965 C964 1.386 . S
C965 C969 1.393 . S
C966 H958 0.950 . S
C966 C964 1.391 . S
C966 C967 1.400 . S
C967 C966 1.400 . S
C967 C968 1.398 . S
C967 C973 1.491 . S
C968 H959 0.950 . S
C968 C967 1.398 . S
C968 C969 1.391 . S
C969 H957 0.950 . S
C969 C965 1.393 . S
C969 C968 1.391 . S
C970 H960 0.950 . S
C970 C971 1.386 . S
C970 C972 1.391 . S
C971 C970 1.386 . S
C971 C975 1.393 . S
C972 H961 0.950 . S
C972 C970 1.391 . S
C972 C973 1.400 . S
C973 C967 1.491 . S
C973 C972 1.400 . S
C973 C974 1.398 . S
C974 H962 0.950 . S
C974 C973 1.398 . S
C974 C975 1.391 . S
C975 H963 0.950 . S
C975 C971 1.393 . S
C975 C974 1.391 . S
H976 C984 0.950 . S
H977 C989 0.950 . S
H978 C986 0.950 . S
H979 C988 0.950 . S
H980 C990 0.950 . S
H981 C992 0.950 . S
H982 C994 0.950 . S
H983 C995 0.950 . S
C984 H976 0.950 . S
C984 C985 1.386 . S
C984 C986 1.391 . S
C985 C984 1.386 . S
C985 C989 1.393 . S
C986 H978 0.950 . S
C986 C984 1.391 . S
C986 C987 1.400 . S
C987 C986 1.400 . S
C987 C988 1.398 . S
C987 C993 1.491 . S
C988 H979 0.950 . S
C988 C987 1.398 . S
C988 C989 1.391 . S
C989 H977 0.950 . S
C989 C985 1.393 . S
C989 C988 1.391 . S
C990 H980 0.950 . S
C990 C991 1.386 . S
C990 C992 1.391 . S
C991 C990 1.386 . S
C991 C995 1.393 . S
C992 H981 0.950 . S
C992 C990 1.391 . S
C992 C993 1.400 . S
C993 C987 1.491 . S
C993 C992 1.400 . S
C993 C994 1.398 . S
C994 H982 0.950 . S
C994 C993 1.398 . S
C994 C995 1.391 . S
C995 H983 0.950 . S
C995 C991 1.393 . S
C995 C994 1.391 . S
H996 C1004 0.950 . S
H997 C1009 0.950 . S
H998 C1006 0.950 . S
H999 C1008 0.950 . S
H1000 C1010 0.950 . S
H1001 C1012 0.950 . S
H1002 C1014 0.950 . S
H1003 C1015 0.950 . S
C1004 H996 0.950 . S
C1004 C1005 1.386 . S
C1004 C1006 1.391 . S
C1005 C1004 1.386 . S
C1005 C1009 1.393 . S
C1006 H998 0.950 . S
C1006 C1004 1.391 . S
C1006 C1007 1.400 . S
C1007 C1006 1.400 . S
C1007 C1008 1.398 . S
C1007 C1013 1.491 . S
C1008 H999 0.950 . S
C1008 C1007 1.398 . S
C1008 C1009 1.391 . S
C1009 H997 0.950 . S
C1009 C1005 1.393 . S
C1009 C1008 1.391 . S
C1010 H1000 0.950 . S
C1010 C1011 1.386 . S
C1010 C1012 1.391 . S
C1011 C1010 1.386 . S
C1011 C1015 1.393 . S
C1012 H1001 0.950 . S
C1012 C1010 1.391 . S
C1012 C1013 1.400 . S
C1013 C1007 1.491 . S
C1013 C1012 1.400 . S
C1013 C1014 1.398 . S
C1014 H1002 0.950 . S
C1014 C1013 1.398 . S
C1014 C1015 1.391 . S
C1015 H1003 0.950 . S
C1015 C1011 1.393 . S
C1015 C1014 1.391 . S
H1016 C1024 0.950 . S
H1017 C1029 0.950 . S
H1018 C1026 0.950 . S
H1019 C1028 0.950 . S
H1020 C1030 0.950 . S
H1021 C1032 0.950 . S
H1022 C1034 0.950 . S
H1023 C1035 0.950 . S
C1024 H1016 0.950 . S
C1024 C1025 1.386 . S
C1024 C1026 1.391 . S
C1025 C1024 1.386 . S
C1025 C1029 1.393 . S
C1026 H1018 0.950 . S
C1026 C1024 1.391 . S
C1026 C1027 1.400 . S
C1027 C1026 1.400 . S
C1027 C1028 1.398 . S
C1027 C1033 1.491 . S
C1028 H1019 0.950 . S
C1028 C1027 1.398 . S
C1028 C1029 1.391 . S
C1029 H1017 0.950 . S
C1029 C1025 1.393 . S
C1029 C1028 1.391 . S
C1030 H1020 0.950 . S
C1030 C1031 1.386 . S
C1030 C1032 1.391 . S
C1031 C1030 1.386 . S
C1031 C1035 1.393 . S
C1032 H1021 0.950 . S
C1032 C1030 1.391 . S
C1032 C1033 1.400 . S
C1033 C1027 1.491 . S
C1033 C1032 1.400 . S
C1033 C1034 1.398 . S
C1034 H1022 0.950 . S
C1034 C1033 1.398 . S
C1034 C1035 1.391 . S
C1035 H1023 0.950 . S
C1035 C1031 1.393 . S
C1035 C1034 1.391 . S
H1036 C1044 0.950 . S
H1037 C1049 0.950 . S
H1038 C1046 0.950 . S
H1039 C1048 0.950 . S
H1040 C1050 0.950 . S
H1041 C1052 0.950 . S
H1042 C1054 0.950 . S
H1043 C1055 0.950 . S
C1044 H1036 0.950 . S
C1044 C1045 1.386 . S
C1044 C1046 1.391 . S
C1045 C1044 1.386 . S
C1045 C1049 1.393 . S
C1046 H1038 0.950 . S
C1046 C1044 1.391 . S
C1046 C1047 1.400 . S
C1047 C1046 1.400 . S
C1047 C1048 1.398 . S
C1047 C1053 1.491 . S
C1048 H1039 0.950 . S
C1048 C1047 1.398 . S
C1048 C1049 1.391 . S
C1049 H1037 0.950 . S
C1049 C1045 1.393 . S
C1049 C1048 1.391 . S
C1050 H1040 0.950 . S
C1050 C1051 1.386 . S
C1050 C1052 1.391 . S
C1051 C1050 1.386 . S
C1051 C1055 1.393 . S
C1052 H1041 0.950 . S
C1052 C1050 1.391 . S
C1052 C1053 1.400 . S
C1053 C1047 1.491 . S
C1053 C1052 1.400 . S
C1053 C1054 1.398 . S
C1054 H1042 0.950 . S
C1054 C1053 1.398 . S
C1054 C1055 1.391 . S
C1055 H1043 0.950 . S
C1055 C1051 1.393 . S
C1055 C1054 1.391 . S
H1056 C1064 0.950 . S
H1057 C1069 0.950 . S
H1058 C1066 1.009 . S
H1059 C1068 0.950 . S
H1060 C1070 0.950 . S
H1061 C1072 1.009 . S
H1062 C1074 0.950 . S
H1063 C1075 0.950 . S
C1064 H1056 0.950 . S
C1064 C1065 1.386 1_556 S
C1064 C1066 1.391 . S
C1065 C1064 1.386 1_554 S
C1065 C1069 1.393 . S
C1066 H1058 1.009 . S
C1066 C1064 1.391 . S
C1066 C1067 1.394 1_556 S
C1067 C1066 1.394 1_554 S
C1067 C1068 1.405 . S
C1067 C1073 1.490 1_544 S
C1068 H1059 0.950 . S
C1068 C1067 1.405 . S
C1068 C1069 1.391 . S
C1069 H1057 0.950 . S
C1069 C1065 1.393 . S
C1069 C1068 1.391 . S
C1070 H1060 0.950 . S
C1070 C1071 1.386 1_554 S
C1070 C1072 1.391 . S
C1071 C1070 1.386 1_556 S
C1071 C1075 1.393 . S
C1072 H1061 1.009 . S
C1072 C1070 1.391 . S
C1072 C1073 1.394 1_554 S
C1073 C1067 1.490 1_566 S
C1073 C1072 1.394 1_556 S
C1073 C1074 1.405 . S
C1074 H1062 0.950 . S
C1074 C1073 1.405 . S
C1074 C1075 1.391 . S
C1075 H1063 0.950 . S
C1075 C1071 1.393 . S
C1075 C1074 1.391 . S
H1076 C1084 0.950 . S
H1077 C1089 0.950 . S
H1078 C1086 0.950 . S
H1079 C1088 0.950 . S
H1080 C1090 0.950 . S
H1081 C1092 0.950 . S
H1082 C1094 0.950 . S
H1083 C1095 0.950 . S
C1084 H1076 0.950 . S
C1084 C1085 1.386 1_554 S
C1084 C1086 1.391 . S
C1085 C1084 1.386 1_556 S
C1085 C1089 1.393 . S
C1086 H1078 0.950 . S
C1086 C1084 1.391 . S
C1086 C1087 1.377 1_554 S
C1087 C1086 1.377 1_556 S
C1087 C1088 1.424 . S
C1087 C1093 1.488 1_556 S
C1088 H1079 0.950 . S
C1088 C1087 1.424 . S
C1088 C1089 1.391 . S
C1089 H1077 0.950 . S
C1089 C1085 1.393 . S
C1089 C1088 1.391 . S
C1090 H1080 0.950 . S
C1090 C1091 1.386 1_556 S
C1090 C1092 1.391 . S
C1091 C1090 1.386 1_554 S
C1091 C1095 1.393 . S
C1092 H1081 0.950 . S
C1092 C1090 1.391 . S
C1092 C1093 1.376 1_556 S
C1093 C1087 1.488 1_554 S
C1093 C1092 1.376 1_554 S
C1093 C1094 1.425 . S
C1094 H1082 0.950 . S
C1094 C1093 1.425 . S
C1094 C1095 1.391 . S
C1095 H1083 0.950 . S
C1095 C1091 1.393 . S
C1095 C1094 1.391 . S
H1096 C1104 0.950 . S
H1097 C1109 0.950 . S
H1098 C1106 0.950 . S
H1099 C1108 0.950 . S
H1100 C1110 0.950 . S
H1101 C1112 0.950 . S
H1102 C1114 0.950 . S
H1103 C1115 0.950 . S
C1104 H1096 0.950 . S
C1104 C1105 1.386 . S
C1104 C1106 1.391 . S
C1105 C1104 1.386 . S
C1105 C1109 1.393 . S
C1106 H1098 0.950 . S
C1106 C1104 1.391 . S
C1106 C1107 1.400 . S
C1107 C1106 1.400 . S
C1107 C1108 1.398 . S
C1107 C1113 1.491 . S
C1108 H1099 0.950 . S
C1108 C1107 1.398 . S
C1108 C1109 1.391 . S
C1109 H1097 0.950 . S
C1109 C1105 1.393 . S
C1109 C1108 1.391 . S
C1110 H1100 0.950 . S
C1110 C1111 1.386 . S
C1110 C1112 1.391 . S
C1111 C1110 1.386 . S
C1111 C1115 1.393 . S
C1112 H1101 0.950 . S
C1112 C1110 1.391 . S
C1112 C1113 1.400 . S
C1113 C1107 1.491 . S
C1113 C1112 1.400 . S
C1113 C1114 1.398 . S
C1114 H1102 0.950 . S
C1114 C1113 1.398 . S
C1114 C1115 1.391 . S
C1115 H1103 0.950 . S
C1115 C1111 1.393 . S
C1115 C1114 1.391 . S
H1116 C1124 0.950 . S
H1117 C1129 0.950 . S
H1118 C1126 0.950 . S
H1119 C1128 0.950 . S
H1120 C1130 0.950 . S
H1121 C1132 0.950 . S
H1122 C1134 0.950 . S
H1123 C1135 0.950 . S
C1124 H1116 0.950 . S
C1124 C1125 1.386 . S
C1124 C1126 1.391 . S
C1125 C1124 1.386 . S
C1125 C1129 1.393 . S
C1126 H1118 0.950 . S
C1126 C1124 1.391 . S
C1126 C1127 1.400 . S
C1127 C1126 1.400 . S
C1127 C1128 1.398 . S
C1127 C1133 1.491 1_565 S
C1128 H1119 0.950 . S
C1128 C1127 1.398 . S
C1128 C1129 1.391 . S
C1129 H1117 0.950 . S
C1129 C1125 1.393 . S
C1129 C1128 1.391 . S
C1130 H1120 0.950 . S
C1130 C1131 1.386 . S
C1130 C1132 1.391 . S
C1131 C1130 1.386 . S
C1131 C1135 1.393 . S
C1132 H1121 0.950 . S
C1132 C1130 1.391 . S
C1132 C1133 1.400 . S
C1133 C1127 1.491 1_545 S
C1133 C1132 1.400 . S
C1133 C1134 1.398 . S
C1134 H1122 0.950 . S
C1134 C1133 1.398 . S
C1134 C1135 1.391 . S
C1135 H1123 0.950 . S
C1135 C1131 1.393 . S
C1135 C1134 1.391 . S
H1136 C1144 0.950 . S
H1137 C1149 0.950 . S
H1138 C1146 0.950 . S
H1139 C1148 0.950 . S
H1140 C1150 0.950 . S
H1141 C1152 0.950 . S
H1142 C1154 0.950 . S
H1143 C1155 0.950 . S
C1144 H1136 0.950 . S
C1144 C1145 1.386 1_556 S
C1144 C1146 1.391 . S
C1145 C1144 1.386 1_554 S
C1145 C1149 1.393 . S
C1146 H1138 0.950 . S
C1146 C1144 1.391 . S
C1146 C1147 1.397 1_556 S
C1147 C1146 1.397 1_554 S
C1147 C1148 1.401 . S
C1147 C1153 1.490 1_554 S
C1148 H1139 0.950 . S
C1148 C1147 1.401 . S
C1148 C1149 1.391 . S
C1149 H1137 0.950 . S
C1149 C1145 1.393 . S
C1149 C1148 1.391 . S
C1150 H1140 0.950 . S
C1150 C1151 1.386 1_554 S
C1150 C1152 1.391 . S
C1151 C1150 1.386 1_556 S
C1151 C1155 1.393 . S
C1152 H1141 0.950 . S
C1152 C1150 1.391 . S
C1152 C1153 1.396 1_554 S
C1153 C1147 1.490 1_556 S
C1153 C1152 1.396 1_556 S
C1153 C1154 1.402 . S
C1154 H1142 0.950 . S
C1154 C1153 1.402 . S
C1154 C1155 1.391 . S
C1155 H1143 0.950 . S
C1155 C1151 1.393 . S
C1155 C1154 1.391 . S
H1156 C1164 0.950 . S
H1157 C1169 0.950 . S
H1158 C1166 0.950 . S
H1159 C1168 0.950 . S
H1160 C1170 0.950 . S
H1161 C1172 0.950 . S
H1162 C1174 0.950 . S
H1163 C1175 0.950 . S
C1164 H1156 0.950 . S
C1164 C1165 1.386 . S
C1164 C1166 1.391 . S
C1165 C1164 1.386 . S
C1165 C1169 1.393 . S
C1166 H1158 0.950 . S
C1166 C1164 1.391 . S
C1166 C1167 1.400 . S
C1167 C1166 1.400 . S
C1167 C1168 1.398 . S
C1167 C1173 1.491 . S
C1168 H1159 0.950 . S
C1168 C1167 1.398 . S
C1168 C1169 1.391 . S
C1169 H1157 0.950 . S
C1169 C1165 1.393 . S
C1169 C1168 1.391 . S
C1170 H1160 0.950 . S
C1170 C1171 1.386 . S
C1170 C1172 1.391 . S
C1171 C1170 1.386 . S
C1171 C1175 1.393 . S
C1172 H1161 0.950 . S
C1172 C1170 1.391 . S
C1172 C1173 1.400 . S
C1173 C1167 1.491 . S
C1173 C1172 1.400 . S
C1173 C1174 1.398 . S
C1174 H1162 0.950 . S
C1174 C1173 1.398 . S
C1174 C1175 1.391 . S
C1175 H1163 0.950 . S
C1175 C1171 1.393 . S
C1175 C1174 1.391 . S
H1176 C1184 0.950 . S
H1177 C1189 0.950 . S
H1178 C1186 0.950 . S
H1179 C1188 0.950 . S
H1180 C1190 0.950 . S
H1181 C1192 0.950 . S
H1182 C1194 0.950 . S
H1183 C1195 0.950 . S
C1184 H1176 0.950 . S
C1184 C1185 1.386 . S
C1184 C1186 1.391 . S
C1185 C1184 1.386 . S
C1185 C1189 1.393 . S
C1186 H1178 0.950 . S
C1186 C1184 1.391 . S
C1186 C1187 1.400 . S
C1187 C1186 1.400 . S
C1187 C1188 1.398 . S
C1187 C1193 1.491 1_565 S
C1188 H1179 0.950 . S
C1188 C1187 1.398 . S
C1188 C1189 1.391 . S
C1189 H1177 0.950 . S
C1189 C1185 1.393 . S
C1189 C1188 1.391 . S
C1190 H1180 0.950 . S
C1190 C1191 1.386 . S
C1190 C1192 1.391 . S
C1191 C1190 1.386 . S
C1191 C1195 1.393 . S
C1192 H1181 0.950 . S
C1192 C1190 1.391 . S
C1192 C1193 1.400 . S
C1193 C1187 1.491 1_545 S
C1193 C1192 1.400 . S
C1193 C1194 1.398 . S
C1194 H1182 0.950 . S
C1194 C1193 1.398 . S
C1194 C1195 1.391 . S
C1195 H1183 0.950 . S
C1195 C1191 1.393 . S
C1195 C1194 1.391 . S
H1196 C1204 0.950 . S
H1197 C1209 0.950 . S
H1198 C1206 0.950 . S
H1199 C1208 0.950 . S
H1200 C1210 0.950 . S
H1201 C1212 0.950 . S
H1202 C1214 0.950 . S
H1203 C1215 0.950 . S
C1204 H1196 0.950 . S
C1204 C1205 1.386 . S
C1204 C1206 1.391 . S
C1205 C1204 1.386 . S
C1205 C1209 1.393 . S
C1206 H1198 0.950 . S
C1206 C1204 1.391 . S
C1206 C1207 1.400 . S
C1207 C1206 1.400 . S
C1207 C1208 1.398 . S
C1207 C1213 1.491 . S
C1208 H1199 0.950 . S
C1208 C1207 1.398 . S
C1208 C1209 1.391 . S
C1209 H1197 0.950 . S
C1209 C1205 1.393 . S
C1209 C1208 1.391 . S
C1210 H1200 0.950 . S
C1210 C1211 1.386 . S
C1210 C1212 1.391 . S
C1211 C1210 1.386 . S
C1211 C1215 1.393 . S
C1212 H1201 0.950 . S
C1212 C1210 1.391 . S
C1212 C1213 1.400 . S
C1213 C1207 1.491 . S
C1213 C1212 1.400 . S
C1213 C1214 1.398 . S
C1214 H1202 0.950 . S
C1214 C1213 1.398 . S
C1214 C1215 1.391 . S
C1215 H1203 0.950 . S
C1215 C1211 1.393 . S
C1215 C1214 1.391 . S
H1216 C1224 0.950 . S
H1217 C1229 0.950 . S
H1218 C1226 0.950 . S
H1219 C1228 0.950 . S
H1220 C1230 0.950 . S
H1221 C1232 0.950 . S
H1222 C1234 0.950 . S
H1223 C1235 0.950 . S
C1224 H1216 0.950 . S
C1224 C1225 1.386 . S
C1224 C1226 1.391 . S
C1225 C1224 1.386 . S
C1225 C1229 1.393 . S
C1226 H1218 0.950 . S
C1226 C1224 1.391 . S
C1226 C1227 1.400 . S
C1227 C1226 1.400 . S
C1227 C1228 1.398 . S
C1227 C1233 1.491 . S
C1228 H1219 0.950 . S
C1228 C1227 1.398 . S
C1228 C1229 1.391 . S
C1229 H1217 0.950 . S
C1229 C1225 1.393 . S
C1229 C1228 1.391 . S
C1230 H1220 0.950 . S
C1230 C1231 1.386 . S
C1230 C1232 1.391 . S
C1231 C1230 1.386 . S
C1231 C1235 1.393 . S
C1232 H1221 0.950 . S
C1232 C1230 1.391 . S
C1232 C1233 1.400 . S
C1233 C1227 1.491 . S
C1233 C1232 1.400 . S
C1233 C1234 1.398 . S
C1234 H1222 0.950 . S
C1234 C1233 1.398 . S
C1234 C1235 1.391 . S
C1235 H1223 0.950 . S
C1235 C1231 1.393 . S
C1235 C1234 1.391 . S
H1236 C1244 0.950 . S
H1237 C1249 0.950 . S
H1238 C1246 0.950 . S
H1239 C1248 0.950 . S
H1240 C1250 0.950 . S
H1241 C1252 0.950 . S
H1242 C1254 0.950 . S
H1243 C1255 0.950 . S
C1244 H1236 0.950 . S
C1244 C1245 1.386 . S
C1244 C1246 1.391 . S
C1245 C1244 1.386 . S
C1245 C1249 1.393 . S
C1246 H1238 0.950 . S
C1246 C1244 1.391 . S
C1246 C1247 1.400 . S
C1247 C1246 1.400 . S
C1247 C1248 1.398 . S
C1247 C1253 1.491 . S
C1248 H1239 0.950 . S
C1248 C1247 1.398 . S
C1248 C1249 1.391 . S
C1249 H1237 0.950 . S
C1249 C1245 1.393 . S
C1249 C1248 1.391 . S
C1250 H1240 0.950 . S
C1250 C1251 1.386 . S
C1250 C1252 1.391 . S
C1251 C1250 1.386 . S
C1251 C1255 1.393 . S
C1252 H1241 0.950 . S
C1252 C1250 1.391 . S
C1252 C1253 1.400 . S
C1253 C1247 1.491 . S
C1253 C1252 1.400 . S
C1253 C1254 1.398 . S
C1254 H1242 0.950 . S
C1254 C1253 1.398 . S
C1254 C1255 1.391 . S
C1255 H1243 0.950 . S
C1255 C1251 1.393 . S
C1255 C1254 1.391 . S
H1256 C1264 0.950 . S
H1257 C1269 0.950 . S
H1258 C1266 0.950 . S
H1259 C1268 0.950 . S
H1260 C1270 0.950 . S
H1261 C1272 0.950 . S
H1262 C1274 0.950 . S
H1263 C1275 0.950 . S
C1264 H1256 0.950 . S
C1264 C1265 1.386 . S
C1264 C1266 1.391 . S
C1265 C1264 1.386 . S
C1265 C1269 1.393 . S
C1266 H1258 0.950 . S
C1266 C1264 1.391 . S
C1266 C1267 1.400 . S
C1267 C1266 1.400 . S
C1267 C1268 1.398 . S
C1267 C1273 1.491 . S
C1268 H1259 0.950 . S
C1268 C1267 1.398 . S
C1268 C1269 1.391 . S
C1269 H1257 0.950 . S
C1269 C1265 1.393 . S
C1269 C1268 1.391 . S
C1270 H1260 0.950 . S
C1270 C1271 1.386 . S
C1270 C1272 1.391 . S
C1271 C1270 1.386 . S
C1271 C1275 1.393 . S
C1272 H1261 0.950 . S
C1272 C1270 1.391 . S
C1272 C1273 1.400 . S
C1273 C1267 1.491 . S
C1273 C1272 1.400 . S
C1273 C1274 1.398 . S
C1274 H1262 0.950 . S
C1274 C1273 1.398 . S
C1274 C1275 1.391 . S
C1275 H1263 0.950 . S
C1275 C1271 1.393 . S
C1275 C1274 1.391 . S
H1276 C1284 0.950 . S
H1277 C1289 0.950 . S
H1278 C1286 0.950 . S
H1279 C1288 0.950 . S
H1280 C1290 0.950 . S
H1281 C1292 0.950 . S
H1282 C1294 0.950 . S
H1283 C1295 0.950 . S
C1284 H1276 0.950 . S
C1284 C1285 1.386 . S
C1284 C1286 1.391 . S
C1285 C1284 1.386 . S
C1285 C1289 1.393 . S
C1286 H1278 0.950 . S
C1286 C1284 1.391 . S
C1286 C1287 1.400 . S
C1287 C1286 1.400 . S
C1287 C1288 1.398 . S
C1287 C1293 1.491 . S
C1288 H1279 0.950 . S
C1288 C1287 1.398 . S
C1288 C1289 1.391 . S
C1289 H1277 0.950 . S
C1289 C1285 1.393 . S
C1289 C1288 1.391 . S
C1290 H1280 0.950 . S
C1290 C1291 1.386 . S
C1290 C1292 1.391 . S
C1291 C1290 1.386 . S
C1291 C1295 1.393 . S
C1292 H1281 0.950 . S
C1292 C1290 1.391 . S
C1292 C1293 1.400 . S
C1293 C1287 1.491 . S
C1293 C1292 1.400 . S
C1293 C1294 1.398 . S
C1294 H1282 0.950 . S
C1294 C1293 1.398 . S
C1294 C1295 1.391 . S
C1295 H1283 0.950 . S
C1295 C1291 1.393 . S
C1295 C1294 1.391 . S
H1296 C1304 0.950 . S
H1297 C1309 0.950 . S
H1298 C1306 0.950 1_655 S
H1299 C1308 0.950 1_545 S
H1300 C1310 0.950 . S
H1301 C1312 0.950 1_455 S
H1302 C1314 0.950 1_565 S
H1303 C1315 0.950 . S
C1304 H1296 0.950 . S
C1304 C1305 1.386 . S
C1304 C1306 1.391 . S
C1305 C1304 1.386 . S
C1305 C1309 1.393 . S
C1306 H1298 0.950 1_455 S
C1306 C1304 1.391 . S
C1306 C1307 1.400 . S
C1307 C1306 1.400 . S
C1307 C1308 1.398 . S
C1307 C1313 1.491 1_465 S
C1308 H1299 0.950 1_565 S
C1308 C1307 1.398 . S
C1308 C1309 1.391 . S
C1309 H1297 0.950 . S
C1309 C1305 1.393 . S
C1309 C1308 1.391 . S
C1310 H1300 0.950 . S
C1310 C1311 1.386 . S
C1310 C1312 1.391 . S
C1311 C1310 1.386 . S
C1311 C1315 1.393 . S
C1312 H1301 0.950 1_655 S
C1312 C1310 1.391 . S
C1312 C1313 1.400 . S
C1313 C1307 1.491 1_645 S
C1313 C1312 1.400 . S
C1313 C1314 1.398 . S
C1314 H1302 0.950 1_545 S
C1314 C1313 1.398 . S
C1314 C1315 1.391 . S
C1315 H1303 0.950 . S
C1315 C1311 1.393 . S
C1315 C1314 1.391 . S
H1316 C1324 0.950 . S
H1317 C1329 0.950 . S
H1318 C1326 0.950 . S
H1319 C1328 0.950 . S
H1320 C1330 0.950 . S
H1321 C1332 0.950 . S
H1322 C1334 0.950 . S
H1323 C1335 0.950 . S
C1324 H1316 0.950 . S
C1324 C1325 1.386 . S
C1324 C1326 1.391 . S
C1325 C1324 1.386 . S
C1325 C1329 1.393 . S
C1326 H1318 0.950 . S
C1326 C1324 1.391 . S
C1326 C1327 1.400 . S
C1327 C1326 1.400 . S
C1327 C1328 1.398 . S
C1327 C1333 1.491 1_655 S
C1328 H1319 0.950 . S
C1328 C1327 1.398 . S
C1328 C1329 1.391 . S
C1329 H1317 0.950 . S
C1329 C1325 1.393 . S
C1329 C1328 1.391 . S
C1330 H1320 0.950 . S
C1330 C1331 1.386 . S
C1330 C1332 1.391 . S
C1331 C1330 1.386 . S
C1331 C1335 1.393 . S
C1332 H1321 0.950 . S
C1332 C1330 1.391 . S
C1332 C1333 1.400 . S
C1333 C1327 1.491 1_455 S
C1333 C1332 1.400 . S
C1333 C1334 1.398 . S
C1334 H1322 0.950 . S
C1334 C1333 1.398 . S
C1334 C1335 1.391 . S
C1335 H1323 0.950 . S
C1335 C1331 1.393 . S
C1335 C1334 1.391 . S
H1336 C1344 0.950 . S
H1337 C1349 0.950 . S
H1338 C1346 0.950 . S
H1339 C1348 0.950 . S
H1340 C1350 0.950 . S
H1341 C1352 0.950 . S
H1342 C1354 0.950 . S
H1343 C1355 0.950 . S
C1344 H1336 0.950 . S
C1344 C1345 1.386 . S
C1344 C1346 1.391 . S
C1345 C1344 1.386 . S
C1345 C1349 1.393 . S
C1346 H1338 0.950 . S
C1346 C1344 1.391 . S
C1346 C1347 1.400 . S
C1347 C1346 1.400 . S
C1347 C1348 1.398 . S
C1347 C1353 1.491 1_455 S
C1348 H1339 0.950 . S
C1348 C1347 1.398 . S
C1348 C1349 1.391 . S
C1349 H1337 0.950 . S
C1349 C1345 1.393 . S
C1349 C1348 1.391 . S
C1350 H1340 0.950 . S
C1350 C1351 1.386 . S
C1350 C1352 1.391 . S
C1351 C1350 1.386 . S
C1351 C1355 1.393 . S
C1352 H1341 0.950 . S
C1352 C1350 1.391 . S
C1352 C1353 1.400 . S
C1353 C1347 1.491 1_655 S
C1353 C1352 1.400 . S
C1353 C1354 1.398 . S
C1354 H1342 0.950 . S
C1354 C1353 1.398 . S
C1354 C1355 1.391 . S
C1355 H1343 0.950 . S
C1355 C1351 1.393 . S
C1355 C1354 1.391 . S
H1356 C1364 0.950 . S
H1357 C1369 0.950 . S
H1358 C1366 0.950 1_655 S
H1359 C1368 0.950 . S
H1360 C1370 0.950 . S
H1361 C1372 0.950 1_455 S
H1362 C1374 0.950 . S
H1363 C1375 0.950 . S
C1364 H1356 0.950 . S
C1364 C1365 1.386 1_554 S
C1364 C1366 1.391 . S
C1365 C1364 1.386 1_556 S
C1365 C1369 1.393 . S
C1366 H1358 0.950 1_455 S
C1366 C1364 1.391 . S
C1366 C1367 1.398 1_554 S
C1367 C1366 1.398 1_556 S
C1367 C1368 1.401 . S
C1367 C1373 1.491 1_456 S
C1368 H1359 0.950 . S
C1368 C1367 1.401 . S
C1368 C1369 1.391 . S
C1369 H1357 0.950 . S
C1369 C1365 1.393 . S
C1369 C1368 1.391 . S
C1370 H1360 0.950 . S
C1370 C1371 1.386 1_556 S
C1370 C1372 1.391 . S
C1371 C1370 1.386 1_554 S
C1371 C1375 1.393 . S
C1372 H1361 0.950 1_655 S
C1372 C1370 1.391 . S
C1372 C1373 1.398 1_556 S
C1373 C1367 1.491 1_654 S
C1373 C1372 1.398 1_554 S
C1373 C1374 1.401 . S
C1374 H1362 0.950 . S
C1374 C1373 1.401 . S
C1374 C1375 1.391 . S
C1375 H1363 0.950 . S
C1375 C1371 1.393 . S
C1375 C1374 1.391 . S
H1376 C1384 0.950 . S
H1377 C1389 0.950 . S
H1378 C1386 0.950 . S
H1379 C1388 0.950 . S
H1380 C1390 0.950 . S
H1381 C1392 0.950 . S
H1382 C1394 0.950 . S
H1383 C1395 0.950 . S
C1384 H1376 0.950 . S
C1384 C1385 1.386 . S
C1384 C1386 1.391 . S
C1385 C1384 1.386 . S
C1385 C1389 1.393 . S
C1386 H1378 0.950 . S
C1386 C1384 1.391 . S
C1386 C1387 1.400 . S
C1387 C1386 1.400 . S
C1387 C1388 1.398 . S
C1387 C1393 1.491 . S
C1388 H1379 0.950 . S
C1388 C1387 1.398 . S
C1388 C1389 1.391 . S
C1389 H1377 0.950 . S
C1389 C1385 1.393 . S
C1389 C1388 1.391 . S
C1390 H1380 0.950 . S
C1390 C1391 1.386 . S
C1390 C1392 1.391 . S
C1391 C1390 1.386 . S
C1391 C1395 1.393 . S
C1392 H1381 0.950 . S
C1392 C1390 1.391 . S
C1392 C1393 1.400 . S
C1393 C1387 1.491 . S
C1393 C1392 1.400 . S
C1393 C1394 1.398 . S
C1394 H1382 0.950 . S
C1394 C1393 1.398 . S
C1394 C1395 1.391 . S
C1395 H1383 0.950 . S
C1395 C1391 1.393 . S
C1395 C1394 1.391 . S
H1396 C1404 0.950 . S
H1397 C1409 0.950 . S
H1398 C1406 0.950 . S
H1399 C1408 0.950 . S
H1400 C1410 0.950 . S
H1401 C1412 0.950 . S
H1402 C1414 0.950 . S
H1403 C1415 0.950 . S
C1404 H1396 0.950 . S
C1404 C1405 1.386 . S
C1404 C1406 1.391 . S
C1405 C1404 1.386 . S
C1405 C1409 1.393 . S
C1406 H1398 0.950 . S
C1406 C1404 1.391 . S
C1406 C1407 1.400 . S
C1407 C1406 1.400 . S
C1407 C1408 1.398 . S
C1407 C1413 1.491 . S
C1408 H1399 0.950 . S
C1408 C1407 1.398 . S
C1408 C1409 1.391 . S
C1409 H1397 0.950 . S
C1409 C1405 1.393 . S
C1409 C1408 1.391 . S
C1410 H1400 0.950 . S
C1410 C1411 1.386 . S
C1410 C1412 1.391 . S
C1411 C1410 1.386 . S
C1411 C1415 1.393 . S
C1412 H1401 0.950 . S
C1412 C1410 1.391 . S
C1412 C1413 1.400 . S
C1413 C1407 1.491 . S
C1413 C1412 1.400 . S
C1413 C1414 1.398 . S
C1414 H1402 0.950 . S
C1414 C1413 1.398 . S
C1414 C1415 1.391 . S
C1415 H1403 0.950 . S
C1415 C1411 1.393 . S
C1415 C1414 1.391 . S
H1416 C1424 0.950 . S
H1417 C1429 0.950 . S
H1418 C1426 0.950 . S
H1419 C1428 0.950 . S
H1420 C1430 0.950 . S
H1421 C1432 0.950 . S
H1422 C1434 0.950 . S
H1423 C1435 0.950 . S
C1424 H1416 0.950 . S
C1424 C1425 1.386 . S
C1424 C1426 1.391 . S
C1425 C1424 1.386 . S
C1425 C1429 1.393 . S
C1426 H1418 0.950 . S
C1426 C1424 1.391 . S
C1426 C1427 1.400 . S
C1427 C1426 1.400 . S
C1427 C1428 1.398 . S
C1427 C1433 1.491 . S
C1428 H1419 0.950 . S
C1428 C1427 1.398 . S
C1428 C1429 1.391 . S
C1429 H1417 0.950 . S
C1429 C1425 1.393 . S
C1429 C1428 1.391 . S
C1430 H1420 0.950 . S
C1430 C1431 1.386 . S
C1430 C1432 1.391 . S
C1431 C1430 1.386 . S
C1431 C1435 1.393 . S
C1432 H1421 0.950 . S
C1432 C1430 1.391 . S
C1432 C1433 1.400 . S
C1433 C1427 1.491 . S
C1433 C1432 1.400 . S
C1433 C1434 1.398 . S
C1434 H1422 0.950 . S
C1434 C1433 1.398 . S
C1434 C1435 1.391 . S
C1435 H1423 0.950 . S
C1435 C1431 1.393 . S
C1435 C1434 1.391 . S
H1436 C1444 0.950 . S
H1437 C1449 0.950 . S
H1438 C1446 0.950 . S
H1439 C1448 0.950 . S
H1440 C1450 0.950 . S
H1441 C1452 0.950 . S
H1442 C1454 0.950 . S
H1443 C1455 0.950 . S
C1444 H1436 0.950 . S
C1444 C1445 1.386 . S
C1444 C1446 1.391 . S
C1445 C1444 1.386 . S
C1445 C1449 1.393 . S
C1446 H1438 0.950 . S
C1446 C1444 1.391 . S
C1446 C1447 1.400 . S
C1447 C1446 1.400 . S
C1447 C1448 1.398 . S
C1447 C1453 1.491 . S
C1448 H1439 0.950 . S
C1448 C1447 1.398 . S
C1448 C1449 1.391 . S
C1449 H1437 0.950 . S
C1449 C1445 1.393 . S
C1449 C1448 1.391 . S
C1450 H1440 0.950 . S
C1450 C1451 1.386 . S
C1450 C1452 1.391 . S
C1451 C1450 1.386 . S
C1451 C1455 1.393 . S
C1452 H1441 0.950 . S
C1452 C1450 1.391 . S
C1452 C1453 1.400 . S
C1453 C1447 1.491 . S
C1453 C1452 1.400 . S
C1453 C1454 1.398 . S
C1454 H1442 0.950 . S
C1454 C1453 1.398 . S
C1454 C1455 1.391 . S
C1455 H1443 0.950 . S
C1455 C1451 1.393 . S
C1455 C1454 1.391 . S
H1456 C1464 0.950 . S
H1457 C1469 0.950 . S
H1458 C1466 0.950 . S
H1459 C1468 0.950 . S
H1460 C1470 0.950 . S
H1461 C1472 0.950 . S
H1462 C1474 0.950 . S
H1463 C1475 0.950 . S
C1464 H1456 0.950 . S
C1464 C1465 1.386 . S
C1464 C1466 1.391 . S
C1465 C1464 1.386 . S
C1465 C1469 1.393 . S
C1466 H1458 0.950 . S
C1466 C1464 1.391 . S
C1466 C1467 1.400 . S
C1467 C1466 1.400 . S
C1467 C1468 1.398 . S
C1467 C1473 1.491 . S
C1468 H1459 0.950 . S
C1468 C1467 1.398 . S
C1468 C1469 1.391 . S
C1469 H1457 0.950 . S
C1469 C1465 1.393 . S
C1469 C1468 1.391 . S
C1470 H1460 0.950 . S
C1470 C1471 1.386 . S
C1470 C1472 1.391 . S
C1471 C1470 1.386 . S
C1471 C1475 1.393 . S
C1472 H1461 0.950 . S
C1472 C1470 1.391 . S
C1472 C1473 1.400 . S
C1473 C1467 1.491 . S
C1473 C1472 1.400 . S
C1473 C1474 1.398 . S
C1474 H1462 0.950 . S
C1474 C1473 1.398 . S
C1474 C1475 1.391 . S
C1475 H1463 0.950 . S
C1475 C1471 1.393 . S
C1475 C1474 1.391 . S
H1476 C1484 0.950 . S
H1477 C1489 0.950 . S
H1478 C1486 0.950 . S
H1479 C1488 0.950 . S
H1480 C1490 0.950 . S
H1481 C1492 0.950 . S
H1482 C1494 0.950 . S
H1483 C1495 0.950 . S
C1484 H1476 0.950 . S
C1484 C1485 1.386 . S
C1484 C1486 1.391 . S
C1485 C1484 1.386 . S
C1485 C1489 1.393 . S
C1486 H1478 0.950 . S
C1486 C1484 1.391 . S
C1486 C1487 1.400 . S
C1487 C1486 1.400 . S
C1487 C1488 1.398 . S
C1487 C1493 1.491 . S
C1488 H1479 0.950 . S
C1488 C1487 1.398 . S
C1488 C1489 1.391 . S
C1489 H1477 0.950 . S
C1489 C1485 1.393 . S
C1489 C1488 1.391 . S
C1490 H1480 0.950 . S
C1490 C1491 1.386 . S
C1490 C1492 1.391 . S
C1491 C1490 1.386 . S
C1491 C1495 1.393 . S
C1492 H1481 0.950 . S
C1492 C1490 1.391 . S
C1492 C1493 1.400 . S
C1493 C1487 1.491 . S
C1493 C1492 1.400 . S
C1493 C1494 1.398 . S
C1494 H1482 0.950 . S
C1494 C1493 1.398 . S
C1494 C1495 1.391 . S
C1495 H1483 0.950 . S
C1495 C1491 1.393 . S
C1495 C1494 1.391 . S
H1496 C1504 0.950 . S
H1497 C1509 0.950 . S
H1498 C1506 0.950 . S
H1499 C1508 0.950 . S
H1500 C1510 0.950 . S
H1501 C1512 0.950 . S
H1502 C1514 0.950 . S
H1503 C1515 0.950 . S
C1504 H1496 0.950 . S
C1504 C1505 1.386 . S
C1504 C1506 1.391 . S
C1505 C1504 1.386 . S
C1505 C1509 1.393 . S
C1506 H1498 0.950 . S
C1506 C1504 1.391 . S
C1506 C1507 1.400 . S
C1507 C1506 1.400 . S
C1507 C1508 1.398 . S
C1507 C1513 1.491 . S
C1508 H1499 0.950 . S
C1508 C1507 1.398 . S
C1508 C1509 1.391 . S
C1509 H1497 0.950 . S
C1509 C1505 1.393 . S
C1509 C1508 1.391 . S
C1510 H1500 0.950 . S
C1510 C1511 1.386 . S
C1510 C1512 1.391 . S
C1511 C1510 1.386 . S
C1511 C1515 1.393 . S
C1512 H1501 0.950 . S
C1512 C1510 1.391 . S
C1512 C1513 1.400 . S
C1513 C1507 1.491 . S
C1513 C1512 1.400 . S
C1513 C1514 1.398 . S
C1514 H1502 0.950 . S
C1514 C1513 1.398 . S
C1514 C1515 1.391 . S
C1515 H1503 0.950 . S
C1515 C1511 1.393 . S
C1515 C1514 1.391 . S
H1516 C1524 0.950 . S
H1517 C1529 0.950 . S
H1518 C1526 0.950 . S
H1519 C1528 0.950 . S
H1520 C1530 0.950 . S
H1521 C1532 0.950 . S
H1522 C1534 0.950 . S
H1523 C1535 0.950 . S
C1524 H1516 0.950 . S
C1524 C1525 1.386 . S
C1524 C1526 1.391 . S
C1525 C1524 1.386 . S
C1525 C1529 1.393 . S
C1526 H1518 0.950 . S
C1526 C1524 1.391 . S
C1526 C1527 1.400 . S
C1527 C1526 1.400 . S
C1527 C1528 1.398 . S
C1527 C1533 1.491 . S
C1528 H1519 0.950 . S
C1528 C1527 1.398 . S
C1528 C1529 1.391 . S
C1529 H1517 0.950 . S
C1529 C1525 1.393 . S
C1529 C1528 1.391 . S
C1530 H1520 0.950 . S
C1530 C1531 1.386 . S
C1530 C1532 1.391 . S
C1531 C1530 1.386 . S
C1531 C1535 1.393 . S
C1532 H1521 0.950 . S
C1532 C1530 1.391 . S
C1532 C1533 1.400 . S
C1533 C1527 1.491 . S
C1533 C1532 1.400 . S
C1533 C1534 1.398 . S
C1534 H1522 0.950 . S
C1534 C1533 1.398 . S
C1534 C1535 1.391 . S
C1535 H1523 0.950 . S
C1535 C1531 1.393 . S
C1535 C1534 1.391 . S
H1536 C1544 0.950 . S
H1537 C1549 0.950 . S
H1538 C1546 0.950 . S
H1539 C1548 0.950 . S
H1540 C1550 0.950 . S
H1541 C1552 0.950 . S
H1542 C1554 0.950 . S
H1543 C1555 0.950 . S
C1544 H1536 0.950 . S
C1544 C1545 1.386 . S
C1544 C1546 1.391 . S
C1545 C1544 1.386 . S
C1545 C1549 1.393 . S
C1546 H1538 0.950 . S
C1546 C1544 1.391 . S
C1546 C1547 1.400 . S
C1547 C1546 1.400 . S
C1547 C1548 1.398 . S
C1547 C1553 1.491 . S
C1548 H1539 0.950 . S
C1548 C1547 1.398 . S
C1548 C1549 1.391 . S
C1549 H1537 0.950 . S
C1549 C1545 1.393 . S
C1549 C1548 1.391 . S
C1550 H1540 0.950 . S
C1550 C1551 1.386 . S
C1550 C1552 1.391 . S
C1551 C1550 1.386 . S
C1551 C1555 1.393 . S
C1552 H1541 0.950 . S
C1552 C1550 1.391 . S
C1552 C1553 1.400 . S
C1553 C1547 1.491 . S
C1553 C1552 1.400 . S
C1553 C1554 1.398 . S
C1554 H1542 0.950 . S
C1554 C1553 1.398 . S
C1554 C1555 1.391 . S
C1555 H1543 0.950 . S
C1555 C1551 1.393 . S
C1555 C1554 1.391 . S
H1556 C1564 0.950 . S
H1557 C1569 0.950 . S
H1558 C1566 0.950 . S
H1559 C1568 0.950 . S
H1560 C1570 0.950 . S
H1561 C1572 0.950 . S
H1562 C1574 0.950 . S
H1563 C1575 0.950 . S
C1564 H1556 0.950 . S
C1564 C1565 1.386 . S
C1564 C1566 1.391 . S
C1565 C1564 1.386 . S
C1565 C1569 1.393 . S
C1566 H1558 0.950 . S
C1566 C1564 1.391 . S
C1566 C1567 1.400 . S
C1567 C1566 1.400 . S
C1567 C1568 1.398 . S
C1567 C1573 1.491 . S
C1568 H1559 0.950 . S
C1568 C1567 1.398 . S
C1568 C1569 1.391 . S
C1569 H1557 0.950 . S
C1569 C1565 1.393 . S
C1569 C1568 1.391 . S
C1570 H1560 0.950 . S
C1570 C1571 1.386 . S
C1570 C1572 1.391 . S
C1571 C1570 1.386 . S
C1571 C1575 1.393 . S
C1572 H1561 0.950 . S
C1572 C1570 1.391 . S
C1572 C1573 1.400 . S
C1573 C1567 1.491 . S
C1573 C1572 1.400 . S
C1573 C1574 1.398 . S
C1574 H1562 0.950 . S
C1574 C1573 1.398 . S
C1574 C1575 1.391 . S
C1575 H1563 0.950 . S
C1575 C1571 1.393 . S
C1575 C1574 1.391 . S
H1576 C1584 0.950 . S
H1577 C1589 0.950 . S
H1578 C1586 0.950 . S
H1579 C1588 0.950 . S
H1580 C1590 0.950 . S
H1581 C1592 0.950 . S
H1582 C1594 0.950 . S
H1583 C1595 0.950 . S
C1584 H1576 0.950 . S
C1584 C1585 1.386 . S
C1584 C1586 1.391 . S
C1585 C1584 1.386 . S
C1585 C1589 1.393 . S
C1586 H1578 0.950 . S
C1586 C1584 1.391 . S
C1586 C1587 1.400 . S
C1587 C1586 1.400 . S
C1587 C1588 1.398 . S
C1587 C1593 1.491 . S
C1588 H1579 0.950 . S
C1588 C1587 1.398 . S
C1588 C1589 1.391 . S
C1589 H1577 0.950 . S
C1589 C1585 1.393 . S
C1589 C1588 1.391 . S
C1590 H1580 0.950 . S
C1590 C1591 1.386 . S
C1590 C1592 1.391 . S
C1591 C1590 1.386 . S
C1591 C1595 1.393 . S
C1592 H1581 0.950 . S
C1592 C1590 1.391 . S
C1592 C1593 1.400 . S
C1593 C1587 1.491 . S
C1593 C1592 1.400 . S
C1593 C1594 1.398 . S
C1594 H1582 0.950 . S
C1594 C1593 1.398 . S
C1594 C1595 1.391 . S
C1595 H1583 0.950 . S
C1595 C1591 1.393 . S
C1595 C1594 1.391 . S
H1596 C1604 0.950 . S
H1597 C1609 0.950 . S
H1598 C1606 0.950 . S
H1599 C1608 0.950 . S
H1600 C1610 0.950 . S
H1601 C1612 0.950 . S
H1602 C1614 0.950 . S
H1603 C1615 0.950 . S
C1604 H1596 0.950 . S
C1604 C1605 1.386 . S
C1604 C1606 1.391 . S
C1605 C1604 1.386 . S
C1605 C1609 1.393 . S
C1606 H1598 0.950 . S
C1606 C1604 1.391 . S
C1606 C1607 1.400 . S
C1607 C1606 1.400 . S
C1607 C1608 1.398 . S
C1607 C1613 1.491 . S
C1608 H1599 0.950 . S
C1608 C1607 1.398 . S
C1608 C1609 1.391 . S
C1609 H1597 0.950 . S
C1609 C1605 1.393 . S
C1609 C1608 1.391 . S
C1610 H1600 0.950 . S
C1610 C1611 1.386 . S
C1610 C1612 1.391 . S
C1611 C1610 1.386 . S
C1611 C1615 1.393 . S
C1612 H1601 0.950 . S
C1612 C1610 1.391 . S
C1612 C1613 1.400 . S
C1613 C1607 1.491 . S
C1613 C1612 1.400 . S
C1613 C1614 1.398 . S
C1614 H1602 0.950 . S
C1614 C1613 1.398 . S
C1614 C1615 1.391 . S
C1615 H1603 0.950 . S
C1615 C1611 1.393 . S
C1615 C1614 1.391 . S
H1616 C1624 0.950 . S
H1617 C1629 0.950 . S
H1618 C1626 0.950 . S
H1619 C1628 0.950 . S
H1620 C1630 0.950 . S
H1621 C1632 0.950 . S
H1622 C1634 0.950 . S
H1623 C1635 0.950 . S
C1624 H1616 0.950 . S
C1624 C1625 1.386 . S
C1624 C1626 1.391 . S
C1625 C1624 1.386 . S
C1625 C1629 1.393 . S
C1626 H1618 0.950 . S
C1626 C1624 1.391 . S
C1626 C1627 1.400 . S
C1627 C1626 1.400 . S
C1627 C1628 1.398 . S
C1627 C1633 1.491 . S
C1628 H1619 0.950 . S
C1628 C1627 1.398 . S
C1628 C1629 1.391 . S
C1629 H1617 0.950 . S
C1629 C1625 1.393 . S
C1629 C1628 1.391 . S
C1630 H1620 0.950 . S
C1630 C1631 1.386 . S
C1630 C1632 1.391 . S
C1631 C1630 1.386 . S
C1631 C1635 1.393 . S
C1632 H1621 0.950 . S
C1632 C1630 1.391 . S
C1632 C1633 1.400 . S
C1633 C1627 1.491 . S
C1633 C1632 1.400 . S
C1633 C1634 1.398 . S
C1634 H1622 0.950 . S
C1634 C1633 1.398 . S
C1634 C1635 1.391 . S
C1635 H1623 0.950 . S
C1635 C1631 1.393 . S
C1635 C1634 1.391 . S
H1636 C1644 0.950 . S
H1637 C1649 0.950 . S
H1638 C1646 0.950 . S
H1639 C1648 0.950 . S
H1640 C1650 0.950 . S
H1641 C1652 0.950 . S
H1642 C1654 0.950 . S
H1643 C1655 0.950 . S
C1644 H1636 0.950 . S
C1644 C1645 1.386 . S
C1644 C1646 1.391 . S
C1645 C1644 1.386 . S
C1645 C1649 1.393 . S
C1646 H1638 0.950 . S
C1646 C1644 1.391 . S
C1646 C1647 1.400 . S
C1647 C1646 1.400 . S
C1647 C1648 1.398 . S
C1647 C1653 1.491 . S
C1648 H1639 0.950 . S
C1648 C1647 1.398 . S
C1648 C1649 1.391 . S
C1649 H1637 0.950 . S
C1649 C1645 1.393 . S
C1649 C1648 1.391 . S
C1650 H1640 0.950 . S
C1650 C1651 1.386 . S
C1650 C1652 1.391 . S
C1651 C1650 1.386 . S
C1651 C1655 1.393 . S
C1652 H1641 0.950 . S
C1652 C1650 1.391 . S
C1652 C1653 1.400 . S
C1653 C1647 1.491 . S
C1653 C1652 1.400 . S
C1653 C1654 1.398 . S
C1654 H1642 0.950 . S
C1654 C1653 1.398 . S
C1654 C1655 1.391 . S
C1655 H1643 0.950 . S
C1655 C1651 1.393 . S
C1655 C1654 1.391 . S
H1656 C1664 0.950 . S
H1657 C1669 0.950 . S
H1658 C1666 0.950 . S
H1659 C1668 0.950 . S
H1660 C1670 0.950 . S
H1661 C1672 0.950 . S
H1662 C1674 0.950 . S
H1663 C1675 0.950 . S
C1664 H1656 0.950 . S
C1664 C1665 1.386 . S
C1664 C1666 1.391 . S
C1665 C1664 1.386 . S
C1665 C1669 1.393 . S
C1666 H1658 0.950 . S
C1666 C1664 1.391 . S
C1666 C1667 1.400 . S
C1667 C1666 1.400 . S
C1667 C1668 1.398 . S
C1667 C1673 1.491 . S
C1668 H1659 0.950 . S
C1668 C1667 1.398 . S
C1668 C1669 1.391 . S
C1669 H1657 0.950 . S
C1669 C1665 1.393 . S
C1669 C1668 1.391 . S
C1670 H1660 0.950 . S
C1670 C1671 1.386 . S
C1670 C1672 1.391 . S
C1671 C1670 1.386 . S
C1671 C1675 1.393 . S
C1672 H1661 0.950 . S
C1672 C1670 1.391 . S
C1672 C1673 1.400 . S
C1673 C1667 1.491 . S
C1673 C1672 1.400 . S
C1673 C1674 1.398 . S
C1674 H1662 0.950 . S
C1674 C1673 1.398 . S
C1674 C1675 1.391 . S
C1675 H1663 0.950 . S
C1675 C1671 1.393 . S
C1675 C1674 1.391 . S
H1676 C1684 0.950 . S
H1677 C1689 0.950 . S
H1678 C1686 0.950 . S
H1679 C1688 0.950 . S
H1680 C1690 0.950 . S
H1681 C1692 0.950 . S
H1682 C1694 0.950 . S
H1683 C1695 0.950 . S
C1684 H1676 0.950 . S
C1684 C1685 1.386 . S
C1684 C1686 1.391 . S
C1685 C1684 1.386 . S
C1685 C1689 1.393 . S
C1686 H1678 0.950 . S
C1686 C1684 1.391 . S
C1686 C1687 1.400 . S
C1687 C1686 1.400 . S
C1687 C1688 1.398 . S
C1687 C1693 1.491 . S
C1688 H1679 0.950 . S
C1688 C1687 1.398 . S
C1688 C1689 1.391 . S
C1689 H1677 0.950 . S
C1689 C1685 1.393 . S
C1689 C1688 1.391 . S
C1690 H1680 0.950 . S
C1690 C1691 1.386 . S
C1690 C1692 1.391 . S
C1691 C1690 1.386 . S
C1691 C1695 1.393 . S
C1692 H1681 0.950 . S
C1692 C1690 1.391 . S
C1692 C1693 1.400 . S
C1693 C1687 1.491 . S
C1693 C1692 1.400 . S
C1693 C1694 1.398 . S
C1694 H1682 0.950 . S
C1694 C1693 1.398 . S
C1694 C1695 1.391 . S
C1695 H1683 0.950 . S
C1695 C1691 1.393 . S
C1695 C1694 1.391 . S
H1696 C1704 0.950 . S
H1697 C1709 0.950 . S
H1698 C1706 0.950 . S
H1699 C1708 0.950 . S
H1700 C1710 0.950 . S
H1701 C1712 0.950 . S
H1702 C1714 0.950 . S
H1703 C1715 0.950 . S
C1704 H1696 0.950 . S
C1704 C1705 1.386 . S
C1704 C1706 1.391 . S
C1705 C1704 1.386 . S
C1705 C1709 1.393 . S
C1706 H1698 0.950 . S
C1706 C1704 1.391 . S
C1706 C1707 1.400 . S
C1707 C1706 1.400 . S
C1707 C1708 1.398 . S
C1707 C1713 1.491 . S
C1708 H1699 0.950 . S
C1708 C1707 1.398 . S
C1708 C1709 1.391 . S
C1709 H1697 0.950 . S
C1709 C1705 1.393 . S
C1709 C1708 1.391 . S
C1710 H1700 0.950 . S
C1710 C1711 1.386 . S
C1710 C1712 1.391 . S
C1711 C1710 1.386 . S
C1711 C1715 1.393 . S
C1712 H1701 0.950 . S
C1712 C1710 1.391 . S
C1712 C1713 1.400 . S
C1713 C1707 1.491 . S
C1713 C1712 1.400 . S
C1713 C1714 1.398 . S
C1714 H1702 0.950 . S
C1714 C1713 1.398 . S
C1714 C1715 1.391 . S
C1715 H1703 0.950 . S
C1715 C1711 1.393 . S
C1715 C1714 1.391 . S
H1716 C1724 0.950 . S
H1717 C1729 0.950 . S
H1718 C1726 0.950 . S
H1719 C1728 0.950 . S
H1720 C1730 0.950 . S
H1721 C1732 0.950 . S
H1722 C1734 0.950 . S
H1723 C1735 0.950 . S
C1724 H1716 0.950 . S
C1724 C1725 1.386 . S
C1724 C1726 1.391 . S
C1725 C1724 1.386 . S
C1725 C1729 1.393 . S
C1726 H1718 0.950 . S
C1726 C1724 1.391 . S
C1726 C1727 1.400 . S
C1727 C1726 1.400 . S
C1727 C1728 1.398 . S
C1727 C1733 1.491 . S
C1728 H1719 0.950 . S
C1728 C1727 1.398 . S
C1728 C1729 1.391 . S
C1729 H1717 0.950 . S
C1729 C1725 1.393 . S
C1729 C1728 1.391 . S
C1730 H1720 0.950 . S
C1730 C1731 1.386 . S
C1730 C1732 1.391 . S
C1731 C1730 1.386 . S
C1731 C1735 1.393 . S
C1732 H1721 0.950 . S
C1732 C1730 1.391 . S
C1732 C1733 1.400 . S
C1733 C1727 1.491 . S
C1733 C1732 1.400 . S
C1733 C1734 1.398 . S
C1734 H1722 0.950 . S
C1734 C1733 1.398 . S
C1734 C1735 1.391 . S
C1735 H1723 0.950 . S
C1735 C1731 1.393 . S
C1735 C1734 1.391 . S
H1736 C1744 0.950 . S
H1737 C1749 0.950 . S
H1738 C1746 0.950 . S
H1739 C1748 0.950 . S
H1740 C1750 0.950 . S
H1741 C1752 0.950 . S
H1742 C1754 0.950 . S
H1743 C1755 0.950 . S
C1744 H1736 0.950 . S
C1744 C1745 1.386 . S
C1744 C1746 1.391 . S
C1745 C1744 1.386 . S
C1745 C1749 1.393 1_556 S
C1746 H1738 0.950 . S
C1746 C1744 1.391 . S
C1746 C1747 1.400 . S
C1747 C1746 1.400 . S
C1747 C1748 1.398 1_556 S
C1747 C1753 1.491 . S
C1748 H1739 0.950 . S
C1748 C1747 1.398 1_554 S
C1748 C1749 1.391 . S
C1749 H1737 0.950 . S
C1749 C1745 1.393 1_554 S
C1749 C1748 1.391 . S
C1750 H1740 0.950 . S
C1750 C1751 1.386 1_554 S
C1750 C1752 1.391 . S
C1751 C1750 1.386 1_556 S
C1751 C1755 1.393 . S
C1752 H1741 0.950 . S
C1752 C1750 1.391 . S
C1752 C1753 1.400 1_554 S
C1753 C1747 1.491 . S
C1753 C1752 1.400 1_556 S
C1753 C1754 1.398 . S
C1754 H1742 0.950 . S
C1754 C1753 1.398 . S
C1754 C1755 1.391 . S
C1755 H1743 0.950 . S
C1755 C1751 1.393 . S
C1755 C1754 1.391 . S
H1756 C1764 0.950 . S
H1757 C1769 0.950 . S
H1758 C1766 0.950 . S
H1759 C1768 0.950 . S
H1760 C1770 0.950 . S
H1761 C1772 0.950 . S
H1762 C1774 0.950 . S
H1763 C1775 0.950 . S
C1764 H1756 0.950 . S
C1764 C1765 1.386 . S
C1764 C1766 1.391 . S
C1765 C1764 1.386 . S
C1765 C1769 1.393 . S
C1766 H1758 0.950 . S
C1766 C1764 1.391 . S
C1766 C1767 1.400 . S
C1767 C1766 1.400 . S
C1767 C1768 1.398 . S
C1767 C1773 1.491 . S
C1768 H1759 0.950 . S
C1768 C1767 1.398 . S
C1768 C1769 1.391 . S
C1769 H1757 0.950 . S
C1769 C1765 1.393 . S
C1769 C1768 1.391 . S
C1770 H1760 0.950 . S
C1770 C1771 1.386 . S
C1770 C1772 1.391 . S
C1771 C1770 1.386 . S
C1771 C1775 1.393 . S
C1772 H1761 0.950 . S
C1772 C1770 1.391 . S
C1772 C1773 1.400 . S
C1773 C1767 1.491 . S
C1773 C1772 1.400 . S
C1773 C1774 1.398 . S
C1774 H1762 0.950 . S
C1774 C1773 1.398 . S
C1774 C1775 1.391 . S
C1775 H1763 0.950 . S
C1775 C1771 1.393 . S
C1775 C1774 1.391 . S
H1776 C1784 0.950 . S
H1777 C1789 0.950 . S
H1778 C1786 0.950 . S
H1779 C1788 0.950 . S
H1780 C1790 0.950 . S
H1781 C1792 0.950 . S
H1782 C1794 0.950 . S
H1783 C1795 0.950 . S
C1784 H1776 0.950 . S
C1784 C1785 1.386 . S
C1784 C1786 1.391 . S
C1785 C1784 1.386 . S
C1785 C1789 1.393 . S
C1786 H1778 0.950 . S
C1786 C1784 1.391 . S
C1786 C1787 1.400 . S
C1787 C1786 1.400 . S
C1787 C1788 1.398 . S
C1787 C1793 1.491 . S
C1788 H1779 0.950 . S
C1788 C1787 1.398 . S
C1788 C1789 1.391 . S
C1789 H1777 0.950 . S
C1789 C1785 1.393 . S
C1789 C1788 1.391 . S
C1790 H1780 0.950 . S
C1790 C1791 1.386 . S
C1790 C1792 1.391 . S
C1791 C1790 1.386 . S
C1791 C1795 1.393 . S
C1792 H1781 0.950 . S
C1792 C1790 1.391 . S
C1792 C1793 1.400 . S
C1793 C1787 1.491 . S
C1793 C1792 1.400 . S
C1793 C1794 1.398 . S
C1794 H1782 0.950 . S
C1794 C1793 1.398 . S
C1794 C1795 1.391 . S
C1795 H1783 0.950 . S
C1795 C1791 1.393 . S
C1795 C1794 1.391 . S
H1796 C1804 0.950 . S
H1797 C1809 0.950 . S
H1798 C1806 0.950 . S
H1799 C1808 0.950 . S
H1800 C1810 0.950 . S
H1801 C1812 0.950 . S
H1802 C1814 0.950 . S
H1803 C1815 0.950 . S
C1804 H1796 0.950 . S
C1804 C1805 1.386 . S
C1804 C1806 1.391 . S
C1805 C1804 1.386 . S
C1805 C1809 1.393 . S
C1806 H1798 0.950 . S
C1806 C1804 1.391 . S
C1806 C1807 1.400 . S
C1807 C1806 1.400 . S
C1807 C1808 1.398 . S
C1807 C1813 1.491 . S
C1808 H1799 0.950 . S
C1808 C1807 1.398 . S
C1808 C1809 1.391 . S
C1809 H1797 0.950 . S
C1809 C1805 1.393 . S
C1809 C1808 1.391 . S
C1810 H1800 0.950 . S
C1810 C1811 1.386 . S
C1810 C1812 1.391 . S
C1811 C1810 1.386 . S
C1811 C1815 1.393 . S
C1812 H1801 0.950 . S
C1812 C1810 1.391 . S
C1812 C1813 1.400 . S
C1813 C1807 1.491 . S
C1813 C1812 1.400 . S
C1813 C1814 1.398 . S
C1814 H1802 0.950 . S
C1814 C1813 1.398 . S
C1814 C1815 1.391 . S
C1815 H1803 0.950 . S
C1815 C1811 1.393 . S
C1815 C1814 1.391 . S
H1816 C1824 0.950 . S
H1817 C1829 0.950 . S
H1818 C1826 0.950 . S
H1819 C1828 0.950 . S
H1820 C1830 0.950 . S
H1821 C1832 0.950 . S
H1822 C1834 0.950 . S
H1823 C1835 0.950 . S
C1824 H1816 0.950 . S
C1824 C1825 1.386 . S
C1824 C1826 1.391 . S
C1825 C1824 1.386 . S
C1825 C1829 1.393 . S
C1826 H1818 0.950 . S
C1826 C1824 1.391 . S
C1826 C1827 1.400 . S
C1827 C1826 1.400 . S
C1827 C1828 1.398 . S
C1827 C1833 1.491 . S
C1828 H1819 0.950 . S
C1828 C1827 1.398 . S
C1828 C1829 1.391 . S
C1829 H1817 0.950 . S
C1829 C1825 1.393 . S
C1829 C1828 1.391 . S
C1830 H1820 0.950 . S
C1830 C1831 1.386 . S
C1830 C1832 1.391 . S
C1831 C1830 1.386 . S
C1831 C1835 1.393 . S
C1832 H1821 0.950 . S
C1832 C1830 1.391 . S
C1832 C1833 1.400 . S
C1833 C1827 1.491 . S
C1833 C1832 1.400 . S
C1833 C1834 1.398 . S
C1834 H1822 0.950 . S
C1834 C1833 1.398 . S
C1834 C1835 1.391 . S
C1835 H1823 0.950 . S
C1835 C1831 1.393 . S
C1835 C1834 1.391 . S
H1836 C1844 0.950 . S
H1837 C1849 0.950 . S
H1838 C1846 0.950 . S
H1839 C1848 0.950 . S
H1840 C1850 0.950 . S
H1841 C1852 0.950 . S
H1842 C1854 0.950 . S
H1843 C1855 0.950 . S
C1844 H1836 0.950 . S
C1844 C1845 1.386 . S
C1844 C1846 1.391 . S
C1845 C1844 1.386 . S
C1845 C1849 1.393 . S
C1846 H1838 0.950 . S
C1846 C1844 1.391 . S
C1846 C1847 1.400 . S
C1847 C1846 1.400 . S
C1847 C1848 1.398 . S
C1847 C1853 1.491 . S
C1848 H1839 0.950 . S
C1848 C1847 1.398 . S
C1848 C1849 1.391 . S
C1849 H1837 0.950 . S
C1849 C1845 1.393 . S
C1849 C1848 1.391 . S
C1850 H1840 0.950 . S
C1850 C1851 1.386 . S
C1850 C1852 1.391 . S
C1851 C1850 1.386 . S
C1851 C1855 1.393 . S
C1852 H1841 0.950 . S
C1852 C1850 1.391 . S
C1852 C1853 1.400 . S
C1853 C1847 1.491 . S
C1853 C1852 1.400 . S
C1853 C1854 1.398 . S
C1854 H1842 0.950 . S
C1854 C1853 1.398 . S
C1854 C1855 1.391 . S
C1855 H1843 0.950 . S
C1855 C1851 1.393 . S
C1855 C1854 1.391 . S
H1856 C1864 0.950 . S
H1857 C1869 0.950 . S
H1858 C1866 0.950 . S
H1859 C1868 0.950 . S
H1860 C1870 0.950 . S
H1861 C1872 0.950 . S
H1862 C1874 0.950 . S
H1863 C1875 0.950 . S
C1864 H1856 0.950 . S
C1864 C1865 1.386 . S
C1864 C1866 1.391 . S
C1865 C1864 1.386 . S
C1865 C1869 1.393 . S
C1866 H1858 0.950 . S
C1866 C1864 1.391 . S
C1866 C1867 1.400 . S
C1867 C1866 1.400 . S
C1867 C1868 1.398 . S
C1867 C1873 1.491 . S
C1868 H1859 0.950 . S
C1868 C1867 1.398 . S
C1868 C1869 1.391 . S
C1869 H1857 0.950 . S
C1869 C1865 1.393 . S
C1869 C1868 1.391 . S
C1870 H1860 0.950 . S
C1870 C1871 1.386 . S
C1870 C1872 1.391 . S
C1871 C1870 1.386 . S
C1871 C1875 1.393 . S
C1872 H1861 0.950 . S
C1872 C1870 1.391 . S
C1872 C1873 1.400 . S
C1873 C1867 1.491 . S
C1873 C1872 1.400 . S
C1873 C1874 1.398 . S
C1874 H1862 0.950 . S
C1874 C1873 1.398 . S
C1874 C1875 1.391 . S
C1875 H1863 0.950 . S
C1875 C1871 1.393 . S
C1875 C1874 1.391 . S
H1876 C1884 0.950 . S
H1877 C1889 0.950 . S
H1878 C1886 0.950 . S
H1879 C1888 0.950 . S
H1880 C1890 0.950 . S
H1881 C1892 0.950 . S
H1882 C1894 0.950 . S
H1883 C1895 0.950 . S
C1884 H1876 0.950 . S
C1884 C1885 1.386 . S
C1884 C1886 1.391 . S
C1885 C1884 1.386 . S
C1885 C1889 1.393 . S
C1886 H1878 0.950 . S
C1886 C1884 1.391 . S
C1886 C1887 1.400 . S
C1887 C1886 1.400 . S
C1887 C1888 1.398 . S
C1887 C1893 1.491 . S
C1888 H1879 0.950 . S
C1888 C1887 1.398 . S
C1888 C1889 1.391 . S
C1889 H1877 0.950 . S
C1889 C1885 1.393 . S
C1889 C1888 1.391 . S
C1890 H1880 0.950 . S
C1890 C1891 1.386 . S
C1890 C1892 1.391 . S
C1891 C1890 1.386 . S
C1891 C1895 1.393 . S
C1892 H1881 0.950 . S
C1892 C1890 1.391 . S
C1892 C1893 1.400 . S
C1893 C1887 1.491 . S
C1893 C1892 1.400 . S
C1893 C1894 1.398 . S
C1894 H1882 0.950 . S
C1894 C1893 1.398 . S
C1894 C1895 1.391 . S
C1895 H1883 0.950 . S
C1895 C1891 1.393 . S
C1895 C1894 1.391 . S
H1896 C1904 0.950 . S
H1897 C1909 0.950 . S
H1898 C1906 0.950 . S
H1899 C1908 0.950 . S
H1900 C1910 0.950 . S
H1901 C1912 0.950 . S
H1902 C1914 0.950 . S
H1903 C1915 0.950 . S
C1904 H1896 0.950 . S
C1904 C1905 1.386 . S
C1904 C1906 1.391 . S
C1905 C1904 1.386 . S
C1905 C1909 1.393 . S
C1906 H1898 0.950 . S
C1906 C1904 1.391 . S
C1906 C1907 1.400 . S
C1907 C1906 1.400 . S
C1907 C1908 1.398 . S
C1907 C1913 1.491 . S
C1908 H1899 0.950 . S
C1908 C1907 1.398 . S
C1908 C1909 1.391 . S
C1909 H1897 0.950 . S
C1909 C1905 1.393 . S
C1909 C1908 1.391 . S
C1910 H1900 0.950 . S
C1910 C1911 1.386 . S
C1910 C1912 1.391 . S
C1911 C1910 1.386 . S
C1911 C1915 1.393 . S
C1912 H1901 0.950 . S
C1912 C1910 1.391 . S
C1912 C1913 1.400 . S
C1913 C1907 1.491 . S
C1913 C1912 1.400 . S
C1913 C1914 1.398 . S
C1914 H1902 0.950 . S
C1914 C1913 1.398 . S
C1914 C1915 1.391 . S
C1915 H1903 0.950 . S
C1915 C1911 1.393 . S
C1915 C1914 1.391 . S
H1916 C1924 0.950 . S
H1917 C1929 0.950 . S
H1918 C1926 0.950 . S
H1919 C1928 0.950 . S
H1920 C1930 0.950 . S
H1921 C1932 0.950 . S
H1922 C1934 0.950 . S
H1923 C1935 0.950 . S
C1924 H1916 0.950 . S
C1924 C1925 1.386 . S
C1924 C1926 1.391 . S
C1925 C1924 1.386 . S
C1925 C1929 1.393 . S
C1926 H1918 0.950 . S
C1926 C1924 1.391 . S
C1926 C1927 1.400 . S
C1927 C1926 1.400 . S
C1927 C1928 1.398 . S
C1927 C1933 1.491 . S
C1928 H1919 0.950 . S
C1928 C1927 1.398 . S
C1928 C1929 1.391 . S
C1929 H1917 0.950 . S
C1929 C1925 1.393 . S
C1929 C1928 1.391 . S
C1930 H1920 0.950 . S
C1930 C1931 1.386 . S
C1930 C1932 1.391 . S
C1931 C1930 1.386 . S
C1931 C1935 1.393 . S
C1932 H1921 0.950 . S
C1932 C1930 1.391 . S
C1932 C1933 1.400 . S
C1933 C1927 1.491 . S
C1933 C1932 1.400 . S
C1933 C1934 1.398 . S
C1934 H1922 0.950 . S
C1934 C1933 1.398 . S
C1934 C1935 1.391 . S
C1935 H1923 0.950 . S
C1935 C1931 1.393 . S
C1935 C1934 1.391 . S
H1936 C1944 0.950 . S
H1937 C1949 0.950 . S
H1938 C1946 0.950 . S
H1939 C1948 0.950 . S
H1940 C1950 0.950 . S
H1941 C1952 0.950 . S
H1942 C1954 0.950 . S
H1943 C1955 0.950 . S
C1944 H1936 0.950 . S
C1944 C1945 1.386 . S
C1944 C1946 1.391 . S
C1945 C1944 1.386 . S
C1945 C1949 1.393 1_554 S
C1946 H1938 0.950 . S
C1946 C1944 1.391 . S
C1946 C1947 1.400 . S
C1947 C1946 1.400 . S
C1947 C1948 1.398 1_554 S
C1947 C1953 1.491 . S
C1948 H1939 0.950 . S
C1948 C1947 1.398 1_556 S
C1948 C1949 1.391 . S
C1949 H1937 0.950 . S
C1949 C1945 1.393 1_556 S
C1949 C1948 1.391 . S
C1950 H1940 0.950 . S
C1950 C1951 1.386 1_556 S
C1950 C1952 1.391 . S
C1951 C1950 1.386 1_554 S
C1951 C1955 1.393 . S
C1952 H1941 0.950 . S
C1952 C1950 1.391 . S
C1952 C1953 1.400 1_556 S
C1953 C1947 1.491 . S
C1953 C1952 1.400 1_554 S
C1953 C1954 1.398 . S
C1954 H1942 0.950 . S
C1954 C1953 1.398 . S
C1954 C1955 1.391 . S
C1955 H1943 0.950 . S
C1955 C1951 1.393 . S
C1955 C1954 1.391 . S
H1956 C1964 0.950 . S
H1957 C1969 0.950 . S
H1958 C1966 0.950 . S
H1959 C1968 0.950 . S
H1960 C1970 0.950 . S
H1961 C1972 0.950 . S
H1962 C1974 0.950 . S
H1963 C1975 0.950 . S
C1964 H1956 0.950 . S
C1964 C1965 1.386 . S
C1964 C1966 1.391 . S
C1965 C1964 1.386 . S
C1965 C1969 1.393 . S
C1966 H1958 0.950 . S
C1966 C1964 1.391 . S
C1966 C1967 1.400 . S
C1967 C1966 1.400 . S
C1967 C1968 1.398 . S
C1967 C1973 1.491 . S
C1968 H1959 0.950 . S
C1968 C1967 1.398 . S
C1968 C1969 1.391 . S
C1969 H1957 0.950 . S
C1969 C1965 1.393 . S
C1969 C1968 1.391 . S
C1970 H1960 0.950 . S
C1970 C1971 1.386 . S
C1970 C1972 1.391 . S
C1971 C1970 1.386 . S
C1971 C1975 1.393 . S
C1972 H1961 0.950 . S
C1972 C1970 1.391 . S
C1972 C1973 1.400 . S
C1973 C1967 1.491 . S
C1973 C1972 1.400 . S
C1973 C1974 1.398 . S
C1974 H1962 0.950 . S
C1974 C1973 1.398 . S
C1974 C1975 1.391 . S
C1975 H1963 0.950 . S
C1975 C1971 1.393 . S
C1975 C1974 1.391 . S
H1976 C1984 0.950 . S
H1977 C1989 0.950 . S
H1978 C1986 0.950 . S
H1979 C1988 0.950 . S
H1980 C1990 0.950 . S
H1981 C1992 0.950 . S
H1982 C1994 0.950 . S
H1983 C1995 0.950 . S
C1984 H1976 0.950 . S
C1984 C1985 1.386 . S
C1984 C1986 1.391 . S
C1985 C1984 1.386 . S
C1985 C1989 1.393 1_556 S
C1986 H1978 0.950 . S
C1986 C1984 1.391 . S
C1986 C1987 1.400 . S
C1987 C1986 1.400 . S
C1987 C1988 1.398 1_556 S
C1987 C1993 1.491 . S
C1988 H1979 0.950 . S
C1988 C1987 1.398 1_554 S
C1988 C1989 1.391 . S
C1989 H1977 0.950 . S
C1989 C1985 1.393 1_554 S
C1989 C1988 1.391 . S
C1990 H1980 0.950 . S
C1990 C1991 1.386 1_554 S
C1990 C1992 1.391 . S
C1991 C1990 1.386 1_556 S
C1991 C1995 1.393 . S
C1992 H1981 0.950 . S
C1992 C1990 1.391 . S
C1992 C1993 1.400 1_554 S
C1993 C1987 1.491 . S
C1993 C1992 1.400 1_556 S
C1993 C1994 1.398 . S
C1994 H1982 0.950 . S
C1994 C1993 1.398 . S
C1994 C1995 1.391 . S
C1995 H1983 0.950 . S
C1995 C1991 1.393 . S
C1995 C1994 1.391 . S
H1996 C2004 0.950 . S
H1997 C2009 0.950 . S
H1998 C2006 0.950 . S
H1999 C2008 0.950 . S
H2000 C2010 0.950 . S
H2001 C2012 0.950 . S
H2002 C2014 0.950 . S
H2003 C2015 0.950 . S
C2004 H1996 0.950 . S
C2004 C2005 1.386 . S
C2004 C2006 1.391 . S
C2005 C2004 1.386 . S
C2005 C2009 1.393 . S
C2006 H1998 0.950 . S
C2006 C2004 1.391 . S
C2006 C2007 1.400 . S
C2007 C2006 1.400 . S
C2007 C2008 1.398 . S
C2007 C2013 1.491 . S
C2008 H1999 0.950 . S
C2008 C2007 1.398 . S
C2008 C2009 1.391 . S
C2009 H1997 0.950 . S
C2009 C2005 1.393 . S
C2009 C2008 1.391 . S
C2010 H2000 0.950 . S
C2010 C2011 1.386 . S
C2010 C2012 1.391 . S
C2011 C2010 1.386 . S
C2011 C2015 1.393 . S
C2012 H2001 0.950 . S
C2012 C2010 1.391 . S
C2012 C2013 1.400 . S
C2013 C2007 1.491 . S
C2013 C2012 1.400 . S
C2013 C2014 1.398 . S
C2014 H2002 0.950 . S
C2014 C2013 1.398 . S
C2014 C2015 1.391 . S
C2015 H2003 0.950 . S
C2015 C2011 1.393 . S
C2015 C2014 1.391 . S
C745 C16 1.543 . S
C751 C85 1.538 . S
C765 C62 1.535 . S
C771 C39 1.543 . S
C785 C177 1.531 . S
C791 C108 1.538 . S
C805 C154 1.542 . S
C811 C131 1.533 . S
C825 C200 1.534 . S
C831 C269 1.533 . S
C845 C223 1.534 . S
C851 C246 1.543 . S
C865 C361 1.543 . S
C871 C292 1.535 . S
C885 C338 1.542 . S
C891 C315 1.538 . S
C905 C384 1.542 . S
C911 C453 1.538 . S
C925 C407 1.539 . S
C931 C430 1.542 . S
C945 C476 1.534 . S
C951 C545 1.542 . S
C965 C499 1.536 . S
C971 C522 1.543 . S
C985 C568 1.533 . S
C991 C637 1.535 . S
C1005 C614 1.532 . S
C1011 C591 1.537 . S
C1025 C729 1.539 . S
C1031 C660 1.531 . S
C1045 C706 1.541 . S
C1051 C683 1.541 . S
C1065 N12 1.549 . S
C1071 N104 1.549 . S
C1085 N679 1.538 . S
C1091 N35 1.538 . S
C1105 N58 1.538 . S
C1111 N334 1.538 . S
C1125 N541 1.547 . S
C1131 N81 1.547 . S
C1145 N587 1.550 . S
C1151 N127 1.550 . S
C1165 N150 1.551 . S
C1171 N242 1.551 . S
C1185 N173 1.547 . S
C1191 N449 1.547 . S
C1205 N288 1.549 . S
C1211 N196 1.549 . S
C1225 N495 1.546 . S
C1231 N219 1.546 . S
C1245 N265 1.545 . S
C1251 N725 1.545 . S
C1265 N311 1.540 . S
C1271 N403 1.540 . S
C1285 N357 1.548 . S
C1291 N633 1.548 . S
C1305 N472 1.548 . S
C1311 N380 1.548 . S
C1325 N426 1.543 . S
C1331 N702 1.543 . S
C1345 N518 1.545 . S
C1351 N610 1.545 . S
C1365 N656 1.547 . S
C1371 N564 1.547 . S
C1385 C7 1.421 . S
C1391 C444 1.425 . S
C1405 C30 1.422 . S
C1411 C421 1.422 . S
C1425 C398 1.423 . S
C1431 C53 1.422 . S
C1445 C375 1.422 . S
C1451 C76 1.426 . S
C1465 C99 1.427 . S
C1471 C536 1.424 . S
C1485 C122 1.427 . S
C1491 C513 1.426 . S
C1505 C145 1.425 . S
C1511 C490 1.422 . S
C1525 C467 1.425 . S
C1531 C168 1.422 . S
C1545 C191 1.427 . S
C1551 C628 1.426 . S
C1565 C605 1.426 . S
C1571 C214 1.427 . S
C1585 C582 1.425 . S
C1591 C237 1.421 . S
C1605 C260 1.421 . S
C1611 C559 1.425 . S
C1625 C283 1.427 . S
C1631 C720 1.423 . S
C1645 C306 1.425 . S
C1651 C697 1.422 . S
C1665 C674 1.422 . S
C1671 C329 1.422 . S
C1685 C352 1.423 . S
C1691 C651 1.421 . S
C1705 N25 1.473 . S
C1711 N2 1.482 . S
C1725 N48 1.476 . S
C1731 N71 1.467 . S
C1745 N117 1.478 . S
C1751 N94 1.486 . S
C1765 N140 1.481 . S
C1771 N163 1.472 . S
C1785 N209 1.489 . S
C1791 N186 1.488 . S
C1805 N232 1.463 . S
C1811 N255 1.471 . S
C1825 N278 1.483 . S
C1831 N301 1.475 . S
C1845 N324 1.480 . S
C1851 N347 1.487 . S
C1865 N370 1.471 . S
C1871 N393 1.463 . S
C1885 N439 1.484 . S
C1891 N416 1.489 . S
C1905 N462 1.471 . S
C1911 N485 1.480 . S
C1925 N531 1.487 . S
C1931 N508 1.480 . S
C1945 N577 1.471 . S
C1951 N554 1.463 . S
C1965 N600 1.477 . S
C1971 N623 1.485 . S
C1985 N646 1.485 . S
C1991 N669 1.478 . S
C2005 N715 1.462 . S
C2011 N692 1.469 . S
