# Generated by pormake.
# Topology uol, (4)-cn, num edge types: 1
# Building blocks:
#     Node 0, Type 0, BuildingBlock: KOZSID_clean_sbu_0, # of connection points: 4
#     Node 1, Type 0, BuildingBlock: KOZSID_clean_sbu_0, # of connection points: 4
#     Node 2, Type 0, BuildingBlock: KOZSID_clean_sbu_0, # of connection points: 4
#     Node 3, Type 0, BuildingBlock: KOZSID_clean_sbu_0, # of connection points: 4
#     Node 4, Type 0, BuildingBlock: KOZSID_clean_sbu_0, # of connection points: 4
#     Node 5, Type 0, BuildingBlock: KOZSID_clean_sbu_0, # of connection points: 4
#     Node 6, Type 0, BuildingBlock: KOZSID_clean_sbu_0, # of connection points: 4
#     Node 7, Type 0, BuildingBlock: KOZSID_clean_sbu_0, # of connection points: 4
#     Node 8, Type 0, BuildingBlock: KOZSID_clean_sbu_0, # of connection points: 4
#     Node 9, Type 0, BuildingBlock: KOZSID_clean_sbu_0, # of connection points: 4
#     Node 10, Type 0, BuildingBlock: KOZSID_clean_sbu_0, # of connection points: 4
#     Node 11, Type 0, BuildingBlock: KOZSID_clean_sbu_0, # of connection points: 4
#     Edge 12, Type (0, 0), BuildingBlock: AJUNOK_clean_linker_0, # of connection points: 2
#     Edge 13, Type (0, 0), BuildingBlock: AJUNOK_clean_linker_0, # of connection points: 2
#     Edge 14, Type (0, 0), BuildingBlock: AJUNOK_clean_linker_0, # of connection points: 2
#     Edge 15, Type (0, 0), BuildingBlock: AJUNOK_clean_linker_0, # of connection points: 2
#     Edge 16, Type (0, 0), BuildingBlock: AJUNOK_clean_linker_0, # of connection points: 2
#     Edge 17, Type (0, 0), BuildingBlock: AJUNOK_clean_linker_0, # of connection points: 2
#     Edge 18, Type (0, 0), BuildingBlock: AJUNOK_clean_linker_0, # of connection points: 2
#     Edge 19, Type (0, 0), BuildingBlock: AJUNOK_clean_linker_0, # of connection points: 2
#     Edge 20, Type (0, 0), BuildingBlock: AJUNOK_clean_linker_0, # of connection points: 2
#     Edge 21, Type (0, 0), BuildingBlock: AJUNOK_clean_linker_0, # of connection points: 2
#     Edge 22, Type (0, 0), BuildingBlock: AJUNOK_clean_linker_0, # of connection points: 2
#     Edge 23, Type (0, 0), BuildingBlock: AJUNOK_clean_linker_0, # of connection points: 2
#     Edge 24, Type (0, 0), BuildingBlock: AJUNOK_clean_linker_0, # of connection points: 2
#     Edge 25, Type (0, 0), BuildingBlock: AJUNOK_clean_linker_0, # of connection points: 2
#     Edge 26, Type (0, 0), BuildingBlock: AJUNOK_clean_linker_0, # of connection points: 2
#     Edge 27, Type (0, 0), BuildingBlock: AJUNOK_clean_linker_0, # of connection points: 2
#     Edge 28, Type (0, 0), BuildingBlock: AJUNOK_clean_linker_0, # of connection points: 2
#     Edge 29, Type (0, 0), BuildingBlock: AJUNOK_clean_linker_0, # of connection points: 2
#     Edge 30, Type (0, 0), BuildingBlock: AJUNOK_clean_linker_0, # of connection points: 2
#     Edge 31, Type (0, 0), BuildingBlock: AJUNOK_clean_linker_0, # of connection points: 2
#     Edge 32, Type (0, 0), BuildingBlock: AJUNOK_clean_linker_0, # of connection points: 2
#     Edge 33, Type (0, 0), BuildingBlock: AJUNOK_clean_linker_0, # of connection points: 2
#     Edge 34, Type (0, 0), BuildingBlock: AJUNOK_clean_linker_0, # of connection points: 2
#     Edge 35, Type (0, 0), BuildingBlock: AJUNOK_clean_linker_0, # of connection points: 2
# Relax obj value: 0.147
# Max RMSD: 0.332
# Mean RMSD: 0.314
data_MOF--net-uol--node1-KOZSID_clean_sbu_0--edge1-AJUNOK_clean_linker_0
_symmetry_space_group_name_H-M    P1
_symmetry_Int_Tables_number       1
_symmetry_cell_setting            triclinic
loop_
_symmetry_equiv_pos_as_xyz
'x, y, z'
_cell_length_a     31.776324
_cell_length_b     34.282064
_cell_length_c     52.177196
_cell_angle_alpha  89.934833
_cell_angle_beta   89.951171
_cell_angle_gamma 117.45825
loop_
_atom_site_label
_atom_site_type_symbol
_atom_site_fract_x
_atom_site_fract_y
_atom_site_fract_z
_atom_type_partial_charge
C0 C 0.16756 0.30909 0.07946 0.0
C1 C 0.1478 0.2795 0.05941 0.0
C2 C 0.10077 0.26889 0.05849 0.0
C3 C 0.09365 0.29087 0.0786 0.0
N4 N 0.1334 0.31458 0.09221 0.0
Co5 Co 0.13648 0.34063 0.12658 0.0
N6 N 0.06699 0.30495 0.13197 0.0
C7 C 1.03473 0.28495 0.11343 0.0
C8 C 0.98911 0.26333 0.12247 0.0
C9 C 0.99267 0.27039 0.14834 0.0
C10 C 0.04053 0.29611 0.15365 0.0
N11 N 0.13901 0.36606 0.16113 0.0
C12 C 0.10649 0.35217 0.18051 0.0
C13 C 0.12267 0.38099 0.20102 0.0
C14 C 0.16647 0.41408 0.19407 0.0
C15 C 0.1747 0.40377 0.16972 0.0
N16 N 0.20568 0.37589 0.12078 0.0
C17 C 0.23414 0.41272 0.13357 0.0
C18 C 0.28047 0.4303 0.12542 0.0
C19 C 0.2809 0.40276 0.10632 0.0
C20 C 0.23474 0.36958 0.10389 0.0
N21 N 0.12645 0.38921 0.11138 0.0
C22 C 0.12844 0.47043 0.09704 0.0
C23 C 0.15467 0.45332 0.08355 0.0
C24 C 0.15307 0.41293 0.09089 0.0
C25 C 0.09853 0.44385 0.11669 0.0
C26 C 0.09799 0.40377 0.12346 0.0
N27 N 0.14899 0.29436 0.14213 0.0
C28 C 0.20336 0.27834 0.16695 0.0
C29 C 0.18292 0.23491 0.15806 0.0
C30 C 0.14272 0.22121 0.14214 0.0
C31 C 0.12641 0.2514 0.13438 0.0
C32 C 0.18576 0.30698 0.1591 0.0
H33 H 0.09664 0.24041 0.12145 0.0
H34 H 0.20394 0.3403 0.16586 0.0
H35 H 0.1752 0.40193 0.08066 0.0
H36 H 0.07581 0.3855 0.1393 0.0
C37 C 0.04918 0.28022 0.08894 0.0
C38 C 0.2191 0.33412 0.08447 0.0
C39 C 0.05872 0.3141 0.1791 0.0
C40 C 0.21748 0.42466 0.15577 0.0
H41 H 0.16527 0.26655 0.04674 0.0
H42 H 0.07423 0.24508 0.04597 0.0
H43 H 0.95726 0.24331 0.11171 0.0
H44 H 0.9633 0.25818 0.16171 0.0
H45 H 0.10442 0.37862 0.21893 0.0
H46 H 0.18995 0.44172 0.20567 0.0
H47 H 0.31073 0.45866 0.13312 0.0
H48 H 0.31163 0.40656 0.0955 0.0
H49 H 0.17789 0.47185 0.06799 0.0
H50 H 0.07589 0.45412 0.12713 0.0
H51 H 0.2344 0.29113 0.17914 0.0
H52 H 0.12422 0.18764 0.13541 0.0
C53 C 0.70016 0.16625 0.29587 0.0
C54 C 0.68804 0.19876 0.30312 0.0
C55 C 0.71514 0.21941 0.32394 0.0
C56 C 0.7437 0.19982 0.3277 0.0
N57 N 0.73722 0.16862 0.3102 0.0
Co58 Co 0.7782 0.13884 0.30617 0.0
N59 N 0.82569 0.17884 0.33125 0.0
C60 C 0.81878 0.20472 0.34832 0.0
C61 C 0.85738 0.22783 0.36369 0.0
C62 C 0.89087 0.2159 0.35576 0.0
C63 C 0.87082 0.18642 0.33572 0.0
N64 N 0.81949 0.10972 0.30191 0.0
C65 C 0.866 0.12439 0.30795 0.0
C66 C 0.88147 0.09437 0.3004 0.0
C67 C 0.8431 0.05957 0.28962 0.0
C68 C 0.80652 0.07034 0.29103 0.0
N69 N 0.72929 0.0983 0.28145 0.0
C70 C 0.72622 0.05966 0.2735 0.0
C71 C 0.68673 0.03554 0.25897 0.0
C72 C 0.66273 0.05998 0.25794 0.0
C73 C 0.68909 0.09816 0.27179 0.0
N74 N 0.81468 0.17952 0.27806 0.0
C75 C 0.89446 0.23146 0.2472 0.0
C76 C 0.8645 0.18727 0.24134 0.0
C77 C 0.82477 0.16222 0.25668 0.0
C78 C 0.88009 0.25039 0.26704 0.0
C79 C 0.84007 0.22392 0.28218 0.0
N80 N 0.74485 0.09713 0.33455 0.0
C81 C 0.67492 0.03721 0.35323 0.0
C82 C 0.70298 1.02619 0.36976 0.0
C83 C 0.752 0.05335 0.36911 0.0
C84 C 0.7719 0.08816 0.35171 0.0
C85 C 0.69648 0.07289 0.33592 0.0
H86 H 0.80992 0.10624 0.3514 0.0
H87 H 0.6741 0.07984 0.32315 0.0
H88 H 0.8048 0.12777 0.25241 0.0
H89 H 0.83204 0.23885 0.29837 0.0
C90 C 0.78028 0.21332 0.34561 0.0
C91 C 0.67199 0.13091 0.27745 0.0
C92 C 0.89518 0.16535 0.32196 0.0
C93 C 0.76244 0.04832 0.27889 0.0
H94 H 0.66145 0.20618 0.29472 0.0
H95 H 0.71491 0.24634 0.33465 0.0
H96 H 0.86162 0.25218 0.37802 0.0
H97 H 0.92618 0.22796 0.36361 0.0
H98 H 0.91667 0.09727 0.30237 0.0
H99 H 0.84255 0.03075 0.28084 0.0
H100 H 0.67634 1.00374 0.2503 0.0
H101 H 0.62879 0.04987 0.24878 0.0
H102 H 0.87279 0.17148 0.22555 0.0
H103 H 0.9013 0.2847 0.27192 0.0
H104 H 0.63668 1.01816 0.35339 0.0
H105 H 0.77558 0.04657 0.38118 0.0
C106 C 0.67881 0.84291 0.42115 0.0
C107 C 0.69835 0.84767 0.39683 0.0
C108 C 0.71627 0.81818 0.39518 0.0
C109 C 0.70698 0.79727 0.41853 0.0
N110 N 0.68426 0.81175 0.43467 0.0
Co111 Co 0.6664 0.7923 0.47062 0.0
N112 N 0.71289 0.76887 0.47284 0.0
C113 C 0.7333 0.75956 0.45274 0.0
C114 C 0.76435 0.74404 0.45997 0.0
C115 C 0.76302 0.7431 0.48624 0.0
C116 C 0.73077 0.75783 0.49364 0.0
N117 N 0.64831 0.77264 0.50656 0.0
C118 C 0.67123 0.76097 0.52464 0.0
C119 C 0.64498 0.74827 0.54711 0.0
C120 C 0.60421 0.75188 0.54278 0.0
C121 C 0.60766 0.76648 0.51793 0.0
N122 N 0.62041 0.81616 0.46811 0.0
C123 C 0.58273 0.80559 0.48348 0.0
C124 C 0.55859 0.82903 0.47762 0.0
C125 C 0.58282 0.85589 0.45737 0.0
C126 C 0.62053 0.84743 0.45203 0.0
N127 N 0.61715 0.73422 0.45858 0.0
C128 C 0.54076 0.65179 0.44527 0.0
C129 C 0.54878 0.69044 0.43214 0.0
C130 C 0.58685 0.73114 0.43911 0.0
C131 C 0.5732 0.65537 0.46451 0.0
C132 C 0.61093 0.69649 0.47075 0.0
N133 N 0.71429 0.84999 0.48297 0.0
C134 C 0.73276 0.91341 0.5095 0.0
C135 C 0.77738 0.93637 0.49798 0.0
C136 C 0.79016 0.91462 0.47906 0.0
C137 C 0.75829 0.87132 0.47199 0.0
C138 C 0.70207 0.87058 0.50184 0.0
H139 H 0.76872 0.85551 0.45721 0.0
H140 H 0.6676 0.85471 0.51069 0.0
H141 H 0.59113 0.76032 0.42909 0.0
H142 H 0.63455 0.69771 0.4859 0.0
C143 C 0.72805 0.77211 0.42786 0.0
C144 C 0.65432 0.86738 0.43076 0.0
C145 C 0.71536 0.75771 0.52029 0.0
C146 C 0.5778 0.78124 0.50603 0.0
H147 H 0.70023 0.87045 0.38198 0.0
H148 H 0.73634 0.81452 0.37943 0.0
H149 H 0.78657 0.73584 0.44769 0.0
H150 H 0.7833 0.73248 0.49845 0.0
H151 H 0.65408 0.73702 0.56465 0.0
H152 H 0.57613 0.7458 0.55639 0.0
H153 H 0.52853 0.82847 0.48769 0.0
H154 H 0.574 0.87913 0.44773 0.0
H155 H 0.52498 0.68948 0.41703 0.0
H156 H 0.56948 0.62648 0.47478 0.0
H157 H 0.72065 0.92902 0.52368 0.0
H158 H 0.82429 0.9311 0.46959 0.0
C159 C 0.87915 0.73297 0.5774 0.0
C160 C 0.88983 0.75068 0.55288 0.0
C161 C 0.93707 0.76332 0.54894 0.0
C162 C 0.95247 0.75248 0.57114 0.0
N163 N 0.91785 0.73376 0.5887 0.0
Co164 Co 0.92459 0.713 0.62312 0.0
N165 N 0.99431 0.75101 0.62292 0.0
C166 C 1.02104 0.7689 0.60192 0.0
C167 C 0.06843 0.79281 0.60733 0.0
C168 C 0.07188 0.78937 0.63332 0.0
C169 C 1.02619 0.76326 0.64234 0.0
N170 N 0.93178 0.69218 0.65756 0.0
C171 C 0.96897 0.7091 0.67414 0.0
C172 C 0.95927 0.68276 0.69576 0.0
C173 C 0.91474 0.64811 0.69237 0.0
C174 C 0.89965 0.65506 0.66891 0.0
N175 N 0.8549 0.67537 0.62281 0.0
C176 C 0.83077 0.64012 0.63783 0.0
C177 C 0.78256 0.62209 0.63409 0.0
C178 C 0.77635 0.64768 0.61558 0.0
C179 C 0.82122 0.67999 0.60894 0.0
N180 N 0.93318 0.66423 0.60752 0.0
C181 C 0.93474 0.58577 0.59135 0.0
C182 C 0.90281 0.59919 0.58071 0.0
C183 C 0.90275 0.63832 0.58891 0.0
C184 C 0.96704 0.61372 0.60959 0.0
C185 C 0.96598 0.65265 0.61719 0.0
N186 N 0.91407 0.75992 0.63924 0.0
C187 C 0.86705 0.77766 0.6689 0.0
C188 C 0.88577 0.82084 0.65963 0.0
C189 C 0.92004 0.83295 0.63994 0.0
C190 C 0.93363 0.80205 0.63 0.0
C191 C 0.8822 0.74849 0.65898 0.0
H192 H 0.9589 0.81177 0.61444 0.0
H193 H 0.86606 0.71571 0.66667 0.0
H194 H 0.87668 0.64669 0.58085 0.0
H195 H 0.99083 0.67259 0.63162 0.0
C196 C 0.99986 0.76726 0.57815 0.0
C197 C 0.83163 0.71376 0.58891 0.0
C198 C 1.01519 0.74751 0.66889 0.0
C199 C 0.85373 0.6315 0.65854 0.0
H200 H 0.86608 0.75431 0.53933 0.0
H201 H 0.95809 0.7804 0.5324 0.0
H202 H 0.09698 0.81136 0.59408 0.0
H203 H 0.10443 0.80374 0.64428 0.0
H204 H 0.98228 0.68772 0.71204 0.0
H205 H 0.89532 0.62164 0.70573 0.0
H206 H 0.755 0.59514 0.64458 0.0
H207 H 0.74272 0.64336 0.60811 0.0
H208 H 0.87666 0.57878 0.56682 0.0
H209 H 0.99284 0.60536 0.6182 0.0
H210 H 0.839 0.76528 0.68306 0.0
H211 H 0.9357 0.8658 0.63194 0.0
C212 C 0.3684 0.89374 0.79391 0.0
C213 C 0.37902 0.85943 0.79897 0.0
C214 C 0.34521 0.83157 0.8155 0.0
C215 C 0.31521 0.84963 0.81921 0.0
N216 N 0.32754 0.88719 0.80608 0.0
Co217 Co 0.28773 0.91842 0.80333 0.0
N218 N 0.2468 0.88561 0.83327 0.0
C219 C 0.2472 0.8506 0.84482 0.0
C220 C 0.21566 0.83391 0.86463 0.0
C221 C 0.19267 0.85906 0.86537 0.0
C222 C 0.21147 0.89003 0.84578 0.0
N223 N 0.24744 0.94885 0.80006 0.0
C224 C 0.21072 0.94644 0.81468 0.0
C225 C 0.19294 0.9736 0.80499 0.0
C226 C 0.21768 0.99198 0.78299 0.0
C227 C 0.24958 0.97561 0.78063 0.0
N228 N 0.33036 0.9517 0.77396 0.0
C229 C 0.32196 0.97753 0.75743 0.0
C230 C 0.35865 0.99955 0.74066 0.0
C231 C 0.39225 0.98659 0.74668 0.0
C232 C 0.37396 0.95643 0.76658 0.0
N233 N 0.24316 0.8725 0.77916 0.0
C234 C 0.17336 0.82392 0.74196 0.0
C235 C 0.22201 0.84293 0.73599 0.0
C236 C 0.25633 0.86663 0.75493 0.0
C237 C 0.16109 0.82632 0.76729 0.0
C238 C 0.19582 0.85036 0.78526 0.0
N239 N 0.32975 0.96536 0.82738 0.0
C240 C 0.36453 0.04256 0.83869 0.0
C241 C 0.36882 0.03344 0.86442 0.0
C242 C 0.3556 0.98948 0.87094 0.0
C243 C 0.33714 0.95618 0.85209 0.0
C244 C 0.34511 1.00851 0.82072 0.0
H245 H 0.32698 0.92284 0.85787 0.0
H246 H 0.34031 1.01752 0.80171 0.0
H247 H 0.29322 0.88156 0.74949 0.0
H248 H 0.18265 0.85216 0.80371 0.0
C249 C 0.27807 0.83466 0.83674 0.0
C250 C 0.39756 0.93097 0.77685 0.0
C251 C 0.18766 0.9152 0.83588 0.0
C252 C 0.28371 0.98646 0.76132 0.0
H253 H 0.40809 0.85472 0.79146 0.0
H254 H 0.34316 0.80198 0.82409 0.0
H255 H 0.2092 0.80598 0.87669 0.0
H256 H 0.16344 0.85293 0.87804 0.0
H257 H 0.16366 0.97803 0.8125 0.0
H258 H 0.2128 1.01442 0.77018 0.0
H259 H 0.36175 1.02399 0.7266 0.0
H260 H 0.42653 0.99873 0.73756 0.0
H261 H 0.23342 0.84121 0.71665 0.0
H262 H 0.12418 0.81088 0.77309 0.0
H263 H 0.37373 0.07575 0.83261 0.0
H264 H 0.35875 0.98076 0.89054 0.0
C265 C 0.3876 0.21033 0.91901 0.0
C266 C 0.37471 0.20774 0.89339 0.0
C267 C 0.3646 0.2421 0.88889 0.0
C268 C 0.37153 0.26347 0.91196 0.0
N269 N 0.38507 0.24455 0.93053 0.0
Co270 Co 0.39848 0.26495 0.96636 0.0
N271 N 0.35811 0.29478 0.96378 0.0
C272 C 0.35463 0.31371 0.94175 0.0
C273 C 0.34668 0.34927 0.94565 0.0
C274 C 0.34462 0.35258 0.97174 0.0
C275 C 0.34748 0.31662 0.98232 0.0
N276 N 0.41178 0.28569 1.00236 0.0
C277 C 0.38921 0.30211 0.01797 0.0
C278 C 0.41654 0.3202 0.03974 0.0
C279 C 0.45525 0.31236 0.03822 0.0
C280 C 0.45088 0.29145 0.01523 0.0
N281 N 0.43924 0.23565 0.96809 0.0
C282 C 0.47419 0.24481 0.98509 0.0
C283 C 0.49542 0.218 0.98199 0.0
C284 C 0.47213 0.19057 0.96177 0.0
C285 C 0.43784 0.20209 0.95363 0.0
N286 N 0.45397 0.32066 0.95491 0.0
C287 C 0.53421 0.40044 0.94036 0.0
C288 C 0.52417 0.36022 0.92847 0.0
C289 C 0.48431 0.32088 0.9361 0.0
C290 C 0.50244 0.39953 0.95929 0.0
C291 C 0.46327 0.35988 0.96628 0.0
N292 N 0.34504 0.20939 0.97823 0.0
C293 C 0.32122 0.14566 1.00553 0.0
C294 C 0.28102 0.12124 0.99057 0.0
C295 C 0.272 0.14318 0.97006 0.0
C296 C 0.30428 0.18735 0.96433 0.0
C297 C 0.35235 0.18911 0.99914 0.0
H298 H 0.29744 0.20302 0.948 0.0
H299 H 0.38414 0.20526 0.01038 0.0
H300 H 0.4783 0.29052 0.92693 0.0
H301 H 0.44076 0.36141 0.98118 0.0
C302 C 0.36082 0.29781 0.91795 0.0
C303 C 0.40624 0.18281 0.93131 0.0
C304 C 0.34727 0.30793 0.01016 0.0
C305 C 0.47923 0.27251 1.00612 0.0
H306 H 0.37359 0.18412 0.87932 0.0
H307 H 0.35258 0.24983 0.8711 0.0
H308 H 0.34486 0.37135 0.93136 0.0
H309 H 0.34217 0.37899 0.98188 0.0
H310 H 0.41103 0.33942 0.05453 0.0
H311 H 0.48339 0.32126 0.05216 0.0
H312 H 0.52299 0.21704 0.99373 0.0
H313 H 0.47943 0.16509 0.95394 0.0
H314 H 0.54749 0.35895 0.91372 0.0
H315 H 0.50757 0.42952 0.96871 0.0
H316 H 0.33025 0.13059 0.02143 0.0
H317 H 0.24079 0.12625 0.95825 0.0
C318 C 0.57135 0.89953 0.71992 0.0
C319 C 0.52712 0.86782 0.71174 0.0
C320 C 0.53484 0.84397 0.69319 0.0
C321 C 0.58309 0.86149 0.69139 0.0
N322 N 0.60703 0.89499 0.70772 0.0
Co323 Co 0.67769 0.92395 0.71345 0.0
N324 N 0.68821 0.88918 0.68535 0.0
C325 C 0.65436 0.85963 0.66998 0.0
C326 C 0.67082 0.83969 0.65286 0.0
C327 C 0.71812 0.85712 0.65771 0.0
C328 C 0.728 0.88712 0.67759 0.0
N329 N 0.74765 0.95144 0.72007 0.0
C330 C 0.7817 0.94209 0.71012 0.0
C331 C 0.82517 0.96681 0.72183 0.0
C332 C 0.81814 0.99171 0.74016 0.0
C333 C 0.77096 0.98102 0.73859 0.0
N334 N 0.66634 0.96001 0.7407 0.0
C335 C 0.7004 0.99113 0.75531 0.0
C336 C 0.68425 1.01431 0.77022 0.0
C337 C 0.6369 0.99684 0.765 0.0
C338 C 0.6262 0.96289 0.74764 0.0
N339 N 0.67109 0.87764 0.73929 0.0
C340 C 0.70039 0.82705 0.77109 0.0
C341 C 0.69951 0.86505 0.78018 0.0
C342 C 0.68421 0.88916 0.76435 0.0
C343 C 0.68012 0.81173 0.74697 0.0
C344 C 0.66509 0.83697 0.73167 0.0
N345 N 0.68841 0.97119 0.68754 0.0
C346 C 0.73733 0.04697 0.67445 0.0
C347 C 0.72406 0.03754 0.64879 0.0
C348 C 0.68932 0.99448 0.6432 0.0
C349 C 0.67166 0.96214 0.66282 0.0
C350 C 0.7194 1.01404 0.69314 0.0
H351 H 0.64574 0.92966 0.65751 0.0
H352 H 0.733 1.02402 0.71187 0.0
H353 H 0.68544 0.9181 0.77262 0.0
H354 H 0.65072 0.82379 0.71327 0.0
C355 C 0.60681 0.84744 0.67433 0.0
C356 C 0.57717 0.93351 0.73899 0.0
C357 C 0.77446 0.90954 0.69002 0.0
C358 C 0.74742 0.99806 0.75412 0.0
H359 H 0.49253 0.86204 0.71845 0.0
H360 H 0.50836 0.81683 0.68238 0.0
H361 H 0.65045 0.81386 0.63937 0.0
H362 H 0.74178 0.84701 0.64831 0.0
H363 H 0.85834 0.96634 0.71777 0.0
H364 H 0.84423 1.01451 0.75328 0.0
H365 H 0.70461 0.04115 0.78312 0.0
H366 H 0.61303 1.00798 0.77315 0.0
H367 H 0.71185 0.87695 0.79934 0.0
H368 H 0.67789 0.78144 0.73938 0.0
H369 H 0.76288 0.07984 0.68014 0.0
H370 H 0.6772 0.98518 0.62372 0.0
C371 C 0.89328 0.7207 0.93299 0.0
C372 C 0.89546 0.73479 0.95811 0.0
C373 C 0.85807 0.74401 0.96134 0.0
C374 C 0.83515 0.73493 0.93812 0.0
N375 N 0.8558 0.72054 0.92062 0.0
Co376 Co 0.83426 0.7036 0.88493 0.0
N377 N 0.79867 0.73827 0.88509 0.0
C378 C 0.78441 0.75146 0.90621 0.0
C379 C 0.75879 0.77349 0.90068 0.0
C380 C 0.75643 0.77386 0.87445 0.0
C381 C 0.78094 0.75202 0.86537 0.0
N382 N 0.81191 0.6865 0.84918 0.0
C383 C 0.79308 0.70452 0.8323 0.0
C384 C 0.78237 0.68174 0.8093 0.0
C385 C 0.79415 0.64806 0.81216 0.0
C386 C 0.81159 0.65207 0.83665 0.0
N387 N 0.87031 0.66939 0.88511 0.0
C388 C 0.86429 0.6371 0.86868 0.0
C389 C 0.89695 0.6218 0.87248 0.0
C390 C 0.92497 0.64606 0.89253 0.0
C391 C 0.90769 0.67476 0.90002 0.0
N392 N 0.77719 0.65093 0.89761 0.0
C393 C 0.69842 0.57041 0.91237 0.0
C394 C 0.74335 0.5847 0.92357 0.0
C395 C 0.78182 0.62473 0.91609 0.0
C396 C 0.69401 0.59802 0.89375 0.0
C397 C 0.73343 0.63798 0.8868 0.0
N398 N 0.89194 0.75464 0.87212 0.0
C399 C 0.96189 0.77928 0.84563 0.0
C400 C 0.98394 0.81974 0.85839 0.0
C401 C 0.9579 0.82727 0.87792 0.0
C402 C 0.91189 0.79443 0.88439 0.0
C403 C 0.91624 0.74793 0.8524 0.0
H404 H 0.89319 0.80053 0.89991 0.0
H405 H 0.90186 0.71704 0.84247 0.0
H406 H 0.8158 0.63391 0.9249 0.0
H407 H 0.72859 0.65799 0.87229 0.0
C408 C 0.8011 0.74776 0.9305 0.0
C409 C 0.9257 0.70568 0.9218 0.0
C410 C 0.78249 0.7413 0.83819 0.0
C411 C 0.83537 0.62961 0.84691 0.0
H412 H 0.92141 0.73822 0.97253 0.0
H413 H 0.85009 0.75781 0.97818 0.0
H414 H 0.74443 0.78837 0.91406 0.0
H415 H 0.73795 0.78784 0.86332 0.0
H416 H 0.76755 0.6886 0.79226 0.0
H417 H 0.79197 0.62456 0.79772 0.0
H418 H 0.90179 0.59783 0.86106 0.0
H419 H 0.95499 0.64334 0.9004 0.0
H420 H 0.7493 0.56455 0.93764 0.0
H421 H 0.66019 0.58887 0.88459 0.0
H422 H 0.9805 0.77065 0.83112 0.0
H423 H 0.97319 0.85795 0.8884 0.0
C424 C 0.19758 0.83962 0.09386 0.0
C425 C 0.18168 0.84355 0.11802 0.0
C426 C 0.13456 0.81334 0.11919 0.0
C427 C 0.12433 0.79271 0.09577 0.0
N428 N 0.16217 0.80799 0.08009 0.0
Co429 Co 0.16289 0.78902 0.04434 0.0
N430 N 0.09328 0.76534 0.041 0.0
C431 C 0.06246 0.75549 0.06062 0.0
C432 C 1.01639 0.7399 0.05263 0.0
C433 C 1.01831 0.73949 0.02638 0.0
C434 C 0.06565 0.75457 0.01975 0.0
N435 N 0.16368 0.76981 0.0086 0.0
C436 C 0.13011 0.75791 0.99 0.0
C437 C 0.14513 0.7454 0.96795 0.0
C438 C 0.18941 0.74941 0.97312 0.0
C439 C 0.19903 0.76403 0.998 0.0
N440 N 0.23246 0.8134 0.04803 0.0
C441 C 0.26078 0.80331 0.03335 0.0
C442 C 0.30786 0.82743 0.03982 0.0
C443 C 0.30883 0.85427 0.05972 0.0
C444 C 0.26222 0.84511 0.06426 0.0
N445 N 0.15386 0.73046 0.05667 0.0
C446 C 0.14537 0.64682 0.07137 0.0
C447 C 0.17699 0.68592 0.08384 0.0
C448 C 0.18052 0.727 0.07635 0.0
C449 C 0.11791 0.65111 0.0515 0.0
C450 C 0.12249 0.69266 0.04458 0.0
N451 N 0.17272 0.84701 0.03169 0.0
C452 C 0.21757 0.91066 1.00505 0.0
C453 C 0.19472 0.93326 0.01585 0.0
C454 C 0.15991 0.91122 0.03462 0.0
C455 C 0.14913 0.86806 0.04208 0.0
C456 C 0.20613 0.86797 0.01313 0.0
H457 H 0.12246 0.85208 0.05663 0.0
H458 H 0.22556 0.85244 1.00476 0.0
H459 H 0.20557 0.75616 0.08623 0.0
H460 H 0.10088 0.69407 0.02905 0.0
C461 C 0.07876 0.76745 0.0858 0.0
C462 C 0.24653 0.86525 0.08467 0.0
C463 C 0.08243 0.75447 0.99341 0.0
C464 C 0.24296 0.77906 0.01065 0.0
H465 H 0.20175 0.86628 0.13302 0.0
H466 H 0.11007 0.80904 0.13466 0.0
H467 H 0.98526 0.73121 0.0644 0.0
H468 H 0.98816 0.72878 0.01365 0.0
H469 H 0.12585 0.73407 0.95015 0.0
H470 H 0.21233 0.74358 0.96002 0.0
H471 H 0.33813 0.82745 0.03029 0.0
H472 H 0.34011 0.87811 0.06954 0.0
H473 H 0.19993 0.68516 0.09894 0.0
H474 H 0.09265 0.62235 0.04128 0.0
H475 H 0.24552 0.92641 0.99101 0.0
H476 H 0.14129 0.92728 0.04358 0.0
C477 C 0.49994 0.15944 0.21718 0.0
C478 C 0.54445 0.19091 0.20908 0.0
C479 C 0.53729 0.21557 0.19077 0.0
C480 C 0.4891 0.1986 0.18895 0.0
N481 N 0.46475 0.1646 0.20494 0.0
Co482 Co 0.39422 0.13642 0.21053 0.0
N483 N 0.3838 0.16713 0.18016 0.0
C484 C 0.41821 0.1979 0.16561 0.0
C485 C 0.40164 0.21443 0.14646 0.0
C486 C 0.35357 0.19368 0.14927 0.0
C487 C 0.34334 0.16533 0.1701 0.0
N488 N 0.32438 0.11 0.21706 0.0
C489 C 0.28994 0.11642 0.2051 0.0
C490 C 0.24678 0.09452 0.2177 0.0
C491 C 0.25448 0.07469 0.23864 0.0
C492 C 0.3017 0.08542 0.23764 0.0
N493 N 0.4052 0.10365 0.23973 0.0
C494 C 0.37184 0.07741 0.25654 0.0
C495 C 0.38697 0.05453 0.2724 0.0
C496 C 0.43311 0.06754 0.26561 0.0
C497 C 0.44432 0.09892 0.24645 0.0
N498 N 0.40118 0.1857 0.234 0.0
C499 C 0.37841 0.23572 0.26969 0.0
C500 C 0.39975 0.20991 0.27771 0.0
C501 C 0.41137 0.18572 0.25963 0.0
C502 C 0.37444 0.24017 0.24337 0.0
C503 C 0.38636 0.21571 0.22608 0.0
N504 N 0.38388 0.08655 0.18732 0.0
C505 C 0.33707 1.00924 0.17715 0.0
C506 C 0.35316 1.01601 0.15177 0.0
C507 C 0.38676 0.05878 0.14484 0.0
C508 C 0.40223 0.09326 0.16295 0.0
C509 C 0.35258 0.04447 0.19436 0.0
H510 H 0.42788 0.12551 0.15682 0.0
H511 H 0.33724 0.03729 0.21309 0.0
H512 H 0.42694 0.16602 0.26696 0.0
H513 H 0.38121 0.22091 0.20644 0.0
C514 C 0.46569 0.21205 0.17131 0.0
C515 C 0.49332 0.12592 0.23676 0.0
C516 C 0.29666 0.1447 0.18268 0.0
C517 C 0.32549 0.07175 0.25511 0.0
H518 H 0.57882 0.19611 0.21576 0.0
H519 H 0.5641 0.24258 0.17996 0.0
H520 H 0.42217 0.23998 0.13279 0.0
H521 H 0.32948 0.20118 0.13822 0.0
H522 H 0.21342 0.09374 0.21252 0.0
H523 H 0.22877 0.05505 0.25298 0.0
H524 H 0.3665 0.0303 0.28673 0.0
H525 H 0.45594 0.05547 0.27406 0.0
H526 H 0.40549 0.20677 0.2979 0.0
H527 H 0.3608 0.26171 0.23603 0.0
H528 H 0.31079 0.97705 0.18349 0.0
H529 H 0.40068 0.06567 0.12549 0.0
C530 C 0.17881 0.33468 0.43389 0.0
C531 C 0.17284 0.3193 0.45895 0.0
C532 C 0.20746 0.30683 0.4633 0.0
C533 C 0.23265 0.31544 0.4408 0.0
N534 N 0.2161 0.33262 0.42261 0.0
Co535 Co 0.2437 0.35163 0.38792 0.0
N536 N 0.27656 0.31446 0.38946 0.0
C537 C 0.28444 0.29684 0.41086 0.0
C538 C 0.30699 0.27177 0.40616 0.0
C539 C 0.31428 0.27411 0.38021 0.0
C540 C 0.29625 0.30112 0.37049 0.0
N541 N 0.27389 0.37232 0.35387 0.0
C542 C 0.29521 0.35531 0.33799 0.0
C543 C 0.3122 0.38103 0.31617 0.0
C544 C 0.30096 0.41511 0.31856 0.0
C545 C 0.27795 0.40856 0.34172 0.0
N546 N 0.20931 0.38736 0.38648 0.0
C547 C 0.21833 0.4205 0.37006 0.0
C548 C 0.18615 0.43673 0.37232 0.0
C549 C 0.15513 0.41217 0.39136 0.0
C550 C 0.17026 0.38241 0.39985 0.0
N551 N 0.29951 0.4016 0.40351 0.0
C552 C 0.37792 0.48074 0.41963 0.0
C553 C 0.33198 0.46808 0.42907 0.0
C554 C 0.29353 0.42863 0.42087 0.0
C555 C 0.3837 0.45186 0.40262 0.0
C556 C 0.34446 0.41256 0.39506 0.0
N557 N 0.18718 0.30313 0.37154 0.0
C558 C 0.1318 0.2806 0.33614 0.0
C559 C 0.09602 0.24859 0.35112 0.0
C560 C 0.10905 0.2408 0.37567 0.0
C561 C 0.15515 0.26749 0.38515 0.0
C562 C 0.17569 0.30832 0.34685 0.0
H563 H 0.16359 0.26044 0.40404 0.0
H564 H 0.19865 0.33524 0.33498 0.0
H565 H 0.25861 0.42077 0.42797 0.0
H566 H 0.35048 0.3918 0.38162 0.0
C567 C 0.26491 0.29989 0.43435 0.0
C568 C 0.149 0.35146 0.4215 0.0
C569 C 0.30199 0.31643 0.34372 0.0
C570 C 0.25174 0.42981 0.35026 0.0
H571 H 0.14596 0.31684 0.47254 0.0
H572 H 0.21208 0.29122 0.48035 0.0
H573 H 0.31587 0.25297 0.41984 0.0
H574 H 0.3314 0.25806 0.36983 0.0
H575 H 0.3306 0.3756 0.30019 0.0
H576 H 0.30697 0.44044 0.30454 0.0
H577 H 0.18406 0.46197 0.36073 0.0
H578 H 0.12484 0.41567 0.3981 0.0
H579 H 0.32534 0.48926 0.44205 0.0
H580 H 0.41843 0.45974 0.39499 0.0
H581 H 0.12553 0.28604 0.31639 0.0
H582 H 0.08344 0.21556 0.38797 0.0
C583 C 0.87637 0.22763 0.59469 0.0
C584 C 0.8908 0.23353 0.62015 0.0
C585 C 0.93811 0.26363 0.62029 0.0
C586 C 0.94942 0.27578 0.59513 0.0
N587 N 0.91216 0.25544 0.57944 0.0
Co588 Co 0.91054 0.27107 0.54324 0.0
N589 N 0.97993 0.29451 0.53957 0.0
C590 C 1.011 0.30681 0.55914 0.0
C591 C 0.05702 0.32205 0.55104 0.0
C592 C 0.05471 0.3198 0.52477 0.0
C593 C 1.00723 0.30375 0.51818 0.0
N594 N 0.90891 0.2877 0.50708 0.0
C595 C 0.94209 0.29862 0.48826 0.0
C596 C 0.92682 0.31086 0.46618 0.0
C597 C 0.88309 0.30808 0.47168 0.0
C598 C 0.87391 0.2943 0.49675 0.0
N599 N 0.84122 0.24684 0.54735 0.0
C600 C 0.81434 0.26026 0.53391 0.0
C601 C 0.76926 0.2438 0.54375 0.0
C602 C 0.76818 0.21814 0.5644 0.0
C603 C 0.81191 0.21814 0.56523 0.0
N604 N 0.91959 0.3302 0.55392 0.0
C605 C 0.92676 0.41383 0.56617 0.0
C606 C 0.89662 0.37588 0.57998 0.0
C607 C 0.89348 0.33469 0.57358 0.0
C608 C 0.95441 0.40887 0.54665 0.0
C609 C 0.9504 0.36719 0.5409 0.0
N610 N 0.9003 0.21251 0.53243 0.0
C611 C 0.85335 0.14707 0.50797 0.0
C612 C 0.87397 0.12421 0.52068 0.0
C613 C 0.9096 0.14715 0.5388 0.0
C614 C 0.92253 0.19144 0.54425 0.0
C615 C 0.86672 0.19079 0.51416 0.0
H616 H 0.94939 0.20829 0.55856 0.0
H617 H 0.84827 0.20648 0.50483 0.0
H618 H 0.86912 0.30626 0.5843 0.0
H619 H 0.97189 0.36495 0.52554 0.0
C620 C 0.99508 0.29964 0.58472 0.0
C621 C 0.82833 0.19721 0.58527 0.0
C622 C 0.99018 0.30281 0.49172 0.0
C623 C 0.83145 0.28294 0.51054 0.0
H624 H 0.86962 0.21726 0.63681 0.0
H625 H 0.96163 0.27416 0.63666 0.0
H626 H 0.08847 0.33296 0.56279 0.0
H627 H 0.08479 0.33005 0.51199 0.0
H628 H 0.94592 0.3219 0.44827 0.0
H629 H 0.8606 0.31492 0.45881 0.0
H630 H 0.74057 0.24966 0.53683 0.0
H631 H 0.73926 0.20323 0.57791 0.0
H632 H 0.8746 0.37773 0.5953 0.0
H633 H 0.97928 0.43709 0.53583 0.0
H634 H 0.82545 0.13069 0.49402 0.0
H635 H 0.92695 0.13091 0.54887 0.0
C636 C 0.13789 0.57158 0.05933 0.0
C637 C 0.14133 0.60208 0.0785 0.0
C638 C 0.13405 0.52972 0.06537 0.0
C639 C 0.13278 0.51563 0.09095 0.0
H640 H 0.13873 0.58027 0.03931 0.0
H641 H 0.13145 0.50797 0.04975 0.0
S642 S 0.14073 0.58241 0.14863 0.0
N643 N 0.14278 0.6143 0.12442 0.0
N644 N 0.13653 0.53685 0.13568 0.0
C645 C 0.13629 0.54582 0.11032 0.0
C646 C 0.1404 0.58852 0.10416 0.0
C647 C 0.61316 0.12145 0.24124 0.0
C648 C 0.62384 0.12519 0.26768 0.0
C649 C 0.57028 0.1193 0.23176 0.0
C650 C 0.53663 0.12318 0.24798 0.0
H651 H 0.63856 0.1208 0.22762 0.0
H652 H 0.56417 0.11609 0.21128 0.0
S653 S 0.54583 0.13141 0.31901 0.0
N654 N 0.59321 0.12676 0.3102 0.0
N655 N 0.51826 0.13153 0.29224 0.0
C656 C 0.54685 0.12678 0.27448 0.0
C657 C 0.58877 0.12565 0.28427 0.0
C658 C 0.48833 0.59332 0.41361 0.0
C659 C 0.49883 0.60816 0.43914 0.0
C660 C 0.44977 0.55219 0.40757 0.0
C661 C 0.41926 0.5242 0.4267 0.0
H662 H 0.51054 0.61342 0.39815 0.0
H663 H 0.44343 0.54247 0.38763 0.0
S664 S 0.43036 0.54773 0.49652 0.0
N665 N 0.47467 0.59145 0.48368 0.0
N666 N 0.4027 0.51473 0.47238 0.0
C667 C 0.42913 0.53884 0.45227 0.0
C668 C 0.46868 0.58048 0.45845 0.0
C669 C 0.93485 0.51399 0.60353 0.0
C670 C 0.93335 0.54237 0.58431 0.0
C671 C 0.93246 0.47278 0.59759 0.0
C672 C 0.92915 0.45803 0.57207 0.0
H673 H 0.93716 0.52338 0.62349 0.0
H674 H 0.93371 0.45247 0.61318 0.0
S675 S 0.92433 0.51957 0.51438 0.0
N676 N 0.92879 0.55244 0.53848 0.0
N677 N 0.92394 0.47547 0.52738 0.0
C678 C 0.92784 0.48616 0.55264 0.0
C679 C 0.92992 0.52797 0.55871 0.0
C680 C 0.49986 0.93904 0.73234 0.0
C681 C 0.5336 0.93704 0.74928 0.0
C682 C 0.45674 0.93733 0.74109 0.0
C683 C 0.44612 0.93686 0.76746 0.0
H684 H 0.50592 0.94011 0.71186 0.0
H685 H 0.43094 0.93502 0.72687 0.0
S686 S 0.52279 0.93346 0.82032 0.0
N687 N 0.55151 0.93257 0.79412 0.0
N688 N 0.47524 0.93691 0.81049 0.0
C689 C 0.48077 0.93726 0.78466 0.0
C690 C 0.52312 0.93582 0.77569 0.0
C691 C 0.58854 0.45648 0.90765 0.0
C692 C 0.57724 0.44313 0.93343 0.0
C693 C 0.62712 0.4975 0.90104 0.0
C694 C 0.65684 0.52698 0.91984 0.0
H695 H 0.5668 0.4354 0.89242 0.0
H696 H 0.63401 0.50598 0.88094 0.0
S697 S 0.64355 0.50764 0.99016 0.0
N698 N 0.60019 0.46281 0.97783 0.0
N699 N 0.67155 0.53931 0.96554 0.0
C700 C 0.64615 0.51376 0.94566 0.0
C701 C 0.60681 0.47221 0.95238 0.0
C702 C 0.25375 0.18806 0.19519 0.0
C703 C 0.26148 0.16171 0.17706 0.0
C704 C 0.2261 0.20927 0.18936 0.0
C705 C 0.20547 0.20589 0.1649 0.0
H706 H 0.27054 0.1935 0.21381 0.0
H707 H 0.22199 0.22954 0.20405 0.0
S708 S 0.21265 0.13797 0.11117 0.0
N709 N 0.24302 0.13004 0.13449 0.0
N710 N 0.19371 0.1719 0.12278 0.0
C711 C 0.2114 0.17796 0.14696 0.0
C712 C 0.23874 0.15554 0.15319 0.0
C713 C 0.96678 0.16101 0.34034 0.0
C714 C 0.94766 0.18343 0.32557 0.0
C715 C 1.01482 0.18165 0.34794 0.0
C716 C 0.04551 0.2259 0.34158 0.0
H717 H 0.94403 0.12786 0.3469 0.0
H718 H 1.0277 0.16289 0.35925 0.0
S719 S 1.01088 0.29927 0.30403 0.0
N720 N 0.96256 0.25157 0.30465 0.0
N721 N 0.05101 0.29165 0.32029 0.0
C722 C 1.02624 0.24845 0.32672 0.0
C723 C 0.97793 0.22694 0.31843 0.0
C724 C 0.84968 0.06055 0.49021 0.0
C725 C 0.85588 0.07621 0.51561 0.0
C726 C 0.82659 1.01528 0.48474 0.0
C727 C 0.80826 0.9837 0.50444 0.0
H728 H 0.86162 0.08358 0.47435 0.0
H729 H 0.82105 1.00505 0.46487 0.0
S730 S 0.81756 1.00722 0.57428 0.0
N731 N 0.84343 0.05627 0.56069 0.0
N732 N 0.80076 0.9714 0.55052 0.0
C733 C 0.81596 0.99887 0.52997 0.0
C734 C 0.83963 0.04498 0.53553 0.0
C735 C 0.85715 0.87787 0.65191 0.0
C736 C 0.86618 0.85088 0.66917 0.0
C737 C 0.83077 0.8997 0.65931 0.0
C738 C 0.81139 0.89481 0.68413 0.0
H739 H 0.86821 0.88033 0.6321 0.0
H740 H 0.82283 0.91828 0.64501 0.0
S741 S 0.83223 0.83568 0.73817 0.0
N742 N 0.86061 0.82775 0.71381 0.0
N743 N 0.80808 0.86571 0.72684 0.0
C744 C 0.82316 0.87095 0.70211 0.0
C745 C 0.85107 0.84968 0.69483 0.0
C746 C 0.06836 0.87264 0.87153 0.0
C747 C 1.03465 0.85169 0.85204 0.0
C748 C 0.11738 0.89601 0.86601 0.0
C749 C 0.13504 0.89813 0.84093 0.0
H750 H 0.05714 0.8692 0.89137 0.0
H751 H 0.14191 0.91059 0.88174 0.0
S752 S 0.06101 0.85755 0.78235 0.0
N753 N 1.02223 0.84271 0.80601 0.0
N754 N 0.11367 0.88263 0.79599 0.0
C755 C 0.10137 0.88036 0.8211 0.0
C756 C 0.05156 0.85801 0.82658 0.0
C757 C 0.22087 1.01257 0.02775 0.0
C758 C 0.20975 0.98037 0.00861 0.0
C759 C 0.24132 0.05768 0.02162 0.0
C760 C 0.25144 0.07287 0.99604 0.0
H761 H 0.21581 1.00306 0.04776 0.0
H762 H 0.25062 0.08102 0.03721 0.0
S763 S 0.2239 1.00155 0.9385 0.0
N764 N 0.20625 0.96666 0.96278 0.0
N765 N 0.245 0.05101 0.95131 0.0
C766 C 0.2379 0.04077 0.97663 0.0
C767 C 0.21722 0.9948 0.98289 0.0
C768 C 0.28575 0.31509 0.07373 0.0
C769 C 0.25387 0.33064 0.06583 0.0
C770 C 0.31404 0.30634 0.0559 0.0
C771 C 0.31228 0.31277 0.02907 0.0
H772 H 0.28792 0.30842 0.09385 0.0
H773 H 0.33588 0.29263 0.06352 0.0
S774 S 0.22258 0.34048 0.99873 0.0
N775 N 0.21941 0.34934 0.0295 0.0
N776 N 0.26171 0.3217 0.99651 0.0
C777 C 0.27589 0.32349 0.02119 0.0
C778 C 0.25039 0.3361 0.03936 0.0
C779 C 0.95325 0.29737 0.22145 0.0
C780 C 0.94091 0.25639 0.23319 0.0
C781 C 0.99392 0.3181 0.20564 0.0
C782 C 1.02427 0.29903 0.20122 0.0
H783 H 0.92999 0.3124 0.2234 0.0
H784 H 1.00017 0.34798 0.19561 0.0
S785 S 1.01195 0.1956 0.23021 0.0
N786 N 0.96585 0.20031 0.24139 0.0
N787 N 0.0412 0.23884 0.21159 0.0
C788 C 1.01393 0.25962 0.21407 0.0
C789 C 0.97267 0.2385 0.23006 0.0
C790 C 0.70214 0.98785 0.41153 0.0
C791 C 0.68317 0.9859 0.38675 0.0
C792 C 0.69062 0.94965 0.4262 0.0
C793 C 0.65932 0.90775 0.41689 0.0
H794 H 0.72747 1.01916 0.41939 0.0
H795 H 0.70786 0.95279 0.44455 0.0
S796 S 0.59699 0.88359 0.35442 0.0
N797 N 0.62944 0.93758 0.35434 0.0
N798 N 0.607 0.86643 0.38226 0.0
C799 C 0.63798 0.90526 0.39292 0.0
C800 C 0.64997 0.94409 0.37783 0.0
C801 C 0.75984 0.69052 0.56025 0.0
C802 C 0.79439 0.72245 0.57613 0.0
C803 C 0.7321 0.70144 0.54345 0.0
C804 C 0.7384 0.74485 0.54156 0.0
H805 H 0.75617 0.65752 0.5597 0.0
H806 H 0.7074 0.67632 0.53078 0.0
S807 S 0.8218 0.83981 0.57997 0.0
N808 N 0.83115 0.79863 0.58986 0.0
N809 N 0.77963 0.81909 0.55809 0.0
C810 C 0.77107 0.77645 0.55816 0.0
C811 C 0.79901 0.76531 0.57539 0.0
C812 C 0.10007 0.81938 0.7208 0.0
C813 C 0.1345 0.80424 0.72239 0.0
C814 C 0.06099 0.80005 0.7041 0.0
C815 C 0.05436 0.76447 0.68838 0.0
H816 H 0.10365 0.84681 0.73248 0.0
H817 H 0.03608 0.81343 0.70325 0.0
S818 S 0.13339 0.71193 0.68494 0.0
N819 N 0.15881 0.75113 0.70655 0.0
N820 N 0.08544 0.71487 0.6752 0.0
C821 C 0.08831 0.7489 0.68967 0.0
C822 C 0.12837 0.7688 0.70658 0.0
C823 C 0.3637 0.10146 0.92159 0.0
C824 C 0.40264 0.14301 0.91735 0.0
C825 C 0.35465 0.06534 0.90544 0.0
C826 C 0.38381 0.06954 0.8841 0.0
H827 H 0.33901 0.09738 0.93691 0.0
H828 H 0.32313 0.03457 0.90885 0.0
S829 S 0.4926 0.17067 0.86602 0.0
N830 N 0.47231 0.18546 0.89141 0.0
N831 N 0.45544 0.11833 0.86101 0.0
C832 C 0.42409 0.11056 0.88045 0.0
C833 C 0.43347 0.14702 0.89705 0.0
C834 C 0.69974 0.7587 0.79082 0.0
C835 C 0.72308 0.80455 0.78656 0.0
C836 C 0.71973 0.73794 0.80661 0.0
C837 C 0.76438 0.76198 0.81834 0.0
H838 H 0.66498 0.7389 0.78265 0.0
H839 H 0.69939 0.70304 0.81032 0.0
S840 S 0.8422 0.88177 0.81157 0.0
N841 N 0.79498 0.8726 0.79432 0.0
N842 N 0.83215 0.83362 0.82352 0.0
C843 C 0.78867 0.8074 0.81352 0.0
C844 C 0.76825 0.8286 0.79776 0.0
C845 C 1.00681 0.75888 0.93769 0.0
C846 C 0.97041 0.71521 0.93608 0.0
C847 C 0.04458 0.77097 0.9552 0.0
C848 C 0.04728 0.73987 0.97181 0.0
H849 H 1.0048 0.78427 0.92615 0.0
H850 H 0.0706 0.80524 0.95659 0.0
S851 S 0.96179 0.62136 0.97513 0.0
N852 N 0.93995 0.64093 0.9527 0.0
N853 N 1.01151 0.66332 0.98484 0.0
C854 C 1.01232 0.69584 0.96962 0.0
C855 C 0.97369 0.68361 0.95201 0.0
C856 C 0.28529 0.9468 0.09382 0.0
C857 C 0.28049 0.90478 0.09957 0.0
C858 C 0.31114 0.98321 0.10996 0.0
C859 C 0.33251 0.97886 0.13277 0.0
H860 H 0.26752 0.95121 0.07718 0.0
H861 H 0.31238 1.01448 0.10521 0.0
S862 S 0.33257 0.8762 0.15553 0.0
N863 N 0.30121 0.86145 0.12883 0.0
N864 N 0.34913 0.92916 0.1592 0.0
C865 C 0.32917 0.93719 0.13815 0.0
C866 C 0.30337 0.9004 0.12159 0.0
C867 C 0.38663 0.28262 0.30881 0.0
C868 C 0.35905 0.25699 0.28824 0.0
C869 C 0.36872 0.30297 0.32612 0.0
C870 C 0.32212 0.2977 0.32395 0.0
H871 H 0.42249 0.28735 0.3114 0.0
H872 H 0.39125 0.32247 0.34161 0.0
S873 S 0.23516 0.23394 0.2738 0.0
N874 N 0.28253 0.22789 0.26682 0.0
N875 N 0.24919 0.26554 0.2995 0.0
C876 C 0.29445 0.27268 0.30339 0.0
C877 C 0.31272 0.25236 0.28561 0.0
C878 C 0.0664 0.29899 0.43595 0.0
C879 C 0.1031 0.3426 0.43447 0.0
C880 C 1.02831 0.28678 0.45334 0.0
C881 C 1.02544 0.31769 0.47 0.0
H882 H 0.06868 0.27357 0.4246 0.0
H883 H 1.00231 0.2525 0.45471 0.0
S884 S 0.11091 0.43623 0.4733 0.0
N885 N 0.13316 0.41676 0.45103 0.0
N886 N 0.06099 0.39424 0.48288 0.0
C887 C 0.0604 0.36178 0.46774 0.0
C888 C 0.09939 0.37411 0.45026 0.0
C889 C 0.79864 0.09802 0.62999 0.0
C890 C 0.74907 0.0728 0.62883 0.0
C891 C 0.82331 0.135 0.61428 0.0
C892 C 0.8 0.15111 0.59735 0.0
H893 H 0.81887 0.08928 0.64345 0.0
H894 H 0.86146 0.15108 0.61591 0.0
S895 S 0.67263 0.08519 0.5792 0.0
N896 N 0.6789 0.05879 0.60419 0.0
N897 N 0.7254 0.12711 0.57405 0.0
C898 C 0.75117 0.12191 0.59318 0.0
C899 C 0.72577 0.08357 0.60924 0.0
loop_
_geom_bond_atom_site_label_1
_geom_bond_atom_site_label_2
_geom_bond_distance
_geom_bond_site_symmetry_2
_ccdc_geom_bond_type
C0 C1 1.443 . S
C0 N4 1.376 . S
C0 C38 1.389 . S
C1 C0 1.443 . S
C1 C2 1.340 . S
C1 H41 0.951 . S
C2 C1 1.340 . S
C2 C3 1.439 . S
C2 H42 0.950 . S
C3 C2 1.439 . S
C3 N4 1.374 . S
C3 C37 1.395 . S
N4 C0 1.376 . S
N4 C3 1.374 . S
N4 Co5 2.008 . S
Co5 N4 2.008 . S
Co5 N6 1.995 . S
Co5 N11 2.008 . S
Co5 N16 1.995 . S
Co5 N21 2.282 . S
Co5 N27 2.282 . S
N6 Co5 1.995 . S
N6 C7 1.376 . S
N6 C10 1.383 . S
C7 N6 1.376 . S
C7 C8 1.446 . S
C7 C37 1.391 . S
C8 C7 1.446 . S
C8 C9 1.339 . S
C8 H43 0.949 . S
C9 C8 1.339 . S
C9 C10 1.439 . S
C9 H44 0.950 . S
C10 N6 1.383 . S
C10 C9 1.439 . S
C10 C39 1.392 . S
N11 Co5 2.008 . S
N11 C12 1.376 . S
N11 C15 1.374 . S
C12 N11 1.376 . S
C12 C13 1.443 . S
C12 C39 1.389 . S
C13 C12 1.443 . S
C13 C14 1.340 . S
C13 H45 0.951 . S
C14 C13 1.340 . S
C14 C15 1.439 . S
C14 H46 0.950 . S
C15 N11 1.374 . S
C15 C14 1.439 . S
C15 C40 1.395 . S
N16 Co5 1.995 . S
N16 C17 1.376 . S
N16 C20 1.383 . S
C17 N16 1.376 . S
C17 C18 1.446 . S
C17 C40 1.391 . S
C18 C17 1.446 . S
C18 C19 1.339 . S
C18 H47 0.949 . S
C19 C18 1.339 . S
C19 C20 1.439 . S
C19 H48 0.950 . S
C20 N16 1.383 . S
C20 C19 1.439 . S
C20 C38 1.392 . S
N21 Co5 2.282 . S
N21 C24 1.332 . S
N21 C26 1.332 . S
C22 C23 1.386 . S
C22 C25 1.388 . S
C23 C22 1.386 . S
C23 C24 1.382 . S
C23 H49 0.950 . S
C24 N21 1.332 . S
C24 C23 1.382 . S
C24 H35 0.952 . S
C25 C22 1.388 . S
C25 C26 1.382 . S
C25 H50 0.950 . S
C26 N21 1.332 . S
C26 C25 1.382 . S
C26 H36 0.948 . S
N27 Co5 2.282 . S
N27 C31 1.332 . S
N27 C32 1.332 . S
C28 C29 1.388 . S
C28 C32 1.382 . S
C28 H51 0.950 . S
C29 C28 1.388 . S
C29 C30 1.386 . S
C30 C29 1.386 . S
C30 C31 1.382 . S
C30 H52 0.950 . S
C31 N27 1.332 . S
C31 C30 1.382 . S
C31 H33 0.952 . S
C32 N27 1.332 . S
C32 C28 1.382 . S
C32 H34 0.948 . S
H33 C31 0.952 . S
H34 C32 0.948 . S
H35 C24 0.952 . S
H36 C26 0.948 . S
C37 C3 1.395 . S
C37 C7 1.391 . S
C38 C0 1.389 . S
C38 C20 1.392 . S
C39 C10 1.392 . S
C39 C12 1.389 . S
C40 C15 1.395 . S
C40 C17 1.391 . S
H41 C1 0.951 . S
H42 C2 0.950 . S
H43 C8 0.949 . S
H44 C9 0.950 . S
H45 C13 0.951 . S
H46 C14 0.950 . S
H47 C18 0.949 . S
H48 C19 0.950 . S
H49 C23 0.950 . S
H50 C25 0.950 . S
H51 C28 0.950 . S
H52 C30 0.950 . S
C53 C54 1.443 . S
C53 N57 1.376 . S
C53 C91 1.389 . S
C54 C53 1.443 . S
C54 C55 1.340 . S
C54 H94 0.951 . S
C55 C54 1.340 . S
C55 C56 1.439 . S
C55 H95 0.950 . S
C56 C55 1.439 . S
C56 N57 1.374 . S
C56 C90 1.395 . S
N57 C53 1.376 . S
N57 C56 1.374 . S
N57 Co58 2.008 . S
Co58 N57 2.008 . S
Co58 N59 1.995 . S
Co58 N64 2.008 . S
Co58 N69 1.995 . S
Co58 N74 2.282 . S
Co58 N80 2.282 . S
N59 Co58 1.995 . S
N59 C60 1.376 . S
N59 C63 1.383 . S
C60 N59 1.376 . S
C60 C61 1.446 . S
C60 C90 1.391 . S
C61 C60 1.446 . S
C61 C62 1.339 . S
C61 H96 0.949 . S
C62 C61 1.339 . S
C62 C63 1.439 . S
C62 H97 0.950 . S
C63 N59 1.383 . S
C63 C62 1.439 . S
C63 C92 1.392 . S
N64 Co58 2.008 . S
N64 C65 1.376 . S
N64 C68 1.374 . S
C65 N64 1.376 . S
C65 C66 1.443 . S
C65 C92 1.389 . S
C66 C65 1.443 . S
C66 C67 1.340 . S
C66 H98 0.951 . S
C67 C66 1.340 . S
C67 C68 1.439 . S
C67 H99 0.950 . S
C68 N64 1.374 . S
C68 C67 1.439 . S
C68 C93 1.395 . S
N69 Co58 1.995 . S
N69 C70 1.376 . S
N69 C73 1.383 . S
C70 N69 1.376 . S
C70 C71 1.446 . S
C70 C93 1.391 . S
C71 C70 1.446 . S
C71 C72 1.339 . S
C71 H100 0.949 . S
C72 C71 1.339 . S
C72 C73 1.439 . S
C72 H101 0.950 . S
C73 N69 1.383 . S
C73 C72 1.439 . S
C73 C91 1.392 . S
N74 Co58 2.282 . S
N74 C77 1.332 . S
N74 C79 1.332 . S
C75 C76 1.386 . S
C75 C78 1.388 . S
C76 C75 1.386 . S
C76 C77 1.382 . S
C76 H102 0.950 . S
C77 N74 1.332 . S
C77 C76 1.382 . S
C77 H88 0.952 . S
C78 C75 1.388 . S
C78 C79 1.382 . S
C78 H103 0.950 . S
C79 N74 1.332 . S
C79 C78 1.382 . S
C79 H89 0.948 . S
N80 Co58 2.282 . S
N80 C84 1.332 . S
N80 C85 1.332 . S
C81 C82 1.388 . S
C81 C85 1.382 . S
C81 H104 0.961 . S
C82 C81 1.388 . S
C82 C83 1.386 . S
C83 C82 1.386 . S
C83 C84 1.382 . S
C83 H105 0.950 . S
C84 N80 1.332 . S
C84 C83 1.382 . S
C84 H86 0.952 . S
C85 N80 1.332 . S
C85 C81 1.382 . S
C85 H87 0.948 . S
H86 C84 0.952 . S
H87 C85 0.948 . S
H88 C77 0.952 . S
H89 C79 0.948 . S
C90 C56 1.395 . S
C90 C60 1.391 . S
C91 C53 1.389 . S
C91 C73 1.392 . S
C92 C63 1.392 . S
C92 C65 1.389 . S
C93 C68 1.395 . S
C93 C70 1.391 . S
H94 C54 0.951 . S
H95 C55 0.950 . S
H96 C61 0.949 . S
H97 C62 0.950 . S
H98 C66 0.951 . S
H99 C67 0.950 . S
H100 C71 0.949 . S
H101 C72 0.950 . S
H102 C76 0.950 . S
H103 C78 0.950 . S
H104 C81 0.961 . S
H105 C83 0.950 . S
C106 C107 1.443 . S
C106 N110 1.376 . S
C106 C144 1.389 . S
C107 C106 1.443 . S
C107 C108 1.340 . S
C107 H147 0.951 . S
C108 C107 1.340 . S
C108 C109 1.439 . S
C108 H148 0.950 . S
C109 C108 1.439 . S
C109 N110 1.374 . S
C109 C143 1.395 . S
N110 C106 1.376 . S
N110 C109 1.374 . S
N110 Co111 2.008 . S
Co111 N110 2.008 . S
Co111 N112 1.995 . S
Co111 N117 2.008 . S
Co111 N122 1.995 . S
Co111 N127 2.282 . S
Co111 N133 2.282 . S
N112 Co111 1.995 . S
N112 C113 1.376 . S
N112 C116 1.383 . S
C113 N112 1.376 . S
C113 C114 1.446 . S
C113 C143 1.391 . S
C114 C113 1.446 . S
C114 C115 1.339 . S
C114 H149 0.949 . S
C115 C114 1.339 . S
C115 C116 1.439 . S
C115 H150 0.950 . S
C116 N112 1.383 . S
C116 C115 1.439 . S
C116 C145 1.392 . S
N117 Co111 2.008 . S
N117 C118 1.376 . S
N117 C121 1.374 . S
C118 N117 1.376 . S
C118 C119 1.443 . S
C118 C145 1.389 . S
C119 C118 1.443 . S
C119 C120 1.340 . S
C119 H151 0.951 . S
C120 C119 1.340 . S
C120 C121 1.439 . S
C120 H152 0.950 . S
C121 N117 1.374 . S
C121 C120 1.439 . S
C121 C146 1.395 . S
N122 Co111 1.995 . S
N122 C123 1.376 . S
N122 C126 1.383 . S
C123 N122 1.376 . S
C123 C124 1.446 . S
C123 C146 1.391 . S
C124 C123 1.446 . S
C124 C125 1.339 . S
C124 H153 0.949 . S
C125 C124 1.339 . S
C125 C126 1.439 . S
C125 H154 0.950 . S
C126 N122 1.383 . S
C126 C125 1.439 . S
C126 C144 1.392 . S
N127 Co111 2.282 . S
N127 C130 1.332 . S
N127 C132 1.332 . S
C128 C129 1.386 . S
C128 C131 1.388 . S
C129 C128 1.386 . S
C129 C130 1.382 . S
C129 H155 0.950 . S
C130 N127 1.332 . S
C130 C129 1.382 . S
C130 H141 0.952 . S
C131 C128 1.388 . S
C131 C132 1.382 . S
C131 H156 0.950 . S
C132 N127 1.332 . S
C132 C131 1.382 . S
C132 H142 0.948 . S
N133 Co111 2.282 . S
N133 C137 1.332 . S
N133 C138 1.332 . S
C134 C135 1.388 . S
C134 C138 1.382 . S
C134 H157 0.950 . S
C135 C134 1.388 . S
C135 C136 1.386 . S
C136 C135 1.386 . S
C136 C137 1.382 . S
C136 H158 0.950 . S
C137 N133 1.332 . S
C137 C136 1.382 . S
C137 H139 0.952 . S
C138 N133 1.332 . S
C138 C134 1.382 . S
C138 H140 0.948 . S
H139 C137 0.952 . S
H140 C138 0.948 . S
H141 C130 0.952 . S
H142 C132 0.948 . S
C143 C109 1.395 . S
C143 C113 1.391 . S
C144 C106 1.389 . S
C144 C126 1.392 . S
C145 C116 1.392 . S
C145 C118 1.389 . S
C146 C121 1.395 . S
C146 C123 1.391 . S
H147 C107 0.951 . S
H148 C108 0.950 . S
H149 C114 0.949 . S
H150 C115 0.950 . S
H151 C119 0.951 . S
H152 C120 0.950 . S
H153 C124 0.949 . S
H154 C125 0.950 . S
H155 C129 0.950 . S
H156 C131 0.950 . S
H157 C134 0.950 . S
H158 C136 0.950 . S
C159 C160 1.443 . S
C159 N163 1.376 . S
C159 C197 1.389 . S
C160 C159 1.443 . S
C160 C161 1.340 . S
C160 H200 0.951 . S
C161 C160 1.340 . S
C161 C162 1.439 . S
C161 H201 0.950 . S
C162 C161 1.439 . S
C162 N163 1.374 . S
C162 C196 1.395 . S
N163 C159 1.376 . S
N163 C162 1.374 . S
N163 Co164 2.008 . S
Co164 N163 2.008 . S
Co164 N165 1.995 . S
Co164 N170 2.008 . S
Co164 N175 1.995 . S
Co164 N180 2.282 . S
Co164 N186 2.282 . S
N165 Co164 1.995 . S
N165 C166 1.376 . S
N165 C169 1.383 . S
C166 N165 1.376 . S
C166 C167 1.446 . S
C166 C196 1.391 . S
C167 C166 1.446 . S
C167 C168 1.339 . S
C167 H202 0.949 . S
C168 C167 1.339 . S
C168 C169 1.439 . S
C168 H203 0.950 . S
C169 N165 1.383 . S
C169 C168 1.439 . S
C169 C198 1.392 . S
N170 Co164 2.008 . S
N170 C171 1.376 . S
N170 C174 1.374 . S
C171 N170 1.376 . S
C171 C172 1.443 . S
C171 C198 1.389 . S
C172 C171 1.443 . S
C172 C173 1.340 . S
C172 H204 0.951 . S
C173 C172 1.340 . S
C173 C174 1.439 . S
C173 H205 0.950 . S
C174 N170 1.374 . S
C174 C173 1.439 . S
C174 C199 1.395 . S
N175 Co164 1.995 . S
N175 C176 1.376 . S
N175 C179 1.383 . S
C176 N175 1.376 . S
C176 C177 1.446 . S
C176 C199 1.391 . S
C177 C176 1.446 . S
C177 C178 1.339 . S
C177 H206 0.949 . S
C178 C177 1.339 . S
C178 C179 1.439 . S
C178 H207 0.950 . S
C179 N175 1.383 . S
C179 C178 1.439 . S
C179 C197 1.392 . S
N180 Co164 2.282 . S
N180 C183 1.332 . S
N180 C185 1.332 . S
C181 C182 1.386 . S
C181 C184 1.388 . S
C182 C181 1.386 . S
C182 C183 1.382 . S
C182 H208 0.950 . S
C183 N180 1.332 . S
C183 C182 1.382 . S
C183 H194 0.952 . S
C184 C181 1.388 . S
C184 C185 1.382 . S
C184 H209 0.950 . S
C185 N180 1.332 . S
C185 C184 1.382 . S
C185 H195 0.948 . S
N186 Co164 2.282 . S
N186 C190 1.332 . S
N186 C191 1.332 . S
C187 C188 1.388 . S
C187 C191 1.382 . S
C187 H210 0.950 . S
C188 C187 1.388 . S
C188 C189 1.386 . S
C189 C188 1.386 . S
C189 C190 1.382 . S
C189 H211 0.950 . S
C190 N186 1.332 . S
C190 C189 1.382 . S
C190 H192 0.952 . S
C191 N186 1.332 . S
C191 C187 1.382 . S
C191 H193 0.948 . S
H192 C190 0.952 . S
H193 C191 0.948 . S
H194 C183 0.952 . S
H195 C185 0.948 . S
C196 C162 1.395 . S
C196 C166 1.391 . S
C197 C159 1.389 . S
C197 C179 1.392 . S
C198 C169 1.392 . S
C198 C171 1.389 . S
C199 C174 1.395 . S
C199 C176 1.391 . S
H200 C160 0.951 . S
H201 C161 0.950 . S
H202 C167 0.949 . S
H203 C168 0.950 . S
H204 C172 0.951 . S
H205 C173 0.950 . S
H206 C177 0.949 . S
H207 C178 0.950 . S
H208 C182 0.950 . S
H209 C184 0.950 . S
H210 C187 0.950 . S
H211 C189 0.950 . S
C212 C213 1.443 . S
C212 N216 1.376 . S
C212 C250 1.389 . S
C213 C212 1.443 . S
C213 C214 1.340 . S
C213 H253 0.951 . S
C214 C213 1.340 . S
C214 C215 1.439 . S
C214 H254 0.950 . S
C215 C214 1.439 . S
C215 N216 1.374 . S
C215 C249 1.395 . S
N216 C212 1.376 . S
N216 C215 1.374 . S
N216 Co217 2.008 . S
Co217 N216 2.008 . S
Co217 N218 1.995 . S
Co217 N223 2.008 . S
Co217 N228 1.995 . S
Co217 N233 2.282 . S
Co217 N239 2.282 . S
N218 Co217 1.995 . S
N218 C219 1.376 . S
N218 C222 1.383 . S
C219 N218 1.376 . S
C219 C220 1.446 . S
C219 C249 1.391 . S
C220 C219 1.446 . S
C220 C221 1.339 . S
C220 H255 0.949 . S
C221 C220 1.339 . S
C221 C222 1.439 . S
C221 H256 0.950 . S
C222 N218 1.383 . S
C222 C221 1.439 . S
C222 C251 1.392 . S
N223 Co217 2.008 . S
N223 C224 1.376 . S
N223 C227 1.374 . S
C224 N223 1.376 . S
C224 C225 1.443 . S
C224 C251 1.389 . S
C225 C224 1.443 . S
C225 C226 1.340 . S
C225 H257 0.951 . S
C226 C225 1.340 . S
C226 C227 1.439 . S
C226 H258 0.950 . S
C227 N223 1.374 . S
C227 C226 1.439 . S
C227 C252 1.395 . S
N228 Co217 1.995 . S
N228 C229 1.376 . S
N228 C232 1.383 . S
C229 N228 1.376 . S
C229 C230 1.446 . S
C229 C252 1.391 . S
C230 C229 1.446 . S
C230 C231 1.339 . S
C230 H259 0.949 . S
C231 C230 1.339 . S
C231 C232 1.439 . S
C231 H260 0.950 . S
C232 N228 1.383 . S
C232 C231 1.439 . S
C232 C250 1.392 . S
N233 Co217 2.282 . S
N233 C236 1.332 . S
N233 C238 1.332 . S
C234 C235 1.386 . S
C234 C237 1.388 . S
C235 C234 1.386 . S
C235 C236 1.382 . S
C235 H261 0.950 . S
C236 N233 1.332 . S
C236 C235 1.382 . S
C236 H247 0.952 . S
C237 C234 1.388 . S
C237 C238 1.382 . S
C237 H262 0.950 . S
C238 N233 1.332 . S
C238 C237 1.382 . S
C238 H248 0.948 . S
N239 Co217 2.282 . S
N239 C243 1.332 . S
N239 C244 1.332 . S
C240 C241 1.388 . S
C240 C244 1.382 . S
C240 H263 0.961 . S
C241 C240 1.388 . S
C241 C242 1.386 . S
C242 C241 1.386 . S
C242 C243 1.382 . S
C242 H264 0.950 . S
C243 N239 1.332 . S
C243 C242 1.382 . S
C243 H245 0.952 . S
C244 N239 1.332 . S
C244 C240 1.382 . S
C244 H246 0.948 . S
H245 C243 0.952 . S
H246 C244 0.948 . S
H247 C236 0.952 . S
H248 C238 0.948 . S
C249 C215 1.395 . S
C249 C219 1.391 . S
C250 C212 1.389 . S
C250 C232 1.392 . S
C251 C222 1.392 . S
C251 C224 1.389 . S
C252 C227 1.395 . S
C252 C229 1.391 . S
H253 C213 0.951 . S
H254 C214 0.950 . S
H255 C220 0.949 . S
H256 C221 0.950 . S
H257 C225 0.951 . S
H258 C226 0.950 . S
H259 C230 0.949 . S
H260 C231 0.950 . S
H261 C235 0.950 . S
H262 C237 0.950 . S
H263 C240 0.961 . S
H264 C242 0.950 . S
C265 C266 1.443 . S
C265 N269 1.376 . S
C265 C303 1.389 . S
C266 C265 1.443 . S
C266 C267 1.340 . S
C266 H306 0.951 . S
C267 C266 1.340 . S
C267 C268 1.439 . S
C267 H307 0.950 . S
C268 C267 1.439 . S
C268 N269 1.374 . S
C268 C302 1.395 . S
N269 C265 1.376 . S
N269 C268 1.374 . S
N269 Co270 2.008 . S
Co270 N269 2.008 . S
Co270 N271 1.995 . S
Co270 N276 2.008 . S
Co270 N281 1.995 . S
Co270 N286 2.282 . S
Co270 N292 2.282 . S
N271 Co270 1.995 . S
N271 C272 1.376 . S
N271 C275 1.383 . S
C272 N271 1.376 . S
C272 C273 1.446 . S
C272 C302 1.391 . S
C273 C272 1.446 . S
C273 C274 1.339 . S
C273 H308 0.949 . S
C274 C273 1.339 . S
C274 C275 1.439 . S
C274 H309 0.950 . S
C275 N271 1.383 . S
C275 C274 1.439 . S
C275 C304 1.392 . S
N276 Co270 2.008 . S
N276 C277 1.376 . S
N276 C280 1.374 . S
C277 N276 1.376 . S
C277 C278 1.443 1_556 S
C277 C304 1.389 . S
C278 C277 1.443 1_554 S
C278 C279 1.342 . S
C278 H310 0.951 . S
C279 C278 1.342 . S
C279 C280 1.426 1_554 S
C279 H311 0.959 . S
C280 N276 1.374 . S
C280 C279 1.426 1_556 S
C280 C305 1.395 . S
N281 Co270 1.995 . S
N281 C282 1.376 . S
N281 C285 1.383 . S
C282 N281 1.376 . S
C282 C283 1.446 . S
C282 C305 1.391 . S
C283 C282 1.446 . S
C283 C284 1.339 . S
C283 H312 0.949 . S
C284 C283 1.339 . S
C284 C285 1.439 . S
C284 H313 0.950 . S
C285 N281 1.383 . S
C285 C284 1.439 . S
C285 C303 1.392 . S
N286 Co270 2.282 . S
N286 C289 1.332 . S
N286 C291 1.332 . S
C287 C288 1.386 . S
C287 C290 1.388 . S
C288 C287 1.386 . S
C288 C289 1.382 . S
C288 H314 0.950 . S
C289 N286 1.332 . S
C289 C288 1.382 . S
C289 H300 0.952 . S
C290 C287 1.388 . S
C290 C291 1.382 . S
C290 H315 0.950 . S
C291 N286 1.332 . S
C291 C290 1.382 . S
C291 H301 0.948 . S
N292 Co270 2.282 . S
N292 C296 1.332 . S
N292 C297 1.332 . S
C293 C294 1.388 . S
C293 C297 1.382 . S
C293 H316 0.950 . S
C294 C293 1.388 . S
C294 C295 1.386 . S
C295 C294 1.386 . S
C295 C296 1.382 . S
C295 H317 0.950 . S
C296 N292 1.332 . S
C296 C295 1.382 . S
C296 H298 0.952 . S
C297 N292 1.332 . S
C297 C293 1.382 . S
C297 H299 0.948 . S
H298 C296 0.952 . S
H299 C297 0.948 . S
H300 C289 0.952 . S
H301 C291 0.948 . S
C302 C268 1.395 . S
C302 C272 1.391 . S
C303 C265 1.389 . S
C303 C285 1.392 . S
C304 C275 1.392 . S
C304 C277 1.389 . S
C305 C280 1.395 . S
C305 C282 1.391 . S
H306 C266 0.951 . S
H307 C267 0.950 . S
H308 C273 0.949 . S
H309 C274 0.950 . S
H310 C278 0.951 . S
H311 C279 0.959 . S
H312 C283 0.949 . S
H313 C284 0.950 . S
H314 C288 0.950 . S
H315 C290 0.950 . S
H316 C293 0.950 . S
H317 C295 0.950 . S
C318 C319 1.443 . S
C318 N322 1.376 . S
C318 C356 1.389 . S
C319 C318 1.443 . S
C319 C320 1.340 . S
C319 H359 0.951 . S
C320 C319 1.340 . S
C320 C321 1.439 . S
C320 H360 0.950 . S
C321 C320 1.439 . S
C321 N322 1.374 . S
C321 C355 1.395 . S
N322 C318 1.376 . S
N322 C321 1.374 . S
N322 Co323 2.008 . S
Co323 N322 2.008 . S
Co323 N324 1.995 . S
Co323 N329 2.008 . S
Co323 N334 1.995 . S
Co323 N339 2.282 . S
Co323 N345 2.282 . S
N324 Co323 1.995 . S
N324 C325 1.376 . S
N324 C328 1.383 . S
C325 N324 1.376 . S
C325 C326 1.446 . S
C325 C355 1.391 . S
C326 C325 1.446 . S
C326 C327 1.339 . S
C326 H361 0.949 . S
C327 C326 1.339 . S
C327 C328 1.439 . S
C327 H362 0.950 . S
C328 N324 1.383 . S
C328 C327 1.439 . S
C328 C357 1.392 . S
N329 Co323 2.008 . S
N329 C330 1.376 . S
N329 C333 1.374 . S
C330 N329 1.376 . S
C330 C331 1.443 . S
C330 C357 1.389 . S
C331 C330 1.443 . S
C331 C332 1.340 . S
C331 H363 0.951 . S
C332 C331 1.340 . S
C332 C333 1.439 . S
C332 H364 0.950 . S
C333 N329 1.374 . S
C333 C332 1.439 . S
C333 C358 1.395 . S
N334 Co323 1.995 . S
N334 C335 1.376 . S
N334 C338 1.383 . S
C335 N334 1.376 . S
C335 C336 1.446 . S
C335 C358 1.391 . S
C336 C335 1.446 . S
C336 C337 1.339 . S
C336 H365 0.949 . S
C337 C336 1.339 . S
C337 C338 1.439 . S
C337 H366 0.950 . S
C338 N334 1.383 . S
C338 C337 1.439 . S
C338 C356 1.392 . S
N339 Co323 2.282 . S
N339 C342 1.332 . S
N339 C344 1.332 . S
C340 C341 1.386 . S
C340 C343 1.388 . S
C341 C340 1.386 . S
C341 C342 1.382 . S
C341 H367 0.950 . S
C342 N339 1.332 . S
C342 C341 1.382 . S
C342 H353 0.952 . S
C343 C340 1.388 . S
C343 C344 1.382 . S
C343 H368 0.950 . S
C344 N339 1.332 . S
C344 C343 1.382 . S
C344 H354 0.948 . S
N345 Co323 2.282 . S
N345 C349 1.332 . S
N345 C350 1.332 . S
C346 C347 1.388 . S
C346 C350 1.382 . S
C346 H369 0.962 . S
C347 C346 1.388 . S
C347 C348 1.386 . S
C348 C347 1.386 . S
C348 C349 1.382 . S
C348 H370 0.950 . S
C349 N345 1.332 . S
C349 C348 1.382 . S
C349 H351 0.952 . S
C350 N345 1.332 . S
C350 C346 1.382 . S
C350 H352 0.948 . S
H351 C349 0.952 . S
H352 C350 0.948 . S
H353 C342 0.952 . S
H354 C344 0.948 . S
C355 C321 1.395 . S
C355 C325 1.391 . S
C356 C318 1.389 . S
C356 C338 1.392 . S
C357 C328 1.392 . S
C357 C330 1.389 . S
C358 C333 1.395 . S
C358 C335 1.391 . S
H359 C319 0.951 . S
H360 C320 0.950 . S
H361 C326 0.949 . S
H362 C327 0.950 . S
H363 C331 0.951 . S
H364 C332 0.950 . S
H365 C336 0.949 . S
H366 C337 0.950 . S
H367 C341 0.950 . S
H368 C343 0.950 . S
H369 C346 0.962 . S
H370 C348 0.950 . S
C371 C372 1.443 . S
C371 N375 1.376 . S
C371 C409 1.389 . S
C372 C371 1.443 . S
C372 C373 1.340 . S
C372 H412 0.951 . S
C373 C372 1.340 . S
C373 C374 1.439 . S
C373 H413 0.950 . S
C374 C373 1.439 . S
C374 N375 1.374 . S
C374 C408 1.395 . S
N375 C371 1.376 . S
N375 C374 1.374 . S
N375 Co376 2.008 . S
Co376 N375 2.008 . S
Co376 N377 1.995 . S
Co376 N382 2.008 . S
Co376 N387 1.995 . S
Co376 N392 2.282 . S
Co376 N398 2.282 . S
N377 Co376 1.995 . S
N377 C378 1.376 . S
N377 C381 1.383 . S
C378 N377 1.376 . S
C378 C379 1.446 . S
C378 C408 1.391 . S
C379 C378 1.446 . S
C379 C380 1.339 . S
C379 H414 0.949 . S
C380 C379 1.339 . S
C380 C381 1.439 . S
C380 H415 0.950 . S
C381 N377 1.383 . S
C381 C380 1.439 . S
C381 C410 1.392 . S
N382 Co376 2.008 . S
N382 C383 1.376 . S
N382 C386 1.374 . S
C383 N382 1.376 . S
C383 C384 1.443 . S
C383 C410 1.389 . S
C384 C383 1.443 . S
C384 C385 1.340 . S
C384 H416 0.951 . S
C385 C384 1.340 . S
C385 C386 1.439 . S
C385 H417 0.950 . S
C386 N382 1.374 . S
C386 C385 1.439 . S
C386 C411 1.395 . S
N387 Co376 1.995 . S
N387 C388 1.376 . S
N387 C391 1.383 . S
C388 N387 1.376 . S
C388 C389 1.446 . S
C388 C411 1.391 . S
C389 C388 1.446 . S
C389 C390 1.339 . S
C389 H418 0.949 . S
C390 C389 1.339 . S
C390 C391 1.439 . S
C390 H419 0.950 . S
C391 N387 1.383 . S
C391 C390 1.439 . S
C391 C409 1.392 . S
N392 Co376 2.282 . S
N392 C395 1.332 . S
N392 C397 1.332 . S
C393 C394 1.386 . S
C393 C396 1.388 . S
C394 C393 1.386 . S
C394 C395 1.382 . S
C394 H420 0.950 . S
C395 N392 1.332 . S
C395 C394 1.382 . S
C395 H406 0.952 . S
C396 C393 1.388 . S
C396 C397 1.382 . S
C396 H421 0.950 . S
C397 N392 1.332 . S
C397 C396 1.382 . S
C397 H407 0.948 . S
N398 Co376 2.282 . S
N398 C402 1.332 . S
N398 C403 1.332 . S
C399 C400 1.388 . S
C399 C403 1.382 . S
C399 H422 0.950 . S
C400 C399 1.388 . S
C400 C401 1.386 . S
C401 C400 1.386 . S
C401 C402 1.382 . S
C401 H423 0.950 . S
C402 N398 1.332 . S
C402 C401 1.382 . S
C402 H404 0.952 . S
C403 N398 1.332 . S
C403 C399 1.382 . S
C403 H405 0.948 . S
H404 C402 0.952 . S
H405 C403 0.948 . S
H406 C395 0.952 . S
H407 C397 0.948 . S
C408 C374 1.395 . S
C408 C378 1.391 . S
C409 C371 1.389 . S
C409 C391 1.392 . S
C410 C381 1.392 . S
C410 C383 1.389 . S
C411 C386 1.395 . S
C411 C388 1.391 . S
H412 C372 0.951 . S
H413 C373 0.950 . S
H414 C379 0.949 . S
H415 C380 0.950 . S
H416 C384 0.951 . S
H417 C385 0.950 . S
H418 C389 0.949 . S
H419 C390 0.950 . S
H420 C394 0.950 . S
H421 C396 0.950 . S
H422 C399 0.950 . S
H423 C401 0.950 . S
C424 C425 1.443 . S
C424 N428 1.376 . S
C424 C462 1.389 . S
C425 C424 1.443 . S
C425 C426 1.340 . S
C425 H465 0.951 . S
C426 C425 1.340 . S
C426 C427 1.439 . S
C426 H466 0.950 . S
C427 C426 1.439 . S
C427 N428 1.374 . S
C427 C461 1.395 . S
N428 C424 1.376 . S
N428 C427 1.374 . S
N428 Co429 2.008 . S
Co429 N428 2.008 . S
Co429 N430 1.995 . S
Co429 N435 2.008 . S
Co429 N440 1.995 . S
Co429 N445 2.282 . S
Co429 N451 2.282 . S
N430 Co429 1.995 . S
N430 C431 1.376 . S
N430 C434 1.383 . S
C431 N430 1.376 . S
C431 C432 1.446 . S
C431 C461 1.391 . S
C432 C431 1.446 . S
C432 C433 1.339 . S
C432 H467 0.949 1_455 S
C433 C432 1.339 . S
C433 C434 1.439 . S
C433 H468 0.950 1_455 S
C434 N430 1.383 . S
C434 C433 1.439 . S
C434 C463 1.392 . S
N435 Co429 2.008 . S
N435 C436 1.376 . S
N435 C439 1.374 . S
C436 N435 1.376 . S
C436 C437 1.443 1_554 S
C436 C463 1.389 . S
C437 C436 1.443 1_556 S
C437 C438 1.342 . S
C437 H469 0.951 . S
C438 C437 1.342 . S
C438 C439 1.426 1_556 S
C438 H470 0.959 . S
C439 N435 1.374 . S
C439 C438 1.426 1_554 S
C439 C464 1.395 . S
N440 Co429 1.995 . S
N440 C441 1.376 . S
N440 C444 1.383 . S
C441 N440 1.376 . S
C441 C442 1.446 . S
C441 C464 1.391 . S
C442 C441 1.446 . S
C442 C443 1.339 . S
C442 H471 0.949 . S
C443 C442 1.339 . S
C443 C444 1.439 . S
C443 H472 0.950 . S
C444 N440 1.383 . S
C444 C443 1.439 . S
C444 C462 1.392 . S
N445 Co429 2.282 . S
N445 C448 1.332 . S
N445 C450 1.332 . S
C446 C447 1.386 . S
C446 C449 1.388 . S
C447 C446 1.386 . S
C447 C448 1.382 . S
C447 H473 0.950 . S
C448 N445 1.332 . S
C448 C447 1.382 . S
C448 H459 0.952 . S
C449 C446 1.388 . S
C449 C450 1.382 . S
C449 H474 0.950 . S
C450 N445 1.332 . S
C450 C449 1.382 . S
C450 H460 0.948 . S
N451 Co429 2.282 . S
N451 C455 1.332 . S
N451 C456 1.332 . S
C452 C453 1.388 . S
C452 C456 1.382 . S
C452 H475 0.950 . S
C453 C452 1.388 . S
C453 C454 1.386 . S
C454 C453 1.386 . S
C454 C455 1.382 . S
C454 H476 0.950 . S
C455 N451 1.332 . S
C455 C454 1.382 . S
C455 H457 0.952 . S
C456 N451 1.332 . S
C456 C452 1.382 . S
C456 H458 0.948 . S
H457 C455 0.952 . S
H458 C456 0.948 . S
H459 C448 0.952 . S
H460 C450 0.948 . S
C461 C427 1.395 . S
C461 C431 1.391 . S
C462 C424 1.389 . S
C462 C444 1.392 . S
C463 C434 1.392 . S
C463 C436 1.389 . S
C464 C439 1.395 . S
C464 C441 1.391 . S
H465 C425 0.951 . S
H466 C426 0.950 . S
H467 C432 0.949 1_655 S
H468 C433 0.950 1_655 S
H469 C437 0.951 . S
H470 C438 0.959 . S
H471 C442 0.949 . S
H472 C443 0.950 . S
H473 C447 0.950 . S
H474 C449 0.950 . S
H475 C452 0.950 . S
H476 C454 0.950 . S
C477 C478 1.443 . S
C477 N481 1.376 . S
C477 C515 1.389 . S
C478 C477 1.443 . S
C478 C479 1.340 . S
C478 H518 0.951 . S
C479 C478 1.340 . S
C479 C480 1.439 . S
C479 H519 0.950 . S
C480 C479 1.439 . S
C480 N481 1.374 . S
C480 C514 1.395 . S
N481 C477 1.376 . S
N481 C480 1.374 . S
N481 Co482 2.008 . S
Co482 N481 2.008 . S
Co482 N483 1.995 . S
Co482 N488 2.008 . S
Co482 N493 1.995 . S
Co482 N498 2.282 . S
Co482 N504 2.282 . S
N483 Co482 1.995 . S
N483 C484 1.376 . S
N483 C487 1.383 . S
C484 N483 1.376 . S
C484 C485 1.446 . S
C484 C514 1.391 . S
C485 C484 1.446 . S
C485 C486 1.339 . S
C485 H520 0.949 . S
C486 C485 1.339 . S
C486 C487 1.439 . S
C486 H521 0.950 . S
C487 N483 1.383 . S
C487 C486 1.439 . S
C487 C516 1.392 . S
N488 Co482 2.008 . S
N488 C489 1.376 . S
N488 C492 1.374 . S
C489 N488 1.376 . S
C489 C490 1.443 . S
C489 C516 1.389 . S
C490 C489 1.443 . S
C490 C491 1.340 . S
C490 H522 0.951 . S
C491 C490 1.340 . S
C491 C492 1.439 . S
C491 H523 0.950 . S
C492 N488 1.374 . S
C492 C491 1.439 . S
C492 C517 1.395 . S
N493 Co482 1.995 . S
N493 C494 1.376 . S
N493 C497 1.383 . S
C494 N493 1.376 . S
C494 C495 1.446 . S
C494 C517 1.391 . S
C495 C494 1.446 . S
C495 C496 1.339 . S
C495 H524 0.949 . S
C496 C495 1.339 . S
C496 C497 1.439 . S
C496 H525 0.950 . S
C497 N493 1.383 . S
C497 C496 1.439 . S
C497 C515 1.392 . S
N498 Co482 2.282 . S
N498 C501 1.332 . S
N498 C503 1.332 . S
C499 C500 1.386 . S
C499 C502 1.388 . S
C500 C499 1.386 . S
C500 C501 1.382 . S
C500 H526 0.950 . S
C501 N498 1.332 . S
C501 C500 1.382 . S
C501 H512 0.952 . S
C502 C499 1.388 . S
C502 C503 1.382 . S
C502 H527 0.950 . S
C503 N498 1.332 . S
C503 C502 1.382 . S
C503 H513 0.948 . S
N504 Co482 2.282 . S
N504 C508 1.332 . S
N504 C509 1.332 . S
C505 C506 1.388 . S
C505 C509 1.382 . S
C505 H528 0.962 . S
C506 C505 1.388 . S
C506 C507 1.386 . S
C507 C506 1.386 . S
C507 C508 1.382 . S
C507 H529 0.950 . S
C508 N504 1.332 . S
C508 C507 1.382 . S
C508 H510 0.952 . S
C509 N504 1.332 . S
C509 C505 1.382 . S
C509 H511 0.948 . S
H510 C508 0.952 . S
H511 C509 0.948 . S
H512 C501 0.952 . S
H513 C503 0.948 . S
C514 C480 1.395 . S
C514 C484 1.391 . S
C515 C477 1.389 . S
C515 C497 1.392 . S
C516 C487 1.392 . S
C516 C489 1.389 . S
C517 C492 1.395 . S
C517 C494 1.391 . S
H518 C478 0.951 . S
H519 C479 0.950 . S
H520 C485 0.949 . S
H521 C486 0.950 . S
H522 C490 0.951 . S
H523 C491 0.950 . S
H524 C495 0.949 . S
H525 C496 0.950 . S
H526 C500 0.950 . S
H527 C502 0.950 . S
H528 C505 0.962 . S
H529 C507 0.950 . S
C530 C531 1.443 . S
C530 N534 1.376 . S
C530 C568 1.389 . S
C531 C530 1.443 . S
C531 C532 1.340 . S
C531 H571 0.951 . S
C532 C531 1.340 . S
C532 C533 1.439 . S
C532 H572 0.950 . S
C533 C532 1.439 . S
C533 N534 1.374 . S
C533 C567 1.395 . S
N534 C530 1.376 . S
N534 C533 1.374 . S
N534 Co535 2.008 . S
Co535 N534 2.008 . S
Co535 N536 1.995 . S
Co535 N541 2.008 . S
Co535 N546 1.995 . S
Co535 N551 2.282 . S
Co535 N557 2.282 . S
N536 Co535 1.995 . S
N536 C537 1.376 . S
N536 C540 1.383 . S
C537 N536 1.376 . S
C537 C538 1.446 . S
C537 C567 1.391 . S
C538 C537 1.446 . S
C538 C539 1.339 . S
C538 H573 0.949 . S
C539 C538 1.339 . S
C539 C540 1.439 . S
C539 H574 0.950 . S
C540 N536 1.383 . S
C540 C539 1.439 . S
C540 C569 1.392 . S
N541 Co535 2.008 . S
N541 C542 1.376 . S
N541 C545 1.374 . S
C542 N541 1.376 . S
C542 C543 1.443 . S
C542 C569 1.389 . S
C543 C542 1.443 . S
C543 C544 1.340 . S
C543 H575 0.951 . S
C544 C543 1.340 . S
C544 C545 1.439 . S
C544 H576 0.950 . S
C545 N541 1.374 . S
C545 C544 1.439 . S
C545 C570 1.395 . S
N546 Co535 1.995 . S
N546 C547 1.376 . S
N546 C550 1.383 . S
C547 N546 1.376 . S
C547 C548 1.446 . S
C547 C570 1.391 . S
C548 C547 1.446 . S
C548 C549 1.339 . S
C548 H577 0.949 . S
C549 C548 1.339 . S
C549 C550 1.439 . S
C549 H578 0.950 . S
C550 N546 1.383 . S
C550 C549 1.439 . S
C550 C568 1.392 . S
N551 Co535 2.282 . S
N551 C554 1.332 . S
N551 C556 1.332 . S
C552 C553 1.386 . S
C552 C555 1.388 . S
C553 C552 1.386 . S
C553 C554 1.382 . S
C553 H579 0.950 . S
C554 N551 1.332 . S
C554 C553 1.382 . S
C554 H565 0.952 . S
C555 C552 1.388 . S
C555 C556 1.382 . S
C555 H580 0.950 . S
C556 N551 1.332 . S
C556 C555 1.382 . S
C556 H566 0.948 . S
N557 Co535 2.282 . S
N557 C561 1.332 . S
N557 C562 1.332 . S
C558 C559 1.388 . S
C558 C562 1.382 . S
C558 H581 0.950 . S
C559 C558 1.388 . S
C559 C560 1.386 . S
C560 C559 1.386 . S
C560 C561 1.382 . S
C560 H582 0.950 . S
C561 N557 1.332 . S
C561 C560 1.382 . S
C561 H563 0.952 . S
C562 N557 1.332 . S
C562 C558 1.382 . S
C562 H564 0.948 . S
H563 C561 0.952 . S
H564 C562 0.948 . S
H565 C554 0.952 . S
H566 C556 0.948 . S
C567 C533 1.395 . S
C567 C537 1.391 . S
C568 C530 1.389 . S
C568 C550 1.392 . S
C569 C540 1.392 . S
C569 C542 1.389 . S
C570 C545 1.395 . S
C570 C547 1.391 . S
H571 C531 0.951 . S
H572 C532 0.950 . S
H573 C538 0.949 . S
H574 C539 0.950 . S
H575 C543 0.951 . S
H576 C544 0.950 . S
H577 C548 0.949 . S
H578 C549 0.950 . S
H579 C553 0.950 . S
H580 C555 0.950 . S
H581 C558 0.950 . S
H582 C560 0.950 . S
C583 C584 1.443 . S
C583 N587 1.376 . S
C583 C621 1.389 . S
C584 C583 1.443 . S
C584 C585 1.340 . S
C584 H624 0.951 . S
C585 C584 1.340 . S
C585 C586 1.439 . S
C585 H625 0.950 . S
C586 C585 1.439 . S
C586 N587 1.374 . S
C586 C620 1.395 . S
N587 C583 1.376 . S
N587 C586 1.374 . S
N587 Co588 2.008 . S
Co588 N587 2.008 . S
Co588 N589 1.995 . S
Co588 N594 2.008 . S
Co588 N599 1.995 . S
Co588 N604 2.282 . S
Co588 N610 2.282 . S
N589 Co588 1.995 . S
N589 C590 1.376 . S
N589 C593 1.383 . S
C590 N589 1.376 . S
C590 C591 1.446 . S
C590 C620 1.391 . S
C591 C590 1.446 . S
C591 C592 1.339 . S
C591 H626 0.949 1_655 S
C592 C591 1.339 . S
C592 C593 1.439 . S
C592 H627 0.950 1_655 S
C593 N589 1.383 . S
C593 C592 1.439 . S
C593 C622 1.392 . S
N594 Co588 2.008 . S
N594 C595 1.376 . S
N594 C598 1.374 . S
C595 N594 1.376 . S
C595 C596 1.443 . S
C595 C622 1.389 . S
C596 C595 1.443 . S
C596 C597 1.340 . S
C596 H628 0.951 . S
C597 C596 1.340 . S
C597 C598 1.439 . S
C597 H629 0.950 . S
C598 N594 1.374 . S
C598 C597 1.439 . S
C598 C623 1.395 . S
N599 Co588 1.995 . S
N599 C600 1.376 . S
N599 C603 1.383 . S
C600 N599 1.376 . S
C600 C601 1.446 . S
C600 C623 1.391 . S
C601 C600 1.446 . S
C601 C602 1.339 . S
C601 H630 0.949 . S
C602 C601 1.339 . S
C602 C603 1.439 . S
C602 H631 0.950 . S
C603 N599 1.383 . S
C603 C602 1.439 . S
C603 C621 1.392 . S
N604 Co588 2.282 . S
N604 C607 1.332 . S
N604 C609 1.332 . S
C605 C606 1.386 . S
C605 C608 1.388 . S
C606 C605 1.386 . S
C606 C607 1.382 . S
C606 H632 0.950 . S
C607 N604 1.332 . S
C607 C606 1.382 . S
C607 H618 0.952 . S
C608 C605 1.388 . S
C608 C609 1.382 . S
C608 H633 0.950 . S
C609 N604 1.332 . S
C609 C608 1.382 . S
C609 H619 0.948 . S
N610 Co588 2.282 . S
N610 C614 1.332 . S
N610 C615 1.332 . S
C611 C612 1.388 . S
C611 C615 1.382 . S
C611 H634 0.950 . S
C612 C611 1.388 . S
C612 C613 1.386 . S
C613 C612 1.386 . S
C613 C614 1.382 . S
C613 H635 0.950 . S
C614 N610 1.332 . S
C614 C613 1.382 . S
C614 H616 0.952 . S
C615 N610 1.332 . S
C615 C611 1.382 . S
C615 H617 0.948 . S
H616 C614 0.952 . S
H617 C615 0.948 . S
H618 C607 0.952 . S
H619 C609 0.948 . S
C620 C586 1.395 . S
C620 C590 1.391 . S
C621 C583 1.389 . S
C621 C603 1.392 . S
C622 C593 1.392 . S
C622 C595 1.389 . S
C623 C598 1.395 . S
C623 C600 1.391 . S
H624 C584 0.951 . S
H625 C585 0.950 . S
H626 C591 0.949 1_455 S
H627 C592 0.950 1_455 S
H628 C596 0.951 . S
H629 C597 0.950 . S
H630 C601 0.949 . S
H631 C602 0.950 . S
H632 C606 0.950 . S
H633 C608 0.950 . S
H634 C611 0.950 . S
H635 C613 0.950 . S
C636 C637 1.369 . S
C636 C638 1.419 . S
C636 H640 0.930 . S
C637 C636 1.369 . S
C637 C646 1.429 . S
C638 C636 1.419 . S
C638 C639 1.363 . S
C638 H641 0.929 . S
C639 C638 1.363 . S
C639 C645 1.428 . S
H640 C636 0.930 . S
H641 C638 0.929 . S
S642 N643 1.613 . S
S642 N644 1.610 . S
N643 S642 1.613 . S
N643 C646 1.350 . S
N644 S642 1.610 . S
N644 C645 1.351 . S
C645 C639 1.428 . S
C645 N644 1.351 . S
C645 C646 1.434 . S
C646 C637 1.429 . S
C646 N643 1.350 . S
C646 C645 1.434 . S
C647 C648 1.369 . S
C647 C649 1.419 . S
C647 H651 0.930 . S
C648 C647 1.369 . S
C648 C657 1.429 . S
C649 C647 1.419 . S
C649 C650 1.363 . S
C649 H652 0.929 . S
C650 C649 1.363 . S
C650 C656 1.428 . S
H651 C647 0.930 . S
H652 C649 0.929 . S
S653 N654 1.613 . S
S653 N655 1.610 . S
N654 S653 1.613 . S
N654 C657 1.350 . S
N655 S653 1.610 . S
N655 C656 1.351 . S
C656 C650 1.428 . S
C656 N655 1.351 . S
C656 C657 1.434 . S
C657 C648 1.429 . S
C657 N654 1.350 . S
C657 C656 1.434 . S
C658 C659 1.369 . S
C658 C660 1.419 . S
C658 H662 0.930 . S
C659 C658 1.369 . S
C659 C668 1.429 . S
C660 C658 1.419 . S
C660 C661 1.363 . S
C660 H663 0.929 . S
C661 C660 1.363 . S
C661 C667 1.428 . S
H662 C658 0.930 . S
H663 C660 0.929 . S
S664 N665 1.613 . S
S664 N666 1.610 . S
N665 S664 1.613 . S
N665 C668 1.350 . S
N666 S664 1.610 . S
N666 C667 1.351 . S
C667 C661 1.428 . S
C667 N666 1.351 . S
C667 C668 1.434 . S
C668 C659 1.429 . S
C668 N665 1.350 . S
C668 C667 1.434 . S
C669 C670 1.369 . S
C669 C671 1.419 . S
C669 H673 0.930 . S
C670 C669 1.369 . S
C670 C679 1.429 . S
C671 C669 1.419 . S
C671 C672 1.363 . S
C671 H674 0.929 . S
C672 C671 1.363 . S
C672 C678 1.428 . S
H673 C669 0.930 . S
H674 C671 0.929 . S
S675 N676 1.613 . S
S675 N677 1.610 . S
N676 S675 1.613 . S
N676 C679 1.350 . S
N677 S675 1.610 . S
N677 C678 1.351 . S
C678 C672 1.428 . S
C678 N677 1.351 . S
C678 C679 1.434 . S
C679 C670 1.429 . S
C679 N676 1.350 . S
C679 C678 1.434 . S
C680 C681 1.369 . S
C680 C682 1.419 . S
C680 H684 0.930 . S
C681 C680 1.369 . S
C681 C690 1.429 . S
C682 C680 1.419 . S
C682 C683 1.363 . S
C682 H685 0.929 . S
C683 C682 1.363 . S
C683 C689 1.428 . S
H684 C680 0.930 . S
H685 C682 0.929 . S
S686 N687 1.613 . S
S686 N688 1.610 . S
N687 S686 1.613 . S
N687 C690 1.350 . S
N688 S686 1.610 . S
N688 C689 1.351 . S
C689 C683 1.428 . S
C689 N688 1.351 . S
C689 C690 1.434 . S
C690 C681 1.429 . S
C690 N687 1.350 . S
C690 C689 1.434 . S
C691 C692 1.369 . S
C691 C693 1.419 . S
C691 H695 0.930 . S
C692 C691 1.369 . S
C692 C701 1.429 . S
C693 C691 1.419 . S
C693 C694 1.363 . S
C693 H696 0.929 . S
C694 C693 1.363 . S
C694 C700 1.428 . S
H695 C691 0.930 . S
H696 C693 0.929 . S
S697 N698 1.613 . S
S697 N699 1.610 . S
N698 S697 1.613 . S
N698 C701 1.350 . S
N699 S697 1.610 . S
N699 C700 1.351 . S
C700 C694 1.428 . S
C700 N699 1.351 . S
C700 C701 1.434 . S
C701 C692 1.429 . S
C701 N698 1.350 . S
C701 C700 1.434 . S
C702 C703 1.369 . S
C702 C704 1.419 . S
C702 H706 0.930 . S
C703 C702 1.369 . S
C703 C712 1.429 . S
C704 C702 1.419 . S
C704 C705 1.363 . S
C704 H707 0.929 . S
C705 C704 1.363 . S
C705 C711 1.428 . S
H706 C702 0.930 . S
H707 C704 0.929 . S
S708 N709 1.613 . S
S708 N710 1.610 . S
N709 S708 1.613 . S
N709 C712 1.350 . S
N710 S708 1.610 . S
N710 C711 1.351 . S
C711 C705 1.428 . S
C711 N710 1.351 . S
C711 C712 1.434 . S
C712 C703 1.429 . S
C712 N709 1.350 . S
C712 C711 1.434 . S
C713 C714 1.369 . S
C713 C715 1.419 . S
C713 H717 0.930 . S
C714 C713 1.369 . S
C714 C723 1.429 . S
C715 C713 1.419 . S
C715 C716 1.363 . S
C715 H718 0.929 . S
C716 C715 1.363 . S
C716 C722 1.428 . S
H717 C713 0.930 . S
H718 C715 0.929 . S
S719 N720 1.613 . S
S719 N721 1.610 . S
N720 S719 1.613 . S
N720 C723 1.350 . S
N721 S719 1.610 . S
N721 C722 1.351 . S
C722 C716 1.428 . S
C722 N721 1.351 . S
C722 C723 1.434 . S
C723 C714 1.429 . S
C723 N720 1.350 . S
C723 C722 1.434 . S
C724 C725 1.369 . S
C724 C726 1.419 . S
C724 H728 0.930 . S
C725 C724 1.369 . S
C725 C734 1.429 1_545 S
C726 C724 1.419 . S
C726 C727 1.363 1_545 S
C726 H729 0.929 . S
C727 C726 1.363 1_565 S
C727 C733 1.428 . S
H728 C724 0.930 . S
H729 C726 0.929 . S
S730 N731 1.613 . S
S730 N732 1.610 . S
N731 S730 1.613 . S
N731 C734 1.350 . S
N732 S730 1.610 . S
N732 C733 1.351 . S
C733 C727 1.428 . S
C733 N732 1.351 . S
C733 C734 1.434 . S
C734 C725 1.429 1_565 S
C734 N731 1.350 . S
C734 C733 1.434 . S
C735 C736 1.369 . S
C735 C737 1.419 . S
C735 H739 0.930 . S
C736 C735 1.369 . S
C736 C745 1.429 . S
C737 C735 1.419 . S
C737 C738 1.363 . S
C737 H740 0.929 . S
C738 C737 1.363 . S
C738 C744 1.428 . S
H739 C735 0.930 . S
H740 C737 0.929 . S
S741 N742 1.613 . S
S741 N743 1.610 . S
N742 S741 1.613 . S
N742 C745 1.350 . S
N743 S741 1.610 . S
N743 C744 1.351 . S
C744 C738 1.428 . S
C744 N743 1.351 . S
C744 C745 1.434 . S
C745 C736 1.429 . S
C745 N742 1.350 . S
C745 C744 1.434 . S
C746 C747 1.369 . S
C746 C748 1.419 . S
C746 H750 0.930 . S
C747 C746 1.369 . S
C747 C756 1.429 . S
C748 C746 1.419 . S
C748 C749 1.363 . S
C748 H751 0.929 . S
C749 C748 1.363 . S
C749 C755 1.428 . S
H750 C746 0.930 . S
H751 C748 0.929 . S
S752 N753 1.613 . S
S752 N754 1.610 1_655 S
N753 S752 1.613 . S
N753 C756 1.350 1_655 S
N754 S752 1.610 1_455 S
N754 C755 1.351 . S
C755 C749 1.428 . S
C755 N754 1.351 . S
C755 C756 1.434 . S
C756 C747 1.429 . S
C756 N753 1.350 1_455 S
C756 C755 1.434 . S
C757 C758 1.369 1_545 S
C757 C759 1.419 . S
C757 H761 0.930 . S
C758 C757 1.369 1_565 S
C758 C767 1.429 1_554 S
C759 C757 1.419 . S
C759 C760 1.363 1_554 S
C759 H762 0.929 . S
C760 C759 1.363 1_556 S
C760 C766 1.428 1_545 S
H761 C757 0.930 . S
H762 C759 0.929 . S
S763 N764 1.613 . S
S763 N765 1.610 . S
N764 S763 1.613 . S
N764 C767 1.350 . S
N765 S763 1.610 . S
N765 C766 1.351 . S
C766 C760 1.428 1_565 S
C766 N765 1.351 . S
C766 C767 1.434 . S
C767 C758 1.429 1_556 S
C767 N764 1.350 . S
C767 C766 1.434 . S
C768 C769 1.369 . S
C768 C770 1.419 . S
C768 H772 0.930 . S
C769 C768 1.369 . S
C769 C778 1.429 . S
C770 C768 1.419 . S
C770 C771 1.363 . S
C770 H773 0.929 . S
C771 C770 1.363 . S
C771 C777 1.428 1_554 S
H772 C768 0.930 . S
H773 C770 0.929 . S
S774 N775 1.613 1_556 S
S774 N776 1.610 . S
N775 S774 1.613 1_554 S
N775 C778 1.350 . S
N776 S774 1.610 . S
N776 C777 1.351 . S
C777 C771 1.428 1_556 S
C777 N776 1.351 . S
C777 C778 1.434 1_556 S
C778 C769 1.429 . S
C778 N775 1.350 . S
C778 C777 1.434 1_554 S
C779 C780 1.369 . S
C779 C781 1.419 . S
C779 H783 0.930 . S
C780 C779 1.369 . S
C780 C789 1.429 . S
C781 C779 1.419 . S
C781 C782 1.363 1_655 S
C781 H784 0.929 . S
C782 C781 1.363 1_455 S
C782 C788 1.428 . S
H783 C779 0.930 . S
H784 C781 0.929 . S
S785 N786 1.613 1_455 S
S785 N787 1.610 . S
N786 S785 1.613 1_655 S
N786 C789 1.350 . S
N787 S785 1.610 . S
N787 C788 1.351 . S
C788 C782 1.428 . S
C788 N787 1.351 . S
C788 C789 1.434 1_455 S
C789 C780 1.429 . S
C789 N786 1.350 . S
C789 C788 1.434 1_655 S
C790 C791 1.369 . S
C790 C792 1.419 . S
C790 H794 0.930 . S
C791 C790 1.369 . S
C791 C800 1.429 . S
C792 C790 1.419 . S
C792 C793 1.363 . S
C792 H795 0.929 . S
C793 C792 1.363 . S
C793 C799 1.428 . S
H794 C790 0.930 . S
H795 C792 0.929 . S
S796 N797 1.613 . S
S796 N798 1.610 . S
N797 S796 1.613 . S
N797 C800 1.350 . S
N798 S796 1.610 . S
N798 C799 1.351 . S
C799 C793 1.428 . S
C799 N798 1.351 . S
C799 C800 1.434 . S
C800 C791 1.429 . S
C800 N797 1.350 . S
C800 C799 1.434 . S
C801 C802 1.369 . S
C801 C803 1.419 . S
C801 H805 0.930 . S
C802 C801 1.369 . S
C802 C811 1.429 . S
C803 C801 1.419 . S
C803 C804 1.363 . S
C803 H806 0.929 . S
C804 C803 1.363 . S
C804 C810 1.428 . S
H805 C801 0.930 . S
H806 C803 0.929 . S
S807 N808 1.613 . S
S807 N809 1.610 . S
N808 S807 1.613 . S
N808 C811 1.350 . S
N809 S807 1.610 . S
N809 C810 1.351 . S
C810 C804 1.428 . S
C810 N809 1.351 . S
C810 C811 1.434 . S
C811 C802 1.429 . S
C811 N808 1.350 . S
C811 C810 1.434 . S
C812 C813 1.369 . S
C812 C814 1.419 1_455 S
C812 H816 0.930 . S
C813 C812 1.369 . S
C813 C822 1.429 . S
C814 C812 1.419 1_655 S
C814 C815 1.363 . S
C814 H817 0.929 . S
C815 C814 1.363 . S
C815 C821 1.428 1_655 S
H816 C812 0.930 . S
H817 C814 0.929 . S
S818 N819 1.613 . S
S818 N820 1.610 . S
N819 S818 1.613 . S
N819 C822 1.350 . S
N820 S818 1.610 . S
N820 C821 1.351 . S
C821 C815 1.428 1_455 S
C821 N820 1.351 . S
C821 C822 1.434 . S
C822 C813 1.429 . S
C822 N819 1.350 . S
C822 C821 1.434 . S
C823 C824 1.369 . S
C823 C825 1.419 . S
C823 H827 0.930 . S
C824 C823 1.369 . S
C824 C833 1.429 . S
C825 C823 1.419 . S
C825 C826 1.363 . S
C825 H828 0.929 . S
C826 C825 1.363 . S
C826 C832 1.428 . S
H827 C823 0.930 . S
H828 C825 0.929 . S
S829 N830 1.613 . S
S829 N831 1.610 . S
N830 S829 1.613 . S
N830 C833 1.350 . S
N831 S829 1.610 . S
N831 C832 1.351 . S
C832 C826 1.428 . S
C832 N831 1.351 . S
C832 C833 1.434 . S
C833 C824 1.429 . S
C833 N830 1.350 . S
C833 C832 1.434 . S
C834 C835 1.369 . S
C834 C836 1.419 . S
C834 H838 0.930 . S
C835 C834 1.369 . S
C835 C844 1.429 . S
C836 C834 1.419 . S
C836 C837 1.363 . S
C836 H839 0.929 . S
C837 C836 1.363 . S
C837 C843 1.428 . S
H838 C834 0.930 . S
H839 C836 0.929 . S
S840 N841 1.613 . S
S840 N842 1.610 . S
N841 S840 1.613 . S
N841 C844 1.350 . S
N842 S840 1.610 . S
N842 C843 1.351 . S
C843 C837 1.428 . S
C843 N842 1.351 . S
C843 C844 1.434 . S
C844 C835 1.429 . S
C844 N841 1.350 . S
C844 C843 1.434 . S
C845 C846 1.369 . S
C845 C847 1.419 1_655 S
C845 H849 0.927 1_655 S
C846 C845 1.369 . S
C846 C855 1.429 . S
C847 C845 1.419 1_455 S
C847 C848 1.363 . S
C847 H850 0.929 . S
C848 C847 1.363 . S
C848 C854 1.428 1_456 S
H849 C845 0.927 1_455 S
H850 C847 0.929 . S
S851 N852 1.657 . S
S851 N853 1.610 . S
N852 S851 1.657 . S
N852 C855 1.328 1_554 S
N853 S851 1.610 . S
N853 C854 1.351 . S
C854 C848 1.428 1_654 S
C854 N853 1.351 . S
C854 C855 1.434 1_554 S
C855 C846 1.429 . S
C855 N852 1.328 1_556 S
C855 C854 1.434 1_556 S
C856 C857 1.369 . S
C856 C858 1.419 . S
C856 H860 0.930 . S
C857 C856 1.369 . S
C857 C866 1.429 . S
C858 C856 1.419 . S
C858 C859 1.363 . S
C858 H861 0.929 . S
C859 C858 1.363 . S
C859 C865 1.428 . S
H860 C856 0.930 . S
H861 C858 0.929 . S
S862 N863 1.613 . S
S862 N864 1.610 . S
N863 S862 1.613 . S
N863 C866 1.350 . S
N864 S862 1.610 . S
N864 C865 1.351 . S
C865 C859 1.428 . S
C865 N864 1.351 . S
C865 C866 1.434 . S
C866 C857 1.429 . S
C866 N863 1.350 . S
C866 C865 1.434 . S
C867 C868 1.369 . S
C867 C869 1.419 . S
C867 H871 0.930 . S
C868 C867 1.369 . S
C868 C877 1.429 . S
C869 C867 1.419 . S
C869 C870 1.363 . S
C869 H872 0.929 . S
C870 C869 1.363 . S
C870 C876 1.428 . S
H871 C867 0.930 . S
H872 C869 0.929 . S
S873 N874 1.613 . S
S873 N875 1.610 . S
N874 S873 1.613 . S
N874 C877 1.350 . S
N875 S873 1.610 . S
N875 C876 1.351 . S
C876 C870 1.428 . S
C876 N875 1.351 . S
C876 C877 1.434 . S
C877 C868 1.429 . S
C877 N874 1.350 . S
C877 C876 1.434 . S
C878 C879 1.369 . S
C878 C880 1.419 1_455 S
C878 H882 0.930 . S
C879 C878 1.369 . S
C879 C888 1.429 . S
C880 C878 1.419 1_655 S
C880 C881 1.363 . S
C880 H883 0.929 . S
C881 C880 1.363 . S
C881 C887 1.428 1_655 S
H882 C878 0.930 . S
H883 C880 0.929 . S
S884 N885 1.613 . S
S884 N886 1.610 . S
N885 S884 1.613 . S
N885 C888 1.350 . S
N886 S884 1.610 . S
N886 C887 1.351 . S
C887 C881 1.428 1_455 S
C887 N886 1.351 . S
C887 C888 1.434 . S
C888 C879 1.429 . S
C888 N885 1.350 . S
C888 C887 1.434 . S
C889 C890 1.369 . S
C889 C891 1.419 . S
C889 H893 0.930 . S
C890 C889 1.369 . S
C890 C899 1.429 . S
C891 C889 1.419 . S
C891 C892 1.363 . S
C891 H894 0.929 . S
C892 C891 1.363 . S
C892 C898 1.428 . S
H893 C889 0.930 . S
H894 C891 0.929 . S
S895 N896 1.613 . S
S895 N897 1.610 . S
N896 S895 1.613 . S
N896 C899 1.350 . S
N897 S895 1.610 . S
N897 C898 1.351 . S
C898 C892 1.428 . S
C898 N897 1.351 . S
C898 C899 1.434 . S
C899 C890 1.429 . S
C899 N896 1.350 . S
C899 C898 1.434 . S
C637 C446 1.830 . S
C639 C22 1.827 . S
C648 C91 1.819 . S
C650 C515 1.825 . S
C659 C128 1.827 . S
C661 C552 1.832 . S
C670 C181 1.833 . S
C672 C605 1.827 . S
C681 C356 1.823 . S
C683 C250 1.819 . S
C692 C287 1.829 . S
C694 C393 1.831 . S
C703 C516 1.570 . S
C705 C29 1.556 . S
C714 C92 1.574 . S
C716 C559 1.550 1_655 S
C725 C612 1.444 . S
C727 C135 1.437 . S
C736 C188 1.548 . S
C738 C357 1.575 . S
C747 C400 1.547 1_455 S
C749 C251 1.576 . S
C758 C453 1.436 . S
C760 C294 1.443 . S
C769 C38 2.092 . S
C771 C304 2.083 1_554 S
C780 C75 2.308 . S
C782 C39 2.343 . S
C791 C82 2.155 1_565 S
C793 C144 2.281 . S
C802 C197 2.091 . S
C804 C145 2.083 . S
C813 C234 2.311 . S
C815 C198 2.340 . S
C824 C303 2.281 . S
C826 C241 2.156 1_545 S
C835 C340 2.306 . S
C837 C410 2.340 . S
C846 C409 2.093 . S
C848 C463 2.083 1_556 S
C857 C462 2.282 . S
C859 C506 2.160 1_565 S
C868 C499 2.309 . S
C870 C569 2.343 . S
C879 C568 2.095 . S
C881 C622 2.084 . S
C890 C347 2.162 1_545 S
C892 C621 2.280 . S
