# Generated by pormake.
# Topology afw, (4)-cn, num edge types: 1
# Building blocks:
#     Node 0, Type 0, BuildingBlock: TATPOV_clean_sbu_0, # of connection points: 4
#     Node 1, Type 0, BuildingBlock: TATPOV_clean_sbu_0, # of connection points: 4
#     Node 2, Type 0, BuildingBlock: TATPOV_clean_sbu_0, # of connection points: 4
#     Node 3, Type 0, BuildingBlock: TATPOV_clean_sbu_0, # of connection points: 4
#     Node 4, Type 0, BuildingBlock: TATPOV_clean_sbu_0, # of connection points: 4
#     Node 5, Type 0, BuildingBlock: TATPOV_clean_sbu_0, # of connection points: 4
#     Node 6, Type 0, BuildingBlock: TATPOV_clean_sbu_0, # of connection points: 4
#     Node 7, Type 0, BuildingBlock: TATPOV_clean_sbu_0, # of connection points: 4
#     Node 8, Type 0, BuildingBlock: TATPOV_clean_sbu_0, # of connection points: 4
#     Edge 9, Type (0, 0), BuildingBlock: EZIPEK_clean_linker_0, # of connection points: 2
#     Edge 10, Type (0, 0), BuildingBlock: EZIPEK_clean_linker_0, # of connection points: 2
#     Edge 11, Type (0, 0), BuildingBlock: EZIPEK_clean_linker_0, # of connection points: 2
#     Edge 12, Type (0, 0), BuildingBlock: EZIPEK_clean_linker_0, # of connection points: 2
#     Edge 13, Type (0, 0), BuildingBlock: EZIPEK_clean_linker_0, # of connection points: 2
#     Edge 14, Type (0, 0), BuildingBlock: EZIPEK_clean_linker_0, # of connection points: 2
#     Edge 15, Type (0, 0), BuildingBlock: EZIPEK_clean_linker_0, # of connection points: 2
#     Edge 16, Type (0, 0), BuildingBlock: EZIPEK_clean_linker_0, # of connection points: 2
#     Edge 17, Type (0, 0), BuildingBlock: EZIPEK_clean_linker_0, # of connection points: 2
#     Edge 18, Type (0, 0), BuildingBlock: EZIPEK_clean_linker_0, # of connection points: 2
#     Edge 19, Type (0, 0), BuildingBlock: EZIPEK_clean_linker_0, # of connection points: 2
#     Edge 20, Type (0, 0), BuildingBlock: EZIPEK_clean_linker_0, # of connection points: 2
#     Edge 21, Type (0, 0), BuildingBlock: EZIPEK_clean_linker_0, # of connection points: 2
#     Edge 22, Type (0, 0), BuildingBlock: EZIPEK_clean_linker_0, # of connection points: 2
#     Edge 23, Type (0, 0), BuildingBlock: EZIPEK_clean_linker_0, # of connection points: 2
#     Edge 24, Type (0, 0), BuildingBlock: EZIPEK_clean_linker_0, # of connection points: 2
#     Edge 25, Type (0, 0), BuildingBlock: EZIPEK_clean_linker_0, # of connection points: 2
#     Edge 26, Type (0, 0), BuildingBlock: EZIPEK_clean_linker_0, # of connection points: 2
# Relax obj value: 0.186
# Max RMSD: 0.226
# Mean RMSD: 0.217
data_MOF--net-afw--node1-TATPOV_clean_sbu_0--edge1-EZIPEK_clean_linker_0
_symmetry_space_group_name_H-M    P1
_symmetry_Int_Tables_number       1
_symmetry_cell_setting            triclinic
loop_
_symmetry_equiv_pos_as_xyz
'x, y, z'
_cell_length_a     31.128705
_cell_length_b     30.446416
_cell_length_c     27.548125
_cell_angle_alpha  88.693171
_cell_angle_beta   89.252818
_cell_angle_gamma 120.51833
loop_
_atom_site_label
_atom_site_type_symbol
_atom_site_fract_x
_atom_site_fract_y
_atom_site_fract_z
_atom_type_partial_charge
Zn0 Zn -0.01818 0.15813 0.07052 0.0
Zn1 Zn -0.01316 0.21238 -0.00726 0.0
O2 O 0.05308 0.21178 -0.00776 0.0
O3 O 0.05252 0.17523 0.06202 0.0
O4 O -0.00246 0.26196 0.93723 0.0
O5 O 0.96199 0.19513 0.11563 0.0
O6 O -0.03437 0.24062 0.05064 0.0
C7 C 0.07391 0.19592 0.02163 0.0
C8 C 0.91599 0.09907 -0.00632 0.0
O9 O 0.93246 0.14207 0.97149 0.0
O10 O 0.93047 0.09635 0.03579 0.0
C11 C 0.00755 0.25431 0.89448 0.0
O12 O 0.00932 0.21296 0.88607 0.0
C13 C 0.95728 0.23035 0.09615 0.0
Zn14 Zn 0.83411 0.81605 0.87309 0.0
Zn15 Zn 0.78873 0.78517 0.96066 0.0
O16 O 0.85102 0.77788 0.96528 0.0
O17 O 0.88897 0.80286 0.89413 0.0
O18 O 0.75198 0.75465 0.0252 0.0
O19 O 0.77267 0.76546 0.83833 0.0
O20 O 0.73451 0.74595 0.91023 0.0
C21 C 0.88756 0.78651 0.93716 0.0
C22 C 0.83234 0.8957 0.92788 0.0
O23 O 0.81107 0.86101 0.96118 0.0
O24 O 0.84321 0.88548 0.88676 0.0
C25 C 0.74093 0.7094 0.03712 0.0
O26 O 0.75258 0.68389 0.00712 0.0
C27 C 0.73317 0.74128 0.86429 0.0
Zn28 Zn 0.12245 0.97878 0.07626 0.0
Zn29 Zn 0.1756 -0.01007 -0.00533 0.0
O30 O 0.11022 0.91914 -0.01115 0.0
O31 O 0.0675 0.90966 0.05591 0.0
O32 O 0.2198 -0.0028 0.93651 0.0
O33 O 0.17844 -0.01243 0.11885 0.0
O34 O 0.22207 -0.00103 0.05128 0.0
C35 C 0.07149 0.89196 0.01605 0.0
C36 C 0.14421 0.0675 0.01539 0.0
O37 O 0.16625 0.05196 -0.01266 0.0
O38 O 0.12285 0.04302 0.0546 0.0
C39 C 0.20468 0.97172 0.8982 0.0
O40 O 0.15666 0.94105 0.89284 0.0
C41 C 0.21887 -0.00222 0.09754 0.0
Zn42 Zn 0.65001 0.54672 0.22324 0.0
Zn43 Zn 0.63671 0.55407 0.31356 0.0
O44 O 0.57396 0.48555 0.3104 0.0
O45 O 0.59333 0.47068 0.23781 0.0
O46 O 0.6321 0.58587 0.37618 0.0
O47 O 0.64274 0.60807 0.25459 0.0
O48 O 0.6423 0.60625 0.25673 0.0
C49 C 0.56653 0.45486 0.27672 0.0
C50 C 0.72257 0.53986 0.27675 0.0
O51 O 0.69299 0.53548 0.31175 0.0
O52 O 0.71874 0.55692 0.23574 0.0
C53 C 0.60065 0.55914 0.40995 0.0
O54 O 0.57507 0.50927 0.4072 0.0
C55 C 0.65319 0.5935 0.21623 0.0
Zn56 Zn 0.48647 0.16314 0.2418 0.0
Zn57 Zn 0.43083 0.12829 0.32196 0.0
O58 O 0.49682 0.1295 0.33573 0.0
O59 O 0.54165 0.15466 0.26768 0.0
O60 O 0.38902 0.08688 0.38153 0.0
O61 O 0.43392 0.11301 0.19875 0.0
O62 O 0.38547 0.08908 0.26461 0.0
C63 C 0.53701 0.1416 0.3122 0.0
C64 C 0.46996 0.23811 0.29105 0.0
O65 O 0.44406 0.20225 0.32249 0.0
O66 O 0.48979 0.23005 0.25445 0.0
C67 C 0.40765 0.09552 0.42353 0.0
O68 O 0.45177 0.13581 0.42952 0.0
C69 C 0.39131 0.08633 0.21906 0.0
Zn70 Zn 0.78073 0.31541 0.24491 0.0
Zn71 Zn 0.83597 0.33424 0.31852 0.0
O72 O 0.83125 0.4003 0.31211 0.0
O73 O 0.77748 0.37822 0.25364 0.0
O74 O 0.88638 0.35102 0.37094 0.0
O75 O 0.82715 0.31301 0.19645 0.0
O76 O 0.86951 0.31773 0.26145 0.0
C77 C 0.80379 0.40978 0.28506 0.0
C78 C 0.7311 0.24078 0.32105 0.0
O79 O 0.76979 0.27078 0.34445 0.0
O80 O 0.72815 0.25032 0.27672 0.0
C81 C 0.87642 0.34308 0.41626 0.0
O82 O 0.83 0.32193 0.43238 0.0
C83 C 0.86317 0.31204 0.21585 0.0
Zn84 Zn 0.31725 0.84107 0.74522 0.0
Zn85 Zn 0.31307 0.87676 0.66181 0.0
O86 O 0.37705 0.87175 0.65487 0.0
O87 O 0.37714 0.83645 0.72545 0.0
O88 O 0.314 0.91336 0.59859 0.0
O89 O 0.32038 0.89655 0.7842 0.0
O90 O 0.30542 0.92119 0.71455 0.0
C91 C 0.39474 0.85103 0.68265 0.0
C92 C 0.23414 0.76837 0.69351 0.0
O93 O 0.25402 0.80257 0.65952 0.0
O94 O 0.25092 0.77785 0.73596 0.0
C95 C 0.35075 0.95846 0.59106 0.0
O96 O 0.38479 0.97895 0.62419 0.0
C97 C 0.31027 0.92599 0.76037 0.0
Zn98 Zn 0.14455 0.50354 0.56224 0.0
Zn99 Zn 0.09365 0.44745 0.64136 0.0
O100 O 0.15922 0.44572 0.64058 0.0
O101 O 0.20435 0.49692 0.57962 0.0
O102 O 0.05646 0.3986 0.69836 0.0
O103 O 0.08796 0.4577 0.51881 0.0
O104 O 0.04449 0.4176 0.58559 0.0
C105 C 0.20076 0.47022 0.61709 0.0
C106 C 0.12898 0.56086 0.6355 0.0
O107 O 0.10812 0.51875 0.66017 0.0
O108 O 0.14453 0.56318 0.59229 0.0
C109 C 0.07053 0.41025 0.74165 0.0
O110 O 0.10744 0.45619 0.75024 0.0
C111 C 0.04725 0.42485 0.53964 0.0
Zn112 Zn 0.45495 0.64113 0.7401 0.0
Zn113 Zn 0.50102 0.6444 0.65836 0.0
O114 O 0.43117 0.57828 0.65655 0.0
O115 O 0.39548 0.57245 0.72702 0.0
O116 O 0.53582 0.63435 0.60066 0.0
O117 O 0.51034 0.64923 0.78249 0.0
O118 O 0.55029 0.65583 0.71368 0.0
C119 C 0.39391 0.55393 0.68594 0.0
C120 C 0.47517 0.72632 0.67299 0.0
O121 O 0.49553 0.70863 0.64516 0.0
O122 O 0.45627 0.70473 0.71394 0.0
C123 C 0.53279 0.64562 0.55665 0.0
O124 O 0.50819 0.66898 0.54612 0.0
C125 C 0.54922 0.65665 0.75995 0.0
C126 C 0.16516 0.1544 0.03958 0.0
C127 C 0.1451 0.11586 0.00465 0.0
C128 C 0.10988 0.16155 0.96289 0.0
C129 C 0.11579 0.18888 0.00557 0.0
N130 N 0.16009 0.22274 0.07847 0.0
N131 N 0.10192 0.08482 0.9297 0.0
C132 C 0.14835 0.18989 0.04138 0.0
C133 C 0.11967 0.12075 0.96442 0.0
N134 N 0.19935 0.15603 0.07119 0.0
N135 N 0.09462 0.17433 0.92151 0.0
H136 H 0.10875 0.05468 0.92936 0.0
H137 H 0.07824 0.08342 0.90265 0.0
H138 H 0.09085 0.2064 0.91915 0.0
H139 H 0.09217 0.15752 0.88837 0.0
H140 H 0.21769 0.18467 0.09593 0.0
H141 H 0.21232 0.13049 0.06976 0.0
H142 H 0.17927 0.22245 0.10901 0.0
H143 H 0.14933 0.25014 0.07838 0.0
C144 C 0.90317 -0.01449 0.9323 0.0
C145 C 0.85139 0.94973 0.93925 0.0
C146 C 0.83951 0.01557 0.97613 0.0
C147 C 0.89069 0.05145 0.96683 0.0
N148 N -0.03183 0.07411 0.9249 0.0
N149 N 0.76842 0.93285 0.9584 0.0
C150 C 0.92124 0.03763 0.94064 0.0
C151 C 0.81886 0.96542 0.95831 0.0
N152 N 0.93599 0.96939 0.92189 0.0
N153 N 0.81115 0.02918 0.00296 0.0
H154 H 0.75226 0.89622 0.94492 0.0
H155 H 0.74261 0.94357 0.96783 0.0
H156 H 0.82489 0.06637 0.01427 0.0
H157 H 0.77511 0.00329 0.01584 0.0
H158 H -0.02542 -0.00661 0.92185 0.0
H159 H 0.92542 0.93118 0.91877 0.0
H160 H -0.0102 0.06662 0.90111 0.0
H161 H -0.01636 0.11274 0.93153 0.0
C162 C 0.93717 0.78423 0.00844 0.0
C163 C 0.93326 0.78854 0.95751 0.0
C164 C 0.02445 0.83031 0.94921 0.0
C165 C 0.02747 0.8435 -0.00142 0.0
N166 N -0.00979 0.81325 0.0786 0.0
N167 N -0.02796 0.7947 0.87941 0.0
C168 C -0.01523 0.81384 0.02955 0.0
C169 C -0.02329 0.80467 0.92769 0.0
N170 N 0.89607 0.75017 0.03562 0.0
N171 N 0.06644 0.83892 0.9245 0.0
H172 H 0.93778 0.76884 0.8649 0.0
H173 H 0.00175 0.81095 0.85426 0.0
H174 H 0.0998 0.85048 0.94213 0.0
H175 H 0.06698 0.82862 0.88885 0.0
H176 H 0.89589 0.74389 0.0729 0.0
H177 H 0.86301 0.72386 0.0195 0.0
H178 H 0.96067 0.79789 0.10391 0.0
H179 H 0.02513 0.82719 0.09382 0.0
C180 C 0.78922 0.47382 0.3301 0.0
C181 C 0.80205 0.4577 0.28706 0.0
C182 C 0.76604 0.49714 0.23813 0.0
C183 C 0.75473 0.51627 0.2804 0.0
N184 N 0.77297 0.53666 0.36488 0.0
N185 N 0.82407 0.4761 0.20207 0.0
C186 C 0.77201 0.50924 0.326 0.0
C187 C 0.79904 0.47852 0.24198 0.0
N188 N 0.79099 0.45398 0.37442 0.0
N189 N 0.74092 0.48976 0.19592 0.0
H190 H 0.84828 0.46187 0.20439 0.0
H191 H 0.82457 0.49321 0.16863 0.0
H192 H 0.70799 0.49045 0.19314 0.0
H193 H 0.74754 0.47356 0.16587 0.0
H194 H 0.77641 0.46021 0.40607 0.0
H195 H 0.80464 0.4293 0.37918 0.0
H196 H 0.78839 0.53519 0.3978 0.0
H197 H 0.76418 0.56541 0.36225 0.0
C198 C 0.46806 0.31534 0.26079 0.0
C199 C 0.48162 0.29138 0.29742 0.0
C200 C 0.54669 0.37483 0.32403 0.0
C201 C 0.53381 0.39907 0.28685 0.0
N202 N 0.476 0.39379 0.22696 0.0
N203 N 0.52354 0.29793 0.37214 0.0
C204 C 0.49233 0.36966 0.25749 0.0
C205 C 0.51709 0.3211 0.33211 0.0
N206 N 0.4329 0.28586 0.22833 0.0
N207 N 0.5896 0.40236 0.34902 0.0
H208 H 0.50333 0.25862 0.37881 0.0
H209 H 0.5452 0.31794 0.40118 0.0
H210 H 0.61359 0.44149 0.34378 0.0
H211 H 0.60413 0.38576 0.37197 0.0
H212 H 0.42531 0.30031 0.19711 0.0
H213 H 0.41215 0.24614 0.23219 0.0
H214 H 0.44345 0.37489 0.20746 0.0
H215 H 0.49316 0.43346 0.22406 0.0
C216 C 0.60636 0.18948 0.37013 0.0
C217 C 0.582 0.14901 0.33729 0.0
C218 C 0.66062 0.15206 0.31978 0.0
C219 C 0.68558 0.19811 0.3449 0.0
N220 N 0.6826 0.24484 0.41232 0.0
N221 N 0.58132 0.08034 0.2957 0.0
C222 C 0.65832 0.21084 0.37701 0.0
C223 C 0.60771 0.1259 0.31775 0.0
N224 N 0.58144 0.21074 0.39097 0.0
N225 N 0.68836 0.13637 0.29491 0.0
H226 H 0.54243 0.06126 0.29446 0.0
H227 H 0.59707 0.05989 0.28218 0.0
H228 H 0.72714 0.15523 0.29762 0.0
H229 H 0.67362 0.10593 0.27167 0.0
H230 H 0.59906 0.24457 0.40965 0.0
H231 H 0.54329 0.19591 0.38804 0.0
H232 H 0.66439 0.25348 0.43912 0.0
H233 H 0.72055 0.25977 0.41783 0.0
C234 C 0.47301 0.8478 0.68761 0.0
C235 C 0.42822 0.83359 0.66331 0.0
C236 C 0.4335 0.76411 0.62529 0.0
C237 C 0.47061 0.77102 0.65838 0.0
N238 N 0.53142 0.82275 0.71614 0.0
N239 N 0.36565 0.77844 0.60729 0.0
C240 C 0.49284 0.81467 0.68735 0.0
C241 C 0.40929 0.79287 0.63033 0.0
N242 N 0.49565 0.89256 0.71152 0.0
N243 N 0.42037 0.72892 0.59014 0.0
H244 H 0.34697 0.79866 0.60854 0.0
H245 H 0.34622 0.74463 0.58883 0.0
H246 H 0.43716 0.707 0.58617 0.0
H247 H 0.39676 0.72511 0.56207 0.0
H248 H 0.53006 0.90732 0.72777 0.0
H249 H 0.48143 0.91711 0.71145 0.0
H250 H 0.54615 0.85032 0.74237 0.0
H251 H 0.54814 0.80053 0.71408 0.0
C252 C 0.22345 0.68199 0.68965 0.0
C253 C 0.20326 0.71407 0.68136 0.0
C254 C 0.12859 0.64224 0.64795 0.0
C255 C 0.14763 0.60982 0.65973 0.0
N256 N 0.20751 0.59635 0.70248 0.0
N257 N 0.13425 0.72415 0.65883 0.0
C258 C 0.19288 0.62884 0.68463 0.0
C259 C 0.15495 0.69402 0.66238 0.0
N260 N 0.27309 0.70258 0.69869 0.0
N261 N 0.08604 0.6237 0.62207 0.0
H262 H 0.15314 0.76224 0.66863 0.0
H263 H 0.09742 0.71063 0.64944 0.0
H264 H 0.06487 0.58535 0.61338 0.0
H265 H 0.07298 0.64648 0.60758 0.0
H266 H 0.2908 0.68131 0.69943 0.0
H267 H 0.29814 0.74169 0.69977 0.0
H268 H 0.23759 0.60789 0.72528 0.0
H269 H 0.18693 0.55705 0.69866 0.0
C270 C 0.25744 0.48066 0.68748 0.0
C271 C 0.24715 0.47405 0.63692 0.0
C272 C 0.33469 0.49846 0.62017 0.0
C273 C 0.34486 0.51041 0.66983 0.0
N274 N 0.31066 0.48049 0.75054 0.0
N275 N 0.27151 0.45797 0.55899 0.0
C276 C 0.30419 0.48988 0.70337 0.0
C277 C 0.2845 0.47693 0.60434 0.0
N278 N 0.22581 0.48377 0.72014 0.0
N279 N 0.37248 0.50702 0.5886 0.0
H280 H 0.23465 0.43981 0.54781 0.0
H281 H 0.29582 0.45568 0.53432 0.0
H282 H 0.40693 0.51386 0.60053 0.0
H283 H 0.36926 0.50594 0.55104 0.0
H284 H 0.23511 0.49328 0.75616 0.0
H285 H 0.19325 0.48295 0.71099 0.0
H286 H 0.28107 0.46237 0.77585 0.0
H287 H 0.34449 0.48501 0.76203 0.0
C288 C -0.01122 0.30846 0.83813 0.0
C289 C 0.02309 0.29455 0.85571 0.0
C290 C 0.08565 0.35205 0.79467 0.0
C291 C 0.0532 0.36953 0.78009 0.0
N292 N -0.02382 0.36925 0.79092 0.0
N293 N 0.10742 0.31076 0.8577 0.0
C294 C 0.0053 0.34905 0.80263 0.0
C295 C 0.07244 0.31843 0.83587 0.0
N296 N 0.94006 0.28171 0.85409 0.0
N297 N 0.12837 0.36615 0.76807 0.0
H298 H 0.09967 0.28757 0.88884 0.0
H299 H 0.14523 0.33135 0.84795 0.0
H300 H 0.13874 0.38974 0.7369 0.0
H301 H 0.15087 0.35046 0.77396 0.0
H302 H 0.91202 0.2863 0.83904 0.0
H303 H 0.92674 0.2519 0.88007 0.0
H304 H 0.94325 0.35996 0.80969 0.0
H305 H -0.01317 0.39821 0.76439 0.0
C306 C 0.65989 0.74537 0.83477 0.0
C307 C 0.68459 0.71717 0.84 0.0
C308 C 0.61882 0.64714 0.79474 0.0
C309 C 0.59619 0.67696 0.78678 0.0
N310 N 0.59971 0.75783 0.79107 0.0
N311 N 0.6914 0.64399 0.82166 0.0
C312 C 0.61784 0.72692 0.80478 0.0
C313 C 0.66516 0.66878 0.81896 0.0
N314 N 0.67661 0.78997 0.85853 0.0
N315 N 0.59525 0.5978 0.78034 0.0
H316 H 0.72425 0.65791 0.84087 0.0
H317 H 0.68234 0.61125 0.80287 0.0
H318 H 0.56177 0.58135 0.76195 0.0
H319 H 0.60689 0.57214 0.7892 0.0
H320 H 0.65655 0.80871 0.86127 0.0
H321 H 0.70896 0.80676 0.87864 0.0
H322 H 0.61743 0.79656 0.79803 0.0
H323 H 0.56921 0.74615 0.76878 0.0
C324 C 0.25866 0.96888 0.77422 0.0
C325 C 0.29721 0.95957 0.78843 0.0
C326 C 0.28251 0.97001 0.87358 0.0
C327 C 0.24084 0.97453 0.86049 0.0
N328 N 0.20107 -0.00312 0.79808 0.0
N329 N 0.36109 0.97942 0.84627 0.0
C330 C 0.23252 -0.02027 0.81058 0.0
C331 C 0.31443 0.97018 0.83639 0.0
N332 N 0.24647 0.96692 0.72661 0.0
N333 N 0.28964 0.9611 0.92082 0.0
H334 H 0.38541 -0.01889 0.8188 0.0
H335 H 0.3772 -0.00885 0.87998 0.0
H336 H 0.2656 0.95676 0.94954 0.0
H337 H 0.31684 0.9526 0.93086 0.0
H338 H 0.21348 0.96424 0.71522 0.0
H339 H 0.27011 0.96953 0.69823 0.0
H340 H 0.19653 0.00581 0.76253 0.0
H341 H 0.1832 0.00718 0.82385 0.0
C342 C 0.33684 0.09425 0.15833 0.0
C343 C 0.3472 0.06213 0.18792 0.0
C344 C 0.27265 -0.01335 0.15858 0.0
C345 C 0.26474 0.01873 0.12624 0.0
N346 N 0.293 0.10258 0.09025 0.0
N347 N 0.32903 0.97813 0.21325 0.0
C348 C 0.29819 0.07232 0.12436 0.0
C349 C 0.31613 0.00833 0.18736 0.0
N350 N 0.36212 0.14582 0.1647 0.0
N351 N 0.2383 0.93565 0.16205 0.0
H352 H 0.36023 -0.00694 0.23503 0.0
H353 H 0.31101 0.93867 0.21079 0.0
H354 H 0.20752 0.91837 0.13978 0.0
H355 H 0.23872 0.9109 0.18847 0.0
H356 H 0.35221 0.17056 0.14859 0.0
H357 H 0.39016 0.16371 0.1898 0.0
H358 H 0.31998 0.14064 0.08301 0.0
H359 H 0.26355 0.08918 0.06647 0.0
C360 C 0.88446 0.221 0.14341 0.0
C361 C 0.93402 0.25324 0.12535 0.0
C362 C 0.93775 0.32582 0.16626 0.0
C363 C 0.88983 0.29234 0.18741 0.0
N364 N 0.82135 0.20669 0.204 0.0
N365 N 0.01049 0.33458 0.12312 0.0
C366 C 0.86434 0.23949 0.17834 0.0
C367 C 0.96148 0.30533 0.1376 0.0
N368 N 0.85579 0.17331 0.12558 0.0
N369 N 0.95987 0.3771 0.17271 0.0
H370 H 0.02858 0.3208 0.10156 0.0
H371 H 0.0341 0.37127 0.13495 0.0
H372 H 0.94393 0.39283 0.19469 0.0
H373 H -0.00766 0.40422 0.15418 0.0
H374 H 0.81774 0.15026 0.13348 0.0
H375 H 0.86867 0.15857 0.09901 0.0
H376 H 0.80417 0.16715 0.20284 0.0
H377 H 0.80518 0.21867 0.23002 0.0
C378 C 0.64416 0.61437 0.1298 0.0
C379 C 0.67239 0.62871 0.1725 0.0
C380 C 0.74125 0.70259 0.12822 0.0
C381 C 0.71527 0.68496 0.08437 0.0
N382 N 0.6424 0.62448 0.0422 0.0
N383 N 0.75019 0.68244 0.21175 0.0
C384 C 0.66667 0.64103 0.08489 0.0
C385 C 0.72129 0.67224 0.17182 0.0
N386 N 0.59542 0.57576 0.13261 0.0
N387 N 0.78551 0.7479 0.12813 0.0
H388 H 0.73751 0.66128 0.24439 0.0
H389 H 0.7881 0.70944 0.21165 0.0
H390 H 0.80319 0.76969 0.09665 0.0
H391 H 0.80312 0.76588 0.15966 0.0
H392 H 0.57091 0.56603 0.10414 0.0
H393 H 0.57809 0.55559 0.16499 0.0
H394 H 0.6098 0.58953 0.0387 0.0
H395 H 0.65601 0.6451 0.00931 0.0
C396 C -0.00688 0.36198 0.4781 0.0
C397 C 0.00124 0.40037 0.51111 0.0
C398 C 0.92739 0.4012 0.48196 0.0
C399 C 0.9178 0.36097 0.45071 0.0
N400 N 0.93581 0.29688 0.42453 0.0
N401 N -0.02708 0.45197 0.54985 0.0
C402 C 0.94913 0.33962 0.45029 0.0
C403 C -0.03288 0.41824 0.51495 0.0
N404 N 0.02783 0.34743 0.47293 0.0
N405 N 0.90055 0.42535 0.47798 0.0
H406 H 0.00324 0.46828 0.57267 0.0
H407 H 0.94596 0.46134 0.55852 0.0
H408 H 0.87151 0.41455 0.45396 0.0
H409 H 0.90957 0.45883 0.49541 0.0
H410 H 0.0273 0.32416 0.44556 0.0
H411 H 0.05911 0.36108 0.49449 0.0
H412 H 0.95412 0.27629 0.42645 0.0
H413 H 0.90364 0.2793 0.40414 0.0
C414 C 0.53546 0.57503 0.44521 0.0
C415 C 0.58491 0.58411 0.44603 0.0
C416 C 0.60246 0.64046 0.51461 0.0
C417 C 0.55134 0.62622 0.51739 0.0
N418 N 0.46712 0.57204 0.49079 0.0
N419 N 0.66452 0.62123 0.4842 0.0
C420 C 0.51727 0.59151 0.48406 0.0
C421 C 0.61831 0.61591 0.48135 0.0
N422 N 0.50628 0.55223 0.40637 0.0
N423 N 0.63608 0.67854 0.54271 0.0
H424 H 0.67741 0.60419 0.46018 0.0
H425 H 0.68858 0.63925 0.51243 0.0
H426 H 0.62584 0.69765 0.56702 0.0
H427 H 0.67451 0.69429 0.53894 0.0
H428 H 0.47193 0.5496 0.40145 0.0
H429 H 0.51849 0.54069 0.37645 0.0
H430 H 0.44038 0.54217 0.47091 0.0
H431 H 0.45177 0.58204 0.51927 0.0
C432 C 0.36873 0.97481 0.50107 0.0
C433 C 0.35609 -0.01149 0.54567 0.0
C434 C 0.36582 0.06648 0.50601 0.0
C435 C 0.3847 0.05604 0.46346 0.0
N436 N 0.40856 0.00278 0.42112 0.0
N437 N 0.34204 0.04672 0.5916 0.0
C438 C 0.38658 0.01045 0.46082 0.0
C439 C 0.3542 0.03409 0.54831 0.0
N440 N 0.36444 0.92804 0.49735 0.0
N441 N 0.35811 0.10689 0.50545 0.0
H442 H 0.3298 0.02224 0.62226 0.0
H443 H 0.34585 0.08207 0.59794 0.0
H444 H 0.36619 0.13104 0.47493 0.0
H445 H 0.34017 0.11428 0.53346 0.0
H446 H 0.3674 0.91335 0.46454 0.0
H447 H 0.35412 0.90194 0.52653 0.0
H448 H 0.41692 0.97381 0.41943 0.0
H449 H 0.42201 0.02761 0.39077 0.0
loop_
_geom_bond_atom_site_label_1
_geom_bond_atom_site_label_2
_geom_bond_distance
_geom_bond_site_symmetry_2
_ccdc_geom_bond_type
Zn0 O3 2.031 . S
Zn0 O5 2.049 1_455 S
Zn0 O10 2.067 1_455 S
Zn1 O2 1.963 . S
Zn1 O4 1.982 1_554 S
Zn1 O6 2.004 . S
Zn1 O9 1.941 1_454 S
O2 Zn1 1.963 . S
O2 C7 1.254 . S
O3 Zn0 2.031 . S
O3 C7 1.269 . S
O4 Zn1 1.982 1_556 S
O4 C11 1.262 . S
O5 Zn0 2.049 1_655 S
O5 C13 1.260 . S
O6 Zn1 2.004 . S
O6 C13 1.257 1_455 S
C7 O2 1.254 . S
C7 O3 1.269 . S
C8 O9 1.249 1_554 S
C8 O10 1.270 . S
O9 Zn1 1.941 1_656 S
O9 C8 1.249 1_556 S
O10 Zn0 2.067 1_655 S
O10 C8 1.270 . S
C11 O4 1.262 . S
C11 O12 1.232 . S
O12 C11 1.232 . S
C13 O5 1.260 . S
C13 O6 1.257 1_655 S
Zn14 O17 2.031 . S
Zn14 O19 2.049 . S
Zn14 O24 2.067 . S
Zn15 O16 1.962 . S
Zn15 O18 1.986 . S
Zn15 O20 1.996 1_554 S
Zn15 O23 1.943 . S
O16 Zn15 1.962 . S
O16 C21 1.254 1_554 S
O17 Zn14 2.031 . S
O17 C21 1.269 . S
O18 Zn15 1.986 . S
O18 C25 1.262 . S
O19 Zn14 2.049 . S
O19 C27 1.260 . S
O20 Zn15 1.996 1_556 S
O20 C27 1.257 . S
C21 O16 1.254 1_556 S
C21 O17 1.269 . S
C22 O23 1.249 . S
C22 O24 1.270 1_554 S
O23 Zn15 1.943 . S
O23 C22 1.249 . S
O24 Zn14 2.067 . S
O24 C22 1.270 1_556 S
C25 O18 1.262 . S
C25 O26 1.232 . S
O26 C25 1.232 . S
C27 O19 1.260 . S
C27 O20 1.257 . S
Zn28 O31 2.031 1_545 S
Zn28 O33 2.049 . S
Zn28 O38 2.067 . S
Zn29 O30 1.962 1_556 S
Zn29 O32 1.986 . S
Zn29 O34 1.996 1_566 S
Zn29 O37 1.943 1_565 S
O30 Zn29 1.962 1_554 S
O30 C35 1.254 . S
O31 Zn28 2.031 1_565 S
O31 C35 1.269 . S
O32 Zn29 1.986 . S
O32 C39 1.262 . S
O33 Zn28 2.049 . S
O33 C41 1.260 . S
O34 Zn29 1.996 1_544 S
O34 C41 1.257 . S
C35 O30 1.254 . S
C35 O31 1.269 . S
C36 O37 1.249 1_554 S
C36 O38 1.270 . S
O37 Zn29 1.943 1_545 S
O37 C36 1.249 1_556 S
O38 Zn28 2.067 . S
O38 C36 1.270 . S
C39 O32 1.262 . S
C39 O40 1.232 . S
O40 C39 1.232 . S
C41 O33 1.260 . S
C41 O34 1.257 . S
Zn42 O45 2.031 . S
Zn42 O47 2.049 . S
Zn42 O52 2.067 . S
Zn43 O44 1.962 . S
Zn43 O46 1.986 . S
Zn43 O48 1.996 . S
Zn43 O51 1.943 . S
O44 Zn43 1.962 . S
O44 C49 1.254 . S
O45 Zn42 2.031 . S
O45 C49 1.269 . S
O46 Zn43 1.986 . S
O46 C53 1.262 . S
O47 Zn42 2.049 . S
O47 C55 1.260 . S
O48 Zn43 1.996 . S
O48 C55 1.257 . S
C49 O44 1.254 . S
C49 O45 1.269 . S
C50 O51 1.249 . S
C50 O52 1.270 . S
O51 Zn43 1.943 . S
O51 C50 1.249 . S
O52 Zn42 2.067 . S
O52 C50 1.270 . S
C53 O46 1.262 . S
C53 O54 1.232 . S
O54 C53 1.232 . S
C55 O47 1.260 . S
C55 O48 1.257 . S
Zn56 O59 2.031 . S
Zn56 O61 2.049 . S
Zn56 O66 2.067 . S
Zn57 O58 1.962 . S
Zn57 O60 1.986 . S
Zn57 O62 1.996 . S
Zn57 O65 1.943 . S
O58 Zn57 1.962 . S
O58 C63 1.254 . S
O59 Zn56 2.031 . S
O59 C63 1.269 . S
O60 Zn57 1.986 . S
O60 C67 1.262 . S
O61 Zn56 2.049 . S
O61 C69 1.260 . S
O62 Zn57 1.996 . S
O62 C69 1.257 . S
C63 O58 1.254 . S
C63 O59 1.269 . S
C64 O65 1.249 . S
C64 O66 1.270 . S
O65 Zn57 1.943 . S
O65 C64 1.249 . S
O66 Zn56 2.067 . S
O66 C64 1.270 . S
C67 O60 1.262 . S
C67 O68 1.232 . S
O68 C67 1.232 . S
C69 O61 1.260 . S
C69 O62 1.257 . S
Zn70 O73 2.031 . S
Zn70 O75 2.049 . S
Zn70 O80 2.067 . S
Zn71 O72 1.962 . S
Zn71 O74 1.986 . S
Zn71 O76 1.996 . S
Zn71 O79 1.943 . S
O72 Zn71 1.962 . S
O72 C77 1.254 . S
O73 Zn70 2.031 . S
O73 C77 1.269 . S
O74 Zn71 1.986 . S
O74 C81 1.262 . S
O75 Zn70 2.049 . S
O75 C83 1.260 . S
O76 Zn71 1.996 . S
O76 C83 1.257 . S
C77 O72 1.254 . S
C77 O73 1.269 . S
C78 O79 1.249 . S
C78 O80 1.270 . S
O79 Zn71 1.943 . S
O79 C78 1.249 . S
O80 Zn70 2.067 . S
O80 C78 1.270 . S
C81 O74 1.262 . S
C81 O82 1.232 . S
O82 C81 1.232 . S
C83 O75 1.260 . S
C83 O76 1.257 . S
Zn84 O87 2.031 . S
Zn84 O89 2.049 . S
Zn84 O94 2.067 . S
Zn85 O86 1.962 . S
Zn85 O88 1.986 . S
Zn85 O90 1.996 . S
Zn85 O93 1.943 . S
O86 Zn85 1.962 . S
O86 C91 1.254 . S
O87 Zn84 2.031 . S
O87 C91 1.269 . S
O88 Zn85 1.986 . S
O88 C95 1.262 . S
O89 Zn84 2.049 . S
O89 C97 1.260 . S
O90 Zn85 1.996 . S
O90 C97 1.257 . S
C91 O86 1.254 . S
C91 O87 1.269 . S
C92 O93 1.249 . S
C92 O94 1.270 . S
O93 Zn85 1.943 . S
O93 C92 1.249 . S
O94 Zn84 2.067 . S
O94 C92 1.270 . S
C95 O88 1.262 . S
C95 O96 1.232 . S
O96 C95 1.232 . S
C97 O89 1.260 . S
C97 O90 1.257 . S
Zn98 O101 2.031 . S
Zn98 O103 2.049 . S
Zn98 O108 2.067 . S
Zn99 O100 1.962 . S
Zn99 O102 1.986 . S
Zn99 O104 1.996 . S
Zn99 O107 1.943 . S
O100 Zn99 1.962 . S
O100 C105 1.254 . S
O101 Zn98 2.031 . S
O101 C105 1.269 . S
O102 Zn99 1.986 . S
O102 C109 1.262 . S
O103 Zn98 2.049 . S
O103 C111 1.260 . S
O104 Zn99 1.996 . S
O104 C111 1.257 . S
C105 O100 1.254 . S
C105 O101 1.269 . S
C106 O107 1.249 . S
C106 O108 1.270 . S
O107 Zn99 1.943 . S
O107 C106 1.249 . S
O108 Zn98 2.067 . S
O108 C106 1.270 . S
C109 O102 1.262 . S
C109 O110 1.232 . S
O110 C109 1.232 . S
C111 O103 1.260 . S
C111 O104 1.257 . S
Zn112 O115 2.031 . S
Zn112 O117 2.049 . S
Zn112 O122 2.067 . S
Zn113 O114 1.962 . S
Zn113 O116 1.986 . S
Zn113 O118 1.996 . S
Zn113 O121 1.943 . S
O114 Zn113 1.962 . S
O114 C119 1.254 . S
O115 Zn112 2.031 . S
O115 C119 1.269 . S
O116 Zn113 1.986 . S
O116 C123 1.262 . S
O117 Zn112 2.049 . S
O117 C125 1.260 . S
O118 Zn113 1.996 . S
O118 C125 1.257 . S
C119 O114 1.254 . S
C119 O115 1.269 . S
C120 O121 1.249 . S
C120 O122 1.270 . S
O121 Zn113 1.943 . S
O121 C120 1.249 . S
O122 Zn112 2.067 . S
O122 C120 1.270 . S
C123 O116 1.262 . S
C123 O124 1.232 . S
O124 C123 1.232 . S
C125 O117 1.260 . S
C125 O118 1.257 . S
C126 C127 1.363 . S
C126 C132 1.379 1_556 S
C126 N134 1.356 . S
C127 C126 1.363 . S
C127 C133 1.363 1_556 S
C128 C129 1.363 . S
C128 C133 1.379 . S
C128 N135 1.356 . S
C129 C128 1.363 . S
C129 C132 1.363 . S
N130 C132 1.356 . S
N130 H142 0.984 . S
N130 H143 0.985 . S
N131 C133 1.356 . S
N131 H136 0.984 1_554 S
N131 H137 0.985 . S
C132 C126 1.379 1_554 S
C132 C129 1.363 . S
C132 N130 1.356 . S
C133 C127 1.363 1_554 S
C133 C128 1.379 . S
C133 N131 1.356 . S
N134 C126 1.356 . S
N134 H140 0.984 . S
N134 H141 0.984 . S
N135 C128 1.356 . S
N135 H138 0.984 . S
N135 H139 0.985 . S
H136 N131 0.984 1_556 S
H137 N131 0.985 . S
H138 N135 0.984 . S
H139 N135 0.985 . S
H140 N134 0.984 . S
H141 N134 0.984 . S
H142 N130 0.984 . S
H143 N130 0.985 . S
C144 C145 1.363 1_556 S
C144 C150 1.379 1_565 S
C144 N152 1.356 . S
C145 C144 1.363 1_554 S
C145 C151 1.363 . S
C146 C147 1.360 1_554 S
C146 C151 1.379 1_545 S
C146 N153 1.356 . S
C147 C146 1.360 1_556 S
C147 C150 1.365 . S
N148 C150 1.356 . S
N148 H160 0.984 . S
N148 H161 0.985 . S
N149 C151 1.356 . S
N149 H154 0.984 . S
N149 H155 0.985 . S
C150 C144 1.379 1_545 S
C150 C147 1.365 . S
C150 N148 1.356 . S
C151 C145 1.363 . S
C151 C146 1.379 1_565 S
C151 N149 1.356 . S
N152 C144 1.356 . S
N152 H158 0.984 . S
N152 H159 0.984 . S
N153 C146 1.356 . S
N153 H156 0.984 . S
N153 H157 0.985 . S
H154 N149 0.984 . S
H155 N149 0.985 . S
H156 N153 0.984 . S
H157 N153 0.985 . S
H158 N152 0.984 . S
H159 N152 0.984 . S
H160 N148 0.984 . S
H161 N148 0.985 . S
C162 C163 1.363 1_554 S
C162 C168 1.379 1_655 S
C162 N170 1.356 . S
C163 C162 1.363 1_556 S
C163 C169 1.363 . S
C164 C165 1.363 1_556 S
C164 C169 1.379 1_455 S
C164 N171 1.356 . S
C165 C164 1.363 1_554 S
C165 C168 1.363 . S
N166 C168 1.356 . S
N166 H178 0.984 . S
N166 H179 0.985 . S
N167 C169 1.356 . S
N167 H172 0.984 . S
N167 H173 0.985 . S
C168 C162 1.379 1_455 S
C168 C165 1.363 . S
C168 N166 1.356 . S
C169 C163 1.363 . S
C169 C164 1.379 1_655 S
C169 N167 1.356 . S
N170 C162 1.356 . S
N170 H176 0.984 . S
N170 H177 0.984 . S
N171 C164 1.356 . S
N171 H174 0.984 . S
N171 H175 0.985 . S
H172 N167 0.984 . S
H173 N167 0.985 . S
H174 N171 0.984 . S
H175 N171 0.985 . S
H176 N170 0.984 . S
H177 N170 0.984 . S
H178 N166 0.984 . S
H179 N166 0.985 . S
C180 C181 1.363 . S
C180 C186 1.379 . S
C180 N188 1.356 . S
C181 C180 1.363 . S
C181 C187 1.363 . S
C182 C183 1.363 . S
C182 C187 1.379 . S
C182 N189 1.356 . S
C183 C182 1.363 . S
C183 C186 1.363 . S
N184 C186 1.356 . S
N184 H196 0.984 . S
N184 H197 0.985 . S
N185 C187 1.356 . S
N185 H190 0.984 . S
N185 H191 0.985 . S
C186 C180 1.379 . S
C186 C183 1.363 . S
C186 N184 1.356 . S
C187 C181 1.363 . S
C187 C182 1.379 . S
C187 N185 1.356 . S
N188 C180 1.356 . S
N188 H194 0.984 . S
N188 H195 0.984 . S
N189 C182 1.356 . S
N189 H192 0.984 . S
N189 H193 0.985 . S
H190 N185 0.984 . S
H191 N185 0.985 . S
H192 N189 0.984 . S
H193 N189 0.985 . S
H194 N188 0.984 . S
H195 N188 0.984 . S
H196 N184 0.984 . S
H197 N184 0.985 . S
C198 C199 1.363 . S
C198 C204 1.379 . S
C198 N206 1.356 . S
C199 C198 1.363 . S
C199 C205 1.363 . S
C200 C201 1.363 . S
C200 C205 1.379 . S
C200 N207 1.356 . S
C201 C200 1.363 . S
C201 C204 1.363 . S
N202 C204 1.356 . S
N202 H214 0.984 . S
N202 H215 0.985 . S
N203 C205 1.356 . S
N203 H208 0.984 . S
N203 H209 0.985 . S
C204 C198 1.379 . S
C204 C201 1.363 . S
C204 N202 1.356 . S
C205 C199 1.363 . S
C205 C200 1.379 . S
C205 N203 1.356 . S
N206 C198 1.356 . S
N206 H212 0.984 . S
N206 H213 0.984 . S
N207 C200 1.356 . S
N207 H210 0.984 . S
N207 H211 0.985 . S
H208 N203 0.984 . S
H209 N203 0.985 . S
H210 N207 0.984 . S
H211 N207 0.985 . S
H212 N206 0.984 . S
H213 N206 0.984 . S
H214 N202 0.984 . S
H215 N202 0.985 . S
C216 C217 1.363 . S
C216 C222 1.379 . S
C216 N224 1.356 . S
C217 C216 1.363 . S
C217 C223 1.363 . S
C218 C219 1.363 . S
C218 C223 1.379 . S
C218 N225 1.356 . S
C219 C218 1.363 . S
C219 C222 1.363 . S
N220 C222 1.356 . S
N220 H232 0.984 . S
N220 H233 0.985 . S
N221 C223 1.356 . S
N221 H226 0.984 . S
N221 H227 0.985 . S
C222 C216 1.379 . S
C222 C219 1.363 . S
C222 N220 1.356 . S
C223 C217 1.363 . S
C223 C218 1.379 . S
C223 N221 1.356 . S
N224 C216 1.356 . S
N224 H230 0.984 . S
N224 H231 0.984 . S
N225 C218 1.356 . S
N225 H228 0.984 . S
N225 H229 0.985 . S
H226 N221 0.984 . S
H227 N221 0.985 . S
H228 N225 0.984 . S
H229 N225 0.985 . S
H230 N224 0.984 . S
H231 N224 0.984 . S
H232 N220 0.984 . S
H233 N220 0.985 . S
C234 C235 1.363 . S
C234 C240 1.379 . S
C234 N242 1.356 . S
C235 C234 1.363 . S
C235 C241 1.363 . S
C236 C237 1.363 . S
C236 C241 1.379 . S
C236 N243 1.356 . S
C237 C236 1.363 . S
C237 C240 1.363 . S
N238 C240 1.356 . S
N238 H250 0.984 . S
N238 H251 0.985 . S
N239 C241 1.356 . S
N239 H244 0.984 . S
N239 H245 0.985 . S
C240 C234 1.379 . S
C240 C237 1.363 . S
C240 N238 1.356 . S
C241 C235 1.363 . S
C241 C236 1.379 . S
C241 N239 1.356 . S
N242 C234 1.356 . S
N242 H248 0.984 . S
N242 H249 0.984 . S
N243 C236 1.356 . S
N243 H246 0.984 . S
N243 H247 0.985 . S
H244 N239 0.984 . S
H245 N239 0.985 . S
H246 N243 0.984 . S
H247 N243 0.985 . S
H248 N242 0.984 . S
H249 N242 0.984 . S
H250 N238 0.984 . S
H251 N238 0.985 . S
C252 C253 1.363 . S
C252 C258 1.379 . S
C252 N260 1.356 . S
C253 C252 1.363 . S
C253 C259 1.363 . S
C254 C255 1.363 . S
C254 C259 1.379 . S
C254 N261 1.356 . S
C255 C254 1.363 . S
C255 C258 1.363 . S
N256 C258 1.356 . S
N256 H268 0.984 . S
N256 H269 0.985 . S
N257 C259 1.356 . S
N257 H262 0.984 . S
N257 H263 0.985 . S
C258 C252 1.379 . S
C258 C255 1.363 . S
C258 N256 1.356 . S
C259 C253 1.363 . S
C259 C254 1.379 . S
C259 N257 1.356 . S
N260 C252 1.356 . S
N260 H266 0.984 . S
N260 H267 0.984 . S
N261 C254 1.356 . S
N261 H264 0.984 . S
N261 H265 0.985 . S
H262 N257 0.984 . S
H263 N257 0.985 . S
H264 N261 0.984 . S
H265 N261 0.985 . S
H266 N260 0.984 . S
H267 N260 0.984 . S
H268 N256 0.984 . S
H269 N256 0.985 . S
C270 C271 1.363 . S
C270 C276 1.379 . S
C270 N278 1.356 . S
C271 C270 1.363 . S
C271 C277 1.363 . S
C272 C273 1.363 . S
C272 C277 1.379 . S
C272 N279 1.356 . S
C273 C272 1.363 . S
C273 C276 1.363 . S
N274 C276 1.356 . S
N274 H286 0.984 . S
N274 H287 0.985 . S
N275 C277 1.356 . S
N275 H280 0.984 . S
N275 H281 0.985 . S
C276 C270 1.379 . S
C276 C273 1.363 . S
C276 N274 1.356 . S
C277 C271 1.363 . S
C277 C272 1.379 . S
C277 N275 1.356 . S
N278 C270 1.356 . S
N278 H284 0.984 . S
N278 H285 0.984 . S
N279 C272 1.356 . S
N279 H282 0.984 . S
N279 H283 0.985 . S
H280 N275 0.984 . S
H281 N275 0.985 . S
H282 N279 0.984 . S
H283 N279 0.985 . S
H284 N278 0.984 . S
H285 N278 0.984 . S
H286 N274 0.984 . S
H287 N274 0.985 . S
C288 C289 1.363 . S
C288 C294 1.379 . S
C288 N296 1.356 1_455 S
C289 C288 1.363 . S
C289 C295 1.363 . S
C290 C291 1.363 . S
C290 C295 1.379 . S
C290 N297 1.356 . S
C291 C290 1.363 . S
C291 C294 1.363 . S
N292 C294 1.356 . S
N292 H304 0.984 1_455 S
N292 H305 0.985 . S
N293 C295 1.356 . S
N293 H298 0.984 . S
N293 H299 0.985 . S
C294 C288 1.379 . S
C294 C291 1.363 . S
C294 N292 1.356 . S
C295 C289 1.363 . S
C295 C290 1.379 . S
C295 N293 1.356 . S
N296 C288 1.356 1_655 S
N296 H302 0.984 . S
N296 H303 0.984 . S
N297 C290 1.356 . S
N297 H300 0.984 . S
N297 H301 0.985 . S
H298 N293 0.984 . S
H299 N293 0.985 . S
H300 N297 0.984 . S
H301 N297 0.985 . S
H302 N296 0.984 . S
H303 N296 0.984 . S
H304 N292 0.984 1_655 S
H305 N292 0.985 . S
C306 C307 1.363 . S
C306 C312 1.379 . S
C306 N314 1.356 . S
C307 C306 1.363 . S
C307 C313 1.363 . S
C308 C309 1.363 . S
C308 C313 1.379 . S
C308 N315 1.356 . S
C309 C308 1.363 . S
C309 C312 1.363 . S
N310 C312 1.356 . S
N310 H322 0.984 . S
N310 H323 0.985 . S
N311 C313 1.356 . S
N311 H316 0.984 . S
N311 H317 0.985 . S
C312 C306 1.379 . S
C312 C309 1.363 . S
C312 N310 1.356 . S
C313 C307 1.363 . S
C313 C308 1.379 . S
C313 N311 1.356 . S
N314 C306 1.356 . S
N314 H320 0.984 . S
N314 H321 0.984 . S
N315 C308 1.356 . S
N315 H318 0.984 . S
N315 H319 0.985 . S
H316 N311 0.984 . S
H317 N311 0.985 . S
H318 N315 0.984 . S
H319 N315 0.985 . S
H320 N314 0.984 . S
H321 N314 0.984 . S
H322 N310 0.984 . S
H323 N310 0.985 . S
C324 C325 1.363 . S
C324 C330 1.372 1_565 S
C324 N332 1.356 . S
C325 C324 1.363 . S
C325 C331 1.363 . S
C326 C327 1.363 . S
C326 C331 1.379 . S
C326 N333 1.356 . S
C327 C326 1.363 . S
C327 C330 1.358 1_565 S
N328 C330 1.368 . S
N328 H340 0.984 . S
N328 H341 0.985 . S
N329 C331 1.356 . S
N329 H334 0.984 . S
N329 H335 0.985 . S
C330 C324 1.372 1_545 S
C330 C327 1.358 1_545 S
C330 N328 1.368 . S
C331 C325 1.363 . S
C331 C326 1.379 . S
C331 N329 1.356 . S
N332 C324 1.356 . S
N332 H338 0.984 1_565 S
N332 H339 0.984 . S
N333 C326 1.356 . S
N333 H336 0.984 . S
N333 H337 0.985 . S
H334 N329 0.984 . S
H335 N329 0.985 . S
H336 N333 0.984 . S
H337 N333 0.985 . S
H338 N332 0.984 1_545 S
H339 N332 0.984 . S
H340 N328 0.984 . S
H341 N328 0.985 . S
C342 C343 1.363 . S
C342 C348 1.379 . S
C342 N350 1.356 . S
C343 C342 1.363 . S
C343 C349 1.363 . S
C344 C345 1.363 . S
C344 C349 1.379 . S
C344 N351 1.356 1_545 S
C345 C344 1.363 . S
C345 C348 1.363 . S
N346 C348 1.356 . S
N346 H358 0.984 . S
N346 H359 0.985 . S
N347 C349 1.356 . S
N347 H352 0.984 . S
N347 H353 0.985 1_545 S
C348 C342 1.379 . S
C348 C345 1.363 . S
C348 N346 1.356 . S
C349 C343 1.363 . S
C349 C344 1.379 . S
C349 N347 1.356 . S
N350 C342 1.356 . S
N350 H356 0.984 . S
N350 H357 0.984 . S
N351 C344 1.356 1_565 S
N351 H354 0.984 . S
N351 H355 0.985 . S
H352 N347 0.984 . S
H353 N347 0.985 1_565 S
H354 N351 0.984 . S
H355 N351 0.985 . S
H356 N350 0.984 . S
H357 N350 0.984 . S
H358 N346 0.984 . S
H359 N346 0.985 . S
C360 C361 1.363 . S
C360 C366 1.379 . S
C360 N368 1.356 . S
C361 C360 1.363 . S
C361 C367 1.363 1_655 S
C362 C363 1.363 . S
C362 C367 1.379 1_655 S
C362 N369 1.356 1_655 S
C363 C362 1.363 . S
C363 C366 1.363 . S
N364 C366 1.356 . S
N364 H376 0.984 . S
N364 H377 0.985 . S
N365 C367 1.356 . S
N365 H370 0.984 . S
N365 H371 0.985 . S
C366 C360 1.379 . S
C366 C363 1.363 . S
C366 N364 1.356 . S
C367 C361 1.363 1_455 S
C367 C362 1.379 1_455 S
C367 N365 1.356 . S
N368 C360 1.356 . S
N368 H374 0.984 . S
N368 H375 0.984 . S
N369 C362 1.356 1_455 S
N369 H372 0.984 1_455 S
N369 H373 0.985 . S
H370 N365 0.984 . S
H371 N365 0.985 . S
H372 N369 0.984 1_655 S
H373 N369 0.985 . S
H374 N368 0.984 . S
H375 N368 0.984 . S
H376 N364 0.984 . S
H377 N364 0.985 . S
C378 C379 1.363 . S
C378 C384 1.379 . S
C378 N386 1.356 . S
C379 C378 1.363 . S
C379 C385 1.363 . S
C380 C381 1.363 . S
C380 C385 1.379 . S
C380 N387 1.356 . S
C381 C380 1.363 . S
C381 C384 1.363 . S
N382 C384 1.356 . S
N382 H394 0.984 . S
N382 H395 0.985 . S
N383 C385 1.356 . S
N383 H388 0.984 . S
N383 H389 0.985 . S
C384 C378 1.379 . S
C384 C381 1.363 . S
C384 N382 1.356 . S
C385 C379 1.363 . S
C385 C380 1.379 . S
C385 N383 1.356 . S
N386 C378 1.356 . S
N386 H392 0.984 . S
N386 H393 0.984 . S
N387 C380 1.356 . S
N387 H390 0.984 . S
N387 H391 0.985 . S
H388 N383 0.984 . S
H389 N383 0.985 . S
H390 N387 0.984 . S
H391 N387 0.985 . S
H392 N386 0.984 . S
H393 N386 0.984 . S
H394 N382 0.984 . S
H395 N382 0.985 . S
C396 C397 1.363 . S
C396 C402 1.380 . S
C396 N404 1.356 . S
C397 C396 1.363 . S
C397 C403 1.363 . S
C398 C399 1.363 1_455 S
C398 C403 1.379 . S
C398 N405 1.356 1_455 S
C399 C398 1.363 1_655 S
C399 C402 1.361 1_655 S
N400 C402 1.356 1_655 S
N400 H412 0.984 . S
N400 H413 0.985 . S
N401 C403 1.356 . S
N401 H406 0.984 . S
N401 H407 0.985 . S
C402 C396 1.380 . S
C402 C399 1.361 1_455 S
C402 N400 1.356 1_455 S
C403 C397 1.363 . S
C403 C398 1.379 . S
C403 N401 1.356 . S
N404 C396 1.356 . S
N404 H410 0.984 . S
N404 H411 0.984 . S
N405 C398 1.356 1_655 S
N405 H408 0.984 . S
N405 H409 0.985 . S
H406 N401 0.984 . S
H407 N401 0.985 . S
H408 N405 0.984 . S
H409 N405 0.985 . S
H410 N404 0.984 . S
H411 N404 0.984 . S
H412 N400 0.984 . S
H413 N400 0.985 . S
C414 C415 1.363 . S
C414 C420 1.379 . S
C414 N422 1.356 . S
C415 C414 1.363 . S
C415 C421 1.363 . S
C416 C417 1.363 . S
C416 C421 1.379 . S
C416 N423 1.356 . S
C417 C416 1.363 . S
C417 C420 1.363 . S
N418 C420 1.356 . S
N418 H430 0.984 . S
N418 H431 0.985 . S
N419 C421 1.356 . S
N419 H424 0.984 . S
N419 H425 0.985 . S
C420 C414 1.379 . S
C420 C417 1.363 . S
C420 N418 1.356 . S
C421 C415 1.363 . S
C421 C416 1.379 . S
C421 N419 1.356 . S
N422 C414 1.356 . S
N422 H428 0.984 . S
N422 H429 0.984 . S
N423 C416 1.356 . S
N423 H426 0.984 . S
N423 H427 0.985 . S
H424 N419 0.984 . S
H425 N419 0.985 . S
H426 N423 0.984 . S
H427 N423 0.985 . S
H428 N422 0.984 . S
H429 N422 0.984 . S
H430 N418 0.984 . S
H431 N418 0.985 . S
C432 C433 1.363 . S
C432 C438 1.379 . S
C432 N440 1.356 . S
C433 C432 1.363 . S
C433 C439 1.363 1_565 S
C434 C435 1.363 . S
C434 C439 1.379 . S
C434 N441 1.356 . S
C435 C434 1.363 . S
C435 C438 1.363 1_545 S
N436 C438 1.356 . S
N436 H448 0.984 . S
N436 H449 0.985 1_565 S
N437 C439 1.356 . S
N437 H442 0.984 1_545 S
N437 H443 0.985 . S
C438 C432 1.379 . S
C438 C435 1.363 1_565 S
C438 N436 1.356 . S
C439 C433 1.363 1_545 S
C439 C434 1.379 . S
C439 N437 1.356 . S
N440 C432 1.356 . S
N440 H446 0.984 . S
N440 H447 0.984 . S
N441 C434 1.356 . S
N441 H444 0.984 . S
N441 H445 0.985 . S
H442 N437 0.984 1_565 S
H443 N437 0.985 . S
H444 N441 0.984 . S
H445 N441 0.985 . S
H446 N440 0.984 . S
H447 N440 0.984 . S
H448 N436 0.984 . S
H449 N436 0.985 1_545 S
C127 C36 1.195 1_556 S
C129 C7 1.280 . S
C145 C22 1.212 . S
C147 C8 1.217 1_556 S
C163 C21 1.183 . S
C165 C35 1.174 . S
C181 C77 1.226 . S
C183 C50 1.168 . S
C199 C64 1.138 . S
C201 C49 1.201 . S
C217 C63 1.255 . S
C219 C78 1.195 . S
C235 C91 1.195 . S
C237 C120 1.124 . S
C253 C92 1.208 . S
C255 C106 1.199 . S
C271 C105 1.175 . S
C273 C119 1.169 . S
C289 C11 1.401 . S
C291 C109 1.399 . S
C307 C27 1.299 . S
C309 C125 1.295 . S
C325 C97 1.311 . S
C327 C39 1.387 . S
C343 C69 1.296 . S
C345 C41 1.306 . S
C361 C13 1.364 . S
C363 C83 1.357 . S
C379 C55 1.335 . S
C381 C25 1.392 . S
C397 C111 1.306 . S
C399 C81 1.388 . S
C415 C53 1.360 . S
C417 C123 1.356 . S
C433 C95 1.402 . S
C435 C67 1.414 . S
