# Generated by pormake.
# Topology uky, (4)-cn, num edge types: 1
# Building blocks:
#     Node 0, Type 0, BuildingBlock: GALJAG_clean_sbu_0, # of connection points: 4
#     Node 1, Type 0, BuildingBlock: GALJAG_clean_sbu_0, # of connection points: 4
#     Node 2, Type 0, BuildingBlock: GALJAG_clean_sbu_0, # of connection points: 4
#     Node 3, Type 0, BuildingBlock: GALJAG_clean_sbu_0, # of connection points: 4
#     Node 4, Type 0, BuildingBlock: GALJAG_clean_sbu_0, # of connection points: 4
#     Node 5, Type 0, BuildingBlock: GALJAG_clean_sbu_0, # of connection points: 4
#     Node 6, Type 0, BuildingBlock: GALJAG_clean_sbu_0, # of connection points: 4
#     Node 7, Type 0, BuildingBlock: GALJAG_clean_sbu_0, # of connection points: 4
#     Node 8, Type 0, BuildingBlock: GALJAG_clean_sbu_0, # of connection points: 4
#     Node 9, Type 0, BuildingBlock: GALJAG_clean_sbu_0, # of connection points: 4
#     Node 10, Type 0, BuildingBlock: GALJAG_clean_sbu_0, # of connection points: 4
#     Node 11, Type 0, BuildingBlock: GALJAG_clean_sbu_0, # of connection points: 4
#     Node 12, Type 0, BuildingBlock: GALJAG_clean_sbu_0, # of connection points: 4
#     Node 13, Type 0, BuildingBlock: GALJAG_clean_sbu_0, # of connection points: 4
#     Node 14, Type 0, BuildingBlock: GALJAG_clean_sbu_0, # of connection points: 4
#     Node 15, Type 0, BuildingBlock: GALJAG_clean_sbu_0, # of connection points: 4
#     Node 16, Type 0, BuildingBlock: GALJAG_clean_sbu_0, # of connection points: 4
#     Node 17, Type 0, BuildingBlock: GALJAG_clean_sbu_0, # of connection points: 4
#     Node 18, Type 0, BuildingBlock: GALJAG_clean_sbu_0, # of connection points: 4
#     Node 19, Type 0, BuildingBlock: GALJAG_clean_sbu_0, # of connection points: 4
#     Node 20, Type 0, BuildingBlock: GALJAG_clean_sbu_0, # of connection points: 4
#     Node 21, Type 0, BuildingBlock: GALJAG_clean_sbu_0, # of connection points: 4
#     Node 22, Type 0, BuildingBlock: GALJAG_clean_sbu_0, # of connection points: 4
#     Node 23, Type 0, BuildingBlock: GALJAG_clean_sbu_0, # of connection points: 4
#     Node 24, Type 0, BuildingBlock: GALJAG_clean_sbu_0, # of connection points: 4
#     Node 25, Type 0, BuildingBlock: GALJAG_clean_sbu_0, # of connection points: 4
#     Node 26, Type 0, BuildingBlock: GALJAG_clean_sbu_0, # of connection points: 4
#     Node 27, Type 0, BuildingBlock: GALJAG_clean_sbu_0, # of connection points: 4
#     Node 28, Type 0, BuildingBlock: GALJAG_clean_sbu_0, # of connection points: 4
#     Node 29, Type 0, BuildingBlock: GALJAG_clean_sbu_0, # of connection points: 4
#     Node 30, Type 0, BuildingBlock: GALJAG_clean_sbu_0, # of connection points: 4
#     Node 31, Type 0, BuildingBlock: GALJAG_clean_sbu_0, # of connection points: 4
#     Node 32, Type 0, BuildingBlock: GALJAG_clean_sbu_0, # of connection points: 4
#     Node 33, Type 0, BuildingBlock: GALJAG_clean_sbu_0, # of connection points: 4
#     Node 34, Type 0, BuildingBlock: GALJAG_clean_sbu_0, # of connection points: 4
#     Node 35, Type 0, BuildingBlock: GALJAG_clean_sbu_0, # of connection points: 4
#     Node 36, Type 0, BuildingBlock: GALJAG_clean_sbu_0, # of connection points: 4
#     Node 37, Type 0, BuildingBlock: GALJAG_clean_sbu_0, # of connection points: 4
#     Node 38, Type 0, BuildingBlock: GALJAG_clean_sbu_0, # of connection points: 4
#     Node 39, Type 0, BuildingBlock: GALJAG_clean_sbu_0, # of connection points: 4
#     Node 40, Type 0, BuildingBlock: GALJAG_clean_sbu_0, # of connection points: 4
#     Node 41, Type 0, BuildingBlock: GALJAG_clean_sbu_0, # of connection points: 4
#     Node 42, Type 0, BuildingBlock: GALJAG_clean_sbu_0, # of connection points: 4
#     Node 43, Type 0, BuildingBlock: GALJAG_clean_sbu_0, # of connection points: 4
#     Node 44, Type 0, BuildingBlock: GALJAG_clean_sbu_0, # of connection points: 4
#     Node 45, Type 0, BuildingBlock: GALJAG_clean_sbu_0, # of connection points: 4
#     Node 46, Type 0, BuildingBlock: GALJAG_clean_sbu_0, # of connection points: 4
#     Node 47, Type 0, BuildingBlock: GALJAG_clean_sbu_0, # of connection points: 4
#     Edge 48, Type (0, 0), BuildingBlock: CIFDUS_clean_linker_0, # of connection points: 2
#     Edge 49, Type (0, 0), BuildingBlock: CIFDUS_clean_linker_0, # of connection points: 2
#     Edge 50, Type (0, 0), BuildingBlock: CIFDUS_clean_linker_0, # of connection points: 2
#     Edge 51, Type (0, 0), BuildingBlock: CIFDUS_clean_linker_0, # of connection points: 2
#     Edge 52, Type (0, 0), BuildingBlock: CIFDUS_clean_linker_0, # of connection points: 2
#     Edge 53, Type (0, 0), BuildingBlock: CIFDUS_clean_linker_0, # of connection points: 2
#     Edge 54, Type (0, 0), BuildingBlock: CIFDUS_clean_linker_0, # of connection points: 2
#     Edge 55, Type (0, 0), BuildingBlock: CIFDUS_clean_linker_0, # of connection points: 2
#     Edge 56, Type (0, 0), BuildingBlock: CIFDUS_clean_linker_0, # of connection points: 2
#     Edge 57, Type (0, 0), BuildingBlock: CIFDUS_clean_linker_0, # of connection points: 2
#     Edge 58, Type (0, 0), BuildingBlock: CIFDUS_clean_linker_0, # of connection points: 2
#     Edge 59, Type (0, 0), BuildingBlock: CIFDUS_clean_linker_0, # of connection points: 2
#     Edge 60, Type (0, 0), BuildingBlock: CIFDUS_clean_linker_0, # of connection points: 2
#     Edge 61, Type (0, 0), BuildingBlock: CIFDUS_clean_linker_0, # of connection points: 2
#     Edge 62, Type (0, 0), BuildingBlock: CIFDUS_clean_linker_0, # of connection points: 2
#     Edge 63, Type (0, 0), BuildingBlock: CIFDUS_clean_linker_0, # of connection points: 2
#     Edge 64, Type (0, 0), BuildingBlock: CIFDUS_clean_linker_0, # of connection points: 2
#     Edge 65, Type (0, 0), BuildingBlock: CIFDUS_clean_linker_0, # of connection points: 2
#     Edge 66, Type (0, 0), BuildingBlock: CIFDUS_clean_linker_0, # of connection points: 2
#     Edge 67, Type (0, 0), BuildingBlock: CIFDUS_clean_linker_0, # of connection points: 2
#     Edge 68, Type (0, 0), BuildingBlock: CIFDUS_clean_linker_0, # of connection points: 2
#     Edge 69, Type (0, 0), BuildingBlock: CIFDUS_clean_linker_0, # of connection points: 2
#     Edge 70, Type (0, 0), BuildingBlock: CIFDUS_clean_linker_0, # of connection points: 2
#     Edge 71, Type (0, 0), BuildingBlock: CIFDUS_clean_linker_0, # of connection points: 2
#     Edge 72, Type (0, 0), BuildingBlock: CIFDUS_clean_linker_0, # of connection points: 2
#     Edge 73, Type (0, 0), BuildingBlock: CIFDUS_clean_linker_0, # of connection points: 2
#     Edge 74, Type (0, 0), BuildingBlock: CIFDUS_clean_linker_0, # of connection points: 2
#     Edge 75, Type (0, 0), BuildingBlock: CIFDUS_clean_linker_0, # of connection points: 2
#     Edge 76, Type (0, 0), BuildingBlock: CIFDUS_clean_linker_0, # of connection points: 2
#     Edge 77, Type (0, 0), BuildingBlock: CIFDUS_clean_linker_0, # of connection points: 2
#     Edge 78, Type (0, 0), BuildingBlock: CIFDUS_clean_linker_0, # of connection points: 2
#     Edge 79, Type (0, 0), BuildingBlock: CIFDUS_clean_linker_0, # of connection points: 2
#     Edge 80, Type (0, 0), BuildingBlock: CIFDUS_clean_linker_0, # of connection points: 2
#     Edge 81, Type (0, 0), BuildingBlock: CIFDUS_clean_linker_0, # of connection points: 2
#     Edge 82, Type (0, 0), BuildingBlock: CIFDUS_clean_linker_0, # of connection points: 2
#     Edge 83, Type (0, 0), BuildingBlock: CIFDUS_clean_linker_0, # of connection points: 2
#     Edge 84, Type (0, 0), BuildingBlock: CIFDUS_clean_linker_0, # of connection points: 2
#     Edge 85, Type (0, 0), BuildingBlock: CIFDUS_clean_linker_0, # of connection points: 2
#     Edge 86, Type (0, 0), BuildingBlock: CIFDUS_clean_linker_0, # of connection points: 2
#     Edge 87, Type (0, 0), BuildingBlock: CIFDUS_clean_linker_0, # of connection points: 2
#     Edge 88, Type (0, 0), BuildingBlock: CIFDUS_clean_linker_0, # of connection points: 2
#     Edge 89, Type (0, 0), BuildingBlock: CIFDUS_clean_linker_0, # of connection points: 2
#     Edge 90, Type (0, 0), BuildingBlock: CIFDUS_clean_linker_0, # of connection points: 2
#     Edge 91, Type (0, 0), BuildingBlock: CIFDUS_clean_linker_0, # of connection points: 2
#     Edge 92, Type (0, 0), BuildingBlock: CIFDUS_clean_linker_0, # of connection points: 2
#     Edge 93, Type (0, 0), BuildingBlock: CIFDUS_clean_linker_0, # of connection points: 2
#     Edge 94, Type (0, 0), BuildingBlock: CIFDUS_clean_linker_0, # of connection points: 2
#     Edge 95, Type (0, 0), BuildingBlock: CIFDUS_clean_linker_0, # of connection points: 2
#     Edge 96, Type (0, 0), BuildingBlock: CIFDUS_clean_linker_0, # of connection points: 2
#     Edge 97, Type (0, 0), BuildingBlock: CIFDUS_clean_linker_0, # of connection points: 2
#     Edge 98, Type (0, 0), BuildingBlock: CIFDUS_clean_linker_0, # of connection points: 2
#     Edge 99, Type (0, 0), BuildingBlock: CIFDUS_clean_linker_0, # of connection points: 2
#     Edge 100, Type (0, 0), BuildingBlock: CIFDUS_clean_linker_0, # of connection points: 2
#     Edge 101, Type (0, 0), BuildingBlock: CIFDUS_clean_linker_0, # of connection points: 2
#     Edge 102, Type (0, 0), BuildingBlock: CIFDUS_clean_linker_0, # of connection points: 2
#     Edge 103, Type (0, 0), BuildingBlock: CIFDUS_clean_linker_0, # of connection points: 2
#     Edge 104, Type (0, 0), BuildingBlock: CIFDUS_clean_linker_0, # of connection points: 2
#     Edge 105, Type (0, 0), BuildingBlock: CIFDUS_clean_linker_0, # of connection points: 2
#     Edge 106, Type (0, 0), BuildingBlock: CIFDUS_clean_linker_0, # of connection points: 2
#     Edge 107, Type (0, 0), BuildingBlock: CIFDUS_clean_linker_0, # of connection points: 2
#     Edge 108, Type (0, 0), BuildingBlock: CIFDUS_clean_linker_0, # of connection points: 2
#     Edge 109, Type (0, 0), BuildingBlock: CIFDUS_clean_linker_0, # of connection points: 2
#     Edge 110, Type (0, 0), BuildingBlock: CIFDUS_clean_linker_0, # of connection points: 2
#     Edge 111, Type (0, 0), BuildingBlock: CIFDUS_clean_linker_0, # of connection points: 2
#     Edge 112, Type (0, 0), BuildingBlock: CIFDUS_clean_linker_0, # of connection points: 2
#     Edge 113, Type (0, 0), BuildingBlock: CIFDUS_clean_linker_0, # of connection points: 2
#     Edge 114, Type (0, 0), BuildingBlock: CIFDUS_clean_linker_0, # of connection points: 2
#     Edge 115, Type (0, 0), BuildingBlock: CIFDUS_clean_linker_0, # of connection points: 2
#     Edge 116, Type (0, 0), BuildingBlock: CIFDUS_clean_linker_0, # of connection points: 2
#     Edge 117, Type (0, 0), BuildingBlock: CIFDUS_clean_linker_0, # of connection points: 2
#     Edge 118, Type (0, 0), BuildingBlock: CIFDUS_clean_linker_0, # of connection points: 2
#     Edge 119, Type (0, 0), BuildingBlock: CIFDUS_clean_linker_0, # of connection points: 2
#     Edge 120, Type (0, 0), BuildingBlock: CIFDUS_clean_linker_0, # of connection points: 2
#     Edge 121, Type (0, 0), BuildingBlock: CIFDUS_clean_linker_0, # of connection points: 2
#     Edge 122, Type (0, 0), BuildingBlock: CIFDUS_clean_linker_0, # of connection points: 2
#     Edge 123, Type (0, 0), BuildingBlock: CIFDUS_clean_linker_0, # of connection points: 2
#     Edge 124, Type (0, 0), BuildingBlock: CIFDUS_clean_linker_0, # of connection points: 2
#     Edge 125, Type (0, 0), BuildingBlock: CIFDUS_clean_linker_0, # of connection points: 2
#     Edge 126, Type (0, 0), BuildingBlock: CIFDUS_clean_linker_0, # of connection points: 2
#     Edge 127, Type (0, 0), BuildingBlock: CIFDUS_clean_linker_0, # of connection points: 2
#     Edge 128, Type (0, 0), BuildingBlock: CIFDUS_clean_linker_0, # of connection points: 2
#     Edge 129, Type (0, 0), BuildingBlock: CIFDUS_clean_linker_0, # of connection points: 2
#     Edge 130, Type (0, 0), BuildingBlock: CIFDUS_clean_linker_0, # of connection points: 2
#     Edge 131, Type (0, 0), BuildingBlock: CIFDUS_clean_linker_0, # of connection points: 2
#     Edge 132, Type (0, 0), BuildingBlock: CIFDUS_clean_linker_0, # of connection points: 2
#     Edge 133, Type (0, 0), BuildingBlock: CIFDUS_clean_linker_0, # of connection points: 2
#     Edge 134, Type (0, 0), BuildingBlock: CIFDUS_clean_linker_0, # of connection points: 2
#     Edge 135, Type (0, 0), BuildingBlock: CIFDUS_clean_linker_0, # of connection points: 2
#     Edge 136, Type (0, 0), BuildingBlock: CIFDUS_clean_linker_0, # of connection points: 2
#     Edge 137, Type (0, 0), BuildingBlock: CIFDUS_clean_linker_0, # of connection points: 2
#     Edge 138, Type (0, 0), BuildingBlock: CIFDUS_clean_linker_0, # of connection points: 2
#     Edge 139, Type (0, 0), BuildingBlock: CIFDUS_clean_linker_0, # of connection points: 2
#     Edge 140, Type (0, 0), BuildingBlock: CIFDUS_clean_linker_0, # of connection points: 2
#     Edge 141, Type (0, 0), BuildingBlock: CIFDUS_clean_linker_0, # of connection points: 2
#     Edge 142, Type (0, 0), BuildingBlock: CIFDUS_clean_linker_0, # of connection points: 2
#     Edge 143, Type (0, 0), BuildingBlock: CIFDUS_clean_linker_0, # of connection points: 2
# Relax obj value: 0.129
# Max RMSD: 0.165
# Mean RMSD: 0.165
data_MOF--net-uky--node1-GALJAG_clean_sbu_0--edge1-CIFDUS_clean_linker_0
_symmetry_space_group_name_H-M    P1
_symmetry_Int_Tables_number       1
_symmetry_cell_setting            triclinic
loop_
_symmetry_equiv_pos_as_xyz
'x, y, z'
_cell_length_a     54.859595
_cell_length_b     54.869422
_cell_length_c     54.904446
_cell_angle_alpha  90.069269
_cell_angle_beta   89.958271
_cell_angle_gamma 89.996036
loop_
_atom_site_label
_atom_site_type_symbol
_atom_site_fract_x
_atom_site_fract_y
_atom_site_fract_z
_atom_type_partial_charge
In0 In 0.22872 0.20428 0.38302 0.0
O1 O 0.2007 0.17344 0.37914 0.0
O2 O 0.1895 0.20739 0.3943 0.0
C3 C 0.26328 0.18727 0.35237 0.0
C4 C 0.24196 0.20054 0.43005 0.0
C5 C 0.22146 0.24779 0.36161 0.0
O6 O 0.24112 0.18141 0.35048 0.0
O7 O 0.26808 0.20072 0.37035 0.0
O8 O 0.23689 0.24483 0.37838 0.0
O9 O 0.20989 0.22885 0.35567 0.0
C10 C 0.18361 0.18606 0.38811 0.0
O11 O 0.23706 0.22059 0.42 0.0
O12 O 0.24092 0.18223 0.41613 0.0
In13 In 0.04578 0.9736 0.62231 0.0
O14 O 0.08261 0.95448 0.62492 0.0
O15 O 0.05562 0.93884 0.60208 0.0
C16 C 0.0535 0.01454 0.59607 0.0
C17 C 0.04978 0.97514 0.67125 0.0
C18 C -0.00044 0.96281 0.60974 0.0
O19 O 0.05902 0.99364 0.58828 0.0
O20 O 0.04521 0.01483 0.61743 0.0
O21 O 0.00565 0.98348 0.61781 0.0
O22 O 0.01656 0.94736 0.60911 0.0
C23 C 0.07663 0.93703 0.61116 0.0
O24 O 0.03173 0.96561 0.66069 0.0
O25 O 0.0656 0.98398 0.65716 0.0
In26 In 0.27089 0.80152 0.87357 0.0
O27 O 0.26701 0.78321 0.9108 0.0
O28 O 0.25701 0.82047 0.90772 0.0
C29 C 0.28548 0.76271 0.84753 0.0
C30 C 0.31255 0.82712 0.875 0.0
C31 C 0.23074 0.81144 0.84715 0.0
O32 O 0.27507 0.76045 0.86798 0.0
O33 O 0.28835 0.78438 0.84043 0.0
O34 O 0.24953 0.82469 0.84638 0.0
O35 O 0.232 0.79385 0.86183 0.0
C36 C 0.25917 0.80212 0.92133 0.0
O37 O 0.31169 0.80432 0.87752 0.0
O38 O 0.29217 0.83743 0.87203 0.0
In39 In 0.46642 0.00945 0.13758 0.0
O40 O 0.4279 0.02331 0.14518 0.0
O41 O 0.45498 0.04913 0.13521 0.0
C42 C 0.45706 0.97105 0.10834 0.0
C43 C 0.46981 -0.00076 0.18539 0.0
C44 C 0.50734 0.02502 0.11544 0.0
O45 O 0.44699 0.9915 0.10557 0.0
O46 O 0.47129 0.96978 0.12628 0.0
O47 O 0.50787 0.01157 0.13411 0.0
O48 O 0.48626 0.03083 0.10834 0.0
C49 C 0.43316 0.04531 0.14124 0.0
O50 O 0.48494 0.01294 0.17477 0.0
O51 O 0.45346 0.9905 0.17183 0.0
In52 In 0.22964 0.79091 0.11261 0.0
O53 O 0.23615 0.76905 0.07776 0.0
O54 O 0.23545 0.80769 0.07519 0.0
C55 C 0.21604 0.75466 0.14247 0.0
C56 C 0.18698 0.81478 0.11362 0.0
C57 C 0.2723 0.80327 0.13377 0.0
O58 O 0.22164 0.7508 0.12044 0.0
O59 O 0.21797 0.77653 0.14934 0.0
O60 O 0.2534 0.81625 0.13575 0.0
O61 O 0.26979 0.78471 0.12049 0.0
C62 C 0.23779 0.78759 0.06427 0.0
O63 O 0.20706 0.82608 0.11421 0.0
O64 O 0.18864 0.79195 0.11184 0.0
In65 In 0.44827 0.95981 0.37387 0.0
O66 O 0.4142 0.93561 0.37292 0.0
O67 O 0.44917 0.91875 0.37336 0.0
C68 C 0.43406 0.00061 0.39746 0.0
C69 C 0.44925 0.96879 0.32571 0.0
C70 C 0.48825 0.95004 0.40023 0.0
O71 O 0.42508 0.97998 0.40222 0.0
O72 O 0.44908 0.00066 0.38013 0.0
O73 O 0.48954 0.95727 0.37841 0.0
O74 O 0.4669 0.94781 0.40853 0.0
C75 C 0.42638 0.91605 0.37284 0.0
O76 O 0.46844 0.96757 0.33835 0.0
O77 O 0.4297 0.9657 0.33741 0.0
In78 In 0.27438 0.20929 0.6202 0.0
O79 O 0.29988 0.17596 0.61979 0.0
O80 O 0.313 0.21045 0.60756 0.0
C81 C 0.23283 0.19656 0.64283 0.0
C82 C 0.26138 0.21273 0.57328 0.0
C83 C 0.289 0.24385 0.65163 0.0
O84 O 0.25197 0.18377 0.64447 0.0
O85 O 0.23464 0.21489 0.62914 0.0
O86 O 0.28058 0.24894 0.63081 0.0
O87 O 0.29 0.22139 0.65646 0.0
C88 C 0.31737 0.18814 0.61087 0.0
O89 O 0.26534 0.2313 0.58637 0.0
O90 O 0.26323 0.19253 0.58414 0.0
In91 In 0.03709 0.01296 0.8583 0.0
O92 O 0.01741 0.99671 0.82572 0.0
O93 O 0.05622 0.99706 0.82513 0.0
C94 C 0.99482 0.02303 0.88137 0.0
C95 C 0.05692 0.05527 0.84442 0.0
C96 C 0.05765 0.98491 0.89285 0.0
O97 O -0.00225 0.00413 0.86861 0.0
O98 O 0.01298 0.03705 0.882 0.0
O99 O 0.05904 0.00781 0.89305 0.0
O100 O 0.04702 0.97612 0.87449 0.0
C101 C 0.03669 0.99192 0.81411 0.0
O102 O 0.06866 0.03999 0.857 0.0
O103 O 0.03542 0.0491 0.83905 0.0
In104 In 0.3844 0.21312 0.20728 0.0
O105 O 0.42268 0.21629 0.22343 0.0
O106 O 0.4181 0.22288 0.18553 0.0
C107 C 0.36268 0.20047 0.24933 0.0
C108 C 0.38397 0.1728 0.1796 0.0
C109 C 0.35882 0.25406 0.19829 0.0
O110 O 0.38345 0.21046 0.2488 0.0
O111 O 0.35324 0.19665 0.22873 0.0
O112 O 0.353 0.23361 0.18954 0.0
O113 O 0.37802 0.25399 0.21083 0.0
C114 C 0.43256 0.22145 0.20329 0.0
O115 O 0.38235 0.19384 0.17048 0.0
O116 O 0.38525 0.17219 0.20252 0.0
In117 In 0.00997 0.13676 0.4548 0.0
O118 O 0.99404 0.16797 0.47689 0.0
O119 O 0.99266 0.17011 0.43801 0.0
C120 C 0.02974 0.10717 0.48852 0.0
C121 C 0.05052 0.15405 0.43408 0.0
C122 C 0.97319 0.10815 0.43983 0.0
O123 O 0.01755 0.12584 0.49441 0.0
O124 O 0.03187 0.10378 0.46594 0.0
O125 O 0.99316 0.10919 0.42836 0.0
O126 O 0.97168 0.12208 0.45802 0.0
C127 C 0.98815 0.18021 0.45825 0.0
O128 O 0.03691 0.13911 0.42293 0.0
O129 O 0.04364 0.15983 0.45522 0.0
In130 In 0.11669 0.78141 0.69826 0.0
O131 O 0.11112 0.80051 0.6617 0.0
O132 O 0.1349 0.81689 0.68744 0.0
C133 C 0.14234 0.7412 0.68582 0.0
C134 C 0.06761 0.78067 0.70181 0.0
C135 C 0.13408 0.7893 0.74341 0.0
O136 O 0.15004 0.76251 0.68221 0.0
O137 O 0.12119 0.74014 0.69463 0.0
O138 O 0.12494 0.76917 0.73702 0.0
O139 O 0.13383 0.80559 0.72722 0.0
C140 C 0.12493 0.81819 0.66682 0.0
O141 O 0.08106 0.78985 0.71799 0.0
O142 O 0.07888 0.772 0.68375 0.0
In143 In 0.47776 0.86606 0.95002 0.0
O144 O 0.46437 0.85107 0.91353 0.0
O145 O 0.44157 0.87569 0.93295 0.0
C146 C 0.51832 0.89153 0.93875 0.0
C147 C 0.48331 0.81871 0.96144 0.0
C148 C 0.46136 0.89153 0.9887 0.0
O149 O 0.49993 0.89111 0.925 0.0
O150 O 0.51651 0.87837 0.95742 0.0
O151 O 0.47226 0.87142 0.99089 0.0
O152 O 0.4586 0.8986 0.96707 0.0
C153 C 0.44421 0.86217 0.91458 0.0
O154 O 0.46366 0.83013 0.96501 0.0
O155 O 0.50023 0.83116 0.95204 0.0
In156 In 0.385 0.76358 0.2755 0.0
O157 O 0.3664 0.79811 0.28944 0.0
O158 O 0.39296 0.78138 0.31202 0.0
C159 C 0.35523 0.72486 0.282 0.0
C160 C 0.43308 0.75592 0.2811 0.0
C161 C 0.37369 0.77882 0.23014 0.0
O162 O 0.35106 0.74539 0.2914 0.0
O163 O 0.37457 0.72376 0.26977 0.0
O164 O 0.38345 0.7584 0.23421 0.0
O165 O 0.3708 0.7919 0.24879 0.0
C166 C 0.37837 0.79888 0.30904 0.0
O167 O 0.42486 0.77008 0.26493 0.0
O168 O 0.41708 0.74557 0.29392 0.0
In169 In 0.48131 0.13664 0.52177 0.0
O170 O 0.49622 0.16979 0.50198 0.0
O171 O 0.4984 0.16913 0.54077 0.0
C172 C 0.4634 0.11111 0.48376 0.0
C173 C 0.44071 0.15146 0.5445 0.0
C174 C 0.51795 0.10763 0.5367 0.0
O175 O 0.47705 0.1294 0.48099 0.0
O176 O 0.4587 0.10589 0.5056 0.0
O177 O 0.49782 0.10853 0.54785 0.0
O178 O 0.51952 0.12157 0.51856 0.0
C179 C 0.50231 0.18076 0.5213 0.0
O180 O 0.45418 0.13511 0.55355 0.0
O181 O 0.44753 0.15962 0.52415 0.0
In182 In 0.10226 0.2302 0.77652 0.0
O183 O 0.06596 0.24812 0.76706 0.0
O184 O 0.0745 0.24192 0.8045 0.0
C185 C 0.12494 0.21879 0.73464 0.0
C186 C 0.08966 0.18524 0.78983 0.0
C187 C 0.13421 0.2634 0.79274 0.0
O188 O 0.10681 0.2331 0.73507 0.0
O189 O 0.13114 0.21042 0.75508 0.0
O190 O 0.13331 0.2421 0.8015 0.0
O191 O 0.1186 0.26789 0.77649 0.0
C192 C 0.05917 0.24944 0.7891 0.0
O193 O 0.10557 0.19726 0.8015 0.0
O194 O 0.08062 0.19593 0.77158 0.0
In195 In 0.0261 0.87552 0.04515 0.0
O196 O 0.04651 0.86715 0.08039 0.0
O197 O 0.06502 0.88723 0.05301 0.0
C198 C 0.98352 0.89753 0.05756 0.0
C199 C 0.02083 0.82714 0.03912 0.0
C200 C 0.04129 0.89642 0.00361 0.0
O201 O 0.00363 0.90326 0.06697 0.0
O202 O 0.98476 0.88015 0.04269 0.0
O203 O 0.03773 0.8738 0.00543 0.0
O204 O 0.03712 0.90853 0.02274 0.0
C205 C 0.066 0.87736 0.07366 0.0
O206 O 0.0183 0.84214 0.02192 0.0
O207 O 0.02547 0.83658 0.05957 0.0
In208 In 0.21213 0.37514 0.22357 0.0
O209 O 0.17632 0.37427 0.20246 0.0
O210 O 0.20956 0.37816 0.18268 0.0
C211 C 0.20042 0.3513 0.26479 0.0
C212 C 0.21552 0.42312 0.23371 0.0
C213 C 0.24769 0.34488 0.20906 0.0
O214 O 0.18694 0.35108 0.2462 0.0
O215 O 0.21913 0.36449 0.26291 0.0
O216 O 0.25227 0.36609 0.21688 0.0
O217 O 0.22543 0.3392 0.20877 0.0
C218 C 0.18669 0.37609 0.18198 0.0
O219 O 0.23398 0.41027 0.22884 0.0
O220 O 0.19557 0.41172 0.23364 0.0
In221 In 0.71181 0.11148 0.76764 0.0
O222 O 0.73305 0.07598 0.76199 0.0
O223 O 0.69554 0.07658 0.75248 0.0
C224 C 0.75071 0.13628 0.78425 0.0
C225 C 0.68365 0.10528 0.80722 0.0
C226 C 0.69967 0.14115 0.73035 0.0
O227 O 0.75294 0.11713 0.77159 0.0
O228 O 0.72901 0.14266 0.78845 0.0
O229 O 0.6887 0.14144 0.75051 0.0
O230 O 0.71622 0.12532 0.72872 0.0
C231 C 0.7149 0.06433 0.75403 0.0
O232 O 0.67484 0.1058 0.78601 0.0
O233 O 0.70645 0.10785 0.80837 0.0
In234 In 0.10792 0.44131 0.02719 0.0
O235 O 0.14266 0.46385 0.02274 0.0
O236 O 0.14461 0.42578 0.01577 0.0
C237 C 0.08487 0.48135 0.04319 0.0
C238 C 0.11143 0.41335 0.06731 0.0
C239 C 0.0812 0.43014 0.98739 0.0
O240 O 0.10633 0.48204 0.03482 0.0
O241 O 0.07513 0.4605 0.0434 0.0
O242 O 0.07908 0.41878 0.00721 0.0
O243 O 0.09745 0.44631 0.98743 0.0
C244 C 0.15574 0.44587 0.01682 0.0
O245 O 0.11788 0.40582 0.04658 0.0
O246 O 0.10273 0.43454 0.06762 0.0
In247 In 0.7901 0.8782 0.27162 0.0
O248 O 0.77261 0.91582 0.27534 0.0
O249 O 0.80681 0.9135 0.25741 0.0
C250 C 0.74887 0.85624 0.28639 0.0
C251 C 0.8214 0.87602 0.30927 0.0
C252 C 0.79813 0.85141 0.23102 0.0
O253 O 0.7487 0.87577 0.27421 0.0
O254 O 0.76979 0.84793 0.29108 0.0
O255 O 0.8099 0.84843 0.25047 0.0
O256 O 0.78274 0.86843 0.23174 0.0
C257 C 0.78972 0.92697 0.26482 0.0
O258 O 0.82859 0.8784 0.28756 0.0
O259 O 0.79861 0.87489 0.31186 0.0
In260 In 0.87214 0.04568 0.02629 0.0
O261 O 0.83551 0.02756 0.01967 0.0
O262 O 0.84073 0.06374 0.00642 0.0
C263 C 0.89429 0.00848 0.04966 0.0
C264 C 0.86496 0.07739 0.06277 0.0
C265 C 0.89948 0.05099 0.98582 0.0
O266 O 0.87604 0.00526 0.03607 0.0
O267 O 0.90084 0.03035 0.05182 0.0
O268 O 0.89776 0.06768 0.00158 0.0
O269 O 0.88719 0.03218 0.9904 0.0
C270 C 0.82648 0.0458 0.00889 0.0
O271 O 0.8845 0.0775 0.05057 0.0
O272 O 0.84958 0.06148 0.05664 0.0
In273 In 0.28493 0.61981 0.72357 0.0
O274 O 0.2606 0.58616 0.72767 0.0
O275 O 0.29798 0.58339 0.73766 0.0
C276 C 0.25148 0.64984 0.70438 0.0
C277 C 0.31529 0.61282 0.68578 0.0
C278 C 0.29317 0.64528 0.76478 0.0
O279 O 0.24585 0.62893 0.71233 0.0
O280 O 0.27375 0.65528 0.70616 0.0
O281 O 0.30651 0.64731 0.74616 0.0
O282 O 0.27641 0.62971 0.7629 0.0
C283 C 0.27764 0.57288 0.73565 0.0
O284 O 0.32298 0.61354 0.70745 0.0
O285 O 0.29263 0.61564 0.68338 0.0
In286 In 0.12287 0.53732 0.47023 0.0
O287 O 0.15939 0.51801 0.47692 0.0
O288 O 0.15803 0.55676 0.47874 0.0
C289 C 0.09178 0.50219 0.45687 0.0
C290 C 0.12344 0.55999 0.42719 0.0
C291 C 0.1008 0.54851 0.51246 0.0
O292 O 0.11337 0.4972 0.46342 0.0
O293 O 0.08624 0.5245 0.4575 0.0
O294 O 0.09901 0.56192 0.49385 0.0
O295 O 0.11441 0.53018 0.50987 0.0
C296 C 0.17082 0.53774 0.48041 0.0
O297 O 0.12062 0.57169 0.44687 0.0
O298 O 0.12656 0.53734 0.42943 0.0
In299 In 0.34401 0.4777 0.98438 0.0
O300 O 0.34275 0.44266 0.96208 0.0
O301 O 0.34388 0.47656 0.94317 0.0
C302 C 0.37424 0.46058 0.01913 0.0
C303 C 0.29581 0.47711 0.99425 0.0
C304 C 0.36762 0.5201 0.97758 0.0
O305 O 0.37611 0.45478 -0.00299 0.0
O306 O 0.35645 0.47428 0.02396 0.0
O307 O 0.35188 0.51753 0.99422 0.0
O308 O 0.37064 0.50166 0.96422 0.0
C309 C 0.34334 0.45361 0.94187 0.0
O310 O 0.30636 0.49585 0.98614 0.0
O311 O 0.3096 0.45911 -0.00225 0.0
In312 In 0.71671 0.69425 0.8664 0.0
O313 O 0.72141 0.7201 0.89865 0.0
O314 O 0.7289 0.68247 0.90414 0.0
C315 C 0.69898 0.72895 0.83689 0.0
C316 C 0.67824 0.66469 0.8736 0.0
C317 C 0.75816 0.68426 0.84179 0.0
O318 O 0.70593 0.73347 0.85837 0.0
O319 O 0.70089 0.70693 0.83044 0.0
O320 O 0.73913 0.67157 0.83945 0.0
O321 O 0.7565 0.70115 0.85724 0.0
C322 C 0.7278 0.70355 0.91327 0.0
O323 O 0.69986 0.65678 0.87403 0.0
O324 O 0.67625 0.68711 0.86914 0.0
In325 In 0.53908 0.44865 0.11696 0.0
O326 O 0.51924 0.45179 0.15331 0.0
O327 O 0.55774 0.45612 0.15326 0.0
C328 C 0.4981 0.44318 0.09077 0.0
C329 C 0.56021 0.40442 0.11554 0.0
C330 C 0.55541 0.48938 0.09468 0.0
O331 O 0.49781 0.45052 0.11259 0.0
O332 O 0.519 0.43856 0.08234 0.0
O333 O 0.56325 0.46842 0.08939 0.0
O334 O 0.54012 0.48981 0.1118 0.0
C335 C 0.5383 0.45567 0.16555 0.0
O336 O 0.57257 0.42384 0.11553 0.0
O337 O 0.53746 0.40745 0.11624 0.0
In338 In 0.76851 0.28495 0.38308 0.0
O339 O 0.77282 0.32391 0.3973 0.0
O340 O 0.79671 0.31185 0.36942 0.0
C341 C 0.72771 0.28118 0.35609 0.0
C342 C 0.75928 0.27796 0.4306 0.0
C343 C 0.79886 0.25138 0.36363 0.0
O344 O 0.73908 0.30107 0.3581 0.0
O345 O 0.73691 0.26367 0.36761 0.0
O346 O 0.78755 0.24765 0.38332 0.0
O347 O 0.7951 0.27196 0.35424 0.0
C348 C 0.79098 0.32864 0.38401 0.0
O349 O 0.78076 0.27964 0.42245 0.0
O350 O 0.7427 0.27932 0.41476 0.0
In351 In 0.96556 0.51164 0.64084 0.0
O352 O 0.93802 0.54285 0.6402 0.0
O353 O 0.97008 0.5466 0.66186 0.0
C354 C 0.94602 0.48069 0.60809 0.0
C355 C 0.96033 0.49078 0.68468 0.0
C356 C 0.00738 0.52309 0.61788 0.0
O357 O 0.93912 0.50256 0.60995 0.0
O358 O 0.96202 0.47438 0.62327 0.0
O359 O 0.00659 0.50741 0.63467 0.0
O360 O 0.98722 0.53284 0.61287 0.0
C361 C 0.95034 0.55592 0.65466 0.0
O362 O 0.98082 0.4928 0.67438 0.0
O363 O 0.94244 0.49847 0.67243 0.0
In364 In 0.73004 0.29374 0.62101 0.0
O365 O 0.7238 0.28146 0.58201 0.0
O366 O 0.75551 0.30255 0.5895 0.0
C367 C 0.71854 0.24896 0.63773 0.0
C368 C 0.69102 0.32338 0.61932 0.0
C369 C 0.76475 0.30775 0.65291 0.0
O370 O 0.73344 0.25217 0.62055 0.0
O371 O 0.70925 0.26822 0.6461 0.0
O372 O 0.74493 0.31912 0.65073 0.0
O373 O 0.76722 0.29008 0.63853 0.0
C374 C 0.743 0.29121 0.57388 0.0
O375 O 0.71069 0.32838 0.60846 0.0
O376 O 0.69128 0.30372 0.63116 0.0
In377 In 0.93715 0.48045 0.87551 0.0
O378 O 0.89775 0.46669 0.87288 0.0
O379 O 0.92444 0.4436 0.88866 0.0
C380 C 0.93449 0.52342 0.89963 0.0
C381 C 0.936 0.48106 0.82652 0.0
C382 C 0.97978 0.46378 0.89288 0.0
O383 O 0.92342 0.50459 0.90671 0.0
O384 O 0.94594 0.52079 0.87996 0.0
O385 O 0.97876 0.47831 0.87507 0.0
O386 O 0.9594 0.45777 0.90168 0.0
C387 C 0.90262 0.44617 0.88207 0.0
O388 O 0.95196 0.46951 0.83833 0.0
O389 O 0.92077 0.49247 0.83942 0.0
In390 In 0.7668 0.71302 0.10289 0.0
O391 O 0.75975 0.72695 0.06437 0.0
O392 O 0.75569 0.68898 0.07116 0.0
C393 C 0.77578 0.7555 0.12585 0.0
C394 C 0.81123 0.69292 0.10149 0.0
C395 C 0.72934 0.69892 0.1311 0.0
O396 O 0.76233 0.75449 0.10719 0.0
O397 O 0.78459 0.73537 0.13243 0.0
O398 O 0.75074 0.69114 0.13422 0.0
O399 O 0.72672 0.71294 0.11313 0.0
C400 C 0.75487 0.70611 0.05587 0.0
O401 O 0.79304 0.68136 0.10966 0.0
O402 O 0.8067 0.71411 0.09379 0.0
In403 In 0.51609 0.51179 0.34808 0.0
O404 O 0.54783 0.53857 0.35063 0.0
O405 O 0.52025 0.54469 0.32392 0.0
C406 C 0.53142 0.4772 0.37923 0.0
C407 C 0.51467 0.48961 0.30444 0.0
C408 C 0.47923 0.53125 0.37423 0.0
O409 O 0.54406 0.4958 0.37438 0.0
O410 O 0.51154 0.47581 0.36782 0.0
O411 O 0.47572 0.51509 0.35823 0.0
O412 O 0.50109 0.53784 0.37653 0.0
C413 C 0.54001 0.55167 0.33339 0.0
O414 O 0.49584 0.49846 0.31437 0.0
O415 O 0.53393 0.49132 0.31689 0.0
In416 In 0.8825 0.72946 0.70493 0.0
O417 O 0.91778 0.74609 0.71891 0.0
O418 O 0.91223 0.74473 0.68052 0.0
C419 C 0.86096 0.71507 0.74661 0.0
C420 C 0.89448 0.68601 0.68622 0.0
C421 C 0.84953 0.76293 0.69096 0.0
O422 O 0.8785 0.72999 0.74647 0.0
O423 O 0.85461 0.70746 0.72591 0.0
O424 O 0.85087 0.74222 0.68096 0.0
O425 O 0.86534 0.76685 0.70714 0.0
C426 C 0.9262 0.75035 0.69791 0.0
O427 O 0.87948 0.69994 0.6756 0.0
O428 O 0.90306 0.69412 0.70594 0.0
In429 In 0.52327 0.63091 0.97335 0.0
O430 O 0.53363 0.63862 0.93382 0.0
O431 O 0.56037 0.62292 0.95703 0.0
C432 C 0.48115 0.60732 0.96419 0.0
C433 C 0.51853 0.67946 0.97954 0.0
C434 C 0.53937 0.6047 0.01161 0.0
O435 O 0.49906 0.60659 0.94977 0.0
O436 O 0.48447 0.6201 0.98296 0.0
O437 O 0.52943 0.62529 0.01431 0.0
O438 O 0.54144 0.59778 0.98982 0.0
C439 C 0.55521 0.63095 0.93616 0.0
O440 O 0.53837 0.66852 0.98344 0.0
O441 O 0.50111 0.66585 0.97337 0.0
In442 In 0.62356 0.25288 0.20117 0.0
O443 O 0.63726 0.28792 0.18384 0.0
O444 O 0.60917 0.26863 0.16555 0.0
C445 C 0.65624 0.217 0.19214 0.0
C446 C 0.57596 0.24312 0.20791 0.0
C447 C 0.6389 0.26979 0.24442 0.0
O448 O 0.6602 0.23906 0.18733 0.0
O449 O 0.63507 0.21271 0.19988 0.0
O450 O 0.63457 0.28376 0.2267 0.0
O451 O 0.63469 0.24752 0.24047 0.0
C452 C 0.62265 0.28725 0.16617 0.0
O453 O 0.58852 0.2547 0.22327 0.0
O454 O 0.58742 0.23627 0.18916 0.0
In455 In 0.95494 0.37045 0.45269 0.0
O456 O 0.93613 0.37599 0.41598 0.0
O457 O 0.91413 0.37414 0.44781 0.0
C458 C 0.99696 0.39455 0.44432 0.0
C459 C 0.95998 0.32184 0.44787 0.0
C460 C 0.94612 0.38958 0.49693 0.0
O461 O 0.97667 0.40173 0.4363 0.0
O462 O 0.9962 0.37471 0.45578 0.0
O463 O 0.9557 0.36883 0.49414 0.0
O464 O 0.9407 0.40042 0.47741 0.0
C465 C 0.91496 0.37651 0.42499 0.0
O466 O 0.95145 0.33157 0.46689 0.0
O467 O 0.96598 0.33663 0.43135 0.0
In468 In 0.86955 0.28083 0.81006 0.0
O469 O 0.87744 0.29625 0.84788 0.0
O470 O 0.85715 0.31797 0.82307 0.0
C471 C 0.84187 0.24143 0.82079 0.0
C472 C 0.91815 0.27973 0.8031 0.0
C473 C 0.85155 0.2901 0.76557 0.0
O474 O 0.83591 0.26281 0.82662 0.0
O475 O 0.86247 0.23974 0.8108 0.0
O476 O 0.86584 0.27262 0.76981 0.0
O477 O 0.84628 0.30303 0.78386 0.0
C478 C 0.86676 0.31624 0.84385 0.0
O479 O 0.90401 0.2927 0.79054 0.0
O480 O 0.90787 0.26744 0.81963 0.0
In481 In 0.98434 0.64023 0.04286 0.0
O482 O 0.95797 0.64044 0.07534 0.0
O483 O 0.95298 0.66594 0.04633 0.0
C484 C 0.0198 0.60862 0.05407 0.0
C485 C 0.00708 0.68326 0.04331 0.0
C486 C 0.96196 0.61484 0.00733 0.0
O487 O 0.00059 0.61033 0.06672 0.0
O488 O 0.02128 0.62333 0.03651 0.0
O489 O 0.97725 0.63143 0.00259 0.0
O490 O 0.95807 0.61146 0.02967 0.0
C491 C 0.9458 0.658 0.06662 0.0
O492 O -0.00205 0.67436 0.02407 0.0
O493 O 0.00575 0.66979 0.06195 0.0
In494 In 0.62173 0.71943 0.28789 0.0
O495 O 0.59141 0.73658 0.26562 0.0
O496 O 0.58518 0.73079 0.30353 0.0
C497 C 0.6502 0.70528 0.25064 0.0
C498 C 0.60858 0.6761 0.30609 0.0
C499 C 0.64899 0.75597 0.30607 0.0
O500 O 0.62973 0.71528 0.24747 0.0
O501 O 0.65633 0.70257 0.2726 0.0
O502 O 0.65014 0.7346 0.31453 0.0
O503 O 0.63341 0.75885 0.2895 0.0
C504 C 0.57683 0.73807 0.28336 0.0
O505 O 0.61771 0.69243 0.31961 0.0
O506 O 0.60663 0.68177 0.28395 0.0
In507 In 0.5295 0.37105 0.53834 0.0
O508 O 0.53304 0.33327 0.52154 0.0
O509 O 0.52123 0.33567 0.55834 0.0
C510 C 0.53104 0.38888 0.49281 0.0
C511 C 0.5725 0.37609 0.56126 0.0
C512 C 0.4904 0.39683 0.5536 0.0
O513 O 0.51772 0.37101 0.49854 0.0
O514 O 0.54368 0.39748 0.50998 0.0
O515 O 0.5119 0.40475 0.55534 0.0
O516 O 0.48878 0.37551 0.54529 0.0
C517 C 0.52637 0.32212 0.54049 0.0
O518 O 0.55279 0.37313 0.57279 0.0
O519 O 0.57031 0.37693 0.53844 0.0
In520 In 0.69623 0.87484 0.71691 0.0
O521 O 0.71482 0.91189 0.71987 0.0
O522 O 0.67742 0.90951 0.72981 0.0
C523 C 0.73987 0.8549 0.70696 0.0
C524 C 0.67009 0.87714 0.67558 0.0
C525 C 0.68369 0.84544 0.75429 0.0
O526 O 0.7376 0.87364 0.72016 0.0
O527 O 0.72016 0.84643 0.69869 0.0
O528 O 0.6783 0.84071 0.73249 0.0
O529 O 0.6944 0.8655 0.75733 0.0
C530 C 0.69601 0.92283 0.72735 0.0
O531 O 0.6601 0.87747 0.69629 0.0
O532 O 0.69297 0.87531 0.67587 0.0
In533 In 0.19977 0.614 0.26547 0.0
O534 O 0.21859 0.5769 0.26302 0.0
O535 O 0.18077 0.57898 0.25463 0.0
C536 C 0.23868 0.64027 0.27887 0.0
C537 C 0.1736 0.61442 0.30666 0.0
C538 C 0.19076 0.63927 0.22445 0.0
O539 O 0.24097 0.61931 0.26945 0.0
O540 O 0.21703 0.64752 0.28145 0.0
O541 O 0.17972 0.64344 0.24418 0.0
O542 O 0.20516 0.62141 0.22507 0.0
C543 C 0.19945 0.56574 0.2567 0.0
O544 O 0.16341 0.61406 0.28603 0.0
O545 O 0.19655 0.61414 0.30635 0.0
In546 In 0.64023 0.96477 0.51353 0.0
O547 O 0.67804 0.97528 0.52702 0.0
O548 O 0.6749 0.96071 0.4912 0.0
C549 C 0.6205 0.00801 0.52632 0.0
C550 C 0.64084 0.92931 0.54714 0.0
C551 C 0.61066 0.95282 0.47609 0.0
O552 O 0.63788 0.00631 0.51137 0.0
O553 O 0.61362 0.98804 0.53523 0.0
O554 O 0.60832 0.94399 0.49712 0.0
O555 O 0.62855 0.96698 0.47364 0.0
C556 C 0.68873 0.96882 0.5077 0.0
O557 O 0.64962 0.92627 0.52607 0.0
O558 O 0.63149 0.94997 0.55094 0.0
In559 In 0.28201 0.38383 0.77895 0.0
O560 O 0.31571 0.38599 0.80335 0.0
O561 O 0.28079 0.38402 0.82015 0.0
C562 C 0.29625 0.35684 0.74039 0.0
C563 C 0.28501 0.43155 0.76816 0.0
C564 C 0.23921 0.3616 0.78678 0.0
O565 O 0.30285 0.35199 0.76185 0.0
O566 O 0.28343 0.37575 0.7384 0.0
O567 O 0.24048 0.38265 0.77747 0.0
O568 O 0.25944 0.3521 0.79221 0.0
C569 C 0.30352 0.38562 0.82285 0.0
O570 O 0.26487 0.42131 0.77265 0.0
O571 O 0.30332 0.41768 0.76894 0.0
In572 In 0.35988 0.53277 0.52131 0.0
O573 O 0.35778 0.57146 0.53683 0.0
O574 O 0.35742 0.5414 0.56142 0.0
C575 C 0.37872 0.53794 0.47633 0.0
C576 C 0.31193 0.52643 0.51334 0.0
C577 C 0.39355 0.50185 0.53858 0.0
O578 O 0.3825 0.55339 0.493 0.0
O579 O 0.36509 0.52045 0.48229 0.0
O580 O 0.37183 0.49512 0.53456 0.0
O581 O 0.39796 0.52392 0.53385 0.0
C582 C 0.3568 0.5642 0.55865 0.0
O583 O 0.32532 0.50915 0.52065 0.0
O584 O 0.32279 0.54645 0.51028 0.0
In585 In 0.81528 0.1174 0.23853 0.0
O586 O 0.85067 0.11944 0.21591 0.0
O587 O 0.81653 0.11573 0.19782 0.0
C588 C 0.82605 0.13933 0.28118 0.0
C589 C 0.81408 0.06903 0.24647 0.0
C590 C 0.77729 0.14526 0.2249 0.0
O591 O 0.8373 0.14417 0.26169 0.0
O592 O 0.81038 0.12266 0.27927 0.0
O593 O 0.77481 0.12287 0.22979 0.0
O594 O 0.79863 0.15342 0.22751 0.0
C595 C 0.83931 0.11778 0.19592 0.0
O596 O 0.79496 0.08183 0.24537 0.0
O597 O 0.83374 0.08073 0.24401 0.0
In598 In 0.63594 0.03634 0.97642 0.0
O599 O 0.64433 0.07308 0.9589 0.0
O600 O 0.6332 0.04392 0.93591 0.0
C601 C 0.60557 0.04925 0.01318 0.0
C602 C 0.68406 0.03229 0.98537 0.0
C603 C 0.61594 0.99337 0.96412 0.0
O604 O 0.60212 0.05567 0.99145 0.0
O605 O 0.62485 0.03729 0.0165 0.0
O606 O 0.63161 0.99538 0.98085 0.0
O607 O 0.61057 0.01303 0.95346 0.0
C608 C 0.64011 0.06577 0.93752 0.0
O609 O 0.67156 0.01488 0.9771 0.0
O610 O 0.67224 0.05156 0.98955 0.0
In611 In 0.8767 0.94697 0.46776 0.0
O612 O 0.86276 0.90939 0.45657 0.0
O613 O 0.88654 0.92807 0.43243 0.0
C614 C 0.90065 0.93848 0.50982 0.0
C615 C 0.82894 0.95712 0.47278 0.0
C616 C 0.90152 0.98496 0.4489 0.0
O617 O 0.90015 0.92309 0.49273 0.0
O618 O 0.88874 0.95767 0.50578 0.0
O619 O 0.88035 0.98709 0.45762 0.0
O620 O 0.91015 0.96368 0.44969 0.0
C621 C 0.87329 0.90967 0.43611 0.0
O622 O 0.83998 0.95898 0.45272 0.0
O623 O 0.84205 0.95046 0.49044 0.0
H624 H 0.26012 0.17567 0.54063 0.0
H625 H 0.25227 0.2537 0.54684 0.0
H626 H 0.24615 0.25678 0.50288 0.0
H627 H 0.24323 0.23737 0.46279 0.0
H628 H 0.25148 0.15941 0.45635 0.0
H629 H 0.2575 0.15624 0.50037 0.0
C630 C 0.25692 0.19333 0.53237 0.0
C631 C 0.25652 0.21442 0.54693 0.0
C632 C 0.2537 0.19499 0.50708 0.0
C633 C 0.25258 0.2372 0.53599 0.0
C634 C 0.24915 0.23898 0.51087 0.0
C635 C 0.24647 0.21969 0.471 0.0
C636 C 0.24696 0.19866 0.45637 0.0
C637 C 0.24978 0.21802 0.49625 0.0
C638 C 0.2511 0.17588 0.46725 0.0
C639 C 0.25445 0.17405 0.4924 0.0
H640 H 0.015 0.96502 0.7049 0.0
H641 H 0.08974 0.98835 0.69738 0.0
H642 H 0.09304 0.99305 0.74148 0.0
H643 H 0.07383 0.99338 0.78178 0.0
H644 H -0.00163 0.97255 0.78917 0.0
H645 H 0.99626 0.96368 0.74556 0.0
C646 C 0.03205 0.97093 0.71297 0.0
C647 C 0.05204 0.97647 0.69796 0.0
C648 C 0.03368 0.97404 0.73828 0.0
C649 C 0.07404 0.98414 0.70859 0.0
C650 C 0.07595 0.98681 0.73378 0.0
C651 C 0.05705 0.98653 0.77389 0.0
C652 C 0.03629 0.98362 0.78858 0.0
C653 C 0.05578 0.98219 0.74876 0.0
C654 C 0.01458 0.97497 0.77815 0.0
C655 C 0.01334 0.96997 0.75323 0.0
H656 H 0.25996 0.76466 0.95374 0.0
H657 H 0.2461 0.84186 0.94793 0.0
H658 H 0.23828 0.84413 0.99162 0.0
H659 H 0.23596 0.8244 0.03156 0.0
H660 H 0.24904 0.74711 0.03758 0.0
H661 H 0.25659 0.74464 0.99373 0.0
C662 C 0.25517 0.78195 0.96205 0.0
C663 C 0.25367 0.80306 0.94765 0.0
C664 C 0.25062 0.78312 0.98721 0.0
C665 C 0.24737 0.82534 0.95863 0.0
C666 C 0.24293 0.82667 0.98362 0.0
C667 C 0.24048 0.80701 0.02327 0.0
C668 C 0.24205 0.78599 0.03777 0.0
C669 C 0.24462 0.80572 -0.00191 0.0
C670 C 0.24774 0.76356 0.02678 0.0
C671 C 0.25207 0.76214 0.00172 0.0
H672 H 0.48685 0.98577 0.29828 0.0
H673 H 0.41215 0.9615 0.29386 0.0
H674 H 0.41229 0.96809 0.24991 0.0
H675 H 0.43343 0.98093 0.21286 0.0
H676 H 0.50738 0.00728 0.21707 0.0
H677 H 0.5078 -0.00032 0.26103 0.0
C678 C 0.47064 0.98191 0.28764 0.0
C679 C 0.44955 0.97311 0.29922 0.0
C680 C 0.47073 0.98609 0.26241 0.0
C681 C 0.42859 0.96835 0.28533 0.0
C682 C 0.42867 0.97206 0.26021 0.0
C683 C 0.44969 0.9849 0.22339 0.0
C684 C 0.4704 0.99447 0.2118 0.0
C685 C 0.44961 0.98092 0.24859 0.0
C686 C 0.49123 -0.00015 0.22566 0.0
C687 C 0.49147 0.99551 0.25075 0.0
H688 H 0.54277 0.23263 0.17308 0.0
H689 H 0.55041 0.24429 0.25039 0.0
H690 H 0.50662 0.23802 0.25601 0.0
H691 H 0.46603 0.22976 0.23875 0.0
H692 H 0.4583 0.22061 0.16108 0.0
H693 H 0.50221 0.22543 0.15575 0.0
C694 C 0.53483 0.23364 0.19115 0.0
C695 C 0.5497 0.23873 0.21131 0.0
C696 C 0.50963 0.2306 0.19415 0.0
C697 C 0.53923 0.24036 0.23461 0.0
C698 C 0.51423 0.23679 0.23783 0.0
C699 C 0.47402 0.22881 0.22069 0.0
C700 C 0.45904 0.22481 0.20036 0.0
C701 C 0.49924 0.232 0.21771 0.0
C702 C 0.4695 0.22378 0.17701 0.0
C703 C 0.4946 0.22647 0.17394 0.0
H704 H 0.95623 0.28762 0.48332 0.0
H705 H 0.97172 0.29668 0.40679 0.0
H706 H 0.97974 0.25307 0.40289 0.0
H707 H 0.98469 0.21293 0.42167 0.0
H708 H 0.97146 0.20405 0.49862 0.0
H709 H 0.95996 0.24702 0.5019 0.0
C710 C 0.96118 0.27999 0.46576 0.0
C711 C 0.96348 0.29531 0.44539 0.0
C712 C 0.96618 0.25498 0.46375 0.0
C713 C 0.96997 0.28524 0.42277 0.0
C714 C 0.97453 0.26033 0.42052 0.0
C715 C 0.979 0.22033 0.43911 0.0
C716 C 0.9789 0.2054 0.45988 0.0
C717 C 0.97302 0.2451 0.44095 0.0
C718 C 0.97169 0.21524 0.48238 0.0
C719 C 0.96518 0.23979 0.48427 0.0
H720 H 0.0347 0.76999 0.6666 0.0
H721 H 0.04079 0.7877 0.74294 0.0
H722 H 0.99701 0.78145 0.74821 0.0
H723 H 0.95758 0.76814 0.73169 0.0
H724 H 0.95135 0.75125 0.65517 0.0
H725 H 0.99455 0.76028 0.64933 0.0
C726 C 0.02638 0.77264 0.68434 0.0
C727 C 0.04092 0.77901 0.70441 0.0
C728 C 0.00121 0.76915 0.68721 0.0
C729 C 0.02994 0.7827 0.72723 0.0
C730 C 0.00493 0.77909 0.73028 0.0
C731 C 0.96564 0.76671 0.7137 0.0
C732 C 0.9514 0.75884 0.69394 0.0
C733 C 0.99047 0.7719 0.71048 0.0
C734 C 0.96198 0.75726 0.67068 0.0
C735 C 0.98669 0.7623 0.66734 0.0
H736 H 0.52537 0.79327 0.96683 0.0
H737 H 0.44711 0.78582 0.96905 0.0
H738 H 0.45116 0.7421 0.97633 0.0
H739 H 0.47688 0.70574 0.97986 0.0
H740 H 0.55516 0.71308 0.97899 0.0
H741 H 0.55121 0.75719 0.97374 0.0
C742 C 0.50924 0.78204 0.96901 0.0
C743 C 0.48599 0.79262 0.96717 0.0
C744 C 0.51171 0.75698 0.9735 0.0
C745 C 0.46521 0.77802 0.97035 0.0
C746 C 0.4675 0.75304 0.97448 0.0
C747 C 0.49306 0.71705 0.97879 0.0
C748 C 0.51625 0.70624 0.97965 0.0
C749 C 0.49065 0.7423 0.9758 0.0
C750 C 0.5371 0.72105 0.97843 0.0
C751 C 0.53485 0.74622 0.97528 0.0
H752 H 0.53956 0.72946 0.31419 0.0
H753 H 0.55687 0.76301 0.24533 0.0
H754 H 0.51376 0.7725 0.23885 0.0
H755 H 0.4709 0.76955 0.25208 0.0
H756 H 0.45391 0.7337 0.31993 0.0
H757 H 0.49713 0.72675 0.32747 0.0
C758 C 0.53391 0.73911 0.29791 0.0
C759 C 0.55127 0.74565 0.28032 0.0
C760 C 0.50914 0.74388 0.29403 0.0
C761 C 0.54375 0.75784 0.25913 0.0
C762 C 0.51913 0.7632 0.2554 0.0
C763 C 0.47672 0.7603 0.26852 0.0
C764 C 0.4593 0.7521 0.28538 0.0
C765 C 0.50163 0.75602 0.27259 0.0
C766 C 0.467 0.74006 0.3066 0.0
C767 C 0.4917 0.73613 0.31097 0.0
H768 H 0.53038 0.29034 0.50289 0.0
H769 H 0.51676 0.29405 0.58023 0.0
H770 H 0.51029 0.25001 0.58143 0.0
H771 H 0.50596 0.211 0.56007 0.0
H772 H 0.51752 0.20758 0.4824 0.0
H773 H 0.52763 0.25098 0.48178 0.0
C774 C 0.52619 0.28147 0.52003 0.0
C775 C 0.52392 0.29539 0.54141 0.0
C776 C 0.52211 0.25624 0.52051 0.0
C777 C 0.51846 0.2837 0.5635 0.0
C778 C 0.51478 0.25854 0.5642 0.0
C779 C 0.51102 0.21969 0.54306 0.0
C780 C 0.51098 0.20618 0.52131 0.0
C781 C 0.51621 0.2447 0.54277 0.0
C782 C 0.51738 0.21767 0.49937 0.0
C783 C 0.52309 0.24246 0.499 0.0
H784 H 0.95387 0.26271 0.8327 0.0
H785 H 0.94119 0.29308 0.7614 0.0
H786 H 0.98412 0.28756 0.75098 0.0
H787 H 0.02481 0.27183 0.76133 0.0
H788 H 0.03776 0.24292 0.83322 0.0
H789 H 0.99534 0.25037 0.84429 0.0
C790 C 0.96059 0.26823 0.81496 0.0
C791 C 0.94443 0.27804 0.79777 0.0
C792 C 0.98534 0.26526 0.80918 0.0
C793 C 0.95334 0.28544 0.77494 0.0
C794 C 0.97786 0.28224 0.76893 0.0
C795 C 0.01837 0.26741 0.77948 0.0
C796 C 0.03431 0.25669 0.79635 0.0
C797 C 0.99396 0.27185 0.78579 0.0
C798 C 0.02582 0.25121 0.81988 0.0
C799 C 0.00153 0.25535 0.82621 0.0
H800 H 0.00352 0.71794 0.00842 0.0
H801 H 0.02794 0.70607 0.08216 0.0
H802 H 0.03504 0.74973 0.08719 0.0
H803 H 0.03139 0.79151 0.07162 0.0
H804 H 0.0063 0.80336 -0.0019 0.0
H805 H 0.00223 0.75945 0.99204 0.0
C806 C 0.01079 0.72486 0.02545 0.0
C807 C 0.01514 0.70885 0.04491 0.0
C808 C 0.01433 0.75 0.02838 0.0
C809 C 0.02444 0.71806 0.06691 0.0
C810 C 0.02836 0.74303 0.06985 0.0
C811 C 0.02507 0.78445 0.05427 0.0
C812 C 0.0189 0.8006 0.03543 0.0
C813 C 0.02282 0.75921 0.0509 0.0
C814 C 0.011 0.79125 0.01294 0.0
C815 C 0.00872 0.76617 0.00944 0.0
H816 H 0.17787 0.45467 0.23733 0.0
H817 H 0.25633 0.45077 0.24091 0.0
H818 H 0.25838 0.49466 0.24872 0.0
H819 H 0.23772 0.53422 0.25425 0.0
H820 H 0.15928 0.53779 0.24933 0.0
H821 H 0.15739 0.49395 0.2423 0.0
C822 C 0.19543 0.46341 0.23989 0.0
C823 C 0.21691 0.44953 0.23863 0.0
C824 C 0.19646 0.48859 0.24408 0.0
C825 C 0.23953 0.46111 0.2418 0.0
C826 C 0.24071 0.48618 0.24627 0.0
C827 C 0.22024 0.52536 0.25166 0.0
C828 C 0.19868 0.5392 0.25232 0.0
C829 C 0.21928 0.50012 0.2474 0.0
C830 C 0.17615 0.52754 0.24884 0.0
C831 C 0.17503 0.50246 0.24485 0.0
H832 H 0.67656 0.03402 0.74834 0.0
H833 H 0.75515 0.0359 0.74691 0.0
H834 H 0.75628 0.99216 0.73807 0.0
H835 H 0.73478 0.95334 0.73123 0.0
H836 H 0.65621 0.95145 0.73469 0.0
H837 H 0.65519 0.99529 0.74234 0.0
C838 C 0.69393 0.02487 0.74595 0.0
C839 C 0.71574 0.03812 0.7481 0.0
C840 C 0.69442 -0.00026 0.74136 0.0
C841 C 0.73813 0.02603 0.74529 0.0
C842 C 0.73877 0.00106 0.74026 0.0
C843 C 0.71746 0.96256 0.73365 0.0
C844 C 0.69561 0.94924 0.73236 0.0
C845 C 0.71702 0.98772 0.73834 0.0
C846 C 0.67328 0.96133 0.73567 0.0
C847 C 0.67268 0.98639 0.73999 0.0
H848 H 0.18226 0.48726 0.01046 0.0
H849 H 0.18844 0.4089 0.01323 0.0
H850 H 0.23239 0.41181 0.00709 0.0
H851 H 0.26901 0.43648 0.00109 0.0
H852 H 0.26317 0.51473 0.9965 0.0
H853 H 0.2191 0.51205 0.00323 0.0
C854 C 0.19327 0.47086 0.00968 0.0
C855 C 0.18217 0.44791 0.01233 0.0
C856 C 0.21853 0.47265 0.00588 0.0
C857 C 0.19657 0.42677 0.01116 0.0
C858 C 0.2217 0.42841 0.00771 0.0
C859 C 0.25811 0.45296 0.00165 0.0
C860 C 0.26928 0.47577 -0.00151 0.0
C861 C 0.23286 0.45124 0.00512 0.0
C862 C 0.25493 0.49696 -0.00105 0.0
C863 C 0.22976 0.49543 0.00279 0.0
H864 H 0.77509 0.04084 0.25817 0.0
H865 H 0.8519 0.03733 0.24149 0.0
H866 H 0.85097 0.99298 0.24508 0.0
H867 H 0.82834 0.9552 0.25277 0.0
H868 H 0.75193 0.95864 0.27104 0.0
H869 H 0.75265 0.00302 0.26695 0.0
C870 C 0.79162 0.03035 0.25536 0.0
C871 C 0.81351 0.04231 0.24953 0.0
C872 C 0.791 0.00487 0.25766 0.0
C873 C 0.83482 0.02853 0.24606 0.0
C874 C 0.8343 0.00317 0.24804 0.0
C875 C 0.81184 0.96567 0.25576 0.0
C876 C 0.79009 0.95371 0.26204 0.0
C877 C 0.81249 0.99115 0.25376 0.0
C878 C 0.76889 0.96748 0.26614 0.0
C879 C 0.7693 0.99284 0.26382 0.0
H880 H 0.71647 0.0693 0.9864 0.0
H881 H 0.71082 0.99117 0.99257 0.0
H882 H 0.75477 0.98827 -0.00027 0.0
H883 H 0.79456 0.00821 0.00536 0.0
H884 H 0.80034 0.08619 -0.00295 0.0
H885 H 0.75659 0.0889 0.9893 0.0
C886 C 0.72491 0.05167 0.98937 0.0
C887 C 0.71053 0.0305 0.98929 0.0
C888 C 0.75016 0.05012 0.99294 0.0
C889 C 0.72162 0.0077 0.99268 0.0
C890 C 0.74669 0.00605 0.99676 0.0
C891 C 0.78623 0.02575 0.00167 0.0
C892 C 0.80057 0.04697 0.0019 0.0
C893 C 0.76112 0.02716 -0.00294 0.0
C894 C 0.78965 0.06958 -0.00308 0.0
C895 C 0.76464 0.07117 0.99261 0.0
H896 H 0.24852 0.46395 0.75894 0.0
H897 H 0.32674 0.45785 0.76501 0.0
H898 H 0.33117 0.5011 0.75596 0.0
H899 H 0.31306 0.54047 0.74608 0.0
H900 H 0.23506 0.54702 0.73862 0.0
H901 H 0.23028 0.50374 0.74847 0.0
C902 C 0.2665 0.47214 0.75831 0.0
C903 C 0.28726 0.45776 0.76264 0.0
C904 C 0.26896 0.49704 0.75285 0.0
C905 C 0.31047 0.46853 0.76167 0.0
C906 C 0.31304 0.49326 0.75653 0.0
C907 C 0.29499 0.53246 0.74668 0.0
C908 C 0.27444 0.54689 0.74172 0.0
C909 C 0.29244 0.50765 0.75206 0.0
C910 C 0.25116 0.53623 0.74238 0.0
C911 C 0.24843 0.51152 0.74801 0.0
H912 H 0.28059 0.56236 0.50193 0.0
H913 H 0.28428 0.4847 0.51345 0.0
H914 H 0.24075 0.48105 0.5039 0.0
H915 H 0.20162 0.50027 0.49197 0.0
H916 H 0.19895 0.57821 0.48145 0.0
H917 H 0.24216 0.58136 0.49084 0.0
C918 C 0.27191 0.54459 0.50238 0.0
C919 C 0.28561 0.52382 0.50831 0.0
C920 C 0.24706 0.5427 0.49698 0.0
C921 C 0.27407 0.50097 0.50894 0.0
C922 C 0.24922 0.49889 0.50344 0.0
C923 C 0.21057 0.51789 0.4917 0.0
C924 C 0.19711 0.53896 0.48598 0.0
C925 C 0.23553 0.51965 0.49736 0.0
C926 C 0.20887 0.56171 0.48583 0.0
C927 C 0.23359 0.56356 0.49119 0.0
H928 H 0.74886 0.74 0.02028 0.0
H929 H 0.74864 0.66244 0.03329 0.0
H930 H 0.74067 0.65485 0.99023 0.0
H931 H 0.73396 0.67015 0.94891 0.0
H932 H 0.73306 0.74764 0.93573 0.0
H933 H 0.74134 0.75538 0.97884 0.0
C934 C 0.74702 0.72146 0.01367 0.0
C935 C 0.74936 0.70182 0.02991 0.0
C936 C 0.74232 0.71722 0.98888 0.0
C937 C 0.74687 0.67788 0.02114 0.0
C938 C 0.74236 0.67351 0.99652 0.0
C939 C 0.73565 0.68873 0.95546 0.0
C940 C 0.73303 0.7083 0.9392 0.0
C941 C 0.74012 0.69303 0.98023 0.0
C942 C 0.73504 0.73228 0.94795 0.0
C943 C 0.73976 0.73671 0.97257 0.0
H944 H 0.55402 0.47843 0.27688 0.0
H945 H 0.47541 0.4804 0.27533 0.0
H946 H 0.47577 0.46882 0.2323 0.0
H947 H 0.49854 0.46047 0.19461 0.0
H948 H 0.5772 0.46028 0.19598 0.0
H949 H 0.57671 0.46884 0.23964 0.0
C950 C 0.53695 0.47604 0.2672 0.0
C951 C 0.51472 0.48026 0.27923 0.0
C952 C 0.53732 0.46992 0.2424 0.0
C953 C 0.49276 0.47726 0.26644 0.0
C954 C 0.49296 0.47072 0.24183 0.0
C955 C 0.51556 0.46216 0.20451 0.0
C956 C 0.53787 0.45985 0.1921 0.0
C957 C 0.51514 0.46738 0.22955 0.0
C958 C 0.55979 0.4621 0.20512 0.0
C959 C 0.55953 0.46697 0.23008 0.0
H960 H 0.78824 0.29138 0.46824 0.0
H961 H 0.71732 0.26197 0.45131 0.0
H962 H 0.70631 0.26272 0.49442 0.0
H963 H 0.71619 0.27333 0.53661 0.0
H964 H 0.78621 0.30489 0.55347 0.0
H965 H 0.79823 0.30184 0.51068 0.0
C966 C 0.77051 0.28486 0.47409 0.0
C967 C 0.75364 0.27651 0.45676 0.0
C968 C 0.76407 0.28597 0.49881 0.0
C969 C 0.73059 0.26845 0.46441 0.0
C970 C 0.72426 0.26893 0.48901 0.0
C971 C 0.7341 0.27946 0.53092 0.0
C972 C 0.75028 0.28933 0.5481 0.0
C973 C 0.74074 0.27794 0.50631 0.0
C974 C 0.7734 0.29731 0.54051 0.0
C975 C 0.7803 0.29552 0.51608 0.0
H976 H 0.92174 0.49833 0.71427 0.0
H977 H 0.99375 0.46679 0.71247 0.0
H978 H 0.99175 0.45922 0.75633 0.0
H979 H 0.9709 0.46479 0.79556 0.0
H980 H 0.90003 0.49889 0.79748 0.0
H981 H 0.90019 0.50226 0.75313 0.0
C982 C 0.93682 0.48942 0.72342 0.0
C983 C 0.95786 0.48311 0.71025 0.0
C984 C 0.93586 0.48589 0.74866 0.0
C985 C 0.97738 0.47182 0.72231 0.0
C986 C 0.97628 0.46758 0.74736 0.0
C987 C 0.95542 0.47276 0.78623 0.0
C988 C 0.93556 0.48173 0.79971 0.0
C989 C 0.95584 0.47507 0.7608 0.0
C990 C 0.91561 0.49204 0.78746 0.0
C991 C 0.91567 0.49393 0.76212 0.0
H992 H 0.80324 0.96436 0.51434 0.0
H993 H 0.79547 0.95887 0.43634 0.0
H994 H 0.75126 0.96269 0.44019 0.0
H995 H 0.71473 0.96577 0.46589 0.0
H996 H 0.72251 0.97287 0.54376 0.0
H997 H 0.76684 0.97041 0.53982 0.0
C998 C 0.79184 0.96414 0.49821 0.0
C999 C 0.80249 0.96117 0.47513 0.0
C1000 C 0.76649 0.9666 0.50054 0.0
C1001 C 0.78762 0.96115 0.45432 0.0
C1002 C 0.76236 0.96326 0.4565 0.0
C1003 C 0.72617 0.96692 0.48196 0.0
C1004 C 0.71545 0.96932 0.50507 0.0
C1005 C 0.75159 0.96572 0.47954 0.0
C1006 C 0.73041 0.97104 0.52576 0.0
C1007 C 0.75572 0.96955 0.52353 0.0
H1008 H 0.22901 0.34654 0.3047 0.0
H1009 H 0.16462 0.31729 0.27025 0.0
H1010 H 0.16423 0.28344 0.29908 0.0
H1011 H 0.18521 0.25959 0.33046 0.0
H1012 H 0.25011 0.2883 0.36433 0.0
H1013 H 0.24723 0.32505 0.33936 0.0
C1014 C 0.2146 0.33302 0.30382 0.0
C1015 C 0.19706 0.33421 0.28521 0.0
C1016 C 0.2148 0.31336 0.32008 0.0
C1017 C 0.17841 0.31669 0.28436 0.0
C1018 C 0.17826 0.29725 0.30073 0.0
C1019 C 0.19857 0.27402 0.33255 0.0
C1020 C 0.21807 0.27114 0.34887 0.0
C1021 C 0.19688 0.29496 0.31806 0.0
C1022 C 0.23504 0.29008 0.35172 0.0
C1023 C 0.23342 0.31105 0.33743 0.0
H1024 H 0.98597 0.92303 0.58381 0.0
H1025 H 0.96013 0.99301 0.60883 0.0
H1026 H 0.9247 0.98974 0.58213 0.0
H1027 H 0.90474 0.97001 0.54747 0.0
H1028 H 0.9319 0.90123 0.52059 0.0
H1029 H 0.96301 0.90084 0.55247 0.0
C1030 C 0.97229 0.9373 0.58383 0.0
C1031 C 0.97579 0.95838 0.59801 0.0
C1032 C 0.9524 0.93565 0.56787 0.0
C1033 C 0.95791 0.9767 0.59793 0.0
C1034 C 0.93773 0.97489 0.58258 0.0
C1035 C 0.91719 0.95471 0.54885 0.0
C1036 C 0.91631 0.93587 0.5315 0.0
C1037 C 0.93535 0.95493 0.56678 0.0
C1038 C 0.93237 0.91605 0.53363 0.0
C1039 C 0.9502 0.91587 0.55179 0.0
H1040 H 0.2721 0.7153 0.85272 0.0
H1041 H 0.31552 0.76343 0.80825 0.0
H1042 H 0.32477 0.72999 0.78043 0.0
H1043 H 0.31697 0.68838 0.76641 0.0
H1044 H 0.27115 0.64088 0.80907 0.0
H1045 H 0.26676 0.67254 0.84015 0.0
C1046 C 0.28385 0.71833 0.83712 0.0
C1047 C 0.29293 0.74179 0.83239 0.0
C1048 C 0.28863 0.69914 0.82085 0.0
C1049 C 0.30811 0.74555 0.81212 0.0
C1050 C 0.31344 0.72644 0.79621 0.0
C1051 C 0.30647 0.68478 0.78277 0.0
C1052 C 0.29434 0.66242 0.78545 0.0
C1053 C 0.3033 0.70333 0.80007 0.0
C1054 C 0.28061 0.65803 0.80661 0.0
C1055 C 0.27799 0.67616 0.82431 0.0
H1056 H 0.60688 0.03152 0.05923 0.0
H1057 H 0.56199 0.07288 0.00973 0.0
H1058 H 0.52809 0.07114 0.03855 0.0
H1059 H 0.5099 0.05376 0.07545 0.0
H1060 H 0.55428 0.01107 0.12427 0.0
H1061 H 0.58978 0.01761 0.09815 0.0
C1062 C 0.58983 0.04055 0.05495 0.0
C1063 C 0.58685 0.05211 0.0323 0.0
C1064 C 0.57026 0.03899 0.07135 0.0
C1065 C 0.56469 0.06377 0.02701 0.0
C1066 C 0.54526 0.06268 0.04343 0.0
C1067 C 0.52742 0.04616 0.08055 0.0
C1068 C 0.52942 0.03171 0.10159 0.0
C1069 C 0.54762 0.04968 0.06528 0.0
C1070 C 0.55225 0.02214 0.10808 0.0
C1071 C 0.57254 0.02582 0.09312 0.0
H1072 H 0.21767 0.70559 0.13548 0.0
H1073 H 0.19409 0.76086 0.18629 0.0
H1074 H 0.18042 0.72953 0.2146 0.0
H1075 H 0.17844 0.68671 0.22647 0.0
H1076 H 0.20513 0.63126 0.17755 0.0
H1077 H 0.21373 0.66226 0.14667 0.0
C1078 C 0.20938 0.71071 0.15268 0.0
C1079 C 0.2071 0.73544 0.15891 0.0
C1080 C 0.20197 0.69256 0.16913 0.0
C1081 C 0.19631 0.7419 0.18122 0.0
C1082 C 0.18838 0.72401 0.19738 0.0
C1083 C 0.18557 0.68136 0.20882 0.0
C1084 C 0.19106 0.65681 0.20418 0.0
C1085 C 0.19151 0.69932 0.19171 0.0
C1086 C 0.20069 0.65011 0.18143 0.0
C1087 C 0.20578 0.66782 0.16388 0.0
H1088 H 0.56682 0.93108 0.48101 0.0
H1089 H 0.61239 0.96819 0.42882 0.0
H1090 H 0.5788 0.96866 0.39953 0.0
H1091 H 0.5353 0.9621 0.39047 0.0
H1092 H 0.48947 0.92728 0.44405 0.0
H1093 H 0.52436 0.92228 0.47108 0.0
C1094 C 0.56954 0.9389 0.46307 0.0
C1095 C 0.59196 0.94967 0.45708 0.0
C1096 C 0.55 0.93977 0.44669 0.0
C1097 C 0.59522 0.95983 0.43383 0.0
C1098 C 0.57601 0.9602 0.41714 0.0
C1099 C 0.53307 0.95317 0.40794 0.0
C1100 C 0.50987 0.94525 0.41537 0.0
C1101 C 0.55312 0.9508 0.42363 0.0
C1102 C 0.50715 0.93373 0.43804 0.0
C1103 C 0.52707 0.93083 0.45349 0.0
H1104 H 0.28607 0.29291 0.64639 0.0
H1105 H 0.30747 0.23684 0.6971 0.0
H1106 H 0.31501 0.26759 0.72836 0.0
H1107 H 0.31132 0.30986 0.74251 0.0
H1108 H 0.288 0.36566 0.69236 0.0
H1109 H 0.28589 0.33567 0.65953 0.0
C1110 C 0.29265 0.28747 0.66419 0.0
C1111 C 0.29593 0.26266 0.66954 0.0
C1112 C 0.2966 0.3052 0.68219 0.0
C1113 C 0.3046 0.25584 0.69262 0.0
C1114 C 0.30893 0.27341 0.71051 0.0
C1115 C 0.3063 0.31553 0.72426 0.0
C1116 C 0.29967 0.33985 0.71986 0.0
C1117 C 0.30441 0.29807 0.70567 0.0
C1118 C 0.29307 0.34697 0.69619 0.0
C1119 C 0.29174 0.32982 0.67745 0.0
H1120 H 0.9027 0.01861 0.94893 0.0
H1121 H 0.93383 0.08568 0.97575 0.0
H1122 H 0.96506 0.08411 0.94392 0.0
H1123 H 0.98571 0.06145 0.91117 0.0
H1124 H 0.95487 0.99385 0.88526 0.0
H1125 H 0.92112 -0.00203 0.91398 0.0
C1126 C 0.91614 0.03306 0.94764 0.0
C1127 C 0.91616 0.0521 0.96478 0.0
C1128 C 0.93414 0.03184 0.92958 0.0
C1129 C 0.93352 0.07079 0.96278 0.0
C1130 C 0.95141 0.06984 0.94466 0.0
C1131 C 0.97141 0.0478 0.91159 0.0
C1132 C 0.97287 0.02725 0.89631 0.0
C1133 C 0.95225 0.05012 0.92837 0.0
C1134 C 0.9542 0.00977 0.89693 0.0
C1135 C 0.93494 0.01207 0.91339 0.0
H1136 H 0.32059 0.17527 0.25438 0.0
H1137 H 0.37498 0.21449 0.29544 0.0
H1138 H 0.35003 0.21103 0.3322 0.0
H1139 H 0.31077 0.20101 0.35129 0.0
H1140 H 0.25604 0.16265 0.30982 0.0
H1141 H 0.28332 0.16123 0.27469 0.0
C1142 C 0.32712 0.18278 0.27146 0.0
C1143 C 0.34941 0.19541 0.27216 0.0
C1144 C 0.31259 0.18094 0.2924 0.0
C1145 C 0.3578 0.2048 0.29443 0.0
C1146 C 0.34352 0.20289 0.31543 0.0
C1147 C 0.30499 0.19193 0.33471 0.0
C1148 C 0.28133 0.1822 0.33305 0.0
C1149 C 0.32059 0.1916 0.31444 0.0
C1150 C 0.27413 0.17038 0.31152 0.0
C1151 C 0.28966 0.16968 0.29137 0.0
H1152 H 0.06671 0.01721 0.54863 0.0
H1153 H 0.03835 0.06037 0.60796 0.0
H1154 H 0.03016 0.09401 0.58004 0.0
H1155 H 0.02695 0.10935 0.53802 0.0
H1156 H 0.0546 0.06552 0.47879 0.0
H1157 H 0.06721 0.03406 0.5074 0.0
C1158 C 0.05916 0.03415 0.55552 0.0
C1159 C 0.05294 0.03623 0.58023 0.0
C1160 C 0.05406 0.0532 0.53932 0.0
C1161 C 0.04323 0.0583 0.58895 0.0
C1162 C 0.0384 0.0775 0.57298 0.0
C1163 C 0.03599 0.09304 0.53145 0.0
C1164 C 0.03955 0.08963 0.50634 0.0
C1165 C 0.04306 0.07487 0.548 0.0
C1166 C 0.05145 0.06849 0.49805 0.0
C1167 C 0.05868 0.05046 0.51438 0.0
H1168 H 0.16218 0.82747 0.75726 0.0
H1169 H 0.13413 0.75837 0.78217 0.0
H1170 H 0.15951 0.76096 0.81862 0.0
H1171 H 0.19302 0.78041 0.84072 0.0
H1172 H 0.22311 0.84813 0.81447 0.0
H1173 H 0.1933 0.84875 0.78138 0.0
C1174 C 0.16132 0.81319 0.77088 0.0
C1175 C 0.1465 0.79266 0.76698 0.0
C1176 C 0.17644 0.81449 0.79144 0.0
C1177 C 0.14554 0.77428 0.78473 0.0
C1178 C 0.16008 0.77573 0.80553 0.0
C1179 C 0.19277 0.79554 0.82802 0.0
C1180 C 0.21034 0.81409 0.82987 0.0
C1181 C 0.17611 0.79538 0.80869 0.0
C1182 C 0.20982 0.83357 0.81331 0.0
C1183 C 0.19286 0.83389 0.79435 0.0
H1184 H 0.47217 0.88372 0.0362 0.0
H1185 H 0.43469 0.93332 0.98814 0.0
H1186 H 0.42718 0.9611 0.02209 0.0
H1187 H 0.4352 0.97325 0.06426 0.0
H1188 H 0.47479 0.9248 0.11179 0.0
H1189 H 0.47722 0.89441 0.07932 0.0
C1190 C 0.46205 0.90044 0.03326 0.0
C1191 C 0.4542 0.90661 0.00972 0.0
C1192 C 0.45829 0.91656 0.05273 0.0
C1193 C 0.44109 0.92829 0.00611 0.0
C1194 C 0.43681 0.94419 0.02549 0.0
C1195 C 0.44397 0.95586 0.06764 0.0
C1196 C 0.45496 0.95131 0.09027 0.0
C1197 C 0.4459 0.93881 0.04872 0.0
C1198 C 0.4663 0.92874 0.09443 0.0
C1199 C 0.46778 0.91141 0.07586 0.0
H1200 H 0.34501 0.8177 0.21996 0.0
H1201 H 0.37638 0.75319 0.18763 0.0
H1202 H 0.3499 0.75777 0.15218 0.0
H1203 H 0.31336 0.77592 0.13407 0.0
H1204 H 0.28017 0.83879 0.16777 0.0
H1205 H 0.31208 0.8393 0.19879 0.0
C1206 C 0.34648 0.80499 0.20488 0.0
C1207 C 0.36234 0.78491 0.20655 0.0
C1208 C 0.33063 0.80727 0.18497 0.0
C1209 C 0.36415 0.76867 0.18685 0.0
C1210 C 0.34892 0.77121 0.16664 0.0
C1211 C 0.31341 0.79006 0.14789 0.0
C1212 C 0.29423 0.80704 0.1489 0.0
C1213 C 0.33137 0.78979 0.16605 0.0
C1214 C 0.29464 0.8254 0.16674 0.0
C1215 C 0.31281 0.82562 0.18456 0.0
H1216 H 0.45251 0.04581 0.39071 0.0
H1217 H 0.40935 0.00305 0.4406 0.0
H1218 H 0.41245 0.03527 0.47122 0.0
H1219 H 0.43226 0.07279 0.48559 0.0
H1220 H 0.47655 0.11479 0.43602 0.0
H1221 H 0.46805 0.0857 0.40341 0.0
C1222 C 0.44334 0.04376 0.4081 0.0
C1223 C 0.431 0.02197 0.41353 0.0
C1224 C 0.44572 0.06205 0.42578 0.0
C1225 C 0.41905 0.01963 0.43604 0.0
C1226 C 0.42096 0.03796 0.45361 0.0
C1227 C 0.43976 0.07575 0.46755 0.0
C1228 C 0.45532 0.09566 0.46329 0.0
C1229 C 0.43504 0.05881 0.44899 0.0
C1230 C 0.46468 0.09947 0.43979 0.0
C1231 C 0.45987 0.08283 0.42115 0.0
H1232 H 0.15947 0.18412 0.72919 0.0
H1233 H 0.12304 0.24215 0.69072 0.0
H1234 H 0.15176 0.23786 0.65684 0.0
H1235 H 0.19015 0.22123 0.64088 0.0
H1236 H 0.22723 0.16407 0.68007 0.0
H1237 H 0.19498 0.16407 0.71084 0.0
C1238 C 0.1576 0.1956 0.71323 0.0
C1239 C 0.13943 0.21369 0.71256 0.0
C1240 C 0.17433 0.19324 0.69407 0.0
C1241 C 0.13697 0.22819 0.69168 0.0
C1242 C 0.15344 0.22581 0.67238 0.0
C1243 C 0.19094 0.20845 0.65592 0.0
C1244 C 0.21119 0.19289 0.65841 0.0
C1245 C 0.17264 0.20893 0.67376 0.0
C1246 C 0.21188 0.17628 0.67782 0.0
C1247 C 0.19353 0.17639 0.69549 0.0
H1248 H 0.05968 0.94173 -0.00229 0.0
H1249 H 0.0396 0.87681 0.95812 0.0
H1250 H 0.04688 0.89773 0.91952 0.0
H1251 H 0.0537 0.93593 0.89739 0.0
H1252 H 0.07334 0.00096 0.93708 0.0
H1253 H 0.07218 0.97834 0.9753 0.0
C1254 C 0.05718 0.93212 0.98061 0.0
C1255 C 0.04868 0.908 0.98063 0.0
C1256 C 0.06136 0.94424 0.95856 0.0
C1257 C 0.04593 0.89551 0.95847 0.0
C1258 C 0.05006 0.90745 0.93642 0.0
C1259 C 0.05829 0.945 0.91435 0.0
C1260 C 0.06319 0.97012 0.91451 0.0
C1261 C 0.05706 0.93203 0.93628 0.0
C1262 C 0.06935 0.98163 0.93653 0.0
C1263 C 0.06849 0.96877 0.95841 0.0
H1264 H 0.29661 0.34843 0.21627 0.0
H1265 H 0.24115 0.3022 0.18503 0.0
H1266 H 0.27158 0.27115 0.17593 0.0
H1267 H 0.31297 0.25548 0.18051 0.0
H1268 H 0.36824 0.30036 0.21387 0.0
H1269 H 0.33901 0.33375 0.21808 0.0
C1270 C 0.2913 0.33168 0.20719 0.0
C1271 C 0.2667 0.32747 0.20155 0.0
C1272 C 0.30884 0.31365 0.20244 0.0
C1273 C 0.25998 0.30573 0.18979 0.0
C1274 C 0.27736 0.28797 0.18455 0.0
C1275 C 0.31874 0.27272 0.1883 0.0
C1276 C 0.34263 0.27544 0.197 0.0
C1277 C 0.30171 0.29149 0.19132 0.0
C1278 C 0.34987 0.29784 0.20711 0.0
C1279 C 0.33315 0.31688 0.20962 0.0
H1280 H 0.74977 0.17437 0.8155 0.0
H1281 H 0.79864 0.13104 0.77165 0.0
H1282 H 0.83241 0.15829 0.78198 0.0
H1283 H 0.8468 0.19683 0.79988 0.0
H1284 H 0.79731 0.24066 0.84258 0.0
H1285 H 0.76512 0.21052 0.8367 0.0
C1286 C 0.76787 0.17074 0.8084 0.0
C1287 C 0.77167 0.15094 0.79258 0.0
C1288 C 0.78706 0.18657 0.81422 0.0
C1289 C 0.79525 0.14628 0.78375 0.0
C1290 C 0.81454 0.16186 0.78962 0.0
C1291 C 0.82913 0.19951 0.80834 0.0
C1292 C 0.82437 0.22102 0.82148 0.0
C1293 C 0.81051 0.1824 0.80436 0.0
C1294 C 0.80138 0.22429 0.8323 0.0
C1295 C 0.78292 0.20714 0.82883 0.0
H1296 H 0.01117 0.56391 0.07268 0.0
H1297 H 0.06728 0.60831 0.04023 0.0
H1298 H 0.09383 0.57272 0.03648 0.0
H1299 H 0.09887 0.52834 0.03762 0.0
H1300 H 0.0413 0.48348 0.06686 0.0
H1301 H 0.01752 0.51981 0.07672 0.0
C1302 C 0.02946 0.56584 0.0654 0.0
C1303 C 0.03735 0.58856 0.05674 0.0
C1304 C 0.04414 0.54514 0.0623 0.0
C1305 C 0.0609 0.59089 0.04698 0.0
C1306 C 0.07599 0.57056 0.0447 0.0
C1307 C 0.08126 0.52656 0.04644 0.0
C1308 C 0.07172 0.50333 0.05128 0.0
C1309 C 0.06746 0.54747 0.0515 0.0
C1310 C 0.0489 0.50122 0.06273 0.0
C1311 C 0.03531 0.52197 0.0684 0.0
H1312 H 0.64816 0.80283 0.29122 0.0
H1313 H 0.69108 0.75139 0.33228 0.0
H1314 H 0.72552 0.77969 0.33215 0.0
H1315 H 0.74506 0.8162 0.31502 0.0
H1316 H 0.70234 0.86681 0.27269 0.0
H1317 H 0.66609 0.8417 0.27874 0.0
C1318 C 0.66488 0.79803 0.3006 0.0
C1319 C 0.66725 0.77495 0.31142 0.0
C1320 C 0.68474 0.81406 0.29986 0.0
C1321 C 0.68887 0.76904 0.32374 0.0
C1322 C 0.70863 0.78512 0.32349 0.0
C1323 C 0.72773 0.82189 0.30741 0.0
C1324 C 0.72642 0.84306 0.29306 0.0
C1325 C 0.70705 0.80722 0.31073 0.0
C1326 C 0.70383 0.85044 0.28361 0.0
C1327 C 0.68312 0.83609 0.28703 0.0
H1328 H 0.89033 0.96028 0.03903 0.0
H1329 H 0.93169 0.01156 0.08198 0.0
H1330 H 0.96137 0.97994 0.09173 0.0
H1331 H 0.97878 0.93979 0.08272 0.0
H1332 H 0.93869 0.88916 0.03786 0.0
H1333 H 0.90514 0.91822 0.03457 0.0
C1334 C 0.90554 0.96436 0.05097 0.0
C1335 C 0.90905 0.98827 0.05947 0.0
C1336 C 0.92292 0.94625 0.05596 0.0
C1337 C 0.92877 0.99332 0.07498 0.0
C1338 C 0.9458 0.97527 0.08052 0.0
C1339 C 0.96246 0.9349 0.07271 0.0
C1340 C 0.96135 0.91255 0.06026 0.0
C1341 C 0.94357 0.95196 0.0703 0.0
C1342 C 0.94006 0.90638 0.04744 0.0
C1343 C 0.92091 0.92304 0.04545 0.0
H1344 H 0.20201 0.64564 0.70448 0.0
H1345 H 0.2607 0.69346 0.68309 0.0
H1346 H 0.23146 0.7249 0.67188 0.0
H1347 H 0.1898 0.7405 0.67268 0.0
H1348 H 0.13096 0.69379 0.69587 0.0
H1349 H 0.15958 0.66006 0.70131 0.0
C1350 C 0.20833 0.66281 0.69704 0.0
C1351 C 0.23345 0.66736 0.69493 0.0
C1352 C 0.1914 0.68103 0.69099 0.0
C1353 C 0.24144 0.68963 0.68515 0.0
C1354 C 0.22474 0.70763 0.67871 0.0
C1355 C 0.18315 0.7228 0.67845 0.0
C1356 C 0.15839 0.71969 0.68411 0.0
C1357 C 0.19975 0.70378 0.68221 0.0
C1358 C 0.15 0.69665 0.69149 0.0
C1359 C 0.16637 0.67741 0.69476 0.0
H1360 H 0.00046 0.44041 0.42706 0.0
H1361 H 0.04273 0.38317 0.46035 0.0
H1362 H 0.0772 0.41106 0.46519 0.0
H1363 H 0.09357 0.45301 0.46388 0.0
H1364 H 0.04971 0.51028 0.43261 0.0
H1365 H 0.0177 0.48112 0.42301 0.0
C1366 C 0.01736 0.43391 0.43499 0.0
C1367 C 0.01902 0.40987 0.44348 0.0
C1368 C 0.03673 0.45017 0.43836 0.0
C1369 C 0.04101 0.40168 0.45374 0.0
C1370 C 0.06067 0.41764 0.45662 0.0
C1371 C 0.07712 0.45896 0.4547 0.0
C1372 C 0.07386 0.48374 0.44921 0.0
C1373 C 0.05848 0.44213 0.44964 0.0
C1374 C 0.0525 0.4913 0.4373 0.0
C1375 C 0.03419 0.47466 0.43175 0.0
H1376 H 0.44096 0.60638 0.99293 0.0
H1377 H 0.47145 0.57555 0.92726 0.0
H1378 H 0.43694 0.54763 0.92406 0.0
H1379 H 0.40069 0.52915 0.94232 0.0
H1380 H 0.37075 0.55892 0.00868 0.0
H1381 H 0.40229 0.59045 0.009 0.0
C1382 C 0.43988 0.59376 0.97775 0.0
C1383 C 0.45885 0.59278 0.96052 0.0
C1384 C 0.42017 0.57756 0.97621 0.0
C1385 C 0.45715 0.57651 0.94084 0.0
C1386 C 0.43745 0.56052 0.93902 0.0
C1387 C 0.40083 0.54277 0.95665 0.0
C1388 C 0.38363 0.54158 0.9756 0.0
C1389 C 0.41924 0.56045 0.95696 0.0
C1390 C 0.38387 0.55944 0.99394 0.0
C1391 C 0.40197 0.57737 0.9942 0.0
H1392 H 0.69798 0.77773 0.84495 0.0
H1393 H 0.68123 0.72298 0.791 0.0
H1394 H 0.6715 0.75471 0.76143 0.0
H1395 H 0.67208 0.79775 0.74969 0.0
H1396 H 0.6911 0.85247 0.80287 0.0
H1397 H 0.69514 0.82105 0.83412 0.0
C1398 C 0.6919 0.77276 0.82682 0.0
C1399 C 0.69058 0.7481 0.82006 0.0
C1400 C 0.68677 0.79109 0.80978 0.0
C1401 C 0.68259 0.74188 0.79655 0.0
C1402 C 0.67702 0.76 0.77964 0.0
C1403 C 0.67661 0.80284 0.76824 0.0
C1404 C 0.68145 0.82732 0.77396 0.0
C1405 C 0.67965 0.78464 0.78587 0.0
C1406 C 0.68739 0.83369 0.79803 0.0
C1407 C 0.68982 0.81573 0.81586 0.0
H1408 H 0.45218 0.45728 0.10284 0.0
H1409 H 0.49443 0.42471 0.04497 0.0
H1410 H 0.4587 0.42463 0.01855 0.0
H1411 H 0.41666 0.43704 0.01072 0.0
H1412 H 0.3747 0.47141 0.06769 0.0
H1413 H 0.40901 0.46719 0.09579 0.0
C1414 C 0.45346 0.44993 0.08453 0.0
C1415 C 0.47591 0.44121 0.07578 0.0
C1416 C 0.43294 0.45028 0.06929 0.0
C1417 C 0.47736 0.4317 0.05206 0.0
C1418 C 0.45696 0.43163 0.03694 0.0
C1419 C 0.41487 0.44325 0.0294 0.0
C1420 C 0.39327 0.45462 0.03711 0.0
C1421 C 0.43481 0.44134 0.0452 0.0
C1422 C 0.3912 0.46262 0.06134 0.0
C1423 C 0.41084 0.46032 0.07737 0.0
H1424 H 0.7971 0.20249 0.37094 0.0
H1425 H 0.83122 0.25778 0.32676 0.0
H1426 H 0.84729 0.22655 0.29943 0.0
H1427 H 0.84541 0.18459 0.28431 0.0
H1428 H 0.80815 0.12974 0.32645 0.0
H1429 H 0.80006 0.15949 0.35859 0.0
C1430 C 0.80858 0.2076 0.35569 0.0
C1431 C 0.81272 0.23235 0.35065 0.0
C1432 C 0.81701 0.1896 0.33953 0.0
C1433 C 0.82758 0.23881 0.33082 0.0
C1434 C 0.83672 0.22097 0.31516 0.0
C1435 C 0.83617 0.17899 0.30086 0.0
C1436 C 0.82714 0.15513 0.30291 0.0
C1437 C 0.83065 0.19643 0.31874 0.0
C1438 C 0.81511 0.1481 0.3244 0.0
C1439 C 0.81035 0.16514 0.34271 0.0
H1440 H 0.01388 0.55935 0.58524 0.0
H1441 H 0.05057 0.49846 0.61877 0.0
H1442 H 0.08494 0.50343 0.59084 0.0
H1443 H 0.10181 0.52167 0.55374 0.0
H1444 H 0.06448 0.58177 0.51947 0.0
H1445 H 0.03328 0.58087 0.55123 0.0
C1446 C 0.02956 0.54738 0.58664 0.0
C1447 C 0.02958 0.52831 0.60371 0.0
C1448 C 0.04905 0.55017 0.57038 0.0
C1449 C 0.0501 0.51315 0.60562 0.0
C1450 C 0.0697 0.51594 0.58962 0.0
C1451 C 0.0871 0.53489 0.55349 0.0
C1452 C 0.08521 0.55153 0.53413 0.0
C1453 C 0.06899 0.53389 0.57146 0.0
C1454 C 0.06623 0.5687 0.53413 0.0
C1455 C 0.04831 0.56808 0.55219 0.0
H1456 H 0.68481 0.23784 0.67188 0.0
H1457 H 0.74263 0.20637 0.62881 0.0
H1458 H 0.73967 0.16848 0.65201 0.0
H1459 H 0.72409 0.14642 0.6877 0.0
H1460 H 0.66703 0.17853 0.73137 0.0
H1461 H 0.66596 0.21391 0.7045 0.0
C1462 C 0.69652 0.22255 0.66735 0.0
C1463 C 0.71415 0.22496 0.64894 0.0
C1464 C 0.69493 0.20101 0.68094 0.0
C1465 C 0.72901 0.20496 0.64302 0.0
C1466 C 0.72738 0.18334 0.65633 0.0
C1467 C 0.71111 0.16096 0.69106 0.0
C1468 C 0.6959 0.16005 0.71165 0.0
C1469 C 0.71092 0.18146 0.67581 0.0
C1470 C 0.67906 0.17891 0.71572 0.0
C1471 C 0.67851 0.19919 0.70043 0.0
H1472 H 0.08088 0.45499 0.9448 0.0
H1473 H 0.04105 0.40091 0.98569 0.0
H1474 H 0.00674 0.40453 0.95763 0.0
H1475 H 0.98598 0.42751 0.9255 0.0
H1476 H 0.02523 0.48249 0.88533 0.0
H1477 H 0.062 0.47393 0.90899 0.0
C1478 C 0.0649 0.4436 0.94725 0.0
C1479 C 0.0633 0.42801 0.96749 0.0
C1480 C 0.04504 0.44622 0.93142 0.0
C1481 C 0.04262 0.41319 0.97034 0.0
C1482 C 0.02294 0.41536 0.9544 0.0
C1483 C 0.0027 0.43736 0.92169 0.0
C1484 C 0.00286 0.4559 0.90407 0.0
C1485 C 0.02359 0.43255 0.93552 0.0
C1486 C 0.02467 0.46826 0.89897 0.0
C1487 C 0.04565 0.46343 0.91254 0.0
H1488 H 0.77083 0.85068 0.18963 0.0
H1489 H 0.82998 0.81383 0.22606 0.0
H1490 H 0.8297 0.782 0.19504 0.0
H1491 H 0.80998 0.76253 0.16026 0.0
H1492 H 0.75031 0.7984 0.12386 0.0
H1493 H 0.75362 0.83293 0.15203 0.0
C1494 C 0.7839 0.83589 0.19053 0.0
C1495 C 0.80024 0.83446 0.21023 0.0
C1496 C 0.78341 0.81741 0.17279 0.0
C1497 C 0.81713 0.81525 0.21116 0.0
C1498 C 0.81694 0.797 0.19347 0.0
C1499 C 0.79787 0.77804 0.15831 0.0
C1500 C 0.77974 0.77785 0.14025 0.0
C1501 C 0.79973 0.79756 0.17464 0.0
C1502 C 0.76438 0.79815 0.1377 0.0
C1503 C 0.7662 0.81781 0.15386 0.0
H1504 H 0.41701 0.56645 0.46336 0.0
H1505 H 0.36948 0.50979 0.43662 0.0
H1506 H 0.39497 0.50498 0.40048 0.0
H1507 H 0.43351 0.5131 0.37931 0.0
H1508 H 0.48225 0.56812 0.40728 0.0
H1509 H 0.45344 0.57756 0.43986 0.0
C1510 C 0.41198 0.55342 0.44936 0.0
C1511 C 0.39158 0.53833 0.45273 0.0
C1512 C 0.42708 0.55027 0.42895 0.0
C1513 C 0.38525 0.52148 0.4345 0.0
C1514 C 0.39984 0.51867 0.41386 0.0
C1515 C 0.43759 0.52748 0.39226 0.0
C1516 C 0.46004 0.5397 0.39108 0.0
C1517 C 0.42124 0.53238 0.41131 0.0
C1518 C 0.46513 0.5583 0.40795 0.0
C1519 C 0.4487 0.56368 0.42663 0.0
H1520 H 0.8 0.71048 0.84315 0.0
H1521 H 0.7631 0.65408 0.80258 0.0
H1522 H 0.79368 0.65694 0.77035 0.0
H1523 H 0.82755 0.67919 0.75147 0.0
H1524 H 0.86391 0.73626 0.79152 0.0
H1525 H 0.83698 0.72929 0.82634 0.0
C1526 C 0.79892 0.69848 0.82748 0.0
C1527 C 0.77916 0.68232 0.82507 0.0
C1528 C 0.81627 0.70057 0.80882 0.0
C1529 C 0.77808 0.66675 0.80478 0.0
C1530 C 0.79547 0.66848 0.78628 0.0
C1531 C 0.82978 0.68988 0.76795 0.0
C1532 C 0.8474 0.70846 0.76884 0.0
C1533 C 0.81411 0.68593 0.78773 0.0
C1534 C 0.85036 0.72195 0.79038 0.0
C1535 C 0.83492 0.71802 0.81025 0.0
H1536 H 0.53998 0.53576 0.10242 0.0
H1537 H 0.58201 0.49141 0.05281 0.0
H1538 H 0.5833 0.5249 0.0236 0.0
H1539 H 0.56757 0.5644 0.00996 0.0
H1540 H 0.52491 0.60861 0.05906 0.0
H1541 H 0.52904 0.57766 0.09085 0.0
C1542 C 0.54984 0.5336 0.08542 0.0
C1543 C 0.56056 0.51104 0.0796 0.0
C1544 C 0.55016 0.55279 0.06854 0.0
C1545 C 0.57347 0.50856 0.05764 0.0
C1546 C 0.57411 0.52765 0.04087 0.0
C1547 C 0.55953 0.56743 0.02777 0.0
C1548 C 0.54564 0.58851 0.0321 0.0
C1549 C 0.56174 0.54948 0.04577 0.0
C1550 C 0.5356 0.59244 0.0553 0.0
C1551 C 0.53785 0.5747 0.07342 0.0
H1552 H 0.64733 0.24338 0.28487 0.0
H1553 H 0.65771 0.3149 0.25401 0.0
H1554 H 0.68435 0.32603 0.28797 0.0
H1555 H 0.70881 0.31334 0.32345 0.0
H1556 H 0.69912 0.24107 0.3529 0.0
H1557 H 0.66795 0.2324 0.32258 0.0
C1558 C 0.65509 0.26155 0.28579 0.0
C1559 C 0.6509 0.27818 0.26688 0.0
C1560 C 0.67072 0.26759 0.30498 0.0
C1561 C 0.66081 0.30174 0.26837 0.0
C1562 C 0.67614 0.30807 0.28769 0.0
C1563 C 0.69955 0.29588 0.32344 0.0
C1564 C 0.70647 0.27775 0.34009 0.0
C1565 C 0.68188 0.29083 0.30564 0.0
C1566 C 0.69429 0.25522 0.34004 0.0
C1567 C 0.67647 0.25022 0.32271 0.0
H1568 H 0.95744 0.43312 0.60195 0.0
H1569 H 0.91857 0.49265 0.56843 0.0
H1570 H 0.913 0.46843 0.53146 0.0
H1571 H 0.9235 0.43229 0.50717 0.0
H1572 H 0.96306 0.37313 0.54055 0.0
H1573 H 0.96387 0.3952 0.57919 0.0
C1574 C 0.94738 0.44064 0.5867 0.0
C1575 C 0.93869 0.46471 0.58777 0.0
C1576 C 0.94461 0.42678 0.56542 0.0
C1577 C 0.92551 0.47417 0.56799 0.0
C1578 C 0.92245 0.46039 0.54681 0.0
C1579 C 0.932 0.4241 0.523 0.0
C1580 C 0.9435 0.40129 0.52097 0.0
C1581 C 0.9326 0.43698 0.54507 0.0
C1582 C 0.95422 0.39075 0.54165 0.0
C1583 C 0.95475 0.40338 0.56372 0.0
H1584 H 0.81702 0.32328 0.75311 0.0
H1585 H 0.86209 0.26579 0.72377 0.0
H1586 H 0.84115 0.26883 0.68474 0.0
H1587 H 0.80724 0.28444 0.6607 0.0
H1588 H 0.76064 0.34051 0.69026 0.0
H1589 H 0.78535 0.34182 0.72733 0.0
C1590 C 0.82244 0.31166 0.73805 0.0
C1591 C 0.8408 0.29412 0.74136 0.0
C1592 C 0.81005 0.31323 0.71577 0.0
C1593 C 0.8478 0.27926 0.72171 0.0
C1594 C 0.83586 0.28099 0.6994 0.0
C1595 C 0.80272 0.29726 0.67508 0.0
C1596 C 0.78203 0.31214 0.67294 0.0
C1597 C 0.81653 0.29741 0.69648 0.0
C1598 C 0.77647 0.32879 0.69158 0.0
C1599 C 0.79049 0.32943 0.71282 0.0
H1600 H 0.91572 0.53112 0.94463 0.0
H1601 H 0.95966 0.56489 0.88889 0.0
H1602 H 0.97029 0.5979 0.91681 0.0
H1603 H 0.97092 0.61448 0.95851 0.0
H1604 H 0.92786 0.57971 0.01437 0.0
H1605 H 0.91299 0.54996 0.98496 0.0
C1606 C 0.92725 0.54595 0.93846 0.0
C1607 C 0.93708 0.54545 0.91485 0.0
C1608 C 0.9337 0.56457 0.95474 0.0
C1609 C 0.95194 0.56481 0.90705 0.0
C1610 C 0.95814 0.58363 0.92304 0.0
C1611 C 0.95801 0.6006 0.96412 0.0
C1612 C 0.95076 0.59911 0.98861 0.0
C1613 C 0.94974 0.58329 0.94716 0.0
C1614 C 0.93392 0.58111 0.99564 0.0
C1615 C 0.9254 0.56406 0.97885 0.0
H1616 H 0.64126 0.71067 0.20246 0.0
H1617 H 0.69507 0.6842 0.25327 0.0
H1618 H 0.72332 0.67634 0.21978 0.0
H1619 H 0.7342 0.68122 0.17677 0.0
H1620 H 0.68118 0.70983 0.12632 0.0
H1621 H 0.65091 0.71211 0.15889 0.0
C1622 C 0.65907 0.70294 0.20616 0.0
C1623 C 0.66622 0.69831 0.23026 0.0
C1624 C 0.67532 0.69882 0.18689 0.0
C1625 C 0.68926 0.68812 0.23483 0.0
C1626 C 0.7054 0.68361 0.21571 0.0
C1627 C 0.71585 0.68743 0.17281 0.0
C1628 C 0.70992 0.6955 0.14929 0.0
C1629 C 0.69884 0.68946 0.19175 0.0
C1630 C 0.68615 0.70362 0.14437 0.0
C1631 C 0.6689 0.70506 0.16299 0.0
H1632 H 0.50759 0.43576 0.39128 0.0
H1633 H 0.56934 0.48023 0.41119 0.0
H1634 H 0.57593 0.45525 0.44742 0.0
H1635 H 0.56153 0.42351 0.47541 0.0
H1636 H 0.49949 0.37936 0.45569 0.0
H1637 H 0.4957 0.40143 0.41725 0.0
C1638 C 0.52271 0.43976 0.40336 0.0
C1639 C 0.5378 0.45994 0.39876 0.0
C1640 C 0.52618 0.42555 0.42426 0.0
C1641 C 0.55743 0.46483 0.41443 0.0
C1642 C 0.56113 0.45064 0.43519 0.0
C1643 C 0.54735 0.41855 0.46256 0.0
C1644 C 0.53062 0.40008 0.46845 0.0
C1645 C 0.54521 0.43139 0.44061 0.0
C1646 C 0.51251 0.39362 0.45158 0.0
C1647 C 0.5103 0.40626 0.42964 0.0
H1648 H 0.74893 0.81572 0.67818 0.0
H1649 H 0.78385 0.86706 0.7265 0.0
H1650 H 0.82204 0.84441 0.72334 0.0
H1651 H 0.84414 0.80795 0.71019 0.0
H1652 H 0.80911 0.75591 0.66274 0.0
H1653 H 0.7724 0.78119 0.66184 0.0
C1654 C 0.76498 0.82209 0.6878 0.0
C1655 C 0.76353 0.84284 0.7028 0.0
C1656 C 0.7868 0.80886 0.68608 0.0
C1657 C 0.78449 0.85104 0.71497 0.0
C1658 C 0.80631 0.83809 0.7132 0.0
C1659 C 0.82861 0.80232 0.69933 0.0
C1660 C 0.8292 0.78 0.68676 0.0
C1661 C 0.80748 0.81667 0.69929 0.0
C1662 C 0.80905 0.77301 0.67263 0.0
C1663 C 0.78801 0.78738 0.67223 0.0
H1664 H 0.2861 0.635 0.26531 0.0
H1665 H 0.23749 0.681 0.30672 0.0
H1666 H 0.27027 0.71017 0.31357 0.0
H1667 H 0.31141 0.72453 0.30449 0.0
H1668 H 0.35982 0.67972 0.26163 0.0
H1669 H 0.32859 0.64807 0.25887 0.0
C1670 C 0.28285 0.65124 0.27613 0.0
C1671 C 0.25943 0.656 0.2853 0.0
C1672 C 0.30167 0.66823 0.2796 0.0
C1673 C 0.25536 0.67709 0.29927 0.0
C1674 C 0.27407 0.69379 0.3032 0.0
C1675 C 0.31524 0.7077 0.29483 0.0
C1676 C 0.33774 0.70452 0.28311 0.0
C1677 C 0.29709 0.68985 0.29292 0.0
C1678 C 0.34253 0.68261 0.27072 0.0
C1679 C 0.32467 0.66454 0.26907 0.0
H1680 H 0.56353 0.10641 0.51818 0.0
H1681 H 0.51549 0.06887 0.56781 0.0
H1682 H 0.54498 0.03562 0.57144 0.0
H1683 H 0.5818 0.01505 0.55625 0.0
H1684 H 0.62907 0.05229 0.50561 0.0
H1685 H 0.60261 0.08805 0.50689 0.0
C1686 C 0.55968 0.09112 0.5301 0.0
C1687 C 0.53726 0.08986 0.54243 0.0
C1688 C 0.57648 0.07198 0.53176 0.0
C1689 C 0.5326 0.07015 0.55804 0.0
C1690 C 0.5494 0.0511 0.56002 0.0
C1691 C 0.58653 0.03116 0.54583 0.0
C1692 C 0.60714 0.03094 0.53058 0.0
C1693 C 0.57101 0.05147 0.54632 0.0
C1694 C 0.61319 0.05197 0.51735 0.0
C1695 C 0.59802 0.07238 0.518 0.0
H1696 H 0.23214 0.31931 0.81105 0.0
H1697 H 0.1945 0.37401 0.769 0.0
H1698 H 0.15745 0.34927 0.76955 0.0
H1699 H 0.1373 0.3104 0.77838 0.0
H1700 H 0.1751 0.25539 0.81988 0.0
H1701 H 0.21053 0.28219 0.82352 0.0
C1702 C 0.21574 0.32593 0.80224 0.0
C1703 C 0.21609 0.34826 0.78971 0.0
C1704 C 0.19462 0.31156 0.80249 0.0
C1705 C 0.19468 0.3568 0.77864 0.0
C1706 C 0.17353 0.34264 0.7789 0.0
C1707 C 0.15316 0.30442 0.78853 0.0
C1708 C 0.15375 0.28088 0.7986 0.0
C1709 C 0.17351 0.31974 0.79023 0.0
C1710 C 0.17428 0.27343 0.81191 0.0
C1711 C 0.19457 0.28868 0.81387 0.0
H1712 H 0.39117 0.45252 0.54336 0.0
H1713 H 0.43944 0.51396 0.55247 0.0
H1714 H 0.47317 0.48659 0.56164 0.0
H1715 H 0.48999 0.44534 0.56238 0.0
H1716 H 0.44249 0.38368 0.55121 0.0
H1717 H 0.40738 0.41092 0.54808 0.0
C1718 C 0.40899 0.45988 0.5477 0.0
C1719 C 0.41289 0.48517 0.54692 0.0
C1720 C 0.42848 0.44399 0.55254 0.0
C1721 C 0.43604 0.49451 0.55267 0.0
C1722 C 0.45536 0.47889 0.55794 0.0
C1723 C 0.47188 0.43783 0.55978 0.0
C1724 C 0.46885 0.4126 0.55681 0.0
C1725 C 0.45194 0.4536 0.55725 0.0
C1726 C 0.44529 0.4031 0.55344 0.0
C1727 C 0.42523 0.41866 0.5515 0.0
H1728 H 0.70445 0.22578 0.18842 0.0
H1729 H 0.65255 0.16797 0.20036 0.0
H1730 H 0.68577 0.13998 0.21055 0.0
H1731 H 0.72935 0.13313 0.21958 0.0
H1732 H 0.78042 0.19217 0.20972 0.0
H1733 H 0.74772 0.21853 0.19543 0.0
C1734 C 0.70042 0.20692 0.19277 0.0
C1735 C 0.67611 0.19893 0.19362 0.0
C1736 C 0.71945 0.19128 0.19945 0.0
C1737 C 0.67116 0.17451 0.19952 0.0
C1738 C 0.69012 0.15857 0.20553 0.0
C1739 C 0.73328 0.15174 0.21422 0.0
C1740 C 0.75722 0.16075 0.21593 0.0
C1741 C 0.71429 0.16695 0.20621 0.0
C1742 C 0.7621 0.18485 0.2088 0.0
C1743 C 0.74344 0.19993 0.20053 0.0
H1744 H 0.58352 0.98441 0.9279 0.0
H1745 H 0.62009 0.95049 0.98862 0.0
H1746 H 0.59504 0.91406 0.98371 0.0
H1747 H 0.55953 0.89415 0.96551 0.0
H1748 H 0.52208 0.92833 0.9055 0.0
H1749 H 0.55107 0.96217 0.90641 0.0
C1750 C 0.58623 0.9689 0.93982 0.0
C1751 C 0.60333 0.97024 0.95883 0.0
C1752 C 0.57158 0.94812 0.93706 0.0
C1753 C 0.60688 0.94995 0.97398 0.0
C1754 C 0.59254 0.92913 0.97121 0.0
C1755 C 0.558 0.90877 0.95232 0.0
C1756 C 0.53855 0.90895 0.93569 0.0
C1757 C 0.57436 0.92835 0.9533 0.0
C1758 C 0.53688 0.92786 0.91855 0.0
C1759 C 0.55334 0.94728 0.91918 0.0
H1760 H 0.98046 0.06305 0.42136 0.0
H1761 H 0.92489 0.11077 0.44988 0.0
H1762 H 0.89628 0.07671 0.45215 0.0
H1763 H 0.88922 0.03265 0.45176 0.0
H1764 H 0.946 0.98431 0.4267 0.0
H1765 H 0.97196 0.01923 0.41723 0.0
C1766 C 0.96185 0.06605 0.42736 0.0
C1767 C 0.95469 0.08926 0.43545 0.0
C1768 C 0.94591 0.04618 0.42971 0.0
C1769 C 0.93071 0.09297 0.44358 0.0
C1770 C 0.91443 0.0735 0.44504 0.0
C1771 C 0.90713 0.02979 0.44387 0.0
C1772 C 0.91582 0.00599 0.44021 0.0
C1773 C 0.92216 0.04988 0.43909 0.0
C1774 C 0.93902 0.0025 0.42991 0.0
C1775 C 0.95387 0.02245 0.42449 0.0
H1776 H 0.08319 0.13176 0.40397 0.0
H1777 H 0.06823 0.19898 0.44198 0.0
H1778 H 0.10757 0.21534 0.42946 0.0
H1779 H 0.14706 0.2096 0.41052 0.0
H1780 H 0.16436 0.14179 0.37463 0.0
H1781 H 0.12326 0.12649 0.38348 0.0
C1782 C 0.08852 0.1501 0.4091 0.0
C1783 C 0.07301 0.16423 0.4238 0.0
C1784 C 0.11159 0.15912 0.40249 0.0
C1785 C 0.08003 0.18782 0.43072 0.0
C1786 C 0.10249 0.19716 0.42362 0.0
C1787 C 0.14185 0.19151 0.40445 0.0
C1788 C 0.15869 0.17679 0.39205 0.0
C1789 C 0.11857 0.18279 0.40998 0.0
C1790 C 0.15167 0.15341 0.38433 0.0
C1791 C 0.1282 0.14468 0.38937 0.0
H1792 H 0.11841 0.9263 0.63515 0.0
H1793 H 0.06495 0.89557 0.58638 0.0
H1794 H 0.07913 0.85459 0.59609 0.0
H1795 H 0.10019 0.82791 0.62515 0.0
H1796 H 0.15186 0.85889 0.67567 0.0
H1797 H 0.14526 0.89922 0.65829 0.0
C1798 C 0.1104 0.91067 0.62606 0.0
C1799 C 0.09027 0.91388 0.61059 0.0
C1800 C 0.11802 0.88714 0.63241 0.0
C1801 C 0.08026 0.89353 0.59867 0.0
C1802 C 0.08823 0.87006 0.60434 0.0
C1803 C 0.1105 0.84338 0.63188 0.0
C1804 C 0.12597 0.84059 0.65205 0.0
C1805 C 0.10608 0.86665 0.62227 0.0
C1806 C 0.1395 0.86069 0.6604 0.0
C1807 C 0.13568 0.88378 0.65053 0.0
H1808 H 0.40225 0.8876 0.90989 0.0
H1809 H 0.43975 0.8236 0.88366 0.0
H1810 H 0.40189 0.80838 0.86591 0.0
H1811 H 0.35723 0.81008 0.86425 0.0
H1812 H 0.31948 0.8738 0.8906 0.0
H1813 H 0.35844 0.89255 0.90176 0.0
C1814 C 0.40222 0.87062 0.89975 0.0
C1815 C 0.42356 0.85648 0.89845 0.0
C1816 C 0.38033 0.8618 0.89 0.0
C1817 C 0.42348 0.83471 0.885 0.0
C1818 C 0.4018 0.8259 0.87503 0.0
C1819 C 0.35763 0.82826 0.87203 0.0
C1820 C 0.33569 0.84042 0.87712 0.0
C1821 C 0.37997 0.83877 0.87845 0.0
C1822 C 0.33625 0.86411 0.88672 0.0
C1823 C 0.35848 0.87475 0.89318 0.0
H1824 H 0.37169 0.12665 0.19114 0.0
H1825 H 0.40619 0.17003 0.1355 0.0
H1826 H 0.42244 0.13318 0.11637 0.0
H1827 H 0.43224 0.08951 0.11976 0.0
H1828 H 0.39666 0.04599 0.17459 0.0
H1829 H 0.37502 0.08196 0.18962 0.0
C1830 C 0.38224 0.1279 0.17446 0.0
C1831 C 0.38813 0.15084 0.16488 0.0
C1832 C 0.39151 0.1067 0.16365 0.0
C1833 C 0.4015 0.15244 0.14314 0.0
C1834 C 0.41096 0.13142 0.13234 0.0
C1835 C 0.4193 0.0879 0.13463 0.0
C1836 C 0.41628 0.06542 0.1464 0.0
C1837 C 0.40693 0.10859 0.14307 0.0
C1838 C 0.39927 0.06324 0.16537 0.0
C1839 C 0.38703 0.0838 0.17405 0.0
H1840 H 0.17581 0.86014 0.09737 0.0
H1841 H 0.14474 0.79604 0.1305 0.0
H1842 H 0.10382 0.81268 0.12551 0.0
H1843 H 0.07691 0.84218 0.10601 0.0
H1844 H 0.10753 0.90409 0.06862 0.0
H1845 H 0.14849 0.89206 0.08146 0.0
C1846 C 0.16005 0.85015 0.10394 0.0
C1847 C 0.1631 0.82687 0.11401 0.0
C1848 C 0.1365 0.85941 0.10011 0.0
C1849 C 0.14268 0.81391 0.12239 0.0
C1850 C 0.11931 0.82341 0.11957 0.0
C1851 C 0.09249 0.85341 0.10129 0.0
C1852 C 0.08935 0.87385 0.08631 0.0
C1853 C 0.11597 0.84569 0.10762 0.0
C1854 C 0.10964 0.88817 0.08009 0.0
C1855 C 0.13304 0.88122 0.08728 0.0
H1856 H 0.38399 0.90496 0.34997 0.0
H1857 H 0.44501 0.87297 0.3877 0.0
H1858 H 0.43227 0.83237 0.37474 0.0
H1859 H 0.40818 0.80719 0.3472 0.0
H1860 H 0.34948 0.83936 0.30606 0.0
H1861 H 0.3565 0.87854 0.32617 0.0
C1862 C 0.39403 0.88899 0.35587 0.0
C1863 C 0.41547 0.89181 0.36954 0.0
C1864 C 0.38718 0.8658 0.34748 0.0
C1865 C 0.42854 0.87112 0.37697 0.0
C1866 C 0.42132 0.84795 0.36952 0.0
C1867 C 0.39653 0.82262 0.34306 0.0
C1868 C 0.3786 0.82054 0.32495 0.0
C1869 C 0.40132 0.84521 0.35391 0.0
C1870 C 0.36357 0.84062 0.31982 0.0
C1871 C 0.36766 0.86304 0.33121 0.0
H1872 H 0.41051 0.12889 0.57712 0.0
H1873 H 0.42295 0.19676 0.53942 0.0
H1874 H 0.38681 0.21433 0.55817 0.0
H1875 H 0.3511 0.21015 0.58352 0.0
H1876 H 0.3355 0.14204 0.61943 0.0
H1877 H 0.37356 0.12472 0.60322 0.0
C1878 C 0.40527 0.14754 0.57323 0.0
C1879 C 0.41923 0.16155 0.55692 0.0
C1880 C 0.38399 0.1574 0.58364 0.0
C1881 C 0.41232 0.18562 0.55177 0.0
C1882 C 0.39172 0.1957 0.56251 0.0
C1883 C 0.35604 0.19155 0.58803 0.0
C1884 C 0.34062 0.1774 0.60271 0.0
C1885 C 0.37733 0.18169 0.57821 0.0
C1886 C 0.34717 0.15328 0.60816 0.0
C1887 C 0.36887 0.1434 0.59888 0.0
H1888 H 0.11015 0.15495 0.82335 0.0
H1889 H 0.05045 0.16093 0.77249 0.0
H1890 H 0.03535 0.12113 0.78484 0.0
H1891 H 0.03849 0.08513 0.81041 0.0
H1892 H 0.09842 0.07769 0.86065 0.0
H1893 H 0.11419 0.11758 0.84814 0.0
C1894 C 0.09388 0.14746 0.815 0.0
C1895 C 0.08137 0.16084 0.79714 0.0
C1896 C 0.08536 0.12439 0.82204 0.0
C1897 C 0.06041 0.15094 0.78628 0.0
C1898 C 0.05172 0.12821 0.79334 0.0
C1899 C 0.05502 0.09222 0.81863 0.0
C1900 C 0.06721 0.07869 0.8365 0.0
C1901 C 0.06397 0.11488 0.81125 0.0
C1902 C 0.08874 0.0879 0.84683 0.0
C1903 C 0.09771 0.11067 0.83973 0.0
H1904 H 0.1398 0.3896 0.17457 0.0
H1905 H 0.20398 0.36309 0.13768 0.0
H1906 H 0.18375 0.36759 0.09835 0.0
H1907 H 0.1502 0.38439 0.07442 0.0
H1908 H 0.08812 0.41582 0.11093 0.0
H1909 H 0.10468 0.40353 0.15045 0.0
C1910 C 0.14912 0.38445 0.1579 0.0
C1911 C 0.17333 0.3763 0.15884 0.0
C1912 C 0.13771 0.38798 0.13533 0.0
C1913 C 0.18539 0.36973 0.13724 0.0
C1914 C 0.17384 0.37223 0.1148 0.0
C1915 C 0.13999 0.38785 0.09101 0.0
C1916 C 0.11805 0.40087 0.08996 0.0
C1917 C 0.15031 0.38207 0.11359 0.0
C1918 C 0.1051 0.40574 0.11148 0.0
C1919 C 0.11464 0.3989 0.13402 0.0
H1920 H 0.69241 0.12089 0.85289 0.0
H1921 H 0.64227 0.07816 0.81008 0.0
H1922 H 0.62213 0.06396 0.84727 0.0
H1923 H 0.62245 0.05981 0.89192 0.0
H1924 H 0.67177 0.10371 0.9346 0.0
H1925 H 0.68833 0.12179 0.89746 0.0
C1926 C 0.67681 0.10877 0.85178 0.0
C1927 C 0.66899 0.10019 0.829 0.0
C1928 C 0.6653 0.10088 0.87313 0.0
C1929 C 0.64857 0.08488 0.82754 0.0
C1930 C 0.63716 0.07668 0.84876 0.0
C1931 C 0.63648 0.0737 0.89304 0.0
C1932 C 0.64618 0.0802 0.91581 0.0
C1933 C 0.64589 0.08398 0.87165 0.0
C1934 C 0.66409 0.09842 0.9172 0.0
C1935 C 0.67368 0.10862 0.89599 0.0
H1936 H 0.81178 0.86103 0.35509 0.0
H1937 H 0.86808 0.89295 0.31049 0.0
H1938 H 0.89221 0.90192 0.34684 0.0
H1939 H 0.89351 0.90714 0.39122 0.0
H1940 H 0.8365 0.87628 0.43573 0.0
H1941 H 0.8168 0.85967 0.39949 0.0
C1942 C 0.82955 0.86953 0.35334 0.0
C1943 C 0.83796 0.87687 0.33032 0.0
C1944 C 0.84313 0.87484 0.37428 0.0
C1945 C 0.86117 0.88739 0.32812 0.0
C1946 C 0.87491 0.89258 0.34888 0.0
C1947 C 0.87715 0.89617 0.39303 0.0
C1948 C 0.86615 0.89338 0.41599 0.0
C1949 C 0.86556 0.88733 0.37208 0.0
C1950 C 0.84519 0.87885 0.4182 0.0
C1951 C 0.83378 0.86956 0.39746 0.0
H1952 H 0.81804 0.12615 0.15297 0.0
H1953 H 0.88688 0.10621 0.18508 0.0
H1954 H 0.90304 0.09601 0.1446 0.0
H1955 H 0.89474 0.08629 0.10118 0.0
H1956 H 0.82414 0.10295 0.07108 0.0
H1957 H 0.81153 0.12139 0.10954 0.0
C1958 C 0.83674 0.11995 0.15108 0.0
C1959 C 0.85114 0.11645 0.17188 0.0
C1960 C 0.84547 0.11347 0.12807 0.0
C1961 C 0.87544 0.10887 0.16924 0.0
C1962 C 0.88459 0.10292 0.14614 0.0
C1963 C 0.87693 0.0947 0.10297 0.0
C1964 C 0.86029 0.09341 0.08358 0.0
C1965 C 0.86942 0.10422 0.12556 0.0
C1966 C 0.83711 0.10386 0.08594 0.0
C1967 C 0.82988 0.11424 0.10791 0.0
H1968 H 0.37311 0.55837 0.60454 0.0
H1969 H 0.33051 0.60616 0.55911 0.0
H1970 H 0.3158 0.6279 0.59522 0.0
H1971 H 0.31045 0.62891 0.63974 0.0
H1972 H 0.35418 0.58217 0.68516 0.0
H1973 H 0.37353 0.56456 0.64898 0.0
C1974 C 0.36104 0.57391 0.6026 0.0
C1975 C 0.35253 0.58052 0.57942 0.0
C1976 C 0.35278 0.58629 0.62337 0.0
C1977 C 0.33721 0.60082 0.57688 0.0
C1978 C 0.32868 0.6131 0.5975 0.0
C1979 C 0.32463 0.61527 0.64164 0.0
C1980 C 0.33072 0.60649 0.66486 0.0
C1981 C 0.33564 0.60536 0.62083 0.0
C1982 C 0.34928 0.5891 0.66736 0.0
C1983 C 0.36018 0.57894 0.6467 0.0
H1984 H 0.13649 0.58418 0.31697 0.0
H1985 H 0.18227 0.63997 0.34784 0.0
H1986 H 0.16664 0.6309 0.3886 0.0
H1987 H 0.14525 0.60252 0.41582 0.0
H1988 H 0.10464 0.54273 0.38514 0.0
H1989 H 0.11249 0.55788 0.344 0.0
C1990 C 0.14238 0.59477 0.3326 0.0
C1991 C 0.16028 0.61272 0.32969 0.0
C1992 C 0.13447 0.58841 0.35603 0.0
C1993 C 0.16838 0.62608 0.34992 0.0
C1994 C 0.15957 0.62081 0.37316 0.0
C1995 C 0.13766 0.59328 0.40008 0.0
C1996 C 0.12448 0.57164 0.40323 0.0
C1997 C 0.1434 0.60133 0.37654 0.0
C1998 C 0.11496 0.55941 0.3829 0.0
C1999 C 0.11948 0.56803 0.35945 0.0
H2000 H 0.32191 0.41033 0.93236 0.0
H2001 H 0.36253 0.46867 0.89896 0.0
H2002 H 0.35759 0.44968 0.85895 0.0
H2003 H 0.33744 0.41929 0.83308 0.0
H2004 H 0.29193 0.3644 0.86588 0.0
H2005 H 0.30336 0.37873 0.90658 0.0
C2006 C 0.32999 0.41858 0.91633 0.0
C2007 C 0.34247 0.4408 0.9184 0.0
C2008 C 0.32615 0.40814 0.89333 0.0
C2009 C 0.35268 0.45161 0.89761 0.0
C2010 C 0.34989 0.44076 0.8748 0.0
C2011 C 0.33064 0.4101 0.84921 0.0
C2012 C 0.31416 0.39075 0.84676 0.0
C2013 C 0.3361 0.4194 0.87236 0.0
C2014 C 0.30482 0.37927 0.86758 0.0
C2015 C 0.31121 0.38756 0.89075 0.0
H2016 H 0.59968 0.60965 0.93421 0.0
H2017 H 0.55287 0.65992 0.89603 0.0
H2018 H 0.5869 0.6723 0.87015 0.0
H2019 H 0.63107 0.67358 0.86322 0.0
H2020 H 0.67806 0.62365 0.90152 0.0
H2021 H 0.64275 0.60597 0.92223 0.0
C2022 C 0.59685 0.62294 0.91987 0.0
C2023 C 0.574 0.63424 0.91729 0.0
C2024 C 0.61654 0.63014 0.90527 0.0
C2025 C 0.57037 0.65112 0.89844 0.0
C2026 C 0.58985 0.6583 0.88374 0.0
C2027 C 0.63347 0.65844 0.87569 0.0
C2028 C 0.65704 0.65016 0.88123 0.0
C2029 C 0.61319 0.64866 0.88771 0.0
C2030 C 0.66003 0.63034 0.89709 0.0
C2031 C 0.63988 0.62038 0.90906 0.0
H2032 H 0.58406 0.29526 0.13672 0.0
H2033 H 0.65127 0.32761 0.16155 0.0
H2034 H 0.63922 0.36677 0.14416 0.0
H2035 H 0.60666 0.39308 0.12816 0.0
H2036 H 0.5381 0.36107 0.10676 0.0
H2037 H 0.55362 0.32052 0.11629 0.0
C2038 C 0.59635 0.31072 0.13775 0.0
C2039 C 0.61836 0.30869 0.15061 0.0
C2040 C 0.58885 0.33336 0.12866 0.0
C2041 C 0.63412 0.32883 0.15186 0.0
C2042 C 0.62718 0.35125 0.14205 0.0
C2043 C 0.59535 0.37715 0.1251 0.0
C2044 C 0.57121 0.38 0.11712 0.0
C2045 C 0.60412 0.35397 0.13139 0.0
C2046 C 0.55668 0.35928 0.1132 0.0
C2047 C 0.56552 0.33611 0.11865 0.0
H2048 H 0.83105 0.3416 0.35834 0.0
H2049 H 0.78946 0.36006 0.4225 0.0
H2050 H 0.82453 0.38157 0.43935 0.0
H2051 H 0.86903 0.38613 0.4399 0.0
H2052 H 0.9111 0.3658 0.37666 0.0
H2053 H 0.87381 0.35431 0.35524 0.0
C2054 C 0.82943 0.35104 0.37564 0.0
C2055 C 0.808 0.34867 0.3895 0.0
C2056 C 0.84993 0.36255 0.38561 0.0
C2057 C 0.80591 0.36135 0.41164 0.0
C2058 C 0.82604 0.37344 0.42141 0.0
C2059 C 0.86993 0.37978 0.4212 0.0
C2060 C 0.8927 0.37614 0.41006 0.0
C2061 C 0.84851 0.37274 0.40924 0.0
C2062 C 0.89373 0.36844 0.38569 0.0
C2063 C 0.87243 0.36176 0.37348 0.0
H2064 H 0.93072 0.65776 0.70296 0.0
H2065 H 0.87457 0.66052 0.64808 0.0
H2066 H 0.88668 0.62003 0.63342 0.0
H2067 H 0.9133 0.58373 0.63668 0.0
H2068 H 0.96988 0.58248 0.6913 0.0
H2069 H 0.95744 0.62257 0.70567 0.0
C2070 C 0.92108 0.64953 0.68779 0.0
C2071 C 0.90174 0.66198 0.67667 0.0
C2072 C 0.92821 0.62653 0.67947 0.0
C2073 C 0.88956 0.6512 0.65691 0.0
C2074 C 0.89644 0.62808 0.64858 0.0
C2075 C 0.92282 0.59228 0.65173 0.0
C2076 C 0.94242 0.58019 0.66295 0.0
C2077 C 0.91572 0.61554 0.65979 0.0
C2078 C 0.95476 0.59146 0.68233 0.0
C2079 C 0.94766 0.61437 0.69059 0.0
H2080 H 0.58334 0.35753 0.60557 0.0
H2081 H 0.61565 0.39153 0.54255 0.0
H2082 H 0.65636 0.38165 0.55757 0.0
H2083 H 0.68205 0.35757 0.585 0.0
H2084 H 0.64934 0.32034 0.64597 0.0
H2085 H 0.60959 0.3375 0.63565 0.0
C2086 C 0.59934 0.36331 0.59548 0.0
C2087 C 0.59661 0.37498 0.57292 0.0
C2088 C 0.6226 0.35668 0.60372 0.0
C2089 C 0.6174 0.38232 0.5599 0.0
C2090 C 0.64065 0.3766 0.56842 0.0
C2091 C 0.66631 0.3537 0.59633 0.0
C2092 C 0.66847 0.33752 0.61599 0.0
C2093 C 0.6434 0.36288 0.58976 0.0
C2094 C 0.648 0.33258 0.63056 0.0
C2095 C 0.62528 0.34233 0.62464 0.0
H2096 H 0.84433 0.35993 0.83914 0.0
H2097 H 0.89412 0.32014 0.88511 0.0
H2098 H 0.90593 0.35793 0.90543 0.0
H2099 H 0.90828 0.40248 0.90385 0.0
H2100 H 0.86034 0.44242 0.85612 0.0
H2101 H 0.84108 0.40437 0.84325 0.0
C2102 C 0.85731 0.35947 0.85403 0.0
C2103 C 0.86882 0.33744 0.86023 0.0
C2104 C 0.86449 0.38133 0.86513 0.0
C2105 C 0.88526 0.33695 0.87981 0.0
C2106 C 0.89211 0.35857 0.89135 0.0
C2107 C 0.89314 0.40289 0.89116 0.0
C2108 C 0.8861 0.42507 0.88048 0.0
C2109 C 0.8828 0.38094 0.88323 0.0
C2110 C 0.86621 0.4255 0.86441 0.0
C2111 C 0.85535 0.40373 0.85688 0.0
H2112 H 0.85228 0.71721 0.09081 0.0
H2113 H 0.82571 0.64583 0.11016 0.0
H2114 H 0.86671 0.62887 0.10458 0.0
H2115 H 0.90917 0.63393 0.08974 0.0
H2116 H 0.93388 0.70534 0.06823 0.0
H2117 H 0.89466 0.72288 0.07961 0.0
C2118 C 0.85546 0.69795 0.09399 0.0
C2119 C 0.83602 0.68269 0.10049 0.0
C2120 C 0.87879 0.68841 0.09044 0.0
C2121 C 0.84044 0.65788 0.10492 0.0
C2122 C 0.86384 0.6482 0.10173 0.0
C2123 C 0.90602 0.65339 0.0882 0.0
C2124 C 0.92414 0.66843 0.07821 0.0
C2125 C 0.88305 0.66321 0.09392 0.0
C2126 C 0.92 0.69354 0.07586 0.0
C2127 C 0.89761 0.70353 0.08223 0.0
H2128 H 0.58142 0.64417 0.28111 0.0
H2129 H 0.61471 0.65556 0.35135 0.0
H2130 H 0.59751 0.61687 0.36583 0.0
H2131 H 0.5716 0.58052 0.35856 0.0
H2132 H 0.53665 0.57166 0.2887 0.0
H2133 H 0.55609 0.60872 0.27389 0.0
C2134 C 0.58509 0.63816 0.29957 0.0
C2135 C 0.59934 0.65259 0.31515 0.0
C2136 C 0.5748 0.61641 0.30778 0.0
C2137 C 0.60376 0.64469 0.33905 0.0
C2138 C 0.59394 0.62262 0.3473 0.0
C2139 C 0.56845 0.58671 0.34007 0.0
C2140 C 0.55277 0.57351 0.32469 0.0
C2141 C 0.57924 0.60842 0.33185 0.0
C2142 C 0.54856 0.58168 0.30086 0.0
C2143 C 0.55967 0.60281 0.29238 0.0
H2144 H 0.61589 0.92703 0.58953 0.0
H2145 H 0.67385 0.89237 0.54921 0.0
H2146 H 0.68599 0.86975 0.58554 0.0
H2147 H 0.68429 0.86544 0.63002 0.0
H2148 H 0.62642 0.90012 0.67042 0.0
H2149 H 0.6097 0.91682 0.63268 0.0
C2150 C 0.63083 0.91411 0.58861 0.0
C2151 C 0.6443 0.91167 0.56698 0.0
C2152 C 0.63782 0.9014 0.60959 0.0
C2153 C 0.66334 0.89462 0.56577 0.0
C2154 C 0.67037 0.88182 0.58656 0.0
C2155 C 0.6677 0.8762 0.63044 0.0
C2156 C 0.65682 0.882 0.65286 0.0
C2157 C 0.6584 0.8859 0.60877 0.0
C2158 C 0.63514 0.89557 0.6533 0.0
C2159 C 0.62569 0.90525 0.63177 0.0
loop_
_geom_bond_atom_site_label_1
_geom_bond_atom_site_label_2
_geom_bond_distance
_geom_bond_site_symmetry_2
_ccdc_geom_bond_type
In0 O1 2.294 . S
In0 O2 2.326 . S
In0 O6 2.266 . S
In0 O7 2.326 . S
In0 O8 2.266 . S
In0 O9 2.326 . S
In0 O11 2.294 . S
In0 O12 2.326 . S
O1 In0 2.294 . S
O1 C10 1.240 . S
O2 In0 2.326 . S
O2 C10 1.252 . S
C3 O6 1.252 . S
C3 O7 1.260 . S
C4 O11 1.240 . S
C4 O12 1.252 . S
C5 O8 1.252 . S
C5 O9 1.260 . S
O6 In0 2.266 . S
O6 C3 1.252 . S
O7 In0 2.326 . S
O7 C3 1.260 . S
O8 In0 2.266 . S
O8 C5 1.252 . S
O9 In0 2.326 . S
O9 C5 1.260 . S
C10 O1 1.240 . S
C10 O2 1.252 . S
O11 In0 2.294 . S
O11 C4 1.240 . S
O12 In0 2.326 . S
O12 C4 1.252 . S
In13 O14 2.294 . S
In13 O15 2.326 . S
In13 O19 2.266 . S
In13 O20 2.326 1_565 S
In13 O21 2.266 1_455 S
In13 O22 2.326 . S
In13 O24 2.294 . S
In13 O25 2.326 . S
O14 In13 2.294 . S
O14 C23 1.240 . S
O15 In13 2.326 . S
O15 C23 1.252 . S
C16 O19 1.252 1_545 S
C16 O20 1.260 . S
C17 O24 1.240 . S
C17 O25 1.252 . S
C18 O21 1.252 . S
C18 O22 1.260 1_655 S
O19 In13 2.266 . S
O19 C16 1.252 1_565 S
O20 In13 2.326 1_545 S
O20 C16 1.260 . S
O21 In13 2.266 1_655 S
O21 C18 1.252 . S
O22 In13 2.326 . S
O22 C18 1.260 1_455 S
C23 O14 1.240 . S
C23 O15 1.252 . S
O24 In13 2.294 . S
O24 C17 1.240 . S
O25 In13 2.326 . S
O25 C17 1.252 . S
In26 O27 2.294 . S
In26 O28 2.326 . S
In26 O32 2.266 . S
In26 O33 2.326 . S
In26 O34 2.266 . S
In26 O35 2.326 . S
In26 O37 2.294 . S
In26 O38 2.326 . S
O27 In26 2.294 . S
O27 C36 1.240 . S
O28 In26 2.326 . S
O28 C36 1.252 . S
C29 O32 1.252 . S
C29 O33 1.260 . S
C30 O37 1.240 . S
C30 O38 1.252 . S
C31 O34 1.252 . S
C31 O35 1.260 . S
O32 In26 2.266 . S
O32 C29 1.252 . S
O33 In26 2.326 . S
O33 C29 1.260 . S
O34 In26 2.266 . S
O34 C31 1.252 . S
O35 In26 2.326 . S
O35 C31 1.260 . S
C36 O27 1.240 . S
C36 O28 1.252 . S
O37 In26 2.294 . S
O37 C30 1.240 . S
O38 In26 2.326 . S
O38 C30 1.252 . S
In39 O40 2.294 . S
In39 O41 2.326 . S
In39 O45 2.266 . S
In39 O46 2.326 1_545 S
In39 O47 2.266 . S
In39 O48 2.326 . S
In39 O50 2.294 . S
In39 O51 2.326 . S
O40 In39 2.294 . S
O40 C49 1.240 . S
O41 In39 2.326 . S
O41 C49 1.252 . S
C42 O45 1.252 1_565 S
C42 O46 1.260 . S
C43 O50 1.240 . S
C43 O51 1.252 . S
C44 O47 1.252 . S
C44 O48 1.260 . S
O45 In39 2.266 . S
O45 C42 1.252 1_545 S
O46 In39 2.326 1_565 S
O46 C42 1.260 . S
O47 In39 2.266 . S
O47 C44 1.252 . S
O48 In39 2.326 . S
O48 C44 1.260 . S
C49 O40 1.240 . S
C49 O41 1.252 . S
O50 In39 2.294 . S
O50 C43 1.240 . S
O51 In39 2.326 . S
O51 C43 1.252 . S
In52 O53 2.294 . S
In52 O54 2.326 . S
In52 O58 2.266 . S
In52 O59 2.326 . S
In52 O60 2.266 . S
In52 O61 2.326 . S
In52 O63 2.294 . S
In52 O64 2.326 . S
O53 In52 2.294 . S
O53 C62 1.240 . S
O54 In52 2.326 . S
O54 C62 1.252 . S
C55 O58 1.252 . S
C55 O59 1.260 . S
C56 O63 1.240 . S
C56 O64 1.252 . S
C57 O60 1.252 . S
C57 O61 1.260 . S
O58 In52 2.266 . S
O58 C55 1.252 . S
O59 In52 2.326 . S
O59 C55 1.260 . S
O60 In52 2.266 . S
O60 C57 1.252 . S
O61 In52 2.326 . S
O61 C57 1.260 . S
C62 O53 1.240 . S
C62 O54 1.252 . S
O63 In52 2.294 . S
O63 C56 1.240 . S
O64 In52 2.326 . S
O64 C56 1.252 . S
In65 O66 2.294 . S
In65 O67 2.326 . S
In65 O71 2.266 . S
In65 O72 2.326 1_565 S
In65 O73 2.266 . S
In65 O74 2.326 . S
In65 O76 2.294 . S
In65 O77 2.326 . S
O66 In65 2.294 . S
O66 C75 1.240 . S
O67 In65 2.326 . S
O67 C75 1.252 . S
C68 O71 1.252 1_545 S
C68 O72 1.260 . S
C69 O76 1.240 . S
C69 O77 1.252 . S
C70 O73 1.252 . S
C70 O74 1.260 . S
O71 In65 2.266 . S
O71 C68 1.252 1_565 S
O72 In65 2.326 1_545 S
O72 C68 1.260 . S
O73 In65 2.266 . S
O73 C70 1.252 . S
O74 In65 2.326 . S
O74 C70 1.260 . S
C75 O66 1.240 . S
C75 O67 1.252 . S
O76 In65 2.294 . S
O76 C69 1.240 . S
O77 In65 2.326 . S
O77 C69 1.252 . S
In78 O79 2.294 . S
In78 O80 2.326 . S
In78 O84 2.266 . S
In78 O85 2.326 . S
In78 O86 2.266 . S
In78 O87 2.326 . S
In78 O89 2.294 . S
In78 O90 2.326 . S
O79 In78 2.294 . S
O79 C88 1.240 . S
O80 In78 2.326 . S
O80 C88 1.252 . S
C81 O84 1.252 . S
C81 O85 1.260 . S
C82 O89 1.240 . S
C82 O90 1.252 . S
C83 O86 1.252 . S
C83 O87 1.260 . S
O84 In78 2.266 . S
O84 C81 1.252 . S
O85 In78 2.326 . S
O85 C81 1.260 . S
O86 In78 2.266 . S
O86 C83 1.252 . S
O87 In78 2.326 . S
O87 C83 1.260 . S
C88 O79 1.240 . S
C88 O80 1.252 . S
O89 In78 2.294 . S
O89 C82 1.240 . S
O90 In78 2.326 . S
O90 C82 1.252 . S
In91 O92 2.294 . S
In91 O93 2.326 . S
In91 O97 2.266 1_455 S
In91 O98 2.326 . S
In91 O99 2.266 . S
In91 O100 2.326 1_545 S
In91 O102 2.294 . S
In91 O103 2.326 . S
O92 In91 2.294 . S
O92 C101 1.240 . S
O93 In91 2.326 . S
O93 C101 1.252 . S
C94 O97 1.252 . S
C94 O98 1.260 1_655 S
C95 O102 1.240 . S
C95 O103 1.252 . S
C96 O99 1.252 1_565 S
C96 O100 1.260 . S
O97 In91 2.266 1_655 S
O97 C94 1.252 . S
O98 In91 2.326 . S
O98 C94 1.260 1_455 S
O99 In91 2.266 . S
O99 C96 1.252 1_545 S
O100 In91 2.326 1_565 S
O100 C96 1.260 . S
C101 O92 1.240 . S
C101 O93 1.252 . S
O102 In91 2.294 . S
O102 C95 1.240 . S
O103 In91 2.326 . S
O103 C95 1.252 . S
In104 O105 2.294 . S
In104 O106 2.326 . S
In104 O110 2.266 . S
In104 O111 2.326 . S
In104 O112 2.266 . S
In104 O113 2.326 . S
In104 O115 2.294 . S
In104 O116 2.326 . S
O105 In104 2.294 . S
O105 C114 1.240 . S
O106 In104 2.326 . S
O106 C114 1.252 . S
C107 O110 1.252 . S
C107 O111 1.260 . S
C108 O115 1.240 . S
C108 O116 1.252 . S
C109 O112 1.252 . S
C109 O113 1.260 . S
O110 In104 2.266 . S
O110 C107 1.252 . S
O111 In104 2.326 . S
O111 C107 1.260 . S
O112 In104 2.266 . S
O112 C109 1.252 . S
O113 In104 2.326 . S
O113 C109 1.260 . S
C114 O105 1.240 . S
C114 O106 1.252 . S
O115 In104 2.294 . S
O115 C108 1.240 . S
O116 In104 2.326 . S
O116 C108 1.252 . S
In117 O118 2.294 . S
In117 O119 2.326 . S
In117 O123 2.266 . S
In117 O124 2.326 . S
In117 O125 2.266 . S
In117 O126 2.326 1_455 S
In117 O128 2.294 . S
In117 O129 2.326 . S
O118 In117 2.294 . S
O118 C127 1.240 . S
O119 In117 2.326 . S
O119 C127 1.252 . S
C120 O123 1.252 . S
C120 O124 1.260 . S
C121 O128 1.240 . S
C121 O129 1.252 . S
C122 O125 1.252 1_655 S
C122 O126 1.260 . S
O123 In117 2.266 . S
O123 C120 1.252 . S
O124 In117 2.326 . S
O124 C120 1.260 . S
O125 In117 2.266 . S
O125 C122 1.252 1_455 S
O126 In117 2.326 1_655 S
O126 C122 1.260 . S
C127 O118 1.240 . S
C127 O119 1.252 . S
O128 In117 2.294 . S
O128 C121 1.240 . S
O129 In117 2.326 . S
O129 C121 1.252 . S
In130 O131 2.294 . S
In130 O132 2.326 . S
In130 O136 2.266 . S
In130 O137 2.326 . S
In130 O138 2.266 . S
In130 O139 2.326 . S
In130 O141 2.294 . S
In130 O142 2.326 . S
O131 In130 2.294 . S
O131 C140 1.240 . S
O132 In130 2.326 . S
O132 C140 1.252 . S
C133 O136 1.252 . S
C133 O137 1.260 . S
C134 O141 1.240 . S
C134 O142 1.252 . S
C135 O138 1.252 . S
C135 O139 1.260 . S
O136 In130 2.266 . S
O136 C133 1.252 . S
O137 In130 2.326 . S
O137 C133 1.260 . S
O138 In130 2.266 . S
O138 C135 1.252 . S
O139 In130 2.326 . S
O139 C135 1.260 . S
C140 O131 1.240 . S
C140 O132 1.252 . S
O141 In130 2.294 . S
O141 C134 1.240 . S
O142 In130 2.326 . S
O142 C134 1.252 . S
In143 O144 2.294 . S
In143 O145 2.326 . S
In143 O149 2.266 . S
In143 O150 2.326 . S
In143 O151 2.266 1_556 S
In143 O152 2.326 . S
In143 O154 2.294 . S
In143 O155 2.326 . S
O144 In143 2.294 . S
O144 C153 1.240 . S
O145 In143 2.326 . S
O145 C153 1.252 . S
C146 O149 1.252 . S
C146 O150 1.260 . S
C147 O154 1.240 . S
C147 O155 1.252 . S
C148 O151 1.252 . S
C148 O152 1.260 1_554 S
O149 In143 2.266 . S
O149 C146 1.252 . S
O150 In143 2.326 . S
O150 C146 1.260 . S
O151 In143 2.266 1_554 S
O151 C148 1.252 . S
O152 In143 2.326 . S
O152 C148 1.260 1_556 S
C153 O144 1.240 . S
C153 O145 1.252 . S
O154 In143 2.294 . S
O154 C147 1.240 . S
O155 In143 2.326 . S
O155 C147 1.252 . S
In156 O157 2.294 . S
In156 O158 2.326 . S
In156 O162 2.266 . S
In156 O163 2.326 . S
In156 O164 2.266 . S
In156 O165 2.326 . S
In156 O167 2.294 . S
In156 O168 2.326 . S
O157 In156 2.294 . S
O157 C166 1.240 . S
O158 In156 2.326 . S
O158 C166 1.252 . S
C159 O162 1.252 . S
C159 O163 1.260 . S
C160 O167 1.240 . S
C160 O168 1.252 . S
C161 O164 1.252 . S
C161 O165 1.260 . S
O162 In156 2.266 . S
O162 C159 1.252 . S
O163 In156 2.326 . S
O163 C159 1.260 . S
O164 In156 2.266 . S
O164 C161 1.252 . S
O165 In156 2.326 . S
O165 C161 1.260 . S
C166 O157 1.240 . S
C166 O158 1.252 . S
O167 In156 2.294 . S
O167 C160 1.240 . S
O168 In156 2.326 . S
O168 C160 1.252 . S
In169 O170 2.294 . S
In169 O171 2.326 . S
In169 O175 2.266 . S
In169 O176 2.326 . S
In169 O177 2.266 . S
In169 O178 2.326 . S
In169 O180 2.294 . S
In169 O181 2.326 . S
O170 In169 2.294 . S
O170 C179 1.240 . S
O171 In169 2.326 . S
O171 C179 1.252 . S
C172 O175 1.252 . S
C172 O176 1.260 . S
C173 O180 1.240 . S
C173 O181 1.252 . S
C174 O177 1.252 . S
C174 O178 1.260 . S
O175 In169 2.266 . S
O175 C172 1.252 . S
O176 In169 2.326 . S
O176 C172 1.260 . S
O177 In169 2.266 . S
O177 C174 1.252 . S
O178 In169 2.326 . S
O178 C174 1.260 . S
C179 O170 1.240 . S
C179 O171 1.252 . S
O180 In169 2.294 . S
O180 C173 1.240 . S
O181 In169 2.326 . S
O181 C173 1.252 . S
In182 O183 2.294 . S
In182 O184 2.326 . S
In182 O188 2.266 . S
In182 O189 2.326 . S
In182 O190 2.266 . S
In182 O191 2.326 . S
In182 O193 2.294 . S
In182 O194 2.326 . S
O183 In182 2.294 . S
O183 C192 1.240 . S
O184 In182 2.326 . S
O184 C192 1.252 . S
C185 O188 1.252 . S
C185 O189 1.260 . S
C186 O193 1.240 . S
C186 O194 1.252 . S
C187 O190 1.252 . S
C187 O191 1.260 . S
O188 In182 2.266 . S
O188 C185 1.252 . S
O189 In182 2.326 . S
O189 C185 1.260 . S
O190 In182 2.266 . S
O190 C187 1.252 . S
O191 In182 2.326 . S
O191 C187 1.260 . S
C192 O183 1.240 . S
C192 O184 1.252 . S
O193 In182 2.294 . S
O193 C186 1.240 . S
O194 In182 2.326 . S
O194 C186 1.252 . S
In195 O196 2.294 . S
In195 O197 2.326 . S
In195 O201 2.266 . S
In195 O202 2.326 1_455 S
In195 O203 2.266 1_554 S
In195 O204 2.326 . S
In195 O206 2.294 . S
In195 O207 2.326 . S
O196 In195 2.294 . S
O196 C205 1.240 . S
O197 In195 2.326 . S
O197 C205 1.252 . S
C198 O201 1.252 1_655 S
C198 O202 1.260 . S
C199 O206 1.240 . S
C199 O207 1.252 . S
C200 O203 1.252 . S
C200 O204 1.260 1_556 S
O201 In195 2.266 . S
O201 C198 1.252 1_455 S
O202 In195 2.326 1_655 S
O202 C198 1.260 . S
O203 In195 2.266 1_556 S
O203 C200 1.252 . S
O204 In195 2.326 . S
O204 C200 1.260 1_554 S
C205 O196 1.240 . S
C205 O197 1.252 . S
O206 In195 2.294 . S
O206 C199 1.240 . S
O207 In195 2.326 . S
O207 C199 1.252 . S
In208 O209 2.294 . S
In208 O210 2.326 . S
In208 O214 2.266 . S
In208 O215 2.326 . S
In208 O216 2.266 . S
In208 O217 2.326 . S
In208 O219 2.294 . S
In208 O220 2.326 . S
O209 In208 2.294 . S
O209 C218 1.240 . S
O210 In208 2.326 . S
O210 C218 1.252 . S
C211 O214 1.252 . S
C211 O215 1.260 . S
C212 O219 1.240 . S
C212 O220 1.252 . S
C213 O216 1.252 . S
C213 O217 1.260 . S
O214 In208 2.266 . S
O214 C211 1.252 . S
O215 In208 2.326 . S
O215 C211 1.260 . S
O216 In208 2.266 . S
O216 C213 1.252 . S
O217 In208 2.326 . S
O217 C213 1.260 . S
C218 O209 1.240 . S
C218 O210 1.252 . S
O219 In208 2.294 . S
O219 C212 1.240 . S
O220 In208 2.326 . S
O220 C212 1.252 . S
In221 O222 2.294 . S
In221 O223 2.326 . S
In221 O227 2.266 . S
In221 O228 2.326 . S
In221 O229 2.266 . S
In221 O230 2.326 . S
In221 O232 2.294 . S
In221 O233 2.326 . S
O222 In221 2.294 . S
O222 C231 1.240 . S
O223 In221 2.326 . S
O223 C231 1.252 . S
C224 O227 1.252 . S
C224 O228 1.260 . S
C225 O232 1.240 . S
C225 O233 1.252 . S
C226 O229 1.252 . S
C226 O230 1.260 . S
O227 In221 2.266 . S
O227 C224 1.252 . S
O228 In221 2.326 . S
O228 C224 1.260 . S
O229 In221 2.266 . S
O229 C226 1.252 . S
O230 In221 2.326 . S
O230 C226 1.260 . S
C231 O222 1.240 . S
C231 O223 1.252 . S
O232 In221 2.294 . S
O232 C225 1.240 . S
O233 In221 2.326 . S
O233 C225 1.252 . S
In234 O235 2.294 . S
In234 O236 2.326 . S
In234 O240 2.266 . S
In234 O241 2.326 . S
In234 O242 2.266 . S
In234 O243 2.326 1_554 S
In234 O245 2.294 . S
In234 O246 2.326 . S
O235 In234 2.294 . S
O235 C244 1.240 . S
O236 In234 2.326 . S
O236 C244 1.252 . S
C237 O240 1.252 . S
C237 O241 1.260 . S
C238 O245 1.240 . S
C238 O246 1.252 . S
C239 O242 1.252 1_556 S
C239 O243 1.260 . S
O240 In234 2.266 . S
O240 C237 1.252 . S
O241 In234 2.326 . S
O241 C237 1.260 . S
O242 In234 2.266 . S
O242 C239 1.252 1_554 S
O243 In234 2.326 1_556 S
O243 C239 1.260 . S
C244 O235 1.240 . S
C244 O236 1.252 . S
O245 In234 2.294 . S
O245 C238 1.240 . S
O246 In234 2.326 . S
O246 C238 1.252 . S
In247 O248 2.294 . S
In247 O249 2.326 . S
In247 O253 2.266 . S
In247 O254 2.326 . S
In247 O255 2.266 . S
In247 O256 2.326 . S
In247 O258 2.294 . S
In247 O259 2.326 . S
O248 In247 2.294 . S
O248 C257 1.240 . S
O249 In247 2.326 . S
O249 C257 1.252 . S
C250 O253 1.252 . S
C250 O254 1.260 . S
C251 O258 1.240 . S
C251 O259 1.252 . S
C252 O255 1.252 . S
C252 O256 1.260 . S
O253 In247 2.266 . S
O253 C250 1.252 . S
O254 In247 2.326 . S
O254 C250 1.260 . S
O255 In247 2.266 . S
O255 C252 1.252 . S
O256 In247 2.326 . S
O256 C252 1.260 . S
C257 O248 1.240 . S
C257 O249 1.252 . S
O258 In247 2.294 . S
O258 C251 1.240 . S
O259 In247 2.326 . S
O259 C251 1.252 . S
In260 O261 2.294 . S
In260 O262 2.326 . S
In260 O266 2.266 1_545 S
In260 O267 2.326 . S
In260 O268 2.266 . S
In260 O269 2.326 1_554 S
In260 O271 2.294 . S
In260 O272 2.326 . S
O261 In260 2.294 . S
O261 C270 1.240 . S
O262 In260 2.326 . S
O262 C270 1.252 . S
C263 O266 1.252 . S
C263 O267 1.260 1_565 S
C264 O271 1.240 . S
C264 O272 1.252 . S
C265 O268 1.252 1_556 S
C265 O269 1.260 . S
O266 In260 2.266 1_565 S
O266 C263 1.252 . S
O267 In260 2.326 . S
O267 C263 1.260 1_545 S
O268 In260 2.266 . S
O268 C265 1.252 1_554 S
O269 In260 2.326 1_556 S
O269 C265 1.260 . S
C270 O261 1.240 . S
C270 O262 1.252 . S
O271 In260 2.294 . S
O271 C264 1.240 . S
O272 In260 2.326 . S
O272 C264 1.252 . S
In273 O274 2.294 . S
In273 O275 2.326 . S
In273 O279 2.266 . S
In273 O280 2.326 . S
In273 O281 2.266 . S
In273 O282 2.326 . S
In273 O284 2.294 . S
In273 O285 2.326 . S
O274 In273 2.294 . S
O274 C283 1.240 . S
O275 In273 2.326 . S
O275 C283 1.252 . S
C276 O279 1.252 . S
C276 O280 1.260 . S
C277 O284 1.240 . S
C277 O285 1.252 . S
C278 O281 1.252 . S
C278 O282 1.260 . S
O279 In273 2.266 . S
O279 C276 1.252 . S
O280 In273 2.326 . S
O280 C276 1.260 . S
O281 In273 2.266 . S
O281 C278 1.252 . S
O282 In273 2.326 . S
O282 C278 1.260 . S
C283 O274 1.240 . S
C283 O275 1.252 . S
O284 In273 2.294 . S
O284 C277 1.240 . S
O285 In273 2.326 . S
O285 C277 1.252 . S
In286 O287 2.294 . S
In286 O288 2.326 . S
In286 O292 2.266 . S
In286 O293 2.326 . S
In286 O294 2.266 . S
In286 O295 2.326 . S
In286 O297 2.294 . S
In286 O298 2.326 . S
O287 In286 2.294 . S
O287 C296 1.240 . S
O288 In286 2.326 . S
O288 C296 1.252 . S
C289 O292 1.252 . S
C289 O293 1.260 . S
C290 O297 1.240 . S
C290 O298 1.252 . S
C291 O294 1.252 . S
C291 O295 1.260 . S
O292 In286 2.266 . S
O292 C289 1.252 . S
O293 In286 2.326 . S
O293 C289 1.260 . S
O294 In286 2.266 . S
O294 C291 1.252 . S
O295 In286 2.326 . S
O295 C291 1.260 . S
C296 O287 1.240 . S
C296 O288 1.252 . S
O297 In286 2.294 . S
O297 C290 1.240 . S
O298 In286 2.326 . S
O298 C290 1.252 . S
In299 O300 2.294 . S
In299 O301 2.326 . S
In299 O305 2.266 . S
In299 O306 2.326 1_556 S
In299 O307 2.266 . S
In299 O308 2.326 . S
In299 O310 2.294 . S
In299 O311 2.326 . S
O300 In299 2.294 . S
O300 C309 1.240 . S
O301 In299 2.326 . S
O301 C309 1.252 . S
C302 O305 1.252 1_554 S
C302 O306 1.260 . S
C303 O310 1.240 . S
C303 O311 1.252 . S
C304 O307 1.252 . S
C304 O308 1.260 . S
O305 In299 2.266 . S
O305 C302 1.252 1_556 S
O306 In299 2.326 1_554 S
O306 C302 1.260 . S
O307 In299 2.266 . S
O307 C304 1.252 . S
O308 In299 2.326 . S
O308 C304 1.260 . S
C309 O300 1.240 . S
C309 O301 1.252 . S
O310 In299 2.294 . S
O310 C303 1.240 . S
O311 In299 2.326 . S
O311 C303 1.252 . S
In312 O313 2.294 . S
In312 O314 2.326 . S
In312 O318 2.266 . S
In312 O319 2.326 . S
In312 O320 2.266 . S
In312 O321 2.326 . S
In312 O323 2.294 . S
In312 O324 2.326 . S
O313 In312 2.294 . S
O313 C322 1.240 . S
O314 In312 2.326 . S
O314 C322 1.252 . S
C315 O318 1.252 . S
C315 O319 1.260 . S
C316 O323 1.240 . S
C316 O324 1.252 . S
C317 O320 1.252 . S
C317 O321 1.260 . S
O318 In312 2.266 . S
O318 C315 1.252 . S
O319 In312 2.326 . S
O319 C315 1.260 . S
O320 In312 2.266 . S
O320 C317 1.252 . S
O321 In312 2.326 . S
O321 C317 1.260 . S
C322 O313 1.240 . S
C322 O314 1.252 . S
O323 In312 2.294 . S
O323 C316 1.240 . S
O324 In312 2.326 . S
O324 C316 1.252 . S
In325 O326 2.294 . S
In325 O327 2.326 . S
In325 O331 2.266 . S
In325 O332 2.326 . S
In325 O333 2.266 . S
In325 O334 2.326 . S
In325 O336 2.294 . S
In325 O337 2.326 . S
O326 In325 2.294 . S
O326 C335 1.240 . S
O327 In325 2.326 . S
O327 C335 1.252 . S
C328 O331 1.252 . S
C328 O332 1.260 . S
C329 O336 1.240 . S
C329 O337 1.252 . S
C330 O333 1.252 . S
C330 O334 1.260 . S
O331 In325 2.266 . S
O331 C328 1.252 . S
O332 In325 2.326 . S
O332 C328 1.260 . S
O333 In325 2.266 . S
O333 C330 1.252 . S
O334 In325 2.326 . S
O334 C330 1.260 . S
C335 O326 1.240 . S
C335 O327 1.252 . S
O336 In325 2.294 . S
O336 C329 1.240 . S
O337 In325 2.326 . S
O337 C329 1.252 . S
In338 O339 2.294 . S
In338 O340 2.326 . S
In338 O344 2.266 . S
In338 O345 2.326 . S
In338 O346 2.266 . S
In338 O347 2.326 . S
In338 O349 2.294 . S
In338 O350 2.326 . S
O339 In338 2.294 . S
O339 C348 1.240 . S
O340 In338 2.326 . S
O340 C348 1.252 . S
C341 O344 1.252 . S
C341 O345 1.260 . S
C342 O349 1.240 . S
C342 O350 1.252 . S
C343 O346 1.252 . S
C343 O347 1.260 . S
O344 In338 2.266 . S
O344 C341 1.252 . S
O345 In338 2.326 . S
O345 C341 1.260 . S
O346 In338 2.266 . S
O346 C343 1.252 . S
O347 In338 2.326 . S
O347 C343 1.260 . S
C348 O339 1.240 . S
C348 O340 1.252 . S
O349 In338 2.294 . S
O349 C342 1.240 . S
O350 In338 2.326 . S
O350 C342 1.252 . S
In351 O352 2.294 . S
In351 O353 2.326 . S
In351 O357 2.266 . S
In351 O358 2.326 . S
In351 O359 2.266 1_655 S
In351 O360 2.326 . S
In351 O362 2.294 . S
In351 O363 2.326 . S
O352 In351 2.294 . S
O352 C361 1.240 . S
O353 In351 2.326 . S
O353 C361 1.252 . S
C354 O357 1.252 . S
C354 O358 1.260 . S
C355 O362 1.240 . S
C355 O363 1.252 . S
C356 O359 1.252 . S
C356 O360 1.260 1_455 S
O357 In351 2.266 . S
O357 C354 1.252 . S
O358 In351 2.326 . S
O358 C354 1.260 . S
O359 In351 2.266 1_455 S
O359 C356 1.252 . S
O360 In351 2.326 . S
O360 C356 1.260 1_655 S
C361 O352 1.240 . S
C361 O353 1.252 . S
O362 In351 2.294 . S
O362 C355 1.240 . S
O363 In351 2.326 . S
O363 C355 1.252 . S
In364 O365 2.294 . S
In364 O366 2.326 . S
In364 O370 2.266 . S
In364 O371 2.326 . S
In364 O372 2.266 . S
In364 O373 2.326 . S
In364 O375 2.294 . S
In364 O376 2.326 . S
O365 In364 2.294 . S
O365 C374 1.240 . S
O366 In364 2.326 . S
O366 C374 1.252 . S
C367 O370 1.252 . S
C367 O371 1.260 . S
C368 O375 1.240 . S
C368 O376 1.252 . S
C369 O372 1.252 . S
C369 O373 1.260 . S
O370 In364 2.266 . S
O370 C367 1.252 . S
O371 In364 2.326 . S
O371 C367 1.260 . S
O372 In364 2.266 . S
O372 C369 1.252 . S
O373 In364 2.326 . S
O373 C369 1.260 . S
C374 O365 1.240 . S
C374 O366 1.252 . S
O375 In364 2.294 . S
O375 C368 1.240 . S
O376 In364 2.326 . S
O376 C368 1.252 . S
In377 O378 2.294 . S
In377 O379 2.326 . S
In377 O383 2.266 . S
In377 O384 2.326 . S
In377 O385 2.266 1_655 S
In377 O386 2.326 . S
In377 O388 2.294 . S
In377 O389 2.326 . S
O378 In377 2.294 . S
O378 C387 1.240 . S
O379 In377 2.326 . S
O379 C387 1.252 . S
C380 O383 1.252 . S
C380 O384 1.260 . S
C381 O388 1.240 . S
C381 O389 1.252 . S
C382 O385 1.252 . S
C382 O386 1.260 1_455 S
O383 In377 2.266 . S
O383 C380 1.252 . S
O384 In377 2.326 . S
O384 C380 1.260 . S
O385 In377 2.266 1_455 S
O385 C382 1.252 . S
O386 In377 2.326 . S
O386 C382 1.260 1_655 S
C387 O378 1.240 . S
C387 O379 1.252 . S
O388 In377 2.294 . S
O388 C381 1.240 . S
O389 In377 2.326 . S
O389 C381 1.252 . S
In390 O391 2.294 . S
In390 O392 2.326 . S
In390 O396 2.266 . S
In390 O397 2.326 . S
In390 O398 2.266 . S
In390 O399 2.326 . S
In390 O401 2.294 . S
In390 O402 2.326 . S
O391 In390 2.294 . S
O391 C400 1.240 . S
O392 In390 2.326 . S
O392 C400 1.252 . S
C393 O396 1.252 . S
C393 O397 1.260 . S
C394 O401 1.240 . S
C394 O402 1.252 . S
C395 O398 1.252 . S
C395 O399 1.260 . S
O396 In390 2.266 . S
O396 C393 1.252 . S
O397 In390 2.326 . S
O397 C393 1.260 . S
O398 In390 2.266 . S
O398 C395 1.252 . S
O399 In390 2.326 . S
O399 C395 1.260 . S
C400 O391 1.240 . S
C400 O392 1.252 . S
O401 In390 2.294 . S
O401 C394 1.240 . S
O402 In390 2.326 . S
O402 C394 1.252 . S
In403 O404 2.294 . S
In403 O405 2.326 . S
In403 O409 2.266 . S
In403 O410 2.326 . S
In403 O411 2.266 . S
In403 O412 2.326 . S
In403 O414 2.294 . S
In403 O415 2.326 . S
O404 In403 2.294 . S
O404 C413 1.240 . S
O405 In403 2.326 . S
O405 C413 1.252 . S
C406 O409 1.252 . S
C406 O410 1.260 . S
C407 O414 1.240 . S
C407 O415 1.252 . S
C408 O411 1.252 . S
C408 O412 1.260 . S
O409 In403 2.266 . S
O409 C406 1.252 . S
O410 In403 2.326 . S
O410 C406 1.260 . S
O411 In403 2.266 . S
O411 C408 1.252 . S
O412 In403 2.326 . S
O412 C408 1.260 . S
C413 O404 1.240 . S
C413 O405 1.252 . S
O414 In403 2.294 . S
O414 C407 1.240 . S
O415 In403 2.326 . S
O415 C407 1.252 . S
In416 O417 2.294 . S
In416 O418 2.326 . S
In416 O422 2.266 . S
In416 O423 2.326 . S
In416 O424 2.266 . S
In416 O425 2.326 . S
In416 O427 2.294 . S
In416 O428 2.326 . S
O417 In416 2.294 . S
O417 C426 1.240 . S
O418 In416 2.326 . S
O418 C426 1.252 . S
C419 O422 1.252 . S
C419 O423 1.260 . S
C420 O427 1.240 . S
C420 O428 1.252 . S
C421 O424 1.252 . S
C421 O425 1.260 . S
O422 In416 2.266 . S
O422 C419 1.252 . S
O423 In416 2.326 . S
O423 C419 1.260 . S
O424 In416 2.266 . S
O424 C421 1.252 . S
O425 In416 2.326 . S
O425 C421 1.260 . S
C426 O417 1.240 . S
C426 O418 1.252 . S
O427 In416 2.294 . S
O427 C420 1.240 . S
O428 In416 2.326 . S
O428 C420 1.252 . S
In429 O430 2.294 . S
In429 O431 2.326 . S
In429 O435 2.266 . S
In429 O436 2.326 . S
In429 O437 2.266 1_556 S
In429 O438 2.326 . S
In429 O440 2.294 . S
In429 O441 2.326 . S
O430 In429 2.294 . S
O430 C439 1.240 . S
O431 In429 2.326 . S
O431 C439 1.252 . S
C432 O435 1.252 . S
C432 O436 1.260 . S
C433 O440 1.240 . S
C433 O441 1.252 . S
C434 O437 1.252 . S
C434 O438 1.260 1_554 S
O435 In429 2.266 . S
O435 C432 1.252 . S
O436 In429 2.326 . S
O436 C432 1.260 . S
O437 In429 2.266 1_554 S
O437 C434 1.252 . S
O438 In429 2.326 . S
O438 C434 1.260 1_556 S
C439 O430 1.240 . S
C439 O431 1.252 . S
O440 In429 2.294 . S
O440 C433 1.240 . S
O441 In429 2.326 . S
O441 C433 1.252 . S
In442 O443 2.294 . S
In442 O444 2.326 . S
In442 O448 2.266 . S
In442 O449 2.326 . S
In442 O450 2.266 . S
In442 O451 2.326 . S
In442 O453 2.294 . S
In442 O454 2.326 . S
O443 In442 2.294 . S
O443 C452 1.240 . S
O444 In442 2.326 . S
O444 C452 1.252 . S
C445 O448 1.252 . S
C445 O449 1.260 . S
C446 O453 1.240 . S
C446 O454 1.252 . S
C447 O450 1.252 . S
C447 O451 1.260 . S
O448 In442 2.266 . S
O448 C445 1.252 . S
O449 In442 2.326 . S
O449 C445 1.260 . S
O450 In442 2.266 . S
O450 C447 1.252 . S
O451 In442 2.326 . S
O451 C447 1.260 . S
C452 O443 1.240 . S
C452 O444 1.252 . S
O453 In442 2.294 . S
O453 C446 1.240 . S
O454 In442 2.326 . S
O454 C446 1.252 . S
In455 O456 2.294 . S
In455 O457 2.326 . S
In455 O461 2.266 . S
In455 O462 2.326 1_655 S
In455 O463 2.266 . S
In455 O464 2.326 . S
In455 O466 2.294 . S
In455 O467 2.326 . S
O456 In455 2.294 . S
O456 C465 1.240 . S
O457 In455 2.326 . S
O457 C465 1.252 . S
C458 O461 1.252 1_455 S
C458 O462 1.260 . S
C459 O466 1.240 . S
C459 O467 1.252 . S
C460 O463 1.252 . S
C460 O464 1.260 . S
O461 In455 2.266 . S
O461 C458 1.252 1_655 S
O462 In455 2.326 1_455 S
O462 C458 1.260 . S
O463 In455 2.266 . S
O463 C460 1.252 . S
O464 In455 2.326 . S
O464 C460 1.260 . S
C465 O456 1.240 . S
C465 O457 1.252 . S
O466 In455 2.294 . S
O466 C459 1.240 . S
O467 In455 2.326 . S
O467 C459 1.252 . S
In468 O469 2.294 . S
In468 O470 2.326 . S
In468 O474 2.266 . S
In468 O475 2.326 . S
In468 O476 2.266 . S
In468 O477 2.326 . S
In468 O479 2.294 . S
In468 O480 2.326 . S
O469 In468 2.294 . S
O469 C478 1.240 . S
O470 In468 2.326 . S
O470 C478 1.252 . S
C471 O474 1.252 . S
C471 O475 1.260 . S
C472 O479 1.240 . S
C472 O480 1.252 . S
C473 O476 1.252 . S
C473 O477 1.260 . S
O474 In468 2.266 . S
O474 C471 1.252 . S
O475 In468 2.326 . S
O475 C471 1.260 . S
O476 In468 2.266 . S
O476 C473 1.252 . S
O477 In468 2.326 . S
O477 C473 1.260 . S
C478 O469 1.240 . S
C478 O470 1.252 . S
O479 In468 2.294 . S
O479 C472 1.240 . S
O480 In468 2.326 . S
O480 C472 1.252 . S
In481 O482 2.294 . S
In481 O483 2.326 . S
In481 O487 2.266 . S
In481 O488 2.326 1_655 S
In481 O489 2.266 1_554 S
In481 O490 2.326 . S
In481 O492 2.294 . S
In481 O493 2.326 . S
O482 In481 2.294 . S
O482 C491 1.240 . S
O483 In481 2.326 . S
O483 C491 1.252 . S
C484 O487 1.252 1_455 S
C484 O488 1.260 . S
C485 O492 1.240 . S
C485 O493 1.252 . S
C486 O489 1.252 . S
C486 O490 1.260 1_556 S
O487 In481 2.266 . S
O487 C484 1.252 1_655 S
O488 In481 2.326 1_455 S
O488 C484 1.260 . S
O489 In481 2.266 1_556 S
O489 C486 1.252 . S
O490 In481 2.326 . S
O490 C486 1.260 1_554 S
C491 O482 1.240 . S
C491 O483 1.252 . S
O492 In481 2.294 . S
O492 C485 1.240 . S
O493 In481 2.326 . S
O493 C485 1.252 . S
In494 O495 2.294 . S
In494 O496 2.326 . S
In494 O500 2.266 . S
In494 O501 2.326 . S
In494 O502 2.266 . S
In494 O503 2.326 . S
In494 O505 2.294 . S
In494 O506 2.326 . S
O495 In494 2.294 . S
O495 C504 1.240 . S
O496 In494 2.326 . S
O496 C504 1.252 . S
C497 O500 1.252 . S
C497 O501 1.260 . S
C498 O505 1.240 . S
C498 O506 1.252 . S
C499 O502 1.252 . S
C499 O503 1.260 . S
O500 In494 2.266 . S
O500 C497 1.252 . S
O501 In494 2.326 . S
O501 C497 1.260 . S
O502 In494 2.266 . S
O502 C499 1.252 . S
O503 In494 2.326 . S
O503 C499 1.260 . S
C504 O495 1.240 . S
C504 O496 1.252 . S
O505 In494 2.294 . S
O505 C498 1.240 . S
O506 In494 2.326 . S
O506 C498 1.252 . S
In507 O508 2.294 . S
In507 O509 2.326 . S
In507 O513 2.266 . S
In507 O514 2.326 . S
In507 O515 2.266 . S
In507 O516 2.326 . S
In507 O518 2.294 . S
In507 O519 2.326 . S
O508 In507 2.294 . S
O508 C517 1.240 . S
O509 In507 2.326 . S
O509 C517 1.252 . S
C510 O513 1.252 . S
C510 O514 1.260 . S
C511 O518 1.240 . S
C511 O519 1.252 . S
C512 O515 1.252 . S
C512 O516 1.260 . S
O513 In507 2.266 . S
O513 C510 1.252 . S
O514 In507 2.326 . S
O514 C510 1.260 . S
O515 In507 2.266 . S
O515 C512 1.252 . S
O516 In507 2.326 . S
O516 C512 1.260 . S
C517 O508 1.240 . S
C517 O509 1.252 . S
O518 In507 2.294 . S
O518 C511 1.240 . S
O519 In507 2.326 . S
O519 C511 1.252 . S
In520 O521 2.294 . S
In520 O522 2.326 . S
In520 O526 2.266 . S
In520 O527 2.326 . S
In520 O528 2.266 . S
In520 O529 2.326 . S
In520 O531 2.294 . S
In520 O532 2.326 . S
O521 In520 2.294 . S
O521 C530 1.240 . S
O522 In520 2.326 . S
O522 C530 1.252 . S
C523 O526 1.252 . S
C523 O527 1.260 . S
C524 O531 1.240 . S
C524 O532 1.252 . S
C525 O528 1.252 . S
C525 O529 1.260 . S
O526 In520 2.266 . S
O526 C523 1.252 . S
O527 In520 2.326 . S
O527 C523 1.260 . S
O528 In520 2.266 . S
O528 C525 1.252 . S
O529 In520 2.326 . S
O529 C525 1.260 . S
C530 O521 1.240 . S
C530 O522 1.252 . S
O531 In520 2.294 . S
O531 C524 1.240 . S
O532 In520 2.326 . S
O532 C524 1.252 . S
In533 O534 2.294 . S
In533 O535 2.326 . S
In533 O539 2.266 . S
In533 O540 2.326 . S
In533 O541 2.266 . S
In533 O542 2.326 . S
In533 O544 2.294 . S
In533 O545 2.326 . S
O534 In533 2.294 . S
O534 C543 1.240 . S
O535 In533 2.326 . S
O535 C543 1.252 . S
C536 O539 1.252 . S
C536 O540 1.260 . S
C537 O544 1.240 . S
C537 O545 1.252 . S
C538 O541 1.252 . S
C538 O542 1.260 . S
O539 In533 2.266 . S
O539 C536 1.252 . S
O540 In533 2.326 . S
O540 C536 1.260 . S
O541 In533 2.266 . S
O541 C538 1.252 . S
O542 In533 2.326 . S
O542 C538 1.260 . S
C543 O534 1.240 . S
C543 O535 1.252 . S
O544 In533 2.294 . S
O544 C537 1.240 . S
O545 In533 2.326 . S
O545 C537 1.252 . S
In546 O547 2.294 . S
In546 O548 2.326 . S
In546 O552 2.266 1_565 S
In546 O553 2.326 . S
In546 O554 2.266 . S
In546 O555 2.326 . S
In546 O557 2.294 . S
In546 O558 2.326 . S
O547 In546 2.294 . S
O547 C556 1.240 . S
O548 In546 2.326 . S
O548 C556 1.252 . S
C549 O552 1.252 . S
C549 O553 1.260 1_545 S
C550 O557 1.240 . S
C550 O558 1.252 . S
C551 O554 1.252 . S
C551 O555 1.260 . S
O552 In546 2.266 1_545 S
O552 C549 1.252 . S
O553 In546 2.326 . S
O553 C549 1.260 1_565 S
O554 In546 2.266 . S
O554 C551 1.252 . S
O555 In546 2.326 . S
O555 C551 1.260 . S
C556 O547 1.240 . S
C556 O548 1.252 . S
O557 In546 2.294 . S
O557 C550 1.240 . S
O558 In546 2.326 . S
O558 C550 1.252 . S
In559 O560 2.294 . S
In559 O561 2.326 . S
In559 O565 2.266 . S
In559 O566 2.326 . S
In559 O567 2.266 . S
In559 O568 2.326 . S
In559 O570 2.294 . S
In559 O571 2.326 . S
O560 In559 2.294 . S
O560 C569 1.240 . S
O561 In559 2.326 . S
O561 C569 1.252 . S
C562 O565 1.252 . S
C562 O566 1.260 . S
C563 O570 1.240 . S
C563 O571 1.252 . S
C564 O567 1.252 . S
C564 O568 1.260 . S
O565 In559 2.266 . S
O565 C562 1.252 . S
O566 In559 2.326 . S
O566 C562 1.260 . S
O567 In559 2.266 . S
O567 C564 1.252 . S
O568 In559 2.326 . S
O568 C564 1.260 . S
C569 O560 1.240 . S
C569 O561 1.252 . S
O570 In559 2.294 . S
O570 C563 1.240 . S
O571 In559 2.326 . S
O571 C563 1.252 . S
In572 O573 2.294 . S
In572 O574 2.326 . S
In572 O578 2.266 . S
In572 O579 2.326 . S
In572 O580 2.266 . S
In572 O581 2.326 . S
In572 O583 2.294 . S
In572 O584 2.326 . S
O573 In572 2.294 . S
O573 C582 1.240 . S
O574 In572 2.326 . S
O574 C582 1.252 . S
C575 O578 1.252 . S
C575 O579 1.260 . S
C576 O583 1.240 . S
C576 O584 1.252 . S
C577 O580 1.252 . S
C577 O581 1.260 . S
O578 In572 2.266 . S
O578 C575 1.252 . S
O579 In572 2.326 . S
O579 C575 1.260 . S
O580 In572 2.266 . S
O580 C577 1.252 . S
O581 In572 2.326 . S
O581 C577 1.260 . S
C582 O573 1.240 . S
C582 O574 1.252 . S
O583 In572 2.294 . S
O583 C576 1.240 . S
O584 In572 2.326 . S
O584 C576 1.252 . S
In585 O586 2.294 . S
In585 O587 2.326 . S
In585 O591 2.266 . S
In585 O592 2.326 . S
In585 O593 2.266 . S
In585 O594 2.326 . S
In585 O596 2.294 . S
In585 O597 2.326 . S
O586 In585 2.294 . S
O586 C595 1.240 . S
O587 In585 2.326 . S
O587 C595 1.252 . S
C588 O591 1.252 . S
C588 O592 1.260 . S
C589 O596 1.240 . S
C589 O597 1.252 . S
C590 O593 1.252 . S
C590 O594 1.260 . S
O591 In585 2.266 . S
O591 C588 1.252 . S
O592 In585 2.326 . S
O592 C588 1.260 . S
O593 In585 2.266 . S
O593 C590 1.252 . S
O594 In585 2.326 . S
O594 C590 1.260 . S
C595 O586 1.240 . S
C595 O587 1.252 . S
O596 In585 2.294 . S
O596 C589 1.240 . S
O597 In585 2.326 . S
O597 C589 1.252 . S
In598 O599 2.294 . S
In598 O600 2.326 . S
In598 O604 2.266 . S
In598 O605 2.326 1_556 S
In598 O606 2.266 1_545 S
In598 O607 2.326 . S
In598 O609 2.294 . S
In598 O610 2.326 . S
O599 In598 2.294 . S
O599 C608 1.240 . S
O600 In598 2.326 . S
O600 C608 1.252 . S
C601 O604 1.252 1_554 S
C601 O605 1.260 . S
C602 O609 1.240 . S
C602 O610 1.252 . S
C603 O606 1.252 . S
C603 O607 1.260 1_565 S
O604 In598 2.266 . S
O604 C601 1.252 1_556 S
O605 In598 2.326 1_554 S
O605 C601 1.260 . S
O606 In598 2.266 1_565 S
O606 C603 1.252 . S
O607 In598 2.326 . S
O607 C603 1.260 1_545 S
C608 O599 1.240 . S
C608 O600 1.252 . S
O609 In598 2.294 . S
O609 C602 1.240 . S
O610 In598 2.326 . S
O610 C602 1.252 . S
In611 O612 2.294 . S
In611 O613 2.326 . S
In611 O617 2.266 . S
In611 O618 2.326 . S
In611 O619 2.266 1_565 S
In611 O620 2.326 . S
In611 O622 2.294 . S
In611 O623 2.326 . S
O612 In611 2.294 . S
O612 C621 1.240 . S
O613 In611 2.326 . S
O613 C621 1.252 . S
C614 O617 1.252 . S
C614 O618 1.260 . S
C615 O622 1.240 . S
C615 O623 1.252 . S
C616 O619 1.252 . S
C616 O620 1.260 1_545 S
O617 In611 2.266 . S
O617 C614 1.252 . S
O618 In611 2.326 . S
O618 C614 1.260 . S
O619 In611 2.266 1_545 S
O619 C616 1.252 . S
O620 In611 2.326 . S
O620 C616 1.260 1_565 S
C621 O612 1.240 . S
C621 O613 1.252 . S
O622 In611 2.294 . S
O622 C615 1.240 . S
O623 In611 2.326 . S
O623 C615 1.252 . S
H624 C630 0.930 . S
H625 C633 0.930 . S
H626 C634 0.930 . S
H627 C635 0.930 . S
H628 C638 0.930 . S
H629 C639 0.930 . S
C630 H624 0.930 . S
C630 C631 1.355 . S
C630 C632 1.415 . S
C631 C630 1.355 . S
C631 C633 1.419 . S
C632 C630 1.415 . S
C632 C637 1.425 . S
C632 C639 1.409 . S
C633 H625 0.930 . S
C633 C631 1.419 . S
C633 C634 1.362 . S
C634 H626 0.930 . S
C634 C633 1.362 . S
C634 C637 1.409 . S
C635 H627 0.930 . S
C635 C636 1.355 . S
C635 C637 1.415 . S
C636 C635 1.355 . S
C636 C638 1.419 . S
C637 C632 1.425 . S
C637 C634 1.409 . S
C637 C635 1.415 . S
C638 H628 0.930 . S
C638 C636 1.419 . S
C638 C639 1.362 . S
C639 H629 0.930 . S
C639 C632 1.409 . S
C639 C638 1.362 . S
H640 C646 0.930 . S
H641 C649 0.930 . S
H642 C650 0.930 . S
H643 C651 0.930 . S
H644 C654 0.930 . S
H645 C655 0.930 . S
C646 H640 0.930 . S
C646 C647 1.355 . S
C646 C648 1.415 . S
C647 C646 1.355 . S
C647 C649 1.419 1_565 S
C648 C646 1.415 . S
C648 C653 1.425 1_565 S
C648 C655 1.409 . S
C649 H641 0.930 . S
C649 C647 1.419 1_545 S
C649 C650 1.362 . S
C650 H642 0.930 . S
C650 C649 1.362 . S
C650 C653 1.409 . S
C651 H643 0.930 . S
C651 C652 1.355 . S
C651 C653 1.415 . S
C652 C651 1.355 . S
C652 C654 1.419 1_545 S
C653 C648 1.425 1_545 S
C653 C650 1.409 . S
C653 C651 1.415 . S
C654 H644 0.930 . S
C654 C652 1.419 1_565 S
C654 C655 1.362 . S
C655 H645 0.930 . S
C655 C648 1.409 . S
C655 C654 1.362 . S
H656 C662 0.930 . S
H657 C665 0.930 . S
H658 C666 0.930 . S
H659 C667 0.930 . S
H660 C670 0.930 . S
H661 C671 0.930 . S
C662 H656 0.930 . S
C662 C663 1.355 . S
C662 C664 1.415 . S
C663 C662 1.355 . S
C663 C665 1.419 . S
C664 C662 1.415 . S
C664 C669 1.425 1_556 S
C664 C671 1.409 1_556 S
C665 H657 0.930 . S
C665 C663 1.419 . S
C665 C666 1.362 . S
C666 H658 0.930 . S
C666 C665 1.362 . S
C666 C669 1.409 1_556 S
C667 H659 0.930 . S
C667 C668 1.355 . S
C667 C669 1.415 . S
C668 C667 1.355 . S
C668 C670 1.419 . S
C669 C664 1.425 1_554 S
C669 C666 1.409 1_554 S
C669 C667 1.415 . S
C670 H660 0.930 . S
C670 C668 1.419 . S
C670 C671 1.362 . S
C671 H661 0.930 . S
C671 C664 1.409 1_554 S
C671 C670 1.362 . S
H672 C678 0.930 . S
H673 C681 0.930 . S
H674 C682 0.930 . S
H675 C683 0.930 . S
H676 C686 0.930 . S
H677 C687 0.930 . S
C678 H672 0.930 . S
C678 C679 1.355 1_545 S
C678 C680 1.415 . S
C679 C678 1.355 1_565 S
C679 C681 1.419 . S
C680 C678 1.415 . S
C680 C685 1.425 1_545 S
C680 C687 1.409 . S
C681 H673 0.930 . S
C681 C679 1.419 . S
C681 C682 1.362 . S
C682 H674 0.930 . S
C682 C681 1.362 . S
C682 C685 1.409 . S
C683 H675 0.930 . S
C683 C684 1.355 1_565 S
C683 C685 1.415 . S
C684 C683 1.355 1_545 S
C684 C686 1.419 . S
C685 C680 1.425 1_565 S
C685 C682 1.409 . S
C685 C683 1.415 . S
C686 H676 0.930 . S
C686 C684 1.419 . S
C686 C687 1.362 . S
C687 H677 0.930 . S
C687 C680 1.409 . S
C687 C686 1.362 . S
H688 C694 0.930 . S
H689 C697 0.930 . S
H690 C698 0.930 . S
H691 C699 0.930 . S
H692 C702 0.930 . S
H693 C703 0.930 . S
C694 H688 0.930 . S
C694 C695 1.355 . S
C694 C696 1.415 . S
C695 C694 1.355 . S
C695 C697 1.419 . S
C696 C694 1.415 . S
C696 C701 1.425 . S
C696 C703 1.409 . S
C697 H689 0.930 . S
C697 C695 1.419 . S
C697 C698 1.362 . S
C698 H690 0.930 . S
C698 C697 1.362 . S
C698 C701 1.409 . S
C699 H691 0.930 . S
C699 C700 1.355 . S
C699 C701 1.415 . S
C700 C699 1.355 . S
C700 C702 1.419 . S
C701 C696 1.425 . S
C701 C698 1.409 . S
C701 C699 1.415 . S
C702 H692 0.930 . S
C702 C700 1.419 . S
C702 C703 1.362 . S
C703 H693 0.930 . S
C703 C696 1.409 . S
C703 C702 1.362 . S
H704 C710 0.930 . S
H705 C713 0.930 . S
H706 C714 0.930 . S
H707 C715 0.930 . S
H708 C718 0.930 . S
H709 C719 0.930 . S
C710 H704 0.930 . S
C710 C711 1.355 . S
C710 C712 1.415 . S
C711 C710 1.355 . S
C711 C713 1.419 1_655 S
C712 C710 1.415 . S
C712 C717 1.425 1_655 S
C712 C719 1.409 . S
C713 H705 0.930 . S
C713 C711 1.419 1_455 S
C713 C714 1.362 . S
C714 H706 0.930 . S
C714 C713 1.362 . S
C714 C717 1.409 . S
C715 H707 0.930 . S
C715 C716 1.355 . S
C715 C717 1.415 . S
C716 C715 1.355 . S
C716 C718 1.419 1_455 S
C717 C712 1.425 1_455 S
C717 C714 1.409 . S
C717 C715 1.415 . S
C718 H708 0.930 . S
C718 C716 1.419 1_655 S
C718 C719 1.362 . S
C719 H709 0.930 . S
C719 C712 1.409 . S
C719 C718 1.362 . S
H720 C726 0.930 . S
H721 C729 0.930 . S
H722 C730 0.930 . S
H723 C731 0.930 . S
H724 C734 0.930 . S
H725 C735 0.930 . S
C726 H720 0.930 . S
C726 C727 1.355 . S
C726 C728 1.415 . S
C727 C726 1.355 . S
C727 C729 1.419 . S
C728 C726 1.415 . S
C728 C733 1.425 1_455 S
C728 C735 1.409 1_455 S
C729 H721 0.930 . S
C729 C727 1.419 . S
C729 C730 1.362 . S
C730 H722 0.930 . S
C730 C729 1.362 . S
C730 C733 1.409 1_455 S
C731 H723 0.930 . S
C731 C732 1.355 . S
C731 C733 1.415 . S
C732 C731 1.355 . S
C732 C734 1.419 . S
C733 C728 1.425 1_655 S
C733 C730 1.409 1_655 S
C733 C731 1.415 . S
C734 H724 0.930 . S
C734 C732 1.419 . S
C734 C735 1.362 . S
C735 H725 0.930 . S
C735 C728 1.409 1_655 S
C735 C734 1.362 . S
H736 C742 0.930 . S
H737 C745 0.930 . S
H738 C746 0.930 . S
H739 C747 0.930 . S
H740 C750 0.930 . S
H741 C751 0.930 . S
C742 H736 0.930 . S
C742 C743 1.355 . S
C742 C744 1.415 . S
C743 C742 1.355 . S
C743 C745 1.419 . S
C744 C742 1.415 . S
C744 C749 1.425 . S
C744 C751 1.409 . S
C745 H737 0.930 . S
C745 C743 1.419 . S
C745 C746 1.362 . S
C746 H738 0.930 . S
C746 C745 1.362 . S
C746 C749 1.409 . S
C747 H739 0.930 . S
C747 C748 1.355 . S
C747 C749 1.415 . S
C748 C747 1.355 . S
C748 C750 1.419 . S
C749 C744 1.425 . S
C749 C746 1.409 . S
C749 C747 1.415 . S
C750 H740 0.930 . S
C750 C748 1.419 . S
C750 C751 1.362 . S
C751 H741 0.930 . S
C751 C744 1.409 . S
C751 C750 1.362 . S
H752 C758 0.930 . S
H753 C761 0.930 . S
H754 C762 0.930 . S
H755 C763 0.930 . S
H756 C766 0.930 . S
H757 C767 0.930 . S
C758 H752 0.930 . S
C758 C759 1.355 . S
C758 C760 1.415 . S
C759 C758 1.355 . S
C759 C761 1.419 . S
C760 C758 1.415 . S
C760 C765 1.425 . S
C760 C767 1.409 . S
C761 H753 0.930 . S
C761 C759 1.419 . S
C761 C762 1.362 . S
C762 H754 0.930 . S
C762 C761 1.362 . S
C762 C765 1.409 . S
C763 H755 0.930 . S
C763 C764 1.355 . S
C763 C765 1.415 . S
C764 C763 1.355 . S
C764 C766 1.419 . S
C765 C760 1.425 . S
C765 C762 1.409 . S
C765 C763 1.415 . S
C766 H756 0.930 . S
C766 C764 1.419 . S
C766 C767 1.362 . S
C767 H757 0.930 . S
C767 C760 1.409 . S
C767 C766 1.362 . S
H768 C774 0.930 . S
H769 C777 0.930 . S
H770 C778 0.930 . S
H771 C779 0.930 . S
H772 C782 0.930 . S
H773 C783 0.930 . S
C774 H768 0.930 . S
C774 C775 1.355 . S
C774 C776 1.415 . S
C775 C774 1.355 . S
C775 C777 1.419 . S
C776 C774 1.415 . S
C776 C781 1.425 . S
C776 C783 1.409 . S
C777 H769 0.930 . S
C777 C775 1.419 . S
C777 C778 1.362 . S
C778 H770 0.930 . S
C778 C777 1.362 . S
C778 C781 1.409 . S
C779 H771 0.930 . S
C779 C780 1.355 . S
C779 C781 1.415 . S
C780 C779 1.355 . S
C780 C782 1.419 . S
C781 C776 1.425 . S
C781 C778 1.409 . S
C781 C779 1.415 . S
C782 H772 0.930 . S
C782 C780 1.419 . S
C782 C783 1.362 . S
C783 H773 0.930 . S
C783 C776 1.409 . S
C783 C782 1.362 . S
H784 C790 0.930 . S
H785 C793 0.930 . S
H786 C794 0.930 . S
H787 C795 0.930 . S
H788 C798 0.930 . S
H789 C799 0.930 . S
C790 H784 0.930 . S
C790 C791 1.355 . S
C790 C792 1.415 . S
C791 C790 1.355 . S
C791 C793 1.419 . S
C792 C790 1.415 . S
C792 C797 1.425 1_655 S
C792 C799 1.409 1_655 S
C793 H785 0.930 . S
C793 C791 1.419 . S
C793 C794 1.362 . S
C794 H786 0.930 . S
C794 C793 1.362 . S
C794 C797 1.409 1_655 S
C795 H787 0.930 . S
C795 C796 1.355 . S
C795 C797 1.415 . S
C796 C795 1.355 . S
C796 C798 1.419 . S
C797 C792 1.425 1_455 S
C797 C794 1.409 1_455 S
C797 C795 1.415 . S
C798 H788 0.930 . S
C798 C796 1.419 . S
C798 C799 1.362 . S
C799 H789 0.930 . S
C799 C792 1.409 1_455 S
C799 C798 1.362 . S
H800 C806 0.930 . S
H801 C809 0.930 . S
H802 C810 0.930 . S
H803 C811 0.930 . S
H804 C814 0.930 . S
H805 C815 0.930 1_556 S
C806 H800 0.930 . S
C806 C807 1.355 . S
C806 C808 1.415 . S
C807 C806 1.355 . S
C807 C809 1.419 1_655 S
C808 C806 1.415 . S
C808 C813 1.425 1_655 S
C808 C815 1.409 . S
C809 H801 0.930 . S
C809 C807 1.419 1_455 S
C809 C810 1.362 . S
C810 H802 0.930 . S
C810 C809 1.362 . S
C810 C813 1.409 . S
C811 H803 0.930 . S
C811 C812 1.355 . S
C811 C813 1.415 . S
C812 C811 1.355 . S
C812 C814 1.419 1_455 S
C813 C808 1.425 1_455 S
C813 C810 1.409 . S
C813 C811 1.415 . S
C814 H804 0.930 . S
C814 C812 1.419 1_655 S
C814 C815 1.362 . S
C815 H805 0.930 1_554 S
C815 C808 1.409 . S
C815 C814 1.362 . S
H816 C822 0.930 . S
H817 C825 0.930 . S
H818 C826 0.930 . S
H819 C827 0.930 . S
H820 C830 0.930 . S
H821 C831 0.930 . S
C822 H816 0.930 . S
C822 C823 1.355 . S
C822 C824 1.415 . S
C823 C822 1.355 . S
C823 C825 1.419 . S
C824 C822 1.415 . S
C824 C829 1.425 . S
C824 C831 1.409 . S
C825 H817 0.930 . S
C825 C823 1.419 . S
C825 C826 1.362 . S
C826 H818 0.930 . S
C826 C825 1.362 . S
C826 C829 1.409 . S
C827 H819 0.930 . S
C827 C828 1.355 . S
C827 C829 1.415 . S
C828 C827 1.355 . S
C828 C830 1.419 . S
C829 C824 1.425 . S
C829 C826 1.409 . S
C829 C827 1.415 . S
C830 H820 0.930 . S
C830 C828 1.419 . S
C830 C831 1.362 . S
C831 H821 0.930 . S
C831 C824 1.409 . S
C831 C830 1.362 . S
H832 C838 0.930 . S
H833 C841 0.930 . S
H834 C842 0.930 . S
H835 C843 0.930 . S
H836 C846 0.930 . S
H837 C847 0.930 . S
C838 H832 0.930 . S
C838 C839 1.355 . S
C838 C840 1.415 . S
C839 C838 1.355 . S
C839 C841 1.419 . S
C840 C838 1.415 . S
C840 C845 1.425 1_545 S
C840 C847 1.409 1_545 S
C841 H833 0.930 . S
C841 C839 1.419 . S
C841 C842 1.362 . S
C842 H834 0.930 . S
C842 C841 1.362 . S
C842 C845 1.409 1_545 S
C843 H835 0.930 . S
C843 C844 1.355 . S
C843 C845 1.415 . S
C844 C843 1.355 . S
C844 C846 1.419 . S
C845 C840 1.425 1_565 S
C845 C842 1.409 1_565 S
C845 C843 1.415 . S
C846 H836 0.930 . S
C846 C844 1.419 . S
C846 C847 1.362 . S
C847 H837 0.930 . S
C847 C840 1.409 1_565 S
C847 C846 1.362 . S
H848 C854 0.930 . S
H849 C857 0.930 . S
H850 C858 0.930 . S
H851 C859 0.930 . S
H852 C862 0.930 . S
H853 C863 0.930 . S
C854 H848 0.930 . S
C854 C855 1.355 . S
C854 C856 1.415 . S
C855 C854 1.355 . S
C855 C857 1.419 1_554 S
C856 C854 1.415 . S
C856 C861 1.425 1_554 S
C856 C863 1.409 . S
C857 H849 0.930 . S
C857 C855 1.419 1_556 S
C857 C858 1.362 . S
C858 H850 0.930 . S
C858 C857 1.362 . S
C858 C861 1.409 . S
C859 H851 0.930 . S
C859 C860 1.355 . S
C859 C861 1.415 . S
C860 C859 1.355 . S
C860 C862 1.419 1_556 S
C861 C856 1.425 1_556 S
C861 C858 1.409 . S
C861 C859 1.415 . S
C862 H852 0.930 . S
C862 C860 1.419 1_554 S
C862 C863 1.362 . S
C863 H853 0.930 . S
C863 C856 1.409 . S
C863 C862 1.362 . S
H864 C870 0.930 . S
H865 C873 0.930 . S
H866 C874 0.930 . S
H867 C875 0.930 . S
H868 C878 0.930 . S
H869 C879 0.930 . S
C870 H864 0.930 . S
C870 C871 1.355 . S
C870 C872 1.415 . S
C871 C870 1.355 . S
C871 C873 1.419 . S
C872 C870 1.415 . S
C872 C877 1.425 1_545 S
C872 C879 1.409 1_545 S
C873 H865 0.930 . S
C873 C871 1.419 . S
C873 C874 1.362 . S
C874 H866 0.930 . S
C874 C873 1.362 . S
C874 C877 1.409 1_545 S
C875 H867 0.930 . S
C875 C876 1.355 . S
C875 C877 1.415 . S
C876 C875 1.355 . S
C876 C878 1.419 . S
C877 C872 1.425 1_565 S
C877 C874 1.409 1_565 S
C877 C875 1.415 . S
C878 H868 0.930 . S
C878 C876 1.419 . S
C878 C879 1.362 . S
C879 H869 0.930 . S
C879 C872 1.409 1_565 S
C879 C878 1.362 . S
H880 C886 0.930 . S
H881 C889 0.930 . S
H882 C890 0.930 . S
H883 C891 0.930 . S
H884 C894 0.930 . S
H885 C895 0.930 . S
C886 H880 0.930 . S
C886 C887 1.355 . S
C886 C888 1.415 . S
C887 C886 1.355 . S
C887 C889 1.419 1_556 S
C888 C886 1.415 . S
C888 C893 1.425 1_556 S
C888 C895 1.409 . S
C889 H881 0.930 . S
C889 C887 1.419 1_554 S
C889 C890 1.362 . S
C890 H882 0.930 . S
C890 C889 1.362 . S
C890 C893 1.409 . S
C891 H883 0.930 . S
C891 C892 1.355 . S
C891 C893 1.415 . S
C892 C891 1.355 . S
C892 C894 1.419 1_554 S
C893 C888 1.425 1_554 S
C893 C890 1.409 . S
C893 C891 1.415 . S
C894 H884 0.930 . S
C894 C892 1.419 1_556 S
C894 C895 1.362 . S
C895 H885 0.930 . S
C895 C888 1.409 . S
C895 C894 1.362 . S
H896 C902 0.930 . S
H897 C905 0.930 . S
H898 C906 0.930 . S
H899 C907 0.930 . S
H900 C910 0.930 . S
H901 C911 0.930 . S
C902 H896 0.930 . S
C902 C903 1.355 . S
C902 C904 1.415 . S
C903 C902 1.355 . S
C903 C905 1.419 . S
C904 C902 1.415 . S
C904 C909 1.425 . S
C904 C911 1.409 . S
C905 H897 0.930 . S
C905 C903 1.419 . S
C905 C906 1.362 . S
C906 H898 0.930 . S
C906 C905 1.362 . S
C906 C909 1.409 . S
C907 H899 0.930 . S
C907 C908 1.355 . S
C907 C909 1.415 . S
C908 C907 1.355 . S
C908 C910 1.419 . S
C909 C904 1.425 . S
C909 C906 1.409 . S
C909 C907 1.415 . S
C910 H900 0.930 . S
C910 C908 1.419 . S
C910 C911 1.362 . S
C911 H901 0.930 . S
C911 C904 1.409 . S
C911 C910 1.362 . S
H912 C918 0.930 . S
H913 C921 0.930 . S
H914 C922 0.930 . S
H915 C923 0.930 . S
H916 C926 0.930 . S
H917 C927 0.930 . S
C918 H912 0.930 . S
C918 C919 1.355 . S
C918 C920 1.415 . S
C919 C918 1.355 . S
C919 C921 1.419 . S
C920 C918 1.415 . S
C920 C925 1.425 . S
C920 C927 1.409 . S
C921 H913 0.930 . S
C921 C919 1.419 . S
C921 C922 1.362 . S
C922 H914 0.930 . S
C922 C921 1.362 . S
C922 C925 1.409 . S
C923 H915 0.930 . S
C923 C924 1.355 . S
C923 C925 1.415 . S
C924 C923 1.355 . S
C924 C926 1.419 . S
C925 C920 1.425 . S
C925 C922 1.409 . S
C925 C923 1.415 . S
C926 H916 0.930 . S
C926 C924 1.419 . S
C926 C927 1.362 . S
C927 H917 0.930 . S
C927 C920 1.409 . S
C927 C926 1.362 . S
H928 C934 0.930 . S
H929 C937 0.930 . S
H930 C938 0.930 . S
H931 C939 0.930 . S
H932 C942 0.930 . S
H933 C943 0.930 . S
C934 H928 0.930 . S
C934 C935 1.355 . S
C934 C936 1.415 . S
C935 C934 1.355 . S
C935 C937 1.419 . S
C936 C934 1.415 . S
C936 C941 1.425 1_554 S
C936 C943 1.409 1_554 S
C937 H929 0.930 . S
C937 C935 1.419 . S
C937 C938 1.362 . S
C938 H930 0.930 . S
C938 C937 1.362 . S
C938 C941 1.409 1_554 S
C939 H931 0.930 . S
C939 C940 1.355 . S
C939 C941 1.415 . S
C940 C939 1.355 . S
C940 C942 1.419 . S
C941 C936 1.425 1_556 S
C941 C938 1.409 1_556 S
C941 C939 1.415 . S
C942 H932 0.930 . S
C942 C940 1.419 . S
C942 C943 1.362 . S
C943 H933 0.930 . S
C943 C936 1.409 1_556 S
C943 C942 1.362 . S
H944 C950 0.930 . S
H945 C953 0.930 . S
H946 C954 0.930 . S
H947 C955 0.930 . S
H948 C958 0.930 . S
H949 C959 0.930 . S
C950 H944 0.930 . S
C950 C951 1.355 . S
C950 C952 1.415 . S
C951 C950 1.355 . S
C951 C953 1.419 . S
C952 C950 1.415 . S
C952 C957 1.425 . S
C952 C959 1.409 . S
C953 H945 0.930 . S
C953 C951 1.419 . S
C953 C954 1.362 . S
C954 H946 0.930 . S
C954 C953 1.362 . S
C954 C957 1.409 . S
C955 H947 0.930 . S
C955 C956 1.355 . S
C955 C957 1.415 . S
C956 C955 1.355 . S
C956 C958 1.419 . S
C957 C952 1.425 . S
C957 C954 1.409 . S
C957 C955 1.415 . S
C958 H948 0.930 . S
C958 C956 1.419 . S
C958 C959 1.362 . S
C959 H949 0.930 . S
C959 C952 1.409 . S
C959 C958 1.362 . S
H960 C966 0.930 . S
H961 C969 0.930 . S
H962 C970 0.930 . S
H963 C971 0.930 . S
H964 C974 0.930 . S
H965 C975 0.930 . S
C966 H960 0.930 . S
C966 C967 1.355 . S
C966 C968 1.415 . S
C967 C966 1.355 . S
C967 C969 1.419 . S
C968 C966 1.415 . S
C968 C973 1.425 . S
C968 C975 1.409 . S
C969 H961 0.930 . S
C969 C967 1.419 . S
C969 C970 1.362 . S
C970 H962 0.930 . S
C970 C969 1.362 . S
C970 C973 1.409 . S
C971 H963 0.930 . S
C971 C972 1.355 . S
C971 C973 1.415 . S
C972 C971 1.355 . S
C972 C974 1.419 . S
C973 C968 1.425 . S
C973 C970 1.409 . S
C973 C971 1.415 . S
C974 H964 0.930 . S
C974 C972 1.419 . S
C974 C975 1.362 . S
C975 H965 0.930 . S
C975 C968 1.409 . S
C975 C974 1.362 . S
H976 C982 0.930 . S
H977 C985 0.930 . S
H978 C986 0.930 . S
H979 C987 0.930 . S
H980 C990 0.930 . S
H981 C991 0.930 . S
C982 H976 0.930 . S
C982 C983 1.355 . S
C982 C984 1.415 . S
C983 C982 1.355 . S
C983 C985 1.419 . S
C984 C982 1.415 . S
C984 C989 1.425 . S
C984 C991 1.409 . S
C985 H977 0.930 . S
C985 C983 1.419 . S
C985 C986 1.362 . S
C986 H978 0.930 . S
C986 C985 1.362 . S
C986 C989 1.409 . S
C987 H979 0.930 . S
C987 C988 1.355 . S
C987 C989 1.415 . S
C988 C987 1.355 . S
C988 C990 1.419 . S
C989 C984 1.425 . S
C989 C986 1.409 . S
C989 C987 1.415 . S
C990 H980 0.930 . S
C990 C988 1.419 . S
C990 C991 1.362 . S
C991 H981 0.930 . S
C991 C984 1.409 . S
C991 C990 1.362 . S
H992 C998 0.930 . S
H993 C1001 0.930 . S
H994 C1002 0.930 . S
H995 C1003 0.930 . S
H996 C1006 0.930 . S
H997 C1007 0.930 . S
C998 H992 0.930 . S
C998 C999 1.355 . S
C998 C1000 1.415 . S
C999 C998 1.355 . S
C999 C1001 1.419 . S
C1000 C998 1.415 . S
C1000 C1005 1.425 . S
C1000 C1007 1.409 . S
C1001 H993 0.930 . S
C1001 C999 1.419 . S
C1001 C1002 1.362 . S
C1002 H994 0.930 . S
C1002 C1001 1.362 . S
C1002 C1005 1.409 . S
C1003 H995 0.930 . S
C1003 C1004 1.355 . S
C1003 C1005 1.415 . S
C1004 C1003 1.355 . S
C1004 C1006 1.419 . S
C1005 C1000 1.425 . S
C1005 C1002 1.409 . S
C1005 C1003 1.415 . S
C1006 H996 0.930 . S
C1006 C1004 1.419 . S
C1006 C1007 1.362 . S
C1007 H997 0.930 . S
C1007 C1000 1.409 . S
C1007 C1006 1.362 . S
H1008 C1014 0.930 . S
H1009 C1017 0.930 . S
H1010 C1018 0.930 . S
H1011 C1019 0.930 . S
H1012 C1022 0.930 . S
H1013 C1023 0.930 . S
C1014 H1008 0.930 . S
C1014 C1015 1.355 . S
C1014 C1016 1.415 . S
C1015 C1014 1.355 . S
C1015 C1017 1.419 . S
C1016 C1014 1.415 . S
C1016 C1021 1.425 . S
C1016 C1023 1.409 . S
C1017 H1009 0.930 . S
C1017 C1015 1.419 . S
C1017 C1018 1.362 . S
C1018 H1010 0.930 . S
C1018 C1017 1.362 . S
C1018 C1021 1.409 . S
C1019 H1011 0.930 . S
C1019 C1020 1.355 . S
C1019 C1021 1.415 . S
C1020 C1019 1.355 . S
C1020 C1022 1.419 . S
C1021 C1016 1.425 . S
C1021 C1018 1.409 . S
C1021 C1019 1.415 . S
C1022 H1012 0.930 . S
C1022 C1020 1.419 . S
C1022 C1023 1.362 . S
C1023 H1013 0.930 . S
C1023 C1016 1.409 . S
C1023 C1022 1.362 . S
H1024 C1030 0.930 . S
H1025 C1033 0.930 . S
H1026 C1034 0.930 . S
H1027 C1035 0.930 . S
H1028 C1038 0.930 . S
H1029 C1039 0.930 . S
C1030 H1024 0.930 . S
C1030 C1031 1.355 . S
C1030 C1032 1.415 . S
C1031 C1030 1.355 . S
C1031 C1033 1.419 . S
C1032 C1030 1.415 . S
C1032 C1037 1.425 . S
C1032 C1039 1.409 . S
C1033 H1025 0.930 . S
C1033 C1031 1.419 . S
C1033 C1034 1.362 . S
C1034 H1026 0.930 . S
C1034 C1033 1.362 . S
C1034 C1037 1.409 . S
C1035 H1027 0.930 . S
C1035 C1036 1.355 . S
C1035 C1037 1.415 . S
C1036 C1035 1.355 . S
C1036 C1038 1.419 . S
C1037 C1032 1.425 . S
C1037 C1034 1.409 . S
C1037 C1035 1.415 . S
C1038 H1028 0.930 . S
C1038 C1036 1.419 . S
C1038 C1039 1.362 . S
C1039 H1029 0.930 . S
C1039 C1032 1.409 . S
C1039 C1038 1.362 . S
H1040 C1046 0.930 . S
H1041 C1049 0.930 . S
H1042 C1050 0.930 . S
H1043 C1051 0.930 . S
H1044 C1054 0.930 . S
H1045 C1055 0.930 . S
C1046 H1040 0.930 . S
C1046 C1047 1.355 . S
C1046 C1048 1.415 . S
C1047 C1046 1.355 . S
C1047 C1049 1.419 . S
C1048 C1046 1.415 . S
C1048 C1053 1.425 . S
C1048 C1055 1.409 . S
C1049 H1041 0.930 . S
C1049 C1047 1.419 . S
C1049 C1050 1.362 . S
C1050 H1042 0.930 . S
C1050 C1049 1.362 . S
C1050 C1053 1.409 . S
C1051 H1043 0.930 . S
C1051 C1052 1.355 . S
C1051 C1053 1.415 . S
C1052 C1051 1.355 . S
C1052 C1054 1.419 . S
C1053 C1048 1.425 . S
C1053 C1050 1.409 . S
C1053 C1051 1.415 . S
C1054 H1044 0.930 . S
C1054 C1052 1.419 . S
C1054 C1055 1.362 . S
C1055 H1045 0.930 . S
C1055 C1048 1.409 . S
C1055 C1054 1.362 . S
H1056 C1062 0.930 . S
H1057 C1065 0.904 1_556 S
H1058 C1066 0.930 . S
H1059 C1067 0.930 . S
H1060 C1070 0.930 . S
H1061 C1071 0.930 . S
C1062 H1056 0.930 . S
C1062 C1063 1.355 . S
C1062 C1064 1.415 . S
C1063 C1062 1.355 . S
C1063 C1065 1.419 . S
C1064 C1062 1.415 . S
C1064 C1069 1.425 . S
C1064 C1071 1.409 . S
C1065 H1057 0.904 1_554 S
C1065 C1063 1.419 . S
C1065 C1066 1.362 . S
C1066 H1058 0.930 . S
C1066 C1065 1.362 . S
C1066 C1069 1.409 . S
C1067 H1059 0.930 . S
C1067 C1068 1.355 . S
C1067 C1069 1.415 . S
C1068 C1067 1.355 . S
C1068 C1070 1.419 . S
C1069 C1064 1.425 . S
C1069 C1066 1.409 . S
C1069 C1067 1.415 . S
C1070 H1060 0.930 . S
C1070 C1068 1.419 . S
C1070 C1071 1.362 . S
C1071 H1061 0.930 . S
C1071 C1064 1.409 . S
C1071 C1070 1.362 . S
H1072 C1078 0.930 . S
H1073 C1081 0.930 . S
H1074 C1082 0.930 . S
H1075 C1083 0.930 . S
H1076 C1086 0.930 . S
H1077 C1087 0.930 . S
C1078 H1072 0.930 . S
C1078 C1079 1.355 . S
C1078 C1080 1.415 . S
C1079 C1078 1.355 . S
C1079 C1081 1.419 . S
C1080 C1078 1.415 . S
C1080 C1085 1.425 . S
C1080 C1087 1.409 . S
C1081 H1073 0.930 . S
C1081 C1079 1.419 . S
C1081 C1082 1.362 . S
C1082 H1074 0.930 . S
C1082 C1081 1.362 . S
C1082 C1085 1.409 . S
C1083 H1075 0.930 . S
C1083 C1084 1.355 . S
C1083 C1085 1.415 . S
C1084 C1083 1.355 . S
C1084 C1086 1.419 . S
C1085 C1080 1.425 . S
C1085 C1082 1.409 . S
C1085 C1083 1.415 . S
C1086 H1076 0.930 . S
C1086 C1084 1.419 . S
C1086 C1087 1.362 . S
C1087 H1077 0.930 . S
C1087 C1080 1.409 . S
C1087 C1086 1.362 . S
H1088 C1094 0.930 . S
H1089 C1097 0.930 . S
H1090 C1098 0.930 . S
H1091 C1099 0.930 . S
H1092 C1102 0.930 . S
H1093 C1103 0.930 . S
C1094 H1088 0.930 . S
C1094 C1095 1.355 . S
C1094 C1096 1.415 . S
C1095 C1094 1.355 . S
C1095 C1097 1.419 . S
C1096 C1094 1.415 . S
C1096 C1101 1.425 . S
C1096 C1103 1.409 . S
C1097 H1089 0.930 . S
C1097 C1095 1.419 . S
C1097 C1098 1.362 . S
C1098 H1090 0.930 . S
C1098 C1097 1.362 . S
C1098 C1101 1.409 . S
C1099 H1091 0.930 . S
C1099 C1100 1.355 . S
C1099 C1101 1.415 . S
C1100 C1099 1.355 . S
C1100 C1102 1.419 . S
C1101 C1096 1.425 . S
C1101 C1098 1.409 . S
C1101 C1099 1.415 . S
C1102 H1092 0.930 . S
C1102 C1100 1.419 . S
C1102 C1103 1.362 . S
C1103 H1093 0.930 . S
C1103 C1096 1.409 . S
C1103 C1102 1.362 . S
H1104 C1110 0.930 . S
H1105 C1113 0.930 . S
H1106 C1114 0.930 . S
H1107 C1115 0.930 . S
H1108 C1118 0.930 . S
H1109 C1119 0.930 . S
C1110 H1104 0.930 . S
C1110 C1111 1.355 . S
C1110 C1112 1.415 . S
C1111 C1110 1.355 . S
C1111 C1113 1.419 . S
C1112 C1110 1.415 . S
C1112 C1117 1.425 . S
C1112 C1119 1.409 . S
C1113 H1105 0.930 . S
C1113 C1111 1.419 . S
C1113 C1114 1.362 . S
C1114 H1106 0.930 . S
C1114 C1113 1.362 . S
C1114 C1117 1.409 . S
C1115 H1107 0.930 . S
C1115 C1116 1.355 . S
C1115 C1117 1.415 . S
C1116 C1115 1.355 . S
C1116 C1118 1.419 . S
C1117 C1112 1.425 . S
C1117 C1114 1.409 . S
C1117 C1115 1.415 . S
C1118 H1108 0.930 . S
C1118 C1116 1.419 . S
C1118 C1119 1.362 . S
C1119 H1109 0.930 . S
C1119 C1112 1.409 . S
C1119 C1118 1.362 . S
H1120 C1126 0.930 . S
H1121 C1129 0.930 . S
H1122 C1130 0.930 . S
H1123 C1131 0.930 . S
H1124 C1134 0.930 . S
H1125 C1135 0.930 . S
C1126 H1120 0.930 . S
C1126 C1127 1.355 . S
C1126 C1128 1.415 . S
C1127 C1126 1.355 . S
C1127 C1129 1.419 . S
C1128 C1126 1.415 . S
C1128 C1133 1.425 . S
C1128 C1135 1.409 . S
C1129 H1121 0.930 . S
C1129 C1127 1.419 . S
C1129 C1130 1.362 . S
C1130 H1122 0.930 . S
C1130 C1129 1.362 . S
C1130 C1133 1.409 . S
C1131 H1123 0.930 . S
C1131 C1132 1.355 . S
C1131 C1133 1.415 . S
C1132 C1131 1.355 . S
C1132 C1134 1.419 . S
C1133 C1128 1.425 . S
C1133 C1130 1.409 . S
C1133 C1131 1.415 . S
C1134 H1124 0.930 . S
C1134 C1132 1.419 . S
C1134 C1135 1.362 . S
C1135 H1125 0.930 . S
C1135 C1128 1.409 . S
C1135 C1134 1.362 . S
H1136 C1142 0.930 . S
H1137 C1145 0.930 . S
H1138 C1146 0.930 . S
H1139 C1147 0.930 . S
H1140 C1150 0.930 . S
H1141 C1151 0.930 . S
C1142 H1136 0.930 . S
C1142 C1143 1.355 . S
C1142 C1144 1.415 . S
C1143 C1142 1.355 . S
C1143 C1145 1.419 . S
C1144 C1142 1.415 . S
C1144 C1149 1.425 . S
C1144 C1151 1.409 . S
C1145 H1137 0.930 . S
C1145 C1143 1.419 . S
C1145 C1146 1.362 . S
C1146 H1138 0.930 . S
C1146 C1145 1.362 . S
C1146 C1149 1.409 . S
C1147 H1139 0.930 . S
C1147 C1148 1.355 . S
C1147 C1149 1.415 . S
C1148 C1147 1.355 . S
C1148 C1150 1.419 . S
C1149 C1144 1.425 . S
C1149 C1146 1.409 . S
C1149 C1147 1.415 . S
C1150 H1140 0.930 . S
C1150 C1148 1.419 . S
C1150 C1151 1.362 . S
C1151 H1141 0.930 . S
C1151 C1144 1.409 . S
C1151 C1150 1.362 . S
H1152 C1158 0.930 . S
H1153 C1161 0.930 . S
H1154 C1162 0.930 . S
H1155 C1163 0.930 . S
H1156 C1166 0.930 . S
H1157 C1167 0.930 . S
C1158 H1152 0.930 . S
C1158 C1159 1.355 . S
C1158 C1160 1.415 . S
C1159 C1158 1.355 . S
C1159 C1161 1.419 . S
C1160 C1158 1.415 . S
C1160 C1165 1.425 . S
C1160 C1167 1.409 . S
C1161 H1153 0.930 . S
C1161 C1159 1.419 . S
C1161 C1162 1.362 . S
C1162 H1154 0.930 . S
C1162 C1161 1.362 . S
C1162 C1165 1.409 . S
C1163 H1155 0.930 . S
C1163 C1164 1.355 . S
C1163 C1165 1.415 . S
C1164 C1163 1.355 . S
C1164 C1166 1.419 . S
C1165 C1160 1.425 . S
C1165 C1162 1.409 . S
C1165 C1163 1.415 . S
C1166 H1156 0.930 . S
C1166 C1164 1.419 . S
C1166 C1167 1.362 . S
C1167 H1157 0.930 . S
C1167 C1160 1.409 . S
C1167 C1166 1.362 . S
H1168 C1174 0.930 . S
H1169 C1177 0.930 . S
H1170 C1178 0.930 . S
H1171 C1179 0.930 . S
H1172 C1182 0.930 . S
H1173 C1183 0.930 . S
C1174 H1168 0.930 . S
C1174 C1175 1.355 . S
C1174 C1176 1.415 . S
C1175 C1174 1.355 . S
C1175 C1177 1.419 . S
C1176 C1174 1.415 . S
C1176 C1181 1.425 . S
C1176 C1183 1.409 . S
C1177 H1169 0.930 . S
C1177 C1175 1.419 . S
C1177 C1178 1.362 . S
C1178 H1170 0.930 . S
C1178 C1177 1.362 . S
C1178 C1181 1.409 . S
C1179 H1171 0.930 . S
C1179 C1180 1.355 . S
C1179 C1181 1.415 . S
C1180 C1179 1.355 . S
C1180 C1182 1.419 . S
C1181 C1176 1.425 . S
C1181 C1178 1.409 . S
C1181 C1179 1.415 . S
C1182 H1172 0.930 . S
C1182 C1180 1.419 . S
C1182 C1183 1.362 . S
C1183 H1173 0.930 . S
C1183 C1176 1.409 . S
C1183 C1182 1.362 . S
H1184 C1190 0.930 . S
H1185 C1193 0.930 . S
H1186 C1194 0.930 . S
H1187 C1195 0.930 . S
H1188 C1198 0.930 . S
H1189 C1199 0.930 . S
C1190 H1184 0.930 . S
C1190 C1191 1.355 . S
C1190 C1192 1.415 . S
C1191 C1190 1.355 . S
C1191 C1193 1.419 . S
C1192 C1190 1.415 . S
C1192 C1197 1.425 . S
C1192 C1199 1.409 . S
C1193 H1185 0.930 . S
C1193 C1191 1.419 . S
C1193 C1194 1.362 . S
C1194 H1186 0.930 . S
C1194 C1193 1.362 . S
C1194 C1197 1.409 . S
C1195 H1187 0.930 . S
C1195 C1196 1.355 . S
C1195 C1197 1.415 . S
C1196 C1195 1.355 . S
C1196 C1198 1.419 . S
C1197 C1192 1.425 . S
C1197 C1194 1.409 . S
C1197 C1195 1.415 . S
C1198 H1188 0.930 . S
C1198 C1196 1.419 . S
C1198 C1199 1.362 . S
C1199 H1189 0.930 . S
C1199 C1192 1.409 . S
C1199 C1198 1.362 . S
H1200 C1206 0.930 . S
H1201 C1209 0.930 . S
H1202 C1210 0.930 . S
H1203 C1211 0.930 . S
H1204 C1214 0.930 . S
H1205 C1215 0.930 . S
C1206 H1200 0.930 . S
C1206 C1207 1.355 . S
C1206 C1208 1.415 . S
C1207 C1206 1.355 . S
C1207 C1209 1.419 . S
C1208 C1206 1.415 . S
C1208 C1213 1.425 . S
C1208 C1215 1.409 . S
C1209 H1201 0.930 . S
C1209 C1207 1.419 . S
C1209 C1210 1.362 . S
C1210 H1202 0.930 . S
C1210 C1209 1.362 . S
C1210 C1213 1.409 . S
C1211 H1203 0.930 . S
C1211 C1212 1.355 . S
C1211 C1213 1.415 . S
C1212 C1211 1.355 . S
C1212 C1214 1.419 . S
C1213 C1208 1.425 . S
C1213 C1210 1.409 . S
C1213 C1211 1.415 . S
C1214 H1204 0.930 . S
C1214 C1212 1.419 . S
C1214 C1215 1.362 . S
C1215 H1205 0.930 . S
C1215 C1208 1.409 . S
C1215 C1214 1.362 . S
H1216 C1222 0.930 . S
H1217 C1225 0.930 1_565 S
H1218 C1226 0.930 . S
H1219 C1227 0.930 . S
H1220 C1230 0.930 . S
H1221 C1231 0.930 . S
C1222 H1216 0.930 . S
C1222 C1223 1.355 . S
C1222 C1224 1.415 . S
C1223 C1222 1.355 . S
C1223 C1225 1.419 . S
C1224 C1222 1.415 . S
C1224 C1229 1.425 . S
C1224 C1231 1.409 . S
C1225 H1217 0.930 1_545 S
C1225 C1223 1.419 . S
C1225 C1226 1.362 . S
C1226 H1218 0.930 . S
C1226 C1225 1.362 . S
C1226 C1229 1.409 . S
C1227 H1219 0.930 . S
C1227 C1228 1.355 . S
C1227 C1229 1.415 . S
C1228 C1227 1.355 . S
C1228 C1230 1.419 . S
C1229 C1224 1.425 . S
C1229 C1226 1.409 . S
C1229 C1227 1.415 . S
C1230 H1220 0.930 . S
C1230 C1228 1.419 . S
C1230 C1231 1.362 . S
C1231 H1221 0.930 . S
C1231 C1224 1.409 . S
C1231 C1230 1.362 . S
H1232 C1238 0.930 . S
H1233 C1241 0.930 . S
H1234 C1242 0.930 . S
H1235 C1243 0.930 . S
H1236 C1246 0.930 . S
H1237 C1247 0.930 . S
C1238 H1232 0.930 . S
C1238 C1239 1.355 . S
C1238 C1240 1.415 . S
C1239 C1238 1.355 . S
C1239 C1241 1.419 . S
C1240 C1238 1.415 . S
C1240 C1245 1.425 . S
C1240 C1247 1.409 . S
C1241 H1233 0.930 . S
C1241 C1239 1.419 . S
C1241 C1242 1.362 . S
C1242 H1234 0.930 . S
C1242 C1241 1.362 . S
C1242 C1245 1.409 . S
C1243 H1235 0.930 . S
C1243 C1244 1.355 . S
C1243 C1245 1.415 . S
C1244 C1243 1.355 . S
C1244 C1246 1.419 . S
C1245 C1240 1.425 . S
C1245 C1242 1.409 . S
C1245 C1243 1.415 . S
C1246 H1236 0.930 . S
C1246 C1244 1.419 . S
C1246 C1247 1.362 . S
C1247 H1237 0.930 . S
C1247 C1240 1.409 . S
C1247 C1246 1.362 . S
H1248 C1254 0.930 . S
H1249 C1257 0.930 . S
H1250 C1258 0.930 . S
H1251 C1259 0.930 . S
H1252 C1262 0.930 1_545 S
H1253 C1263 0.930 . S
C1254 H1248 0.930 . S
C1254 C1255 1.355 . S
C1254 C1256 1.415 . S
C1255 C1254 1.355 . S
C1255 C1257 1.419 . S
C1256 C1254 1.415 . S
C1256 C1261 1.425 . S
C1256 C1263 1.409 . S
C1257 H1249 0.930 . S
C1257 C1255 1.419 . S
C1257 C1258 1.362 . S
C1258 H1250 0.930 . S
C1258 C1257 1.362 . S
C1258 C1261 1.409 . S
C1259 H1251 0.930 . S
C1259 C1260 1.355 . S
C1259 C1261 1.415 . S
C1260 C1259 1.355 . S
C1260 C1262 1.419 . S
C1261 C1256 1.425 . S
C1261 C1258 1.409 . S
C1261 C1259 1.415 . S
C1262 H1252 0.930 1_565 S
C1262 C1260 1.419 . S
C1262 C1263 1.362 . S
C1263 H1253 0.930 . S
C1263 C1256 1.409 . S
C1263 C1262 1.362 . S
H1264 C1270 0.930 . S
H1265 C1273 0.930 . S
H1266 C1274 0.930 . S
H1267 C1275 0.930 . S
H1268 C1278 0.930 . S
H1269 C1279 0.930 . S
C1270 H1264 0.930 . S
C1270 C1271 1.355 . S
C1270 C1272 1.415 . S
C1271 C1270 1.355 . S
C1271 C1273 1.419 . S
C1272 C1270 1.415 . S
C1272 C1277 1.425 . S
C1272 C1279 1.409 . S
C1273 H1265 0.930 . S
C1273 C1271 1.419 . S
C1273 C1274 1.362 . S
C1274 H1266 0.930 . S
C1274 C1273 1.362 . S
C1274 C1277 1.409 . S
C1275 H1267 0.930 . S
C1275 C1276 1.355 . S
C1275 C1277 1.415 . S
C1276 C1275 1.355 . S
C1276 C1278 1.419 . S
C1277 C1272 1.425 . S
C1277 C1274 1.409 . S
C1277 C1275 1.415 . S
C1278 H1268 0.930 . S
C1278 C1276 1.419 . S
C1278 C1279 1.362 . S
C1279 H1269 0.930 . S
C1279 C1272 1.409 . S
C1279 C1278 1.362 . S
H1280 C1286 0.930 . S
H1281 C1289 0.930 . S
H1282 C1290 0.930 . S
H1283 C1291 0.930 . S
H1284 C1294 0.930 . S
H1285 C1295 0.930 . S
C1286 H1280 0.930 . S
C1286 C1287 1.355 . S
C1286 C1288 1.415 . S
C1287 C1286 1.355 . S
C1287 C1289 1.419 . S
C1288 C1286 1.415 . S
C1288 C1293 1.425 . S
C1288 C1295 1.409 . S
C1289 H1281 0.930 . S
C1289 C1287 1.419 . S
C1289 C1290 1.362 . S
C1290 H1282 0.930 . S
C1290 C1289 1.362 . S
C1290 C1293 1.409 . S
C1291 H1283 0.930 . S
C1291 C1292 1.355 . S
C1291 C1293 1.415 . S
C1292 C1291 1.355 . S
C1292 C1294 1.419 . S
C1293 C1288 1.425 . S
C1293 C1290 1.409 . S
C1293 C1291 1.415 . S
C1294 H1284 0.930 . S
C1294 C1292 1.419 . S
C1294 C1295 1.362 . S
C1295 H1285 0.930 . S
C1295 C1288 1.409 . S
C1295 C1294 1.362 . S
H1296 C1302 0.930 . S
H1297 C1305 0.930 . S
H1298 C1306 0.930 . S
H1299 C1307 0.930 . S
H1300 C1310 0.930 . S
H1301 C1311 0.930 . S
C1302 H1296 0.930 . S
C1302 C1303 1.355 . S
C1302 C1304 1.415 . S
C1303 C1302 1.355 . S
C1303 C1305 1.419 . S
C1304 C1302 1.415 . S
C1304 C1309 1.425 . S
C1304 C1311 1.409 . S
C1305 H1297 0.930 . S
C1305 C1303 1.419 . S
C1305 C1306 1.362 . S
C1306 H1298 0.930 . S
C1306 C1305 1.362 . S
C1306 C1309 1.409 . S
C1307 H1299 0.930 . S
C1307 C1308 1.355 . S
C1307 C1309 1.415 . S
C1308 C1307 1.355 . S
C1308 C1310 1.419 . S
C1309 C1304 1.425 . S
C1309 C1306 1.409 . S
C1309 C1307 1.415 . S
C1310 H1300 0.930 . S
C1310 C1308 1.419 . S
C1310 C1311 1.362 . S
C1311 H1301 0.930 . S
C1311 C1304 1.409 . S
C1311 C1310 1.362 . S
H1312 C1318 0.930 . S
H1313 C1321 0.930 . S
H1314 C1322 0.930 . S
H1315 C1323 0.930 . S
H1316 C1326 0.930 . S
H1317 C1327 0.930 . S
C1318 H1312 0.930 . S
C1318 C1319 1.355 . S
C1318 C1320 1.415 . S
C1319 C1318 1.355 . S
C1319 C1321 1.419 . S
C1320 C1318 1.415 . S
C1320 C1325 1.425 . S
C1320 C1327 1.409 . S
C1321 H1313 0.930 . S
C1321 C1319 1.419 . S
C1321 C1322 1.362 . S
C1322 H1314 0.930 . S
C1322 C1321 1.362 . S
C1322 C1325 1.409 . S
C1323 H1315 0.930 . S
C1323 C1324 1.355 . S
C1323 C1325 1.415 . S
C1324 C1323 1.355 . S
C1324 C1326 1.419 . S
C1325 C1320 1.425 . S
C1325 C1322 1.409 . S
C1325 C1323 1.415 . S
C1326 H1316 0.930 . S
C1326 C1324 1.419 . S
C1326 C1327 1.362 . S
C1327 H1317 0.930 . S
C1327 C1320 1.409 . S
C1327 C1326 1.362 . S
H1328 C1334 0.930 . S
H1329 C1337 0.930 1_545 S
H1330 C1338 0.930 . S
H1331 C1339 0.930 . S
H1332 C1342 0.930 . S
H1333 C1343 0.930 . S
C1334 H1328 0.930 . S
C1334 C1335 1.355 . S
C1334 C1336 1.415 . S
C1335 C1334 1.355 . S
C1335 C1337 1.419 . S
C1336 C1334 1.415 . S
C1336 C1341 1.425 . S
C1336 C1343 1.409 . S
C1337 H1329 0.930 1_565 S
C1337 C1335 1.419 . S
C1337 C1338 1.362 . S
C1338 H1330 0.930 . S
C1338 C1337 1.362 . S
C1338 C1341 1.409 . S
C1339 H1331 0.930 . S
C1339 C1340 1.355 . S
C1339 C1341 1.415 . S
C1340 C1339 1.355 . S
C1340 C1342 1.419 . S
C1341 C1336 1.425 . S
C1341 C1338 1.409 . S
C1341 C1339 1.415 . S
C1342 H1332 0.930 . S
C1342 C1340 1.419 . S
C1342 C1343 1.362 . S
C1343 H1333 0.930 . S
C1343 C1336 1.409 . S
C1343 C1342 1.362 . S
H1344 C1350 0.930 . S
H1345 C1353 0.930 . S
H1346 C1354 0.930 . S
H1347 C1355 0.930 . S
H1348 C1358 0.930 . S
H1349 C1359 0.930 . S
C1350 H1344 0.930 . S
C1350 C1351 1.355 . S
C1350 C1352 1.415 . S
C1351 C1350 1.355 . S
C1351 C1353 1.419 . S
C1352 C1350 1.415 . S
C1352 C1357 1.425 . S
C1352 C1359 1.409 . S
C1353 H1345 0.930 . S
C1353 C1351 1.419 . S
C1353 C1354 1.362 . S
C1354 H1346 0.930 . S
C1354 C1353 1.362 . S
C1354 C1357 1.409 . S
C1355 H1347 0.930 . S
C1355 C1356 1.355 . S
C1355 C1357 1.415 . S
C1356 C1355 1.355 . S
C1356 C1358 1.419 . S
C1357 C1352 1.425 . S
C1357 C1354 1.409 . S
C1357 C1355 1.415 . S
C1358 H1348 0.930 . S
C1358 C1356 1.419 . S
C1358 C1359 1.362 . S
C1359 H1349 0.930 . S
C1359 C1352 1.409 . S
C1359 C1358 1.362 . S
H1360 C1366 0.930 . S
H1361 C1369 0.930 . S
H1362 C1370 0.930 . S
H1363 C1371 0.930 . S
H1364 C1374 0.930 . S
H1365 C1375 0.930 . S
C1366 H1360 0.930 . S
C1366 C1367 1.355 . S
C1366 C1368 1.415 . S
C1367 C1366 1.355 . S
C1367 C1369 1.419 . S
C1368 C1366 1.415 . S
C1368 C1373 1.425 . S
C1368 C1375 1.409 . S
C1369 H1361 0.930 . S
C1369 C1367 1.419 . S
C1369 C1370 1.362 . S
C1370 H1362 0.930 . S
C1370 C1369 1.362 . S
C1370 C1373 1.409 . S
C1371 H1363 0.930 . S
C1371 C1372 1.355 . S
C1371 C1373 1.415 . S
C1372 C1371 1.355 . S
C1372 C1374 1.419 . S
C1373 C1368 1.425 . S
C1373 C1370 1.409 . S
C1373 C1371 1.415 . S
C1374 H1364 0.930 . S
C1374 C1372 1.419 . S
C1374 C1375 1.362 . S
C1375 H1365 0.930 . S
C1375 C1368 1.409 . S
C1375 C1374 1.362 . S
H1376 C1382 0.930 . S
H1377 C1385 0.930 . S
H1378 C1386 0.930 . S
H1379 C1387 0.930 . S
H1380 C1390 0.930 . S
H1381 C1391 0.930 . S
C1382 H1376 0.930 . S
C1382 C1383 1.355 . S
C1382 C1384 1.415 . S
C1383 C1382 1.355 . S
C1383 C1385 1.419 . S
C1384 C1382 1.415 . S
C1384 C1389 1.425 . S
C1384 C1391 1.409 . S
C1385 H1377 0.930 . S
C1385 C1383 1.419 . S
C1385 C1386 1.362 . S
C1386 H1378 0.930 . S
C1386 C1385 1.362 . S
C1386 C1389 1.409 . S
C1387 H1379 0.930 . S
C1387 C1388 1.355 . S
C1387 C1389 1.415 . S
C1388 C1387 1.355 . S
C1388 C1390 1.419 . S
C1389 C1384 1.425 . S
C1389 C1386 1.409 . S
C1389 C1387 1.415 . S
C1390 H1380 0.930 . S
C1390 C1388 1.419 . S
C1390 C1391 1.362 . S
C1391 H1381 0.930 . S
C1391 C1384 1.409 . S
C1391 C1390 1.362 . S
H1392 C1398 0.930 . S
H1393 C1401 0.930 . S
H1394 C1402 0.930 . S
H1395 C1403 0.930 . S
H1396 C1406 0.930 . S
H1397 C1407 0.930 . S
C1398 H1392 0.930 . S
C1398 C1399 1.355 . S
C1398 C1400 1.415 . S
C1399 C1398 1.355 . S
C1399 C1401 1.419 . S
C1400 C1398 1.415 . S
C1400 C1405 1.425 . S
C1400 C1407 1.409 . S
C1401 H1393 0.930 . S
C1401 C1399 1.419 . S
C1401 C1402 1.362 . S
C1402 H1394 0.930 . S
C1402 C1401 1.362 . S
C1402 C1405 1.409 . S
C1403 H1395 0.930 . S
C1403 C1404 1.355 . S
C1403 C1405 1.415 . S
C1404 C1403 1.355 . S
C1404 C1406 1.419 . S
C1405 C1400 1.425 . S
C1405 C1402 1.409 . S
C1405 C1403 1.415 . S
C1406 H1396 0.930 . S
C1406 C1404 1.419 . S
C1406 C1407 1.362 . S
C1407 H1397 0.930 . S
C1407 C1400 1.409 . S
C1407 C1406 1.362 . S
H1408 C1414 0.930 . S
H1409 C1417 0.930 . S
H1410 C1418 0.930 . S
H1411 C1419 0.930 . S
H1412 C1422 0.930 . S
H1413 C1423 0.930 . S
C1414 H1408 0.930 . S
C1414 C1415 1.355 . S
C1414 C1416 1.415 . S
C1415 C1414 1.355 . S
C1415 C1417 1.419 . S
C1416 C1414 1.415 . S
C1416 C1421 1.425 . S
C1416 C1423 1.409 . S
C1417 H1409 0.930 . S
C1417 C1415 1.419 . S
C1417 C1418 1.362 . S
C1418 H1410 0.930 . S
C1418 C1417 1.362 . S
C1418 C1421 1.409 . S
C1419 H1411 0.930 . S
C1419 C1420 1.355 . S
C1419 C1421 1.415 . S
C1420 C1419 1.355 . S
C1420 C1422 1.419 . S
C1421 C1416 1.425 . S
C1421 C1418 1.409 . S
C1421 C1419 1.415 . S
C1422 H1412 0.930 . S
C1422 C1420 1.419 . S
C1422 C1423 1.362 . S
C1423 H1413 0.930 . S
C1423 C1416 1.409 . S
C1423 C1422 1.362 . S
H1424 C1430 0.930 . S
H1425 C1433 0.930 . S
H1426 C1434 0.930 . S
H1427 C1435 0.930 . S
H1428 C1438 0.930 . S
H1429 C1439 0.930 . S
C1430 H1424 0.930 . S
C1430 C1431 1.355 . S
C1430 C1432 1.415 . S
C1431 C1430 1.355 . S
C1431 C1433 1.419 . S
C1432 C1430 1.415 . S
C1432 C1437 1.425 . S
C1432 C1439 1.409 . S
C1433 H1425 0.930 . S
C1433 C1431 1.419 . S
C1433 C1434 1.362 . S
C1434 H1426 0.930 . S
C1434 C1433 1.362 . S
C1434 C1437 1.409 . S
C1435 H1427 0.930 . S
C1435 C1436 1.355 . S
C1435 C1437 1.415 . S
C1436 C1435 1.355 . S
C1436 C1438 1.419 . S
C1437 C1432 1.425 . S
C1437 C1434 1.409 . S
C1437 C1435 1.415 . S
C1438 H1428 0.930 . S
C1438 C1436 1.419 . S
C1438 C1439 1.362 . S
C1439 H1429 0.930 . S
C1439 C1432 1.409 . S
C1439 C1438 1.362 . S
H1440 C1446 0.930 . S
H1441 C1449 0.930 . S
H1442 C1450 0.930 . S
H1443 C1451 0.930 . S
H1444 C1454 0.930 . S
H1445 C1455 0.930 . S
C1446 H1440 0.930 . S
C1446 C1447 1.355 . S
C1446 C1448 1.415 . S
C1447 C1446 1.355 . S
C1447 C1449 1.419 . S
C1448 C1446 1.415 . S
C1448 C1453 1.425 . S
C1448 C1455 1.409 . S
C1449 H1441 0.930 . S
C1449 C1447 1.419 . S
C1449 C1450 1.362 . S
C1450 H1442 0.930 . S
C1450 C1449 1.362 . S
C1450 C1453 1.409 . S
C1451 H1443 0.930 . S
C1451 C1452 1.355 . S
C1451 C1453 1.415 . S
C1452 C1451 1.355 . S
C1452 C1454 1.419 . S
C1453 C1448 1.425 . S
C1453 C1450 1.409 . S
C1453 C1451 1.415 . S
C1454 H1444 0.930 . S
C1454 C1452 1.419 . S
C1454 C1455 1.362 . S
C1455 H1445 0.930 . S
C1455 C1448 1.409 . S
C1455 C1454 1.362 . S
H1456 C1462 0.930 . S
H1457 C1465 0.930 . S
H1458 C1466 0.930 . S
H1459 C1467 0.930 . S
H1460 C1470 0.930 . S
H1461 C1471 0.930 . S
C1462 H1456 0.930 . S
C1462 C1463 1.355 . S
C1462 C1464 1.415 . S
C1463 C1462 1.355 . S
C1463 C1465 1.419 . S
C1464 C1462 1.415 . S
C1464 C1469 1.425 . S
C1464 C1471 1.409 . S
C1465 H1457 0.930 . S
C1465 C1463 1.419 . S
C1465 C1466 1.362 . S
C1466 H1458 0.930 . S
C1466 C1465 1.362 . S
C1466 C1469 1.409 . S
C1467 H1459 0.930 . S
C1467 C1468 1.355 . S
C1467 C1469 1.415 . S
C1468 C1467 1.355 . S
C1468 C1470 1.419 . S
C1469 C1464 1.425 . S
C1469 C1466 1.409 . S
C1469 C1467 1.415 . S
C1470 H1460 0.930 . S
C1470 C1468 1.419 . S
C1470 C1471 1.362 . S
C1471 H1461 0.930 . S
C1471 C1464 1.409 . S
C1471 C1470 1.362 . S
H1472 C1478 0.930 . S
H1473 C1481 0.930 1_554 S
H1474 C1482 0.930 . S
H1475 C1483 0.930 . S
H1476 C1486 0.930 . S
H1477 C1487 0.930 . S
C1478 H1472 0.930 . S
C1478 C1479 1.355 . S
C1478 C1480 1.415 . S
C1479 C1478 1.355 . S
C1479 C1481 1.419 . S
C1480 C1478 1.415 . S
C1480 C1485 1.425 . S
C1480 C1487 1.409 . S
C1481 H1473 0.930 1_556 S
C1481 C1479 1.419 . S
C1481 C1482 1.362 . S
C1482 H1474 0.930 . S
C1482 C1481 1.362 . S
C1482 C1485 1.409 . S
C1483 H1475 0.930 . S
C1483 C1484 1.355 . S
C1483 C1485 1.415 . S
C1484 C1483 1.355 . S
C1484 C1486 1.419 . S
C1485 C1480 1.425 . S
C1485 C1482 1.409 . S
C1485 C1483 1.415 . S
C1486 H1476 0.930 . S
C1486 C1484 1.419 . S
C1486 C1487 1.362 . S
C1487 H1477 0.930 . S
C1487 C1480 1.409 . S
C1487 C1486 1.362 . S
H1488 C1494 0.930 . S
H1489 C1497 0.930 . S
H1490 C1498 0.930 . S
H1491 C1499 0.930 . S
H1492 C1502 0.930 . S
H1493 C1503 0.930 . S
C1494 H1488 0.930 . S
C1494 C1495 1.355 . S
C1494 C1496 1.415 . S
C1495 C1494 1.355 . S
C1495 C1497 1.419 . S
C1496 C1494 1.415 . S
C1496 C1501 1.425 . S
C1496 C1503 1.409 . S
C1497 H1489 0.930 . S
C1497 C1495 1.419 . S
C1497 C1498 1.362 . S
C1498 H1490 0.930 . S
C1498 C1497 1.362 . S
C1498 C1501 1.409 . S
C1499 H1491 0.930 . S
C1499 C1500 1.355 . S
C1499 C1501 1.415 . S
C1500 C1499 1.355 . S
C1500 C1502 1.419 . S
C1501 C1496 1.425 . S
C1501 C1498 1.409 . S
C1501 C1499 1.415 . S
C1502 H1492 0.930 . S
C1502 C1500 1.419 . S
C1502 C1503 1.362 . S
C1503 H1493 0.930 . S
C1503 C1496 1.409 . S
C1503 C1502 1.362 . S
H1504 C1510 0.930 . S
H1505 C1513 0.930 . S
H1506 C1514 0.930 . S
H1507 C1515 0.930 . S
H1508 C1518 0.930 . S
H1509 C1519 0.930 . S
C1510 H1504 0.930 . S
C1510 C1511 1.355 . S
C1510 C1512 1.415 . S
C1511 C1510 1.355 . S
C1511 C1513 1.419 . S
C1512 C1510 1.415 . S
C1512 C1517 1.425 . S
C1512 C1519 1.409 . S
C1513 H1505 0.930 . S
C1513 C1511 1.419 . S
C1513 C1514 1.362 . S
C1514 H1506 0.930 . S
C1514 C1513 1.362 . S
C1514 C1517 1.409 . S
C1515 H1507 0.930 . S
C1515 C1516 1.355 . S
C1515 C1517 1.415 . S
C1516 C1515 1.355 . S
C1516 C1518 1.419 . S
C1517 C1512 1.425 . S
C1517 C1514 1.409 . S
C1517 C1515 1.415 . S
C1518 H1508 0.930 . S
C1518 C1516 1.419 . S
C1518 C1519 1.362 . S
C1519 H1509 0.930 . S
C1519 C1512 1.409 . S
C1519 C1518 1.362 . S
H1520 C1526 0.930 . S
H1521 C1529 0.930 . S
H1522 C1530 0.930 . S
H1523 C1531 0.930 . S
H1524 C1534 0.930 . S
H1525 C1535 0.930 . S
C1526 H1520 0.930 . S
C1526 C1527 1.355 . S
C1526 C1528 1.415 . S
C1527 C1526 1.355 . S
C1527 C1529 1.419 . S
C1528 C1526 1.415 . S
C1528 C1533 1.425 . S
C1528 C1535 1.409 . S
C1529 H1521 0.930 . S
C1529 C1527 1.419 . S
C1529 C1530 1.362 . S
C1530 H1522 0.930 . S
C1530 C1529 1.362 . S
C1530 C1533 1.409 . S
C1531 H1523 0.930 . S
C1531 C1532 1.355 . S
C1531 C1533 1.415 . S
C1532 C1531 1.355 . S
C1532 C1534 1.419 . S
C1533 C1528 1.425 . S
C1533 C1530 1.409 . S
C1533 C1531 1.415 . S
C1534 H1524 0.930 . S
C1534 C1532 1.419 . S
C1534 C1535 1.362 . S
C1535 H1525 0.930 . S
C1535 C1528 1.409 . S
C1535 C1534 1.362 . S
H1536 C1542 0.930 . S
H1537 C1545 0.930 . S
H1538 C1546 0.930 . S
H1539 C1547 0.930 . S
H1540 C1550 0.930 . S
H1541 C1551 0.930 . S
C1542 H1536 0.930 . S
C1542 C1543 1.355 . S
C1542 C1544 1.415 . S
C1543 C1542 1.355 . S
C1543 C1545 1.419 . S
C1544 C1542 1.415 . S
C1544 C1549 1.425 . S
C1544 C1551 1.409 . S
C1545 H1537 0.930 . S
C1545 C1543 1.419 . S
C1545 C1546 1.362 . S
C1546 H1538 0.930 . S
C1546 C1545 1.362 . S
C1546 C1549 1.409 . S
C1547 H1539 0.930 . S
C1547 C1548 1.355 . S
C1547 C1549 1.415 . S
C1548 C1547 1.355 . S
C1548 C1550 1.419 . S
C1549 C1544 1.425 . S
C1549 C1546 1.409 . S
C1549 C1547 1.415 . S
C1550 H1540 0.930 . S
C1550 C1548 1.419 . S
C1550 C1551 1.362 . S
C1551 H1541 0.930 . S
C1551 C1544 1.409 . S
C1551 C1550 1.362 . S
H1552 C1558 0.930 . S
H1553 C1561 0.930 . S
H1554 C1562 0.930 . S
H1555 C1563 0.930 . S
H1556 C1566 0.930 . S
H1557 C1567 0.930 . S
C1558 H1552 0.930 . S
C1558 C1559 1.355 . S
C1558 C1560 1.415 . S
C1559 C1558 1.355 . S
C1559 C1561 1.419 . S
C1560 C1558 1.415 . S
C1560 C1565 1.425 . S
C1560 C1567 1.409 . S
C1561 H1553 0.930 . S
C1561 C1559 1.419 . S
C1561 C1562 1.362 . S
C1562 H1554 0.930 . S
C1562 C1561 1.362 . S
C1562 C1565 1.409 . S
C1563 H1555 0.930 . S
C1563 C1564 1.355 . S
C1563 C1565 1.415 . S
C1564 C1563 1.355 . S
C1564 C1566 1.419 . S
C1565 C1560 1.425 . S
C1565 C1562 1.409 . S
C1565 C1563 1.415 . S
C1566 H1556 0.930 . S
C1566 C1564 1.419 . S
C1566 C1567 1.362 . S
C1567 H1557 0.930 . S
C1567 C1560 1.409 . S
C1567 C1566 1.362 . S
H1568 C1574 0.930 . S
H1569 C1577 0.930 . S
H1570 C1578 0.930 . S
H1571 C1579 0.930 . S
H1572 C1582 0.930 . S
H1573 C1583 0.930 . S
C1574 H1568 0.930 . S
C1574 C1575 1.355 . S
C1574 C1576 1.415 . S
C1575 C1574 1.355 . S
C1575 C1577 1.419 . S
C1576 C1574 1.415 . S
C1576 C1581 1.425 . S
C1576 C1583 1.409 . S
C1577 H1569 0.930 . S
C1577 C1575 1.419 . S
C1577 C1578 1.362 . S
C1578 H1570 0.930 . S
C1578 C1577 1.362 . S
C1578 C1581 1.409 . S
C1579 H1571 0.930 . S
C1579 C1580 1.355 . S
C1579 C1581 1.415 . S
C1580 C1579 1.355 . S
C1580 C1582 1.419 . S
C1581 C1576 1.425 . S
C1581 C1578 1.409 . S
C1581 C1579 1.415 . S
C1582 H1572 0.930 . S
C1582 C1580 1.419 . S
C1582 C1583 1.362 . S
C1583 H1573 0.930 . S
C1583 C1576 1.409 . S
C1583 C1582 1.362 . S
H1584 C1590 0.930 . S
H1585 C1593 0.930 . S
H1586 C1594 0.930 . S
H1587 C1595 0.930 . S
H1588 C1598 0.930 . S
H1589 C1599 0.930 . S
C1590 H1584 0.930 . S
C1590 C1591 1.355 . S
C1590 C1592 1.415 . S
C1591 C1590 1.355 . S
C1591 C1593 1.419 . S
C1592 C1590 1.415 . S
C1592 C1597 1.425 . S
C1592 C1599 1.409 . S
C1593 H1585 0.930 . S
C1593 C1591 1.419 . S
C1593 C1594 1.362 . S
C1594 H1586 0.930 . S
C1594 C1593 1.362 . S
C1594 C1597 1.409 . S
C1595 H1587 0.930 . S
C1595 C1596 1.355 . S
C1595 C1597 1.415 . S
C1596 C1595 1.355 . S
C1596 C1598 1.419 . S
C1597 C1592 1.425 . S
C1597 C1594 1.409 . S
C1597 C1595 1.415 . S
C1598 H1588 0.930 . S
C1598 C1596 1.419 . S
C1598 C1599 1.362 . S
C1599 H1589 0.930 . S
C1599 C1592 1.409 . S
C1599 C1598 1.362 . S
H1600 C1606 0.930 . S
H1601 C1609 0.930 . S
H1602 C1610 0.930 . S
H1603 C1611 0.930 . S
H1604 C1614 0.930 1_554 S
H1605 C1615 0.930 . S
C1606 H1600 0.930 . S
C1606 C1607 1.355 . S
C1606 C1608 1.415 . S
C1607 C1606 1.355 . S
C1607 C1609 1.419 . S
C1608 C1606 1.415 . S
C1608 C1613 1.425 . S
C1608 C1615 1.409 . S
C1609 H1601 0.930 . S
C1609 C1607 1.419 . S
C1609 C1610 1.362 . S
C1610 H1602 0.930 . S
C1610 C1609 1.362 . S
C1610 C1613 1.409 . S
C1611 H1603 0.930 . S
C1611 C1612 1.355 . S
C1611 C1613 1.415 . S
C1612 C1611 1.355 . S
C1612 C1614 1.419 . S
C1613 C1608 1.425 . S
C1613 C1610 1.409 . S
C1613 C1611 1.415 . S
C1614 H1604 0.930 1_556 S
C1614 C1612 1.419 . S
C1614 C1615 1.362 . S
C1615 H1605 0.930 . S
C1615 C1608 1.409 . S
C1615 C1614 1.362 . S
H1616 C1622 0.930 . S
H1617 C1625 0.930 . S
H1618 C1626 0.930 . S
H1619 C1627 0.930 . S
H1620 C1630 0.930 . S
H1621 C1631 0.930 . S
C1622 H1616 0.930 . S
C1622 C1623 1.355 . S
C1622 C1624 1.415 . S
C1623 C1622 1.355 . S
C1623 C1625 1.419 . S
C1624 C1622 1.415 . S
C1624 C1629 1.425 . S
C1624 C1631 1.409 . S
C1625 H1617 0.930 . S
C1625 C1623 1.419 . S
C1625 C1626 1.362 . S
C1626 H1618 0.930 . S
C1626 C1625 1.362 . S
C1626 C1629 1.409 . S
C1627 H1619 0.930 . S
C1627 C1628 1.355 . S
C1627 C1629 1.415 . S
C1628 C1627 1.355 . S
C1628 C1630 1.419 . S
C1629 C1624 1.425 . S
C1629 C1626 1.409 . S
C1629 C1627 1.415 . S
C1630 H1620 0.930 . S
C1630 C1628 1.419 . S
C1630 C1631 1.362 . S
C1631 H1621 0.930 . S
C1631 C1624 1.409 . S
C1631 C1630 1.362 . S
H1632 C1638 0.930 . S
H1633 C1641 0.930 . S
H1634 C1642 0.930 . S
H1635 C1643 0.930 . S
H1636 C1646 0.930 . S
H1637 C1647 0.930 . S
C1638 H1632 0.930 . S
C1638 C1639 1.355 . S
C1638 C1640 1.415 . S
C1639 C1638 1.355 . S
C1639 C1641 1.419 . S
C1640 C1638 1.415 . S
C1640 C1645 1.425 . S
C1640 C1647 1.409 . S
C1641 H1633 0.930 . S
C1641 C1639 1.419 . S
C1641 C1642 1.362 . S
C1642 H1634 0.930 . S
C1642 C1641 1.362 . S
C1642 C1645 1.409 . S
C1643 H1635 0.930 . S
C1643 C1644 1.355 . S
C1643 C1645 1.415 . S
C1644 C1643 1.355 . S
C1644 C1646 1.419 . S
C1645 C1640 1.425 . S
C1645 C1642 1.409 . S
C1645 C1643 1.415 . S
C1646 H1636 0.930 . S
C1646 C1644 1.419 . S
C1646 C1647 1.362 . S
C1647 H1637 0.930 . S
C1647 C1640 1.409 . S
C1647 C1646 1.362 . S
H1648 C1654 0.930 . S
H1649 C1657 0.930 . S
H1650 C1658 0.930 . S
H1651 C1659 0.930 . S
H1652 C1662 0.930 . S
H1653 C1663 0.930 . S
C1654 H1648 0.930 . S
C1654 C1655 1.355 . S
C1654 C1656 1.415 . S
C1655 C1654 1.355 . S
C1655 C1657 1.419 . S
C1656 C1654 1.415 . S
C1656 C1661 1.425 . S
C1656 C1663 1.409 . S
C1657 H1649 0.930 . S
C1657 C1655 1.419 . S
C1657 C1658 1.362 . S
C1658 H1650 0.930 . S
C1658 C1657 1.362 . S
C1658 C1661 1.409 . S
C1659 H1651 0.930 . S
C1659 C1660 1.355 . S
C1659 C1661 1.415 . S
C1660 C1659 1.355 . S
C1660 C1662 1.419 . S
C1661 C1656 1.425 . S
C1661 C1658 1.409 . S
C1661 C1659 1.415 . S
C1662 H1652 0.930 . S
C1662 C1660 1.419 . S
C1662 C1663 1.362 . S
C1663 H1653 0.930 . S
C1663 C1656 1.409 . S
C1663 C1662 1.362 . S
H1664 C1670 0.930 . S
H1665 C1673 0.930 . S
H1666 C1674 0.930 . S
H1667 C1675 0.930 . S
H1668 C1678 0.930 . S
H1669 C1679 0.930 . S
C1670 H1664 0.930 . S
C1670 C1671 1.355 . S
C1670 C1672 1.415 . S
C1671 C1670 1.355 . S
C1671 C1673 1.419 . S
C1672 C1670 1.415 . S
C1672 C1677 1.425 . S
C1672 C1679 1.409 . S
C1673 H1665 0.930 . S
C1673 C1671 1.419 . S
C1673 C1674 1.362 . S
C1674 H1666 0.930 . S
C1674 C1673 1.362 . S
C1674 C1677 1.409 . S
C1675 H1667 0.930 . S
C1675 C1676 1.355 . S
C1675 C1677 1.415 . S
C1676 C1675 1.355 . S
C1676 C1678 1.419 . S
C1677 C1672 1.425 . S
C1677 C1674 1.409 . S
C1677 C1675 1.415 . S
C1678 H1668 0.930 . S
C1678 C1676 1.419 . S
C1678 C1679 1.362 . S
C1679 H1669 0.930 . S
C1679 C1672 1.409 . S
C1679 C1678 1.362 . S
H1680 C1686 0.930 . S
H1681 C1689 0.930 . S
H1682 C1690 0.930 . S
H1683 C1691 0.930 . S
H1684 C1694 0.930 . S
H1685 C1695 0.930 . S
C1686 H1680 0.930 . S
C1686 C1687 1.355 . S
C1686 C1688 1.415 . S
C1687 C1686 1.355 . S
C1687 C1689 1.419 . S
C1688 C1686 1.415 . S
C1688 C1693 1.425 . S
C1688 C1695 1.409 . S
C1689 H1681 0.930 . S
C1689 C1687 1.419 . S
C1689 C1690 1.362 . S
C1690 H1682 0.930 . S
C1690 C1689 1.362 . S
C1690 C1693 1.409 . S
C1691 H1683 0.930 . S
C1691 C1692 1.355 . S
C1691 C1693 1.415 . S
C1692 C1691 1.355 . S
C1692 C1694 1.419 . S
C1693 C1688 1.425 . S
C1693 C1690 1.409 . S
C1693 C1691 1.415 . S
C1694 H1684 0.930 . S
C1694 C1692 1.419 . S
C1694 C1695 1.362 . S
C1695 H1685 0.930 . S
C1695 C1688 1.409 . S
C1695 C1694 1.362 . S
H1696 C1702 0.930 . S
H1697 C1705 0.930 . S
H1698 C1706 0.930 . S
H1699 C1707 0.930 . S
H1700 C1710 0.930 . S
H1701 C1711 0.930 . S
C1702 H1696 0.930 . S
C1702 C1703 1.355 . S
C1702 C1704 1.415 . S
C1703 C1702 1.355 . S
C1703 C1705 1.419 . S
C1704 C1702 1.415 . S
C1704 C1709 1.425 . S
C1704 C1711 1.409 . S
C1705 H1697 0.930 . S
C1705 C1703 1.419 . S
C1705 C1706 1.362 . S
C1706 H1698 0.930 . S
C1706 C1705 1.362 . S
C1706 C1709 1.409 . S
C1707 H1699 0.930 . S
C1707 C1708 1.355 . S
C1707 C1709 1.415 . S
C1708 C1707 1.355 . S
C1708 C1710 1.419 . S
C1709 C1704 1.425 . S
C1709 C1706 1.409 . S
C1709 C1707 1.415 . S
C1710 H1700 0.930 . S
C1710 C1708 1.419 . S
C1710 C1711 1.362 . S
C1711 H1701 0.930 . S
C1711 C1704 1.409 . S
C1711 C1710 1.362 . S
H1712 C1718 0.930 . S
H1713 C1721 0.930 . S
H1714 C1722 0.930 . S
H1715 C1723 0.930 . S
H1716 C1726 0.930 . S
H1717 C1727 0.930 . S
C1718 H1712 0.930 . S
C1718 C1719 1.355 . S
C1718 C1720 1.415 . S
C1719 C1718 1.355 . S
C1719 C1721 1.419 . S
C1720 C1718 1.415 . S
C1720 C1725 1.425 . S
C1720 C1727 1.409 . S
C1721 H1713 0.930 . S
C1721 C1719 1.419 . S
C1721 C1722 1.362 . S
C1722 H1714 0.930 . S
C1722 C1721 1.362 . S
C1722 C1725 1.409 . S
C1723 H1715 0.930 . S
C1723 C1724 1.355 . S
C1723 C1725 1.415 . S
C1724 C1723 1.355 . S
C1724 C1726 1.419 . S
C1725 C1720 1.425 . S
C1725 C1722 1.409 . S
C1725 C1723 1.415 . S
C1726 H1716 0.930 . S
C1726 C1724 1.419 . S
C1726 C1727 1.362 . S
C1727 H1717 0.930 . S
C1727 C1720 1.409 . S
C1727 C1726 1.362 . S
H1728 C1734 0.930 . S
H1729 C1737 0.930 . S
H1730 C1738 0.930 . S
H1731 C1739 0.930 . S
H1732 C1742 0.930 . S
H1733 C1743 0.930 . S
C1734 H1728 0.930 . S
C1734 C1735 1.355 . S
C1734 C1736 1.415 . S
C1735 C1734 1.355 . S
C1735 C1737 1.419 . S
C1736 C1734 1.415 . S
C1736 C1741 1.425 . S
C1736 C1743 1.409 . S
C1737 H1729 0.930 . S
C1737 C1735 1.419 . S
C1737 C1738 1.362 . S
C1738 H1730 0.930 . S
C1738 C1737 1.362 . S
C1738 C1741 1.409 . S
C1739 H1731 0.930 . S
C1739 C1740 1.355 . S
C1739 C1741 1.415 . S
C1740 C1739 1.355 . S
C1740 C1742 1.419 . S
C1741 C1736 1.425 . S
C1741 C1738 1.409 . S
C1741 C1739 1.415 . S
C1742 H1732 0.930 . S
C1742 C1740 1.419 . S
C1742 C1743 1.362 . S
C1743 H1733 0.930 . S
C1743 C1736 1.409 . S
C1743 C1742 1.362 . S
H1744 C1750 0.930 . S
H1745 C1753 0.930 . S
H1746 C1754 0.930 1_554 S
H1747 C1755 0.930 . S
H1748 C1758 0.930 . S
H1749 C1759 0.930 . S
C1750 H1744 0.930 . S
C1750 C1751 1.355 . S
C1750 C1752 1.415 . S
C1751 C1750 1.355 . S
C1751 C1753 1.419 . S
C1752 C1750 1.415 . S
C1752 C1757 1.425 . S
C1752 C1759 1.409 . S
C1753 H1745 0.930 . S
C1753 C1751 1.419 . S
C1753 C1754 1.362 . S
C1754 H1746 0.930 1_556 S
C1754 C1753 1.362 . S
C1754 C1757 1.409 . S
C1755 H1747 0.930 . S
C1755 C1756 1.355 . S
C1755 C1757 1.415 . S
C1756 C1755 1.355 . S
C1756 C1758 1.419 . S
C1757 C1752 1.425 . S
C1757 C1754 1.409 . S
C1757 C1755 1.415 . S
C1758 H1748 0.930 . S
C1758 C1756 1.419 . S
C1758 C1759 1.362 . S
C1759 H1749 0.930 . S
C1759 C1752 1.409 . S
C1759 C1758 1.362 . S
H1760 C1766 0.930 . S
H1761 C1769 0.930 . S
H1762 C1770 0.930 . S
H1763 C1771 0.930 . S
H1764 C1774 0.920 1_565 S
H1765 C1775 0.930 . S
C1766 H1760 0.930 . S
C1766 C1767 1.355 . S
C1766 C1768 1.415 . S
C1767 C1766 1.355 . S
C1767 C1769 1.419 . S
C1768 C1766 1.415 . S
C1768 C1773 1.425 . S
C1768 C1775 1.409 . S
C1769 H1761 0.930 . S
C1769 C1767 1.419 . S
C1769 C1770 1.362 . S
C1770 H1762 0.930 . S
C1770 C1769 1.362 . S
C1770 C1773 1.409 . S
C1771 H1763 0.930 . S
C1771 C1772 1.355 . S
C1771 C1773 1.415 . S
C1772 C1771 1.355 . S
C1772 C1774 1.419 . S
C1773 C1768 1.425 . S
C1773 C1770 1.409 . S
C1773 C1771 1.415 . S
C1774 H1764 0.920 1_545 S
C1774 C1772 1.419 . S
C1774 C1775 1.362 . S
C1775 H1765 0.930 . S
C1775 C1768 1.409 . S
C1775 C1774 1.362 . S
H1776 C1782 0.930 . S
H1777 C1785 0.930 . S
H1778 C1786 0.930 . S
H1779 C1787 0.930 . S
H1780 C1790 0.930 . S
H1781 C1791 0.930 . S
C1782 H1776 0.930 . S
C1782 C1783 1.355 . S
C1782 C1784 1.415 . S
C1783 C1782 1.355 . S
C1783 C1785 1.419 . S
C1784 C1782 1.415 . S
C1784 C1789 1.425 . S
C1784 C1791 1.409 . S
C1785 H1777 0.930 . S
C1785 C1783 1.419 . S
C1785 C1786 1.362 . S
C1786 H1778 0.930 . S
C1786 C1785 1.362 . S
C1786 C1789 1.409 . S
C1787 H1779 0.930 . S
C1787 C1788 1.355 . S
C1787 C1789 1.415 . S
C1788 C1787 1.355 . S
C1788 C1790 1.419 . S
C1789 C1784 1.425 . S
C1789 C1786 1.409 . S
C1789 C1787 1.415 . S
C1790 H1780 0.930 . S
C1790 C1788 1.419 . S
C1790 C1791 1.362 . S
C1791 H1781 0.930 . S
C1791 C1784 1.409 . S
C1791 C1790 1.362 . S
H1792 C1798 0.930 . S
H1793 C1801 0.930 . S
H1794 C1802 0.930 . S
H1795 C1803 0.930 . S
H1796 C1806 0.930 . S
H1797 C1807 0.930 . S
C1798 H1792 0.930 . S
C1798 C1799 1.355 . S
C1798 C1800 1.415 . S
C1799 C1798 1.355 . S
C1799 C1801 1.419 . S
C1800 C1798 1.415 . S
C1800 C1805 1.425 . S
C1800 C1807 1.409 . S
C1801 H1793 0.930 . S
C1801 C1799 1.419 . S
C1801 C1802 1.362 . S
C1802 H1794 0.930 . S
C1802 C1801 1.362 . S
C1802 C1805 1.409 . S
C1803 H1795 0.930 . S
C1803 C1804 1.355 . S
C1803 C1805 1.415 . S
C1804 C1803 1.355 . S
C1804 C1806 1.419 . S
C1805 C1800 1.425 . S
C1805 C1802 1.409 . S
C1805 C1803 1.415 . S
C1806 H1796 0.930 . S
C1806 C1804 1.419 . S
C1806 C1807 1.362 . S
C1807 H1797 0.930 . S
C1807 C1800 1.409 . S
C1807 C1806 1.362 . S
H1808 C1814 0.930 . S
H1809 C1817 0.930 . S
H1810 C1818 0.930 . S
H1811 C1819 0.930 . S
H1812 C1822 0.930 . S
H1813 C1823 0.930 . S
C1814 H1808 0.930 . S
C1814 C1815 1.355 . S
C1814 C1816 1.415 . S
C1815 C1814 1.355 . S
C1815 C1817 1.419 . S
C1816 C1814 1.415 . S
C1816 C1821 1.425 . S
C1816 C1823 1.409 . S
C1817 H1809 0.930 . S
C1817 C1815 1.419 . S
C1817 C1818 1.362 . S
C1818 H1810 0.930 . S
C1818 C1817 1.362 . S
C1818 C1821 1.409 . S
C1819 H1811 0.930 . S
C1819 C1820 1.355 . S
C1819 C1821 1.415 . S
C1820 C1819 1.355 . S
C1820 C1822 1.419 . S
C1821 C1816 1.425 . S
C1821 C1818 1.409 . S
C1821 C1819 1.415 . S
C1822 H1812 0.930 . S
C1822 C1820 1.419 . S
C1822 C1823 1.362 . S
C1823 H1813 0.930 . S
C1823 C1816 1.409 . S
C1823 C1822 1.362 . S
H1824 C1830 0.930 . S
H1825 C1833 0.930 . S
H1826 C1834 0.930 . S
H1827 C1835 0.930 . S
H1828 C1838 0.930 . S
H1829 C1839 0.930 . S
C1830 H1824 0.930 . S
C1830 C1831 1.355 . S
C1830 C1832 1.415 . S
C1831 C1830 1.355 . S
C1831 C1833 1.419 . S
C1832 C1830 1.415 . S
C1832 C1837 1.425 . S
C1832 C1839 1.409 . S
C1833 H1825 0.930 . S
C1833 C1831 1.419 . S
C1833 C1834 1.362 . S
C1834 H1826 0.930 . S
C1834 C1833 1.362 . S
C1834 C1837 1.409 . S
C1835 H1827 0.930 . S
C1835 C1836 1.355 . S
C1835 C1837 1.415 . S
C1836 C1835 1.355 . S
C1836 C1838 1.419 . S
C1837 C1832 1.425 . S
C1837 C1834 1.409 . S
C1837 C1835 1.415 . S
C1838 H1828 0.930 . S
C1838 C1836 1.419 . S
C1838 C1839 1.362 . S
C1839 H1829 0.930 . S
C1839 C1832 1.409 . S
C1839 C1838 1.362 . S
H1840 C1846 0.930 . S
H1841 C1849 0.930 . S
H1842 C1850 0.930 . S
H1843 C1851 0.930 . S
H1844 C1854 0.930 . S
H1845 C1855 0.930 . S
C1846 H1840 0.930 . S
C1846 C1847 1.355 . S
C1846 C1848 1.415 . S
C1847 C1846 1.355 . S
C1847 C1849 1.419 . S
C1848 C1846 1.415 . S
C1848 C1853 1.425 . S
C1848 C1855 1.409 . S
C1849 H1841 0.930 . S
C1849 C1847 1.419 . S
C1849 C1850 1.362 . S
C1850 H1842 0.930 . S
C1850 C1849 1.362 . S
C1850 C1853 1.409 . S
C1851 H1843 0.930 . S
C1851 C1852 1.355 . S
C1851 C1853 1.415 . S
C1852 C1851 1.355 . S
C1852 C1854 1.419 . S
C1853 C1848 1.425 . S
C1853 C1850 1.409 . S
C1853 C1851 1.415 . S
C1854 H1844 0.930 . S
C1854 C1852 1.419 . S
C1854 C1855 1.362 . S
C1855 H1845 0.930 . S
C1855 C1848 1.409 . S
C1855 C1854 1.362 . S
H1856 C1862 0.930 . S
H1857 C1865 0.930 . S
H1858 C1866 0.930 . S
H1859 C1867 0.930 . S
H1860 C1870 0.930 . S
H1861 C1871 0.930 . S
C1862 H1856 0.930 . S
C1862 C1863 1.355 . S
C1862 C1864 1.415 . S
C1863 C1862 1.355 . S
C1863 C1865 1.419 . S
C1864 C1862 1.415 . S
C1864 C1869 1.425 . S
C1864 C1871 1.409 . S
C1865 H1857 0.930 . S
C1865 C1863 1.419 . S
C1865 C1866 1.362 . S
C1866 H1858 0.930 . S
C1866 C1865 1.362 . S
C1866 C1869 1.409 . S
C1867 H1859 0.930 . S
C1867 C1868 1.355 . S
C1867 C1869 1.415 . S
C1868 C1867 1.355 . S
C1868 C1870 1.419 . S
C1869 C1864 1.425 . S
C1869 C1866 1.409 . S
C1869 C1867 1.415 . S
C1870 H1860 0.930 . S
C1870 C1868 1.419 . S
C1870 C1871 1.362 . S
C1871 H1861 0.930 . S
C1871 C1864 1.409 . S
C1871 C1870 1.362 . S
H1872 C1878 0.930 . S
H1873 C1881 0.930 . S
H1874 C1882 0.930 . S
H1875 C1883 0.930 . S
H1876 C1886 0.930 . S
H1877 C1887 0.930 . S
C1878 H1872 0.930 . S
C1878 C1879 1.355 . S
C1878 C1880 1.415 . S
C1879 C1878 1.355 . S
C1879 C1881 1.419 . S
C1880 C1878 1.415 . S
C1880 C1885 1.425 . S
C1880 C1887 1.409 . S
C1881 H1873 0.930 . S
C1881 C1879 1.419 . S
C1881 C1882 1.362 . S
C1882 H1874 0.930 . S
C1882 C1881 1.362 . S
C1882 C1885 1.409 . S
C1883 H1875 0.930 . S
C1883 C1884 1.355 . S
C1883 C1885 1.415 . S
C1884 C1883 1.355 . S
C1884 C1886 1.419 . S
C1885 C1880 1.425 . S
C1885 C1882 1.409 . S
C1885 C1883 1.415 . S
C1886 H1876 0.930 . S
C1886 C1884 1.419 . S
C1886 C1887 1.362 . S
C1887 H1877 0.930 . S
C1887 C1880 1.409 . S
C1887 C1886 1.362 . S
H1888 C1894 0.930 . S
H1889 C1897 0.930 . S
H1890 C1898 0.930 . S
H1891 C1899 0.930 . S
H1892 C1902 0.930 . S
H1893 C1903 0.930 . S
C1894 H1888 0.930 . S
C1894 C1895 1.355 . S
C1894 C1896 1.415 . S
C1895 C1894 1.355 . S
C1895 C1897 1.419 . S
C1896 C1894 1.415 . S
C1896 C1901 1.425 . S
C1896 C1903 1.409 . S
C1897 H1889 0.930 . S
C1897 C1895 1.419 . S
C1897 C1898 1.362 . S
C1898 H1890 0.930 . S
C1898 C1897 1.362 . S
C1898 C1901 1.409 . S
C1899 H1891 0.930 . S
C1899 C1900 1.355 . S
C1899 C1901 1.415 . S
C1900 C1899 1.355 . S
C1900 C1902 1.419 . S
C1901 C1896 1.425 . S
C1901 C1898 1.409 . S
C1901 C1899 1.415 . S
C1902 H1892 0.930 . S
C1902 C1900 1.419 . S
C1902 C1903 1.362 . S
C1903 H1893 0.930 . S
C1903 C1896 1.409 . S
C1903 C1902 1.362 . S
H1904 C1910 0.930 . S
H1905 C1913 0.930 . S
H1906 C1914 0.930 . S
H1907 C1915 0.930 . S
H1908 C1918 0.930 . S
H1909 C1919 0.930 . S
C1910 H1904 0.930 . S
C1910 C1911 1.355 . S
C1910 C1912 1.415 . S
C1911 C1910 1.355 . S
C1911 C1913 1.419 . S
C1912 C1910 1.415 . S
C1912 C1917 1.425 . S
C1912 C1919 1.409 . S
C1913 H1905 0.930 . S
C1913 C1911 1.419 . S
C1913 C1914 1.362 . S
C1914 H1906 0.930 . S
C1914 C1913 1.362 . S
C1914 C1917 1.409 . S
C1915 H1907 0.930 . S
C1915 C1916 1.355 . S
C1915 C1917 1.415 . S
C1916 C1915 1.355 . S
C1916 C1918 1.419 . S
C1917 C1912 1.425 . S
C1917 C1914 1.409 . S
C1917 C1915 1.415 . S
C1918 H1908 0.930 . S
C1918 C1916 1.419 . S
C1918 C1919 1.362 . S
C1919 H1909 0.930 . S
C1919 C1912 1.409 . S
C1919 C1918 1.362 . S
H1920 C1926 0.930 . S
H1921 C1929 0.930 . S
H1922 C1930 0.930 . S
H1923 C1931 0.930 . S
H1924 C1934 0.930 . S
H1925 C1935 0.930 . S
C1926 H1920 0.930 . S
C1926 C1927 1.355 . S
C1926 C1928 1.415 . S
C1927 C1926 1.355 . S
C1927 C1929 1.419 . S
C1928 C1926 1.415 . S
C1928 C1933 1.425 . S
C1928 C1935 1.409 . S
C1929 H1921 0.930 . S
C1929 C1927 1.419 . S
C1929 C1930 1.362 . S
C1930 H1922 0.930 . S
C1930 C1929 1.362 . S
C1930 C1933 1.409 . S
C1931 H1923 0.930 . S
C1931 C1932 1.355 . S
C1931 C1933 1.415 . S
C1932 C1931 1.355 . S
C1932 C1934 1.419 . S
C1933 C1928 1.425 . S
C1933 C1930 1.409 . S
C1933 C1931 1.415 . S
C1934 H1924 0.930 . S
C1934 C1932 1.419 . S
C1934 C1935 1.362 . S
C1935 H1925 0.930 . S
C1935 C1928 1.409 . S
C1935 C1934 1.362 . S
H1936 C1942 0.930 . S
H1937 C1945 0.930 . S
H1938 C1946 0.930 . S
H1939 C1947 0.930 . S
H1940 C1950 0.930 . S
H1941 C1951 0.930 . S
C1942 H1936 0.930 . S
C1942 C1943 1.355 . S
C1942 C1944 1.415 . S
C1943 C1942 1.355 . S
C1943 C1945 1.419 . S
C1944 C1942 1.415 . S
C1944 C1949 1.425 . S
C1944 C1951 1.409 . S
C1945 H1937 0.930 . S
C1945 C1943 1.419 . S
C1945 C1946 1.362 . S
C1946 H1938 0.930 . S
C1946 C1945 1.362 . S
C1946 C1949 1.409 . S
C1947 H1939 0.930 . S
C1947 C1948 1.355 . S
C1947 C1949 1.415 . S
C1948 C1947 1.355 . S
C1948 C1950 1.419 . S
C1949 C1944 1.425 . S
C1949 C1946 1.409 . S
C1949 C1947 1.415 . S
C1950 H1940 0.930 . S
C1950 C1948 1.419 . S
C1950 C1951 1.362 . S
C1951 H1941 0.930 . S
C1951 C1944 1.409 . S
C1951 C1950 1.362 . S
H1952 C1958 0.930 . S
H1953 C1961 0.930 . S
H1954 C1962 0.930 . S
H1955 C1963 0.930 . S
H1956 C1966 0.930 . S
H1957 C1967 0.930 . S
C1958 H1952 0.930 . S
C1958 C1959 1.355 . S
C1958 C1960 1.415 . S
C1959 C1958 1.355 . S
C1959 C1961 1.419 . S
C1960 C1958 1.415 . S
C1960 C1965 1.425 . S
C1960 C1967 1.409 . S
C1961 H1953 0.930 . S
C1961 C1959 1.419 . S
C1961 C1962 1.362 . S
C1962 H1954 0.930 . S
C1962 C1961 1.362 . S
C1962 C1965 1.409 . S
C1963 H1955 0.930 . S
C1963 C1964 1.355 . S
C1963 C1965 1.415 . S
C1964 C1963 1.355 . S
C1964 C1966 1.419 . S
C1965 C1960 1.425 . S
C1965 C1962 1.409 . S
C1965 C1963 1.415 . S
C1966 H1956 0.930 . S
C1966 C1964 1.419 . S
C1966 C1967 1.362 . S
C1967 H1957 0.930 . S
C1967 C1960 1.409 . S
C1967 C1966 1.362 . S
H1968 C1974 0.930 . S
H1969 C1977 0.930 . S
H1970 C1978 0.930 . S
H1971 C1979 0.930 . S
H1972 C1982 0.930 . S
H1973 C1983 0.930 . S
C1974 H1968 0.930 . S
C1974 C1975 1.355 . S
C1974 C1976 1.415 . S
C1975 C1974 1.355 . S
C1975 C1977 1.419 . S
C1976 C1974 1.415 . S
C1976 C1981 1.425 . S
C1976 C1983 1.409 . S
C1977 H1969 0.930 . S
C1977 C1975 1.419 . S
C1977 C1978 1.362 . S
C1978 H1970 0.930 . S
C1978 C1977 1.362 . S
C1978 C1981 1.409 . S
C1979 H1971 0.930 . S
C1979 C1980 1.355 . S
C1979 C1981 1.415 . S
C1980 C1979 1.355 . S
C1980 C1982 1.419 . S
C1981 C1976 1.425 . S
C1981 C1978 1.409 . S
C1981 C1979 1.415 . S
C1982 H1972 0.930 . S
C1982 C1980 1.419 . S
C1982 C1983 1.362 . S
C1983 H1973 0.930 . S
C1983 C1976 1.409 . S
C1983 C1982 1.362 . S
H1984 C1990 0.930 . S
H1985 C1993 0.930 . S
H1986 C1994 0.930 . S
H1987 C1995 0.930 . S
H1988 C1998 0.930 . S
H1989 C1999 0.930 . S
C1990 H1984 0.930 . S
C1990 C1991 1.355 . S
C1990 C1992 1.415 . S
C1991 C1990 1.355 . S
C1991 C1993 1.419 . S
C1992 C1990 1.415 . S
C1992 C1997 1.425 . S
C1992 C1999 1.409 . S
C1993 H1985 0.930 . S
C1993 C1991 1.419 . S
C1993 C1994 1.362 . S
C1994 H1986 0.930 . S
C1994 C1993 1.362 . S
C1994 C1997 1.409 . S
C1995 H1987 0.930 . S
C1995 C1996 1.355 . S
C1995 C1997 1.415 . S
C1996 C1995 1.355 . S
C1996 C1998 1.419 . S
C1997 C1992 1.425 . S
C1997 C1994 1.409 . S
C1997 C1995 1.415 . S
C1998 H1988 0.930 . S
C1998 C1996 1.419 . S
C1998 C1999 1.362 . S
C1999 H1989 0.930 . S
C1999 C1992 1.409 . S
C1999 C1998 1.362 . S
H2000 C2006 0.930 . S
H2001 C2009 0.930 . S
H2002 C2010 0.930 . S
H2003 C2011 0.930 . S
H2004 C2014 0.930 . S
H2005 C2015 0.930 . S
C2006 H2000 0.930 . S
C2006 C2007 1.355 . S
C2006 C2008 1.415 . S
C2007 C2006 1.355 . S
C2007 C2009 1.419 . S
C2008 C2006 1.415 . S
C2008 C2013 1.425 . S
C2008 C2015 1.409 . S
C2009 H2001 0.930 . S
C2009 C2007 1.419 . S
C2009 C2010 1.362 . S
C2010 H2002 0.930 . S
C2010 C2009 1.362 . S
C2010 C2013 1.409 . S
C2011 H2003 0.930 . S
C2011 C2012 1.355 . S
C2011 C2013 1.415 . S
C2012 C2011 1.355 . S
C2012 C2014 1.419 . S
C2013 C2008 1.425 . S
C2013 C2010 1.409 . S
C2013 C2011 1.415 . S
C2014 H2004 0.930 . S
C2014 C2012 1.419 . S
C2014 C2015 1.362 . S
C2015 H2005 0.930 . S
C2015 C2008 1.409 . S
C2015 C2014 1.362 . S
H2016 C2022 0.930 . S
H2017 C2025 0.930 . S
H2018 C2026 0.930 . S
H2019 C2027 0.930 . S
H2020 C2030 0.930 . S
H2021 C2031 0.930 . S
C2022 H2016 0.930 . S
C2022 C2023 1.355 . S
C2022 C2024 1.415 . S
C2023 C2022 1.355 . S
C2023 C2025 1.419 . S
C2024 C2022 1.415 . S
C2024 C2029 1.425 . S
C2024 C2031 1.409 . S
C2025 H2017 0.930 . S
C2025 C2023 1.419 . S
C2025 C2026 1.362 . S
C2026 H2018 0.930 . S
C2026 C2025 1.362 . S
C2026 C2029 1.409 . S
C2027 H2019 0.930 . S
C2027 C2028 1.355 . S
C2027 C2029 1.415 . S
C2028 C2027 1.355 . S
C2028 C2030 1.419 . S
C2029 C2024 1.425 . S
C2029 C2026 1.409 . S
C2029 C2027 1.415 . S
C2030 H2020 0.930 . S
C2030 C2028 1.419 . S
C2030 C2031 1.362 . S
C2031 H2021 0.930 . S
C2031 C2024 1.409 . S
C2031 C2030 1.362 . S
H2032 C2038 0.930 . S
H2033 C2041 0.930 . S
H2034 C2042 0.930 . S
H2035 C2043 0.930 . S
H2036 C2046 0.930 . S
H2037 C2047 0.930 . S
C2038 H2032 0.930 . S
C2038 C2039 1.355 . S
C2038 C2040 1.415 . S
C2039 C2038 1.355 . S
C2039 C2041 1.419 . S
C2040 C2038 1.415 . S
C2040 C2045 1.425 . S
C2040 C2047 1.409 . S
C2041 H2033 0.930 . S
C2041 C2039 1.419 . S
C2041 C2042 1.362 . S
C2042 H2034 0.930 . S
C2042 C2041 1.362 . S
C2042 C2045 1.409 . S
C2043 H2035 0.930 . S
C2043 C2044 1.355 . S
C2043 C2045 1.415 . S
C2044 C2043 1.355 . S
C2044 C2046 1.419 . S
C2045 C2040 1.425 . S
C2045 C2042 1.409 . S
C2045 C2043 1.415 . S
C2046 H2036 0.930 . S
C2046 C2044 1.419 . S
C2046 C2047 1.362 . S
C2047 H2037 0.930 . S
C2047 C2040 1.409 . S
C2047 C2046 1.362 . S
H2048 C2054 0.930 . S
H2049 C2057 0.930 . S
H2050 C2058 0.930 . S
H2051 C2059 0.930 . S
H2052 C2062 0.930 . S
H2053 C2063 0.930 . S
C2054 H2048 0.930 . S
C2054 C2055 1.355 . S
C2054 C2056 1.415 . S
C2055 C2054 1.355 . S
C2055 C2057 1.419 . S
C2056 C2054 1.415 . S
C2056 C2061 1.425 . S
C2056 C2063 1.409 . S
C2057 H2049 0.930 . S
C2057 C2055 1.419 . S
C2057 C2058 1.362 . S
C2058 H2050 0.930 . S
C2058 C2057 1.362 . S
C2058 C2061 1.409 . S
C2059 H2051 0.930 . S
C2059 C2060 1.355 . S
C2059 C2061 1.415 . S
C2060 C2059 1.355 . S
C2060 C2062 1.419 . S
C2061 C2056 1.425 . S
C2061 C2058 1.409 . S
C2061 C2059 1.415 . S
C2062 H2052 0.930 . S
C2062 C2060 1.419 . S
C2062 C2063 1.362 . S
C2063 H2053 0.930 . S
C2063 C2056 1.409 . S
C2063 C2062 1.362 . S
H2064 C2070 0.930 . S
H2065 C2073 0.930 . S
H2066 C2074 0.930 . S
H2067 C2075 0.930 . S
H2068 C2078 0.930 . S
H2069 C2079 0.930 . S
C2070 H2064 0.930 . S
C2070 C2071 1.355 . S
C2070 C2072 1.415 . S
C2071 C2070 1.355 . S
C2071 C2073 1.419 . S
C2072 C2070 1.415 . S
C2072 C2077 1.425 . S
C2072 C2079 1.409 . S
C2073 H2065 0.930 . S
C2073 C2071 1.419 . S
C2073 C2074 1.362 . S
C2074 H2066 0.930 . S
C2074 C2073 1.362 . S
C2074 C2077 1.409 . S
C2075 H2067 0.930 . S
C2075 C2076 1.355 . S
C2075 C2077 1.415 . S
C2076 C2075 1.355 . S
C2076 C2078 1.419 . S
C2077 C2072 1.425 . S
C2077 C2074 1.409 . S
C2077 C2075 1.415 . S
C2078 H2068 0.930 . S
C2078 C2076 1.419 . S
C2078 C2079 1.362 . S
C2079 H2069 0.930 . S
C2079 C2072 1.409 . S
C2079 C2078 1.362 . S
H2080 C2086 0.930 . S
H2081 C2089 0.930 . S
H2082 C2090 0.930 . S
H2083 C2091 0.930 . S
H2084 C2094 0.930 . S
H2085 C2095 0.930 . S
C2086 H2080 0.930 . S
C2086 C2087 1.355 . S
C2086 C2088 1.415 . S
C2087 C2086 1.355 . S
C2087 C2089 1.419 . S
C2088 C2086 1.415 . S
C2088 C2093 1.425 . S
C2088 C2095 1.409 . S
C2089 H2081 0.930 . S
C2089 C2087 1.419 . S
C2089 C2090 1.362 . S
C2090 H2082 0.930 . S
C2090 C2089 1.362 . S
C2090 C2093 1.409 . S
C2091 H2083 0.930 . S
C2091 C2092 1.355 . S
C2091 C2093 1.415 . S
C2092 C2091 1.355 . S
C2092 C2094 1.419 . S
C2093 C2088 1.425 . S
C2093 C2090 1.409 . S
C2093 C2091 1.415 . S
C2094 H2084 0.930 . S
C2094 C2092 1.419 . S
C2094 C2095 1.362 . S
C2095 H2085 0.930 . S
C2095 C2088 1.409 . S
C2095 C2094 1.362 . S
H2096 C2102 0.930 . S
H2097 C2105 0.930 . S
H2098 C2106 0.930 . S
H2099 C2107 0.930 . S
H2100 C2110 0.930 . S
H2101 C2111 0.930 . S
C2102 H2096 0.930 . S
C2102 C2103 1.355 . S
C2102 C2104 1.415 . S
C2103 C2102 1.355 . S
C2103 C2105 1.419 . S
C2104 C2102 1.415 . S
C2104 C2109 1.425 . S
C2104 C2111 1.409 . S
C2105 H2097 0.930 . S
C2105 C2103 1.419 . S
C2105 C2106 1.362 . S
C2106 H2098 0.930 . S
C2106 C2105 1.362 . S
C2106 C2109 1.409 . S
C2107 H2099 0.930 . S
C2107 C2108 1.355 . S
C2107 C2109 1.415 . S
C2108 C2107 1.355 . S
C2108 C2110 1.419 . S
C2109 C2104 1.425 . S
C2109 C2106 1.409 . S
C2109 C2107 1.415 . S
C2110 H2100 0.930 . S
C2110 C2108 1.419 . S
C2110 C2111 1.362 . S
C2111 H2101 0.930 . S
C2111 C2104 1.409 . S
C2111 C2110 1.362 . S
H2112 C2118 0.930 . S
H2113 C2121 0.930 . S
H2114 C2122 0.930 . S
H2115 C2123 0.930 . S
H2116 C2126 0.930 . S
H2117 C2127 0.930 . S
C2118 H2112 0.930 . S
C2118 C2119 1.355 . S
C2118 C2120 1.415 . S
C2119 C2118 1.355 . S
C2119 C2121 1.419 . S
C2120 C2118 1.415 . S
C2120 C2125 1.425 . S
C2120 C2127 1.409 . S
C2121 H2113 0.930 . S
C2121 C2119 1.419 . S
C2121 C2122 1.362 . S
C2122 H2114 0.930 . S
C2122 C2121 1.362 . S
C2122 C2125 1.409 . S
C2123 H2115 0.930 . S
C2123 C2124 1.355 . S
C2123 C2125 1.415 . S
C2124 C2123 1.355 . S
C2124 C2126 1.419 . S
C2125 C2120 1.425 . S
C2125 C2122 1.409 . S
C2125 C2123 1.415 . S
C2126 H2116 0.930 . S
C2126 C2124 1.419 . S
C2126 C2127 1.362 . S
C2127 H2117 0.930 . S
C2127 C2120 1.409 . S
C2127 C2126 1.362 . S
H2128 C2134 0.930 . S
H2129 C2137 0.930 . S
H2130 C2138 0.930 . S
H2131 C2139 0.930 . S
H2132 C2142 0.930 . S
H2133 C2143 0.930 . S
C2134 H2128 0.930 . S
C2134 C2135 1.355 . S
C2134 C2136 1.415 . S
C2135 C2134 1.355 . S
C2135 C2137 1.419 . S
C2136 C2134 1.415 . S
C2136 C2141 1.425 . S
C2136 C2143 1.409 . S
C2137 H2129 0.930 . S
C2137 C2135 1.419 . S
C2137 C2138 1.362 . S
C2138 H2130 0.930 . S
C2138 C2137 1.362 . S
C2138 C2141 1.409 . S
C2139 H2131 0.930 . S
C2139 C2140 1.355 . S
C2139 C2141 1.415 . S
C2140 C2139 1.355 . S
C2140 C2142 1.419 . S
C2141 C2136 1.425 . S
C2141 C2138 1.409 . S
C2141 C2139 1.415 . S
C2142 H2132 0.930 . S
C2142 C2140 1.419 . S
C2142 C2143 1.362 . S
C2143 H2133 0.930 . S
C2143 C2136 1.409 . S
C2143 C2142 1.362 . S
H2144 C2150 0.930 . S
H2145 C2153 0.930 . S
H2146 C2154 0.930 . S
H2147 C2155 0.930 . S
H2148 C2158 0.930 . S
H2149 C2159 0.930 . S
C2150 H2144 0.930 . S
C2150 C2151 1.355 . S
C2150 C2152 1.415 . S
C2151 C2150 1.355 . S
C2151 C2153 1.419 . S
C2152 C2150 1.415 . S
C2152 C2157 1.425 . S
C2152 C2159 1.409 . S
C2153 H2145 0.930 . S
C2153 C2151 1.419 . S
C2153 C2154 1.362 . S
C2154 H2146 0.930 . S
C2154 C2153 1.362 . S
C2154 C2157 1.409 . S
C2155 H2147 0.930 . S
C2155 C2156 1.355 . S
C2155 C2157 1.415 . S
C2156 C2155 1.355 . S
C2156 C2158 1.419 . S
C2157 C2152 1.425 . S
C2157 C2154 1.409 . S
C2157 C2155 1.415 . S
C2158 H2148 0.930 . S
C2158 C2156 1.419 . S
C2158 C2159 1.362 . S
C2159 H2149 0.930 . S
C2159 C2152 1.409 . S
C2159 C2158 1.362 . S
C631 C82 1.365 . S
C636 C4 1.370 . S
C647 C17 1.394 . S
C652 C101 1.395 . S
C663 C36 1.388 . S
C668 C62 1.382 . S
C679 C69 1.378 . S
C684 C43 1.372 . S
C695 C446 1.381 . S
C700 C114 1.387 . S
C711 C459 1.394 . S
C716 C127 1.390 . S
C727 C134 1.363 . S
C732 C426 1.363 . S
C743 C147 1.364 . S
C748 C433 1.363 . S
C759 C504 1.367 . S
C764 C160 1.372 . S
C775 C517 1.385 . S
C780 C179 1.379 . S
C791 C472 1.389 . S
C796 C192 1.393 . S
C807 C485 1.393 . S
C812 C199 1.389 . S
C823 C212 1.378 . S
C828 C543 1.384 . S
C839 C231 1.363 . S
C844 C530 1.365 . S
C855 C244 1.395 . S
C860 C303 1.394 . S
C871 C589 1.378 . S
C876 C257 1.371 . S
C887 C602 1.383 . S
C892 C270 1.389 . S
C903 C563 1.377 . S
C908 C283 1.371 . S
C919 C576 1.364 . S
C924 C296 1.363 . S
C935 C400 1.393 . S
C940 C322 1.389 . S
C951 C407 1.363 . S
C956 C335 1.363 . S
C967 C342 1.392 . S
C972 C374 1.394 . S
C983 C355 1.388 . S
C988 C381 1.392 . S
C999 C615 1.367 . S
C1004 C556 1.364 . S
C1015 C211 1.240 . S
C1020 C5 1.263 . S
C1031 C18 1.264 . S
C1036 C614 1.239 . S
C1047 C29 1.254 . S
C1052 C278 1.271 . S
C1063 C601 1.235 . S
C1068 C44 1.266 . S
C1079 C55 1.277 . S
C1084 C538 1.214 . S
C1095 C551 1.276 . S
C1100 C70 1.251 . S
C1111 C83 1.271 . S
C1116 C562 1.233 . S
C1127 C265 1.250 . S
C1132 C94 1.259 . S
C1143 C107 1.267 . S
C1148 C3 1.232 . S
C1159 C16 1.270 . S
C1164 C120 1.255 . S
C1175 C135 1.261 . S
C1180 C31 1.245 . S
C1191 C148 1.275 . S
C1196 C42 1.221 . S
C1207 C161 1.260 . S
C1212 C57 1.249 . S
C1223 C68 1.225 . S
C1228 C172 1.270 . S
C1239 C185 1.258 . S
C1244 C81 1.252 . S
C1255 C200 1.260 . S
C1260 C96 1.249 . S
C1271 C213 1.277 . S
C1276 C109 1.215 . S
C1287 C224 1.274 . S
C1292 C471 1.217 . S
C1303 C484 1.275 . S
C1308 C237 1.251 . S
C1319 C499 1.217 . S
C1324 C250 1.274 . S
C1335 C263 1.271 . S
C1340 C198 1.233 . S
C1351 C276 1.275 . S
C1356 C133 1.222 . S
C1367 C458 1.260 . S
C1372 C289 1.260 . S
C1383 C432 1.218 . S
C1388 C304 1.273 . S
C1399 C315 1.258 . S
C1404 C525 1.262 . S
C1415 C328 1.277 . S
C1420 C302 1.214 . S
C1431 C343 1.252 . S
C1436 C588 1.274 . S
C1447 C356 1.258 . S
C1452 C291 1.252 . S
C1463 C367 1.250 . S
C1468 C226 1.276 . S
C1479 C239 1.222 . S
C1484 C382 1.272 . S
C1495 C252 1.240 . S
C1500 C393 1.263 . S
C1511 C575 1.276 . S
C1516 C408 1.251 . S
C1527 C317 1.214 . S
C1532 C419 1.276 . S
C1543 C330 1.213 . S
C1548 C434 1.277 . S
C1559 C447 1.276 . S
C1564 C341 1.214 . S
C1575 C354 1.222 . S
C1580 C460 1.271 . S
C1591 C473 1.269 . S
C1596 C369 1.227 . S
C1607 C380 1.267 . S
C1612 C486 1.256 . S
C1623 C497 1.258 . S
C1628 C395 1.264 . S
C1639 C406 1.264 . S
C1644 C510 1.254 . S
C1655 C523 1.250 . S
C1660 C421 1.276 . S
C1671 C536 1.261 . S
C1676 C159 1.258 . S
C1687 C174 1.228 . S
C1692 C549 1.269 . S
C1703 C564 1.263 . S
C1708 C187 1.240 . S
C1719 C577 1.268 . S
C1724 C512 1.240 . S
C1735 C445 1.274 . S
C1740 C590 1.252 . S
C1751 C603 1.251 . S
C1756 C146 1.275 . S
C1767 C122 1.276 . S
C1772 C616 1.251 . S
C1783 C121 1.079 . S
C1788 C10 1.083 . S
C1799 C23 1.082 . S
C1804 C140 1.080 . S
C1815 C153 1.071 . S
C1820 C30 1.060 . S
C1831 C108 1.057 . S
C1836 C49 1.081 . S
C1847 C56 1.083 . S
C1852 C205 1.079 . S
C1863 C75 1.076 . S
C1868 C166 1.085 . S
C1879 C173 1.070 . S
C1884 C88 1.088 . S
C1895 C186 1.064 . S
C1900 C95 1.089 . S
C1911 C218 1.084 . S
C1916 C238 1.078 . S
C1927 C225 1.071 . S
C1932 C608 1.060 . S
C1943 C251 1.063 . S
C1948 C621 1.068 . S
C1959 C595 1.076 . S
C1964 C264 1.058 . S
C1975 C582 1.057 . S
C1980 C277 1.083 . S
C1991 C537 1.087 . S
C1996 C290 1.074 . S
C2007 C309 1.073 . S
C2012 C569 1.087 . S
C2023 C439 1.057 . S
C2028 C316 1.079 . S
C2039 C452 1.089 . S
C2044 C329 1.065 . S
C2055 C348 1.063 . S
C2060 C465 1.068 . S
C2071 C420 1.079 . S
C2076 C361 1.057 . S
C2087 C511 1.087 . S
C2092 C368 1.072 . S
C2103 C478 1.057 . S
C2108 C387 1.084 . S
C2119 C394 1.087 . S
C2124 C491 1.059 . S
C2135 C498 1.084 . S
C2140 C413 1.057 . S
C2151 C550 1.073 . S
C2156 C524 1.059 . S
