# Generated by pormake.
# Topology whw, (6)-cn, num edge types: 1
# Building blocks:
#     Node 0, Type 0, BuildingBlock: VOLQOD_clean_sbu_1, # of connection points: 6
#     Node 1, Type 0, BuildingBlock: VOLQOD_clean_sbu_1, # of connection points: 6
#     Node 2, Type 0, BuildingBlock: VOLQOD_clean_sbu_1, # of connection points: 6
#     Node 3, Type 0, BuildingBlock: VOLQOD_clean_sbu_1, # of connection points: 6
#     Node 4, Type 0, BuildingBlock: VOLQOD_clean_sbu_1, # of connection points: 6
#     Node 5, Type 0, BuildingBlock: VOLQOD_clean_sbu_1, # of connection points: 6
#     Node 6, Type 0, BuildingBlock: VOLQOD_clean_sbu_1, # of connection points: 6
#     Node 7, Type 0, BuildingBlock: VOLQOD_clean_sbu_1, # of connection points: 6
#     Node 8, Type 0, BuildingBlock: VOLQOD_clean_sbu_1, # of connection points: 6
#     Node 9, Type 0, BuildingBlock: VOLQOD_clean_sbu_1, # of connection points: 6
#     Node 10, Type 0, BuildingBlock: VOLQOD_clean_sbu_1, # of connection points: 6
#     Node 11, Type 0, BuildingBlock: VOLQOD_clean_sbu_1, # of connection points: 6
#     Node 12, Type 0, BuildingBlock: VOLQOD_clean_sbu_1, # of connection points: 6
#     Node 13, Type 0, BuildingBlock: VOLQOD_clean_sbu_1, # of connection points: 6
#     Node 14, Type 0, BuildingBlock: VOLQOD_clean_sbu_1, # of connection points: 6
#     Node 15, Type 0, BuildingBlock: VOLQOD_clean_sbu_1, # of connection points: 6
#     Edge 16, Type (0, 0), BuildingBlock: KIFKEQ_clean_linker_1, # of connection points: 2
#     Edge 17, Type (0, 0), BuildingBlock: KIFKEQ_clean_linker_1, # of connection points: 2
#     Edge 18, Type (0, 0), BuildingBlock: KIFKEQ_clean_linker_1, # of connection points: 2
#     Edge 19, Type (0, 0), BuildingBlock: KIFKEQ_clean_linker_1, # of connection points: 2
#     Edge 20, Type (0, 0), BuildingBlock: KIFKEQ_clean_linker_1, # of connection points: 2
#     Edge 21, Type (0, 0), BuildingBlock: KIFKEQ_clean_linker_1, # of connection points: 2
#     Edge 22, Type (0, 0), BuildingBlock: KIFKEQ_clean_linker_1, # of connection points: 2
#     Edge 23, Type (0, 0), BuildingBlock: KIFKEQ_clean_linker_1, # of connection points: 2
#     Edge 24, Type (0, 0), BuildingBlock: KIFKEQ_clean_linker_1, # of connection points: 2
#     Edge 25, Type (0, 0), BuildingBlock: KIFKEQ_clean_linker_1, # of connection points: 2
#     Edge 26, Type (0, 0), BuildingBlock: KIFKEQ_clean_linker_1, # of connection points: 2
#     Edge 27, Type (0, 0), BuildingBlock: KIFKEQ_clean_linker_1, # of connection points: 2
#     Edge 28, Type (0, 0), BuildingBlock: KIFKEQ_clean_linker_1, # of connection points: 2
#     Edge 29, Type (0, 0), BuildingBlock: KIFKEQ_clean_linker_1, # of connection points: 2
#     Edge 30, Type (0, 0), BuildingBlock: KIFKEQ_clean_linker_1, # of connection points: 2
#     Edge 31, Type (0, 0), BuildingBlock: KIFKEQ_clean_linker_1, # of connection points: 2
#     Edge 32, Type (0, 0), BuildingBlock: KIFKEQ_clean_linker_1, # of connection points: 2
#     Edge 33, Type (0, 0), BuildingBlock: KIFKEQ_clean_linker_1, # of connection points: 2
#     Edge 34, Type (0, 0), BuildingBlock: KIFKEQ_clean_linker_1, # of connection points: 2
#     Edge 35, Type (0, 0), BuildingBlock: KIFKEQ_clean_linker_1, # of connection points: 2
#     Edge 36, Type (0, 0), BuildingBlock: KIFKEQ_clean_linker_1, # of connection points: 2
#     Edge 37, Type (0, 0), BuildingBlock: KIFKEQ_clean_linker_1, # of connection points: 2
#     Edge 38, Type (0, 0), BuildingBlock: KIFKEQ_clean_linker_1, # of connection points: 2
#     Edge 39, Type (0, 0), BuildingBlock: KIFKEQ_clean_linker_1, # of connection points: 2
#     Edge 40, Type (0, 0), BuildingBlock: KIFKEQ_clean_linker_1, # of connection points: 2
#     Edge 41, Type (0, 0), BuildingBlock: KIFKEQ_clean_linker_1, # of connection points: 2
#     Edge 42, Type (0, 0), BuildingBlock: KIFKEQ_clean_linker_1, # of connection points: 2
#     Edge 43, Type (0, 0), BuildingBlock: KIFKEQ_clean_linker_1, # of connection points: 2
#     Edge 44, Type (0, 0), BuildingBlock: KIFKEQ_clean_linker_1, # of connection points: 2
#     Edge 45, Type (0, 0), BuildingBlock: KIFKEQ_clean_linker_1, # of connection points: 2
#     Edge 46, Type (0, 0), BuildingBlock: KIFKEQ_clean_linker_1, # of connection points: 2
#     Edge 47, Type (0, 0), BuildingBlock: KIFKEQ_clean_linker_1, # of connection points: 2
#     Edge 48, Type (0, 0), BuildingBlock: KIFKEQ_clean_linker_1, # of connection points: 2
#     Edge 49, Type (0, 0), BuildingBlock: KIFKEQ_clean_linker_1, # of connection points: 2
#     Edge 50, Type (0, 0), BuildingBlock: KIFKEQ_clean_linker_1, # of connection points: 2
#     Edge 51, Type (0, 0), BuildingBlock: KIFKEQ_clean_linker_1, # of connection points: 2
#     Edge 52, Type (0, 0), BuildingBlock: KIFKEQ_clean_linker_1, # of connection points: 2
#     Edge 53, Type (0, 0), BuildingBlock: KIFKEQ_clean_linker_1, # of connection points: 2
#     Edge 54, Type (0, 0), BuildingBlock: KIFKEQ_clean_linker_1, # of connection points: 2
#     Edge 55, Type (0, 0), BuildingBlock: KIFKEQ_clean_linker_1, # of connection points: 2
#     Edge 56, Type (0, 0), BuildingBlock: KIFKEQ_clean_linker_1, # of connection points: 2
#     Edge 57, Type (0, 0), BuildingBlock: KIFKEQ_clean_linker_1, # of connection points: 2
#     Edge 58, Type (0, 0), BuildingBlock: KIFKEQ_clean_linker_1, # of connection points: 2
#     Edge 59, Type (0, 0), BuildingBlock: KIFKEQ_clean_linker_1, # of connection points: 2
#     Edge 60, Type (0, 0), BuildingBlock: KIFKEQ_clean_linker_1, # of connection points: 2
#     Edge 61, Type (0, 0), BuildingBlock: KIFKEQ_clean_linker_1, # of connection points: 2
#     Edge 62, Type (0, 0), BuildingBlock: KIFKEQ_clean_linker_1, # of connection points: 2
#     Edge 63, Type (0, 0), BuildingBlock: KIFKEQ_clean_linker_1, # of connection points: 2
# Relax obj value: 0.800
# Max RMSD: 0.286
# Mean RMSD: 0.286
data_MOF--net-whw--node1-VOLQOD_clean_sbu_1--edge1-KIFKEQ_clean_linker_1
_symmetry_space_group_name_H-M    P1
_symmetry_Int_Tables_number       1
_symmetry_cell_setting            triclinic
loop_
_symmetry_equiv_pos_as_xyz
'x, y, z'
_cell_length_a     57.250157
_cell_length_b     57.15886
_cell_length_c     24.382263
_cell_angle_alpha  89.954068
_cell_angle_beta   89.94216
_cell_angle_gamma 89.910862
loop_
_atom_site_label
_atom_site_type_symbol
_atom_site_fract_x
_atom_site_fract_y
_atom_site_fract_z
_atom_type_partial_charge
O0 O 0.97982 0.11342 0.16009 0.0
Zn1 Zn -0.00258 0.11539 0.09023 0.0
O2 O 0.03044 0.11643 0.10003 0.0
Zn3 Zn 0.04246 0.14735 0.1021 0.0
Zn4 Zn 0.03571 0.09988 0.16798 0.0
Zn5 Zn 0.04072 0.10212 0.0331 0.0
O6 O 0.06746 0.15203 0.0451 0.0
O7 O 0.06848 0.11867 0.99871 0.0
O8 O 0.98759 0.14547 0.06012 0.0
O9 O 0.01574 0.16968 0.0875 0.0
O10 O 0.05932 0.15198 0.1736 0.0
O11 O 0.06262 0.11591 0.20838 0.0
O12 O 0.04105 0.06569 0.14433 0.0
O13 O 0.98676 0.09128 0.03743 0.0
O14 O 0.04812 0.06962 0.0543 0.0
O15 O 0.01376 0.10117 0.97756 0.0
C16 C 0.98608 0.10944 0.20908 0.0
C17 C 0.07642 0.13909 0.00816 0.0
C18 C 0.06803 0.13765 0.20828 0.0
C19 C -0.00445 0.16595 0.06691 0.0
C20 C 0.04642 0.05703 0.09737 0.0
C21 C -0.00681 0.09379 0.98795 0.0
O22 O 0.00717 0.10364 0.21972 0.0
O23 O 0.09988 0.74445 0.42587 0.0
Zn24 Zn 0.1038 0.76172 0.35464 0.0
O25 O 0.12556 0.78648 0.36068 0.0
Zn26 Zn 0.11023 0.81614 0.36721 0.0
Zn27 Zn 0.14534 0.78035 0.42277 0.0
Zn28 Zn 0.1403 0.789 0.29048 0.0
O29 O 0.12385 0.84082 0.31902 0.0
O30 O 0.12777 0.81714 0.24823 0.0
O31 O 0.07491 0.77514 0.32281 0.0
O32 O 0.07792 0.81347 0.33783 0.0
O33 O 0.11034 0.82651 0.44434 0.0
O34 O 0.13792 0.80461 0.48363 0.0
O35 O 0.17908 0.77973 0.39204 0.0
O36 O 0.11462 0.73813 0.30065 0.0
O37 O 0.17375 0.79213 0.30579 0.0
O38 O 0.13734 0.75897 0.24578 0.0
C39 C 0.11613 0.73867 0.45904 0.0
C40 C 0.12377 0.83752 0.26747 0.0
C41 C 0.12256 0.82093 0.48591 0.0
C42 C 0.0672 0.79594 0.31817 0.0
C43 C 0.18711 0.78593 0.34497 0.0
C44 C 0.12719 0.7398 0.25788 0.0
O45 O 0.13599 0.74894 0.45774 0.0
O46 O 0.53173 0.8799 0.70254 0.0
Zn47 Zn 0.51043 0.87418 0.64036 0.0
O48 O 0.47802 0.87971 0.65809 0.0
Zn49 Zn 0.46101 0.85143 0.66984 0.0
Zn50 Zn 0.47743 0.89959 0.72317 0.0
Zn51 Zn 0.46553 0.89247 0.5911 0.0
O52 O 0.43167 0.84906 0.62568 0.0
O53 O 0.43554 0.87758 0.56526 0.0
O54 O 0.5141 0.84121 0.61855 0.0
O55 O 0.48023 0.82491 0.64252 0.0
O56 O 0.45115 0.84895 0.74766 0.0
O57 O 0.45454 0.88534 0.78017 0.0
O58 O 0.47016 0.93301 0.69435 0.0
O59 O 0.52166 0.8918 0.5752 0.0
O60 O 0.46062 0.92563 0.60692 0.0
O61 O 0.48882 0.88927 0.52832 0.0
C62 C 0.52911 0.88982 0.74866 0.0
C63 C 0.42427 0.86017 0.58407 0.0
C64 C 0.44764 0.86409 0.78507 0.0
C65 C 0.50053 0.82375 0.62138 0.0
C66 C 0.46327 0.93977 0.64674 0.0
C67 C 0.51098 0.89121 0.52961 0.0
O68 O 0.50943 0.89866 0.76248 0.0
O69 O 0.40605 0.27485 0.87463 0.0
Zn70 Zn 0.40038 0.25659 0.80583 0.0
O71 O 0.38285 0.22857 0.81903 0.0
Zn72 Zn 0.40254 0.20159 0.81209 0.0
Zn73 Zn 0.36904 0.22999 0.89268 0.0
Zn74 Zn 0.36119 0.22545 0.75866 0.0
O75 O 0.38883 0.17626 0.76666 0.0
O76 O 0.36738 0.19728 0.70972 0.0
O77 O 0.43003 0.24865 0.76698 0.0
O78 O 0.43201 0.20996 0.77285 0.0
O79 O 0.40864 0.18729 0.88438 0.0
O80 O 0.38121 0.20205 0.93917 0.0
O81 O 0.33319 0.22962 0.88284 0.0
O82 O 0.38348 0.27804 0.75589 0.0
O83 O 0.33054 0.22192 0.79312 0.0
O84 O 0.35901 0.25479 0.71183 0.0
C85 C 0.39536 0.27541 0.92044 0.0
C86 C 0.37731 0.17807 0.72247 0.0
C87 C 0.39797 0.18766 0.93014 0.0
C88 C 0.44009 0.22936 0.75575 0.0
C89 C 0.32118 0.22482 0.83997 0.0
C90 C 0.36828 0.27481 0.71881 0.0
O91 O 0.3797 0.2602 0.93213 0.0
O92 O 0.95133 0.83815 0.82758 0.0
Zn93 Zn 0.96269 0.84517 0.90344 0.0
O94 O 0.97724 0.87441 0.90485 0.0
Zn95 Zn 0.00969 0.8714 0.9193 0.0
Zn96 Zn 0.97498 0.88864 0.83421 0.0
Zn97 Zn 0.96496 0.89284 0.96482 0.0
O98 O 0.0212 0.89844 0.96224 0.0
O99 O 0.99148 0.89903 0.02023 0.0
O100 O 0.98351 0.82188 0.94034 0.0
O101 O 0.0138 0.84356 0.96653 0.0
O102 O 0.02867 0.86736 0.85101 0.0
O103 O 0.00387 0.88057 0.78851 0.0
O104 O 0.97638 0.92312 0.85419 0.0
O105 O 0.93454 0.84516 0.95073 0.0
O106 O 0.95461 0.9226 0.92939 0.0
O107 O 0.93716 0.87695 1.00226 0.0
C108 C 0.9427 0.85219 0.79209 0.0
C109 C 0.01306 0.90274 0.00968 0.0
C110 C 0.02375 0.87204 0.80134 0.0
C111 C 0.00198 0.82479 0.96881 0.0
C112 C 0.96793 0.93349 0.8963 0.0
C113 C 0.9269 0.85791 0.98945 0.0
O114 O 0.9471 0.8742 0.79358 0.0
O115 O 0.42347 0.68833 0.13039 0.0
Zn116 Zn 0.41467 0.70062 0.20532 0.0
O117 O 0.38667 0.71845 0.2007 0.0
Zn118 Zn 0.39143 0.75118 0.21537 0.0
Zn119 Zn 0.3736 0.71608 0.1284 0.0
Zn120 Zn 0.36644 0.70841 0.2592 0.0
O121 O 0.36704 0.76427 0.26552 0.0
O122 O 0.36567 0.73315 0.31939 0.0
O123 O 0.43911 0.7202 0.24295 0.0
O124 O 0.42123 0.75433 0.25621 0.0
O125 O 0.39403 0.77046 0.14638 0.0
O126 O 0.38202 0.74507 0.08385 0.0
O127 O 0.33816 0.71581 0.13916 0.0
O128 O 0.41002 0.67229 0.25231 0.0
O129 O 0.33468 0.70729 0.22831 0.0
O130 O 0.37544 0.67712 0.2915 0.0
C131 C 0.4105 0.68216 0.09028 0.0
C132 C 0.36308 0.75512 0.31219 0.0
C133 C 0.38988 0.76523 0.0966 0.0
C134 C 0.43856 0.74075 0.26351 0.0
C135 C 0.32569 0.71184 0.1818 0.0
C136 C 0.39391 0.66509 0.28404 0.0
O137 O 0.38909 0.68871 0.08737 0.0
O138 O 0.55213 0.12671 0.2843 0.0
Zn139 Zn 0.52346 0.133 0.32855 0.0
O140 O 0.50618 0.10487 0.33638 0.0
Zn141 Zn 0.47315 0.10886 0.32402 0.0
Zn142 Zn 0.51569 0.08215 0.28211 0.0
Zn143 Zn 0.51119 0.09283 0.4084 0.0
O144 O 0.45488 0.10492 0.39249 0.0
O145 O 0.48045 0.08898 0.44996 0.0
O146 O 0.50352 0.15498 0.28549 0.0
O147 O 0.46754 0.14027 0.29146 0.0
O148 O 0.46087 0.08703 0.26733 0.0
O149 O 0.49308 0.08621 0.21836 0.0
O150 O 0.51135 0.05102 0.32327 0.0
O151 O 0.53289 0.14662 0.40248 0.0
O152 O 0.52877 0.06312 0.39877 0.0
O153 O 0.52968 0.11484 0.45417 0.0
C154 C 0.55979 0.10961 0.25602 0.0
C155 C 0.45978 0.09597 0.43884 0.0
C156 C 0.47086 0.08701 0.22084 0.0
C157 C 0.48175 0.15578 0.27472 0.0
C158 C 0.51914 0.04691 0.37152 0.0
C159 C 0.53564 0.1361 0.44823 0.0
O160 O 0.5483 0.09048 0.25174 0.0
O161 O 0.09837 0.28981 0.55025 0.0
Zn162 Zn 0.10324 0.26889 0.61553 0.0
O163 O 0.13554 0.26193 0.62258 0.0
Zn164 Zn 0.14137 0.2287 0.62768 0.0
Zn165 Zn 0.15187 0.27233 0.55841 0.0
Zn166 Zn 0.14798 0.27619 0.68742 0.0
O167 O 0.16236 0.2191 0.68957 0.0
O168 O 0.15707 0.25064 0.74082 0.0
O169 O 0.08519 0.2387 0.61351 0.0
O170 O 0.11164 0.21427 0.64869 0.0
O171 O 0.14865 0.21417 0.5544 0.0
O172 O 0.15085 0.24603 0.50275 0.0
O173 O 0.18482 0.27702 0.58778 0.0
O174 O 0.09164 0.2866 0.68185 0.0
O175 O 0.17498 0.29583 0.66342 0.0
O176 O 0.12396 0.29518 0.72768 0.0
C177 C 0.11198 0.30194 0.52002 0.0
C178 C 0.16274 0.22914 0.73618 0.0
C179 C 0.14988 0.22382 0.50739 0.0
C180 C 0.09085 0.21916 0.63514 0.0
C181 C 0.19057 0.28665 0.63315 0.0
C182 C 0.10189 0.29641 0.72206 0.0
O183 O 0.13422 0.29943 0.52207 0.0
O184 O 0.89617 0.16784 0.56105 0.0
Zn185 Zn 0.89267 0.17917 0.63651 0.0
O186 O 0.87841 0.20937 0.63994 0.0
Zn187 Zn 0.90022 0.2344 0.65251 0.0
Zn188 Zn 0.86134 0.21409 0.57224 0.0
Zn189 Zn 0.86072 0.20564 0.70668 0.0
O190 O 0.88857 0.25569 0.71202 0.0
O191 O 0.86173 0.23456 0.75492 0.0
O192 O 0.92377 0.18205 0.66836 0.0
O193 O 0.93071 0.22014 0.67798 0.0
O194 O 0.90265 0.25546 0.58596 0.0
O195 O 0.87019 0.24612 0.54065 0.0
O196 O 0.82663 0.21338 0.59508 0.0
O197 O 0.87763 0.15437 0.68168 0.0
O198 O 0.82805 0.20182 0.68305 0.0
O199 O 0.87247 0.17802 0.75148 0.0
C200 C 0.8868 0.17318 0.51562 0.0
C201 C 0.8735 0.25332 0.74996 0.0
C202 C 0.88787 0.25945 0.54784 0.0
C203 C 0.93679 0.19875 0.68354 0.0
C204 C 0.81662 0.20713 0.63993 0.0
C205 C 0.87704 0.15768 0.73309 0.0
O206 O 0.87192 0.18992 0.51245 0.0
O207 O 0.6047 0.8135 0.05245 0.0
Zn208 Zn 0.59159 0.79077 0.10432 0.0
O209 O 0.61382 0.76624 0.12014 0.0
Zn210 Zn 0.59891 0.73541 0.11193 0.0
Zn211 Zn 0.64011 0.76808 0.06831 0.0
Zn212 Zn 0.62285 0.77016 0.1964 0.0
O213 O 0.60271 0.716 0.17919 0.0
O214 O 0.61592 0.74087 0.24153 0.0
O215 O 0.56614 0.77406 0.06696 0.0
O216 O 0.56437 0.73869 0.09832 0.0
O217 O 0.61307 0.71723 0.05221 0.0
O218 O 0.64035 0.74 0.01547 0.0
O219 O 0.66946 0.76498 0.11532 0.0
O220 O 0.58054 0.80841 0.17088 0.0
O221 O 0.65728 0.77333 0.20016 0.0
O222 O 0.60705 0.79786 0.23259 0.0
C223 C 0.6226 0.81465 0.02185 0.0
C224 C 0.60898 0.72048 0.22802 0.0
C225 C 0.62898 0.72082 0.01701 0.0
C226 C 0.5558 0.75915 0.09656 0.0
C227 C 0.67346 0.76838 0.16631 0.0
C228 C 0.58968 0.81041 0.21819 0.0
O229 O 0.63809 0.79845 0.02161 0.0
O230 O 0.61555 0.20658 0.94793 0.0
Zn231 Zn 0.59925 0.23065 0.90303 0.0
O232 O 0.61691 0.25967 0.89409 0.0
Zn233 Zn 0.59739 0.28788 0.90902 0.0
Zn234 Zn 0.64407 0.25777 0.94371 0.0
Zn235 Zn 0.62543 0.26206 0.81856 0.0
O236 O 0.59314 0.30962 0.84361 0.0
O237 O 0.61348 0.29053 0.78104 0.0
O238 O 0.57307 0.24208 0.94882 0.0
O239 O 0.5646 0.27797 0.92914 0.0
O240 O 0.61113 0.30539 0.97094 0.0
O241 O 0.64264 0.28546 0.99815 0.0
O242 O 0.67422 0.25697 0.89607 0.0
O243 O 0.58933 0.21619 0.83032 0.0
O244 O 0.65925 0.26105 0.81223 0.0
O245 O 0.61207 0.2363 0.77399 0.0
C246 C 0.63114 0.2086 0.98465 0.0
C247 C 0.60047 0.30757 0.79457 0.0
C248 C 0.62852 0.30275 1.00276 0.0
C249 C 0.55978 0.2564 0.92454 0.0
C250 C 0.67666 0.2588 0.84394 0.0
C251 C 0.5972 0.22023 0.78232 0.0
O252 O 0.64244 0.22769 0.99079 0.0
O253 O 0.86949 0.77536 0.44018 0.0
Zn254 Zn 0.86965 0.75887 0.36902 0.0
O255 O 0.86683 0.72575 0.37706 0.0
Zn256 Zn 0.89649 0.71063 0.37948 0.0
Zn257 Zn 0.84916 0.72094 0.44378 0.0
Zn258 Zn 0.85267 0.71697 0.30896 0.0
O259 O 0.89856 0.68351 0.32771 0.0
O260 O 0.86942 0.6903 0.2702 0.0
O261 O 0.89964 0.765 0.33321 0.0
O262 O 0.9206 0.73307 0.35087 0.0
O263 O 0.90199 0.69776 0.4547 0.0
O264 O 0.86599 0.69625 0.49052 0.0
O265 O 0.8154 0.71376 0.41903 0.0
O266 O 0.84629 0.77281 0.31853 0.0
O267 O 0.82058 0.70841 0.32876 0.0
O268 O 0.85118 0.74496 0.25699 0.0
C269 C 0.86094 0.76979 0.48641 0.0
C270 C 0.88733 0.67848 0.28437 0.0
C271 C 0.8878 0.69121 0.49207 0.0
C272 C 0.91849 0.75343 0.32989 0.0
C273 C 0.80756 0.70861 0.3712 0.0
C274 C 0.84638 0.76617 0.26885 0.0
O275 O 0.85104 0.74999 0.49339 0.0
O276 O 0.4898 0.62019 0.72659 0.0
Zn277 Zn 0.50183 0.61871 0.65055 0.0
O278 O 0.53024 0.6013 0.64703 0.0
Zn279 Zn 0.55716 0.62076 0.63394 0.0
Zn280 Zn 0.53422 0.58309 0.71424 0.0
Zn281 Zn 0.52866 0.58417 0.57998 0.0
O282 O 0.5774 0.61124 0.57101 0.0
O283 O 0.5484 0.59857 0.52002 0.0
O284 O 0.50773 0.65037 0.62124 0.0
O285 O 0.5463 0.65232 0.61186 0.0
O286 O 0.57684 0.62282 0.69975 0.0
O287 O 0.56373 0.59453 0.75436 0.0
O288 O 0.53691 0.54838 0.68988 0.0
O289 O 0.47655 0.60541 0.60383 0.0
O290 O 0.53967 0.55297 0.59876 0.0
O291 O 0.49601 0.58136 0.54955 0.0
C292 C 0.49232 0.60727 0.76868 0.0
C293 C 0.56876 0.60726 0.52404 0.0
C294 C 0.57813 0.61103 0.74381 0.0
C295 C 0.52609 0.66127 0.60687 0.0
C296 C 0.54095 0.54032 0.64162 0.0
C297 C 0.47697 0.59106 0.56409 0.0
O298 O 0.50732 0.59058 0.76927 0.0
O299 O 0.0013 0.34768 0.20318 0.0
Zn300 Zn 0.97801 0.34339 0.14303 0.0
O301 O 0.95655 0.36956 0.13871 0.0
Zn302 Zn 0.92379 0.36036 0.14823 0.0
Zn303 Zn 0.96511 0.39281 0.19385 0.0
Zn304 Zn 0.9577 0.3813 0.06573 0.0
O305 O 0.9021 0.36633 0.08393 0.0
O306 O 0.92979 0.37221 0.02235 0.0
O307 O 0.95962 0.31429 0.15544 0.0
O308 O 0.92253 0.32591 0.15105 0.0
O309 O 0.9116 0.37002 0.22153 0.0
O310 O 0.94201 0.38863 0.25771 0.0
O311 O 0.96718 0.42546 0.15604 0.0
O312 O -0.00294 0.33941 0.07336 0.0
O313 O 0.96019 0.41518 0.0693 0.0
O314 O 0.98489 0.36926 0.02306 0.0
C315 C 0.00757 0.36515 0.23191 0.0
C316 C 0.90867 0.36764 0.03411 0.0
C317 C 0.92196 0.37897 0.26265 0.0
C318 C 0.9378 0.31 0.15595 0.0
C319 C 0.96436 0.43068 0.10523 0.0
C320 C -0.00171 0.35179 0.02999 0.0
O321 O -0.00357 0.38452 0.22985 0.0
O322 O 0.43165 0.37801 0.25613 0.0
Zn323 Zn 0.44515 0.36129 0.31996 0.0
O324 O 0.47421 0.3747 0.34517 0.0
Zn325 Zn 0.49823 0.35106 0.35439 0.0
Zn326 Zn 0.48481 0.39708 0.28962 0.0
Zn327 Zn 0.46696 0.38809 0.41618 0.0
O328 O 0.50964 0.34889 0.43188 0.0
O329 O 0.48898 0.37612 0.47523 0.0
O330 O 0.45134 0.32938 0.29247 0.0
O331 O 0.48667 0.32074 0.32453 0.0
O332 O 0.52681 0.35784 0.31028 0.0
O333 O 0.51713 0.38875 0.26053 0.0
O334 O 0.48847 0.42871 0.32857 0.0
O335 O 0.42076 0.35851 0.37801 0.0
O336 O 0.47279 0.42186 0.41109 0.0
O337 O 0.43426 0.38167 0.44327 0.0
C338 C 0.44275 0.38638 0.21554 0.0
C339 C 0.50485 0.36049 0.47496 0.0
C340 C 0.53174 0.3729 0.27382 0.0
C341 C 0.4683 0.31527 0.29806 0.0
C342 C 0.48259 0.43544 0.37677 0.0
C343 C 0.41838 0.36842 0.42426 0.0
O344 O 0.46357 0.39412 0.22137 0.0
O345 O 0.07319 0.64687 0.81419 0.0
Zn346 Zn 0.06407 0.64184 0.89143 0.0
O347 O 0.03727 0.62219 0.89578 0.0
Zn348 Zn 0.00938 0.63964 0.90895 0.0
Zn349 Zn 0.03393 0.60508 0.82835 0.0
Zn350 Zn 0.04203 0.60474 0.96227 0.0
O351 O 0.98789 0.62341 0.96073 0.0
O352 O 0.01474 0.60855 0.01592 0.0
O353 O 0.05713 0.67145 0.93074 0.0
O354 O 0.01908 0.66848 0.94873 0.0
O355 O 0.99118 0.64539 0.83987 0.0
O356 O 0.00412 0.61555 0.78967 0.0
O357 O 0.03131 0.57055 0.85238 0.0
O358 O 0.09164 0.62959 0.9325 0.0
O359 O 0.04265 0.5715 0.94044 0.0
O360 O 0.07149 0.61479 1.00145 0.0
C361 C 0.07153 0.63404 0.77172 0.0
C362 C -0.0064 0.6143 0.0063 0.0
C363 C 0.99011 0.63268 0.79703 0.0
C364 C 0.0387 0.67865 0.9545 0.0
C365 C 0.0361 0.56032 0.89796 0.0
C366 C 0.09032 0.6235 0.98254 0.0
O367 O 0.05937 0.61519 0.77213 0.0
H368 H 0.1085 0.17169 0.03874 0.0
H369 H 0.08842 0.12785 0.90279 0.0
H370 H 0.13807 0.19036 0.98189 0.0
H371 H 0.11698 0.14738 0.84467 0.0
H372 H 0.16971 0.18164 0.74403 0.0
H373 H 0.15504 0.15662 0.81722 0.0
H374 H 0.13819 0.21802 0.91301 0.0
H375 H 0.15382 0.2427 0.84159 0.0
C376 C 0.11048 0.16602 0.9966 0.0
C377 C 0.09595 0.14852 0.97498 0.0
C378 C 0.12739 0.17679 0.96384 0.0
C379 C 0.12985 0.17074 0.90818 0.0
C380 C 0.11598 0.15239 0.88741 0.0
C381 C 0.09939 0.14127 0.92059 0.0
C382 C 0.16371 0.18975 0.78164 0.0
C383 C 0.1624 0.21426 0.78618 0.0
C384 C 0.15494 0.17538 0.82339 0.0
C385 C 0.14457 0.1852 0.87045 0.0
C386 C 0.1459 0.20961 0.87759 0.0
C387 C 0.15492 0.22392 0.83623 0.0
H388 H 0.12382 0.8395 0.15524 0.0
H389 H 0.09866 0.87601 0.29884 0.0
H390 H 0.09891 0.86393 0.09758 0.0
H391 H 0.07353 0.90014 0.24104 0.0
H392 H 0.0589 0.91509 1.00053 0.0
H393 H 0.0896 0.9059 0.06633 0.0
H394 H 0.03741 0.88683 0.18603 0.0
H395 H 0.0066 0.89566 0.12004 0.0
C396 C 0.11349 0.85314 0.17437 0.0
C397 C 0.11319 0.85566 0.23166 0.0
C398 C 0.09925 0.86719 0.14134 0.0
C399 C 0.08417 0.88385 0.16494 0.0
C400 C 0.08489 0.88737 0.22184 0.0
C401 C 0.09943 0.87359 0.25482 0.0
C402 C 0.05389 0.90964 0.04146 0.0
C403 C 0.03028 0.90556 0.05459 0.0
C404 C 0.07153 0.90429 0.079 0.0
C405 C 0.06591 0.89517 0.13077 0.0
C406 C 0.04226 0.89381 0.1463 0.0
C407 C 0.02457 0.89895 0.1085 0.0
H408 H 0.34826 0.80057 0.31199 0.0
H409 H 0.3726 0.7457 0.41964 0.0
H410 H 0.35378 0.82916 0.38491 0.0
H411 H 0.37906 0.77423 0.49161 0.0
H412 H 0.39303 0.82664 0.6164 0.0
H413 H 0.36855 0.80286 0.55679 0.0
H414 H 0.38847 0.84586 0.4185 0.0
H415 H 0.41205 0.87001 0.47827 0.0
C416 C 0.35432 0.79454 0.35165 0.0
C417 C 0.36041 0.77095 0.35977 0.0
C418 C 0.35764 0.81096 0.39336 0.0
C419 C 0.36744 0.80419 0.44383 0.0
C420 C 0.37138 0.7802 0.45353 0.0
C421 C 0.36775 0.76374 0.41205 0.0
C422 C 0.39159 0.83143 0.57353 0.0
C423 C 0.40486 0.84996 0.55188 0.0
C424 C 0.37767 0.81767 0.53925 0.0
C425 C 0.37692 0.82201 0.48249 0.0
C426 C 0.38843 0.84195 0.46195 0.0
C427 C 0.40213 0.85584 0.49632 0.0
H428 H 0.37024 0.18018 0.61166 0.0
H429 H 0.39012 0.1328 0.74168 0.0
H430 H 0.3849 0.15255 0.54418 0.0
H431 H 0.4043 0.10483 0.67404 0.0
H432 H 0.46633 0.09336 0.54982 0.0
H433 H 0.43933 0.10696 0.61985 0.0
H434 H 0.38557 0.11561 0.49713 0.0
H435 H 0.41283 0.10252 0.42677 0.0
C436 C 0.37691 0.16349 0.62577 0.0
C437 C 0.37948 0.15891 0.682 0.0
C438 C 0.3853 0.14753 0.58701 0.0
C439 C 0.39625 0.12662 0.60376 0.0
C440 C 0.39649 0.12101 0.65984 0.0
C441 C 0.38824 0.137 0.69857 0.0
C442 C 0.44855 0.09743 0.53799 0.0
C443 C 0.44191 0.09739 0.48259 0.0
C444 C 0.43296 0.1052 0.57825 0.0
C445 C 0.41037 0.11287 0.56392 0.0
C446 C 0.40301 0.11038 0.50932 0.0
C447 C 0.41862 0.10276 0.46906 0.0
H448 H 0.83513 0.76201 0.16008 0.0
H449 H 0.86168 0.81084 0.27961 0.0
H450 H 0.84642 0.78868 0.0866 0.0
H451 H 0.87476 0.83641 0.2071 0.0
H452 H 0.90214 0.87974 0.07226 0.0
H453 H 0.87392 0.86167 0.13443 0.0
H454 H 0.88125 0.79631 0.04642 0.0
H455 H 0.90767 0.81461 0.98329 0.0
C456 C 0.84303 0.77862 0.1706 0.0
C457 C 0.84774 0.78419 0.22546 0.0
C458 C 0.84983 0.79384 0.12853 0.0
C459 C 0.86232 0.8145 0.14037 0.0
C460 C 0.86515 0.82088 0.1957 0.0
C461 C 0.8577 0.80604 0.23767 0.0
C462 C 0.89722 0.86166 0.0657 0.0
C463 C 0.90744 0.84859 0.02321 0.0
C464 C 0.88116 0.85119 0.10159 0.0
C465 C 0.87535 0.82729 0.09639 0.0
C466 C 0.88471 0.81476 0.05185 0.0
C467 C 0.90027 0.8253 0.01561 0.0
H468 H 0.90412 0.1204 0.70295 0.0
H469 H 0.87699 0.15637 0.84536 0.0
H470 H 0.93085 0.09841 0.76134 0.0
H471 H 0.90356 0.13404 0.90368 0.0
H472 H 0.94684 0.08358 0.99988 0.0
H473 H 0.91545 0.09308 0.93634 0.0
H474 H 0.9662 0.11413 0.81506 0.0
H475 H -0.0022 0.10488 0.87879 0.0
C476 C 0.90328 0.12311 0.74687 0.0
C477 C 0.88848 0.14031 0.76948 0.0
C478 C 0.91876 0.1106 0.78018 0.0
C479 C 0.91943 0.11467 0.83688 0.0
C480 C 0.90334 0.13045 0.86007 0.0
C481 C 0.88811 0.14325 0.82667 0.0
C482 C 0.95143 0.0897 0.95924 0.0
C483 C 0.97491 0.09382 0.94479 0.0
C484 C 0.93338 0.09523 0.92297 0.0
C485 C 0.93837 0.10462 0.87113 0.0
C486 C 0.96184 0.10683 0.85478 0.0
C487 C 0.97996 0.10154 0.89133 0.0
H488 H 0.56454 0.18496 0.77983 0.0
H489 H 0.6094 0.22638 0.67528 0.0
H490 H 0.54876 0.1654 0.69887 0.0
H491 H 0.59426 0.20645 0.59523 0.0
H492 H 0.54553 0.18294 0.45842 0.0
H493 H 0.55938 0.20335 0.54012 0.0
H494 H 0.56093 0.13789 0.62881 0.0
H495 H 0.54667 0.11765 0.54809 0.0
C496 C 0.57113 0.18979 0.73977 0.0
C497 C 0.58821 0.20725 0.7342 0.0
C498 C 0.56217 0.17854 0.69337 0.0
C499 C 0.57021 0.18443 0.64052 0.0
C500 C 0.58738 0.20176 0.63515 0.0
C501 C 0.59624 0.21303 0.68131 0.0
C502 C 0.54889 0.17292 0.4953 0.0
C503 C 0.54501 0.14867 0.49657 0.0
C504 C 0.55687 0.18459 0.54211 0.0
C505 C 0.56119 0.17224 0.59109 0.0
C506 C 0.55739 0.148 0.59215 0.0
C507 C 0.54939 0.13637 0.54556 0.0
H508 H 0.55563 0.8755 0.52356 0.0
H509 H 0.49736 0.89617 0.42208 0.0
H510 H 0.57528 0.85953 0.44493 0.0
H511 H 0.51803 0.88185 0.34121 0.0
H512 H 0.54425 0.82402 0.22671 0.0
H513 H 0.52659 0.84778 0.29796 0.0
H514 H 0.59523 0.86079 0.36607 0.0
H515 H 0.61223 0.83478 0.29806 0.0
C516 C 0.54736 0.87746 0.48387 0.0
C517 C 0.5248 0.88695 0.47924 0.0
C518 C 0.55879 0.86833 0.43818 0.0
C519 C 0.54832 0.86899 0.38597 0.0
C520 C 0.52647 0.88024 0.38073 0.0
C521 C 0.51469 0.88882 0.42698 0.0
C522 C 0.55545 0.83186 0.25727 0.0
C523 C 0.57948 0.82705 0.25781 0.0
C524 C 0.54539 0.84589 0.29787 0.0
C525 C 0.5593 0.85623 0.3389 0.0
C526 C 0.58367 0.85258 0.33681 0.0
C527 C 0.59355 0.83779 0.29747 0.0
H528 H 0.60018 0.6742 0.21026 0.0
H529 H 0.61409 0.72389 0.3397 0.0
H530 H 0.59495 0.64343 0.278 0.0
H531 H 0.60832 0.69308 0.4077 0.0
H532 H 0.61012 0.63121 0.51933 0.0
H533 H 0.62348 0.65652 0.44529 0.0
H534 H 0.56551 0.63393 0.34529 0.0
H535 H 0.55239 0.60833 0.41869 0.0
C536 C 0.60218 0.67858 0.25321 0.0
C537 C 0.60734 0.70161 0.26957 0.0
C538 C 0.59913 0.6609 0.29204 0.0
C539 C 0.60109 0.66577 0.34827 0.0
C540 C 0.60698 0.68864 0.36465 0.0
C541 C 0.61013 0.70636 0.3257 0.0
C542 C 0.60055 0.63116 0.48104 0.0
C543 C 0.57999 0.61791 0.47525 0.0
C544 C 0.60809 0.64588 0.43881 0.0
C545 C 0.59533 0.6476 0.38979 0.0
C546 C 0.57582 0.633 0.38243 0.0
C547 C 0.56827 0.61829 0.42464 0.0
H548 H 0.56671 0.34194 0.80185 0.0
H549 H 0.61028 0.30509 0.68561 0.0
H550 H 0.54477 0.35922 0.72599 0.0
H551 H 0.58778 0.32079 0.61101 0.0
H552 H 0.49142 0.35735 0.58267 0.0
H553 H 0.51643 0.34905 0.66169 0.0
H554 H 0.57705 0.35066 0.55543 0.0
H555 H 0.55179 0.35688 0.47687 0.0
C556 C 0.57187 0.33783 0.76022 0.0
C557 C 0.59023 0.32202 0.75001 0.0
C558 C 0.55905 0.34745 0.71662 0.0
C559 C 0.56416 0.34128 0.66192 0.0
C560 C 0.58335 0.32644 0.65208 0.0
C561 C 0.59631 0.3172 0.69531 0.0
C562 C 0.51011 0.35583 0.57665 0.0
C563 C 0.51968 0.35716 0.52377 0.0
C564 C 0.52454 0.35134 0.62194 0.0
C565 C 0.54891 0.34877 0.61528 0.0
C566 C 0.55839 0.35161 0.56236 0.0
C567 C 0.54394 0.35532 0.51717 0.0
H568 H 0.86916 0.34055 0.04295 0.0
H569 H 0.91509 0.37268 0.92432 0.0
H570 H 0.85311 0.31559 0.97115 0.0
H571 H 0.90029 0.34717 0.85388 0.0
H572 H 0.87439 0.29988 0.72839 0.0
H573 H 0.8738 0.33198 0.79391 0.0
H574 H 0.86664 0.28214 0.9266 0.0
H575 H 0.86545 0.25033 0.86015 0.0
C576 C 0.87534 0.3428 1.00129 0.0
C577 C 0.89369 0.35836 0.98959 0.0
C578 C 0.86643 0.32818 0.96018 0.0
C579 C 0.87577 0.32875 0.90668 0.0
C580 C 0.89242 0.34606 0.89416 0.0
C581 C 0.90109 0.36076 0.93492 0.0
C582 C 0.87224 0.29592 0.77157 0.0
C583 C 0.87029 0.27266 0.78938 0.0
C584 C 0.87204 0.3143 0.8093 0.0
C585 C 0.87071 0.30982 0.86603 0.0
C586 C 0.86745 0.2865 0.88344 0.0
C587 C 0.86698 0.26815 0.84541 0.0
H588 H 0.91781 0.64311 0.30868 0.0
H589 H 0.88069 0.67496 0.17381 0.0
H590 H 0.9408 0.62004 0.24421 0.0
H591 H 0.90433 0.65295 0.10929 0.0
H592 H 0.94633 0.61079 0.99606 0.0
H593 H 0.91706 0.61907 0.06604 0.0
H594 H 0.97204 0.62785 0.18583 0.0
H595 H 0.001 0.61829 0.11642 0.0
C596 C 0.91432 0.64492 0.26522 0.0
C597 C 0.89757 0.66103 0.24634 0.0
C598 C 0.92767 0.63184 0.22815 0.0
C599 C 0.92488 0.63486 0.17123 0.0
C600 C 0.90696 0.64983 0.15263 0.0
C601 C 0.89335 0.66261 0.18975 0.0
C602 C 0.95205 0.61385 0.03779 0.0
C603 C 0.97596 0.6141 0.05069 0.0
C604 C 0.93529 0.61884 0.07787 0.0
C605 C 0.94207 0.6247 0.1316 0.0
C606 C 0.96597 0.62326 0.14523 0.0
C607 C 0.98269 0.61782 0.10531 0.0
H608 H 0.39199 0.3291 0.41599 0.0
H609 H 0.40093 0.39124 0.51429 0.0
H610 H 0.36934 0.31134 0.48824 0.0
H611 H 0.37657 0.37414 0.58582 0.0
H612 H 0.38585 0.31892 0.72267 0.0
H613 H 0.38753 0.34676 0.64907 0.0
H614 H 0.34103 0.30356 0.55275 0.0
H615 H 0.3406 0.27462 0.6264 0.0
C616 C 0.38827 0.33939 0.45226 0.0
C617 C 0.39893 0.36123 0.46033 0.0
C618 C 0.375 0.32923 0.49389 0.0
C619 C 0.37171 0.34091 0.54413 0.0
C620 C 0.37957 0.36419 0.54872 0.0
C621 C 0.39341 0.3741 0.50759 0.0
C622 C 0.37562 0.31544 0.68624 0.0
C623 C 0.36382 0.29409 0.67962 0.0
C624 C 0.3763 0.33172 0.64386 0.0
C625 C 0.36491 0.32728 0.59384 0.0
C626 C 0.3507 0.30723 0.58989 0.0
C627 C 0.35031 0.29067 0.63225 0.0
H628 H 0.4352 0.61353 0.57626 0.0
H629 H 0.47163 0.56523 0.46991 0.0
H630 H 0.40786 0.62216 0.50382 0.0
H631 H 0.44333 0.57304 0.39758 0.0
H632 H 0.43062 0.63495 0.27577 0.0
H633 H 0.4433 0.60691 0.34338 0.0
H634 H 0.37952 0.61793 0.43511 0.0
H635 H 0.3672 0.64706 0.36782 0.0
C636 C 0.43685 0.60401 0.53805 0.0
C637 C 0.45621 0.58945 0.52811 0.0
C638 C 0.42092 0.60882 0.49632 0.0
C639 C 0.42383 0.59895 0.44392 0.0
C640 C 0.44108 0.58162 0.43682 0.0
C641 C 0.45725 0.57702 0.47844 0.0
C642 C 0.419 0.6311 0.30969 0.0
C643 C 0.39827 0.64386 0.31736 0.0
C644 C 0.42617 0.61466 0.3484 0.0
C645 C 0.4127 0.61043 0.39566 0.0
C646 C 0.39063 0.6212 0.39997 0.0
C647 C 0.38351 0.63785 0.36127 0.0
H648 H 0.10057 0.70055 0.26102 0.0
H649 H 0.15738 0.73245 0.17143 0.0
H650 H 0.10003 0.66844 0.19722 0.0
H651 H 0.1577 0.69928 0.10813 0.0
H652 H 0.09866 0.61019 0.08872 0.0
H653 H 0.1157 0.63485 0.1596 0.0
H654 H 0.13506 0.68558 0.03598 0.0
H655 H 0.11966 0.66028 0.96554 0.0
C656 C 0.11335 0.70047 0.22822 0.0
C657 C 0.12882 0.71928 0.22098 0.0
C658 C 0.11326 0.68174 0.19174 0.0
C659 C 0.12888 0.68101 0.1472 0.0
C660 C 0.14517 0.69934 0.1414 0.0
C661 C 0.14503 0.71836 0.1777 0.0
C662 C 0.10747 0.62615 0.07663 0.0
C663 C 0.10734 0.63349 0.02169 0.0
C664 C 0.11696 0.6405 0.1173 0.0
C665 C 0.12589 0.66277 0.10398 0.0
C666 C 0.12829 0.6687 0.04826 0.0
C667 C 0.11935 0.65409 0.00754 0.0
H668 H 0.05545 0.30773 0.71909 0.0
H669 H 0.11616 0.30991 0.8243 0.0
H670 H 0.03137 0.32244 0.79418 0.0
H671 H 0.09199 0.32462 0.89925 0.0
H672 H 0.00043 0.36994 0.92653 0.0
H673 H 0.02634 0.35852 0.85195 0.0
H674 H 0.05945 0.30774 0.95764 0.0
H675 H 0.0335 0.31914 0.03273 0.0
C676 C 0.06371 0.31158 0.75799 0.0
C677 C 0.08773 0.30761 0.76565 0.0
C678 C 0.04993 0.32007 0.80094 0.0
C679 C 0.05981 0.32455 0.85262 0.0
C680 C 0.08388 0.32107 0.86001 0.0
C681 C 0.09773 0.31283 0.81689 0.0
C682 C 0.01331 0.35642 0.93415 0.0
C683 C 0.01484 0.3454 0.98567 0.0
C684 C 0.02807 0.34982 0.89125 0.0
C685 C 0.04486 0.33222 0.89895 0.0
C686 C 0.04678 0.32151 0.9507 0.0
C687 C 0.03184 0.32795 0.99358 0.0
H688 H 0.91256 0.29284 0.07255 0.0
H689 H 0.94873 0.27336 0.22104 0.0
H690 H 0.9178 0.25318 0.03702 0.0
H691 H 0.95269 0.23345 0.18684 0.0
H692 H 0.00563 0.21198 0.0515 0.0
H693 H 0.97888 0.24446 0.0688 0.0
H694 H 0.92185 0.19608 0.09023 0.0
H695 H 0.94818 0.16351 0.07083 0.0
C696 C 0.92008 0.2796 0.0991 0.0
C697 C 0.93067 0.28585 0.1489 0.0
C698 C 0.923 0.25703 0.07876 0.0
C699 C 0.93581 0.24077 0.10928 0.0
C700 C 0.94269 0.24598 0.16308 0.0
C701 C 0.94047 0.26868 0.18261 0.0
C702 C 0.98724 0.20835 0.05761 0.0
C703 C 0.97906 0.18536 0.061 0.0
C704 C 0.97198 0.22682 0.06721 0.0
C705 C 0.94862 0.22235 0.08119 0.0
C706 C 0.93983 0.19964 0.07916 0.0
C707 C 0.95497 0.18116 0.06824 0.0
H708 H 0.92243 0.79834 0.29254 0.0
H709 H 0.95799 0.73151 0.2956 0.0
H710 H 0.95699 0.81643 0.25234 0.0
H711 H 0.99221 0.74942 0.25602 0.0
H712 H 0.05459 0.77482 0.22374 0.0
H713 H 0.01487 0.77192 0.18848 0.0
H714 H 0.99205 0.82228 0.30956 0.0
H715 H 0.03189 0.82591 0.34271 0.0
C716 C 0.93747 0.78744 0.28378 0.0
C717 C 0.93801 0.76373 0.2994 0.0
C718 C 0.95706 0.79776 0.26007 0.0
C719 C 0.97735 0.78448 0.25159 0.0
C720 C 0.97683 0.76022 0.26162 0.0
C721 C 0.95738 0.74998 0.28561 0.0
C722 C 0.04112 0.78588 0.24123 0.0
C723 C 0.04562 0.79958 0.28771 0.0
C724 C 0.01855 0.7845 0.22057 0.0
C725 C 0.0003 0.79594 0.24817 0.0
C726 C 0.00571 0.8129 0.28803 0.0
C727 C 0.02843 0.81472 0.3078 0.0
H728 H 0.56059 0.6891 0.5647 0.0
H729 H 0.48616 0.68635 0.59524 0.0
H730 H 0.55699 0.73015 0.53865 0.0
H731 H 0.48272 0.727 0.57129 0.0
H732 H 0.4755 0.79872 0.5491 0.0
H733 H 0.48497 0.75997 0.51355 0.0
H734 H 0.55078 0.76188 0.60082 0.0
H735 H 0.54185 0.80125 0.63261 0.0
C736 C 0.54346 0.69717 0.56529 0.0
C737 C 0.52377 0.68486 0.584 0.0
C738 C 0.5414 0.72057 0.55002 0.0
C739 C 0.51969 0.73191 0.55376 0.0
C740 C 0.49972 0.71885 0.56738 0.0
C741 C 0.50175 0.69554 0.5822 0.0
C742 C 0.49217 0.79087 0.55945 0.0
C743 C 0.50765 0.80212 0.59512 0.0
C744 C 0.49768 0.76891 0.53885 0.0
C745 C 0.51824 0.75761 0.55581 0.0
C746 C 0.53478 0.77007 0.58689 0.0
C747 C 0.52956 0.79239 0.60601 0.0
H748 H 0.56262 0.27885 0.82501 0.0
H749 H 0.53809 0.21583 0.90315 0.0
H750 H 0.54549 0.26652 0.73868 0.0
H751 H 0.51951 0.20406 0.81889 0.0
H752 H 0.46839 0.1922 0.72845 0.0
H753 H 0.51079 0.19458 0.72701 0.0
H754 H 0.50608 0.26996 0.72046 0.0
H755 H 0.46421 0.26758 0.7196 0.0
C756 C 0.5537 0.26228 0.82356 0.0
C757 C 0.55097 0.24863 0.87105 0.0
C758 C 0.54404 0.25507 0.77393 0.0
C759 C 0.53042 0.23465 0.77167 0.0
C760 C 0.52972 0.21997 0.81825 0.0
C761 C 0.53991 0.22691 0.86731 0.0
C762 C 0.47647 0.20923 0.72431 0.0
C763 C 0.46325 0.22985 0.72943 0.0
C764 C 0.5008 0.2106 0.72285 0.0
C765 C 0.51159 0.23246 0.73018 0.0
C766 C 0.49837 0.2527 0.71895 0.0
C767 C 0.47411 0.25141 0.7194 0.0
H768 H 0.04494 0.81923 0.01665 0.0
H769 H 0.97616 0.78853 0.00652 0.0
H770 H 0.05978 0.7833 0.05813 0.0
H771 H 0.99073 0.75297 0.04646 0.0
H772 H 0.01291 0.6868 0.04608 0.0
H773 H 0.0102 0.72359 0.09622 0.0
H774 H 0.06576 0.75189 0.99572 0.0
H775 H 0.06921 0.71489 0.94842 0.0
C776 C 0.0329 0.805 0.02442 0.0
C777 C 0.0098 0.80588 0.00512 0.0
C778 C 0.04133 0.78457 0.04875 0.0
C779 C 0.0268 0.76484 0.05296 0.0
C780 C 0.00273 0.7675 0.04281 0.0
C781 C -0.00563 0.78779 0.01851 0.0
C782 C 0.02486 0.70082 0.03586 0.0
C783 C 0.04026 0.69879 0.9913 0.0
C784 C 0.02359 0.7217 0.0651 0.0
C785 C 0.03682 0.74107 0.04799 0.0
C786 C 0.05489 0.73757 0.00953 0.0
C787 C 0.05658 0.71648 0.98135 0.0
H788 H 0.57157 0.74986 0.19989 0.0
H789 H 0.51987 0.7891 0.11033 0.0
H790 H 0.55069 0.7571 0.28534 0.0
H791 H 0.49837 0.79574 0.19455 0.0
H792 H 0.44769 0.78639 0.29084 0.0
H793 H 0.4867 0.80309 0.28971 0.0
H794 H 0.51616 0.73352 0.29537 0.0
H795 H 0.47751 0.71693 0.29636 0.0
C796 C 0.55588 0.76032 0.19885 0.0
C797 C 0.54643 0.76782 0.14867 0.0
C798 C 0.54418 0.76487 0.2478 0.0
C799 C 0.52238 0.77612 0.24671 0.0
C800 C 0.51495 0.78668 0.19728 0.0
C801 C 0.52698 0.78256 0.14857 0.0
C802 C 0.46252 0.77469 0.29432 0.0
C803 C 0.45981 0.75033 0.28891 0.0
C804 C 0.4849 0.78432 0.29449 0.0
C805 C 0.5043 0.76957 0.28737 0.0
C806 C 0.5015 0.74548 0.29766 0.0
C807 C 0.47922 0.73581 0.29729 0.0
H808 H 0.50305 0.17949 0.19256 0.0
H809 H 0.44014 0.17761 0.29026 0.0
H810 H 0.49436 0.21967 0.16585 0.0
H811 H 0.432 0.21803 0.2659 0.0
H812 H 0.43 0.29427 0.25254 0.0
H813 H 0.42799 0.25493 0.2135 0.0
H814 H 0.50203 0.24625 0.24255 0.0
H815 H 0.50406 0.2851 0.28061 0.0
C816 C 0.487 0.18751 0.20687 0.0
C817 C 0.47278 0.17616 0.24536 0.0
C818 C 0.48192 0.21034 0.19125 0.0
C819 C 0.46313 0.22218 0.21583 0.0
C820 C 0.4468 0.20943 0.24683 0.0
C821 C 0.45159 0.18636 0.26141 0.0
C822 C 0.44587 0.28399 0.24971 0.0
C823 C 0.46709 0.29241 0.27097 0.0
C824 C 0.44472 0.26164 0.22691 0.0
C825 C 0.46481 0.24759 0.22468 0.0
C826 C 0.48627 0.25676 0.24259 0.0
C827 C 0.48738 0.27889 0.26561 0.0
H828 H 0.08448 0.20362 0.73813 0.0
H829 H 0.05591 0.20092 0.57447 0.0
H830 H 0.048 0.18761 0.77503 0.0
H831 H 0.02013 0.18363 0.61079 0.0
H832 H 0.96794 0.22729 0.73544 0.0
H833 H 0.0096 0.21973 0.74557 0.0
H834 H 1e-05 0.14928 0.68654 0.0
H835 H 0.95827 0.15629 0.67827 0.0
C836 C 0.0708 0.19843 0.70998 0.0
C837 C 0.07243 0.20369 0.65383 0.0
C838 C 0.05019 0.18913 0.73103 0.0
C839 C 0.03162 0.18435 0.69555 0.0
C840 C 0.03452 0.1869 0.63862 0.0
C841 C 0.05472 0.19699 0.61788 0.0
C842 C 0.97457 0.20992 0.72676 0.0
C843 C 0.96017 0.19276 0.70371 0.0
C844 C -0.00172 0.20545 0.73357 0.0
C845 C 0.00772 0.18402 0.71616 0.0
C846 C -0.0071 0.16584 0.70037 0.0
C847 C 0.96912 0.17011 0.69475 0.0
H848 H 0.01721 0.02586 0.14729 0.0
H849 H 0.06972 0.0317 0.021 0.0
H850 H 0.00011 0.99264 0.09939 0.0
H851 H 0.05199 -0.00022 0.97137 0.0
H852 H 0.95235 0.96842 0.96254 0.0
H853 H 0.97609 0.99311 0.02169 0.0
H854 H 0.0387 0.96288 0.9516 0.0
H855 H 0.0149 0.93965 0.89003 0.0
C856 C 0.02576 0.01939 0.11064 0.0
C857 C 0.0444 0.03173 0.08705 0.0
C858 C 0.01558 0.00074 0.08227 0.0
C859 C 0.02386 -0.00568 0.02993 0.0
C860 C 0.0448 0.00432 0.01101 0.0
C861 C 0.05514 0.02264 0.03976 0.0
C862 C 0.97119 0.96774 0.95863 0.0
C863 C 0.98172 0.95251 0.92091 0.0
C864 C 0.98487 0.98137 0.99358 0.0
C865 C 0.00942 0.97964 0.99259 0.0
C866 C 0.01991 0.9649 0.95346 0.0
C867 C 0.00623 0.95174 0.91757 0.0
H868 H 0.21731 0.75401 0.39053 0.0
H869 H 0.21113 0.80471 0.25992 0.0
H870 H 0.25003 0.73582 0.34269 0.0
H871 H 0.24203 0.78554 0.20999 0.0
H872 H 0.31048 0.754 0.1491 0.0
H873 H 0.2794 0.77524 0.19432 0.0
H874 H 0.25546 0.71087 0.26917 0.0
H875 H 0.28808 0.69014 0.22706 0.0
C876 C 0.22333 0.76166 0.35239 0.0
C877 C 0.21139 0.78056 0.32866 0.0
C878 C 0.24165 0.75082 0.324 0.0
C879 C 0.24813 0.75848 0.27107 0.0
C880 C 0.23765 0.77887 0.25025 0.0
C881 C 0.21983 0.78998 0.27913 0.0
C882 C 0.2979 0.74421 0.17314 0.0
C883 C 0.30158 0.72043 0.18441 0.0
C884 C 0.28016 0.75648 0.19996 0.0
C885 C 0.26523 0.74502 0.23723 0.0
C886 C 0.26721 0.72056 0.24284 0.0
C887 C 0.28541 0.70845 0.21725 0.0
H888 H 0.54076 0.01446 0.43455 0.0
H889 H 0.47311 0.04158 0.39007 0.0
H890 H 0.5235 -0.00577 0.51267 0.0
H891 H 0.45589 0.02303 0.47029 0.0
H892 H 0.43188 0.96218 0.58302 0.0
H893 H 0.44418 0.98938 0.51285 0.0
H894 H 0.50889 0.0007 0.60036 0.0
H895 H 0.49693 0.97198 0.66873 0.0
C896 C 0.52203 0.01546 0.44077 0.0
C897 C 0.50812 0.02885 0.40544 0.0
C898 C 0.51219 0.00455 0.48655 0.0
C899 C 0.48831 0.00746 0.49909 0.0
C900 C 0.47426 0.02016 0.46214 0.0
C901 C 0.48404 0.03052 0.41554 0.0
C902 C 0.44822 0.97144 0.58876 0.0
C903 C 0.46373 0.96451 0.63039 0.0
C904 C 0.45548 0.98692 0.54794 0.0
C905 C 0.47813 -0.00363 0.54915 0.0
C906 C 0.49181 0.99277 0.59653 0.0
C907 C 0.48466 0.97688 0.6369 0.0
H908 H 0.29437 0.25986 0.88317 0.0
H909 H 0.29109 0.19615 0.78931 0.0
H910 H 0.25898 0.27382 0.83832 0.0
H911 H 0.25776 0.21051 0.7405 0.0
H912 H 0.22375 0.30917 0.69356 0.0
H913 H 0.25077 0.29125 0.75835 0.0
H914 H 0.22367 0.22295 0.71442 0.0
H915 H 0.19969 0.24092 0.64502 0.0
C916 C 0.28546 0.24841 0.85467 0.0
C917 C 0.29564 0.22715 0.83879 0.0
C918 C 0.2656 0.25673 0.82728 0.0
C919 C 0.25601 0.2441 0.7829 0.0
C920 C 0.26433 0.22122 0.77352 0.0
C921 C 0.28358 0.21271 0.80204 0.0
C922 C 0.22452 0.29027 0.69654 0.0
C923 C 0.2103 0.27637 0.66318 0.0
C924 C 0.23945 0.27989 0.73498 0.0
C925 C 0.23958 0.25538 0.74292 0.0
C926 C 0.22499 0.24168 0.70928 0.0
C927 C 0.2111 0.252 0.66906 0.0
H928 H 0.68964 0.27662 0.74603 0.0
H929 H 0.71432 0.23263 0.87794 0.0
H930 H 0.72074 0.26266 0.68731 0.0
H931 H 0.74664 0.21946 0.81973 0.0
H932 H 0.78532 0.1796 0.69258 0.0
H933 H 0.75151 0.19419 0.74295 0.0
H934 H 0.76038 0.26189 0.66637 0.0
H935 H 0.79336 0.24679 0.61433 0.0
C936 C 0.70222 0.26443 0.76305 0.0
C937 C 0.69941 0.25551 0.81646 0.0
C938 C 0.72011 0.25642 0.72922 0.0
C939 C 0.73591 0.23949 0.74816 0.0
C940 C 0.73428 0.23197 0.80321 0.0
C941 C 0.71612 0.23988 0.83709 0.0
C942 C 0.77921 0.19723 0.68457 0.0
C943 C 0.79178 0.21204 0.64935 0.0
C944 C 0.76028 0.20582 0.71454 0.0
C945 C 0.75374 0.22947 0.71035 0.0
C946 C 0.76491 0.2436 0.6709 0.0
C947 C 0.78364 0.23486 0.64029 0.0
H948 H 0.77307 0.73493 0.41869 0.0
H949 H 0.78575 0.68297 0.294 0.0
H950 H 0.73827 0.74783 0.36968 0.0
H951 H 0.75285 0.69699 0.24243 0.0
H952 H 0.69002 0.72486 0.1555 0.0
H953 H 0.71666 0.70516 0.21715 0.0
H954 H 0.73168 0.77136 0.29609 0.0
H955 H 0.70282 0.79031 0.23748 0.0
C956 C 0.76789 0.72566 0.38194 0.0
C957 C 0.78235 0.7083 0.35949 0.0
C958 C 0.74835 0.73354 0.3527 0.0
C959 C 0.74325 0.72443 0.30024 0.0
C960 C 0.75598 0.70482 0.28209 0.0
C961 C 0.77498 0.69658 0.31198 0.0
C962 C 0.6996 0.73524 0.18506 0.0
C963 C 0.69494 0.75918 0.19088 0.0
C964 C 0.71482 0.72392 0.22101 0.0
C965 C 0.72644 0.73644 0.26258 0.0
C966 C 0.72262 0.7608 0.26612 0.0
C967 C 0.70664 0.77192 0.23143 0.0
H968 H 0.57382 0.51735 0.58341 0.0
H969 H 0.50841 0.5077 0.66765 0.0
H970 H 0.56076 0.4923 0.50983 0.0
H971 H 0.49566 0.48098 0.59605 0.0
H972 H 0.46234 0.47084 0.43371 0.0
H973 H 0.48117 0.4908 0.50989 0.0
H974 H 0.54753 0.46085 0.46146 0.0
H975 H 0.52878 0.44259 0.38319 0.0
C976 C 0.55729 0.50835 0.58823 0.0
C977 C 0.54172 0.51521 0.62985 0.0
C978 C 0.54952 0.49427 0.54523 0.0
C979 C 0.52647 0.48582 0.54505 0.0
C980 C 0.51298 0.48845 0.59312 0.0
C981 C 0.52063 0.50304 0.63547 0.0
C982 C 0.48116 0.46973 0.43774 0.0
C983 C 0.49416 0.45552 0.40218 0.0
C984 C 0.4919 0.4804 0.4826 0.0
C985 C 0.51577 0.47656 0.49367 0.0
C986 C 0.52913 0.46414 0.45488 0.0
C987 C 0.51845 0.45401 0.40917 0.0
H988 H 0.99258 0.54499 0.87785 0.0
H989 H 0.05807 0.52468 0.95088 0.0
H990 H 0.97226 0.51658 0.93403 0.0
H991 H 0.03815 0.49475 0.00456 0.0
H992 H -0.0024 0.46197 0.13983 0.0
H993 H 0.01498 0.49247 0.08256 0.0
H994 H 0.96244 0.47979 0.9586 0.0
H995 H 0.94437 0.45109 0.01741 0.0
C996 C 0.00282 0.53336 0.90349 0.0
C997 C 0.02691 0.53686 0.90963 0.0
C998 C 0.99112 0.5172 0.93657 0.0
C999 C 0.00338 0.50368 0.97546 0.0
C1000 C 0.02791 0.50545 0.97691 0.0
C1001 C 0.03951 0.52206 0.94483 0.0
C1002 C 0.98921 0.46661 0.10153 0.0
C1003 C 0.96973 0.45408 0.08298 0.0
C1004 C -0.00047 0.4836 0.0678 0.0
C1005 C 0.9907 0.48811 0.01471 0.0
C1006 C 0.96992 0.47699 0.99881 0.0
C1007 C 0.95944 0.46047 0.03279 0.0
H1008 H 0.09976 0.17213 0.19216 0.0
H1009 H 0.07438 0.12425 0.31527 0.0
H1010 H 0.12521 0.19036 0.25935 0.0
H1011 H 0.09874 0.14342 0.384 0.0
H1012 H 0.13828 0.23901 0.40484 0.0
H1013 H 0.12191 0.21616 0.33097 0.0
H1014 H 0.13486 0.15265 0.42268 0.0
H1015 H 0.1502 0.17589 0.4983 0.0
C1016 C 0.09964 0.16554 0.23385 0.0
C1017 C 0.08492 0.14694 0.24867 0.0
C1018 C 0.11413 0.1761 0.27261 0.0
C1019 C 0.11387 0.16878 0.32775 0.0
C1020 C 0.09974 0.14948 0.34201 0.0
C1021 C 0.08561 0.13853 0.30273 0.0
C1022 C 0.13816 0.22014 0.40893 0.0
C1023 C 0.14542 0.20936 0.45786 0.0
C1024 C 0.12876 0.20689 0.36619 0.0
C1025 C 0.1267 0.18239 0.37064 0.0
C1026 C 0.13555 0.17147 0.4181 0.0
C1027 C 0.14466 0.1848 0.4613 0.0
H1028 H 0.10615 0.86492 0.50178 0.0
H1029 H 0.1226 0.80113 0.5884 0.0
H1030 H 0.08511 0.87943 0.58161 0.0
H1031 H 0.10097 0.81541 0.66832 0.0
H1032 H 0.01969 0.87873 0.69044 0.0
H1033 H 0.04774 0.86859 0.61928 0.0
H1034 H 0.09588 0.84362 0.74253 0.0
H1035 H 0.0676 0.85338 0.81388 0.0
C1036 C 0.10573 0.85422 0.53848 0.0
C1037 C 0.11591 0.83183 0.53874 0.0
C1038 C 0.09342 0.86243 0.58403 0.0
C1039 C 0.0908 0.84836 0.63091 0.0
C1040 C 0.10263 0.82672 0.63289 0.0
C1041 C 0.11515 0.81856 0.58721 0.0
C1042 C 0.03629 0.87122 0.70251 0.0
C1043 C 0.0413 0.86687 0.75798 0.0
C1044 C 0.0525 0.86554 0.66167 0.0
C1045 C 0.07419 0.85539 0.67513 0.0
C1046 C 0.07931 0.85124 0.73065 0.0
C1047 C 0.06309 0.85695 0.77156 0.0
H1048 H 0.40295 0.81125 0.10778 0.0
H1049 H 0.38978 0.75817 0.98568 0.0
H1050 H 0.41387 0.83876 0.03553 0.0
H1051 H 0.40142 0.7852 0.91401 0.0
H1052 H 0.46017 0.86903 0.89306 0.0
H1053 H 0.44413 0.847 0.97076 0.0
H1054 H 0.39067 0.81867 0.86484 0.0
H1055 H 0.40746 0.83968 0.78753 0.0
C1056 C 0.40232 0.80544 0.06554 0.0
C1057 C 0.3954 0.78246 0.05264 0.0
C1058 C 0.40874 0.82121 0.02407 0.0
C1059 C 0.40849 0.81437 0.96864 0.0
C1060 C 0.40136 0.79141 0.95595 0.0
C1061 C 0.3948 0.77575 0.99725 0.0
C1062 C 0.44464 0.85854 0.88705 0.0
C1063 C 0.43506 0.85597 0.83445 0.0
C1064 C 0.43543 0.84584 0.93146 0.0
C1065 C 0.41634 0.83056 0.92403 0.0
C1066 C 0.40579 0.8296 0.87199 0.0
C1067 C 0.4152 0.8419 0.82774 0.0
H1068 H 0.48735 0.0976 0.11831 0.0
H1069 H 0.42411 0.09729 0.21534 0.0
H1070 H 0.4676 0.12041 0.04811 0.0
H1071 H 0.40424 0.11984 0.14442 0.0
H1072 H 0.38993 0.18778 0.04202 0.0
H1073 H 0.40555 0.16012 0.10976 0.0
H1074 H 0.43776 0.12031 0.97944 0.0
H1075 H 0.42284 0.14791 0.91269 0.0
C1076 C 0.46905 0.1018 0.12406 0.0
C1077 C 0.45742 0.09563 0.17275 0.0
C1078 C 0.45769 0.11497 0.08374 0.0
C1079 C 0.43437 0.12224 0.09089 0.0
C1080 C 0.42232 0.11493 0.13809 0.0
C1081 C 0.43368 0.10171 0.17843 0.0
C1082 C 0.40019 0.17301 0.028 0.0
C1083 C 0.40539 0.1703 0.97204 0.0
C1084 C 0.40906 0.15709 0.0667 0.0
C1085 C 0.42314 0.13809 0.05006 0.0
C1086 C 0.42746 0.13498 0.9939 0.0
C1087 C 0.4188 0.15085 0.95555 0.0
H1088 H 0.85352 0.76124 0.59613 0.0
H1089 H 0.87997 0.81353 0.48411 0.0
H1090 H 0.86906 0.78358 0.67314 0.0
H1091 H 0.89617 0.83524 0.56042 0.0
H1092 H 0.91761 0.87533 0.71196 0.0
H1093 H 0.89231 0.85801 0.64208 0.0
H1094 H 0.90781 0.78913 0.7057 0.0
H1095 H 0.93227 0.80625 0.77562 0.0
C1096 C 0.86224 0.77769 0.58793 0.0
C1097 C 0.86577 0.78537 0.53381 0.0
C1098 C 0.87138 0.7904 0.63205 0.0
C1099 C 0.88433 0.81101 0.62302 0.0
C1100 C 0.88627 0.81955 0.56918 0.0
C1101 C 0.87705 0.80694 0.52521 0.0
C1102 C 0.91548 0.85651 0.7111 0.0
C1103 C 0.92711 0.84224 0.74935 0.0
C1104 C 0.90099 0.84656 0.67104 0.0
C1105 C 0.89785 0.82212 0.66832 0.0
C1106 C 0.9093 0.808 0.70709 0.0
C1107 C 0.92363 0.81789 0.747 0.0
H1108 H 0.88783 0.18798 0.40763 0.0
H1109 H 0.90693 0.13018 0.51263 0.0
H1110 H 0.91022 0.17021 0.33253 0.0
H1111 H 0.92901 0.11255 0.43823 0.0
H1112 H -0.00722 0.10815 0.32112 0.0
H1113 H 0.9659 0.12174 0.39231 0.0
H1114 H 0.91387 0.13673 0.26912 0.0
H1115 H 0.94058 0.12331 0.19815 0.0
C1116 C 0.89624 0.17123 0.41429 0.0
C1117 C 0.89569 0.16064 0.4663 0.0
C1118 C 0.90919 0.16106 0.37136 0.0
C1119 C 0.92183 0.14013 0.37966 0.0
C1120 C 0.92002 0.12893 0.43071 0.0
C1121 C 0.90714 0.139 0.47328 0.0
C1122 C 0.97549 0.11397 0.30927 0.0
C1123 C 0.96898 0.11458 0.25374 0.0
C1124 C 0.96003 0.12178 0.3501 0.0
C1125 C 0.93771 0.13051 0.33644 0.0
C1126 C 0.93099 0.13048 0.2811 0.0
C1127 C 0.94634 0.12255 0.24042 0.0
H1128 H 0.63426 0.21313 0.09547 0.0
H1129 H 0.62945 0.16156 0.96717 0.0
H1130 H 0.62378 0.18376 0.16297 0.0
H1131 H 0.62067 0.13146 0.03487 0.0
H1132 H 0.56365 0.09989 0.14742 0.0
H1133 H 0.58848 0.12032 0.08263 0.0
H1134 H 0.62638 0.15159 0.21744 0.0
H1135 H 0.60009 0.13233 0.28179 0.0
C1136 C 0.63207 0.19519 0.08209 0.0
C1137 C 0.63251 0.18968 0.02607 0.0
C1138 C 0.62602 0.17816 0.12094 0.0
C1139 C 0.62075 0.15501 0.10481 0.0
C1140 C 0.62371 0.14912 0.0491 0.0
C1141 C 0.62913 0.16631 0.01018 0.0
C1142 C 0.57786 0.11044 0.16312 0.0
C1143 C 0.57986 0.11459 0.2196 0.0
C1144 C 0.59222 0.12233 0.12584 0.0
C1145 C 0.60931 0.13832 0.14423 0.0
C1146 C 0.61296 0.14023 0.20122 0.0
C1147 C 0.59816 0.12882 0.23837 0.0
H1148 H 0.52746 0.89318 0.86089 0.0
H1149 H 0.57509 0.8818 0.72603 0.0
H1150 H 0.55776 0.8811 0.92506 0.0
H1151 H 0.60556 0.87022 0.79017 0.0
H1152 H 0.62915 0.81013 0.91178 0.0
H1153 H 0.611 0.83533 0.84328 0.0
H1154 H 0.59481 0.88606 0.9691 0.0
H1155 H 0.61239 0.86041 0.03756 0.0
C1156 C 0.54462 0.88887 0.84506 0.0
C1157 C 0.5487 0.88814 0.78832 0.0
C1158 C 0.56211 0.88196 0.88188 0.0
C1159 C 0.58412 0.87434 0.8628 0.0
C1160 C 0.58873 0.8755 0.80628 0.0
C1161 C 0.57124 0.88227 0.76953 0.0
C1162 C 0.62282 0.8272 0.92424 0.0
C1163 C 0.62207 0.83327 0.97993 0.0
C1164 C 0.61219 0.84165 0.88502 0.0
C1165 C 0.6008 0.86249 0.90089 0.0
C1166 C 0.6028 0.86986 0.95565 0.0
C1167 C 0.61324 0.85534 0.99477 0.0
H1168 H 0.57421 0.60763 0.8552 0.0
H1169 H 0.6189 0.63433 0.72694 0.0
H1170 H 0.59485 0.63145 0.92198 0.0
H1171 H 0.64005 0.65773 0.7939 0.0
H1172 H 0.6337 0.72468 0.90583 0.0
H1173 H 0.62865 0.69292 0.83993 0.0
H1174 H 0.62834 0.64278 0.97284 0.0
H1175 H 0.63241 0.67467 0.03834 0.0
C1176 C 0.58907 0.61784 0.84167 0.0
C1177 C 0.59469 0.6194 0.78582 0.0
C1178 C 0.60098 0.63156 0.87996 0.0
C1179 C 0.61888 0.64691 0.86313 0.0
C1180 C 0.626 0.64657 0.80803 0.0
C1181 C 0.61398 0.63301 0.76976 0.0
C1182 C 0.63336 0.70679 0.92055 0.0
C1183 C 0.63314 0.70206 0.9769 0.0
C1184 C 0.63048 0.68852 0.88292 0.0
C1185 C 0.6276 0.66526 0.90122 0.0
C1186 C 0.62988 0.66049 0.95744 0.0
C1187 C 0.6324 0.67872 0.9949 0.0
H1188 H 0.54105 0.38739 0.16941 0.0
H1189 H 0.57184 0.35114 0.30688 0.0
H1190 H 0.57314 0.37489 0.1115 0.0
H1191 H 0.60485 0.33958 0.24979 0.0
H1192 H 0.62786 0.28904 0.10891 0.0
H1193 H 0.61034 0.31148 0.18278 0.0
H1194 H 0.61121 0.37335 0.08042 0.0
H1195 H 0.62729 0.35017 0.00545 0.0
C1196 C 0.55514 0.37743 0.18774 0.0
C1197 C 0.5537 0.36993 0.24242 0.0
C1198 C 0.57377 0.37031 0.15454 0.0
C1199 C 0.59167 0.35584 0.17548 0.0
C1200 C 0.59118 0.35015 0.23164 0.0
C1201 C 0.57231 0.35691 0.26456 0.0
C1202 C 0.62533 0.30768 0.10322 0.0
C1203 C 0.62878 0.31787 0.05156 0.0
C1204 C 0.61511 0.32066 0.14561 0.0
C1205 C 0.60854 0.34421 0.13728 0.0
C1206 C 0.61516 0.35509 0.08783 0.0
C1207 C 0.62483 0.34196 0.0451 0.0
H1208 H 0.87762 0.36726 0.29456 0.0
H1209 H 0.94857 0.37076 0.35349 0.0
H1210 H 0.86743 0.34148 0.3705 0.0
H1211 H 0.93886 0.34414 0.42753 0.0
H1212 H 0.9154 0.29784 0.56625 0.0
H1213 H 0.92074 0.33199 0.50778 0.0
H1214 H 0.87365 0.30198 0.38854 0.0
H1215 H 0.86753 0.26848 0.44832 0.0
C1216 C 0.89089 0.36309 0.32469 0.0
C1217 C 0.91394 0.37103 0.31762 0.0
C1218 C 0.88518 0.34789 0.36776 0.0
C1219 C 0.90245 0.33992 0.40447 0.0
C1220 C 0.92496 0.34974 0.40044 0.0
C1221 C 0.93057 0.36524 0.35786 0.0
C1222 C 0.90612 0.29859 0.5276 0.0
C1223 C 0.89112 0.28029 0.51192 0.0
C1224 C 0.90922 0.31822 0.49386 0.0
C1225 C 0.89766 0.32 0.44305 0.0
C1226 C 0.88251 0.3017 0.42773 0.0
C1227 C 0.87915 0.28225 0.46184 0.0
H1228 H 0.94643 0.65106 0.81049 0.0
H1229 H -0.00513 0.62751 0.68667 0.0
H1230 H 0.91835 0.66153 0.73955 0.0
H1231 H 0.96788 0.63958 0.61537 0.0
H1232 H 0.91306 0.65113 0.49091 0.0
H1233 H 0.93487 0.63387 0.5665 0.0
H1234 H 0.90907 0.68834 0.67421 0.0
H1235 H 0.88578 0.70408 0.59915 0.0
C1236 C 0.9511 0.64829 0.76791 0.0
C1237 C 0.97279 0.63844 0.75405 0.0
C1238 C 0.93507 0.65446 0.72701 0.0
C1239 C 0.94061 0.65159 0.67105 0.0
C1240 C 0.96244 0.6416 0.65761 0.0
C1241 C 0.97815 0.63483 0.69856 0.0
C1242 C 0.91163 0.6589 0.53131 0.0
C1243 C 0.89766 0.67873 0.53958 0.0
C1244 C 0.92445 0.64929 0.57462 0.0
C1245 C 0.92434 0.65987 0.62687 0.0
C1246 C 0.90954 0.67933 0.63523 0.0
C1247 C 0.89615 0.68848 0.59217 0.0
H1248 H 0.46825 0.37648 0.12337 0.0
H1249 H 0.39755 0.37872 0.18481 0.0
H1250 H 0.45565 0.35152 0.04819 0.0
H1251 H 0.38478 0.35421 0.10885 0.0
H1252 H 0.37914 0.28198 0.0258 0.0
H1253 H 0.38916 0.31335 0.08936 0.0
H1254 H 0.43398 0.34429 0.96659 0.0
H1255 H 0.42449 0.3127 0.90379 0.0
C1256 C 0.44982 0.37257 0.11948 0.0
C1257 C 0.43397 0.37954 0.16046 0.0
C1258 C 0.44257 0.35801 0.07645 0.0
C1259 C 0.41925 0.35023 0.07311 0.0
C1260 C 0.403 0.3592 0.11097 0.0
C1261 C 0.41026 0.37364 0.15406 0.0
C1262 C 0.3911 0.29548 0.01232 0.0
C1263 C 0.40106 0.29461 0.95965 0.0
C1264 C 0.39671 0.31366 0.04863 0.0
C1265 C 0.41235 0.33155 0.0332 0.0
C1266 C 0.4221 0.33077 0.9803 0.0
C1267 C 0.41657 0.31258 0.94414 0.0
H1268 H 0.45583 0.66727 0.08073 0.0
H1269 H 0.38894 0.66359 0.99932 0.0
H1270 H 0.4737 0.64551 0.00603 0.0
H1271 H 0.40676 0.64116 0.92511 0.0
H1272 H 0.45303 0.63396 0.77158 0.0
H1273 H 0.43235 0.64883 0.85075 0.0
H1274 H 0.47772 0.60902 0.95738 0.0
H1275 H 0.49911 0.59446 0.87706 0.0
C1276 C 0.44482 0.66159 0.04721 0.0
C1277 C 0.42092 0.66748 0.04596 0.0
C1278 C 0.4551 0.64886 0.00445 0.0
C1279 C 0.44178 0.64156 0.95918 0.0
C1280 C 0.4177 0.64678 0.9588 0.0
C1281 C 0.40742 0.65961 1.00153 0.0
C1282 C 0.45855 0.6281 0.8118 0.0
C1283 C 0.47795 0.61312 0.8178 0.0
C1284 C 0.44647 0.63653 0.85744 0.0
C1285 C 0.45332 0.63028 0.91079 0.0
C1286 C 0.47212 0.61449 0.91693 0.0
C1287 C 0.48427 0.60594 0.87091 0.0
H1288 H 0.07478 0.71645 0.48102 0.0
H1289 H 0.14733 0.71788 0.52948 0.0
H1290 H 0.06684 0.68711 0.55086 0.0
H1291 H 0.13954 0.68791 0.5983 0.0
H1292 H 0.10825 0.66375 0.76365 0.0
H1293 H 0.1206 0.68594 0.68419 0.0
H1294 H 0.07172 0.64773 0.58342 0.0
H1295 H 0.05875 0.6258 0.66438 0.0
C1296 C 0.08914 0.71031 0.50612 0.0
C1297 C 0.11167 0.71981 0.49992 0.0
C1298 C 0.08461 0.69324 0.54595 0.0
C1299 C 0.1025 0.68506 0.58057 0.0
C1300 C 0.12521 0.69401 0.57309 0.0
C1301 C 0.12971 0.71121 0.53347 0.0
C1302 C 0.1004 0.6597 0.72437 0.0
C1303 C 0.08236 0.6431 0.72053 0.0
C1304 C 0.10762 0.6724 0.67849 0.0
C1305 C 0.09704 0.6689 0.62717 0.0
C1306 C 0.07999 0.6512 0.62248 0.0
C1307 C 0.07276 0.63838 0.66869 0.0
H1308 H 0.0169 0.3895 0.32652 0.0
H1309 H 0.04276 0.3332 0.22512 0.0
H1310 H 0.04603 0.3797 0.39653 0.0
H1311 H 0.0717 0.32351 0.29461 0.0
H1312 H 0.12878 0.31575 0.41948 0.0
H1313 H 0.10705 0.33643 0.3475 0.0
H1314 H 0.04859 0.34458 0.4579 0.0
H1315 H 0.07012 0.32401 0.52921 0.0
C1316 C 0.02911 0.3754 0.31863 0.0
C1317 C 0.02736 0.36198 0.27052 0.0
C1318 C 0.04571 0.36972 0.35879 0.0
C1319 C 0.06112 0.35076 0.35121 0.0
C1320 C 0.06028 0.33834 0.30157 0.0
C1321 C 0.04353 0.34379 0.2619 0.0
C1322 C 0.11153 0.3225 0.42867 0.0
C1323 C 0.10108 0.31808 0.47981 0.0
C1324 C 0.09903 0.3342 0.38742 0.0
C1325 C 0.07604 0.34204 0.39691 0.0
C1326 C 0.0663 0.33898 0.44932 0.0
C1327 C 0.0786 0.32703 0.4901 0.0
loop_
_geom_bond_atom_site_label_1
_geom_bond_atom_site_label_2
_geom_bond_distance
_geom_bond_site_symmetry_2
_ccdc_geom_bond_type
O0 Zn1 1.953 . S
O0 C16 1.225 . S
Zn1 O0 1.953 . S
Zn1 O2 1.949 1_655 S
Zn1 O8 1.919 . S
Zn1 O13 1.924 . S
O2 Zn1 1.949 1_455 S
O2 Zn3 1.923 . S
O2 Zn4 1.950 . S
O2 Zn5 1.945 . S
Zn3 O2 1.923 . S
Zn3 O6 1.933 . S
Zn3 O9 1.941 . S
Zn3 O10 1.965 . S
Zn4 O2 1.950 . S
Zn4 O11 1.938 . S
Zn4 O12 1.906 . S
Zn4 O22 1.953 1_455 S
Zn5 O2 1.945 . S
Zn5 O7 1.932 1_554 S
Zn5 O14 1.977 . S
Zn5 O15 1.910 1_455 S
O6 Zn3 1.933 . S
O6 C17 1.226 . S
O7 Zn5 1.932 1_556 S
O7 C17 1.307 1_556 S
O8 Zn1 1.919 . S
O8 C19 1.253 1_655 S
O9 Zn3 1.941 . S
O9 C19 1.283 . S
O10 Zn3 1.965 . S
O10 C18 1.303 . S
O11 Zn4 1.938 . S
O11 C18 1.247 . S
O12 Zn4 1.906 . S
O12 C20 1.304 . S
O13 Zn1 1.924 . S
O13 C21 1.311 . S
O14 Zn5 1.977 . S
O14 C20 1.272 . S
O15 Zn5 1.910 1_655 S
O15 C21 1.231 . S
C16 O0 1.225 . S
C16 O22 1.298 . S
C17 O6 1.226 . S
C17 O7 1.307 1_554 S
C18 O10 1.303 . S
C18 O11 1.247 . S
C19 O8 1.253 1_455 S
C19 O9 1.283 . S
C20 O12 1.304 . S
C20 O14 1.272 . S
C21 O13 1.311 . S
C21 O15 1.231 . S
O22 Zn4 1.953 1_655 S
O22 C16 1.298 . S
O23 Zn24 1.953 . S
O23 C39 1.225 . S
Zn24 O23 1.953 . S
Zn24 O25 1.949 . S
Zn24 O31 1.919 . S
Zn24 O36 1.924 . S
O25 Zn24 1.949 . S
O25 Zn26 1.923 . S
O25 Zn27 1.950 . S
O25 Zn28 1.945 . S
Zn26 O25 1.923 . S
Zn26 O29 1.933 . S
Zn26 O32 1.941 . S
Zn26 O33 1.965 . S
Zn27 O25 1.950 . S
Zn27 O34 1.938 . S
Zn27 O35 1.906 . S
Zn27 O45 1.953 . S
Zn28 O25 1.945 . S
Zn28 O30 1.932 . S
Zn28 O37 1.977 . S
Zn28 O38 1.910 . S
O29 Zn26 1.933 . S
O29 C40 1.226 . S
O30 Zn28 1.932 . S
O30 C40 1.307 . S
O31 Zn24 1.919 . S
O31 C42 1.253 . S
O32 Zn26 1.941 . S
O32 C42 1.283 . S
O33 Zn26 1.965 . S
O33 C41 1.303 . S
O34 Zn27 1.938 . S
O34 C41 1.247 . S
O35 Zn27 1.906 . S
O35 C43 1.304 . S
O36 Zn24 1.924 . S
O36 C44 1.311 . S
O37 Zn28 1.977 . S
O37 C43 1.272 . S
O38 Zn28 1.910 . S
O38 C44 1.231 . S
C39 O23 1.225 . S
C39 O45 1.298 . S
C40 O29 1.226 . S
C40 O30 1.307 . S
C41 O33 1.303 . S
C41 O34 1.247 . S
C42 O31 1.253 . S
C42 O32 1.283 . S
C43 O35 1.304 . S
C43 O37 1.272 . S
C44 O36 1.311 . S
C44 O38 1.231 . S
O45 Zn27 1.953 . S
O45 C39 1.298 . S
O46 Zn47 1.953 . S
O46 C62 1.225 . S
Zn47 O46 1.953 . S
Zn47 O48 1.949 . S
Zn47 O54 1.919 . S
Zn47 O59 1.924 . S
O48 Zn47 1.949 . S
O48 Zn49 1.923 . S
O48 Zn50 1.950 . S
O48 Zn51 1.945 . S
Zn49 O48 1.923 . S
Zn49 O52 1.933 . S
Zn49 O55 1.941 . S
Zn49 O56 1.965 . S
Zn50 O48 1.950 . S
Zn50 O57 1.938 . S
Zn50 O58 1.906 . S
Zn50 O68 1.953 . S
Zn51 O48 1.945 . S
Zn51 O53 1.932 . S
Zn51 O60 1.977 . S
Zn51 O61 1.910 . S
O52 Zn49 1.933 . S
O52 C63 1.226 . S
O53 Zn51 1.932 . S
O53 C63 1.307 . S
O54 Zn47 1.919 . S
O54 C65 1.253 . S
O55 Zn49 1.941 . S
O55 C65 1.283 . S
O56 Zn49 1.965 . S
O56 C64 1.303 . S
O57 Zn50 1.938 . S
O57 C64 1.247 . S
O58 Zn50 1.906 . S
O58 C66 1.304 . S
O59 Zn47 1.924 . S
O59 C67 1.311 . S
O60 Zn51 1.977 . S
O60 C66 1.272 . S
O61 Zn51 1.910 . S
O61 C67 1.231 . S
C62 O46 1.225 . S
C62 O68 1.298 . S
C63 O52 1.226 . S
C63 O53 1.307 . S
C64 O56 1.303 . S
C64 O57 1.247 . S
C65 O54 1.253 . S
C65 O55 1.283 . S
C66 O58 1.304 . S
C66 O60 1.272 . S
C67 O59 1.311 . S
C67 O61 1.231 . S
O68 Zn50 1.953 . S
O68 C62 1.298 . S
O69 Zn70 1.953 . S
O69 C85 1.225 . S
Zn70 O69 1.953 . S
Zn70 O71 1.949 . S
Zn70 O77 1.919 . S
Zn70 O82 1.924 . S
O71 Zn70 1.949 . S
O71 Zn72 1.923 . S
O71 Zn73 1.950 . S
O71 Zn74 1.945 . S
Zn72 O71 1.923 . S
Zn72 O75 1.933 . S
Zn72 O78 1.941 . S
Zn72 O79 1.965 . S
Zn73 O71 1.950 . S
Zn73 O80 1.938 . S
Zn73 O81 1.906 . S
Zn73 O91 1.953 . S
Zn74 O71 1.945 . S
Zn74 O76 1.932 . S
Zn74 O83 1.977 . S
Zn74 O84 1.910 . S
O75 Zn72 1.933 . S
O75 C86 1.226 . S
O76 Zn74 1.932 . S
O76 C86 1.307 . S
O77 Zn70 1.919 . S
O77 C88 1.253 . S
O78 Zn72 1.941 . S
O78 C88 1.283 . S
O79 Zn72 1.965 . S
O79 C87 1.303 . S
O80 Zn73 1.938 . S
O80 C87 1.247 . S
O81 Zn73 1.906 . S
O81 C89 1.304 . S
O82 Zn70 1.924 . S
O82 C90 1.311 . S
O83 Zn74 1.977 . S
O83 C89 1.272 . S
O84 Zn74 1.910 . S
O84 C90 1.231 . S
C85 O69 1.225 . S
C85 O91 1.298 . S
C86 O75 1.226 . S
C86 O76 1.307 . S
C87 O79 1.303 . S
C87 O80 1.247 . S
C88 O77 1.253 . S
C88 O78 1.283 . S
C89 O81 1.304 . S
C89 O83 1.272 . S
C90 O82 1.311 . S
C90 O84 1.231 . S
O91 Zn73 1.953 . S
O91 C85 1.298 . S
O92 Zn93 1.953 . S
O92 C108 1.225 . S
Zn93 O92 1.953 . S
Zn93 O94 1.949 1_655 S
Zn93 O100 1.919 . S
Zn93 O105 1.924 . S
O94 Zn93 1.949 1_455 S
O94 Zn95 1.923 . S
O94 Zn96 1.950 . S
O94 Zn97 1.945 . S
Zn95 O94 1.923 . S
Zn95 O98 1.933 . S
Zn95 O101 1.941 . S
Zn95 O102 1.965 . S
Zn96 O94 1.950 . S
Zn96 O103 1.938 . S
Zn96 O104 1.906 . S
Zn96 O114 1.953 1_455 S
Zn97 O94 1.945 . S
Zn97 O99 1.932 1_556 S
Zn97 O106 1.977 . S
Zn97 O107 1.910 1_455 S
O98 Zn95 1.933 . S
O98 C109 1.226 . S
O99 Zn97 1.932 1_554 S
O99 C109 1.307 1_554 S
O100 Zn93 1.919 . S
O100 C111 1.253 1_655 S
O101 Zn95 1.941 . S
O101 C111 1.283 . S
O102 Zn95 1.965 . S
O102 C110 1.303 . S
O103 Zn96 1.938 . S
O103 C110 1.247 . S
O104 Zn96 1.906 . S
O104 C112 1.304 . S
O105 Zn93 1.924 . S
O105 C113 1.311 . S
O106 Zn97 1.977 . S
O106 C112 1.272 . S
O107 Zn97 1.910 1_655 S
O107 C113 1.231 . S
C108 O92 1.225 . S
C108 O114 1.298 . S
C109 O98 1.226 . S
C109 O99 1.307 1_556 S
C110 O102 1.303 . S
C110 O103 1.247 . S
C111 O100 1.253 1_455 S
C111 O101 1.283 . S
C112 O104 1.304 . S
C112 O106 1.272 . S
C113 O105 1.311 . S
C113 O107 1.231 . S
O114 Zn96 1.953 1_655 S
O114 C108 1.298 . S
O115 Zn116 1.953 . S
O115 C131 1.225 . S
Zn116 O115 1.953 . S
Zn116 O117 1.949 . S
Zn116 O123 1.919 . S
Zn116 O128 1.924 . S
O117 Zn116 1.949 . S
O117 Zn118 1.923 . S
O117 Zn119 1.950 . S
O117 Zn120 1.945 . S
Zn118 O117 1.923 . S
Zn118 O121 1.933 . S
Zn118 O124 1.941 . S
Zn118 O125 1.965 . S
Zn119 O117 1.950 . S
Zn119 O126 1.938 . S
Zn119 O127 1.906 . S
Zn119 O137 1.953 . S
Zn120 O117 1.945 . S
Zn120 O122 1.932 . S
Zn120 O129 1.977 . S
Zn120 O130 1.910 . S
O121 Zn118 1.933 . S
O121 C132 1.226 . S
O122 Zn120 1.932 . S
O122 C132 1.307 . S
O123 Zn116 1.919 . S
O123 C134 1.253 . S
O124 Zn118 1.941 . S
O124 C134 1.283 . S
O125 Zn118 1.965 . S
O125 C133 1.303 . S
O126 Zn119 1.938 . S
O126 C133 1.247 . S
O127 Zn119 1.906 . S
O127 C135 1.304 . S
O128 Zn116 1.924 . S
O128 C136 1.311 . S
O129 Zn120 1.977 . S
O129 C135 1.272 . S
O130 Zn120 1.910 . S
O130 C136 1.231 . S
C131 O115 1.225 . S
C131 O137 1.298 . S
C132 O121 1.226 . S
C132 O122 1.307 . S
C133 O125 1.303 . S
C133 O126 1.247 . S
C134 O123 1.253 . S
C134 O124 1.283 . S
C135 O127 1.304 . S
C135 O129 1.272 . S
C136 O128 1.311 . S
C136 O130 1.231 . S
O137 Zn119 1.953 . S
O137 C131 1.298 . S
O138 Zn139 1.953 . S
O138 C154 1.225 . S
Zn139 O138 1.953 . S
Zn139 O140 1.949 . S
Zn139 O146 1.919 . S
Zn139 O151 1.924 . S
O140 Zn139 1.949 . S
O140 Zn141 1.923 . S
O140 Zn142 1.950 . S
O140 Zn143 1.945 . S
Zn141 O140 1.923 . S
Zn141 O144 1.933 . S
Zn141 O147 1.941 . S
Zn141 O148 1.965 . S
Zn142 O140 1.950 . S
Zn142 O149 1.938 . S
Zn142 O150 1.906 . S
Zn142 O160 1.953 . S
Zn143 O140 1.945 . S
Zn143 O145 1.932 . S
Zn143 O152 1.977 . S
Zn143 O153 1.910 . S
O144 Zn141 1.933 . S
O144 C155 1.226 . S
O145 Zn143 1.932 . S
O145 C155 1.307 . S
O146 Zn139 1.919 . S
O146 C157 1.253 . S
O147 Zn141 1.941 . S
O147 C157 1.283 . S
O148 Zn141 1.965 . S
O148 C156 1.303 . S
O149 Zn142 1.938 . S
O149 C156 1.247 . S
O150 Zn142 1.906 . S
O150 C158 1.304 . S
O151 Zn139 1.924 . S
O151 C159 1.311 . S
O152 Zn143 1.977 . S
O152 C158 1.272 . S
O153 Zn143 1.910 . S
O153 C159 1.231 . S
C154 O138 1.225 . S
C154 O160 1.298 . S
C155 O144 1.226 . S
C155 O145 1.307 . S
C156 O148 1.303 . S
C156 O149 1.247 . S
C157 O146 1.253 . S
C157 O147 1.283 . S
C158 O150 1.304 . S
C158 O152 1.272 . S
C159 O151 1.311 . S
C159 O153 1.231 . S
O160 Zn142 1.953 . S
O160 C154 1.298 . S
O161 Zn162 1.953 . S
O161 C177 1.225 . S
Zn162 O161 1.953 . S
Zn162 O163 1.949 . S
Zn162 O169 1.919 . S
Zn162 O174 1.924 . S
O163 Zn162 1.949 . S
O163 Zn164 1.923 . S
O163 Zn165 1.950 . S
O163 Zn166 1.945 . S
Zn164 O163 1.923 . S
Zn164 O167 1.933 . S
Zn164 O170 1.941 . S
Zn164 O171 1.965 . S
Zn165 O163 1.950 . S
Zn165 O172 1.938 . S
Zn165 O173 1.906 . S
Zn165 O183 1.953 . S
Zn166 O163 1.945 . S
Zn166 O168 1.932 . S
Zn166 O175 1.977 . S
Zn166 O176 1.910 . S
O167 Zn164 1.933 . S
O167 C178 1.226 . S
O168 Zn166 1.932 . S
O168 C178 1.307 . S
O169 Zn162 1.919 . S
O169 C180 1.253 . S
O170 Zn164 1.941 . S
O170 C180 1.283 . S
O171 Zn164 1.965 . S
O171 C179 1.303 . S
O172 Zn165 1.938 . S
O172 C179 1.247 . S
O173 Zn165 1.906 . S
O173 C181 1.304 . S
O174 Zn162 1.924 . S
O174 C182 1.311 . S
O175 Zn166 1.977 . S
O175 C181 1.272 . S
O176 Zn166 1.910 . S
O176 C182 1.231 . S
C177 O161 1.225 . S
C177 O183 1.298 . S
C178 O167 1.226 . S
C178 O168 1.307 . S
C179 O171 1.303 . S
C179 O172 1.247 . S
C180 O169 1.253 . S
C180 O170 1.283 . S
C181 O173 1.304 . S
C181 O175 1.272 . S
C182 O174 1.311 . S
C182 O176 1.231 . S
O183 Zn165 1.953 . S
O183 C177 1.298 . S
O184 Zn185 1.953 . S
O184 C200 1.225 . S
Zn185 O184 1.953 . S
Zn185 O186 1.949 . S
Zn185 O192 1.919 . S
Zn185 O197 1.924 . S
O186 Zn185 1.949 . S
O186 Zn187 1.923 . S
O186 Zn188 1.950 . S
O186 Zn189 1.945 . S
Zn187 O186 1.923 . S
Zn187 O190 1.933 . S
Zn187 O193 1.941 . S
Zn187 O194 1.965 . S
Zn188 O186 1.950 . S
Zn188 O195 1.938 . S
Zn188 O196 1.906 . S
Zn188 O206 1.953 . S
Zn189 O186 1.945 . S
Zn189 O191 1.932 . S
Zn189 O198 1.977 . S
Zn189 O199 1.910 . S
O190 Zn187 1.933 . S
O190 C201 1.226 . S
O191 Zn189 1.932 . S
O191 C201 1.307 . S
O192 Zn185 1.919 . S
O192 C203 1.253 . S
O193 Zn187 1.941 . S
O193 C203 1.283 . S
O194 Zn187 1.965 . S
O194 C202 1.303 . S
O195 Zn188 1.938 . S
O195 C202 1.247 . S
O196 Zn188 1.906 . S
O196 C204 1.304 . S
O197 Zn185 1.924 . S
O197 C205 1.311 . S
O198 Zn189 1.977 . S
O198 C204 1.272 . S
O199 Zn189 1.910 . S
O199 C205 1.231 . S
C200 O184 1.225 . S
C200 O206 1.298 . S
C201 O190 1.226 . S
C201 O191 1.307 . S
C202 O194 1.303 . S
C202 O195 1.247 . S
C203 O192 1.253 . S
C203 O193 1.283 . S
C204 O196 1.304 . S
C204 O198 1.272 . S
C205 O197 1.311 . S
C205 O199 1.231 . S
O206 Zn188 1.953 . S
O206 C200 1.298 . S
O207 Zn208 1.953 . S
O207 C223 1.225 . S
Zn208 O207 1.953 . S
Zn208 O209 1.949 . S
Zn208 O215 1.919 . S
Zn208 O220 1.924 . S
O209 Zn208 1.949 . S
O209 Zn210 1.923 . S
O209 Zn211 1.950 . S
O209 Zn212 1.945 . S
Zn210 O209 1.923 . S
Zn210 O213 1.933 . S
Zn210 O216 1.941 . S
Zn210 O217 1.965 . S
Zn211 O209 1.950 . S
Zn211 O218 1.938 . S
Zn211 O219 1.906 . S
Zn211 O229 1.953 . S
Zn212 O209 1.945 . S
Zn212 O214 1.932 . S
Zn212 O221 1.977 . S
Zn212 O222 1.910 . S
O213 Zn210 1.933 . S
O213 C224 1.226 . S
O214 Zn212 1.932 . S
O214 C224 1.307 . S
O215 Zn208 1.919 . S
O215 C226 1.253 . S
O216 Zn210 1.941 . S
O216 C226 1.283 . S
O217 Zn210 1.965 . S
O217 C225 1.303 . S
O218 Zn211 1.938 . S
O218 C225 1.247 . S
O219 Zn211 1.906 . S
O219 C227 1.304 . S
O220 Zn208 1.924 . S
O220 C228 1.311 . S
O221 Zn212 1.977 . S
O221 C227 1.272 . S
O222 Zn212 1.910 . S
O222 C228 1.231 . S
C223 O207 1.225 . S
C223 O229 1.298 . S
C224 O213 1.226 . S
C224 O214 1.307 . S
C225 O217 1.303 . S
C225 O218 1.247 . S
C226 O215 1.253 . S
C226 O216 1.283 . S
C227 O219 1.304 . S
C227 O221 1.272 . S
C228 O220 1.311 . S
C228 O222 1.231 . S
O229 Zn211 1.953 . S
O229 C223 1.298 . S
O230 Zn231 1.953 . S
O230 C246 1.225 . S
Zn231 O230 1.953 . S
Zn231 O232 1.949 . S
Zn231 O238 1.919 . S
Zn231 O243 1.924 . S
O232 Zn231 1.949 . S
O232 Zn233 1.923 . S
O232 Zn234 1.950 . S
O232 Zn235 1.945 . S
Zn233 O232 1.923 . S
Zn233 O236 1.933 . S
Zn233 O239 1.941 . S
Zn233 O240 1.965 . S
Zn234 O232 1.950 . S
Zn234 O241 1.938 . S
Zn234 O242 1.906 . S
Zn234 O252 1.953 . S
Zn235 O232 1.945 . S
Zn235 O237 1.932 . S
Zn235 O244 1.977 . S
Zn235 O245 1.910 . S
O236 Zn233 1.933 . S
O236 C247 1.226 . S
O237 Zn235 1.932 . S
O237 C247 1.307 . S
O238 Zn231 1.919 . S
O238 C249 1.253 . S
O239 Zn233 1.941 . S
O239 C249 1.283 . S
O240 Zn233 1.965 . S
O240 C248 1.303 . S
O241 Zn234 1.938 . S
O241 C248 1.247 . S
O242 Zn234 1.906 . S
O242 C250 1.304 . S
O243 Zn231 1.924 . S
O243 C251 1.311 . S
O244 Zn235 1.977 . S
O244 C250 1.272 . S
O245 Zn235 1.910 . S
O245 C251 1.231 . S
C246 O230 1.225 . S
C246 O252 1.298 . S
C247 O236 1.226 . S
C247 O237 1.307 . S
C248 O240 1.303 . S
C248 O241 1.247 . S
C249 O238 1.253 . S
C249 O239 1.283 . S
C250 O242 1.304 . S
C250 O244 1.272 . S
C251 O243 1.311 . S
C251 O245 1.231 . S
O252 Zn234 1.953 . S
O252 C246 1.298 . S
O253 Zn254 1.953 . S
O253 C269 1.225 . S
Zn254 O253 1.953 . S
Zn254 O255 1.949 . S
Zn254 O261 1.919 . S
Zn254 O266 1.924 . S
O255 Zn254 1.949 . S
O255 Zn256 1.923 . S
O255 Zn257 1.950 . S
O255 Zn258 1.945 . S
Zn256 O255 1.923 . S
Zn256 O259 1.933 . S
Zn256 O262 1.941 . S
Zn256 O263 1.965 . S
Zn257 O255 1.950 . S
Zn257 O264 1.938 . S
Zn257 O265 1.906 . S
Zn257 O275 1.953 . S
Zn258 O255 1.945 . S
Zn258 O260 1.932 . S
Zn258 O267 1.977 . S
Zn258 O268 1.910 . S
O259 Zn256 1.933 . S
O259 C270 1.226 . S
O260 Zn258 1.932 . S
O260 C270 1.307 . S
O261 Zn254 1.919 . S
O261 C272 1.253 . S
O262 Zn256 1.941 . S
O262 C272 1.283 . S
O263 Zn256 1.965 . S
O263 C271 1.303 . S
O264 Zn257 1.938 . S
O264 C271 1.247 . S
O265 Zn257 1.906 . S
O265 C273 1.304 . S
O266 Zn254 1.924 . S
O266 C274 1.311 . S
O267 Zn258 1.977 . S
O267 C273 1.272 . S
O268 Zn258 1.910 . S
O268 C274 1.231 . S
C269 O253 1.225 . S
C269 O275 1.298 . S
C270 O259 1.226 . S
C270 O260 1.307 . S
C271 O263 1.303 . S
C271 O264 1.247 . S
C272 O261 1.253 . S
C272 O262 1.283 . S
C273 O265 1.304 . S
C273 O267 1.272 . S
C274 O266 1.311 . S
C274 O268 1.231 . S
O275 Zn257 1.953 . S
O275 C269 1.298 . S
O276 Zn277 1.953 . S
O276 C292 1.225 . S
Zn277 O276 1.953 . S
Zn277 O278 1.949 . S
Zn277 O284 1.919 . S
Zn277 O289 1.924 . S
O278 Zn277 1.949 . S
O278 Zn279 1.923 . S
O278 Zn280 1.950 . S
O278 Zn281 1.945 . S
Zn279 O278 1.923 . S
Zn279 O282 1.933 . S
Zn279 O285 1.941 . S
Zn279 O286 1.965 . S
Zn280 O278 1.950 . S
Zn280 O287 1.938 . S
Zn280 O288 1.906 . S
Zn280 O298 1.953 . S
Zn281 O278 1.945 . S
Zn281 O283 1.932 . S
Zn281 O290 1.977 . S
Zn281 O291 1.910 . S
O282 Zn279 1.933 . S
O282 C293 1.226 . S
O283 Zn281 1.932 . S
O283 C293 1.307 . S
O284 Zn277 1.919 . S
O284 C295 1.253 . S
O285 Zn279 1.941 . S
O285 C295 1.283 . S
O286 Zn279 1.965 . S
O286 C294 1.303 . S
O287 Zn280 1.938 . S
O287 C294 1.247 . S
O288 Zn280 1.906 . S
O288 C296 1.304 . S
O289 Zn277 1.924 . S
O289 C297 1.311 . S
O290 Zn281 1.977 . S
O290 C296 1.272 . S
O291 Zn281 1.910 . S
O291 C297 1.231 . S
C292 O276 1.225 . S
C292 O298 1.298 . S
C293 O282 1.226 . S
C293 O283 1.307 . S
C294 O286 1.303 . S
C294 O287 1.247 . S
C295 O284 1.253 . S
C295 O285 1.283 . S
C296 O288 1.304 . S
C296 O290 1.272 . S
C297 O289 1.311 . S
C297 O291 1.231 . S
O298 Zn280 1.953 . S
O298 C292 1.298 . S
O299 Zn300 1.953 . S
O299 C315 1.225 . S
Zn300 O299 1.953 . S
Zn300 O301 1.949 . S
Zn300 O307 1.919 . S
Zn300 O312 1.924 . S
O301 Zn300 1.949 . S
O301 Zn302 1.923 1_455 S
O301 Zn303 1.950 . S
O301 Zn304 1.945 . S
Zn302 O301 1.923 1_655 S
Zn302 O305 1.933 . S
Zn302 O308 1.941 . S
Zn302 O309 1.965 . S
Zn303 O301 1.950 . S
Zn303 O310 1.938 1_455 S
Zn303 O311 1.906 . S
Zn303 O321 1.953 . S
Zn304 O301 1.945 . S
Zn304 O306 1.932 1_454 S
Zn304 O313 1.977 . S
Zn304 O314 1.910 . S
O305 Zn302 1.933 . S
O305 C316 1.226 . S
O306 Zn304 1.932 1_656 S
O306 C316 1.307 1_556 S
O307 Zn300 1.919 . S
O307 C318 1.253 1_455 S
O308 Zn302 1.941 . S
O308 C318 1.283 . S
O309 Zn302 1.965 . S
O309 C317 1.303 . S
O310 Zn303 1.938 1_655 S
O310 C317 1.247 . S
O311 Zn303 1.906 . S
O311 C319 1.304 . S
O312 Zn300 1.924 . S
O312 C320 1.311 . S
O313 Zn304 1.977 . S
O313 C319 1.272 . S
O314 Zn304 1.910 . S
O314 C320 1.231 . S
C315 O299 1.225 . S
C315 O321 1.298 . S
C316 O305 1.226 . S
C316 O306 1.307 1_554 S
C317 O309 1.303 . S
C317 O310 1.247 . S
C318 O307 1.253 1_655 S
C318 O308 1.283 . S
C319 O311 1.304 . S
C319 O313 1.272 . S
C320 O312 1.311 . S
C320 O314 1.231 . S
O321 Zn303 1.953 . S
O321 C315 1.298 . S
O322 Zn323 1.953 . S
O322 C338 1.225 . S
Zn323 O322 1.953 . S
Zn323 O324 1.949 . S
Zn323 O330 1.919 . S
Zn323 O335 1.924 . S
O324 Zn323 1.949 . S
O324 Zn325 1.923 . S
O324 Zn326 1.950 . S
O324 Zn327 1.945 . S
Zn325 O324 1.923 . S
Zn325 O328 1.933 . S
Zn325 O331 1.941 . S
Zn325 O332 1.965 . S
Zn326 O324 1.950 . S
Zn326 O333 1.938 . S
Zn326 O334 1.906 . S
Zn326 O344 1.953 . S
Zn327 O324 1.945 . S
Zn327 O329 1.932 . S
Zn327 O336 1.977 . S
Zn327 O337 1.910 . S
O328 Zn325 1.933 . S
O328 C339 1.226 . S
O329 Zn327 1.932 . S
O329 C339 1.307 . S
O330 Zn323 1.919 . S
O330 C341 1.253 . S
O331 Zn325 1.941 . S
O331 C341 1.283 . S
O332 Zn325 1.965 . S
O332 C340 1.303 . S
O333 Zn326 1.938 . S
O333 C340 1.247 . S
O334 Zn326 1.906 . S
O334 C342 1.304 . S
O335 Zn323 1.924 . S
O335 C343 1.311 . S
O336 Zn327 1.977 . S
O336 C342 1.272 . S
O337 Zn327 1.910 . S
O337 C343 1.231 . S
C338 O322 1.225 . S
C338 O344 1.298 . S
C339 O328 1.226 . S
C339 O329 1.307 . S
C340 O332 1.303 . S
C340 O333 1.247 . S
C341 O330 1.253 . S
C341 O331 1.283 . S
C342 O334 1.304 . S
C342 O336 1.272 . S
C343 O335 1.311 . S
C343 O337 1.231 . S
O344 Zn326 1.953 . S
O344 C338 1.298 . S
O345 Zn346 1.953 . S
O345 C361 1.225 . S
Zn346 O345 1.953 . S
Zn346 O347 1.949 . S
Zn346 O353 1.919 . S
Zn346 O358 1.924 . S
O347 Zn346 1.949 . S
O347 Zn348 1.923 1_455 S
O347 Zn349 1.950 . S
O347 Zn350 1.945 . S
Zn348 O347 1.923 1_655 S
Zn348 O351 1.933 . S
Zn348 O354 1.941 . S
Zn348 O355 1.965 . S
Zn349 O347 1.950 . S
Zn349 O356 1.938 1_455 S
Zn349 O357 1.906 . S
Zn349 O367 1.953 . S
Zn350 O347 1.945 . S
Zn350 O352 1.932 1_456 S
Zn350 O359 1.977 . S
Zn350 O360 1.910 . S
O351 Zn348 1.933 . S
O351 C362 1.226 . S
O352 Zn350 1.932 1_654 S
O352 C362 1.307 1_554 S
O353 Zn346 1.919 . S
O353 C364 1.253 1_455 S
O354 Zn348 1.941 . S
O354 C364 1.283 . S
O355 Zn348 1.965 . S
O355 C363 1.303 . S
O356 Zn349 1.938 1_655 S
O356 C363 1.247 . S
O357 Zn349 1.906 . S
O357 C365 1.304 . S
O358 Zn346 1.924 . S
O358 C366 1.311 . S
O359 Zn350 1.977 . S
O359 C365 1.272 . S
O360 Zn350 1.910 . S
O360 C366 1.231 . S
C361 O345 1.225 . S
C361 O367 1.298 . S
C362 O351 1.226 . S
C362 O352 1.307 1_556 S
C363 O355 1.303 . S
C363 O356 1.247 . S
C364 O353 1.253 1_655 S
C364 O354 1.283 . S
C365 O357 1.304 . S
C365 O359 1.272 . S
C366 O358 1.311 . S
C366 O360 1.231 . S
O367 Zn349 1.953 . S
O367 C361 1.298 . S
H368 C376 0.950 1_554 S
H369 C381 0.950 . S
H370 C378 0.950 . S
H371 C380 0.950 . S
H372 C382 0.950 . S
H373 C384 0.950 . S
H374 C386 0.950 . S
H375 C387 0.950 . S
C376 H368 0.950 1_556 S
C376 C377 1.386 . S
C376 C378 1.391 . S
C377 C376 1.386 . S
C377 C381 1.393 . S
C378 H370 0.950 . S
C378 C376 1.391 . S
C378 C379 1.400 . S
C379 C378 1.400 . S
C379 C380 1.398 . S
C379 C385 1.491 . S
C380 H371 0.950 . S
C380 C379 1.398 . S
C380 C381 1.391 . S
C381 H369 0.950 . S
C381 C377 1.393 . S
C381 C380 1.391 . S
C382 H372 0.950 . S
C382 C383 1.386 . S
C382 C384 1.391 . S
C383 C382 1.386 . S
C383 C387 1.393 . S
C384 H373 0.950 . S
C384 C382 1.391 . S
C384 C385 1.400 . S
C385 C379 1.491 . S
C385 C384 1.400 . S
C385 C386 1.398 . S
C386 H374 0.950 . S
C386 C385 1.398 . S
C386 C387 1.391 . S
C387 H375 0.950 . S
C387 C383 1.393 . S
C387 C386 1.391 . S
H388 C396 0.950 . S
H389 C401 0.950 . S
H390 C398 0.950 . S
H391 C400 0.950 . S
H392 C402 0.950 . S
H393 C404 0.950 . S
H394 C406 0.950 . S
H395 C407 0.950 . S
C396 H388 0.950 . S
C396 C397 1.386 . S
C396 C398 1.391 . S
C397 C396 1.386 . S
C397 C401 1.393 . S
C398 H390 0.950 . S
C398 C396 1.391 . S
C398 C399 1.400 . S
C399 C398 1.400 . S
C399 C400 1.398 . S
C399 C405 1.491 . S
C400 H391 0.950 . S
C400 C399 1.398 . S
C400 C401 1.391 . S
C401 H389 0.950 . S
C401 C397 1.393 . S
C401 C400 1.391 . S
C402 H392 0.950 . S
C402 C403 1.386 . S
C402 C404 1.391 . S
C403 C402 1.386 . S
C403 C407 1.393 . S
C404 H393 0.950 . S
C404 C402 1.391 . S
C404 C405 1.400 . S
C405 C399 1.491 . S
C405 C404 1.400 . S
C405 C406 1.398 . S
C406 H394 0.950 . S
C406 C405 1.398 . S
C406 C407 1.391 . S
C407 H395 0.950 . S
C407 C403 1.393 . S
C407 C406 1.391 . S
H408 C416 0.950 . S
H409 C421 0.950 . S
H410 C418 0.950 . S
H411 C420 0.950 . S
H412 C422 0.950 . S
H413 C424 0.950 . S
H414 C426 0.950 . S
H415 C427 0.950 . S
C416 H408 0.950 . S
C416 C417 1.386 . S
C416 C418 1.391 . S
C417 C416 1.386 . S
C417 C421 1.393 . S
C418 H410 0.950 . S
C418 C416 1.391 . S
C418 C419 1.400 . S
C419 C418 1.400 . S
C419 C420 1.398 . S
C419 C425 1.491 . S
C420 H411 0.950 . S
C420 C419 1.398 . S
C420 C421 1.391 . S
C421 H409 0.950 . S
C421 C417 1.393 . S
C421 C420 1.391 . S
C422 H412 0.950 . S
C422 C423 1.386 . S
C422 C424 1.391 . S
C423 C422 1.386 . S
C423 C427 1.393 . S
C424 H413 0.950 . S
C424 C422 1.391 . S
C424 C425 1.400 . S
C425 C419 1.491 . S
C425 C424 1.400 . S
C425 C426 1.398 . S
C426 H414 0.950 . S
C426 C425 1.398 . S
C426 C427 1.391 . S
C427 H415 0.950 . S
C427 C423 1.393 . S
C427 C426 1.391 . S
H428 C436 0.950 . S
H429 C441 0.950 . S
H430 C438 0.950 . S
H431 C440 0.950 . S
H432 C442 0.950 . S
H433 C444 0.950 . S
H434 C446 0.950 . S
H435 C447 0.950 . S
C436 H428 0.950 . S
C436 C437 1.386 . S
C436 C438 1.391 . S
C437 C436 1.386 . S
C437 C441 1.393 . S
C438 H430 0.950 . S
C438 C436 1.391 . S
C438 C439 1.400 . S
C439 C438 1.400 . S
C439 C440 1.398 . S
C439 C445 1.491 . S
C440 H431 0.950 . S
C440 C439 1.398 . S
C440 C441 1.391 . S
C441 H429 0.950 . S
C441 C437 1.393 . S
C441 C440 1.391 . S
C442 H432 0.950 . S
C442 C443 1.386 . S
C442 C444 1.391 . S
C443 C442 1.386 . S
C443 C447 1.393 . S
C444 H433 0.950 . S
C444 C442 1.391 . S
C444 C445 1.400 . S
C445 C439 1.491 . S
C445 C444 1.400 . S
C445 C446 1.398 . S
C446 H434 0.950 . S
C446 C445 1.398 . S
C446 C447 1.391 . S
C447 H435 0.950 . S
C447 C443 1.393 . S
C447 C446 1.391 . S
H448 C456 0.950 . S
H449 C461 0.950 . S
H450 C458 0.950 . S
H451 C460 0.950 . S
H452 C462 0.950 . S
H453 C464 0.950 . S
H454 C466 0.950 . S
H455 C467 0.937 1_556 S
C456 H448 0.950 . S
C456 C457 1.386 . S
C456 C458 1.391 . S
C457 C456 1.386 . S
C457 C461 1.393 . S
C458 H450 0.950 . S
C458 C456 1.391 . S
C458 C459 1.400 . S
C459 C458 1.400 . S
C459 C460 1.398 . S
C459 C465 1.491 . S
C460 H451 0.950 . S
C460 C459 1.398 . S
C460 C461 1.391 . S
C461 H449 0.950 . S
C461 C457 1.393 . S
C461 C460 1.391 . S
C462 H452 0.950 . S
C462 C463 1.386 . S
C462 C464 1.391 . S
C463 C462 1.386 . S
C463 C467 1.394 . S
C464 H453 0.950 . S
C464 C462 1.391 . S
C464 C465 1.400 . S
C465 C459 1.491 . S
C465 C464 1.400 . S
C465 C466 1.398 . S
C466 H454 0.950 . S
C466 C465 1.398 . S
C466 C467 1.402 . S
C467 H455 0.937 1_554 S
C467 C463 1.394 . S
C467 C466 1.402 . S
H468 C476 0.950 . S
H469 C481 0.950 . S
H470 C478 0.950 . S
H471 C480 0.950 . S
H472 C482 0.950 1_554 S
H473 C484 0.950 . S
H474 C486 0.950 . S
H475 C487 0.950 . S
C476 H468 0.950 . S
C476 C477 1.386 . S
C476 C478 1.391 . S
C477 C476 1.386 . S
C477 C481 1.393 . S
C478 H470 0.950 . S
C478 C476 1.391 . S
C478 C479 1.400 . S
C479 C478 1.400 . S
C479 C480 1.398 . S
C479 C485 1.491 . S
C480 H471 0.950 . S
C480 C479 1.398 . S
C480 C481 1.391 . S
C481 H469 0.950 . S
C481 C477 1.393 . S
C481 C480 1.391 . S
C482 H472 0.950 1_556 S
C482 C483 1.386 . S
C482 C484 1.391 . S
C483 C482 1.386 . S
C483 C487 1.393 . S
C484 H473 0.950 . S
C484 C482 1.391 . S
C484 C485 1.400 . S
C485 C479 1.491 . S
C485 C484 1.400 . S
C485 C486 1.398 . S
C486 H474 0.950 . S
C486 C485 1.398 . S
C486 C487 1.391 . S
C487 H475 0.950 . S
C487 C483 1.393 . S
C487 C486 1.391 . S
H488 C496 0.950 . S
H489 C501 0.950 . S
H490 C498 0.950 . S
H491 C500 0.950 . S
H492 C502 0.950 . S
H493 C504 0.950 . S
H494 C506 0.950 . S
H495 C507 0.950 . S
C496 H488 0.950 . S
C496 C497 1.386 . S
C496 C498 1.391 . S
C497 C496 1.386 . S
C497 C501 1.393 . S
C498 H490 0.950 . S
C498 C496 1.391 . S
C498 C499 1.400 . S
C499 C498 1.400 . S
C499 C500 1.398 . S
C499 C505 1.491 . S
C500 H491 0.950 . S
C500 C499 1.398 . S
C500 C501 1.391 . S
C501 H489 0.950 . S
C501 C497 1.393 . S
C501 C500 1.391 . S
C502 H492 0.950 . S
C502 C503 1.386 . S
C502 C504 1.391 . S
C503 C502 1.386 . S
C503 C507 1.393 . S
C504 H493 0.950 . S
C504 C502 1.391 . S
C504 C505 1.400 . S
C505 C499 1.491 . S
C505 C504 1.400 . S
C505 C506 1.398 . S
C506 H494 0.950 . S
C506 C505 1.398 . S
C506 C507 1.391 . S
C507 H495 0.950 . S
C507 C503 1.393 . S
C507 C506 1.391 . S
H508 C516 0.950 . S
H509 C521 0.950 . S
H510 C518 0.950 . S
H511 C520 0.950 . S
H512 C522 0.950 . S
H513 C524 0.950 . S
H514 C526 0.950 . S
H515 C527 0.950 . S
C516 H508 0.950 . S
C516 C517 1.386 . S
C516 C518 1.391 . S
C517 C516 1.386 . S
C517 C521 1.393 . S
C518 H510 0.950 . S
C518 C516 1.391 . S
C518 C519 1.400 . S
C519 C518 1.400 . S
C519 C520 1.398 . S
C519 C525 1.491 . S
C520 H511 0.950 . S
C520 C519 1.398 . S
C520 C521 1.391 . S
C521 H509 0.950 . S
C521 C517 1.393 . S
C521 C520 1.391 . S
C522 H512 0.950 . S
C522 C523 1.386 . S
C522 C524 1.391 . S
C523 C522 1.386 . S
C523 C527 1.393 . S
C524 H513 0.950 . S
C524 C522 1.391 . S
C524 C525 1.400 . S
C525 C519 1.491 . S
C525 C524 1.400 . S
C525 C526 1.398 . S
C526 H514 0.950 . S
C526 C525 1.398 . S
C526 C527 1.391 . S
C527 H515 0.950 . S
C527 C523 1.393 . S
C527 C526 1.391 . S
H528 C536 0.950 . S
H529 C541 0.950 . S
H530 C538 0.950 . S
H531 C540 0.950 . S
H532 C542 0.950 . S
H533 C544 0.950 . S
H534 C546 0.950 . S
H535 C547 0.950 . S
C536 H528 0.950 . S
C536 C537 1.386 . S
C536 C538 1.391 . S
C537 C536 1.386 . S
C537 C541 1.393 . S
C538 H530 0.950 . S
C538 C536 1.391 . S
C538 C539 1.400 . S
C539 C538 1.400 . S
C539 C540 1.398 . S
C539 C545 1.491 . S
C540 H531 0.950 . S
C540 C539 1.398 . S
C540 C541 1.391 . S
C541 H529 0.950 . S
C541 C537 1.393 . S
C541 C540 1.391 . S
C542 H532 0.950 . S
C542 C543 1.386 . S
C542 C544 1.391 . S
C543 C542 1.386 . S
C543 C547 1.393 . S
C544 H533 0.950 . S
C544 C542 1.391 . S
C544 C545 1.400 . S
C545 C539 1.491 . S
C545 C544 1.400 . S
C545 C546 1.398 . S
C546 H534 0.950 . S
C546 C545 1.398 . S
C546 C547 1.391 . S
C547 H535 0.950 . S
C547 C543 1.393 . S
C547 C546 1.391 . S
H548 C556 0.950 . S
H549 C561 0.950 . S
H550 C558 0.950 . S
H551 C560 0.950 . S
H552 C562 0.950 . S
H553 C564 0.950 . S
H554 C566 0.950 . S
H555 C567 0.950 . S
C556 H548 0.950 . S
C556 C557 1.386 . S
C556 C558 1.391 . S
C557 C556 1.386 . S
C557 C561 1.393 . S
C558 H550 0.950 . S
C558 C556 1.391 . S
C558 C559 1.400 . S
C559 C558 1.400 . S
C559 C560 1.398 . S
C559 C565 1.491 . S
C560 H551 0.950 . S
C560 C559 1.398 . S
C560 C561 1.391 . S
C561 H549 0.950 . S
C561 C557 1.393 . S
C561 C560 1.391 . S
C562 H552 0.950 . S
C562 C563 1.386 . S
C562 C564 1.391 . S
C563 C562 1.386 . S
C563 C567 1.393 . S
C564 H553 0.950 . S
C564 C562 1.391 . S
C564 C565 1.400 . S
C565 C559 1.491 . S
C565 C564 1.400 . S
C565 C566 1.398 . S
C566 H554 0.950 . S
C566 C565 1.398 . S
C566 C567 1.391 . S
C567 H555 0.950 . S
C567 C563 1.393 . S
C567 C566 1.391 . S
H568 C576 0.950 1_554 S
H569 C581 0.950 . S
H570 C578 0.950 . S
H571 C580 0.950 . S
H572 C582 0.950 . S
H573 C584 0.950 . S
H574 C586 0.950 . S
H575 C587 0.950 . S
C576 H568 0.950 1_556 S
C576 C577 1.386 . S
C576 C578 1.391 . S
C577 C576 1.386 . S
C577 C581 1.393 . S
C578 H570 0.950 . S
C578 C576 1.391 . S
C578 C579 1.400 . S
C579 C578 1.400 . S
C579 C580 1.398 . S
C579 C585 1.491 . S
C580 H571 0.950 . S
C580 C579 1.398 . S
C580 C581 1.391 . S
C581 H569 0.950 . S
C581 C577 1.393 . S
C581 C580 1.391 . S
C582 H572 0.950 . S
C582 C583 1.386 . S
C582 C584 1.391 . S
C583 C582 1.386 . S
C583 C587 1.393 . S
C584 H573 0.950 . S
C584 C582 1.391 . S
C584 C585 1.400 . S
C585 C579 1.491 . S
C585 C584 1.400 . S
C585 C586 1.398 . S
C586 H574 0.950 . S
C586 C585 1.398 . S
C586 C587 1.391 . S
C587 H575 0.950 . S
C587 C583 1.393 . S
C587 C586 1.391 . S
H588 C596 0.950 . S
H589 C601 0.950 . S
H590 C598 0.950 . S
H591 C600 0.950 . S
H592 C602 0.950 1_556 S
H593 C604 0.950 . S
H594 C606 0.950 . S
H595 C607 0.950 . S
C596 H588 0.950 . S
C596 C597 1.386 . S
C596 C598 1.391 . S
C597 C596 1.386 . S
C597 C601 1.393 . S
C598 H590 0.950 . S
C598 C596 1.391 . S
C598 C599 1.400 . S
C599 C598 1.400 . S
C599 C600 1.398 . S
C599 C605 1.491 . S
C600 H591 0.950 . S
C600 C599 1.398 . S
C600 C601 1.391 . S
C601 H589 0.950 . S
C601 C597 1.393 . S
C601 C600 1.391 . S
C602 H592 0.950 1_554 S
C602 C603 1.386 . S
C602 C604 1.391 . S
C603 C602 1.386 . S
C603 C607 1.393 . S
C604 H593 0.950 . S
C604 C602 1.391 . S
C604 C605 1.400 . S
C605 C599 1.491 . S
C605 C604 1.400 . S
C605 C606 1.398 . S
C606 H594 0.950 . S
C606 C605 1.398 . S
C606 C607 1.391 . S
C607 H595 0.950 . S
C607 C603 1.393 . S
C607 C606 1.391 . S
H608 C616 0.950 . S
H609 C621 0.950 . S
H610 C618 0.950 . S
H611 C620 0.950 . S
H612 C622 0.950 . S
H613 C624 0.950 . S
H614 C626 0.950 . S
H615 C627 0.950 . S
C616 H608 0.950 . S
C616 C617 1.386 . S
C616 C618 1.391 . S
C617 C616 1.386 . S
C617 C621 1.393 . S
C618 H610 0.950 . S
C618 C616 1.391 . S
C618 C619 1.400 . S
C619 C618 1.400 . S
C619 C620 1.398 . S
C619 C625 1.491 . S
C620 H611 0.950 . S
C620 C619 1.398 . S
C620 C621 1.391 . S
C621 H609 0.950 . S
C621 C617 1.393 . S
C621 C620 1.391 . S
C622 H612 0.950 . S
C622 C623 1.386 . S
C622 C624 1.391 . S
C623 C622 1.386 . S
C623 C627 1.393 . S
C624 H613 0.950 . S
C624 C622 1.391 . S
C624 C625 1.400 . S
C625 C619 1.491 . S
C625 C624 1.400 . S
C625 C626 1.398 . S
C626 H614 0.950 . S
C626 C625 1.398 . S
C626 C627 1.391 . S
C627 H615 0.950 . S
C627 C623 1.393 . S
C627 C626 1.391 . S
H628 C636 0.950 . S
H629 C641 0.950 . S
H630 C638 0.950 . S
H631 C640 0.950 . S
H632 C642 0.950 . S
H633 C644 0.950 . S
H634 C646 0.950 . S
H635 C647 0.950 . S
C636 H628 0.950 . S
C636 C637 1.386 . S
C636 C638 1.391 . S
C637 C636 1.386 . S
C637 C641 1.393 . S
C638 H630 0.950 . S
C638 C636 1.391 . S
C638 C639 1.400 . S
C639 C638 1.400 . S
C639 C640 1.398 . S
C639 C645 1.491 . S
C640 H631 0.950 . S
C640 C639 1.398 . S
C640 C641 1.391 . S
C641 H629 0.950 . S
C641 C637 1.393 . S
C641 C640 1.391 . S
C642 H632 0.950 . S
C642 C643 1.386 . S
C642 C644 1.391 . S
C643 C642 1.386 . S
C643 C647 1.393 . S
C644 H633 0.950 . S
C644 C642 1.391 . S
C644 C645 1.400 . S
C645 C639 1.491 . S
C645 C644 1.400 . S
C645 C646 1.398 . S
C646 H634 0.950 . S
C646 C645 1.398 . S
C646 C647 1.391 . S
C647 H635 0.950 . S
C647 C643 1.393 . S
C647 C646 1.391 . S
H648 C656 0.950 . S
H649 C661 0.950 . S
H650 C658 0.950 . S
H651 C660 0.950 . S
H652 C662 0.950 . S
H653 C664 0.950 . S
H654 C666 0.950 . S
H655 C667 0.950 . S
C656 H648 0.950 . S
C656 C657 1.386 . S
C656 C658 1.391 . S
C657 C656 1.386 . S
C657 C661 1.393 . S
C658 H650 0.950 . S
C658 C656 1.391 . S
C658 C659 1.400 . S
C659 C658 1.400 . S
C659 C660 1.398 . S
C659 C665 1.491 . S
C660 H651 0.950 . S
C660 C659 1.398 . S
C660 C661 1.391 . S
C661 H649 0.950 . S
C661 C657 1.393 . S
C661 C660 1.391 . S
C662 H652 0.950 . S
C662 C663 1.386 . S
C662 C664 1.391 . S
C663 C662 1.386 . S
C663 C667 1.393 . S
C664 H653 0.950 . S
C664 C662 1.391 . S
C664 C665 1.400 . S
C665 C659 1.491 . S
C665 C664 1.400 . S
C665 C666 1.398 . S
C666 H654 0.950 . S
C666 C665 1.398 . S
C666 C667 1.391 . S
C667 H655 0.950 . S
C667 C663 1.393 . S
C667 C666 1.391 . S
H668 C676 0.950 . S
H669 C681 0.950 . S
H670 C678 0.950 . S
H671 C680 0.950 . S
H672 C682 0.950 . S
H673 C684 0.950 . S
H674 C686 0.950 . S
H675 C687 0.950 1_554 S
C676 H668 0.950 . S
C676 C677 1.386 . S
C676 C678 1.391 . S
C677 C676 1.386 . S
C677 C681 1.393 . S
C678 H670 0.950 . S
C678 C676 1.391 . S
C678 C679 1.400 . S
C679 C678 1.400 . S
C679 C680 1.398 . S
C679 C685 1.491 . S
C680 H671 0.950 . S
C680 C679 1.398 . S
C680 C681 1.391 . S
C681 H669 0.950 . S
C681 C677 1.393 . S
C681 C680 1.391 . S
C682 H672 0.950 . S
C682 C683 1.386 . S
C682 C684 1.391 . S
C683 C682 1.386 . S
C683 C687 1.393 . S
C684 H673 0.950 . S
C684 C682 1.391 . S
C684 C685 1.400 . S
C685 C679 1.491 . S
C685 C684 1.400 . S
C685 C686 1.398 . S
C686 H674 0.950 . S
C686 C685 1.398 . S
C686 C687 1.391 . S
C687 H675 0.950 1_556 S
C687 C683 1.393 . S
C687 C686 1.391 . S
H688 C696 0.950 . S
H689 C701 0.950 . S
H690 C698 0.948 1_455 S
H691 C700 0.950 . S
H692 C702 0.950 . S
H693 C704 0.950 . S
H694 C706 0.950 . S
H695 C707 0.950 . S
C696 H688 0.950 . S
C696 C697 1.386 . S
C696 C698 1.398 . S
C697 C696 1.386 . S
C697 C701 1.393 . S
C698 H690 0.948 1_655 S
C698 C696 1.398 . S
C698 C699 1.396 1_655 S
C699 C698 1.396 1_455 S
C699 C700 1.398 . S
C699 C705 1.491 . S
C700 H691 0.950 . S
C700 C699 1.398 . S
C700 C701 1.391 1_455 S
C701 H689 0.950 . S
C701 C697 1.393 . S
C701 C700 1.391 1_655 S
C702 H692 0.950 . S
C702 C703 1.386 . S
C702 C704 1.391 . S
C703 C702 1.386 . S
C703 C707 1.393 . S
C704 H693 0.950 . S
C704 C702 1.391 . S
C704 C705 1.400 . S
C705 C699 1.491 . S
C705 C704 1.400 . S
C705 C706 1.398 . S
C706 H694 0.950 . S
C706 C705 1.398 . S
C706 C707 1.391 . S
C707 H695 0.950 . S
C707 C703 1.393 . S
C707 C706 1.391 . S
H708 C716 0.950 . S
H709 C721 0.950 . S
H710 C718 0.950 . S
H711 C720 0.962 . S
H712 C722 0.950 . S
H713 C724 0.950 . S
H714 C726 0.950 . S
H715 C727 0.950 . S
C716 H708 0.950 . S
C716 C717 1.386 . S
C716 C718 1.391 . S
C717 C716 1.386 . S
C717 C721 1.393 . S
C718 H710 0.950 . S
C718 C716 1.391 . S
C718 C719 1.400 . S
C719 C718 1.400 . S
C719 C720 1.398 . S
C719 C725 1.491 1_655 S
C720 H711 0.962 . S
C720 C719 1.398 . S
C720 C721 1.391 . S
C721 H709 0.950 . S
C721 C717 1.393 . S
C721 C720 1.391 . S
C722 H712 0.950 . S
C722 C723 1.386 . S
C722 C724 1.391 . S
C723 C722 1.386 . S
C723 C727 1.393 . S
C724 H713 0.950 . S
C724 C722 1.391 . S
C724 C725 1.400 . S
C725 C719 1.491 1_455 S
C725 C724 1.400 . S
C725 C726 1.398 . S
C726 H714 0.950 . S
C726 C725 1.398 . S
C726 C727 1.391 . S
C727 H715 0.950 . S
C727 C723 1.393 . S
C727 C726 1.391 . S
H728 C736 0.950 . S
H729 C741 0.950 . S
H730 C738 0.950 . S
H731 C740 0.950 . S
H732 C742 0.950 . S
H733 C744 0.950 . S
H734 C746 0.950 . S
H735 C747 0.950 . S
C736 H728 0.950 . S
C736 C737 1.386 . S
C736 C738 1.391 . S
C737 C736 1.386 . S
C737 C741 1.393 . S
C738 H730 0.950 . S
C738 C736 1.391 . S
C738 C739 1.400 . S
C739 C738 1.400 . S
C739 C740 1.398 . S
C739 C745 1.491 . S
C740 H731 0.950 . S
C740 C739 1.398 . S
C740 C741 1.391 . S
C741 H729 0.950 . S
C741 C737 1.393 . S
C741 C740 1.391 . S
C742 H732 0.950 . S
C742 C743 1.386 . S
C742 C744 1.391 . S
C743 C742 1.386 . S
C743 C747 1.393 . S
C744 H733 0.950 . S
C744 C742 1.391 . S
C744 C745 1.400 . S
C745 C739 1.491 . S
C745 C744 1.400 . S
C745 C746 1.398 . S
C746 H734 0.950 . S
C746 C745 1.398 . S
C746 C747 1.391 . S
C747 H735 0.950 . S
C747 C743 1.393 . S
C747 C746 1.391 . S
H748 C756 0.950 . S
H749 C761 0.950 . S
H750 C758 0.950 . S
H751 C760 0.950 . S
H752 C762 0.950 . S
H753 C764 0.950 . S
H754 C766 0.950 . S
H755 C767 0.950 . S
C756 H748 0.950 . S
C756 C757 1.386 . S
C756 C758 1.391 . S
C757 C756 1.386 . S
C757 C761 1.393 . S
C758 H750 0.950 . S
C758 C756 1.391 . S
C758 C759 1.400 . S
C759 C758 1.400 . S
C759 C760 1.398 . S
C759 C765 1.491 . S
C760 H751 0.950 . S
C760 C759 1.398 . S
C760 C761 1.391 . S
C761 H749 0.950 . S
C761 C757 1.393 . S
C761 C760 1.391 . S
C762 H752 0.950 . S
C762 C763 1.386 . S
C762 C764 1.391 . S
C763 C762 1.386 . S
C763 C767 1.393 . S
C764 H753 0.950 . S
C764 C762 1.391 . S
C764 C765 1.400 . S
C765 C759 1.491 . S
C765 C764 1.400 . S
C765 C766 1.398 . S
C766 H754 0.950 . S
C766 C765 1.398 . S
C766 C767 1.391 . S
C767 H755 0.950 . S
C767 C763 1.393 . S
C767 C766 1.391 . S
H768 C776 0.950 . S
H769 C781 0.950 . S
H770 C778 0.950 1_655 S
H771 C780 0.950 . S
H772 C782 0.950 . S
H773 C784 0.950 . S
H774 C786 0.950 . S
H775 C787 0.950 . S
C776 H768 0.950 . S
C776 C777 1.386 . S
C776 C778 1.391 . S
C777 C776 1.386 . S
C777 C781 1.393 . S
C778 H770 0.950 1_455 S
C778 C776 1.391 . S
C778 C779 1.400 . S
C779 C778 1.400 . S
C779 C780 1.398 . S
C779 C785 1.491 . S
C780 H771 0.950 . S
C780 C779 1.398 . S
C780 C781 1.391 . S
C781 H769 0.950 . S
C781 C777 1.393 . S
C781 C780 1.391 . S
C782 H772 0.950 . S
C782 C783 1.386 1_455 S
C782 C784 1.391 . S
C783 C782 1.386 1_655 S
C783 C787 1.393 . S
C784 H773 0.950 . S
C784 C782 1.391 . S
C784 C785 1.400 . S
C785 C779 1.491 . S
C785 C784 1.400 . S
C785 C786 1.398 1_455 S
C786 H774 0.950 . S
C786 C785 1.398 1_655 S
C786 C787 1.391 . S
C787 H775 0.950 . S
C787 C783 1.393 . S
C787 C786 1.391 . S
H788 C796 0.950 . S
H789 C801 0.950 . S
H790 C798 0.950 . S
H791 C800 0.950 . S
H792 C802 0.950 . S
H793 C804 0.950 . S
H794 C806 0.950 . S
H795 C807 0.950 . S
C796 H788 0.950 . S
C796 C797 1.386 . S
C796 C798 1.391 . S
C797 C796 1.386 . S
C797 C801 1.393 . S
C798 H790 0.950 . S
C798 C796 1.391 . S
C798 C799 1.400 . S
C799 C798 1.400 . S
C799 C800 1.398 . S
C799 C805 1.491 . S
C800 H791 0.950 . S
C800 C799 1.398 . S
C800 C801 1.391 . S
C801 H789 0.950 . S
C801 C797 1.393 . S
C801 C800 1.391 . S
C802 H792 0.950 . S
C802 C803 1.386 . S
C802 C804 1.391 . S
C803 C802 1.386 . S
C803 C807 1.393 . S
C804 H793 0.950 . S
C804 C802 1.391 . S
C804 C805 1.400 . S
C805 C799 1.491 . S
C805 C804 1.400 . S
C805 C806 1.398 . S
C806 H794 0.950 . S
C806 C805 1.398 . S
C806 C807 1.391 . S
C807 H795 0.950 . S
C807 C803 1.393 . S
C807 C806 1.391 . S
H808 C816 0.950 . S
H809 C821 0.950 . S
H810 C818 0.950 . S
H811 C820 0.950 . S
H812 C822 0.950 . S
H813 C824 0.950 . S
H814 C826 0.950 . S
H815 C827 0.950 . S
C816 H808 0.950 . S
C816 C817 1.386 . S
C816 C818 1.391 . S
C817 C816 1.386 . S
C817 C821 1.393 . S
C818 H810 0.950 . S
C818 C816 1.391 . S
C818 C819 1.400 . S
C819 C818 1.400 . S
C819 C820 1.398 . S
C819 C825 1.491 . S
C820 H811 0.950 . S
C820 C819 1.398 . S
C820 C821 1.391 . S
C821 H809 0.950 . S
C821 C817 1.393 . S
C821 C820 1.391 . S
C822 H812 0.950 . S
C822 C823 1.386 . S
C822 C824 1.391 . S
C823 C822 1.386 . S
C823 C827 1.393 . S
C824 H813 0.950 . S
C824 C822 1.391 . S
C824 C825 1.400 . S
C825 C819 1.491 . S
C825 C824 1.400 . S
C825 C826 1.398 . S
C826 H814 0.950 . S
C826 C825 1.398 . S
C826 C827 1.391 . S
C827 H815 0.950 . S
C827 C823 1.393 . S
C827 C826 1.391 . S
H828 C836 0.950 . S
H829 C841 0.950 . S
H830 C838 0.950 . S
H831 C840 0.950 . S
H832 C842 0.950 . S
H833 C844 0.950 . S
H834 C846 0.950 . S
H835 C847 0.950 . S
C836 H828 0.950 . S
C836 C837 1.386 . S
C836 C838 1.391 . S
C837 C836 1.386 . S
C837 C841 1.393 . S
C838 H830 0.950 . S
C838 C836 1.391 . S
C838 C839 1.400 . S
C839 C838 1.400 . S
C839 C840 1.398 . S
C839 C845 1.491 1_455 S
C840 H831 0.950 . S
C840 C839 1.398 . S
C840 C841 1.391 . S
C841 H829 0.950 . S
C841 C837 1.393 . S
C841 C840 1.391 . S
C842 H832 0.950 . S
C842 C843 1.386 . S
C842 C844 1.391 . S
C843 C842 1.386 . S
C843 C847 1.393 . S
C844 H833 0.950 . S
C844 C842 1.391 . S
C844 C845 1.400 . S
C845 C839 1.491 1_655 S
C845 C844 1.400 . S
C845 C846 1.398 . S
C846 H834 0.950 . S
C846 C845 1.398 . S
C846 C847 1.391 . S
C847 H835 0.950 . S
C847 C843 1.393 . S
C847 C846 1.391 . S
H848 C856 0.950 . S
H849 C861 0.950 . S
H850 C858 0.950 1_565 S
H851 C860 0.950 . S
H852 C862 0.950 . S
H853 C864 0.950 1_545 S
H854 C866 0.950 . S
H855 C867 0.950 . S
C856 H848 0.950 . S
C856 C857 1.386 . S
C856 C858 1.391 . S
C857 C856 1.386 . S
C857 C861 1.393 . S
C858 H850 0.950 1_545 S
C858 C856 1.391 . S
C858 C859 1.400 . S
C859 C858 1.400 . S
C859 C860 1.398 1_554 S
C859 C865 1.491 1_544 S
C860 H851 0.950 . S
C860 C859 1.398 1_556 S
C860 C861 1.391 1_556 S
C861 H849 0.950 . S
C861 C857 1.393 . S
C861 C860 1.391 1_554 S
C862 H852 0.950 . S
C862 C863 1.386 . S
C862 C864 1.391 . S
C863 C862 1.386 . S
C863 C867 1.393 . S
C864 H853 0.950 1_565 S
C864 C862 1.391 . S
C864 C865 1.400 . S
C865 C859 1.491 1_566 S
C865 C864 1.400 . S
C865 C866 1.398 1_556 S
C866 H854 0.950 . S
C866 C865 1.398 1_554 S
C866 C867 1.391 1_554 S
C867 H855 0.950 . S
C867 C863 1.393 . S
C867 C866 1.391 1_556 S
H868 C876 0.950 . S
H869 C881 0.950 . S
H870 C878 0.950 . S
H871 C880 0.950 . S
H872 C882 0.950 . S
H873 C884 0.950 . S
H874 C886 0.950 . S
H875 C887 0.950 . S
C876 H868 0.950 . S
C876 C877 1.386 . S
C876 C878 1.391 . S
C877 C876 1.386 . S
C877 C881 1.393 . S
C878 H870 0.950 . S
C878 C876 1.391 . S
C878 C879 1.400 . S
C879 C878 1.400 . S
C879 C880 1.398 . S
C879 C885 1.491 . S
C880 H871 0.950 . S
C880 C879 1.398 . S
C880 C881 1.391 . S
C881 H869 0.950 . S
C881 C877 1.393 . S
C881 C880 1.391 . S
C882 H872 0.950 . S
C882 C883 1.386 . S
C882 C884 1.391 . S
C883 C882 1.386 . S
C883 C887 1.393 . S
C884 H873 0.950 . S
C884 C882 1.391 . S
C884 C885 1.400 . S
C885 C879 1.491 . S
C885 C884 1.400 . S
C885 C886 1.398 . S
C886 H874 0.950 . S
C886 C885 1.398 . S
C886 C887 1.391 . S
C887 H875 0.950 . S
C887 C883 1.393 . S
C887 C886 1.391 . S
H888 C896 0.950 . S
H889 C901 0.950 . S
H890 C898 0.950 . S
H891 C900 0.950 . S
H892 C902 0.950 . S
H893 C904 0.950 . S
H894 C906 0.950 . S
H895 C907 0.950 . S
C896 H888 0.950 . S
C896 C897 1.386 . S
C896 C898 1.391 . S
C897 C896 1.386 . S
C897 C901 1.393 . S
C898 H890 0.950 . S
C898 C896 1.391 . S
C898 C899 1.400 . S
C899 C898 1.400 . S
C899 C900 1.398 . S
C899 C905 1.491 1_545 S
C900 H891 0.950 . S
C900 C899 1.398 . S
C900 C901 1.391 . S
C901 H889 0.950 . S
C901 C897 1.393 . S
C901 C900 1.391 . S
C902 H892 0.950 . S
C902 C903 1.386 . S
C902 C904 1.391 . S
C903 C902 1.386 . S
C903 C907 1.393 . S
C904 H893 0.950 . S
C904 C902 1.391 . S
C904 C905 1.400 . S
C905 C899 1.491 1_565 S
C905 C904 1.400 . S
C905 C906 1.398 . S
C906 H894 0.950 . S
C906 C905 1.398 . S
C906 C907 1.391 . S
C907 H895 0.950 . S
C907 C903 1.393 . S
C907 C906 1.391 . S
H908 C916 0.950 . S
H909 C921 0.950 . S
H910 C918 0.950 . S
H911 C920 0.950 . S
H912 C922 0.950 . S
H913 C924 0.950 . S
H914 C926 0.950 . S
H915 C927 0.950 . S
C916 H908 0.950 . S
C916 C917 1.386 . S
C916 C918 1.391 . S
C917 C916 1.386 . S
C917 C921 1.393 . S
C918 H910 0.950 . S
C918 C916 1.391 . S
C918 C919 1.400 . S
C919 C918 1.400 . S
C919 C920 1.398 . S
C919 C925 1.491 . S
C920 H911 0.950 . S
C920 C919 1.398 . S
C920 C921 1.391 . S
C921 H909 0.950 . S
C921 C917 1.393 . S
C921 C920 1.391 . S
C922 H912 0.950 . S
C922 C923 1.386 . S
C922 C924 1.391 . S
C923 C922 1.386 . S
C923 C927 1.393 . S
C924 H913 0.950 . S
C924 C922 1.391 . S
C924 C925 1.400 . S
C925 C919 1.491 . S
C925 C924 1.400 . S
C925 C926 1.398 . S
C926 H914 0.950 . S
C926 C925 1.398 . S
C926 C927 1.391 . S
C927 H915 0.950 . S
C927 C923 1.393 . S
C927 C926 1.391 . S
H928 C936 0.950 . S
H929 C941 0.950 . S
H930 C938 0.950 . S
H931 C940 0.950 . S
H932 C942 0.950 . S
H933 C944 0.950 . S
H934 C946 0.950 . S
H935 C947 0.950 . S
C936 H928 0.950 . S
C936 C937 1.386 . S
C936 C938 1.391 . S
C937 C936 1.386 . S
C937 C941 1.393 . S
C938 H930 0.950 . S
C938 C936 1.391 . S
C938 C939 1.400 . S
C939 C938 1.400 . S
C939 C940 1.398 . S
C939 C945 1.491 . S
C940 H931 0.950 . S
C940 C939 1.398 . S
C940 C941 1.391 . S
C941 H929 0.950 . S
C941 C937 1.393 . S
C941 C940 1.391 . S
C942 H932 0.950 . S
C942 C943 1.386 . S
C942 C944 1.391 . S
C943 C942 1.386 . S
C943 C947 1.393 . S
C944 H933 0.950 . S
C944 C942 1.391 . S
C944 C945 1.400 . S
C945 C939 1.491 . S
C945 C944 1.400 . S
C945 C946 1.398 . S
C946 H934 0.950 . S
C946 C945 1.398 . S
C946 C947 1.391 . S
C947 H935 0.950 . S
C947 C943 1.393 . S
C947 C946 1.391 . S
H948 C956 0.950 . S
H949 C961 0.950 . S
H950 C958 0.950 . S
H951 C960 0.950 . S
H952 C962 0.950 . S
H953 C964 0.950 . S
H954 C966 0.950 . S
H955 C967 0.950 . S
C956 H948 0.950 . S
C956 C957 1.386 . S
C956 C958 1.391 . S
C957 C956 1.386 . S
C957 C961 1.393 . S
C958 H950 0.950 . S
C958 C956 1.391 . S
C958 C959 1.400 . S
C959 C958 1.400 . S
C959 C960 1.398 . S
C959 C965 1.491 . S
C960 H951 0.950 . S
C960 C959 1.398 . S
C960 C961 1.391 . S
C961 H949 0.950 . S
C961 C957 1.393 . S
C961 C960 1.391 . S
C962 H952 0.950 . S
C962 C963 1.386 . S
C962 C964 1.391 . S
C963 C962 1.386 . S
C963 C967 1.393 . S
C964 H953 0.950 . S
C964 C962 1.391 . S
C964 C965 1.400 . S
C965 C959 1.491 . S
C965 C964 1.400 . S
C965 C966 1.398 . S
C966 H954 0.950 . S
C966 C965 1.398 . S
C966 C967 1.391 . S
C967 H955 0.950 . S
C967 C963 1.393 . S
C967 C966 1.391 . S
H968 C976 0.950 . S
H969 C981 0.950 . S
H970 C978 0.950 . S
H971 C980 0.950 . S
H972 C982 0.950 . S
H973 C984 0.950 . S
H974 C986 0.950 . S
H975 C987 0.950 . S
C976 H968 0.950 . S
C976 C977 1.386 . S
C976 C978 1.391 . S
C977 C976 1.386 . S
C977 C981 1.393 . S
C978 H970 0.950 . S
C978 C976 1.391 . S
C978 C979 1.400 . S
C979 C978 1.400 . S
C979 C980 1.398 . S
C979 C985 1.491 . S
C980 H971 0.950 . S
C980 C979 1.398 . S
C980 C981 1.391 . S
C981 H969 0.950 . S
C981 C977 1.393 . S
C981 C980 1.391 . S
C982 H972 0.950 . S
C982 C983 1.386 . S
C982 C984 1.391 . S
C983 C982 1.386 . S
C983 C987 1.393 . S
C984 H973 0.950 . S
C984 C982 1.391 . S
C984 C985 1.400 . S
C985 C979 1.491 . S
C985 C984 1.400 . S
C985 C986 1.398 . S
C986 H974 0.950 . S
C986 C985 1.398 . S
C986 C987 1.391 . S
C987 H975 0.950 . S
C987 C983 1.393 . S
C987 C986 1.391 . S
H988 C996 0.950 . S
H989 C1001 0.950 . S
H990 C998 0.950 . S
H991 C1000 0.950 . S
H992 C1002 0.950 . S
H993 C1004 0.950 . S
H994 C1006 0.950 . S
H995 C1007 0.950 . S
C996 H988 0.950 . S
C996 C997 1.386 . S
C996 C998 1.391 . S
C997 C996 1.386 . S
C997 C1001 1.393 1_655 S
C998 H990 0.950 . S
C998 C996 1.391 . S
C998 C999 1.400 . S
C999 C998 1.400 . S
C999 C1000 1.398 1_656 S
C999 C1005 1.491 1_556 S
C1000 H991 0.950 . S
C1000 C999 1.398 1_454 S
C1000 C1001 1.391 1_554 S
C1001 H989 0.950 . S
C1001 C997 1.393 1_455 S
C1001 C1000 1.391 1_556 S
C1002 H992 0.950 . S
C1002 C1003 1.386 1_455 S
C1002 C1004 1.391 . S
C1003 C1002 1.386 1_655 S
C1003 C1007 1.393 . S
C1004 H993 0.950 . S
C1004 C1002 1.391 . S
C1004 C1005 1.400 1_455 S
C1005 C999 1.491 1_554 S
C1005 C1004 1.400 1_655 S
C1005 C1006 1.398 1_554 S
C1006 H994 0.950 . S
C1006 C1005 1.398 1_556 S
C1006 C1007 1.391 1_556 S
C1007 H995 0.950 . S
C1007 C1003 1.393 . S
C1007 C1006 1.391 1_554 S
H1008 C1016 0.950 . S
H1009 C1021 0.950 . S
H1010 C1018 0.950 . S
H1011 C1020 0.950 . S
H1012 C1022 0.950 . S
H1013 C1024 0.950 . S
H1014 C1026 0.950 . S
H1015 C1027 0.950 . S
C1016 H1008 0.950 . S
C1016 C1017 1.386 . S
C1016 C1018 1.391 . S
C1017 C1016 1.386 . S
C1017 C1021 1.393 . S
C1018 H1010 0.950 . S
C1018 C1016 1.391 . S
C1018 C1019 1.400 . S
C1019 C1018 1.400 . S
C1019 C1020 1.398 . S
C1019 C1025 1.491 . S
C1020 H1011 0.950 . S
C1020 C1019 1.398 . S
C1020 C1021 1.391 . S
C1021 H1009 0.950 . S
C1021 C1017 1.393 . S
C1021 C1020 1.391 . S
C1022 H1012 0.950 . S
C1022 C1023 1.386 . S
C1022 C1024 1.391 . S
C1023 C1022 1.386 . S
C1023 C1027 1.393 . S
C1024 H1013 0.950 . S
C1024 C1022 1.391 . S
C1024 C1025 1.400 . S
C1025 C1019 1.491 . S
C1025 C1024 1.400 . S
C1025 C1026 1.398 . S
C1026 H1014 0.950 . S
C1026 C1025 1.398 . S
C1026 C1027 1.391 . S
C1027 H1015 0.950 . S
C1027 C1023 1.393 . S
C1027 C1026 1.391 . S
H1028 C1036 0.950 . S
H1029 C1041 0.950 . S
H1030 C1038 0.950 . S
H1031 C1040 0.950 . S
H1032 C1042 0.950 . S
H1033 C1044 0.950 . S
H1034 C1046 0.950 . S
H1035 C1047 0.950 . S
C1036 H1028 0.950 . S
C1036 C1037 1.386 . S
C1036 C1038 1.391 . S
C1037 C1036 1.386 . S
C1037 C1041 1.393 . S
C1038 H1030 0.950 . S
C1038 C1036 1.391 . S
C1038 C1039 1.400 . S
C1039 C1038 1.400 . S
C1039 C1040 1.398 . S
C1039 C1045 1.491 . S
C1040 H1031 0.950 . S
C1040 C1039 1.398 . S
C1040 C1041 1.391 . S
C1041 H1029 0.950 . S
C1041 C1037 1.393 . S
C1041 C1040 1.391 . S
C1042 H1032 0.950 . S
C1042 C1043 1.386 . S
C1042 C1044 1.391 . S
C1043 C1042 1.386 . S
C1043 C1047 1.393 . S
C1044 H1033 0.950 . S
C1044 C1042 1.391 . S
C1044 C1045 1.400 . S
C1045 C1039 1.491 . S
C1045 C1044 1.400 . S
C1045 C1046 1.398 . S
C1046 H1034 0.950 . S
C1046 C1045 1.398 . S
C1046 C1047 1.391 . S
C1047 H1035 0.950 . S
C1047 C1043 1.393 . S
C1047 C1046 1.391 . S
H1048 C1056 0.950 . S
H1049 C1061 0.950 . S
H1050 C1058 0.950 . S
H1051 C1060 0.950 . S
H1052 C1062 0.950 . S
H1053 C1064 0.950 . S
H1054 C1066 0.950 . S
H1055 C1067 0.950 . S
C1056 H1048 0.950 . S
C1056 C1057 1.386 . S
C1056 C1058 1.391 . S
C1057 C1056 1.386 . S
C1057 C1061 1.393 . S
C1058 H1050 0.950 . S
C1058 C1056 1.391 . S
C1058 C1059 1.400 . S
C1059 C1058 1.400 . S
C1059 C1060 1.398 . S
C1059 C1065 1.491 . S
C1060 H1051 0.950 . S
C1060 C1059 1.398 . S
C1060 C1061 1.391 . S
C1061 H1049 0.950 . S
C1061 C1057 1.393 . S
C1061 C1060 1.391 . S
C1062 H1052 0.950 . S
C1062 C1063 1.386 . S
C1062 C1064 1.391 . S
C1063 C1062 1.386 . S
C1063 C1067 1.393 . S
C1064 H1053 0.950 . S
C1064 C1062 1.391 . S
C1064 C1065 1.400 . S
C1065 C1059 1.491 . S
C1065 C1064 1.400 . S
C1065 C1066 1.398 . S
C1066 H1054 0.950 . S
C1066 C1065 1.398 . S
C1066 C1067 1.391 . S
C1067 H1055 0.950 . S
C1067 C1063 1.393 . S
C1067 C1066 1.391 . S
H1068 C1076 0.950 . S
H1069 C1081 0.950 . S
H1070 C1078 0.950 . S
H1071 C1080 0.950 . S
H1072 C1082 0.950 . S
H1073 C1084 0.950 . S
H1074 C1086 0.950 . S
H1075 C1087 0.950 1_556 S
C1076 H1068 0.950 . S
C1076 C1077 1.386 . S
C1076 C1078 1.391 . S
C1077 C1076 1.386 . S
C1077 C1081 1.393 . S
C1078 H1070 0.950 . S
C1078 C1076 1.391 . S
C1078 C1079 1.400 . S
C1079 C1078 1.400 . S
C1079 C1080 1.398 . S
C1079 C1085 1.491 . S
C1080 H1071 0.950 . S
C1080 C1079 1.398 . S
C1080 C1081 1.391 . S
C1081 H1069 0.950 . S
C1081 C1077 1.393 . S
C1081 C1080 1.391 . S
C1082 H1072 0.950 . S
C1082 C1083 1.386 . S
C1082 C1084 1.391 . S
C1083 C1082 1.386 . S
C1083 C1087 1.393 . S
C1084 H1073 0.950 . S
C1084 C1082 1.391 . S
C1084 C1085 1.400 . S
C1085 C1079 1.491 . S
C1085 C1084 1.400 . S
C1085 C1086 1.398 . S
C1086 H1074 0.950 . S
C1086 C1085 1.398 . S
C1086 C1087 1.391 . S
C1087 H1075 0.950 1_554 S
C1087 C1083 1.393 . S
C1087 C1086 1.391 . S
H1088 C1096 0.950 . S
H1089 C1101 0.950 . S
H1090 C1098 0.950 . S
H1091 C1100 0.950 . S
H1092 C1102 0.950 . S
H1093 C1104 0.950 . S
H1094 C1106 0.950 . S
H1095 C1107 0.950 . S
C1096 H1088 0.950 . S
C1096 C1097 1.386 . S
C1096 C1098 1.391 . S
C1097 C1096 1.386 . S
C1097 C1101 1.393 . S
C1098 H1090 0.950 . S
C1098 C1096 1.391 . S
C1098 C1099 1.400 . S
C1099 C1098 1.400 . S
C1099 C1100 1.398 . S
C1099 C1105 1.491 . S
C1100 H1091 0.950 . S
C1100 C1099 1.398 . S
C1100 C1101 1.391 . S
C1101 H1089 0.950 . S
C1101 C1097 1.393 . S
C1101 C1100 1.391 . S
C1102 H1092 0.950 . S
C1102 C1103 1.386 . S
C1102 C1104 1.391 . S
C1103 C1102 1.386 . S
C1103 C1107 1.393 . S
C1104 H1093 0.950 . S
C1104 C1102 1.391 . S
C1104 C1105 1.400 . S
C1105 C1099 1.491 . S
C1105 C1104 1.400 . S
C1105 C1106 1.398 . S
C1106 H1094 0.950 . S
C1106 C1105 1.398 . S
C1106 C1107 1.391 . S
C1107 H1095 0.950 . S
C1107 C1103 1.393 . S
C1107 C1106 1.391 . S
H1108 C1116 0.950 . S
H1109 C1121 0.950 . S
H1110 C1118 0.950 . S
H1111 C1120 0.950 . S
H1112 C1122 0.950 . S
H1113 C1124 0.950 . S
H1114 C1126 0.950 . S
H1115 C1127 0.950 . S
C1116 H1108 0.950 . S
C1116 C1117 1.386 . S
C1116 C1118 1.391 . S
C1117 C1116 1.386 . S
C1117 C1121 1.393 . S
C1118 H1110 0.950 . S
C1118 C1116 1.391 . S
C1118 C1119 1.400 . S
C1119 C1118 1.400 . S
C1119 C1120 1.398 . S
C1119 C1125 1.491 . S
C1120 H1111 0.950 . S
C1120 C1119 1.398 . S
C1120 C1121 1.391 . S
C1121 H1109 0.950 . S
C1121 C1117 1.393 . S
C1121 C1120 1.391 . S
C1122 H1112 0.950 . S
C1122 C1123 1.386 . S
C1122 C1124 1.391 . S
C1123 C1122 1.386 . S
C1123 C1127 1.393 . S
C1124 H1113 0.950 . S
C1124 C1122 1.391 . S
C1124 C1125 1.400 . S
C1125 C1119 1.491 . S
C1125 C1124 1.400 . S
C1125 C1126 1.398 . S
C1126 H1114 0.950 . S
C1126 C1125 1.398 . S
C1126 C1127 1.391 . S
C1127 H1115 0.950 . S
C1127 C1123 1.393 . S
C1127 C1126 1.391 . S
H1128 C1136 0.950 . S
H1129 C1141 0.950 1_556 S
H1130 C1138 0.950 . S
H1131 C1140 0.950 . S
H1132 C1142 0.950 . S
H1133 C1144 0.950 . S
H1134 C1146 0.950 . S
H1135 C1147 0.950 . S
C1136 H1128 0.950 . S
C1136 C1137 1.386 . S
C1136 C1138 1.391 . S
C1137 C1136 1.386 . S
C1137 C1141 1.393 . S
C1138 H1130 0.950 . S
C1138 C1136 1.391 . S
C1138 C1139 1.400 . S
C1139 C1138 1.400 . S
C1139 C1140 1.398 . S
C1139 C1145 1.491 . S
C1140 H1131 0.950 . S
C1140 C1139 1.398 . S
C1140 C1141 1.391 . S
C1141 H1129 0.950 1_554 S
C1141 C1137 1.393 . S
C1141 C1140 1.391 . S
C1142 H1132 0.950 . S
C1142 C1143 1.386 . S
C1142 C1144 1.391 . S
C1143 C1142 1.386 . S
C1143 C1147 1.393 . S
C1144 H1133 0.950 . S
C1144 C1142 1.391 . S
C1144 C1145 1.400 . S
C1145 C1139 1.491 . S
C1145 C1144 1.400 . S
C1145 C1146 1.398 . S
C1146 H1134 0.950 . S
C1146 C1145 1.398 . S
C1146 C1147 1.391 . S
C1147 H1135 0.950 . S
C1147 C1143 1.393 . S
C1147 C1146 1.391 . S
H1148 C1156 0.950 . S
H1149 C1161 0.950 . S
H1150 C1158 0.950 . S
H1151 C1160 0.950 . S
H1152 C1162 0.950 . S
H1153 C1164 0.950 . S
H1154 C1166 0.950 . S
H1155 C1167 0.950 1_554 S
C1156 H1148 0.950 . S
C1156 C1157 1.386 . S
C1156 C1158 1.391 . S
C1157 C1156 1.386 . S
C1157 C1161 1.393 . S
C1158 H1150 0.950 . S
C1158 C1156 1.391 . S
C1158 C1159 1.400 . S
C1159 C1158 1.400 . S
C1159 C1160 1.398 . S
C1159 C1165 1.491 . S
C1160 H1151 0.950 . S
C1160 C1159 1.398 . S
C1160 C1161 1.391 . S
C1161 H1149 0.950 . S
C1161 C1157 1.393 . S
C1161 C1160 1.391 . S
C1162 H1152 0.950 . S
C1162 C1163 1.386 . S
C1162 C1164 1.391 . S
C1163 C1162 1.386 . S
C1163 C1167 1.393 . S
C1164 H1153 0.950 . S
C1164 C1162 1.391 . S
C1164 C1165 1.400 . S
C1165 C1159 1.491 . S
C1165 C1164 1.400 . S
C1165 C1166 1.398 . S
C1166 H1154 0.950 . S
C1166 C1165 1.398 . S
C1166 C1167 1.391 . S
C1167 H1155 0.950 1_556 S
C1167 C1163 1.393 . S
C1167 C1166 1.391 . S
H1168 C1176 0.950 . S
H1169 C1181 0.950 . S
H1170 C1178 0.950 . S
H1171 C1180 0.950 . S
H1172 C1182 0.950 . S
H1173 C1184 0.950 . S
H1174 C1186 0.950 . S
H1175 C1187 0.950 1_554 S
C1176 H1168 0.950 . S
C1176 C1177 1.386 . S
C1176 C1178 1.391 . S
C1177 C1176 1.386 . S
C1177 C1181 1.393 . S
C1178 H1170 0.950 . S
C1178 C1176 1.391 . S
C1178 C1179 1.400 . S
C1179 C1178 1.400 . S
C1179 C1180 1.398 . S
C1179 C1185 1.491 . S
C1180 H1171 0.950 . S
C1180 C1179 1.398 . S
C1180 C1181 1.391 . S
C1181 H1169 0.950 . S
C1181 C1177 1.393 . S
C1181 C1180 1.391 . S
C1182 H1172 0.950 . S
C1182 C1183 1.386 . S
C1182 C1184 1.391 . S
C1183 C1182 1.386 . S
C1183 C1187 1.393 . S
C1184 H1173 0.950 . S
C1184 C1182 1.391 . S
C1184 C1185 1.400 . S
C1185 C1179 1.491 . S
C1185 C1184 1.400 . S
C1185 C1186 1.398 . S
C1186 H1174 0.950 . S
C1186 C1185 1.398 . S
C1186 C1187 1.391 . S
C1187 H1175 0.950 1_556 S
C1187 C1183 1.393 . S
C1187 C1186 1.391 . S
H1188 C1196 0.950 . S
H1189 C1201 0.950 . S
H1190 C1198 0.950 . S
H1191 C1200 0.950 . S
H1192 C1202 0.950 . S
H1193 C1204 0.950 . S
H1194 C1206 0.950 . S
H1195 C1207 0.950 1_556 S
C1196 H1188 0.950 . S
C1196 C1197 1.386 . S
C1196 C1198 1.391 . S
C1197 C1196 1.386 . S
C1197 C1201 1.393 . S
C1198 H1190 0.950 . S
C1198 C1196 1.391 . S
C1198 C1199 1.400 . S
C1199 C1198 1.400 . S
C1199 C1200 1.398 . S
C1199 C1205 1.491 . S
C1200 H1191 0.950 . S
C1200 C1199 1.398 . S
C1200 C1201 1.391 . S
C1201 H1189 0.950 . S
C1201 C1197 1.393 . S
C1201 C1200 1.391 . S
C1202 H1192 0.950 . S
C1202 C1203 1.386 . S
C1202 C1204 1.391 . S
C1203 C1202 1.386 . S
C1203 C1207 1.393 . S
C1204 H1193 0.950 . S
C1204 C1202 1.391 . S
C1204 C1205 1.400 . S
C1205 C1199 1.491 . S
C1205 C1204 1.400 . S
C1205 C1206 1.398 . S
C1206 H1194 0.950 . S
C1206 C1205 1.398 . S
C1206 C1207 1.391 . S
C1207 H1195 0.950 1_554 S
C1207 C1203 1.393 . S
C1207 C1206 1.391 . S
H1208 C1216 0.950 . S
H1209 C1221 0.950 . S
H1210 C1218 0.950 . S
H1211 C1220 0.950 . S
H1212 C1222 0.950 . S
H1213 C1224 0.950 . S
H1214 C1226 0.950 . S
H1215 C1227 0.950 . S
C1216 H1208 0.950 . S
C1216 C1217 1.386 . S
C1216 C1218 1.391 . S
C1217 C1216 1.386 . S
C1217 C1221 1.393 . S
C1218 H1210 0.950 . S
C1218 C1216 1.391 . S
C1218 C1219 1.400 . S
C1219 C1218 1.400 . S
C1219 C1220 1.398 . S
C1219 C1225 1.491 . S
C1220 H1211 0.950 . S
C1220 C1219 1.398 . S
C1220 C1221 1.391 . S
C1221 H1209 0.950 . S
C1221 C1217 1.393 . S
C1221 C1220 1.391 . S
C1222 H1212 0.950 . S
C1222 C1223 1.386 . S
C1222 C1224 1.391 . S
C1223 C1222 1.386 . S
C1223 C1227 1.393 . S
C1224 H1213 0.950 . S
C1224 C1222 1.391 . S
C1224 C1225 1.400 . S
C1225 C1219 1.491 . S
C1225 C1224 1.400 . S
C1225 C1226 1.398 . S
C1226 H1214 0.950 . S
C1226 C1225 1.398 . S
C1226 C1227 1.391 . S
C1227 H1215 0.950 . S
C1227 C1223 1.393 . S
C1227 C1226 1.391 . S
H1228 C1236 0.950 . S
H1229 C1241 0.950 . S
H1230 C1238 0.950 . S
H1231 C1240 0.950 . S
H1232 C1242 0.950 . S
H1233 C1244 0.950 . S
H1234 C1246 0.950 . S
H1235 C1247 0.950 . S
C1236 H1228 0.950 . S
C1236 C1237 1.386 . S
C1236 C1238 1.391 . S
C1237 C1236 1.386 . S
C1237 C1241 1.393 . S
C1238 H1230 0.950 . S
C1238 C1236 1.391 . S
C1238 C1239 1.400 . S
C1239 C1238 1.400 . S
C1239 C1240 1.398 . S
C1239 C1245 1.491 . S
C1240 H1231 0.950 . S
C1240 C1239 1.398 . S
C1240 C1241 1.391 . S
C1241 H1229 0.950 . S
C1241 C1237 1.393 . S
C1241 C1240 1.391 . S
C1242 H1232 0.950 . S
C1242 C1243 1.386 . S
C1242 C1244 1.391 . S
C1243 C1242 1.386 . S
C1243 C1247 1.393 . S
C1244 H1233 0.950 . S
C1244 C1242 1.391 . S
C1244 C1245 1.400 . S
C1245 C1239 1.491 . S
C1245 C1244 1.400 . S
C1245 C1246 1.398 . S
C1246 H1234 0.950 . S
C1246 C1245 1.398 . S
C1246 C1247 1.391 . S
C1247 H1235 0.950 . S
C1247 C1243 1.393 . S
C1247 C1246 1.391 . S
H1248 C1256 0.950 . S
H1249 C1261 0.950 . S
H1250 C1258 0.950 . S
H1251 C1260 0.950 . S
H1252 C1262 0.950 . S
H1253 C1264 0.950 . S
H1254 C1266 0.950 . S
H1255 C1267 0.950 1_556 S
C1256 H1248 0.950 . S
C1256 C1257 1.386 . S
C1256 C1258 1.391 . S
C1257 C1256 1.386 . S
C1257 C1261 1.393 . S
C1258 H1250 0.950 . S
C1258 C1256 1.391 . S
C1258 C1259 1.400 . S
C1259 C1258 1.400 . S
C1259 C1260 1.398 . S
C1259 C1265 1.491 . S
C1260 H1251 0.950 . S
C1260 C1259 1.398 . S
C1260 C1261 1.391 . S
C1261 H1249 0.950 . S
C1261 C1257 1.393 . S
C1261 C1260 1.391 . S
C1262 H1252 0.950 . S
C1262 C1263 1.386 . S
C1262 C1264 1.391 . S
C1263 C1262 1.386 . S
C1263 C1267 1.393 . S
C1264 H1253 0.950 . S
C1264 C1262 1.391 . S
C1264 C1265 1.400 . S
C1265 C1259 1.491 . S
C1265 C1264 1.400 . S
C1265 C1266 1.398 . S
C1266 H1254 0.950 . S
C1266 C1265 1.398 . S
C1266 C1267 1.391 . S
C1267 H1255 0.950 1_554 S
C1267 C1263 1.393 . S
C1267 C1266 1.391 . S
H1268 C1276 0.950 1_554 S
H1269 C1281 0.950 . S
H1270 C1278 0.950 . S
H1271 C1280 0.950 . S
H1272 C1282 0.950 . S
H1273 C1284 0.950 . S
H1274 C1286 0.950 . S
H1275 C1287 0.950 . S
C1276 H1268 0.950 1_556 S
C1276 C1277 1.386 . S
C1276 C1278 1.391 . S
C1277 C1276 1.386 . S
C1277 C1281 1.393 . S
C1278 H1270 0.950 . S
C1278 C1276 1.391 . S
C1278 C1279 1.400 . S
C1279 C1278 1.400 . S
C1279 C1280 1.398 . S
C1279 C1285 1.491 . S
C1280 H1271 0.950 . S
C1280 C1279 1.398 . S
C1280 C1281 1.391 . S
C1281 H1269 0.950 . S
C1281 C1277 1.393 . S
C1281 C1280 1.391 . S
C1282 H1272 0.950 . S
C1282 C1283 1.386 . S
C1282 C1284 1.391 . S
C1283 C1282 1.386 . S
C1283 C1287 1.393 . S
C1284 H1273 0.950 . S
C1284 C1282 1.391 . S
C1284 C1285 1.400 . S
C1285 C1279 1.491 . S
C1285 C1284 1.400 . S
C1285 C1286 1.398 . S
C1286 H1274 0.950 . S
C1286 C1285 1.398 . S
C1286 C1287 1.391 . S
C1287 H1275 0.950 . S
C1287 C1283 1.393 . S
C1287 C1286 1.391 . S
H1288 C1296 0.950 . S
H1289 C1301 0.950 . S
H1290 C1298 0.950 . S
H1291 C1300 0.950 . S
H1292 C1302 0.950 . S
H1293 C1304 0.950 . S
H1294 C1306 0.950 . S
H1295 C1307 0.950 . S
C1296 H1288 0.950 . S
C1296 C1297 1.386 . S
C1296 C1298 1.391 . S
C1297 C1296 1.386 . S
C1297 C1301 1.393 . S
C1298 H1290 0.950 . S
C1298 C1296 1.391 . S
C1298 C1299 1.400 . S
C1299 C1298 1.400 . S
C1299 C1300 1.398 . S
C1299 C1305 1.491 . S
C1300 H1291 0.950 . S
C1300 C1299 1.398 . S
C1300 C1301 1.391 . S
C1301 H1289 0.950 . S
C1301 C1297 1.393 . S
C1301 C1300 1.391 . S
C1302 H1292 0.950 . S
C1302 C1303 1.386 . S
C1302 C1304 1.391 . S
C1303 C1302 1.386 . S
C1303 C1307 1.393 . S
C1304 H1293 0.950 . S
C1304 C1302 1.391 . S
C1304 C1305 1.400 . S
C1305 C1299 1.491 . S
C1305 C1304 1.400 . S
C1305 C1306 1.398 . S
C1306 H1294 0.950 . S
C1306 C1305 1.398 . S
C1306 C1307 1.391 . S
C1307 H1295 0.950 . S
C1307 C1303 1.393 . S
C1307 C1306 1.391 . S
H1308 C1316 0.950 . S
H1309 C1321 0.950 . S
H1310 C1318 0.950 . S
H1311 C1320 0.950 . S
H1312 C1322 0.950 . S
H1313 C1324 0.950 . S
H1314 C1326 0.950 . S
H1315 C1327 0.950 . S
C1316 H1308 0.950 . S
C1316 C1317 1.386 . S
C1316 C1318 1.391 . S
C1317 C1316 1.386 . S
C1317 C1321 1.393 . S
C1318 H1310 0.950 . S
C1318 C1316 1.391 . S
C1318 C1319 1.400 . S
C1319 C1318 1.400 . S
C1319 C1320 1.398 . S
C1319 C1325 1.491 . S
C1320 H1311 0.950 . S
C1320 C1319 1.398 . S
C1320 C1321 1.391 . S
C1321 H1309 0.950 . S
C1321 C1317 1.393 . S
C1321 C1320 1.391 . S
C1322 H1312 0.950 . S
C1322 C1323 1.386 . S
C1322 C1324 1.391 . S
C1323 C1322 1.386 . S
C1323 C1327 1.393 . S
C1324 H1313 0.950 . S
C1324 C1322 1.391 . S
C1324 C1325 1.400 . S
C1325 C1319 1.491 . S
C1325 C1324 1.400 . S
C1325 C1326 1.398 . S
C1326 H1314 0.950 . S
C1326 C1325 1.398 . S
C1326 C1327 1.391 . S
C1327 H1315 0.950 . S
C1327 C1323 1.393 . S
C1327 C1326 1.391 . S
C377 C17 0.917 1_556 S
C383 C178 0.884 . S
C397 C40 0.895 . S
C403 C109 0.900 1_554 S
C417 C132 0.917 . S
C423 C63 0.884 . S
C437 C86 0.884 . S
C443 C155 0.916 . S
C457 C274 1.280 . S
C463 C113 1.238 1_554 S
C477 C205 1.238 . S
C483 C21 1.265 1_556 S
C497 C251 1.237 . S
C503 C159 1.280 . S
C517 C67 1.239 . S
C523 C228 1.280 . S
C537 C224 0.918 . S
C543 C293 0.887 . S
C557 C247 0.892 . S
C563 C339 0.916 . S
C577 C316 0.915 1_556 S
C583 C201 0.884 . S
C597 C270 0.913 . S
C603 C362 0.885 1_554 S
C617 C343 1.238 . S
C623 C90 1.280 . S
C637 C297 1.239 . S
C643 C136 1.280 . S
C657 C44 1.246 . S
C663 C366 1.252 1_554 S
C677 C182 1.265 . S
C683 C320 1.237 1_556 S
C697 C318 0.405 . S
C703 C19 0.409 . S
C717 C272 0.424 . S
C723 C42 0.479 . S
C737 C295 0.489 . S
C743 C65 0.445 . S
C757 C249 0.413 . S
C763 C88 0.402 . S
C777 C111 0.468 . S
C783 C364 0.490 . S
C797 C226 0.433 . S
C803 C134 0.396 . S
C817 C157 0.465 . S
C823 C341 0.491 . S
C837 C180 0.430 . S
C843 C203 0.396 . S
C857 C20 0.828 . S
C863 C112 0.859 . S
C877 C43 0.826 . S
C883 C135 0.843 . S
C897 C158 0.835 . S
C903 C66 0.829 . S
C917 C89 0.826 . S
C923 C181 0.856 . S
C937 C250 0.868 . S
C943 C204 0.842 . S
C957 C273 0.825 . S
C963 C227 0.853 . S
C977 C296 0.834 . S
C983 C342 0.865 . S
C997 C365 0.834 1_655 S
C1003 C319 0.865 1_655 S
C1017 C18 1.486 . S
C1023 C179 1.489 . S
C1037 C41 1.486 . S
C1043 C110 1.486 . S
C1057 C133 1.487 1_556 S
C1063 C64 1.486 . S
C1077 C156 1.494 . S
C1083 C87 1.490 1_554 S
C1097 C269 1.485 . S
C1103 C108 1.495 . S
C1117 C200 1.482 . S
C1123 C16 1.508 . S
C1137 C246 1.483 1_554 S
C1143 C154 1.498 . S
C1157 C62 1.481 . S
C1163 C223 1.502 1_556 S
C1177 C294 1.495 . S
C1183 C225 1.491 1_556 S
C1197 C340 1.501 . S
C1203 C248 1.497 1_554 S
C1217 C317 1.497 . S
C1223 C202 1.501 . S
C1237 C363 1.490 . S
C1243 C271 1.495 . S
C1257 C338 1.483 . S
C1263 C85 1.498 1_554 S
C1277 C131 1.499 1_556 S
C1283 C292 1.483 . S
C1297 C39 1.500 . S
C1303 C361 1.482 . S
C1317 C315 1.486 . S
C1323 C177 1.495 . S
