# Generated by pormake.
# Topology qtz-x, (6)-cn, num edge types: 1
# Building blocks:
#     Node 0, Type 0, BuildingBlock: BETFEN_clean_sbu_0, # of connection points: 6
#     Node 1, Type 0, BuildingBlock: BETFEN_clean_sbu_0, # of connection points: 6
#     Node 2, Type 0, BuildingBlock: BETFEN_clean_sbu_0, # of connection points: 6
#     Edge 3, Type (0, 0), BuildingBlock: XIVTED_clean_linker_0, # of connection points: 2
#     Edge 4, Type (0, 0), BuildingBlock: XIVTED_clean_linker_0, # of connection points: 2
#     Edge 5, Type (0, 0), BuildingBlock: XIVTED_clean_linker_0, # of connection points: 2
#     Edge 6, Type (0, 0), BuildingBlock: XIVTED_clean_linker_0, # of connection points: 2
#     Edge 7, Type (0, 0), BuildingBlock: XIVTED_clean_linker_0, # of connection points: 2
#     Edge 8, Type (0, 0), BuildingBlock: XIVTED_clean_linker_0, # of connection points: 2
#     Edge 9, Type (0, 0), BuildingBlock: XIVTED_clean_linker_0, # of connection points: 2
#     Edge 10, Type (0, 0), BuildingBlock: XIVTED_clean_linker_0, # of connection points: 2
#     Edge 11, Type (0, 0), BuildingBlock: XIVTED_clean_linker_0, # of connection points: 2
# Relax obj value: 0.235
# Max RMSD: 0.264
# Mean RMSD: 0.240
data_MOF--net-qtz-x--node1-BETFEN_clean_sbu_0--edge1-XIVTED_clean_linker_0
_symmetry_space_group_name_H-M    P1
_symmetry_Int_Tables_number       1
_symmetry_cell_setting            triclinic
loop_
_symmetry_equiv_pos_as_xyz
'x, y, z'
_cell_length_a     14.97738
_cell_length_b     14.904664
_cell_length_c     54.049542
_cell_angle_alpha  69.258651
_cell_angle_beta   113.83112
_cell_angle_gamma 121.13014
loop_
_atom_site_label
_atom_site_type_symbol
_atom_site_fract_x
_atom_site_fract_y
_atom_site_fract_z
_atom_type_partial_charge
Pr0 Pr 0.9986 0.61508 0.18933 0.0
Pr1 Pr 0.23125 0.7777 0.17912 0.0
C2 C 0.84049 0.45558 0.2123 0.0
C3 C 0.82007 0.42647 0.23936 0.0
C4 C 0.83735 0.5042 0.25192 0.0
C5 C 0.82275 0.47629 0.2781 0.0
C6 C 0.79173 0.37015 0.29255 0.0
C7 C 0.77455 0.29265 0.27981 0.0
C8 C 0.78833 0.32053 0.25352 0.0
C9 C 0.04674 0.83115 0.17814 0.0
C10 C 0.22311 0.69957 0.24314 0.0
C11 C 0.38379 0.95188 0.15782 0.0
C12 C 0.40965 0.97465 0.1319 0.0
C13 C 0.51497 0.00227 0.13223 0.0
C14 C 0.53598 0.00924 0.10841 0.0
C15 C 0.45182 -0.01173 0.08381 0.0
C16 C 0.34735 0.96435 0.08337 0.0
C17 C 0.32661 0.95788 0.10705 0.0
C18 C 0.18989 0.5691 0.18025 0.0
C19 C 1.01619 0.68088 0.12662 0.0
O20 O 0.92307 0.44638 0.21252 0.0
O21 O 0.83233 0.54147 0.19576 0.0
O22 O 0.11293 0.79153 0.19312 0.0
O23 O 0.95077 0.75732 0.16905 0.0
O24 O 0.28523 0.76596 0.22651 0.0
O25 O 0.11865 0.63653 0.23394 0.0
O26 O 0.28996 0.94612 0.15513 0.0
O27 O 0.40592 0.87713 0.1772 0.0
O28 O 0.12856 0.5968 0.18307 0.0
O29 O 0.28045 0.65223 0.1778 0.0
O30 O 0.95898 0.60369 0.14344 0.0
O31 O 0.10823 0.76191 0.13543 0.0
H32 H 0.86301 0.58687 0.24162 0.0
H33 H 0.83533 0.53817 0.28691 0.0
H34 H 0.75269 0.21054 0.29034 0.0
H35 H 0.77579 0.25941 0.2444 0.0
H36 H 0.58031 0.01533 0.15111 0.0
H37 H 0.6178 0.02939 0.10941 0.0
H38 H 0.28005 0.94597 0.06504 0.0
H39 H 0.24422 0.93578 0.10604 0.0
Pr40 Pr 0.82259 0.1849 0.54898 0.0
Pr41 Pr 0.72355 0.9591 0.54444 0.0
C42 C 0.89075 0.36995 0.56359 0.0
C43 C 0.93196 0.40453 0.59002 0.0
C44 C 1.02113 0.50365 0.59388 0.0
C45 C 0.06566 0.53487 0.6194 0.0
C46 C 1.02148 0.4675 0.64157 0.0
C47 C 0.93162 0.36818 0.63752 0.0
C48 C 0.88765 0.33682 0.61205 0.0
C49 C 0.96684 0.13009 0.54443 0.0
C50 C 0.80689 -0.00324 0.60674 0.0
C51 C 0.65738 0.7786 0.52781 0.0
C52 C 0.62722 0.75575 0.50035 0.0
C53 C 0.53605 0.66221 0.49262 0.0
C54 C 0.4975 0.64689 0.46543 0.0
C55 C 0.54903 0.72533 0.44534 0.0
C56 C 0.64277 0.81728 0.45348 0.0
C57 C 0.68145 0.83222 0.48066 0.0
C58 C 0.57924 0.0135 0.54893 0.0
C59 C 0.7388 0.14926 0.48698 0.0
O60 O 0.78829 0.30262 0.55657 0.0
O61 O 0.95409 0.34698 0.55855 0.0
O62 O 0.9035 0.07306 0.55973 0.0
O63 O 0.95691 0.21745 0.53124 0.0
O64 O 0.77822 0.92554 0.59254 0.0
O65 O 0.82117 0.09534 0.59461 0.0
O66 O 0.7596 0.83974 0.53815 0.0
O67 O 0.59136 0.8024 0.53135 0.0
O68 O 0.64269 0.07075 0.53363 0.0
O69 O 0.58848 0.92565 0.56196 0.0
O70 O 0.76116 0.21739 0.50123 0.0
O71 O 0.73044 0.05239 0.49918 0.0
H72 H 0.05738 0.55635 0.57723 0.0
H73 H 0.1358 0.61112 0.62184 0.0
H74 H 0.89433 0.31485 0.65393 0.0
H75 H 0.8194 0.25933 0.60968 0.0
H76 H 0.49272 0.60237 0.50744 0.0
H77 H 0.4263 0.57422 0.46007 0.0
H78 H 0.68391 0.88018 0.43863 0.0
H79 H 0.75157 0.90558 0.48599 0.0
Pr80 Pr 0.77587 0.83483 0.8577 0.0
Pr81 Pr 0.94749 0.7597 0.87256 0.0
C82 C 0.60823 0.86213 0.85552 0.0
C83 C 0.57196 0.86537 0.87674 0.0
C84 C 0.54977 0.95005 0.8736 0.0
C85 C 0.52946 0.96165 0.89515 0.0
C86 C 0.53118 0.88865 0.92028 0.0
C87 C 0.54829 0.80108 0.92279 0.0
C88 C 0.56885 0.78977 0.90133 0.0
C89 C 0.9852 -0.00093 0.86024 0.0
C90 C 0.89388 0.76263 0.92436 0.0
C91 C 0.11645 0.73099 0.87625 0.0
C92 C 0.1548 0.72523 0.85598 0.0
C93 C 0.19859 0.6535 0.86255 0.0
C94 C 0.21992 0.63619 0.84211 0.0
C95 C 0.19752 0.6904 0.81478 0.0
C96 C 0.15871 0.7661 0.80869 0.0
C97 C 0.13759 0.78327 0.82906 0.0
C98 C 0.73753 0.59591 0.87003 0.0
C99 C 0.83272 0.83384 0.80603 0.0
O100 O 0.5994 0.77004 0.85553 0.0
O101 O 0.69979 0.94174 0.85158 0.0
O102 O 0.96114 0.91277 0.87748 0.0
O103 O 0.8995 0.00424 0.84124 0.0
O104 O 0.97154 0.77153 0.91666 0.0
O105 O 0.80616 0.7706 0.90595 0.0
O106 O 0.12418 0.82389 0.87505 0.0
O107 O 1.02405 0.65208 0.8798 0.0
O108 O 0.76218 0.68184 0.85273 0.0
O109 O 0.82304 0.59067 0.88909 0.0
O110 O 0.75303 0.82394 0.81317 0.0
O111 O 0.92006 0.82676 0.8248 0.0
H112 H 0.55207 0.00946 0.85484 0.0
H113 H 0.51717 0.03032 0.89253 0.0
H114 H 0.54788 0.74207 0.94159 0.0
H115 H 0.58552 0.72347 0.90436 0.0
H116 H 0.21248 0.60804 0.88324 0.0
H117 H 0.251 0.5783 0.84752 0.0
H118 H 0.13888 0.80815 0.78784 0.0
H119 H 0.1036 0.83887 0.82346 0.0
H120 H 0.89795 0.91161 0.15936 0.0
H121 H 0.33494 0.50107 0.1858 0.0
H122 H 0.24026 -0.00023 0.19564 0.0
H123 H 0.99483 0.38702 0.1756 0.0
H124 H 0.30046 0.32265 0.18516 0.0
H125 H 0.93036 0.08932 0.1605 0.0
C126 C 0.9801 0.96855 0.16743 0.0
C127 C 0.06661 0.94063 0.17742 0.0
C128 C 0.23325 0.3362 0.18316 0.0
C129 C 0.10424 0.14471 0.1787 0.0
C130 C 0.2528 0.43823 0.18349 0.0
C131 C 0.16766 0.45901 0.18084 0.0
C132 C 0.12722 0.25385 0.1797 0.0
C133 C 0.0629 0.37436 0.17786 0.0
C134 C 0.99837 0.06984 0.1682 0.0
C135 C 0.1712 0.01774 0.18771 0.0
N136 N 0.04547 0.27564 0.17718 0.0
N137 N 0.18708 0.11615 0.18798 0.0
H138 H 0.43276 0.89025 0.5789 0.0
H139 H 0.11299 0.25301 0.51436 0.0
H140 H 0.52394 0.17907 0.5186 0.0
H141 H 1.02236 0.96472 0.57485 0.0
H142 H 0.26258 0.22668 0.51546 0.0
H143 H 0.28311 0.91649 0.5778 0.0
C144 C 0.42138 0.95946 0.56541 0.0
C145 C 0.49086 0.03244 0.54871 0.0
C146 C 0.21017 0.16901 0.52851 0.0
C147 C 0.31878 0.06299 0.54734 0.0
C148 C 0.12448 0.1839 0.52789 0.0
C149 C 0.05517 0.1111 0.54464 0.0
C150 C 0.22719 0.08045 0.54601 0.0
C151 C 0.0739 0.02291 0.56164 0.0
C152 C 0.33566 0.97431 0.56479 0.0
C153 C 0.47226 0.12074 0.53176 0.0
N154 N 0.1582 0.01017 0.56193 0.0
N155 N 0.38793 0.13343 0.53147 0.0
H156 H 0.17455 0.00368 0.8988 0.0
H157 H 0.54828 0.59204 0.8315 0.0
H158 H 0.04919 0.1925 0.82588 0.0
H159 H 0.6729 0.40317 0.90454 0.0
H160 H 0.36467 0.44734 0.82916 0.0
H161 H 0.35773 0.14902 0.90126 0.0
C162 C 0.18562 0.07581 0.88332 0.0
C163 C 0.09654 0.08613 0.86212 0.0
C164 C 0.43215 0.43738 0.84568 0.0
C165 C 0.30596 0.2531 0.8648 0.0
C166 C 0.53695 0.52003 0.84702 0.0
C167 C 0.62594 0.50944 0.86821 0.0
C168 C 0.41619 0.34323 0.86565 0.0
C169 C 0.60661 0.41455 0.88782 0.0
C170 C 0.29021 0.15884 0.88473 0.0
C171 C 0.11558 0.18127 0.84259 0.0
N172 N 0.50403 0.33517 0.88604 0.0
N173 N 0.21804 0.261 0.84441 0.0
H174 H 0.6445 0.85713 0.97439 0.0
H175 H 0.36415 0.05515 1.02907 0.0
H176 H 0.39792 0.96325 0.92113 0.0
H177 H 0.5806 0.91133 0.08214 0.0
H178 H 0.38398 0.0337 0.98905 0.0
H179 H 0.62944 0.88683 1.01374 0.0
C180 C 0.58632 0.88575 0.97095 0.0
C181 C 0.52157 0.9066 0.94433 0.0
C182 C 0.4275 0.00732 1.00946 0.0
C183 C 0.50556 0.94303 0.98951 0.0
C184 C 0.41601 0.01922 0.03237 0.0
C185 C 0.47047 -0.01532 0.05915 0.0
C186 C 0.49422 0.96081 1.01326 0.0
C187 C 0.53806 0.9405 0.06199 0.0
C188 C 0.57843 0.90354 0.99347 0.0
C189 C 0.44996 0.94659 0.9412 0.0
N190 N 0.54765 0.92957 0.03938 0.0
N191 N 0.44374 0.96329 0.96352 0.0
H192 H 0.63875 0.02345 0.44832 0.0
H193 H 0.90949 0.48872 0.33393 0.0
H194 H 0.82716 0.35243 0.45798 0.0
H195 H 0.64488 0.18386 0.31625 0.0
H196 H 0.8876 0.43844 0.38003 0.0
H197 H 0.64687 0.07815 0.40065 0.0
C198 C 0.68135 0.10733 0.44036 0.0
C199 C 0.73272 0.18337 0.45723 0.0
C200 C 0.83401 0.38283 0.36599 0.0
C201 C 0.7431 0.24677 0.4026 0.0
C202 C 0.846 0.41164 0.33951 0.0
C203 C 0.77884 0.34076 0.32086 0.0
C204 C 0.75512 0.28177 0.37419 0.0
C205 C 0.69994 0.24085 0.32985 0.0
C206 C 0.68569 0.13858 0.41309 0.0
C207 C 0.78588 0.29114 0.44569 0.0
N208 N 0.69071 0.2143 0.35583 0.0
N209 N 0.79066 0.31951 0.41919 0.0
H210 H 0.65179 0.76972 0.76232 0.0
H211 H 0.94848 0.12041 0.64565 0.0
H212 H 1.00052 0.94508 0.78265 0.0
H213 H 0.68679 0.80726 0.63579 0.0
H214 H 0.95504 0.07747 0.69437 0.0
H215 H 0.64737 0.80249 0.71388 0.0
C216 C 0.72718 0.81553 0.75658 0.0
C217 C 0.82667 0.85471 0.77654 0.0
C218 C 0.89684 0.0179 0.68158 0.0
C219 C 0.8219 0.89358 0.72136 0.0
C220 C 0.89308 0.04218 0.65382 0.0
C221 C 0.81787 0.96672 0.63674 0.0
C222 C 0.82249 0.9187 0.69221 0.0
C223 C 0.74712 0.86701 0.64836 0.0
C224 C 0.72462 0.83342 0.72906 0.0
C225 C 0.92207 0.91298 0.76799 0.0
N226 N 0.75005 0.8463 0.67532 0.0
N227 N 0.91726 0.93174 0.74104 0.0
H228 H 0.07139 0.76258 0.96714 0.0
H229 H 0.81267 0.6184 0.08844 0.0
H230 H 0.74481 0.71804 0.95002 0.0
H231 H 0.15258 0.7343 0.09794 0.0
H232 H 0.77616 0.63233 0.03859 0.0
H233 H 0.09307 0.73152 1.01602 0.0
C234 C 1.00386 0.74605 0.97361 0.0
C235 C 0.90617 0.74332 0.95427 0.0
C236 C 0.85851 0.6542 0.05172 0.0
C237 C 0.93055 0.70697 1.0108 0.0
C238 C 0.87909 0.64551 0.08011 0.0
C239 C 0.98589 0.67631 0.09723 0.0
C240 C 0.9453 0.69216 0.04074 0.0
C241 C 0.06923 0.71139 0.08544 0.0
C242 C 1.01637 0.72831 1.00167 0.0
C243 C 0.82178 0.72138 0.96415 0.0
N244 N 0.04723 0.71835 0.05811 0.0
N245 N 0.83583 0.70398 0.99175 0.0
H246 H 0.11703 0.59724 0.28343 0.0
H247 H 0.6574 0.78624 0.40707 0.0
H248 H 0.43733 0.7977 0.27159 0.0
H249 H 0.33411 0.64038 0.41593 0.0
H250 H 0.57902 0.77746 0.35814 0.0
H251 H 0.19613 0.5981 0.33273 0.0
C252 C 0.20407 0.64119 0.29116 0.0
C253 C 0.27055 0.69771 0.27322 0.0
C254 C 0.52528 0.74708 0.37083 0.0
C255 C 0.36172 0.69868 0.32984 0.0
C256 C 0.56998 0.75241 0.3988 0.0
C257 C 0.50253 0.71426 0.41582 0.0
C258 C 0.41209 0.70279 0.35967 0.0
C259 C 0.38963 0.66942 0.40386 0.0
C260 C 0.24914 0.64179 0.31936 0.0
C261 C 0.38277 0.75331 0.28455 0.0
N262 N 0.34813 0.66512 0.37658 0.0
N263 N 0.42475 0.75228 0.31211 0.0
H264 H 0.26835 0.82305 0.76945 0.0
H265 H 0.0457 0.34436 0.69345 0.0
H266 H 0.13769 0.49091 0.80794 0.0
H267 H 0.10291 0.66783 0.65163 0.0
H268 H 0.11075 0.4 0.73742 0.0
H269 H 0.24372 0.77042 0.72832 0.0
C270 C 0.23552 0.7391 0.76937 0.0
C271 C 0.20317 0.66126 0.79202 0.0
C272 C 0.10978 0.45881 0.7186 0.0
C273 C 0.17509 0.60053 0.74501 0.0
C274 C 0.07186 0.42704 0.69344 0.0
C275 C 0.06758 0.50121 0.66864 0.0
C276 C 0.14433 0.56567 0.71905 0.0
C277 C 0.10541 0.60783 0.67011 0.0
C278 C 0.22155 0.70915 0.74589 0.0
C279 C 0.16376 0.5538 0.791 0.0
N280 N 0.14157 0.63662 0.69483 0.0
N281 N 0.14959 0.52652 0.76774 0.0
loop_
_geom_bond_atom_site_label_1
_geom_bond_atom_site_label_2
_geom_bond_distance
_geom_bond_site_symmetry_2
_ccdc_geom_bond_type
Pr0 C2 2.880 . S
Pr0 O20 2.562 . S
Pr0 O21 2.490 . S
Pr0 O22 2.695 1_655 S
Pr0 O23 2.512 . S
Pr0 O25 2.437 1_655 S
Pr0 O28 2.436 . S
Pr0 O30 2.438 . S
Pr1 C11 2.880 . S
Pr1 O22 2.436 . S
Pr1 O24 2.438 . S
Pr1 O26 2.562 . S
Pr1 O27 2.490 . S
Pr1 O28 2.695 1_455 S
Pr1 O29 2.512 . S
Pr1 O31 2.437 1_455 S
C2 Pr0 2.880 . S
C2 C3 1.491 . S
C2 O20 1.254 . S
C2 O21 1.225 . S
C3 C2 1.491 . S
C3 C4 1.392 . S
C3 C8 1.356 . S
C4 C3 1.392 . S
C4 C5 1.368 . S
C4 H32 0.929 . S
C5 C4 1.368 . S
C5 C6 1.386 . S
C5 H33 0.929 . S
C6 C5 1.386 . S
C6 C7 1.373 . S
C7 C6 1.373 . S
C7 C8 1.409 . S
C7 H34 0.931 . S
C8 C3 1.356 . S
C8 C7 1.409 . S
C8 H35 0.930 . S
C9 O22 1.270 1_655 S
C9 O23 1.248 . S
C10 O24 1.267 . S
C10 O25 1.278 . S
C11 Pr1 2.880 . S
C11 C12 1.491 . S
C11 O26 1.254 . S
C11 O27 1.225 . S
C12 C11 1.491 . S
C12 C13 1.392 . S
C12 C17 1.356 . S
C13 C12 1.392 . S
C13 C14 1.368 . S
C13 H36 0.929 . S
C14 C13 1.368 . S
C14 C15 1.386 . S
C14 H37 0.929 . S
C15 C14 1.386 . S
C15 C16 1.373 1_565 S
C16 C15 1.373 1_545 S
C16 C17 1.409 1_545 S
C16 H38 0.931 . S
C17 C12 1.356 . S
C17 C16 1.409 1_565 S
C17 H39 0.930 1_565 S
C18 O28 1.270 1_455 S
C18 O29 1.248 . S
C19 O30 1.267 . S
C19 O31 1.278 . S
O20 Pr0 2.562 . S
O20 C2 1.254 . S
O21 Pr0 2.490 . S
O21 C2 1.225 . S
O22 Pr0 2.695 1_455 S
O22 Pr1 2.436 . S
O22 C9 1.270 1_455 S
O23 Pr0 2.512 . S
O23 C9 1.248 . S
O24 Pr1 2.438 . S
O24 C10 1.267 . S
O25 Pr0 2.437 1_455 S
O25 C10 1.278 . S
O26 Pr1 2.562 . S
O26 C11 1.254 . S
O27 Pr1 2.490 . S
O27 C11 1.225 . S
O28 Pr0 2.436 . S
O28 Pr1 2.695 1_655 S
O28 C18 1.270 1_655 S
O29 Pr1 2.512 . S
O29 C18 1.248 . S
O30 Pr0 2.438 . S
O30 C19 1.267 . S
O31 Pr1 2.437 1_655 S
O31 C19 1.278 . S
H32 C4 0.929 . S
H33 C5 0.929 . S
H34 C7 0.931 . S
H35 C8 0.930 . S
H36 C13 0.929 . S
H37 C14 0.929 . S
H38 C16 0.931 . S
H39 C17 0.930 1_545 S
Pr40 C42 2.880 . S
Pr40 O60 2.562 . S
Pr40 O61 2.490 . S
Pr40 O62 2.695 1_545 S
Pr40 O63 2.512 . S
Pr40 O65 2.437 . S
Pr40 O68 2.436 . S
Pr40 O70 2.438 . S
Pr41 C51 2.880 . S
Pr41 O62 2.436 . S
Pr41 O64 2.438 . S
Pr41 O66 2.562 . S
Pr41 O67 2.490 . S
Pr41 O68 2.695 1_565 S
Pr41 O69 2.512 . S
Pr41 O71 2.437 1_565 S
C42 Pr40 2.880 . S
C42 C43 1.491 . S
C42 O60 1.254 . S
C42 O61 1.225 . S
C43 C42 1.491 . S
C43 C44 1.392 1_655 S
C43 C48 1.356 . S
C44 C43 1.392 1_455 S
C44 C45 1.368 . S
C44 H72 0.929 . S
C45 C44 1.368 . S
C45 C46 1.374 1_455 S
C45 H73 0.929 . S
C46 C45 1.374 1_655 S
C46 C47 1.382 . S
C47 C46 1.382 . S
C47 C48 1.409 . S
C47 H74 0.931 . S
C48 C43 1.356 . S
C48 C47 1.409 . S
C48 H75 0.930 . S
C49 O62 1.270 1_545 S
C49 O63 1.248 . S
C50 O64 1.267 . S
C50 O65 1.278 1_565 S
C51 Pr41 2.880 . S
C51 C52 1.491 . S
C51 O66 1.254 . S
C51 O67 1.225 . S
C52 C51 1.491 . S
C52 C53 1.392 . S
C52 C57 1.356 . S
C53 C52 1.392 . S
C53 C54 1.368 . S
C53 H76 0.929 . S
C54 C53 1.368 . S
C54 C55 1.386 . S
C54 H77 0.929 . S
C55 C54 1.386 . S
C55 C56 1.373 . S
C56 C55 1.373 . S
C56 C57 1.409 . S
C56 H78 0.931 . S
C57 C52 1.356 . S
C57 C56 1.409 . S
C57 H79 0.930 . S
C58 O68 1.270 1_565 S
C58 O69 1.248 . S
C59 O70 1.267 . S
C59 O71 1.278 . S
O60 Pr40 2.562 . S
O60 C42 1.254 . S
O61 Pr40 2.490 . S
O61 C42 1.225 . S
O62 Pr40 2.695 1_565 S
O62 Pr41 2.436 . S
O62 C49 1.270 1_565 S
O63 Pr40 2.512 . S
O63 C49 1.248 . S
O64 Pr41 2.438 . S
O64 C50 1.267 . S
O65 Pr40 2.437 . S
O65 C50 1.278 1_545 S
O66 Pr41 2.562 . S
O66 C51 1.254 . S
O67 Pr41 2.490 . S
O67 C51 1.225 . S
O68 Pr40 2.436 . S
O68 Pr41 2.695 1_545 S
O68 C58 1.270 1_545 S
O69 Pr41 2.512 . S
O69 C58 1.248 . S
O70 Pr40 2.438 . S
O70 C59 1.267 . S
O71 Pr41 2.437 1_545 S
O71 C59 1.278 . S
H72 C44 0.929 . S
H73 C45 0.929 . S
H74 C47 0.931 . S
H75 C48 0.930 . S
H76 C53 0.929 . S
H77 C54 0.929 . S
H78 C56 0.931 . S
H79 C57 0.930 . S
Pr80 C82 2.880 . S
Pr80 O100 2.562 1_545 S
Pr80 O101 2.490 . S
Pr80 O102 2.695 1_655 S
Pr80 O103 2.512 1_655 S
Pr80 O105 2.437 1_545 S
Pr80 O108 2.436 1_545 S
Pr80 O110 2.438 . S
Pr81 C91 2.880 1_655 S
Pr81 O102 2.436 1_665 S
Pr81 O104 2.438 . S
Pr81 O106 2.562 1_655 S
Pr81 O107 2.490 . S
Pr81 O108 2.695 . S
Pr81 O109 2.512 . S
Pr81 O111 2.437 . S
C82 Pr80 2.880 . S
C82 C83 1.491 . S
C82 O100 1.254 1_545 S
C82 O101 1.225 . S
C83 C82 1.491 . S
C83 C84 1.392 . S
C83 C88 1.356 1_545 S
C84 C83 1.392 . S
C84 C85 1.368 . S
C84 H112 0.929 . S
C85 C84 1.368 . S
C85 C86 1.386 . S
C85 H113 0.929 . S
C86 C85 1.386 . S
C86 C87 1.373 . S
C87 C86 1.373 . S
C87 C88 1.409 1_545 S
C87 H114 0.931 1_545 S
C88 C83 1.356 1_565 S
C88 C87 1.409 1_565 S
C88 H115 0.930 . S
C89 O102 1.270 . S
C89 O103 1.248 . S
C90 O104 1.267 . S
C90 O105 1.278 . S
C91 Pr81 2.880 1_455 S
C91 C92 1.491 . S
C91 O106 1.254 . S
C91 O107 1.225 1_455 S
C92 C91 1.491 . S
C92 C93 1.392 . S
C92 C97 1.356 . S
C93 C92 1.392 . S
C93 C94 1.368 . S
C93 H116 0.929 1_455 S
C94 C93 1.368 . S
C94 C95 1.386 . S
C94 H117 0.929 . S
C95 C94 1.386 . S
C95 C96 1.373 . S
C96 C95 1.373 . S
C96 C97 1.409 . S
C96 H118 0.931 . S
C97 C92 1.356 . S
C97 C96 1.409 . S
C97 H119 0.930 . S
C98 O108 1.270 . S
C98 O109 1.248 . S
C99 O110 1.267 1_565 S
C99 O111 1.278 . S
O100 Pr80 2.562 1_565 S
O100 C82 1.254 1_565 S
O101 Pr80 2.490 . S
O101 C82 1.225 . S
O102 Pr80 2.695 1_455 S
O102 Pr81 2.436 1_445 S
O102 C89 1.270 . S
O103 Pr80 2.512 1_455 S
O103 C89 1.248 . S
O104 Pr81 2.438 . S
O104 C90 1.267 . S
O105 Pr80 2.437 1_565 S
O105 C90 1.278 . S
O106 Pr81 2.562 1_455 S
O106 C91 1.254 . S
O107 Pr81 2.490 . S
O107 C91 1.225 1_655 S
O108 Pr80 2.436 1_565 S
O108 Pr81 2.695 . S
O108 C98 1.270 . S
O109 Pr81 2.512 . S
O109 C98 1.248 . S
O110 Pr80 2.438 . S
O110 C99 1.267 1_545 S
O111 Pr81 2.437 . S
O111 C99 1.278 . S
H112 C84 0.929 . S
H113 C85 0.929 . S
H114 C87 0.931 1_565 S
H115 C88 0.930 . S
H116 C93 0.929 1_655 S
H117 C94 0.929 . S
H118 C96 0.931 . S
H119 C97 0.930 . S
H120 C126 0.930 . S
H121 C130 0.930 . S
H122 C135 0.929 . S
H123 C133 0.929 . S
H124 C128 0.929 . S
H125 C134 0.929 . S
C126 H120 0.930 . S
C126 C127 1.367 1_645 S
C126 C134 1.378 . S
C127 C126 1.367 1_465 S
C127 C135 1.433 . S
C128 H124 0.929 . S
C128 C130 1.378 . S
C128 C132 1.350 1_455 S
C129 C132 1.459 1_455 S
C129 C134 1.351 1_455 S
C129 N137 1.428 . S
C130 H121 0.930 . S
C130 C128 1.378 . S
C130 C131 1.367 1_455 S
C131 C130 1.367 1_655 S
C131 C133 1.433 . S
C132 C128 1.350 1_655 S
C132 C129 1.459 1_655 S
C132 N136 1.428 . S
C133 H123 0.929 . S
C133 C131 1.433 . S
C133 N136 1.384 . S
C134 H125 0.929 . S
C134 C126 1.378 . S
C134 C129 1.351 1_655 S
C135 H122 0.929 . S
C135 C127 1.433 . S
C135 N137 1.384 1_565 S
N136 C132 1.428 . S
N136 C133 1.384 . S
N137 C129 1.428 . S
N137 C135 1.384 1_545 S
H138 C144 0.930 . S
H139 C148 0.930 . S
H140 C153 0.929 . S
H141 C151 0.929 . S
H142 C146 0.929 . S
H143 C152 0.929 . S
C144 H138 0.930 . S
C144 C145 1.367 1_565 S
C144 C152 1.378 . S
C145 C144 1.367 1_545 S
C145 C153 1.433 . S
C146 H142 0.929 . S
C146 C148 1.378 . S
C146 C150 1.350 . S
C147 C150 1.463 . S
C147 C152 1.350 1_545 S
C147 N155 1.427 . S
C148 H139 0.930 . S
C148 C146 1.378 . S
C148 C149 1.367 . S
C149 C148 1.367 . S
C149 C151 1.433 1_545 S
C150 C146 1.350 . S
C150 C147 1.463 . S
C150 N154 1.427 1_545 S
C151 H141 0.929 . S
C151 C149 1.433 1_565 S
C151 N154 1.384 . S
C152 H143 0.929 . S
C152 C144 1.378 . S
C152 C147 1.350 1_565 S
C153 H140 0.929 . S
C153 C145 1.433 . S
C153 N155 1.384 . S
N154 C150 1.427 1_565 S
N154 C151 1.384 . S
N155 C147 1.427 . S
N155 C153 1.384 . S
H156 C162 0.930 . S
H157 C166 0.930 . S
H158 C171 0.929 . S
H159 C169 0.929 . S
H160 C164 0.929 . S
H161 C170 0.929 . S
C162 H156 0.930 . S
C162 C163 1.367 . S
C162 C170 1.378 . S
C163 C162 1.367 . S
C163 C171 1.433 . S
C164 H160 0.929 . S
C164 C166 1.378 . S
C164 C168 1.350 . S
C165 C168 1.463 . S
C165 C170 1.350 . S
C165 N173 1.427 . S
C166 H157 0.930 . S
C166 C164 1.378 . S
C166 C167 1.367 . S
C167 C166 1.367 . S
C167 C169 1.433 . S
C168 C164 1.350 . S
C168 C165 1.463 . S
C168 N172 1.427 . S
C169 H159 0.929 . S
C169 C167 1.433 . S
C169 N172 1.384 . S
C170 H161 0.929 . S
C170 C162 1.378 . S
C170 C165 1.350 . S
C171 H158 0.929 . S
C171 C163 1.433 . S
C171 N173 1.384 . S
N172 C168 1.427 . S
N172 C169 1.384 . S
N173 C165 1.427 . S
N173 C171 1.384 . S
H174 C180 0.930 1_565 S
H175 C184 0.930 . S
H176 C189 0.929 . S
H177 C187 0.929 . S
H178 C182 0.929 . S
H179 C188 0.929 . S
C180 H174 0.930 1_545 S
C180 C181 1.367 . S
C180 C188 1.378 1_545 S
C181 C180 1.367 . S
C181 C189 1.433 . S
C182 H178 0.929 . S
C182 C184 1.378 . S
C182 C186 1.350 . S
C183 C186 1.463 . S
C183 C188 1.350 1_545 S
C183 N191 1.427 . S
C184 H175 0.930 . S
C184 C182 1.378 . S
C184 C185 1.367 1_556 S
C185 C184 1.367 1_554 S
C185 C187 1.433 1_545 S
C186 C182 1.350 . S
C186 C183 1.463 . S
C186 N190 1.406 1_546 S
C187 H177 0.929 . S
C187 C185 1.433 1_565 S
C187 N190 1.422 . S
C188 H179 0.929 . S
C188 C180 1.378 1_565 S
C188 C183 1.350 1_565 S
C189 H176 0.929 . S
C189 C181 1.433 . S
C189 N191 1.384 . S
N190 C186 1.406 1_564 S
N190 C187 1.422 . S
N191 C183 1.427 . S
N191 C189 1.384 . S
H192 C198 0.930 . S
H193 C202 0.930 . S
H194 C207 0.929 . S
H195 C205 0.929 . S
H196 C200 0.929 . S
H197 C206 0.929 . S
C198 H192 0.930 . S
C198 C199 1.367 . S
C198 C206 1.378 . S
C199 C198 1.367 . S
C199 C207 1.433 . S
C200 H196 0.929 . S
C200 C202 1.378 . S
C200 C204 1.350 . S
C201 C204 1.463 . S
C201 C206 1.350 . S
C201 N209 1.427 . S
C202 H193 0.930 . S
C202 C200 1.378 . S
C202 C203 1.367 . S
C203 C202 1.367 . S
C203 C205 1.433 . S
C204 C200 1.350 . S
C204 C201 1.463 . S
C204 N208 1.427 . S
C205 H195 0.929 . S
C205 C203 1.433 . S
C205 N208 1.384 . S
C206 H197 0.929 . S
C206 C198 1.378 . S
C206 C201 1.350 . S
C207 H194 0.929 . S
C207 C199 1.433 . S
C207 N209 1.384 . S
N208 C204 1.427 . S
N208 C205 1.384 . S
N209 C201 1.427 . S
N209 C207 1.384 . S
H210 C216 0.930 . S
H211 C220 0.930 1_545 S
H212 C225 0.929 . S
H213 C223 0.929 . S
H214 C218 0.929 1_545 S
H215 C224 0.929 . S
C216 H210 0.930 . S
C216 C217 1.367 . S
C216 C224 1.378 . S
C217 C216 1.367 . S
C217 C225 1.433 1_565 S
C218 H214 0.929 1_565 S
C218 C220 1.378 . S
C218 C222 1.350 . S
C219 C222 1.463 . S
C219 C224 1.350 . S
C219 N227 1.427 1_565 S
C220 H211 0.930 1_565 S
C220 C218 1.378 . S
C220 C221 1.367 . S
C221 C220 1.367 . S
C221 C223 1.433 . S
C222 C218 1.350 . S
C222 C219 1.463 . S
C222 N226 1.427 . S
C223 H213 0.929 . S
C223 C221 1.433 . S
C223 N226 1.384 . S
C224 H215 0.929 . S
C224 C216 1.378 . S
C224 C219 1.350 . S
C225 H212 0.929 . S
C225 C217 1.433 1_545 S
C225 N227 1.384 . S
N226 C222 1.427 . S
N226 C223 1.384 . S
N227 C219 1.427 1_545 S
N227 C225 1.384 . S
H228 C234 0.930 . S
H229 C238 0.930 . S
H230 C243 0.929 . S
H231 C241 0.929 . S
H232 C236 0.929 1_556 S
H233 C242 0.929 . S
C234 H228 0.930 . S
C234 C235 1.367 . S
C234 C242 1.378 . S
C235 C234 1.367 . S
C235 C243 1.433 . S
C236 H232 0.929 1_554 S
C236 C238 1.378 . S
C236 C240 1.350 . S
C237 C240 1.463 1_556 S
C237 C242 1.350 . S
C237 N245 1.427 . S
C238 H229 0.930 . S
C238 C236 1.378 . S
C238 C239 1.367 . S
C239 C238 1.367 . S
C239 C241 1.433 . S
C240 C236 1.350 . S
C240 C237 1.463 1_554 S
C240 N244 1.427 . S
C241 H231 0.929 . S
C241 C239 1.433 . S
C241 N244 1.384 . S
C242 H233 0.929 . S
C242 C234 1.378 . S
C242 C237 1.350 . S
C243 H230 0.929 . S
C243 C235 1.433 . S
C243 N245 1.384 . S
N244 C240 1.427 . S
N244 C241 1.384 . S
N245 C237 1.427 . S
N245 C243 1.384 . S
H246 C252 0.930 . S
H247 C256 0.930 . S
H248 C261 0.929 . S
H249 C259 0.929 . S
H250 C254 0.929 . S
H251 C260 0.929 . S
C252 H246 0.930 . S
C252 C253 1.367 . S
C252 C260 1.378 . S
C253 C252 1.367 . S
C253 C261 1.433 . S
C254 H250 0.929 . S
C254 C256 1.378 . S
C254 C258 1.350 . S
C255 C258 1.463 . S
C255 C260 1.350 . S
C255 N263 1.427 . S
C256 H247 0.930 . S
C256 C254 1.378 . S
C256 C257 1.367 . S
C257 C256 1.367 . S
C257 C259 1.433 . S
C258 C254 1.350 . S
C258 C255 1.463 . S
C258 N262 1.427 . S
C259 H249 0.929 . S
C259 C257 1.433 . S
C259 N262 1.384 . S
C260 H251 0.929 . S
C260 C252 1.378 . S
C260 C255 1.350 . S
C261 H248 0.929 . S
C261 C253 1.433 . S
C261 N263 1.384 . S
N262 C258 1.427 . S
N262 C259 1.384 . S
N263 C255 1.427 . S
N263 C261 1.384 . S
H264 C270 0.930 . S
H265 C274 0.930 . S
H266 C279 0.929 1_655 S
H267 C277 0.929 . S
H268 C272 0.929 . S
H269 C278 0.929 . S
C270 H264 0.930 . S
C270 C271 1.367 . S
C270 C278 1.378 . S
C271 C270 1.367 . S
C271 C279 1.433 . S
C272 H268 0.929 . S
C272 C274 1.378 . S
C272 C276 1.350 1_655 S
C273 C276 1.463 . S
C273 C278 1.350 . S
C273 N281 1.427 . S
C274 H265 0.930 . S
C274 C272 1.378 . S
C274 C275 1.367 1_655 S
C275 C274 1.367 1_455 S
C275 C277 1.433 . S
C276 C272 1.350 1_455 S
C276 C273 1.463 . S
C276 N280 1.427 . S
C277 H267 0.929 . S
C277 C275 1.433 . S
C277 N280 1.384 . S
C278 H269 0.929 . S
C278 C270 1.378 . S
C278 C273 1.350 . S
C279 H266 0.929 1_455 S
C279 C271 1.433 . S
C279 N281 1.384 . S
N280 C276 1.427 . S
N280 C277 1.384 . S
N281 C273 1.427 . S
N281 C279 1.384 . S
C127 C9 1.571 1_455 S
C131 C18 1.571 1_655 S
C145 C58 1.645 1_545 S
C149 C49 1.645 1_455 S
C163 C89 1.351 . S
C167 C98 1.351 . S
C181 C86 0.969 . S
C185 C15 0.986 1_545 S
C199 C59 1.946 . S
C203 C6 1.887 . S
C217 C99 2.435 . S
C221 C50 2.435 . S
C235 C90 2.374 . S
C239 C19 2.319 . S
C253 C10 1.770 . S
C257 C55 1.666 . S
C271 C95 0.974 . S
C275 C46 0.984 1_455 S
