# Generated by pormake.
# Topology une, (4)-cn, num edge types: 1
# Building blocks:
#     Node 0, Type 0, BuildingBlock: QUQFOY_clean_sbu_1, # of connection points: 4
#     Node 1, Type 0, BuildingBlock: QUQFOY_clean_sbu_1, # of connection points: 4
#     Node 2, Type 0, BuildingBlock: QUQFOY_clean_sbu_1, # of connection points: 4
#     Node 3, Type 0, BuildingBlock: QUQFOY_clean_sbu_1, # of connection points: 4
#     Node 4, Type 0, BuildingBlock: QUQFOY_clean_sbu_1, # of connection points: 4
#     Node 5, Type 0, BuildingBlock: QUQFOY_clean_sbu_1, # of connection points: 4
#     Node 6, Type 0, BuildingBlock: QUQFOY_clean_sbu_1, # of connection points: 4
#     Node 7, Type 0, BuildingBlock: QUQFOY_clean_sbu_1, # of connection points: 4
#     Node 8, Type 0, BuildingBlock: QUQFOY_clean_sbu_1, # of connection points: 4
#     Node 9, Type 0, BuildingBlock: QUQFOY_clean_sbu_1, # of connection points: 4
#     Node 10, Type 0, BuildingBlock: QUQFOY_clean_sbu_1, # of connection points: 4
#     Node 11, Type 0, BuildingBlock: QUQFOY_clean_sbu_1, # of connection points: 4
#     Node 12, Type 0, BuildingBlock: QUQFOY_clean_sbu_1, # of connection points: 4
#     Node 13, Type 0, BuildingBlock: QUQFOY_clean_sbu_1, # of connection points: 4
#     Node 14, Type 0, BuildingBlock: QUQFOY_clean_sbu_1, # of connection points: 4
#     Node 15, Type 0, BuildingBlock: QUQFOY_clean_sbu_1, # of connection points: 4
#     Node 16, Type 0, BuildingBlock: QUQFOY_clean_sbu_1, # of connection points: 4
#     Node 17, Type 0, BuildingBlock: QUQFOY_clean_sbu_1, # of connection points: 4
#     Edge 18, Type (0, 0), None
#     Edge 19, Type (0, 0), None
#     Edge 20, Type (0, 0), None
#     Edge 21, Type (0, 0), None
#     Edge 22, Type (0, 0), None
#     Edge 23, Type (0, 0), None
#     Edge 24, Type (0, 0), None
#     Edge 25, Type (0, 0), None
#     Edge 26, Type (0, 0), None
#     Edge 27, Type (0, 0), None
#     Edge 28, Type (0, 0), None
#     Edge 29, Type (0, 0), None
#     Edge 30, Type (0, 0), None
#     Edge 31, Type (0, 0), None
#     Edge 32, Type (0, 0), None
#     Edge 33, Type (0, 0), None
#     Edge 34, Type (0, 0), None
#     Edge 35, Type (0, 0), None
#     Edge 36, Type (0, 0), None
#     Edge 37, Type (0, 0), None
#     Edge 38, Type (0, 0), None
#     Edge 39, Type (0, 0), None
#     Edge 40, Type (0, 0), None
#     Edge 41, Type (0, 0), None
#     Edge 42, Type (0, 0), None
#     Edge 43, Type (0, 0), None
#     Edge 44, Type (0, 0), None
#     Edge 45, Type (0, 0), None
#     Edge 46, Type (0, 0), None
#     Edge 47, Type (0, 0), None
#     Edge 48, Type (0, 0), None
#     Edge 49, Type (0, 0), None
#     Edge 50, Type (0, 0), None
#     Edge 51, Type (0, 0), None
#     Edge 52, Type (0, 0), None
#     Edge 53, Type (0, 0), None
# Relax obj value: 0.071
# Max RMSD: 0.133
# Mean RMSD: 0.118
data_MOF--net-une--node1-QUQFOY_clean_sbu_1--edge1-none
_symmetry_space_group_name_H-M    P1
_symmetry_Int_Tables_number       1
_symmetry_cell_setting            triclinic
loop_
_symmetry_equiv_pos_as_xyz
'x, y, z'
_cell_length_a     19.951826
_cell_length_b     19.952791
_cell_length_c     25.810194
_cell_angle_alpha  90.000816
_cell_angle_beta   90.00823
_cell_angle_gamma 119.99664
loop_
_atom_site_label
_atom_site_type_symbol
_atom_site_fract_x
_atom_site_fract_y
_atom_site_fract_z
_atom_type_partial_charge
O0 O 0.21329 0.06681 0.08669 0.0
Cd1 Cd 0.23259 0.02238 0.15253 0.0
Cd2 Cd 0.32227 0.00265 1.08148 0.0
O3 O 0.32956 0.10545 1.05625 0.0
O4 O 0.20288 0.07048 0.20998 0.0
O5 O 0.32295 0.09544 0.19685 0.0
C6 C 0.27531 0.10967 0.22191 0.0
C7 C 0.42507 -0.02049 1.08243 0.0
C8 C 0.26862 0.1107 1.05717 0.0
C9 C 0.16871 0.86763 0.11469 0.0
O10 O 0.21737 0.90232 1.07873 0.0
O11 O 0.1705 0.90333 0.15592 0.0
O12 O 0.39188 -0.02087 1.03945 0.0
O13 O 0.4032 -0.00191 0.12456 0.0
O14 O 0.85824 0.1298 0.09493 0.0
Cd15 Cd 0.9068 0.19534 0.1596 0.0
Cd16 Cd 0.92149 0.3023 0.08767 0.0
O17 O 0.81791 0.20636 1.06475 0.0
O18 O 0.86134 0.11863 0.21781 0.0
O19 O 0.83561 0.21338 0.20534 0.0
C20 C 0.82221 0.1517 0.23033 0.0
C21 C 0.94534 0.42853 0.08397 0.0
C22 C 0.81319 0.14045 1.06601 0.0
C23 C 0.05834 0.28376 0.11728 0.0
O24 O 0.02084 0.29637 1.08262 0.0
O25 O 0.02621 0.25219 0.15993 0.0
O26 O 0.94324 0.39194 1.04229 0.0
O27 O 0.9291 0.39184 0.1276 0.0
O28 O 0.79615 0.70544 0.10094 0.0
Cd29 Cd 0.72678 0.68703 0.16354 0.0
Cd30 Cd 0.62151 0.60365 0.08644 0.0
O31 O 0.71694 0.59887 1.05876 0.0
O32 O 0.80228 0.71704 0.22247 0.0
O33 O 0.70706 0.59715 0.20946 0.0
C34 C 0.76864 0.64481 0.23476 0.0
C35 C 0.49616 0.50022 0.08358 0.0
C36 C 0.78443 0.65608 1.06611 0.0
C37 C 0.64051 0.75656 0.1232 0.0
O38 O 0.62555 0.70816 0.08691 0.0
O39 O 0.67403 0.75361 0.16434 0.0
O40 O 0.53014 0.53763 1.04201 0.0
O41 O 0.53502 0.51854 0.12638 0.0
O42 O 0.69804 0.87183 1.07904 0.0
Cd43 Cd 0.67875 0.91621 1.01318 0.0
Cd44 Cd 0.58894 0.93589 0.08422 0.0
O45 O 0.58173 0.83312 0.10945 0.0
O46 O 0.70845 0.86811 0.95573 0.0
O47 O 0.58838 0.84313 0.96887 0.0
C48 C 0.63603 0.82891 0.94381 0.0
C49 C 0.48611 0.95898 0.08328 0.0
C50 C 0.64271 0.82794 0.10855 0.0
C51 C 0.74247 0.07096 1.05099 0.0
O52 O 0.69382 0.03627 0.08696 0.0
O53 O 0.74077 0.03526 1.00978 0.0
O54 O 0.51931 0.95938 0.12626 0.0
O55 O 0.50799 0.94041 1.04115 0.0
O56 O 0.05294 0.80879 1.07078 0.0
Cd57 Cd 0.0044 0.74328 1.0061 0.0
Cd58 Cd -0.01023 0.63627 1.07802 0.0
O59 O 0.09332 0.73224 0.10094 0.0
O60 O 0.04987 0.81999 0.94789 0.0
O61 O 0.0756 0.72525 0.96036 0.0
C62 C 0.089 0.78693 0.93537 0.0
C63 C -0.03402 0.51006 1.08172 0.0
C64 C 0.09798 0.79813 0.09969 0.0
C65 C 0.85287 0.65472 1.0484 0.0
O66 O 0.89038 0.64213 0.08307 0.0
O67 O 0.88499 0.68637 1.00577 0.0
O68 O -0.03195 0.54664 0.12341 0.0
O69 O -0.0178 0.54675 1.0381 0.0
O70 O 0.11505 0.23301 1.06479 0.0
Cd71 Cd 0.18438 0.25143 1.00217 0.0
Cd72 Cd 0.28973 0.33494 1.07924 0.0
O73 O 0.19426 0.33967 0.10691 0.0
O74 O 0.10887 0.22141 0.94324 0.0
O75 O 0.20408 0.34131 0.95626 0.0
C76 C 0.1425 0.29365 0.93096 0.0
C77 C 0.41506 0.43841 1.08211 0.0
C78 C 0.12679 0.2824 0.0996 0.0
C79 C 0.27081 0.18207 1.04249 0.0
O80 O 0.28575 0.23047 1.07877 0.0
O81 O 0.2372 0.18491 1.00136 0.0
O82 O 0.38108 0.40099 0.12367 0.0
O83 O 0.37619 0.42007 1.03931 0.0
O84 O 0.88227 0.39841 0.42738 0.0
Cd85 Cd 0.90085 0.35266 0.49282 0.0
Cd86 Cd -0.00864 0.33411 0.42076 0.0
O87 O -0.00203 0.43652 0.39584 0.0
O88 O 0.87007 0.39991 0.55018 0.0
O89 O -0.00951 0.42555 0.53778 0.0
C90 C 0.94234 0.43949 0.56243 0.0
C91 C 0.09441 0.31143 0.41738 0.0
C92 C 0.93714 0.44188 0.39741 0.0
C93 C 0.83714 0.19847 0.45392 0.0
O94 O 0.88652 0.2337 0.41843 0.0
O95 O 0.83822 0.23346 0.49535 0.0
O96 O 0.05844 0.31086 0.37574 0.0
O97 O 0.07496 0.32961 0.46067 0.0
O98 O 0.52374 0.4602 0.42812 0.0
Cd99 Cd 0.57127 0.52731 0.49219 0.0
Cd100 Cd 0.59342 0.63469 0.41753 0.0
O101 O 0.49204 0.53933 0.39064 0.0
O102 O 0.52391 0.45113 0.5506 0.0
O103 O 0.49967 0.54653 0.53681 0.0
C104 C 0.48522 0.48493 0.56229 0.0
C105 C 0.61605 0.76039 0.41631 0.0
C106 C 0.48373 0.47215 0.39531 0.0
C107 C 0.72719 0.61539 0.45374 0.0
O108 O 0.6938 0.63023 0.41733 0.0
O109 O 0.69043 0.58155 0.4947 0.0
O110 O 0.61839 0.72697 0.37413 0.0
O111 O 0.59603 0.72073 0.45879 0.0
O112 O 0.46427 0.0411 0.42661 0.0
Cd113 Cd 0.39723 0.02344 0.49057 0.0
Cd114 Cd 0.29167 0.93327 0.4178 0.0
O115 O 0.3874 0.92592 0.39392 0.0
O116 O 0.47304 0.05463 0.54935 0.0
O117 O 0.37862 0.93415 0.5365 0.0
C118 C 0.43986 -0.01755 0.56187 0.0
C119 C 0.16552 0.83071 0.41662 0.0
C120 C 0.45362 -0.01341 0.39649 0.0
C121 C 0.30949 0.0877 0.44803 0.0
O122 O 0.29729 0.03836 0.41289 0.0
O123 O 0.34066 0.0863 0.49067 0.0
O124 O 0.20025 0.86418 0.3742 0.0
O125 O 0.20409 0.85224 0.45952 0.0
O126 O 0.36161 0.19753 0.39768 0.0
Cd127 Cd 0.34452 0.25041 0.33558 0.0
Cd128 Cd 0.25858 0.26841 0.4121 0.0
O129 O 0.25258 0.16679 0.43774 0.0
O130 O 0.37479 0.20637 0.27595 0.0
O131 O 0.25488 0.18169 0.28912 0.0
C132 C 0.30256 0.16821 0.26348 0.0
C133 C 0.15578 0.29147 0.41546 0.0
C134 C 0.31071 0.15777 0.43118 0.0
C135 C 0.41293 0.40365 0.37891 0.0
O136 O 0.36364 0.36804 0.41436 0.0
O137 O 0.41076 0.36984 0.33666 0.0
O138 O 0.19189 0.29226 0.45708 0.0
O139 O 0.17498 0.27292 0.37221 0.0
O140 O 0.72445 0.14093 0.40668 0.0
Cd141 Cd 0.67764 0.07513 0.34194 0.0
Cd142 Cd 0.65846 0.96741 0.41489 0.0
O143 O 0.76037 0.06296 0.44076 0.0
O144 O 0.72405 0.15232 0.28403 0.0
O145 O 0.74992 0.05778 0.29671 0.0
C146 C 0.76345 0.11949 0.27173 0.0
C147 C 0.63597 0.84174 0.4159 0.0
C148 C 0.76663 0.12946 0.43787 0.0
C149 C 0.52308 -0.01458 0.38121 0.0
O150 O 0.55801 -0.02836 0.4171 0.0
O151 O 0.55837 0.01894 0.33977 0.0
O152 O 0.63472 0.87543 0.45823 0.0
O153 O 0.65488 0.88112 0.37331 0.0
O154 O 0.78491 0.55656 0.41112 0.0
Cd155 Cd 0.84667 0.57503 0.34445 0.0
Cd156 Cd -0.04207 0.66693 0.41454 0.0
O157 O 0.86222 0.67448 0.43895 0.0
O158 O 0.76771 0.54514 0.28775 0.0
O159 O 0.86316 0.66523 0.30035 0.0
C160 C 0.80075 0.61753 0.27578 0.0
C161 C 0.08396 0.76968 0.41597 0.0
C162 C 0.79639 0.6131 0.43938 0.0
C163 C 0.93867 0.51249 0.38166 0.0
O164 O 0.95324 0.56189 0.41723 0.0
O165 O 0.90397 0.51336 0.34058 0.0
O166 O 0.04949 0.73541 0.45827 0.0
O167 O 0.04519 0.74885 0.37313 0.0
O168 O 0.54973 0.74111 0.76805 0.0
Cd169 Cd 0.56682 0.68819 0.83012 0.0
Cd170 Cd 0.65262 0.67012 0.75358 0.0
O171 O 0.65868 0.77175 0.72793 0.0
O172 O 0.53655 0.73222 0.88976 0.0
O173 O 0.65645 0.75688 0.87659 0.0
C174 C 0.60877 0.77037 0.90224 0.0
C175 C 0.7554 0.64701 0.75023 0.0
C176 C 0.6006 0.78086 0.73453 0.0
C177 C 0.49824 0.53494 0.78678 0.0
O178 O 0.54753 0.57053 0.75132 0.0
O179 O 0.5005 0.56876 0.82905 0.0
O180 O 0.71928 0.64622 0.70861 0.0
O181 O 0.7362 0.66557 0.79348 0.0
O182 O 0.18672 0.79766 0.75903 0.0
Cd183 Cd 0.23356 0.86349 0.82376 0.0
Cd184 Cd 0.25279 -0.02884 0.7508 0.0
O185 O 0.15086 0.87564 0.72493 0.0
O186 O 0.18714 0.7863 0.88166 0.0
O187 O 0.16129 0.88085 0.86899 0.0
C188 C 0.14775 0.81914 0.89397 0.0
C189 C 0.27533 0.09685 0.74979 0.0
C190 C 0.14454 0.80912 0.72783 0.0
C191 C 0.38813 0.95305 0.78447 0.0
O192 O 0.35321 0.96685 0.74858 0.0
O193 O 0.35283 0.91962 0.82592 0.0
O194 O 0.27657 0.06315 0.70747 0.0
O195 O 0.25642 0.05747 0.79239 0.0
O196 O 0.12629 0.3819 0.75461 0.0
Cd197 Cd 0.06448 0.36342 0.82126 0.0
Cd198 Cd 0.9533 0.27165 0.75116 0.0
O199 O 0.04897 0.26404 0.72676 0.0
O200 O 0.14343 0.39331 0.87796 0.0
O201 O 0.04797 0.27322 0.86537 0.0
C202 C 0.11039 0.32092 0.88994 0.0
C203 C 0.82725 0.16894 0.74973 0.0
C204 C 0.11483 0.32538 0.72634 0.0
C205 C -0.02736 0.42613 0.78403 0.0
O206 O -0.04194 0.37672 0.74846 0.0
O207 O 0.00725 0.42516 0.82513 0.0
O208 O 0.86173 0.2032 0.70743 0.0
O209 O 0.86602 0.18977 0.79257 0.0
O210 O 0.02905 0.54021 0.73834 0.0
Cd211 Cd 0.01048 0.58593 0.67288 0.0
Cd212 Cd 0.91985 0.60443 0.74493 0.0
O213 O 0.91331 0.50205 0.76985 0.0
O214 O 0.04127 0.53868 0.61552 0.0
O215 O 0.92085 0.51303 0.62793 0.0
C216 C -0.031 0.49909 0.60328 0.0
C217 C 0.81676 0.62706 0.74831 0.0
C218 C -0.02583 0.49675 0.76831 0.0
C219 C 0.07403 0.74012 0.71175 0.0
O220 O 0.02465 0.70488 0.74724 0.0
O221 O 0.07305 0.70513 0.67035 0.0
O222 O 0.85274 0.62764 0.78995 0.0
O223 O 0.83622 0.60887 0.70503 0.0
O224 O 0.3874 0.47839 0.73763 0.0
Cd225 Cd 0.33993 0.41135 0.67353 0.0
Cd226 Cd 0.31784 0.30388 0.74816 0.0
O227 O 0.4192 0.39927 0.77504 0.0
O228 O 0.3873 0.48754 0.61513 0.0
O229 O 0.41156 0.39216 0.62893 0.0
C230 C 0.42601 0.45376 0.60344 0.0
C231 C 0.29526 0.1782 0.74939 0.0
C232 C 0.42743 0.46642 0.77041 0.0
C233 C 0.18402 0.3231 0.71195 0.0
O234 O 0.21742 0.30826 0.74836 0.0
O235 O 0.22077 0.35703 0.67101 0.0
O236 O 0.29291 0.21161 0.79156 0.0
O237 O 0.31526 0.21785 0.7069 0.0
O238 O 0.44693 0.89737 0.7391 0.0
Cd239 Cd 0.51394 0.91503 0.67512 0.0
Cd240 Cd 0.61956 0.00531 0.74789 0.0
O241 O 0.52379 0.01259 0.77177 0.0
O242 O 0.43813 0.88384 0.61635 0.0
O243 O 0.53254 0.00432 0.6292 0.0
C244 C 0.4713 0.95602 0.60383 0.0
C245 C 0.74569 0.10791 0.74908 0.0
C246 C 0.4576 0.95189 0.76922 0.0
C247 C 0.60182 0.85091 0.71766 0.0
O248 O 0.61401 0.90025 0.75279 0.0
O249 O 0.57058 0.85223 0.67503 0.0
O250 O 0.71096 0.07443 0.7915 0.0
O251 O 0.70713 0.08637 0.70617 0.0
loop_
_geom_bond_atom_site_label_1
_geom_bond_atom_site_label_2
_geom_bond_distance
_geom_bond_site_symmetry_2
_ccdc_geom_bond_type
O0 Cd1 2.223 . S
O0 C8 1.315 . S
Cd1 O0 2.223 . S
Cd1 O4 2.297 . S
Cd1 O5 2.439 . S
Cd1 O11 2.240 1_545 S
Cd2 O3 2.240 1_556 S
Cd2 O10 2.223 1_545 S
Cd2 O12 2.297 . S
Cd2 O13 2.439 1_556 S
O3 Cd2 2.240 1_554 S
O3 C8 1.279 . S
O4 Cd1 2.297 . S
O4 C6 1.247 . S
O5 Cd1 2.439 . S
O5 C6 1.208 . S
C6 O4 1.247 . S
C6 O5 1.208 . S
C7 O12 1.247 1_554 S
C7 O13 1.208 . S
C8 O0 1.315 . S
C8 O3 1.279 . S
C9 O10 1.315 . S
C9 O11 1.279 1_556 S
O10 Cd2 2.223 1_565 S
O10 C9 1.315 . S
O11 Cd1 2.240 1_565 S
O11 C9 1.279 1_554 S
O12 Cd2 2.297 . S
O12 C7 1.247 1_556 S
O13 Cd2 2.439 1_554 S
O13 C7 1.208 . S
O14 Cd15 2.223 . S
O14 C22 1.315 . S
Cd15 O14 2.223 . S
Cd15 O18 2.297 . S
Cd15 O19 2.439 . S
Cd15 O25 2.240 1_655 S
Cd16 O17 2.240 1_556 S
Cd16 O24 2.223 1_655 S
Cd16 O26 2.297 . S
Cd16 O27 2.439 1_556 S
O17 Cd16 2.240 1_554 S
O17 C22 1.279 . S
O18 Cd15 2.297 . S
O18 C20 1.247 . S
O19 Cd15 2.439 . S
O19 C20 1.208 . S
C20 O18 1.247 . S
C20 O19 1.208 . S
C21 O26 1.247 1_554 S
C21 O27 1.208 . S
C22 O14 1.315 . S
C22 O17 1.279 . S
C23 O24 1.315 . S
C23 O25 1.279 1_556 S
O24 Cd16 2.223 1_455 S
O24 C23 1.315 . S
O25 Cd15 2.240 1_455 S
O25 C23 1.279 1_554 S
O26 Cd16 2.297 . S
O26 C21 1.247 1_556 S
O27 Cd16 2.439 1_554 S
O27 C21 1.208 . S
O28 Cd29 2.223 . S
O28 C36 1.315 . S
Cd29 O28 2.223 . S
Cd29 O32 2.297 . S
Cd29 O33 2.439 . S
Cd29 O39 2.240 . S
Cd30 O31 2.240 1_556 S
Cd30 O38 2.223 . S
Cd30 O40 2.297 . S
Cd30 O41 2.439 1_556 S
O31 Cd30 2.240 1_554 S
O31 C36 1.279 . S
O32 Cd29 2.297 . S
O32 C34 1.247 . S
O33 Cd29 2.439 . S
O33 C34 1.208 . S
C34 O32 1.247 . S
C34 O33 1.208 . S
C35 O40 1.247 1_554 S
C35 O41 1.208 . S
C36 O28 1.315 . S
C36 O31 1.279 . S
C37 O38 1.315 . S
C37 O39 1.279 1_556 S
O38 Cd30 2.223 . S
O38 C37 1.315 . S
O39 Cd29 2.240 . S
O39 C37 1.279 1_554 S
O40 Cd30 2.297 . S
O40 C35 1.247 1_556 S
O41 Cd30 2.439 1_554 S
O41 C35 1.208 . S
O42 Cd43 2.223 . S
O42 C50 1.315 . S
Cd43 O42 2.223 . S
Cd43 O46 2.297 . S
Cd43 O47 2.439 . S
Cd43 O53 2.240 1_565 S
Cd44 O45 2.240 1_554 S
Cd44 O52 2.223 1_565 S
Cd44 O54 2.297 . S
Cd44 O55 2.439 1_554 S
O45 Cd44 2.240 1_556 S
O45 C50 1.279 . S
O46 Cd43 2.297 . S
O46 C48 1.247 . S
O47 Cd43 2.439 . S
O47 C48 1.208 . S
C48 O46 1.247 . S
C48 O47 1.208 . S
C49 O54 1.247 1_556 S
C49 O55 1.208 . S
C50 O42 1.315 . S
C50 O45 1.279 . S
C51 O52 1.315 . S
C51 O53 1.279 1_554 S
O52 Cd44 2.223 1_545 S
O52 C51 1.315 . S
O53 Cd43 2.240 1_545 S
O53 C51 1.279 1_556 S
O54 Cd44 2.297 . S
O54 C49 1.247 1_554 S
O55 Cd44 2.439 1_556 S
O55 C49 1.208 . S
O56 Cd57 2.223 . S
O56 C64 1.315 . S
Cd57 O56 2.223 . S
Cd57 O60 2.297 . S
Cd57 O61 2.439 . S
Cd57 O67 2.240 1_455 S
Cd58 O59 2.240 1_554 S
Cd58 O66 2.223 1_455 S
Cd58 O68 2.297 . S
Cd58 O69 2.439 1_554 S
O59 Cd58 2.240 1_556 S
O59 C64 1.279 . S
O60 Cd57 2.297 . S
O60 C62 1.247 . S
O61 Cd57 2.439 . S
O61 C62 1.208 . S
C62 O60 1.247 . S
C62 O61 1.208 . S
C63 O68 1.247 1_556 S
C63 O69 1.208 . S
C64 O56 1.315 . S
C64 O59 1.279 . S
C65 O66 1.315 . S
C65 O67 1.279 1_554 S
O66 Cd58 2.223 1_655 S
O66 C65 1.315 . S
O67 Cd57 2.240 1_655 S
O67 C65 1.279 1_556 S
O68 Cd58 2.297 . S
O68 C63 1.247 1_554 S
O69 Cd58 2.439 1_556 S
O69 C63 1.208 . S
O70 Cd71 2.223 . S
O70 C78 1.315 . S
Cd71 O70 2.223 . S
Cd71 O74 2.297 . S
Cd71 O75 2.439 . S
Cd71 O81 2.240 . S
Cd72 O73 2.240 1_554 S
Cd72 O80 2.223 . S
Cd72 O82 2.297 . S
Cd72 O83 2.439 1_554 S
O73 Cd72 2.240 1_556 S
O73 C78 1.279 . S
O74 Cd71 2.297 . S
O74 C76 1.247 . S
O75 Cd71 2.439 . S
O75 C76 1.208 . S
C76 O74 1.247 . S
C76 O75 1.208 . S
C77 O82 1.247 1_556 S
C77 O83 1.208 . S
C78 O70 1.315 . S
C78 O73 1.279 . S
C79 O80 1.315 . S
C79 O81 1.279 1_554 S
O80 Cd72 2.223 . S
O80 C79 1.315 . S
O81 Cd71 2.240 . S
O81 C79 1.279 1_556 S
O82 Cd72 2.297 . S
O82 C77 1.247 1_554 S
O83 Cd72 2.439 1_556 S
O83 C77 1.208 . S
O84 Cd85 2.223 . S
O84 C92 1.315 . S
Cd85 O84 2.223 . S
Cd85 O88 2.297 . S
Cd85 O89 2.439 1_655 S
Cd85 O95 2.240 . S
Cd86 O87 2.240 . S
Cd86 O94 2.223 1_455 S
Cd86 O96 2.297 . S
Cd86 O97 2.439 . S
O87 Cd86 2.240 . S
O87 C92 1.279 1_455 S
O88 Cd85 2.297 . S
O88 C90 1.247 1_655 S
O89 Cd85 2.439 1_455 S
O89 C90 1.208 . S
C90 O88 1.247 1_455 S
C90 O89 1.208 . S
C91 O96 1.247 . S
C91 O97 1.208 . S
C92 O84 1.315 . S
C92 O87 1.279 1_655 S
C93 O94 1.315 . S
C93 O95 1.279 . S
O94 Cd86 2.223 1_655 S
O94 C93 1.315 . S
O95 Cd85 2.240 . S
O95 C93 1.279 . S
O96 Cd86 2.297 . S
O96 C91 1.247 . S
O97 Cd86 2.439 . S
O97 C91 1.208 . S
O98 Cd99 2.223 . S
O98 C106 1.315 . S
Cd99 O98 2.223 . S
Cd99 O102 2.297 . S
Cd99 O103 2.439 . S
Cd99 O109 2.240 . S
Cd100 O101 2.240 . S
Cd100 O108 2.223 . S
Cd100 O110 2.297 . S
Cd100 O111 2.439 . S
O101 Cd100 2.240 . S
O101 C106 1.279 . S
O102 Cd99 2.297 . S
O102 C104 1.247 . S
O103 Cd99 2.439 . S
O103 C104 1.208 . S
C104 O102 1.247 . S
C104 O103 1.208 . S
C105 O110 1.247 . S
C105 O111 1.208 . S
C106 O98 1.315 . S
C106 O101 1.279 . S
C107 O108 1.315 . S
C107 O109 1.279 . S
O108 Cd100 2.223 . S
O108 C107 1.315 . S
O109 Cd99 2.240 . S
O109 C107 1.279 . S
O110 Cd100 2.297 . S
O110 C105 1.247 . S
O111 Cd100 2.439 . S
O111 C105 1.208 . S
O112 Cd113 2.223 . S
O112 C120 1.315 . S
Cd113 O112 2.223 . S
Cd113 O116 2.297 . S
Cd113 O117 2.439 1_545 S
Cd113 O123 2.240 . S
Cd114 O115 2.240 . S
Cd114 O122 2.223 1_565 S
Cd114 O124 2.297 . S
Cd114 O125 2.439 . S
O115 Cd114 2.240 . S
O115 C120 1.279 1_565 S
O116 Cd113 2.297 . S
O116 C118 1.247 1_545 S
O117 Cd113 2.439 1_565 S
O117 C118 1.208 . S
C118 O116 1.247 1_565 S
C118 O117 1.208 . S
C119 O124 1.247 . S
C119 O125 1.208 . S
C120 O112 1.315 . S
C120 O115 1.279 1_545 S
C121 O122 1.315 . S
C121 O123 1.279 . S
O122 Cd114 2.223 1_545 S
O122 C121 1.315 . S
O123 Cd113 2.240 . S
O123 C121 1.279 . S
O124 Cd114 2.297 . S
O124 C119 1.247 . S
O125 Cd114 2.439 . S
O125 C119 1.208 . S
O126 Cd127 2.223 . S
O126 C134 1.315 . S
Cd127 O126 2.223 . S
Cd127 O130 2.297 . S
Cd127 O131 2.439 . S
Cd127 O137 2.240 . S
Cd128 O129 2.240 . S
Cd128 O136 2.223 . S
Cd128 O138 2.297 . S
Cd128 O139 2.439 . S
O129 Cd128 2.240 . S
O129 C134 1.279 . S
O130 Cd127 2.297 . S
O130 C132 1.247 . S
O131 Cd127 2.439 . S
O131 C132 1.208 . S
C132 O130 1.247 . S
C132 O131 1.208 . S
C133 O138 1.247 . S
C133 O139 1.208 . S
C134 O126 1.315 . S
C134 O129 1.279 . S
C135 O136 1.315 . S
C135 O137 1.279 . S
O136 Cd128 2.223 . S
O136 C135 1.315 . S
O137 Cd127 2.240 . S
O137 C135 1.279 . S
O138 Cd128 2.297 . S
O138 C133 1.247 . S
O139 Cd128 2.439 . S
O139 C133 1.208 . S
O140 Cd141 2.223 . S
O140 C148 1.315 . S
Cd141 O140 2.223 . S
Cd141 O144 2.297 . S
Cd141 O145 2.439 . S
Cd141 O151 2.240 . S
Cd142 O143 2.240 . S
Cd142 O150 2.223 . S
Cd142 O152 2.297 1_545 S
Cd142 O153 2.439 1_545 S
O143 Cd142 2.240 . S
O143 C148 1.279 . S
O144 Cd141 2.297 . S
O144 C146 1.247 . S
O145 Cd141 2.439 . S
O145 C146 1.208 . S
C146 O144 1.247 . S
C146 O145 1.208 . S
C147 O152 1.247 . S
C147 O153 1.208 . S
C148 O140 1.315 . S
C148 O143 1.279 . S
C149 O150 1.315 . S
C149 O151 1.279 . S
O150 Cd142 2.223 . S
O150 C149 1.315 . S
O151 Cd141 2.240 . S
O151 C149 1.279 . S
O152 Cd142 2.297 1_565 S
O152 C147 1.247 . S
O153 Cd142 2.439 1_565 S
O153 C147 1.208 . S
O154 Cd155 2.223 . S
O154 C162 1.315 . S
Cd155 O154 2.223 . S
Cd155 O158 2.297 . S
Cd155 O159 2.439 . S
Cd155 O165 2.240 . S
Cd156 O157 2.240 . S
Cd156 O164 2.223 . S
Cd156 O166 2.297 1_655 S
Cd156 O167 2.439 1_655 S
O157 Cd156 2.240 . S
O157 C162 1.279 . S
O158 Cd155 2.297 . S
O158 C160 1.247 . S
O159 Cd155 2.439 . S
O159 C160 1.208 . S
C160 O158 1.247 . S
C160 O159 1.208 . S
C161 O166 1.247 . S
C161 O167 1.208 . S
C162 O154 1.315 . S
C162 O157 1.279 . S
C163 O164 1.315 . S
C163 O165 1.279 . S
O164 Cd156 2.223 . S
O164 C163 1.315 . S
O165 Cd155 2.240 . S
O165 C163 1.279 . S
O166 Cd156 2.297 1_455 S
O166 C161 1.247 . S
O167 Cd156 2.439 1_455 S
O167 C161 1.208 . S
O168 Cd169 2.223 . S
O168 C176 1.315 . S
Cd169 O168 2.223 . S
Cd169 O172 2.297 . S
Cd169 O173 2.439 . S
Cd169 O179 2.240 . S
Cd170 O171 2.240 . S
Cd170 O178 2.223 . S
Cd170 O180 2.297 . S
Cd170 O181 2.439 . S
O171 Cd170 2.240 . S
O171 C176 1.279 . S
O172 Cd169 2.297 . S
O172 C174 1.247 . S
O173 Cd169 2.439 . S
O173 C174 1.208 . S
C174 O172 1.247 . S
C174 O173 1.208 . S
C175 O180 1.247 . S
C175 O181 1.208 . S
C176 O168 1.315 . S
C176 O171 1.279 . S
C177 O178 1.315 . S
C177 O179 1.279 . S
O178 Cd170 2.223 . S
O178 C177 1.315 . S
O179 Cd169 2.240 . S
O179 C177 1.279 . S
O180 Cd170 2.297 . S
O180 C175 1.247 . S
O181 Cd170 2.439 . S
O181 C175 1.208 . S
O182 Cd183 2.223 . S
O182 C190 1.315 . S
Cd183 O182 2.223 . S
Cd183 O186 2.297 . S
Cd183 O187 2.439 . S
Cd183 O193 2.240 . S
Cd184 O185 2.240 . S
Cd184 O192 2.223 . S
Cd184 O194 2.297 1_565 S
Cd184 O195 2.439 1_565 S
O185 Cd184 2.240 . S
O185 C190 1.279 . S
O186 Cd183 2.297 . S
O186 C188 1.247 . S
O187 Cd183 2.439 . S
O187 C188 1.208 . S
C188 O186 1.247 . S
C188 O187 1.208 . S
C189 O194 1.247 . S
C189 O195 1.208 . S
C190 O182 1.315 . S
C190 O185 1.279 . S
C191 O192 1.315 . S
C191 O193 1.279 . S
O192 Cd184 2.223 . S
O192 C191 1.315 . S
O193 Cd183 2.240 . S
O193 C191 1.279 . S
O194 Cd184 2.297 1_545 S
O194 C189 1.247 . S
O195 Cd184 2.439 1_545 S
O195 C189 1.208 . S
O196 Cd197 2.223 . S
O196 C204 1.315 . S
Cd197 O196 2.223 . S
Cd197 O200 2.297 . S
Cd197 O201 2.439 . S
Cd197 O207 2.240 . S
Cd198 O199 2.240 . S
Cd198 O206 2.223 . S
Cd198 O208 2.297 1_455 S
Cd198 O209 2.439 1_455 S
O199 Cd198 2.240 . S
O199 C204 1.279 . S
O200 Cd197 2.297 . S
O200 C202 1.247 . S
O201 Cd197 2.439 . S
O201 C202 1.208 . S
C202 O200 1.247 . S
C202 O201 1.208 . S
C203 O208 1.247 . S
C203 O209 1.208 . S
C204 O196 1.315 . S
C204 O199 1.279 . S
C205 O206 1.315 . S
C205 O207 1.279 . S
O206 Cd198 2.223 . S
O206 C205 1.315 . S
O207 Cd197 2.240 . S
O207 C205 1.279 . S
O208 Cd198 2.297 1_655 S
O208 C203 1.247 . S
O209 Cd198 2.439 1_655 S
O209 C203 1.208 . S
O210 Cd211 2.223 . S
O210 C218 1.315 . S
Cd211 O210 2.223 . S
Cd211 O214 2.297 . S
Cd211 O215 2.439 1_455 S
Cd211 O221 2.240 . S
Cd212 O213 2.240 . S
Cd212 O220 2.223 1_655 S
Cd212 O222 2.297 . S
Cd212 O223 2.439 . S
O213 Cd212 2.240 . S
O213 C218 1.279 1_655 S
O214 Cd211 2.297 . S
O214 C216 1.247 1_455 S
O215 Cd211 2.439 1_655 S
O215 C216 1.208 . S
C216 O214 1.247 1_655 S
C216 O215 1.208 . S
C217 O222 1.247 . S
C217 O223 1.208 . S
C218 O210 1.315 . S
C218 O213 1.279 1_455 S
C219 O220 1.315 . S
C219 O221 1.279 . S
O220 Cd212 2.223 1_455 S
O220 C219 1.315 . S
O221 Cd211 2.240 . S
O221 C219 1.279 . S
O222 Cd212 2.297 . S
O222 C217 1.247 . S
O223 Cd212 2.439 . S
O223 C217 1.208 . S
O224 Cd225 2.223 . S
O224 C232 1.315 . S
Cd225 O224 2.223 . S
Cd225 O228 2.297 . S
Cd225 O229 2.439 . S
Cd225 O235 2.240 . S
Cd226 O227 2.240 . S
Cd226 O234 2.223 . S
Cd226 O236 2.297 . S
Cd226 O237 2.439 . S
O227 Cd226 2.240 . S
O227 C232 1.279 . S
O228 Cd225 2.297 . S
O228 C230 1.247 . S
O229 Cd225 2.439 . S
O229 C230 1.208 . S
C230 O228 1.247 . S
C230 O229 1.208 . S
C231 O236 1.247 . S
C231 O237 1.208 . S
C232 O224 1.315 . S
C232 O227 1.279 . S
C233 O234 1.315 . S
C233 O235 1.279 . S
O234 Cd226 2.223 . S
O234 C233 1.315 . S
O235 Cd225 2.240 . S
O235 C233 1.279 . S
O236 Cd226 2.297 . S
O236 C231 1.247 . S
O237 Cd226 2.439 . S
O237 C231 1.208 . S
O238 Cd239 2.223 . S
O238 C246 1.315 . S
Cd239 O238 2.223 . S
Cd239 O242 2.297 . S
Cd239 O243 2.439 1_565 S
Cd239 O249 2.240 . S
Cd240 O241 2.240 . S
Cd240 O248 2.223 1_545 S
Cd240 O250 2.297 . S
Cd240 O251 2.439 . S
O241 Cd240 2.240 . S
O241 C246 1.279 1_545 S
O242 Cd239 2.297 . S
O242 C244 1.247 1_565 S
O243 Cd239 2.439 1_545 S
O243 C244 1.208 . S
C244 O242 1.247 1_545 S
C244 O243 1.208 . S
C245 O250 1.247 . S
C245 O251 1.208 . S
C246 O238 1.315 . S
C246 O241 1.279 1_565 S
C247 O248 1.315 . S
C247 O249 1.279 . S
O248 Cd240 2.223 1_565 S
O248 C247 1.315 . S
O249 Cd239 2.240 . S
O249 C247 1.279 . S
O250 Cd240 2.297 . S
O250 C245 1.247 . S
O251 Cd240 2.439 . S
O251 C245 1.208 . S
C7 C49 1.651 1_544 S
C21 C63 1.675 1_654 S
C77 C35 1.655 1_556 S
C91 C133 1.592 . S
C105 C147 1.659 . S
C161 C119 1.561 . S
C217 C175 1.592 . S
C231 C189 1.659 . S
C245 C203 1.561 . S
C6 C132 1.384 . S
C20 C146 1.382 . S
C160 C34 1.438 . S
C48 C174 1.384 . S
C62 C188 1.382 . S
C76 C202 1.438 . S
C90 C216 1.407 1_455 S
C104 C230 1.464 . S
C244 C118 1.353 1_545 S
C9 C64 1.240 . S
C23 C78 1.210 . S
C37 C50 1.213 . S
C51 C22 1.240 . S
C36 C65 1.210 . S
C79 C8 1.213 . S
C93 C148 1.454 . S
C162 C107 1.212 . S
C134 C121 1.443 . S
C106 C135 1.220 . S
C149 C120 1.188 . S
C163 C92 1.044 . S
C232 C177 1.220 . S
C246 C191 1.188 . S
C205 C218 1.044 . S
C190 C219 1.454 . S
C204 C233 1.212 . S
C176 C247 1.443 . S
