# Generated by pormake.
# Topology ukn, (4)-cn, num edge types: 1
# Building blocks:
#     Node 0, Type 0, BuildingBlock: AZAVOO_clean_sbu_0, # of connection points: 4
#     Node 1, Type 0, BuildingBlock: AZAVOO_clean_sbu_0, # of connection points: 4
#     Node 2, Type 0, BuildingBlock: AZAVOO_clean_sbu_0, # of connection points: 4
#     Node 3, Type 0, BuildingBlock: AZAVOO_clean_sbu_0, # of connection points: 4
#     Node 4, Type 0, BuildingBlock: AZAVOO_clean_sbu_0, # of connection points: 4
#     Node 5, Type 0, BuildingBlock: AZAVOO_clean_sbu_0, # of connection points: 4
#     Node 6, Type 0, BuildingBlock: AZAVOO_clean_sbu_0, # of connection points: 4
#     Node 7, Type 0, BuildingBlock: AZAVOO_clean_sbu_0, # of connection points: 4
#     Node 8, Type 0, BuildingBlock: AZAVOO_clean_sbu_0, # of connection points: 4
#     Node 9, Type 0, BuildingBlock: AZAVOO_clean_sbu_0, # of connection points: 4
#     Node 10, Type 0, BuildingBlock: AZAVOO_clean_sbu_0, # of connection points: 4
#     Node 11, Type 0, BuildingBlock: AZAVOO_clean_sbu_0, # of connection points: 4
#     Node 12, Type 0, BuildingBlock: AZAVOO_clean_sbu_0, # of connection points: 4
#     Node 13, Type 0, BuildingBlock: AZAVOO_clean_sbu_0, # of connection points: 4
#     Node 14, Type 0, BuildingBlock: AZAVOO_clean_sbu_0, # of connection points: 4
#     Node 15, Type 0, BuildingBlock: AZAVOO_clean_sbu_0, # of connection points: 4
#     Node 16, Type 0, BuildingBlock: AZAVOO_clean_sbu_0, # of connection points: 4
#     Node 17, Type 0, BuildingBlock: AZAVOO_clean_sbu_0, # of connection points: 4
#     Node 18, Type 0, BuildingBlock: AZAVOO_clean_sbu_0, # of connection points: 4
#     Node 19, Type 0, BuildingBlock: AZAVOO_clean_sbu_0, # of connection points: 4
#     Node 20, Type 0, BuildingBlock: AZAVOO_clean_sbu_0, # of connection points: 4
#     Node 21, Type 0, BuildingBlock: AZAVOO_clean_sbu_0, # of connection points: 4
#     Node 22, Type 0, BuildingBlock: AZAVOO_clean_sbu_0, # of connection points: 4
#     Node 23, Type 0, BuildingBlock: AZAVOO_clean_sbu_0, # of connection points: 4
#     Node 24, Type 0, BuildingBlock: AZAVOO_clean_sbu_0, # of connection points: 4
#     Node 25, Type 0, BuildingBlock: AZAVOO_clean_sbu_0, # of connection points: 4
#     Node 26, Type 0, BuildingBlock: AZAVOO_clean_sbu_0, # of connection points: 4
#     Node 27, Type 0, BuildingBlock: AZAVOO_clean_sbu_0, # of connection points: 4
#     Node 28, Type 0, BuildingBlock: AZAVOO_clean_sbu_0, # of connection points: 4
#     Node 29, Type 0, BuildingBlock: AZAVOO_clean_sbu_0, # of connection points: 4
#     Node 30, Type 0, BuildingBlock: AZAVOO_clean_sbu_0, # of connection points: 4
#     Node 31, Type 0, BuildingBlock: AZAVOO_clean_sbu_0, # of connection points: 4
#     Node 32, Type 0, BuildingBlock: AZAVOO_clean_sbu_0, # of connection points: 4
#     Node 33, Type 0, BuildingBlock: AZAVOO_clean_sbu_0, # of connection points: 4
#     Node 34, Type 0, BuildingBlock: AZAVOO_clean_sbu_0, # of connection points: 4
#     Node 35, Type 0, BuildingBlock: AZAVOO_clean_sbu_0, # of connection points: 4
#     Edge 36, Type (0, 0), BuildingBlock: XIVTED_clean_linker_0, # of connection points: 2
#     Edge 37, Type (0, 0), BuildingBlock: XIVTED_clean_linker_0, # of connection points: 2
#     Edge 38, Type (0, 0), BuildingBlock: XIVTED_clean_linker_0, # of connection points: 2
#     Edge 39, Type (0, 0), BuildingBlock: XIVTED_clean_linker_0, # of connection points: 2
#     Edge 40, Type (0, 0), BuildingBlock: XIVTED_clean_linker_0, # of connection points: 2
#     Edge 41, Type (0, 0), BuildingBlock: XIVTED_clean_linker_0, # of connection points: 2
#     Edge 42, Type (0, 0), BuildingBlock: XIVTED_clean_linker_0, # of connection points: 2
#     Edge 43, Type (0, 0), BuildingBlock: XIVTED_clean_linker_0, # of connection points: 2
#     Edge 44, Type (0, 0), BuildingBlock: XIVTED_clean_linker_0, # of connection points: 2
#     Edge 45, Type (0, 0), BuildingBlock: XIVTED_clean_linker_0, # of connection points: 2
#     Edge 46, Type (0, 0), BuildingBlock: XIVTED_clean_linker_0, # of connection points: 2
#     Edge 47, Type (0, 0), BuildingBlock: XIVTED_clean_linker_0, # of connection points: 2
#     Edge 48, Type (0, 0), BuildingBlock: XIVTED_clean_linker_0, # of connection points: 2
#     Edge 49, Type (0, 0), BuildingBlock: XIVTED_clean_linker_0, # of connection points: 2
#     Edge 50, Type (0, 0), BuildingBlock: XIVTED_clean_linker_0, # of connection points: 2
#     Edge 51, Type (0, 0), BuildingBlock: XIVTED_clean_linker_0, # of connection points: 2
#     Edge 52, Type (0, 0), BuildingBlock: XIVTED_clean_linker_0, # of connection points: 2
#     Edge 53, Type (0, 0), BuildingBlock: XIVTED_clean_linker_0, # of connection points: 2
#     Edge 54, Type (0, 0), BuildingBlock: XIVTED_clean_linker_0, # of connection points: 2
#     Edge 55, Type (0, 0), BuildingBlock: XIVTED_clean_linker_0, # of connection points: 2
#     Edge 56, Type (0, 0), BuildingBlock: XIVTED_clean_linker_0, # of connection points: 2
#     Edge 57, Type (0, 0), BuildingBlock: XIVTED_clean_linker_0, # of connection points: 2
#     Edge 58, Type (0, 0), BuildingBlock: XIVTED_clean_linker_0, # of connection points: 2
#     Edge 59, Type (0, 0), BuildingBlock: XIVTED_clean_linker_0, # of connection points: 2
#     Edge 60, Type (0, 0), BuildingBlock: XIVTED_clean_linker_0, # of connection points: 2
#     Edge 61, Type (0, 0), BuildingBlock: XIVTED_clean_linker_0, # of connection points: 2
#     Edge 62, Type (0, 0), BuildingBlock: XIVTED_clean_linker_0, # of connection points: 2
#     Edge 63, Type (0, 0), BuildingBlock: XIVTED_clean_linker_0, # of connection points: 2
#     Edge 64, Type (0, 0), BuildingBlock: XIVTED_clean_linker_0, # of connection points: 2
#     Edge 65, Type (0, 0), BuildingBlock: XIVTED_clean_linker_0, # of connection points: 2
#     Edge 66, Type (0, 0), BuildingBlock: XIVTED_clean_linker_0, # of connection points: 2
#     Edge 67, Type (0, 0), BuildingBlock: XIVTED_clean_linker_0, # of connection points: 2
#     Edge 68, Type (0, 0), BuildingBlock: XIVTED_clean_linker_0, # of connection points: 2
#     Edge 69, Type (0, 0), BuildingBlock: XIVTED_clean_linker_0, # of connection points: 2
#     Edge 70, Type (0, 0), BuildingBlock: XIVTED_clean_linker_0, # of connection points: 2
#     Edge 71, Type (0, 0), BuildingBlock: XIVTED_clean_linker_0, # of connection points: 2
#     Edge 72, Type (0, 0), BuildingBlock: XIVTED_clean_linker_0, # of connection points: 2
#     Edge 73, Type (0, 0), BuildingBlock: XIVTED_clean_linker_0, # of connection points: 2
#     Edge 74, Type (0, 0), BuildingBlock: XIVTED_clean_linker_0, # of connection points: 2
#     Edge 75, Type (0, 0), BuildingBlock: XIVTED_clean_linker_0, # of connection points: 2
#     Edge 76, Type (0, 0), BuildingBlock: XIVTED_clean_linker_0, # of connection points: 2
#     Edge 77, Type (0, 0), BuildingBlock: XIVTED_clean_linker_0, # of connection points: 2
#     Edge 78, Type (0, 0), BuildingBlock: XIVTED_clean_linker_0, # of connection points: 2
#     Edge 79, Type (0, 0), BuildingBlock: XIVTED_clean_linker_0, # of connection points: 2
#     Edge 80, Type (0, 0), BuildingBlock: XIVTED_clean_linker_0, # of connection points: 2
#     Edge 81, Type (0, 0), BuildingBlock: XIVTED_clean_linker_0, # of connection points: 2
#     Edge 82, Type (0, 0), BuildingBlock: XIVTED_clean_linker_0, # of connection points: 2
#     Edge 83, Type (0, 0), BuildingBlock: XIVTED_clean_linker_0, # of connection points: 2
#     Edge 84, Type (0, 0), BuildingBlock: XIVTED_clean_linker_0, # of connection points: 2
#     Edge 85, Type (0, 0), BuildingBlock: XIVTED_clean_linker_0, # of connection points: 2
#     Edge 86, Type (0, 0), BuildingBlock: XIVTED_clean_linker_0, # of connection points: 2
#     Edge 87, Type (0, 0), BuildingBlock: XIVTED_clean_linker_0, # of connection points: 2
#     Edge 88, Type (0, 0), BuildingBlock: XIVTED_clean_linker_0, # of connection points: 2
#     Edge 89, Type (0, 0), BuildingBlock: XIVTED_clean_linker_0, # of connection points: 2
#     Edge 90, Type (0, 0), BuildingBlock: XIVTED_clean_linker_0, # of connection points: 2
#     Edge 91, Type (0, 0), BuildingBlock: XIVTED_clean_linker_0, # of connection points: 2
#     Edge 92, Type (0, 0), BuildingBlock: XIVTED_clean_linker_0, # of connection points: 2
#     Edge 93, Type (0, 0), BuildingBlock: XIVTED_clean_linker_0, # of connection points: 2
#     Edge 94, Type (0, 0), BuildingBlock: XIVTED_clean_linker_0, # of connection points: 2
#     Edge 95, Type (0, 0), BuildingBlock: XIVTED_clean_linker_0, # of connection points: 2
#     Edge 96, Type (0, 0), BuildingBlock: XIVTED_clean_linker_0, # of connection points: 2
#     Edge 97, Type (0, 0), BuildingBlock: XIVTED_clean_linker_0, # of connection points: 2
#     Edge 98, Type (0, 0), BuildingBlock: XIVTED_clean_linker_0, # of connection points: 2
#     Edge 99, Type (0, 0), BuildingBlock: XIVTED_clean_linker_0, # of connection points: 2
#     Edge 100, Type (0, 0), BuildingBlock: XIVTED_clean_linker_0, # of connection points: 2
#     Edge 101, Type (0, 0), BuildingBlock: XIVTED_clean_linker_0, # of connection points: 2
#     Edge 102, Type (0, 0), BuildingBlock: XIVTED_clean_linker_0, # of connection points: 2
#     Edge 103, Type (0, 0), BuildingBlock: XIVTED_clean_linker_0, # of connection points: 2
#     Edge 104, Type (0, 0), BuildingBlock: XIVTED_clean_linker_0, # of connection points: 2
#     Edge 105, Type (0, 0), BuildingBlock: XIVTED_clean_linker_0, # of connection points: 2
#     Edge 106, Type (0, 0), BuildingBlock: XIVTED_clean_linker_0, # of connection points: 2
#     Edge 107, Type (0, 0), BuildingBlock: XIVTED_clean_linker_0, # of connection points: 2
# Relax obj value: 0.161
# Max RMSD: 0.147
# Mean RMSD: 0.147
data_MOF--net-ukn--node1-AZAVOO_clean_sbu_0--edge1-XIVTED_clean_linker_0
_symmetry_space_group_name_H-M    P1
_symmetry_Int_Tables_number       1
_symmetry_cell_setting            triclinic
loop_
_symmetry_equiv_pos_as_xyz
'x, y, z'
_cell_length_a     109.18079
_cell_length_b     109.10849
_cell_length_c     23.943861
_cell_angle_alpha  90.026848
_cell_angle_beta   89.9947
_cell_angle_gamma 119.94607
loop_
_atom_site_label
_atom_site_type_symbol
_atom_site_fract_x
_atom_site_fract_y
_atom_site_fract_z
_atom_type_partial_charge
Mg0 Mg 0.07557 0.27428 0.06449 0.0
O1 O 0.08139 0.28956 0.98983 0.0
O2 O 0.10177 0.30905 0.01136 0.0
Mg3 Mg 0.109 0.30629 0.09693 0.0
C4 C 0.09144 0.30199 0.9782 0.0
C5 C 0.04907 0.25174 0.99499 0.0
O6 O 0.05848 0.24972 0.9687 0.0
O7 O 0.06893 0.2877 0.11491 0.0
O8 O 0.08983 0.30687 0.13291 0.0
O9 O 0.08806 0.26509 0.02733 0.0
O10 O 0.09673 0.28324 0.08535 0.0
C11 C 0.07636 0.29996 0.13627 0.0
C12 C 0.09886 0.27498 0.05353 0.0
O13 O 0.05307 0.26101 0.03325 0.0
Mg14 Mg 0.6921 0.79557 0.02292 0.0
O15 O 0.6801 0.79372 0.94072 0.0
O16 O 0.67327 0.80992 0.94589 0.0
Mg17 Mg 0.68039 0.82174 0.02866 0.0
C18 C 0.67394 0.80004 0.91992 0.0
C19 C 0.69728 0.77375 0.96023 0.0
O20 O 0.70038 0.78328 0.92101 0.0
O21 O 0.67121 0.78415 0.07062 0.0
O22 O 0.66549 0.80116 0.0754 0.0
O23 O 0.7127 0.81236 0.98717 0.0
O24 O 0.69726 0.81652 0.03022 0.0
C25 C 0.66307 0.78871 0.08707 0.0
C26 C 0.70899 0.82134 0.00355 0.0
O27 O 0.69245 0.77521 0.0065 0.0
Mg28 Mg 0.2261 0.93657 0.07807 0.0
O29 O 0.23256 0.92737 0.00477 0.0
O30 O 0.22692 0.90527 0.02764 0.0
Mg31 Mg 0.21685 0.90033 0.11369 0.0
C32 C 0.23213 0.91569 0.99381 0.0
C33 C 0.23961 0.96245 0.99355 0.0
O34 O 0.23154 0.95291 0.95661 0.0
O35 O 0.24494 0.93932 0.12879 0.0
O36 O 0.2384 0.91685 0.14872 0.0
O37 O 0.20442 0.92788 0.04141 0.0
O38 O 0.21054 0.91639 0.10077 0.0
C39 C 0.24728 0.93009 0.15115 0.0
C40 C 0.20106 0.91639 0.06882 0.0
O41 O 0.23942 0.9588 0.04403 0.0
Mg42 Mg 0.29321 0.0954 0.92911 0.0
O43 O 0.30639 0.1048 0.00937 0.0
O44 O 0.31565 0.12827 0.00388 0.0
Mg45 Mg 0.30875 0.13386 0.92249 0.0
C46 C 0.31391 0.11725 0.02956 0.0
C47 C 0.28646 0.06526 0.90452 0.0
O48 O 0.28416 0.06949 0.85628 0.0
O49 O 0.31332 0.10268 0.87814 0.0
O50 O 0.32153 0.12595 0.8729 0.0
O51 O 0.27398 0.09396 0.96922 0.0
O52 O 0.29023 0.11263 0.92359 0.0
C53 C 0.32236 0.11498 0.86061 0.0
C54 C 0.27886 0.10689 0.95299 0.0
O55 O 0.29107 0.07394 0.945 0.0
Mg56 Mg 0.91405 0.18634 0.91749 0.0
O57 O 0.90844 0.19625 0.99115 0.0
O58 O 0.88854 0.19626 0.96883 0.0
Mg59 Mg 0.88141 0.1864 0.88292 0.0
C60 C 0.8987 0.19913 0.00239 0.0
C61 C 0.94516 0.19449 0.91801 0.0
O62 O 0.94086 0.18856 0.86875 0.0
O63 O 0.92162 0.20649 0.86663 0.0
O64 O 0.90114 0.20563 0.84756 0.0
O65 O 0.90069 0.16474 0.95431 0.0
O66 O 0.89294 0.17485 0.89508 0.0
C67 C 0.9146 0.21172 0.84469 0.0
C68 C 0.89024 0.16431 0.92699 0.0
O69 O 0.93625 0.19488 0.95103 0.0
Mg70 Mg 0.76814 0.70858 0.94492 0.0
O71 O 0.76268 0.69481 0.02443 0.0
O72 O 0.76978 0.67912 0.0073 0.0
Mg73 Mg 0.7803 0.68313 0.92245 0.0
C74 C 0.76396 0.6842 0.03868 0.0
C75 C 0.74882 0.72021 0.92585 0.0
O76 O 0.75289 0.71843 0.87632 0.0
O77 O 0.74997 0.69031 0.8983 0.0
O78 O 0.75844 0.67565 0.88454 0.0
O79 O 0.78979 0.72383 0.97868 0.0
O80 O 0.78468 0.70503 0.92782 0.0
C81 C 0.74871 0.67882 0.87936 0.0
C82 C 0.7939 0.71574 0.95574 0.0
O83 O 0.75352 0.71703 0.96879 0.0
Mg84 Mg 0.91872 0.73981 0.92818 0.0
O85 O 0.91382 0.72414 0.00057 0.0
O86 O 0.89429 0.70389 0.97838 0.0
Mg87 Mg 0.88674 0.70653 0.89324 0.0
C88 C 0.90446 0.71137 0.01164 0.0
C89 C 0.95015 0.7623 0.92715 0.0
O90 O 0.94613 0.76325 0.87638 0.0
O91 O 0.92683 0.72797 0.87528 0.0
O92 O 0.90675 0.70794 0.85634 0.0
O93 O 0.90469 0.74712 0.9671 0.0
O94 O 0.89748 0.72958 0.90668 0.0
C95 C 0.92016 0.71575 0.8529 0.0
C96 C 0.8944 0.73695 0.93969 0.0
O97 O 0.94096 0.75378 0.96147 0.0
Mg98 Mg 0.26338 0.19282 0.79155 0.0
O99 O 0.28293 0.19585 0.84018 0.0
O100 O 0.28363 0.17584 0.83024 0.0
Mg101 Mg 0.26559 0.16076 0.77297 0.0
C102 C 0.28853 0.18824 0.85067 0.0
C103 C 0.26499 0.22124 0.7694 0.0
O104 O 0.25761 0.21368 0.72637 0.0
O105 O 0.27522 0.1968 0.70839 0.0
O106 O 0.27501 0.17629 0.69996 0.0
O107 O 0.25098 0.18301 0.86896 0.0
O108 O 0.25375 0.17095 0.80066 0.0
C109 C 0.27803 0.18844 0.68115 0.0
C110 C 0.2497 0.17125 0.85087 0.0
O111 O 0.27018 0.21597 0.80268 0.0
Mg112 Mg 0.76643 0.06172 0.93795 0.0
O113 O 0.76214 0.07276 0.0105 0.0
O114 O 0.76862 0.09487 0.98487 0.0
Mg115 Mg 0.77721 0.09803 0.89628 0.0
C116 C 0.76351 0.08487 0.02057 0.0
C117 C 0.74444 0.02959 0.95608 0.0
O118 O 0.74246 0.0303 0.90233 0.0
O119 O 0.74721 0.05936 0.89059 0.0
O120 O 0.75493 0.08186 0.86651 0.0
O121 O 0.78838 0.06979 0.96958 0.0
O122 O 0.78241 0.08114 0.90885 0.0
C123 C 0.7454 0.06881 0.86699 0.0
C124 C 0.79198 0.08097 0.93975 0.0
O125 O 0.75333 0.04068 0.98183 0.0
Mg126 Mg 0.73939 0.92471 0.18971 0.0
O127 O 0.71959 0.90713 0.14623 0.0
O128 O 0.71908 0.88653 0.15594 0.0
Mg129 Mg 0.73736 0.89064 0.21413 0.0
C130 C 0.71402 0.89392 0.136 0.0
C131 C 0.72728 0.9406 0.12526 0.0
O132 O 0.72681 0.93154 0.08793 0.0
O133 O 0.72825 0.91793 0.27429 0.0
O134 O 0.72788 0.89742 0.28531 0.0
O135 O 0.75103 0.92645 0.11152 0.0
O136 O 0.74906 0.91236 0.18154 0.0
C137 C 0.72514 0.90687 0.30279 0.0
C138 C 0.7522 0.91594 0.12995 0.0
O139 O 0.73156 0.94026 0.17435 0.0
Mg140 Mg 0.07999 0.80939 0.07662 0.0
O141 O 0.08574 0.79985 0.00185 0.0
O142 O 0.10596 0.80044 0.02404 0.0
Mg143 Mg 0.11329 0.81046 0.10947 0.0
C144 C 0.09571 0.79731 0.99059 0.0
C145 C 0.05377 0.80582 0.00609 0.0
O146 O 0.06344 0.81697 0.97921 0.0
O147 O 0.07314 0.78929 0.12744 0.0
O148 O 0.09403 0.79099 0.14581 0.0
O149 O 0.09283 0.83117 0.03998 0.0
O150 O 0.10116 0.82136 0.09788 0.0
C151 C 0.08056 0.78449 0.14923 0.0
C152 C 0.1035 0.83188 0.06652 0.0
O153 O 0.05749 0.80049 0.04514 0.0
Mg154 Mg 0.22138 0.29239 0.04069 0.0
O155 O 0.22645 0.30868 0.97122 0.0
O156 O 0.22064 0.32465 -0.00079 0.0
Mg157 Mg 0.21198 0.31862 0.08757 0.0
C158 C 0.22554 0.31974 0.96263 0.0
C159 C 0.23204 0.2814 0.9431 0.0
O160 O 0.22223 0.28287 0.91734 0.0
O161 O 0.24078 0.30813 0.09026 0.0
O162 O 0.23394 0.32348 0.11669 0.0
O163 O 0.19931 0.27957 0.00795 0.0
O164 O 0.20589 0.29638 0.07154 0.0
C165 C 0.24305 0.31939 0.11536 0.0
C166 C 0.19613 0.2872 0.03963 0.0
O167 O 0.23423 0.28437 0.99476 0.0
Mg168 Mg 0.73422 0.60837 0.48595 0.0
O169 O 0.73938 0.6249 0.41702 0.0
O170 O 0.75854 0.64512 0.4422 0.0
Mg171 Mg 0.76543 0.64161 0.52742 0.0
C172 C 0.74861 0.63782 0.40778 0.0
C173 C 0.70845 0.58144 0.43568 0.0
O174 O 0.71641 0.57596 0.44852 0.0
O175 O 0.72505 0.61899 0.54037 0.0
O176 O 0.74478 0.63905 0.56263 0.0
O177 O 0.74875 0.60213 0.44595 0.0
O178 O 0.75529 0.61876 0.5104 0.0
C179 C 0.73138 0.631 0.56458 0.0
C180 C 0.75874 0.61204 0.47538 0.0
O181 O 0.71288 0.5944 0.44611 0.0
Mg182 Mg 0.39844 0.1295 0.42121 0.0
O183 O 0.37957 0.12885 0.37596 0.0
O184 O 0.38113 0.14993 0.38693 0.0
Mg185 Mg 0.39975 0.1633 0.44495 0.0
C186 C 0.37513 0.13748 0.3662 0.0
C187 C 0.38956 0.09763 0.44262 0.0
O188 O 0.39435 0.10259 0.49279 0.0
O189 O 0.38722 0.12611 0.50574 0.0
O190 O 0.38935 0.14745 0.51621 0.0
O191 O 0.41064 0.13907 0.34302 0.0
O192 O 0.4098 0.15157 0.4141 0.0
C193 C 0.38538 0.13499 0.53408 0.0
C194 C 0.41306 0.15112 0.3628 0.0
O195 O 0.38911 0.10585 0.40617 0.0
Mg196 Mg 0.87651 0.24928 0.46167 0.0
O197 O 0.88253 0.24041 0.38545 0.0
O198 O 0.87681 0.21821 0.40707 0.0
Mg199 Mg 0.86696 0.21276 0.4934 0.0
C200 C 0.88196 0.2287 0.37357 0.0
C201 C 0.89247 0.28127 0.46622 0.0
O202 O 0.88872 0.27748 0.51833 0.0
O203 O 0.89559 0.25164 0.5098 0.0
O204 O 0.88864 0.22899 0.52813 0.0
O205 O 0.85472 0.24108 0.42757 0.0
O206 O 0.86098 0.22909 0.48369 0.0
C207 C 0.89774 0.24216 0.531 0.0
C208 C 0.85137 0.22944 0.45378 0.0
O209 O 0.8892 0.27172 0.42949 0.0
Mg210 Mg 0.94807 0.40797 0.26189 0.0
O211 O 0.96375 0.41686 0.33533 0.0
O212 O 0.9811 0.43841 0.31117 0.0
Mg213 Mg 0.97649 0.44337 0.22414 0.0
C214 C 0.97535 0.4282 0.34584 0.0
C215 C 0.9353 0.38264 0.34907 0.0
O216 O 0.93791 0.39261 0.38575 0.0
O217 O 0.96345 0.4038 0.2124 0.0
O218 O 0.98027 0.42583 0.1911 0.0
O219 O 0.9361 0.41807 0.29635 0.0
O220 O 0.95387 0.42828 0.23687 0.0
C221 C 0.97522 0.41245 0.18974 0.0
C222 C 0.94471 0.42916 0.26782 0.0
O223 O 0.93812 0.38585 0.2979 0.0
Mg224 Mg 0.58498 0.51982 0.20556 0.0
O225 O 0.57858 0.52938 0.27718 0.0
O226 O 0.55834 0.52871 0.25568 0.0
Mg227 Mg 0.55188 0.51863 0.16943 0.0
C228 C 0.56864 0.53189 0.28891 0.0
C229 C 0.6134 0.52325 0.25714 0.0
O230 O 0.60751 0.50958 0.24838 0.0
O231 O 0.592 0.5397 0.1534 0.0
O232 O 0.5713 0.53828 0.13376 0.0
O233 O 0.57223 0.4984 0.24403 0.0
O234 O 0.56395 0.50751 0.18232 0.0
C235 C 0.58478 0.54464 0.13089 0.0
C236 C 0.5616 0.49736 0.21597 0.0
O237 O 0.6068 0.52965 0.24378 0.0
Mg238 Mg 0.44719 0.04638 0.22073 0.0
O239 O 0.44639 0.02695 0.26226 0.0
O240 O 0.46679 0.0278 0.24196 0.0
Mg241 Mg 0.47975 0.0464 0.18342 0.0
C242 C 0.45485 0.02209 0.26687 0.0
C243 C 0.42069 0.03637 0.29425 0.0
O244 O 0.42943 0.03538 0.3292 0.0
O245 O 0.44166 0.03517 0.13525 0.0
O246 O 0.4626 0.03702 0.11646 0.0
O247 O 0.45866 0.05848 0.29711 0.0
O248 O 0.46927 0.05691 0.22106 0.0
C249 C 0.44994 0.03339 0.10273 0.0
C250 C 0.47009 0.06055 0.27258 0.0
O251 O 0.42422 0.03892 0.24312 0.0
Mg252 Mg 0.57022 0.04455 0.29814 0.0
O253 O 0.56614 0.03094 0.37709 0.0
O254 O 0.54368 0.0133 0.37194 0.0
Mg255 Mg 0.53314 0.01669 0.29585 0.0
C256 C 0.5557 0.01958 0.3961 0.0
C257 C 0.60115 0.06809 0.30084 0.0
O258 O 0.59476 0.07481 0.28258 0.0
O259 O 0.57006 0.02724 0.24421 0.0
O260 O 0.54705 0.01108 0.2414 0.0
O261 O 0.56426 0.0587 0.34257 0.0
O262 O 0.54917 0.03934 0.29698 0.0
C263 C 0.55987 0.01545 0.22727 0.0
C264 C 0.55138 0.04996 0.32771 0.0
O265 O 0.59383 0.05494 0.31116 0.0
Mg266 Mg 0.94278 0.54288 0.25115 0.0
O267 O 0.95893 0.55022 0.32277 0.0
O268 O 0.97642 0.54621 0.2989 0.0
Mg269 Mg 0.97151 0.53644 0.21207 0.0
C270 C 0.97061 0.55068 0.33333 0.0
C271 C 0.93051 0.55522 0.34052 0.0
O272 O 0.93282 0.54724 0.37508 0.0
O273 O 0.95757 0.56225 0.19957 0.0
O274 O 0.97472 0.5575 0.17825 0.0
O275 O 0.93154 0.52106 0.28802 0.0
O276 O 0.9488 0.52849 0.22611 0.0
C277 C 0.96934 0.56554 0.1765 0.0
C278 C 0.94013 0.51864 0.25897 0.0
O279 O 0.9331 0.55513 0.28886 0.0
Mg280 Mg 0.43831 0.39378 0.23371 0.0
O281 O 0.43303 0.403 0.31115 0.0
O282 O 0.43936 0.42536 0.28926 0.0
Mg283 Mg 0.44905 0.43075 0.20276 0.0
C284 C 0.4341 0.41493 0.32306 0.0
C285 C 0.42831 0.36524 0.30076 0.0
O286 O 0.44049 0.37275 0.32632 0.0
O287 O 0.41953 0.3923 0.18544 0.0
O288 O 0.42734 0.41515 0.16731 0.0
O289 O 0.46044 0.40168 0.26628 0.0
O290 O 0.45418 0.41382 0.21138 0.0
C291 C 0.41789 0.40211 0.16405 0.0
C292 C 0.46387 0.41333 0.23997 0.0
O293 O 0.42455 0.37112 0.26412 0.0
Mg294 Mg 0.37108 0.22961 0.29009 0.0
O295 O 0.3583 0.22204 0.2073 0.0
O296 O 0.34811 0.19841 0.20889 0.0
Mg297 Mg 0.35359 0.19086 0.28866 0.0
C298 C 0.3505 0.20987 0.18503 0.0
C299 C 0.38232 0.25985 0.3229 0.0
O300 O 0.38582 0.25399 0.36314 0.0
O301 O 0.35072 0.22267 0.33937 0.0
O302 O 0.34142 0.19919 0.3396 0.0
O303 O 0.39019 0.23024 0.25118 0.0
O304 O 0.37272 0.21149 0.29156 0.0
C305 C 0.34112 0.21031 0.35418 0.0
C306 C 0.38444 0.21702 0.26455 0.0
O307 O 0.37514 0.25216 0.28203 0.0
Mg308 Mg 0.7294 0.12445 0.47815 0.0
O309 O 0.73658 0.11566 0.40616 0.0
O310 O 0.75673 0.11645 0.43047 0.0
Mg311 Mg 0.76233 0.12566 0.51811 0.0
C312 C 0.7468 0.11349 0.39561 0.0
C313 C 0.70289 0.12183 0.41351 0.0
O314 O 0.71059 0.13567 0.41023 0.0
O315 O 0.72204 0.10422 0.52837 0.0
O316 O 0.74269 0.1058 0.55038 0.0
O317 O 0.74246 0.14619 0.44266 0.0
O318 O 0.75016 0.13659 0.50461 0.0
C319 C 0.72919 0.09929 0.55143 0.0
C320 C 0.75282 0.14698 0.47187 0.0
O321 O 0.70782 0.11491 0.43802 0.0
Mg322 Mg 0.88453 0.63989 0.47113 0.0
O323 O 0.89046 0.65469 0.39478 0.0
O324 O 0.88454 0.67105 0.41607 0.0
Mg325 Mg 0.87465 0.66667 0.50232 0.0
C326 C 0.88977 0.66575 0.38272 0.0
C327 C 0.8984 0.62179 0.47212 0.0
O328 O 0.89334 0.62041 0.52296 0.0
O329 O 0.90356 0.65667 0.51941 0.0
O330 O 0.89632 0.67217 0.53739 0.0
O331 O 0.86286 0.62621 0.43679 0.0
O332 O 0.86882 0.64441 0.49294 0.0
C333 C 0.90553 0.66825 0.5406 0.0
C334 C 0.85934 0.63441 0.4627 0.0
O335 O 0.89702 0.62998 0.43821 0.0
Mg336 Mg 0.42703 0.94498 0.71508 0.0
O337 O 0.43382 0.95772 0.63284 0.0
O338 O 0.45726 0.972 0.63668 0.0
Mg339 Mg 0.46528 0.96906 0.72074 0.0
C340 C 0.44547 0.96711 0.61117 0.0
C341 C 0.39455 0.93011 0.73105 0.0
O342 O 0.39827 0.92731 0.77946 0.0
O343 O 0.42921 0.96416 0.76204 0.0
O344 O 0.45271 0.97798 0.76545 0.0
O345 O 0.43115 0.92841 0.67911 0.0
O346 O 0.44707 0.94757 0.72345 0.0
C347 C 0.44025 0.97553 0.77714 0.0
C348 C 0.44407 0.93632 0.69564 0.0
O349 O 0.40405 0.9374 0.69543 0.0
Mg350 Mg 0.04936 0.46017 0.80108 0.0
O351 O 0.03306 0.45273 0.73001 0.0
O352 O 0.01536 0.45625 0.75563 0.0
Mg353 Mg 0.02033 0.46585 0.84271 0.0
C354 C 0.02122 0.45202 0.72041 0.0
C355 C 0.06413 0.45135 0.71076 0.0
O356 O 0.06336 0.46125 0.68239 0.0
O357 O 0.03499 0.4405 0.85194 0.0
O358 O 0.01769 0.4449 0.87499 0.0
O359 O 0.0602 0.48199 0.76517 0.0
O360 O 0.04306 0.47425 0.82778 0.0
C361 C 0.02323 0.437 0.87564 0.0
C362 C 0.05157 0.4842 0.79484 0.0
O363 O 0.05948 0.44869 0.76047 0.0
Mg364 Mg 0.55681 0.59062 0.74429 0.0
O365 O 0.56104 0.57968 0.67063 0.0
O366 O 0.55457 0.55761 0.69728 0.0
Mg367 Mg 0.54598 0.55421 0.78571 0.0
C368 C 0.55961 0.56751 0.66111 0.0
C369 C 0.57754 0.62293 0.73106 0.0
O370 O 0.57862 0.62148 0.785 0.0
O371 O 0.57608 0.59297 0.79214 0.0
O372 O 0.56802 0.5704 0.81621 0.0
O373 O 0.53463 0.58233 0.71355 0.0
O374 O 0.54098 0.57117 0.77347 0.0
C375 C 0.57766 0.5834 0.81616 0.0
C376 C 0.53124 0.5712 0.74345 0.0
O377 O 0.56968 0.61204 0.70198 0.0
Mg378 Mg 0.5857 0.73377 0.52898 0.0
O379 O 0.60603 0.75048 0.57287 0.0
O380 O 0.60739 0.77151 0.56371 0.0
Mg381 Mg 0.58924 0.76861 0.50738 0.0
C382 C 0.61206 0.76373 0.58318 0.0
C383 C 0.59619 0.71573 0.58948 0.0
O384 O 0.59733 0.72461 0.62895 0.0
O385 O 0.59668 0.74049 0.4438 0.0
O386 O 0.5978 0.7614 0.43468 0.0
O387 O 0.57455 0.73249 0.60833 0.0
O388 O 0.57698 0.74693 0.53903 0.0
C389 C 0.60003 0.75172 0.41599 0.0
C390 C 0.57386 0.74333 0.59057 0.0
O391 O 0.59223 0.71707 0.54104 0.0
Mg392 Mg 0.26773 0.87781 0.53655 0.0
O393 O 0.26116 0.88717 0.60886 0.0
O394 O 0.2411 0.88661 0.58443 0.0
Mg395 Mg 0.23486 0.87695 0.49784 0.0
C396 C 0.2511 0.88964 0.61904 0.0
C397 C 0.29241 0.88545 0.62382 0.0
O398 O 0.28199 0.87804 0.65869 0.0
O399 O 0.27519 0.89797 0.48578 0.0
O400 O 0.25456 0.89649 0.46429 0.0
O401 O 0.25454 0.8561 0.57253 0.0
O402 O 0.24683 0.8659 0.51163 0.0
C403 C 0.26804 0.90292 0.46276 0.0
C404 C 0.24416 0.85542 0.54382 0.0
O405 O 0.28966 0.88685 0.57347 0.0
Mg406 Mg 0.11425 0.37428 0.52129 0.0
O407 O 0.10796 0.35856 0.59451 0.0
O408 O 0.11286 0.34174 0.56908 0.0
Mg409 Mg 0.12233 0.34666 0.48198 0.0
C410 C 0.10813 0.34713 0.60428 0.0
C411 C 0.10395 0.39532 0.53549 0.0
O412 O 0.11153 0.39966 0.48957 0.0
O413 O 0.09471 0.35864 0.47232 0.0
O414 O 0.10084 0.34251 0.44991 0.0
O415 O 0.13613 0.38674 0.55515 0.0
O416 O 0.1292 0.3691 0.49518 0.0
C417 C 0.09209 0.34705 0.44913 0.0
C418 C 0.13903 0.37846 0.52635 0.0
O419 O 0.10258 0.3844 0.56005 0.0
Mg420 Mg 0.25933 0.39135 0.50013 0.0
O421 O 0.25212 0.37565 0.57326 0.0
O422 O 0.23194 0.35632 0.54907 0.0
Mg423 Mg 0.2263 0.35966 0.46115 0.0
C424 C 0.24184 0.36331 0.58399 0.0
C425 C 0.28503 0.4152 0.56664 0.0
O426 O 0.27658 0.42047 0.57131 0.0
O427 O 0.26662 0.37822 0.45124 0.0
O428 O 0.24591 0.35923 0.42943 0.0
O429 O 0.24652 0.40033 0.53466 0.0
O430 O 0.23854 0.38275 0.4738 0.0
C431 C 0.2594 0.3661 0.42851 0.0
C432 C 0.23606 0.39069 0.50612 0.0
O433 O 0.28088 0.4037 0.54017 0.0
Mg434 Mg 0.63384 0.86459 0.70056 0.0
O435 O 0.64585 0.86505 0.78065 0.0
O436 O 0.65233 0.84868 0.77114 0.0
Mg437 Mg 0.64469 0.83784 0.6866 0.0
C438 C 0.6519 0.85841 0.79924 0.0
C439 C 0.63159 0.89173 0.68903 0.0
O440 O 0.62998 0.8875 0.63679 0.0
O441 O 0.65468 0.87618 0.65196 0.0
O442 O 0.65975 0.85878 0.64287 0.0
O443 O 0.61316 0.84757 0.73526 0.0
O444 O 0.62818 0.84359 0.68784 0.0
C445 C 0.6625 0.87144 0.63346 0.0
C446 C 0.61657 0.83864 0.71546 0.0
O447 O 0.63432 0.88499 0.72561 0.0
Mg448 Mg 0.1222 0.75001 0.53643 0.0
O449 O 0.11531 0.75922 0.60849 0.0
O450 O 0.12069 0.78115 0.58424 0.0
Mg451 Mg 0.13099 0.78599 0.49855 0.0
C452 C 0.1155 0.77082 0.61851 0.0
C453 C 0.1159 0.72068 0.57251 0.0
O454 O 0.1286 0.72616 0.55065 0.0
O455 O 0.10322 0.7466 0.48454 0.0
O456 O 0.10967 0.76901 0.46345 0.0
O457 O 0.14372 0.75908 0.57394 0.0
O458 O 0.13759 0.77023 0.51286 0.0
C459 C 0.10088 0.75575 0.46124 0.0
C460 C 0.14703 0.77044 0.54573 0.0
O461 O 0.10985 0.72805 0.57354 0.0
Mg462 Mg 0.04452 0.59535 0.79027 0.0
O463 O 0.02894 0.58626 0.7169 0.0
O464 O 0.01135 0.56489 0.74153 0.0
Mg465 Mg 0.01574 0.56025 0.82954 0.0
C466 C 0.01731 0.57497 0.70639 0.0
C467 C 0.06756 0.62287 0.73394 0.0
O468 O 0.07469 0.61622 0.74099 0.0
O469 O 0.02934 0.60012 0.83851 0.0
O470 O 0.0124 0.5782 0.8608 0.0
O471 O 0.05615 0.58481 0.75756 0.0
O472 O 0.03847 0.57507 0.81765 0.0
C473 C 0.01755 0.5916 0.86142 0.0
C474 C 0.0475 0.57392 0.78686 0.0
O475 O 0.05477 0.61699 0.74976 0.0
Mg476 Mg 0.41013 0.46485 0.77465 0.0
O477 O 0.41569 0.45432 0.70378 0.0
O478 O 0.43548 0.45413 0.72585 0.0
Mg479 Mg 0.44249 0.4646 0.81121 0.0
C480 C 0.42523 0.45116 0.69267 0.0
C481 C 0.38122 0.46243 0.74164 0.0
O482 O 0.38644 0.47437 0.76955 0.0
O483 O 0.40228 0.44505 0.82772 0.0
O484 O 0.42259 0.44565 0.84787 0.0
O485 O 0.42343 0.48595 0.73525 0.0
O486 O 0.43126 0.47647 0.79734 0.0
C487 C 0.40913 0.43978 0.8508 0.0
C488 C 0.4339 0.48666 0.76338 0.0
O489 O 0.38844 0.45628 0.73692 0.0
Mg490 Mg 0.55032 0.93871 0.80099 0.0
O491 O 0.55463 0.95744 0.74418 0.0
O492 O 0.53859 0.96384 0.76466 0.0
Mg493 Mg 0.52411 0.94934 0.83347 0.0
C494 C 0.54917 0.96531 0.73654 0.0
C495 C 0.57817 0.93775 0.8131 0.0
O496 O 0.57348 0.93521 0.86475 0.0
O497 O 0.55993 0.95346 0.87676 0.0
O498 O 0.54268 0.9584 0.89435 0.0
O499 O 0.53526 0.9245 0.73551 0.0
O500 O 0.52916 0.93313 0.80713 0.0
C501 C 0.55459 0.95947 0.90575 0.0
C502 C 0.52577 0.92623 0.7609 0.0
O503 O 0.57138 0.94048 0.77677 0.0
H504 H 0.10773 0.26115 0.98234 0.0
H505 H 0.18636 0.30085 0.10552 0.0
H506 H 0.1227 0.29332 0.11025 0.0
H507 H 0.17351 0.2703 0.97191 0.0
H508 H 0.163 0.29834 0.10533 0.0
H509 H 0.1316 0.26437 0.97553 0.0
C510 C 0.11603 0.26893 0.00872 0.0
C511 C 0.11322 0.27702 0.04676 0.0
C512 C 0.16525 0.29221 0.07576 0.0
C513 C 0.14044 0.28071 0.03936 0.0
C514 C 0.17867 0.29369 0.0757 0.0
C515 C 0.18197 0.28586 0.03838 0.0
C516 C 0.15493 0.28274 0.03849 0.0
C517 C 0.17142 0.27657 0.00134 0.0
C518 C 0.12964 0.27077 0.0048 0.0
C519 C 0.12436 0.28693 0.07997 0.0
N520 N 0.15834 0.27523 0.0024 0.0
N521 N 0.13742 0.28845 0.07558 0.0
H522 H 0.70156 0.84115 0.97869 0.0
H523 H 0.76225 0.89784 0.14662 0.0
H524 H 0.73755 0.83626 0.01508 0.0
H525 H 0.74081 0.90973 0.02563 0.0
H526 H 0.75498 0.87598 0.09434 0.0
H527 H 0.71648 0.86675 0.98965 0.0
C528 C 0.71268 0.84552 0.98793 0.0
C529 C 0.71834 0.83666 0.99682 0.0
C530 C 0.75228 0.8836 0.07818 0.0
C531 C 0.73534 0.86577 0.01065 0.0
C532 C 0.75645 0.89607 0.10794 0.0
C533 C 0.75204 0.90551 0.09054 0.0
C534 C 0.74328 0.88042 0.03192 0.0
C535 C 0.74445 0.90272 0.04038 0.0
C536 C 0.72121 0.86012 0.99384 0.0
C537 C 0.73283 0.84281 0.00805 0.0
N538 N 0.73992 0.8902 0.01368 0.0
N539 N 0.74079 0.857 0.01627 0.0
H540 H 0.11292 0.85516 0.99793 0.0
H541 H 0.19107 0.89159 0.1256 0.0
H542 H 0.12703 0.83663 0.12362 0.0
H543 H 0.17883 0.91205 0.00113 0.0
H544 H 0.16774 0.87086 0.12022 0.0
H545 H 0.13698 0.87566 0.99382 0.0
C546 C 0.12107 0.85534 0.02431 0.0
C547 C 0.11796 0.84411 0.06096 0.0
C548 C 0.17011 0.87982 0.09374 0.0
C549 C 0.14537 0.86744 0.05658 0.0
C550 C 0.18352 0.89169 0.09661 0.0
C551 C 0.18698 0.90358 0.06353 0.0
C552 C 0.15993 0.87978 0.05781 0.0
C553 C 0.17661 0.9031 0.02737 0.0
C554 C 0.13477 0.86703 0.02194 0.0
C555 C 0.1289 0.84491 0.09428 0.0
N556 N 0.1635 0.89139 0.02558 0.0
N557 N 0.14205 0.85635 0.09134 0.0
H558 H 0.25056 0.09685 0.94663 0.0
H559 H 0.2617 0.17478 0.9533 0.0
H560 H 0.29009 0.13449 0.98357 0.0
H561 H 0.23509 0.14282 0.83442 0.0
H562 H 0.26577 0.15727 0.00121 0.0
H563 H 0.239 0.11125 0.94262 0.0
C564 C 0.25668 0.10806 0.95568 0.0
C565 C 0.27131 0.11461 0.96432 0.0
C566 C 0.2586 0.15399 0.96595 0.0
C567 C 0.25824 0.13094 0.96063 0.0
C568 C 0.25616 0.16391 0.93895 0.0
C569 C 0.24809 0.16017 0.88986 0.0
C570 C 0.25271 0.14027 0.94402 0.0
C571 C 0.24141 0.14605 0.87215 0.0
C572 C 0.25012 0.11624 0.95322 0.0
C573 C 0.27884 0.12915 0.97556 0.0
N574 N 0.244 0.13661 0.89886 0.0
N575 N 0.27224 0.13688 0.97287 0.0
H576 H 0.81411 0.08517 0.0073 0.0
H577 H 0.86702 0.16005 0.86871 0.0
H578 H 0.80276 0.10496 0.87684 0.0
H579 H 0.88017 0.14123 0.99683 0.0
H580 H 0.84313 0.14019 0.87524 0.0
H581 H 0.83809 0.10573 0.00772 0.0
C582 C 0.81663 0.09385 0.97898 0.0
C583 C 0.80639 0.09337 0.94216 0.0
C584 C 0.85118 0.14037 0.90222 0.0
C585 C 0.83372 0.11683 0.94237 0.0
C586 C 0.86487 0.1518 0.8987 0.0
C587 C 0.87562 0.15238 0.93255 0.0
C588 C 0.84815 0.12933 0.93967 0.0
C589 C 0.87218 0.14121 0.96998 0.0
C590 C 0.8303 0.10556 0.97925 0.0
C591 C 0.81023 0.10489 0.90632 0.0
N592 N 0.85872 0.1301 0.97249 0.0
N593 N 0.82356 0.1161 0.9073 0.0
H594 H 0.81606 0.73647 0.01658 0.0
H595 H 0.87136 0.71702 0.88351 0.0
H596 H 0.8054 0.70164 0.90407 0.0
H597 H 0.88354 0.74918 0.01031 0.0
H598 H 0.84705 0.71146 0.89264 0.0
H599 H 0.84068 0.74152 0.01723 0.0
C600 C 0.81884 0.72982 0.99249 0.0
C601 C 0.80862 0.71858 0.96039 0.0
C602 C 0.85496 0.71968 0.9189 0.0
C603 C 0.83666 0.72433 0.96065 0.0
C604 C 0.86892 0.72284 0.91384 0.0
C605 C 0.87954 0.7335 0.94661 0.0
C606 C 0.85147 0.72731 0.95665 0.0
C607 C 0.87567 0.74085 0.98434 0.0
C608 C 0.83288 0.73271 0.99287 0.0
C609 C 0.81282 0.71033 0.92986 0.0
N610 N 0.86192 0.73765 0.98823 0.0
N611 N 0.82647 0.71341 0.9306 0.0
H612 H 0.84856 0.64882 0.51792 0.0
H613 H 0.76995 0.60125 0.40035 0.0
H614 H 0.83723 0.61517 0.39853 0.0
H615 H 0.78159 0.6316 0.53418 0.0
H616 H 0.7948 0.60755 0.39172 0.0
H617 H 0.82437 0.64424 0.51598 0.0
C618 C 0.84103 0.64055 0.49078 0.0
C619 C 0.84494 0.63236 0.45836 0.0
C620 C 0.79189 0.61287 0.42269 0.0
C621 C 0.81707 0.6269 0.45654 0.0
C622 C 0.77772 0.60929 0.42764 0.0
C623 C 0.77369 0.61595 0.4679 0.0
C624 C 0.80204 0.62319 0.45822 0.0
C625 C 0.78419 0.62627 0.50219 0.0
C626 C 0.82716 0.63789 0.48991 0.0
C627 C 0.83465 0.62171 0.42432 0.0
N628 N 0.79785 0.62955 0.49661 0.0
N629 N 0.82114 0.61923 0.42448 0.0
H630 H 0.42838 0.17946 0.38121 0.0
H631 H 0.37215 0.18932 0.23342 0.0
H632 H 0.40042 0.14846 0.26212 0.0
H633 H 0.4125 0.22573 0.27206 0.0
H634 H 0.38303 0.17445 0.23689 0.0
H635 H 0.42443 0.19725 0.33561 0.0
C636 C 0.42185 0.17656 0.34406 0.0
C637 C 0.41472 0.16253 0.3253 0.0
C638 C 0.38961 0.18575 0.24316 0.0
C639 C 0.40966 0.18257 0.2746 0.0
C640 C 0.38337 0.1942 0.24161 0.0
C641 C 0.39142 0.20869 0.25337 0.0
C642 C 0.4039 0.19179 0.25822 0.0
C643 C 0.40595 0.21457 0.26291 0.0
C644 C 0.41954 0.18669 0.31818 0.0
C645 C 0.4062 0.15922 0.27754 0.0
N646 N 0.41168 0.20603 0.26665 0.0
N647 N 0.40355 0.16908 0.25478 0.0
H648 H 0.82893 0.22589 0.38956 0.0
H649 H 0.77588 0.15188 0.53272 0.0
H650 H 0.84104 0.20468 0.51112 0.0
H651 H 0.76298 0.16944 0.39882 0.0
H652 H 0.79988 0.17139 0.52381 0.0
H653 H 0.80482 0.20554 0.39033 0.0
C654 C 0.82656 0.21693 0.416 0.0
C655 C 0.83703 0.21698 0.45026 0.0
C656 C 0.79186 0.17099 0.49605 0.0
C657 C 0.80955 0.1938 0.45162 0.0
C658 C 0.77811 0.15978 0.50102 0.0
C659 C 0.7674 0.15893 0.46611 0.0
C660 C 0.79501 0.18158 0.45616 0.0
C661 C 0.77093 0.16968 0.42653 0.0
C662 C 0.81282 0.20533 0.41644 0.0
C663 C 0.83338 0.20511 0.48374 0.0
N664 N 0.78446 0.18061 0.42266 0.0
N665 N 0.81996 0.19406 0.48374 0.0
H666 H 0.9257 0.49662 0.33299 0.0
H667 H 0.96008 0.45285 0.20567 0.0
H668 H 0.95541 0.51031 0.19625 0.0
H669 H 0.92832 0.43583 0.33499 0.0
H670 H 0.95914 0.47453 0.20698 0.0
H671 H 0.92687 0.47471 0.33886 0.0
C672 C 0.93249 0.49506 0.30441 0.0
C673 C 0.94057 0.50537 0.26437 0.0
C674 C 0.95238 0.46612 0.23535 0.0
C675 C 0.94195 0.48048 0.27085 0.0
C676 C 0.95298 0.4537 0.23485 0.0
C677 C 0.94433 0.4425 0.27055 0.0
C678 C 0.943 0.46744 0.27162 0.0
C679 C 0.93518 0.44422 0.30679 0.0
C680 C 0.93316 0.48258 0.3078 0.0
C681 C 0.94914 0.50279 0.2283 0.0
N682 N 0.93472 0.45648 0.30638 0.0
N683 N 0.9496 0.49065 0.23245 0.0
H684 H 0.53783 0.49216 0.15951 0.0
H685 H 0.48672 0.41744 0.30374 0.0
H686 H 0.55241 0.47478 0.28815 0.0
H687 H 0.47396 0.43755 0.1797 0.0
H688 H 0.5107 0.43818 0.30174 0.0
H689 H 0.51418 0.47213 0.16957 0.0
C690 C 0.53605 0.48418 0.19031 0.0
C691 C 0.54714 0.48523 0.22328 0.0
C692 C 0.50257 0.43803 0.27535 0.0
C693 C 0.5199 0.46195 0.23459 0.0
C694 C 0.48891 0.42622 0.27648 0.0
C695 C 0.47827 0.42579 0.24214 0.0
C696 C 0.50555 0.44939 0.23946 0.0
C697 C 0.4817 0.43743 0.20748 0.0
C698 C 0.52249 0.47266 0.19593 0.0
C699 C 0.54415 0.4744 0.26191 0.0
N700 N 0.49499 0.44867 0.20699 0.0
N701 N 0.5308 0.46316 0.26645 0.0
H702 H 0.55342 0.07557 0.34398 0.0
H703 H 0.47026 0.04497 0.36028 0.0
H704 H 0.52318 0.03088 0.34123 0.0
H705 H 0.49763 0.07989 0.254 0.0
H706 H 0.49084 0.04341 0.39208 0.0
H707 H 0.53384 0.08048 0.3496 0.0
C708 C 0.54268 0.06679 0.34601 0.0
C709 C 0.53986 0.0528 0.34127 0.0
C710 C 0.49236 0.05173 0.36339 0.0
C711 C 0.51761 0.05836 0.34883 0.0
C712 C 0.4807 0.05273 0.34575 0.0
C713 C 0.48238 0.06265 0.30487 0.0
C714 C 0.50573 0.06095 0.3409 0.0
C715 C 0.49601 0.0722 0.28592 0.0
C716 C 0.53157 0.06962 0.34908 0.0
C717 C 0.52577 0.04181 0.34385 0.0
N718 N 0.50721 0.07108 0.30393 0.0
N719 N 0.51513 0.04482 0.3472 0.0
H720 H 0.47116 0.95359 0.66117 0.0
H721 H 0.49916 0.90916 0.79857 0.0
H722 H 0.44179 0.91046 0.70713 0.0
H723 H 0.52273 0.93742 0.66433 0.0
H724 H 0.47777 0.90888 0.76543 0.0
H725 H 0.49028 0.948 0.66063 0.0
C726 C 0.46874 0.9429 0.67038 0.0
C727 C 0.45499 0.93249 0.6849 0.0
C728 C 0.48752 0.9148 0.74218 0.0
C729 C 0.47672 0.92611 0.68527 0.0
C730 C 0.49967 0.91493 0.76101 0.0
C731 C 0.51255 0.92317 0.73352 0.0
C732 C 0.48847 0.92344 0.69706 0.0
C733 C 0.51286 0.93076 0.68588 0.0
C734 C 0.4796 0.93969 0.66963 0.0
C735 C 0.4523 0.91875 0.69578 0.0
N736 N 0.50104 0.931 0.66983 0.0
N737 N 0.46316 0.91601 0.69716 0.0
H738 H 0.03194 0.55034 0.84976 0.0
H739 H 0.06595 0.50631 0.7217 0.0
H740 H 0.06354 0.56689 0.71975 0.0
H741 H 0.03592 0.49221 0.85741 0.0
H742 H 0.06475 0.52816 0.71639 0.0
H743 H 0.0326 0.52845 0.84856 0.0
C744 C 0.03895 0.54934 0.82052 0.0
C745 C 0.04764 0.56046 0.78457 0.0
C746 C 0.05839 0.52023 0.74711 0.0
C747 C 0.04861 0.53534 0.78352 0.0
C748 C 0.05907 0.50777 0.75017 0.0
C749 C 0.05095 0.49737 0.78983 0.0
C750 C 0.04954 0.52224 0.78401 0.0
C751 C 0.04225 0.49982 0.82575 0.0
C752 C 0.03937 0.53682 0.82004 0.0
C753 C 0.05665 0.55857 0.74816 0.0
N754 N 0.0418 0.51198 0.82197 0.0
N755 N 0.05693 0.54623 0.7486 0.0
H756 H 0.45753 0.49147 0.82029 0.0
H757 H 0.50878 0.56613 0.6758 0.0
H758 H 0.44336 0.50926 0.69174 0.0
H759 H 0.52097 0.54778 0.80914 0.0
H760 H 0.48504 0.54517 0.67698 0.0
H761 H 0.48123 0.51169 0.81208 0.0
C762 C 0.45942 0.49958 0.78993 0.0
C763 C 0.44844 0.49863 0.75654 0.0
C764 C 0.49297 0.54574 0.70572 0.0
C765 C 0.47564 0.52203 0.74736 0.0
C766 C 0.5065 0.55769 0.70508 0.0
C767 C 0.51691 0.55867 0.74214 0.0
C768 C 0.48989 0.53476 0.74375 0.0
C769 C 0.51338 0.54745 0.77929 0.0
C770 C 0.47298 0.51119 0.7854 0.0
C771 C 0.45153 0.50957 0.71832 0.0
N772 N 0.5002 0.53601 0.77914 0.0
N773 N 0.46486 0.52086 0.71485 0.0
H774 H 0.58802 0.82379 0.70247 0.0
H775 H 0.58656 0.74999 0.69243 0.0
H776 H 0.6239 0.81867 0.73843 0.0
H777 H 0.56366 0.7614 0.57669 0.0
H778 H 0.59429 0.77225 0.74243 0.0
H779 H 0.57347 0.79806 0.68945 0.0
C780 C 0.5927 0.81719 0.70928 0.0
C781 C 0.60718 0.82328 0.72062 0.0
C782 C 0.58717 0.76962 0.70727 0.0
C783 C 0.59069 0.79409 0.70659 0.0
C784 C 0.58263 0.75688 0.67905 0.0
C785 C 0.57451 0.75393 0.63029 0.0
C786 C 0.58331 0.77929 0.68706 0.0
C787 C 0.56996 0.76335 0.61406 0.0
C788 C 0.58444 0.80258 0.7016 0.0
C789 C 0.61282 0.81436 0.72864 0.0
N790 N 0.57455 0.77572 0.64206 0.0
N791 N 0.60458 0.80019 0.72108 0.0
H792 H 0.16885 0.77496 0.61567 0.0
H793 H 0.22112 0.85077 0.48323 0.0
H794 H 0.15728 0.79507 0.48727 0.0
H795 H 0.23407 0.83233 0.61362 0.0
H796 H 0.19736 0.83067 0.48824 0.0
H797 H 0.19246 0.79602 0.61944 0.0
C798 C 0.17123 0.78383 0.5886 0.0
C799 C 0.16106 0.78327 0.55118 0.0
C800 C 0.20534 0.83099 0.51608 0.0
C801 C 0.18798 0.80728 0.55513 0.0
C802 C 0.21895 0.84255 0.51342 0.0
C803 C 0.22962 0.84331 0.54834 0.0
C804 C 0.20229 0.81997 0.55368 0.0
C805 C 0.22616 0.83218 0.58594 0.0
C806 C 0.1847 0.79583 0.59077 0.0
C807 C 0.16471 0.79503 0.51704 0.0
N808 N 0.21277 0.82091 0.58753 0.0
N809 N 0.17786 0.80651 0.51974 0.0
H810 H 0.21259 0.37242 0.44714 0.0
H811 H 0.16161 0.39591 0.59267 0.0
H812 H 0.22656 0.4037 0.57836 0.0
H813 H 0.14852 0.36381 0.46506 0.0
H814 H 0.18523 0.39849 0.59138 0.0
H815 H 0.18882 0.36869 0.45634 0.0
C816 C 0.21065 0.37844 0.47826 0.0
C817 C 0.22158 0.38833 0.51225 0.0
C818 C 0.17714 0.39082 0.56399 0.0
C819 C 0.1943 0.38424 0.52257 0.0
C820 C 0.16366 0.38934 0.56473 0.0
C821 C 0.15307 0.37961 0.52898 0.0
C822 C 0.18001 0.38255 0.52709 0.0
C823 C 0.1563 0.37138 0.4936 0.0
C824 C 0.19704 0.37633 0.48339 0.0
C825 C 0.21843 0.39596 0.55129 0.0
N826 N 0.16948 0.37308 0.49343 0.0
N827 N 0.20506 0.39378 0.55533 0.0
H828 H 0.03634 0.23165 0.91293 0.0
H829 H 0.95805 0.21036 0.01094 0.0
H830 H 0.02702 0.2515 0.04973 0.0
H831 H 0.96689 0.19535 0.85771 0.0
H832 H 0.98335 0.22379 0.03037 0.0
H833 H 0.01093 0.21679 0.8957 0.0
C834 C 0.02897 0.2329 0.93926 0.0
C835 C 0.03382 0.24286 0.98274 0.0
C836 C 0.97976 0.21753 0.99256 0.0
C837 C 0.0048 0.22585 0.96357 0.0
C838 C 0.9653 0.2098 0.98155 0.0
C839 C 0.96034 0.20178 0.93247 0.0
C840 C 0.98935 0.2172 0.95433 0.0
C841 C 0.97024 0.20145 0.89594 0.0
C842 C 0.01448 0.22441 0.92944 0.0
C843 C 0.02379 0.24401 0.01561 0.0
N844 N 0.98429 0.20909 0.90753 0.0
N845 N 0.00978 0.2356 0.0054 0.0
H846 H 0.73796 0.72853 0.84108 0.0
H847 H 0.6987 0.75672 0.04131 0.0
H848 H 0.73789 0.7254 0.02085 0.0
H849 H 0.7064 0.76667 0.8658 0.0
H850 H 0.70954 0.74186 0.03294 0.0
H851 H 0.72315 0.73931 0.84835 0.0
C852 C 0.73479 0.73006 0.88218 0.0
C853 C 0.7393 0.72617 0.9305 0.0
C854 C 0.70873 0.74719 0.9962 0.0
C855 C 0.72226 0.73853 0.93904 0.0
C856 C 0.70246 0.75561 0.00082 0.0
C857 C 0.70176 0.76307 0.95424 0.0
C858 C 0.71424 0.74615 0.94458 0.0
C859 C 0.70683 0.76122 0.9029 0.0
C860 C 0.72632 0.73623 0.88625 0.0
C861 C 0.73475 0.72833 0.98254 0.0
N862 N 0.71292 0.75303 0.89954 0.0
N863 N 0.72652 0.73443 0.98546 0.0
H864 H 0.25811 0.98437 0.0594 0.0
H865 H 0.27409 0.04352 0.82927 0.0
H866 H 0.24131 0.97481 0.89176 0.0
H867 H 0.28859 0.05265 6e-05 0.0
H868 H 0.26437 0.01833 0.84787 0.0
H869 H 0.27152 0.00933 0.0349 0.0
C870 C 0.25728 0.98751 0.01729 0.0
C871 C 0.24844 0.97748 0.97771 0.0
C872 C 0.26978 0.02585 0.88113 0.0
C873 C 0.26381 0.00614 0.94939 0.0
C874 C 0.27537 0.04025 0.87054 0.0
C875 C 0.28203 0.0502 0.91337 0.0
C876 C 0.27086 0.02138 0.93495 0.0
C877 C 0.28343 0.04535 0.96591 0.0
C878 C 0.26497 0.00179 0.00333 0.0
C879 C 0.24791 0.98218 0.9237 0.0
N880 N 0.27779 0.03127 0.97531 0.0
N881 N 0.25542 0.9962 0.91122 0.0
H882 H 0.96254 0.7598 0.02264 0.0
H883 H 0.04166 0.81329 0.92194 0.0
H884 H 0.97237 0.78193 0.86504 0.0
H885 H 0.03122 0.78495 0.06233 0.0
H886 H 0.01638 0.80358 0.90426 0.0
H887 H 0.98779 0.77091 0.04254 0.0
C888 C 0.97 0.76709 0.9924 0.0
C889 C 0.96533 0.76988 0.94196 0.0
C890 C 0.01965 0.7995 0.93888 0.0
C891 C 0.99428 0.78259 0.96437 0.0
C892 C 0.03407 0.80502 0.94898 0.0
C893 C 0.03857 0.79991 0.99359 0.0
C894 C 0.00968 0.78886 0.97391 0.0
C895 C 0.02826 0.7892 0.02732 0.0
C896 C 0.98443 0.77338 0.00368 0.0
C897 C 0.97549 0.77942 0.90435 0.0
N898 N 0.01432 0.78407 0.01685 0.0
N899 N 0.9895 0.7854 0.91625 0.0
H900 H 0.2526 0.23409 0.71332 0.0
H901 H 0.25282 0.27675 0.98381 0.0
H902 H 0.27569 0.23724 0.8641 0.0
H903 H 0.22924 0.27303 0.83385 0.0
H904 H 0.26424 0.26541 0.93546 0.0
H905 H 0.24729 0.25172 0.75077 0.0
C906 C 0.25678 0.23867 0.75388 0.0
C907 C 0.26437 0.23397 0.78606 0.0
C908 C 0.25667 0.2672 0.91295 0.0
C909 C 0.25817 0.25403 0.82951 0.0
C910 C 0.25011 0.27364 0.94059 0.0
C911 C 0.23989 0.27564 0.91309 0.0
C912 C 0.25293 0.26266 0.85748 0.0
C913 C 0.23693 0.27154 0.85691 0.0
C914 C 0.25369 0.24871 0.77535 0.0
C915 C 0.26963 0.2404 0.83811 0.0
N916 N 0.24331 0.26512 0.83114 0.0
N917 N 0.26624 0.24994 0.85858 0.0
H918 H 0.72733 0.00327 0.91165 0.0
H919 H 0.73244 0.96422 0.18471 0.0
H920 H 0.74624 0.02449 0.06679 0.0
H921 H 0.71741 0.94384 0.02483 0.0
H922 H 0.73285 0.98531 0.14787 0.0
H923 H 0.71909 0.98053 0.95799 0.0
C924 C 0.7296 0.00315 0.95561 0.0
C925 C 0.73772 0.0158 0.98512 0.0
C926 C 0.72928 0.97615 0.1211 0.0
C927 C 0.72837 0.98984 0.03834 0.0
C928 C 0.729 0.96408 0.14217 0.0
C929 C 0.72516 0.95236 0.10743 0.0
C930 C 0.72571 0.97647 0.06494 0.0
C931 C 0.72068 0.95273 0.05281 0.0
C932 C 0.7249 0.99016 0.98206 0.0
C933 C 0.74021 0.015 0.04217 0.0
N934 N 0.72127 0.96467 0.03302 0.0
N935 N 0.7357 0.00225 0.06675 0.0
H936 H 0.63127 0.51367 0.29049 0.0
H937 H 0.68983 0.58982 0.403 0.0
H938 H 0.62772 0.55132 0.28283 0.0
H939 H 0.69526 0.55325 0.408 0.0
H940 H 0.66685 0.57549 0.35943 0.0
H941 H 0.6546 0.52762 0.33399 0.0
C942 C 0.63539 0.52484 0.29789 0.0
C943 C 0.62753 0.53133 0.283 0.0
C944 C 0.67304 0.57056 0.36997 0.0
C945 C 0.65411 0.54729 0.33264 0.0
C946 C 0.68619 0.57876 0.39494 0.0
C947 C 0.69449 0.57273 0.40921 0.0
C948 C 0.66809 0.55619 0.35911 0.0
C949 C 0.6892 0.55833 0.39768 0.0
C950 C 0.64869 0.53279 0.32268 0.0
C951 C 0.63337 0.54584 0.29354 0.0
N952 N 0.67631 0.55053 0.37328 0.0
N953 N 0.64627 0.5533 0.31769 0.0
H954 H 0.40308 0.04299 0.23603 0.0
H955 H 0.39237 0.07827 0.50625 0.0
H956 H 0.41289 0.03585 0.40332 0.0
H957 H 0.38255 0.08536 0.3389 0.0
H958 H 0.39429 0.05821 0.47196 0.0
H959 H 0.38984 0.05356 0.27506 0.0
C960 C 0.40217 0.04332 0.28098 0.0
C961 C 0.40946 0.03889 0.31642 0.0
C962 C 0.39146 0.06399 0.44288 0.0
C963 C 0.3945 0.0512 0.36139 0.0
C964 C 0.39034 0.07546 0.46248 0.0
C965 C 0.38765 0.08375 0.42517 0.0
C966 C 0.38998 0.06087 0.38547 0.0
C967 C 0.38493 0.07945 0.36905 0.0
C968 C 0.39464 0.04942 0.30329 0.0
C969 C 0.40771 0.03941 0.37433 0.0
N970 N 0.38643 0.06849 0.35074 0.0
N971 N 0.40067 0.04576 0.39499 0.0
H972 H 0.90029 0.30413 0.53443 0.0
H973 H 0.92903 0.35981 0.28318 0.0
H974 H 0.90096 0.29282 0.36206 0.0
H975 H 0.92808 0.37151 0.45478 0.0
H976 H 0.91932 0.33531 0.31214 0.0
H977 H 0.91116 0.32893 0.50691 0.0
C978 C 0.90277 0.30686 0.4908 0.0
C979 C 0.89966 0.29637 0.45042 0.0
C980 C 0.92123 0.34322 0.34353 0.0
C981 C 0.91206 0.32475 0.41867 0.0
C982 C 0.92677 0.35724 0.32703 0.0
C983 C 0.92934 0.36775 0.36663 0.0
C984 C 0.91821 0.33962 0.40011 0.0
C985 C 0.92623 0.36376 0.42283 0.0
C986 C 0.90896 0.32103 0.47514 0.0
C987 C 0.90313 0.30054 0.39457 0.0
N988 N 0.9208 0.34999 0.43791 0.0
N989 N 0.90911 0.3144 0.38035 0.0
H990 H 0.68771 0.13295 0.36536 0.0
H991 H 0.61767 0.0573 0.33618 0.0
H992 H 0.68497 0.09332 0.4102 0.0
H993 H 0.61961 0.09652 0.29045 0.0
H994 H 0.64279 0.07041 0.35843 0.0
H995 H 0.6632 0.11988 0.33263 0.0
C996 C 0.68199 0.12152 0.36808 0.0
C997 C 0.68837 0.11423 0.39091 0.0
C998 C 0.63775 0.07616 0.34332 0.0
C999 C 0.66039 0.09924 0.35367 0.0
C1000 C 0.62339 0.06867 0.33061 0.0
C1001 C 0.61651 0.07584 0.31175 0.0
C1002 C 0.64531 0.09094 0.33734 0.0
C1003 C 0.62449 0.09057 0.30508 0.0
C1004 C 0.66801 0.11406 0.34942 0.0
C1005 C 0.68047 0.0994 0.39328 0.0
N1006 N 0.63846 0.09766 0.31815 0.0
N1007 N 0.6669 0.09242 0.37512 0.0
H1008 H 0.9078 0.62031 0.36763 0.0
H1009 H 0.92429 0.55875 0.44836 0.0
H1010 H 0.90242 0.603 0.53382 0.0
H1011 H 0.92615 0.57396 0.28032 0.0
H1012 H 0.91727 0.57556 0.48165 0.0
H1013 H 0.91594 0.6043 0.33621 0.0
C1014 C 0.90841 0.61321 0.39762 0.0
C1015 C 0.90436 0.61295 0.45338 0.0
C1016 C 0.9192 0.57519 0.4375 0.0
C1017 C 0.91359 0.59452 0.41763 0.0
C1018 C 0.92318 0.56558 0.41845 0.0
C1019 C 0.92578 0.56492 0.36146 0.0
C1020 C 0.91786 0.58422 0.39927 0.0
C1021 C 0.92423 0.57406 0.32462 0.0
C1022 C 0.91302 0.60403 0.37961 0.0
C1023 C 0.90539 0.60352 0.49038 0.0
N1024 N 0.92039 0.58333 0.34418 0.0
N1025 N 0.90986 0.59465 0.4718 0.0
H1026 H 0.40463 0.34609 0.24387 0.0
H1027 H 0.39944 0.27897 0.40099 0.0
H1028 H 0.43269 0.34901 0.37677 0.0
H1029 H 0.37726 0.2759 0.2477 0.0
H1030 H 0.40931 0.30453 0.40012 0.0
H1031 H 0.39213 0.32034 0.25257 0.0
C1032 C 0.40809 0.34134 0.27528 0.0
C1033 C 0.41982 0.34975 0.30941 0.0
C1034 C 0.40224 0.29828 0.36677 0.0
C1035 C 0.40553 0.32024 0.3194 0.0
C1036 C 0.39656 0.28365 0.36724 0.0
C1037 C 0.38757 0.27526 0.32409 0.0
C1038 C 0.39889 0.30462 0.32295 0.0
C1039 C 0.3842 0.28195 0.28164 0.0
C1040 C 0.40097 0.32663 0.28003 0.0
C1041 C 0.42378 0.34297 0.34936 0.0
N1042 N 0.3899 0.29626 0.28204 0.0
N1043 N 0.41669 0.32862 0.35309 0.0
H1044 H 0.30277 0.88406 0.72688 0.0
H1045 H 0.38342 0.93363 0.63427 0.0
H1046 H 0.31599 0.9025 0.5629 0.0
H1047 H 0.37133 0.91334 0.79557 0.0
H1048 H 0.35854 0.92321 0.60992 0.0
H1049 H 0.32765 0.89549 0.75521 0.0
C1050 C 0.31088 0.89051 0.69689 0.0
C1051 C 0.30729 0.89228 0.64239 0.0
C1052 C 0.3613 0.92104 0.65071 0.0
C1053 C 0.33569 0.90539 0.67449 0.0
C1054 C 0.37553 0.92701 0.66469 0.0
C1055 C 0.37947 0.92431 0.71697 0.0
C1056 C 0.35089 0.91228 0.68923 0.0
C1057 C 0.36876 0.91568 0.75472 0.0
C1058 C 0.32507 0.89703 0.71307 0.0
C1059 C 0.31823 0.90077 0.60529 0.0
N1060 N 0.35494 0.90993 0.74005 0.0
N1061 N 0.33191 0.90698 0.62202 0.0
H1062 H 0.06519 0.42886 0.75536 0.0
H1063 H 0.1046 0.41889 0.49267 0.0
H1064 H 0.07631 0.45491 0.60749 0.0
H1065 H 0.08912 0.39026 0.63304 0.0
H1066 H 0.09485 0.43259 0.53467 0.0
H1067 H 0.07459 0.41506 0.71203 0.0
C1068 C 0.06964 0.4317 0.71377 0.0
C1069 C 0.06997 0.44307 0.68499 0.0
C1070 C 0.09355 0.42329 0.55618 0.0
C1071 C 0.08075 0.42727 0.63507 0.0
C1072 C 0.09911 0.41545 0.53224 0.0
C1073 C 0.09768 0.40342 0.55943 0.0
C1074 C 0.08655 0.41908 0.60778 0.0
C1075 C 0.09047 0.39946 0.6106 0.0
C1076 C 0.07497 0.42379 0.68899 0.0
C1077 C 0.07583 0.44623 0.63117 0.0
N1078 N 0.08521 0.4073 0.63318 0.0
N1079 N 0.08101 0.43838 0.60795 0.0
H1080 H 0.59399 0.64848 0.78217 0.0
H1081 H 0.58983 0.69261 0.52406 0.0
H1082 H 0.57557 0.62996 0.62272 0.0
H1083 H 0.60506 0.71013 0.68796 0.0
H1084 H 0.58837 0.67051 0.55424 0.0
H1085 H 0.60185 0.67191 0.74316 0.0
C1086 C 0.59173 0.64933 0.73877 0.0
C1087 C 0.58392 0.63721 0.70592 0.0
C1088 C 0.59219 0.67925 0.58337 0.0
C1089 C 0.59284 0.66404 0.66103 0.0
C1090 C 0.59307 0.6919 0.56611 0.0
C1091 C 0.59736 0.70317 0.60382 0.0
C1092 C 0.59563 0.67788 0.6387 0.0
C1093 C 0.6015 0.70165 0.65769 0.0
C1094 C 0.59622 0.66273 0.71651 0.0
C1095 C 0.58143 0.639 0.64978 0.0
N1096 N 0.60039 0.6892 0.67368 0.0
N1097 N 0.58573 0.65215 0.62928 0.0
H1098 H 0.36235 0.47216 0.74356 0.0
H1099 H 0.30465 0.4067 0.565 0.0
H1100 H 0.3678 0.43803 0.68127 0.0
H1101 H 0.2978 0.44005 0.62626 0.0
H1102 H 0.32799 0.41844 0.60727 0.0
H1103 H 0.33882 0.46096 0.70075 0.0
C1104 C 0.35862 0.46234 0.7209 0.0
C1105 C 0.36705 0.45602 0.71602 0.0
C1106 C 0.32142 0.42323 0.61154 0.0
C1107 C 0.34023 0.44319 0.66714 0.0
C1108 C 0.30806 0.41652 0.58734 0.0
C1109 C 0.29924 0.4224 0.5921 0.0
C1110 C 0.32607 0.43595 0.64082 0.0
C1111 C 0.30426 0.43514 0.6216 0.0
C1112 C 0.3452 0.45596 0.69652 0.0
C1113 C 0.36169 0.44329 0.68619 0.0
N1114 N 0.31737 0.44151 0.64492 0.0
N1115 N 0.34864 0.43732 0.66297 0.0
H1116 H 0.62383 0.90713 0.62244 0.0
H1117 H 0.59464 0.93142 0.87973 0.0
H1118 H 0.63051 0.90067 0.7951 0.0
H1119 H 0.58792 0.93795 0.7072 0.0
H1120 H 0.61095 0.92354 0.84965 0.0
H1121 H 0.61392 0.92177 0.65264 0.0
C1122 C 0.62341 0.90895 0.6667 0.0
C1123 C 0.62782 0.90247 0.70631 0.0
C1124 C 0.60605 0.92686 0.81836 0.0
C1125 C 0.61635 0.91914 0.74121 0.0
C1126 C 0.59673 0.93138 0.83552 0.0
C1127 C 0.58972 0.93515 0.7959 0.0
C1128 C 0.60833 0.926 0.76109 0.0
C1129 C 0.59297 0.93501 0.73923 0.0
C1130 C 0.61772 0.9173 0.68392 0.0
C1131 C 0.62711 0.90532 0.76306 0.0
N1132 N 0.60189 0.93032 0.7235 0.0
N1133 N 0.62131 0.91329 0.77881 0.0
H1134 H 0.05619 0.63999 0.71771 0.0
H1135 H 0.12639 0.70264 0.58019 0.0
H1136 H 0.0945 0.63829 0.69321 0.0
H1137 H 0.08927 0.70568 0.61691 0.0
H1138 H 0.11456 0.67871 0.61836 0.0
H1139 H 0.06782 0.66372 0.67763 0.0
C1140 C 0.06704 0.64459 0.70383 0.0
C1141 C 0.0744 0.63715 0.70892 0.0
C1142 C 0.109 0.68461 0.61809 0.0
C1143 C 0.08777 0.66432 0.66299 0.0
C1144 C 0.11575 0.69828 0.59626 0.0
C1145 C 0.10881 0.70618 0.59541 0.0
C1146 C 0.09521 0.67877 0.63913 0.0
C1147 C 0.09503 0.69997 0.6168 0.0
C1148 C 0.07368 0.65815 0.681 0.0
C1149 C 0.08844 0.64365 0.6902 0.0
N1150 N 0.08867 0.68663 0.63777 0.0
N1151 N 0.09467 0.65687 0.66807 0.0
H1152 H 0.09814 0.31928 0.62798 0.0
H1153 H 0.10405 0.33008 0.95388 0.0
H1154 H 0.10654 0.3586 0.70406 0.0
H1155 H 0.07888 0.28879 0.87984 0.0
H1156 H 0.10577 0.34086 0.86274 0.0
H1157 H 0.09166 0.30789 0.71949 0.0
C1158 C 0.09854 0.3255 0.66393 0.0
C1159 C 0.10301 0.33994 0.65856 0.0
C1160 C 0.09974 0.32945 0.86654 0.0
C1161 C 0.09573 0.327 0.7633 0.0
C1162 C 0.09882 0.32328 0.91843 0.0
C1163 C 0.09142 0.30851 0.92424 0.0
C1164 C 0.09346 0.32078 0.81984 0.0
C1165 C 0.08471 0.30022 0.8771 0.0
C1166 C 0.09476 0.31897 0.71604 0.0
C1167 C 0.10318 0.34745 0.7064 0.0
N1168 N 0.08607 0.30647 0.82658 0.0
N1169 N 0.0998 0.34093 0.75701 0.0
H1170 H 0.66408 0.81386 0.85513 0.0
H1171 H 0.62527 0.75098 0.63533 0.0
H1172 H 0.66785 0.7763 0.85833 0.0
H1173 H 0.62532 0.79055 0.62653 0.0
H1174 H 0.64215 0.76051 0.71257 0.0
H1175 H 0.65111 0.80592 0.7677 0.0
C1176 C 0.66223 0.80395 0.83736 0.0
C1177 C 0.66696 0.79567 0.86459 0.0
C1178 C 0.63858 0.76715 0.69325 0.0
C1179 C 0.65199 0.78646 0.76393 0.0
C1180 C 0.62895 0.76173 0.64903 0.0
C1181 C 0.62376 0.76993 0.62442 0.0
C1182 C 0.643 0.78084 0.71328 0.0
C1183 C 0.62897 0.7838 0.64406 0.0
C1184 C 0.65484 0.79943 0.78719 0.0
C1185 C 0.66436 0.783 0.83899 0.0
N1186 N 0.63817 0.78874 0.68756 0.0
N1187 N 0.65692 0.77871 0.79035 0.0
H1188 H 0.24193 0.89773 0.96902 0.0
H1189 H 0.23794 0.90464 0.6436 0.0
H1190 H 0.23445 0.92952 0.89546 0.0
H1191 H 0.26321 0.88865 0.71787 0.0
H1192 H 0.2356 0.9131 0.73532 0.0
H1193 H 0.2489 0.8934 0.87742 0.0
C1194 C 0.24184 0.90386 0.9336 0.0
C1195 C 0.2375 0.91392 0.93965 0.0
C1196 C 0.24179 0.90789 0.73139 0.0
C1197 C 0.24531 0.90891 0.83486 0.0
C1198 C 0.24306 0.90299 0.67919 0.0
C1199 C 0.25068 0.89583 0.67329 0.0
C1200 C 0.24792 0.90535 0.7782 0.0
C1201 C 0.25723 0.8941 0.72065 0.0
C1202 C 0.24589 0.90144 0.88147 0.0
C1203 C 0.23771 0.92166 0.89253 0.0
N1204 N 0.25552 0.89864 0.77138 0.0
N1205 N 0.24134 0.91884 0.84183 0.0
H1206 H 0.31667 0.09753 0.09182 0.0
H1207 H 0.36537 0.15421 0.32241 0.0
H1208 H 0.32751 0.1414 0.092 0.0
H1209 H 0.35911 0.11191 0.3135 0.0
H1210 H 0.3489 0.14857 0.24516 0.0
H1211 H 0.32973 0.10158 0.17947 0.0
C1212 C 0.32171 0.10798 0.11036 0.0
C1213 C 0.32108 0.11916 0.08411 0.0
C1214 C 0.35101 0.14046 0.26041 0.0
C1215 C 0.336 0.12385 0.18442 0.0
C1216 C 0.36038 0.14365 0.30483 0.0
C1217 C 0.36372 0.13354 0.32447 0.0
C1218 C 0.34488 0.12705 0.23522 0.0
C1219 C 0.35693 0.12007 0.29964 0.0
C1220 C 0.32917 0.11028 0.16037 0.0
C1221 C 0.3278 0.13247 0.11025 0.0
N1222 N 0.34791 0.11725 0.25607 0.0
N1223 N 0.335 0.13444 0.15872 0.0
H1224 H 0.88355 0.24217 0.27481 0.0
H1225 H 0.91163 0.19863 0.09985 0.0
H1226 H 0.89212 0.2111 0.34825 0.0
H1227 H 0.88623 0.21475 0.02775 0.0
H1228 H 0.90997 0.20807 0.19078 0.0
H1229 H 0.89 0.23704 0.18301 0.0
C1230 C 0.88697 0.23443 0.27172 0.0
C1231 C 0.88714 0.22692 0.31895 0.0
C1232 C 0.90488 0.20962 0.15482 0.0
C1233 C 0.89462 0.22114 0.21479 0.0
C1234 C 0.90586 0.20429 0.10301 0.0
C1235 C 0.89891 0.20577 0.05642 0.0
C1236 C 0.89711 0.21666 0.15973 0.0
C1237 C 0.89157 0.21321 0.06281 0.0
C1238 C 0.89058 0.23147 0.21944 0.0
C1239 C 0.89164 0.21698 0.3127 0.0
N1240 N 0.89084 0.21836 0.11356 0.0
N1241 N 0.89518 0.21436 0.26156 0.0
H1242 H 0.73477 0.62475 0.3113 0.0
H1243 H 0.76301 0.69649 0.1375 0.0
H1244 H 0.76124 0.66605 0.38359 0.0
H1245 H 0.75304 0.65645 0.06391 0.0
H1246 H 0.75679 0.68504 0.22977 0.0
H1247 H 0.73582 0.63602 0.22171 0.0
C1248 C 0.74067 0.63618 0.30852 0.0
C1249 C 0.7481 0.64447 0.35476 0.0
C1250 C 0.75583 0.67878 0.19318 0.0
C1251 C 0.74922 0.65738 0.25272 0.0
C1252 C 0.75929 0.68527 0.1407 0.0
C1253 C 0.75868 0.67741 0.09337 0.0
C1254 C 0.75148 0.66433 0.19777 0.0
C1255 C 0.75384 0.66292 0.09959 0.0
C1256 C 0.74128 0.64259 0.25741 0.0
C1257 C 0.75553 0.65925 0.34877 0.0
N1258 N 0.75045 0.65685 0.15085 0.0
N1259 N 0.75595 0.66525 0.29857 0.0
H1260 H 0.91788 0.72497 0.10814 0.0
H1261 H 0.89112 0.65373 0.28391 0.0
H1262 H 0.89249 0.68332 0.03717 0.0
H1263 H 0.89989 0.69346 0.35712 0.0
H1264 H 0.89719 0.66515 0.19177 0.0
H1265 H 0.91689 0.71406 0.19872 0.0
C1266 C 0.91224 0.71355 0.11144 0.0
C1267 C 0.9051 0.70504 0.0653 0.0
C1268 C 0.89791 0.67136 0.22823 0.0
C1269 C 0.90405 0.69255 0.16829 0.0
C1270 C 0.89452 0.66488 0.28069 0.0
C1271 C 0.89485 0.67263 0.32795 0.0
C1272 C 0.90188 0.6857 0.22344 0.0
C1273 C 0.89931 0.68705 0.32155 0.0
C1274 C 0.91165 0.70735 0.16309 0.0
C1275 C 0.89797 0.69028 0.0719 0.0
N1276 N 0.90262 0.69312 0.27023 0.0
N1277 N 0.8976 0.68449 0.12251 0.0
H1278 H 0.3032 0.17515 0.88282 0.0
H1279 H 0.34499 0.2291 0.13205 0.0
H1280 H 0.30039 0.21268 0.91366 0.0
H1281 H 0.34054 0.18773 0.11264 0.0
H1282 H 0.33179 0.22538 0.04445 0.0
H1283 H 0.3202 0.18189 0.95854 0.0
C1284 C 0.30625 0.1849 0.90507 0.0
C1285 C 0.30021 0.19328 0.89196 0.0
C1286 C 0.33382 0.2172 0.05933 0.0
C1287 C 0.31971 0.20103 0.97965 0.0
C1288 C 0.34138 0.21933 0.10915 0.0
C1289 C 0.34374 0.20865 0.13006 0.0
C1290 C 0.32875 0.20437 0.03011 0.0
C1291 C 0.33882 0.19619 0.09866 0.0
C1292 C 0.31596 0.18873 0.94858 0.0
C1293 C 0.30471 0.20585 0.92239 0.0
N1294 N 0.33156 0.1944 0.05057 0.0
N1295 N 0.3141 0.20929 0.96515 0.0
H1296 H 0.76175 0.07144 0.11918 0.0
H1297 H 0.73479 0.11506 0.29758 0.0
H1298 H 0.75581 0.1044 0.04754 0.0
H1299 H 0.76028 0.0989 0.36854 0.0
H1300 H 0.73737 0.10679 0.20546 0.0
H1301 H 0.75615 0.0771 0.21143 0.0
C1302 C 0.75914 0.07977 0.12279 0.0
C1303 C 0.75935 0.08755 0.07582 0.0
C1304 C 0.74231 0.105 0.24137 0.0
C1305 C 0.7528 0.09391 0.18063 0.0
C1306 C 0.7408 0.10965 0.29387 0.0
C1307 C 0.74743 0.10775 0.34059 0.0
C1308 C 0.75026 0.09819 0.23592 0.0
C1309 C 0.75513 0.1007 0.33345 0.0
C1310 C 0.75601 0.08301 0.17534 0.0
C1311 C 0.75591 0.09825 0.08282 0.0
N1312 N 0.75631 0.09614 0.28204 0.0
N1313 N 0.75274 0.10111 0.13431 0.0
H1314 H 0.66353 0.84507 0.85722 0.0
H1315 H 0.69904 0.90539 0.08932 0.0
H1316 H 0.65681 0.88081 0.86687 0.0
H1317 H 0.70276 0.8678 0.08668 0.0
H1318 H 0.68229 0.89584 0.01191 0.0
H1319 H 0.67675 0.85256 0.94448 0.0
C1320 C 0.66476 0.85446 0.87776 0.0
C1321 C 0.65912 0.86238 0.85424 0.0
C1322 C 0.68666 0.88961 0.02866 0.0
C1323 C 0.67433 0.87104 0.95457 0.0
C1324 C 0.69622 0.89506 0.07298 0.0
C1325 C 0.70241 0.88744 0.09449 0.0
C1326 C 0.68331 0.87649 0.0053 0.0
C1327 C 0.69828 0.87407 0.0716 0.0
C1328 C 0.6723 0.85872 0.92778 0.0
C1329 C 0.661 0.8744 0.88323 0.0
N1330 N 0.68911 0.8691 0.02795 0.0
N1331 N 0.66853 0.87842 0.93161 0.0
H1332 H 0.10592 0.78907 0.64164 0.0
H1333 H 0.10751 0.78103 0.96755 0.0
H1334 H 0.11226 0.75674 0.71707 0.0
H1335 H 0.08426 0.79898 0.89084 0.0
H1336 H 0.10985 0.77242 0.8763 0.0
H1337 H 0.09844 0.79338 0.73221 0.0
C1338 C 0.10566 0.78282 0.67723 0.0
C1339 C 0.10985 0.77262 0.67199 0.0
C1340 C 0.10408 0.77808 0.87949 0.0
C1341 C 0.10141 0.77758 0.77567 0.0
C1342 C 0.10281 0.78307 0.93147 0.0
C1343 C 0.09579 0.79084 0.93657 0.0
C1344 C 0.09858 0.78115 0.83204 0.0
C1345 C 0.08976 0.79305 0.88863 0.0
C1346 C 0.1013 0.78523 0.72878 0.0
C1347 C 0.10915 0.76472 0.71931 0.0
N1348 N 0.0915 0.78842 0.83807 0.0
N1349 N 0.10522 0.76752 0.76943 0.0
H1350 H 0.23313 0.34706 0.93689 0.0
H1351 H 0.2285 0.33528 0.61081 0.0
H1352 H 0.22755 0.30845 0.86341 0.0
H1353 H 0.25338 0.3769 0.68265 0.0
H1354 H 0.22612 0.32494 0.70354 0.0
H1355 H 0.23877 0.35807 0.84432 0.0
C1356 C 0.23315 0.34092 0.90134 0.0
C1357 C 0.22981 0.3268 0.90776 0.0
C1358 C 0.2322 0.33633 0.69887 0.0
C1359 C 0.23608 0.33926 0.80208 0.0
C1360 C 0.2335 0.34224 0.64611 0.0
C1361 C 0.24111 0.35697 0.63917 0.0
C1362 C 0.23828 0.34522 0.74518 0.0
C1363 C 0.24746 0.36549 0.68623 0.0
C1364 C 0.23643 0.34723 0.84869 0.0
C1365 C 0.23008 0.31936 0.86036 0.0
N1366 N 0.24575 0.35949 0.73749 0.0
N1367 N 0.23298 0.32563 0.80935 0.0
H1368 H 0.99314 0.44035 0.69626 0.0
H1369 H 0.00336 0.44451 0.3701 0.0
H1370 H 0.03323 0.4511 0.62128 0.0
H1371 H 0.96317 0.41569 0.44545 0.0
H1372 H 0.01457 0.44852 0.46183 0.0
H1373 H 0.98184 0.43263 0.60481 0.0
C1374 C -0.00045 0.44103 0.66058 0.0
C1375 C 0.01416 0.44646 0.66622 0.0
C1376 C 0.00333 0.44121 0.45816 0.0
C1377 C 0.00133 0.43779 0.5617 0.0
C1378 C 0.99691 0.43898 0.40596 0.0
C1379 C 0.98231 0.42982 0.40033 0.0
C1380 C 0.99503 0.43449 0.50523 0.0
C1381 C 0.97446 0.42283 0.44804 0.0
C1382 C 0.99308 0.43655 0.60856 0.0
C1383 C 0.02194 0.44699 0.61873 0.0
N1384 N 0.9809 0.42547 0.49876 0.0
N1385 N 0.01546 0.44289 0.56822 0.0
H1386 H 0.58281 0.53241 0.38385 0.0
H1387 H 0.55931 0.57927 0.56045 0.0
H1388 H 0.55538 0.5467 0.31687 0.0
H1389 H 0.56802 0.54849 0.63566 0.0
H1390 H 0.56301 0.57195 0.46791 0.0
H1391 H 0.58249 0.54279 0.47416 0.0
C1392 C 0.5768 0.53781 0.38801 0.0
C1393 C 0.569 0.53859 0.34297 0.0
C1394 C 0.56422 0.56691 0.50483 0.0
C1395 C 0.56876 0.5506 0.44568 0.0
C1396 C 0.5622 0.57113 0.5575 0.0
C1397 C 0.56326 0.56439 0.60561 0.0
C1398 C 0.56758 0.5561 0.50056 0.0
C1399 C 0.56696 0.55385 0.59953 0.0
C1400 C 0.57661 0.54369 0.43952 0.0
C1401 C 0.56141 0.54573 0.35071 0.0
N1402 N 0.569 0.55003 0.54793 0.0
N1403 N 0.56149 0.55149 0.40113 0.0
H1404 H 0.42313 0.96624 0.5543 0.0
H1405 H 0.47161 0.01113 0.29714 0.0
H1406 H 0.46776 0.98091 0.53996 0.0
H1407 H 0.43114 0.00754 0.33258 0.0
H1408 H 0.46819 0.99561 0.37578 0.0
H1409 H 0.42402 0.97726 0.46382 0.0
C1410 C 0.43307 0.97165 0.53195 0.0
C1411 C 0.44542 0.97278 0.55501 0.0
C1412 C 0.45998 0.9981 0.36601 0.0
C1413 C 0.44646 0.98524 0.45161 0.0
C1414 C 0.46188 0.00691 0.32081 0.0
C1415 C 0.45171 0.0108 0.30836 0.0
C1416 C 0.44781 0.99305 0.39917 0.0
C1417 C 0.43931 0.00492 0.34077 0.0
C1418 C 0.43357 0.97795 0.48046 0.0
C1419 C 0.45801 0.97991 0.5242 0.0
N1420 N 0.43776 0.99643 0.38502 0.0
N1421 N 0.4582 0.98587 0.47425 0.0
H1422 H 0.55923 0.96242 0.63618 0.0
H1423 H 0.56825 0.0324 0.49485 0.0
H1424 H 0.54976 0.99062 0.72871 0.0
H1425 H 0.54734 0.99192 0.41185 0.0
H1426 H 0.56948 0.02055 0.58076 0.0
H1427 H 0.56335 0.97699 0.55261 0.0
C1428 C 0.55838 0.97187 0.63926 0.0
C1429 C 0.55408 0.97531 0.68923 0.0
C1430 C 0.56479 0.01436 0.54338 0.0
C1431 C 0.55891 0.99198 0.5944 0.0
C1432 C 0.56412 0.02107 0.49462 0.0
C1433 C 0.55759 0.01305 0.44672 0.0
C1434 C 0.55932 -0.00033 0.54318 0.0
C1435 C 0.55233 0.99842 0.44825 0.0
C1436 C 0.56063 0.98009 0.5916 0.0
C1437 C 0.55297 0.98758 0.69079 0.0
N1438 N 0.55338 0.99219 0.49567 0.0
N1439 N 0.55536 0.99551 0.64392 0.0
H1440 H 0.95831 0.55173 0.43144 0.0
H1441 H 0.02991 0.58746 0.60742 0.0
H1442 H -0.00143 0.56205 0.35928 0.0
H1443 H 0.98937 0.55866 0.6803 0.0
H1444 H 0.01857 0.58317 0.51544 0.0
H1445 H 0.96975 0.55929 0.52291 0.0
C1446 C 0.96957 0.55573 0.43472 0.0
C1447 C 0.97749 0.55616 0.38787 0.0
C1448 C 0.01219 0.57788 0.55176 0.0
C1449 C 0.9906 0.56491 0.49185 0.0
C1450 C 0.01862 0.58036 0.60414 0.0
C1451 C 0.01057 0.5733 0.65136 0.0
C1452 C 0.9976 0.56852 0.54693 0.0
C1453 C 0.99598 0.56419 0.64482 0.0
C1454 C 0.97606 0.55997 0.48686 0.0
C1455 C 0.99205 0.5614 0.39449 0.0
N1456 N 0.98994 0.56207 0.59353 0.0
N1457 N -0.00185 0.5656 0.44557 0.0
H1458 H 0.43527 0.40349 0.42359 0.0
H1459 H 0.41007 0.44939 0.59891 0.0
H1460 H 0.42333 0.43193 0.34844 0.0
H1461 H 0.4384 0.43618 0.66564 0.0
H1462 H 0.40976 0.43816 0.51003 0.0
H1463 H 0.43116 0.41048 0.51634 0.0
C1464 C 0.43153 0.41098 0.42663 0.0
C1465 C 0.42975 0.41726 0.37853 0.0
C1466 C 0.41597 0.43766 0.54433 0.0
C1467 C 0.42501 0.42519 0.48364 0.0
C1468 C 0.41614 0.44405 0.59504 0.0
C1469 C 0.42441 0.44387 0.63955 0.0
C1470 C 0.42394 0.43088 0.53833 0.0
C1471 C 0.43203 0.43674 0.63217 0.0
C1472 C 0.4293 0.41503 0.47938 0.0
C1473 C 0.42497 0.42697 0.38461 0.0
N1474 N 0.43163 0.43053 0.58245 0.0
N1475 N 0.4228 0.43067 0.4362 0.0
H1476 H 0.08234 0.32726 0.14015 0.0
H1477 H 0.0735 0.31885 0.44648 0.0
H1478 H 0.05544 0.28632 0.21338 0.0
H1479 H 0.08334 0.35811 0.36687 0.0
H1480 H 0.06041 0.30603 0.36366 0.0
H1481 H 0.0769 0.33827 0.21752 0.0
C1482 C 0.07492 0.32057 0.17184 0.0
C1483 C 0.06961 0.30594 0.17147 0.0
C1484 C 0.06492 0.3174 0.36479 0.0
C1485 C 0.06375 0.31843 0.26117 0.0
C1486 C 0.07236 0.32471 0.41226 0.0
C1487 C 0.07973 0.33951 0.41263 0.0
C1488 C 0.06545 0.32506 0.31679 0.0
C1489 C 0.07792 0.34666 0.36766 0.0
C1490 C 0.07176 0.32684 0.21602 0.0
C1491 C 0.05991 0.29769 0.21283 0.0
N1492 N 0.07138 0.33939 0.32051 0.0
N1493 N 0.05765 0.30409 0.25722 0.0
H1494 H 0.61489 0.73955 0.37246 0.0
H1495 H 0.64015 0.79157 0.10904 0.0
H1496 H 0.60092 0.76925 0.33356 0.0
H1497 H 0.65886 0.76611 0.15217 0.0
H1498 H 0.62265 0.77993 0.18219 0.0
H1499 H 0.62822 0.74586 0.28422 0.0
C1500 C 0.61448 0.74724 0.34511 0.0
C1501 C 0.60695 0.75403 0.36076 0.0
C1502 C 0.63048 0.77676 0.1755 0.0
C1503 C 0.62204 0.76121 0.26014 0.0
C1504 C 0.64049 0.7834 0.13356 0.0
C1505 C 0.65113 0.77997 0.12498 0.0
C1506 C 0.63116 0.76667 0.20981 0.0
C1507 C 0.65089 0.76914 0.15758 0.0
C1508 C 0.6221 0.75085 0.29491 0.0
C1509 C 0.60675 0.7639 0.32374 0.0
N1510 N 0.64118 0.763 0.19921 0.0
N1511 N 0.61423 0.76723 0.27552 0.0
H1512 H 0.25797 0.95133 0.22816 0.0
H1513 H 0.28803 0.90843 0.38352 0.0
H1514 H 0.26433 0.91863 0.15717 0.0
H1515 H 0.26342 0.92514 0.45754 0.0
H1516 H 0.29195 0.92334 0.30128 0.0
H1517 H 0.27252 0.95263 0.30847 0.0
C1518 C 0.26297 0.94489 0.22831 0.0
C1519 C 0.2597 0.93458 0.18713 0.0
C1520 C 0.28624 0.9242 0.33664 0.0
C1521 C 0.27622 0.93601 0.27804 0.0
C1522 C 0.28405 0.91576 0.3836 0.0
C1523 C 0.27509 0.91536 0.4263 0.0
C1524 C 0.27944 0.93223 0.33307 0.0
C1525 C 0.27014 0.92498 0.4246 0.0
C1526 C 0.27122 0.94561 0.27412 0.0
C1527 C 0.26638 0.92648 0.18902 0.0
N1528 N 0.27213 0.93283 0.37805 0.0
N1529 N 0.27412 0.92716 0.23443 0.0
H1530 H 0.38837 0.15271 0.61898 0.0
H1531 H 0.32385 0.09453 0.7982 0.0
H1532 H 0.36635 0.10846 0.57477 0.0
H1533 H 0.34643 0.13933 0.83318 0.0
H1534 H 0.34102 0.09845 0.72426 0.0
H1535 H 0.37499 0.14704 0.70525 0.0
C1536 C 0.38073 0.14174 0.62761 0.0
C1537 C 0.37832 0.13106 0.58918 0.0
C1538 C 0.34228 0.10737 0.74866 0.0
C1539 C 0.36273 0.12445 0.68832 0.0
C1540 C 0.33253 0.10514 0.79099 0.0
C1541 C 0.33359 0.11665 0.82146 0.0
C1542 C 0.35318 0.12118 0.73706 0.0
C1543 C 0.34504 0.13016 0.81031 0.0
C1544 C 0.37308 0.13849 0.67708 0.0
C1545 C 0.36847 0.11702 0.60317 0.0
N1546 N 0.35428 0.13204 0.76886 0.0
N1547 N 0.36086 0.11412 0.65138 0.0
H1548 H 0.91033 0.23416 0.84104 0.0
H1549 H 0.91464 0.23051 0.53399 0.0
H1550 H 0.93461 0.21731 0.76525 0.0
H1551 H 0.90826 0.26253 0.61151 0.0
H1552 H 0.92831 0.23079 0.61487 0.0
H1553 H 0.91558 0.24992 0.76145 0.0
C1554 C 0.9172 0.23416 0.80833 0.0
C1555 C 0.92177 0.22425 0.8087 0.0
C1556 C 0.92441 0.23817 0.61362 0.0
C1557 C 0.92732 0.24175 0.7165 0.0
C1558 C 0.9166 0.23799 0.56733 0.0
C1559 C 0.91007 0.24624 0.56705 0.0
C1560 C 0.9251 0.24619 0.6607 0.0
C1561 C 0.91299 0.25586 0.61074 0.0
C1562 C 0.92023 0.24318 0.76283 0.0
C1563 C 0.93073 0.22472 0.76589 0.0
N1564 N 0.91989 0.25521 0.65693 0.0
N1565 N 0.93282 0.23298 0.72036 0.0
H1566 H 0.73443 0.65009 0.87632 0.0
H1567 H 0.73259 0.6564 0.56837 0.0
H1568 H 0.73581 0.68659 0.80071 0.0
H1569 H 0.71327 0.61557 0.64796 0.0
H1570 H 0.72745 0.66619 0.65071 0.0
H1571 H 0.72042 0.63568 0.79789 0.0
C1572 C 0.73136 0.65495 0.84389 0.0
C1573 C 0.73656 0.66957 0.84392 0.0
C1574 C 0.72382 0.65496 0.64969 0.0
C1575 C 0.72103 0.65332 0.75309 0.0
C1576 C 0.72675 0.64939 0.60255 0.0
C1577 C 0.72359 0.63528 0.60223 0.0
C1578 C 0.71829 0.64648 0.6975 0.0
C1579 C 0.716 0.62657 0.64714 0.0
C1580 C 0.72332 0.64673 0.79908 0.0
C1581 C 0.73216 0.67536 0.80158 0.0
N1582 N 0.71404 0.63243 0.69398 0.0
N1583 N 0.72504 0.66731 0.75671 0.0
H1584 H 0.91604 0.6585 0.62151 0.0
H1585 H 0.94023 0.73091 0.77452 0.0
H1586 H 0.92206 0.69684 0.54474 0.0
H1587 H 0.91664 0.68933 0.84703 0.0
H1588 H 0.94593 0.72063 0.69435 0.0
H1589 H 0.92893 0.6722 0.70397 0.0
C1590 C 0.92068 0.6699 0.62093 0.0
C1591 C 0.91771 0.67657 0.57728 0.0
C1592 C 0.94 0.71386 0.72895 0.0
C1593 C 0.93224 0.69215 0.67088 0.0
C1594 C 0.93678 0.71972 0.77467 0.0
C1595 C 0.92766 0.71084 0.81633 0.0
C1596 C 0.93408 0.69911 0.72558 0.0
C1597 C 0.92344 0.69644 0.81483 0.0
C1598 C 0.92796 0.67769 0.66804 0.0
C1599 C 0.9239 0.69132 0.57838 0.0
N1600 N 0.92646 0.69095 0.76954 0.0
N1601 N 0.93062 0.69861 0.62511 0.0
H1602 H 0.27587 0.17105 0.59628 0.0
H1603 H 0.34028 0.23038 0.42163 0.0
H1604 H 0.29623 0.21523 0.6408 0.0
H1605 H 0.31625 0.18627 0.37596 0.0
H1606 H 0.32303 0.22604 0.49579 0.0
H1607 H 0.28921 0.17729 0.50978 0.0
C1608 C 0.28313 0.18212 0.58763 0.0
C1609 C 0.28508 0.19263 0.62614 0.0
C1610 C 0.32146 0.21738 0.46895 0.0
C1611 C 0.30063 0.19991 0.52681 0.0
C1612 C 0.33127 0.21986 0.42651 0.0
C1613 C 0.32983 0.20862 0.39306 0.0
C1614 C 0.31017 0.20359 0.47777 0.0
C1615 C 0.31794 0.19521 0.40124 0.0
C1616 C 0.29075 0.1857 0.53802 0.0
C1617 C 0.29446 0.20681 0.61225 0.0
N1618 N 0.30869 0.19307 0.44297 0.0
N1619 N 0.30208 0.21005 0.56396 0.0
H1620 H 0.72878 0.08076 0.86262 0.0
H1621 H 0.73423 0.07734 0.55697 0.0
H1622 H 0.73468 0.04817 0.7878 0.0
H1623 H 0.70865 0.09316 0.62891 0.0
H1624 H 0.72895 0.06167 0.63695 0.0
H1625 H 0.71548 0.08061 0.78062 0.0
C1626 C 0.72674 0.07315 0.82972 0.0
C1627 C 0.73303 0.06468 0.83114 0.0
C1628 C 0.72402 0.06815 0.63456 0.0
C1629 C 0.71847 0.0649 0.73616 0.0
C1630 C 0.72707 0.07711 0.58884 0.0
C1631 C 0.7221 0.08671 0.58726 0.0
C1632 C 0.71649 0.06931 0.67993 0.0
C1633 C 0.7128 0.08599 0.62914 0.0
C1634 C 0.71916 0.07306 0.78276 0.0
C1635 C 0.73009 0.05497 0.78778 0.0
N1636 N 0.71068 0.0778 0.67493 0.0
N1637 N 0.72345 0.0557 0.74094 0.0
H1638 H 0.71028 0.91919 0.34479 0.0
H1639 H 0.68558 0.86881 0.61317 0.0
H1640 H 0.72381 0.88927 0.38592 0.0
H1641 H 0.66648 0.8937 0.56661 0.0
H1642 H 0.70286 0.88 0.53896 0.0
H1643 H 0.69705 0.91336 0.43317 0.0
C1644 C 0.7106 0.91153 0.37258 0.0
C1645 C 0.71802 0.90457 0.35759 0.0
C1646 C 0.695 0.88316 0.54512 0.0
C1647 C 0.70306 0.89796 0.4585 0.0
C1648 C 0.68514 0.87679 0.58769 0.0
C1649 C 0.67445 0.88018 0.5956 0.0
C1650 C 0.69413 0.89291 0.50946 0.0
C1651 C 0.67452 0.89074 0.56177 0.0
C1652 C 0.70304 0.90819 0.4229 0.0
C1653 C 0.71809 0.89475 0.39521 0.0
N1654 N 0.68409 0.89659 0.51948 0.0
N1655 N 0.71069 0.89172 0.44359 0.0
H1656 H 0.0914 0.73542 0.38058 0.0
H1657 H 0.06062 0.77836 0.22954 0.0
H1658 H 0.08304 0.76628 0.45679 0.0
H1659 H 0.08599 0.76278 0.1535 0.0
H1660 H 0.05689 0.76312 0.31055 0.0
H1661 H 0.07741 0.73473 0.29917 0.0
C1662 C 0.08606 0.74153 0.38126 0.0
C1663 C 0.08858 0.75117 0.42447 0.0
C1664 C 0.06277 0.76261 0.27506 0.0
C1665 C 0.07277 0.7505 0.33218 0.0
C1666 C 0.06484 0.77124 0.2288 0.0
C1667 C 0.07391 0.77202 0.1858 0.0
C1668 C 0.06977 0.75476 0.27767 0.0
C1669 C 0.07918 0.76265 0.18667 0.0
C1670 C 0.07815 0.74119 0.33478 0.0
C1671 C 0.08151 0.75892 0.42351 0.0
N1672 N 0.07727 0.75459 0.23252 0.0
N1673 N 0.07414 0.75864 0.37747 0.0
H1674 H 0.25237 0.30812 0.19446 0.0
H1675 H 0.28073 0.38044 0.35382 0.0
H1676 H 0.261 0.34773 0.12156 0.0
H1677 H 0.25359 0.33885 0.42141 0.0
H1678 H 0.28578 0.36963 0.27373 0.0
H1679 H 0.26543 0.32085 0.2783 0.0
C1680 C 0.25766 0.31957 0.19495 0.0
C1681 C 0.25541 0.32693 0.15194 0.0
C1682 C 0.27921 0.36293 0.30733 0.0
C1683 C 0.27013 0.34142 0.2471 0.0
C1684 C 0.27636 0.36908 0.35305 0.0
C1685 C 0.26646 0.36044 0.39319 0.0
C1686 C 0.27216 0.34812 0.30245 0.0
C1687 C 0.26105 0.34581 0.39042 0.0
C1688 C 0.26502 0.32681 0.24287 0.0
C1689 C 0.26235 0.34172 0.15454 0.0
N1690 N 0.26375 0.34006 0.34512 0.0
N1691 N 0.26917 0.34849 0.20199 0.0
H1692 H 0.99546 0.41703 0.87979 0.0
H1693 H 0.00335 0.42175 0.18564 0.0
H1694 H 0.03574 0.42908 0.95507 0.0
H1695 H 0.96362 0.39168 0.11108 0.0
H1696 H 0.01574 0.41932 0.10551 0.0
H1697 H 0.9836 0.40222 0.96054 0.0
C1698 C 0.00178 0.4161 0.91258 0.0
C1699 C 0.01653 0.42446 0.91169 0.0
C1700 C 0.00434 0.41281 0.10733 0.0
C1701 C 0.00313 0.40811 0.00521 0.0
C1702 C 0.99728 0.41423 0.15315 0.0
C1703 C 0.98249 0.40715 0.15401 0.0
C1704 C 0.99648 0.40476 0.0612 0.0
C1705 C 0.97507 0.39745 0.11137 0.0
C1706 C 0.99503 0.40764 0.95877 0.0
C1707 C 0.02431 0.42287 0.95476 0.0
N1708 N 0.98213 0.39691 0.06553 0.0
N1709 N 0.01751 0.41526 0.00092 0.0
H1710 H 0.57878 0.56593 0.12365 0.0
H1711 H 0.59517 0.57247 0.81999 0.0
H1712 H 0.60657 0.55207 0.05759 0.0
H1713 H 0.58588 0.60195 0.90251 0.0
H1714 H 0.60524 0.56965 0.90657 0.0
H1715 H 0.58607 0.58339 0.04902 0.0
C1716 C 0.58671 0.56685 0.09409 0.0
C1717 C 0.59187 0.5574 0.09584 0.0
C1718 C 0.60158 0.57722 0.90544 0.0
C1719 C 0.59996 0.57703 0.00932 0.0
C1720 C 0.59593 0.57891 0.85575 0.0
C1721 C 0.58949 0.58725 0.85468 0.0
C1722 C 0.60022 0.58349 0.95455 0.0
C1723 C 0.59066 0.59532 0.90198 0.0
C1724 C 0.59095 0.57687 0.05159 0.0
C1725 C 0.60224 0.55909 0.05714 0.0
N1726 N 0.59539 0.59283 0.95081 0.0
N1727 N 0.60562 0.56841 0.01426 0.0
H1728 H 0.42439 0.0105 0.07173 0.0
H1729 H 0.45889 0.00367 0.78848 0.0
H1730 H 0.46509 0.04164 0.00753 0.0
H1731 H 0.4186 0.97062 0.84894 0.0
H1732 H 0.45865 0.01953 0.85932 0.0
H1733 H 0.41946 0.99758 0.98252 0.0
C1734 C 0.4321 0.01478 0.03835 0.0
C1735 C 0.44523 0.02701 0.04699 0.0
C1736 C 0.44975 0.00887 0.85691 0.0
C1737 C 0.43978 0.0124 0.94576 0.0
C1738 C 0.44989 -0.0002 0.81634 0.0
C1739 C 0.43886 0.98574 0.8134 0.0
C1740 C 0.43862 0.00381 0.89577 0.0
C1741 C 0.42737 0.98137 0.85005 0.0
C1742 C 0.42934 0.0074 0.98768 0.0
C1743 C 0.45491 0.03212 0.00275 0.0
N1744 N 0.42766 0.9903 0.89052 0.0
N1745 N 0.45206 0.02474 0.95441 0.0
H1746 H 0.57423 0.98736 0.91676 0.0
H1747 H 0.54492 0.98683 0.21518 0.0
H1748 H 0.54928 0.9491 0.0104 0.0
H1749 H 0.58122 0.02416 0.15014 0.0
H1750 H 0.54788 0.97273 0.14311 0.0
H1751 H 0.57912 0.0011 0.00344 0.0
C1752 C 0.5703 0.98185 0.95605 0.0
C1753 C 0.56151 0.96714 0.95702 0.0
C1754 C 0.55535 0.98396 0.14497 0.0
C1755 C 0.56644 0.98266 0.05531 0.0
C1756 C 0.55361 0.99203 0.18596 0.0
C1757 C 0.56274 0.0067 0.18818 0.0
C1758 C 0.56609 0.99064 0.10491 0.0
C1759 C 0.57392 0.01287 0.1497 0.0
C1760 C 0.57297 0.98966 0.00538 0.0
C1761 C 0.55626 0.96044 0.00839 0.0
N1762 N 0.57513 0.00485 0.10886 0.0
N1763 N 0.5586 0.96827 0.0554 0.0
H1764 H 0.98956 0.58299 0.86494 0.0
H1765 H 0.99733 0.58485 0.17153 0.0
H1766 H 0.02941 0.61185 0.94182 0.0
H1767 H 0.95721 0.57411 0.09775 0.0
H1768 H 0.00936 0.60003 0.09182 0.0
H1769 H 0.97727 0.58486 0.94664 0.0
C1770 C 0.99568 0.59018 0.89825 0.0
C1771 C 0.01047 0.59705 0.89748 0.0
C1772 C -0.00206 0.59479 0.09372 0.0
C1773 C 0.99658 0.59873 0.99205 0.0
C1774 C 0.99109 0.58611 0.13927 0.0
C1775 C 0.97631 0.57805 0.14031 0.0
C1776 C 0.98991 0.59487 0.04797 0.0
C1777 C 0.96865 0.58008 0.09794 0.0
C1778 C 0.98868 0.59125 0.94503 0.0
C1779 C 0.01796 0.60627 0.94133 0.0
N1780 N 0.97554 0.58793 0.05235 0.0
N1781 N 0.01095 0.60646 0.98794 0.0
H1782 H 0.40863 0.38291 0.07955 0.0
H1783 H 0.38778 0.43369 0.92468 0.0
H1784 H 0.40131 0.41413 0.15893 0.0
H1785 H 0.41385 0.41765 0.85935 0.0
H1786 H 0.38077 0.41673 0.00206 0.0
H1787 H 0.39781 0.38545 0.99392 0.0
C1788 C 0.40404 0.38972 0.0799 0.0
C1789 C 0.40612 0.39859 0.12555 0.0
C1790 C 0.38759 0.41658 0.96954 0.0
C1791 C 0.39401 0.40167 0.02829 0.0
C1792 C 0.39158 0.42623 0.92548 0.0
C1793 C 0.40167 0.42724 0.88671 0.0
C1794 C 0.39363 0.40788 0.97404 0.0
C1795 C 0.40629 0.41737 0.88936 0.0
C1796 C 0.39798 0.39125 0.03093 0.0
C1797 C 0.4001 0.40731 0.12395 0.0
N1798 N 0.40241 0.40823 0.9329 0.0
N1799 N 0.39459 0.4089 0.0755 0.0
loop_
_geom_bond_atom_site_label_1
_geom_bond_atom_site_label_2
_geom_bond_distance
_geom_bond_site_symmetry_2
_ccdc_geom_bond_type
Mg0 O1 2.028 . S
Mg0 O7 1.986 . S
Mg0 O9 2.114 . S
Mg0 O10 2.251 . S
Mg0 O13 2.010 . S
O1 Mg0 2.028 . S
O1 C4 1.250 1_554 S
O2 Mg3 2.028 . S
O2 C4 1.248 1_554 S
Mg3 O2 2.028 . S
Mg3 O8 2.032 . S
Mg3 O10 2.079 . S
C4 O1 1.250 1_556 S
C4 O2 1.248 1_556 S
C5 O6 1.264 . S
C5 O13 1.249 . S
O6 C5 1.264 . S
O7 Mg0 1.986 . S
O7 C11 1.246 . S
O8 Mg3 2.032 . S
O8 C11 1.259 . S
O9 Mg0 2.114 . S
O9 C12 1.252 . S
O10 Mg0 2.251 . S
O10 Mg3 2.079 . S
O10 C12 1.273 . S
C11 O7 1.246 . S
C11 O8 1.259 . S
C12 O9 1.252 . S
C12 O10 1.273 . S
O13 Mg0 2.010 . S
O13 C5 1.249 . S
Mg14 O15 2.028 . S
Mg14 O21 1.986 . S
Mg14 O23 2.114 . S
Mg14 O24 2.251 . S
Mg14 O27 2.010 . S
O15 Mg14 2.028 . S
O15 C18 1.250 1_554 S
O16 Mg17 2.028 . S
O16 C18 1.248 1_554 S
Mg17 O16 2.028 . S
Mg17 O22 2.032 . S
Mg17 O24 2.079 . S
C18 O15 1.250 1_556 S
C18 O16 1.248 1_556 S
C19 O20 1.264 . S
C19 O27 1.249 . S
O20 C19 1.264 . S
O21 Mg14 1.986 . S
O21 C25 1.246 . S
O22 Mg17 2.032 . S
O22 C25 1.259 . S
O23 Mg14 2.114 . S
O23 C26 1.252 . S
O24 Mg14 2.251 . S
O24 Mg17 2.079 . S
O24 C26 1.273 . S
C25 O21 1.246 . S
C25 O22 1.259 . S
C26 O23 1.252 . S
C26 O24 1.273 . S
O27 Mg14 2.010 . S
O27 C19 1.249 . S
Mg28 O29 2.028 . S
Mg28 O35 1.986 . S
Mg28 O37 2.114 . S
Mg28 O38 2.251 . S
Mg28 O41 2.010 . S
O29 Mg28 2.028 . S
O29 C32 1.250 1_554 S
O30 Mg31 2.028 . S
O30 C32 1.248 1_554 S
Mg31 O30 2.028 . S
Mg31 O36 2.032 . S
Mg31 O38 2.079 . S
C32 O29 1.250 1_556 S
C32 O30 1.248 1_556 S
C33 O34 1.264 . S
C33 O41 1.249 . S
O34 C33 1.264 . S
O35 Mg28 1.986 . S
O35 C39 1.246 . S
O36 Mg31 2.032 . S
O36 C39 1.259 . S
O37 Mg28 2.114 . S
O37 C40 1.252 . S
O38 Mg28 2.251 . S
O38 Mg31 2.079 . S
O38 C40 1.273 . S
C39 O35 1.246 . S
C39 O36 1.259 . S
C40 O37 1.252 . S
C40 O38 1.273 . S
O41 Mg28 2.010 . S
O41 C33 1.249 . S
Mg42 O43 2.028 . S
Mg42 O49 1.986 . S
Mg42 O51 2.114 . S
Mg42 O52 2.251 . S
Mg42 O55 2.010 . S
O43 Mg42 2.028 . S
O43 C46 1.250 1_556 S
O44 Mg45 2.028 . S
O44 C46 1.248 1_556 S
Mg45 O44 2.028 . S
Mg45 O50 2.032 . S
Mg45 O52 2.079 . S
C46 O43 1.250 1_554 S
C46 O44 1.248 1_554 S
C47 O48 1.264 . S
C47 O55 1.249 . S
O48 C47 1.264 . S
O49 Mg42 1.986 . S
O49 C53 1.246 . S
O50 Mg45 2.032 . S
O50 C53 1.259 . S
O51 Mg42 2.114 . S
O51 C54 1.252 . S
O52 Mg42 2.251 . S
O52 Mg45 2.079 . S
O52 C54 1.273 . S
C53 O49 1.246 . S
C53 O50 1.259 . S
C54 O51 1.252 . S
C54 O52 1.273 . S
O55 Mg42 2.010 . S
O55 C47 1.249 . S
Mg56 O57 2.028 . S
Mg56 O63 1.986 . S
Mg56 O65 2.114 . S
Mg56 O66 2.251 . S
Mg56 O69 2.010 . S
O57 Mg56 2.028 . S
O57 C60 1.250 1_556 S
O58 Mg59 2.028 . S
O58 C60 1.248 1_556 S
Mg59 O58 2.028 . S
Mg59 O64 2.032 . S
Mg59 O66 2.079 . S
C60 O57 1.250 1_554 S
C60 O58 1.248 1_554 S
C61 O62 1.264 . S
C61 O69 1.249 . S
O62 C61 1.264 . S
O63 Mg56 1.986 . S
O63 C67 1.246 . S
O64 Mg59 2.032 . S
O64 C67 1.259 . S
O65 Mg56 2.114 . S
O65 C68 1.252 . S
O66 Mg56 2.251 . S
O66 Mg59 2.079 . S
O66 C68 1.273 . S
C67 O63 1.246 . S
C67 O64 1.259 . S
C68 O65 1.252 . S
C68 O66 1.273 . S
O69 Mg56 2.010 . S
O69 C61 1.249 . S
Mg70 O71 2.028 . S
Mg70 O77 1.986 . S
Mg70 O79 2.114 . S
Mg70 O80 2.251 . S
Mg70 O83 2.010 . S
O71 Mg70 2.028 . S
O71 C74 1.250 1_556 S
O72 Mg73 2.028 . S
O72 C74 1.248 1_556 S
Mg73 O72 2.028 . S
Mg73 O78 2.032 . S
Mg73 O80 2.079 . S
C74 O71 1.250 1_554 S
C74 O72 1.248 1_554 S
C75 O76 1.264 . S
C75 O83 1.249 . S
O76 C75 1.264 . S
O77 Mg70 1.986 . S
O77 C81 1.246 . S
O78 Mg73 2.032 . S
O78 C81 1.259 . S
O79 Mg70 2.114 . S
O79 C82 1.252 . S
O80 Mg70 2.251 . S
O80 Mg73 2.079 . S
O80 C82 1.273 . S
C81 O77 1.246 . S
C81 O78 1.259 . S
C82 O79 1.252 . S
C82 O80 1.273 . S
O83 Mg70 2.010 . S
O83 C75 1.249 . S
Mg84 O85 2.028 . S
Mg84 O91 1.986 . S
Mg84 O93 2.114 . S
Mg84 O94 2.251 . S
Mg84 O97 2.010 . S
O85 Mg84 2.028 . S
O85 C88 1.250 1_556 S
O86 Mg87 2.028 . S
O86 C88 1.248 1_556 S
Mg87 O86 2.028 . S
Mg87 O92 2.032 . S
Mg87 O94 2.079 . S
C88 O85 1.250 1_554 S
C88 O86 1.248 1_554 S
C89 O90 1.264 . S
C89 O97 1.249 . S
O90 C89 1.264 . S
O91 Mg84 1.986 . S
O91 C95 1.246 . S
O92 Mg87 2.032 . S
O92 C95 1.259 . S
O93 Mg84 2.114 . S
O93 C96 1.252 . S
O94 Mg84 2.251 . S
O94 Mg87 2.079 . S
O94 C96 1.273 . S
C95 O91 1.246 . S
C95 O92 1.259 . S
C96 O93 1.252 . S
C96 O94 1.273 . S
O97 Mg84 2.010 . S
O97 C89 1.249 . S
Mg98 O99 2.028 . S
Mg98 O105 1.986 . S
Mg98 O107 2.114 . S
Mg98 O108 2.251 . S
Mg98 O111 2.010 . S
O99 Mg98 2.028 . S
O99 C102 1.250 1_556 S
O100 Mg101 2.028 . S
O100 C102 1.248 1_556 S
Mg101 O100 2.028 . S
Mg101 O106 2.032 . S
Mg101 O108 2.079 . S
C102 O99 1.250 1_554 S
C102 O100 1.248 1_554 S
C103 O104 1.264 . S
C103 O111 1.249 . S
O104 C103 1.264 . S
O105 Mg98 1.986 . S
O105 C109 1.246 . S
O106 Mg101 2.032 . S
O106 C109 1.259 . S
O107 Mg98 2.114 . S
O107 C110 1.252 . S
O108 Mg98 2.251 . S
O108 Mg101 2.079 . S
O108 C110 1.273 . S
C109 O105 1.246 . S
C109 O106 1.259 . S
C110 O107 1.252 . S
C110 O108 1.273 . S
O111 Mg98 2.010 . S
O111 C103 1.249 . S
Mg112 O113 2.028 . S
Mg112 O119 1.986 . S
Mg112 O121 2.114 . S
Mg112 O122 2.251 . S
Mg112 O125 2.010 . S
O113 Mg112 2.028 . S
O113 C116 1.250 1_556 S
O114 Mg115 2.028 . S
O114 C116 1.248 1_556 S
Mg115 O114 2.028 . S
Mg115 O120 2.032 . S
Mg115 O122 2.079 . S
C116 O113 1.250 1_554 S
C116 O114 1.248 1_554 S
C117 O118 1.264 . S
C117 O125 1.249 . S
O118 C117 1.264 . S
O119 Mg112 1.986 . S
O119 C123 1.246 . S
O120 Mg115 2.032 . S
O120 C123 1.259 . S
O121 Mg112 2.114 . S
O121 C124 1.252 . S
O122 Mg112 2.251 . S
O122 Mg115 2.079 . S
O122 C124 1.273 . S
C123 O119 1.246 . S
C123 O120 1.259 . S
C124 O121 1.252 . S
C124 O122 1.273 . S
O125 Mg112 2.010 . S
O125 C117 1.249 . S
Mg126 O127 2.028 . S
Mg126 O133 1.986 . S
Mg126 O135 2.114 . S
Mg126 O136 2.251 . S
Mg126 O139 2.010 . S
O127 Mg126 2.028 . S
O127 C130 1.250 1_554 S
O128 Mg129 2.028 . S
O128 C130 1.248 1_554 S
Mg129 O128 2.028 . S
Mg129 O134 2.032 . S
Mg129 O136 2.079 . S
C130 O127 1.250 1_556 S
C130 O128 1.248 1_556 S
C131 O132 1.264 . S
C131 O139 1.249 . S
O132 C131 1.264 . S
O133 Mg126 1.986 . S
O133 C137 1.246 . S
O134 Mg129 2.032 . S
O134 C137 1.259 . S
O135 Mg126 2.114 . S
O135 C138 1.252 . S
O136 Mg126 2.251 . S
O136 Mg129 2.079 . S
O136 C138 1.273 . S
C137 O133 1.246 . S
C137 O134 1.259 . S
C138 O135 1.252 . S
C138 O136 1.273 . S
O139 Mg126 2.010 . S
O139 C131 1.249 . S
Mg140 O141 2.028 . S
Mg140 O147 1.986 . S
Mg140 O149 2.114 . S
Mg140 O150 2.251 . S
Mg140 O153 2.010 . S
O141 Mg140 2.028 . S
O141 C144 1.250 1_554 S
O142 Mg143 2.028 . S
O142 C144 1.248 1_554 S
Mg143 O142 2.028 . S
Mg143 O148 2.032 . S
Mg143 O150 2.079 . S
C144 O141 1.250 1_556 S
C144 O142 1.248 1_556 S
C145 O146 1.264 . S
C145 O153 1.249 . S
O146 C145 1.264 . S
O147 Mg140 1.986 . S
O147 C151 1.246 . S
O148 Mg143 2.032 . S
O148 C151 1.259 . S
O149 Mg140 2.114 . S
O149 C152 1.252 . S
O150 Mg140 2.251 . S
O150 Mg143 2.079 . S
O150 C152 1.273 . S
C151 O147 1.246 . S
C151 O148 1.259 . S
C152 O149 1.252 . S
C152 O150 1.273 . S
O153 Mg140 2.010 . S
O153 C145 1.249 . S
Mg154 O155 2.028 . S
Mg154 O161 1.986 . S
Mg154 O163 2.114 . S
Mg154 O164 2.251 . S
Mg154 O167 2.010 . S
O155 Mg154 2.028 . S
O155 C158 1.250 1_554 S
O156 Mg157 2.028 . S
O156 C158 1.248 1_554 S
Mg157 O156 2.028 . S
Mg157 O162 2.032 . S
Mg157 O164 2.079 . S
C158 O155 1.250 1_556 S
C158 O156 1.248 1_556 S
C159 O160 1.264 . S
C159 O167 1.249 . S
O160 C159 1.264 . S
O161 Mg154 1.986 . S
O161 C165 1.246 . S
O162 Mg157 2.032 . S
O162 C165 1.259 . S
O163 Mg154 2.114 . S
O163 C166 1.252 . S
O164 Mg154 2.251 . S
O164 Mg157 2.079 . S
O164 C166 1.273 . S
C165 O161 1.246 . S
C165 O162 1.259 . S
C166 O163 1.252 . S
C166 O164 1.273 . S
O167 Mg154 2.010 . S
O167 C159 1.249 . S
Mg168 O169 2.028 . S
Mg168 O175 1.986 . S
Mg168 O177 2.114 . S
Mg168 O178 2.251 . S
Mg168 O181 2.010 . S
O169 Mg168 2.028 . S
O169 C172 1.250 . S
O170 Mg171 2.028 . S
O170 C172 1.248 . S
Mg171 O170 2.028 . S
Mg171 O176 2.032 . S
Mg171 O178 2.079 . S
C172 O169 1.250 . S
C172 O170 1.248 . S
C173 O174 1.264 . S
C173 O181 1.249 . S
O174 C173 1.264 . S
O175 Mg168 1.986 . S
O175 C179 1.246 . S
O176 Mg171 2.032 . S
O176 C179 1.259 . S
O177 Mg168 2.114 . S
O177 C180 1.252 . S
O178 Mg168 2.251 . S
O178 Mg171 2.079 . S
O178 C180 1.273 . S
C179 O175 1.246 . S
C179 O176 1.259 . S
C180 O177 1.252 . S
C180 O178 1.273 . S
O181 Mg168 2.010 . S
O181 C173 1.249 . S
Mg182 O183 2.028 . S
Mg182 O189 1.986 . S
Mg182 O191 2.114 . S
Mg182 O192 2.251 . S
Mg182 O195 2.010 . S
O183 Mg182 2.028 . S
O183 C186 1.250 . S
O184 Mg185 2.028 . S
O184 C186 1.248 . S
Mg185 O184 2.028 . S
Mg185 O190 2.032 . S
Mg185 O192 2.079 . S
C186 O183 1.250 . S
C186 O184 1.248 . S
C187 O188 1.264 . S
C187 O195 1.249 . S
O188 C187 1.264 . S
O189 Mg182 1.986 . S
O189 C193 1.246 . S
O190 Mg185 2.032 . S
O190 C193 1.259 . S
O191 Mg182 2.114 . S
O191 C194 1.252 . S
O192 Mg182 2.251 . S
O192 Mg185 2.079 . S
O192 C194 1.273 . S
C193 O189 1.246 . S
C193 O190 1.259 . S
C194 O191 1.252 . S
C194 O192 1.273 . S
O195 Mg182 2.010 . S
O195 C187 1.249 . S
Mg196 O197 2.028 . S
Mg196 O203 1.986 . S
Mg196 O205 2.114 . S
Mg196 O206 2.251 . S
Mg196 O209 2.010 . S
O197 Mg196 2.028 . S
O197 C200 1.250 . S
O198 Mg199 2.028 . S
O198 C200 1.248 . S
Mg199 O198 2.028 . S
Mg199 O204 2.032 . S
Mg199 O206 2.079 . S
C200 O197 1.250 . S
C200 O198 1.248 . S
C201 O202 1.264 . S
C201 O209 1.249 . S
O202 C201 1.264 . S
O203 Mg196 1.986 . S
O203 C207 1.246 . S
O204 Mg199 2.032 . S
O204 C207 1.259 . S
O205 Mg196 2.114 . S
O205 C208 1.252 . S
O206 Mg196 2.251 . S
O206 Mg199 2.079 . S
O206 C208 1.273 . S
C207 O203 1.246 . S
C207 O204 1.259 . S
C208 O205 1.252 . S
C208 O206 1.273 . S
O209 Mg196 2.010 . S
O209 C201 1.249 . S
Mg210 O211 2.028 . S
Mg210 O217 1.986 . S
Mg210 O219 2.114 . S
Mg210 O220 2.251 . S
Mg210 O223 2.010 . S
O211 Mg210 2.028 . S
O211 C214 1.250 . S
O212 Mg213 2.028 . S
O212 C214 1.248 . S
Mg213 O212 2.028 . S
Mg213 O218 2.032 . S
Mg213 O220 2.079 . S
C214 O211 1.250 . S
C214 O212 1.248 . S
C215 O216 1.264 . S
C215 O223 1.249 . S
O216 C215 1.264 . S
O217 Mg210 1.986 . S
O217 C221 1.246 . S
O218 Mg213 2.032 . S
O218 C221 1.259 . S
O219 Mg210 2.114 . S
O219 C222 1.252 . S
O220 Mg210 2.251 . S
O220 Mg213 2.079 . S
O220 C222 1.273 . S
C221 O217 1.246 . S
C221 O218 1.259 . S
C222 O219 1.252 . S
C222 O220 1.273 . S
O223 Mg210 2.010 . S
O223 C215 1.249 . S
Mg224 O225 2.028 . S
Mg224 O231 1.986 . S
Mg224 O233 2.114 . S
Mg224 O234 2.251 . S
Mg224 O237 2.010 . S
O225 Mg224 2.028 . S
O225 C228 1.250 . S
O226 Mg227 2.028 . S
O226 C228 1.248 . S
Mg227 O226 2.028 . S
Mg227 O232 2.032 . S
Mg227 O234 2.079 . S
C228 O225 1.250 . S
C228 O226 1.248 . S
C229 O230 1.264 . S
C229 O237 1.249 . S
O230 C229 1.264 . S
O231 Mg224 1.986 . S
O231 C235 1.246 . S
O232 Mg227 2.032 . S
O232 C235 1.259 . S
O233 Mg224 2.114 . S
O233 C236 1.252 . S
O234 Mg224 2.251 . S
O234 Mg227 2.079 . S
O234 C236 1.273 . S
C235 O231 1.246 . S
C235 O232 1.259 . S
C236 O233 1.252 . S
C236 O234 1.273 . S
O237 Mg224 2.010 . S
O237 C229 1.249 . S
Mg238 O239 2.028 . S
Mg238 O245 1.986 . S
Mg238 O247 2.114 . S
Mg238 O248 2.251 . S
Mg238 O251 2.010 . S
O239 Mg238 2.028 . S
O239 C242 1.250 . S
O240 Mg241 2.028 . S
O240 C242 1.248 . S
Mg241 O240 2.028 . S
Mg241 O246 2.032 . S
Mg241 O248 2.079 . S
C242 O239 1.250 . S
C242 O240 1.248 . S
C243 O244 1.264 . S
C243 O251 1.249 . S
O244 C243 1.264 . S
O245 Mg238 1.986 . S
O245 C249 1.246 . S
O246 Mg241 2.032 . S
O246 C249 1.259 . S
O247 Mg238 2.114 . S
O247 C250 1.252 . S
O248 Mg238 2.251 . S
O248 Mg241 2.079 . S
O248 C250 1.273 . S
C249 O245 1.246 . S
C249 O246 1.259 . S
C250 O247 1.252 . S
C250 O248 1.273 . S
O251 Mg238 2.010 . S
O251 C243 1.249 . S
Mg252 O253 2.028 . S
Mg252 O259 1.986 . S
Mg252 O261 2.114 . S
Mg252 O262 2.251 . S
Mg252 O265 2.010 . S
O253 Mg252 2.028 . S
O253 C256 1.250 . S
O254 Mg255 2.028 . S
O254 C256 1.248 . S
Mg255 O254 2.028 . S
Mg255 O260 2.032 . S
Mg255 O262 2.079 . S
C256 O253 1.250 . S
C256 O254 1.248 . S
C257 O258 1.264 . S
C257 O265 1.249 . S
O258 C257 1.264 . S
O259 Mg252 1.986 . S
O259 C263 1.246 . S
O260 Mg255 2.032 . S
O260 C263 1.259 . S
O261 Mg252 2.114 . S
O261 C264 1.252 . S
O262 Mg252 2.251 . S
O262 Mg255 2.079 . S
O262 C264 1.273 . S
C263 O259 1.246 . S
C263 O260 1.259 . S
C264 O261 1.252 . S
C264 O262 1.273 . S
O265 Mg252 2.010 . S
O265 C257 1.249 . S
Mg266 O267 2.028 . S
Mg266 O273 1.986 . S
Mg266 O275 2.114 . S
Mg266 O276 2.251 . S
Mg266 O279 2.010 . S
O267 Mg266 2.028 . S
O267 C270 1.250 . S
O268 Mg269 2.028 . S
O268 C270 1.248 . S
Mg269 O268 2.028 . S
Mg269 O274 2.032 . S
Mg269 O276 2.079 . S
C270 O267 1.250 . S
C270 O268 1.248 . S
C271 O272 1.264 . S
C271 O279 1.249 . S
O272 C271 1.264 . S
O273 Mg266 1.986 . S
O273 C277 1.246 . S
O274 Mg269 2.032 . S
O274 C277 1.259 . S
O275 Mg266 2.114 . S
O275 C278 1.252 . S
O276 Mg266 2.251 . S
O276 Mg269 2.079 . S
O276 C278 1.273 . S
C277 O273 1.246 . S
C277 O274 1.259 . S
C278 O275 1.252 . S
C278 O276 1.273 . S
O279 Mg266 2.010 . S
O279 C271 1.249 . S
Mg280 O281 2.028 . S
Mg280 O287 1.986 . S
Mg280 O289 2.114 . S
Mg280 O290 2.251 . S
Mg280 O293 2.010 . S
O281 Mg280 2.028 . S
O281 C284 1.250 . S
O282 Mg283 2.028 . S
O282 C284 1.248 . S
Mg283 O282 2.028 . S
Mg283 O288 2.032 . S
Mg283 O290 2.079 . S
C284 O281 1.250 . S
C284 O282 1.248 . S
C285 O286 1.264 . S
C285 O293 1.249 . S
O286 C285 1.264 . S
O287 Mg280 1.986 . S
O287 C291 1.246 . S
O288 Mg283 2.032 . S
O288 C291 1.259 . S
O289 Mg280 2.114 . S
O289 C292 1.252 . S
O290 Mg280 2.251 . S
O290 Mg283 2.079 . S
O290 C292 1.273 . S
C291 O287 1.246 . S
C291 O288 1.259 . S
C292 O289 1.252 . S
C292 O290 1.273 . S
O293 Mg280 2.010 . S
O293 C285 1.249 . S
Mg294 O295 2.028 . S
Mg294 O301 1.986 . S
Mg294 O303 2.114 . S
Mg294 O304 2.251 . S
Mg294 O307 2.010 . S
O295 Mg294 2.028 . S
O295 C298 1.250 . S
O296 Mg297 2.028 . S
O296 C298 1.248 . S
Mg297 O296 2.028 . S
Mg297 O302 2.032 . S
Mg297 O304 2.079 . S
C298 O295 1.250 . S
C298 O296 1.248 . S
C299 O300 1.264 . S
C299 O307 1.249 . S
O300 C299 1.264 . S
O301 Mg294 1.986 . S
O301 C305 1.246 . S
O302 Mg297 2.032 . S
O302 C305 1.259 . S
O303 Mg294 2.114 . S
O303 C306 1.252 . S
O304 Mg294 2.251 . S
O304 Mg297 2.079 . S
O304 C306 1.273 . S
C305 O301 1.246 . S
C305 O302 1.259 . S
C306 O303 1.252 . S
C306 O304 1.273 . S
O307 Mg294 2.010 . S
O307 C299 1.249 . S
Mg308 O309 2.028 . S
Mg308 O315 1.986 . S
Mg308 O317 2.114 . S
Mg308 O318 2.251 . S
Mg308 O321 2.010 . S
O309 Mg308 2.028 . S
O309 C312 1.250 . S
O310 Mg311 2.028 . S
O310 C312 1.248 . S
Mg311 O310 2.028 . S
Mg311 O316 2.032 . S
Mg311 O318 2.079 . S
C312 O309 1.250 . S
C312 O310 1.248 . S
C313 O314 1.264 . S
C313 O321 1.249 . S
O314 C313 1.264 . S
O315 Mg308 1.986 . S
O315 C319 1.246 . S
O316 Mg311 2.032 . S
O316 C319 1.259 . S
O317 Mg308 2.114 . S
O317 C320 1.252 . S
O318 Mg308 2.251 . S
O318 Mg311 2.079 . S
O318 C320 1.273 . S
C319 O315 1.246 . S
C319 O316 1.259 . S
C320 O317 1.252 . S
C320 O318 1.273 . S
O321 Mg308 2.010 . S
O321 C313 1.249 . S
Mg322 O323 2.028 . S
Mg322 O329 1.986 . S
Mg322 O331 2.114 . S
Mg322 O332 2.251 . S
Mg322 O335 2.010 . S
O323 Mg322 2.028 . S
O323 C326 1.250 . S
O324 Mg325 2.028 . S
O324 C326 1.248 . S
Mg325 O324 2.028 . S
Mg325 O330 2.032 . S
Mg325 O332 2.079 . S
C326 O323 1.250 . S
C326 O324 1.248 . S
C327 O328 1.264 . S
C327 O335 1.249 . S
O328 C327 1.264 . S
O329 Mg322 1.986 . S
O329 C333 1.246 . S
O330 Mg325 2.032 . S
O330 C333 1.259 . S
O331 Mg322 2.114 . S
O331 C334 1.252 . S
O332 Mg322 2.251 . S
O332 Mg325 2.079 . S
O332 C334 1.273 . S
C333 O329 1.246 . S
C333 O330 1.259 . S
C334 O331 1.252 . S
C334 O332 1.273 . S
O335 Mg322 2.010 . S
O335 C327 1.249 . S
Mg336 O337 2.028 . S
Mg336 O343 1.986 . S
Mg336 O345 2.114 . S
Mg336 O346 2.251 . S
Mg336 O349 2.010 . S
O337 Mg336 2.028 . S
O337 C340 1.250 . S
O338 Mg339 2.028 . S
O338 C340 1.248 . S
Mg339 O338 2.028 . S
Mg339 O344 2.032 . S
Mg339 O346 2.079 . S
C340 O337 1.250 . S
C340 O338 1.248 . S
C341 O342 1.264 . S
C341 O349 1.249 . S
O342 C341 1.264 . S
O343 Mg336 1.986 . S
O343 C347 1.246 . S
O344 Mg339 2.032 . S
O344 C347 1.259 . S
O345 Mg336 2.114 . S
O345 C348 1.252 . S
O346 Mg336 2.251 . S
O346 Mg339 2.079 . S
O346 C348 1.273 . S
C347 O343 1.246 . S
C347 O344 1.259 . S
C348 O345 1.252 . S
C348 O346 1.273 . S
O349 Mg336 2.010 . S
O349 C341 1.249 . S
Mg350 O351 2.028 . S
Mg350 O357 1.986 . S
Mg350 O359 2.114 . S
Mg350 O360 2.251 . S
Mg350 O363 2.010 . S
O351 Mg350 2.028 . S
O351 C354 1.250 . S
O352 Mg353 2.028 . S
O352 C354 1.248 . S
Mg353 O352 2.028 . S
Mg353 O358 2.032 . S
Mg353 O360 2.079 . S
C354 O351 1.250 . S
C354 O352 1.248 . S
C355 O356 1.264 . S
C355 O363 1.249 . S
O356 C355 1.264 . S
O357 Mg350 1.986 . S
O357 C361 1.246 . S
O358 Mg353 2.032 . S
O358 C361 1.259 . S
O359 Mg350 2.114 . S
O359 C362 1.252 . S
O360 Mg350 2.251 . S
O360 Mg353 2.079 . S
O360 C362 1.273 . S
C361 O357 1.246 . S
C361 O358 1.259 . S
C362 O359 1.252 . S
C362 O360 1.273 . S
O363 Mg350 2.010 . S
O363 C355 1.249 . S
Mg364 O365 2.028 . S
Mg364 O371 1.986 . S
Mg364 O373 2.114 . S
Mg364 O374 2.251 . S
Mg364 O377 2.010 . S
O365 Mg364 2.028 . S
O365 C368 1.250 . S
O366 Mg367 2.028 . S
O366 C368 1.248 . S
Mg367 O366 2.028 . S
Mg367 O372 2.032 . S
Mg367 O374 2.079 . S
C368 O365 1.250 . S
C368 O366 1.248 . S
C369 O370 1.264 . S
C369 O377 1.249 . S
O370 C369 1.264 . S
O371 Mg364 1.986 . S
O371 C375 1.246 . S
O372 Mg367 2.032 . S
O372 C375 1.259 . S
O373 Mg364 2.114 . S
O373 C376 1.252 . S
O374 Mg364 2.251 . S
O374 Mg367 2.079 . S
O374 C376 1.273 . S
C375 O371 1.246 . S
C375 O372 1.259 . S
C376 O373 1.252 . S
C376 O374 1.273 . S
O377 Mg364 2.010 . S
O377 C369 1.249 . S
Mg378 O379 2.028 . S
Mg378 O385 1.986 . S
Mg378 O387 2.114 . S
Mg378 O388 2.251 . S
Mg378 O391 2.010 . S
O379 Mg378 2.028 . S
O379 C382 1.250 . S
O380 Mg381 2.028 . S
O380 C382 1.248 . S
Mg381 O380 2.028 . S
Mg381 O386 2.032 . S
Mg381 O388 2.079 . S
C382 O379 1.250 . S
C382 O380 1.248 . S
C383 O384 1.264 . S
C383 O391 1.249 . S
O384 C383 1.264 . S
O385 Mg378 1.986 . S
O385 C389 1.246 . S
O386 Mg381 2.032 . S
O386 C389 1.259 . S
O387 Mg378 2.114 . S
O387 C390 1.252 . S
O388 Mg378 2.251 . S
O388 Mg381 2.079 . S
O388 C390 1.273 . S
C389 O385 1.246 . S
C389 O386 1.259 . S
C390 O387 1.252 . S
C390 O388 1.273 . S
O391 Mg378 2.010 . S
O391 C383 1.249 . S
Mg392 O393 2.028 . S
Mg392 O399 1.986 . S
Mg392 O401 2.114 . S
Mg392 O402 2.251 . S
Mg392 O405 2.010 . S
O393 Mg392 2.028 . S
O393 C396 1.250 . S
O394 Mg395 2.028 . S
O394 C396 1.248 . S
Mg395 O394 2.028 . S
Mg395 O400 2.032 . S
Mg395 O402 2.079 . S
C396 O393 1.250 . S
C396 O394 1.248 . S
C397 O398 1.264 . S
C397 O405 1.249 . S
O398 C397 1.264 . S
O399 Mg392 1.986 . S
O399 C403 1.246 . S
O400 Mg395 2.032 . S
O400 C403 1.259 . S
O401 Mg392 2.114 . S
O401 C404 1.252 . S
O402 Mg392 2.251 . S
O402 Mg395 2.079 . S
O402 C404 1.273 . S
C403 O399 1.246 . S
C403 O400 1.259 . S
C404 O401 1.252 . S
C404 O402 1.273 . S
O405 Mg392 2.010 . S
O405 C397 1.249 . S
Mg406 O407 2.028 . S
Mg406 O413 1.986 . S
Mg406 O415 2.114 . S
Mg406 O416 2.251 . S
Mg406 O419 2.010 . S
O407 Mg406 2.028 . S
O407 C410 1.250 . S
O408 Mg409 2.028 . S
O408 C410 1.248 . S
Mg409 O408 2.028 . S
Mg409 O414 2.032 . S
Mg409 O416 2.079 . S
C410 O407 1.250 . S
C410 O408 1.248 . S
C411 O412 1.264 . S
C411 O419 1.249 . S
O412 C411 1.264 . S
O413 Mg406 1.986 . S
O413 C417 1.246 . S
O414 Mg409 2.032 . S
O414 C417 1.259 . S
O415 Mg406 2.114 . S
O415 C418 1.252 . S
O416 Mg406 2.251 . S
O416 Mg409 2.079 . S
O416 C418 1.273 . S
C417 O413 1.246 . S
C417 O414 1.259 . S
C418 O415 1.252 . S
C418 O416 1.273 . S
O419 Mg406 2.010 . S
O419 C411 1.249 . S
Mg420 O421 2.028 . S
Mg420 O427 1.986 . S
Mg420 O429 2.114 . S
Mg420 O430 2.251 . S
Mg420 O433 2.010 . S
O421 Mg420 2.028 . S
O421 C424 1.250 . S
O422 Mg423 2.028 . S
O422 C424 1.248 . S
Mg423 O422 2.028 . S
Mg423 O428 2.032 . S
Mg423 O430 2.079 . S
C424 O421 1.250 . S
C424 O422 1.248 . S
C425 O426 1.264 . S
C425 O433 1.249 . S
O426 C425 1.264 . S
O427 Mg420 1.986 . S
O427 C431 1.246 . S
O428 Mg423 2.032 . S
O428 C431 1.259 . S
O429 Mg420 2.114 . S
O429 C432 1.252 . S
O430 Mg420 2.251 . S
O430 Mg423 2.079 . S
O430 C432 1.273 . S
C431 O427 1.246 . S
C431 O428 1.259 . S
C432 O429 1.252 . S
C432 O430 1.273 . S
O433 Mg420 2.010 . S
O433 C425 1.249 . S
Mg434 O435 2.028 . S
Mg434 O441 1.986 . S
Mg434 O443 2.114 . S
Mg434 O444 2.251 . S
Mg434 O447 2.010 . S
O435 Mg434 2.028 . S
O435 C438 1.250 . S
O436 Mg437 2.028 . S
O436 C438 1.248 . S
Mg437 O436 2.028 . S
Mg437 O442 2.032 . S
Mg437 O444 2.079 . S
C438 O435 1.250 . S
C438 O436 1.248 . S
C439 O440 1.264 . S
C439 O447 1.249 . S
O440 C439 1.264 . S
O441 Mg434 1.986 . S
O441 C445 1.246 . S
O442 Mg437 2.032 . S
O442 C445 1.259 . S
O443 Mg434 2.114 . S
O443 C446 1.252 . S
O444 Mg434 2.251 . S
O444 Mg437 2.079 . S
O444 C446 1.273 . S
C445 O441 1.246 . S
C445 O442 1.259 . S
C446 O443 1.252 . S
C446 O444 1.273 . S
O447 Mg434 2.010 . S
O447 C439 1.249 . S
Mg448 O449 2.028 . S
Mg448 O455 1.986 . S
Mg448 O457 2.114 . S
Mg448 O458 2.251 . S
Mg448 O461 2.010 . S
O449 Mg448 2.028 . S
O449 C452 1.250 . S
O450 Mg451 2.028 . S
O450 C452 1.248 . S
Mg451 O450 2.028 . S
Mg451 O456 2.032 . S
Mg451 O458 2.079 . S
C452 O449 1.250 . S
C452 O450 1.248 . S
C453 O454 1.264 . S
C453 O461 1.249 . S
O454 C453 1.264 . S
O455 Mg448 1.986 . S
O455 C459 1.246 . S
O456 Mg451 2.032 . S
O456 C459 1.259 . S
O457 Mg448 2.114 . S
O457 C460 1.252 . S
O458 Mg448 2.251 . S
O458 Mg451 2.079 . S
O458 C460 1.273 . S
C459 O455 1.246 . S
C459 O456 1.259 . S
C460 O457 1.252 . S
C460 O458 1.273 . S
O461 Mg448 2.010 . S
O461 C453 1.249 . S
Mg462 O463 2.028 . S
Mg462 O469 1.986 . S
Mg462 O471 2.114 . S
Mg462 O472 2.251 . S
Mg462 O475 2.010 . S
O463 Mg462 2.028 . S
O463 C466 1.250 . S
O464 Mg465 2.028 . S
O464 C466 1.248 . S
Mg465 O464 2.028 . S
Mg465 O470 2.032 . S
Mg465 O472 2.079 . S
C466 O463 1.250 . S
C466 O464 1.248 . S
C467 O468 1.264 . S
C467 O475 1.249 . S
O468 C467 1.264 . S
O469 Mg462 1.986 . S
O469 C473 1.246 . S
O470 Mg465 2.032 . S
O470 C473 1.259 . S
O471 Mg462 2.114 . S
O471 C474 1.252 . S
O472 Mg462 2.251 . S
O472 Mg465 2.079 . S
O472 C474 1.273 . S
C473 O469 1.246 . S
C473 O470 1.259 . S
C474 O471 1.252 . S
C474 O472 1.273 . S
O475 Mg462 2.010 . S
O475 C467 1.249 . S
Mg476 O477 2.028 . S
Mg476 O483 1.986 . S
Mg476 O485 2.114 . S
Mg476 O486 2.251 . S
Mg476 O489 2.010 . S
O477 Mg476 2.028 . S
O477 C480 1.250 . S
O478 Mg479 2.028 . S
O478 C480 1.248 . S
Mg479 O478 2.028 . S
Mg479 O484 2.032 . S
Mg479 O486 2.079 . S
C480 O477 1.250 . S
C480 O478 1.248 . S
C481 O482 1.264 . S
C481 O489 1.249 . S
O482 C481 1.264 . S
O483 Mg476 1.986 . S
O483 C487 1.246 . S
O484 Mg479 2.032 . S
O484 C487 1.259 . S
O485 Mg476 2.114 . S
O485 C488 1.252 . S
O486 Mg476 2.251 . S
O486 Mg479 2.079 . S
O486 C488 1.273 . S
C487 O483 1.246 . S
C487 O484 1.259 . S
C488 O485 1.252 . S
C488 O486 1.273 . S
O489 Mg476 2.010 . S
O489 C481 1.249 . S
Mg490 O491 2.028 . S
Mg490 O497 1.986 . S
Mg490 O499 2.114 . S
Mg490 O500 2.251 . S
Mg490 O503 2.010 . S
O491 Mg490 2.028 . S
O491 C494 1.250 . S
O492 Mg493 2.028 . S
O492 C494 1.248 . S
Mg493 O492 2.028 . S
Mg493 O498 2.032 . S
Mg493 O500 2.079 . S
C494 O491 1.250 . S
C494 O492 1.248 . S
C495 O496 1.264 . S
C495 O503 1.249 . S
O496 C495 1.264 . S
O497 Mg490 1.986 . S
O497 C501 1.246 . S
O498 Mg493 2.032 . S
O498 C501 1.259 . S
O499 Mg490 2.114 . S
O499 C502 1.252 . S
O500 Mg490 2.251 . S
O500 Mg493 2.079 . S
O500 C502 1.273 . S
C501 O497 1.246 . S
C501 O498 1.259 . S
C502 O499 1.252 . S
C502 O500 1.273 . S
O503 Mg490 2.010 . S
O503 C495 1.249 . S
H504 C510 0.930 . S
H505 C514 0.930 1_556 S
H506 C519 0.929 1_556 S
H507 C517 0.929 . S
H508 C512 0.929 1_556 S
H509 C518 0.929 . S
C510 H504 0.930 . S
C510 C511 1.367 . S
C510 C518 1.378 . S
C511 C510 1.367 . S
C511 C519 1.433 . S
C512 H508 0.929 1_554 S
C512 C514 1.378 . S
C512 C516 1.350 . S
C513 C516 1.463 . S
C513 C518 1.350 . S
C513 N521 1.427 . S
C514 H505 0.930 1_554 S
C514 C512 1.378 . S
C514 C515 1.367 . S
C515 C514 1.367 . S
C515 C517 1.433 . S
C516 C512 1.350 . S
C516 C513 1.463 . S
C516 N520 1.427 . S
C517 H507 0.929 . S
C517 C515 1.433 . S
C517 N520 1.384 . S
C518 H509 0.929 . S
C518 C510 1.378 . S
C518 C513 1.350 . S
C519 H506 0.929 1_554 S
C519 C511 1.433 . S
C519 N521 1.384 . S
N520 C516 1.427 . S
N520 C517 1.384 . S
N521 C513 1.427 . S
N521 C519 1.384 . S
H522 C528 0.930 . S
H523 C532 0.930 . S
H524 C537 0.929 . S
H525 C535 0.929 . S
H526 C530 0.929 . S
H527 C536 0.929 . S
C528 H522 0.930 . S
C528 C529 1.367 . S
C528 C536 1.378 . S
C529 C528 1.367 . S
C529 C537 1.433 . S
C530 H526 0.929 . S
C530 C532 1.378 . S
C530 C534 1.350 . S
C531 C534 1.463 . S
C531 C536 1.350 . S
C531 N539 1.427 . S
C532 H523 0.930 . S
C532 C530 1.378 . S
C532 C533 1.367 . S
C533 C532 1.367 . S
C533 C535 1.433 . S
C534 C530 1.350 . S
C534 C531 1.463 . S
C534 N538 1.427 . S
C535 H525 0.929 . S
C535 C533 1.433 . S
C535 N538 1.384 . S
C536 H527 0.929 . S
C536 C528 1.378 . S
C536 C531 1.350 . S
C537 H524 0.929 . S
C537 C529 1.433 . S
C537 N539 1.384 . S
N538 C534 1.427 . S
N538 C535 1.384 . S
N539 C531 1.427 . S
N539 C537 1.384 . S
H540 C546 0.930 . S
H541 C550 0.930 1_556 S
H542 C555 0.929 1_556 S
H543 C553 0.929 . S
H544 C548 0.929 1_556 S
H545 C554 0.929 . S
C546 H540 0.930 . S
C546 C547 1.367 . S
C546 C554 1.378 . S
C547 C546 1.367 . S
C547 C555 1.433 . S
C548 H544 0.929 1_554 S
C548 C550 1.378 . S
C548 C552 1.350 . S
C549 C552 1.463 . S
C549 C554 1.350 . S
C549 N557 1.427 . S
C550 H541 0.930 1_554 S
C550 C548 1.378 . S
C550 C551 1.367 . S
C551 C550 1.367 . S
C551 C553 1.433 . S
C552 C548 1.350 . S
C552 C549 1.463 . S
C552 N556 1.427 . S
C553 H543 0.929 . S
C553 C551 1.433 . S
C553 N556 1.384 . S
C554 H545 0.929 . S
C554 C546 1.378 . S
C554 C549 1.350 . S
C555 H542 0.929 1_554 S
C555 C547 1.433 . S
C555 N557 1.384 . S
N556 C552 1.427 . S
N556 C553 1.384 . S
N557 C549 1.427 . S
N557 C555 1.384 . S
H558 C564 0.930 . S
H559 C568 0.930 1_554 S
H560 C573 0.929 1_554 S
H561 C571 0.929 . S
H562 C566 0.929 1_554 S
H563 C572 0.929 . S
C564 H558 0.930 . S
C564 C565 1.367 . S
C564 C572 1.378 . S
C565 C564 1.367 . S
C565 C573 1.433 . S
C566 H562 0.929 1_556 S
C566 C568 1.378 . S
C566 C570 1.350 . S
C567 C570 1.463 . S
C567 C572 1.350 . S
C567 N575 1.427 . S
C568 H559 0.930 1_556 S
C568 C566 1.378 . S
C568 C569 1.367 . S
C569 C568 1.367 . S
C569 C571 1.433 . S
C570 C566 1.350 . S
C570 C567 1.463 . S
C570 N574 1.427 . S
C571 H561 0.929 . S
C571 C569 1.433 . S
C571 N574 1.384 . S
C572 H563 0.929 . S
C572 C564 1.378 . S
C572 C567 1.350 . S
C573 H560 0.929 1_556 S
C573 C565 1.433 . S
C573 N575 1.384 . S
N574 C570 1.427 . S
N574 C571 1.384 . S
N575 C567 1.427 . S
N575 C573 1.384 . S
H576 C582 0.930 . S
H577 C586 0.930 1_554 S
H578 C591 0.929 1_554 S
H579 C589 0.929 . S
H580 C584 0.929 1_554 S
H581 C590 0.929 . S
C582 H576 0.930 . S
C582 C583 1.367 . S
C582 C590 1.378 . S
C583 C582 1.367 . S
C583 C591 1.433 . S
C584 H580 0.929 1_556 S
C584 C586 1.378 . S
C584 C588 1.350 . S
C585 C588 1.463 . S
C585 C590 1.350 . S
C585 N593 1.427 . S
C586 H577 0.930 1_556 S
C586 C584 1.378 . S
C586 C587 1.367 . S
C587 C586 1.367 . S
C587 C589 1.433 . S
C588 C584 1.350 . S
C588 C585 1.463 . S
C588 N592 1.427 . S
C589 H579 0.929 . S
C589 C587 1.433 . S
C589 N592 1.384 . S
C590 H581 0.929 . S
C590 C582 1.378 . S
C590 C585 1.350 . S
C591 H578 0.929 1_556 S
C591 C583 1.433 . S
C591 N593 1.384 . S
N592 C588 1.427 . S
N592 C589 1.384 . S
N593 C585 1.427 . S
N593 C591 1.384 . S
H594 C600 0.930 . S
H595 C604 0.930 1_554 S
H596 C609 0.929 1_554 S
H597 C607 0.929 . S
H598 C602 0.929 1_554 S
H599 C608 0.929 . S
C600 H594 0.930 . S
C600 C601 1.367 . S
C600 C608 1.378 . S
C601 C600 1.367 . S
C601 C609 1.433 . S
C602 H598 0.929 1_556 S
C602 C604 1.378 . S
C602 C606 1.350 . S
C603 C606 1.463 . S
C603 C608 1.350 . S
C603 N611 1.427 . S
C604 H595 0.930 1_556 S
C604 C602 1.378 . S
C604 C605 1.367 . S
C605 C604 1.367 . S
C605 C607 1.433 . S
C606 C602 1.350 . S
C606 C603 1.463 . S
C606 N610 1.427 . S
C607 H597 0.929 . S
C607 C605 1.433 . S
C607 N610 1.384 . S
C608 H599 0.929 . S
C608 C600 1.378 . S
C608 C603 1.350 . S
C609 H596 0.929 1_556 S
C609 C601 1.433 . S
C609 N611 1.384 . S
N610 C606 1.427 . S
N610 C607 1.384 . S
N611 C603 1.427 . S
N611 C609 1.384 . S
H612 C618 0.930 . S
H613 C622 0.930 . S
H614 C627 0.929 . S
H615 C625 0.929 . S
H616 C620 0.929 . S
H617 C626 0.929 . S
C618 H612 0.930 . S
C618 C619 1.367 . S
C618 C626 1.378 . S
C619 C618 1.367 . S
C619 C627 1.433 . S
C620 H616 0.929 . S
C620 C622 1.378 . S
C620 C624 1.350 . S
C621 C624 1.463 . S
C621 C626 1.350 . S
C621 N629 1.427 . S
C622 H613 0.930 . S
C622 C620 1.378 . S
C622 C623 1.367 . S
C623 C622 1.367 . S
C623 C625 1.433 . S
C624 C620 1.350 . S
C624 C621 1.463 . S
C624 N628 1.427 . S
C625 H615 0.929 . S
C625 C623 1.433 . S
C625 N628 1.384 . S
C626 H617 0.929 . S
C626 C618 1.378 . S
C626 C621 1.350 . S
C627 H614 0.929 . S
C627 C619 1.433 . S
C627 N629 1.384 . S
N628 C624 1.427 . S
N628 C625 1.384 . S
N629 C621 1.427 . S
N629 C627 1.384 . S
H630 C636 0.930 . S
H631 C640 0.930 . S
H632 C645 0.929 . S
H633 C643 0.929 . S
H634 C638 0.929 . S
H635 C644 0.929 . S
C636 H630 0.930 . S
C636 C637 1.367 . S
C636 C644 1.378 . S
C637 C636 1.367 . S
C637 C645 1.433 . S
C638 H634 0.929 . S
C638 C640 1.378 . S
C638 C642 1.350 . S
C639 C642 1.463 . S
C639 C644 1.350 . S
C639 N647 1.427 . S
C640 H631 0.930 . S
C640 C638 1.378 . S
C640 C641 1.367 . S
C641 C640 1.367 . S
C641 C643 1.433 . S
C642 C638 1.350 . S
C642 C639 1.463 . S
C642 N646 1.427 . S
C643 H633 0.929 . S
C643 C641 1.433 . S
C643 N646 1.384 . S
C644 H635 0.929 . S
C644 C636 1.378 . S
C644 C639 1.350 . S
C645 H632 0.929 . S
C645 C637 1.433 . S
C645 N647 1.384 . S
N646 C642 1.427 . S
N646 C643 1.384 . S
N647 C639 1.427 . S
N647 C645 1.384 . S
H648 C654 0.930 . S
H649 C658 0.930 . S
H650 C663 0.929 . S
H651 C661 0.929 . S
H652 C656 0.929 . S
H653 C662 0.929 . S
C654 H648 0.930 . S
C654 C655 1.367 . S
C654 C662 1.378 . S
C655 C654 1.367 . S
C655 C663 1.433 . S
C656 H652 0.929 . S
C656 C658 1.378 . S
C656 C660 1.350 . S
C657 C660 1.463 . S
C657 C662 1.350 . S
C657 N665 1.427 . S
C658 H649 0.930 . S
C658 C656 1.378 . S
C658 C659 1.367 . S
C659 C658 1.367 . S
C659 C661 1.433 . S
C660 C656 1.350 . S
C660 C657 1.463 . S
C660 N664 1.427 . S
C661 H651 0.929 . S
C661 C659 1.433 . S
C661 N664 1.384 . S
C662 H653 0.929 . S
C662 C654 1.378 . S
C662 C657 1.350 . S
C663 H650 0.929 . S
C663 C655 1.433 . S
C663 N665 1.384 . S
N664 C660 1.427 . S
N664 C661 1.384 . S
N665 C657 1.427 . S
N665 C663 1.384 . S
H666 C672 0.930 . S
H667 C676 0.930 . S
H668 C681 0.929 . S
H669 C679 0.929 . S
H670 C674 0.929 . S
H671 C680 0.929 . S
C672 H666 0.930 . S
C672 C673 1.367 . S
C672 C680 1.378 . S
C673 C672 1.367 . S
C673 C681 1.433 . S
C674 H670 0.929 . S
C674 C676 1.378 . S
C674 C678 1.350 . S
C675 C678 1.463 . S
C675 C680 1.350 . S
C675 N683 1.427 . S
C676 H667 0.930 . S
C676 C674 1.378 . S
C676 C677 1.367 . S
C677 C676 1.367 . S
C677 C679 1.433 . S
C678 C674 1.350 . S
C678 C675 1.463 . S
C678 N682 1.427 . S
C679 H669 0.929 . S
C679 C677 1.433 . S
C679 N682 1.384 . S
C680 H671 0.929 . S
C680 C672 1.378 . S
C680 C675 1.350 . S
C681 H668 0.929 . S
C681 C673 1.433 . S
C681 N683 1.384 . S
N682 C678 1.427 . S
N682 C679 1.384 . S
N683 C675 1.427 . S
N683 C681 1.384 . S
H684 C690 0.930 . S
H685 C694 0.930 . S
H686 C699 0.929 . S
H687 C697 0.929 . S
H688 C692 0.929 . S
H689 C698 0.929 . S
C690 H684 0.930 . S
C690 C691 1.367 . S
C690 C698 1.378 . S
C691 C690 1.367 . S
C691 C699 1.433 . S
C692 H688 0.929 . S
C692 C694 1.378 . S
C692 C696 1.350 . S
C693 C696 1.463 . S
C693 C698 1.350 . S
C693 N701 1.427 . S
C694 H685 0.930 . S
C694 C692 1.378 . S
C694 C695 1.367 . S
C695 C694 1.367 . S
C695 C697 1.433 . S
C696 C692 1.350 . S
C696 C693 1.463 . S
C696 N700 1.427 . S
C697 H687 0.929 . S
C697 C695 1.433 . S
C697 N700 1.384 . S
C698 H689 0.929 . S
C698 C690 1.378 . S
C698 C693 1.350 . S
C699 H686 0.929 . S
C699 C691 1.433 . S
C699 N701 1.384 . S
N700 C696 1.427 . S
N700 C697 1.384 . S
N701 C693 1.427 . S
N701 C699 1.384 . S
H702 C708 0.930 . S
H703 C712 0.930 . S
H704 C717 0.929 . S
H705 C715 0.929 . S
H706 C710 0.929 . S
H707 C716 0.929 . S
C708 H702 0.930 . S
C708 C709 1.367 . S
C708 C716 1.378 . S
C709 C708 1.367 . S
C709 C717 1.433 . S
C710 H706 0.929 . S
C710 C712 1.378 . S
C710 C714 1.350 . S
C711 C714 1.463 . S
C711 C716 1.350 . S
C711 N719 1.427 . S
C712 H703 0.930 . S
C712 C710 1.378 . S
C712 C713 1.367 . S
C713 C712 1.367 . S
C713 C715 1.433 . S
C714 C710 1.350 . S
C714 C711 1.463 . S
C714 N718 1.427 . S
C715 H705 0.929 . S
C715 C713 1.433 . S
C715 N718 1.384 . S
C716 H707 0.929 . S
C716 C708 1.378 . S
C716 C711 1.350 . S
C717 H704 0.929 . S
C717 C709 1.433 . S
C717 N719 1.384 . S
N718 C714 1.427 . S
N718 C715 1.384 . S
N719 C711 1.427 . S
N719 C717 1.384 . S
H720 C726 0.930 . S
H721 C730 0.930 . S
H722 C735 0.929 . S
H723 C733 0.929 . S
H724 C728 0.929 . S
H725 C734 0.929 . S
C726 H720 0.930 . S
C726 C727 1.367 . S
C726 C734 1.378 . S
C727 C726 1.367 . S
C727 C735 1.433 . S
C728 H724 0.929 . S
C728 C730 1.378 . S
C728 C732 1.350 . S
C729 C732 1.463 . S
C729 C734 1.350 . S
C729 N737 1.427 . S
C730 H721 0.930 . S
C730 C728 1.378 . S
C730 C731 1.367 . S
C731 C730 1.367 . S
C731 C733 1.433 . S
C732 C728 1.350 . S
C732 C729 1.463 . S
C732 N736 1.427 . S
C733 H723 0.929 . S
C733 C731 1.433 . S
C733 N736 1.384 . S
C734 H725 0.929 . S
C734 C726 1.378 . S
C734 C729 1.350 . S
C735 H722 0.929 . S
C735 C727 1.433 . S
C735 N737 1.384 . S
N736 C732 1.427 . S
N736 C733 1.384 . S
N737 C729 1.427 . S
N737 C735 1.384 . S
H738 C744 0.930 . S
H739 C748 0.930 . S
H740 C753 0.929 . S
H741 C751 0.929 . S
H742 C746 0.929 . S
H743 C752 0.929 . S
C744 H738 0.930 . S
C744 C745 1.367 . S
C744 C752 1.378 . S
C745 C744 1.367 . S
C745 C753 1.433 . S
C746 H742 0.929 . S
C746 C748 1.378 . S
C746 C750 1.350 . S
C747 C750 1.463 . S
C747 C752 1.350 . S
C747 N755 1.427 . S
C748 H739 0.930 . S
C748 C746 1.378 . S
C748 C749 1.367 . S
C749 C748 1.367 . S
C749 C751 1.433 . S
C750 C746 1.350 . S
C750 C747 1.463 . S
C750 N754 1.427 . S
C751 H741 0.929 . S
C751 C749 1.433 . S
C751 N754 1.384 . S
C752 H743 0.929 . S
C752 C744 1.378 . S
C752 C747 1.350 . S
C753 H740 0.929 . S
C753 C745 1.433 . S
C753 N755 1.384 . S
N754 C750 1.427 . S
N754 C751 1.384 . S
N755 C747 1.427 . S
N755 C753 1.384 . S
H756 C762 0.930 . S
H757 C766 0.930 . S
H758 C771 0.929 . S
H759 C769 0.929 . S
H760 C764 0.929 . S
H761 C770 0.929 . S
C762 H756 0.930 . S
C762 C763 1.367 . S
C762 C770 1.378 . S
C763 C762 1.367 . S
C763 C771 1.433 . S
C764 H760 0.929 . S
C764 C766 1.378 . S
C764 C768 1.350 . S
C765 C768 1.463 . S
C765 C770 1.350 . S
C765 N773 1.427 . S
C766 H757 0.930 . S
C766 C764 1.378 . S
C766 C767 1.367 . S
C767 C766 1.367 . S
C767 C769 1.433 . S
C768 C764 1.350 . S
C768 C765 1.463 . S
C768 N772 1.427 . S
C769 H759 0.929 . S
C769 C767 1.433 . S
C769 N772 1.384 . S
C770 H761 0.929 . S
C770 C762 1.378 . S
C770 C765 1.350 . S
C771 H758 0.929 . S
C771 C763 1.433 . S
C771 N773 1.384 . S
N772 C768 1.427 . S
N772 C769 1.384 . S
N773 C765 1.427 . S
N773 C771 1.384 . S
H774 C780 0.930 . S
H775 C784 0.930 . S
H776 C789 0.929 . S
H777 C787 0.929 . S
H778 C782 0.929 . S
H779 C788 0.929 . S
C780 H774 0.930 . S
C780 C781 1.367 . S
C780 C788 1.378 . S
C781 C780 1.367 . S
C781 C789 1.433 . S
C782 H778 0.929 . S
C782 C784 1.378 . S
C782 C786 1.350 . S
C783 C786 1.463 . S
C783 C788 1.350 . S
C783 N791 1.427 . S
C784 H775 0.930 . S
C784 C782 1.378 . S
C784 C785 1.367 . S
C785 C784 1.367 . S
C785 C787 1.433 . S
C786 C782 1.350 . S
C786 C783 1.463 . S
C786 N790 1.427 . S
C787 H777 0.929 . S
C787 C785 1.433 . S
C787 N790 1.384 . S
C788 H779 0.929 . S
C788 C780 1.378 . S
C788 C783 1.350 . S
C789 H776 0.929 . S
C789 C781 1.433 . S
C789 N791 1.384 . S
N790 C786 1.427 . S
N790 C787 1.384 . S
N791 C783 1.427 . S
N791 C789 1.384 . S
H792 C798 0.930 . S
H793 C802 0.930 . S
H794 C807 0.929 . S
H795 C805 0.929 . S
H796 C800 0.929 . S
H797 C806 0.929 . S
C798 H792 0.930 . S
C798 C799 1.367 . S
C798 C806 1.378 . S
C799 C798 1.367 . S
C799 C807 1.433 . S
C800 H796 0.929 . S
C800 C802 1.378 . S
C800 C804 1.350 . S
C801 C804 1.463 . S
C801 C806 1.350 . S
C801 N809 1.427 . S
C802 H793 0.930 . S
C802 C800 1.378 . S
C802 C803 1.367 . S
C803 C802 1.367 . S
C803 C805 1.433 . S
C804 C800 1.350 . S
C804 C801 1.463 . S
C804 N808 1.427 . S
C805 H795 0.929 . S
C805 C803 1.433 . S
C805 N808 1.384 . S
C806 H797 0.929 . S
C806 C798 1.378 . S
C806 C801 1.350 . S
C807 H794 0.929 . S
C807 C799 1.433 . S
C807 N809 1.384 . S
N808 C804 1.427 . S
N808 C805 1.384 . S
N809 C801 1.427 . S
N809 C807 1.384 . S
H810 C816 0.930 . S
H811 C820 0.930 . S
H812 C825 0.929 . S
H813 C823 0.929 . S
H814 C818 0.929 . S
H815 C824 0.929 . S
C816 H810 0.930 . S
C816 C817 1.367 . S
C816 C824 1.378 . S
C817 C816 1.367 . S
C817 C825 1.433 . S
C818 H814 0.929 . S
C818 C820 1.378 . S
C818 C822 1.350 . S
C819 C822 1.463 . S
C819 C824 1.350 . S
C819 N827 1.427 . S
C820 H811 0.930 . S
C820 C818 1.378 . S
C820 C821 1.367 . S
C821 C820 1.367 . S
C821 C823 1.433 . S
C822 C818 1.350 . S
C822 C819 1.463 . S
C822 N826 1.427 . S
C823 H813 0.929 . S
C823 C821 1.433 . S
C823 N826 1.384 . S
C824 H815 0.929 . S
C824 C816 1.378 . S
C824 C819 1.350 . S
C825 H812 0.929 . S
C825 C817 1.433 . S
C825 N827 1.384 . S
N826 C822 1.427 . S
N826 C823 1.384 . S
N827 C819 1.427 . S
N827 C825 1.384 . S
H828 C834 0.930 . S
H829 C838 0.930 . S
H830 C843 0.929 . S
H831 C841 0.929 . S
H832 C836 0.929 . S
H833 C842 0.929 . S
C834 H828 0.930 . S
C834 C835 1.367 . S
C834 C842 1.378 . S
C835 C834 1.367 . S
C835 C843 1.433 1_554 S
C836 H832 0.929 . S
C836 C838 1.378 . S
C836 C840 1.350 . S
C837 C840 1.463 1_454 S
C837 C842 1.350 . S
C837 N845 1.427 1_554 S
C838 H829 0.930 . S
C838 C836 1.378 . S
C838 C839 1.367 . S
C839 C838 1.367 . S
C839 C841 1.433 1_556 S
C840 C836 1.350 . S
C840 C837 1.463 1_656 S
C840 N844 1.427 1_556 S
C841 H831 0.929 . S
C841 C839 1.433 1_554 S
C841 N844 1.384 . S
C842 H833 0.929 . S
C842 C834 1.378 . S
C842 C837 1.350 . S
C843 H830 0.929 . S
C843 C835 1.433 1_556 S
C843 N845 1.384 . S
N844 C840 1.427 1_554 S
N844 C841 1.384 . S
N845 C837 1.427 1_556 S
N845 C843 1.384 . S
H846 C852 0.930 . S
H847 C856 0.930 . S
H848 C861 0.929 . S
H849 C859 0.929 . S
H850 C854 0.929 . S
H851 C860 0.929 . S
C852 H846 0.930 . S
C852 C853 1.367 . S
C852 C860 1.378 . S
C853 C852 1.367 . S
C853 C861 1.433 1_556 S
C854 H850 0.929 . S
C854 C856 1.378 . S
C854 C858 1.350 . S
C855 C858 1.463 1_556 S
C855 C860 1.350 . S
C855 N863 1.427 1_556 S
C856 H847 0.930 . S
C856 C854 1.378 . S
C856 C857 1.367 . S
C857 C856 1.367 . S
C857 C859 1.433 1_554 S
C858 C854 1.350 . S
C858 C855 1.463 1_554 S
C858 N862 1.427 1_554 S
C859 H849 0.929 . S
C859 C857 1.433 1_556 S
C859 N862 1.384 . S
C860 H851 0.929 . S
C860 C852 1.378 . S
C860 C855 1.350 . S
C861 H848 0.929 . S
C861 C853 1.433 1_554 S
C861 N863 1.384 . S
N862 C858 1.427 1_556 S
N862 C859 1.384 . S
N863 C855 1.427 1_554 S
N863 C861 1.384 . S
H864 C870 0.930 . S
H865 C874 0.930 . S
H866 C879 0.929 . S
H867 C877 0.929 . S
H868 C872 0.929 . S
H869 C878 0.929 . S
C870 H864 0.930 . S
C870 C871 1.367 . S
C870 C878 1.378 . S
C871 C870 1.367 . S
C871 C879 1.433 . S
C872 H868 0.929 . S
C872 C874 1.378 . S
C872 C876 1.350 . S
C873 C876 1.463 1_564 S
C873 C878 1.350 . S
C873 N881 1.427 . S
C874 H865 0.930 . S
C874 C872 1.378 . S
C874 C875 1.367 . S
C875 C874 1.367 . S
C875 C877 1.433 . S
C876 C872 1.350 . S
C876 C873 1.463 1_546 S
C876 N880 1.427 . S
C877 H867 0.929 . S
C877 C875 1.433 . S
C877 N880 1.384 . S
C878 H869 0.929 . S
C878 C870 1.378 . S
C878 C873 1.350 . S
C879 H866 0.929 . S
C879 C871 1.433 . S
C879 N881 1.384 . S
N880 C876 1.427 . S
N880 C877 1.384 . S
N881 C873 1.427 . S
N881 C879 1.384 . S
H882 C888 0.930 . S
H883 C892 0.930 . S
H884 C897 0.929 . S
H885 C895 0.929 . S
H886 C890 0.929 . S
H887 C896 0.929 . S
C888 H882 0.930 . S
C888 C889 1.367 . S
C888 C896 1.378 . S
C889 C888 1.367 . S
C889 C897 1.433 1_556 S
C890 H886 0.929 . S
C890 C892 1.378 . S
C890 C894 1.350 . S
C891 C894 1.463 1_656 S
C891 C896 1.350 . S
C891 N899 1.427 1_556 S
C892 H883 0.930 . S
C892 C890 1.378 . S
C892 C893 1.367 . S
C893 C892 1.367 . S
C893 C895 1.433 1_554 S
C894 C890 1.350 . S
C894 C891 1.463 1_454 S
C894 N898 1.427 1_554 S
C895 H885 0.929 . S
C895 C893 1.433 1_556 S
C895 N898 1.384 . S
C896 H887 0.929 . S
C896 C888 1.378 . S
C896 C891 1.350 . S
C897 H884 0.929 . S
C897 C889 1.433 1_554 S
C897 N899 1.384 . S
N898 C894 1.427 1_556 S
N898 C895 1.384 . S
N899 C891 1.427 1_554 S
N899 C897 1.384 . S
H900 C906 0.930 . S
H901 C910 0.930 . S
H902 C915 0.929 . S
H903 C913 0.929 . S
H904 C908 0.929 . S
H905 C914 0.929 . S
C906 H900 0.930 . S
C906 C907 1.367 . S
C906 C914 1.378 . S
C907 C906 1.367 . S
C907 C915 1.433 1_556 S
C908 H904 0.929 . S
C908 C910 1.378 . S
C908 C912 1.350 . S
C909 C912 1.463 1_556 S
C909 C914 1.350 . S
C909 N917 1.427 1_556 S
C910 H901 0.930 . S
C910 C908 1.378 . S
C910 C911 1.367 . S
C911 C910 1.367 . S
C911 C913 1.433 1_554 S
C912 C908 1.350 . S
C912 C909 1.463 1_554 S
C912 N916 1.427 1_554 S
C913 H903 0.929 . S
C913 C911 1.433 1_556 S
C913 N916 1.384 . S
C914 H905 0.929 . S
C914 C906 1.378 . S
C914 C909 1.350 . S
C915 H902 0.929 . S
C915 C907 1.433 1_554 S
C915 N917 1.384 . S
N916 C912 1.427 1_556 S
N916 C913 1.384 . S
N917 C909 1.427 1_554 S
N917 C915 1.384 . S
H918 C924 0.930 . S
H919 C928 0.930 . S
H920 C933 0.929 . S
H921 C931 0.929 . S
H922 C926 0.929 . S
H923 C932 0.929 . S
C924 H918 0.930 . S
C924 C925 1.367 . S
C924 C932 1.378 . S
C925 C924 1.367 . S
C925 C933 1.433 1_556 S
C926 H922 0.929 . S
C926 C928 1.378 . S
C926 C930 1.350 . S
C927 C930 1.463 1_546 S
C927 C932 1.350 . S
C927 N935 1.427 1_556 S
C928 H919 0.930 . S
C928 C926 1.378 . S
C928 C929 1.367 . S
C929 C928 1.367 . S
C929 C931 1.433 1_554 S
C930 C926 1.350 . S
C930 C927 1.463 1_564 S
C930 N934 1.427 1_554 S
C931 H921 0.929 . S
C931 C929 1.433 1_556 S
C931 N934 1.384 . S
C932 H923 0.929 . S
C932 C924 1.378 . S
C932 C927 1.350 . S
C933 H920 0.929 . S
C933 C925 1.433 1_554 S
C933 N935 1.384 . S
N934 C930 1.427 1_556 S
N934 C931 1.384 . S
N935 C927 1.427 1_554 S
N935 C933 1.384 . S
H936 C942 0.930 . S
H937 C946 0.930 . S
H938 C951 0.929 . S
H939 C949 0.929 . S
H940 C944 0.929 . S
H941 C950 0.929 . S
C942 H936 0.930 . S
C942 C943 1.367 . S
C942 C950 1.378 . S
C943 C942 1.367 . S
C943 C951 1.433 . S
C944 H940 0.929 . S
C944 C946 1.378 . S
C944 C948 1.350 . S
C945 C948 1.463 . S
C945 C950 1.350 . S
C945 N953 1.427 . S
C946 H937 0.930 . S
C946 C944 1.378 . S
C946 C947 1.367 . S
C947 C946 1.367 . S
C947 C949 1.433 . S
C948 C944 1.350 . S
C948 C945 1.463 . S
C948 N952 1.427 . S
C949 H939 0.929 . S
C949 C947 1.433 . S
C949 N952 1.384 . S
C950 H941 0.929 . S
C950 C942 1.378 . S
C950 C945 1.350 . S
C951 H938 0.929 . S
C951 C943 1.433 . S
C951 N953 1.384 . S
N952 C948 1.427 . S
N952 C949 1.384 . S
N953 C945 1.427 . S
N953 C951 1.384 . S
H954 C960 0.930 . S
H955 C964 0.930 . S
H956 C969 0.929 . S
H957 C967 0.929 . S
H958 C962 0.929 . S
H959 C968 0.929 . S
C960 H954 0.930 . S
C960 C961 1.367 . S
C960 C968 1.378 . S
C961 C960 1.367 . S
C961 C969 1.433 . S
C962 H958 0.929 . S
C962 C964 1.378 . S
C962 C966 1.350 . S
C963 C966 1.463 . S
C963 C968 1.350 . S
C963 N971 1.427 . S
C964 H955 0.930 . S
C964 C962 1.378 . S
C964 C965 1.367 . S
C965 C964 1.367 . S
C965 C967 1.433 . S
C966 C962 1.350 . S
C966 C963 1.463 . S
C966 N970 1.427 . S
C967 H957 0.929 . S
C967 C965 1.433 . S
C967 N970 1.384 . S
C968 H959 0.929 . S
C968 C960 1.378 . S
C968 C963 1.350 . S
C969 H956 0.929 . S
C969 C961 1.433 . S
C969 N971 1.384 . S
N970 C966 1.427 . S
N970 C967 1.384 . S
N971 C963 1.427 . S
N971 C969 1.384 . S
H972 C978 0.930 . S
H973 C982 0.930 . S
H974 C987 0.929 . S
H975 C985 0.929 . S
H976 C980 0.929 . S
H977 C986 0.929 . S
C978 H972 0.930 . S
C978 C979 1.367 . S
C978 C986 1.378 . S
C979 C978 1.367 . S
C979 C987 1.433 . S
C980 H976 0.929 . S
C980 C982 1.378 . S
C980 C984 1.350 . S
C981 C984 1.463 . S
C981 C986 1.350 . S
C981 N989 1.427 . S
C982 H973 0.930 . S
C982 C980 1.378 . S
C982 C983 1.367 . S
C983 C982 1.367 . S
C983 C985 1.433 . S
C984 C980 1.350 . S
C984 C981 1.463 . S
C984 N988 1.427 . S
C985 H975 0.929 . S
C985 C983 1.433 . S
C985 N988 1.384 . S
C986 H977 0.929 . S
C986 C978 1.378 . S
C986 C981 1.350 . S
C987 H974 0.929 . S
C987 C979 1.433 . S
C987 N989 1.384 . S
N988 C984 1.427 . S
N988 C985 1.384 . S
N989 C981 1.427 . S
N989 C987 1.384 . S
H990 C996 0.930 . S
H991 C1000 0.930 . S
H992 C1005 0.929 . S
H993 C1003 0.929 . S
H994 C998 0.929 . S
H995 C1004 0.929 . S
C996 H990 0.930 . S
C996 C997 1.367 . S
C996 C1004 1.378 . S
C997 C996 1.367 . S
C997 C1005 1.433 . S
C998 H994 0.929 . S
C998 C1000 1.378 . S
C998 C1002 1.350 . S
C999 C1002 1.463 . S
C999 C1004 1.350 . S
C999 N1007 1.427 . S
C1000 H991 0.930 . S
C1000 C998 1.378 . S
C1000 C1001 1.367 . S
C1001 C1000 1.367 . S
C1001 C1003 1.433 . S
C1002 C998 1.350 . S
C1002 C999 1.463 . S
C1002 N1006 1.427 . S
C1003 H993 0.929 . S
C1003 C1001 1.433 . S
C1003 N1006 1.384 . S
C1004 H995 0.929 . S
C1004 C996 1.378 . S
C1004 C999 1.350 . S
C1005 H992 0.929 . S
C1005 C997 1.433 . S
C1005 N1007 1.384 . S
N1006 C1002 1.427 . S
N1006 C1003 1.384 . S
N1007 C999 1.427 . S
N1007 C1005 1.384 . S
H1008 C1014 0.930 . S
H1009 C1018 0.930 . S
H1010 C1023 0.929 . S
H1011 C1021 0.929 . S
H1012 C1016 0.929 . S
H1013 C1022 0.929 . S
C1014 H1008 0.930 . S
C1014 C1015 1.367 . S
C1014 C1022 1.378 . S
C1015 C1014 1.367 . S
C1015 C1023 1.433 . S
C1016 H1012 0.929 . S
C1016 C1018 1.378 . S
C1016 C1020 1.350 . S
C1017 C1020 1.463 . S
C1017 C1022 1.350 . S
C1017 N1025 1.427 . S
C1018 H1009 0.930 . S
C1018 C1016 1.378 . S
C1018 C1019 1.367 . S
C1019 C1018 1.367 . S
C1019 C1021 1.433 . S
C1020 C1016 1.350 . S
C1020 C1017 1.463 . S
C1020 N1024 1.427 . S
C1021 H1011 0.929 . S
C1021 C1019 1.433 . S
C1021 N1024 1.384 . S
C1022 H1013 0.929 . S
C1022 C1014 1.378 . S
C1022 C1017 1.350 . S
C1023 H1010 0.929 . S
C1023 C1015 1.433 . S
C1023 N1025 1.384 . S
N1024 C1020 1.427 . S
N1024 C1021 1.384 . S
N1025 C1017 1.427 . S
N1025 C1023 1.384 . S
H1026 C1032 0.930 . S
H1027 C1036 0.930 . S
H1028 C1041 0.929 . S
H1029 C1039 0.929 . S
H1030 C1034 0.929 . S
H1031 C1040 0.929 . S
C1032 H1026 0.930 . S
C1032 C1033 1.367 . S
C1032 C1040 1.378 . S
C1033 C1032 1.367 . S
C1033 C1041 1.433 . S
C1034 H1030 0.929 . S
C1034 C1036 1.378 . S
C1034 C1038 1.350 . S
C1035 C1038 1.463 . S
C1035 C1040 1.350 . S
C1035 N1043 1.427 . S
C1036 H1027 0.930 . S
C1036 C1034 1.378 . S
C1036 C1037 1.367 . S
C1037 C1036 1.367 . S
C1037 C1039 1.433 . S
C1038 C1034 1.350 . S
C1038 C1035 1.463 . S
C1038 N1042 1.427 . S
C1039 H1029 0.929 . S
C1039 C1037 1.433 . S
C1039 N1042 1.384 . S
C1040 H1031 0.929 . S
C1040 C1032 1.378 . S
C1040 C1035 1.350 . S
C1041 H1028 0.929 . S
C1041 C1033 1.433 . S
C1041 N1043 1.384 . S
N1042 C1038 1.427 . S
N1042 C1039 1.384 . S
N1043 C1035 1.427 . S
N1043 C1041 1.384 . S
H1044 C1050 0.930 . S
H1045 C1054 0.930 . S
H1046 C1059 0.929 . S
H1047 C1057 0.929 . S
H1048 C1052 0.929 . S
H1049 C1058 0.929 . S
C1050 H1044 0.930 . S
C1050 C1051 1.367 . S
C1050 C1058 1.378 . S
C1051 C1050 1.367 . S
C1051 C1059 1.433 . S
C1052 H1048 0.929 . S
C1052 C1054 1.378 . S
C1052 C1056 1.350 . S
C1053 C1056 1.463 . S
C1053 C1058 1.350 . S
C1053 N1061 1.427 . S
C1054 H1045 0.930 . S
C1054 C1052 1.378 . S
C1054 C1055 1.367 . S
C1055 C1054 1.367 . S
C1055 C1057 1.433 . S
C1056 C1052 1.350 . S
C1056 C1053 1.463 . S
C1056 N1060 1.427 . S
C1057 H1047 0.929 . S
C1057 C1055 1.433 . S
C1057 N1060 1.384 . S
C1058 H1049 0.929 . S
C1058 C1050 1.378 . S
C1058 C1053 1.350 . S
C1059 H1046 0.929 . S
C1059 C1051 1.433 . S
C1059 N1061 1.384 . S
N1060 C1056 1.427 . S
N1060 C1057 1.384 . S
N1061 C1053 1.427 . S
N1061 C1059 1.384 . S
H1062 C1068 0.930 . S
H1063 C1072 0.930 . S
H1064 C1077 0.929 . S
H1065 C1075 0.929 . S
H1066 C1070 0.929 . S
H1067 C1076 0.929 . S
C1068 H1062 0.930 . S
C1068 C1069 1.367 . S
C1068 C1076 1.378 . S
C1069 C1068 1.367 . S
C1069 C1077 1.433 . S
C1070 H1066 0.929 . S
C1070 C1072 1.378 . S
C1070 C1074 1.350 . S
C1071 C1074 1.463 . S
C1071 C1076 1.350 . S
C1071 N1079 1.427 . S
C1072 H1063 0.930 . S
C1072 C1070 1.378 . S
C1072 C1073 1.367 . S
C1073 C1072 1.367 . S
C1073 C1075 1.433 . S
C1074 C1070 1.350 . S
C1074 C1071 1.463 . S
C1074 N1078 1.427 . S
C1075 H1065 0.929 . S
C1075 C1073 1.433 . S
C1075 N1078 1.384 . S
C1076 H1067 0.929 . S
C1076 C1068 1.378 . S
C1076 C1071 1.350 . S
C1077 H1064 0.929 . S
C1077 C1069 1.433 . S
C1077 N1079 1.384 . S
N1078 C1074 1.427 . S
N1078 C1075 1.384 . S
N1079 C1071 1.427 . S
N1079 C1077 1.384 . S
H1080 C1086 0.930 . S
H1081 C1090 0.930 . S
H1082 C1095 0.929 . S
H1083 C1093 0.929 . S
H1084 C1088 0.929 . S
H1085 C1094 0.929 . S
C1086 H1080 0.930 . S
C1086 C1087 1.367 . S
C1086 C1094 1.378 . S
C1087 C1086 1.367 . S
C1087 C1095 1.433 . S
C1088 H1084 0.929 . S
C1088 C1090 1.378 . S
C1088 C1092 1.350 . S
C1089 C1092 1.463 . S
C1089 C1094 1.350 . S
C1089 N1097 1.427 . S
C1090 H1081 0.930 . S
C1090 C1088 1.378 . S
C1090 C1091 1.367 . S
C1091 C1090 1.367 . S
C1091 C1093 1.433 . S
C1092 C1088 1.350 . S
C1092 C1089 1.463 . S
C1092 N1096 1.427 . S
C1093 H1083 0.929 . S
C1093 C1091 1.433 . S
C1093 N1096 1.384 . S
C1094 H1085 0.929 . S
C1094 C1086 1.378 . S
C1094 C1089 1.350 . S
C1095 H1082 0.929 . S
C1095 C1087 1.433 . S
C1095 N1097 1.384 . S
N1096 C1092 1.427 . S
N1096 C1093 1.384 . S
N1097 C1089 1.427 . S
N1097 C1095 1.384 . S
H1098 C1104 0.930 . S
H1099 C1108 0.930 . S
H1100 C1113 0.929 . S
H1101 C1111 0.929 . S
H1102 C1106 0.929 . S
H1103 C1112 0.929 . S
C1104 H1098 0.930 . S
C1104 C1105 1.367 . S
C1104 C1112 1.378 . S
C1105 C1104 1.367 . S
C1105 C1113 1.433 . S
C1106 H1102 0.929 . S
C1106 C1108 1.378 . S
C1106 C1110 1.350 . S
C1107 C1110 1.463 . S
C1107 C1112 1.350 . S
C1107 N1115 1.427 . S
C1108 H1099 0.930 . S
C1108 C1106 1.378 . S
C1108 C1109 1.367 . S
C1109 C1108 1.367 . S
C1109 C1111 1.433 . S
C1110 C1106 1.350 . S
C1110 C1107 1.463 . S
C1110 N1114 1.427 . S
C1111 H1101 0.929 . S
C1111 C1109 1.433 . S
C1111 N1114 1.384 . S
C1112 H1103 0.929 . S
C1112 C1104 1.378 . S
C1112 C1107 1.350 . S
C1113 H1100 0.929 . S
C1113 C1105 1.433 . S
C1113 N1115 1.384 . S
N1114 C1110 1.427 . S
N1114 C1111 1.384 . S
N1115 C1107 1.427 . S
N1115 C1113 1.384 . S
H1116 C1122 0.930 . S
H1117 C1126 0.930 . S
H1118 C1131 0.929 . S
H1119 C1129 0.929 . S
H1120 C1124 0.929 . S
H1121 C1130 0.929 . S
C1122 H1116 0.930 . S
C1122 C1123 1.367 . S
C1122 C1130 1.378 . S
C1123 C1122 1.367 . S
C1123 C1131 1.433 . S
C1124 H1120 0.929 . S
C1124 C1126 1.378 . S
C1124 C1128 1.350 . S
C1125 C1128 1.463 . S
C1125 C1130 1.350 . S
C1125 N1133 1.427 . S
C1126 H1117 0.930 . S
C1126 C1124 1.378 . S
C1126 C1127 1.367 . S
C1127 C1126 1.367 . S
C1127 C1129 1.433 . S
C1128 C1124 1.350 . S
C1128 C1125 1.463 . S
C1128 N1132 1.427 . S
C1129 H1119 0.929 . S
C1129 C1127 1.433 . S
C1129 N1132 1.384 . S
C1130 H1121 0.929 . S
C1130 C1122 1.378 . S
C1130 C1125 1.350 . S
C1131 H1118 0.929 . S
C1131 C1123 1.433 . S
C1131 N1133 1.384 . S
N1132 C1128 1.427 . S
N1132 C1129 1.384 . S
N1133 C1125 1.427 . S
N1133 C1131 1.384 . S
H1134 C1140 0.930 . S
H1135 C1144 0.930 . S
H1136 C1149 0.929 . S
H1137 C1147 0.929 . S
H1138 C1142 0.929 . S
H1139 C1148 0.929 . S
C1140 H1134 0.930 . S
C1140 C1141 1.367 . S
C1140 C1148 1.378 . S
C1141 C1140 1.367 . S
C1141 C1149 1.433 . S
C1142 H1138 0.929 . S
C1142 C1144 1.378 . S
C1142 C1146 1.350 . S
C1143 C1146 1.463 . S
C1143 C1148 1.350 . S
C1143 N1151 1.427 . S
C1144 H1135 0.930 . S
C1144 C1142 1.378 . S
C1144 C1145 1.367 . S
C1145 C1144 1.367 . S
C1145 C1147 1.433 . S
C1146 C1142 1.350 . S
C1146 C1143 1.463 . S
C1146 N1150 1.427 . S
C1147 H1137 0.929 . S
C1147 C1145 1.433 . S
C1147 N1150 1.384 . S
C1148 H1139 0.929 . S
C1148 C1140 1.378 . S
C1148 C1143 1.350 . S
C1149 H1136 0.929 . S
C1149 C1141 1.433 . S
C1149 N1151 1.384 . S
N1150 C1146 1.427 . S
N1150 C1147 1.384 . S
N1151 C1143 1.427 . S
N1151 C1149 1.384 . S
H1152 C1158 0.930 . S
H1153 C1162 0.930 . S
H1154 C1167 0.929 . S
H1155 C1165 0.929 . S
H1156 C1160 0.929 . S
H1157 C1166 0.929 . S
C1158 H1152 0.930 . S
C1158 C1159 1.367 . S
C1158 C1166 1.378 . S
C1159 C1158 1.367 . S
C1159 C1167 1.433 . S
C1160 H1156 0.929 . S
C1160 C1162 1.378 . S
C1160 C1164 1.350 . S
C1161 C1164 1.463 . S
C1161 C1166 1.350 . S
C1161 N1169 1.427 . S
C1162 H1153 0.930 . S
C1162 C1160 1.378 . S
C1162 C1163 1.367 . S
C1163 C1162 1.367 . S
C1163 C1165 1.433 . S
C1164 C1160 1.350 . S
C1164 C1161 1.463 . S
C1164 N1168 1.427 . S
C1165 H1155 0.929 . S
C1165 C1163 1.433 . S
C1165 N1168 1.384 . S
C1166 H1157 0.929 . S
C1166 C1158 1.378 . S
C1166 C1161 1.350 . S
C1167 H1154 0.929 . S
C1167 C1159 1.433 . S
C1167 N1169 1.384 . S
N1168 C1164 1.427 . S
N1168 C1165 1.384 . S
N1169 C1161 1.427 . S
N1169 C1167 1.384 . S
H1170 C1176 0.930 . S
H1171 C1180 0.930 . S
H1172 C1185 0.929 . S
H1173 C1183 0.929 . S
H1174 C1178 0.929 . S
H1175 C1184 0.929 . S
C1176 H1170 0.930 . S
C1176 C1177 1.367 . S
C1176 C1184 1.378 . S
C1177 C1176 1.367 . S
C1177 C1185 1.433 . S
C1178 H1174 0.929 . S
C1178 C1180 1.378 . S
C1178 C1182 1.350 . S
C1179 C1182 1.463 . S
C1179 C1184 1.350 . S
C1179 N1187 1.427 . S
C1180 H1171 0.930 . S
C1180 C1178 1.378 . S
C1180 C1181 1.367 . S
C1181 C1180 1.367 . S
C1181 C1183 1.433 . S
C1182 C1178 1.350 . S
C1182 C1179 1.463 . S
C1182 N1186 1.427 . S
C1183 H1173 0.929 . S
C1183 C1181 1.433 . S
C1183 N1186 1.384 . S
C1184 H1175 0.929 . S
C1184 C1176 1.378 . S
C1184 C1179 1.350 . S
C1185 H1172 0.929 . S
C1185 C1177 1.433 . S
C1185 N1187 1.384 . S
N1186 C1182 1.427 . S
N1186 C1183 1.384 . S
N1187 C1179 1.427 . S
N1187 C1185 1.384 . S
H1188 C1194 0.930 . S
H1189 C1198 0.930 . S
H1190 C1203 0.929 . S
H1191 C1201 0.929 . S
H1192 C1196 0.929 . S
H1193 C1202 0.929 . S
C1194 H1188 0.930 . S
C1194 C1195 1.367 . S
C1194 C1202 1.378 . S
C1195 C1194 1.367 . S
C1195 C1203 1.433 . S
C1196 H1192 0.929 . S
C1196 C1198 1.378 . S
C1196 C1200 1.350 . S
C1197 C1200 1.463 . S
C1197 C1202 1.350 . S
C1197 N1205 1.427 . S
C1198 H1189 0.930 . S
C1198 C1196 1.378 . S
C1198 C1199 1.367 . S
C1199 C1198 1.367 . S
C1199 C1201 1.433 . S
C1200 C1196 1.350 . S
C1200 C1197 1.463 . S
C1200 N1204 1.427 . S
C1201 H1191 0.929 . S
C1201 C1199 1.433 . S
C1201 N1204 1.384 . S
C1202 H1193 0.929 . S
C1202 C1194 1.378 . S
C1202 C1197 1.350 . S
C1203 H1190 0.929 . S
C1203 C1195 1.433 . S
C1203 N1205 1.384 . S
N1204 C1200 1.427 . S
N1204 C1201 1.384 . S
N1205 C1197 1.427 . S
N1205 C1203 1.384 . S
H1206 C1212 0.930 . S
H1207 C1216 0.930 . S
H1208 C1221 0.929 . S
H1209 C1219 0.929 . S
H1210 C1214 0.929 . S
H1211 C1220 0.929 . S
C1212 H1206 0.930 . S
C1212 C1213 1.367 . S
C1212 C1220 1.378 . S
C1213 C1212 1.367 . S
C1213 C1221 1.433 . S
C1214 H1210 0.929 . S
C1214 C1216 1.378 . S
C1214 C1218 1.350 . S
C1215 C1218 1.463 . S
C1215 C1220 1.350 . S
C1215 N1223 1.427 . S
C1216 H1207 0.930 . S
C1216 C1214 1.378 . S
C1216 C1217 1.367 . S
C1217 C1216 1.367 . S
C1217 C1219 1.433 . S
C1218 C1214 1.350 . S
C1218 C1215 1.463 . S
C1218 N1222 1.427 . S
C1219 H1209 0.929 . S
C1219 C1217 1.433 . S
C1219 N1222 1.384 . S
C1220 H1211 0.929 . S
C1220 C1212 1.378 . S
C1220 C1215 1.350 . S
C1221 H1208 0.929 . S
C1221 C1213 1.433 . S
C1221 N1223 1.384 . S
N1222 C1218 1.427 . S
N1222 C1219 1.384 . S
N1223 C1215 1.427 . S
N1223 C1221 1.384 . S
H1224 C1230 0.930 . S
H1225 C1234 0.930 . S
H1226 C1239 0.929 . S
H1227 C1237 0.929 . S
H1228 C1232 0.929 . S
H1229 C1238 0.929 . S
C1230 H1224 0.930 . S
C1230 C1231 1.367 . S
C1230 C1238 1.378 . S
C1231 C1230 1.367 . S
C1231 C1239 1.433 . S
C1232 H1228 0.929 . S
C1232 C1234 1.378 . S
C1232 C1236 1.350 . S
C1233 C1236 1.463 . S
C1233 C1238 1.350 . S
C1233 N1241 1.427 . S
C1234 H1225 0.930 . S
C1234 C1232 1.378 . S
C1234 C1235 1.367 . S
C1235 C1234 1.367 . S
C1235 C1237 1.433 . S
C1236 C1232 1.350 . S
C1236 C1233 1.463 . S
C1236 N1240 1.427 . S
C1237 H1227 0.929 . S
C1237 C1235 1.433 . S
C1237 N1240 1.384 . S
C1238 H1229 0.929 . S
C1238 C1230 1.378 . S
C1238 C1233 1.350 . S
C1239 H1226 0.929 . S
C1239 C1231 1.433 . S
C1239 N1241 1.384 . S
N1240 C1236 1.427 . S
N1240 C1237 1.384 . S
N1241 C1233 1.427 . S
N1241 C1239 1.384 . S
H1242 C1248 0.930 . S
H1243 C1252 0.930 . S
H1244 C1257 0.929 . S
H1245 C1255 0.929 . S
H1246 C1250 0.929 . S
H1247 C1256 0.929 . S
C1248 H1242 0.930 . S
C1248 C1249 1.367 . S
C1248 C1256 1.378 . S
C1249 C1248 1.367 . S
C1249 C1257 1.433 . S
C1250 H1246 0.929 . S
C1250 C1252 1.378 . S
C1250 C1254 1.350 . S
C1251 C1254 1.463 . S
C1251 C1256 1.350 . S
C1251 N1259 1.427 . S
C1252 H1243 0.930 . S
C1252 C1250 1.378 . S
C1252 C1253 1.367 . S
C1253 C1252 1.367 . S
C1253 C1255 1.433 . S
C1254 C1250 1.350 . S
C1254 C1251 1.463 . S
C1254 N1258 1.427 . S
C1255 H1245 0.929 . S
C1255 C1253 1.433 . S
C1255 N1258 1.384 . S
C1256 H1247 0.929 . S
C1256 C1248 1.378 . S
C1256 C1251 1.350 . S
C1257 H1244 0.929 . S
C1257 C1249 1.433 . S
C1257 N1259 1.384 . S
N1258 C1254 1.427 . S
N1258 C1255 1.384 . S
N1259 C1251 1.427 . S
N1259 C1257 1.384 . S
H1260 C1266 0.930 . S
H1261 C1270 0.930 . S
H1262 C1275 0.929 . S
H1263 C1273 0.929 . S
H1264 C1268 0.929 . S
H1265 C1274 0.929 . S
C1266 H1260 0.930 . S
C1266 C1267 1.367 . S
C1266 C1274 1.378 . S
C1267 C1266 1.367 . S
C1267 C1275 1.433 . S
C1268 H1264 0.929 . S
C1268 C1270 1.378 . S
C1268 C1272 1.350 . S
C1269 C1272 1.463 . S
C1269 C1274 1.350 . S
C1269 N1277 1.427 . S
C1270 H1261 0.930 . S
C1270 C1268 1.378 . S
C1270 C1271 1.367 . S
C1271 C1270 1.367 . S
C1271 C1273 1.433 . S
C1272 C1268 1.350 . S
C1272 C1269 1.463 . S
C1272 N1276 1.427 . S
C1273 H1263 0.929 . S
C1273 C1271 1.433 . S
C1273 N1276 1.384 . S
C1274 H1265 0.929 . S
C1274 C1266 1.378 . S
C1274 C1269 1.350 . S
C1275 H1262 0.929 . S
C1275 C1267 1.433 . S
C1275 N1277 1.384 . S
N1276 C1272 1.427 . S
N1276 C1273 1.384 . S
N1277 C1269 1.427 . S
N1277 C1275 1.384 . S
H1278 C1284 0.930 . S
H1279 C1288 0.930 . S
H1280 C1293 0.929 . S
H1281 C1291 0.929 . S
H1282 C1286 0.929 . S
H1283 C1292 0.929 . S
C1284 H1278 0.930 . S
C1284 C1285 1.367 . S
C1284 C1292 1.378 . S
C1285 C1284 1.367 . S
C1285 C1293 1.433 . S
C1286 H1282 0.929 . S
C1286 C1288 1.378 . S
C1286 C1290 1.350 . S
C1287 C1290 1.463 . S
C1287 C1292 1.350 . S
C1287 N1295 1.427 . S
C1288 H1279 0.930 . S
C1288 C1286 1.378 . S
C1288 C1289 1.367 . S
C1289 C1288 1.367 . S
C1289 C1291 1.433 . S
C1290 C1286 1.350 . S
C1290 C1287 1.463 . S
C1290 N1294 1.427 . S
C1291 H1281 0.929 . S
C1291 C1289 1.433 . S
C1291 N1294 1.384 . S
C1292 H1283 0.929 . S
C1292 C1284 1.378 . S
C1292 C1287 1.350 . S
C1293 H1280 0.929 . S
C1293 C1285 1.433 . S
C1293 N1295 1.384 . S
N1294 C1290 1.427 . S
N1294 C1291 1.384 . S
N1295 C1287 1.427 . S
N1295 C1293 1.384 . S
H1296 C1302 0.930 . S
H1297 C1306 0.930 . S
H1298 C1311 0.929 . S
H1299 C1309 0.929 . S
H1300 C1304 0.929 . S
H1301 C1310 0.929 . S
C1302 H1296 0.930 . S
C1302 C1303 1.367 . S
C1302 C1310 1.378 . S
C1303 C1302 1.367 . S
C1303 C1311 1.433 . S
C1304 H1300 0.929 . S
C1304 C1306 1.378 . S
C1304 C1308 1.350 . S
C1305 C1308 1.463 . S
C1305 C1310 1.350 . S
C1305 N1313 1.427 . S
C1306 H1297 0.930 . S
C1306 C1304 1.378 . S
C1306 C1307 1.367 . S
C1307 C1306 1.367 . S
C1307 C1309 1.433 . S
C1308 C1304 1.350 . S
C1308 C1305 1.463 . S
C1308 N1312 1.427 . S
C1309 H1299 0.929 . S
C1309 C1307 1.433 . S
C1309 N1312 1.384 . S
C1310 H1301 0.929 . S
C1310 C1302 1.378 . S
C1310 C1305 1.350 . S
C1311 H1298 0.929 . S
C1311 C1303 1.433 . S
C1311 N1313 1.384 . S
N1312 C1308 1.427 . S
N1312 C1309 1.384 . S
N1313 C1305 1.427 . S
N1313 C1311 1.384 . S
H1314 C1320 0.930 . S
H1315 C1324 0.930 . S
H1316 C1329 0.929 . S
H1317 C1327 0.929 . S
H1318 C1322 0.929 . S
H1319 C1328 0.929 . S
C1320 H1314 0.930 . S
C1320 C1321 1.367 . S
C1320 C1328 1.378 . S
C1321 C1320 1.367 . S
C1321 C1329 1.433 . S
C1322 H1318 0.929 . S
C1322 C1324 1.378 . S
C1322 C1326 1.350 . S
C1323 C1326 1.463 . S
C1323 C1328 1.350 . S
C1323 N1331 1.427 . S
C1324 H1315 0.930 . S
C1324 C1322 1.378 . S
C1324 C1325 1.367 . S
C1325 C1324 1.367 . S
C1325 C1327 1.433 . S
C1326 C1322 1.350 . S
C1326 C1323 1.463 . S
C1326 N1330 1.427 . S
C1327 H1317 0.929 . S
C1327 C1325 1.433 . S
C1327 N1330 1.384 . S
C1328 H1319 0.929 . S
C1328 C1320 1.378 . S
C1328 C1323 1.350 . S
C1329 H1316 0.929 . S
C1329 C1321 1.433 . S
C1329 N1331 1.384 . S
N1330 C1326 1.427 . S
N1330 C1327 1.384 . S
N1331 C1323 1.427 . S
N1331 C1329 1.384 . S
H1332 C1338 0.930 . S
H1333 C1342 0.930 . S
H1334 C1347 0.929 . S
H1335 C1345 0.929 . S
H1336 C1340 0.929 . S
H1337 C1346 0.929 . S
C1338 H1332 0.930 . S
C1338 C1339 1.367 . S
C1338 C1346 1.378 . S
C1339 C1338 1.367 . S
C1339 C1347 1.433 . S
C1340 H1336 0.929 . S
C1340 C1342 1.378 . S
C1340 C1344 1.350 . S
C1341 C1344 1.463 . S
C1341 C1346 1.350 . S
C1341 N1349 1.427 . S
C1342 H1333 0.930 . S
C1342 C1340 1.378 . S
C1342 C1343 1.367 . S
C1343 C1342 1.367 . S
C1343 C1345 1.433 . S
C1344 C1340 1.350 . S
C1344 C1341 1.463 . S
C1344 N1348 1.427 . S
C1345 H1335 0.929 . S
C1345 C1343 1.433 . S
C1345 N1348 1.384 . S
C1346 H1337 0.929 . S
C1346 C1338 1.378 . S
C1346 C1341 1.350 . S
C1347 H1334 0.929 . S
C1347 C1339 1.433 . S
C1347 N1349 1.384 . S
N1348 C1344 1.427 . S
N1348 C1345 1.384 . S
N1349 C1341 1.427 . S
N1349 C1347 1.384 . S
H1350 C1356 0.930 . S
H1351 C1360 0.930 . S
H1352 C1365 0.929 . S
H1353 C1363 0.929 . S
H1354 C1358 0.929 . S
H1355 C1364 0.929 . S
C1356 H1350 0.930 . S
C1356 C1357 1.367 . S
C1356 C1364 1.378 . S
C1357 C1356 1.367 . S
C1357 C1365 1.433 . S
C1358 H1354 0.929 . S
C1358 C1360 1.378 . S
C1358 C1362 1.350 . S
C1359 C1362 1.463 . S
C1359 C1364 1.350 . S
C1359 N1367 1.427 . S
C1360 H1351 0.930 . S
C1360 C1358 1.378 . S
C1360 C1361 1.367 . S
C1361 C1360 1.367 . S
C1361 C1363 1.433 . S
C1362 C1358 1.350 . S
C1362 C1359 1.463 . S
C1362 N1366 1.427 . S
C1363 H1353 0.929 . S
C1363 C1361 1.433 . S
C1363 N1366 1.384 . S
C1364 H1355 0.929 . S
C1364 C1356 1.378 . S
C1364 C1359 1.350 . S
C1365 H1352 0.929 . S
C1365 C1357 1.433 . S
C1365 N1367 1.384 . S
N1366 C1362 1.427 . S
N1366 C1363 1.384 . S
N1367 C1359 1.427 . S
N1367 C1365 1.384 . S
H1368 C1374 0.930 . S
H1369 C1378 0.930 . S
H1370 C1383 0.929 . S
H1371 C1381 0.929 . S
H1372 C1376 0.929 . S
H1373 C1382 0.929 . S
C1374 H1368 0.930 . S
C1374 C1375 1.367 . S
C1374 C1382 1.378 . S
C1375 C1374 1.367 . S
C1375 C1383 1.433 . S
C1376 H1372 0.929 . S
C1376 C1378 1.378 . S
C1376 C1380 1.350 . S
C1377 C1380 1.463 1_455 S
C1377 C1382 1.350 . S
C1377 N1385 1.427 . S
C1378 H1369 0.930 . S
C1378 C1376 1.378 . S
C1378 C1379 1.367 . S
C1379 C1378 1.367 . S
C1379 C1381 1.433 . S
C1380 C1376 1.350 . S
C1380 C1377 1.463 1_655 S
C1380 N1384 1.427 . S
C1381 H1371 0.929 . S
C1381 C1379 1.433 . S
C1381 N1384 1.384 . S
C1382 H1373 0.929 . S
C1382 C1374 1.378 . S
C1382 C1377 1.350 . S
C1383 H1370 0.929 . S
C1383 C1375 1.433 . S
C1383 N1385 1.384 . S
N1384 C1380 1.427 . S
N1384 C1381 1.384 . S
N1385 C1377 1.427 . S
N1385 C1383 1.384 . S
H1386 C1392 0.930 . S
H1387 C1396 0.930 . S
H1388 C1401 0.929 . S
H1389 C1399 0.929 . S
H1390 C1394 0.929 . S
H1391 C1400 0.929 . S
C1392 H1386 0.930 . S
C1392 C1393 1.367 . S
C1392 C1400 1.378 . S
C1393 C1392 1.367 . S
C1393 C1401 1.433 . S
C1394 H1390 0.929 . S
C1394 C1396 1.378 . S
C1394 C1398 1.350 . S
C1395 C1398 1.463 . S
C1395 C1400 1.350 . S
C1395 N1403 1.427 . S
C1396 H1387 0.930 . S
C1396 C1394 1.378 . S
C1396 C1397 1.367 . S
C1397 C1396 1.367 . S
C1397 C1399 1.433 . S
C1398 C1394 1.350 . S
C1398 C1395 1.463 . S
C1398 N1402 1.427 . S
C1399 H1389 0.929 . S
C1399 C1397 1.433 . S
C1399 N1402 1.384 . S
C1400 H1391 0.929 . S
C1400 C1392 1.378 . S
C1400 C1395 1.350 . S
C1401 H1388 0.929 . S
C1401 C1393 1.433 . S
C1401 N1403 1.384 . S
N1402 C1398 1.427 . S
N1402 C1399 1.384 . S
N1403 C1395 1.427 . S
N1403 C1401 1.384 . S
H1404 C1410 0.930 . S
H1405 C1414 0.930 . S
H1406 C1419 0.929 . S
H1407 C1417 0.929 . S
H1408 C1412 0.886 1_565 S
H1409 C1418 0.884 1_545 S
C1410 H1404 0.930 . S
C1410 C1411 1.367 . S
C1410 C1418 1.424 . S
C1411 C1410 1.367 . S
C1411 C1419 1.433 . S
C1412 H1408 0.886 1_545 S
C1412 C1414 1.422 . S
C1412 C1416 1.354 . S
C1413 C1416 1.463 1_565 S
C1413 C1418 1.355 . S
C1413 N1421 1.427 . S
C1414 H1405 0.930 . S
C1414 C1412 1.422 . S
C1414 C1415 1.367 . S
C1415 C1414 1.367 . S
C1415 C1417 1.433 . S
C1416 C1412 1.354 . S
C1416 C1413 1.463 1_545 S
C1416 N1420 1.427 . S
C1417 H1407 0.929 . S
C1417 C1415 1.433 . S
C1417 N1420 1.384 . S
C1418 H1409 0.884 1_565 S
C1418 C1410 1.424 . S
C1418 C1413 1.355 . S
C1419 H1406 0.929 . S
C1419 C1411 1.433 . S
C1419 N1421 1.384 . S
N1420 C1416 1.427 . S
N1420 C1417 1.384 . S
N1421 C1413 1.427 . S
N1421 C1419 1.384 . S
H1422 C1428 0.930 . S
H1423 C1432 0.930 . S
H1424 C1437 0.929 . S
H1425 C1435 0.929 . S
H1426 C1430 0.929 . S
H1427 C1436 0.929 . S
C1428 H1422 0.930 . S
C1428 C1429 1.367 . S
C1428 C1436 1.378 . S
C1429 C1428 1.367 . S
C1429 C1437 1.433 . S
C1430 H1426 0.929 . S
C1430 C1432 1.378 . S
C1430 C1434 1.350 . S
C1431 C1434 1.463 1_565 S
C1431 C1436 1.350 . S
C1431 N1439 1.424 1_565 S
C1432 H1423 0.930 . S
C1432 C1430 1.378 . S
C1432 C1433 1.367 . S
C1433 C1432 1.367 . S
C1433 C1435 1.433 . S
C1434 C1430 1.350 . S
C1434 C1431 1.463 1_545 S
C1434 N1438 1.425 1_545 S
C1435 H1425 0.929 . S
C1435 C1433 1.433 . S
C1435 N1438 1.378 1_545 S
C1436 H1427 0.929 . S
C1436 C1428 1.378 . S
C1436 C1431 1.350 . S
C1437 H1424 0.929 . S
C1437 C1429 1.433 . S
C1437 N1439 1.376 1_565 S
N1438 C1434 1.425 1_565 S
N1438 C1435 1.378 1_565 S
N1439 C1431 1.424 1_545 S
N1439 C1437 1.376 1_545 S
H1440 C1446 0.930 . S
H1441 C1450 0.930 . S
H1442 C1455 0.929 . S
H1443 C1453 0.929 . S
H1444 C1448 0.929 . S
H1445 C1454 0.929 . S
C1446 H1440 0.930 . S
C1446 C1447 1.367 . S
C1446 C1454 1.378 . S
C1447 C1446 1.367 . S
C1447 C1455 1.433 . S
C1448 H1444 0.929 . S
C1448 C1450 1.378 . S
C1448 C1452 1.350 . S
C1449 C1452 1.463 1_655 S
C1449 C1454 1.350 . S
C1449 N1457 1.427 . S
C1450 H1441 0.930 . S
C1450 C1448 1.378 . S
C1450 C1451 1.367 . S
C1451 C1450 1.367 . S
C1451 C1453 1.433 . S
C1452 C1448 1.350 . S
C1452 C1449 1.463 1_455 S
C1452 N1456 1.427 . S
C1453 H1443 0.929 . S
C1453 C1451 1.433 . S
C1453 N1456 1.384 . S
C1454 H1445 0.929 . S
C1454 C1446 1.378 . S
C1454 C1449 1.350 . S
C1455 H1442 0.929 . S
C1455 C1447 1.433 . S
C1455 N1457 1.384 . S
N1456 C1452 1.427 . S
N1456 C1453 1.384 . S
N1457 C1449 1.427 . S
N1457 C1455 1.384 . S
H1458 C1464 0.930 . S
H1459 C1468 0.930 . S
H1460 C1473 0.929 . S
H1461 C1471 0.929 . S
H1462 C1466 0.929 . S
H1463 C1472 0.929 . S
C1464 H1458 0.930 . S
C1464 C1465 1.367 . S
C1464 C1472 1.378 . S
C1465 C1464 1.367 . S
C1465 C1473 1.433 . S
C1466 H1462 0.929 . S
C1466 C1468 1.378 . S
C1466 C1470 1.350 . S
C1467 C1470 1.463 . S
C1467 C1472 1.350 . S
C1467 N1475 1.427 . S
C1468 H1459 0.930 . S
C1468 C1466 1.378 . S
C1468 C1469 1.367 . S
C1469 C1468 1.367 . S
C1469 C1471 1.433 . S
C1470 C1466 1.350 . S
C1470 C1467 1.463 . S
C1470 N1474 1.427 . S
C1471 H1461 0.929 . S
C1471 C1469 1.433 . S
C1471 N1474 1.384 . S
C1472 H1463 0.929 . S
C1472 C1464 1.378 . S
C1472 C1467 1.350 . S
C1473 H1460 0.929 . S
C1473 C1465 1.433 . S
C1473 N1475 1.384 . S
N1474 C1470 1.427 . S
N1474 C1471 1.384 . S
N1475 C1467 1.427 . S
N1475 C1473 1.384 . S
H1476 C1482 0.930 . S
H1477 C1486 0.930 . S
H1478 C1491 0.929 . S
H1479 C1489 0.929 . S
H1480 C1484 0.929 . S
H1481 C1490 0.929 . S
C1482 H1476 0.930 . S
C1482 C1483 1.367 . S
C1482 C1490 1.378 . S
C1483 C1482 1.367 . S
C1483 C1491 1.433 . S
C1484 H1480 0.929 . S
C1484 C1486 1.378 . S
C1484 C1488 1.350 . S
C1485 C1488 1.463 . S
C1485 C1490 1.350 . S
C1485 N1493 1.427 . S
C1486 H1477 0.930 . S
C1486 C1484 1.378 . S
C1486 C1487 1.367 . S
C1487 C1486 1.367 . S
C1487 C1489 1.433 . S
C1488 C1484 1.350 . S
C1488 C1485 1.463 . S
C1488 N1492 1.427 . S
C1489 H1479 0.929 . S
C1489 C1487 1.433 . S
C1489 N1492 1.384 . S
C1490 H1481 0.929 . S
C1490 C1482 1.378 . S
C1490 C1485 1.350 . S
C1491 H1478 0.929 . S
C1491 C1483 1.433 . S
C1491 N1493 1.384 . S
N1492 C1488 1.427 . S
N1492 C1489 1.384 . S
N1493 C1485 1.427 . S
N1493 C1491 1.384 . S
H1494 C1500 0.930 . S
H1495 C1504 0.930 . S
H1496 C1509 0.929 . S
H1497 C1507 0.929 . S
H1498 C1502 0.929 . S
H1499 C1508 0.929 . S
C1500 H1494 0.930 . S
C1500 C1501 1.367 . S
C1500 C1508 1.378 . S
C1501 C1500 1.367 . S
C1501 C1509 1.433 . S
C1502 H1498 0.929 . S
C1502 C1504 1.378 . S
C1502 C1506 1.350 . S
C1503 C1506 1.463 . S
C1503 C1508 1.350 . S
C1503 N1511 1.427 . S
C1504 H1495 0.930 . S
C1504 C1502 1.378 . S
C1504 C1505 1.367 . S
C1505 C1504 1.367 . S
C1505 C1507 1.433 . S
C1506 C1502 1.350 . S
C1506 C1503 1.463 . S
C1506 N1510 1.427 . S
C1507 H1497 0.929 . S
C1507 C1505 1.433 . S
C1507 N1510 1.384 . S
C1508 H1499 0.929 . S
C1508 C1500 1.378 . S
C1508 C1503 1.350 . S
C1509 H1496 0.929 . S
C1509 C1501 1.433 . S
C1509 N1511 1.384 . S
N1510 C1506 1.427 . S
N1510 C1507 1.384 . S
N1511 C1503 1.427 . S
N1511 C1509 1.384 . S
H1512 C1518 0.930 . S
H1513 C1522 0.930 . S
H1514 C1527 0.929 . S
H1515 C1525 0.929 . S
H1516 C1520 0.929 . S
H1517 C1526 0.929 . S
C1518 H1512 0.930 . S
C1518 C1519 1.367 . S
C1518 C1526 1.378 . S
C1519 C1518 1.367 . S
C1519 C1527 1.433 . S
C1520 H1516 0.929 . S
C1520 C1522 1.378 . S
C1520 C1524 1.350 . S
C1521 C1524 1.463 . S
C1521 C1526 1.350 . S
C1521 N1529 1.427 . S
C1522 H1513 0.930 . S
C1522 C1520 1.378 . S
C1522 C1523 1.367 . S
C1523 C1522 1.367 . S
C1523 C1525 1.433 . S
C1524 C1520 1.350 . S
C1524 C1521 1.463 . S
C1524 N1528 1.427 . S
C1525 H1515 0.929 . S
C1525 C1523 1.433 . S
C1525 N1528 1.384 . S
C1526 H1517 0.929 . S
C1526 C1518 1.378 . S
C1526 C1521 1.350 . S
C1527 H1514 0.929 . S
C1527 C1519 1.433 . S
C1527 N1529 1.384 . S
N1528 C1524 1.427 . S
N1528 C1525 1.384 . S
N1529 C1521 1.427 . S
N1529 C1527 1.384 . S
H1530 C1536 0.930 . S
H1531 C1540 0.930 . S
H1532 C1545 0.929 . S
H1533 C1543 0.929 . S
H1534 C1538 0.929 . S
H1535 C1544 0.929 . S
C1536 H1530 0.930 . S
C1536 C1537 1.367 . S
C1536 C1544 1.378 . S
C1537 C1536 1.367 . S
C1537 C1545 1.433 . S
C1538 H1534 0.929 . S
C1538 C1540 1.378 . S
C1538 C1542 1.350 . S
C1539 C1542 1.463 . S
C1539 C1544 1.350 . S
C1539 N1547 1.427 . S
C1540 H1531 0.930 . S
C1540 C1538 1.378 . S
C1540 C1541 1.367 . S
C1541 C1540 1.367 . S
C1541 C1543 1.433 . S
C1542 C1538 1.350 . S
C1542 C1539 1.463 . S
C1542 N1546 1.427 . S
C1543 H1533 0.929 . S
C1543 C1541 1.433 . S
C1543 N1546 1.384 . S
C1544 H1535 0.929 . S
C1544 C1536 1.378 . S
C1544 C1539 1.350 . S
C1545 H1532 0.929 . S
C1545 C1537 1.433 . S
C1545 N1547 1.384 . S
N1546 C1542 1.427 . S
N1546 C1543 1.384 . S
N1547 C1539 1.427 . S
N1547 C1545 1.384 . S
H1548 C1554 0.930 . S
H1549 C1558 0.930 . S
H1550 C1563 0.929 . S
H1551 C1561 0.929 . S
H1552 C1556 0.929 . S
H1553 C1562 0.929 . S
C1554 H1548 0.930 . S
C1554 C1555 1.367 . S
C1554 C1562 1.378 . S
C1555 C1554 1.367 . S
C1555 C1563 1.433 . S
C1556 H1552 0.929 . S
C1556 C1558 1.378 . S
C1556 C1560 1.350 . S
C1557 C1560 1.463 . S
C1557 C1562 1.350 . S
C1557 N1565 1.427 . S
C1558 H1549 0.930 . S
C1558 C1556 1.378 . S
C1558 C1559 1.367 . S
C1559 C1558 1.367 . S
C1559 C1561 1.433 . S
C1560 C1556 1.350 . S
C1560 C1557 1.463 . S
C1560 N1564 1.427 . S
C1561 H1551 0.929 . S
C1561 C1559 1.433 . S
C1561 N1564 1.384 . S
C1562 H1553 0.929 . S
C1562 C1554 1.378 . S
C1562 C1557 1.350 . S
C1563 H1550 0.929 . S
C1563 C1555 1.433 . S
C1563 N1565 1.384 . S
N1564 C1560 1.427 . S
N1564 C1561 1.384 . S
N1565 C1557 1.427 . S
N1565 C1563 1.384 . S
H1566 C1572 0.930 . S
H1567 C1576 0.930 . S
H1568 C1581 0.929 . S
H1569 C1579 0.929 . S
H1570 C1574 0.929 . S
H1571 C1580 0.929 . S
C1572 H1566 0.930 . S
C1572 C1573 1.367 . S
C1572 C1580 1.378 . S
C1573 C1572 1.367 . S
C1573 C1581 1.433 . S
C1574 H1570 0.929 . S
C1574 C1576 1.378 . S
C1574 C1578 1.350 . S
C1575 C1578 1.463 . S
C1575 C1580 1.350 . S
C1575 N1583 1.427 . S
C1576 H1567 0.930 . S
C1576 C1574 1.378 . S
C1576 C1577 1.367 . S
C1577 C1576 1.367 . S
C1577 C1579 1.433 . S
C1578 C1574 1.350 . S
C1578 C1575 1.463 . S
C1578 N1582 1.427 . S
C1579 H1569 0.929 . S
C1579 C1577 1.433 . S
C1579 N1582 1.384 . S
C1580 H1571 0.929 . S
C1580 C1572 1.378 . S
C1580 C1575 1.350 . S
C1581 H1568 0.929 . S
C1581 C1573 1.433 . S
C1581 N1583 1.384 . S
N1582 C1578 1.427 . S
N1582 C1579 1.384 . S
N1583 C1575 1.427 . S
N1583 C1581 1.384 . S
H1584 C1590 0.930 . S
H1585 C1594 0.930 . S
H1586 C1599 0.929 . S
H1587 C1597 0.929 . S
H1588 C1592 0.929 . S
H1589 C1598 0.929 . S
C1590 H1584 0.930 . S
C1590 C1591 1.367 . S
C1590 C1598 1.378 . S
C1591 C1590 1.367 . S
C1591 C1599 1.433 . S
C1592 H1588 0.929 . S
C1592 C1594 1.378 . S
C1592 C1596 1.350 . S
C1593 C1596 1.463 . S
C1593 C1598 1.350 . S
C1593 N1601 1.427 . S
C1594 H1585 0.930 . S
C1594 C1592 1.378 . S
C1594 C1595 1.367 . S
C1595 C1594 1.367 . S
C1595 C1597 1.433 . S
C1596 C1592 1.350 . S
C1596 C1593 1.463 . S
C1596 N1600 1.427 . S
C1597 H1587 0.929 . S
C1597 C1595 1.433 . S
C1597 N1600 1.384 . S
C1598 H1589 0.929 . S
C1598 C1590 1.378 . S
C1598 C1593 1.350 . S
C1599 H1586 0.929 . S
C1599 C1591 1.433 . S
C1599 N1601 1.384 . S
N1600 C1596 1.427 . S
N1600 C1597 1.384 . S
N1601 C1593 1.427 . S
N1601 C1599 1.384 . S
H1602 C1608 0.930 . S
H1603 C1612 0.930 . S
H1604 C1617 0.929 . S
H1605 C1615 0.929 . S
H1606 C1610 0.929 . S
H1607 C1616 0.929 . S
C1608 H1602 0.930 . S
C1608 C1609 1.367 . S
C1608 C1616 1.378 . S
C1609 C1608 1.367 . S
C1609 C1617 1.433 . S
C1610 H1606 0.929 . S
C1610 C1612 1.378 . S
C1610 C1614 1.350 . S
C1611 C1614 1.463 . S
C1611 C1616 1.350 . S
C1611 N1619 1.427 . S
C1612 H1603 0.930 . S
C1612 C1610 1.378 . S
C1612 C1613 1.367 . S
C1613 C1612 1.367 . S
C1613 C1615 1.433 . S
C1614 C1610 1.350 . S
C1614 C1611 1.463 . S
C1614 N1618 1.427 . S
C1615 H1605 0.929 . S
C1615 C1613 1.433 . S
C1615 N1618 1.384 . S
C1616 H1607 0.929 . S
C1616 C1608 1.378 . S
C1616 C1611 1.350 . S
C1617 H1604 0.929 . S
C1617 C1609 1.433 . S
C1617 N1619 1.384 . S
N1618 C1614 1.427 . S
N1618 C1615 1.384 . S
N1619 C1611 1.427 . S
N1619 C1617 1.384 . S
H1620 C1626 0.930 . S
H1621 C1630 0.930 . S
H1622 C1635 0.929 . S
H1623 C1633 0.929 . S
H1624 C1628 0.929 . S
H1625 C1634 0.929 . S
C1626 H1620 0.930 . S
C1626 C1627 1.367 . S
C1626 C1634 1.378 . S
C1627 C1626 1.367 . S
C1627 C1635 1.433 . S
C1628 H1624 0.929 . S
C1628 C1630 1.378 . S
C1628 C1632 1.350 . S
C1629 C1632 1.463 . S
C1629 C1634 1.350 . S
C1629 N1637 1.427 . S
C1630 H1621 0.930 . S
C1630 C1628 1.378 . S
C1630 C1631 1.367 . S
C1631 C1630 1.367 . S
C1631 C1633 1.433 . S
C1632 C1628 1.350 . S
C1632 C1629 1.463 . S
C1632 N1636 1.427 . S
C1633 H1623 0.929 . S
C1633 C1631 1.433 . S
C1633 N1636 1.384 . S
C1634 H1625 0.929 . S
C1634 C1626 1.378 . S
C1634 C1629 1.350 . S
C1635 H1622 0.929 . S
C1635 C1627 1.433 . S
C1635 N1637 1.384 . S
N1636 C1632 1.427 . S
N1636 C1633 1.384 . S
N1637 C1629 1.427 . S
N1637 C1635 1.384 . S
H1638 C1644 0.930 . S
H1639 C1648 0.930 . S
H1640 C1653 0.929 . S
H1641 C1651 0.929 . S
H1642 C1646 0.929 . S
H1643 C1652 0.929 . S
C1644 H1638 0.930 . S
C1644 C1645 1.367 . S
C1644 C1652 1.378 . S
C1645 C1644 1.367 . S
C1645 C1653 1.433 . S
C1646 H1642 0.929 . S
C1646 C1648 1.378 . S
C1646 C1650 1.350 . S
C1647 C1650 1.463 . S
C1647 C1652 1.350 . S
C1647 N1655 1.427 . S
C1648 H1639 0.930 . S
C1648 C1646 1.378 . S
C1648 C1649 1.367 . S
C1649 C1648 1.367 . S
C1649 C1651 1.433 . S
C1650 C1646 1.350 . S
C1650 C1647 1.463 . S
C1650 N1654 1.427 . S
C1651 H1641 0.929 . S
C1651 C1649 1.433 . S
C1651 N1654 1.384 . S
C1652 H1643 0.929 . S
C1652 C1644 1.378 . S
C1652 C1647 1.350 . S
C1653 H1640 0.929 . S
C1653 C1645 1.433 . S
C1653 N1655 1.384 . S
N1654 C1650 1.427 . S
N1654 C1651 1.384 . S
N1655 C1647 1.427 . S
N1655 C1653 1.384 . S
H1656 C1662 0.930 . S
H1657 C1666 0.930 . S
H1658 C1671 0.929 . S
H1659 C1669 0.929 . S
H1660 C1664 0.929 . S
H1661 C1670 0.929 . S
C1662 H1656 0.930 . S
C1662 C1663 1.367 . S
C1662 C1670 1.378 . S
C1663 C1662 1.367 . S
C1663 C1671 1.433 . S
C1664 H1660 0.929 . S
C1664 C1666 1.378 . S
C1664 C1668 1.350 . S
C1665 C1668 1.463 . S
C1665 C1670 1.350 . S
C1665 N1673 1.427 . S
C1666 H1657 0.930 . S
C1666 C1664 1.378 . S
C1666 C1667 1.367 . S
C1667 C1666 1.367 . S
C1667 C1669 1.433 . S
C1668 C1664 1.350 . S
C1668 C1665 1.463 . S
C1668 N1672 1.427 . S
C1669 H1659 0.929 . S
C1669 C1667 1.433 . S
C1669 N1672 1.384 . S
C1670 H1661 0.929 . S
C1670 C1662 1.378 . S
C1670 C1665 1.350 . S
C1671 H1658 0.929 . S
C1671 C1663 1.433 . S
C1671 N1673 1.384 . S
N1672 C1668 1.427 . S
N1672 C1669 1.384 . S
N1673 C1665 1.427 . S
N1673 C1671 1.384 . S
H1674 C1680 0.930 . S
H1675 C1684 0.930 . S
H1676 C1689 0.929 . S
H1677 C1687 0.929 . S
H1678 C1682 0.929 . S
H1679 C1688 0.929 . S
C1680 H1674 0.930 . S
C1680 C1681 1.367 . S
C1680 C1688 1.378 . S
C1681 C1680 1.367 . S
C1681 C1689 1.433 . S
C1682 H1678 0.929 . S
C1682 C1684 1.378 . S
C1682 C1686 1.350 . S
C1683 C1686 1.463 . S
C1683 C1688 1.350 . S
C1683 N1691 1.427 . S
C1684 H1675 0.930 . S
C1684 C1682 1.378 . S
C1684 C1685 1.367 . S
C1685 C1684 1.367 . S
C1685 C1687 1.433 . S
C1686 C1682 1.350 . S
C1686 C1683 1.463 . S
C1686 N1690 1.427 . S
C1687 H1677 0.929 . S
C1687 C1685 1.433 . S
C1687 N1690 1.384 . S
C1688 H1679 0.929 . S
C1688 C1680 1.378 . S
C1688 C1683 1.350 . S
C1689 H1676 0.929 . S
C1689 C1681 1.433 . S
C1689 N1691 1.384 . S
N1690 C1686 1.427 . S
N1690 C1687 1.384 . S
N1691 C1683 1.427 . S
N1691 C1689 1.384 . S
H1692 C1698 0.930 . S
H1693 C1702 0.930 . S
H1694 C1707 0.929 . S
H1695 C1705 0.929 . S
H1696 C1700 0.929 . S
H1697 C1706 0.929 . S
C1698 H1692 0.930 . S
C1698 C1699 1.367 . S
C1698 C1706 1.378 . S
C1699 C1698 1.367 . S
C1699 C1707 1.433 . S
C1700 H1696 0.929 . S
C1700 C1702 1.378 . S
C1700 C1704 1.350 . S
C1701 C1704 1.463 1_456 S
C1701 C1706 1.350 . S
C1701 N1709 1.427 . S
C1702 H1693 0.930 . S
C1702 C1700 1.378 . S
C1702 C1703 1.367 . S
C1703 C1702 1.367 . S
C1703 C1705 1.433 . S
C1704 C1700 1.350 . S
C1704 C1701 1.463 1_654 S
C1704 N1708 1.427 . S
C1705 H1695 0.929 . S
C1705 C1703 1.433 . S
C1705 N1708 1.384 . S
C1706 H1697 0.929 . S
C1706 C1698 1.378 . S
C1706 C1701 1.350 . S
C1707 H1694 0.929 . S
C1707 C1699 1.433 . S
C1707 N1709 1.384 . S
N1708 C1704 1.427 . S
N1708 C1705 1.384 . S
N1709 C1701 1.427 . S
N1709 C1707 1.384 . S
H1710 C1716 0.930 . S
H1711 C1720 0.930 . S
H1712 C1725 0.929 . S
H1713 C1723 0.929 . S
H1714 C1718 0.929 . S
H1715 C1724 0.929 . S
C1716 H1710 0.930 . S
C1716 C1717 1.367 . S
C1716 C1724 1.378 . S
C1717 C1716 1.367 . S
C1717 C1725 1.433 . S
C1718 H1714 0.929 . S
C1718 C1720 1.378 . S
C1718 C1722 1.350 . S
C1719 C1722 1.463 1_554 S
C1719 C1724 1.350 . S
C1719 N1727 1.427 . S
C1720 H1711 0.930 . S
C1720 C1718 1.378 . S
C1720 C1721 1.367 . S
C1721 C1720 1.367 . S
C1721 C1723 1.433 . S
C1722 C1718 1.350 . S
C1722 C1719 1.463 1_556 S
C1722 N1726 1.427 . S
C1723 H1713 0.929 . S
C1723 C1721 1.433 . S
C1723 N1726 1.384 . S
C1724 H1715 0.929 . S
C1724 C1716 1.378 . S
C1724 C1719 1.350 . S
C1725 H1712 0.929 . S
C1725 C1717 1.433 . S
C1725 N1727 1.384 . S
N1726 C1722 1.427 . S
N1726 C1723 1.384 . S
N1727 C1719 1.427 . S
N1727 C1725 1.384 . S
H1728 C1734 0.930 . S
H1729 C1738 0.930 . S
H1730 C1743 0.929 . S
H1731 C1741 0.929 . S
H1732 C1736 0.929 . S
H1733 C1742 0.929 . S
C1734 H1728 0.930 . S
C1734 C1735 1.367 . S
C1734 C1742 1.378 1_545 S
C1735 C1734 1.367 . S
C1735 C1743 1.433 . S
C1736 H1732 0.929 . S
C1736 C1738 1.378 1_545 S
C1736 C1740 1.350 1_545 S
C1737 C1740 1.463 1_544 S
C1737 C1742 1.350 1_545 S
C1737 N1745 1.427 . S
C1738 H1729 0.930 . S
C1738 C1736 1.378 1_565 S
C1738 C1739 1.367 . S
C1739 C1738 1.367 . S
C1739 C1741 1.433 . S
C1740 C1736 1.350 1_565 S
C1740 C1737 1.463 1_566 S
C1740 N1744 1.427 . S
C1741 H1731 0.929 . S
C1741 C1739 1.433 . S
C1741 N1744 1.384 . S
C1742 H1733 0.929 . S
C1742 C1734 1.378 1_565 S
C1742 C1737 1.350 1_565 S
C1743 H1730 0.929 . S
C1743 C1735 1.433 . S
C1743 N1745 1.384 . S
N1744 C1740 1.427 . S
N1744 C1741 1.384 . S
N1745 C1737 1.427 . S
N1745 C1743 1.384 . S
H1746 C1752 0.930 . S
H1747 C1756 0.930 . S
H1748 C1761 0.929 . S
H1749 C1759 0.929 . S
H1750 C1754 0.929 . S
H1751 C1760 0.929 . S
C1752 H1746 0.930 . S
C1752 C1753 1.367 . S
C1752 C1760 1.378 . S
C1753 C1752 1.367 . S
C1753 C1761 1.433 . S
C1754 H1750 0.929 . S
C1754 C1756 1.378 . S
C1754 C1758 1.350 . S
C1755 C1758 1.463 1_566 S
C1755 C1760 1.350 . S
C1755 N1763 1.427 . S
C1756 H1747 0.930 . S
C1756 C1754 1.378 . S
C1756 C1757 1.367 . S
C1757 C1756 1.367 . S
C1757 C1759 1.433 . S
C1758 C1754 1.350 . S
C1758 C1755 1.463 1_544 S
C1758 N1762 1.427 . S
C1759 H1749 0.929 . S
C1759 C1757 1.433 . S
C1759 N1762 1.384 . S
C1760 H1751 0.929 . S
C1760 C1752 1.378 . S
C1760 C1755 1.350 . S
C1761 H1748 0.929 . S
C1761 C1753 1.433 . S
C1761 N1763 1.384 . S
N1762 C1758 1.427 . S
N1762 C1759 1.384 . S
N1763 C1755 1.427 . S
N1763 C1761 1.384 . S
H1764 C1770 0.930 . S
H1765 C1774 0.930 . S
H1766 C1779 0.929 . S
H1767 C1777 0.929 . S
H1768 C1772 0.929 . S
H1769 C1778 0.929 . S
C1770 H1764 0.930 . S
C1770 C1771 1.367 . S
C1770 C1778 1.378 . S
C1771 C1770 1.367 . S
C1771 C1779 1.433 . S
C1772 H1768 0.929 . S
C1772 C1774 1.378 . S
C1772 C1776 1.350 . S
C1773 C1776 1.463 1_456 S
C1773 C1778 1.350 . S
C1773 N1781 1.427 . S
C1774 H1765 0.930 . S
C1774 C1772 1.378 . S
C1774 C1775 1.367 . S
C1775 C1774 1.367 . S
C1775 C1777 1.433 . S
C1776 C1772 1.350 . S
C1776 C1773 1.463 1_654 S
C1776 N1780 1.427 . S
C1777 H1767 0.929 . S
C1777 C1775 1.433 . S
C1777 N1780 1.384 . S
C1778 H1769 0.929 . S
C1778 C1770 1.378 . S
C1778 C1773 1.350 . S
C1779 H1766 0.929 . S
C1779 C1771 1.433 . S
C1779 N1781 1.384 . S
N1780 C1776 1.427 . S
N1780 C1777 1.384 . S
N1781 C1773 1.427 . S
N1781 C1779 1.384 . S
H1782 C1788 0.930 . S
H1783 C1792 0.930 . S
H1784 C1797 0.929 . S
H1785 C1795 0.929 . S
H1786 C1790 0.929 1_554 S
H1787 C1796 0.929 1_556 S
C1788 H1782 0.930 . S
C1788 C1789 1.367 . S
C1788 C1796 1.378 . S
C1789 C1788 1.367 . S
C1789 C1797 1.433 . S
C1790 H1786 0.929 1_556 S
C1790 C1792 1.378 . S
C1790 C1794 1.350 . S
C1791 C1794 1.463 1_554 S
C1791 C1796 1.350 . S
C1791 N1799 1.427 . S
C1792 H1783 0.930 . S
C1792 C1790 1.378 . S
C1792 C1793 1.367 . S
C1793 C1792 1.367 . S
C1793 C1795 1.433 . S
C1794 C1790 1.350 . S
C1794 C1791 1.463 1_556 S
C1794 N1798 1.427 . S
C1795 H1785 0.929 . S
C1795 C1793 1.433 . S
C1795 N1798 1.384 . S
C1796 H1787 0.929 1_554 S
C1796 C1788 1.378 . S
C1796 C1791 1.350 . S
C1797 H1784 0.929 . S
C1797 C1789 1.433 . S
C1797 N1799 1.384 . S
N1798 C1794 1.427 . S
N1798 C1795 1.384 . S
N1799 C1791 1.427 . S
N1799 C1797 1.384 . S
C511 C12 1.111 . S
C515 C166 1.106 . S
C529 C26 1.104 . S
C533 C138 1.113 . S
C547 C152 1.110 . S
C551 C40 1.106 . S
C565 C54 1.107 . S
C569 C110 1.110 . S
C583 C124 1.110 . S
C587 C68 1.107 . S
C601 C82 1.110 . S
C605 C96 1.107 . S
C619 C334 1.104 . S
C623 C180 1.112 . S
C637 C194 1.112 . S
C641 C306 1.104 . S
C655 C208 1.111 . S
C659 C320 1.106 . S
C673 C278 1.113 . S
C677 C222 1.103 . S
C691 C236 1.105 . S
C695 C292 1.113 . S
C709 C264 1.114 . S
C713 C250 1.102 . S
C727 C348 1.102 . S
C731 C502 1.114 . S
C745 C474 1.102 . S
C749 C362 1.114 . S
C763 C488 1.105 . S
C767 C376 1.112 . S
C781 C446 1.106 . S
C785 C390 1.111 . S
C799 C460 1.106 . S
C803 C404 1.111 . S
C817 C432 1.102 . S
C821 C418 1.114 . S
C835 C5 1.036 . S
C839 C61 1.048 . S
C853 C75 1.036 . S
C857 C19 1.040 . S
C871 C33 1.061 . S
C875 C47 1.045 . S
C889 C89 1.041 . S
C893 C145 1.036 . S
C907 C103 1.036 . S
C911 C159 1.048 . S
C925 C117 1.036 . S
C929 C131 1.045 . S
C943 C229 1.036 . S
C947 C173 1.043 . S
C961 C243 1.038 . S
C965 C187 1.037 . S
C979 C201 1.049 . S
C983 C215 1.065 . S
C997 C313 1.054 . S
C1001 C257 1.067 . S
C1015 C327 1.067 . S
C1019 C271 1.055 . S
C1033 C285 1.068 . S
C1037 C299 1.061 . S
C1051 C397 1.051 . S
C1055 C341 1.066 . S
C1069 C355 1.041 . S
C1073 C411 1.035 . S
C1087 C369 1.036 . S
C1091 C383 1.041 . S
C1105 C481 1.036 . S
C1109 C425 1.043 . S
C1123 C439 1.038 . S
C1127 C495 1.037 . S
C1141 C467 1.059 . S
C1145 C453 1.043 . S
C1159 C410 1.404 . S
C1163 C4 1.408 . S
C1177 C18 1.404 . S
C1181 C382 1.415 . S
C1195 C32 1.403 . S
C1199 C396 1.414 . S
C1213 C46 1.417 . S
C1217 C186 1.405 . S
C1231 C200 1.415 . S
C1235 C60 1.415 . S
C1249 C172 1.417 . S
C1253 C74 1.412 . S
C1267 C88 1.412 . S
C1271 C326 1.417 . S
C1285 C102 1.413 . S
C1289 C298 1.403 . S
C1303 C116 1.417 . S
C1307 C312 1.411 . S
C1321 C438 1.405 . S
C1325 C130 1.417 . S
C1339 C452 1.404 . S
C1343 C144 1.409 . S
C1357 C158 1.415 . S
C1361 C424 1.403 . S
C1375 C354 1.416 . S
C1379 C214 1.404 . S
C1393 C228 1.413 . S
C1397 C368 1.417 . S
C1411 C340 1.403 . S
C1415 C242 1.409 . S
C1429 C494 1.414 . S
C1433 C256 1.416 . S
C1447 C270 1.417 . S
C1451 C466 1.405 . S
C1465 C284 1.417 . S
C1469 C480 1.413 . S
C1483 C11 1.554 . S
C1487 C417 1.558 . S
C1501 C389 1.566 . S
C1505 C25 1.558 . S
C1519 C39 1.564 . S
C1523 C403 1.562 . S
C1537 C193 1.557 . S
C1541 C53 1.566 . S
C1555 C67 1.554 . S
C1559 C207 1.564 . S
C1573 C81 1.560 . S
C1577 C179 1.553 . S
C1591 C333 1.565 . S
C1595 C95 1.561 . S
C1609 C109 1.562 . S
C1613 C305 1.564 . S
C1627 C123 1.562 . S
C1631 C319 1.553 . S
C1645 C137 1.553 . S
C1649 C445 1.563 . S
C1663 C459 1.564 . S
C1667 C151 1.562 . S
C1681 C165 1.566 . S
C1685 C431 1.558 . S
C1699 C361 1.565 . S
C1703 C221 1.554 . S
C1717 C235 1.561 . S
C1721 C375 1.553 . S
C1735 C249 1.557 . S
C1739 C347 1.555 . S
C1753 C501 1.564 . S
C1757 C263 1.554 . S
C1771 C473 1.565 . S
C1775 C277 1.555 . S
C1789 C291 1.562 . S
C1793 C487 1.564 . S
