# Generated by pormake.
# Topology unf, (4)-cn, num edge types: 1
# Building blocks:
#     Node 0, Type 0, BuildingBlock: QUQFOY_clean_sbu_1, # of connection points: 4
#     Node 1, Type 0, BuildingBlock: QUQFOY_clean_sbu_1, # of connection points: 4
#     Node 2, Type 0, BuildingBlock: QUQFOY_clean_sbu_1, # of connection points: 4
#     Node 3, Type 0, BuildingBlock: QUQFOY_clean_sbu_1, # of connection points: 4
#     Node 4, Type 0, BuildingBlock: QUQFOY_clean_sbu_1, # of connection points: 4
#     Node 5, Type 0, BuildingBlock: QUQFOY_clean_sbu_1, # of connection points: 4
#     Node 6, Type 0, BuildingBlock: QUQFOY_clean_sbu_1, # of connection points: 4
#     Node 7, Type 0, BuildingBlock: QUQFOY_clean_sbu_1, # of connection points: 4
#     Node 8, Type 0, BuildingBlock: QUQFOY_clean_sbu_1, # of connection points: 4
#     Node 9, Type 0, BuildingBlock: QUQFOY_clean_sbu_1, # of connection points: 4
#     Node 10, Type 0, BuildingBlock: QUQFOY_clean_sbu_1, # of connection points: 4
#     Node 11, Type 0, BuildingBlock: QUQFOY_clean_sbu_1, # of connection points: 4
#     Edge 12, Type (0, 0), BuildingBlock: XIVTED_clean_linker_0, # of connection points: 2
#     Edge 13, Type (0, 0), BuildingBlock: XIVTED_clean_linker_0, # of connection points: 2
#     Edge 14, Type (0, 0), BuildingBlock: XIVTED_clean_linker_0, # of connection points: 2
#     Edge 15, Type (0, 0), BuildingBlock: XIVTED_clean_linker_0, # of connection points: 2
#     Edge 16, Type (0, 0), BuildingBlock: XIVTED_clean_linker_0, # of connection points: 2
#     Edge 17, Type (0, 0), BuildingBlock: XIVTED_clean_linker_0, # of connection points: 2
#     Edge 18, Type (0, 0), BuildingBlock: XIVTED_clean_linker_0, # of connection points: 2
#     Edge 19, Type (0, 0), BuildingBlock: XIVTED_clean_linker_0, # of connection points: 2
#     Edge 20, Type (0, 0), BuildingBlock: XIVTED_clean_linker_0, # of connection points: 2
#     Edge 21, Type (0, 0), BuildingBlock: XIVTED_clean_linker_0, # of connection points: 2
#     Edge 22, Type (0, 0), BuildingBlock: XIVTED_clean_linker_0, # of connection points: 2
#     Edge 23, Type (0, 0), BuildingBlock: XIVTED_clean_linker_0, # of connection points: 2
#     Edge 24, Type (0, 0), BuildingBlock: XIVTED_clean_linker_0, # of connection points: 2
#     Edge 25, Type (0, 0), BuildingBlock: XIVTED_clean_linker_0, # of connection points: 2
#     Edge 26, Type (0, 0), BuildingBlock: XIVTED_clean_linker_0, # of connection points: 2
#     Edge 27, Type (0, 0), BuildingBlock: XIVTED_clean_linker_0, # of connection points: 2
#     Edge 28, Type (0, 0), BuildingBlock: XIVTED_clean_linker_0, # of connection points: 2
#     Edge 29, Type (0, 0), BuildingBlock: XIVTED_clean_linker_0, # of connection points: 2
#     Edge 30, Type (0, 0), BuildingBlock: XIVTED_clean_linker_0, # of connection points: 2
#     Edge 31, Type (0, 0), BuildingBlock: XIVTED_clean_linker_0, # of connection points: 2
#     Edge 32, Type (0, 0), BuildingBlock: XIVTED_clean_linker_0, # of connection points: 2
#     Edge 33, Type (0, 0), BuildingBlock: XIVTED_clean_linker_0, # of connection points: 2
#     Edge 34, Type (0, 0), BuildingBlock: XIVTED_clean_linker_0, # of connection points: 2
#     Edge 35, Type (0, 0), BuildingBlock: XIVTED_clean_linker_0, # of connection points: 2
# Relax obj value: 0.128
# Max RMSD: 0.160
# Mean RMSD: 0.160
data_MOF--net-unf--node1-QUQFOY_clean_sbu_1--edge1-XIVTED_clean_linker_0
_symmetry_space_group_name_H-M    P1
_symmetry_Int_Tables_number       1
_symmetry_cell_setting            triclinic
loop_
_symmetry_equiv_pos_as_xyz
'x, y, z'
_cell_length_a     40.506309
_cell_length_b     40.561817
_cell_length_c     40.83193
_cell_angle_alpha  89.969918
_cell_angle_beta   89.992036
_cell_angle_gamma 120.06048
loop_
_atom_site_label
_atom_site_type_symbol
_atom_site_fract_x
_atom_site_fract_y
_atom_site_fract_z
_atom_type_partial_charge
O0 O 0.11969 0.34453 0.04985 0.0
Cd1 Cd 0.08992 0.35587 0.08492 0.0
Cd2 Cd 0.10259 0.40633 0.04046 0.0
O3 O 0.15009 0.4027 0.02998 0.0
O4 O 0.09029 0.32665 0.12373 0.0
O5 O 0.12 0.38966 0.12255 0.0
C6 C 0.11214 0.35873 0.13798 0.0
C7 C 0.09815 0.46083 0.03826 0.0
C8 C 0.14627 0.36978 0.03234 0.0
C9 C 0.02494 0.34097 0.04584 0.0
O10 O 0.05104 0.36176 0.02574 0.0
O11 O 0.0336 0.3387 0.07529 0.0
O12 O 0.10553 0.44741 0.01244 0.0
O13 O 0.0982 0.44596 0.06627 0.0
O14 O 0.63128 0.76998 0.05899 0.0
Cd15 Cd 0.62032 0.72147 0.08487 0.0
Cd16 Cd 0.58667 0.69616 0.02651 0.0
O17 O 0.58518 0.74541 0.02239 0.0
O18 O 0.64834 0.74382 0.12632 0.0
O19 O 0.58554 0.70864 0.12421 0.0
C20 C 0.616 0.72934 0.14114 0.0
C21 C 0.53972 0.63464 0.01571 0.0
C22 C 0.61184 0.77426 0.03665 0.0
C23 C 0.65207 0.68846 0.03955 0.0
O24 O 0.63809 0.70029 0.01792 0.0
O25 O 0.64332 0.68843 0.06942 0.0
O26 O 0.55439 0.65948 0.99248 0.0
O27 O 0.54815 0.64631 0.04567 0.0
O28 O 0.21366 0.8746 0.06062 0.0
Cd29 Cd 0.256 0.90201 0.09472 0.0
Cd30 Cd 0.29645 0.90295 0.03797 0.0
O31 O 0.24349 0.86118 0.02232 0.0
O32 O 0.22471 0.89558 0.13416 0.0
O33 O 0.2609 0.86939 0.12987 0.0
C34 C 0.23616 0.8738 0.14633 0.0
C35 C 0.35276 0.90537 0.02295 0.0
C36 C 0.21293 0.85761 0.03429 0.0
C37 C 0.30614 0.97693 0.06487 0.0
O38 O 0.3078 0.95816 0.04071 0.0
O39 O 0.28926 0.96026 0.09111 0.0
O40 O 0.33111 0.90839 0.00153 0.0
O41 O 0.34013 0.89641 0.05258 0.0
O42 O 0.64019 0.85598 0.44909 0.0
Cd43 Cd 0.63752 0.88202 0.40692 0.0
Cd44 Cd 0.58819 0.89589 0.4536 0.0
O45 O 0.59257 0.85348 0.4778 0.0
O46 O 0.66023 0.8638 0.37338 0.0
O47 O 0.60073 0.85183 0.37066 0.0
C48 C 0.62796 0.84794 0.35832 0.0
C49 C 0.54321 0.91101 0.47343 0.0
C50 C 0.61845 0.84486 0.47397 0.0
C51 C 0.6646 0.96127 0.42475 0.0
O52 O 0.63596 0.94743 0.44373 0.0
O53 O 0.67077 0.94011 0.40593 0.0
O54 O 0.5708 0.91436 0.49126 0.0
O55 O 0.53891 0.89579 0.44486 0.0
O56 O 0.13131 0.75134 0.4349 0.0
Cd57 Cd 0.08625 0.71439 0.40512 0.0
Cd58 Cd 0.07622 0.67999 0.4669 0.0
O59 O 0.13227 0.7163 0.47578 0.0
O60 O 0.09364 0.75116 0.36984 0.0
O61 O 0.1021 0.70223 0.36152 0.0
C62 C 0.10363 0.73277 0.35047 0.0
C63 C 0.04416 0.6158 0.47951 0.0
C64 C 0.14756 0.74739 0.46004 0.0
C65 C 0.02099 0.70116 0.44604 0.0
O66 O 0.04193 0.70325 0.46987 0.0
O67 O 0.02986 0.69708 0.4171 0.0
O68 O 0.05644 0.64129 0.50222 0.0
O69 O 0.05276 0.62694 0.44946 0.0
O70 O 0.20861 0.35437 0.43704 0.0
Cd71 Cd 0.24538 0.34826 0.40628 0.0
Cd72 Cd 0.29365 0.39294 0.46105 0.0
O73 O 0.24563 0.39399 0.47558 0.0
O74 O 0.21074 0.32033 0.36928 0.0
O75 O 0.2595 0.37879 0.36421 0.0
C76 C 0.22991 0.35012 0.3514 0.0
C77 C 0.35497 0.44171 0.47242 0.0
C78 C 0.21307 0.37421 0.46246 0.0
C79 C 0.28408 0.31533 0.44568 0.0
O80 O 0.29422 0.34318 0.465 0.0
O81 O 0.26578 0.31249 0.41959 0.0
O82 O 0.33151 0.42229 0.49544 0.0
O83 O 0.34219 0.43626 0.44276 0.0
O84 O 0.84457 0.61387 0.94282 0.0
Cd85 Cd 0.88871 0.61495 0.91611 0.0
Cd86 Cd 0.89242 0.59204 0.97905 0.0
O87 O 0.83701 0.57733 0.9854 0.0
O88 O 0.88767 0.64475 0.87797 0.0
O89 O 0.87242 0.58459 0.87366 0.0
C90 C 0.87571 0.61485 0.86014 0.0
C91 C 0.92009 0.55574 0.99061 0.0
C92 C 0.82556 0.59539 0.96784 0.0
C93 C 0.95407 0.66449 0.95794 0.0
O94 O 0.93098 0.64883 0.98145 0.0
O95 O 0.94541 0.64994 0.92952 0.0
O96 O 0.90884 0.56938 0.01384 0.0
O97 O 0.91214 0.55975 0.96068 0.0
O98 O 0.34572 0.21347 0.94681 0.0
Cd99 Cd 0.34669 0.2445 0.9067 0.0
Cd100 Cd 0.40043 0.30183 0.95036 0.0
O101 O 0.40082 0.25478 0.96925 0.0
O102 O 0.31811 0.20461 0.8733 0.0
O103 O 0.37875 0.24856 0.86733 0.0
C104 C 0.3489 0.21874 0.85614 0.0
C105 C 0.44952 0.36306 0.96268 0.0
C106 C 0.37199 0.22149 0.96759 0.0
C107 C 0.32334 0.29552 0.93464 0.0
O108 O 0.35176 0.30554 0.95338 0.0
O109 O 0.31709 0.27297 0.91094 0.0
O110 O 0.42897 0.33959 0.98519 0.0
O111 O 0.44523 0.35038 0.93308 0.0
O112 O 0.76687 0.14796 0.93745 0.0
Cd113 Cd 0.72518 0.10313 0.91028 0.0
Cd114 Cd 0.69234 0.10279 0.96889 0.0
O115 O 0.73393 0.15782 0.97529 0.0
O116 O 0.75657 0.10325 0.87285 0.0
O117 O 0.71147 0.11823 0.86725 0.0
C118 C 0.73876 0.11489 0.85436 0.0
C119 C 0.62763 0.07719 0.97607 0.0
C120 C 0.76513 0.16812 0.96052 0.0
C121 C 0.70139 0.03848 0.95588 0.0
O122 O 0.70753 0.06283 0.9779 0.0
O123 O 0.70043 0.04682 0.92603 0.0
O124 O 0.65073 0.0894 0.00067 0.0
O125 O 0.64193 0.08339 0.94686 0.0
O126 O 0.32145 0.10044 0.55745 0.0
Cd127 Cd 0.33314 0.06876 0.59041 0.0
Cd128 Cd 0.38119 0.08098 0.54314 0.0
O129 O 0.37886 0.12965 0.53577 0.0
O130 O 0.30662 0.0686 0.63129 0.0
O131 O 0.36953 0.09741 0.62707 0.0
C132 C 0.33972 0.08948 0.64438 0.0
C133 C 0.43381 0.07399 0.53514 0.0
C134 C 0.3466 0.12708 0.53988 0.0
C135 C 0.31548 0.00437 0.5494 0.0
O136 O 0.33468 0.03076 0.52907 0.0
O137 O 0.31515 0.0126 0.57933 0.0
O138 O 0.41877 0.08272 0.5113 0.0
O139 O 0.42205 0.07431 0.56451 0.0
O140 O 0.86139 0.20481 0.54952 0.0
Cd141 Cd 0.88904 0.24396 0.5864 0.0
Cd142 Cd 0.87937 0.28662 0.54229 0.0
O143 O 0.8352 0.23538 0.52681 0.0
O144 O 0.88336 0.21267 0.62562 0.0
O145 O 0.85728 0.24919 0.62174 0.0
C146 C 0.86213 0.22471 0.63822 0.0
C147 C 0.87923 0.34333 0.53483 0.0
C148 C 0.83783 0.20562 0.52946 0.0
C149 C 0.95771 0.29778 0.55266 0.0
O150 O 0.93372 0.29768 0.53264 0.0
O151 O 0.94651 0.28124 0.58015 0.0
O152 O 0.87745 0.32243 0.51047 0.0
O153 O 0.87691 0.32996 0.56398 0.0
O154 O 0.77476 0.65952 0.56545 0.0
Cd155 Cd 0.73612 0.6468 0.60258 0.0
Cd156 Cd 0.68817 0.60918 0.54483 0.0
O157 O 0.74008 0.62148 0.52525 0.0
O158 O 0.77141 0.6693 0.64023 0.0
O159 O 0.73035 0.60772 0.63655 0.0
C160 C 0.75787 0.63562 0.65217 0.0
C161 C 0.63146 0.55999 0.52383 0.0
C162 C 0.77225 0.64563 0.53709 0.0
C163 C 0.6851 0.67459 0.58035 0.0
O164 O 0.67801 0.6526 0.55604 0.0
O165 O 0.70657 0.67577 0.60346 0.0
O166 O 0.6541 0.58882 0.50618 0.0
O167 O 0.6429 0.55703 0.55264 0.0
H168 H 0.13195 0.29908 0.01478 0.0
H169 H 0.34135 0.3637 0.96126 0.0
H170 H 0.21704 0.4182 0.00709 0.0
H171 H 0.24612 0.25947 0.92498 0.0
H172 H 0.29711 0.38397 0.98024 0.0
H173 H 0.174 0.28292 0.98458 0.0
C174 C 0.15951 0.32183 0.00673 0.0
C175 C 0.17128 0.36002 0.01367 0.0
C176 C 0.28593 0.35694 0.96769 0.0
C177 C 0.21932 0.3417 0.97926 0.0
C178 C 0.31108 0.3453 0.95698 0.0
C179 C 0.29718 0.30976 0.94181 0.0
C180 C 0.2466 0.33244 0.9639 0.0
C181 C 0.25784 0.28708 0.93659 0.0
C182 C 0.18327 0.3126 0.98925 0.0
C183 C 0.20702 0.3884 0.00232 0.0
N184 N 0.23373 0.29851 0.94821 0.0
N185 N 0.23008 0.37863 0.98601 0.0
H186 H 0.65815 0.84105 0.06802 0.0
H187 H 0.66636 0.973 0.91919 0.0
H188 H 0.5917 0.79588 0.9798 0.0
H189 H 0.71218 0.01524 0.01542 0.0
H190 H 0.64331 0.90789 0.93877 0.0
H191 H 0.68152 0.90529 0.04738 0.0
C192 C 0.64826 0.84466 0.04437 0.0
C193 C 0.62296 0.81307 0.02559 0.0
C194 C 0.65855 0.93149 0.95549 0.0
C195 C 0.65 0.88665 0.00159 0.0
C196 C 0.67198 0.96862 0.94427 0.0
C197 C 0.69112 -0.00048 0.96575 0.0
C198 C 0.66464 0.92544 0.98827 0.0
C199 C 0.6974 0.99225 0.99806 0.0
C200 C 0.66168 0.88138 0.03256 0.0
C201 C 0.61106 0.81947 0.99513 0.0
N202 N 0.68415 0.95598 0.00833 0.0
N203 N 0.62491 0.85563 0.98395 0.0
H204 H 0.19692 0.81157 0.98 0.0
H205 H 0.97311 0.71399 0.00852 0.0
H206 H 0.14401 0.84793 0.05236 0.0
H207 H 0.02052 0.69042 0.92303 0.0
H208 H 0.03642 0.76481 0.02339 0.0
H209 H 0.13357 0.76833 0.95708 0.0
C210 C 0.17212 0.81068 0.99091 0.0
C211 C 0.17574 0.83306 0.01839 0.0
C212 C 0.03311 0.74886 0.00118 0.0
C213 C 0.1036 0.78394 0.9924 0.0
C214 C -0.00308 0.71977 0.99273 0.0
C215 C -0.0083 0.69786 0.96467 0.0
C216 C 0.06455 0.75581 0.98173 0.0
C217 C 0.02345 0.70675 0.9449 0.0
C218 C 0.13604 0.78611 0.97778 0.0
C219 C 0.14268 0.83095 0.03142 0.0
N220 N 0.05877 0.73483 0.95405 0.0
N221 N 0.1081 0.80666 0.01847 0.0
H222 H 0.72273 0.75021 0.59554 0.0
H223 H 0.56525 0.78529 0.5107 0.0
H224 H 0.61446 0.65884 0.56179 0.0
H225 H 0.68642 0.85542 0.49494 0.0
H226 H 0.57774 0.74574 0.5489 0.0
H227 H 0.703 0.79611 0.57914 0.0
C228 C 0.69432 0.73981 0.58581 0.0
C229 C 0.67027 0.70097 0.57952 0.0
C230 C 0.60148 0.77028 0.53748 0.0
C231 C 0.64772 0.75272 0.56102 0.0
C232 C 0.59441 0.79266 0.51575 0.0
C233 C 0.62487 0.82299 0.49933 0.0
C234 C 0.63923 0.77917 0.54328 0.0
C235 C 0.66217 0.8317 0.50669 0.0
C236 C 0.68322 0.7659 0.5763 0.0
C237 C 0.63387 0.68874 0.5666 0.0
N238 N 0.66834 0.80979 0.52809 0.0
N239 N 0.62377 0.71462 0.55741 0.0
H240 H 0.19998 0.80917 0.42616 0.0
H241 H 0.2722 0.93903 0.58524 0.0
H242 H 0.17066 0.76305 0.52394 0.0
H243 H 0.31297 0.979 0.4873 0.0
H244 H 0.23832 0.87355 0.5644 0.0
H245 H 0.24663 0.8705 0.44901 0.0
C246 C 0.20394 0.81185 0.45247 0.0
C247 C 0.18125 0.78124 0.47324 0.0
C248 C 0.25496 0.89671 0.5476 0.0
C249 C 0.23383 0.85158 0.4997 0.0
C250 C 0.27406 0.93406 0.55943 0.0
C251 C 0.29499 0.96455 0.53791 0.0
C252 C 0.25678 0.89002 0.51405 0.0
C253 C 0.29682 0.95648 0.50476 0.0
C254 C 0.23049 0.8469 0.46556 0.0
C255 C 0.18763 0.78606 0.50712 0.0
N256 N 0.27777 0.92007 0.49387 0.0
N257 N 0.2129 0.8209 0.5194 0.0
H258 H 0.01875 0.30304 0.58717 0.0
H259 H 0.15081 0.36602 0.4307 0.0
H260 H 0.98897 0.33469 0.49549 0.0
H261 H 0.19793 0.37731 0.52752 0.0
H262 H 0.09092 0.35415 0.45492 0.0
H263 H 0.08447 0.32962 0.56719 0.0
C264 C 0.02604 0.3158 0.56303 0.0
C265 C -0.00182 0.31611 0.54279 0.0
C266 C 0.11444 0.35972 0.47097 0.0
C267 C 0.07283 0.34631 0.51995 0.0
C268 C 0.14858 0.36642 0.45713 0.0
C269 C 0.17912 0.37246 0.4772 0.0
C270 C 0.11045 0.35815 0.50518 0.0
C271 C 0.17492 0.37287 0.51129 0.0
C272 C 0.06352 0.33108 0.55174 0.0
C273 C 0.00927 0.33329 0.51183 0.0
N274 N 0.14084 0.36511 0.52432 0.0
N275 N 0.04555 0.34728 0.50128 0.0
H276 H 0.67275 0.68242 0.97743 0.0
H277 H 0.79327 0.58383 0.02899 0.0
H278 H 0.68428 0.65615 0.07786 0.0
H279 H 0.78456 0.61744 0.93048 0.0
H280 H 0.74743 0.60278 0.04711 0.0
H281 H 0.7091 0.65295 0.95982 0.0
C282 C 0.6831 0.67059 0.99587 0.0
C283 C 0.67569 0.67203 0.02923 0.0
C284 C 0.75526 0.60554 0.02148 0.0
C285 C 0.71736 0.63785 0.00908 0.0
C286 C 0.78114 0.59445 0.01108 0.0
C287 C 0.79301 0.59951 0.97826 0.0
C288 C 0.74123 0.62158 0.9988 0.0
C289 C 0.77656 0.61352 0.9561 0.0
C290 C 0.70375 0.65355 0.98574 0.0
C291 C 0.6896 0.6559 0.0519 0.0
N292 N 0.75179 0.62434 0.96683 0.0
N293 N 0.70993 0.63953 0.0414 0.0
H294 H 0.42715 0.20668 0.98955 0.0
H295 H 0.27891 0.02145 0.08924 0.0
H296 H 0.30717 0.16884 0.99733 0.0
H297 H 0.37014 0.02576 0.03141 0.0
H298 H 0.30039 0.08771 0.07359 0.0
H299 H 0.41669 0.15144 0.02267 0.0
C300 C 0.39884 0.18714 0.99877 0.0
C301 C 0.36781 0.19168 0.99043 0.0
C302 C 0.3161 0.07427 0.06501 0.0
C303 C 0.35599 0.1298 0.02857 0.0
C304 C 0.30401 0.03669 0.07399 0.0
C305 C 0.32252 0.01823 0.06112 0.0
C306 C 0.34728 0.0934 0.04369 0.0
C307 C 0.35483 0.03902 0.04137 0.0
C308 C 0.39293 0.15582 0.01754 0.0
C309 C 0.33165 0.1658 0.00288 0.0
N310 N 0.36611 0.07554 0.03304 0.0
N311 N 0.32668 0.13584 0.0213 0.0
H312 H 0.95998 0.29783 0.08214 0.0
H313 H 0.8294 0.21196 0.92528 0.0
H314 H -0.00101 0.33619 0.98353 0.0
H315 H 0.78211 0.19818 0.02236 0.0
H316 H 0.89165 0.259 0.94654 0.0
H317 H 0.89443 0.26156 0.06151 0.0
C318 C 0.95477 0.29871 0.05623 0.0
C319 C 0.98503 0.3197 0.03448 0.0
C320 C 0.86761 0.24616 0.96318 0.0
C321 C 0.91043 0.27855 0.01085 0.0
C322 C 0.83208 0.21932 0.95103 0.0
C323 C 0.80075 0.20107 0.97217 0.0
C324 C 0.87201 0.25424 0.99685 0.0
C325 C 0.80564 0.21172 0.00528 0.0
C326 C 0.91738 0.27824 0.04452 0.0
C327 C 0.97664 0.32016 0.00119 0.0
N328 N 0.84087 0.23723 0.01678 0.0
N329 N 0.94021 0.29963 0.99039 0.0
H330 H 0.27618 0.11679 0.52579 0.0
H331 H 0.34988 0.32878 0.47406 0.0
H332 H 0.39637 0.19756 0.51529 0.0
H333 H 0.24333 0.23785 0.43677 0.0
H334 H 0.36622 0.2818 0.49345 0.0
H335 H 0.26169 0.16142 0.49771 0.0
C336 C 0.2995 0.14395 0.51763 0.0
C337 C 0.33755 0.15371 0.52306 0.0
C338 C 0.33947 0.27212 0.4807 0.0
C339 C 0.32113 0.20458 0.49113 0.0
C340 C 0.33006 0.29882 0.46976 0.0
C341 C 0.29515 0.28697 0.45398 0.0
C342 C 0.31335 0.23326 0.47656 0.0
C343 C 0.27055 0.24796 0.44879 0.0
C344 C 0.29118 0.16915 0.50137 0.0
C345 C 0.36667 0.18901 0.51166 0.0
N346 N 0.27984 0.22228 0.46059 0.0
N347 N 0.35784 0.21342 0.49655 0.0
H348 H 0.84962 0.1464 0.51615 0.0
H349 H 0.64976 0.01843 0.43583 0.0
H350 H 0.77443 0.19003 0.49375 0.0
H351 H 0.7423 -0.004 0.42245 0.0
H352 H 0.69525 0.08255 0.45477 0.0
H353 H 0.81097 0.09137 0.48131 0.0
C354 C 0.82496 0.14439 0.50389 0.0
C355 C 0.81488 0.17255 0.50817 0.0
C356 C 0.70578 0.06398 0.44699 0.0
C357 C 0.77073 0.10981 0.46821 0.0
C358 C 0.67987 0.02746 0.43614 0.0
C359 C 0.69244 0.00203 0.42785 0.0
C360 C 0.74433 0.07466 0.45038 0.0
C361 C 0.73162 0.01491 0.42861 0.0
C362 C 0.80318 0.1132 0.48373 0.0
C363 C 0.78301 0.1688 0.49132 0.0
N364 N 0.75621 0.05019 0.44048 0.0
N365 N 0.76172 0.13769 0.47239 0.0
H366 H 0.00811 0.73782 0.4952 0.0
H367 H 0.78228 0.61631 0.47936 0.0
H368 H 0.95263 0.6629 0.41344 0.0
H369 H 0.84316 0.70366 0.55187 0.0
H370 H 0.84311 0.63564 0.45159 0.0
H371 H 0.94704 0.72934 0.51275 0.0
C372 C 0.98297 0.71989 0.48072 0.0
C373 C 0.9852 0.70074 0.45306 0.0
C374 C 0.84294 0.65074 0.47339 0.0
C375 C 0.91483 0.69011 0.47335 0.0
C376 C 0.8083 0.63968 0.48928 0.0
C377 C 0.80771 0.65798 0.51828 0.0
C378 C 0.87698 0.68023 0.48669 0.0
C379 C 0.8422 0.68825 0.52991 0.0
C380 C 0.94804 0.71501 0.49073 0.0
C381 C 0.95192 0.67813 0.43495 0.0
N382 N 0.87533 0.69817 0.51423 0.0
N383 N 0.9178 0.67286 0.44575 0.0
H384 H 0.17575 0.29106 0.31594 0.0
H385 H 0.16722 0.42065 0.17185 0.0
H386 H 0.25187 0.41266 0.31169 0.0
H387 H 0.09692 0.29826 0.17696 0.0
H388 H 0.1985 0.41949 0.22301 0.0
H389 H 0.14759 0.29407 0.2643 0.0
C390 C 0.1868 0.31843 0.30397 0.0
C391 C 0.21617 0.35168 0.31821 0.0
C392 C 0.17616 0.39296 0.21291 0.0
C393 C 0.18355 0.35546 0.25895 0.0
C394 C 0.15814 0.39362 0.18384 0.0
C395 C 0.12938 0.3595 0.17012 0.0
C396 C 0.16522 0.35794 0.22827 0.0
C397 C 0.11893 0.32527 0.18657 0.0
C398 C 0.17058 0.32016 0.27445 0.0
C399 C 0.22935 0.38632 0.30149 0.0
N400 N 0.13685 0.32541 0.21466 0.0
N401 N 0.21274 0.38737 0.27278 0.0
H402 H 0.67392 0.75748 0.18528 0.0
H403 H 0.56434 0.81129 0.31887 0.0
H404 H 0.55522 0.7244 0.17554 0.0
H405 H 0.68018 0.83449 0.32854 0.0
H406 H 0.55842 0.77662 0.26787 0.0
H407 H 0.67456 0.78212 0.23968 0.0
C408 C 0.64781 0.75503 0.19478 0.0
C409 C 0.61453 0.73906 0.17578 0.0
C410 C 0.58501 0.78916 0.28132 0.0
C411 C 0.61515 0.76791 0.23813 0.0
C412 C 0.58845 0.80902 0.31036 0.0
C413 C 0.6229 0.82606 0.32789 0.0
C414 C 0.61629 0.78645 0.26982 0.0
C415 C 0.65314 0.82208 0.31581 0.0
C416 C 0.64819 0.7692 0.22589 0.0
C417 C 0.58148 0.73646 0.18943 0.0
N418 N 0.64915 0.80288 0.28755 0.0
N419 N 0.58272 0.75119 0.2197 0.0
H420 H 0.24411 0.81653 0.17507 0.0
H421 H 0.09491 0.78571 0.31717 0.0
H422 H 0.1881 0.88252 0.18708 0.0
H423 H 0.14847 0.717 0.30997 0.0
H424 H 0.12743 0.819 0.26751 0.0
H425 H 0.20971 0.77871 0.22345 0.0
C426 C 0.22492 0.82329 0.18802 0.0
C427 C 0.21898 0.85275 0.17703 0.0
C428 C 0.13205 0.79653 0.27652 0.0
C429 C 0.17934 0.80945 0.23184 0.0
C430 C 0.11329 0.77734 0.30489 0.0
C431 C 0.11911 0.74864 0.3178 0.0
C432 C 0.15721 0.78729 0.26085 0.0
C433 C 0.14312 0.73891 0.30073 0.0
C434 C 0.20513 0.80156 0.21545 0.0
C435 C 0.1936 0.86011 0.19456 0.0
N436 N 0.16164 0.75848 0.27319 0.0
N437 N 0.17476 0.83861 0.22094 0.0
H438 H 0.89883 0.67661 0.82125 0.0
H439 H 0.73935 0.5683 0.68389 0.0
H440 H 0.82406 0.55476 0.82236 0.0
H441 H 0.81625 0.68979 0.68808 0.0
H442 H 0.7711 0.56082 0.73237 0.0
H443 H 0.87152 0.67993 0.7693 0.0
C444 C 0.87689 0.65042 0.81028 0.0
C445 C 0.86352 0.6154 0.8262 0.0
C446 C 0.78095 0.58903 0.72254 0.0
C447 C 0.8313 0.61899 0.76674 0.0
C448 C 0.76275 0.59334 0.69502 0.0
C449 C 0.77502 0.62975 0.682 0.0
C450 C 0.81159 0.62138 0.73694 0.0
C451 C 0.80562 0.66118 0.69724 0.0
C452 C 0.86113 0.65232 0.78061 0.0
C453 C 0.8352 0.58232 0.81076 0.0
N454 N 0.82272 0.65623 0.72379 0.0
N455 N 0.81962 0.58495 0.78198 0.0
H456 H 0.40965 0.23789 0.8147 0.0
H457 H 0.28268 0.07035 0.68863 0.0
H458 H 0.28976 0.15703 0.8271 0.0
H459 H 0.40353 0.14596 0.67514 0.0
H460 H 0.28616 0.10124 0.74055 0.0
H461 H 0.40927 0.20488 0.76416 0.0
C462 C 0.38328 0.21332 0.80678 0.0
C463 C 0.34966 0.20028 0.82511 0.0
C464 C 0.31205 0.11106 0.72642 0.0
C465 C 0.34908 0.16236 0.76762 0.0
C466 C 0.31008 0.09332 0.69673 0.0
C467 C 0.34284 0.10567 0.67744 0.0
C468 C 0.34702 0.14167 0.73699 0.0
C469 C 0.37758 0.13551 0.68929 0.0
C470 C 0.38312 0.19442 0.77803 0.0
C471 C 0.31636 0.1682 0.8138 0.0
N472 N 0.37873 0.15273 0.71824 0.0
N473 N 0.31694 0.15045 0.78585 0.0
H474 H 0.78587 0.09918 0.81876 0.0
H475 H 0.81055 0.23879 0.67026 0.0
H476 H 0.7224 0.1584 0.81289 0.0
H477 H 0.86902 0.17471 0.67813 0.0
H478 H 0.77686 0.20962 0.72158 0.0
H479 H 0.81429 0.12524 0.76577 0.0
C480 C 0.77761 0.11743 0.80613 0.0
C481 C 0.75182 0.12674 0.82034 0.0
C482 C 0.79708 0.20202 0.712 0.0
C483 C 0.78484 0.15732 0.75953 0.0
C484 C 0.81645 0.21878 0.68282 0.0
C485 C 0.84274 0.20926 0.66991 0.0
C486 C 0.80413 0.17562 0.72829 0.0
C487 C 0.84909 0.183 0.68711 0.0
C488 C 0.79398 0.13244 0.77583 0.0
C489 C 0.7421 0.15043 0.80275 0.0
N490 N 0.82997 0.16718 0.71531 0.0
N491 N 0.7589 0.16522 0.77331 0.0
H492 H 0.06243 0.48072 0.0848 0.0
H493 H 0.95957 0.53702 0.94733 0.0
H494 H 0.09467 0.49635 0.98274 0.0
H495 H 0.94017 0.54166 0.05078 0.0
H496 H 0.00862 0.52094 0.96034 0.0
H497 H 0.01966 0.50567 0.07385 0.0
C498 C 0.06136 0.49039 0.0603 0.0
C499 C 0.08181 0.486 0.03456 0.0
C500 C -0.0064 0.52541 0.98021 0.0
C501 C 0.03215 0.51342 0.02171 0.0
C502 C 0.96524 0.53413 0.97278 0.0
C503 C 0.94565 0.54056 0.99799 0.0
C504 C 0.00232 0.52289 0.01311 0.0
C505 C 0.95451 0.53683 0.03055 0.0
C506 C 0.03659 0.50422 0.05398 0.0
C507 C 0.07915 0.49884 0.00327 0.0
N508 N 0.98222 0.52824 0.03718 0.0
N509 N 0.05428 0.51138 0.99763 0.0
H510 H 0.52041 0.60144 0.9552 0.0
H511 H 0.4706 0.39651 0.0227 0.0
H512 H 0.51727 0.57462 0.0579 0.0
H513 H 0.47498 0.42295 0.91985 0.0
H514 H 0.49047 0.46249 0.03583 0.0
H515 H 0.50261 0.53599 0.94171 0.0
C516 C 0.51523 0.5816 0.97498 0.0
C517 C 0.52042 0.59361 0.00777 0.0
C518 C 0.48753 0.45405 0.01036 0.0
C519 C 0.50096 0.51882 0.9924 0.0
C520 C 0.47657 0.41644 0.00282 0.0
C521 C 0.47099 0.40418 0.97012 0.0
C522 C 0.49273 0.47961 0.98503 0.0
C523 C 0.47909 0.43121 0.94539 0.0
C524 C 0.50549 0.54432 0.96721 0.0
C525 C 0.51349 0.56665 0.0323 0.0
N526 N 0.48913 0.46761 0.95337 0.0
N527 N 0.50442 0.53061 0.02409 0.0
H528 H 0.41157 0.92296 0.06541 0.0
H529 H 0.57091 0.04173 0.93031 0.0
H530 H 0.38648 0.92273 0.96264 0.0
H531 H 0.59055 0.05429 0.03466 0.0
H532 H 0.50441 -0.0067 0.94072 0.0
H533 H 0.47936 0.96348 0.05326 0.0
C534 C 0.42036 0.93055 0.04018 0.0
C535 C 0.39329 0.91983 0.01506 0.0
C536 C 0.52329 0.0068 0.96131 0.0
C537 C 0.47066 0.96698 0.00109 0.0
C538 C 0.56114 0.0347 0.95539 0.0
C539 C 0.5863 0.05224 0.98164 0.0
C540 C 0.51063 -0.00376 0.9937 0.0
C541 C 0.57217 0.04169 0.01364 0.0
C542 C 0.45905 0.95413 0.0333 0.0
C543 C 0.40637 0.93066 0.98281 0.0
N544 N 0.53536 0.01429 0.01875 0.0
N545 N 0.4441 0.95406 0.9768 0.0
H546 H 0.50103 0.93174 0.43533 0.0
H547 H 0.46217 0.04237 0.57831 0.0
H548 H 0.53826 0.93455 0.53485 0.0
H549 H 0.45714 0.0637 0.47531 0.0
H550 H 0.48684 4e-05 0.56412 0.0
H551 H 0.47745 0.97444 0.45114 0.0
C552 C 0.50349 0.94067 0.46064 0.0
C553 C 0.52169 0.9297 0.48379 0.0
C554 C 0.48075 0.0144 0.5447 0.0
C555 C 0.4956 0.9791 0.50188 0.0
C556 C 0.46706 0.03888 0.55279 0.0
C557 C 0.4574 0.05648 0.52797 0.0
C558 C 0.48432 0.00724 0.5116 0.0
C559 C 0.46405 0.05065 0.49529 0.0
C560 C 0.49054 0.96547 0.46956 0.0
C561 C 0.5245 0.94246 0.5162 0.0
N562 N 0.47661 0.02615 0.48805 0.0
N563 N 0.51175 0.96662 0.52428 0.0
H564 H 0.90727 0.40165 0.57943 0.0
H565 H 0.00472 0.55617 0.4374 0.0
H566 H 0.88131 0.37736 0.47673 0.0
H567 H 0.02294 0.5838 0.54033 0.0
H568 H 0.95711 0.49084 0.45173 0.0
H569 H 0.94483 0.46951 0.56632 0.0
C570 C 0.90853 0.41065 0.55426 0.0
C571 C 0.8916 0.38379 0.52908 0.0
C572 C 0.97149 0.51119 0.4712 0.0
C573 C 0.93532 0.46111 0.51381 0.0
C574 C -0.00103 0.54841 0.46302 0.0
C575 C 0.01802 0.57541 0.4877 0.0
C576 C 0.96311 0.50083 0.50431 0.0
C577 C 0.00908 0.56386 0.5205 0.0
C578 C 0.93035 0.44937 0.54673 0.0
C579 C 0.8943 0.39706 0.49688 0.0
N580 N 0.98233 0.52741 0.52785 0.0
N581 N 0.91631 0.43472 0.4901 0.0
H582 H 0.38913 0.45724 0.53231 0.0
H583 H 0.60138 0.55447 0.46287 0.0
H584 H 0.41467 0.47556 0.42899 0.0
H585 H 0.57023 0.51226 0.56168 0.0
H586 H 0.53386 0.52715 0.4495 0.0
H587 H 0.45654 0.48226 0.54361 0.0
C588 C 0.40901 0.46712 0.51199 0.0
C589 C 0.39619 0.46417 0.47961 0.0
C590 C 0.54178 0.52342 0.47397 0.0
C591 C 0.4735 0.49221 0.49241 0.0
C592 C 0.58029 0.53873 0.48157 0.0
C593 C 0.59144 0.53577 0.5135 0.0
C594 C 0.51429 0.50542 0.49858 0.0
C595 C 0.56294 0.51515 0.53675 0.0
C596 C 0.44749 0.48101 0.51847 0.0
C597 C 0.42332 0.47742 0.45432 0.0
N598 N 0.52567 0.5012 0.52894 0.0
N599 N 0.46075 0.49071 0.46125 0.0
loop_
_geom_bond_atom_site_label_1
_geom_bond_atom_site_label_2
_geom_bond_distance
_geom_bond_site_symmetry_2
_ccdc_geom_bond_type
O0 Cd1 2.223 . S
O0 C8 1.315 . S
Cd1 O0 2.223 . S
Cd1 O4 2.297 . S
Cd1 O5 2.439 . S
Cd1 O11 2.240 . S
Cd2 O3 2.240 . S
Cd2 O10 2.223 . S
Cd2 O12 2.297 . S
Cd2 O13 2.439 . S
O3 Cd2 2.240 . S
O3 C8 1.279 . S
O4 Cd1 2.297 . S
O4 C6 1.247 . S
O5 Cd1 2.439 . S
O5 C6 1.208 . S
C6 O4 1.247 . S
C6 O5 1.208 . S
C7 O12 1.247 . S
C7 O13 1.208 . S
C8 O0 1.315 . S
C8 O3 1.279 . S
C9 O10 1.315 . S
C9 O11 1.279 . S
O10 Cd2 2.223 . S
O10 C9 1.315 . S
O11 Cd1 2.240 . S
O11 C9 1.279 . S
O12 Cd2 2.297 . S
O12 C7 1.247 . S
O13 Cd2 2.439 . S
O13 C7 1.208 . S
O14 Cd15 2.223 . S
O14 C22 1.315 . S
Cd15 O14 2.223 . S
Cd15 O18 2.297 . S
Cd15 O19 2.439 . S
Cd15 O25 2.240 . S
Cd16 O17 2.240 . S
Cd16 O24 2.223 . S
Cd16 O26 2.297 . S
Cd16 O27 2.439 . S
O17 Cd16 2.240 . S
O17 C22 1.279 . S
O18 Cd15 2.297 . S
O18 C20 1.247 . S
O19 Cd15 2.439 . S
O19 C20 1.208 . S
C20 O18 1.247 . S
C20 O19 1.208 . S
C21 O26 1.247 . S
C21 O27 1.208 . S
C22 O14 1.315 . S
C22 O17 1.279 . S
C23 O24 1.315 . S
C23 O25 1.279 . S
O24 Cd16 2.223 . S
O24 C23 1.315 . S
O25 Cd15 2.240 . S
O25 C23 1.279 . S
O26 Cd16 2.297 . S
O26 C21 1.247 . S
O27 Cd16 2.439 . S
O27 C21 1.208 . S
O28 Cd29 2.223 . S
O28 C36 1.315 . S
Cd29 O28 2.223 . S
Cd29 O32 2.297 . S
Cd29 O33 2.439 . S
Cd29 O39 2.240 . S
Cd30 O31 2.240 . S
Cd30 O38 2.223 . S
Cd30 O40 2.297 . S
Cd30 O41 2.439 . S
O31 Cd30 2.240 . S
O31 C36 1.279 . S
O32 Cd29 2.297 . S
O32 C34 1.247 . S
O33 Cd29 2.439 . S
O33 C34 1.208 . S
C34 O32 1.247 . S
C34 O33 1.208 . S
C35 O40 1.247 . S
C35 O41 1.208 . S
C36 O28 1.315 . S
C36 O31 1.279 . S
C37 O38 1.315 . S
C37 O39 1.279 . S
O38 Cd30 2.223 . S
O38 C37 1.315 . S
O39 Cd29 2.240 . S
O39 C37 1.279 . S
O40 Cd30 2.297 . S
O40 C35 1.247 . S
O41 Cd30 2.439 . S
O41 C35 1.208 . S
O42 Cd43 2.223 . S
O42 C50 1.315 . S
Cd43 O42 2.223 . S
Cd43 O46 2.297 . S
Cd43 O47 2.439 . S
Cd43 O53 2.240 . S
Cd44 O45 2.240 . S
Cd44 O52 2.223 . S
Cd44 O54 2.297 . S
Cd44 O55 2.439 . S
O45 Cd44 2.240 . S
O45 C50 1.279 . S
O46 Cd43 2.297 . S
O46 C48 1.247 . S
O47 Cd43 2.439 . S
O47 C48 1.208 . S
C48 O46 1.247 . S
C48 O47 1.208 . S
C49 O54 1.247 . S
C49 O55 1.208 . S
C50 O42 1.315 . S
C50 O45 1.279 . S
C51 O52 1.315 . S
C51 O53 1.279 . S
O52 Cd44 2.223 . S
O52 C51 1.315 . S
O53 Cd43 2.240 . S
O53 C51 1.279 . S
O54 Cd44 2.297 . S
O54 C49 1.247 . S
O55 Cd44 2.439 . S
O55 C49 1.208 . S
O56 Cd57 2.223 . S
O56 C64 1.315 . S
Cd57 O56 2.223 . S
Cd57 O60 2.297 . S
Cd57 O61 2.439 . S
Cd57 O67 2.240 . S
Cd58 O59 2.240 . S
Cd58 O66 2.223 . S
Cd58 O68 2.297 . S
Cd58 O69 2.439 . S
O59 Cd58 2.240 . S
O59 C64 1.279 . S
O60 Cd57 2.297 . S
O60 C62 1.247 . S
O61 Cd57 2.439 . S
O61 C62 1.208 . S
C62 O60 1.247 . S
C62 O61 1.208 . S
C63 O68 1.247 . S
C63 O69 1.208 . S
C64 O56 1.315 . S
C64 O59 1.279 . S
C65 O66 1.315 . S
C65 O67 1.279 . S
O66 Cd58 2.223 . S
O66 C65 1.315 . S
O67 Cd57 2.240 . S
O67 C65 1.279 . S
O68 Cd58 2.297 . S
O68 C63 1.247 . S
O69 Cd58 2.439 . S
O69 C63 1.208 . S
O70 Cd71 2.223 . S
O70 C78 1.315 . S
Cd71 O70 2.223 . S
Cd71 O74 2.297 . S
Cd71 O75 2.439 . S
Cd71 O81 2.240 . S
Cd72 O73 2.240 . S
Cd72 O80 2.223 . S
Cd72 O82 2.297 . S
Cd72 O83 2.439 . S
O73 Cd72 2.240 . S
O73 C78 1.279 . S
O74 Cd71 2.297 . S
O74 C76 1.247 . S
O75 Cd71 2.439 . S
O75 C76 1.208 . S
C76 O74 1.247 . S
C76 O75 1.208 . S
C77 O82 1.247 . S
C77 O83 1.208 . S
C78 O70 1.315 . S
C78 O73 1.279 . S
C79 O80 1.315 . S
C79 O81 1.279 . S
O80 Cd72 2.223 . S
O80 C79 1.315 . S
O81 Cd71 2.240 . S
O81 C79 1.279 . S
O82 Cd72 2.297 . S
O82 C77 1.247 . S
O83 Cd72 2.439 . S
O83 C77 1.208 . S
O84 Cd85 2.223 . S
O84 C92 1.315 . S
Cd85 O84 2.223 . S
Cd85 O88 2.297 . S
Cd85 O89 2.439 . S
Cd85 O95 2.240 . S
Cd86 O87 2.240 . S
Cd86 O94 2.223 . S
Cd86 O96 2.297 . S
Cd86 O97 2.439 . S
O87 Cd86 2.240 . S
O87 C92 1.279 . S
O88 Cd85 2.297 . S
O88 C90 1.247 . S
O89 Cd85 2.439 . S
O89 C90 1.208 . S
C90 O88 1.247 . S
C90 O89 1.208 . S
C91 O96 1.247 . S
C91 O97 1.208 . S
C92 O84 1.315 . S
C92 O87 1.279 . S
C93 O94 1.315 . S
C93 O95 1.279 . S
O94 Cd86 2.223 . S
O94 C93 1.315 . S
O95 Cd85 2.240 . S
O95 C93 1.279 . S
O96 Cd86 2.297 . S
O96 C91 1.247 . S
O97 Cd86 2.439 . S
O97 C91 1.208 . S
O98 Cd99 2.223 . S
O98 C106 1.315 . S
Cd99 O98 2.223 . S
Cd99 O102 2.297 . S
Cd99 O103 2.439 . S
Cd99 O109 2.240 . S
Cd100 O101 2.240 . S
Cd100 O108 2.223 . S
Cd100 O110 2.297 . S
Cd100 O111 2.439 . S
O101 Cd100 2.240 . S
O101 C106 1.279 . S
O102 Cd99 2.297 . S
O102 C104 1.247 . S
O103 Cd99 2.439 . S
O103 C104 1.208 . S
C104 O102 1.247 . S
C104 O103 1.208 . S
C105 O110 1.247 . S
C105 O111 1.208 . S
C106 O98 1.315 . S
C106 O101 1.279 . S
C107 O108 1.315 . S
C107 O109 1.279 . S
O108 Cd100 2.223 . S
O108 C107 1.315 . S
O109 Cd99 2.240 . S
O109 C107 1.279 . S
O110 Cd100 2.297 . S
O110 C105 1.247 . S
O111 Cd100 2.439 . S
O111 C105 1.208 . S
O112 Cd113 2.223 . S
O112 C120 1.315 . S
Cd113 O112 2.223 . S
Cd113 O116 2.297 . S
Cd113 O117 2.439 . S
Cd113 O123 2.240 . S
Cd114 O115 2.240 . S
Cd114 O122 2.223 . S
Cd114 O124 2.297 . S
Cd114 O125 2.439 . S
O115 Cd114 2.240 . S
O115 C120 1.279 . S
O116 Cd113 2.297 . S
O116 C118 1.247 . S
O117 Cd113 2.439 . S
O117 C118 1.208 . S
C118 O116 1.247 . S
C118 O117 1.208 . S
C119 O124 1.247 . S
C119 O125 1.208 . S
C120 O112 1.315 . S
C120 O115 1.279 . S
C121 O122 1.315 . S
C121 O123 1.279 . S
O122 Cd114 2.223 . S
O122 C121 1.315 . S
O123 Cd113 2.240 . S
O123 C121 1.279 . S
O124 Cd114 2.297 . S
O124 C119 1.247 . S
O125 Cd114 2.439 . S
O125 C119 1.208 . S
O126 Cd127 2.223 . S
O126 C134 1.315 . S
Cd127 O126 2.223 . S
Cd127 O130 2.297 . S
Cd127 O131 2.439 . S
Cd127 O137 2.240 . S
Cd128 O129 2.240 . S
Cd128 O136 2.223 . S
Cd128 O138 2.297 . S
Cd128 O139 2.439 . S
O129 Cd128 2.240 . S
O129 C134 1.279 . S
O130 Cd127 2.297 . S
O130 C132 1.247 . S
O131 Cd127 2.439 . S
O131 C132 1.208 . S
C132 O130 1.247 . S
C132 O131 1.208 . S
C133 O138 1.247 . S
C133 O139 1.208 . S
C134 O126 1.315 . S
C134 O129 1.279 . S
C135 O136 1.315 . S
C135 O137 1.279 . S
O136 Cd128 2.223 . S
O136 C135 1.315 . S
O137 Cd127 2.240 . S
O137 C135 1.279 . S
O138 Cd128 2.297 . S
O138 C133 1.247 . S
O139 Cd128 2.439 . S
O139 C133 1.208 . S
O140 Cd141 2.223 . S
O140 C148 1.315 . S
Cd141 O140 2.223 . S
Cd141 O144 2.297 . S
Cd141 O145 2.439 . S
Cd141 O151 2.240 . S
Cd142 O143 2.240 . S
Cd142 O150 2.223 . S
Cd142 O152 2.297 . S
Cd142 O153 2.439 . S
O143 Cd142 2.240 . S
O143 C148 1.279 . S
O144 Cd141 2.297 . S
O144 C146 1.247 . S
O145 Cd141 2.439 . S
O145 C146 1.208 . S
C146 O144 1.247 . S
C146 O145 1.208 . S
C147 O152 1.247 . S
C147 O153 1.208 . S
C148 O140 1.315 . S
C148 O143 1.279 . S
C149 O150 1.315 . S
C149 O151 1.279 . S
O150 Cd142 2.223 . S
O150 C149 1.315 . S
O151 Cd141 2.240 . S
O151 C149 1.279 . S
O152 Cd142 2.297 . S
O152 C147 1.247 . S
O153 Cd142 2.439 . S
O153 C147 1.208 . S
O154 Cd155 2.223 . S
O154 C162 1.315 . S
Cd155 O154 2.223 . S
Cd155 O158 2.297 . S
Cd155 O159 2.439 . S
Cd155 O165 2.240 . S
Cd156 O157 2.240 . S
Cd156 O164 2.223 . S
Cd156 O166 2.297 . S
Cd156 O167 2.439 . S
O157 Cd156 2.240 . S
O157 C162 1.279 . S
O158 Cd155 2.297 . S
O158 C160 1.247 . S
O159 Cd155 2.439 . S
O159 C160 1.208 . S
C160 O158 1.247 . S
C160 O159 1.208 . S
C161 O166 1.247 . S
C161 O167 1.208 . S
C162 O154 1.315 . S
C162 O157 1.279 . S
C163 O164 1.315 . S
C163 O165 1.279 . S
O164 Cd156 2.223 . S
O164 C163 1.315 . S
O165 Cd155 2.240 . S
O165 C163 1.279 . S
O166 Cd156 2.297 . S
O166 C161 1.247 . S
O167 Cd156 2.439 . S
O167 C161 1.208 . S
H168 C174 0.930 . S
H169 C178 0.930 . S
H170 C183 0.929 . S
H171 C181 0.929 . S
H172 C176 0.919 1_554 S
H173 C182 0.929 1_556 S
C174 H168 0.930 . S
C174 C175 1.367 . S
C174 C182 1.378 . S
C175 C174 1.367 . S
C175 C183 1.433 . S
C176 H172 0.919 1_556 S
C176 C178 1.386 . S
C176 C180 1.352 . S
C177 C180 1.463 1_554 S
C177 C182 1.350 . S
C177 N185 1.427 . S
C178 H169 0.930 . S
C178 C176 1.386 . S
C178 C179 1.367 . S
C179 C178 1.367 . S
C179 C181 1.433 . S
C180 C176 1.352 . S
C180 C177 1.463 1_556 S
C180 N184 1.427 . S
C181 H171 0.929 . S
C181 C179 1.433 . S
C181 N184 1.384 . S
C182 H173 0.929 1_554 S
C182 C174 1.378 . S
C182 C177 1.350 . S
C183 H170 0.929 . S
C183 C175 1.433 . S
C183 N185 1.384 . S
N184 C180 1.427 . S
N184 C181 1.384 . S
N185 C177 1.427 . S
N185 C183 1.384 . S
H186 C192 0.930 . S
H187 C196 0.930 . S
H188 C201 0.913 1_556 S
H189 C199 0.949 . S
H190 C194 0.929 . S
H191 C200 0.929 . S
C192 H186 0.930 . S
C192 C193 1.367 . S
C192 C200 1.378 . S
C193 C192 1.367 . S
C193 C201 1.461 . S
C194 H190 0.929 . S
C194 C196 1.378 . S
C194 C198 1.350 . S
C195 C198 1.463 1_554 S
C195 C200 1.350 . S
C195 N203 1.427 1_554 S
C196 H187 0.930 . S
C196 C194 1.378 . S
C196 C197 1.367 . S
C197 C196 1.367 . S
C197 C199 1.433 1_556 S
C198 C194 1.350 . S
C198 C195 1.463 1_556 S
C198 N202 1.427 1_556 S
C199 H189 0.949 . S
C199 C197 1.433 1_554 S
C199 N202 1.384 . S
C200 H191 0.929 . S
C200 C192 1.378 . S
C200 C195 1.350 . S
C201 H188 0.913 1_554 S
C201 C193 1.461 . S
C201 N203 1.373 1_554 S
N202 C198 1.427 1_554 S
N202 C199 1.384 . S
N203 C195 1.427 1_556 S
N203 C201 1.373 1_556 S
H204 C210 0.930 . S
H205 C214 0.930 1_654 S
H206 C219 0.929 . S
H207 C217 0.929 . S
H208 C212 0.929 . S
H209 C218 0.929 . S
C210 H204 0.930 . S
C210 C211 1.367 . S
C210 C218 1.378 1_554 S
C211 C210 1.367 . S
C211 C219 1.433 . S
C212 H208 0.929 . S
C212 C214 1.378 1_554 S
C212 C216 1.350 1_554 S
C213 C216 1.463 1_554 S
C213 C218 1.350 1_554 S
C213 N221 1.427 . S
C214 H205 0.930 1_456 S
C214 C212 1.378 1_556 S
C214 C215 1.367 . S
C215 C214 1.367 . S
C215 C217 1.433 . S
C216 C212 1.350 1_556 S
C216 C213 1.463 1_556 S
C216 N220 1.427 . S
C217 H207 0.929 . S
C217 C215 1.433 . S
C217 N220 1.384 . S
C218 H209 0.929 . S
C218 C210 1.378 1_556 S
C218 C213 1.350 1_556 S
C219 H206 0.929 . S
C219 C211 1.433 . S
C219 N221 1.384 . S
N220 C216 1.427 . S
N220 C217 1.384 . S
N221 C213 1.427 . S
N221 C219 1.384 . S
H222 C228 0.930 . S
H223 C232 0.930 . S
H224 C237 0.929 . S
H225 C235 0.929 . S
H226 C230 0.929 . S
H227 C236 0.929 . S
C228 H222 0.930 . S
C228 C229 1.367 . S
C228 C236 1.378 . S
C229 C228 1.367 . S
C229 C237 1.433 . S
C230 H226 0.929 . S
C230 C232 1.378 . S
C230 C234 1.350 . S
C231 C234 1.463 . S
C231 C236 1.350 . S
C231 N239 1.427 . S
C232 H223 0.930 . S
C232 C230 1.378 . S
C232 C233 1.367 . S
C233 C232 1.367 . S
C233 C235 1.433 . S
C234 C230 1.350 . S
C234 C231 1.463 . S
C234 N238 1.427 . S
C235 H225 0.929 . S
C235 C233 1.433 . S
C235 N238 1.384 . S
C236 H227 0.929 . S
C236 C228 1.378 . S
C236 C231 1.350 . S
C237 H224 0.929 . S
C237 C229 1.433 . S
C237 N239 1.384 . S
N238 C234 1.427 . S
N238 C235 1.384 . S
N239 C231 1.427 . S
N239 C237 1.384 . S
H240 C246 0.930 . S
H241 C250 0.930 . S
H242 C255 0.929 . S
H243 C253 0.929 1_545 S
H244 C248 0.929 . S
H245 C254 0.929 . S
C246 H240 0.930 . S
C246 C247 1.367 . S
C246 C254 1.378 . S
C247 C246 1.367 . S
C247 C255 1.433 . S
C248 H244 0.929 . S
C248 C250 1.378 . S
C248 C252 1.350 . S
C249 C252 1.463 . S
C249 C254 1.350 . S
C249 N257 1.427 . S
C250 H241 0.930 . S
C250 C248 1.378 . S
C250 C251 1.367 . S
C251 C250 1.367 . S
C251 C253 1.433 . S
C252 C248 1.350 . S
C252 C249 1.463 . S
C252 N256 1.427 . S
C253 H243 0.929 1_565 S
C253 C251 1.433 . S
C253 N256 1.384 . S
C254 H245 0.929 . S
C254 C246 1.378 . S
C254 C249 1.350 . S
C255 H242 0.929 . S
C255 C247 1.433 . S
C255 N257 1.384 . S
N256 C252 1.427 . S
N256 C253 1.384 . S
N257 C249 1.427 . S
N257 C255 1.384 . S
H258 C264 0.930 . S
H259 C268 0.930 . S
H260 C273 0.929 1_655 S
H261 C271 0.929 . S
H262 C266 0.929 . S
H263 C272 0.929 . S
C264 H258 0.930 . S
C264 C265 1.367 . S
C264 C272 1.378 . S
C265 C264 1.367 . S
C265 C273 1.433 . S
C266 H262 0.929 . S
C266 C268 1.378 . S
C266 C270 1.350 . S
C267 C270 1.463 . S
C267 C272 1.350 . S
C267 N275 1.427 . S
C268 H259 0.930 . S
C268 C266 1.378 . S
C268 C269 1.367 . S
C269 C268 1.367 . S
C269 C271 1.433 . S
C270 C266 1.350 . S
C270 C267 1.463 . S
C270 N274 1.427 . S
C271 H261 0.929 . S
C271 C269 1.433 . S
C271 N274 1.384 . S
C272 H263 0.929 . S
C272 C264 1.378 . S
C272 C267 1.350 . S
C273 H260 0.929 1_455 S
C273 C265 1.433 . S
C273 N275 1.384 . S
N274 C270 1.427 . S
N274 C271 1.384 . S
N275 C267 1.427 . S
N275 C273 1.384 . S
H276 C282 0.930 . S
H277 C286 0.930 . S
H278 C291 0.929 . S
H279 C289 0.929 . S
H280 C284 0.929 1_554 S
H281 C290 0.916 1_556 S
C282 H276 0.930 . S
C282 C283 1.367 . S
C282 C290 1.388 . S
C283 C282 1.367 . S
C283 C291 1.433 . S
C284 H280 0.929 1_556 S
C284 C286 1.378 . S
C284 C288 1.350 . S
C285 C288 1.463 1_554 S
C285 C290 1.353 . S
C285 N293 1.427 . S
C286 H277 0.930 . S
C286 C284 1.378 . S
C286 C287 1.367 . S
C287 C286 1.367 . S
C287 C289 1.433 . S
C288 C284 1.350 . S
C288 C285 1.463 1_556 S
C288 N292 1.427 . S
C289 H279 0.929 . S
C289 C287 1.433 . S
C289 N292 1.384 . S
C290 H281 0.916 1_554 S
C290 C282 1.388 . S
C290 C285 1.353 . S
C291 H278 0.929 . S
C291 C283 1.433 . S
C291 N293 1.384 . S
N292 C288 1.427 . S
N292 C289 1.384 . S
N293 C285 1.427 . S
N293 C291 1.384 . S
H294 C300 0.930 . S
H295 C304 0.930 . S
H296 C309 0.932 . S
H297 C307 0.929 1_556 S
H298 C302 0.929 . S
H299 C308 0.929 . S
C300 H294 0.930 . S
C300 C301 1.367 . S
C300 C308 1.378 . S
C301 C300 1.367 . S
C301 C309 1.433 . S
C302 H298 0.929 . S
C302 C304 1.378 . S
C302 C306 1.350 . S
C303 C306 1.463 1_556 S
C303 C308 1.350 . S
C303 N311 1.427 1_556 S
C304 H295 0.930 . S
C304 C302 1.378 . S
C304 C305 1.367 . S
C305 C304 1.367 . S
C305 C307 1.433 . S
C306 C302 1.350 . S
C306 C303 1.463 1_554 S
C306 N310 1.427 1_554 S
C307 H297 0.929 1_554 S
C307 C305 1.433 . S
C307 N310 1.384 1_554 S
C308 H299 0.929 . S
C308 C300 1.378 . S
C308 C303 1.350 . S
C309 H296 0.932 . S
C309 C301 1.433 . S
C309 N311 1.384 1_556 S
N310 C306 1.427 1_556 S
N310 C307 1.384 1_556 S
N311 C303 1.427 1_554 S
N311 C309 1.384 1_554 S
H312 C318 0.930 . S
H313 C322 0.930 . S
H314 C327 0.929 1_455 S
H315 C325 0.929 . S
H316 C320 0.929 . S
H317 C326 0.929 . S
C318 H312 0.930 . S
C318 C319 1.367 . S
C318 C326 1.378 . S
C319 C318 1.367 . S
C319 C327 1.433 1_554 S
C320 H316 0.929 . S
C320 C322 1.378 . S
C320 C324 1.350 . S
C321 C324 1.463 1_554 S
C321 C326 1.350 . S
C321 N329 1.427 1_554 S
C322 H313 0.930 . S
C322 C320 1.378 . S
C322 C323 1.367 . S
C323 C322 1.367 . S
C323 C325 1.433 1_556 S
C324 C320 1.350 . S
C324 C321 1.463 1_556 S
C324 N328 1.427 1_556 S
C325 H315 0.929 . S
C325 C323 1.433 1_554 S
C325 N328 1.384 . S
C326 H317 0.929 . S
C326 C318 1.378 . S
C326 C321 1.350 . S
C327 H314 0.929 1_655 S
C327 C319 1.433 1_556 S
C327 N329 1.384 . S
N328 C324 1.427 1_554 S
N328 C325 1.384 . S
N329 C321 1.427 1_556 S
N329 C327 1.384 . S
H330 C336 0.930 . S
H331 C340 0.930 . S
H332 C345 0.929 . S
H333 C343 0.929 . S
H334 C338 0.929 . S
H335 C344 0.929 . S
C336 H330 0.930 . S
C336 C337 1.367 . S
C336 C344 1.378 . S
C337 C336 1.367 . S
C337 C345 1.433 . S
C338 H334 0.929 . S
C338 C340 1.378 . S
C338 C342 1.350 . S
C339 C342 1.463 . S
C339 C344 1.350 . S
C339 N347 1.427 . S
C340 H331 0.930 . S
C340 C338 1.378 . S
C340 C341 1.367 . S
C341 C340 1.367 . S
C341 C343 1.433 . S
C342 C338 1.350 . S
C342 C339 1.463 . S
C342 N346 1.427 . S
C343 H333 0.929 . S
C343 C341 1.433 . S
C343 N346 1.384 . S
C344 H335 0.929 . S
C344 C336 1.378 . S
C344 C339 1.350 . S
C345 H332 0.929 . S
C345 C337 1.433 . S
C345 N347 1.384 . S
N346 C342 1.427 . S
N346 C343 1.384 . S
N347 C339 1.427 . S
N347 C345 1.384 . S
H348 C354 0.930 . S
H349 C358 0.930 . S
H350 C363 0.929 . S
H351 C361 0.929 . S
H352 C356 0.929 . S
H353 C362 0.929 . S
C354 H348 0.930 . S
C354 C355 1.367 . S
C354 C362 1.378 . S
C355 C354 1.367 . S
C355 C363 1.433 . S
C356 H352 0.929 . S
C356 C358 1.378 . S
C356 C360 1.350 . S
C357 C360 1.463 . S
C357 C362 1.350 . S
C357 N365 1.427 . S
C358 H349 0.930 . S
C358 C356 1.378 . S
C358 C359 1.367 . S
C359 C358 1.367 . S
C359 C361 1.433 . S
C360 C356 1.350 . S
C360 C357 1.463 . S
C360 N364 1.427 . S
C361 H351 0.929 . S
C361 C359 1.433 . S
C361 N364 1.384 . S
C362 H353 0.929 . S
C362 C354 1.378 . S
C362 C357 1.350 . S
C363 H350 0.929 . S
C363 C355 1.433 . S
C363 N365 1.384 . S
N364 C360 1.427 . S
N364 C361 1.384 . S
N365 C357 1.427 . S
N365 C363 1.384 . S
H366 C372 0.930 1_455 S
H367 C376 0.930 . S
H368 C381 0.929 . S
H369 C379 0.929 . S
H370 C374 0.929 . S
H371 C380 0.929 . S
C372 H366 0.930 1_655 S
C372 C373 1.367 . S
C372 C380 1.378 . S
C373 C372 1.367 . S
C373 C381 1.433 . S
C374 H370 0.929 . S
C374 C376 1.378 . S
C374 C378 1.350 . S
C375 C378 1.463 . S
C375 C380 1.350 . S
C375 N383 1.427 . S
C376 H367 0.930 . S
C376 C374 1.378 . S
C376 C377 1.367 . S
C377 C376 1.367 . S
C377 C379 1.433 . S
C378 C374 1.350 . S
C378 C375 1.463 . S
C378 N382 1.427 . S
C379 H369 0.929 . S
C379 C377 1.433 . S
C379 N382 1.384 . S
C380 H371 0.929 . S
C380 C372 1.378 . S
C380 C375 1.350 . S
C381 H368 0.929 . S
C381 C373 1.433 . S
C381 N383 1.384 . S
N382 C378 1.427 . S
N382 C379 1.384 . S
N383 C375 1.427 . S
N383 C381 1.384 . S
H384 C390 0.930 . S
H385 C394 0.930 . S
H386 C399 0.929 . S
H387 C397 0.929 . S
H388 C392 0.929 . S
H389 C398 0.929 . S
C390 H384 0.930 . S
C390 C391 1.367 . S
C390 C398 1.378 . S
C391 C390 1.367 . S
C391 C399 1.433 . S
C392 H388 0.929 . S
C392 C394 1.378 . S
C392 C396 1.350 . S
C393 C396 1.463 . S
C393 C398 1.350 . S
C393 N401 1.427 . S
C394 H385 0.930 . S
C394 C392 1.378 . S
C394 C395 1.367 . S
C395 C394 1.367 . S
C395 C397 1.433 . S
C396 C392 1.350 . S
C396 C393 1.463 . S
C396 N400 1.427 . S
C397 H387 0.929 . S
C397 C395 1.433 . S
C397 N400 1.384 . S
C398 H389 0.929 . S
C398 C390 1.378 . S
C398 C393 1.350 . S
C399 H386 0.929 . S
C399 C391 1.433 . S
C399 N401 1.384 . S
N400 C396 1.427 . S
N400 C397 1.384 . S
N401 C393 1.427 . S
N401 C399 1.384 . S
H402 C408 0.930 . S
H403 C412 0.930 . S
H404 C417 0.929 . S
H405 C415 0.929 . S
H406 C410 0.929 . S
H407 C416 0.929 . S
C408 H402 0.930 . S
C408 C409 1.367 . S
C408 C416 1.378 . S
C409 C408 1.367 . S
C409 C417 1.433 . S
C410 H406 0.929 . S
C410 C412 1.378 . S
C410 C414 1.350 . S
C411 C414 1.463 . S
C411 C416 1.350 . S
C411 N419 1.427 . S
C412 H403 0.930 . S
C412 C410 1.378 . S
C412 C413 1.367 . S
C413 C412 1.367 . S
C413 C415 1.433 . S
C414 C410 1.350 . S
C414 C411 1.463 . S
C414 N418 1.427 . S
C415 H405 0.929 . S
C415 C413 1.433 . S
C415 N418 1.384 . S
C416 H407 0.929 . S
C416 C408 1.378 . S
C416 C411 1.350 . S
C417 H404 0.929 . S
C417 C409 1.433 . S
C417 N419 1.384 . S
N418 C414 1.427 . S
N418 C415 1.384 . S
N419 C411 1.427 . S
N419 C417 1.384 . S
H420 C426 0.930 . S
H421 C430 0.930 . S
H422 C435 0.929 . S
H423 C433 0.929 . S
H424 C428 0.929 . S
H425 C434 0.929 . S
C426 H420 0.930 . S
C426 C427 1.367 . S
C426 C434 1.378 . S
C427 C426 1.367 . S
C427 C435 1.433 . S
C428 H424 0.929 . S
C428 C430 1.378 . S
C428 C432 1.350 . S
C429 C432 1.463 . S
C429 C434 1.350 . S
C429 N437 1.427 . S
C430 H421 0.930 . S
C430 C428 1.378 . S
C430 C431 1.367 . S
C431 C430 1.367 . S
C431 C433 1.433 . S
C432 C428 1.350 . S
C432 C429 1.463 . S
C432 N436 1.427 . S
C433 H423 0.929 . S
C433 C431 1.433 . S
C433 N436 1.384 . S
C434 H425 0.929 . S
C434 C426 1.378 . S
C434 C429 1.350 . S
C435 H422 0.929 . S
C435 C427 1.433 . S
C435 N437 1.384 . S
N436 C432 1.427 . S
N436 C433 1.384 . S
N437 C429 1.427 . S
N437 C435 1.384 . S
H438 C444 0.930 . S
H439 C448 0.930 . S
H440 C453 0.929 . S
H441 C451 0.929 . S
H442 C446 0.929 . S
H443 C452 0.929 . S
C444 H438 0.930 . S
C444 C445 1.367 . S
C444 C452 1.378 . S
C445 C444 1.367 . S
C445 C453 1.433 . S
C446 H442 0.929 . S
C446 C448 1.378 . S
C446 C450 1.350 . S
C447 C450 1.463 . S
C447 C452 1.350 . S
C447 N455 1.427 . S
C448 H439 0.930 . S
C448 C446 1.378 . S
C448 C449 1.367 . S
C449 C448 1.367 . S
C449 C451 1.433 . S
C450 C446 1.350 . S
C450 C447 1.463 . S
C450 N454 1.427 . S
C451 H441 0.929 . S
C451 C449 1.433 . S
C451 N454 1.384 . S
C452 H443 0.929 . S
C452 C444 1.378 . S
C452 C447 1.350 . S
C453 H440 0.929 . S
C453 C445 1.433 . S
C453 N455 1.384 . S
N454 C450 1.427 . S
N454 C451 1.384 . S
N455 C447 1.427 . S
N455 C453 1.384 . S
H456 C462 0.930 . S
H457 C466 0.930 . S
H458 C471 0.929 . S
H459 C469 0.929 . S
H460 C464 0.929 . S
H461 C470 0.929 . S
C462 H456 0.930 . S
C462 C463 1.367 . S
C462 C470 1.378 . S
C463 C462 1.367 . S
C463 C471 1.433 . S
C464 H460 0.929 . S
C464 C466 1.378 . S
C464 C468 1.350 . S
C465 C468 1.463 . S
C465 C470 1.350 . S
C465 N473 1.427 . S
C466 H457 0.930 . S
C466 C464 1.378 . S
C466 C467 1.367 . S
C467 C466 1.367 . S
C467 C469 1.433 . S
C468 C464 1.350 . S
C468 C465 1.463 . S
C468 N472 1.427 . S
C469 H459 0.929 . S
C469 C467 1.433 . S
C469 N472 1.384 . S
C470 H461 0.929 . S
C470 C462 1.378 . S
C470 C465 1.350 . S
C471 H458 0.929 . S
C471 C463 1.433 . S
C471 N473 1.384 . S
N472 C468 1.427 . S
N472 C469 1.384 . S
N473 C465 1.427 . S
N473 C471 1.384 . S
H474 C480 0.930 . S
H475 C484 0.930 . S
H476 C489 0.929 . S
H477 C487 0.929 . S
H478 C482 0.929 . S
H479 C488 0.929 . S
C480 H474 0.930 . S
C480 C481 1.367 . S
C480 C488 1.378 . S
C481 C480 1.367 . S
C481 C489 1.433 . S
C482 H478 0.929 . S
C482 C484 1.378 . S
C482 C486 1.350 . S
C483 C486 1.463 . S
C483 C488 1.350 . S
C483 N491 1.427 . S
C484 H475 0.930 . S
C484 C482 1.378 . S
C484 C485 1.367 . S
C485 C484 1.367 . S
C485 C487 1.433 . S
C486 C482 1.350 . S
C486 C483 1.463 . S
C486 N490 1.427 . S
C487 H477 0.929 . S
C487 C485 1.433 . S
C487 N490 1.384 . S
C488 H479 0.929 . S
C488 C480 1.378 . S
C488 C483 1.350 . S
C489 H476 0.929 . S
C489 C481 1.433 . S
C489 N491 1.384 . S
N490 C486 1.427 . S
N490 C487 1.384 . S
N491 C483 1.427 . S
N491 C489 1.384 . S
H492 C498 0.930 . S
H493 C502 0.930 . S
H494 C507 0.929 . S
H495 C505 0.929 . S
H496 C500 0.929 . S
H497 C506 0.929 . S
C498 H492 0.930 . S
C498 C499 1.367 . S
C498 C506 1.378 . S
C499 C498 1.367 . S
C499 C507 1.433 . S
C500 H496 0.929 . S
C500 C502 1.378 . S
C500 C504 1.350 . S
C501 C504 1.463 1_454 S
C501 C506 1.350 . S
C501 N509 1.431 1_454 S
C502 H493 0.930 . S
C502 C500 1.378 . S
C502 C503 1.367 . S
C503 C502 1.367 . S
C503 C505 1.433 . S
C504 C500 1.350 . S
C504 C501 1.463 1_656 S
C504 N508 1.431 1_656 S
C505 H495 0.929 . S
C505 C503 1.433 . S
C505 N508 1.374 1_656 S
C506 H497 0.929 . S
C506 C498 1.378 . S
C506 C501 1.350 . S
C507 H494 0.929 . S
C507 C499 1.433 . S
C507 N509 1.374 1_454 S
N508 C504 1.431 1_454 S
N508 C505 1.374 1_454 S
N509 C501 1.431 1_656 S
N509 C507 1.374 1_656 S
H510 C516 0.930 . S
H511 C520 0.930 . S
H512 C525 0.929 . S
H513 C523 0.929 . S
H514 C518 0.929 1_554 S
H515 C524 0.929 1_556 S
C516 H510 0.930 . S
C516 C517 1.367 . S
C516 C524 1.378 . S
C517 C516 1.367 . S
C517 C525 1.433 . S
C518 H514 0.929 1_556 S
C518 C520 1.378 . S
C518 C522 1.350 . S
C519 C522 1.463 1_554 S
C519 C524 1.350 . S
C519 N527 1.427 . S
C520 H511 0.930 . S
C520 C518 1.378 . S
C520 C521 1.367 . S
C521 C520 1.367 . S
C521 C523 1.433 . S
C522 C518 1.350 . S
C522 C519 1.463 1_556 S
C522 N526 1.427 . S
C523 H513 0.929 . S
C523 C521 1.433 . S
C523 N526 1.384 . S
C524 H515 0.929 1_554 S
C524 C516 1.378 . S
C524 C519 1.350 . S
C525 H512 0.929 . S
C525 C517 1.433 . S
C525 N527 1.384 . S
N526 C522 1.427 . S
N526 C523 1.384 . S
N527 C519 1.427 . S
N527 C525 1.384 . S
H528 C534 0.930 . S
H529 C538 0.930 . S
H530 C543 0.929 . S
H531 C541 0.929 . S
H532 C536 0.929 . S
H533 C542 0.929 . S
C534 H528 0.930 . S
C534 C535 1.367 1_545 S
C534 C542 1.378 . S
C535 C534 1.367 1_565 S
C535 C543 1.433 . S
C536 H532 0.929 . S
C536 C538 1.378 . S
C536 C540 1.350 1_565 S
C537 C540 1.463 1_564 S
C537 C542 1.350 1_565 S
C537 N545 1.427 . S
C538 H529 0.930 . S
C538 C536 1.378 . S
C538 C539 1.367 1_565 S
C539 C538 1.367 1_545 S
C539 C541 1.433 . S
C540 C536 1.350 1_545 S
C540 C537 1.463 1_546 S
C540 N544 1.427 . S
C541 H531 0.929 . S
C541 C539 1.433 . S
C541 N544 1.384 . S
C542 H533 0.929 . S
C542 C534 1.378 . S
C542 C537 1.350 1_545 S
C543 H530 0.929 . S
C543 C535 1.433 . S
C543 N545 1.384 . S
N544 C540 1.427 . S
N544 C541 1.384 . S
N545 C537 1.427 . S
N545 C543 1.384 . S
H546 C552 0.930 . S
H547 C556 0.930 . S
H548 C561 0.929 . S
H549 C559 0.929 . S
H550 C554 0.929 . S
H551 C560 0.929 . S
C552 H546 0.930 . S
C552 C553 1.367 1_545 S
C552 C560 1.378 . S
C553 C552 1.367 1_565 S
C553 C561 1.433 . S
C554 H550 0.929 . S
C554 C556 1.378 . S
C554 C558 1.350 1_565 S
C555 C558 1.463 1_565 S
C555 C560 1.350 1_565 S
C555 N563 1.427 . S
C556 H547 0.930 . S
C556 C554 1.378 . S
C556 C557 1.367 1_565 S
C557 C556 1.367 1_545 S
C557 C559 1.433 . S
C558 C554 1.350 1_545 S
C558 C555 1.463 1_545 S
C558 N562 1.427 . S
C559 H549 0.929 . S
C559 C557 1.433 . S
C559 N562 1.384 . S
C560 H551 0.929 . S
C560 C552 1.378 . S
C560 C555 1.350 1_545 S
C561 H548 0.929 . S
C561 C553 1.433 . S
C561 N563 1.384 . S
N562 C558 1.427 . S
N562 C559 1.384 . S
N563 C555 1.427 . S
N563 C561 1.384 . S
H564 C570 0.930 . S
H565 C574 0.930 . S
H566 C579 0.929 . S
H567 C577 0.929 . S
H568 C572 0.929 . S
H569 C578 0.929 . S
C570 H564 0.930 . S
C570 C571 1.367 1_455 S
C570 C578 1.378 . S
C571 C570 1.367 1_655 S
C571 C579 1.433 . S
C572 H568 0.929 . S
C572 C574 1.378 . S
C572 C576 1.350 1_655 S
C573 C576 1.463 1_655 S
C573 C578 1.350 1_655 S
C573 N581 1.427 . S
C574 H565 0.930 . S
C574 C572 1.378 . S
C574 C575 1.367 1_655 S
C575 C574 1.367 1_455 S
C575 C577 1.433 . S
C576 C572 1.350 1_455 S
C576 C573 1.463 1_455 S
C576 N580 1.427 . S
C577 H567 0.929 . S
C577 C575 1.433 . S
C577 N580 1.384 . S
C578 H569 0.929 . S
C578 C570 1.378 . S
C578 C573 1.350 1_455 S
C579 H566 0.929 . S
C579 C571 1.433 . S
C579 N581 1.384 . S
N580 C576 1.427 . S
N580 C577 1.384 . S
N581 C573 1.427 . S
N581 C579 1.384 . S
H582 C588 0.930 . S
H583 C592 0.930 . S
H584 C597 0.929 . S
H585 C595 0.929 . S
H586 C590 0.929 . S
H587 C596 0.929 . S
C588 H582 0.930 . S
C588 C589 1.367 . S
C588 C596 1.378 . S
C589 C588 1.367 . S
C589 C597 1.433 . S
C590 H586 0.929 . S
C590 C592 1.378 . S
C590 C594 1.350 . S
C591 C594 1.463 . S
C591 C596 1.350 . S
C591 N599 1.427 . S
C592 H583 0.930 . S
C592 C590 1.378 . S
C592 C593 1.367 . S
C593 C592 1.367 . S
C593 C595 1.433 . S
C594 C590 1.350 . S
C594 C591 1.463 . S
C594 N598 1.427 . S
C595 H585 0.929 . S
C595 C593 1.433 . S
C595 N598 1.384 . S
C596 H587 0.929 . S
C596 C588 1.378 . S
C596 C591 1.350 . S
C597 H584 0.929 . S
C597 C589 1.433 . S
C597 N599 1.384 . S
N598 C594 1.427 . S
N598 C595 1.384 . S
N599 C591 1.427 . S
N599 C597 1.384 . S
C175 C8 1.079 . S
C179 C107 1.072 . S
C193 C22 1.070 . S
C197 C121 1.085 1_565 S
C211 C36 1.082 . S
C215 C93 1.082 1_455 S
C229 C163 1.086 . S
C233 C50 1.076 . S
C247 C64 1.071 . S
C251 C135 1.078 1_565 S
C265 C149 1.082 1_455 S
C269 C78 1.069 . S
C283 C23 1.084 . S
C287 C92 1.080 . S
C301 C106 1.073 . S
C305 C37 1.086 1_545 S
C319 C9 1.083 1_655 S
C323 C120 1.070 . S
C337 C134 1.076 . S
C341 C79 1.073 . S
C355 C148 1.081 . S
C359 C51 1.073 1_545 S
C373 C65 1.085 1_655 S
C377 C162 1.079 . S
C391 C76 1.461 . S
C395 C6 1.473 . S
C409 C20 1.469 . S
C413 C48 1.470 . S
C427 C34 1.474 . S
C431 C62 1.461 . S
C445 C90 1.461 . S
C449 C160 1.475 . S
C463 C104 1.472 . S
C467 C132 1.466 . S
C481 C118 1.466 . S
C485 C146 1.467 . S
C499 C7 1.640 . S
C503 C91 1.640 . S
C517 C21 1.630 . S
C521 C105 1.630 . S
C535 C35 1.633 . S
C539 C119 1.633 . S
C553 C49 1.638 . S
C557 C133 1.638 . S
C571 C147 1.638 . S
C575 C63 1.638 . S
C589 C77 1.627 . S
C593 C161 1.627 . S
