# Generated by pormake.
# Topology rhr, (4)-cn, num edge types: 1
# Building blocks:
#     Node 0, Type 0, BuildingBlock: NAWXER_clean_sbu_0, # of connection points: 4
#     Node 1, Type 0, BuildingBlock: NAWXER_clean_sbu_0, # of connection points: 4
#     Node 2, Type 0, BuildingBlock: NAWXER_clean_sbu_0, # of connection points: 4
#     Node 3, Type 0, BuildingBlock: NAWXER_clean_sbu_0, # of connection points: 4
#     Node 4, Type 0, BuildingBlock: NAWXER_clean_sbu_0, # of connection points: 4
#     Node 5, Type 0, BuildingBlock: NAWXER_clean_sbu_0, # of connection points: 4
#     Node 6, Type 0, BuildingBlock: NAWXER_clean_sbu_0, # of connection points: 4
#     Node 7, Type 0, BuildingBlock: NAWXER_clean_sbu_0, # of connection points: 4
#     Node 8, Type 0, BuildingBlock: NAWXER_clean_sbu_0, # of connection points: 4
#     Node 9, Type 0, BuildingBlock: NAWXER_clean_sbu_0, # of connection points: 4
#     Node 10, Type 0, BuildingBlock: NAWXER_clean_sbu_0, # of connection points: 4
#     Node 11, Type 0, BuildingBlock: NAWXER_clean_sbu_0, # of connection points: 4
#     Node 12, Type 0, BuildingBlock: NAWXER_clean_sbu_0, # of connection points: 4
#     Node 13, Type 0, BuildingBlock: NAWXER_clean_sbu_0, # of connection points: 4
#     Node 14, Type 0, BuildingBlock: NAWXER_clean_sbu_0, # of connection points: 4
#     Node 15, Type 0, BuildingBlock: NAWXER_clean_sbu_0, # of connection points: 4
#     Node 16, Type 0, BuildingBlock: NAWXER_clean_sbu_0, # of connection points: 4
#     Node 17, Type 0, BuildingBlock: NAWXER_clean_sbu_0, # of connection points: 4
#     Node 18, Type 0, BuildingBlock: NAWXER_clean_sbu_0, # of connection points: 4
#     Node 19, Type 0, BuildingBlock: NAWXER_clean_sbu_0, # of connection points: 4
#     Node 20, Type 0, BuildingBlock: NAWXER_clean_sbu_0, # of connection points: 4
#     Node 21, Type 0, BuildingBlock: NAWXER_clean_sbu_0, # of connection points: 4
#     Node 22, Type 0, BuildingBlock: NAWXER_clean_sbu_0, # of connection points: 4
#     Node 23, Type 0, BuildingBlock: NAWXER_clean_sbu_0, # of connection points: 4
#     Edge 24, Type (0, 0), BuildingBlock: CIFDUS_clean_linker_0, # of connection points: 2
#     Edge 25, Type (0, 0), BuildingBlock: CIFDUS_clean_linker_0, # of connection points: 2
#     Edge 26, Type (0, 0), BuildingBlock: CIFDUS_clean_linker_0, # of connection points: 2
#     Edge 27, Type (0, 0), BuildingBlock: CIFDUS_clean_linker_0, # of connection points: 2
#     Edge 28, Type (0, 0), BuildingBlock: CIFDUS_clean_linker_0, # of connection points: 2
#     Edge 29, Type (0, 0), BuildingBlock: CIFDUS_clean_linker_0, # of connection points: 2
#     Edge 30, Type (0, 0), BuildingBlock: CIFDUS_clean_linker_0, # of connection points: 2
#     Edge 31, Type (0, 0), BuildingBlock: CIFDUS_clean_linker_0, # of connection points: 2
#     Edge 32, Type (0, 0), BuildingBlock: CIFDUS_clean_linker_0, # of connection points: 2
#     Edge 33, Type (0, 0), BuildingBlock: CIFDUS_clean_linker_0, # of connection points: 2
#     Edge 34, Type (0, 0), BuildingBlock: CIFDUS_clean_linker_0, # of connection points: 2
#     Edge 35, Type (0, 0), BuildingBlock: CIFDUS_clean_linker_0, # of connection points: 2
#     Edge 36, Type (0, 0), BuildingBlock: CIFDUS_clean_linker_0, # of connection points: 2
#     Edge 37, Type (0, 0), BuildingBlock: CIFDUS_clean_linker_0, # of connection points: 2
#     Edge 38, Type (0, 0), BuildingBlock: CIFDUS_clean_linker_0, # of connection points: 2
#     Edge 39, Type (0, 0), BuildingBlock: CIFDUS_clean_linker_0, # of connection points: 2
#     Edge 40, Type (0, 0), BuildingBlock: CIFDUS_clean_linker_0, # of connection points: 2
#     Edge 41, Type (0, 0), BuildingBlock: CIFDUS_clean_linker_0, # of connection points: 2
#     Edge 42, Type (0, 0), BuildingBlock: CIFDUS_clean_linker_0, # of connection points: 2
#     Edge 43, Type (0, 0), BuildingBlock: CIFDUS_clean_linker_0, # of connection points: 2
#     Edge 44, Type (0, 0), BuildingBlock: CIFDUS_clean_linker_0, # of connection points: 2
#     Edge 45, Type (0, 0), BuildingBlock: CIFDUS_clean_linker_0, # of connection points: 2
#     Edge 46, Type (0, 0), BuildingBlock: CIFDUS_clean_linker_0, # of connection points: 2
#     Edge 47, Type (0, 0), BuildingBlock: CIFDUS_clean_linker_0, # of connection points: 2
#     Edge 48, Type (0, 0), BuildingBlock: CIFDUS_clean_linker_0, # of connection points: 2
#     Edge 49, Type (0, 0), BuildingBlock: CIFDUS_clean_linker_0, # of connection points: 2
#     Edge 50, Type (0, 0), BuildingBlock: CIFDUS_clean_linker_0, # of connection points: 2
#     Edge 51, Type (0, 0), BuildingBlock: CIFDUS_clean_linker_0, # of connection points: 2
#     Edge 52, Type (0, 0), BuildingBlock: CIFDUS_clean_linker_0, # of connection points: 2
#     Edge 53, Type (0, 0), BuildingBlock: CIFDUS_clean_linker_0, # of connection points: 2
#     Edge 54, Type (0, 0), BuildingBlock: CIFDUS_clean_linker_0, # of connection points: 2
#     Edge 55, Type (0, 0), BuildingBlock: CIFDUS_clean_linker_0, # of connection points: 2
#     Edge 56, Type (0, 0), BuildingBlock: CIFDUS_clean_linker_0, # of connection points: 2
#     Edge 57, Type (0, 0), BuildingBlock: CIFDUS_clean_linker_0, # of connection points: 2
#     Edge 58, Type (0, 0), BuildingBlock: CIFDUS_clean_linker_0, # of connection points: 2
#     Edge 59, Type (0, 0), BuildingBlock: CIFDUS_clean_linker_0, # of connection points: 2
#     Edge 60, Type (0, 0), BuildingBlock: CIFDUS_clean_linker_0, # of connection points: 2
#     Edge 61, Type (0, 0), BuildingBlock: CIFDUS_clean_linker_0, # of connection points: 2
#     Edge 62, Type (0, 0), BuildingBlock: CIFDUS_clean_linker_0, # of connection points: 2
#     Edge 63, Type (0, 0), BuildingBlock: CIFDUS_clean_linker_0, # of connection points: 2
#     Edge 64, Type (0, 0), BuildingBlock: CIFDUS_clean_linker_0, # of connection points: 2
#     Edge 65, Type (0, 0), BuildingBlock: CIFDUS_clean_linker_0, # of connection points: 2
#     Edge 66, Type (0, 0), BuildingBlock: CIFDUS_clean_linker_0, # of connection points: 2
#     Edge 67, Type (0, 0), BuildingBlock: CIFDUS_clean_linker_0, # of connection points: 2
#     Edge 68, Type (0, 0), BuildingBlock: CIFDUS_clean_linker_0, # of connection points: 2
#     Edge 69, Type (0, 0), BuildingBlock: CIFDUS_clean_linker_0, # of connection points: 2
#     Edge 70, Type (0, 0), BuildingBlock: CIFDUS_clean_linker_0, # of connection points: 2
#     Edge 71, Type (0, 0), BuildingBlock: CIFDUS_clean_linker_0, # of connection points: 2
# Relax obj value: 0.003
# Max RMSD: 0.009
# Mean RMSD: 0.009
data_MOF--net-rhr--node1-NAWXER_clean_sbu_0--edge1-CIFDUS_clean_linker_0
_symmetry_space_group_name_H-M    P1
_symmetry_Int_Tables_number       1
_symmetry_cell_setting            triclinic
loop_
_symmetry_equiv_pos_as_xyz
'x, y, z'
_cell_length_a     43.748216
_cell_length_b     43.68171
_cell_length_c     43.855802
_cell_angle_alpha  90.165239
_cell_angle_beta   89.741249
_cell_angle_gamma 89.817998
loop_
_atom_site_label
_atom_site_type_symbol
_atom_site_fract_x
_atom_site_fract_y
_atom_site_fract_z
_atom_type_partial_charge
C0 C 0.29186 0.07187 0.34199 0.0
C1 C 0.34846 0.99378 0.28401 0.0
O2 O 0.28338 0.05915 0.31729 0.0
Zn3 Zn 0.31901 0.03291 0.31186 0.0
O4 O 0.3176 0.06453 0.3538 0.0
Zn5 Zn 0.35513 0.03421 0.34504 0.0
O6 O 0.38898 0.06272 0.33956 0.0
O7 O 0.35464 0.06464 0.30288 0.0
O8 O 0.36192 1.00236 0.30844 0.0
O9 O 0.32282 1.00542 0.27681 0.0
O10 O 0.31345 1.00259 0.3495 0.0
O11 O 0.35317 1.00705 0.3801 0.0
C12 C 0.37976 0.074 0.31449 0.0
C13 C 0.32754 0.99489 0.37386 0.0
C14 C 0.03143 0.37844 0.32775 0.0
C15 C 0.95208 0.33271 0.39313 0.0
O16 O 0.02114 0.35303 0.3173 0.0
Zn17 Zn 0.98882 0.31841 0.33064 0.0
O18 O 0.02172 0.38833 0.35335 0.0
Zn19 Zn 0.9929 0.3557 0.36233 0.0
O20 O 0.02204 0.31785 0.37119 0.0
O21 O 1.01323 0.2815 0.33725 0.0
O22 O 0.96732 0.35681 0.39892 0.0
O23 O 0.95824 0.31719 0.369 0.0
O24 O 0.95998 0.32062 0.29718 0.0
O25 O 0.95922 0.36114 0.32762 0.0
C26 C 0.02746 0.29104 0.36061 0.0
C27 C 0.94876 0.34654 0.30456 0.0
C28 C 0.64886 0.97339 0.31971 0.0
C29 C 0.70761 0.04378 0.38274 0.0
O30 O 0.64126 0.98301 0.34609 0.0
Zn31 Zn 0.67714 1.00849 0.35177 0.0
O32 O 0.67427 0.98165 0.30775 0.0
Zn33 Zn 0.71265 1.00968 0.31796 0.0
O34 O 0.74585 0.9804 0.31943 0.0
O35 O 0.71212 0.97457 0.3566 0.0
O36 O 0.72114 0.03697 0.35762 0.0
O37 O 0.68127 0.0329 0.38837 0.0
O38 O 0.67143 0.04227 0.31683 0.0
O39 O 0.71034 0.03866 0.28458 0.0
C40 C 0.73677 0.96616 0.34303 0.0
C41 C 0.68521 0.05104 0.29254 0.0
C42 C 0.07388 0.66252 0.31288 0.0
C43 C 0.99537 0.73168 0.35247 0.0
O44 O 0.06051 0.65285 0.33704 0.0
Zn45 Zn 0.02452 0.66633 0.36736 0.0
O46 O 0.06488 0.68711 0.30016 0.0
Zn47 Zn 0.03368 0.69695 0.33013 0.0
O48 O 0.06186 0.70299 0.36953 0.0
O49 O 0.04733 0.67062 0.4054 0.0
O50 O 1.01144 0.73579 0.32863 0.0
O51 O 0.99818 0.70703 0.36786 0.0
O52 O 0.99383 0.63441 0.36139 0.0
O53 O 1.00013 0.66261 0.32028 0.0
C54 C 0.06508 0.69183 0.3963 0.0
C55 C 0.98701 0.64019 0.33381 0.0
C56 C 0.29094 0.04076 0.66547 0.0
C57 C 0.36217 0.97921 0.7255 0.0
O58 O 0.31799 0.03908 0.65426 0.0
Zn59 Zn 0.36138 0.01955 0.66423 0.0
O60 O 0.28528 0.02817 0.691 0.0
Zn61 Zn 0.32615 1.01114 0.69749 0.0
O62 O 0.3538 0.0503 0.70648 0.0
O63 O 0.38784 0.05523 0.66967 0.0
O64 O 0.33489 0.9861 0.73303 0.0
O65 O 0.37388 0.98997 0.70095 0.0
O66 O 0.36646 0.99214 0.62948 0.0
O67 O 0.32944 0.97826 0.66089 0.0
C68 C 0.37638 0.06475 0.69467 0.0
C69 C 0.34529 0.97349 0.63664 0.0
C70 C 0.04683 0.38477 0.71397 0.0
C71 C 0.97758 0.32307 0.65295 0.0
O72 O 0.03684 0.39185 0.68769 0.0
Zn73 Zn 1.01283 0.35499 0.68189 0.0
O74 O 0.0404 0.35874 0.7256 0.0
Zn75 Zn 1.01431 0.31923 0.71589 0.0
O76 O 0.0448 0.28677 0.71134 0.0
O77 O 0.04691 0.32088 0.67436 0.0
O78 O 0.986 0.31019 0.67774 0.0
O79 O 0.98683 0.34991 0.64658 0.0
O80 O 0.98051 0.35964 0.7181 0.0
O81 O 0.98588 0.32126 0.75046 0.0
C82 C 0.05678 0.29619 0.68658 0.0
C83 C 0.97272 0.34608 0.74274 0.0
C84 C 0.6377 0.03645 0.69969 0.0
C85 C 0.70418 0.96992 0.63849 0.0
O86 O 0.63189 0.02619 0.67313 0.0
Zn87 Zn 0.66886 1.00174 0.66879 0.0
O88 O 0.66257 0.02877 0.71297 0.0
Zn89 Zn 0.7023 1.00152 0.70451 0.0
O90 O 0.73442 0.03251 0.70506 0.0
O91 O 0.70222 0.03744 0.66668 0.0
O92 O 0.71525 0.97672 0.66462 0.0
O93 O 0.67734 0.97872 0.63164 0.0
O94 O 0.6619 0.96703 0.70229 0.0
O95 O 0.69857 0.97067 0.73641 0.0
C96 C 0.72565 0.04682 0.68136 0.0
C97 C 0.6744 0.95766 0.72693 0.0
C98 C 0.98541 0.63335 0.67753 0.0
C99 C 0.0582 0.69906 0.62428 0.0
O100 O 0.99916 0.62687 0.65271 0.0
Zn101 Zn 0.02247 0.66463 0.64992 0.0
O102 O 0.99106 0.65847 0.69145 0.0
Zn103 Zn 0.01956 0.69751 0.68663 0.0
O104 O 0.98972 0.73054 0.68469 0.0
O105 O 0.98765 0.69891 0.64528 0.0
O106 O 0.04893 0.70982 0.6499 0.0
O107 O 0.04885 0.67301 0.61523 0.0
O108 O 0.05512 0.65833 0.68488 0.0
O109 O 0.04781 0.69292 0.72092 0.0
C110 C 0.97756 0.72255 0.65956 0.0
C111 C 0.06267 0.67004 0.71051 0.0
C112 C 0.33973 0.38349 0.06048 0.0
C113 C 0.38818 0.33378 0.97255 0.0
O114 O 0.36295 0.3932 0.04588 0.0
Zn115 Zn 0.36389 0.36136 0.01467 0.0
O116 O 0.32566 0.35967 0.0509 0.0
Zn117 Zn 0.3286 0.32689 0.01496 0.0
O118 O 0.33473 0.28862 0.03763 0.0
O119 O 0.37303 0.32131 0.04129 0.0
O120 O 0.36349 0.321 0.98166 0.0
O121 O 0.39693 0.3587 0.98482 0.0
O122 O 0.32576 0.37219 0.98668 0.0
O123 O 0.29193 0.33515 0.99073 0.0
C124 C 0.361 0.29548 0.0481 0.0
C125 C 0.29991 0.36071 0.97938 0.0
C126 C 0.70126 0.39876 0.03749 0.0
C127 C 0.64212 0.34345 0.95957 0.0
O128 O 0.71366 0.37363 0.0286 0.0
Zn129 Zn 0.70397 0.33616 0.99844 0.0
O130 O 0.67506 0.4063 0.02736 0.0
Zn131 Zn 0.66954 0.37117 1.0004 0.0
O132 O 0.66357 0.33526 0.03247 0.0
O133 O 0.70045 0.30132 0.02555 0.0
O134 O 0.6341 0.36775 0.97361 0.0
O135 O 0.66708 0.33005 0.96708 0.0
O136 O 0.73855 0.3395 0.971 0.0
O137 O 0.70568 0.37803 0.96825 0.0
C138 C 0.6767 0.31015 0.0399 0.0
C139 C 0.73033 0.36483 0.95925 0.0
C140 C 0.68616 0.75125 0.05518 0.0
C141 C 0.74091 0.68485 0.98097 0.0
O142 O 0.71075 0.75865 0.04132 0.0
Zn143 Zn 0.71596 0.71964 0.01891 0.0
O144 O 0.67471 0.72466 0.05093 0.0
Zn145 Zn 0.68197 0.68402 0.02491 0.0
O146 O 0.68803 0.65392 0.05702 0.0
O147 O 0.72512 0.688 0.05438 0.0
O148 O 0.71647 0.67328 0.99217 0.0
O149 O 0.74962 0.71117 0.9899 0.0
O150 O 0.67646 0.72327 0.99114 0.0
O151 O 0.64511 0.68464 1.00012 0.0
C152 C 0.71328 0.66434 0.06687 0.0
C153 C 0.6511 0.70956 0.98635 0.0
C154 C 0.28043 0.68032 0.98237 0.0
C155 C 0.34853 0.72454 0.05662 0.0
O156 O 0.30438 0.6638 0.98628 0.0
Zn157 Zn 0.34587 0.66586 1.01295 0.0
O158 O 0.27735 0.70579 0.99607 0.0
Zn159 Zn 0.31495 0.70257 0.01805 0.0
O160 O 0.34877 0.70867 0.98261 0.0
O161 O 0.37767 0.6673 0.98223 0.0
O162 O 0.32334 0.73464 0.04657 0.0
O163 O 0.3594 0.69928 0.0462 0.0
O164 O 0.34218 0.62905 0.03677 0.0
O165 O 0.3051 0.66248 0.04544 0.0
C166 C 0.37125 0.69341 0.97128 0.0
C167 C 0.31719 0.63607 0.04996 0.0
C168 C 0.8684 0.55635 0.7906 0.0
C169 C 0.80936 0.48945 0.85553 0.0
O170 O 0.88268 0.55012 0.81529 0.0
Zn171 Zn 0.8727 0.52694 0.85736 0.0
O172 O 0.84092 0.5479 0.78726 0.0
Zn173 Zn 0.83719 0.52576 0.825 0.0
O174 O 0.83093 0.56057 0.85904 0.0
O175 O 0.87105 0.55886 0.88889 0.0
O176 O 0.80117 0.50159 0.83056 0.0
O177 O 0.83477 0.49713 0.86787 0.0
O178 O 0.9055 0.49703 0.85774 0.0
O179 O 0.87176 0.4898 0.82107 0.0
C180 C 0.84551 0.57091 0.88213 0.0
C181 C 0.89613 0.4814 0.83507 0.0
C182 C 0.46741 0.79665 0.85762 0.0
C183 C 0.55201 0.84819 0.80449 0.0
O184 O 0.4803 0.78736 0.83318 0.0
Zn185 Zn 0.5092 0.82124 0.82986 0.0
O186 O 0.47635 0.82141 0.87045 0.0
Zn187 Zn 0.51013 0.85621 0.86432 0.0
O188 O 0.48463 0.89244 0.8602 0.0
O189 O 0.47989 0.85974 0.82206 0.0
O190 O 0.54361 0.86169 0.82912 0.0
O191 O 0.5382 0.82405 0.79599 0.0
O192 O 0.53736 0.81142 0.86815 0.0
O193 O 0.53523 0.85056 0.90011 0.0
C194 C 0.47243 0.88509 0.83496 0.0
C195 C 0.54516 0.82397 0.89334 0.0
C196 C 0.15815 0.56575 0.82285 0.0
C197 C 0.2143 0.48205 0.87353 0.0
O198 O 0.1838 0.5548 0.81409 0.0
Zn199 Zn 0.18707 0.52384 0.84601 0.0
O200 O 0.14442 0.55404 0.8459 0.0
Zn201 Zn 0.15082 0.51844 0.8791 0.0
O202 O 0.15098 0.54264 0.91645 0.0
O203 O 0.18917 0.55266 0.88478 0.0
O204 O 0.1882 0.48782 0.8856 0.0
O205 O 0.22297 0.49741 0.85047 0.0
O206 O 0.15144 0.4942 0.8326 0.0
O207 O 0.11725 0.49129 0.86973 0.0
C208 C 0.17447 0.55829 0.90947 0.0
C209 C 0.12615 0.48388 0.84304 0.0
C210 C 0.4777 0.19258 0.77411 0.0
C211 C 0.55796 0.24434 0.83305 0.0
O212 O 0.49152 0.217 0.7664 0.0
Zn213 Zn 0.51798 0.2196 0.80229 0.0
O214 O 0.48408 0.17979 0.79955 0.0
Zn215 Zn 0.51442 0.1856 0.83708 0.0
O216 O 0.48678 0.19118 0.87074 0.0
O217 O 0.48726 0.23047 0.83908 0.0
O218 O 0.54777 0.22001 0.84563 0.0
O219 O 0.54772 0.25266 0.80725 0.0
O220 O 0.54498 0.17899 0.7951 0.0
O221 O 0.53844 0.14865 0.83484 0.0
C222 C 0.47771 0.2179 0.86372 0.0
C223 C 0.55038 0.15369 0.80887 0.0
C224 C 0.81609 0.48568 0.14922 0.0
C225 C 0.87818 0.54919 0.21793 0.0
O226 O 0.80297 0.49124 0.17487 0.0
Zn227 Zn 0.81278 0.5153 0.21683 0.0
O228 O 0.84303 0.49551 0.14437 0.0
Zn229 Zn 0.84777 0.51686 0.18297 0.0
O230 O 0.85105 0.47947 0.21389 0.0
O231 O 0.8127 0.48273 0.24665 0.0
O232 O 0.88438 0.5404 0.19093 0.0
O233 O 0.85253 0.54154 0.22998 0.0
O234 O 0.77942 0.5448 0.21646 0.0
O235 O 0.81301 0.55099 0.17923 0.0
C236 C 0.83645 0.4689 0.23692 0.0
C237 C 0.78817 0.55897 0.1927 0.0
C238 C 0.53479 0.86072 0.23454 0.0
C239 C 0.46609 0.80124 0.17084 0.0
O240 O 0.53107 0.87152 0.20768 0.0
Zn241 Zn 0.50722 0.86187 0.16667 0.0
O242 O 0.52133 0.83613 0.24224 0.0
Zn243 Zn 0.50105 0.8297 0.20334 0.0
O244 O 0.53835 0.8198 0.17318 0.0
O245 O 0.54101 0.85521 0.13759 0.0
O246 O 0.47494 0.79453 0.19757 0.0
O247 O 0.47638 0.82522 0.15756 0.0
O248 O 0.48028 0.89756 0.1641 0.0
O249 O 0.46947 0.86739 0.20292 0.0
C250 C 0.55146 0.83076 0.14941 0.0
C251 C 0.46385 0.89158 0.18739 0.0
C252 C 0.20371 0.52585 0.13941 0.0
C253 C 0.14243 0.46075 0.20746 0.0
O254 O 0.21514 0.52213 0.16598 0.0
Zn255 Zn 0.20511 0.49894 0.20782 0.0
O256 O 0.17846 0.51311 0.13262 0.0
Zn257 Zn 0.17281 0.49256 0.17168 0.0
O258 O 0.16506 0.53154 0.19988 0.0
O259 O 0.20059 0.53335 0.23554 0.0
O260 O 0.13747 0.46678 0.17956 0.0
O261 O 0.16663 0.47115 0.22018 0.0
O262 O 0.24078 0.47239 0.21006 0.0
O263 O 0.21052 0.46164 0.17122 0.0
C264 C 0.17707 0.54484 0.22292 0.0
C265 C 0.23489 0.45655 0.18645 0.0
C266 C 0.57362 0.23606 0.1688 0.0
C267 C 0.49927 0.18415 0.23383 0.0
O268 O 0.56217 0.21199 0.15665 0.0
Zn269 Zn 0.52949 0.17731 0.16719 0.0
O270 O 0.56488 0.24459 0.19522 0.0
Zn271 Zn 0.53642 0.21145 0.20239 0.0
O272 O 0.56591 0.17282 0.20448 0.0
O273 O 0.5552 0.14043 0.16741 0.0
O274 O 0.5143 0.20799 0.24097 0.0
O275 O 0.50319 0.17168 0.20763 0.0
O276 O 0.49738 0.18431 0.1367 0.0
O277 O 0.50157 0.22186 0.17018 0.0
C278 C 0.57118 0.14752 0.19059 0.0
C279 C 0.48872 0.21041 0.14657 0.0
C280 C 0.86438 0.80004 0.54214 0.0
C281 C 0.81223 0.8503 0.45749 0.0
O282 O 0.84171 0.79016 0.52705 0.0
Zn283 Zn 0.83717 0.82463 0.49956 0.0
O284 O 0.87604 0.82601 0.53535 0.0
Zn285 Zn 0.86878 0.86173 0.50313 0.0
O286 O 0.85874 0.89644 0.52915 0.0
O287 O 0.82243 0.86148 0.52822 0.0
O288 O 0.83499 0.8655 0.46786 0.0
O289 O 0.80481 0.82493 0.46964 0.0
O290 O 0.87667 0.82128 0.47075 0.0
O291 O 0.90644 0.86109 0.47923 0.0
C292 C 0.83238 0.88741 0.5375 0.0
C293 C 0.90108 0.83634 0.46486 0.0
C294 C 0.25882 0.84495 0.545 0.0
C295 C 0.19915 0.78842 0.46929 0.0
O296 O 0.26675 0.82016 0.53184 0.0
Zn297 Zn 0.23108 0.81696 0.50548 0.0
O298 O 0.23335 0.85777 0.5384 0.0
Zn299 Zn 0.19565 0.85054 0.50843 0.0
O300 O 0.1622 0.84653 0.53682 0.0
O301 O 0.1942 0.80717 0.53689 0.0
O302 O 0.18591 0.81273 0.47904 0.0
O303 O 0.22656 0.78265 0.47702 0.0
O304 O 0.23776 0.85593 0.47687 0.0
O305 O 0.1972 0.88569 0.48172 0.0
C306 C 0.16938 0.81993 0.54621 0.0
C307 C 0.22332 0.88049 0.47 0.0
C308 C 0.1584 0.22165 0.55569 0.0
C309 C 0.21 0.17309 0.46882 0.0
O310 O 0.18093 0.2317 0.54038 0.0
Zn311 Zn 0.18464 0.19812 0.51171 0.0
O312 O 0.14617 0.1961 0.54817 0.0
Zn313 Zn 0.15275 0.16109 0.51432 0.0
O314 O 0.16221 0.12551 0.5398 0.0
O315 O 0.19857 0.16052 0.53899 0.0
O316 O 0.18709 0.15763 0.47868 0.0
O317 O 0.21707 0.1982 0.48173 0.0
O318 O 0.14547 0.20287 0.48361 0.0
O319 O 0.11526 0.16311 0.49013 0.0
C320 C 0.18855 0.13458 0.54803 0.0
C321 C 0.12096 0.18841 0.47696 0.0
C322 C 0.87883 0.20363 0.55886 0.0
C323 C 0.81682 0.14298 0.48935 0.0
O324 O 0.88597 0.17788 0.54717 0.0
Zn325 Zn 0.8483 0.17215 0.52504 0.0
O326 O 0.85234 0.21519 0.55412 0.0
Zn327 Zn 0.81184 0.20466 0.52922 0.0
O328 O 0.78121 0.19882 0.56093 0.0
O329 O 0.81649 0.16264 0.56087 0.0
O330 O 0.80287 0.16694 0.4992 0.0
O331 O 0.84394 0.13742 0.49808 0.0
O332 O 0.85001 0.20969 0.49382 0.0
O333 O 0.81046 0.24026 0.50249 0.0
C334 C 0.79205 0.17431 0.57222 0.0
C335 C 0.83483 0.23402 0.48777 0.0
H336 H 0.19124 0.136 0.42289 0.0
H337 H 0.27069 0.1822 0.45804 0.0
H338 H 0.30286 0.15666 0.41987 0.0
H339 H 0.30894 0.11774 0.37967 0.0
H340 H 0.22941 0.0729 0.34306 0.0
H341 H 0.19656 0.10175 0.37832 0.0
C342 C 0.21556 0.14067 0.42196 0.0
C343 C 0.22869 0.16062 0.44347 0.0
C344 C 0.23383 0.12616 0.39975 0.0
C345 C 0.2601 0.16691 0.44175 0.0
C346 C 0.2785 0.15222 0.42002 0.0
C347 C 0.28435 0.11465 0.37911 0.0
C348 C 0.27159 0.09304 0.35903 0.0
C349 C 0.2657 0.13132 0.39936 0.0
C350 C 0.23972 0.08948 0.35824 0.0
C351 C 0.22098 0.10579 0.37856 0.0
H352 H 0.90899 0.29041 0.38036 0.0
H353 H 0.93985 0.35025 0.45229 0.0
H354 H 0.90231 0.32776 0.48728 0.0
H355 H 0.86454 0.28701 0.49865 0.0
H356 H 0.83632 0.22599 0.42687 0.0
H357 H 0.86861 0.25332 0.39034 0.0
C358 C 0.90743 0.29877 0.40364 0.0
C359 C 0.92754 0.3217 0.41381 0.0
C360 C 0.88606 0.28559 0.42356 0.0
C361 C 0.92479 0.33252 0.44391 0.0
C362 C 0.90334 0.31963 0.46393 0.0
C363 C 0.86477 0.28052 0.47475 0.0
C364 C 0.84768 0.25508 0.46509 0.0
C365 C 0.8843 0.29569 0.45417 0.0
C366 C 0.84883 0.24596 0.43446 0.0
C367 C 0.86753 0.26136 0.41372 0.0
H368 H 0.83299 0.88587 0.41182 0.0
H369 H 0.75081 0.84542 0.44817 0.0
H370 H 0.71987 0.87603 0.41311 0.0
H371 H 0.71628 0.91882 0.3769 0.0
H372 H 0.7986 0.95851 0.33992 0.0
H373 H 0.82959 0.92327 0.37021 0.0
C374 C 0.80832 0.88342 0.41167 0.0
C375 C 0.79406 0.86384 0.43274 0.0
C376 C 0.79082 0.90105 0.39155 0.0
C377 C 0.7622 0.86039 0.43211 0.0
C378 C 0.74454 0.87803 0.41224 0.0
C379 C 0.74101 0.9194 0.37514 0.0
C380 C 0.75523 0.94148 0.35663 0.0
C381 C 0.7586 0.89913 0.3926 0.0
C382 C 0.78721 0.94173 0.35408 0.0
C383 C 0.80491 0.92173 0.37152 0.0
H384 H 0.14807 0.76186 0.48995 0.0
H385 H 0.20816 0.76511 0.41198 0.0
H386 H 0.17222 0.73343 0.38279 0.0
H387 H 0.12162 0.70889 0.37853 0.0
H388 H 0.06305 0.70309 0.45762 0.0
H389 H 0.10082 0.73126 0.48782 0.0
C390 C 0.15348 0.75508 0.46674 0.0
C391 C 0.18049 0.76576 0.45291 0.0
C392 C 0.13299 0.73661 0.45047 0.0
C393 C 0.1875 0.75697 0.42295 0.0
C394 C 0.1669 0.73904 0.40632 0.0
C395 C 0.11736 0.71349 0.4025 0.0
C396 C 0.0895 0.70434 0.41585 0.0
C397 C 0.13928 0.72934 0.41966 0.0
C398 C 0.08434 0.70992 0.44696 0.0
C399 C 0.10582 0.72617 0.46411 0.0
H400 H 0.30742 0.88088 0.53266 0.0
H401 H 0.25244 0.8455 0.60614 0.0
H402 H 0.277 0.88061 0.64201 0.0
H403 H 0.30941 0.92519 0.65102 0.0
H404 H 0.36298 0.96278 0.57733 0.0
H405 H 0.34403 0.92285 0.543 0.0
C406 C 0.30168 0.88029 0.55674 0.0
C407 C 0.27872 0.86037 0.56708 0.0
C408 C 0.31524 0.90128 0.57699 0.0
C409 C 0.27055 0.86029 0.59801 0.0
C410 C 0.28436 0.88055 0.61838 0.0
C411 C 0.31725 0.92451 0.62753 0.0
C412 C 0.3373 0.94722 0.61668 0.0
C413 C 0.306 0.90178 0.60792 0.0
C414 C 0.34749 0.94569 0.58627 0.0
C415 C 0.33657 0.9229 0.56659 0.0
H416 H 0.09932 0.31675 0.6468 0.0
H417 H 0.06424 0.23396 0.68705 0.0
H418 H 0.09409 0.20324 0.65072 0.0
H419 H 0.12589 0.2003 0.60412 0.0
H420 H 0.16185 0.2833 0.56494 0.0
H421 H 0.13594 0.3136 0.6043 0.0
C422 C 0.09864 0.29195 0.64796 0.0
C423 C 0.07942 0.27762 0.6694 0.0
C424 C 0.11568 0.27453 0.62694 0.0
C425 C 0.07896 0.24552 0.67087 0.0
C426 C 0.0958 0.22797 0.6499 0.0
C427 C 0.12823 0.22501 0.60437 0.0
C428 C 0.14538 0.2396 0.58137 0.0
C429 C 0.11352 0.24227 0.62728 0.0
C430 C 0.14869 0.27155 0.58229 0.0
C431 C 0.13383 0.28889 0.60476 0.0
H432 H 0.81621 0.13499 0.61354 0.0
H433 H 0.73096 0.17548 0.58502 0.0
H434 H 0.70289 0.14117 0.619 0.0
H435 H 0.70239 0.09585 0.65215 0.0
H436 H 0.78744 0.05613 0.68198 0.0
H437 H 0.81592 0.09428 0.65248 0.0
C438 C 0.79151 0.1366 0.61513 0.0
C439 C 0.77562 0.15746 0.59649 0.0
C440 C 0.77555 0.11687 0.6348 0.0
C441 C 0.74369 0.15963 0.59909 0.0
C442 C 0.72763 0.13989 0.61839 0.0
C443 C 0.72718 0.09591 0.6526 0.0
C444 C 0.74286 0.07307 0.6689 0.0
C445 C 0.74328 0.11786 0.63565 0.0
C446 C 0.77492 0.07355 0.66966 0.0
C447 C 0.79117 0.09521 0.6526 0.0
H448 H 0.93318 0.70252 0.62187 0.0
H449 H 0.96823 0.78431 0.66426 0.0
H450 H 0.93423 0.81573 0.6329 0.0
H451 H 0.8987 0.81992 0.58961 0.0
H452 H 0.86276 0.73789 0.54829 0.0
H453 H 0.89278 0.7065 0.58329 0.0
C454 C 0.93303 0.72722 0.62455 0.0
C455 C 0.95341 0.74116 0.64505 0.0
C456 C 0.91348 0.74503 0.60648 0.0
C457 C 0.95272 0.77309 0.64866 0.0
C458 C 0.93345 0.79104 0.63057 0.0
C459 C 0.89717 0.79516 0.58852 0.0
C460 C 0.87889 0.78121 0.5661 0.0
C461 C 0.91439 0.77728 0.60881 0.0
C462 C 0.87672 0.74916 0.56527 0.0
C463 C 0.89398 0.7312 0.58519 0.0
H464 H 0.40318 0.31082 0.08945 0.0
H465 H 0.36004 0.23223 0.0488 0.0
H466 H 0.396 0.19822 0.07544 0.0
H467 H 0.44198 0.19146 0.10861 0.0
H468 H 0.48286 0.27174 0.14901 0.0
H469 H 0.4458 0.3043 0.12391 0.0
C470 C 0.40142 0.28621 0.08655 0.0
C471 C 0.37911 0.27408 0.06706 0.0
C472 C 0.42209 0.26707 0.10167 0.0
C473 C 0.37692 0.24213 0.06385 0.0
C474 C 0.39767 0.22273 0.07887 0.0
C475 C 0.44269 0.21606 0.11182 0.0
C476 C 0.46535 0.22907 0.13061 0.0
C477 C 0.42076 0.235 0.09749 0.0
C478 C 0.46573 0.261 0.13482 0.0
C479 C 0.44451 0.27976 0.12045 0.0
H480 H 0.75474 0.48397 0.14099 0.0
H481 H 0.83962 0.44949 0.10386 0.0
H482 H 0.81139 0.41973 0.06592 0.0
H483 H 0.76258 0.40254 0.04426 0.0
H484 H 0.67777 0.43945 0.07914 0.0
H485 H 0.70598 0.46948 0.11697 0.0
C486 C 0.76704 0.4699 0.1246 0.0
C487 C 0.79922 0.4686 0.12544 0.0
C488 C 0.75068 0.45338 0.10249 0.0
C489 C 0.81489 0.45079 0.1037 0.0
C490 C 0.79875 0.43375 0.08206 0.0
C491 C 0.75026 0.4172 0.06013 0.0
C492 C 0.71809 0.41854 0.05914 0.0
C493 C 0.76665 0.43471 0.0814 0.0
C494 C 0.70249 0.43803 0.07946 0.0
C495 C 0.71862 0.45509 0.10114 0.0
H496 H 0.65217 0.73755 0.10416 0.0
H497 H 0.67846 0.81342 0.04742 0.0
H498 H 0.63914 0.84566 0.07191 0.0
H499 H 0.59385 0.85041 0.10667 0.0
H500 H 0.5691 0.7729 0.16251 0.0
H501 H 0.61091 0.74328 0.14098 0.0
C502 C 0.64971 0.76134 0.09752 0.0
C503 C 0.66819 0.77309 0.07406 0.0
C504 C 0.62684 0.77933 0.1112 0.0
C505 C 0.66479 0.80396 0.06573 0.0
C506 C 0.64201 0.82224 0.07946 0.0
C507 C 0.59772 0.82708 0.11413 0.0
C508 C 0.57801 0.81393 0.13605 0.0
C509 C 0.6223 0.8099 0.10171 0.0
C510 C 0.58366 0.78374 0.14569 0.0
C511 C 0.60767 0.76667 0.13341 0.0
H512 H 0.26468 0.53145 0.13372 0.0
H513 H 0.17965 0.56493 0.09709 0.0
H514 H 0.20755 0.60291 0.06674 0.0
H515 H 0.25605 0.6282 0.05306 0.0
H516 H 0.34119 0.59187 0.0866 0.0
H517 H 0.31331 0.55349 0.11631 0.0
C518 C 0.25231 0.54693 0.11887 0.0
C519 C 0.2202 0.54568 0.11774 0.0
C520 C 0.26848 0.56837 0.10143 0.0
C521 C 0.20438 0.56545 0.09816 0.0
C522 C 0.2203 0.58729 0.08107 0.0
C523 C 0.26843 0.61188 0.06691 0.0
C524 C 0.30055 0.61308 0.06812 0.0
C525 C 0.25231 0.58929 0.08298 0.0
C526 C 0.31646 0.59148 0.08561 0.0
C527 C 0.30054 0.56955 0.10248 0.0
H528 H 0.36459 0.74922 0.94495 0.0
H529 H 0.41993 0.66732 0.94109 0.0
H530 H 0.45239 0.69056 0.90202 0.0
H531 H 0.4677 0.73608 0.87203 0.0
H532 H 0.41389 0.81861 0.87904 0.0
H533 H 0.37789 0.79309 0.91321 0.0
C534 C 0.38359 0.73628 0.93543 0.0
C535 C 0.3899 0.70663 0.94619 0.0
C536 C 0.4024 0.74993 0.91331 0.0
C537 C 0.41461 0.69026 0.93343 0.0
C538 C 0.4332 0.70353 0.91103 0.0
C539 C 0.4476 0.74807 0.88044 0.0
C540 C 0.44312 0.779 0.87285 0.0
C541 C 0.42763 0.73356 0.90113 0.0
C542 C 0.41753 0.79469 0.88446 0.0
C543 C 0.3971 0.78019 0.90415 0.0
H544 H 0.31669 0.40257 0.9369 0.0
H545 H 0.2375 0.35808 0.97519 0.0
H546 H 0.20402 0.39087 0.94468 0.0
H547 H 0.19731 0.43448 0.90968 0.0
H548 H 0.2766 0.47743 0.86982 0.0
H549 H 0.31 0.44275 0.89818 0.0
C550 C 0.29209 0.39989 0.93842 0.0
C551 C 0.27959 0.37812 0.95858 0.0
C552 C 0.27303 0.41861 0.92058 0.0
C553 C 0.24771 0.37463 0.9599 0.0
C554 C 0.22856 0.39347 0.94254 0.0
C555 C 0.22191 0.43609 0.907 0.0
C556 C 0.23445 0.45876 0.88786 0.0
C557 C 0.24096 0.41589 0.9232 0.0
C558 C 0.26634 0.46024 0.88434 0.0
C559 C 0.28546 0.44049 0.90069 0.0
H560 H 0.54775 0.29988 0.85887 0.0
H561 H 0.61565 0.229 0.84822 0.0
H562 H 0.64834 0.25432 0.88571 0.0
H563 H 0.65569 0.29406 0.92427 0.0
H564 H 0.58687 0.36391 0.93757 0.0
H565 H 0.55635 0.34154 0.89649 0.0
C566 C 0.57013 0.29061 0.86419 0.0
C567 C 0.57979 0.26311 0.85035 0.0
C568 C 0.58826 0.30473 0.88669 0.0
C569 C 0.60821 0.25053 0.85816 0.0
C570 C 0.62669 0.26482 0.8798 0.0
C571 C 0.63406 0.30456 0.91821 0.0
C572 C 0.62354 0.33056 0.93426 0.0
C573 C 0.61664 0.29151 0.89472 0.0
C574 C 0.5955 0.34382 0.9258 0.0
C575 C 0.57806 0.33106 0.90223 0.0
H576 H 0.80242 0.67229 0.97782 0.0
H577 H 0.71682 0.65618 0.93233 0.0
H578 H 0.74194 0.62119 0.89661 0.0
H579 H 0.78722 0.59248 0.8803 0.0
H580 H 0.87257 0.60486 0.92755 0.0
H581 H 0.84876 0.64372 0.96043 0.0
C582 C 0.78952 0.66152 0.95969 0.0
C583 C 0.75786 0.66706 0.95747 0.0
C584 C 0.80401 0.6404 0.93976 0.0
C585 C 0.74122 0.6524 0.93436 0.0
C586 C 0.75556 0.63229 0.914 0.0
C587 C 0.80078 0.60383 0.8976 0.0
C588 C 0.83172 0.59566 0.90133 0.0
C589 C 0.78679 0.62567 0.9168 0.0
C590 C 0.84872 0.61055 0.92413 0.0
C591 C 0.83509 0.63284 0.94296 0.0
H592 H 0.04112 0.37593 0.26647 0.0
H593 H 0.0723 0.42102 0.3482 0.0
H594 H 0.10995 0.44964 0.31834 0.0
H595 H 0.13399 0.46195 0.26895 0.0
H596 H 0.10041 0.41945 0.18681 0.0
H597 H 0.06376 0.38974 0.21684 0.0
C598 C 0.05623 0.39195 0.27778 0.0
C599 C 0.05403 0.39614 0.3096 0.0
C600 C 0.07739 0.4088 0.26036 0.0
C601 C 0.07348 0.41735 0.32378 0.0
C602 C 0.09506 0.43368 0.30671 0.0
C603 C 0.11874 0.44607 0.25762 0.0
C604 C 0.12014 0.44273 0.22566 0.0
C605 C 0.09725 0.42958 0.27499 0.0
C606 C 0.09985 0.42245 0.21133 0.0
C607 C 0.07891 0.40543 0.22852 0.0
H608 H 0.16323 0.58163 0.76282 0.0
H609 H 0.11865 0.60714 0.84708 0.0
H610 H 0.08778 0.64502 0.82039 0.0
H611 H 0.06917 0.66686 0.77223 0.0
H612 H 0.11124 0.6388 0.68753 0.0
H613 H 0.14739 0.60657 0.71507 0.0
C614 C 0.14717 0.59591 0.77535 0.0
C615 C 0.14307 0.5914 0.80678 0.0
C616 C 0.12877 0.61715 0.75969 0.0
C617 C 0.12199 0.60993 0.82275 0.0
C618 C 0.10429 0.63164 0.80753 0.0
C619 C 0.0867 0.65422 0.75993 0.0
C620 C 0.08744 0.65511 0.72794 0.0
C621 C 0.10684 0.63487 0.77586 0.0
C622 C 0.11007 0.63831 0.71221 0.0
C623 C 0.13074 0.6198 0.72792 0.0
H624 H 0.4172 0.10832 0.67442 0.0
H625 H 0.36579 0.0799 0.75373 0.0
H626 H 0.39013 0.11925 0.78421 0.0
H627 H 0.42905 0.15865 0.78991 0.0
H628 H 0.48043 0.18889 0.71165 0.0
H629 H 0.45269 0.15257 0.67916 0.0
C630 C 0.41117 0.11096 0.6983 0.0
C631 C 0.38989 0.09083 0.71174 0.0
C632 C 0.42518 0.13407 0.71594 0.0
C633 C 0.3821 0.09486 0.74267 0.0
C634 C 0.39605 0.11741 0.76025 0.0
C635 C 0.43375 0.15772 0.76561 0.0
C636 C 0.45678 0.17631 0.7532 0.0
C637 C 0.41799 0.13671 0.7473 0.0
C638 C 0.46257 0.175 0.72168 0.0
C639 C 0.44695 0.15398 0.70319 0.0
H640 H 0.87723 0.43915 0.79375 0.0
H641 H 0.95272 0.461 0.85288 0.0
H642 H 0.98138 0.41706 0.83289 0.0
H643 H 0.98687 0.37547 0.79482 0.0
H644 H 0.91246 0.35606 0.73392 0.0
H645 H 0.88108 0.39539 0.7589 0.0
C646 C 0.89987 0.43425 0.80247 0.0
C647 C 0.91292 0.45365 0.82455 0.0
C648 C 0.91624 0.40906 0.79078 0.0
C649 C 0.94217 0.44662 0.83577 0.0
C650 C 0.95857 0.42144 0.82438 0.0
C651 C 0.96336 0.37915 0.78791 0.0
C652 C 0.95153 0.36244 0.76321 0.0
C653 C 0.94603 0.4028 0.8015 0.0
C654 C 0.92158 0.36815 0.75346 0.0
C655 C 0.90387 0.39091 0.76745 0.0
H656 H 0.6352 0.91386 0.707 0.0
H657 H 0.67709 0.94934 0.78858 0.0
H658 H 0.64396 0.917 0.81987 0.0
H659 H 0.59967 0.88248 0.82409 0.0
H660 H 0.55913 0.84536 0.74259 0.0
H661 H 0.59529 0.8743 0.71118 0.0
C662 C 0.6374 0.91415 0.73162 0.0
C663 C 0.65841 0.93421 0.74545 0.0
C664 C 0.61834 0.8954 0.74946 0.0
C665 C 0.66121 0.93408 0.77735 0.0
C666 C 0.6421 0.91575 0.79527 0.0
C667 C 0.59901 0.88045 0.79945 0.0
C668 C 0.57651 0.86209 0.78565 0.0
C669 C 0.62005 0.89692 0.78159 0.0
C670 C 0.5762 0.85932 0.75374 0.0
C671 C 0.59678 0.87599 0.73579 0.0
H672 H 0.98114 0.6347 0.27237 0.0
H673 H 0.94243 0.6027 0.35705 0.0
H674 H 0.90485 0.57246 0.32881 0.0
H675 H 0.88284 0.55517 0.27981 0.0
H676 H 0.92393 0.58501 0.19541 0.0
H677 H 0.96061 0.61599 0.22373 0.0
C678 C 0.96444 0.62117 0.2847 0.0
C679 C 0.96451 0.62119 0.31685 0.0
C680 C 0.94327 0.60343 0.2683 0.0
C681 C 0.94295 0.60314 0.33236 0.0
C682 C 0.92139 0.58588 0.3162 0.0
C683 C 0.89976 0.56855 0.26763 0.0
C684 C 0.90045 0.5679 0.23546 0.0
C685 C 0.92128 0.58589 0.28414 0.0
C686 C 0.92284 0.58504 0.22009 0.0
C687 C 0.94383 0.60282 0.2363 0.0
H688 H 0.37558 0.99971 0.22839 0.0
H689 H 0.35568 0.93477 0.29943 0.0
H690 H 0.38765 0.89631 0.27403 0.0
H691 H 0.42481 0.8829 0.23465 0.0
H692 H 0.44799 0.94823 0.16469 0.0
H693 H 0.4111 0.98472 0.18638 0.0
C694 C 0.37773 0.97683 0.23772 0.0
C695 C 0.36302 0.9697 0.26538 0.0
C696 C 0.39705 0.95514 0.22344 0.0
C697 C 0.36651 0.94042 0.2779 0.0
C698 C 0.38493 0.91857 0.26351 0.0
C699 C 0.42169 0.90499 0.22386 0.0
C700 C 0.43942 0.91284 0.19817 0.0
C701 C 0.4009 0.92594 0.23672 0.0
C702 C 0.43478 0.94157 0.18452 0.0
C703 C 0.4137 0.96248 0.19697 0.0
H704 H 0.66132 0.04348 0.23616 0.0
H705 H 0.67412 0.10971 0.30791 0.0
H706 H 0.64169 0.14639 0.281 0.0
H707 H 0.60652 0.15776 0.23987 0.0
H708 H 0.58972 0.09081 0.16937 0.0
H709 H 0.62699 0.05615 0.19289 0.0
C710 C 0.65753 0.06627 0.24533 0.0
C711 C 0.67041 0.07435 0.27356 0.0
C712 C 0.63783 0.08677 0.23026 0.0
C713 C 0.66473 0.10341 0.28595 0.0
C714 C 0.64606 0.12421 0.2707 0.0
C715 C 0.61105 0.13569 0.22936 0.0
C716 C 0.59512 0.12686 0.20293 0.0
C717 C 0.63194 0.11585 0.24325 0.0
C718 C 0.60153 0.09816 0.18975 0.0
C719 C 0.62284 0.07835 0.20321 0.0
H720 H 0.76572 0.97155 0.63439 0.0
H721 H 0.68621 0.93138 0.59268 0.0
H722 H 0.71915 0.90234 0.55757 0.0
H723 H 0.77059 0.8875 0.53986 0.0
H724 H 0.84989 0.93018 0.57953 0.0
H725 H 0.81692 0.95939 0.61437 0.0
C726 C 0.75561 0.95638 0.61763 0.0
C727 C 0.72361 0.95322 0.61634 0.0
C728 C 0.77463 0.94032 0.59725 0.0
C729 C 0.71077 0.93405 0.59413 0.0
C730 C 0.72959 0.91745 0.57414 0.0
C731 C 0.78065 0.90322 0.55615 0.0
C732 C 0.81265 0.90646 0.55742 0.0
C733 C 0.76154 0.92025 0.57568 0.0
C734 C 0.82535 0.9273 0.57818 0.0
C735 C 0.80651 0.9439 0.59814 0.0
H736 H 0.16237 0.75868 0.54476 0.0
H737 H 0.1267 0.84065 0.58713 0.0
H738 H 0.08886 0.81011 0.6149 0.0
H739 H 0.06603 0.76027 0.6267 0.0
H740 H 0.09907 0.67884 0.5812 0.0
H741 H 0.1376 0.70925 0.55428 0.0
C742 C 0.14644 0.76984 0.56024 0.0
C743 C 0.14752 0.8018 0.5643 0.0
C744 C 0.12416 0.75232 0.57513 0.0
C745 C 0.12639 0.81606 0.58389 0.0
C746 C 0.10475 0.79863 0.59964 0.0
C747 C 0.08167 0.74916 0.61087 0.0
C748 C 0.07996 0.71732 0.60611 0.0
C749 C 0.10341 0.76678 0.59534 0.0
C750 C 0.09996 0.7033 0.58519 0.0
C751 C 0.12207 0.72064 0.56997 0.0
H752 H 0.17632 0.10086 0.59959 0.0
H753 H 0.24789 0.12566 0.53639 0.0
H754 H 0.28547 0.09877 0.56711 0.0
H755 H 0.29862 0.07042 0.61233 0.0
H756 H 0.22903 0.04588 0.67778 0.0
H757 H 0.19009 0.07076 0.64604 0.0
C758 C 0.20008 0.09988 0.59249 0.0
C759 C 0.20941 0.11507 0.56577 0.0
C760 C 0.22194 0.0849 0.61083 0.0
C761 C 0.24027 0.11415 0.55692 0.0
C762 C 0.26178 0.09887 0.57449 0.0
C763 C 0.27496 0.07039 0.61984 0.0
C764 C 0.26684 0.05635 0.64749 0.0
C765 C 0.25297 0.0846 0.60164 0.0
C766 C 0.23598 0.05667 0.65667 0.0
C767 C 0.2137 0.07079 0.63845 0.0
H768 H 0.88258 0.26505 0.56239 0.0
H769 H 0.92499 0.18201 0.59466 0.0
H770 H 0.95979 0.21216 0.62637 0.0
H771 H 0.97649 0.26189 0.64617 0.0
H772 H 0.936 0.3451 0.61197 0.0
H773 H 0.90196 0.31501 0.57933 0.0
C774 C 0.89944 0.25358 0.57642 0.0
C775 C 0.90103 0.2214 0.57669 0.0
C776 C 0.91954 0.27103 0.59409 0.0
C777 C 0.92337 0.20675 0.59429 0.0
C778 C 0.94314 0.22397 0.61241 0.0
C779 C 0.96018 0.27344 0.63157 0.0
C780 C 0.95831 0.3056 0.63172 0.0
C781 C 0.94115 0.25607 0.61271 0.0
C782 C 0.93768 0.32036 0.61224 0.0
C783 C 0.91822 0.30317 0.59371 0.0
H784 H 0.76858 0.05108 0.3894 0.0
H785 H 0.68178 0.08035 0.42654 0.0
H786 H 0.70807 0.11393 0.46267 0.0
H787 H 0.75573 0.13536 0.48314 0.0
H788 H 0.84254 0.10359 0.44808 0.0
H789 H 0.81622 0.07042 0.41167 0.0
C790 C 0.75542 0.06488 0.40536 0.0
C791 C 0.72328 0.06353 0.40513 0.0
C792 C 0.77069 0.08359 0.4264 0.0
C793 C 0.70653 0.08107 0.42629 0.0
C794 C 0.72154 0.10028 0.44688 0.0
C795 C 0.76888 0.12119 0.46749 0.0
C796 C 0.80103 0.12209 0.46808 0.0
C797 C 0.7536 0.1018 0.44704 0.0
C798 C 0.81778 0.10327 0.44804 0.0
C799 C 0.80275 0.08438 0.42719 0.0
H800 H 1.00841 0.78373 0.38319 0.0
H801 H 0.93413 0.72909 0.34922 0.0
H802 H 0.89763 0.75901 0.37952 0.0
H803 H 0.8879 0.79603 0.42018 0.0
H804 H 0.9619 0.84983 0.45644 0.0
H805 H 0.99756 0.82518 0.42061 0.0
C806 C 0.98408 0.77926 0.38171 0.0
C807 C 0.97367 0.75479 0.36368 0.0
C808 C 0.96339 0.79592 0.40006 0.0
C809 C 0.94235 0.7483 0.36253 0.0
C810 C 0.9216 0.76515 0.38009 0.0
C811 C 0.9118 0.80258 0.42015 0.0
C812 C 0.92237 0.82433 0.44131 0.0
C813 C 0.93202 0.78825 0.39971 0.0
C814 C 0.95326 0.83298 0.44052 0.0
C815 C 0.97364 0.81886 0.42007 0.0
H816 H 0.26723 0.98336 0.37948 0.0
H817 H 0.35517 0.9565 0.41477 0.0
H818 H 0.3305 0.91795 0.44705 0.0
H819 H 0.28389 0.89159 0.46457 0.0
H820 H 0.19585 0.9211 0.43166 0.0
H821 H 0.22065 0.959 0.39887 0.0
C822 C 0.28103 0.96902 0.3942 0.0
C823 C 0.31301 0.9725 0.39454 0.0
C824 C 0.26667 0.9474 0.41295 0.0
C825 C 0.33053 0.9542 0.41413 0.0
C826 C 0.31645 0.93213 0.43247 0.0
C827 C 0.27018 0.90622 0.45005 0.0
C828 C 0.23813 0.90334 0.45013 0.0
C829 C 0.28455 0.92842 0.4319 0.0
C830 C 0.22055 0.92285 0.43182 0.0
C831 C 0.23471 0.94448 0.41311 0.0
H832 H 0.13067 0.23942 0.44386 0.0
H833 H 0.06526 0.1668 0.45681 0.0
H834 H 0.03173 0.19027 0.41864 0.0
H835 H 0.01973 0.23374 0.38393 0.0
H836 H 0.08492 0.30692 0.37439 0.0
H837 H 0.12017 0.28058 0.40848 0.0
C838 C 0.10913 0.22853 0.43841 0.0
C839 C 0.1004 0.2015 0.45347 0.0
C840 C 0.09006 0.24218 0.41678 0.0
C841 C 0.07247 0.18773 0.44575 0.0
C842 C 0.05333 0.20111 0.42387 0.0
C843 C 0.042 0.24338 0.38883 0.0
C844 C 0.05007 0.27195 0.37648 0.0
C845 C 0.06174 0.22857 0.40946 0.0
C846 C 0.07852 0.28479 0.38349 0.0
C847 C 0.09853 0.26986 0.40312 0.0
H848 H 0.64223 0.77011 0.98406 0.0
H849 H 0.60789 0.68493 0.94822 0.0
H850 H 0.57152 0.71328 0.91625 0.0
H851 H 0.55111 0.76246 0.89758 0.0
H852 H 0.58399 0.84721 0.93598 0.0
H853 H 0.61952 0.8187 0.96827 0.0
C854 C 0.62684 0.75773 0.96914 0.0
C855 C 0.628 0.72555 0.96792 0.0
C856 C 0.60589 0.77408 0.95148 0.0
C857 C 0.60744 0.7097 0.94927 0.0
C858 C 0.58678 0.72591 0.93104 0.0
C859 C 0.56608 0.77467 0.91304 0.0
C860 C 0.56529 0.80691 0.91419 0.0
C861 C 0.58606 0.75811 0.93177 0.0
C862 C 0.58428 0.82244 0.9347 0.0
C863 C 0.60461 0.80617 0.95304 0.0
H864 H 0.23649 0.64457 1.00482 0.0
H865 H 0.26974 0.68555 0.92194 0.0
H866 H 0.23516 0.65343 0.89192 0.0
H867 H 0.20189 0.60889 0.88933 0.0
H868 H 0.17115 0.56477 0.97176 0.0
H869 H 0.19806 0.6033 1.0024 0.0
C870 C 0.23539 0.64688 0.98025 0.0
C871 C 0.25515 0.66722 0.96532 0.0
C872 C 0.21637 0.6276 0.96332 0.0
C873 C 0.25425 0.67015 0.9336 0.0
C874 C 0.23476 0.65167 0.91657 0.0
C875 C 0.20077 0.60793 0.91404 0.0
C876 C 0.18523 0.58381 0.92844 0.0
C877 C 0.2167 0.62954 0.93117 0.0
C878 C 0.1832 0.58311 0.96034 0.0
C879 C 0.19868 0.60499 0.97774 0.0
H880 H 0.38816 0.27329 0.96182 0.0
H881 H 0.43106 0.35724 0.93298 0.0
H882 H 0.46174 0.32856 0.89546 0.0
H883 H 0.47637 0.27939 0.87147 0.0
H884 H 0.4355 0.19556 0.90348 0.0
H885 H 0.40363 0.22461 0.9393 0.0
C886 C 0.40405 0.28544 0.94717 0.0
C887 C 0.40712 0.31739 0.94983 0.0
C888 C 0.42183 0.26882 0.92632 0.0
C889 C 0.42828 0.33267 0.93122 0.0
C890 C 0.44572 0.31629 0.9098 0.0
C891 C 0.46025 0.26757 0.88612 0.0
C892 C 0.45792 0.23544 0.88469 0.0
C893 C 0.44264 0.28435 0.90718 0.0
C894 C 0.43754 0.22026 0.90419 0.0
C895 C 0.41937 0.23684 0.92461 0.0
H896 H 0.71142 0.40387 0.91596 0.0
H897 H 0.79255 0.36253 0.95353 0.0
H898 H 0.82453 0.3973 0.92352 0.0
H899 H 0.82889 0.44261 0.89053 0.0
H900 H 0.74758 0.48301 0.85225 0.0
H901 H 0.71595 0.44538 0.87884 0.0
C902 C 0.73613 0.4022 0.91722 0.0
C903 C 0.74971 0.38101 0.93709 0.0
C904 C 0.75418 0.42233 0.9002 0.0
C905 C 0.78167 0.37866 0.93828 0.0
C906 C 0.7999 0.3987 0.92138 0.0
C907 C 0.80423 0.44309 0.88801 0.0
C908 C 0.79041 0.46581 0.87002 0.0
C909 C 0.78633 0.42119 0.90298 0.0
C910 C 0.7586 0.46583 0.86622 0.0
C911 C 0.74056 0.44437 0.88138 0.0
H912 H 0.64573 0.33109 0.08913 0.0
H913 H 0.67794 0.24801 0.04624 0.0
H914 H 0.65034 0.21751 0.08414 0.0
H915 H 0.61351 0.21478 0.12658 0.0
H916 H 0.58286 0.29782 0.1707 0.0
H917 H 0.6138 0.32822 0.13537 0.0
C918 C 0.64689 0.30629 0.08828 0.0
C919 C 0.66341 0.29172 0.06474 0.0
C920 C 0.63125 0.28903 0.11026 0.0
C921 C 0.66529 0.25965 0.06414 0.0
C922 C 0.64943 0.24226 0.0857 0.0
C923 C 0.61391 0.23954 0.12866 0.0
C924 C 0.5957 0.25415 0.1509 0.0
C925 C 0.63181 0.25674 0.10842 0.0
C926 C 0.59673 0.28613 0.15375 0.0
C927 C 0.61424 0.30348 0.13345 0.0
H928 H 0.80672 0.60616 0.15843 0.0
H929 H 0.72558 0.56122 0.19143 0.0
H930 H 0.69431 0.59063 0.15552 0.0
H931 H 0.69122 0.62537 0.11079 0.0
H932 H 0.77349 0.66973 0.07904 0.0
H933 H 0.80308 0.64412 0.11816 0.0
C934 C 0.78209 0.60328 0.1582 0.0
C935 C 0.76845 0.58156 0.17736 0.0
C936 C 0.76453 0.61973 0.13725 0.0
C937 C 0.73653 0.57809 0.17704 0.0
C938 C 0.71873 0.59459 0.15622 0.0
C939 C 0.71558 0.62943 0.11258 0.0
C940 C 0.73015 0.64914 0.09177 0.0
C941 C 0.73264 0.61479 0.13552 0.0
C942 C 0.76167 0.65461 0.09465 0.0
C943 C 0.77869 0.64 0.11706 0.0
H944 H 0.38893 0.70364 0.09872 0.0
H945 H 0.34748 0.78618 0.064 0.0
H946 H 0.37962 0.81712 0.0973 0.0
H947 H 0.42145 0.82084 0.13395 0.0
H948 H 0.46116 0.73886 0.17147 0.0
H949 H 0.42752 0.70738 0.13962 0.0
C950 C 0.38687 0.72839 0.09865 0.0
C951 C 0.36615 0.74268 0.07877 0.0
C952 C 0.40507 0.74603 0.11826 0.0
C953 C 0.36328 0.7747 0.07914 0.0
C954 C 0.38171 0.79241 0.09807 0.0
C955 C 0.42254 0.79606 0.13527 0.0
C956 C 0.44386 0.78205 0.15461 0.0
C957 C 0.40295 0.77833 0.11735 0.0
C958 C 0.44483 0.75002 0.15666 0.0
C959 C 0.42575 0.73209 0.13838 0.0
H960 H 0.2975 0.36248 0.10034 0.0
H961 H 0.3556 0.44018 0.08277 0.0
H962 H 0.33156 0.46798 0.12521 0.0
H963 H 0.2894 0.47232 0.16283 0.0
H964 H 0.22917 0.39579 0.1768 0.0
H965 H 0.25913 0.36497 0.14075 0.0
C966 C 0.30518 0.38541 0.1059 0.0
C967 C 0.328 0.39942 0.08806 0.0
C968 C 0.29098 0.4013 0.12991 0.0
C969 C 0.33793 0.42895 0.09596 0.0
C970 C 0.32417 0.44485 0.12022 0.0
C971 C 0.28371 0.44849 0.15879 0.0
C972 C 0.25767 0.43592 0.17281 0.0
C973 C 0.30014 0.43152 0.13685 0.0
C974 C 0.24958 0.40552 0.16668 0.0
C975 C 0.26645 0.38811 0.14581 0.0
H976 H 0.92117 0.5393 0.76364 0.0
H977 H 0.85097 0.60866 0.76231 0.0
H978 H 0.88008 0.63774 0.72428 0.0
H979 H 0.92779 0.64535 0.69517 0.0
H980 H 0.99634 0.57437 0.69362 0.0
H981 H 0.9654 0.5434 0.72861 0.0
C982 C 0.91226 0.56067 0.75471 0.0
C983 C 0.88442 0.57231 0.76589 0.0
C984 C 0.9287 0.57669 0.73234 0.0
C985 C 0.87254 0.59958 0.75399 0.0
C986 C 0.88915 0.61612 0.73234 0.0
C987 C 0.93545 0.62272 0.70194 0.0
C988 C 0.96408 0.61193 0.692 0.0
C989 C 0.9175 0.60516 0.72181 0.0
C990 C 0.97411 0.58278 0.7008 0.0
C991 C 0.95661 0.5653 0.72102 0.0
H992 H 0.87126 0.42348 0.21293 0.0
H993 H 0.83032 0.45481 0.29715 0.0
H994 H 0.85941 0.41642 0.32544 0.0
H995 H 0.90144 0.37906 0.3267 0.0
H996 H 0.94201 0.34701 0.24269 0.0
H997 H 0.9077 0.38035 0.21357 0.0
C998 C 0.86836 0.42153 0.23743 0.0
C999 C 0.84912 0.44221 0.25308 0.0
C1000 C 0.88518 0.39949 0.25347 0.0
C1001 C 0.84507 0.43918 0.28468 0.0
C1002 C 0.86183 0.41738 0.30085 0.0
C1003 C 0.9023 0.379 0.30196 0.0
C1004 C 0.92434 0.36108 0.28673 0.0
C1005 C 0.88268 0.39819 0.28557 0.0
C1006 C 0.92513 0.36068 0.25477 0.0
C1007 C 0.90572 0.37988 0.2382 0.0
H1008 H 0.60837 0.92923 0.33849 0.0
H1009 H 0.6433 0.97587 0.25899 0.0
H1010 H 0.61155 0.94464 0.22611 0.0
H1011 H 0.57481 0.90435 0.21947 0.0
H1012 H 0.5393 0.8554 0.29716 0.0
H1013 H 0.57077 0.88691 0.33128 0.0
C1014 C 0.60876 0.93252 0.314 0.0
C1015 C 0.62812 0.9547 0.30112 0.0
C1016 C 0.59069 0.91397 0.29494 0.0
C1017 C 0.62876 0.95872 0.26937 0.0
C1018 C 0.61061 0.94093 0.25053 0.0
C1019 C 0.57379 0.90046 0.24388 0.0
C1020 C 0.55463 0.87772 0.25579 0.0
C1021 C 0.59171 0.91845 0.26303 0.0
C1022 C 0.55398 0.87278 0.28744 0.0
C1023 C 0.57183 0.89088 0.30692 0.0
H1024 H 0.174 0.56419 0.28169 0.0
H1025 H 0.14654 0.58757 0.19036 0.0
H1026 H 0.11498 0.62947 0.20996 0.0
H1027 H 0.09026 0.65531 0.25347 0.0
H1028 H 0.11442 0.62879 0.34489 0.0
H1029 H 0.1523 0.5927 0.32504 0.0
C1030 C 0.1616 0.57891 0.26614 0.0
C1031 C 0.16235 0.57279 0.23476 0.0
C1032 C 0.14261 0.60224 0.27763 0.0
C1033 C 0.146 0.59177 0.21472 0.0
C1034 C 0.12794 0.61569 0.22588 0.0
C1035 C 0.10428 0.64203 0.26893 0.0
C1036 C 0.09948 0.6444 0.30046 0.0
C1037 C 0.12529 0.62053 0.25735 0.0
C1038 C 0.11755 0.62698 0.32042 0.0
C1039 C 0.13921 0.60636 0.30913 0.0
H1040 H 0.44756 0.15601 0.21854 0.0
H1041 H 0.50256 0.17946 0.29635 0.0
H1042 H 0.46983 0.14768 0.32919 0.0
H1043 H 0.42751 0.10984 0.3344 0.0
H1044 H 0.37318 0.08846 0.2551 0.0
H1045 H 0.4038 0.12268 0.22429 0.0
C1046 C 0.4522 0.15443 0.24278 0.0
C1047 C 0.47746 0.16972 0.25504 0.0
C1048 C 0.43358 0.1362 0.26118 0.0
C1049 C 0.48307 0.16791 0.28649 0.0
C1050 C 0.46454 0.14955 0.30516 0.0
C1051 C 0.42238 0.11284 0.31043 0.0
C1052 C 0.3982 0.09637 0.29711 0.0
C1053 C 0.44007 0.133 0.29258 0.0
C1054 C 0.39159 0.10077 0.26606 0.0
C1055 C 0.40912 0.12035 0.24829 0.0
H1056 H 0.04279 0.38931 0.7747 0.0
H1057 H 0.08603 0.43038 0.69631 0.0
H1058 H 0.1142 0.46526 0.72996 0.0
H1059 H 0.12755 0.48232 0.7816 0.0
H1060 H 0.0824 0.44251 0.85966 0.0
H1061 H 0.05343 0.40867 0.8259 0.0
C1062 C 0.05848 0.40586 0.76497 0.0
C1063 C 0.06291 0.40704 0.7332 0.0
C1064 C 0.07405 0.42587 0.7843 0.0
C1065 C 0.08254 0.42904 0.72074 0.0
C1066 C 0.0986 0.44884 0.73994 0.0
C1067 C 0.11141 0.46618 0.79124 0.0
C1068 C 0.10738 0.46447 0.82308 0.0
C1069 C 0.09474 0.44716 0.77175 0.0
C1070 C 0.08593 0.44405 0.83525 0.0
C1071 C 0.06949 0.42471 0.81599 0.0
H1072 H 0.5528 0.1429 0.74828 0.0
H1073 H 0.58683 0.11005 0.8344 0.0
H1074 H 0.61603 0.06999 0.80794 0.0
H1075 H 0.63266 0.04534 0.76037 0.0
H1076 H 0.59659 0.07624 0.67435 0.0
H1077 H 0.56681 0.11592 0.70083 0.0
C1078 C 0.56679 0.12706 0.7612 0.0
C1079 C 0.56819 0.12964 0.79316 0.0
C1080 C 0.5828 0.1037 0.74591 0.0
C1081 C 0.58566 0.10856 0.80977 0.0
C1082 C 0.60227 0.08569 0.79467 0.0
C1083 C 0.61815 0.06067 0.74742 0.0
C1084 C 0.61697 0.05809 0.71545 0.0
C1085 C 0.60109 0.08317 0.76277 0.0
C1086 C 0.59777 0.07776 0.69898 0.0
C1087 C 0.58094 0.10054 0.71408 0.0
H1088 H 0.45332 0.88143 0.77673 0.0
H1089 H 0.44076 0.93404 0.85927 0.0
H1090 H 0.4031 0.96654 0.83348 0.0
H1091 H 0.37485 0.98089 0.78642 0.0
H1092 H 0.39117 0.92958 0.7038 0.0
H1093 H 0.42588 0.89532 0.73076 0.0
C1094 C 0.44229 0.89991 0.78923 0.0
C1095 C 0.44982 0.90526 0.8199 0.0
C1096 C 0.42116 0.91861 0.77421 0.0
C1097 C 0.43547 0.92951 0.83559 0.0
C1098 C 0.41386 0.94802 0.82088 0.0
C1099 C 0.38574 0.96189 0.77463 0.0
C1100 C 0.38039 0.9574 0.74335 0.0
C1101 C 0.40659 0.94286 0.79011 0.0
C1102 C 0.39499 0.93323 0.72794 0.0
C1103 C 0.41487 0.91375 0.74329 0.0
loop_
_geom_bond_atom_site_label_1
_geom_bond_atom_site_label_2
_geom_bond_distance
_geom_bond_site_symmetry_2
_ccdc_geom_bond_type
C0 O2 1.247 . S
C0 O4 1.258 . S
C1 O8 1.247 . S
C1 O9 1.258 . S
O2 C0 1.247 . S
O2 Zn3 2.028 . S
Zn3 O2 2.028 . S
Zn3 O7 2.035 . S
Zn3 O9 2.035 1_545 S
Zn3 O10 2.028 1_545 S
O4 C0 1.258 . S
O4 Zn5 2.035 . S
Zn5 O4 2.035 . S
Zn5 O6 2.028 . S
Zn5 O8 2.028 1_545 S
Zn5 O11 2.035 1_545 S
O6 Zn5 2.028 . S
O6 C12 1.247 . S
O7 Zn3 2.035 . S
O7 C12 1.258 . S
O8 C1 1.247 . S
O8 Zn5 2.028 1_565 S
O9 C1 1.258 . S
O9 Zn3 2.035 1_565 S
O10 Zn3 2.028 1_565 S
O10 C13 1.247 . S
O11 Zn5 2.035 1_565 S
O11 C13 1.258 . S
C12 O6 1.247 . S
C12 O7 1.258 . S
C13 O10 1.247 . S
C13 O11 1.258 . S
C14 O16 1.247 . S
C14 O18 1.258 . S
C15 O22 1.247 . S
C15 O23 1.258 . S
O16 C14 1.247 . S
O16 Zn17 2.028 . S
Zn17 O16 2.028 . S
Zn17 O21 2.035 . S
Zn17 O23 2.035 1_455 S
Zn17 O24 2.028 1_455 S
O18 C14 1.258 . S
O18 Zn19 2.035 . S
Zn19 O18 2.035 . S
Zn19 O20 2.028 . S
Zn19 O22 2.028 1_455 S
Zn19 O25 2.035 1_455 S
O20 Zn19 2.028 . S
O20 C26 1.247 . S
O21 Zn17 2.035 . S
O21 C26 1.258 . S
O22 C15 1.247 . S
O22 Zn19 2.028 1_655 S
O23 C15 1.258 . S
O23 Zn17 2.035 1_655 S
O24 Zn17 2.028 1_655 S
O24 C27 1.247 . S
O25 Zn19 2.035 1_655 S
O25 C27 1.258 . S
C26 O20 1.247 . S
C26 O21 1.258 . S
C27 O24 1.247 . S
C27 O25 1.258 . S
C28 O30 1.247 . S
C28 O32 1.258 . S
C29 O36 1.247 . S
C29 O37 1.258 . S
O30 C28 1.247 . S
O30 Zn31 2.028 1_565 S
Zn31 O30 2.028 1_545 S
Zn31 O35 2.035 1_545 S
Zn31 O37 2.035 . S
Zn31 O38 2.028 . S
O32 C28 1.258 . S
O32 Zn33 2.035 1_565 S
Zn33 O32 2.035 1_545 S
Zn33 O34 2.028 1_545 S
Zn33 O36 2.028 . S
Zn33 O39 2.035 . S
O34 Zn33 2.028 1_565 S
O34 C40 1.247 . S
O35 Zn31 2.035 1_565 S
O35 C40 1.258 . S
O36 C29 1.247 . S
O36 Zn33 2.028 . S
O37 C29 1.258 . S
O37 Zn31 2.035 . S
O38 Zn31 2.028 . S
O38 C41 1.247 . S
O39 Zn33 2.035 . S
O39 C41 1.258 . S
C40 O34 1.247 . S
C40 O35 1.258 . S
C41 O38 1.247 . S
C41 O39 1.258 . S
C42 O44 1.247 . S
C42 O46 1.258 . S
C43 O50 1.247 . S
C43 O51 1.258 . S
O44 C42 1.247 . S
O44 Zn45 2.028 . S
Zn45 O44 2.028 . S
Zn45 O49 2.035 . S
Zn45 O51 2.035 1_455 S
Zn45 O52 2.028 1_455 S
O46 C42 1.258 . S
O46 Zn47 2.035 . S
Zn47 O46 2.035 . S
Zn47 O48 2.028 . S
Zn47 O50 2.028 1_455 S
Zn47 O53 2.035 1_455 S
O48 Zn47 2.028 . S
O48 C54 1.247 . S
O49 Zn45 2.035 . S
O49 C54 1.258 . S
O50 C43 1.247 . S
O50 Zn47 2.028 1_655 S
O51 C43 1.258 . S
O51 Zn45 2.035 1_655 S
O52 Zn45 2.028 1_655 S
O52 C55 1.247 . S
O53 Zn47 2.035 1_655 S
O53 C55 1.258 . S
C54 O48 1.247 . S
C54 O49 1.258 . S
C55 O52 1.247 . S
C55 O53 1.258 . S
C56 O58 1.247 . S
C56 O60 1.258 . S
C57 O64 1.247 . S
C57 O65 1.258 . S
O58 C56 1.247 . S
O58 Zn59 2.028 . S
Zn59 O58 2.028 . S
Zn59 O63 2.035 . S
Zn59 O65 2.035 1_545 S
Zn59 O66 2.028 1_545 S
O60 C56 1.258 . S
O60 Zn61 2.035 . S
Zn61 O60 2.035 . S
Zn61 O62 2.028 . S
Zn61 O64 2.028 1_545 S
Zn61 O67 2.035 1_545 S
O62 Zn61 2.028 . S
O62 C68 1.247 . S
O63 Zn59 2.035 . S
O63 C68 1.258 . S
O64 C57 1.247 . S
O64 Zn61 2.028 1_565 S
O65 C57 1.258 . S
O65 Zn59 2.035 1_565 S
O66 Zn59 2.028 1_565 S
O66 C69 1.247 . S
O67 Zn61 2.035 1_565 S
O67 C69 1.258 . S
C68 O62 1.247 . S
C68 O63 1.258 . S
C69 O66 1.247 . S
C69 O67 1.258 . S
C70 O72 1.247 . S
C70 O74 1.258 . S
C71 O78 1.247 . S
C71 O79 1.258 . S
O72 C70 1.247 . S
O72 Zn73 2.028 . S
Zn73 O72 2.028 . S
Zn73 O77 2.035 . S
Zn73 O79 2.035 1_455 S
Zn73 O80 2.028 1_455 S
O74 C70 1.258 . S
O74 Zn75 2.035 . S
Zn75 O74 2.035 . S
Zn75 O76 2.028 . S
Zn75 O78 2.028 1_455 S
Zn75 O81 2.035 1_455 S
O76 Zn75 2.028 . S
O76 C82 1.247 . S
O77 Zn73 2.035 . S
O77 C82 1.258 . S
O78 C71 1.247 . S
O78 Zn75 2.028 1_655 S
O79 C71 1.258 . S
O79 Zn73 2.035 1_655 S
O80 Zn73 2.028 1_655 S
O80 C83 1.247 . S
O81 Zn75 2.035 1_655 S
O81 C83 1.258 . S
C82 O76 1.247 . S
C82 O77 1.258 . S
C83 O80 1.247 . S
C83 O81 1.258 . S
C84 O86 1.247 . S
C84 O88 1.258 . S
C85 O92 1.247 . S
C85 O93 1.258 . S
O86 C84 1.247 . S
O86 Zn87 2.028 . S
Zn87 O86 2.028 . S
Zn87 O91 2.035 . S
Zn87 O93 2.035 1_545 S
Zn87 O94 2.028 1_545 S
O88 C84 1.258 . S
O88 Zn89 2.035 . S
Zn89 O88 2.035 . S
Zn89 O90 2.028 . S
Zn89 O92 2.028 1_545 S
Zn89 O95 2.035 1_545 S
O90 Zn89 2.028 . S
O90 C96 1.247 . S
O91 Zn87 2.035 . S
O91 C96 1.258 . S
O92 C85 1.247 . S
O92 Zn89 2.028 1_565 S
O93 C85 1.258 . S
O93 Zn87 2.035 1_565 S
O94 Zn87 2.028 1_565 S
O94 C97 1.247 . S
O95 Zn89 2.035 1_565 S
O95 C97 1.258 . S
C96 O90 1.247 . S
C96 O91 1.258 . S
C97 O94 1.247 . S
C97 O95 1.258 . S
C98 O100 1.247 . S
C98 O102 1.258 . S
C99 O106 1.247 . S
C99 O107 1.258 . S
O100 C98 1.247 . S
O100 Zn101 2.028 1_655 S
Zn101 O100 2.028 1_455 S
Zn101 O105 2.035 1_455 S
Zn101 O107 2.035 . S
Zn101 O108 2.028 . S
O102 C98 1.258 . S
O102 Zn103 2.035 1_655 S
Zn103 O102 2.035 1_455 S
Zn103 O104 2.028 1_455 S
Zn103 O106 2.028 . S
Zn103 O109 2.035 . S
O104 Zn103 2.028 1_655 S
O104 C110 1.247 . S
O105 Zn101 2.035 1_655 S
O105 C110 1.258 . S
O106 C99 1.247 . S
O106 Zn103 2.028 . S
O107 C99 1.258 . S
O107 Zn101 2.035 . S
O108 Zn101 2.028 . S
O108 C111 1.247 . S
O109 Zn103 2.035 . S
O109 C111 1.258 . S
C110 O104 1.247 . S
C110 O105 1.258 . S
C111 O108 1.247 . S
C111 O109 1.258 . S
C112 O114 1.247 . S
C112 O116 1.258 . S
C113 O120 1.247 . S
C113 O121 1.258 . S
O114 C112 1.247 . S
O114 Zn115 2.028 . S
Zn115 O114 2.028 . S
Zn115 O119 2.035 . S
Zn115 O121 2.035 1_554 S
Zn115 O122 2.028 1_554 S
O116 C112 1.258 . S
O116 Zn117 2.035 . S
Zn117 O116 2.035 . S
Zn117 O118 2.028 . S
Zn117 O120 2.028 1_554 S
Zn117 O123 2.035 1_554 S
O118 Zn117 2.028 . S
O118 C124 1.247 . S
O119 Zn115 2.035 . S
O119 C124 1.258 . S
O120 C113 1.247 . S
O120 Zn117 2.028 1_556 S
O121 C113 1.258 . S
O121 Zn115 2.035 1_556 S
O122 Zn115 2.028 1_556 S
O122 C125 1.247 . S
O123 Zn117 2.035 1_556 S
O123 C125 1.258 . S
C124 O118 1.247 . S
C124 O119 1.258 . S
C125 O122 1.247 . S
C125 O123 1.258 . S
C126 O128 1.247 . S
C126 O130 1.258 . S
C127 O134 1.247 . S
C127 O135 1.258 . S
O128 C126 1.247 . S
O128 Zn129 2.028 . S
Zn129 O128 2.028 . S
Zn129 O133 2.035 . S
Zn129 O135 2.035 1_554 S
Zn129 O136 2.028 1_554 S
O130 C126 1.258 . S
O130 Zn131 2.035 . S
Zn131 O130 2.035 . S
Zn131 O132 2.028 . S
Zn131 O134 2.028 1_554 S
Zn131 O137 2.035 1_554 S
O132 Zn131 2.028 . S
O132 C138 1.247 . S
O133 Zn129 2.035 . S
O133 C138 1.258 . S
O134 C127 1.247 . S
O134 Zn131 2.028 1_556 S
O135 C127 1.258 . S
O135 Zn129 2.035 1_556 S
O136 Zn129 2.028 1_556 S
O136 C139 1.247 . S
O137 Zn131 2.035 1_556 S
O137 C139 1.258 . S
C138 O132 1.247 . S
C138 O133 1.258 . S
C139 O136 1.247 . S
C139 O137 1.258 . S
C140 O142 1.247 . S
C140 O144 1.258 . S
C141 O148 1.247 . S
C141 O149 1.258 . S
O142 C140 1.247 . S
O142 Zn143 2.028 . S
Zn143 O142 2.028 . S
Zn143 O147 2.035 . S
Zn143 O149 2.035 1_554 S
Zn143 O150 2.028 1_554 S
O144 C140 1.258 . S
O144 Zn145 2.035 . S
Zn145 O144 2.035 . S
Zn145 O146 2.028 . S
Zn145 O148 2.028 1_554 S
Zn145 O151 2.035 1_554 S
O146 Zn145 2.028 . S
O146 C152 1.247 . S
O147 Zn143 2.035 . S
O147 C152 1.258 . S
O148 C141 1.247 . S
O148 Zn145 2.028 1_556 S
O149 C141 1.258 . S
O149 Zn143 2.035 1_556 S
O150 Zn143 2.028 1_556 S
O150 C153 1.247 . S
O151 Zn145 2.035 1_556 S
O151 C153 1.258 . S
C152 O146 1.247 . S
C152 O147 1.258 . S
C153 O150 1.247 . S
C153 O151 1.258 . S
C154 O156 1.247 . S
C154 O158 1.258 . S
C155 O162 1.247 . S
C155 O163 1.258 . S
O156 C154 1.247 . S
O156 Zn157 2.028 1_556 S
Zn157 O156 2.028 1_554 S
Zn157 O161 2.035 1_554 S
Zn157 O163 2.035 . S
Zn157 O164 2.028 . S
O158 C154 1.258 . S
O158 Zn159 2.035 1_556 S
Zn159 O158 2.035 1_554 S
Zn159 O160 2.028 1_554 S
Zn159 O162 2.028 . S
Zn159 O165 2.035 . S
O160 Zn159 2.028 1_556 S
O160 C166 1.247 . S
O161 Zn157 2.035 1_556 S
O161 C166 1.258 . S
O162 C155 1.247 . S
O162 Zn159 2.028 . S
O163 C155 1.258 . S
O163 Zn157 2.035 . S
O164 Zn157 2.028 . S
O164 C167 1.247 . S
O165 Zn159 2.035 . S
O165 C167 1.258 . S
C166 O160 1.247 . S
C166 O161 1.258 . S
C167 O164 1.247 . S
C167 O165 1.258 . S
C168 O170 1.247 . S
C168 O172 1.258 . S
C169 O176 1.247 . S
C169 O177 1.258 . S
O170 C168 1.247 . S
O170 Zn171 2.028 . S
Zn171 O170 2.028 . S
Zn171 O175 2.035 . S
Zn171 O177 2.035 . S
Zn171 O178 2.028 . S
O172 C168 1.258 . S
O172 Zn173 2.035 . S
Zn173 O172 2.035 . S
Zn173 O174 2.028 . S
Zn173 O176 2.028 . S
Zn173 O179 2.035 . S
O174 Zn173 2.028 . S
O174 C180 1.247 . S
O175 Zn171 2.035 . S
O175 C180 1.258 . S
O176 C169 1.247 . S
O176 Zn173 2.028 . S
O177 C169 1.258 . S
O177 Zn171 2.035 . S
O178 Zn171 2.028 . S
O178 C181 1.247 . S
O179 Zn173 2.035 . S
O179 C181 1.258 . S
C180 O174 1.247 . S
C180 O175 1.258 . S
C181 O178 1.247 . S
C181 O179 1.258 . S
C182 O184 1.247 . S
C182 O186 1.258 . S
C183 O190 1.247 . S
C183 O191 1.258 . S
O184 C182 1.247 . S
O184 Zn185 2.028 . S
Zn185 O184 2.028 . S
Zn185 O189 2.035 . S
Zn185 O191 2.035 . S
Zn185 O192 2.028 . S
O186 C182 1.258 . S
O186 Zn187 2.035 . S
Zn187 O186 2.035 . S
Zn187 O188 2.028 . S
Zn187 O190 2.028 . S
Zn187 O193 2.035 . S
O188 Zn187 2.028 . S
O188 C194 1.247 . S
O189 Zn185 2.035 . S
O189 C194 1.258 . S
O190 C183 1.247 . S
O190 Zn187 2.028 . S
O191 C183 1.258 . S
O191 Zn185 2.035 . S
O192 Zn185 2.028 . S
O192 C195 1.247 . S
O193 Zn187 2.035 . S
O193 C195 1.258 . S
C194 O188 1.247 . S
C194 O189 1.258 . S
C195 O192 1.247 . S
C195 O193 1.258 . S
C196 O198 1.247 . S
C196 O200 1.258 . S
C197 O204 1.247 . S
C197 O205 1.258 . S
O198 C196 1.247 . S
O198 Zn199 2.028 . S
Zn199 O198 2.028 . S
Zn199 O203 2.035 . S
Zn199 O205 2.035 . S
Zn199 O206 2.028 . S
O200 C196 1.258 . S
O200 Zn201 2.035 . S
Zn201 O200 2.035 . S
Zn201 O202 2.028 . S
Zn201 O204 2.028 . S
Zn201 O207 2.035 . S
O202 Zn201 2.028 . S
O202 C208 1.247 . S
O203 Zn199 2.035 . S
O203 C208 1.258 . S
O204 C197 1.247 . S
O204 Zn201 2.028 . S
O205 C197 1.258 . S
O205 Zn199 2.035 . S
O206 Zn199 2.028 . S
O206 C209 1.247 . S
O207 Zn201 2.035 . S
O207 C209 1.258 . S
C208 O202 1.247 . S
C208 O203 1.258 . S
C209 O206 1.247 . S
C209 O207 1.258 . S
C210 O212 1.247 . S
C210 O214 1.258 . S
C211 O218 1.247 . S
C211 O219 1.258 . S
O212 C210 1.247 . S
O212 Zn213 2.028 . S
Zn213 O212 2.028 . S
Zn213 O217 2.035 . S
Zn213 O219 2.035 . S
Zn213 O220 2.028 . S
O214 C210 1.258 . S
O214 Zn215 2.035 . S
Zn215 O214 2.035 . S
Zn215 O216 2.028 . S
Zn215 O218 2.028 . S
Zn215 O221 2.035 . S
O216 Zn215 2.028 . S
O216 C222 1.247 . S
O217 Zn213 2.035 . S
O217 C222 1.258 . S
O218 C211 1.247 . S
O218 Zn215 2.028 . S
O219 C211 1.258 . S
O219 Zn213 2.035 . S
O220 Zn213 2.028 . S
O220 C223 1.247 . S
O221 Zn215 2.035 . S
O221 C223 1.258 . S
C222 O216 1.247 . S
C222 O217 1.258 . S
C223 O220 1.247 . S
C223 O221 1.258 . S
C224 O226 1.247 . S
C224 O228 1.258 . S
C225 O232 1.247 . S
C225 O233 1.258 . S
O226 C224 1.247 . S
O226 Zn227 2.028 . S
Zn227 O226 2.028 . S
Zn227 O231 2.035 . S
Zn227 O233 2.035 . S
Zn227 O234 2.028 . S
O228 C224 1.258 . S
O228 Zn229 2.035 . S
Zn229 O228 2.035 . S
Zn229 O230 2.028 . S
Zn229 O232 2.028 . S
Zn229 O235 2.035 . S
O230 Zn229 2.028 . S
O230 C236 1.247 . S
O231 Zn227 2.035 . S
O231 C236 1.258 . S
O232 C225 1.247 . S
O232 Zn229 2.028 . S
O233 C225 1.258 . S
O233 Zn227 2.035 . S
O234 Zn227 2.028 . S
O234 C237 1.247 . S
O235 Zn229 2.035 . S
O235 C237 1.258 . S
C236 O230 1.247 . S
C236 O231 1.258 . S
C237 O234 1.247 . S
C237 O235 1.258 . S
C238 O240 1.247 . S
C238 O242 1.258 . S
C239 O246 1.247 . S
C239 O247 1.258 . S
O240 C238 1.247 . S
O240 Zn241 2.028 . S
Zn241 O240 2.028 . S
Zn241 O245 2.035 . S
Zn241 O247 2.035 . S
Zn241 O248 2.028 . S
O242 C238 1.258 . S
O242 Zn243 2.035 . S
Zn243 O242 2.035 . S
Zn243 O244 2.028 . S
Zn243 O246 2.028 . S
Zn243 O249 2.035 . S
O244 Zn243 2.028 . S
O244 C250 1.247 . S
O245 Zn241 2.035 . S
O245 C250 1.258 . S
O246 C239 1.247 . S
O246 Zn243 2.028 . S
O247 C239 1.258 . S
O247 Zn241 2.035 . S
O248 Zn241 2.028 . S
O248 C251 1.247 . S
O249 Zn243 2.035 . S
O249 C251 1.258 . S
C250 O244 1.247 . S
C250 O245 1.258 . S
C251 O248 1.247 . S
C251 O249 1.258 . S
C252 O254 1.247 . S
C252 O256 1.258 . S
C253 O260 1.247 . S
C253 O261 1.258 . S
O254 C252 1.247 . S
O254 Zn255 2.028 . S
Zn255 O254 2.028 . S
Zn255 O259 2.035 . S
Zn255 O261 2.035 . S
Zn255 O262 2.028 . S
O256 C252 1.258 . S
O256 Zn257 2.035 . S
Zn257 O256 2.035 . S
Zn257 O258 2.028 . S
Zn257 O260 2.028 . S
Zn257 O263 2.035 . S
O258 Zn257 2.028 . S
O258 C264 1.247 . S
O259 Zn255 2.035 . S
O259 C264 1.258 . S
O260 C253 1.247 . S
O260 Zn257 2.028 . S
O261 C253 1.258 . S
O261 Zn255 2.035 . S
O262 Zn255 2.028 . S
O262 C265 1.247 . S
O263 Zn257 2.035 . S
O263 C265 1.258 . S
C264 O258 1.247 . S
C264 O259 1.258 . S
C265 O262 1.247 . S
C265 O263 1.258 . S
C266 O268 1.247 . S
C266 O270 1.258 . S
C267 O274 1.247 . S
C267 O275 1.258 . S
O268 C266 1.247 . S
O268 Zn269 2.028 . S
Zn269 O268 2.028 . S
Zn269 O273 2.035 . S
Zn269 O275 2.035 . S
Zn269 O276 2.028 . S
O270 C266 1.258 . S
O270 Zn271 2.035 . S
Zn271 O270 2.035 . S
Zn271 O272 2.028 . S
Zn271 O274 2.028 . S
Zn271 O277 2.035 . S
O272 Zn271 2.028 . S
O272 C278 1.247 . S
O273 Zn269 2.035 . S
O273 C278 1.258 . S
O274 C267 1.247 . S
O274 Zn271 2.028 . S
O275 C267 1.258 . S
O275 Zn269 2.035 . S
O276 Zn269 2.028 . S
O276 C279 1.247 . S
O277 Zn271 2.035 . S
O277 C279 1.258 . S
C278 O272 1.247 . S
C278 O273 1.258 . S
C279 O276 1.247 . S
C279 O277 1.258 . S
C280 O282 1.247 . S
C280 O284 1.258 . S
C281 O288 1.247 . S
C281 O289 1.258 . S
O282 C280 1.247 . S
O282 Zn283 2.028 . S
Zn283 O282 2.028 . S
Zn283 O287 2.035 . S
Zn283 O289 2.035 . S
Zn283 O290 2.028 . S
O284 C280 1.258 . S
O284 Zn285 2.035 . S
Zn285 O284 2.035 . S
Zn285 O286 2.028 . S
Zn285 O288 2.028 . S
Zn285 O291 2.035 . S
O286 Zn285 2.028 . S
O286 C292 1.247 . S
O287 Zn283 2.035 . S
O287 C292 1.258 . S
O288 C281 1.247 . S
O288 Zn285 2.028 . S
O289 C281 1.258 . S
O289 Zn283 2.035 . S
O290 Zn283 2.028 . S
O290 C293 1.247 . S
O291 Zn285 2.035 . S
O291 C293 1.258 . S
C292 O286 1.247 . S
C292 O287 1.258 . S
C293 O290 1.247 . S
C293 O291 1.258 . S
C294 O296 1.247 . S
C294 O298 1.258 . S
C295 O302 1.247 . S
C295 O303 1.258 . S
O296 C294 1.247 . S
O296 Zn297 2.028 . S
Zn297 O296 2.028 . S
Zn297 O301 2.035 . S
Zn297 O303 2.035 . S
Zn297 O304 2.028 . S
O298 C294 1.258 . S
O298 Zn299 2.035 . S
Zn299 O298 2.035 . S
Zn299 O300 2.028 . S
Zn299 O302 2.028 . S
Zn299 O305 2.035 . S
O300 Zn299 2.028 . S
O300 C306 1.247 . S
O301 Zn297 2.035 . S
O301 C306 1.258 . S
O302 C295 1.247 . S
O302 Zn299 2.028 . S
O303 C295 1.258 . S
O303 Zn297 2.035 . S
O304 Zn297 2.028 . S
O304 C307 1.247 . S
O305 Zn299 2.035 . S
O305 C307 1.258 . S
C306 O300 1.247 . S
C306 O301 1.258 . S
C307 O304 1.247 . S
C307 O305 1.258 . S
C308 O310 1.247 . S
C308 O312 1.258 . S
C309 O316 1.247 . S
C309 O317 1.258 . S
O310 C308 1.247 . S
O310 Zn311 2.028 . S
Zn311 O310 2.028 . S
Zn311 O315 2.035 . S
Zn311 O317 2.035 . S
Zn311 O318 2.028 . S
O312 C308 1.258 . S
O312 Zn313 2.035 . S
Zn313 O312 2.035 . S
Zn313 O314 2.028 . S
Zn313 O316 2.028 . S
Zn313 O319 2.035 . S
O314 Zn313 2.028 . S
O314 C320 1.247 . S
O315 Zn311 2.035 . S
O315 C320 1.258 . S
O316 C309 1.247 . S
O316 Zn313 2.028 . S
O317 C309 1.258 . S
O317 Zn311 2.035 . S
O318 Zn311 2.028 . S
O318 C321 1.247 . S
O319 Zn313 2.035 . S
O319 C321 1.258 . S
C320 O314 1.247 . S
C320 O315 1.258 . S
C321 O318 1.247 . S
C321 O319 1.258 . S
C322 O324 1.247 . S
C322 O326 1.258 . S
C323 O330 1.247 . S
C323 O331 1.258 . S
O324 C322 1.247 . S
O324 Zn325 2.028 . S
Zn325 O324 2.028 . S
Zn325 O329 2.035 . S
Zn325 O331 2.035 . S
Zn325 O332 2.028 . S
O326 C322 1.258 . S
O326 Zn327 2.035 . S
Zn327 O326 2.035 . S
Zn327 O328 2.028 . S
Zn327 O330 2.028 . S
Zn327 O333 2.035 . S
O328 Zn327 2.028 . S
O328 C334 1.247 . S
O329 Zn325 2.035 . S
O329 C334 1.258 . S
O330 C323 1.247 . S
O330 Zn327 2.028 . S
O331 C323 1.258 . S
O331 Zn325 2.035 . S
O332 Zn325 2.028 . S
O332 C335 1.247 . S
O333 Zn327 2.035 . S
O333 C335 1.258 . S
C334 O328 1.247 . S
C334 O329 1.258 . S
C335 O332 1.247 . S
C335 O333 1.258 . S
H336 C342 0.930 . S
H337 C345 0.930 . S
H338 C346 0.930 . S
H339 C347 0.930 . S
H340 C350 0.930 . S
H341 C351 0.930 . S
C342 H336 0.930 . S
C342 C343 1.355 . S
C342 C344 1.415 . S
C343 C342 1.355 . S
C343 C345 1.419 . S
C344 C342 1.415 . S
C344 C349 1.425 . S
C344 C351 1.409 . S
C345 H337 0.930 . S
C345 C343 1.419 . S
C345 C346 1.362 . S
C346 H338 0.930 . S
C346 C345 1.362 . S
C346 C349 1.409 . S
C347 H339 0.930 . S
C347 C348 1.355 . S
C347 C349 1.415 . S
C348 C347 1.355 . S
C348 C350 1.419 . S
C349 C344 1.425 . S
C349 C346 1.409 . S
C349 C347 1.415 . S
C350 H340 0.930 . S
C350 C348 1.419 . S
C350 C351 1.362 . S
C351 H341 0.930 . S
C351 C344 1.409 . S
C351 C350 1.362 . S
H352 C358 0.930 . S
H353 C361 0.930 . S
H354 C362 0.930 . S
H355 C363 0.930 . S
H356 C366 0.930 . S
H357 C367 0.930 . S
C358 H352 0.930 . S
C358 C359 1.355 . S
C358 C360 1.415 . S
C359 C358 1.355 . S
C359 C361 1.419 . S
C360 C358 1.415 . S
C360 C365 1.425 . S
C360 C367 1.409 . S
C361 H353 0.930 . S
C361 C359 1.419 . S
C361 C362 1.362 . S
C362 H354 0.930 . S
C362 C361 1.362 . S
C362 C365 1.409 . S
C363 H355 0.930 . S
C363 C364 1.355 . S
C363 C365 1.415 . S
C364 C363 1.355 . S
C364 C366 1.419 . S
C365 C360 1.425 . S
C365 C362 1.409 . S
C365 C363 1.415 . S
C366 H356 0.930 . S
C366 C364 1.419 . S
C366 C367 1.362 . S
C367 H357 0.930 . S
C367 C360 1.409 . S
C367 C366 1.362 . S
H368 C374 0.930 . S
H369 C377 0.930 . S
H370 C378 0.930 . S
H371 C379 0.930 . S
H372 C382 0.930 . S
H373 C383 0.930 . S
C374 H368 0.930 . S
C374 C375 1.355 . S
C374 C376 1.415 . S
C375 C374 1.355 . S
C375 C377 1.419 . S
C376 C374 1.415 . S
C376 C381 1.425 . S
C376 C383 1.409 . S
C377 H369 0.930 . S
C377 C375 1.419 . S
C377 C378 1.362 . S
C378 H370 0.930 . S
C378 C377 1.362 . S
C378 C381 1.409 . S
C379 H371 0.930 . S
C379 C380 1.355 . S
C379 C381 1.415 . S
C380 C379 1.355 . S
C380 C382 1.419 . S
C381 C376 1.425 . S
C381 C378 1.409 . S
C381 C379 1.415 . S
C382 H372 0.930 . S
C382 C380 1.419 . S
C382 C383 1.362 . S
C383 H373 0.930 . S
C383 C376 1.409 . S
C383 C382 1.362 . S
H384 C390 0.930 . S
H385 C393 0.930 . S
H386 C394 0.930 . S
H387 C395 0.930 . S
H388 C398 0.930 . S
H389 C399 0.930 . S
C390 H384 0.930 . S
C390 C391 1.355 . S
C390 C392 1.415 . S
C391 C390 1.355 . S
C391 C393 1.419 . S
C392 C390 1.415 . S
C392 C397 1.425 . S
C392 C399 1.409 . S
C393 H385 0.930 . S
C393 C391 1.419 . S
C393 C394 1.362 . S
C394 H386 0.930 . S
C394 C393 1.362 . S
C394 C397 1.409 . S
C395 H387 0.930 . S
C395 C396 1.355 . S
C395 C397 1.415 . S
C396 C395 1.355 . S
C396 C398 1.419 . S
C397 C392 1.425 . S
C397 C394 1.409 . S
C397 C395 1.415 . S
C398 H388 0.930 . S
C398 C396 1.419 . S
C398 C399 1.362 . S
C399 H389 0.930 . S
C399 C392 1.409 . S
C399 C398 1.362 . S
H400 C406 0.930 . S
H401 C409 0.930 . S
H402 C410 0.930 . S
H403 C411 0.930 . S
H404 C414 0.930 . S
H405 C415 0.930 . S
C406 H400 0.930 . S
C406 C407 1.355 . S
C406 C408 1.415 . S
C407 C406 1.355 . S
C407 C409 1.419 . S
C408 C406 1.415 . S
C408 C413 1.425 . S
C408 C415 1.409 . S
C409 H401 0.930 . S
C409 C407 1.419 . S
C409 C410 1.362 . S
C410 H402 0.930 . S
C410 C409 1.362 . S
C410 C413 1.409 . S
C411 H403 0.930 . S
C411 C412 1.355 . S
C411 C413 1.415 . S
C412 C411 1.355 . S
C412 C414 1.419 . S
C413 C408 1.425 . S
C413 C410 1.409 . S
C413 C411 1.415 . S
C414 H404 0.930 . S
C414 C412 1.419 . S
C414 C415 1.362 . S
C415 H405 0.930 . S
C415 C408 1.409 . S
C415 C414 1.362 . S
H416 C422 0.930 . S
H417 C425 0.930 . S
H418 C426 0.930 . S
H419 C427 0.930 . S
H420 C430 0.930 . S
H421 C431 0.930 . S
C422 H416 0.930 . S
C422 C423 1.355 . S
C422 C424 1.415 . S
C423 C422 1.355 . S
C423 C425 1.419 . S
C424 C422 1.415 . S
C424 C429 1.425 . S
C424 C431 1.409 . S
C425 H417 0.930 . S
C425 C423 1.419 . S
C425 C426 1.362 . S
C426 H418 0.930 . S
C426 C425 1.362 . S
C426 C429 1.409 . S
C427 H419 0.930 . S
C427 C428 1.355 . S
C427 C429 1.415 . S
C428 C427 1.355 . S
C428 C430 1.419 . S
C429 C424 1.425 . S
C429 C426 1.409 . S
C429 C427 1.415 . S
C430 H420 0.930 . S
C430 C428 1.419 . S
C430 C431 1.362 . S
C431 H421 0.930 . S
C431 C424 1.409 . S
C431 C430 1.362 . S
H432 C438 0.930 . S
H433 C441 0.930 . S
H434 C442 0.930 . S
H435 C443 0.930 . S
H436 C446 0.930 . S
H437 C447 0.930 . S
C438 H432 0.930 . S
C438 C439 1.355 . S
C438 C440 1.415 . S
C439 C438 1.355 . S
C439 C441 1.419 . S
C440 C438 1.415 . S
C440 C445 1.425 . S
C440 C447 1.409 . S
C441 H433 0.930 . S
C441 C439 1.419 . S
C441 C442 1.362 . S
C442 H434 0.930 . S
C442 C441 1.362 . S
C442 C445 1.409 . S
C443 H435 0.930 . S
C443 C444 1.355 . S
C443 C445 1.415 . S
C444 C443 1.355 . S
C444 C446 1.419 . S
C445 C440 1.425 . S
C445 C442 1.409 . S
C445 C443 1.415 . S
C446 H436 0.930 . S
C446 C444 1.419 . S
C446 C447 1.362 . S
C447 H437 0.930 . S
C447 C440 1.409 . S
C447 C446 1.362 . S
H448 C454 0.930 . S
H449 C457 0.930 . S
H450 C458 0.930 . S
H451 C459 0.930 . S
H452 C462 0.930 . S
H453 C463 0.930 . S
C454 H448 0.930 . S
C454 C455 1.355 . S
C454 C456 1.415 . S
C455 C454 1.355 . S
C455 C457 1.419 . S
C456 C454 1.415 . S
C456 C461 1.425 . S
C456 C463 1.409 . S
C457 H449 0.930 . S
C457 C455 1.419 . S
C457 C458 1.362 . S
C458 H450 0.930 . S
C458 C457 1.362 . S
C458 C461 1.409 . S
C459 H451 0.930 . S
C459 C460 1.355 . S
C459 C461 1.415 . S
C460 C459 1.355 . S
C460 C462 1.419 . S
C461 C456 1.425 . S
C461 C458 1.409 . S
C461 C459 1.415 . S
C462 H452 0.930 . S
C462 C460 1.419 . S
C462 C463 1.362 . S
C463 H453 0.930 . S
C463 C456 1.409 . S
C463 C462 1.362 . S
H464 C470 0.930 . S
H465 C473 0.930 . S
H466 C474 0.930 . S
H467 C475 0.930 . S
H468 C478 0.930 . S
H469 C479 0.930 . S
C470 H464 0.930 . S
C470 C471 1.355 . S
C470 C472 1.415 . S
C471 C470 1.355 . S
C471 C473 1.419 . S
C472 C470 1.415 . S
C472 C477 1.425 . S
C472 C479 1.409 . S
C473 H465 0.930 . S
C473 C471 1.419 . S
C473 C474 1.362 . S
C474 H466 0.930 . S
C474 C473 1.362 . S
C474 C477 1.409 . S
C475 H467 0.930 . S
C475 C476 1.355 . S
C475 C477 1.415 . S
C476 C475 1.355 . S
C476 C478 1.419 . S
C477 C472 1.425 . S
C477 C474 1.409 . S
C477 C475 1.415 . S
C478 H468 0.930 . S
C478 C476 1.419 . S
C478 C479 1.362 . S
C479 H469 0.930 . S
C479 C472 1.409 . S
C479 C478 1.362 . S
H480 C486 0.930 . S
H481 C489 0.930 . S
H482 C490 0.930 . S
H483 C491 0.930 . S
H484 C494 0.930 . S
H485 C495 0.930 . S
C486 H480 0.930 . S
C486 C487 1.355 . S
C486 C488 1.415 . S
C487 C486 1.355 . S
C487 C489 1.419 . S
C488 C486 1.415 . S
C488 C493 1.425 . S
C488 C495 1.409 . S
C489 H481 0.930 . S
C489 C487 1.419 . S
C489 C490 1.362 . S
C490 H482 0.930 . S
C490 C489 1.362 . S
C490 C493 1.409 . S
C491 H483 0.930 . S
C491 C492 1.355 . S
C491 C493 1.415 . S
C492 C491 1.355 . S
C492 C494 1.419 . S
C493 C488 1.425 . S
C493 C490 1.409 . S
C493 C491 1.415 . S
C494 H484 0.930 . S
C494 C492 1.419 . S
C494 C495 1.362 . S
C495 H485 0.930 . S
C495 C488 1.409 . S
C495 C494 1.362 . S
H496 C502 0.930 . S
H497 C505 0.930 . S
H498 C506 0.930 . S
H499 C507 0.930 . S
H500 C510 0.930 . S
H501 C511 0.930 . S
C502 H496 0.930 . S
C502 C503 1.355 . S
C502 C504 1.415 . S
C503 C502 1.355 . S
C503 C505 1.419 . S
C504 C502 1.415 . S
C504 C509 1.425 . S
C504 C511 1.409 . S
C505 H497 0.930 . S
C505 C503 1.419 . S
C505 C506 1.362 . S
C506 H498 0.930 . S
C506 C505 1.362 . S
C506 C509 1.409 . S
C507 H499 0.930 . S
C507 C508 1.355 . S
C507 C509 1.415 . S
C508 C507 1.355 . S
C508 C510 1.419 . S
C509 C504 1.425 . S
C509 C506 1.409 . S
C509 C507 1.415 . S
C510 H500 0.930 . S
C510 C508 1.419 . S
C510 C511 1.362 . S
C511 H501 0.930 . S
C511 C504 1.409 . S
C511 C510 1.362 . S
H512 C518 0.930 . S
H513 C521 0.930 . S
H514 C522 0.930 . S
H515 C523 0.930 . S
H516 C526 0.930 . S
H517 C527 0.930 . S
C518 H512 0.930 . S
C518 C519 1.355 . S
C518 C520 1.415 . S
C519 C518 1.355 . S
C519 C521 1.419 . S
C520 C518 1.415 . S
C520 C525 1.425 . S
C520 C527 1.409 . S
C521 H513 0.930 . S
C521 C519 1.419 . S
C521 C522 1.362 . S
C522 H514 0.930 . S
C522 C521 1.362 . S
C522 C525 1.409 . S
C523 H515 0.930 . S
C523 C524 1.355 . S
C523 C525 1.415 . S
C524 C523 1.355 . S
C524 C526 1.419 . S
C525 C520 1.425 . S
C525 C522 1.409 . S
C525 C523 1.415 . S
C526 H516 0.930 . S
C526 C524 1.419 . S
C526 C527 1.362 . S
C527 H517 0.930 . S
C527 C520 1.409 . S
C527 C526 1.362 . S
H528 C534 0.930 . S
H529 C537 0.930 . S
H530 C538 0.930 . S
H531 C539 0.930 . S
H532 C542 0.930 . S
H533 C543 0.930 . S
C534 H528 0.930 . S
C534 C535 1.355 . S
C534 C536 1.415 . S
C535 C534 1.355 . S
C535 C537 1.419 . S
C536 C534 1.415 . S
C536 C541 1.425 . S
C536 C543 1.409 . S
C537 H529 0.930 . S
C537 C535 1.419 . S
C537 C538 1.362 . S
C538 H530 0.930 . S
C538 C537 1.362 . S
C538 C541 1.409 . S
C539 H531 0.930 . S
C539 C540 1.355 . S
C539 C541 1.415 . S
C540 C539 1.355 . S
C540 C542 1.419 . S
C541 C536 1.425 . S
C541 C538 1.409 . S
C541 C539 1.415 . S
C542 H532 0.930 . S
C542 C540 1.419 . S
C542 C543 1.362 . S
C543 H533 0.930 . S
C543 C536 1.409 . S
C543 C542 1.362 . S
H544 C550 0.930 . S
H545 C553 0.930 . S
H546 C554 0.930 . S
H547 C555 0.930 . S
H548 C558 0.930 . S
H549 C559 0.930 . S
C550 H544 0.930 . S
C550 C551 1.355 . S
C550 C552 1.415 . S
C551 C550 1.355 . S
C551 C553 1.419 . S
C552 C550 1.415 . S
C552 C557 1.425 . S
C552 C559 1.409 . S
C553 H545 0.930 . S
C553 C551 1.419 . S
C553 C554 1.362 . S
C554 H546 0.930 . S
C554 C553 1.362 . S
C554 C557 1.409 . S
C555 H547 0.930 . S
C555 C556 1.355 . S
C555 C557 1.415 . S
C556 C555 1.355 . S
C556 C558 1.419 . S
C557 C552 1.425 . S
C557 C554 1.409 . S
C557 C555 1.415 . S
C558 H548 0.930 . S
C558 C556 1.419 . S
C558 C559 1.362 . S
C559 H549 0.930 . S
C559 C552 1.409 . S
C559 C558 1.362 . S
H560 C566 0.930 . S
H561 C569 0.930 . S
H562 C570 0.930 . S
H563 C571 0.930 . S
H564 C574 0.930 . S
H565 C575 0.930 . S
C566 H560 0.930 . S
C566 C567 1.355 . S
C566 C568 1.415 . S
C567 C566 1.355 . S
C567 C569 1.419 . S
C568 C566 1.415 . S
C568 C573 1.425 . S
C568 C575 1.409 . S
C569 H561 0.930 . S
C569 C567 1.419 . S
C569 C570 1.362 . S
C570 H562 0.930 . S
C570 C569 1.362 . S
C570 C573 1.409 . S
C571 H563 0.930 . S
C571 C572 1.355 . S
C571 C573 1.415 . S
C572 C571 1.355 . S
C572 C574 1.419 . S
C573 C568 1.425 . S
C573 C570 1.409 . S
C573 C571 1.415 . S
C574 H564 0.930 . S
C574 C572 1.419 . S
C574 C575 1.362 . S
C575 H565 0.930 . S
C575 C568 1.409 . S
C575 C574 1.362 . S
H576 C582 0.930 . S
H577 C585 0.930 . S
H578 C586 0.930 . S
H579 C587 0.930 . S
H580 C590 0.930 . S
H581 C591 0.930 . S
C582 H576 0.930 . S
C582 C583 1.355 . S
C582 C584 1.415 . S
C583 C582 1.355 . S
C583 C585 1.419 . S
C584 C582 1.415 . S
C584 C589 1.425 . S
C584 C591 1.409 . S
C585 H577 0.930 . S
C585 C583 1.419 . S
C585 C586 1.362 . S
C586 H578 0.930 . S
C586 C585 1.362 . S
C586 C589 1.409 . S
C587 H579 0.930 . S
C587 C588 1.355 . S
C587 C589 1.415 . S
C588 C587 1.355 . S
C588 C590 1.419 . S
C589 C584 1.425 . S
C589 C586 1.409 . S
C589 C587 1.415 . S
C590 H580 0.930 . S
C590 C588 1.419 . S
C590 C591 1.362 . S
C591 H581 0.930 . S
C591 C584 1.409 . S
C591 C590 1.362 . S
H592 C598 0.930 . S
H593 C601 0.930 . S
H594 C602 0.930 . S
H595 C603 0.930 . S
H596 C606 0.930 . S
H597 C607 0.930 . S
C598 H592 0.930 . S
C598 C599 1.355 . S
C598 C600 1.415 . S
C599 C598 1.355 . S
C599 C601 1.419 . S
C600 C598 1.415 . S
C600 C605 1.425 . S
C600 C607 1.409 . S
C601 H593 0.930 . S
C601 C599 1.419 . S
C601 C602 1.362 . S
C602 H594 0.930 . S
C602 C601 1.362 . S
C602 C605 1.409 . S
C603 H595 0.930 . S
C603 C604 1.355 . S
C603 C605 1.415 . S
C604 C603 1.355 . S
C604 C606 1.419 . S
C605 C600 1.425 . S
C605 C602 1.409 . S
C605 C603 1.415 . S
C606 H596 0.930 . S
C606 C604 1.419 . S
C606 C607 1.362 . S
C607 H597 0.930 . S
C607 C600 1.409 . S
C607 C606 1.362 . S
H608 C614 0.930 . S
H609 C617 0.930 . S
H610 C618 0.930 . S
H611 C619 0.930 . S
H612 C622 0.930 . S
H613 C623 0.930 . S
C614 H608 0.930 . S
C614 C615 1.355 . S
C614 C616 1.415 . S
C615 C614 1.355 . S
C615 C617 1.419 . S
C616 C614 1.415 . S
C616 C621 1.425 . S
C616 C623 1.409 . S
C617 H609 0.930 . S
C617 C615 1.419 . S
C617 C618 1.362 . S
C618 H610 0.930 . S
C618 C617 1.362 . S
C618 C621 1.409 . S
C619 H611 0.930 . S
C619 C620 1.355 . S
C619 C621 1.415 . S
C620 C619 1.355 . S
C620 C622 1.419 . S
C621 C616 1.425 . S
C621 C618 1.409 . S
C621 C619 1.415 . S
C622 H612 0.930 . S
C622 C620 1.419 . S
C622 C623 1.362 . S
C623 H613 0.930 . S
C623 C616 1.409 . S
C623 C622 1.362 . S
H624 C630 0.930 . S
H625 C633 0.930 . S
H626 C634 0.930 . S
H627 C635 0.930 . S
H628 C638 0.930 . S
H629 C639 0.930 . S
C630 H624 0.930 . S
C630 C631 1.355 . S
C630 C632 1.415 . S
C631 C630 1.355 . S
C631 C633 1.419 . S
C632 C630 1.415 . S
C632 C637 1.425 . S
C632 C639 1.409 . S
C633 H625 0.930 . S
C633 C631 1.419 . S
C633 C634 1.362 . S
C634 H626 0.930 . S
C634 C633 1.362 . S
C634 C637 1.409 . S
C635 H627 0.930 . S
C635 C636 1.355 . S
C635 C637 1.415 . S
C636 C635 1.355 . S
C636 C638 1.419 . S
C637 C632 1.425 . S
C637 C634 1.409 . S
C637 C635 1.415 . S
C638 H628 0.930 . S
C638 C636 1.419 . S
C638 C639 1.362 . S
C639 H629 0.930 . S
C639 C632 1.409 . S
C639 C638 1.362 . S
H640 C646 0.930 . S
H641 C649 0.930 . S
H642 C650 0.930 . S
H643 C651 0.930 . S
H644 C654 0.930 . S
H645 C655 0.930 . S
C646 H640 0.930 . S
C646 C647 1.355 . S
C646 C648 1.415 . S
C647 C646 1.355 . S
C647 C649 1.419 . S
C648 C646 1.415 . S
C648 C653 1.425 . S
C648 C655 1.409 . S
C649 H641 0.930 . S
C649 C647 1.419 . S
C649 C650 1.362 . S
C650 H642 0.930 . S
C650 C649 1.362 . S
C650 C653 1.409 . S
C651 H643 0.930 . S
C651 C652 1.355 . S
C651 C653 1.415 . S
C652 C651 1.355 . S
C652 C654 1.419 . S
C653 C648 1.425 . S
C653 C650 1.409 . S
C653 C651 1.415 . S
C654 H644 0.930 . S
C654 C652 1.419 . S
C654 C655 1.362 . S
C655 H645 0.930 . S
C655 C648 1.409 . S
C655 C654 1.362 . S
H656 C662 0.930 . S
H657 C665 0.930 . S
H658 C666 0.930 . S
H659 C667 0.930 . S
H660 C670 0.930 . S
H661 C671 0.930 . S
C662 H656 0.930 . S
C662 C663 1.355 . S
C662 C664 1.415 . S
C663 C662 1.355 . S
C663 C665 1.419 . S
C664 C662 1.415 . S
C664 C669 1.425 . S
C664 C671 1.409 . S
C665 H657 0.930 . S
C665 C663 1.419 . S
C665 C666 1.362 . S
C666 H658 0.930 . S
C666 C665 1.362 . S
C666 C669 1.409 . S
C667 H659 0.930 . S
C667 C668 1.355 . S
C667 C669 1.415 . S
C668 C667 1.355 . S
C668 C670 1.419 . S
C669 C664 1.425 . S
C669 C666 1.409 . S
C669 C667 1.415 . S
C670 H660 0.930 . S
C670 C668 1.419 . S
C670 C671 1.362 . S
C671 H661 0.930 . S
C671 C664 1.409 . S
C671 C670 1.362 . S
H672 C678 0.930 . S
H673 C681 0.930 . S
H674 C682 0.930 . S
H675 C683 0.930 . S
H676 C686 0.930 . S
H677 C687 0.930 . S
C678 H672 0.930 . S
C678 C679 1.355 . S
C678 C680 1.415 . S
C679 C678 1.355 . S
C679 C681 1.419 . S
C680 C678 1.415 . S
C680 C685 1.425 . S
C680 C687 1.409 . S
C681 H673 0.930 . S
C681 C679 1.419 . S
C681 C682 1.362 . S
C682 H674 0.930 . S
C682 C681 1.362 . S
C682 C685 1.409 . S
C683 H675 0.930 . S
C683 C684 1.355 . S
C683 C685 1.415 . S
C684 C683 1.355 . S
C684 C686 1.419 . S
C685 C680 1.425 . S
C685 C682 1.409 . S
C685 C683 1.415 . S
C686 H676 0.930 . S
C686 C684 1.419 . S
C686 C687 1.362 . S
C687 H677 0.930 . S
C687 C680 1.409 . S
C687 C686 1.362 . S
H688 C694 0.930 . S
H689 C697 0.930 . S
H690 C698 0.930 . S
H691 C699 0.930 . S
H692 C702 0.930 . S
H693 C703 0.930 . S
C694 H688 0.930 . S
C694 C695 1.355 . S
C694 C696 1.415 . S
C695 C694 1.355 . S
C695 C697 1.419 . S
C696 C694 1.415 . S
C696 C701 1.425 . S
C696 C703 1.409 . S
C697 H689 0.930 . S
C697 C695 1.419 . S
C697 C698 1.362 . S
C698 H690 0.930 . S
C698 C697 1.362 . S
C698 C701 1.409 . S
C699 H691 0.930 . S
C699 C700 1.355 . S
C699 C701 1.415 . S
C700 C699 1.355 . S
C700 C702 1.419 . S
C701 C696 1.425 . S
C701 C698 1.409 . S
C701 C699 1.415 . S
C702 H692 0.930 . S
C702 C700 1.419 . S
C702 C703 1.362 . S
C703 H693 0.930 . S
C703 C696 1.409 . S
C703 C702 1.362 . S
H704 C710 0.930 . S
H705 C713 0.930 . S
H706 C714 0.930 . S
H707 C715 0.930 . S
H708 C718 0.930 . S
H709 C719 0.930 . S
C710 H704 0.930 . S
C710 C711 1.355 . S
C710 C712 1.415 . S
C711 C710 1.355 . S
C711 C713 1.419 . S
C712 C710 1.415 . S
C712 C717 1.425 . S
C712 C719 1.409 . S
C713 H705 0.930 . S
C713 C711 1.419 . S
C713 C714 1.362 . S
C714 H706 0.930 . S
C714 C713 1.362 . S
C714 C717 1.409 . S
C715 H707 0.930 . S
C715 C716 1.355 . S
C715 C717 1.415 . S
C716 C715 1.355 . S
C716 C718 1.419 . S
C717 C712 1.425 . S
C717 C714 1.409 . S
C717 C715 1.415 . S
C718 H708 0.930 . S
C718 C716 1.419 . S
C718 C719 1.362 . S
C719 H709 0.930 . S
C719 C712 1.409 . S
C719 C718 1.362 . S
H720 C726 0.930 . S
H721 C729 0.930 . S
H722 C730 0.930 . S
H723 C731 0.930 . S
H724 C734 0.930 . S
H725 C735 0.930 . S
C726 H720 0.930 . S
C726 C727 1.355 . S
C726 C728 1.415 . S
C727 C726 1.355 . S
C727 C729 1.419 . S
C728 C726 1.415 . S
C728 C733 1.425 . S
C728 C735 1.409 . S
C729 H721 0.930 . S
C729 C727 1.419 . S
C729 C730 1.362 . S
C730 H722 0.930 . S
C730 C729 1.362 . S
C730 C733 1.409 . S
C731 H723 0.930 . S
C731 C732 1.355 . S
C731 C733 1.415 . S
C732 C731 1.355 . S
C732 C734 1.419 . S
C733 C728 1.425 . S
C733 C730 1.409 . S
C733 C731 1.415 . S
C734 H724 0.930 . S
C734 C732 1.419 . S
C734 C735 1.362 . S
C735 H725 0.930 . S
C735 C728 1.409 . S
C735 C734 1.362 . S
H736 C742 0.930 . S
H737 C745 0.930 . S
H738 C746 0.930 . S
H739 C747 0.930 . S
H740 C750 0.930 . S
H741 C751 0.930 . S
C742 H736 0.930 . S
C742 C743 1.355 . S
C742 C744 1.415 . S
C743 C742 1.355 . S
C743 C745 1.419 . S
C744 C742 1.415 . S
C744 C749 1.425 . S
C744 C751 1.409 . S
C745 H737 0.930 . S
C745 C743 1.419 . S
C745 C746 1.362 . S
C746 H738 0.930 . S
C746 C745 1.362 . S
C746 C749 1.409 . S
C747 H739 0.930 . S
C747 C748 1.355 . S
C747 C749 1.415 . S
C748 C747 1.355 . S
C748 C750 1.419 . S
C749 C744 1.425 . S
C749 C746 1.409 . S
C749 C747 1.415 . S
C750 H740 0.930 . S
C750 C748 1.419 . S
C750 C751 1.362 . S
C751 H741 0.930 . S
C751 C744 1.409 . S
C751 C750 1.362 . S
H752 C758 0.930 . S
H753 C761 0.930 . S
H754 C762 0.930 . S
H755 C763 0.930 . S
H756 C766 0.930 . S
H757 C767 0.930 . S
C758 H752 0.930 . S
C758 C759 1.355 . S
C758 C760 1.415 . S
C759 C758 1.355 . S
C759 C761 1.419 . S
C760 C758 1.415 . S
C760 C765 1.425 . S
C760 C767 1.409 . S
C761 H753 0.930 . S
C761 C759 1.419 . S
C761 C762 1.362 . S
C762 H754 0.930 . S
C762 C761 1.362 . S
C762 C765 1.409 . S
C763 H755 0.930 . S
C763 C764 1.355 . S
C763 C765 1.415 . S
C764 C763 1.355 . S
C764 C766 1.419 . S
C765 C760 1.425 . S
C765 C762 1.409 . S
C765 C763 1.415 . S
C766 H756 0.930 . S
C766 C764 1.419 . S
C766 C767 1.362 . S
C767 H757 0.930 . S
C767 C760 1.409 . S
C767 C766 1.362 . S
H768 C774 0.930 . S
H769 C777 0.930 . S
H770 C778 0.930 . S
H771 C779 0.930 . S
H772 C782 0.930 . S
H773 C783 0.930 . S
C774 H768 0.930 . S
C774 C775 1.355 . S
C774 C776 1.415 . S
C775 C774 1.355 . S
C775 C777 1.419 . S
C776 C774 1.415 . S
C776 C781 1.425 . S
C776 C783 1.409 . S
C777 H769 0.930 . S
C777 C775 1.419 . S
C777 C778 1.362 . S
C778 H770 0.930 . S
C778 C777 1.362 . S
C778 C781 1.409 . S
C779 H771 0.930 . S
C779 C780 1.355 . S
C779 C781 1.415 . S
C780 C779 1.355 . S
C780 C782 1.419 . S
C781 C776 1.425 . S
C781 C778 1.409 . S
C781 C779 1.415 . S
C782 H772 0.930 . S
C782 C780 1.419 . S
C782 C783 1.362 . S
C783 H773 0.930 . S
C783 C776 1.409 . S
C783 C782 1.362 . S
H784 C790 0.930 . S
H785 C793 0.930 . S
H786 C794 0.930 . S
H787 C795 0.930 . S
H788 C798 0.930 . S
H789 C799 0.930 . S
C790 H784 0.930 . S
C790 C791 1.355 . S
C790 C792 1.415 . S
C791 C790 1.355 . S
C791 C793 1.419 . S
C792 C790 1.415 . S
C792 C797 1.425 . S
C792 C799 1.409 . S
C793 H785 0.930 . S
C793 C791 1.419 . S
C793 C794 1.362 . S
C794 H786 0.930 . S
C794 C793 1.362 . S
C794 C797 1.409 . S
C795 H787 0.930 . S
C795 C796 1.355 . S
C795 C797 1.415 . S
C796 C795 1.355 . S
C796 C798 1.419 . S
C797 C792 1.425 . S
C797 C794 1.409 . S
C797 C795 1.415 . S
C798 H788 0.930 . S
C798 C796 1.419 . S
C798 C799 1.362 . S
C799 H789 0.930 . S
C799 C792 1.409 . S
C799 C798 1.362 . S
H800 C806 0.930 . S
H801 C809 0.930 . S
H802 C810 0.930 . S
H803 C811 0.930 . S
H804 C814 0.930 . S
H805 C815 0.930 . S
C806 H800 0.930 . S
C806 C807 1.355 . S
C806 C808 1.415 . S
C807 C806 1.355 . S
C807 C809 1.419 . S
C808 C806 1.415 . S
C808 C813 1.425 . S
C808 C815 1.409 . S
C809 H801 0.930 . S
C809 C807 1.419 . S
C809 C810 1.362 . S
C810 H802 0.930 . S
C810 C809 1.362 . S
C810 C813 1.409 . S
C811 H803 0.930 . S
C811 C812 1.355 . S
C811 C813 1.415 . S
C812 C811 1.355 . S
C812 C814 1.419 . S
C813 C808 1.425 . S
C813 C810 1.409 . S
C813 C811 1.415 . S
C814 H804 0.930 . S
C814 C812 1.419 . S
C814 C815 1.362 . S
C815 H805 0.930 . S
C815 C808 1.409 . S
C815 C814 1.362 . S
H816 C822 0.930 . S
H817 C825 0.930 . S
H818 C826 0.930 . S
H819 C827 0.930 . S
H820 C830 0.930 . S
H821 C831 0.930 . S
C822 H816 0.930 . S
C822 C823 1.355 . S
C822 C824 1.415 . S
C823 C822 1.355 . S
C823 C825 1.419 . S
C824 C822 1.415 . S
C824 C829 1.425 . S
C824 C831 1.409 . S
C825 H817 0.930 . S
C825 C823 1.419 . S
C825 C826 1.362 . S
C826 H818 0.930 . S
C826 C825 1.362 . S
C826 C829 1.409 . S
C827 H819 0.930 . S
C827 C828 1.355 . S
C827 C829 1.415 . S
C828 C827 1.355 . S
C828 C830 1.419 . S
C829 C824 1.425 . S
C829 C826 1.409 . S
C829 C827 1.415 . S
C830 H820 0.930 . S
C830 C828 1.419 . S
C830 C831 1.362 . S
C831 H821 0.930 . S
C831 C824 1.409 . S
C831 C830 1.362 . S
H832 C838 0.930 . S
H833 C841 0.930 . S
H834 C842 0.930 . S
H835 C843 0.930 . S
H836 C846 0.930 . S
H837 C847 0.930 . S
C838 H832 0.930 . S
C838 C839 1.355 . S
C838 C840 1.415 . S
C839 C838 1.355 . S
C839 C841 1.419 . S
C840 C838 1.415 . S
C840 C845 1.425 . S
C840 C847 1.409 . S
C841 H833 0.930 . S
C841 C839 1.419 . S
C841 C842 1.362 . S
C842 H834 0.930 . S
C842 C841 1.362 . S
C842 C845 1.409 . S
C843 H835 0.930 . S
C843 C844 1.355 . S
C843 C845 1.415 . S
C844 C843 1.355 . S
C844 C846 1.419 . S
C845 C840 1.425 . S
C845 C842 1.409 . S
C845 C843 1.415 . S
C846 H836 0.930 . S
C846 C844 1.419 . S
C846 C847 1.362 . S
C847 H837 0.930 . S
C847 C840 1.409 . S
C847 C846 1.362 . S
H848 C854 0.930 . S
H849 C857 0.930 . S
H850 C858 0.930 . S
H851 C859 0.930 . S
H852 C862 0.930 . S
H853 C863 0.930 . S
C854 H848 0.930 . S
C854 C855 1.355 . S
C854 C856 1.415 . S
C855 C854 1.355 . S
C855 C857 1.419 . S
C856 C854 1.415 . S
C856 C861 1.425 . S
C856 C863 1.409 . S
C857 H849 0.930 . S
C857 C855 1.419 . S
C857 C858 1.362 . S
C858 H850 0.930 . S
C858 C857 1.362 . S
C858 C861 1.409 . S
C859 H851 0.930 . S
C859 C860 1.355 . S
C859 C861 1.415 . S
C860 C859 1.355 . S
C860 C862 1.419 . S
C861 C856 1.425 . S
C861 C858 1.409 . S
C861 C859 1.415 . S
C862 H852 0.930 . S
C862 C860 1.419 . S
C862 C863 1.362 . S
C863 H853 0.930 . S
C863 C856 1.409 . S
C863 C862 1.362 . S
H864 C870 0.930 . S
H865 C873 0.930 . S
H866 C874 0.930 . S
H867 C875 0.930 . S
H868 C878 0.930 . S
H869 C879 0.930 . S
C870 H864 0.930 . S
C870 C871 1.355 . S
C870 C872 1.415 . S
C871 C870 1.355 . S
C871 C873 1.419 . S
C872 C870 1.415 . S
C872 C877 1.425 . S
C872 C879 1.409 . S
C873 H865 0.930 . S
C873 C871 1.419 . S
C873 C874 1.362 . S
C874 H866 0.930 . S
C874 C873 1.362 . S
C874 C877 1.409 . S
C875 H867 0.930 . S
C875 C876 1.355 . S
C875 C877 1.415 . S
C876 C875 1.355 . S
C876 C878 1.419 . S
C877 C872 1.425 . S
C877 C874 1.409 . S
C877 C875 1.415 . S
C878 H868 0.930 . S
C878 C876 1.419 . S
C878 C879 1.362 . S
C879 H869 0.930 . S
C879 C872 1.409 . S
C879 C878 1.362 . S
H880 C886 0.930 . S
H881 C889 0.930 . S
H882 C890 0.930 . S
H883 C891 0.930 . S
H884 C894 0.930 . S
H885 C895 0.930 . S
C886 H880 0.930 . S
C886 C887 1.355 . S
C886 C888 1.415 . S
C887 C886 1.355 . S
C887 C889 1.419 . S
C888 C886 1.415 . S
C888 C893 1.425 . S
C888 C895 1.409 . S
C889 H881 0.930 . S
C889 C887 1.419 . S
C889 C890 1.362 . S
C890 H882 0.930 . S
C890 C889 1.362 . S
C890 C893 1.409 . S
C891 H883 0.930 . S
C891 C892 1.355 . S
C891 C893 1.415 . S
C892 C891 1.355 . S
C892 C894 1.419 . S
C893 C888 1.425 . S
C893 C890 1.409 . S
C893 C891 1.415 . S
C894 H884 0.930 . S
C894 C892 1.419 . S
C894 C895 1.362 . S
C895 H885 0.930 . S
C895 C888 1.409 . S
C895 C894 1.362 . S
H896 C902 0.930 . S
H897 C905 0.930 . S
H898 C906 0.930 . S
H899 C907 0.930 . S
H900 C910 0.930 . S
H901 C911 0.930 . S
C902 H896 0.930 . S
C902 C903 1.355 . S
C902 C904 1.415 . S
C903 C902 1.355 . S
C903 C905 1.419 . S
C904 C902 1.415 . S
C904 C909 1.425 . S
C904 C911 1.409 . S
C905 H897 0.930 . S
C905 C903 1.419 . S
C905 C906 1.362 . S
C906 H898 0.930 . S
C906 C905 1.362 . S
C906 C909 1.409 . S
C907 H899 0.930 . S
C907 C908 1.355 . S
C907 C909 1.415 . S
C908 C907 1.355 . S
C908 C910 1.419 . S
C909 C904 1.425 . S
C909 C906 1.409 . S
C909 C907 1.415 . S
C910 H900 0.930 . S
C910 C908 1.419 . S
C910 C911 1.362 . S
C911 H901 0.930 . S
C911 C904 1.409 . S
C911 C910 1.362 . S
H912 C918 0.930 . S
H913 C921 0.930 . S
H914 C922 0.930 . S
H915 C923 0.930 . S
H916 C926 0.930 . S
H917 C927 0.930 . S
C918 H912 0.930 . S
C918 C919 1.355 . S
C918 C920 1.415 . S
C919 C918 1.355 . S
C919 C921 1.419 . S
C920 C918 1.415 . S
C920 C925 1.425 . S
C920 C927 1.409 . S
C921 H913 0.930 . S
C921 C919 1.419 . S
C921 C922 1.362 . S
C922 H914 0.930 . S
C922 C921 1.362 . S
C922 C925 1.409 . S
C923 H915 0.930 . S
C923 C924 1.355 . S
C923 C925 1.415 . S
C924 C923 1.355 . S
C924 C926 1.419 . S
C925 C920 1.425 . S
C925 C922 1.409 . S
C925 C923 1.415 . S
C926 H916 0.930 . S
C926 C924 1.419 . S
C926 C927 1.362 . S
C927 H917 0.930 . S
C927 C920 1.409 . S
C927 C926 1.362 . S
H928 C934 0.930 . S
H929 C937 0.930 . S
H930 C938 0.930 . S
H931 C939 0.930 . S
H932 C942 0.930 . S
H933 C943 0.930 . S
C934 H928 0.930 . S
C934 C935 1.355 . S
C934 C936 1.415 . S
C935 C934 1.355 . S
C935 C937 1.419 . S
C936 C934 1.415 . S
C936 C941 1.425 . S
C936 C943 1.409 . S
C937 H929 0.930 . S
C937 C935 1.419 . S
C937 C938 1.362 . S
C938 H930 0.930 . S
C938 C937 1.362 . S
C938 C941 1.409 . S
C939 H931 0.930 . S
C939 C940 1.355 . S
C939 C941 1.415 . S
C940 C939 1.355 . S
C940 C942 1.419 . S
C941 C936 1.425 . S
C941 C938 1.409 . S
C941 C939 1.415 . S
C942 H932 0.930 . S
C942 C940 1.419 . S
C942 C943 1.362 . S
C943 H933 0.930 . S
C943 C936 1.409 . S
C943 C942 1.362 . S
H944 C950 0.930 . S
H945 C953 0.930 . S
H946 C954 0.930 . S
H947 C955 0.930 . S
H948 C958 0.930 . S
H949 C959 0.930 . S
C950 H944 0.930 . S
C950 C951 1.355 . S
C950 C952 1.415 . S
C951 C950 1.355 . S
C951 C953 1.419 . S
C952 C950 1.415 . S
C952 C957 1.425 . S
C952 C959 1.409 . S
C953 H945 0.930 . S
C953 C951 1.419 . S
C953 C954 1.362 . S
C954 H946 0.930 . S
C954 C953 1.362 . S
C954 C957 1.409 . S
C955 H947 0.930 . S
C955 C956 1.355 . S
C955 C957 1.415 . S
C956 C955 1.355 . S
C956 C958 1.419 . S
C957 C952 1.425 . S
C957 C954 1.409 . S
C957 C955 1.415 . S
C958 H948 0.930 . S
C958 C956 1.419 . S
C958 C959 1.362 . S
C959 H949 0.930 . S
C959 C952 1.409 . S
C959 C958 1.362 . S
H960 C966 0.930 . S
H961 C969 0.930 . S
H962 C970 0.930 . S
H963 C971 0.930 . S
H964 C974 0.930 . S
H965 C975 0.930 . S
C966 H960 0.930 . S
C966 C967 1.355 . S
C966 C968 1.415 . S
C967 C966 1.355 . S
C967 C969 1.419 . S
C968 C966 1.415 . S
C968 C973 1.425 . S
C968 C975 1.409 . S
C969 H961 0.930 . S
C969 C967 1.419 . S
C969 C970 1.362 . S
C970 H962 0.930 . S
C970 C969 1.362 . S
C970 C973 1.409 . S
C971 H963 0.930 . S
C971 C972 1.355 . S
C971 C973 1.415 . S
C972 C971 1.355 . S
C972 C974 1.419 . S
C973 C968 1.425 . S
C973 C970 1.409 . S
C973 C971 1.415 . S
C974 H964 0.930 . S
C974 C972 1.419 . S
C974 C975 1.362 . S
C975 H965 0.930 . S
C975 C968 1.409 . S
C975 C974 1.362 . S
H976 C982 0.930 . S
H977 C985 0.930 . S
H978 C986 0.930 . S
H979 C987 0.930 . S
H980 C990 0.930 . S
H981 C991 0.930 . S
C982 H976 0.930 . S
C982 C983 1.355 . S
C982 C984 1.415 . S
C983 C982 1.355 . S
C983 C985 1.419 . S
C984 C982 1.415 . S
C984 C989 1.425 . S
C984 C991 1.409 . S
C985 H977 0.930 . S
C985 C983 1.419 . S
C985 C986 1.362 . S
C986 H978 0.930 . S
C986 C985 1.362 . S
C986 C989 1.409 . S
C987 H979 0.930 . S
C987 C988 1.355 . S
C987 C989 1.415 . S
C988 C987 1.355 . S
C988 C990 1.419 . S
C989 C984 1.425 . S
C989 C986 1.409 . S
C989 C987 1.415 . S
C990 H980 0.930 . S
C990 C988 1.419 . S
C990 C991 1.362 . S
C991 H981 0.930 . S
C991 C984 1.409 . S
C991 C990 1.362 . S
H992 C998 0.930 . S
H993 C1001 0.930 . S
H994 C1002 0.930 . S
H995 C1003 0.930 . S
H996 C1006 0.930 . S
H997 C1007 0.930 . S
C998 H992 0.930 . S
C998 C999 1.355 . S
C998 C1000 1.415 . S
C999 C998 1.355 . S
C999 C1001 1.419 . S
C1000 C998 1.415 . S
C1000 C1005 1.425 . S
C1000 C1007 1.409 . S
C1001 H993 0.930 . S
C1001 C999 1.419 . S
C1001 C1002 1.362 . S
C1002 H994 0.930 . S
C1002 C1001 1.362 . S
C1002 C1005 1.409 . S
C1003 H995 0.930 . S
C1003 C1004 1.355 . S
C1003 C1005 1.415 . S
C1004 C1003 1.355 . S
C1004 C1006 1.419 . S
C1005 C1000 1.425 . S
C1005 C1002 1.409 . S
C1005 C1003 1.415 . S
C1006 H996 0.930 . S
C1006 C1004 1.419 . S
C1006 C1007 1.362 . S
C1007 H997 0.930 . S
C1007 C1000 1.409 . S
C1007 C1006 1.362 . S
H1008 C1014 0.930 . S
H1009 C1017 0.930 . S
H1010 C1018 0.930 . S
H1011 C1019 0.930 . S
H1012 C1022 0.930 . S
H1013 C1023 0.930 . S
C1014 H1008 0.930 . S
C1014 C1015 1.355 . S
C1014 C1016 1.415 . S
C1015 C1014 1.355 . S
C1015 C1017 1.419 . S
C1016 C1014 1.415 . S
C1016 C1021 1.425 . S
C1016 C1023 1.409 . S
C1017 H1009 0.930 . S
C1017 C1015 1.419 . S
C1017 C1018 1.362 . S
C1018 H1010 0.930 . S
C1018 C1017 1.362 . S
C1018 C1021 1.409 . S
C1019 H1011 0.930 . S
C1019 C1020 1.355 . S
C1019 C1021 1.415 . S
C1020 C1019 1.355 . S
C1020 C1022 1.419 . S
C1021 C1016 1.425 . S
C1021 C1018 1.409 . S
C1021 C1019 1.415 . S
C1022 H1012 0.930 . S
C1022 C1020 1.419 . S
C1022 C1023 1.362 . S
C1023 H1013 0.930 . S
C1023 C1016 1.409 . S
C1023 C1022 1.362 . S
H1024 C1030 0.930 . S
H1025 C1033 0.930 . S
H1026 C1034 0.930 . S
H1027 C1035 0.930 . S
H1028 C1038 0.930 . S
H1029 C1039 0.930 . S
C1030 H1024 0.930 . S
C1030 C1031 1.355 . S
C1030 C1032 1.415 . S
C1031 C1030 1.355 . S
C1031 C1033 1.419 . S
C1032 C1030 1.415 . S
C1032 C1037 1.425 . S
C1032 C1039 1.409 . S
C1033 H1025 0.930 . S
C1033 C1031 1.419 . S
C1033 C1034 1.362 . S
C1034 H1026 0.930 . S
C1034 C1033 1.362 . S
C1034 C1037 1.409 . S
C1035 H1027 0.930 . S
C1035 C1036 1.355 . S
C1035 C1037 1.415 . S
C1036 C1035 1.355 . S
C1036 C1038 1.419 . S
C1037 C1032 1.425 . S
C1037 C1034 1.409 . S
C1037 C1035 1.415 . S
C1038 H1028 0.930 . S
C1038 C1036 1.419 . S
C1038 C1039 1.362 . S
C1039 H1029 0.930 . S
C1039 C1032 1.409 . S
C1039 C1038 1.362 . S
H1040 C1046 0.930 . S
H1041 C1049 0.930 . S
H1042 C1050 0.930 . S
H1043 C1051 0.930 . S
H1044 C1054 0.930 . S
H1045 C1055 0.930 . S
C1046 H1040 0.930 . S
C1046 C1047 1.355 . S
C1046 C1048 1.415 . S
C1047 C1046 1.355 . S
C1047 C1049 1.419 . S
C1048 C1046 1.415 . S
C1048 C1053 1.425 . S
C1048 C1055 1.409 . S
C1049 H1041 0.930 . S
C1049 C1047 1.419 . S
C1049 C1050 1.362 . S
C1050 H1042 0.930 . S
C1050 C1049 1.362 . S
C1050 C1053 1.409 . S
C1051 H1043 0.930 . S
C1051 C1052 1.355 . S
C1051 C1053 1.415 . S
C1052 C1051 1.355 . S
C1052 C1054 1.419 . S
C1053 C1048 1.425 . S
C1053 C1050 1.409 . S
C1053 C1051 1.415 . S
C1054 H1044 0.930 . S
C1054 C1052 1.419 . S
C1054 C1055 1.362 . S
C1055 H1045 0.930 . S
C1055 C1048 1.409 . S
C1055 C1054 1.362 . S
H1056 C1062 0.930 . S
H1057 C1065 0.930 . S
H1058 C1066 0.930 . S
H1059 C1067 0.930 . S
H1060 C1070 0.930 . S
H1061 C1071 0.930 . S
C1062 H1056 0.930 . S
C1062 C1063 1.355 . S
C1062 C1064 1.415 . S
C1063 C1062 1.355 . S
C1063 C1065 1.419 . S
C1064 C1062 1.415 . S
C1064 C1069 1.425 . S
C1064 C1071 1.409 . S
C1065 H1057 0.930 . S
C1065 C1063 1.419 . S
C1065 C1066 1.362 . S
C1066 H1058 0.930 . S
C1066 C1065 1.362 . S
C1066 C1069 1.409 . S
C1067 H1059 0.930 . S
C1067 C1068 1.355 . S
C1067 C1069 1.415 . S
C1068 C1067 1.355 . S
C1068 C1070 1.419 . S
C1069 C1064 1.425 . S
C1069 C1066 1.409 . S
C1069 C1067 1.415 . S
C1070 H1060 0.930 . S
C1070 C1068 1.419 . S
C1070 C1071 1.362 . S
C1071 H1061 0.930 . S
C1071 C1064 1.409 . S
C1071 C1070 1.362 . S
H1072 C1078 0.930 . S
H1073 C1081 0.930 . S
H1074 C1082 0.930 . S
H1075 C1083 0.930 . S
H1076 C1086 0.930 . S
H1077 C1087 0.930 . S
C1078 H1072 0.930 . S
C1078 C1079 1.355 . S
C1078 C1080 1.415 . S
C1079 C1078 1.355 . S
C1079 C1081 1.419 . S
C1080 C1078 1.415 . S
C1080 C1085 1.425 . S
C1080 C1087 1.409 . S
C1081 H1073 0.930 . S
C1081 C1079 1.419 . S
C1081 C1082 1.362 . S
C1082 H1074 0.930 . S
C1082 C1081 1.362 . S
C1082 C1085 1.409 . S
C1083 H1075 0.930 . S
C1083 C1084 1.355 . S
C1083 C1085 1.415 . S
C1084 C1083 1.355 . S
C1084 C1086 1.419 . S
C1085 C1080 1.425 . S
C1085 C1082 1.409 . S
C1085 C1083 1.415 . S
C1086 H1076 0.930 . S
C1086 C1084 1.419 . S
C1086 C1087 1.362 . S
C1087 H1077 0.930 . S
C1087 C1080 1.409 . S
C1087 C1086 1.362 . S
H1088 C1094 0.930 . S
H1089 C1097 0.930 . S
H1090 C1098 0.930 . S
H1091 C1099 0.930 . S
H1092 C1102 0.930 . S
H1093 C1103 0.930 . S
C1094 H1088 0.930 . S
C1094 C1095 1.355 . S
C1094 C1096 1.415 . S
C1095 C1094 1.355 . S
C1095 C1097 1.419 . S
C1096 C1094 1.415 . S
C1096 C1101 1.425 . S
C1096 C1103 1.409 . S
C1097 H1089 0.930 . S
C1097 C1095 1.419 . S
C1097 C1098 1.362 . S
C1098 H1090 0.930 . S
C1098 C1097 1.362 . S
C1098 C1101 1.409 . S
C1099 H1091 0.930 . S
C1099 C1100 1.355 . S
C1099 C1101 1.415 . S
C1100 C1099 1.355 . S
C1100 C1102 1.419 . S
C1101 C1096 1.425 . S
C1101 C1098 1.409 . S
C1101 C1099 1.415 . S
C1102 H1092 0.930 . S
C1102 C1100 1.419 . S
C1102 C1103 1.362 . S
C1103 H1093 0.930 . S
C1103 C1096 1.409 . S
C1103 C1102 1.362 . S
C343 C309 1.609 . S
C348 C0 1.607 . S
C359 C15 1.578 . S
C364 C335 1.580 . S
C375 C281 1.612 . S
C380 C40 1.615 . S
C391 C295 1.586 . S
C396 C54 1.586 . S
C407 C294 1.607 . S
C412 C69 1.608 . S
C423 C82 1.595 . S
C428 C308 1.593 . S
C439 C334 1.611 . S
C444 C96 1.607 . S
C455 C110 1.611 . S
C460 C280 1.613 . S
C471 C124 1.606 . S
C476 C279 1.601 . S
C487 C224 1.583 . S
C492 C126 1.581 . S
C503 C140 1.607 . S
C508 C250 1.603 . S
C519 C252 1.579 . S
C524 C167 1.575 . S
C535 C166 1.582 . S
C540 C182 1.584 . S
C551 C125 1.606 . S
C556 C197 1.610 . S
C567 C211 1.574 . S
C572 C127 1.576 . S
C583 C141 1.596 . S
C588 C180 1.599 . S
C599 C14 1.575 . S
C604 C253 1.570 . S
C615 C196 1.575 . S
C620 C111 1.570 . S
C631 C68 1.590 . S
C636 C210 1.589 . S
C647 C181 1.579 . S
C652 C83 1.583 . S
C663 C97 1.613 . S
C668 C183 1.615 . S
C679 C55 1.585 . S
C684 C225 1.589 . S
C695 C1 1.573 . S
C700 C251 1.576 . S
C711 C41 1.584 . S
C716 C278 1.581 . S
C727 C85 1.599 . S
C732 C292 1.601 . S
C743 C306 1.591 . S
C748 C99 1.591 . S
C759 C320 1.597 . S
C764 C56 1.593 . S
C775 C322 1.588 . S
C780 C71 1.591 . S
C791 C29 1.582 . S
C796 C323 1.578 . S
C807 C43 1.585 . S
C812 C293 1.588 . S
C823 C13 1.592 . S
C828 C307 1.594 . S
C839 C321 1.592 . S
C844 C26 1.589 . S
C855 C153 1.588 . S
C860 C195 1.590 . S
C871 C154 1.604 . S
C876 C208 1.606 . S
C887 C113 1.598 . S
C892 C222 1.601 . S
C903 C139 1.611 . S
C908 C169 1.614 . S
C919 C138 1.610 . S
C924 C266 1.606 . S
C935 C237 1.601 . S
C940 C152 1.596 . S
C951 C155 1.601 . S
C956 C239 1.599 . S
C967 C112 1.591 . S
C972 C265 1.591 . S
C983 C168 1.595 . S
C988 C98 1.596 . S
C999 C236 1.608 . S
C1004 C27 1.613 . S
C1015 C28 1.608 . S
C1020 C238 1.612 . S
C1031 C264 1.573 . S
C1036 C42 1.571 . S
C1047 C267 1.602 . S
C1052 C12 1.599 . S
C1063 C70 1.574 . S
C1068 C209 1.573 . S
C1079 C223 1.583 . S
C1084 C84 1.577 . S
C1095 C194 1.584 . S
C1100 C57 1.590 . S
