# Generated by pormake.
# Topology etf, (3)-cn, num edge types: 1
# Building blocks:
#     Node 0, Type 0, BuildingBlock: OLANEW_clean_sbu_2, # of connection points: 3
#     Node 1, Type 0, BuildingBlock: OLANEW_clean_sbu_2, # of connection points: 3
#     Node 2, Type 0, BuildingBlock: OLANEW_clean_sbu_2, # of connection points: 3
#     Node 3, Type 0, BuildingBlock: OLANEW_clean_sbu_2, # of connection points: 3
#     Node 4, Type 0, BuildingBlock: OLANEW_clean_sbu_2, # of connection points: 3
#     Node 5, Type 0, BuildingBlock: OLANEW_clean_sbu_2, # of connection points: 3
#     Node 6, Type 0, BuildingBlock: OLANEW_clean_sbu_2, # of connection points: 3
#     Node 7, Type 0, BuildingBlock: OLANEW_clean_sbu_2, # of connection points: 3
#     Node 8, Type 0, BuildingBlock: OLANEW_clean_sbu_2, # of connection points: 3
#     Node 9, Type 0, BuildingBlock: OLANEW_clean_sbu_2, # of connection points: 3
#     Node 10, Type 0, BuildingBlock: OLANEW_clean_sbu_2, # of connection points: 3
#     Node 11, Type 0, BuildingBlock: OLANEW_clean_sbu_2, # of connection points: 3
#     Node 12, Type 0, BuildingBlock: OLANEW_clean_sbu_2, # of connection points: 3
#     Node 13, Type 0, BuildingBlock: OLANEW_clean_sbu_2, # of connection points: 3
#     Node 14, Type 0, BuildingBlock: OLANEW_clean_sbu_2, # of connection points: 3
#     Node 15, Type 0, BuildingBlock: OLANEW_clean_sbu_2, # of connection points: 3
#     Node 16, Type 0, BuildingBlock: OLANEW_clean_sbu_2, # of connection points: 3
#     Node 17, Type 0, BuildingBlock: OLANEW_clean_sbu_2, # of connection points: 3
#     Node 18, Type 0, BuildingBlock: OLANEW_clean_sbu_2, # of connection points: 3
#     Node 19, Type 0, BuildingBlock: OLANEW_clean_sbu_2, # of connection points: 3
#     Node 20, Type 0, BuildingBlock: OLANEW_clean_sbu_2, # of connection points: 3
#     Node 21, Type 0, BuildingBlock: OLANEW_clean_sbu_2, # of connection points: 3
#     Node 22, Type 0, BuildingBlock: OLANEW_clean_sbu_2, # of connection points: 3
#     Node 23, Type 0, BuildingBlock: OLANEW_clean_sbu_2, # of connection points: 3
#     Node 24, Type 0, BuildingBlock: OLANEW_clean_sbu_2, # of connection points: 3
#     Node 25, Type 0, BuildingBlock: OLANEW_clean_sbu_2, # of connection points: 3
#     Node 26, Type 0, BuildingBlock: OLANEW_clean_sbu_2, # of connection points: 3
#     Node 27, Type 0, BuildingBlock: OLANEW_clean_sbu_2, # of connection points: 3
#     Node 28, Type 0, BuildingBlock: OLANEW_clean_sbu_2, # of connection points: 3
#     Node 29, Type 0, BuildingBlock: OLANEW_clean_sbu_2, # of connection points: 3
#     Node 30, Type 0, BuildingBlock: OLANEW_clean_sbu_2, # of connection points: 3
#     Node 31, Type 0, BuildingBlock: OLANEW_clean_sbu_2, # of connection points: 3
#     Node 32, Type 0, BuildingBlock: OLANEW_clean_sbu_2, # of connection points: 3
#     Node 33, Type 0, BuildingBlock: OLANEW_clean_sbu_2, # of connection points: 3
#     Node 34, Type 0, BuildingBlock: OLANEW_clean_sbu_2, # of connection points: 3
#     Node 35, Type 0, BuildingBlock: OLANEW_clean_sbu_2, # of connection points: 3
#     Edge 36, Type (0, 0), BuildingBlock: EZIPEK_clean_linker_0, # of connection points: 2
#     Edge 37, Type (0, 0), BuildingBlock: EZIPEK_clean_linker_0, # of connection points: 2
#     Edge 38, Type (0, 0), BuildingBlock: EZIPEK_clean_linker_0, # of connection points: 2
#     Edge 39, Type (0, 0), BuildingBlock: EZIPEK_clean_linker_0, # of connection points: 2
#     Edge 40, Type (0, 0), BuildingBlock: EZIPEK_clean_linker_0, # of connection points: 2
#     Edge 41, Type (0, 0), BuildingBlock: EZIPEK_clean_linker_0, # of connection points: 2
#     Edge 42, Type (0, 0), BuildingBlock: EZIPEK_clean_linker_0, # of connection points: 2
#     Edge 43, Type (0, 0), BuildingBlock: EZIPEK_clean_linker_0, # of connection points: 2
#     Edge 44, Type (0, 0), BuildingBlock: EZIPEK_clean_linker_0, # of connection points: 2
#     Edge 45, Type (0, 0), BuildingBlock: EZIPEK_clean_linker_0, # of connection points: 2
#     Edge 46, Type (0, 0), BuildingBlock: EZIPEK_clean_linker_0, # of connection points: 2
#     Edge 47, Type (0, 0), BuildingBlock: EZIPEK_clean_linker_0, # of connection points: 2
#     Edge 48, Type (0, 0), BuildingBlock: EZIPEK_clean_linker_0, # of connection points: 2
#     Edge 49, Type (0, 0), BuildingBlock: EZIPEK_clean_linker_0, # of connection points: 2
#     Edge 50, Type (0, 0), BuildingBlock: EZIPEK_clean_linker_0, # of connection points: 2
#     Edge 51, Type (0, 0), BuildingBlock: EZIPEK_clean_linker_0, # of connection points: 2
#     Edge 52, Type (0, 0), BuildingBlock: EZIPEK_clean_linker_0, # of connection points: 2
#     Edge 53, Type (0, 0), BuildingBlock: EZIPEK_clean_linker_0, # of connection points: 2
#     Edge 54, Type (0, 0), BuildingBlock: EZIPEK_clean_linker_0, # of connection points: 2
#     Edge 55, Type (0, 0), BuildingBlock: EZIPEK_clean_linker_0, # of connection points: 2
#     Edge 56, Type (0, 0), BuildingBlock: EZIPEK_clean_linker_0, # of connection points: 2
#     Edge 57, Type (0, 0), BuildingBlock: EZIPEK_clean_linker_0, # of connection points: 2
#     Edge 58, Type (0, 0), BuildingBlock: EZIPEK_clean_linker_0, # of connection points: 2
#     Edge 59, Type (0, 0), BuildingBlock: EZIPEK_clean_linker_0, # of connection points: 2
#     Edge 60, Type (0, 0), BuildingBlock: EZIPEK_clean_linker_0, # of connection points: 2
#     Edge 61, Type (0, 0), BuildingBlock: EZIPEK_clean_linker_0, # of connection points: 2
#     Edge 62, Type (0, 0), BuildingBlock: EZIPEK_clean_linker_0, # of connection points: 2
#     Edge 63, Type (0, 0), BuildingBlock: EZIPEK_clean_linker_0, # of connection points: 2
#     Edge 64, Type (0, 0), BuildingBlock: EZIPEK_clean_linker_0, # of connection points: 2
#     Edge 65, Type (0, 0), BuildingBlock: EZIPEK_clean_linker_0, # of connection points: 2
#     Edge 66, Type (0, 0), BuildingBlock: EZIPEK_clean_linker_0, # of connection points: 2
#     Edge 67, Type (0, 0), BuildingBlock: EZIPEK_clean_linker_0, # of connection points: 2
#     Edge 68, Type (0, 0), BuildingBlock: EZIPEK_clean_linker_0, # of connection points: 2
#     Edge 69, Type (0, 0), BuildingBlock: EZIPEK_clean_linker_0, # of connection points: 2
#     Edge 70, Type (0, 0), BuildingBlock: EZIPEK_clean_linker_0, # of connection points: 2
#     Edge 71, Type (0, 0), BuildingBlock: EZIPEK_clean_linker_0, # of connection points: 2
#     Edge 72, Type (0, 0), BuildingBlock: EZIPEK_clean_linker_0, # of connection points: 2
#     Edge 73, Type (0, 0), BuildingBlock: EZIPEK_clean_linker_0, # of connection points: 2
#     Edge 74, Type (0, 0), BuildingBlock: EZIPEK_clean_linker_0, # of connection points: 2
#     Edge 75, Type (0, 0), BuildingBlock: EZIPEK_clean_linker_0, # of connection points: 2
#     Edge 76, Type (0, 0), BuildingBlock: EZIPEK_clean_linker_0, # of connection points: 2
#     Edge 77, Type (0, 0), BuildingBlock: EZIPEK_clean_linker_0, # of connection points: 2
#     Edge 78, Type (0, 0), BuildingBlock: EZIPEK_clean_linker_0, # of connection points: 2
#     Edge 79, Type (0, 0), BuildingBlock: EZIPEK_clean_linker_0, # of connection points: 2
#     Edge 80, Type (0, 0), BuildingBlock: EZIPEK_clean_linker_0, # of connection points: 2
#     Edge 81, Type (0, 0), BuildingBlock: EZIPEK_clean_linker_0, # of connection points: 2
#     Edge 82, Type (0, 0), BuildingBlock: EZIPEK_clean_linker_0, # of connection points: 2
#     Edge 83, Type (0, 0), BuildingBlock: EZIPEK_clean_linker_0, # of connection points: 2
#     Edge 84, Type (0, 0), BuildingBlock: EZIPEK_clean_linker_0, # of connection points: 2
#     Edge 85, Type (0, 0), BuildingBlock: EZIPEK_clean_linker_0, # of connection points: 2
#     Edge 86, Type (0, 0), BuildingBlock: EZIPEK_clean_linker_0, # of connection points: 2
#     Edge 87, Type (0, 0), BuildingBlock: EZIPEK_clean_linker_0, # of connection points: 2
#     Edge 88, Type (0, 0), BuildingBlock: EZIPEK_clean_linker_0, # of connection points: 2
#     Edge 89, Type (0, 0), BuildingBlock: EZIPEK_clean_linker_0, # of connection points: 2
# Relax obj value: 0.001
# Max RMSD: 0.037
# Mean RMSD: 0.036
data_MOF--net-etf--node1-OLANEW_clean_sbu_2--edge1-EZIPEK_clean_linker_0
_symmetry_space_group_name_H-M    P1
_symmetry_Int_Tables_number       1
_symmetry_cell_setting            triclinic
loop_
_symmetry_equiv_pos_as_xyz
'x, y, z'
_cell_length_a     79.710894
_cell_length_b     79.731024
_cell_length_c     33.463328
_cell_angle_alpha  89.974419
_cell_angle_beta   89.978504
_cell_angle_gamma 119.9721
loop_
_atom_site_label
_atom_site_type_symbol
_atom_site_fract_x
_atom_site_fract_y
_atom_site_fract_z
_atom_type_partial_charge
O0 O 0.10588 0.29718 0.24811 0.0
Cd1 Cd 0.08809 0.27975 0.30794 0.0
O2 O 0.08183 0.30099 0.22637 0.0
Cd3 Cd 0.06034 0.28418 0.27212 0.0
O4 O 0.03045 0.2686 0.29386 0.0
C5 C 0.0175 0.26136 0.26695 0.0
O6 O 0.02275 0.26296 0.22929 0.0
C7 C 0.09897 0.30394 0.22265 0.0
C8 C 0.11243 0.27639 0.36313 0.0
O9 O 0.1102 0.29124 0.3632 0.0
O10 O 0.10314 0.26312 0.33714 0.0
O11 O 0.70613 0.81167 0.14399 0.0
Cd12 Cd 0.72997 0.8237 0.19825 0.0
O13 O 0.68469 0.78773 0.18116 0.0
Cd14 Cd 0.70623 0.79094 0.22521 0.0
O15 O 0.72629 0.78199 0.24768 0.0
C16 C 0.72396 0.76627 0.23295 0.0
O17 O 0.71027 0.75706 0.20629 0.0
C18 C 0.68915 0.79733 0.14872 0.0
C19 C 0.72272 0.84497 0.25495 0.0
O20 O 0.73399 0.85336 0.22521 0.0
O21 O 0.71475 0.82654 0.25788 0.0
O22 O 0.22276 0.90358 0.11823 0.0
Cd23 Cd 0.23429 0.91582 0.18561 0.0
O24 O 0.25122 0.91043 0.09398 0.0
Cd25 Cd 0.26558 0.92745 0.14691 0.0
O26 O 0.27649 0.95149 0.18901 0.0
C27 C 0.28524 0.96854 0.17473 0.0
O28 O 0.28789 0.97098 0.13594 0.0
C29 C 0.23304 0.90302 0.08975 0.0
C30 C 0.20509 0.89536 0.24134 0.0
O31 O 0.20752 0.9112 0.22625 0.0
O32 O 0.21654 0.88927 0.23057 0.0
O33 O 0.31945 0.10538 0.37244 0.0
Cd34 Cd 0.30514 0.09035 0.30814 0.0
O35 O 0.32174 0.07993 0.39018 0.0
Cd36 Cd 0.30914 0.06272 0.33648 0.0
O37 O 0.2989 0.03912 0.29341 0.0
C38 C 0.31109 0.03502 0.27855 0.0
O39 O 0.32946 0.0455 0.28829 0.0
C40 C 0.32443 0.09672 0.39762 0.0
C41 C 0.29945 0.11425 0.2558 0.0
O42 O 0.31549 0.11416 0.25603 0.0
O43 O 0.28622 0.10331 0.28064 0.0
O44 O 0.83421 0.19286 0.28103 0.0
Cd45 Cd 0.82282 0.18931 0.21217 0.0
O46 O 0.86414 0.20581 0.25934 0.0
Cd47 Cd 0.89538 0.22066 0.27011 0.0
O48 O 0.92688 0.23377 0.27234 0.0
C49 C 0.93477 0.22512 0.28905 0.0
O50 O 0.9239 0.20831 0.30648 0.0
C51 C 0.85226 0.20121 0.28817 0.0
C52 C 0.81888 0.1578 0.16914 0.0
O53 O 0.83518 0.17361 0.17051 0.0
O54 O 0.80462 0.15659 0.18923 0.0
O55 O 0.80573 0.67815 0.28065 0.0
Cd56 Cd 0.81323 0.70376 0.23185 0.0
O57 O 0.79053 0.688 0.32122 0.0
Cd58 Cd 0.79245 0.71155 0.28451 0.0
O59 O 0.78238 0.73115 0.26466 0.0
C60 C 0.76558 0.72695 0.27661 0.0
O61 O 0.7558 0.71171 0.29954 0.0
C62 C 0.79657 0.67637 0.31291 0.0
C63 C 0.84558 0.71115 0.18676 0.0
O64 O 0.84739 0.72038 0.21928 0.0
O65 O 0.82852 0.69853 0.17529 0.0
O66 O 0.89265 0.68513 0.79263 0.0
Cd67 Cd 0.88429 0.69224 0.72685 0.0
O68 O 0.92291 0.70471 0.77643 0.0
Cd69 Cd 0.95424 0.72203 0.78538 0.0
O70 O 0.98486 0.73456 0.7697 0.0
C71 C 0.9895 0.7238 0.75016 0.0
O72 O 0.97608 0.70599 0.74159 0.0
C73 C 0.91037 0.69469 0.8028 0.0
C74 C 0.85172 0.66371 0.68686 0.0
O75 O 0.85002 0.6713 0.71924 0.0
O76 O 0.86887 0.66887 0.67464 0.0
O77 O 0.37724 0.23692 0.89554 0.0
Cd78 Cd 0.39926 0.24914 0.8384 0.0
O79 O 0.35741 0.24352 0.86292 0.0
Cd80 Cd 0.33125 0.24564 0.85586 0.0
O81 O 0.31017 0.25443 0.8398 0.0
C82 C 0.31302 0.26401 0.80769 0.0
O83 O 0.32799 0.26776 0.78515 0.0
C84 C 0.36142 0.23713 0.89414 0.0
C85 C 0.39562 0.2198 0.78777 0.0
O86 O 0.40765 0.2256 0.81692 0.0
O87 O 0.38519 0.22772 0.78264 0.0
O88 O 0.76408 0.13528 0.81663 0.0
Cd89 Cd 0.75729 0.15196 0.7632 0.0
O90 O 0.75208 0.10888 0.78033 0.0
Cd91 Cd 0.74412 0.07867 0.77128 0.0
O92 O 0.73174 0.04781 0.75943 0.0
C93 C 0.71718 0.03971 0.73632 0.0
O94 O 0.71041 0.05012 0.72001 0.0
C95 C 0.75977 0.11773 0.81267 0.0
C96 C 0.78815 0.17153 0.7105 0.0
O97 O 0.78689 0.17979 0.74229 0.0
O98 O 0.77499 0.15399 0.70369 0.0
O99 O 0.6169 0.86093 0.64518 0.0
Cd100 Cd 0.59881 0.85435 0.70801 0.0
O101 O 0.63746 0.88857 0.6727 0.0
Cd102 Cd 0.66227 0.91794 0.6724 0.0
O103 O 0.68163 0.94888 0.68182 0.0
C104 C 0.67531 0.95751 0.70375 0.0
O105 O 0.65796 0.94759 0.71962 0.0
C106 C 0.63207 0.87746 0.64244 0.0
C107 C 0.6037 0.83177 0.7654 0.0
O108 O 0.59006 0.82406 0.73951 0.0
O109 O 0.61553 0.85004 0.76323 0.0
O110 O 0.15324 0.76687 0.59368 0.0
Cd111 Cd 0.1633 0.75792 0.65531 0.0
O112 O 0.12829 0.76343 0.62771 0.0
Cd113 Cd 0.10184 0.76466 0.63793 0.0
O114 O 0.07377 0.75945 0.65969 0.0
C115 C 0.06661 0.74867 0.69022 0.0
O116 O 0.07642 0.74155 0.70788 0.0
C117 C 0.13795 0.76806 0.59539 0.0
C118 C 0.15924 0.77795 0.71944 0.0
O119 O 0.17481 0.78544 0.69861 0.0
O120 O 0.1457 0.76085 0.71057 0.0
O121 O 0.24169 0.37193 0.70989 0.0
Cd122 Cd 0.25538 0.39441 0.76603 0.0
O123 O 0.25401 0.35571 0.73796 0.0
Cd124 Cd 0.26115 0.33263 0.7425 0.0
O125 O 0.27532 0.31624 0.75928 0.0
C126 C 0.26701 0.29789 0.75763 0.0
O127 O 0.24904 0.28788 0.74501 0.0
C128 C 0.24455 0.35761 0.70946 0.0
C129 C 0.22848 0.38861 0.82546 0.0
O130 O 0.23204 0.40077 0.79714 0.0
O131 O 0.23741 0.37897 0.82548 0.0
O132 O 0.77395 0.61138 0.45736 0.0
Cd133 Cd 0.75965 0.59701 0.52191 0.0
O134 O 0.75403 0.62299 0.45249 0.0
Cd135 Cd 0.73457 0.60658 0.5013 0.0
O136 O 0.70742 0.59279 0.53473 0.0
C137 C 0.69584 0.59905 0.52787 0.0
O138 O 0.70083 0.61322 0.50213 0.0
C139 C 0.76847 0.62192 0.43963 0.0
C140 C 0.78775 0.61552 0.58109 0.0
O141 O 0.77922 0.62373 0.56458 0.0
O142 O 0.78258 0.59817 0.57042 0.0
O143 O 0.37216 0.1307 0.56745 0.0
Cd144 Cd 0.389 0.13208 0.62949 0.0
O145 O 0.36253 0.09976 0.55845 0.0
Cd146 Cd 0.37863 0.09643 0.60765 0.0
O147 O 0.3952 0.08426 0.63463 0.0
C148 C 0.40584 0.08119 0.61093 0.0
O149 O 0.4069 0.08616 0.57319 0.0
C150 C 0.36284 0.11517 0.54745 0.0
C151 C 0.39069 0.16026 0.68118 0.0
O152 O 0.37631 0.14292 0.68219 0.0
O153 O 0.40426 0.16431 0.65587 0.0
O154 O 0.87056 0.22353 0.47682 0.0
Cd155 Cd 0.88073 0.2355 0.54489 0.0
O156 O 0.89998 0.23886 0.45115 0.0
Cd157 Cd 0.91241 0.2562 0.50476 0.0
O158 O 0.92395 0.28341 0.53751 0.0
C159 C 0.93546 0.29873 0.51856 0.0
O160 O 0.94028 0.29737 0.48165 0.0
C161 C 0.88195 0.22714 0.44738 0.0
C162 C 0.85107 0.21453 0.59944 0.0
O163 O 0.85251 0.22949 0.58189 0.0
O164 O 0.86365 0.20947 0.5915 0.0
O165 O 0.97304 0.45174 0.65744 0.0
Cd166 Cd 0.95526 0.43362 0.59821 0.0
O167 O 0.98481 0.43222 0.66764 0.0
Cd168 Cd 0.96886 0.41125 0.62077 0.0
O169 O 0.95582 0.38322 0.59078 0.0
C170 C 0.96597 0.37505 0.58786 0.0
O171 O 0.9838 0.38396 0.60157 0.0
C172 C 0.98368 0.44705 0.6772 0.0
C173 C 0.95236 0.45752 0.54121 0.0
O174 O 0.93911 0.44884 0.56759 0.0
O175 O 0.96699 0.45494 0.54168 0.0
O176 O 0.54195 0.51308 0.68043 0.0
Cd177 Cd 0.55629 0.50994 0.61802 0.0
O178 O 0.56291 0.54441 0.68079 0.0
Cd179 Cd 0.58011 0.54502 0.62957 0.0
O180 O 0.6065 0.55311 0.59579 0.0
C181 C 0.62132 0.56911 0.60512 0.0
O182 O 0.61991 0.57974 0.63346 0.0
C183 C 0.54854 0.52968 0.69637 0.0
C184 C 0.53026 0.48724 0.55875 0.0
O185 O 0.53692 0.4799 0.5839 0.0
O186 O 0.53544 0.5052 0.56221 0.0
O187 O 0.48012 0.97596 0.68858 0.0
Cd188 Cd 0.50037 0.97042 0.64155 0.0
O189 O 0.47333 0.99383 0.64891 0.0
Cd190 Cd 0.45822 0.01006 0.63982 0.0
O191 O 0.44261 0.02585 0.63148 0.0
C192 C 0.4476 0.04148 0.65032 0.0
O193 O 0.46219 0.04816 0.67544 0.0
C194 C 0.4715 0.98549 0.68228 0.0
C195 C 0.51579 0.99578 0.57734 0.0
O196 O 0.49942 0.98013 0.57419 0.0
O197 O 0.52456 0.99978 0.61105 0.0
O198 O 0.53122 0.97862 0.16599 0.0
Cd199 Cd 0.5218 0.95936 0.1047 0.0
O200 O 0.56034 0.99585 0.14091 0.0
Cd201 Cd 0.59105 0.01812 0.13947 0.0
O202 O 0.62176 0.03268 0.12301 0.0
C203 C 0.62725 0.04139 0.08964 0.0
O204 O 0.61457 0.04227 0.06596 0.0
C205 C 0.54855 0.99245 0.16951 0.0
C206 C 0.49308 0.96127 0.06079 0.0
O207 O 0.48863 0.9479 0.08684 0.0
O208 O 0.511 0.9739 0.05589 0.0
O209 O 0.05315 0.58319 0.19607 0.0
Cd210 Cd 0.07745 0.59549 0.14303 0.0
O211 O 0.03533 0.59 0.15696 0.0
Cd212 Cd 0.00992 0.59236 0.14179 0.0
O213 O 0.99068 0.60166 0.11608 0.0
C214 C 0.99859 0.61696 0.09498 0.0
O215 O 0.01741 0.626 0.08937 0.0
C216 C 0.0376 0.58355 0.19004 0.0
C217 C 0.06946 0.56789 0.08407 0.0
O218 O 0.08048 0.56977 0.11364 0.0
O219 O 0.06213 0.57898 0.08236 0.0
O220 O 0.40907 0.46645 0.18081 0.0
Cd221 Cd 0.39565 0.474 0.12215 0.0
O222 O 0.39967 0.43856 0.15186 0.0
Cd223 Cd 0.39472 0.40906 0.14853 0.0
O224 O 0.38299 0.37829 0.13643 0.0
C225 C 0.39246 0.36962 0.14272 0.0
O226 O 0.41011 0.37925 0.15716 0.0
C227 C 0.40748 0.44978 0.18147 0.0
C228 C 0.42303 0.49742 0.06543 0.0
O229 O 0.41747 0.50478 0.09283 0.0
O230 O 0.41593 0.47902 0.06516 0.0
O231 O 0.29565 0.19209 0.03132 0.0
Cd232 Cd 0.27445 0.18084 0.08986 0.0
O233 O 0.31347 0.21966 0.0622 0.0
Cd234 Cd 0.33752 0.24941 0.06636 0.0
O235 O 0.3565 0.28031 0.07748 0.0
C236 C 0.3524 0.28775 0.1068 0.0
O237 O 0.33745 0.27666 0.12953 0.0
C238 C 0.31024 0.20909 0.0315 0.0
C239 C 0.28382 0.16007 0.14353 0.0
O240 O 0.27177 0.15147 0.11507 0.0
O241 O 0.29162 0.1785 0.14651 0.0
O242 O 0.79145 0.07926 0.94352 0.0
Cd243 Cd 0.80005 0.06835 0.00434 0.0
O244 O 0.76646 0.07669 0.97622 0.0
Cd245 Cd 0.74014 0.07851 0.98395 0.0
O246 O 0.71089 0.07176 0.00104 0.0
C247 C 0.70615 0.06923 0.03777 0.0
O248 O 0.71909 0.07149 0.06475 0.0
C249 C 0.77676 0.08151 0.94471 0.0
C250 C 0.80689 0.09562 0.0631 0.0
O251 O 0.82047 0.09766 0.03959 0.0
O252 O 0.79018 0.08044 0.05983 0.0
O253 O 0.93619 0.72273 0.98097 0.0
Cd254 Cd 0.9455 0.73288 0.05006 0.0
O255 O 0.94023 0.69781 0.99023 0.0
Cd256 Cd 0.94051 0.67111 0.97739 0.0
O257 O 0.95002 0.65078 0.99523 0.0
C258 C 0.96033 0.65553 0.02668 0.0
O259 O 0.96403 0.67146 0.04558 0.0
C260 C 0.93549 0.70751 0.9674 0.0
C261 C 0.91321 0.7258 0.09504 0.0
O262 O 0.92323 0.74192 0.07668 0.0
O263 O 0.91847 0.71304 0.09248 0.0
O264 O 0.42312 0.96938 0.84207 0.0
Cd265 Cd 0.40817 0.96397 0.90804 0.0
O266 O 0.41353 0.98917 0.81925 0.0
Cd267 Cd 0.39198 0.98125 0.86672 0.0
O268 O 0.36315 0.9679 0.8939 0.0
C269 C 0.35127 0.95041 0.8847 0.0
O270 O 0.357 0.94099 0.86137 0.0
C271 C 0.42343 0.98079 0.81517 0.0
C272 C 0.43418 0.96279 0.96203 0.0
O273 O 0.43511 0.97887 0.95324 0.0
O274 O 0.42062 0.9472 0.94649 0.0
O275 O 0.03231 0.48352 0.84544 0.0
Cd276 Cd 0.05045 0.48351 0.90443 0.0
O277 O 0.03655 0.46088 0.81733 0.0
Cd278 Cd 0.05404 0.45852 0.8646 0.0
O279 O 0.06829 0.44717 0.90256 0.0
C280 C 0.06295 0.42937 0.89815 0.0
O281 O 0.04956 0.4191 0.87161 0.0
C282 C 0.0294 0.47199 0.81662 0.0
C283 C 0.05549 0.51092 0.96176 0.0
O284 O 0.04014 0.49421 0.96141 0.0
O285 O 0.06831 0.5148 0.9347 0.0
O286 O 0.5133 0.5586 0.8355 0.0
Cd287 Cd 0.50414 0.57335 0.88961 0.0
O288 O 0.53096 0.55135 0.87462 0.0
Cd289 Cd 0.53152 0.57111 0.92002 0.0
O290 O 0.54257 0.60117 0.93754 0.0
C291 C 0.55773 0.6133 0.91893 0.0
O292 O 0.56524 0.607 0.89196 0.0
C293 C 0.52367 0.55075 0.84051 0.0
C294 C 0.47768 0.54747 0.94529 0.0
O295 O 0.47187 0.55292 0.91484 0.0
O296 O 0.49586 0.55387 0.94905 0.0
O297 O 0.62163 0.77134 0.01052 0.0
Cd298 Cd 0.5993 0.75682 0.9541 0.0
O299 O 0.63801 0.75716 0.9917 0.0
Cd300 Cd 0.61685 0.73819 0.9478 0.0
O301 O 0.59657 0.70822 0.93153 0.0
C302 C 0.60067 0.69591 0.94572 0.0
O303 O 0.6163 0.70199 0.96772 0.0
C304 C 0.63586 0.7685 0.01513 0.0
C305 C 0.6035 0.78254 0.89313 0.0
O306 O 0.61394 0.77446 0.89366 0.0
O307 O 0.59145 0.77883 0.92176 0.0
O308 O 0.17041 0.86002 0.95241 0.0
Cd309 Cd 0.14669 0.84741 0.8984 0.0
O310 O 0.19544 0.87103 0.91178 0.0
Cd311 Cd 0.22688 0.88726 0.90351 0.0
O312 O 0.25827 0.90428 0.89544 0.0
C313 C 0.26984 0.90891 0.92485 0.0
O314 O 0.26293 0.90358 0.96116 0.0
C315 C 0.18862 0.86898 0.9469 0.0
C316 C 0.15163 0.82396 0.84403 0.0
O317 O 0.14117 0.81665 0.87528 0.0
O318 O 0.16005 0.84231 0.83877 0.0
O319 O 0.14512 0.35983 0.06684 0.0
Cd320 Cd 0.1498 0.38078 0.0093 0.0
O321 O 0.1149 0.35343 0.07282 0.0
Cd322 Cd 0.11567 0.37234 0.02495 0.0
O323 O 0.10876 0.39023 0.98682 0.0
C324 C 0.09218 0.38856 0.99177 0.0
O325 O 0.08045 0.37651 0.01895 0.0
C326 C 0.1288 0.35116 0.08447 0.0
C327 C 0.17501 0.38149 0.95073 0.0
O328 O 0.1571 0.36833 0.95065 0.0
O329 O 0.18111 0.39405 0.97892 0.0
O330 O 0.19863 0.28643 0.58449 0.0
Cd331 Cd 0.18655 0.26286 0.53001 0.0
O332 O 0.22291 0.30552 0.54573 0.0
Cd333 Cd 0.25033 0.33162 0.53166 0.0
O334 O 0.27876 0.35201 0.50694 0.0
C335 C 0.2852 0.34572 0.4795 0.0
O336 O 0.27453 0.32779 0.46708 0.0
C337 C 0.2143 0.30232 0.57922 0.0
C338 C 0.1629 0.26827 0.4765 0.0
O339 O 0.15564 0.25696 0.50664 0.0
O340 O 0.18132 0.2772 0.47182 0.0
O341 O 0.68939 0.90218 0.48731 0.0
Cd342 Cd 0.70727 0.91653 0.42532 0.0
O343 O 0.6692 0.91113 0.46545 0.0
Cd344 Cd 0.6446 0.91611 0.46862 0.0
O345 O 0.62562 0.92819 0.45828 0.0
C346 C 0.62318 0.93191 0.42251 0.0
O347 O 0.63142 0.92775 0.39314 0.0
C348 C 0.67429 0.90347 0.49272 0.0
C349 C 0.7106 0.89143 0.37217 0.0
O350 O 0.72365 0.90068 0.3986 0.0
O351 O 0.6957 0.89359 0.37155 0.0
O352 O 0.12097 0.81681 0.46147 0.0
Cd353 Cd 0.11188 0.82993 0.40478 0.0
O354 O 0.10611 0.78855 0.43189 0.0
Cd355 Cd 0.09548 0.7575 0.42754 0.0
O356 O 0.07834 0.72646 0.41604 0.0
C357 C 0.08301 0.71439 0.42909 0.0
O358 O 0.0989 0.72051 0.45024 0.0
C359 C 0.11579 0.79893 0.46135 0.0
C360 C 0.14257 0.85115 0.35262 0.0
O361 O 0.13887 0.85955 0.38112 0.0
O362 O 0.13192 0.83277 0.34885 0.0
O363 O 0.96439 0.54047 0.31278 0.0
Cd364 Cd 0.94081 0.53018 0.36719 0.0
O365 O 0.98312 0.56656 0.34753 0.0
Cd366 Cd 0.00943 0.59455 0.35579 0.0
O367 O 0.03263 0.62402 0.36831 0.0
C368 C 0.02937 0.63393 0.39361 0.0
O369 O 0.01251 0.6261 0.41174 0.0
C370 C 0.98007 0.55652 0.31607 0.0
C371 C 0.94531 0.50688 0.42319 0.0
O372 O 0.93389 0.49938 0.39331 0.0
O373 O 0.95473 0.52536 0.4265 0.0
O374 O 0.45127 0.42565 0.31443 0.0
Cd375 Cd 0.4606 0.41202 0.36995 0.0
O376 O 0.42475 0.4174 0.34818 0.0
Cd377 Cd 0.39579 0.41319 0.35815 0.0
O378 O 0.36656 0.40157 0.38227 0.0
C379 C 0.36126 0.38814 0.40804 0.0
O380 O 0.37341 0.38237 0.41885 0.0
C381 C 0.43485 0.42458 0.31682 0.0
C382 C 0.48202 0.43798 0.43043 0.0
O383 O 0.49045 0.43491 0.40103 0.0
O384 O 0.46347 0.42919 0.43082 0.0
O385 O 0.56809 0.05241 0.31767 0.0
Cd386 Cd 0.5755 0.07059 0.3802 0.0
O387 O 0.57518 0.0322 0.3471 0.0
Cd388 Cd 0.57966 0.00731 0.35095 0.0
O389 O 0.59213 0.9891 0.36588 0.0
C390 C 0.58216 0.97224 0.38069 0.0
O391 O 0.56351 0.96499 0.3867 0.0
C392 C 0.56959 0.03728 0.31614 0.0
C393 C 0.55505 0.04656 0.44391 0.0
O394 O 0.54805 0.05541 0.42414 0.0
O395 O 0.57165 0.04905 0.43375 0.0
C396 C 0.10458 0.3065 0.14886 0.0
C397 C 0.11044 0.31486 0.18737 0.0
C398 C 0.13227 0.34654 0.1575 0.0
C399 C 0.12556 0.33837 0.11912 0.0
N400 N 0.1096 0.3103 0.07699 0.0
N401 N 0.13292 0.34127 0.22888 0.0
C402 C 0.11309 0.31819 0.11445 0.0
C403 C 0.12546 0.33437 0.19182 0.0
N404 N 0.09047 0.2875 0.14536 0.0
N405 N 0.1442 0.3661 0.1612 0.0
H406 H 0.12781 0.3329 0.25473 0.0
H407 H 0.1451 0.35475 0.23385 0.0
H408 H 0.14991 0.37532 0.13663 0.0
H409 H 0.14776 0.3734 0.18838 0.0
H410 H 0.08377 0.28103 0.11854 0.0
H411 H 0.08488 0.27824 0.16991 0.0
H412 H 0.10194 0.2955 0.07131 0.0
H413 H 0.11586 0.31864 0.05143 0.0
C414 C 0.66641 0.77059 0.10345 0.0
C415 C 0.6752 0.79033 0.11497 0.0
C416 C 0.65895 0.79641 0.05911 0.0
C417 C 0.64868 0.77628 0.05056 0.0
N418 N 0.63866 0.74372 0.07267 0.0
N419 N 0.67693 0.82132 0.10846 0.0
C420 C 0.6512 0.76322 0.07518 0.0
C421 C 0.67065 0.80309 0.09413 0.0
N422 N 0.6732 0.75903 0.11774 0.0
N423 N 0.65817 0.80923 0.03312 0.0
H424 H 0.68513 0.82654 0.13448 0.0
H425 H 0.67246 0.83055 0.09672 0.0
H426 H 0.64999 0.80493 0.00695 0.0
H427 H 0.66696 0.82418 0.03574 0.0
H428 H 0.6684 0.74507 0.10705 0.0
H429 H 0.68515 0.76401 0.13663 0.0
H430 H 0.63887 0.73382 0.09271 0.0
H431 H 0.62666 0.73766 0.05373 0.0
C432 C 0.2263 0.90598 0.01781 0.0
C433 C 0.22366 0.89403 0.0514 0.0
C434 C 0.20113 0.86532 0.01302 0.0
C435 C 0.20176 0.87754 0.98153 0.0
N436 N 0.21313 0.9097 0.95542 0.0
N437 N 0.20815 0.86251 0.08241 0.0
C438 C 0.21406 0.89792 0.98402 0.0
C439 C 0.21097 0.87373 0.04939 0.0
N440 N 0.24035 0.92509 0.01832 0.0
N441 N 0.19167 0.8457 0.00756 0.0
H442 H 0.21605 0.86793 0.10875 0.0
H443 H 0.19732 0.84806 0.08451 0.0
H444 H 0.18461 0.8391 0.98099 0.0
H445 H 0.19226 0.83608 0.02775 0.0
H446 H 0.24455 0.93389 0.99305 0.0
H447 H 0.24893 0.93187 0.04324 0.0
H448 H 0.22002 0.9247 0.95798 0.0
H449 H 0.20416 0.90449 0.93044 0.0
C450 C 0.32241 0.09754 0.47201 0.0
C451 C 0.33313 0.10569 0.43646 0.0
C452 C 0.36305 0.12368 0.47511 0.0
C453 C 0.35246 0.11473 0.51045 0.0
N454 N 0.3219 0.09752 0.54462 0.0
N455 N 0.36224 0.12999 0.4043 0.0
C456 C 0.33202 0.10307 0.50951 0.0
C457 C 0.35298 0.12008 0.43815 0.0
N458 N 0.30315 0.08405 0.46963 0.0
N459 N 0.38281 0.13454 0.47646 0.0
H460 H 0.35536 0.12731 0.37662 0.0
H461 H 0.37617 0.14193 0.40411 0.0
H462 H 0.39066 0.13778 0.50301 0.0
H463 H 0.39158 0.13948 0.45121 0.0
H464 H 0.29494 0.07573 0.4937 0.0
H465 H 0.29545 0.08065 0.44282 0.0
H466 H 0.30686 0.09038 0.54638 0.0
H467 H 0.32867 0.10161 0.57245 0.0
C468 C 0.87589 0.20485 0.38942 0.0
C469 C 0.87392 0.21991 0.4072 0.0
C470 C 0.85663 0.22167 0.34822 0.0
C471 C 0.85948 0.20729 0.32942 0.0
N472 N 0.87315 0.18629 0.32974 0.0
N473 N 0.86522 0.24478 0.40226 0.0
C474 C 0.86956 0.19923 0.34931 0.0
C475 C 0.86492 0.22881 0.38638 0.0
N476 N 0.88325 0.19555 0.41143 0.0
N477 N 0.8461 0.22864 0.32947 0.0
H478 H 0.871 0.25042 0.43029 0.0
H479 H 0.86111 0.25345 0.38666 0.0
H480 H 0.84135 0.22538 0.3 0.0
H481 H 0.84115 0.23696 0.3437 0.0
H482 H 0.88335 0.18317 0.40198 0.0
H483 H 0.88817 0.19949 0.4407 0.0
H484 H 0.88232 0.18156 0.34053 0.0
H485 H 0.86773 0.18095 0.30135 0.0
C486 C 0.80285 0.66533 0.37827 0.0
C487 C 0.79265 0.66068 0.3415 0.0
C488 C 0.76941 0.62833 0.36638 0.0
C489 C 0.77882 0.63346 0.40403 0.0
N490 N 0.80667 0.65451 0.44384 0.0
N491 N 0.76931 0.63683 0.29663 0.0
C492 C 0.79639 0.65118 0.40918 0.0
C493 C 0.777 0.64177 0.3342 0.0
N494 N 0.81824 0.68355 0.38393 0.0
N495 N 0.7528 0.61087 0.3621 0.0
H496 H 0.7743 0.64651 0.27272 0.0
H497 H 0.75899 0.62286 0.28821 0.0
H498 H 0.74761 0.60031 0.38443 0.0
H499 H 0.74379 0.60697 0.33724 0.0
H500 H 0.82502 0.68882 0.41131 0.0
H501 H 0.82395 0.69381 0.36106 0.0
H502 H 0.82039 0.66638 0.44847 0.0
H503 H 0.80208 0.64459 0.46731 0.0
C504 C 0.9058 0.70015 0.87497 0.0
C505 C 0.91591 0.69575 0.84557 0.0
C506 C 0.93897 0.69794 0.89687 0.0
C507 C 0.92793 0.70094 0.92641 0.0
N508 N 0.89755 0.69856 0.94485 0.0
N509 N 0.93926 0.68579 0.83057 0.0
C510 C 0.91025 0.69993 0.91582 0.0
C511 C 0.93164 0.69318 0.85714 0.0
N512 N 0.89293 0.70594 0.86412 0.0
N513 N 0.95684 0.7006 0.90601 0.0
H514 H 0.93394 0.68174 0.80159 0.0
H515 H 0.94954 0.68195 0.83846 0.0
H516 H 0.96282 0.70428 0.93454 0.0
H517 H 0.96636 0.70071 0.88453 0.0
H518 H 0.88674 0.7111 0.88462 0.0
H519 H 0.89013 0.70785 0.83457 0.0
H520 H 0.88366 0.69601 0.9385 0.0
H521 H 0.90005 0.69775 0.97522 0.0
C522 C 0.34183 0.21115 0.9442 0.0
C523 C 0.34789 0.22989 0.92863 0.0
C524 C 0.32736 0.23403 0.97763 0.0
C525 C 0.32329 0.21638 0.99627 0.0
N526 N 0.3301 0.19014 0.00195 0.0
N527 N 0.34949 0.26082 0.93595 0.0
C528 C 0.33147 0.20547 0.98085 0.0
C529 C 0.3415 0.24181 0.94679 0.0
N530 N 0.34528 0.19845 0.92329 0.0
N531 N 0.31721 0.243 0.98816 0.0
H532 H 0.36026 0.26729 0.91425 0.0
H533 H 0.34679 0.27062 0.95122 0.0
H534 H 0.30636 0.23753 0.00985 0.0
H535 H 0.31823 0.2548 0.97263 0.0
H536 H 0.33944 0.18397 0.93135 0.0
H537 H 0.35223 0.20177 0.89561 0.0
H538 H 0.33752 0.18297 0.99399 0.0
H539 H 0.32324 0.18586 0.02964 0.0
C540 C 0.74904 0.09056 0.86261 0.0
C541 C 0.76407 0.10789 0.84543 0.0
C542 C 0.78679 0.10873 0.8957 0.0
C543 C 0.77231 0.09042 0.91036 0.0
N544 N 0.7408 0.06203 0.90222 0.0
N545 N 0.79823 0.13098 0.83987 0.0
C546 C 0.75373 0.08078 0.89225 0.0
C547 C 0.78324 0.11626 0.86031 0.0
N548 N 0.73019 0.08387 0.85197 0.0
N549 N 0.80364 0.1194 0.91646 0.0
H550 H 0.79635 0.13659 0.81316 0.0
H551 H 0.81272 0.13623 0.84716 0.0
H552 H 0.80675 0.11476 0.94311 0.0
H553 H 0.81369 0.13371 0.9094 0.0
H554 H 0.71852 0.07249 0.86664 0.0
H555 H 0.72607 0.09077 0.83093 0.0
H556 H 0.72785 0.05364 0.88692 0.0
H557 H 0.74382 0.05424 0.92323 0.0
C558 C 0.65912 0.9093 0.55327 0.0
C559 C 0.66323 0.89669 0.53074 0.0
C560 C 0.64892 0.87232 0.58392 0.0
C561 C 0.64278 0.88402 0.60397 0.0
N562 N 0.63802 0.91168 0.60194 0.0
N563 N 0.65828 0.8645 0.5209 0.0
C564 C 0.64673 0.90197 0.58702 0.0
C565 C 0.65707 0.8777 0.54501 0.0
N566 N 0.66771 0.92851 0.54372 0.0
N567 N 0.64772 0.8565 0.60255 0.0
H568 H 0.66354 0.86762 0.4917 0.0
H569 H 0.65221 0.84992 0.52838 0.0
H570 H 0.64241 0.85237 0.63152 0.0
H571 H 0.65382 0.84864 0.59086 0.0
H572 H 0.66671 0.93862 0.56176 0.0
H573 H 0.67748 0.93472 0.52016 0.0
H574 H 0.63897 0.92383 0.58806 0.0
H575 H 0.62824 0.90651 0.62567 0.0
C576 C 0.14577 0.79359 0.54329 0.0
C577 C 0.13211 0.77567 0.56083 0.0
C578 C 0.1071 0.77385 0.51551 0.0
C579 C 0.12134 0.79052 0.49496 0.0
N580 N 0.15523 0.81344 0.48382 0.0
N581 N 0.10075 0.74664 0.55772 0.0
C582 C 0.14098 0.79959 0.50725 0.0
C583 C 0.11302 0.76516 0.54527 0.0
N584 N 0.163 0.8054 0.56191 0.0
N585 N 0.08786 0.76679 0.50808 0.0
H586 H 0.10469 0.73957 0.57873 0.0
H587 H 0.0874 0.73768 0.54427 0.0
H588 H 0.08283 0.77306 0.48748 0.0
H589 H 0.0769 0.75588 0.52515 0.0
H590 H 0.17256 0.81945 0.55227 0.0
H591 H 0.16681 0.80208 0.58936 0.0
H592 H 0.16993 0.81908 0.4896 0.0
H593 H 0.15249 0.81775 0.45632 0.0
C594 C 0.2495 0.33898 0.65435 0.0
C595 C 0.23692 0.34343 0.67614 0.0
C596 C 0.21041 0.32311 0.63049 0.0
C597 C 0.22231 0.3168 0.61194 0.0
N598 N 0.2521 0.31576 0.61217 0.0
N599 N 0.20427 0.33637 0.69005 0.0
C600 C 0.24158 0.32391 0.62547 0.0
C601 C 0.21704 0.33457 0.66564 0.0
N602 N 0.26908 0.34964 0.65987 0.0
N603 N 0.19307 0.31882 0.61376 0.0
H604 H 0.20835 0.34403 0.71688 0.0
H605 H 0.18933 0.32857 0.6858 0.0
H606 H 0.18794 0.31102 0.58725 0.0
H607 H 0.18478 0.32474 0.62386 0.0
H608 H 0.27896 0.34826 0.64177 0.0
H609 H 0.27557 0.36119 0.67984 0.0
H610 H 0.26544 0.31905 0.6243 0.0
H611 H 0.24671 0.30433 0.59183 0.0
C612 C 0.98555 0.45427 0.7503 0.0
C613 C 0.99468 0.45841 0.71235 0.0
C614 C 0.02661 0.4765 0.74358 0.0
C615 C 0.0176 0.47104 0.78163 0.0
N616 N 0.98888 0.45924 0.82215 0.0
N617 N 0.02277 0.47732 0.67159 0.0
C618 C 0.99715 0.46157 0.78527 0.0
C619 C 0.01491 0.47091 0.70864 0.0
N620 N 0.96593 0.4424 0.75284 0.0
N621 N 0.04638 0.48647 0.74108 0.0
H622 H 0.01434 0.47342 0.64572 0.0
H623 H 0.03721 0.4876 0.66657 0.0
H624 H 0.05524 0.49184 0.76625 0.0
H625 H 0.05407 0.48903 0.71452 0.0
H626 H 0.95848 0.43678 0.77949 0.0
H627 H 0.95702 0.43746 0.7277 0.0
H628 H 0.97418 0.45402 0.82673 0.0
H629 H 0.99695 0.46395 0.8484 0.0
C630 C 0.52129 0.52657 0.74066 0.0
C631 C 0.54106 0.53208 0.7353 0.0
C632 C 0.54931 0.54989 0.79833 0.0
C633 C 0.52938 0.54328 0.80547 0.0
N634 N 0.49602 0.5216 0.78768 0.0
N635 N 0.57243 0.54344 0.76536 0.0
C636 C 0.51521 0.53043 0.77792 0.0
C637 C 0.55457 0.54191 0.76627 0.0
N638 N 0.50851 0.51857 0.70976 0.0
N639 N 0.56341 0.5648 0.82005 0.0
H640 H 0.57661 0.53717 0.74297 0.0
H641 H 0.58214 0.54897 0.78915 0.0
H642 H 0.56055 0.57235 0.84188 0.0
H643 H 0.57808 0.57124 0.81304 0.0
H644 H 0.49445 0.51627 0.71069 0.0
H645 H 0.5124 0.51566 0.68197 0.0
H646 H 0.48518 0.51074 0.77036 0.0
H647 H 0.49112 0.52371 0.8151 0.0
C648 C 0.43887 0.97725 0.70949 0.0
C649 C 0.45929 0.98669 0.71425 0.0
C650 C 0.45626 0.99395 0.78419 0.0
C651 C 0.43583 0.98452 0.7795 0.0
N652 N 0.40782 0.97046 0.73637 0.0
N653 N 0.48777 0.00778 0.7523 0.0
C654 C 0.4272 0.97737 0.74159 0.0
C655 C 0.46809 0.99616 0.75053 0.0
N656 N 0.43055 0.96716 0.67521 0.0
N657 N 0.46432 0.00059 0.82099 0.0
H658 H 0.49681 0.00989 0.72795 0.0
H659 H 0.49506 0.01665 0.77647 0.0
H660 H 0.45634 0.00065 0.84566 0.0
H661 H 0.47874 0.00526 0.82769 0.0
H662 H 0.41571 0.95802 0.67166 0.0
H663 H 0.43855 0.96678 0.65093 0.0
H664 H 0.40111 0.96723 0.70853 0.0
H665 H 0.39854 0.9692 0.75958 0.0
C666 C 0.57742 0.02044 0.2614 0.0
C667 C 0.56441 0.02566 0.27881 0.0
C668 C 0.54292 0.01196 0.22104 0.0
C669 C 0.55456 0.00444 0.20639 0.0
N670 N 0.58081 0.99808 0.21797 0.0
N671 N 0.53244 0.02206 0.27937 0.0
C672 C 0.57128 0.00773 0.22799 0.0
C673 C 0.54648 0.0202 0.25982 0.0
N674 N 0.5959 0.0282 0.27555 0.0
N675 N 0.52893 0.01196 0.19744 0.0
H676 H 0.534 0.02713 0.30863 0.0
H677 H 0.51845 0.01653 0.26818 0.0
H678 H 0.52641 0.00691 0.16807 0.0
H679 H 0.52134 0.01896 0.20546 0.0
H680 H 0.60648 0.02634 0.26129 0.0
H681 H 0.60121 0.03807 0.2991 0.0
H682 H 0.59187 0.99853 0.23535 0.0
H683 H 0.57644 0.98811 0.19465 0.0
C684 C 0.01616 0.58902 0.23709 0.0
C685 C 0.02242 0.57652 0.22138 0.0
C686 C 0.00232 0.55168 0.27045 0.0
C687 C 0.99462 0.56342 0.28345 0.0
N688 N 0.99127 0.5916 0.2734 0.0
N689 N 0.01838 0.54447 0.21737 0.0
C690 C 0.00071 0.58164 0.26516 0.0
C691 C 0.01462 0.55741 0.23643 0.0
N692 N 0.02549 0.60816 0.22662 0.0
N693 N 0.99858 0.53548 0.29155 0.0
H694 H 0.02693 0.54794 0.19174 0.0
H695 H 0.01145 0.5298 0.22456 0.0
H696 H 0.99002 0.531 0.31724 0.0
H697 H 0.00549 0.52757 0.28588 0.0
H698 H 0.02291 0.61834 0.24054 0.0
H699 H 0.03709 0.61427 0.20668 0.0
H700 H 0.99376 0.60393 0.25774 0.0
H701 H 0.97965 0.58655 0.29322 0.0
C702 C 0.43923 0.45007 0.26699 0.0
C703 C 0.42753 0.43121 0.283 0.0
C704 C 0.40171 0.42567 0.23594 0.0
C705 C 0.41435 0.44346 0.21657 0.0
N706 N 0.44669 0.47079 0.20909 0.0
N707 N 0.39922 0.39943 0.27649 0.0
C708 C 0.43356 0.4552 0.23085 0.0
C709 C 0.40918 0.41853 0.26581 0.0
N710 N 0.4554 0.46336 0.28698 0.0
N711 N 0.38239 0.41593 0.22709 0.0
H712 H 0.40439 0.39338 0.29728 0.0
H713 H 0.38677 0.38922 0.26169 0.0
H714 H 0.37615 0.42096 0.2064 0.0
H715 H 0.37229 0.40393 0.24327 0.0
H716 H 0.46333 0.47789 0.27866 0.0
H717 H 0.45974 0.46041 0.31422 0.0
H718 H 0.46137 0.47862 0.21615 0.0
H719 H 0.44339 0.4747 0.18173 0.0
C720 C 0.98455 0.23191 0.26532 0.0
C721 C 0.99662 0.25142 0.27723 0.0
C722 C 0.96832 0.25213 0.30399 0.0
C723 C 0.95607 0.23363 0.28706 0.0
N724 N 0.9523 0.20683 0.24675 0.0
N725 N 0.9999 0.28112 0.30356 0.0
C726 C 0.96411 0.22366 0.26668 0.0
C727 C 0.98852 0.26179 0.29575 0.0
N728 N 0.99265 0.2211 0.25358 0.0
N729 N 0.9607 0.26026 0.32876 0.0
H730 H 0.01473 0.28883 0.29781 0.0
H731 H 0.99437 0.28989 0.31269 0.0
H732 H 0.94599 0.25349 0.33576 0.0
H733 H 0.96915 0.27277 0.3453 0.0
H734 H 0.98462 0.20624 0.24848 0.0
H735 H 0.00759 0.22661 0.25277 0.0
H736 H 0.95748 0.20013 0.22764 0.0
H737 H 0.93726 0.20039 0.24639 0.0
C738 C 0.75458 0.74224 0.2246 0.0
C739 C 0.75696 0.73903 0.26541 0.0
C740 C 0.73792 0.75408 0.28548 0.0
C741 C 0.73655 0.75834 0.24482 0.0
N742 N 0.74788 0.76101 0.17697 0.0
N743 N 0.75527 0.74636 0.33475 0.0
C744 C 0.74623 0.75382 0.21475 0.0
C745 C 0.74997 0.74634 0.29589 0.0
N746 N 0.75925 0.73339 0.19516 0.0
N747 N 0.72693 0.75638 0.31395 0.0
H748 H 0.76451 0.74128 0.3434 0.0
H749 H 0.75218 0.75324 0.35766 0.0
H750 H 0.71756 0.76161 0.30766 0.0
H751 H 0.72576 0.75144 0.3432 0.0
H752 H 0.75576 0.73351 0.16521 0.0
H753 H 0.765 0.72442 0.20088 0.0
H754 H 0.75642 0.75976 0.15489 0.0
H755 H 0.74241 0.76999 0.16889 0.0
C756 C 0.2938 0.01651 0.2169 0.0
C757 C 0.30452 0.01805 0.2519 0.0
C758 C 0.30433 0.98815 0.23391 0.0
C759 C 0.29185 0.98554 0.20137 0.0
N760 N 0.27135 0.99517 0.16698 0.0
N761 N 0.3164 0.00315 0.29828 0.0
C762 C 0.28565 0.99915 0.1942 0.0
C763 C 0.30882 0.00327 0.26171 0.0
N764 N 0.29201 0.03187 0.20441 0.0
N765 N 0.31253 0.97671 0.2375 0.0
H766 H 0.31935 0.01359 0.32011 0.0
H767 H 0.31791 0.99162 0.30849 0.0
H768 H 0.31 0.96576 0.21726 0.0
H769 H 0.32332 0.97935 0.25825 0.0
H770 H 0.2861 0.03223 0.17688 0.0
H771 H 0.29813 0.04501 0.21968 0.0
H772 H 0.2649 0.00367 0.16362 0.0
H773 H 0.26451 0.98234 0.15061 0.0
C774 C 0.04452 0.74689 0.74569 0.0
C775 C 0.04705 0.74348 0.70507 0.0
C776 C 0.01241 0.73056 0.69314 0.0
C777 C 0.00948 0.7315 0.73473 0.0
N778 N 0.02243 0.73794 0.80174 0.0
N779 N 0.03274 0.72875 0.64169 0.0
C780 C 0.02546 0.73905 0.76138 0.0
C781 C 0.03083 0.73449 0.6791 0.0
N782 N 0.06031 0.75814 0.76897 0.0
N783 N 0.99777 0.72655 0.66681 0.0
H784 H 0.04583 0.73078 0.63044 0.0
H785 H 0.02097 0.72025 0.62326 0.0
H786 H 0.9842 0.72414 0.67576 0.0
H787 H 0.99971 0.72763 0.63593 0.0
H788 H 0.05931 0.76275 0.79754 0.0
H789 H 0.07448 0.76447 0.75831 0.0
H790 H 0.03336 0.74125 0.82258 0.0
H791 H 0.0087 0.73206 0.81453 0.0
C792 C 0.29759 0.28424 0.82199 0.0
C793 C 0.30001 0.2715 0.79612 0.0
C794 C 0.28102 0.27631 0.74435 0.0
C795 C 0.27748 0.28795 0.77128 0.0
N796 N 0.27856 0.29928 0.83859 0.0
N797 N 0.29063 0.25208 0.73622 0.0
C798 C 0.28462 0.2908 0.81099 0.0
C799 C 0.29071 0.26655 0.7583 0.0
N800 N 0.30839 0.29091 0.85609 0.0
N801 N 0.27596 0.2753 0.70502 0.0
H802 H 0.29727 0.24435 0.74579 0.0
H803 H 0.28242 0.24648 0.71037 0.0
H804 H 0.26901 0.28237 0.69347 0.0
H805 H 0.28015 0.26883 0.68315 0.0
H806 H 0.30878 0.30189 0.87366 0.0
H807 H 0.31839 0.28685 0.86499 0.0
H808 H 0.28169 0.2999 0.86896 0.0
H809 H 0.26878 0.30396 0.83188 0.0
C810 C 0.69372 0.99201 0.6798 0.0
C811 C 0.6873 0.97853 0.71183 0.0
C812 C 0.69996 0.00518 0.76014 0.0
C813 C 0.70765 0.01866 0.72816 0.0
N814 N 0.71563 0.02487 0.65814 0.0
N815 N 0.68817 0.97222 0.78211 0.0
C816 C 0.70564 0.01206 0.68812 0.0
C817 C 0.69157 0.9851 0.75193 0.0
N818 N 0.68769 0.98581 0.64163 0.0
N819 N 0.69976 0.01143 0.7981 0.0
H820 H 0.68241 0.95742 0.77719 0.0
H821 H 0.69284 0.97642 0.81136 0.0
H822 H 0.70537 0.02597 0.80543 0.0
H823 H 0.69241 0.00207 0.82168 0.0
H824 H 0.69016 0.99521 0.61786 0.0
H825 H 0.67869 0.9713 0.63421 0.0
H826 H 0.71631 0.02062 0.62905 0.0
H827 H 0.72481 0.03963 0.66316 0.0
C828 C 0.65966 0.58302 0.52413 0.0
C829 C 0.67667 0.59027 0.54774 0.0
C830 C 0.65683 0.58039 0.60845 0.0
C831 C 0.64018 0.57564 0.58507 0.0
N832 N 0.62633 0.5756 0.52083 0.0
N833 N 0.69178 0.59888 0.61279 0.0
C834 C 0.6417 0.57773 0.5429 0.0
C835 C 0.67537 0.58972 0.59006 0.0
N836 N 0.66051 0.58055 0.4839 0.0
N837 N 0.65489 0.57538 0.64796 0.0
H838 H 0.70567 0.60626 0.6006 0.0
H839 H 0.69154 0.60073 0.64356 0.0
H840 H 0.6415 0.56801 0.66232 0.0
H841 H 0.66633 0.57673 0.66539 0.0
H842 H 0.64824 0.57348 0.46593 0.0
H843 H 0.67329 0.58372 0.46914 0.0
H844 H 0.62735 0.57905 0.49056 0.0
H845 H 0.61302 0.57219 0.53338 0.0
C846 C 0.4065 0.05232 0.63939 0.0
C847 C 0.41665 0.07165 0.62495 0.0
C848 C 0.44715 0.07115 0.62668 0.0
C849 C 0.43718 0.05225 0.64332 0.0
N850 N 0.40833 0.02647 0.67359 0.0
N851 N 0.44697 0.10092 0.61305 0.0
C852 C 0.41712 0.04331 0.65211 0.0
C853 C 0.4371 0.08151 0.62108 0.0
N854 N 0.3867 0.04219 0.63906 0.0
N855 N 0.46593 0.07886 0.61437 0.0
H856 H 0.44009 0.10903 0.60927 0.0
H857 H 0.46201 0.10934 0.61397 0.0
H858 H 0.47379 0.0717 0.6175 0.0
H859 H 0.47322 0.09162 0.5979 0.0
H860 H 0.37857 0.0274 0.64484 0.0
H861 H 0.37831 0.04814 0.62974 0.0
H862 H 0.39425 0.02034 0.68457 0.0
H863 H 0.41569 0.01954 0.68374 0.0
C864 C 0.94945 0.35152 0.53169 0.0
C865 C 0.95763 0.35536 0.57056 0.0
C866 C 0.95261 0.32244 0.57418 0.0
C867 C 0.94273 0.31805 0.53704 0.0
N868 N 0.92779 0.32714 0.48502 0.0
N869 N 0.96288 0.3431 0.63253 0.0
C870 C 0.94001 0.33223 0.51705 0.0
C871 C 0.95805 0.34043 0.59292 0.0
N872 N 0.95138 0.36635 0.50799 0.0
N873 N 0.95755 0.30985 0.59085 0.0
H874 H 0.96633 0.35581 0.64782 0.0
H875 H 0.9615 0.332 0.65116 0.0
H876 H 0.95426 0.29671 0.57768 0.0
H877 H 0.96655 0.31329 0.61569 0.0
H878 H 0.94748 0.36457 0.47792 0.0
H879 H 0.95861 0.38078 0.51711 0.0
H880 H 0.92378 0.33647 0.47192 0.0
H881 H 0.92003 0.31302 0.47415 0.0
C882 C 0.66268 0.0661 0.09229 0.0
C883 C 0.6474 0.0488 0.0758 0.0
C884 C 0.67075 0.04437 0.03596 0.0
C885 C 0.68587 0.06245 0.05005 0.0
N886 N 0.69602 0.09208 0.08646 0.0
N887 N 0.63625 0.02261 0.02829 0.0
C888 C 0.6818 0.07373 0.07695 0.0
C889 C 0.65125 0.03836 0.04634 0.0
N890 N 0.65894 0.07516 0.12281 0.0
N891 N 0.67511 0.03241 0.01463 0.0
H892 H 0.62182 0.01696 0.03669 0.0
H893 H 0.63796 0.0159 0.00318 0.0
H894 H 0.68921 0.03601 0.0071 0.0
H895 H 0.66498 0.01816 0.00744 0.0
H896 H 0.66971 0.0865 0.1393 0.0
H897 H 0.645 0.07052 0.13354 0.0
H898 H 0.69355 0.10182 0.10249 0.0
H899 H 0.7101 0.09825 0.07533 0.0
C900 C 0.98821 0.62829 0.03495 0.0
C901 C 0.9869 0.62473 0.07672 0.0
C902 C 0.96439 0.6371 0.08281 0.0
C903 C 0.96817 0.64344 0.04249 0.0
N904 N 0.98591 0.64739 0.98131 0.0
N905 N 0.97582 0.62829 0.14173 0.0
C906 C 0.98055 0.63952 0.01866 0.0
C907 C 0.97541 0.62966 0.10105 0.0
N908 N 0.99634 0.62049 0.01066 0.0
N909 N 0.94992 0.63776 0.10342 0.0
H910 H 0.98402 0.62335 0.15656 0.0
H911 H 0.96942 0.63374 0.16097 0.0
H912 H 0.94122 0.64269 0.0907 0.0
H913 H 0.94523 0.63156 0.13156 0.0
H914 H 0.99595 0.62098 0.97958 0.0
H915 H 0.0017 0.61179 0.0214 0.0
H916 H 0.99662 0.64681 0.96456 0.0
H917 H 0.98096 0.656 0.96835 0.0
C918 C 0.37261 0.31531 0.15307 0.0
C919 C 0.36396 0.30881 0.11495 0.0
C920 C 0.37724 0.34247 0.09329 0.0
C921 C 0.3836 0.34878 0.1329 0.0
N922 N 0.38488 0.34103 0.20219 0.0
N923 N 0.35536 0.31606 0.05058 0.0
C924 C 0.38073 0.33517 0.16328 0.0
C925 C 0.36563 0.32234 0.08539 0.0
N926 N 0.37359 0.3026 0.17909 0.0
N927 N 0.38278 0.35567 0.06294 0.0
H928 H 0.34634 0.30147 0.04379 0.0
H929 H 0.35436 0.32533 0.03001 0.0
H930 H 0.39159 0.37053 0.06741 0.0
H931 H 0.38027 0.35179 0.0329 0.0
H932 H 0.38148 0.30689 0.20561 0.0
H933 H 0.36813 0.28801 0.17238 0.0
H934 H 0.38104 0.33142 0.22609 0.0
H935 H 0.39061 0.3554 0.21109 0.0
C936 C 0.32324 0.9235 0.92104 0.0
C937 C 0.33086 0.94084 0.89844 0.0
C938 C 0.29917 0.9389 0.90018 0.0
C939 C 0.29102 0.92029 0.91793 0.0
N940 N 0.29474 0.89361 0.94084 0.0
N941 N 0.32548 0.96374 0.86134 0.0
C942 C 0.30292 0.91228 0.92748 0.0
C943 C 0.31871 0.9483 0.88683 0.0
N944 N 0.33551 0.91801 0.93726 0.0
N945 N 0.28838 0.94783 0.89706 0.0
H946 H 0.3396 0.97094 0.8503 0.0
H947 H 0.31663 0.96838 0.8483 0.0
H948 H 0.27409 0.9415 0.90704 0.0
H949 H 0.29414 0.96221 0.88825 0.0
H950 H 0.33105 0.90662 0.95744 0.0
H951 H 0.35051 0.92602 0.93359 0.0
H952 H 0.30241 0.88628 0.94393 0.0
H953 H 0.2799 0.88481 0.94565 0.0
C954 C 0.07083 0.42027 0.96461 0.0
C955 C 0.07174 0.42017 0.92226 0.0
C956 C 0.0856 0.39882 0.92528 0.0
C957 C 0.08607 0.40014 0.9676 0.0
N958 N 0.08342 0.4158 0.02706 0.0
N959 N 0.08414 0.41318 0.86258 0.0
C960 C 0.07996 0.41197 0.98715 0.0
C961 C 0.08037 0.41058 0.90265 0.0
N962 N 0.06047 0.4274 0.98338 0.0
N963 N 0.08919 0.38567 0.90667 0.0
H964 H 0.08096 0.42208 0.84511 0.0
H965 H 0.0922 0.40814 0.84752 0.0
H966 H 0.09267 0.37645 0.92206 0.0
H967 H 0.08694 0.38263 0.87623 0.0
H968 H 0.05757 0.42585 0.01394 0.0
H969 H 0.05319 0.43325 0.96808 0.0
H970 H 0.08107 0.4259 0.04197 0.0
H971 H 0.09052 0.41038 0.04444 0.0
C972 C 0.57062 0.64717 0.89394 0.0
C973 C 0.56683 0.63438 0.92658 0.0
C974 C 0.58128 0.66209 0.97217 0.0
C975 C 0.58785 0.67486 0.9389 0.0
N976 N 0.59115 0.67931 0.86728 0.0
N977 N 0.5712 0.62986 0.99646 0.0
C978 C 0.58305 0.66738 0.89949 0.0
C979 C 0.57274 0.64185 0.96574 0.0
N980 N 0.56191 0.64008 0.85786 0.0
N981 N 0.58269 0.66925 0.0099 0.0
H982 H 0.5655 0.615 0.99304 0.0
H983 H 0.57728 0.63493 0.02454 0.0
H984 H 0.58828 0.68395 0.01573 0.0
H985 H 0.57642 0.66045 0.03481 0.0
H986 H 0.56266 0.64892 0.83418 0.0
H987 H 0.55222 0.62541 0.85296 0.0
H988 H 0.58978 0.6742 0.83813 0.0
H989 H 0.60073 0.69414 0.86982 0.0
C990 C 0.33978 0.37865 0.46831 0.0
C991 C 0.34166 0.37898 0.42611 0.0
C992 C 0.3063 0.36102 0.4196 0.0
C993 C 0.30458 0.35826 0.46162 0.0
N994 N 0.31997 0.36207 0.52582 0.0
N995 N 0.32674 0.36802 0.36134 0.0
C996 C 0.32138 0.36654 0.48606 0.0
C997 C 0.32493 0.36963 0.40158 0.0
N998 N 0.35547 0.39033 0.49144 0.0
N999 N 0.29018 0.35592 0.39698 0.0
H1000 H 0.34007 0.37377 0.34687 0.0
H1001 H 0.31504 0.35948 0.34279 0.0
H1002 H 0.27633 0.34996 0.40925 0.0
H1003 H 0.29076 0.35939 0.36681 0.0
H1004 H 0.35454 0.39216 0.52203 0.0
H1005 H 0.3691 0.39973 0.47946 0.0
H1006 H 0.33198 0.36596 0.54397 0.0
H1007 H 0.30687 0.35294 0.54002 0.0
C1008 C 0.61791 0.96032 0.42986 0.0
C1009 C 0.6119 0.94168 0.41381 0.0
C1010 C 0.58671 0.94332 0.37472 0.0
C1011 C 0.59183 0.96131 0.39302 0.0
N1012 N 0.60936 0.98485 0.44445 0.0
N1013 N 0.58825 0.91373 0.3773 0.0
C1014 C 0.60658 0.9692 0.42251 0.0
C1015 C 0.59561 0.93267 0.38804 0.0
N1016 N 0.63497 0.97 0.45044 0.0
N1017 N 0.57397 0.93679 0.34347 0.0
H1018 H 0.59421 0.90539 0.38694 0.0
H1019 H 0.57523 0.90577 0.36202 0.0
H1020 H 0.56721 0.94421 0.3327 0.0
H1021 H 0.57134 0.92491 0.32602 0.0
H1022 H 0.64112 0.98446 0.45886 0.0
H1023 H 0.64394 0.96423 0.45594 0.0
H1024 H 0.61846 0.98995 0.46922 0.0
H1025 H 0.60115 0.99161 0.44041 0.0
C1026 C 0.05049 0.6599 0.44224 0.0
C1027 C 0.04424 0.65426 0.40228 0.0
C1028 C 0.06634 0.68741 0.37965 0.0
C1029 C 0.07052 0.69352 0.42004 0.0
N1030 N 0.0643 0.68606 0.49033 0.0
N1031 N 0.04388 0.66331 0.33348 0.0
C1032 C 0.06208 0.67989 0.45156 0.0
C1033 C 0.05161 0.66816 0.37102 0.0
N1034 N 0.04585 0.64612 0.4711 0.0
N1035 N 0.07684 0.69983 0.34951 0.0
H1036 H 0.03276 0.64951 0.32591 0.0
H1037 H 0.04722 0.67343 0.31074 0.0
H1038 H 0.08804 0.71394 0.35468 0.0
H1039 H 0.07579 0.69556 0.31977 0.0
H1040 H 0.05166 0.64929 0.49981 0.0
H1041 H 0.03772 0.63131 0.46526 0.0
H1042 H 0.05669 0.67696 0.51407 0.0
H1043 H 0.0724 0.70058 0.49852 0.0
C1044 C 0.1369 0.27636 0.46097 0.0
C1045 C 0.15023 0.27073 0.44743 0.0
C1046 C 0.14049 0.27138 0.37822 0.0
C1047 C 0.12555 0.27466 0.39218 0.0
N1048 N 0.10716 0.27656 0.44765 0.0
N1049 N 0.16196 0.25905 0.39372 0.0
C1050 C 0.1231 0.27617 0.43381 0.0
C1051 C 0.15131 0.2672 0.40617 0.0
N1052 N 0.13786 0.28263 0.49936 0.0
N1053 N 0.14491 0.27302 0.33842 0.0
H1054 H 0.16966 0.25519 0.41324 0.0
H1055 H 0.16157 0.2543 0.36455 0.0
H1056 H 0.13775 0.27664 0.31701 0.0
H1057 H 0.15698 0.27276 0.3272 0.0
H1058 H 0.12981 0.2888 0.50958 0.0
H1059 H 0.1481 0.28352 0.51993 0.0
H1060 H 0.10364 0.27558 0.47788 0.0
H1061 H 0.09639 0.27588 0.42892 0.0
C1062 C 0.71695 0.86438 0.3551 0.0
C1063 C 0.713 0.87903 0.34227 0.0
C1064 C 0.71256 0.86922 0.27266 0.0
C1065 C 0.71899 0.85636 0.28515 0.0
N1066 N 0.73087 0.84442 0.3381 0.0
N1067 N 0.711 0.89802 0.28805 0.0
C1068 C 0.72212 0.85463 0.32637 0.0
C1069 C 0.71183 0.88216 0.30082 0.0
N1070 N 0.7151 0.85928 0.39453 0.0
N1071 N 0.70644 0.86861 0.23426 0.0
H1072 H 0.71115 0.90832 0.30745 0.0
H1073 H 0.7122 0.90203 0.25808 0.0
H1074 H 0.70614 0.85892 0.21296 0.0
H1075 H 0.69976 0.87629 0.22474 0.0
H1076 H 0.71587 0.84736 0.40488 0.0
H1077 H 0.71081 0.86569 0.41638 0.0
H1078 H 0.73533 0.84442 0.36737 0.0
H1079 H 0.73547 0.83754 0.31806 0.0
C1080 C 0.17808 0.87172 0.33789 0.0
C1081 C 0.15861 0.8625 0.32421 0.0
C1082 C 0.16962 0.87536 0.25656 0.0
C1083 C 0.18912 0.8841 0.26995 0.0
N1084 N 0.21241 0.89006 0.32184 0.0
N1085 N 0.13541 0.85436 0.271 0.0
C1086 C 0.19348 0.88211 0.31023 0.0
C1087 C 0.15427 0.86399 0.28363 0.0
N1088 N 0.18176 0.87061 0.37747 0.0
N1089 N 0.16584 0.87807 0.21791 0.0
H1090 H 0.12368 0.8471 0.29035 0.0
H1091 H 0.13116 0.85281 0.24124 0.0
H1092 H 0.17661 0.88501 0.19638 0.0
H1093 H 0.15215 0.87417 0.20705 0.0
H1094 H 0.19529 0.87863 0.39074 0.0
H1095 H 0.17101 0.86207 0.39803 0.0
H1096 H 0.21685 0.88748 0.34924 0.0
H1097 H 0.22405 0.89886 0.30329 0.0
C1098 C 0.29098 0.14005 0.2415 0.0
C1099 C 0.29613 0.12648 0.22713 0.0
C1100 C 0.29588 0.13707 0.15841 0.0
C1101 C 0.28849 0.1489 0.17244 0.0
N1102 N 0.27571 0.15906 0.22687 0.0
N1103 N 0.30006 0.10951 0.17136 0.0
C1104 C 0.28518 0.14975 0.2139 0.0
C1105 C 0.29771 0.12431 0.18541 0.0
N1106 N 0.29228 0.14422 0.28139 0.0
N1107 N 0.30182 0.13849 0.11959 0.0
H1108 H 0.30101 0.09953 0.18998 0.0
H1109 H 0.29919 0.10599 0.14117 0.0
H1110 H 0.3011 0.14796 0.09905 0.0
H1111 H 0.3092 0.13172 0.10883 0.0
H1112 H 0.29069 0.15546 0.29302 0.0
H1113 H 0.29685 0.13773 0.3025 0.0
H1114 H 0.27105 0.15831 0.25624 0.0
H1115 H 0.27084 0.16601 0.20765 0.0
C1116 C 0.81146 0.1093 0.13239 0.0
C1117 C 0.80995 0.11137 0.09067 0.0
C1118 C 0.81574 0.14431 0.10038 0.0
C1119 C 0.81612 0.14187 0.14235 0.0
N1120 N 0.81247 0.12172 0.19918 0.0
N1121 N 0.80722 0.12913 0.03513 0.0
C1122 C 0.81336 0.12422 0.15864 0.0
C1123 C 0.81125 0.12845 0.07466 0.0
N1124 N 0.81175 0.09337 0.14666 0.0
N1125 N 0.81966 0.16182 0.08503 0.0
H1126 H 0.80371 0.11773 0.01538 0.0
H1127 H 0.80571 0.14022 0.02242 0.0
H1128 H 0.82167 0.17345 0.10269 0.0
H1129 H 0.8221 0.16529 0.0548 0.0
H1130 H 0.81486 0.09182 0.17617 0.0
H1131 H 0.81016 0.08211 0.12823 0.0
H1132 H 0.80833 0.10852 0.21302 0.0
H1133 H 0.81485 0.13268 0.21928 0.0
C1134 C 0.87754 0.71228 0.18124 0.0
C1135 C 0.86285 0.71482 0.16319 0.0
C1136 C 0.88022 0.72242 0.09932 0.0
C1137 C 0.89586 0.72194 0.11847 0.0
N1138 N 0.91097 0.71983 0.17931 0.0
N1139 N 0.8518 0.72572 0.10702 0.0
C1140 C 0.89496 0.71779 0.15991 0.0
C1141 C 0.8646 0.72081 0.12272 0.0
N1142 N 0.87456 0.70385 0.21811 0.0
N1143 N 0.8799 0.72365 0.05859 0.0
H1144 H 0.84036 0.72509 0.12335 0.0
H1145 H 0.8536 0.73216 0.07907 0.0
H1146 H 0.89089 0.7245 0.04027 0.0
H1147 H 0.86791 0.72195 0.04274 0.0
H1148 H 0.88389 0.69973 0.23083 0.0
H1149 H 0.86185 0.69921 0.23444 0.0
H1150 H 0.91178 0.71906 0.21027 0.0
H1151 H 0.92411 0.72412 0.16493 0.0
C1152 C 0.82036 0.62465 0.61198 0.0
C1153 C 0.80328 0.62611 0.61131 0.0
C1154 C 0.81833 0.65299 0.65872 0.0
C1155 C 0.83442 0.65001 0.66304 0.0
N1156 N 0.84705 0.62836 0.65259 0.0
N1157 N 0.78405 0.63743 0.64549 0.0
C1158 C 0.83429 0.63436 0.64249 0.0
C1159 C 0.80161 0.63891 0.63836 0.0
N1160 N 0.8241 0.61514 0.58244 0.0
N1161 N 0.81924 0.66971 0.67136 0.0
H1162 H 0.77117 0.62644 0.63337 0.0
H1163 H 0.78206 0.6456 0.66736 0.0
H1164 H 0.83172 0.68144 0.68286 0.0
H1165 H 0.80827 0.67288 0.66552 0.0
H1166 H 0.83724 0.61532 0.58034 0.0
H1167 H 0.8153 0.60914 0.55751 0.0
H1168 H 0.84637 0.616 0.64041 0.0
H1169 H 0.85664 0.63422 0.67652 0.0
C1170 C 0.39361 0.19275 0.69249 0.0
C1171 C 0.39157 0.17533 0.70848 0.0
C1172 C 0.38963 0.18613 0.77606 0.0
C1173 C 0.39396 0.20441 0.76042 0.0
N1174 N 0.40374 0.22642 0.70435 0.0
N1175 N 0.39123 0.1569 0.7661 0.0
C1176 C 0.39693 0.20809 0.71876 0.0
C1177 C 0.39052 0.17238 0.75047 0.0
N1178 N 0.39163 0.19439 0.65232 0.0
N1179 N 0.38393 0.18159 0.81499 0.0
H1180 H 0.39235 0.14671 0.74851 0.0
H1181 H 0.39261 0.15519 0.79657 0.0
H1182 H 0.38265 0.19109 0.83451 0.0
H1183 H 0.37864 0.16775 0.8268 0.0
H1184 H 0.39094 0.20595 0.63959 0.0
H1185 H 0.38871 0.18331 0.63209 0.0
H1186 H 0.40814 0.2303 0.67484 0.0
H1187 H 0.40681 0.23821 0.7226 0.0
C1188 C 0.83912 0.20131 0.66827 0.0
C1189 C 0.83501 0.20318 0.62776 0.0
C1190 C 0.80021 0.18547 0.6423 0.0
C1191 C 0.80426 0.18217 0.6819 0.0
N1192 N 0.82731 0.18381 0.73067 0.0
N1193 N 0.81176 0.19387 0.57423 0.0
C1194 C 0.82366 0.18922 0.6944 0.0
C1195 C 0.81558 0.19438 0.61419 0.0
N1196 N 0.85768 0.21169 0.68222 0.0
N1197 N 0.7818 0.18085 0.63192 0.0
H1198 H 0.82261 0.19999 0.55258 0.0
H1199 H 0.79792 0.18583 0.56219 0.0
H1200 H 0.77014 0.17451 0.65171 0.0
H1201 H 0.77839 0.1849 0.60487 0.0
H1202 H 0.86125 0.21257 0.71238 0.0
H1203 H 0.86938 0.22084 0.66416 0.0
H1204 H 0.84103 0.18676 0.73961 0.0
H1205 H 0.81637 0.17481 0.75047 0.0
C1206 C 0.60302 0.7895 0.81969 0.0
C1207 C 0.6051 0.79572 0.8601 0.0
C1208 C 0.60554 0.82533 0.83854 0.0
C1209 C 0.60519 0.81991 0.79796 0.0
N1210 N 0.6083 0.79901 0.75004 0.0
N1211 N 0.61328 0.82175 0.9068 0.0
C1212 C 0.60535 0.80263 0.78855 0.0
C1213 C 0.60786 0.81432 0.86917 0.0
N1214 N 0.59779 0.77076 0.81094 0.0
N1215 N 0.60258 0.84031 0.84819 0.0
H1216 H 0.61572 0.81439 0.92979 0.0
H1217 H 0.61737 0.83601 0.91397 0.0
H1218 H 0.60004 0.84837 0.827 0.0
H1219 H 0.60065 0.84347 0.87747 0.0
H1220 H 0.59407 0.76499 0.78225 0.0
H1221 H 0.59526 0.76041 0.8327 0.0
H1222 H 0.61048 0.78761 0.74214 0.0
H1223 H 0.6106 0.80854 0.72656 0.0
C1224 C 0.14079 0.79215 0.75252 0.0
C1225 C 0.15685 0.78901 0.7525 0.0
C1226 C 0.16992 0.8095 0.81204 0.0
C1227 C 0.15318 0.81141 0.81357 0.0
N1228 N 0.12112 0.80205 0.78978 0.0
N1229 N 0.1846 0.79135 0.78672 0.0
C1230 C 0.13807 0.80184 0.78533 0.0
C1231 C 0.17089 0.7968 0.78347 0.0
N1232 N 0.12878 0.78696 0.72009 0.0
N1233 N 0.18496 0.81996 0.83765 0.0
H1234 H 0.18541 0.7816 0.76716 0.0
H1235 H 0.19398 0.79498 0.81093 0.0
H1236 H 0.18441 0.82876 0.86009 0.0
H1237 H 0.19844 0.82095 0.83497 0.0
H1238 H 0.11809 0.7907 0.71653 0.0
H1239 H 0.13066 0.78052 0.69475 0.0
H1240 H 0.10877 0.79348 0.77288 0.0
H1241 H 0.11885 0.80965 0.81249 0.0
C1242 C 0.22016 0.3877 0.89835 0.0
C1243 C 0.21451 0.38595 0.85761 0.0
C1244 C 0.18347 0.3827 0.87786 0.0
C1245 C 0.18833 0.38245 0.91862 0.0
N1246 N 0.20955 0.38017 0.96707 0.0
N1247 N 0.18898 0.37717 0.80924 0.0
C1248 C 0.20618 0.38362 0.92873 0.0
C1249 C 0.19563 0.3821 0.84752 0.0
N1250 N 0.23907 0.39419 0.90821 0.0
N1251 N 0.16782 0.38452 0.86791 0.0
H1252 H 0.19719 0.37593 0.78637 0.0
H1253 H 0.17465 0.37233 0.80121 0.0
H1254 H 0.1589 0.38577 0.88904 0.0
H1255 H 0.16488 0.38681 0.83871 0.0
H1256 H 0.24427 0.39765 0.93736 0.0
H1257 H 0.24998 0.39804 0.88703 0.0
H1258 H 0.2215 0.37893 0.97516 0.0
H1259 H 0.19943 0.37651 0.98998 0.0
C1260 C 0.95256 0.48056 0.44127 0.0
C1261 C 0.9474 0.49443 0.45343 0.0
C1262 C 0.94798 0.48572 0.52348 0.0
C1263 C 0.95083 0.47031 0.51098 0.0
N1264 N 0.95201 0.45068 0.45726 0.0
N1265 N 0.93633 0.50751 0.50565 0.0
C1266 C 0.9521 0.46707 0.46965 0.0
C1267 C 0.94406 0.4963 0.49444 0.0
N1268 N 0.95866 0.48071 0.40301 0.0
N1269 N 0.94978 0.4908 0.56292 0.0
H1270 H 0.93268 0.51508 0.48531 0.0
H1271 H 0.9317 0.50773 0.53467 0.0
H1272 H 0.95322 0.48381 0.58508 0.0
H1273 H 0.94985 0.50318 0.57306 0.0
H1274 H 0.96451 0.47223 0.39372 0.0
H1275 H 0.95974 0.49069 0.38154 0.0
H1276 H 0.95085 0.44663 0.42735 0.0
H1277 H 0.95111 0.44012 0.47693 0.0
C1278 C 0.50862 0.47012 0.45492 0.0
C1279 C 0.49353 0.45106 0.46357 0.0
C1280 C 0.50041 0.45732 0.53515 0.0
C1281 C 0.51717 0.47525 0.52603 0.0
N1282 N 0.53923 0.49712 0.47612 0.0
N1283 N 0.47736 0.42522 0.51178 0.0
C1284 C 0.52181 0.4813 0.48561 0.0
C1285 C 0.48996 0.4443 0.50368 0.0
N1286 N 0.51004 0.47781 0.41772 0.0
N1287 N 0.49407 0.45296 0.57375 0.0
H1288 H 0.46986 0.41496 0.48968 0.0
H1289 H 0.47584 0.41918 0.5401 0.0
H1290 H 0.50099 0.46237 0.59753 0.0
H1291 H 0.48085 0.44096 0.58154 0.0
H1292 H 0.51956 0.4923 0.41097 0.0
H1293 H 0.50033 0.47028 0.39472 0.0
H1294 H 0.54412 0.50088 0.44683 0.0
H1295 H 0.54968 0.50539 0.49736 0.0
C1296 C 0.52856 0.02786 0.54306 0.0
C1297 C 0.52485 0.00852 0.54232 0.0
C1298 C 0.53843 0.01352 0.47471 0.0
C1299 C 0.5441 0.03341 0.47731 0.0
N1300 N 0.54705 0.06031 0.51595 0.0
N1301 N 0.52889 0.98363 0.51026 0.0
C1302 C 0.53976 0.04081 0.51195 0.0
C1303 C 0.53042 0.00148 0.50883 0.0
N1304 N 0.52088 0.03369 0.57287 0.0
N1305 N 0.5401 0.00597 0.43922 0.0
H1306 H 0.52326 0.97437 0.53476 0.0
H1307 H 0.53478 0.97866 0.48866 0.0
H1308 H 0.54567 0.01426 0.41338 0.0
H1309 H 0.5343 0.99119 0.43432 0.0
H1310 H 0.52132 0.04696 0.57279 0.0
H1311 H 0.5125 0.02455 0.596 0.0
H1312 H 0.5462 0.06677 0.54234 0.0
H1313 H 0.55542 0.0703 0.49399 0.0
C1314 C 0.47736 0.95782 0.99411 0.0
C1315 C 0.47794 0.96165 0.03571 0.0
C1316 C 0.45019 0.96692 0.02884 0.0
C1317 C 0.44916 0.96236 0.98757 0.0
N1318 N 0.46073 0.95255 0.93056 0.0
N1319 N 0.46459 0.96859 0.09385 0.0
C1320 C 0.46247 0.95754 0.97012 0.0
C1321 C 0.46423 0.96583 0.05342 0.0
N1322 N 0.49122 0.9546 0.97754 0.0
N1323 N 0.43785 0.97251 0.04433 0.0
H1324 H 0.47536 0.96912 0.11239 0.0
H1325 H 0.45386 0.96953 0.10965 0.0
H1326 H 0.42669 0.97238 0.02784 0.0
H1327 H 0.43904 0.97813 0.07289 0.0
H1328 H 0.49326 0.95408 0.94698 0.0
H1329 H 0.50145 0.9532 0.99437 0.0
H1330 H 0.46824 0.9466 0.91679 0.0
H1331 H 0.45105 0.95362 0.9112 0.0
C1332 C 0.06315 0.54438 0.98187 0.0
C1333 C 0.05849 0.52536 0.99302 0.0
C1334 C 0.05819 0.5336 0.06349 0.0
C1335 C 0.06533 0.55322 0.05261 0.0
N1336 N 0.07823 0.578 0.00159 0.0
N1337 N 0.05544 0.503 0.04518 0.0
C1338 C 0.06878 0.55884 0.01181 0.0
C1339 C 0.05702 0.52023 0.03405 0.0
N1340 N 0.06151 0.54852 0.94291 0.0
N1341 N 0.05182 0.52751 0.10155 0.0
H1342 H 0.05524 0.49303 0.02476 0.0
H1343 H 0.05636 0.49949 0.07479 0.0
H1344 H 0.05182 0.53669 0.12375 0.0
H1345 H 0.04466 0.51297 0.10993 0.0
H1346 H 0.06283 0.56163 0.93387 0.0
H1347 H 0.05684 0.5382 0.92021 0.0
H1348 H 0.08289 0.58289 0.9726 0.0
H1349 H 0.08318 0.58913 0.02256 0.0
C1350 C 0.4329 0.50574 0.99336 0.0
C1351 C 0.43721 0.50991 0.0346 0.0
C1352 C 0.467 0.53977 0.01696 0.0
C1353 C 0.4638 0.53446 0.97597 0.0
N1354 N 0.44572 0.51006 0.92623 0.0
N1355 N 0.46064 0.52864 0.08547 0.0
C1356 C 0.44731 0.51677 0.96442 0.0
C1357 C 0.45492 0.52629 0.04639 0.0
N1358 N 0.41478 0.49188 0.98157 0.0
N1359 N 0.48095 0.55801 0.02786 0.0
H1360 H 0.45257 0.51874 0.10781 0.0
H1361 H 0.47433 0.53929 0.09491 0.0
H1362 H 0.48962 0.56868 0.00729 0.0
H1363 H 0.48251 0.56318 0.057 0.0
H1364 H 0.41036 0.48971 0.9518 0.0
H1365 H 0.40353 0.48392 0.00158 0.0
H1366 H 0.43497 0.49631 0.91741 0.0
H1367 H 0.45625 0.51736 0.90441 0.0
loop_
_geom_bond_atom_site_label_1
_geom_bond_atom_site_label_2
_geom_bond_distance
_geom_bond_site_symmetry_2
_ccdc_geom_bond_type
O0 Cd1 2.300 . S
O0 C7 1.275 . S
Cd1 O0 2.300 . S
Cd1 O9 2.381 . S
Cd1 O10 2.378 . S
O2 Cd3 2.385 . S
O2 C7 1.255 . S
Cd3 O2 2.385 . S
Cd3 O4 2.317 . S
O4 Cd3 2.317 . S
O4 C5 1.232 . S
C5 O4 1.232 . S
C5 O6 1.218 . S
O6 C5 1.218 . S
C7 O0 1.275 . S
C7 O2 1.255 . S
C8 O9 1.258 . S
C8 O10 1.256 . S
O9 Cd1 2.381 . S
O9 C8 1.258 . S
O10 Cd1 2.378 . S
O10 C8 1.256 . S
O11 Cd12 2.300 . S
O11 C18 1.275 . S
Cd12 O11 2.300 . S
Cd12 O20 2.381 . S
Cd12 O21 2.378 . S
O13 Cd14 2.385 . S
O13 C18 1.255 . S
Cd14 O13 2.385 . S
Cd14 O15 2.317 . S
O15 Cd14 2.317 . S
O15 C16 1.232 . S
C16 O15 1.232 . S
C16 O17 1.218 . S
O17 C16 1.218 . S
C18 O11 1.275 . S
C18 O13 1.255 . S
C19 O20 1.258 . S
C19 O21 1.256 . S
O20 Cd12 2.381 . S
O20 C19 1.258 . S
O21 Cd12 2.378 . S
O21 C19 1.256 . S
O22 Cd23 2.300 . S
O22 C29 1.275 . S
Cd23 O22 2.300 . S
Cd23 O31 2.381 . S
Cd23 O32 2.378 . S
O24 Cd25 2.385 . S
O24 C29 1.255 . S
Cd25 O24 2.385 . S
Cd25 O26 2.317 . S
O26 Cd25 2.317 . S
O26 C27 1.232 . S
C27 O26 1.232 . S
C27 O28 1.218 . S
O28 C27 1.218 . S
C29 O22 1.275 . S
C29 O24 1.255 . S
C30 O31 1.258 . S
C30 O32 1.256 . S
O31 Cd23 2.381 . S
O31 C30 1.258 . S
O32 Cd23 2.378 . S
O32 C30 1.256 . S
O33 Cd34 2.300 . S
O33 C40 1.275 . S
Cd34 O33 2.300 . S
Cd34 O42 2.381 . S
Cd34 O43 2.378 . S
O35 Cd36 2.385 . S
O35 C40 1.255 . S
Cd36 O35 2.385 . S
Cd36 O37 2.317 . S
O37 Cd36 2.317 . S
O37 C38 1.232 . S
C38 O37 1.232 . S
C38 O39 1.218 . S
O39 C38 1.218 . S
C40 O33 1.275 . S
C40 O35 1.255 . S
C41 O42 1.258 . S
C41 O43 1.256 . S
O42 Cd34 2.381 . S
O42 C41 1.258 . S
O43 Cd34 2.378 . S
O43 C41 1.256 . S
O44 Cd45 2.300 . S
O44 C51 1.275 . S
Cd45 O44 2.300 . S
Cd45 O53 2.381 . S
Cd45 O54 2.378 . S
O46 Cd47 2.385 . S
O46 C51 1.255 . S
Cd47 O46 2.385 . S
Cd47 O48 2.317 . S
O48 Cd47 2.317 . S
O48 C49 1.232 . S
C49 O48 1.232 . S
C49 O50 1.218 . S
O50 C49 1.218 . S
C51 O44 1.275 . S
C51 O46 1.255 . S
C52 O53 1.258 . S
C52 O54 1.256 . S
O53 Cd45 2.381 . S
O53 C52 1.258 . S
O54 Cd45 2.378 . S
O54 C52 1.256 . S
O55 Cd56 2.300 . S
O55 C62 1.275 . S
Cd56 O55 2.300 . S
Cd56 O64 2.381 . S
Cd56 O65 2.378 . S
O57 Cd58 2.385 . S
O57 C62 1.255 . S
Cd58 O57 2.385 . S
Cd58 O59 2.317 . S
O59 Cd58 2.317 . S
O59 C60 1.232 . S
C60 O59 1.232 . S
C60 O61 1.218 . S
O61 C60 1.218 . S
C62 O55 1.275 . S
C62 O57 1.255 . S
C63 O64 1.258 . S
C63 O65 1.256 . S
O64 Cd56 2.381 . S
O64 C63 1.258 . S
O65 Cd56 2.378 . S
O65 C63 1.256 . S
O66 Cd67 2.300 . S
O66 C73 1.275 . S
Cd67 O66 2.300 . S
Cd67 O75 2.381 . S
Cd67 O76 2.378 . S
O68 Cd69 2.385 . S
O68 C73 1.255 . S
Cd69 O68 2.385 . S
Cd69 O70 2.317 . S
O70 Cd69 2.317 . S
O70 C71 1.232 . S
C71 O70 1.232 . S
C71 O72 1.218 . S
O72 C71 1.218 . S
C73 O66 1.275 . S
C73 O68 1.255 . S
C74 O75 1.258 . S
C74 O76 1.256 . S
O75 Cd67 2.381 . S
O75 C74 1.258 . S
O76 Cd67 2.378 . S
O76 C74 1.256 . S
O77 Cd78 2.300 . S
O77 C84 1.275 . S
Cd78 O77 2.300 . S
Cd78 O86 2.381 . S
Cd78 O87 2.378 . S
O79 Cd80 2.385 . S
O79 C84 1.255 . S
Cd80 O79 2.385 . S
Cd80 O81 2.317 . S
O81 Cd80 2.317 . S
O81 C82 1.232 . S
C82 O81 1.232 . S
C82 O83 1.218 . S
O83 C82 1.218 . S
C84 O77 1.275 . S
C84 O79 1.255 . S
C85 O86 1.258 . S
C85 O87 1.256 . S
O86 Cd78 2.381 . S
O86 C85 1.258 . S
O87 Cd78 2.378 . S
O87 C85 1.256 . S
O88 Cd89 2.300 . S
O88 C95 1.275 . S
Cd89 O88 2.300 . S
Cd89 O97 2.381 . S
Cd89 O98 2.378 . S
O90 Cd91 2.385 . S
O90 C95 1.255 . S
Cd91 O90 2.385 . S
Cd91 O92 2.317 . S
O92 Cd91 2.317 . S
O92 C93 1.232 . S
C93 O92 1.232 . S
C93 O94 1.218 . S
O94 C93 1.218 . S
C95 O88 1.275 . S
C95 O90 1.255 . S
C96 O97 1.258 . S
C96 O98 1.256 . S
O97 Cd89 2.381 . S
O97 C96 1.258 . S
O98 Cd89 2.378 . S
O98 C96 1.256 . S
O99 Cd100 2.300 . S
O99 C106 1.275 . S
Cd100 O99 2.300 . S
Cd100 O108 2.381 . S
Cd100 O109 2.378 . S
O101 Cd102 2.385 . S
O101 C106 1.255 . S
Cd102 O101 2.385 . S
Cd102 O103 2.317 . S
O103 Cd102 2.317 . S
O103 C104 1.232 . S
C104 O103 1.232 . S
C104 O105 1.218 . S
O105 C104 1.218 . S
C106 O99 1.275 . S
C106 O101 1.255 . S
C107 O108 1.258 . S
C107 O109 1.256 . S
O108 Cd100 2.381 . S
O108 C107 1.258 . S
O109 Cd100 2.378 . S
O109 C107 1.256 . S
O110 Cd111 2.300 . S
O110 C117 1.275 . S
Cd111 O110 2.300 . S
Cd111 O119 2.381 . S
Cd111 O120 2.378 . S
O112 Cd113 2.385 . S
O112 C117 1.255 . S
Cd113 O112 2.385 . S
Cd113 O114 2.317 . S
O114 Cd113 2.317 . S
O114 C115 1.232 . S
C115 O114 1.232 . S
C115 O116 1.218 . S
O116 C115 1.218 . S
C117 O110 1.275 . S
C117 O112 1.255 . S
C118 O119 1.258 . S
C118 O120 1.256 . S
O119 Cd111 2.381 . S
O119 C118 1.258 . S
O120 Cd111 2.378 . S
O120 C118 1.256 . S
O121 Cd122 2.300 . S
O121 C128 1.275 . S
Cd122 O121 2.300 . S
Cd122 O130 2.381 . S
Cd122 O131 2.378 . S
O123 Cd124 2.385 . S
O123 C128 1.255 . S
Cd124 O123 2.385 . S
Cd124 O125 2.317 . S
O125 Cd124 2.317 . S
O125 C126 1.232 . S
C126 O125 1.232 . S
C126 O127 1.218 . S
O127 C126 1.218 . S
C128 O121 1.275 . S
C128 O123 1.255 . S
C129 O130 1.258 . S
C129 O131 1.256 . S
O130 Cd122 2.381 . S
O130 C129 1.258 . S
O131 Cd122 2.378 . S
O131 C129 1.256 . S
O132 Cd133 2.300 . S
O132 C139 1.275 . S
Cd133 O132 2.300 . S
Cd133 O141 2.381 . S
Cd133 O142 2.378 . S
O134 Cd135 2.385 . S
O134 C139 1.255 . S
Cd135 O134 2.385 . S
Cd135 O136 2.317 . S
O136 Cd135 2.317 . S
O136 C137 1.232 . S
C137 O136 1.232 . S
C137 O138 1.218 . S
O138 C137 1.218 . S
C139 O132 1.275 . S
C139 O134 1.255 . S
C140 O141 1.258 . S
C140 O142 1.256 . S
O141 Cd133 2.381 . S
O141 C140 1.258 . S
O142 Cd133 2.378 . S
O142 C140 1.256 . S
O143 Cd144 2.300 . S
O143 C150 1.275 . S
Cd144 O143 2.300 . S
Cd144 O152 2.381 . S
Cd144 O153 2.378 . S
O145 Cd146 2.385 . S
O145 C150 1.255 . S
Cd146 O145 2.385 . S
Cd146 O147 2.317 . S
O147 Cd146 2.317 . S
O147 C148 1.232 . S
C148 O147 1.232 . S
C148 O149 1.218 . S
O149 C148 1.218 . S
C150 O143 1.275 . S
C150 O145 1.255 . S
C151 O152 1.258 . S
C151 O153 1.256 . S
O152 Cd144 2.381 . S
O152 C151 1.258 . S
O153 Cd144 2.378 . S
O153 C151 1.256 . S
O154 Cd155 2.300 . S
O154 C161 1.275 . S
Cd155 O154 2.300 . S
Cd155 O163 2.381 . S
Cd155 O164 2.378 . S
O156 Cd157 2.385 . S
O156 C161 1.255 . S
Cd157 O156 2.385 . S
Cd157 O158 2.317 . S
O158 Cd157 2.317 . S
O158 C159 1.232 . S
C159 O158 1.232 . S
C159 O160 1.218 . S
O160 C159 1.218 . S
C161 O154 1.275 . S
C161 O156 1.255 . S
C162 O163 1.258 . S
C162 O164 1.256 . S
O163 Cd155 2.381 . S
O163 C162 1.258 . S
O164 Cd155 2.378 . S
O164 C162 1.256 . S
O165 Cd166 2.300 . S
O165 C172 1.275 . S
Cd166 O165 2.300 . S
Cd166 O174 2.333 1_455 S
Cd166 O175 2.378 . S
O167 Cd168 2.385 . S
O167 C172 1.255 . S
Cd168 O167 2.385 . S
Cd168 O169 2.317 1_455 S
O169 Cd168 2.317 1_655 S
O169 C170 1.232 . S
C170 O169 1.232 . S
C170 O171 1.218 . S
O171 C170 1.218 . S
C172 O165 1.275 . S
C172 O167 1.255 . S
C173 O174 1.241 1_455 S
C173 O175 1.256 . S
O174 Cd166 2.333 1_655 S
O174 C173 1.241 1_655 S
O175 Cd166 2.378 . S
O175 C173 1.256 . S
O176 Cd177 2.300 . S
O176 C183 1.275 . S
Cd177 O176 2.300 . S
Cd177 O185 2.381 . S
Cd177 O186 2.378 . S
O178 Cd179 2.385 . S
O178 C183 1.255 . S
Cd179 O178 2.385 . S
Cd179 O180 2.317 . S
O180 Cd179 2.317 . S
O180 C181 1.232 . S
C181 O180 1.232 . S
C181 O182 1.218 . S
O182 C181 1.218 . S
C183 O176 1.275 . S
C183 O178 1.255 . S
C184 O185 1.258 . S
C184 O186 1.256 . S
O185 Cd177 2.381 . S
O185 C184 1.258 . S
O186 Cd177 2.378 . S
O186 C184 1.256 . S
O187 Cd188 2.300 . S
O187 C194 1.275 . S
Cd188 O187 2.300 . S
Cd188 O196 2.393 1_565 S
Cd188 O197 2.378 . S
O189 Cd190 2.385 . S
O189 C194 1.255 . S
Cd190 O189 2.385 . S
Cd190 O191 2.317 1_565 S
O191 Cd190 2.317 1_545 S
O191 C192 1.232 . S
C192 O191 1.232 . S
C192 O193 1.218 . S
O193 C192 1.218 . S
C194 O187 1.275 . S
C194 O189 1.255 . S
C195 O196 1.244 1_565 S
C195 O197 1.256 . S
O196 Cd188 2.393 1_545 S
O196 C195 1.244 1_545 S
O197 Cd188 2.378 . S
O197 C195 1.256 . S
O198 Cd199 2.300 1_565 S
O198 C205 1.275 1_565 S
Cd199 O198 2.300 1_545 S
Cd199 O207 2.381 1_545 S
Cd199 O208 2.378 . S
O200 Cd201 2.385 . S
O200 C205 1.255 . S
Cd201 O200 2.385 . S
Cd201 O202 2.317 . S
O202 Cd201 2.317 . S
O202 C203 1.232 . S
C203 O202 1.232 . S
C203 O204 1.218 . S
O204 C203 1.218 . S
C205 O198 1.275 1_545 S
C205 O200 1.255 . S
C206 O207 1.302 . S
C206 O208 1.217 1_565 S
O207 Cd199 2.381 1_565 S
O207 C206 1.302 . S
O208 Cd199 2.378 . S
O208 C206 1.217 1_545 S
O209 Cd210 2.300 1_455 S
O209 C216 1.275 1_455 S
Cd210 O209 2.300 1_655 S
Cd210 O218 2.381 1_655 S
Cd210 O219 2.378 . S
O211 Cd212 2.385 . S
O211 C216 1.255 . S
Cd212 O211 2.385 . S
Cd212 O213 2.317 . S
O213 Cd212 2.317 . S
O213 C214 1.232 . S
C214 O213 1.232 . S
C214 O215 1.218 . S
O215 C214 1.218 . S
C216 O209 1.275 1_655 S
C216 O211 1.255 . S
C217 O218 1.282 . S
C217 O219 1.194 1_455 S
O218 Cd210 2.381 1_455 S
O218 C217 1.282 . S
O219 Cd210 2.378 . S
O219 C217 1.194 1_655 S
O220 Cd221 2.300 . S
O220 C227 1.275 . S
Cd221 O220 2.300 . S
Cd221 O229 2.381 . S
Cd221 O230 2.378 . S
O222 Cd223 2.385 . S
O222 C227 1.255 . S
Cd223 O222 2.385 . S
Cd223 O224 2.317 . S
O224 Cd223 2.317 . S
O224 C225 1.232 . S
C225 O224 1.232 . S
C225 O226 1.218 . S
O226 C225 1.218 . S
C227 O220 1.275 . S
C227 O222 1.255 . S
C228 O229 1.258 . S
C228 O230 1.256 . S
O229 Cd221 2.381 . S
O229 C228 1.258 . S
O230 Cd221 2.378 . S
O230 C228 1.256 . S
O231 Cd232 2.300 . S
O231 C238 1.275 . S
Cd232 O231 2.300 . S
Cd232 O240 2.381 . S
Cd232 O241 2.378 . S
O233 Cd234 2.385 . S
O233 C238 1.255 . S
Cd234 O233 2.385 . S
Cd234 O235 2.317 . S
O235 Cd234 2.317 . S
O235 C236 1.232 . S
C236 O235 1.232 . S
C236 O237 1.218 . S
O237 C236 1.218 . S
C238 O231 1.275 . S
C238 O233 1.255 . S
C239 O240 1.258 . S
C239 O241 1.256 . S
O240 Cd232 2.381 . S
O240 C239 1.258 . S
O241 Cd232 2.378 . S
O241 C239 1.256 . S
O242 Cd243 2.300 . S
O242 C249 1.275 . S
Cd243 O242 2.300 . S
Cd243 O251 2.381 . S
Cd243 O252 2.378 . S
O244 Cd245 2.385 . S
O244 C249 1.255 . S
Cd245 O244 2.385 . S
Cd245 O246 2.317 . S
O246 Cd245 2.317 . S
O246 C247 1.232 . S
C247 O246 1.232 . S
C247 O248 1.218 . S
O248 C247 1.218 . S
C249 O242 1.275 . S
C249 O244 1.255 . S
C250 O251 1.258 . S
C250 O252 1.256 . S
O251 Cd243 2.381 . S
O251 C250 1.258 . S
O252 Cd243 2.378 . S
O252 C250 1.256 . S
O253 Cd254 2.300 . S
O253 C260 1.275 . S
Cd254 O253 2.300 . S
Cd254 O262 2.381 . S
Cd254 O263 2.378 . S
O255 Cd256 2.385 . S
O255 C260 1.255 . S
Cd256 O255 2.385 . S
Cd256 O257 2.317 . S
O257 Cd256 2.317 . S
O257 C258 1.232 . S
C258 O257 1.232 . S
C258 O259 1.218 . S
O259 C258 1.218 . S
C260 O253 1.275 . S
C260 O255 1.255 . S
C261 O262 1.258 . S
C261 O263 1.256 . S
O262 Cd254 2.381 . S
O262 C261 1.258 . S
O263 Cd254 2.378 . S
O263 C261 1.256 . S
O264 Cd265 2.300 . S
O264 C271 1.275 . S
Cd265 O264 2.300 . S
Cd265 O273 2.334 1_545 S
Cd265 O274 2.378 . S
O266 Cd267 2.385 . S
O266 C271 1.255 . S
Cd267 O266 2.385 . S
Cd267 O268 2.317 1_545 S
O268 Cd267 2.317 1_565 S
O268 C269 1.232 . S
C269 O268 1.232 . S
C269 O270 1.218 . S
O270 C269 1.218 . S
C271 O264 1.275 . S
C271 O266 1.255 . S
C272 O273 1.241 1_545 S
C272 O274 1.256 . S
O273 Cd265 2.334 1_565 S
O273 C272 1.241 1_565 S
O274 Cd265 2.378 . S
O274 C272 1.256 . S
O275 Cd276 2.300 . S
O275 C282 1.275 . S
Cd276 O275 2.300 . S
Cd276 O284 2.393 1_655 S
Cd276 O285 2.378 . S
O277 Cd278 2.385 . S
O277 C282 1.255 . S
Cd278 O277 2.385 . S
Cd278 O279 2.317 1_655 S
O279 Cd278 2.317 1_455 S
O279 C280 1.232 . S
C280 O279 1.232 . S
C280 O281 1.218 . S
O281 C280 1.218 . S
C282 O275 1.275 . S
C282 O277 1.255 . S
C283 O284 1.245 1_655 S
C283 O285 1.256 . S
O284 Cd276 2.393 1_455 S
O284 C283 1.245 1_455 S
O285 Cd276 2.378 . S
O285 C283 1.256 . S
O286 Cd287 2.300 . S
O286 C293 1.275 . S
Cd287 O286 2.300 . S
Cd287 O295 2.381 . S
Cd287 O296 2.378 . S
O288 Cd289 2.385 . S
O288 C293 1.255 . S
Cd289 O288 2.385 . S
Cd289 O290 2.317 . S
O290 Cd289 2.317 . S
O290 C291 1.232 . S
C291 O290 1.232 . S
C291 O292 1.218 . S
O292 C291 1.218 . S
C293 O286 1.275 . S
C293 O288 1.255 . S
C294 O295 1.258 . S
C294 O296 1.256 . S
O295 Cd287 2.381 . S
O295 C294 1.258 . S
O296 Cd287 2.378 . S
O296 C294 1.256 . S
O297 Cd298 2.300 . S
O297 C304 1.275 . S
Cd298 O297 2.300 . S
Cd298 O306 2.381 . S
Cd298 O307 2.378 . S
O299 Cd300 2.385 . S
O299 C304 1.255 . S
Cd300 O299 2.385 . S
Cd300 O301 2.317 . S
O301 Cd300 2.317 . S
O301 C302 1.232 . S
C302 O301 1.232 . S
C302 O303 1.218 . S
O303 C302 1.218 . S
C304 O297 1.275 . S
C304 O299 1.255 . S
C305 O306 1.258 . S
C305 O307 1.256 . S
O306 Cd298 2.381 . S
O306 C305 1.258 . S
O307 Cd298 2.378 . S
O307 C305 1.256 . S
O308 Cd309 2.300 . S
O308 C315 1.275 . S
Cd309 O308 2.300 . S
Cd309 O317 2.381 . S
Cd309 O318 2.378 . S
O310 Cd311 2.385 . S
O310 C315 1.255 . S
Cd311 O310 2.385 . S
Cd311 O312 2.317 . S
O312 Cd311 2.317 . S
O312 C313 1.232 . S
C313 O312 1.232 . S
C313 O314 1.218 . S
O314 C313 1.218 . S
C315 O308 1.275 . S
C315 O310 1.255 . S
C316 O317 1.258 . S
C316 O318 1.256 . S
O317 Cd309 2.381 . S
O317 C316 1.258 . S
O318 Cd309 2.378 . S
O318 C316 1.256 . S
O319 Cd320 2.300 . S
O319 C326 1.275 . S
Cd320 O319 2.300 . S
Cd320 O328 2.381 . S
Cd320 O329 2.378 . S
O321 Cd322 2.385 . S
O321 C326 1.255 . S
Cd322 O321 2.385 . S
Cd322 O323 2.317 . S
O323 Cd322 2.317 . S
O323 C324 1.232 . S
C324 O323 1.232 . S
C324 O325 1.218 . S
O325 C324 1.218 . S
C326 O319 1.275 . S
C326 O321 1.255 . S
C327 O328 1.258 . S
C327 O329 1.256 . S
O328 Cd320 2.381 . S
O328 C327 1.258 . S
O329 Cd320 2.378 . S
O329 C327 1.256 . S
O330 Cd331 2.300 . S
O330 C337 1.275 . S
Cd331 O330 2.300 . S
Cd331 O339 2.381 . S
Cd331 O340 2.378 . S
O332 Cd333 2.385 . S
O332 C337 1.255 . S
Cd333 O332 2.385 . S
Cd333 O334 2.317 . S
O334 Cd333 2.317 . S
O334 C335 1.232 . S
C335 O334 1.232 . S
C335 O336 1.218 . S
O336 C335 1.218 . S
C337 O330 1.275 . S
C337 O332 1.255 . S
C338 O339 1.258 . S
C338 O340 1.256 . S
O339 Cd331 2.381 . S
O339 C338 1.258 . S
O340 Cd331 2.378 . S
O340 C338 1.256 . S
O341 Cd342 2.300 . S
O341 C348 1.275 . S
Cd342 O341 2.300 . S
Cd342 O350 2.381 . S
Cd342 O351 2.378 . S
O343 Cd344 2.385 . S
O343 C348 1.255 . S
Cd344 O343 2.385 . S
Cd344 O345 2.317 . S
O345 Cd344 2.317 . S
O345 C346 1.232 . S
C346 O345 1.232 . S
C346 O347 1.218 . S
O347 C346 1.218 . S
C348 O341 1.275 . S
C348 O343 1.255 . S
C349 O350 1.258 . S
C349 O351 1.256 . S
O350 Cd342 2.381 . S
O350 C349 1.258 . S
O351 Cd342 2.378 . S
O351 C349 1.256 . S
O352 Cd353 2.300 . S
O352 C359 1.275 . S
Cd353 O352 2.300 . S
Cd353 O361 2.381 . S
Cd353 O362 2.378 . S
O354 Cd355 2.385 . S
O354 C359 1.255 . S
Cd355 O354 2.385 . S
Cd355 O356 2.317 . S
O356 Cd355 2.317 . S
O356 C357 1.232 . S
C357 O356 1.232 . S
C357 O358 1.218 . S
O358 C357 1.218 . S
C359 O352 1.275 . S
C359 O354 1.255 . S
C360 O361 1.258 . S
C360 O362 1.256 . S
O361 Cd353 2.381 . S
O361 C360 1.258 . S
O362 Cd353 2.378 . S
O362 C360 1.256 . S
O363 Cd364 2.300 1_655 S
O363 C370 1.275 1_655 S
Cd364 O363 2.300 1_455 S
Cd364 O372 2.381 1_455 S
Cd364 O373 2.378 . S
O365 Cd366 2.385 . S
O365 C370 1.255 . S
Cd366 O365 2.385 . S
Cd366 O367 2.317 . S
O367 Cd366 2.317 . S
O367 C368 1.232 . S
C368 O367 1.232 . S
C368 O369 1.218 . S
O369 C368 1.218 . S
C370 O363 1.275 1_455 S
C370 O365 1.255 . S
C371 O372 1.303 . S
C371 O373 1.217 1_655 S
O372 Cd364 2.381 1_655 S
O372 C371 1.303 . S
O373 Cd364 2.378 . S
O373 C371 1.217 1_455 S
O374 Cd375 2.300 . S
O374 C381 1.275 . S
Cd375 O374 2.300 . S
Cd375 O383 2.381 . S
Cd375 O384 2.378 . S
O376 Cd377 2.385 . S
O376 C381 1.255 . S
Cd377 O376 2.385 . S
Cd377 O378 2.317 . S
O378 Cd377 2.317 . S
O378 C379 1.232 . S
C379 O378 1.232 . S
C379 O380 1.218 . S
O380 C379 1.218 . S
C381 O374 1.275 . S
C381 O376 1.255 . S
C382 O383 1.258 . S
C382 O384 1.256 . S
O383 Cd375 2.381 . S
O383 C382 1.258 . S
O384 Cd375 2.378 . S
O384 C382 1.256 . S
O385 Cd386 2.300 1_545 S
O385 C392 1.275 1_545 S
Cd386 O385 2.300 1_565 S
Cd386 O394 2.381 1_565 S
Cd386 O395 2.378 . S
O387 Cd388 2.385 . S
O387 C392 1.255 . S
Cd388 O387 2.385 . S
Cd388 O389 2.317 . S
O389 Cd388 2.317 . S
O389 C390 1.232 . S
C390 O389 1.232 . S
C390 O391 1.218 . S
O391 C390 1.218 . S
C392 O385 1.275 1_565 S
C392 O387 1.255 . S
C393 O394 1.282 . S
C393 O395 1.193 1_545 S
O394 Cd386 2.381 1_545 S
O394 C393 1.282 . S
O395 Cd386 2.378 . S
O395 C393 1.193 1_565 S
C396 C397 1.363 . S
C396 C402 1.379 . S
C396 N404 1.356 . S
C397 C396 1.363 . S
C397 C403 1.363 . S
C398 C399 1.363 . S
C398 C403 1.379 . S
C398 N405 1.356 . S
C399 C398 1.363 . S
C399 C402 1.363 . S
N400 C402 1.356 . S
N400 H412 0.984 . S
N400 H413 0.985 . S
N401 C403 1.356 . S
N401 H406 0.984 . S
N401 H407 0.985 . S
C402 C396 1.379 . S
C402 C399 1.363 . S
C402 N400 1.356 . S
C403 C397 1.363 . S
C403 C398 1.379 . S
C403 N401 1.356 . S
N404 C396 1.356 . S
N404 H410 0.984 . S
N404 H411 0.984 . S
N405 C398 1.356 . S
N405 H408 0.984 . S
N405 H409 0.985 . S
H406 N401 0.984 . S
H407 N401 0.985 . S
H408 N405 0.984 . S
H409 N405 0.985 . S
H410 N404 0.984 . S
H411 N404 0.984 . S
H412 N400 0.984 . S
H413 N400 0.985 . S
C414 C415 1.363 . S
C414 C420 1.379 . S
C414 N422 1.356 . S
C415 C414 1.363 . S
C415 C421 1.363 . S
C416 C417 1.363 . S
C416 C421 1.379 . S
C416 N423 1.356 . S
C417 C416 1.363 . S
C417 C420 1.363 . S
N418 C420 1.356 . S
N418 H430 0.984 . S
N418 H431 0.985 . S
N419 C421 1.356 . S
N419 H424 0.984 . S
N419 H425 0.985 . S
C420 C414 1.379 . S
C420 C417 1.363 . S
C420 N418 1.356 . S
C421 C415 1.363 . S
C421 C416 1.379 . S
C421 N419 1.356 . S
N422 C414 1.356 . S
N422 H428 0.984 . S
N422 H429 0.984 . S
N423 C416 1.356 . S
N423 H426 0.984 . S
N423 H427 0.985 . S
H424 N419 0.984 . S
H425 N419 0.985 . S
H426 N423 0.984 . S
H427 N423 0.985 . S
H428 N422 0.984 . S
H429 N422 0.984 . S
H430 N418 0.984 . S
H431 N418 0.985 . S
C432 C433 1.363 . S
C432 C438 1.379 . S
C432 N440 1.356 . S
C433 C432 1.363 . S
C433 C439 1.363 . S
C434 C435 1.363 . S
C434 C439 1.379 . S
C434 N441 1.356 . S
C435 C434 1.363 . S
C435 C438 1.363 . S
N436 C438 1.356 . S
N436 H448 0.984 . S
N436 H449 0.985 . S
N437 C439 1.356 . S
N437 H442 0.984 . S
N437 H443 0.985 . S
C438 C432 1.379 . S
C438 C435 1.363 . S
C438 N436 1.356 . S
C439 C433 1.363 . S
C439 C434 1.379 . S
C439 N437 1.356 . S
N440 C432 1.356 . S
N440 H446 0.984 . S
N440 H447 0.984 . S
N441 C434 1.356 . S
N441 H444 0.984 . S
N441 H445 0.985 . S
H442 N437 0.984 . S
H443 N437 0.985 . S
H444 N441 0.984 . S
H445 N441 0.985 . S
H446 N440 0.984 . S
H447 N440 0.984 . S
H448 N436 0.984 . S
H449 N436 0.985 . S
C450 C451 1.363 . S
C450 C456 1.379 . S
C450 N458 1.356 . S
C451 C450 1.363 . S
C451 C457 1.363 . S
C452 C453 1.363 . S
C452 C457 1.379 . S
C452 N459 1.356 . S
C453 C452 1.363 . S
C453 C456 1.363 . S
N454 C456 1.356 . S
N454 H466 0.984 . S
N454 H467 0.985 . S
N455 C457 1.356 . S
N455 H460 0.984 . S
N455 H461 0.985 . S
C456 C450 1.379 . S
C456 C453 1.363 . S
C456 N454 1.356 . S
C457 C451 1.363 . S
C457 C452 1.379 . S
C457 N455 1.356 . S
N458 C450 1.356 . S
N458 H464 0.984 . S
N458 H465 0.984 . S
N459 C452 1.356 . S
N459 H462 0.984 . S
N459 H463 0.985 . S
H460 N455 0.984 . S
H461 N455 0.985 . S
H462 N459 0.984 . S
H463 N459 0.985 . S
H464 N458 0.984 . S
H465 N458 0.984 . S
H466 N454 0.984 . S
H467 N454 0.985 . S
C468 C469 1.363 . S
C468 C474 1.379 . S
C468 N476 1.356 . S
C469 C468 1.363 . S
C469 C475 1.363 . S
C470 C471 1.363 . S
C470 C475 1.379 . S
C470 N477 1.356 . S
C471 C470 1.363 . S
C471 C474 1.363 . S
N472 C474 1.356 . S
N472 H484 0.984 . S
N472 H485 0.985 . S
N473 C475 1.356 . S
N473 H478 0.984 . S
N473 H479 0.985 . S
C474 C468 1.379 . S
C474 C471 1.363 . S
C474 N472 1.356 . S
C475 C469 1.363 . S
C475 C470 1.379 . S
C475 N473 1.356 . S
N476 C468 1.356 . S
N476 H482 0.984 . S
N476 H483 0.984 . S
N477 C470 1.356 . S
N477 H480 0.984 . S
N477 H481 0.985 . S
H478 N473 0.984 . S
H479 N473 0.985 . S
H480 N477 0.984 . S
H481 N477 0.985 . S
H482 N476 0.984 . S
H483 N476 0.984 . S
H484 N472 0.984 . S
H485 N472 0.985 . S
C486 C487 1.363 . S
C486 C492 1.379 . S
C486 N494 1.356 . S
C487 C486 1.363 . S
C487 C493 1.363 . S
C488 C489 1.363 . S
C488 C493 1.379 . S
C488 N495 1.356 . S
C489 C488 1.363 . S
C489 C492 1.363 . S
N490 C492 1.356 . S
N490 H502 0.984 . S
N490 H503 0.985 . S
N491 C493 1.356 . S
N491 H496 0.984 . S
N491 H497 0.985 . S
C492 C486 1.379 . S
C492 C489 1.363 . S
C492 N490 1.356 . S
C493 C487 1.363 . S
C493 C488 1.379 . S
C493 N491 1.356 . S
N494 C486 1.356 . S
N494 H500 0.984 . S
N494 H501 0.984 . S
N495 C488 1.356 . S
N495 H498 0.984 . S
N495 H499 0.985 . S
H496 N491 0.984 . S
H497 N491 0.985 . S
H498 N495 0.984 . S
H499 N495 0.985 . S
H500 N494 0.984 . S
H501 N494 0.984 . S
H502 N490 0.984 . S
H503 N490 0.985 . S
C504 C505 1.363 . S
C504 C510 1.379 . S
C504 N512 1.356 . S
C505 C504 1.363 . S
C505 C511 1.363 . S
C506 C507 1.363 . S
C506 C511 1.379 . S
C506 N513 1.356 . S
C507 C506 1.363 . S
C507 C510 1.363 . S
N508 C510 1.356 . S
N508 H520 0.984 . S
N508 H521 0.985 . S
N509 C511 1.356 . S
N509 H514 0.984 . S
N509 H515 0.985 . S
C510 C504 1.379 . S
C510 C507 1.363 . S
C510 N508 1.356 . S
C511 C505 1.363 . S
C511 C506 1.379 . S
C511 N509 1.356 . S
N512 C504 1.356 . S
N512 H518 0.984 . S
N512 H519 0.984 . S
N513 C506 1.356 . S
N513 H516 0.984 . S
N513 H517 0.985 . S
H514 N509 0.984 . S
H515 N509 0.985 . S
H516 N513 0.984 . S
H517 N513 0.985 . S
H518 N512 0.984 . S
H519 N512 0.984 . S
H520 N508 0.984 . S
H521 N508 0.985 . S
C522 C523 1.363 . S
C522 C528 1.379 . S
C522 N530 1.356 . S
C523 C522 1.363 . S
C523 C529 1.363 . S
C524 C525 1.363 . S
C524 C529 1.379 . S
C524 N531 1.356 . S
C525 C524 1.363 . S
C525 C528 1.363 . S
N526 C528 1.356 . S
N526 H538 0.984 . S
N526 H539 0.985 . S
N527 C529 1.356 . S
N527 H532 0.984 . S
N527 H533 0.985 . S
C528 C522 1.379 . S
C528 C525 1.363 . S
C528 N526 1.356 . S
C529 C523 1.363 . S
C529 C524 1.379 . S
C529 N527 1.356 . S
N530 C522 1.356 . S
N530 H536 0.984 . S
N530 H537 0.984 . S
N531 C524 1.356 . S
N531 H534 0.984 . S
N531 H535 0.985 . S
H532 N527 0.984 . S
H533 N527 0.985 . S
H534 N531 0.984 . S
H535 N531 0.985 . S
H536 N530 0.984 . S
H537 N530 0.984 . S
H538 N526 0.984 . S
H539 N526 0.985 . S
C540 C541 1.363 . S
C540 C546 1.379 . S
C540 N548 1.356 . S
C541 C540 1.363 . S
C541 C547 1.363 . S
C542 C543 1.363 . S
C542 C547 1.379 . S
C542 N549 1.356 . S
C543 C542 1.363 . S
C543 C546 1.363 . S
N544 C546 1.356 . S
N544 H556 0.984 . S
N544 H557 0.985 . S
N545 C547 1.356 . S
N545 H550 0.984 . S
N545 H551 0.985 . S
C546 C540 1.379 . S
C546 C543 1.363 . S
C546 N544 1.356 . S
C547 C541 1.363 . S
C547 C542 1.379 . S
C547 N545 1.356 . S
N548 C540 1.356 . S
N548 H554 0.984 . S
N548 H555 0.984 . S
N549 C542 1.356 . S
N549 H552 0.984 . S
N549 H553 0.985 . S
H550 N545 0.984 . S
H551 N545 0.985 . S
H552 N549 0.984 . S
H553 N549 0.985 . S
H554 N548 0.984 . S
H555 N548 0.984 . S
H556 N544 0.984 . S
H557 N544 0.985 . S
C558 C559 1.363 . S
C558 C564 1.379 . S
C558 N566 1.356 . S
C559 C558 1.363 . S
C559 C565 1.363 . S
C560 C561 1.363 . S
C560 C565 1.379 . S
C560 N567 1.356 . S
C561 C560 1.363 . S
C561 C564 1.363 . S
N562 C564 1.356 . S
N562 H574 0.984 . S
N562 H575 0.985 . S
N563 C565 1.356 . S
N563 H568 0.984 . S
N563 H569 0.985 . S
C564 C558 1.379 . S
C564 C561 1.363 . S
C564 N562 1.356 . S
C565 C559 1.363 . S
C565 C560 1.379 . S
C565 N563 1.356 . S
N566 C558 1.356 . S
N566 H572 0.984 . S
N566 H573 0.984 . S
N567 C560 1.356 . S
N567 H570 0.984 . S
N567 H571 0.985 . S
H568 N563 0.984 . S
H569 N563 0.985 . S
H570 N567 0.984 . S
H571 N567 0.985 . S
H572 N566 0.984 . S
H573 N566 0.984 . S
H574 N562 0.984 . S
H575 N562 0.985 . S
C576 C577 1.363 . S
C576 C582 1.379 . S
C576 N584 1.356 . S
C577 C576 1.363 . S
C577 C583 1.363 . S
C578 C579 1.363 . S
C578 C583 1.379 . S
C578 N585 1.356 . S
C579 C578 1.363 . S
C579 C582 1.363 . S
N580 C582 1.356 . S
N580 H592 0.984 . S
N580 H593 0.985 . S
N581 C583 1.356 . S
N581 H586 0.984 . S
N581 H587 0.985 . S
C582 C576 1.379 . S
C582 C579 1.363 . S
C582 N580 1.356 . S
C583 C577 1.363 . S
C583 C578 1.379 . S
C583 N581 1.356 . S
N584 C576 1.356 . S
N584 H590 0.984 . S
N584 H591 0.984 . S
N585 C578 1.356 . S
N585 H588 0.984 . S
N585 H589 0.985 . S
H586 N581 0.984 . S
H587 N581 0.985 . S
H588 N585 0.984 . S
H589 N585 0.985 . S
H590 N584 0.984 . S
H591 N584 0.984 . S
H592 N580 0.984 . S
H593 N580 0.985 . S
C594 C595 1.363 . S
C594 C600 1.379 . S
C594 N602 1.356 . S
C595 C594 1.363 . S
C595 C601 1.363 . S
C596 C597 1.363 . S
C596 C601 1.379 . S
C596 N603 1.356 . S
C597 C596 1.363 . S
C597 C600 1.363 . S
N598 C600 1.356 . S
N598 H610 0.984 . S
N598 H611 0.985 . S
N599 C601 1.356 . S
N599 H604 0.984 . S
N599 H605 0.985 . S
C600 C594 1.379 . S
C600 C597 1.363 . S
C600 N598 1.356 . S
C601 C595 1.363 . S
C601 C596 1.379 . S
C601 N599 1.356 . S
N602 C594 1.356 . S
N602 H608 0.984 . S
N602 H609 0.984 . S
N603 C596 1.356 . S
N603 H606 0.984 . S
N603 H607 0.985 . S
H604 N599 0.984 . S
H605 N599 0.985 . S
H606 N603 0.984 . S
H607 N603 0.985 . S
H608 N602 0.984 . S
H609 N602 0.984 . S
H610 N598 0.984 . S
H611 N598 0.985 . S
C612 C613 1.363 1_655 S
C612 C618 1.379 . S
C612 N620 1.356 . S
C613 C612 1.363 1_455 S
C613 C619 1.363 . S
C614 C615 1.363 1_455 S
C614 C619 1.379 . S
C614 N621 1.356 . S
C615 C614 1.363 1_655 S
C615 C618 1.363 . S
N616 C618 1.356 . S
N616 H628 0.984 . S
N616 H629 0.985 . S
N617 C619 1.356 . S
N617 H622 0.984 . S
N617 H623 0.985 . S
C618 C612 1.379 . S
C618 C615 1.363 . S
C618 N616 1.356 . S
C619 C613 1.363 . S
C619 C614 1.379 . S
C619 N617 1.356 . S
N620 C612 1.356 . S
N620 H626 0.984 . S
N620 H627 0.984 . S
N621 C614 1.356 . S
N621 H624 0.984 . S
N621 H625 0.985 . S
H622 N617 0.984 . S
H623 N617 0.985 . S
H624 N621 0.984 . S
H625 N621 0.985 . S
H626 N620 0.984 . S
H627 N620 0.984 . S
H628 N616 0.984 . S
H629 N616 0.985 . S
C630 C631 1.363 . S
C630 C636 1.379 . S
C630 N638 1.356 . S
C631 C630 1.363 . S
C631 C637 1.363 . S
C632 C633 1.363 . S
C632 C637 1.379 . S
C632 N639 1.356 . S
C633 C632 1.363 . S
C633 C636 1.363 . S
N634 C636 1.356 . S
N634 H646 0.984 . S
N634 H647 0.985 . S
N635 C637 1.356 . S
N635 H640 0.984 . S
N635 H641 0.985 . S
C636 C630 1.379 . S
C636 C633 1.363 . S
C636 N634 1.356 . S
C637 C631 1.363 . S
C637 C632 1.379 . S
C637 N635 1.356 . S
N638 C630 1.356 . S
N638 H644 0.984 . S
N638 H645 0.984 . S
N639 C632 1.356 . S
N639 H642 0.984 . S
N639 H643 0.985 . S
H640 N635 0.984 . S
H641 N635 0.985 . S
H642 N639 0.984 . S
H643 N639 0.985 . S
H644 N638 0.984 . S
H645 N638 0.984 . S
H646 N634 0.984 . S
H647 N634 0.985 . S
C648 C649 1.363 . S
C648 C654 1.379 . S
C648 N656 1.356 . S
C649 C648 1.363 . S
C649 C655 1.363 1_565 S
C650 C651 1.363 . S
C650 C655 1.379 . S
C650 N657 1.356 . S
C651 C650 1.363 . S
C651 C654 1.363 1_545 S
N652 C654 1.356 . S
N652 H664 0.984 . S
N652 H665 0.985 . S
N653 C655 1.356 . S
N653 H658 0.984 . S
N653 H659 0.985 . S
C654 C648 1.379 . S
C654 C651 1.363 1_565 S
C654 N652 1.356 . S
C655 C649 1.363 1_545 S
C655 C650 1.379 . S
C655 N653 1.356 . S
N656 C648 1.356 . S
N656 H662 0.984 . S
N656 H663 0.984 . S
N657 C650 1.356 . S
N657 H660 0.984 . S
N657 H661 0.985 . S
H658 N653 0.984 . S
H659 N653 0.985 . S
H660 N657 0.984 . S
H661 N657 0.985 . S
H662 N656 0.984 . S
H663 N656 0.984 . S
H664 N652 0.984 . S
H665 N652 0.985 . S
C666 C667 1.363 1_565 S
C666 C672 1.379 . S
C666 N674 1.356 . S
C667 C666 1.363 1_545 S
C667 C673 1.363 . S
C668 C669 1.363 1_545 S
C668 C673 1.379 . S
C668 N675 1.356 . S
C669 C668 1.363 1_565 S
C669 C672 1.363 . S
N670 C672 1.356 . S
N670 H682 0.984 . S
N670 H683 0.985 . S
N671 C673 1.356 . S
N671 H676 0.984 . S
N671 H677 0.985 . S
C672 C666 1.379 . S
C672 C669 1.363 . S
C672 N670 1.356 . S
C673 C667 1.363 . S
C673 C668 1.379 . S
C673 N671 1.356 . S
N674 C666 1.356 . S
N674 H680 0.984 . S
N674 H681 0.984 . S
N675 C668 1.356 . S
N675 H678 0.984 . S
N675 H679 0.985 . S
H676 N671 0.984 . S
H677 N671 0.985 . S
H678 N675 0.984 . S
H679 N675 0.985 . S
H680 N674 0.984 . S
H681 N674 0.984 . S
H682 N670 0.984 . S
H683 N670 0.985 . S
C684 C685 1.363 . S
C684 C690 1.379 . S
C684 N692 1.356 . S
C685 C684 1.363 . S
C685 C691 1.363 1_455 S
C686 C687 1.363 . S
C686 C691 1.379 . S
C686 N693 1.356 . S
C687 C686 1.363 . S
C687 C690 1.363 1_655 S
N688 C690 1.356 . S
N688 H700 0.984 . S
N688 H701 0.985 . S
N689 C691 1.356 . S
N689 H694 0.984 . S
N689 H695 0.985 . S
C690 C684 1.379 . S
C690 C687 1.363 1_455 S
C690 N688 1.356 . S
C691 C685 1.363 1_655 S
C691 C686 1.379 . S
C691 N689 1.356 . S
N692 C684 1.356 . S
N692 H698 0.984 . S
N692 H699 0.984 . S
N693 C686 1.356 . S
N693 H696 0.984 . S
N693 H697 0.985 . S
H694 N689 0.984 . S
H695 N689 0.985 . S
H696 N693 0.984 . S
H697 N693 0.985 . S
H698 N692 0.984 . S
H699 N692 0.984 . S
H700 N688 0.984 . S
H701 N688 0.985 . S
C702 C703 1.363 . S
C702 C708 1.379 . S
C702 N710 1.356 . S
C703 C702 1.363 . S
C703 C709 1.363 . S
C704 C705 1.363 . S
C704 C709 1.379 . S
C704 N711 1.356 . S
C705 C704 1.363 . S
C705 C708 1.363 . S
N706 C708 1.356 . S
N706 H718 0.984 . S
N706 H719 0.985 . S
N707 C709 1.356 . S
N707 H712 0.984 . S
N707 H713 0.985 . S
C708 C702 1.379 . S
C708 C705 1.363 . S
C708 N706 1.356 . S
C709 C703 1.363 . S
C709 C704 1.379 . S
C709 N707 1.356 . S
N710 C702 1.356 . S
N710 H716 0.984 . S
N710 H717 0.984 . S
N711 C704 1.356 . S
N711 H714 0.984 . S
N711 H715 0.985 . S
H712 N707 0.984 . S
H713 N707 0.985 . S
H714 N711 0.984 . S
H715 N711 0.985 . S
H716 N710 0.984 . S
H717 N710 0.984 . S
H718 N706 0.984 . S
H719 N706 0.985 . S
C720 C721 1.363 . S
C720 C726 1.379 1_455 S
C720 N728 1.356 . S
C721 C720 1.363 . S
C721 C727 1.363 . S
C722 C723 1.363 . S
C722 C727 1.379 1_655 S
C722 N729 1.356 . S
C723 C722 1.363 . S
C723 C726 1.363 . S
N724 C726 1.356 . S
N724 H736 0.984 . S
N724 H737 0.985 . S
N725 C727 1.356 . S
N725 H730 0.984 . S
N725 H731 0.985 . S
C726 C720 1.379 1_655 S
C726 C723 1.363 . S
C726 N724 1.356 . S
C727 C721 1.363 . S
C727 C722 1.379 1_455 S
C727 N725 1.356 . S
N728 C720 1.356 . S
N728 H734 0.984 . S
N728 H735 0.984 . S
N729 C722 1.356 . S
N729 H732 0.984 . S
N729 H733 0.985 . S
H730 N725 0.984 . S
H731 N725 0.985 . S
H732 N729 0.984 . S
H733 N729 0.985 . S
H734 N728 0.984 . S
H735 N728 0.984 . S
H736 N724 0.984 . S
H737 N724 0.985 . S
C738 C739 1.363 . S
C738 C744 1.379 . S
C738 N746 1.356 . S
C739 C738 1.363 . S
C739 C745 1.363 . S
C740 C741 1.363 . S
C740 C745 1.379 . S
C740 N747 1.356 . S
C741 C740 1.363 . S
C741 C744 1.363 . S
N742 C744 1.356 . S
N742 H754 0.984 . S
N742 H755 0.985 . S
N743 C745 1.356 . S
N743 H748 0.984 . S
N743 H749 0.985 . S
C744 C738 1.379 . S
C744 C741 1.363 . S
C744 N742 1.356 . S
C745 C739 1.363 . S
C745 C740 1.379 . S
C745 N743 1.356 . S
N746 C738 1.356 . S
N746 H752 0.984 . S
N746 H753 0.984 . S
N747 C740 1.356 . S
N747 H750 0.984 . S
N747 H751 0.985 . S
H748 N743 0.984 . S
H749 N743 0.985 . S
H750 N747 0.984 . S
H751 N747 0.985 . S
H752 N746 0.984 . S
H753 N746 0.984 . S
H754 N742 0.984 . S
H755 N742 0.985 . S
C756 C757 1.363 . S
C756 C762 1.379 1_545 S
C756 N764 1.356 . S
C757 C756 1.363 . S
C757 C763 1.363 . S
C758 C759 1.363 . S
C758 C763 1.379 1_565 S
C758 N765 1.356 . S
C759 C758 1.363 . S
C759 C762 1.363 . S
N760 C762 1.356 . S
N760 H772 0.984 . S
N760 H773 0.985 . S
N761 C763 1.356 . S
N761 H766 0.984 . S
N761 H767 0.985 . S
C762 C756 1.379 1_565 S
C762 C759 1.363 . S
C762 N760 1.356 . S
C763 C757 1.363 . S
C763 C758 1.379 1_545 S
C763 N761 1.356 . S
N764 C756 1.356 . S
N764 H770 0.984 . S
N764 H771 0.984 . S
N765 C758 1.356 . S
N765 H768 0.984 . S
N765 H769 0.985 . S
H766 N761 0.984 . S
H767 N761 0.985 . S
H768 N765 0.984 . S
H769 N765 0.985 . S
H770 N764 0.984 . S
H771 N764 0.984 . S
H772 N760 0.984 . S
H773 N760 0.985 . S
C774 C775 1.363 . S
C774 C780 1.379 1_455 S
C774 N782 1.356 . S
C775 C774 1.363 . S
C775 C781 1.363 . S
C776 C777 1.363 . S
C776 C781 1.379 1_655 S
C776 N783 1.356 . S
C777 C776 1.363 . S
C777 C780 1.363 . S
N778 C780 1.356 . S
N778 H790 0.984 . S
N778 H791 0.985 . S
N779 C781 1.356 . S
N779 H784 0.984 . S
N779 H785 0.985 . S
C780 C774 1.379 1_655 S
C780 C777 1.363 . S
C780 N778 1.356 . S
C781 C775 1.363 . S
C781 C776 1.379 1_455 S
C781 N779 1.356 . S
N782 C774 1.356 . S
N782 H788 0.984 . S
N782 H789 0.984 . S
N783 C776 1.356 . S
N783 H786 0.984 . S
N783 H787 0.985 . S
H784 N779 0.984 . S
H785 N779 0.985 . S
H786 N783 0.984 . S
H787 N783 0.985 . S
H788 N782 0.984 . S
H789 N782 0.984 . S
H790 N778 0.984 . S
H791 N778 0.985 . S
C792 C793 1.363 . S
C792 C798 1.379 . S
C792 N800 1.356 . S
C793 C792 1.363 . S
C793 C799 1.363 . S
C794 C795 1.363 . S
C794 C799 1.379 . S
C794 N801 1.356 . S
C795 C794 1.363 . S
C795 C798 1.363 . S
N796 C798 1.356 . S
N796 H808 0.984 . S
N796 H809 0.985 . S
N797 C799 1.356 . S
N797 H802 0.984 . S
N797 H803 0.985 . S
C798 C792 1.379 . S
C798 C795 1.363 . S
C798 N796 1.356 . S
C799 C793 1.363 . S
C799 C794 1.379 . S
C799 N797 1.356 . S
N800 C792 1.356 . S
N800 H806 0.984 . S
N800 H807 0.984 . S
N801 C794 1.356 . S
N801 H804 0.984 . S
N801 H805 0.985 . S
H802 N797 0.984 . S
H803 N797 0.985 . S
H804 N801 0.984 . S
H805 N801 0.985 . S
H806 N800 0.984 . S
H807 N800 0.984 . S
H808 N796 0.984 . S
H809 N796 0.985 . S
C810 C811 1.363 . S
C810 C816 1.379 1_565 S
C810 N818 1.356 . S
C811 C810 1.363 . S
C811 C817 1.363 . S
C812 C813 1.363 . S
C812 C817 1.379 1_545 S
C812 N819 1.356 . S
C813 C812 1.363 . S
C813 C816 1.363 . S
N814 C816 1.356 . S
N814 H826 0.984 . S
N814 H827 0.985 . S
N815 C817 1.356 . S
N815 H820 0.984 . S
N815 H821 0.985 . S
C816 C810 1.379 1_545 S
C816 C813 1.363 . S
C816 N814 1.356 . S
C817 C811 1.363 . S
C817 C812 1.379 1_565 S
C817 N815 1.356 . S
N818 C810 1.356 . S
N818 H824 0.984 . S
N818 H825 0.984 . S
N819 C812 1.356 . S
N819 H822 0.984 . S
N819 H823 0.985 . S
H820 N815 0.984 . S
H821 N815 0.985 . S
H822 N819 0.984 . S
H823 N819 0.985 . S
H824 N818 0.984 . S
H825 N818 0.984 . S
H826 N814 0.984 . S
H827 N814 0.985 . S
C828 C829 1.363 . S
C828 C834 1.379 . S
C828 N836 1.356 . S
C829 C828 1.363 . S
C829 C835 1.363 . S
C830 C831 1.363 . S
C830 C835 1.379 . S
C830 N837 1.356 . S
C831 C830 1.363 . S
C831 C834 1.363 . S
N832 C834 1.356 . S
N832 H844 0.984 . S
N832 H845 0.985 . S
N833 C835 1.356 . S
N833 H838 0.984 . S
N833 H839 0.985 . S
C834 C828 1.379 . S
C834 C831 1.363 . S
C834 N832 1.356 . S
C835 C829 1.363 . S
C835 C830 1.379 . S
C835 N833 1.356 . S
N836 C828 1.356 . S
N836 H842 0.984 . S
N836 H843 0.984 . S
N837 C830 1.356 . S
N837 H840 0.984 . S
N837 H841 0.985 . S
H838 N833 0.984 . S
H839 N833 0.985 . S
H840 N837 0.984 . S
H841 N837 0.985 . S
H842 N836 0.984 . S
H843 N836 0.984 . S
H844 N832 0.984 . S
H845 N832 0.985 . S
C846 C847 1.363 . S
C846 C852 1.379 . S
C846 N854 1.356 . S
C847 C846 1.363 . S
C847 C853 1.363 . S
C848 C849 1.363 . S
C848 C853 1.379 . S
C848 N855 1.356 . S
C849 C848 1.363 . S
C849 C852 1.363 . S
N850 C852 1.356 . S
N850 H862 0.984 . S
N850 H863 0.985 . S
N851 C853 1.356 . S
N851 H856 0.984 . S
N851 H857 0.985 . S
C852 C846 1.379 . S
C852 C849 1.363 . S
C852 N850 1.356 . S
C853 C847 1.363 . S
C853 C848 1.379 . S
C853 N851 1.356 . S
N854 C846 1.356 . S
N854 H860 0.984 . S
N854 H861 0.984 . S
N855 C848 1.356 . S
N855 H858 0.984 . S
N855 H859 0.985 . S
H856 N851 0.984 . S
H857 N851 0.985 . S
H858 N855 0.984 . S
H859 N855 0.985 . S
H860 N854 0.984 . S
H861 N854 0.984 . S
H862 N850 0.984 . S
H863 N850 0.985 . S
C864 C865 1.363 . S
C864 C870 1.379 . S
C864 N872 1.356 . S
C865 C864 1.363 . S
C865 C871 1.363 . S
C866 C867 1.363 . S
C866 C871 1.379 . S
C866 N873 1.356 . S
C867 C866 1.363 . S
C867 C870 1.363 . S
N868 C870 1.356 . S
N868 H880 0.984 . S
N868 H881 0.985 . S
N869 C871 1.356 . S
N869 H874 0.984 . S
N869 H875 0.985 . S
C870 C864 1.379 . S
C870 C867 1.363 . S
C870 N868 1.356 . S
C871 C865 1.363 . S
C871 C866 1.379 . S
C871 N869 1.356 . S
N872 C864 1.356 . S
N872 H878 0.984 . S
N872 H879 0.984 . S
N873 C866 1.356 . S
N873 H876 0.984 . S
N873 H877 0.985 . S
H874 N869 0.984 . S
H875 N869 0.985 . S
H876 N873 0.984 . S
H877 N873 0.985 . S
H878 N872 0.984 . S
H879 N872 0.984 . S
H880 N868 0.984 . S
H881 N868 0.985 . S
C882 C883 1.363 . S
C882 C888 1.379 . S
C882 N890 1.356 . S
C883 C882 1.363 . S
C883 C889 1.363 . S
C884 C885 1.363 . S
C884 C889 1.379 . S
C884 N891 1.356 . S
C885 C884 1.363 . S
C885 C888 1.363 . S
N886 C888 1.356 . S
N886 H898 0.984 . S
N886 H899 0.985 . S
N887 C889 1.356 . S
N887 H892 0.984 . S
N887 H893 0.997 . S
C888 C882 1.379 . S
C888 C885 1.363 . S
C888 N886 1.356 . S
C889 C883 1.363 . S
C889 C884 1.379 . S
C889 N887 1.356 . S
N890 C882 1.356 . S
N890 H896 0.984 . S
N890 H897 0.984 . S
N891 C884 1.356 . S
N891 H894 0.984 . S
N891 H895 0.985 1_554 S
H892 N887 0.984 . S
H893 N887 0.997 . S
H894 N891 0.984 . S
H895 N891 0.985 1_556 S
H896 N890 0.984 . S
H897 N890 0.984 . S
H898 N886 0.984 . S
H899 N886 0.985 . S
C900 C901 1.363 . S
C900 C906 1.379 . S
C900 N908 1.356 . S
C901 C900 1.363 . S
C901 C907 1.363 . S
C902 C903 1.363 . S
C902 C907 1.379 . S
C902 N909 1.356 . S
C903 C902 1.363 . S
C903 C906 1.363 . S
N904 C906 1.356 . S
N904 H916 0.984 . S
N904 H917 0.985 . S
N905 C907 1.356 . S
N905 H910 0.984 . S
N905 H911 0.985 . S
C906 C900 1.379 . S
C906 C903 1.363 . S
C906 N904 1.356 . S
C907 C901 1.363 . S
C907 C902 1.379 . S
C907 N905 1.356 . S
N908 C900 1.356 . S
N908 H914 0.984 . S
N908 H915 0.984 . S
N909 C902 1.356 . S
N909 H912 0.984 . S
N909 H913 0.985 . S
H910 N905 0.984 . S
H911 N905 0.985 . S
H912 N909 0.984 . S
H913 N909 0.985 . S
H914 N908 0.984 . S
H915 N908 0.984 . S
H916 N904 0.984 . S
H917 N904 0.985 . S
C918 C919 1.363 . S
C918 C924 1.379 . S
C918 N926 1.356 . S
C919 C918 1.363 . S
C919 C925 1.363 . S
C920 C921 1.363 . S
C920 C925 1.379 . S
C920 N927 1.356 . S
C921 C920 1.363 . S
C921 C924 1.363 . S
N922 C924 1.356 . S
N922 H934 0.984 . S
N922 H935 0.985 . S
N923 C925 1.356 . S
N923 H928 0.984 . S
N923 H929 0.985 . S
C924 C918 1.379 . S
C924 C921 1.363 . S
C924 N922 1.356 . S
C925 C919 1.363 . S
C925 C920 1.379 . S
C925 N923 1.356 . S
N926 C918 1.356 . S
N926 H932 0.984 . S
N926 H933 0.984 . S
N927 C920 1.356 . S
N927 H930 0.984 . S
N927 H931 0.985 . S
H928 N923 0.984 . S
H929 N923 0.985 . S
H930 N927 0.984 . S
H931 N927 0.985 . S
H932 N926 0.984 . S
H933 N926 0.984 . S
H934 N922 0.984 . S
H935 N922 0.985 . S
C936 C937 1.363 . S
C936 C942 1.379 . S
C936 N944 1.356 . S
C937 C936 1.363 . S
C937 C943 1.363 . S
C938 C939 1.363 . S
C938 C943 1.379 . S
C938 N945 1.356 . S
C939 C938 1.363 . S
C939 C942 1.363 . S
N940 C942 1.356 . S
N940 H952 0.984 . S
N940 H953 0.985 . S
N941 C943 1.356 . S
N941 H946 0.984 . S
N941 H947 0.985 . S
C942 C936 1.379 . S
C942 C939 1.363 . S
C942 N940 1.356 . S
C943 C937 1.363 . S
C943 C938 1.379 . S
C943 N941 1.356 . S
N944 C936 1.356 . S
N944 H950 0.984 . S
N944 H951 0.984 . S
N945 C938 1.356 . S
N945 H948 0.984 . S
N945 H949 0.996 . S
H946 N941 0.984 . S
H947 N941 0.985 . S
H948 N945 0.984 . S
H949 N945 0.996 . S
H950 N944 0.984 . S
H951 N944 0.984 . S
H952 N940 0.984 . S
H953 N940 0.985 . S
C954 C955 1.363 . S
C954 C960 1.379 . S
C954 N962 1.356 . S
C955 C954 1.363 . S
C955 C961 1.363 . S
C956 C957 1.363 . S
C956 C961 1.379 . S
C956 N963 1.356 . S
C957 C956 1.363 . S
C957 C960 1.363 . S
N958 C960 1.356 . S
N958 H970 0.984 . S
N958 H971 0.985 . S
N959 C961 1.356 . S
N959 H964 0.984 . S
N959 H965 0.985 . S
C960 C954 1.379 . S
C960 C957 1.363 . S
C960 N958 1.356 . S
C961 C955 1.363 . S
C961 C956 1.379 . S
C961 N959 1.356 . S
N962 C954 1.356 . S
N962 H968 0.984 . S
N962 H969 0.984 . S
N963 C956 1.356 . S
N963 H966 0.984 . S
N963 H967 0.985 . S
H964 N959 0.984 . S
H965 N959 0.985 . S
H966 N963 0.984 . S
H967 N963 0.985 . S
H968 N962 0.984 . S
H969 N962 0.984 . S
H970 N958 0.984 . S
H971 N958 0.985 . S
C972 C973 1.363 . S
C972 C978 1.379 . S
C972 N980 1.356 . S
C973 C972 1.363 . S
C973 C979 1.363 . S
C974 C975 1.363 . S
C974 C979 1.379 . S
C974 N981 1.356 . S
C975 C974 1.363 . S
C975 C978 1.363 . S
N976 C978 1.356 . S
N976 H988 0.984 . S
N976 H989 0.985 . S
N977 C979 1.356 . S
N977 H982 0.984 . S
N977 H983 0.985 . S
C978 C972 1.379 . S
C978 C975 1.363 . S
C978 N976 1.356 . S
C979 C973 1.363 . S
C979 C974 1.379 . S
C979 N977 1.356 . S
N980 C972 1.356 . S
N980 H986 0.984 . S
N980 H987 0.984 . S
N981 C974 1.356 . S
N981 H984 0.984 . S
N981 H985 0.985 . S
H982 N977 0.984 . S
H983 N977 0.985 . S
H984 N981 0.984 . S
H985 N981 0.985 . S
H986 N980 0.984 . S
H987 N980 0.984 . S
H988 N976 0.984 . S
H989 N976 0.985 . S
C990 C991 1.363 . S
C990 C996 1.379 . S
C990 N998 1.356 . S
C991 C990 1.363 . S
C991 C997 1.363 . S
C992 C993 1.363 . S
C992 C997 1.379 . S
C992 N999 1.356 . S
C993 C992 1.363 . S
C993 C996 1.363 . S
N994 C996 1.356 . S
N994 H1006 0.984 . S
N994 H1007 0.985 . S
N995 C997 1.356 . S
N995 H1000 0.984 . S
N995 H1001 0.985 . S
C996 C990 1.379 . S
C996 C993 1.363 . S
C996 N994 1.356 . S
C997 C991 1.363 . S
C997 C992 1.379 . S
C997 N995 1.356 . S
N998 C990 1.356 . S
N998 H1004 0.984 . S
N998 H1005 0.984 . S
N999 C992 1.356 . S
N999 H1002 0.984 . S
N999 H1003 0.985 . S
H1000 N995 0.984 . S
H1001 N995 0.985 . S
H1002 N999 0.984 . S
H1003 N999 0.985 . S
H1004 N998 0.984 . S
H1005 N998 0.984 . S
H1006 N994 0.984 . S
H1007 N994 0.985 . S
C1008 C1009 1.363 . S
C1008 C1014 1.379 . S
C1008 N1016 1.356 . S
C1009 C1008 1.363 . S
C1009 C1015 1.363 . S
C1010 C1011 1.363 . S
C1010 C1015 1.379 . S
C1010 N1017 1.356 . S
C1011 C1010 1.363 . S
C1011 C1014 1.363 . S
N1012 C1014 1.356 . S
N1012 H1024 0.984 . S
N1012 H1025 0.985 . S
N1013 C1015 1.356 . S
N1013 H1018 0.984 . S
N1013 H1019 0.985 . S
C1014 C1008 1.379 . S
C1014 C1011 1.363 . S
C1014 N1012 1.356 . S
C1015 C1009 1.363 . S
C1015 C1010 1.379 . S
C1015 N1013 1.356 . S
N1016 C1008 1.356 . S
N1016 H1022 0.984 . S
N1016 H1023 0.984 . S
N1017 C1010 1.356 . S
N1017 H1020 0.984 . S
N1017 H1021 0.985 . S
H1018 N1013 0.984 . S
H1019 N1013 0.985 . S
H1020 N1017 0.984 . S
H1021 N1017 0.985 . S
H1022 N1016 0.984 . S
H1023 N1016 0.984 . S
H1024 N1012 0.984 . S
H1025 N1012 0.985 . S
C1026 C1027 1.363 . S
C1026 C1032 1.379 . S
C1026 N1034 1.356 . S
C1027 C1026 1.363 . S
C1027 C1033 1.363 . S
C1028 C1029 1.363 . S
C1028 C1033 1.379 . S
C1028 N1035 1.356 . S
C1029 C1028 1.363 . S
C1029 C1032 1.363 . S
N1030 C1032 1.356 . S
N1030 H1042 0.984 . S
N1030 H1043 0.985 . S
N1031 C1033 1.356 . S
N1031 H1036 0.984 . S
N1031 H1037 0.985 . S
C1032 C1026 1.379 . S
C1032 C1029 1.363 . S
C1032 N1030 1.356 . S
C1033 C1027 1.363 . S
C1033 C1028 1.379 . S
C1033 N1031 1.356 . S
N1034 C1026 1.356 . S
N1034 H1040 0.984 . S
N1034 H1041 0.984 . S
N1035 C1028 1.356 . S
N1035 H1038 0.984 . S
N1035 H1039 0.985 . S
H1036 N1031 0.984 . S
H1037 N1031 0.985 . S
H1038 N1035 0.984 . S
H1039 N1035 0.985 . S
H1040 N1034 0.984 . S
H1041 N1034 0.984 . S
H1042 N1030 0.984 . S
H1043 N1030 0.985 . S
C1044 C1045 1.363 . S
C1044 C1050 1.379 . S
C1044 N1052 1.356 . S
C1045 C1044 1.363 . S
C1045 C1051 1.363 . S
C1046 C1047 1.363 . S
C1046 C1051 1.379 . S
C1046 N1053 1.356 . S
C1047 C1046 1.363 . S
C1047 C1050 1.363 . S
N1048 C1050 1.356 . S
N1048 H1060 0.984 . S
N1048 H1061 0.985 . S
N1049 C1051 1.356 . S
N1049 H1054 0.984 . S
N1049 H1055 0.985 . S
C1050 C1044 1.379 . S
C1050 C1047 1.363 . S
C1050 N1048 1.356 . S
C1051 C1045 1.363 . S
C1051 C1046 1.379 . S
C1051 N1049 1.356 . S
N1052 C1044 1.356 . S
N1052 H1058 0.984 . S
N1052 H1059 0.984 . S
N1053 C1046 1.356 . S
N1053 H1056 0.984 . S
N1053 H1057 0.985 . S
H1054 N1049 0.984 . S
H1055 N1049 0.985 . S
H1056 N1053 0.984 . S
H1057 N1053 0.985 . S
H1058 N1052 0.984 . S
H1059 N1052 0.984 . S
H1060 N1048 0.984 . S
H1061 N1048 0.985 . S
C1062 C1063 1.363 . S
C1062 C1068 1.379 . S
C1062 N1070 1.356 . S
C1063 C1062 1.363 . S
C1063 C1069 1.363 . S
C1064 C1065 1.363 . S
C1064 C1069 1.379 . S
C1064 N1071 1.356 . S
C1065 C1064 1.363 . S
C1065 C1068 1.363 . S
N1066 C1068 1.356 . S
N1066 H1078 0.984 . S
N1066 H1079 0.985 . S
N1067 C1069 1.356 . S
N1067 H1072 0.984 . S
N1067 H1073 0.985 . S
C1068 C1062 1.379 . S
C1068 C1065 1.363 . S
C1068 N1066 1.356 . S
C1069 C1063 1.363 . S
C1069 C1064 1.379 . S
C1069 N1067 1.356 . S
N1070 C1062 1.356 . S
N1070 H1076 0.984 . S
N1070 H1077 0.984 . S
N1071 C1064 1.356 . S
N1071 H1074 0.984 . S
N1071 H1075 0.985 . S
H1072 N1067 0.984 . S
H1073 N1067 0.985 . S
H1074 N1071 0.984 . S
H1075 N1071 0.985 . S
H1076 N1070 0.984 . S
H1077 N1070 0.984 . S
H1078 N1066 0.984 . S
H1079 N1066 0.985 . S
C1080 C1081 1.363 . S
C1080 C1086 1.379 . S
C1080 N1088 1.356 . S
C1081 C1080 1.363 . S
C1081 C1087 1.363 . S
C1082 C1083 1.363 . S
C1082 C1087 1.379 . S
C1082 N1089 1.356 . S
C1083 C1082 1.363 . S
C1083 C1086 1.363 . S
N1084 C1086 1.356 . S
N1084 H1096 0.984 . S
N1084 H1097 0.985 . S
N1085 C1087 1.356 . S
N1085 H1090 0.984 . S
N1085 H1091 0.985 . S
C1086 C1080 1.379 . S
C1086 C1083 1.363 . S
C1086 N1084 1.356 . S
C1087 C1081 1.363 . S
C1087 C1082 1.379 . S
C1087 N1085 1.356 . S
N1088 C1080 1.356 . S
N1088 H1094 0.984 . S
N1088 H1095 0.984 . S
N1089 C1082 1.356 . S
N1089 H1092 0.984 . S
N1089 H1093 0.985 . S
H1090 N1085 0.984 . S
H1091 N1085 0.985 . S
H1092 N1089 0.984 . S
H1093 N1089 0.985 . S
H1094 N1088 0.984 . S
H1095 N1088 0.984 . S
H1096 N1084 0.984 . S
H1097 N1084 0.985 . S
C1098 C1099 1.363 . S
C1098 C1104 1.379 . S
C1098 N1106 1.356 . S
C1099 C1098 1.363 . S
C1099 C1105 1.363 . S
C1100 C1101 1.363 . S
C1100 C1105 1.379 . S
C1100 N1107 1.356 . S
C1101 C1100 1.363 . S
C1101 C1104 1.363 . S
N1102 C1104 1.356 . S
N1102 H1114 0.984 . S
N1102 H1115 0.985 . S
N1103 C1105 1.356 . S
N1103 H1108 0.984 . S
N1103 H1109 0.985 . S
C1104 C1098 1.379 . S
C1104 C1101 1.363 . S
C1104 N1102 1.356 . S
C1105 C1099 1.363 . S
C1105 C1100 1.379 . S
C1105 N1103 1.356 . S
N1106 C1098 1.356 . S
N1106 H1112 0.984 . S
N1106 H1113 0.984 . S
N1107 C1100 1.356 . S
N1107 H1110 0.984 . S
N1107 H1111 0.985 . S
H1108 N1103 0.984 . S
H1109 N1103 0.985 . S
H1110 N1107 0.984 . S
H1111 N1107 0.985 . S
H1112 N1106 0.984 . S
H1113 N1106 0.984 . S
H1114 N1102 0.984 . S
H1115 N1102 0.985 . S
C1116 C1117 1.363 . S
C1116 C1122 1.379 . S
C1116 N1124 1.356 . S
C1117 C1116 1.363 . S
C1117 C1123 1.363 . S
C1118 C1119 1.363 . S
C1118 C1123 1.379 . S
C1118 N1125 1.356 . S
C1119 C1118 1.363 . S
C1119 C1122 1.363 . S
N1120 C1122 1.356 . S
N1120 H1132 0.984 . S
N1120 H1133 0.985 . S
N1121 C1123 1.356 . S
N1121 H1126 0.984 . S
N1121 H1127 0.985 . S
C1122 C1116 1.379 . S
C1122 C1119 1.363 . S
C1122 N1120 1.356 . S
C1123 C1117 1.363 . S
C1123 C1118 1.379 . S
C1123 N1121 1.356 . S
N1124 C1116 1.356 . S
N1124 H1130 0.984 . S
N1124 H1131 0.984 . S
N1125 C1118 1.356 . S
N1125 H1128 0.984 . S
N1125 H1129 0.985 . S
H1126 N1121 0.984 . S
H1127 N1121 0.985 . S
H1128 N1125 0.984 . S
H1129 N1125 0.985 . S
H1130 N1124 0.984 . S
H1131 N1124 0.984 . S
H1132 N1120 0.984 . S
H1133 N1120 0.985 . S
C1134 C1135 1.363 . S
C1134 C1140 1.379 . S
C1134 N1142 1.356 . S
C1135 C1134 1.363 . S
C1135 C1141 1.363 . S
C1136 C1137 1.363 . S
C1136 C1141 1.379 . S
C1136 N1143 1.356 . S
C1137 C1136 1.363 . S
C1137 C1140 1.363 . S
N1138 C1140 1.356 . S
N1138 H1150 0.984 . S
N1138 H1151 0.985 . S
N1139 C1141 1.356 . S
N1139 H1144 0.984 . S
N1139 H1145 0.985 . S
C1140 C1134 1.379 . S
C1140 C1137 1.363 . S
C1140 N1138 1.356 . S
C1141 C1135 1.363 . S
C1141 C1136 1.379 . S
C1141 N1139 1.356 . S
N1142 C1134 1.356 . S
N1142 H1148 0.984 . S
N1142 H1149 0.984 . S
N1143 C1136 1.356 . S
N1143 H1146 0.984 . S
N1143 H1147 0.985 . S
H1144 N1139 0.984 . S
H1145 N1139 0.985 . S
H1146 N1143 0.984 . S
H1147 N1143 0.985 . S
H1148 N1142 0.984 . S
H1149 N1142 0.984 . S
H1150 N1138 0.984 . S
H1151 N1138 0.985 . S
C1152 C1153 1.363 . S
C1152 C1158 1.379 . S
C1152 N1160 1.356 . S
C1153 C1152 1.363 . S
C1153 C1159 1.363 . S
C1154 C1155 1.363 . S
C1154 C1159 1.379 . S
C1154 N1161 1.356 . S
C1155 C1154 1.363 . S
C1155 C1158 1.363 . S
N1156 C1158 1.356 . S
N1156 H1168 0.984 . S
N1156 H1169 0.985 . S
N1157 C1159 1.356 . S
N1157 H1162 0.984 . S
N1157 H1163 0.985 . S
C1158 C1152 1.379 . S
C1158 C1155 1.363 . S
C1158 N1156 1.356 . S
C1159 C1153 1.363 . S
C1159 C1154 1.379 . S
C1159 N1157 1.356 . S
N1160 C1152 1.356 . S
N1160 H1166 0.984 . S
N1160 H1167 0.984 . S
N1161 C1154 1.356 . S
N1161 H1164 0.984 . S
N1161 H1165 0.985 . S
H1162 N1157 0.984 . S
H1163 N1157 0.985 . S
H1164 N1161 0.984 . S
H1165 N1161 0.985 . S
H1166 N1160 0.984 . S
H1167 N1160 0.984 . S
H1168 N1156 0.984 . S
H1169 N1156 0.985 . S
C1170 C1171 1.363 . S
C1170 C1176 1.379 . S
C1170 N1178 1.356 . S
C1171 C1170 1.363 . S
C1171 C1177 1.363 . S
C1172 C1173 1.363 . S
C1172 C1177 1.379 . S
C1172 N1179 1.356 . S
C1173 C1172 1.363 . S
C1173 C1176 1.363 . S
N1174 C1176 1.356 . S
N1174 H1186 0.984 . S
N1174 H1187 0.985 . S
N1175 C1177 1.356 . S
N1175 H1180 0.984 . S
N1175 H1181 0.985 . S
C1176 C1170 1.379 . S
C1176 C1173 1.363 . S
C1176 N1174 1.356 . S
C1177 C1171 1.363 . S
C1177 C1172 1.379 . S
C1177 N1175 1.356 . S
N1178 C1170 1.356 . S
N1178 H1184 0.984 . S
N1178 H1185 0.984 . S
N1179 C1172 1.356 . S
N1179 H1182 0.984 . S
N1179 H1183 0.985 . S
H1180 N1175 0.984 . S
H1181 N1175 0.985 . S
H1182 N1179 0.984 . S
H1183 N1179 0.985 . S
H1184 N1178 0.984 . S
H1185 N1178 0.984 . S
H1186 N1174 0.984 . S
H1187 N1174 0.985 . S
C1188 C1189 1.363 . S
C1188 C1194 1.379 . S
C1188 N1196 1.356 . S
C1189 C1188 1.363 . S
C1189 C1195 1.363 . S
C1190 C1191 1.363 . S
C1190 C1195 1.379 . S
C1190 N1197 1.356 . S
C1191 C1190 1.363 . S
C1191 C1194 1.363 . S
N1192 C1194 1.356 . S
N1192 H1204 0.984 . S
N1192 H1205 0.985 . S
N1193 C1195 1.356 . S
N1193 H1198 0.984 . S
N1193 H1199 0.985 . S
C1194 C1188 1.379 . S
C1194 C1191 1.363 . S
C1194 N1192 1.356 . S
C1195 C1189 1.363 . S
C1195 C1190 1.379 . S
C1195 N1193 1.356 . S
N1196 C1188 1.356 . S
N1196 H1202 0.984 . S
N1196 H1203 0.984 . S
N1197 C1190 1.356 . S
N1197 H1200 0.984 . S
N1197 H1201 0.985 . S
H1198 N1193 0.984 . S
H1199 N1193 0.985 . S
H1200 N1197 0.984 . S
H1201 N1197 0.985 . S
H1202 N1196 0.984 . S
H1203 N1196 0.984 . S
H1204 N1192 0.984 . S
H1205 N1192 0.985 . S
C1206 C1207 1.363 . S
C1206 C1212 1.379 . S
C1206 N1214 1.356 . S
C1207 C1206 1.363 . S
C1207 C1213 1.363 . S
C1208 C1209 1.363 . S
C1208 C1213 1.379 . S
C1208 N1215 1.356 . S
C1209 C1208 1.363 . S
C1209 C1212 1.363 . S
N1210 C1212 1.356 . S
N1210 H1222 0.984 . S
N1210 H1223 0.985 . S
N1211 C1213 1.356 . S
N1211 H1216 0.984 . S
N1211 H1217 0.985 . S
C1212 C1206 1.379 . S
C1212 C1209 1.363 . S
C1212 N1210 1.356 . S
C1213 C1207 1.363 . S
C1213 C1208 1.379 . S
C1213 N1211 1.356 . S
N1214 C1206 1.356 . S
N1214 H1220 0.984 . S
N1214 H1221 0.984 . S
N1215 C1208 1.356 . S
N1215 H1218 0.984 . S
N1215 H1219 0.985 . S
H1216 N1211 0.984 . S
H1217 N1211 0.985 . S
H1218 N1215 0.984 . S
H1219 N1215 0.985 . S
H1220 N1214 0.984 . S
H1221 N1214 0.984 . S
H1222 N1210 0.984 . S
H1223 N1210 0.985 . S
C1224 C1225 1.363 . S
C1224 C1230 1.379 . S
C1224 N1232 1.356 . S
C1225 C1224 1.363 . S
C1225 C1231 1.363 . S
C1226 C1227 1.363 . S
C1226 C1231 1.379 . S
C1226 N1233 1.356 . S
C1227 C1226 1.363 . S
C1227 C1230 1.363 . S
N1228 C1230 1.356 . S
N1228 H1240 0.984 . S
N1228 H1241 0.985 . S
N1229 C1231 1.356 . S
N1229 H1234 0.984 . S
N1229 H1235 0.985 . S
C1230 C1224 1.379 . S
C1230 C1227 1.363 . S
C1230 N1228 1.356 . S
C1231 C1225 1.363 . S
C1231 C1226 1.379 . S
C1231 N1229 1.356 . S
N1232 C1224 1.356 . S
N1232 H1238 0.984 . S
N1232 H1239 0.984 . S
N1233 C1226 1.356 . S
N1233 H1236 0.984 . S
N1233 H1237 0.985 . S
H1234 N1229 0.984 . S
H1235 N1229 0.985 . S
H1236 N1233 0.984 . S
H1237 N1233 0.985 . S
H1238 N1232 0.984 . S
H1239 N1232 0.984 . S
H1240 N1228 0.984 . S
H1241 N1228 0.985 . S
C1242 C1243 1.363 . S
C1242 C1248 1.379 . S
C1242 N1250 1.356 . S
C1243 C1242 1.363 . S
C1243 C1249 1.363 . S
C1244 C1245 1.363 . S
C1244 C1249 1.379 . S
C1244 N1251 1.356 . S
C1245 C1244 1.363 . S
C1245 C1248 1.363 . S
N1246 C1248 1.356 . S
N1246 H1258 0.984 . S
N1246 H1259 0.985 . S
N1247 C1249 1.356 . S
N1247 H1252 0.984 . S
N1247 H1253 0.985 . S
C1248 C1242 1.379 . S
C1248 C1245 1.363 . S
C1248 N1246 1.356 . S
C1249 C1243 1.363 . S
C1249 C1244 1.379 . S
C1249 N1247 1.356 . S
N1250 C1242 1.356 . S
N1250 H1256 0.984 . S
N1250 H1257 0.984 . S
N1251 C1244 1.356 . S
N1251 H1254 0.984 . S
N1251 H1255 0.985 . S
H1252 N1247 0.984 . S
H1253 N1247 0.985 . S
H1254 N1251 0.984 . S
H1255 N1251 0.985 . S
H1256 N1250 0.984 . S
H1257 N1250 0.984 . S
H1258 N1246 0.984 . S
H1259 N1246 0.985 . S
C1260 C1261 1.363 . S
C1260 C1266 1.379 . S
C1260 N1268 1.356 . S
C1261 C1260 1.363 . S
C1261 C1267 1.363 1_655 S
C1262 C1263 1.363 . S
C1262 C1267 1.379 . S
C1262 N1269 1.356 . S
C1263 C1262 1.363 . S
C1263 C1266 1.363 1_455 S
N1264 C1266 1.356 . S
N1264 H1276 0.984 . S
N1264 H1277 0.985 . S
N1265 C1267 1.356 . S
N1265 H1270 0.984 . S
N1265 H1271 0.985 . S
C1266 C1260 1.379 . S
C1266 C1263 1.363 1_655 S
C1266 N1264 1.356 . S
C1267 C1261 1.363 1_455 S
C1267 C1262 1.379 . S
C1267 N1265 1.356 . S
N1268 C1260 1.356 . S
N1268 H1274 0.984 . S
N1268 H1275 0.984 . S
N1269 C1262 1.356 . S
N1269 H1272 0.984 . S
N1269 H1273 0.985 . S
H1270 N1265 0.984 . S
H1271 N1265 0.985 . S
H1272 N1269 0.984 . S
H1273 N1269 0.985 . S
H1274 N1268 0.984 . S
H1275 N1268 0.984 . S
H1276 N1264 0.984 . S
H1277 N1264 0.985 . S
C1278 C1279 1.363 . S
C1278 C1284 1.379 . S
C1278 N1286 1.356 . S
C1279 C1278 1.363 . S
C1279 C1285 1.363 . S
C1280 C1281 1.363 . S
C1280 C1285 1.379 . S
C1280 N1287 1.356 . S
C1281 C1280 1.363 . S
C1281 C1284 1.363 . S
N1282 C1284 1.356 . S
N1282 H1294 0.984 . S
N1282 H1295 0.985 . S
N1283 C1285 1.356 . S
N1283 H1288 0.984 . S
N1283 H1289 0.985 . S
C1284 C1278 1.379 . S
C1284 C1281 1.363 . S
C1284 N1282 1.356 . S
C1285 C1279 1.363 . S
C1285 C1280 1.379 . S
C1285 N1283 1.356 . S
N1286 C1278 1.356 . S
N1286 H1292 0.984 . S
N1286 H1293 0.984 . S
N1287 C1280 1.356 . S
N1287 H1290 0.984 . S
N1287 H1291 0.985 . S
H1288 N1283 0.984 . S
H1289 N1283 0.985 . S
H1290 N1287 0.984 . S
H1291 N1287 0.985 . S
H1292 N1286 0.984 . S
H1293 N1286 0.984 . S
H1294 N1282 0.984 . S
H1295 N1282 0.985 . S
C1296 C1297 1.363 . S
C1296 C1302 1.379 . S
C1296 N1304 1.356 . S
C1297 C1296 1.363 . S
C1297 C1303 1.363 1_565 S
C1298 C1299 1.363 . S
C1298 C1303 1.379 . S
C1298 N1305 1.356 . S
C1299 C1298 1.363 . S
C1299 C1302 1.363 1_545 S
N1300 C1302 1.356 . S
N1300 H1312 0.984 . S
N1300 H1313 0.985 . S
N1301 C1303 1.356 . S
N1301 H1306 0.984 . S
N1301 H1307 0.985 . S
C1302 C1296 1.379 . S
C1302 C1299 1.363 1_565 S
C1302 N1300 1.356 . S
C1303 C1297 1.363 1_545 S
C1303 C1298 1.379 . S
C1303 N1301 1.356 . S
N1304 C1296 1.356 . S
N1304 H1310 0.984 . S
N1304 H1311 0.984 . S
N1305 C1298 1.356 . S
N1305 H1308 0.984 . S
N1305 H1309 0.985 . S
H1306 N1301 0.984 . S
H1307 N1301 0.985 . S
H1308 N1305 0.984 . S
H1309 N1305 0.985 . S
H1310 N1304 0.984 . S
H1311 N1304 0.984 . S
H1312 N1300 0.984 . S
H1313 N1300 0.985 . S
C1314 C1315 1.363 1_556 S
C1314 C1320 1.379 . S
C1314 N1322 1.356 1_556 S
C1315 C1314 1.363 1_554 S
C1315 C1321 1.363 1_565 S
C1316 C1317 1.363 1_554 S
C1316 C1321 1.379 . S
C1316 N1323 1.356 1_554 S
C1317 C1316 1.363 1_556 S
C1317 C1320 1.363 1_545 S
N1318 C1320 1.356 . S
N1318 H1330 0.984 . S
N1318 H1331 0.985 . S
N1319 C1321 1.356 . S
N1319 H1324 0.984 . S
N1319 H1325 0.985 . S
C1320 C1314 1.379 . S
C1320 C1317 1.363 1_565 S
C1320 N1318 1.356 . S
C1321 C1315 1.363 1_545 S
C1321 C1316 1.379 . S
C1321 N1319 1.356 . S
N1322 C1314 1.356 1_554 S
N1322 H1328 0.984 1_554 S
N1322 H1329 0.984 . S
N1323 C1316 1.356 1_556 S
N1323 H1326 0.984 . S
N1323 H1327 0.985 1_556 S
H1324 N1319 0.984 . S
H1325 N1319 0.985 . S
H1326 N1323 0.984 . S
H1327 N1323 0.985 1_554 S
H1328 N1322 0.984 1_556 S
H1329 N1322 0.984 . S
H1330 N1318 0.984 . S
H1331 N1318 0.985 . S
C1332 C1333 1.363 1_455 S
C1332 C1338 1.379 . S
C1332 N1340 1.356 . S
C1333 C1332 1.363 1_655 S
C1333 C1339 1.363 1_556 S
C1334 C1335 1.363 1_655 S
C1334 C1339 1.379 . S
C1334 N1341 1.356 . S
C1335 C1334 1.363 1_455 S
C1335 C1338 1.363 1_554 S
N1336 C1338 1.356 . S
N1336 H1348 0.984 . S
N1336 H1349 0.985 . S
N1337 C1339 1.356 . S
N1337 H1342 0.984 . S
N1337 H1343 0.985 . S
C1338 C1332 1.379 . S
C1338 C1335 1.363 1_556 S
C1338 N1336 1.356 . S
C1339 C1333 1.363 1_554 S
C1339 C1334 1.379 . S
C1339 N1337 1.356 . S
N1340 C1332 1.356 . S
N1340 H1346 0.984 . S
N1340 H1347 0.984 . S
N1341 C1334 1.356 . S
N1341 H1344 0.984 . S
N1341 H1345 0.985 . S
H1342 N1337 0.984 . S
H1343 N1337 0.985 . S
H1344 N1341 0.984 . S
H1345 N1341 0.985 . S
H1346 N1340 0.984 . S
H1347 N1340 0.984 . S
H1348 N1336 0.984 . S
H1349 N1336 0.985 . S
C1350 C1351 1.363 1_556 S
C1350 C1356 1.379 . S
C1350 N1358 1.356 . S
C1351 C1350 1.363 1_554 S
C1351 C1357 1.363 . S
C1352 C1353 1.363 1_554 S
C1352 C1357 1.379 . S
C1352 N1359 1.356 . S
C1353 C1352 1.363 1_556 S
C1353 C1356 1.363 . S
N1354 C1356 1.356 . S
N1354 H1366 0.984 . S
N1354 H1367 0.985 . S
N1355 C1357 1.356 . S
N1355 H1360 0.984 . S
N1355 H1361 0.985 . S
C1356 C1350 1.379 . S
C1356 C1353 1.363 . S
C1356 N1354 1.356 . S
C1357 C1351 1.363 . S
C1357 C1352 1.379 . S
C1357 N1355 1.356 . S
N1358 C1350 1.356 . S
N1358 H1364 0.984 . S
N1358 H1365 0.984 1_556 S
N1359 C1352 1.356 . S
N1359 H1362 0.984 1_554 S
N1359 H1363 0.985 . S
H1360 N1355 0.984 . S
H1361 N1355 0.985 . S
H1362 N1359 0.984 1_556 S
H1363 N1359 0.985 . S
H1364 N1358 0.984 . S
H1365 N1358 0.984 1_554 S
H1366 N1354 0.984 . S
H1367 N1354 0.985 . S
C397 C7 1.609 . S
C399 C326 1.609 1_554 S
C415 C18 1.608 . S
C417 C304 1.608 1_554 S
C433 C29 1.608 . S
C435 C315 1.608 1_554 S
C451 C40 1.609 . S
C453 C150 1.609 . S
C469 C161 1.608 . S
C471 C51 1.608 . S
C487 C62 1.608 . S
C489 C139 1.608 . S
C505 C73 1.523 . S
C507 C260 1.523 1_556 S
C523 C84 1.523 . S
C525 C238 1.523 1_556 S
C541 C95 1.523 . S
C543 C249 1.523 1_556 S
C559 C348 1.523 . S
C561 C106 1.523 . S
C577 C117 1.523 . S
C579 C359 1.523 . S
C595 C128 1.523 . S
C597 C337 1.523 . S
C613 C172 1.608 . S
C615 C282 1.608 . S
C631 C183 1.608 . S
C633 C293 1.608 . S
C649 C194 1.608 . S
C651 C271 1.608 . S
C667 C392 1.523 1_545 S
C669 C205 1.523 1_565 S
C685 C216 1.523 1_455 S
C687 C370 1.523 1_655 S
C703 C381 1.523 . S
C705 C227 1.523 . S
C721 C5 1.401 . S
C723 C49 1.401 . S
C739 C60 1.401 . S
C741 C16 1.401 . S
C757 C38 1.401 . S
C759 C27 1.401 . S
C775 C115 1.299 . S
C777 C71 1.299 . S
C793 C82 1.299 . S
C795 C126 1.299 . S
C811 C104 1.299 . S
C813 C93 1.299 . S
C829 C137 1.401 . S
C831 C181 1.401 . S
C847 C148 1.401 . S
C849 C192 1.401 . S
C865 C170 1.401 . S
C867 C159 1.401 . S
C883 C203 1.299 . S
C885 C247 1.299 . S
C901 C214 1.299 . S
C903 C258 1.299 . S
C919 C236 1.299 . S
C921 C225 1.299 . S
C937 C269 1.401 . S
C939 C313 1.401 . S
C955 C280 1.401 . S
C957 C324 1.401 . S
C973 C291 1.401 . S
C975 C302 1.401 . S
C991 C379 1.299 . S
C993 C335 1.299 . S
C1009 C346 1.299 . S
C1011 C390 1.299 . S
C1027 C368 1.299 . S
C1029 C357 1.299 . S
C1045 C338 1.560 . S
C1047 C8 1.619 . S
C1063 C349 1.560 . S
C1065 C19 1.620 . S
C1081 C360 1.560 . S
C1083 C30 1.619 . S
C1099 C41 1.619 . S
C1101 C239 1.560 . S
C1117 C250 1.560 . S
C1119 C52 1.619 . S
C1135 C63 1.620 . S
C1137 C261 1.560 . S
C1153 C140 1.619 . S
C1155 C74 1.559 . S
C1171 C151 1.620 . S
C1173 C85 1.560 . S
C1189 C162 1.619 . S
C1191 C96 1.560 . S
C1207 C305 1.619 . S
C1209 C107 1.559 . S
C1225 C118 1.560 . S
C1227 C316 1.619 . S
C1243 C129 1.560 . S
C1245 C327 1.620 . S
C1261 C371 1.539 . S
C1263 C173 1.619 . S
C1279 C382 1.560 . S
C1281 C184 1.620 . S
C1297 C195 1.620 . S
C1299 C393 1.593 . S
C1315 C206 1.540 . S
C1317 C272 1.619 . S
C1333 C283 1.620 . S
C1335 C217 1.592 . S
C1351 C228 1.560 . S
C1353 C294 1.620 . S
