# Generated by pormake.
# Topology wmc, (6)-cn, num edge types: 1
# Building blocks:
#     Node 0, Type 0, BuildingBlock: VOLQOD_clean_sbu_1, # of connection points: 6
#     Node 1, Type 0, BuildingBlock: VOLQOD_clean_sbu_1, # of connection points: 6
#     Node 2, Type 0, BuildingBlock: VOLQOD_clean_sbu_1, # of connection points: 6
#     Node 3, Type 0, BuildingBlock: VOLQOD_clean_sbu_1, # of connection points: 6
#     Node 4, Type 0, BuildingBlock: VOLQOD_clean_sbu_1, # of connection points: 6
#     Node 5, Type 0, BuildingBlock: VOLQOD_clean_sbu_1, # of connection points: 6
#     Node 6, Type 0, BuildingBlock: VOLQOD_clean_sbu_1, # of connection points: 6
#     Node 7, Type 0, BuildingBlock: VOLQOD_clean_sbu_1, # of connection points: 6
#     Node 8, Type 0, BuildingBlock: VOLQOD_clean_sbu_1, # of connection points: 6
#     Node 9, Type 0, BuildingBlock: VOLQOD_clean_sbu_1, # of connection points: 6
#     Node 10, Type 0, BuildingBlock: VOLQOD_clean_sbu_1, # of connection points: 6
#     Node 11, Type 0, BuildingBlock: VOLQOD_clean_sbu_1, # of connection points: 6
#     Node 12, Type 0, BuildingBlock: VOLQOD_clean_sbu_1, # of connection points: 6
#     Node 13, Type 0, BuildingBlock: VOLQOD_clean_sbu_1, # of connection points: 6
#     Node 14, Type 0, BuildingBlock: VOLQOD_clean_sbu_1, # of connection points: 6
#     Node 15, Type 0, BuildingBlock: VOLQOD_clean_sbu_1, # of connection points: 6
#     Node 16, Type 0, BuildingBlock: VOLQOD_clean_sbu_1, # of connection points: 6
#     Node 17, Type 0, BuildingBlock: VOLQOD_clean_sbu_1, # of connection points: 6
#     Edge 18, Type (0, 0), BuildingBlock: EZIPEK_clean_linker_0, # of connection points: 2
#     Edge 19, Type (0, 0), BuildingBlock: EZIPEK_clean_linker_0, # of connection points: 2
#     Edge 20, Type (0, 0), BuildingBlock: EZIPEK_clean_linker_0, # of connection points: 2
#     Edge 21, Type (0, 0), BuildingBlock: EZIPEK_clean_linker_0, # of connection points: 2
#     Edge 22, Type (0, 0), BuildingBlock: EZIPEK_clean_linker_0, # of connection points: 2
#     Edge 23, Type (0, 0), BuildingBlock: EZIPEK_clean_linker_0, # of connection points: 2
#     Edge 24, Type (0, 0), BuildingBlock: EZIPEK_clean_linker_0, # of connection points: 2
#     Edge 25, Type (0, 0), BuildingBlock: EZIPEK_clean_linker_0, # of connection points: 2
#     Edge 26, Type (0, 0), BuildingBlock: EZIPEK_clean_linker_0, # of connection points: 2
#     Edge 27, Type (0, 0), BuildingBlock: EZIPEK_clean_linker_0, # of connection points: 2
#     Edge 28, Type (0, 0), BuildingBlock: EZIPEK_clean_linker_0, # of connection points: 2
#     Edge 29, Type (0, 0), BuildingBlock: EZIPEK_clean_linker_0, # of connection points: 2
#     Edge 30, Type (0, 0), BuildingBlock: EZIPEK_clean_linker_0, # of connection points: 2
#     Edge 31, Type (0, 0), BuildingBlock: EZIPEK_clean_linker_0, # of connection points: 2
#     Edge 32, Type (0, 0), BuildingBlock: EZIPEK_clean_linker_0, # of connection points: 2
#     Edge 33, Type (0, 0), BuildingBlock: EZIPEK_clean_linker_0, # of connection points: 2
#     Edge 34, Type (0, 0), BuildingBlock: EZIPEK_clean_linker_0, # of connection points: 2
#     Edge 35, Type (0, 0), BuildingBlock: EZIPEK_clean_linker_0, # of connection points: 2
#     Edge 36, Type (0, 0), BuildingBlock: EZIPEK_clean_linker_0, # of connection points: 2
#     Edge 37, Type (0, 0), BuildingBlock: EZIPEK_clean_linker_0, # of connection points: 2
#     Edge 38, Type (0, 0), BuildingBlock: EZIPEK_clean_linker_0, # of connection points: 2
#     Edge 39, Type (0, 0), BuildingBlock: EZIPEK_clean_linker_0, # of connection points: 2
#     Edge 40, Type (0, 0), BuildingBlock: EZIPEK_clean_linker_0, # of connection points: 2
#     Edge 41, Type (0, 0), BuildingBlock: EZIPEK_clean_linker_0, # of connection points: 2
#     Edge 42, Type (0, 0), BuildingBlock: EZIPEK_clean_linker_0, # of connection points: 2
#     Edge 43, Type (0, 0), BuildingBlock: EZIPEK_clean_linker_0, # of connection points: 2
#     Edge 44, Type (0, 0), BuildingBlock: EZIPEK_clean_linker_0, # of connection points: 2
#     Edge 45, Type (0, 0), BuildingBlock: EZIPEK_clean_linker_0, # of connection points: 2
#     Edge 46, Type (0, 0), BuildingBlock: EZIPEK_clean_linker_0, # of connection points: 2
#     Edge 47, Type (0, 0), BuildingBlock: EZIPEK_clean_linker_0, # of connection points: 2
#     Edge 48, Type (0, 0), BuildingBlock: EZIPEK_clean_linker_0, # of connection points: 2
#     Edge 49, Type (0, 0), BuildingBlock: EZIPEK_clean_linker_0, # of connection points: 2
#     Edge 50, Type (0, 0), BuildingBlock: EZIPEK_clean_linker_0, # of connection points: 2
#     Edge 51, Type (0, 0), BuildingBlock: EZIPEK_clean_linker_0, # of connection points: 2
#     Edge 52, Type (0, 0), BuildingBlock: EZIPEK_clean_linker_0, # of connection points: 2
#     Edge 53, Type (0, 0), BuildingBlock: EZIPEK_clean_linker_0, # of connection points: 2
#     Edge 54, Type (0, 0), BuildingBlock: EZIPEK_clean_linker_0, # of connection points: 2
#     Edge 55, Type (0, 0), BuildingBlock: EZIPEK_clean_linker_0, # of connection points: 2
#     Edge 56, Type (0, 0), BuildingBlock: EZIPEK_clean_linker_0, # of connection points: 2
#     Edge 57, Type (0, 0), BuildingBlock: EZIPEK_clean_linker_0, # of connection points: 2
#     Edge 58, Type (0, 0), BuildingBlock: EZIPEK_clean_linker_0, # of connection points: 2
#     Edge 59, Type (0, 0), BuildingBlock: EZIPEK_clean_linker_0, # of connection points: 2
#     Edge 60, Type (0, 0), BuildingBlock: EZIPEK_clean_linker_0, # of connection points: 2
#     Edge 61, Type (0, 0), BuildingBlock: EZIPEK_clean_linker_0, # of connection points: 2
#     Edge 62, Type (0, 0), BuildingBlock: EZIPEK_clean_linker_0, # of connection points: 2
#     Edge 63, Type (0, 0), BuildingBlock: EZIPEK_clean_linker_0, # of connection points: 2
#     Edge 64, Type (0, 0), BuildingBlock: EZIPEK_clean_linker_0, # of connection points: 2
#     Edge 65, Type (0, 0), BuildingBlock: EZIPEK_clean_linker_0, # of connection points: 2
#     Edge 66, Type (0, 0), BuildingBlock: EZIPEK_clean_linker_0, # of connection points: 2
#     Edge 67, Type (0, 0), BuildingBlock: EZIPEK_clean_linker_0, # of connection points: 2
#     Edge 68, Type (0, 0), BuildingBlock: EZIPEK_clean_linker_0, # of connection points: 2
#     Edge 69, Type (0, 0), BuildingBlock: EZIPEK_clean_linker_0, # of connection points: 2
#     Edge 70, Type (0, 0), BuildingBlock: EZIPEK_clean_linker_0, # of connection points: 2
#     Edge 71, Type (0, 0), BuildingBlock: EZIPEK_clean_linker_0, # of connection points: 2
# Relax obj value: 0.291
# Max RMSD: 0.168
# Mean RMSD: 0.168
data_MOF--net-wmc--node1-VOLQOD_clean_sbu_1--edge1-EZIPEK_clean_linker_0
_symmetry_space_group_name_H-M    P1
_symmetry_Int_Tables_number       1
_symmetry_cell_setting            triclinic
loop_
_symmetry_equiv_pos_as_xyz
'x, y, z'
_cell_length_a     37.571567
_cell_length_b     37.609715
_cell_length_c     24.098156
_cell_angle_alpha  89.781219
_cell_angle_beta   90.008357
_cell_angle_gamma 120.01967
loop_
_atom_site_label
_atom_site_type_symbol
_atom_site_fract_x
_atom_site_fract_y
_atom_site_fract_z
_atom_type_partial_charge
O0 O 0.67699 0.19299 -0.01366 0.0
Zn1 Zn 0.64317 0.13318 0.9757 0.0
O2 O 0.5914 0.11414 0.01086 0.0
Zn3 Zn 0.55414 0.11525 0.95983 0.0
Zn4 Zn 0.60206 0.15243 0.06967 0.0
Zn5 Zn 0.57127 0.05905 0.03679 0.0
O6 O 0.5011 0.06306 0.95989 0.0
O7 O 0.51997 0.01782 -0.01395 0.0
O8 O 0.6387 0.12434 0.89391 0.0
O9 O 0.57816 0.12128 0.88586 0.0
O10 O 0.54596 0.16311 0.97075 0.0
O11 O 0.57676 0.18682 0.05185 0.0
O12 O 0.57448 0.12044 0.13821 0.0
O13 O 0.6738 0.11159 0.0171 0.0
O14 O 0.54332 0.05571 0.10778 0.0
O15 O 0.62512 0.05718 0.06249 0.0
C16 C 0.68535 0.21152 0.03251 0.0
C17 C 0.49318 0.02615 0.96507 0.0
C18 C 0.55673 0.18849 0.01047 0.0
C19 C 0.60998 0.12313 0.86457 0.0
C20 C 0.54949 0.0821 0.14482 0.0
C21 C 0.66342 0.0829 0.05246 0.0
O22 O 0.66274 0.19549 0.07528 0.0
O23 O 0.83933 0.49692 0.9061 0.0
Zn24 Zn 0.89739 0.51779 0.92933 0.0
O25 O 0.89959 0.48197 0.98156 0.0
Zn26 Zn 0.89997 0.43713 0.9481 0.0
Zn27 Zn 0.85276 0.4644 0.02527 0.0
Zn28 Zn 0.9502 0.51515 0.01883 0.0
O29 O 0.9529 0.43719 0.96441 0.0
O30 O 0.99553 0.50314 -0.01578 0.0
O31 O 0.93197 0.51663 0.86648 0.0
O32 O 0.90189 0.44861 0.86786 0.0
O33 O 0.84995 0.38243 0.96756 0.0
O34 O 0.81937 0.40393 0.02629 0.0
O35 O 0.8721 0.47727 0.10242 0.0
O36 O 0.91161 0.57033 0.97077 0.0
O37 O 0.93755 0.49215 0.09351 0.0
O38 O 0.95523 0.57239 0.03438 0.0
C39 C 0.81133 0.48967 0.9415 0.0
C40 C 0.98934 0.46744 0.96954 0.0
C41 C 0.82091 0.37515 0.00123 0.0
C42 C 0.92708 0.48313 0.84605 0.0
C43 C 0.90538 0.48132 0.12253 0.0
C44 C 0.93333 0.58667 0.01391 0.0
O45 O 0.81513 0.48321 -0.00734 0.0
O46 O 0.53301 0.34409 0.95464 0.0
Zn47 Zn 0.50965 0.38114 0.95991 0.0
O48 O 0.54846 0.43368 -0.01161 0.0
Zn49 Zn 0.57508 0.47006 0.92805 0.0
Zn50 Zn 0.58819 0.42399 0.02355 0.0
Zn51 Zn 0.52102 0.45354 0.03816 0.0
O52 O 0.57817 0.52284 0.94159 0.0
O53 O 0.52792 0.50975 0.00192 0.0
O54 O 0.48855 0.38478 0.88543 0.0
O55 O 0.54093 0.44584 0.86142 0.0
O56 O 0.63229 0.48091 0.91145 0.0
O57 O 0.6399 0.44627 0.98062 0.0
O58 O 0.60261 0.45278 0.09422 0.0
O59 O 0.46591 0.35282 0.01491 0.0
O60 O 0.55555 0.47151 0.10734 0.0
O61 O 0.46456 0.40058 0.06727 0.0
C62 C 0.55063 0.33756 -0.00484 0.0
C63 C 0.55622 0.53428 0.96747 0.0
C64 C 0.65341 0.46845 0.93747 0.0
C65 C 0.50737 0.4134 0.85011 0.0
C66 C 0.58679 0.46937 0.12331 0.0
C67 C 0.45069 0.36239 0.05519 0.0
O68 O 0.56822 0.36395 0.0333 0.0
O69 O 0.83507 0.34323 0.44091 0.0
Zn70 Zn 0.89369 0.38278 0.44039 0.0
O71 O 0.90655 0.42474 0.49219 0.0
Zn72 Zn 0.90438 0.46993 0.46301 0.0
Zn73 Zn 0.86746 0.39834 0.54983 0.0
Zn74 Zn 0.96159 0.44327 0.51388 0.0
O75 O 0.95754 0.5234 0.472 0.0
O76 O 1.00157 0.49986 0.47216 0.0
O77 O 0.9057 0.40558 0.3649 0.0
O78 O 0.90089 0.46121 0.38309 0.0
O79 O 0.85349 0.47056 0.48896 0.0
O80 O 0.83081 0.4223 0.5545 0.0
O81 O 0.8991 0.4131 0.62047 0.0
O82 O 0.91642 0.34825 0.46657 0.0
O83 O 0.96209 0.45984 0.59045 0.0
O84 O 0.96623 0.38961 0.52266 0.0
C85 C 0.81404 0.32449 0.48331 0.0
C86 C 0.99395 0.5296 0.46563 0.0
C87 C 0.82741 0.44906 0.52633 0.0
C88 C 0.90372 0.43691 0.34923 0.0
C89 C 0.9355 0.44286 0.62864 0.0
C90 C 0.94338 0.3535 0.50246 0.0
O91 O 0.82681 0.33796 0.53227 0.0
O92 O 0.67578 0.47007 0.47502 0.0
Zn93 Zn 0.64379 0.49848 0.4632 0.0
O94 O 0.58952 0.46872 0.49149 0.0
Zn95 Zn 0.55378 0.43921 0.43237 0.0
Zn96 Zn 0.59433 0.43108 0.53848 0.0
Zn97 Zn 0.57267 0.50321 0.53073 0.0
O98 O 0.50158 0.43947 0.43964 0.0
O99 O 0.51855 0.49621 0.48843 0.0
O100 O 0.64563 0.51293 0.38382 0.0
O101 O 0.58057 0.4682 0.36282 0.0
O102 O 0.54336 0.38138 0.42533 0.0
O103 O 0.57534 0.37826 0.50104 0.0
O104 O 0.5587 0.42074 0.60216 0.0
O105 O 0.67312 0.54725 0.5077 0.0
O106 O 0.55195 0.47617 0.60647 0.0
O107 O 0.62808 0.56077 0.54797 0.0
C108 C 0.6802 0.4592 0.52329 0.0
C109 C 0.49264 0.46565 0.45828 0.0
C110 C 0.55525 0.36232 0.45707 0.0
C111 C 0.61633 0.49668 0.3493 0.0
C112 C 0.54645 0.44237 0.6269 0.0
C113 C 0.66561 0.56983 0.53862 0.0
O114 O 0.65298 0.4501 0.56061 0.0
O115 O 0.52753 0.17694 0.43311 0.0
Zn116 Zn 0.50552 0.11943 0.45869 0.0
O117 O 0.54609 0.11382 0.49761 0.0
Zn118 Zn 0.57779 0.10509 0.444 0.0
Zn119 Zn 0.57777 0.16596 0.53142 0.0
Zn120 Zn 0.51886 0.06963 0.55057 0.0
O121 O 0.57894 0.05454 0.46276 0.0
O122 O 0.52862 0.02024 0.52432 0.0
O123 O 0.48592 0.08255 0.39338 0.0
O124 O 0.54815 0.09291 0.37216 0.0
O125 O 0.63647 0.15203 0.43881 0.0
O126 O 0.63432 0.1933 0.50283 0.0
O127 O 0.58491 0.15836 0.61061 0.0
O128 O 0.46201 0.11088 0.51164 0.0
O129 O 0.55195 0.09018 0.61959 0.0
O130 O 0.46284 0.06806 0.57481 0.0
C131 C 0.54191 0.20656 0.46721 0.0
C132 C 0.55714 0.02249 0.49169 0.0
C133 C 0.65371 0.18493 0.46711 0.0
C134 C 0.51073 0.08029 0.35968 0.0
C135 C 0.57528 0.12606 0.63863 0.0
C136 C 0.44835 0.09062 0.5564 0.0
O137 O 0.55645 0.20429 0.51402 0.0
O138 O 0.34336 0.52666 0.26368 0.0
Zn139 Zn 0.30832 0.46673 0.27705 0.0
O140 O 0.26046 0.45514 0.31669 0.0
Zn141 Zn 0.21875 0.44799 0.26757 0.0
Zn142 Zn 0.27664 0.5029 0.35855 0.0
Zn143 Zn 0.24234 0.40472 0.35757 0.0
O144 O 0.16514 0.40101 0.29199 0.0
O145 O 0.18638 0.358 0.31787 0.0
O146 O 0.29334 0.43572 0.20652 0.0
O147 O 0.23323 0.43325 0.19581 0.0
O148 O 0.21179 0.49724 0.26004 0.0
O149 O 0.24871 0.53285 0.33257 0.0
O150 O 0.25757 0.4845 0.43442 0.0
O151 O 0.34209 0.45336 0.32538 0.0
O152 O 0.22692 0.41591 0.43229 0.0
O153 O 0.29643 0.40147 0.3772 0.0
C154 C 0.35626 0.55183 0.30387 0.0
C155 C 0.15779 0.36442 0.29877 0.0
C156 C 0.22514 0.52801 0.29209 0.0
C157 C 0.26157 0.42703 0.17804 0.0
C158 C 0.23688 0.44941 0.45742 0.0
C159 C 0.33404 0.42718 0.36369 0.0
O160 O 0.33727 0.54323 0.35021 0.0
O161 O 0.50884 0.84521 0.27265 0.0
Zn162 Zn 0.56777 0.86343 0.28672 0.0
O163 O 0.57195 0.81954 0.31916 0.0
Zn164 Zn 0.57625 0.78604 0.26561 0.0
Zn165 Zn 0.52365 0.7901 0.36367 0.0
Zn166 Zn 0.62006 0.84181 0.36342 0.0
O167 O 0.62509 0.77963 0.27703 0.0
O168 O 0.66811 0.83727 0.32093 0.0
O169 O 0.59585 0.87922 0.21281 0.0
O170 O 0.58531 0.81635 0.19539 0.0
O171 O 0.52614 0.72985 0.26284 0.0
O172 O 0.49326 0.73199 0.33845 0.0
O173 O 0.54092 0.78841 0.44239 0.0
O174 O 0.58394 0.90677 0.34414 0.0
O175 O 0.60424 0.80084 0.42366 0.0
O176 O 0.62189 0.89365 0.40283 0.0
C177 C 0.47941 0.8274 0.30704 0.0
C178 C 0.66133 0.80523 0.29277 0.0
C179 C 0.49651 0.71286 0.2972 0.0
C180 C 0.59553 0.85267 0.17982 0.0
C181 C 0.57326 0.78723 0.4557 0.0
C182 C 0.6031 0.91339 0.38993 0.0
O183 O 0.48256 0.80976 0.35065 0.0
O184 O 0.18876 0.68003 0.2632 0.0
Zn185 Zn 0.16856 0.71904 0.27895 0.0
O186 O 0.20903 0.76623 0.31819 0.0
Zn187 Zn 0.24246 0.8104 0.26985 0.0
Zn188 Zn 0.24254 0.7463 0.34929 0.0
Zn189 Zn 0.18266 0.78285 0.37289 0.0
O190 O 0.2427 0.86144 0.29013 0.0
O191 O 0.19349 0.84364 0.3533 0.0
O192 O 0.15612 0.73429 0.20548 0.0
O193 O 0.21583 0.79298 0.1977 0.0
O194 O 0.30172 0.82248 0.26489 0.0
O195 O 0.29651 0.76954 0.31255 0.0
O196 O 0.2577 0.76796 0.42389 0.0
O197 O 0.12083 0.68611 0.32853 0.0
O198 O 0.21716 0.79434 0.4394 0.0
O199 O 0.12657 0.7289 0.39624 0.0
C200 C 0.20271 0.66621 0.30026 0.0
C201 C 0.22186 0.87117 0.32169 0.0
C202 C 0.3173 0.80152 0.28344 0.0
C203 C 0.18239 0.76476 0.17712 0.0
C204 C 0.2456 0.78734 0.45405 0.0
C205 C 0.10887 0.69261 0.37476 0.0
O206 O 0.21754 0.68544 0.3453 0.0
O207 O 0.49073 0.68034 0.79944 0.0
Zn208 Zn 0.55158 0.71458 0.79038 0.0
O209 O 0.57301 0.76753 0.82235 0.0
Zn210 Zn 0.57523 0.80454 0.76704 0.0
Zn211 Zn 0.53 0.75611 0.87215 0.0
Zn212 Zn 0.62492 0.78658 0.86119 0.0
O213 O 0.62814 0.85695 0.77142 0.0
O214 O 0.67036 0.84089 0.81636 0.0
O215 O 0.56563 0.71748 0.71018 0.0
O216 O 0.57442 0.77985 0.69425 0.0
O217 O 0.52771 0.81497 0.77038 0.0
O218 O 0.49429 0.77517 0.84238 0.0
O219 O 0.55365 0.78913 0.93755 0.0
O220 O 0.57148 0.68517 0.8361 0.0
O221 O 0.61986 0.80841 0.93618 0.0
O222 O 0.62622 0.73141 0.88299 0.0
C223 C 0.47494 0.67185 0.84771 0.0
C224 C 0.66413 0.86642 0.78723 0.0
C225 C 0.49726 0.79913 0.80348 0.0
C226 C 0.57178 0.74659 0.67742 0.0
C227 C 0.58897 0.80757 0.95947 0.0
C228 C 0.59941 0.69365 0.8718 0.0
O229 O 0.49278 0.69588 0.88822 0.0
O230 O 0.34215 0.82317 0.77584 0.0
Zn231 Zn 0.30969 0.85067 0.77918 0.0
O232 O 0.25955 0.81658 0.81558 0.0
Zn233 Zn 0.22233 0.77992 0.76335 0.0
Zn234 Zn 0.27537 0.78758 0.86439 0.0
Zn235 Zn 0.24202 0.85077 0.85183 0.0
O236 O 0.17221 0.78423 0.76258 0.0
O237 O 0.18823 0.84232 0.80759 0.0
O238 O 0.30308 0.86217 0.70221 0.0
O239 O 0.24952 0.79921 0.69071 0.0
O240 O 0.20807 0.72101 0.77498 0.0
O241 O 0.25091 0.72945 0.84366 0.0
O242 O 0.24984 0.78556 0.93471 0.0
O243 O 0.3433 0.89923 0.82401 0.0
O244 O 0.2213 0.82493 0.92624 0.0
O245 O 0.29738 0.90639 0.87372 0.0
C246 C 0.35538 0.81536 0.8198 0.0
C247 C 0.16309 0.811 0.77793 0.0
C248 C 0.22388 0.7068 0.80883 0.0
C249 C 0.2788 0.83271 0.67142 0.0
C250 C 0.22811 0.79994 0.9537 0.0
C251 C 0.33504 0.91761 0.86133 0.0
O252 O 0.33651 0.80931 0.86581 0.0
O253 O 0.19983 0.52487 0.78678 0.0
Zn254 Zn 0.17528 0.46546 0.78952 0.0
O255 O 0.20652 0.451 0.83465 0.0
Zn256 Zn 0.24975 0.45276 0.794 0.0
Zn257 Zn 0.22571 0.49125 0.89148 0.0
Zn258 Zn 0.16969 0.39682 0.86061 0.0
O259 O 0.25055 0.40033 0.80225 0.0
O260 O 0.18384 0.35558 0.81693 0.0
O261 O 0.17339 0.4473 0.712 0.0
O262 O 0.23591 0.45412 0.71557 0.0
O263 O 0.30416 0.50316 0.81239 0.0
O264 O 0.28667 0.52558 0.88699 0.0
O265 O 0.21456 0.46135 0.9641 0.0
O266 O 0.12376 0.44941 0.82916 0.0
O267 O 0.19197 0.39732 0.93414 0.0
O268 O 0.1122 0.39461 0.87768 0.0
C269 C 0.20518 0.54655 0.82948 0.0
C270 C 0.22058 0.36352 0.80361 0.0
C271 C 0.3134 0.52854 0.85217 0.0
C272 C 0.20458 0.449 0.68853 0.0
C273 C 0.20667 0.42443 0.97175 0.0
C274 C 0.10246 0.42205 0.86487 0.0
O275 O 0.20735 0.53362 0.87797 0.0
O276 O 1.00101 0.86599 0.62597 0.0
Zn277 Zn 0.96849 0.80599 0.61518 0.0
O278 O 0.92162 0.78381 0.66029 0.0
Zn279 Zn 0.87676 0.78264 0.62396 0.0
Zn280 Zn 0.94051 0.82198 0.71926 0.0
Zn281 Zn 0.90853 0.73045 0.68452 0.0
O282 O 0.82797 0.72568 0.62653 0.0
O283 O 0.85616 0.68621 0.64058 0.0
O284 O 0.95222 0.79502 0.53619 0.0
O285 O 0.89282 0.79494 0.54398 0.0
O286 O 0.86355 0.82441 0.65543 0.0
O287 O 0.91766 0.85929 0.70985 0.0
O288 O 0.91553 0.79026 0.78846 0.0
O289 O 1.00627 0.78804 0.6452 0.0
O290 O 0.88413 0.72554 0.75819 0.0
O291 O 0.96608 0.73432 0.69892 0.0
C292 C 0.01813 0.87961 0.67261 0.0
C293 C 0.82498 0.6904 0.62796 0.0
C294 C 0.8857 0.8553 0.68599 0.0
C295 C 0.92156 0.79573 0.5148 0.0
C296 C 0.89083 0.75193 0.79536 0.0
C297 C 1.00207 0.76174 0.68179 0.0
O298 O 1.00211 0.85984 0.71743 0.0
O299 O 0.1594 0.14811 0.66632 0.0
Zn300 Zn 0.21892 0.17411 0.64817 0.0
O301 O 0.24233 0.14506 0.68281 0.0
Zn302 Zn 0.24381 0.10728 0.63217 0.0
Zn303 Zn 0.20143 0.11424 0.7357 0.0
Zn304 Zn 0.29449 0.18031 0.71895 0.0
O305 O 0.29778 0.10993 0.63683 0.0
O306 O 0.33992 0.17098 0.67519 0.0
O307 O 0.22516 0.17639 0.56627 0.0
O308 O 0.23844 0.12521 0.55665 0.0
O309 O 0.19659 0.04907 0.64111 0.0
O310 O 0.16254 0.05946 0.70824 0.0
O311 O 0.22802 0.10459 0.79784 0.0
O312 O 0.241 0.22814 0.68295 0.0
O313 O 0.29192 0.15641 0.79597 0.0
O314 O 0.29396 0.23653 0.73469 0.0
C315 C 0.1466 0.14342 0.71608 0.0
C316 C 0.3339 0.13798 0.64985 0.0
C317 C 0.16533 0.03645 0.67252 0.0
C318 C 0.23195 0.15272 0.53626 0.0
C319 C 0.26337 0.12425 0.81933 0.0
C320 C 0.26862 0.24835 0.71859 0.0
O321 O 0.16647 0.13889 0.75557 0.0
O322 O 0.88763 0.02119 0.64903 0.0
Zn323 Zn 0.86099 0.05326 0.62805 0.0
O324 O 0.88561 0.10225 0.66864 0.0
Zn325 Zn 0.93166 0.1415 0.6286 0.0
Zn326 Zn 0.89905 0.08388 0.73487 0.0
Zn327 Zn 0.84719 0.11942 0.68537 0.0
O328 O 0.9282 0.19318 0.62112 0.0
O329 O 0.86071 0.1698 0.63132 0.0
O330 O 0.86667 0.06404 0.5464 0.0
O331 O 0.92769 0.12124 0.55091 0.0
O332 O 0.98389 0.14872 0.66283 0.0
O333 O 0.95895 0.10417 0.73329 0.0
O334 O 0.89089 0.11226 0.79929 0.0
O335 O 0.80434 0.01878 0.65701 0.0
O336 O 0.86525 0.14777 0.75814 0.0
O337 O 0.79153 0.06293 0.70196 0.0
C338 C 0.8783 1.00378 0.69638 0.0
C339 C 0.89715 0.1983 0.61638 0.0
C340 C 0.98883 0.12986 0.70358 0.0
C341 C 0.89896 0.09236 0.52317 0.0
C342 C 0.88081 0.13998 0.79998 0.0
C343 C 0.78193 0.02578 0.68949 0.0
O344 O 0.87163 0.02128 0.73719 0.0
O345 O 0.17497 0.01258 0.11686 0.0
Zn346 Zn 0.23309 0.05077 0.13844 0.0
O347 O 0.23902 0.10053 0.16802 0.0
Zn348 Zn 0.25006 0.13837 0.10928 0.0
Zn349 Zn 0.18639 0.08557 0.1987 0.0
Zn350 Zn 0.28425 0.12196 0.22055 0.0
O351 O 0.29744 0.19267 0.1272 0.0
O352 O 0.33445 0.17909 0.18688 0.0
O353 O 0.26794 0.06138 0.07143 0.0
O354 O 0.2665 0.11739 0.04467 0.0
O355 O 0.2022 0.14656 0.08927 0.0
O356 O 0.16096 0.11409 0.16041 0.0
O357 O 0.19442 0.10412 0.27662 0.0
O358 O 0.24367 0.02079 0.19771 0.0
O359 O 0.26265 0.13647 0.2875 0.0
O360 O 0.28811 0.07045 0.25299 0.0
C361 C 0.1435 1.00339 0.1464 0.0
C362 C 0.33088 0.20407 0.1531 0.0
C363 C 0.16939 0.13571 0.1167 0.0
C364 C 0.27509 0.08914 0.03573 0.0
C365 C 0.2266 0.12533 0.30548 0.0
C366 C 0.26606 0.03199 0.24073 0.0
O367 O 0.14507 0.02541 0.18749 0.0
O368 O 0.01737 0.17284 0.08171 0.0
Zn369 Zn 0.97678 0.1899 0.10471 0.0
O370 O 0.9304 0.14615 0.14215 0.0
Zn371 Zn 0.89055 0.11641 0.0869 0.0
Zn372 Zn 0.95032 0.11333 0.17627 0.0
Zn373 Zn 0.90916 0.16781 0.19717 0.0
O374 O 0.83653 0.10963 0.10687 0.0
O375 O 0.84848 0.15474 0.17372 0.0
O376 O 0.95914 0.20959 0.0381 0.0
O377 O 0.90529 0.14871 0.01775 0.0
O378 O 0.88266 0.06049 0.07536 0.0
O379 O 0.91818 0.05646 0.14687 0.0
O380 O 0.94254 0.11102 0.25914 0.0
O381 O 1.00755 0.23328 0.15985 0.0
O382 O 0.89823 0.13383 0.26527 0.0
O383 O 0.96093 0.22457 0.22384 0.0
C384 C 0.0295 0.15336 0.11233 0.0
C385 C 0.82356 0.12729 0.13916 0.0
C386 C 0.89441 0.04055 0.10554 0.0
C387 C 0.93021 0.18607 0.00562 0.0
C388 C 0.91718 0.11711 0.28678 0.0
C389 C 0.99833 0.24316 0.20569 0.0
O390 O 1.0092 0.13305 0.15479 0.0
O391 O 0.85451 0.85133 0.07511 0.0
Zn392 Zn 0.83407 0.79392 0.09852 0.0
O393 O 0.87521 0.78968 0.13718 0.0
Zn394 Zn 0.9096 0.78749 0.08229 0.0
Zn395 Zn 0.90149 0.83855 0.17873 0.0
Zn396 Zn 0.84888 0.74238 0.1836 0.0
O397 O 0.91268 0.7366 0.09198 0.0
O398 O 0.86034 0.69642 0.14799 0.0
O399 O 0.81662 0.75719 0.03365 0.0
O400 O 0.88167 0.77872 0.00978 0.0
O401 O 0.96657 0.8374 0.08403 0.0
O402 O 0.96074 0.8691 0.15852 0.0
O403 O 0.89776 0.82449 0.25914 0.0
O404 O 0.78984 0.78279 0.15076 0.0
O405 O 0.88119 0.75871 0.25341 0.0
O406 O 0.79219 0.73884 0.2105 0.0
C407 C 0.86721 0.87971 0.11102 0.0
C408 C 0.89007 0.70191 0.11515 0.0
C409 C 0.98189 0.86644 0.1193 0.0
C410 C 0.84332 0.75988 -0.001 0.0
C411 C 0.89384 0.79175 0.28078 0.0
C412 C 0.77672 0.7611 0.1944 0.0
O413 O 0.87962 0.87598 0.15876 0.0
C414 C 0.5803 0.25689 0.96758 0.0
C415 C 0.55275 0.22516 0.0039 0.0
C416 C 0.52428 0.26756 0.03543 0.0
C417 C 0.55084 0.29867 -0.00234 0.0
N418 N 0.60002 0.32194 0.92261 0.0
N419 N 0.49521 0.19686 0.06678 0.0
C420 C 0.57749 0.29292 0.96195 0.0
C421 C 0.52376 0.22952 0.03636 0.0
N422 N 0.61048 0.25337 0.94061 0.0
N423 N 0.49989 0.27468 0.07053 0.0
H424 H 0.49434 0.1687 0.06831 0.0
H425 H 0.47066 0.19639 0.08743 0.0
H426 H 0.49799 0.3014 0.06909 0.0
H427 H 0.48295 0.25519 0.10296 0.0
H428 H 0.63456 0.27729 0.91895 0.0
H429 H 0.6136 0.22738 0.94329 0.0
H430 H 0.61626 0.31751 0.891 0.0
H431 H 0.60053 0.34983 0.9192 0.0
C432 C 0.71327 0.28669 0.02703 0.0
C433 C 0.72064 0.25358 0.03393 0.0
C434 C 0.79473 0.30082 0.0254 0.0
C435 C 0.78676 0.33276 0.01056 0.0
N436 N 0.73716 0.35308 -0.01517 0.0
N437 N 0.76763 0.22744 0.03179 0.0
C438 C 0.74565 0.32497 0.00823 0.0
C439 C 0.76119 0.26011 0.03079 0.0
N440 N 0.67526 0.28153 0.03774 0.0
N441 N 0.83389 0.30945 0.03675 0.0
H442 H 0.74393 0.19728 0.03769 0.0
H443 H 0.79604 0.23004 0.02329 0.0
H444 H 0.85921 0.33907 0.03524 0.0
H445 H 0.8407 0.28783 0.05299 0.0
H446 H 0.66931 0.30577 0.03837 0.0
H447 H 0.65062 0.25371 0.05116 0.0
H448 H 0.70738 0.34709 0.97703 0.0
H449 H 0.75967 0.38059 0.9673 0.0
C450 C 0.7286 0.51772 0.94055 0.0
C451 C 0.69546 0.4808 0.91972 0.0
C452 C 0.74157 0.45453 0.89808 0.0
C453 C 0.77388 0.48975 0.92379 0.0
N454 N 0.80245 0.56 0.95229 0.0
N455 N 0.67104 0.42002 0.86455 0.0
C456 C 0.76878 0.52319 0.93922 0.0
C457 C 0.70234 0.45124 0.89335 0.0
N458 N 0.72115 0.54625 0.9645 0.0
N459 N 0.74798 0.42359 0.88086 0.0
H460 H 0.64228 0.4177 0.86047 0.0
H461 H 0.67429 0.39863 0.84113 0.0
H462 H 0.77685 0.42596 0.88186 0.0
H463 H 0.72469 0.39506 0.86758 0.0
H464 H 0.74304 0.57146 -0.01334 0.0
H465 H 0.6922 0.54375 0.96392 0.0
H466 H 0.80135 0.58672 0.9593 0.0
H467 H 0.83225 0.56465 0.95097 0.0
C468 C 0.75549 0.49207 0.54228 0.0
C469 C 0.71692 0.45591 0.53459 0.0
C470 C 0.7505 0.41514 0.52386 0.0
C471 C 0.78933 0.45118 0.5325 0.0
N472 N 0.82828 0.5217 0.56182 0.0
N473 N 0.67629 0.38215 0.53061 0.0
C474 C 0.79171 0.48908 0.54523 0.0
C475 C 0.71401 0.41711 0.52991 0.0
N476 N 0.75745 0.52928 0.54575 0.0
N477 N 0.74842 0.37964 0.50616 0.0
H478 H 0.6488 0.38254 0.53342 0.0
H479 H 0.67222 0.3527 0.53334 0.0
H480 H 0.77412 0.37656 0.49997 0.0
H481 H 0.72143 0.35408 0.49277 0.0
H482 H 0.78482 0.55726 0.54453 0.0
H483 H 0.7313 0.5322 0.54746 0.0
H484 H 0.83136 0.54903 0.57673 0.0
H485 H 0.85518 0.5202 0.56527 0.0
C486 C 0.5812 0.27975 0.43751 0.0
C487 C 0.54302 0.24489 0.45177 0.0
C488 C 0.50954 0.28637 0.45351 0.0
C489 C 0.54822 0.32148 0.44239 0.0
N490 N 0.61775 0.35145 0.40932 0.0
N491 N 0.46928 0.21207 0.46104 0.0
C492 C 0.58305 0.31797 0.42936 0.0
C493 C 0.50651 0.24719 0.45517 0.0
N494 N 0.61574 0.2764 0.43358 0.0
N495 N 0.47655 0.29095 0.4659 0.0
H496 H 0.46617 0.183 0.46444 0.0
H497 H 0.44119 0.21119 0.45876 0.0
H498 H 0.4776 0.31915 0.46305 0.0
H499 H 0.4487 0.26744 0.48109 0.0
H500 H 0.64537 0.30138 0.42988 0.0
H501 H 0.61498 0.24834 0.43635 0.0
H502 H 0.64348 0.35063 0.39512 0.0
H503 H 0.6194 0.37968 0.4025 0.0
C504 C 0.72566 0.21504 0.50032 0.0
C505 C 0.69763 0.21469 0.46073 0.0
C506 C 0.74592 0.2855 0.43455 0.0
C507 C 0.77443 0.28619 0.47435 0.0
N508 N 0.79612 0.24794 0.53234 0.0
N509 N 0.68432 0.24407 0.3804 0.0
C510 C 0.76575 0.24982 0.50352 0.0
C511 C 0.70909 0.2481 0.42432 0.0
N512 N 0.71343 0.18257 0.53591 0.0
N513 N 0.75253 0.32086 0.409 0.0
H514 H 0.65692 0.21686 0.37256 0.0
H515 H 0.69274 0.26593 0.34898 0.0
H516 H 0.77839 0.34949 0.41539 0.0
H517 H 0.73043 0.32273 0.38509 0.0
H518 H 0.73049 0.18311 0.5703 0.0
H519 H 0.68504 0.15563 0.53242 0.0
H520 H 0.79239 0.22108 0.5504 0.0
H521 H 0.82639 0.27214 0.53355 0.0
C522 C 0.1767 0.59272 0.32266 0.0
C523 C 0.20285 0.6278 0.29042 0.0
C524 C 0.23328 0.59085 0.24605 0.0
C525 C 0.212 0.55847 0.28456 0.0
N526 N 0.163 0.52678 0.35889 0.0
N527 N 0.25713 0.66204 0.22279 0.0
C528 C 0.18314 0.55865 0.32231 0.0
C529 C 0.23098 0.62719 0.25166 0.0
N530 N 0.14547 0.59196 0.35283 0.0
N531 N 0.25593 0.58688 0.20467 0.0
H532 H 0.25617 0.68921 0.22544 0.0
H533 H 0.28159 0.66507 0.19893 0.0
H534 H 0.25848 0.56067 0.20012 0.0
H535 H 0.26929 0.60781 0.17221 0.0
H536 H 0.12295 0.56602 0.37336 0.0
H537 H 0.14 0.61657 0.35367 0.0
H538 H 0.14544 0.52719 0.39202 0.0
H539 H 0.16523 0.50023 0.35742 0.0
C540 C 0.46379 0.64013 0.32888 0.0
C541 C 0.46493 0.66946 0.29069 0.0
C542 C 0.39563 0.62085 0.25874 0.0
C543 C 0.3944 0.59144 0.29694 0.0
N544 N 0.42985 0.56888 0.35854 0.0
N545 N 0.43738 0.68524 0.21007 0.0
C546 C 0.42932 0.5998 0.32912 0.0
C547 C 0.43265 0.65888 0.25234 0.0
N548 N 0.49534 0.65122 0.36559 0.0
N549 N 0.36078 0.61343 0.2311 0.0
H550 H 0.46408 0.71355 0.2046 0.0
H551 H 0.4165 0.67762 0.17767 0.0
H552 H 0.3329 0.58603 0.23499 0.0
H553 H 0.35848 0.63556 0.20777 0.0
H554 H 0.49408 0.63313 0.39917 0.0
H555 H 0.52239 0.67963 0.36384 0.0
H556 H 0.45583 0.57199 0.3785 0.0
H557 H 0.40518 0.53882 0.35917 0.0
C558 C 0.41055 0.79172 0.26109 0.0
C559 C 0.43979 0.82477 0.29377 0.0
C560 C 0.39097 0.849 0.30854 0.0
C561 C 0.36146 0.8155 0.27661 0.0
N562 N 0.34584 0.76179 0.21098 0.0
N563 N 0.46241 0.8906 0.3359 0.0
C564 C 0.3723 0.78911 0.24899 0.0
C565 C 0.4315 0.85538 0.31326 0.0
N566 N 0.41885 0.76214 0.24328 0.0
N567 N 0.37964 0.8731 0.33718 0.0
H568 H 0.49235 0.89602 0.3403 0.0
H569 H 0.45926 0.91576 0.34608 0.0
H570 H 0.35066 0.8702 0.33374 0.0
H571 H 0.39816 0.89447 0.36681 0.0
H572 H 0.39712 0.73488 0.22474 0.0
H573 H 0.44701 0.7637 0.25013 0.0
H574 H 0.35293 0.74373 0.18585 0.0
H575 H 0.318 0.76012 0.20093 0.0
C576 C 0.4669 0.84327 0.82194 0.0
C577 C 0.4634 0.8074 0.7977 0.0
C578 C 0.38881 0.7757 0.7928 0.0
C579 C 0.39231 0.81195 0.81569 0.0
N580 N 0.43366 0.88257 0.84418 0.0
N581 N 0.42365 0.74305 0.75043 0.0
C582 C 0.43111 0.84655 0.82788 0.0
C583 C 0.42505 0.77473 0.77994 0.0
N584 N 0.50407 0.87321 0.84149 0.0
N585 N 0.35083 0.74189 0.78506 0.0
H586 H 0.45005 0.74191 0.74012 0.0
H587 H 0.39712 0.71985 0.73208 0.0
H588 H 0.32354 0.74167 0.79387 0.0
H589 H 0.34616 0.71314 0.77401 0.0
H590 H 0.50783 0.89771 0.8657 0.0
H591 H 0.53122 0.87249 0.83569 0.0
H592 H 0.46124 0.9102 0.84768 0.0
H593 H 0.40786 0.88551 0.8512 0.0
C594 C 0.18093 0.59601 0.85238 0.0
C595 C 0.20739 0.58664 0.82155 0.0
C596 C 0.23386 0.65154 0.77017 0.0
C597 C 0.21259 0.6634 0.80723 0.0
N598 N 0.1676 0.64894 0.88574 0.0
N599 N 0.2617 0.60703 0.75308 0.0
C600 C 0.18648 0.63615 0.84888 0.0
C601 C 0.23426 0.61459 0.78043 0.0
N602 N 0.14918 0.56607 0.88261 0.0
N603 N 0.25388 0.6758 0.72532 0.0
H604 H 0.26361 0.58058 0.75858 0.0
H605 H 0.28536 0.62869 0.72823 0.0
H606 H 0.25491 0.70359 0.71734 0.0
H607 H 0.26629 0.66681 0.69339 0.0
H608 H 0.12651 0.57018 0.90132 0.0
H609 H 0.14286 0.53575 0.8843 0.0
H610 H 0.15233 0.63233 0.92115 0.0
H611 H 0.16916 0.67737 0.88244 0.0
C612 C 0.35959 0.60495 0.85437 0.0
C613 C 0.3551 0.56503 0.85508 0.0
C614 C 0.43001 0.59546 0.85384 0.0
C615 C 0.43419 0.63511 0.85543 0.0
N616 N 0.40389 0.67792 0.86825 0.0
N617 N 0.38532 0.5221 0.86721 0.0
C618 C 0.39925 0.6399 0.85957 0.0
C619 C 0.39015 0.56018 0.85804 0.0
N620 N 0.32628 0.60974 0.84539 0.0
N621 N 0.46413 0.59162 0.8479 0.0
H622 H 0.35657 0.49577 0.87173 0.0
H623 H 0.40962 0.51698 0.87526 0.0
H624 H 0.49394 0.61672 0.84817 0.0
H625 H 0.46293 0.56386 0.83987 0.0
H626 H 0.32844 0.63797 0.83722 0.0
H627 H 0.29647 0.58533 0.84109 0.0
H628 H 0.37965 0.68273 0.87818 0.0
H629 H 0.4324 0.70463 0.87021 0.0
C630 C 0.85371 0.93478 0.65519 0.0
C631 C 0.87203 0.96165 0.70075 0.0
C632 C 0.88383 0.90964 0.74405 0.0
C633 C 0.87587 0.88871 0.69248 0.0
N634 N 0.86087 0.88849 0.59415 0.0
N635 N 0.90966 0.97582 0.78725 0.0
C636 C 0.86236 0.90275 0.64668 0.0
C637 C 0.88812 0.94933 0.7454 0.0
N638 N 0.82803 0.93972 0.61996 0.0
N639 N 0.88665 0.89149 0.79176 0.0
H640 H 0.91539 1.00588 0.78908 0.0
H641 H 0.92526 0.96899 0.81742 0.0
H642 H 0.88121 0.86144 0.79287 0.0
H643 H 0.88936 0.90445 0.83081 0.0
H644 H 0.81175 0.91882 0.58855 0.0
H645 H 0.8192 0.96159 0.62663 0.0
H646 H 0.85442 0.90105 0.55957 0.0
H647 H 0.87097 0.8682 0.58362 0.0
C648 C 0.09221 0.9921 0.6481 0.0
C649 C 0.12957 0.99521 0.66608 0.0
C650 C 0.09419 0.92162 0.68652 0.0
C651 C 0.05628 0.91953 0.67385 0.0
N652 N 0.01787 0.95328 0.65111 0.0
N653 N 0.16649 0.96496 0.70808 0.0
C654 C 0.0549 0.95491 0.65681 0.0
C655 C 0.1308 0.96048 0.68656 0.0
N656 N 0.09265 0.02466 0.62188 0.0
N657 N 0.09531 0.88643 0.69684 0.0
H658 H 0.19416 0.9928 0.70738 0.0
H659 H 0.16819 0.94182 0.72966 0.0
H660 H 0.06897 0.85754 0.69829 0.0
H661 H 0.12244 0.88545 0.70016 0.0
H662 H 0.06697 0.02308 0.60301 0.0
H663 H 0.11967 0.05241 0.61457 0.0
H664 H 0.01494 0.97904 0.64439 0.0
H665 H 0.98977 0.92661 0.6581 0.0
C666 C 0.03299 0.09795 0.71033 0.0
C667 C 0.02939 0.13379 0.71289 0.0
C668 C 0.10357 0.17626 0.72724 0.0
C669 C 0.10658 0.14019 0.72622 0.0
N670 N 0.07393 0.06656 0.73237 0.0
N671 N 0.05912 0.20563 0.73491 0.0
C672 C 0.07108 0.10094 0.72329 0.0
C673 C 0.0641 0.17264 0.72476 0.0
N674 N 1.00094 0.06164 0.69177 0.0
N675 N 0.13853 0.21386 0.72926 0.0
H676 H 0.03056 0.20389 0.73343 0.0
H677 H 0.08261 0.23379 0.74903 0.0
H678 H 0.16764 0.21723 0.73437 0.0
H679 H 0.13894 0.24152 0.72359 0.0
H680 H 1.00338 0.03575 0.6838 0.0
H681 H 0.97302 0.05831 0.67863 0.0
H682 H 0.04847 0.03716 0.73568 0.0
H683 H 0.10158 0.06797 0.74246 0.0
C684 C 0.10479 0.11956 0.06837 0.0
C685 C 0.13958 0.14803 0.09888 0.0
C686 C 0.10569 0.18733 0.12153 0.0
C687 C 0.06862 0.15488 0.09961 0.0
N688 N 0.03202 0.09124 0.04962 0.0
N689 N 0.1759 0.21056 0.1509 0.0
C690 C 0.06807 0.1216 0.07137 0.0
C691 C 0.14113 0.18293 0.12347 0.0
N692 N 0.10714 0.09057 0.0371 0.0
N693 N 0.10653 0.2218 0.14124 0.0
H694 H 0.20281 0.20888 0.15044 0.0
H695 H 0.17808 0.23437 0.17516 0.0
H696 H 0.08083 0.22553 0.14087 0.0
H697 H 0.13302 0.24783 0.15465 0.0
H698 H 0.08396 0.07029 0.01076 0.0
H699 H 0.13417 0.08924 0.03404 0.0
H700 H 0.02812 0.06378 0.03394 0.0
H701 H 1.00513 0.09293 0.04917 0.0
C702 C 0.83935 0.92622 0.12635 0.0
C703 C 0.86721 0.91775 0.09789 0.0
C704 C 0.90193 0.98662 0.05754 0.0
C705 C 0.87931 0.99715 0.09418 0.0
N706 N 0.82495 0.97826 0.16088 0.0
N707 N 0.92428 0.93807 0.03509 0.0
C708 C 0.847 0.96711 0.1272 0.0
C709 C 0.89778 0.94714 0.06202 0.0
N710 N 0.80568 0.89504 0.15213 0.0
N711 N 0.92757 0.01463 0.01921 0.0
H712 H 0.92147 0.90907 0.03643 0.0
H713 H 0.95028 0.95966 0.01368 0.0
H714 H 0.93106 0.04386 0.01548 0.0
H715 H 0.94257 1.00795 -0.01183 0.0
H716 H 0.78227 0.89837 0.16989 0.0
H717 H 0.79937 0.86468 0.15167 0.0
H718 H 0.80424 0.9591 0.19089 0.0
H719 H 0.82856 1.00764 0.16007 0.0
C720 C 0.08175 0.96381 0.08591 0.0
C721 C 0.10456 0.96552 0.13385 0.0
C722 C 0.0512 0.89622 0.16072 0.0
C723 C 0.026 0.89711 0.11776 0.0
N724 N 0.01564 0.93061 0.03921 0.0
N725 N 0.11225 0.93397 0.21671 0.0
C726 C 0.04104 0.93028 0.07959 0.0
C727 C 0.08975 0.93173 0.171 0.0
N728 N 0.09888 0.99432 0.04684 0.0
N729 N 0.03835 0.86093 0.19086 0.0
H730 H 0.14215 0.95792 0.22308 0.0
H731 H 0.10056 0.91317 0.2495 0.0
H732 H 1.01033 0.83426 0.18362 0.0
H733 H 0.05666 0.8567 0.21949 0.0
H734 H 0.08564 0.99292 0.00839 0.0
H735 H 0.12794 0.02016 0.05114 0.0
H736 H 0.02262 0.956 0.01442 0.0
H737 H 0.98635 0.90572 0.03208 0.0
C738 C 0.51013 0.03587 0.28618 0.0
C739 C 0.49767 0.06371 0.30377 0.0
C740 C 0.50034 0.08657 0.20866 0.0
C741 C 0.52458 0.06856 0.19544 0.0
N742 N 0.55005 0.02271 0.21926 0.0
N743 N 0.47287 0.11005 0.28172 0.0
C744 C 0.52762 0.04099 0.23278 0.0
C745 C 0.48892 0.08639 0.26466 0.0
N746 N 0.5076 1.00673 0.32246 0.0
N747 N 0.48878 0.10393 0.16767 0.0
H748 H 0.46171 0.10836 0.32178 0.0
H749 H 0.47115 0.1317 0.25656 0.0
H750 H 0.49649 0.10377 0.12608 0.0
H751 H 0.4686 0.11494 0.17388 0.0
H752 H 0.51421 0.98386 0.31175 0.0
H753 H 0.49521 1.00368 0.36219 0.0
H754 H 0.5569 1.0059 0.24734 0.0
H755 H 0.56404 0.02623 0.18075 0.0
C756 C 0.87671 0.4602 0.2724 0.0
C757 C 0.90281 0.44527 0.29031 0.0
C758 C 0.92458 0.44677 0.19546 0.0
C759 C 0.90543 0.46979 0.1803 0.0
N760 N 0.87233 0.50776 0.20996 0.0
N761 N 0.95984 0.4343 0.26954 0.0
C762 C 0.88417 0.47944 0.22039 0.0
C763 C 0.92929 0.44135 0.25221 0.0
N764 N 0.84404 0.45476 0.30376 0.0
N765 N 0.93623 0.42822 0.15654 0.0
H766 H 0.96658 0.43307 0.31119 0.0
H767 H 0.98152 0.43456 0.24225 0.0
H768 H 0.92957 0.42751 0.11444 0.0
H769 H 0.94762 0.40888 0.16725 0.0
H770 H 0.82295 0.46308 0.28964 0.0
H771 H 0.83506 0.43733 0.34019 0.0
H772 H 0.85919 0.51729 0.24037 0.0
H773 H 0.88018 0.52527 0.17364 0.0
C774 C 0.61599 0.52782 0.25853 0.0
C775 C 0.62539 0.50201 0.29025 0.0
C776 C 0.61155 0.45648 0.21285 0.0
C777 C 0.60285 0.48251 0.17955 0.0
N778 N 0.60878 0.5491 0.1662 0.0
N779 N 0.64748 0.45207 0.29324 0.0
C780 C 0.609 0.52037 0.20084 0.0
C781 C 0.62942 0.47051 0.26518 0.0
N782 N 0.61222 0.55812 0.28396 0.0
N783 N 0.59885 0.41686 0.19772 0.0
H784 H 0.66018 0.46164 0.33265 0.0
H785 H 0.65358 0.4306 0.27495 0.0
H786 H 0.58055 0.40269 0.16322 0.0
H787 H 0.60176 0.39617 0.22357 0.0
H788 H 0.60083 0.57501 0.26407 0.0
H789 H 0.61903 0.56492 0.32595 0.0
H790 H 0.61603 0.57832 0.17932 0.0
H791 H 0.60545 0.54517 0.12331 0.0
C792 C 0.95457 0.51131 0.75126 0.0
C793 C 0.94725 0.48227 0.79356 0.0
C794 C 0.95251 0.43709 0.72529 0.0
C795 C 0.94649 0.45991 0.68385 0.0
N796 N 0.94337 0.51993 0.65471 0.0
N797 N 0.94995 0.42184 0.8227 0.0
C798 C 0.94878 0.49786 0.69572 0.0
C799 C 0.95038 0.4468 0.78117 0.0
N800 N 0.96811 0.55144 0.76366 0.0
N801 N 0.96019 0.40639 0.71088 0.0
H802 H 0.95336 0.43047 0.86403 0.0
H803 H 0.9461 0.39276 0.81649 0.0
H804 H 0.96188 0.39898 0.66962 0.0
H805 H 0.96845 0.39073 0.73904 0.0
H806 H 0.97592 0.57404 0.73341 0.0
H807 H 0.97774 0.56326 0.80333 0.0
H808 H 0.94 0.5453 0.66272 0.0
H809 H 0.93939 0.51128 0.61308 0.0
C810 C 0.49558 0.43354 0.70228 0.0
C811 C 0.52872 0.42871 0.68292 0.0
C812 C 0.52329 0.38984 0.76643 0.0
C813 C 0.49925 0.40447 0.79118 0.0
N814 N 0.46174 0.44048 0.78396 0.0
N815 N 0.58162 0.41189 0.70694 0.0
C816 C 0.48463 0.42603 0.75927 0.0
C817 C 0.54439 0.40886 0.71733 0.0
N818 N 0.47413 0.44408 0.66666 0.0
N819 N 0.52928 0.36105 0.79268 0.0
H820 H 0.60195 0.43118 0.6766 0.0
H821 H 0.59493 0.40009 0.73384 0.0
H822 H 0.51433 0.34712 0.82972 0.0
H823 H 0.54535 0.34816 0.77438 0.0
H824 H 0.44805 0.4452 0.6786 0.0
H825 H 0.47965 0.44714 0.62409 0.0
H826 H 0.45399 0.46037 0.76418 0.0
H827 H 0.45223 0.43363 0.82528 0.0
C828 C 0.6095 0.16293 0.7848 0.0
C829 C 0.61519 0.13079 0.80486 0.0
C830 C 0.60877 0.105 0.71101 0.0
C831 C 0.59233 0.13025 0.69456 0.0
N832 N 0.5715 0.17965 0.71995 0.0
N833 N 0.62009 0.07024 0.78791 0.0
C834 C 0.59182 0.15892 0.73213 0.0
C835 C 0.61551 0.10179 0.76816 0.0
N836 N 0.61959 0.19637 0.81723 0.0
N837 N 0.61877 0.08501 0.67222 0.0
H838 H 0.62598 0.06761 0.82956 0.0
H839 H 0.61571 0.0456 0.76342 0.0
H840 H 0.61632 0.08848 0.62966 0.0
H841 H 0.63376 0.06883 0.68209 0.0
H842 H 0.61867 0.22209 0.80291 0.0
H843 H 0.63311 0.19993 0.85621 0.0
H844 H 0.56741 0.19788 0.74881 0.0
H845 H 0.55462 0.17517 0.68378 0.0
C846 C 0.1862 0.42106 0.53619 0.0
C847 C 0.2265 0.44842 0.51621 0.0
C848 C 0.24511 0.48257 0.60527 0.0
C849 C 0.20813 0.45074 0.62811 0.0
N850 N 0.14515 0.38594 0.61695 0.0
N851 N 0.2976 0.49779 0.53752 0.0
C852 C 0.17884 0.41888 0.59413 0.0
C853 C 0.25699 0.4772 0.5523 0.0
N854 N 0.15478 0.39852 0.50024 0.0
N855 N 0.26874 0.51803 0.63404 0.0
H856 H 0.30853 0.49238 0.5006 0.0
H857 H 0.32088 0.51647 0.56506 0.0
H858 H 0.25988 0.52387 0.67244 0.0
H859 H 0.29448 0.54325 0.61674 0.0
H860 H 0.12426 0.38099 0.51301 0.0
H861 H 0.15839 0.40067 0.45725 0.0
H862 H 0.1253 0.35999 0.59414 0.0
H863 H 0.1389 0.38304 0.65938 0.0
C864 C 0.54116 0.73267 0.52883 0.0
C865 C 0.57536 0.76993 0.50973 0.0
C866 C 0.61297 0.77239 0.59343 0.0
C867 C 0.57565 0.74297 0.6177 0.0
N868 N 0.50386 0.69262 0.60933 0.0
N869 N 0.64375 0.82772 0.52715 0.0
C870 C 0.53973 0.72162 0.58535 0.0
C871 C 0.61182 0.7901 0.54222 0.0
N872 N 0.51076 0.70761 0.493 0.0
N873 N 0.64891 0.78476 0.62125 0.0
H874 H 0.64244 0.84508 0.49429 0.0
H875 H 0.6702 0.84399 0.55085 0.0
H876 H 0.64948 0.77206 0.65965 0.0
H877 H 0.67775 0.80408 0.60398 0.0
H878 H 0.48696 0.67856 0.50411 0.0
H879 H 0.51179 0.7139 0.45068 0.0
H880 H 0.47551 0.67979 0.58939 0.0
H881 H 0.5024 0.68277 0.65022 0.0
C882 C 0.28355 0.85804 0.57496 0.0
C883 C 0.28882 0.83276 0.61335 0.0
C884 C 0.27488 0.78114 0.54422 0.0
C885 C 0.26696 0.80504 0.50591 0.0
N886 N 0.28097 0.87273 0.47782 0.0
N887 N 0.30853 0.78191 0.63005 0.0
C888 C 0.27724 0.84592 0.51888 0.0
C889 C 0.29192 0.79871 0.59571 0.0
N890 N 0.28188 0.89167 0.59235 0.0
N891 N 0.26253 0.7408 0.53446 0.0
H892 H 0.32076 0.79467 0.66868 0.0
H893 H 0.3139 0.75845 0.61774 0.0
H894 H 0.24662 0.72495 0.49918 0.0
H895 H 0.26436 0.72167 0.56434 0.0
H896 H 0.27313 0.90826 0.56656 0.0
H897 H 0.2875 0.90175 0.63335 0.0
H898 H 0.29111 0.90365 0.48505 0.0
H899 H 0.2783 0.86501 0.43588 0.0
C900 C 0.5569 0.80832 0.04959 0.0
C901 C 0.59222 0.82614 0.0146 0.0
C902 C 0.6308 0.87503 0.08824 0.0
C903 C 0.59439 0.85801 0.12005 0.0
N904 N 0.52061 0.8217 0.12144 0.0
N905 N 0.65903 0.8859 -0.00452 0.0
C906 C 0.55651 0.8304 0.09593 0.0
C907 C 0.62828 0.8626 0.03205 0.0
N908 N 0.52581 0.76871 0.04282 0.0
N909 N 0.66749 0.90171 0.1121 0.0
H910 H 0.65682 0.87972 0.95316 0.0
H911 H 0.68442 0.91398 0.00622 0.0
H912 H 0.66927 0.91212 0.15269 0.0
H913 H 0.69566 0.9118 0.09239 0.0
H914 H 0.50102 0.75449 0.07021 0.0
H915 H 0.52774 0.74819 0.01573 0.0
H916 H 0.49192 0.80242 0.1038 0.0
H917 H 0.52031 0.8372 0.15717 0.0
C918 C 0.17141 0.77821 0.0249 0.0
C919 C 0.21196 0.78753 0.01011 0.0
C920 C 0.21813 0.75964 0.09762 0.0
C921 C 0.18341 0.76066 0.11736 0.0
N922 N 0.12622 0.77124 0.1014 0.0
N923 N 0.27802 0.79788 0.04156 0.0
C924 C 0.15941 0.76976 0.08144 0.0
C925 C 0.23653 0.78095 0.04881 0.0
N926 N 0.14411 0.77569 -0.01447 0.0
N927 N 0.23516 0.74113 0.12784 0.0
H928 H 0.29427 0.81859 0.00976 0.0
H929 H 0.29693 0.79575 0.0715 0.0
H930 H 0.22192 0.72536 0.16473 0.0
H931 H 0.25959 0.73806 0.1131 0.0
H932 H 0.11347 0.76607 -0.00546 0.0
H933 H 0.15063 0.77867 0.9432 0.0
H934 H 0.1101 0.78187 0.07796 0.0
H935 H 0.1163 0.76354 0.14242 0.0
C936 C 0.19904 0.3841 0.05807 0.0
C937 C 0.22429 0.4156 0.02021 0.0
C938 C 0.28391 0.43845 0.08016 0.0
C939 C 0.25703 0.41169 0.12132 0.0
N940 N 0.19662 0.34799 0.14317 0.0
N941 N 0.29265 0.4592 0.98357 0.0
C942 C 0.21726 0.38002 0.10721 0.0
C943 C 0.26756 0.43839 0.02736 0.0
N944 N 0.15775 0.36032 0.04893 0.0
N945 N 0.32395 0.46565 0.09271 0.0
H946 H 0.28138 0.45835 0.94373 0.0
H947 H 0.32459 0.47377 -0.01477 0.0
H948 H 0.3376 0.46391 0.12947 0.0
H949 H 0.34342 0.49005 0.06703 0.0
H950 H 0.13734 0.3392 0.0776 0.0
H951 H 0.14339 0.36319 0.01355 0.0
H952 H 0.16804 0.32256 0.13474 0.0
H953 H 0.2103 0.34595 0.17992 0.0
C954 C 0.8374 0.75673 0.84843 0.0
C955 C 0.86306 0.73929 0.84283 0.0
C956 C 0.84495 0.71095 0.93568 0.0
C957 C 0.83107 0.73893 0.94587 0.0
N958 N 0.80591 0.78243 0.91262 0.0
N959 N 0.88681 0.6943 0.87674 0.0
C960 C 0.82328 0.75882 0.90193 0.0
C961 C 0.86446 0.71347 0.88452 0.0
N962 N 0.82745 0.77166 0.80283 0.0
N963 N 0.84198 0.68465 0.97693 0.0
H964 H 0.90148 0.69579 0.83936 0.0
H965 H 0.89218 0.67825 0.90778 0.0
H966 H 0.82798 0.68373 0.01479 0.0
H967 H 0.85015 0.66216 0.97229 0.0
H968 H 0.80681 0.78249 0.80374 0.0
H969 H 0.83721 0.76976 0.76294 0.0
H970 H 0.80403 0.80201 0.88362 0.0
H971 H 0.79417 0.78288 0.9517 0.0
C972 C 0.23489 0.0821 0.90609 0.0
C973 C 0.26984 0.10881 0.87309 0.0
C974 C 0.31402 0.1091 0.94775 0.0
C975 C 0.27858 0.08117 0.97749 0.0
N976 N 0.20833 0.02683 0.97292 0.0
N977 N 0.34259 0.1337 0.85663 0.0
C978 C 0.24045 0.06136 0.95064 0.0
C979 C 0.30967 0.11805 0.89172 0.0
N980 N 0.19785 0.08039 0.90044 0.0
N981 N 0.35118 0.12802 0.97371 0.0
H982 H 0.33989 0.1364 0.8141 0.0
H983 H 0.37134 0.13863 0.86878 0.0
H984 H 0.35454 0.12039 0.01437 0.0
H985 H 0.37752 0.15207 0.95568 0.0
H986 H 0.17291 0.06247 0.92641 0.0
H987 H 0.19393 0.10161 0.87724 0.0
H988 H 0.17975 0.01112 0.95344 0.0
H989 H 0.2121 0.01216 0.00741 0.0
C990 C 0.86767 0.16923 0.88563 0.0
C991 C 0.89549 0.16886 0.8465 0.0
C992 C 0.95331 0.20722 0.909 0.0
C993 C 0.92445 0.20016 0.95119 0.0
N994 N 0.85937 0.19252 0.97631 0.0
N995 N 0.96475 0.2011 0.81114 0.0
C996 C 0.88339 0.18821 0.93753 0.0
C997 C 0.93854 0.19287 0.85486 0.0
N998 N 0.82648 0.14897 0.87478 0.0
N999 N 0.99397 0.22434 0.92192 0.0
H1000 H 0.95418 0.19098 0.77098 0.0
H1001 H 0.99638 0.22069 0.81349 0.0
H1002 H 1.00545 0.23733 0.96061 0.0
H1003 H 0.01612 0.22552 0.89485 0.0
H1004 H 0.80421 0.14468 0.90391 0.0
H1005 H 0.81447 0.13519 0.8366 0.0
H1006 H 0.82948 0.18624 0.96891 0.0
H1007 H 0.8713 0.20577 0.01488 0.0
C1008 C 0.1943 0.10398 0.39964 0.0
C1009 C 0.22215 0.13537 0.36303 0.0
C1010 C 0.25266 0.18263 0.44086 0.0
C1011 C 0.22467 0.15117 0.47657 0.0
N1012 N 0.16 0.0886 0.48856 0.0
N1013 N 0.26847 0.20765 0.34621 0.0
C1014 C 0.19229 0.1142 0.45523 0.0
C1015 C 0.24837 0.17585 0.38282 0.0
N1016 N 0.17237 0.06386 0.38331 0.0
N1017 N 0.28424 0.21791 0.4623 0.0
H1018 H 0.26467 0.20381 0.30334 0.0
H1019 H 0.28538 0.23825 0.35841 0.0
H1020 H 0.28753 0.22403 0.50476 0.0
H1021 H 0.30833 0.23989 0.43829 0.0
H1022 H 0.15547 0.03976 0.41089 0.0
H1023 H 0.17406 0.05362 0.34394 0.0
H1024 H 0.13371 0.06288 0.47365 0.0
H1025 H 0.15765 0.09572 0.52974 0.0
C1026 C 0.91968 0.14236 0.38261 0.0
C1027 C 0.91298 0.10959 0.34712 0.0
C1028 C 0.89863 0.0646 0.42793 0.0
C1029 C 0.90114 0.09633 0.46226 0.0
N1030 N 0.90316 0.1613 0.46993 0.0
N1031 N 0.8893 0.03745 0.33458 0.0
C1032 C 0.90851 0.134 0.4389 0.0
C1033 C 0.90061 0.07002 0.36929 0.0
N1034 N 0.93797 0.18186 0.36323 0.0
N1035 N 0.89588 0.03012 0.45119 0.0
H1036 H 0.88983 0.04017 0.29146 0.0
H1037 H 0.87605 1.00721 0.3485 0.0
H1038 H 0.89457 0.02527 0.49396 0.0
H1039 H 0.89829 1.00796 0.42834 0.0
H1040 H 0.94812 0.20724 0.38913 0.0
H1041 H 0.94688 0.18991 0.32216 0.0
H1042 H 0.90475 0.18759 0.45311 0.0
H1043 H 0.89256 0.15544 0.51076 0.0
C1044 C 0.94118 0.82088 0.36152 0.0
C1045 C 0.90232 0.79141 0.34004 0.0
C1046 C 0.88029 0.76074 0.43175 0.0
C1047 C 0.91664 0.79349 0.45438 0.0
N1048 N 0.97957 0.85822 0.44254 0.0
N1049 N 0.83222 0.73688 0.35592 0.0
C1050 C 0.94675 0.82451 0.4198 0.0
C1051 C 0.87113 0.76218 0.37536 0.0
N1052 N 0.97305 0.84436 0.32631 0.0
N1053 N 0.8551 0.72744 0.46374 0.0
H1054 H 0.82373 0.73594 0.31464 0.0
H1055 H 0.80723 0.71914 0.38179 0.0
H1056 H 0.86129 0.7246 0.50517 0.0
H1057 H 0.83051 0.70091 0.44754 0.0
H1058 H 1.0031 0.86342 0.33975 0.0
H1059 H 0.97038 0.84182 0.28322 0.0
H1060 H 1.00001 0.8838 0.41932 0.0
H1061 H 0.98445 0.86226 0.48521 0.0
C1062 C 0.4049 0.98045 0.86191 0.0
C1063 C 0.37188 0.94929 0.89309 0.0
C1064 C 0.41925 0.96649 0.97322 0.0
C1065 C 0.45298 0.99447 0.93975 0.0
N1066 N 0.47868 0.02194 0.84871 0.0
N1067 N 0.34945 0.90856 0.97698 0.0
C1068 C 0.44586 0.99957 0.88304 0.0
C1069 C 0.3795 0.94134 0.94856 0.0
N1070 N 0.39681 0.99215 0.81192 0.0
N1071 N 0.4248 0.96476 0.02896 0.0
H1072 H 0.31986 0.89025 0.96146 0.0
H1073 H 0.35458 0.89806 0.01451 0.0
H1074 H 0.45348 0.98158 0.04785 0.0
H1075 H 0.40065 0.94874 0.05675 0.0
H1076 H 0.41862 0.01727 0.78921 0.0
H1077 H 0.36706 0.97921 0.79602 0.0
H1078 H 0.47604 0.02373 0.8059 0.0
H1079 H 0.50906 0.03527 0.86229 0.0
C1080 C 0.03481 0.43484 0.9779 0.0
C1081 C 0.02329 0.46042 0.94839 0.0
C1082 C 0.05224 0.44823 0.86387 0.0
C1083 C 0.06947 0.42772 0.89416 0.0
N1084 N 0.08244 0.40924 -0.01435 0.0
N1085 N 0.03139 0.49964 0.86548 0.0
C1086 C 0.0621 0.42291 0.95283 0.0
C1087 C 0.03583 0.47007 0.89233 0.0
N1088 N 0.01971 0.42181 0.03013 0.0
N1089 N 0.04983 0.44538 0.80734 0.0
H1090 H 0.01918 0.51597 0.88471 0.0
H1091 H 0.04337 0.51039 0.82598 0.0
H1092 H 0.05751 0.42631 0.78529 0.0
H1093 H 0.03556 0.45772 0.78332 0.0
H1094 H 0.02288 0.39935 0.05134 0.0
H1095 H 1.00191 0.43183 0.05076 0.0
H1096 H 0.08155 0.40972 0.02885 0.0
H1097 H 0.10287 0.40056 0.97067 0.0
C1098 C 0.58621 0.62182 0.86714 0.0
C1099 C 0.5963 0.65642 0.90097 0.0
C1100 C 0.57747 0.61017 0.9832 0.0
C1101 C 0.56235 0.57527 0.948 0.0
N1102 N 0.5425 0.54858 0.85543 0.0
N1103 N 0.59525 0.68162 -0.00723 0.0
C1104 C 0.56365 0.5815 0.88967 0.0
C1105 C 0.59039 0.65017 0.95962 0.0
N1106 N 0.59862 0.62757 0.81295 0.0
N1107 N 0.5806 0.60549 0.03882 0.0
H1108 H 0.60521 0.71114 0.97779 0.0
H1109 H 0.58693 0.67768 0.03454 0.0
H1110 H 0.57034 0.57681 0.05717 0.0
H1111 H 0.59556 0.63018 0.06588 0.0
H1112 H 0.59511 0.6037 0.78745 0.0
H1113 H 0.61653 0.6568 0.79569 0.0
H1114 H 0.5394 0.55157 0.81294 0.0
H1115 H 0.52423 0.51873 0.87057 0.0
C1116 C 0.05977 0.59967 0.47538 0.0
C1117 C 0.02549 0.57142 0.44328 0.0
C1118 C 0.04023 0.62747 0.3767 0.0
C1119 C 0.07703 0.65459 0.40513 0.0
N1120 N 0.12515 0.66363 0.4778 0.0
N1121 N 0.98866 0.557 0.35683 0.0
C1122 C 0.08759 0.64 0.45375 0.0
C1123 C 0.01728 0.58508 0.39218 0.0
N1124 N 0.06529 0.58845 0.5272 0.0
N1125 N 0.0269 0.64251 0.33484 0.0
H1126 H 0.97298 0.5256 0.36528 0.0
H1127 H 0.98387 0.56414 0.31672 0.0
H1128 H 0.04267 0.67343 0.32322 0.0
H1129 H 0.99837 0.62549 0.31579 0.0
H1130 H 0.08677 0.60898 0.55526 0.0
H1131 H 0.04629 0.55917 0.54358 0.0
H1132 H 0.13668 0.65282 0.5088 0.0
H1133 H 0.14612 0.69322 0.46426 0.0
C1134 C 0.41922 0.45302 0.47281 0.0
C1135 C 0.45244 0.46056 0.43696 0.0
C1136 C 0.40358 0.43368 0.3588 0.0
C1137 C 0.37114 0.43027 0.39278 0.0
N1138 N 0.35021 0.44288 0.48183 0.0
N1139 N 0.47699 0.46781 0.34288 0.0
C1140 C 0.37947 0.44145 0.44989 0.0
C1141 C 0.44467 0.45377 0.37907 0.0
N1142 N 0.4252 0.45579 0.52881 0.0
N1143 N 0.3949 0.41698 0.30688 0.0
H1144 H 0.50755 0.48438 0.35586 0.0
H1145 H 0.47352 0.46716 0.29993 0.0
H1146 H 0.36496 0.401 0.29141 0.0
H1147 H 0.41651 0.41504 0.28193 0.0
H1148 H 0.40135 0.44597 0.55752 0.0
H1149 H 0.45398 0.46584 0.54647 0.0
H1150 H 0.35596 0.45541 0.52152 0.0
H1151 H 0.32077 0.43386 0.4674 0.0
C1152 C 0.5512 0.9213 0.44692 0.0
C1153 C 0.59326 0.93672 0.43252 0.0
C1154 C 0.61007 1.00018 0.48245 0.0
C1155 C 0.56757 0.98867 0.48445 0.0
N1156 N 0.4971 0.93671 0.46769 0.0
N1157 N 0.66338 0.99108 0.43845 0.0
C1158 C 0.53786 0.94844 0.46749 0.0
C1159 C 0.62302 0.97602 0.4517 0.0
N1160 N 0.52402 0.88031 0.44126 0.0
N1161 N 0.63803 0.03431 0.51049 0.0
H1162 H 0.67359 0.97358 0.41754 0.0
H1163 H 0.68617 0.02136 0.44552 0.0
H1164 H 0.62922 0.05163 0.53464 0.0
H1165 H 0.66887 0.04281 0.51459 0.0
H1166 H 0.49369 0.8662 0.45507 0.0
H1167 H 0.5333 0.85978 0.42816 0.0
H1168 H 0.47443 0.90944 0.45022 0.0
H1169 H 0.48593 0.95518 0.4827 0.0
C1170 C 0.09078 0.29369 0.30609 0.0
C1171 C 0.11634 0.33102 0.27701 0.0
C1172 C 0.05768 0.31456 0.21443 0.0
C1173 C 0.03428 0.27514 0.2384 0.0
N1174 N 0.03362 0.2238 0.29949 0.0
N1175 N 0.12572 0.36913 0.19159 0.0
C1176 C 0.05212 0.26376 0.28242 0.0
C1177 C 0.10009 0.33931 0.22796 0.0
N1178 N 0.10252 0.28692 0.35677 0.0
N1179 N 0.03954 0.32819 0.17749 0.0
H1180 H 0.15748 0.38504 0.19609 0.0
H1181 H 0.1161 0.3741 0.15324 0.0
H1182 H 1.00853 0.31068 0.16682 0.0
H1183 H 0.05404 0.35821 0.16229 0.0
H1184 H 0.08322 0.26203 0.38193 0.0
H1185 H 0.12995 0.30804 0.37574 0.0
H1186 H 0.04721 0.21293 0.32739 0.0
H1187 H 1.00655 0.20085 0.28178 0.0
C1188 C 0.72417 0.79502 0.30432 0.0
C1189 C 0.69464 0.79764 0.27015 0.0
C1190 C 0.71152 0.76386 0.19519 0.0
C1191 C 0.74457 0.76587 0.2262 0.0
N1192 N 0.78778 0.79298 0.30713 0.0
N1193 N 0.67054 0.79565 0.1767 0.0
C1194 C 0.75233 0.78391 0.28017 0.0
C1195 C 0.69142 0.78526 0.21371 0.0
N1196 N 0.725 0.80222 0.35987 0.0
N1197 N 0.69923 0.7414 0.14748 0.0
H1198 H 0.65805 0.81399 0.18753 0.0
H1199 H 0.67014 0.79051 0.13417 0.0
H1200 H 0.71264 0.72455 0.13346 0.0
H1201 H 0.67306 0.73598 0.12556 0.0
H1202 H 0.74296 0.79664 0.3876 0.0
H1203 H 0.70543 0.81078 0.37863 0.0
H1204 H 0.797 0.80971 0.34386 0.0
H1205 H 0.80975 0.78712 0.29003 0.0
C1206 C 0.20518 0.93036 0.31727 0.0
C1207 C 0.23411 0.91647 0.32008 0.0
C1208 C 0.28854 0.98495 0.2864 0.0
C1209 C 0.25921 0.9977 0.2801 0.0
N1210 N 0.19394 0.98864 0.30844 0.0
N1211 N 0.30595 0.93752 0.33043 0.0
C1212 C 0.21896 0.9723 0.30213 0.0
C1213 C 0.27669 0.94617 0.31211 0.0
N1214 N 0.1644 0.90346 0.32597 0.0
N1215 N 0.32727 1.00896 0.26577 0.0
H1216 H 0.29845 0.91059 0.35212 0.0
H1217 H 0.3373 0.95884 0.32991 0.0
H1218 H 0.33705 0.03796 0.24869 0.0
H1219 H 0.34874 0.9992 0.26302 0.0
H1220 H 0.14153 0.91094 0.31999 0.0
H1221 H 0.15279 0.87291 0.33712 0.0
H1222 H 0.16583 0.97378 0.32915 0.0
H1223 H 0.20338 0.01893 0.2973 0.0
C1224 C 0.71932 0.95547 0.68484 0.0
C1225 C 0.74809 0.9882 0.71832 0.0
C1226 C 0.72396 0.94048 0.79934 0.0
C1227 C 0.69812 0.90698 0.76435 0.0
N1228 N 0.67848 0.88194 0.67113 0.0
N1229 N 0.78243 0.0097 0.80683 0.0
C1230 C 0.698 0.91449 0.70634 0.0
C1231 C 0.75153 0.98016 0.77556 0.0
N1232 N 0.71194 0.9638 0.63221 0.0
N1233 N 0.72138 0.93487 0.85549 0.0
H1234 H 0.80259 0.03913 0.79194 0.0
H1235 H 0.78979 1.00418 0.84641 0.0
H1236 H 0.70294 0.90625 0.8739 0.0
H1237 H 0.73548 0.95892 0.88367 0.0
H1238 H 0.68846 0.9423 0.6072 0.0
H1239 H 0.72661 0.99352 0.61576 0.0
H1240 H 0.68031 0.88494 0.62817 0.0
H1241 H 0.66409 0.85153 0.68486 0.0
C1242 C 0.04866 0.78037 0.76726 0.0
C1243 C 0.04133 0.76949 0.70984 0.0
C1244 C 0.11605 0.79842 0.69733 0.0
C1245 C 0.12275 0.80446 0.75549 0.0
N1246 N 0.09368 0.7953 0.84698 0.0
N1247 N 0.06816 0.76185 0.62289 0.0
C1248 C 0.08853 0.79383 0.79079 0.0
C1249 C 0.0752 0.7767 0.67582 0.0
N1250 N 0.01844 0.78023 0.79897 0.0
N1251 N 0.14912 0.8144 0.66225 0.0
H1252 H 0.03861 0.74486 0.60646 0.0
H1253 H 0.09099 0.76257 0.59755 0.0
H1254 H 0.17934 0.83146 0.67647 0.0
H1255 H 0.14653 0.81457 0.61923 0.0
H1256 H 0.02358 0.79244 0.83882 0.0
H1257 H 0.98907 0.77109 0.78422 0.0
H1258 H 0.0692 0.78316 0.87494 0.0
H1259 H 0.12236 0.80629 0.8655 0.0
C1260 C 0.24622 0.27586 0.79977 0.0
C1261 C 0.26464 0.28221 0.74611 0.0
C1262 C 0.24579 0.33543 0.72791 0.0
C1263 C 0.23019 0.33136 0.78285 0.0
N1264 N 0.22172 0.30198 0.87409 0.0
N1265 N 0.28854 0.32345 0.66353 0.0
C1266 C 0.23218 0.30276 0.81965 0.0
C1267 C 0.26648 0.31384 0.71178 0.0
N1268 N 0.24006 0.24277 0.8308 0.0
N1269 N 0.23939 0.35893 0.69024 0.0
H1270 H 0.30429 0.30845 0.65128 0.0
H1271 H 0.29462 0.34863 0.63877 0.0
H1272 H 0.22319 0.37394 0.69995 0.0
H1273 H 0.24633 0.36024 0.64819 0.0
H1274 H 0.22216 0.2333 0.86668 0.0
H1275 H 0.25083 0.22321 0.81893 0.0
H1276 H 0.227 0.28544 0.90455 0.0
H1277 H 0.21016 0.3201 0.88946 0.0
C1278 C 0.70818 0.61491 0.62124 0.0
C1279 C 0.7037 0.60573 0.56338 0.0
C1280 C 0.77933 0.6411 0.55534 0.0
C1281 C 0.7841 0.65507 0.61054 0.0
N1282 N 0.75209 0.65926 0.69502 0.0
N1283 N 0.73682 0.62298 0.47355 0.0
C1284 C 0.74813 0.64333 0.64308 0.0
C1285 C 0.73996 0.62307 0.53002 0.0
N1286 N 0.67522 0.59531 0.65603 0.0
N1287 N 0.81219 0.64423 0.52703 0.0
H1288 H 0.70867 0.61255 0.45354 0.0
H1289 H 0.76233 0.63747 0.44744 0.0
H1290 H 0.84127 0.65641 0.5448 0.0
H1291 H 0.80932 0.63083 0.48825 0.0
H1292 H 0.67782 0.59727 0.6991 0.0
H1293 H 0.64564 0.57491 0.64233 0.0
H1294 H 0.72718 0.65583 0.71829 0.0
H1295 H 0.78066 0.67774 0.71355 0.0
C1296 C 0.36476 0.11819 0.57175 0.0
C1297 C 0.36798 0.13127 0.62779 0.0
C1298 C 0.4239 0.11494 0.64065 0.0
C1299 C 0.41663 0.09715 0.58655 0.0
N1300 N 0.37251 0.07367 0.50656 0.0
N1301 N 0.39815 0.13742 0.71787 0.0
C1302 C 0.3846 0.09626 0.5542 0.0
C1303 C 0.39693 0.12836 0.66293 0.0
N1304 N 0.34356 0.12794 0.5344 0.0
N1305 N 0.45758 0.12097 0.66991 0.0
H1306 H 0.38054 0.14907 0.73459 0.0
H1307 H 0.41482 0.13124 0.74707 0.0
H1308 H 0.47759 0.11133 0.65589 0.0
H1309 H 0.46722 0.13801 0.70635 0.0
H1310 H 0.34328 0.12262 0.49194 0.0
H1311 H 0.3303 0.14565 0.54496 0.0
H1312 H 0.34688 0.06876 0.48374 0.0
H1313 H 0.38536 0.05611 0.49346 0.0
C1314 C 0.95462 0.31384 0.5827 0.0
C1315 C 0.93936 0.31442 0.52869 0.0
C1316 C 0.89146 0.23937 0.53645 0.0
C1317 C 0.90574 0.23862 0.59057 0.0
N1318 N 0.9466 0.27621 0.66897 0.0
N1319 N 0.90833 0.27346 0.44719 0.0
C1320 C 0.93632 0.27628 0.61456 0.0
C1321 C 0.91199 0.27587 0.50364 0.0
N1322 N 0.98892 0.348 0.60154 0.0
N1323 N 0.85765 0.20544 0.51621 0.0
H1324 H 0.927 0.29827 0.4214 0.0
H1325 H 0.89147 0.24586 0.42599 0.0
H1326 H 0.84162 0.17818 0.53864 0.0
H1327 H 0.84335 0.20575 0.47928 0.0
H1328 H 1.00334 0.3494 0.63897 0.0
H1329 H 1.00671 0.3733 0.57626 0.0
H1330 H 0.96526 0.30261 0.69158 0.0
H1331 H 0.9331 0.24963 0.69334 0.0
C1332 C 0.36983 0.25159 0.07473 0.0
C1333 C 0.36625 0.2449 0.13307 0.0
C1334 C 0.41772 0.31895 0.14431 0.0
C1335 C 0.41652 0.32589 0.08607 0.0
N1336 N 0.38021 0.29891 0.00017 0.0
N1337 N 0.38321 0.27472 0.22422 0.0
C1338 C 0.3888 0.29215 0.05296 0.0
C1339 C 0.38922 0.27936 0.16826 0.0
N1340 N 0.35591 0.21889 0.03958 0.0
N1341 N 0.44689 0.34926 0.17654 0.0
H1342 H 0.36354 0.24635 0.24258 0.0
H1343 H 0.39566 0.29936 0.25166 0.0
H1344 H 0.46754 0.37835 0.16112 0.0
H1345 H 0.45214 0.3446 0.21768 0.0
H1346 H 0.36072 0.22221 -0.0032 0.0
H1347 H 0.34409 0.18883 0.05392 0.0
H1348 H 0.35777 0.27572 0.97569 0.0
H1349 H 0.39213 0.32842 0.98364 0.0
C1350 C 0.7501 0.07128 0.12019 0.0
C1351 C 0.77806 0.11343 0.13373 0.0
C1352 C 0.72072 0.12641 0.1183 0.0
C1353 C 0.69765 0.0881 0.09061 0.0
N1354 N 0.6906 0.02308 0.06627 0.0
N1355 N 0.78819 0.18199 0.14326 0.0
C1356 C 0.71215 0.05996 0.09246 0.0
C1357 C 0.76271 0.14119 0.13314 0.0
N1358 N 0.75942 0.04183 0.13524 0.0
N1359 N 0.70206 0.14855 0.13083 0.0
H1360 H 0.81911 0.19475 0.15314 0.0
H1361 H 0.77924 0.20389 0.13788 0.0
H1362 H 0.67098 0.13741 0.12259 0.0
H1363 H 0.71587 0.17512 0.15477 0.0
H1364 H 0.73916 0.0105 0.13025 0.0
H1365 H 0.78536 0.04858 0.15879 0.0
H1366 H 0.7019 1.00304 0.06086 0.0
H1367 H 0.66232 0.01374 0.04731 0.0
C1368 C 0.8823 0.60035 0.06507 0.0
C1369 C 0.92368 0.61474 0.04795 0.0
C1370 C 0.9427 0.67987 0.09522 0.0
C1371 C 0.90035 0.66868 0.10077 0.0
N1372 N 0.82932 0.61731 0.08435 0.0
N1373 N 0.99371 0.66999 0.04601 0.0
C1374 C 0.86995 0.62851 0.08433 0.0
C1375 C 0.9541 0.65496 0.06323 0.0
N1376 N 0.85501 0.5592 0.06563 0.0
N1377 N 0.97209 0.71372 0.12231 0.0
H1378 H 1.00297 0.65243 0.02334 0.0
H1379 H 0.01648 0.70061 0.05063 0.0
H1380 H 0.96481 0.73108 0.14877 0.0
H1381 H 1.00291 0.72164 0.12379 0.0
H1382 H 0.82544 0.54643 0.08208 0.0
H1383 H 0.86394 0.53778 0.05632 0.0
H1384 H 0.80662 0.58992 0.06707 0.0
H1385 H 0.81844 0.63649 0.09724 0.0
loop_
_geom_bond_atom_site_label_1
_geom_bond_atom_site_label_2
_geom_bond_distance
_geom_bond_site_symmetry_2
_ccdc_geom_bond_type
O0 Zn1 1.953 . S
O0 C16 1.225 1_556 S
Zn1 O0 1.953 . S
Zn1 O2 1.949 1_556 S
Zn1 O8 1.919 . S
Zn1 O13 1.924 . S
O2 Zn1 1.949 1_554 S
O2 Zn3 1.923 1_554 S
O2 Zn4 1.950 . S
O2 Zn5 1.945 . S
Zn3 O2 1.923 1_556 S
Zn3 O6 1.933 . S
Zn3 O9 1.941 . S
Zn3 O10 1.965 . S
Zn4 O2 1.950 . S
Zn4 O11 1.938 . S
Zn4 O12 1.906 . S
Zn4 O22 1.953 . S
Zn5 O2 1.945 . S
Zn5 O7 1.932 . S
Zn5 O14 1.977 . S
Zn5 O15 1.910 . S
O6 Zn3 1.933 . S
O6 C17 1.226 . S
O7 Zn5 1.932 . S
O7 C17 1.307 1_554 S
O8 Zn1 1.919 . S
O8 C19 1.253 . S
O9 Zn3 1.941 . S
O9 C19 1.283 . S
O10 Zn3 1.965 . S
O10 C18 1.303 1_556 S
O11 Zn4 1.938 . S
O11 C18 1.247 . S
O12 Zn4 1.906 . S
O12 C20 1.304 . S
O13 Zn1 1.924 . S
O13 C21 1.311 1_556 S
O14 Zn5 1.977 . S
O14 C20 1.272 . S
O15 Zn5 1.910 . S
O15 C21 1.231 . S
C16 O0 1.225 1_554 S
C16 O22 1.298 . S
C17 O6 1.226 . S
C17 O7 1.307 1_556 S
C18 O10 1.303 1_554 S
C18 O11 1.247 . S
C19 O8 1.253 . S
C19 O9 1.283 . S
C20 O12 1.304 . S
C20 O14 1.272 . S
C21 O13 1.311 1_554 S
C21 O15 1.231 . S
O22 Zn4 1.953 . S
O22 C16 1.298 . S
O23 Zn24 1.953 . S
O23 C39 1.225 1_556 S
Zn24 O23 1.953 . S
Zn24 O25 1.949 1_556 S
Zn24 O31 1.919 . S
Zn24 O36 1.924 . S
O25 Zn24 1.949 1_554 S
O25 Zn26 1.923 1_554 S
O25 Zn27 1.950 . S
O25 Zn28 1.945 . S
Zn26 O25 1.923 1_556 S
Zn26 O29 1.933 . S
Zn26 O32 1.941 . S
Zn26 O33 1.965 . S
Zn27 O25 1.950 . S
Zn27 O34 1.938 . S
Zn27 O35 1.906 . S
Zn27 O45 1.953 . S
Zn28 O25 1.945 . S
Zn28 O30 1.932 . S
Zn28 O37 1.977 . S
Zn28 O38 1.910 . S
O29 Zn26 1.933 . S
O29 C40 1.226 . S
O30 Zn28 1.932 . S
O30 C40 1.307 1_554 S
O31 Zn24 1.919 . S
O31 C42 1.253 . S
O32 Zn26 1.941 . S
O32 C42 1.283 . S
O33 Zn26 1.965 . S
O33 C41 1.303 1_556 S
O34 Zn27 1.938 . S
O34 C41 1.247 . S
O35 Zn27 1.906 . S
O35 C43 1.304 . S
O36 Zn24 1.924 . S
O36 C44 1.311 1_556 S
O37 Zn28 1.977 . S
O37 C43 1.272 . S
O38 Zn28 1.910 . S
O38 C44 1.231 . S
C39 O23 1.225 1_554 S
C39 O45 1.298 . S
C40 O29 1.226 . S
C40 O30 1.307 1_556 S
C41 O33 1.303 1_554 S
C41 O34 1.247 . S
C42 O31 1.253 . S
C42 O32 1.283 . S
C43 O35 1.304 . S
C43 O37 1.272 . S
C44 O36 1.311 1_554 S
C44 O38 1.231 . S
O45 Zn27 1.953 . S
O45 C39 1.298 . S
O46 Zn47 1.953 . S
O46 C62 1.225 1_556 S
Zn47 O46 1.953 . S
Zn47 O48 1.949 1_556 S
Zn47 O54 1.919 . S
Zn47 O59 1.924 . S
O48 Zn47 1.949 1_554 S
O48 Zn49 1.923 1_554 S
O48 Zn50 1.950 . S
O48 Zn51 1.945 . S
Zn49 O48 1.923 1_556 S
Zn49 O52 1.933 . S
Zn49 O55 1.941 . S
Zn49 O56 1.965 . S
Zn50 O48 1.950 . S
Zn50 O57 1.938 . S
Zn50 O58 1.906 . S
Zn50 O68 1.953 . S
Zn51 O48 1.945 . S
Zn51 O53 1.932 . S
Zn51 O60 1.977 . S
Zn51 O61 1.910 . S
O52 Zn49 1.933 . S
O52 C63 1.226 . S
O53 Zn51 1.932 . S
O53 C63 1.307 1_554 S
O54 Zn47 1.919 . S
O54 C65 1.253 . S
O55 Zn49 1.941 . S
O55 C65 1.283 . S
O56 Zn49 1.965 . S
O56 C64 1.303 1_556 S
O57 Zn50 1.938 . S
O57 C64 1.247 . S
O58 Zn50 1.906 . S
O58 C66 1.304 . S
O59 Zn47 1.924 . S
O59 C67 1.311 1_556 S
O60 Zn51 1.977 . S
O60 C66 1.272 . S
O61 Zn51 1.910 . S
O61 C67 1.231 . S
C62 O46 1.225 1_554 S
C62 O68 1.298 . S
C63 O52 1.226 . S
C63 O53 1.307 1_556 S
C64 O56 1.303 1_554 S
C64 O57 1.247 . S
C65 O54 1.253 . S
C65 O55 1.283 . S
C66 O58 1.304 . S
C66 O60 1.272 . S
C67 O59 1.311 1_554 S
C67 O61 1.231 . S
O68 Zn50 1.953 . S
O68 C62 1.298 . S
O69 Zn70 1.953 . S
O69 C85 1.225 . S
Zn70 O69 1.953 . S
Zn70 O71 1.949 . S
Zn70 O77 1.919 . S
Zn70 O82 1.924 . S
O71 Zn70 1.949 . S
O71 Zn72 1.923 . S
O71 Zn73 1.950 . S
O71 Zn74 1.945 . S
Zn72 O71 1.923 . S
Zn72 O75 1.933 . S
Zn72 O78 1.941 . S
Zn72 O79 1.965 . S
Zn73 O71 1.950 . S
Zn73 O80 1.938 . S
Zn73 O81 1.906 . S
Zn73 O91 1.953 . S
Zn74 O71 1.945 . S
Zn74 O76 1.932 . S
Zn74 O83 1.977 . S
Zn74 O84 1.910 . S
O75 Zn72 1.933 . S
O75 C86 1.226 . S
O76 Zn74 1.932 . S
O76 C86 1.307 . S
O77 Zn70 1.919 . S
O77 C88 1.253 . S
O78 Zn72 1.941 . S
O78 C88 1.283 . S
O79 Zn72 1.965 . S
O79 C87 1.303 . S
O80 Zn73 1.938 . S
O80 C87 1.247 . S
O81 Zn73 1.906 . S
O81 C89 1.304 . S
O82 Zn70 1.924 . S
O82 C90 1.311 . S
O83 Zn74 1.977 . S
O83 C89 1.272 . S
O84 Zn74 1.910 . S
O84 C90 1.231 . S
C85 O69 1.225 . S
C85 O91 1.298 . S
C86 O75 1.226 . S
C86 O76 1.307 . S
C87 O79 1.303 . S
C87 O80 1.247 . S
C88 O77 1.253 . S
C88 O78 1.283 . S
C89 O81 1.304 . S
C89 O83 1.272 . S
C90 O82 1.311 . S
C90 O84 1.231 . S
O91 Zn73 1.953 . S
O91 C85 1.298 . S
O92 Zn93 1.953 . S
O92 C108 1.225 . S
Zn93 O92 1.953 . S
Zn93 O94 1.949 . S
Zn93 O100 1.919 . S
Zn93 O105 1.924 . S
O94 Zn93 1.949 . S
O94 Zn95 1.923 . S
O94 Zn96 1.950 . S
O94 Zn97 1.945 . S
Zn95 O94 1.923 . S
Zn95 O98 1.933 . S
Zn95 O101 1.941 . S
Zn95 O102 1.965 . S
Zn96 O94 1.950 . S
Zn96 O103 1.938 . S
Zn96 O104 1.906 . S
Zn96 O114 1.953 . S
Zn97 O94 1.945 . S
Zn97 O99 1.932 . S
Zn97 O106 1.977 . S
Zn97 O107 1.910 . S
O98 Zn95 1.933 . S
O98 C109 1.226 . S
O99 Zn97 1.932 . S
O99 C109 1.307 . S
O100 Zn93 1.919 . S
O100 C111 1.253 . S
O101 Zn95 1.941 . S
O101 C111 1.283 . S
O102 Zn95 1.965 . S
O102 C110 1.303 . S
O103 Zn96 1.938 . S
O103 C110 1.247 . S
O104 Zn96 1.906 . S
O104 C112 1.304 . S
O105 Zn93 1.924 . S
O105 C113 1.311 . S
O106 Zn97 1.977 . S
O106 C112 1.272 . S
O107 Zn97 1.910 . S
O107 C113 1.231 . S
C108 O92 1.225 . S
C108 O114 1.298 . S
C109 O98 1.226 . S
C109 O99 1.307 . S
C110 O102 1.303 . S
C110 O103 1.247 . S
C111 O100 1.253 . S
C111 O101 1.283 . S
C112 O104 1.304 . S
C112 O106 1.272 . S
C113 O105 1.311 . S
C113 O107 1.231 . S
O114 Zn96 1.953 . S
O114 C108 1.298 . S
O115 Zn116 1.953 . S
O115 C131 1.225 . S
Zn116 O115 1.953 . S
Zn116 O117 1.949 . S
Zn116 O123 1.919 . S
Zn116 O128 1.924 . S
O117 Zn116 1.949 . S
O117 Zn118 1.923 . S
O117 Zn119 1.950 . S
O117 Zn120 1.945 . S
Zn118 O117 1.923 . S
Zn118 O121 1.933 . S
Zn118 O124 1.941 . S
Zn118 O125 1.965 . S
Zn119 O117 1.950 . S
Zn119 O126 1.938 . S
Zn119 O127 1.906 . S
Zn119 O137 1.953 . S
Zn120 O117 1.945 . S
Zn120 O122 1.932 . S
Zn120 O129 1.977 . S
Zn120 O130 1.910 . S
O121 Zn118 1.933 . S
O121 C132 1.226 . S
O122 Zn120 1.932 . S
O122 C132 1.307 . S
O123 Zn116 1.919 . S
O123 C134 1.253 . S
O124 Zn118 1.941 . S
O124 C134 1.283 . S
O125 Zn118 1.965 . S
O125 C133 1.303 . S
O126 Zn119 1.938 . S
O126 C133 1.247 . S
O127 Zn119 1.906 . S
O127 C135 1.304 . S
O128 Zn116 1.924 . S
O128 C136 1.311 . S
O129 Zn120 1.977 . S
O129 C135 1.272 . S
O130 Zn120 1.910 . S
O130 C136 1.231 . S
C131 O115 1.225 . S
C131 O137 1.298 . S
C132 O121 1.226 . S
C132 O122 1.307 . S
C133 O125 1.303 . S
C133 O126 1.247 . S
C134 O123 1.253 . S
C134 O124 1.283 . S
C135 O127 1.304 . S
C135 O129 1.272 . S
C136 O128 1.311 . S
C136 O130 1.231 . S
O137 Zn119 1.953 . S
O137 C131 1.298 . S
O138 Zn139 1.953 . S
O138 C154 1.225 . S
Zn139 O138 1.953 . S
Zn139 O140 1.949 . S
Zn139 O146 1.919 . S
Zn139 O151 1.924 . S
O140 Zn139 1.949 . S
O140 Zn141 1.923 . S
O140 Zn142 1.950 . S
O140 Zn143 1.945 . S
Zn141 O140 1.923 . S
Zn141 O144 1.933 . S
Zn141 O147 1.941 . S
Zn141 O148 1.965 . S
Zn142 O140 1.950 . S
Zn142 O149 1.938 . S
Zn142 O150 1.906 . S
Zn142 O160 1.953 . S
Zn143 O140 1.945 . S
Zn143 O145 1.932 . S
Zn143 O152 1.977 . S
Zn143 O153 1.910 . S
O144 Zn141 1.933 . S
O144 C155 1.226 . S
O145 Zn143 1.932 . S
O145 C155 1.307 . S
O146 Zn139 1.919 . S
O146 C157 1.253 . S
O147 Zn141 1.941 . S
O147 C157 1.283 . S
O148 Zn141 1.965 . S
O148 C156 1.303 . S
O149 Zn142 1.938 . S
O149 C156 1.247 . S
O150 Zn142 1.906 . S
O150 C158 1.304 . S
O151 Zn139 1.924 . S
O151 C159 1.311 . S
O152 Zn143 1.977 . S
O152 C158 1.272 . S
O153 Zn143 1.910 . S
O153 C159 1.231 . S
C154 O138 1.225 . S
C154 O160 1.298 . S
C155 O144 1.226 . S
C155 O145 1.307 . S
C156 O148 1.303 . S
C156 O149 1.247 . S
C157 O146 1.253 . S
C157 O147 1.283 . S
C158 O150 1.304 . S
C158 O152 1.272 . S
C159 O151 1.311 . S
C159 O153 1.231 . S
O160 Zn142 1.953 . S
O160 C154 1.298 . S
O161 Zn162 1.953 . S
O161 C177 1.225 . S
Zn162 O161 1.953 . S
Zn162 O163 1.949 . S
Zn162 O169 1.919 . S
Zn162 O174 1.924 . S
O163 Zn162 1.949 . S
O163 Zn164 1.923 . S
O163 Zn165 1.950 . S
O163 Zn166 1.945 . S
Zn164 O163 1.923 . S
Zn164 O167 1.933 . S
Zn164 O170 1.941 . S
Zn164 O171 1.965 . S
Zn165 O163 1.950 . S
Zn165 O172 1.938 . S
Zn165 O173 1.906 . S
Zn165 O183 1.953 . S
Zn166 O163 1.945 . S
Zn166 O168 1.932 . S
Zn166 O175 1.977 . S
Zn166 O176 1.910 . S
O167 Zn164 1.933 . S
O167 C178 1.226 . S
O168 Zn166 1.932 . S
O168 C178 1.307 . S
O169 Zn162 1.919 . S
O169 C180 1.253 . S
O170 Zn164 1.941 . S
O170 C180 1.283 . S
O171 Zn164 1.965 . S
O171 C179 1.303 . S
O172 Zn165 1.938 . S
O172 C179 1.247 . S
O173 Zn165 1.906 . S
O173 C181 1.304 . S
O174 Zn162 1.924 . S
O174 C182 1.311 . S
O175 Zn166 1.977 . S
O175 C181 1.272 . S
O176 Zn166 1.910 . S
O176 C182 1.231 . S
C177 O161 1.225 . S
C177 O183 1.298 . S
C178 O167 1.226 . S
C178 O168 1.307 . S
C179 O171 1.303 . S
C179 O172 1.247 . S
C180 O169 1.253 . S
C180 O170 1.283 . S
C181 O173 1.304 . S
C181 O175 1.272 . S
C182 O174 1.311 . S
C182 O176 1.231 . S
O183 Zn165 1.953 . S
O183 C177 1.298 . S
O184 Zn185 1.953 . S
O184 C200 1.225 . S
Zn185 O184 1.953 . S
Zn185 O186 1.949 . S
Zn185 O192 1.919 . S
Zn185 O197 1.924 . S
O186 Zn185 1.949 . S
O186 Zn187 1.923 . S
O186 Zn188 1.950 . S
O186 Zn189 1.945 . S
Zn187 O186 1.923 . S
Zn187 O190 1.933 . S
Zn187 O193 1.941 . S
Zn187 O194 1.965 . S
Zn188 O186 1.950 . S
Zn188 O195 1.938 . S
Zn188 O196 1.906 . S
Zn188 O206 1.953 . S
Zn189 O186 1.945 . S
Zn189 O191 1.932 . S
Zn189 O198 1.977 . S
Zn189 O199 1.910 . S
O190 Zn187 1.933 . S
O190 C201 1.226 . S
O191 Zn189 1.932 . S
O191 C201 1.307 . S
O192 Zn185 1.919 . S
O192 C203 1.253 . S
O193 Zn187 1.941 . S
O193 C203 1.283 . S
O194 Zn187 1.965 . S
O194 C202 1.303 . S
O195 Zn188 1.938 . S
O195 C202 1.247 . S
O196 Zn188 1.906 . S
O196 C204 1.304 . S
O197 Zn185 1.924 . S
O197 C205 1.311 . S
O198 Zn189 1.977 . S
O198 C204 1.272 . S
O199 Zn189 1.910 . S
O199 C205 1.231 . S
C200 O184 1.225 . S
C200 O206 1.298 . S
C201 O190 1.226 . S
C201 O191 1.307 . S
C202 O194 1.303 . S
C202 O195 1.247 . S
C203 O192 1.253 . S
C203 O193 1.283 . S
C204 O196 1.304 . S
C204 O198 1.272 . S
C205 O197 1.311 . S
C205 O199 1.231 . S
O206 Zn188 1.953 . S
O206 C200 1.298 . S
O207 Zn208 1.953 . S
O207 C223 1.225 . S
Zn208 O207 1.953 . S
Zn208 O209 1.949 . S
Zn208 O215 1.919 . S
Zn208 O220 1.924 . S
O209 Zn208 1.949 . S
O209 Zn210 1.923 . S
O209 Zn211 1.950 . S
O209 Zn212 1.945 . S
Zn210 O209 1.923 . S
Zn210 O213 1.933 . S
Zn210 O216 1.941 . S
Zn210 O217 1.965 . S
Zn211 O209 1.950 . S
Zn211 O218 1.938 . S
Zn211 O219 1.906 . S
Zn211 O229 1.953 . S
Zn212 O209 1.945 . S
Zn212 O214 1.932 . S
Zn212 O221 1.977 . S
Zn212 O222 1.910 . S
O213 Zn210 1.933 . S
O213 C224 1.226 . S
O214 Zn212 1.932 . S
O214 C224 1.307 . S
O215 Zn208 1.919 . S
O215 C226 1.253 . S
O216 Zn210 1.941 . S
O216 C226 1.283 . S
O217 Zn210 1.965 . S
O217 C225 1.303 . S
O218 Zn211 1.938 . S
O218 C225 1.247 . S
O219 Zn211 1.906 . S
O219 C227 1.304 . S
O220 Zn208 1.924 . S
O220 C228 1.311 . S
O221 Zn212 1.977 . S
O221 C227 1.272 . S
O222 Zn212 1.910 . S
O222 C228 1.231 . S
C223 O207 1.225 . S
C223 O229 1.298 . S
C224 O213 1.226 . S
C224 O214 1.307 . S
C225 O217 1.303 . S
C225 O218 1.247 . S
C226 O215 1.253 . S
C226 O216 1.283 . S
C227 O219 1.304 . S
C227 O221 1.272 . S
C228 O220 1.311 . S
C228 O222 1.231 . S
O229 Zn211 1.953 . S
O229 C223 1.298 . S
O230 Zn231 1.953 . S
O230 C246 1.225 . S
Zn231 O230 1.953 . S
Zn231 O232 1.949 . S
Zn231 O238 1.919 . S
Zn231 O243 1.924 . S
O232 Zn231 1.949 . S
O232 Zn233 1.923 . S
O232 Zn234 1.950 . S
O232 Zn235 1.945 . S
Zn233 O232 1.923 . S
Zn233 O236 1.933 . S
Zn233 O239 1.941 . S
Zn233 O240 1.965 . S
Zn234 O232 1.950 . S
Zn234 O241 1.938 . S
Zn234 O242 1.906 . S
Zn234 O252 1.953 . S
Zn235 O232 1.945 . S
Zn235 O237 1.932 . S
Zn235 O244 1.977 . S
Zn235 O245 1.910 . S
O236 Zn233 1.933 . S
O236 C247 1.226 . S
O237 Zn235 1.932 . S
O237 C247 1.307 . S
O238 Zn231 1.919 . S
O238 C249 1.253 . S
O239 Zn233 1.941 . S
O239 C249 1.283 . S
O240 Zn233 1.965 . S
O240 C248 1.303 . S
O241 Zn234 1.938 . S
O241 C248 1.247 . S
O242 Zn234 1.906 . S
O242 C250 1.304 . S
O243 Zn231 1.924 . S
O243 C251 1.311 . S
O244 Zn235 1.977 . S
O244 C250 1.272 . S
O245 Zn235 1.910 . S
O245 C251 1.231 . S
C246 O230 1.225 . S
C246 O252 1.298 . S
C247 O236 1.226 . S
C247 O237 1.307 . S
C248 O240 1.303 . S
C248 O241 1.247 . S
C249 O238 1.253 . S
C249 O239 1.283 . S
C250 O242 1.304 . S
C250 O244 1.272 . S
C251 O243 1.311 . S
C251 O245 1.231 . S
O252 Zn234 1.953 . S
O252 C246 1.298 . S
O253 Zn254 1.953 . S
O253 C269 1.225 . S
Zn254 O253 1.953 . S
Zn254 O255 1.949 . S
Zn254 O261 1.919 . S
Zn254 O266 1.924 . S
O255 Zn254 1.949 . S
O255 Zn256 1.923 . S
O255 Zn257 1.950 . S
O255 Zn258 1.945 . S
Zn256 O255 1.923 . S
Zn256 O259 1.933 . S
Zn256 O262 1.941 . S
Zn256 O263 1.965 . S
Zn257 O255 1.950 . S
Zn257 O264 1.938 . S
Zn257 O265 1.906 . S
Zn257 O275 1.953 . S
Zn258 O255 1.945 . S
Zn258 O260 1.932 . S
Zn258 O267 1.977 . S
Zn258 O268 1.910 . S
O259 Zn256 1.933 . S
O259 C270 1.226 . S
O260 Zn258 1.932 . S
O260 C270 1.307 . S
O261 Zn254 1.919 . S
O261 C272 1.253 . S
O262 Zn256 1.941 . S
O262 C272 1.283 . S
O263 Zn256 1.965 . S
O263 C271 1.303 . S
O264 Zn257 1.938 . S
O264 C271 1.247 . S
O265 Zn257 1.906 . S
O265 C273 1.304 . S
O266 Zn254 1.924 . S
O266 C274 1.311 . S
O267 Zn258 1.977 . S
O267 C273 1.272 . S
O268 Zn258 1.910 . S
O268 C274 1.231 . S
C269 O253 1.225 . S
C269 O275 1.298 . S
C270 O259 1.226 . S
C270 O260 1.307 . S
C271 O263 1.303 . S
C271 O264 1.247 . S
C272 O261 1.253 . S
C272 O262 1.283 . S
C273 O265 1.304 . S
C273 O267 1.272 . S
C274 O266 1.311 . S
C274 O268 1.231 . S
O275 Zn257 1.953 . S
O275 C269 1.298 . S
O276 Zn277 1.953 1_455 S
O276 C292 1.225 . S
Zn277 O276 1.953 1_655 S
Zn277 O278 1.949 . S
Zn277 O284 1.919 . S
Zn277 O289 1.924 1_655 S
O278 Zn277 1.949 . S
O278 Zn279 1.923 . S
O278 Zn280 1.950 . S
O278 Zn281 1.945 . S
Zn279 O278 1.923 . S
Zn279 O282 1.933 . S
Zn279 O285 1.941 . S
Zn279 O286 1.965 . S
Zn280 O278 1.950 . S
Zn280 O287 1.938 . S
Zn280 O288 1.906 . S
Zn280 O298 1.953 . S
Zn281 O278 1.945 . S
Zn281 O283 1.932 . S
Zn281 O290 1.977 . S
Zn281 O291 1.910 . S
O282 Zn279 1.933 . S
O282 C293 1.226 . S
O283 Zn281 1.932 . S
O283 C293 1.307 . S
O284 Zn277 1.919 . S
O284 C295 1.253 . S
O285 Zn279 1.941 . S
O285 C295 1.283 . S
O286 Zn279 1.965 . S
O286 C294 1.303 . S
O287 Zn280 1.938 . S
O287 C294 1.247 . S
O288 Zn280 1.906 . S
O288 C296 1.304 . S
O289 Zn277 1.924 1_455 S
O289 C297 1.311 1_455 S
O290 Zn281 1.977 . S
O290 C296 1.272 . S
O291 Zn281 1.910 . S
O291 C297 1.231 . S
C292 O276 1.225 . S
C292 O298 1.298 1_455 S
C293 O282 1.226 . S
C293 O283 1.307 . S
C294 O286 1.303 . S
C294 O287 1.247 . S
C295 O284 1.253 . S
C295 O285 1.283 . S
C296 O288 1.304 . S
C296 O290 1.272 . S
C297 O289 1.311 1_655 S
C297 O291 1.231 . S
O298 Zn280 1.953 . S
O298 C292 1.298 1_655 S
O299 Zn300 1.953 . S
O299 C315 1.225 . S
Zn300 O299 1.953 . S
Zn300 O301 1.949 . S
Zn300 O307 1.919 . S
Zn300 O312 1.924 . S
O301 Zn300 1.949 . S
O301 Zn302 1.923 . S
O301 Zn303 1.950 . S
O301 Zn304 1.945 . S
Zn302 O301 1.923 . S
Zn302 O305 1.933 . S
Zn302 O308 1.941 . S
Zn302 O309 1.965 . S
Zn303 O301 1.950 . S
Zn303 O310 1.938 . S
Zn303 O311 1.906 . S
Zn303 O321 1.953 . S
Zn304 O301 1.945 . S
Zn304 O306 1.932 . S
Zn304 O313 1.977 . S
Zn304 O314 1.910 . S
O305 Zn302 1.933 . S
O305 C316 1.226 . S
O306 Zn304 1.932 . S
O306 C316 1.307 . S
O307 Zn300 1.919 . S
O307 C318 1.253 . S
O308 Zn302 1.941 . S
O308 C318 1.283 . S
O309 Zn302 1.965 . S
O309 C317 1.303 . S
O310 Zn303 1.938 . S
O310 C317 1.247 . S
O311 Zn303 1.906 . S
O311 C319 1.304 . S
O312 Zn300 1.924 . S
O312 C320 1.311 . S
O313 Zn304 1.977 . S
O313 C319 1.272 . S
O314 Zn304 1.910 . S
O314 C320 1.231 . S
C315 O299 1.225 . S
C315 O321 1.298 . S
C316 O305 1.226 . S
C316 O306 1.307 . S
C317 O309 1.303 . S
C317 O310 1.247 . S
C318 O307 1.253 . S
C318 O308 1.283 . S
C319 O311 1.304 . S
C319 O313 1.272 . S
C320 O312 1.311 . S
C320 O314 1.231 . S
O321 Zn303 1.953 . S
O321 C315 1.298 . S
O322 Zn323 1.953 1_565 S
O322 C338 1.225 . S
Zn323 O322 1.953 1_545 S
Zn323 O324 1.949 . S
Zn323 O330 1.919 . S
Zn323 O335 1.924 1_545 S
O324 Zn323 1.949 . S
O324 Zn325 1.923 . S
O324 Zn326 1.950 . S
O324 Zn327 1.945 . S
Zn325 O324 1.923 . S
Zn325 O328 1.933 . S
Zn325 O331 1.941 . S
Zn325 O332 1.965 . S
Zn326 O324 1.950 . S
Zn326 O333 1.938 . S
Zn326 O334 1.906 . S
Zn326 O344 1.953 . S
Zn327 O324 1.945 . S
Zn327 O329 1.932 . S
Zn327 O336 1.977 . S
Zn327 O337 1.910 . S
O328 Zn325 1.933 . S
O328 C339 1.226 . S
O329 Zn327 1.932 . S
O329 C339 1.307 . S
O330 Zn323 1.919 . S
O330 C341 1.253 . S
O331 Zn325 1.941 . S
O331 C341 1.283 . S
O332 Zn325 1.965 . S
O332 C340 1.303 . S
O333 Zn326 1.938 . S
O333 C340 1.247 . S
O334 Zn326 1.906 . S
O334 C342 1.304 . S
O335 Zn323 1.924 1_565 S
O335 C343 1.311 1_565 S
O336 Zn327 1.977 . S
O336 C342 1.272 . S
O337 Zn327 1.910 . S
O337 C343 1.231 . S
C338 O322 1.225 . S
C338 O344 1.298 1_565 S
C339 O328 1.226 . S
C339 O329 1.307 . S
C340 O332 1.303 . S
C340 O333 1.247 . S
C341 O330 1.253 . S
C341 O331 1.283 . S
C342 O334 1.304 . S
C342 O336 1.272 . S
C343 O335 1.311 1_545 S
C343 O337 1.231 . S
O344 Zn326 1.953 . S
O344 C338 1.298 1_545 S
O345 Zn346 1.953 1_565 S
O345 C361 1.225 . S
Zn346 O345 1.953 1_545 S
Zn346 O347 1.949 . S
Zn346 O353 1.919 . S
Zn346 O358 1.924 1_545 S
O347 Zn346 1.949 . S
O347 Zn348 1.923 . S
O347 Zn349 1.950 . S
O347 Zn350 1.945 . S
Zn348 O347 1.923 . S
Zn348 O351 1.933 . S
Zn348 O354 1.941 . S
Zn348 O355 1.965 . S
Zn349 O347 1.950 . S
Zn349 O356 1.938 . S
Zn349 O357 1.906 . S
Zn349 O367 1.953 . S
Zn350 O347 1.945 . S
Zn350 O352 1.932 . S
Zn350 O359 1.977 . S
Zn350 O360 1.910 . S
O351 Zn348 1.933 . S
O351 C362 1.226 . S
O352 Zn350 1.932 . S
O352 C362 1.307 . S
O353 Zn346 1.919 . S
O353 C364 1.253 . S
O354 Zn348 1.941 . S
O354 C364 1.283 . S
O355 Zn348 1.965 . S
O355 C363 1.303 . S
O356 Zn349 1.938 . S
O356 C363 1.247 . S
O357 Zn349 1.906 . S
O357 C365 1.304 . S
O358 Zn346 1.924 1_565 S
O358 C366 1.311 1_565 S
O359 Zn350 1.977 . S
O359 C365 1.272 . S
O360 Zn350 1.910 . S
O360 C366 1.231 . S
C361 O345 1.225 . S
C361 O367 1.298 1_565 S
C362 O351 1.226 . S
C362 O352 1.307 . S
C363 O355 1.303 . S
C363 O356 1.247 . S
C364 O353 1.253 . S
C364 O354 1.283 . S
C365 O357 1.304 . S
C365 O359 1.272 . S
C366 O358 1.311 1_545 S
C366 O360 1.231 . S
O367 Zn349 1.953 . S
O367 C361 1.298 1_545 S
O368 Zn369 1.953 1_455 S
O368 C384 1.225 . S
Zn369 O368 1.953 1_655 S
Zn369 O370 1.949 . S
Zn369 O376 1.919 . S
Zn369 O381 1.924 1_655 S
O370 Zn369 1.949 . S
O370 Zn371 1.923 . S
O370 Zn372 1.950 . S
O370 Zn373 1.945 . S
Zn371 O370 1.923 . S
Zn371 O374 1.933 . S
Zn371 O377 1.941 . S
Zn371 O378 1.965 . S
Zn372 O370 1.950 . S
Zn372 O379 1.938 . S
Zn372 O380 1.906 . S
Zn372 O390 1.953 . S
Zn373 O370 1.945 . S
Zn373 O375 1.932 . S
Zn373 O382 1.977 . S
Zn373 O383 1.910 . S
O374 Zn371 1.933 . S
O374 C385 1.226 . S
O375 Zn373 1.932 . S
O375 C385 1.307 . S
O376 Zn369 1.919 . S
O376 C387 1.253 . S
O377 Zn371 1.941 . S
O377 C387 1.283 . S
O378 Zn371 1.965 . S
O378 C386 1.303 . S
O379 Zn372 1.938 . S
O379 C386 1.247 . S
O380 Zn372 1.906 . S
O380 C388 1.304 . S
O381 Zn369 1.924 1_455 S
O381 C389 1.311 1_455 S
O382 Zn373 1.977 . S
O382 C388 1.272 . S
O383 Zn373 1.910 . S
O383 C389 1.231 . S
C384 O368 1.225 . S
C384 O390 1.298 1_455 S
C385 O374 1.226 . S
C385 O375 1.307 . S
C386 O378 1.303 . S
C386 O379 1.247 . S
C387 O376 1.253 . S
C387 O377 1.283 . S
C388 O380 1.304 . S
C388 O382 1.272 . S
C389 O381 1.311 1_655 S
C389 O383 1.231 . S
O390 Zn372 1.953 . S
O390 C384 1.298 1_655 S
O391 Zn392 1.953 . S
O391 C407 1.225 . S
Zn392 O391 1.953 . S
Zn392 O393 1.949 . S
Zn392 O399 1.919 . S
Zn392 O404 1.924 . S
O393 Zn392 1.949 . S
O393 Zn394 1.923 . S
O393 Zn395 1.950 . S
O393 Zn396 1.945 . S
Zn394 O393 1.923 . S
Zn394 O397 1.933 . S
Zn394 O400 1.941 . S
Zn394 O401 1.965 . S
Zn395 O393 1.950 . S
Zn395 O402 1.938 . S
Zn395 O403 1.906 . S
Zn395 O413 1.953 . S
Zn396 O393 1.945 . S
Zn396 O398 1.932 . S
Zn396 O405 1.977 . S
Zn396 O406 1.910 . S
O397 Zn394 1.933 . S
O397 C408 1.226 . S
O398 Zn396 1.932 . S
O398 C408 1.307 . S
O399 Zn392 1.919 . S
O399 C410 1.253 . S
O400 Zn394 1.941 . S
O400 C410 1.283 . S
O401 Zn394 1.965 . S
O401 C409 1.303 . S
O402 Zn395 1.938 . S
O402 C409 1.247 . S
O403 Zn395 1.906 . S
O403 C411 1.304 . S
O404 Zn392 1.924 . S
O404 C412 1.311 . S
O405 Zn396 1.977 . S
O405 C411 1.272 . S
O406 Zn396 1.910 . S
O406 C412 1.231 . S
C407 O391 1.225 . S
C407 O413 1.298 . S
C408 O397 1.226 . S
C408 O398 1.307 . S
C409 O401 1.303 . S
C409 O402 1.247 . S
C410 O399 1.253 . S
C410 O400 1.283 . S
C411 O403 1.304 . S
C411 O405 1.272 . S
C412 O404 1.311 . S
C412 O406 1.231 . S
O413 Zn395 1.953 . S
O413 C407 1.298 . S
C414 C415 1.363 . S
C414 C420 1.379 . S
C414 N422 1.356 . S
C415 C414 1.363 . S
C415 C421 1.363 1_556 S
C416 C417 1.363 . S
C416 C421 1.379 . S
C416 N423 1.356 . S
C417 C416 1.363 . S
C417 C420 1.363 1_554 S
N418 C420 1.356 . S
N418 H430 0.984 . S
N418 H431 0.985 . S
N419 C421 1.356 . S
N419 H424 0.984 . S
N419 H425 0.985 . S
C420 C414 1.379 . S
C420 C417 1.363 1_556 S
C420 N418 1.356 . S
C421 C415 1.363 1_554 S
C421 C416 1.379 . S
C421 N419 1.356 . S
N422 C414 1.356 . S
N422 H428 0.984 . S
N422 H429 0.984 . S
N423 C416 1.356 . S
N423 H426 0.984 . S
N423 H427 0.985 . S
H424 N419 0.984 . S
H425 N419 0.985 . S
H426 N423 0.984 . S
H427 N423 0.985 . S
H428 N422 0.984 . S
H429 N422 0.984 . S
H430 N418 0.984 . S
H431 N418 0.985 . S
C432 C433 1.363 . S
C432 C438 1.379 . S
C432 N440 1.356 . S
C433 C432 1.363 . S
C433 C439 1.363 1_554 S
C434 C435 1.363 . S
C434 C439 1.379 . S
C434 N441 1.356 . S
C435 C434 1.363 . S
C435 C438 1.363 1_556 S
N436 C438 1.356 . S
N436 H448 0.984 . S
N436 H449 0.985 . S
N437 C439 1.356 . S
N437 H442 0.984 . S
N437 H443 0.985 . S
C438 C432 1.379 . S
C438 C435 1.363 1_554 S
C438 N436 1.356 . S
C439 C433 1.363 1_556 S
C439 C434 1.379 . S
C439 N437 1.356 . S
N440 C432 1.356 . S
N440 H446 0.984 . S
N440 H447 0.984 . S
N441 C434 1.356 . S
N441 H444 0.984 . S
N441 H445 0.985 . S
H442 N437 0.984 . S
H443 N437 0.985 . S
H444 N441 0.984 . S
H445 N441 0.985 . S
H446 N440 0.984 . S
H447 N440 0.984 . S
H448 N436 0.984 . S
H449 N436 0.985 . S
C450 C451 1.363 . S
C450 C456 1.379 . S
C450 N458 1.356 . S
C451 C450 1.363 . S
C451 C457 1.363 1_556 S
C452 C453 1.363 . S
C452 C457 1.379 . S
C452 N459 1.356 . S
C453 C452 1.363 . S
C453 C456 1.363 1_554 S
N454 C456 1.356 . S
N454 H466 0.984 . S
N454 H467 0.985 . S
N455 C457 1.356 . S
N455 H460 0.984 . S
N455 H461 0.985 . S
C456 C450 1.379 . S
C456 C453 1.363 1_556 S
C456 N454 1.356 . S
C457 C451 1.363 1_554 S
C457 C452 1.379 . S
C457 N455 1.356 . S
N458 C450 1.356 . S
N458 H464 0.984 . S
N458 H465 0.984 . S
N459 C452 1.356 . S
N459 H462 0.984 . S
N459 H463 0.985 . S
H460 N455 0.984 . S
H461 N455 0.985 . S
H462 N459 0.984 . S
H463 N459 0.985 . S
H464 N458 0.984 . S
H465 N458 0.984 . S
H466 N454 0.984 . S
H467 N454 0.985 . S
C468 C469 1.363 . S
C468 C474 1.379 . S
C468 N476 1.356 . S
C469 C468 1.363 . S
C469 C475 1.363 . S
C470 C471 1.363 . S
C470 C475 1.379 . S
C470 N477 1.356 . S
C471 C470 1.363 . S
C471 C474 1.363 . S
N472 C474 1.356 . S
N472 H484 0.984 . S
N472 H485 0.985 . S
N473 C475 1.356 . S
N473 H478 0.984 . S
N473 H479 0.985 . S
C474 C468 1.379 . S
C474 C471 1.363 . S
C474 N472 1.356 . S
C475 C469 1.363 . S
C475 C470 1.379 . S
C475 N473 1.356 . S
N476 C468 1.356 . S
N476 H482 0.984 . S
N476 H483 0.984 . S
N477 C470 1.356 . S
N477 H480 0.984 . S
N477 H481 0.985 . S
H478 N473 0.984 . S
H479 N473 0.985 . S
H480 N477 0.984 . S
H481 N477 0.985 . S
H482 N476 0.984 . S
H483 N476 0.984 . S
H484 N472 0.984 . S
H485 N472 0.985 . S
C486 C487 1.363 . S
C486 C492 1.379 . S
C486 N494 1.356 . S
C487 C486 1.363 . S
C487 C493 1.363 . S
C488 C489 1.363 . S
C488 C493 1.379 . S
C488 N495 1.356 . S
C489 C488 1.363 . S
C489 C492 1.363 . S
N490 C492 1.356 . S
N490 H502 0.984 . S
N490 H503 0.985 . S
N491 C493 1.356 . S
N491 H496 0.984 . S
N491 H497 0.985 . S
C492 C486 1.379 . S
C492 C489 1.363 . S
C492 N490 1.356 . S
C493 C487 1.363 . S
C493 C488 1.379 . S
C493 N491 1.356 . S
N494 C486 1.356 . S
N494 H500 0.984 . S
N494 H501 0.984 . S
N495 C488 1.356 . S
N495 H498 0.984 . S
N495 H499 0.985 . S
H496 N491 0.984 . S
H497 N491 0.985 . S
H498 N495 0.984 . S
H499 N495 0.985 . S
H500 N494 0.984 . S
H501 N494 0.984 . S
H502 N490 0.984 . S
H503 N490 0.985 . S
C504 C505 1.363 . S
C504 C510 1.379 . S
C504 N512 1.356 . S
C505 C504 1.363 . S
C505 C511 1.363 . S
C506 C507 1.363 . S
C506 C511 1.379 . S
C506 N513 1.356 . S
C507 C506 1.363 . S
C507 C510 1.363 . S
N508 C510 1.356 . S
N508 H520 0.984 . S
N508 H521 0.985 . S
N509 C511 1.356 . S
N509 H514 0.984 . S
N509 H515 0.985 . S
C510 C504 1.379 . S
C510 C507 1.363 . S
C510 N508 1.356 . S
C511 C505 1.363 . S
C511 C506 1.379 . S
C511 N509 1.356 . S
N512 C504 1.356 . S
N512 H518 0.984 . S
N512 H519 0.984 . S
N513 C506 1.356 . S
N513 H516 0.984 . S
N513 H517 0.985 . S
H514 N509 0.984 . S
H515 N509 0.985 . S
H516 N513 0.984 . S
H517 N513 0.985 . S
H518 N512 0.984 . S
H519 N512 0.984 . S
H520 N508 0.984 . S
H521 N508 0.985 . S
C522 C523 1.363 . S
C522 C528 1.379 . S
C522 N530 1.356 . S
C523 C522 1.363 . S
C523 C529 1.363 . S
C524 C525 1.363 . S
C524 C529 1.379 . S
C524 N531 1.356 . S
C525 C524 1.363 . S
C525 C528 1.363 . S
N526 C528 1.356 . S
N526 H538 0.984 . S
N526 H539 0.985 . S
N527 C529 1.356 . S
N527 H532 0.984 . S
N527 H533 0.985 . S
C528 C522 1.379 . S
C528 C525 1.363 . S
C528 N526 1.356 . S
C529 C523 1.363 . S
C529 C524 1.379 . S
C529 N527 1.356 . S
N530 C522 1.356 . S
N530 H536 0.984 . S
N530 H537 0.984 . S
N531 C524 1.356 . S
N531 H534 0.984 . S
N531 H535 0.985 . S
H532 N527 0.984 . S
H533 N527 0.985 . S
H534 N531 0.984 . S
H535 N531 0.985 . S
H536 N530 0.984 . S
H537 N530 0.984 . S
H538 N526 0.984 . S
H539 N526 0.985 . S
C540 C541 1.363 . S
C540 C546 1.379 . S
C540 N548 1.356 . S
C541 C540 1.363 . S
C541 C547 1.363 . S
C542 C543 1.363 . S
C542 C547 1.379 . S
C542 N549 1.356 . S
C543 C542 1.363 . S
C543 C546 1.363 . S
N544 C546 1.356 . S
N544 H556 0.984 . S
N544 H557 0.985 . S
N545 C547 1.356 . S
N545 H550 0.984 . S
N545 H551 0.985 . S
C546 C540 1.379 . S
C546 C543 1.363 . S
C546 N544 1.356 . S
C547 C541 1.363 . S
C547 C542 1.379 . S
C547 N545 1.356 . S
N548 C540 1.356 . S
N548 H554 0.984 . S
N548 H555 0.984 . S
N549 C542 1.356 . S
N549 H552 0.984 . S
N549 H553 0.985 . S
H550 N545 0.984 . S
H551 N545 0.985 . S
H552 N549 0.984 . S
H553 N549 0.985 . S
H554 N548 0.984 . S
H555 N548 0.984 . S
H556 N544 0.984 . S
H557 N544 0.985 . S
C558 C559 1.363 . S
C558 C564 1.379 . S
C558 N566 1.356 . S
C559 C558 1.363 . S
C559 C565 1.363 . S
C560 C561 1.363 . S
C560 C565 1.379 . S
C560 N567 1.356 . S
C561 C560 1.363 . S
C561 C564 1.363 . S
N562 C564 1.356 . S
N562 H574 0.984 . S
N562 H575 0.985 . S
N563 C565 1.356 . S
N563 H568 0.984 . S
N563 H569 0.985 . S
C564 C558 1.379 . S
C564 C561 1.363 . S
C564 N562 1.356 . S
C565 C559 1.363 . S
C565 C560 1.379 . S
C565 N563 1.356 . S
N566 C558 1.356 . S
N566 H572 0.984 . S
N566 H573 0.984 . S
N567 C560 1.356 . S
N567 H570 0.984 . S
N567 H571 0.985 . S
H568 N563 0.984 . S
H569 N563 0.985 . S
H570 N567 0.984 . S
H571 N567 0.985 . S
H572 N566 0.984 . S
H573 N566 0.984 . S
H574 N562 0.984 . S
H575 N562 0.985 . S
C576 C577 1.363 . S
C576 C582 1.379 . S
C576 N584 1.356 . S
C577 C576 1.363 . S
C577 C583 1.363 . S
C578 C579 1.363 . S
C578 C583 1.379 . S
C578 N585 1.356 . S
C579 C578 1.363 . S
C579 C582 1.363 . S
N580 C582 1.356 . S
N580 H592 0.984 . S
N580 H593 0.985 . S
N581 C583 1.356 . S
N581 H586 0.984 . S
N581 H587 0.985 . S
C582 C576 1.379 . S
C582 C579 1.363 . S
C582 N580 1.356 . S
C583 C577 1.363 . S
C583 C578 1.379 . S
C583 N581 1.356 . S
N584 C576 1.356 . S
N584 H590 0.984 . S
N584 H591 0.984 . S
N585 C578 1.356 . S
N585 H588 0.984 . S
N585 H589 0.985 . S
H586 N581 0.984 . S
H587 N581 0.985 . S
H588 N585 0.984 . S
H589 N585 0.985 . S
H590 N584 0.984 . S
H591 N584 0.984 . S
H592 N580 0.984 . S
H593 N580 0.985 . S
C594 C595 1.363 . S
C594 C600 1.379 . S
C594 N602 1.356 . S
C595 C594 1.363 . S
C595 C601 1.363 . S
C596 C597 1.363 . S
C596 C601 1.379 . S
C596 N603 1.356 . S
C597 C596 1.363 . S
C597 C600 1.363 . S
N598 C600 1.356 . S
N598 H610 0.984 . S
N598 H611 0.985 . S
N599 C601 1.356 . S
N599 H604 0.984 . S
N599 H605 0.985 . S
C600 C594 1.379 . S
C600 C597 1.363 . S
C600 N598 1.356 . S
C601 C595 1.363 . S
C601 C596 1.379 . S
C601 N599 1.356 . S
N602 C594 1.356 . S
N602 H608 0.984 . S
N602 H609 0.984 . S
N603 C596 1.356 . S
N603 H606 0.984 . S
N603 H607 0.985 . S
H604 N599 0.984 . S
H605 N599 0.985 . S
H606 N603 0.984 . S
H607 N603 0.985 . S
H608 N602 0.984 . S
H609 N602 0.984 . S
H610 N598 0.984 . S
H611 N598 0.985 . S
C612 C613 1.363 . S
C612 C618 1.379 . S
C612 N620 1.356 . S
C613 C612 1.363 . S
C613 C619 1.363 . S
C614 C615 1.363 . S
C614 C619 1.379 . S
C614 N621 1.356 . S
C615 C614 1.363 . S
C615 C618 1.363 . S
N616 C618 1.356 . S
N616 H628 0.984 . S
N616 H629 0.985 . S
N617 C619 1.356 . S
N617 H622 0.984 . S
N617 H623 0.985 . S
C618 C612 1.379 . S
C618 C615 1.363 . S
C618 N616 1.356 . S
C619 C613 1.363 . S
C619 C614 1.379 . S
C619 N617 1.356 . S
N620 C612 1.356 . S
N620 H626 0.984 . S
N620 H627 0.984 . S
N621 C614 1.356 . S
N621 H624 0.984 . S
N621 H625 0.985 . S
H622 N617 0.984 . S
H623 N617 0.985 . S
H624 N621 0.984 . S
H625 N621 0.985 . S
H626 N620 0.984 . S
H627 N620 0.984 . S
H628 N616 0.984 . S
H629 N616 0.985 . S
C630 C631 1.363 . S
C630 C636 1.379 . S
C630 N638 1.356 . S
C631 C630 1.363 . S
C631 C637 1.363 . S
C632 C633 1.363 . S
C632 C637 1.379 . S
C632 N639 1.356 . S
C633 C632 1.363 . S
C633 C636 1.363 . S
N634 C636 1.356 . S
N634 H646 0.984 . S
N634 H647 0.985 . S
N635 C637 1.356 . S
N635 H640 0.984 . S
N635 H641 0.985 . S
C636 C630 1.379 . S
C636 C633 1.363 . S
C636 N634 1.356 . S
C637 C631 1.363 . S
C637 C632 1.379 . S
C637 N635 1.356 . S
N638 C630 1.356 . S
N638 H644 0.984 . S
N638 H645 0.984 . S
N639 C632 1.356 . S
N639 H642 0.984 . S
N639 H643 0.985 . S
H640 N635 0.984 . S
H641 N635 0.985 . S
H642 N639 0.984 . S
H643 N639 0.985 . S
H644 N638 0.984 . S
H645 N638 0.984 . S
H646 N634 0.984 . S
H647 N634 0.985 . S
C648 C649 1.363 . S
C648 C654 1.379 . S
C648 N656 1.356 1_565 S
C649 C648 1.363 . S
C649 C655 1.363 . S
C650 C651 1.363 . S
C650 C655 1.379 . S
C650 N657 1.356 . S
C651 C650 1.363 . S
C651 C654 1.363 . S
N652 C654 1.356 . S
N652 H664 0.984 . S
N652 H665 0.985 1_455 S
N653 C655 1.356 . S
N653 H658 0.984 1_565 S
N653 H659 0.985 . S
C654 C648 1.379 . S
C654 C651 1.363 . S
C654 N652 1.356 . S
C655 C649 1.363 . S
C655 C650 1.379 . S
C655 N653 1.356 . S
N656 C648 1.356 1_545 S
N656 H662 0.984 . S
N656 H663 0.984 . S
N657 C650 1.356 . S
N657 H660 0.984 . S
N657 H661 0.985 . S
H658 N653 0.984 1_545 S
H659 N653 0.985 . S
H660 N657 0.984 . S
H661 N657 0.985 . S
H662 N656 0.984 . S
H663 N656 0.984 . S
H664 N652 0.984 . S
H665 N652 0.985 1_655 S
C666 C667 1.363 . S
C666 C672 1.379 . S
C666 N674 1.356 1_455 S
C667 C666 1.363 . S
C667 C673 1.363 . S
C668 C669 1.363 . S
C668 C673 1.379 . S
C668 N675 1.356 . S
C669 C668 1.363 . S
C669 C672 1.363 . S
N670 C672 1.356 . S
N670 H682 0.984 . S
N670 H683 0.985 . S
N671 C673 1.356 . S
N671 H676 0.984 1_455 S
N671 H677 0.985 . S
C672 C666 1.379 . S
C672 C669 1.363 . S
C672 N670 1.356 . S
C673 C667 1.363 . S
C673 C668 1.379 . S
C673 N671 1.356 . S
N674 C666 1.356 1_655 S
N674 H680 0.984 . S
N674 H681 0.984 . S
N675 C668 1.356 . S
N675 H678 0.984 . S
N675 H679 0.985 . S
H676 N671 0.984 1_655 S
H677 N671 0.985 . S
H678 N675 0.984 . S
H679 N675 0.985 . S
H680 N674 0.984 . S
H681 N674 0.984 . S
H682 N670 0.984 . S
H683 N670 0.985 . S
C684 C685 1.363 . S
C684 C690 1.379 . S
C684 N692 1.356 . S
C685 C684 1.363 . S
C685 C691 1.363 . S
C686 C687 1.363 . S
C686 C691 1.379 . S
C686 N693 1.356 . S
C687 C686 1.363 . S
C687 C690 1.363 . S
N688 C690 1.356 . S
N688 H700 0.984 1_455 S
N688 H701 0.985 1_455 S
N689 C691 1.356 . S
N689 H694 0.984 . S
N689 H695 0.985 . S
C690 C684 1.379 . S
C690 C687 1.363 . S
C690 N688 1.356 . S
C691 C685 1.363 . S
C691 C686 1.379 . S
C691 N689 1.356 . S
N692 C684 1.356 . S
N692 H698 0.984 . S
N692 H699 0.984 . S
N693 C686 1.356 . S
N693 H696 0.984 . S
N693 H697 0.985 . S
H694 N689 0.984 . S
H695 N689 0.985 . S
H696 N693 0.984 . S
H697 N693 0.985 . S
H698 N692 0.984 . S
H699 N692 0.984 . S
H700 N688 0.984 1_655 S
H701 N688 0.985 1_655 S
C702 C703 1.363 . S
C702 C708 1.379 . S
C702 N710 1.356 . S
C703 C702 1.363 . S
C703 C709 1.363 . S
C704 C705 1.363 . S
C704 C709 1.379 . S
C704 N711 1.356 1_565 S
C705 C704 1.363 . S
C705 C708 1.363 . S
N706 C708 1.356 . S
N706 H718 0.984 . S
N706 H719 0.985 1_565 S
N707 C709 1.356 . S
N707 H712 0.984 . S
N707 H713 0.985 . S
C708 C702 1.379 . S
C708 C705 1.363 . S
C708 N706 1.356 . S
C709 C703 1.363 . S
C709 C704 1.379 . S
C709 N707 1.356 . S
N710 C702 1.356 . S
N710 H716 0.984 . S
N710 H717 0.984 . S
N711 C704 1.356 1_545 S
N711 H714 0.984 . S
N711 H715 0.985 . S
H712 N707 0.984 . S
H713 N707 0.985 . S
H714 N711 0.984 . S
H715 N711 0.985 . S
H716 N710 0.984 . S
H717 N710 0.984 . S
H718 N706 0.984 . S
H719 N706 0.985 1_545 S
C720 C721 1.363 . S
C720 C726 1.379 . S
C720 N728 1.356 . S
C721 C720 1.363 . S
C721 C727 1.363 . S
C722 C723 1.363 . S
C722 C727 1.379 . S
C722 N729 1.356 1_455 S
C723 C722 1.363 . S
C723 C726 1.363 . S
N724 C726 1.356 1_655 S
N724 H736 0.984 1_655 S
N724 H737 0.985 . S
N725 C727 1.356 . S
N725 H730 0.984 . S
N725 H731 0.985 . S
C726 C720 1.379 . S
C726 C723 1.363 . S
C726 N724 1.356 1_455 S
C727 C721 1.363 . S
C727 C722 1.379 . S
C727 N725 1.356 . S
N728 C720 1.356 . S
N728 H734 0.984 . S
N728 H735 0.984 1_565 S
N729 C722 1.356 1_655 S
N729 H732 0.984 . S
N729 H733 0.989 . S
H730 N725 0.984 . S
H731 N725 0.985 . S
H732 N729 0.984 . S
H733 N729 0.989 . S
H734 N728 0.984 . S
H735 N728 0.984 1_545 S
H736 N724 0.984 1_455 S
H737 N724 0.985 . S
C738 C739 1.363 . S
C738 C744 1.379 . S
C738 N746 1.356 . S
C739 C738 1.363 . S
C739 C745 1.363 . S
C740 C741 1.363 . S
C740 C745 1.379 . S
C740 N747 1.356 . S
C741 C740 1.363 . S
C741 C744 1.363 . S
N742 C744 1.356 . S
N742 H754 0.984 . S
N742 H755 0.985 . S
N743 C745 1.356 . S
N743 H748 0.984 . S
N743 H749 0.985 . S
C744 C738 1.379 . S
C744 C741 1.363 . S
C744 N742 1.356 . S
C745 C739 1.363 . S
C745 C740 1.379 . S
C745 N743 1.356 . S
N746 C738 1.356 . S
N746 H752 0.984 . S
N746 H753 0.984 . S
N747 C740 1.356 . S
N747 H750 0.984 . S
N747 H751 0.985 . S
H748 N743 0.984 . S
H749 N743 0.985 . S
H750 N747 0.984 . S
H751 N747 0.985 . S
H752 N746 0.984 . S
H753 N746 0.984 . S
H754 N742 0.984 . S
H755 N742 0.985 . S
C756 C757 1.363 . S
C756 C762 1.379 . S
C756 N764 1.356 . S
C757 C756 1.363 . S
C757 C763 1.363 . S
C758 C759 1.363 . S
C758 C763 1.379 . S
C758 N765 1.356 . S
C759 C758 1.363 . S
C759 C762 1.363 . S
N760 C762 1.356 . S
N760 H772 0.984 . S
N760 H773 0.985 . S
N761 C763 1.356 . S
N761 H766 0.984 . S
N761 H767 0.985 . S
C762 C756 1.379 . S
C762 C759 1.363 . S
C762 N760 1.356 . S
C763 C757 1.363 . S
C763 C758 1.379 . S
C763 N761 1.356 . S
N764 C756 1.356 . S
N764 H770 0.984 . S
N764 H771 0.984 . S
N765 C758 1.356 . S
N765 H768 0.984 . S
N765 H769 0.985 . S
H766 N761 0.984 . S
H767 N761 0.985 . S
H768 N765 0.984 . S
H769 N765 0.985 . S
H770 N764 0.984 . S
H771 N764 0.984 . S
H772 N760 0.984 . S
H773 N760 0.985 . S
C774 C775 1.363 . S
C774 C780 1.379 . S
C774 N782 1.356 . S
C775 C774 1.363 . S
C775 C781 1.363 . S
C776 C777 1.363 . S
C776 C781 1.379 . S
C776 N783 1.356 . S
C777 C776 1.363 . S
C777 C780 1.363 . S
N778 C780 1.356 . S
N778 H790 0.984 . S
N778 H791 0.985 . S
N779 C781 1.356 . S
N779 H784 0.984 . S
N779 H785 0.985 . S
C780 C774 1.379 . S
C780 C777 1.363 . S
C780 N778 1.356 . S
C781 C775 1.363 . S
C781 C776 1.379 . S
C781 N779 1.356 . S
N782 C774 1.356 . S
N782 H788 0.984 . S
N782 H789 0.984 . S
N783 C776 1.356 . S
N783 H786 0.984 . S
N783 H787 0.985 . S
H784 N779 0.984 . S
H785 N779 0.985 . S
H786 N783 0.984 . S
H787 N783 0.985 . S
H788 N782 0.984 . S
H789 N782 0.984 . S
H790 N778 0.984 . S
H791 N778 0.985 . S
C792 C793 1.363 . S
C792 C798 1.379 . S
C792 N800 1.356 . S
C793 C792 1.363 . S
C793 C799 1.363 . S
C794 C795 1.363 . S
C794 C799 1.379 . S
C794 N801 1.356 . S
C795 C794 1.363 . S
C795 C798 1.363 . S
N796 C798 1.356 . S
N796 H808 0.984 . S
N796 H809 0.985 . S
N797 C799 1.356 . S
N797 H802 0.984 . S
N797 H803 0.985 . S
C798 C792 1.379 . S
C798 C795 1.363 . S
C798 N796 1.356 . S
C799 C793 1.363 . S
C799 C794 1.379 . S
C799 N797 1.356 . S
N800 C792 1.356 . S
N800 H806 0.984 . S
N800 H807 0.984 . S
N801 C794 1.356 . S
N801 H804 0.984 . S
N801 H805 0.985 . S
H802 N797 0.984 . S
H803 N797 0.985 . S
H804 N801 0.984 . S
H805 N801 0.985 . S
H806 N800 0.984 . S
H807 N800 0.984 . S
H808 N796 0.984 . S
H809 N796 0.985 . S
C810 C811 1.363 . S
C810 C816 1.379 . S
C810 N818 1.356 . S
C811 C810 1.363 . S
C811 C817 1.363 . S
C812 C813 1.363 . S
C812 C817 1.379 . S
C812 N819 1.356 . S
C813 C812 1.363 . S
C813 C816 1.363 . S
N814 C816 1.356 . S
N814 H826 0.984 . S
N814 H827 0.985 . S
N815 C817 1.356 . S
N815 H820 0.984 . S
N815 H821 0.985 . S
C816 C810 1.379 . S
C816 C813 1.363 . S
C816 N814 1.356 . S
C817 C811 1.363 . S
C817 C812 1.379 . S
C817 N815 1.356 . S
N818 C810 1.356 . S
N818 H824 0.984 . S
N818 H825 0.984 . S
N819 C812 1.356 . S
N819 H822 0.984 . S
N819 H823 0.985 . S
H820 N815 0.984 . S
H821 N815 0.985 . S
H822 N819 0.984 . S
H823 N819 0.985 . S
H824 N818 0.984 . S
H825 N818 0.984 . S
H826 N814 0.984 . S
H827 N814 0.985 . S
C828 C829 1.363 . S
C828 C834 1.379 . S
C828 N836 1.356 . S
C829 C828 1.363 . S
C829 C835 1.363 . S
C830 C831 1.363 . S
C830 C835 1.379 . S
C830 N837 1.356 . S
C831 C830 1.363 . S
C831 C834 1.363 . S
N832 C834 1.356 . S
N832 H844 0.984 . S
N832 H845 0.985 . S
N833 C835 1.356 . S
N833 H838 0.984 . S
N833 H839 0.985 . S
C834 C828 1.379 . S
C834 C831 1.363 . S
C834 N832 1.356 . S
C835 C829 1.363 . S
C835 C830 1.379 . S
C835 N833 1.356 . S
N836 C828 1.356 . S
N836 H842 0.984 . S
N836 H843 0.984 . S
N837 C830 1.356 . S
N837 H840 0.984 . S
N837 H841 0.985 . S
H838 N833 0.984 . S
H839 N833 0.985 . S
H840 N837 0.984 . S
H841 N837 0.985 . S
H842 N836 0.984 . S
H843 N836 0.984 . S
H844 N832 0.984 . S
H845 N832 0.985 . S
C846 C847 1.363 . S
C846 C852 1.379 . S
C846 N854 1.356 . S
C847 C846 1.363 . S
C847 C853 1.363 . S
C848 C849 1.363 . S
C848 C853 1.379 . S
C848 N855 1.356 . S
C849 C848 1.363 . S
C849 C852 1.363 . S
N850 C852 1.356 . S
N850 H862 0.984 . S
N850 H863 0.985 . S
N851 C853 1.356 . S
N851 H856 0.984 . S
N851 H857 0.985 . S
C852 C846 1.379 . S
C852 C849 1.363 . S
C852 N850 1.356 . S
C853 C847 1.363 . S
C853 C848 1.379 . S
C853 N851 1.356 . S
N854 C846 1.356 . S
N854 H860 0.984 . S
N854 H861 0.984 . S
N855 C848 1.356 . S
N855 H858 0.984 . S
N855 H859 0.985 . S
H856 N851 0.984 . S
H857 N851 0.985 . S
H858 N855 0.984 . S
H859 N855 0.985 . S
H860 N854 0.984 . S
H861 N854 0.984 . S
H862 N850 0.984 . S
H863 N850 0.985 . S
C864 C865 1.363 . S
C864 C870 1.379 . S
C864 N872 1.356 . S
C865 C864 1.363 . S
C865 C871 1.363 . S
C866 C867 1.363 . S
C866 C871 1.379 . S
C866 N873 1.356 . S
C867 C866 1.363 . S
C867 C870 1.363 . S
N868 C870 1.356 . S
N868 H880 0.984 . S
N868 H881 0.985 . S
N869 C871 1.356 . S
N869 H874 0.984 . S
N869 H875 0.985 . S
C870 C864 1.379 . S
C870 C867 1.363 . S
C870 N868 1.356 . S
C871 C865 1.363 . S
C871 C866 1.379 . S
C871 N869 1.356 . S
N872 C864 1.356 . S
N872 H878 0.984 . S
N872 H879 0.984 . S
N873 C866 1.356 . S
N873 H876 0.984 . S
N873 H877 0.985 . S
H874 N869 0.984 . S
H875 N869 0.985 . S
H876 N873 0.984 . S
H877 N873 0.985 . S
H878 N872 0.984 . S
H879 N872 0.984 . S
H880 N868 0.984 . S
H881 N868 0.985 . S
C882 C883 1.363 . S
C882 C888 1.379 . S
C882 N890 1.356 . S
C883 C882 1.363 . S
C883 C889 1.363 . S
C884 C885 1.363 . S
C884 C889 1.379 . S
C884 N891 1.356 . S
C885 C884 1.363 . S
C885 C888 1.363 . S
N886 C888 1.356 . S
N886 H898 0.984 . S
N886 H899 0.985 . S
N887 C889 1.356 . S
N887 H892 0.984 . S
N887 H893 0.985 . S
C888 C882 1.379 . S
C888 C885 1.363 . S
C888 N886 1.356 . S
C889 C883 1.363 . S
C889 C884 1.379 . S
C889 N887 1.356 . S
N890 C882 1.356 . S
N890 H896 0.984 . S
N890 H897 0.984 . S
N891 C884 1.356 . S
N891 H894 0.984 . S
N891 H895 0.985 . S
H892 N887 0.984 . S
H893 N887 0.985 . S
H894 N891 0.984 . S
H895 N891 0.985 . S
H896 N890 0.984 . S
H897 N890 0.984 . S
H898 N886 0.984 . S
H899 N886 0.985 . S
C900 C901 1.363 . S
C900 C906 1.379 . S
C900 N908 1.356 . S
C901 C900 1.363 . S
C901 C907 1.363 . S
C902 C903 1.363 . S
C902 C907 1.379 . S
C902 N909 1.356 . S
C903 C902 1.363 . S
C903 C906 1.363 . S
N904 C906 1.356 . S
N904 H916 0.984 . S
N904 H917 0.985 . S
N905 C907 1.356 . S
N905 H910 0.984 1_554 S
N905 H911 0.985 . S
C906 C900 1.379 . S
C906 C903 1.363 . S
C906 N904 1.356 . S
C907 C901 1.363 . S
C907 C902 1.379 . S
C907 N905 1.356 . S
N908 C900 1.356 . S
N908 H914 0.984 . S
N908 H915 0.984 1_554 S
N909 C902 1.356 . S
N909 H912 0.984 . S
N909 H913 0.985 . S
H910 N905 0.984 1_556 S
H911 N905 0.985 . S
H912 N909 0.984 . S
H913 N909 0.985 . S
H914 N908 0.984 . S
H915 N908 0.984 1_556 S
H916 N904 0.984 . S
H917 N904 0.985 . S
C918 C919 1.363 . S
C918 C924 1.379 . S
C918 N926 1.356 1_554 S
C919 C918 1.363 . S
C919 C925 1.363 . S
C920 C921 1.363 . S
C920 C925 1.379 . S
C920 N927 1.356 . S
C921 C920 1.363 . S
C921 C924 1.363 . S
N922 C924 1.356 . S
N922 H934 0.984 . S
N922 H935 0.985 . S
N923 C925 1.356 . S
N923 H928 0.984 . S
N923 H929 0.985 . S
C924 C918 1.379 . S
C924 C921 1.363 . S
C924 N922 1.356 . S
C925 C919 1.363 . S
C925 C920 1.379 . S
C925 N923 1.356 . S
N926 C918 1.356 1_556 S
N926 H932 0.984 . S
N926 H933 0.984 . S
N927 C920 1.356 . S
N927 H930 0.984 . S
N927 H931 0.985 . S
H928 N923 0.984 . S
H929 N923 0.985 . S
H930 N927 0.984 . S
H931 N927 0.985 . S
H932 N926 0.984 . S
H933 N926 0.984 . S
H934 N922 0.984 . S
H935 N922 0.985 . S
C936 C937 1.363 . S
C936 C942 1.379 . S
C936 N944 1.356 . S
C937 C936 1.363 . S
C937 C943 1.363 . S
C938 C939 1.363 . S
C938 C943 1.379 . S
C938 N945 1.356 . S
C939 C938 1.363 . S
C939 C942 1.363 . S
N940 C942 1.356 . S
N940 H952 0.984 . S
N940 H953 0.985 . S
N941 C943 1.356 . S
N941 H946 0.984 1_554 S
N941 H947 0.985 . S
C942 C936 1.379 . S
C942 C939 1.363 . S
C942 N940 1.356 . S
C943 C937 1.363 . S
C943 C938 1.379 . S
C943 N941 1.356 . S
N944 C936 1.356 . S
N944 H950 0.984 . S
N944 H951 0.984 1_554 S
N945 C938 1.356 . S
N945 H948 0.984 . S
N945 H949 0.985 . S
H946 N941 0.984 1_556 S
H947 N941 0.985 . S
H948 N945 0.984 . S
H949 N945 0.985 . S
H950 N944 0.984 . S
H951 N944 0.984 1_556 S
H952 N940 0.984 . S
H953 N940 0.985 . S
C954 C955 1.363 . S
C954 C960 1.379 . S
C954 N962 1.356 . S
C955 C954 1.363 . S
C955 C961 1.363 . S
C956 C957 1.363 . S
C956 C961 1.379 . S
C956 N963 1.356 1_556 S
C957 C956 1.363 . S
C957 C960 1.363 . S
N958 C960 1.356 . S
N958 H970 0.984 . S
N958 H971 0.985 . S
N959 C961 1.356 . S
N959 H964 0.984 . S
N959 H965 0.985 . S
C960 C954 1.379 . S
C960 C957 1.363 . S
C960 N958 1.356 . S
C961 C955 1.363 . S
C961 C956 1.379 . S
C961 N959 1.356 . S
N962 C954 1.356 . S
N962 H968 0.984 . S
N962 H969 0.984 . S
N963 C956 1.356 1_554 S
N963 H966 0.984 . S
N963 H967 0.985 . S
H964 N959 0.984 . S
H965 N959 0.985 . S
H966 N963 0.984 . S
H967 N963 0.985 . S
H968 N962 0.984 . S
H969 N962 0.984 . S
H970 N958 0.984 . S
H971 N958 0.985 . S
C972 C973 1.363 . S
C972 C978 1.379 . S
C972 N980 1.356 . S
C973 C972 1.363 . S
C973 C979 1.363 . S
C974 C975 1.363 . S
C974 C979 1.379 . S
C974 N981 1.356 1_556 S
C975 C974 1.363 . S
C975 C978 1.363 . S
N976 C978 1.356 . S
N976 H988 0.984 . S
N976 H989 0.985 1_556 S
N977 C979 1.356 . S
N977 H982 0.984 . S
N977 H983 0.985 . S
C978 C972 1.379 . S
C978 C975 1.363 . S
C978 N976 1.356 . S
C979 C973 1.363 . S
C979 C974 1.379 . S
C979 N977 1.356 . S
N980 C972 1.356 . S
N980 H986 0.984 . S
N980 H987 0.984 . S
N981 C974 1.356 1_554 S
N981 H984 0.984 . S
N981 H985 0.985 . S
H982 N977 0.984 . S
H983 N977 0.985 . S
H984 N981 0.984 . S
H985 N981 0.985 . S
H986 N980 0.984 . S
H987 N980 0.984 . S
H988 N976 0.984 . S
H989 N976 0.985 1_554 S
C990 C991 1.363 . S
C990 C996 1.379 . S
C990 N998 1.356 . S
C991 C990 1.363 . S
C991 C997 1.363 . S
C992 C993 1.363 . S
C992 C997 1.379 . S
C992 N999 1.356 . S
C993 C992 1.363 . S
C993 C996 1.363 . S
N994 C996 1.356 1_554 S
N994 H1006 0.984 . S
N994 H1007 0.985 . S
N995 C997 1.356 . S
N995 H1000 0.984 . S
N995 H1001 0.985 . S
C996 C990 1.379 . S
C996 C993 1.363 . S
C996 N994 1.356 1_556 S
C997 C991 1.363 . S
C997 C992 1.379 . S
C997 N995 1.356 . S
N998 C990 1.356 . S
N998 H1004 0.984 . S
N998 H1005 0.984 . S
N999 C992 1.356 . S
N999 H1002 0.984 . S
N999 H1003 0.985 . S
H1000 N995 0.984 . S
H1001 N995 0.985 . S
H1002 N999 0.984 . S
H1003 N999 0.985 . S
H1004 N998 0.984 . S
H1005 N998 0.984 . S
H1006 N994 0.984 . S
H1007 N994 0.985 . S
C1008 C1009 1.363 . S
C1008 C1014 1.379 . S
C1008 N1016 1.356 . S
C1009 C1008 1.363 . S
C1009 C1015 1.363 . S
C1010 C1011 1.363 . S
C1010 C1015 1.379 . S
C1010 N1017 1.356 . S
C1011 C1010 1.363 . S
C1011 C1014 1.363 . S
N1012 C1014 1.356 . S
N1012 H1024 0.984 . S
N1012 H1025 0.985 . S
N1013 C1015 1.356 . S
N1013 H1018 0.984 . S
N1013 H1019 0.985 . S
C1014 C1008 1.379 . S
C1014 C1011 1.363 . S
C1014 N1012 1.356 . S
C1015 C1009 1.363 . S
C1015 C1010 1.379 . S
C1015 N1013 1.356 . S
N1016 C1008 1.356 . S
N1016 H1022 0.984 . S
N1016 H1023 0.984 . S
N1017 C1010 1.356 . S
N1017 H1020 0.984 . S
N1017 H1021 0.985 . S
H1018 N1013 0.984 . S
H1019 N1013 0.985 . S
H1020 N1017 0.984 . S
H1021 N1017 0.985 . S
H1022 N1016 0.984 . S
H1023 N1016 0.984 . S
H1024 N1012 0.984 . S
H1025 N1012 0.985 . S
C1026 C1027 1.363 . S
C1026 C1032 1.379 . S
C1026 N1034 1.356 . S
C1027 C1026 1.363 . S
C1027 C1033 1.363 . S
C1028 C1029 1.363 . S
C1028 C1033 1.379 . S
C1028 N1035 1.356 . S
C1029 C1028 1.363 . S
C1029 C1032 1.363 . S
N1030 C1032 1.356 . S
N1030 H1042 0.984 . S
N1030 H1043 0.985 . S
N1031 C1033 1.356 . S
N1031 H1036 0.984 . S
N1031 H1037 0.985 . S
C1032 C1026 1.379 . S
C1032 C1029 1.363 . S
C1032 N1030 1.356 . S
C1033 C1027 1.363 . S
C1033 C1028 1.379 . S
C1033 N1031 1.356 . S
N1034 C1026 1.356 . S
N1034 H1040 0.984 . S
N1034 H1041 0.984 . S
N1035 C1028 1.356 . S
N1035 H1038 0.984 . S
N1035 H1039 0.985 . S
H1036 N1031 0.984 . S
H1037 N1031 0.985 . S
H1038 N1035 0.984 . S
H1039 N1035 0.985 . S
H1040 N1034 0.984 . S
H1041 N1034 0.984 . S
H1042 N1030 0.984 . S
H1043 N1030 0.985 . S
C1044 C1045 1.363 . S
C1044 C1050 1.379 . S
C1044 N1052 1.356 . S
C1045 C1044 1.363 . S
C1045 C1051 1.363 . S
C1046 C1047 1.363 . S
C1046 C1051 1.379 . S
C1046 N1053 1.356 . S
C1047 C1046 1.363 . S
C1047 C1050 1.363 . S
N1048 C1050 1.356 . S
N1048 H1060 0.984 . S
N1048 H1061 0.985 . S
N1049 C1051 1.356 . S
N1049 H1054 0.984 . S
N1049 H1055 0.985 . S
C1050 C1044 1.379 . S
C1050 C1047 1.363 . S
C1050 N1048 1.356 . S
C1051 C1045 1.363 . S
C1051 C1046 1.379 . S
C1051 N1049 1.356 . S
N1052 C1044 1.356 . S
N1052 H1058 0.984 . S
N1052 H1059 0.984 . S
N1053 C1046 1.356 . S
N1053 H1056 0.984 . S
N1053 H1057 0.985 . S
H1054 N1049 0.984 . S
H1055 N1049 0.985 . S
H1056 N1053 0.984 . S
H1057 N1053 0.985 . S
H1058 N1052 0.984 . S
H1059 N1052 0.984 . S
H1060 N1048 0.984 . S
H1061 N1048 0.985 . S
C1062 C1063 1.363 . S
C1062 C1068 1.379 . S
C1062 N1070 1.356 . S
C1063 C1062 1.363 . S
C1063 C1069 1.363 . S
C1064 C1065 1.363 . S
C1064 C1069 1.379 . S
C1064 N1071 1.356 1_556 S
C1065 C1064 1.363 . S
C1065 C1068 1.363 . S
N1066 C1068 1.356 1_545 S
N1066 H1078 0.984 . S
N1066 H1079 0.985 . S
N1067 C1069 1.356 . S
N1067 H1072 0.984 . S
N1067 H1073 0.985 . S
C1068 C1062 1.379 . S
C1068 C1065 1.363 . S
C1068 N1066 1.356 1_565 S
C1069 C1063 1.363 . S
C1069 C1064 1.379 . S
C1069 N1067 1.356 . S
N1070 C1062 1.356 . S
N1070 H1076 0.984 . S
N1070 H1077 0.984 . S
N1071 C1064 1.356 1_554 S
N1071 H1074 0.984 . S
N1071 H1075 0.985 . S
H1072 N1067 0.984 . S
H1073 N1067 0.985 . S
H1074 N1071 0.984 . S
H1075 N1071 0.985 . S
H1076 N1070 0.984 . S
H1077 N1070 0.984 . S
H1078 N1066 0.984 . S
H1079 N1066 0.985 . S
C1080 C1081 1.363 . S
C1080 C1086 1.379 . S
C1080 N1088 1.356 1_456 S
C1081 C1080 1.363 . S
C1081 C1087 1.363 . S
C1082 C1083 1.363 . S
C1082 C1087 1.379 . S
C1082 N1089 1.356 . S
C1083 C1082 1.363 . S
C1083 C1086 1.363 . S
N1084 C1086 1.356 . S
N1084 H1096 0.984 . S
N1084 H1097 0.985 . S
N1085 C1087 1.356 . S
N1085 H1090 0.984 1_455 S
N1085 H1091 0.985 . S
C1086 C1080 1.379 . S
C1086 C1083 1.363 . S
C1086 N1084 1.356 . S
C1087 C1081 1.363 . S
C1087 C1082 1.379 . S
C1087 N1085 1.356 . S
N1088 C1080 1.356 1_654 S
N1088 H1094 0.984 . S
N1088 H1095 0.984 . S
N1089 C1082 1.356 . S
N1089 H1092 0.984 . S
N1089 H1093 0.985 . S
H1090 N1085 0.984 1_655 S
H1091 N1085 0.985 . S
H1092 N1089 0.984 . S
H1093 N1089 0.985 . S
H1094 N1088 0.984 . S
H1095 N1088 0.984 . S
H1096 N1084 0.984 . S
H1097 N1084 0.985 . S
C1098 C1099 1.363 . S
C1098 C1104 1.379 . S
C1098 N1106 1.356 . S
C1099 C1098 1.363 . S
C1099 C1105 1.363 . S
C1100 C1101 1.363 . S
C1100 C1105 1.379 . S
C1100 N1107 1.356 1_556 S
C1101 C1100 1.363 . S
C1101 C1104 1.363 . S
N1102 C1104 1.356 . S
N1102 H1114 0.984 . S
N1102 H1115 0.985 . S
N1103 C1105 1.356 . S
N1103 H1108 0.984 . S
N1103 H1109 0.985 . S
C1104 C1098 1.379 . S
C1104 C1101 1.363 . S
C1104 N1102 1.356 . S
C1105 C1099 1.363 . S
C1105 C1100 1.379 . S
C1105 N1103 1.356 . S
N1106 C1098 1.356 . S
N1106 H1112 0.984 . S
N1106 H1113 0.984 . S
N1107 C1100 1.356 1_554 S
N1107 H1110 0.984 . S
N1107 H1111 0.985 . S
H1108 N1103 0.984 . S
H1109 N1103 0.985 . S
H1110 N1107 0.984 . S
H1111 N1107 0.985 . S
H1112 N1106 0.984 . S
H1113 N1106 0.984 . S
H1114 N1102 0.984 . S
H1115 N1102 0.985 . S
C1116 C1117 1.363 . S
C1116 C1122 1.379 . S
C1116 N1124 1.356 . S
C1117 C1116 1.363 . S
C1117 C1123 1.363 1_455 S
C1118 C1119 1.363 . S
C1118 C1123 1.379 1_455 S
C1118 N1125 1.356 . S
C1119 C1118 1.363 . S
C1119 C1122 1.363 . S
N1120 C1122 1.356 . S
N1120 H1132 0.984 . S
N1120 H1133 0.985 . S
N1121 C1123 1.356 . S
N1121 H1126 0.984 . S
N1121 H1127 0.985 . S
C1122 C1116 1.379 . S
C1122 C1119 1.363 . S
C1122 N1120 1.356 . S
C1123 C1117 1.363 1_655 S
C1123 C1118 1.379 1_655 S
C1123 N1121 1.356 . S
N1124 C1116 1.356 . S
N1124 H1130 0.984 . S
N1124 H1131 0.984 . S
N1125 C1118 1.356 . S
N1125 H1128 0.984 . S
N1125 H1129 0.985 1_455 S
H1126 N1121 0.984 . S
H1127 N1121 0.985 . S
H1128 N1125 0.984 . S
H1129 N1125 0.985 1_655 S
H1130 N1124 0.984 . S
H1131 N1124 0.984 . S
H1132 N1120 0.984 . S
H1133 N1120 0.985 . S
C1134 C1135 1.363 . S
C1134 C1140 1.379 . S
C1134 N1142 1.356 . S
C1135 C1134 1.363 . S
C1135 C1141 1.363 . S
C1136 C1137 1.363 . S
C1136 C1141 1.379 . S
C1136 N1143 1.356 . S
C1137 C1136 1.363 . S
C1137 C1140 1.363 . S
N1138 C1140 1.356 . S
N1138 H1150 0.984 . S
N1138 H1151 0.985 . S
N1139 C1141 1.356 . S
N1139 H1144 0.984 . S
N1139 H1145 0.985 . S
C1140 C1134 1.379 . S
C1140 C1137 1.363 . S
C1140 N1138 1.356 . S
C1141 C1135 1.363 . S
C1141 C1136 1.379 . S
C1141 N1139 1.356 . S
N1142 C1134 1.356 . S
N1142 H1148 0.984 . S
N1142 H1149 0.984 . S
N1143 C1136 1.356 . S
N1143 H1146 0.984 . S
N1143 H1147 0.985 . S
H1144 N1139 0.984 . S
H1145 N1139 0.985 . S
H1146 N1143 0.984 . S
H1147 N1143 0.985 . S
H1148 N1142 0.984 . S
H1149 N1142 0.984 . S
H1150 N1138 0.984 . S
H1151 N1138 0.985 . S
C1152 C1153 1.363 . S
C1152 C1158 1.379 . S
C1152 N1160 1.356 . S
C1153 C1152 1.363 . S
C1153 C1159 1.363 . S
C1154 C1155 1.363 1_545 S
C1154 C1159 1.379 1_545 S
C1154 N1161 1.356 . S
C1155 C1154 1.363 1_565 S
C1155 C1158 1.363 . S
N1156 C1158 1.356 . S
N1156 H1168 0.984 . S
N1156 H1169 0.985 . S
N1157 C1159 1.356 . S
N1157 H1162 0.984 . S
N1157 H1163 0.985 1_565 S
C1158 C1152 1.379 . S
C1158 C1155 1.363 . S
C1158 N1156 1.356 . S
C1159 C1153 1.363 . S
C1159 C1154 1.379 1_565 S
C1159 N1157 1.356 . S
N1160 C1152 1.356 . S
N1160 H1166 0.984 . S
N1160 H1167 0.984 . S
N1161 C1154 1.356 . S
N1161 H1164 0.984 . S
N1161 H1165 0.985 . S
H1162 N1157 0.984 . S
H1163 N1157 0.985 1_545 S
H1164 N1161 0.984 . S
H1165 N1161 0.985 . S
H1166 N1160 0.984 . S
H1167 N1160 0.984 . S
H1168 N1156 0.984 . S
H1169 N1156 0.985 . S
C1170 C1171 1.363 . S
C1170 C1176 1.379 . S
C1170 N1178 1.356 . S
C1171 C1170 1.363 . S
C1171 C1177 1.363 . S
C1172 C1173 1.363 . S
C1172 C1177 1.379 . S
C1172 N1179 1.356 . S
C1173 C1172 1.363 . S
C1173 C1176 1.363 . S
N1174 C1176 1.356 . S
N1174 H1186 0.984 . S
N1174 H1187 0.985 . S
N1175 C1177 1.356 . S
N1175 H1180 0.984 . S
N1175 H1181 0.985 . S
C1176 C1170 1.379 . S
C1176 C1173 1.363 . S
C1176 N1174 1.356 . S
C1177 C1171 1.363 . S
C1177 C1172 1.379 . S
C1177 N1175 1.356 . S
N1178 C1170 1.356 . S
N1178 H1184 0.984 . S
N1178 H1185 0.984 . S
N1179 C1172 1.356 . S
N1179 H1182 0.984 . S
N1179 H1183 0.985 . S
H1180 N1175 0.984 . S
H1181 N1175 0.985 . S
H1182 N1179 0.984 . S
H1183 N1179 0.985 . S
H1184 N1178 0.984 . S
H1185 N1178 0.984 . S
H1186 N1174 0.984 . S
H1187 N1174 0.985 . S
C1188 C1189 1.363 . S
C1188 C1194 1.379 . S
C1188 N1196 1.356 . S
C1189 C1188 1.363 . S
C1189 C1195 1.363 . S
C1190 C1191 1.363 . S
C1190 C1195 1.379 . S
C1190 N1197 1.356 . S
C1191 C1190 1.363 . S
C1191 C1194 1.363 . S
N1192 C1194 1.356 . S
N1192 H1204 0.984 . S
N1192 H1205 0.985 . S
N1193 C1195 1.356 . S
N1193 H1198 0.984 . S
N1193 H1199 0.985 . S
C1194 C1188 1.379 . S
C1194 C1191 1.363 . S
C1194 N1192 1.356 . S
C1195 C1189 1.363 . S
C1195 C1190 1.379 . S
C1195 N1193 1.356 . S
N1196 C1188 1.356 . S
N1196 H1202 0.984 . S
N1196 H1203 0.984 . S
N1197 C1190 1.356 . S
N1197 H1200 0.984 . S
N1197 H1201 0.985 . S
H1198 N1193 0.984 . S
H1199 N1193 0.985 . S
H1200 N1197 0.984 . S
H1201 N1197 0.985 . S
H1202 N1196 0.984 . S
H1203 N1196 0.984 . S
H1204 N1192 0.984 . S
H1205 N1192 0.985 . S
C1206 C1207 1.363 . S
C1206 C1212 1.379 . S
C1206 N1214 1.356 . S
C1207 C1206 1.363 . S
C1207 C1213 1.363 . S
C1208 C1209 1.363 . S
C1208 C1213 1.379 . S
C1208 N1215 1.356 . S
C1209 C1208 1.363 . S
C1209 C1212 1.363 . S
N1210 C1212 1.356 . S
N1210 H1222 0.984 . S
N1210 H1223 0.985 . S
N1211 C1213 1.356 . S
N1211 H1216 0.984 . S
N1211 H1217 0.985 . S
C1212 C1206 1.379 . S
C1212 C1209 1.363 . S
C1212 N1210 1.356 . S
C1213 C1207 1.363 . S
C1213 C1208 1.379 . S
C1213 N1211 1.356 . S
N1214 C1206 1.356 . S
N1214 H1220 0.984 . S
N1214 H1221 0.984 . S
N1215 C1208 1.356 . S
N1215 H1218 0.984 . S
N1215 H1219 0.985 . S
H1216 N1211 0.984 . S
H1217 N1211 0.985 . S
H1218 N1215 0.984 . S
H1219 N1215 0.985 . S
H1220 N1214 0.984 . S
H1221 N1214 0.984 . S
H1222 N1210 0.984 . S
H1223 N1210 0.985 . S
C1224 C1225 1.363 . S
C1224 C1230 1.379 . S
C1224 N1232 1.356 . S
C1225 C1224 1.363 . S
C1225 C1231 1.363 . S
C1226 C1227 1.363 . S
C1226 C1231 1.379 . S
C1226 N1233 1.356 . S
C1227 C1226 1.363 . S
C1227 C1230 1.363 . S
N1228 C1230 1.356 . S
N1228 H1240 0.984 . S
N1228 H1241 0.985 . S
N1229 C1231 1.356 . S
N1229 H1234 1.004 . S
N1229 H1235 0.985 . S
C1230 C1224 1.379 . S
C1230 C1227 1.363 . S
C1230 N1228 1.356 . S
C1231 C1225 1.363 . S
C1231 C1226 1.379 . S
C1231 N1229 1.356 . S
N1232 C1224 1.356 . S
N1232 H1238 0.984 . S
N1232 H1239 0.984 . S
N1233 C1226 1.356 . S
N1233 H1236 0.984 . S
N1233 H1237 0.985 . S
H1234 N1229 1.004 . S
H1235 N1229 0.985 . S
H1236 N1233 0.984 . S
H1237 N1233 0.985 . S
H1238 N1232 0.984 . S
H1239 N1232 0.984 . S
H1240 N1228 0.984 . S
H1241 N1228 0.985 . S
C1242 C1243 1.363 . S
C1242 C1248 1.379 . S
C1242 N1250 1.356 . S
C1243 C1242 1.363 . S
C1243 C1249 1.363 . S
C1244 C1245 1.363 . S
C1244 C1249 1.379 . S
C1244 N1251 1.356 . S
C1245 C1244 1.363 . S
C1245 C1248 1.363 . S
N1246 C1248 1.356 . S
N1246 H1258 0.984 . S
N1246 H1259 0.985 . S
N1247 C1249 1.356 . S
N1247 H1252 0.984 . S
N1247 H1253 0.985 . S
C1248 C1242 1.379 . S
C1248 C1245 1.363 . S
C1248 N1246 1.356 . S
C1249 C1243 1.363 . S
C1249 C1244 1.379 . S
C1249 N1247 1.356 . S
N1250 C1242 1.356 . S
N1250 H1256 0.984 1_455 S
N1250 H1257 0.984 1_455 S
N1251 C1244 1.356 . S
N1251 H1254 0.984 . S
N1251 H1255 0.985 . S
H1252 N1247 0.984 . S
H1253 N1247 0.985 . S
H1254 N1251 0.984 . S
H1255 N1251 0.985 . S
H1256 N1250 0.984 1_655 S
H1257 N1250 0.984 1_655 S
H1258 N1246 0.984 . S
H1259 N1246 0.985 . S
C1260 C1261 1.363 . S
C1260 C1266 1.379 . S
C1260 N1268 1.356 . S
C1261 C1260 1.363 . S
C1261 C1267 1.363 . S
C1262 C1263 1.363 . S
C1262 C1267 1.379 . S
C1262 N1269 1.356 . S
C1263 C1262 1.363 . S
C1263 C1266 1.363 . S
N1264 C1266 1.356 . S
N1264 H1276 0.984 . S
N1264 H1277 0.985 . S
N1265 C1267 1.356 . S
N1265 H1270 0.984 . S
N1265 H1271 0.985 . S
C1266 C1260 1.379 . S
C1266 C1263 1.363 . S
C1266 N1264 1.356 . S
C1267 C1261 1.363 . S
C1267 C1262 1.379 . S
C1267 N1265 1.356 . S
N1268 C1260 1.356 . S
N1268 H1274 0.984 . S
N1268 H1275 0.984 . S
N1269 C1262 1.356 . S
N1269 H1272 0.984 . S
N1269 H1273 0.985 . S
H1270 N1265 0.984 . S
H1271 N1265 0.985 . S
H1272 N1269 0.984 . S
H1273 N1269 0.985 . S
H1274 N1268 0.984 . S
H1275 N1268 0.984 . S
H1276 N1264 0.984 . S
H1277 N1264 0.985 . S
C1278 C1279 1.363 . S
C1278 C1284 1.379 . S
C1278 N1286 1.356 . S
C1279 C1278 1.363 . S
C1279 C1285 1.363 . S
C1280 C1281 1.363 . S
C1280 C1285 1.379 . S
C1280 N1287 1.356 . S
C1281 C1280 1.363 . S
C1281 C1284 1.363 . S
N1282 C1284 1.356 . S
N1282 H1294 0.984 . S
N1282 H1295 0.985 . S
N1283 C1285 1.356 . S
N1283 H1288 0.984 . S
N1283 H1289 0.985 . S
C1284 C1278 1.379 . S
C1284 C1281 1.363 . S
C1284 N1282 1.356 . S
C1285 C1279 1.363 . S
C1285 C1280 1.379 . S
C1285 N1283 1.356 . S
N1286 C1278 1.356 . S
N1286 H1292 0.984 . S
N1286 H1293 0.984 . S
N1287 C1280 1.356 . S
N1287 H1290 0.984 . S
N1287 H1291 0.985 . S
H1288 N1283 0.984 . S
H1289 N1283 0.985 . S
H1290 N1287 0.984 . S
H1291 N1287 0.985 . S
H1292 N1286 0.984 . S
H1293 N1286 0.984 . S
H1294 N1282 0.984 . S
H1295 N1282 0.985 . S
C1296 C1297 1.363 . S
C1296 C1302 1.379 . S
C1296 N1304 1.356 . S
C1297 C1296 1.363 . S
C1297 C1303 1.363 . S
C1298 C1299 1.363 . S
C1298 C1303 1.379 . S
C1298 N1305 1.356 . S
C1299 C1298 1.363 . S
C1299 C1302 1.363 . S
N1300 C1302 1.356 . S
N1300 H1312 0.984 . S
N1300 H1313 0.985 . S
N1301 C1303 1.356 . S
N1301 H1306 0.984 . S
N1301 H1307 0.985 . S
C1302 C1296 1.379 . S
C1302 C1299 1.363 . S
C1302 N1300 1.356 . S
C1303 C1297 1.363 . S
C1303 C1298 1.379 . S
C1303 N1301 1.356 . S
N1304 C1296 1.356 . S
N1304 H1310 0.984 . S
N1304 H1311 0.984 . S
N1305 C1298 1.356 . S
N1305 H1308 0.984 . S
N1305 H1309 0.985 . S
H1306 N1301 0.984 . S
H1307 N1301 0.985 . S
H1308 N1305 0.984 . S
H1309 N1305 0.985 . S
H1310 N1304 0.984 . S
H1311 N1304 0.984 . S
H1312 N1300 0.984 . S
H1313 N1300 0.985 . S
C1314 C1315 1.363 . S
C1314 C1320 1.379 . S
C1314 N1322 1.356 . S
C1315 C1314 1.363 . S
C1315 C1321 1.363 . S
C1316 C1317 1.363 . S
C1316 C1321 1.379 . S
C1316 N1323 1.356 . S
C1317 C1316 1.363 . S
C1317 C1320 1.363 . S
N1318 C1320 1.356 . S
N1318 H1330 0.984 . S
N1318 H1331 0.985 . S
N1319 C1321 1.356 . S
N1319 H1324 0.984 . S
N1319 H1325 0.985 . S
C1320 C1314 1.379 . S
C1320 C1317 1.363 . S
C1320 N1318 1.356 . S
C1321 C1315 1.363 . S
C1321 C1316 1.379 . S
C1321 N1319 1.356 . S
N1322 C1314 1.356 . S
N1322 H1328 0.984 . S
N1322 H1329 0.984 . S
N1323 C1316 1.356 . S
N1323 H1326 0.984 . S
N1323 H1327 0.985 . S
H1324 N1319 0.984 . S
H1325 N1319 0.985 . S
H1326 N1323 0.984 . S
H1327 N1323 0.985 . S
H1328 N1322 0.984 . S
H1329 N1322 0.984 . S
H1330 N1318 0.984 . S
H1331 N1318 0.985 . S
C1332 C1333 1.363 . S
C1332 C1338 1.379 . S
C1332 N1340 1.356 . S
C1333 C1332 1.363 . S
C1333 C1339 1.363 . S
C1334 C1335 1.363 . S
C1334 C1339 1.379 . S
C1334 N1341 1.356 . S
C1335 C1334 1.363 . S
C1335 C1338 1.363 . S
N1336 C1338 1.356 1_556 S
N1336 H1348 0.984 . S
N1336 H1349 0.985 . S
N1337 C1339 1.356 . S
N1337 H1342 0.984 . S
N1337 H1343 0.985 . S
C1338 C1332 1.379 . S
C1338 C1335 1.363 . S
C1338 N1336 1.356 1_554 S
C1339 C1333 1.363 . S
C1339 C1334 1.379 . S
C1339 N1337 1.356 . S
N1340 C1332 1.356 . S
N1340 H1346 0.984 . S
N1340 H1347 0.984 . S
N1341 C1334 1.356 . S
N1341 H1344 0.984 . S
N1341 H1345 0.985 . S
H1342 N1337 0.984 . S
H1343 N1337 0.985 . S
H1344 N1341 0.984 . S
H1345 N1341 0.985 . S
H1346 N1340 0.984 . S
H1347 N1340 0.984 . S
H1348 N1336 0.984 . S
H1349 N1336 0.985 . S
C1350 C1351 1.363 . S
C1350 C1356 1.379 . S
C1350 N1358 1.356 . S
C1351 C1350 1.363 . S
C1351 C1357 1.363 . S
C1352 C1353 1.363 . S
C1352 C1357 1.379 . S
C1352 N1359 1.356 . S
C1353 C1352 1.363 . S
C1353 C1356 1.363 . S
N1354 C1356 1.356 . S
N1354 H1366 0.984 . S
N1354 H1367 0.985 . S
N1355 C1357 1.356 . S
N1355 H1360 0.984 . S
N1355 H1361 0.985 . S
C1356 C1350 1.379 . S
C1356 C1353 1.363 . S
C1356 N1354 1.356 . S
C1357 C1351 1.363 . S
C1357 C1352 1.379 . S
C1357 N1355 1.356 . S
N1358 C1350 1.356 . S
N1358 H1364 0.984 . S
N1358 H1365 0.984 . S
N1359 C1352 1.356 . S
N1359 H1362 0.984 . S
N1359 H1363 0.985 . S
H1360 N1355 0.984 . S
H1361 N1355 0.985 . S
H1362 N1359 0.984 . S
H1363 N1359 0.985 . S
H1364 N1358 0.984 . S
H1365 N1358 0.984 . S
H1366 N1354 0.984 . S
H1367 N1354 0.985 . S
C1368 C1369 1.363 . S
C1368 C1374 1.379 . S
C1368 N1376 1.356 . S
C1369 C1368 1.363 . S
C1369 C1375 1.363 . S
C1370 C1371 1.363 . S
C1370 C1375 1.379 . S
C1370 N1377 1.356 . S
C1371 C1370 1.363 . S
C1371 C1374 1.363 . S
N1372 C1374 1.356 . S
N1372 H1384 0.984 . S
N1372 H1385 0.985 . S
N1373 C1375 1.356 . S
N1373 H1378 0.984 . S
N1373 H1379 0.985 . S
C1374 C1368 1.379 . S
C1374 C1371 1.363 . S
C1374 N1372 1.356 . S
C1375 C1369 1.363 . S
C1375 C1370 1.379 . S
C1375 N1373 1.356 . S
N1376 C1368 1.356 . S
N1376 H1382 0.984 . S
N1376 H1383 0.984 . S
N1377 C1370 1.356 . S
N1377 H1380 0.984 . S
N1377 H1381 0.985 . S
H1378 N1373 0.984 . S
H1379 N1373 0.985 . S
H1380 N1377 0.984 . S
H1381 N1377 0.985 . S
H1382 N1376 0.984 . S
H1383 N1376 0.984 . S
H1384 N1372 0.984 . S
H1385 N1372 0.985 . S
C415 C18 1.021 1_556 S
C417 C62 1.044 . S
C433 C16 1.044 . S
C435 C41 1.021 1_556 S
C451 C64 1.021 1_556 S
C453 C39 1.044 . S
C469 C108 1.044 . S
C471 C87 1.021 . S
C487 C131 1.045 . S
C489 C110 1.021 . S
C505 C133 1.021 . S
C507 C85 1.044 . S
C523 C200 1.044 . S
C525 C156 1.021 . S
C541 C179 1.021 . S
C543 C154 1.044 . S
C559 C177 1.044 . S
C561 C202 1.021 . S
C577 C225 1.021 . S
C579 C246 1.044 . S
C595 C269 1.044 . S
C597 C248 1.021 . S
C613 C271 1.021 . S
C615 C223 1.044 . S
C631 C338 1.045 . S
C633 C294 1.021 . S
C649 C317 1.021 1_565 S
C651 C292 1.044 . S
C667 C340 1.021 1_455 S
C669 C315 1.044 . S
C685 C363 1.021 . S
C687 C384 1.044 . S
C703 C407 1.045 . S
C705 C386 1.021 1_565 S
C721 C361 1.044 . S
C723 C409 1.021 1_455 S
C739 C134 1.148 . S
C741 C20 1.165 . S
C757 C88 1.148 . S
C759 C43 1.165 . S
C775 C111 1.148 . S
C777 C66 1.165 . S
C793 C42 1.148 . S
C795 C89 1.165 . S
C811 C112 1.165 . S
C813 C65 1.148 . S
C829 C19 1.148 . S
C831 C135 1.165 . S
C847 C158 1.165 . S
C849 C272 1.148 . S
C865 C181 1.165 . S
C867 C226 1.148 . S
C883 C249 1.148 . S
C885 C204 1.165 . S
C901 C227 1.165 1_554 S
C903 C180 1.148 . S
C919 C250 1.165 1_554 S
C921 C203 1.148 . S
C937 C273 1.165 1_554 S
C939 C157 1.148 . S
C955 C296 1.165 . S
C957 C410 1.148 1_556 S
C973 C319 1.165 . S
C975 C364 1.148 1_556 S
C991 C342 1.165 . S
C993 C387 1.148 1_556 S
C1009 C365 1.165 . S
C1011 C318 1.148 . S
C1027 C388 1.165 . S
C1029 C341 1.148 . S
C1045 C411 1.165 . S
C1047 C295 1.148 . S
C1063 C251 2.110 . S
C1065 C17 2.069 1_565 S
C1081 C40 2.069 1_455 S
C1083 C274 2.110 . S
C1099 C228 2.110 . S
C1101 C63 2.069 . S
C1117 C86 2.069 1_455 S
C1119 C205 2.110 . S
C1135 C109 2.069 . S
C1137 C159 2.110 . S
C1153 C182 2.110 . S
C1155 C132 2.069 1_565 S
C1171 C155 2.069 . S
C1173 C389 2.110 1_455 S
C1189 C178 2.069 . S
C1191 C412 2.110 . S
C1207 C201 2.069 . S
C1209 C366 2.110 1_565 S
C1225 C343 2.110 1_565 S
C1227 C224 2.069 . S
C1243 C297 2.110 1_455 S
C1245 C247 2.069 . S
C1261 C320 2.110 . S
C1263 C270 2.069 . S
C1279 C113 2.110 . S
C1281 C293 2.069 . S
C1297 C316 2.069 . S
C1299 C136 2.110 . S
C1315 C90 2.110 . S
C1317 C339 2.069 . S
C1333 C362 2.069 . S
C1335 C67 2.110 . S
C1351 C385 2.069 . S
C1353 C21 2.110 . S
C1369 C44 2.110 . S
C1371 C408 2.070 . S
