# Generated by pormake.
# Topology vbf, (5)-cn, num edge types: 1
# Building blocks:
#     Node 0, Type 0, BuildingBlock: BEQFEK_clean_sbu_0, # of connection points: 5
#     Node 1, Type 0, BuildingBlock: BEQFEK_clean_sbu_0, # of connection points: 5
#     Node 2, Type 0, BuildingBlock: BEQFEK_clean_sbu_0, # of connection points: 5
#     Node 3, Type 0, BuildingBlock: BEQFEK_clean_sbu_0, # of connection points: 5
#     Node 4, Type 0, BuildingBlock: BEQFEK_clean_sbu_0, # of connection points: 5
#     Node 5, Type 0, BuildingBlock: BEQFEK_clean_sbu_0, # of connection points: 5
#     Node 6, Type 0, BuildingBlock: BEQFEK_clean_sbu_0, # of connection points: 5
#     Node 7, Type 0, BuildingBlock: BEQFEK_clean_sbu_0, # of connection points: 5
#     Node 8, Type 0, BuildingBlock: BEQFEK_clean_sbu_0, # of connection points: 5
#     Node 9, Type 0, BuildingBlock: BEQFEK_clean_sbu_0, # of connection points: 5
#     Node 10, Type 0, BuildingBlock: BEQFEK_clean_sbu_0, # of connection points: 5
#     Node 11, Type 0, BuildingBlock: BEQFEK_clean_sbu_0, # of connection points: 5
#     Node 12, Type 0, BuildingBlock: BEQFEK_clean_sbu_0, # of connection points: 5
#     Node 13, Type 0, BuildingBlock: BEQFEK_clean_sbu_0, # of connection points: 5
#     Node 14, Type 0, BuildingBlock: BEQFEK_clean_sbu_0, # of connection points: 5
#     Node 15, Type 0, BuildingBlock: BEQFEK_clean_sbu_0, # of connection points: 5
#     Edge 16, Type (0, 0), BuildingBlock: XUDNAN_clean_linker_2, # of connection points: 2
#     Edge 17, Type (0, 0), BuildingBlock: XUDNAN_clean_linker_2, # of connection points: 2
#     Edge 18, Type (0, 0), BuildingBlock: XUDNAN_clean_linker_2, # of connection points: 2
#     Edge 19, Type (0, 0), BuildingBlock: XUDNAN_clean_linker_2, # of connection points: 2
#     Edge 20, Type (0, 0), BuildingBlock: XUDNAN_clean_linker_2, # of connection points: 2
#     Edge 21, Type (0, 0), BuildingBlock: XUDNAN_clean_linker_2, # of connection points: 2
#     Edge 22, Type (0, 0), BuildingBlock: XUDNAN_clean_linker_2, # of connection points: 2
#     Edge 23, Type (0, 0), BuildingBlock: XUDNAN_clean_linker_2, # of connection points: 2
#     Edge 24, Type (0, 0), BuildingBlock: XUDNAN_clean_linker_2, # of connection points: 2
#     Edge 25, Type (0, 0), BuildingBlock: XUDNAN_clean_linker_2, # of connection points: 2
#     Edge 26, Type (0, 0), BuildingBlock: XUDNAN_clean_linker_2, # of connection points: 2
#     Edge 27, Type (0, 0), BuildingBlock: XUDNAN_clean_linker_2, # of connection points: 2
#     Edge 28, Type (0, 0), BuildingBlock: XUDNAN_clean_linker_2, # of connection points: 2
#     Edge 29, Type (0, 0), BuildingBlock: XUDNAN_clean_linker_2, # of connection points: 2
#     Edge 30, Type (0, 0), BuildingBlock: XUDNAN_clean_linker_2, # of connection points: 2
#     Edge 31, Type (0, 0), BuildingBlock: XUDNAN_clean_linker_2, # of connection points: 2
#     Edge 32, Type (0, 0), BuildingBlock: XUDNAN_clean_linker_2, # of connection points: 2
#     Edge 33, Type (0, 0), BuildingBlock: XUDNAN_clean_linker_2, # of connection points: 2
#     Edge 34, Type (0, 0), BuildingBlock: XUDNAN_clean_linker_2, # of connection points: 2
#     Edge 35, Type (0, 0), BuildingBlock: XUDNAN_clean_linker_2, # of connection points: 2
#     Edge 36, Type (0, 0), BuildingBlock: XUDNAN_clean_linker_2, # of connection points: 2
#     Edge 37, Type (0, 0), BuildingBlock: XUDNAN_clean_linker_2, # of connection points: 2
#     Edge 38, Type (0, 0), BuildingBlock: XUDNAN_clean_linker_2, # of connection points: 2
#     Edge 39, Type (0, 0), BuildingBlock: XUDNAN_clean_linker_2, # of connection points: 2
#     Edge 40, Type (0, 0), BuildingBlock: XUDNAN_clean_linker_2, # of connection points: 2
#     Edge 41, Type (0, 0), BuildingBlock: XUDNAN_clean_linker_2, # of connection points: 2
#     Edge 42, Type (0, 0), BuildingBlock: XUDNAN_clean_linker_2, # of connection points: 2
#     Edge 43, Type (0, 0), BuildingBlock: XUDNAN_clean_linker_2, # of connection points: 2
#     Edge 44, Type (0, 0), BuildingBlock: XUDNAN_clean_linker_2, # of connection points: 2
#     Edge 45, Type (0, 0), BuildingBlock: XUDNAN_clean_linker_2, # of connection points: 2
#     Edge 46, Type (0, 0), BuildingBlock: XUDNAN_clean_linker_2, # of connection points: 2
#     Edge 47, Type (0, 0), BuildingBlock: XUDNAN_clean_linker_2, # of connection points: 2
#     Edge 48, Type (0, 0), BuildingBlock: XUDNAN_clean_linker_2, # of connection points: 2
#     Edge 49, Type (0, 0), BuildingBlock: XUDNAN_clean_linker_2, # of connection points: 2
#     Edge 50, Type (0, 0), BuildingBlock: XUDNAN_clean_linker_2, # of connection points: 2
#     Edge 51, Type (0, 0), BuildingBlock: XUDNAN_clean_linker_2, # of connection points: 2
#     Edge 52, Type (0, 0), BuildingBlock: XUDNAN_clean_linker_2, # of connection points: 2
#     Edge 53, Type (0, 0), BuildingBlock: XUDNAN_clean_linker_2, # of connection points: 2
#     Edge 54, Type (0, 0), BuildingBlock: XUDNAN_clean_linker_2, # of connection points: 2
#     Edge 55, Type (0, 0), BuildingBlock: XUDNAN_clean_linker_2, # of connection points: 2
# Relax obj value: 0.043
# Max RMSD: 0.098
# Mean RMSD: 0.098
data_MOF--net-vbf--node1-BEQFEK_clean_sbu_0--edge1-XUDNAN_clean_linker_2
_symmetry_space_group_name_H-M    P1
_symmetry_Int_Tables_number       1
_symmetry_cell_setting            triclinic
loop_
_symmetry_equiv_pos_as_xyz
'x, y, z'
_cell_length_a     37.172097
_cell_length_b     84.668581
_cell_length_c     29.234981
_cell_angle_alpha  90.092691
_cell_angle_beta   90.017582
_cell_angle_gamma 90.044764
loop_
_atom_site_label
_atom_site_type_symbol
_atom_site_fract_x
_atom_site_fract_y
_atom_site_fract_z
_atom_type_partial_charge
Co0 Co 0.11377 0.31802 0.96537 0.0
Co1 Co 0.07283 0.29505 0.03121 0.0
C2 C 0.15114 0.29178 0.0173 0.0
O3 O 0.15058 0.30262 0.98729 0.0
O4 O 0.12304 0.28796 0.03932 0.0
C5 C 0.16844 0.33999 0.96055 0.0
O6 O 0.17237 0.33405 1.00174 0.0
C7 C 0.05341 0.2799 0.11684 0.0
C8 C 1.00286 0.26755 0.09951 0.0
C9 C 0.02717 0.26992 0.13499 0.0
N10 N 0.04489 0.28305 0.07316 0.0
N11 N 0.0147 0.27564 0.0629 0.0
C12 C 0.08537 0.28708 0.14013 0.0
H13 H 0.09513 0.29751 0.12081 0.0
H14 H 0.07845 0.29072 0.17552 0.0
H15 H 0.10751 0.2783 0.14129 0.0
C16 C 0.07733 0.34176 0.02594 0.0
N17 N 0.08524 0.32674 0.01397 0.0
N18 N 0.068 0.31706 0.04162 0.0
C19 C 0.04876 0.32563 0.07193 0.0
C20 C 0.05423 0.3415 0.06314 0.0
C21 C 0.09116 0.35614 1.00204 0.0
H22 H 0.09203 0.35406 0.9646 0.0
H23 H 0.11885 0.35868 0.01416 0.0
H24 H 0.07407 0.36658 0.00947 0.0
O25 O 0.08255 0.30674 0.92069 0.0
O26 O 0.05638 0.28978 0.96833 0.0
H27 H 0.00866 0.30892 0.09303 0.0
H28 H 0.0054 0.32796 0.12075 0.0
C29 C 0.02429 0.31888 0.10754 0.0
H30 H 0.04056 0.31446 0.13656 0.0
H31 H 1.00234 0.27601 0.03086 0.0
O32 O 0.1426 0.33503 0.93582 0.0
C33 C 0.06138 0.29513 0.92805 0.0
Co34 Co 0.89535 0.70044 0.9619 0.0
Co35 Co 0.94702 0.72622 1.00437 0.0
C36 C 0.86476 0.72925 1.00228 0.0
O37 O 0.8585 0.7157 0.9849 0.0
O38 O 0.89684 0.73391 0.00954 0.0
C39 C 0.84046 0.67683 0.93306 0.0
O40 O 0.81563 0.68587 0.9514 0.0
C41 C 0.97003 0.74096 0.08952 0.0
C42 C 0.01936 0.75393 0.07072 0.0
C43 C 0.99776 0.75004 0.10775 0.0
N44 N 0.97549 0.73925 0.04431 0.0
N45 N 0.00483 0.74718 0.03314 0.0
C46 C 0.93843 0.73406 0.1143 0.0
H47 H 0.91499 0.73297 0.09123 0.0
H48 H 0.94528 0.72202 0.12639 0.0
H49 H 0.93098 0.74146 0.1442 0.0
C50 C 0.93851 0.67982 0.02235 0.0
N51 N 0.92843 0.69428 1.00792 0.0
N52 N 0.95152 0.70482 0.02327 0.0
C53 C 0.97753 0.69735 0.04701 0.0
C54 C 0.97003 0.68128 0.04748 0.0
C55 C 0.92123 0.66478 1.00677 0.0
H56 H 0.92717 0.66295 0.96995 0.0
H57 H 0.89163 0.66567 0.01081 0.0
H58 H 0.93129 0.65446 0.02627 0.0
O59 O 0.9231 0.71041 0.91126 0.0
O60 O 0.96157 0.72818 0.93907 0.0
H61 H 0.02084 0.71397 0.04051 0.0
H62 H 0.03196 0.69671 0.07415 0.0
C63 C 0.01048 0.70528 0.06563 0.0
H64 H 1.0034 0.71167 0.09746 0.0
H65 H 0.01538 0.7477 1.00008 0.0
O66 O 0.87325 0.68111 0.93463 0.0
C67 C 0.94793 0.72064 0.9054 0.0
Co68 Co 0.14827 0.56877 0.21858 0.0
Co69 Co 0.18287 0.54382 0.28533 0.0
C70 C 0.10357 0.54427 0.26655 0.0
O71 O 0.1064 0.55639 0.24107 0.0
O72 O 0.13096 0.538 0.28529 0.0
C73 C 0.09862 0.59289 0.19066 0.0
O74 O 0.07906 0.58712 0.22411 0.0
C75 C 0.1985 0.52739 0.37253 0.0
C76 C 0.25316 0.51826 0.35909 0.0
C77 C 0.22692 0.51923 0.39263 0.0
N78 N 0.20802 0.53133 0.32959 0.0
N79 N 0.24055 0.52566 0.32169 0.0
C80 C 0.1624 0.5309 0.3929 0.0
H81 H 0.14148 0.53125 0.36606 0.0
H82 H 0.1631 0.54263 0.40979 0.0
H83 H 0.15492 0.52183 0.41857 0.0
C84 C 0.18624 0.59085 0.2815 0.0
N85 N 0.17658 0.57616 0.26834 0.0
N86 N 0.19053 0.56581 0.29686 0.0
C87 C 0.20952 0.57365 0.3291 0.0
C88 C 0.20734 0.58974 0.32053 0.0
C89 C 0.17421 0.60562 0.25803 0.0
H90 H 0.14453 0.60657 0.26066 0.0
H91 H 0.18656 0.61631 0.27339 0.0
H92 H 0.18127 0.60495 0.22121 0.0
O93 O 0.17769 0.55527 0.17678 0.0
O94 O 0.20256 0.53817 0.22484 0.0
H95 H 0.24847 0.57451 0.38425 0.0
H96 H 0.21263 0.56034 0.39098 0.0
C97 C 0.23109 0.5659 0.36601 0.0
H98 H 0.24832 0.55658 0.35094 0.0
H99 H 0.25447 0.52713 0.291 0.0
O100 O 0.12937 0.58691 0.18255 0.0
C101 C 0.1981 0.54347 0.1845 0.0
Co102 Co 0.8628 0.449 0.21334 0.0
Co103 Co 0.80568 0.47295 0.25304 0.0
C104 C 0.88582 0.47918 0.25726 0.0
O105 O 0.89401 0.4661 0.23843 0.0
O106 O 0.85314 0.48292 0.26434 0.0
C107 C 0.9236 0.42825 0.21325 0.0
O108 O 0.93144 0.43627 0.25046 0.0
C109 C 0.77341 0.48879 0.33268 0.0
C110 C 0.72365 0.49882 0.30384 0.0
C111 C 0.74275 0.4974 0.34455 0.0
N112 N 0.77192 0.48529 0.28769 0.0
N113 N 0.74227 0.49147 0.2706 0.0
C114 C 0.80283 0.48304 0.36338 0.0
H115 H 0.81874 0.47366 0.34623 0.0
H116 H 0.79145 0.47839 0.39577 0.0
H117 H 0.82114 0.49301 0.37155 0.0
C118 C 0.82357 0.42711 0.2756 0.0
N119 N 0.82919 0.44154 0.25738 0.0
N120 N 0.80451 0.45135 0.2729 0.0
C121 C 0.78224 0.44333 0.3011 0.0
C122 C 0.79374 0.4278 0.30393 0.0
C123 C 0.84634 0.41293 0.26604 0.0
H124 H 0.84852 0.41115 0.22855 0.0
H125 H 0.87378 0.41499 0.27969 0.0
H126 H 0.83498 0.40213 0.28201 0.0
O127 O 0.83614 0.4573 0.15931 0.0
O128 O 0.79544 0.47436 0.18545 0.0
H129 H 0.73643 0.45879 0.30068 0.0
H130 H 0.72978 0.44054 0.3316 0.0
C131 C 0.74939 0.45002 0.32341 0.0
H132 H 0.75714 0.45587 0.35588 0.0
H133 H 0.73445 0.49044 0.23642 0.0
O134 O 0.89482 0.43153 0.1917 0.0
C135 C 0.81069 0.46713 0.15229 0.0
Co136 Co 0.11078 0.81659 0.45546 0.0
Co137 Co 0.07056 0.79095 0.5147 0.0
C138 C 0.14999 0.79142 0.50998 0.0
O139 O 0.14888 0.80338 0.48375 0.0
O140 O 0.12145 0.78504 0.52521 0.0
C141 C 0.15903 0.84155 0.45742 0.0
O142 O 0.1603 0.8364 0.49977 0.0
C143 C 0.04392 0.77232 0.59429 0.0
C144 C 0.99397 0.76235 0.56523 0.0
C145 C 0.015 0.76251 0.60434 0.0
N146 N 0.03992 0.77777 0.55125 0.0
N147 N 0.00989 0.77179 0.53431 0.0
C148 C 0.07562 0.7758 0.62426 0.0
H149 H 0.09765 0.78136 0.60458 0.0
H150 H 0.06747 0.78409 0.65176 0.0
H151 H 0.08528 0.76477 0.64069 0.0
C152 C 0.06341 0.83779 0.50998 0.0
N153 N 0.07703 0.82342 0.50019 0.0
N154 N 0.06128 0.81278 0.52621 0.0
C155 C 0.03734 0.8201 0.55366 0.0
C156 C 0.03782 0.8362 0.54428 0.0
C157 C 0.07196 0.85247 0.48367 0.0
H158 H 0.07776 0.84951 0.44746 0.0
H159 H 0.09614 0.85813 0.49876 0.0
H160 H 0.04939 0.86103 0.48511 0.0
O161 O 0.08618 0.80417 0.40641 0.0
O162 O 0.05933 0.78608 0.44968 0.0
H163 H 0.99467 0.80412 0.56993 0.0
H164 H 0.9997 0.8202 0.6104 0.0
C165 C 0.0143 0.81179 0.588 0.0
H166 H 0.03145 0.80423 0.60975 0.0
H167 H 1.0005 0.77398 0.50128 0.0
O168 O 0.13744 0.83493 0.42958 0.0
C169 C 0.06655 0.79187 0.41048 0.0
Co170 Co 0.89872 0.20004 0.46511 0.0
Co171 Co 0.93933 0.22448 0.52822 0.0
C172 C 0.85856 0.22498 0.51488 0.0
O173 O 0.85883 0.21253 0.49053 0.0
O174 O 0.88751 0.23112 0.5301 0.0
C175 C 0.84556 0.17973 0.42188 0.0
O176 O 0.82208 0.1902 0.43626 0.0
C177 C 0.95738 0.23963 0.61638 0.0
C178 C 0.0105 0.25011 0.60126 0.0
C179 C 0.98555 0.24812 0.63601 0.0
N180 N 0.96575 0.23655 0.57246 0.0
N181 N 0.99742 0.24295 0.56361 0.0
C182 C 0.92249 0.235 0.63822 0.0
H183 H 0.90108 0.23367 0.61228 0.0
H184 H 0.92568 0.22346 0.65561 0.0
H185 H 0.9141 0.24394 0.66389 0.0
C186 C 0.93598 0.17754 0.52607 0.0
N187 N 0.92801 0.19239 0.51311 0.0
N188 N 0.94559 0.20245 0.53929 0.0
C189 C 0.9662 0.19421 0.5689 0.0
C190 C 0.9606 0.17822 0.56155 0.0
C191 C 0.92067 0.16302 0.50427 0.0
H192 H 0.92883 0.16263 0.46778 0.0
H193 H 0.89086 0.16356 0.50549 0.0
H194 H 0.93007 0.15212 0.52156 0.0
O195 O 0.92749 0.21323 0.42203 0.0
O196 O 0.95895 0.22934 0.4672 0.0
H197 H 0.0075 0.21077 0.58672 0.0
H198 H 0.00934 0.19245 0.61838 0.0
C199 C 0.99117 0.20142 0.60322 0.0
H200 H 0.97522 0.20687 0.63106 0.0
H201 H 0.01033 0.24226 0.53199 0.0
O202 O 0.87883 0.18183 0.43013 0.0
C203 C 0.95085 0.2241 0.42767 0.0
Co204 Co 0.14676 0.06934 0.71612 0.0
Co205 Co 0.18314 0.04377 0.77968 0.0
C206 C 0.10441 0.04315 0.7622 0.0
O207 O 0.10703 0.05541 0.73742 0.0
O208 O 0.13186 0.03708 0.78114 0.0
C209 C 0.09458 0.09257 0.71074 0.0
O210 O 0.08829 0.08618 0.75087 0.0
C211 C 0.20069 0.02676 0.86486 0.0
C212 C 0.25542 0.01795 0.85023 0.0
C213 C 0.2295 0.01869 0.88422 0.0
N214 N 0.20965 0.03094 0.82193 0.0
N215 N 0.24222 0.02544 0.81324 0.0
C216 C 0.16471 0.02999 0.88603 0.0
H217 H 0.14318 0.02905 0.86011 0.0
H218 H 0.16427 0.04217 0.89999 0.0
H219 H 0.15882 0.02151 0.91394 0.0
C220 C 0.18654 0.09086 0.77924 0.0
N221 N 0.17584 0.07631 0.76593 0.0
N222 N 0.1901 0.06571 0.79345 0.0
C223 C 0.21014 0.07326 0.82529 0.0
C224 C 0.20845 0.08941 0.81747 0.0
C225 C 0.17539 0.10584 0.75617 0.0
H226 H 0.1473 0.10864 0.76602 0.0
H227 H 0.19273 0.11592 0.76628 0.0
H228 H 0.17633 0.10429 0.71851 0.0
O229 O 0.17642 0.05718 0.67088 0.0
O230 O 0.20124 0.03942 0.71729 0.0
H231 H 0.25066 0.07362 0.87868 0.0
H232 H 0.21527 0.05926 0.8857 0.0
C233 C 0.23288 0.06517 0.86042 0.0
H234 H 0.24984 0.05611 0.84366 0.0
H235 H 0.25578 0.02712 0.78238 0.0
O236 O 0.12128 0.08763 0.68748 0.0
C237 C 0.19679 0.04523 0.67745 0.0
Co238 Co 0.85634 0.94965 0.70845 0.0
Co239 Co 0.80294 0.97402 0.75331 0.0
C240 C 0.88496 0.97872 0.74922 0.0
O241 O 0.892 0.96538 0.73115 0.0
O242 O 0.85264 0.9828 0.75762 0.0
C243 C 0.91392 0.9285 0.67531 0.0
O244 O 0.93714 0.93935 0.68812 0.0
C245 C 0.78031 0.98819 0.83947 0.0
C246 C 0.73009 1.00068 0.82197 0.0
C247 C 0.75262 0.9971 0.85836 0.0
N248 N 0.77403 0.98634 0.79445 0.0
N249 N 0.74407 0.99393 0.7841 0.0
C250 C 0.81306 0.98193 0.86325 0.0
H251 H 0.80693 0.97025 0.87845 0.0
H252 H 0.8217 0.99007 0.89096 0.0
H253 H 0.83545 0.98024 0.83887 0.0
C254 C 0.81989 0.92817 0.77351 0.0
N255 N 0.82517 0.94263 0.75544 0.0
N256 N 0.80073 0.95238 0.77158 0.0
C257 C 0.77824 0.94424 0.7992 0.0
C258 C 0.78987 0.92868 0.80165 0.0
C259 C 0.84195 0.91397 0.76171 0.0
H260 H 0.83628 0.91049 0.72582 0.0
H261 H 0.87096 0.91694 0.76425 0.0
H262 H 0.83574 0.90382 0.78435 0.0
O263 O 0.82708 0.95934 0.65853 0.0
O264 O 0.78757 0.97624 0.6883 0.0
H265 H 0.73383 0.96047 0.80061 0.0
H266 H 0.7252 0.94183 0.82861 0.0
C267 C 0.74574 0.95106 0.8221 0.0
H268 H 0.75361 0.95618 0.85554 0.0
H269 H 0.73293 0.99435 0.75133 0.0
O270 O 0.88045 0.93089 0.6811 0.0
C271 C 0.80143 0.96924 0.65384 0.0
Co272 Co 0.61343 0.31694 0.4576 0.0
Co273 Co 0.55822 0.29241 0.49996 0.0
C274 C 0.6391 0.28798 0.50496 0.0
O275 O 0.64619 0.30098 0.4851 0.0
O276 O 0.60676 0.28364 0.51167 0.0
C277 C 0.66934 0.34024 0.45897 0.0
O278 O 0.67494 0.33408 0.49957 0.0
C279 C 0.52899 0.27584 0.58114 0.0
C280 C 0.4825 0.26312 0.55217 0.0
C281 C 0.50183 0.2652 0.59239 0.0
N282 N 0.52573 0.27981 0.53657 0.0
N283 N 0.49758 0.27226 0.51971 0.0
C284 C 0.5591 0.28128 0.61128 0.0
H285 H 0.57941 0.28798 0.59148 0.0
H286 H 0.54826 0.28913 0.63834 0.0
H287 H 0.57184 0.27098 0.62823 0.0
C288 C 0.56916 0.33902 0.51299 0.0
N289 N 0.57856 0.32428 0.5002 0.0
N290 N 0.55537 0.31415 0.51758 0.0
C291 C 0.53065 0.32219 0.54217 0.0
C292 C 0.53879 0.33817 0.5404 0.0
C293 C 0.5871 0.35374 0.49621 0.0
H294 H 0.61439 0.35453 0.51134 0.0
H295 H 0.57183 0.36449 0.50593 0.0
H296 H 0.58989 0.35323 0.45847 0.0
O297 O 0.58789 0.3073 0.40467 0.0
O298 O 0.54804 0.29005 0.43201 0.0
H299 H 0.48531 0.3066 0.53798 0.0
H300 H 0.47771 0.32405 0.57263 0.0
C301 C 0.4977 0.31493 0.5627 0.0
H302 H 0.50543 0.3082 0.59366 0.0
H303 H 0.48933 0.27295 0.48564 0.0
O304 O 0.64388 0.33479 0.43446 0.0
C305 C 0.56308 0.29708 0.39828 0.0
Co306 Co 0.39648 0.69965 0.46402 0.0
Co307 Co 0.45124 0.72369 0.50915 0.0
C308 C 0.37059 0.72913 0.50802 0.0
O309 O 0.36356 0.716 0.48883 0.0
O310 O 0.40285 0.73321 0.51632 0.0
C311 C 0.33884 0.67774 0.46439 0.0
O312 O 0.3333 0.68474 0.50391 0.0
C313 C 0.47638 0.73711 0.59505 0.0
C314 C 0.5246 0.75085 0.5763 0.0
C315 C 0.50341 0.74658 0.6134 0.0
N316 N 0.4817 0.73566 0.54971 0.0
N317 N 0.51053 0.74395 0.53863 0.0
C318 C 0.44479 0.73005 0.61953 0.0
H319 H 0.42267 0.72737 0.59546 0.0
H320 H 0.45289 0.71875 0.63559 0.0
H321 H 0.43498 0.73816 0.64665 0.0
C322 C 0.43773 0.67718 0.5213 0.0
N323 N 0.42905 0.69202 0.50884 0.0
N324 N 0.45253 0.70192 0.52675 0.0
C325 C 0.477 0.6936 0.55097 0.0
C326 C 0.46817 0.67769 0.54874 0.0
C327 C 0.41915 0.66267 0.5039 0.0
H328 H 0.39106 0.66258 0.51661 0.0
H329 H 0.4326 0.65171 0.51558 0.0
H330 H 0.41841 0.6629 0.46598 0.0
O331 O 0.42509 0.70886 0.41287 0.0
O332 O 0.46485 0.72574 0.44295 0.0
H333 H 0.53214 0.6911 0.57376 0.0
H334 H 0.50608 0.70569 0.60351 0.0
C335 C 0.51129 0.70036 0.56953 0.0
H336 H 0.52163 0.70966 0.54635 0.0
H337 H 0.52057 0.74493 0.5054 0.0
O338 O 0.36545 0.68212 0.44014 0.0
C339 C 0.45084 0.71877 0.40837 0.0
Co340 Co 0.65162 0.56447 0.70923 0.0
Co341 Co 0.69905 0.53774 0.75451 0.0
C342 C 0.61747 0.53926 0.7631 0.0
O343 O 0.61494 0.55266 0.74374 0.0
O344 O 0.64759 0.53223 0.76748 0.0
C345 C 0.60486 0.59207 0.69489 0.0
O346 O 0.59503 0.59043 0.73779 0.0
C347 C 0.7252 0.51949 0.83542 0.0
C348 C 0.77233 0.50734 0.80608 0.0
C349 C 0.75255 0.50886 0.84609 0.0
N350 N 0.72892 0.52403 0.79134 0.0
N351 N 0.75731 0.51673 0.77427 0.0
C352 C 0.69516 0.52472 0.86595 0.0
H353 H 0.67366 0.53062 0.84619 0.0
H354 H 0.70563 0.5333 0.89138 0.0
H355 H 0.68398 0.51446 0.88483 0.0
C356 C 0.70281 0.58493 0.76006 0.0
N357 N 0.69005 0.57063 0.7479 0.0
N358 N 0.70958 0.55956 0.76751 0.0
C359 C 0.73545 0.56657 0.79293 0.0
C360 C 0.73191 0.5829 0.78924 0.0
C361 C 0.68894 0.60022 0.74139 0.0
H362 H 0.68328 0.59895 0.70434 0.0
H363 H 0.66349 0.6033 0.75906 0.0
H364 H 0.70852 0.60997 0.74635 0.0
O365 O 0.66895 0.55059 0.6593 0.0
O366 O 0.70718 0.53295 0.68765 0.0
H367 H 0.7776 0.5495 0.79906 0.0
H368 H 0.78109 0.56571 0.83942 0.0
C369 C 0.76225 0.55773 0.82124 0.0
H370 H 0.74775 0.55065 0.84714 0.0
H371 H 0.76616 0.518 0.7406 0.0
O372 O 0.62823 0.58274 0.67811 0.0
C373 C 0.69061 0.53909 0.6538 0.0
Co374 Co 0.36209 0.4504 0.7177 0.0
Co375 Co 0.31754 0.47212 0.78478 0.0
C376 C 0.39736 0.4764 0.77057 0.0
O377 O 0.4003 0.46469 0.74332 0.0
O378 O 0.36708 0.48018 0.78753 0.0
C379 C 0.41336 0.42612 0.69156 0.0
O380 O 0.42747 0.42879 0.73206 0.0
C381 C 0.29813 0.4861 0.87421 0.0
C382 C 0.24402 0.49565 0.85977 0.0
C383 C 0.26944 0.4941 0.89416 0.0
N384 N 0.2897 0.48289 0.83036 0.0
N385 N 0.25738 0.48871 0.82198 0.0
C386 C 0.33365 0.48222 0.8957 0.0
H387 H 0.35473 0.48061 0.86952 0.0
H388 H 0.33134 0.471 0.91498 0.0
H389 H 0.3419 0.49169 0.91983 0.0
C390 C 0.32719 0.42553 0.7759 0.0
N391 N 0.33397 0.44075 0.76497 0.0
N392 N 0.31576 0.44996 0.79306 0.0
C393 C 0.29712 0.44091 0.82263 0.0
C394 C 0.30391 0.42522 0.8129 0.0
C395 C 0.3425 0.41154 0.75149 0.0
H396 H 0.37122 0.41023 0.76099 0.0
H397 H 0.32811 0.40052 0.76085 0.0
H398 H 0.34076 0.41334 0.714 0.0
O399 O 0.32997 0.46295 0.67637 0.0
O400 O 0.29783 0.4776 0.72446 0.0
H401 H 0.25488 0.43748 0.87267 0.0
H402 H 0.28714 0.45266 0.88605 0.0
C403 C 0.27164 0.44707 0.85803 0.0
H404 H 0.25376 0.45608 0.84263 0.0
H405 H 0.2444 0.48791 0.7904 0.0
O406 O 0.38584 0.43395 0.67914 0.0
C407 C 0.3056 0.47324 0.68395 0.0
Co408 Co 0.60546 0.8188 0.95761 0.0
Co409 Co 0.56556 0.793 0.01788 0.0
C410 C 0.6449 0.79286 0.00953 0.0
O411 O 0.64365 0.80498 0.98387 0.0
O412 O 0.61653 0.78671 0.02604 0.0
C413 C 0.65828 0.84252 0.95419 0.0
O414 O 0.66472 0.8361 0.99425 0.0
C415 C 0.54074 0.77442 0.0987 0.0
C416 C 0.49114 0.76373 0.07089 0.0
C417 C 0.5127 0.76418 0.10954 0.0
N418 N 0.53577 0.77975 0.05566 0.0
N419 N 0.50589 0.77337 0.03954 0.0
C420 C 0.57289 0.77818 0.12753 0.0
H421 H 0.59309 0.78498 0.10787 0.0
H422 H 0.56449 0.78536 0.15741 0.0
H423 H 0.585 0.76709 0.14067 0.0
C424 C 0.5623 0.84008 0.01782 0.0
N425 N 0.57295 0.82557 1.00423 0.0
N426 N 0.5574 0.81488 0.03035 0.0
C427 C 0.53664 0.82231 0.06153 0.0
C428 C 0.53908 0.8385 0.05473 0.0
C429 C 0.57566 0.85517 0.99734 0.0
H430 H 0.57667 0.85407 0.95955 0.0
H431 H 0.60332 0.85749 0.00992 0.0
H432 H 0.55841 0.86532 1.00692 0.0
O433 O 0.57963 0.80636 0.90915 0.0
O434 O 0.55322 0.78833 0.95311 0.0
H435 H 0.49598 0.82242 0.11466 0.0
H436 H 0.53178 0.80823 0.12169 0.0
C437 C 0.514 0.81408 0.09645 0.0
H438 H 0.49739 0.80489 0.07954 0.0
H439 H 0.49593 0.77535 1.00666 0.0
O440 O 0.63196 0.8373 0.93064 0.0
C441 C 0.56002 0.79406 0.91369 0.0
Co442 Co 0.4015 0.1996 0.95484 0.0
Co443 Co 0.4516 0.22581 0.99996 0.0
C444 C 0.37088 0.22821 1.00112 0.0
O445 O 0.36681 0.21546 0.97864 0.0
O446 O 0.40187 0.23334 0.01201 0.0
C447 C 0.34616 0.17648 0.95797 0.0
O448 O 0.34045 0.18372 0.99708 0.0
C449 C 0.47921 0.24364 0.08061 0.0
C450 C 0.52685 0.25552 0.05177 0.0
C451 C 0.50699 0.25404 0.09175 0.0
N452 N 0.48277 0.23922 0.03636 0.0
N453 N 0.5115 0.24633 0.01957 0.0
C454 C 0.44861 0.23873 0.11068 0.0
H455 H 0.4279 0.23222 0.09101 0.0
H456 H 0.45866 0.2308 0.13797 0.0
H457 H 0.43653 0.24925 0.12734 0.0
C458 C 0.44461 0.17907 0.01712 0.0
N459 N 0.43574 0.19336 0.99998 0.0
N460 N 0.457 0.20417 0.01806 0.0
C461 C 0.47995 0.19704 0.04727 0.0
C462 C 0.47275 0.18096 0.04788 0.0
C463 C 0.42576 0.164 1.00517 0.0
H464 H 0.39838 0.16417 0.0202 0.0
H465 H 0.4402 0.15352 0.01851 0.0
H466 H 0.42309 0.163 0.9675 0.0
O467 O 0.42741 0.20917 0.90255 0.0
O468 O 0.46197 0.22823 0.93174 0.0
H469 H 0.5305 0.19667 0.08387 0.0
H470 H 0.49868 0.21128 0.1027 0.0
C471 C 0.50979 0.20521 0.07225 0.0
H472 H 0.52265 0.21409 0.04975 0.0
H473 H 0.5203 0.24512 0.98585 0.0
O474 O 0.37212 0.18112 0.93294 0.0
C475 C 0.44999 0.2204 0.89738 0.0
Co476 Co 0.64617 0.06751 0.20105 0.0
Co477 Co 0.68875 0.0434 0.26344 0.0
C478 C 0.60963 0.04247 0.25925 0.0
O479 O 0.60912 0.05333 0.22913 0.0
O480 O 0.63878 0.03782 0.27744 0.0
C481 C 0.59885 0.09329 0.20058 0.0
O482 O 0.59747 0.08894 0.24368 0.0
C483 C 0.71342 0.02485 0.34324 0.0
C484 C 0.76706 0.01699 0.32004 0.0
C485 C 0.74303 0.01587 0.35611 0.0
N486 N 0.71991 0.03104 0.3016 0.0
N487 N 0.75211 0.02636 0.28814 0.0
C488 C 0.67822 0.02644 0.36765 0.0
H489 H 0.66873 0.03884 0.36557 0.0
H490 H 0.68004 0.02273 0.40389 0.0
H491 H 0.65797 0.01889 0.35027 0.0
C492 C 0.69366 0.08992 0.25256 0.0
N493 N 0.68016 0.07533 0.24494 0.0
N494 N 0.69686 0.06524 0.2718 0.0
C495 C 0.72085 0.07307 0.29785 0.0
C496 C 0.71985 0.08896 0.28636 0.0
C497 C 0.68473 0.10415 0.22448 0.0
H498 H 0.67849 0.10062 0.18881 0.0
H499 H 0.66078 0.11005 0.23933 0.0
H500 H 0.7073 0.11273 0.22437 0.0
O501 O 0.67168 0.05499 0.15344 0.0
O502 O 0.6989 0.03752 0.19853 0.0
H503 H 0.76559 0.05843 0.31528 0.0
H504 H 0.75749 0.0743 0.35544 0.0
C505 C 0.7445 0.06543 0.33285 0.0
H506 H 0.72825 0.05733 0.35423 0.0
H507 H 0.76358 0.02931 0.25671 0.0
O508 O 0.619 0.08557 0.17338 0.0
C509 C 0.69143 0.0428 0.15874 0.0
Co510 Co 0.35816 0.94911 0.21344 0.0
Co511 Co 0.31628 0.97265 0.2793 0.0
C512 C 0.39511 0.97562 0.26416 0.0
O513 O 0.39561 0.96429 0.23552 0.0
O514 O 0.36639 0.97978 0.28422 0.0
C515 C 0.4113 0.92599 0.20691 0.0
O516 O 0.41707 0.932 0.24773 0.0
C517 C 0.29615 0.98807 0.36665 0.0
C518 C 0.24234 0.99761 0.35054 0.0
C519 C 0.26728 0.99625 0.38556 0.0
N520 N 0.28823 0.98448 0.32284 0.0
N521 N 0.25613 0.99036 0.31342 0.0
C522 C 0.33133 0.98432 0.38925 0.0
H523 H 0.35329 0.98369 0.36398 0.0
H524 H 0.32953 0.97266 0.40633 0.0
H525 H 0.3382 0.99339 0.41527 0.0
C526 C 0.32107 0.92584 0.27484 0.0
N527 N 0.32943 0.94078 0.26247 0.0
N528 N 0.31239 0.95065 0.28984 0.0
C529 C 0.29298 0.94233 0.32038 0.0
C530 C 0.29809 0.92639 0.31219 0.0
C531 C 0.33478 0.9113 0.25151 0.0
H532 H 0.36258 0.90891 0.26336 0.0
H533 H 0.31797 0.90085 0.25965 0.0
H534 H 0.33525 0.9131 0.21396 0.0
O535 O 0.32673 0.96071 0.16939 0.0
O536 O 0.29898 0.97742 0.21668 0.0
H537 H 0.24961 0.94033 0.3696 0.0
H538 H 0.28327 0.95496 0.3825 0.0
C539 C 0.26765 0.94939 0.35456 0.0
H540 H 0.25092 0.95854 0.33789 0.0
H541 H 0.24345 0.98927 0.28171 0.0
O542 O 0.38561 0.93156 0.18307 0.0
C543 C 0.30472 0.97205 0.1765 0.0
H544 H 0.17085 0.35445 0.87585 0.0
H545 H 0.22295 0.35356 0.00887 0.0
H546 H 0.26519 0.37412 0.98352 0.0
H547 H 0.25248 0.36069 0.80914 0.0
H548 H 0.23113 0.37379 0.76891 0.0
H549 H 0.20522 0.35857 0.79667 0.0
H550 H 0.16034 0.37961 0.82647 0.0
H551 H 0.18599 0.39486 0.7986 0.0
H552 H 0.17698 0.39617 0.85907 0.0
H553 H 0.29995 0.3955 0.94602 0.0
H554 H 0.3252 0.41673 0.89754 0.0
H555 H 0.25255 0.40367 0.78795 0.0
C556 C 0.19123 0.35854 0.89954 0.0
C557 C 0.19356 0.35235 0.94436 0.0
C558 C 0.22059 0.35806 0.97435 0.0
C559 C 0.24481 0.36974 0.96027 0.0
C560 C 0.24187 0.37556 0.91599 0.0
C561 C 0.21585 0.3702 0.88595 0.0
C562 C 0.21823 0.37878 0.84054 0.0
C563 C 0.22731 0.36727 0.80151 0.0
C564 C 0.18331 0.3879 0.83061 0.0
C565 C 0.24932 0.38993 0.85008 0.0
C566 C 0.26257 0.38781 0.89384 0.0
C567 C 0.29016 0.39715 0.91149 0.0
C568 C 0.30437 0.40911 0.88385 0.0
C569 C 0.29113 0.4115 0.83913 0.0
C570 C 0.26351 0.40174 0.82181 0.0
H571 H 0.77293 0.66383 0.92116 0.0
H572 H 0.88616 0.65549 0.89354 0.0
H573 H 0.87075 0.63048 0.85505 0.0
H574 H 0.74932 0.62315 0.94393 0.0
H575 H 0.70596 0.62447 0.91657 0.0
H576 H 0.72576 0.64174 0.94242 0.0
H577 H 0.71996 0.65676 0.86562 0.0
H578 H 0.70019 0.63953 0.83952 0.0
H579 H 0.73962 0.64844 0.81462 0.0
H580 H 0.84322 0.60665 0.81775 0.0
H581 H 0.80505 0.58548 0.78507 0.0
H582 H 0.71 0.60875 0.83825 0.0
C583 C 0.7945 0.65674 0.90713 0.0
C584 C 0.83078 0.66169 0.91042 0.0
C585 C 0.85816 0.65202 0.89149 0.0
C586 C 0.8497 0.63775 0.86953 0.0
C587 C 0.81373 0.63325 0.86676 0.0
C588 C 0.78655 0.64242 0.88507 0.0
C589 C 0.75005 0.63487 0.87709 0.0
C590 C 0.7317 0.63082 0.92272 0.0
C591 C 0.72605 0.64554 0.84745 0.0
C592 C 0.76101 0.62007 0.8514 0.0
C593 C 0.79788 0.61938 0.84577 0.0
C594 C 0.81434 0.60698 0.82232 0.0
C595 C 0.79254 0.59498 0.80414 0.0
C596 C 0.75476 0.5954 0.80977 0.0
C597 C 0.73888 0.60813 0.83368 0.0
H598 H 0.95779 0.65916 0.11363 0.0
H599 H 0.03625 0.67446 0.01351 0.0
H600 H 0.07779 0.65331 0.03866 0.0
H601 H 0.0204 0.64968 0.20255 0.0
H602 H 0.99599 0.63257 0.22205 0.0
H603 H 0.97227 0.64865 0.19544 0.0
H604 H 0.9453 0.62933 0.1357 0.0
H605 H 0.96887 0.61317 0.16222 0.0
H606 H 0.97497 0.61711 0.10214 0.0
H607 H 0.111 0.63088 0.07576 0.0
H608 H 0.13353 0.60848 0.12154 0.0
H609 H 0.03316 0.6077 0.19751 0.0
C610 C 0.9837 0.65795 0.09705 0.0
C611 C 0.99421 0.66841 0.06205 0.0
C612 C 0.02812 0.66658 0.04079 0.0
C613 C 0.05174 0.65461 0.05474 0.0
C614 C 0.04084 0.64456 0.0898 0.0
C615 C 0.0076 0.64606 0.1106 0.0
C616 C 1.00261 0.63378 0.14769 0.0
C617 C 0.99753 0.64165 0.19471 0.0
C618 C 0.97107 0.62269 0.13623 0.0
C619 C 0.03833 0.62523 0.14475 0.0
C620 C 0.05995 0.63161 0.11106 0.0
C621 C 0.09428 0.62576 0.10216 0.0
C622 C 0.10684 0.61303 0.12836 0.0
C623 C 0.08514 0.60631 0.16311 0.0
C624 C 0.05044 0.61255 0.17123 0.0
H625 H 0.99641 0.36047 0.0448 0.0
H626 H 0.0815 0.35224 0.14307 0.0
H627 H 0.05793 0.37389 0.19172 0.0
H628 H 0.99296 0.4033 0.05647 0.0
H629 H 0.94467 0.40422 0.05147 0.0
H630 H 0.9692 0.38857 0.02364 0.0
H631 H 0.93007 0.36782 0.06559 0.0
H632 H 0.90553 0.38339 0.09371 0.0
H633 H 0.92728 0.36829 0.12714 0.0
H634 H 0.02467 0.396 0.2299 0.0
H635 H 0.9837 0.41703 0.25608 0.0
H636 H 0.91874 0.41064 0.13392 0.0
C637 C 0.01015 0.36343 0.07635 0.0
C638 C 0.04091 0.35496 0.09031 0.0
C639 C 0.05808 0.35881 0.13196 0.0
C640 C 0.04486 0.37102 0.15968 0.0
C641 C 0.0143 0.37916 0.14525 0.0
C642 C 0.9971 0.37554 0.10462 0.0
C643 C 0.96411 0.38581 0.09785 0.0
C644 C 0.96798 0.39609 0.0548 0.0
C645 C 0.92971 0.37572 0.09597 0.0
C646 C 0.96544 0.39576 0.14103 0.0
C647 C 0.9947 0.39175 0.16776 0.0
C648 C 1.00168 0.39926 0.20925 0.0
C649 C 0.9782 0.4112 0.22383 0.0
C650 C 0.94794 0.41551 0.19714 0.0
C651 C 0.94157 0.40762 0.15519 0.0
H652 H 0.16706 0.85432 0.37108 0.0
H653 H 0.20568 0.85816 0.51094 0.0
H654 H 0.24716 0.87934 0.48773 0.0
H655 H 0.25303 0.86115 0.31626 0.0
H656 H 0.23437 0.87264 0.27015 0.0
H657 H 0.20761 0.85756 0.29721 0.0
H658 H 0.15798 0.87813 0.31511 0.0
H659 H 0.18445 0.89324 0.2878 0.0
H660 H 0.16956 0.89587 0.34599 0.0
H661 H 0.28339 0.90039 0.45066 0.0
H662 H 0.31155 0.92063 0.40133 0.0
H663 H 0.25081 0.90327 0.28513 0.0
C664 C 0.18423 0.85962 0.3968 0.0
C665 C 0.1831 0.85455 0.44286 0.0
C666 C 0.20602 0.86181 0.47545 0.0
C667 C 0.22978 0.87384 0.46261 0.0
C668 C 0.23043 0.87849 0.417 0.0
C669 C 0.20827 0.87167 0.38453 0.0
C670 C 0.2141 0.87912 0.33793 0.0
C671 C 0.22812 0.86689 0.30335 0.0
C672 C 0.17946 0.88706 0.32071 0.0
C673 C 0.24278 0.89123 0.34948 0.0
C674 C 0.25183 0.89061 0.39531 0.0
C675 C 0.27679 0.90092 0.41465 0.0
C676 C 0.29266 0.91232 0.38649 0.0
C677 C 0.28363 0.91325 0.33963 0.0
C678 C 0.25861 0.90251 0.32076 0.0
H679 H 0.77625 0.17107 0.40042 0.0
H680 H 0.88733 0.1557 0.38862 0.0
H681 H 0.86716 0.13133 0.35002 0.0
H682 H 0.73916 0.1333 0.42511 0.0
H683 H 0.69854 0.13636 0.39264 0.0
H684 H 0.72169 0.15298 0.41749 0.0
H685 H 0.72566 0.16619 0.33775 0.0
H686 H 0.70252 0.1496 0.31262 0.0
H687 H 0.74581 0.15554 0.29085 0.0
H688 H 0.83512 0.10828 0.31516 0.0
H689 H 0.79296 0.08795 0.28646 0.0
H690 H 0.70271 0.11809 0.32083 0.0
C691 C 0.79638 0.16265 0.38943 0.0
C692 C 0.83341 0.16534 0.39747 0.0
C693 C 0.85883 0.15394 0.38276 0.0
C694 C 0.84765 0.14006 0.36076 0.0
C695 C 0.81097 0.13775 0.3536 0.0
C696 C 0.78569 0.14872 0.36739 0.0
C697 C 0.74785 0.14314 0.35661 0.0
C698 C 0.7255 0.14134 0.40058 0.0
C699 C 0.72938 0.15428 0.32242 0.0
C700 C 0.75581 0.12724 0.33505 0.0
C701 C 0.79242 0.1244 0.33352 0.0
C702 C 0.80641 0.11038 0.31609 0.0
C703 C 0.78233 0.09889 0.3001 0.0
C704 C 0.74476 0.10148 0.30184 0.0
C705 C 0.73138 0.1159 0.31903 0.0
H706 H 0.02786 0.16524 0.55633 0.0
H707 H 0.92543 0.16141 0.62603 0.0
H708 H 0.94894 0.1391 0.67191 0.0
H709 H 0.0449 0.12317 0.54938 0.0
H710 H 0.09267 0.12503 0.55852 0.0
H711 H 0.06809 0.14086 0.53181 0.0
H712 H 0.09156 0.16036 0.59334 0.0
H713 H 0.1162 0.1446 0.62026 0.0
H714 H 0.08439 0.15602 0.653 0.0
H715 H 0.98364 0.11801 0.71113 0.0
H716 H 0.02636 0.09811 0.73947 0.0
H717 H 0.10634 0.11447 0.64218 0.0
C718 C 0.0106 0.15964 0.58136 0.0
C719 C 0.97502 0.16492 0.58822 0.0
C720 C 0.9528 0.15742 0.62076 0.0
C721 C 0.96593 0.14481 0.64683 0.0
C722 C 1.0012 0.13982 0.63947 0.0
C723 C 0.0232 0.14689 0.60735 0.0
C724 C 0.05982 0.13898 0.6058 0.0
C725 C 0.06676 0.13157 0.55857 0.0
C726 C 0.08976 0.15069 0.61889 0.0
C727 C 0.05497 0.12641 0.6422 0.0
C728 C 0.021 0.12723 0.6613 0.0
C729 C 0.01025 0.11718 0.69632 0.0
C730 C 0.0348 0.10595 0.71227 0.0
C731 C 0.06966 0.10471 0.69297 0.0
C732 C 0.07979 0.11507 0.65732 0.0
H733 H 0.98347 0.91917 0.65624 0.0
H734 H 0.8722 0.90376 0.64694 0.0
H735 H 0.89195 0.87872 0.61219 0.0
H736 H 0.01272 0.90215 0.54911 0.0
H737 H 0.05621 0.89637 0.57055 0.0
H738 H 0.03356 0.91324 0.59469 0.0
H739 H 0.03832 0.90084 0.67543 0.0
H740 H 0.06103 0.88395 0.65156 0.0
H741 H 0.02079 0.88127 0.68504 0.0
H742 H 0.92326 0.85537 0.57835 0.0
H743 H 0.96468 0.83506 0.54809 0.0
H744 H 0.05574 0.86518 0.57971 0.0
C745 C 0.96325 0.91054 0.64687 0.0
C746 C 0.92624 0.91348 0.65435 0.0
C747 C 0.90069 0.90184 0.64158 0.0
C748 C 0.91162 0.88755 0.62177 0.0
C749 C 0.94822 0.88503 0.61486 0.0
C750 C 0.9737 0.89617 0.62698 0.0
C751 C 0.01136 0.89042 0.61593 0.0
C752 C 0.02952 0.90119 0.58046 0.0
C753 C 0.03422 0.88904 0.6596 0.0
C754 C 1.00301 0.8743 0.59587 0.0
C755 C 0.96639 0.87146 0.59555 0.0
C756 C 0.952 0.85742 0.57864 0.0
C757 C 0.97568 0.84593 0.56179 0.0
C758 C 0.01329 0.84851 0.5622 0.0
C759 C 0.02706 0.86293 0.57915 0.0
H760 H 0.74855 0.40348 0.2808 0.0
H761 H 0.80602 0.42444 0.39458 0.0
H762 H 0.78126 0.40403 0.4465 0.0
H763 H 0.6682 0.39407 0.34383 0.0
H764 H 0.66002 0.37574 0.31416 0.0
H765 H 0.68339 0.39156 0.28571 0.0
H766 H 0.73691 0.37286 0.26886 0.0
H767 H 0.71368 0.35696 0.29719 0.0
H768 H 0.75825 0.36254 0.31542 0.0
H769 H 0.75064 0.38134 0.48557 0.0
H770 H 0.71431 0.35855 0.51049 0.0
H771 H 0.67421 0.35273 0.37197 0.0
C772 C 0.75597 0.40362 0.31663 0.0
C773 C 0.77934 0.41532 0.33401 0.0
C774 C 0.7883 0.41543 0.38096 0.0
C775 C 0.77438 0.40391 0.41053 0.0
C776 C 0.7513 0.39248 0.39254 0.0
C777 C 0.74196 0.39228 0.34674 0.0
C778 C 0.71578 0.37897 0.33656 0.0
C779 C 0.67971 0.38548 0.31904 0.0
C780 C 0.73214 0.36713 0.30249 0.0
C781 C 0.71183 0.37173 0.38375 0.0
C782 C 0.73279 0.37965 0.41541 0.0
C783 C 0.73406 0.37507 0.46112 0.0
C784 C 0.71335 0.36207 0.47492 0.0
C785 C 0.69131 0.35385 0.44327 0.0
C786 C 0.69061 0.35881 0.39706 0.0
H787 H 0.25671 0.61218 0.2951 0.0
H788 H 0.19224 0.59608 0.40933 0.0
H789 H 0.21811 0.61717 0.45807 0.0
H790 H 0.33582 0.62112 0.3609 0.0
H791 H 0.34781 0.63831 0.32797 0.0
H792 H 0.32313 0.62243 0.3015 0.0
H793 H 0.2732 0.64204 0.27727 0.0
H794 H 0.29778 0.658 0.30356 0.0
H795 H 0.25187 0.65419 0.32005 0.0
H796 H 0.25064 0.63986 0.49404 0.0
H797 H 0.28947 0.66214 0.51651 0.0
H798 H 0.33515 0.66318 0.37983 0.0
C799 C 0.24793 0.61326 0.33028 0.0
C800 C 0.22235 0.60269 0.34866 0.0
C801 C 0.21174 0.60418 0.39488 0.0
C802 C 0.22624 0.6161 0.42267 0.0
C803 C 0.25153 0.62633 0.40371 0.0
C804 C 0.26247 0.62502 0.35867 0.0
C805 C 0.29095 0.63726 0.34736 0.0
C806 C 0.32654 0.6293 0.33363 0.0
C807 C 0.27764 0.64854 0.30984 0.0
C808 C 0.29431 0.64565 0.39307 0.0
C809 C 0.27111 0.6392 0.42492 0.0
C810 C 0.26896 0.64499 0.46943 0.0
C811 C 0.29114 0.65769 0.48183 0.0
C812 C 0.31544 0.66442 0.45001 0.0
C813 C 0.31698 0.65826 0.40501 0.0
H814 H 0.48355 0.66769 0.63554 0.0
H815 H 0.50427 0.6577 0.49261 0.0
H816 H 0.54306 0.63518 0.51463 0.0
H817 H 0.57215 0.65757 0.6785 0.0
H818 H 0.55538 0.64855 0.73007 0.0
H819 H 0.53034 0.6642 0.70314 0.0
H820 H 0.47417 0.64612 0.69885 0.0
H821 H 0.49901 0.63043 0.7258 0.0
H822 H 0.47759 0.62711 0.67129 0.0
H823 H 0.57952 0.61399 0.55201 0.0
H824 H 0.60894 0.59443 0.60187 0.0
H825 H 0.56274 0.61731 0.7212 0.0
C826 C 0.4964 0.66072 0.6091 0.0
C827 C 0.49107 0.66426 0.56245 0.0
C828 C 0.50806 0.655 0.5285 0.0
C829 C 0.53014 0.64227 0.54071 0.0
C830 C 0.53476 0.63896 0.58703 0.0
C831 C 0.51823 0.64783 0.62074 0.0
C832 C 0.52678 0.64139 0.66791 0.0
C833 C 0.54739 0.65366 0.69659 0.0
C834 C 0.49233 0.63594 0.69239 0.0
C835 C 0.55058 0.6275 0.65542 0.0
C836 C 0.55509 0.62643 0.60859 0.0
C837 C 0.57613 0.61468 0.58872 0.0
C838 C 0.59281 0.60363 0.61739 0.0
C839 C 0.5881 0.60428 0.66548 0.0
C840 C 0.56675 0.61644 0.6846 0.0
H841 H 0.53315 0.35068 0.62635 0.0
H842 H 0.49384 0.35553 0.48765 0.0
H843 H 0.45649 0.37837 0.51137 0.0
H844 H 0.45002 0.36141 0.68406 0.0
H845 H 0.47244 0.37219 0.72903 0.0
H846 H 0.49482 0.3559 0.7014 0.0
H847 H 0.54845 0.37417 0.68121 0.0
H848 H 0.5262 0.39052 0.70865 0.0
H849 H 0.54033 0.39214 0.64986 0.0
H850 H 0.42374 0.40061 0.55024 0.0
H851 H 0.39901 0.42132 0.60079 0.0
H852 H 0.46137 0.40267 0.71407 0.0
C853 C 0.51642 0.35655 0.60126 0.0
C854 C 0.51596 0.35145 0.55533 0.0
C855 C 0.4942 0.35936 0.52303 0.0
C856 C 0.47301 0.37228 0.5362 0.0
C857 C 0.47412 0.37716 0.58177 0.0
C858 C 0.49532 0.36957 0.61381 0.0
C859 C 0.49236 0.37747 0.66024 0.0
C860 C 0.47646 0.36606 0.69578 0.0
C861 C 0.52902 0.38396 0.67589 0.0
C862 C 0.46633 0.39072 0.64925 0.0
C863 C 0.45593 0.39024 0.60389 0.0
C864 C 0.43175 0.40113 0.5858 0.0
C865 C 0.41782 0.41284 0.61481 0.0
C866 C 0.42836 0.41368 0.66134 0.0
C867 C 0.45299 0.40244 0.6786 0.0
H868 H 0.64784 0.86275 0.88084 0.0
H869 H 0.72331 0.85102 0.98901 0.0
H870 H 0.76453 0.87169 0.96166 0.0
H871 H 0.71375 0.87112 0.79374 0.0
H872 H 0.68935 0.88754 0.76985 0.0
H873 H 0.66536 0.87174 0.79758 0.0
H874 H 0.6351 0.89191 0.85203 0.0
H875 H 0.65902 0.90778 0.82446 0.0
H876 H 0.6628 0.90508 0.88542 0.0
H877 H 0.79858 0.89302 0.92216 0.0
H878 H 0.82215 0.91472 0.87397 0.0
H879 H 0.72479 0.91358 0.79254 0.0
C880 C 0.67305 0.86453 0.89868 0.0
C881 C 0.68231 0.85521 0.93707 0.0
C882 C 0.71547 0.85801 0.95965 0.0
C883 C 0.73919 0.86971 0.94433 0.0
C884 C 0.72935 0.87868 0.90651 0.0
C885 C 0.69703 0.87634 0.88407 0.0
C886 C 0.69302 0.88786 0.84461 0.0
C887 C 0.69021 0.87903 0.79873 0.0
C888 C 0.66055 0.89881 0.8521 0.0
C889 C 0.72821 0.89689 0.8483 0.0
C890 C 0.74878 0.89133 0.8842 0.0
C891 C 0.78265 0.89755 0.8941 0.0
C892 C 0.79584 0.90981 0.86665 0.0
C893 C 0.77513 0.91578 0.83004 0.0
C894 C 0.7409 0.90926 0.82073 0.0
H895 H 0.34078 0.16187 0.87341 0.0
H896 H 0.29886 0.16048 0.01198 0.0
H897 H 0.25931 0.1383 0.99075 0.0
H898 H 0.25629 0.15345 0.81742 0.0
H899 H 0.27601 0.14139 0.77322 0.0
H900 H 0.3019 0.15701 0.79916 0.0
H901 H 0.35175 0.13699 0.82069 0.0
H902 H 0.32607 0.12132 0.79465 0.0
H903 H 0.34019 0.11969 0.85345 0.0
H904 H 0.22474 0.11609 0.95544 0.0
H905 H 0.1963 0.09555 0.90709 0.0
H906 H 0.2586 0.11147 0.7907 0.0
C907 C 0.32338 0.15685 0.8993 0.0
C908 C 0.32303 0.16294 0.94445 0.0
C909 C 0.29964 0.15609 0.97718 0.0
C910 C 0.27705 0.14345 0.96548 0.0
C911 C 0.27787 0.13779 0.92076 0.0
C912 C 0.3003 0.14427 0.88806 0.0
C913 C 0.29534 0.13606 0.84225 0.0
C914 C 0.28156 0.14767 0.80587 0.0
C915 C 0.33043 0.12804 0.82687 0.0
C916 C 0.26678 0.12395 0.85446 0.0
C917 C 0.25722 0.12515 0.90001 0.0
C918 C 0.23187 0.11509 0.91967 0.0
C919 C 0.21587 0.10348 0.89207 0.0
C920 C 0.22505 0.1021 0.84532 0.0
C921 C 0.2508 0.11247 0.82627 0.0
H922 H 0.58501 0.10318 0.11211 0.0
H923 H 0.56658 0.11538 0.25451 0.0
H924 H 0.53262 0.13892 0.23064 0.0
H925 H 0.59596 0.14302 0.07039 0.0
H926 H 0.57251 0.13944 0.01739 0.0
H927 H 0.59592 0.12354 0.04539 0.0
H928 H 0.53727 0.10699 0.04607 0.0
H929 H 0.51366 0.12286 0.01816 0.0
H930 H 0.49723 0.11514 0.07165 0.0
H931 H 0.50173 0.16143 0.19209 0.0
H932 H 0.47367 0.18102 0.14047 0.0
H933 H 0.50976 0.15416 0.02286 0.0
C934 C 0.57388 0.11083 0.13822 0.0
C935 C 0.57853 0.10741 0.18524 0.0
C936 C 0.56334 0.11768 0.21832 0.0
C937 C 0.54403 0.13113 0.20512 0.0
C938 C 0.53983 0.13414 0.15864 0.0
C939 C 0.55412 0.12428 0.12561 0.0
C940 C 0.54504 0.13018 0.07795 0.0
C941 C 0.57941 0.13429 0.05121 0.0
C942 C 0.52193 0.11807 0.05193 0.0
C943 C 0.52358 0.1449 0.08947 0.0
C944 C 0.52111 0.14699 0.13626 0.0
C945 C 0.50329 0.15988 0.1554 0.0
C946 C 0.4875 0.17094 0.12594 0.0
C947 C 0.48934 0.16895 0.07798 0.0
C948 C 0.50762 0.15578 0.05951 0.0
H949 H 0.49116 0.86183 0.03078 0.0
H950 H 0.5524 0.84323 0.14471 0.0
H951 H 0.52665 0.86372 0.19545 0.0
H952 H 0.49834 0.90329 0.0617 0.0
H953 H 0.45309 0.90802 0.04431 0.0
H954 H 0.47697 0.89215 0.01664 0.0
H955 H 0.42512 0.87291 0.03657 0.0
H956 H 0.40113 0.8887 0.06442 0.0
H957 H 0.41114 0.87082 0.0953 0.0
H958 H 0.49494 0.88603 0.23342 0.0
H959 H 0.4578 0.90853 0.25784 0.0
H960 H 0.41485 0.9127 0.12019 0.0
C961 C 0.49925 0.86223 0.06635 0.0
C962 C 0.5239 0.8511 0.08405 0.0
C963 C 0.5336 0.85172 0.13076 0.0
C964 C 0.51915 0.8633 0.1597 0.0
C965 C 0.49484 0.87411 0.14138 0.0
C966 C 0.48478 0.87368 0.09588 0.0
C967 C 0.45746 0.88651 0.0854 0.0
C968 C 0.47236 0.89819 0.04991 0.0
C969 C 0.42159 0.8793 0.06949 0.0
C970 C 0.45379 0.89421 0.13212 0.0
C971 C 0.47579 0.88688 0.16372 0.0
C972 C 0.47756 0.89187 0.20902 0.0
C973 C 0.45633 0.9047 0.22252 0.0
C974 C 0.43333 0.91243 0.191 0.0
C975 C 0.43204 0.90703 0.14515 0.0
H976 H 0.92176 0.23053 0.34391 0.0
H977 H 0.02102 0.23299 0.42158 0.0
H978 H 0.05221 0.24426 0.35431 0.0
H979 H 0.95991 0.22108 0.23379 0.0
H980 H 0.92939 0.23359 0.20253 0.0
H981 H 0.91545 0.22488 0.25584 0.0
H982 H 0.9002 0.25266 0.28776 0.0
H983 H 0.91407 0.26144 0.23454 0.0
H984 H 0.93424 0.26784 0.28751 0.0
H985 H 0.07293 0.25387 0.27741 0.0
H986 H 0.08067 0.2641 0.19979 0.0
H987 H 0.96603 0.25866 0.17523 0.0
C988 C 0.95013 0.23333 0.34648 0.0
C989 C 0.96924 0.23076 0.38751 0.0
C990 C 0.00608 0.23486 0.39023 0.0
C991 C 0.02398 0.2412 0.35225 0.0
C992 C 1.00439 0.24363 0.31224 0.0
C993 C 0.96817 0.24005 0.30931 0.0
C994 C 0.9529 0.24472 0.26325 0.0
C995 C 0.93858 0.2302 0.23733 0.0
C996 C 0.92363 0.25742 0.26861 0.0
C997 C 0.98628 0.25135 0.24064 0.0
C998 C 0.01574 0.25041 0.26923 0.0
C999 C 0.04984 0.25512 0.25515 0.0
C1000 C 0.05384 0.26123 0.21092 0.0
C1001 C 0.0237 0.26307 0.18163 0.0
C1002 C 0.98961 0.25778 0.19683 0.0
H1003 H 0.06908 0.80158 0.31999 0.0
H1004 H 0.03289 0.76324 0.40735 0.0
H1005 H 0.01176 0.74867 0.33973 0.0
H1006 H 0.99443 0.79925 0.23982 0.0
H1007 H 0.02176 0.80363 0.19052 0.0
H1008 H 0.03419 0.81129 0.24586 0.0
H1009 H 0.09701 0.79834 0.23814 0.0
H1010 H 0.08475 0.7906 0.18285 0.0
H1011 H 0.10023 0.77744 0.22706 0.0
H1012 H 0.99754 0.73747 0.2634 0.0
H1013 H 0.98692 0.73108 0.18258 0.0
H1014 H 0.02835 0.77701 0.14312 0.0
C1015 C 0.05662 0.79014 0.3249 0.0
C1016 C 0.05279 0.78358 0.36918 0.0
C1017 C 0.03617 0.76859 0.37399 0.0
C1018 C 0.02411 0.76016 0.33572 0.0
C1019 C 0.02852 0.76688 0.2927 0.0
C1020 C 0.04405 0.78157 0.28694 0.0
C1021 C 0.04512 0.78606 0.23667 0.0
C1022 C 0.02252 0.80094 0.2277 0.0
C1023 C 0.0841 0.78824 0.22022 0.0
C1024 C 0.02797 0.77154 0.21525 0.0
C1025 C 0.0188 0.76063 0.24833 0.0
C1026 C 1.00376 0.74607 0.23722 0.0
C1027 C 0.99733 0.74263 0.19108 0.0
C1028 C 0.00519 0.75381 0.15649 0.0
C1029 C 0.02135 0.76835 0.16885 0.0
H1030 H 0.26637 0.49399 0.42194 0.0
H1031 H 0.19978 0.53243 0.47172 0.0
H1032 H 0.20872 0.52331 0.55063 0.0
H1033 H 0.24068 0.46445 0.50701 0.0
H1034 H 0.28569 0.45676 0.5122 0.0
H1035 H 0.27097 0.46526 0.45892 0.0
H1036 H 0.32492 0.48465 0.46072 0.0
H1037 H 0.33977 0.47623 0.51396 0.0
H1038 H 0.33143 0.49715 0.51003 0.0
H1039 H 0.22686 0.51088 0.6243 0.0
H1040 H 0.2555 0.49683 0.68828 0.0
H1041 H 0.31344 0.46723 0.59166 0.0
C1042 C 0.2532 0.50034 0.44941 0.0
C1043 C 0.231 0.51352 0.44027 0.0
C1044 C 0.21517 0.52179 0.4773 0.0
C1045 C 0.22051 0.51682 0.52247 0.0
C1046 C 0.24223 0.5037 0.53019 0.0
C1047 C 0.25856 0.49563 0.49477 0.0
C1048 C 0.28265 0.48258 0.51266 0.0
C1049 C 0.26918 0.4663 0.49675 0.0
C1050 C 0.32202 0.48533 0.4985 0.0
C1051 C 0.2776 0.48471 0.56372 0.0
C1052 C 0.25388 0.49686 0.57298 0.0
C1053 C 0.24539 0.5013 0.61752 0.0
C1054 C 0.26185 0.49322 0.65365 0.0
C1055 C 0.28681 0.4809 0.64513 0.0
C1056 C 0.29445 0.47654 0.59942 0.0
H1057 H 0.75037 0.52709 0.60785 0.0
H1058 H 0.63559 0.53531 0.59489 0.0
H1059 H 0.6368 0.52465 0.51661 0.0
H1060 H 0.77174 0.53908 0.493 0.0
H1061 H 0.80663 0.52459 0.48456 0.0
H1062 H 0.79687 0.53175 0.54126 0.0
H1063 H 0.78652 0.50305 0.56878 0.0
H1064 H 0.79617 0.49581 0.51208 0.0
H1065 H 0.75427 0.49076 0.53943 0.0
H1066 H 0.64954 0.51371 0.44019 0.0
H1067 H 0.6736 0.50389 0.36744 0.0
H1068 H 0.78143 0.50444 0.42524 0.0
C1069 C 0.72554 0.52643 0.58858 0.0
C1070 C 0.69281 0.53196 0.60753 0.0
C1071 C 0.66094 0.5312 0.58103 0.0
C1072 C 0.6613 0.5251 0.53656 0.0
C1073 C 0.69387 0.51995 0.51855 0.0
C1074 C 0.72552 0.52063 0.54334 0.0
C1075 C 0.75702 0.5151 0.51418 0.0
C1076 C 0.7847 0.52843 0.50788 0.0
C1077 C 0.77453 0.5003 0.53486 0.0
C1078 C 0.73796 0.51126 0.46942 0.0
C1079 C 0.70151 0.51402 0.47315 0.0
C1080 C 0.67807 0.51148 0.4368 0.0
C1081 C 0.69216 0.50594 0.3954 0.0
C1082 C 0.72951 0.50303 0.39008 0.0
C1083 C 0.75269 0.5059 0.42785 0.0
H1084 H 0.98399 0.74676 0.87169 0.0
H1085 H 0.93959 0.70132 0.83173 0.0
H1086 H 0.95613 0.7065 0.75173 0.0
H1087 H 0.9523 0.76771 0.77541 0.0
H1088 H 0.99132 0.7802 0.76965 0.0
H1089 H 0.97926 0.77244 0.82485 0.0
H1090 H 0.04273 0.76014 0.83296 0.0
H1091 H 0.05499 0.76787 0.77769 0.0
H1092 H 0.05922 0.74704 0.78907 0.0
H1093 H 0.97267 0.7171 0.67582 0.0
H1094 H 0.98914 0.73264 0.60766 0.0
H1095 H 0.02247 0.77146 0.69501 0.0
C1096 C 0.97836 0.73781 0.8462 0.0
C1097 C 0.96055 0.72361 0.85809 0.0
C1098 C 0.9531 0.7123 0.82355 0.0
C1099 C 0.96252 0.71509 0.77796 0.0
C1100 C 0.97942 0.72927 0.76721 0.0
C1101 C 0.98739 0.74046 0.80019 0.0
C1102 C 1.00377 0.7551 0.77865 0.0
C1103 C 0.98025 0.76972 0.78768 0.0
C1104 C 0.04248 0.75769 0.79561 0.0
C1105 C 1.00315 0.75045 0.72848 0.0
C1106 C 0.9892 0.73544 0.72285 0.0
C1107 C 0.9841 0.72879 0.67976 0.0
C1108 C 0.9934 0.73772 0.64127 0.0
C1109 C 0.00778 0.75311 0.64602 0.0
C1110 C 0.0128 0.75952 0.69028 0.0
H1111 H 0.06687 0.30182 0.83587 0.0
H1112 H 0.01532 0.26998 0.93218 0.0
H1113 H 0.98844 0.25525 0.86813 0.0
H1114 H 0.99298 0.30246 0.75265 0.0
H1115 H 0.02287 0.3029 0.70414 0.0
H1116 H 0.03664 0.31159 0.75767 0.0
H1117 H 0.09374 0.29405 0.75776 0.0
H1118 H 0.08009 0.28527 0.70439 0.0
H1119 H 0.08909 0.27291 0.7532 0.0
H1120 H 0.97132 0.24258 0.79429 0.0
H1121 H 0.96241 0.23362 0.71513 0.0
H1122 H 0.0221 0.27423 0.66575 0.0
C1123 C 0.04958 0.29188 0.84355 0.0
C1124 C 0.04329 0.2871 0.88921 0.0
C1125 C 0.02063 0.27393 0.89762 0.0
C1126 C 0.00517 0.26545 0.86143 0.0
C1127 C 0.01236 0.27032 0.81694 0.0
C1128 C 0.03376 0.28329 0.80777 0.0
C1129 C 0.03789 0.28573 0.75667 0.0
C1130 C 0.02162 0.30161 0.74192 0.0
C1131 C 0.07756 0.28441 0.74217 0.0
C1132 C 0.01592 0.27196 0.73869 0.0
C1133 C 1.00142 0.26325 0.77407 0.0
C1134 C 0.98168 0.24953 0.7662 0.0
C1135 C 0.97632 0.24464 0.7209 0.0
C1136 C 0.99017 0.25356 0.68392 0.0
C1137 C 0.01052 0.26733 0.69321 0.0
H1138 H 0.26735 0.9929 0.91364 0.0
H1139 H 0.20513 0.03278 0.96304 0.0
H1140 H 0.21367 0.02376 0.04218 0.0
H1141 H 0.23875 0.9642 0.99928 0.0
H1142 H 0.2828 0.95551 1.0047 0.0
H1143 H 0.26917 0.96424 0.95126 0.0
H1144 H 0.32525 0.98243 0.95287 0.0
H1145 H 0.33907 0.97374 1.00622 0.0
H1146 H 0.33319 0.99482 1.00206 0.0
H1147 H 0.23026 0.0111 0.11584 0.0
H1148 H 0.25708 0.99659 0.18011 0.0
H1149 H 0.31166 0.96548 0.08424 0.0
C1150 C 0.25513 0.9996 0.94114 0.0
C1151 C 0.23412 0.01314 0.93192 0.0
C1152 C 0.21954 0.02188 0.96887 0.0
C1153 C 0.22465 0.01695 0.01411 0.0
C1154 C 0.24493 1.00341 0.02196 0.0
C1155 C 0.26026 0.99492 0.98662 0.0
C1156 C 0.28277 0.98137 1.00478 0.0
C1157 C 0.26744 0.96538 0.98907 0.0
C1158 C 0.32242 0.98321 0.99065 0.0
C1159 C 0.27794 0.9837 0.05584 0.0
C1160 C 0.25572 0.9964 0.06485 0.0
C1161 C 0.24764 1.0011 0.10927 0.0
C1162 C 0.26307 0.99275 0.14559 0.0
C1163 C 0.28658 0.97986 0.13739 0.0
C1164 C 0.29372 0.97521 0.09176 0.0
H1165 H 0.72201 0.02423 0.89215 0.0
H1166 H 0.76718 0.97936 0.93483 0.0
H1167 H 0.7592 0.98689 0.01535 0.0
H1168 H 0.75843 0.04819 0.98347 0.0
H1169 H 0.71841 0.05998 0.99005 0.0
H1170 H 0.72917 0.05147 0.93522 0.0
H1171 H 0.66682 0.0378 0.93279 0.0
H1172 H 0.65582 0.04631 0.98752 0.0
H1173 H 0.65338 0.02523 0.97949 0.0
H1174 H 0.74689 0.99914 0.09118 0.0
H1175 H 0.72695 0.01454 0.15792 0.0
H1176 H 0.6862 0.05108 0.06744 0.0
C1177 C 0.73037 0.01604 0.9185 0.0
C1178 C 0.74674 1.00148 0.90702 0.0
C1179 C 0.75649 0.99093 0.94248 0.0
C1180 C 0.75159 0.99501 0.98849 0.0
C1181 C 0.73625 0.00959 0.99865 0.0
C1182 C 0.72535 0.01988 0.96477 0.0
C1183 C 0.70826 0.03456 0.98525 0.0
C1184 C 0.72987 0.04943 0.97275 0.0
C1185 C 0.66872 0.03606 0.97038 0.0
C1186 C 0.71131 0.03086 0.03588 0.0
C1187 C 0.72778 0.01644 0.04271 0.0
C1188 C 0.73385 0.01044 0.08632 0.0
C1189 C 0.72246 0.01933 0.12406 0.0
C1190 C 0.70489 0.03405 0.11812 0.0
C1191 C 0.69947 0.03988 0.07326 0.0
H1192 H 0.50662 0.27506 0.68347 0.0
H1193 H 0.48328 0.23435 0.59804 0.0
H1194 H 0.47175 0.21842 0.66688 0.0
H1195 H 0.55069 0.25327 0.77721 0.0
H1196 H 0.53127 0.26547 0.82134 0.0
H1197 H 0.54006 0.27364 0.76554 0.0
H1198 H 0.47342 0.28219 0.75897 0.0
H1199 H 0.46442 0.27403 0.81467 0.0
H1200 H 0.43841 0.26764 0.76598 0.0
H1201 H 0.46035 0.20705 0.74327 0.0
H1202 H 0.44737 0.20091 0.82364 0.0
H1203 H 0.47772 0.24861 0.8627 0.0
C1204 C 0.49997 0.26271 0.67929 0.0
C1205 C 0.49647 0.2559 0.63512 0.0
C1206 C 0.48624 0.23983 0.63133 0.0
C1207 C 0.47979 0.23065 0.6703 0.0
C1208 C 0.48343 0.23766 0.71317 0.0
C1209 C 0.49315 0.25332 0.71812 0.0
C1210 C 0.49313 0.25802 0.76846 0.0
C1211 C 0.53105 0.26289 0.78406 0.0
C1212 C 0.46571 0.27125 0.77754 0.0
C1213 C 0.48153 0.2426 0.79078 0.0
C1214 C 0.47637 0.23104 0.75798 0.0
C1215 C 0.46447 0.21597 0.76931 0.0
C1216 C 0.45709 0.21261 0.81523 0.0
C1217 C 0.46152 0.22423 0.84979 0.0
C1218 C 0.47447 0.2394 0.8373 0.0
H1219 H 0.565 0.80245 0.82199 0.0
H1220 H 0.52533 0.76566 0.91249 0.0
H1221 H 0.5071 0.74987 0.84593 0.0
H1222 H 0.49339 0.79824 0.73669 0.0
H1223 H 0.52289 0.80184 0.68889 0.0
H1224 H 0.53248 0.81063 0.74373 0.0
H1225 H 0.59589 0.79798 0.74273 0.0
H1226 H 0.58641 0.78906 0.68806 0.0
H1227 H 0.60017 0.77692 0.73552 0.0
H1228 H 0.49741 0.737 0.77078 0.0
H1229 H 0.49091 0.7289 0.69064 0.0
H1230 H 0.53211 0.77437 0.6465 0.0
C1231 C 0.5522 0.79114 0.8278 0.0
C1232 C 0.54676 0.78535 0.87275 0.0
C1233 C 0.52987 0.77045 0.87865 0.0
C1234 C 0.51945 0.76132 0.84097 0.0
C1235 C 0.52568 0.76723 0.79734 0.0
C1236 C 0.5412 0.78186 0.79037 0.0
C1237 C 0.54448 0.78534 0.73954 0.0
C1238 C 0.52196 0.79987 0.72645 0.0
C1239 C 0.5841 0.78745 0.72566 0.0
C1240 C 0.52872 0.77031 0.71929 0.0
C1241 C 0.51831 0.76003 0.75342 0.0
C1242 C 0.50448 0.74512 0.74369 0.0
C1243 C 0.50038 0.7407 0.69781 0.0
C1244 C 0.50927 0.75125 0.66197 0.0
C1245 C 0.52435 0.76615 0.67307 0.0
H1246 H 0.77655 0.4935 0.11635 0.0
H1247 H 0.82073 0.44781 0.07895 0.0
H1248 H 0.80721 0.4531 0.99802 0.0
H1249 H 0.70435 0.49429 0.02966 0.0
H1250 H 0.70969 0.51508 0.01834 0.0
H1251 H 0.71998 0.50734 0.07424 0.0
H1252 H 0.78406 0.51922 0.06921 0.0
H1253 H 0.77398 0.52699 0.01336 0.0
H1254 H 0.81234 0.51426 0.02119 0.0
H1255 H 0.7928 0.46365 0.92105 0.0
H1256 H 0.77795 0.47894 0.85199 0.0
H1257 H 0.74419 0.51828 0.93711 0.0
C1258 C 0.78275 0.48451 0.09118 0.0
C1259 C 0.79958 0.47018 0.1042 0.0
C1260 C 0.8079 0.45886 0.07001 0.0
C1261 C 0.80022 0.46174 0.02386 0.0
C1262 C 0.78426 0.47603 0.01206 0.0
C1263 C 0.77555 0.48726 0.04457 0.0
C1264 C 0.76036 0.50199 0.02195 0.0
C1265 C 0.72127 0.50484 0.03695 0.0
C1266 C 0.78411 0.51647 0.03203 0.0
C1267 C 0.76232 0.4973 0.97177 0.0
C1268 C 0.77601 0.48222 0.96707 0.0
C1269 C 0.78172 0.47542 0.9243 0.0
C1270 C 0.77332 0.48424 0.88522 0.0
C1271 C 0.75922 0.49973 0.88882 0.0
C1272 C 0.75367 0.50631 0.93289 0.0
H1273 H 0.19134 0.54939 0.09211 0.0
H1274 H 0.24427 0.51839 0.18943 0.0
H1275 H 0.27014 0.50311 0.12578 0.0
H1276 H 0.16755 0.51979 0.01244 0.0
H1277 H 0.17572 0.53169 0.96243 0.0
H1278 H 0.16309 0.54097 0.01549 0.0
H1279 H 0.22026 0.55846 0.01243 0.0
H1280 H 0.23299 0.54929 0.95918 0.0
H1281 H 0.26377 0.54926 1.00683 0.0
H1282 H 0.28625 0.48986 0.05235 0.0
H1283 H 0.29394 0.48028 0.97355 0.0
H1284 H 0.23295 0.5203 0.923 0.0
C1285 C 0.20875 0.53952 0.10008 0.0
C1286 C 0.21571 0.53512 0.1459 0.0
C1287 C 0.23846 0.52203 0.15472 0.0
C1288 C 0.25334 0.51326 0.11877 0.0
C1289 C 0.24545 0.51774 0.07412 0.0
C1290 C 0.22394 0.53062 0.06456 0.0
C1291 C 0.21887 0.5326 0.01343 0.0
C1292 C 0.17894 0.53117 1.00019 0.0
C1293 C 0.23494 0.54834 0.99701 0.0
C1294 C 0.24043 0.51867 0.9959 0.0
C1295 C 0.2556 0.51029 0.03149 0.0
C1296 C 0.2753 0.49654 0.02407 0.0
C1297 C 0.27992 0.49128 0.97898 0.0
C1298 C 0.2653 0.49985 0.9418 0.0
C1299 C 0.24501 0.51364 0.95064 0.0
H1300 H 0.48493 0.7457 0.37647 0.0
H1301 H 0.44504 0.69979 0.33365 0.0
H1302 H 0.46123 0.70585 0.25399 0.0
H1303 H 0.45103 0.76667 0.28169 0.0
H1304 H 0.48862 0.78001 0.27653 0.0
H1305 H 0.47765 0.77159 0.33128 0.0
H1306 H 0.5424 0.76057 0.33826 0.0
H1307 H 0.55358 0.76898 0.28345 0.0
H1308 H 0.56013 0.74818 0.29342 0.0
H1309 H 0.4765 0.71735 0.17873 0.0
H1310 H 0.49064 0.73374 0.11149 0.0
H1311 H 0.52021 0.77258 0.20093 0.0
C1312 C 0.48034 0.73682 0.35043 0.0
C1313 C 0.46385 0.72222 0.36142 0.0
C1314 C 0.45758 0.71104 0.32616 0.0
C1315 C 0.46681 0.71435 0.28076 0.0
C1316 C 0.4823 0.72892 0.27088 0.0
C1317 C 0.48914 0.74 0.30456 0.0
C1318 C 0.50383 0.75514 0.28382 0.0
C1319 C 0.47878 0.76918 0.29393 0.0
C1320 C 0.54227 0.75841 0.30075 0.0
C1321 C 0.50354 0.75089 0.2333 0.0
C1322 C 0.49124 0.73564 0.22683 0.0
C1323 C 0.48664 0.72923 0.18334 0.0
C1324 C 0.49461 0.73865 0.14536 0.0
C1325 C 0.50721 0.75432 0.15088 0.0
C1326 C 0.51189 0.76048 0.19555 0.0
H1327 H 0.52957 0.27023 0.36269 0.0
H1328 H 0.57305 0.31596 0.32436 0.0
H1329 H 0.56036 0.31024 0.24357 0.0
H1330 H 0.56606 0.24911 0.26805 0.0
H1331 H 0.5278 0.23631 0.26002 0.0
H1332 H 0.53747 0.24427 0.31584 0.0
H1333 H 0.47332 0.25607 0.31993 0.0
H1334 H 0.46345 0.24813 0.26406 0.0
H1335 H 0.45796 0.26895 0.27493 0.0
H1336 H 0.54693 0.29939 0.16684 0.0
H1337 H 0.53251 0.28394 0.09782 0.0
H1338 H 0.49839 0.24474 0.18301 0.0
C1339 C 0.53583 0.27912 0.33732 0.0
C1340 C 0.55229 0.29359 0.35016 0.0
C1341 C 0.56058 0.30479 0.31568 0.0
C1342 C 0.55337 0.30167 0.26953 0.0
C1343 C 0.53782 0.28727 0.25791 0.0
C1344 C 0.52902 0.27614 0.29061 0.0
C1345 C 0.51404 0.26131 0.268 0.0
C1346 C 0.53776 0.2469 0.27861 0.0
C1347 C 0.47486 0.25845 0.28261 0.0
C1348 C 0.51631 0.26583 0.21768 0.0
C1349 C 0.52994 0.28091 0.21292 0.0
C1350 C 0.53588 0.28761 0.17012 0.0
C1351 C 0.52772 0.2787 0.13104 0.0
C1352 C 0.51361 0.2632 0.13461 0.0
C1353 C 0.50787 0.25671 0.17876 0.0
H1354 H 0.76787 0.99624 0.62225 0.0
H1355 H 0.80748 0.95038 0.57883 0.0
H1356 H 0.79219 0.95676 0.49905 0.0
H1357 H 0.6936 0.99923 0.53793 0.0
H1358 H 0.70067 0.02005 0.52885 0.0
H1359 H 0.71102 0.01137 0.58356 0.0
H1360 H 0.77604 0.02223 0.57828 0.0
H1361 H 0.76593 0.0309 0.5236 0.0
H1362 H 0.80319 0.01743 0.52909 0.0
H1363 H 0.77804 0.96863 0.42375 0.0
H1364 H 0.76482 0.98541 0.35682 0.0
H1365 H 0.73494 0.02388 0.44713 0.0
C1366 C 0.77253 0.98743 0.59605 0.0
C1367 C 0.7887 0.97277 0.60687 0.0
C1368 C 0.79515 0.96168 0.57144 0.0
C1369 C 0.78644 0.96517 0.52597 0.0
C1370 C 0.77131 0.97981 0.51626 0.0
C1371 C 0.76427 0.99078 0.55016 0.0
C1372 C 0.75014 1.00606 0.52972 0.0
C1373 C 0.71156 0.00937 0.54599 0.0
C1374 C 0.77533 0.01997 0.54083 0.0
C1375 C 0.75098 1.00201 0.47911 0.0
C1376 C 0.76304 0.98675 0.47229 0.0
C1377 C 0.76803 0.98051 0.42863 0.0
C1378 C 0.76057 0.99013 0.39085 0.0
C1379 C 0.74808 1.00577 0.39687 0.0
C1380 C 0.74322 0.01177 0.44161 0.0
H1381 H 0.18973 0.05161 0.58493 0.0
H1382 H 0.24285 0.02017 0.68097 0.0
H1383 H 0.26774 1.00492 0.61689 0.0
H1384 H 0.16497 0.0223 0.5045 0.0
H1385 H 0.17337 0.03422 0.45459 0.0
H1386 H 0.16115 0.0435 0.5078 0.0
H1387 H 0.21882 0.06067 0.50477 0.0
H1388 H 0.23111 0.05151 0.45133 0.0
H1389 H 0.26203 0.05123 0.49882 0.0
H1390 H 0.28239 0.99155 0.54375 0.0
H1391 H 0.28991 0.98202 0.46495 0.0
H1392 H 0.23073 0.02258 0.41448 0.0
C1393 C 0.20701 0.04167 0.59248 0.0
C1394 C 0.21419 0.03713 0.63818 0.0
C1395 C 0.23679 0.02393 0.64643 0.0
C1396 C 0.25113 0.01515 0.61021 0.0
C1397 C 0.24296 0.01973 0.56576 0.0
C1398 C 0.22179 0.03275 0.55658 0.0
C1399 C 0.21666 0.03482 0.50542 0.0
C1400 C 0.17666 0.03363 0.49233 0.0
C1401 C 0.23315 0.05049 0.48913 0.0
C1402 C 0.23777 0.02077 0.48753 0.0
C1403 C 0.25266 0.01225 0.52303 0.0
C1404 C 0.27177 0.99836 0.51552 0.0
C1405 C 0.27631 0.99314 0.47043 0.0
C1406 C 0.26239 1.00191 0.43323 0.0
C1407 C 0.24239 0.0158 0.44213 0.0
H1408 H 0.32087 0.24033 0.94325 0.0
H1409 H 0.35026 0.2375 0.08637 0.0
H1410 H 0.29644 0.25334 0.10697 0.0
H1411 H 0.29242 0.28103 0.94846 0.0
H1412 H 0.25669 0.27844 0.90741 0.0
H1413 H 0.29612 0.26613 0.90459 0.0
H1414 H 0.25602 0.24112 0.90897 0.0
H1415 H 0.21647 0.25335 0.91172 0.0
H1416 H 0.22484 0.23894 0.95577 0.0
H1417 H 0.23707 0.26816 0.11148 0.0
H1418 H 0.18114 0.28357 0.0991 0.0
H1419 H 0.19543 0.27944 0.95248 0.0
C1420 C 0.31569 0.24298 0.9789 0.0
C1421 C 0.33904 0.23756 0.01346 0.0
C1422 C 0.33225 0.2415 0.05966 0.0
C1423 C 0.30184 0.25045 0.07157 0.0
C1424 C 0.27918 0.25566 0.03665 0.0
C1425 C 0.28616 0.2523 0.99118 0.0
C1426 C 0.25891 0.26007 0.96 0.0
C1427 C 0.27713 0.27213 0.92825 0.0
C1428 C 0.23781 0.24762 0.93251 0.0
C1429 C 0.2352 0.26815 0.99498 0.0
C1430 C 0.24694 0.26526 0.03906 0.0
C1431 C 0.22799 0.27072 0.07712 0.0
C1432 C 0.19633 0.27942 0.06984 0.0
C1433 C 0.18461 0.28287 0.02493 0.0
C1434 C 0.20439 0.27723 0.98715 0.0
H1435 H 0.7911 0.72404 0.99748 0.0
H1436 H 0.87095 0.75998 0.02904 0.0
H1437 H 0.82294 0.77949 0.03986 0.0
H1438 H 0.73264 0.74835 0.93447 0.0
H1439 H 0.69157 0.73982 0.956 0.0
H1440 H 0.73196 0.72814 0.95374 0.0
H1441 H 0.72636 0.72226 0.04038 0.0
H1442 H 0.68586 0.73393 0.0429 0.0
H1443 H 0.72303 0.73844 0.08034 0.0
H1444 H 0.76782 0.79593 0.03821 0.0
H1445 H 0.70743 0.80783 0.03015 0.0
H1446 H 0.66185 0.76142 1.00586 0.0
C1447 C 0.79843 0.73595 1.0073 0.0
C1448 C 0.83494 0.74041 0.01223 0.0
C1449 C 0.8433 0.75618 0.025 0.0
C1450 C 0.81618 0.76741 0.03131 0.0
C1451 C 0.78063 0.76272 0.02547 0.0
C1452 C 0.77153 0.74735 0.0144 0.0
C1453 C 0.73108 0.74565 0.00906 0.0
C1454 C 0.72125 0.74017 0.96043 0.0
C1455 C 0.71568 0.7344 0.04534 0.0
C1456 C 0.71915 0.76255 0.0176 0.0
C1457 C 0.74828 0.77219 0.02689 0.0
C1458 C 0.74466 0.78848 0.03203 0.0
C1459 C 0.71037 0.79514 0.02731 0.0
C1460 C 0.68012 0.78549 0.01835 0.0
C1461 C 0.6845 0.76897 0.01405 0.0
H1462 H 0.08684 0.51282 0.26812 0.0
H1463 H 0.03969 0.55953 0.27739 0.0
H1464 H 0.97913 0.54759 0.28377 0.0
H1465 H 0.01981 0.49742 0.19511 0.0
H1466 H 0.02017 0.47784 0.21922 0.0
H1467 H 0.06005 0.48987 0.22165 0.0
H1468 H 0.06214 0.48662 0.30972 0.0
H1469 H 0.02219 0.47456 0.30754 0.0
H1470 H 0.02333 0.4919 0.3434 0.0
H1471 H 0.92392 0.53074 0.2865 0.0
H1472 H 0.87695 0.51046 0.27727 0.0
H1473 H 0.95934 0.4746 0.25984 0.0
C1474 C 0.06376 0.52048 0.27251 0.0
C1475 C 0.06779 0.53707 0.27308 0.0
C1476 C 0.03704 0.54679 0.27728 0.0
C1477 C 1.00263 0.54011 0.28111 0.0
C1478 C 0.99945 0.5237 0.27992 0.0
C1479 C 0.02911 0.514 0.27518 0.0
C1480 C 0.01792 0.49685 0.27011 0.0
C1481 C 0.03021 0.49011 0.22377 0.0
C1482 C 0.03225 0.4869 0.31008 0.0
C1483 C 0.97734 0.49845 0.27224 0.0
C1484 C 0.96735 0.51401 0.27885 0.0
C1485 C 0.9314 0.51851 0.28139 0.0
C1486 C 0.90489 0.50687 0.27617 0.0
C1487 C 0.91437 0.49091 0.26767 0.0
C1488 C 0.95118 0.48668 0.26628 0.0
H1489 H 0.29749 0.72363 0.50619 0.0
H1490 H 0.377 0.76014 0.53272 0.0
H1491 H 0.3285 0.7796 0.54313 0.0
H1492 H 0.23848 0.74663 0.44194 0.0
H1493 H 0.19776 0.73815 0.46465 0.0
H1494 H 0.23847 0.72668 0.46342 0.0
H1495 H 0.23341 0.72192 0.5507 0.0
H1496 H 0.19256 0.73337 0.55221 0.0
H1497 H 0.22971 0.73858 0.58889 0.0
H1498 H 0.27253 0.79575 0.54013 0.0
H1499 H 0.2118 0.80714 0.52989 0.0
H1500 H 0.16782 0.76013 0.51125 0.0
C1501 C 0.30469 0.73566 0.51492 0.0
C1502 C 0.34112 0.74034 0.5185 0.0
C1503 C 0.34935 0.75622 0.52988 0.0
C1504 C 0.32197 0.76739 0.5359 0.0
C1505 C 0.28642 0.76246 0.53125 0.0
C1506 C 0.27763 0.74694 0.52171 0.0
C1507 C 0.23728 0.74491 0.51681 0.0
C1508 C 0.22744 0.73873 0.46886 0.0
C1509 C 0.22237 0.73405 0.55441 0.0
C1510 C 0.22493 0.76181 0.52358 0.0
C1511 C 0.25376 0.77174 0.53185 0.0
C1512 C 0.24962 0.78807 0.53483 0.0
C1513 C 0.21514 0.79443 0.52886 0.0
C1514 C 0.18527 0.78446 0.52073 0.0
C1515 C 0.19015 0.76794 0.51881 0.0
H1516 H 0.84158 0.25638 0.50971 0.0
H1517 H 0.79679 0.21026 0.53955 0.0
H1518 H 0.73662 0.2222 0.54929 0.0
H1519 H 0.78159 0.28021 0.58469 0.0
H1520 H 0.77771 0.29586 0.54327 0.0
H1521 H 0.81822 0.28421 0.54599 0.0
H1522 H 0.81146 0.27724 0.46009 0.0
H1523 H 0.77097 0.28881 0.45715 0.0
H1524 H 0.77025 0.26834 0.44012 0.0
H1525 H 0.6812 0.23859 0.55066 0.0
H1526 H 0.63281 0.25783 0.53721 0.0
H1527 H 0.71235 0.29328 0.50077 0.0
C1528 C 0.81919 0.24893 0.51957 0.0
C1529 C 0.82369 0.23247 0.52479 0.0
C1530 C 0.79374 0.22292 0.53594 0.0
C1531 C 0.75959 0.22961 0.5417 0.0
C1532 C 0.75579 0.24583 0.53552 0.0
C1533 C 0.78467 0.25538 0.52433 0.0
C1534 C 0.77243 0.27212 0.51435 0.0
C1535 C 0.78844 0.28379 0.54916 0.0
C1536 C 0.78183 0.2769 0.465 0.0
C1537 C 0.73214 0.27038 0.52075 0.0
C1538 C 0.72329 0.2552 0.53392 0.0
C1539 C 0.68778 0.25054 0.5406 0.0
C1540 C 0.66045 0.26159 0.53282 0.0
C1541 C 0.66867 0.27709 0.51774 0.0
C1542 C 0.70513 0.28156 0.51236 0.0
H1543 H 0.08744 0.0116 0.76021 0.0
H1544 H 0.04086 0.05826 0.77504 0.0
H1545 H 0.98017 0.04642 0.77961 0.0
H1546 H 0.01996 0.99732 0.68528 0.0
H1547 H 0.01984 0.97744 0.70724 0.0
H1548 H 0.06002 0.98926 0.71097 0.0
H1549 H 0.06204 0.98489 0.79861 0.0
H1550 H 0.02187 0.97301 0.79512 0.0
H1551 H 0.02332 0.98986 0.83283 0.0
H1552 H 0.92491 0.02987 0.78017 0.0
H1553 H 0.87743 0.00994 0.77011 0.0
H1554 H 0.9587 0.97382 0.74864 0.0
C1555 C 0.06445 0.01924 0.76542 0.0
C1556 C 0.06869 0.03581 0.76808 0.0
C1557 C 0.03805 0.04553 0.77335 0.0
C1558 C 1.00356 0.03891 0.77611 0.0
C1559 C 1.00013 0.02256 0.77277 0.0
C1560 C 0.02963 0.01283 0.76707 0.0
C1561 C 0.01804 0.99578 0.76014 0.0
C1562 C 0.03019 0.98959 0.71311 0.0
C1563 C 0.03216 0.98527 0.799 0.0
C1564 C 0.97744 0.9975 0.76243 0.0
C1565 C 0.96785 0.01302 0.77057 0.0
C1566 C 0.93206 0.01767 0.77384 0.0
C1567 C 0.90525 1.00622 0.76809 0.0
C1568 C 0.91421 0.99027 0.75842 0.0
C1569 C 0.95091 0.98589 0.75593 0.0
H1570 H 0.4687 0.47202 0.74626 0.0
H1571 H 0.39709 0.50415 0.81807 0.0
H1572 H 0.44719 0.52261 0.83 0.0
H1573 H 0.5488 0.4802 0.81891 0.0
H1574 H 0.57938 0.47885 0.77123 0.0
H1575 H 0.53852 0.46737 0.77138 0.0
H1576 H 0.52045 0.47953 0.69344 0.0
H1577 H 0.56114 0.49105 0.69308 0.0
H1578 H 0.51816 0.50071 0.68777 0.0
H1579 H 0.50215 0.53923 0.82508 0.0
H1580 H 0.56069 0.55198 0.80875 0.0
H1581 H 0.59872 0.50868 0.7461 0.0
C1582 C 0.46371 0.48281 0.76514 0.0
C1583 C 0.42881 0.4866 0.78103 0.0
C1584 C 0.42347 0.50091 0.80548 0.0
C1585 C 0.45181 0.51151 0.81255 0.0
C1586 C 0.48562 0.50759 0.79572 0.0
C1587 C 0.49193 0.4935 0.77313 0.0
C1588 C 0.53067 0.49251 0.75713 0.0
C1589 C 0.55051 0.47892 0.78111 0.0
C1590 C 0.5327 0.49086 0.70476 0.0
C1591 C 0.54468 0.50844 0.77296 0.0
C1592 C 0.51818 0.51695 0.79512 0.0
C1593 C 0.52346 0.53257 0.80887 0.0
C1594 C 0.55665 0.53972 0.79942 0.0
C1595 C 0.58423 0.53117 0.77722 0.0
C1596 C 0.57835 0.51527 0.76448 0.0
H1597 H 0.43996 0.98875 0.20119 0.0
H1598 H 0.42283 0.98365 0.34702 0.0
H1599 H 0.47589 1.0006 0.36228 0.0
H1600 H 0.53729 0.98991 0.20193 0.0
H1601 H 0.5399 1.00489 0.15832 0.0
H1602 H 0.50234 0.99145 0.1594 0.0
H1603 H 0.45849 0.01522 0.16192 0.0
H1604 H 0.49593 0.02873 0.16139 0.0
H1605 H 0.46307 0.02978 0.20662 0.0
H1606 H 0.53234 0.01719 0.36108 0.0
H1607 H 0.58538 0.0339 0.34358 0.0
H1608 H 0.56083 0.03076 0.19893 0.0
C1609 C 0.44786 0.99103 0.23626 0.0
C1610 C 0.42801 0.98474 0.27305 0.0
C1611 C 0.43816 0.9883 0.31854 0.0
C1612 C 0.46813 0.99789 0.32746 0.0
C1613 C 0.48698 1.00411 0.29042 0.0
C1614 C 0.47702 1.00097 0.24572 0.0
C1615 C 0.50049 0.00985 0.21216 0.0
C1616 C 0.52124 0.99833 0.18114 0.0
C1617 C 0.47815 0.02159 0.18386 0.0
C1618 C 0.52544 0.01835 0.2449 0.0
C1619 C 0.51754 0.01472 0.28988 0.0
C1620 C 0.53841 0.02034 0.32606 0.0
C1621 C 0.56833 0.02982 0.3159 0.0
C1622 C 0.57638 0.03387 0.27013 0.0
C1623 C 0.55445 0.0282 0.23431 0.0
loop_
_geom_bond_atom_site_label_1
_geom_bond_atom_site_label_2
_geom_bond_distance
_geom_bond_site_symmetry_2
_ccdc_geom_bond_type
Co0 O3 1.970 . S
Co0 N17 1.989 . S
Co0 O25 1.967 . S
Co0 O32 1.920 . S
Co1 O4 1.966 . S
Co1 N10 2.022 . S
Co1 N18 1.993 . S
Co1 O26 1.941 1_554 S
C2 O3 1.258 . S
C2 O4 1.263 1_556 S
O3 Co0 1.970 . S
O3 C2 1.258 . S
O4 Co1 1.966 . S
O4 C2 1.263 1_554 S
C5 O6 1.235 . S
C5 O32 1.289 . S
O6 C5 1.235 . S
C7 C9 1.400 . S
C7 N10 1.351 . S
C7 C12 1.501 . S
C8 C9 1.387 1_655 S
C8 N11 1.341 . S
C9 C7 1.400 . S
C9 C8 1.387 1_455 S
N10 Co1 2.022 . S
N10 C7 1.351 . S
N10 N11 1.365 1_455 S
N11 C8 1.341 . S
N11 N10 1.365 1_655 S
N11 H31 0.862 . S
C12 C7 1.501 . S
C12 H13 0.961 . S
C12 H14 0.961 . S
C12 H15 0.960 . S
H13 C12 0.961 . S
H14 C12 0.961 . S
H15 C12 0.960 . S
C16 N17 1.342 1_554 S
C16 C20 1.401 . S
C16 C21 1.499 1_554 S
N17 Co0 1.989 . S
N17 C16 1.342 1_556 S
N17 N18 1.388 1_556 S
N18 Co1 1.993 . S
N18 N17 1.388 1_554 S
N18 C19 1.346 . S
C19 N18 1.346 . S
C19 C20 1.396 . S
C19 C29 1.510 . S
C20 C16 1.401 . S
C20 C19 1.396 . S
C21 C16 1.499 1_556 S
C21 H22 0.959 . S
C21 H23 0.969 . S
C21 H24 0.961 . S
H22 C21 0.959 . S
H23 C21 0.969 . S
H24 C21 0.961 . S
O25 Co0 1.967 . S
O25 C33 1.258 . S
O26 Co1 1.941 1_556 S
O26 C33 1.266 . S
H27 C29 0.959 1_655 S
H28 C29 0.961 . S
C29 C19 1.510 . S
C29 H27 0.959 1_455 S
C29 H28 0.961 . S
C29 H30 0.960 . S
H30 C29 0.960 . S
H31 N11 0.862 . S
O32 Co0 1.920 . S
O32 C5 1.289 . S
C33 O25 1.258 . S
C33 O26 1.266 . S
Co34 O37 1.970 . S
Co34 N51 1.989 . S
Co34 O59 1.967 . S
Co34 O66 1.920 . S
Co35 O38 1.966 . S
Co35 N44 2.022 . S
Co35 N52 1.993 . S
Co35 O60 1.941 1_554 S
C36 O37 1.258 . S
C36 O38 1.263 1_556 S
O37 Co34 1.970 . S
O37 C36 1.258 . S
O38 Co35 1.966 . S
O38 C36 1.263 1_554 S
C39 O40 1.235 . S
C39 O66 1.289 . S
O40 C39 1.235 . S
C41 C43 1.400 . S
C41 N44 1.351 . S
C41 C46 1.501 . S
C42 C43 1.387 1_455 S
C42 N45 1.341 . S
C43 C41 1.400 . S
C43 C42 1.387 1_655 S
N44 Co35 2.022 . S
N44 C41 1.351 . S
N44 N45 1.365 1_655 S
N45 C42 1.341 . S
N45 N44 1.365 1_455 S
N45 H65 0.862 . S
C46 C41 1.501 . S
C46 H47 0.961 . S
C46 H48 0.961 . S
C46 H49 0.960 . S
H47 C46 0.961 . S
H48 C46 0.961 . S
H49 C46 0.960 . S
C50 N51 1.342 1_554 S
C50 C54 1.401 . S
C50 C55 1.499 1_554 S
N51 Co34 1.989 . S
N51 C50 1.342 1_556 S
N51 N52 1.388 1_556 S
N52 Co35 1.993 . S
N52 N51 1.388 1_554 S
N52 C53 1.346 . S
C53 N52 1.346 . S
C53 C54 1.396 . S
C53 C63 1.510 . S
C54 C50 1.401 . S
C54 C53 1.396 . S
C55 C50 1.499 1_556 S
C55 H56 0.959 . S
C55 H57 0.969 . S
C55 H58 0.961 . S
H56 C55 0.959 . S
H57 C55 0.969 . S
H58 C55 0.961 . S
O59 Co34 1.967 . S
O59 C67 1.258 . S
O60 Co35 1.941 1_556 S
O60 C67 1.266 . S
H61 C63 0.959 1_455 S
H62 C63 0.961 . S
C63 C53 1.510 . S
C63 H61 0.959 1_655 S
C63 H62 0.961 . S
C63 H64 0.960 . S
H64 C63 0.960 . S
H65 N45 0.862 . S
O66 Co34 1.920 . S
O66 C39 1.289 . S
C67 O59 1.258 . S
C67 O60 1.266 . S
Co68 O71 1.970 . S
Co68 N85 1.989 . S
Co68 O93 1.967 . S
Co68 O100 1.920 . S
Co69 O72 1.966 . S
Co69 N78 2.022 . S
Co69 N86 1.993 . S
Co69 O94 1.941 . S
C70 O71 1.258 . S
C70 O72 1.263 . S
O71 Co68 1.970 . S
O71 C70 1.258 . S
O72 Co69 1.966 . S
O72 C70 1.263 . S
C73 O74 1.235 . S
C73 O100 1.289 . S
O74 C73 1.235 . S
C75 C77 1.400 . S
C75 N78 1.351 . S
C75 C80 1.501 . S
C76 C77 1.387 . S
C76 N79 1.341 . S
C77 C75 1.400 . S
C77 C76 1.387 . S
N78 Co69 2.022 . S
N78 C75 1.351 . S
N78 N79 1.365 . S
N79 C76 1.341 . S
N79 N78 1.365 . S
N79 H99 0.862 . S
C80 C75 1.501 . S
C80 H81 0.961 . S
C80 H82 0.961 . S
C80 H83 0.960 . S
H81 C80 0.961 . S
H82 C80 0.961 . S
H83 C80 0.960 . S
C84 N85 1.342 . S
C84 C88 1.401 . S
C84 C89 1.499 . S
N85 Co68 1.989 . S
N85 C84 1.342 . S
N85 N86 1.388 . S
N86 Co69 1.993 . S
N86 N85 1.388 . S
N86 C87 1.346 . S
C87 N86 1.346 . S
C87 C88 1.396 . S
C87 C97 1.510 . S
C88 C84 1.401 . S
C88 C87 1.396 . S
C89 C84 1.499 . S
C89 H90 0.959 . S
C89 H91 0.960 . S
C89 H92 0.961 . S
H90 C89 0.959 . S
H91 C89 0.960 . S
H92 C89 0.961 . S
O93 Co68 1.967 . S
O93 C101 1.258 . S
O94 Co69 1.941 . S
O94 C101 1.266 . S
H95 C97 0.959 . S
H96 C97 0.961 . S
C97 C87 1.510 . S
C97 H95 0.959 . S
C97 H96 0.961 . S
C97 H98 0.960 . S
H98 C97 0.960 . S
H99 N79 0.862 . S
O100 Co68 1.920 . S
O100 C73 1.289 . S
C101 O93 1.258 . S
C101 O94 1.266 . S
Co102 O105 1.970 . S
Co102 N119 1.989 . S
Co102 O127 1.967 . S
Co102 O134 1.920 . S
Co103 O106 1.966 . S
Co103 N112 2.022 . S
Co103 N120 1.993 . S
Co103 O128 1.941 . S
C104 O105 1.258 . S
C104 O106 1.263 . S
O105 Co102 1.970 . S
O105 C104 1.258 . S
O106 Co103 1.966 . S
O106 C104 1.263 . S
C107 O108 1.235 . S
C107 O134 1.289 . S
O108 C107 1.235 . S
C109 C111 1.400 . S
C109 N112 1.351 . S
C109 C114 1.501 . S
C110 C111 1.387 . S
C110 N113 1.341 . S
C111 C109 1.400 . S
C111 C110 1.387 . S
N112 Co103 2.022 . S
N112 C109 1.351 . S
N112 N113 1.365 . S
N113 C110 1.341 . S
N113 N112 1.365 . S
N113 H133 0.862 . S
C114 C109 1.501 . S
C114 H115 0.961 . S
C114 H116 0.961 . S
C114 H117 0.960 . S
H115 C114 0.961 . S
H116 C114 0.961 . S
H117 C114 0.960 . S
C118 N119 1.342 . S
C118 C122 1.401 . S
C118 C123 1.499 . S
N119 Co102 1.989 . S
N119 C118 1.342 . S
N119 N120 1.388 . S
N120 Co103 1.993 . S
N120 N119 1.388 . S
N120 C121 1.346 . S
C121 N120 1.346 . S
C121 C122 1.396 . S
C121 C131 1.510 . S
C122 C118 1.401 . S
C122 C121 1.396 . S
C123 C118 1.499 . S
C123 H124 0.959 . S
C123 H125 0.960 . S
C123 H126 0.961 . S
H124 C123 0.959 . S
H125 C123 0.960 . S
H126 C123 0.961 . S
O127 Co102 1.967 . S
O127 C135 1.258 . S
O128 Co103 1.941 . S
O128 C135 1.266 . S
H129 C131 0.959 . S
H130 C131 0.961 . S
C131 C121 1.510 . S
C131 H129 0.959 . S
C131 H130 0.961 . S
C131 H132 0.960 . S
H132 C131 0.960 . S
H133 N113 0.862 . S
O134 Co102 1.920 . S
O134 C107 1.289 . S
C135 O127 1.258 . S
C135 O128 1.266 . S
Co136 O139 1.970 . S
Co136 N153 1.989 . S
Co136 O161 1.967 . S
Co136 O168 1.920 . S
Co137 O140 1.966 . S
Co137 N146 2.022 . S
Co137 N154 1.993 . S
Co137 O162 1.941 . S
C138 O139 1.258 . S
C138 O140 1.263 . S
O139 Co136 1.970 . S
O139 C138 1.258 . S
O140 Co137 1.966 . S
O140 C138 1.263 . S
C141 O142 1.235 . S
C141 O168 1.289 . S
O142 C141 1.235 . S
C143 C145 1.400 . S
C143 N146 1.351 . S
C143 C148 1.501 . S
C144 C145 1.387 1_655 S
C144 N147 1.341 . S
C145 C143 1.400 . S
C145 C144 1.387 1_455 S
N146 Co137 2.022 . S
N146 C143 1.351 . S
N146 N147 1.365 1_455 S
N147 C144 1.341 . S
N147 N146 1.365 1_655 S
N147 H167 0.862 . S
C148 C143 1.501 . S
C148 H149 0.961 . S
C148 H150 0.961 . S
C148 H151 0.960 . S
H149 C148 0.961 . S
H150 C148 0.961 . S
H151 C148 0.960 . S
C152 N153 1.342 . S
C152 C156 1.401 . S
C152 C157 1.499 . S
N153 Co136 1.989 . S
N153 C152 1.342 . S
N153 N154 1.388 . S
N154 Co137 1.993 . S
N154 N153 1.388 . S
N154 C155 1.346 . S
C155 N154 1.346 . S
C155 C156 1.396 . S
C155 C165 1.510 . S
C156 C152 1.401 . S
C156 C155 1.396 . S
C157 C152 1.499 . S
C157 H158 0.959 . S
C157 H159 0.960 . S
C157 H160 0.961 . S
H158 C157 0.959 . S
H159 C157 0.960 . S
H160 C157 0.961 . S
O161 Co136 1.967 . S
O161 C169 1.258 . S
O162 Co137 1.941 . S
O162 C169 1.266 . S
H163 C165 0.959 1_655 S
H164 C165 0.961 . S
C165 C155 1.510 . S
C165 H163 0.959 1_455 S
C165 H164 0.961 . S
C165 H166 0.960 . S
H166 C165 0.960 . S
H167 N147 0.862 . S
O168 Co136 1.920 . S
O168 C141 1.289 . S
C169 O161 1.258 . S
C169 O162 1.266 . S
Co170 O173 1.970 . S
Co170 N187 1.989 . S
Co170 O195 1.967 . S
Co170 O202 1.920 . S
Co171 O174 1.966 . S
Co171 N180 2.022 . S
Co171 N188 1.993 . S
Co171 O196 1.941 . S
C172 O173 1.258 . S
C172 O174 1.263 . S
O173 Co170 1.970 . S
O173 C172 1.258 . S
O174 Co171 1.966 . S
O174 C172 1.263 . S
C175 O176 1.235 . S
C175 O202 1.289 . S
O176 C175 1.235 . S
C177 C179 1.400 . S
C177 N180 1.351 . S
C177 C182 1.501 . S
C178 C179 1.387 1_455 S
C178 N181 1.341 . S
C179 C177 1.400 . S
C179 C178 1.387 1_655 S
N180 Co171 2.022 . S
N180 C177 1.351 . S
N180 N181 1.365 1_655 S
N181 C178 1.341 . S
N181 N180 1.365 1_455 S
N181 H201 0.862 . S
C182 C177 1.501 . S
C182 H183 0.961 . S
C182 H184 0.961 . S
C182 H185 0.960 . S
H183 C182 0.961 . S
H184 C182 0.961 . S
H185 C182 0.960 . S
C186 N187 1.342 . S
C186 C190 1.401 . S
C186 C191 1.499 . S
N187 Co170 1.989 . S
N187 C186 1.342 . S
N187 N188 1.388 . S
N188 Co171 1.993 . S
N188 N187 1.388 . S
N188 C189 1.346 . S
C189 N188 1.346 . S
C189 C190 1.396 . S
C189 C199 1.510 . S
C190 C186 1.401 . S
C190 C189 1.396 . S
C191 C186 1.499 . S
C191 H192 0.959 . S
C191 H193 0.960 . S
C191 H194 0.961 . S
H192 C191 0.959 . S
H193 C191 0.960 . S
H194 C191 0.961 . S
O195 Co170 1.967 . S
O195 C203 1.258 . S
O196 Co171 1.941 . S
O196 C203 1.266 . S
H197 C199 0.959 1_455 S
H198 C199 0.961 . S
C199 C189 1.510 . S
C199 H197 0.959 1_655 S
C199 H198 0.961 . S
C199 H200 0.960 . S
H200 C199 0.960 . S
H201 N181 0.862 . S
O202 Co170 1.920 . S
O202 C175 1.289 . S
C203 O195 1.258 . S
C203 O196 1.266 . S
Co204 O207 1.970 . S
Co204 N221 1.989 . S
Co204 O229 1.967 . S
Co204 O236 1.920 . S
Co205 O208 1.966 . S
Co205 N214 2.022 . S
Co205 N222 1.993 . S
Co205 O230 1.941 . S
C206 O207 1.258 . S
C206 O208 1.263 . S
O207 Co204 1.970 . S
O207 C206 1.258 . S
O208 Co205 1.966 . S
O208 C206 1.263 . S
C209 O210 1.235 . S
C209 O236 1.289 . S
O210 C209 1.235 . S
C211 C213 1.400 . S
C211 N214 1.351 . S
C211 C216 1.501 . S
C212 C213 1.387 . S
C212 N215 1.341 . S
C213 C211 1.400 . S
C213 C212 1.387 . S
N214 Co205 2.022 . S
N214 C211 1.351 . S
N214 N215 1.365 . S
N215 C212 1.341 . S
N215 N214 1.365 . S
N215 H235 0.862 . S
C216 C211 1.501 . S
C216 H217 0.961 . S
C216 H218 0.961 . S
C216 H219 0.960 . S
H217 C216 0.961 . S
H218 C216 0.961 . S
H219 C216 0.960 . S
C220 N221 1.342 . S
C220 C224 1.401 . S
C220 C225 1.499 . S
N221 Co204 1.989 . S
N221 C220 1.342 . S
N221 N222 1.388 . S
N222 Co205 1.993 . S
N222 N221 1.388 . S
N222 C223 1.346 . S
C223 N222 1.346 . S
C223 C224 1.396 . S
C223 C233 1.510 . S
C224 C220 1.401 . S
C224 C223 1.396 . S
C225 C220 1.499 . S
C225 H226 0.959 . S
C225 H227 0.960 . S
C225 H228 0.961 . S
H226 C225 0.959 . S
H227 C225 0.960 . S
H228 C225 0.961 . S
O229 Co204 1.967 . S
O229 C237 1.258 . S
O230 Co205 1.941 . S
O230 C237 1.266 . S
H231 C233 0.959 . S
H232 C233 0.961 . S
C233 C223 1.510 . S
C233 H231 0.959 . S
C233 H232 0.961 . S
C233 H234 0.960 . S
H234 C233 0.960 . S
H235 N215 0.862 . S
O236 Co204 1.920 . S
O236 C209 1.289 . S
C237 O229 1.258 . S
C237 O230 1.266 . S
Co238 O241 1.970 . S
Co238 N255 1.989 . S
Co238 O263 1.967 . S
Co238 O270 1.920 . S
Co239 O242 1.966 . S
Co239 N248 2.022 . S
Co239 N256 1.993 . S
Co239 O264 1.941 . S
C240 O241 1.258 . S
C240 O242 1.263 . S
O241 Co238 1.970 . S
O241 C240 1.258 . S
O242 Co239 1.966 . S
O242 C240 1.263 . S
C243 O244 1.235 . S
C243 O270 1.289 . S
O244 C243 1.235 . S
C245 C247 1.400 . S
C245 N248 1.351 . S
C245 C250 1.501 . S
C246 C247 1.387 . S
C246 N249 1.341 . S
C247 C245 1.400 . S
C247 C246 1.387 . S
N248 Co239 2.022 . S
N248 C245 1.351 . S
N248 N249 1.365 . S
N249 C246 1.341 . S
N249 N248 1.365 . S
N249 H269 0.862 . S
C250 C245 1.501 . S
C250 H251 0.961 . S
C250 H252 0.961 . S
C250 H253 0.960 . S
H251 C250 0.961 . S
H252 C250 0.961 . S
H253 C250 0.960 . S
C254 N255 1.342 . S
C254 C258 1.401 . S
C254 C259 1.499 . S
N255 Co238 1.989 . S
N255 C254 1.342 . S
N255 N256 1.388 . S
N256 Co239 1.993 . S
N256 N255 1.388 . S
N256 C257 1.346 . S
C257 N256 1.346 . S
C257 C258 1.396 . S
C257 C267 1.510 . S
C258 C254 1.401 . S
C258 C257 1.396 . S
C259 C254 1.499 . S
C259 H260 0.959 . S
C259 H261 0.960 . S
C259 H262 0.961 . S
H260 C259 0.959 . S
H261 C259 0.960 . S
H262 C259 0.961 . S
O263 Co238 1.967 . S
O263 C271 1.258 . S
O264 Co239 1.941 . S
O264 C271 1.266 . S
H265 C267 0.959 . S
H266 C267 0.961 . S
C267 C257 1.510 . S
C267 H265 0.959 . S
C267 H266 0.961 . S
C267 H268 0.960 . S
H268 C267 0.960 . S
H269 N249 0.862 . S
O270 Co238 1.920 . S
O270 C243 1.289 . S
C271 O263 1.258 . S
C271 O264 1.266 . S
Co272 O275 1.970 . S
Co272 N289 1.989 . S
Co272 O297 1.967 . S
Co272 O304 1.920 . S
Co273 O276 1.966 . S
Co273 N282 2.022 . S
Co273 N290 1.993 . S
Co273 O298 1.941 . S
C274 O275 1.258 . S
C274 O276 1.263 . S
O275 Co272 1.970 . S
O275 C274 1.258 . S
O276 Co273 1.966 . S
O276 C274 1.263 . S
C277 O278 1.235 . S
C277 O304 1.289 . S
O278 C277 1.235 . S
C279 C281 1.400 . S
C279 N282 1.351 . S
C279 C284 1.501 . S
C280 C281 1.387 . S
C280 N283 1.341 . S
C281 C279 1.400 . S
C281 C280 1.387 . S
N282 Co273 2.022 . S
N282 C279 1.351 . S
N282 N283 1.365 . S
N283 C280 1.341 . S
N283 N282 1.365 . S
N283 H303 0.862 . S
C284 C279 1.501 . S
C284 H285 0.961 . S
C284 H286 0.961 . S
C284 H287 0.960 . S
H285 C284 0.961 . S
H286 C284 0.961 . S
H287 C284 0.960 . S
C288 N289 1.342 . S
C288 C292 1.401 . S
C288 C293 1.499 . S
N289 Co272 1.989 . S
N289 C288 1.342 . S
N289 N290 1.388 . S
N290 Co273 1.993 . S
N290 N289 1.388 . S
N290 C291 1.346 . S
C291 N290 1.346 . S
C291 C292 1.396 . S
C291 C301 1.510 . S
C292 C288 1.401 . S
C292 C291 1.396 . S
C293 C288 1.499 . S
C293 H294 0.959 . S
C293 H295 0.960 . S
C293 H296 0.961 . S
H294 C293 0.959 . S
H295 C293 0.960 . S
H296 C293 0.961 . S
O297 Co272 1.967 . S
O297 C305 1.258 . S
O298 Co273 1.941 . S
O298 C305 1.266 . S
H299 C301 0.959 . S
H300 C301 0.961 . S
C301 C291 1.510 . S
C301 H299 0.959 . S
C301 H300 0.961 . S
C301 H302 0.960 . S
H302 C301 0.960 . S
H303 N283 0.862 . S
O304 Co272 1.920 . S
O304 C277 1.289 . S
C305 O297 1.258 . S
C305 O298 1.266 . S
Co306 O309 1.970 . S
Co306 N323 1.989 . S
Co306 O331 1.967 . S
Co306 O338 1.920 . S
Co307 O310 1.966 . S
Co307 N316 2.022 . S
Co307 N324 1.993 . S
Co307 O332 1.941 . S
C308 O309 1.258 . S
C308 O310 1.263 . S
O309 Co306 1.970 . S
O309 C308 1.258 . S
O310 Co307 1.966 . S
O310 C308 1.263 . S
C311 O312 1.235 . S
C311 O338 1.289 . S
O312 C311 1.235 . S
C313 C315 1.400 . S
C313 N316 1.351 . S
C313 C318 1.501 . S
C314 C315 1.387 . S
C314 N317 1.341 . S
C315 C313 1.400 . S
C315 C314 1.387 . S
N316 Co307 2.022 . S
N316 C313 1.351 . S
N316 N317 1.365 . S
N317 C314 1.341 . S
N317 N316 1.365 . S
N317 H337 0.862 . S
C318 C313 1.501 . S
C318 H319 0.961 . S
C318 H320 0.961 . S
C318 H321 0.960 . S
H319 C318 0.961 . S
H320 C318 0.961 . S
H321 C318 0.960 . S
C322 N323 1.342 . S
C322 C326 1.401 . S
C322 C327 1.499 . S
N323 Co306 1.989 . S
N323 C322 1.342 . S
N323 N324 1.388 . S
N324 Co307 1.993 . S
N324 N323 1.388 . S
N324 C325 1.346 . S
C325 N324 1.346 . S
C325 C326 1.396 . S
C325 C335 1.510 . S
C326 C322 1.401 . S
C326 C325 1.396 . S
C327 C322 1.499 . S
C327 H328 0.959 . S
C327 H329 0.960 . S
C327 H330 0.961 . S
H328 C327 0.959 . S
H329 C327 0.960 . S
H330 C327 0.961 . S
O331 Co306 1.967 . S
O331 C339 1.258 . S
O332 Co307 1.941 . S
O332 C339 1.266 . S
H333 C335 0.959 . S
H334 C335 0.961 . S
C335 C325 1.510 . S
C335 H333 0.959 . S
C335 H334 0.961 . S
C335 H336 0.960 . S
H336 C335 0.960 . S
H337 N317 0.862 . S
O338 Co306 1.920 . S
O338 C311 1.289 . S
C339 O331 1.258 . S
C339 O332 1.266 . S
Co340 O343 1.970 . S
Co340 N357 1.989 . S
Co340 O365 1.967 . S
Co340 O372 1.920 . S
Co341 O344 1.966 . S
Co341 N350 2.022 . S
Co341 N358 1.993 . S
Co341 O366 1.941 . S
C342 O343 1.258 . S
C342 O344 1.263 . S
O343 Co340 1.970 . S
O343 C342 1.258 . S
O344 Co341 1.966 . S
O344 C342 1.263 . S
C345 O346 1.235 . S
C345 O372 1.289 . S
O346 C345 1.235 . S
C347 C349 1.400 . S
C347 N350 1.351 . S
C347 C352 1.501 . S
C348 C349 1.387 . S
C348 N351 1.341 . S
C349 C347 1.400 . S
C349 C348 1.387 . S
N350 Co341 2.022 . S
N350 C347 1.351 . S
N350 N351 1.365 . S
N351 C348 1.341 . S
N351 N350 1.365 . S
N351 H371 0.862 . S
C352 C347 1.501 . S
C352 H353 0.961 . S
C352 H354 0.961 . S
C352 H355 0.960 . S
H353 C352 0.961 . S
H354 C352 0.961 . S
H355 C352 0.960 . S
C356 N357 1.342 . S
C356 C360 1.401 . S
C356 C361 1.499 . S
N357 Co340 1.989 . S
N357 C356 1.342 . S
N357 N358 1.388 . S
N358 Co341 1.993 . S
N358 N357 1.388 . S
N358 C359 1.346 . S
C359 N358 1.346 . S
C359 C360 1.396 . S
C359 C369 1.510 . S
C360 C356 1.401 . S
C360 C359 1.396 . S
C361 C356 1.499 . S
C361 H362 0.959 . S
C361 H363 0.960 . S
C361 H364 0.961 . S
H362 C361 0.959 . S
H363 C361 0.960 . S
H364 C361 0.961 . S
O365 Co340 1.967 . S
O365 C373 1.258 . S
O366 Co341 1.941 . S
O366 C373 1.266 . S
H367 C369 0.959 . S
H368 C369 0.961 . S
C369 C359 1.510 . S
C369 H367 0.959 . S
C369 H368 0.961 . S
C369 H370 0.960 . S
H370 C369 0.960 . S
H371 N351 0.862 . S
O372 Co340 1.920 . S
O372 C345 1.289 . S
C373 O365 1.258 . S
C373 O366 1.266 . S
Co374 O377 1.970 . S
Co374 N391 1.989 . S
Co374 O399 1.967 . S
Co374 O406 1.920 . S
Co375 O378 1.966 . S
Co375 N384 2.022 . S
Co375 N392 1.993 . S
Co375 O400 1.941 . S
C376 O377 1.258 . S
C376 O378 1.263 . S
O377 Co374 1.970 . S
O377 C376 1.258 . S
O378 Co375 1.966 . S
O378 C376 1.263 . S
C379 O380 1.235 . S
C379 O406 1.289 . S
O380 C379 1.235 . S
C381 C383 1.400 . S
C381 N384 1.351 . S
C381 C386 1.501 . S
C382 C383 1.387 . S
C382 N385 1.341 . S
C383 C381 1.400 . S
C383 C382 1.387 . S
N384 Co375 2.022 . S
N384 C381 1.351 . S
N384 N385 1.365 . S
N385 C382 1.341 . S
N385 N384 1.365 . S
N385 H405 0.862 . S
C386 C381 1.501 . S
C386 H387 0.961 . S
C386 H388 0.961 . S
C386 H389 0.960 . S
H387 C386 0.961 . S
H388 C386 0.961 . S
H389 C386 0.960 . S
C390 N391 1.342 . S
C390 C394 1.401 . S
C390 C395 1.499 . S
N391 Co374 1.989 . S
N391 C390 1.342 . S
N391 N392 1.388 . S
N392 Co375 1.993 . S
N392 N391 1.388 . S
N392 C393 1.346 . S
C393 N392 1.346 . S
C393 C394 1.396 . S
C393 C403 1.510 . S
C394 C390 1.401 . S
C394 C393 1.396 . S
C395 C390 1.499 . S
C395 H396 0.959 . S
C395 H397 0.960 . S
C395 H398 0.961 . S
H396 C395 0.959 . S
H397 C395 0.960 . S
H398 C395 0.961 . S
O399 Co374 1.967 . S
O399 C407 1.258 . S
O400 Co375 1.941 . S
O400 C407 1.266 . S
H401 C403 0.959 . S
H402 C403 0.961 . S
C403 C393 1.510 . S
C403 H401 0.959 . S
C403 H402 0.961 . S
C403 H404 0.960 . S
H404 C403 0.960 . S
H405 N385 0.862 . S
O406 Co374 1.920 . S
O406 C379 1.289 . S
C407 O399 1.258 . S
C407 O400 1.266 . S
Co408 O411 1.970 . S
Co408 N425 1.989 . S
Co408 O433 1.967 . S
Co408 O440 1.920 . S
Co409 O412 1.966 . S
Co409 N418 2.022 . S
Co409 N426 1.993 . S
Co409 O434 1.941 1_554 S
C410 O411 1.258 . S
C410 O412 1.263 1_556 S
O411 Co408 1.970 . S
O411 C410 1.258 . S
O412 Co409 1.966 . S
O412 C410 1.263 1_554 S
C413 O414 1.235 . S
C413 O440 1.289 . S
O414 C413 1.235 . S
C415 C417 1.400 . S
C415 N418 1.351 . S
C415 C420 1.501 . S
C416 C417 1.387 . S
C416 N419 1.341 . S
C417 C415 1.400 . S
C417 C416 1.387 . S
N418 Co409 2.022 . S
N418 C415 1.351 . S
N418 N419 1.365 . S
N419 C416 1.341 . S
N419 N418 1.365 . S
N419 H439 0.862 . S
C420 C415 1.501 . S
C420 H421 0.961 . S
C420 H422 0.961 . S
C420 H423 0.960 . S
H421 C420 0.961 . S
H422 C420 0.961 . S
H423 C420 0.960 . S
C424 N425 1.342 1_554 S
C424 C428 1.401 . S
C424 C429 1.499 1_554 S
N425 Co408 1.989 . S
N425 C424 1.342 1_556 S
N425 N426 1.388 1_556 S
N426 Co409 1.993 . S
N426 N425 1.388 1_554 S
N426 C427 1.346 . S
C427 N426 1.346 . S
C427 C428 1.396 . S
C427 C437 1.510 . S
C428 C424 1.401 . S
C428 C427 1.396 . S
C429 C424 1.499 1_556 S
C429 H430 0.959 . S
C429 H431 0.969 . S
C429 H432 0.961 . S
H430 C429 0.959 . S
H431 C429 0.969 . S
H432 C429 0.961 . S
O433 Co408 1.967 . S
O433 C441 1.258 . S
O434 Co409 1.941 1_556 S
O434 C441 1.266 . S
H435 C437 0.959 . S
H436 C437 0.961 . S
C437 C427 1.510 . S
C437 H435 0.959 . S
C437 H436 0.961 . S
C437 H438 0.960 . S
H438 C437 0.960 . S
H439 N419 0.862 . S
O440 Co408 1.920 . S
O440 C413 1.289 . S
C441 O433 1.258 . S
C441 O434 1.266 . S
Co442 O445 1.970 . S
Co442 N459 1.989 . S
Co442 O467 1.967 . S
Co442 O474 1.920 . S
Co443 O446 1.966 . S
Co443 N452 2.022 . S
Co443 N460 1.993 . S
Co443 O468 1.941 1_554 S
C444 O445 1.258 . S
C444 O446 1.263 1_556 S
O445 Co442 1.970 . S
O445 C444 1.258 . S
O446 Co443 1.966 . S
O446 C444 1.263 1_554 S
C447 O448 1.235 . S
C447 O474 1.289 . S
O448 C447 1.235 . S
C449 C451 1.400 . S
C449 N452 1.351 . S
C449 C454 1.501 . S
C450 C451 1.387 . S
C450 N453 1.341 . S
C451 C449 1.400 . S
C451 C450 1.387 . S
N452 Co443 2.022 . S
N452 C449 1.351 . S
N452 N453 1.365 . S
N453 C450 1.341 . S
N453 N452 1.365 . S
N453 H473 0.862 . S
C454 C449 1.501 . S
C454 H455 0.961 . S
C454 H456 0.961 . S
C454 H457 0.960 . S
H455 C454 0.961 . S
H456 C454 0.961 . S
H457 C454 0.960 . S
C458 N459 1.342 1_554 S
C458 C462 1.401 . S
C458 C463 1.499 1_554 S
N459 Co442 1.989 . S
N459 C458 1.342 1_556 S
N459 N460 1.388 1_556 S
N460 Co443 1.993 . S
N460 N459 1.388 1_554 S
N460 C461 1.346 . S
C461 N460 1.346 . S
C461 C462 1.396 . S
C461 C471 1.510 . S
C462 C458 1.401 . S
C462 C461 1.396 . S
C463 C458 1.499 1_556 S
C463 H464 0.959 . S
C463 H465 0.969 . S
C463 H466 0.961 . S
H464 C463 0.959 . S
H465 C463 0.969 . S
H466 C463 0.961 . S
O467 Co442 1.967 . S
O467 C475 1.258 . S
O468 Co443 1.941 1_556 S
O468 C475 1.266 . S
H469 C471 0.959 . S
H470 C471 0.961 . S
C471 C461 1.510 . S
C471 H469 0.959 . S
C471 H470 0.961 . S
C471 H472 0.960 . S
H472 C471 0.960 . S
H473 N453 0.862 . S
O474 Co442 1.920 . S
O474 C447 1.289 . S
C475 O467 1.258 . S
C475 O468 1.266 . S
Co476 O479 1.970 . S
Co476 N493 1.989 . S
Co476 O501 1.967 . S
Co476 O508 1.920 . S
Co477 O480 1.966 . S
Co477 N486 2.022 . S
Co477 N494 1.993 . S
Co477 O502 1.941 . S
C478 O479 1.258 . S
C478 O480 1.263 . S
O479 Co476 1.970 . S
O479 C478 1.258 . S
O480 Co477 1.966 . S
O480 C478 1.263 . S
C481 O482 1.235 . S
C481 O508 1.289 . S
O482 C481 1.235 . S
C483 C485 1.400 . S
C483 N486 1.351 . S
C483 C488 1.501 . S
C484 C485 1.387 . S
C484 N487 1.341 . S
C485 C483 1.400 . S
C485 C484 1.387 . S
N486 Co477 2.022 . S
N486 C483 1.351 . S
N486 N487 1.365 . S
N487 C484 1.341 . S
N487 N486 1.365 . S
N487 H507 0.862 . S
C488 C483 1.501 . S
C488 H489 0.961 . S
C488 H490 0.961 . S
C488 H491 0.960 . S
H489 C488 0.961 . S
H490 C488 0.961 . S
H491 C488 0.960 . S
C492 N493 1.342 . S
C492 C496 1.401 . S
C492 C497 1.499 . S
N493 Co476 1.989 . S
N493 C492 1.342 . S
N493 N494 1.388 . S
N494 Co477 1.993 . S
N494 N493 1.388 . S
N494 C495 1.346 . S
C495 N494 1.346 . S
C495 C496 1.396 . S
C495 C505 1.510 . S
C496 C492 1.401 . S
C496 C495 1.396 . S
C497 C492 1.499 . S
C497 H498 0.959 . S
C497 H499 0.960 . S
C497 H500 0.961 . S
H498 C497 0.959 . S
H499 C497 0.960 . S
H500 C497 0.961 . S
O501 Co476 1.967 . S
O501 C509 1.258 . S
O502 Co477 1.941 . S
O502 C509 1.266 . S
H503 C505 0.959 . S
H504 C505 0.961 . S
C505 C495 1.510 . S
C505 H503 0.959 . S
C505 H504 0.961 . S
C505 H506 0.960 . S
H506 C505 0.960 . S
H507 N487 0.862 . S
O508 Co476 1.920 . S
O508 C481 1.289 . S
C509 O501 1.258 . S
C509 O502 1.266 . S
Co510 O513 1.970 . S
Co510 N527 1.989 . S
Co510 O535 1.967 . S
Co510 O542 1.920 . S
Co511 O514 1.966 . S
Co511 N520 2.022 . S
Co511 N528 1.993 . S
Co511 O536 1.941 . S
C512 O513 1.258 . S
C512 O514 1.263 . S
O513 Co510 1.970 . S
O513 C512 1.258 . S
O514 Co511 1.966 . S
O514 C512 1.263 . S
C515 O516 1.235 . S
C515 O542 1.289 . S
O516 C515 1.235 . S
C517 C519 1.400 . S
C517 N520 1.351 . S
C517 C522 1.501 . S
C518 C519 1.387 . S
C518 N521 1.341 . S
C519 C517 1.400 . S
C519 C518 1.387 . S
N520 Co511 2.022 . S
N520 C517 1.351 . S
N520 N521 1.365 . S
N521 C518 1.341 . S
N521 N520 1.365 . S
N521 H541 0.862 . S
C522 C517 1.501 . S
C522 H523 0.961 . S
C522 H524 0.961 . S
C522 H525 0.960 . S
H523 C522 0.961 . S
H524 C522 0.961 . S
H525 C522 0.960 . S
C526 N527 1.342 . S
C526 C530 1.401 . S
C526 C531 1.499 . S
N527 Co510 1.989 . S
N527 C526 1.342 . S
N527 N528 1.388 . S
N528 Co511 1.993 . S
N528 N527 1.388 . S
N528 C529 1.346 . S
C529 N528 1.346 . S
C529 C530 1.396 . S
C529 C539 1.510 . S
C530 C526 1.401 . S
C530 C529 1.396 . S
C531 C526 1.499 . S
C531 H532 0.959 . S
C531 H533 0.960 . S
C531 H534 0.961 . S
H532 C531 0.959 . S
H533 C531 0.960 . S
H534 C531 0.961 . S
O535 Co510 1.967 . S
O535 C543 1.258 . S
O536 Co511 1.941 . S
O536 C543 1.266 . S
H537 C539 0.959 . S
H538 C539 0.961 . S
C539 C529 1.510 . S
C539 H537 0.959 . S
C539 H538 0.961 . S
C539 H540 0.960 . S
H540 C539 0.960 . S
H541 N521 0.862 . S
O542 Co510 1.920 . S
O542 C515 1.289 . S
C543 O535 1.258 . S
C543 O536 1.266 . S
H544 C556 0.930 . S
H545 C558 0.930 . S
H546 C559 0.930 . S
H547 C563 0.959 . S
H548 C563 0.959 . S
H549 C563 0.961 . S
H550 C564 0.960 . S
H551 C564 0.961 . S
H552 C564 0.959 . S
H553 C567 0.929 . S
H554 C568 0.931 . S
H555 C570 0.930 . S
C556 H544 0.930 . S
C556 C557 1.399 . S
C556 C561 1.399 . S
C557 C556 1.399 . S
C557 C558 1.376 . S
C558 H545 0.930 . S
C558 C557 1.376 . S
C558 C559 1.388 . S
C559 H546 0.930 . S
C559 C558 1.388 . S
C559 C560 1.390 . S
C560 C559 1.390 . S
C560 C561 1.394 . S
C560 C566 1.465 . S
C561 C556 1.399 . S
C561 C560 1.394 . S
C561 C562 1.516 . S
C562 C561 1.516 . S
C562 C563 1.502 . S
C562 C564 1.561 . S
C562 C565 1.526 . S
C563 H547 0.959 . S
C563 H548 0.959 . S
C563 H549 0.961 . S
C563 C562 1.502 . S
C564 H550 0.960 . S
C564 H551 0.961 . S
C564 H552 0.959 . S
C564 C562 1.561 . S
C565 C562 1.526 . S
C565 C566 1.396 . S
C565 C570 1.390 . S
C566 C560 1.465 . S
C566 C565 1.396 . S
C566 C567 1.399 . S
C567 H553 0.929 . S
C567 C566 1.399 . S
C567 C568 1.385 . S
C568 H554 0.931 . S
C568 C567 1.385 . S
C568 C569 1.389 . S
C569 C568 1.389 . S
C569 C570 1.387 . S
C570 H555 0.930 . S
C570 C565 1.390 . S
C570 C569 1.387 . S
H571 C583 0.930 . S
H572 C585 0.930 . S
H573 C586 0.930 . S
H574 C590 0.959 . S
H575 C590 0.959 . S
H576 C590 0.961 . S
H577 C591 0.960 . S
H578 C591 0.961 . S
H579 C591 0.959 . S
H580 C594 0.929 . S
H581 C595 0.931 . S
H582 C597 0.930 . S
C583 H571 0.930 . S
C583 C584 1.399 . S
C583 C588 1.399 . S
C584 C583 1.399 . S
C584 C585 1.376 . S
C585 H572 0.930 . S
C585 C584 1.376 . S
C585 C586 1.388 . S
C586 H573 0.930 . S
C586 C585 1.388 . S
C586 C587 1.390 . S
C587 C586 1.390 . S
C587 C588 1.394 . S
C587 C593 1.465 . S
C588 C583 1.399 . S
C588 C587 1.394 . S
C588 C589 1.516 . S
C589 C588 1.516 . S
C589 C590 1.502 . S
C589 C591 1.561 . S
C589 C592 1.526 . S
C590 H574 0.959 . S
C590 H575 0.959 . S
C590 H576 0.961 . S
C590 C589 1.502 . S
C591 H577 0.960 . S
C591 H578 0.961 . S
C591 H579 0.959 . S
C591 C589 1.561 . S
C592 C589 1.526 . S
C592 C593 1.396 . S
C592 C597 1.390 . S
C593 C587 1.465 . S
C593 C592 1.396 . S
C593 C594 1.399 . S
C594 H580 0.929 . S
C594 C593 1.399 . S
C594 C595 1.385 . S
C595 H581 0.931 . S
C595 C594 1.385 . S
C595 C596 1.389 . S
C596 C595 1.389 . S
C596 C597 1.387 . S
C597 H582 0.930 . S
C597 C592 1.390 . S
C597 C596 1.387 . S
H598 C610 0.930 . S
H599 C612 0.930 . S
H600 C613 0.930 . S
H601 C617 0.959 1_455 S
H602 C617 0.959 . S
H603 C617 0.961 . S
H604 C618 0.960 . S
H605 C618 0.961 . S
H606 C618 0.959 . S
H607 C621 0.929 . S
H608 C622 0.931 . S
H609 C624 0.930 . S
C610 H598 0.930 . S
C610 C611 1.399 . S
C610 C615 1.399 1_655 S
C611 C610 1.399 . S
C611 C612 1.376 1_655 S
C612 H599 0.930 . S
C612 C611 1.376 1_455 S
C612 C613 1.388 . S
C613 H600 0.930 . S
C613 C612 1.388 . S
C613 C614 1.390 . S
C614 C613 1.390 . S
C614 C615 1.394 . S
C614 C620 1.465 . S
C615 C610 1.399 1_455 S
C615 C614 1.394 . S
C615 C616 1.516 . S
C616 C615 1.516 . S
C616 C617 1.502 1_455 S
C616 C618 1.561 1_455 S
C616 C619 1.526 . S
C617 H601 0.959 1_655 S
C617 H602 0.959 . S
C617 H603 0.961 . S
C617 C616 1.502 1_655 S
C618 H604 0.960 . S
C618 H605 0.961 . S
C618 H606 0.959 . S
C618 C616 1.561 1_655 S
C619 C616 1.526 . S
C619 C620 1.396 . S
C619 C624 1.390 . S
C620 C614 1.465 . S
C620 C619 1.396 . S
C620 C621 1.399 . S
C621 H607 0.929 . S
C621 C620 1.399 . S
C621 C622 1.385 . S
C622 H608 0.931 . S
C622 C621 1.385 . S
C622 C623 1.389 . S
C623 C622 1.389 . S
C623 C624 1.387 . S
C624 H609 0.930 . S
C624 C619 1.390 . S
C624 C623 1.387 . S
H625 C637 0.930 . S
H626 C639 0.930 . S
H627 C640 0.930 . S
H628 C644 0.959 . S
H629 C644 0.959 . S
H630 C644 0.961 1_556 S
H631 C645 0.960 . S
H632 C645 0.961 . S
H633 C645 0.959 . S
H634 C648 0.929 . S
H635 C649 0.931 . S
H636 C651 0.930 . S
C637 H625 0.930 . S
C637 C638 1.399 1_655 S
C637 C642 1.399 . S
C638 C637 1.399 1_455 S
C638 C639 1.376 . S
C639 H626 0.930 . S
C639 C638 1.376 . S
C639 C640 1.388 . S
C640 H627 0.930 . S
C640 C639 1.388 . S
C640 C641 1.390 1_455 S
C641 C640 1.390 1_655 S
C641 C642 1.394 . S
C641 C647 1.465 . S
C642 C637 1.399 . S
C642 C641 1.394 . S
C642 C643 1.516 . S
C643 C642 1.516 . S
C643 C644 1.502 . S
C643 C645 1.561 . S
C643 C646 1.526 . S
C644 H628 0.959 . S
C644 H629 0.959 . S
C644 H630 0.961 1_554 S
C644 C643 1.502 . S
C645 H631 0.960 . S
C645 H632 0.961 . S
C645 H633 0.959 . S
C645 C643 1.561 . S
C646 C643 1.526 . S
C646 C647 1.396 . S
C646 C651 1.390 . S
C647 C641 1.465 . S
C647 C646 1.396 . S
C647 C648 1.399 . S
C648 H634 0.929 . S
C648 C647 1.399 . S
C648 C649 1.385 . S
C649 H635 0.931 . S
C649 C648 1.385 . S
C649 C650 1.389 . S
C650 C649 1.389 . S
C650 C651 1.387 . S
C651 H636 0.930 . S
C651 C646 1.390 . S
C651 C650 1.387 . S
H652 C664 0.930 . S
H653 C666 0.930 . S
H654 C667 0.930 . S
H655 C671 0.959 . S
H656 C671 0.959 . S
H657 C671 0.961 . S
H658 C672 0.960 . S
H659 C672 0.961 . S
H660 C672 0.959 . S
H661 C675 0.929 . S
H662 C676 0.931 . S
H663 C678 0.930 . S
C664 H652 0.930 . S
C664 C665 1.399 . S
C664 C669 1.399 . S
C665 C664 1.399 . S
C665 C666 1.376 . S
C666 H653 0.930 . S
C666 C665 1.376 . S
C666 C667 1.388 . S
C667 H654 0.930 . S
C667 C666 1.388 . S
C667 C668 1.390 . S
C668 C667 1.390 . S
C668 C669 1.394 . S
C668 C674 1.465 . S
C669 C664 1.399 . S
C669 C668 1.394 . S
C669 C670 1.516 . S
C670 C669 1.516 . S
C670 C671 1.502 . S
C670 C672 1.561 . S
C670 C673 1.526 . S
C671 H655 0.959 . S
C671 H656 0.959 . S
C671 H657 0.961 . S
C671 C670 1.502 . S
C672 H658 0.960 . S
C672 H659 0.961 . S
C672 H660 0.959 . S
C672 C670 1.561 . S
C673 C670 1.526 . S
C673 C674 1.396 . S
C673 C678 1.390 . S
C674 C668 1.465 . S
C674 C673 1.396 . S
C674 C675 1.399 . S
C675 H661 0.929 . S
C675 C674 1.399 . S
C675 C676 1.385 . S
C676 H662 0.931 . S
C676 C675 1.385 . S
C676 C677 1.389 . S
C677 C676 1.389 . S
C677 C678 1.387 . S
C678 H663 0.930 . S
C678 C673 1.390 . S
C678 C677 1.387 . S
H679 C691 0.930 . S
H680 C693 0.930 . S
H681 C694 0.930 . S
H682 C698 0.959 . S
H683 C698 0.959 . S
H684 C698 0.961 . S
H685 C699 0.960 . S
H686 C699 0.961 . S
H687 C699 0.959 . S
H688 C702 0.929 . S
H689 C703 0.931 . S
H690 C705 0.930 . S
C691 H679 0.930 . S
C691 C692 1.399 . S
C691 C696 1.399 . S
C692 C691 1.399 . S
C692 C693 1.376 . S
C693 H680 0.930 . S
C693 C692 1.376 . S
C693 C694 1.388 . S
C694 H681 0.930 . S
C694 C693 1.388 . S
C694 C695 1.390 . S
C695 C694 1.390 . S
C695 C696 1.394 . S
C695 C701 1.465 . S
C696 C691 1.399 . S
C696 C695 1.394 . S
C696 C697 1.516 . S
C697 C696 1.516 . S
C697 C698 1.502 . S
C697 C699 1.561 . S
C697 C700 1.526 . S
C698 H682 0.959 . S
C698 H683 0.959 . S
C698 H684 0.961 . S
C698 C697 1.502 . S
C699 H685 0.960 . S
C699 H686 0.961 . S
C699 H687 0.959 . S
C699 C697 1.561 . S
C700 C697 1.526 . S
C700 C701 1.396 . S
C700 C705 1.390 . S
C701 C695 1.465 . S
C701 C700 1.396 . S
C701 C702 1.399 . S
C702 H688 0.929 . S
C702 C701 1.399 . S
C702 C703 1.385 . S
C703 H689 0.931 . S
C703 C702 1.385 . S
C703 C704 1.389 . S
C704 C703 1.389 . S
C704 C705 1.387 . S
C705 H690 0.930 . S
C705 C700 1.390 . S
C705 C704 1.387 . S
H706 C718 0.930 . S
H707 C720 0.930 . S
H708 C721 0.930 . S
H709 C725 0.959 . S
H710 C725 0.959 . S
H711 C725 0.961 . S
H712 C726 0.960 . S
H713 C726 0.961 . S
H714 C726 0.959 . S
H715 C729 0.929 . S
H716 C730 0.931 . S
H717 C732 0.930 . S
C718 H706 0.930 . S
C718 C719 1.399 1_455 S
C718 C723 1.399 . S
C719 C718 1.399 1_655 S
C719 C720 1.376 . S
C720 H707 0.930 . S
C720 C719 1.376 . S
C720 C721 1.388 . S
C721 H708 0.930 . S
C721 C720 1.388 . S
C721 C722 1.390 1_655 S
C722 C721 1.390 1_455 S
C722 C723 1.394 . S
C722 C728 1.465 . S
C723 C718 1.399 . S
C723 C722 1.394 . S
C723 C724 1.516 . S
C724 C723 1.516 . S
C724 C725 1.502 . S
C724 C726 1.561 . S
C724 C727 1.526 . S
C725 H709 0.959 . S
C725 H710 0.959 . S
C725 H711 0.961 . S
C725 C724 1.502 . S
C726 H712 0.960 . S
C726 H713 0.961 . S
C726 H714 0.959 . S
C726 C724 1.561 . S
C727 C724 1.526 . S
C727 C728 1.396 . S
C727 C732 1.390 . S
C728 C722 1.465 . S
C728 C727 1.396 . S
C728 C729 1.399 . S
C729 H715 0.929 . S
C729 C728 1.399 . S
C729 C730 1.385 . S
C730 H716 0.931 . S
C730 C729 1.385 . S
C730 C731 1.389 . S
C731 C730 1.389 . S
C731 C732 1.387 . S
C732 H717 0.930 . S
C732 C727 1.390 . S
C732 C731 1.387 . S
H733 C745 0.930 . S
H734 C747 0.930 . S
H735 C748 0.930 . S
H736 C752 0.959 . S
H737 C752 0.959 1_455 S
H738 C752 0.961 . S
H739 C753 0.960 . S
H740 C753 0.961 . S
H741 C753 0.959 . S
H742 C756 0.929 . S
H743 C757 0.931 . S
H744 C759 0.930 . S
C745 H733 0.930 . S
C745 C746 1.399 . S
C745 C750 1.399 . S
C746 C745 1.399 . S
C746 C747 1.376 . S
C747 H734 0.930 . S
C747 C746 1.376 . S
C747 C748 1.388 . S
C748 H735 0.930 . S
C748 C747 1.388 . S
C748 C749 1.390 . S
C749 C748 1.390 . S
C749 C750 1.394 . S
C749 C755 1.465 . S
C750 C745 1.399 . S
C750 C749 1.394 . S
C750 C751 1.516 . S
C751 C750 1.516 . S
C751 C752 1.502 . S
C751 C753 1.561 1_655 S
C751 C754 1.526 . S
C752 H736 0.959 . S
C752 H737 0.959 1_655 S
C752 H738 0.961 . S
C752 C751 1.502 . S
C753 H739 0.960 . S
C753 H740 0.961 . S
C753 H741 0.959 . S
C753 C751 1.561 1_455 S
C754 C751 1.526 . S
C754 C755 1.396 . S
C754 C759 1.390 1_655 S
C755 C749 1.465 . S
C755 C754 1.396 . S
C755 C756 1.399 . S
C756 H742 0.929 . S
C756 C755 1.399 . S
C756 C757 1.385 . S
C757 H743 0.931 . S
C757 C756 1.385 . S
C757 C758 1.389 1_655 S
C758 C757 1.389 1_455 S
C758 C759 1.387 . S
C759 H744 0.930 . S
C759 C754 1.390 1_455 S
C759 C758 1.387 . S
H760 C772 0.930 . S
H761 C774 0.930 . S
H762 C775 0.930 . S
H763 C779 0.959 . S
H764 C779 0.959 . S
H765 C779 0.961 . S
H766 C780 0.960 . S
H767 C780 0.961 . S
H768 C780 0.959 . S
H769 C783 0.929 . S
H770 C784 0.931 . S
H771 C786 0.930 . S
C772 H760 0.930 . S
C772 C773 1.399 . S
C772 C777 1.399 . S
C773 C772 1.399 . S
C773 C774 1.376 . S
C774 H761 0.930 . S
C774 C773 1.376 . S
C774 C775 1.388 . S
C775 H762 0.930 . S
C775 C774 1.388 . S
C775 C776 1.390 . S
C776 C775 1.390 . S
C776 C777 1.394 . S
C776 C782 1.465 . S
C777 C772 1.399 . S
C777 C776 1.394 . S
C777 C778 1.516 . S
C778 C777 1.516 . S
C778 C779 1.502 . S
C778 C780 1.561 . S
C778 C781 1.526 . S
C779 H763 0.959 . S
C779 H764 0.959 . S
C779 H765 0.961 . S
C779 C778 1.502 . S
C780 H766 0.960 . S
C780 H767 0.961 . S
C780 H768 0.959 . S
C780 C778 1.561 . S
C781 C778 1.526 . S
C781 C782 1.396 . S
C781 C786 1.390 . S
C782 C776 1.465 . S
C782 C781 1.396 . S
C782 C783 1.399 . S
C783 H769 0.929 . S
C783 C782 1.399 . S
C783 C784 1.385 . S
C784 H770 0.931 . S
C784 C783 1.385 . S
C784 C785 1.389 . S
C785 C784 1.389 . S
C785 C786 1.387 . S
C786 H771 0.930 . S
C786 C781 1.390 . S
C786 C785 1.387 . S
H787 C799 0.930 . S
H788 C801 0.930 . S
H789 C802 0.930 . S
H790 C806 0.959 . S
H791 C806 0.959 . S
H792 C806 0.961 . S
H793 C807 0.960 . S
H794 C807 0.961 . S
H795 C807 0.959 . S
H796 C810 0.929 . S
H797 C811 0.931 . S
H798 C813 0.930 . S
C799 H787 0.930 . S
C799 C800 1.399 . S
C799 C804 1.399 . S
C800 C799 1.399 . S
C800 C801 1.376 . S
C801 H788 0.930 . S
C801 C800 1.376 . S
C801 C802 1.388 . S
C802 H789 0.930 . S
C802 C801 1.388 . S
C802 C803 1.390 . S
C803 C802 1.390 . S
C803 C804 1.394 . S
C803 C809 1.465 . S
C804 C799 1.399 . S
C804 C803 1.394 . S
C804 C805 1.516 . S
C805 C804 1.516 . S
C805 C806 1.502 . S
C805 C807 1.561 . S
C805 C808 1.526 . S
C806 H790 0.959 . S
C806 H791 0.959 . S
C806 H792 0.961 . S
C806 C805 1.502 . S
C807 H793 0.960 . S
C807 H794 0.961 . S
C807 H795 0.959 . S
C807 C805 1.561 . S
C808 C805 1.526 . S
C808 C809 1.396 . S
C808 C813 1.390 . S
C809 C803 1.465 . S
C809 C808 1.396 . S
C809 C810 1.399 . S
C810 H796 0.929 . S
C810 C809 1.399 . S
C810 C811 1.385 . S
C811 H797 0.931 . S
C811 C810 1.385 . S
C811 C812 1.389 . S
C812 C811 1.389 . S
C812 C813 1.387 . S
C813 H798 0.930 . S
C813 C808 1.390 . S
C813 C812 1.387 . S
H814 C826 0.930 . S
H815 C828 0.930 . S
H816 C829 0.930 . S
H817 C833 0.959 . S
H818 C833 0.959 . S
H819 C833 0.961 . S
H820 C834 0.960 . S
H821 C834 0.961 . S
H822 C834 0.959 . S
H823 C837 0.929 . S
H824 C838 0.931 . S
H825 C840 0.930 . S
C826 H814 0.930 . S
C826 C827 1.399 . S
C826 C831 1.399 . S
C827 C826 1.399 . S
C827 C828 1.376 . S
C828 H815 0.930 . S
C828 C827 1.376 . S
C828 C829 1.388 . S
C829 H816 0.930 . S
C829 C828 1.388 . S
C829 C830 1.390 . S
C830 C829 1.390 . S
C830 C831 1.394 . S
C830 C836 1.465 . S
C831 C826 1.399 . S
C831 C830 1.394 . S
C831 C832 1.516 . S
C832 C831 1.516 . S
C832 C833 1.502 . S
C832 C834 1.561 . S
C832 C835 1.526 . S
C833 H817 0.959 . S
C833 H818 0.959 . S
C833 H819 0.961 . S
C833 C832 1.502 . S
C834 H820 0.960 . S
C834 H821 0.961 . S
C834 H822 0.959 . S
C834 C832 1.561 . S
C835 C832 1.526 . S
C835 C836 1.396 . S
C835 C840 1.390 . S
C836 C830 1.465 . S
C836 C835 1.396 . S
C836 C837 1.399 . S
C837 H823 0.929 . S
C837 C836 1.399 . S
C837 C838 1.385 . S
C838 H824 0.931 . S
C838 C837 1.385 . S
C838 C839 1.389 . S
C839 C838 1.389 . S
C839 C840 1.387 . S
C840 H825 0.930 . S
C840 C835 1.390 . S
C840 C839 1.387 . S
H841 C853 0.930 . S
H842 C855 0.930 . S
H843 C856 0.930 . S
H844 C860 0.959 . S
H845 C860 0.959 . S
H846 C860 0.961 . S
H847 C861 0.960 . S
H848 C861 0.961 . S
H849 C861 0.959 . S
H850 C864 0.929 . S
H851 C865 0.931 . S
H852 C867 0.930 . S
C853 H841 0.930 . S
C853 C854 1.399 . S
C853 C858 1.399 . S
C854 C853 1.399 . S
C854 C855 1.376 . S
C855 H842 0.930 . S
C855 C854 1.376 . S
C855 C856 1.388 . S
C856 H843 0.930 . S
C856 C855 1.388 . S
C856 C857 1.390 . S
C857 C856 1.390 . S
C857 C858 1.394 . S
C857 C863 1.465 . S
C858 C853 1.399 . S
C858 C857 1.394 . S
C858 C859 1.516 . S
C859 C858 1.516 . S
C859 C860 1.502 . S
C859 C861 1.561 . S
C859 C862 1.526 . S
C860 H844 0.959 . S
C860 H845 0.959 . S
C860 H846 0.961 . S
C860 C859 1.502 . S
C861 H847 0.960 . S
C861 H848 0.961 . S
C861 H849 0.959 . S
C861 C859 1.561 . S
C862 C859 1.526 . S
C862 C863 1.396 . S
C862 C867 1.390 . S
C863 C857 1.465 . S
C863 C862 1.396 . S
C863 C864 1.399 . S
C864 H850 0.929 . S
C864 C863 1.399 . S
C864 C865 1.385 . S
C865 H851 0.931 . S
C865 C864 1.385 . S
C865 C866 1.389 . S
C866 C865 1.389 . S
C866 C867 1.387 . S
C867 H852 0.930 . S
C867 C862 1.390 . S
C867 C866 1.387 . S
H868 C880 0.930 . S
H869 C882 0.930 . S
H870 C883 0.930 . S
H871 C887 0.959 . S
H872 C887 0.959 . S
H873 C887 0.961 . S
H874 C888 0.960 . S
H875 C888 0.961 . S
H876 C888 0.959 . S
H877 C891 0.929 . S
H878 C892 0.931 . S
H879 C894 0.930 . S
C880 H868 0.930 . S
C880 C881 1.399 . S
C880 C885 1.399 . S
C881 C880 1.399 . S
C881 C882 1.376 . S
C882 H869 0.930 . S
C882 C881 1.376 . S
C882 C883 1.388 . S
C883 H870 0.930 . S
C883 C882 1.388 . S
C883 C884 1.390 . S
C884 C883 1.390 . S
C884 C885 1.394 . S
C884 C890 1.465 . S
C885 C880 1.399 . S
C885 C884 1.394 . S
C885 C886 1.516 . S
C886 C885 1.516 . S
C886 C887 1.502 . S
C886 C888 1.561 . S
C886 C889 1.526 . S
C887 H871 0.959 . S
C887 H872 0.959 . S
C887 H873 0.961 . S
C887 C886 1.502 . S
C888 H874 0.960 . S
C888 H875 0.961 . S
C888 H876 0.959 . S
C888 C886 1.561 . S
C889 C886 1.526 . S
C889 C890 1.396 . S
C889 C894 1.390 . S
C890 C884 1.465 . S
C890 C889 1.396 . S
C890 C891 1.399 . S
C891 H877 0.929 . S
C891 C890 1.399 . S
C891 C892 1.385 . S
C892 H878 0.931 . S
C892 C891 1.385 . S
C892 C893 1.389 . S
C893 C892 1.389 . S
C893 C894 1.387 . S
C894 H879 0.930 . S
C894 C889 1.390 . S
C894 C893 1.387 . S
H895 C907 0.930 . S
H896 C909 0.930 . S
H897 C910 0.930 . S
H898 C914 0.959 . S
H899 C914 0.959 . S
H900 C914 0.961 . S
H901 C915 0.960 . S
H902 C915 0.961 . S
H903 C915 0.959 . S
H904 C918 0.929 . S
H905 C919 0.931 . S
H906 C921 0.930 . S
C907 H895 0.930 . S
C907 C908 1.399 . S
C907 C912 1.399 . S
C908 C907 1.399 . S
C908 C909 1.376 . S
C909 H896 0.930 . S
C909 C908 1.376 . S
C909 C910 1.388 . S
C910 H897 0.930 . S
C910 C909 1.388 . S
C910 C911 1.390 . S
C911 C910 1.390 . S
C911 C912 1.394 . S
C911 C917 1.465 . S
C912 C907 1.399 . S
C912 C911 1.394 . S
C912 C913 1.516 . S
C913 C912 1.516 . S
C913 C914 1.502 . S
C913 C915 1.561 . S
C913 C916 1.526 . S
C914 H898 0.959 . S
C914 H899 0.959 . S
C914 H900 0.961 . S
C914 C913 1.502 . S
C915 H901 0.960 . S
C915 H902 0.961 . S
C915 H903 0.959 . S
C915 C913 1.561 . S
C916 C913 1.526 . S
C916 C917 1.396 . S
C916 C921 1.390 . S
C917 C911 1.465 . S
C917 C916 1.396 . S
C917 C918 1.399 . S
C918 H904 0.929 . S
C918 C917 1.399 . S
C918 C919 1.385 . S
C919 H905 0.931 . S
C919 C918 1.385 . S
C919 C920 1.389 . S
C920 C919 1.389 . S
C920 C921 1.387 . S
C921 H906 0.930 . S
C921 C916 1.390 . S
C921 C920 1.387 . S
H922 C934 0.930 . S
H923 C936 0.930 . S
H924 C937 0.930 . S
H925 C941 0.959 . S
H926 C941 0.959 1_556 S
H927 C941 0.961 . S
H928 C942 0.960 . S
H929 C942 0.961 . S
H930 C942 0.959 . S
H931 C945 0.929 . S
H932 C946 0.931 . S
H933 C948 0.930 . S
C934 H922 0.930 . S
C934 C935 1.399 . S
C934 C939 1.399 . S
C935 C934 1.399 . S
C935 C936 1.376 . S
C936 H923 0.930 . S
C936 C935 1.376 . S
C936 C937 1.388 . S
C937 H924 0.930 . S
C937 C936 1.388 . S
C937 C938 1.390 . S
C938 C937 1.390 . S
C938 C939 1.394 . S
C938 C944 1.465 . S
C939 C934 1.399 . S
C939 C938 1.394 . S
C939 C940 1.516 . S
C940 C939 1.516 . S
C940 C941 1.502 . S
C940 C942 1.561 . S
C940 C943 1.526 . S
C941 H925 0.959 . S
C941 H926 0.959 1_554 S
C941 H927 0.961 . S
C941 C940 1.502 . S
C942 H928 0.960 . S
C942 H929 0.961 . S
C942 H930 0.959 . S
C942 C940 1.561 . S
C943 C940 1.526 . S
C943 C944 1.396 . S
C943 C948 1.390 . S
C944 C938 1.465 . S
C944 C943 1.396 . S
C944 C945 1.399 . S
C945 H931 0.929 . S
C945 C944 1.399 . S
C945 C946 1.385 . S
C946 H932 0.931 . S
C946 C945 1.385 . S
C946 C947 1.389 . S
C947 C946 1.389 . S
C947 C948 1.387 . S
C948 H933 0.930 . S
C948 C943 1.390 . S
C948 C947 1.387 . S
H949 C961 0.930 . S
H950 C963 0.930 . S
H951 C964 0.930 . S
H952 C968 0.959 . S
H953 C968 0.959 . S
H954 C968 0.961 . S
H955 C969 0.960 1_556 S
H956 C969 0.961 . S
H957 C969 0.959 . S
H958 C972 0.929 . S
H959 C973 0.931 . S
H960 C975 0.930 . S
C961 H949 0.930 . S
C961 C962 1.399 . S
C961 C966 1.399 . S
C962 C961 1.399 . S
C962 C963 1.376 . S
C963 H950 0.930 . S
C963 C962 1.376 . S
C963 C964 1.388 . S
C964 H951 0.930 . S
C964 C963 1.388 . S
C964 C965 1.390 . S
C965 C964 1.390 . S
C965 C966 1.394 . S
C965 C971 1.465 . S
C966 C961 1.399 . S
C966 C965 1.394 . S
C966 C967 1.516 . S
C967 C966 1.516 . S
C967 C968 1.502 . S
C967 C969 1.561 . S
C967 C970 1.526 . S
C968 H952 0.959 . S
C968 H953 0.959 . S
C968 H954 0.961 . S
C968 C967 1.502 . S
C969 H955 0.960 1_554 S
C969 H956 0.961 . S
C969 H957 0.959 . S
C969 C967 1.561 . S
C970 C967 1.526 . S
C970 C971 1.396 . S
C970 C975 1.390 . S
C971 C965 1.465 . S
C971 C970 1.396 . S
C971 C972 1.399 . S
C972 H958 0.929 . S
C972 C971 1.399 . S
C972 C973 1.385 . S
C973 H959 0.931 . S
C973 C972 1.385 . S
C973 C974 1.389 . S
C974 C973 1.389 . S
C974 C975 1.387 . S
C975 H960 0.930 . S
C975 C970 1.390 . S
C975 C974 1.387 . S
H976 C988 0.930 . S
H977 C990 0.930 . S
H978 C991 0.930 1_455 S
H979 C995 0.959 . S
H980 C995 0.959 . S
H981 C995 0.961 . S
H982 C996 0.960 . S
H983 C996 0.961 . S
H984 C996 0.959 1_455 S
H985 C999 0.929 . S
H986 C1000 0.931 . S
H987 C1002 0.930 . S
C988 H976 0.930 . S
C988 C989 1.399 . S
C988 C993 1.399 . S
C989 C988 1.399 . S
C989 C990 1.376 . S
C990 H977 0.930 . S
C990 C989 1.376 . S
C990 C991 1.388 . S
C991 H978 0.930 1_655 S
C991 C990 1.388 . S
C991 C992 1.390 . S
C992 C991 1.390 . S
C992 C993 1.394 . S
C992 C998 1.465 1_655 S
C993 C988 1.399 . S
C993 C992 1.394 . S
C993 C994 1.516 . S
C994 C993 1.516 . S
C994 C995 1.502 . S
C994 C996 1.561 . S
C994 C997 1.526 . S
C995 H979 0.959 . S
C995 H980 0.959 . S
C995 H981 0.961 . S
C995 C994 1.502 . S
C996 H982 0.960 . S
C996 H983 0.961 . S
C996 H984 0.959 1_655 S
C996 C994 1.561 . S
C997 C994 1.526 . S
C997 C998 1.396 1_655 S
C997 C1002 1.390 . S
C998 C992 1.465 1_455 S
C998 C997 1.396 1_455 S
C998 C999 1.399 . S
C999 H985 0.929 . S
C999 C998 1.399 . S
C999 C1000 1.385 . S
C1000 H986 0.931 . S
C1000 C999 1.385 . S
C1000 C1001 1.389 . S
C1001 C1000 1.389 . S
C1001 C1002 1.387 1_455 S
C1002 H987 0.930 . S
C1002 C997 1.390 . S
C1002 C1001 1.387 1_655 S
H1003 C1015 0.930 . S
H1004 C1017 0.930 . S
H1005 C1018 0.930 . S
H1006 C1022 0.959 . S
H1007 C1022 0.959 . S
H1008 C1022 0.961 . S
H1009 C1023 0.960 . S
H1010 C1023 0.961 . S
H1011 C1023 0.959 1_455 S
H1012 C1026 0.929 . S
H1013 C1027 0.931 . S
H1014 C1029 0.930 . S
C1015 H1003 0.930 . S
C1015 C1016 1.399 . S
C1015 C1020 1.399 . S
C1016 C1015 1.399 . S
C1016 C1017 1.376 . S
C1017 H1004 0.930 . S
C1017 C1016 1.376 . S
C1017 C1018 1.388 . S
C1018 H1005 0.930 . S
C1018 C1017 1.388 . S
C1018 C1019 1.390 . S
C1019 C1018 1.390 . S
C1019 C1020 1.394 . S
C1019 C1025 1.465 . S
C1020 C1015 1.399 . S
C1020 C1019 1.394 . S
C1020 C1021 1.516 1_455 S
C1021 C1020 1.516 1_655 S
C1021 C1022 1.502 . S
C1021 C1023 1.561 . S
C1021 C1024 1.526 . S
C1022 H1006 0.959 . S
C1022 H1007 0.959 . S
C1022 H1008 0.961 . S
C1022 C1021 1.502 . S
C1023 H1009 0.960 . S
C1023 H1010 0.961 . S
C1023 H1011 0.959 1_655 S
C1023 C1021 1.561 . S
C1024 C1021 1.526 . S
C1024 C1025 1.396 1_655 S
C1024 C1029 1.390 . S
C1025 C1019 1.465 . S
C1025 C1024 1.396 1_455 S
C1025 C1026 1.399 . S
C1026 H1012 0.929 . S
C1026 C1025 1.399 . S
C1026 C1027 1.385 . S
C1027 H1013 0.931 . S
C1027 C1026 1.385 . S
C1027 C1028 1.389 1_455 S
C1028 C1027 1.389 1_655 S
C1028 C1029 1.387 . S
C1029 H1014 0.930 . S
C1029 C1024 1.390 . S
C1029 C1028 1.387 . S
H1030 C1042 0.930 . S
H1031 C1044 0.930 . S
H1032 C1045 0.930 . S
H1033 C1049 0.959 . S
H1034 C1049 0.959 . S
H1035 C1049 0.961 . S
H1036 C1050 0.960 . S
H1037 C1050 0.961 . S
H1038 C1050 0.959 . S
H1039 C1053 0.929 . S
H1040 C1054 0.931 . S
H1041 C1056 0.930 . S
C1042 H1030 0.930 . S
C1042 C1043 1.399 . S
C1042 C1047 1.399 . S
C1043 C1042 1.399 . S
C1043 C1044 1.376 . S
C1044 H1031 0.930 . S
C1044 C1043 1.376 . S
C1044 C1045 1.388 . S
C1045 H1032 0.930 . S
C1045 C1044 1.388 . S
C1045 C1046 1.390 . S
C1046 C1045 1.390 . S
C1046 C1047 1.394 . S
C1046 C1052 1.465 . S
C1047 C1042 1.399 . S
C1047 C1046 1.394 . S
C1047 C1048 1.516 . S
C1048 C1047 1.516 . S
C1048 C1049 1.502 . S
C1048 C1050 1.561 . S
C1048 C1051 1.526 . S
C1049 H1033 0.959 . S
C1049 H1034 0.959 . S
C1049 H1035 0.961 . S
C1049 C1048 1.502 . S
C1050 H1036 0.960 . S
C1050 H1037 0.961 . S
C1050 H1038 0.959 . S
C1050 C1048 1.561 . S
C1051 C1048 1.526 . S
C1051 C1052 1.396 . S
C1051 C1056 1.390 . S
C1052 C1046 1.465 . S
C1052 C1051 1.396 . S
C1052 C1053 1.399 . S
C1053 H1039 0.929 . S
C1053 C1052 1.399 . S
C1053 C1054 1.385 . S
C1054 H1040 0.931 . S
C1054 C1053 1.385 . S
C1054 C1055 1.389 . S
C1055 C1054 1.389 . S
C1055 C1056 1.387 . S
C1056 H1041 0.930 . S
C1056 C1051 1.390 . S
C1056 C1055 1.387 . S
H1057 C1069 0.930 . S
H1058 C1071 0.930 . S
H1059 C1072 0.930 . S
H1060 C1076 0.959 . S
H1061 C1076 0.959 . S
H1062 C1076 0.961 . S
H1063 C1077 0.960 . S
H1064 C1077 0.961 . S
H1065 C1077 0.959 . S
H1066 C1080 0.929 . S
H1067 C1081 0.931 . S
H1068 C1083 0.930 . S
C1069 H1057 0.930 . S
C1069 C1070 1.399 . S
C1069 C1074 1.399 . S
C1070 C1069 1.399 . S
C1070 C1071 1.376 . S
C1071 H1058 0.930 . S
C1071 C1070 1.376 . S
C1071 C1072 1.388 . S
C1072 H1059 0.930 . S
C1072 C1071 1.388 . S
C1072 C1073 1.390 . S
C1073 C1072 1.390 . S
C1073 C1074 1.394 . S
C1073 C1079 1.465 . S
C1074 C1069 1.399 . S
C1074 C1073 1.394 . S
C1074 C1075 1.516 . S
C1075 C1074 1.516 . S
C1075 C1076 1.502 . S
C1075 C1077 1.561 . S
C1075 C1078 1.526 . S
C1076 H1060 0.959 . S
C1076 H1061 0.959 . S
C1076 H1062 0.961 . S
C1076 C1075 1.502 . S
C1077 H1063 0.960 . S
C1077 H1064 0.961 . S
C1077 H1065 0.959 . S
C1077 C1075 1.561 . S
C1078 C1075 1.526 . S
C1078 C1079 1.396 . S
C1078 C1083 1.390 . S
C1079 C1073 1.465 . S
C1079 C1078 1.396 . S
C1079 C1080 1.399 . S
C1080 H1066 0.929 . S
C1080 C1079 1.399 . S
C1080 C1081 1.385 . S
C1081 H1067 0.931 . S
C1081 C1080 1.385 . S
C1081 C1082 1.389 . S
C1082 C1081 1.389 . S
C1082 C1083 1.387 . S
C1083 H1068 0.930 . S
C1083 C1078 1.390 . S
C1083 C1082 1.387 . S
H1084 C1096 0.930 . S
H1085 C1098 0.930 . S
H1086 C1099 0.930 . S
H1087 C1103 0.959 . S
H1088 C1103 0.959 . S
H1089 C1103 0.961 . S
H1090 C1104 0.960 . S
H1091 C1104 0.961 . S
H1092 C1104 0.959 . S
H1093 C1107 0.929 . S
H1094 C1108 0.931 . S
H1095 C1110 0.930 . S
C1096 H1084 0.930 . S
C1096 C1097 1.399 . S
C1096 C1101 1.399 . S
C1097 C1096 1.399 . S
C1097 C1098 1.376 . S
C1098 H1085 0.930 . S
C1098 C1097 1.376 . S
C1098 C1099 1.388 . S
C1099 H1086 0.930 . S
C1099 C1098 1.388 . S
C1099 C1100 1.390 . S
C1100 C1099 1.390 . S
C1100 C1101 1.394 . S
C1100 C1106 1.465 . S
C1101 C1096 1.399 . S
C1101 C1100 1.394 . S
C1101 C1102 1.516 . S
C1102 C1101 1.516 . S
C1102 C1103 1.502 . S
C1102 C1104 1.561 1_655 S
C1102 C1105 1.526 . S
C1103 H1087 0.959 . S
C1103 H1088 0.959 . S
C1103 H1089 0.961 . S
C1103 C1102 1.502 . S
C1104 H1090 0.960 . S
C1104 H1091 0.961 . S
C1104 H1092 0.959 . S
C1104 C1102 1.561 1_455 S
C1105 C1102 1.526 . S
C1105 C1106 1.396 . S
C1105 C1110 1.390 1_655 S
C1106 C1100 1.465 . S
C1106 C1105 1.396 . S
C1106 C1107 1.399 1_655 S
C1107 H1093 0.929 . S
C1107 C1106 1.399 1_455 S
C1107 C1108 1.385 . S
C1108 H1094 0.931 . S
C1108 C1107 1.385 . S
C1108 C1109 1.389 . S
C1109 C1108 1.389 . S
C1109 C1110 1.387 . S
C1110 H1095 0.930 . S
C1110 C1105 1.390 1_455 S
C1110 C1109 1.387 . S
H1111 C1123 0.930 . S
H1112 C1125 0.930 . S
H1113 C1126 0.930 . S
H1114 C1130 0.959 . S
H1115 C1130 0.959 . S
H1116 C1130 0.961 . S
H1117 C1131 0.960 . S
H1118 C1131 0.961 . S
H1119 C1131 0.959 . S
H1120 C1134 0.929 . S
H1121 C1135 0.931 . S
H1122 C1137 0.930 . S
C1123 H1111 0.930 . S
C1123 C1124 1.399 . S
C1123 C1128 1.399 . S
C1124 C1123 1.399 . S
C1124 C1125 1.376 . S
C1125 H1112 0.930 . S
C1125 C1124 1.376 . S
C1125 C1126 1.388 . S
C1126 H1113 0.930 . S
C1126 C1125 1.388 . S
C1126 C1127 1.390 . S
C1127 C1126 1.390 . S
C1127 C1128 1.394 . S
C1127 C1133 1.465 . S
C1128 C1123 1.399 . S
C1128 C1127 1.394 . S
C1128 C1129 1.516 . S
C1129 C1128 1.516 . S
C1129 C1130 1.502 1_455 S
C1129 C1131 1.561 . S
C1129 C1132 1.526 . S
C1130 H1114 0.959 . S
C1130 H1115 0.959 . S
C1130 H1116 0.961 . S
C1130 C1129 1.502 1_655 S
C1131 H1117 0.960 . S
C1131 H1118 0.961 . S
C1131 H1119 0.959 . S
C1131 C1129 1.561 . S
C1132 C1129 1.526 . S
C1132 C1133 1.395 . S
C1132 C1137 1.391 1_455 S
C1133 C1127 1.465 . S
C1133 C1132 1.395 . S
C1133 C1134 1.399 . S
C1134 H1120 0.929 . S
C1134 C1133 1.399 . S
C1134 C1135 1.385 . S
C1135 H1121 0.931 . S
C1135 C1134 1.385 . S
C1135 C1136 1.389 1_455 S
C1136 C1135 1.389 1_655 S
C1136 C1137 1.387 . S
C1137 H1122 0.930 . S
C1137 C1132 1.391 1_655 S
C1137 C1136 1.387 . S
H1138 C1150 0.930 . S
H1139 C1152 0.930 . S
H1140 C1153 0.930 1_554 S
H1141 C1157 0.959 . S
H1142 C1157 0.959 . S
H1143 C1157 0.961 1_556 S
H1144 C1158 0.960 . S
H1145 C1158 0.961 . S
H1146 C1158 0.959 . S
H1147 C1161 0.929 1_545 S
H1148 C1162 0.931 . S
H1149 C1164 0.930 . S
C1150 H1138 0.930 . S
C1150 C1151 1.399 1_565 S
C1150 C1155 1.399 . S
C1151 C1150 1.399 1_545 S
C1151 C1152 1.376 . S
C1152 H1139 0.930 . S
C1152 C1151 1.376 . S
C1152 C1153 1.388 . S
C1153 H1140 0.930 1_556 S
C1153 C1152 1.388 . S
C1153 C1154 1.340 1_546 S
C1154 C1153 1.340 1_564 S
C1154 C1155 1.432 1_554 S
C1154 C1160 1.487 . S
C1155 C1150 1.399 . S
C1155 C1154 1.432 1_556 S
C1155 C1156 1.516 1_556 S
C1156 C1155 1.516 1_554 S
C1156 C1157 1.502 . S
C1156 C1158 1.561 1_554 S
C1156 C1159 1.526 . S
C1157 H1141 0.959 . S
C1157 H1142 0.959 . S
C1157 H1143 0.961 1_554 S
C1157 C1156 1.502 . S
C1158 H1144 0.960 . S
C1158 H1145 0.961 . S
C1158 H1146 0.959 . S
C1158 C1156 1.561 1_556 S
C1159 C1156 1.526 . S
C1159 C1160 1.396 . S
C1159 C1164 1.390 . S
C1160 C1154 1.487 . S
C1160 C1159 1.396 . S
C1160 C1161 1.399 . S
C1161 H1147 0.929 1_565 S
C1161 C1160 1.399 . S
C1161 C1162 1.385 . S
C1162 H1148 0.931 . S
C1162 C1161 1.385 . S
C1162 C1163 1.389 . S
C1163 C1162 1.389 . S
C1163 C1164 1.387 . S
C1164 H1149 0.930 . S
C1164 C1159 1.390 . S
C1164 C1163 1.387 . S
H1165 C1177 0.930 . S
H1166 C1179 0.930 . S
H1167 C1180 0.930 1_554 S
H1168 C1184 0.959 . S
H1169 C1184 0.959 . S
H1170 C1184 0.961 1_556 S
H1171 C1185 0.960 . S
H1172 C1185 0.961 . S
H1173 C1185 0.959 . S
H1174 C1188 0.929 1_565 S
H1175 C1189 0.931 . S
H1176 C1191 0.930 . S
C1177 H1165 0.930 . S
C1177 C1178 1.399 1_545 S
C1177 C1182 1.399 . S
C1178 C1177 1.399 1_565 S
C1178 C1179 1.376 . S
C1179 H1166 0.930 . S
C1179 C1178 1.376 . S
C1179 C1180 1.388 . S
C1180 H1167 0.930 1_556 S
C1180 C1179 1.388 . S
C1180 C1181 1.329 1_566 S
C1181 C1180 1.329 1_544 S
C1181 C1182 1.441 1_554 S
C1181 C1187 1.493 . S
C1182 C1177 1.399 . S
C1182 C1181 1.441 1_556 S
C1182 C1183 1.516 1_556 S
C1183 C1182 1.516 1_554 S
C1183 C1184 1.502 . S
C1183 C1185 1.561 1_554 S
C1183 C1186 1.526 . S
C1184 H1168 0.959 . S
C1184 H1169 0.959 . S
C1184 H1170 0.961 1_554 S
C1184 C1183 1.502 . S
C1185 H1171 0.960 . S
C1185 H1172 0.961 . S
C1185 H1173 0.959 . S
C1185 C1183 1.561 1_556 S
C1186 C1183 1.526 . S
C1186 C1187 1.396 . S
C1186 C1191 1.390 . S
C1187 C1181 1.493 . S
C1187 C1186 1.396 . S
C1187 C1188 1.399 . S
C1188 H1174 0.929 1_545 S
C1188 C1187 1.399 . S
C1188 C1189 1.385 . S
C1189 H1175 0.931 . S
C1189 C1188 1.385 . S
C1189 C1190 1.389 . S
C1190 C1189 1.389 . S
C1190 C1191 1.387 . S
C1191 H1176 0.930 . S
C1191 C1186 1.390 . S
C1191 C1190 1.387 . S
H1192 C1204 0.930 . S
H1193 C1206 0.930 . S
H1194 C1207 0.930 . S
H1195 C1211 0.959 . S
H1196 C1211 0.959 . S
H1197 C1211 0.961 . S
H1198 C1212 0.960 . S
H1199 C1212 0.961 . S
H1200 C1212 0.959 . S
H1201 C1215 0.929 . S
H1202 C1216 0.931 . S
H1203 C1218 0.930 . S
C1204 H1192 0.930 . S
C1204 C1205 1.399 . S
C1204 C1209 1.399 . S
C1205 C1204 1.399 . S
C1205 C1206 1.376 . S
C1206 H1193 0.930 . S
C1206 C1205 1.376 . S
C1206 C1207 1.388 . S
C1207 H1194 0.930 . S
C1207 C1206 1.388 . S
C1207 C1208 1.390 . S
C1208 C1207 1.390 . S
C1208 C1209 1.394 . S
C1208 C1214 1.465 . S
C1209 C1204 1.399 . S
C1209 C1208 1.394 . S
C1209 C1210 1.516 . S
C1210 C1209 1.516 . S
C1210 C1211 1.502 . S
C1210 C1212 1.561 . S
C1210 C1213 1.526 . S
C1211 H1195 0.959 . S
C1211 H1196 0.959 . S
C1211 H1197 0.961 . S
C1211 C1210 1.502 . S
C1212 H1198 0.960 . S
C1212 H1199 0.961 . S
C1212 H1200 0.959 . S
C1212 C1210 1.561 . S
C1213 C1210 1.526 . S
C1213 C1214 1.396 . S
C1213 C1218 1.390 . S
C1214 C1208 1.465 . S
C1214 C1213 1.396 . S
C1214 C1215 1.399 . S
C1215 H1201 0.929 . S
C1215 C1214 1.399 . S
C1215 C1216 1.385 . S
C1216 H1202 0.931 . S
C1216 C1215 1.385 . S
C1216 C1217 1.389 . S
C1217 C1216 1.389 . S
C1217 C1218 1.387 . S
C1218 H1203 0.930 . S
C1218 C1213 1.390 . S
C1218 C1217 1.387 . S
H1219 C1231 0.930 . S
H1220 C1233 0.930 . S
H1221 C1234 0.930 . S
H1222 C1238 0.959 . S
H1223 C1238 0.959 . S
H1224 C1238 0.961 . S
H1225 C1239 0.960 . S
H1226 C1239 0.961 . S
H1227 C1239 0.959 . S
H1228 C1242 0.929 . S
H1229 C1243 0.931 . S
H1230 C1245 0.930 . S
C1231 H1219 0.930 . S
C1231 C1232 1.399 . S
C1231 C1236 1.399 . S
C1232 C1231 1.399 . S
C1232 C1233 1.376 . S
C1233 H1220 0.930 . S
C1233 C1232 1.376 . S
C1233 C1234 1.388 . S
C1234 H1221 0.930 . S
C1234 C1233 1.388 . S
C1234 C1235 1.390 . S
C1235 C1234 1.390 . S
C1235 C1236 1.394 . S
C1235 C1241 1.465 . S
C1236 C1231 1.399 . S
C1236 C1235 1.394 . S
C1236 C1237 1.516 . S
C1237 C1236 1.516 . S
C1237 C1238 1.502 . S
C1237 C1239 1.561 . S
C1237 C1240 1.526 . S
C1238 H1222 0.959 . S
C1238 H1223 0.959 . S
C1238 H1224 0.961 . S
C1238 C1237 1.502 . S
C1239 H1225 0.960 . S
C1239 H1226 0.961 . S
C1239 H1227 0.959 . S
C1239 C1237 1.561 . S
C1240 C1237 1.526 . S
C1240 C1241 1.396 . S
C1240 C1245 1.390 . S
C1241 C1235 1.465 . S
C1241 C1240 1.396 . S
C1241 C1242 1.399 . S
C1242 H1228 0.929 . S
C1242 C1241 1.399 . S
C1242 C1243 1.385 . S
C1243 H1229 0.931 . S
C1243 C1242 1.385 . S
C1243 C1244 1.389 . S
C1244 C1243 1.389 . S
C1244 C1245 1.387 . S
C1245 H1230 0.930 . S
C1245 C1240 1.390 . S
C1245 C1244 1.387 . S
H1246 C1258 0.930 . S
H1247 C1260 0.930 . S
H1248 C1261 0.930 . S
H1249 C1265 0.959 . S
H1250 C1265 0.959 . S
H1251 C1265 0.961 . S
H1252 C1266 0.960 . S
H1253 C1266 0.961 . S
H1254 C1266 0.959 . S
H1255 C1269 0.929 . S
H1256 C1270 0.931 . S
H1257 C1272 0.930 . S
C1258 H1246 0.930 . S
C1258 C1259 1.399 . S
C1258 C1263 1.399 . S
C1259 C1258 1.399 . S
C1259 C1260 1.376 . S
C1260 H1247 0.930 . S
C1260 C1259 1.376 . S
C1260 C1261 1.388 . S
C1261 H1248 0.930 . S
C1261 C1260 1.388 . S
C1261 C1262 1.390 . S
C1262 C1261 1.390 . S
C1262 C1263 1.394 . S
C1262 C1268 1.465 1_554 S
C1263 C1258 1.399 . S
C1263 C1262 1.394 . S
C1263 C1264 1.516 . S
C1264 C1263 1.516 . S
C1264 C1265 1.502 . S
C1264 C1266 1.561 . S
C1264 C1267 1.526 1_554 S
C1265 H1249 0.959 . S
C1265 H1250 0.959 . S
C1265 H1251 0.961 . S
C1265 C1264 1.502 . S
C1266 H1252 0.960 . S
C1266 H1253 0.961 . S
C1266 H1254 0.959 . S
C1266 C1264 1.561 . S
C1267 C1264 1.526 1_556 S
C1267 C1268 1.396 . S
C1267 C1272 1.390 . S
C1268 C1262 1.465 1_556 S
C1268 C1267 1.396 . S
C1268 C1269 1.399 . S
C1269 H1255 0.929 . S
C1269 C1268 1.399 . S
C1269 C1270 1.385 . S
C1270 H1256 0.931 . S
C1270 C1269 1.385 . S
C1270 C1271 1.389 . S
C1271 C1270 1.389 . S
C1271 C1272 1.387 . S
C1272 H1257 0.930 . S
C1272 C1267 1.390 . S
C1272 C1271 1.387 . S
H1273 C1285 0.930 . S
H1274 C1287 0.930 . S
H1275 C1288 0.930 . S
H1276 C1292 0.959 . S
H1277 C1292 0.959 . S
H1278 C1292 0.961 . S
H1279 C1293 0.960 1_554 S
H1280 C1293 0.961 . S
H1281 C1293 0.959 1_554 S
H1282 C1296 0.929 . S
H1283 C1297 0.931 . S
H1284 C1299 0.930 . S
C1285 H1273 0.930 . S
C1285 C1286 1.399 . S
C1285 C1290 1.399 . S
C1286 C1285 1.399 . S
C1286 C1287 1.376 . S
C1287 H1274 0.930 . S
C1287 C1286 1.376 . S
C1287 C1288 1.388 . S
C1288 H1275 0.930 . S
C1288 C1287 1.388 . S
C1288 C1289 1.390 . S
C1289 C1288 1.390 . S
C1289 C1290 1.394 . S
C1289 C1295 1.465 . S
C1290 C1285 1.399 . S
C1290 C1289 1.394 . S
C1290 C1291 1.516 1_554 S
C1291 C1290 1.516 1_556 S
C1291 C1292 1.502 . S
C1291 C1293 1.561 . S
C1291 C1294 1.526 . S
C1292 H1276 0.959 . S
C1292 H1277 0.959 . S
C1292 H1278 0.961 . S
C1292 C1291 1.502 . S
C1293 H1279 0.960 1_556 S
C1293 H1280 0.961 . S
C1293 H1281 0.959 1_556 S
C1293 C1291 1.561 . S
C1294 C1291 1.526 . S
C1294 C1295 1.396 1_556 S
C1294 C1299 1.390 . S
C1295 C1289 1.465 . S
C1295 C1294 1.396 1_554 S
C1295 C1296 1.399 . S
C1296 H1282 0.929 . S
C1296 C1295 1.399 . S
C1296 C1297 1.385 1_554 S
C1297 H1283 0.931 . S
C1297 C1296 1.385 1_556 S
C1297 C1298 1.389 . S
C1298 C1297 1.389 . S
C1298 C1299 1.387 . S
C1299 H1284 0.930 . S
C1299 C1294 1.390 . S
C1299 C1298 1.387 . S
H1300 C1312 0.930 . S
H1301 C1314 0.930 . S
H1302 C1315 0.930 . S
H1303 C1319 0.959 . S
H1304 C1319 0.959 . S
H1305 C1319 0.961 . S
H1306 C1320 0.960 . S
H1307 C1320 0.961 . S
H1308 C1320 0.959 . S
H1309 C1323 0.929 . S
H1310 C1324 0.931 . S
H1311 C1326 0.930 . S
C1312 H1300 0.930 . S
C1312 C1313 1.399 . S
C1312 C1317 1.399 . S
C1313 C1312 1.399 . S
C1313 C1314 1.376 . S
C1314 H1301 0.930 . S
C1314 C1313 1.376 . S
C1314 C1315 1.388 . S
C1315 H1302 0.930 . S
C1315 C1314 1.388 . S
C1315 C1316 1.390 . S
C1316 C1315 1.390 . S
C1316 C1317 1.394 . S
C1316 C1322 1.465 . S
C1317 C1312 1.399 . S
C1317 C1316 1.394 . S
C1317 C1318 1.516 . S
C1318 C1317 1.516 . S
C1318 C1319 1.502 . S
C1318 C1320 1.561 . S
C1318 C1321 1.526 . S
C1319 H1303 0.959 . S
C1319 H1304 0.959 . S
C1319 H1305 0.961 . S
C1319 C1318 1.502 . S
C1320 H1306 0.960 . S
C1320 H1307 0.961 . S
C1320 H1308 0.959 . S
C1320 C1318 1.561 . S
C1321 C1318 1.526 . S
C1321 C1322 1.396 . S
C1321 C1326 1.390 . S
C1322 C1316 1.465 . S
C1322 C1321 1.396 . S
C1322 C1323 1.399 . S
C1323 H1309 0.929 . S
C1323 C1322 1.399 . S
C1323 C1324 1.385 . S
C1324 H1310 0.931 . S
C1324 C1323 1.385 . S
C1324 C1325 1.389 . S
C1325 C1324 1.389 . S
C1325 C1326 1.387 . S
C1326 H1311 0.930 . S
C1326 C1321 1.390 . S
C1326 C1325 1.387 . S
H1327 C1339 0.930 . S
H1328 C1341 0.930 . S
H1329 C1342 0.930 . S
H1330 C1346 0.959 . S
H1331 C1346 0.959 . S
H1332 C1346 0.961 . S
H1333 C1347 0.960 . S
H1334 C1347 0.961 . S
H1335 C1347 0.959 . S
H1336 C1350 0.929 . S
H1337 C1351 0.931 . S
H1338 C1353 0.930 . S
C1339 H1327 0.930 . S
C1339 C1340 1.399 . S
C1339 C1344 1.399 . S
C1340 C1339 1.399 . S
C1340 C1341 1.376 . S
C1341 H1328 0.930 . S
C1341 C1340 1.376 . S
C1341 C1342 1.388 . S
C1342 H1329 0.930 . S
C1342 C1341 1.388 . S
C1342 C1343 1.390 . S
C1343 C1342 1.390 . S
C1343 C1344 1.394 . S
C1343 C1349 1.465 . S
C1344 C1339 1.399 . S
C1344 C1343 1.394 . S
C1344 C1345 1.516 . S
C1345 C1344 1.516 . S
C1345 C1346 1.502 . S
C1345 C1347 1.561 . S
C1345 C1348 1.526 . S
C1346 H1330 0.959 . S
C1346 H1331 0.959 . S
C1346 H1332 0.961 . S
C1346 C1345 1.502 . S
C1347 H1333 0.960 . S
C1347 H1334 0.961 . S
C1347 H1335 0.959 . S
C1347 C1345 1.561 . S
C1348 C1345 1.526 . S
C1348 C1349 1.396 . S
C1348 C1353 1.390 . S
C1349 C1343 1.465 . S
C1349 C1348 1.396 . S
C1349 C1350 1.399 . S
C1350 H1336 0.929 . S
C1350 C1349 1.399 . S
C1350 C1351 1.385 . S
C1351 H1337 0.931 . S
C1351 C1350 1.385 . S
C1351 C1352 1.389 . S
C1352 C1351 1.389 . S
C1352 C1353 1.387 . S
C1353 H1338 0.930 . S
C1353 C1348 1.390 . S
C1353 C1352 1.387 . S
H1354 C1366 0.930 . S
H1355 C1368 0.930 . S
H1356 C1369 0.930 . S
H1357 C1373 0.959 1_565 S
H1358 C1373 0.959 . S
H1359 C1373 0.961 . S
H1360 C1374 0.960 . S
H1361 C1374 0.961 . S
H1362 C1374 0.959 . S
H1363 C1377 0.929 . S
H1364 C1378 0.931 . S
H1365 C1380 0.930 . S
C1366 H1354 0.930 . S
C1366 C1367 1.399 . S
C1366 C1371 1.399 . S
C1367 C1366 1.399 . S
C1367 C1368 1.376 . S
C1368 H1355 0.930 . S
C1368 C1367 1.376 . S
C1368 C1369 1.388 . S
C1369 H1356 0.930 . S
C1369 C1368 1.388 . S
C1369 C1370 1.390 . S
C1370 C1369 1.390 . S
C1370 C1371 1.394 . S
C1370 C1376 1.465 . S
C1371 C1366 1.399 . S
C1371 C1370 1.394 . S
C1371 C1372 1.516 1_565 S
C1372 C1371 1.516 1_545 S
C1372 C1373 1.502 . S
C1372 C1374 1.561 . S
C1372 C1375 1.539 . S
C1373 H1357 0.959 1_545 S
C1373 H1358 0.959 . S
C1373 H1359 0.961 . S
C1373 C1372 1.502 . S
C1374 H1360 0.960 . S
C1374 H1361 0.961 . S
C1374 H1362 0.959 . S
C1374 C1372 1.561 . S
C1375 C1372 1.539 . S
C1375 C1376 1.340 1_545 S
C1375 C1380 1.427 . S
C1376 C1370 1.465 . S
C1376 C1375 1.340 1_565 S
C1376 C1377 1.399 . S
C1377 H1363 0.929 . S
C1377 C1376 1.399 . S
C1377 C1378 1.385 . S
C1378 H1364 0.931 . S
C1378 C1377 1.385 . S
C1378 C1379 1.389 1_565 S
C1379 C1378 1.389 1_545 S
C1379 C1380 1.387 . S
C1380 H1365 0.930 . S
C1380 C1375 1.427 . S
C1380 C1379 1.387 . S
H1381 C1393 0.930 . S
H1382 C1395 0.930 . S
H1383 C1396 0.930 . S
H1384 C1400 0.959 . S
H1385 C1400 0.959 . S
H1386 C1400 0.961 . S
H1387 C1401 0.960 . S
H1388 C1401 0.961 . S
H1389 C1401 0.959 . S
H1390 C1404 0.929 . S
H1391 C1405 0.931 . S
H1392 C1407 0.930 . S
C1393 H1381 0.930 . S
C1393 C1394 1.399 . S
C1393 C1398 1.399 . S
C1394 C1393 1.399 . S
C1394 C1395 1.376 . S
C1395 H1382 0.930 . S
C1395 C1394 1.376 . S
C1395 C1396 1.388 . S
C1396 H1383 0.930 . S
C1396 C1395 1.388 . S
C1396 C1397 1.390 . S
C1397 C1396 1.390 . S
C1397 C1398 1.394 . S
C1397 C1403 1.465 . S
C1398 C1393 1.399 . S
C1398 C1397 1.394 . S
C1398 C1399 1.516 . S
C1399 C1398 1.516 . S
C1399 C1400 1.502 . S
C1399 C1401 1.561 . S
C1399 C1402 1.526 . S
C1400 H1384 0.959 . S
C1400 H1385 0.959 . S
C1400 H1386 0.961 . S
C1400 C1399 1.502 . S
C1401 H1387 0.960 . S
C1401 H1388 0.961 . S
C1401 H1389 0.959 . S
C1401 C1399 1.561 . S
C1402 C1399 1.526 . S
C1402 C1403 1.396 . S
C1402 C1407 1.390 . S
C1403 C1397 1.465 . S
C1403 C1402 1.396 . S
C1403 C1404 1.399 1_545 S
C1404 H1390 0.929 . S
C1404 C1403 1.399 1_565 S
C1404 C1405 1.385 . S
C1405 H1391 0.931 . S
C1405 C1404 1.385 . S
C1405 C1406 1.389 . S
C1406 C1405 1.389 . S
C1406 C1407 1.387 1_565 S
C1407 H1392 0.930 . S
C1407 C1402 1.390 . S
C1407 C1406 1.387 1_545 S
H1408 C1420 0.930 . S
H1409 C1422 0.930 . S
H1410 C1423 0.930 . S
H1411 C1427 0.959 . S
H1412 C1427 0.959 . S
H1413 C1427 0.961 . S
H1414 C1428 0.960 . S
H1415 C1428 0.961 . S
H1416 C1428 0.959 . S
H1417 C1431 0.929 . S
H1418 C1432 0.931 . S
H1419 C1434 0.930 . S
C1420 H1408 0.930 . S
C1420 C1421 1.399 1_556 S
C1420 C1425 1.399 . S
C1421 C1420 1.399 1_554 S
C1421 C1422 1.376 . S
C1422 H1409 0.930 . S
C1422 C1421 1.376 . S
C1422 C1423 1.388 . S
C1423 H1410 0.930 . S
C1423 C1422 1.388 . S
C1423 C1424 1.390 . S
C1424 C1423 1.390 . S
C1424 C1425 1.394 1_554 S
C1424 C1430 1.465 . S
C1425 C1420 1.399 . S
C1425 C1424 1.394 1_556 S
C1425 C1426 1.516 . S
C1426 C1425 1.516 . S
C1426 C1427 1.502 . S
C1426 C1428 1.561 . S
C1426 C1429 1.526 . S
C1427 H1411 0.959 . S
C1427 H1412 0.959 . S
C1427 H1413 0.961 . S
C1427 C1426 1.502 . S
C1428 H1414 0.960 . S
C1428 H1415 0.961 . S
C1428 H1416 0.959 . S
C1428 C1426 1.561 . S
C1429 C1426 1.526 . S
C1429 C1430 1.396 1_556 S
C1429 C1434 1.390 . S
C1430 C1424 1.465 . S
C1430 C1429 1.396 1_554 S
C1430 C1431 1.399 . S
C1431 H1417 0.929 . S
C1431 C1430 1.399 . S
C1431 C1432 1.385 . S
C1432 H1418 0.931 . S
C1432 C1431 1.385 . S
C1432 C1433 1.389 . S
C1433 C1432 1.389 . S
C1433 C1434 1.387 1_554 S
C1434 H1419 0.930 . S
C1434 C1429 1.390 . S
C1434 C1433 1.387 1_556 S
H1435 C1447 0.930 . S
H1436 C1449 0.930 . S
H1437 C1450 0.930 . S
H1438 C1454 0.959 1_556 S
H1439 C1454 0.959 . S
H1440 C1454 0.961 . S
H1441 C1455 0.960 . S
H1442 C1455 0.961 . S
H1443 C1455 0.959 . S
H1444 C1458 0.929 . S
H1445 C1459 0.931 . S
H1446 C1461 0.930 . S
C1447 H1435 0.930 . S
C1447 C1448 1.394 1_554 S
C1447 C1452 1.399 . S
C1448 C1447 1.394 1_556 S
C1448 C1449 1.382 . S
C1449 H1436 0.930 . S
C1449 C1448 1.382 . S
C1449 C1450 1.388 . S
C1450 H1437 0.930 . S
C1450 C1449 1.388 . S
C1450 C1451 1.390 . S
C1451 C1450 1.390 . S
C1451 C1452 1.394 1_556 S
C1451 C1457 1.465 . S
C1452 C1447 1.399 . S
C1452 C1451 1.394 1_554 S
C1452 C1453 1.516 . S
C1453 C1452 1.516 . S
C1453 C1454 1.502 . S
C1453 C1455 1.561 . S
C1453 C1456 1.526 . S
C1454 H1438 0.959 1_554 S
C1454 H1439 0.959 . S
C1454 H1440 0.961 . S
C1454 C1453 1.502 . S
C1455 H1441 0.960 . S
C1455 H1442 0.961 . S
C1455 H1443 0.959 . S
C1455 C1453 1.561 . S
C1456 C1453 1.526 . S
C1456 C1457 1.396 1_554 S
C1456 C1461 1.390 . S
C1457 C1451 1.465 . S
C1457 C1456 1.396 1_556 S
C1457 C1458 1.399 . S
C1458 H1444 0.929 . S
C1458 C1457 1.399 . S
C1458 C1459 1.385 . S
C1459 H1445 0.931 . S
C1459 C1458 1.385 . S
C1459 C1460 1.389 . S
C1460 C1459 1.389 . S
C1460 C1461 1.387 1_556 S
C1461 H1446 0.930 . S
C1461 C1456 1.390 . S
C1461 C1460 1.387 1_554 S
H1462 C1474 0.930 . S
H1463 C1476 0.930 . S
H1464 C1477 0.930 . S
H1465 C1481 0.959 . S
H1466 C1481 0.959 . S
H1467 C1481 0.961 . S
H1468 C1482 0.960 1_455 S
H1469 C1482 0.961 . S
H1470 C1482 0.959 . S
H1471 C1485 0.929 . S
H1472 C1486 0.931 . S
H1473 C1488 0.930 . S
C1474 H1462 0.930 . S
C1474 C1475 1.399 . S
C1474 C1479 1.399 . S
C1475 C1474 1.399 . S
C1475 C1476 1.376 . S
C1476 H1463 0.930 . S
C1476 C1475 1.376 . S
C1476 C1477 1.388 . S
C1477 H1464 0.930 . S
C1477 C1476 1.388 . S
C1477 C1478 1.390 . S
C1478 C1477 1.390 . S
C1478 C1479 1.394 . S
C1478 C1484 1.465 1_455 S
C1479 C1474 1.399 . S
C1479 C1478 1.394 . S
C1479 C1480 1.516 . S
C1480 C1479 1.516 . S
C1480 C1481 1.502 . S
C1480 C1482 1.561 1_455 S
C1480 C1483 1.526 1_455 S
C1481 H1465 0.959 . S
C1481 H1466 0.959 . S
C1481 H1467 0.961 . S
C1481 C1480 1.502 . S
C1482 H1468 0.960 1_655 S
C1482 H1469 0.961 . S
C1482 H1470 0.959 . S
C1482 C1480 1.561 1_655 S
C1483 C1480 1.526 1_655 S
C1483 C1484 1.396 . S
C1483 C1488 1.390 . S
C1484 C1478 1.465 1_655 S
C1484 C1483 1.396 . S
C1484 C1485 1.399 . S
C1485 H1471 0.929 . S
C1485 C1484 1.399 . S
C1485 C1486 1.385 . S
C1486 H1472 0.931 . S
C1486 C1485 1.385 . S
C1486 C1487 1.389 . S
C1487 C1486 1.389 . S
C1487 C1488 1.387 . S
C1488 H1473 0.930 . S
C1488 C1483 1.390 . S
C1488 C1487 1.387 . S
H1489 C1501 0.930 . S
H1490 C1503 0.930 . S
H1491 C1504 0.930 . S
H1492 C1508 0.959 . S
H1493 C1508 0.959 . S
H1494 C1508 0.961 . S
H1495 C1509 0.960 . S
H1496 C1509 0.961 . S
H1497 C1509 0.959 . S
H1498 C1512 0.929 . S
H1499 C1513 0.931 . S
H1500 C1515 0.930 . S
C1501 H1489 0.930 . S
C1501 C1502 1.399 . S
C1501 C1506 1.399 . S
C1502 C1501 1.399 . S
C1502 C1503 1.376 . S
C1503 H1490 0.930 . S
C1503 C1502 1.376 . S
C1503 C1504 1.388 . S
C1504 H1491 0.930 . S
C1504 C1503 1.388 . S
C1504 C1505 1.390 . S
C1505 C1504 1.390 . S
C1505 C1506 1.394 . S
C1505 C1511 1.465 . S
C1506 C1501 1.399 . S
C1506 C1505 1.394 . S
C1506 C1507 1.516 . S
C1507 C1506 1.516 . S
C1507 C1508 1.502 . S
C1507 C1509 1.561 . S
C1507 C1510 1.526 . S
C1508 H1492 0.959 . S
C1508 H1493 0.959 . S
C1508 H1494 0.961 . S
C1508 C1507 1.502 . S
C1509 H1495 0.960 . S
C1509 H1496 0.961 . S
C1509 H1497 0.959 . S
C1509 C1507 1.561 . S
C1510 C1507 1.526 . S
C1510 C1511 1.396 . S
C1510 C1515 1.390 . S
C1511 C1505 1.465 . S
C1511 C1510 1.396 . S
C1511 C1512 1.399 . S
C1512 H1498 0.929 . S
C1512 C1511 1.399 . S
C1512 C1513 1.385 . S
C1513 H1499 0.931 . S
C1513 C1512 1.385 . S
C1513 C1514 1.389 . S
C1514 C1513 1.389 . S
C1514 C1515 1.387 . S
C1515 H1500 0.930 . S
C1515 C1510 1.390 . S
C1515 C1514 1.387 . S
H1516 C1528 0.930 . S
H1517 C1530 0.930 . S
H1518 C1531 0.930 . S
H1519 C1535 0.959 . S
H1520 C1535 0.959 . S
H1521 C1535 0.961 . S
H1522 C1536 0.960 . S
H1523 C1536 0.961 . S
H1524 C1536 0.959 . S
H1525 C1539 0.929 . S
H1526 C1540 0.931 . S
H1527 C1542 0.930 . S
C1528 H1516 0.930 . S
C1528 C1529 1.399 . S
C1528 C1533 1.399 . S
C1529 C1528 1.399 . S
C1529 C1530 1.376 . S
C1530 H1517 0.930 . S
C1530 C1529 1.376 . S
C1530 C1531 1.388 . S
C1531 H1518 0.930 . S
C1531 C1530 1.388 . S
C1531 C1532 1.390 . S
C1532 C1531 1.390 . S
C1532 C1533 1.394 . S
C1532 C1538 1.465 . S
C1533 C1528 1.399 . S
C1533 C1532 1.394 . S
C1533 C1534 1.516 . S
C1534 C1533 1.516 . S
C1534 C1535 1.502 . S
C1534 C1536 1.561 . S
C1534 C1537 1.526 . S
C1535 H1519 0.959 . S
C1535 H1520 0.959 . S
C1535 H1521 0.961 . S
C1535 C1534 1.502 . S
C1536 H1522 0.960 . S
C1536 H1523 0.961 . S
C1536 H1524 0.959 . S
C1536 C1534 1.561 . S
C1537 C1534 1.526 . S
C1537 C1538 1.396 . S
C1537 C1542 1.390 . S
C1538 C1532 1.465 . S
C1538 C1537 1.396 . S
C1538 C1539 1.399 . S
C1539 H1525 0.929 . S
C1539 C1538 1.399 . S
C1539 C1540 1.385 . S
C1540 H1526 0.931 . S
C1540 C1539 1.385 . S
C1540 C1541 1.389 . S
C1541 C1540 1.389 . S
C1541 C1542 1.387 . S
C1542 H1527 0.930 . S
C1542 C1537 1.390 . S
C1542 C1541 1.387 . S
H1543 C1555 0.930 . S
H1544 C1557 0.930 . S
H1545 C1558 0.930 . S
H1546 C1562 0.959 . S
H1547 C1562 0.959 . S
H1548 C1562 0.961 . S
H1549 C1563 0.960 1_455 S
H1550 C1563 0.961 1_565 S
H1551 C1563 0.959 . S
H1552 C1566 0.929 1_545 S
H1553 C1567 0.931 . S
H1554 C1569 0.930 . S
C1555 H1543 0.930 . S
C1555 C1556 1.399 . S
C1555 C1560 1.399 . S
C1556 C1555 1.399 . S
C1556 C1557 1.376 . S
C1557 H1544 0.930 . S
C1557 C1556 1.376 . S
C1557 C1558 1.388 . S
C1558 H1545 0.930 . S
C1558 C1557 1.388 . S
C1558 C1559 1.390 . S
C1559 C1558 1.390 . S
C1559 C1560 1.394 . S
C1559 C1565 1.465 1_445 S
C1560 C1555 1.399 . S
C1560 C1559 1.394 . S
C1560 C1561 1.516 1_545 S
C1561 C1560 1.516 1_565 S
C1561 C1562 1.502 . S
C1561 C1563 1.561 1_465 S
C1561 C1564 1.526 1_455 S
C1562 H1546 0.959 . S
C1562 H1547 0.959 . S
C1562 H1548 0.961 . S
C1562 C1561 1.502 . S
C1563 H1549 0.960 1_655 S
C1563 H1550 0.961 1_545 S
C1563 H1551 0.959 . S
C1563 C1561 1.561 1_645 S
C1564 C1561 1.526 1_655 S
C1564 C1565 1.396 . S
C1564 C1569 1.390 . S
C1565 C1559 1.465 1_665 S
C1565 C1564 1.396 . S
C1565 C1566 1.399 . S
C1566 H1552 0.929 1_565 S
C1566 C1565 1.399 . S
C1566 C1567 1.385 . S
C1567 H1553 0.931 . S
C1567 C1566 1.385 . S
C1567 C1568 1.389 . S
C1568 C1567 1.389 . S
C1568 C1569 1.387 . S
C1569 H1554 0.930 . S
C1569 C1564 1.390 . S
C1569 C1568 1.387 . S
H1570 C1582 0.930 . S
H1571 C1584 0.930 . S
H1572 C1585 0.930 . S
H1573 C1589 0.959 . S
H1574 C1589 0.959 . S
H1575 C1589 0.961 . S
H1576 C1590 0.960 . S
H1577 C1590 0.961 . S
H1578 C1590 0.959 . S
H1579 C1593 0.929 . S
H1580 C1594 0.931 . S
H1581 C1596 0.930 . S
C1582 H1570 0.930 . S
C1582 C1583 1.399 . S
C1582 C1587 1.399 . S
C1583 C1582 1.399 . S
C1583 C1584 1.376 . S
C1584 H1571 0.930 . S
C1584 C1583 1.376 . S
C1584 C1585 1.388 . S
C1585 H1572 0.930 . S
C1585 C1584 1.388 . S
C1585 C1586 1.390 . S
C1586 C1585 1.390 . S
C1586 C1587 1.394 . S
C1586 C1592 1.465 . S
C1587 C1582 1.399 . S
C1587 C1586 1.394 . S
C1587 C1588 1.516 . S
C1588 C1587 1.516 . S
C1588 C1589 1.502 . S
C1588 C1590 1.561 . S
C1588 C1591 1.526 . S
C1589 H1573 0.959 . S
C1589 H1574 0.959 . S
C1589 H1575 0.961 . S
C1589 C1588 1.502 . S
C1590 H1576 0.960 . S
C1590 H1577 0.961 . S
C1590 H1578 0.959 . S
C1590 C1588 1.561 . S
C1591 C1588 1.526 . S
C1591 C1592 1.396 . S
C1591 C1596 1.390 . S
C1592 C1586 1.465 . S
C1592 C1591 1.396 . S
C1592 C1593 1.399 . S
C1593 H1579 0.929 . S
C1593 C1592 1.399 . S
C1593 C1594 1.385 . S
C1594 H1580 0.931 . S
C1594 C1593 1.385 . S
C1594 C1595 1.389 . S
C1595 C1594 1.389 . S
C1595 C1596 1.387 . S
C1596 H1581 0.930 . S
C1596 C1591 1.390 . S
C1596 C1595 1.387 . S
H1597 C1609 0.930 . S
H1598 C1611 0.930 . S
H1599 C1612 0.930 1_545 S
H1600 C1616 0.959 . S
H1601 C1616 0.959 . S
H1602 C1616 0.961 . S
H1603 C1617 0.960 1_565 S
H1604 C1617 0.961 . S
H1605 C1617 0.959 . S
H1606 C1620 0.929 . S
H1607 C1621 0.931 . S
H1608 C1623 0.930 . S
C1609 H1597 0.930 . S
C1609 C1610 1.399 . S
C1609 C1614 1.399 . S
C1610 C1609 1.399 . S
C1610 C1611 1.376 . S
C1611 H1598 0.930 . S
C1611 C1610 1.376 . S
C1611 C1612 1.388 . S
C1612 H1599 0.930 1_565 S
C1612 C1611 1.388 . S
C1612 C1613 1.390 . S
C1613 C1612 1.390 . S
C1613 C1614 1.394 . S
C1613 C1619 1.465 1_565 S
C1614 C1609 1.399 . S
C1614 C1613 1.394 . S
C1614 C1615 1.516 . S
C1615 C1614 1.516 . S
C1615 C1616 1.502 . S
C1615 C1617 1.561 1_565 S
C1615 C1618 1.526 1_565 S
C1616 H1600 0.959 . S
C1616 H1601 0.959 . S
C1616 H1602 0.961 . S
C1616 C1615 1.502 . S
C1617 H1603 0.960 1_545 S
C1617 H1604 0.961 . S
C1617 H1605 0.959 . S
C1617 C1615 1.561 1_545 S
C1618 C1615 1.526 1_545 S
C1618 C1619 1.396 . S
C1618 C1623 1.390 . S
C1619 C1613 1.465 1_545 S
C1619 C1618 1.396 . S
C1619 C1620 1.399 . S
C1620 H1606 0.929 . S
C1620 C1619 1.399 . S
C1620 C1621 1.385 . S
C1621 H1607 0.931 . S
C1621 C1620 1.385 . S
C1621 C1622 1.389 . S
C1622 C1621 1.389 . S
C1622 C1623 1.387 . S
C1623 H1608 0.930 . S
C1623 C1618 1.390 . S
C1623 C1622 1.387 . S
C557 C5 1.384 . S
C569 C394 1.440 . S
C584 C39 1.410 . S
C596 C360 1.439 . S
C611 C54 1.434 . S
C623 C73 1.420 . S
C638 C20 1.436 . S
C650 C107 1.358 . S
C665 C141 1.371 . S
C677 C530 1.437 . S
C692 C175 1.403 . S
C704 C496 1.439 . S
C719 C190 1.432 . S
C731 C209 1.371 . S
C746 C243 1.373 . S
C758 C156 1.439 . S
C773 C122 1.432 . S
C785 C277 1.360 . S
C800 C88 1.435 . S
C812 C311 1.361 . S
C827 C326 1.428 . S
C839 C345 1.424 . S
C854 C292 1.428 . S
C866 C379 1.422 . S
C881 C413 1.399 . S
C893 C258 1.429 . S
C908 C447 1.370 . S
C920 C224 1.439 . S
C935 C481 1.359 . S
C947 C462 1.435 . S
C962 C428 1.438 . S
C974 C515 1.368 . S
C989 C203 1.539 . S
C1001 C9 1.511 . S
C1016 C169 1.529 . S
C1028 C43 1.480 . S
C1043 C77 1.493 . S
C1055 C407 1.531 . S
C1070 C373 1.529 . S
C1082 C111 1.475 . S
C1097 C67 1.539 . S
C1109 C145 1.508 . S
C1124 C33 1.529 . S
C1136 C179 1.496 . S
C1151 C213 1.485 . S
C1163 C543 1.530 . S
C1178 C247 1.484 . S
C1190 C509 1.530 . S
C1205 C281 1.491 . S
C1217 C475 1.540 . S
C1232 C441 1.530 . S
C1244 C315 1.481 . S
C1259 C135 1.532 . S
C1271 C349 1.482 . S
C1286 C101 1.535 . S
C1298 C383 1.516 . S
C1313 C339 1.534 . S
C1325 C417 1.475 . S
C1340 C305 1.533 . S
C1352 C451 1.473 . S
C1367 C271 1.532 . S
C1379 C485 1.482 . S
C1394 C237 1.538 . S
C1406 C519 1.529 . S
C1421 C444 1.695 1_554 S
C1433 C2 1.695 1_554 S
C1448 C36 1.690 . S
C1460 C410 1.689 . S
C1475 C70 1.686 . S
C1487 C104 1.684 . S
C1502 C308 1.684 . S
C1514 C138 1.684 . S
C1529 C172 1.683 . S
C1541 C274 1.683 . S
C1556 C206 1.685 . S
C1568 C240 1.683 . S
C1583 C376 1.685 . S
C1595 C342 1.689 . S
C1610 C512 1.693 . S
C1622 C478 1.696 . S
