# Generated by pormake.
# Topology wlk, (5)-cn, num edge types: 1
# Building blocks:
#     Node 0, Type 0, BuildingBlock: BEQFEK_clean_sbu_0, # of connection points: 5
#     Node 1, Type 0, BuildingBlock: BEQFEK_clean_sbu_0, # of connection points: 5
#     Node 2, Type 0, BuildingBlock: BEQFEK_clean_sbu_0, # of connection points: 5
#     Node 3, Type 0, BuildingBlock: BEQFEK_clean_sbu_0, # of connection points: 5
#     Node 4, Type 0, BuildingBlock: BEQFEK_clean_sbu_0, # of connection points: 5
#     Node 5, Type 0, BuildingBlock: BEQFEK_clean_sbu_0, # of connection points: 5
#     Node 6, Type 0, BuildingBlock: BEQFEK_clean_sbu_0, # of connection points: 5
#     Node 7, Type 0, BuildingBlock: BEQFEK_clean_sbu_0, # of connection points: 5
#     Node 8, Type 0, BuildingBlock: BEQFEK_clean_sbu_0, # of connection points: 5
#     Node 9, Type 0, BuildingBlock: BEQFEK_clean_sbu_0, # of connection points: 5
#     Node 10, Type 0, BuildingBlock: BEQFEK_clean_sbu_0, # of connection points: 5
#     Node 11, Type 0, BuildingBlock: BEQFEK_clean_sbu_0, # of connection points: 5
#     Node 12, Type 0, BuildingBlock: BEQFEK_clean_sbu_0, # of connection points: 5
#     Node 13, Type 0, BuildingBlock: BEQFEK_clean_sbu_0, # of connection points: 5
#     Node 14, Type 0, BuildingBlock: BEQFEK_clean_sbu_0, # of connection points: 5
#     Node 15, Type 0, BuildingBlock: BEQFEK_clean_sbu_0, # of connection points: 5
#     Node 16, Type 0, BuildingBlock: BEQFEK_clean_sbu_0, # of connection points: 5
#     Node 17, Type 0, BuildingBlock: BEQFEK_clean_sbu_0, # of connection points: 5
#     Edge 18, Type (0, 0), BuildingBlock: XIVTED_clean_linker_0, # of connection points: 2
#     Edge 19, Type (0, 0), BuildingBlock: XIVTED_clean_linker_0, # of connection points: 2
#     Edge 20, Type (0, 0), BuildingBlock: XIVTED_clean_linker_0, # of connection points: 2
#     Edge 21, Type (0, 0), BuildingBlock: XIVTED_clean_linker_0, # of connection points: 2
#     Edge 22, Type (0, 0), BuildingBlock: XIVTED_clean_linker_0, # of connection points: 2
#     Edge 23, Type (0, 0), BuildingBlock: XIVTED_clean_linker_0, # of connection points: 2
#     Edge 24, Type (0, 0), BuildingBlock: XIVTED_clean_linker_0, # of connection points: 2
#     Edge 25, Type (0, 0), BuildingBlock: XIVTED_clean_linker_0, # of connection points: 2
#     Edge 26, Type (0, 0), BuildingBlock: XIVTED_clean_linker_0, # of connection points: 2
#     Edge 27, Type (0, 0), BuildingBlock: XIVTED_clean_linker_0, # of connection points: 2
#     Edge 28, Type (0, 0), BuildingBlock: XIVTED_clean_linker_0, # of connection points: 2
#     Edge 29, Type (0, 0), BuildingBlock: XIVTED_clean_linker_0, # of connection points: 2
#     Edge 30, Type (0, 0), BuildingBlock: XIVTED_clean_linker_0, # of connection points: 2
#     Edge 31, Type (0, 0), BuildingBlock: XIVTED_clean_linker_0, # of connection points: 2
#     Edge 32, Type (0, 0), BuildingBlock: XIVTED_clean_linker_0, # of connection points: 2
#     Edge 33, Type (0, 0), BuildingBlock: XIVTED_clean_linker_0, # of connection points: 2
#     Edge 34, Type (0, 0), BuildingBlock: XIVTED_clean_linker_0, # of connection points: 2
#     Edge 35, Type (0, 0), BuildingBlock: XIVTED_clean_linker_0, # of connection points: 2
#     Edge 36, Type (0, 0), BuildingBlock: XIVTED_clean_linker_0, # of connection points: 2
#     Edge 37, Type (0, 0), BuildingBlock: XIVTED_clean_linker_0, # of connection points: 2
#     Edge 38, Type (0, 0), BuildingBlock: XIVTED_clean_linker_0, # of connection points: 2
#     Edge 39, Type (0, 0), BuildingBlock: XIVTED_clean_linker_0, # of connection points: 2
#     Edge 40, Type (0, 0), BuildingBlock: XIVTED_clean_linker_0, # of connection points: 2
#     Edge 41, Type (0, 0), BuildingBlock: XIVTED_clean_linker_0, # of connection points: 2
#     Edge 42, Type (0, 0), BuildingBlock: XIVTED_clean_linker_0, # of connection points: 2
#     Edge 43, Type (0, 0), BuildingBlock: XIVTED_clean_linker_0, # of connection points: 2
#     Edge 44, Type (0, 0), BuildingBlock: XIVTED_clean_linker_0, # of connection points: 2
#     Edge 45, Type (0, 0), BuildingBlock: XIVTED_clean_linker_0, # of connection points: 2
#     Edge 46, Type (0, 0), BuildingBlock: XIVTED_clean_linker_0, # of connection points: 2
#     Edge 47, Type (0, 0), BuildingBlock: XIVTED_clean_linker_0, # of connection points: 2
#     Edge 48, Type (0, 0), BuildingBlock: XIVTED_clean_linker_0, # of connection points: 2
#     Edge 49, Type (0, 0), BuildingBlock: XIVTED_clean_linker_0, # of connection points: 2
#     Edge 50, Type (0, 0), BuildingBlock: XIVTED_clean_linker_0, # of connection points: 2
#     Edge 51, Type (0, 0), BuildingBlock: XIVTED_clean_linker_0, # of connection points: 2
#     Edge 52, Type (0, 0), BuildingBlock: XIVTED_clean_linker_0, # of connection points: 2
#     Edge 53, Type (0, 0), BuildingBlock: XIVTED_clean_linker_0, # of connection points: 2
#     Edge 54, Type (0, 0), BuildingBlock: XIVTED_clean_linker_0, # of connection points: 2
#     Edge 55, Type (0, 0), BuildingBlock: XIVTED_clean_linker_0, # of connection points: 2
#     Edge 56, Type (0, 0), BuildingBlock: XIVTED_clean_linker_0, # of connection points: 2
#     Edge 57, Type (0, 0), BuildingBlock: XIVTED_clean_linker_0, # of connection points: 2
#     Edge 58, Type (0, 0), BuildingBlock: XIVTED_clean_linker_0, # of connection points: 2
#     Edge 59, Type (0, 0), BuildingBlock: XIVTED_clean_linker_0, # of connection points: 2
#     Edge 60, Type (0, 0), BuildingBlock: XIVTED_clean_linker_0, # of connection points: 2
#     Edge 61, Type (0, 0), BuildingBlock: XIVTED_clean_linker_0, # of connection points: 2
#     Edge 62, Type (0, 0), BuildingBlock: XIVTED_clean_linker_0, # of connection points: 2
# Relax obj value: 0.045
# Max RMSD: 0.100
# Mean RMSD: 0.100
data_MOF--net-wlk--node1-BEQFEK_clean_sbu_0--edge1-XIVTED_clean_linker_0
_symmetry_space_group_name_H-M    P1
_symmetry_Int_Tables_number       1
_symmetry_cell_setting            triclinic
loop_
_symmetry_equiv_pos_as_xyz
'x, y, z'
_cell_length_a     65.428434
_cell_length_b     65.42036
_cell_length_c     31.403945
_cell_angle_alpha  90.002711
_cell_angle_beta   89.983077
_cell_angle_gamma 120.00125
loop_
_atom_site_label
_atom_site_type_symbol
_atom_site_fract_x
_atom_site_fract_y
_atom_site_fract_z
_atom_type_partial_charge
Co0 Co 0.21994 0.26306 0.16595 0.0
Co1 Co 0.1787 0.25656 0.10639 0.0
C2 C 0.19298 0.21992 0.11114 0.0
O3 O 0.20869 0.23221 0.13851 0.0
O4 O 0.17954 0.2269 0.09562 0.0
C5 C 0.23879 0.25087 0.23755 0.0
O6 O 0.21718 0.23303 0.24152 0.0
C7 C 0.13176 0.23601 0.06598 0.0
C8 C 0.13459 0.26732 0.03358 0.0
C9 C 0.11982 0.24326 0.03887 0.0
N10 N 0.15265 0.25499 0.07606 0.0
N11 N 0.15409 0.27365 0.05691 0.0
C12 C 0.12494 0.21132 0.07824 0.0
H13 H 0.13333 0.20463 0.05573 0.0
H14 H 0.13157 0.21116 0.11071 0.0
H15 H 0.10559 0.19937 0.07692 0.0
C16 C 0.19433 0.27586 0.22731 0.0
N17 N 0.19525 0.26614 0.19011 0.0
N18 N 0.17767 0.26329 0.16563 0.0
C19 C 0.16483 0.27095 0.18694 0.0
C20 C 0.17508 0.27931 0.22664 0.0
C21 C 0.21305 0.28401 0.26091 0.0
H22 H 0.2307 0.29474 0.24613 0.0
H23 H 0.21236 0.26839 0.27606 0.0
H24 H 0.21058 0.29438 0.28623 0.0
O25 O 0.2366 0.28849 0.12396 0.0
O26 O 0.20752 0.28308 0.08041 0.0
H27 H 0.15327 0.28762 0.14228 0.0
H28 H 0.13645 0.27884 0.19113 0.0
C29 C 0.14558 0.27376 0.16719 0.0
H30 H 0.1326 0.25697 0.15175 0.0
H31 H 0.16874 0.29061 0.0587 0.0
O32 O 0.24347 0.26608 0.20849 0.0
C33 C 0.22923 0.29416 0.09102 0.0
Co34 Co 0.72943 0.95214 0.16866 0.0
Co35 Co 0.73794 0.91821 0.10983 0.0
C36 C 0.77143 0.97003 0.1097 0.0
O37 O 0.75871 0.97251 0.13748 0.0
O38 O 0.76608 0.94964 0.09584 0.0
C39 C 0.74452 0.98822 0.23095 0.0
O40 O 0.76537 0.99162 0.21992 0.0
C41 C 0.75997 0.89375 0.06735 0.0
C42 C 0.72884 0.85884 0.05422 0.0
C43 C 0.75314 0.87174 0.05023 0.0
N44 N 0.74056 0.89384 0.0812 0.0
N45 N 0.722 0.87299 0.07278 0.0
C46 C 0.78456 0.91399 0.07223 0.0
H47 H 0.78656 0.92239 0.10383 0.0
H48 H 0.79776 0.90817 0.06867 0.0
H49 H 0.78784 0.92738 0.04744 0.0
C50 C 0.72091 0.9159 0.23167 0.0
N51 N 0.72923 0.92589 0.19342 0.0
N52 N 0.73324 0.91169 0.16972 0.0
C53 C 0.72784 0.89217 0.19274 0.0
C54 C 0.71964 0.89408 0.2326 0.0
C55 C 0.71041 0.92528 0.26314 0.0
H56 H 0.69866 0.9303 0.24631 0.0
H57 H 0.7248 0.94139 0.27826 0.0
H58 H 0.70013 0.91228 0.28829 0.0
O59 O 0.7032 0.94149 0.12805 0.0
O60 O 0.70941 0.91773 0.08603 0.0
H61 H 0.71261 0.86039 0.15627 0.0
H62 H 0.72866 0.85996 0.20248 0.0
C63 C 0.72851 0.87112 0.176 0.0
H64 H 0.74444 0.87686 0.15606 0.0
H65 H 0.70466 0.86833 0.08026 0.0
O66 O 0.72619 0.97184 0.21312 0.0
C67 C 0.69758 0.9277 0.09614 0.0
Co68 Co 0.0444 0.7796 0.16291 0.0
Co69 Co 0.08134 0.82001 0.10446 0.0
C70 C 0.03077 0.80745 0.10516 0.0
O71 O 0.02591 0.79175 0.13342 0.0
O72 O 0.05169 0.82004 0.09112 0.0
C73 C 0.01291 0.762 0.23418 0.0
O74 O 0.0177 0.78396 0.23797 0.0
C75 C 0.10911 0.86636 0.06304 0.0
C76 C 0.13754 0.86249 0.03296 0.0
C77 C 0.12862 0.87767 0.03646 0.0
N78 N 0.10666 0.84544 0.07457 0.0
N79 N 0.12385 0.84337 0.05683 0.0
C80 C 0.09136 0.8737 0.07319 0.0
H81 H 0.07668 0.86539 0.04988 0.0
H82 H 0.08395 0.86739 0.10546 0.0
H83 H 0.09913 0.89309 0.07125 0.0
C84 C 0.08256 0.804 0.22566 0.0
N85 N 0.07246 0.80365 0.18811 0.0
N86 N 0.08796 0.82093 0.16396 0.0
C87 C 0.10839 0.833 0.18577 0.0
C88 C 0.1057 0.82255 0.22549 0.0
C89 C 0.07106 0.7853 0.25911 0.0
H90 H 0.06353 0.76759 0.24428 0.0
H91 H 0.05647 0.78676 0.27386 0.0
H92 H 0.08349 0.78713 0.28478 0.0
O93 O 0.05276 0.762 0.12191 0.0
O94 O 0.07831 0.79079 0.07978 0.0
H95 H 0.1369 0.84296 0.14226 0.0
H96 H 0.14514 0.86025 0.19049 0.0
C97 C 0.13106 0.8514 0.16627 0.0
H98 H 0.12821 0.86478 0.14985 0.0
H99 H 0.12574 0.82851 0.0598 0.0
O100 O 0.02292 0.7566 0.20522 0.0
C101 C 0.06657 0.76905 0.08991 0.0
Co102 Co 0.77968 0.73737 0.83686 0.0
Co103 Co 0.82104 0.73989 0.89178 0.0
C104 C 0.80714 0.7773 0.89675 0.0
O105 O 0.79164 0.76741 0.86786 0.0
O106 O 0.81953 0.76845 0.90944 0.0
C107 C 0.75626 0.75336 0.78041 0.0
O108 O 0.77224 0.77429 0.79423 0.0
C109 C 0.86761 0.7601 0.93294 0.0
C110 C 0.87045 0.72834 0.94499 0.0
C111 C 0.88227 0.7526 0.94989 0.0
N112 N 0.84795 0.74112 0.91832 0.0
N113 N 0.84969 0.72217 0.92599 0.0
C114 C 0.87238 0.78492 0.92992 0.0
H115 H 0.86644 0.78777 0.89852 0.0
H116 H 0.89142 0.79781 0.93439 0.0
H117 H 0.86217 0.78785 0.95502 0.0
C118 C 0.8045 0.72744 0.76946 0.0
N119 N 0.80401 0.73503 0.80906 0.0
N120 N 0.82166 0.73631 0.8313 0.0
C121 C 0.83404 0.72961 0.80612 0.0
C122 C 0.82336 0.72345 0.76624 0.0
C123 C 0.78583 0.7219 0.73667 0.0
H124 H 0.78395 0.73765 0.73158 0.0
H125 H 0.79021 0.71677 0.70579 0.0
H126 H 0.76868 0.70736 0.7484 0.0
O127 O 0.76328 0.71091 0.87772 0.0
O128 O 0.7927 0.71191 0.91492 0.0
H129 H 0.84531 0.70902 0.84097 0.0
H130 H 0.86327 0.72355 0.7952 0.0
C131 C 0.85325 0.72547 0.82185 0.0
H132 H 0.86558 0.74039 0.84229 0.0
H133 H 0.83667 0.705 0.91833 0.0
O134 O 0.75615 0.73511 0.79457 0.0
C135 C 0.77076 0.70265 0.90672 0.0
Co136 Co 0.26772 0.04555 0.82876 0.0
Co137 Co 0.26098 0.07956 0.89027 0.0
C138 C 0.22524 0.02851 0.88622 0.0
O139 O 0.23764 0.02542 0.85858 0.0
O140 O 0.23169 0.04891 0.90131 0.0
C141 C 0.25186 0.0106 0.764 0.0
O142 O 0.23122 0.00794 0.77445 0.0
C143 C 0.24042 0.1053 0.93286 0.0
C144 C 0.27195 0.1343 0.96378 0.0
C145 C 0.24776 0.12459 0.95976 0.0
N146 N 0.25946 0.10376 0.92165 0.0
N147 N 0.27825 0.12128 0.93994 0.0
C148 C 0.21567 0.08706 0.92162 0.0
H149 H 0.2151 0.08086 0.8885 0.0
H150 H 0.20329 0.09386 0.92514 0.0
H151 H 0.20985 0.07169 0.94317 0.0
C152 C 0.27792 0.08334 0.76811 0.0
N153 N 0.26939 0.07292 0.80595 0.0
N154 N 0.26677 0.0875 0.83119 0.0
C155 C 0.27362 0.10785 0.8099 0.0
C156 C 0.28095 0.10591 0.7692 0.0
C157 C 0.28703 0.07338 0.73502 0.0
H158 H 0.29843 0.06745 0.7504 0.0
H159 H 0.2719 0.05776 0.72018 0.0
H160 H 0.29732 0.08634 0.70983 0.0
O161 O 0.29402 0.0547 0.86915 0.0
O162 O 0.28788 0.07729 0.91432 0.0
H163 H 0.29003 0.13702 0.85277 0.0
H164 H 0.27843 0.14296 0.80502 0.0
C165 C 0.2753 0.12947 0.82951 0.0
H166 H 0.25874 0.12468 0.84686 0.0
H167 H 0.2953 0.12393 0.9371 0.0
O168 O 0.27027 0.02612 0.78301 0.0
C169 C 0.29943 0.0673 0.90268 0.0
Co170 Co 0.95679 0.22153 0.83604 0.0
Co171 Co 0.92014 0.18013 0.89319 0.0
C172 C 0.97032 0.19187 0.88948 0.0
O173 O 0.9747 0.20812 0.86267 0.0
O174 O 0.94966 0.17907 0.90464 0.0
C175 C 0.98758 0.23942 0.76398 0.0
O176 O 0.98212 0.21732 0.75897 0.0
C177 C 0.88896 0.13249 0.92951 0.0
C178 C 0.86316 0.13893 0.96347 0.0
C179 C 0.869 0.12159 0.95557 0.0
N180 N 0.8944 0.155 0.9229 0.0
N181 N 0.87888 0.15866 0.94326 0.0
C182 C 0.90216 0.12184 0.90931 0.0
H183 H 0.91259 0.13268 0.88176 0.0
H184 H 0.88975 0.10356 0.89859 0.0
H185 H 0.91454 0.12137 0.93291 0.0
C186 C 0.91812 0.19825 0.7736 0.0
N187 N 0.92835 0.19813 0.81072 0.0
N188 N 0.91313 0.18022 0.83406 0.0
C189 C 0.89273 0.16821 0.81215 0.0
C190 C 0.89519 0.17932 0.77318 0.0
C191 C 0.92945 0.21739 0.74089 0.0
H192 H 0.94354 0.21573 0.72449 0.0
H193 H 0.91677 0.21628 0.71634 0.0
H194 H 0.93762 0.2349 0.75664 0.0
O195 O 0.94954 0.23889 0.87936 0.0
O196 O 0.92344 0.20924 0.91913 0.0
H197 H 0.86471 0.15633 0.85743 0.0
H198 H 0.85592 0.14107 0.80706 0.0
C199 C 0.87029 0.14899 0.83096 0.0
H200 H 0.87339 0.13505 0.84416 0.0
H201 H 0.87909 0.17471 0.94357 0.0
O202 O 0.97824 0.24488 0.79408 0.0
C203 C 0.93544 0.23121 0.91088 0.0
Co204 Co 0.88737 0.60217 0.49826 0.0
Co205 Co 0.84648 0.59503 0.43723 0.0
C206 C 0.86084 0.55861 0.44391 0.0
O207 O 0.87645 0.57126 0.47114 0.0
O208 O 0.84723 0.56523 0.42784 0.0
C209 C 0.92537 0.59979 0.53299 0.0
O210 O 0.92598 0.59315 0.49374 0.0
C211 C 0.80003 0.57464 0.39543 0.0
C212 C 0.80359 0.60582 0.36134 0.0
C213 C 0.78857 0.58185 0.36715 0.0
N214 N 0.82091 0.59356 0.40567 0.0
N215 N 0.82279 0.61215 0.38553 0.0
C216 C 0.79282 0.54998 0.40868 0.0
H217 H 0.80102 0.54284 0.38673 0.0
H218 H 0.79932 0.55003 0.44135 0.0
H219 H 0.77342 0.53829 0.40737 0.0
C220 C 0.86092 0.61427 0.55821 0.0
N221 N 0.86221 0.60479 0.52107 0.0
N222 N 0.84498 0.60217 0.49591 0.0
C223 C 0.83218 0.61014 0.51645 0.0
C224 C 0.84203 0.6183 0.55655 0.0
C225 C 0.87898 0.62153 0.59279 0.0
H226 H 0.88189 0.60663 0.6004 0.0
H227 H 0.87336 0.62684 0.62212 0.0
H228 H 0.89596 0.63648 0.58141 0.0
O229 O 0.90448 0.62768 0.45628 0.0
O230 O 0.87548 0.62117 0.4116 0.0
H231 H 0.82187 0.62708 0.47006 0.0
H232 H 0.80464 0.61936 0.51837 0.0
C233 C 0.8136 0.61356 0.49542 0.0
H234 H 0.80035 0.5968 0.48026 0.0
H235 H 0.83756 0.62904 0.38721 0.0
O236 O 0.90988 0.60522 0.54303 0.0
C237 C 0.8971 0.63269 0.42254 0.0
Co238 Co 0.40069 0.2882 0.49894 0.0
Co239 Co 0.40745 0.25406 0.43811 0.0
C240 C 0.44315 0.30506 0.44145 0.0
O241 O 0.43067 0.3082 0.46883 0.0
O242 O 0.43675 0.28463 0.42662 0.0
C243 C 0.41639 0.32468 0.56104 0.0
O244 O 0.43732 0.32871 0.54912 0.0
C245 C 0.42786 0.22828 0.39547 0.0
C246 C 0.39614 0.19892 0.36564 0.0
C247 C 0.42038 0.20884 0.36895 0.0
N248 N 0.40883 0.22973 0.40714 0.0
N249 N 0.38994 0.21202 0.38951 0.0
C250 C 0.45266 0.24674 0.40583 0.0
H251 H 0.45803 0.26207 0.38437 0.0
H252 H 0.45356 0.25292 0.43906 0.0
H253 H 0.46518 0.24017 0.40149 0.0
C254 C 0.39073 0.25083 0.5603 0.0
N255 N 0.39922 0.26107 0.52232 0.0
N256 N 0.40177 0.24636 0.49732 0.0
C257 C 0.3949 0.2261 0.5189 0.0
C258 C 0.38762 0.22822 0.55954 0.0
C259 C 0.38169 0.26098 0.59313 0.0
H260 H 0.36983 0.26633 0.57769 0.0
H261 H 0.3968 0.27703 0.60697 0.0
H262 H 0.37189 0.24836 0.61907 0.0
O263 O 0.37415 0.2786 0.45898 0.0
O264 O 0.38045 0.25607 0.41396 0.0
H265 H 0.3782 0.19667 0.47664 0.0
H266 H 0.39007 0.191 0.52431 0.0
C267 C 0.39308 0.20435 0.4996 0.0
H268 H 0.40953 0.20901 0.48198 0.0
H269 H 0.37287 0.20927 0.3928 0.0
O270 O 0.39806 0.30782 0.5441 0.0
C271 C 0.36874 0.26588 0.42562 0.0
Co272 Co 0.70894 0.11152 0.50119 0.0
Co273 Co 0.74542 0.15237 0.44225 0.0
C274 C 0.69465 0.13917 0.44406 0.0
O275 O 0.6904 0.12342 0.47187 0.0
O276 O 0.71537 0.15212 0.4293 0.0
C277 C 0.67138 0.09031 0.56164 0.0
O278 O 0.66747 0.1072 0.54916 0.0
C279 C 0.77291 0.19866 0.40012 0.0
C280 C 0.80186 0.19514 0.37145 0.0
C281 C 0.79264 0.21009 0.37403 0.0
N282 N 0.77065 0.1779 0.41226 0.0
N283 N 0.78814 0.17604 0.39533 0.0
C284 C 0.75487 0.20574 0.40932 0.0
H285 H 0.74776 0.20008 0.44196 0.0
H286 H 0.76224 0.22502 0.40587 0.0
H287 H 0.74003 0.19662 0.38654 0.0
C288 C 0.7464 0.13713 0.56395 0.0
N289 N 0.7367 0.13616 0.52574 0.0
N290 N 0.75212 0.15352 0.50167 0.0
C291 C 0.77228 0.16608 0.52403 0.0
C292 C 0.76937 0.15595 0.56419 0.0
C293 C 0.73458 0.11889 0.59799 0.0
H294 H 0.71721 0.1171 0.60554 0.0
H295 H 0.74529 0.12363 0.62754 0.0
H296 H 0.73146 0.10158 0.58611 0.0
O297 O 0.71718 0.09407 0.45946 0.0
O298 O 0.74308 0.12325 0.41841 0.0
H299 H 0.80117 0.17642 0.48126 0.0
H300 H 0.80882 0.19382 0.52932 0.0
C301 C 0.79494 0.18471 0.50486 0.0
H302 H 0.79189 0.19783 0.48797 0.0
H303 H 0.79026 0.16134 0.39894 0.0
O304 O 0.68851 0.08894 0.54561 0.0
C305 C 0.73134 0.10141 0.42794 0.0
Co306 Co 0.44381 0.06672 0.1699 0.0
Co307 Co 0.48625 0.07421 0.22706 0.0
C308 C 0.47267 0.11116 0.22085 0.0
O309 O 0.45641 0.09841 0.19468 0.0
O310 O 0.48607 0.1042 0.23661 0.0
C311 C 0.42588 0.07676 0.09457 0.0
O312 O 0.44826 0.09165 0.08679 0.0
C313 C 0.53308 0.09443 0.26771 0.0
C314 C 0.53039 0.06262 0.29778 0.0
C315 C 0.54497 0.08679 0.29402 0.0
N316 N 0.51236 0.07554 0.25656 0.0
N317 N 0.51102 0.05658 0.27427 0.0
C318 C 0.53984 0.11931 0.25714 0.0
H319 H 0.53084 0.12532 0.27964 0.0
H320 H 0.53385 0.12014 0.22444 0.0
H321 H 0.55914 0.13136 0.25988 0.0
C322 C 0.46797 0.05156 0.10876 0.0
N323 N 0.4677 0.06225 0.14524 0.0
N324 N 0.48619 0.06649 0.1684 0.0
C325 C 0.49909 0.05904 0.14685 0.0
C326 C 0.48796 0.04928 0.10836 0.0
C327 C 0.44742 0.03985 0.0789 0.0
H328 H 0.43068 0.03432 0.09617 0.0
H329 H 0.44942 0.05251 0.0535 0.0
H330 H 0.44647 0.02411 0.06363 0.0
O331 O 0.42742 0.04278 0.2146 0.0
O332 O 0.45777 0.04815 0.25444 0.0
H333 H 0.51537 0.04536 0.18799 0.0
H334 H 0.53092 0.05719 0.13847 0.0
C335 C 0.52069 0.05966 0.16415 0.0
H336 H 0.53203 0.07679 0.1802 0.0
H337 H 0.49648 0.03961 0.27147 0.0
O338 O 0.42016 0.06388 0.12765 0.0
C339 C 0.43571 0.03739 0.24663 0.0
Co340 Co 0.93213 0.37911 0.16652 0.0
Co341 Co 0.92444 0.41267 0.22783 0.0
C342 C 0.88948 0.36138 0.22409 0.0
O343 O 0.90213 0.35862 0.1965 0.0
O344 O 0.89549 0.38171 0.23909 0.0
C345 C 0.91734 0.34316 0.10337 0.0
O346 O 0.89622 0.33882 0.11476 0.0
C347 C 0.90518 0.44044 0.26933 0.0
C348 C 0.93671 0.46642 0.30481 0.0
C349 C 0.9131 0.45903 0.29811 0.0
N350 N 0.92334 0.437 0.2598 0.0
N351 N 0.94214 0.45279 0.28082 0.0
C352 C 0.88057 0.42536 0.25315 0.0
H353 H 0.87832 0.40899 0.23839 0.0
H354 H 0.87692 0.43529 0.22857 0.0
H355 H 0.86768 0.42098 0.27944 0.0
C356 C 0.94196 0.4168 0.10592 0.0
N357 N 0.93334 0.40627 0.14364 0.0
N358 N 0.93021 0.4206 0.16869 0.0
C359 C 0.93673 0.44086 0.14736 0.0
C360 C 0.94445 0.43917 0.10682 0.0
C361 C 0.95168 0.4072 0.07331 0.0
H362 H 0.96314 0.4015 0.08922 0.0
H363 H 0.93687 0.39146 0.05807 0.0
H364 H 0.96213 0.42028 0.0484 0.0
O365 O 0.9585 0.38866 0.20672 0.0
O366 O 0.9515 0.41066 0.25178 0.0
H367 H 0.95191 0.46981 0.19088 0.0
H368 H 0.94077 0.47568 0.14239 0.0
C369 C 0.93759 0.46215 0.16681 0.0
H370 H 0.92068 0.45689 0.18324 0.0
H371 H 0.95858 0.45385 0.27971 0.0
O372 O 0.93539 0.35997 0.12104 0.0
C373 C 0.9635 0.40114 0.24031 0.0
Co374 Co 0.62169 0.55557 0.1658 0.0
Co375 Co 0.5867 0.51431 0.22544 0.0
C376 C 0.63753 0.52849 0.22142 0.0
O377 O 0.64109 0.54422 0.19398 0.0
O378 O 0.61706 0.5151 0.23678 0.0
C379 C 0.65702 0.57525 0.10142 0.0
O380 O 0.65975 0.55725 0.11131 0.0
C381 C 0.56019 0.46808 0.26796 0.0
C382 C 0.53096 0.47098 0.29704 0.0
C383 C 0.54058 0.45638 0.29417 0.0
N384 N 0.56203 0.48869 0.25601 0.0
N385 N 0.54438 0.49018 0.27317 0.0
C386 C 0.57839 0.46131 0.25812 0.0
H387 H 0.59352 0.47085 0.28017 0.0
H388 H 0.585 0.46674 0.22513 0.0
H389 H 0.57135 0.44211 0.26208 0.0
C390 C 0.58336 0.52943 0.10464 0.0
N391 N 0.5938 0.53065 0.14219 0.0
N392 N 0.57924 0.51291 0.16648 0.0
C393 C 0.55901 0.49963 0.14483 0.0
C394 C 0.56086 0.50971 0.10493 0.0
C395 C 0.59332 0.54904 0.07262 0.0
H396 H 0.60027 0.56622 0.08922 0.0
H397 H 0.60826 0.54908 0.05582 0.0
H398 H 0.58002 0.54735 0.04892 0.0
O399 O 0.61361 0.5728 0.20814 0.0
O400 O 0.58878 0.54325 0.24976 0.0
H401 H 0.52909 0.48508 0.18618 0.0
H402 H 0.52481 0.46824 0.13805 0.0
C403 C 0.53767 0.47881 0.16326 0.0
H404 H 0.54299 0.46747 0.18067 0.0
H405 H 0.54191 0.50466 0.26961 0.0
O406 O 0.64141 0.57792 0.12061 0.0
C407 C 0.59989 0.56512 0.24025 0.0
Co408 Co 0.55241 0.93069 0.83363 0.0
Co409 Co 0.51071 0.92485 0.77557 0.0
C410 C 0.52522 0.88836 0.77709 0.0
O411 O 0.54089 0.9002 0.80478 0.0
O412 O 0.51192 0.89565 0.76218 0.0
C413 C 0.57277 0.91442 0.89545 0.0
O414 O 0.55515 0.89372 0.8843 0.0
C415 C 0.46435 0.90433 0.73356 0.0
C416 C 0.46176 0.93613 0.72015 0.0
C417 C 0.44973 0.9118 0.71627 0.0
N418 N 0.48417 0.92341 0.74734 0.0
N419 N 0.4826 0.94237 0.7388 0.0
C420 C 0.45917 0.87947 0.73869 0.0
H421 H 0.46493 0.87717 0.77069 0.0
H422 H 0.44009 0.86669 0.7344 0.0
H423 H 0.46934 0.87584 0.71456 0.0
C424 C 0.52687 0.94233 0.89675 0.0
N425 N 0.52772 0.93337 0.85866 0.0
N426 N 0.50962 0.93008 0.83534 0.0
C427 C 0.49634 0.93648 0.85851 0.0
C428 C 0.50694 0.94471 0.89802 0.0
C429 C 0.54697 0.95218 0.92775 0.0
H430 H 0.56386 0.96265 0.91037 0.0
H431 H 0.54752 0.93738 0.94391 0.0
H432 H 0.54542 0.96359 0.95208 0.0
O433 O 0.56905 0.95623 0.7916 0.0
O434 O 0.53938 0.9523 0.75115 0.0
H435 H 0.48015 0.95221 0.82238 0.0
H436 H 0.46383 0.93663 0.86909 0.0
C437 C 0.47477 0.93634 0.84232 0.0
H438 H 0.4641 0.92038 0.82271 0.0
H439 H 0.49568 0.95957 0.74615 0.0
O440 O 0.57503 0.93296 0.87791 0.0
C441 C 0.5613 0.96278 0.7603 0.0
Co442 Co 0.06632 0.62191 0.82987 0.0
Co443 Co 0.07357 0.58669 0.77293 0.0
C444 C 0.11104 0.63697 0.77994 0.0
O445 O 0.0982 0.64065 0.80561 0.0
O446 O 0.10405 0.61655 0.76444 0.0
C447 C 0.07623 0.64972 0.90529 0.0
O448 O 0.09077 0.64186 0.91353 0.0
C449 C 0.0931 0.55976 0.73073 0.0
C450 C 0.06069 0.53022 0.70312 0.0
C451 C 0.08495 0.53994 0.70496 0.0
N452 N 0.07443 0.56162 0.74338 0.0
N453 N 0.05513 0.54376 0.72711 0.0
C454 C 0.11818 0.57817 0.73923 0.0
H455 H 0.11996 0.58448 0.77257 0.0
H456 H 0.13047 0.57144 0.73341 0.0
H457 H 0.12309 0.59343 0.71783 0.0
C458 C 0.05029 0.58258 0.89103 0.0
N459 N 0.06104 0.59331 0.85445 0.0
N460 N 0.06496 0.57878 0.83144 0.0
C461 C 0.05722 0.55845 0.85329 0.0
C462 C 0.04768 0.56019 0.89181 0.0
C463 C 0.03886 0.59179 0.92079 0.0
H464 H 0.03359 0.60317 0.90342 0.0
H465 H 0.05156 0.6023 0.94623 0.0
H466 H 0.02297 0.57718 0.93606 0.0
O467 O 0.04302 0.61511 0.78448 0.0
O468 O 0.04873 0.5906 0.74391 0.0
H469 H 0.04299 0.52809 0.81309 0.0
H470 H 0.05521 0.52476 0.86241 0.0
C471 C 0.05754 0.53723 0.8364 0.0
H472 H 0.07449 0.54276 0.81984 0.0
H473 H 0.03821 0.5413 0.73118 0.0
O474 O 0.06363 0.64287 0.87187 0.0
C475 C 0.0382 0.60215 0.75155 0.0
Co476 Co 0.37573 0.44312 0.83105 0.0
Co477 Co 0.41145 0.48606 0.77554 0.0
C478 C 0.36031 0.47102 0.77727 0.0
O479 O 0.35664 0.45511 0.80435 0.0
O480 O 0.38087 0.48462 0.76247 0.0
C481 C 0.34613 0.42382 0.90418 0.0
O482 O 0.35288 0.446 0.91244 0.0
C483 C 0.43721 0.53283 0.73429 0.0
C484 C 0.47186 0.53581 0.72188 0.0
C485 C 0.45938 0.5476 0.71742 0.0
N486 N 0.43661 0.51313 0.74849 0.0
N487 N 0.45731 0.51496 0.74057 0.0
C488 C 0.41715 0.53754 0.73777 0.0
H489 H 0.40903 0.5323 0.76984 0.0
H490 H 0.42307 0.55643 0.73195 0.0
H491 H 0.4035 0.52663 0.7139 0.0
C492 C 0.4133 0.46751 0.8951 0.0
N493 N 0.40313 0.4672 0.85761 0.0
N494 N 0.41755 0.48605 0.83537 0.0
C495 C 0.4371 0.49934 0.85886 0.0
C496 C 0.43514 0.48796 0.89731 0.0
C497 C 0.40433 0.4467 0.92441 0.0
H498 H 0.39392 0.43005 0.90642 0.0
H499 H 0.39287 0.44805 0.94897 0.0
H500 H 0.41904 0.44612 0.94083 0.0
O501 O 0.38488 0.42765 0.78747 0.0
O502 O 0.4109 0.45815 0.74898 0.0
H503 H 0.46939 0.51774 0.82411 0.0
H504 H 0.46846 0.53266 0.87155 0.0
C505 C 0.45794 0.52186 0.84405 0.0
H506 H 0.45202 0.53217 0.82487 0.0
H507 H 0.46154 0.50199 0.74817 0.0
O508 O 0.35433 0.41877 0.87173 0.0
C509 C 0.39943 0.43606 0.75667 0.0
Co510 Co 0.11015 0.39945 0.4986 0.0
Co511 Co 0.15216 0.40645 0.55673 0.0
C512 C 0.13763 0.44281 0.55318 0.0
O513 O 0.12159 0.43025 0.52652 0.0
O514 O 0.15148 0.43614 0.56786 0.0
C515 C 0.09231 0.41248 0.42721 0.0
O516 O 0.11427 0.42969 0.42375 0.0
C517 C 0.19966 0.4253 0.59592 0.0
C518 C 0.19404 0.39388 0.63188 0.0
C519 C 0.21037 0.41741 0.62464 0.0
N520 N 0.17792 0.40723 0.58702 0.0
N521 N 0.17489 0.38847 0.60822 0.0
C522 C 0.20922 0.44991 0.57966 0.0
H523 H 0.19539 0.4519 0.56309 0.0
H524 H 0.22361 0.45396 0.55663 0.0
H525 H 0.21674 0.4627 0.60633 0.0
C526 C 0.1353 0.38641 0.43655 0.0
N527 N 0.13473 0.39634 0.47373 0.0
N528 N 0.15265 0.39952 0.49754 0.0
C529 C 0.16537 0.39186 0.47583 0.0
C530 C 0.15469 0.38318 0.43654 0.0
C531 C 0.1162 0.37793 0.40362 0.0
H532 H 0.0987 0.36773 0.41915 0.0
H533 H 0.11703 0.39341 0.3876 0.0
H534 H 0.11813 0.36696 0.37883 0.0
O535 O 0.09355 0.37394 0.54059 0.0
O536 O 0.12332 0.38024 0.58309 0.0
H537 H 0.17772 0.37605 0.52086 0.0
H538 H 0.19363 0.3838 0.47099 0.0
C539 C 0.18494 0.38937 0.49499 0.0
H540 H 0.1982 0.40645 0.50917 0.0
H541 H 0.15936 0.37213 0.60771 0.0
O542 O 0.08681 0.39704 0.45618 0.0
C543 C 0.10149 0.36883 0.57345 0.0
Co544 Co 0.59709 0.70966 0.50436 0.0
Co545 Co 0.59227 0.7464 0.56131 0.0
C546 C 0.55528 0.69537 0.56158 0.0
O547 O 0.56647 0.69072 0.5337 0.0
O548 O 0.56315 0.71628 0.57535 0.0
C549 C 0.58126 0.67275 0.44292 0.0
O550 O 0.56038 0.66916 0.45419 0.0
C551 C 0.57219 0.77329 0.60043 0.0
C552 C 0.60386 0.80283 0.62999 0.0
C553 C 0.57967 0.79308 0.62599 0.0
N554 N 0.59116 0.77149 0.58992 0.0
N555 N 0.61004 0.78933 0.60731 0.0
C556 C 0.54737 0.75486 0.59012 0.0
H557 H 0.54674 0.74716 0.55832 0.0
H558 H 0.53528 0.76212 0.59085 0.0
H559 H 0.54122 0.74051 0.61408 0.0
C560 C 0.60925 0.74682 0.44053 0.0
N561 N 0.60004 0.73713 0.47861 0.0
N562 N 0.59757 0.75246 0.50192 0.0
C563 C 0.60506 0.77245 0.4792 0.0
C564 C 0.61287 0.76964 0.43957 0.0
C565 C 0.61834 0.7359 0.40936 0.0
H566 H 0.62942 0.73008 0.42633 0.0
H567 H 0.60318 0.72006 0.39508 0.0
H568 H 0.62895 0.74824 0.3836 0.0
O569 O 0.62287 0.71864 0.54636 0.0
O570 O 0.61942 0.74504 0.58562 0.0
H571 H 0.6217 0.80266 0.51974 0.0
H572 H 0.61008 0.80749 0.47093 0.0
C573 C 0.60692 0.7946 0.49664 0.0
H574 H 0.5904 0.79035 0.51364 0.0
H575 H 0.62705 0.79184 0.60486 0.0
O576 O 0.5996 0.6893 0.46042 0.0
C577 C 0.62967 0.73333 0.57709 0.0
Co578 Co 0.28859 0.88464 0.5022 0.0
Co579 Co 0.25002 0.84451 0.55937 0.0
C580 C 0.30105 0.85759 0.56308 0.0
O581 O 0.3066 0.87272 0.53353 0.0
O582 O 0.27991 0.84565 0.57648 0.0
C583 C 0.32926 0.90946 0.44843 0.0
O584 O 0.33592 0.89558 0.4663 0.0
C585 C 0.22306 0.79779 0.59909 0.0
C586 C 0.19357 0.80002 0.62865 0.0
C587 C 0.20345 0.78566 0.62518 0.0
N588 N 0.22466 0.81839 0.58786 0.0
N589 N 0.20683 0.81947 0.60522 0.0
C590 C 0.24171 0.79161 0.58942 0.0
H591 H 0.25555 0.79934 0.61438 0.0
H592 H 0.25003 0.79921 0.55823 0.0
H593 H 0.23447 0.77227 0.58914 0.0
C594 C 0.25266 0.85936 0.4368 0.0
N595 N 0.26138 0.86012 0.4759 0.0
N596 N 0.24505 0.84316 0.4994 0.0
C597 C 0.22526 0.83115 0.47588 0.0
C598 C 0.22937 0.84118 0.43544 0.0
C599 C 0.2656 0.87746 0.40302 0.0
H600 H 0.26813 0.89476 0.41363 0.0
H601 H 0.28327 0.87939 0.39817 0.0
H602 H 0.25591 0.87247 0.37232 0.0
O603 O 0.2793 0.90199 0.54249 0.0
O604 O 0.25111 0.87333 0.58132 0.0
H605 H 0.19638 0.82245 0.51788 0.0
H606 H 0.18806 0.80535 0.46938 0.0
C607 C 0.20187 0.81353 0.49423 0.0
H608 H 0.20357 0.79954 0.51103 0.0
H609 H 0.20425 0.83393 0.60246 0.0
O610 O 0.30965 0.90763 0.45894 0.0
C611 C 0.26387 0.8951 0.572 0.0
H612 H 0.28561 0.27169 0.21955 0.0
H613 H 0.32916 0.26668 0.45114 0.0
H614 H 0.23498 0.23505 0.31947 0.0
H615 H 0.36317 0.25837 0.34004 0.0
H616 H 0.29661 0.26232 0.40574 0.0
H617 H 0.317 0.27463 0.26609 0.0
C618 C 0.28115 0.26439 0.25139 0.0
C619 C 0.25773 0.25306 0.26579 0.0
C620 C 0.31121 0.26138 0.39153 0.0
C621 C 0.29346 0.25667 0.31905 0.0
C622 C 0.32977 0.26397 0.41724 0.0
C623 C 0.34881 0.26286 0.3992 0.0
C624 C 0.31213 0.25835 0.34751 0.0
C625 C 0.34874 0.25921 0.35517 0.0
C626 C 0.299 0.26595 0.27773 0.0
C627 C 0.25284 0.24378 0.3072 0.0
N628 N 0.33079 0.25736 0.3307 0.0
N629 N 0.27064 0.24599 0.33269 0.0
H630 H 0.70506 0.98115 0.27392 0.0
H631 H 0.76698 0.11043 0.3723 0.0
H632 H 0.77947 0.03083 0.25984 0.0
H633 H 0.70182 0.05352 0.4225 0.0
H634 H 0.77054 0.08224 0.32641 0.0
H635 H 0.70213 0.00816 0.32435 0.0
C636 C 0.72077 0.99771 0.28149 0.0
C637 C 0.74253 0.00381 0.26259 0.0
C638 C 0.75553 0.0759 0.34764 0.0
C639 C 0.73925 0.03475 0.31983 0.0
C640 C 0.75343 0.09199 0.37372 0.0
C641 C 0.73404 0.08431 0.40123 0.0
C642 C 0.73795 0.05201 0.34853 0.0
C643 C 0.71709 0.06018 0.40186 0.0
C644 C 0.7191 0.01304 0.31036 0.0
C645 C 0.76235 0.02541 0.27371 0.0
N646 N 0.71933 0.04489 0.3756 0.0
N647 N 0.7602 0.04019 0.30133 0.0
H648 H 0.00214 0.76702 0.31634 0.0
H649 H 0.89412 0.63722 0.3369 0.0
H650 H 0.98528 0.71518 0.21745 0.0
H651 H 0.93827 0.67216 0.44564 0.0
H652 H 0.92254 0.66923 0.29127 0.0
H653 H 0.97381 0.73556 0.3636 0.0
C654 C 0.99241 0.74906 0.3046 0.0
C655 C 0.99601 0.74358 0.26309 0.0
C656 C 0.92593 0.66983 0.32514 0.0
C657 C 0.96358 0.70797 0.31626 0.0
C658 C 0.90974 0.65169 0.35117 0.0
C659 C 0.91397 0.65205 0.39501 0.0
C660 C 0.94615 0.68871 0.34326 0.0
C661 C 0.9345 0.67117 0.41189 0.0
C662 C 0.97642 0.7312 0.33153 0.0
C663 C 0.98309 0.72007 0.24935 0.0
N664 N 0.94981 0.68891 0.38598 0.0
N665 N 0.96725 0.70313 0.27576 0.0
H666 H 0.64969 0.70522 0.58267 0.0
H667 H 0.74599 0.78714 0.75486 0.0
H668 H 0.65495 0.76903 0.63346 0.0
H669 H 0.72653 0.71445 0.7333 0.0
H670 H 0.71624 0.78284 0.70305 0.0
H671 H 0.68154 0.71045 0.63047 0.0
C672 C 0.65762 0.72039 0.60365 0.0
C673 C 0.64957 0.73665 0.60421 0.0
C674 C 0.71849 0.76784 0.70967 0.0
C675 C 0.68597 0.74274 0.65872 0.0
C676 C 0.73551 0.77029 0.73914 0.0
C677 C 0.73863 0.75108 0.74859 0.0
C678 C 0.70467 0.74609 0.68914 0.0
C679 C 0.72456 0.72966 0.72722 0.0
C680 C 0.67571 0.7233 0.63101 0.0
C681 C 0.66046 0.75596 0.63213 0.0
N682 N 0.70819 0.72774 0.69841 0.0
N683 N 0.67811 0.75847 0.65821 0.0
H684 H 0.29133 0.01637 0.72299 0.0
H685 H 0.22685 0.88757 0.62293 0.0
H686 H 0.21613 0.96916 0.73245 0.0
H687 H 0.29456 0.94271 0.578 0.0
H688 H 0.22339 0.91656 0.66667 0.0
H689 H 0.29378 0.98898 0.67291 0.0
C690 C 0.27533 0.00028 0.71442 0.0
C691 C 0.25351 0.99496 0.73203 0.0
C692 C 0.23892 0.92234 0.64701 0.0
C693 C 0.25622 0.96356 0.67515 0.0
C694 C 0.24096 0.90579 0.62216 0.0
C695 C 0.26107 0.91272 0.59688 0.0
C696 C 0.25727 0.94593 0.64712 0.0
C697 C 0.27874 0.9366 0.59697 0.0
C698 C 0.27674 0.98473 0.68574 0.0
C699 C 0.23332 0.97396 0.71963 0.0
N700 N 0.27654 0.95233 0.62204 0.0
N701 N 0.2352 0.95891 0.69225 0.0
H702 H 0.99679 0.23471 0.68069 0.0
H703 H 0.10599 0.36389 0.65855 0.0
H704 H 0.01641 0.286 0.78148 0.0
H705 H 0.05973 0.32968 0.55185 0.0
H706 H 0.07815 0.33188 0.70489 0.0
H707 H 0.02477 0.26617 0.6331 0.0
C708 C 0.00707 0.25255 0.69278 0.0
C709 C 0.00433 0.25787 0.73492 0.0
C710 C 0.07417 0.33144 0.67131 0.0
C711 C 0.03637 0.2935 0.6813 0.0
C712 C 0.09004 0.34958 0.64487 0.0
C713 C 0.08505 0.34943 0.60141 0.0
C714 C 0.05351 0.31278 0.65392 0.0
C715 C 0.0641 0.33051 0.58529 0.0
C716 C 0.02286 0.27041 0.66566 0.0
C717 C 0.01793 0.28124 0.74909 0.0
N718 N 0.04912 0.31278 0.61154 0.0
N719 N 0.03356 0.2982 0.72242 0.0
H720 H 0.95742 0.58496 0.52365 0.0
H721 H 0.0096 0.6215 0.75909 0.0
H722 H 0.93111 0.61527 0.61564 0.0
H723 H 0.0268 0.58057 0.67355 0.0
H724 H 0.98185 0.62084 0.7063 0.0
H725 H 0.98433 0.58498 0.57737 0.0
C726 C 0.95733 0.59167 0.55514 0.0
C727 C 0.942 0.60014 0.56517 0.0
C728 C 0.99164 0.61194 0.69919 0.0
C729 C 0.97278 0.60017 0.6269 0.0
C730 C 0.00751 0.61231 0.72929 0.0
C731 C 0.02061 0.60111 0.72074 0.0
C732 C 0.98896 0.60042 0.66013 0.0
C733 C 0.0171 0.58945 0.68159 0.0
C734 C 0.97266 0.5916 0.58586 0.0
C735 C 0.94263 0.60856 0.60654 0.0
N736 N 0.0017 0.5895 0.65269 0.0
N737 N 0.95781 0.60841 0.6359 0.0
H738 H 0.43499 0.44676 0.69931 0.0
H739 H 0.37713 0.31647 0.60567 0.0
H740 H 0.37155 0.38812 0.75105 0.0
H741 H 0.45054 0.36845 0.5871 0.0
H742 H 0.37344 0.34344 0.65485 0.0
H743 H 0.43973 0.41923 0.65324 0.0
C744 C 0.42206 0.42812 0.70099 0.0
C745 C 0.40282 0.41972 0.72903 0.0
C746 C 0.39038 0.34888 0.64016 0.0
C747 C 0.40809 0.38825 0.67635 0.0
C748 C 0.39248 0.33354 0.61203 0.0
C749 C 0.41416 0.34028 0.59225 0.0
C750 C 0.41001 0.37122 0.64807 0.0
C751 C 0.43351 0.36254 0.60176 0.0
C752 C 0.42484 0.41243 0.67484 0.0
C753 C 0.38668 0.39537 0.73 0.0
N754 N 0.43094 0.37732 0.62876 0.0
N755 N 0.3896 0.38051 0.70383 0.0
H756 H 0.60933 0.98239 0.75628 0.0
H757 H 0.62789 0.08155 0.58765 0.0
H758 H 0.55172 0.98838 0.70292 0.0
H759 H 0.67893 0.05898 0.60717 0.0
H760 H 0.60137 0.05136 0.63795 0.0
H761 H 0.63671 0.0144 0.70967 0.0
C762 C 0.60244 0.99051 0.73495 0.0
C763 C 0.57817 0.98263 0.73338 0.0
C764 C 0.61839 0.05304 0.63123 0.0
C765 C 0.60942 0.0193 0.68022 0.0
C766 C 0.63357 0.07032 0.60268 0.0
C767 C 0.6556 0.07268 0.59308 0.0
C768 C 0.6254 0.03823 0.65073 0.0
C769 C 0.66203 0.05763 0.61345 0.0
C770 C 0.61807 0.0087 0.70826 0.0
C771 C 0.57026 0.99378 0.70501 0.0
N772 N 0.647 0.04106 0.64142 0.0
N773 N 0.58585 0.01159 0.67962 0.0
H774 H 0.38001 0.062 0.11407 0.0
H775 H 0.33745 0.06309 0.8789 0.0
H776 H 0.42975 0.08833 0.01001 0.0
H777 H 0.3058 0.07683 0.98775 0.0
H778 H 0.36902 0.06596 0.92521 0.0
H779 H 0.34963 0.06051 0.06662 0.0
C780 C 0.38449 0.06735 0.08116 0.0
C781 C 0.4074 0.07534 0.06586 0.0
C782 C 0.35518 0.06843 0.93874 0.0
C783 C 0.37275 0.07344 0.01156 0.0
C784 C 0.33716 0.06672 0.91249 0.0
C785 C 0.31902 0.06974 0.92958 0.0
C786 C 0.35466 0.0726 0.98243 0.0
C787 C 0.31952 0.0745 0.97325 0.0
C788 C 0.36722 0.06662 0.05426 0.0
C789 C 0.41231 0.08219 0.02303 0.0
N790 N 0.33692 0.07553 0.9983 0.0
N791 N 0.39503 0.08089 0.99715 0.0
H792 H 0.95732 0.35155 0.06075 0.0
H793 H 0.89996 0.22133 0.96745 0.0
H794 H 0.88357 0.29968 0.07549 0.0
H795 H 0.96418 0.27923 0.91647 0.0
H796 H 0.89526 0.24914 0.01235 0.0
H797 H 0.96171 0.3247 0.01216 0.0
C798 C 0.94205 0.33455 0.05366 0.0
C799 C 0.92005 0.32778 0.07226 0.0
C800 C 0.91033 0.25577 0.99124 0.0
C801 C 0.92502 0.29701 0.01718 0.0
C802 C 0.91311 0.23989 0.96575 0.0
C803 C 0.93252 0.24797 0.93819 0.0
C804 C 0.92725 0.27987 0.98965 0.0
C805 C 0.94893 0.27226 0.93718 0.0
C806 C 0.94456 0.31929 0.02587 0.0
C807 C 0.90083 0.30562 0.06182 0.0
N808 N 0.946 0.28736 0.96278 0.0
N809 N 0.90381 0.29094 0.03525 0.0
H810 H 0.65094 0.60887 0.06089 0.0
H811 H 0.77922 0.67387 0.95807 0.0
H812 H 0.69871 0.58153 0.06988 0.0
H813 H 0.72318 0.68533 0.91428 0.0
H814 H 0.75082 0.64162 0.00303 0.0
H815 H 0.67805 0.63881 0.01068 0.0
C816 C 0.6671 0.60914 0.05223 0.0
C817 C 0.67264 0.59276 0.06967 0.0
C818 C 0.74473 0.6511 0.98336 0.0
C819 C 0.70373 0.627 0.01261 0.0
C820 C 0.76094 0.66956 0.9578 0.0
C821 C 0.75358 0.68236 0.93244 0.0
C822 C 0.72107 0.64562 0.98408 0.0
C823 C 0.72963 0.67591 0.93324 0.0
C824 C 0.6825 0.62616 0.02347 0.0
C825 C 0.69374 0.59381 0.05715 0.0
N826 N 0.71426 0.65812 0.95895 0.0
N827 N 0.70863 0.61078 0.02966 0.0
H828 H 0.604 0.95312 0.94118 0.0
H829 H 0.67346 0.89292 0.03706 0.0
H830 H 0.58103 0.87941 0.92178 0.0
H831 H 0.67647 0.95467 0.09305 0.0
H832 H 0.6419 0.88895 0.98981 0.0
H833 H 0.63335 0.95554 0.99235 0.0
C834 C 0.60514 0.93746 0.94771 0.0
C835 C 0.59013 0.91605 0.9272 0.0
C836 C 0.6494 0.90326 0.01268 0.0
C837 C 0.62368 0.91874 0.98529 0.0
C838 C 0.66743 0.90558 0.03953 0.0
C839 C 0.67763 0.92417 0.069 0.0
C840 C 0.64182 0.91988 0.01483 0.0
C841 C 0.66908 0.94002 0.07092 0.0
C842 C 0.62179 0.93882 0.97702 0.0
C843 C 0.59224 0.89625 0.937 0.0
N844 N 0.65182 0.93764 0.04391 0.0
N845 N 0.60886 0.89812 0.96511 0.0
H846 H 0.08609 0.65625 0.99055 0.0
H847 H 0.07861 0.77307 0.00602 0.0
H848 H 0.06333 0.68208 0.88479 0.0
H849 H 0.05929 0.72554 0.11307 0.0
H850 H 0.08105 0.74366 0.96149 0.0
H851 H 0.08389 0.68539 0.03695 0.0
C852 C 0.08069 0.66808 0.97715 0.0
C853 C 0.07483 0.66681 0.9339 0.0
C854 C 0.0763 0.73973 0.99475 0.0
C855 C 0.07272 0.70014 0.98622 0.0
C856 C 0.07502 0.7565 0.02019 0.0
C857 C 0.06865 0.75164 0.0632 0.0
C858 C 0.0717 0.71822 0.01269 0.0
C859 C 0.06409 0.72986 0.07994 0.0
C860 C 0.07936 0.68455 0.00358 0.0
C861 C 0.06785 0.68242 0.91804 0.0
N862 N 0.06587 0.71395 0.05467 0.0
N863 N 0.06721 0.69862 0.94413 0.0
H864 H 0.27117 0.33204 0.11547 0.0
H865 H 0.31595 0.37807 0.88245 0.0
H866 H 0.22615 0.30109 0.00603 0.0
H867 H 0.33712 0.42639 0.98849 0.0
H868 H 0.28691 0.3467 0.92836 0.0
H869 H 0.29968 0.3643 0.07017 0.0
C870 C 0.26732 0.33203 0.08192 0.0
C871 C 0.24631 0.31391 0.06437 0.0
C872 C 0.29791 0.3642 0.94146 0.0
C873 C 0.27886 0.35038 0.01265 0.0
C874 C 0.31454 0.38203 0.91545 0.0
C875 C 0.32887 0.40481 0.9318 0.0
C876 C 0.29602 0.36907 0.98429 0.0
C877 C 0.32627 0.40906 0.97469 0.0
C878 C 0.2835 0.35046 0.05626 0.0
C879 C 0.2421 0.31479 0.0208 0.0
N880 N 0.31026 0.39125 -0.00033 0.0
N881 N 0.25838 0.33262 0.99627 0.0
H882 H 0.96847 0.40895 0.32589 0.0
H883 H 0.09761 0.42875 0.34541 0.0
H884 H 0.00309 0.39985 0.21649 0.0
H885 H 0.04549 0.39353 0.44379 0.0
H886 H 0.06647 0.42659 0.2985 0.0
H887 H 0.00041 0.4121 0.37114 0.0
C888 C 0.98289 0.4078 0.31137 0.0
C889 C 0.98314 0.40403 0.26746 0.0
C890 C 0.06197 0.41935 0.33038 0.0
C891 C 0.01969 0.40794 0.31882 0.0
C892 C 0.07964 0.42064 0.3571 0.0
C893 C 0.074 0.41123 0.39836 0.0
C894 C 0.03876 0.40919 0.34563 0.0
C895 C 0.05049 0.40084 0.41205 0.0
C896 C 0.00097 0.40947 0.3372 0.0
C897 C 0.00219 0.40257 0.25028 0.0
N898 N 0.03373 0.40031 0.38587 0.0
N899 N 0.01986 0.4047 0.27601 0.0
H900 H 0.54663 0.62989 0.41422 0.0
H901 H 0.62834 0.61317 0.24541 0.0
H902 H 0.62062 0.68074 0.39862 0.0
H903 H 0.5646 0.55506 0.29736 0.0
H904 H 0.6235 0.64013 0.29303 0.0
H905 H 0.55069 0.60413 0.36268 0.0
C906 C 0.5637 0.63569 0.3998 0.0
C907 C 0.58336 0.65741 0.41088 0.0
C908 C 0.61059 0.62147 0.29387 0.0
C909 C 0.58806 0.62812 0.35179 0.0
C910 C 0.61327 0.60611 0.26662 0.0
C911 C 0.5969 0.58182 0.26756 0.0
C912 C 0.59123 0.61252 0.32172 0.0
C913 C 0.57774 0.57362 0.29578 0.0
C914 C 0.56602 0.62094 0.37054 0.0
C915 C 0.60507 0.66403 0.39123 0.0
N916 N 0.5754 0.58895 0.32164 0.0
N917 N 0.60684 0.64944 0.36251 0.0
H918 H 0.37522 0.92358 0.42965 0.0
H919 H 0.38739 0.0154 0.24976 0.0
H920 H 0.31856 0.93636 0.39626 0.0
H921 H 0.44704 0.0154 0.30865 0.0
H922 H 0.36105 0.98357 0.29774 0.0
H923 H 0.40095 0.95427 0.37951 0.0
C924 C 0.36816 0.93278 0.41166 0.0
C925 C 0.34475 0.92749 0.41727 0.0
C926 C 0.37991 0.99059 0.30013 0.0
C927 C 0.37409 0.96259 0.3598 0.0
C928 C 0.39496 0.0087 0.2727 0.0
C929 C 0.41948 0.01813 0.27526 0.0
C930 C 0.38944 0.98168 0.32999 0.0
C931 C 0.42828 0.00877 0.30567 0.0
C932 C 0.38289 0.95036 0.38317 0.0
C933 C 0.33655 0.93999 0.39312 0.0
N934 N 0.41326 0.99102 0.33174 0.0
N935 N 0.35121 0.95696 0.36536 0.0
H936 H 0.19269 0.39559 0.38482 0.0
H937 H 0.13676 0.26712 0.27737 0.0
H938 H 0.12576 0.33639 0.42161 0.0
H939 H 0.20424 0.32599 0.24208 0.0
H940 H 0.1319 0.29239 0.32955 0.0
H941 H 0.19749 0.37038 0.33243 0.0
C942 C 0.17912 0.37722 0.3819 0.0
C943 C 0.15876 0.36798 0.40704 0.0
C944 C 0.14777 0.29982 0.31036 0.0
C945 C 0.16388 0.33913 0.3474 0.0
C946 C 0.15043 0.28543 0.28055 0.0
C947 C 0.17096 0.29456 0.2559 0.0
C948 C 0.16577 0.32347 0.3153 0.0
C949 C 0.18824 0.31835 0.26092 0.0
C950 C 0.18175 0.36287 0.35198 0.0
C951 C 0.14162 0.34412 0.40236 0.0
N952 N 0.18532 0.33197 0.29017 0.0
N953 N 0.1445 0.33053 0.37298 0.0
H954 H 0.607 0.76993 0.35362 0.0
H955 H 0.7259 0.89395 0.31848 0.0
H956 H 0.65308 0.81129 0.45583 0.0
H957 H 0.68128 0.85108 0.21601 0.0
H958 H 0.69976 0.86369 0.36948 0.0
H959 H 0.63388 0.79961 0.30255 0.0
C960 C 0.6227 0.78542 0.36521 0.0
C961 C 0.6278 0.78835 0.40883 0.0
C962 C 0.69579 0.86077 0.33582 0.0
C963 C 0.65872 0.82221 0.35095 0.0
C964 C 0.71075 0.87797 0.30682 0.0
C965 C 0.70577 0.87483 0.26316 0.0
C966 C 0.67563 0.84037 0.32096 0.0
C967 C 0.68589 0.85397 0.24944 0.0
C968 C 0.63807 0.80229 0.33617 0.0
C969 C 0.64837 0.8086 0.42244 0.0
N970 N 0.67147 0.83757 0.27825 0.0
N971 N 0.66311 0.82475 0.3936 0.0
H972 H 0.12003 0.79095 0.24278 0.0
H973 H 0.2185 0.8745 0.41133 0.0
H974 H 0.13452 0.86107 0.27394 0.0
H975 H 0.19948 0.80215 0.38889 0.0
H976 H 0.18908 0.87055 0.35891 0.0
H977 H 0.15036 0.79532 0.29355 0.0
C978 C 0.12967 0.80728 0.26049 0.0
C979 C 0.1247 0.8256 0.25478 0.0
C980 C 0.1913 0.85552 0.36532 0.0
C981 C 0.1595 0.83086 0.31255 0.0
C982 C 0.20813 0.8578 0.39509 0.0
C983 C 0.21142 0.83864 0.40403 0.0
C984 C 0.17765 0.83389 0.34428 0.0
C985 C 0.1974 0.81729 0.38271 0.0
C986 C 0.14696 0.80978 0.28939 0.0
C987 C 0.13783 0.84653 0.27777 0.0
N988 N 0.18112 0.81549 0.3537 0.0
N989 N 0.15461 0.84859 0.30581 0.0
H990 H 0.86216 0.7346 0.71727 0.0
H991 H 0.8019 0.6085 0.60002 0.0
H992 H 0.79111 0.67885 0.74204 0.0
H993 H 0.87351 0.66368 0.57772 0.0
H994 H 0.79688 0.63457 0.65003 0.0
H995 H 0.86637 0.70933 0.66425 0.0
C996 C 0.84749 0.71702 0.71142 0.0
C997 C 0.82628 0.70874 0.73375 0.0
C998 C 0.81369 0.64101 0.63415 0.0
C999 C 0.83078 0.6798 0.67339 0.0
C1000 C 0.81648 0.62617 0.6056 0.0
C1001 C 0.83816 0.63398 0.58519 0.0
C1002 C 0.83275 0.6638 0.64216 0.0
C1003 C 0.85659 0.65696 0.59333 0.0
C1004 C 0.84982 0.70263 0.68118 0.0
C1005 C 0.80769 0.68591 0.72509 0.0
N1006 N 0.8535 0.67104 0.62127 0.0
N1007 N 0.81036 0.67222 0.69562 0.0
H1008 H 0.27297 0.10724 0.68441 0.0
H1009 H 0.39552 0.22697 0.64441 0.0
H1010 H 0.32154 0.14735 0.78464 0.0
H1011 H 0.34687 0.18692 0.54423 0.0
H1012 H 0.36892 0.19774 0.69635 0.0
H1013 H 0.29948 0.13657 0.63253 0.0
C1014 C 0.28909 0.12247 0.69543 0.0
C1015 C 0.29508 0.12507 0.73868 0.0
C1016 C 0.36412 0.1952 0.66298 0.0
C1017 C 0.32566 0.15841 0.6798 0.0
C1018 C 0.37936 0.21178 0.63342 0.0
C1019 C 0.37338 0.20916 0.59016 0.0
C1020 C 0.34271 0.17592 0.64909 0.0
C1021 C 0.35222 0.18935 0.57731 0.0
C1022 C 0.30428 0.1391 0.66589 0.0
C1023 C 0.31618 0.14493 0.75156 0.0
N1024 N 0.33758 0.17353 0.60669 0.0
N1025 N 0.33079 0.1608 0.7222 0.0
H1026 H 0.783 0.12438 0.58597 0.0
H1027 H 0.87929 0.20972 0.75602 0.0
H1028 H 0.79822 0.19539 0.61077 0.0
H1029 H 0.86785 0.14079 0.7237 0.0
H1030 H 0.84878 0.20439 0.70479 0.0
H1031 H 0.81325 0.12963 0.63763 0.0
C1032 C 0.79277 0.14109 0.60249 0.0
C1033 C 0.78813 0.15946 0.5945 0.0
C1034 C 0.85291 0.19041 0.70878 0.0
C1035 C 0.82278 0.16569 0.65347 0.0
C1036 C 0.8703 0.19347 0.73794 0.0
C1037 C 0.87616 0.17575 0.74349 0.0
C1038 C 0.84117 0.16939 0.68522 0.0
C1039 C 0.86384 0.15487 0.72002 0.0
C1040 C 0.81004 0.14411 0.63186 0.0
C1041 C 0.80136 0.18084 0.6162 0.0
N1042 N 0.84693 0.15227 0.69176 0.0
N1043 N 0.81807 0.18337 0.64485 0.0
H1044 H 0.49558 0.01273 0.12637 0.0
H1045 H 0.50189 0.98278 0.88097 0.0
H1046 H 0.49015 0.05245 0.0219 0.0
H1047 H 0.50265 0.93997 0.98457 0.0
H1048 H 0.49783 0.00862 0.93221 0.0
H1049 H 0.49969 0.9867 0.07531 0.0
C1050 C 0.4957 0.0162 0.09263 0.0
C1051 C 0.49281 0.03487 0.07817 0.0
C1052 C 0.49871 0.9935 0.94385 0.0
C1053 C 0.49688 0.0049 0.01962 0.0
C1054 C 0.50078 0.97861 0.91456 0.0
C1055 C 0.50235 0.95913 0.92868 0.0
C1056 C 0.49836 0.98896 0.98765 0.0
C1057 C 0.50143 0.95484 0.97256 0.0
C1058 C 0.49776 0.0012 0.0635 0.0
C1059 C 0.49243 0.03825 0.03419 0.0
N1060 N 0.49958 0.9697 0.00056 0.0
N1061 N 0.49441 0.0234 0.00645 0.0
H1062 H 0.0106 0.51596 0.87593 0.0
H1063 H 0.98343 0.48195 0.12281 0.0
H1064 H 0.05184 0.56218 0.97813 0.0
H1065 H 0.93748 0.43955 0.02127 0.0
H1066 H 0.009 0.5114 0.07044 0.0
H1067 H 0.98464 0.48684 0.92852 0.0
C1068 C 0.01441 0.51975 0.90949 0.0
C1069 C 0.03346 0.54133 0.92286 0.0
C1070 C 0.99322 0.49578 0.05956 0.0
C1071 C 0.0036 0.50847 0.98317 0.0
C1072 C 0.97851 0.47911 0.0895 0.0
C1073 C 0.95828 0.45844 0.07622 0.0
C1074 C 0.98774 0.49165 0.01599 0.0
C1075 C 0.95295 0.45533 0.03264 0.0
C1076 C -0.00056 0.50328 0.9395 0.0
C1077 C 0.03733 0.54567 0.96666 0.0
N1078 N 0.96767 0.47167 0.00402 0.0
N1079 N 0.02252 0.5294 0.99528 0.0
H1080 H 0.43284 0.48921 0.9839 0.0
H1081 H 0.56099 0.50396 0.01896 0.0
H1082 H 0.47984 0.49672 0.88128 0.0
H1083 H 0.5176 0.50468 0.12153 0.0
H1084 H 0.53058 0.49937 0.96801 0.0
H1085 H 0.46304 0.49356 0.03518 0.0
C1086 C 0.44966 0.49206 0.97229 0.0
C1087 C 0.45403 0.49291 0.92847 0.0
C1088 C 0.52762 0.50038 0.00168 0.0
C1089 C 0.48847 0.49752 0.98658 0.0
C1090 C 0.54491 0.50289 0.03066 0.0
C1091 C 0.54167 0.50454 0.07435 0.0
C1092 C 0.50692 0.49949 0.01657 0.0
C1093 C 0.5206 0.50312 0.08809 0.0
C1094 C 0.46684 0.49446 0.00145 0.0
C1095 C 0.47598 0.49644 0.91485 0.0
N1096 N 0.50403 0.50073 0.05929 0.0
N1097 N 0.49235 0.49851 0.9438 0.0
H1098 H 0.20991 0.19374 0.14824 0.0
H1099 H 0.21435 0.13451 0.92882 0.0
H1100 H 0.17679 0.19888 0.0331 0.0
H1101 H 0.24994 0.13408 0.04399 0.0
H1102 H 0.19458 0.15208 0.96855 0.0
H1103 H 0.21802 0.16532 0.11335 0.0
C1104 C 0.20397 0.18856 0.11577 0.0
C1105 C 0.19296 0.19897 0.09335 0.0
C1106 C 0.20639 0.14775 0.98527 0.0
C1107 C 0.20269 0.16672 0.05272 0.0
C1108 C 0.21751 0.13756 0.96269 0.0
C1109 C 0.23357 0.13265 0.98338 0.0
C1110 C 0.21151 0.15311 0.0287 0.0
C1111 C 0.23767 0.13763 0.02692 0.0
C1112 C 0.2087 0.17238 0.09575 0.0
C1113 C 0.18542 0.19138 0.05149 0.0
N1114 N 0.2268 0.14765 0.04806 0.0
N1115 N 0.19081 0.176 0.03222 0.0
H1116 H 0.82404 0.09927 0.98466 0.0
H1117 H 0.80144 0.97422 0.04356 0.0
H1118 H 0.88382 0.08867 0.9704 0.0
H1119 H 0.78474 0.01551 0.12925 0.0
H1120 H 0.82755 0.01065 0.00361 0.0
H1121 H 0.80328 0.06205 0.02277 0.0
C1122 C 0.83281 0.08908 0.98894 0.0
C1123 C 0.85586 0.09737 0.97391 0.0
C1124 C 0.81835 0.01154 0.03161 0.0
C1125 C 0.83178 0.05436 0.01737 0.0
C1126 C 0.80352 0.99087 0.05443 0.0
C1127 C 0.79057 0.99169 0.08953 0.0
C1128 C 0.81968 0.03283 0.04363 0.0
C1129 C 0.79403 0.01381 0.10217 0.0
C1130 C 0.82088 0.06783 0.01078 0.0
C1131 C 0.866 0.08301 0.98033 0.0
N1132 N 0.80783 0.03333 0.07878 0.0
N1133 N 0.85385 0.0621 0.00165 0.0
H1134 H 0.02901 0.81957 0.02266 0.0
H1135 H 0.89168 0.77774 0.0235 0.0
H1136 H 0.9873 0.79545 0.13748 0.0
H1137 H 0.92464 0.75892 0.92412 0.0
H1138 H 0.92958 0.79744 0.06209 0.0
H1139 H 0.99342 0.81119 0.98283 0.0
C1140 C 0.01253 0.81321 0.03974 0.0
C1141 C 0.01102 0.80798 0.08338 0.0
C1142 C 0.92851 0.78932 0.0315 0.0
C1143 C 0.9705 0.79856 0.03809 0.0
C1144 C 0.90705 0.7782 0.00956 0.0
C1145 C 0.90527 0.76675 0.97087 0.0
C1146 C 0.94828 0.78941 0.01391 0.0
C1147 C 0.92546 0.76755 0.95401 0.0
C1148 C 0.99226 0.80826 0.01692 0.0
C1149 C 0.98916 0.79954 0.1038 0.0
N1150 N 0.94622 0.77875 0.97561 0.0
N1151 N 0.96967 0.79496 0.08092 0.0
H1152 H 0.78168 0.88899 0.98058 0.0
H1153 H 0.81692 0.78844 0.98086 0.0
H1154 H 0.75731 0.83443 0.07594 0.0
H1155 H 0.79843 0.81118 0.86545 0.0
H1156 H 0.80933 0.81605 0.02145 0.0
H1157 H 0.80163 0.87055 0.94362 0.0
C1158 C 0.78102 0.87345 0.99413 0.0
C1159 C 0.76789 0.86305 0.03108 0.0
C1160 C 0.8075 0.81532 0.98712 0.0
C1161 C 0.79077 0.84236 0.98988 0.0
C1162 C 0.81197 0.79975 0.96393 0.0
C1163 C 0.80806 0.79741 0.91982 0.0
C1164 C 0.79963 0.82897 0.96585 0.0
C1165 C 0.80143 0.81233 0.89949 0.0
C1166 C 0.79228 0.86296 0.97309 0.0
C1167 C 0.76726 0.84282 0.04737 0.0
N1168 N 0.7973 0.82743 0.92271 0.0
N1169 N 0.77857 0.8331 0.02667 0.0
H1170 H 0.20263 0.02432 0.96237 0.0
H1171 H 0.13767 0.88364 0.95202 0.0
H1172 H 0.20135 0.98433 0.85206 0.0
H1173 H 0.14002 0.92175 0.06556 0.0
H1174 H 0.15583 0.92057 0.91209 0.0
H1175 H 0.1742 0.98738 0.99742 0.0
C1176 C 0.196 0.00786 0.94516 0.0
C1177 C 0.20466 0.00738 0.90446 0.0
C1178 C 0.15211 0.92093 0.9456 0.0
C1179 C 0.17239 0.96514 0.94445 0.0
C1180 C 0.14177 0.89984 0.96836 0.0
C1181 C 0.1372 0.8997 0.01194 0.0
C1182 C 0.15838 0.9422 0.96674 0.0
C1183 C 0.14286 0.92111 0.03175 0.0
C1184 C 0.17988 0.98677 0.96529 0.0
C1185 C 0.19546 0.98554 0.8837 0.0
N1186 N 0.1534 0.9416 0.00906 0.0
N1187 N 0.18006 0.96533 0.90407 0.0
H1188 H 0.07635 0.21099 0.07115 0.0
H1189 H 0.01265 0.20571 0.85144 0.0
H1190 H 0.11229 0.2442 0.95443 0.0
H1191 H 0.9745 0.17594 0.96824 0.0
H1192 H 0.0488 0.2125 0.88607 0.0
H1193 H 0.03876 0.19149 0.03211 0.0
C1194 C 0.07638 0.21366 0.03712 0.0
C1195 C 0.09739 0.22902 0.01579 0.0
C1196 C 0.03251 0.20416 0.9041 0.0
C1197 C 0.05463 0.20727 0.97123 0.0
C1198 C 0.01181 0.20018 0.88422 0.0
C1199 C 0.99059 0.19056 0.90716 0.0
C1200 C 0.03216 0.19883 0.94751 0.0
C1201 C 0.99051 0.1835 0.94944 0.0
C1202 C 0.05494 0.2027 0.01493 0.0
C1203 C 0.09643 0.2325 0.972 0.0
N1204 N 0.0111 0.18819 0.96856 0.0
N1205 N 0.07543 0.22181 0.95125 0.0
H1206 H 0.87917 0.53389 0.4818 0.0
H1207 H 0.87836 0.46754 0.26771 0.0
H1208 H 0.8436 0.53581 0.36744 0.0
H1209 H 0.91815 0.47261 0.38062 0.0
H1210 H 0.85971 0.48655 0.30636 0.0
H1211 H 0.88702 0.50494 0.44854 0.0
C1212 C 0.87266 0.52791 0.44986 0.0
C1213 C 0.861 0.53754 0.42716 0.0
C1214 C 0.87227 0.48317 0.32278 0.0
C1215 C 0.8704 0.50462 0.38836 0.0
C1216 C 0.88279 0.47215 0.30083 0.0
C1217 C 0.89977 0.46842 0.32106 0.0
C1218 C 0.87881 0.49041 0.36518 0.0
C1219 C 0.90528 0.47532 0.3637 0.0
C1220 C 0.87724 0.51142 0.43076 0.0
C1221 C 0.85276 0.52892 0.38601 0.0
N1222 N 0.89492 0.48602 0.38422 0.0
N1223 N 0.85797 0.51321 0.36761 0.0
H1224 H 0.53118 0.44998 0.37843 0.0
H1225 H 0.46579 0.30945 0.36523 0.0
H1226 H 0.53002 0.41265 0.26457 0.0
H1227 H 0.46739 0.34894 0.47652 0.0
H1228 H 0.49468 0.34651 0.331 0.0
H1229 H 0.51295 0.41284 0.41768 0.0
C1230 C 0.52734 0.43391 0.36189 0.0
C1231 C 0.53221 0.43431 0.31841 0.0
C1232 C 0.48896 0.34697 0.36316 0.0
C1233 C 0.5109 0.39156 0.36279 0.0
C1234 C 0.47258 0.32582 0.38281 0.0
C1235 C 0.46388 0.32615 0.42354 0.0
C1236 C 0.49666 0.36849 0.38454 0.0
C1237 C 0.47329 0.34786 0.44483 0.0
C1238 C 0.51695 0.41269 0.38426 0.0
C1239 C 0.52687 0.41306 0.29831 0.0
N1240 N 0.48893 0.36812 0.42492 0.0
N1241 N 0.51623 0.39243 0.32059 0.0
H1242 H 0.55105 0.08532 0.37876 0.0
H1243 H 0.69143 0.15619 0.36567 0.0
H1244 H 0.58888 0.11917 0.26386 0.0
H1245 H 0.65129 0.12331 0.47937 0.0
H1246 H 0.65493 0.14885 0.33027 0.0
H1247 H 0.58808 0.10453 0.41825 0.0
C1248 C 0.56722 0.09711 0.36203 0.0
C1249 C 0.56701 0.1008 0.31818 0.0
C1250 C 0.65422 0.14364 0.3632 0.0
C1251 C 0.60964 0.12255 0.36285 0.0
C1252 C 0.67507 0.14796 0.38351 0.0
C1253 C 0.67432 0.13997 0.4253 0.0
C1254 C 0.6326 0.13131 0.38498 0.0
C1255 C 0.65264 0.12939 0.44688 0.0
C1256 C 0.58838 0.10811 0.38453 0.0
C1257 C 0.58837 0.11617 0.29784 0.0
N1258 N 0.63267 0.12512 0.42634 0.0
N1259 N 0.60894 0.12629 0.32027 0.0
H1260 H 0.45579 0.13707 0.18247 0.0
H1261 H 0.45426 0.19955 0.39943 0.0
H1262 H 0.49044 0.1338 0.29705 0.0
H1263 H 0.4175 0.19863 0.28495 0.0
H1264 H 0.47381 0.18176 0.35975 0.0
H1265 H 0.44861 0.16645 0.21601 0.0
C1266 C 0.46228 0.14287 0.21449 0.0
C1267 C 0.47339 0.13269 0.23725 0.0
C1268 C 0.4618 0.18585 0.34315 0.0
C1269 C 0.46473 0.16601 0.27633 0.0
C1270 C 0.45081 0.19617 0.36569 0.0
C1271 C 0.43447 0.20073 0.3452 0.0
C1272 C 0.45625 0.18 0.29997 0.0
C1273 C 0.42999 0.19534 0.30185 0.0
C1274 C 0.45809 0.1596 0.23373 0.0
C1275 C 0.48167 0.14109 0.27845 0.0
N1276 N 0.44072 0.18517 0.28075 0.0
N1277 N 0.47677 0.15696 0.29703 0.0
H1278 H 0.80285 0.21616 0.28997 0.0
H1279 H 0.86618 0.35683 0.29963 0.0
H1280 H 0.80317 0.25406 0.40244 0.0
H1281 H 0.86668 0.31703 0.19039 0.0
H1282 H 0.83786 0.31974 0.33443 0.0
H1283 H 0.82129 0.25311 0.25007 0.0
C1284 C 0.80656 0.23231 0.30607 0.0
C1285 C 0.80133 0.23211 0.34935 0.0
C1286 C 0.84393 0.3192 0.30259 0.0
C1287 C 0.82284 0.27463 0.30417 0.0
C1288 C 0.85999 0.34037 0.2826 0.0
C1289 C 0.86909 0.34001 0.24226 0.0
C1290 C 0.83693 0.29761 0.28199 0.0
C1291 C 0.86044 0.31816 0.22173 0.0
C1292 C 0.81707 0.25341 0.28332 0.0
C1293 C 0.80652 0.25346 0.36885 0.0
N1294 N 0.84507 0.29789 0.24198 0.0
N1295 N 0.81723 0.27396 0.34619 0.0
H1296 H 0.64156 0.51055 0.29818 0.0
H1297 H 0.78209 0.58185 0.28219 0.0
H1298 H 0.68105 0.54626 0.18544 0.0
H1299 H 0.74466 0.55049 0.39872 0.0
H1300 H 0.74479 0.56247 0.24347 0.0
H1301 H 0.67842 0.51809 0.3323 0.0
C1302 C 0.65787 0.51948 0.28025 0.0
C1303 C 0.6583 0.52814 0.23915 0.0
C1304 C 0.74466 0.55947 0.27741 0.0
C1305 C 0.70042 0.53698 0.27803 0.0
C1306 C 0.76596 0.57054 0.29947 0.0
C1307 C 0.76638 0.56759 0.34354 0.0
C1308 C 0.72348 0.54568 0.29972 0.0
C1309 C 0.74506 0.55284 0.36456 0.0
C1310 C 0.67891 0.5239 0.29985 0.0
C1311 C 0.67993 0.5396 0.21742 0.0
N1312 N 0.72436 0.54261 0.34251 0.0
N1313 N 0.7001 0.5439 0.23728 0.0
H1314 H 0.54645 0.80302 0.59437 0.0
H1315 H 0.54027 0.86072 0.81441 0.0
H1316 H 0.58155 0.80249 0.71012 0.0
H1317 H 0.51006 0.86868 0.69783 0.0
H1318 H 0.54803 0.83213 0.77934 0.0
H1319 H 0.52644 0.82049 0.63375 0.0
C1320 C 0.54947 0.80607 0.62827 0.0
C1321 C 0.56547 0.8012 0.64926 0.0
C1322 C 0.53942 0.83985 0.76144 0.0
C1323 C 0.5431 0.82141 0.69414 0.0
C1324 C 0.53491 0.85614 0.78154 0.0
C1325 C 0.52487 0.86738 0.75879 0.0
C1326 C 0.53419 0.83495 0.718 0.0
C1327 C 0.51798 0.86051 0.71644 0.0
C1328 C 0.53821 0.81617 0.65064 0.0
C1329 C 0.56935 0.80606 0.69285 0.0
N1330 N 0.52317 0.84502 0.6971 0.0
N1331 N 0.55833 0.81596 0.71378 0.0
H1332 H 0.19468 0.74237 0.59607 0.0
H1333 H 0.1369 0.68019 0.81698 0.0
H1334 H 0.19387 0.77904 0.70952 0.0
H1335 H 0.13313 0.64139 0.70331 0.0
H1336 H 0.16496 0.7167 0.78149 0.0
H1337 H 0.17857 0.70565 0.63733 0.0
C1338 C 0.19165 0.74278 0.62988 0.0
C1339 C 0.1958 0.76374 0.64963 0.0
C1340 C 0.15832 0.7002 0.76441 0.0
C1341 C 0.17699 0.72189 0.69672 0.0
C1342 C 0.14238 0.6793 0.78479 0.0
C1343 C 0.13237 0.65775 0.76285 0.0
C1344 C 0.16411 0.69965 0.72151 0.0
C1345 C 0.14031 0.65764 0.72133 0.0
C1346 C 0.1823 0.72182 0.65334 0.0
C1347 C 0.19086 0.7632 0.69315 0.0
N1348 N 0.15538 0.67836 0.70166 0.0
N1349 N 0.18164 0.74263 0.71516 0.0
H1350 H 0.25391 0.45181 0.59461 0.0
H1351 H 0.3171 0.4542 0.81372 0.0
H1352 H 0.21815 0.41315 0.70788 0.0
H1353 H 0.35587 0.48728 0.69893 0.0
H1354 H 0.28075 0.4461 0.77828 0.0
H1355 H 0.29117 0.47105 0.63449 0.0
C1356 C 0.25379 0.44774 0.62802 0.0
C1357 C 0.23289 0.43091 0.64803 0.0
C1358 C 0.2972 0.4554 0.76086 0.0
C1359 C 0.27537 0.45258 0.69359 0.0
C1360 C 0.31801 0.46014 0.7812 0.0
C1361 C 0.33951 0.47112 0.75906 0.0
C1362 C 0.29773 0.46141 0.71778 0.0
C1363 C 0.33965 0.47866 0.71711 0.0
C1364 C 0.27509 0.4586 0.65069 0.0
C1365 C 0.23388 0.42588 0.69112 0.0
N1366 N 0.31897 0.47329 0.69751 0.0
N1367 N 0.25472 0.43659 0.71234 0.0
H1368 H 0.08069 0.53011 0.62077 0.0
H1369 H 0.1569 0.46578 0.6287 0.0
H1370 H 0.11893 0.52998 0.73236 0.0
H1371 H 0.11789 0.4672 0.51902 0.0
H1372 H 0.14898 0.49461 0.6638 0.0
H1373 H 0.09936 0.5121 0.5801 0.0
C1374 C 0.09331 0.52653 0.63651 0.0
C1375 C 0.09843 0.53163 0.67979 0.0
C1376 C 0.14251 0.48889 0.63178 0.0
C1377 C 0.11961 0.51057 0.63375 0.0
C1378 C 0.14715 0.47255 0.61161 0.0
C1379 C 0.13772 0.46378 0.57112 0.0
C1380 C 0.12839 0.49649 0.6112 0.0
C1381 C 0.1252 0.47316 0.55051 0.0
C1382 C 0.104 0.51627 0.61332 0.0
C1383 C 0.11484 0.52663 0.69881 0.0
N1384 N 0.12068 0.48875 0.57095 0.0
N1385 N 0.12468 0.51611 0.67576 0.0
H1386 H 0.49345 0.58986 0.74753 0.0
H1387 H 0.52447 0.65216 0.52792 0.0
H1388 H 0.44626 0.55762 0.64157 0.0
H1389 H 0.54014 0.69302 0.64343 0.0
H1390 H 0.49609 0.61702 0.56745 0.0
H1391 H 0.51189 0.62781 0.70978 0.0
C1392 C 0.48681 0.59097 0.71653 0.0
C1393 C 0.4684 0.57086 0.69745 0.0
C1394 C 0.50538 0.63379 0.58388 0.0
C1395 C 0.4896 0.61371 0.65384 0.0
C1396 C 0.52157 0.65382 0.5614 0.0
C1397 C 0.53476 0.67547 0.58252 0.0
C1398 C 0.50291 0.63534 0.62797 0.0
C1399 C 0.53032 0.67667 0.62593 0.0
C1400 C 0.49721 0.61254 0.69512 0.0
C1401 C 0.4604 0.57292 0.65719 0.0
N1402 N 0.51516 0.65673 0.64749 0.0
N1403 N 0.47136 0.59394 0.63624 0.0
H1404 H 0.3027 0.84882 0.64756 0.0
H1405 H 0.43796 0.88262 0.64754 0.0
H1406 H 0.34337 0.86557 0.53162 0.0
H1407 H 0.40872 0.90921 0.74068 0.0
H1408 H 0.39952 0.86275 0.61078 0.0
H1409 H 0.33801 0.85678 0.68806 0.0
C1410 C 0.31885 0.85346 0.63052 0.0
C1411 C 0.32025 0.85678 0.58625 0.0
C1412 C 0.4015 0.8726 0.6397 0.0
C1413 C 0.36035 0.86565 0.6322 0.0
C1414 C 0.42327 0.88383 0.6606 0.0
C1415 C 0.42629 0.89752 0.69689 0.0
C1416 C 0.38266 0.8747 0.656 0.0
C1417 C 0.40696 0.89883 0.71261 0.0
C1418 C 0.33896 0.85815 0.65366 0.0
C1419 C 0.34166 0.86302 0.56578 0.0
N1420 N 0.38587 0.88752 0.69209 0.0
N1421 N 0.36097 0.86739 0.58896 0.0
loop_
_geom_bond_atom_site_label_1
_geom_bond_atom_site_label_2
_geom_bond_distance
_geom_bond_site_symmetry_2
_ccdc_geom_bond_type
Co0 O3 1.970 . S
Co0 N17 1.989 . S
Co0 O25 1.967 . S
Co0 O32 1.920 . S
Co1 O4 1.966 . S
Co1 N10 2.022 . S
Co1 N18 1.993 . S
Co1 O26 1.941 . S
C2 O3 1.258 . S
C2 O4 1.263 . S
O3 Co0 1.970 . S
O3 C2 1.258 . S
O4 Co1 1.966 . S
O4 C2 1.263 . S
C5 O6 1.235 . S
C5 O32 1.289 . S
O6 C5 1.235 . S
C7 C9 1.400 . S
C7 N10 1.351 . S
C7 C12 1.501 . S
C8 C9 1.387 . S
C8 N11 1.341 . S
C9 C7 1.400 . S
C9 C8 1.387 . S
N10 Co1 2.022 . S
N10 C7 1.351 . S
N10 N11 1.365 . S
N11 C8 1.341 . S
N11 N10 1.365 . S
N11 H31 0.862 . S
C12 C7 1.501 . S
C12 H13 0.961 . S
C12 H14 0.961 . S
C12 H15 0.960 . S
H13 C12 0.961 . S
H14 C12 0.961 . S
H15 C12 0.960 . S
C16 N17 1.342 . S
C16 C20 1.401 . S
C16 C21 1.499 . S
N17 Co0 1.989 . S
N17 C16 1.342 . S
N17 N18 1.388 . S
N18 Co1 1.993 . S
N18 N17 1.388 . S
N18 C19 1.346 . S
C19 N18 1.346 . S
C19 C20 1.396 . S
C19 C29 1.510 . S
C20 C16 1.401 . S
C20 C19 1.396 . S
C21 C16 1.499 . S
C21 H22 0.959 . S
C21 H23 0.960 . S
C21 H24 0.961 . S
H22 C21 0.959 . S
H23 C21 0.960 . S
H24 C21 0.961 . S
O25 Co0 1.967 . S
O25 C33 1.258 . S
O26 Co1 1.941 . S
O26 C33 1.266 . S
H27 C29 0.959 . S
H28 C29 0.961 . S
C29 C19 1.510 . S
C29 H27 0.959 . S
C29 H28 0.961 . S
C29 H30 0.960 . S
H30 C29 0.960 . S
H31 N11 0.862 . S
O32 Co0 1.920 . S
O32 C5 1.289 . S
C33 O25 1.258 . S
C33 O26 1.266 . S
Co34 O37 1.970 . S
Co34 N51 1.989 . S
Co34 O59 1.967 . S
Co34 O66 1.920 . S
Co35 O38 1.966 . S
Co35 N44 2.022 . S
Co35 N52 1.993 . S
Co35 O60 1.941 . S
C36 O37 1.258 . S
C36 O38 1.263 . S
O37 Co34 1.970 . S
O37 C36 1.258 . S
O38 Co35 1.966 . S
O38 C36 1.263 . S
C39 O40 1.235 . S
C39 O66 1.289 . S
O40 C39 1.235 . S
C41 C43 1.400 . S
C41 N44 1.351 . S
C41 C46 1.501 . S
C42 C43 1.387 . S
C42 N45 1.341 . S
C43 C41 1.400 . S
C43 C42 1.387 . S
N44 Co35 2.022 . S
N44 C41 1.351 . S
N44 N45 1.365 . S
N45 C42 1.341 . S
N45 N44 1.365 . S
N45 H65 0.862 . S
C46 C41 1.501 . S
C46 H47 0.961 . S
C46 H48 0.961 . S
C46 H49 0.960 . S
H47 C46 0.961 . S
H48 C46 0.961 . S
H49 C46 0.960 . S
C50 N51 1.342 . S
C50 C54 1.401 . S
C50 C55 1.499 . S
N51 Co34 1.989 . S
N51 C50 1.342 . S
N51 N52 1.388 . S
N52 Co35 1.993 . S
N52 N51 1.388 . S
N52 C53 1.346 . S
C53 N52 1.346 . S
C53 C54 1.396 . S
C53 C63 1.510 . S
C54 C50 1.401 . S
C54 C53 1.396 . S
C55 C50 1.499 . S
C55 H56 0.959 . S
C55 H57 0.960 . S
C55 H58 0.961 . S
H56 C55 0.959 . S
H57 C55 0.960 . S
H58 C55 0.961 . S
O59 Co34 1.967 . S
O59 C67 1.258 . S
O60 Co35 1.941 . S
O60 C67 1.266 . S
H61 C63 0.959 . S
H62 C63 0.961 . S
C63 C53 1.510 . S
C63 H61 0.959 . S
C63 H62 0.961 . S
C63 H64 0.960 . S
H64 C63 0.960 . S
H65 N45 0.862 . S
O66 Co34 1.920 . S
O66 C39 1.289 . S
C67 O59 1.258 . S
C67 O60 1.266 . S
Co68 O71 1.970 . S
Co68 N85 1.989 . S
Co68 O93 1.967 . S
Co68 O100 1.920 . S
Co69 O72 1.966 . S
Co69 N78 2.022 . S
Co69 N86 1.993 . S
Co69 O94 1.941 . S
C70 O71 1.258 . S
C70 O72 1.263 . S
O71 Co68 1.970 . S
O71 C70 1.258 . S
O72 Co69 1.966 . S
O72 C70 1.263 . S
C73 O74 1.235 . S
C73 O100 1.289 . S
O74 C73 1.235 . S
C75 C77 1.400 . S
C75 N78 1.351 . S
C75 C80 1.501 . S
C76 C77 1.387 . S
C76 N79 1.341 . S
C77 C75 1.400 . S
C77 C76 1.387 . S
N78 Co69 2.022 . S
N78 C75 1.351 . S
N78 N79 1.365 . S
N79 C76 1.341 . S
N79 N78 1.365 . S
N79 H99 0.862 . S
C80 C75 1.501 . S
C80 H81 0.961 . S
C80 H82 0.961 . S
C80 H83 0.960 . S
H81 C80 0.961 . S
H82 C80 0.961 . S
H83 C80 0.960 . S
C84 N85 1.342 . S
C84 C88 1.401 . S
C84 C89 1.499 . S
N85 Co68 1.989 . S
N85 C84 1.342 . S
N85 N86 1.388 . S
N86 Co69 1.993 . S
N86 N85 1.388 . S
N86 C87 1.346 . S
C87 N86 1.346 . S
C87 C88 1.396 . S
C87 C97 1.510 . S
C88 C84 1.401 . S
C88 C87 1.396 . S
C89 C84 1.499 . S
C89 H90 0.959 . S
C89 H91 0.960 . S
C89 H92 0.961 . S
H90 C89 0.959 . S
H91 C89 0.960 . S
H92 C89 0.961 . S
O93 Co68 1.967 . S
O93 C101 1.258 . S
O94 Co69 1.941 . S
O94 C101 1.266 . S
H95 C97 0.959 . S
H96 C97 0.961 . S
C97 C87 1.510 . S
C97 H95 0.959 . S
C97 H96 0.961 . S
C97 H98 0.960 . S
H98 C97 0.960 . S
H99 N79 0.862 . S
O100 Co68 1.920 . S
O100 C73 1.289 . S
C101 O93 1.258 . S
C101 O94 1.266 . S
Co102 O105 1.970 . S
Co102 N119 1.989 . S
Co102 O127 1.967 . S
Co102 O134 1.920 . S
Co103 O106 1.966 . S
Co103 N112 2.022 . S
Co103 N120 1.993 . S
Co103 O128 1.941 . S
C104 O105 1.258 . S
C104 O106 1.263 . S
O105 Co102 1.970 . S
O105 C104 1.258 . S
O106 Co103 1.966 . S
O106 C104 1.263 . S
C107 O108 1.235 . S
C107 O134 1.289 . S
O108 C107 1.235 . S
C109 C111 1.400 . S
C109 N112 1.351 . S
C109 C114 1.501 . S
C110 C111 1.387 . S
C110 N113 1.341 . S
C111 C109 1.400 . S
C111 C110 1.387 . S
N112 Co103 2.022 . S
N112 C109 1.351 . S
N112 N113 1.365 . S
N113 C110 1.341 . S
N113 N112 1.365 . S
N113 H133 0.862 . S
C114 C109 1.501 . S
C114 H115 0.961 . S
C114 H116 0.961 . S
C114 H117 0.960 . S
H115 C114 0.961 . S
H116 C114 0.961 . S
H117 C114 0.960 . S
C118 N119 1.342 . S
C118 C122 1.401 . S
C118 C123 1.499 . S
N119 Co102 1.989 . S
N119 C118 1.342 . S
N119 N120 1.388 . S
N120 Co103 1.993 . S
N120 N119 1.388 . S
N120 C121 1.346 . S
C121 N120 1.346 . S
C121 C122 1.396 . S
C121 C131 1.510 . S
C122 C118 1.401 . S
C122 C121 1.396 . S
C123 C118 1.499 . S
C123 H124 0.959 . S
C123 H125 0.960 . S
C123 H126 0.961 . S
H124 C123 0.959 . S
H125 C123 0.960 . S
H126 C123 0.961 . S
O127 Co102 1.967 . S
O127 C135 1.258 . S
O128 Co103 1.941 . S
O128 C135 1.266 . S
H129 C131 0.959 . S
H130 C131 0.961 . S
C131 C121 1.510 . S
C131 H129 0.959 . S
C131 H130 0.961 . S
C131 H132 0.960 . S
H132 C131 0.960 . S
H133 N113 0.862 . S
O134 Co102 1.920 . S
O134 C107 1.289 . S
C135 O127 1.258 . S
C135 O128 1.266 . S
Co136 O139 1.970 . S
Co136 N153 1.989 . S
Co136 O161 1.967 . S
Co136 O168 1.920 . S
Co137 O140 1.966 . S
Co137 N146 2.022 . S
Co137 N154 1.993 . S
Co137 O162 1.941 . S
C138 O139 1.258 . S
C138 O140 1.263 . S
O139 Co136 1.970 . S
O139 C138 1.258 . S
O140 Co137 1.966 . S
O140 C138 1.263 . S
C141 O142 1.235 . S
C141 O168 1.289 . S
O142 C141 1.235 . S
C143 C145 1.400 . S
C143 N146 1.351 . S
C143 C148 1.501 . S
C144 C145 1.387 . S
C144 N147 1.341 . S
C145 C143 1.400 . S
C145 C144 1.387 . S
N146 Co137 2.022 . S
N146 C143 1.351 . S
N146 N147 1.365 . S
N147 C144 1.341 . S
N147 N146 1.365 . S
N147 H167 0.862 . S
C148 C143 1.501 . S
C148 H149 0.961 . S
C148 H150 0.961 . S
C148 H151 0.960 . S
H149 C148 0.961 . S
H150 C148 0.961 . S
H151 C148 0.960 . S
C152 N153 1.342 . S
C152 C156 1.401 . S
C152 C157 1.499 . S
N153 Co136 1.989 . S
N153 C152 1.342 . S
N153 N154 1.388 . S
N154 Co137 1.993 . S
N154 N153 1.388 . S
N154 C155 1.346 . S
C155 N154 1.346 . S
C155 C156 1.396 . S
C155 C165 1.510 . S
C156 C152 1.401 . S
C156 C155 1.396 . S
C157 C152 1.499 . S
C157 H158 0.959 . S
C157 H159 0.960 . S
C157 H160 0.961 . S
H158 C157 0.959 . S
H159 C157 0.960 . S
H160 C157 0.961 . S
O161 Co136 1.967 . S
O161 C169 1.258 . S
O162 Co137 1.941 . S
O162 C169 1.266 . S
H163 C165 0.959 . S
H164 C165 0.961 . S
C165 C155 1.510 . S
C165 H163 0.959 . S
C165 H164 0.961 . S
C165 H166 0.960 . S
H166 C165 0.960 . S
H167 N147 0.862 . S
O168 Co136 1.920 . S
O168 C141 1.289 . S
C169 O161 1.258 . S
C169 O162 1.266 . S
Co170 O173 1.970 . S
Co170 N187 1.989 . S
Co170 O195 1.967 . S
Co170 O202 1.920 . S
Co171 O174 1.966 . S
Co171 N180 2.022 . S
Co171 N188 1.993 . S
Co171 O196 1.941 . S
C172 O173 1.258 . S
C172 O174 1.263 . S
O173 Co170 1.970 . S
O173 C172 1.258 . S
O174 Co171 1.966 . S
O174 C172 1.263 . S
C175 O176 1.235 . S
C175 O202 1.289 . S
O176 C175 1.235 . S
C177 C179 1.400 . S
C177 N180 1.351 . S
C177 C182 1.501 . S
C178 C179 1.387 . S
C178 N181 1.341 . S
C179 C177 1.400 . S
C179 C178 1.387 . S
N180 Co171 2.022 . S
N180 C177 1.351 . S
N180 N181 1.365 . S
N181 C178 1.341 . S
N181 N180 1.365 . S
N181 H201 0.862 . S
C182 C177 1.501 . S
C182 H183 0.961 . S
C182 H184 0.961 . S
C182 H185 0.960 . S
H183 C182 0.961 . S
H184 C182 0.961 . S
H185 C182 0.960 . S
C186 N187 1.342 . S
C186 C190 1.401 . S
C186 C191 1.499 . S
N187 Co170 1.989 . S
N187 C186 1.342 . S
N187 N188 1.388 . S
N188 Co171 1.993 . S
N188 N187 1.388 . S
N188 C189 1.346 . S
C189 N188 1.346 . S
C189 C190 1.396 . S
C189 C199 1.510 . S
C190 C186 1.401 . S
C190 C189 1.396 . S
C191 C186 1.499 . S
C191 H192 0.959 . S
C191 H193 0.960 . S
C191 H194 0.961 . S
H192 C191 0.959 . S
H193 C191 0.960 . S
H194 C191 0.961 . S
O195 Co170 1.967 . S
O195 C203 1.258 . S
O196 Co171 1.941 . S
O196 C203 1.266 . S
H197 C199 0.959 . S
H198 C199 0.961 . S
C199 C189 1.510 . S
C199 H197 0.959 . S
C199 H198 0.961 . S
C199 H200 0.960 . S
H200 C199 0.960 . S
H201 N181 0.862 . S
O202 Co170 1.920 . S
O202 C175 1.289 . S
C203 O195 1.258 . S
C203 O196 1.266 . S
Co204 O207 1.970 . S
Co204 N221 1.989 . S
Co204 O229 1.967 . S
Co204 O236 1.920 . S
Co205 O208 1.966 . S
Co205 N214 2.022 . S
Co205 N222 1.993 . S
Co205 O230 1.941 . S
C206 O207 1.258 . S
C206 O208 1.263 . S
O207 Co204 1.970 . S
O207 C206 1.258 . S
O208 Co205 1.966 . S
O208 C206 1.263 . S
C209 O210 1.235 . S
C209 O236 1.289 . S
O210 C209 1.235 . S
C211 C213 1.400 . S
C211 N214 1.351 . S
C211 C216 1.501 . S
C212 C213 1.387 . S
C212 N215 1.341 . S
C213 C211 1.400 . S
C213 C212 1.387 . S
N214 Co205 2.022 . S
N214 C211 1.351 . S
N214 N215 1.365 . S
N215 C212 1.341 . S
N215 N214 1.365 . S
N215 H235 0.862 . S
C216 C211 1.501 . S
C216 H217 0.961 . S
C216 H218 0.961 . S
C216 H219 0.960 . S
H217 C216 0.961 . S
H218 C216 0.961 . S
H219 C216 0.960 . S
C220 N221 1.342 . S
C220 C224 1.401 . S
C220 C225 1.499 . S
N221 Co204 1.989 . S
N221 C220 1.342 . S
N221 N222 1.388 . S
N222 Co205 1.993 . S
N222 N221 1.388 . S
N222 C223 1.346 . S
C223 N222 1.346 . S
C223 C224 1.396 . S
C223 C233 1.510 . S
C224 C220 1.401 . S
C224 C223 1.396 . S
C225 C220 1.499 . S
C225 H226 0.959 . S
C225 H227 0.960 . S
C225 H228 0.961 . S
H226 C225 0.959 . S
H227 C225 0.960 . S
H228 C225 0.961 . S
O229 Co204 1.967 . S
O229 C237 1.258 . S
O230 Co205 1.941 . S
O230 C237 1.266 . S
H231 C233 0.959 . S
H232 C233 0.961 . S
C233 C223 1.510 . S
C233 H231 0.959 . S
C233 H232 0.961 . S
C233 H234 0.960 . S
H234 C233 0.960 . S
H235 N215 0.862 . S
O236 Co204 1.920 . S
O236 C209 1.289 . S
C237 O229 1.258 . S
C237 O230 1.266 . S
Co238 O241 1.970 . S
Co238 N255 1.989 . S
Co238 O263 1.967 . S
Co238 O270 1.920 . S
Co239 O242 1.966 . S
Co239 N248 2.022 . S
Co239 N256 1.993 . S
Co239 O264 1.941 . S
C240 O241 1.258 . S
C240 O242 1.263 . S
O241 Co238 1.970 . S
O241 C240 1.258 . S
O242 Co239 1.966 . S
O242 C240 1.263 . S
C243 O244 1.235 . S
C243 O270 1.289 . S
O244 C243 1.235 . S
C245 C247 1.400 . S
C245 N248 1.351 . S
C245 C250 1.501 . S
C246 C247 1.387 . S
C246 N249 1.341 . S
C247 C245 1.400 . S
C247 C246 1.387 . S
N248 Co239 2.022 . S
N248 C245 1.351 . S
N248 N249 1.365 . S
N249 C246 1.341 . S
N249 N248 1.365 . S
N249 H269 0.862 . S
C250 C245 1.501 . S
C250 H251 0.961 . S
C250 H252 0.961 . S
C250 H253 0.960 . S
H251 C250 0.961 . S
H252 C250 0.961 . S
H253 C250 0.960 . S
C254 N255 1.342 . S
C254 C258 1.401 . S
C254 C259 1.499 . S
N255 Co238 1.989 . S
N255 C254 1.342 . S
N255 N256 1.388 . S
N256 Co239 1.993 . S
N256 N255 1.388 . S
N256 C257 1.346 . S
C257 N256 1.346 . S
C257 C258 1.396 . S
C257 C267 1.510 . S
C258 C254 1.401 . S
C258 C257 1.396 . S
C259 C254 1.499 . S
C259 H260 0.959 . S
C259 H261 0.960 . S
C259 H262 0.961 . S
H260 C259 0.959 . S
H261 C259 0.960 . S
H262 C259 0.961 . S
O263 Co238 1.967 . S
O263 C271 1.258 . S
O264 Co239 1.941 . S
O264 C271 1.266 . S
H265 C267 0.959 . S
H266 C267 0.961 . S
C267 C257 1.510 . S
C267 H265 0.959 . S
C267 H266 0.961 . S
C267 H268 0.960 . S
H268 C267 0.960 . S
H269 N249 0.862 . S
O270 Co238 1.920 . S
O270 C243 1.289 . S
C271 O263 1.258 . S
C271 O264 1.266 . S
Co272 O275 1.970 . S
Co272 N289 1.989 . S
Co272 O297 1.967 . S
Co272 O304 1.920 . S
Co273 O276 1.966 . S
Co273 N282 2.022 . S
Co273 N290 1.993 . S
Co273 O298 1.941 . S
C274 O275 1.258 . S
C274 O276 1.263 . S
O275 Co272 1.970 . S
O275 C274 1.258 . S
O276 Co273 1.966 . S
O276 C274 1.263 . S
C277 O278 1.235 . S
C277 O304 1.289 . S
O278 C277 1.235 . S
C279 C281 1.400 . S
C279 N282 1.351 . S
C279 C284 1.501 . S
C280 C281 1.387 . S
C280 N283 1.341 . S
C281 C279 1.400 . S
C281 C280 1.387 . S
N282 Co273 2.022 . S
N282 C279 1.351 . S
N282 N283 1.365 . S
N283 C280 1.341 . S
N283 N282 1.365 . S
N283 H303 0.862 . S
C284 C279 1.501 . S
C284 H285 0.961 . S
C284 H286 0.961 . S
C284 H287 0.960 . S
H285 C284 0.961 . S
H286 C284 0.961 . S
H287 C284 0.960 . S
C288 N289 1.342 . S
C288 C292 1.401 . S
C288 C293 1.499 . S
N289 Co272 1.989 . S
N289 C288 1.342 . S
N289 N290 1.388 . S
N290 Co273 1.993 . S
N290 N289 1.388 . S
N290 C291 1.346 . S
C291 N290 1.346 . S
C291 C292 1.396 . S
C291 C301 1.510 . S
C292 C288 1.401 . S
C292 C291 1.396 . S
C293 C288 1.499 . S
C293 H294 0.959 . S
C293 H295 0.960 . S
C293 H296 0.961 . S
H294 C293 0.959 . S
H295 C293 0.960 . S
H296 C293 0.961 . S
O297 Co272 1.967 . S
O297 C305 1.258 . S
O298 Co273 1.941 . S
O298 C305 1.266 . S
H299 C301 0.959 . S
H300 C301 0.961 . S
C301 C291 1.510 . S
C301 H299 0.959 . S
C301 H300 0.961 . S
C301 H302 0.960 . S
H302 C301 0.960 . S
H303 N283 0.862 . S
O304 Co272 1.920 . S
O304 C277 1.289 . S
C305 O297 1.258 . S
C305 O298 1.266 . S
Co306 O309 1.970 . S
Co306 N323 1.989 . S
Co306 O331 1.967 . S
Co306 O338 1.920 . S
Co307 O310 1.966 . S
Co307 N316 2.022 . S
Co307 N324 1.993 . S
Co307 O332 1.941 . S
C308 O309 1.258 . S
C308 O310 1.263 . S
O309 Co306 1.970 . S
O309 C308 1.258 . S
O310 Co307 1.966 . S
O310 C308 1.263 . S
C311 O312 1.235 . S
C311 O338 1.289 . S
O312 C311 1.235 . S
C313 C315 1.400 . S
C313 N316 1.351 . S
C313 C318 1.501 . S
C314 C315 1.387 . S
C314 N317 1.341 . S
C315 C313 1.400 . S
C315 C314 1.387 . S
N316 Co307 2.022 . S
N316 C313 1.351 . S
N316 N317 1.365 . S
N317 C314 1.341 . S
N317 N316 1.365 . S
N317 H337 0.862 . S
C318 C313 1.501 . S
C318 H319 0.961 . S
C318 H320 0.961 . S
C318 H321 0.960 . S
H319 C318 0.961 . S
H320 C318 0.961 . S
H321 C318 0.960 . S
C322 N323 1.342 . S
C322 C326 1.401 . S
C322 C327 1.499 . S
N323 Co306 1.989 . S
N323 C322 1.342 . S
N323 N324 1.388 . S
N324 Co307 1.993 . S
N324 N323 1.388 . S
N324 C325 1.346 . S
C325 N324 1.346 . S
C325 C326 1.396 . S
C325 C335 1.510 . S
C326 C322 1.401 . S
C326 C325 1.396 . S
C327 C322 1.499 . S
C327 H328 0.959 . S
C327 H329 0.960 . S
C327 H330 0.961 . S
H328 C327 0.959 . S
H329 C327 0.960 . S
H330 C327 0.961 . S
O331 Co306 1.967 . S
O331 C339 1.258 . S
O332 Co307 1.941 . S
O332 C339 1.266 . S
H333 C335 0.959 . S
H334 C335 0.961 . S
C335 C325 1.510 . S
C335 H333 0.959 . S
C335 H334 0.961 . S
C335 H336 0.960 . S
H336 C335 0.960 . S
H337 N317 0.862 . S
O338 Co306 1.920 . S
O338 C311 1.289 . S
C339 O331 1.258 . S
C339 O332 1.266 . S
Co340 O343 1.970 . S
Co340 N357 1.989 . S
Co340 O365 1.967 . S
Co340 O372 1.920 . S
Co341 O344 1.966 . S
Co341 N350 2.022 . S
Co341 N358 1.993 . S
Co341 O366 1.941 . S
C342 O343 1.258 . S
C342 O344 1.263 . S
O343 Co340 1.970 . S
O343 C342 1.258 . S
O344 Co341 1.966 . S
O344 C342 1.263 . S
C345 O346 1.235 . S
C345 O372 1.289 . S
O346 C345 1.235 . S
C347 C349 1.400 . S
C347 N350 1.351 . S
C347 C352 1.501 . S
C348 C349 1.387 . S
C348 N351 1.341 . S
C349 C347 1.400 . S
C349 C348 1.387 . S
N350 Co341 2.022 . S
N350 C347 1.351 . S
N350 N351 1.365 . S
N351 C348 1.341 . S
N351 N350 1.365 . S
N351 H371 0.862 . S
C352 C347 1.501 . S
C352 H353 0.961 . S
C352 H354 0.961 . S
C352 H355 0.960 . S
H353 C352 0.961 . S
H354 C352 0.961 . S
H355 C352 0.960 . S
C356 N357 1.342 . S
C356 C360 1.401 . S
C356 C361 1.499 . S
N357 Co340 1.989 . S
N357 C356 1.342 . S
N357 N358 1.388 . S
N358 Co341 1.993 . S
N358 N357 1.388 . S
N358 C359 1.346 . S
C359 N358 1.346 . S
C359 C360 1.396 . S
C359 C369 1.510 . S
C360 C356 1.401 . S
C360 C359 1.396 . S
C361 C356 1.499 . S
C361 H362 0.959 . S
C361 H363 0.960 . S
C361 H364 0.961 . S
H362 C361 0.959 . S
H363 C361 0.960 . S
H364 C361 0.961 . S
O365 Co340 1.967 . S
O365 C373 1.258 . S
O366 Co341 1.941 . S
O366 C373 1.266 . S
H367 C369 0.959 . S
H368 C369 0.961 . S
C369 C359 1.510 . S
C369 H367 0.959 . S
C369 H368 0.961 . S
C369 H370 0.960 . S
H370 C369 0.960 . S
H371 N351 0.862 . S
O372 Co340 1.920 . S
O372 C345 1.289 . S
C373 O365 1.258 . S
C373 O366 1.266 . S
Co374 O377 1.970 . S
Co374 N391 1.989 . S
Co374 O399 1.967 . S
Co374 O406 1.920 . S
Co375 O378 1.966 . S
Co375 N384 2.022 . S
Co375 N392 1.993 . S
Co375 O400 1.941 . S
C376 O377 1.258 . S
C376 O378 1.263 . S
O377 Co374 1.970 . S
O377 C376 1.258 . S
O378 Co375 1.966 . S
O378 C376 1.263 . S
C379 O380 1.235 . S
C379 O406 1.289 . S
O380 C379 1.235 . S
C381 C383 1.400 . S
C381 N384 1.351 . S
C381 C386 1.501 . S
C382 C383 1.387 . S
C382 N385 1.341 . S
C383 C381 1.400 . S
C383 C382 1.387 . S
N384 Co375 2.022 . S
N384 C381 1.351 . S
N384 N385 1.365 . S
N385 C382 1.341 . S
N385 N384 1.365 . S
N385 H405 0.862 . S
C386 C381 1.501 . S
C386 H387 0.961 . S
C386 H388 0.961 . S
C386 H389 0.960 . S
H387 C386 0.961 . S
H388 C386 0.961 . S
H389 C386 0.960 . S
C390 N391 1.342 . S
C390 C394 1.401 . S
C390 C395 1.499 . S
N391 Co374 1.989 . S
N391 C390 1.342 . S
N391 N392 1.388 . S
N392 Co375 1.993 . S
N392 N391 1.388 . S
N392 C393 1.346 . S
C393 N392 1.346 . S
C393 C394 1.396 . S
C393 C403 1.510 . S
C394 C390 1.401 . S
C394 C393 1.396 . S
C395 C390 1.499 . S
C395 H396 0.959 . S
C395 H397 0.960 . S
C395 H398 0.961 . S
H396 C395 0.959 . S
H397 C395 0.960 . S
H398 C395 0.961 . S
O399 Co374 1.967 . S
O399 C407 1.258 . S
O400 Co375 1.941 . S
O400 C407 1.266 . S
H401 C403 0.959 . S
H402 C403 0.961 . S
C403 C393 1.510 . S
C403 H401 0.959 . S
C403 H402 0.961 . S
C403 H404 0.960 . S
H404 C403 0.960 . S
H405 N385 0.862 . S
O406 Co374 1.920 . S
O406 C379 1.289 . S
C407 O399 1.258 . S
C407 O400 1.266 . S
Co408 O411 1.970 . S
Co408 N425 1.989 . S
Co408 O433 1.967 . S
Co408 O440 1.920 . S
Co409 O412 1.966 . S
Co409 N418 2.022 . S
Co409 N426 1.993 . S
Co409 O434 1.941 . S
C410 O411 1.258 . S
C410 O412 1.263 . S
O411 Co408 1.970 . S
O411 C410 1.258 . S
O412 Co409 1.966 . S
O412 C410 1.263 . S
C413 O414 1.235 . S
C413 O440 1.289 . S
O414 C413 1.235 . S
C415 C417 1.400 . S
C415 N418 1.351 . S
C415 C420 1.501 . S
C416 C417 1.387 . S
C416 N419 1.341 . S
C417 C415 1.400 . S
C417 C416 1.387 . S
N418 Co409 2.022 . S
N418 C415 1.351 . S
N418 N419 1.365 . S
N419 C416 1.341 . S
N419 N418 1.365 . S
N419 H439 0.862 . S
C420 C415 1.501 . S
C420 H421 0.961 . S
C420 H422 0.961 . S
C420 H423 0.960 . S
H421 C420 0.961 . S
H422 C420 0.961 . S
H423 C420 0.960 . S
C424 N425 1.342 . S
C424 C428 1.401 . S
C424 C429 1.499 . S
N425 Co408 1.989 . S
N425 C424 1.342 . S
N425 N426 1.388 . S
N426 Co409 1.993 . S
N426 N425 1.388 . S
N426 C427 1.346 . S
C427 N426 1.346 . S
C427 C428 1.396 . S
C427 C437 1.510 . S
C428 C424 1.401 . S
C428 C427 1.396 . S
C429 C424 1.499 . S
C429 H430 0.959 . S
C429 H431 0.960 . S
C429 H432 0.961 . S
H430 C429 0.959 . S
H431 C429 0.960 . S
H432 C429 0.961 . S
O433 Co408 1.967 . S
O433 C441 1.258 . S
O434 Co409 1.941 . S
O434 C441 1.266 . S
H435 C437 0.959 . S
H436 C437 0.961 . S
C437 C427 1.510 . S
C437 H435 0.959 . S
C437 H436 0.961 . S
C437 H438 0.960 . S
H438 C437 0.960 . S
H439 N419 0.862 . S
O440 Co408 1.920 . S
O440 C413 1.289 . S
C441 O433 1.258 . S
C441 O434 1.266 . S
Co442 O445 1.970 . S
Co442 N459 1.989 . S
Co442 O467 1.967 . S
Co442 O474 1.920 . S
Co443 O446 1.966 . S
Co443 N452 2.022 . S
Co443 N460 1.993 . S
Co443 O468 1.941 . S
C444 O445 1.258 . S
C444 O446 1.263 . S
O445 Co442 1.970 . S
O445 C444 1.258 . S
O446 Co443 1.966 . S
O446 C444 1.263 . S
C447 O448 1.235 . S
C447 O474 1.289 . S
O448 C447 1.235 . S
C449 C451 1.400 . S
C449 N452 1.351 . S
C449 C454 1.501 . S
C450 C451 1.387 . S
C450 N453 1.341 . S
C451 C449 1.400 . S
C451 C450 1.387 . S
N452 Co443 2.022 . S
N452 C449 1.351 . S
N452 N453 1.365 . S
N453 C450 1.341 . S
N453 N452 1.365 . S
N453 H473 0.862 . S
C454 C449 1.501 . S
C454 H455 0.961 . S
C454 H456 0.961 . S
C454 H457 0.960 . S
H455 C454 0.961 . S
H456 C454 0.961 . S
H457 C454 0.960 . S
C458 N459 1.342 . S
C458 C462 1.401 . S
C458 C463 1.499 . S
N459 Co442 1.989 . S
N459 C458 1.342 . S
N459 N460 1.388 . S
N460 Co443 1.993 . S
N460 N459 1.388 . S
N460 C461 1.346 . S
C461 N460 1.346 . S
C461 C462 1.396 . S
C461 C471 1.510 . S
C462 C458 1.401 . S
C462 C461 1.396 . S
C463 C458 1.499 . S
C463 H464 0.959 . S
C463 H465 0.960 . S
C463 H466 0.961 . S
H464 C463 0.959 . S
H465 C463 0.960 . S
H466 C463 0.961 . S
O467 Co442 1.967 . S
O467 C475 1.258 . S
O468 Co443 1.941 . S
O468 C475 1.266 . S
H469 C471 0.959 . S
H470 C471 0.961 . S
C471 C461 1.510 . S
C471 H469 0.959 . S
C471 H470 0.961 . S
C471 H472 0.960 . S
H472 C471 0.960 . S
H473 N453 0.862 . S
O474 Co442 1.920 . S
O474 C447 1.289 . S
C475 O467 1.258 . S
C475 O468 1.266 . S
Co476 O479 1.970 . S
Co476 N493 1.989 . S
Co476 O501 1.967 . S
Co476 O508 1.920 . S
Co477 O480 1.966 . S
Co477 N486 2.022 . S
Co477 N494 1.993 . S
Co477 O502 1.941 . S
C478 O479 1.258 . S
C478 O480 1.263 . S
O479 Co476 1.970 . S
O479 C478 1.258 . S
O480 Co477 1.966 . S
O480 C478 1.263 . S
C481 O482 1.235 . S
C481 O508 1.289 . S
O482 C481 1.235 . S
C483 C485 1.400 . S
C483 N486 1.351 . S
C483 C488 1.501 . S
C484 C485 1.387 . S
C484 N487 1.341 . S
C485 C483 1.400 . S
C485 C484 1.387 . S
N486 Co477 2.022 . S
N486 C483 1.351 . S
N486 N487 1.365 . S
N487 C484 1.341 . S
N487 N486 1.365 . S
N487 H507 0.862 . S
C488 C483 1.501 . S
C488 H489 0.961 . S
C488 H490 0.961 . S
C488 H491 0.960 . S
H489 C488 0.961 . S
H490 C488 0.961 . S
H491 C488 0.960 . S
C492 N493 1.342 . S
C492 C496 1.401 . S
C492 C497 1.499 . S
N493 Co476 1.989 . S
N493 C492 1.342 . S
N493 N494 1.388 . S
N494 Co477 1.993 . S
N494 N493 1.388 . S
N494 C495 1.346 . S
C495 N494 1.346 . S
C495 C496 1.396 . S
C495 C505 1.510 . S
C496 C492 1.401 . S
C496 C495 1.396 . S
C497 C492 1.499 . S
C497 H498 0.959 . S
C497 H499 0.960 . S
C497 H500 0.961 . S
H498 C497 0.959 . S
H499 C497 0.960 . S
H500 C497 0.961 . S
O501 Co476 1.967 . S
O501 C509 1.258 . S
O502 Co477 1.941 . S
O502 C509 1.266 . S
H503 C505 0.959 . S
H504 C505 0.961 . S
C505 C495 1.510 . S
C505 H503 0.959 . S
C505 H504 0.961 . S
C505 H506 0.960 . S
H506 C505 0.960 . S
H507 N487 0.862 . S
O508 Co476 1.920 . S
O508 C481 1.289 . S
C509 O501 1.258 . S
C509 O502 1.266 . S
Co510 O513 1.970 . S
Co510 N527 1.989 . S
Co510 O535 1.967 . S
Co510 O542 1.920 . S
Co511 O514 1.966 . S
Co511 N520 2.022 . S
Co511 N528 1.993 . S
Co511 O536 1.941 . S
C512 O513 1.258 . S
C512 O514 1.263 . S
O513 Co510 1.970 . S
O513 C512 1.258 . S
O514 Co511 1.966 . S
O514 C512 1.263 . S
C515 O516 1.235 . S
C515 O542 1.289 . S
O516 C515 1.235 . S
C517 C519 1.400 . S
C517 N520 1.351 . S
C517 C522 1.501 . S
C518 C519 1.387 . S
C518 N521 1.341 . S
C519 C517 1.400 . S
C519 C518 1.387 . S
N520 Co511 2.022 . S
N520 C517 1.351 . S
N520 N521 1.365 . S
N521 C518 1.341 . S
N521 N520 1.365 . S
N521 H541 0.862 . S
C522 C517 1.501 . S
C522 H523 0.961 . S
C522 H524 0.961 . S
C522 H525 0.960 . S
H523 C522 0.961 . S
H524 C522 0.961 . S
H525 C522 0.960 . S
C526 N527 1.342 . S
C526 C530 1.401 . S
C526 C531 1.499 . S
N527 Co510 1.989 . S
N527 C526 1.342 . S
N527 N528 1.388 . S
N528 Co511 1.993 . S
N528 N527 1.388 . S
N528 C529 1.346 . S
C529 N528 1.346 . S
C529 C530 1.396 . S
C529 C539 1.510 . S
C530 C526 1.401 . S
C530 C529 1.396 . S
C531 C526 1.499 . S
C531 H532 0.959 . S
C531 H533 0.960 . S
C531 H534 0.961 . S
H532 C531 0.959 . S
H533 C531 0.960 . S
H534 C531 0.961 . S
O535 Co510 1.967 . S
O535 C543 1.258 . S
O536 Co511 1.941 . S
O536 C543 1.266 . S
H537 C539 0.959 . S
H538 C539 0.961 . S
C539 C529 1.510 . S
C539 H537 0.959 . S
C539 H538 0.961 . S
C539 H540 0.960 . S
H540 C539 0.960 . S
H541 N521 0.862 . S
O542 Co510 1.920 . S
O542 C515 1.289 . S
C543 O535 1.258 . S
C543 O536 1.266 . S
Co544 O547 1.970 . S
Co544 N561 1.989 . S
Co544 O569 1.967 . S
Co544 O576 1.920 . S
Co545 O548 1.966 . S
Co545 N554 2.022 . S
Co545 N562 1.993 . S
Co545 O570 1.941 . S
C546 O547 1.258 . S
C546 O548 1.263 . S
O547 Co544 1.970 . S
O547 C546 1.258 . S
O548 Co545 1.966 . S
O548 C546 1.263 . S
C549 O550 1.235 . S
C549 O576 1.289 . S
O550 C549 1.235 . S
C551 C553 1.400 . S
C551 N554 1.351 . S
C551 C556 1.501 . S
C552 C553 1.387 . S
C552 N555 1.341 . S
C553 C551 1.400 . S
C553 C552 1.387 . S
N554 Co545 2.022 . S
N554 C551 1.351 . S
N554 N555 1.365 . S
N555 C552 1.341 . S
N555 N554 1.365 . S
N555 H575 0.862 . S
C556 C551 1.501 . S
C556 H557 0.961 . S
C556 H558 0.961 . S
C556 H559 0.960 . S
H557 C556 0.961 . S
H558 C556 0.961 . S
H559 C556 0.960 . S
C560 N561 1.342 . S
C560 C564 1.401 . S
C560 C565 1.499 . S
N561 Co544 1.989 . S
N561 C560 1.342 . S
N561 N562 1.388 . S
N562 Co545 1.993 . S
N562 N561 1.388 . S
N562 C563 1.346 . S
C563 N562 1.346 . S
C563 C564 1.396 . S
C563 C573 1.510 . S
C564 C560 1.401 . S
C564 C563 1.396 . S
C565 C560 1.499 . S
C565 H566 0.959 . S
C565 H567 0.960 . S
C565 H568 0.961 . S
H566 C565 0.959 . S
H567 C565 0.960 . S
H568 C565 0.961 . S
O569 Co544 1.967 . S
O569 C577 1.258 . S
O570 Co545 1.941 . S
O570 C577 1.266 . S
H571 C573 0.959 . S
H572 C573 0.961 . S
C573 C563 1.510 . S
C573 H571 0.959 . S
C573 H572 0.961 . S
C573 H574 0.960 . S
H574 C573 0.960 . S
H575 N555 0.862 . S
O576 Co544 1.920 . S
O576 C549 1.289 . S
C577 O569 1.258 . S
C577 O570 1.266 . S
Co578 O581 1.970 . S
Co578 N595 1.989 . S
Co578 O603 1.967 . S
Co578 O610 1.920 . S
Co579 O582 1.966 . S
Co579 N588 2.022 . S
Co579 N596 1.993 . S
Co579 O604 1.941 . S
C580 O581 1.258 . S
C580 O582 1.263 . S
O581 Co578 1.970 . S
O581 C580 1.258 . S
O582 Co579 1.966 . S
O582 C580 1.263 . S
C583 O584 1.235 . S
C583 O610 1.289 . S
O584 C583 1.235 . S
C585 C587 1.400 . S
C585 N588 1.351 . S
C585 C590 1.501 . S
C586 C587 1.387 . S
C586 N589 1.341 . S
C587 C585 1.400 . S
C587 C586 1.387 . S
N588 Co579 2.022 . S
N588 C585 1.351 . S
N588 N589 1.365 . S
N589 C586 1.341 . S
N589 N588 1.365 . S
N589 H609 0.862 . S
C590 C585 1.501 . S
C590 H591 0.961 . S
C590 H592 0.961 . S
C590 H593 0.960 . S
H591 C590 0.961 . S
H592 C590 0.961 . S
H593 C590 0.960 . S
C594 N595 1.342 . S
C594 C598 1.401 . S
C594 C599 1.499 . S
N595 Co578 1.989 . S
N595 C594 1.342 . S
N595 N596 1.388 . S
N596 Co579 1.993 . S
N596 N595 1.388 . S
N596 C597 1.346 . S
C597 N596 1.346 . S
C597 C598 1.396 . S
C597 C607 1.510 . S
C598 C594 1.401 . S
C598 C597 1.396 . S
C599 C594 1.499 . S
C599 H600 0.959 . S
C599 H601 0.960 . S
C599 H602 0.961 . S
H600 C599 0.959 . S
H601 C599 0.960 . S
H602 C599 0.961 . S
O603 Co578 1.967 . S
O603 C611 1.258 . S
O604 Co579 1.941 . S
O604 C611 1.266 . S
H605 C607 0.959 . S
H606 C607 0.961 . S
C607 C597 1.510 . S
C607 H605 0.959 . S
C607 H606 0.961 . S
C607 H608 0.960 . S
H608 C607 0.960 . S
H609 N589 0.862 . S
O610 Co578 1.920 . S
O610 C583 1.289 . S
C611 O603 1.258 . S
C611 O604 1.266 . S
H612 C618 0.930 . S
H613 C622 0.930 . S
H614 C627 0.929 . S
H615 C625 0.929 . S
H616 C620 0.929 . S
H617 C626 0.929 . S
C618 H612 0.930 . S
C618 C619 1.367 . S
C618 C626 1.378 . S
C619 C618 1.367 . S
C619 C627 1.433 . S
C620 H616 0.929 . S
C620 C622 1.378 . S
C620 C624 1.350 . S
C621 C624 1.463 . S
C621 C626 1.350 . S
C621 N629 1.427 . S
C622 H613 0.930 . S
C622 C620 1.378 . S
C622 C623 1.367 . S
C623 C622 1.367 . S
C623 C625 1.433 . S
C624 C620 1.350 . S
C624 C621 1.463 . S
C624 N628 1.427 . S
C625 H615 0.929 . S
C625 C623 1.433 . S
C625 N628 1.384 . S
C626 H617 0.929 . S
C626 C618 1.378 . S
C626 C621 1.350 . S
C627 H614 0.929 . S
C627 C619 1.433 . S
C627 N629 1.384 . S
N628 C624 1.427 . S
N628 C625 1.384 . S
N629 C621 1.427 . S
N629 C627 1.384 . S
H630 C636 0.930 1_565 S
H631 C640 0.930 . S
H632 C645 0.929 . S
H633 C643 0.929 . S
H634 C638 0.929 . S
H635 C644 0.929 . S
C636 H630 0.930 1_545 S
C636 C637 1.380 . S
C636 C644 1.378 . S
C637 C636 1.380 . S
C637 C645 1.436 . S
C638 H634 0.929 . S
C638 C640 1.378 . S
C638 C642 1.350 . S
C639 C642 1.463 . S
C639 C644 1.350 . S
C639 N647 1.427 . S
C640 H631 0.930 . S
C640 C638 1.378 . S
C640 C641 1.367 . S
C641 C640 1.367 . S
C641 C643 1.433 . S
C642 C638 1.350 . S
C642 C639 1.463 . S
C642 N646 1.427 . S
C643 H633 0.929 . S
C643 C641 1.433 . S
C643 N646 1.384 . S
C644 H635 0.929 . S
C644 C636 1.378 . S
C644 C639 1.350 . S
C645 H632 0.929 . S
C645 C637 1.436 . S
C645 N647 1.384 . S
N646 C642 1.427 . S
N646 C643 1.384 . S
N647 C639 1.427 . S
N647 C645 1.384 . S
H648 C654 0.923 1_455 S
H649 C658 0.930 . S
H650 C663 0.929 . S
H651 C661 0.929 . S
H652 C656 0.929 . S
H653 C662 0.929 . S
C654 H648 0.923 1_655 S
C654 C655 1.364 . S
C654 C662 1.392 . S
C655 C654 1.364 . S
C655 C663 1.437 . S
C656 H652 0.929 . S
C656 C658 1.378 . S
C656 C660 1.350 . S
C657 C660 1.463 . S
C657 C662 1.350 . S
C657 N665 1.427 . S
C658 H649 0.930 . S
C658 C656 1.378 . S
C658 C659 1.367 . S
C659 C658 1.367 . S
C659 C661 1.433 . S
C660 C656 1.350 . S
C660 C657 1.463 . S
C660 N664 1.427 . S
C661 H651 0.929 . S
C661 C659 1.433 . S
C661 N664 1.384 . S
C662 H653 0.929 . S
C662 C654 1.392 . S
C662 C657 1.350 . S
C663 H650 0.929 . S
C663 C655 1.437 . S
C663 N665 1.384 . S
N664 C660 1.427 . S
N664 C661 1.384 . S
N665 C657 1.427 . S
N665 C663 1.384 . S
H666 C672 0.930 . S
H667 C676 0.930 . S
H668 C681 0.929 . S
H669 C679 0.929 . S
H670 C674 0.929 . S
H671 C680 0.929 . S
C672 H666 0.930 . S
C672 C673 1.367 . S
C672 C680 1.378 . S
C673 C672 1.367 . S
C673 C681 1.433 . S
C674 H670 0.929 . S
C674 C676 1.378 . S
C674 C678 1.350 . S
C675 C678 1.463 . S
C675 C680 1.350 . S
C675 N683 1.427 . S
C676 H667 0.930 . S
C676 C674 1.378 . S
C676 C677 1.367 . S
C677 C676 1.367 . S
C677 C679 1.433 . S
C678 C674 1.350 . S
C678 C675 1.463 . S
C678 N682 1.427 . S
C679 H669 0.929 . S
C679 C677 1.433 . S
C679 N682 1.384 . S
C680 H671 0.929 . S
C680 C672 1.378 . S
C680 C675 1.350 . S
C681 H668 0.929 . S
C681 C673 1.433 . S
C681 N683 1.384 . S
N682 C678 1.427 . S
N682 C679 1.384 . S
N683 C675 1.427 . S
N683 C681 1.384 . S
H684 C690 0.930 . S
H685 C694 0.930 . S
H686 C699 0.929 . S
H687 C697 0.929 . S
H688 C692 0.929 . S
H689 C698 0.929 . S
C690 H684 0.930 . S
C690 C691 1.367 1_545 S
C690 C698 1.378 1_545 S
C691 C690 1.367 1_565 S
C691 C699 1.436 . S
C692 H688 0.929 . S
C692 C694 1.378 . S
C692 C696 1.350 . S
C693 C696 1.463 . S
C693 C698 1.350 . S
C693 N701 1.427 . S
C694 H685 0.930 . S
C694 C692 1.378 . S
C694 C695 1.367 . S
C695 C694 1.367 . S
C695 C697 1.433 . S
C696 C692 1.350 . S
C696 C693 1.463 . S
C696 N700 1.427 . S
C697 H687 0.929 . S
C697 C695 1.433 . S
C697 N700 1.384 . S
C698 H689 0.929 . S
C698 C690 1.378 1_565 S
C698 C693 1.350 . S
C699 H686 0.929 . S
C699 C691 1.436 . S
C699 N701 1.384 . S
N700 C696 1.427 . S
N700 C697 1.384 . S
N701 C693 1.427 . S
N701 C699 1.384 . S
H702 C708 0.930 1_655 S
H703 C712 0.930 . S
H704 C717 0.929 . S
H705 C715 0.929 . S
H706 C710 0.929 . S
H707 C716 0.929 . S
C708 H702 0.930 1_455 S
C708 C709 1.377 . S
C708 C716 1.378 . S
C709 C708 1.377 . S
C709 C717 1.432 . S
C710 H706 0.929 . S
C710 C712 1.378 . S
C710 C714 1.350 . S
C711 C714 1.463 . S
C711 C716 1.350 . S
C711 N719 1.427 . S
C712 H703 0.930 . S
C712 C710 1.378 . S
C712 C713 1.367 . S
C713 C712 1.367 . S
C713 C715 1.433 . S
C714 C710 1.350 . S
C714 C711 1.463 . S
C714 N718 1.427 . S
C715 H705 0.929 . S
C715 C713 1.433 . S
C715 N718 1.384 . S
C716 H707 0.929 . S
C716 C708 1.378 . S
C716 C711 1.350 . S
C717 H704 0.929 . S
C717 C709 1.432 . S
C717 N719 1.384 . S
N718 C714 1.427 . S
N718 C715 1.384 . S
N719 C711 1.427 . S
N719 C717 1.384 . S
H720 C726 0.930 . S
H721 C730 0.930 . S
H722 C735 0.929 . S
H723 C733 0.929 . S
H724 C728 0.929 . S
H725 C734 0.929 . S
C726 H720 0.930 . S
C726 C727 1.367 . S
C726 C734 1.378 . S
C727 C726 1.367 . S
C727 C735 1.433 . S
C728 H724 0.929 . S
C728 C730 1.378 1_655 S
C728 C732 1.350 . S
C729 C732 1.463 . S
C729 C734 1.350 . S
C729 N737 1.427 . S
C730 H721 0.930 . S
C730 C728 1.378 1_455 S
C730 C731 1.367 . S
C731 C730 1.367 . S
C731 C733 1.433 . S
C732 C728 1.350 . S
C732 C729 1.463 . S
C732 N736 1.438 . S
C733 H723 0.929 . S
C733 C731 1.433 . S
C733 N736 1.374 1_455 S
C734 H725 0.929 . S
C734 C726 1.378 . S
C734 C729 1.350 . S
C735 H722 0.929 . S
C735 C727 1.433 . S
C735 N737 1.384 . S
N736 C732 1.438 . S
N736 C733 1.374 1_655 S
N737 C729 1.427 . S
N737 C735 1.384 . S
H738 C744 0.930 . S
H739 C748 0.930 . S
H740 C753 0.929 . S
H741 C751 0.929 . S
H742 C746 0.929 . S
H743 C752 0.929 . S
C744 H738 0.930 . S
C744 C745 1.367 . S
C744 C752 1.378 . S
C745 C744 1.367 . S
C745 C753 1.433 . S
C746 H742 0.929 . S
C746 C748 1.378 . S
C746 C750 1.350 . S
C747 C750 1.463 . S
C747 C752 1.350 . S
C747 N755 1.427 . S
C748 H739 0.930 . S
C748 C746 1.378 . S
C748 C749 1.367 . S
C749 C748 1.367 . S
C749 C751 1.433 . S
C750 C746 1.350 . S
C750 C747 1.463 . S
C750 N754 1.427 . S
C751 H741 0.929 . S
C751 C749 1.433 . S
C751 N754 1.384 . S
C752 H743 0.929 . S
C752 C744 1.378 . S
C752 C747 1.350 . S
C753 H740 0.929 . S
C753 C745 1.433 . S
C753 N755 1.384 . S
N754 C750 1.427 . S
N754 C751 1.384 . S
N755 C747 1.427 . S
N755 C753 1.384 . S
H756 C762 0.930 . S
H757 C766 0.930 . S
H758 C771 0.929 . S
H759 C769 0.929 . S
H760 C764 0.929 . S
H761 C770 0.929 . S
C762 H756 0.930 . S
C762 C763 1.367 . S
C762 C770 1.378 1_565 S
C763 C762 1.367 . S
C763 C771 1.433 . S
C764 H760 0.929 . S
C764 C766 1.378 . S
C764 C768 1.350 . S
C765 C768 1.463 . S
C765 C770 1.350 . S
C765 N773 1.427 . S
C766 H757 0.930 . S
C766 C764 1.378 . S
C766 C767 1.367 . S
C767 C766 1.367 . S
C767 C769 1.433 . S
C768 C764 1.350 . S
C768 C765 1.463 . S
C768 N772 1.427 . S
C769 H759 0.929 . S
C769 C767 1.433 . S
C769 N772 1.384 . S
C770 H761 0.929 . S
C770 C762 1.378 1_545 S
C770 C765 1.350 . S
C771 H758 0.929 . S
C771 C763 1.433 . S
C771 N773 1.384 1_565 S
N772 C768 1.427 . S
N772 C769 1.384 . S
N773 C765 1.427 . S
N773 C771 1.384 1_545 S
H774 C780 0.930 . S
H775 C784 0.930 . S
H776 C789 0.929 . S
H777 C787 0.929 . S
H778 C782 0.929 . S
H779 C788 0.929 . S
C780 H774 0.930 . S
C780 C781 1.367 . S
C780 C788 1.378 . S
C781 C780 1.367 . S
C781 C789 1.433 . S
C782 H778 0.929 . S
C782 C784 1.378 . S
C782 C786 1.350 1_556 S
C783 C786 1.463 . S
C783 C788 1.350 . S
C783 N791 1.427 . S
C784 H775 0.930 . S
C784 C782 1.378 . S
C784 C785 1.367 . S
C785 C784 1.367 . S
C785 C787 1.433 . S
C786 C782 1.350 1_554 S
C786 C783 1.463 . S
C786 N790 1.427 . S
C787 H777 0.929 . S
C787 C785 1.433 . S
C787 N790 1.384 1_556 S
C788 H779 0.929 . S
C788 C780 1.378 . S
C788 C783 1.350 . S
C789 H776 0.929 . S
C789 C781 1.433 . S
C789 N791 1.384 . S
N790 C786 1.427 . S
N790 C787 1.384 1_554 S
N791 C783 1.427 . S
N791 C789 1.384 . S
H792 C798 0.930 . S
H793 C802 0.930 . S
H794 C807 0.929 . S
H795 C805 0.929 . S
H796 C800 0.929 . S
H797 C806 0.929 . S
C798 H792 0.930 . S
C798 C799 1.367 . S
C798 C806 1.378 . S
C799 C798 1.367 . S
C799 C807 1.433 . S
C800 H796 0.929 . S
C800 C802 1.378 . S
C800 C804 1.350 1_556 S
C801 C804 1.463 . S
C801 C806 1.350 . S
C801 N809 1.427 . S
C802 H793 0.930 . S
C802 C800 1.378 . S
C802 C803 1.367 . S
C803 C802 1.367 . S
C803 C805 1.433 . S
C804 C800 1.350 1_554 S
C804 C801 1.463 . S
C804 N808 1.427 . S
C805 H795 0.929 . S
C805 C803 1.433 . S
C805 N808 1.384 1_556 S
C806 H797 0.929 . S
C806 C798 1.378 . S
C806 C801 1.350 . S
C807 H794 0.929 . S
C807 C799 1.433 . S
C807 N809 1.384 . S
N808 C804 1.427 . S
N808 C805 1.384 1_554 S
N809 C801 1.427 . S
N809 C807 1.384 . S
H810 C816 0.930 . S
H811 C820 0.930 . S
H812 C825 0.929 . S
H813 C823 0.929 . S
H814 C818 0.929 . S
H815 C824 0.929 . S
C816 H810 0.930 . S
C816 C817 1.367 . S
C816 C824 1.378 . S
C817 C816 1.367 . S
C817 C825 1.433 . S
C818 H814 0.929 . S
C818 C820 1.378 . S
C818 C822 1.350 1_556 S
C819 C822 1.463 . S
C819 C824 1.350 . S
C819 N827 1.427 . S
C820 H811 0.930 . S
C820 C818 1.378 . S
C820 C821 1.367 . S
C821 C820 1.367 . S
C821 C823 1.433 . S
C822 C818 1.350 1_554 S
C822 C819 1.463 . S
C822 N826 1.427 . S
C823 H813 0.929 . S
C823 C821 1.433 . S
C823 N826 1.384 1_556 S
C824 H815 0.929 . S
C824 C816 1.378 . S
C824 C819 1.350 . S
C825 H812 0.929 . S
C825 C817 1.433 . S
C825 N827 1.384 . S
N826 C822 1.427 . S
N826 C823 1.384 1_554 S
N827 C819 1.427 . S
N827 C825 1.384 . S
H828 C834 0.930 . S
H829 C838 0.930 . S
H830 C843 0.929 . S
H831 C841 0.929 . S
H832 C836 0.935 . S
H833 C842 0.929 . S
C834 H828 0.930 . S
C834 C835 1.367 . S
C834 C842 1.378 . S
C835 C834 1.367 . S
C835 C843 1.433 . S
C836 H832 0.935 . S
C836 C838 1.370 1_556 S
C836 C840 1.351 . S
C837 C840 1.463 . S
C837 C842 1.350 . S
C837 N845 1.427 . S
C838 H829 0.930 . S
C838 C836 1.370 1_554 S
C838 C839 1.367 . S
C839 C838 1.367 . S
C839 C841 1.433 . S
C840 C836 1.351 . S
C840 C837 1.463 . S
C840 N844 1.427 1_556 S
C841 H831 0.929 . S
C841 C839 1.433 . S
C841 N844 1.384 . S
C842 H833 0.929 . S
C842 C834 1.378 . S
C842 C837 1.350 . S
C843 H830 0.929 . S
C843 C835 1.433 . S
C843 N845 1.384 . S
N844 C840 1.427 1_554 S
N844 C841 1.384 . S
N845 C837 1.427 . S
N845 C843 1.384 . S
H846 C852 0.930 . S
H847 C856 0.930 1_556 S
H848 C861 0.929 . S
H849 C859 0.929 . S
H850 C854 0.929 . S
H851 C860 0.929 1_554 S
C852 H846 0.930 . S
C852 C853 1.367 . S
C852 C860 1.378 . S
C853 C852 1.367 . S
C853 C861 1.433 . S
C854 H850 0.929 . S
C854 C856 1.378 1_556 S
C854 C858 1.350 . S
C855 C858 1.463 . S
C855 C860 1.350 . S
C855 N863 1.427 . S
C856 H847 0.930 1_554 S
C856 C854 1.378 1_554 S
C856 C857 1.367 . S
C857 C856 1.367 . S
C857 C859 1.433 . S
C858 C854 1.350 . S
C858 C855 1.463 . S
C858 N862 1.427 1_556 S
C859 H849 0.929 . S
C859 C857 1.433 . S
C859 N862 1.384 . S
C860 H851 0.929 1_556 S
C860 C852 1.378 . S
C860 C855 1.350 . S
C861 H848 0.929 . S
C861 C853 1.433 . S
C861 N863 1.384 . S
N862 C858 1.427 1_554 S
N862 C859 1.384 . S
N863 C855 1.427 . S
N863 C861 1.384 . S
H864 C870 0.930 . S
H865 C874 0.930 . S
H866 C879 0.929 1_556 S
H867 C877 0.929 . S
H868 C872 0.929 . S
H869 C878 0.929 . S
C870 H864 0.930 . S
C870 C871 1.367 . S
C870 C878 1.378 . S
C871 C870 1.367 . S
C871 C879 1.433 . S
C872 H868 0.929 . S
C872 C874 1.378 . S
C872 C876 1.350 . S
C873 C876 1.463 . S
C873 C878 1.350 1_556 S
C873 N881 1.427 . S
C874 H865 0.930 . S
C874 C872 1.378 . S
C874 C875 1.367 . S
C875 C874 1.367 . S
C875 C877 1.433 . S
C876 C872 1.350 . S
C876 C873 1.463 . S
C876 N880 1.427 . S
C877 H867 0.929 . S
C877 C875 1.433 . S
C877 N880 1.384 . S
C878 H869 0.929 . S
C878 C870 1.378 . S
C878 C873 1.350 1_554 S
C879 H866 0.929 1_554 S
C879 C871 1.433 . S
C879 N881 1.384 1_554 S
N880 C876 1.427 . S
N880 C877 1.384 . S
N881 C873 1.427 . S
N881 C879 1.384 1_556 S
H882 C888 0.930 . S
H883 C892 0.930 . S
H884 C897 0.929 . S
H885 C895 0.929 . S
H886 C890 0.929 . S
H887 C896 0.929 . S
C888 H882 0.930 . S
C888 C889 1.367 . S
C888 C896 1.378 . S
C889 C888 1.367 . S
C889 C897 1.433 1_655 S
C890 H886 0.929 . S
C890 C892 1.378 . S
C890 C894 1.350 . S
C891 C894 1.463 . S
C891 C896 1.350 1_455 S
C891 N899 1.427 . S
C892 H883 0.930 . S
C892 C890 1.378 . S
C892 C893 1.367 . S
C893 C892 1.367 . S
C893 C895 1.433 . S
C894 C890 1.350 . S
C894 C891 1.463 . S
C894 N898 1.427 . S
C895 H885 0.929 . S
C895 C893 1.433 . S
C895 N898 1.384 . S
C896 H887 0.929 . S
C896 C888 1.378 . S
C896 C891 1.350 1_655 S
C897 H884 0.929 . S
C897 C889 1.433 1_455 S
C897 N899 1.384 . S
N898 C894 1.427 . S
N898 C895 1.384 . S
N899 C891 1.427 . S
N899 C897 1.384 . S
H900 C906 0.930 . S
H901 C910 0.930 . S
H902 C915 0.929 . S
H903 C913 0.929 . S
H904 C908 0.929 . S
H905 C914 0.929 . S
C906 H900 0.930 . S
C906 C907 1.367 . S
C906 C914 1.378 . S
C907 C906 1.367 . S
C907 C915 1.433 . S
C908 H904 0.929 . S
C908 C910 1.378 . S
C908 C912 1.350 . S
C909 C912 1.463 . S
C909 C914 1.350 . S
C909 N917 1.427 . S
C910 H901 0.930 . S
C910 C908 1.378 . S
C910 C911 1.367 . S
C911 C910 1.367 . S
C911 C913 1.433 . S
C912 C908 1.350 . S
C912 C909 1.463 . S
C912 N916 1.427 . S
C913 H903 0.929 . S
C913 C911 1.433 . S
C913 N916 1.384 . S
C914 H905 0.929 . S
C914 C906 1.378 . S
C914 C909 1.350 . S
C915 H902 0.929 . S
C915 C907 1.433 . S
C915 N917 1.384 . S
N916 C912 1.427 . S
N916 C913 1.384 . S
N917 C909 1.427 . S
N917 C915 1.384 . S
H918 C924 0.930 . S
H919 C928 0.930 . S
H920 C933 0.929 . S
H921 C931 0.929 . S
H922 C926 0.929 . S
H923 C932 0.929 . S
C924 H918 0.930 . S
C924 C925 1.367 . S
C924 C932 1.378 . S
C925 C924 1.367 . S
C925 C933 1.433 . S
C926 H922 0.929 . S
C926 C928 1.378 1_565 S
C926 C930 1.350 . S
C927 C930 1.463 . S
C927 C932 1.350 . S
C927 N935 1.427 . S
C928 H919 0.930 . S
C928 C926 1.378 1_545 S
C928 C929 1.367 . S
C929 C928 1.367 . S
C929 C931 1.433 . S
C930 C926 1.350 . S
C930 C927 1.463 . S
C930 N934 1.427 . S
C931 H921 0.929 . S
C931 C929 1.433 . S
C931 N934 1.384 1_545 S
C932 H923 0.929 . S
C932 C924 1.378 . S
C932 C927 1.350 . S
C933 H920 0.929 . S
C933 C925 1.433 . S
C933 N935 1.384 . S
N934 C930 1.427 . S
N934 C931 1.384 1_565 S
N935 C927 1.427 . S
N935 C933 1.384 . S
H936 C942 0.930 . S
H937 C946 0.930 . S
H938 C951 0.929 . S
H939 C949 0.929 . S
H940 C944 0.929 . S
H941 C950 0.929 . S
C942 H936 0.930 . S
C942 C943 1.367 . S
C942 C950 1.378 . S
C943 C942 1.367 . S
C943 C951 1.433 . S
C944 H940 0.929 . S
C944 C946 1.378 . S
C944 C948 1.350 . S
C945 C948 1.463 . S
C945 C950 1.350 . S
C945 N953 1.427 . S
C946 H937 0.930 . S
C946 C944 1.378 . S
C946 C947 1.367 . S
C947 C946 1.367 . S
C947 C949 1.433 . S
C948 C944 1.350 . S
C948 C945 1.463 . S
C948 N952 1.427 . S
C949 H939 0.929 . S
C949 C947 1.433 . S
C949 N952 1.384 . S
C950 H941 0.929 . S
C950 C942 1.378 . S
C950 C945 1.350 . S
C951 H938 0.929 . S
C951 C943 1.433 . S
C951 N953 1.384 . S
N952 C948 1.427 . S
N952 C949 1.384 . S
N953 C945 1.427 . S
N953 C951 1.384 . S
H954 C960 0.930 . S
H955 C964 0.930 . S
H956 C969 0.929 . S
H957 C967 0.929 . S
H958 C962 0.929 . S
H959 C968 0.929 . S
C960 H954 0.930 . S
C960 C961 1.367 . S
C960 C968 1.378 . S
C961 C960 1.367 . S
C961 C969 1.433 . S
C962 H958 0.929 . S
C962 C964 1.378 . S
C962 C966 1.350 . S
C963 C966 1.463 . S
C963 C968 1.350 . S
C963 N971 1.427 . S
C964 H955 0.930 . S
C964 C962 1.378 . S
C964 C965 1.367 . S
C965 C964 1.367 . S
C965 C967 1.433 . S
C966 C962 1.350 . S
C966 C963 1.463 . S
C966 N970 1.427 . S
C967 H957 0.929 . S
C967 C965 1.433 . S
C967 N970 1.384 . S
C968 H959 0.929 . S
C968 C960 1.378 . S
C968 C963 1.350 . S
C969 H956 0.929 . S
C969 C961 1.433 . S
C969 N971 1.384 . S
N970 C966 1.427 . S
N970 C967 1.384 . S
N971 C963 1.427 . S
N971 C969 1.384 . S
H972 C978 0.930 . S
H973 C982 0.930 . S
H974 C987 0.929 . S
H975 C985 0.929 . S
H976 C980 0.929 . S
H977 C986 0.929 . S
C978 H972 0.930 . S
C978 C979 1.367 . S
C978 C986 1.378 . S
C979 C978 1.367 . S
C979 C987 1.433 . S
C980 H976 0.929 . S
C980 C982 1.378 . S
C980 C984 1.350 . S
C981 C984 1.463 . S
C981 C986 1.350 . S
C981 N989 1.427 . S
C982 H973 0.930 . S
C982 C980 1.378 . S
C982 C983 1.367 . S
C983 C982 1.367 . S
C983 C985 1.433 . S
C984 C980 1.350 . S
C984 C981 1.463 . S
C984 N988 1.427 . S
C985 H975 0.929 . S
C985 C983 1.433 . S
C985 N988 1.384 . S
C986 H977 0.929 . S
C986 C978 1.378 . S
C986 C981 1.350 . S
C987 H974 0.929 . S
C987 C979 1.433 . S
C987 N989 1.384 . S
N988 C984 1.427 . S
N988 C985 1.384 . S
N989 C981 1.427 . S
N989 C987 1.384 . S
H990 C996 0.930 . S
H991 C1000 0.930 . S
H992 C1005 0.929 . S
H993 C1003 0.929 . S
H994 C998 0.929 . S
H995 C1004 0.929 . S
C996 H990 0.930 . S
C996 C997 1.367 . S
C996 C1004 1.378 . S
C997 C996 1.367 . S
C997 C1005 1.433 . S
C998 H994 0.929 . S
C998 C1000 1.378 . S
C998 C1002 1.350 . S
C999 C1002 1.463 . S
C999 C1004 1.350 . S
C999 N1007 1.427 . S
C1000 H991 0.930 . S
C1000 C998 1.378 . S
C1000 C1001 1.367 . S
C1001 C1000 1.367 . S
C1001 C1003 1.433 . S
C1002 C998 1.350 . S
C1002 C999 1.463 . S
C1002 N1006 1.427 . S
C1003 H993 0.929 . S
C1003 C1001 1.433 . S
C1003 N1006 1.384 . S
C1004 H995 0.929 . S
C1004 C996 1.378 . S
C1004 C999 1.350 . S
C1005 H992 0.929 . S
C1005 C997 1.433 . S
C1005 N1007 1.384 . S
N1006 C1002 1.427 . S
N1006 C1003 1.384 . S
N1007 C999 1.427 . S
N1007 C1005 1.384 . S
H1008 C1014 0.930 . S
H1009 C1018 0.930 . S
H1010 C1023 0.929 . S
H1011 C1021 0.929 . S
H1012 C1016 0.929 . S
H1013 C1022 0.929 . S
C1014 H1008 0.930 . S
C1014 C1015 1.367 . S
C1014 C1022 1.378 . S
C1015 C1014 1.367 . S
C1015 C1023 1.433 . S
C1016 H1012 0.929 . S
C1016 C1018 1.378 . S
C1016 C1020 1.350 . S
C1017 C1020 1.463 . S
C1017 C1022 1.350 . S
C1017 N1025 1.427 . S
C1018 H1009 0.930 . S
C1018 C1016 1.378 . S
C1018 C1019 1.367 . S
C1019 C1018 1.367 . S
C1019 C1021 1.433 . S
C1020 C1016 1.350 . S
C1020 C1017 1.463 . S
C1020 N1024 1.427 . S
C1021 H1011 0.929 . S
C1021 C1019 1.433 . S
C1021 N1024 1.384 . S
C1022 H1013 0.929 . S
C1022 C1014 1.378 . S
C1022 C1017 1.350 . S
C1023 H1010 0.929 . S
C1023 C1015 1.433 . S
C1023 N1025 1.384 . S
N1024 C1020 1.427 . S
N1024 C1021 1.384 . S
N1025 C1017 1.427 . S
N1025 C1023 1.384 . S
H1026 C1032 0.930 . S
H1027 C1036 0.930 . S
H1028 C1041 0.929 . S
H1029 C1039 0.929 . S
H1030 C1034 0.929 . S
H1031 C1040 0.929 . S
C1032 H1026 0.930 . S
C1032 C1033 1.367 . S
C1032 C1040 1.378 . S
C1033 C1032 1.367 . S
C1033 C1041 1.433 . S
C1034 H1030 0.929 . S
C1034 C1036 1.378 . S
C1034 C1038 1.350 . S
C1035 C1038 1.463 . S
C1035 C1040 1.350 . S
C1035 N1043 1.427 . S
C1036 H1027 0.930 . S
C1036 C1034 1.378 . S
C1036 C1037 1.367 . S
C1037 C1036 1.367 . S
C1037 C1039 1.433 . S
C1038 C1034 1.350 . S
C1038 C1035 1.463 . S
C1038 N1042 1.427 . S
C1039 H1029 0.929 . S
C1039 C1037 1.433 . S
C1039 N1042 1.384 . S
C1040 H1031 0.929 . S
C1040 C1032 1.378 . S
C1040 C1035 1.350 . S
C1041 H1028 0.929 . S
C1041 C1033 1.433 . S
C1041 N1043 1.384 . S
N1042 C1038 1.427 . S
N1042 C1039 1.384 . S
N1043 C1035 1.427 . S
N1043 C1041 1.384 . S
H1044 C1050 0.930 . S
H1045 C1054 0.930 . S
H1046 C1059 0.929 . S
H1047 C1057 0.929 . S
H1048 C1052 0.929 . S
H1049 C1058 0.929 . S
C1050 H1044 0.930 . S
C1050 C1051 1.367 . S
C1050 C1058 1.378 1_545 S
C1051 C1050 1.367 . S
C1051 C1059 1.433 . S
C1052 H1048 0.929 . S
C1052 C1054 1.378 1_545 S
C1052 C1056 1.350 1_545 S
C1053 C1056 1.463 1_544 S
C1053 C1058 1.350 1_545 S
C1053 N1061 1.427 . S
C1054 H1045 0.930 . S
C1054 C1052 1.378 1_565 S
C1054 C1055 1.367 . S
C1055 C1054 1.367 . S
C1055 C1057 1.433 . S
C1056 C1052 1.350 1_565 S
C1056 C1053 1.463 1_566 S
C1056 N1060 1.427 . S
C1057 H1047 0.929 . S
C1057 C1055 1.433 . S
C1057 N1060 1.384 . S
C1058 H1049 0.929 . S
C1058 C1050 1.378 1_565 S
C1058 C1053 1.350 1_565 S
C1059 H1046 0.929 . S
C1059 C1051 1.433 . S
C1059 N1061 1.384 . S
N1060 C1056 1.427 . S
N1060 C1057 1.384 . S
N1061 C1053 1.427 . S
N1061 C1059 1.384 . S
H1062 C1068 0.930 . S
H1063 C1072 0.930 . S
H1064 C1077 0.929 . S
H1065 C1075 0.929 . S
H1066 C1070 0.929 . S
H1067 C1076 0.929 . S
C1068 H1062 0.930 . S
C1068 C1069 1.367 . S
C1068 C1076 1.378 . S
C1069 C1068 1.367 . S
C1069 C1077 1.433 . S
C1070 H1066 0.929 . S
C1070 C1072 1.378 . S
C1070 C1074 1.350 . S
C1071 C1074 1.463 1_456 S
C1071 C1076 1.350 . S
C1071 N1079 1.427 . S
C1072 H1063 0.930 . S
C1072 C1070 1.378 . S
C1072 C1073 1.367 . S
C1073 C1072 1.367 . S
C1073 C1075 1.433 . S
C1074 C1070 1.350 . S
C1074 C1071 1.463 1_654 S
C1074 N1078 1.427 . S
C1075 H1065 0.929 . S
C1075 C1073 1.433 . S
C1075 N1078 1.384 . S
C1076 H1067 0.929 . S
C1076 C1068 1.378 . S
C1076 C1071 1.350 . S
C1077 H1064 0.929 . S
C1077 C1069 1.433 . S
C1077 N1079 1.384 . S
N1078 C1074 1.427 . S
N1078 C1075 1.384 . S
N1079 C1071 1.427 . S
N1079 C1077 1.384 . S
H1080 C1086 0.930 . S
H1081 C1090 0.930 . S
H1082 C1095 0.929 . S
H1083 C1093 0.929 . S
H1084 C1088 0.929 1_556 S
H1085 C1094 0.929 1_554 S
C1086 H1080 0.930 . S
C1086 C1087 1.367 . S
C1086 C1094 1.378 . S
C1087 C1086 1.367 . S
C1087 C1095 1.433 . S
C1088 H1084 0.929 1_554 S
C1088 C1090 1.378 . S
C1088 C1092 1.350 . S
C1089 C1092 1.463 1_556 S
C1089 C1094 1.350 . S
C1089 N1097 1.427 . S
C1090 H1081 0.930 . S
C1090 C1088 1.378 . S
C1090 C1091 1.367 . S
C1091 C1090 1.367 . S
C1091 C1093 1.433 . S
C1092 C1088 1.350 . S
C1092 C1089 1.463 1_554 S
C1092 N1096 1.427 . S
C1093 H1083 0.929 . S
C1093 C1091 1.433 . S
C1093 N1096 1.384 . S
C1094 H1085 0.929 1_556 S
C1094 C1086 1.378 . S
C1094 C1089 1.350 . S
C1095 H1082 0.929 . S
C1095 C1087 1.433 . S
C1095 N1097 1.384 . S
N1096 C1092 1.427 . S
N1096 C1093 1.384 . S
N1097 C1089 1.427 . S
N1097 C1095 1.384 . S
H1098 C1104 0.930 . S
H1099 C1108 0.930 . S
H1100 C1113 0.929 . S
H1101 C1111 0.929 . S
H1102 C1106 0.929 . S
H1103 C1112 0.929 . S
C1104 H1098 0.930 . S
C1104 C1105 1.367 . S
C1104 C1112 1.378 . S
C1105 C1104 1.367 . S
C1105 C1113 1.433 . S
C1106 H1102 0.929 . S
C1106 C1108 1.378 . S
C1106 C1110 1.350 1_556 S
C1107 C1110 1.463 . S
C1107 C1112 1.350 . S
C1107 N1115 1.427 . S
C1108 H1099 0.930 . S
C1108 C1106 1.378 . S
C1108 C1109 1.367 . S
C1109 C1108 1.367 . S
C1109 C1111 1.433 . S
C1110 C1106 1.350 1_554 S
C1110 C1107 1.463 . S
C1110 N1114 1.427 . S
C1111 H1101 0.929 . S
C1111 C1109 1.433 . S
C1111 N1114 1.384 1_556 S
C1112 H1103 0.929 . S
C1112 C1104 1.378 . S
C1112 C1107 1.350 . S
C1113 H1100 0.929 . S
C1113 C1105 1.433 . S
C1113 N1115 1.384 . S
N1114 C1110 1.427 . S
N1114 C1111 1.384 1_554 S
N1115 C1107 1.427 . S
N1115 C1113 1.384 . S
H1116 C1122 0.930 . S
H1117 C1126 0.975 . S
H1118 C1131 0.929 . S
H1119 C1129 0.932 1_565 S
H1120 C1124 0.929 . S
H1121 C1130 0.929 . S
C1122 H1116 0.930 . S
C1122 C1123 1.367 . S
C1122 C1130 1.378 . S
C1123 C1122 1.367 . S
C1123 C1131 1.433 . S
C1124 H1120 0.929 . S
C1124 C1126 1.342 1_545 S
C1124 C1128 1.350 . S
C1125 C1128 1.463 . S
C1125 C1130 1.350 1_554 S
C1125 N1133 1.427 . S
C1126 H1117 0.975 . S
C1126 C1124 1.342 1_565 S
C1126 C1127 1.361 . S
C1127 C1126 1.361 . S
C1127 C1129 1.415 1_565 S
C1128 C1124 1.350 . S
C1128 C1125 1.463 . S
C1128 N1132 1.427 . S
C1129 H1119 0.932 1_545 S
C1129 C1127 1.415 1_545 S
C1129 N1132 1.400 . S
C1130 H1121 0.929 . S
C1130 C1122 1.378 . S
C1130 C1125 1.350 1_556 S
C1131 H1118 0.929 . S
C1131 C1123 1.433 . S
C1131 N1133 1.384 1_556 S
N1132 C1128 1.427 . S
N1132 C1129 1.400 . S
N1133 C1125 1.427 . S
N1133 C1131 1.384 1_554 S
H1134 C1140 0.930 . S
H1135 C1144 0.930 . S
H1136 C1149 0.929 . S
H1137 C1147 0.929 . S
H1138 C1142 0.929 . S
H1139 C1148 0.929 1_556 S
C1140 H1134 0.930 . S
C1140 C1141 1.367 . S
C1140 C1148 1.378 1_455 S
C1141 C1140 1.367 . S
C1141 C1149 1.433 1_455 S
C1142 H1138 0.929 . S
C1142 C1144 1.378 . S
C1142 C1146 1.350 . S
C1143 C1146 1.463 . S
C1143 C1148 1.350 . S
C1143 N1151 1.427 . S
C1144 H1135 0.930 . S
C1144 C1142 1.378 . S
C1144 C1145 1.367 1_554 S
C1145 C1144 1.367 1_556 S
C1145 C1147 1.433 . S
C1146 C1142 1.350 . S
C1146 C1143 1.463 . S
C1146 N1150 1.427 1_554 S
C1147 H1137 0.929 . S
C1147 C1145 1.433 . S
C1147 N1150 1.384 . S
C1148 H1139 0.929 1_554 S
C1148 C1140 1.378 1_655 S
C1148 C1143 1.350 . S
C1149 H1136 0.929 . S
C1149 C1141 1.433 1_655 S
C1149 N1151 1.384 . S
N1150 C1146 1.427 1_556 S
N1150 C1147 1.384 . S
N1151 C1143 1.427 . S
N1151 C1149 1.384 . S
H1152 C1158 0.930 . S
H1153 C1162 0.930 . S
H1154 C1167 0.929 . S
H1155 C1165 0.929 . S
H1156 C1160 0.929 1_554 S
H1157 C1166 0.929 . S
C1158 H1152 0.930 . S
C1158 C1159 1.367 1_556 S
C1158 C1166 1.378 . S
C1159 C1158 1.367 1_554 S
C1159 C1167 1.433 . S
C1160 H1156 0.929 1_556 S
C1160 C1162 1.378 . S
C1160 C1164 1.350 . S
C1161 C1164 1.463 . S
C1161 C1166 1.350 . S
C1161 N1169 1.427 1_556 S
C1162 H1153 0.930 . S
C1162 C1160 1.378 . S
C1162 C1163 1.367 . S
C1163 C1162 1.367 . S
C1163 C1165 1.433 . S
C1164 C1160 1.350 . S
C1164 C1161 1.463 . S
C1164 N1168 1.427 . S
C1165 H1155 0.929 . S
C1165 C1163 1.433 . S
C1165 N1168 1.384 . S
C1166 H1157 0.929 . S
C1166 C1158 1.378 . S
C1166 C1161 1.350 . S
C1167 H1154 0.929 . S
C1167 C1159 1.433 . S
C1167 N1169 1.384 . S
N1168 C1164 1.427 . S
N1168 C1165 1.384 . S
N1169 C1161 1.427 1_554 S
N1169 C1167 1.384 . S
H1170 C1176 0.930 . S
H1171 C1180 0.930 1_556 S
H1172 C1185 0.929 . S
H1173 C1183 0.929 . S
H1174 C1178 0.929 . S
H1175 C1184 0.929 . S
C1176 H1170 0.930 . S
C1176 C1177 1.367 . S
C1176 C1184 1.378 1_545 S
C1177 C1176 1.367 . S
C1177 C1185 1.433 1_545 S
C1178 H1174 0.929 . S
C1178 C1180 1.378 1_556 S
C1178 C1182 1.350 . S
C1179 C1182 1.463 . S
C1179 C1184 1.350 . S
C1179 N1187 1.427 . S
C1180 H1171 0.930 1_554 S
C1180 C1178 1.378 1_554 S
C1180 C1181 1.367 . S
C1181 C1180 1.367 . S
C1181 C1183 1.433 . S
C1182 C1178 1.350 . S
C1182 C1179 1.463 . S
C1182 N1186 1.427 1_556 S
C1183 H1173 0.929 . S
C1183 C1181 1.433 . S
C1183 N1186 1.384 . S
C1184 H1175 0.929 . S
C1184 C1176 1.378 1_565 S
C1184 C1179 1.350 . S
C1185 H1172 0.929 . S
C1185 C1177 1.433 1_565 S
C1185 N1187 1.384 . S
N1186 C1182 1.427 1_554 S
N1186 C1183 1.384 . S
N1187 C1179 1.427 . S
N1187 C1185 1.384 . S
H1188 C1194 0.930 . S
H1189 C1198 0.930 . S
H1190 C1203 0.929 . S
H1191 C1201 0.929 . S
H1192 C1196 0.929 . S
H1193 C1202 0.929 . S
C1194 H1188 0.930 . S
C1194 C1195 1.367 . S
C1194 C1202 1.378 . S
C1195 C1194 1.367 . S
C1195 C1203 1.433 1_554 S
C1196 H1192 0.929 . S
C1196 C1198 1.378 . S
C1196 C1200 1.350 . S
C1197 C1200 1.463 . S
C1197 C1202 1.350 1_556 S
C1197 N1205 1.427 . S
C1198 H1189 0.930 . S
C1198 C1196 1.378 . S
C1198 C1199 1.367 1_455 S
C1199 C1198 1.367 1_655 S
C1199 C1201 1.433 . S
C1200 C1196 1.350 . S
C1200 C1197 1.463 . S
C1200 N1204 1.427 . S
C1201 H1191 0.929 . S
C1201 C1199 1.433 . S
C1201 N1204 1.384 1_655 S
C1202 H1193 0.929 . S
C1202 C1194 1.378 . S
C1202 C1197 1.350 1_554 S
C1203 H1190 0.929 . S
C1203 C1195 1.433 1_556 S
C1203 N1205 1.384 . S
N1204 C1200 1.427 . S
N1204 C1201 1.384 1_455 S
N1205 C1197 1.427 . S
N1205 C1203 1.384 . S
H1206 C1212 0.930 . S
H1207 C1216 0.930 . S
H1208 C1221 0.929 . S
H1209 C1219 0.929 . S
H1210 C1214 0.929 . S
H1211 C1220 0.929 . S
C1212 H1206 0.930 . S
C1212 C1213 1.367 . S
C1212 C1220 1.378 . S
C1213 C1212 1.367 . S
C1213 C1221 1.433 . S
C1214 H1210 0.929 . S
C1214 C1216 1.378 . S
C1214 C1218 1.350 . S
C1215 C1218 1.463 . S
C1215 C1220 1.350 . S
C1215 N1223 1.427 . S
C1216 H1207 0.930 . S
C1216 C1214 1.378 . S
C1216 C1217 1.367 . S
C1217 C1216 1.367 . S
C1217 C1219 1.433 . S
C1218 C1214 1.350 . S
C1218 C1215 1.463 . S
C1218 N1222 1.427 . S
C1219 H1209 0.929 . S
C1219 C1217 1.433 . S
C1219 N1222 1.384 . S
C1220 H1211 0.929 . S
C1220 C1212 1.378 . S
C1220 C1215 1.350 . S
C1221 H1208 0.929 . S
C1221 C1213 1.433 . S
C1221 N1223 1.384 . S
N1222 C1218 1.427 . S
N1222 C1219 1.384 . S
N1223 C1215 1.427 . S
N1223 C1221 1.384 . S
H1224 C1230 0.930 . S
H1225 C1234 0.930 . S
H1226 C1239 0.929 . S
H1227 C1237 0.929 . S
H1228 C1232 0.929 . S
H1229 C1238 0.929 . S
C1230 H1224 0.930 . S
C1230 C1231 1.367 . S
C1230 C1238 1.378 . S
C1231 C1230 1.367 . S
C1231 C1239 1.433 . S
C1232 H1228 0.929 . S
C1232 C1234 1.378 . S
C1232 C1236 1.350 . S
C1233 C1236 1.463 . S
C1233 C1238 1.350 . S
C1233 N1241 1.427 . S
C1234 H1225 0.930 . S
C1234 C1232 1.378 . S
C1234 C1235 1.367 . S
C1235 C1234 1.367 . S
C1235 C1237 1.433 . S
C1236 C1232 1.350 . S
C1236 C1233 1.463 . S
C1236 N1240 1.427 . S
C1237 H1227 0.929 . S
C1237 C1235 1.433 . S
C1237 N1240 1.384 . S
C1238 H1229 0.929 . S
C1238 C1230 1.378 . S
C1238 C1233 1.350 . S
C1239 H1226 0.929 . S
C1239 C1231 1.433 . S
C1239 N1241 1.384 . S
N1240 C1236 1.427 . S
N1240 C1237 1.384 . S
N1241 C1233 1.427 . S
N1241 C1239 1.384 . S
H1242 C1248 0.930 . S
H1243 C1252 0.930 . S
H1244 C1257 0.929 . S
H1245 C1255 0.929 . S
H1246 C1250 0.929 . S
H1247 C1256 0.929 . S
C1248 H1242 0.930 . S
C1248 C1249 1.367 . S
C1248 C1256 1.378 . S
C1249 C1248 1.367 . S
C1249 C1257 1.433 . S
C1250 H1246 0.929 . S
C1250 C1252 1.378 . S
C1250 C1254 1.350 . S
C1251 C1254 1.463 . S
C1251 C1256 1.350 . S
C1251 N1259 1.427 . S
C1252 H1243 0.930 . S
C1252 C1250 1.378 . S
C1252 C1253 1.367 . S
C1253 C1252 1.367 . S
C1253 C1255 1.433 . S
C1254 C1250 1.350 . S
C1254 C1251 1.463 . S
C1254 N1258 1.427 . S
C1255 H1245 0.929 . S
C1255 C1253 1.433 . S
C1255 N1258 1.384 . S
C1256 H1247 0.929 . S
C1256 C1248 1.378 . S
C1256 C1251 1.350 . S
C1257 H1244 0.929 . S
C1257 C1249 1.433 . S
C1257 N1259 1.384 . S
N1258 C1254 1.427 . S
N1258 C1255 1.384 . S
N1259 C1251 1.427 . S
N1259 C1257 1.384 . S
H1260 C1266 0.930 . S
H1261 C1270 0.930 . S
H1262 C1275 0.929 . S
H1263 C1273 0.929 . S
H1264 C1268 0.929 . S
H1265 C1274 0.929 . S
C1266 H1260 0.930 . S
C1266 C1267 1.367 . S
C1266 C1274 1.378 . S
C1267 C1266 1.367 . S
C1267 C1275 1.433 . S
C1268 H1264 0.929 . S
C1268 C1270 1.378 . S
C1268 C1272 1.350 . S
C1269 C1272 1.463 . S
C1269 C1274 1.350 . S
C1269 N1277 1.427 . S
C1270 H1261 0.930 . S
C1270 C1268 1.378 . S
C1270 C1271 1.367 . S
C1271 C1270 1.367 . S
C1271 C1273 1.433 . S
C1272 C1268 1.350 . S
C1272 C1269 1.463 . S
C1272 N1276 1.427 . S
C1273 H1263 0.929 . S
C1273 C1271 1.433 . S
C1273 N1276 1.384 . S
C1274 H1265 0.929 . S
C1274 C1266 1.378 . S
C1274 C1269 1.350 . S
C1275 H1262 0.929 . S
C1275 C1267 1.433 . S
C1275 N1277 1.384 . S
N1276 C1272 1.427 . S
N1276 C1273 1.384 . S
N1277 C1269 1.427 . S
N1277 C1275 1.384 . S
H1278 C1284 0.930 . S
H1279 C1288 0.930 . S
H1280 C1293 0.929 . S
H1281 C1291 0.929 . S
H1282 C1286 0.929 . S
H1283 C1292 0.929 . S
C1284 H1278 0.930 . S
C1284 C1285 1.367 . S
C1284 C1292 1.378 . S
C1285 C1284 1.367 . S
C1285 C1293 1.433 . S
C1286 H1282 0.929 . S
C1286 C1288 1.378 . S
C1286 C1290 1.350 . S
C1287 C1290 1.463 . S
C1287 C1292 1.350 . S
C1287 N1295 1.427 . S
C1288 H1279 0.930 . S
C1288 C1286 1.378 . S
C1288 C1289 1.367 . S
C1289 C1288 1.367 . S
C1289 C1291 1.433 . S
C1290 C1286 1.350 . S
C1290 C1287 1.463 . S
C1290 N1294 1.427 . S
C1291 H1281 0.929 . S
C1291 C1289 1.433 . S
C1291 N1294 1.384 . S
C1292 H1283 0.929 . S
C1292 C1284 1.378 . S
C1292 C1287 1.350 . S
C1293 H1280 0.929 . S
C1293 C1285 1.433 . S
C1293 N1295 1.384 . S
N1294 C1290 1.427 . S
N1294 C1291 1.384 . S
N1295 C1287 1.427 . S
N1295 C1293 1.384 . S
H1296 C1302 0.930 . S
H1297 C1306 0.930 . S
H1298 C1311 0.929 . S
H1299 C1309 0.929 . S
H1300 C1304 0.929 . S
H1301 C1310 0.929 . S
C1302 H1296 0.930 . S
C1302 C1303 1.367 . S
C1302 C1310 1.378 . S
C1303 C1302 1.367 . S
C1303 C1311 1.433 . S
C1304 H1300 0.929 . S
C1304 C1306 1.378 . S
C1304 C1308 1.350 . S
C1305 C1308 1.463 . S
C1305 C1310 1.350 . S
C1305 N1313 1.427 . S
C1306 H1297 0.930 . S
C1306 C1304 1.378 . S
C1306 C1307 1.367 . S
C1307 C1306 1.367 . S
C1307 C1309 1.433 . S
C1308 C1304 1.350 . S
C1308 C1305 1.463 . S
C1308 N1312 1.427 . S
C1309 H1299 0.929 . S
C1309 C1307 1.433 . S
C1309 N1312 1.384 . S
C1310 H1301 0.929 . S
C1310 C1302 1.378 . S
C1310 C1305 1.350 . S
C1311 H1298 0.929 . S
C1311 C1303 1.433 . S
C1311 N1313 1.384 . S
N1312 C1308 1.427 . S
N1312 C1309 1.384 . S
N1313 C1305 1.427 . S
N1313 C1311 1.384 . S
H1314 C1320 0.930 . S
H1315 C1324 0.930 . S
H1316 C1329 0.929 . S
H1317 C1327 0.929 . S
H1318 C1322 0.929 . S
H1319 C1328 0.929 . S
C1320 H1314 0.930 . S
C1320 C1321 1.367 . S
C1320 C1328 1.378 . S
C1321 C1320 1.367 . S
C1321 C1329 1.433 . S
C1322 H1318 0.929 . S
C1322 C1324 1.378 . S
C1322 C1326 1.350 . S
C1323 C1326 1.463 . S
C1323 C1328 1.350 . S
C1323 N1331 1.427 . S
C1324 H1315 0.930 . S
C1324 C1322 1.378 . S
C1324 C1325 1.367 . S
C1325 C1324 1.367 . S
C1325 C1327 1.433 . S
C1326 C1322 1.350 . S
C1326 C1323 1.463 . S
C1326 N1330 1.427 . S
C1327 H1317 0.929 . S
C1327 C1325 1.433 . S
C1327 N1330 1.384 . S
C1328 H1319 0.929 . S
C1328 C1320 1.378 . S
C1328 C1323 1.350 . S
C1329 H1316 0.929 . S
C1329 C1321 1.433 . S
C1329 N1331 1.384 . S
N1330 C1326 1.427 . S
N1330 C1327 1.384 . S
N1331 C1323 1.427 . S
N1331 C1329 1.384 . S
H1332 C1338 0.930 . S
H1333 C1342 0.930 . S
H1334 C1347 0.929 . S
H1335 C1345 0.929 . S
H1336 C1340 0.929 . S
H1337 C1346 0.929 . S
C1338 H1332 0.930 . S
C1338 C1339 1.367 . S
C1338 C1346 1.378 . S
C1339 C1338 1.367 . S
C1339 C1347 1.433 . S
C1340 H1336 0.929 . S
C1340 C1342 1.378 . S
C1340 C1344 1.350 . S
C1341 C1344 1.463 . S
C1341 C1346 1.350 . S
C1341 N1349 1.427 . S
C1342 H1333 0.930 . S
C1342 C1340 1.378 . S
C1342 C1343 1.367 . S
C1343 C1342 1.367 . S
C1343 C1345 1.433 . S
C1344 C1340 1.350 . S
C1344 C1341 1.463 . S
C1344 N1348 1.427 . S
C1345 H1335 0.929 . S
C1345 C1343 1.433 . S
C1345 N1348 1.384 . S
C1346 H1337 0.929 . S
C1346 C1338 1.378 . S
C1346 C1341 1.350 . S
C1347 H1334 0.929 . S
C1347 C1339 1.433 . S
C1347 N1349 1.384 . S
N1348 C1344 1.427 . S
N1348 C1345 1.384 . S
N1349 C1341 1.427 . S
N1349 C1347 1.384 . S
H1350 C1356 0.930 . S
H1351 C1360 0.930 . S
H1352 C1365 0.929 . S
H1353 C1363 0.929 . S
H1354 C1358 0.929 . S
H1355 C1364 0.929 . S
C1356 H1350 0.930 . S
C1356 C1357 1.367 . S
C1356 C1364 1.378 . S
C1357 C1356 1.367 . S
C1357 C1365 1.433 . S
C1358 H1354 0.929 . S
C1358 C1360 1.378 . S
C1358 C1362 1.350 . S
C1359 C1362 1.463 . S
C1359 C1364 1.350 . S
C1359 N1367 1.427 . S
C1360 H1351 0.930 . S
C1360 C1358 1.378 . S
C1360 C1361 1.367 . S
C1361 C1360 1.367 . S
C1361 C1363 1.433 . S
C1362 C1358 1.350 . S
C1362 C1359 1.463 . S
C1362 N1366 1.427 . S
C1363 H1353 0.929 . S
C1363 C1361 1.433 . S
C1363 N1366 1.384 . S
C1364 H1355 0.929 . S
C1364 C1356 1.378 . S
C1364 C1359 1.350 . S
C1365 H1352 0.929 . S
C1365 C1357 1.433 . S
C1365 N1367 1.384 . S
N1366 C1362 1.427 . S
N1366 C1363 1.384 . S
N1367 C1359 1.427 . S
N1367 C1365 1.384 . S
H1368 C1374 0.930 . S
H1369 C1378 0.930 . S
H1370 C1383 0.929 . S
H1371 C1381 0.929 . S
H1372 C1376 0.929 . S
H1373 C1382 0.929 . S
C1374 H1368 0.930 . S
C1374 C1375 1.367 . S
C1374 C1382 1.378 . S
C1375 C1374 1.367 . S
C1375 C1383 1.433 . S
C1376 H1372 0.929 . S
C1376 C1378 1.378 . S
C1376 C1380 1.350 . S
C1377 C1380 1.463 . S
C1377 C1382 1.350 . S
C1377 N1385 1.427 . S
C1378 H1369 0.930 . S
C1378 C1376 1.378 . S
C1378 C1379 1.367 . S
C1379 C1378 1.367 . S
C1379 C1381 1.433 . S
C1380 C1376 1.350 . S
C1380 C1377 1.463 . S
C1380 N1384 1.427 . S
C1381 H1371 0.929 . S
C1381 C1379 1.433 . S
C1381 N1384 1.384 . S
C1382 H1373 0.929 . S
C1382 C1374 1.378 . S
C1382 C1377 1.350 . S
C1383 H1370 0.929 . S
C1383 C1375 1.433 . S
C1383 N1385 1.384 . S
N1384 C1380 1.427 . S
N1384 C1381 1.384 . S
N1385 C1377 1.427 . S
N1385 C1383 1.384 . S
H1386 C1392 0.930 . S
H1387 C1396 0.930 . S
H1388 C1401 0.929 . S
H1389 C1399 0.929 . S
H1390 C1394 0.929 . S
H1391 C1400 0.929 . S
C1392 H1386 0.930 . S
C1392 C1393 1.367 . S
C1392 C1400 1.378 . S
C1393 C1392 1.367 . S
C1393 C1401 1.433 . S
C1394 H1390 0.929 . S
C1394 C1396 1.378 . S
C1394 C1398 1.350 . S
C1395 C1398 1.463 . S
C1395 C1400 1.350 . S
C1395 N1403 1.427 . S
C1396 H1387 0.930 . S
C1396 C1394 1.378 . S
C1396 C1397 1.367 . S
C1397 C1396 1.367 . S
C1397 C1399 1.433 . S
C1398 C1394 1.350 . S
C1398 C1395 1.463 . S
C1398 N1402 1.427 . S
C1399 H1389 0.929 . S
C1399 C1397 1.433 . S
C1399 N1402 1.384 . S
C1400 H1391 0.929 . S
C1400 C1392 1.378 . S
C1400 C1395 1.350 . S
C1401 H1388 0.929 . S
C1401 C1393 1.433 . S
C1401 N1403 1.384 . S
N1402 C1398 1.427 . S
N1402 C1399 1.384 . S
N1403 C1395 1.427 . S
N1403 C1401 1.384 . S
H1404 C1410 0.930 . S
H1405 C1414 0.930 . S
H1406 C1419 0.929 . S
H1407 C1417 0.929 . S
H1408 C1412 0.929 . S
H1409 C1418 0.929 . S
C1410 H1404 0.930 . S
C1410 C1411 1.367 . S
C1410 C1418 1.378 . S
C1411 C1410 1.367 . S
C1411 C1419 1.433 . S
C1412 H1408 0.929 . S
C1412 C1414 1.378 . S
C1412 C1416 1.350 . S
C1413 C1416 1.463 . S
C1413 C1418 1.350 . S
C1413 N1421 1.427 . S
C1414 H1405 0.930 . S
C1414 C1412 1.378 . S
C1414 C1415 1.367 . S
C1415 C1414 1.367 . S
C1415 C1417 1.433 . S
C1416 C1412 1.350 . S
C1416 C1413 1.463 . S
C1416 N1420 1.427 . S
C1417 H1407 0.929 . S
C1417 C1415 1.433 . S
C1417 N1420 1.384 . S
C1418 H1409 0.929 . S
C1418 C1410 1.378 . S
C1418 C1413 1.350 . S
C1419 H1406 0.929 . S
C1419 C1411 1.433 . S
C1419 N1421 1.384 . S
N1420 C1416 1.427 . S
N1420 C1417 1.384 . S
N1421 C1413 1.427 . S
N1421 C1419 1.384 . S
C619 C5 1.352 . S
C623 C271 1.371 . S
C637 C39 1.340 1_545 S
C641 C305 1.370 . S
C655 C73 1.344 1_655 S
C659 C237 1.368 . S
C673 C577 1.370 . S
C677 C107 1.348 . S
C691 C141 1.350 1_565 S
C695 C611 1.368 . S
C709 C175 1.341 1_455 S
C713 C543 1.368 . S
C727 C209 1.352 . S
C731 C475 1.371 . S
C745 C509 1.369 . S
C749 C243 1.356 . S
C763 C441 1.371 . S
C767 C277 1.350 . S
C781 C311 1.355 . S
C785 C169 1.371 . S
C799 C345 1.357 . S
C803 C203 1.371 . S
C817 C379 1.357 . S
C821 C135 1.371 . S
C835 C413 1.355 . S
C839 C67 1.369 . S
C853 C447 1.351 . S
C857 C101 1.368 . S
C871 C33 1.371 . S
C875 C481 1.353 . S
C889 C373 1.368 . S
C893 C515 1.347 . S
C907 C549 1.346 . S
C911 C407 1.368 . S
C925 C583 1.348 . S
C929 C339 1.370 . S
C943 C530 1.634 . S
C947 C20 1.634 . S
C961 C564 1.630 . S
C965 C54 1.630 . S
C979 C88 1.626 . S
C983 C598 1.626 . S
C997 C122 1.633 . S
C1001 C224 1.633 . S
C1015 C156 1.632 . S
C1019 C258 1.632 . S
C1033 C292 1.626 . S
C1037 C190 1.626 . S
C1051 C326 1.627 . S
C1055 C428 1.627 . S
C1069 C462 1.632 . S
C1073 C360 1.632 . S
C1087 C496 1.630 . S
C1091 C394 1.630 . S
C1105 C2 1.470 . S
C1109 C145 1.423 . S
C1123 C179 1.423 . S
C1127 C36 1.470 . S
C1141 C70 1.464 . S
C1145 C111 1.426 . S
C1159 C43 1.430 . S
C1163 C104 1.462 . S
C1177 C138 1.470 . S
C1181 C77 1.420 . S
C1195 C9 1.435 . S
C1199 C172 1.463 . S
C1213 C206 1.461 . S
C1217 C349 1.434 . S
C1231 C383 1.420 . S
C1235 C240 1.470 . S
C1249 C315 1.420 . S
C1253 C274 1.470 . S
C1267 C308 1.463 . S
C1271 C247 1.435 . S
C1285 C281 1.425 . S
C1289 C342 1.465 . S
C1303 C376 1.470 . S
C1307 C213 1.420 . S
C1321 C553 1.432 . S
C1325 C410 1.466 . S
C1339 C587 1.435 . S
C1343 C444 1.462 . S
C1357 C519 1.435 . S
C1361 C478 1.461 . S
C1375 C451 1.431 . S
C1379 C512 1.462 . S
C1393 C485 1.427 . S
C1397 C546 1.469 . S
C1411 C580 1.462 . S
C1415 C417 1.432 . S
