# Generated by pormake.
# Topology gsi, (4)-cn, num edge types: 1
# Building blocks:
#     Node 0, Type 0, BuildingBlock: GALJAG_clean_sbu_0, # of connection points: 4
#     Node 1, Type 0, BuildingBlock: GALJAG_clean_sbu_0, # of connection points: 4
#     Node 2, Type 0, BuildingBlock: GALJAG_clean_sbu_0, # of connection points: 4
#     Node 3, Type 0, BuildingBlock: GALJAG_clean_sbu_0, # of connection points: 4
#     Node 4, Type 0, BuildingBlock: GALJAG_clean_sbu_0, # of connection points: 4
#     Node 5, Type 0, BuildingBlock: GALJAG_clean_sbu_0, # of connection points: 4
#     Node 6, Type 0, BuildingBlock: GALJAG_clean_sbu_0, # of connection points: 4
#     Node 7, Type 0, BuildingBlock: GALJAG_clean_sbu_0, # of connection points: 4
#     Node 8, Type 0, BuildingBlock: GALJAG_clean_sbu_0, # of connection points: 4
#     Node 9, Type 0, BuildingBlock: GALJAG_clean_sbu_0, # of connection points: 4
#     Node 10, Type 0, BuildingBlock: GALJAG_clean_sbu_0, # of connection points: 4
#     Node 11, Type 0, BuildingBlock: GALJAG_clean_sbu_0, # of connection points: 4
#     Node 12, Type 0, BuildingBlock: GALJAG_clean_sbu_0, # of connection points: 4
#     Node 13, Type 0, BuildingBlock: GALJAG_clean_sbu_0, # of connection points: 4
#     Node 14, Type 0, BuildingBlock: GALJAG_clean_sbu_0, # of connection points: 4
#     Node 15, Type 0, BuildingBlock: GALJAG_clean_sbu_0, # of connection points: 4
#     Edge 16, Type (0, 0), BuildingBlock: UVAHIK_clean_linker_0, # of connection points: 2
#     Edge 17, Type (0, 0), BuildingBlock: UVAHIK_clean_linker_0, # of connection points: 2
#     Edge 18, Type (0, 0), BuildingBlock: UVAHIK_clean_linker_0, # of connection points: 2
#     Edge 19, Type (0, 0), BuildingBlock: UVAHIK_clean_linker_0, # of connection points: 2
#     Edge 20, Type (0, 0), BuildingBlock: UVAHIK_clean_linker_0, # of connection points: 2
#     Edge 21, Type (0, 0), BuildingBlock: UVAHIK_clean_linker_0, # of connection points: 2
#     Edge 22, Type (0, 0), BuildingBlock: UVAHIK_clean_linker_0, # of connection points: 2
#     Edge 23, Type (0, 0), BuildingBlock: UVAHIK_clean_linker_0, # of connection points: 2
#     Edge 24, Type (0, 0), BuildingBlock: UVAHIK_clean_linker_0, # of connection points: 2
#     Edge 25, Type (0, 0), BuildingBlock: UVAHIK_clean_linker_0, # of connection points: 2
#     Edge 26, Type (0, 0), BuildingBlock: UVAHIK_clean_linker_0, # of connection points: 2
#     Edge 27, Type (0, 0), BuildingBlock: UVAHIK_clean_linker_0, # of connection points: 2
#     Edge 28, Type (0, 0), BuildingBlock: UVAHIK_clean_linker_0, # of connection points: 2
#     Edge 29, Type (0, 0), BuildingBlock: UVAHIK_clean_linker_0, # of connection points: 2
#     Edge 30, Type (0, 0), BuildingBlock: UVAHIK_clean_linker_0, # of connection points: 2
#     Edge 31, Type (0, 0), BuildingBlock: UVAHIK_clean_linker_0, # of connection points: 2
#     Edge 32, Type (0, 0), BuildingBlock: UVAHIK_clean_linker_0, # of connection points: 2
#     Edge 33, Type (0, 0), BuildingBlock: UVAHIK_clean_linker_0, # of connection points: 2
#     Edge 34, Type (0, 0), BuildingBlock: UVAHIK_clean_linker_0, # of connection points: 2
#     Edge 35, Type (0, 0), BuildingBlock: UVAHIK_clean_linker_0, # of connection points: 2
#     Edge 36, Type (0, 0), BuildingBlock: UVAHIK_clean_linker_0, # of connection points: 2
#     Edge 37, Type (0, 0), BuildingBlock: UVAHIK_clean_linker_0, # of connection points: 2
#     Edge 38, Type (0, 0), BuildingBlock: UVAHIK_clean_linker_0, # of connection points: 2
#     Edge 39, Type (0, 0), BuildingBlock: UVAHIK_clean_linker_0, # of connection points: 2
#     Edge 40, Type (0, 0), BuildingBlock: UVAHIK_clean_linker_0, # of connection points: 2
#     Edge 41, Type (0, 0), BuildingBlock: UVAHIK_clean_linker_0, # of connection points: 2
#     Edge 42, Type (0, 0), BuildingBlock: UVAHIK_clean_linker_0, # of connection points: 2
#     Edge 43, Type (0, 0), BuildingBlock: UVAHIK_clean_linker_0, # of connection points: 2
#     Edge 44, Type (0, 0), BuildingBlock: UVAHIK_clean_linker_0, # of connection points: 2
#     Edge 45, Type (0, 0), BuildingBlock: UVAHIK_clean_linker_0, # of connection points: 2
#     Edge 46, Type (0, 0), BuildingBlock: UVAHIK_clean_linker_0, # of connection points: 2
#     Edge 47, Type (0, 0), BuildingBlock: UVAHIK_clean_linker_0, # of connection points: 2
# Relax obj value: 0.227
# Max RMSD: 0.210
# Mean RMSD: 0.172
data_MOF--net-gsi--node1-GALJAG_clean_sbu_0--edge1-UVAHIK_clean_linker_0
_symmetry_space_group_name_H-M    P1
_symmetry_Int_Tables_number       1
_symmetry_cell_setting            triclinic
loop_
_symmetry_equiv_pos_as_xyz
'x, y, z'
_cell_length_a     52.646877
_cell_length_b     51.256639
_cell_length_c     58.150383
_cell_angle_alpha  89.999989
_cell_angle_beta   90.028715
_cell_angle_gamma 105.72079
loop_
_atom_site_label
_atom_site_type_symbol
_atom_site_fract_x
_atom_site_fract_y
_atom_site_fract_z
_atom_type_partial_charge
In0 In 0.13279 0.14859 0.12088 0.0
O1 O 0.15884 0.15983 0.08921 0.0
O2 O 0.13 0.12172 0.089 0.0
C3 C 0.16203 0.18271 0.152 0.0
C4 C 0.09306 0.17126 0.1121 0.0
C5 C 0.13285 0.10453 0.14619 0.0
O6 O 0.17144 0.1774 0.13314 0.0
O7 O 0.13775 0.17152 0.15474 0.0
O8 O 0.11167 0.1107 0.14167 0.0
O9 O 0.15326 0.11981 0.13716 0.0
C10 C 0.14859 0.13814 0.07849 0.0
O11 O 0.08877 0.14707 0.11903 0.0
O12 O 0.11707 0.18345 0.10925 0.0
In13 In 0.86872 0.35561 0.12523 0.0
O14 O 0.91003 0.35169 0.11611 0.0
O15 O 0.87874 0.31571 0.11925 0.0
C16 C 0.87992 0.40461 0.14613 0.0
C17 C 0.8474 0.36089 0.08391 0.0
C18 C 0.83723 0.32909 0.15916 0.0
O19 O 0.89375 0.38829 0.14911 0.0
O20 O 0.86164 0.3969 0.13164 0.0
O21 O 0.82861 0.33208 0.13936 0.0
O22 O 0.86176 0.33893 0.16164 0.0
C23 C 0.90291 0.3261 0.11543 0.0
O24 O 0.83482 0.34638 0.09992 0.0
O25 O 0.87125 0.37262 0.08852 0.0
In26 In 0.17727 0.86647 0.33495 0.0
O27 O 0.13835 0.84309 0.319 0.0
O28 O 0.13913 0.84927 0.35513 0.0
C29 C 0.19959 0.82819 0.31956 0.0
C30 C 0.17362 0.90868 0.30837 0.0
C31 C 0.20657 0.88248 0.37318 0.0
O32 O 0.18161 0.82341 0.33451 0.0
O33 O 0.20666 0.8524 0.31264 0.0
O34 O 0.21648 0.88576 0.35328 0.0
O35 O 0.18191 0.87244 0.3736 0.0
C36 C 0.1258 0.83913 0.3377 0.0
O37 O 0.17057 0.90872 0.3299 0.0
O38 O 0.17942 0.88808 0.30067 0.0
In39 In 0.81469 0.62682 0.33777 0.0
O40 O 0.85101 0.6544 0.32087 0.0
O41 O 0.8542 0.64348 0.35586 0.0
C42 C 0.78894 0.66199 0.32159 0.0
C43 C 0.82078 0.58526 0.31156 0.0
C44 C 0.78842 0.61286 0.37788 0.0
O45 O 0.80958 0.66922 0.3336 0.0
O46 O 0.78097 0.63684 0.31789 0.0
O47 O 0.77874 0.60332 0.35883 0.0
O48 O 0.81151 0.62822 0.37666 0.0
C49 C 0.86532 0.65667 0.33858 0.0
O50 O 0.82839 0.58833 0.33221 0.0
O51 O 0.80915 0.60227 0.30468 0.0
In52 In 0.36748 0.8547 0.62182 0.0
O53 O 0.41067 0.8541 0.61702 0.0
O54 O 0.38061 0.8171 0.6136 0.0
C55 C 0.37025 0.90268 0.64236 0.0
C56 C 0.34775 0.85986 0.57975 0.0
C57 C 0.3401 0.82488 0.65632 0.0
O58 O 0.3902 0.89352 0.64079 0.0
O59 O 0.34983 0.88837 0.63264 0.0
O60 O 0.33046 0.82549 0.6365 0.0
O61 O 0.36375 0.83872 0.65851 0.0
C62 C 0.40497 0.82884 0.61342 0.0
O63 O 0.33536 0.84365 0.59481 0.0
O64 O 0.37066 0.87333 0.58565 0.0
In65 In 0.85819 0.83222 0.87628 0.0
O66 O 0.88016 0.86578 0.85166 0.0
O67 O 0.84189 0.86603 0.86312 0.0
C68 C 0.89817 0.81044 0.88661 0.0
C69 C 0.84067 0.84174 0.91819 0.0
C70 C 0.82695 0.79854 0.84593 0.0
O71 O 0.90205 0.83543 0.88255 0.0
O72 O 0.87435 0.79687 0.88577 0.0
O73 O 0.81855 0.80431 0.86506 0.0
O74 O 0.85117 0.80925 0.8424 0.0
C75 C 0.86146 0.87685 0.85061 0.0
O76 O 0.83135 0.82001 0.90723 0.0
O77 O 0.85937 0.85864 0.90822 0.0
In78 In 0.1492 0.66161 0.87584 0.0
O79 O 0.17724 0.67337 0.90615 0.0
O80 O 0.14897 0.63494 0.90749 0.0
C81 C 0.17892 0.69606 0.84516 0.0
C82 C 0.1458 0.61761 0.84931 0.0
C83 C 0.10889 0.68251 0.88705 0.0
O84 O 0.18798 0.69076 0.86417 0.0
O85 O 0.15478 0.68454 0.84196 0.0
O86 O 0.10549 0.65754 0.88323 0.0
O87 O 0.13249 0.69659 0.88562 0.0
C88 C 0.16814 0.65161 0.9171 0.0
O89 O 0.12651 0.62755 0.85202 0.0
O90 O 0.16613 0.62919 0.86066 0.0
In91 In 0.82672 0.11816 0.66392 0.0
O92 O 0.86721 0.13886 0.67837 0.0
O93 O 0.86283 0.13804 0.64201 0.0
C94 C 0.80425 0.14764 0.69192 0.0
C95 C 0.80204 0.117 0.62301 0.0
C96 C 0.82634 0.07038 0.68391 0.0
O97 O 0.8288 0.15263 0.68905 0.0
O98 O 0.79079 0.1275 0.68077 0.0
O99 O 0.80984 0.08337 0.68866 0.0
O100 O 0.84237 0.0808 0.66818 0.0
C101 C 0.87781 0.14582 0.65907 0.0
O102 O 0.803 0.0955 0.6332 0.0
O103 O 0.81353 0.13852 0.63338 0.0
In104 In 0.17542 0.38279 0.65423 0.0
O105 O 0.21095 0.40355 0.63173 0.0
O106 O 0.17707 0.37853 0.61534 0.0
C107 C 0.17301 0.42968 0.67446 0.0
C108 C 0.12597 0.34966 0.65429 0.0
C109 C 0.20033 0.35108 0.6772 0.0
O110 O 0.19327 0.42112 0.67498 0.0
O111 O 0.15426 0.41531 0.66273 0.0
O112 O 0.1923 0.3694 0.68683 0.0
O113 O 0.19602 0.34886 0.65586 0.0
C114 C 0.20038 0.39319 0.61321 0.0
O115 O 0.14156 0.35151 0.67106 0.0
O116 O 0.13511 0.36498 0.63752 0.0
In117 In 0.64514 0.16312 0.37632 0.0
O118 O 0.62379 0.12979 0.35128 0.0
O119 O 0.66304 0.13137 0.36113 0.0
C120 C 0.60351 0.18114 0.38904 0.0
C121 C 0.6651 0.1533 0.41715 0.0
C122 C 0.67323 0.19939 0.34598 0.0
O123 O 0.6011 0.15665 0.38391 0.0
O124 O 0.6268 0.19616 0.38811 0.0
O125 O 0.68315 0.19336 0.36432 0.0
O126 O 0.64906 0.18768 0.3433 0.0
C127 C 0.64328 0.12009 0.34898 0.0
O128 O 0.67353 0.17529 0.40634 0.0
O129 O 0.64612 0.1363 0.4076 0.0
In130 In 0.62876 0.64286 0.62644 0.0
O131 O 0.58626 0.64528 0.62025 0.0
O132 O 0.61731 0.68172 0.61943 0.0
C133 C 0.62258 0.59403 0.64663 0.0
C134 C 0.64806 0.63761 0.58426 0.0
C135 C 0.6585 0.67094 0.66063 0.0
O136 O 0.60468 0.6062 0.64716 0.0
O137 O 0.64263 0.60587 0.63509 0.0
O138 O 0.66756 0.66915 0.64078 0.0
O139 O 0.63432 0.6591 0.66306 0.0
C140 C 0.59288 0.67075 0.61784 0.0
O141 O 0.6606 0.6539 0.59922 0.0
O142 O 0.62523 0.62409 0.59035 0.0
In143 In 0.67038 0.36381 0.84247 0.0
O144 O 0.64293 0.32681 0.85922 0.0
O145 O 0.6272 0.35984 0.85109 0.0
C146 C 0.692 0.329 0.81996 0.0
C147 C 0.66241 0.40021 0.81134 0.0
C148 C 0.70074 0.38106 0.88007 0.0
O149 O 0.66757 0.32424 0.82354 0.0
O150 O 0.70564 0.35144 0.82764 0.0
O151 O 0.70995 0.38433 0.85993 0.0
O152 O 0.67623 0.37039 0.88106 0.0
C153 C 0.62309 0.33618 0.85921 0.0
O154 O 0.66949 0.4069 0.83173 0.0
O155 O 0.65986 0.37564 0.8068 0.0
In156 In 0.3192 0.13126 0.83774 0.0
O157 O 0.34849 0.17242 0.84311 0.0
O158 O 0.35727 0.13843 0.85875 0.0
C159 C 0.30048 0.16485 0.81097 0.0
C160 C 0.32944 0.09219 0.81079 0.0
C161 C 0.28479 0.1119 0.87242 0.0
O162 O 0.30096 0.16626 0.83263 0.0
O163 O 0.30951 0.14642 0.80269 0.0
O164 O 0.30934 0.11575 0.87457 0.0
O165 O 0.27757 0.11666 0.85258 0.0
C166 C 0.36427 0.16367 0.85521 0.0
O167 O 0.30668 0.09069 0.81848 0.0
O168 O 0.34693 0.113 0.81701 0.0
In169 In 0.35923 0.33524 0.37272 0.0
O170 O 0.32604 0.32821 0.39884 0.0
O171 O 0.36141 0.35884 0.40631 0.0
C172 C 0.32676 0.30412 0.34152 0.0
C173 C 0.3718 0.38035 0.34624 0.0
C174 C 0.39502 0.30971 0.38728 0.0
O175 O 0.31823 0.31295 0.35935 0.0
O176 O 0.35154 0.31033 0.33985 0.0
O177 O 0.40104 0.33481 0.38314 0.0
O178 O 0.37094 0.2977 0.38457 0.0
C179 C 0.33824 0.34652 0.41248 0.0
O180 O 0.38306 0.36169 0.34422 0.0
O181 O 0.35515 0.37688 0.36226 0.0
In182 In 0.3281 0.61937 0.1648 0.0
O183 O 0.35717 0.65981 0.1727 0.0
O184 O 0.36627 0.63694 0.14481 0.0
C185 C 0.29941 0.6364 0.1972 0.0
C186 C 0.30361 0.61656 0.12367 0.0
C187 C 0.33966 0.57485 0.18198 0.0
O188 O 0.32297 0.63601 0.20036 0.0
O189 O 0.29002 0.62747 0.17792 0.0
O190 O 0.31625 0.57592 0.17892 0.0
O191 O 0.35699 0.59563 0.17549 0.0
C192 C 0.37293 0.65837 0.15671 0.0
O193 O 0.30493 0.59545 0.1343 0.0
O194 O 0.31456 0.63845 0.13376 0.0
In195 In 0.67148 0.87963 0.15993 0.0
O196 O 0.69677 0.90142 0.12957 0.0
O197 O 0.69088 0.85907 0.13339 0.0
C198 C 0.67321 0.928 0.17936 0.0
C199 C 0.6203 0.85631 0.15051 0.0
C200 C 0.68706 0.84813 0.19117 0.0
O201 O 0.68938 0.91465 0.18421 0.0
O202 O 0.6568 0.91758 0.16388 0.0
O203 O 0.66478 0.84129 0.18157 0.0
O204 O 0.70151 0.87098 0.18514 0.0
C205 C 0.70124 0.88004 0.12192 0.0
O206 O 0.62857 0.86355 0.17052 0.0
O207 O 0.6378 0.8614 0.13506 0.0
C208 C 0.16704 0.20343 0.19117 0.0
C209 C 0.17856 0.19845 0.17043 0.0
C210 C 0.18283 0.21565 0.20961 0.0
C211 C 0.24911 0.22436 0.23321 0.0
H212 H 0.23225 0.2794 0.2714 0.0
C213 C 0.32011 0.28286 0.30262 0.0
C214 C 0.30928 0.28948 0.32315 0.0
C215 C 0.30376 0.27107 0.28439 0.0
C216 C 0.23701 0.26375 0.2611 0.0
H217 H 0.21557 0.20316 0.15239 0.0
H218 H 0.24319 0.22465 0.18459 0.0
H219 H 0.20467 0.26164 0.23815 0.0
H220 H 0.27285 0.28826 0.34101 0.0
H221 H 0.24417 0.26711 0.30929 0.0
H222 H 0.28126 0.22622 0.25619 0.0
C223 C 0.22195 0.21882 0.18667 0.0
C224 C 0.22127 0.25369 0.24201 0.0
C225 C 0.20614 0.20673 0.16818 0.0
C226 C 0.28173 0.28343 0.32535 0.0
C227 C 0.26534 0.27153 0.30712 0.0
C228 C 0.26476 0.23432 0.25234 0.0
C229 C 0.21046 0.223 0.20768 0.0
C230 C 0.22725 0.23398 0.22781 0.0
C231 C 0.2762 0.26552 0.28632 0.0
C232 C 0.25897 0.25422 0.26646 0.0
H233 H 0.14582 0.19721 0.1934 0.0
H234 H 0.17343 0.21845 0.22564 0.0
H235 H 0.2539 0.2088 0.22283 0.0
H236 H 0.34129 0.28742 0.30038 0.0
H237 H 0.3128 0.26705 0.26854 0.0
C238 C 0.83058 0.31376 0.20001 0.0
C239 C 0.8199 0.31619 0.17824 0.0
C240 C 0.81413 0.30255 0.21835 0.0
C241 C 0.74777 0.25878 0.23159 0.0
H242 H 0.76194 0.29096 0.29225 0.0
C243 C 0.67723 0.22136 0.30735 0.0
C244 C 0.68906 0.2169 0.3281 0.0
C245 C 0.69256 0.23553 0.28943 0.0
C246 C 0.75784 0.28166 0.27544 0.0
H247 H 0.78368 0.30877 0.15852 0.0
H248 H 0.75488 0.28934 0.1906 0.0
H249 H 0.79004 0.31113 0.25996 0.0
H250 H 0.72603 0.22457 0.34671 0.0
H251 H 0.75289 0.24926 0.31535 0.0
H252 H 0.7157 0.22922 0.24707 0.0
C253 C 0.776 0.29582 0.19345 0.0
C254 C 0.77395 0.29317 0.25696 0.0
C255 C 0.79247 0.30701 0.17509 0.0
C256 C 0.71639 0.22774 0.33091 0.0
C257 C 0.73174 0.24196 0.31299 0.0
C258 C 0.73165 0.24731 0.25005 0.0
C259 C 0.78664 0.29356 0.21531 0.0
C260 C 0.76918 0.28175 0.23485 0.0
C261 C 0.72004 0.24556 0.2919 0.0
C262 C 0.73658 0.25854 0.2722 0.0
H263 H 0.85167 0.32065 0.20293 0.0
H264 H 0.82298 0.30071 0.23488 0.0
H265 H 0.74379 0.24926 0.21486 0.0
H266 H 0.65617 0.21332 0.30472 0.0
H267 H 0.68294 0.23836 0.27352 0.0
C268 C 0.26035 0.65268 0.20778 0.0
C269 C 0.2852 0.64938 0.21354 0.0
C270 C 0.24874 0.66866 0.22147 0.0
C271 C 0.25186 0.70286 0.27791 0.0
H272 H 0.22791 0.75612 0.24291 0.0
C273 C 0.20208 0.78017 0.31846 0.0
C274 C 0.21031 0.80677 0.30989 0.0
C275 C 0.21073 0.75947 0.30816 0.0
C276 C 0.23461 0.74143 0.25292 0.0
H277 H 0.31663 0.65871 0.23885 0.0
H278 H 0.29638 0.68668 0.26274 0.0
H279 H 0.24228 0.72097 0.22279 0.0
H280 H 0.23457 0.83277 0.28431 0.0
H281 H 0.24966 0.79664 0.26633 0.0
H282 H 0.24462 0.72383 0.30807 0.0
C283 C 0.28583 0.67688 0.24771 0.0
C284 C 0.2425 0.72108 0.24141 0.0
C285 C 0.29747 0.66096 0.23397 0.0
C286 C 0.22784 0.81244 0.29123 0.0
C287 C 0.23634 0.79174 0.28085 0.0
C288 C 0.24377 0.72317 0.28946 0.0
C289 C 0.26173 0.68156 0.24121 0.0
C290 C 0.25144 0.70172 0.25375 0.0
C291 C 0.22759 0.76499 0.28901 0.0
C292 C 0.23539 0.74285 0.27703 0.0
H293 H 0.25036 0.64387 0.19219 0.0
H294 H 0.22995 0.67157 0.21626 0.0
H295 H 0.25856 0.68813 0.28786 0.0
H296 H 0.18857 0.77523 0.33285 0.0
H297 H 0.20358 0.73901 0.31473 0.0
C298 C 0.78811 0.70961 0.31389 0.0
C299 C 0.77616 0.68169 0.31163 0.0
C300 C 0.77724 0.72839 0.30309 0.0
C301 C 0.71667 0.73785 0.27726 0.0
H302 H 0.765 0.7932 0.24109 0.0
C303 C 0.6809 0.8034 0.21055 0.0
C304 C 0.69584 0.83036 0.20751 0.0
C305 C 0.68987 0.78607 0.22506 0.0
C306 C 0.75126 0.77822 0.25142 0.0
H307 H 0.74303 0.65149 0.29698 0.0
H308 H 0.72388 0.68444 0.27816 0.0
H309 H 0.78185 0.76147 0.26354 0.0
H310 H 0.73137 0.86069 0.21779 0.0
H311 H 0.74674 0.83069 0.24362 0.0
H312 H 0.68607 0.75466 0.26524 0.0
C313 C 0.74165 0.69173 0.28831 0.0
C314 C 0.76094 0.75998 0.26423 0.0
C315 C 0.75266 0.67291 0.29898 0.0
C316 C 0.71956 0.83991 0.21969 0.0
C317 C 0.72842 0.82267 0.23437 0.0
C318 C 0.70699 0.75628 0.2646 0.0
C319 C 0.7541 0.71963 0.28996 0.0
C320 C 0.74373 0.73952 0.27715 0.0
C321 C 0.71387 0.79542 0.23699 0.0
C322 C 0.72416 0.77657 0.25138 0.0
H323 H 0.80621 0.71698 0.3236 0.0
H324 H 0.78707 0.74979 0.30486 0.0
H325 H 0.70302 0.72241 0.28727 0.0
H326 H 0.66256 0.79547 0.20131 0.0
H327 H 0.67833 0.76514 0.22639 0.0
C328 C 0.33612 0.81064 0.69755 0.0
C329 C 0.32442 0.81069 0.67584 0.0
C330 C 0.32087 0.79893 0.71643 0.0
C331 C 0.25265 0.78105 0.73761 0.0
H332 H 0.27712 0.73534 0.78061 0.0
C333 C 0.18481 0.71585 0.8057 0.0
C334 C 0.19558 0.71271 0.82728 0.0
C335 C 0.20092 0.72953 0.78802 0.0
C336 C 0.27019 0.74841 0.76897 0.0
H337 H 0.28775 0.79809 0.65672 0.0
H338 H 0.26113 0.7775 0.6897 0.0
H339 H 0.30464 0.7549 0.74785 0.0
H340 H 0.23147 0.72217 0.84757 0.0
H341 H 0.25963 0.74653 0.81676 0.0
H342 H 0.21822 0.77464 0.75869 0.0
C343 C 0.28203 0.78677 0.69216 0.0
C344 C 0.28592 0.75953 0.75017 0.0
C345 C 0.2973 0.79836 0.67325 0.0
C346 C 0.22266 0.72422 0.83107 0.0
C347 C 0.23879 0.73798 0.81338 0.0
C348 C 0.23697 0.77004 0.75645 0.0
C349 C 0.29361 0.78717 0.71399 0.0
C350 C 0.2772 0.77577 0.73419 0.0
C351 C 0.22816 0.74045 0.79155 0.0
C352 C 0.24545 0.75341 0.77225 0.0
H353 H 0.35699 0.82007 0.70005 0.0
H354 H 0.3303 0.7997 0.73308 0.0
H355 H 0.24564 0.79391 0.7258 0.0
H356 H 0.16401 0.70711 0.80225 0.0
H357 H 0.19214 0.73077 0.77135 0.0
C358 C 0.66414 0.68573 0.70169 0.0
C359 C 0.67518 0.68452 0.67987 0.0
C360 C 0.68015 0.69722 0.72023 0.0
C361 C 0.74885 0.71297 0.74038 0.0
H362 H 0.72725 0.76134 0.78273 0.0
C363 C 0.81967 0.7782 0.80668 0.0
C364 C 0.80954 0.78212 0.82835 0.0
C365 C 0.80292 0.7646 0.78934 0.0
C366 C 0.73338 0.74753 0.77127 0.0
H367 H 0.71151 0.69472 0.66019 0.0
H368 H 0.73948 0.71498 0.69255 0.0
H369 H 0.6986 0.7417 0.75063 0.0
H370 H 0.7741 0.77417 0.84914 0.0
H371 H 0.74482 0.75 0.81892 0.0
H372 H 0.78363 0.71881 0.76096 0.0
C373 C 0.71849 0.70676 0.69539 0.0
C374 C 0.717 0.73636 0.75285 0.0
C375 C 0.70247 0.69536 0.67683 0.0
C376 C 0.78243 0.77152 0.83257 0.0
C377 C 0.76566 0.75785 0.81522 0.0
C378 C 0.76519 0.72408 0.75882 0.0
C379 C 0.70753 0.70763 0.71732 0.0
C380 C 0.72466 0.71912 0.73712 0.0
C381 C 0.77567 0.75456 0.79331 0.0
C382 C 0.75773 0.74164 0.77439 0.0
H383 H 0.64315 0.67745 0.70454 0.0
H384 H 0.67118 0.6974 0.73697 0.0
H385 H 0.75506 0.69936 0.72876 0.0
H386 H 0.84049 0.78624 0.80291 0.0
H387 H 0.81123 0.7627 0.77259 0.0
C388 C 0.73103 0.31499 0.80545 0.0
C389 C 0.70357 0.30977 0.80771 0.0
C390 C 0.7419 0.29678 0.79376 0.0
C391 C 0.72645 0.22574 0.77338 0.0
H392 H 0.78565 0.25425 0.73252 0.0
C393 C 0.76492 0.15921 0.70883 0.0
C394 C 0.79242 0.16466 0.70662 0.0
C395 C 0.75392 0.17621 0.72201 0.0
C396 C 0.7693 0.24597 0.74406 0.0
H397 H 0.66591 0.28144 0.79958 0.0
H398 H 0.68482 0.24988 0.77883 0.0
H399 H 0.76686 0.2854 0.75387 0.0
H400 H 0.83001 0.19174 0.71685 0.0
H401 H 0.81085 0.22124 0.73992 0.0
H402 H 0.72881 0.18626 0.7633 0.0
C403 C 0.69802 0.26779 0.78639 0.0
C404 C 0.75856 0.26382 0.75632 0.0
C405 C 0.68717 0.28596 0.79815 0.0
C406 C 0.80873 0.1871 0.71814 0.0
C407 C 0.79776 0.20408 0.73125 0.0
C408 C 0.73716 0.20787 0.76104 0.0
C409 C 0.72551 0.27301 0.78401 0.0
C410 C 0.73702 0.25393 0.77115 0.0
C411 C 0.77025 0.19899 0.73315 0.0
C412 C 0.75874 0.21781 0.74628 0.0
H413 H 0.74415 0.33313 0.81277 0.0
H414 H 0.76317 0.3012 0.79252 0.0
H415 H 0.71009 0.21746 0.7849 0.0
H416 H 0.75189 0.14204 0.70011 0.0
H417 H 0.73265 0.1719 0.72302 0.0
C418 C 0.21513 0.33521 0.71414 0.0
C419 C 0.21246 0.33282 0.69015 0.0
C420 C 0.22523 0.31705 0.72665 0.0
C421 C 0.26461 0.2679 0.72151 0.0
H422 H 0.22868 0.23883 0.77793 0.0
C423 C 0.28973 0.18112 0.77252 0.0
C424 C 0.29049 0.18362 0.79658 0.0
C425 C 0.2803 0.19906 0.75902 0.0
C426 C 0.23912 0.24697 0.76235 0.0
H427 H 0.21872 0.30991 0.66035 0.0
H428 H 0.23638 0.27806 0.68226 0.0
H429 H 0.21262 0.27107 0.75533 0.0
H430 H 0.28221 0.2069 0.8254 0.0
H431 H 0.2661 0.23834 0.80189 0.0
H432 H 0.29122 0.24387 0.72863 0.0
C433 C 0.23079 0.29409 0.69136 0.0
C434 C 0.22991 0.26544 0.7494 0.0
C435 C 0.22059 0.31224 0.67883 0.0
C436 C 0.28173 0.20439 0.80689 0.0
C437 C 0.27235 0.22231 0.79342 0.0
C438 C 0.27388 0.24944 0.7345 0.0
C439 C 0.23293 0.29613 0.71543 0.0
C440 C 0.24263 0.27622 0.72891 0.0
C441 C 0.27146 0.21983 0.76934 0.0
C442 C 0.26131 0.23889 0.75514 0.0
H443 H 0.2091 0.35093 0.72332 0.0
H444 H 0.22703 0.31939 0.74514 0.0
H445 H 0.27497 0.27606 0.7059 0.0
H446 H 0.29633 0.16526 0.76412 0.0
H447 H 0.2796 0.19644 0.74053 0.0
C448 C 0.16758 0.92546 0.26907 0.0
C449 C 0.16879 0.92976 0.29296 0.0
C450 C 0.16145 0.94432 0.25429 0.0
C451 C 0.16386 0.01568 0.24885 0.0
H452 H 0.11369 0.99084 0.19929 0.0
C453 C 0.15938 0.08073 0.16949 0.0
C454 C 0.13448 0.08287 0.16245 0.0
C455 C 0.16157 0.06205 0.18628 0.0
C456 C 0.12755 0.99807 0.21316 0.0
H457 H 0.16486 0.95736 0.32011 0.0
H458 H 0.15466 0.99082 0.29407 0.0
H459 H 0.12121 0.95834 0.22759 0.0
H460 H 0.0923 0.06663 0.16708 0.0
H461 H 0.09617 0.03328 0.19628 0.0
H462 H 0.17066 0.05528 0.23413 0.0
C463 C 0.15831 0.97268 0.28689 0.0
C464 C 0.132 0.97949 0.22923 0.0
C465 C 0.16414 0.95358 0.30176 0.0
C466 C 0.11173 0.06537 0.17214 0.0
C467 C 0.11394 0.04635 0.18882 0.0
C468 C 0.15965 0.03418 0.23262 0.0
C469 C 0.15665 0.96807 0.26302 0.0
C470 C 0.15045 0.98807 0.24706 0.0
C471 C 0.13893 0.04485 0.19628 0.0
C472 C 0.14172 0.0255 0.21445 0.0
H473 H 0.171 0.90728 0.26175 0.0
H474 H 0.1607 0.94043 0.23595 0.0
H475 H 0.17827 0.02282 0.26234 0.0
H476 H 0.17731 0.09393 0.16238 0.0
H477 H 0.18106 0.06104 0.19143 0.0
C478 C 0.86596 0.44588 0.15651 0.0
C479 C 0.88174 0.42835 0.16109 0.0
C480 C 0.86356 0.46516 0.17273 0.0
C481 C 0.86628 0.47547 0.23499 0.0
H482 H 0.85891 0.54649 0.21906 0.0
C483 C 0.84493 0.55049 0.30254 0.0
C484 C 0.82742 0.56546 0.2958 0.0
C485 C 0.85357 0.53427 0.28661 0.0
C486 C 0.86067 0.52661 0.22376 0.0
H487 H 0.90853 0.41824 0.1857 0.0
H488 H 0.90441 0.4521 0.21407 0.0
H489 H 0.87259 0.5191 0.18976 0.0
H490 H 0.80444 0.57437 0.26738 0.0
H491 H 0.81899 0.54573 0.23981 0.0
H492 H 0.85377 0.48273 0.26887 0.0
C493 C 0.8937 0.45071 0.198 0.0
C494 C 0.86863 0.51098 0.20699 0.0
C495 C 0.89626 0.43152 0.18167 0.0
C496 C 0.81803 0.56317 0.27308 0.0
C497 C 0.82659 0.54696 0.25721 0.0
C498 C 0.85824 0.49109 0.25178 0.0
C499 C 0.87676 0.46724 0.19395 0.0
C500 C 0.87114 0.48506 0.21231 0.0
C501 C 0.84485 0.53271 0.26364 0.0
C502 C 0.8549 0.51666 0.24626 0.0
H503 H 0.85449 0.44388 0.14082 0.0
H504 H 0.8502 0.47743 0.16912 0.0
H505 H 0.86767 0.45542 0.23957 0.0
H506 H 0.85261 0.55198 0.31992 0.0
H507 H 0.86772 0.52365 0.29211 0.0
C508 C 0.24021 0.10714 0.88946 0.0
C509 C 0.26641 0.10598 0.89214 0.0
C510 C 0.22396 0.10599 0.90863 0.0
C511 C 0.21601 0.08882 0.97041 0.0
H512 H 0.1835 0.14825 0.9731 0.0
C513 C 0.15112 0.10571 0.04686 0.0
C514 C 0.15837 0.13216 0.05583 0.0
C515 C 0.16167 0.09993 0.02599 0.0
C516 C 0.19237 0.1315 0.97255 0.0
H517 H 0.29564 0.10104 0.91681 0.0
H518 H 0.26714 0.0988 0.95032 0.0
H519 H 0.20649 0.14103 0.93825 0.0
H520 H 0.18184 0.17339 0.04982 0.0
H521 H 0.19989 0.1634 0.01325 0.0
H522 H 0.20229 0.07972 0.00499 0.0
C523 C 0.25919 0.10063 0.9334 0.0
C524 C 0.20532 0.1272 0.95254 0.0
C525 C 0.27554 0.102 0.91422 0.0
C526 C 0.17589 0.15281 0.04333 0.0
C527 C 0.18613 0.14712 0.02235 0.0
C528 C 0.20275 0.09293 0.99037 0.0
C529 C 0.2335 0.10343 0.93085 0.0
C530 C 0.21764 0.1061 0.95137 0.0
C531 C 0.17932 0.1206 0.01356 0.0
C532 C 0.19123 0.11462 0.99176 0.0
H533 H 0.23259 0.11014 0.87265 0.0
H534 H 0.20414 0.10786 0.90614 0.0
H535 H 0.22523 0.07234 0.96994 0.0
H536 H 0.1377 0.08938 0.05619 0.0
H537 H 0.156 0.07934 0.01953 0.0
C538 C 0.84911 0.37907 0.04359 0.0
C539 C 0.83459 0.36447 0.06195 0.0
C540 C 0.83645 0.38254 0.02305 0.0
C541 C 0.7741 0.35366 0.99084 0.0
H542 H 0.79285 0.42214 0.95807 0.0
C543 C 0.70608 0.3776 0.92245 0.0
C544 C 0.71754 0.38557 0.90087 0.0
C545 C 0.72189 0.37744 0.94167 0.0
C546 C 0.78757 0.40288 0.96701 0.0
H547 H 0.79544 0.34246 0.07336 0.0
H548 H 0.7734 0.34899 0.03808 0.0
H549 H 0.81795 0.41633 0.99231 0.0
H550 H 0.75455 0.40121 0.88277 0.0
H551 H 0.78231 0.40131 0.91668 0.0
H552 H 0.74338 0.34045 0.96597 0.0
C553 C 0.79461 0.3572 0.03911 0.0
C554 C 0.80198 0.39947 0.98653 0.0
C555 C 0.80725 0.35358 0.05945 0.0
C556 C 0.74517 0.39496 0.89919 0.0
C557 C 0.76105 0.39504 0.91856 0.0
C558 C 0.7596 0.35718 0.97158 0.0
C559 C 0.80901 0.37156 0.02056 0.0
C560 C 0.79514 0.37492 0.99888 0.0
C561 C 0.74951 0.38546 0.9398 0.0
C562 C 0.76592 0.3819 0.95966 0.0
H563 H 0.87024 0.38771 0.04506 0.0
H564 H 0.84818 0.39352 0.00906 0.0
H565 H 0.76871 0.33423 0.99948 0.0
H566 H 0.68485 0.37036 0.92433 0.0
H567 H 0.71249 0.37036 0.95793 0.0
C568 C 0.35025 0.87982 0.54004 0.0
C569 C 0.33562 0.86343 0.55745 0.0
C570 C 0.33817 0.88341 0.51923 0.0
C571 C 0.27813 0.85286 0.48432 0.0
H572 H 0.29471 0.92307 0.45434 0.0
C573 C 0.21069 0.87729 0.41552 0.0
C574 C 0.22271 0.88641 0.39436 0.0
C575 C 0.226 0.87677 0.43501 0.0
C576 C 0.29006 0.90334 0.4625 0.0
H577 H 0.29687 0.83829 0.5669 0.0
H578 H 0.27575 0.84506 0.53119 0.0
H579 H 0.31892 0.9169 0.48901 0.0
H580 H 0.26013 0.90365 0.37732 0.0
H581 H 0.28698 0.90322 0.41175 0.0
H582 H 0.24877 0.83957 0.45828 0.0
C583 C 0.29667 0.85459 0.53313 0.0
C584 C 0.30398 0.89972 0.48227 0.0
C585 C 0.30876 0.85082 0.55372 0.0
C586 C 0.25033 0.8965 0.39341 0.0
C587 C 0.26569 0.89628 0.41306 0.0
C588 C 0.26406 0.85659 0.46485 0.0
C589 C 0.31119 0.87081 0.51553 0.0
C590 C 0.2979 0.8745 0.49361 0.0
C591 C 0.25364 0.88564 0.43385 0.0
C592 C 0.26962 0.88191 0.45392 0.0
H593 H 0.37102 0.88979 0.54246 0.0
H594 H 0.35002 0.89582 0.50599 0.0
H595 H 0.27338 0.83296 0.49215 0.0
H596 H 0.18946 0.86944 0.41684 0.0
H597 H 0.21623 0.86879 0.45092 0.0
C598 C 0.6458 0.61567 0.54537 0.0
C599 C 0.65993 0.63396 0.56188 0.0
C600 C 0.65778 0.6118 0.5246 0.0
C601 C 0.7148 0.64432 0.48729 0.0
H602 H 0.70495 0.57209 0.46226 0.0
C603 C 0.78469 0.62308 0.41941 0.0
C604 C 0.77304 0.60953 0.39946 0.0
C605 C 0.76948 0.6238 0.4389 0.0
C606 C 0.70768 0.59237 0.46899 0.0
H607 H 0.69764 0.66243 0.56964 0.0
H608 H 0.71854 0.65542 0.53387 0.0
H609 H 0.68036 0.57855 0.4966 0.0
H610 H 0.73664 0.58477 0.3847 0.0
H611 H 0.70997 0.58578 0.41912 0.0
H612 H 0.74252 0.65808 0.46011 0.0
C613 C 0.69809 0.64442 0.53659 0.0
C614 C 0.69355 0.59611 0.48857 0.0
C615 C 0.68614 0.64834 0.55721 0.0
C616 C 0.74613 0.59537 0.39985 0.0
C617 C 0.73089 0.59594 0.41951 0.0
C618 C 0.72902 0.64055 0.46794 0.0
C619 C 0.6841 0.62615 0.51998 0.0
C620 C 0.6973 0.62211 0.49816 0.0
C621 C 0.74231 0.61086 0.43895 0.0
C622 C 0.72595 0.61452 0.4588 0.0
H623 H 0.62556 0.60428 0.54854 0.0
H624 H 0.64637 0.59775 0.5121 0.0
H625 H 0.71768 0.6647 0.49383 0.0
H626 H 0.8054 0.63406 0.41971 0.0
H627 H 0.77888 0.63505 0.45381 0.0
C628 C 0.94831 0.32138 0.10735 0.0
C629 C 0.92143 0.30935 0.11166 0.0
C630 C 0.96587 0.30533 0.10506 0.0
C631 C 0.97399 0.23894 0.12203 0.0
H632 H 0.02884 0.25346 0.0756 0.0
C633 C 0.04538 0.17147 0.11262 0.0
C634 C 0.07202 0.18508 0.10883 0.0
C635 C 0.02592 0.18536 0.11092 0.0
C636 C 0.01378 0.24927 0.08881 0.0
H637 H 0.89177 0.27108 0.1165 0.0
H638 H 0.92235 0.24317 0.11252 0.0
H639 H 0.99729 0.28063 0.07665 0.0
H640 H 0.09911 0.22378 0.09991 0.0
H641 H 0.06543 0.24801 0.09736 0.0
H642 H 0.99074 0.20805 0.13459 0.0
C643 C 0.92993 0.26498 0.1111 0.0
C644 C 0.9957 0.26484 0.08937 0.0
C645 C 0.91239 0.28097 0.11324 0.0
C646 C 0.07873 0.21267 0.10285 0.0
C647 C 0.05936 0.22655 0.10124 0.0
C648 C 0.99215 0.22347 0.12156 0.0
C649 C 0.9569 0.27696 0.1072 0.0
C650 C 0.97569 0.25996 0.10608 0.0
C651 C 0.03272 0.21318 0.10546 0.0
C652 C 0.01241 0.22856 0.10505 0.0
H653 H 0.95585 0.3432 0.10607 0.0
H654 H 0.98658 0.31519 0.10225 0.0
H655 H 0.95901 0.2349 0.13532 0.0
H656 H 0.03961 0.15019 0.11719 0.0
H657 H 0.00555 0.17432 0.11396 0.0
C658 C 0.90442 0.68719 0.31914 0.0
C659 C 0.89242 0.67465 0.33932 0.0
C660 C 0.92945 0.70547 0.31993 0.0
C661 C 0.98932 0.72797 0.35609 0.0
H662 H 0.00262 0.79182 0.31729 0.0
C663 C 0.08622 0.81449 0.36042 0.0
C664 C 0.09812 0.82273 0.33905 0.0
C665 C 0.06053 0.79746 0.3615 0.0
C666 C 0.99921 0.77402 0.32815 0.0
H667 H 0.89721 0.67111 0.37611 0.0
H668 H 0.94079 0.70345 0.37759 0.0
H669 H 0.9591 0.75951 0.31721 0.0
H670 H 0.09239 0.82023 0.3021 0.0
H671 H 0.04752 0.79072 0.30399 0.0
H672 H 0.02952 0.74272 0.36707 0.0
C673 C 0.93106 0.69885 0.36109 0.0
C674 C 0.97433 0.75544 0.32804 0.0
C675 C 0.90607 0.6804 0.36027 0.0
C676 C 0.0837 0.8142 0.31882 0.0
C677 C 0.05798 0.79742 0.31989 0.0
C678 C 0.01418 0.74669 0.35631 0.0
C679 C 0.94294 0.71179 0.34095 0.0
C680 C 0.96917 0.73202 0.34179 0.0
C681 C 0.04624 0.78865 0.34122 0.0
C682 C 0.01943 0.76973 0.34214 0.0
H683 H 0.89441 0.68303 0.30272 0.0
H684 H 0.93823 0.71462 0.30402 0.0
H685 H 0.98611 0.71001 0.36669 0.0
H686 H 0.09691 0.82075 0.37629 0.0
H687 H 0.05184 0.79117 0.37817 0.0
C688 C 0.58273 0.7153 0.61323 0.0
C689 C 0.57375 0.6869 0.61446 0.0
C690 C 0.56489 0.73097 0.61126 0.0
C691 C 0.49658 0.7284 0.5947 0.0
H692 H 0.50792 0.79206 0.63353 0.0
C693 C 0.41698 0.78531 0.60813 0.0
C694 C 0.42499 0.81365 0.61051 0.0
C695 C 0.4356 0.77046 0.60688 0.0
C696 C 0.50466 0.77463 0.62228 0.0
H697 H 0.53901 0.65259 0.61412 0.0
H698 H 0.50768 0.68003 0.61065 0.0
H699 H 0.53919 0.76471 0.63464 0.0
H700 H 0.45884 0.84874 0.61288 0.0
H701 H 0.49151 0.82284 0.6103 0.0
H702 H 0.46203 0.7383 0.58234 0.0
C703 C 0.5286 0.69015 0.61111 0.0
C704 C 0.52257 0.75888 0.62297 0.0
C705 C 0.54651 0.67443 0.61319 0.0
C706 C 0.45208 0.82691 0.61111 0.0
C707 C 0.47077 0.81203 0.60979 0.0
C708 C 0.47871 0.74422 0.59393 0.0
C709 C 0.5376 0.71862 0.61038 0.0
C710 C 0.51868 0.73551 0.60927 0.0
C711 C 0.46274 0.78357 0.6079 0.0
C712 C 0.48243 0.76745 0.60782 0.0
H713 H 0.60361 0.72554 0.61409 0.0
H714 H 0.57248 0.75281 0.61039 0.0
H715 H 0.49322 0.71073 0.58371 0.0
H716 H 0.39623 0.77446 0.6077 0.0
H717 H 0.42864 0.74859 0.60578 0.0
C718 C 0.8508 0.03676 0.69544 0.0
C719 C 0.8288 0.0471 0.69786 0.0
C720 C 0.85519 0.01772 0.71113 0.0
C721 C 0.83929 0.99586 0.77092 0.0
H722 H 0.86541 0.93451 0.75455 0.0
C723 C 0.83976 0.91056 0.83477 0.0
C724 C 0.8611 0.89903 0.8345 0.0
C725 C 0.83767 0.92953 0.81819 0.0
C726 C 0.85849 0.9518 0.75941 0.0
H727 H 0.79332 0.04444 0.71769 0.0
H728 H 0.8007 0.01095 0.74473 0.0
H729 H 0.85695 0.96432 0.72436 0.0
H730 H 0.89735 0.89877 0.81697 0.0
H731 H 0.89383 0.93228 0.78796 0.0
H732 H 0.8407 0.98343 0.80588 0.0
C733 C 0.8149 0.01797 0.73109 0.0
C734 C 0.85356 0.9688 0.74211 0.0
C735 C 0.81055 0.03698 0.71547 0.0
C736 C 0.88072 0.90739 0.81763 0.0
C737 C 0.87858 0.92637 0.80092 0.0
C738 C 0.84422 0.97893 0.78816 0.0
C739 C 0.83764 0.0087 0.7295 0.0
C740 C 0.84357 0.99081 0.74768 0.0
C741 C 0.85686 0.93743 0.80089 0.0
C742 C 0.85357 0.95651 0.78261 0.0
H743 H 0.86524 0.04425 0.68206 0.0
H744 H 0.87292 0.01101 0.70947 0.0
H745 H 0.83224 0.01304 0.77585 0.0
H746 H 0.82426 0.90444 0.84749 0.0
H747 H 0.82052 0.93737 0.81851 0.0
C748 C 0.16848 0.58685 0.82987 0.0
C749 C 0.14577 0.59592 0.83256 0.0
C750 C 0.1698 0.5684 0.81259 0.0
C751 C 0.1409 0.543 0.75642 0.0
H752 H 0.17741 0.48781 0.76719 0.0
C753 C 0.14607 0.45889 0.69059 0.0
C754 C 0.17029 0.45236 0.68907 0.0
C755 C 0.14238 0.47739 0.7071 0.0
C756 C 0.16739 0.5033 0.76385 0.0
H757 H 0.10633 0.59226 0.81964 0.0
H758 H 0.10846 0.55952 0.78955 0.0
H759 H 0.17089 0.51627 0.7989 0.0
H760 H 0.21005 0.46119 0.70272 0.0
H761 H 0.20367 0.49356 0.73134 0.0
H762 H 0.13734 0.52973 0.72128 0.0
C763 C 0.1254 0.56704 0.80064 0.0
C764 C 0.16361 0.5196 0.78203 0.0
C765 C 0.12408 0.58559 0.81798 0.0
C766 C 0.19112 0.4657 0.70354 0.0
C767 C 0.18741 0.48407 0.72006 0.0
C768 C 0.14457 0.52654 0.7382 0.0
C769 C 0.14841 0.55847 0.79759 0.0
C770 C 0.15064 0.53989 0.77851 0.0
C771 C 0.1628 0.48957 0.72244 0.0
C772 C 0.15819 0.50677 0.74168 0.0
H773 H 0.18558 0.59455 0.84075 0.0
H774 H 0.18797 0.56257 0.81055 0.0
H775 H 0.13108 0.55864 0.75305 0.0
H776 H 0.12964 0.44888 0.67967 0.0
H777 H 0.12318 0.4812 0.70855 0.0
C778 C 0.73139 0.90272 0.08994 0.0
C779 C 0.71674 0.87899 0.10095 0.0
C780 C 0.74585 0.90108 0.07001 0.0
C781 C 0.74742 0.85567 0.02179 0.0
H782 H 0.82161 0.89365 0.01606 0.0
C783 C 0.81064 0.82667 0.95158 0.0
C784 C 0.82921 0.84745 0.94016 0.0
C785 C 0.79799 0.83224 0.97131 0.0
C786 C 0.80081 0.88321 0.01724 0.0
H787 H 0.70578 0.83503 0.09982 0.0
H788 H 0.7306 0.83224 0.06509 0.0
H789 H 0.79691 0.90121 0.04994 0.0
H790 H 0.84964 0.89028 0.94069 0.0
H791 H 0.82709 0.90021 0.97502 0.0
H792 H 0.75095 0.83779 0.98923 0.0
C793 C 0.73094 0.85207 0.07176 0.0
C794 C 0.78671 0.88755 0.03663 0.0
C795 C 0.71683 0.8537 0.09172 0.0
C796 C 0.83544 0.87384 0.94922 0.0
C797 C 0.82257 0.8795 0.9689 0.0
C798 C 0.76137 0.85152 0.00239 0.0
C799 C 0.74551 0.87569 0.06065 0.0
C800 C 0.76002 0.87338 0.03926 0.0
C801 C 0.80336 0.85882 0.97996 0.0
C802 C 0.78838 0.86477 7e-05 0.0
H803 H 0.7317 0.92248 0.09674 0.0
H804 H 0.75691 0.91958 0.0617 0.0
H805 H 0.72672 0.84485 0.02321 0.0
H806 H 0.80561 0.80608 0.94512 0.0
H807 H 0.78382 0.81567 0.97971 0.0
C808 C 0.17236 0.61969 0.94868 0.0
C809 C 0.1802 0.64562 0.93872 0.0
C810 C 0.18531 0.61368 0.96819 0.0
C811 C 0.24857 0.63775 0.99951 0.0
H812 H 0.21081 0.59575 0.05043 0.0
C813 C 0.29363 0.64065 0.08917 0.0
C814 C 0.29015 0.61628 0.10136 0.0
C815 C 0.28049 0.64122 0.06847 0.0
C816 C 0.22163 0.60714 0.03617 0.0
H817 H 0.2071 0.68582 0.94177 0.0
H818 H 0.22925 0.67557 0.97594 0.0
H819 H 0.18654 0.60294 0.01617 0.0
H820 H 0.27021 0.57333 0.10144 0.0
H821 H 0.24678 0.5744 0.06502 0.0
H822 H 0.28351 0.64259 0.01969 0.0
C823 C 0.21357 0.65964 0.96844 0.0
C824 C 0.20775 0.61129 0.01657 0.0
C825 C 0.20072 0.66559 0.94896 0.0
C826 C 0.27329 0.59237 0.09234 0.0
C827 C 0.25982 0.59301 0.07162 0.0
C828 C 0.26236 0.63372 0.01907 0.0
C829 C 0.20633 0.6335 0.97809 0.0
C830 C 0.22102 0.62715 0.99822 0.0
C831 C 0.26336 0.61749 0.0595 0.0
C832 C 0.24899 0.61886 0.0378 0.0
H833 H 0.15663 0.60387 0.9411 0.0
H834 H 0.17933 0.59332 0.97514 0.0
H835 H 0.25951 0.64944 0.98544 0.0
H836 H 0.30647 0.65942 0.09569 0.0
H837 H 0.28333 0.66045 0.05969 0.0
C838 C 0.67035 0.12152 0.44848 0.0
C839 C 0.67758 0.14752 0.43863 0.0
C840 C 0.68353 0.11578 0.46795 0.0
C841 C 0.74643 0.14123 0.49966 0.0
H842 H 0.70912 0.09746 0.54989 0.0
C843 C 0.79175 0.14218 0.58926 0.0
C844 C 0.78843 0.11745 0.60086 0.0
C845 C 0.77853 0.14332 0.56867 0.0
C846 C 0.71983 0.10938 0.53583 0.0
H847 H 0.70369 0.1881 0.44179 0.0
H848 H 0.72624 0.17833 0.47591 0.0
H849 H 0.68475 0.10466 0.51572 0.0
H850 H 0.7687 0.07446 0.60002 0.0
H851 H 0.7452 0.07651 0.56385 0.0
H852 H 0.78135 0.14652 0.51996 0.0
C853 C 0.71085 0.16214 0.46836 0.0
C854 C 0.7059 0.11353 0.51627 0.0
C855 C 0.69778 0.16782 0.4489 0.0
C856 C 0.77165 0.09378 0.59139 0.0
C857 C 0.75813 0.09497 0.5708 0.0
C858 C 0.76028 0.13721 0.5192 0.0
C859 C 0.70417 0.13597 0.47795 0.0
C860 C 0.71899 0.12993 0.49814 0.0
C861 C 0.7615 0.11979 0.55925 0.0
C862 C 0.74707 0.12165 0.53766 0.0
H863 H 0.65488 0.10545 0.44086 0.0
H864 H 0.678 0.09538 0.47481 0.0
H865 H 0.75725 0.15338 0.48577 0.0
H866 H 0.80453 0.16078 0.59613 0.0
H867 H 0.78125 0.16279 0.56034 0.0
C868 C 0.24173 0.40961 0.58997 0.0
C869 C 0.21491 0.39539 0.59125 0.0
C870 C 0.25616 0.4087 0.56992 0.0
C871 C 0.24886 0.38901 0.50807 0.0
H872 H 0.31767 0.37637 0.51636 0.0
C873 C 0.29876 0.34206 0.43747 0.0
C874 C 0.32571 0.35389 0.43331 0.0
C875 C 0.28638 0.34995 0.45643 0.0
C876 C 0.29864 0.38023 0.51376 0.0
H877 H 0.18191 0.36993 0.57232 0.0
H878 H 0.20701 0.36802 0.53761 0.0
H879 H 0.2938 0.38641 0.54969 0.0
H880 H 0.36094 0.38296 0.44593 0.0
H881 H 0.33927 0.39656 0.47935 0.0
H882 H 0.2534 0.38194 0.47222 0.0
C883 C 0.21694 0.3802 0.55186 0.0
C884 C 0.28498 0.38609 0.53283 0.0
C885 C 0.20255 0.38117 0.57184 0.0
C886 C 0.34015 0.37347 0.44873 0.0
C887 C 0.32778 0.38121 0.46786 0.0
C888 C 0.26243 0.38297 0.48905 0.0
C889 C 0.24404 0.39353 0.55078 0.0
C890 C 0.25972 0.39011 0.53027 0.0
C891 C 0.3007 0.36972 0.47175 0.0
C892 C 0.28726 0.37808 0.49174 0.0
H893 H 0.25176 0.42078 0.60466 0.0
H894 H 0.2769 0.41953 0.56954 0.0
H895 H 0.2297 0.39252 0.5054 0.0
H896 H 0.28711 0.32692 0.42589 0.0
H897 H 0.26558 0.34044 0.45918 0.0
C898 C 0.0608 0.67858 0.89278 0.0
C899 C 0.08696 0.69475 0.89143 0.0
C900 C 0.04001 0.69053 0.89526 0.0
C901 C 0.02476 0.75534 0.9103 0.0
H902 H 0.96258 0.72581 0.87297 0.0
C903 C 0.94621 0.81284 0.89078 0.0
C904 C 0.91968 0.79754 0.89082 0.0
C905 C 0.96642 0.80005 0.89325 0.0
C906 C 0.97966 0.73411 0.88374 0.0
H907 H 0.11194 0.73605 0.89213 0.0
H908 H 0.07578 0.75688 0.89601 0.0
H909 H 0.99795 0.70358 0.87325 0.0
H910 H 0.89346 0.75699 0.89415 0.0
H911 H 0.92863 0.73479 0.8985 0.0
H912 H 0.00654 0.78627 0.92031 0.0
C913 C 0.07123 0.73497 0.89555 0.0
C914 C -7e-05 0.72131 0.88395 0.0
C915 C 0.09198 0.72303 0.89318 0.0
C916 C 0.91373 0.76934 0.89394 0.0
C917 C 0.93387 0.75658 0.89631 0.0
C918 C 0.0045 0.76823 0.90998 0.0
C919 C 0.04495 0.71891 0.89633 0.0
C920 C 0.02281 0.73182 0.89714 0.0
C921 C 0.96045 0.77172 0.89568 0.0
C922 C 0.98177 0.7578 0.89662 0.0
H923 H 0.05635 0.65671 0.89159 0.0
H924 H 0.02004 0.67752 0.89618 0.0
H925 H 0.04193 0.76377 0.92091 0.0
H926 H 0.95137 0.83461 0.8884 0.0
H927 H 0.98673 0.81224 0.89254 0.0
C928 C 0.08998 0.31508 0.67389 0.0
C929 C 0.0996 0.33015 0.65407 0.0
C930 C 0.06567 0.29555 0.67353 0.0
C931 C 0.01894 0.25054 0.63462 0.0
H932 H 0.97067 0.24436 0.68593 0.0
C933 C 0.91384 0.17628 0.6358 0.0
C934 C 0.90471 0.16403 0.65694 0.0
C935 C 0.93799 0.19613 0.63453 0.0
C936 C 0.98408 0.24557 0.6716 0.0
H937 H 0.09128 0.33685 0.61836 0.0
H938 H 0.04864 0.30256 0.61773 0.0
H939 H 0.01143 0.28081 0.68545 0.0
H940 H 0.91419 0.16186 0.69305 0.0
H941 H 0.95652 0.19593 0.69075 0.0
H942 H 0.99168 0.21505 0.62091 0.0
C943 C 0.06002 0.30582 0.6335 0.0
C944 C 0.00737 0.26653 0.6713 0.0
C945 C 0.08431 0.32554 0.63391 0.0
C946 C 0.92064 0.1711 0.67655 0.0
C947 C 0.94479 0.19079 0.67526 0.0
C948 C 0.99564 0.22945 0.63497 0.0
C949 C 0.05053 0.29056 0.6533 0.0
C950 C 0.02516 0.26911 0.65291 0.0
C951 C 0.95347 0.204 0.65436 0.0
C952 C 0.97806 0.22658 0.65359 0.0
H953 H 0.10136 0.31814 0.68967 0.0
H954 H 0.05901 0.2839 0.68898 0.0
H955 H 0.03243 0.25188 0.62034 0.0
H956 H 0.90189 0.17128 0.62042 0.0
H957 H 0.94403 0.20601 0.61819 0.0
C958 C 0.55495 0.17497 0.39435 0.0
C959 C 0.58084 0.19196 0.39431 0.0
C960 C 0.53351 0.18582 0.3976 0.0
C961 C 0.51573 0.2479 0.41707 0.0
H962 H 0.45619 0.2222 0.37597 0.0
C963 C 0.44154 0.30932 0.39578 0.0
C964 C 0.41484 0.29516 0.3932 0.0
C965 C 0.46057 0.29529 0.39937 0.0
C966 C 0.47245 0.22933 0.38783 0.0
H967 H 0.60464 0.23346 0.39824 0.0
H968 H 0.5674 0.25238 0.4035 0.0
H969 H 0.49157 0.19994 0.37611 0.0
H970 H 0.38698 0.25528 0.39314 0.0
H971 H 0.42023 0.23081 0.39943 0.0
H972 H 0.49687 0.27786 0.42823 0.0
C973 C 0.56353 0.23066 0.4014 0.0
C974 C 0.49275 0.21653 0.38795 0.0
C975 C 0.58491 0.21983 0.39822 0.0
C976 C 0.40743 0.26676 0.39499 0.0
C977 C 0.42647 0.25272 0.39847 0.0
C978 C 0.49548 0.26079 0.41687 0.0
C979 C 0.53753 0.21386 0.40084 0.0
C980 C 0.51484 0.2259 0.40232 0.0
C981 C 0.4533 0.26681 0.40035 0.0
C982 C 0.47379 0.25188 0.40201 0.0
H983 H 0.55122 0.15339 0.39146 0.0
H984 H 0.51376 0.17225 0.39738 0.0
H985 H 0.53222 0.25535 0.42865 0.0
H986 H 0.44784 0.33121 0.39446 0.0
H987 H 0.48111 0.30672 0.40054 0.0
C988 C 0.64323 0.55814 0.6595 0.0
C989 C 0.62201 0.56982 0.66066 0.0
C990 C 0.64501 0.5378 0.67486 0.0
C991 C 0.63958 0.4872 0.70316 0.0
H992 H 0.62294 0.49684 0.76702 0.0
C993 C 0.64643 0.40924 0.77254 0.0
C994 C 0.65666 0.41908 0.79413 0.0
C995 C 0.6405 0.42663 0.75618 0.0
C996 C 0.62786 0.49397 0.74929 0.0
H997 H 0.58541 0.56856 0.67822 0.0
H998 H 0.58824 0.53252 0.70492 0.0
H999 H 0.61497 0.52803 0.73797 0.0
H1000 H 0.66872 0.4549 0.81555 0.0
H1001 H 0.65891 0.48556 0.78673 0.0
H1002 H 0.65343 0.45386 0.71451 0.0
C1003 C 0.60376 0.53948 0.69233 0.0
C1004 C 0.6229 0.51161 0.73256 0.0
C1005 C 0.60198 0.55991 0.6769 0.0
C1006 C 0.66084 0.44675 0.79905 0.0
C1007 C 0.65502 0.46424 0.78259 0.0
C1008 C 0.64461 0.46966 0.71986 0.0
C1009 C 0.62557 0.52855 0.69176 0.0
C1010 C 0.62892 0.50859 0.70931 0.0
C1011 C 0.64481 0.45438 0.76092 0.0
C1012 C 0.63898 0.4729 0.74316 0.0
H1013 H 0.65905 0.56539 0.64723 0.0
H1014 H 0.66225 0.53015 0.67406 0.0
H1015 H 0.6442 0.48409 0.6854 0.0
H1016 H 0.64278 0.38797 0.76828 0.0
H1017 H 0.63224 0.41821 0.73987 0.0
C1018 C 0.31435 0.0529 0.78393 0.0
C1019 C 0.33504 0.07213 0.7947 0.0
C1020 C 0.31969 0.03514 0.76755 0.0
C1021 C 0.37285 0.02617 0.72858 0.0
H1022 H 0.32651 0.95343 0.72306 0.0
C1023 C 0.39135 0.94024 0.66984 0.0
C1024 C 0.36932 0.926 0.657 0.0
C1025 C 0.3889 0.95958 0.68614 0.0
C1026 C 0.33955 0.97375 0.72435 0.0
H1027 H 0.37756 0.08746 0.79726 0.0
H1028 H 0.38696 0.05586 0.76932 0.0
H1029 H 0.31895 0.98302 0.75351 0.0
H1030 H 0.32781 0.92177 0.65038 0.0
H1031 H 0.32359 0.95515 0.67882 0.0
H1032 H 0.39373 0.01633 0.69955 0.0
C1033 C 0.36657 0.05491 0.77297 0.0
C1034 C 0.33516 0.99079 0.74173 0.0
C1035 C 0.36119 0.07289 0.78915 0.0
C1036 C 0.34516 0.9323 0.66004 0.0
C1037 C 0.34266 0.95129 0.67643 0.0
C1038 C 0.37745 0.00892 0.71134 0.0
C1039 C 0.34589 0.03596 0.76177 0.0
C1040 C 0.3515 0.01738 0.74391 0.0
C1041 C 0.36431 0.96466 0.69 0.0
C1042 C 0.36059 0.9827 0.70888 0.0
H1043 H 0.29398 0.05201 0.78772 0.0
H1044 H 0.30321 0.02119 0.75904 0.0
H1045 H 0.38567 0.0466 0.72949 0.0
H1046 H 0.4102 0.93577 0.66788 0.0
H1047 H 0.4059 0.96966 0.69641 0.0
C1048 C 0.39591 0.20949 0.85903 0.0
C1049 C 0.38964 0.18149 0.86328 0.0
C1050 C 0.42079 0.22618 0.86463 0.0
C1051 C 0.48881 0.223 0.87089 0.0
H1052 H 0.5008 0.29705 0.89223 0.0
C1053 C 0.59361 0.29406 0.8762 0.0
C1054 C 0.59678 0.31991 0.86665 0.0
C1055 C 0.56845 0.2774 0.88099 0.0
C1056 C 0.49776 0.27643 0.88621 0.0
H1057 H 0.40403 0.14914 0.87762 0.0
H1058 H 0.44765 0.1784 0.88746 0.0
H1059 H 0.45599 0.26701 0.89154 0.0
H1060 H 0.57626 0.3491 0.85553 0.0
H1061 H 0.53228 0.31984 0.86346 0.0
H1062 H 0.53029 0.23255 0.86473 0.0
C1063 C 0.43335 0.18736 0.8796 0.0
C1064 C 0.47213 0.25924 0.88585 0.0
C1065 C 0.40838 0.17065 0.87406 0.0
C1066 C 0.5744 0.32926 0.86289 0.0
C1067 C 0.54921 0.31253 0.86758 0.0
C1068 C 0.51438 0.24018 0.87119 0.0
C1069 C 0.43997 0.21523 0.87454 0.0
C1070 C 0.46733 0.23249 0.87775 0.0
C1071 C 0.54592 0.28618 0.87621 0.0
C1072 C 0.51911 0.26726 0.87843 0.0
H1073 H 0.38183 0.21843 0.85078 0.0
H1074 H 0.42536 0.24749 0.86026 0.0
H1075 H 0.48574 0.20265 0.86422 0.0
H1076 H 0.61054 0.28642 0.87946 0.0
H1077 H 0.56662 0.2574 0.88801 0.0
C1078 C 0.32674 0.52916 0.20078 0.0
C1079 C 0.34638 0.5527 0.19474 0.0
C1080 C 0.33268 0.50986 0.21531 0.0
C1081 C 0.37624 0.50551 0.26252 0.0
H1082 H 0.35377 0.42787 0.2522 0.0
C1083 C 0.36504 0.4247 0.33402 0.0
C1084 C 0.37515 0.40255 0.3294 0.0
C1085 C 0.36504 0.4439 0.31696 0.0
C1086 C 0.36034 0.44952 0.2552 0.0
H1087 H 0.38781 0.57408 0.19848 0.0
H1088 H 0.398 0.54058 0.22413 0.0
H1089 H 0.34651 0.45875 0.22227 0.0
H1090 H 0.39381 0.38343 0.30357 0.0
H1091 H 0.39334 0.41682 0.27359 0.0
H1092 H 0.38929 0.49627 0.29572 0.0
C1093 C 0.37808 0.53706 0.21759 0.0
C1094 C 0.35603 0.46712 0.23818 0.0
C1095 C 0.37225 0.55612 0.20282 0.0
C1096 C 0.38602 0.40039 0.30764 0.0
C1097 C 0.38559 0.41934 0.29045 0.0
C1098 C 0.38014 0.48791 0.27968 0.0
C1099 C 0.35826 0.514 0.22429 0.0
C1100 C 0.36386 0.49526 0.24173 0.0
C1101 C 0.37474 0.44102 0.29487 0.0
C1102 C 0.37212 0.45976 0.27621 0.0
H1103 H 0.30664 0.52603 0.19482 0.0
H1104 H 0.31703 0.49229 0.22032 0.0
H1105 H 0.38225 0.52713 0.26576 0.0
H1106 H 0.3565 0.4268 0.35062 0.0
H1107 H 0.35643 0.46036 0.32075 0.0
C1108 C 0.62392 0.09051 0.3155 0.0
C1109 C 0.64418 0.09913 0.3318 0.0
C1110 C 0.62642 0.07301 0.29768 0.0
C1111 C 0.67755 0.05075 0.26567 0.0
H1112 H 0.61901 0.99158 0.24532 0.0
C1113 C 0.69069 0.9627 0.20967 0.0
C1114 C 0.67165 0.95197 0.19279 0.0
C1115 C 0.68745 0.98289 0.2246 0.0
C1116 C 0.63544 0.00829 0.25056 0.0
H1117 H 0.6824 0.09539 0.34278 0.0
H1118 H 0.6865 0.06453 0.31208 0.0
H1119 H 0.61235 0.02127 0.27623 0.0
H1120 H 0.6348 0.95468 0.17766 0.0
H1121 H 0.62918 0.99013 0.20376 0.0
H1122 H 0.70074 0.03749 0.24029 0.0
C1123 C 0.66897 0.07172 0.31268 0.0
C1124 C 0.63163 0.02526 0.2683 0.0
C1125 C 0.66651 0.08921 0.33041 0.0
C1126 C 0.64982 0.9626 0.19051 0.0
C1127 C 0.64649 0.98271 0.20556 0.0
C1128 C 0.68136 0.03376 0.24799 0.0
C1129 C 0.6492 0.06381 0.29584 0.0
C1130 C 0.65275 0.04646 0.27628 0.0
C1131 C 0.66503 0.9927 0.22304 0.0
C1132 C 0.66044 0.01214 0.24043 0.0
H1133 H 0.60654 0.09795 0.31609 0.0
H1134 H 0.61088 0.06741 0.28493 0.0
H1135 H 0.69408 0.06728 0.27103 0.0
H1136 H 0.70769 0.95486 0.21187 0.0
H1137 H 0.70198 0.98998 0.238 0.0
C1138 C 0.57354 0.83872 0.16315 0.0
C1139 C 0.59277 0.84089 0.14602 0.0
C1140 C 0.54818 0.82166 0.16007 0.0
C1141 C 0.51458 0.759 0.13154 0.0
H1142 H 0.45114 0.77735 0.15103 0.0
C1143 C 0.41276 0.67966 0.13284 0.0
C1144 C 0.39706 0.68034 0.15223 0.0
C1145 C 0.43548 0.70074 0.12869 0.0
C1146 C 0.46869 0.77185 0.14565 0.0
H1147 H 0.60039 0.82774 0.11189 0.0
H1148 H 0.55599 0.79753 0.10662 0.0
H1149 H 0.49293 0.81255 0.14952 0.0
H1150 H 0.39275 0.70349 0.18249 0.0
H1151 H 0.43259 0.73978 0.17565 0.0
H1152 H 0.49074 0.71811 0.12865 0.0
C1153 C 0.56061 0.8091 0.1224 0.0
C1154 C 0.49256 0.79204 0.14469 0.0
C1155 C 0.58592 0.82646 0.12537 0.0
C1156 C 0.40443 0.70245 0.16735 0.0
C1157 C 0.42715 0.7234 0.1633 0.0
C1158 C 0.49075 0.73873 0.1327 0.0
C1159 C 0.54165 0.80622 0.13989 0.0
C1160 C 0.51582 0.7857 0.13806 0.0
C1161 C 0.44296 0.72284 0.14392 0.0
C1162 C 0.46764 0.74481 0.14026 0.0
H1163 H 0.57829 0.84965 0.17923 0.0
H1164 H 0.53403 0.81965 0.17392 0.0
H1165 H 0.53229 0.7535 0.12661 0.0
H1166 H 0.40743 0.66291 0.12082 0.0
H1167 H 0.44707 0.69981 0.11349 0.0
loop_
_geom_bond_atom_site_label_1
_geom_bond_atom_site_label_2
_geom_bond_distance
_geom_bond_site_symmetry_2
_ccdc_geom_bond_type
In0 O1 2.294 . S
In0 O2 2.326 . S
In0 O6 2.266 . S
In0 O7 2.326 . S
In0 O8 2.266 . S
In0 O9 2.326 . S
In0 O11 2.294 . S
In0 O12 2.326 . S
O1 In0 2.294 . S
O1 C10 1.240 . S
O2 In0 2.326 . S
O2 C10 1.252 . S
C3 O6 1.252 . S
C3 O7 1.260 . S
C4 O11 1.240 . S
C4 O12 1.252 . S
C5 O8 1.252 . S
C5 O9 1.260 . S
O6 In0 2.266 . S
O6 C3 1.252 . S
O7 In0 2.326 . S
O7 C3 1.260 . S
O8 In0 2.266 . S
O8 C5 1.252 . S
O9 In0 2.326 . S
O9 C5 1.260 . S
C10 O1 1.240 . S
C10 O2 1.252 . S
O11 In0 2.294 . S
O11 C4 1.240 . S
O12 In0 2.326 . S
O12 C4 1.252 . S
In13 O14 2.294 . S
In13 O15 2.326 . S
In13 O19 2.266 . S
In13 O20 2.326 . S
In13 O21 2.266 . S
In13 O22 2.326 . S
In13 O24 2.294 . S
In13 O25 2.326 . S
O14 In13 2.294 . S
O14 C23 1.240 . S
O15 In13 2.326 . S
O15 C23 1.252 . S
C16 O19 1.252 . S
C16 O20 1.260 . S
C17 O24 1.240 . S
C17 O25 1.252 . S
C18 O21 1.252 . S
C18 O22 1.260 . S
O19 In13 2.266 . S
O19 C16 1.252 . S
O20 In13 2.326 . S
O20 C16 1.260 . S
O21 In13 2.266 . S
O21 C18 1.252 . S
O22 In13 2.326 . S
O22 C18 1.260 . S
C23 O14 1.240 . S
C23 O15 1.252 . S
O24 In13 2.294 . S
O24 C17 1.240 . S
O25 In13 2.326 . S
O25 C17 1.252 . S
In26 O27 2.294 . S
In26 O28 2.326 . S
In26 O32 2.266 . S
In26 O33 2.326 . S
In26 O34 2.266 . S
In26 O35 2.326 . S
In26 O37 2.294 . S
In26 O38 2.326 . S
O27 In26 2.294 . S
O27 C36 1.240 . S
O28 In26 2.326 . S
O28 C36 1.252 . S
C29 O32 1.252 . S
C29 O33 1.260 . S
C30 O37 1.240 . S
C30 O38 1.252 . S
C31 O34 1.252 . S
C31 O35 1.260 . S
O32 In26 2.266 . S
O32 C29 1.252 . S
O33 In26 2.326 . S
O33 C29 1.260 . S
O34 In26 2.266 . S
O34 C31 1.252 . S
O35 In26 2.326 . S
O35 C31 1.260 . S
C36 O27 1.240 . S
C36 O28 1.252 . S
O37 In26 2.294 . S
O37 C30 1.240 . S
O38 In26 2.326 . S
O38 C30 1.252 . S
In39 O40 2.294 . S
In39 O41 2.326 . S
In39 O45 2.266 . S
In39 O46 2.326 . S
In39 O47 2.266 . S
In39 O48 2.326 . S
In39 O50 2.294 . S
In39 O51 2.326 . S
O40 In39 2.294 . S
O40 C49 1.240 . S
O41 In39 2.326 . S
O41 C49 1.252 . S
C42 O45 1.252 . S
C42 O46 1.260 . S
C43 O50 1.240 . S
C43 O51 1.252 . S
C44 O47 1.252 . S
C44 O48 1.260 . S
O45 In39 2.266 . S
O45 C42 1.252 . S
O46 In39 2.326 . S
O46 C42 1.260 . S
O47 In39 2.266 . S
O47 C44 1.252 . S
O48 In39 2.326 . S
O48 C44 1.260 . S
C49 O40 1.240 . S
C49 O41 1.252 . S
O50 In39 2.294 . S
O50 C43 1.240 . S
O51 In39 2.326 . S
O51 C43 1.252 . S
In52 O53 2.294 . S
In52 O54 2.326 . S
In52 O58 2.266 . S
In52 O59 2.326 . S
In52 O60 2.266 . S
In52 O61 2.326 . S
In52 O63 2.294 . S
In52 O64 2.326 . S
O53 In52 2.294 . S
O53 C62 1.240 . S
O54 In52 2.326 . S
O54 C62 1.252 . S
C55 O58 1.252 . S
C55 O59 1.260 . S
C56 O63 1.240 . S
C56 O64 1.252 . S
C57 O60 1.252 . S
C57 O61 1.260 . S
O58 In52 2.266 . S
O58 C55 1.252 . S
O59 In52 2.326 . S
O59 C55 1.260 . S
O60 In52 2.266 . S
O60 C57 1.252 . S
O61 In52 2.326 . S
O61 C57 1.260 . S
C62 O53 1.240 . S
C62 O54 1.252 . S
O63 In52 2.294 . S
O63 C56 1.240 . S
O64 In52 2.326 . S
O64 C56 1.252 . S
In65 O66 2.294 . S
In65 O67 2.326 . S
In65 O71 2.266 . S
In65 O72 2.326 . S
In65 O73 2.266 . S
In65 O74 2.326 . S
In65 O76 2.294 . S
In65 O77 2.326 . S
O66 In65 2.294 . S
O66 C75 1.240 . S
O67 In65 2.326 . S
O67 C75 1.252 . S
C68 O71 1.252 . S
C68 O72 1.260 . S
C69 O76 1.240 . S
C69 O77 1.252 . S
C70 O73 1.252 . S
C70 O74 1.260 . S
O71 In65 2.266 . S
O71 C68 1.252 . S
O72 In65 2.326 . S
O72 C68 1.260 . S
O73 In65 2.266 . S
O73 C70 1.252 . S
O74 In65 2.326 . S
O74 C70 1.260 . S
C75 O66 1.240 . S
C75 O67 1.252 . S
O76 In65 2.294 . S
O76 C69 1.240 . S
O77 In65 2.326 . S
O77 C69 1.252 . S
In78 O79 2.294 . S
In78 O80 2.326 . S
In78 O84 2.266 . S
In78 O85 2.326 . S
In78 O86 2.266 . S
In78 O87 2.326 . S
In78 O89 2.294 . S
In78 O90 2.326 . S
O79 In78 2.294 . S
O79 C88 1.240 . S
O80 In78 2.326 . S
O80 C88 1.252 . S
C81 O84 1.252 . S
C81 O85 1.260 . S
C82 O89 1.240 . S
C82 O90 1.252 . S
C83 O86 1.252 . S
C83 O87 1.260 . S
O84 In78 2.266 . S
O84 C81 1.252 . S
O85 In78 2.326 . S
O85 C81 1.260 . S
O86 In78 2.266 . S
O86 C83 1.252 . S
O87 In78 2.326 . S
O87 C83 1.260 . S
C88 O79 1.240 . S
C88 O80 1.252 . S
O89 In78 2.294 . S
O89 C82 1.240 . S
O90 In78 2.326 . S
O90 C82 1.252 . S
In91 O92 2.294 . S
In91 O93 2.326 . S
In91 O97 2.266 . S
In91 O98 2.326 . S
In91 O99 2.266 . S
In91 O100 2.326 . S
In91 O102 2.294 . S
In91 O103 2.326 . S
O92 In91 2.294 . S
O92 C101 1.240 . S
O93 In91 2.326 . S
O93 C101 1.252 . S
C94 O97 1.252 . S
C94 O98 1.260 . S
C95 O102 1.240 . S
C95 O103 1.252 . S
C96 O99 1.252 . S
C96 O100 1.260 . S
O97 In91 2.266 . S
O97 C94 1.252 . S
O98 In91 2.326 . S
O98 C94 1.260 . S
O99 In91 2.266 . S
O99 C96 1.252 . S
O100 In91 2.326 . S
O100 C96 1.260 . S
C101 O92 1.240 . S
C101 O93 1.252 . S
O102 In91 2.294 . S
O102 C95 1.240 . S
O103 In91 2.326 . S
O103 C95 1.252 . S
In104 O105 2.294 . S
In104 O106 2.326 . S
In104 O110 2.266 . S
In104 O111 2.326 . S
In104 O112 2.266 . S
In104 O113 2.326 . S
In104 O115 2.294 . S
In104 O116 2.326 . S
O105 In104 2.294 . S
O105 C114 1.240 . S
O106 In104 2.326 . S
O106 C114 1.252 . S
C107 O110 1.252 . S
C107 O111 1.260 . S
C108 O115 1.240 . S
C108 O116 1.252 . S
C109 O112 1.252 . S
C109 O113 1.260 . S
O110 In104 2.266 . S
O110 C107 1.252 . S
O111 In104 2.326 . S
O111 C107 1.260 . S
O112 In104 2.266 . S
O112 C109 1.252 . S
O113 In104 2.326 . S
O113 C109 1.260 . S
C114 O105 1.240 . S
C114 O106 1.252 . S
O115 In104 2.294 . S
O115 C108 1.240 . S
O116 In104 2.326 . S
O116 C108 1.252 . S
In117 O118 2.294 . S
In117 O119 2.326 . S
In117 O123 2.266 . S
In117 O124 2.326 . S
In117 O125 2.266 . S
In117 O126 2.326 . S
In117 O128 2.294 . S
In117 O129 2.326 . S
O118 In117 2.294 . S
O118 C127 1.240 . S
O119 In117 2.326 . S
O119 C127 1.252 . S
C120 O123 1.252 . S
C120 O124 1.260 . S
C121 O128 1.240 . S
C121 O129 1.252 . S
C122 O125 1.252 . S
C122 O126 1.260 . S
O123 In117 2.266 . S
O123 C120 1.252 . S
O124 In117 2.326 . S
O124 C120 1.260 . S
O125 In117 2.266 . S
O125 C122 1.252 . S
O126 In117 2.326 . S
O126 C122 1.260 . S
C127 O118 1.240 . S
C127 O119 1.252 . S
O128 In117 2.294 . S
O128 C121 1.240 . S
O129 In117 2.326 . S
O129 C121 1.252 . S
In130 O131 2.294 . S
In130 O132 2.326 . S
In130 O136 2.266 . S
In130 O137 2.326 . S
In130 O138 2.266 . S
In130 O139 2.326 . S
In130 O141 2.294 . S
In130 O142 2.326 . S
O131 In130 2.294 . S
O131 C140 1.240 . S
O132 In130 2.326 . S
O132 C140 1.252 . S
C133 O136 1.252 . S
C133 O137 1.260 . S
C134 O141 1.240 . S
C134 O142 1.252 . S
C135 O138 1.252 . S
C135 O139 1.260 . S
O136 In130 2.266 . S
O136 C133 1.252 . S
O137 In130 2.326 . S
O137 C133 1.260 . S
O138 In130 2.266 . S
O138 C135 1.252 . S
O139 In130 2.326 . S
O139 C135 1.260 . S
C140 O131 1.240 . S
C140 O132 1.252 . S
O141 In130 2.294 . S
O141 C134 1.240 . S
O142 In130 2.326 . S
O142 C134 1.252 . S
In143 O144 2.294 . S
In143 O145 2.326 . S
In143 O149 2.266 . S
In143 O150 2.326 . S
In143 O151 2.266 . S
In143 O152 2.326 . S
In143 O154 2.294 . S
In143 O155 2.326 . S
O144 In143 2.294 . S
O144 C153 1.240 . S
O145 In143 2.326 . S
O145 C153 1.252 . S
C146 O149 1.252 . S
C146 O150 1.260 . S
C147 O154 1.240 . S
C147 O155 1.252 . S
C148 O151 1.252 . S
C148 O152 1.260 . S
O149 In143 2.266 . S
O149 C146 1.252 . S
O150 In143 2.326 . S
O150 C146 1.260 . S
O151 In143 2.266 . S
O151 C148 1.252 . S
O152 In143 2.326 . S
O152 C148 1.260 . S
C153 O144 1.240 . S
C153 O145 1.252 . S
O154 In143 2.294 . S
O154 C147 1.240 . S
O155 In143 2.326 . S
O155 C147 1.252 . S
In156 O157 2.294 . S
In156 O158 2.326 . S
In156 O162 2.266 . S
In156 O163 2.326 . S
In156 O164 2.266 . S
In156 O165 2.326 . S
In156 O167 2.294 . S
In156 O168 2.326 . S
O157 In156 2.294 . S
O157 C166 1.240 . S
O158 In156 2.326 . S
O158 C166 1.252 . S
C159 O162 1.252 . S
C159 O163 1.260 . S
C160 O167 1.240 . S
C160 O168 1.252 . S
C161 O164 1.252 . S
C161 O165 1.260 . S
O162 In156 2.266 . S
O162 C159 1.252 . S
O163 In156 2.326 . S
O163 C159 1.260 . S
O164 In156 2.266 . S
O164 C161 1.252 . S
O165 In156 2.326 . S
O165 C161 1.260 . S
C166 O157 1.240 . S
C166 O158 1.252 . S
O167 In156 2.294 . S
O167 C160 1.240 . S
O168 In156 2.326 . S
O168 C160 1.252 . S
In169 O170 2.294 . S
In169 O171 2.326 . S
In169 O175 2.266 . S
In169 O176 2.326 . S
In169 O177 2.266 . S
In169 O178 2.326 . S
In169 O180 2.294 . S
In169 O181 2.326 . S
O170 In169 2.294 . S
O170 C179 1.240 . S
O171 In169 2.326 . S
O171 C179 1.252 . S
C172 O175 1.252 . S
C172 O176 1.260 . S
C173 O180 1.240 . S
C173 O181 1.252 . S
C174 O177 1.252 . S
C174 O178 1.260 . S
O175 In169 2.266 . S
O175 C172 1.252 . S
O176 In169 2.326 . S
O176 C172 1.260 . S
O177 In169 2.266 . S
O177 C174 1.252 . S
O178 In169 2.326 . S
O178 C174 1.260 . S
C179 O170 1.240 . S
C179 O171 1.252 . S
O180 In169 2.294 . S
O180 C173 1.240 . S
O181 In169 2.326 . S
O181 C173 1.252 . S
In182 O183 2.294 . S
In182 O184 2.326 . S
In182 O188 2.266 . S
In182 O189 2.326 . S
In182 O190 2.266 . S
In182 O191 2.326 . S
In182 O193 2.294 . S
In182 O194 2.326 . S
O183 In182 2.294 . S
O183 C192 1.240 . S
O184 In182 2.326 . S
O184 C192 1.252 . S
C185 O188 1.252 . S
C185 O189 1.260 . S
C186 O193 1.240 . S
C186 O194 1.252 . S
C187 O190 1.252 . S
C187 O191 1.260 . S
O188 In182 2.266 . S
O188 C185 1.252 . S
O189 In182 2.326 . S
O189 C185 1.260 . S
O190 In182 2.266 . S
O190 C187 1.252 . S
O191 In182 2.326 . S
O191 C187 1.260 . S
C192 O183 1.240 . S
C192 O184 1.252 . S
O193 In182 2.294 . S
O193 C186 1.240 . S
O194 In182 2.326 . S
O194 C186 1.252 . S
In195 O196 2.294 . S
In195 O197 2.326 . S
In195 O201 2.266 . S
In195 O202 2.326 . S
In195 O203 2.266 . S
In195 O204 2.326 . S
In195 O206 2.294 . S
In195 O207 2.326 . S
O196 In195 2.294 . S
O196 C205 1.240 . S
O197 In195 2.326 . S
O197 C205 1.252 . S
C198 O201 1.252 . S
C198 O202 1.260 . S
C199 O206 1.240 . S
C199 O207 1.252 . S
C200 O203 1.252 . S
C200 O204 1.260 . S
O201 In195 2.266 . S
O201 C198 1.252 . S
O202 In195 2.326 . S
O202 C198 1.260 . S
O203 In195 2.266 . S
O203 C200 1.252 . S
O204 In195 2.326 . S
O204 C200 1.260 . S
C205 O196 1.240 . S
C205 O197 1.252 . S
O206 In195 2.294 . S
O206 C199 1.240 . S
O207 In195 2.326 . S
O207 C199 1.252 . S
C208 C209 1.349 . S
C208 C210 1.327 . S
C208 H233 0.950 . S
C209 C208 1.349 . S
C209 C225 1.349 . S
C210 C208 1.327 . S
C210 C229 1.429 . S
C210 H234 0.950 . S
C211 C228 1.574 . S
C211 C230 1.368 . S
C211 H235 0.949 . S
H212 C216 0.949 . S
C213 C214 1.349 . S
C213 C215 1.327 . S
C213 H236 0.950 . S
C214 C213 1.349 . S
C214 C226 1.349 . S
C215 C213 1.327 . S
C215 C231 1.429 . S
C215 H237 0.950 . S
C216 H212 0.949 . S
C216 C224 1.574 . S
C216 C232 1.368 . S
H217 C225 0.950 . S
H218 C223 0.950 . S
H219 C224 0.949 . S
H220 C226 0.950 . S
H221 C227 0.950 . S
H222 C228 0.949 . S
C223 H218 0.950 . S
C223 C225 1.327 . S
C223 C229 1.429 . S
C224 C216 1.574 . S
C224 H219 0.949 . S
C224 C230 1.368 . S
C225 C209 1.349 . S
C225 H217 0.950 . S
C225 C223 1.327 . S
C226 C214 1.349 . S
C226 H220 0.950 . S
C226 C227 1.327 . S
C227 H221 0.950 . S
C227 C226 1.327 . S
C227 C231 1.429 . S
C228 C211 1.574 . S
C228 H222 0.949 . S
C228 C232 1.368 . S
C229 C210 1.429 . S
C229 C223 1.429 . S
C229 C230 1.523 . S
C230 C211 1.368 . S
C230 C224 1.368 . S
C230 C229 1.523 . S
C231 C215 1.429 . S
C231 C227 1.429 . S
C231 C232 1.523 . S
C232 C216 1.368 . S
C232 C228 1.368 . S
C232 C231 1.523 . S
H233 C208 0.950 . S
H234 C210 0.950 . S
H235 C211 0.949 . S
H236 C213 0.950 . S
H237 C215 0.950 . S
C238 C239 1.349 . S
C238 C240 1.327 . S
C238 H263 0.950 . S
C239 C238 1.349 . S
C239 C255 1.349 . S
C240 C238 1.327 . S
C240 C259 1.429 . S
C240 H264 0.950 . S
C241 C258 1.574 . S
C241 C260 1.368 . S
C241 H265 0.949 . S
H242 C246 0.949 . S
C243 C244 1.349 . S
C243 C245 1.327 . S
C243 H266 0.950 . S
C244 C243 1.349 . S
C244 C256 1.349 . S
C245 C243 1.327 . S
C245 C261 1.429 . S
C245 H267 0.950 . S
C246 H242 0.949 . S
C246 C254 1.574 . S
C246 C262 1.368 . S
H247 C255 0.950 . S
H248 C253 0.950 . S
H249 C254 0.949 . S
H250 C256 0.950 . S
H251 C257 0.950 . S
H252 C258 0.949 . S
C253 H248 0.950 . S
C253 C255 1.327 . S
C253 C259 1.429 . S
C254 C246 1.574 . S
C254 H249 0.949 . S
C254 C260 1.368 . S
C255 C239 1.349 . S
C255 H247 0.950 . S
C255 C253 1.327 . S
C256 C244 1.349 . S
C256 H250 0.950 . S
C256 C257 1.327 . S
C257 H251 0.950 . S
C257 C256 1.327 . S
C257 C261 1.429 . S
C258 C241 1.574 . S
C258 H252 0.949 . S
C258 C262 1.368 . S
C259 C240 1.429 . S
C259 C253 1.429 . S
C259 C260 1.523 . S
C260 C241 1.368 . S
C260 C254 1.368 . S
C260 C259 1.523 . S
C261 C245 1.429 . S
C261 C257 1.429 . S
C261 C262 1.523 . S
C262 C246 1.368 . S
C262 C258 1.368 . S
C262 C261 1.523 . S
H263 C238 0.950 . S
H264 C240 0.950 . S
H265 C241 0.949 . S
H266 C243 0.950 . S
H267 C245 0.950 . S
C268 C269 1.349 . S
C268 C270 1.327 . S
C268 H293 0.950 . S
C269 C268 1.349 . S
C269 C285 1.349 . S
C270 C268 1.327 . S
C270 C289 1.429 . S
C270 H294 0.950 . S
C271 C288 1.574 . S
C271 C290 1.368 . S
C271 H295 0.949 . S
H272 C276 0.949 . S
C273 C274 1.349 . S
C273 C275 1.327 . S
C273 H296 0.950 . S
C274 C273 1.349 . S
C274 C286 1.349 . S
C275 C273 1.327 . S
C275 C291 1.429 . S
C275 H297 0.950 . S
C276 H272 0.949 . S
C276 C284 1.574 . S
C276 C292 1.368 . S
H277 C285 0.950 . S
H278 C283 0.950 . S
H279 C284 0.949 . S
H280 C286 0.950 . S
H281 C287 0.950 . S
H282 C288 0.949 . S
C283 H278 0.950 . S
C283 C285 1.327 . S
C283 C289 1.429 . S
C284 C276 1.574 . S
C284 H279 0.949 . S
C284 C290 1.368 . S
C285 C269 1.349 . S
C285 H277 0.950 . S
C285 C283 1.327 . S
C286 C274 1.349 . S
C286 H280 0.950 . S
C286 C287 1.327 . S
C287 H281 0.950 . S
C287 C286 1.327 . S
C287 C291 1.429 . S
C288 C271 1.574 . S
C288 H282 0.949 . S
C288 C292 1.368 . S
C289 C270 1.429 . S
C289 C283 1.429 . S
C289 C290 1.523 . S
C290 C271 1.368 . S
C290 C284 1.368 . S
C290 C289 1.523 . S
C291 C275 1.429 . S
C291 C287 1.429 . S
C291 C292 1.523 . S
C292 C276 1.368 . S
C292 C288 1.368 . S
C292 C291 1.523 . S
H293 C268 0.950 . S
H294 C270 0.950 . S
H295 C271 0.949 . S
H296 C273 0.950 . S
H297 C275 0.950 . S
C298 C299 1.349 . S
C298 C300 1.327 . S
C298 H323 0.950 . S
C299 C298 1.349 . S
C299 C315 1.349 . S
C300 C298 1.327 . S
C300 C319 1.429 . S
C300 H324 0.950 . S
C301 C318 1.574 . S
C301 C320 1.368 . S
C301 H325 0.949 . S
H302 C306 0.949 . S
C303 C304 1.349 . S
C303 C305 1.327 . S
C303 H326 0.950 . S
C304 C303 1.349 . S
C304 C316 1.349 . S
C305 C303 1.327 . S
C305 C321 1.429 . S
C305 H327 0.950 . S
C306 H302 0.949 . S
C306 C314 1.574 . S
C306 C322 1.368 . S
H307 C315 0.950 . S
H308 C313 0.950 . S
H309 C314 0.949 . S
H310 C316 0.950 . S
H311 C317 0.950 . S
H312 C318 0.949 . S
C313 H308 0.950 . S
C313 C315 1.327 . S
C313 C319 1.429 . S
C314 C306 1.574 . S
C314 H309 0.949 . S
C314 C320 1.368 . S
C315 C299 1.349 . S
C315 H307 0.950 . S
C315 C313 1.327 . S
C316 C304 1.349 . S
C316 H310 0.950 . S
C316 C317 1.327 . S
C317 H311 0.950 . S
C317 C316 1.327 . S
C317 C321 1.429 . S
C318 C301 1.574 . S
C318 H312 0.949 . S
C318 C322 1.368 . S
C319 C300 1.429 . S
C319 C313 1.429 . S
C319 C320 1.523 . S
C320 C301 1.368 . S
C320 C314 1.368 . S
C320 C319 1.523 . S
C321 C305 1.429 . S
C321 C317 1.429 . S
C321 C322 1.523 . S
C322 C306 1.368 . S
C322 C318 1.368 . S
C322 C321 1.523 . S
H323 C298 0.950 . S
H324 C300 0.950 . S
H325 C301 0.949 . S
H326 C303 0.950 . S
H327 C305 0.950 . S
C328 C329 1.349 . S
C328 C330 1.327 . S
C328 H353 0.950 . S
C329 C328 1.349 . S
C329 C345 1.349 . S
C330 C328 1.327 . S
C330 C349 1.429 . S
C330 H354 0.950 . S
C331 C348 1.574 . S
C331 C350 1.368 . S
C331 H355 0.949 . S
H332 C336 0.949 . S
C333 C334 1.349 . S
C333 C335 1.327 . S
C333 H356 0.950 . S
C334 C333 1.349 . S
C334 C346 1.349 . S
C335 C333 1.327 . S
C335 C351 1.429 . S
C335 H357 0.950 . S
C336 H332 0.949 . S
C336 C344 1.574 . S
C336 C352 1.368 . S
H337 C345 0.950 . S
H338 C343 0.950 . S
H339 C344 0.949 . S
H340 C346 0.950 . S
H341 C347 0.950 . S
H342 C348 0.949 . S
C343 H338 0.950 . S
C343 C345 1.327 . S
C343 C349 1.429 . S
C344 C336 1.574 . S
C344 H339 0.949 . S
C344 C350 1.368 . S
C345 C329 1.349 . S
C345 H337 0.950 . S
C345 C343 1.327 . S
C346 C334 1.349 . S
C346 H340 0.950 . S
C346 C347 1.327 . S
C347 H341 0.950 . S
C347 C346 1.327 . S
C347 C351 1.429 . S
C348 C331 1.574 . S
C348 H342 0.949 . S
C348 C352 1.368 . S
C349 C330 1.429 . S
C349 C343 1.429 . S
C349 C350 1.523 . S
C350 C331 1.368 . S
C350 C344 1.368 . S
C350 C349 1.523 . S
C351 C335 1.429 . S
C351 C347 1.429 . S
C351 C352 1.523 . S
C352 C336 1.368 . S
C352 C348 1.368 . S
C352 C351 1.523 . S
H353 C328 0.950 . S
H354 C330 0.950 . S
H355 C331 0.949 . S
H356 C333 0.950 . S
H357 C335 0.950 . S
C358 C359 1.349 . S
C358 C360 1.327 . S
C358 H383 0.950 . S
C359 C358 1.349 . S
C359 C375 1.349 . S
C360 C358 1.327 . S
C360 C379 1.429 . S
C360 H384 0.950 . S
C361 C378 1.574 . S
C361 C380 1.368 . S
C361 H385 0.949 . S
H362 C366 0.949 . S
C363 C364 1.349 . S
C363 C365 1.327 . S
C363 H386 0.950 . S
C364 C363 1.349 . S
C364 C376 1.349 . S
C365 C363 1.327 . S
C365 C381 1.429 . S
C365 H387 0.950 . S
C366 H362 0.949 . S
C366 C374 1.574 . S
C366 C382 1.368 . S
H367 C375 0.950 . S
H368 C373 0.950 . S
H369 C374 0.949 . S
H370 C376 0.950 . S
H371 C377 0.950 . S
H372 C378 0.949 . S
C373 H368 0.950 . S
C373 C375 1.327 . S
C373 C379 1.429 . S
C374 C366 1.574 . S
C374 H369 0.949 . S
C374 C380 1.368 . S
C375 C359 1.349 . S
C375 H367 0.950 . S
C375 C373 1.327 . S
C376 C364 1.349 . S
C376 H370 0.950 . S
C376 C377 1.327 . S
C377 H371 0.950 . S
C377 C376 1.327 . S
C377 C381 1.429 . S
C378 C361 1.574 . S
C378 H372 0.949 . S
C378 C382 1.368 . S
C379 C360 1.429 . S
C379 C373 1.429 . S
C379 C380 1.523 . S
C380 C361 1.368 . S
C380 C374 1.368 . S
C380 C379 1.523 . S
C381 C365 1.429 . S
C381 C377 1.429 . S
C381 C382 1.523 . S
C382 C366 1.368 . S
C382 C378 1.368 . S
C382 C381 1.523 . S
H383 C358 0.950 . S
H384 C360 0.950 . S
H385 C361 0.949 . S
H386 C363 0.950 . S
H387 C365 0.950 . S
C388 C389 1.349 . S
C388 C390 1.327 . S
C388 H413 0.950 . S
C389 C388 1.349 . S
C389 C405 1.349 . S
C390 C388 1.327 . S
C390 C409 1.429 . S
C390 H414 0.950 . S
C391 C408 1.574 . S
C391 C410 1.368 . S
C391 H415 0.949 . S
H392 C396 0.949 . S
C393 C394 1.349 . S
C393 C395 1.327 . S
C393 H416 0.950 . S
C394 C393 1.349 . S
C394 C406 1.349 . S
C395 C393 1.327 . S
C395 C411 1.429 . S
C395 H417 0.950 . S
C396 H392 0.949 . S
C396 C404 1.574 . S
C396 C412 1.368 . S
H397 C405 0.950 . S
H398 C403 0.950 . S
H399 C404 0.949 . S
H400 C406 0.950 . S
H401 C407 0.950 . S
H402 C408 0.949 . S
C403 H398 0.950 . S
C403 C405 1.327 . S
C403 C409 1.429 . S
C404 C396 1.574 . S
C404 H399 0.949 . S
C404 C410 1.368 . S
C405 C389 1.349 . S
C405 H397 0.950 . S
C405 C403 1.327 . S
C406 C394 1.349 . S
C406 H400 0.950 . S
C406 C407 1.327 . S
C407 H401 0.950 . S
C407 C406 1.327 . S
C407 C411 1.429 . S
C408 C391 1.574 . S
C408 H402 0.949 . S
C408 C412 1.368 . S
C409 C390 1.429 . S
C409 C403 1.429 . S
C409 C410 1.523 . S
C410 C391 1.368 . S
C410 C404 1.368 . S
C410 C409 1.523 . S
C411 C395 1.429 . S
C411 C407 1.429 . S
C411 C412 1.523 . S
C412 C396 1.368 . S
C412 C408 1.368 . S
C412 C411 1.523 . S
H413 C388 0.950 . S
H414 C390 0.950 . S
H415 C391 0.949 . S
H416 C393 0.950 . S
H417 C395 0.950 . S
C418 C419 1.349 . S
C418 C420 1.327 . S
C418 H443 0.950 . S
C419 C418 1.349 . S
C419 C435 1.349 . S
C420 C418 1.327 . S
C420 C439 1.429 . S
C420 H444 0.950 . S
C421 C438 1.574 . S
C421 C440 1.368 . S
C421 H445 0.949 . S
H422 C426 0.949 . S
C423 C424 1.349 . S
C423 C425 1.327 . S
C423 H446 0.950 . S
C424 C423 1.349 . S
C424 C436 1.349 . S
C425 C423 1.327 . S
C425 C441 1.429 . S
C425 H447 0.950 . S
C426 H422 0.949 . S
C426 C434 1.574 . S
C426 C442 1.368 . S
H427 C435 0.950 . S
H428 C433 0.950 . S
H429 C434 0.949 . S
H430 C436 0.950 . S
H431 C437 0.950 . S
H432 C438 0.949 . S
C433 H428 0.950 . S
C433 C435 1.327 . S
C433 C439 1.429 . S
C434 C426 1.574 . S
C434 H429 0.949 . S
C434 C440 1.368 . S
C435 C419 1.349 . S
C435 H427 0.950 . S
C435 C433 1.327 . S
C436 C424 1.349 . S
C436 H430 0.950 . S
C436 C437 1.327 . S
C437 H431 0.950 . S
C437 C436 1.327 . S
C437 C441 1.429 . S
C438 C421 1.574 . S
C438 H432 0.949 . S
C438 C442 1.368 . S
C439 C420 1.429 . S
C439 C433 1.429 . S
C439 C440 1.523 . S
C440 C421 1.368 . S
C440 C434 1.368 . S
C440 C439 1.523 . S
C441 C425 1.429 . S
C441 C437 1.429 . S
C441 C442 1.523 . S
C442 C426 1.368 . S
C442 C438 1.368 . S
C442 C441 1.523 . S
H443 C418 0.950 . S
H444 C420 0.950 . S
H445 C421 0.949 . S
H446 C423 0.950 . S
H447 C425 0.950 . S
C448 C449 1.349 . S
C448 C450 1.327 . S
C448 H473 0.950 . S
C449 C448 1.349 . S
C449 C465 1.349 . S
C450 C448 1.327 . S
C450 C469 1.429 . S
C450 H474 0.950 . S
C451 C468 1.574 1_565 S
C451 C470 1.368 . S
C451 H475 0.949 . S
H452 C456 0.949 . S
C453 C454 1.349 . S
C453 C455 1.327 . S
C453 H476 0.950 . S
C454 C453 1.349 . S
C454 C466 1.349 . S
C455 C453 1.327 . S
C455 C471 1.429 . S
C455 H477 0.950 . S
C456 H452 0.949 . S
C456 C464 1.574 . S
C456 C472 1.368 . S
H457 C465 0.950 . S
H458 C463 0.950 . S
H459 C464 0.949 . S
H460 C466 0.950 . S
H461 C467 0.950 1_565 S
H462 C468 0.949 . S
C463 H458 0.950 . S
C463 C465 1.327 . S
C463 C469 1.429 . S
C464 C456 1.574 . S
C464 H459 0.949 . S
C464 C470 1.368 . S
C465 C449 1.349 . S
C465 H457 0.950 . S
C465 C463 1.327 . S
C466 C454 1.349 . S
C466 H460 0.950 . S
C466 C467 1.327 . S
C467 H461 0.950 1_545 S
C467 C466 1.327 . S
C467 C471 1.429 . S
C468 C451 1.574 1_545 S
C468 H462 0.949 . S
C468 C472 1.368 1_545 S
C469 C450 1.429 . S
C469 C463 1.429 . S
C469 C470 1.523 . S
C470 C451 1.368 . S
C470 C464 1.368 . S
C470 C469 1.523 . S
C471 C455 1.429 . S
C471 C467 1.429 . S
C471 C472 1.523 1_545 S
C472 C456 1.368 . S
C472 C468 1.368 1_565 S
C472 C471 1.523 1_565 S
H473 C448 0.950 . S
H474 C450 0.950 . S
H475 C451 0.949 . S
H476 C453 0.950 . S
H477 C455 0.950 . S
C478 C479 1.349 . S
C478 C480 1.327 . S
C478 H503 0.950 . S
C479 C478 1.349 . S
C479 C495 1.349 . S
C480 C478 1.327 . S
C480 C499 1.429 . S
C480 H504 0.950 . S
C481 C498 1.574 . S
C481 C500 1.368 . S
C481 H505 0.949 . S
H482 C486 0.949 . S
C483 C484 1.349 . S
C483 C485 1.327 . S
C483 H506 0.950 . S
C484 C483 1.349 . S
C484 C496 1.349 . S
C485 C483 1.327 . S
C485 C501 1.429 . S
C485 H507 0.950 . S
C486 H482 0.949 . S
C486 C494 1.574 . S
C486 C502 1.368 . S
H487 C495 0.950 . S
H488 C493 0.950 . S
H489 C494 0.949 . S
H490 C496 0.950 . S
H491 C497 0.950 . S
H492 C498 0.949 . S
C493 H488 0.950 . S
C493 C495 1.327 . S
C493 C499 1.429 . S
C494 C486 1.574 . S
C494 H489 0.949 . S
C494 C500 1.368 . S
C495 C479 1.349 . S
C495 H487 0.950 . S
C495 C493 1.327 . S
C496 C484 1.349 . S
C496 H490 0.950 . S
C496 C497 1.327 . S
C497 H491 0.950 . S
C497 C496 1.327 . S
C497 C501 1.429 . S
C498 C481 1.574 . S
C498 H492 0.949 . S
C498 C502 1.368 . S
C499 C480 1.429 . S
C499 C493 1.429 . S
C499 C500 1.523 . S
C500 C481 1.368 . S
C500 C494 1.368 . S
C500 C499 1.523 . S
C501 C485 1.429 . S
C501 C497 1.429 . S
C501 C502 1.523 . S
C502 C486 1.368 . S
C502 C498 1.368 . S
C502 C501 1.523 . S
H503 C478 0.950 . S
H504 C480 0.950 . S
H505 C481 0.949 . S
H506 C483 0.950 . S
H507 C485 0.950 . S
C508 C509 1.349 . S
C508 C510 1.327 . S
C508 H533 0.950 . S
C509 C508 1.349 . S
C509 C525 1.349 . S
C510 C508 1.327 . S
C510 C529 1.429 . S
C510 H534 0.950 . S
C511 C528 1.574 . S
C511 C530 1.368 . S
C511 H535 0.949 . S
H512 C516 0.949 . S
C513 C514 1.349 . S
C513 C515 1.327 . S
C513 H536 0.950 . S
C514 C513 1.349 . S
C514 C526 1.349 . S
C515 C513 1.327 . S
C515 C531 1.429 . S
C515 H537 0.950 . S
C516 H512 0.949 . S
C516 C524 1.574 . S
C516 C532 1.368 . S
H517 C525 0.950 . S
H518 C523 0.950 . S
H519 C524 0.949 . S
H520 C526 0.950 . S
H521 C527 0.950 . S
H522 C528 0.949 1_554 S
C523 H518 0.950 . S
C523 C525 1.327 . S
C523 C529 1.429 . S
C524 C516 1.574 . S
C524 H519 0.949 . S
C524 C530 1.368 . S
C525 C509 1.349 . S
C525 H517 0.950 . S
C525 C523 1.327 . S
C526 C514 1.349 . S
C526 H520 0.950 . S
C526 C527 1.327 . S
C527 H521 0.950 . S
C527 C526 1.327 . S
C527 C531 1.429 . S
C528 C511 1.574 . S
C528 H522 0.949 1_556 S
C528 C532 1.368 . S
C529 C510 1.429 . S
C529 C523 1.429 . S
C529 C530 1.523 . S
C530 C511 1.368 . S
C530 C524 1.368 . S
C530 C529 1.523 . S
C531 C515 1.429 . S
C531 C527 1.429 . S
C531 C532 1.523 1_554 S
C532 C516 1.368 . S
C532 C528 1.368 . S
C532 C531 1.523 1_556 S
H533 C508 0.950 . S
H534 C510 0.950 . S
H535 C511 0.949 . S
H536 C513 0.950 . S
H537 C515 0.950 . S
C538 C539 1.349 . S
C538 C540 1.327 . S
C538 H563 0.950 . S
C539 C538 1.349 . S
C539 C555 1.349 . S
C540 C538 1.327 . S
C540 C559 1.429 . S
C540 H564 0.950 . S
C541 C558 1.573 . S
C541 C560 1.368 . S
C541 H565 0.950 1_556 S
H542 C546 0.949 . S
C543 C544 1.349 . S
C543 C545 1.327 . S
C543 H566 0.950 . S
C544 C543 1.349 . S
C544 C556 1.349 . S
C545 C543 1.327 . S
C545 C561 1.429 . S
C545 H567 0.950 . S
C546 H542 0.949 . S
C546 C554 1.574 . S
C546 C562 1.368 . S
H547 C555 0.950 . S
H548 C553 0.950 . S
H549 C554 0.949 . S
H550 C556 0.950 . S
H551 C557 0.950 . S
H552 C558 0.949 . S
C553 H548 0.950 . S
C553 C555 1.327 . S
C553 C559 1.429 . S
C554 C546 1.574 . S
C554 H549 0.949 . S
C554 C560 1.368 . S
C555 C539 1.349 . S
C555 H547 0.950 . S
C555 C553 1.327 . S
C556 C544 1.349 . S
C556 H550 0.950 . S
C556 C557 1.327 . S
C557 H551 0.950 . S
C557 C556 1.327 . S
C557 C561 1.429 . S
C558 C541 1.573 . S
C558 H552 0.949 . S
C558 C562 1.368 . S
C559 C540 1.429 . S
C559 C553 1.429 . S
C559 C560 1.523 1_554 S
C560 C541 1.368 . S
C560 C554 1.368 . S
C560 C559 1.523 1_556 S
C561 C545 1.429 . S
C561 C557 1.429 . S
C561 C562 1.523 . S
C562 C546 1.368 . S
C562 C558 1.368 . S
C562 C561 1.523 . S
H563 C538 0.950 . S
H564 C540 0.950 . S
H565 C541 0.950 1_554 S
H566 C543 0.950 . S
H567 C545 0.950 . S
C568 C569 1.349 . S
C568 C570 1.327 . S
C568 H593 0.950 . S
C569 C568 1.349 . S
C569 C585 1.349 . S
C570 C568 1.327 . S
C570 C589 1.429 . S
C570 H594 0.950 . S
C571 C588 1.574 . S
C571 C590 1.368 . S
C571 H595 0.949 . S
H572 C576 0.949 . S
C573 C574 1.349 . S
C573 C575 1.327 . S
C573 H596 0.950 . S
C574 C573 1.349 . S
C574 C586 1.349 . S
C575 C573 1.327 . S
C575 C591 1.429 . S
C575 H597 0.950 . S
C576 H572 0.949 . S
C576 C584 1.574 . S
C576 C592 1.368 . S
H577 C585 0.950 . S
H578 C583 0.950 . S
H579 C584 0.949 . S
H580 C586 0.950 . S
H581 C587 0.950 . S
H582 C588 0.949 . S
C583 H578 0.950 . S
C583 C585 1.327 . S
C583 C589 1.429 . S
C584 C576 1.574 . S
C584 H579 0.949 . S
C584 C590 1.368 . S
C585 C569 1.349 . S
C585 H577 0.950 . S
C585 C583 1.327 . S
C586 C574 1.349 . S
C586 H580 0.950 . S
C586 C587 1.327 . S
C587 H581 0.950 . S
C587 C586 1.327 . S
C587 C591 1.429 . S
C588 C571 1.574 . S
C588 H582 0.949 . S
C588 C592 1.368 . S
C589 C570 1.429 . S
C589 C583 1.429 . S
C589 C590 1.523 . S
C590 C571 1.368 . S
C590 C584 1.368 . S
C590 C589 1.523 . S
C591 C575 1.429 . S
C591 C587 1.429 . S
C591 C592 1.523 . S
C592 C576 1.368 . S
C592 C588 1.368 . S
C592 C591 1.523 . S
H593 C568 0.950 . S
H594 C570 0.950 . S
H595 C571 0.949 . S
H596 C573 0.950 . S
H597 C575 0.950 . S
C598 C599 1.349 . S
C598 C600 1.327 . S
C598 H623 0.950 . S
C599 C598 1.349 . S
C599 C615 1.349 . S
C600 C598 1.327 . S
C600 C619 1.429 . S
C600 H624 0.950 . S
C601 C618 1.574 . S
C601 C620 1.368 . S
C601 H625 0.949 . S
H602 C606 0.949 . S
C603 C604 1.349 . S
C603 C605 1.327 . S
C603 H626 0.950 . S
C604 C603 1.349 . S
C604 C616 1.349 . S
C605 C603 1.327 . S
C605 C621 1.429 . S
C605 H627 0.950 . S
C606 H602 0.949 . S
C606 C614 1.574 . S
C606 C622 1.368 . S
H607 C615 0.950 . S
H608 C613 0.950 . S
H609 C614 0.949 . S
H610 C616 0.950 . S
H611 C617 0.950 . S
H612 C618 0.949 . S
C613 H608 0.950 . S
C613 C615 1.327 . S
C613 C619 1.429 . S
C614 C606 1.574 . S
C614 H609 0.949 . S
C614 C620 1.368 . S
C615 C599 1.349 . S
C615 H607 0.950 . S
C615 C613 1.327 . S
C616 C604 1.349 . S
C616 H610 0.950 . S
C616 C617 1.327 . S
C617 H611 0.950 . S
C617 C616 1.327 . S
C617 C621 1.429 . S
C618 C601 1.574 . S
C618 H612 0.949 . S
C618 C622 1.368 . S
C619 C600 1.429 . S
C619 C613 1.429 . S
C619 C620 1.523 . S
C620 C601 1.368 . S
C620 C614 1.368 . S
C620 C619 1.523 . S
C621 C605 1.429 . S
C621 C617 1.429 . S
C621 C622 1.523 . S
C622 C606 1.368 . S
C622 C618 1.368 . S
C622 C621 1.523 . S
H623 C598 0.950 . S
H624 C600 0.950 . S
H625 C601 0.949 . S
H626 C603 0.950 . S
H627 C605 0.950 . S
C628 C629 1.349 . S
C628 C630 1.327 . S
C628 H653 0.950 . S
C629 C628 1.349 . S
C629 C645 1.349 . S
C630 C628 1.327 . S
C630 C649 1.429 . S
C630 H654 0.950 . S
C631 C648 1.574 . S
C631 C650 1.368 . S
C631 H655 0.949 . S
H632 C636 0.949 . S
C633 C634 1.349 . S
C633 C635 1.327 . S
C633 H656 0.950 . S
C634 C633 1.349 . S
C634 C646 1.349 . S
C635 C633 1.327 . S
C635 C651 1.429 . S
C635 H657 0.950 . S
C636 H632 0.949 . S
C636 C644 1.574 . S
C636 C652 1.368 . S
H637 C645 0.950 . S
H638 C643 0.950 . S
H639 C644 0.949 . S
H640 C646 0.950 . S
H641 C647 0.950 . S
H642 C648 0.949 . S
C643 H638 0.950 . S
C643 C645 1.327 . S
C643 C649 1.429 . S
C644 C636 1.574 . S
C644 H639 0.949 . S
C644 C650 1.368 1_455 S
C645 C629 1.349 . S
C645 H637 0.950 . S
C645 C643 1.327 . S
C646 C634 1.349 . S
C646 H640 0.950 . S
C646 C647 1.327 . S
C647 H641 0.950 . S
C647 C646 1.327 . S
C647 C651 1.429 . S
C648 C631 1.574 . S
C648 H642 0.949 . S
C648 C652 1.368 1_655 S
C649 C630 1.429 . S
C649 C643 1.429 . S
C649 C650 1.523 . S
C650 C631 1.368 . S
C650 C644 1.368 1_655 S
C650 C649 1.523 . S
C651 C635 1.429 . S
C651 C647 1.429 . S
C651 C652 1.523 . S
C652 C636 1.368 . S
C652 C648 1.368 1_455 S
C652 C651 1.523 . S
H653 C628 0.950 . S
H654 C630 0.950 . S
H655 C631 0.949 . S
H656 C633 0.950 . S
H657 C635 0.950 . S
C658 C659 1.349 . S
C658 C660 1.327 . S
C658 H683 0.950 . S
C659 C658 1.349 . S
C659 C675 1.349 . S
C660 C658 1.327 . S
C660 C679 1.429 . S
C660 H684 0.950 . S
C661 C678 1.574 1_655 S
C661 C680 1.368 . S
C661 H685 0.949 . S
H662 C666 0.949 . S
C663 C664 1.349 . S
C663 C665 1.327 . S
C663 H686 0.950 . S
C664 C663 1.349 . S
C664 C676 1.349 . S
C665 C663 1.327 . S
C665 C681 1.429 . S
C665 H687 0.950 . S
C666 H662 0.949 . S
C666 C674 1.574 1_455 S
C666 C682 1.368 . S
H667 C675 0.950 . S
H668 C673 0.950 . S
H669 C674 0.949 . S
H670 C676 0.950 . S
H671 C677 0.950 . S
H672 C678 0.949 . S
C673 H668 0.950 . S
C673 C675 1.327 . S
C673 C679 1.429 . S
C674 C666 1.574 1_655 S
C674 H669 0.949 . S
C674 C680 1.368 . S
C675 C659 1.349 . S
C675 H667 0.950 . S
C675 C673 1.327 . S
C676 C664 1.349 . S
C676 H670 0.950 . S
C676 C677 1.327 . S
C677 H671 0.950 . S
C677 C676 1.327 . S
C677 C681 1.429 . S
C678 C661 1.574 1_455 S
C678 H672 0.949 . S
C678 C682 1.368 . S
C679 C660 1.429 . S
C679 C673 1.429 . S
C679 C680 1.523 . S
C680 C661 1.368 . S
C680 C674 1.368 . S
C680 C679 1.523 . S
C681 C665 1.429 . S
C681 C677 1.429 . S
C681 C682 1.523 . S
C682 C666 1.368 . S
C682 C678 1.368 . S
C682 C681 1.523 . S
H683 C658 0.950 . S
H684 C660 0.950 . S
H685 C661 0.949 . S
H686 C663 0.950 . S
H687 C665 0.950 . S
C688 C689 1.349 . S
C688 C690 1.327 . S
C688 H713 0.950 . S
C689 C688 1.349 . S
C689 C705 1.349 . S
C690 C688 1.327 . S
C690 C709 1.429 . S
C690 H714 0.950 . S
C691 C708 1.574 . S
C691 C710 1.368 . S
C691 H715 0.949 . S
H692 C696 0.949 . S
C693 C694 1.349 . S
C693 C695 1.327 . S
C693 H716 0.950 . S
C694 C693 1.349 . S
C694 C706 1.349 . S
C695 C693 1.327 . S
C695 C711 1.429 . S
C695 H717 0.950 . S
C696 H692 0.949 . S
C696 C704 1.574 . S
C696 C712 1.368 . S
H697 C705 0.950 . S
H698 C703 0.950 . S
H699 C704 0.949 . S
H700 C706 0.950 . S
H701 C707 0.950 . S
H702 C708 0.949 . S
C703 H698 0.950 . S
C703 C705 1.327 . S
C703 C709 1.429 . S
C704 C696 1.574 . S
C704 H699 0.949 . S
C704 C710 1.368 . S
C705 C689 1.349 . S
C705 H697 0.950 . S
C705 C703 1.327 . S
C706 C694 1.349 . S
C706 H700 0.950 . S
C706 C707 1.327 . S
C707 H701 0.950 . S
C707 C706 1.327 . S
C707 C711 1.429 . S
C708 C691 1.574 . S
C708 H702 0.949 . S
C708 C712 1.368 . S
C709 C690 1.429 . S
C709 C703 1.429 . S
C709 C710 1.523 . S
C710 C691 1.368 . S
C710 C704 1.368 . S
C710 C709 1.523 . S
C711 C695 1.429 . S
C711 C707 1.429 . S
C711 C712 1.523 . S
C712 C696 1.368 . S
C712 C708 1.368 . S
C712 C711 1.523 . S
H713 C688 0.950 . S
H714 C690 0.950 . S
H715 C691 0.949 . S
H716 C693 0.950 . S
H717 C695 0.950 . S
C718 C719 1.349 . S
C718 C720 1.327 . S
C718 H743 0.950 . S
C719 C718 1.349 . S
C719 C735 1.349 . S
C720 C718 1.327 . S
C720 C739 1.429 . S
C720 H744 0.950 . S
C721 C738 1.608 . S
C721 C740 1.356 1_565 S
C721 H745 0.931 1_565 S
H722 C726 0.949 . S
C723 C724 1.349 . S
C723 C725 1.327 . S
C723 H746 0.950 . S
C724 C723 1.349 . S
C724 C736 1.349 . S
C725 C723 1.327 . S
C725 C741 1.429 . S
C725 H747 0.950 . S
C726 H722 0.949 . S
C726 C734 1.574 1_565 S
C726 C742 1.368 . S
H727 C735 0.950 . S
H728 C733 0.950 . S
H729 C734 0.949 . S
H730 C736 0.950 . S
H731 C737 0.950 . S
H732 C738 0.949 . S
C733 H728 0.950 . S
C733 C735 1.327 . S
C733 C739 1.429 . S
C734 C726 1.574 1_545 S
C734 H729 0.949 . S
C734 C740 1.368 . S
C735 C719 1.349 . S
C735 H727 0.950 . S
C735 C733 1.327 . S
C736 C724 1.349 . S
C736 H730 0.950 . S
C736 C737 1.327 . S
C737 H731 0.950 . S
C737 C736 1.327 . S
C737 C741 1.429 . S
C738 C721 1.608 . S
C738 H732 0.949 . S
C738 C742 1.368 . S
C739 C720 1.429 . S
C739 C733 1.429 . S
C739 C740 1.523 . S
C740 C721 1.356 1_545 S
C740 C734 1.368 . S
C740 C739 1.523 . S
C741 C725 1.429 . S
C741 C737 1.429 . S
C741 C742 1.523 . S
C742 C726 1.368 . S
C742 C738 1.368 . S
C742 C741 1.523 . S
H743 C718 0.950 . S
H744 C720 0.950 . S
H745 C721 0.931 1_545 S
H746 C723 0.950 . S
H747 C725 0.950 . S
C748 C749 1.349 . S
C748 C750 1.327 . S
C748 H773 0.950 . S
C749 C748 1.349 . S
C749 C765 1.349 . S
C750 C748 1.327 . S
C750 C769 1.429 . S
C750 H774 0.950 . S
C751 C768 1.574 . S
C751 C770 1.368 . S
C751 H775 0.949 . S
H752 C756 0.949 . S
C753 C754 1.349 . S
C753 C755 1.327 . S
C753 H776 0.950 . S
C754 C753 1.349 . S
C754 C766 1.349 . S
C755 C753 1.327 . S
C755 C771 1.429 . S
C755 H777 0.950 . S
C756 H752 0.949 . S
C756 C764 1.574 . S
C756 C772 1.368 . S
H757 C765 0.950 . S
H758 C763 0.950 . S
H759 C764 0.949 . S
H760 C766 0.950 . S
H761 C767 0.950 . S
H762 C768 0.949 . S
C763 H758 0.950 . S
C763 C765 1.327 . S
C763 C769 1.429 . S
C764 C756 1.574 . S
C764 H759 0.949 . S
C764 C770 1.368 . S
C765 C749 1.349 . S
C765 H757 0.950 . S
C765 C763 1.327 . S
C766 C754 1.349 . S
C766 H760 0.950 . S
C766 C767 1.327 . S
C767 H761 0.950 . S
C767 C766 1.327 . S
C767 C771 1.429 . S
C768 C751 1.574 . S
C768 H762 0.949 . S
C768 C772 1.368 . S
C769 C750 1.429 . S
C769 C763 1.429 . S
C769 C770 1.523 . S
C770 C751 1.368 . S
C770 C764 1.368 . S
C770 C769 1.523 . S
C771 C755 1.429 . S
C771 C767 1.429 . S
C771 C772 1.523 . S
C772 C756 1.368 . S
C772 C768 1.368 . S
C772 C771 1.523 . S
H773 C748 0.950 . S
H774 C750 0.950 . S
H775 C751 0.949 . S
H776 C753 0.950 . S
H777 C755 0.950 . S
C778 C779 1.349 . S
C778 C780 1.327 . S
C778 H803 0.950 . S
C779 C778 1.349 . S
C779 C795 1.349 . S
C780 C778 1.327 . S
C780 C799 1.429 . S
C780 H804 0.950 . S
C781 C798 1.597 . S
C781 C800 1.368 . S
C781 H805 0.949 . S
H782 C786 0.949 . S
C783 C784 1.349 . S
C783 C785 1.327 . S
C783 H806 0.950 . S
C784 C783 1.349 . S
C784 C796 1.349 . S
C785 C783 1.327 . S
C785 C801 1.429 . S
C785 H807 0.950 . S
C786 H782 0.949 . S
C786 C794 1.574 . S
C786 C802 1.368 1_554 S
H787 C795 0.950 . S
H788 C793 0.950 . S
H789 C794 0.949 . S
H790 C796 0.950 . S
H791 C797 0.950 . S
H792 C798 0.933 1_556 S
C793 H788 0.950 . S
C793 C795 1.327 . S
C793 C799 1.429 . S
C794 C786 1.574 . S
C794 H789 0.949 . S
C794 C800 1.368 . S
C795 C779 1.349 . S
C795 H787 0.950 . S
C795 C793 1.327 . S
C796 C784 1.349 . S
C796 H790 0.950 . S
C796 C797 1.327 . S
C797 H791 0.950 . S
C797 C796 1.327 . S
C797 C801 1.429 . S
C798 C781 1.597 . S
C798 H792 0.933 1_554 S
C798 C802 1.364 1_554 S
C799 C780 1.429 . S
C799 C793 1.429 . S
C799 C800 1.523 . S
C800 C781 1.368 . S
C800 C794 1.368 . S
C800 C799 1.523 . S
C801 C785 1.429 . S
C801 C797 1.429 . S
C801 C802 1.523 . S
C802 C786 1.368 1_556 S
C802 C798 1.364 1_556 S
C802 C801 1.523 . S
H803 C778 0.950 . S
H804 C780 0.950 . S
H805 C781 0.949 . S
H806 C783 0.950 . S
H807 C785 0.950 . S
C808 C809 1.349 . S
C808 C810 1.327 . S
C808 H833 0.950 . S
C809 C808 1.349 . S
C809 C825 1.349 . S
C810 C808 1.327 . S
C810 C829 1.429 . S
C810 H834 0.950 . S
C811 C828 1.574 . S
C811 C830 1.368 1_554 S
C811 H835 0.949 . S
H812 C816 0.949 . S
C813 C814 1.349 . S
C813 C815 1.327 . S
C813 H836 0.950 . S
C814 C813 1.349 . S
C814 C826 1.349 . S
C815 C813 1.327 . S
C815 C831 1.429 . S
C815 H837 0.950 . S
C816 H812 0.949 . S
C816 C824 1.574 1_554 S
C816 C832 1.368 . S
H817 C825 0.950 . S
H818 C823 0.950 . S
H819 C824 0.949 . S
H820 C826 0.950 . S
H821 C827 0.950 . S
H822 C828 0.949 . S
C823 H818 0.950 . S
C823 C825 1.327 . S
C823 C829 1.429 . S
C824 C816 1.574 1_556 S
C824 H819 0.949 . S
C824 C830 1.368 . S
C825 C809 1.349 . S
C825 H817 0.950 . S
C825 C823 1.327 . S
C826 C814 1.349 . S
C826 H820 0.950 . S
C826 C827 1.327 . S
C827 H821 0.950 . S
C827 C826 1.327 . S
C827 C831 1.429 . S
C828 C811 1.574 . S
C828 H822 0.949 . S
C828 C832 1.368 . S
C829 C810 1.429 . S
C829 C823 1.429 . S
C829 C830 1.523 . S
C830 C811 1.368 1_556 S
C830 C824 1.368 . S
C830 C829 1.523 . S
C831 C815 1.429 . S
C831 C827 1.429 . S
C831 C832 1.523 . S
C832 C816 1.368 . S
C832 C828 1.368 . S
C832 C831 1.523 . S
H833 C808 0.950 . S
H834 C810 0.950 . S
H835 C811 0.949 . S
H836 C813 0.950 . S
H837 C815 0.950 . S
C838 C839 1.349 . S
C838 C840 1.327 . S
C838 H863 0.950 . S
C839 C838 1.349 . S
C839 C855 1.349 . S
C840 C838 1.327 . S
C840 C859 1.429 . S
C840 H864 0.950 . S
C841 C858 1.574 . S
C841 C860 1.368 . S
C841 H865 0.949 . S
H842 C846 0.949 . S
C843 C844 1.349 . S
C843 C845 1.327 . S
C843 H866 0.950 . S
C844 C843 1.349 . S
C844 C856 1.349 . S
C845 C843 1.327 . S
C845 C861 1.429 . S
C845 H867 0.950 . S
C846 H842 0.949 . S
C846 C854 1.574 . S
C846 C862 1.368 . S
H847 C855 0.950 . S
H848 C853 0.950 . S
H849 C854 0.949 . S
H850 C856 0.950 . S
H851 C857 0.950 . S
H852 C858 0.949 . S
C853 H848 0.950 . S
C853 C855 1.327 . S
C853 C859 1.429 . S
C854 C846 1.574 . S
C854 H849 0.949 . S
C854 C860 1.368 . S
C855 C839 1.349 . S
C855 H847 0.950 . S
C855 C853 1.327 . S
C856 C844 1.349 . S
C856 H850 0.950 . S
C856 C857 1.327 . S
C857 H851 0.950 . S
C857 C856 1.327 . S
C857 C861 1.429 . S
C858 C841 1.574 . S
C858 H852 0.949 . S
C858 C862 1.368 . S
C859 C840 1.429 . S
C859 C853 1.429 . S
C859 C860 1.523 . S
C860 C841 1.368 . S
C860 C854 1.368 . S
C860 C859 1.523 . S
C861 C845 1.429 . S
C861 C857 1.429 . S
C861 C862 1.523 . S
C862 C846 1.368 . S
C862 C858 1.368 . S
C862 C861 1.523 . S
H863 C838 0.950 . S
H864 C840 0.950 . S
H865 C841 0.949 . S
H866 C843 0.950 . S
H867 C845 0.950 . S
C868 C869 1.349 . S
C868 C870 1.327 . S
C868 H893 0.950 . S
C869 C868 1.349 . S
C869 C885 1.349 . S
C870 C868 1.327 . S
C870 C889 1.429 . S
C870 H894 0.950 . S
C871 C888 1.574 . S
C871 C890 1.368 . S
C871 H895 0.949 . S
H872 C876 0.949 . S
C873 C874 1.349 . S
C873 C875 1.327 . S
C873 H896 0.950 . S
C874 C873 1.349 . S
C874 C886 1.349 . S
C875 C873 1.327 . S
C875 C891 1.429 . S
C875 H897 0.950 . S
C876 H872 0.949 . S
C876 C884 1.574 . S
C876 C892 1.368 . S
H877 C885 0.950 . S
H878 C883 0.950 . S
H879 C884 0.949 . S
H880 C886 0.950 . S
H881 C887 0.950 . S
H882 C888 0.949 . S
C883 H878 0.950 . S
C883 C885 1.327 . S
C883 C889 1.429 . S
C884 C876 1.574 . S
C884 H879 0.949 . S
C884 C890 1.368 . S
C885 C869 1.349 . S
C885 H877 0.950 . S
C885 C883 1.327 . S
C886 C874 1.349 . S
C886 H880 0.950 . S
C886 C887 1.327 . S
C887 H881 0.950 . S
C887 C886 1.327 . S
C887 C891 1.429 . S
C888 C871 1.574 . S
C888 H882 0.949 . S
C888 C892 1.368 . S
C889 C870 1.429 . S
C889 C883 1.429 . S
C889 C890 1.523 . S
C890 C871 1.368 . S
C890 C884 1.368 . S
C890 C889 1.523 . S
C891 C875 1.429 . S
C891 C887 1.429 . S
C891 C892 1.523 . S
C892 C876 1.368 . S
C892 C888 1.368 . S
C892 C891 1.523 . S
H893 C868 0.950 . S
H894 C870 0.950 . S
H895 C871 0.949 . S
H896 C873 0.950 . S
H897 C875 0.950 . S
C898 C899 1.349 . S
C898 C900 1.327 . S
C898 H923 0.950 . S
C899 C898 1.349 . S
C899 C915 1.349 . S
C900 C898 1.327 . S
C900 C919 1.429 . S
C900 H924 0.950 . S
C901 C918 1.574 1_455 S
C901 C920 1.368 . S
C901 H925 0.949 . S
H902 C906 0.949 . S
C903 C904 1.349 . S
C903 C905 1.327 . S
C903 H926 0.950 . S
C904 C903 1.349 . S
C904 C916 1.349 . S
C905 C903 1.327 . S
C905 C921 1.429 . S
C905 H927 0.950 . S
C906 H902 0.949 . S
C906 C914 1.574 1_655 S
C906 C922 1.368 . S
H907 C915 0.950 . S
H908 C913 0.950 . S
H909 C914 0.949 . S
H910 C916 0.950 . S
H911 C917 0.950 . S
H912 C918 0.949 . S
C913 H908 0.950 . S
C913 C915 1.327 . S
C913 C919 1.429 . S
C914 C906 1.574 1_455 S
C914 H909 0.949 . S
C914 C920 1.368 . S
C915 C899 1.349 . S
C915 H907 0.950 . S
C915 C913 1.327 . S
C916 C904 1.349 . S
C916 H910 0.950 . S
C916 C917 1.327 . S
C917 H911 0.950 . S
C917 C916 1.327 . S
C917 C921 1.429 . S
C918 C901 1.574 1_655 S
C918 H912 0.949 . S
C918 C922 1.368 . S
C919 C900 1.429 . S
C919 C913 1.429 . S
C919 C920 1.523 . S
C920 C901 1.368 . S
C920 C914 1.368 . S
C920 C919 1.523 . S
C921 C905 1.429 . S
C921 C917 1.429 . S
C921 C922 1.523 . S
C922 C906 1.368 . S
C922 C918 1.368 . S
C922 C921 1.523 . S
H923 C898 0.950 . S
H924 C900 0.950 . S
H925 C901 0.949 . S
H926 C903 0.950 . S
H927 C905 0.950 . S
C928 C929 1.349 . S
C928 C930 1.327 . S
C928 H953 0.950 . S
C929 C928 1.349 . S
C929 C945 1.349 . S
C930 C928 1.327 . S
C930 C949 1.429 . S
C930 H954 0.950 . S
C931 C948 1.574 1_455 S
C931 C950 1.368 . S
C931 H955 0.949 . S
H932 C936 0.949 . S
C933 C934 1.349 . S
C933 C935 1.327 . S
C933 H956 0.950 . S
C934 C933 1.349 . S
C934 C946 1.349 . S
C935 C933 1.327 . S
C935 C951 1.429 . S
C935 H957 0.950 . S
C936 H932 0.949 . S
C936 C944 1.574 1_655 S
C936 C952 1.368 . S
H937 C945 0.950 . S
H938 C943 0.950 . S
H939 C944 0.949 . S
H940 C946 0.950 . S
H941 C947 0.950 . S
H942 C948 0.949 . S
C943 H938 0.950 . S
C943 C945 1.327 . S
C943 C949 1.429 . S
C944 C936 1.574 1_455 S
C944 H939 0.949 . S
C944 C950 1.368 . S
C945 C929 1.349 . S
C945 H937 0.950 . S
C945 C943 1.327 . S
C946 C934 1.349 . S
C946 H940 0.950 . S
C946 C947 1.327 . S
C947 H941 0.950 . S
C947 C946 1.327 . S
C947 C951 1.429 . S
C948 C931 1.574 1_655 S
C948 H942 0.949 . S
C948 C952 1.368 . S
C949 C930 1.429 . S
C949 C943 1.429 . S
C949 C950 1.523 . S
C950 C931 1.368 . S
C950 C944 1.368 . S
C950 C949 1.523 . S
C951 C935 1.429 . S
C951 C947 1.429 . S
C951 C952 1.523 . S
C952 C936 1.368 . S
C952 C948 1.368 . S
C952 C951 1.523 . S
H953 C928 0.950 . S
H954 C930 0.950 . S
H955 C931 0.949 . S
H956 C933 0.950 . S
H957 C935 0.950 . S
C958 C959 1.349 . S
C958 C960 1.327 . S
C958 H983 0.950 . S
C959 C958 1.349 . S
C959 C975 1.349 . S
C960 C958 1.327 . S
C960 C979 1.429 . S
C960 H984 0.950 . S
C961 C978 1.574 . S
C961 C980 1.368 . S
C961 H985 0.949 . S
H962 C966 0.949 . S
C963 C964 1.349 . S
C963 C965 1.327 . S
C963 H986 0.950 . S
C964 C963 1.349 . S
C964 C976 1.349 . S
C965 C963 1.327 . S
C965 C981 1.429 . S
C965 H987 0.950 . S
C966 H962 0.949 . S
C966 C974 1.574 . S
C966 C982 1.368 . S
H967 C975 0.950 . S
H968 C973 0.950 . S
H969 C974 0.949 . S
H970 C976 0.950 . S
H971 C977 0.950 . S
H972 C978 0.949 . S
C973 H968 0.950 . S
C973 C975 1.327 . S
C973 C979 1.429 . S
C974 C966 1.574 . S
C974 H969 0.949 . S
C974 C980 1.368 . S
C975 C959 1.349 . S
C975 H967 0.950 . S
C975 C973 1.327 . S
C976 C964 1.349 . S
C976 H970 0.950 . S
C976 C977 1.327 . S
C977 H971 0.950 . S
C977 C976 1.327 . S
C977 C981 1.429 . S
C978 C961 1.574 . S
C978 H972 0.949 . S
C978 C982 1.368 . S
C979 C960 1.429 . S
C979 C973 1.429 . S
C979 C980 1.523 . S
C980 C961 1.368 . S
C980 C974 1.368 . S
C980 C979 1.523 . S
C981 C965 1.429 . S
C981 C977 1.429 . S
C981 C982 1.523 . S
C982 C966 1.368 . S
C982 C978 1.368 . S
C982 C981 1.523 . S
H983 C958 0.950 . S
H984 C960 0.950 . S
H985 C961 0.949 . S
H986 C963 0.950 . S
H987 C965 0.950 . S
C988 C989 1.349 . S
C988 C990 1.327 . S
C988 H1013 0.950 . S
C989 C988 1.349 . S
C989 C1005 1.349 . S
C990 C988 1.327 . S
C990 C1009 1.429 . S
C990 H1014 0.950 . S
C991 C1008 1.574 . S
C991 C1010 1.368 . S
C991 H1015 0.949 . S
H992 C996 0.949 . S
C993 C994 1.349 . S
C993 C995 1.327 . S
C993 H1016 0.950 . S
C994 C993 1.349 . S
C994 C1006 1.349 . S
C995 C993 1.327 . S
C995 C1011 1.429 . S
C995 H1017 0.950 . S
C996 H992 0.949 . S
C996 C1004 1.574 . S
C996 C1012 1.368 . S
H997 C1005 0.950 . S
H998 C1003 0.950 . S
H999 C1004 0.949 . S
H1000 C1006 0.950 . S
H1001 C1007 0.950 . S
H1002 C1008 0.949 . S
C1003 H998 0.950 . S
C1003 C1005 1.327 . S
C1003 C1009 1.429 . S
C1004 C996 1.574 . S
C1004 H999 0.949 . S
C1004 C1010 1.368 . S
C1005 C989 1.349 . S
C1005 H997 0.950 . S
C1005 C1003 1.327 . S
C1006 C994 1.349 . S
C1006 H1000 0.950 . S
C1006 C1007 1.327 . S
C1007 H1001 0.950 . S
C1007 C1006 1.327 . S
C1007 C1011 1.429 . S
C1008 C991 1.574 . S
C1008 H1002 0.949 . S
C1008 C1012 1.368 . S
C1009 C990 1.429 . S
C1009 C1003 1.429 . S
C1009 C1010 1.523 . S
C1010 C991 1.368 . S
C1010 C1004 1.368 . S
C1010 C1009 1.523 . S
C1011 C995 1.429 . S
C1011 C1007 1.429 . S
C1011 C1012 1.523 . S
C1012 C996 1.368 . S
C1012 C1008 1.368 . S
C1012 C1011 1.523 . S
H1013 C988 0.950 . S
H1014 C990 0.950 . S
H1015 C991 0.949 . S
H1016 C993 0.950 . S
H1017 C995 0.950 . S
C1018 C1019 1.349 . S
C1018 C1020 1.327 . S
C1018 H1043 0.950 . S
C1019 C1018 1.349 . S
C1019 C1035 1.349 . S
C1020 C1018 1.327 . S
C1020 C1039 1.429 . S
C1020 H1044 0.950 . S
C1021 C1038 1.574 . S
C1021 C1040 1.368 . S
C1021 H1045 0.949 . S
H1022 C1026 0.949 . S
C1023 C1024 1.349 . S
C1023 C1025 1.327 . S
C1023 H1046 0.950 . S
C1024 C1023 1.349 . S
C1024 C1036 1.349 . S
C1025 C1023 1.327 . S
C1025 C1041 1.429 . S
C1025 H1047 0.950 1_565 S
C1026 H1022 0.949 . S
C1026 C1034 1.574 1_565 S
C1026 C1042 1.368 1_565 S
H1027 C1035 0.950 . S
H1028 C1033 0.950 . S
H1029 C1034 0.949 . S
H1030 C1036 0.950 . S
H1031 C1037 0.950 . S
H1032 C1038 0.949 . S
C1033 H1028 0.950 . S
C1033 C1035 1.327 . S
C1033 C1039 1.429 . S
C1034 C1026 1.574 1_545 S
C1034 H1029 0.949 . S
C1034 C1040 1.368 . S
C1035 C1019 1.349 . S
C1035 H1027 0.950 . S
C1035 C1033 1.327 . S
C1036 C1024 1.349 . S
C1036 H1030 0.950 . S
C1036 C1037 1.327 . S
C1037 H1031 0.950 . S
C1037 C1036 1.327 . S
C1037 C1041 1.429 . S
C1038 C1021 1.574 . S
C1038 H1032 0.949 . S
C1038 C1042 1.368 . S
C1039 C1020 1.429 . S
C1039 C1033 1.429 . S
C1039 C1040 1.523 . S
C1040 C1021 1.368 . S
C1040 C1034 1.368 . S
C1040 C1039 1.523 . S
C1041 C1025 1.429 . S
C1041 C1037 1.429 . S
C1041 C1042 1.523 1_565 S
C1042 C1026 1.368 1_545 S
C1042 C1038 1.368 . S
C1042 C1041 1.523 1_545 S
H1043 C1018 0.950 . S
H1044 C1020 0.950 . S
H1045 C1021 0.949 . S
H1046 C1023 0.950 . S
H1047 C1025 0.950 1_545 S
C1048 C1049 1.349 . S
C1048 C1050 1.327 . S
C1048 H1073 0.950 . S
C1049 C1048 1.349 . S
C1049 C1065 1.349 . S
C1050 C1048 1.327 . S
C1050 C1069 1.429 . S
C1050 H1074 0.950 . S
C1051 C1068 1.574 . S
C1051 C1070 1.368 . S
C1051 H1075 0.949 . S
H1052 C1056 0.949 . S
C1053 C1054 1.349 . S
C1053 C1055 1.327 . S
C1053 H1076 0.950 . S
C1054 C1053 1.349 . S
C1054 C1066 1.349 . S
C1055 C1053 1.327 . S
C1055 C1071 1.429 . S
C1055 H1077 0.950 . S
C1056 H1052 0.949 . S
C1056 C1064 1.574 . S
C1056 C1072 1.368 . S
H1057 C1065 0.950 . S
H1058 C1063 0.950 . S
H1059 C1064 0.949 . S
H1060 C1066 0.950 . S
H1061 C1067 0.950 . S
H1062 C1068 0.949 . S
C1063 H1058 0.950 . S
C1063 C1065 1.327 . S
C1063 C1069 1.429 . S
C1064 C1056 1.574 . S
C1064 H1059 0.949 . S
C1064 C1070 1.368 . S
C1065 C1049 1.349 . S
C1065 H1057 0.950 . S
C1065 C1063 1.327 . S
C1066 C1054 1.349 . S
C1066 H1060 0.950 . S
C1066 C1067 1.327 . S
C1067 H1061 0.950 . S
C1067 C1066 1.327 . S
C1067 C1071 1.429 . S
C1068 C1051 1.574 . S
C1068 H1062 0.949 . S
C1068 C1072 1.368 . S
C1069 C1050 1.429 . S
C1069 C1063 1.429 . S
C1069 C1070 1.523 . S
C1070 C1051 1.368 . S
C1070 C1064 1.368 . S
C1070 C1069 1.523 . S
C1071 C1055 1.429 . S
C1071 C1067 1.429 . S
C1071 C1072 1.523 . S
C1072 C1056 1.368 . S
C1072 C1068 1.368 . S
C1072 C1071 1.523 . S
H1073 C1048 0.950 . S
H1074 C1050 0.950 . S
H1075 C1051 0.949 . S
H1076 C1053 0.950 . S
H1077 C1055 0.950 . S
C1078 C1079 1.349 . S
C1078 C1080 1.327 . S
C1078 H1103 0.950 . S
C1079 C1078 1.349 . S
C1079 C1095 1.349 . S
C1080 C1078 1.327 . S
C1080 C1099 1.429 . S
C1080 H1104 0.950 . S
C1081 C1098 1.574 . S
C1081 C1100 1.368 . S
C1081 H1105 0.949 . S
H1082 C1086 0.949 . S
C1083 C1084 1.349 . S
C1083 C1085 1.327 . S
C1083 H1106 0.950 . S
C1084 C1083 1.349 . S
C1084 C1096 1.349 . S
C1085 C1083 1.327 . S
C1085 C1101 1.429 . S
C1085 H1107 0.950 . S
C1086 H1082 0.949 . S
C1086 C1094 1.574 . S
C1086 C1102 1.368 . S
H1087 C1095 0.950 . S
H1088 C1093 0.950 . S
H1089 C1094 0.949 . S
H1090 C1096 0.950 . S
H1091 C1097 0.950 . S
H1092 C1098 0.949 . S
C1093 H1088 0.950 . S
C1093 C1095 1.327 . S
C1093 C1099 1.429 . S
C1094 C1086 1.574 . S
C1094 H1089 0.949 . S
C1094 C1100 1.368 . S
C1095 C1079 1.349 . S
C1095 H1087 0.950 . S
C1095 C1093 1.327 . S
C1096 C1084 1.349 . S
C1096 H1090 0.950 . S
C1096 C1097 1.327 . S
C1097 H1091 0.950 . S
C1097 C1096 1.327 . S
C1097 C1101 1.429 . S
C1098 C1081 1.574 . S
C1098 H1092 0.949 . S
C1098 C1102 1.368 . S
C1099 C1080 1.429 . S
C1099 C1093 1.429 . S
C1099 C1100 1.523 . S
C1100 C1081 1.368 . S
C1100 C1094 1.368 . S
C1100 C1099 1.523 . S
C1101 C1085 1.429 . S
C1101 C1097 1.429 . S
C1101 C1102 1.523 . S
C1102 C1086 1.368 . S
C1102 C1098 1.368 . S
C1102 C1101 1.523 . S
H1103 C1078 0.950 . S
H1104 C1080 0.950 . S
H1105 C1081 0.949 . S
H1106 C1083 0.950 . S
H1107 C1085 0.950 . S
C1108 C1109 1.349 . S
C1108 C1110 1.327 . S
C1108 H1133 0.950 . S
C1109 C1108 1.349 . S
C1109 C1125 1.349 . S
C1110 C1108 1.327 . S
C1110 C1129 1.429 . S
C1110 H1134 0.950 . S
C1111 C1128 1.574 . S
C1111 C1130 1.368 . S
C1111 H1135 0.949 . S
H1112 C1116 0.949 . S
C1113 C1114 1.349 . S
C1113 C1115 1.327 . S
C1113 H1136 0.950 . S
C1114 C1113 1.349 . S
C1114 C1126 1.349 . S
C1115 C1113 1.327 . S
C1115 C1131 1.429 . S
C1115 H1137 0.950 . S
C1116 H1112 0.949 . S
C1116 C1124 1.554 1_565 S
C1116 C1132 1.368 . S
H1117 C1125 0.950 . S
H1118 C1123 0.950 . S
H1119 C1124 0.950 1_565 S
H1120 C1126 0.950 . S
H1121 C1127 0.950 . S
H1122 C1128 0.949 . S
C1123 H1118 0.950 . S
C1123 C1125 1.327 . S
C1123 C1129 1.429 . S
C1124 C1116 1.554 1_545 S
C1124 H1119 0.950 1_545 S
C1124 C1130 1.388 . S
C1125 C1109 1.349 . S
C1125 H1117 0.950 . S
C1125 C1123 1.327 . S
C1126 C1114 1.349 . S
C1126 H1120 0.950 . S
C1126 C1127 1.327 . S
C1127 H1121 0.950 . S
C1127 C1126 1.327 . S
C1127 C1131 1.429 . S
C1128 C1111 1.574 . S
C1128 H1122 0.949 . S
C1128 C1132 1.368 1_545 S
C1129 C1110 1.429 . S
C1129 C1123 1.429 . S
C1129 C1130 1.523 . S
C1130 C1111 1.368 . S
C1130 C1124 1.388 . S
C1130 C1129 1.523 . S
C1131 C1115 1.429 . S
C1131 C1127 1.429 . S
C1131 C1132 1.523 . S
C1132 C1116 1.368 . S
C1132 C1128 1.368 1_565 S
C1132 C1131 1.523 . S
H1133 C1108 0.950 . S
H1134 C1110 0.950 . S
H1135 C1111 0.949 . S
H1136 C1113 0.950 . S
H1137 C1115 0.950 . S
C1138 C1139 1.349 . S
C1138 C1140 1.327 . S
C1138 H1163 0.950 . S
C1139 C1138 1.349 . S
C1139 C1155 1.349 . S
C1140 C1138 1.327 . S
C1140 C1159 1.429 . S
C1140 H1164 0.950 . S
C1141 C1158 1.574 . S
C1141 C1160 1.368 . S
C1141 H1165 0.949 . S
H1142 C1146 0.949 . S
C1143 C1144 1.349 . S
C1143 C1145 1.327 . S
C1143 H1166 0.950 . S
C1144 C1143 1.349 . S
C1144 C1156 1.349 . S
C1145 C1143 1.327 . S
C1145 C1161 1.429 . S
C1145 H1167 0.950 . S
C1146 H1142 0.949 . S
C1146 C1154 1.574 . S
C1146 C1162 1.368 . S
H1147 C1155 0.950 . S
H1148 C1153 0.950 . S
H1149 C1154 0.949 . S
H1150 C1156 0.950 . S
H1151 C1157 0.950 . S
H1152 C1158 0.949 . S
C1153 H1148 0.950 . S
C1153 C1155 1.327 . S
C1153 C1159 1.429 . S
C1154 C1146 1.574 . S
C1154 H1149 0.949 . S
C1154 C1160 1.368 . S
C1155 C1139 1.349 . S
C1155 H1147 0.950 . S
C1155 C1153 1.327 . S
C1156 C1144 1.349 . S
C1156 H1150 0.950 . S
C1156 C1157 1.327 . S
C1157 H1151 0.950 . S
C1157 C1156 1.327 . S
C1157 C1161 1.429 . S
C1158 C1141 1.574 . S
C1158 H1152 0.949 . S
C1158 C1162 1.368 . S
C1159 C1140 1.429 . S
C1159 C1153 1.429 . S
C1159 C1160 1.523 . S
C1160 C1141 1.368 . S
C1160 C1154 1.368 . S
C1160 C1159 1.523 . S
C1161 C1145 1.429 . S
C1161 C1157 1.429 . S
C1161 C1162 1.523 . S
C1162 C1146 1.368 . S
C1162 C1158 1.368 . S
C1162 C1161 1.523 . S
H1163 C1138 0.950 . S
H1164 C1140 0.950 . S
H1165 C1141 0.949 . S
H1166 C1143 0.950 . S
H1167 C1145 0.950 . S
C209 C3 1.115 . S
C214 C172 1.107 . S
C239 C18 1.115 . S
C244 C122 1.107 . S
C269 C185 0.580 . S
C274 C29 0.576 . S
C299 C42 0.576 . S
C304 C200 0.580 . S
C329 C57 1.115 . S
C334 C81 1.107 . S
C359 C135 1.115 . S
C364 C70 1.107 . S
C389 C146 0.576 . S
C394 C94 0.580 . S
C419 C109 0.580 . S
C424 C159 0.576 . S
C449 C30 1.961 . S
C454 C5 1.945 . S
C479 C16 1.945 . S
C484 C43 1.961 . S
C509 C161 1.637 . S
C514 C10 1.614 . S
C539 C17 1.614 . S
C544 C148 1.637 . S
C569 C56 1.614 . S
C574 C31 1.637 . S
C599 C134 1.614 . S
C604 C44 1.637 . S
C629 C23 2.241 . S
C634 C4 2.241 . S
C659 C49 0.876 . S
C664 C36 0.876 . S
C689 C140 2.241 . S
C694 C62 2.241 . S
C719 C96 1.621 . S
C724 C75 1.600 . S
C749 C82 1.600 . S
C754 C107 1.621 . S
C779 C205 1.754 . S
C784 C69 1.743 . S
C809 C88 1.743 . S
C814 C186 1.754 . S
C839 C121 1.743 . S
C844 C95 1.754 . S
C869 C114 1.754 . S
C874 C179 1.743 . S
C899 C83 2.278 . S
C904 C68 2.278 . S
C929 C108 0.961 . S
C934 C101 0.961 . S
C959 C120 2.278 . S
C964 C174 2.278 . S
C989 C133 1.945 . S
C994 C147 1.961 . S
C1019 C160 1.961 . S
C1024 C55 1.945 . S
C1049 C166 0.876 . S
C1054 C153 0.876 . S
C1079 C187 1.621 . S
C1084 C173 1.600 . S
C1109 C127 1.600 . S
C1114 C198 1.621 . S
C1139 C199 0.961 . S
C1144 C192 0.961 . S
