# Generated by pormake.
# Topology qtz-x, (6)-cn, num edge types: 1
# Building blocks:
#     Node 0, Type 0, BuildingBlock: GEDQOX_clean_sbu_0, # of connection points: 6
#     Node 1, Type 0, BuildingBlock: GEDQOX_clean_sbu_0, # of connection points: 6
#     Node 2, Type 0, BuildingBlock: GEDQOX_clean_sbu_0, # of connection points: 6
#     Edge 3, Type (0, 0), BuildingBlock: KIFKEQ_clean_linker_1, # of connection points: 2
#     Edge 4, Type (0, 0), BuildingBlock: KIFKEQ_clean_linker_1, # of connection points: 2
#     Edge 5, Type (0, 0), BuildingBlock: KIFKEQ_clean_linker_1, # of connection points: 2
#     Edge 6, Type (0, 0), BuildingBlock: KIFKEQ_clean_linker_1, # of connection points: 2
#     Edge 7, Type (0, 0), BuildingBlock: KIFKEQ_clean_linker_1, # of connection points: 2
#     Edge 8, Type (0, 0), BuildingBlock: KIFKEQ_clean_linker_1, # of connection points: 2
#     Edge 9, Type (0, 0), BuildingBlock: KIFKEQ_clean_linker_1, # of connection points: 2
#     Edge 10, Type (0, 0), BuildingBlock: KIFKEQ_clean_linker_1, # of connection points: 2
#     Edge 11, Type (0, 0), BuildingBlock: KIFKEQ_clean_linker_1, # of connection points: 2
# Relax obj value: 0.215
# Max RMSD: 0.264
# Mean RMSD: 0.235
data_MOF--net-qtz-x--node1-GEDQOX_clean_sbu_0--edge1-KIFKEQ_clean_linker_1
_symmetry_space_group_name_H-M    P1
_symmetry_Int_Tables_number       1
_symmetry_cell_setting            triclinic
loop_
_symmetry_equiv_pos_as_xyz
'x, y, z'
_cell_length_a     14.834626
_cell_length_b     14.964404
_cell_length_c     53.628616
_cell_angle_alpha  68.862854
_cell_angle_beta   114.03082
_cell_angle_gamma 121.12933
loop_
_atom_site_label
_atom_site_type_symbol
_atom_site_fract_x
_atom_site_fract_y
_atom_site_fract_z
_atom_type_partial_charge
Nd0 Nd 0.24802 0.76867 0.19125 0.0
Nd1 Nd 1.03331 0.62289 0.20171 0.0
C2 C 0.40623 0.91794 0.1683 0.0
C3 C 0.41837 0.93664 0.14055 0.0
C4 C 0.33602 0.94743 0.11611 0.0
C5 C 0.3404 0.94938 0.09036 0.0
C6 C 0.42686 0.94008 0.0885 0.0
C7 C 0.51122 0.93334 0.11277 0.0
C8 C 0.5071 0.93189 0.13852 0.0
C9 C 0.20028 0.55761 0.19952 0.0
C10 C 1.03028 0.69948 0.13826 0.0
C11 C 0.86981 0.47069 0.22276 0.0
C12 C 0.85136 0.43438 0.25062 0.0
C13 C 0.9259 0.40588 0.27439 0.0
C14 C 0.90987 0.37542 0.3007 0.0
C15 C 0.81885 0.37249 0.30393 0.0
C16 C 0.7442 0.4009 0.28013 0.0
C17 C 0.76023 0.43129 0.25374 0.0
C18 C 0.08251 0.83425 0.19303 0.0
C19 C 0.25491 0.69528 0.25474 0.0
O20 O 0.32815 0.93337 0.16896 0.0
O21 O 0.41177 0.83166 0.18537 0.0
O22 O 0.29574 0.62976 0.20954 0.0
O23 O 0.1336 0.59775 0.18508 0.0
O24 O 0.1255 0.77607 0.14783 0.0
O25 O 0.97997 0.61617 0.15554 0.0
O26 O 0.94445 0.45464 0.22039 0.0
O27 O 0.87308 0.56403 0.20925 0.0
O28 O 0.98783 0.76373 0.18186 0.0
O29 O 0.14771 0.79288 0.2081 0.0
O30 O 0.15655 0.6202 0.24564 0.0
O31 O 0.3056 0.77598 0.23711 0.0
H32 H 0.2661 0.95077 0.11692 0.0
H33 H 0.2738 0.95385 0.07208 0.0
H34 H 0.5797 0.92755 0.11191 0.0
H35 H 0.57144 0.92337 0.157 0.0
H36 H 0.99731 0.40785 0.27275 0.0
H37 H 0.96983 0.35556 0.3186 0.0
H38 H 0.67268 0.39844 0.28186 0.0
H39 H 0.70159 0.45288 0.23576 0.0
Nd40 Nd 0.77326 0.94731 0.55705 0.0
Nd41 Nd 0.87482 0.18619 0.56418 0.0
C42 C 0.74837 0.78592 0.54159 0.0
C43 C 0.68454 0.74936 0.51494 0.0
C44 C 0.71589 0.69657 0.50542 0.0
C45 C 0.66526 0.67624 0.47831 0.0
C46 C 0.58261 0.70866 0.46029 0.0
C47 C 0.54982 0.75921 0.47026 0.0
C48 C 0.60052 0.77966 0.49724 0.0
C49 C 0.60722 -0.00687 0.55235 0.0
C50 C 0.77688 0.14479 0.50171 0.0
C51 C 0.93582 0.36001 0.58107 0.0
C52 C 0.95292 0.3821 0.60764 0.0
C53 C 0.9147 0.29838 0.62902 0.0
C54 C 0.94173 0.31765 0.65532 0.0
C55 C 1.00566 0.42175 0.6607 0.0
C56 C 1.0406 0.50606 0.63881 0.0
C57 C 1.01519 0.48618 0.6126 0.0
C58 C 1.01228 0.13016 0.55764 0.0
C59 C 0.84774 -0.01566 0.61928 0.0
O60 O 0.83214 0.87948 0.53984 0.0
O61 O 0.69199 0.77445 0.55699 0.0
O62 O 0.59054 0.90127 0.55051 0.0
O63 O 0.70809 0.05406 0.55613 0.0
O64 O 0.7704 0.04774 0.51283 0.0
O65 O 0.80356 0.21212 0.51688 0.0
O66 O 0.83461 0.30356 0.56803 0.0
O67 O 1.00498 0.33025 0.5813 0.0
O68 O 1.01067 0.22248 0.54686 0.0
O69 O 0.94495 0.07199 0.57219 0.0
O70 O 0.86776 0.08519 0.60813 0.0
O71 O 0.818 0.91431 0.60456 0.0
H72 H 0.7817 0.67403 0.51864 0.0
H73 H 0.6918 0.6365 0.47131 0.0
H74 H 0.48803 0.78702 0.45682 0.0
H75 H 0.57685 0.82281 0.50395 0.0
H76 H 0.86558 0.21761 0.62559 0.0
H77 H 0.91442 0.25022 0.67157 0.0
H78 H 0.08779 0.58754 0.64187 0.0
H79 H 1.04539 0.55191 0.59632 0.0
Nd80 Nd 0.99775 0.77251 0.88805 0.0
Nd81 Nd 0.81575 0.8587 0.86764 0.0
C82 C 0.17744 0.75971 0.89552 0.0
C83 C 0.19505 0.70236 0.88184 0.0
C84 C 0.26718 0.76004 0.86503 0.0
C85 C 0.26487 0.71245 0.84648 0.0
C86 C 0.18884 0.60675 0.84413 0.0
C87 C 0.12299 0.54662 0.86252 0.0
C88 C 0.12618 0.59381 0.88125 0.0
C89 C 0.78925 0.60582 0.87967 0.0
C90 C 0.87248 0.82439 0.82079 0.0
C91 C 0.65451 0.90193 0.86089 0.0
C92 C 0.59864 0.89483 0.87926 0.0
C93 C 0.58612 0.81508 0.9032 0.0
C94 C 0.54418 0.81622 0.9221 0.0
C95 C 0.51446 0.89749 0.91754 0.0
C96 C 0.52518 -0.02397 0.89318 0.0
C97 C 0.56667 -0.02554 0.87421 0.0
C98 C 1.02623 0.00784 0.86758 0.0
C99 C 0.92485 0.78682 0.93531 0.0
O100 O 0.15617 0.8399 0.87902 0.0
O101 O 0.1148 0.70139 0.91244 0.0
O102 O 0.87783 0.59296 0.88804 0.0
O103 O 0.81606 0.703 0.87612 0.0
O104 O 0.96077 0.81809 0.84025 0.0
O105 O 0.7944 0.82584 0.82651 0.0
O106 O 0.63807 0.81229 0.85711 0.0
O107 O 0.757 -0.02765 0.86464 0.0
O108 O 0.94006 0.01504 0.84855 0.0
O109 O 0.99947 0.92599 0.88624 0.0
O110 O 0.84422 0.80678 0.91536 0.0
O111 O 1.00167 0.78146 0.93011 0.0
H112 H 0.31908 0.84413 0.86464 0.0
H113 H 0.31598 0.76086 0.8324 0.0
H114 H 1.0643 0.46468 0.86125 0.0
H115 H 1.0691 0.54694 0.89382 0.0
H116 H 0.61193 0.75375 0.90775 0.0
H117 H 0.53938 0.75573 0.94087 0.0
H118 H 0.5018 0.03893 0.88879 0.0
H119 H 0.57628 0.03701 0.85589 0.0
H120 H 0.24499 0.96589 0.22899 0.0
H121 H 0.96322 0.94411 0.158 0.0
H122 H 0.27049 0.13719 0.23137 0.0
H123 H 0.99172 0.11852 0.15914 0.0
H124 H 1.00541 0.38874 0.18302 0.0
H125 H 0.97684 0.21408 0.18184 0.0
H126 H 0.32733 0.31512 0.21185 0.0
H127 H 0.35417 0.48623 0.21451 0.0
C128 C 0.18941 -0.0013 0.21361 0.0
C129 C 0.10201 0.94154 0.19334 0.0
C130 C 0.20427 0.09758 0.21482 0.0
C131 C 0.13332 0.14306 0.19544 0.0
C132 C 1.0469 0.08597 0.17484 0.0
C133 C 1.031 -0.01381 0.17396 0.0
C134 C 0.07598 0.37288 0.18952 0.0
C135 C 0.18189 0.451 0.19895 0.0
C136 C 1.05994 0.27297 0.18862 0.0
C137 C 0.14968 0.24928 0.19669 0.0
C138 C 0.25566 0.32845 0.206 0.0
C139 C 0.27135 0.42738 0.20735 0.0
H140 H 0.39398 0.85491 0.54941 0.0
H141 H 0.62491 0.17978 0.55676 0.0
H142 H 0.25047 0.88574 0.55098 0.0
H143 H 0.48149 0.21094 0.55874 0.0
H144 H 0.16958 0.25823 0.53042 0.0
H145 H 0.31301 0.22614 0.52942 0.0
H146 H 0.19185 0.91761 0.582 0.0
H147 H 1.04695 0.94989 0.58277 0.0
C148 C 0.41426 0.93315 0.55142 0.0
C149 C 0.52113 0.01508 0.55294 0.0
C150 C 0.33194 0.95057 0.55255 0.0
C151 C 0.35388 0.05073 0.55508 0.0
C152 C 0.461 0.13298 0.55651 0.0
C153 C 0.54363 0.11524 0.5555 0.0
C154 C 0.17327 0.18334 0.54176 0.0
C155 C 0.09665 0.10657 0.55669 0.0
C156 C 0.25629 0.16529 0.54136 0.0
C157 C 0.265 0.06956 0.55576 0.0
C158 C 0.18739 -0.00799 0.57047 0.0
C159 C 0.10438 0.01044 0.571 0.0
H160 H 0.21704 0.01176 0.90685 0.0
H161 H 0.08988 0.19466 0.83102 0.0
H162 H 0.40186 0.15623 0.9095 0.0
H163 H 0.27395 0.33814 0.8334 0.0
H164 H 0.5957 0.61932 0.86362 0.0
H165 H 0.41215 0.47321 0.86083 0.0
H166 H 0.54715 0.24767 0.88668 0.0
H167 H 0.73052 0.39409 0.88996 0.0
C168 C 0.22879 0.08251 0.89067 0.0
C169 C 0.13912 0.09212 0.86878 0.0
C170 C 0.33464 0.16512 0.8921 0.0
C171 C 0.3528 0.25917 0.87173 0.0
C172 C 0.26286 0.26772 0.84968 0.0
C173 C 0.15739 0.18511 0.8482 0.0
C174 C 0.58593 0.5387 0.86865 0.0
C175 C 0.67729 0.51827 0.87702 0.0
C176 C 0.48075 0.4548 0.86692 0.0
C177 C 0.46473 0.34849 0.87351 0.0
C178 C 0.55651 0.32834 0.88179 0.0
C179 C 0.66151 0.4123 0.88348 0.0
H180 H 0.56662 0.07567 0.93418 0.0
H181 H 0.38313 0.7334 0.9497 0.0
H182 H 0.52923 0.08395 0.97328 0.0
H183 H 0.34797 0.742 0.98925 0.0
H184 H 0.47003 0.8002 0.07929 0.0
H185 H 0.47349 0.78855 1.03554 0.0
H186 H 0.38363 0.04893 0.99288 0.0
H187 H 0.38159 0.06156 1.03694 0.0
C188 C 0.51646 0.00228 0.94554 0.0
C189 C 0.47942 0.90361 0.93902 0.0
C190 C 0.49521 0.00716 0.96802 0.0
C191 C 0.43712 0.9135 0.98459 0.0
C192 C 0.39497 0.81535 0.97719 0.0
C193 C 0.41549 0.81048 0.9546 0.0
C194 C 0.45145 0.85527 0.06061 0.0
C195 C 0.42668 0.93252 0.06161 0.0
C196 C 0.45198 0.84768 1.03548 0.0
C197 C 0.42847 0.91762 1.01075 0.0
C198 C 0.40253 -0.00572 1.01164 0.0
C199 C 0.40093 0.00119 1.0368 0.0
H200 H 0.68399 0.01974 0.46342 0.0
H201 H 0.83872 0.34879 0.471 0.0
H202 H 0.6835 0.075 0.4149 0.0
H203 H 0.83976 0.40438 0.42219 0.0
H204 H 0.75386 0.46086 0.32645 0.0
H205 H 0.72961 0.40646 0.37303 0.0
H206 H 0.8252 0.15631 0.39164 0.0
H207 H 0.84605 0.20836 0.34509 0.0
C208 C 0.7172 0.10408 0.45469 0.0
C209 C 0.76253 0.1799 0.47125 0.0
C210 C 0.71745 0.13575 0.42684 0.0
C211 C 0.76338 0.24415 0.41475 0.0
C212 C 0.80345 0.32019 0.43084 0.0
C213 C 0.80294 0.28837 0.45882 0.0
C214 C 0.76841 0.39349 0.34042 0.0
C215 C 0.80202 0.33902 0.33204 0.0
C216 C 0.75554 0.363 0.36719 0.0
C217 C 0.77505 0.27679 0.38607 0.0
C218 C 0.80791 0.22211 0.37755 0.0
C219 C 0.82118 0.25277 0.35093 0.0
H220 H 0.69138 0.79198 0.77519 0.0
H221 H 1.03948 0.88505 0.79987 0.0
H222 H 0.68569 0.82012 0.72661 0.0
H223 H 1.03344 0.91473 0.75157 0.0
H224 H 0.98185 0.10465 0.65914 0.0
H225 H 0.98496 0.05683 0.70795 0.0
H226 H 0.73206 0.74173 0.69644 0.0
H227 H 0.73012 0.78901 0.64732 0.0
C228 C 0.76636 0.81799 0.77032 0.0
C229 C 0.86585 0.83656 0.79143 0.0
C230 C 0.76291 0.8334 0.74258 0.0
C231 C 0.85921 0.86967 0.73542 0.0
C232 C 0.95814 0.88703 0.75653 0.0
C233 C 0.9613 0.86974 0.78421 0.0
C234 C 0.92766 0.02473 0.66703 0.0
C235 C 0.85603 0.9504 0.64942 0.0
C236 C 0.92962 -0.00258 0.69499 0.0
C237 C 0.85856 0.89575 0.7059 0.0
C238 C 0.78731 0.8208 0.68844 0.0
C239 C 0.78697 0.84752 0.66048 0.0
H240 H 1.03287 0.68768 0.98151 0.0
H241 H 0.8246 0.84498 0.95568 0.0
H242 H 1.03908 0.65833 1.02998 0.0
H243 H 0.83349 0.81751 1.00436 0.0
H244 H 1.04906 0.87645 0.09805 0.0
H245 H 1.01051 0.89178 0.04818 0.0
H246 H 0.88756 0.55198 0.06005 0.0
H247 H 0.92367 0.53608 0.11009 0.0
C248 C 0.98853 0.71608 0.98614 0.0
C249 C 0.92854 0.76901 0.96471 0.0
C250 C 0.99143 0.69843 1.01386 0.0
C251 C 0.93617 0.73507 1.0208 0.0
C252 C 0.87647 0.78825 0.99948 0.0
C253 C 0.87156 0.80394 0.97167 0.0
C254 C 1.0113 0.80472 0.08991 0.0
C255 C 0.98869 0.70499 0.10786 0.0
C256 C 0.98928 0.81358 0.06141 0.0
C257 C 0.94648 0.72313 0.05037 0.0
C258 C 0.92072 0.62285 0.06814 0.0
C259 C 0.9404 0.61367 0.09664 0.0
H260 H 0.45487 0.83511 0.28145 0.0
H261 H 0.17021 0.545 0.29696 0.0
H262 H 0.53423 0.83127 0.33137 0.0
H263 H 0.25028 0.54028 0.34679 0.0
H264 H 0.36751 0.64564 0.42982 0.0
H265 H 0.29081 0.63876 0.38043 0.0
H266 H 0.6114 0.733 0.3746 0.0
H267 H 0.68878 0.74328 0.42386 0.0
C268 C 0.40954 0.77002 0.29548 0.0
C269 C 0.3059 0.69056 0.28513 0.0
C270 C 0.45539 0.76747 0.32413 0.0
C271 C 0.39859 0.68553 0.34311 0.0
C272 C 0.29566 0.60528 0.33275 0.0
C273 C 0.24997 0.60771 0.30414 0.0
C274 C 0.42163 0.66488 0.418 0.0
C275 C 0.53433 0.6953 0.43078 0.0
C276 C 0.37749 0.65997 0.38973 0.0
C277 C 0.44499 0.68559 0.37351 0.0
C278 C 0.55734 0.71393 0.38642 0.0
C279 C 0.60146 0.71852 0.41473 0.0
H280 H 0.33393 0.6075 0.82449 0.0
H281 H 0.99091 0.51725 0.80834 0.0
H282 H 0.29289 0.5525 0.78178 0.0
H283 H 0.95014 0.46763 0.76536 0.0
H284 H 0.88391 0.31696 0.69834 0.0
H285 H 0.93411 0.34686 0.74458 0.0
H286 H 0.24306 0.60765 0.73306 0.0
H287 H 0.19702 0.57135 0.68767 0.0
C288 C 0.24982 0.57528 0.81185 0.0
C289 C 0.16544 0.56537 0.81984 0.0
C290 C 0.2262 0.54465 0.78727 0.0
C291 C 0.118 0.50556 0.76994 0.0
C292 C 1.03395 0.49473 0.77833 0.0
C293 C 1.05729 0.52349 0.80302 0.0
C294 C 0.96365 0.37929 0.70578 0.0
C295 C 1.03608 0.44175 0.68901 0.0
C296 C 0.99188 0.39761 0.73229 0.0
C297 C 0.09241 0.48045 0.74264 0.0
C298 C 0.16544 0.54234 0.72602 0.0
C299 C 0.13796 0.52279 0.69965 0.0
loop_
_geom_bond_atom_site_label_1
_geom_bond_atom_site_label_2
_geom_bond_distance
_geom_bond_site_symmetry_2
_ccdc_geom_bond_type
Nd0 C2 2.836 . S
Nd0 O20 2.500 . S
Nd0 O21 2.492 . S
Nd0 O22 2.487 . S
Nd0 O23 2.682 1_455 S
Nd0 O24 2.410 1_455 S
Nd0 O29 2.414 . S
Nd0 O31 2.424 . S
Nd1 C11 2.836 . S
Nd1 O23 2.414 . S
Nd1 O25 2.424 . S
Nd1 O26 2.500 . S
Nd1 O27 2.492 . S
Nd1 O28 2.487 . S
Nd1 O29 2.682 1_655 S
Nd1 O30 2.410 1_655 S
C2 Nd0 2.836 . S
C2 C3 1.498 . S
C2 O20 1.258 . S
C2 O21 1.239 . S
C3 C2 1.498 . S
C3 C4 1.366 . S
C3 C8 1.407 . S
C4 C3 1.366 . S
C4 C5 1.392 . S
C4 H32 0.930 . S
C5 C4 1.392 . S
C5 C6 1.398 . S
C5 H33 0.929 1_565 S
C6 C5 1.398 . S
C6 C7 1.352 . S
C7 C6 1.352 . S
C7 C8 1.384 . S
C7 H34 0.930 . S
C8 C3 1.407 . S
C8 C7 1.384 . S
C8 H35 0.929 . S
C9 O22 1.241 . S
C9 O23 1.273 1_455 S
C10 O24 1.251 . S
C10 O25 1.268 . S
C11 Nd1 2.836 . S
C11 C12 1.498 . S
C11 O26 1.258 . S
C11 O27 1.239 . S
C12 C11 1.498 . S
C12 C13 1.366 . S
C12 C17 1.407 . S
C13 C12 1.366 . S
C13 C14 1.392 . S
C13 H36 0.930 . S
C14 C13 1.392 . S
C14 C15 1.398 . S
C14 H37 0.929 . S
C15 C14 1.398 . S
C15 C16 1.352 . S
C16 C15 1.352 . S
C16 C17 1.384 . S
C16 H38 0.930 . S
C17 C12 1.407 . S
C17 C16 1.384 . S
C17 H39 0.929 . S
C18 O28 1.241 . S
C18 O29 1.273 1_655 S
C19 O30 1.251 . S
C19 O31 1.268 . S
O20 Nd0 2.500 . S
O20 C2 1.258 . S
O21 Nd0 2.492 . S
O21 C2 1.239 . S
O22 Nd0 2.487 . S
O22 C9 1.241 . S
O23 Nd0 2.682 1_655 S
O23 Nd1 2.414 . S
O23 C9 1.273 1_655 S
O24 Nd0 2.410 1_655 S
O24 C10 1.251 . S
O25 Nd1 2.424 . S
O25 C10 1.268 . S
O26 Nd1 2.500 . S
O26 C11 1.258 . S
O27 Nd1 2.492 . S
O27 C11 1.239 . S
O28 Nd1 2.487 . S
O28 C18 1.241 . S
O29 Nd0 2.414 . S
O29 Nd1 2.682 1_455 S
O29 C18 1.273 1_455 S
O30 Nd1 2.410 1_455 S
O30 C19 1.251 . S
O31 Nd0 2.424 . S
O31 C19 1.268 . S
H32 C4 0.930 . S
H33 C5 0.929 1_545 S
H34 C7 0.930 . S
H35 C8 0.929 . S
H36 C13 0.930 . S
H37 C14 0.929 . S
H38 C16 0.930 . S
H39 C17 0.929 . S
Nd40 C42 2.836 . S
Nd40 O60 2.500 . S
Nd40 O61 2.492 . S
Nd40 O62 2.487 . S
Nd40 O63 2.682 1_565 S
Nd40 O64 2.410 1_565 S
Nd40 O69 2.414 . S
Nd40 O71 2.424 . S
Nd41 C51 2.836 . S
Nd41 O63 2.414 . S
Nd41 O65 2.424 . S
Nd41 O66 2.500 . S
Nd41 O67 2.492 . S
Nd41 O68 2.487 . S
Nd41 O69 2.682 1_545 S
Nd41 O70 2.410 . S
C42 Nd40 2.836 . S
C42 C43 1.498 . S
C42 O60 1.258 . S
C42 O61 1.239 . S
C43 C42 1.498 . S
C43 C44 1.366 . S
C43 C48 1.407 . S
C44 C43 1.366 . S
C44 C45 1.392 . S
C44 H72 0.930 . S
C45 C44 1.392 . S
C45 C46 1.398 . S
C45 H73 0.929 . S
C46 C45 1.398 . S
C46 C47 1.352 . S
C47 C46 1.352 . S
C47 C48 1.384 . S
C47 H74 0.930 . S
C48 C43 1.407 . S
C48 C47 1.384 . S
C48 H75 0.929 . S
C49 O62 1.241 . S
C49 O63 1.273 1_565 S
C50 O64 1.251 . S
C50 O65 1.268 . S
C51 Nd41 2.836 . S
C51 C52 1.498 . S
C51 O66 1.258 . S
C51 O67 1.239 . S
C52 C51 1.498 . S
C52 C53 1.366 . S
C52 C57 1.407 1_655 S
C53 C52 1.366 . S
C53 C54 1.392 . S
C53 H76 0.930 . S
C54 C53 1.392 . S
C54 C55 1.398 . S
C54 H77 0.929 . S
C55 C54 1.398 . S
C55 C56 1.352 1_655 S
C56 C55 1.352 1_455 S
C56 C57 1.384 . S
C56 H78 0.930 . S
C57 C52 1.407 1_455 S
C57 C56 1.384 . S
C57 H79 0.929 . S
C58 O68 1.241 . S
C58 O69 1.273 1_545 S
C59 O70 1.251 1_565 S
C59 O71 1.268 . S
O60 Nd40 2.500 . S
O60 C42 1.258 . S
O61 Nd40 2.492 . S
O61 C42 1.239 . S
O62 Nd40 2.487 . S
O62 C49 1.241 . S
O63 Nd40 2.682 1_545 S
O63 Nd41 2.414 . S
O63 C49 1.273 1_545 S
O64 Nd40 2.410 1_545 S
O64 C50 1.251 . S
O65 Nd41 2.424 . S
O65 C50 1.268 . S
O66 Nd41 2.500 . S
O66 C51 1.258 . S
O67 Nd41 2.492 . S
O67 C51 1.239 . S
O68 Nd41 2.487 . S
O68 C58 1.241 . S
O69 Nd40 2.414 . S
O69 Nd41 2.682 1_565 S
O69 C58 1.273 1_565 S
O70 Nd41 2.410 . S
O70 C59 1.251 1_545 S
O71 Nd40 2.424 . S
O71 C59 1.268 . S
H72 C44 0.930 . S
H73 C45 0.929 . S
H74 C47 0.930 . S
H75 C48 0.929 . S
H76 C53 0.930 . S
H77 C54 0.929 . S
H78 C56 0.930 . S
H79 C57 0.929 . S
Nd80 C82 2.836 . S
Nd80 O100 2.500 1_655 S
Nd80 O101 2.492 . S
Nd80 O102 2.487 . S
Nd80 O103 2.682 . S
Nd80 O104 2.410 . S
Nd80 O109 2.414 1_565 S
Nd80 O111 2.424 . S
Nd81 C91 2.836 . S
Nd81 O103 2.414 1_545 S
Nd81 O105 2.424 . S
Nd81 O106 2.500 1_545 S
Nd81 O107 2.492 . S
Nd81 O108 2.487 . S
Nd81 O109 2.682 . S
Nd81 O110 2.410 1_545 S
C82 Nd80 2.836 . S
C82 C83 1.498 1_655 S
C82 O100 1.258 1_655 S
C82 O101 1.239 . S
C83 C82 1.498 1_455 S
C83 C84 1.366 . S
C83 C88 1.407 1_455 S
C84 C83 1.366 . S
C84 C85 1.392 . S
C84 H112 0.930 . S
C85 C84 1.392 . S
C85 C86 1.398 . S
C85 H113 0.929 . S
C86 C85 1.398 . S
C86 C87 1.352 . S
C87 C86 1.352 . S
C87 C88 1.384 1_455 S
C87 H114 0.930 1_455 S
C88 C83 1.407 1_655 S
C88 C87 1.384 1_655 S
C88 H115 0.929 . S
C89 O102 1.241 . S
C89 O103 1.273 . S
C90 O104 1.251 . S
C90 O105 1.268 1_565 S
C91 Nd81 2.836 . S
C91 C92 1.498 . S
C91 O106 1.258 1_545 S
C91 O107 1.239 . S
C92 C91 1.498 . S
C92 C93 1.366 1_545 S
C92 C97 1.407 . S
C93 C92 1.366 1_565 S
C93 C94 1.399 . S
C93 H116 0.930 . S
C94 C93 1.399 . S
C94 C95 1.388 1_565 S
C94 H117 0.933 . S
C95 C94 1.388 1_545 S
C95 C96 1.352 . S
C96 C95 1.352 . S
C96 C97 1.384 . S
C96 H118 0.930 . S
C97 C92 1.407 . S
C97 C96 1.384 . S
C97 H119 0.929 . S
C98 O108 1.241 1_455 S
C98 O109 1.273 1_455 S
C99 O110 1.251 . S
C99 O111 1.268 . S
O100 Nd80 2.500 1_455 S
O100 C82 1.258 1_455 S
O101 Nd80 2.492 . S
O101 C82 1.239 . S
O102 Nd80 2.487 . S
O102 C89 1.241 . S
O103 Nd80 2.682 . S
O103 Nd81 2.414 1_565 S
O103 C89 1.273 . S
O104 Nd80 2.410 . S
O104 C90 1.251 . S
O105 Nd81 2.424 . S
O105 C90 1.268 1_545 S
O106 Nd81 2.500 1_565 S
O106 C91 1.258 1_565 S
O107 Nd81 2.492 . S
O107 C91 1.239 . S
O108 Nd81 2.487 . S
O108 C98 1.241 1_655 S
O109 Nd80 2.414 1_545 S
O109 Nd81 2.682 . S
O109 C98 1.273 1_655 S
O110 Nd81 2.410 1_565 S
O110 C99 1.251 . S
O111 Nd80 2.424 . S
O111 C99 1.268 . S
H112 C84 0.930 . S
H113 C85 0.929 . S
H114 C87 0.930 1_655 S
H115 C88 0.929 . S
H116 C93 0.930 . S
H117 C94 0.933 . S
H118 C96 0.930 . S
H119 C97 0.929 . S
H120 C128 0.950 . S
H121 C133 0.950 . S
H122 C130 0.950 . S
H123 C132 0.950 . S
H124 C134 0.950 . S
H125 C136 0.950 . S
H126 C138 0.950 . S
H127 C139 0.950 . S
C128 H120 0.950 . S
C128 C129 1.386 1_445 S
C128 C130 1.391 . S
C129 C128 1.386 1_665 S
C129 C133 1.393 . S
C130 H122 0.950 . S
C130 C128 1.391 . S
C130 C131 1.399 . S
C131 C130 1.399 . S
C131 C132 1.399 1_455 S
C131 C137 1.492 . S
C132 H123 0.950 . S
C132 C131 1.399 1_655 S
C132 C133 1.391 1_545 S
C133 H121 0.950 . S
C133 C129 1.393 . S
C133 C132 1.391 1_565 S
C134 H124 0.950 . S
C134 C135 1.384 1_655 S
C134 C136 1.391 . S
C135 C134 1.384 1_455 S
C135 C139 1.396 . S
C136 H125 0.950 . S
C136 C134 1.391 . S
C136 C137 1.399 1_655 S
C137 C131 1.492 . S
C137 C136 1.399 1_455 S
C137 C138 1.399 . S
C138 H126 0.950 . S
C138 C137 1.399 . S
C138 C139 1.391 . S
C139 H127 0.950 . S
C139 C135 1.396 . S
C139 C138 1.391 . S
H140 C148 0.950 . S
H141 C153 0.950 . S
H142 C150 0.950 . S
H143 C152 0.950 . S
H144 C154 0.950 . S
H145 C156 0.950 . S
H146 C158 0.950 . S
H147 C159 0.950 1_655 S
C148 H140 0.950 . S
C148 C149 1.384 1_565 S
C148 C150 1.391 . S
C149 C148 1.384 1_545 S
C149 C153 1.396 . S
C150 H142 0.950 . S
C150 C148 1.391 . S
C150 C151 1.400 1_565 S
C151 C150 1.400 1_545 S
C151 C152 1.398 . S
C151 C157 1.491 . S
C152 H143 0.950 . S
C152 C151 1.398 . S
C152 C153 1.391 . S
C153 H141 0.950 . S
C153 C149 1.396 . S
C153 C152 1.391 . S
C154 H144 0.950 . S
C154 C155 1.386 . S
C154 C156 1.391 . S
C155 C154 1.386 . S
C155 C159 1.393 1_545 S
C156 H145 0.950 . S
C156 C154 1.391 . S
C156 C157 1.400 . S
C157 C151 1.491 . S
C157 C156 1.400 . S
C157 C158 1.398 1_545 S
C158 H146 0.950 . S
C158 C157 1.398 1_565 S
C158 C159 1.391 . S
C159 H147 0.950 1_455 S
C159 C155 1.393 1_565 S
C159 C158 1.391 . S
H160 C168 0.950 . S
H161 C173 0.950 . S
H162 C170 0.950 . S
H163 C172 0.950 . S
H164 C174 0.950 . S
H165 C176 0.950 . S
H166 C178 0.950 . S
H167 C179 0.950 . S
C168 H160 0.950 . S
C168 C169 1.386 . S
C168 C170 1.391 . S
C169 C168 1.386 . S
C169 C173 1.393 . S
C170 H162 0.950 . S
C170 C168 1.391 . S
C170 C171 1.400 . S
C171 C170 1.400 . S
C171 C172 1.398 . S
C171 C177 1.491 . S
C172 H163 0.950 . S
C172 C171 1.398 . S
C172 C173 1.391 . S
C173 H161 0.950 . S
C173 C169 1.393 . S
C173 C172 1.391 . S
C174 H164 0.950 . S
C174 C175 1.386 . S
C174 C176 1.391 . S
C175 C174 1.386 . S
C175 C179 1.393 . S
C176 H165 0.950 . S
C176 C174 1.391 . S
C176 C177 1.400 . S
C177 C171 1.491 . S
C177 C176 1.400 . S
C177 C178 1.398 . S
C178 H166 0.950 . S
C178 C177 1.398 . S
C178 C179 1.391 . S
C179 H167 0.950 . S
C179 C175 1.393 . S
C179 C178 1.391 . S
H180 C188 0.950 . S
H181 C193 0.950 1_565 S
H182 C190 0.950 . S
H183 C192 0.950 . S
H184 C194 0.950 . S
H185 C196 0.950 . S
H186 C198 0.947 1_556 S
H187 C199 0.950 . S
C188 H180 0.950 . S
C188 C189 1.386 . S
C188 C190 1.391 . S
C189 C188 1.386 . S
C189 C193 1.393 . S
C190 H182 0.950 . S
C190 C188 1.391 . S
C190 C191 1.400 . S
C191 C190 1.400 . S
C191 C192 1.398 1_545 S
C191 C197 1.491 . S
C192 H183 0.950 . S
C192 C191 1.398 1_565 S
C192 C193 1.391 1_565 S
C193 H181 0.950 1_545 S
C193 C189 1.393 . S
C193 C192 1.391 1_545 S
C194 H184 0.950 . S
C194 C195 1.386 . S
C194 C196 1.391 1_554 S
C195 C194 1.386 . S
C195 C199 1.393 1_565 S
C196 H185 0.950 . S
C196 C194 1.391 1_556 S
C196 C197 1.400 1_565 S
C197 C191 1.491 . S
C197 C196 1.400 1_545 S
C197 C198 1.375 1_556 S
C198 H186 0.947 1_554 S
C198 C197 1.375 1_554 S
C198 C199 1.418 . S
C199 H187 0.950 . S
C199 C195 1.393 1_545 S
C199 C198 1.418 . S
H200 C208 0.950 . S
H201 C213 0.950 . S
H202 C210 0.950 . S
H203 C212 0.950 . S
H204 C214 0.950 . S
H205 C216 0.950 . S
H206 C218 0.950 . S
H207 C219 0.950 . S
C208 H200 0.950 . S
C208 C209 1.386 . S
C208 C210 1.391 . S
C209 C208 1.386 . S
C209 C213 1.393 . S
C210 H202 0.950 . S
C210 C208 1.391 . S
C210 C211 1.400 . S
C211 C210 1.400 . S
C211 C212 1.398 . S
C211 C217 1.491 . S
C212 H203 0.950 . S
C212 C211 1.398 . S
C212 C213 1.391 . S
C213 H201 0.950 . S
C213 C209 1.393 . S
C213 C212 1.391 . S
C214 H204 0.950 . S
C214 C215 1.386 . S
C214 C216 1.391 . S
C215 C214 1.386 . S
C215 C219 1.393 . S
C216 H205 0.950 . S
C216 C214 1.391 . S
C216 C217 1.400 . S
C217 C211 1.491 . S
C217 C216 1.400 . S
C217 C218 1.398 . S
C218 H206 0.950 . S
C218 C217 1.398 . S
C218 C219 1.391 . S
C219 H207 0.950 . S
C219 C215 1.393 . S
C219 C218 1.391 . S
H220 C228 0.950 . S
H221 C233 0.950 . S
H222 C230 0.950 . S
H223 C232 0.950 . S
H224 C234 0.950 1_545 S
H225 C236 0.950 1_545 S
H226 C238 0.950 . S
H227 C239 0.950 . S
C228 H220 0.950 . S
C228 C229 1.386 . S
C228 C230 1.391 . S
C229 C228 1.386 . S
C229 C233 1.393 1_565 S
C230 H222 0.950 . S
C230 C228 1.391 . S
C230 C231 1.400 . S
C231 C230 1.400 . S
C231 C232 1.398 1_565 S
C231 C237 1.491 . S
C232 H223 0.950 . S
C232 C231 1.398 1_545 S
C232 C233 1.391 . S
C233 H221 0.950 . S
C233 C229 1.393 1_545 S
C233 C232 1.391 . S
C234 H224 0.950 1_565 S
C234 C235 1.386 . S
C234 C236 1.391 . S
C235 C234 1.386 . S
C235 C239 1.393 . S
C236 H225 0.950 1_565 S
C236 C234 1.391 . S
C236 C237 1.400 . S
C237 C231 1.491 . S
C237 C236 1.400 . S
C237 C238 1.398 . S
C238 H226 0.950 . S
C238 C237 1.398 . S
C238 C239 1.391 . S
C239 H227 0.950 . S
C239 C235 1.393 . S
C239 C238 1.391 . S
H240 C248 0.950 . S
H241 C253 0.950 . S
H242 C250 0.950 . S
H243 C252 0.950 . S
H244 C254 0.950 . S
H245 C256 0.950 . S
H246 C258 0.950 . S
H247 C259 0.950 . S
C248 H240 0.950 . S
C248 C249 1.386 . S
C248 C250 1.391 . S
C249 C248 1.386 . S
C249 C253 1.393 . S
C250 H242 0.950 . S
C250 C248 1.391 . S
C250 C251 1.400 . S
C251 C250 1.400 . S
C251 C252 1.398 . S
C251 C257 1.491 1_556 S
C252 H243 0.950 . S
C252 C251 1.398 . S
C252 C253 1.391 . S
C253 H241 0.950 . S
C253 C249 1.393 . S
C253 C252 1.391 . S
C254 H244 0.950 . S
C254 C255 1.386 . S
C254 C256 1.391 . S
C255 C254 1.386 . S
C255 C259 1.393 . S
C256 H245 0.950 . S
C256 C254 1.391 . S
C256 C257 1.400 . S
C257 C251 1.491 1_554 S
C257 C256 1.400 . S
C257 C258 1.398 . S
C258 H246 0.950 . S
C258 C257 1.398 . S
C258 C259 1.391 . S
C259 H247 0.950 . S
C259 C255 1.393 . S
C259 C258 1.391 . S
H260 C268 0.950 . S
H261 C273 0.950 . S
H262 C270 0.950 . S
H263 C272 0.950 . S
H264 C274 0.950 . S
H265 C276 0.950 . S
H266 C278 0.950 . S
H267 C279 0.950 . S
C268 H260 0.950 . S
C268 C269 1.386 . S
C268 C270 1.391 . S
C269 C268 1.386 . S
C269 C273 1.393 . S
C270 H262 0.950 . S
C270 C268 1.391 . S
C270 C271 1.400 . S
C271 C270 1.400 . S
C271 C272 1.398 . S
C271 C277 1.491 . S
C272 H263 0.950 . S
C272 C271 1.398 . S
C272 C273 1.391 . S
C273 H261 0.950 . S
C273 C269 1.393 . S
C273 C272 1.391 . S
C274 H264 0.950 . S
C274 C275 1.386 . S
C274 C276 1.391 . S
C275 C274 1.386 . S
C275 C279 1.393 . S
C276 H265 0.950 . S
C276 C274 1.391 . S
C276 C277 1.400 . S
C277 C271 1.491 . S
C277 C276 1.400 . S
C277 C278 1.398 . S
C278 H266 0.950 . S
C278 C277 1.398 . S
C278 C279 1.391 . S
C279 H267 0.950 . S
C279 C275 1.393 . S
C279 C278 1.391 . S
H280 C288 0.950 . S
H281 C293 0.950 . S
H282 C290 0.950 . S
H283 C292 0.950 . S
H284 C294 0.950 . S
H285 C296 0.950 . S
H286 C298 0.950 . S
H287 C299 0.950 . S
C288 H280 0.950 . S
C288 C289 1.386 . S
C288 C290 1.391 . S
C289 C288 1.386 . S
C289 C293 1.393 1_455 S
C290 H282 0.950 . S
C290 C288 1.391 . S
C290 C291 1.400 . S
C291 C290 1.400 . S
C291 C292 1.398 1_455 S
C291 C297 1.491 . S
C292 H283 0.950 . S
C292 C291 1.398 1_655 S
C292 C293 1.391 . S
C293 H281 0.950 . S
C293 C289 1.393 1_655 S
C293 C292 1.391 . S
C294 H284 0.950 . S
C294 C295 1.386 1_655 S
C294 C296 1.391 . S
C295 C294 1.386 1_455 S
C295 C299 1.393 . S
C296 H285 0.950 . S
C296 C294 1.391 . S
C296 C297 1.400 1_655 S
C297 C291 1.491 . S
C297 C296 1.400 1_455 S
C297 C298 1.398 . S
C298 H286 0.950 . S
C298 C297 1.398 . S
C298 C299 1.391 . S
C299 H287 0.950 . S
C299 C295 1.393 . S
C299 C298 1.391 . S
C129 C18 1.526 . S
C135 C9 1.525 . S
C149 C49 1.609 1_545 S
C155 C58 1.611 1_455 S
C169 C98 1.309 . S
C175 C89 1.309 . S
C189 C95 1.002 . S
C195 C6 0.998 . S
C209 C50 2.006 . S
C215 C15 1.961 . S
C229 C90 2.465 . S
C235 C59 2.467 . S
C249 C99 2.350 . S
C255 C10 2.306 . S
C269 C19 1.655 . S
C275 C46 1.574 . S
C289 C86 0.948 . S
C295 C55 0.959 1_455 S
