# Generated by pormake.
# Topology wkd, (5)-cn, num edge types: 1
# Building blocks:
#     Node 0, Type 0, BuildingBlock: XOMCOT_clean_sbu_1, # of connection points: 5
#     Node 1, Type 0, BuildingBlock: XOMCOT_clean_sbu_1, # of connection points: 5
#     Node 2, Type 0, BuildingBlock: XOMCOT_clean_sbu_1, # of connection points: 5
#     Node 3, Type 0, BuildingBlock: XOMCOT_clean_sbu_1, # of connection points: 5
#     Node 4, Type 0, BuildingBlock: XOMCOT_clean_sbu_1, # of connection points: 5
#     Node 5, Type 0, BuildingBlock: XOMCOT_clean_sbu_1, # of connection points: 5
#     Node 6, Type 0, BuildingBlock: XOMCOT_clean_sbu_1, # of connection points: 5
#     Node 7, Type 0, BuildingBlock: XOMCOT_clean_sbu_1, # of connection points: 5
#     Node 8, Type 0, BuildingBlock: XOMCOT_clean_sbu_1, # of connection points: 5
#     Node 9, Type 0, BuildingBlock: XOMCOT_clean_sbu_1, # of connection points: 5
#     Node 10, Type 0, BuildingBlock: XOMCOT_clean_sbu_1, # of connection points: 5
#     Node 11, Type 0, BuildingBlock: XOMCOT_clean_sbu_1, # of connection points: 5
#     Edge 12, Type (0, 0), BuildingBlock: MIFKUJ_clean_linker_0, # of connection points: 2
#     Edge 13, Type (0, 0), BuildingBlock: MIFKUJ_clean_linker_0, # of connection points: 2
#     Edge 14, Type (0, 0), BuildingBlock: MIFKUJ_clean_linker_0, # of connection points: 2
#     Edge 15, Type (0, 0), BuildingBlock: MIFKUJ_clean_linker_0, # of connection points: 2
#     Edge 16, Type (0, 0), BuildingBlock: MIFKUJ_clean_linker_0, # of connection points: 2
#     Edge 17, Type (0, 0), BuildingBlock: MIFKUJ_clean_linker_0, # of connection points: 2
#     Edge 18, Type (0, 0), BuildingBlock: MIFKUJ_clean_linker_0, # of connection points: 2
#     Edge 19, Type (0, 0), BuildingBlock: MIFKUJ_clean_linker_0, # of connection points: 2
#     Edge 20, Type (0, 0), BuildingBlock: MIFKUJ_clean_linker_0, # of connection points: 2
#     Edge 21, Type (0, 0), BuildingBlock: MIFKUJ_clean_linker_0, # of connection points: 2
#     Edge 22, Type (0, 0), BuildingBlock: MIFKUJ_clean_linker_0, # of connection points: 2
#     Edge 23, Type (0, 0), BuildingBlock: MIFKUJ_clean_linker_0, # of connection points: 2
#     Edge 24, Type (0, 0), BuildingBlock: MIFKUJ_clean_linker_0, # of connection points: 2
#     Edge 25, Type (0, 0), BuildingBlock: MIFKUJ_clean_linker_0, # of connection points: 2
#     Edge 26, Type (0, 0), BuildingBlock: MIFKUJ_clean_linker_0, # of connection points: 2
#     Edge 27, Type (0, 0), BuildingBlock: MIFKUJ_clean_linker_0, # of connection points: 2
#     Edge 28, Type (0, 0), BuildingBlock: MIFKUJ_clean_linker_0, # of connection points: 2
#     Edge 29, Type (0, 0), BuildingBlock: MIFKUJ_clean_linker_0, # of connection points: 2
#     Edge 30, Type (0, 0), BuildingBlock: MIFKUJ_clean_linker_0, # of connection points: 2
#     Edge 31, Type (0, 0), BuildingBlock: MIFKUJ_clean_linker_0, # of connection points: 2
#     Edge 32, Type (0, 0), BuildingBlock: MIFKUJ_clean_linker_0, # of connection points: 2
#     Edge 33, Type (0, 0), BuildingBlock: MIFKUJ_clean_linker_0, # of connection points: 2
#     Edge 34, Type (0, 0), BuildingBlock: MIFKUJ_clean_linker_0, # of connection points: 2
#     Edge 35, Type (0, 0), BuildingBlock: MIFKUJ_clean_linker_0, # of connection points: 2
#     Edge 36, Type (0, 0), BuildingBlock: MIFKUJ_clean_linker_0, # of connection points: 2
#     Edge 37, Type (0, 0), BuildingBlock: MIFKUJ_clean_linker_0, # of connection points: 2
#     Edge 38, Type (0, 0), BuildingBlock: MIFKUJ_clean_linker_0, # of connection points: 2
#     Edge 39, Type (0, 0), BuildingBlock: MIFKUJ_clean_linker_0, # of connection points: 2
#     Edge 40, Type (0, 0), BuildingBlock: MIFKUJ_clean_linker_0, # of connection points: 2
#     Edge 41, Type (0, 0), BuildingBlock: MIFKUJ_clean_linker_0, # of connection points: 2
# Relax obj value: 0.110
# Max RMSD: 0.173
# Mean RMSD: 0.173
data_MOF--net-wkd--node1-XOMCOT_clean_sbu_1--edge1-MIFKUJ_clean_linker_0
_symmetry_space_group_name_H-M    P1
_symmetry_Int_Tables_number       1
_symmetry_cell_setting            triclinic
loop_
_symmetry_equiv_pos_as_xyz
'x, y, z'
_cell_length_a     32.253113
_cell_length_b     32.232439
_cell_length_c     140.15028
_cell_angle_alpha  89.980936
_cell_angle_beta   90.075844
_cell_angle_gamma 120.10245
loop_
_atom_site_label
_atom_site_type_symbol
_atom_site_fract_x
_atom_site_fract_y
_atom_site_fract_z
_atom_type_partial_charge
C0 C 0.10282 0.29902 0.06313 0.0
C1 C 0.10896 0.27356 0.07029 0.0
N2 N 0.06559 0.2379 0.07305 0.0
N3 N 0.05576 0.27938 0.06113 0.0
C4 C 0.03383 0.24331 0.06758 0.0
H5 H 0.13132 0.32942 0.05945 0.0
Co6 Co 0.03171 0.30214 0.05125 0.0
C7 C 0.98183 0.19377 0.04665 0.0
O8 O 1.00946 0.18505 0.05217 0.0
N9 N 1.00838 0.32524 0.04152 0.0
C10 C 0.98556 0.33431 0.02709 0.0
C11 C 1.00268 0.31036 0.03237 0.0
C12 C 0.99476 0.35878 0.0416 0.0
N13 N 0.98024 0.36471 0.03287 0.0
O14 O 0.98343 0.29992 0.05987 0.0
H15 H 1.01145 0.28434 0.02965 0.0
H16 H 0.99537 0.37829 0.04792 0.0
O17 O 0.98807 0.2363 0.04615 0.0
C18 C 1.00397 0.33537 0.06566 0.0
O19 O 0.05082 0.36257 0.06526 0.0
N20 N 0.08254 0.31137 0.04315 0.0
C21 C 0.16687 0.34291 0.0326 0.0
C22 C 0.13533 0.29373 0.03416 0.0
C23 C 0.09328 0.27864 0.03947 0.0
C24 C 0.11258 0.35911 0.04164 0.0
C25 C 0.15437 0.37557 0.03631 0.0
H26 H 0.07057 0.24098 0.04075 0.0
H27 H 0.10414 0.3848 0.0447 0.0
H28 H 0.99534 0.22024 0.06798 0.0
H29 H 0.14315 0.27965 0.07291 0.0
H30 H 0.97875 0.33033 0.01949 0.0
H31 H 0.14361 0.26711 0.03155 0.0
H32 H 0.1767 0.41378 0.03516 0.0
C33 C 0.76864 0.04049 0.23561 0.0
C34 C 0.80106 0.03706 0.2414 0.0
N35 N 0.82919 0.02689 0.23596 0.0
N36 N 0.77548 0.03204 0.2265 0.0
C37 C 0.81322 0.02439 0.22689 0.0
H38 H 0.74205 0.04933 0.23791 0.0
Co39 Co 0.73752 0.03454 0.21662 0.0
C40 C 0.74574 0.98101 0.19993 0.0
O41 O 0.7361 1.00765 0.1943 0.0
N42 N 0.69737 0.03793 0.20689 0.0
C43 C 0.66358 0.06497 0.19662 0.0
C44 C 0.70379 0.07661 0.2019 0.0
C45 C 0.65252 1.00302 0.20437 0.0
N46 N 0.63091 0.01863 0.19819 0.0
O47 O 0.68062 0.98398 0.22286 0.0
H48 H 0.73485 0.11194 0.20215 0.0
H49 H 0.63568 0.96695 0.20717 0.0
O50 O 0.747 0.98735 0.20901 0.0
C51 C 0.6576 1.00182 0.22695 0.0
O52 O 0.67424 0.04818 0.22626 0.0
N53 N 0.79256 0.08773 0.21143 0.0
C54 C 0.86004 0.17547 0.20343 0.0
C55 C 0.85896 0.13271 0.20088 0.0
C56 C 0.82532 0.08918 0.20507 0.0
C57 C 0.7975 0.1294 0.21494 0.0
C58 C 0.83019 0.17353 0.21092 0.0
H59 H 0.82559 0.05715 0.20303 0.0
H60 H 0.77278 0.12791 0.22032 0.0
H61 H 0.82855 0.01709 0.2207 0.0
H62 H 0.8045 0.04287 0.24904 0.0
H63 H 0.65834 0.08978 0.1923 0.0
H64 H 0.88306 0.1326 0.19553 0.0
H65 H 0.82952 0.20517 0.21326 0.0
C66 C 0.71751 0.80571 0.39826 0.0
C67 C 0.74644 0.8405 0.40467 0.0
N68 N 0.7879 0.84024 0.4055 0.0
N69 N 0.74044 0.78349 0.39483 0.0
C70 C 0.78245 0.80395 0.39977 0.0
H71 H 0.68199 0.79774 0.39626 0.0
Co72 Co 0.71688 0.73516 0.38513 0.0
C73 C 0.81985 0.79979 0.37926 0.0
O74 O 0.8173 0.83788 0.38165 0.0
N75 N 0.69348 0.68735 0.37571 0.0
C76 C 0.68731 0.64945 0.36209 0.0
C77 C 0.71416 0.69081 0.36715 0.0
C78 C 0.65354 0.64336 0.37562 0.0
N79 N 0.64921 0.61933 0.3674 0.0
O80 O 0.71971 0.69061 0.39408 0.0
H81 H 0.74651 0.72165 0.36462 0.0
H82 H 0.62845 0.62913 0.38149 0.0
O83 O 0.78319 0.7579 0.38044 0.0
C84 C 0.68305 0.67511 0.39953 0.0
O85 O 0.65466 0.69305 0.39845 0.0
N86 N 0.70644 0.77491 0.37663 0.0
C87 C 0.67001 0.82108 0.36532 0.0
C88 C 0.71425 0.82482 0.36315 0.0
C89 C 0.73166 0.80098 0.36884 0.0
C90 C 0.66208 0.76855 0.37838 0.0
C91 C 0.64366 0.79195 0.37299 0.0
H92 H 0.76434 0.80248 0.36666 0.0
H93 H 0.64046 0.74453 0.38401 0.0
H94 H 0.80973 0.79419 0.39878 0.0
H95 H 0.73764 0.86462 0.40834 0.0
H96 H 0.69485 0.64257 0.35492 0.0
H97 H 0.73512 0.84581 0.35711 0.0
H98 H 0.60843 0.78629 0.37468 0.0
C99 C 0.97553 0.72963 0.56915 0.0
C100 C 0.97823 0.76397 0.57531 0.0
N101 N 0.99105 0.80441 0.57034 0.0
N102 N 0.98687 0.74802 0.56028 0.0
C103 C 0.99573 0.79366 0.56119 0.0
H104 H 0.96544 0.69322 0.57101 0.0
Co105 Co 0.98712 0.71164 0.54989 0.0
C106 C 0.07995 0.78987 0.54137 0.0
O107 O 0.10521 0.76954 0.54357 0.0
N108 N 0.98612 0.6729 0.53963 0.0
C109 C 0.95537 0.60803 0.53035 0.0
C110 C 0.94537 0.63774 0.53563 0.0
C111 C 0.02057 0.66363 0.53658 0.0
N112 N 1.00258 0.62414 0.53101 0.0
O113 O 0.03384 0.7005 0.55648 0.0
H114 H 0.90975 0.63125 0.5371 0.0
H115 H 0.05694 0.68189 0.53922 0.0
O116 O 0.03584 0.76987 0.54368 0.0
C117 C 0.01449 0.65719 0.55944 0.0
O118 O 0.96863 0.62819 0.55779 0.0
N119 N 0.93875 0.71856 0.54387 0.0
C120 C 0.85624 0.69647 0.53344 0.0
C121 C 0.90204 0.72682 0.52962 0.0
C122 C 0.94295 0.73723 0.53492 0.0
C123 C 0.89492 0.69319 0.54806 0.0
C124 C 0.85318 0.68162 0.54297 0.0
H125 H 0.97744 0.75651 0.53147 0.0
H126 H 0.89201 0.67774 0.55505 0.0
H127 H 1.00559 0.81849 0.55529 0.0
H128 H 0.97027 0.7591 0.58286 0.0
H129 H 0.92948 0.57526 0.52681 0.0
H130 H 0.90634 0.74003 0.52237 0.0
H131 H 0.81892 0.65778 0.54625 0.0
C132 C 0.23265 0.93463 0.73473 0.0
C133 C 0.19908 0.93203 0.74112 0.0
N134 N 0.1892 0.96693 0.73902 0.0
N135 N 0.24441 0.9713 0.72865 0.0
C136 C 0.21711 0.99027 0.73142 0.0
H137 H 0.24744 0.91106 0.7345 0.0
Co138 Co 0.29053 0.98951 0.7189 0.0
C139 C 0.24015 0.02447 0.70543 0.0
O140 O 0.22021 0.98395 0.70071 0.0
N141 N 0.33812 0.00939 0.70918 0.0
C142 C 0.37418 0.02904 0.69502 0.0
C143 C 0.33194 0.01345 0.69975 0.0
C144 C 0.38506 0.02214 0.70991 0.0
N145 N 0.40773 0.03469 0.70139 0.0
O146 O 0.33598 0.0426 0.72674 0.0
H147 H 0.29872 1.0038 0.69627 0.0
H148 H 0.40239 0.02226 0.71653 0.0
O149 O 0.267 0.03045 0.71271 0.0
C150 C 0.35374 0.02508 0.73258 0.0
O151 O 0.33875 0.97898 0.73209 0.0
N152 N 0.24833 0.93244 0.71193 0.0
C153 C 0.19524 0.84801 0.70143 0.0
C154 C 0.17201 0.86812 0.70646 0.0
C155 C 0.19923 0.90995 0.71186 0.0
C156 C 0.27018 0.9094 0.70807 0.0
C157 C 0.24473 0.8683 0.70256 0.0
H158 H 0.18093 0.92563 0.71553 0.0
H159 H 0.30792 0.9228 0.70919 0.0
H160 H 0.21795 0.02084 0.72803 0.0
H161 H 0.18249 0.90589 0.74677 0.0
H162 H 0.37945 0.03427 0.68739 0.0
H163 H 0.1335 0.8525 0.70603 0.0
H164 H 0.26367 0.8522 0.69927 0.0
C165 C 0.28772 0.24459 0.90229 0.0
C166 C 0.25221 0.21221 0.90814 0.0
N167 N 0.21133 0.1893 0.90308 0.0
N168 N 0.26964 0.24303 0.89353 0.0
C169 C 0.22284 0.20827 0.89418 0.0
H170 H 0.32475 0.26732 0.90431 0.0
Co171 Co 0.30823 0.28267 0.88361 0.0
C172 C 0.24272 0.27024 0.86728 0.0
O173 O 0.27803 0.28083 0.86134 0.0
N174 N 0.34995 0.3242 0.87374 0.0
C175 C 0.4022 0.35435 0.8617 0.0
C176 C 0.37471 0.31453 0.86715 0.0
C177 C 0.36391 0.37102 0.87207 0.0
N178 N 0.39563 0.39 0.86481 0.0
O179 O 0.31161 0.33762 0.89003 0.0
H180 H 0.37303 0.28063 0.86609 0.0
H181 H 0.35103 0.39103 0.87604 0.0
O182 O 0.24984 0.27023 0.8763 0.0
C183 C 0.34983 0.35761 0.89507 0.0
O184 O 0.37915 0.34049 0.89464 0.0
N185 N 0.30922 0.22956 0.8783 0.0
C186 C 0.33503 0.16696 0.87 0.0
C187 C 0.2912 0.16414 0.86769 0.0
C188 C 0.27849 0.19536 0.87205 0.0
C189 C 0.34885 0.22891 0.88145 0.0
C190 C 0.36288 0.19861 0.8773 0.0
H191 H 0.24472 0.19241 0.87019 0.0
H192 H 0.37192 0.25509 0.88667 0.0
H193 H 0.19776 0.19718 0.88829 0.0
H194 H 0.25642 0.20513 0.91553 0.0
H195 H 0.42607 0.35713 0.856 0.0
H196 H 0.26744 0.13882 0.86241 0.0
H197 H 0.39694 0.20245 0.8794 0.0
C198 C 0.72079 0.94602 0.78886 0.0
C199 C 0.75241 0.94377 0.7826 0.0
N200 N 0.7973 0.97449 0.78558 0.0
N201 N 0.74536 0.97849 0.79573 0.0
C202 C 0.7921 0.99498 0.79358 0.0
H203 H 0.68217 0.9247 0.78847 0.0
Co204 Co 0.71639 0.99331 0.80582 0.0
C205 C 0.79823 0.07666 0.81497 0.0
O206 O 0.77514 0.10039 0.81406 0.0
N207 N 0.6872 1.00749 0.81603 0.0
C208 C 0.67054 0.01862 0.83087 0.0
C209 C 0.69827 1.00722 0.82531 0.0
C210 C 0.65213 0.01904 0.81616 0.0
N211 N 0.64154 0.02638 0.82514 0.0
O212 O 0.7191 0.04538 0.79829 0.0
H213 H 0.72523 0.99957 0.82794 0.0
H214 H 0.6351 0.02262 0.80982 0.0
O215 O 0.77939 0.03397 0.81171 0.0
C216 C 0.6812 0.02559 0.79313 0.0
O217 O 0.65108 0.97961 0.79435 0.0
N218 N 0.70746 0.93903 0.81238 0.0
C219 C 0.67373 0.8515 0.82171 0.0
C220 C 0.72112 0.88896 0.82311 0.0
C221 C 0.7377 0.93263 0.81824 0.0
C222 C 0.66186 0.90279 0.81085 0.0
C223 C 0.64433 0.85883 0.8154 0.0
H224 H 0.77403 0.96136 0.81937 0.0
H225 H 0.63849 0.90859 0.8062 0.0
H226 H 0.82185 0.02166 0.79773 0.0
H227 H 0.74307 0.92038 0.77646 0.0
H228 H 0.67149 0.02045 0.83858 0.0
H229 H 0.74493 0.88451 0.82792 0.0
H230 H 0.60742 0.83124 0.8142 0.0
C231 C 0.80627 0.71629 0.95995 0.0
C232 C 0.84264 0.74632 0.95391 0.0
N233 N 0.84509 0.78929 0.95385 0.0
N234 N 0.7857 0.74009 0.9637 0.0
C235 C 0.81028 0.78465 0.95988 0.0
H236 H 0.79431 0.67887 0.96124 0.0
Co237 Co 0.72939 0.71219 0.97098 0.0
C238 C 0.74913 0.77953 0.98682 0.0
O239 O 0.72905 0.74108 0.99224 0.0
N240 N 0.6708 0.68428 0.97792 0.0
C241 C 0.60337 0.67969 0.98314 0.0
C242 C 0.64733 0.70879 0.97917 0.0
C243 C 0.63898 0.6393 0.98099 0.0
N244 N 0.59776 0.63571 0.98425 0.0
O245 O 0.69693 0.7262 0.96097 0.0
H246 H 0.66073 0.74554 0.97699 0.0
H247 H 0.64416 0.60889 0.98037 0.0
O248 O 0.75178 0.77462 0.97777 0.0
C249 C 0.68224 0.68973 0.95549 0.0
O250 O 0.69516 0.658 0.95752 0.0
N251 N 0.75957 0.69201 0.97999 0.0
C252 C 0.80353 0.65036 0.99049 0.0
C253 C 0.82316 0.7004 0.99032 0.0
C254 C 0.80122 0.72061 0.98485 0.0
C255 C 0.74165 0.64375 0.97973 0.0
C256 C 0.76199 0.62213 0.9851 0.0
H257 H 0.81883 0.75917 0.98423 0.0
H258 H 0.71281 0.62192 0.97489 0.0
H259 H 0.80116 0.81228 0.96109 0.0
H260 H 0.86501 0.73701 0.94973 0.0
H261 H 0.57729 0.69017 0.98493 0.0
H262 H 0.85632 0.72387 0.99402 0.0
H263 H 0.74568 0.58349 0.98483 0.0
C264 C 0.10342 0.81613 0.13056 0.0
C265 C 0.11192 0.85742 0.12597 0.0
N266 N 0.07002 0.85685 0.12501 0.0
N267 N 0.05637 0.7895 0.1326 0.0
C268 C 0.03683 0.81502 0.12905 0.0
H269 H 0.12987 0.806 0.13225 0.0
Co270 Co 0.02626 0.72949 0.13875 0.0
C271 C 0.96674 0.73877 0.15366 0.0
O272 O 0.98108 0.71593 0.15933 0.0
N273 N 0.99384 0.66766 0.14464 0.0
C274 C 0.92989 0.59681 0.14808 0.0
C275 C 0.9456 0.64066 0.14395 0.0
C276 C 1.00653 0.63834 0.14919 0.0
N277 N 0.96812 0.59521 0.15143 0.0
O278 O 0.98589 0.70063 0.1277 0.0
H279 H 0.92291 0.65208 0.14053 0.0
H280 H 0.04283 0.64776 0.15088 0.0
O281 O 0.98108 0.74642 0.14495 0.0
C282 C 1.01108 0.69053 0.12216 0.0
O283 O 0.05619 0.70684 0.12446 0.0
N284 N 0.0711 0.75661 0.14882 0.0
C285 C 0.15248 0.80001 0.16048 0.0
C286 C 0.12082 0.81794 0.16012 0.0
C287 C 0.08027 0.79582 0.15418 0.0
C288 C 0.10312 0.74077 0.14875 0.0
C289 C 0.14305 0.76079 0.15474 0.0
H290 H 0.05795 0.81185 0.15351 0.0
H291 H 0.099 0.7139 0.14363 0.0
H292 H 0.99901 0.80323 0.12948 0.0
H293 H 0.14629 0.88527 0.12336 0.0
H294 H 0.89305 0.56791 0.14839 0.0
H295 H 0.12797 0.84936 0.16421 0.0
H296 H 0.16785 0.74739 0.15447 0.0
C297 C 0.3096 0.08775 0.28996 0.0
C298 C 0.28142 0.09257 0.28316 0.0
N299 N 0.23581 0.05673 0.28429 0.0
N300 N 0.28209 0.04909 0.29541 0.0
C301 C 0.23732 0.03079 0.29176 0.0
H302 H 0.34775 0.11112 0.29092 0.0
Co303 Co 0.3048 0.02719 0.30547 0.0
C304 C 0.21411 0.99352 0.31729 0.0
O305 O 0.23461 0.03116 0.32287 0.0
N306 N 0.32768 1.00367 0.31546 0.0
C307 C 0.33887 0.97797 0.32947 0.0
C308 C 0.31096 0.99142 0.32447 0.0
C309 C 0.3661 0.99709 0.31523 0.0
N310 N 0.37378 0.98169 0.32368 0.0
O311 O 0.29703 0.97491 0.29744 0.0
H312 H 0.28108 0.99282 0.32746 0.0
H313 H 0.38924 1.00529 0.30911 0.0
O314 O 0.23792 0.98773 0.31059 0.0
C315 C 0.33503 0.99095 0.29239 0.0
O316 O 0.36878 0.03591 0.29346 0.0
N317 N 0.31963 0.08343 0.31273 0.0
C318 C 0.35554 0.17232 0.32195 0.0
C319 C 0.31091 0.15091 0.31733 0.0
C320 C 0.29428 0.10715 0.31251 0.0
C321 C 0.36413 0.1054 0.31682 0.0
C322 C 0.38218 0.14897 0.3216 0.0
H323 H 0.26059 0.09201 0.30871 0.0
H324 H 0.38712 0.09022 0.31615 0.0
H325 H 0.20648 0.99869 0.29444 0.0
H326 H 0.29356 0.1209 0.27791 0.0
H327 H 0.33372 0.96634 0.33683 0.0
H328 H 0.28979 0.16849 0.31719 0.0
H329 H 0.41727 0.16461 0.32489 0.0
C330 C 0.21301 0.29608 0.46162 0.0
C331 C 0.17935 0.26828 0.45491 0.0
N332 N 0.18685 0.23229 0.45231 0.0
N333 N 0.24156 0.27763 0.46347 0.0
C334 C 0.22587 0.23984 0.45739 0.0
H335 H 0.21539 0.32704 0.46514 0.0
Co336 Co 0.29115 0.30113 0.47277 0.0
C337 C 0.22706 0.19524 0.47841 0.0
O338 O 0.18928 0.19042 0.47387 0.0
N339 N 0.3404 0.32463 0.48193 0.0
C340 C 0.37678 0.33562 0.49593 0.0
C341 C 0.33458 0.30942 0.49105 0.0
C342 C 0.38656 0.36072 0.48146 0.0
N343 N 0.40967 0.36796 0.48992 0.0
O344 O 0.33291 0.29398 0.46379 0.0
H345 H 0.30112 0.28222 0.49409 0.0
H346 H 0.40268 0.38155 0.47508 0.0
O347 O 0.26652 0.23557 0.47832 0.0
C348 C 0.34776 0.32961 0.45806 0.0
O349 O 0.33056 0.3587 0.45904 0.0
N350 N 0.25464 0.31632 0.4811 0.0
C351 C 0.21218 0.36061 0.4912 0.0
C352 C 0.19027 0.31022 0.4908 0.0
C353 C 0.2123 0.28868 0.48576 0.0
C354 C 0.27658 0.36502 0.48158 0.0
C355 C 0.25675 0.38772 0.48671 0.0
H356 H 0.19449 0.25023 0.48546 0.0
H357 H 0.30987 0.38666 0.4778 0.0
H358 H 0.24132 0.21682 0.45711 0.0
H359 H 0.15004 0.273 0.45254 0.0
H360 H 0.3822 0.33229 0.50345 0.0
H361 H 0.15577 0.2875 0.4941 0.0
H362 H 0.27636 0.42649 0.48701 0.0
C363 C 0.93889 0.2298 0.62299 0.0
C364 C 0.93626 0.19728 0.61634 0.0
N365 N 0.97186 0.18786 0.61805 0.0
N366 N 0.976 0.24114 0.62892 0.0
C367 C 0.9955 0.21497 0.62574 0.0
H368 H 0.9151 0.24425 0.62353 0.0
Co369 Co 0.99293 0.28593 0.63882 0.0
C370 C 0.02919 0.23625 0.65225 0.0
O371 O 0.98942 0.21584 0.6572 0.0
N372 N 1.01064 0.33242 0.64871 0.0
C373 C 0.022 0.36642 0.66304 0.0
C374 C 0.01254 0.32576 0.6582 0.0
C375 C 0.01933 0.37813 0.64804 0.0
N376 N 0.02603 0.39933 0.65667 0.0
O377 O 0.04664 0.3319 0.6313 0.0
H378 H 1.0049 0.29294 0.6616 0.0
H379 H 0.0184 0.39487 0.64143 0.0
O380 O 0.03388 0.26288 0.64503 0.0
C381 C 0.0312 0.35196 0.62556 0.0
O382 O 0.98566 0.3393 0.62586 0.0
N383 N 0.93574 0.24272 0.64545 0.0
C384 C 0.84672 0.18722 0.65429 0.0
C385 C 0.87149 0.16556 0.65049 0.0
C386 C 0.91529 0.19384 0.64579 0.0
C387 C 0.91001 0.26333 0.64847 0.0
C388 C 0.86628 0.23665 0.65309 0.0
H389 H 0.93339 0.1766 0.64265 0.0
H390 H 0.92298 0.30093 0.64722 0.0
H391 H 0.02671 0.21622 0.62892 0.0
H392 H 0.9096 0.18118 0.61076 0.0
H393 H 0.02488 0.3711 0.67071 0.0
H394 H 0.85673 0.12715 0.65098 0.0
H395 H 0.84794 0.25479 0.6557 0.0
H396 H 0.78196 0.86953 0.97878 0.0
H397 H 0.81541 0.94668 0.98729 0.0
H398 H 0.79995 0.87381 0.01401 0.0
H399 H 0.76568 0.79779 1.00573 0.0
H400 H 0.77089 0.93365 0.01649 0.0
H401 H 0.91069 0.94233 1.00147 0.0
H402 H 0.95842 0.9426 0.98771 0.0
H403 H 0.95668 0.06497 0.97606 0.0
H404 H 0.90839 0.06502 0.98972 0.0
H405 H 0.94456 0.09756 0.04858 0.0
H406 H 0.89913 0.03466 0.03688 0.0
H407 H 0.90142 0.13964 0.01751 0.0
H408 H 0.94614 0.203 0.02934 0.0
H409 H 0.93066 0.07348 1.00933 0.0
H410 H 0.80065 0.07018 0.02634 0.0
H411 H 0.75542 0.06863 0.04064 0.0
H412 H 0.74134 0.93404 0.04905 0.0
H413 H 0.78712 0.93512 0.03487 0.0
C414 C 0.78574 0.87018 0.98647 0.0
C415 C 0.7708 0.82732 0.99155 0.0
C416 C 0.80502 0.91431 0.99133 0.0
C417 C 0.81041 0.91638 1.00134 0.0
C418 C 0.79585 0.87352 1.00633 0.0
C419 C 0.77627 0.8298 1.00154 0.0
C420 C 0.83096 0.96238 1.00684 0.0
C421 C 0.80591 0.96409 0.0149 0.0
C422 C 0.87605 1.00302 1.00468 0.0
C423 C 0.90546 1.00331 0.99655 0.0
C424 C 0.92023 0.96909 0.99594 0.0
C425 C 0.94741 0.96921 0.98817 0.0
C426 C 0.96042 1.00367 0.981 0.0
C427 C 0.94646 0.03822 0.98161 0.0
C428 C 0.91921 0.0382 0.98937 0.0
C429 C 0.93494 0.10735 0.04189 0.0
C430 C 0.94918 0.15549 0.03991 0.0
C431 C 0.909 0.07128 0.03519 0.0
C432 C 0.89705 0.0824 0.02629 0.0
C433 C 0.91045 0.13026 0.02431 0.0
C434 C 0.93575 0.16641 0.03111 0.0
C435 C 0.87125 0.04358 0.01911 0.0
C436 C 0.89526 0.04331 1.01077 0.0
C437 C 0.82545 1.00389 0.02106 0.0
C438 C 0.7976 1.00291 0.02957 0.0
C439 C 0.78822 0.04043 0.03128 0.0
C440 C 0.76243 0.0396 0.03935 0.0
C441 C 0.74558 1.0013 0.04575 0.0
C442 C 0.75442 0.96369 0.04408 0.0
C443 C 0.78023 0.96436 0.03602 0.0
H444 H 0.72562 1.00072 0.052 0.0
H445 H 0.98142 1.00368 0.97498 0.0
H446 H 0.93961 0.79934 0.1453 0.0
H447 H 0.89838 0.83714 0.15295 0.0
H448 H 0.89067 0.76412 0.17926 0.0
H449 H 0.93034 0.72559 0.17165 0.0
H450 H 0.81046 0.76363 0.17704 0.0
H451 H 0.97661 0.88437 0.17521 0.0
H452 H 0.05392 0.93552 0.16719 0.0
H453 H 0.98939 0.99811 0.14994 0.0
H454 H 0.91147 0.9468 0.15778 0.0
H455 H 0.77275 0.9206 0.20854 0.0
H456 H 0.80694 0.87608 0.20071 0.0
H457 H 0.79521 0.9308 0.17339 0.0
H458 H 0.76067 0.97418 0.18101 0.0
H459 H 0.88517 0.9407 0.17632 0.0
H460 H 0.71872 0.81911 0.17857 0.0
H461 H 0.64242 0.76791 0.18692 0.0
H462 H 0.70988 0.70775 0.204 0.0
H463 H 0.78682 0.75915 0.19584 0.0
C464 C 0.92864 0.79097 0.15268 0.0
C465 C 0.9386 0.75953 0.15785 0.0
C466 C 0.90535 0.81288 0.15709 0.0
C467 C 0.89191 0.80417 0.16677 0.0
C468 C 0.90057 0.77165 0.17181 0.0
C469 C 0.92356 0.7497 0.16743 0.0
C470 C 0.86997 0.82953 0.1718 0.0
C471 C 0.82721 0.80241 0.17695 0.0
C472 C 0.89123 0.88015 0.17166 0.0
C473 C 0.9381 0.91139 0.16701 0.0
C474 C 0.97883 0.90881 0.16966 0.0
C475 C 0.02277 0.93786 0.16516 0.0
C476 C 0.02653 0.96995 0.15804 0.0
C477 C 0.9864 0.97317 0.15544 0.0
C478 C 0.94234 0.94414 0.15992 0.0
C479 C 0.77702 0.92271 0.20086 0.0
C480 C 0.76374 0.95101 0.19545 0.0
C481 C 0.79664 0.89731 0.19639 0.0
C482 C 0.80382 0.90019 0.18644 0.0
C483 C 0.79032 0.92815 0.18106 0.0
C484 C 0.77026 0.95283 0.18547 0.0
C485 C 0.82582 0.87477 0.18153 0.0
C486 C 0.86858 0.90193 0.17641 0.0
C487 C 0.80482 0.82428 0.18177 0.0
C488 C 0.75865 0.79338 0.18668 0.0
C489 C 0.7174 0.7953 0.18417 0.0
C490 C 0.67401 0.76617 0.18885 0.0
C491 C 0.67134 0.7347 0.196 0.0
C492 C 0.71203 0.73221 0.19847 0.0
C493 C 0.75553 0.76131 0.19382 0.0
H494 H 0.63771 0.71216 0.19961 0.0
H495 H 0.06057 0.99239 0.15456 0.0
H496 H 0.90758 0.8805 0.37816 0.0
H497 H 0.97195 0.89767 0.36692 0.0
H498 H 0.89209 0.75315 0.3561 0.0
H499 H 0.82743 0.73543 0.36745 0.0
H500 H 0.03099 0.86142 0.36281 0.0
H501 H 0.9065 0.76335 0.33126 0.0
H502 H 0.82249 0.73289 0.32641 0.0
H503 H 0.81841 0.84282 0.34298 0.0
H504 H 0.90259 0.87441 0.34778 0.0
H505 H 0.18651 0.90359 0.32381 0.0
H506 H 0.11431 0.85327 0.33334 0.0
H507 H 0.06237 0.95047 0.32731 0.0
H508 H 0.13453 1.00081 0.31795 0.0
H509 H 0.98749 0.85488 0.32863 0.0
H510 H 0.12865 0.97021 0.34618 0.0
H511 H 0.21313 1.0063 0.35117 0.0
H512 H 0.18435 0.8715 0.363 0.0
H513 H 0.0998 0.83441 0.35792 0.0
C514 C 0.90393 0.85202 0.3735 0.0
C515 C 0.8619 0.80678 0.37361 0.0
C516 C 0.94094 0.86189 0.36709 0.0
C517 C 0.93664 0.82698 0.36055 0.0
C518 C 0.89598 0.78085 0.361 0.0
C519 C 0.85905 0.77074 0.36752 0.0
C520 C 0.973 0.84053 0.35283 0.0
C521 C 0.02132 0.85921 0.35533 0.0
C522 C 0.9607 0.83844 0.34306 0.0
C523 C 0.91061 0.82081 0.33997 0.0
C524 C 0.88771 0.78114 0.33382 0.0
C525 C 0.84008 0.76368 0.33108 0.0
C526 C 0.81508 0.78579 0.33441 0.0
C527 C 0.83776 0.82563 0.34043 0.0
C528 C 0.88543 0.84331 0.34316 0.0
C529 C 0.15855 0.91282 0.32417 0.0
C530 C 0.16558 0.95559 0.32004 0.0
C531 C 0.11756 0.88439 0.32969 0.0
C532 C 0.08304 0.8983 0.33112 0.0
C533 C 0.08826 0.93882 0.32629 0.0
C534 C 0.12941 0.96749 0.32091 0.0
C535 C 0.04539 0.87537 0.33861 0.0
C536 C 0.99694 0.85553 0.33608 0.0
C537 C 0.05759 0.87698 0.34838 0.0
C538 C 0.10812 0.89942 0.35157 0.0
C539 C 0.14044 0.9482 0.34979 0.0
C540 C 0.18831 0.96884 0.35264 0.0
C541 C 0.20414 0.94117 0.35738 0.0
C542 C 0.17206 0.89285 0.35931 0.0
C543 C 0.12417 0.872 0.35645 0.0
H544 H 0.24122 0.95721 0.35958 0.0
H545 H 0.77816 0.77213 0.33231 0.0
H546 H 0.26807 0.19788 0.4958 0.0
H547 H 0.24783 0.13038 0.5065 0.0
H548 H 0.15314 0.03251 0.48503 0.0
H549 H 0.17092 0.10026 0.47466 0.0
H550 H 0.10927 1.00449 0.50009 0.0
H551 H 0.26954 0.04682 0.49218 0.0
H552 H 0.35675 0.09976 0.49025 0.0
H553 H 0.37142 0.12968 0.5203 0.0
H554 H 0.28419 0.07737 0.5224 0.0
H555 H 0.15697 0.82428 0.52925 0.0
H556 H 0.18672 0.89337 0.51851 0.0
H557 H 0.08263 0.92672 0.52994 0.0
H558 H 0.05106 0.85622 0.54021 0.0
H559 H 0.22702 0.98409 0.51931 0.0
H560 H 0.04404 0.97523 0.51387 0.0
H561 H 0.95798 0.9145 0.51429 0.0
H562 H 0.99068 0.80422 0.50743 0.0
H563 H 0.07682 0.86438 0.5068 0.0
C564 C 0.2435 0.16194 0.49333 0.0
C565 C 0.22117 0.15448 0.48437 0.0
C566 C 0.23198 0.1231 0.49945 0.0
C567 C 0.19907 0.0757 0.49663 0.0
C568 C 0.17825 0.06839 0.4875 0.0
C569 C 0.18873 0.10722 0.48152 0.0
C570 C 0.18436 0.03397 0.50326 0.0
C571 C 0.13527 1.0002 0.50425 0.0
C572 C 0.21781 0.02717 0.50865 0.0
C573 C 0.27028 0.05853 0.50743 0.0
C574 C 0.29133 0.06494 0.49837 0.0
C575 C 0.34076 0.09479 0.49724 0.0
C576 C 0.36958 0.11816 0.50514 0.0
C577 C 0.34904 0.1116 0.51419 0.0
C578 C 0.29961 0.08182 0.51535 0.0
C579 C 0.14057 0.84649 0.52949 0.0
C580 C 0.1013 0.83441 0.53553 0.0
C581 C 0.1577 0.88615 0.52335 0.0
C582 C 0.13639 0.91503 0.5232 0.0
C583 C 0.09889 0.90441 0.52964 0.0
C584 C 0.08101 0.86416 0.53559 0.0
C585 C 0.15213 0.9551 0.51613 0.0
C586 C 0.20123 0.9885 0.5151 0.0
C587 C 0.11887 0.9605 0.51039 0.0
C588 C 0.06694 0.92431 0.51038 0.0
C589 C 0.03284 0.93808 0.51238 0.0
C590 C 0.98405 0.90374 0.51267 0.0
C591 C 0.9689 0.85551 0.51092 0.0
C592 C 1.00247 0.84157 0.50881 0.0
C593 C 0.05128 0.87578 0.50848 0.0
H594 H 0.93114 0.82896 0.51119 0.0
H595 H 0.40785 0.14127 0.50426 0.0
H596 H 0.24748 0.04464 0.68673 0.0
H597 H 0.22811 0.09887 0.67844 0.0
H598 H 0.20546 0.14881 0.70543 0.0
H599 H 0.22454 0.09311 0.71387 0.0
H600 H 0.13107 0.12322 0.69371 0.0
H601 H 0.29896 0.22428 0.69041 0.0
H602 H 0.38229 0.2458 0.68693 0.0
H603 H 0.34428 0.20208 0.65779 0.0
H604 H 0.26053 0.17959 0.66111 0.0
H605 H 0.06749 0.272 0.66939 0.0
H606 H 0.11988 0.25339 0.6788 0.0
H607 H 0.13376 0.17746 0.65481 0.0
H608 H 0.08125 0.19672 0.64528 0.0
H609 H 0.21933 0.22716 0.6662 0.0
H610 H 0.0502 0.11626 0.67032 0.0
H611 H 0.96671 0.09439 0.67376 0.0
H612 H 1.00851 0.1572 0.70164 0.0
H613 H 0.09247 0.18019 0.69829 0.0
C614 C 0.23934 0.06787 0.69094 0.0
C615 C 0.2374 0.0646 0.70095 0.0
C616 C 0.22858 0.09923 0.68617 0.0
C617 C 0.2157 0.12846 0.69127 0.0
C618 C 0.21558 0.1268 0.70133 0.0
C619 C 0.22678 0.09532 0.70616 0.0
C620 C 0.1976 0.15632 0.68594 0.0
C621 C 0.151 0.14696 0.68787 0.0
C622 C 0.22288 0.1863 0.6781 0.0
C623 C 0.27332 0.19999 0.67604 0.0
C624 C 0.30826 0.21893 0.68328 0.0
C625 C 0.3556 0.23135 0.68133 0.0
C626 C 0.36856 0.22525 0.67215 0.0
C627 C 0.3342 0.20679 0.66489 0.0
C628 C 0.28679 0.19428 0.6668 0.0
C629 C 0.08311 0.25279 0.66602 0.0
C630 C 0.0707 0.23602 0.65661 0.0
C631 C 0.11279 0.24192 0.67142 0.0
C632 C 0.13011 0.21335 0.66758 0.0
C633 C 0.12078 0.19958 0.65792 0.0
C634 C 0.09104 0.21073 0.65246 0.0
C635 C 0.15293 0.19352 0.67396 0.0
C636 C 0.20004 0.20416 0.67218 0.0
C637 C 0.12823 0.1647 0.68195 0.0
C638 C 0.07769 0.15043 0.68401 0.0
C639 C 0.04165 0.12576 0.67715 0.0
C640 C 0.99424 0.11311 0.67909 0.0
C641 C 0.98234 0.12452 0.68791 0.0
C642 C 0.01781 0.14848 0.69481 0.0
C643 C 0.06531 0.16132 0.6929 0.0
H644 H 0.94561 0.1147 0.6894 0.0
H645 H 0.40523 0.23488 0.67066 0.0
H646 H 0.83428 0.15418 0.82691 0.0
H647 H 0.90546 0.1862 0.83699 0.0
H648 H 0.93583 0.0789 0.82619 0.0
H649 H 0.86322 0.04539 0.81635 0.0
H650 H 0.95349 0.08741 0.84419 0.0
H651 H 0.99875 0.2019 0.81892 0.0
H652 H 0.99213 0.25901 0.8082 0.0
H653 H 0.99946 0.34484 0.83227 0.0
H654 H 1.00552 0.28787 0.84315 0.0
H655 H 0.21114 0.22528 0.85026 0.0
H656 H 0.13186 0.1923 0.84311 0.0
H657 H 0.08328 0.23639 0.86765 0.0
H658 H 0.16306 0.26852 0.87511 0.0
H659 H 0.07304 0.26135 0.84416 0.0
H660 H 0.03052 0.1421 0.86932 0.0
H661 H 0.04466 0.08579 0.87877 0.0
H662 H 0.03922 0.00956 0.85324 0.0
H663 H 0.026 0.06607 0.84362 0.0
C664 C 0.85621 0.13749 0.82662 0.0
C665 C 0.84312 0.09739 0.82073 0.0
C666 C 0.89717 0.15601 0.83239 0.0
C667 C 0.9269 0.13568 0.83229 0.0
C668 C 0.91375 0.09544 0.82643 0.0
C669 C 0.87229 0.07641 0.82075 0.0
C670 C 0.97143 0.15626 0.83828 0.0
C671 C 0.97952 0.12546 0.84413 0.0
C672 C 1.0057 0.20605 0.83837 0.0
C673 C 1.00204 0.24034 0.83185 0.0
C674 C 0.99857 0.23276 0.82193 0.0
C675 C 0.99499 0.26513 0.81583 0.0
C676 C 0.99522 0.30545 0.81956 0.0
C677 C 0.99919 0.31354 0.8294 0.0
C678 C 1.00274 0.28125 0.83553 0.0
C679 C 0.18374 0.22807 0.85419 0.0
C680 C 0.19361 0.24991 0.86325 0.0
C681 C 0.13833 0.20898 0.85008 0.0
C682 C 0.1017 0.21183 0.85483 0.0
C683 C 0.11112 0.2337 0.86388 0.0
C684 C 0.15659 0.25197 0.86813 0.0
C685 C 0.05429 0.19262 0.85007 0.0
C686 C 0.0462 0.22354 0.84435 0.0
C687 C 0.02049 0.14299 0.84997 0.0
C688 C 0.02787 0.10866 0.85574 0.0
C689 C 0.0329 0.11368 0.86571 0.0
C690 C 0.04063 0.08165 0.8711 0.0
C691 C 0.04298 0.04421 0.8666 0.0
C692 C 0.03747 0.03863 0.85671 0.0
C693 C 0.02984 0.07064 0.85129 0.0
H694 H 0.04895 0.01944 0.87078 0.0
H695 H 0.99245 0.33048 0.81482 0.0
H696 H 0.98867 0.14666 0.07327 0.0
H697 H 0.98084 0.07858 0.0826 0.0
H698 H 0.11618 0.17147 0.09627 0.0
H699 H 0.12355 0.23956 0.08729 0.0
H700 H 0.1109 0.0896 0.08804 0.0
H701 H 0.017 0.13071 0.1087 0.0
H702 H 0.95073 0.14531 0.11247 0.0
H703 H 0.84841 1.00167 0.10389 0.0
H704 H 0.91416 0.98643 0.09994 0.0
H705 H 0.13403 0.95194 0.12387 0.0
H706 H 0.12512 0.01285 0.11531 0.0
H707 H 0.98143 0.90645 0.10715 0.0
H708 H 0.99011 0.84502 0.11584 0.0
H709 H 0.9845 0.98906 0.11139 0.0
H710 H 0.07445 0.94499 0.09125 0.0
H711 H 0.1384 0.92803 0.08679 0.0
H712 H 0.24496 0.0736 0.09314 0.0
H713 H 0.18165 0.09128 0.09777 0.0
C714 C 0.01622 0.1529 0.07842 0.0
C715 C 0.05708 0.19881 0.07941 0.0
C716 C 1.0118 0.11379 0.08372 0.0
C717 C 0.04816 0.11975 0.09009 0.0
C718 C 0.08789 0.16579 0.09134 0.0
C719 C 0.09211 0.20478 0.08615 0.0
C720 C 0.04671 0.07805 0.09507 0.0
C721 C 0.08351 0.06795 0.09322 0.0
C722 C 1.00999 0.0485 0.10155 0.0
C723 C 0.9705 0.05763 0.10392 0.0
C724 C 0.98038 0.10239 0.10753 0.0
C725 C 0.94292 0.11074 0.10972 0.0
C726 C 0.89539 0.07449 0.10839 0.0
C727 C 0.88524 0.02975 0.10489 0.0
C728 C 0.92259 0.02123 0.10269 0.0
C729 C 0.10054 0.94129 0.12023 0.0
C730 C 0.06306 0.89328 0.12045 0.0
C731 C 0.09544 0.97629 0.11533 0.0
C732 C 0.05296 0.96429 0.11037 0.0
C733 C 0.01468 0.91673 0.11086 0.0
C734 C 0.01967 0.88159 0.11585 0.0
C735 C 0.04949 1.00138 0.10454 0.0
C736 C 1.01176 0.0105 0.10618 0.0
C737 C 0.08502 0.02974 0.09773 0.0
C738 C 0.12329 0.01934 0.09494 0.0
C739 C 0.11153 0.9733 0.09177 0.0
C740 C 0.14767 0.96357 0.0892 0.0
C741 C 0.19572 0.99968 0.0897 0.0
C742 C 0.20772 0.04564 0.09276 0.0
C743 C 0.17172 0.05556 0.09535 0.0
H744 H 0.22364 0.99208 0.08771 0.0
H745 H 0.86643 0.08102 0.11009 0.0
H746 H 0.83265 0.98662 0.25256 0.0
H747 H 0.90221 0.98797 0.25976 0.0
H748 H 0.98587 0.05817 0.23473 0.0
H749 H 0.91538 0.05625 0.22741 0.0
H750 H 1.00921 0.99358 0.2419 0.0
H751 H 0.99432 0.12316 0.2545 0.0
H752 H 0.95297 0.16172 0.26195 0.0
H753 H 0.92602 0.07533 0.28703 0.0
H754 H 0.9666 0.03572 0.27967 0.0
H755 H 0.23443 0.08344 0.26595 0.0
H756 H 0.16544 0.0744 0.25695 0.0
H757 H 0.07366 1.00294 0.28098 0.0
H758 H 0.14286 0.01283 0.29011 0.0
H759 H 0.0566 0.0705 0.27378 0.0
H760 H 0.07221 0.94089 0.26092 0.0
H761 H 0.11453 0.90368 0.25333 0.0
H762 H 0.14228 0.99256 0.22862 0.0
H763 H 0.10069 0.0308 0.23612 0.0
C764 C 0.86574 1.00204 0.24855 0.0
C765 C 0.86868 0.02193 0.23947 0.0
C766 C 0.90559 1.00288 0.25268 0.0
C767 C 0.94981 0.02428 0.24792 0.0
C768 C 0.95229 0.04178 0.2386 0.0
C769 C 0.91201 0.04056 0.2344 0.0
C770 C 0.99343 0.0301 0.25292 0.0
C771 C 0.01998 0.01102 0.2488 0.0
C772 C 1.00729 0.0522 0.26202 0.0
C773 C 0.98314 0.07618 0.2665 0.0
C774 C 0.97928 0.11214 0.26158 0.0
C775 C 0.95602 0.13422 0.26578 0.0
C776 C 0.93679 0.12091 0.27495 0.0
C777 C 0.94089 0.08557 0.27993 0.0
C778 C 0.96405 0.06332 0.27574 0.0
C779 C 0.19963 0.06587 0.26935 0.0
C780 C 0.19441 0.04899 0.27879 0.0
C781 C 0.16002 0.0603 0.26414 0.0
C782 C 0.11407 0.03761 0.26823 0.0
C783 C 0.10865 0.02045 0.27764 0.0
C784 C 0.14825 0.02581 0.28284 0.0
C785 C 0.07206 0.03339 0.26284 0.0
C786 C 0.04589 0.05302 0.26687 0.0
C787 C 0.05886 0.0121 0.25366 0.0
C788 C 0.08375 0.98905 0.24912 0.0
C789 C 0.08768 0.95279 0.2539 0.0
C790 C 0.11147 0.93146 0.24961 0.0
C791 C 0.1312 0.94584 0.24051 0.0
C792 C 0.12705 0.9815 0.23567 0.0
C793 C 0.10333 1.00299 0.23994 0.0
H794 H 0.1496 0.92928 0.2372 0.0
H795 H 0.91879 0.13804 0.27819 0.0
H796 H 0.12336 0.22728 0.43893 0.0
H797 H 0.06076 0.15547 0.43113 0.0
H798 H 0.11417 0.07085 0.44437 0.0
H799 H 0.17624 0.14252 0.45256 0.0
H800 H 0.08226 0.04962 0.4233 0.0
H801 H 0.02803 0.0614 0.45476 0.0
H802 H 0.0149 0.10429 0.46791 0.0
H803 H 0.92563 0.13401 0.44974 0.0
H804 H 0.93892 0.09196 0.43642 0.0
H805 H 0.86205 0.8306 0.41234 0.0
H806 H 0.93478 0.89233 0.42037 0.0
H807 H 0.88438 0.9929 0.41745 0.0
H808 H 0.81238 0.93202 0.40956 0.0
H809 H 0.91803 1.00012 0.43453 0.0
H810 H 0.97349 0.99437 0.403 0.0
H811 H 0.98683 0.95527 0.38916 0.0
H812 H 0.07345 0.91806 0.40642 0.0
H813 H 0.05993 0.95624 0.42041 0.0
C814 C 0.12214 0.1936 0.44022 0.0
C815 C 0.15475 0.19099 0.44655 0.0
C816 C 0.08639 0.15251 0.43567 0.0
C817 C 0.08251 0.10769 0.43721 0.0
C818 C 0.11658 0.10511 0.44305 0.0
C819 C 0.15221 0.14629 0.44772 0.0
C820 C 0.04031 0.06355 0.43335 0.0
C821 C 0.04637 0.03813 0.42586 0.0
C822 C 0.99341 0.04917 0.43654 0.0
C823 C 0.98481 0.0739 0.44457 0.0
C824 C 1.00592 0.07742 0.45354 0.0
C825 C 0.9984 0.10153 0.46103 0.0
C826 C 0.96953 0.12196 0.45965 0.0
C827 C 0.94802 0.11821 0.45079 0.0
C828 C 0.9555 0.09421 0.44327 0.0
C829 C 0.86656 0.86588 0.4134 0.0
C830 C 0.83084 0.87591 0.41037 0.0
C831 C 0.90825 0.90126 0.41798 0.0
C832 C 0.91542 0.94762 0.41951 0.0
C833 C 0.87979 0.95749 0.41646 0.0
C834 C 0.83826 0.92231 0.41197 0.0
C835 C 0.95948 0.98622 0.42431 0.0
C836 C 0.95382 0.01088 0.43201 0.0
C837 C 1.00656 1.0001 0.42121 0.0
C838 C 0.01522 0.97766 0.41278 0.0
C839 C 0.99509 0.97753 0.40386 0.0
C840 C 1.00271 0.95557 0.39599 0.0
C841 C 0.03085 0.93407 0.39692 0.0
C842 C 0.05157 0.93464 0.40572 0.0
C843 C 0.04394 0.95643 0.41362 0.0
H844 H 0.0367 0.91708 0.39081 0.0
H845 H 0.96376 0.14061 0.46546 0.0
H846 H 1.00934 0.13439 0.62475 0.0
H847 H 0.01887 0.07404 0.61592 0.0
H848 H 0.96528 0.10652 0.59045 0.0
H849 H 0.9551 0.16607 0.59927 0.0
H850 H 0.92341 0.01432 0.59228 0.0
H851 H 0.08699 0.14112 0.59372 0.0
H852 H 0.16135 0.20241 0.60149 0.0
H853 H 0.16761 0.0931 0.61788 0.0
H854 H 0.09291 0.03119 0.6103 0.0
H855 H 0.97568 0.87055 0.56137 0.0
H856 H 0.97912 0.94165 0.5686 0.0
H857 H 0.02238 0.90906 0.59538 0.0
H858 H 0.02002 0.83904 0.58818 0.0
H859 H 0.07168 1.00391 0.59212 0.0
H860 H 0.90585 0.87831 0.59125 0.0
H861 H 0.83138 0.8171 0.5835 0.0
H862 H 0.83004 0.92546 0.56588 0.0
H863 H 0.90489 0.98724 0.57345 0.0
C864 C 1.00024 0.12909 0.61724 0.0
C865 C 0.98123 0.15493 0.61274 0.0
C866 C 1.00571 0.09455 0.61217 0.0
C867 C 0.99308 0.08569 0.60246 0.0
C868 C 0.97505 0.11227 0.59793 0.0
C869 C 0.96918 0.14636 0.603 0.0
C870 C 0.99675 0.04758 0.59706 0.0
C871 C 0.95618 0.01267 0.59213 0.0
C872 C 0.03906 0.04447 0.59697 0.0
C873 C 0.08412 0.08158 0.6015 0.0
C874 C 0.10404 0.13019 0.59903 0.0
C875 C 0.14628 0.16503 0.6034 0.0
C876 C 0.16912 0.15167 0.61019 0.0
C877 C 0.14984 0.10341 0.61262 0.0
C878 C 0.10759 0.06842 0.60829 0.0
C879 C 0.9866 0.87899 0.56875 0.0
C880 C 0.99698 0.84869 0.57422 0.0
C881 C 0.98822 0.91944 0.5729 0.0
C882 C 1.00035 0.93045 0.5826 0.0
C883 C 0.0127 0.90137 0.58792 0.0
C884 C 1.01091 0.861 0.5838 0.0
C885 C 0.9984 0.97089 0.58737 0.0
C886 C 0.03916 1.00602 0.59221 0.0
C887 C 0.95631 0.97433 0.58737 0.0
C888 C 0.91123 0.93728 0.58284 0.0
C889 C 0.88986 0.88901 0.58567 0.0
C890 C 0.84756 0.85423 0.58132 0.0
C891 C 0.82607 0.86736 0.57418 0.0
C892 C 0.84677 0.91533 0.5714 0.0
C893 C 0.88912 0.95024 0.57572 0.0
H894 H 0.79332 0.84039 0.57082 0.0
H895 H 0.20181 0.1787 0.61357 0.0
H896 H 0.17336 0.96304 0.75797 0.0
H897 H 0.1114 0.97181 0.7662 0.0
H898 H 0.0633 0.99699 0.7392 0.0
H899 H 0.12722 0.99058 0.73103 0.0
H900 H 0.05486 0.05041 0.75152 0.0
H901 H 1.0054 0.88382 0.75159 0.0
H902 H 0.01227 0.81196 0.75438 0.0
H903 H 0.02888 0.84178 0.78444 0.0
H904 H 0.02274 0.91421 0.78181 0.0
H905 H 0.81443 0.97449 0.76671 0.0
H906 H 0.88588 0.98079 0.75918 0.0
H907 H 0.95038 0.99609 0.78687 0.0
H908 H 0.8789 0.99039 0.79444 0.0
H909 H 0.95097 0.92398 0.7746 0.0
H910 H 0.99414 0.09023 0.77364 0.0
H911 H 0.98123 0.15765 0.76989 0.0
H912 H 0.96843 0.12178 0.74012 0.0
H913 H 0.98056 0.05367 0.74371 0.0
C914 C 0.1497 0.97074 0.75382 0.0
C915 C 0.15484 0.97574 0.74386 0.0
C916 C 0.114 0.97545 0.75851 0.0
C917 C 0.08141 0.9837 0.75334 0.0
C918 C 0.0876 0.99036 0.74339 0.0
C919 C 0.12414 0.98672 0.73871 0.0
C920 C 0.04055 0.98443 0.75827 0.0
C921 C 0.03191 0.02238 0.75648 0.0
C922 C 1.01051 0.94829 0.76487 0.0
C923 C 0.0141 0.9047 0.76649 0.0
C924 C 1.01085 0.87523 0.75878 0.0
C925 C 0.01457 0.83438 0.76034 0.0
C926 C 0.02114 0.82239 0.76958 0.0
C927 C 0.02387 0.85116 0.77729 0.0
C928 C 0.02024 0.89209 0.77577 0.0
C929 C 0.84397 0.97952 0.77119 0.0
C930 C 0.84101 0.98188 0.78117 0.0
C931 C 0.88487 0.98332 0.76687 0.0
C932 C 0.92357 0.98899 0.77245 0.0
C933 C 0.92098 0.99182 0.78242 0.0
C934 C 0.88031 0.98886 0.78674 0.0
C935 C 0.96568 0.98988 0.76784 0.0
C936 C 0.97427 0.95207 0.76968 0.0
C937 C 0.99486 0.02547 0.76114 0.0
C938 C 0.98783 0.06657 0.75896 0.0
C939 C 0.98816 0.09646 0.76631 0.0
C940 C 0.98107 0.13486 0.76421 0.0
C941 C 0.9739 0.14393 0.75478 0.0
C942 C 0.97394 0.11468 0.74742 0.0
C943 C 0.98097 0.07621 0.74948 0.0
H944 H 0.96841 0.17367 0.75317 0.0
H945 H 0.02401 0.79074 0.77077 0.0
H946 H 0.87112 0.7872 0.93564 0.0
H947 H 0.92615 0.85523 0.92578 0.0
H948 H 0.94601 0.95175 0.94895 0.0
H949 H 0.88891 0.88338 0.95867 0.0
H950 H 0.94452 0.99255 0.93333 0.0
H951 H 0.02995 0.91331 0.94292 0.0
H952 H 0.04412 0.84537 0.94488 0.0
H953 H 0.03917 0.82651 0.91449 0.0
H954 H 0.02435 0.89397 0.91235 0.0
H955 H 0.17437 0.18506 0.92049 0.0
H956 H 0.10446 0.11682 0.92768 0.0
H957 H 0.07635 0.03844 0.90127 0.0
H958 H 0.1469 0.10736 0.89402 0.0
H959 H 0.07889 0.98734 0.91731 0.0
H960 H 1.00127 0.075 0.90825 0.0
H961 H 0.99201 0.14626 0.90714 0.0
H962 H 0.98826 0.15314 0.9377 0.0
H963 H 0.9982 0.08231 0.93901 0.0
C964 C 0.88725 0.82295 0.93862 0.0
C965 C 0.87615 0.82995 0.94796 0.0
C966 C 0.91893 0.86192 0.93299 0.0
C967 C 0.94151 0.90886 0.93666 0.0
C968 C 0.9294 0.91603 0.94593 0.0
C969 C 0.89681 0.87699 0.9515 0.0
C970 C 0.9781 0.95016 0.93088 0.0
C971 C 0.97412 0.99146 0.92992 0.0
C972 C 0.01647 0.94883 0.92622 0.0
C973 C 0.02554 0.90836 0.92748 0.0
C974 C 0.03155 0.89445 0.93666 0.0
C975 C 0.03975 0.85607 0.9378 0.0
C976 C 0.04241 0.83155 0.92982 0.0
C977 C 0.03702 0.84547 0.92067 0.0
C978 C 0.02876 0.8838 0.91949 0.0
C979 C 0.15291 0.15352 0.91617 0.0
C980 C 0.16619 0.15147 0.9067 0.0
C981 C 0.1128 0.11459 0.92027 0.0
C982 C 0.08497 0.07243 0.91503 0.0
C983 C 0.09725 0.07064 0.90546 0.0
C984 C 0.13726 0.11005 0.90129 0.0
C985 C 0.04532 0.02954 0.91982 0.0
C986 C 0.0489 0.98807 0.92064 0.0
C987 C 1.00718 0.0311 0.92449 0.0
C988 C 1.00082 0.0735 0.92372 0.0
C989 C 0.99882 0.0919 0.91474 0.0
C990 C 0.99339 0.13219 0.91408 0.0
C991 C 0.98963 0.15427 0.92235 0.0
C992 C 0.99118 0.13602 0.9313 0.0
C993 C 0.99665 0.09575 0.93201 0.0
H994 H 0.98544 0.18547 0.92182 0.0
H995 H 0.04876 0.80184 0.93072 0.0
H996 H 0.59131 0.55605 0.99249 0.0
H997 H 0.51911 0.48765 0.99923 0.0
H998 H 0.4361 0.55286 0.99082 0.0
H999 H 0.50686 0.61962 0.98387 0.0
H1000 H 0.46668 0.48479 0.01349 0.0
H1001 H 0.32335 0.47478 0.98617 0.0
H1002 H 0.31463 0.4779 0.96874 0.0
H1003 H 0.42287 0.43958 0.96434 0.0
H1004 H 0.43189 0.43563 0.98173 0.0
H1005 H 0.2531 0.42376 0.03621 0.0
H1006 H 0.32641 0.45666 0.02698 0.0
H1007 H 0.26097 0.33431 1.00815 0.0
H1008 H 0.18572 0.30258 0.01701 0.0
H1009 H 0.30707 0.40839 0.99788 0.0
H1010 H 0.35209 0.35275 0.02469 0.0
H1011 H 0.36097 0.33848 0.04165 0.0
H1012 H 0.4512 0.48987 0.04617 0.0
H1013 H 0.44232 0.50517 0.02927 0.0
C1014 C 0.55747 0.55527 0.99192 0.0
C1015 C 0.55514 0.59366 0.98769 0.0
C1016 C 0.51625 0.51627 0.99582 0.0
C1017 C 0.4719 0.51472 0.99546 0.0
C1018 C 0.46952 0.55255 0.99106 0.0
C1019 C 0.51043 0.59129 0.98719 0.0
C1020 C 0.42867 0.47614 1.00033 0.0
C1021 C 0.43185 0.46765 1.01005 0.0
C1022 C 0.38332 0.45217 0.99578 0.0
C1023 C 0.37834 0.455 0.98528 0.0
C1024 C 0.34509 0.46671 0.98149 0.0
C1025 C 0.34009 0.46862 0.97161 0.0
C1026 C 0.36795 0.45864 0.96544 0.0
C1027 C 0.40115 0.44709 0.96913 0.0
C1028 C 0.40635 0.44519 0.979 0.0
C1029 C 0.25385 0.40386 0.03005 0.0
C1030 C 0.21297 0.36064 0.02732 0.0
C1031 C 0.29636 0.42239 0.02486 0.0
C1032 C 0.29983 0.3977 0.01693 0.0
C1033 C 0.25943 0.35404 0.01426 0.0
C1034 C 0.21647 0.33568 0.0194 0.0
C1035 C 0.34481 0.41939 0.01118 0.0
C1036 C 0.34195 0.42469 1.00129 0.0
C1037 C 0.39062 0.43898 0.01551 0.0
C1038 C 0.39635 0.4301 0.0257 0.0
C1039 C 0.37361 0.38304 0.02931 0.0
C1040 C 0.37867 0.37476 0.03892 0.0
C1041 C 0.4066 0.41324 0.04499 0.0
C1042 C 0.4296 0.46009 0.04146 0.0
C1043 C 0.42463 0.46858 0.03186 0.0
H1044 H 0.41046 0.40676 0.05243 0.0
H1045 H 0.36411 0.46026 0.9578 0.0
H1046 H 0.03753 0.57038 0.15193 0.0
H1047 H 0.03223 0.49944 0.15971 0.0
H1048 H 0.89047 0.45845 0.16976 0.0
H1049 H 0.89564 0.52868 0.16216 0.0
H1050 H 0.0197 0.46831 0.17819 0.0
H1051 H 0.82034 0.35008 0.16863 0.0
H1052 H 0.76489 0.33384 0.15513 0.0
H1053 H 0.88148 0.37891 0.1354 0.0
H1054 H 0.93776 0.39719 0.14879 0.0
H1055 H 0.90443 0.26942 0.20971 0.0
H1056 H 0.93617 0.34158 0.19996 0.0
H1057 H 0.91364 0.25696 0.1746 0.0
H1058 H 0.87875 0.18435 0.1842 0.0
H1059 H 0.87742 0.30899 0.17171 0.0
H1060 H 0.02909 0.34267 0.1833 0.0
H1061 H 0.09036 0.35312 0.1951 0.0
H1062 H 0.08105 0.46857 0.2082 0.0
H1063 H 0.01921 0.45839 0.19656 0.0
C1064 C 1.00547 0.54643 0.15587 0.0
C1065 C 0.96681 0.55505 0.15632 0.0
C1066 C 1.00239 0.5058 0.16028 0.0
C1067 C 0.96056 0.47304 0.16517 0.0
C1068 C 0.92263 0.48241 0.16582 0.0
C1069 C 0.92565 0.52273 0.16146 0.0
C1070 C 0.95582 0.42909 0.16972 0.0
C1071 C 0.98883 0.43335 0.17675 0.0
C1072 C 0.91634 0.38325 0.16768 0.0
C1073 C 0.88316 0.37525 0.15969 0.0
C1074 C 0.83411 0.35697 0.1614 0.0
C1075 C 0.80261 0.34767 0.15378 0.0
C1076 C 0.81971 0.35574 0.14441 0.0
C1077 C 0.86837 0.37338 0.14266 0.0
C1078 C 0.90016 0.38366 0.15026 0.0
C1079 C 0.9063 0.26601 0.20206 0.0
C1080 C 0.8882 0.22058 0.19778 0.0
C1081 C 0.92525 0.30762 0.19648 0.0
C1082 C 0.9275 0.30502 0.1865 0.0
C1083 C 0.9122 0.26009 0.18228 0.0
C1084 C 0.89267 0.21844 0.18783 0.0
C1085 C 0.94064 0.34792 0.18042 0.0
C1086 C 0.90885 0.3436 0.17312 0.0
C1087 C 0.98208 0.39323 0.18205 0.0
C1088 C 0.01921 0.3995 0.18909 0.0
C1089 C 0.03982 0.37004 0.18874 0.0
C1090 C 0.07471 0.37596 0.1954 0.0
C1091 C 0.08952 0.41142 0.20241 0.0
C1092 C 0.06952 0.4411 0.20277 0.0
C1093 C 0.03459 0.43531 0.19614 0.0
H1094 H 0.11655 0.41596 0.20755 0.0
H1095 H 0.79523 0.3481 0.13851 0.0
H1096 H 0.41281 0.99072 0.34119 0.0
H1097 H 0.47294 0.97026 0.34592 0.0
H1098 H 0.48283 0.93215 0.31686 0.0
H1099 H 0.42107 0.95144 0.3121 0.0
H1100 H 0.47717 0.86498 0.3292 0.0
H1101 H 0.57395 0.03401 0.32657 0.0
H1102 H 0.59684 0.11867 0.3289 0.0
H1103 H 0.60154 0.10246 0.35923 0.0
H1104 H 0.57798 0.01748 0.3571 0.0
H1105 H 0.66612 0.8266 0.34579 0.0
H1106 H 0.62625 0.86131 0.33651 0.0
H1107 H 0.5883 0.90508 0.3626 0.0
H1108 H 0.6284 0.87114 0.37185 0.0
H1109 H 0.61802 0.97451 0.34891 0.0
H1110 H 0.50884 0.80285 0.35135 0.0
H1111 H 0.48515 0.71792 0.34906 0.0
H1112 H 0.50466 0.7402 0.31881 0.0
H1113 H 0.52911 0.8255 0.32094 0.0
C1114 C 0.42755 0.97787 0.33578 0.0
C1115 C 0.41182 0.97247 0.32626 0.0
C1116 C 0.46245 0.96668 0.33849 0.0
C1117 C 0.48296 0.95019 0.33174 0.0
C1118 C 0.46772 0.94506 0.32219 0.0
C1119 C 0.43268 0.95641 0.31946 0.0
C1120 C 0.51865 0.93651 0.33487 0.0
C1121 C 0.50862 0.88932 0.33331 0.0
C1122 C 0.55944 0.968 0.34034 0.0
C1123 C 0.57393 0.01923 0.34167 0.0
C1124 C 0.57956 0.04839 0.33375 0.0
C1125 C 0.59269 0.09647 0.33503 0.0
C1126 C 0.60058 0.11591 0.34421 0.0
C1127 C 0.59543 0.08734 0.35212 0.0
C1128 C 0.58225 0.03923 0.35088 0.0
C1129 C 0.64994 0.84433 0.34952 0.0
C1130 C 0.65008 0.84583 0.35956 0.0
C1131 C 0.62689 0.86385 0.34422 0.0
C1132 C 0.60383 0.88538 0.34886 0.0
C1133 C 0.60574 0.88861 0.35885 0.0
C1134 C 0.6284 0.8689 0.36414 0.0
C1135 C 0.57572 0.90273 0.34346 0.0
C1136 C 0.58716 0.95058 0.34462 0.0
C1137 C 0.53634 0.87191 0.3376 0.0
C1138 C 0.52138 0.82064 0.33632 0.0
C1139 C 0.50845 0.78971 0.34422 0.0
C1140 C 0.49483 0.74151 0.34295 0.0
C1141 C 0.49357 0.72371 0.3338 0.0
C1142 C 0.50577 0.75406 0.32589 0.0
C1143 C 0.5195 0.80233 0.32713 0.0
H1144 H 0.48301 0.68637 0.33283 0.0
H1145 H 0.61074 0.15314 0.34518 0.0
H1146 H 0.76407 0.67357 0.53813 0.0
H1147 H 0.69111 0.6247 0.52887 0.0
H1148 H 0.77603 0.62271 0.50533 0.0
H1149 H 0.84876 0.66921 0.51467 0.0
H1150 H 0.65117 0.62795 0.51232 0.0
H1151 H 0.72145 0.51166 0.49553 0.0
H1152 H 0.78247 0.48854 0.49871 0.0
H1153 H 0.77368 0.50904 0.52875 0.0
H1154 H 0.71213 0.53153 0.52576 0.0
H1155 H 0.46482 0.45628 0.48193 0.0
H1156 H 0.54439 0.51895 0.48732 0.0
H1157 H 0.54296 0.42399 0.50918 0.0
H1158 H 0.46494 0.36125 0.50364 0.0
H1159 H 0.6283 0.47075 0.50186 0.0
H1160 H 0.51361 0.51243 0.5138 0.0
H1161 H 0.44923 0.53221 0.51239 0.0
H1162 H 0.54019 0.65425 0.49502 0.0
H1163 H 0.60492 0.6348 0.49624 0.0
C1164 C 0.76734 0.66299 0.53096 0.0
C1165 C 0.81255 0.67498 0.52724 0.0
C1166 C 0.72552 0.63539 0.52563 0.0
C1167 C 0.72792 0.6192 0.51646 0.0
C1168 C 0.77313 0.63407 0.51245 0.0
C1169 C 0.8149 0.66129 0.51779 0.0
C1170 C 0.6833 0.58344 0.51147 0.0
C1171 C 0.64633 0.59375 0.50996 0.0
C1172 C 0.67647 0.53839 0.5085 0.0
C1173 C 0.71263 0.52381 0.5104 0.0
C1174 C 0.73242 0.51102 0.50281 0.0
C1175 C 0.7671 0.49805 0.50458 0.0
C1176 C 0.78207 0.4975 0.51392 0.0
C1177 C 0.76218 0.50964 0.52152 0.0
C1178 C 0.72741 0.52251 0.51979 0.0
C1179 C 0.48186 0.44858 0.48778 0.0
C1180 C 0.45814 0.40387 0.49243 0.0
C1181 C 0.52717 0.48459 0.49092 0.0
C1182 C 0.5495 0.47655 0.49877 0.0
C1183 C 0.52658 0.4313 0.50314 0.0
C1184 C 0.48161 0.3955 0.50002 0.0
C1185 C 0.59597 0.51511 0.50271 0.0
C1186 C 0.63337 0.50528 0.50404 0.0
C1187 C 0.60263 0.56002 0.50573 0.0
C1188 C 0.56387 0.57186 0.50502 0.0
C1189 C 0.51974 0.54328 0.50963 0.0
C1190 C 0.48321 0.55446 0.50887 0.0
C1191 C 0.49056 0.59438 0.50359 0.0
C1192 C 0.53451 0.62329 0.49909 0.0
C1193 C 0.57113 0.61222 0.49981 0.0
H1194 H 0.46225 0.60298 0.50301 0.0
H1195 H 0.80901 0.48757 0.51527 0.0
H1196 H 0.07775 0.48136 0.64656 0.0
H1197 H 0.09922 0.56272 0.6517 0.0
H1198 H 0.01366 0.50426 0.67707 0.0
H1199 H 0.99183 0.42353 0.67192 0.0
H1200 H 1.00607 0.57928 0.66996 0.0
H1201 H 0.13164 0.54343 0.6777 0.0
H1202 H 0.19187 0.5203 0.6738 0.0
H1203 H 0.26309 0.64141 0.65504 0.0
H1204 H 0.20283 0.66488 0.65874 0.0
H1205 H 0.1136 0.76267 0.70526 0.0
H1206 H 0.07739 0.69019 0.69534 0.0
H1207 H 0.18167 0.76656 0.67329 0.0
H1208 H 0.21844 0.8384 0.68327 0.0
H1209 H 0.17904 0.68669 0.67664 0.0
H1210 H 0.05966 0.72938 0.67065 0.0
H1211 H 0.99958 0.75256 0.67462 0.0
H1212 H 0.91666 0.62042 0.68986 0.0
H1213 H 0.9766 0.59671 0.68609 0.0
C1214 C 0.06285 0.486 0.65312 0.0
C1215 C 0.03381 0.44631 0.65892 0.0
C1216 C 0.07524 0.53237 0.65608 0.0
C1217 C 0.05851 0.53957 0.66484 0.0
C1218 C 0.0271 0.49964 0.67031 0.0
C1219 C 0.01504 0.45355 0.6674 0.0
C1220 C 0.07672 0.5884 0.66882 0.0
C1221 C 0.04386 0.60287 0.67144 0.0
C1222 C 0.12611 0.61948 0.67058 0.0
C1223 C 0.16245 0.60556 0.66841 0.0
C1224 C 0.15994 0.56491 0.67269 0.0
C1225 C 0.19411 0.55177 0.67053 0.0
C1226 C 0.2312 0.57928 0.66415 0.0
C1227 C 0.23428 0.62008 0.65996 0.0
C1228 C 0.20015 0.63332 0.66209 0.0
C1229 C 0.1281 0.7641 0.69822 0.0
C1230 C 0.16898 0.80595 0.69505 0.0
C1231 C 0.10737 0.72274 0.69253 0.0
C1232 C 0.12666 0.72286 0.68352 0.0
C1233 C 0.16625 0.7654 0.68022 0.0
C1234 C 0.18723 0.80642 0.68592 0.0
C1235 C 0.10838 0.67784 0.67789 0.0
C1236 C 0.14128 0.66384 0.67501 0.0
C1237 C 0.05906 0.64737 0.67588 0.0
C1238 C 0.02286 0.66144 0.67815 0.0
C1239 C 0.02881 0.70542 0.67491 0.0
C1240 C 0.99473 0.71862 0.67711 0.0
C1241 C 0.95438 0.68803 0.6825 0.0
C1242 C 0.94796 0.6441 0.68569 0.0
C1243 C 0.98194 0.63073 0.68351 0.0
H1244 H 0.92804 0.69832 0.6842 0.0
H1245 H 0.25762 0.56906 0.66249 0.0
H1246 H 0.3885 0.12771 0.87644 0.0
H1247 H 0.43292 0.10003 0.86682 0.0
H1248 H 0.36856 0.11692 0.84126 0.0
H1249 H 0.32569 0.1472 0.85076 0.0
H1250 H 0.38285 0.02515 0.84417 0.0
H1251 H 0.46115 0.19913 0.84235 0.0
H1252 H 0.49189 0.27908 0.84956 0.0
H1253 H 0.58614 0.2556 0.86752 0.0
H1254 H 0.55522 0.17507 0.86054 0.0
H1255 H 0.5625 0.01455 0.81553 0.0
H1256 H 0.50355 0.03567 0.8212 0.0
H1257 H 0.58281 0.08869 0.84748 0.0
H1258 H 0.64255 0.07027 0.84172 0.0
H1259 H 0.55562 0.14725 0.84203 0.0
H1260 H 0.47771 0.97492 0.8452 0.0
H1261 H 0.44593 0.89213 0.83941 0.0
H1262 H 0.35145 0.90893 0.82023 0.0
H1263 H 0.38314 0.99208 0.82582 0.0
C1264 C 0.38346 0.12544 0.86878 0.0
C1265 C 0.35404 0.14067 0.8644 0.0
C1266 C 0.40857 0.10912 0.86331 0.0
C1267 C 0.40419 0.10676 0.85334 0.0
C1268 C 0.37221 0.11834 0.84896 0.0
C1269 C 0.34757 0.13546 0.85442 0.0
C1270 C 0.43713 0.09741 0.84758 0.0
C1271 C 0.42047 0.052 0.84351 0.0
C1272 C 0.48626 0.13222 0.8469 0.0
C1273 C 0.50552 0.18092 0.85099 0.0
C1274 C 0.4881 0.21085 0.8479 0.0
C1275 C 0.5056 0.25629 0.85193 0.0
C1276 C 0.54086 0.27237 0.85901 0.0
C1277 C 0.55878 0.24308 0.86205 0.0
C1278 C 0.5413 0.19754 0.85805 0.0
C1279 C 0.56767 0.03122 0.82246 0.0
C1280 C 0.60719 0.04005 0.8282 0.0
C1281 C 0.53361 0.04284 0.82575 0.0
C1282 C 0.53822 0.06316 0.83485 0.0
C1283 C 0.57817 0.07291 0.84045 0.0
C1284 C 0.6122 0.06174 0.83717 0.0
C1285 C 0.50186 0.07438 0.83871 0.0
C1286 C 0.5179 0.12037 0.84248 0.0
C1287 C 0.45232 0.0398 0.83919 0.0
C1288 C 0.43319 0.98986 0.83584 0.0
C1289 C 0.45042 0.96106 0.83969 0.0
C1290 C 0.43239 0.91406 0.83646 0.0
C1291 C 0.39681 0.89533 0.82943 0.0
C1292 C 0.37909 0.92352 0.82565 0.0
C1293 C 0.39705 0.97057 0.82885 0.0
H1294 H 0.38288 0.85893 0.82694 0.0
H1295 H 0.55437 0.30757 0.86213 0.0
H1296 H 0.62277 0.76151 0.81431 0.0
H1297 H 0.57708 0.68621 0.823 0.0
H1298 H 0.6309 0.7613 0.84966 0.0
H1299 H 0.67732 0.83712 0.84092 0.0
H1300 H 0.62461 0.67383 0.85006 0.0
H1301 H 0.52102 0.73381 0.84218 0.0
H1302 H 0.48315 0.76713 0.83178 0.0
H1303 H 0.42156 0.63955 0.81463 0.0
H1304 H 0.45972 0.60575 0.82483 0.0
H1305 H 0.42676 0.4722 0.87498 0.0
H1306 H 0.47565 0.55473 0.86891 0.0
H1307 H 0.46853 0.49969 0.84059 0.0
H1308 H 0.41993 0.41771 0.84655 0.0
H1309 H 0.45035 0.58206 0.84298 0.0
H1310 H 0.55934 0.52513 0.85092 0.0
H1311 H 0.6004 0.49521 0.86127 0.0
H1312 H 0.65328 0.62082 0.87885 0.0
H1313 H 0.61136 0.6509 0.86874 0.0
C1314 C 0.62538 0.7619 0.82202 0.0
C1315 C 0.65324 0.80526 0.82695 0.0
C1316 C 0.59908 0.71888 0.82699 0.0
C1317 C 0.59954 0.71825 0.837 0.0
C1318 C 0.62968 0.76099 0.84194 0.0
C1319 C 0.65636 0.80421 0.83695 0.0
C1320 C 0.5669 0.67321 0.84222 0.0
C1321 C 0.58636 0.6542 0.84866 0.0
C1322 C 0.51697 0.64742 0.84035 0.0
C1323 C 0.49355 0.66739 0.83423 0.0
C1324 C 0.49968 0.71298 0.83615 0.0
C1325 C 0.47813 0.73195 0.8303 0.0
C1326 C 0.45004 0.70551 0.82254 0.0
C1327 C 0.44336 0.66 0.82064 0.0
C1328 C 0.4649 0.6409 0.82646 0.0
C1329 C 0.43519 0.47786 0.86745 0.0
C1330 C 0.41993 0.43853 0.86125 0.0
C1331 C 0.46348 0.52486 0.86403 0.0
C1332 C 0.47649 0.53312 0.85436 0.0
C1333 C 0.45934 0.49403 0.8481 0.0
C1334 C 0.43172 0.44725 0.85152 0.0
C1335 C 0.50822 0.58229 0.85067 0.0
C1336 C 0.48847 0.60208 0.8445 0.0
C1337 C 0.55774 0.60893 0.85288 0.0
C1338 C 0.58127 0.58979 0.85918 0.0
C1339 C 0.57883 0.54593 0.8571 0.0
C1340 C 0.60254 0.52906 0.8629 0.0
C1341 C 0.62936 0.55604 0.87073 0.0
C1342 C 0.63251 0.59995 0.87278 0.0
C1343 C 0.60865 0.61684 0.86704 0.0
H1344 H 0.64773 0.54295 0.8752 0.0
H1345 H 0.43338 0.72026 0.81802 0.0
H1346 H 0.99796 0.44795 0.04149 0.0
H1347 H 0.97343 0.50464 0.03572 0.0
H1348 H 0.90039 0.41124 0.012 0.0
H1349 H 0.92354 0.35454 0.01772 0.0
H1350 H 0.96261 0.50668 1.00671 0.0
H1351 H 0.84127 0.41694 0.03059 0.0
H1352 H 0.81331 0.38846 0.04692 0.0
H1353 H 0.87114 0.53373 0.05646 0.0
H1354 H 0.90088 0.56321 0.04025 0.0
H1355 H 0.81232 0.57384 0.98478 0.0
H1356 H 0.84727 0.53359 0.99343 0.0
H1357 H 0.887 0.63556 0.01642 0.0
H1358 H 0.84923 0.67482 1.00798 0.0
H1359 H 0.85349 0.54864 0.02357 0.0
H1360 H 0.97171 0.6403 1.00054 0.0
H1361 H 1.00479 0.67344 0.98469 0.0
H1362 H 0.95914 0.5318 0.97418 0.0
H1363 H 0.92514 0.49769 0.98994 0.0
C1364 C 0.97615 0.43925 0.03513 0.0
C1365 C 0.96338 0.39689 0.03001 0.0
C1366 C 0.96228 0.4717 0.03184 0.0
C1367 C 0.9353 0.46225 0.02342 0.0
C1368 C 0.92164 0.41956 0.01846 0.0
C1369 C 0.93519 0.3872 0.02173 0.0
C1370 C 0.92198 0.4969 0.01951 0.0
C1371 C 0.93854 0.51567 1.01037 0.0
C1372 C 0.89229 0.51032 0.02448 0.0
C1373 C 0.87409 0.49236 0.03422 0.0
C1374 C 0.84869 0.44289 0.03619 0.0
C1375 C 0.83246 0.42654 0.04543 0.0
C1376 C 0.84071 0.45927 0.05274 0.0
C1377 C 0.86494 0.50841 0.05081 0.0
C1378 C 0.88161 0.52496 0.04159 0.0
C1379 C 0.82783 0.58757 0.99173 0.0
C1380 C 0.82741 0.62749 0.9957 0.0
C1381 C 0.84857 0.56481 0.99663 0.0
C1382 C 0.87058 0.58187 1.00554 0.0
C1383 C 0.87046 0.62179 1.00954 0.0
C1384 C 0.84922 0.64448 1.00466 0.0
C1385 C 0.8928 0.55709 1.0106 0.0
C1386 C 0.87813 0.5403 0.01995 0.0
C1387 C 0.925 0.54609 1.00592 0.0
C1388 C 0.94561 0.56641 0.99642 0.0
C1389 C 0.96844 0.61617 0.99484 0.0
C1390 C 0.98739 0.63513 0.98587 0.0
C1391 C 0.984 0.60474 0.97843 0.0
C1392 C 0.96173 0.5553 0.97995 0.0
C1393 C 0.94268 0.53614 0.9889 0.0
H1394 H 0.99869 0.61949 0.97149 0.0
H1395 H 0.82815 0.44656 0.0599 0.0
H1396 H 0.55492 0.93658 0.20531 0.0
H1397 H 0.47163 0.89782 0.19991 0.0
H1398 H 0.51112 1.00481 0.17797 0.0
H1399 H 0.59438 0.04289 0.18305 0.0
H1400 H 0.43045 0.9892 0.18879 0.0
H1401 H 0.48921 0.89804 0.17182 0.0
H1402 H 0.52688 0.8479 0.17074 0.0
H1403 H 0.41667 0.7414 0.18857 0.0
H1404 H 0.3787 0.79126 0.18986 0.0
H1405 H 0.22536 0.89238 0.15892 0.0
H1406 H 0.30466 0.92839 0.16634 0.0
H1407 H 0.26055 0.79767 0.18211 0.0
H1408 H 0.18219 0.76089 0.17422 0.0
H1409 H 0.34248 0.82395 0.17577 0.0
H1410 H 0.28042 0.90982 0.19252 0.0
H1411 H 0.24212 0.95897 0.19456 0.0
H1412 H 0.35594 0.07364 0.17877 0.0
H1413 H 0.39463 0.02495 0.17653 0.0
C1414 C 0.54628 0.95165 0.19926 0.0
C1415 C 0.58192 0.99342 0.19471 0.0
C1416 C 0.49841 0.92948 0.19621 0.0
C1417 C 0.48509 0.94861 0.18857 0.0
C1418 C 0.52047 0.98972 0.18395 0.0
C1419 C 0.56826 0.01158 0.18691 0.0
C1420 C 0.43433 0.92618 0.18537 0.0
C1421 C 0.4112 0.95319 0.18587 0.0
C1422 C 0.40879 0.8787 0.18186 0.0
C1423 C 0.43142 0.8486 0.18102 0.0
C1424 C 0.47323 0.86411 0.17557 0.0
C1425 C 0.4946 0.83571 0.17491 0.0
C1426 C 0.47426 0.79155 0.1796 0.0
C1427 C 0.43243 0.77564 0.18495 0.0
C1428 C 0.41095 0.80394 0.18564 0.0
C1429 C 0.23245 0.87179 0.16411 0.0
C1430 C 0.19763 0.82408 0.16608 0.0
C1431 C 0.27779 0.89239 0.16839 0.0
C1432 C 0.28883 0.86617 0.17494 0.0
C1433 C 0.2533 0.81882 0.17709 0.0
C1434 C 0.20838 0.79788 0.17264 0.0
C1435 C 0.33806 0.887 0.17911 0.0
C1436 C 0.36115 0.85978 0.17878 0.0
C1437 C 0.36329 0.93407 0.18294 0.0
C1438 C 0.34021 0.96355 0.18429 0.0
C1439 C 0.29712 0.94539 0.18943 0.0
C1440 C 0.27536 0.97319 0.19063 0.0
C1441 C 0.29653 0.01935 0.18678 0.0
C1442 C 0.33956 0.03786 0.18174 0.0
C1443 C 0.36145 0.0102 0.18052 0.0
H1444 H 0.27962 0.04081 0.18771 0.0
H1445 H 0.49086 0.76962 0.17908 0.0
H1446 H 0.65928 0.55907 0.35554 0.0
H1447 H 0.59613 0.48392 0.34896 0.0
H1448 H 0.49145 0.49501 0.36618 0.0
H1449 H 0.55513 0.57172 0.37273 0.0
H1450 H 0.48018 0.39848 0.3649 0.0
H1451 H 0.49197 0.52264 0.34465 0.0
H1452 H 0.53384 0.59726 0.33527 0.0
H1453 H 0.5936 0.53321 0.31715 0.0
H1454 H 0.55268 0.45842 0.3265 0.0
H1455 H 0.3119 0.20323 0.33469 0.0
H1456 H 0.3491 0.27974 0.34347 0.0
H1457 H 0.48252 0.32407 0.32885 0.0
H1458 H 0.44566 0.24861 0.32007 0.0
H1459 H 0.46291 0.39594 0.32968 0.0
H1460 H 0.46129 0.27743 0.35137 0.0
H1461 H 0.42294 0.20376 0.36109 0.0
H1462 H 0.34524 0.2576 0.37668 0.0
H1463 H 0.38257 0.3313 0.36693 0.0
C1464 C 0.62289 0.54581 0.35794 0.0
C1465 C 0.61217 0.57201 0.36452 0.0
C1466 C 0.58682 0.50262 0.3542 0.0
C1467 C 0.539 0.48431 0.35695 0.0
C1468 C 0.52816 0.50873 0.36393 0.0
C1469 C 0.56454 0.55242 0.36768 0.0
C1470 C 0.50101 0.44084 0.35207 0.0
C1471 C 0.47536 0.39802 0.35723 0.0
C1472 C 0.49514 0.44025 0.34205 0.0
C1473 C 0.5194 0.48497 0.33631 0.0
C1474 C 0.51428 0.52455 0.3387 0.0
C1475 C 0.53782 0.56688 0.33338 0.0
C1476 C 0.56641 0.56999 0.32563 0.0
C1477 C 0.57143 0.53074 0.32316 0.0
C1478 C 0.548 0.48834 0.32846 0.0
C1479 C 0.34898 0.22966 0.33329 0.0
C1480 C 0.37599 0.21977 0.32676 0.0
C1481 C 0.37027 0.27315 0.33835 0.0
C1482 C 0.41878 0.3075 0.33689 0.0
C1483 C 0.44512 0.29817 0.33013 0.0
C1484 C 0.42407 0.25485 0.32515 0.0
C1485 C 0.44324 0.35302 0.34244 0.0
C1486 C 0.46654 0.39641 0.33738 0.0
C1487 C 0.44683 0.35398 0.35253 0.0
C1488 C 0.42413 0.30951 0.35832 0.0
C1489 C 0.43561 0.27331 0.3568 0.0
C1490 C 0.41414 0.2316 0.36232 0.0
C1491 C 0.38151 0.22591 0.36947 0.0
C1492 C 0.37038 0.26198 0.37112 0.0
C1493 C 0.39166 0.3037 0.36559 0.0
H1494 H 0.36498 0.19362 0.37375 0.0
H1495 H 0.58463 0.60279 0.32152 0.0
H1496 H 0.97083 0.53016 0.53358 0.0
H1497 H 1.00837 0.48484 0.52785 0.0
H1498 H 0.12449 0.61437 0.5159 0.0
H1499 H 0.08739 0.66013 0.52189 0.0
H1500 H 0.06843 0.52456 0.5032 0.0
H1501 H 0.15383 0.58072 0.5333 0.0
H1502 H 0.15602 0.5905 0.55078 0.0
H1503 H 0.07673 0.4376 0.55428 0.0
H1504 H 0.07324 0.42689 0.53681 0.0
H1505 H 0.21837 0.44579 0.48604 0.0
H1506 H 0.185 0.48897 0.49393 0.0
H1507 H 0.11462 0.37426 0.51435 0.0
H1508 H 0.15226 0.33241 0.507 0.0
H1509 H 0.14338 0.45336 0.52335 0.0
H1510 H 0.05387 0.392 0.49488 0.0
H1511 H 0.03865 0.37401 0.47771 0.0
H1512 H 0.10946 0.52457 0.47139 0.0
H1513 H 0.1257 0.54352 0.48852 0.0
C1514 C 1.00451 0.54889 0.52977 0.0
C1515 C 0.0262 0.59846 0.52808 0.0
C1516 C 0.02596 0.5231 0.52655 0.0
C1517 C 0.06911 0.54629 0.52146 0.0
C1518 C 0.09118 0.59593 0.51984 0.0
C1519 C 0.07019 0.62199 0.52326 0.0
C1520 C 0.08967 0.51808 0.5174 0.0
C1521 C 0.08562 0.50963 0.50755 0.0
C1522 C 0.10955 0.49655 0.52321 0.0
C1523 C 0.1129 0.50301 0.53373 0.0
C1524 C 0.13653 0.54917 0.53779 0.0
C1525 C 0.13806 0.55489 0.5477 0.0
C1526 C 0.11645 0.51469 0.55364 0.0
C1527 C 0.09343 0.4687 0.54967 0.0
C1528 C 0.0917 0.46279 0.53977 0.0
C1529 C 0.1968 0.42981 0.49233 0.0
C1530 C 0.18877 0.38546 0.49589 0.0
C1531 C 0.17676 0.45438 0.49676 0.0
C1532 C 0.14623 0.43463 0.50464 0.0
C1533 C 0.13783 0.39032 0.50825 0.0
C1534 C 0.15895 0.36605 0.50394 0.0
C1535 C 0.12343 0.46063 0.509 0.0
C1536 C 0.1265 0.46834 0.51893 0.0
C1537 C 0.10112 0.48035 0.5033 0.0
C1538 C 0.09135 0.46917 0.49298 0.0
C1539 C 0.06649 0.42129 0.48982 0.0
C1540 C 0.05764 0.41092 0.4801 0.0
C1541 C 0.07317 0.44812 0.47346 0.0
C1542 C 0.09749 0.49579 0.47654 0.0
C1543 C 0.10648 0.50637 0.48626 0.0
H1544 H 0.06629 0.44002 0.46594 0.0
H1545 H 0.1176 0.51917 0.5613 0.0
H1546 H 0.46311 1.00087 0.70884 0.0
H1547 H 0.54097 0.01634 0.70249 0.0
H1548 H 0.53916 0.11597 0.68217 0.0
H1549 H 0.46252 0.10099 0.68848 0.0
H1550 H 0.54932 0.04275 0.67386 0.0
H1551 H 0.61067 0.15222 0.70097 0.0
H1552 H 0.62243 0.1725 0.71809 0.0
H1553 H 0.68818 0.08609 0.72176 0.0
H1554 H 0.67508 0.06378 0.70478 0.0
H1555 H 0.76583 0.19234 0.65169 0.0
H1556 H 0.69261 0.1542 0.66111 0.0
H1557 H 0.74835 0.08024 0.67772 0.0
H1558 H 0.82292 0.11964 0.66836 0.0
H1559 H 0.70975 0.12053 0.68911 0.0
H1560 H 0.65735 0.01706 0.66237 0.0
H1561 H 0.64668 0.99424 0.64538 0.0
H1562 H 0.56529 0.06494 0.64113 0.0
H1563 H 0.57604 0.08882 0.65807 0.0
C1564 C 0.48012 0.02689 0.70318 0.0
C1565 C 0.45663 0.0493 0.69905 0.0
C1566 C 0.52433 0.0355 0.69953 0.0
C1567 C 0.54544 0.06681 0.69177 0.0
C1568 C 0.52322 0.09121 0.68807 0.0
C1569 C 0.47947 0.08266 0.69168 0.0
C1570 C 0.58874 0.07242 0.68688 0.0
C1571 C 0.58444 0.05979 0.6772 0.0
C1572 C 0.63413 0.09258 0.69135 0.0
C1573 C 0.64105 0.10557 0.70162 0.0
C1574 C 0.62678 0.13677 0.70547 0.0
C1575 C 0.63373 0.14869 0.71516 0.0
C1576 C 0.65562 0.13025 0.72105 0.0
C1577 C 0.6707 0.09995 0.71725 0.0
C1578 C 0.66342 0.08756 0.70759 0.0
C1579 C 0.76249 0.16776 0.65731 0.0
C1580 C 0.8002 0.15915 0.65932 0.0
C1581 C 0.72042 0.14567 0.66265 0.0
C1582 C 0.71474 0.11401 0.67008 0.0
C1583 C 0.75192 0.10445 0.672 0.0
C1584 C 0.79425 0.1266 0.66661 0.0
C1585 C 0.67053 0.09301 0.67598 0.0
C1586 C 0.67452 0.10248 0.68583 0.0
C1587 C 0.62458 0.0694 0.67171 0.0
C1588 C 0.61769 0.05489 0.6615 0.0
C1589 C 0.63741 0.028 0.65781 0.0
C1590 C 0.63132 0.01484 0.64818 0.0
C1591 C 0.60536 0.02817 0.64218 0.0
C1592 C 0.58537 0.05462 0.64579 0.0
C1593 C 0.59138 0.0679 0.65541 0.0
H1594 H 0.6007 0.01796 0.63473 0.0
H1595 H 0.66116 0.13966 0.72854 0.0
H1596 H 0.91843 0.6147 0.11987 0.0
H1597 H 0.89336 0.546 0.10904 0.0
H1598 H 0.03476 0.61555 0.09661 0.0
H1599 H 0.05876 0.68421 0.10696 0.0
H1600 H 0.97625 0.56698 0.0835 0.0
H1601 H 1.00235 0.53052 0.11602 0.0
H1602 H 0.9853 0.5292 0.13323 0.0
H1603 H 0.83586 0.43211 0.12793 0.0
H1604 H 0.85217 0.43271 0.1107 0.0
H1605 H 0.02257 0.35981 0.08421 0.0
H1606 H 1.00002 0.41014 0.09328 0.0
H1607 H 0.90802 0.40289 0.0702 0.0
H1608 H 0.93032 0.35163 0.06113 0.0
H1609 H 0.92476 0.41375 0.10051 0.0
H1610 H 0.93467 0.52461 0.06678 0.0
H1611 H 0.97277 0.54601 0.0509 0.0
H1612 H 0.07754 0.5095 0.06003 0.0
H1613 H 0.04126 0.48966 0.07604 0.0
C1614 C 0.94343 0.61594 0.11457 0.0
C1615 C 0.99068 0.65478 0.11432 0.0
C1616 C 0.92936 0.57633 0.10847 0.0
C1617 C 0.96252 0.57474 0.10213 0.0
C1618 C 1.00836 0.61537 0.1014 0.0
C1619 C 0.02216 0.65477 0.10738 0.0
C1620 C 0.95228 0.52997 0.0969 0.0
C1621 C 0.96387 0.53314 0.08717 0.0
C1622 C 0.93764 0.48606 0.10171 0.0
C1623 C 0.92843 0.48166 0.11211 0.0
C1624 C 0.96595 0.50847 0.11856 0.0
C1625 C 0.95642 0.50802 0.12831 0.0
C1626 C 0.90951 0.48076 0.13167 0.0
C1627 C 0.87217 0.45329 0.12531 0.0
C1628 C 0.88156 0.4534 0.11557 0.0
C1629 C 0.99591 0.36722 0.08124 0.0
C1630 C 0.97788 0.35137 0.072 0.0
C1631 C 0.98309 0.39617 0.08643 0.0
C1632 C 0.9527 0.41099 0.08242 0.0
C1633 C 0.9317 0.3922 0.07346 0.0
C1634 C 0.94406 0.36247 0.0683 0.0
C1635 C 0.94888 0.45086 0.08706 0.0
C1636 C 0.93516 0.44687 0.09671 0.0
C1637 C 0.96372 0.49493 0.08228 0.0
C1638 C 0.98443 0.50451 0.07254 0.0
C1639 C 0.96561 0.52083 0.06537 0.0
C1640 C 0.98707 0.53296 0.05637 0.0
C1641 C 0.02736 0.52884 0.05445 0.0
C1642 C 0.04622 0.51249 0.06152 0.0
C1643 C 0.02521 0.5008 0.07056 0.0
H1644 H 0.04411 0.53853 0.04749 0.0
H1645 H 0.90213 0.48078 0.1392 0.0
H1646 H 0.64401 0.96048 0.24449 0.0
H1647 H 0.57432 0.93671 0.25484 0.0
H1648 H 0.49982 0.95844 0.2315 0.0
H1649 H 0.57016 0.98385 0.22134 0.0
H1650 H 0.49822 1.00628 0.24589 0.0
H1651 H 0.46203 0.84414 0.24223 0.0
H1652 H 0.47799 0.77691 0.24226 0.0
H1653 H 0.51225 0.79899 0.27212 0.0
H1654 H 0.49713 0.8668 0.27224 0.0
H1655 H 0.30264 0.96381 0.27422 0.0
H1656 H 0.34281 0.94234 0.26191 0.0
H1657 H 0.43551 0.9362 0.28338 0.0
H1658 H 0.395 0.95695 0.29561 0.0
H1659 H 0.41984 0.87235 0.26901 0.0
H1660 H 0.46694 0.03977 0.27201 0.0
H1661 H 0.45207 0.10773 0.27227 0.0
H1662 H 0.39879 0.0757 0.24353 0.0
H1663 H 0.41265 1.00701 0.24317 0.0
C1664 C 0.6119 0.95806 0.24149 0.0
C1665 C 0.61193 0.97284 0.23207 0.0
C1666 C 0.57203 0.94469 0.24742 0.0
C1667 C 0.53132 0.94552 0.24399 0.0
C1668 C 0.53053 0.95745 0.23436 0.0
C1669 C 0.57051 0.97136 0.22851 0.0
C1670 C 0.49243 0.93993 0.25064 0.0
C1671 C 0.48036 0.97624 0.25076 0.0
C1672 C 0.46978 0.90165 0.25726 0.0
C1673 C 0.4788 0.86082 0.25722 0.0
C1674 C 0.47331 0.8349 0.24879 0.0
C1675 C 0.48215 0.79664 0.24878 0.0
C1676 C 0.49622 0.78375 0.25718 0.0
C1677 C 0.50138 0.80903 0.26561 0.0
C1678 C 0.49261 0.84735 0.26566 0.0
C1679 C 0.32985 0.95533 0.27635 0.0
C1680 C 0.34509 0.96107 0.28589 0.0
C1681 C 0.3533 0.94372 0.2693 0.0
C1682 C 0.39289 0.93844 0.27167 0.0
C1683 C 0.40515 0.93996 0.28134 0.0
C1684 C 0.38175 0.95155 0.28835 0.0
C1685 C 0.42569 0.9384 0.26414 0.0
C1686 C 0.43704 0.9016 0.26395 0.0
C1687 C 0.44794 0.97628 0.25744 0.0
C1688 C 0.4403 0.01797 0.2576 0.0
C1689 C 0.45178 0.04706 0.26577 0.0
C1690 C 0.44354 0.0857 0.26593 0.0
C1691 C 0.42437 0.09594 0.25793 0.0
C1692 C 0.41354 0.06765 0.24973 0.0
C1693 C 0.42157 0.02886 0.24954 0.0
H1694 H 0.41801 0.12587 0.25807 0.0
H1695 H 0.50305 0.75412 0.25716 0.0
H1696 H 0.35026 0.36214 0.44028 0.0
H1697 H 0.42019 0.40637 0.43017 0.0
H1698 H 0.50479 0.37606 0.44979 0.0
H1699 H 0.43398 0.33186 0.4601 0.0
H1700 H 0.5492 0.46752 0.44632 0.0
H1701 H 0.48363 0.33301 0.42608 0.0
H1702 H 0.4228 0.2649 0.41669 0.0
H1703 H 0.40293 0.36175 0.39881 0.0
H1704 H 0.46303 0.43043 0.40819 0.0
H1705 H 0.68756 0.59193 0.39789 0.0
H1706 H 0.64513 0.51992 0.40801 0.0
H1707 H 0.59945 0.59624 0.42653 0.0
H1708 H 0.64169 0.66731 0.41661 0.0
H1709 H 0.55191 0.46775 0.41094 0.0
H1710 H 0.57847 0.5558 0.44863 0.0
H1711 H 0.64333 0.6209 0.45795 0.0
H1712 H 0.74842 0.61055 0.44095 0.0
H1713 H 0.68424 0.54485 0.43162 0.0
C1714 C 0.38333 0.36335 0.44228 0.0
C1715 C 0.38642 0.34299 0.45093 0.0
C1716 C 0.4235 0.38872 0.43646 0.0
C1717 C 0.46815 0.39456 0.43911 0.0
C1718 C 0.47083 0.372 0.44753 0.0
C1719 C 0.43022 0.34616 0.45337 0.0
C1720 C 0.51217 0.42893 0.43364 0.0
C1721 C 0.54999 0.46715 0.43859 0.0
C1722 C 0.51434 0.42816 0.42353 0.0
C1723 C 0.47783 0.38694 0.41788 0.0
C1724 C 0.46605 0.3398 0.4202 0.0
C1725 C 0.43171 0.30107 0.41486 0.0
C1726 C 0.40899 0.30899 0.40716 0.0
C1727 C 0.42058 0.35567 0.40478 0.0
C1728 C 0.45485 0.39453 0.41009 0.0
C1729 C 0.66992 0.59366 0.40432 0.0
C1730 C 0.66836 0.63543 0.4065 0.0
C1731 C 0.64519 0.55235 0.41005 0.0
C1732 C 0.61916 0.55243 0.41813 0.0
C1733 C 0.61981 0.59508 0.4205 0.0
C1734 C 0.64399 0.63586 0.41478 0.0
C1735 C 0.58731 0.50752 0.42361 0.0
C1736 C 0.55168 0.46749 0.41867 0.0
C1737 C 0.58758 0.5062 0.43373 0.0
C1738 C 0.62644 0.54546 0.43939 0.0
C1739 C 0.6154 0.56714 0.44691 0.0
C1740 C 0.65206 0.60423 0.45219 0.0
C1741 C 0.69996 0.61991 0.45003 0.0
C1742 C 0.7113 0.59846 0.4426 0.0
C1743 C 0.67478 0.56133 0.4373 0.0
H1744 H 0.72829 0.64864 0.45412 0.0
H1745 H 0.38245 0.27896 0.40304 0.0
H1746 H 0.07127 0.69164 0.57539 0.0
H1747 H 0.096 0.64608 0.58569 0.0
H1748 H 0.04081 0.53152 0.56498 0.0
H1749 H 0.01495 0.57625 0.55492 0.0
H1750 H 1.00307 0.49671 0.58123 0.0
H1751 H 0.16344 0.60061 0.5709 0.0
H1752 H 0.23658 0.67769 0.56761 0.0
H1753 H 0.24937 0.71409 0.59735 0.0
H1754 H 0.17587 0.63744 0.60081 0.0
H1755 H 0.04739 0.34068 0.60709 0.0
H1756 H 0.06797 0.40098 0.59457 0.0
H1757 H 0.09768 0.50832 0.616 0.0
H1758 H 0.07764 0.44803 0.62852 0.0
H1759 H 0.15431 0.54717 0.59894 0.0
H1760 H 0.98872 0.44626 0.60855 0.0
H1761 H 0.91654 0.3681 0.61172 0.0
H1762 H 0.915 0.32625 0.58258 0.0
H1763 H 0.98776 0.40391 0.57928 0.0
C1764 C 0.06608 0.65751 0.57292 0.0
C1765 C 0.04134 0.63743 0.56437 0.0
C1766 C 0.08009 0.63133 0.57882 0.0
C1767 C 0.07017 0.58502 0.57617 0.0
C1768 C 0.04863 0.56684 0.56726 0.0
C1769 C 0.03409 0.59256 0.56147 0.0
C1770 C 0.07644 0.55306 0.58306 0.0
C1771 C 0.0366 0.50765 0.58492 0.0
C1772 C 0.11963 0.56732 0.58813 0.0
C1773 C 0.16386 0.61343 0.5861 0.0
C1774 C 0.18161 0.62519 0.57673 0.0
C1775 C 0.22319 0.66879 0.57484 0.0
C1776 C 0.24755 0.70082 0.58227 0.0
C1777 C 0.23044 0.68926 0.59161 0.0
C1778 C 0.18884 0.64571 0.59354 0.0
C1779 C 0.06103 0.37773 0.60913 0.0
C1780 C 0.06187 0.38994 0.61876 0.0
C1781 C 0.07229 0.41212 0.60197 0.0
C1782 C 0.08373 0.45912 0.60433 0.0
C1783 C 0.08919 0.47245 0.61399 0.0
C1784 C 0.07799 0.43801 0.62115 0.0
C1785 C 0.08121 0.49109 0.59692 0.0
C1786 C 0.12127 0.53638 0.59508 0.0
C1787 C 0.03828 0.47685 0.59178 0.0
C1788 C 0.99392 0.43064 0.5937 0.0
C1789 C 0.97314 0.42026 0.60284 0.0
C1790 C 0.93214 0.37607 0.60466 0.0
C1791 C 0.91126 0.34218 0.59736 0.0
C1792 C 0.93126 0.3525 0.58822 0.0
C1793 C 0.97238 0.39659 0.58638 0.0
H1794 H 0.87953 0.30797 0.59879 0.0
H1795 H 0.27974 0.73456 0.58079 0.0
H1796 H 0.35732 1.00325 0.75092 0.0
H1797 H 0.42794 0.03385 0.76103 0.0
H1798 H 0.51105 0.13996 0.73972 0.0
H1799 H 0.43946 0.10835 0.72943 0.0
H1800 H 0.55536 0.09432 0.74453 0.0
H1801 H 0.49316 0.17301 0.76274 0.0
H1802 H 0.43299 0.18456 0.77131 0.0
H1803 H 0.41138 0.07427 0.79123 0.0
H1804 H 0.47084 0.06149 0.78271 0.0
H1805 H 0.69068 0.11604 0.79393 0.0
H1806 H 0.6518 0.14686 0.7831 0.0
H1807 H 0.60031 0.01979 0.76574 0.0
H1808 H 0.63951 0.99023 0.77624 0.0
H1809 H 0.55955 0.11019 0.77978 0.0
H1810 H 0.58089 0.03076 0.74408 0.0
H1811 H 0.64349 0.0219 0.73585 0.0
H1812 H 0.75266 0.14516 0.75064 0.0
H1813 H 0.69069 0.15474 0.75899 0.0
C1814 C 0.3902 0.03434 0.74853 0.0
C1815 C 0.39269 0.05385 0.73945 0.0
C1816 C 0.43076 0.05196 0.75435 0.0
C1817 C 0.47516 0.08969 0.75125 0.0
C1818 C 0.47725 0.11106 0.74234 0.0
C1819 C 0.43623 0.09345 0.7365 0.0
C1820 C 0.51952 0.1017 0.75682 0.0
C1821 C 0.55659 0.09866 0.75222 0.0
C1822 C 0.52227 0.10868 0.76685 0.0
C1823 C 0.4865 0.11625 0.77206 0.0
C1824 C 0.4754 0.15102 0.76892 0.0
C1825 C 0.44141 0.1578 0.77377 0.0
C1826 C 0.41837 0.13016 0.78181 0.0
C1827 C 0.4293 0.09571 0.78501 0.0
C1828 C 0.46324 0.08875 0.78018 0.0
C1829 C 0.67258 0.09583 0.78759 0.0
C1830 C 0.66847 0.05093 0.78588 0.0
C1831 C 0.6499 0.11312 0.78145 0.0
C1832 C 0.62341 0.08604 0.77347 0.0
C1833 C 0.62135 0.04224 0.77164 0.0
C1834 C 0.64367 0.02513 0.77771 0.0
C1835 C 0.59357 0.09989 0.76753 0.0
C1836 C 0.55911 0.1075 0.77206 0.0
C1837 C 0.59362 0.09795 0.75742 0.0
C1838 C 0.6311 0.09343 0.75217 0.0
C1839 C 0.61824 0.05622 0.74553 0.0
C1840 C 0.65362 0.05088 0.74089 0.0
C1841 C 0.70202 0.0829 0.74273 0.0
C1842 C 0.71515 0.12032 0.74923 0.0
C1843 C 0.67991 0.12562 0.75395 0.0
H1844 H 0.72935 0.07877 0.73911 0.0
H1845 H 0.39206 0.13546 0.78555 0.0
H1846 H 0.6067 0.70739 0.954 0.0
H1847 H 0.53906 0.66793 0.94272 0.0
H1848 H 0.61061 0.60224 0.92858 0.0
H1849 H 0.67791 0.64281 0.93939 0.0
H1850 H 0.5654 0.61739 0.91595 0.0
H1851 H 0.52385 0.55005 0.94824 0.0
H1852 H 0.50892 0.5534 0.96543 0.0
H1853 H 0.40057 0.58914 0.9588 0.0
H1854 H 0.41538 0.58674 0.94159 0.0
H1855 H 0.37119 0.36147 0.91368 0.0
H1856 H 0.41433 0.4332 0.92352 0.0
H1857 H 0.40438 0.51856 0.90089 0.0
H1858 H 0.36072 0.44603 0.89098 0.0
H1859 H 0.40893 0.50743 0.93106 0.0
H1860 H 0.51721 0.61726 0.8986 0.0
H1861 H 0.53478 0.60325 0.88216 0.0
H1862 H 0.51603 0.4667 0.89051 0.0
H1863 H 0.49949 0.48042 0.90703 0.0
C1864 C 0.60855 0.68604 0.94823 0.0
C1865 C 0.64752 0.67807 0.94758 0.0
C1866 C 0.56958 0.66283 0.94187 0.0
C1867 C 0.56889 0.63095 0.93488 0.0
C1868 C 0.60969 0.62633 0.93386 0.0
C1869 C 0.64836 0.64959 0.94009 0.0
C1870 C 0.52525 0.59881 0.92908 0.0
C1871 C 0.53096 0.59412 0.91926 0.0
C1872 C 0.48005 0.56769 0.93331 0.0
C1873 C 0.47123 0.56896 0.94365 0.0
C1874 C 0.49715 0.55903 0.95046 0.0
C1875 C 0.48878 0.56085 0.9602 0.0
C1876 C 0.45414 0.57193 0.96319 0.0
C1877 C 0.42766 0.58098 0.95646 0.0
C1878 C 0.43603 0.57942 0.94672 0.0
C1879 C 0.37659 0.39528 0.91095 0.0
C1880 C 0.36245 0.39823 0.90161 0.0
C1881 C 0.40122 0.43634 0.91659 0.0
C1882 C 0.41317 0.48155 0.91295 0.0
C1883 C 0.39574 0.48413 0.90386 0.0
C1884 C 0.37049 0.44268 0.89822 0.0
C1885 C 0.44992 0.5254 0.91807 0.0
C1886 C 0.44286 0.53207 0.92771 0.0
C1887 C 0.49463 0.55718 0.91381 0.0
C1888 C 0.50631 0.54954 0.90398 0.0
C1889 C 0.51708 0.58439 0.89692 0.0
C1890 C 0.52691 0.5765 0.8876 0.0
C1891 C 0.52618 0.53395 0.88529 0.0
C1892 C 0.51635 0.49951 0.89231 0.0
C1893 C 0.50682 0.50736 0.90165 0.0
H1894 H 0.53311 0.52752 0.87806 0.0
H1895 H 0.44723 0.57281 0.97071 0.0
loop_
_geom_bond_atom_site_label_1
_geom_bond_atom_site_label_2
_geom_bond_distance
_geom_bond_site_symmetry_2
_ccdc_geom_bond_type
C0 C1 1.351 . S
C0 N3 1.368 . S
C0 H5 0.931 . S
C1 C0 1.351 . S
C1 N2 1.373 . S
C1 H29 0.930 . S
N2 C1 1.373 . S
N2 C4 1.340 . S
N3 C0 1.368 . S
N3 C4 1.321 . S
N3 Co6 2.135 . S
C4 N2 1.340 . S
C4 N3 1.321 . S
C4 H28 0.930 . S
H5 C0 0.931 . S
Co6 N3 2.135 . S
Co6 N9 2.121 1_455 S
Co6 O14 2.055 1_455 S
Co6 O17 2.039 1_455 S
Co6 N20 2.140 . S
C7 O8 1.227 1_655 S
C7 O17 1.265 . S
O8 C7 1.227 1_455 S
N9 Co6 2.121 1_655 S
N9 C11 1.375 . S
N9 C12 1.313 . S
C10 C11 1.338 . S
C10 N13 1.377 . S
C10 H30 0.930 . S
C11 N9 1.375 . S
C11 C10 1.338 . S
C11 H15 0.931 . S
C12 N9 1.313 . S
C12 N13 1.344 . S
C12 H16 0.930 . S
N13 C10 1.377 . S
N13 C12 1.344 . S
O14 Co6 2.055 1_655 S
O14 C18 1.253 1_655 S
H15 C11 0.931 . S
H16 C12 0.930 . S
O17 Co6 2.039 1_655 S
O17 C7 1.265 . S
C18 O14 1.253 1_455 S
C18 O19 1.227 . S
O19 C18 1.227 . S
N20 Co6 2.140 . S
N20 C23 1.346 . S
N20 C24 1.345 . S
C21 C22 1.387 . S
C21 C25 1.391 . S
C22 C21 1.387 . S
C22 C23 1.369 . S
C22 H31 0.929 . S
C23 N20 1.346 . S
C23 C22 1.369 . S
C23 H26 0.928 . S
C24 N20 1.345 . S
C24 C25 1.371 . S
C24 H27 0.931 . S
C25 C21 1.391 . S
C25 C24 1.371 . S
C25 H32 0.930 . S
H26 C23 0.928 . S
H27 C24 0.931 . S
H28 C4 0.930 . S
H29 C1 0.930 . S
H30 C10 0.930 . S
H31 C22 0.929 . S
H32 C25 0.930 . S
C33 C34 1.351 . S
C33 N36 1.368 . S
C33 H38 0.931 . S
C34 C33 1.351 . S
C34 N35 1.373 . S
C34 H62 0.930 . S
N35 C34 1.373 . S
N35 C37 1.340 . S
N36 C33 1.368 . S
N36 C37 1.321 . S
N36 Co39 2.135 . S
C37 N35 1.340 . S
C37 N36 1.321 . S
C37 H61 0.930 . S
H38 C33 0.931 . S
Co39 N36 2.135 . S
Co39 N42 2.121 1_545 S
Co39 O47 2.055 1_545 S
Co39 O50 2.039 1_545 S
Co39 N53 2.140 . S
C40 O41 1.227 1_565 S
C40 O50 1.265 . S
O41 C40 1.227 1_545 S
N42 Co39 2.121 1_565 S
N42 C44 1.375 . S
N42 C45 1.313 . S
C43 C44 1.338 . S
C43 N46 1.377 . S
C43 H63 0.930 . S
C44 N42 1.375 . S
C44 C43 1.338 . S
C44 H48 0.931 . S
C45 N42 1.313 . S
C45 N46 1.344 . S
C45 H49 0.930 . S
N46 C43 1.377 . S
N46 C45 1.344 . S
O47 Co39 2.055 1_565 S
O47 C51 1.253 1_565 S
H48 C44 0.931 . S
H49 C45 0.930 . S
O50 Co39 2.039 1_565 S
O50 C40 1.265 . S
C51 O47 1.253 1_545 S
C51 O52 1.227 . S
O52 C51 1.227 . S
N53 Co39 2.140 . S
N53 C56 1.346 . S
N53 C57 1.345 . S
C54 C55 1.387 . S
C54 C58 1.391 . S
C55 C54 1.387 . S
C55 C56 1.369 . S
C55 H64 0.929 . S
C56 N53 1.346 . S
C56 C55 1.369 . S
C56 H59 0.928 . S
C57 N53 1.345 . S
C57 C58 1.371 . S
C57 H60 0.931 . S
C58 C54 1.391 . S
C58 C57 1.371 . S
C58 H65 0.930 . S
H59 C56 0.928 . S
H60 C57 0.931 . S
H61 C37 0.930 . S
H62 C34 0.930 . S
H63 C43 0.930 . S
H64 C55 0.929 . S
H65 C58 0.930 . S
C66 C67 1.351 . S
C66 N69 1.368 . S
C66 H71 0.931 . S
C67 C66 1.351 . S
C67 N68 1.373 . S
C67 H95 0.930 . S
N68 C67 1.373 . S
N68 C70 1.340 . S
N69 C66 1.368 . S
N69 C70 1.321 . S
N69 Co72 2.135 . S
C70 N68 1.340 . S
C70 N69 1.321 . S
C70 H94 0.930 . S
H71 C66 0.931 . S
Co72 N69 2.135 . S
Co72 N75 2.121 . S
Co72 O80 2.055 . S
Co72 O83 2.039 . S
Co72 N86 2.140 . S
C73 O74 1.227 . S
C73 O83 1.265 . S
O74 C73 1.227 . S
N75 Co72 2.121 . S
N75 C77 1.375 . S
N75 C78 1.313 . S
C76 C77 1.338 . S
C76 N79 1.377 . S
C76 H96 0.930 . S
C77 N75 1.375 . S
C77 C76 1.338 . S
C77 H81 0.931 . S
C78 N75 1.313 . S
C78 N79 1.344 . S
C78 H82 0.930 . S
N79 C76 1.377 . S
N79 C78 1.344 . S
O80 Co72 2.055 . S
O80 C84 1.253 . S
H81 C77 0.931 . S
H82 C78 0.930 . S
O83 Co72 2.039 . S
O83 C73 1.265 . S
C84 O80 1.253 . S
C84 O85 1.227 . S
O85 C84 1.227 . S
N86 Co72 2.140 . S
N86 C89 1.346 . S
N86 C90 1.345 . S
C87 C88 1.387 . S
C87 C91 1.391 . S
C88 C87 1.387 . S
C88 C89 1.369 . S
C88 H97 0.929 . S
C89 N86 1.346 . S
C89 C88 1.369 . S
C89 H92 0.928 . S
C90 N86 1.345 . S
C90 C91 1.371 . S
C90 H93 0.931 . S
C91 C87 1.391 . S
C91 C90 1.371 . S
C91 H98 0.930 . S
H92 C89 0.928 . S
H93 C90 0.931 . S
H94 C70 0.930 . S
H95 C67 0.930 . S
H96 C76 0.930 . S
H97 C88 0.929 . S
H98 C91 0.930 . S
C99 C100 1.351 . S
C99 N102 1.368 . S
C99 H104 0.931 . S
C100 C99 1.351 . S
C100 N101 1.373 . S
C100 H128 0.930 . S
N101 C100 1.373 . S
N101 C103 1.340 . S
N102 C99 1.368 . S
N102 C103 1.321 . S
N102 Co105 2.135 . S
C103 N101 1.340 . S
C103 N102 1.321 . S
C103 H127 0.930 . S
H104 C99 0.931 . S
Co105 N102 2.135 . S
Co105 N108 2.121 1_655 S
Co105 O113 2.055 1_655 S
Co105 O116 2.039 1_655 S
Co105 N119 2.140 . S
C106 O107 1.227 1_455 S
C106 O116 1.265 . S
O107 C106 1.227 1_655 S
N108 Co105 2.121 1_455 S
N108 C110 1.375 . S
N108 C111 1.313 . S
C109 C110 1.338 . S
C109 N112 1.377 . S
C109 H129 0.930 . S
C110 N108 1.375 . S
C110 C109 1.338 . S
C110 H114 0.931 . S
C111 N108 1.313 . S
C111 N112 1.344 . S
C111 H115 0.930 . S
N112 C109 1.377 . S
N112 C111 1.344 . S
O113 Co105 2.055 1_455 S
O113 C117 1.253 1_455 S
H114 C110 0.931 . S
H115 C111 0.930 . S
O116 Co105 2.039 1_455 S
O116 C106 1.265 . S
C117 O113 1.253 1_655 S
C117 O118 1.227 . S
O118 C117 1.227 . S
N119 Co105 2.140 . S
N119 C122 1.346 . S
N119 C123 1.345 . S
C120 C121 1.387 . S
C120 C124 1.391 . S
C121 C120 1.387 . S
C121 C122 1.369 . S
C121 H130 0.929 . S
C122 N119 1.346 . S
C122 C121 1.369 . S
C122 H125 0.928 . S
C123 N119 1.345 . S
C123 C124 1.371 . S
C123 H126 0.931 . S
C124 C120 1.391 . S
C124 C123 1.371 . S
C124 H131 0.930 . S
H125 C122 0.928 . S
H126 C123 0.931 . S
H127 C103 0.930 . S
H128 C100 0.930 . S
H129 C109 0.930 . S
H130 C121 0.929 . S
H131 C124 0.930 . S
C132 C133 1.351 . S
C132 N135 1.368 . S
C132 H137 0.931 . S
C133 C132 1.351 . S
C133 N134 1.373 . S
C133 H161 0.930 . S
N134 C133 1.373 . S
N134 C136 1.340 . S
N135 C132 1.368 . S
N135 C136 1.321 . S
N135 Co138 2.135 . S
C136 N134 1.340 . S
C136 N135 1.321 . S
C136 H160 0.930 . S
H137 C132 0.931 . S
Co138 N135 2.135 . S
Co138 N141 2.121 1_565 S
Co138 O146 2.055 1_565 S
Co138 O149 2.039 1_565 S
Co138 N152 2.140 . S
C139 O140 1.227 1_545 S
C139 O149 1.265 . S
O140 C139 1.227 1_565 S
N141 Co138 2.121 1_545 S
N141 C143 1.375 . S
N141 C144 1.313 . S
C142 C143 1.338 . S
C142 N145 1.377 . S
C142 H162 0.930 . S
C143 N141 1.375 . S
C143 C142 1.338 . S
C143 H147 0.931 . S
C144 N141 1.313 . S
C144 N145 1.344 . S
C144 H148 0.930 . S
N145 C142 1.377 . S
N145 C144 1.344 . S
O146 Co138 2.055 1_545 S
O146 C150 1.253 1_545 S
H147 C143 0.931 . S
H148 C144 0.930 . S
O149 Co138 2.039 1_545 S
O149 C139 1.265 . S
C150 O146 1.253 1_565 S
C150 O151 1.227 . S
O151 C150 1.227 . S
N152 Co138 2.140 . S
N152 C155 1.346 . S
N152 C156 1.345 . S
C153 C154 1.387 . S
C153 C157 1.391 . S
C154 C153 1.387 . S
C154 C155 1.369 . S
C154 H163 0.929 . S
C155 N152 1.346 . S
C155 C154 1.369 . S
C155 H158 0.928 . S
C156 N152 1.345 . S
C156 C157 1.371 . S
C156 H159 0.931 . S
C157 C153 1.391 . S
C157 C156 1.371 . S
C157 H164 0.930 . S
H158 C155 0.928 . S
H159 C156 0.931 . S
H160 C136 0.930 . S
H161 C133 0.930 . S
H162 C142 0.930 . S
H163 C154 0.929 . S
H164 C157 0.930 . S
C165 C166 1.351 . S
C165 N168 1.368 . S
C165 H170 0.931 . S
C166 C165 1.351 . S
C166 N167 1.373 . S
C166 H194 0.930 . S
N167 C166 1.373 . S
N167 C169 1.340 . S
N168 C165 1.368 . S
N168 C169 1.321 . S
N168 Co171 2.135 . S
C169 N167 1.340 . S
C169 N168 1.321 . S
C169 H193 0.930 . S
H170 C165 0.931 . S
Co171 N168 2.135 . S
Co171 N174 2.121 . S
Co171 O179 2.055 . S
Co171 O182 2.039 . S
Co171 N185 2.140 . S
C172 O173 1.227 . S
C172 O182 1.265 . S
O173 C172 1.227 . S
N174 Co171 2.121 . S
N174 C176 1.375 . S
N174 C177 1.313 . S
C175 C176 1.338 . S
C175 N178 1.377 . S
C175 H195 0.930 . S
C176 N174 1.375 . S
C176 C175 1.338 . S
C176 H180 0.931 . S
C177 N174 1.313 . S
C177 N178 1.344 . S
C177 H181 0.930 . S
N178 C175 1.377 . S
N178 C177 1.344 . S
O179 Co171 2.055 . S
O179 C183 1.253 . S
H180 C176 0.931 . S
H181 C177 0.930 . S
O182 Co171 2.039 . S
O182 C172 1.265 . S
C183 O179 1.253 . S
C183 O184 1.227 . S
O184 C183 1.227 . S
N185 Co171 2.140 . S
N185 C188 1.346 . S
N185 C189 1.345 . S
C186 C187 1.387 . S
C186 C190 1.391 . S
C187 C186 1.387 . S
C187 C188 1.369 . S
C187 H196 0.929 . S
C188 N185 1.346 . S
C188 C187 1.369 . S
C188 H191 0.928 . S
C189 N185 1.345 . S
C189 C190 1.371 . S
C189 H192 0.931 . S
C190 C186 1.391 . S
C190 C189 1.371 . S
C190 H197 0.930 . S
H191 C188 0.928 . S
H192 C189 0.931 . S
H193 C169 0.930 . S
H194 C166 0.930 . S
H195 C175 0.930 . S
H196 C187 0.929 . S
H197 C190 0.930 . S
C198 C199 1.351 . S
C198 N201 1.368 . S
C198 H203 0.931 . S
C199 C198 1.351 . S
C199 N200 1.373 . S
C199 H227 0.930 . S
N200 C199 1.373 . S
N200 C202 1.340 . S
N201 C198 1.368 . S
N201 C202 1.321 . S
N201 Co204 2.135 . S
C202 N200 1.340 . S
C202 N201 1.321 . S
C202 H226 0.930 . S
H203 C198 0.931 . S
Co204 N201 2.135 . S
Co204 N207 2.121 1_565 S
Co204 O212 2.055 1_565 S
Co204 O215 2.039 1_565 S
Co204 N218 2.140 . S
C205 O206 1.227 1_545 S
C205 O215 1.265 . S
O206 C205 1.227 1_565 S
N207 Co204 2.121 1_545 S
N207 C209 1.375 . S
N207 C210 1.313 . S
C208 C209 1.338 . S
C208 N211 1.377 . S
C208 H228 0.930 . S
C209 N207 1.375 . S
C209 C208 1.338 . S
C209 H213 0.931 . S
C210 N207 1.313 . S
C210 N211 1.344 . S
C210 H214 0.930 . S
N211 C208 1.377 . S
N211 C210 1.344 . S
O212 Co204 2.055 1_545 S
O212 C216 1.253 1_545 S
H213 C209 0.931 . S
H214 C210 0.930 . S
O215 Co204 2.039 1_545 S
O215 C205 1.265 . S
C216 O212 1.253 1_565 S
C216 O217 1.227 . S
O217 C216 1.227 . S
N218 Co204 2.140 . S
N218 C221 1.346 . S
N218 C222 1.345 . S
C219 C220 1.387 . S
C219 C223 1.391 . S
C220 C219 1.387 . S
C220 C221 1.369 . S
C220 H229 0.929 . S
C221 N218 1.346 . S
C221 C220 1.369 . S
C221 H224 0.928 . S
C222 N218 1.345 . S
C222 C223 1.371 . S
C222 H225 0.931 . S
C223 C219 1.391 . S
C223 C222 1.371 . S
C223 H230 0.930 . S
H224 C221 0.928 . S
H225 C222 0.931 . S
H226 C202 0.930 . S
H227 C199 0.930 . S
H228 C208 0.930 . S
H229 C220 0.929 . S
H230 C223 0.930 . S
C231 C232 1.351 . S
C231 N234 1.368 . S
C231 H236 0.931 . S
C232 C231 1.351 . S
C232 N233 1.373 . S
C232 H260 0.930 . S
N233 C232 1.373 . S
N233 C235 1.340 . S
N234 C231 1.368 . S
N234 C235 1.321 . S
N234 Co237 2.135 . S
C235 N233 1.340 . S
C235 N234 1.321 . S
C235 H259 0.930 . S
H236 C231 0.931 . S
Co237 N234 2.135 . S
Co237 N240 2.121 . S
Co237 O245 2.055 . S
Co237 O248 2.039 . S
Co237 N251 2.140 . S
C238 O239 1.227 . S
C238 O248 1.265 . S
O239 C238 1.227 . S
N240 Co237 2.121 . S
N240 C242 1.375 . S
N240 C243 1.313 . S
C241 C242 1.338 . S
C241 N244 1.377 . S
C241 H261 0.930 . S
C242 N240 1.375 . S
C242 C241 1.338 . S
C242 H246 0.931 . S
C243 N240 1.313 . S
C243 N244 1.344 . S
C243 H247 0.930 . S
N244 C241 1.377 . S
N244 C243 1.344 . S
O245 Co237 2.055 . S
O245 C249 1.253 . S
H246 C242 0.931 . S
H247 C243 0.930 . S
O248 Co237 2.039 . S
O248 C238 1.265 . S
C249 O245 1.253 . S
C249 O250 1.227 . S
O250 C249 1.227 . S
N251 Co237 2.140 . S
N251 C254 1.346 . S
N251 C255 1.345 . S
C252 C253 1.387 . S
C252 C256 1.391 . S
C253 C252 1.387 . S
C253 C254 1.369 . S
C253 H262 0.929 . S
C254 N251 1.346 . S
C254 C253 1.369 . S
C254 H257 0.928 . S
C255 N251 1.345 . S
C255 C256 1.371 . S
C255 H258 0.931 . S
C256 C252 1.391 . S
C256 C255 1.371 . S
C256 H263 0.930 . S
H257 C254 0.928 . S
H258 C255 0.931 . S
H259 C235 0.930 . S
H260 C232 0.930 . S
H261 C241 0.930 . S
H262 C253 0.929 . S
H263 C256 0.930 . S
C264 C265 1.351 . S
C264 N267 1.368 . S
C264 H269 0.931 . S
C265 C264 1.351 . S
C265 N266 1.373 . S
C265 H293 0.930 . S
N266 C265 1.373 . S
N266 C268 1.340 . S
N267 C264 1.368 . S
N267 C268 1.321 . S
N267 Co270 2.135 . S
C268 N266 1.340 . S
C268 N267 1.321 . S
C268 H292 0.930 . S
H269 C264 0.931 . S
Co270 N267 2.135 . S
Co270 N273 2.121 1_455 S
Co270 O278 2.055 1_455 S
Co270 O281 2.039 1_455 S
Co270 N284 2.140 . S
C271 O272 1.227 1_655 S
C271 O281 1.265 . S
O272 C271 1.227 1_455 S
N273 Co270 2.121 1_655 S
N273 C275 1.375 . S
N273 C276 1.313 . S
C274 C275 1.338 . S
C274 N277 1.377 . S
C274 H294 0.930 . S
C275 N273 1.375 . S
C275 C274 1.338 . S
C275 H279 0.931 . S
C276 N273 1.313 . S
C276 N277 1.344 . S
C276 H280 0.930 . S
N277 C274 1.377 . S
N277 C276 1.344 . S
O278 Co270 2.055 1_655 S
O278 C282 1.253 1_655 S
H279 C275 0.931 . S
H280 C276 0.930 . S
O281 Co270 2.039 1_655 S
O281 C271 1.265 . S
C282 O278 1.253 1_455 S
C282 O283 1.227 . S
O283 C282 1.227 . S
N284 Co270 2.140 . S
N284 C287 1.346 . S
N284 C288 1.345 . S
C285 C286 1.387 . S
C285 C289 1.391 . S
C286 C285 1.387 . S
C286 C287 1.369 . S
C286 H295 0.929 . S
C287 N284 1.346 . S
C287 C286 1.369 . S
C287 H290 0.928 . S
C288 N284 1.345 . S
C288 C289 1.371 . S
C288 H291 0.931 . S
C289 C285 1.391 . S
C289 C288 1.371 . S
C289 H296 0.930 . S
H290 C287 0.928 . S
H291 C288 0.931 . S
H292 C268 0.930 . S
H293 C265 0.930 . S
H294 C274 0.930 . S
H295 C286 0.929 . S
H296 C289 0.930 . S
C297 C298 1.351 . S
C297 N300 1.368 . S
C297 H302 0.931 . S
C298 C297 1.351 . S
C298 N299 1.373 . S
C298 H326 0.930 . S
N299 C298 1.373 . S
N299 C301 1.340 . S
N300 C297 1.368 . S
N300 C301 1.321 . S
N300 Co303 2.135 . S
C301 N299 1.340 . S
C301 N300 1.321 . S
C301 H325 0.930 . S
H302 C297 0.931 . S
Co303 N300 2.135 . S
Co303 N306 2.121 1_545 S
Co303 O311 2.055 1_545 S
Co303 O314 2.039 1_545 S
Co303 N317 2.140 . S
C304 O305 1.227 1_565 S
C304 O314 1.265 . S
O305 C304 1.227 1_545 S
N306 Co303 2.121 1_565 S
N306 C308 1.375 . S
N306 C309 1.313 . S
C307 C308 1.338 . S
C307 N310 1.377 . S
C307 H327 0.930 . S
C308 N306 1.375 . S
C308 C307 1.338 . S
C308 H312 0.931 . S
C309 N306 1.313 . S
C309 N310 1.344 . S
C309 H313 0.930 . S
N310 C307 1.377 . S
N310 C309 1.344 . S
O311 Co303 2.055 1_565 S
O311 C315 1.253 1_565 S
H312 C308 0.931 . S
H313 C309 0.930 . S
O314 Co303 2.039 1_565 S
O314 C304 1.265 . S
C315 O311 1.253 1_545 S
C315 O316 1.227 . S
O316 C315 1.227 . S
N317 Co303 2.140 . S
N317 C320 1.346 . S
N317 C321 1.345 . S
C318 C319 1.387 . S
C318 C322 1.391 . S
C319 C318 1.387 . S
C319 C320 1.369 . S
C319 H328 0.929 . S
C320 N317 1.346 . S
C320 C319 1.369 . S
C320 H323 0.928 . S
C321 N317 1.345 . S
C321 C322 1.371 . S
C321 H324 0.931 . S
C322 C318 1.391 . S
C322 C321 1.371 . S
C322 H329 0.930 . S
H323 C320 0.928 . S
H324 C321 0.931 . S
H325 C301 0.930 . S
H326 C298 0.930 . S
H327 C307 0.930 . S
H328 C319 0.929 . S
H329 C322 0.930 . S
C330 C331 1.351 . S
C330 N333 1.368 . S
C330 H335 0.931 . S
C331 C330 1.351 . S
C331 N332 1.373 . S
C331 H359 0.930 . S
N332 C331 1.373 . S
N332 C334 1.340 . S
N333 C330 1.368 . S
N333 C334 1.321 . S
N333 Co336 2.135 . S
C334 N332 1.340 . S
C334 N333 1.321 . S
C334 H358 0.930 . S
H335 C330 0.931 . S
Co336 N333 2.135 . S
Co336 N339 2.121 . S
Co336 O344 2.055 . S
Co336 O347 2.039 . S
Co336 N350 2.140 . S
C337 O338 1.227 . S
C337 O347 1.265 . S
O338 C337 1.227 . S
N339 Co336 2.121 . S
N339 C341 1.375 . S
N339 C342 1.313 . S
C340 C341 1.338 . S
C340 N343 1.377 . S
C340 H360 0.930 . S
C341 N339 1.375 . S
C341 C340 1.338 . S
C341 H345 0.931 . S
C342 N339 1.313 . S
C342 N343 1.344 . S
C342 H346 0.930 . S
N343 C340 1.377 . S
N343 C342 1.344 . S
O344 Co336 2.055 . S
O344 C348 1.253 . S
H345 C341 0.931 . S
H346 C342 0.930 . S
O347 Co336 2.039 . S
O347 C337 1.265 . S
C348 O344 1.253 . S
C348 O349 1.227 . S
O349 C348 1.227 . S
N350 Co336 2.140 . S
N350 C353 1.346 . S
N350 C354 1.345 . S
C351 C352 1.387 . S
C351 C355 1.391 . S
C352 C351 1.387 . S
C352 C353 1.369 . S
C352 H361 0.929 . S
C353 N350 1.346 . S
C353 C352 1.369 . S
C353 H356 0.928 . S
C354 N350 1.345 . S
C354 C355 1.371 . S
C354 H357 0.931 . S
C355 C351 1.391 . S
C355 C354 1.371 . S
C355 H362 0.930 . S
H356 C353 0.928 . S
H357 C354 0.931 . S
H358 C334 0.930 . S
H359 C331 0.930 . S
H360 C340 0.930 . S
H361 C352 0.929 . S
H362 C355 0.930 . S
C363 C364 1.351 . S
C363 N366 1.368 . S
C363 H368 0.931 . S
C364 C363 1.351 . S
C364 N365 1.373 . S
C364 H392 0.930 . S
N365 C364 1.373 . S
N365 C367 1.340 . S
N366 C363 1.368 . S
N366 C367 1.321 . S
N366 Co369 2.135 . S
C367 N365 1.340 . S
C367 N366 1.321 . S
C367 H391 0.930 . S
H368 C363 0.931 . S
Co369 N366 2.135 . S
Co369 N372 2.121 1_655 S
Co369 O377 2.055 1_655 S
Co369 O380 2.039 1_655 S
Co369 N383 2.140 . S
C370 O371 1.227 1_455 S
C370 O380 1.265 . S
O371 C370 1.227 1_655 S
N372 Co369 2.121 1_455 S
N372 C374 1.375 . S
N372 C375 1.313 . S
C373 C374 1.338 . S
C373 N376 1.377 . S
C373 H393 0.930 . S
C374 N372 1.375 . S
C374 C373 1.338 . S
C374 H378 0.931 . S
C375 N372 1.313 . S
C375 N376 1.344 . S
C375 H379 0.930 . S
N376 C373 1.377 . S
N376 C375 1.344 . S
O377 Co369 2.055 1_455 S
O377 C381 1.253 1_455 S
H378 C374 0.931 . S
H379 C375 0.930 . S
O380 Co369 2.039 1_455 S
O380 C370 1.265 . S
C381 O377 1.253 1_655 S
C381 O382 1.227 . S
O382 C381 1.227 . S
N383 Co369 2.140 . S
N383 C386 1.346 . S
N383 C387 1.345 . S
C384 C385 1.387 . S
C384 C388 1.391 . S
C385 C384 1.387 . S
C385 C386 1.369 . S
C385 H394 0.929 . S
C386 N383 1.346 . S
C386 C385 1.369 . S
C386 H389 0.928 . S
C387 N383 1.345 . S
C387 C388 1.371 . S
C387 H390 0.931 . S
C388 C384 1.391 . S
C388 C387 1.371 . S
C388 H395 0.930 . S
H389 C386 0.928 . S
H390 C387 0.931 . S
H391 C367 0.930 . S
H392 C364 0.930 . S
H393 C373 0.930 . S
H394 C385 0.929 . S
H395 C388 0.930 . S
H396 C414 0.951 . S
H397 C416 0.951 . S
H398 C418 1.014 . S
H399 C419 0.950 . S
H400 C421 0.950 . S
H401 C424 0.950 . S
H402 C425 0.950 . S
H403 C427 0.950 1_445 S
H404 C428 0.950 . S
H405 C429 0.951 . S
H406 C431 0.951 . S
H407 C433 1.014 . S
H408 C434 0.950 . S
H409 C436 0.950 . S
H410 C439 0.950 . S
H411 C440 0.950 . S
H412 C442 0.950 1_565 S
H413 C443 0.950 . S
C414 H396 0.951 . S
C414 C415 1.366 . S
C414 C416 1.388 . S
C415 C414 1.366 . S
C415 C419 1.385 . S
C416 H397 0.951 . S
C416 C414 1.388 . S
C416 C417 1.366 . S
C417 C416 1.366 . S
C417 C418 1.414 . S
C417 C420 1.499 . S
C418 H398 1.014 . S
C418 C417 1.414 . S
C418 C419 1.374 . S
C419 H399 0.950 . S
C419 C415 1.385 . S
C419 C418 1.374 . S
C420 C417 1.499 . S
C420 C421 1.390 . S
C420 C422 1.389 . S
C421 H400 0.950 . S
C421 C420 1.390 . S
C421 C437 1.359 1_566 S
C422 C420 1.389 . S
C422 C423 1.524 . S
C422 C436 1.359 1_566 S
C423 C422 1.524 . S
C423 C424 1.397 . S
C423 C428 1.363 1_565 S
C424 H401 0.950 . S
C424 C423 1.397 . S
C424 C425 1.334 . S
C425 H402 0.950 . S
C425 C424 1.334 . S
C425 C426 1.287 . S
C426 C425 1.287 . S
C426 C427 1.524 . S
C426 H445 0.913 1_655 S
C427 H403 0.950 1_665 S
C427 C426 1.524 . S
C427 C428 1.415 1_565 S
C428 H404 0.950 . S
C428 C423 1.363 1_545 S
C428 C427 1.415 1_545 S
C429 H405 0.951 . S
C429 C430 1.366 . S
C429 C431 1.388 . S
C430 C429 1.366 . S
C430 C434 1.385 . S
C431 H406 0.951 . S
C431 C429 1.388 . S
C431 C432 1.366 . S
C432 C431 1.366 . S
C432 C433 1.414 . S
C432 C435 1.499 . S
C433 H407 1.014 . S
C433 C432 1.414 . S
C433 C434 1.374 . S
C434 H408 0.950 . S
C434 C430 1.385 . S
C434 C433 1.374 . S
C435 C432 1.499 . S
C435 C436 1.390 . S
C435 C437 1.389 . S
C436 H409 0.950 . S
C436 C422 1.359 1_544 S
C436 C435 1.390 . S
C437 C421 1.359 1_544 S
C437 C435 1.389 . S
C437 C438 1.524 . S
C438 C437 1.524 . S
C438 C439 1.397 . S
C438 C443 1.363 1_545 S
C439 H410 0.950 . S
C439 C438 1.397 . S
C439 C440 1.334 . S
C440 H411 0.950 . S
C440 C439 1.334 . S
C440 C441 1.287 . S
C441 C440 1.287 . S
C441 C442 1.524 . S
C441 H444 0.999 . S
C442 H412 0.950 1_545 S
C442 C441 1.524 . S
C442 C443 1.415 1_545 S
C443 H413 0.950 . S
C443 C438 1.363 1_565 S
C443 C442 1.415 1_565 S
H444 C441 0.999 . S
H445 C426 0.913 1_455 S
H446 C464 0.951 . S
H447 C466 0.951 . S
H448 C468 0.950 . S
H449 C469 0.950 . S
H450 C471 0.950 . S
H451 C474 0.950 . S
H452 C475 0.956 . S
H453 C477 0.950 . S
H454 C478 0.950 . S
H455 C479 0.951 . S
H456 C481 0.951 . S
H457 C483 0.950 . S
H458 C484 0.950 1_545 S
H459 C486 0.950 . S
H460 C489 0.950 . S
H461 C490 0.950 . S
H462 C492 0.950 . S
H463 C493 0.950 . S
C464 H446 0.951 . S
C464 C465 1.366 . S
C464 C466 1.388 . S
C465 C464 1.366 . S
C465 C469 1.385 . S
C466 H447 0.951 . S
C466 C464 1.388 . S
C466 C467 1.366 . S
C467 C466 1.366 . S
C467 C468 1.414 . S
C467 C470 1.499 . S
C468 H448 0.950 . S
C468 C467 1.414 . S
C468 C469 1.374 . S
C469 H449 0.950 . S
C469 C465 1.385 . S
C469 C468 1.374 . S
C470 C467 1.499 . S
C470 C471 1.373 . S
C470 C472 1.389 . S
C471 H450 0.950 . S
C471 C470 1.373 . S
C471 C487 1.377 . S
C472 C470 1.389 . S
C472 C473 1.524 . S
C472 C486 1.377 . S
C473 C472 1.524 . S
C473 C474 1.397 . S
C473 C478 1.363 . S
C474 H451 0.950 . S
C474 C473 1.397 . S
C474 C475 1.326 1_655 S
C475 H452 0.956 . S
C475 C474 1.326 1_455 S
C475 C476 1.289 . S
C476 C475 1.289 . S
C476 C477 1.524 . S
C476 H495 0.913 . S
C477 H453 0.950 . S
C477 C476 1.524 . S
C477 C478 1.415 1_455 S
C478 H454 0.950 . S
C478 C473 1.363 . S
C478 C477 1.415 1_655 S
C479 H455 0.951 . S
C479 C480 1.366 . S
C479 C481 1.388 . S
C480 C479 1.366 . S
C480 C484 1.385 . S
C481 H456 0.951 . S
C481 C479 1.388 . S
C481 C482 1.366 . S
C482 C481 1.366 . S
C482 C483 1.414 . S
C482 C485 1.499 . S
C483 H457 0.950 . S
C483 C482 1.414 . S
C483 C484 1.374 . S
C484 H458 0.950 1_565 S
C484 C480 1.385 . S
C484 C483 1.374 . S
C485 C482 1.499 . S
C485 C486 1.373 . S
C485 C487 1.389 . S
C486 H459 0.950 . S
C486 C472 1.377 . S
C486 C485 1.373 . S
C487 C471 1.377 . S
C487 C485 1.389 . S
C487 C488 1.524 . S
C488 C487 1.524 . S
C488 C489 1.397 . S
C488 C493 1.363 . S
C489 H460 0.950 . S
C489 C488 1.397 . S
C489 C490 1.334 . S
C490 H461 0.950 . S
C490 C489 1.334 . S
C490 C491 1.287 . S
C491 C490 1.287 . S
C491 C492 1.524 . S
C491 H494 0.999 . S
C492 H462 0.950 . S
C492 C491 1.524 . S
C492 C493 1.415 . S
C493 H463 0.950 . S
C493 C488 1.363 . S
C493 C492 1.415 . S
H494 C491 0.999 . S
H495 C476 0.913 . S
H496 C514 0.951 . S
H497 C516 0.951 . S
H498 C518 0.950 . S
H499 C519 0.950 . S
H500 C521 0.951 . S
H501 C524 0.950 . S
H502 C525 0.950 . S
H503 C527 0.950 . S
H504 C528 0.950 . S
H505 C529 0.951 . S
H506 C531 0.951 . S
H507 C533 0.950 . S
H508 C534 0.950 . S
H509 C536 0.951 . S
H510 C539 0.950 . S
H511 C540 0.950 . S
H512 C542 0.950 . S
H513 C543 0.950 . S
C514 H496 0.951 . S
C514 C515 1.366 . S
C514 C516 1.388 . S
C515 C514 1.366 . S
C515 C519 1.385 . S
C516 H497 0.951 . S
C516 C514 1.388 . S
C516 C517 1.366 . S
C517 C516 1.366 . S
C517 C518 1.414 . S
C517 C520 1.499 . S
C518 H498 0.950 . S
C518 C517 1.414 . S
C518 C519 1.374 . S
C519 H499 0.950 . S
C519 C515 1.385 . S
C519 C518 1.374 . S
C520 C517 1.499 . S
C520 C521 1.382 . S
C520 C522 1.389 . S
C521 H500 0.951 . S
C521 C520 1.382 . S
C521 C537 1.367 1_655 S
C522 C520 1.389 . S
C522 C523 1.524 . S
C522 C536 1.372 1_655 S
C523 C522 1.524 . S
C523 C524 1.397 . S
C523 C528 1.363 . S
C524 H501 0.950 . S
C524 C523 1.397 . S
C524 C525 1.334 . S
C525 H502 0.950 . S
C525 C524 1.334 . S
C525 C526 1.287 . S
C526 C525 1.287 . S
C526 C527 1.524 . S
C526 H545 0.913 . S
C527 H503 0.950 . S
C527 C526 1.524 . S
C527 C528 1.415 . S
C528 H504 0.950 . S
C528 C523 1.363 . S
C528 C527 1.415 . S
C529 H505 0.951 . S
C529 C530 1.366 . S
C529 C531 1.388 . S
C530 C529 1.366 . S
C530 C534 1.385 . S
C531 H506 0.951 . S
C531 C529 1.388 . S
C531 C532 1.366 . S
C532 C531 1.366 . S
C532 C533 1.414 . S
C532 C535 1.499 . S
C533 H507 0.950 . S
C533 C532 1.414 . S
C533 C534 1.374 . S
C534 H508 0.950 . S
C534 C530 1.385 . S
C534 C533 1.374 . S
C535 C532 1.499 . S
C535 C536 1.377 . S
C535 C537 1.389 . S
C536 H509 0.951 . S
C536 C522 1.372 1_455 S
C536 C535 1.377 . S
C537 C521 1.367 1_455 S
C537 C535 1.389 . S
C537 C538 1.524 . S
C538 C537 1.524 . S
C538 C539 1.397 . S
C538 C543 1.363 . S
C539 H510 0.950 . S
C539 C538 1.397 . S
C539 C540 1.334 1_565 S
C540 H511 0.950 . S
C540 C539 1.334 1_545 S
C540 C541 1.287 . S
C541 C540 1.287 . S
C541 C542 1.524 1_545 S
C541 H544 0.999 . S
C542 H512 0.950 . S
C542 C541 1.524 1_565 S
C542 C543 1.415 . S
C543 H513 0.950 . S
C543 C538 1.363 . S
C543 C542 1.415 . S
H544 C541 0.999 . S
H545 C526 0.913 . S
H546 C564 0.951 . S
H547 C566 0.951 . S
H548 C568 0.950 . S
H549 C569 0.950 . S
H550 C571 0.950 . S
H551 C574 0.950 . S
H552 C575 0.950 . S
H553 C577 0.950 . S
H554 C578 0.950 . S
H555 C579 0.951 . S
H556 C581 0.951 . S
H557 C583 0.950 . S
H558 C584 0.950 . S
H559 C586 0.950 . S
H560 C589 0.950 . S
H561 C590 0.950 . S
H562 C592 0.950 . S
H563 C593 0.950 . S
C564 H546 0.951 . S
C564 C565 1.366 . S
C564 C566 1.388 . S
C565 C564 1.366 . S
C565 C569 1.385 . S
C566 H547 0.951 . S
C566 C564 1.388 . S
C566 C567 1.366 . S
C567 C566 1.366 . S
C567 C568 1.414 . S
C567 C570 1.499 . S
C568 H548 0.950 . S
C568 C567 1.414 . S
C568 C569 1.374 . S
C569 H549 0.950 . S
C569 C565 1.385 . S
C569 C568 1.374 . S
C570 C567 1.499 . S
C570 C571 1.373 . S
C570 C572 1.389 . S
C571 H550 0.950 . S
C571 C570 1.373 . S
C571 C587 1.377 1_545 S
C572 C570 1.389 . S
C572 C573 1.524 . S
C572 C586 1.377 1_545 S
C573 C572 1.524 . S
C573 C574 1.397 . S
C573 C578 1.363 . S
C574 H551 0.950 . S
C574 C573 1.397 . S
C574 C575 1.334 . S
C575 H552 0.950 . S
C575 C574 1.334 . S
C575 C576 1.287 . S
C576 C575 1.287 . S
C576 C577 1.524 . S
C576 H595 0.913 . S
C577 H553 0.950 . S
C577 C576 1.524 . S
C577 C578 1.415 . S
C578 H554 0.950 . S
C578 C573 1.363 . S
C578 C577 1.415 . S
C579 H555 0.951 . S
C579 C580 1.366 . S
C579 C581 1.388 . S
C580 C579 1.366 . S
C580 C584 1.385 . S
C581 H556 0.951 . S
C581 C579 1.388 . S
C581 C582 1.366 . S
C582 C581 1.366 . S
C582 C583 1.414 . S
C582 C585 1.499 . S
C583 H557 0.950 . S
C583 C582 1.414 . S
C583 C584 1.374 . S
C584 H558 0.950 . S
C584 C580 1.385 . S
C584 C583 1.374 . S
C585 C582 1.499 . S
C585 C586 1.373 . S
C585 C587 1.389 . S
C586 H559 0.950 . S
C586 C572 1.377 1_565 S
C586 C585 1.373 . S
C587 C571 1.377 1_565 S
C587 C585 1.389 . S
C587 C588 1.524 . S
C588 C587 1.524 . S
C588 C589 1.397 . S
C588 C593 1.363 . S
C589 H560 0.950 . S
C589 C588 1.397 . S
C589 C590 1.334 1_455 S
C590 H561 0.950 . S
C590 C589 1.334 1_655 S
C590 C591 1.287 . S
C591 C590 1.287 . S
C591 C592 1.524 . S
C591 H594 0.999 . S
C592 H562 0.950 . S
C592 C591 1.524 . S
C592 C593 1.415 1_655 S
C593 H563 0.950 . S
C593 C588 1.363 . S
C593 C592 1.415 1_455 S
H594 C591 0.999 . S
H595 C576 0.913 . S
H596 C614 0.951 . S
H597 C616 0.951 . S
H598 C618 0.950 . S
H599 C619 0.950 . S
H600 C621 0.950 . S
H601 C624 0.950 . S
H602 C625 0.950 . S
H603 C627 0.950 . S
H604 C628 0.950 . S
H605 C629 0.951 . S
H606 C631 0.951 . S
H607 C633 0.950 . S
H608 C634 0.950 . S
H609 C636 0.950 . S
H610 C639 0.950 . S
H611 C640 0.950 . S
H612 C642 0.950 . S
H613 C643 0.950 . S
C614 H596 0.951 . S
C614 C615 1.366 . S
C614 C616 1.388 . S
C615 C614 1.366 . S
C615 C619 1.385 . S
C616 H597 0.951 . S
C616 C614 1.388 . S
C616 C617 1.366 . S
C617 C616 1.366 . S
C617 C618 1.414 . S
C617 C620 1.499 . S
C618 H598 0.950 . S
C618 C617 1.414 . S
C618 C619 1.374 . S
C619 H599 0.950 . S
C619 C615 1.385 . S
C619 C618 1.374 . S
C620 C617 1.499 . S
C620 C621 1.373 . S
C620 C622 1.389 . S
C621 H600 0.950 . S
C621 C620 1.373 . S
C621 C637 1.377 . S
C622 C620 1.389 . S
C622 C623 1.524 . S
C622 C636 1.377 . S
C623 C622 1.524 . S
C623 C624 1.397 . S
C623 C628 1.363 . S
C624 H601 0.950 . S
C624 C623 1.397 . S
C624 C625 1.334 . S
C625 H602 0.950 . S
C625 C624 1.334 . S
C625 C626 1.287 . S
C626 C625 1.287 . S
C626 C627 1.524 . S
C626 H645 0.913 . S
C627 H603 0.950 . S
C627 C626 1.524 . S
C627 C628 1.415 . S
C628 H604 0.950 . S
C628 C623 1.363 . S
C628 C627 1.415 . S
C629 H605 0.951 . S
C629 C630 1.366 . S
C629 C631 1.388 . S
C630 C629 1.366 . S
C630 C634 1.385 . S
C631 H606 0.951 . S
C631 C629 1.388 . S
C631 C632 1.366 . S
C632 C631 1.366 . S
C632 C633 1.414 . S
C632 C635 1.499 . S
C633 H607 0.950 . S
C633 C632 1.414 . S
C633 C634 1.374 . S
C634 H608 0.950 . S
C634 C630 1.385 . S
C634 C633 1.374 . S
C635 C632 1.499 . S
C635 C636 1.373 . S
C635 C637 1.389 . S
C636 H609 0.950 . S
C636 C622 1.377 . S
C636 C635 1.373 . S
C637 C621 1.377 . S
C637 C635 1.389 . S
C637 C638 1.524 . S
C638 C637 1.524 . S
C638 C639 1.397 . S
C638 C643 1.363 . S
C639 H610 0.950 . S
C639 C638 1.397 . S
C639 C640 1.334 1_455 S
C640 H611 0.950 . S
C640 C639 1.334 1_655 S
C640 C641 1.287 . S
C641 C640 1.287 . S
C641 C642 1.524 . S
C641 H644 0.999 . S
C642 H612 0.950 . S
C642 C641 1.524 . S
C642 C643 1.415 1_655 S
C643 H613 0.950 . S
C643 C638 1.363 . S
C643 C642 1.415 1_455 S
H644 C641 0.999 . S
H645 C626 0.913 . S
H646 C664 0.951 . S
H647 C666 0.951 . S
H648 C668 0.950 . S
H649 C669 0.950 . S
H650 C671 0.950 . S
H651 C674 0.950 . S
H652 C675 0.950 . S
H653 C677 0.950 . S
H654 C678 0.950 . S
H655 C679 0.951 . S
H656 C681 0.951 . S
H657 C683 0.950 . S
H658 C684 0.950 . S
H659 C686 0.950 . S
H660 C689 0.950 . S
H661 C690 0.950 . S
H662 C692 0.950 . S
H663 C693 0.950 . S
C664 H646 0.951 . S
C664 C665 1.366 . S
C664 C666 1.388 . S
C665 C664 1.366 . S
C665 C669 1.385 . S
C666 H647 0.951 . S
C666 C664 1.388 . S
C666 C667 1.366 . S
C667 C666 1.366 . S
C667 C668 1.414 . S
C667 C670 1.499 . S
C668 H648 0.950 . S
C668 C667 1.414 . S
C668 C669 1.374 . S
C669 H649 0.950 . S
C669 C665 1.385 . S
C669 C668 1.374 . S
C670 C667 1.499 . S
C670 C671 1.373 . S
C670 C672 1.389 . S
C671 H650 0.950 . S
C671 C670 1.373 . S
C671 C687 1.377 1_655 S
C672 C670 1.389 . S
C672 C673 1.524 . S
C672 C686 1.377 1_655 S
C673 C672 1.524 . S
C673 C674 1.397 . S
C673 C678 1.363 . S
C674 H651 0.950 . S
C674 C673 1.397 . S
C674 C675 1.334 . S
C675 H652 0.950 . S
C675 C674 1.334 . S
C675 C676 1.287 . S
C676 C675 1.287 . S
C676 C677 1.524 . S
C676 H695 0.913 . S
C677 H653 0.950 . S
C677 C676 1.524 . S
C677 C678 1.415 . S
C678 H654 0.950 . S
C678 C673 1.363 . S
C678 C677 1.415 . S
C679 H655 0.951 . S
C679 C680 1.366 . S
C679 C681 1.388 . S
C680 C679 1.366 . S
C680 C684 1.385 . S
C681 H656 0.951 . S
C681 C679 1.388 . S
C681 C682 1.366 . S
C682 C681 1.366 . S
C682 C683 1.414 . S
C682 C685 1.499 . S
C683 H657 0.950 . S
C683 C682 1.414 . S
C683 C684 1.374 . S
C684 H658 0.950 . S
C684 C680 1.385 . S
C684 C683 1.374 . S
C685 C682 1.499 . S
C685 C686 1.373 . S
C685 C687 1.389 . S
C686 H659 0.950 . S
C686 C672 1.377 1_455 S
C686 C685 1.373 . S
C687 C671 1.377 1_455 S
C687 C685 1.389 . S
C687 C688 1.524 . S
C688 C687 1.524 . S
C688 C689 1.397 . S
C688 C693 1.363 . S
C689 H660 0.950 . S
C689 C688 1.397 . S
C689 C690 1.334 . S
C690 H661 0.950 . S
C690 C689 1.334 . S
C690 C691 1.287 . S
C691 C690 1.287 . S
C691 C692 1.524 . S
C691 H694 1.000 . S
C692 H662 0.950 . S
C692 C691 1.524 . S
C692 C693 1.415 . S
C693 H663 0.950 . S
C693 C688 1.363 . S
C693 C692 1.415 . S
H694 C691 1.000 . S
H695 C676 0.913 . S
H696 C714 0.951 . S
H697 C716 0.951 . S
H698 C718 0.950 . S
H699 C719 0.950 . S
H700 C721 0.950 . S
H701 C724 0.950 1_455 S
H702 C725 0.950 . S
H703 C727 0.950 . S
H704 C728 0.950 . S
H705 C729 0.951 . S
H706 C731 0.951 1_545 S
H707 C733 0.950 . S
H708 C734 0.950 . S
H709 C736 0.950 1_655 S
H710 C739 0.950 . S
H711 C740 0.950 . S
H712 C742 0.950 . S
H713 C743 0.950 . S
C714 H696 0.951 . S
C714 C715 1.366 . S
C714 C716 1.388 . S
C715 C714 1.366 . S
C715 C719 1.385 . S
C716 H697 0.951 . S
C716 C714 1.388 . S
C716 C717 1.366 . S
C717 C716 1.366 . S
C717 C718 1.414 . S
C717 C720 1.499 . S
C718 H698 0.950 . S
C718 C717 1.414 . S
C718 C719 1.374 . S
C719 H699 0.950 . S
C719 C715 1.385 . S
C719 C718 1.374 . S
C720 C717 1.499 . S
C720 C721 1.373 . S
C720 C722 1.389 . S
C721 H700 0.950 . S
C721 C720 1.373 . S
C721 C737 1.377 . S
C722 C720 1.389 . S
C722 C723 1.524 1_455 S
C722 C736 1.377 1_545 S
C723 C722 1.524 1_655 S
C723 C724 1.397 . S
C723 C728 1.363 1_545 S
C724 H701 0.950 1_655 S
C724 C723 1.397 . S
C724 C725 1.334 . S
C725 H702 0.950 . S
C725 C724 1.334 . S
C725 C726 1.287 . S
C726 C725 1.287 . S
C726 C727 1.524 1_545 S
C726 H745 0.913 . S
C727 H703 0.950 . S
C727 C726 1.524 1_565 S
C727 C728 1.415 . S
C728 H704 0.950 . S
C728 C723 1.363 1_565 S
C728 C727 1.415 . S
C729 H705 0.951 . S
C729 C730 1.366 . S
C729 C731 1.388 . S
C730 C729 1.366 . S
C730 C734 1.385 . S
C731 H706 0.951 1_565 S
C731 C729 1.388 . S
C731 C732 1.366 . S
C732 C731 1.366 . S
C732 C733 1.414 . S
C732 C735 1.499 . S
C733 H707 0.950 . S
C733 C732 1.414 . S
C733 C734 1.374 . S
C734 H708 0.950 . S
C734 C730 1.385 . S
C734 C733 1.374 . S
C735 C732 1.499 . S
C735 C736 1.373 . S
C735 C737 1.389 1_565 S
C736 H709 0.950 1_455 S
C736 C722 1.377 1_565 S
C736 C735 1.373 . S
C737 C721 1.377 . S
C737 C735 1.389 1_545 S
C737 C738 1.524 . S
C738 C737 1.524 . S
C738 C739 1.397 1_545 S
C738 C743 1.363 . S
C739 H710 0.950 . S
C739 C738 1.397 1_565 S
C739 C740 1.334 . S
C740 H711 0.950 . S
C740 C739 1.334 . S
C740 C741 1.287 1_565 S
C741 C740 1.287 1_545 S
C741 C742 1.524 . S
C741 H744 0.999 . S
C742 H712 0.950 . S
C742 C741 1.524 . S
C742 C743 1.415 . S
C743 H713 0.950 . S
C743 C738 1.363 . S
C743 C742 1.415 . S
H744 C741 0.999 . S
H745 C726 0.913 . S
H746 C764 0.951 . S
H747 C766 0.951 . S
H748 C768 0.950 . S
H749 C769 0.950 . S
H750 C771 0.938 1_665 S
H751 C774 0.950 . S
H752 C775 0.950 . S
H753 C777 0.950 . S
H754 C778 0.950 . S
H755 C779 0.951 . S
H756 C781 0.951 . S
H757 C783 0.950 . S
H758 C784 0.950 . S
H759 C786 0.950 . S
H760 C789 0.950 . S
H761 C790 0.950 . S
H762 C792 0.950 . S
H763 C793 0.950 . S
C764 H746 0.951 . S
C764 C765 1.366 . S
C764 C766 1.388 . S
C765 C764 1.366 . S
C765 C769 1.385 . S
C766 H747 0.951 . S
C766 C764 1.388 . S
C766 C767 1.366 . S
C767 C766 1.366 . S
C767 C768 1.414 . S
C767 C770 1.500 1_655 S
C768 H748 0.950 . S
C768 C767 1.414 . S
C768 C769 1.374 . S
C769 H749 0.950 . S
C769 C765 1.385 . S
C769 C768 1.374 . S
C770 C767 1.500 1_455 S
C770 C771 1.372 . S
C770 C772 1.389 . S
C771 H750 0.938 1_445 S
C771 C770 1.372 . S
C771 C787 1.377 . S
C772 C770 1.389 . S
C772 C773 1.524 . S
C772 C786 1.377 . S
C773 C772 1.524 . S
C773 C774 1.397 . S
C773 C778 1.363 . S
C774 H751 0.950 . S
C774 C773 1.397 . S
C774 C775 1.334 . S
C775 H752 0.950 . S
C775 C774 1.334 . S
C775 C776 1.287 . S
C776 C775 1.287 . S
C776 C777 1.524 . S
C776 H795 0.913 . S
C777 H753 0.950 . S
C777 C776 1.524 . S
C777 C778 1.415 . S
C778 H754 0.950 . S
C778 C773 1.363 . S
C778 C777 1.415 . S
C779 H755 0.951 . S
C779 C780 1.366 . S
C779 C781 1.388 . S
C780 C779 1.366 . S
C780 C784 1.385 . S
C781 H756 0.951 . S
C781 C779 1.388 . S
C781 C782 1.366 . S
C782 C781 1.366 . S
C782 C783 1.414 . S
C782 C785 1.499 . S
C783 H757 0.950 . S
C783 C782 1.414 . S
C783 C784 1.374 . S
C784 H758 0.950 . S
C784 C780 1.385 . S
C784 C783 1.374 . S
C785 C782 1.499 . S
C785 C786 1.373 . S
C785 C787 1.389 . S
C786 H759 0.950 . S
C786 C772 1.377 . S
C786 C785 1.373 . S
C787 C771 1.377 . S
C787 C785 1.389 . S
C787 C788 1.524 1_545 S
C788 C787 1.524 1_565 S
C788 C789 1.397 . S
C788 C793 1.363 . S
C789 H760 0.950 . S
C789 C788 1.397 . S
C789 C790 1.334 . S
C790 H761 0.950 . S
C790 C789 1.334 . S
C790 C791 1.287 . S
C791 C790 1.287 . S
C791 C792 1.524 . S
C791 H794 0.999 . S
C792 H762 0.950 . S
C792 C791 1.524 . S
C792 C793 1.415 . S
C793 H763 0.950 . S
C793 C788 1.363 . S
C793 C792 1.415 . S
H794 C791 0.999 . S
H795 C776 0.913 . S
H796 C814 0.951 . S
H797 C816 0.951 . S
H798 C818 0.950 . S
H799 C819 0.950 . S
H800 C821 0.950 . S
H801 C824 0.950 . S
H802 C825 0.950 . S
H803 C827 0.950 . S
H804 C828 0.950 . S
H805 C829 0.951 . S
H806 C831 0.951 . S
H807 C833 0.950 . S
H808 C834 0.950 . S
H809 C836 0.950 . S
H810 C839 0.950 . S
H811 C840 0.941 1_655 S
H812 C842 0.950 . S
H813 C843 0.950 . S
C814 H796 0.951 . S
C814 C815 1.366 . S
C814 C816 1.388 . S
C815 C814 1.366 . S
C815 C819 1.385 . S
C816 H797 0.951 . S
C816 C814 1.388 . S
C816 C817 1.366 . S
C817 C816 1.366 . S
C817 C818 1.414 . S
C817 C820 1.499 . S
C818 H798 0.950 . S
C818 C817 1.414 . S
C818 C819 1.374 . S
C819 H799 0.950 . S
C819 C815 1.385 . S
C819 C818 1.374 . S
C820 C817 1.499 . S
C820 C821 1.373 . S
C820 C822 1.389 1_455 S
C821 H800 0.950 . S
C821 C820 1.373 . S
C821 C837 1.377 1_455 S
C822 C820 1.389 1_655 S
C822 C823 1.524 . S
C822 C836 1.377 . S
C823 C822 1.524 . S
C823 C824 1.397 . S
C823 C828 1.363 . S
C824 H801 0.950 . S
C824 C823 1.397 . S
C824 C825 1.334 . S
C825 H802 0.950 . S
C825 C824 1.334 . S
C825 C826 1.287 . S
C826 C825 1.287 . S
C826 C827 1.524 . S
C826 H845 0.913 . S
C827 H803 0.950 . S
C827 C826 1.524 . S
C827 C828 1.415 . S
C828 H804 0.950 . S
C828 C823 1.363 . S
C828 C827 1.415 . S
C829 H805 0.951 . S
C829 C830 1.366 . S
C829 C831 1.388 . S
C830 C829 1.366 . S
C830 C834 1.385 . S
C831 H806 0.951 . S
C831 C829 1.388 . S
C831 C832 1.366 . S
C832 C831 1.366 . S
C832 C833 1.414 . S
C832 C835 1.498 1_565 S
C833 H807 0.950 . S
C833 C832 1.414 . S
C833 C834 1.374 . S
C834 H808 0.950 . S
C834 C830 1.385 . S
C834 C833 1.374 . S
C835 C832 1.498 1_545 S
C835 C836 1.374 . S
C835 C837 1.389 . S
C836 H809 0.950 . S
C836 C822 1.377 . S
C836 C835 1.374 . S
C837 C821 1.377 1_655 S
C837 C835 1.389 . S
C837 C838 1.524 1_655 S
C838 C837 1.524 1_455 S
C838 C839 1.397 1_455 S
C838 C843 1.363 1_545 S
C839 H810 0.950 . S
C839 C838 1.397 1_655 S
C839 C840 1.334 1_655 S
C840 H811 0.941 1_455 S
C840 C839 1.334 1_455 S
C840 C841 1.287 1_545 S
C841 C840 1.287 1_565 S
C841 C842 1.524 . S
C841 H844 0.999 . S
C842 H812 0.950 . S
C842 C841 1.524 . S
C842 C843 1.415 . S
C843 H813 0.950 . S
C843 C838 1.363 1_565 S
C843 C842 1.415 . S
H844 C841 0.999 . S
H845 C826 0.913 . S
H846 C864 0.951 . S
H847 C866 0.951 . S
H848 C868 0.950 . S
H849 C869 0.950 . S
H850 C871 0.950 . S
H851 C874 0.950 . S
H852 C875 0.950 . S
H853 C877 0.950 . S
H854 C878 0.950 1_565 S
H855 C879 0.951 . S
H856 C881 0.951 . S
H857 C883 0.950 . S
H858 C884 0.950 . S
H859 C886 0.950 1_455 S
H860 C889 0.950 . S
H861 C890 0.950 . S
H862 C892 0.950 . S
H863 C893 0.950 . S
C864 H846 0.951 . S
C864 C865 1.366 . S
C864 C866 1.388 . S
C865 C864 1.366 . S
C865 C869 1.385 . S
C866 H847 0.951 . S
C866 C864 1.388 . S
C866 C867 1.366 . S
C867 C866 1.366 . S
C867 C868 1.414 . S
C867 C870 1.499 . S
C868 H848 0.950 . S
C868 C867 1.414 . S
C868 C869 1.374 . S
C869 H849 0.950 . S
C869 C865 1.385 . S
C869 C868 1.374 . S
C870 C867 1.499 . S
C870 C871 1.373 1_545 S
C870 C872 1.389 1_545 S
C871 H850 0.950 . S
C871 C870 1.373 1_565 S
C871 C887 1.377 . S
C872 C870 1.389 1_565 S
C872 C873 1.524 1_665 S
C872 C886 1.377 . S
C873 C872 1.524 1_445 S
C873 C874 1.397 . S
C873 C878 1.363 . S
C874 H851 0.950 . S
C874 C873 1.397 . S
C874 C875 1.334 . S
C875 H852 0.950 . S
C875 C874 1.334 . S
C875 C876 1.287 . S
C876 C875 1.287 . S
C876 C877 1.524 . S
C876 H895 0.913 . S
C877 H853 0.950 . S
C877 C876 1.524 . S
C877 C878 1.415 . S
C878 H854 0.950 1_545 S
C878 C873 1.363 . S
C878 C877 1.415 . S
C879 H855 0.951 . S
C879 C880 1.366 . S
C879 C881 1.388 . S
C880 C879 1.366 . S
C880 C884 1.385 . S
C881 H856 0.951 . S
C881 C879 1.388 . S
C881 C882 1.366 . S
C882 C881 1.366 . S
C882 C883 1.414 . S
C882 C885 1.499 . S
C883 H857 0.950 . S
C883 C882 1.414 . S
C883 C884 1.374 . S
C884 H858 0.950 . S
C884 C880 1.385 . S
C884 C883 1.374 . S
C885 C882 1.499 . S
C885 C886 1.373 . S
C885 C887 1.389 . S
C886 H859 0.950 1_655 S
C886 C872 1.377 . S
C886 C885 1.373 . S
C887 C871 1.377 . S
C887 C885 1.389 . S
C887 C888 1.524 . S
C888 C887 1.524 . S
C888 C889 1.397 . S
C888 C893 1.363 . S
C889 H860 0.950 . S
C889 C888 1.397 . S
C889 C890 1.334 . S
C890 H861 0.950 . S
C890 C889 1.334 . S
C890 C891 1.287 . S
C891 C890 1.287 . S
C891 C892 1.524 . S
C891 H894 0.999 . S
C892 H862 0.950 . S
C892 C891 1.524 . S
C892 C893 1.415 . S
C893 H863 0.950 . S
C893 C888 1.363 . S
C893 C892 1.415 . S
H894 C891 0.999 . S
H895 C876 0.913 . S
H896 C914 0.951 . S
H897 C916 0.951 . S
H898 C918 0.950 1_655 S
H899 C919 0.950 . S
H900 C921 0.950 . S
H901 C924 0.950 . S
H902 C925 0.950 . S
H903 C927 0.950 . S
H904 C928 0.950 . S
H905 C929 0.951 . S
H906 C931 0.951 . S
H907 C933 0.950 . S
H908 C934 0.950 . S
H909 C936 0.950 . S
H910 C939 0.950 . S
H911 C940 0.950 . S
H912 C942 0.950 . S
H913 C943 0.950 . S
C914 H896 0.951 . S
C914 C915 1.366 . S
C914 C916 1.388 . S
C915 C914 1.366 . S
C915 C919 1.385 . S
C916 H897 0.951 . S
C916 C914 1.388 . S
C916 C917 1.366 . S
C917 C916 1.366 . S
C917 C918 1.414 . S
C917 C920 1.507 . S
C918 H898 0.950 1_455 S
C918 C917 1.414 . S
C918 C919 1.374 . S
C919 H899 0.950 . S
C919 C915 1.385 . S
C919 C918 1.374 . S
C920 C917 1.507 . S
C920 C921 1.365 1_455 S
C920 C922 1.390 1_455 S
C921 H900 0.950 . S
C921 C920 1.365 1_655 S
C921 C937 1.377 . S
C922 C920 1.390 1_655 S
C922 C923 1.524 1_655 S
C922 C936 1.377 . S
C923 C922 1.524 1_455 S
C923 C924 1.397 . S
C923 C928 1.363 . S
C924 H901 0.950 . S
C924 C923 1.397 . S
C924 C925 1.334 . S
C925 H902 0.950 . S
C925 C924 1.334 . S
C925 C926 1.287 . S
C926 C925 1.287 . S
C926 C927 1.524 . S
C926 H945 0.913 . S
C927 H903 0.950 . S
C927 C926 1.524 . S
C927 C928 1.415 . S
C928 H904 0.950 . S
C928 C923 1.363 . S
C928 C927 1.415 . S
C929 H905 0.951 . S
C929 C930 1.366 . S
C929 C931 1.388 . S
C930 C929 1.366 . S
C930 C934 1.385 . S
C931 H906 0.951 . S
C931 C929 1.388 . S
C931 C932 1.366 . S
C932 C931 1.366 . S
C932 C933 1.414 . S
C932 C935 1.499 . S
C933 H907 0.950 . S
C933 C932 1.414 . S
C933 C934 1.374 . S
C934 H908 0.950 . S
C934 C930 1.385 . S
C934 C933 1.374 . S
C935 C932 1.499 . S
C935 C936 1.373 . S
C935 C937 1.389 . S
C936 H909 0.950 . S
C936 C922 1.377 . S
C936 C935 1.373 . S
C937 C921 1.377 . S
C937 C935 1.389 . S
C937 C938 1.524 . S
C938 C937 1.524 . S
C938 C939 1.397 1_565 S
C938 C943 1.363 . S
C939 H910 0.950 . S
C939 C938 1.397 1_545 S
C939 C940 1.334 . S
C940 H911 0.950 . S
C940 C939 1.334 . S
C940 C941 1.287 . S
C941 C940 1.287 . S
C941 C942 1.524 1_545 S
C941 H944 0.999 . S
C942 H912 0.950 . S
C942 C941 1.524 1_565 S
C942 C943 1.415 . S
C943 H913 0.950 . S
C943 C938 1.363 . S
C943 C942 1.415 . S
H944 C941 0.999 . S
H945 C926 0.913 . S
H946 C964 0.951 . S
H947 C966 0.951 . S
H948 C968 0.950 1_455 S
H949 C969 0.950 . S
H950 C971 0.950 . S
H951 C974 0.950 1_455 S
H952 C975 0.950 . S
H953 C977 0.950 . S
H954 C978 0.950 . S
H955 C979 0.951 . S
H956 C981 0.951 . S
H957 C983 0.950 . S
H958 C984 0.950 . S
H959 C986 0.950 . S
H960 C989 0.950 . S
H961 C990 0.950 . S
H962 C992 0.950 . S
H963 C993 0.950 . S
C964 H946 0.951 . S
C964 C965 1.366 . S
C964 C966 1.388 . S
C965 C964 1.366 . S
C965 C969 1.385 . S
C966 H947 0.951 . S
C966 C964 1.388 . S
C966 C967 1.366 . S
C967 C966 1.366 . S
C967 C968 1.414 . S
C967 C970 1.501 . S
C968 H948 0.950 1_655 S
C968 C967 1.414 . S
C968 C969 1.374 . S
C969 H949 0.950 . S
C969 C965 1.385 . S
C969 C968 1.374 . S
C970 C967 1.501 . S
C970 C971 1.373 1_655 S
C970 C972 1.387 1_655 S
C971 H950 0.950 . S
C971 C970 1.373 1_455 S
C971 C987 1.377 1_565 S
C972 C970 1.387 1_455 S
C972 C973 1.524 1_455 S
C972 C986 1.377 . S
C973 C972 1.524 1_655 S
C973 C974 1.397 . S
C973 C978 1.363 . S
C974 H951 0.950 1_655 S
C974 C973 1.397 . S
C974 C975 1.334 . S
C975 H952 0.950 . S
C975 C974 1.334 . S
C975 C976 1.287 . S
C976 C975 1.287 . S
C976 C977 1.524 . S
C976 H995 0.913 . S
C977 H953 0.950 . S
C977 C976 1.524 . S
C977 C978 1.415 . S
C978 H954 0.950 . S
C978 C973 1.363 . S
C978 C977 1.415 . S
C979 H955 0.951 . S
C979 C980 1.366 . S
C979 C981 1.388 . S
C980 C979 1.366 . S
C980 C984 1.385 . S
C981 H956 0.951 . S
C981 C979 1.388 . S
C981 C982 1.366 . S
C982 C981 1.366 . S
C982 C983 1.414 . S
C982 C985 1.499 . S
C983 H957 0.950 . S
C983 C982 1.414 . S
C983 C984 1.374 . S
C984 H958 0.950 . S
C984 C980 1.385 . S
C984 C983 1.374 . S
C985 C982 1.499 . S
C985 C986 1.373 1_545 S
C985 C987 1.389 . S
C986 H959 0.950 . S
C986 C972 1.377 . S
C986 C985 1.373 1_565 S
C987 C971 1.377 1_545 S
C987 C985 1.389 . S
C987 C988 1.524 . S
C988 C987 1.524 . S
C988 C989 1.397 . S
C988 C993 1.363 . S
C989 H960 0.950 . S
C989 C988 1.397 . S
C989 C990 1.334 . S
C990 H961 0.950 . S
C990 C989 1.334 . S
C990 C991 1.287 . S
C991 C990 1.287 . S
C991 C992 1.524 . S
C991 H994 0.999 . S
C992 H962 0.950 . S
C992 C991 1.524 . S
C992 C993 1.415 . S
C993 H963 0.950 . S
C993 C988 1.363 . S
C993 C992 1.415 . S
H994 C991 0.999 . S
H995 C976 0.913 . S
H996 C1014 0.951 . S
H997 C1016 0.951 . S
H998 C1018 0.950 . S
H999 C1019 0.950 . S
H1000 C1021 0.950 . S
H1001 C1024 0.950 . S
H1002 C1025 0.950 . S
H1003 C1027 0.950 . S
H1004 C1028 0.950 . S
H1005 C1029 0.951 . S
H1006 C1031 0.951 . S
H1007 C1033 0.950 . S
H1008 C1034 0.950 . S
H1009 C1036 0.950 . S
H1010 C1039 0.950 . S
H1011 C1040 0.950 . S
H1012 C1042 0.950 . S
H1013 C1043 0.950 . S
C1014 H996 0.951 . S
C1014 C1015 1.366 . S
C1014 C1016 1.388 . S
C1015 C1014 1.366 . S
C1015 C1019 1.385 . S
C1016 H997 0.951 . S
C1016 C1014 1.388 . S
C1016 C1017 1.366 . S
C1017 C1016 1.366 . S
C1017 C1018 1.414 . S
C1017 C1020 1.499 . S
C1018 H998 0.950 . S
C1018 C1017 1.414 . S
C1018 C1019 1.374 . S
C1019 H999 0.950 . S
C1019 C1015 1.385 . S
C1019 C1018 1.374 . S
C1020 C1017 1.499 . S
C1020 C1021 1.373 1_556 S
C1020 C1022 1.389 . S
C1021 H1000 0.950 . S
C1021 C1020 1.373 1_554 S
C1021 C1037 1.377 . S
C1022 C1020 1.389 . S
C1022 C1023 1.524 . S
C1022 C1036 1.377 . S
C1023 C1022 1.524 . S
C1023 C1024 1.397 . S
C1023 C1028 1.363 . S
C1024 H1001 0.950 . S
C1024 C1023 1.397 . S
C1024 C1025 1.334 . S
C1025 H1002 0.950 . S
C1025 C1024 1.334 . S
C1025 C1026 1.287 . S
C1026 C1025 1.287 . S
C1026 C1027 1.524 . S
C1026 H1045 0.913 . S
C1027 H1003 0.950 . S
C1027 C1026 1.524 . S
C1027 C1028 1.415 . S
C1028 H1004 0.950 . S
C1028 C1023 1.363 . S
C1028 C1027 1.415 . S
C1029 H1005 0.951 . S
C1029 C1030 1.366 . S
C1029 C1031 1.388 . S
C1030 C1029 1.366 . S
C1030 C1034 1.385 . S
C1031 H1006 0.951 . S
C1031 C1029 1.388 . S
C1031 C1032 1.366 . S
C1032 C1031 1.366 . S
C1032 C1033 1.414 . S
C1032 C1035 1.499 . S
C1033 H1007 0.950 . S
C1033 C1032 1.414 . S
C1033 C1034 1.374 . S
C1034 H1008 0.950 . S
C1034 C1030 1.385 . S
C1034 C1033 1.374 . S
C1035 C1032 1.499 . S
C1035 C1036 1.373 1_554 S
C1035 C1037 1.389 . S
C1036 H1009 0.950 . S
C1036 C1022 1.377 . S
C1036 C1035 1.373 1_556 S
C1037 C1021 1.377 . S
C1037 C1035 1.389 . S
C1037 C1038 1.524 . S
C1038 C1037 1.524 . S
C1038 C1039 1.397 . S
C1038 C1043 1.363 . S
C1039 H1010 0.950 . S
C1039 C1038 1.397 . S
C1039 C1040 1.334 . S
C1040 H1011 0.950 . S
C1040 C1039 1.334 . S
C1040 C1041 1.287 . S
C1041 C1040 1.287 . S
C1041 C1042 1.524 . S
C1041 H1044 0.999 . S
C1042 H1012 0.950 . S
C1042 C1041 1.524 . S
C1042 C1043 1.415 . S
C1043 H1013 0.950 . S
C1043 C1038 1.363 . S
C1043 C1042 1.415 . S
H1044 C1041 0.999 . S
H1045 C1026 0.913 . S
H1046 C1064 0.951 . S
H1047 C1066 0.951 . S
H1048 C1068 0.950 . S
H1049 C1069 0.950 . S
H1050 C1071 0.950 . S
H1051 C1074 0.950 . S
H1052 C1075 0.950 . S
H1053 C1077 0.950 . S
H1054 C1078 0.950 . S
H1055 C1079 0.951 . S
H1056 C1081 0.951 . S
H1057 C1083 0.950 . S
H1058 C1084 0.950 . S
H1059 C1086 0.950 . S
H1060 C1089 0.950 . S
H1061 C1090 0.950 . S
H1062 C1092 0.950 . S
H1063 C1093 0.950 . S
C1064 H1046 0.951 . S
C1064 C1065 1.366 . S
C1064 C1066 1.388 . S
C1065 C1064 1.366 . S
C1065 C1069 1.385 . S
C1066 H1047 0.951 . S
C1066 C1064 1.388 . S
C1066 C1067 1.366 . S
C1067 C1066 1.366 . S
C1067 C1068 1.414 . S
C1067 C1070 1.499 . S
C1068 H1048 0.950 . S
C1068 C1067 1.414 . S
C1068 C1069 1.374 . S
C1069 H1049 0.950 . S
C1069 C1065 1.385 . S
C1069 C1068 1.374 . S
C1070 C1067 1.499 . S
C1070 C1071 1.373 . S
C1070 C1072 1.389 . S
C1071 H1050 0.950 . S
C1071 C1070 1.373 . S
C1071 C1087 1.377 . S
C1072 C1070 1.389 . S
C1072 C1073 1.524 . S
C1072 C1086 1.377 . S
C1073 C1072 1.524 . S
C1073 C1074 1.397 . S
C1073 C1078 1.363 . S
C1074 H1051 0.950 . S
C1074 C1073 1.397 . S
C1074 C1075 1.334 . S
C1075 H1052 0.950 . S
C1075 C1074 1.334 . S
C1075 C1076 1.287 . S
C1076 C1075 1.287 . S
C1076 C1077 1.524 . S
C1076 H1095 0.913 . S
C1077 H1053 0.950 . S
C1077 C1076 1.524 . S
C1077 C1078 1.415 . S
C1078 H1054 0.950 . S
C1078 C1073 1.363 . S
C1078 C1077 1.415 . S
C1079 H1055 0.951 . S
C1079 C1080 1.366 . S
C1079 C1081 1.388 . S
C1080 C1079 1.366 . S
C1080 C1084 1.385 . S
C1081 H1056 0.951 . S
C1081 C1079 1.388 . S
C1081 C1082 1.366 . S
C1082 C1081 1.366 . S
C1082 C1083 1.414 . S
C1082 C1085 1.499 . S
C1083 H1057 0.950 . S
C1083 C1082 1.414 . S
C1083 C1084 1.374 . S
C1084 H1058 0.950 . S
C1084 C1080 1.385 . S
C1084 C1083 1.374 . S
C1085 C1082 1.499 . S
C1085 C1086 1.373 . S
C1085 C1087 1.389 . S
C1086 H1059 0.950 . S
C1086 C1072 1.377 . S
C1086 C1085 1.373 . S
C1087 C1071 1.377 . S
C1087 C1085 1.389 . S
C1087 C1088 1.524 . S
C1088 C1087 1.524 . S
C1088 C1089 1.397 . S
C1088 C1093 1.363 . S
C1089 H1060 0.950 . S
C1089 C1088 1.397 . S
C1089 C1090 1.334 . S
C1090 H1061 0.950 . S
C1090 C1089 1.334 . S
C1090 C1091 1.287 . S
C1091 C1090 1.287 . S
C1091 C1092 1.524 . S
C1091 H1094 0.999 . S
C1092 H1062 0.950 . S
C1092 C1091 1.524 . S
C1092 C1093 1.415 . S
C1093 H1063 0.950 . S
C1093 C1088 1.363 . S
C1093 C1092 1.415 . S
H1094 C1091 0.999 . S
H1095 C1076 0.913 . S
H1096 C1114 0.951 . S
H1097 C1116 0.951 . S
H1098 C1118 0.950 . S
H1099 C1119 0.950 . S
H1100 C1121 0.950 . S
H1101 C1124 0.950 . S
H1102 C1125 0.950 . S
H1103 C1127 0.950 . S
H1104 C1128 0.950 . S
H1105 C1129 0.951 . S
H1106 C1131 0.951 . S
H1107 C1133 0.950 . S
H1108 C1134 0.950 . S
H1109 C1136 0.950 . S
H1110 C1139 0.950 . S
H1111 C1140 0.950 . S
H1112 C1142 0.950 . S
H1113 C1143 0.950 . S
C1114 H1096 0.951 . S
C1114 C1115 1.366 . S
C1114 C1116 1.388 . S
C1115 C1114 1.366 . S
C1115 C1119 1.385 . S
C1116 H1097 0.951 . S
C1116 C1114 1.388 . S
C1116 C1117 1.366 . S
C1117 C1116 1.366 . S
C1117 C1118 1.414 . S
C1117 C1120 1.499 . S
C1118 H1098 0.950 . S
C1118 C1117 1.414 . S
C1118 C1119 1.374 . S
C1119 H1099 0.950 . S
C1119 C1115 1.385 . S
C1119 C1118 1.374 . S
C1120 C1117 1.499 . S
C1120 C1121 1.373 . S
C1120 C1122 1.389 . S
C1121 H1100 0.950 . S
C1121 C1120 1.373 . S
C1121 C1137 1.377 . S
C1122 C1120 1.389 . S
C1122 C1123 1.524 . S
C1122 C1136 1.377 . S
C1123 C1122 1.524 . S
C1123 C1124 1.397 1_565 S
C1123 C1128 1.363 . S
C1124 H1101 0.950 . S
C1124 C1123 1.397 1_545 S
C1124 C1125 1.334 . S
C1125 H1102 0.950 . S
C1125 C1124 1.334 . S
C1125 C1126 1.287 . S
C1126 C1125 1.287 . S
C1126 C1127 1.524 . S
C1126 H1145 0.913 . S
C1127 H1103 0.950 . S
C1127 C1126 1.524 . S
C1127 C1128 1.415 1_545 S
C1128 H1104 0.950 . S
C1128 C1123 1.363 . S
C1128 C1127 1.415 1_565 S
C1129 H1105 0.951 . S
C1129 C1130 1.366 . S
C1129 C1131 1.388 . S
C1130 C1129 1.366 . S
C1130 C1134 1.385 . S
C1131 H1106 0.951 . S
C1131 C1129 1.388 . S
C1131 C1132 1.366 . S
C1132 C1131 1.366 . S
C1132 C1133 1.414 . S
C1132 C1135 1.499 . S
C1133 H1107 0.950 . S
C1133 C1132 1.414 . S
C1133 C1134 1.374 . S
C1134 H1108 0.950 . S
C1134 C1130 1.385 . S
C1134 C1133 1.374 . S
C1135 C1132 1.499 . S
C1135 C1136 1.373 . S
C1135 C1137 1.389 . S
C1136 H1109 0.950 . S
C1136 C1122 1.377 . S
C1136 C1135 1.373 . S
C1137 C1121 1.377 . S
C1137 C1135 1.389 . S
C1137 C1138 1.524 . S
C1138 C1137 1.524 . S
C1138 C1139 1.397 . S
C1138 C1143 1.363 . S
C1139 H1110 0.950 . S
C1139 C1138 1.397 . S
C1139 C1140 1.334 . S
C1140 H1111 0.950 . S
C1140 C1139 1.334 . S
C1140 C1141 1.287 . S
C1141 C1140 1.287 . S
C1141 C1142 1.524 . S
C1141 H1144 0.999 . S
C1142 H1112 0.950 . S
C1142 C1141 1.524 . S
C1142 C1143 1.415 . S
C1143 H1113 0.950 . S
C1143 C1138 1.363 . S
C1143 C1142 1.415 . S
H1144 C1141 0.999 . S
H1145 C1126 0.913 . S
H1146 C1164 0.951 . S
H1147 C1166 0.951 . S
H1148 C1168 0.950 . S
H1149 C1169 0.950 . S
H1150 C1171 0.950 . S
H1151 C1174 0.950 . S
H1152 C1175 0.950 . S
H1153 C1177 0.950 . S
H1154 C1178 0.950 . S
H1155 C1179 0.951 . S
H1156 C1181 0.951 . S
H1157 C1183 0.950 . S
H1158 C1184 0.950 . S
H1159 C1186 0.950 . S
H1160 C1189 0.950 . S
H1161 C1190 0.950 . S
H1162 C1192 0.950 . S
H1163 C1193 0.950 . S
C1164 H1146 0.951 . S
C1164 C1165 1.366 . S
C1164 C1166 1.388 . S
C1165 C1164 1.366 . S
C1165 C1169 1.385 . S
C1166 H1147 0.951 . S
C1166 C1164 1.388 . S
C1166 C1167 1.366 . S
C1167 C1166 1.366 . S
C1167 C1168 1.414 . S
C1167 C1170 1.499 . S
C1168 H1148 0.950 . S
C1168 C1167 1.414 . S
C1168 C1169 1.374 . S
C1169 H1149 0.950 . S
C1169 C1165 1.385 . S
C1169 C1168 1.374 . S
C1170 C1167 1.499 . S
C1170 C1171 1.373 . S
C1170 C1172 1.389 . S
C1171 H1150 0.950 . S
C1171 C1170 1.373 . S
C1171 C1187 1.377 . S
C1172 C1170 1.389 . S
C1172 C1173 1.524 . S
C1172 C1186 1.377 . S
C1173 C1172 1.524 . S
C1173 C1174 1.397 . S
C1173 C1178 1.363 . S
C1174 H1151 0.950 . S
C1174 C1173 1.397 . S
C1174 C1175 1.334 . S
C1175 H1152 0.950 . S
C1175 C1174 1.334 . S
C1175 C1176 1.287 . S
C1176 C1175 1.287 . S
C1176 C1177 1.524 . S
C1176 H1195 0.913 . S
C1177 H1153 0.950 . S
C1177 C1176 1.524 . S
C1177 C1178 1.415 . S
C1178 H1154 0.950 . S
C1178 C1173 1.363 . S
C1178 C1177 1.415 . S
C1179 H1155 0.951 . S
C1179 C1180 1.366 . S
C1179 C1181 1.388 . S
C1180 C1179 1.366 . S
C1180 C1184 1.385 . S
C1181 H1156 0.951 . S
C1181 C1179 1.388 . S
C1181 C1182 1.366 . S
C1182 C1181 1.366 . S
C1182 C1183 1.414 . S
C1182 C1185 1.499 . S
C1183 H1157 0.950 . S
C1183 C1182 1.414 . S
C1183 C1184 1.374 . S
C1184 H1158 0.950 . S
C1184 C1180 1.385 . S
C1184 C1183 1.374 . S
C1185 C1182 1.499 . S
C1185 C1186 1.373 . S
C1185 C1187 1.389 . S
C1186 H1159 0.950 . S
C1186 C1172 1.377 . S
C1186 C1185 1.373 . S
C1187 C1171 1.377 . S
C1187 C1185 1.389 . S
C1187 C1188 1.524 . S
C1188 C1187 1.524 . S
C1188 C1189 1.397 . S
C1188 C1193 1.363 . S
C1189 H1160 0.950 . S
C1189 C1188 1.397 . S
C1189 C1190 1.334 . S
C1190 H1161 0.950 . S
C1190 C1189 1.334 . S
C1190 C1191 1.287 . S
C1191 C1190 1.287 . S
C1191 C1192 1.524 . S
C1191 H1194 0.999 . S
C1192 H1162 0.950 . S
C1192 C1191 1.524 . S
C1192 C1193 1.415 . S
C1193 H1163 0.950 . S
C1193 C1188 1.363 . S
C1193 C1192 1.415 . S
H1194 C1191 0.999 . S
H1195 C1176 0.913 . S
H1196 C1214 0.951 . S
H1197 C1216 0.951 . S
H1198 C1218 0.950 . S
H1199 C1219 0.950 1_655 S
H1200 C1221 0.950 . S
H1201 C1224 0.950 . S
H1202 C1225 0.950 . S
H1203 C1227 0.950 . S
H1204 C1228 0.950 . S
H1205 C1229 0.951 . S
H1206 C1231 0.951 . S
H1207 C1233 0.950 . S
H1208 C1234 0.950 . S
H1209 C1236 0.950 . S
H1210 C1239 0.950 . S
H1211 C1240 0.950 . S
H1212 C1242 0.950 . S
H1213 C1243 0.954 1_655 S
C1214 H1196 0.951 . S
C1214 C1215 1.366 . S
C1214 C1216 1.388 . S
C1215 C1214 1.366 . S
C1215 C1219 1.385 . S
C1216 H1197 0.951 . S
C1216 C1214 1.388 . S
C1216 C1217 1.366 . S
C1217 C1216 1.366 . S
C1217 C1218 1.414 . S
C1217 C1220 1.499 . S
C1218 H1198 0.950 . S
C1218 C1217 1.414 . S
C1218 C1219 1.374 . S
C1219 H1199 0.950 1_455 S
C1219 C1215 1.385 . S
C1219 C1218 1.374 . S
C1220 C1217 1.499 . S
C1220 C1221 1.373 . S
C1220 C1222 1.389 . S
C1221 H1200 0.950 . S
C1221 C1220 1.373 . S
C1221 C1237 1.377 . S
C1222 C1220 1.389 . S
C1222 C1223 1.524 . S
C1222 C1236 1.377 . S
C1223 C1222 1.524 . S
C1223 C1224 1.397 . S
C1223 C1228 1.363 . S
C1224 H1201 0.950 . S
C1224 C1223 1.397 . S
C1224 C1225 1.334 . S
C1225 H1202 0.950 . S
C1225 C1224 1.334 . S
C1225 C1226 1.287 . S
C1226 C1225 1.287 . S
C1226 C1227 1.524 . S
C1226 H1245 0.913 . S
C1227 H1203 0.950 . S
C1227 C1226 1.524 . S
C1227 C1228 1.415 . S
C1228 H1204 0.950 . S
C1228 C1223 1.363 . S
C1228 C1227 1.415 . S
C1229 H1205 0.951 . S
C1229 C1230 1.366 . S
C1229 C1231 1.388 . S
C1230 C1229 1.366 . S
C1230 C1234 1.385 . S
C1231 H1206 0.951 . S
C1231 C1229 1.388 . S
C1231 C1232 1.366 . S
C1232 C1231 1.366 . S
C1232 C1233 1.414 . S
C1232 C1235 1.499 . S
C1233 H1207 0.950 . S
C1233 C1232 1.414 . S
C1233 C1234 1.374 . S
C1234 H1208 0.950 . S
C1234 C1230 1.385 . S
C1234 C1233 1.374 . S
C1235 C1232 1.499 . S
C1235 C1236 1.373 . S
C1235 C1237 1.389 . S
C1236 H1209 0.950 . S
C1236 C1222 1.377 . S
C1236 C1235 1.373 . S
C1237 C1221 1.377 . S
C1237 C1235 1.389 . S
C1237 C1238 1.524 . S
C1238 C1237 1.524 . S
C1238 C1239 1.397 . S
C1238 C1243 1.363 . S
C1239 H1210 0.950 . S
C1239 C1238 1.397 . S
C1239 C1240 1.334 . S
C1240 H1211 0.950 . S
C1240 C1239 1.334 . S
C1240 C1241 1.287 1_455 S
C1241 C1240 1.287 1_655 S
C1241 C1242 1.524 . S
C1241 H1244 0.999 . S
C1242 H1212 0.950 . S
C1242 C1241 1.524 . S
C1242 C1243 1.415 1_655 S
C1243 H1213 0.954 1_455 S
C1243 C1238 1.363 . S
C1243 C1242 1.415 1_455 S
H1244 C1241 0.999 . S
H1245 C1226 0.913 . S
H1246 C1264 0.951 . S
H1247 C1266 0.951 . S
H1248 C1268 0.950 . S
H1249 C1269 0.950 . S
H1250 C1271 0.950 . S
H1251 C1274 0.950 . S
H1252 C1275 0.950 . S
H1253 C1277 0.950 . S
H1254 C1278 0.950 . S
H1255 C1279 0.951 . S
H1256 C1281 0.951 . S
H1257 C1283 0.950 . S
H1258 C1284 0.950 . S
H1259 C1286 0.950 . S
H1260 C1289 0.950 . S
H1261 C1290 0.950 . S
H1262 C1292 0.950 . S
H1263 C1293 0.950 1_545 S
C1264 H1246 0.951 . S
C1264 C1265 1.366 . S
C1264 C1266 1.388 . S
C1265 C1264 1.366 . S
C1265 C1269 1.385 . S
C1266 H1247 0.951 . S
C1266 C1264 1.388 . S
C1266 C1267 1.366 . S
C1267 C1266 1.366 . S
C1267 C1268 1.414 . S
C1267 C1270 1.499 . S
C1268 H1248 0.950 . S
C1268 C1267 1.414 . S
C1268 C1269 1.374 . S
C1269 H1249 0.950 . S
C1269 C1265 1.385 . S
C1269 C1268 1.374 . S
C1270 C1267 1.499 . S
C1270 C1271 1.373 . S
C1270 C1272 1.389 . S
C1271 H1250 0.950 . S
C1271 C1270 1.373 . S
C1271 C1287 1.377 . S
C1272 C1270 1.389 . S
C1272 C1273 1.524 . S
C1272 C1286 1.377 . S
C1273 C1272 1.524 . S
C1273 C1274 1.397 . S
C1273 C1278 1.363 . S
C1274 H1251 0.950 . S
C1274 C1273 1.397 . S
C1274 C1275 1.334 . S
C1275 H1252 0.950 . S
C1275 C1274 1.334 . S
C1275 C1276 1.287 . S
C1276 C1275 1.287 . S
C1276 C1277 1.524 . S
C1276 H1295 0.913 . S
C1277 H1253 0.950 . S
C1277 C1276 1.524 . S
C1277 C1278 1.415 . S
C1278 H1254 0.950 . S
C1278 C1273 1.363 . S
C1278 C1277 1.415 . S
C1279 H1255 0.951 . S
C1279 C1280 1.366 . S
C1279 C1281 1.388 . S
C1280 C1279 1.366 . S
C1280 C1284 1.385 . S
C1281 H1256 0.951 . S
C1281 C1279 1.388 . S
C1281 C1282 1.366 . S
C1282 C1281 1.366 . S
C1282 C1283 1.414 . S
C1282 C1285 1.499 . S
C1283 H1257 0.950 . S
C1283 C1282 1.414 . S
C1283 C1284 1.374 . S
C1284 H1258 0.950 . S
C1284 C1280 1.385 . S
C1284 C1283 1.374 . S
C1285 C1282 1.499 . S
C1285 C1286 1.373 . S
C1285 C1287 1.389 . S
C1286 H1259 0.950 . S
C1286 C1272 1.377 . S
C1286 C1285 1.373 . S
C1287 C1271 1.377 . S
C1287 C1285 1.389 . S
C1287 C1288 1.524 . S
C1288 C1287 1.524 . S
C1288 C1289 1.397 1_545 S
C1288 C1293 1.363 1_545 S
C1289 H1260 0.950 . S
C1289 C1288 1.397 1_565 S
C1289 C1290 1.334 . S
C1290 H1261 0.950 . S
C1290 C1289 1.334 . S
C1290 C1291 1.287 . S
C1291 C1290 1.287 . S
C1291 C1292 1.524 . S
C1291 H1294 0.999 . S
C1292 H1262 0.950 . S
C1292 C1291 1.524 . S
C1292 C1293 1.415 . S
C1293 H1263 0.950 1_565 S
C1293 C1288 1.363 1_565 S
C1293 C1292 1.415 . S
H1294 C1291 0.999 . S
H1295 C1276 0.913 . S
H1296 C1314 0.951 . S
H1297 C1316 0.951 . S
H1298 C1318 0.950 . S
H1299 C1319 0.950 . S
H1300 C1321 0.950 . S
H1301 C1324 0.950 . S
H1302 C1325 0.950 . S
H1303 C1327 0.950 . S
H1304 C1328 0.950 . S
H1305 C1329 0.951 . S
H1306 C1331 0.951 . S
H1307 C1333 0.950 . S
H1308 C1334 0.950 . S
H1309 C1336 0.950 . S
H1310 C1339 0.950 . S
H1311 C1340 0.950 . S
H1312 C1342 0.950 . S
H1313 C1343 0.950 . S
C1314 H1296 0.951 . S
C1314 C1315 1.366 . S
C1314 C1316 1.388 . S
C1315 C1314 1.366 . S
C1315 C1319 1.385 . S
C1316 H1297 0.951 . S
C1316 C1314 1.388 . S
C1316 C1317 1.366 . S
C1317 C1316 1.366 . S
C1317 C1318 1.414 . S
C1317 C1320 1.499 . S
C1318 H1298 0.950 . S
C1318 C1317 1.414 . S
C1318 C1319 1.374 . S
C1319 H1299 0.950 . S
C1319 C1315 1.385 . S
C1319 C1318 1.374 . S
C1320 C1317 1.499 . S
C1320 C1321 1.373 . S
C1320 C1322 1.389 . S
C1321 H1300 0.950 . S
C1321 C1320 1.373 . S
C1321 C1337 1.377 . S
C1322 C1320 1.389 . S
C1322 C1323 1.524 . S
C1322 C1336 1.377 . S
C1323 C1322 1.524 . S
C1323 C1324 1.397 . S
C1323 C1328 1.363 . S
C1324 H1301 0.950 . S
C1324 C1323 1.397 . S
C1324 C1325 1.334 . S
C1325 H1302 0.950 . S
C1325 C1324 1.334 . S
C1325 C1326 1.287 . S
C1326 C1325 1.287 . S
C1326 C1327 1.524 . S
C1326 H1345 0.913 . S
C1327 H1303 0.950 . S
C1327 C1326 1.524 . S
C1327 C1328 1.415 . S
C1328 H1304 0.950 . S
C1328 C1323 1.363 . S
C1328 C1327 1.415 . S
C1329 H1305 0.951 . S
C1329 C1330 1.366 . S
C1329 C1331 1.388 . S
C1330 C1329 1.366 . S
C1330 C1334 1.385 . S
C1331 H1306 0.951 . S
C1331 C1329 1.388 . S
C1331 C1332 1.366 . S
C1332 C1331 1.366 . S
C1332 C1333 1.414 . S
C1332 C1335 1.499 . S
C1333 H1307 0.950 . S
C1333 C1332 1.414 . S
C1333 C1334 1.374 . S
C1334 H1308 0.950 . S
C1334 C1330 1.385 . S
C1334 C1333 1.374 . S
C1335 C1332 1.499 . S
C1335 C1336 1.373 . S
C1335 C1337 1.389 . S
C1336 H1309 0.950 . S
C1336 C1322 1.377 . S
C1336 C1335 1.373 . S
C1337 C1321 1.377 . S
C1337 C1335 1.389 . S
C1337 C1338 1.524 . S
C1338 C1337 1.524 . S
C1338 C1339 1.397 . S
C1338 C1343 1.363 . S
C1339 H1310 0.950 . S
C1339 C1338 1.397 . S
C1339 C1340 1.334 . S
C1340 H1311 0.950 . S
C1340 C1339 1.334 . S
C1340 C1341 1.287 . S
C1341 C1340 1.287 . S
C1341 C1342 1.524 . S
C1341 H1344 0.999 . S
C1342 H1312 0.950 . S
C1342 C1341 1.524 . S
C1342 C1343 1.415 . S
C1343 H1313 0.950 . S
C1343 C1338 1.363 . S
C1343 C1342 1.415 . S
H1344 C1341 0.999 . S
H1345 C1326 0.913 . S
H1346 C1364 0.951 1_455 S
H1347 C1366 0.951 . S
H1348 C1368 0.950 . S
H1349 C1369 0.950 . S
H1350 C1371 0.950 . S
H1351 C1374 0.950 . S
H1352 C1375 0.950 . S
H1353 C1377 0.950 . S
H1354 C1378 0.950 . S
H1355 C1379 0.951 . S
H1356 C1381 0.951 . S
H1357 C1383 0.950 . S
H1358 C1384 0.950 . S
H1359 C1386 0.950 . S
H1360 C1389 0.950 . S
H1361 C1390 0.950 . S
H1362 C1392 0.950 . S
H1363 C1393 0.950 . S
C1364 H1346 0.951 1_655 S
C1364 C1365 1.366 . S
C1364 C1366 1.388 . S
C1365 C1364 1.366 . S
C1365 C1369 1.385 . S
C1366 H1347 0.951 . S
C1366 C1364 1.388 . S
C1366 C1367 1.366 . S
C1367 C1366 1.366 . S
C1367 C1368 1.414 . S
C1367 C1370 1.499 . S
C1368 H1348 0.950 . S
C1368 C1367 1.414 . S
C1368 C1369 1.374 . S
C1369 H1349 0.950 . S
C1369 C1365 1.385 . S
C1369 C1368 1.374 . S
C1370 C1367 1.499 . S
C1370 C1371 1.373 1_554 S
C1370 C1372 1.389 . S
C1371 H1350 0.950 . S
C1371 C1370 1.373 1_556 S
C1371 C1387 1.377 . S
C1372 C1370 1.389 . S
C1372 C1373 1.524 . S
C1372 C1386 1.377 . S
C1373 C1372 1.524 . S
C1373 C1374 1.397 . S
C1373 C1378 1.363 . S
C1374 H1351 0.950 . S
C1374 C1373 1.397 . S
C1374 C1375 1.334 . S
C1375 H1352 0.950 . S
C1375 C1374 1.334 . S
C1375 C1376 1.287 . S
C1376 C1375 1.287 . S
C1376 C1377 1.524 . S
C1376 H1395 0.913 . S
C1377 H1353 0.950 . S
C1377 C1376 1.524 . S
C1377 C1378 1.415 . S
C1378 H1354 0.950 . S
C1378 C1373 1.363 . S
C1378 C1377 1.415 . S
C1379 H1355 0.951 . S
C1379 C1380 1.366 . S
C1379 C1381 1.388 . S
C1380 C1379 1.366 . S
C1380 C1384 1.385 . S
C1381 H1356 0.951 . S
C1381 C1379 1.388 . S
C1381 C1382 1.366 . S
C1382 C1381 1.366 . S
C1382 C1383 1.414 . S
C1382 C1385 1.499 . S
C1383 H1357 0.950 . S
C1383 C1382 1.414 . S
C1383 C1384 1.374 . S
C1384 H1358 0.950 . S
C1384 C1380 1.385 . S
C1384 C1383 1.374 . S
C1385 C1382 1.499 . S
C1385 C1386 1.373 1_556 S
C1385 C1387 1.389 . S
C1386 H1359 0.950 . S
C1386 C1372 1.377 . S
C1386 C1385 1.373 1_554 S
C1387 C1371 1.377 . S
C1387 C1385 1.389 . S
C1387 C1388 1.524 . S
C1388 C1387 1.524 . S
C1388 C1389 1.397 . S
C1388 C1393 1.363 . S
C1389 H1360 0.950 . S
C1389 C1388 1.397 . S
C1389 C1390 1.334 . S
C1390 H1361 0.950 . S
C1390 C1389 1.334 . S
C1390 C1391 1.287 . S
C1391 C1390 1.287 . S
C1391 C1392 1.524 . S
C1391 H1394 0.999 . S
C1392 H1362 0.950 . S
C1392 C1391 1.524 . S
C1392 C1393 1.415 . S
C1393 H1363 0.950 . S
C1393 C1388 1.363 . S
C1393 C1392 1.415 . S
H1394 C1391 0.999 . S
H1395 C1376 0.913 . S
H1396 C1414 0.951 . S
H1397 C1416 0.951 . S
H1398 C1418 0.950 . S
H1399 C1419 0.950 1_545 S
H1400 C1421 0.950 . S
H1401 C1424 0.950 . S
H1402 C1425 0.950 . S
H1403 C1427 0.950 . S
H1404 C1428 0.950 . S
H1405 C1429 0.951 . S
H1406 C1431 0.951 . S
H1407 C1433 0.950 . S
H1408 C1434 0.950 . S
H1409 C1436 0.950 . S
H1410 C1439 0.950 . S
H1411 C1440 0.950 . S
H1412 C1442 0.950 . S
H1413 C1443 0.950 1_545 S
C1414 H1396 0.951 . S
C1414 C1415 1.366 . S
C1414 C1416 1.388 . S
C1415 C1414 1.366 . S
C1415 C1419 1.385 . S
C1416 H1397 0.951 . S
C1416 C1414 1.388 . S
C1416 C1417 1.366 . S
C1417 C1416 1.366 . S
C1417 C1418 1.414 . S
C1417 C1420 1.499 . S
C1418 H1398 0.950 . S
C1418 C1417 1.414 . S
C1418 C1419 1.374 . S
C1419 H1399 0.950 1_565 S
C1419 C1415 1.385 . S
C1419 C1418 1.374 . S
C1420 C1417 1.499 . S
C1420 C1421 1.373 . S
C1420 C1422 1.389 . S
C1421 H1400 0.950 . S
C1421 C1420 1.373 . S
C1421 C1437 1.377 . S
C1422 C1420 1.389 . S
C1422 C1423 1.524 . S
C1422 C1436 1.377 . S
C1423 C1422 1.524 . S
C1423 C1424 1.397 . S
C1423 C1428 1.363 . S
C1424 H1401 0.950 . S
C1424 C1423 1.397 . S
C1424 C1425 1.334 . S
C1425 H1402 0.950 . S
C1425 C1424 1.334 . S
C1425 C1426 1.287 . S
C1426 C1425 1.287 . S
C1426 C1427 1.524 . S
C1426 H1445 0.913 . S
C1427 H1403 0.950 . S
C1427 C1426 1.524 . S
C1427 C1428 1.415 . S
C1428 H1404 0.950 . S
C1428 C1423 1.363 . S
C1428 C1427 1.415 . S
C1429 H1405 0.951 . S
C1429 C1430 1.366 . S
C1429 C1431 1.388 . S
C1430 C1429 1.366 . S
C1430 C1434 1.385 . S
C1431 H1406 0.951 . S
C1431 C1429 1.388 . S
C1431 C1432 1.366 . S
C1432 C1431 1.366 . S
C1432 C1433 1.414 . S
C1432 C1435 1.499 . S
C1433 H1407 0.950 . S
C1433 C1432 1.414 . S
C1433 C1434 1.374 . S
C1434 H1408 0.950 . S
C1434 C1430 1.385 . S
C1434 C1433 1.374 . S
C1435 C1432 1.499 . S
C1435 C1436 1.373 . S
C1435 C1437 1.389 . S
C1436 H1409 0.950 . S
C1436 C1422 1.377 . S
C1436 C1435 1.373 . S
C1437 C1421 1.377 . S
C1437 C1435 1.389 . S
C1437 C1438 1.524 . S
C1438 C1437 1.524 . S
C1438 C1439 1.397 . S
C1438 C1443 1.363 . S
C1439 H1410 0.950 . S
C1439 C1438 1.397 . S
C1439 C1440 1.334 . S
C1440 H1411 0.950 . S
C1440 C1439 1.334 . S
C1440 C1441 1.287 . S
C1441 C1440 1.287 . S
C1441 C1442 1.524 1_565 S
C1441 H1444 0.999 1_565 S
C1442 H1412 0.950 . S
C1442 C1441 1.524 1_545 S
C1442 C1443 1.415 1_545 S
C1443 H1413 0.950 1_565 S
C1443 C1438 1.363 . S
C1443 C1442 1.415 1_565 S
H1444 C1441 0.999 1_545 S
H1445 C1426 0.913 . S
H1446 C1464 0.951 . S
H1447 C1466 0.951 . S
H1448 C1468 0.950 . S
H1449 C1469 0.950 . S
H1450 C1471 0.950 . S
H1451 C1474 0.950 . S
H1452 C1475 0.950 . S
H1453 C1477 0.950 . S
H1454 C1478 0.950 . S
H1455 C1479 0.951 . S
H1456 C1481 0.951 . S
H1457 C1483 0.950 . S
H1458 C1484 0.950 . S
H1459 C1486 0.950 . S
H1460 C1489 0.950 . S
H1461 C1490 0.950 . S
H1462 C1492 0.950 . S
H1463 C1493 0.950 . S
C1464 H1446 0.951 . S
C1464 C1465 1.366 . S
C1464 C1466 1.388 . S
C1465 C1464 1.366 . S
C1465 C1469 1.385 . S
C1466 H1447 0.951 . S
C1466 C1464 1.388 . S
C1466 C1467 1.366 . S
C1467 C1466 1.366 . S
C1467 C1468 1.414 . S
C1467 C1470 1.499 . S
C1468 H1448 0.950 . S
C1468 C1467 1.414 . S
C1468 C1469 1.374 . S
C1469 H1449 0.950 . S
C1469 C1465 1.385 . S
C1469 C1468 1.374 . S
C1470 C1467 1.499 . S
C1470 C1471 1.373 . S
C1470 C1472 1.389 . S
C1471 H1450 0.950 . S
C1471 C1470 1.373 . S
C1471 C1487 1.377 . S
C1472 C1470 1.389 . S
C1472 C1473 1.524 . S
C1472 C1486 1.377 . S
C1473 C1472 1.524 . S
C1473 C1474 1.397 . S
C1473 C1478 1.363 . S
C1474 H1451 0.950 . S
C1474 C1473 1.397 . S
C1474 C1475 1.334 . S
C1475 H1452 0.950 . S
C1475 C1474 1.334 . S
C1475 C1476 1.287 . S
C1476 C1475 1.287 . S
C1476 C1477 1.524 . S
C1476 H1495 0.913 . S
C1477 H1453 0.950 . S
C1477 C1476 1.524 . S
C1477 C1478 1.415 . S
C1478 H1454 0.950 . S
C1478 C1473 1.363 . S
C1478 C1477 1.415 . S
C1479 H1455 0.951 . S
C1479 C1480 1.366 . S
C1479 C1481 1.388 . S
C1480 C1479 1.366 . S
C1480 C1484 1.385 . S
C1481 H1456 0.951 . S
C1481 C1479 1.388 . S
C1481 C1482 1.366 . S
C1482 C1481 1.366 . S
C1482 C1483 1.414 . S
C1482 C1485 1.499 . S
C1483 H1457 0.950 . S
C1483 C1482 1.414 . S
C1483 C1484 1.374 . S
C1484 H1458 0.950 . S
C1484 C1480 1.385 . S
C1484 C1483 1.374 . S
C1485 C1482 1.499 . S
C1485 C1486 1.373 . S
C1485 C1487 1.389 . S
C1486 H1459 0.950 . S
C1486 C1472 1.377 . S
C1486 C1485 1.373 . S
C1487 C1471 1.377 . S
C1487 C1485 1.389 . S
C1487 C1488 1.524 . S
C1488 C1487 1.524 . S
C1488 C1489 1.397 . S
C1488 C1493 1.363 . S
C1489 H1460 0.950 . S
C1489 C1488 1.397 . S
C1489 C1490 1.334 . S
C1490 H1461 0.950 . S
C1490 C1489 1.334 . S
C1490 C1491 1.287 . S
C1491 C1490 1.287 . S
C1491 C1492 1.524 . S
C1491 H1494 0.999 . S
C1492 H1462 0.950 . S
C1492 C1491 1.524 . S
C1492 C1493 1.415 . S
C1493 H1463 0.950 . S
C1493 C1488 1.363 . S
C1493 C1492 1.415 . S
H1494 C1491 0.999 . S
H1495 C1476 0.913 . S
H1496 C1514 0.951 1_655 S
H1497 C1516 0.951 . S
H1498 C1518 0.950 . S
H1499 C1519 0.950 . S
H1500 C1521 0.950 . S
H1501 C1524 0.950 . S
H1502 C1525 0.950 . S
H1503 C1527 0.950 . S
H1504 C1528 0.950 . S
H1505 C1529 0.951 . S
H1506 C1531 0.951 . S
H1507 C1533 0.950 . S
H1508 C1534 0.950 . S
H1509 C1536 0.950 . S
H1510 C1539 0.950 . S
H1511 C1540 0.950 . S
H1512 C1542 0.950 . S
H1513 C1543 0.950 . S
C1514 H1496 0.951 1_455 S
C1514 C1515 1.366 . S
C1514 C1516 1.388 . S
C1515 C1514 1.366 . S
C1515 C1519 1.385 . S
C1516 H1497 0.951 . S
C1516 C1514 1.388 . S
C1516 C1517 1.366 . S
C1517 C1516 1.366 . S
C1517 C1518 1.414 . S
C1517 C1520 1.499 . S
C1518 H1498 0.950 . S
C1518 C1517 1.414 . S
C1518 C1519 1.374 . S
C1519 H1499 0.950 . S
C1519 C1515 1.385 . S
C1519 C1518 1.374 . S
C1520 C1517 1.499 . S
C1520 C1521 1.373 . S
C1520 C1522 1.389 . S
C1521 H1500 0.950 . S
C1521 C1520 1.373 . S
C1521 C1537 1.377 . S
C1522 C1520 1.389 . S
C1522 C1523 1.524 . S
C1522 C1536 1.377 . S
C1523 C1522 1.524 . S
C1523 C1524 1.397 . S
C1523 C1528 1.363 . S
C1524 H1501 0.950 . S
C1524 C1523 1.397 . S
C1524 C1525 1.334 . S
C1525 H1502 0.950 . S
C1525 C1524 1.334 . S
C1525 C1526 1.287 . S
C1526 C1525 1.287 . S
C1526 C1527 1.524 1_455 S
C1526 H1545 0.913 . S
C1527 H1503 0.950 . S
C1527 C1526 1.524 1_655 S
C1527 C1528 1.415 1_655 S
C1528 H1504 0.950 . S
C1528 C1523 1.363 . S
C1528 C1527 1.415 1_455 S
C1529 H1505 0.951 . S
C1529 C1530 1.366 . S
C1529 C1531 1.388 . S
C1530 C1529 1.366 . S
C1530 C1534 1.385 . S
C1531 H1506 0.951 . S
C1531 C1529 1.388 . S
C1531 C1532 1.366 . S
C1532 C1531 1.366 . S
C1532 C1533 1.414 . S
C1532 C1535 1.499 . S
C1533 H1507 0.950 . S
C1533 C1532 1.414 . S
C1533 C1534 1.374 . S
C1534 H1508 0.950 . S
C1534 C1530 1.385 . S
C1534 C1533 1.374 . S
C1535 C1532 1.499 . S
C1535 C1536 1.373 . S
C1535 C1537 1.389 . S
C1536 H1509 0.950 . S
C1536 C1522 1.377 . S
C1536 C1535 1.373 . S
C1537 C1521 1.377 . S
C1537 C1535 1.389 . S
C1537 C1538 1.524 . S
C1538 C1537 1.524 . S
C1538 C1539 1.397 . S
C1538 C1543 1.363 . S
C1539 H1510 0.950 . S
C1539 C1538 1.397 . S
C1539 C1540 1.334 . S
C1540 H1511 0.950 . S
C1540 C1539 1.334 . S
C1540 C1541 1.287 . S
C1541 C1540 1.287 . S
C1541 C1542 1.524 . S
C1541 H1544 0.999 . S
C1542 H1512 0.950 . S
C1542 C1541 1.524 . S
C1542 C1543 1.415 . S
C1543 H1513 0.950 . S
C1543 C1538 1.363 . S
C1543 C1542 1.415 . S
H1544 C1541 0.999 . S
H1545 C1526 0.913 . S
H1546 C1564 0.951 1_565 S
H1547 C1566 0.951 . S
H1548 C1568 0.950 . S
H1549 C1569 0.950 . S
H1550 C1571 0.950 . S
H1551 C1574 0.950 . S
H1552 C1575 0.950 . S
H1553 C1577 0.950 . S
H1554 C1578 0.950 . S
H1555 C1579 0.951 . S
H1556 C1581 0.951 . S
H1557 C1583 0.950 . S
H1558 C1584 0.950 . S
H1559 C1586 0.950 . S
H1560 C1589 0.950 . S
H1561 C1590 0.950 . S
H1562 C1592 0.950 . S
H1563 C1593 0.950 . S
C1564 H1546 0.951 1_545 S
C1564 C1565 1.366 . S
C1564 C1566 1.388 . S
C1565 C1564 1.366 . S
C1565 C1569 1.385 . S
C1566 H1547 0.951 . S
C1566 C1564 1.388 . S
C1566 C1567 1.366 . S
C1567 C1566 1.366 . S
C1567 C1568 1.414 . S
C1567 C1570 1.499 . S
C1568 H1548 0.950 . S
C1568 C1567 1.414 . S
C1568 C1569 1.374 . S
C1569 H1549 0.950 . S
C1569 C1565 1.385 . S
C1569 C1568 1.374 . S
C1570 C1567 1.499 . S
C1570 C1571 1.373 . S
C1570 C1572 1.389 . S
C1571 H1550 0.950 . S
C1571 C1570 1.373 . S
C1571 C1587 1.377 . S
C1572 C1570 1.389 . S
C1572 C1573 1.524 . S
C1572 C1586 1.377 . S
C1573 C1572 1.524 . S
C1573 C1574 1.397 . S
C1573 C1578 1.363 . S
C1574 H1551 0.950 . S
C1574 C1573 1.397 . S
C1574 C1575 1.334 . S
C1575 H1552 0.950 . S
C1575 C1574 1.334 . S
C1575 C1576 1.287 . S
C1576 C1575 1.287 . S
C1576 C1577 1.524 . S
C1576 H1595 0.913 . S
C1577 H1553 0.950 . S
C1577 C1576 1.524 . S
C1577 C1578 1.415 . S
C1578 H1554 0.950 . S
C1578 C1573 1.363 . S
C1578 C1577 1.415 . S
C1579 H1555 0.951 . S
C1579 C1580 1.366 . S
C1579 C1581 1.388 . S
C1580 C1579 1.366 . S
C1580 C1584 1.385 . S
C1581 H1556 0.951 . S
C1581 C1579 1.388 . S
C1581 C1582 1.366 . S
C1582 C1581 1.366 . S
C1582 C1583 1.414 . S
C1582 C1585 1.499 . S
C1583 H1557 0.950 . S
C1583 C1582 1.414 . S
C1583 C1584 1.374 . S
C1584 H1558 0.950 . S
C1584 C1580 1.385 . S
C1584 C1583 1.374 . S
C1585 C1582 1.499 . S
C1585 C1586 1.373 . S
C1585 C1587 1.389 . S
C1586 H1559 0.950 . S
C1586 C1572 1.377 . S
C1586 C1585 1.373 . S
C1587 C1571 1.377 . S
C1587 C1585 1.389 . S
C1587 C1588 1.524 . S
C1588 C1587 1.524 . S
C1588 C1589 1.397 . S
C1588 C1593 1.363 . S
C1589 H1560 0.950 . S
C1589 C1588 1.397 . S
C1589 C1590 1.334 . S
C1590 H1561 0.950 . S
C1590 C1589 1.334 . S
C1590 C1591 1.287 . S
C1591 C1590 1.287 . S
C1591 C1592 1.524 . S
C1591 H1594 0.999 . S
C1592 H1562 0.950 . S
C1592 C1591 1.524 . S
C1592 C1593 1.415 . S
C1593 H1563 0.950 . S
C1593 C1588 1.363 . S
C1593 C1592 1.415 . S
H1594 C1591 0.999 . S
H1595 C1576 0.913 . S
H1596 C1614 0.951 . S
H1597 C1616 0.951 . S
H1598 C1618 0.950 . S
H1599 C1619 0.950 . S
H1600 C1621 0.950 . S
H1601 C1624 0.950 . S
H1602 C1625 0.950 . S
H1603 C1627 0.950 . S
H1604 C1628 0.950 . S
H1605 C1629 0.951 . S
H1606 C1631 0.951 . S
H1607 C1633 0.950 . S
H1608 C1634 0.950 . S
H1609 C1636 0.950 . S
H1610 C1639 0.950 . S
H1611 C1640 0.950 . S
H1612 C1642 0.950 . S
H1613 C1643 0.950 . S
C1614 H1596 0.951 . S
C1614 C1615 1.366 1_655 S
C1614 C1616 1.388 . S
C1615 C1614 1.366 1_455 S
C1615 C1619 1.385 . S
C1616 H1597 0.951 . S
C1616 C1614 1.388 . S
C1616 C1617 1.366 1_655 S
C1617 C1616 1.366 1_455 S
C1617 C1618 1.414 . S
C1617 C1620 1.499 . S
C1618 H1598 0.950 . S
C1618 C1617 1.414 . S
C1618 C1619 1.374 . S
C1619 H1599 0.950 . S
C1619 C1615 1.385 . S
C1619 C1618 1.374 . S
C1620 C1617 1.499 . S
C1620 C1621 1.373 . S
C1620 C1622 1.389 1_455 S
C1621 H1600 0.950 . S
C1621 C1620 1.373 . S
C1621 C1637 1.377 . S
C1622 C1620 1.389 1_655 S
C1622 C1623 1.524 . S
C1622 C1636 1.377 . S
C1623 C1622 1.524 . S
C1623 C1624 1.397 1_655 S
C1623 C1628 1.363 . S
C1624 H1601 0.950 . S
C1624 C1623 1.397 1_455 S
C1624 C1625 1.334 . S
C1625 H1602 0.950 . S
C1625 C1624 1.334 . S
C1625 C1626 1.287 1_455 S
C1626 C1625 1.287 1_655 S
C1626 C1627 1.524 . S
C1626 H1645 0.913 . S
C1627 H1603 0.950 . S
C1627 C1626 1.524 . S
C1627 C1628 1.415 . S
C1628 H1604 0.950 . S
C1628 C1623 1.363 . S
C1628 C1627 1.415 . S
C1629 H1605 0.951 . S
C1629 C1630 1.366 . S
C1629 C1631 1.388 . S
C1630 C1629 1.366 . S
C1630 C1634 1.385 1_455 S
C1631 H1606 0.951 . S
C1631 C1629 1.388 . S
C1631 C1632 1.366 . S
C1632 C1631 1.366 . S
C1632 C1633 1.414 1_455 S
C1632 C1635 1.499 . S
C1633 H1607 0.950 . S
C1633 C1632 1.414 1_655 S
C1633 C1634 1.374 . S
C1634 H1608 0.950 . S
C1634 C1630 1.385 1_655 S
C1634 C1633 1.374 . S
C1635 C1632 1.499 . S
C1635 C1636 1.373 1_455 S
C1635 C1637 1.389 . S
C1636 H1609 0.950 . S
C1636 C1622 1.377 . S
C1636 C1635 1.373 1_655 S
C1637 C1621 1.377 . S
C1637 C1635 1.389 . S
C1637 C1638 1.524 . S
C1638 C1637 1.524 . S
C1638 C1639 1.397 1_455 S
C1638 C1643 1.363 . S
C1639 H1610 0.950 . S
C1639 C1638 1.397 1_655 S
C1639 C1640 1.334 . S
C1640 H1611 0.950 . S
C1640 C1639 1.334 . S
C1640 C1641 1.287 1_655 S
C1641 C1640 1.287 1_455 S
C1641 C1642 1.524 . S
C1641 H1644 0.999 . S
C1642 H1612 0.950 . S
C1642 C1641 1.524 . S
C1642 C1643 1.415 . S
C1643 H1613 0.950 . S
C1643 C1638 1.363 . S
C1643 C1642 1.415 . S
H1644 C1641 0.999 . S
H1645 C1626 0.913 . S
H1646 C1664 0.951 . S
H1647 C1666 0.951 . S
H1648 C1668 0.952 1_565 S
H1649 C1669 0.952 1_565 S
H1650 C1671 0.950 . S
H1651 C1674 0.950 . S
H1652 C1675 0.950 . S
H1653 C1677 0.950 . S
H1654 C1678 0.950 . S
H1655 C1679 0.951 1_565 S
H1656 C1681 0.950 . S
H1657 C1683 0.950 . S
H1658 C1684 0.950 . S
H1659 C1686 0.950 . S
H1660 C1689 0.950 . S
H1661 C1690 0.950 . S
H1662 C1692 0.950 . S
H1663 C1693 0.950 . S
C1664 H1646 0.951 . S
C1664 C1665 1.366 . S
C1664 C1666 1.388 . S
C1665 C1664 1.366 . S
C1665 C1669 1.374 . S
C1666 H1647 0.951 . S
C1666 C1664 1.388 . S
C1666 C1667 1.366 . S
C1667 C1666 1.366 . S
C1667 C1668 1.414 . S
C1667 C1670 1.499 . S
C1668 H1648 0.952 1_545 S
C1668 C1667 1.414 . S
C1668 C1669 1.382 . S
C1669 H1649 0.952 1_545 S
C1669 C1665 1.374 . S
C1669 C1668 1.382 . S
C1670 C1667 1.499 . S
C1670 C1671 1.373 . S
C1670 C1672 1.389 1_545 S
C1671 H1650 0.950 . S
C1671 C1670 1.373 . S
C1671 C1687 1.377 . S
C1672 C1670 1.389 1_565 S
C1672 C1673 1.524 . S
C1672 C1686 1.377 . S
C1673 C1672 1.524 . S
C1673 C1674 1.397 . S
C1673 C1678 1.363 . S
C1674 H1651 0.950 . S
C1674 C1673 1.397 . S
C1674 C1675 1.334 . S
C1675 H1652 0.950 . S
C1675 C1674 1.334 . S
C1675 C1676 1.287 . S
C1676 C1675 1.287 . S
C1676 C1677 1.524 . S
C1676 H1695 0.913 . S
C1677 H1653 0.950 . S
C1677 C1676 1.524 . S
C1677 C1678 1.415 . S
C1678 H1654 0.950 . S
C1678 C1673 1.363 . S
C1678 C1677 1.415 . S
C1679 H1655 0.951 1_545 S
C1679 C1680 1.366 . S
C1679 C1681 1.388 . S
C1680 C1679 1.366 . S
C1680 C1684 1.385 . S
C1681 H1656 0.950 . S
C1681 C1679 1.388 . S
C1681 C1682 1.366 . S
C1682 C1681 1.366 . S
C1682 C1683 1.414 . S
C1682 C1685 1.499 . S
C1683 H1657 0.950 . S
C1683 C1682 1.414 . S
C1683 C1684 1.374 . S
C1684 H1658 0.950 . S
C1684 C1680 1.385 . S
C1684 C1683 1.374 . S
C1685 C1682 1.499 . S
C1685 C1686 1.373 1_545 S
C1685 C1687 1.389 . S
C1686 H1659 0.950 . S
C1686 C1672 1.377 . S
C1686 C1685 1.373 1_565 S
C1687 C1671 1.377 . S
C1687 C1685 1.389 . S
C1687 C1688 1.524 . S
C1688 C1687 1.524 . S
C1688 C1689 1.397 . S
C1688 C1693 1.363 . S
C1689 H1660 0.950 . S
C1689 C1688 1.397 . S
C1689 C1690 1.334 . S
C1690 H1661 0.950 . S
C1690 C1689 1.334 . S
C1690 C1691 1.287 . S
C1691 C1690 1.287 . S
C1691 C1692 1.524 . S
C1691 H1694 0.999 . S
C1692 H1662 0.950 . S
C1692 C1691 1.524 . S
C1692 C1693 1.415 . S
C1693 H1663 0.950 . S
C1693 C1688 1.363 . S
C1693 C1692 1.415 . S
H1694 C1691 0.999 . S
H1695 C1676 0.913 . S
H1696 C1714 0.951 . S
H1697 C1716 0.951 . S
H1698 C1718 0.950 . S
H1699 C1719 0.950 . S
H1700 C1721 0.950 . S
H1701 C1724 0.950 . S
H1702 C1725 0.950 . S
H1703 C1727 0.950 . S
H1704 C1728 0.950 . S
H1705 C1729 0.951 . S
H1706 C1731 0.951 . S
H1707 C1733 0.950 . S
H1708 C1734 0.950 . S
H1709 C1736 0.950 . S
H1710 C1739 0.950 . S
H1711 C1740 0.950 . S
H1712 C1742 0.950 . S
H1713 C1743 0.950 . S
C1714 H1696 0.951 . S
C1714 C1715 1.366 . S
C1714 C1716 1.388 . S
C1715 C1714 1.366 . S
C1715 C1719 1.385 . S
C1716 H1697 0.951 . S
C1716 C1714 1.388 . S
C1716 C1717 1.366 . S
C1717 C1716 1.366 . S
C1717 C1718 1.414 . S
C1717 C1720 1.499 . S
C1718 H1698 0.950 . S
C1718 C1717 1.414 . S
C1718 C1719 1.374 . S
C1719 H1699 0.950 . S
C1719 C1715 1.385 . S
C1719 C1718 1.374 . S
C1720 C1717 1.499 . S
C1720 C1721 1.373 . S
C1720 C1722 1.389 . S
C1721 H1700 0.950 . S
C1721 C1720 1.373 . S
C1721 C1737 1.377 . S
C1722 C1720 1.389 . S
C1722 C1723 1.524 . S
C1722 C1736 1.377 . S
C1723 C1722 1.524 . S
C1723 C1724 1.397 . S
C1723 C1728 1.363 . S
C1724 H1701 0.950 . S
C1724 C1723 1.397 . S
C1724 C1725 1.334 . S
C1725 H1702 0.950 . S
C1725 C1724 1.334 . S
C1725 C1726 1.287 . S
C1726 C1725 1.287 . S
C1726 C1727 1.524 . S
C1726 H1745 0.913 . S
C1727 H1703 0.950 . S
C1727 C1726 1.524 . S
C1727 C1728 1.415 . S
C1728 H1704 0.950 . S
C1728 C1723 1.363 . S
C1728 C1727 1.415 . S
C1729 H1705 0.951 . S
C1729 C1730 1.366 . S
C1729 C1731 1.388 . S
C1730 C1729 1.366 . S
C1730 C1734 1.385 . S
C1731 H1706 0.951 . S
C1731 C1729 1.388 . S
C1731 C1732 1.366 . S
C1732 C1731 1.366 . S
C1732 C1733 1.414 . S
C1732 C1735 1.499 . S
C1733 H1707 0.950 . S
C1733 C1732 1.414 . S
C1733 C1734 1.374 . S
C1734 H1708 0.950 . S
C1734 C1730 1.385 . S
C1734 C1733 1.374 . S
C1735 C1732 1.499 . S
C1735 C1736 1.373 . S
C1735 C1737 1.389 . S
C1736 H1709 0.950 . S
C1736 C1722 1.377 . S
C1736 C1735 1.373 . S
C1737 C1721 1.377 . S
C1737 C1735 1.389 . S
C1737 C1738 1.524 . S
C1738 C1737 1.524 . S
C1738 C1739 1.397 . S
C1738 C1743 1.363 . S
C1739 H1710 0.950 . S
C1739 C1738 1.397 . S
C1739 C1740 1.334 . S
C1740 H1711 0.950 . S
C1740 C1739 1.334 . S
C1740 C1741 1.287 . S
C1741 C1740 1.287 . S
C1741 C1742 1.524 . S
C1741 H1744 0.999 . S
C1742 H1712 0.950 . S
C1742 C1741 1.524 . S
C1742 C1743 1.415 . S
C1743 H1713 0.950 . S
C1743 C1738 1.363 . S
C1743 C1742 1.415 . S
H1744 C1741 0.999 . S
H1745 C1726 0.913 . S
H1746 C1764 0.951 . S
H1747 C1766 0.951 . S
H1748 C1768 0.950 . S
H1749 C1769 0.950 . S
H1750 C1771 0.950 . S
H1751 C1774 0.950 . S
H1752 C1775 0.950 . S
H1753 C1777 0.950 . S
H1754 C1778 0.950 . S
H1755 C1779 0.951 . S
H1756 C1781 0.951 . S
H1757 C1783 0.950 . S
H1758 C1784 0.950 . S
H1759 C1786 0.950 . S
H1760 C1789 0.950 . S
H1761 C1790 0.950 . S
H1762 C1792 0.950 . S
H1763 C1793 0.950 . S
C1764 H1746 0.951 . S
C1764 C1765 1.366 1_455 S
C1764 C1766 1.388 . S
C1765 C1764 1.366 1_655 S
C1765 C1769 1.385 . S
C1766 H1747 0.951 . S
C1766 C1764 1.388 . S
C1766 C1767 1.366 1_455 S
C1767 C1766 1.366 1_655 S
C1767 C1768 1.414 . S
C1767 C1770 1.499 . S
C1768 H1748 0.950 . S
C1768 C1767 1.414 . S
C1768 C1769 1.374 . S
C1769 H1749 0.950 . S
C1769 C1765 1.385 . S
C1769 C1768 1.374 . S
C1770 C1767 1.499 . S
C1770 C1771 1.373 . S
C1770 C1772 1.389 1_655 S
C1771 H1750 0.950 . S
C1771 C1770 1.373 . S
C1771 C1787 1.377 . S
C1772 C1770 1.389 1_455 S
C1772 C1773 1.524 . S
C1772 C1786 1.377 . S
C1773 C1772 1.524 . S
C1773 C1774 1.397 . S
C1773 C1778 1.363 . S
C1774 H1751 0.950 . S
C1774 C1773 1.397 . S
C1774 C1775 1.334 . S
C1775 H1752 0.950 . S
C1775 C1774 1.334 . S
C1775 C1776 1.287 . S
C1776 C1775 1.287 . S
C1776 C1777 1.524 . S
C1776 H1795 0.913 . S
C1777 H1753 0.950 . S
C1777 C1776 1.524 . S
C1777 C1778 1.415 . S
C1778 H1754 0.950 . S
C1778 C1773 1.363 . S
C1778 C1777 1.415 . S
C1779 H1755 0.951 . S
C1779 C1780 1.366 . S
C1779 C1781 1.388 . S
C1780 C1779 1.366 . S
C1780 C1784 1.385 1_655 S
C1781 H1756 0.951 . S
C1781 C1779 1.388 . S
C1781 C1782 1.366 . S
C1782 C1781 1.366 . S
C1782 C1783 1.414 1_655 S
C1782 C1785 1.499 . S
C1783 H1757 0.950 . S
C1783 C1782 1.414 1_455 S
C1783 C1784 1.374 . S
C1784 H1758 0.950 . S
C1784 C1780 1.385 1_455 S
C1784 C1783 1.374 . S
C1785 C1782 1.499 . S
C1785 C1786 1.373 1_655 S
C1785 C1787 1.389 . S
C1786 H1759 0.950 . S
C1786 C1772 1.377 . S
C1786 C1785 1.373 1_455 S
C1787 C1771 1.377 . S
C1787 C1785 1.389 . S
C1787 C1788 1.524 . S
C1788 C1787 1.524 . S
C1788 C1789 1.397 . S
C1788 C1793 1.363 . S
C1789 H1760 0.950 . S
C1789 C1788 1.397 . S
C1789 C1790 1.334 . S
C1790 H1761 0.950 . S
C1790 C1789 1.334 . S
C1790 C1791 1.287 . S
C1791 C1790 1.287 . S
C1791 C1792 1.524 . S
C1791 H1794 0.999 . S
C1792 H1762 0.950 . S
C1792 C1791 1.524 . S
C1792 C1793 1.415 . S
C1793 H1763 0.950 . S
C1793 C1788 1.363 . S
C1793 C1792 1.415 . S
H1794 C1791 0.999 . S
H1795 C1776 0.913 . S
H1796 C1814 0.951 . S
H1797 C1816 0.951 . S
H1798 C1818 0.950 . S
H1799 C1819 0.950 . S
H1800 C1821 0.950 . S
H1801 C1824 0.950 1_545 S
H1802 C1825 0.950 . S
H1803 C1827 0.950 . S
H1804 C1828 0.950 . S
H1805 C1829 0.951 . S
H1806 C1831 0.951 . S
H1807 C1833 0.950 . S
H1808 C1834 0.950 . S
H1809 C1836 0.950 . S
H1810 C1839 0.950 1_565 S
H1811 C1840 0.950 1_565 S
H1812 C1842 0.950 . S
H1813 C1843 0.950 . S
C1814 H1796 0.951 . S
C1814 C1815 1.366 . S
C1814 C1816 1.388 . S
C1815 C1814 1.366 . S
C1815 C1819 1.385 1_565 S
C1816 H1797 0.951 . S
C1816 C1814 1.388 . S
C1816 C1817 1.366 . S
C1817 C1816 1.366 . S
C1817 C1818 1.414 1_565 S
C1817 C1820 1.499 . S
C1818 H1798 0.950 . S
C1818 C1817 1.414 1_545 S
C1818 C1819 1.374 . S
C1819 H1799 0.950 . S
C1819 C1815 1.385 1_545 S
C1819 C1818 1.374 . S
C1820 C1817 1.499 . S
C1820 C1821 1.373 1_565 S
C1820 C1822 1.389 . S
C1821 H1800 0.950 . S
C1821 C1820 1.373 1_545 S
C1821 C1837 1.377 . S
C1822 C1820 1.389 . S
C1822 C1823 1.524 . S
C1822 C1836 1.377 . S
C1823 C1822 1.524 . S
C1823 C1824 1.397 . S
C1823 C1828 1.363 . S
C1824 H1801 0.950 1_565 S
C1824 C1823 1.397 . S
C1824 C1825 1.334 . S
C1825 H1802 0.950 . S
C1825 C1824 1.334 . S
C1825 C1826 1.287 . S
C1826 C1825 1.287 . S
C1826 C1827 1.524 . S
C1826 H1845 0.913 . S
C1827 H1803 0.950 . S
C1827 C1826 1.524 . S
C1827 C1828 1.415 . S
C1828 H1804 0.950 . S
C1828 C1823 1.363 . S
C1828 C1827 1.415 . S
C1829 H1805 0.951 . S
C1829 C1830 1.366 1_545 S
C1829 C1831 1.388 . S
C1830 C1829 1.366 1_565 S
C1830 C1834 1.385 . S
C1831 H1806 0.951 . S
C1831 C1829 1.388 . S
C1831 C1832 1.366 1_545 S
C1832 C1831 1.366 1_565 S
C1832 C1833 1.414 . S
C1832 C1835 1.499 . S
C1833 H1807 0.950 . S
C1833 C1832 1.414 . S
C1833 C1834 1.374 . S
C1834 H1808 0.950 . S
C1834 C1830 1.385 . S
C1834 C1833 1.374 . S
C1835 C1832 1.499 . S
C1835 C1836 1.373 . S
C1835 C1837 1.389 1_565 S
C1836 H1809 0.950 . S
C1836 C1822 1.377 . S
C1836 C1835 1.373 . S
C1837 C1821 1.377 . S
C1837 C1835 1.389 1_545 S
C1837 C1838 1.524 . S
C1838 C1837 1.524 . S
C1838 C1839 1.397 . S
C1838 C1843 1.363 . S
C1839 H1810 0.950 1_545 S
C1839 C1838 1.397 . S
C1839 C1840 1.334 . S
C1840 H1811 0.950 1_545 S
C1840 C1839 1.334 . S
C1840 C1841 1.287 . S
C1841 C1840 1.287 . S
C1841 C1842 1.524 . S
C1841 H1844 0.999 . S
C1842 H1812 0.950 . S
C1842 C1841 1.524 . S
C1842 C1843 1.415 . S
C1843 H1813 0.950 . S
C1843 C1838 1.363 . S
C1843 C1842 1.415 . S
H1844 C1841 0.999 . S
H1845 C1826 0.913 . S
H1846 C1864 0.951 . S
H1847 C1866 0.951 . S
H1848 C1868 0.950 . S
H1849 C1869 0.950 . S
H1850 C1871 0.950 . S
H1851 C1874 0.950 . S
H1852 C1875 0.950 . S
H1853 C1877 0.950 . S
H1854 C1878 0.950 . S
H1855 C1879 0.951 . S
H1856 C1881 0.951 . S
H1857 C1883 0.950 . S
H1858 C1884 0.950 . S
H1859 C1886 0.950 . S
H1860 C1889 0.950 . S
H1861 C1890 0.950 . S
H1862 C1892 0.950 . S
H1863 C1893 0.950 . S
C1864 H1846 0.951 . S
C1864 C1865 1.366 . S
C1864 C1866 1.388 . S
C1865 C1864 1.366 . S
C1865 C1869 1.385 . S
C1866 H1847 0.951 . S
C1866 C1864 1.388 . S
C1866 C1867 1.366 . S
C1867 C1866 1.366 . S
C1867 C1868 1.414 . S
C1867 C1870 1.499 . S
C1868 H1848 0.950 . S
C1868 C1867 1.414 . S
C1868 C1869 1.374 . S
C1869 H1849 0.950 . S
C1869 C1865 1.385 . S
C1869 C1868 1.374 . S
C1870 C1867 1.499 . S
C1870 C1871 1.373 . S
C1870 C1872 1.389 . S
C1871 H1850 0.950 . S
C1871 C1870 1.373 . S
C1871 C1887 1.377 . S
C1872 C1870 1.389 . S
C1872 C1873 1.524 . S
C1872 C1886 1.377 . S
C1873 C1872 1.524 . S
C1873 C1874 1.397 . S
C1873 C1878 1.363 . S
C1874 H1851 0.950 . S
C1874 C1873 1.397 . S
C1874 C1875 1.334 . S
C1875 H1852 0.950 . S
C1875 C1874 1.334 . S
C1875 C1876 1.287 . S
C1876 C1875 1.287 . S
C1876 C1877 1.524 . S
C1876 H1895 0.913 . S
C1877 H1853 0.950 . S
C1877 C1876 1.524 . S
C1877 C1878 1.415 . S
C1878 H1854 0.950 . S
C1878 C1873 1.363 . S
C1878 C1877 1.415 . S
C1879 H1855 0.951 . S
C1879 C1880 1.366 . S
C1879 C1881 1.388 . S
C1880 C1879 1.366 . S
C1880 C1884 1.385 . S
C1881 H1856 0.951 . S
C1881 C1879 1.388 . S
C1881 C1882 1.366 . S
C1882 C1881 1.366 . S
C1882 C1883 1.414 . S
C1882 C1885 1.499 . S
C1883 H1857 0.950 . S
C1883 C1882 1.414 . S
C1883 C1884 1.374 . S
C1884 H1858 0.950 . S
C1884 C1880 1.385 . S
C1884 C1883 1.374 . S
C1885 C1882 1.499 . S
C1885 C1886 1.373 . S
C1885 C1887 1.389 . S
C1886 H1859 0.950 . S
C1886 C1872 1.377 . S
C1886 C1885 1.373 . S
C1887 C1871 1.377 . S
C1887 C1885 1.389 . S
C1887 C1888 1.524 . S
C1888 C1887 1.524 . S
C1888 C1889 1.397 . S
C1888 C1893 1.363 . S
C1889 H1860 0.950 . S
C1889 C1888 1.397 . S
C1889 C1890 1.334 . S
C1890 H1861 0.950 . S
C1890 C1889 1.334 . S
C1890 C1891 1.287 . S
C1891 C1890 1.287 . S
C1891 C1892 1.524 . S
C1891 H1894 0.999 . S
C1892 H1862 0.950 . S
C1892 C1891 1.524 . S
C1892 C1893 1.415 . S
C1893 H1863 0.950 . S
C1893 C1888 1.363 . S
C1893 C1892 1.415 . S
H1894 C1891 0.999 . S
H1895 C1876 0.913 . S
C415 C238 1.349 . S
C430 C7 1.348 . S
C465 C271 1.348 . S
C480 C40 1.348 . S
C515 C73 1.348 . S
C530 C304 1.349 . S
C565 C337 1.348 . S
C580 C106 1.349 . S
C615 C139 1.348 . S
C630 C370 1.349 . S
C665 C205 1.348 . S
C680 C172 1.349 . S
C715 N2 1.812 . S
C730 N266 1.812 . S
C765 N35 1.812 . S
C780 N299 1.812 . S
C815 N332 1.811 . S
C830 N68 1.811 . S
C865 N365 1.812 . S
C880 N101 1.812 . S
C915 N134 1.812 . S
C930 N200 1.812 . S
C965 N233 1.812 . S
C980 N167 1.812 . S
C1015 N244 1.094 . S
C1030 C21 1.109 . S
C1065 N277 1.094 . S
C1080 C54 1.109 . S
C1115 N310 1.094 . S
C1130 C87 1.109 . S
C1165 C120 1.109 . S
C1180 N343 1.094 . S
C1215 N376 1.095 . S
C1230 C153 1.109 . S
C1265 C186 1.109 . S
C1280 N211 1.094 . S
C1315 C219 1.110 . S
C1330 N178 1.095 . S
C1365 N13 1.093 . S
C1380 C252 1.109 . S
C1415 N46 1.095 . S
C1430 C285 1.109 . S
C1465 N79 1.095 . S
C1480 C318 1.109 . S
C1515 N112 1.094 . S
C1530 C351 1.109 . S
C1565 N145 1.094 . S
C1580 C384 1.109 . S
C1615 C282 1.389 . S
C1630 C18 1.389 . S
C1665 C51 1.389 . S
C1680 C315 1.389 . S
C1715 C348 1.390 . S
C1730 C84 1.389 . S
C1765 C117 1.389 . S
C1780 C381 1.389 . S
C1815 C150 1.389 . S
C1830 C216 1.389 . S
C1865 C249 1.389 . S
C1880 C183 1.390 . S
