# Generated by pormake.
# Topology uof, (4)-cn, num edge types: 1
# Building blocks:
#     Node 0, Type 0, BuildingBlock: AZAVOO_clean_sbu_0, # of connection points: 4
#     Node 1, Type 0, BuildingBlock: AZAVOO_clean_sbu_0, # of connection points: 4
#     Node 2, Type 0, BuildingBlock: AZAVOO_clean_sbu_0, # of connection points: 4
#     Node 3, Type 0, BuildingBlock: AZAVOO_clean_sbu_0, # of connection points: 4
#     Node 4, Type 0, BuildingBlock: AZAVOO_clean_sbu_0, # of connection points: 4
#     Node 5, Type 0, BuildingBlock: AZAVOO_clean_sbu_0, # of connection points: 4
#     Node 6, Type 0, BuildingBlock: AZAVOO_clean_sbu_0, # of connection points: 4
#     Node 7, Type 0, BuildingBlock: AZAVOO_clean_sbu_0, # of connection points: 4
#     Node 8, Type 0, BuildingBlock: AZAVOO_clean_sbu_0, # of connection points: 4
#     Node 9, Type 0, BuildingBlock: AZAVOO_clean_sbu_0, # of connection points: 4
#     Node 10, Type 0, BuildingBlock: AZAVOO_clean_sbu_0, # of connection points: 4
#     Node 11, Type 0, BuildingBlock: AZAVOO_clean_sbu_0, # of connection points: 4
#     Edge 12, Type (0, 0), BuildingBlock: AJUNOK_clean_linker_0, # of connection points: 2
#     Edge 13, Type (0, 0), BuildingBlock: AJUNOK_clean_linker_0, # of connection points: 2
#     Edge 14, Type (0, 0), BuildingBlock: AJUNOK_clean_linker_0, # of connection points: 2
#     Edge 15, Type (0, 0), BuildingBlock: AJUNOK_clean_linker_0, # of connection points: 2
#     Edge 16, Type (0, 0), BuildingBlock: AJUNOK_clean_linker_0, # of connection points: 2
#     Edge 17, Type (0, 0), BuildingBlock: AJUNOK_clean_linker_0, # of connection points: 2
#     Edge 18, Type (0, 0), BuildingBlock: AJUNOK_clean_linker_0, # of connection points: 2
#     Edge 19, Type (0, 0), BuildingBlock: AJUNOK_clean_linker_0, # of connection points: 2
#     Edge 20, Type (0, 0), BuildingBlock: AJUNOK_clean_linker_0, # of connection points: 2
#     Edge 21, Type (0, 0), BuildingBlock: AJUNOK_clean_linker_0, # of connection points: 2
#     Edge 22, Type (0, 0), BuildingBlock: AJUNOK_clean_linker_0, # of connection points: 2
#     Edge 23, Type (0, 0), BuildingBlock: AJUNOK_clean_linker_0, # of connection points: 2
#     Edge 24, Type (0, 0), BuildingBlock: AJUNOK_clean_linker_0, # of connection points: 2
#     Edge 25, Type (0, 0), BuildingBlock: AJUNOK_clean_linker_0, # of connection points: 2
#     Edge 26, Type (0, 0), BuildingBlock: AJUNOK_clean_linker_0, # of connection points: 2
#     Edge 27, Type (0, 0), BuildingBlock: AJUNOK_clean_linker_0, # of connection points: 2
#     Edge 28, Type (0, 0), BuildingBlock: AJUNOK_clean_linker_0, # of connection points: 2
#     Edge 29, Type (0, 0), BuildingBlock: AJUNOK_clean_linker_0, # of connection points: 2
#     Edge 30, Type (0, 0), BuildingBlock: AJUNOK_clean_linker_0, # of connection points: 2
#     Edge 31, Type (0, 0), BuildingBlock: AJUNOK_clean_linker_0, # of connection points: 2
#     Edge 32, Type (0, 0), BuildingBlock: AJUNOK_clean_linker_0, # of connection points: 2
#     Edge 33, Type (0, 0), BuildingBlock: AJUNOK_clean_linker_0, # of connection points: 2
#     Edge 34, Type (0, 0), BuildingBlock: AJUNOK_clean_linker_0, # of connection points: 2
#     Edge 35, Type (0, 0), BuildingBlock: AJUNOK_clean_linker_0, # of connection points: 2
# Relax obj value: 0.237
# Max RMSD: 0.198
# Mean RMSD: 0.198
data_MOF--net-uof--node1-AZAVOO_clean_sbu_0--edge1-AJUNOK_clean_linker_0
_symmetry_space_group_name_H-M    P1
_symmetry_Int_Tables_number       1
_symmetry_cell_setting            triclinic
loop_
_symmetry_equiv_pos_as_xyz
'x, y, z'
_cell_length_a     23.933565
_cell_length_b     24.00794
_cell_length_c     47.084763
_cell_angle_alpha  90.172525
_cell_angle_beta   89.820447
_cell_angle_gamma 120.07829
loop_
_atom_site_label
_atom_site_type_symbol
_atom_site_fract_x
_atom_site_fract_y
_atom_site_fract_z
_atom_type_partial_charge
Mg0 Mg 0.25439 0.35851 0.20359 0.0
O1 O 0.26498 0.27244 0.19014 0.0
O2 O 0.35922 0.28844 0.20746 0.0
Mg3 Mg 0.41131 0.38488 0.22977 0.0
C4 C 0.30646 0.25454 0.19406 0.0
C5 C 0.12072 0.33501 0.18079 0.0
O6 O 0.15534 0.39799 0.17868 0.0
O7 O 0.23181 0.31675 0.24942 0.0
O8 O 0.33041 0.33612 0.26155 0.0
O9 O 0.30818 0.41046 0.16343 0.0
O10 O 0.35441 0.41421 0.20443 0.0
C11 C 0.27069 0.31313 0.26698 0.0
C12 C 0.36022 0.42728 0.17781 0.0
O13 O 0.14723 0.30467 0.19081 0.0
Mg14 Mg 0.89042 0.25704 0.5408 0.0
O15 O 0.97788 0.25794 0.51968 0.0
O16 O 0.06444 0.35197 0.53214 0.0
Mg17 Mg 0.03646 0.40967 0.56077 0.0
C18 C 0.03847 0.29814 0.51914 0.0
C19 C 0.81597 0.13201 0.5042 0.0
O20 O 0.84409 0.1757 0.4843 0.0
O21 O 0.9199 0.23525 0.58426 0.0
O22 O 0.00725 0.331 0.59341 0.0
O23 O 0.88328 0.31235 0.50307 0.0
O24 O 0.94129 0.35691 0.54152 0.0
C25 C 0.96797 0.27265 0.59993 0.0
C26 C 0.92539 0.36352 0.51634 0.0
O27 O 0.82541 0.14978 0.53007 0.0
Mg28 Mg 0.64746 0.90723 0.87788 0.0
O29 O 0.72548 0.99058 0.85255 0.0
O30 O 0.71245 0.07596 0.85955 0.0
Mg31 Mg 0.63001 0.04976 0.89035 0.0
C32 C 0.74146 0.04908 0.84828 0.0
C33 C 0.66349 0.79695 0.85306 0.0
O34 O 0.60286 0.77808 0.84732 0.0
O35 O 0.708 0.9534 0.91865 0.0
O36 O 0.69116 0.03652 0.92331 0.0
O37 O 0.57743 0.88496 0.84135 0.0
O38 O 0.59152 0.95071 0.87698 0.0
C39 C 0.71721 0.00437 0.93168 0.0
C40 C 0.56607 0.92728 0.85281 0.0
O41 O 0.69611 0.84847 0.86732 0.0
Mg42 Mg 0.72057 0.62508 0.2091 0.0
O43 O 0.72104 0.70949 0.18737 0.0
O44 O 0.62394 0.70008 0.19437 0.0
Mg45 Mg 0.55979 0.60862 0.21902 0.0
C46 C 0.68141 0.72978 0.18464 0.0
C47 C 0.85024 0.64995 0.18375 0.0
O48 O 0.80893 0.59334 0.17315 0.0
O49 O 0.72884 0.67507 0.25279 0.0
O50 O 0.6282 0.65785 0.25541 0.0
O51 O 0.67756 0.56516 0.16896 0.0
O52 O 0.62082 0.57089 0.20468 0.0
C53 C 0.68458 0.68051 0.26582 0.0
C54 C 0.62218 0.55128 0.1795 0.0
O55 O 0.82975 0.67568 0.20153 0.0
Mg56 Mg 0.09271 0.73416 0.54196 0.0
O57 O 0.00481 0.73294 0.52299 0.0
O58 O 0.91768 0.63839 0.53433 0.0
Mg59 Mg 0.94795 0.57677 0.55899 0.0
C60 C 0.94411 0.69404 0.52299 0.0
C61 C 0.18466 0.85813 0.50676 0.0
O62 O 0.18292 0.81321 0.49019 0.0
O63 O 0.06109 0.75377 0.58674 0.0
O64 O 0.97723 0.6545 0.59116 0.0
O65 O 0.09913 0.68126 0.50246 0.0
O66 O 0.04316 0.63319 0.54077 0.0
C67 C 0.0118 0.71136 0.60062 0.0
C68 C 0.05835 0.62878 0.51515 0.0
O69 O 0.15387 0.84155 0.53027 0.0
Mg70 Mg 0.34587 0.08299 0.87445 0.0
O71 O 0.25929 -0.00261 0.85323 0.0
O72 O 0.25815 0.90901 0.86942 0.0
Mg73 Mg 0.34242 0.93552 0.89895 0.0
C74 C 0.23499 0.93649 0.85427 0.0
C75 C 0.31604 0.18063 0.83979 0.0
O76 O 0.35573 0.17906 0.82088 0.0
O77 O 0.29291 0.05996 0.91789 0.0
O78 O 0.2957 0.97164 0.93041 0.0
O79 O 0.40866 0.08454 0.83766 0.0
O80 O 0.3912 0.0281 0.87685 0.0
C81 C 0.27974 0.01406 0.93527 0.0
C82 C 0.41477 0.04157 0.85163 0.0
O83 O 0.30463 0.14801 0.8625 0.0
Mg84 Mg 0.62613 0.72609 0.44711 0.0
O85 O 0.71694 0.72694 0.46269 0.0
O86 O 0.71144 0.63644 0.44664 0.0
Mg87 Mg 0.61857 0.57651 0.42239 0.0
C88 C 0.74027 0.68967 0.46013 0.0
C89 C 0.65762 0.85841 0.4775 0.0
O90 O 0.60841 0.82081 0.49384 0.0
O91 O 0.66751 0.74901 0.40147 0.0
O92 O 0.65934 0.65508 0.38903 0.0
O93 O 0.57286 0.66985 0.48672 0.0
O94 O 0.57796 0.62642 0.44612 0.0
C95 C 0.67587 0.71335 0.38372 0.0
C96 C 0.56109 0.6191 0.47232 0.0
O97 O 0.67396 0.83345 0.45762 0.0
Mg98 Mg 0.88517 0.62991 0.77744 0.0
O99 O 0.98223 0.71211 0.79196 0.0
O100 O 0.06028 0.69524 0.77559 0.0
Mg101 Mg 0.01408 0.60297 0.74995 0.0
C102 C 0.04167 0.72914 0.78915 0.0
C103 C 0.77867 0.65916 0.79917 0.0
O104 O 0.74205 0.59765 0.79333 0.0
O105 O 0.90746 0.67735 0.73309 0.0
O106 O 0.98638 0.65843 0.71956 0.0
O107 O 0.88242 0.57154 0.81559 0.0
O108 O 0.92485 0.5707 0.77392 0.0
C109 C 0.9509 0.6833 0.71542 0.0
C110 C 0.9151 0.55337 0.80007 0.0
O111 O 0.83863 0.68682 0.79352 0.0
Mg112 Mg 0.23658 0.89653 0.11001 0.0
O113 O 0.25791 0.98928 0.13222 0.0
O114 O 0.35796 0.06645 0.12039 0.0
Mg115 Mg 0.39927 0.02447 0.08899 0.0
C116 C 0.30498 0.04673 0.13378 0.0
C117 C 0.10487 0.78933 0.13129 0.0
O118 O 0.13459 0.75768 0.12447 0.0
O119 O 0.21835 0.93589 0.06788 0.0
O120 O 0.32046 0.01144 0.05828 0.0
O121 O 0.28826 0.87623 0.14534 0.0
O122 O 0.33411 0.92886 0.10578 0.0
C123 C 0.26039 0.98171 0.05229 0.0
C124 C 0.3397 0.90849 0.13011 0.0
O125 O 0.13257 0.84941 0.12627 0.0
Mg126 Mg 0.3505 0.25559 0.44126 0.0
O127 O 0.26561 0.26456 0.45926 0.0
O128 O 0.28736 0.36419 0.44804 0.0
Mg129 Mg 0.38203 0.41924 0.42453 0.0
C130 C 0.25064 0.30879 0.45883 0.0
C131 C 0.31066 0.12744 0.47272 0.0
O132 O 0.35035 0.17036 0.49097 0.0
O133 O 0.30401 0.24439 0.39675 0.0
O134 O 0.32681 0.34607 0.39013 0.0
O135 O 0.40885 0.30081 0.48155 0.0
O136 O 0.40955 0.35472 0.44365 0.0
C137 C 0.30031 0.28749 0.38216 0.0
C138 C 0.42721 0.35538 0.46934 0.0
O139 O 0.29814 0.14623 0.44956 0.0
Mg140 Mg 0.09796 0.35941 0.77315 0.0
O141 O 0.0028 0.26929 0.78618 0.0
O142 O 0.91921 0.28011 0.77161 0.0
Mg143 Mg 0.95581 0.37564 0.74909 0.0
C144 C 0.94217 0.24831 0.78374 0.0
C145 C 0.17093 0.30976 0.81232 0.0
O146 O 0.14797 0.33191 0.83195 0.0
O147 O 0.0855 0.31442 0.72737 0.0
O148 O 0.0073 0.33488 0.72752 0.0
O149 O 0.0917 0.41148 0.81304 0.0
O150 O 0.04546 0.4107 0.77278 0.0
C151 C 0.03687 0.31126 0.71496 0.0
C152 C 0.05397 0.42539 0.79912 0.0
O153 O 0.15855 0.31371 0.78638 0.0
Mg154 Mg 0.72737 0.0843 0.11003 0.0
O155 O 0.72652 -0.00684 0.12425 0.0
O156 O 0.64458 0.90986 0.10196 0.0
Mg157 Mg 0.59398 0.94588 0.0731 0.0
C158 C 0.69228 0.93306 0.11909 0.0
C159 C 0.85844 0.20407 0.13448 0.0
O160 O 0.83183 0.23811 0.12685 0.0
O161 O 0.77184 0.08018 0.06652 0.0
O162 O 0.68567 -0.00533 0.04797 0.0
O163 O 0.65507 0.06781 0.1452 0.0
O164 O 0.62785 0.02851 0.10194 0.0
C165 C 0.74448 0.03882 0.04661 0.0
C166 C 0.61039 0.03032 0.12763 0.0
O167 O 0.82804 0.14363 0.13004 0.0
C168 C 0.96184 0.30372 0.14813 0.0
C169 C 0.92408 0.23607 0.14749 0.0
C170 C 0.02474 0.33503 0.15925 0.0
C171 C 0.0527 0.30017 0.17037 0.0
H172 H 0.94315 0.33299 0.1396 0.0
H173 H 0.05179 0.38715 0.15884 0.0
S174 S 0.97284 0.12206 0.17541 0.0
N175 N 0.91849 0.13521 0.16022 0.0
N176 N 0.03626 0.19387 0.18104 0.0
C177 C 0.01491 0.23251 0.17049 0.0
C178 C 0.95087 0.20058 0.15909 0.0
C179 C 0.72632 0.02019 0.51531 0.0
C180 C 0.77463 0.063 0.49654 0.0
C181 C 0.68756 0.95455 0.50866 0.0
C182 C 0.69623 0.92887 0.48316 0.0
H183 H 0.71823 0.0375 0.5353 0.0
H184 H 0.65138 0.92359 0.52392 0.0
S185 S 0.81535 0.0211 0.42648 0.0
N186 N 0.82794 0.0753 0.45106 0.0
N187 N 0.75597 0.95236 0.43868 0.0
C188 C 0.74379 0.97149 0.46403 0.0
C189 C 0.7827 0.03836 0.47067 0.0
C190 C 0.65673 0.70589 0.82421 0.0
C191 C 0.69403 0.76143 0.84077 0.0
C192 C 0.68445 0.67315 0.81094 0.0
C193 C 0.75077 0.69492 0.81339 0.0
H194 H 0.60559 0.68759 0.82119 0.0
H195 H 0.65372 0.63092 0.79831 0.0
S196 S 0.86935 0.83523 0.85572 0.0
N197 N 0.80063 0.83478 0.85995 0.0
N198 N 0.8527 0.77363 0.83474 0.0
C199 C 0.78859 0.74973 0.8302 0.0
C200 C 0.76024 0.78278 0.84398 0.0
C201 C 0.9365 0.65704 0.15118 0.0
C202 C 0.91726 0.68572 0.17233 0.0
C203 C -0.00271 0.69091 0.13818 0.0
C204 C 0.04103 0.75516 0.14543 0.0
H205 H 0.90409 0.60814 0.14424 0.0
H206 H 0.00963 0.66688 0.1219 0.0
S207 S 0.01798 0.85069 0.20149 0.0
N208 N 0.94973 0.78103 0.20149 0.0
N209 N 0.0635 0.84485 0.17656 0.0
C210 C 0.02347 0.78408 0.167 0.0
C211 C 0.96181 0.7493 0.1806 0.0
C212 C 0.25026 0.03894 0.50724 0.0
C213 C 0.27861 0.05858 0.48028 0.0
C214 C 0.22047 0.97429 0.51558 0.0
C215 C 0.21896 0.92673 0.4975 0.0
H216 H 0.25038 0.07383 0.52192 0.0
H217 H 0.19835 0.96164 0.53642 0.0
S218 S 0.29365 0.95552 0.42563 0.0
N219 N 0.30748 0.02708 0.43609 0.0
N220 N 0.25317 0.90554 0.45177 0.0
C221 C 0.24929 0.9464 0.47067 0.0
C222 C 0.27862 0.01229 0.46204 0.0
C223 C 0.28637 0.24422 0.80697 0.0
C224 C 0.28169 0.21683 0.83393 0.0
C225 C 0.25091 0.27458 0.80025 0.0
C226 C 0.20985 0.27956 0.8203 0.0
H227 H 0.31672 0.2412 0.79064 0.0
H228 H 0.25565 0.29416 0.77911 0.0
S229 S 0.18275 0.21907 0.89446 0.0
N230 N 0.23424 0.19913 0.88119 0.0
N231 N 0.16829 0.25641 0.86862 0.0
C232 C 0.20622 0.25422 0.84761 0.0
C233 C 0.24188 0.22283 0.85439 0.0
C234 C 0.52449 0.44987 0.16736 0.0
C235 C 0.56116 0.51669 0.16375 0.0
C236 C 0.45691 0.41852 0.16741 0.0
C237 C 0.42426 0.45323 0.16446 0.0
H238 H 0.54775 0.42298 0.17356 0.0
H239 H 0.43052 0.36803 0.1726 0.0
S240 S 0.49862 0.62538 0.14566 0.0
N241 N 0.56038 0.61342 0.14967 0.0
N242 N 0.43308 0.55503 0.1515 0.0
C243 C 0.46013 0.518 0.15652 0.0
C244 C 0.52896 0.54964 0.15578 0.0
C245 C 0.06066 0.53028 0.5026 0.0
C246 C 0.02773 0.56477 0.50162 0.0
C247 C 0.02654 0.46283 0.50334 0.0
C248 C 0.9586 0.42795 0.50336 0.0
H249 H 0.11238 0.55536 0.50603 0.0
H250 H 0.05344 0.43834 0.50663 0.0
S251 S 0.85096 0.49559 0.49403 0.0
N252 N 0.9245 0.55901 0.49461 0.0
N253 N 0.86023 0.43219 0.49739 0.0
C254 C 0.92566 0.46147 0.49864 0.0
C255 C 0.96045 0.53014 0.49749 0.0
C256 C 0.51564 0.04638 0.83496 0.0
C257 C 0.44902 0.00956 0.84011 0.0
C258 C 0.55394 0.01727 0.83469 0.0
C259 C 0.52654 0.9507 0.83931 0.0
H260 H 0.53918 0.09841 0.83422 0.0
H261 H 0.60583 0.04786 0.83364 0.0
S262 S 0.35278 0.83157 0.84566 0.0
N263 N 0.35611 0.90183 0.84379 0.0
N264 N 0.42826 0.84759 0.84327 0.0
C265 C 0.45937 0.91262 0.84025 0.0
C266 C 0.42047 0.94212 0.8408 0.0
C267 C 0.56502 0.51953 0.4806 0.0
C268 C 0.5327 0.5543 0.48481 0.0
C269 C 0.53112 0.45212 0.47997 0.0
C270 C 0.46404 0.41761 0.48391 0.0
H271 H 0.61562 0.54445 0.47489 0.0
H272 H 0.55634 0.42738 0.47323 0.0
S273 S 0.3599 0.48548 0.50281 0.0
N274 N 0.43223 0.54926 0.49809 0.0
N275 N 0.36867 0.42213 0.49777 0.0
C276 C 0.43295 0.4515 0.49225 0.0
C277 C 0.46738 0.52025 0.49259 0.0
C278 C 0.01564 0.55499 0.81368 0.0
C279 C 0.94788 0.52078 0.81188 0.0
C280 C 0.05092 0.52273 0.81367 0.0
C281 C 0.0193 0.45535 0.8121 0.0
H282 H 0.04174 0.60698 0.81248 0.0
H283 H 0.10304 0.55079 0.81192 0.0
S284 S 0.84229 0.34388 0.81349 0.0
N285 N 0.85029 0.41634 0.81277 0.0
N286 N 0.91644 0.35554 0.81424 0.0
C287 C 0.95151 0.42077 0.81403 0.0
C288 C 0.91566 0.45359 0.81358 0.0
C289 C 0.43592 0.89957 0.1228 0.0
C290 C 0.40446 0.9241 0.1393 0.0
C291 C 0.50318 0.93064 0.1218 0.0
C292 C 0.54171 0.98901 0.13624 0.0
H293 H 0.40841 0.85875 0.10888 0.0
H294 H 0.52448 0.90963 0.10864 0.0
S295 S 0.48194 0.0624 0.18877 0.0
N296 N 0.41561 0.00128 0.17542 0.0
N297 N 0.54316 0.06161 0.17278 0.0
C298 C 0.51085 0.00924 0.15578 0.0
C299 C 0.44177 0.97653 0.15728 0.0
C300 C 0.27431 0.13051 0.13775 0.0
C301 C 0.29715 0.09323 0.1507 0.0
C302 C 0.27348 0.18061 0.15264 0.0
C303 C 0.29646 0.19508 0.18067 0.0
H304 H 0.2591 0.12224 0.11574 0.0
H305 H 0.25816 0.2103 0.14168 0.0
S306 S 0.3544 0.10635 0.22459 0.0
N307 N 0.33757 0.06961 0.19345 0.0
N308 N 0.33739 0.16479 0.2215 0.0
C309 C 0.31656 0.15599 0.19416 0.0
C310 C 0.31663 0.10467 0.1791 0.0
C311 C 0.10691 0.24976 0.50844 0.0
C312 C 0.08043 0.28767 0.50002 0.0
C313 C 0.16021 0.25377 0.49396 0.0
C314 C 0.18868 0.29659 0.47106 0.0
H315 H 0.08894 0.22002 0.52726 0.0
H316 H 0.18152 0.22625 0.5018 0.0
S317 S 0.13015 0.39914 0.43891 0.0
N318 N 0.08127 0.36371 0.46604 0.0
N319 N 0.18094 0.37152 0.43867 0.0
C320 C 0.15923 0.33116 0.46138 0.0
C321 C 0.10517 0.32668 0.47598 0.0
C322 C 0.83242 0.15304 0.78685 0.0
C323 C 0.89572 0.18766 0.79756 0.0
C324 C 0.78291 0.10415 0.80271 0.0
C325 C 0.79549 0.0881 0.82955 0.0
H326 H 0.82031 0.1662 0.76675 0.0
H327 H 0.73395 0.08119 0.79466 0.0
S328 S 0.9531 0.15918 0.86615 0.0
N329 N 0.96897 0.19881 0.83582 0.0
N330 N 0.87505 0.10598 0.86557 0.0
C331 C 0.85895 0.11868 0.83971 0.0
C332 C 0.90956 0.1687 0.82361 0.0
C333 C 0.68589 0.82715 0.12236 0.0
C334 C 0.70442 0.88731 0.13475 0.0
C335 C 0.68365 0.77733 0.13838 0.0
C336 C 0.69966 0.78622 0.16722 0.0
H337 H 0.66997 0.81747 0.10046 0.0
H338 H 0.66575 0.73056 0.12856 0.0
S339 S 0.75916 0.93598 0.20902 0.0
N340 N 0.74578 0.95481 0.177 0.0
N341 N 0.7405 0.85982 0.20719 0.0
C342 C 0.72282 0.84701 0.17948 0.0
C343 C 0.72572 0.89819 0.16313 0.0
C344 C 0.84005 0.68336 0.46241 0.0
C345 C 0.80098 0.70564 0.47442 0.0
C346 C 0.89053 0.68506 0.47776 0.0
C347 C 0.90321 0.70877 0.50558 0.0
H348 H 0.82955 0.66151 0.44149 0.0
H349 H 0.91727 0.6641 0.46845 0.0
S350 S 0.82049 0.77932 0.54572 0.0
N351 N 0.78254 0.75798 0.51488 0.0
N352 N 0.87764 0.75991 0.544 0.0
C353 C 0.86783 0.73525 0.51728 0.0
C354 C 0.81661 0.73423 0.50152 0.0
C355 C 0.12006 0.86821 0.84098 0.0
C356 C 0.18546 0.89575 0.83391 0.0
C357 C 0.07306 0.81607 0.82536 0.0
C358 C 0.09062 0.78939 0.80269 0.0
H359 H 0.10559 0.88466 0.85956 0.0
H360 H 0.02317 0.7944 0.83212 0.0
S361 S 0.25604 0.85148 0.77393 0.0
N362 N 0.26542 0.89871 0.80122 0.0
N363 N 0.1778 0.79972 0.77216 0.0
C364 C 0.15587 0.81971 0.79442 0.0
C365 C 0.20321 0.87323 0.81002 0.0
C366 C 0.28084 0.23726 0.33409 0.0
C367 C 0.26809 0.27267 0.35418 0.0
C368 C 0.27206 0.24326 0.30504 0.0
C369 C 0.24982 0.28429 0.29535 0.0
H370 H 0.30435 0.21071 0.34044 0.0
H371 H 0.28929 0.22111 0.28993 0.0
S372 S 0.19391 0.37359 0.34017 0.0
N373 N 0.21971 0.33938 0.36299 0.0
N374 N 0.20389 0.35075 0.30832 0.0
C375 C 0.2282 0.31228 0.31544 0.0
C376 C 0.23733 0.30648 0.34497 0.0
C377 C 0.03327 0.2628 0.63817 0.0
C378 C 0.97361 0.25477 0.62907 0.0
C379 C 0.05198 0.27512 0.66681 0.0
C380 C 0.0119 0.28104 0.68693 0.0
H381 H 0.06799 0.26536 0.62265 0.0
H382 H 0.10004 0.28562 0.67265 0.0
S383 S 0.84716 0.25561 0.67416 0.0
N384 N 0.87205 0.24653 0.64267 0.0
N385 N 0.90589 0.26911 0.69631 0.0
C386 C 0.94936 0.26659 0.6784 0.0
C387 C 0.93045 0.25351 0.64945 0.0
C388 C 0.76707 0.98909 0.00577 0.0
C389 C 0.77466 0.04558 0.01864 0.0
C390 C 0.75588 0.97837 0.97647 0.0
C391 C 0.75213 0.02406 0.95924 0.0
H392 H 0.761 0.94944 0.01891 0.0
H393 H 0.74306 0.93142 0.96805 0.0
S394 S 0.78798 0.18736 0.98168 0.0
N395 N 0.79193 0.15283 0.01128 0.0
N396 N 0.77255 0.1342 0.9562 0.0
C397 C 0.77045 0.08491 0.97124 0.0
C398 C 0.78182 0.09552 0.00101 0.0
C399 C 0.64329 0.71422 0.3073 0.0
C400 C 0.69441 0.70924 0.29476 0.0
C401 C 0.64231 0.72573 0.33634 0.0
C402 C 0.69242 0.73304 0.354 0.0
H403 H 0.60099 0.70444 0.29512 0.0
H404 H 0.59892 0.7221 0.34543 0.0
S405 S 0.84553 0.74334 0.33115 0.0
N406 N 0.8029 0.72693 0.30161 0.0
N407 N 0.80006 0.7474 0.35664 0.0
C408 C 0.74732 0.73631 0.34145 0.0
C409 C 0.74868 0.72491 0.31167 0.0
C410 C 0.92812 0.67776 0.63813 0.0
C411 C -0.00899 0.72328 0.62871 0.0
C412 C 0.91121 0.67122 0.6668 0.0
C413 C 0.95596 0.71086 0.68713 0.0
H414 H 0.89313 0.64248 0.62362 0.0
H415 H 0.86561 0.63028 0.67331 0.0
S416 S 0.11725 0.85232 0.67316 0.0
N417 N 0.09177 0.81935 0.64149 0.0
N418 N 0.05914 0.80718 0.69582 0.0
C419 C 0.01492 0.76297 0.67777 0.0
C420 C 0.03263 0.76949 0.64837 0.0
C421 C 0.20452 0.94453 0.00568 0.0
C422 C 0.2435 -0.00428 0.02396 0.0
C423 C 0.21006 0.95295 0.97609 0.0
C424 C 0.25384 0.01294 0.96393 0.0
H425 H 0.17554 0.89624 0.014 0.0
H426 H 0.18476 0.91083 0.96265 0.0
S427 S 0.35458 0.16528 0.00289 0.0
N428 N 0.31788 0.11093 0.02803 0.0
N429 N 0.32776 0.1265 0.97247 0.0
C430 C 0.28579 0.06626 0.98201 0.0
C431 C 0.28068 0.05766 0.0121 0.0
loop_
_geom_bond_atom_site_label_1
_geom_bond_atom_site_label_2
_geom_bond_distance
_geom_bond_site_symmetry_2
_ccdc_geom_bond_type
Mg0 O1 2.028 . S
Mg0 O7 1.986 . S
Mg0 O9 2.114 . S
Mg0 O10 2.251 . S
Mg0 O13 2.010 . S
O1 Mg0 2.028 . S
O1 C4 1.250 . S
O2 Mg3 2.028 . S
O2 C4 1.248 . S
Mg3 O2 2.028 . S
Mg3 O8 2.032 . S
Mg3 O10 2.079 . S
C4 O1 1.250 . S
C4 O2 1.248 . S
C5 O6 1.264 . S
C5 O13 1.249 . S
O6 C5 1.264 . S
O7 Mg0 1.986 . S
O7 C11 1.246 . S
O8 Mg3 2.032 . S
O8 C11 1.259 . S
O9 Mg0 2.114 . S
O9 C12 1.252 . S
O10 Mg0 2.251 . S
O10 Mg3 2.079 . S
O10 C12 1.273 . S
C11 O7 1.246 . S
C11 O8 1.259 . S
C12 O9 1.252 . S
C12 O10 1.273 . S
O13 Mg0 2.010 . S
O13 C5 1.249 . S
Mg14 O15 2.028 . S
Mg14 O21 1.986 . S
Mg14 O23 2.114 . S
Mg14 O24 2.251 . S
Mg14 O27 2.010 . S
O15 Mg14 2.028 . S
O15 C18 1.250 1_655 S
O16 Mg17 2.028 . S
O16 C18 1.248 . S
Mg17 O16 2.028 . S
Mg17 O22 2.032 . S
Mg17 O24 2.079 1_455 S
C18 O15 1.250 1_455 S
C18 O16 1.248 . S
C19 O20 1.264 . S
C19 O27 1.249 . S
O20 C19 1.264 . S
O21 Mg14 1.986 . S
O21 C25 1.246 . S
O22 Mg17 2.032 . S
O22 C25 1.259 1_455 S
O23 Mg14 2.114 . S
O23 C26 1.252 . S
O24 Mg14 2.251 . S
O24 Mg17 2.079 1_655 S
O24 C26 1.273 . S
C25 O21 1.246 . S
C25 O22 1.259 1_655 S
C26 O23 1.252 . S
C26 O24 1.273 . S
O27 Mg14 2.010 . S
O27 C19 1.249 . S
Mg28 O29 2.028 . S
Mg28 O35 1.986 . S
Mg28 O37 2.114 . S
Mg28 O38 2.251 . S
Mg28 O41 2.010 . S
O29 Mg28 2.028 . S
O29 C32 1.250 1_565 S
O30 Mg31 2.028 . S
O30 C32 1.248 . S
Mg31 O30 2.028 . S
Mg31 O36 2.032 . S
Mg31 O38 2.079 1_545 S
C32 O29 1.250 1_545 S
C32 O30 1.248 . S
C33 O34 1.264 . S
C33 O41 1.249 . S
O34 C33 1.264 . S
O35 Mg28 1.986 . S
O35 C39 1.246 . S
O36 Mg31 2.032 . S
O36 C39 1.259 1_545 S
O37 Mg28 2.114 . S
O37 C40 1.252 . S
O38 Mg28 2.251 . S
O38 Mg31 2.079 1_565 S
O38 C40 1.273 . S
C39 O35 1.246 . S
C39 O36 1.259 1_565 S
C40 O37 1.252 . S
C40 O38 1.273 . S
O41 Mg28 2.010 . S
O41 C33 1.249 . S
Mg42 O43 2.028 . S
Mg42 O49 1.986 . S
Mg42 O51 2.114 . S
Mg42 O52 2.251 . S
Mg42 O55 2.010 . S
O43 Mg42 2.028 . S
O43 C46 1.250 . S
O44 Mg45 2.028 . S
O44 C46 1.248 . S
Mg45 O44 2.028 . S
Mg45 O50 2.032 . S
Mg45 O52 2.079 . S
C46 O43 1.250 . S
C46 O44 1.248 . S
C47 O48 1.264 . S
C47 O55 1.249 . S
O48 C47 1.264 . S
O49 Mg42 1.986 . S
O49 C53 1.246 . S
O50 Mg45 2.032 . S
O50 C53 1.259 . S
O51 Mg42 2.114 . S
O51 C54 1.252 . S
O52 Mg42 2.251 . S
O52 Mg45 2.079 . S
O52 C54 1.273 . S
C53 O49 1.246 . S
C53 O50 1.259 . S
C54 O51 1.252 . S
C54 O52 1.273 . S
O55 Mg42 2.010 . S
O55 C47 1.249 . S
Mg56 O57 2.028 . S
Mg56 O63 1.986 . S
Mg56 O65 2.114 . S
Mg56 O66 2.251 . S
Mg56 O69 2.010 . S
O57 Mg56 2.028 . S
O57 C60 1.250 1_455 S
O58 Mg59 2.028 . S
O58 C60 1.248 . S
Mg59 O58 2.028 . S
Mg59 O64 2.032 . S
Mg59 O66 2.079 1_655 S
C60 O57 1.250 1_655 S
C60 O58 1.248 . S
C61 O62 1.264 . S
C61 O69 1.249 . S
O62 C61 1.264 . S
O63 Mg56 1.986 . S
O63 C67 1.246 . S
O64 Mg59 2.032 . S
O64 C67 1.259 1_655 S
O65 Mg56 2.114 . S
O65 C68 1.252 . S
O66 Mg56 2.251 . S
O66 Mg59 2.079 1_455 S
O66 C68 1.273 . S
C67 O63 1.246 . S
C67 O64 1.259 1_455 S
C68 O65 1.252 . S
C68 O66 1.273 . S
O69 Mg56 2.010 . S
O69 C61 1.249 . S
Mg70 O71 2.028 . S
Mg70 O77 1.986 . S
Mg70 O79 2.114 . S
Mg70 O80 2.251 . S
Mg70 O83 2.010 . S
O71 Mg70 2.028 . S
O71 C74 1.250 1_545 S
O72 Mg73 2.028 . S
O72 C74 1.248 . S
Mg73 O72 2.028 . S
Mg73 O78 2.032 . S
Mg73 O80 2.079 1_565 S
C74 O71 1.250 1_565 S
C74 O72 1.248 . S
C75 O76 1.264 . S
C75 O83 1.249 . S
O76 C75 1.264 . S
O77 Mg70 1.986 . S
O77 C81 1.246 . S
O78 Mg73 2.032 . S
O78 C81 1.259 1_565 S
O79 Mg70 2.114 . S
O79 C82 1.252 . S
O80 Mg70 2.251 . S
O80 Mg73 2.079 1_545 S
O80 C82 1.273 . S
C81 O77 1.246 . S
C81 O78 1.259 1_545 S
C82 O79 1.252 . S
C82 O80 1.273 . S
O83 Mg70 2.010 . S
O83 C75 1.249 . S
Mg84 O85 2.028 . S
Mg84 O91 1.986 . S
Mg84 O93 2.114 . S
Mg84 O94 2.251 . S
Mg84 O97 2.010 . S
O85 Mg84 2.028 . S
O85 C88 1.250 . S
O86 Mg87 2.028 . S
O86 C88 1.248 . S
Mg87 O86 2.028 . S
Mg87 O92 2.032 . S
Mg87 O94 2.079 . S
C88 O85 1.250 . S
C88 O86 1.248 . S
C89 O90 1.264 . S
C89 O97 1.249 . S
O90 C89 1.264 . S
O91 Mg84 1.986 . S
O91 C95 1.246 . S
O92 Mg87 2.032 . S
O92 C95 1.259 . S
O93 Mg84 2.114 . S
O93 C96 1.252 . S
O94 Mg84 2.251 . S
O94 Mg87 2.079 . S
O94 C96 1.273 . S
C95 O91 1.246 . S
C95 O92 1.259 . S
C96 O93 1.252 . S
C96 O94 1.273 . S
O97 Mg84 2.010 . S
O97 C89 1.249 . S
Mg98 O99 2.028 . S
Mg98 O105 1.986 . S
Mg98 O107 2.114 . S
Mg98 O108 2.251 . S
Mg98 O111 2.010 . S
O99 Mg98 2.028 . S
O99 C102 1.250 1_655 S
O100 Mg101 2.028 . S
O100 C102 1.248 . S
Mg101 O100 2.028 . S
Mg101 O106 2.032 . S
Mg101 O108 2.079 1_455 S
C102 O99 1.250 1_455 S
C102 O100 1.248 . S
C103 O104 1.264 . S
C103 O111 1.249 . S
O104 C103 1.264 . S
O105 Mg98 1.986 . S
O105 C109 1.246 . S
O106 Mg101 2.032 . S
O106 C109 1.259 1_455 S
O107 Mg98 2.114 . S
O107 C110 1.252 . S
O108 Mg98 2.251 . S
O108 Mg101 2.079 1_655 S
O108 C110 1.273 . S
C109 O105 1.246 . S
C109 O106 1.259 1_655 S
C110 O107 1.252 . S
C110 O108 1.273 . S
O111 Mg98 2.010 . S
O111 C103 1.249 . S
Mg112 O113 2.028 . S
Mg112 O119 1.986 . S
Mg112 O121 2.114 . S
Mg112 O122 2.251 . S
Mg112 O125 2.010 . S
O113 Mg112 2.028 . S
O113 C116 1.250 1_565 S
O114 Mg115 2.028 . S
O114 C116 1.248 . S
Mg115 O114 2.028 . S
Mg115 O120 2.032 . S
Mg115 O122 2.079 1_545 S
C116 O113 1.250 1_545 S
C116 O114 1.248 . S
C117 O118 1.264 . S
C117 O125 1.249 . S
O118 C117 1.264 . S
O119 Mg112 1.986 . S
O119 C123 1.246 . S
O120 Mg115 2.032 . S
O120 C123 1.259 1_545 S
O121 Mg112 2.114 . S
O121 C124 1.252 . S
O122 Mg112 2.251 . S
O122 Mg115 2.079 1_565 S
O122 C124 1.273 . S
C123 O119 1.246 . S
C123 O120 1.259 1_565 S
C124 O121 1.252 . S
C124 O122 1.273 . S
O125 Mg112 2.010 . S
O125 C117 1.249 . S
Mg126 O127 2.028 . S
Mg126 O133 1.986 . S
Mg126 O135 2.114 . S
Mg126 O136 2.251 . S
Mg126 O139 2.010 . S
O127 Mg126 2.028 . S
O127 C130 1.250 . S
O128 Mg129 2.028 . S
O128 C130 1.248 . S
Mg129 O128 2.028 . S
Mg129 O134 2.032 . S
Mg129 O136 2.079 . S
C130 O127 1.250 . S
C130 O128 1.248 . S
C131 O132 1.264 . S
C131 O139 1.249 . S
O132 C131 1.264 . S
O133 Mg126 1.986 . S
O133 C137 1.246 . S
O134 Mg129 2.032 . S
O134 C137 1.259 . S
O135 Mg126 2.114 . S
O135 C138 1.252 . S
O136 Mg126 2.251 . S
O136 Mg129 2.079 . S
O136 C138 1.273 . S
C137 O133 1.246 . S
C137 O134 1.259 . S
C138 O135 1.252 . S
C138 O136 1.273 . S
O139 Mg126 2.010 . S
O139 C131 1.249 . S
Mg140 O141 2.028 . S
Mg140 O147 1.986 . S
Mg140 O149 2.114 . S
Mg140 O150 2.251 . S
Mg140 O153 2.010 . S
O141 Mg140 2.028 . S
O141 C144 1.250 1_455 S
O142 Mg143 2.028 . S
O142 C144 1.248 . S
Mg143 O142 2.028 . S
Mg143 O148 2.032 . S
Mg143 O150 2.079 1_655 S
C144 O141 1.250 1_655 S
C144 O142 1.248 . S
C145 O146 1.264 . S
C145 O153 1.249 . S
O146 C145 1.264 . S
O147 Mg140 1.986 . S
O147 C151 1.246 . S
O148 Mg143 2.032 . S
O148 C151 1.259 1_655 S
O149 Mg140 2.114 . S
O149 C152 1.252 . S
O150 Mg140 2.251 . S
O150 Mg143 2.079 1_455 S
O150 C152 1.273 . S
C151 O147 1.246 . S
C151 O148 1.259 1_455 S
C152 O149 1.252 . S
C152 O150 1.273 . S
O153 Mg140 2.010 . S
O153 C145 1.249 . S
Mg154 O155 2.028 . S
Mg154 O161 1.986 . S
Mg154 O163 2.114 . S
Mg154 O164 2.251 . S
Mg154 O167 2.010 . S
O155 Mg154 2.028 . S
O155 C158 1.250 1_545 S
O156 Mg157 2.028 . S
O156 C158 1.248 . S
Mg157 O156 2.028 . S
Mg157 O162 2.032 . S
Mg157 O164 2.079 1_565 S
C158 O155 1.250 1_565 S
C158 O156 1.248 . S
C159 O160 1.264 . S
C159 O167 1.249 . S
O160 C159 1.264 . S
O161 Mg154 1.986 . S
O161 C165 1.246 . S
O162 Mg157 2.032 . S
O162 C165 1.259 1_565 S
O163 Mg154 2.114 . S
O163 C166 1.252 . S
O164 Mg154 2.251 . S
O164 Mg157 2.079 1_545 S
O164 C166 1.273 . S
C165 O161 1.246 . S
C165 O162 1.259 1_545 S
C166 O163 1.252 . S
C166 O164 1.273 . S
O167 Mg154 2.010 . S
O167 C159 1.249 . S
C168 C169 1.369 . S
C168 C170 1.419 1_655 S
C168 H172 0.930 . S
C169 C168 1.369 . S
C169 C178 1.429 . S
C170 C168 1.419 1_455 S
C170 C171 1.363 . S
C170 H173 0.929 . S
C171 C170 1.363 . S
C171 C177 1.428 . S
H172 C168 0.930 . S
H173 C170 0.929 . S
S174 N175 1.613 . S
S174 N176 1.610 1_655 S
N175 S174 1.613 . S
N175 C178 1.350 . S
N176 S174 1.610 1_455 S
N176 C177 1.351 . S
C177 C171 1.428 . S
C177 N176 1.351 . S
C177 C178 1.434 1_455 S
C178 C169 1.429 . S
C178 N175 1.350 . S
C178 C177 1.434 1_655 S
C179 C180 1.369 . S
C179 C181 1.419 1_545 S
C179 H183 0.930 . S
C180 C179 1.369 . S
C180 C189 1.429 . S
C181 C179 1.419 1_565 S
C181 C182 1.363 . S
C181 H184 0.929 . S
C182 C181 1.363 . S
C182 C188 1.428 . S
H183 C179 0.930 . S
H184 C181 0.929 . S
S185 N186 1.613 . S
S185 N187 1.610 1_545 S
N186 S185 1.613 . S
N186 C189 1.350 . S
N187 S185 1.610 1_565 S
N187 C188 1.351 . S
C188 C182 1.428 . S
C188 N187 1.351 . S
C188 C189 1.434 1_565 S
C189 C180 1.429 . S
C189 N186 1.350 . S
C189 C188 1.434 1_545 S
C190 C191 1.369 . S
C190 C192 1.419 . S
C190 H194 0.930 . S
C191 C190 1.369 . S
C191 C200 1.429 . S
C192 C190 1.419 . S
C192 C193 1.363 . S
C192 H195 0.929 . S
C193 C192 1.363 . S
C193 C199 1.428 . S
H194 C190 0.930 . S
H195 C192 0.929 . S
S196 N197 1.613 . S
S196 N198 1.610 . S
N197 S196 1.613 . S
N197 C200 1.350 . S
N198 S196 1.610 . S
N198 C199 1.351 . S
C199 C193 1.428 . S
C199 N198 1.351 . S
C199 C200 1.434 . S
C200 C191 1.429 . S
C200 N197 1.350 . S
C200 C199 1.434 . S
C201 C202 1.369 . S
C201 C203 1.419 1_655 S
C201 H205 0.930 . S
C202 C201 1.369 . S
C202 C211 1.429 . S
C203 C201 1.419 1_455 S
C203 C204 1.363 . S
C203 H206 0.929 . S
C204 C203 1.363 . S
C204 C210 1.428 . S
H205 C201 0.930 . S
H206 C203 0.929 . S
S207 N208 1.613 1_455 S
S207 N209 1.610 . S
N208 S207 1.613 1_655 S
N208 C211 1.350 . S
N209 S207 1.610 . S
N209 C210 1.351 . S
C210 C204 1.428 . S
C210 N209 1.351 . S
C210 C211 1.434 1_455 S
C211 C202 1.429 . S
C211 N208 1.350 . S
C211 C210 1.434 1_655 S
C212 C213 1.369 . S
C212 C214 1.419 1_545 S
C212 H216 0.930 . S
C213 C212 1.369 . S
C213 C222 1.429 . S
C214 C212 1.419 1_565 S
C214 C215 1.363 . S
C214 H217 0.929 . S
C215 C214 1.363 . S
C215 C221 1.428 . S
H216 C212 0.930 . S
H217 C214 0.929 . S
S218 N219 1.613 1_565 S
S218 N220 1.610 . S
N219 S218 1.613 1_545 S
N219 C222 1.350 . S
N220 S218 1.610 . S
N220 C221 1.351 . S
C221 C215 1.428 . S
C221 N220 1.351 . S
C221 C222 1.434 1_565 S
C222 C213 1.429 . S
C222 N219 1.350 . S
C222 C221 1.434 1_545 S
C223 C224 1.369 . S
C223 C225 1.419 . S
C223 H227 0.930 . S
C224 C223 1.369 . S
C224 C233 1.429 . S
C225 C223 1.419 . S
C225 C226 1.363 . S
C225 H228 0.929 . S
C226 C225 1.363 . S
C226 C232 1.428 . S
H227 C223 0.930 . S
H228 C225 0.929 . S
S229 N230 1.613 . S
S229 N231 1.610 . S
N230 S229 1.613 . S
N230 C233 1.350 . S
N231 S229 1.610 . S
N231 C232 1.351 . S
C232 C226 1.428 . S
C232 N231 1.351 . S
C232 C233 1.434 . S
C233 C224 1.429 . S
C233 N230 1.350 . S
C233 C232 1.434 . S
C234 C235 1.369 . S
C234 C236 1.419 . S
C234 H238 0.930 . S
C235 C234 1.369 . S
C235 C244 1.429 . S
C236 C234 1.419 . S
C236 C237 1.363 . S
C236 H239 0.929 . S
C237 C236 1.363 . S
C237 C243 1.428 . S
H238 C234 0.930 . S
H239 C236 0.929 . S
S240 N241 1.613 . S
S240 N242 1.610 . S
N241 S240 1.613 . S
N241 C244 1.350 . S
N242 S240 1.610 . S
N242 C243 1.351 . S
C243 C237 1.428 . S
C243 N242 1.351 . S
C243 C244 1.434 . S
C244 C235 1.429 . S
C244 N241 1.350 . S
C244 C243 1.434 . S
C245 C246 1.369 . S
C245 C247 1.419 . S
C245 H249 0.930 . S
C246 C245 1.369 . S
C246 C255 1.429 1_455 S
C247 C245 1.419 . S
C247 C248 1.363 1_455 S
C247 H250 0.929 . S
C248 C247 1.363 1_655 S
C248 C254 1.428 . S
H249 C245 0.930 . S
H250 C247 0.929 . S
S251 N252 1.613 . S
S251 N253 1.610 . S
N252 S251 1.613 . S
N252 C255 1.350 . S
N253 S251 1.610 . S
N253 C254 1.351 . S
C254 C248 1.428 . S
C254 N253 1.351 . S
C254 C255 1.434 . S
C255 C246 1.429 1_655 S
C255 N252 1.350 . S
C255 C254 1.434 . S
C256 C257 1.369 . S
C256 C258 1.419 . S
C256 H260 0.930 . S
C257 C256 1.369 . S
C257 C266 1.429 1_545 S
C258 C256 1.419 . S
C258 C259 1.363 1_545 S
C258 H261 0.929 . S
C259 C258 1.363 1_565 S
C259 C265 1.428 . S
H260 C256 0.930 . S
H261 C258 0.929 . S
S262 N263 1.613 . S
S262 N264 1.610 . S
N263 S262 1.613 . S
N263 C266 1.350 . S
N264 S262 1.610 . S
N264 C265 1.351 . S
C265 C259 1.428 . S
C265 N264 1.351 . S
C265 C266 1.434 . S
C266 C257 1.429 1_565 S
C266 N263 1.350 . S
C266 C265 1.434 . S
C267 C268 1.369 . S
C267 C269 1.419 . S
C267 H271 0.930 . S
C268 C267 1.369 . S
C268 C277 1.429 . S
C269 C267 1.419 . S
C269 C270 1.363 . S
C269 H272 0.929 . S
C270 C269 1.363 . S
C270 C276 1.428 . S
H271 C267 0.930 . S
H272 C269 0.929 . S
S273 N274 1.613 . S
S273 N275 1.610 . S
N274 S273 1.613 . S
N274 C277 1.350 . S
N275 S273 1.610 . S
N275 C276 1.351 . S
C276 C270 1.428 . S
C276 N275 1.351 . S
C276 C277 1.434 . S
C277 C268 1.429 . S
C277 N274 1.350 . S
C277 C276 1.434 . S
C278 C279 1.369 1_455 S
C278 C280 1.419 . S
C278 H282 0.930 . S
C279 C278 1.369 1_655 S
C279 C288 1.429 . S
C280 C278 1.419 . S
C280 C281 1.363 . S
C280 H283 0.929 . S
C281 C280 1.363 . S
C281 C287 1.428 1_455 S
H282 C278 0.930 . S
H283 C280 0.929 . S
S284 N285 1.613 . S
S284 N286 1.610 . S
N285 S284 1.613 . S
N285 C288 1.350 . S
N286 S284 1.610 . S
N286 C287 1.351 . S
C287 C281 1.428 1_655 S
C287 N286 1.351 . S
C287 C288 1.434 . S
C288 C279 1.429 . S
C288 N285 1.350 . S
C288 C287 1.434 . S
C289 C290 1.369 . S
C289 C291 1.419 . S
C289 H293 0.930 . S
C290 C289 1.369 . S
C290 C299 1.429 1_565 S
C291 C289 1.419 . S
C291 C292 1.363 1_565 S
C291 H294 0.929 . S
C292 C291 1.363 1_545 S
C292 C298 1.428 . S
H293 C289 0.930 . S
H294 C291 0.929 . S
S295 N296 1.613 . S
S295 N297 1.610 . S
N296 S295 1.613 . S
N296 C299 1.350 . S
N297 S295 1.610 . S
N297 C298 1.351 . S
C298 C292 1.428 . S
C298 N297 1.351 . S
C298 C299 1.434 . S
C299 C290 1.429 1_545 S
C299 N296 1.350 . S
C299 C298 1.434 . S
C300 C301 1.369 . S
C300 C302 1.419 . S
C300 H304 0.930 . S
C301 C300 1.369 . S
C301 C310 1.429 . S
C302 C300 1.419 . S
C302 C303 1.363 . S
C302 H305 0.929 . S
C303 C302 1.363 . S
C303 C309 1.428 . S
H304 C300 0.930 . S
H305 C302 0.929 . S
S306 N307 1.613 . S
S306 N308 1.610 . S
N307 S306 1.613 . S
N307 C310 1.350 . S
N308 S306 1.610 . S
N308 C309 1.351 . S
C309 C303 1.428 . S
C309 N308 1.351 . S
C309 C310 1.434 . S
C310 C301 1.429 . S
C310 N307 1.350 . S
C310 C309 1.434 . S
C311 C312 1.369 . S
C311 C313 1.419 . S
C311 H315 0.930 . S
C312 C311 1.369 . S
C312 C321 1.429 . S
C313 C311 1.419 . S
C313 C314 1.363 . S
C313 H316 0.929 . S
C314 C313 1.363 . S
C314 C320 1.428 . S
H315 C311 0.930 . S
H316 C313 0.929 . S
S317 N318 1.613 . S
S317 N319 1.610 . S
N318 S317 1.613 . S
N318 C321 1.350 . S
N319 S317 1.610 . S
N319 C320 1.351 . S
C320 C314 1.428 . S
C320 N319 1.351 . S
C320 C321 1.434 . S
C321 C312 1.429 . S
C321 N318 1.350 . S
C321 C320 1.434 . S
C322 C323 1.369 . S
C322 C324 1.419 . S
C322 H326 0.930 . S
C323 C322 1.369 . S
C323 C332 1.429 . S
C324 C322 1.419 . S
C324 C325 1.363 . S
C324 H327 0.929 . S
C325 C324 1.363 . S
C325 C331 1.428 . S
H326 C322 0.930 . S
H327 C324 0.929 . S
S328 N329 1.613 . S
S328 N330 1.610 . S
N329 S328 1.613 . S
N329 C332 1.350 . S
N330 S328 1.610 . S
N330 C331 1.351 . S
C331 C325 1.428 . S
C331 N330 1.351 . S
C331 C332 1.434 . S
C332 C323 1.429 . S
C332 N329 1.350 . S
C332 C331 1.434 . S
C333 C334 1.369 . S
C333 C335 1.419 . S
C333 H337 0.930 . S
C334 C333 1.369 . S
C334 C343 1.429 . S
C335 C333 1.419 . S
C335 C336 1.363 . S
C335 H338 0.929 . S
C336 C335 1.363 . S
C336 C342 1.428 . S
H337 C333 0.930 . S
H338 C335 0.929 . S
S339 N340 1.613 . S
S339 N341 1.610 . S
N340 S339 1.613 . S
N340 C343 1.350 . S
N341 S339 1.610 . S
N341 C342 1.351 . S
C342 C336 1.428 . S
C342 N341 1.351 . S
C342 C343 1.434 . S
C343 C334 1.429 . S
C343 N340 1.350 . S
C343 C342 1.434 . S
C344 C345 1.369 . S
C344 C346 1.419 . S
C344 H348 0.930 . S
C345 C344 1.369 . S
C345 C354 1.429 . S
C346 C344 1.419 . S
C346 C347 1.363 . S
C346 H349 0.929 . S
C347 C346 1.363 . S
C347 C353 1.428 . S
H348 C344 0.930 . S
H349 C346 0.929 . S
S350 N351 1.613 . S
S350 N352 1.610 . S
N351 S350 1.613 . S
N351 C354 1.350 . S
N352 S350 1.610 . S
N352 C353 1.351 . S
C353 C347 1.428 . S
C353 N352 1.351 . S
C353 C354 1.434 . S
C354 C345 1.429 . S
C354 N351 1.350 . S
C354 C353 1.434 . S
C355 C356 1.369 . S
C355 C357 1.419 . S
C355 H359 0.930 . S
C356 C355 1.369 . S
C356 C365 1.429 . S
C357 C355 1.419 . S
C357 C358 1.363 . S
C357 H360 0.929 . S
C358 C357 1.363 . S
C358 C364 1.428 . S
H359 C355 0.930 . S
H360 C357 0.929 . S
S361 N362 1.613 . S
S361 N363 1.610 . S
N362 S361 1.613 . S
N362 C365 1.350 . S
N363 S361 1.610 . S
N363 C364 1.351 . S
C364 C358 1.428 . S
C364 N363 1.351 . S
C364 C365 1.434 . S
C365 C356 1.429 . S
C365 N362 1.350 . S
C365 C364 1.434 . S
C366 C367 1.369 . S
C366 C368 1.419 . S
C366 H370 0.930 . S
C367 C366 1.369 . S
C367 C376 1.429 . S
C368 C366 1.419 . S
C368 C369 1.363 . S
C368 H371 0.929 . S
C369 C368 1.363 . S
C369 C375 1.428 . S
H370 C366 0.930 . S
H371 C368 0.929 . S
S372 N373 1.613 . S
S372 N374 1.610 . S
N373 S372 1.613 . S
N373 C376 1.350 . S
N374 S372 1.610 . S
N374 C375 1.351 . S
C375 C369 1.428 . S
C375 N374 1.351 . S
C375 C376 1.434 . S
C376 C367 1.429 . S
C376 N373 1.350 . S
C376 C375 1.434 . S
C377 C378 1.369 1_455 S
C377 C379 1.419 . S
C377 H381 0.930 . S
C378 C377 1.369 1_655 S
C378 C387 1.429 . S
C379 C377 1.419 . S
C379 C380 1.363 . S
C379 H382 0.929 . S
C380 C379 1.363 . S
C380 C386 1.428 1_455 S
H381 C377 0.930 . S
H382 C379 0.929 . S
S383 N384 1.613 . S
S383 N385 1.610 . S
N384 S383 1.613 . S
N384 C387 1.350 . S
N385 S383 1.610 . S
N385 C386 1.351 . S
C386 C380 1.428 1_655 S
C386 N385 1.351 . S
C386 C387 1.434 . S
C387 C378 1.429 . S
C387 N384 1.350 . S
C387 C386 1.434 . S
C388 C389 1.369 1_565 S
C388 C390 1.419 1_554 S
C388 H392 0.930 . S
C389 C388 1.369 1_545 S
C389 C398 1.429 . S
C390 C388 1.419 1_556 S
C390 C391 1.363 . S
C390 H393 0.929 . S
C391 C390 1.363 . S
C391 C397 1.428 1_565 S
H392 C388 0.930 . S
H393 C390 0.929 . S
S394 N395 1.613 1_556 S
S394 N396 1.610 . S
N395 S394 1.613 1_554 S
N395 C398 1.350 . S
N396 S394 1.610 . S
N396 C397 1.351 . S
C397 C391 1.428 1_545 S
C397 N396 1.351 . S
C397 C398 1.434 1_556 S
C398 C389 1.429 . S
C398 N395 1.350 . S
C398 C397 1.434 1_554 S
C399 C400 1.369 . S
C399 C401 1.419 . S
C399 H403 0.930 . S
C400 C399 1.369 . S
C400 C409 1.429 . S
C401 C399 1.419 . S
C401 C402 1.363 . S
C401 H404 0.929 . S
C402 C401 1.363 . S
C402 C408 1.428 . S
H403 C399 0.930 . S
H404 C401 0.929 . S
S405 N406 1.613 . S
S405 N407 1.610 . S
N406 S405 1.613 . S
N406 C409 1.350 . S
N407 S405 1.610 . S
N407 C408 1.351 . S
C408 C402 1.428 . S
C408 N407 1.351 . S
C408 C409 1.434 . S
C409 C400 1.429 . S
C409 N406 1.350 . S
C409 C408 1.434 . S
C410 C411 1.369 1_655 S
C410 C412 1.419 . S
C410 H414 0.930 . S
C411 C410 1.369 1_455 S
C411 C420 1.429 . S
C412 C410 1.419 . S
C412 C413 1.363 . S
C412 H415 0.929 . S
C413 C412 1.363 . S
C413 C419 1.428 1_655 S
H414 C410 0.930 . S
H415 C412 0.929 . S
S416 N417 1.613 . S
S416 N418 1.610 . S
N417 S416 1.613 . S
N417 C420 1.350 . S
N418 S416 1.610 . S
N418 C419 1.351 . S
C419 C413 1.428 1_455 S
C419 N418 1.351 . S
C419 C420 1.434 . S
C420 C411 1.429 . S
C420 N417 1.350 . S
C420 C419 1.434 . S
C421 C422 1.369 . S
C421 C423 1.419 1_554 S
C421 H425 0.930 . S
C422 C421 1.369 . S
C422 C431 1.429 1_565 S
C423 C421 1.419 1_556 S
C423 C424 1.363 1_565 S
C423 H426 0.929 . S
C424 C423 1.363 1_545 S
C424 C430 1.428 . S
H425 C421 0.930 . S
H426 C423 0.929 . S
S427 N428 1.613 . S
S427 N429 1.610 1_554 S
N428 S427 1.613 . S
N428 C431 1.350 . S
N429 S427 1.610 1_556 S
N429 C430 1.351 . S
C430 C424 1.428 . S
C430 N429 1.351 . S
C430 C431 1.434 1_556 S
C431 C422 1.429 1_545 S
C431 N428 1.350 . S
C431 C430 1.434 1_554 S
C169 C159 1.340 . S
C171 C5 1.335 . S
C180 C19 1.338 . S
C182 C89 1.330 . S
C191 C33 1.338 . S
C193 C103 1.338 . S
C202 C47 1.336 . S
C204 C117 1.339 . S
C213 C131 1.326 . S
C215 C61 1.334 . S
C224 C75 1.333 . S
C226 C145 1.338 . S
C235 C54 1.288 . S
C237 C12 1.298 . S
C246 C68 1.287 . S
C248 C26 1.296 . S
C257 C82 1.287 . S
C259 C40 1.297 . S
C268 C96 1.299 . S
C270 C138 1.292 . S
C279 C110 1.299 . S
C281 C152 1.289 . S
C290 C124 1.290 . S
C292 C166 1.298 . S
C301 C116 1.004 . S
C303 C4 0.997 . S
C312 C18 1.001 . S
C314 C130 0.996 . S
C323 C144 1.005 . S
C325 C32 1.001 . S
C334 C158 1.005 . S
C336 C46 1.000 . S
C345 C88 1.005 . S
C347 C60 1.001 . S
C356 C74 1.000 . S
C358 C102 0.997 . S
C367 C137 1.501 . S
C369 C11 1.507 . S
C378 C25 1.503 . S
C380 C151 1.502 . S
C389 C165 1.504 . S
C391 C39 1.502 . S
C400 C53 1.509 . S
C402 C95 1.505 . S
C411 C67 1.509 . S
C413 C109 1.504 . S
C422 C123 1.501 . S
C424 C81 1.507 . S
