# Generated by pormake.
# Topology lcy-e, (6)-cn, num edge types: 1
# Building blocks:
#     Node 0, Type 0, BuildingBlock: NUHQIS_clean_sbu_0, # of connection points: 6
#     Node 1, Type 0, BuildingBlock: NUHQIS_clean_sbu_0, # of connection points: 6
#     Node 2, Type 0, BuildingBlock: NUHQIS_clean_sbu_0, # of connection points: 6
#     Node 3, Type 0, BuildingBlock: NUHQIS_clean_sbu_0, # of connection points: 6
#     Node 4, Type 0, BuildingBlock: NUHQIS_clean_sbu_0, # of connection points: 6
#     Node 5, Type 0, BuildingBlock: NUHQIS_clean_sbu_0, # of connection points: 6
#     Node 6, Type 0, BuildingBlock: NUHQIS_clean_sbu_0, # of connection points: 6
#     Node 7, Type 0, BuildingBlock: NUHQIS_clean_sbu_0, # of connection points: 6
#     Node 8, Type 0, BuildingBlock: NUHQIS_clean_sbu_0, # of connection points: 6
#     Node 9, Type 0, BuildingBlock: NUHQIS_clean_sbu_0, # of connection points: 6
#     Node 10, Type 0, BuildingBlock: NUHQIS_clean_sbu_0, # of connection points: 6
#     Node 11, Type 0, BuildingBlock: NUHQIS_clean_sbu_0, # of connection points: 6
#     Edge 12, Type (0, 0), BuildingBlock: XIVTED_clean_linker_0, # of connection points: 2
#     Edge 13, Type (0, 0), BuildingBlock: XIVTED_clean_linker_0, # of connection points: 2
#     Edge 14, Type (0, 0), BuildingBlock: XIVTED_clean_linker_0, # of connection points: 2
#     Edge 15, Type (0, 0), BuildingBlock: XIVTED_clean_linker_0, # of connection points: 2
#     Edge 16, Type (0, 0), BuildingBlock: XIVTED_clean_linker_0, # of connection points: 2
#     Edge 17, Type (0, 0), BuildingBlock: XIVTED_clean_linker_0, # of connection points: 2
#     Edge 18, Type (0, 0), BuildingBlock: XIVTED_clean_linker_0, # of connection points: 2
#     Edge 19, Type (0, 0), BuildingBlock: XIVTED_clean_linker_0, # of connection points: 2
#     Edge 20, Type (0, 0), BuildingBlock: XIVTED_clean_linker_0, # of connection points: 2
#     Edge 21, Type (0, 0), BuildingBlock: XIVTED_clean_linker_0, # of connection points: 2
#     Edge 22, Type (0, 0), BuildingBlock: XIVTED_clean_linker_0, # of connection points: 2
#     Edge 23, Type (0, 0), BuildingBlock: XIVTED_clean_linker_0, # of connection points: 2
#     Edge 24, Type (0, 0), BuildingBlock: XIVTED_clean_linker_0, # of connection points: 2
#     Edge 25, Type (0, 0), BuildingBlock: XIVTED_clean_linker_0, # of connection points: 2
#     Edge 26, Type (0, 0), BuildingBlock: XIVTED_clean_linker_0, # of connection points: 2
#     Edge 27, Type (0, 0), BuildingBlock: XIVTED_clean_linker_0, # of connection points: 2
#     Edge 28, Type (0, 0), BuildingBlock: XIVTED_clean_linker_0, # of connection points: 2
#     Edge 29, Type (0, 0), BuildingBlock: XIVTED_clean_linker_0, # of connection points: 2
#     Edge 30, Type (0, 0), BuildingBlock: XIVTED_clean_linker_0, # of connection points: 2
#     Edge 31, Type (0, 0), BuildingBlock: XIVTED_clean_linker_0, # of connection points: 2
#     Edge 32, Type (0, 0), BuildingBlock: XIVTED_clean_linker_0, # of connection points: 2
#     Edge 33, Type (0, 0), BuildingBlock: XIVTED_clean_linker_0, # of connection points: 2
#     Edge 34, Type (0, 0), BuildingBlock: XIVTED_clean_linker_0, # of connection points: 2
#     Edge 35, Type (0, 0), BuildingBlock: XIVTED_clean_linker_0, # of connection points: 2
#     Edge 36, Type (0, 0), BuildingBlock: XIVTED_clean_linker_0, # of connection points: 2
#     Edge 37, Type (0, 0), BuildingBlock: XIVTED_clean_linker_0, # of connection points: 2
#     Edge 38, Type (0, 0), BuildingBlock: XIVTED_clean_linker_0, # of connection points: 2
#     Edge 39, Type (0, 0), BuildingBlock: XIVTED_clean_linker_0, # of connection points: 2
#     Edge 40, Type (0, 0), BuildingBlock: XIVTED_clean_linker_0, # of connection points: 2
#     Edge 41, Type (0, 0), BuildingBlock: XIVTED_clean_linker_0, # of connection points: 2
#     Edge 42, Type (0, 0), BuildingBlock: XIVTED_clean_linker_0, # of connection points: 2
#     Edge 43, Type (0, 0), BuildingBlock: XIVTED_clean_linker_0, # of connection points: 2
#     Edge 44, Type (0, 0), BuildingBlock: XIVTED_clean_linker_0, # of connection points: 2
#     Edge 45, Type (0, 0), BuildingBlock: XIVTED_clean_linker_0, # of connection points: 2
#     Edge 46, Type (0, 0), BuildingBlock: XIVTED_clean_linker_0, # of connection points: 2
#     Edge 47, Type (0, 0), BuildingBlock: XIVTED_clean_linker_0, # of connection points: 2
# Relax obj value: 0.180
# Max RMSD: 0.286
# Mean RMSD: 0.270
data_MOF--net-lcy-e--node1-NUHQIS_clean_sbu_0--edge1-XIVTED_clean_linker_0
_symmetry_space_group_name_H-M    P1
_symmetry_Int_Tables_number       1
_symmetry_cell_setting            triclinic
loop_
_symmetry_equiv_pos_as_xyz
'x, y, z'
_cell_length_a     43.92779
_cell_length_b     47.11581
_cell_length_c     43.926355
_cell_angle_alpha  89.723353
_cell_angle_beta   90.036145
_cell_angle_gamma 89.03861
loop_
_atom_site_label
_atom_site_type_symbol
_atom_site_fract_x
_atom_site_fract_y
_atom_site_fract_z
_atom_type_partial_charge
Tb0 Tb 0.12712 0.24957 0.51303 0.0
Eu1 Eu 0.10985 0.29815 0.46136 0.0
C2 C 0.16604 0.25472 0.45398 0.0
C3 C 0.15813 0.3101 0.512 0.0
C4 C 0.12654 0.18424 0.56316 0.0
C5 C 0.10216 0.13868 0.55563 0.0
C6 C 0.11144 0.16502 0.54421 0.0
C7 C 0.13107 0.17718 0.59385 0.0
C8 C 0.12173 0.15099 0.60528 0.0
C9 C 0.1078 0.13107 0.58619 0.0
C10 C 0.13985 0.21063 0.5511 0.0
O11 O 0.08295 0.26694 0.52569 0.0
O12 O 0.08882 0.31166 0.50648 0.0
O13 O 0.07095 0.26803 0.46287 0.0
O14 O 0.09808 0.22896 0.47925 0.0
C15 C 0.07745 0.29433 0.52701 0.0
O16 O 0.10534 0.3423 0.4465 0.0
O17 O 0.09377 0.30852 0.41547 0.0
O18 O 0.14272 0.26663 0.43986 0.0
O19 O 0.16669 0.25284 0.48377 0.0
O20 O 0.14586 0.29009 0.52899 0.0
O21 O 0.15388 0.31085 0.48248 0.0
C22 C 0.07402 0.24042 0.46572 0.0
O23 O 0.14826 0.21038 0.52267 0.0
O24 O 0.12658 0.2346 0.55842 0.0
C25 C 0.11516 0.34966 0.39365 0.0
C26 C 0.14619 0.3764 0.34517 0.0
C27 C 0.15793 0.377 0.37499 0.0
C28 C 0.14266 0.36367 0.39896 0.0
C29 C 0.1035 0.34893 0.36391 0.0
C30 C 0.11887 0.36205 0.33991 0.0
C31 C 0.09831 0.33564 0.41857 0.0
H32 H 0.0916 0.12391 0.54023 0.0
H33 H 0.10757 0.17 0.52041 0.0
H34 H 0.14254 0.1917 0.6089 0.0
H35 H 0.1258 0.14622 0.62909 0.0
H36 H 0.17908 0.38759 0.37976 0.0
H37 H 0.15238 0.36439 0.4216 0.0
H38 H 0.08234 0.33827 0.35925 0.0
H39 H 0.10902 0.36146 0.31732 0.0
Tb40 Tb 0.00865 0.8989 0.70335 0.0
Eu41 Eu 0.06265 0.91481 0.75235 0.0
C42 C 0.06713 0.85995 0.70961 0.0
C43 C 0.01227 0.87118 0.77002 0.0
C44 C 0.95512 0.90302 0.63734 0.0
C45 C 0.93881 0.90212 0.58443 0.0
C46 C 0.95169 0.88848 0.6098 0.0
C47 C 0.94571 0.93163 0.63906 0.0
C48 C 0.93255 0.94523 0.61374 0.0
C49 C 0.92889 0.93059 0.58615 0.0
C50 C 0.96899 0.888 0.66362 0.0
O51 O 0.99673 0.94042 0.72083 0.0
O52 O 0.01805 0.93507 0.76796 0.0
O53 O 0.0599 0.95061 0.71909 0.0
O54 O 0.04017 0.92653 0.67862 0.0
C55 C 0.99693 0.94604 0.74996 0.0
O56 O 0.07867 0.92122 0.79885 0.0
O57 O 0.10868 0.92933 0.76073 0.0
O58 O 0.08253 0.8811 0.72107 0.0
O59 O 0.03739 0.86129 0.7072 0.0
O60 O 0.9946 0.88123 0.74787 0.0
O61 O 0.04165 0.87545 0.77024 0.0
C62 C 0.05468 0.94837 0.6899 0.0
O63 O 0.99778 0.88137 0.6609 0.0
O64 O 0.96254 0.8976 0.69074 0.0
C65 C 0.13117 0.91268 0.80623 0.0
C66 C 0.17942 0.88515 0.83741 0.0
C67 C 0.16945 0.9125 0.846 0.0
C68 C 0.14554 0.92612 0.83053 0.0
C69 C 0.14095 0.88542 0.79744 0.0
C70 C 0.165 0.87178 0.81286 0.0
C71 C 0.10618 0.92749 0.79027 0.0
H72 H 0.93599 0.89016 0.56365 0.0
H73 H 0.9589 0.86644 0.60794 0.0
H74 H 0.94846 0.94347 0.65994 0.0
H75 H 0.9254 0.96725 0.61569 0.0
H76 H 0.18035 0.92353 0.86452 0.0
H77 H 0.13831 0.9472 0.83751 0.0
H78 H 0.12998 0.87471 0.77873 0.0
H79 H 0.17197 0.85063 0.8059 0.0
Tb80 Tb 0.39212 0.80305 0.0138 0.0
Eu81 Eu 0.40948 0.75357 0.9633 0.0
C82 C 0.35488 0.79836 0.95362 0.0
C83 C 0.35909 0.74378 0.01234 0.0
C84 C 0.39302 0.8684 0.06327 0.0
C85 C 0.41413 0.91546 0.05579 0.0
C86 C 0.40478 0.88944 0.04394 0.0
C87 C 0.39197 0.87341 0.09467 0.0
C88 C 0.40146 0.89929 0.10653 0.0
C89 C 0.41199 0.92095 0.0872 0.0
C90 C 0.37948 0.8422 0.05118 0.0
O91 O 0.43579 0.78506 0.02724 0.0
O92 O 0.4289 0.74023 0.00933 0.0
O93 O 0.44868 0.78333 0.96473 0.0
O94 O 0.42189 0.82287 0.98013 0.0
C95 C 0.44038 0.75759 0.0296 0.0
O96 O 0.41305 0.70895 0.95004 0.0
O97 O 0.42608 0.74185 0.91824 0.0
O98 O 0.37805 0.78556 0.94032 0.0
O99 O 0.35349 0.80064 0.98333 0.0
O100 O 0.37186 0.76314 0.02959 0.0
O101 O 0.36419 0.74282 0.983 0.0
C102 C 0.4459 0.811 0.96711 0.0
O103 O 0.37145 0.84251 0.02262 0.0
O104 O 0.39216 0.81804 0.05903 0.0
C105 C 0.40453 0.70044 0.89772 0.0
C106 C 0.37331 0.67202 0.85082 0.0
C107 C 0.40058 0.66067 0.86304 0.0
C108 C 0.41599 0.67475 0.88622 0.0
C109 C 0.37737 0.71199 0.88566 0.0
C110 C 0.36196 0.69796 0.86232 0.0
C111 C 0.4212 0.71484 0.92219 0.0
H112 H 0.42196 0.93161 0.04017 0.0
H113 H 0.40595 0.88614 0.01957 0.0
H114 H 0.3831 0.8575 0.11004 0.0
H115 H 0.40015 0.90244 0.1309 0.0
H116 H 0.41023 0.64097 0.85446 0.0
H117 H 0.43695 0.66555 0.89516 0.0
H118 H 0.36807 0.7318 0.89434 0.0
H119 H 0.34089 0.70715 0.85367 0.0
Tb120 Tb 0.50935 0.15608 0.19668 0.0
Eu121 Eu 0.45842 0.14102 0.24957 0.0
C122 C 0.44887 0.19202 0.20161 0.0
C123 C 0.50727 0.18706 0.26059 0.0
C124 C 0.56319 0.15289 0.13087 0.0
C125 C 0.60471 0.1507 0.09458 0.0
C126 C 0.58984 0.16419 0.11872 0.0
C127 C 0.55148 0.12785 0.11862 0.0
C128 C 0.56627 0.11439 0.09428 0.0
C129 C 0.59313 0.12564 0.08207 0.0
C130 C 0.5478 0.1678 0.15596 0.0
O131 O 0.52313 0.11549 0.2152 0.0
O132 O 0.5043 0.12115 0.26331 0.0
O133 O 0.45945 0.10417 0.21777 0.0
O134 O 0.47847 0.126 0.17507 0.0
C135 C 0.5251 0.11081 0.24452 0.0
O136 O 0.4453 0.1382 0.29748 0.0
O137 O 0.41373 0.12551 0.26232 0.0
O138 O 0.43521 0.17144 0.21632 0.0
O139 O 0.47853 0.19221 0.19847 0.0
O140 O 0.52457 0.17442 0.24001 0.0
O141 O 0.47792 0.183 0.2614 0.0
C142 C 0.46421 0.10485 0.18832 0.0
O143 O 0.51851 0.17182 0.15299 0.0
O144 O 0.55514 0.15958 0.18342 0.0
C145 C 0.39273 0.14497 0.30719 0.0
C146 C 0.34384 0.17218 0.33773 0.0
C147 C 0.35565 0.14592 0.34816 0.0
C148 C 0.37984 0.13248 0.33302 0.0
C149 C 0.38121 0.1712 0.29664 0.0
C150 C 0.3569 0.18467 0.31174 0.0
C151 C 0.41773 0.13006 0.29132 0.0
H152 H 0.62511 0.16012 0.08544 0.0
H153 H 0.59911 0.18355 0.12784 0.0
H154 H 0.53094 0.11879 0.12785 0.0
H155 H 0.55698 0.09498 0.08532 0.0
H156 H 0.34589 0.13548 0.36779 0.0
H157 H 0.38835 0.11218 0.3414 0.0
H158 H 0.39096 0.18119 0.27672 0.0
H159 H 0.34859 0.20499 0.30329 0.0
Tb160 Tb 0.63096 0.30455 0.47663 0.0
Eu161 Eu 0.60885 0.25771 0.52745 0.0
C162 C 0.66578 0.2977 0.53771 0.0
C163 C 0.65981 0.24193 0.48017 0.0
C164 C 0.63258 0.3708 0.42856 0.0
C165 C 0.6093 0.41752 0.43683 0.0
C166 C 0.61932 0.39108 0.44813 0.0
C167 C 0.63465 0.37712 0.39743 0.0
C168 C 0.62446 0.40343 0.38609 0.0
C169 C 0.61215 0.42426 0.4057 0.0
C170 C 0.64597 0.34378 0.4403 0.0
O171 O 0.58834 0.28826 0.45968 0.0
O172 O 0.59078 0.24399 0.48149 0.0
O173 O 0.57017 0.28823 0.52048 0.0
O174 O 0.59966 0.32607 0.50849 0.0
C175 C 0.58174 0.26121 0.45944 0.0
O176 O 0.60197 0.21439 0.54342 0.0
O177 O 0.58985 0.24981 0.57257 0.0
O178 O 0.64072 0.28835 0.55025 0.0
O179 O 0.66862 0.29874 0.50804 0.0
O180 O 0.65094 0.26327 0.46231 0.0
O181 O 0.65311 0.24158 0.50922 0.0
C182 C 0.57381 0.31564 0.5184 0.0
O183 O 0.65311 0.34299 0.46909 0.0
O184 O 0.63343 0.32028 0.43159 0.0
C185 C 0.6105 0.20899 0.59631 0.0
C186 C 0.64208 0.18436 0.64606 0.0
C187 C 0.61067 0.19043 0.64802 0.0
C188 C 0.59502 0.20258 0.62331 0.0
C189 C 0.64194 0.20342 0.59441 0.0
C190 C 0.65755 0.19108 0.61901 0.0
C191 C 0.59393 0.22238 0.57072 0.0
H192 H 0.60019 0.43296 0.45272 0.0
H193 H 0.61729 0.38679 0.47228 0.0
H194 H 0.64464 0.36182 0.38186 0.0
H195 H 0.6264 0.40747 0.36189 0.0
H196 H 0.59807 0.18524 0.66844 0.0
H197 H 0.57081 0.20694 0.62526 0.0
H198 H 0.65444 0.20863 0.57393 0.0
H199 H 0.68179 0.18697 0.61693 0.0
Tb200 Tb 0.95414 0.40454 0.74599 0.0
Eu201 Eu 0.00779 0.3919 0.79712 0.0
C202 C 0.95698 0.44092 0.80568 0.0
C203 C 0.01591 0.4387 0.74755 0.0
C204 C 0.88727 0.39809 0.69294 0.0
C205 C 0.83336 0.39486 0.68091 0.0
C206 C 0.85727 0.4085 0.69551 0.0
C207 C 0.89294 0.37349 0.67571 0.0
C208 C 0.86901 0.35993 0.6609 0.0
C209 C 0.83896 0.37057 0.66319 0.0
C210 C 0.91208 0.4138 0.70771 0.0
O211 O 0.97614 0.3652 0.7323 0.0
O212 O 0.02347 0.37401 0.75145 0.0
O213 O 0.97933 0.35298 0.79549 0.0
O214 O 0.935 0.37345 0.77784 0.0
C215 C 0.00581 0.36207 0.73104 0.0
O216 O 0.05554 0.39075 0.81084 0.0
O217 O 0.02082 0.37724 0.84264 0.0
O218 O 0.97265 0.42064 0.81954 0.0
O219 O 0.95311 0.44091 0.77606 0.0
O220 O 0.99599 0.42543 0.73044 0.0
O221 O 0.01691 0.43449 0.77699 0.0
C222 C 0.94981 0.35227 0.79125 0.0
O223 O 0.90923 0.41808 0.73687 0.0
O224 O 0.94005 0.40715 0.70031 0.0
C225 C 0.0639 0.39946 0.86353 0.0
C226 C 0.09225 0.42909 0.91138 0.0
C227 C 0.08808 0.44194 0.88265 0.0
C228 C 0.07392 0.42733 0.85899 0.0
C229 C 0.06771 0.38673 0.89225 0.0
C230 C 0.08164 0.40139 0.91597 0.0
C231 C 0.04946 0.38327 0.83884 0.0
H232 H 0.81058 0.40382 0.68282 0.0
H233 H 0.85235 0.4275 0.70854 0.0
H234 H 0.91583 0.36485 0.67343 0.0
H235 H 0.87402 0.34109 0.64765 0.0
H236 H 0.0957 0.46336 0.87848 0.0
H237 H 0.07096 0.4378 0.83715 0.0
H238 H 0.06009 0.36528 0.89627 0.0
H239 H 0.08479 0.39076 0.93768 0.0
Tb240 Tb 0.90323 0.78955 0.03089 0.0
Eu241 Eu 0.87833 0.74319 0.98113 0.0
C242 C 0.93679 0.73182 0.02312 0.0
C243 C 0.9293 0.78675 0.963 0.0
C244 C 0.9032 0.83672 0.09844 0.0
C245 C 0.90383 0.85412 0.15052 0.0
C246 C 0.91862 0.841 0.12596 0.0
C247 C 0.87254 0.84542 0.09595 0.0
C248 C 0.8578 0.85874 0.12041 0.0
C249 C 0.8733 0.86337 0.14797 0.0
C250 C 0.91917 0.82274 0.07284 0.0
O251 O 0.86123 0.8078 0.01351 0.0
O252 O 0.85971 0.78664 0.96656 0.0
O253 O 0.84032 0.75188 0.01361 0.0
O254 O 0.87109 0.76125 0.05393 0.0
C255 C 0.85338 0.80824 0.98469 0.0
O256 O 0.87309 0.72642 0.93498 0.0
O257 O 0.85449 0.70369 0.97355 0.0
O258 O 0.91105 0.72091 0.01386 0.0
O259 O 0.94017 0.75936 0.02389 0.0
O260 O 0.92236 0.8028 0.98672 0.0
O261 O 0.92125 0.76012 0.9615 0.0
C262 C 0.84454 0.75373 0.04296 0.0
O263 O 0.92179 0.79519 0.07459 0.0
O264 O 0.91152 0.8311 0.04549 0.0
C265 C 0.87248 0.676 0.93191 0.0
C266 C 0.89201 0.62325 0.90721 0.0
C267 C 0.87999 0.64496 0.88833 0.0
C268 C 0.87025 0.67094 0.90057 0.0
C269 C 0.88515 0.65469 0.95081 0.0
C270 C 0.89473 0.6286 0.93861 0.0
C271 C 0.86049 0.70309 0.94445 0.0
H272 H 0.91651 0.85759 0.17129 0.0
H273 H 0.94222 0.8343 0.12841 0.0
H274 H 0.85999 0.842 0.07509 0.0
H275 H 0.83418 0.86528 0.11781 0.0
H276 H 0.8781 0.64196 0.86399 0.0
H277 H 0.86069 0.68706 0.88552 0.0
H278 H 0.88728 0.65798 0.9751 0.0
H279 H 0.90357 0.61241 0.95395 0.0
Tb280 Tb 0.55589 0.64949 0.25169 0.0
Eu281 Eu 0.50373 0.6646 0.30366 0.0
C282 C 0.55107 0.612 0.31092 0.0
C283 C 0.49114 0.61939 0.25375 0.0
C284 C 0.62261 0.65454 0.19865 0.0
C285 C 0.67574 0.65468 0.18297 0.0
C286 C 0.65129 0.6411 0.19688 0.0
C287 C 0.61885 0.68207 0.18659 0.0
C288 C 0.64328 0.6956 0.17245 0.0
C289 C 0.67199 0.682 0.17034 0.0
C290 C 0.59718 0.63927 0.21299 0.0
O291 O 0.53616 0.69016 0.23889 0.0
O292 O 0.48851 0.68325 0.25799 0.0
O293 O 0.53464 0.70174 0.30178 0.0
O294 O 0.57739 0.67905 0.28363 0.0
C295 C 0.50669 0.69456 0.23757 0.0
O296 O 0.45626 0.66948 0.31753 0.0
O297 O 0.49228 0.67876 0.3496 0.0
O298 O 0.53652 0.63261 0.32526 0.0
O299 O 0.55501 0.61264 0.28133 0.0
O300 O 0.51276 0.63026 0.23648 0.0
O301 O 0.49078 0.62347 0.28318 0.0
C302 C 0.56412 0.70085 0.2973 0.0
O303 O 0.59996 0.634 0.24202 0.0
O304 O 0.56951 0.64738 0.20589 0.0
C305 C 0.44698 0.6599 0.37007 0.0
C306 C 0.41562 0.63186 0.41741 0.0
C307 C 0.41398 0.62203 0.38726 0.0
C308 C 0.42957 0.63583 0.36384 0.0
C309 C 0.44878 0.66962 0.40017 0.0
C310 C 0.43338 0.65571 0.42361 0.0
C311 C 0.46311 0.67538 0.34571 0.0
H312 H 0.6974 0.64346 0.18142 0.0
H313 H 0.65472 0.61989 0.20603 0.0
H314 H 0.59703 0.69307 0.18791 0.0
H315 H 0.63972 0.71676 0.16323 0.0
H316 H 0.40075 0.60354 0.38179 0.0
H317 H 0.42789 0.62769 0.34089 0.0
H318 H 0.46196 0.68818 0.40553 0.0
H319 H 0.43484 0.66403 0.4465 0.0
Tb320 Tb 0.23203 0.54483 0.13837 0.0
Eu321 Eu 0.27995 0.4957 0.11428 0.0
C322 C 0.23791 0.4876 0.17298 0.0
C323 C 0.29991 0.53934 0.1646 0.0
C324 C 0.16552 0.5947 0.13791 0.0
C325 C 0.11262 0.61095 0.13839 0.0
C326 C 0.13757 0.598 0.15304 0.0
C327 C 0.16805 0.60436 0.1077 0.0
C328 C 0.14319 0.61755 0.09314 0.0
C329 C 0.11518 0.62106 0.10833 0.0
C330 C 0.1914 0.58058 0.1537 0.0
O331 O 0.24907 0.5603 0.0952 0.0
O332 O 0.29588 0.53807 0.09576 0.0
O333 O 0.24701 0.50463 0.07659 0.0
O334 O 0.20752 0.51621 0.10785 0.0
C335 C 0.27792 0.55945 0.08755 0.0
O336 O 0.32528 0.47676 0.10819 0.0
O337 O 0.28571 0.45541 0.09065 0.0
O338 O 0.2472 0.47558 0.14761 0.0
O339 O 0.23792 0.51526 0.17588 0.0
O340 O 0.2767 0.55635 0.15735 0.0
O341 O 0.30063 0.51249 0.15682 0.0
C342 C 0.21777 0.50734 0.08136 0.0
O343 O 0.1891 0.55329 0.15782 0.0
O344 O 0.2187 0.5874 0.14493 0.0
C345 C 0.32663 0.42654 0.10736 0.0
C346 C 0.34868 0.37342 0.12872 0.0
C347 C 0.35338 0.38192 0.09832 0.0
C348 C 0.3425 0.40821 0.0878 0.0
C349 C 0.3214 0.41816 0.1376 0.0
C350 C 0.33234 0.39179 0.14821 0.0
C351 C 0.31497 0.45385 0.0955 0.0
H352 H 0.09149 0.61357 0.15083 0.0
H353 H 0.13506 0.59057 0.17627 0.0
H354 H 0.18923 0.60171 0.09532 0.0
H355 H 0.14581 0.62479 0.06986 0.0
H356 H 0.36534 0.36814 0.08252 0.0
H357 H 0.34641 0.4142 0.0643 0.0
H358 H 0.30895 0.43203 0.15296 0.0
H359 H 0.32852 0.38604 0.17178 0.0
Tb360 Tb 0.77515 0.05528 0.87227 0.0
Eu361 Eu 0.72487 0.00936 0.84767 0.0
C362 C 0.71376 0.04807 0.90628 0.0
C363 C 0.77144 0.9922 0.89872 0.0
C364 C 0.82547 0.1188 0.87794 0.0
C365 C 0.86101 0.15726 0.88445 0.0
C366 C 0.84815 0.13206 0.89485 0.0
C367 C 0.81574 0.13109 0.85032 0.0
C368 C 0.8286 0.15641 0.83986 0.0
C369 C 0.85147 0.16981 0.8568 0.0
C370 C 0.81161 0.09282 0.89013 0.0
O371 O 0.79179 0.04095 0.82853 0.0
O372 O 0.77154 0.9965 0.82956 0.0
O373 O 0.73096 0.04131 0.81069 0.0
O374 O 0.74321 0.07811 0.84187 0.0
C375 C 0.79284 0.01412 0.82083 0.0
O376 O 0.71127 0.96597 0.83796 0.0
O377 O 0.68009 1.00106 0.82855 0.0
O378 O 0.70118 0.03887 0.8811 0.0
O379 O 0.74341 0.04898 0.90913 0.0
O380 O 0.78935 0.01324 0.89056 0.0
O381 O 0.74248 0.99244 0.89171 0.0
C382 C 0.73325 0.06854 0.81562 0.0
O383 O 0.78226 0.09398 0.89436 0.0
O384 O 0.82025 0.06881 0.87799 0.0
C385 C 0.65893 0.95783 0.84474 0.0
C386 C 0.61217 0.92664 0.87269 0.0
C387 C 0.62232 0.91985 0.84317 0.0
C388 C 0.64547 0.93532 0.82935 0.0
C389 C 0.6489 0.96485 0.87414 0.0
C390 C 0.62564 0.94944 0.88797 0.0
C391 C 0.68365 0.97353 0.83008 0.0
H392 H 0.87816 0.16715 0.89838 0.0
H393 H 0.85577 0.12304 0.91634 0.0
H394 H 0.79815 0.12117 0.83695 0.0
H395 H 0.82089 0.1653 0.81836 0.0
H396 H 0.61219 0.90268 0.83061 0.0
H397 H 0.65292 0.92964 0.80664 0.0
H398 H 0.6592 0.98212 0.88644 0.0
H399 H 0.61861 0.95503 0.91082 0.0
Tb400 Tb 0.74613 0.99437 0.3757 0.0
Eu401 Eu 0.79431 0.04148 0.34871 0.0
C402 C 0.80752 1.00416 0.40827 0.0
C403 C 0.74733 0.05832 0.39975 0.0
C404 C 0.69796 0.92937 0.38351 0.0
C405 C 0.66299 0.89057 0.39134 0.0
C406 C 0.67638 0.91554 0.40145 0.0
C407 C 0.70614 0.91775 0.35521 0.0
C408 C 0.69274 0.89263 0.34504 0.0
C409 C 0.67082 0.87878 0.36294 0.0
C410 C 0.71198 0.95543 0.39518 0.0
O411 O 0.7264 1.00868 0.3332 0.0
O412 O 0.74726 0.05299 0.32998 0.0
O413 O 0.78772 0.00959 0.31205 0.0
O414 O 0.7775 0.97254 0.344 0.0
C415 C 0.72496 0.03529 0.32435 0.0
O416 O 0.80768 0.08503 0.33877 0.0
O417 O 0.83875 0.05011 0.32887 0.0
O418 O 0.81912 0.01233 0.38215 0.0
O419 O 0.77801 1.00282 0.41193 0.0
O420 O 0.73047 0.03612 0.39317 0.0
O421 O 0.77608 0.05925 0.39202 0.0
C422 C 0.78625 0.9823 0.31726 0.0
O423 O 0.74156 0.95496 0.39761 0.0
O424 O 0.70193 0.97949 0.38397 0.0
C425 C 0.86021 0.09322 0.34494 0.0
C426 C 0.9076 0.12414 0.37225 0.0
C427 C 0.89718 0.13098 0.34273 0.0
C428 C 0.87374 0.11567 0.32925 0.0
C429 C 0.87055 0.08612 0.37431 0.0
C430 C 0.8941 0.10138 0.38781 0.0
C431 C 0.83521 0.07763 0.33055 0.0
H432 H 0.64666 0.88032 0.40602 0.0
H433 H 0.66994 0.92403 0.42346 0.0
H434 H 0.72284 0.9281 0.34102 0.0
H435 H 0.69915 0.88434 0.32296 0.0
H436 H 0.9073 0.14808 0.32989 0.0
H437 H 0.86613 0.12142 0.30654 0.0
H438 H 0.86027 0.0689 0.38686 0.0
H439 H 0.90129 0.09571 0.41066 0.0
Tb440 Tb 0.23274 0.55464 0.62435 0.0
Eu441 Eu 0.28325 0.50577 0.64383 0.0
C442 C 0.2938 0.54921 0.58917 0.0
C443 C 0.23559 0.49415 0.5926 0.0
C444 C 0.18302 0.62037 0.62302 0.0
C445 C 0.14587 0.65905 0.62044 0.0
C446 C 0.1577 0.63346 0.60919 0.0
C447 C 0.19634 0.63313 0.6485 0.0
C448 C 0.18453 0.65886 0.65978 0.0
C449 C 0.15913 0.67214 0.64585 0.0
C450 C 0.19594 0.59428 0.6095 0.0
O451 O 0.21655 0.53721 0.66701 0.0
O452 O 0.23726 0.49253 0.66234 0.0
O453 O 0.27859 0.53502 0.6835 0.0
O454 O 0.26459 0.57452 0.65616 0.0
C455 C 0.21573 0.50984 0.67251 0.0
O456 O 0.29806 0.46159 0.64909 0.0
O457 O 0.32864 0.4953 0.66142 0.0
O458 O 0.30639 0.53785 0.61355 0.0
O459 O 0.26412 0.55074 0.58643 0.0
O460 O 0.21787 0.51431 0.60418 0.0
O461 O 0.26482 0.49313 0.59851 0.0
C462 C 0.27619 0.56267 0.68092 0.0
O463 O 0.22506 0.59441 0.60394 0.0
O464 O 0.18755 0.5702 0.62126 0.0
C465 C 0.35096 0.45412 0.63983 0.0
C466 C 0.39978 0.4277 0.60831 0.0
C467 C 0.37025 0.42829 0.59585 0.0
C468 C 0.34612 0.44145 0.61137 0.0
C469 C 0.38043 0.4538 0.65219 0.0
C470 C 0.40464 0.44081 0.63656 0.0
C471 C 0.32581 0.46816 0.65666 0.0
H472 H 0.12663 0.66885 0.60881 0.0
H473 H 0.14729 0.62407 0.58935 0.0
H474 H 0.21599 0.62334 0.65948 0.0
H475 H 0.19511 0.6682 0.67954 0.0
H476 H 0.36583 0.41868 0.57397 0.0
H477 H 0.3237 0.44169 0.60106 0.0
H478 H 0.38472 0.46353 0.67404 0.0
H479 H 0.42702 0.44049 0.64692 0.0
H480 H 0.14649 0.33361 0.56798 0.0
H481 H 0.26183 0.46122 0.54875 0.0
H482 H 0.20094 0.34453 0.48724 0.0
H483 H 0.18056 0.46923 0.60322 0.0
H484 H 0.24408 0.41554 0.52995 0.0
H485 H 0.16398 0.37976 0.58648 0.0
C486 C 0.16261 0.3454 0.55447 0.0
C487 C 0.17241 0.33514 0.52609 0.0
C488 C 0.22996 0.42742 0.54575 0.0
C489 C 0.19224 0.38792 0.54696 0.0
C490 C 0.23999 0.45356 0.55635 0.0
C491 C 0.22247 0.46921 0.57728 0.0
C492 C 0.20255 0.41639 0.55674 0.0
C493 C 0.19452 0.45807 0.58671 0.0
C494 C 0.17224 0.37188 0.56484 0.0
C495 C 0.19288 0.35158 0.50927 0.0
N496 N 0.18559 0.43215 0.57667 0.0
N497 N 0.20219 0.37705 0.51999 0.0
H498 H 0.82942 0.04164 0.78071 0.0
H499 H 0.97014 0.93577 0.80491 0.0
H500 H 0.82148 0.96299 0.83047 0.0
H501 H 0.9603 0.98621 0.72317 0.0
H502 H 0.91924 0.9519 0.82104 0.0
H503 H 0.88054 0.02674 0.76422 0.0
C504 C 0.83829 0.02104 0.78773 0.0
C505 C 0.82114 1.00334 0.80665 0.0
C506 C 0.92844 0.95964 0.79974 0.0
C507 C 0.87985 0.98675 0.78893 0.0
C508 C 0.95761 0.95083 0.79077 0.0
C509 C 0.96946 0.95988 0.76279 0.0
C510 C 0.91133 0.978 0.78084 0.0
C511 C 0.95198 0.97885 0.74498 0.0
C512 C 0.86745 0.01265 0.77848 0.0
C513 C 0.83379 0.97702 0.81545 0.0
N514 N 0.9238 0.98736 0.75433 0.0
N515 N 0.8626 0.96965 0.80684 0.0
H516 H 0.3705 0.71835 0.06743 0.0
H517 H 0.24955 0.59594 0.04801 0.0
H518 H 0.31366 0.71268 0.98766 0.0
H519 H 0.33416 0.58211 0.09613 0.0
H520 H 0.26771 0.64223 0.03082 0.0
H521 H 0.3513 0.67233 0.08487 0.0
C522 C 0.35344 0.70776 0.05398 0.0
C523 C 0.34352 0.71933 0.02613 0.0
C524 C 0.2824 0.62893 0.04488 0.0
C525 C 0.32178 0.66685 0.04574 0.0
C526 C 0.27215 0.6025 0.05455 0.0
C527 C 0.29058 0.58506 0.07315 0.0
C528 C 0.31093 0.63835 0.05459 0.0
C529 C 0.3195 0.59472 0.08133 0.0
C530 C 0.34285 0.68138 0.06371 0.0
C531 C 0.32183 0.70449 0.0093 0.0
N532 N 0.32867 0.62091 0.0723 0.0
N533 N 0.31161 0.67905 0.01939 0.0
H534 H 0.57987 0.10967 0.21582 0.0
H535 H 0.66882 0.01384 0.33437 0.0
H536 H 0.53681 0.08419 0.29971 0.0
H537 H 0.71404 0.08109 0.28614 0.0
H538 H 0.6198 0.03221 0.31594 0.0
H539 H 0.62861 0.09204 0.23533 0.0
C540 C 0.58052 0.10005 0.23826 0.0
C541 C 0.55404 0.09821 0.25611 0.0
C542 C 0.64046 0.04288 0.30938 0.0
C543 C 0.61006 0.07787 0.27838 0.0
C544 C 0.66851 0.0323 0.31958 0.0
C545 C 0.69567 0.04583 0.31152 0.0
C546 C 0.63949 0.06678 0.29034 0.0
C547 C 0.69371 0.06997 0.29277 0.0
C548 C 0.60849 0.09026 0.24942 0.0
C549 C 0.55659 0.08591 0.28517 0.0
N550 N 0.66607 0.07951 0.28249 0.0
N551 N 0.58411 0.0759 0.29532 0.0
H552 H 0.6923 0.23455 0.42665 0.0
H553 H 0.69556 0.06506 0.43514 0.0
H554 H 0.65744 0.18874 0.50413 0.0
H555 H 0.76716 0.11214 0.39186 0.0
H556 H 0.6737 0.11023 0.454 0.0
H557 H 0.71286 0.18937 0.4065 0.0
C558 C 0.68904 0.21512 0.43942 0.0
C559 C 0.67354 0.21556 0.46732 0.0
C560 C 0.69424 0.11049 0.44038 0.0
C561 C 0.69605 0.16393 0.44408 0.0
C562 C 0.70667 0.08478 0.42966 0.0
C563 C 0.73346 0.08474 0.41231 0.0
C564 C 0.70824 0.13629 0.43292 0.0
C565 C 0.74677 0.11104 0.40562 0.0
C566 C 0.70072 0.1894 0.42795 0.0
C567 C 0.66969 0.18959 0.48278 0.0
N568 N 0.73395 0.13568 0.41572 0.0
N569 N 0.68064 0.1649 0.47089 0.0
H570 H 0.04789 0.48239 0.7713 0.0
H571 H 0.1909 0.45761 0.66354 0.0
H572 H 0.04449 0.42704 0.69352 0.0
H573 H 0.17562 0.53666 0.71071 0.0
H574 H 0.14031 0.44211 0.67972 0.0
H575 H 0.097 0.4999 0.75354 0.0
C576 C 0.05723 0.47434 0.75015 0.0
C577 C 0.042 0.45342 0.73372 0.0
C578 C 0.14817 0.46277 0.68664 0.0
C579 C 0.0987 0.47253 0.71394 0.0
C580 C 0.17717 0.47146 0.6778 0.0
C581 C 0.18755 0.4984 0.68597 0.0
C582 C 0.12967 0.48093 0.70425 0.0
C583 C 0.16854 0.5157 0.70398 0.0
C584 C 0.08532 0.48421 0.74015 0.0
C585 C 0.0553 0.44345 0.70666 0.0
N586 N 0.1406 0.50663 0.71264 0.0
N587 N 0.08314 0.45277 0.69784 0.0
H588 H 0.74986 0.9393 0.89046 0.0
H589 H 0.85641 0.86085 0.00982 0.0
H590 H 0.82201 0.98374 0.93567 0.0
H591 H 0.82152 0.81738 0.93118 0.0
H592 H 0.83803 0.90589 0.98847 0.0
H593 H 0.77008 0.89452 0.91053 0.0
C594 C 0.76988 0.9397 0.90487 0.0
C595 C 0.78412 0.96542 0.91169 0.0
C596 C 0.8344 0.8865 0.97593 0.0
C597 C 0.80725 0.91394 0.93483 0.0
C598 C 0.84457 0.86067 0.98818 0.0
C599 C 0.84026 0.83514 0.97236 0.0
C600 C 0.81921 0.88689 0.94791 0.0
C601 C 0.82519 0.83646 0.94422 0.0
C602 C 0.7815 0.91404 0.91607 0.0
C603 C 0.81029 0.96444 0.92998 0.0
N604 N 0.81493 0.86191 0.93301 0.0
N605 N 0.82085 0.93909 0.94127 0.0
H606 H 0.43416 0.61983 0.27761 0.0
H607 H 0.35796 0.5194 0.15768 0.0
H608 H 0.48443 0.59153 0.19868 0.0
H609 H 0.30623 0.58632 0.20139 0.0
H610 H 0.40486 0.53936 0.17779 0.0
H611 H 0.38766 0.60147 0.25539 0.0
C612 C 0.43555 0.60946 0.25569 0.0
C613 C 0.46345 0.60696 0.24011 0.0
C614 C 0.38325 0.54964 0.18298 0.0
C615 C 0.4099 0.58577 0.21465 0.0
C616 C 0.35639 0.53815 0.17181 0.0
C617 C 0.32799 0.55105 0.17816 0.0
C618 C 0.3818 0.57387 0.20127 0.0
C619 C 0.32755 0.57561 0.19608 0.0
C620 C 0.40884 0.59924 0.24295 0.0
C621 C 0.46351 0.59377 0.21153 0.0
N622 N 0.35404 0.58604 0.20735 0.0
N623 N 0.43716 0.58333 0.19984 0.0
H624 H 0.56192 0.17498 0.28802 0.0
H625 H 0.54207 0.28824 0.42083 0.0
H626 H 0.48282 0.23013 0.29426 0.0
H627 H 0.59107 0.20901 0.43387 0.0
H628 H 0.52512 0.27173 0.37088 0.0
H629 H 0.57935 0.19275 0.33745 0.0
C630 C 0.54864 0.19134 0.29943 0.0
C631 C 0.52099 0.20127 0.28702 0.0
C632 C 0.53935 0.25787 0.38481 0.0
C633 C 0.54053 0.22131 0.34348 0.0
C634 C 0.54889 0.2672 0.41332 0.0
C635 C 0.56769 0.24981 0.4316 0.0
C636 C 0.54931 0.23127 0.37416 0.0
C637 C 0.57616 0.22287 0.42067 0.0
C638 C 0.55835 0.20113 0.32778 0.0
C639 C 0.50431 0.222 0.30305 0.0
N640 N 0.5672 0.21453 0.39247 0.0
N641 N 0.51436 0.23139 0.33042 0.0
H642 H 0.03641 0.26832 0.56398 0.0
H643 H 0.06015 0.37355 0.70315 0.0
H644 H 0.08789 0.34506 0.5551 0.0
H645 H 0.98022 0.32224 0.69464 0.0
H646 H 0.0764 0.35805 0.65225 0.0
H647 H 0.01993 0.28354 0.6147 0.0
C648 C 0.04386 0.28859 0.57253 0.0
C649 C 0.0633 0.30559 0.55517 0.0
C650 C 0.05544 0.35004 0.66171 0.0
C651 C 0.04543 0.32261 0.61364 0.0
C652 C 0.04637 0.35857 0.69088 0.0
C653 C 0.01884 0.34909 0.70318 0.0
C654 C 0.03714 0.3315 0.64502 0.0
C655 C 1.00163 0.33003 0.68604 0.0
C656 C 0.03458 0.29718 0.60152 0.0
C657 C 0.07254 0.33151 0.56753 0.0
N658 N 0.01108 0.32181 0.65791 0.0
N659 N 0.06384 0.33907 0.59618 0.0
H660 H 0.95881 0.84144 0.77631 0.0
H661 H 0.96454 0.83456 0.95774 0.0
H662 H 0.03531 0.87236 0.82733 0.0
H663 H 0.92366 0.76841 0.90465 0.0
H664 H 0.98405 0.85559 0.91029 0.0
H665 H 0.93837 0.82108 0.8238 0.0
C666 C 0.97126 0.84392 0.79739 0.0
C667 C 0.99899 0.85823 0.79775 0.0
C668 C 0.97086 0.83641 0.9092 0.0
C669 C 0.97548 0.83585 0.85198 0.0
C670 C 0.95979 0.82442 0.93621 0.0
C671 C 0.94284 0.79948 0.93525 0.0
C672 C 0.96415 0.8238 0.88105 0.0
C673 C 0.93707 0.78739 0.9066 0.0
C674 C 0.95966 0.83233 0.8244 0.0
C675 C 0.0141 0.86107 0.82583 0.0
N676 N 0.94747 0.79976 0.88069 0.0
N677 N 1.00208 0.85018 0.85177 0.0
H678 H 0.53227 0.73593 0.20307 0.0
H679 H 0.42933 0.70665 0.0576 0.0
H680 H 0.4546 0.68127 0.20683 0.0
H681 H 0.47923 0.78405 0.06835 0.0
H682 H 0.44371 0.69274 0.10968 0.0
H683 H 0.51721 0.75081 0.15168 0.0
C684 C 0.51169 0.7275 0.19326 0.0
C685 C 0.49442 0.70763 0.20936 0.0
C686 C 0.45167 0.71266 0.10049 0.0
C687 C 0.47772 0.72373 0.15012 0.0
C688 C 0.44384 0.72042 0.07065 0.0
C689 C 0.45323 0.74649 0.05857 0.0
C690 C 0.46944 0.73087 0.11815 0.0
C691 C 0.47155 0.76374 0.07674 0.0
C692 C 0.50322 0.73585 0.16388 0.0
C693 C 0.46822 0.69703 0.19541 0.0
N694 N 0.47912 0.7556 0.10554 0.0
N695 N 0.46086 0.70493 0.1664 0.0
H696 H 0.15606 0.35795 0.2866 0.0
H697 H 0.22553 0.50511 0.23087 0.0
H698 H 0.17191 0.42898 0.34583 0.0
H699 H 0.22495 0.43049 0.17425 0.0
H700 H 0.20514 0.47735 0.27278 0.0
H701 H 0.18018 0.3839 0.24482 0.0
C702 C 0.1646 0.379 0.29082 0.0
C703 C 0.16188 0.39131 0.3198 0.0
C704 C 0.20957 0.46693 0.25127 0.0
C705 C 0.18957 0.42111 0.27206 0.0
C706 C 0.22119 0.48282 0.22722 0.0
C707 C 0.22689 0.47018 0.19885 0.0
C708 C 0.20324 0.43811 0.24706 0.0
C709 C 0.22091 0.44114 0.19569 0.0
C710 C 0.17852 0.39373 0.267 0.0
C711 C 0.17373 0.4185 0.32401 0.0
N712 N 0.20922 0.42612 0.21944 0.0
N713 N 0.18685 0.43251 0.30042 0.0
H714 H 0.9456 0.92865 0.52585 0.0
H715 H 0.79152 1.00217 0.46802 0.0
H716 H 0.87735 0.96402 0.58592 0.0
H717 H 0.86851 0.989 0.40845 0.0
H718 H 0.82271 0.98704 0.5111 0.0
H719 H 0.91798 0.94923 0.48225 0.0
C720 C 0.92486 0.94081 0.52987 0.0
C721 C 0.9137 0.94452 0.55959 0.0
C722 C 0.83294 0.9876 0.48868 0.0
C723 C 0.88201 0.96804 0.50985 0.0
C724 C 0.81508 0.99615 0.46398 0.0
C725 C 0.82736 0.99668 0.43449 0.0
C726 C 0.86332 0.97907 0.48401 0.0
C727 C 0.85813 0.98889 0.43079 0.0
C728 C 0.90923 0.95268 0.505 0.0
C729 C 0.88693 0.96078 0.56348 0.0
N730 N 0.87501 0.9801 0.45525 0.0
N731 N 0.8719 0.97168 0.53892 0.0
H732 H 0.2796 0.62118 0.68462 0.0
H733 H 0.36377 0.61491 0.84687 0.0
H734 H 0.29961 0.5443 0.73521 0.0
H735 H 0.34495 0.69365 0.79939 0.0
H736 H 0.33862 0.58932 0.80622 0.0
H737 H 0.30145 0.64876 0.72646 0.0
C738 C 0.28844 0.6101 0.70448 0.0
C739 C 0.28788 0.58031 0.70622 0.0
C740 C 0.33988 0.6122 0.8046 0.0
C741 C 0.31288 0.6117 0.7541 0.0
C742 C 0.35445 0.62685 0.8278 0.0
C743 C 0.35678 0.6565 0.8265 0.0
C744 C 0.32748 0.62717 0.77963 0.0
C745 C 0.34358 0.67081 0.80145 0.0
C746 C 0.30092 0.62585 0.72834 0.0
C747 C 0.29961 0.56715 0.73261 0.0
N748 N 0.32964 0.65601 0.77892 0.0
N749 N 0.31164 0.58288 0.75531 0.0
H750 H 0.56913 0.10246 0.03002 0.0
H751 H 0.73366 0.06394 0.96222 0.0
H752 H 0.65429 0.11623 0.07621 0.0
H753 H 0.65099 0.05262 0.91071 0.0
H754 H 0.7037 0.08026 0.00511 0.0
H755 H 0.59737 0.08123 0.98733 0.0
C756 C 0.59372 0.10081 0.03129 0.0
C757 C 0.60941 0.11137 0.05661 0.0
C758 C 0.69195 0.07421 0.98452 0.0
C759 C 0.64175 0.0873 0.00792 0.0
C760 C 0.70911 0.06484 0.95986 0.0
C761 C 0.69488 0.05703 0.9326 0.0
C762 C 0.66013 0.07597 0.98218 0.0
C763 C 0.66293 0.05854 0.93123 0.0
C764 C 0.6098 0.08884 0.00687 0.0
C765 C 0.64126 0.10886 0.05696 0.0
N766 N 0.64658 0.06797 0.95567 0.0
N767 N 0.6563 0.09718 0.03302 0.0
H768 H 0.63793 0.19569 0.70734 0.0
H769 H 0.73306 0.05755 0.75514 0.0
H770 H 0.68328 0.14038 0.64314 0.0
H771 H 0.71223 0.12394 0.81952 0.0
H772 H 0.71374 0.08772 0.71417 0.0
H773 H 0.66335 0.16986 0.74914 0.0
C774 C 0.65328 0.17817 0.70205 0.0
C775 C 0.65841 0.17011 0.6717 0.0
C776 C 0.71355 0.09589 0.73717 0.0
C777 C 0.68748 0.14056 0.71931 0.0
C778 C 0.7245 0.0786 0.76064 0.0
C779 C 0.72402 0.08818 0.79082 0.0
C780 C 0.70151 0.12291 0.74383 0.0
C781 C 0.71298 0.11578 0.79653 0.0
C782 C 0.66792 0.1636 0.72588 0.0
C783 C 0.6788 0.14749 0.66613 0.0
N784 N 0.70176 0.13211 0.77325 0.0
N785 N 0.69234 0.1334 0.68967 0.0
H786 H 0.15672 0.49477 0.08496 0.0
H787 H 0.14419 0.46007 0.90681 0.0
H788 H 0.23098 0.50144 0.02119 0.0
H789 H 0.07801 0.43183 0.97235 0.0
H790 H 0.17263 0.48217 0.94789 0.0
H791 H 0.12407 0.47817 0.04335 0.0
C792 C 0.16607 0.49299 0.06223 0.0
C793 C 0.19669 0.49928 0.05661 0.0
C794 C 0.15182 0.47125 0.95331 0.0
C795 C 0.15958 0.48052 0.00906 0.0
C796 C 0.13544 0.45879 0.92981 0.0
C797 C 0.10871 0.44397 0.93612 0.0
C798 C 0.14139 0.46909 0.98346 0.0
C799 C 0.09871 0.44273 0.9665 0.0
C800 C 0.14749 0.48342 0.03855 0.0
C801 C 0.20763 0.49657 0.0267 0.0
N802 N 0.11506 0.45509 0.98906 0.0
N803 N 0.18914 0.48741 1.00415 0.0
H804 H 0.7889 0.99422 0.25674 0.0
H805 H 0.8753 0.85094 0.20933 0.0
H806 H 0.8053 0.92612 0.32102 0.0
H807 H 0.83665 0.91087 0.14494 0.0
H808 H 0.85164 0.87804 0.25094 0.0
H809 H 0.80775 0.96394 0.21599 0.0
C810 C 0.7964 0.97279 0.26231 0.0
C811 C 0.79568 0.96278 0.29245 0.0
C812 C 0.84818 0.88509 0.22768 0.0
C813 C 0.81766 0.92783 0.24556 0.0
C814 C 0.86182 0.86976 0.20393 0.0
C815 C 0.85802 0.87866 0.17354 0.0
C816 C 0.83093 0.90973 0.22105 0.0
C817 C 0.84001 0.90302 0.16791 0.0
C818 C 0.80711 0.95545 0.23893 0.0
C819 C 0.80546 0.9347 0.29812 0.0
N820 N 0.82738 0.91776 0.19139 0.0
N821 N 0.81637 0.91827 0.27492 0.0
H822 H 0.35595 0.55603 0.58801 0.0
H823 H 0.35699 0.61307 0.41573 0.0
H824 H 0.27532 0.56665 0.53259 0.0
H825 H 0.43452 0.61885 0.4756 0.0
H826 H 0.32813 0.59148 0.45706 0.0
H827 H 0.38644 0.5748 0.54594 0.0
C828 C 0.34466 0.5622 0.56702 0.0
C829 C 0.31298 0.55983 0.56392 0.0
C830 C 0.35148 0.59741 0.46118 0.0
C831 C 0.34773 0.58119 0.51569 0.0
C832 C 0.36804 0.60957 0.4375 0.0
C833 C 0.39823 0.61783 0.44218 0.0
C834 C 0.36517 0.59326 0.48982 0.0
C835 C 0.4112 0.6131 0.47107 0.0
C836 C 0.36207 0.57297 0.54304 0.0
C837 C 0.29962 0.56818 0.53615 0.0
N838 N 0.39463 0.60112 0.49378 0.0
N839 N 0.31703 0.57843 0.51318 0.0
H840 H 0.21814 0.22998 0.47636 0.0
H841 H 0.2939 0.20032 0.31342 0.0
H842 H 0.17484 0.25452 0.39174 0.0
H843 H 0.33481 0.17626 0.39929 0.0
H844 H 0.25093 0.22179 0.34107 0.0
H845 H 0.26152 0.21146 0.44794 0.0
C846 C 0.21771 0.23154 0.45175 0.0
C847 C 0.19265 0.24384 0.43647 0.0
C848 C 0.26935 0.21184 0.35383 0.0
C849 C 0.24265 0.22245 0.40357 0.0
C850 C 0.29399 0.19972 0.33807 0.0
C851 C 0.318 0.18628 0.35402 0.0
C852 C 0.26873 0.21061 0.38579 0.0
C853 C 0.31665 0.18592 0.38596 0.0
C854 C 0.2426 0.22091 0.43549 0.0
C855 C 0.1936 0.2452 0.40451 0.0
N856 N 0.29248 0.19782 0.40072 0.0
N857 N 0.21817 0.23459 0.38911 0.0
H858 H 0.05776 0.09802 0.57376 0.0
H859 H 0.10357 0.98147 0.6988 0.0
H860 H 0.14148 0.09776 0.62528 0.0
H861 H 0.02883 0.9694 0.63674 0.0
H862 H 0.11748 0.02399 0.67092 0.0
H863 H 0.04631 0.05112 0.59516 0.0
C864 C 0.07383 0.08811 0.58938 0.0
C865 C 0.10046 0.10219 0.59802 0.0
C866 C 0.09818 0.01203 0.66308 0.0
C867 C 0.08736 0.04859 0.62268 0.0
C868 C 0.09021 0.98768 0.67904 0.0
C869 C 0.06495 0.9719 0.67014 0.0
C870 C 0.08053 0.02119 0.63813 0.0
C871 C 0.04859 0.9809 0.64425 0.0
C872 C 0.06722 0.06134 0.60161 0.0
C873 C 0.1203 0.08824 0.61848 0.0
N874 N 0.05643 1.00521 0.62932 0.0
N875 N 0.11326 0.06244 0.63016 0.0
H876 H 0.1883 0.88331 0.89892 0.0
H877 H 0.34649 0.79632 0.8914 0.0
H878 H 0.22772 0.85402 0.81452 0.0
H879 H 0.30416 0.82628 0.97423 0.0
H880 H 0.30323 0.81609 0.86242 0.0
H881 H 0.23062 0.86131 0.92656 0.0
C882 C 0.20596 0.87231 0.88618 0.0
C883 C 0.20457 0.87071 0.85434 0.0
C884 C 0.30348 0.81824 0.88694 0.0
C885 C 0.2532 0.84515 0.88595 0.0
C886 C 0.32817 0.807 0.90349 0.0
C887 C 0.32905 0.80968 0.93531 0.0
C888 C 0.2796 0.83225 0.90237 0.0
C889 C 0.3046 0.82367 0.94977 0.0
C890 C 0.23009 0.8596 0.902 0.0
C891 C 0.22781 0.85564 0.8391 0.0
N892 N 0.281 0.83442 0.93321 0.0
N893 N 0.25128 0.84354 0.85503 0.0
H894 H 0.42049 0.06727 0.20355 0.0
H895 H 0.45804 0.95724 0.07042 0.0
H896 H 0.48534 0.08558 0.13268 0.0
H897 H 0.38223 0.95016 0.13235 0.0
H898 H 0.46924 1.00378 0.09223 0.0
H899 H 0.40701 0.02399 0.17729 0.0
C900 C 0.43183 0.06226 0.1823 0.0
C901 C 0.45422 0.08008 0.1704 0.0
C902 C 0.45013 0.99201 0.10093 0.0
C903 C 0.43897 0.03002 0.14011 0.0
C904 C 0.44365 0.96545 0.08846 0.0
C905 C 0.41932 0.94945 0.09975 0.0
C906 C 0.4322 1.00264 0.12492 0.0
C907 C 0.40167 0.96122 0.12333 0.0
C908 C 0.42406 0.03747 0.16725 0.0
C909 C 0.46791 0.0725 0.14263 0.0
N910 N 0.40854 0.98691 0.13513 0.0
N911 N 0.46029 0.04785 0.12854 0.0
H912 H 0.7809 0.35979 0.68299 0.0
H913 H 0.72319 0.31082 0.51915 0.0
H914 H 0.83928 0.3512 0.6045 0.0
H915 H 0.66766 0.30488 0.59993 0.0
H916 H 0.7655 0.32646 0.5503 0.0
H917 H 0.73884 0.34051 0.65332 0.0
C918 C 0.78489 0.3538 0.65953 0.0
C919 C 0.81368 0.35719 0.64619 0.0
C920 C 0.74413 0.32166 0.5613 0.0
C921 C 0.76562 0.33512 0.61211 0.0
C922 C 0.71984 0.31278 0.54348 0.0
C923 C 0.6917 0.3066 0.55689 0.0
C924 C 0.74036 0.32466 0.59285 0.0
C925 C 0.68892 0.30943 0.5886 0.0
C926 C 0.7609 0.34268 0.64266 0.0
C927 C 0.81761 0.34873 0.61583 0.0
N928 N 0.7129 0.31841 0.60549 0.0
N929 N 0.79384 0.3383 0.5998 0.0
H930 H 0.91255 0.47862 0.78833 0.0
H931 H 0.94018 0.58783 0.92362 0.0
H932 H 0.97495 0.46032 0.86203 0.0
H933 H 0.86436 0.5939 0.86117 0.0
H934 H 0.95447 0.54198 0.90128 0.0
H935 H 0.89593 0.5217 0.81434 0.0
C936 C 0.92268 0.48359 0.81011 0.0
C937 C 0.94526 0.4658 0.82296 0.0
C938 C 0.93466 0.55335 0.89258 0.0
C939 C 0.92642 0.51555 0.85289 0.0
C940 C 0.92638 0.57953 0.90539 0.0
C941 C 0.90107 0.59506 0.8942 0.0
C942 C 0.91767 0.54261 0.86824 0.0
C943 C 0.88442 0.5832 0.8702 0.0
C944 C 0.91312 0.50823 0.825 0.0
C945 C 0.9574 0.47334 0.85134 0.0
N946 N 0.89309 0.55787 0.85801 0.0
N947 N 0.94803 0.49779 0.86525 0.0
H948 H 0.78463 0.74977 0.02804 0.0
H949 H 0.73242 0.68365 0.1868 0.0
H950 H 0.846 0.74063 0.10435 0.0
H951 H 0.67008 0.71116 0.11626 0.0
H952 H 0.77457 0.70351 0.15745 0.0
H953 H 0.74278 0.73496 0.06034 0.0
C954 C 0.78934 0.74469 0.05167 0.0
C955 C 0.81899 0.74628 0.06342 0.0
C956 C 0.75163 0.70539 0.14854 0.0
C957 C 0.77085 0.72906 0.10072 0.0
C958 C 0.72758 0.69393 0.16519 0.0
C959 C 0.69763 0.69564 0.15394 0.0
C960 C 0.74578 0.71839 0.12025 0.0
C961 C 0.69269 0.70953 0.12599 0.0
C962 C 0.76532 0.7363 0.07017 0.0
C963 C 0.82352 0.73968 0.09433 0.0
N964 N 0.71649 0.72012 0.11004 0.0
N965 N 0.79974 0.73109 0.11187 0.0
H966 H 0.56411 0.45941 0.42314 0.0
H967 H 0.59501 0.57438 0.29301 0.0
H968 H 0.64031 0.45545 0.36117 0.0
H969 H 0.53177 0.59047 0.36628 0.0
H970 H 0.61039 0.52997 0.31742 0.0
H971 H 0.55053 0.50645 0.40267 0.0
C972 C 0.57812 0.46838 0.40539 0.0
C973 C 0.60333 0.45309 0.39377 0.0
C974 C 0.59328 0.5432 0.32837 0.0
C975 C 0.58758 0.50695 0.36999 0.0
C976 C 0.58441 0.56864 0.31438 0.0
C977 C 0.56197 0.58623 0.32754 0.0
C978 C 0.57942 0.53484 0.3557 0.0
C979 C 0.54924 0.57763 0.35539 0.0
C980 C 0.57025 0.49525 0.39366 0.0
C981 C 0.62029 0.4659 0.37047 0.0
N982 N 0.55794 0.5524 0.36842 0.0
N983 N 0.61205 0.49188 0.35935 0.0
H984 H 0.32294 0.3344 0.16786 0.0
H985 H 0.46792 0.22949 0.15907 0.0
H986 H 0.40421 0.34963 0.11548 0.0
H987 H 0.39069 0.21146 0.21629 0.0
H988 H 0.44254 0.27247 0.14144 0.0
H989 H 0.34536 0.28897 0.18519 0.0
C990 C 0.34549 0.32829 0.16007 0.0
C991 C 0.36162 0.34587 0.13997 0.0
C992 C 0.43093 0.25923 0.15781 0.0
C993 C 0.38718 0.29387 0.15949 0.0
C994 C 0.44548 0.23454 0.16795 0.0
C995 C 0.43155 0.21687 0.18944 0.0
C996 C 0.40208 0.26669 0.1692 0.0
C997 C 0.40225 0.22448 0.1997 0.0
C998 C 0.35816 0.30228 0.16984 0.0
C999 C 0.39061 0.33667 0.13046 0.0
N1000 N 0.38851 0.24899 0.18962 0.0
N1001 N 0.40235 0.31143 0.14027 0.0
H1002 H 0.88907 0.33891 0.78378 0.0
H1003 H 0.91146 0.18455 0.85968 0.0
H1004 H 0.97372 0.30582 0.82057 0.0
H1005 H 0.82397 0.21629 0.82883 0.0
H1006 H 0.93424 0.22899 0.84398 0.0
H1007 H 0.86432 0.29454 0.79885 0.0
C1008 C 0.90243 0.32246 0.79509 0.0
C1009 C 0.93358 0.32623 0.80088 0.0
C1010 C 0.91004 0.22635 0.84059 0.0
C1011 C 0.90547 0.27539 0.81799 0.0
C1012 C 0.89695 0.20093 0.84973 0.0
C1013 C 0.86563 0.19662 0.84587 0.0
C1014 C 0.89184 0.24791 0.82736 0.0
C1015 C 0.84823 0.21853 0.8321 0.0
C1016 C 0.8883 0.29711 0.80362 0.0
C1017 C 0.94971 0.30405 0.81552 0.0
N1018 N 0.86153 0.24325 0.82344 0.0
N1019 N 0.93553 0.27974 0.82347 0.0
H1020 H 0.11603 0.66971 0.07407 0.0
H1021 H 0.93676 0.67507 0.03921 0.0
H1022 H 0.05473 0.60647 0.10825 0.0
H1023 H 0.9961 0.74664 0.02951 0.0
H1024 H 0.98027 0.64652 0.05818 0.0
H1025 H 0.07283 0.69496 0.05091 0.0
C1026 C 0.0935 0.66098 0.07647 0.0
C1027 C 0.08903 0.63595 0.09322 0.0
C1028 C 0.98367 0.66846 0.05179 0.0
C1029 C 0.03926 0.66493 0.06682 0.0
C1030 C 0.9589 0.68471 0.04086 0.0
C1031 C 0.96271 0.71335 0.03295 0.0
C1032 C 0.01246 0.68087 0.05438 0.0
C1033 C 0.99195 0.72474 0.03557 0.0
C1034 C 0.06879 0.67552 0.0634 0.0
C1035 C 0.05918 0.62587 0.09584 0.0
N1036 N 0.01559 0.70851 0.046 0.0
N1037 N 0.03543 0.64036 0.08277 0.0
H1038 H 0.61092 0.86462 0.36892 0.0
H1039 H 0.6251 0.71266 0.28734 0.0
H1040 H 0.69585 0.83285 0.33207 0.0
H1041 H 0.54362 0.74661 0.32949 0.0
H1042 H 0.65208 0.75581 0.30251 0.0
H1043 H 0.58646 0.82114 0.35334 0.0
C1044 C 0.62455 0.84841 0.3577 0.0
C1045 C 0.65565 0.85245 0.35214 0.0
C1046 C 0.62831 0.75367 0.30843 0.0
C1047 C 0.62743 0.80219 0.3337 0.0
C1048 C 0.61291 0.72901 0.29986 0.0
C1049 C 0.58195 0.72587 0.30706 0.0
C1050 C 0.61261 0.7753 0.32429 0.0
C1051 C 0.56738 0.7479 0.32324 0.0
C1052 C 0.61047 0.82352 0.34862 0.0
C1053 C 0.6718 0.8308 0.33673 0.0
N1054 N 0.58275 0.77149 0.33117 0.0
N1055 N 0.65754 0.80658 0.32814 0.0
H1056 H 0.57432 0.37307 0.53119 0.0
H1057 H 0.39834 0.37615 0.58017 0.0
H1058 H 0.51513 0.30089 0.52856 0.0
H1059 H 0.45902 0.44463 0.60043 0.0
H1060 H 0.44023 0.35069 0.55554 0.0
H1061 H 0.53168 0.40201 0.55114 0.0
C1062 C 0.5524 0.36337 0.53459 0.0
C1063 C 0.54839 0.33445 0.52844 0.0
C1064 C 0.44445 0.37133 0.56526 0.0
C1065 C 0.49971 0.3673 0.55106 0.0
C1066 C 0.42044 0.38598 0.57917 0.0
C1067 C 0.42513 0.41258 0.59242 0.0
C1068 C 0.47353 0.38331 0.56439 0.0
C1069 C 0.45446 0.42403 0.59081 0.0
C1070 C 0.52814 0.37984 0.54607 0.0
C1071 C 0.51946 0.323 0.53324 0.0
N1072 N 0.47757 0.40933 0.57706 0.0
N1073 N 0.49637 0.3394 0.54426 0.0
H1074 H 0.09914 0.68763 0.65168 0.0
H1075 H 0.12845 0.84504 0.71309 0.0
H1076 H 0.1896 0.71909 0.66671 0.0
H1077 H 0.04104 0.81282 0.68616 0.0
H1078 H 0.15196 0.7991 0.69908 0.0
H1079 H 0.07802 0.73319 0.66765 0.0
C1080 C 0.11463 0.70418 0.65824 0.0
C1081 C 0.14625 0.69951 0.65748 0.0
C1082 C 0.12765 0.80224 0.69627 0.0
C1083 C 0.12204 0.75211 0.67622 0.0
C1084 C 0.11423 0.82845 0.70421 0.0
C1085 C 0.08268 0.83293 0.70082 0.0
C1086 C 0.10933 0.78041 0.68503 0.0
C1087 C 0.06541 0.81057 0.68927 0.0
C1088 C 0.10252 0.73026 0.6675 0.0
C1089 C 0.16507 0.72166 0.66704 0.0
N1090 N 0.07891 0.78545 0.6819 0.0
N1091 N 0.1527 0.74706 0.67589 0.0
H1092 H 0.45076 0.86926 0.96877 0.0
H1093 H 0.60558 0.86897 0.87205 0.0
H1094 H 0.49696 0.79361 0.93644 0.0
H1095 H 0.56371 0.94551 0.90733 0.0
H1096 H 0.56539 0.84134 0.89551 0.0
H1097 H 0.49141 0.89788 0.94668 0.0
C1098 C 0.4694 0.85865 0.95708 0.0
C1099 C 0.47034 0.82894 0.95445 0.0
C1100 C 0.56493 0.86418 0.89819 0.0
C1101 C 0.51688 0.86157 0.92911 0.0
C1102 C 0.58782 0.88001 0.88461 0.0
C1103 C 0.58799 0.90966 0.88754 0.0
C1104 C 0.54181 0.878 0.91486 0.0
C1105 C 0.56465 0.92268 0.90465 0.0
C1106 C 0.49261 0.87501 0.9445 0.0
C1107 C 0.49514 0.8164 0.93909 0.0
N1108 N 0.54244 0.90679 0.91757 0.0
N1109 N 0.51729 0.83274 0.92701 0.0
H1110 H 0.91485 0.18178 0.37043 0.0
H1111 H 0.06927 0.18201 0.46833 0.0
H1112 H 0.95603 0.10531 0.40746 0.0
H1113 H 0.02328 0.2573 0.43402 0.0
H1114 H 0.0288 0.15313 0.44633 0.0
H1115 H 0.9552 0.20933 0.39342 0.0
C1116 C 0.93249 0.17071 0.38325 0.0
C1117 C 0.93204 0.14109 0.3868 0.0
C1118 C 0.02762 0.17598 0.44369 0.0
C1119 C 0.97848 0.17275 0.41367 0.0
C1120 C 0.05074 0.19249 0.45622 0.0
C1121 C 0.0498 0.22219 0.45304 0.0
C1122 C 1.00344 0.18926 0.4278 0.0
C1123 C 0.02512 0.23454 0.43714 0.0
C1124 C 0.9555 0.18652 0.39659 0.0
C1125 C 0.95528 0.1281 0.40428 0.0
N1126 N 1.00308 0.21807 0.42515 0.0
N1127 N 0.9776 0.14398 0.41697 0.0
loop_
_geom_bond_atom_site_label_1
_geom_bond_atom_site_label_2
_geom_bond_distance
_geom_bond_site_symmetry_2
_ccdc_geom_bond_type
Tb0 C10 2.825 . S
Tb0 O11 2.347 . S
Tb0 O14 2.366 . S
Tb0 O19 2.418 . S
Tb0 O20 2.384 . S
Tb0 O23 2.479 . S
Tb0 O24 2.471 . S
Eu1 O12 2.418 . S
Eu1 O13 2.384 . S
Eu1 O16 2.479 . S
Eu1 O17 2.471 . S
Eu1 O18 2.347 . S
Eu1 O21 2.366 . S
Eu1 C31 2.825 . S
C2 O18 1.259 . S
C2 O19 1.265 . S
C3 O20 1.255 . S
C3 O21 1.265 . S
C4 C6 1.380 . S
C4 C7 1.374 . S
C4 C10 1.507 . S
C5 C6 1.384 . S
C5 C9 1.387 . S
C5 H32 0.930 . S
C6 C4 1.380 . S
C6 C5 1.384 . S
C6 H33 0.931 . S
C7 C4 1.374 . S
C7 C8 1.390 . S
C7 H34 0.930 . S
C8 C7 1.390 . S
C8 C9 1.391 . S
C8 H35 0.930 . S
C9 C5 1.387 . S
C9 C8 1.391 . S
C10 Tb0 2.825 . S
C10 C4 1.507 . S
C10 O23 1.238 . S
C10 O24 1.247 . S
O11 Tb0 2.347 . S
O11 C15 1.259 . S
O12 Eu1 2.418 . S
O12 C15 1.265 . S
O13 Eu1 2.384 . S
O13 C22 1.255 . S
O14 Tb0 2.366 . S
O14 C22 1.265 . S
C15 O11 1.259 . S
C15 O12 1.265 . S
O16 Eu1 2.479 . S
O16 C31 1.238 . S
O17 Eu1 2.471 . S
O17 C31 1.247 . S
O18 Eu1 2.347 . S
O18 C2 1.259 . S
O19 Tb0 2.418 . S
O19 C2 1.265 . S
O20 Tb0 2.384 . S
O20 C3 1.255 . S
O21 Eu1 2.366 . S
O21 C3 1.265 . S
C22 O13 1.255 . S
C22 O14 1.265 . S
O23 Tb0 2.479 . S
O23 C10 1.238 . S
O24 Tb0 2.471 . S
O24 C10 1.247 . S
C25 C28 1.380 . S
C25 C29 1.374 . S
C25 C31 1.507 . S
C26 C27 1.387 . S
C26 C30 1.391 . S
C27 C26 1.387 . S
C27 C28 1.384 . S
C27 H36 0.930 . S
C28 C25 1.380 . S
C28 C27 1.384 . S
C28 H37 0.931 . S
C29 C25 1.374 . S
C29 C30 1.390 . S
C29 H38 0.930 . S
C30 C26 1.391 . S
C30 C29 1.390 . S
C30 H39 0.930 . S
C31 Eu1 2.825 . S
C31 O16 1.238 . S
C31 O17 1.247 . S
C31 C25 1.507 . S
H32 C5 0.930 . S
H33 C6 0.931 . S
H34 C7 0.930 . S
H35 C8 0.930 . S
H36 C27 0.930 . S
H37 C28 0.931 . S
H38 C29 0.930 . S
H39 C30 0.930 . S
Tb40 C50 2.825 . S
Tb40 O51 2.347 . S
Tb40 O54 2.366 1_655 S
Tb40 O59 2.418 1_655 S
Tb40 O60 2.384 . S
Tb40 O63 2.479 . S
Tb40 O64 2.471 . S
Eu41 O52 2.418 . S
Eu41 O53 2.384 . S
Eu41 O56 2.479 . S
Eu41 O57 2.471 . S
Eu41 O58 2.347 . S
Eu41 O61 2.366 . S
Eu41 C71 2.825 . S
C42 O58 1.259 . S
C42 O59 1.265 . S
C43 O60 1.255 1_455 S
C43 O61 1.265 . S
C44 C46 1.380 . S
C44 C47 1.374 . S
C44 C50 1.507 . S
C45 C46 1.384 . S
C45 C49 1.387 . S
C45 H72 0.930 . S
C46 C44 1.380 . S
C46 C45 1.384 . S
C46 H73 0.931 . S
C47 C44 1.374 . S
C47 C48 1.390 . S
C47 H74 0.930 . S
C48 C47 1.390 . S
C48 C49 1.391 . S
C48 H75 0.930 . S
C49 C45 1.387 . S
C49 C48 1.391 . S
C50 Tb40 2.825 . S
C50 C44 1.507 . S
C50 O63 1.238 . S
C50 O64 1.247 . S
O51 Tb40 2.347 . S
O51 C55 1.259 . S
O52 Eu41 2.418 . S
O52 C55 1.265 1_455 S
O53 Eu41 2.384 . S
O53 C62 1.255 . S
O54 Tb40 2.366 1_455 S
O54 C62 1.265 . S
C55 O51 1.259 . S
C55 O52 1.265 1_655 S
O56 Eu41 2.479 . S
O56 C71 1.238 . S
O57 Eu41 2.471 . S
O57 C71 1.247 . S
O58 Eu41 2.347 . S
O58 C42 1.259 . S
O59 Tb40 2.418 1_455 S
O59 C42 1.265 . S
O60 Tb40 2.384 . S
O60 C43 1.255 1_655 S
O61 Eu41 2.366 . S
O61 C43 1.265 . S
C62 O53 1.255 . S
C62 O54 1.265 . S
O63 Tb40 2.479 . S
O63 C50 1.238 . S
O64 Tb40 2.471 . S
O64 C50 1.247 . S
C65 C68 1.380 . S
C65 C69 1.374 . S
C65 C71 1.507 . S
C66 C67 1.387 . S
C66 C70 1.391 . S
C67 C66 1.387 . S
C67 C68 1.384 . S
C67 H76 0.930 . S
C68 C65 1.380 . S
C68 C67 1.384 . S
C68 H77 0.931 . S
C69 C65 1.374 . S
C69 C70 1.390 . S
C69 H78 0.930 . S
C70 C66 1.391 . S
C70 C69 1.390 . S
C70 H79 0.930 . S
C71 Eu41 2.825 . S
C71 O56 1.238 . S
C71 O57 1.247 . S
C71 C65 1.507 . S
H72 C45 0.930 . S
H73 C46 0.931 . S
H74 C47 0.930 . S
H75 C48 0.930 . S
H76 C67 0.930 . S
H77 C68 0.931 . S
H78 C69 0.930 . S
H79 C70 0.930 . S
Tb80 C90 2.825 . S
Tb80 O91 2.347 . S
Tb80 O94 2.366 1_554 S
Tb80 O99 2.418 1_554 S
Tb80 O100 2.384 . S
Tb80 O103 2.479 . S
Tb80 O104 2.471 . S
Eu81 O92 2.418 1_556 S
Eu81 O93 2.384 . S
Eu81 O96 2.479 . S
Eu81 O97 2.471 . S
Eu81 O98 2.347 . S
Eu81 O101 2.366 . S
Eu81 C111 2.825 . S
C82 O98 1.259 . S
C82 O99 1.265 . S
C83 O100 1.255 . S
C83 O101 1.265 1_554 S
C84 C86 1.380 . S
C84 C87 1.374 . S
C84 C90 1.507 . S
C85 C86 1.384 . S
C85 C89 1.387 . S
C85 H112 0.930 . S
C86 C84 1.380 . S
C86 C85 1.384 . S
C86 H113 0.931 . S
C87 C84 1.374 . S
C87 C88 1.390 . S
C87 H114 0.930 . S
C88 C87 1.390 . S
C88 C89 1.391 . S
C88 H115 0.930 . S
C89 C85 1.387 . S
C89 C88 1.391 . S
C90 Tb80 2.825 . S
C90 C84 1.507 . S
C90 O103 1.238 . S
C90 O104 1.247 . S
O91 Tb80 2.347 . S
O91 C95 1.259 . S
O92 Eu81 2.418 1_554 S
O92 C95 1.265 . S
O93 Eu81 2.384 . S
O93 C102 1.255 . S
O94 Tb80 2.366 1_556 S
O94 C102 1.265 . S
C95 O91 1.259 . S
C95 O92 1.265 . S
O96 Eu81 2.479 . S
O96 C111 1.238 . S
O97 Eu81 2.471 . S
O97 C111 1.247 . S
O98 Eu81 2.347 . S
O98 C82 1.259 . S
O99 Tb80 2.418 1_556 S
O99 C82 1.265 . S
O100 Tb80 2.384 . S
O100 C83 1.255 . S
O101 Eu81 2.366 . S
O101 C83 1.265 1_556 S
C102 O93 1.255 . S
C102 O94 1.265 . S
O103 Tb80 2.479 . S
O103 C90 1.238 . S
O104 Tb80 2.471 . S
O104 C90 1.247 . S
C105 C108 1.380 . S
C105 C109 1.374 . S
C105 C111 1.507 . S
C106 C107 1.387 . S
C106 C110 1.391 . S
C107 C106 1.387 . S
C107 C108 1.384 . S
C107 H116 0.930 . S
C108 C105 1.380 . S
C108 C107 1.384 . S
C108 H117 0.931 . S
C109 C105 1.374 . S
C109 C110 1.390 . S
C109 H118 0.930 . S
C110 C106 1.391 . S
C110 C109 1.390 . S
C110 H119 0.930 . S
C111 Eu81 2.825 . S
C111 O96 1.238 . S
C111 O97 1.247 . S
C111 C105 1.507 . S
H112 C85 0.930 . S
H113 C86 0.931 . S
H114 C87 0.930 . S
H115 C88 0.930 . S
H116 C107 0.930 . S
H117 C108 0.931 . S
H118 C109 0.930 . S
H119 C110 0.930 . S
Tb120 C130 2.825 . S
Tb120 O131 2.347 . S
Tb120 O134 2.366 . S
Tb120 O139 2.418 . S
Tb120 O140 2.384 . S
Tb120 O143 2.479 . S
Tb120 O144 2.471 . S
Eu121 O132 2.418 . S
Eu121 O133 2.384 . S
Eu121 O136 2.479 . S
Eu121 O137 2.471 . S
Eu121 O138 2.347 . S
Eu121 O141 2.366 . S
Eu121 C151 2.825 . S
C122 O138 1.259 . S
C122 O139 1.265 . S
C123 O140 1.255 . S
C123 O141 1.265 . S
C124 C126 1.380 . S
C124 C127 1.374 . S
C124 C130 1.507 . S
C125 C126 1.384 . S
C125 C129 1.387 . S
C125 H152 0.930 . S
C126 C124 1.380 . S
C126 C125 1.384 . S
C126 H153 0.931 . S
C127 C124 1.374 . S
C127 C128 1.390 . S
C127 H154 0.930 . S
C128 C127 1.390 . S
C128 C129 1.391 . S
C128 H155 0.930 . S
C129 C125 1.387 . S
C129 C128 1.391 . S
C130 Tb120 2.825 . S
C130 C124 1.507 . S
C130 O143 1.238 . S
C130 O144 1.247 . S
O131 Tb120 2.347 . S
O131 C135 1.259 . S
O132 Eu121 2.418 . S
O132 C135 1.265 . S
O133 Eu121 2.384 . S
O133 C142 1.255 . S
O134 Tb120 2.366 . S
O134 C142 1.265 . S
C135 O131 1.259 . S
C135 O132 1.265 . S
O136 Eu121 2.479 . S
O136 C151 1.238 . S
O137 Eu121 2.471 . S
O137 C151 1.247 . S
O138 Eu121 2.347 . S
O138 C122 1.259 . S
O139 Tb120 2.418 . S
O139 C122 1.265 . S
O140 Tb120 2.384 . S
O140 C123 1.255 . S
O141 Eu121 2.366 . S
O141 C123 1.265 . S
C142 O133 1.255 . S
C142 O134 1.265 . S
O143 Tb120 2.479 . S
O143 C130 1.238 . S
O144 Tb120 2.471 . S
O144 C130 1.247 . S
C145 C148 1.380 . S
C145 C149 1.374 . S
C145 C151 1.507 . S
C146 C147 1.387 . S
C146 C150 1.391 . S
C147 C146 1.387 . S
C147 C148 1.384 . S
C147 H156 0.930 . S
C148 C145 1.380 . S
C148 C147 1.384 . S
C148 H157 0.931 . S
C149 C145 1.374 . S
C149 C150 1.390 . S
C149 H158 0.930 . S
C150 C146 1.391 . S
C150 C149 1.390 . S
C150 H159 0.930 . S
C151 Eu121 2.825 . S
C151 O136 1.238 . S
C151 O137 1.247 . S
C151 C145 1.507 . S
H152 C125 0.930 . S
H153 C126 0.931 . S
H154 C127 0.930 . S
H155 C128 0.930 . S
H156 C147 0.930 . S
H157 C148 0.931 . S
H158 C149 0.930 . S
H159 C150 0.930 . S
Tb160 C170 2.825 . S
Tb160 O171 2.347 . S
Tb160 O174 2.366 . S
Tb160 O179 2.418 . S
Tb160 O180 2.384 . S
Tb160 O183 2.479 . S
Tb160 O184 2.471 . S
Eu161 O172 2.418 . S
Eu161 O173 2.384 . S
Eu161 O176 2.479 . S
Eu161 O177 2.471 . S
Eu161 O178 2.347 . S
Eu161 O181 2.366 . S
Eu161 C191 2.825 . S
C162 O178 1.259 . S
C162 O179 1.265 . S
C163 O180 1.255 . S
C163 O181 1.265 . S
C164 C166 1.380 . S
C164 C167 1.374 . S
C164 C170 1.507 . S
C165 C166 1.384 . S
C165 C169 1.387 . S
C165 H192 0.930 . S
C166 C164 1.380 . S
C166 C165 1.384 . S
C166 H193 0.931 . S
C167 C164 1.374 . S
C167 C168 1.390 . S
C167 H194 0.930 . S
C168 C167 1.390 . S
C168 C169 1.391 . S
C168 H195 0.930 . S
C169 C165 1.387 . S
C169 C168 1.391 . S
C170 Tb160 2.825 . S
C170 C164 1.507 . S
C170 O183 1.238 . S
C170 O184 1.247 . S
O171 Tb160 2.347 . S
O171 C175 1.259 . S
O172 Eu161 2.418 . S
O172 C175 1.265 . S
O173 Eu161 2.384 . S
O173 C182 1.255 . S
O174 Tb160 2.366 . S
O174 C182 1.265 . S
C175 O171 1.259 . S
C175 O172 1.265 . S
O176 Eu161 2.479 . S
O176 C191 1.238 . S
O177 Eu161 2.471 . S
O177 C191 1.247 . S
O178 Eu161 2.347 . S
O178 C162 1.259 . S
O179 Tb160 2.418 . S
O179 C162 1.265 . S
O180 Tb160 2.384 . S
O180 C163 1.255 . S
O181 Eu161 2.366 . S
O181 C163 1.265 . S
C182 O173 1.255 . S
C182 O174 1.265 . S
O183 Tb160 2.479 . S
O183 C170 1.238 . S
O184 Tb160 2.471 . S
O184 C170 1.247 . S
C185 C188 1.380 . S
C185 C189 1.374 . S
C185 C191 1.507 . S
C186 C187 1.387 . S
C186 C190 1.391 . S
C187 C186 1.387 . S
C187 C188 1.384 . S
C187 H196 0.930 . S
C188 C185 1.380 . S
C188 C187 1.384 . S
C188 H197 0.931 . S
C189 C185 1.374 . S
C189 C190 1.390 . S
C189 H198 0.930 . S
C190 C186 1.391 . S
C190 C189 1.390 . S
C190 H199 0.930 . S
C191 Eu161 2.825 . S
C191 O176 1.238 . S
C191 O177 1.247 . S
C191 C185 1.507 . S
H192 C165 0.930 . S
H193 C166 0.931 . S
H194 C167 0.930 . S
H195 C168 0.930 . S
H196 C187 0.930 . S
H197 C188 0.931 . S
H198 C189 0.930 . S
H199 C190 0.930 . S
Tb200 C210 2.825 . S
Tb200 O211 2.347 . S
Tb200 O214 2.366 . S
Tb200 O219 2.418 . S
Tb200 O220 2.384 . S
Tb200 O223 2.479 . S
Tb200 O224 2.471 . S
Eu201 O212 2.418 . S
Eu201 O213 2.384 1_455 S
Eu201 O216 2.479 . S
Eu201 O217 2.471 . S
Eu201 O218 2.347 1_455 S
Eu201 O221 2.366 . S
Eu201 C231 2.825 . S
C202 O218 1.259 . S
C202 O219 1.265 . S
C203 O220 1.255 1_455 S
C203 O221 1.265 . S
C204 C206 1.380 . S
C204 C207 1.374 . S
C204 C210 1.507 . S
C205 C206 1.384 . S
C205 C209 1.387 . S
C205 H232 0.930 . S
C206 C204 1.380 . S
C206 C205 1.384 . S
C206 H233 0.931 . S
C207 C204 1.374 . S
C207 C208 1.390 . S
C207 H234 0.930 . S
C208 C207 1.390 . S
C208 C209 1.391 . S
C208 H235 0.930 . S
C209 C205 1.387 . S
C209 C208 1.391 . S
C210 Tb200 2.825 . S
C210 C204 1.507 . S
C210 O223 1.238 . S
C210 O224 1.247 . S
O211 Tb200 2.347 . S
O211 C215 1.259 1_655 S
O212 Eu201 2.418 . S
O212 C215 1.265 . S
O213 Eu201 2.384 1_655 S
O213 C222 1.255 . S
O214 Tb200 2.366 . S
O214 C222 1.265 . S
C215 O211 1.259 1_455 S
C215 O212 1.265 . S
O216 Eu201 2.479 . S
O216 C231 1.238 . S
O217 Eu201 2.471 . S
O217 C231 1.247 . S
O218 Eu201 2.347 1_655 S
O218 C202 1.259 . S
O219 Tb200 2.418 . S
O219 C202 1.265 . S
O220 Tb200 2.384 . S
O220 C203 1.255 1_655 S
O221 Eu201 2.366 . S
O221 C203 1.265 . S
C222 O213 1.255 . S
C222 O214 1.265 . S
O223 Tb200 2.479 . S
O223 C210 1.238 . S
O224 Tb200 2.471 . S
O224 C210 1.247 . S
C225 C228 1.380 . S
C225 C229 1.374 . S
C225 C231 1.507 . S
C226 C227 1.387 . S
C226 C230 1.391 . S
C227 C226 1.387 . S
C227 C228 1.384 . S
C227 H236 0.930 . S
C228 C225 1.380 . S
C228 C227 1.384 . S
C228 H237 0.931 . S
C229 C225 1.374 . S
C229 C230 1.390 . S
C229 H238 0.930 . S
C230 C226 1.391 . S
C230 C229 1.390 . S
C230 H239 0.930 . S
C231 Eu201 2.825 . S
C231 O216 1.238 . S
C231 O217 1.247 . S
C231 C225 1.507 . S
H232 C205 0.930 . S
H233 C206 0.931 . S
H234 C207 0.930 . S
H235 C208 0.930 . S
H236 C227 0.930 . S
H237 C228 0.931 . S
H238 C229 0.930 . S
H239 C230 0.930 . S
Tb240 C250 2.825 . S
Tb240 O251 2.347 1_554 S
Tb240 O254 2.366 . S
Tb240 O259 2.418 . S
Tb240 O260 2.384 1_554 S
Tb240 O263 2.479 . S
Tb240 O264 2.471 . S
Eu241 O252 2.418 . S
Eu241 O253 2.384 1_556 S
Eu241 O256 2.479 . S
Eu241 O257 2.471 . S
Eu241 O258 2.347 1_556 S
Eu241 O261 2.366 . S
Eu241 C271 2.825 . S
C242 O258 1.259 . S
C242 O259 1.265 . S
C243 O260 1.255 . S
C243 O261 1.265 . S
C244 C246 1.380 . S
C244 C247 1.374 . S
C244 C250 1.507 . S
C245 C246 1.384 . S
C245 C249 1.387 . S
C245 H272 0.930 . S
C246 C244 1.380 . S
C246 C245 1.384 . S
C246 H273 0.931 . S
C247 C244 1.374 . S
C247 C248 1.390 . S
C247 H274 0.930 . S
C248 C247 1.390 . S
C248 C249 1.391 . S
C248 H275 0.930 . S
C249 C245 1.387 . S
C249 C248 1.391 . S
C250 Tb240 2.825 . S
C250 C244 1.507 . S
C250 O263 1.238 . S
C250 O264 1.247 . S
O251 Tb240 2.347 1_556 S
O251 C255 1.259 . S
O252 Eu241 2.418 . S
O252 C255 1.265 . S
O253 Eu241 2.384 1_554 S
O253 C262 1.255 . S
O254 Tb240 2.366 . S
O254 C262 1.265 . S
C255 O251 1.259 . S
C255 O252 1.265 . S
O256 Eu241 2.479 . S
O256 C271 1.238 . S
O257 Eu241 2.471 . S
O257 C271 1.247 . S
O258 Eu241 2.347 1_554 S
O258 C242 1.259 . S
O259 Tb240 2.418 . S
O259 C242 1.265 . S
O260 Tb240 2.384 1_556 S
O260 C243 1.255 . S
O261 Eu241 2.366 . S
O261 C243 1.265 . S
C262 O253 1.255 . S
C262 O254 1.265 . S
O263 Tb240 2.479 . S
O263 C250 1.238 . S
O264 Tb240 2.471 . S
O264 C250 1.247 . S
C265 C268 1.380 . S
C265 C269 1.374 . S
C265 C271 1.507 . S
C266 C267 1.387 . S
C266 C270 1.391 . S
C267 C266 1.387 . S
C267 C268 1.384 . S
C267 H276 0.930 . S
C268 C265 1.380 . S
C268 C267 1.384 . S
C268 H277 0.931 . S
C269 C265 1.374 . S
C269 C270 1.390 . S
C269 H278 0.930 . S
C270 C266 1.391 . S
C270 C269 1.390 . S
C270 H279 0.930 . S
C271 Eu241 2.825 . S
C271 O256 1.238 . S
C271 O257 1.247 . S
C271 C265 1.507 . S
H272 C245 0.930 . S
H273 C246 0.931 . S
H274 C247 0.930 . S
H275 C248 0.930 . S
H276 C267 0.930 . S
H277 C268 0.931 . S
H278 C269 0.930 . S
H279 C270 0.930 . S
Tb280 C290 2.825 . S
Tb280 O291 2.347 . S
Tb280 O294 2.366 . S
Tb280 O299 2.418 . S
Tb280 O300 2.384 . S
Tb280 O303 2.479 . S
Tb280 O304 2.471 . S
Eu281 O292 2.418 . S
Eu281 O293 2.384 . S
Eu281 O296 2.479 . S
Eu281 O297 2.471 . S
Eu281 O298 2.347 . S
Eu281 O301 2.366 . S
Eu281 C311 2.825 . S
C282 O298 1.259 . S
C282 O299 1.265 . S
C283 O300 1.255 . S
C283 O301 1.265 . S
C284 C286 1.380 . S
C284 C287 1.374 . S
C284 C290 1.507 . S
C285 C286 1.384 . S
C285 C289 1.387 . S
C285 H312 0.930 . S
C286 C284 1.380 . S
C286 C285 1.384 . S
C286 H313 0.931 . S
C287 C284 1.374 . S
C287 C288 1.390 . S
C287 H314 0.930 . S
C288 C287 1.390 . S
C288 C289 1.391 . S
C288 H315 0.930 . S
C289 C285 1.387 . S
C289 C288 1.391 . S
C290 Tb280 2.825 . S
C290 C284 1.507 . S
C290 O303 1.238 . S
C290 O304 1.247 . S
O291 Tb280 2.347 . S
O291 C295 1.259 . S
O292 Eu281 2.418 . S
O292 C295 1.265 . S
O293 Eu281 2.384 . S
O293 C302 1.255 . S
O294 Tb280 2.366 . S
O294 C302 1.265 . S
C295 O291 1.259 . S
C295 O292 1.265 . S
O296 Eu281 2.479 . S
O296 C311 1.238 . S
O297 Eu281 2.471 . S
O297 C311 1.247 . S
O298 Eu281 2.347 . S
O298 C282 1.259 . S
O299 Tb280 2.418 . S
O299 C282 1.265 . S
O300 Tb280 2.384 . S
O300 C283 1.255 . S
O301 Eu281 2.366 . S
O301 C283 1.265 . S
C302 O293 1.255 . S
C302 O294 1.265 . S
O303 Tb280 2.479 . S
O303 C290 1.238 . S
O304 Tb280 2.471 . S
O304 C290 1.247 . S
C305 C308 1.380 . S
C305 C309 1.374 . S
C305 C311 1.507 . S
C306 C307 1.387 . S
C306 C310 1.391 . S
C307 C306 1.387 . S
C307 C308 1.384 . S
C307 H316 0.930 . S
C308 C305 1.380 . S
C308 C307 1.384 . S
C308 H317 0.931 . S
C309 C305 1.374 . S
C309 C310 1.390 . S
C309 H318 0.930 . S
C310 C306 1.391 . S
C310 C309 1.390 . S
C310 H319 0.930 . S
C311 Eu281 2.825 . S
C311 O296 1.238 . S
C311 O297 1.247 . S
C311 C305 1.507 . S
H312 C285 0.930 . S
H313 C286 0.931 . S
H314 C287 0.930 . S
H315 C288 0.930 . S
H316 C307 0.930 . S
H317 C308 0.931 . S
H318 C309 0.930 . S
H319 C310 0.930 . S
Tb320 C330 2.825 . S
Tb320 O331 2.347 . S
Tb320 O334 2.366 . S
Tb320 O339 2.418 . S
Tb320 O340 2.384 . S
Tb320 O343 2.479 . S
Tb320 O344 2.471 . S
Eu321 O332 2.418 . S
Eu321 O333 2.384 . S
Eu321 O336 2.479 . S
Eu321 O337 2.471 . S
Eu321 O338 2.347 . S
Eu321 O341 2.366 . S
Eu321 C351 2.825 . S
C322 O338 1.259 . S
C322 O339 1.265 . S
C323 O340 1.255 . S
C323 O341 1.265 . S
C324 C326 1.380 . S
C324 C327 1.374 . S
C324 C330 1.507 . S
C325 C326 1.384 . S
C325 C329 1.387 . S
C325 H352 0.930 . S
C326 C324 1.380 . S
C326 C325 1.384 . S
C326 H353 0.931 . S
C327 C324 1.374 . S
C327 C328 1.390 . S
C327 H354 0.930 . S
C328 C327 1.390 . S
C328 C329 1.391 . S
C328 H355 0.930 . S
C329 C325 1.387 . S
C329 C328 1.391 . S
C330 Tb320 2.825 . S
C330 C324 1.507 . S
C330 O343 1.238 . S
C330 O344 1.247 . S
O331 Tb320 2.347 . S
O331 C335 1.259 . S
O332 Eu321 2.418 . S
O332 C335 1.265 . S
O333 Eu321 2.384 . S
O333 C342 1.255 . S
O334 Tb320 2.366 . S
O334 C342 1.265 . S
C335 O331 1.259 . S
C335 O332 1.265 . S
O336 Eu321 2.479 . S
O336 C351 1.238 . S
O337 Eu321 2.471 . S
O337 C351 1.247 . S
O338 Eu321 2.347 . S
O338 C322 1.259 . S
O339 Tb320 2.418 . S
O339 C322 1.265 . S
O340 Tb320 2.384 . S
O340 C323 1.255 . S
O341 Eu321 2.366 . S
O341 C323 1.265 . S
C342 O333 1.255 . S
C342 O334 1.265 . S
O343 Tb320 2.479 . S
O343 C330 1.238 . S
O344 Tb320 2.471 . S
O344 C330 1.247 . S
C345 C348 1.380 . S
C345 C349 1.374 . S
C345 C351 1.507 . S
C346 C347 1.387 . S
C346 C350 1.391 . S
C347 C346 1.387 . S
C347 C348 1.384 . S
C347 H356 0.930 . S
C348 C345 1.380 . S
C348 C347 1.384 . S
C348 H357 0.931 . S
C349 C345 1.374 . S
C349 C350 1.390 . S
C349 H358 0.930 . S
C350 C346 1.391 . S
C350 C349 1.390 . S
C350 H359 0.930 . S
C351 Eu321 2.825 . S
C351 O336 1.238 . S
C351 O337 1.247 . S
C351 C345 1.507 . S
H352 C325 0.930 . S
H353 C326 0.931 . S
H354 C327 0.930 . S
H355 C328 0.930 . S
H356 C347 0.930 . S
H357 C348 0.931 . S
H358 C349 0.930 . S
H359 C350 0.930 . S
Tb360 C370 2.825 . S
Tb360 O371 2.347 . S
Tb360 O374 2.366 . S
Tb360 O379 2.418 . S
Tb360 O380 2.384 1_545 S
Tb360 O383 2.479 . S
Tb360 O384 2.471 . S
Eu361 O372 2.418 . S
Eu361 O373 2.384 1_565 S
Eu361 O376 2.479 . S
Eu361 O377 2.471 . S
Eu361 O378 2.347 1_565 S
Eu361 O381 2.366 . S
Eu361 C391 2.825 . S
C362 O378 1.259 . S
C362 O379 1.265 . S
C363 O380 1.255 . S
C363 O381 1.265 . S
C364 C366 1.380 . S
C364 C367 1.374 . S
C364 C370 1.507 . S
C365 C366 1.384 . S
C365 C369 1.387 . S
C365 H392 0.930 . S
C366 C364 1.380 . S
C366 C365 1.384 . S
C366 H393 0.931 . S
C367 C364 1.374 . S
C367 C368 1.390 . S
C367 H394 0.930 . S
C368 C367 1.390 . S
C368 C369 1.391 . S
C368 H395 0.930 . S
C369 C365 1.387 . S
C369 C368 1.391 . S
C370 Tb360 2.825 . S
C370 C364 1.507 . S
C370 O383 1.238 . S
C370 O384 1.247 . S
O371 Tb360 2.347 . S
O371 C375 1.259 1_545 S
O372 Eu361 2.418 . S
O372 C375 1.265 . S
O373 Eu361 2.384 1_545 S
O373 C382 1.255 . S
O374 Tb360 2.366 . S
O374 C382 1.265 . S
C375 O371 1.259 1_565 S
C375 O372 1.265 . S
O376 Eu361 2.479 . S
O376 C391 1.238 . S
O377 Eu361 2.471 . S
O377 C391 1.247 . S
O378 Eu361 2.347 1_545 S
O378 C362 1.259 . S
O379 Tb360 2.418 . S
O379 C362 1.265 . S
O380 Tb360 2.384 1_565 S
O380 C363 1.255 . S
O381 Eu361 2.366 . S
O381 C363 1.265 . S
C382 O373 1.255 . S
C382 O374 1.265 . S
O383 Tb360 2.479 . S
O383 C370 1.238 . S
O384 Tb360 2.471 . S
O384 C370 1.247 . S
C385 C388 1.380 . S
C385 C389 1.374 . S
C385 C391 1.507 . S
C386 C387 1.387 . S
C386 C390 1.391 . S
C387 C386 1.387 . S
C387 C388 1.384 . S
C387 H396 0.930 . S
C388 C385 1.380 . S
C388 C387 1.384 . S
C388 H397 0.931 . S
C389 C385 1.374 . S
C389 C390 1.390 . S
C389 H398 0.930 . S
C390 C386 1.391 . S
C390 C389 1.390 . S
C390 H399 0.930 . S
C391 Eu361 2.825 . S
C391 O376 1.238 . S
C391 O377 1.247 . S
C391 C385 1.507 . S
H392 C365 0.930 . S
H393 C366 0.931 . S
H394 C367 0.930 . S
H395 C368 0.930 . S
H396 C387 0.930 . S
H397 C388 0.931 . S
H398 C389 0.930 . S
H399 C390 0.930 . S
Tb400 C410 2.825 . S
Tb400 O411 2.347 1_565 S
Tb400 O414 2.366 . S
Tb400 O419 2.418 . S
Tb400 O420 2.384 1_565 S
Tb400 O423 2.479 . S
Tb400 O424 2.471 . S
Eu401 O412 2.418 . S
Eu401 O413 2.384 1_545 S
Eu401 O416 2.479 . S
Eu401 O417 2.471 . S
Eu401 O418 2.347 1_545 S
Eu401 O421 2.366 . S
Eu401 C431 2.825 . S
C402 O418 1.259 . S
C402 O419 1.265 . S
C403 O420 1.255 . S
C403 O421 1.265 . S
C404 C406 1.380 . S
C404 C407 1.374 . S
C404 C410 1.507 . S
C405 C406 1.384 . S
C405 C409 1.387 . S
C405 H432 0.930 . S
C406 C404 1.380 . S
C406 C405 1.384 . S
C406 H433 0.931 . S
C407 C404 1.374 . S
C407 C408 1.390 . S
C407 H434 0.930 . S
C408 C407 1.390 . S
C408 C409 1.391 . S
C408 H435 0.930 . S
C409 C405 1.387 . S
C409 C408 1.391 . S
C410 Tb400 2.825 . S
C410 C404 1.507 . S
C410 O423 1.238 . S
C410 O424 1.247 . S
O411 Tb400 2.347 1_545 S
O411 C415 1.259 . S
O412 Eu401 2.418 . S
O412 C415 1.265 . S
O413 Eu401 2.384 1_565 S
O413 C422 1.255 . S
O414 Tb400 2.366 . S
O414 C422 1.265 . S
C415 O411 1.259 . S
C415 O412 1.265 . S
O416 Eu401 2.479 . S
O416 C431 1.238 . S
O417 Eu401 2.471 . S
O417 C431 1.247 . S
O418 Eu401 2.347 1_565 S
O418 C402 1.259 . S
O419 Tb400 2.418 . S
O419 C402 1.265 . S
O420 Tb400 2.384 1_545 S
O420 C403 1.255 . S
O421 Eu401 2.366 . S
O421 C403 1.265 . S
C422 O413 1.255 . S
C422 O414 1.265 . S
O423 Tb400 2.479 . S
O423 C410 1.238 . S
O424 Tb400 2.471 . S
O424 C410 1.247 . S
C425 C428 1.380 . S
C425 C429 1.374 . S
C425 C431 1.507 . S
C426 C427 1.387 . S
C426 C430 1.391 . S
C427 C426 1.387 . S
C427 C428 1.384 . S
C427 H436 0.930 . S
C428 C425 1.380 . S
C428 C427 1.384 . S
C428 H437 0.931 . S
C429 C425 1.374 . S
C429 C430 1.390 . S
C429 H438 0.930 . S
C430 C426 1.391 . S
C430 C429 1.390 . S
C430 H439 0.930 . S
C431 Eu401 2.825 . S
C431 O416 1.238 . S
C431 O417 1.247 . S
C431 C425 1.507 . S
H432 C405 0.930 . S
H433 C406 0.931 . S
H434 C407 0.930 . S
H435 C408 0.930 . S
H436 C427 0.930 . S
H437 C428 0.931 . S
H438 C429 0.930 . S
H439 C430 0.930 . S
Tb440 C450 2.825 . S
Tb440 O451 2.347 . S
Tb440 O454 2.366 . S
Tb440 O459 2.418 . S
Tb440 O460 2.384 . S
Tb440 O463 2.479 . S
Tb440 O464 2.471 . S
Eu441 O452 2.418 . S
Eu441 O453 2.384 . S
Eu441 O456 2.479 . S
Eu441 O457 2.471 . S
Eu441 O458 2.347 . S
Eu441 O461 2.366 . S
Eu441 C471 2.825 . S
C442 O458 1.259 . S
C442 O459 1.265 . S
C443 O460 1.255 . S
C443 O461 1.265 . S
C444 C446 1.380 . S
C444 C447 1.374 . S
C444 C450 1.507 . S
C445 C446 1.384 . S
C445 C449 1.387 . S
C445 H472 0.930 . S
C446 C444 1.380 . S
C446 C445 1.384 . S
C446 H473 0.931 . S
C447 C444 1.374 . S
C447 C448 1.390 . S
C447 H474 0.930 . S
C448 C447 1.390 . S
C448 C449 1.391 . S
C448 H475 0.930 . S
C449 C445 1.387 . S
C449 C448 1.391 . S
C450 Tb440 2.825 . S
C450 C444 1.507 . S
C450 O463 1.238 . S
C450 O464 1.247 . S
O451 Tb440 2.347 . S
O451 C455 1.259 . S
O452 Eu441 2.418 . S
O452 C455 1.265 . S
O453 Eu441 2.384 . S
O453 C462 1.255 . S
O454 Tb440 2.366 . S
O454 C462 1.265 . S
C455 O451 1.259 . S
C455 O452 1.265 . S
O456 Eu441 2.479 . S
O456 C471 1.238 . S
O457 Eu441 2.471 . S
O457 C471 1.247 . S
O458 Eu441 2.347 . S
O458 C442 1.259 . S
O459 Tb440 2.418 . S
O459 C442 1.265 . S
O460 Tb440 2.384 . S
O460 C443 1.255 . S
O461 Eu441 2.366 . S
O461 C443 1.265 . S
C462 O453 1.255 . S
C462 O454 1.265 . S
O463 Tb440 2.479 . S
O463 C450 1.238 . S
O464 Tb440 2.471 . S
O464 C450 1.247 . S
C465 C468 1.380 . S
C465 C469 1.374 . S
C465 C471 1.507 . S
C466 C467 1.387 . S
C466 C470 1.391 . S
C467 C466 1.387 . S
C467 C468 1.384 . S
C467 H476 0.930 . S
C468 C465 1.380 . S
C468 C467 1.384 . S
C468 H477 0.931 . S
C469 C465 1.374 . S
C469 C470 1.390 . S
C469 H478 0.930 . S
C470 C466 1.391 . S
C470 C469 1.390 . S
C470 H479 0.930 . S
C471 Eu441 2.825 . S
C471 O456 1.238 . S
C471 O457 1.247 . S
C471 C465 1.507 . S
H472 C445 0.930 . S
H473 C446 0.931 . S
H474 C447 0.930 . S
H475 C448 0.930 . S
H476 C467 0.930 . S
H477 C468 0.931 . S
H478 C469 0.930 . S
H479 C470 0.930 . S
H480 C486 0.930 . S
H481 C490 0.930 . S
H482 C495 0.929 . S
H483 C493 0.929 . S
H484 C488 0.929 . S
H485 C494 0.929 . S
C486 H480 0.930 . S
C486 C487 1.367 . S
C486 C494 1.378 . S
C487 C486 1.367 . S
C487 C495 1.433 . S
C488 H484 0.929 . S
C488 C490 1.378 . S
C488 C492 1.350 . S
C489 C492 1.463 . S
C489 C494 1.350 . S
C489 N497 1.427 . S
C490 H481 0.930 . S
C490 C488 1.378 . S
C490 C491 1.367 . S
C491 C490 1.367 . S
C491 C493 1.433 . S
C492 C488 1.350 . S
C492 C489 1.463 . S
C492 N496 1.427 . S
C493 H483 0.929 . S
C493 C491 1.433 . S
C493 N496 1.384 . S
C494 H485 0.929 . S
C494 C486 1.378 . S
C494 C489 1.350 . S
C495 H482 0.929 . S
C495 C487 1.433 . S
C495 N497 1.384 . S
N496 C492 1.427 . S
N496 C493 1.384 . S
N497 C489 1.427 . S
N497 C495 1.384 . S
H498 C504 0.930 . S
H499 C508 0.930 . S
H500 C513 0.929 . S
H501 C511 0.929 . S
H502 C506 0.929 . S
H503 C512 0.929 . S
C504 H498 0.930 . S
C504 C505 1.367 . S
C504 C512 1.378 . S
C505 C504 1.367 . S
C505 C513 1.433 . S
C506 H502 0.929 . S
C506 C508 1.378 . S
C506 C510 1.350 . S
C507 C510 1.463 . S
C507 C512 1.350 . S
C507 N515 1.427 . S
C508 H499 0.930 . S
C508 C506 1.378 . S
C508 C509 1.367 . S
C509 C508 1.367 . S
C509 C511 1.433 . S
C510 C506 1.350 . S
C510 C507 1.463 . S
C510 N514 1.427 . S
C511 H501 0.929 . S
C511 C509 1.433 . S
C511 N514 1.384 . S
C512 H503 0.929 . S
C512 C504 1.378 . S
C512 C507 1.350 . S
C513 H500 0.929 . S
C513 C505 1.433 . S
C513 N515 1.384 . S
N514 C510 1.427 . S
N514 C511 1.384 . S
N515 C507 1.427 . S
N515 C513 1.384 . S
H516 C522 0.930 . S
H517 C526 0.930 . S
H518 C531 0.929 . S
H519 C529 0.929 . S
H520 C524 0.929 . S
H521 C530 0.929 . S
C522 H516 0.930 . S
C522 C523 1.367 . S
C522 C530 1.378 . S
C523 C522 1.367 . S
C523 C531 1.433 . S
C524 H520 0.929 . S
C524 C526 1.378 . S
C524 C528 1.350 . S
C525 C528 1.463 . S
C525 C530 1.350 . S
C525 N533 1.427 . S
C526 H517 0.930 . S
C526 C524 1.378 . S
C526 C527 1.367 . S
C527 C526 1.367 . S
C527 C529 1.433 . S
C528 C524 1.350 . S
C528 C525 1.463 . S
C528 N532 1.427 . S
C529 H519 0.929 . S
C529 C527 1.433 . S
C529 N532 1.384 . S
C530 H521 0.929 . S
C530 C522 1.378 . S
C530 C525 1.350 . S
C531 H518 0.929 . S
C531 C523 1.433 . S
C531 N533 1.384 . S
N532 C528 1.427 . S
N532 C529 1.384 . S
N533 C525 1.427 . S
N533 C531 1.384 . S
H534 C540 0.930 . S
H535 C544 0.930 . S
H536 C549 0.929 . S
H537 C547 0.929 . S
H538 C542 0.929 . S
H539 C548 0.929 . S
C540 H534 0.930 . S
C540 C541 1.367 . S
C540 C548 1.378 . S
C541 C540 1.367 . S
C541 C549 1.433 . S
C542 H538 0.929 . S
C542 C544 1.378 . S
C542 C546 1.350 . S
C543 C546 1.463 . S
C543 C548 1.350 . S
C543 N551 1.427 . S
C544 H535 0.930 . S
C544 C542 1.378 . S
C544 C545 1.367 . S
C545 C544 1.367 . S
C545 C547 1.433 . S
C546 C542 1.350 . S
C546 C543 1.463 . S
C546 N550 1.427 . S
C547 H537 0.929 . S
C547 C545 1.433 . S
C547 N550 1.384 . S
C548 H539 0.929 . S
C548 C540 1.378 . S
C548 C543 1.350 . S
C549 H536 0.929 . S
C549 C541 1.433 . S
C549 N551 1.384 . S
N550 C546 1.427 . S
N550 C547 1.384 . S
N551 C543 1.427 . S
N551 C549 1.384 . S
H552 C558 0.930 . S
H553 C562 0.930 . S
H554 C567 0.929 . S
H555 C565 0.929 . S
H556 C560 0.929 . S
H557 C566 0.929 . S
C558 H552 0.930 . S
C558 C559 1.367 . S
C558 C566 1.378 . S
C559 C558 1.367 . S
C559 C567 1.433 . S
C560 H556 0.929 . S
C560 C562 1.378 . S
C560 C564 1.350 . S
C561 C564 1.463 . S
C561 C566 1.350 . S
C561 N569 1.427 . S
C562 H553 0.930 . S
C562 C560 1.378 . S
C562 C563 1.367 . S
C563 C562 1.367 . S
C563 C565 1.433 . S
C564 C560 1.350 . S
C564 C561 1.463 . S
C564 N568 1.427 . S
C565 H555 0.929 . S
C565 C563 1.433 . S
C565 N568 1.384 . S
C566 H557 0.929 . S
C566 C558 1.378 . S
C566 C561 1.350 . S
C567 H554 0.929 . S
C567 C559 1.433 . S
C567 N569 1.384 . S
N568 C564 1.427 . S
N568 C565 1.384 . S
N569 C561 1.427 . S
N569 C567 1.384 . S
H570 C576 0.930 . S
H571 C580 0.930 . S
H572 C585 0.929 . S
H573 C583 0.929 . S
H574 C578 0.929 . S
H575 C584 0.929 . S
C576 H570 0.930 . S
C576 C577 1.367 . S
C576 C584 1.378 . S
C577 C576 1.367 . S
C577 C585 1.433 . S
C578 H574 0.929 . S
C578 C580 1.378 . S
C578 C582 1.350 . S
C579 C582 1.463 . S
C579 C584 1.350 . S
C579 N587 1.427 . S
C580 H571 0.930 . S
C580 C578 1.378 . S
C580 C581 1.367 . S
C581 C580 1.367 . S
C581 C583 1.433 . S
C582 C578 1.350 . S
C582 C579 1.463 . S
C582 N586 1.427 . S
C583 H573 0.929 . S
C583 C581 1.433 . S
C583 N586 1.384 . S
C584 H575 0.929 . S
C584 C576 1.378 . S
C584 C579 1.350 . S
C585 H572 0.929 . S
C585 C577 1.433 . S
C585 N587 1.384 . S
N586 C582 1.427 . S
N586 C583 1.384 . S
N587 C579 1.427 . S
N587 C585 1.384 . S
H588 C594 0.930 . S
H589 C598 0.930 1_554 S
H590 C603 0.929 . S
H591 C601 0.929 . S
H592 C596 0.929 . S
H593 C602 0.929 . S
C594 H588 0.930 . S
C594 C595 1.367 . S
C594 C602 1.378 . S
C595 C594 1.367 . S
C595 C603 1.433 . S
C596 H592 0.929 . S
C596 C598 1.378 . S
C596 C600 1.350 . S
C597 C600 1.463 . S
C597 C602 1.350 . S
C597 N605 1.427 . S
C598 H589 0.930 1_556 S
C598 C596 1.378 . S
C598 C599 1.367 . S
C599 C598 1.367 . S
C599 C601 1.433 . S
C600 C596 1.350 . S
C600 C597 1.463 . S
C600 N604 1.427 . S
C601 H591 0.929 . S
C601 C599 1.433 . S
C601 N604 1.384 . S
C602 H593 0.929 . S
C602 C594 1.378 . S
C602 C597 1.350 . S
C603 H590 0.929 . S
C603 C595 1.433 . S
C603 N605 1.384 . S
N604 C600 1.427 . S
N604 C601 1.384 . S
N605 C597 1.427 . S
N605 C603 1.384 . S
H606 C612 0.930 . S
H607 C616 0.930 . S
H608 C621 0.929 . S
H609 C619 0.929 . S
H610 C614 0.929 . S
H611 C620 0.929 . S
C612 H606 0.930 . S
C612 C613 1.367 . S
C612 C620 1.378 . S
C613 C612 1.367 . S
C613 C621 1.433 . S
C614 H610 0.929 . S
C614 C616 1.378 . S
C614 C618 1.350 . S
C615 C618 1.463 . S
C615 C620 1.350 . S
C615 N623 1.427 . S
C616 H607 0.930 . S
C616 C614 1.378 . S
C616 C617 1.367 . S
C617 C616 1.367 . S
C617 C619 1.433 . S
C618 C614 1.350 . S
C618 C615 1.463 . S
C618 N622 1.427 . S
C619 H609 0.929 . S
C619 C617 1.433 . S
C619 N622 1.384 . S
C620 H611 0.929 . S
C620 C612 1.378 . S
C620 C615 1.350 . S
C621 H608 0.929 . S
C621 C613 1.433 . S
C621 N623 1.384 . S
N622 C618 1.427 . S
N622 C619 1.384 . S
N623 C615 1.427 . S
N623 C621 1.384 . S
H624 C630 0.930 . S
H625 C634 0.930 . S
H626 C639 0.929 . S
H627 C637 0.929 . S
H628 C632 0.929 . S
H629 C638 0.929 . S
C630 H624 0.930 . S
C630 C631 1.367 . S
C630 C638 1.378 . S
C631 C630 1.367 . S
C631 C639 1.433 . S
C632 H628 0.929 . S
C632 C634 1.378 . S
C632 C636 1.350 . S
C633 C636 1.463 . S
C633 C638 1.350 . S
C633 N641 1.427 . S
C634 H625 0.930 . S
C634 C632 1.378 . S
C634 C635 1.367 . S
C635 C634 1.367 . S
C635 C637 1.433 . S
C636 C632 1.350 . S
C636 C633 1.463 . S
C636 N640 1.427 . S
C637 H627 0.929 . S
C637 C635 1.433 . S
C637 N640 1.384 . S
C638 H629 0.929 . S
C638 C630 1.378 . S
C638 C633 1.350 . S
C639 H626 0.929 . S
C639 C631 1.433 . S
C639 N641 1.384 . S
N640 C636 1.427 . S
N640 C637 1.384 . S
N641 C633 1.427 . S
N641 C639 1.384 . S
H642 C648 0.930 . S
H643 C652 0.930 . S
H644 C657 0.929 . S
H645 C655 0.929 . S
H646 C650 0.929 . S
H647 C656 0.929 . S
C648 H642 0.930 . S
C648 C649 1.367 . S
C648 C656 1.378 . S
C649 C648 1.367 . S
C649 C657 1.433 . S
C650 H646 0.929 . S
C650 C652 1.378 . S
C650 C654 1.350 . S
C651 C654 1.463 . S
C651 C656 1.350 . S
C651 N659 1.427 . S
C652 H643 0.930 . S
C652 C650 1.378 . S
C652 C653 1.367 . S
C653 C652 1.367 . S
C653 C655 1.433 . S
C654 C650 1.350 . S
C654 C651 1.463 . S
C654 N658 1.427 . S
C655 H645 0.929 . S
C655 C653 1.433 . S
C655 N658 1.384 . S
C656 H647 0.929 . S
C656 C648 1.378 . S
C656 C651 1.350 . S
C657 H644 0.929 . S
C657 C649 1.433 . S
C657 N659 1.384 . S
N658 C654 1.427 . S
N658 C655 1.384 . S
N659 C651 1.427 . S
N659 C657 1.384 . S
H660 C666 0.930 . S
H661 C670 0.930 . S
H662 C675 0.929 1_455 S
H663 C673 0.929 . S
H664 C668 0.929 . S
H665 C674 0.929 . S
C666 H660 0.930 . S
C666 C667 1.367 . S
C666 C674 1.378 . S
C667 C666 1.367 . S
C667 C675 1.433 . S
C668 H664 0.929 . S
C668 C670 1.378 . S
C668 C672 1.350 . S
C669 C672 1.463 . S
C669 C674 1.350 . S
C669 N677 1.427 . S
C670 H661 0.930 . S
C670 C668 1.378 . S
C670 C671 1.367 . S
C671 C670 1.367 . S
C671 C673 1.433 . S
C672 C668 1.350 . S
C672 C669 1.463 . S
C672 N676 1.427 . S
C673 H663 0.929 . S
C673 C671 1.433 . S
C673 N676 1.384 . S
C674 H665 0.929 . S
C674 C666 1.378 . S
C674 C669 1.350 . S
C675 H662 0.929 1_655 S
C675 C667 1.433 . S
C675 N677 1.384 . S
N676 C672 1.427 . S
N676 C673 1.384 . S
N677 C669 1.427 . S
N677 C675 1.384 . S
H678 C684 0.930 . S
H679 C688 0.930 . S
H680 C693 0.929 . S
H681 C691 0.929 . S
H682 C686 0.929 . S
H683 C692 0.929 . S
C684 H678 0.930 . S
C684 C685 1.367 . S
C684 C692 1.378 . S
C685 C684 1.367 . S
C685 C693 1.433 . S
C686 H682 0.929 . S
C686 C688 1.378 . S
C686 C690 1.350 . S
C687 C690 1.463 . S
C687 C692 1.350 . S
C687 N695 1.427 . S
C688 H679 0.930 . S
C688 C686 1.378 . S
C688 C689 1.367 . S
C689 C688 1.367 . S
C689 C691 1.433 . S
C690 C686 1.350 . S
C690 C687 1.463 . S
C690 N694 1.427 . S
C691 H681 0.929 . S
C691 C689 1.433 . S
C691 N694 1.384 . S
C692 H683 0.929 . S
C692 C684 1.378 . S
C692 C687 1.350 . S
C693 H680 0.929 . S
C693 C685 1.433 . S
C693 N695 1.384 . S
N694 C690 1.427 . S
N694 C691 1.384 . S
N695 C687 1.427 . S
N695 C693 1.384 . S
H696 C702 0.930 . S
H697 C706 0.930 . S
H698 C711 0.929 . S
H699 C709 0.929 . S
H700 C704 0.929 . S
H701 C710 0.929 . S
C702 H696 0.930 . S
C702 C703 1.367 . S
C702 C710 1.378 . S
C703 C702 1.367 . S
C703 C711 1.433 . S
C704 H700 0.929 . S
C704 C706 1.378 . S
C704 C708 1.350 . S
C705 C708 1.463 . S
C705 C710 1.350 . S
C705 N713 1.427 . S
C706 H697 0.930 . S
C706 C704 1.378 . S
C706 C707 1.367 . S
C707 C706 1.367 . S
C707 C709 1.433 . S
C708 C704 1.350 . S
C708 C705 1.463 . S
C708 N712 1.427 . S
C709 H699 0.929 . S
C709 C707 1.433 . S
C709 N712 1.384 . S
C710 H701 0.929 . S
C710 C702 1.378 . S
C710 C705 1.350 . S
C711 H698 0.929 . S
C711 C703 1.433 . S
C711 N713 1.384 . S
N712 C708 1.427 . S
N712 C709 1.384 . S
N713 C705 1.427 . S
N713 C711 1.384 . S
H714 C720 0.930 . S
H715 C724 0.930 . S
H716 C729 0.929 . S
H717 C727 0.929 . S
H718 C722 0.929 . S
H719 C728 0.929 . S
C720 H714 0.930 . S
C720 C721 1.367 . S
C720 C728 1.378 . S
C721 C720 1.367 . S
C721 C729 1.433 . S
C722 H718 0.929 . S
C722 C724 1.378 . S
C722 C726 1.350 . S
C723 C726 1.463 . S
C723 C728 1.350 . S
C723 N731 1.427 . S
C724 H715 0.930 . S
C724 C722 1.378 . S
C724 C725 1.367 . S
C725 C724 1.367 . S
C725 C727 1.433 . S
C726 C722 1.350 . S
C726 C723 1.463 . S
C726 N730 1.427 . S
C727 H717 0.929 . S
C727 C725 1.433 . S
C727 N730 1.384 . S
C728 H719 0.929 . S
C728 C720 1.378 . S
C728 C723 1.350 . S
C729 H716 0.929 . S
C729 C721 1.433 . S
C729 N731 1.384 . S
N730 C726 1.427 . S
N730 C727 1.384 . S
N731 C723 1.427 . S
N731 C729 1.384 . S
H732 C738 0.930 . S
H733 C742 0.930 . S
H734 C747 0.929 . S
H735 C745 0.929 . S
H736 C740 0.929 . S
H737 C746 0.929 . S
C738 H732 0.930 . S
C738 C739 1.367 . S
C738 C746 1.378 . S
C739 C738 1.367 . S
C739 C747 1.433 . S
C740 H736 0.929 . S
C740 C742 1.378 . S
C740 C744 1.350 . S
C741 C744 1.463 . S
C741 C746 1.350 . S
C741 N749 1.427 . S
C742 H733 0.930 . S
C742 C740 1.378 . S
C742 C743 1.367 . S
C743 C742 1.367 . S
C743 C745 1.433 . S
C744 C740 1.350 . S
C744 C741 1.463 . S
C744 N748 1.427 . S
C745 H735 0.929 . S
C745 C743 1.433 . S
C745 N748 1.384 . S
C746 H737 0.929 . S
C746 C738 1.378 . S
C746 C741 1.350 . S
C747 H734 0.929 . S
C747 C739 1.433 . S
C747 N749 1.384 . S
N748 C744 1.427 . S
N748 C745 1.384 . S
N749 C741 1.427 . S
N749 C747 1.384 . S
H750 C756 0.930 . S
H751 C760 0.930 . S
H752 C765 0.929 . S
H753 C763 0.929 . S
H754 C758 0.929 . S
H755 C764 0.929 . S
C756 H750 0.930 . S
C756 C757 1.367 . S
C756 C764 1.378 . S
C757 C756 1.367 . S
C757 C765 1.433 . S
C758 H754 0.929 . S
C758 C760 1.378 . S
C758 C762 1.350 . S
C759 C762 1.439 1_554 S
C759 C764 1.366 . S
C759 N767 1.433 . S
C760 H751 0.930 . S
C760 C758 1.378 . S
C760 C761 1.367 . S
C761 C760 1.367 . S
C761 C763 1.433 . S
C762 C758 1.350 . S
C762 C759 1.439 1_556 S
C762 N766 1.427 . S
C763 H753 0.929 . S
C763 C761 1.433 . S
C763 N766 1.384 . S
C764 H755 0.929 . S
C764 C756 1.378 . S
C764 C759 1.366 . S
C765 H752 0.929 . S
C765 C757 1.433 . S
C765 N767 1.384 . S
N766 C762 1.427 . S
N766 C763 1.384 . S
N767 C759 1.433 . S
N767 C765 1.384 . S
H768 C774 0.930 . S
H769 C778 0.930 . S
H770 C783 0.929 . S
H771 C781 0.929 . S
H772 C776 0.929 . S
H773 C782 0.929 . S
C774 H768 0.930 . S
C774 C775 1.367 . S
C774 C782 1.378 . S
C775 C774 1.367 . S
C775 C783 1.433 . S
C776 H772 0.929 . S
C776 C778 1.378 . S
C776 C780 1.350 . S
C777 C780 1.463 . S
C777 C782 1.350 . S
C777 N785 1.427 . S
C778 H769 0.930 . S
C778 C776 1.378 . S
C778 C779 1.367 . S
C779 C778 1.367 . S
C779 C781 1.433 . S
C780 C776 1.350 . S
C780 C777 1.463 . S
C780 N784 1.427 . S
C781 H771 0.929 . S
C781 C779 1.433 . S
C781 N784 1.384 . S
C782 H773 0.929 . S
C782 C774 1.378 . S
C782 C777 1.350 . S
C783 H770 0.929 . S
C783 C775 1.433 . S
C783 N785 1.384 . S
N784 C780 1.427 . S
N784 C781 1.384 . S
N785 C777 1.427 . S
N785 C783 1.384 . S
H786 C792 0.930 . S
H787 C796 0.930 . S
H788 C801 0.929 . S
H789 C799 0.929 . S
H790 C794 0.929 . S
H791 C800 0.929 . S
C792 H786 0.930 . S
C792 C793 1.367 . S
C792 C800 1.378 1_554 S
C793 C792 1.367 . S
C793 C801 1.433 . S
C794 H790 0.929 . S
C794 C796 1.378 . S
C794 C798 1.350 . S
C795 C798 1.463 . S
C795 C800 1.350 . S
C795 N803 1.427 . S
C796 H787 0.930 . S
C796 C794 1.378 . S
C796 C797 1.367 . S
C797 C796 1.367 . S
C797 C799 1.433 . S
C798 C794 1.350 . S
C798 C795 1.463 . S
C798 N802 1.427 . S
C799 H789 0.929 . S
C799 C797 1.433 . S
C799 N802 1.384 . S
C800 H791 0.929 . S
C800 C792 1.378 1_556 S
C800 C795 1.350 . S
C801 H788 0.929 . S
C801 C793 1.433 . S
C801 N803 1.384 1_554 S
N802 C798 1.427 . S
N802 C799 1.384 . S
N803 C795 1.427 . S
N803 C801 1.384 1_556 S
H804 C810 0.930 . S
H805 C814 0.930 . S
H806 C819 0.929 . S
H807 C817 0.929 . S
H808 C812 0.929 . S
H809 C818 0.929 . S
C810 H804 0.930 . S
C810 C811 1.367 . S
C810 C818 1.378 . S
C811 C810 1.367 . S
C811 C819 1.433 . S
C812 H808 0.929 . S
C812 C814 1.378 . S
C812 C816 1.350 . S
C813 C816 1.463 . S
C813 C818 1.350 . S
C813 N821 1.427 . S
C814 H805 0.930 . S
C814 C812 1.378 . S
C814 C815 1.367 . S
C815 C814 1.367 . S
C815 C817 1.433 . S
C816 C812 1.350 . S
C816 C813 1.463 . S
C816 N820 1.427 . S
C817 H807 0.929 . S
C817 C815 1.433 . S
C817 N820 1.384 . S
C818 H809 0.929 . S
C818 C810 1.378 . S
C818 C813 1.350 . S
C819 H806 0.929 . S
C819 C811 1.433 . S
C819 N821 1.384 . S
N820 C816 1.427 . S
N820 C817 1.384 . S
N821 C813 1.427 . S
N821 C819 1.384 . S
H822 C828 0.930 . S
H823 C832 0.930 . S
H824 C837 0.929 . S
H825 C835 0.929 . S
H826 C830 0.929 . S
H827 C836 0.929 . S
C828 H822 0.930 . S
C828 C829 1.367 . S
C828 C836 1.378 . S
C829 C828 1.367 . S
C829 C837 1.433 . S
C830 H826 0.929 . S
C830 C832 1.378 . S
C830 C834 1.350 . S
C831 C834 1.463 . S
C831 C836 1.350 . S
C831 N839 1.427 . S
C832 H823 0.930 . S
C832 C830 1.378 . S
C832 C833 1.367 . S
C833 C832 1.367 . S
C833 C835 1.433 . S
C834 C830 1.350 . S
C834 C831 1.463 . S
C834 N838 1.427 . S
C835 H825 0.929 . S
C835 C833 1.433 . S
C835 N838 1.384 . S
C836 H827 0.929 . S
C836 C828 1.378 . S
C836 C831 1.350 . S
C837 H824 0.929 . S
C837 C829 1.433 . S
C837 N839 1.384 . S
N838 C834 1.427 . S
N838 C835 1.384 . S
N839 C831 1.427 . S
N839 C837 1.384 . S
H840 C846 0.930 . S
H841 C850 0.930 . S
H842 C855 0.929 . S
H843 C853 0.929 . S
H844 C848 0.929 . S
H845 C854 0.929 . S
C846 H840 0.930 . S
C846 C847 1.367 . S
C846 C854 1.378 . S
C847 C846 1.367 . S
C847 C855 1.433 . S
C848 H844 0.929 . S
C848 C850 1.378 . S
C848 C852 1.350 . S
C849 C852 1.463 . S
C849 C854 1.350 . S
C849 N857 1.427 . S
C850 H841 0.930 . S
C850 C848 1.378 . S
C850 C851 1.367 . S
C851 C850 1.367 . S
C851 C853 1.433 . S
C852 C848 1.350 . S
C852 C849 1.463 . S
C852 N856 1.427 . S
C853 H843 0.929 . S
C853 C851 1.433 . S
C853 N856 1.384 . S
C854 H845 0.929 . S
C854 C846 1.378 . S
C854 C849 1.350 . S
C855 H842 0.929 . S
C855 C847 1.433 . S
C855 N857 1.384 . S
N856 C852 1.427 . S
N856 C853 1.384 . S
N857 C849 1.427 . S
N857 C855 1.384 . S
H858 C864 0.930 . S
H859 C868 0.930 . S
H860 C873 0.929 . S
H861 C871 0.929 . S
H862 C866 0.929 . S
H863 C872 0.929 . S
C864 H858 0.930 . S
C864 C865 1.367 . S
C864 C872 1.378 . S
C865 C864 1.367 . S
C865 C873 1.433 . S
C866 H862 0.929 . S
C866 C868 1.378 1_545 S
C866 C870 1.350 . S
C867 C870 1.463 . S
C867 C872 1.350 . S
C867 N875 1.427 . S
C868 H859 0.930 . S
C868 C866 1.378 1_565 S
C868 C869 1.367 . S
C869 C868 1.367 . S
C869 C871 1.433 . S
C870 C866 1.350 . S
C870 C867 1.463 . S
C870 N874 1.427 1_545 S
C871 H861 0.929 . S
C871 C869 1.433 . S
C871 N874 1.384 . S
C872 H863 0.929 . S
C872 C864 1.378 . S
C872 C867 1.350 . S
C873 H860 0.929 . S
C873 C865 1.433 . S
C873 N875 1.384 . S
N874 C870 1.427 1_565 S
N874 C871 1.384 . S
N875 C867 1.427 . S
N875 C873 1.384 . S
H876 C882 0.930 . S
H877 C886 0.930 . S
H878 C891 0.929 . S
H879 C889 0.929 . S
H880 C884 0.929 . S
H881 C890 0.929 . S
C882 H876 0.930 . S
C882 C883 1.367 . S
C882 C890 1.378 . S
C883 C882 1.367 . S
C883 C891 1.433 . S
C884 H880 0.929 . S
C884 C886 1.378 . S
C884 C888 1.350 . S
C885 C888 1.463 . S
C885 C890 1.350 . S
C885 N893 1.427 . S
C886 H877 0.930 . S
C886 C884 1.378 . S
C886 C887 1.367 . S
C887 C886 1.367 . S
C887 C889 1.433 . S
C888 C884 1.350 . S
C888 C885 1.463 . S
C888 N892 1.427 . S
C889 H879 0.929 . S
C889 C887 1.433 . S
C889 N892 1.384 . S
C890 H881 0.929 . S
C890 C882 1.378 . S
C890 C885 1.350 . S
C891 H878 0.929 . S
C891 C883 1.433 . S
C891 N893 1.384 . S
N892 C888 1.427 . S
N892 C889 1.384 . S
N893 C885 1.427 . S
N893 C891 1.384 . S
H894 C900 0.930 . S
H895 C904 0.930 . S
H896 C909 0.929 . S
H897 C907 0.929 . S
H898 C902 0.929 1_545 S
H899 C908 0.929 . S
C900 H894 0.930 . S
C900 C901 1.367 . S
C900 C908 1.378 . S
C901 C900 1.367 . S
C901 C909 1.433 . S
C902 H898 0.929 1_565 S
C902 C904 1.378 . S
C902 C906 1.350 1_565 S
C903 C906 1.463 . S
C903 C908 1.350 . S
C903 N911 1.427 . S
C904 H895 0.930 . S
C904 C902 1.378 . S
C904 C905 1.367 . S
C905 C904 1.367 . S
C905 C907 1.433 . S
C906 C902 1.350 1_545 S
C906 C903 1.463 . S
C906 N910 1.427 1_545 S
C907 H897 0.929 . S
C907 C905 1.433 . S
C907 N910 1.384 . S
C908 H899 0.929 . S
C908 C900 1.378 . S
C908 C903 1.350 . S
C909 H896 0.929 . S
C909 C901 1.433 . S
C909 N911 1.384 . S
N910 C906 1.427 1_565 S
N910 C907 1.384 . S
N911 C903 1.427 . S
N911 C909 1.384 . S
H912 C918 0.930 . S
H913 C922 0.930 . S
H914 C927 0.929 . S
H915 C925 0.929 . S
H916 C920 0.929 . S
H917 C926 0.929 . S
C918 H912 0.930 . S
C918 C919 1.367 . S
C918 C926 1.378 . S
C919 C918 1.367 . S
C919 C927 1.433 . S
C920 H916 0.929 . S
C920 C922 1.378 . S
C920 C924 1.350 . S
C921 C924 1.463 . S
C921 C926 1.350 . S
C921 N929 1.427 . S
C922 H913 0.930 . S
C922 C920 1.378 . S
C922 C923 1.367 . S
C923 C922 1.367 . S
C923 C925 1.433 . S
C924 C920 1.350 . S
C924 C921 1.463 . S
C924 N928 1.427 . S
C925 H915 0.929 . S
C925 C923 1.433 . S
C925 N928 1.384 . S
C926 H917 0.929 . S
C926 C918 1.378 . S
C926 C921 1.350 . S
C927 H914 0.929 . S
C927 C919 1.433 . S
C927 N929 1.384 . S
N928 C924 1.427 . S
N928 C925 1.384 . S
N929 C921 1.427 . S
N929 C927 1.384 . S
H930 C936 0.930 . S
H931 C940 0.930 . S
H932 C945 0.929 . S
H933 C943 0.929 . S
H934 C938 0.929 . S
H935 C944 0.929 . S
C936 H930 0.930 . S
C936 C937 1.367 . S
C936 C944 1.378 . S
C937 C936 1.367 . S
C937 C945 1.433 . S
C938 H934 0.929 . S
C938 C940 1.378 . S
C938 C942 1.350 . S
C939 C942 1.463 . S
C939 C944 1.350 . S
C939 N947 1.427 . S
C940 H931 0.930 . S
C940 C938 1.378 . S
C940 C941 1.367 . S
C941 C940 1.367 . S
C941 C943 1.433 . S
C942 C938 1.350 . S
C942 C939 1.463 . S
C942 N946 1.427 . S
C943 H933 0.929 . S
C943 C941 1.433 . S
C943 N946 1.384 . S
C944 H935 0.929 . S
C944 C936 1.378 . S
C944 C939 1.350 . S
C945 H932 0.929 . S
C945 C937 1.433 . S
C945 N947 1.384 . S
N946 C942 1.427 . S
N946 C943 1.384 . S
N947 C939 1.427 . S
N947 C945 1.384 . S
H948 C954 0.930 . S
H949 C958 0.930 . S
H950 C963 0.929 . S
H951 C961 0.929 . S
H952 C956 0.929 . S
H953 C962 0.929 . S
C954 H948 0.930 . S
C954 C955 1.367 . S
C954 C962 1.378 . S
C955 C954 1.367 . S
C955 C963 1.433 . S
C956 H952 0.929 . S
C956 C958 1.378 . S
C956 C960 1.350 . S
C957 C960 1.463 . S
C957 C962 1.350 . S
C957 N965 1.427 . S
C958 H949 0.930 . S
C958 C956 1.378 . S
C958 C959 1.367 . S
C959 C958 1.367 . S
C959 C961 1.433 . S
C960 C956 1.350 . S
C960 C957 1.463 . S
C960 N964 1.427 . S
C961 H951 0.929 . S
C961 C959 1.433 . S
C961 N964 1.384 . S
C962 H953 0.929 . S
C962 C954 1.378 . S
C962 C957 1.350 . S
C963 H950 0.929 . S
C963 C955 1.433 . S
C963 N965 1.384 . S
N964 C960 1.427 . S
N964 C961 1.384 . S
N965 C957 1.427 . S
N965 C963 1.384 . S
H966 C972 0.930 . S
H967 C976 0.930 . S
H968 C981 0.929 . S
H969 C979 0.929 . S
H970 C974 0.929 . S
H971 C980 0.929 . S
C972 H966 0.930 . S
C972 C973 1.367 . S
C972 C980 1.378 . S
C973 C972 1.367 . S
C973 C981 1.433 . S
C974 H970 0.929 . S
C974 C976 1.378 . S
C974 C978 1.350 . S
C975 C978 1.463 . S
C975 C980 1.350 . S
C975 N983 1.427 . S
C976 H967 0.930 . S
C976 C974 1.378 . S
C976 C977 1.367 . S
C977 C976 1.367 . S
C977 C979 1.433 . S
C978 C974 1.350 . S
C978 C975 1.463 . S
C978 N982 1.427 . S
C979 H969 0.929 . S
C979 C977 1.433 . S
C979 N982 1.384 . S
C980 H971 0.929 . S
C980 C972 1.378 . S
C980 C975 1.350 . S
C981 H968 0.929 . S
C981 C973 1.433 . S
C981 N983 1.384 . S
N982 C978 1.427 . S
N982 C979 1.384 . S
N983 C975 1.427 . S
N983 C981 1.384 . S
H984 C990 0.930 . S
H985 C994 0.930 . S
H986 C999 0.929 . S
H987 C997 0.929 . S
H988 C992 0.929 . S
H989 C998 0.929 . S
C990 H984 0.930 . S
C990 C991 1.367 . S
C990 C998 1.378 . S
C991 C990 1.367 . S
C991 C999 1.433 . S
C992 H988 0.929 . S
C992 C994 1.378 . S
C992 C996 1.350 . S
C993 C996 1.463 . S
C993 C998 1.350 . S
C993 N1001 1.427 . S
C994 H985 0.930 . S
C994 C992 1.378 . S
C994 C995 1.367 . S
C995 C994 1.367 . S
C995 C997 1.433 . S
C996 C992 1.350 . S
C996 C993 1.463 . S
C996 N1000 1.427 . S
C997 H987 0.929 . S
C997 C995 1.433 . S
C997 N1000 1.384 . S
C998 H989 0.929 . S
C998 C990 1.378 . S
C998 C993 1.350 . S
C999 H986 0.929 . S
C999 C991 1.433 . S
C999 N1001 1.384 . S
N1000 C996 1.427 . S
N1000 C997 1.384 . S
N1001 C993 1.427 . S
N1001 C999 1.384 . S
H1002 C1008 0.930 . S
H1003 C1012 0.930 . S
H1004 C1017 0.929 . S
H1005 C1015 0.929 . S
H1006 C1010 0.929 . S
H1007 C1016 0.929 . S
C1008 H1002 0.930 . S
C1008 C1009 1.367 . S
C1008 C1016 1.378 . S
C1009 C1008 1.367 . S
C1009 C1017 1.433 . S
C1010 H1006 0.929 . S
C1010 C1012 1.378 . S
C1010 C1014 1.350 . S
C1011 C1014 1.463 . S
C1011 C1016 1.350 . S
C1011 N1019 1.427 . S
C1012 H1003 0.930 . S
C1012 C1010 1.378 . S
C1012 C1013 1.367 . S
C1013 C1012 1.367 . S
C1013 C1015 1.433 . S
C1014 C1010 1.350 . S
C1014 C1011 1.463 . S
C1014 N1018 1.427 . S
C1015 H1005 0.929 . S
C1015 C1013 1.433 . S
C1015 N1018 1.384 . S
C1016 H1007 0.929 . S
C1016 C1008 1.378 . S
C1016 C1011 1.350 . S
C1017 H1004 0.929 . S
C1017 C1009 1.433 . S
C1017 N1019 1.384 . S
N1018 C1014 1.427 . S
N1018 C1015 1.384 . S
N1019 C1011 1.427 . S
N1019 C1017 1.384 . S
H1020 C1026 0.930 . S
H1021 C1030 0.930 . S
H1022 C1035 0.929 . S
H1023 C1033 0.929 . S
H1024 C1028 0.929 . S
H1025 C1034 0.929 . S
C1026 H1020 0.930 . S
C1026 C1027 1.367 . S
C1026 C1034 1.378 . S
C1027 C1026 1.367 . S
C1027 C1035 1.433 . S
C1028 H1024 0.929 . S
C1028 C1030 1.378 . S
C1028 C1032 1.350 . S
C1029 C1032 1.463 1_455 S
C1029 C1034 1.350 . S
C1029 N1037 1.427 . S
C1030 H1021 0.930 . S
C1030 C1028 1.378 . S
C1030 C1031 1.367 . S
C1031 C1030 1.367 . S
C1031 C1033 1.433 . S
C1032 C1028 1.350 . S
C1032 C1029 1.463 1_655 S
C1032 N1036 1.427 . S
C1033 H1023 0.929 . S
C1033 C1031 1.433 . S
C1033 N1036 1.384 . S
C1034 H1025 0.929 . S
C1034 C1026 1.378 . S
C1034 C1029 1.350 . S
C1035 H1022 0.929 . S
C1035 C1027 1.433 . S
C1035 N1037 1.384 . S
N1036 C1032 1.427 . S
N1036 C1033 1.384 . S
N1037 C1029 1.427 . S
N1037 C1035 1.384 . S
H1038 C1044 0.930 . S
H1039 C1048 0.930 . S
H1040 C1053 0.929 . S
H1041 C1051 0.929 . S
H1042 C1046 0.929 . S
H1043 C1052 0.929 . S
C1044 H1038 0.930 . S
C1044 C1045 1.367 . S
C1044 C1052 1.378 . S
C1045 C1044 1.367 . S
C1045 C1053 1.433 . S
C1046 H1042 0.929 . S
C1046 C1048 1.378 . S
C1046 C1050 1.350 . S
C1047 C1050 1.463 . S
C1047 C1052 1.350 . S
C1047 N1055 1.427 . S
C1048 H1039 0.930 . S
C1048 C1046 1.378 . S
C1048 C1049 1.367 . S
C1049 C1048 1.367 . S
C1049 C1051 1.433 . S
C1050 C1046 1.350 . S
C1050 C1047 1.463 . S
C1050 N1054 1.427 . S
C1051 H1041 0.929 . S
C1051 C1049 1.433 . S
C1051 N1054 1.384 . S
C1052 H1043 0.929 . S
C1052 C1044 1.378 . S
C1052 C1047 1.350 . S
C1053 H1040 0.929 . S
C1053 C1045 1.433 . S
C1053 N1055 1.384 . S
N1054 C1050 1.427 . S
N1054 C1051 1.384 . S
N1055 C1047 1.427 . S
N1055 C1053 1.384 . S
H1056 C1062 0.930 . S
H1057 C1066 0.930 . S
H1058 C1071 0.929 . S
H1059 C1069 0.929 . S
H1060 C1064 0.929 . S
H1061 C1070 0.929 . S
C1062 H1056 0.930 . S
C1062 C1063 1.367 . S
C1062 C1070 1.378 . S
C1063 C1062 1.367 . S
C1063 C1071 1.433 . S
C1064 H1060 0.929 . S
C1064 C1066 1.378 . S
C1064 C1068 1.350 . S
C1065 C1068 1.463 . S
C1065 C1070 1.350 . S
C1065 N1073 1.427 . S
C1066 H1057 0.930 . S
C1066 C1064 1.378 . S
C1066 C1067 1.367 . S
C1067 C1066 1.367 . S
C1067 C1069 1.433 . S
C1068 C1064 1.350 . S
C1068 C1065 1.463 . S
C1068 N1072 1.427 . S
C1069 H1059 0.929 . S
C1069 C1067 1.433 . S
C1069 N1072 1.384 . S
C1070 H1061 0.929 . S
C1070 C1062 1.378 . S
C1070 C1065 1.350 . S
C1071 H1058 0.929 . S
C1071 C1063 1.433 . S
C1071 N1073 1.384 . S
N1072 C1068 1.427 . S
N1072 C1069 1.384 . S
N1073 C1065 1.427 . S
N1073 C1071 1.384 . S
H1074 C1080 0.930 . S
H1075 C1084 0.930 . S
H1076 C1089 0.929 . S
H1077 C1087 0.929 . S
H1078 C1082 0.929 . S
H1079 C1088 0.929 . S
C1080 H1074 0.930 . S
C1080 C1081 1.367 . S
C1080 C1088 1.378 . S
C1081 C1080 1.367 . S
C1081 C1089 1.433 . S
C1082 H1078 0.929 . S
C1082 C1084 1.378 . S
C1082 C1086 1.350 . S
C1083 C1086 1.463 . S
C1083 C1088 1.350 . S
C1083 N1091 1.427 . S
C1084 H1075 0.930 . S
C1084 C1082 1.378 . S
C1084 C1085 1.367 . S
C1085 C1084 1.367 . S
C1085 C1087 1.433 . S
C1086 C1082 1.350 . S
C1086 C1083 1.463 . S
C1086 N1090 1.427 . S
C1087 H1077 0.929 . S
C1087 C1085 1.433 . S
C1087 N1090 1.384 . S
C1088 H1079 0.929 . S
C1088 C1080 1.378 . S
C1088 C1083 1.350 . S
C1089 H1076 0.929 . S
C1089 C1081 1.433 . S
C1089 N1091 1.384 . S
N1090 C1086 1.427 . S
N1090 C1087 1.384 . S
N1091 C1083 1.427 . S
N1091 C1089 1.384 . S
H1092 C1098 0.930 . S
H1093 C1102 0.930 . S
H1094 C1107 0.929 . S
H1095 C1105 0.929 . S
H1096 C1100 0.929 . S
H1097 C1106 0.929 . S
C1098 H1092 0.930 . S
C1098 C1099 1.367 . S
C1098 C1106 1.378 . S
C1099 C1098 1.367 . S
C1099 C1107 1.433 . S
C1100 H1096 0.929 . S
C1100 C1102 1.378 . S
C1100 C1104 1.350 . S
C1101 C1104 1.463 . S
C1101 C1106 1.350 . S
C1101 N1109 1.427 . S
C1102 H1093 0.930 . S
C1102 C1100 1.378 . S
C1102 C1103 1.367 . S
C1103 C1102 1.367 . S
C1103 C1105 1.433 . S
C1104 C1100 1.350 . S
C1104 C1101 1.463 . S
C1104 N1108 1.427 . S
C1105 H1095 0.929 . S
C1105 C1103 1.433 . S
C1105 N1108 1.384 . S
C1106 H1097 0.929 . S
C1106 C1098 1.378 . S
C1106 C1101 1.350 . S
C1107 H1094 0.929 . S
C1107 C1099 1.433 . S
C1107 N1109 1.384 . S
N1108 C1104 1.427 . S
N1108 C1105 1.384 . S
N1109 C1101 1.427 . S
N1109 C1107 1.384 . S
H1110 C1116 0.930 . S
H1111 C1120 0.930 . S
H1112 C1125 0.929 . S
H1113 C1123 0.929 . S
H1114 C1118 0.929 . S
H1115 C1124 0.929 . S
C1116 H1110 0.930 . S
C1116 C1117 1.367 . S
C1116 C1124 1.378 . S
C1117 C1116 1.367 . S
C1117 C1125 1.433 . S
C1118 H1114 0.929 . S
C1118 C1120 1.378 . S
C1118 C1122 1.350 . S
C1119 C1122 1.463 1_655 S
C1119 C1124 1.350 . S
C1119 N1127 1.427 . S
C1120 H1111 0.930 . S
C1120 C1118 1.378 . S
C1120 C1121 1.367 . S
C1121 C1120 1.367 . S
C1121 C1123 1.433 . S
C1122 C1118 1.350 . S
C1122 C1119 1.463 1_455 S
C1122 N1126 1.427 . S
C1123 H1113 0.929 . S
C1123 C1121 1.433 . S
C1123 N1126 1.384 . S
C1124 H1115 0.929 . S
C1124 C1116 1.378 . S
C1124 C1119 1.350 . S
C1125 H1112 0.929 . S
C1125 C1117 1.433 . S
C1125 N1127 1.384 . S
N1126 C1122 1.427 . S
N1126 C1123 1.384 . S
N1127 C1119 1.427 . S
N1127 C1125 1.384 . S
C487 C3 1.597 . S
C491 C443 1.592 . S
C505 C375 1.693 . S
C509 C55 1.700 . S
C523 C83 1.569 . S
C527 C335 1.610 . S
C541 C135 1.726 . S
C545 C415 1.715 . S
C559 C163 1.989 . S
C563 C403 1.978 . S
C577 C203 1.443 . S
C581 C455 1.471 . S
C595 C363 2.014 . S
C599 C255 2.037 . S
C613 C283 1.592 . S
C617 C323 1.587 . S
C631 C123 1.403 . S
C635 C175 1.432 . S
C649 C15 1.506 . S
C653 C215 1.511 . S
C667 C43 1.778 1_655 S
C671 C243 1.770 . S
C685 C295 1.708 . S
C689 C95 1.704 . S
C703 C26 1.742 . S
C707 C322 1.713 . S
C721 C49 0.901 . S
C725 C402 0.877 . S
C739 C462 2.339 . S
C743 C106 2.265 . S
C757 C129 1.409 . S
C761 C362 1.337 . S
C775 C186 1.514 . S
C779 C382 1.554 . S
C793 C342 2.086 . S
C797 C226 2.006 . S
C811 C422 1.590 . S
C815 C249 1.598 . S
C829 C442 1.145 . S
C833 C306 1.154 . S
C847 C2 1.976 . S
C851 C146 1.964 . S
C865 C9 2.020 . S
C869 C62 1.986 . S
C883 C66 1.650 . S
C887 C82 1.652 . S
C901 C142 2.028 . S
C905 C89 2.075 . S
C919 C209 0.949 . S
C923 C162 0.910 . S
C937 C202 1.457 . S
C941 C266 1.467 . S
C955 C262 1.033 . S
C959 C289 1.038 . S
C973 C169 1.481 . S
C977 C282 1.404 . S
C991 C346 2.022 . S
C995 C122 2.029 . S
C1009 C222 2.280 . S
C1013 C369 2.320 . S
C1027 C329 1.442 . S
C1031 C242 1.385 . S
C1045 C409 1.566 . S
C1049 C302 1.550 . S
C1063 C182 1.951 . S
C1067 C466 1.881 . S
C1081 C449 1.204 . S
C1085 C42 1.156 . S
C1099 C102 1.951 . S
C1103 C386 1.908 . S
C1117 C426 1.717 . S
C1121 C22 1.749 . S
