# Generated by pormake.
# Topology sou, (8)-cn, num edge types: 1
# Building blocks:
#     Node 0, Type 0, BuildingBlock: TAGTUT_clean_sbu_1, # of connection points: 8
#     Node 1, Type 0, BuildingBlock: TAGTUT_clean_sbu_1, # of connection points: 8
#     Node 2, Type 0, BuildingBlock: TAGTUT_clean_sbu_1, # of connection points: 8
#     Node 3, Type 0, BuildingBlock: TAGTUT_clean_sbu_1, # of connection points: 8
#     Node 4, Type 0, BuildingBlock: TAGTUT_clean_sbu_1, # of connection points: 8
#     Node 5, Type 0, BuildingBlock: TAGTUT_clean_sbu_1, # of connection points: 8
#     Node 6, Type 0, BuildingBlock: TAGTUT_clean_sbu_1, # of connection points: 8
#     Node 7, Type 0, BuildingBlock: TAGTUT_clean_sbu_1, # of connection points: 8
#     Node 8, Type 0, BuildingBlock: TAGTUT_clean_sbu_1, # of connection points: 8
#     Node 9, Type 0, BuildingBlock: TAGTUT_clean_sbu_1, # of connection points: 8
#     Node 10, Type 0, BuildingBlock: TAGTUT_clean_sbu_1, # of connection points: 8
#     Node 11, Type 0, BuildingBlock: TAGTUT_clean_sbu_1, # of connection points: 8
#     Node 12, Type 0, BuildingBlock: TAGTUT_clean_sbu_1, # of connection points: 8
#     Node 13, Type 0, BuildingBlock: TAGTUT_clean_sbu_1, # of connection points: 8
#     Node 14, Type 0, BuildingBlock: TAGTUT_clean_sbu_1, # of connection points: 8
#     Node 15, Type 0, BuildingBlock: TAGTUT_clean_sbu_1, # of connection points: 8
#     Node 16, Type 0, BuildingBlock: TAGTUT_clean_sbu_1, # of connection points: 8
#     Node 17, Type 0, BuildingBlock: TAGTUT_clean_sbu_1, # of connection points: 8
#     Node 18, Type 0, BuildingBlock: TAGTUT_clean_sbu_1, # of connection points: 8
#     Node 19, Type 0, BuildingBlock: TAGTUT_clean_sbu_1, # of connection points: 8
#     Node 20, Type 0, BuildingBlock: TAGTUT_clean_sbu_1, # of connection points: 8
#     Node 21, Type 0, BuildingBlock: TAGTUT_clean_sbu_1, # of connection points: 8
#     Node 22, Type 0, BuildingBlock: TAGTUT_clean_sbu_1, # of connection points: 8
#     Node 23, Type 0, BuildingBlock: TAGTUT_clean_sbu_1, # of connection points: 8
#     Node 24, Type 0, BuildingBlock: TAGTUT_clean_sbu_1, # of connection points: 8
#     Node 25, Type 0, BuildingBlock: TAGTUT_clean_sbu_1, # of connection points: 8
#     Node 26, Type 0, BuildingBlock: TAGTUT_clean_sbu_1, # of connection points: 8
#     Node 27, Type 0, BuildingBlock: TAGTUT_clean_sbu_1, # of connection points: 8
#     Node 28, Type 0, BuildingBlock: TAGTUT_clean_sbu_1, # of connection points: 8
#     Node 29, Type 0, BuildingBlock: TAGTUT_clean_sbu_1, # of connection points: 8
#     Node 30, Type 0, BuildingBlock: TAGTUT_clean_sbu_1, # of connection points: 8
#     Node 31, Type 0, BuildingBlock: TAGTUT_clean_sbu_1, # of connection points: 8
#     Edge 32, Type (0, 0), None
#     Edge 33, Type (0, 0), None
#     Edge 34, Type (0, 0), None
#     Edge 35, Type (0, 0), None
#     Edge 36, Type (0, 0), None
#     Edge 37, Type (0, 0), None
#     Edge 38, Type (0, 0), None
#     Edge 39, Type (0, 0), None
#     Edge 40, Type (0, 0), None
#     Edge 41, Type (0, 0), None
#     Edge 42, Type (0, 0), None
#     Edge 43, Type (0, 0), None
#     Edge 44, Type (0, 0), None
#     Edge 45, Type (0, 0), None
#     Edge 46, Type (0, 0), None
#     Edge 47, Type (0, 0), None
#     Edge 48, Type (0, 0), None
#     Edge 49, Type (0, 0), None
#     Edge 50, Type (0, 0), None
#     Edge 51, Type (0, 0), None
#     Edge 52, Type (0, 0), None
#     Edge 53, Type (0, 0), None
#     Edge 54, Type (0, 0), None
#     Edge 55, Type (0, 0), None
#     Edge 56, Type (0, 0), None
#     Edge 57, Type (0, 0), None
#     Edge 58, Type (0, 0), None
#     Edge 59, Type (0, 0), None
#     Edge 60, Type (0, 0), None
#     Edge 61, Type (0, 0), None
#     Edge 62, Type (0, 0), None
#     Edge 63, Type (0, 0), None
#     Edge 64, Type (0, 0), None
#     Edge 65, Type (0, 0), None
#     Edge 66, Type (0, 0), None
#     Edge 67, Type (0, 0), None
#     Edge 68, Type (0, 0), None
#     Edge 69, Type (0, 0), None
#     Edge 70, Type (0, 0), None
#     Edge 71, Type (0, 0), None
#     Edge 72, Type (0, 0), None
#     Edge 73, Type (0, 0), None
#     Edge 74, Type (0, 0), None
#     Edge 75, Type (0, 0), None
#     Edge 76, Type (0, 0), None
#     Edge 77, Type (0, 0), None
#     Edge 78, Type (0, 0), None
#     Edge 79, Type (0, 0), None
#     Edge 80, Type (0, 0), None
#     Edge 81, Type (0, 0), None
#     Edge 82, Type (0, 0), None
#     Edge 83, Type (0, 0), None
#     Edge 84, Type (0, 0), None
#     Edge 85, Type (0, 0), None
#     Edge 86, Type (0, 0), None
#     Edge 87, Type (0, 0), None
#     Edge 88, Type (0, 0), None
#     Edge 89, Type (0, 0), None
#     Edge 90, Type (0, 0), None
#     Edge 91, Type (0, 0), None
#     Edge 92, Type (0, 0), None
#     Edge 93, Type (0, 0), None
#     Edge 94, Type (0, 0), None
#     Edge 95, Type (0, 0), None
#     Edge 96, Type (0, 0), None
#     Edge 97, Type (0, 0), None
#     Edge 98, Type (0, 0), None
#     Edge 99, Type (0, 0), None
#     Edge 100, Type (0, 0), None
#     Edge 101, Type (0, 0), None
#     Edge 102, Type (0, 0), None
#     Edge 103, Type (0, 0), None
#     Edge 104, Type (0, 0), None
#     Edge 105, Type (0, 0), None
#     Edge 106, Type (0, 0), None
#     Edge 107, Type (0, 0), None
#     Edge 108, Type (0, 0), None
#     Edge 109, Type (0, 0), None
#     Edge 110, Type (0, 0), None
#     Edge 111, Type (0, 0), None
#     Edge 112, Type (0, 0), None
#     Edge 113, Type (0, 0), None
#     Edge 114, Type (0, 0), None
#     Edge 115, Type (0, 0), None
#     Edge 116, Type (0, 0), None
#     Edge 117, Type (0, 0), None
#     Edge 118, Type (0, 0), None
#     Edge 119, Type (0, 0), None
#     Edge 120, Type (0, 0), None
#     Edge 121, Type (0, 0), None
#     Edge 122, Type (0, 0), None
#     Edge 123, Type (0, 0), None
#     Edge 124, Type (0, 0), None
#     Edge 125, Type (0, 0), None
#     Edge 126, Type (0, 0), None
#     Edge 127, Type (0, 0), None
#     Edge 128, Type (0, 0), None
#     Edge 129, Type (0, 0), None
#     Edge 130, Type (0, 0), None
#     Edge 131, Type (0, 0), None
#     Edge 132, Type (0, 0), None
#     Edge 133, Type (0, 0), None
#     Edge 134, Type (0, 0), None
#     Edge 135, Type (0, 0), None
#     Edge 136, Type (0, 0), None
#     Edge 137, Type (0, 0), None
#     Edge 138, Type (0, 0), None
#     Edge 139, Type (0, 0), None
#     Edge 140, Type (0, 0), None
#     Edge 141, Type (0, 0), None
#     Edge 142, Type (0, 0), None
#     Edge 143, Type (0, 0), None
#     Edge 144, Type (0, 0), None
#     Edge 145, Type (0, 0), None
#     Edge 146, Type (0, 0), None
#     Edge 147, Type (0, 0), None
#     Edge 148, Type (0, 0), None
#     Edge 149, Type (0, 0), None
#     Edge 150, Type (0, 0), None
#     Edge 151, Type (0, 0), None
#     Edge 152, Type (0, 0), None
#     Edge 153, Type (0, 0), None
#     Edge 154, Type (0, 0), None
#     Edge 155, Type (0, 0), None
#     Edge 156, Type (0, 0), None
#     Edge 157, Type (0, 0), None
#     Edge 158, Type (0, 0), None
#     Edge 159, Type (0, 0), None
# Relax obj value: 0.466
# Max RMSD: 0.243
# Mean RMSD: 0.243
data_MOF--net-sou--node1-TAGTUT_clean_sbu_1--edge1-none
_symmetry_space_group_name_H-M    P1
_symmetry_Int_Tables_number       1
_symmetry_cell_setting            triclinic
loop_
_symmetry_equiv_pos_as_xyz
'x, y, z'
_cell_length_a     30.410232
_cell_length_b     17.246377
_cell_length_c     26.410159
_cell_angle_alpha  90.590844
_cell_angle_beta   90.029162
_cell_angle_gamma 90.121237
loop_
_atom_site_label
_atom_site_type_symbol
_atom_site_fract_x
_atom_site_fract_y
_atom_site_fract_z
_atom_type_partial_charge
C0 C 0.13358 0.38771 0.03205 0.0
C1 C 0.04619 0.252 0.04549 0.0
C2 C 0.03729 0.27374 0.83854 0.0
Mg3 Mg 0.0794 0.41895 0.01882 0.0
O4 O 0.06144 0.4073 -0.05118 0.0
Mg5 Mg 0.09287 0.2949 -0.05799 0.0
Mg6 Mg 0.01149 0.35736 -0.05172 0.0
O7 O 0.95894 0.31735 -0.05035 0.0
Mg8 Mg 0.97638 0.38055 0.88589 0.0
Mg9 Mg 0.9197 0.41078 -0.01128 0.0
C10 C 1.00379 0.49137 0.05223 0.0
C11 C 0.89443 0.25718 -0.01908 0.0
O12 O 0.13883 0.32386 0.008 0.0
O13 O 0.14816 0.44896 0.01201 0.0
O14 O 0.05079 0.23225 -0.00065 0.0
O15 O 0.05604 0.31965 0.0605 0.0
O16 O 0.0447 0.50203 0.05554 0.0
O17 O 0.98797 0.44782 0.01589 0.0
C18 C 0.12532 0.42999 0.90238 0.0
O19 O 0.08639 0.43592 0.92554 0.0
O20 O 0.13834 0.36263 0.88964 0.0
O21 O 0.89547 0.45345 0.91081 0.0
O22 O 0.912 0.36146 0.85725 0.0
O23 O 0.96009 0.52081 -0.02873 0.0
C24 C 0.88506 0.4111 0.87311 0.0
O25 O 0.99433 0.50276 0.89861 0.0
O26 O 0.02599 0.3425 0.83012 0.0
C27 C 0.9848 0.54587 0.93624 0.0
O28 O 0.03839 0.2593 0.88574 0.0
O29 O 0.93563 0.26924 -0.0359 0.0
O30 O 0.8728 0.31512 -0.00328 0.0
C31 C 0.13592 1.04772 0.03277 0.0
C32 C 0.22213 0.18812 0.03783 0.0
C33 C 0.22314 0.15386 0.82583 0.0
Mg34 Mg 0.19048 1.01765 0.01399 0.0
O35 O 0.20591 1.02439 -0.05785 0.0
Mg36 Mg 0.17095 0.13488 -0.06289 0.0
Mg37 Mg 0.24895 0.09622 -0.0512 0.0
O38 O 0.28856 1.04803 0.89884 0.0
Mg39 Mg 0.25728 0.9879 0.84717 0.0
Mg40 Mg 0.32905 0.98934 -0.05203 0.0
C41 C 0.26732 0.94948 0.04398 0.0
C42 C 0.35388 0.17744 -0.0346 0.0
O43 O 0.13024 0.11059 0.00864 0.0
O44 O 0.12218 0.98526 0.01272 0.0
O45 O 0.21383 0.20655 -0.00781 0.0
O46 O 0.2144 0.1203 0.05353 0.0
O47 O 0.22684 0.93484 0.04709 0.0
O48 O 0.28084 1.00545 0.01431 0.0
C49 C 0.13692 0.99325 0.90411 0.0
O50 O 0.17717 0.99486 0.92536 0.0
O51 O 0.12224 1.0588 0.89057 0.0
O52 O 0.31264 0.89022 0.89559 0.0
O53 O 0.31991 0.94278 0.82208 0.0
O54 O 0.2765 0.88077 -0.06095 0.0
C55 C 0.33547 0.89868 0.85603 0.0
O56 O 0.22172 0.89295 0.88347 0.0
O57 O 0.22191 0.08327 0.80999 0.0
C58 C 0.23853 0.85828 0.92116 0.0
O59 O 0.22168 0.16867 0.87427 0.0
O60 O 0.31161 0.18752 -0.03806 0.0
O61 O 0.36898 0.10782 -0.0361 0.0
C62 C 0.13576 1.04978 0.0887 0.0
C63 C 0.04872 0.19154 0.08327 0.0
C64 C 0.05018 0.1636 0.29204 0.0
Mg65 Mg 0.08249 1.02414 0.10736 0.0
O66 O 0.06453 1.02869 0.17853 0.0
Mg67 Mg 0.09953 0.14067 0.18264 0.0
Mg68 Mg 0.02193 0.10041 0.17092 0.0
O69 O 0.97984 1.04806 0.21593 0.0
Mg70 Mg 1.00002 1.00982 0.28399 0.0
Mg71 Mg 0.93601 0.9941 0.15957 0.0
C72 C 1.00618 0.95546 0.0753 0.0
C73 C 0.91666 0.18003 0.14832 0.0
O74 O 0.14106 0.11471 0.11154 0.0
O75 O 0.15094 0.98986 0.10963 0.0
O76 O 0.05645 0.211 0.12896 0.0
O77 O 0.0582 0.12432 0.06718 0.0
O78 O 0.04685 0.94298 0.07204 0.0
O79 O 0.9918 1.01177 0.10464 0.0
C80 C 0.1329 0.99973 0.21802 0.0
O81 O 0.09251 0.99809 0.19678 0.0
O82 O 0.14721 1.06689 0.22978 0.0
O83 O 0.94441 1.05134 0.23732 0.0
O84 O 0.93232 1.02688 0.31599 0.0
O85 O 0.97606 0.88567 0.17877 0.0
C86 C 0.9161 1.04033 0.27285 0.0
O87 O 0.01819 0.89948 0.24911 0.0
O88 O 0.05216 0.09289 0.30568 0.0
C89 C 1.00621 0.86251 0.2089 0.0
O90 O 0.04942 0.17745 0.2441 0.0
O91 O 0.95855 0.19025 0.15692 0.0
O92 O 0.90113 0.11128 0.14363 0.0
C93 C 0.13599 0.38654 0.08783 0.0
C94 C 0.22337 0.24929 0.07628 0.0
C95 C 0.22456 0.27862 0.28477 0.0
Mg96 Mg 0.18977 0.41626 0.10505 0.0
O97 O 0.20673 0.40571 0.17573 0.0
Mg98 Mg 0.17387 0.29308 0.17824 0.0
Mg99 Mg 0.25393 0.34822 0.17523 0.0
O100 O 0.30351 0.29889 0.17178 0.0
Mg101 Mg 0.28973 0.36791 0.23603 0.0
Mg102 Mg 0.34565 0.38243 0.13028 0.0
C103 C 0.26549 0.48159 0.07129 0.0
C104 C 0.36885 0.23519 0.14557 0.0
O105 O 0.13158 0.32138 0.10968 0.0
O106 O 0.12123 0.44645 0.1101 0.0
O107 O 0.21857 0.23003 0.1223 0.0
O108 O 0.21291 0.31642 0.0618 0.0
O109 O 0.22523 0.49864 0.06993 0.0
O110 O 0.28026 0.43669 0.10719 0.0
C111 C 0.14063 0.42799 0.21804 0.0
O112 O 0.18076 0.43227 0.19744 0.0
O113 O 0.1257 0.3612 0.22838 0.0
O114 O 0.36743 0.43187 0.20825 0.0
O115 O 0.35275 0.34745 0.26699 0.0
O116 O 0.31102 0.49591 0.15115 0.0
C117 C 0.37918 0.3945 0.2472 0.0
O118 O 0.27929 0.49102 0.22599 0.0
O119 O 0.23646 0.34777 0.28999 0.0
C120 C 0.29038 0.52873 0.18733 0.0
O121 O 0.22422 0.25681 0.23858 0.0
O122 O 0.32769 0.25168 0.16136 0.0
O123 O 0.39237 0.28956 0.12861 0.0
C124 C 0.1075 0.66622 -0.00499 0.0
C125 C 1.0066 0.62179 -0.05634 0.0
C126 C 0.01353 0.68356 0.83125 0.0
Mg127 Mg 0.03347 0.76365 0.0075 0.0
O128 O 0.06135 0.83643 -0.04579 0.0
Mg129 Mg 0.09185 0.75144 0.90224 0.0
Mg130 Mg 1.00064 0.81475 0.93653 0.0
O131 O 0.94806 0.7679 0.92908 0.0
Mg132 Mg 0.9354 0.75359 0.85884 0.0
Mg133 Mg 0.91879 0.87735 -0.05952 0.0
C134 C 0.97953 0.89379 0.04947 0.0
C135 C 0.8829 0.7391 -0.02546 0.0
O136 O 0.08221 0.65753 -0.04225 0.0
O137 O 0.09585 0.7143 0.02922 0.0
O138 O 0.04459 0.63567 0.92293 0.0
O139 O 0.99361 0.6666 -0.02106 0.0
O140 O 0.99267 0.82688 0.06242 0.0
O141 O 0.97356 0.90342 0.00174 0.0
C142 C 0.10852 0.91853 0.89888 0.0
O143 O 0.07307 0.90539 0.92707 0.0
O144 O 0.12083 0.86371 0.86935 0.0
O145 O 0.87515 0.8532 0.87016 0.0
O146 O 0.86603 0.72771 0.86355 0.0
O147 O 0.96313 0.94076 0.8842 0.0
C148 C 0.88084 0.79004 0.84518 0.0
O149 O 0.96142 0.85454 0.82146 0.0
O150 O 0.97307 0.66794 0.82751 0.0
C151 C 0.9705 0.92179 0.83813 0.0
O152 O 0.02672 0.73713 0.86305 0.0
O153 O 0.92195 0.73432 -0.04877 0.0
O154 O 0.87138 0.80633 -0.01029 0.0
C155 C 0.63514 0.14316 5e-05 0.0
C156 C 0.72461 0.27735 -0.05971 0.0
C157 C 0.74929 0.23383 0.8234 0.0
Mg158 Mg 0.72275 0.11834 -0.00642 0.0
O159 O 0.70671 1.05216 0.92713 0.0
Mg160 Mg 0.66562 0.13471 0.88392 0.0
Mg161 Mg 0.75775 0.09921 0.92786 0.0
O162 O 0.80711 0.15178 0.92682 0.0
Mg163 Mg 0.82516 0.16089 0.85735 0.0
Mg164 Mg 0.84146 1.04173 0.93495 0.0
C165 C 0.78706 1.01938 0.0363 0.0
C166 C 0.86999 0.18299 -0.02652 0.0
O167 O 0.65156 0.18084 -0.03636 0.0
O168 O 0.66044 0.10765 0.02982 0.0
O169 O 0.70312 0.24519 0.90429 0.0
O170 O 0.73577 0.24004 -0.02066 0.0
O171 O 0.77538 0.08764 0.0465 0.0
O172 O 0.78755 1.00548 -0.01094 0.0
C173 C 0.64125 0.98813 0.90068 0.0
O174 O 0.68281 1.00514 0.91489 0.0
O175 O 0.61715 1.04225 0.88457 0.0
O176 O 0.88768 1.06718 0.87078 0.0
O177 O 0.89363 0.19181 0.86343 0.0
O178 O 0.80132 0.97376 0.8773 0.0
C179 C 0.88017 0.12773 0.84534 0.0
O180 O 0.80137 1.06061 0.81656 0.0
O181 O 0.79036 0.24326 0.82191 0.0
C182 C 0.79402 0.99252 0.83167 0.0
O183 O 0.73202 0.18964 0.85878 0.0
O184 O 0.83095 0.1841 -0.04989 0.0
O185 O 0.88477 0.11748 -0.01293 0.0
C186 C 0.14527 0.12645 0.63517 0.0
C187 C 0.042 0.27174 0.67595 0.0
C188 C 0.01198 0.21826 0.80613 0.0
Mg189 Mg 0.04397 0.11569 0.62936 0.0
O190 O 0.05636 1.04642 0.68929 0.0
Mg191 Mg 0.08998 0.13341 0.7367 0.0
Mg192 Mg 1.00105 0.08369 0.70141 0.0
O193 O 0.95216 0.13714 0.70611 0.0
Mg194 Mg 0.93529 0.14847 0.77511 0.0
Mg195 Mg 0.92025 1.02648 0.69873 0.0
C196 C 0.97322 1.0122 0.58877 0.0
C197 C 0.88761 0.16156 0.66085 0.0
O198 O 0.14197 0.11674 0.68282 0.0
O199 O 0.11209 0.1332 0.60638 0.0
O200 O 0.07572 0.24839 0.69919 0.0
O201 O 0.01846 0.22511 0.65091 0.0
O202 O 0.98939 0.07873 0.579 0.0
O203 O 0.97101 0.99705 0.63589 0.0
C204 C 0.10521 0.97525 0.74273 0.0
O205 O 0.07309 0.99206 0.71036 0.0
O206 O 0.11282 1.02489 0.77735 0.0
O207 O 0.87835 1.05411 0.76895 0.0
O208 O 0.86649 0.17867 0.76644 0.0
O209 O 0.96564 0.96381 0.75408 0.0
C210 C 0.88224 0.12123 0.78961 0.0
O211 O 0.95938 1.04944 0.81635 0.0
O212 O 0.97142 0.23328 0.80594 0.0
C213 C 0.97069 0.98297 0.80048 0.0
O214 O 0.02694 0.16058 0.77832 0.0
O215 O 0.92722 0.16624 0.68277 0.0
O216 O 0.87288 0.09478 0.64934 0.0
C217 C 0.66464 0.73301 0.59382 0.0
C218 C 0.77009 0.60507 0.66707 0.0
C219 C 0.75047 0.70045 0.79934 0.0
Mg220 Mg 0.75462 0.75077 0.59023 0.0
O221 O 0.73707 0.79366 0.65489 0.0
Mg222 Mg 0.69818 0.73076 0.70181 0.0
Mg223 Mg 0.774 0.84387 0.70348 0.0
O224 O 0.81551 0.77002 0.69656 0.0
Mg225 Mg 0.82845 0.76188 0.76846 0.0
Mg226 Mg 0.8501 0.88231 0.69478 0.0
C227 C 0.80509 0.90364 0.58211 0.0
C228 C 0.88508 0.7431 0.659 0.0
O229 O 0.6863 0.68893 0.62173 0.0
O230 O 0.68598 0.76983 0.56053 0.0
O231 O 0.74167 0.62841 0.69874 0.0
O232 O 0.77765 0.64038 0.62529 0.0
O233 O 0.8067 0.83274 0.56779 0.0
O234 O 0.80347 0.91847 0.63033 0.0
C235 C 0.66985 0.92036 0.71423 0.0
O236 O 0.71194 0.93326 0.71566 0.0
O237 O 0.65593 0.85031 0.70727 0.0
O238 O 0.88806 0.85591 0.76727 0.0
O239 O 0.89685 0.73064 0.7683 0.0
O240 O 0.80533 0.95156 0.74821 0.0
C241 C 0.88182 0.79143 0.78926 0.0
O242 O 0.80403 0.864 0.80865 0.0
O243 O 0.79009 0.67903 0.79881 0.0
C244 C 0.7961 0.93185 0.79328 0.0
O245 O 0.73811 0.75962 0.77199 0.0
O246 O 0.84442 0.7411 0.67926 0.0
O247 O 0.89961 0.81024 0.6486 0.0
C248 C 0.12875 0.86721 0.5423 0.0
C249 C 0.04268 0.72534 0.55089 0.0
C250 C 0.03949 0.76679 0.34552 0.0
Mg251 Mg 0.07299 0.88954 0.52298 0.0
O252 O 0.04867 0.88515 0.45543 0.0
Mg253 Mg 0.08766 0.77605 0.45053 0.0
Mg254 Mg 0.00879 0.81027 0.46309 0.0
O255 O 0.96282 0.86058 0.42005 0.0
Mg256 Mg 0.98218 0.9036 0.35298 0.0
Mg257 Mg 0.9171 0.90752 0.47712 0.0
C258 C 0.99628 0.95303 0.55802 0.0
C259 C 0.90977 0.72145 0.48692 0.0
O260 O 0.13224 0.80226 0.51922 0.0
O261 O 0.13996 0.92804 0.51905 0.0
O262 O 0.04757 0.70467 0.505 0.0
O263 O 0.05248 0.79283 0.56556 0.0
O264 O 0.03694 0.96412 0.55925 0.0
O265 O 0.97899 0.89793 0.52894 0.0
C266 C 0.11292 0.91571 0.41114 0.0
O267 O 0.07311 0.91366 0.43306 0.0
O268 O 0.13157 0.85145 0.40176 0.0
O269 O 0.92618 0.85734 0.39864 0.0
O270 O 0.91755 0.87309 0.31818 0.0
O271 O 0.94592 1.02069 0.45327 0.0
C272 C 0.89959 0.85999 0.36077 0.0
O273 O 0.99105 1.01673 0.38516 0.0
O274 O 0.04284 0.83963 0.34118 0.0
C275 C 0.97281 1.0518 0.42236 0.0
O276 O 0.03782 0.73955 0.39037 0.0
O277 O 0.95119 0.7158 0.47657 0.0
O278 O 0.89179 0.78721 0.49475 0.0
C279 C 0.14232 0.55315 0.53708 0.0
C280 C 0.22821 0.69189 0.54283 0.0
C281 C 0.22289 0.65417 0.32996 0.0
Mg282 Mg 0.19327 0.52316 0.51594 0.0
O283 O 0.20744 0.53099 0.44423 0.0
Mg284 Mg 0.17516 0.6449 0.44303 0.0
Mg285 Mg 0.25098 0.60252 0.45123 0.0
O286 O 0.29144 0.54909 0.40343 0.0
Mg287 Mg 0.2584 0.48718 0.35497 0.0
Mg288 Mg 0.33061 0.49104 0.45547 0.0
C289 C 0.2684 0.45783 0.5471 0.0
C290 C 0.35705 0.67919 0.46989 0.0
O291 O 0.13607 0.6189 0.51635 0.0
O292 O 0.12368 0.49477 0.5169 0.0
O293 O 0.22066 0.7124 0.49746 0.0
O294 O 0.21987 0.62357 0.55691 0.0
O295 O 0.2284 0.43909 0.54871 0.0
O296 O 0.28121 0.51384 0.51765 0.0
C297 C 0.1367 0.51004 0.40732 0.0
O298 O 0.17727 0.50635 0.42749 0.0
O299 O 0.12354 0.57758 0.39632 0.0
O300 O 0.31509 0.38493 0.41171 0.0
O301 O 0.31862 0.42974 0.3347 0.0
O302 O 0.27672 0.37882 0.44699 0.0
C303 C 0.3356 0.38935 0.37009 0.0
O304 O 0.22209 0.39765 0.39172 0.0
O305 O 0.22238 0.58208 0.31694 0.0
C306 C 0.23829 0.35965 0.42817 0.0
O307 O 0.22386 0.67397 0.37755 0.0
O308 O 0.31508 0.69145 0.46444 0.0
O309 O 0.3709 0.60886 0.47052 0.0
C310 C 0.14779 0.54971 0.59279 0.0
C311 C 0.04504 0.66746 0.58919 0.0
C312 C 0.04268 0.63407 0.79961 0.0
Mg313 Mg 0.07671 0.49966 0.61309 0.0
O314 O 0.06258 0.51336 0.6841 0.0
Mg315 Mg 0.09546 0.62716 0.68987 0.0
Mg316 Mg 0.01978 0.58743 0.67729 0.0
O317 O 0.97626 0.53504 0.72119 0.0
Mg318 Mg 1.007 0.46916 0.76756 0.0
Mg319 Mg 0.9368 0.48359 0.66546 0.0
C320 C 1.0009 0.44738 0.57606 0.0
C321 C 0.9163 0.67242 0.65757 0.0
O322 O 0.13811 0.61009 0.61838 0.0
O323 O 0.14352 0.48365 0.61195 0.0
O324 O 0.05153 0.69039 0.63456 0.0
O325 O 0.056 0.60034 0.57414 0.0
O326 O 0.03956 0.42084 0.57677 0.0
O327 O 0.98972 0.50397 0.60664 0.0
C328 C 0.13285 0.49266 0.72204 0.0
O329 O 0.09273 0.48935 0.70055 0.0
O330 O 0.14536 0.55955 0.73663 0.0
O331 O 0.94801 0.37262 0.70419 0.0
O332 O 0.94541 0.41437 0.78236 0.0
O333 O 0.98699 0.3691 0.67088 0.0
C334 C 0.92722 0.37768 0.7457 0.0
O335 O 0.0423 0.38261 0.72636 0.0
O336 O 0.04135 0.56178 0.81107 0.0
C337 C 0.0254 0.34841 0.68821 0.0
O338 O 0.04482 0.65492 0.75285 0.0
O339 O 0.95834 0.68071 0.66482 0.0
O340 O 0.90038 0.60378 0.65356 0.0
C341 C 0.13161 0.86948 0.59814 0.0
C342 C 0.22651 0.75078 0.58265 0.0
C343 C 0.24196 0.78204 0.79041 0.0
Mg344 Mg 0.18433 0.91061 0.6142 0.0
O345 O 0.20382 0.90138 0.68456 0.0
Mg346 Mg 0.17855 0.78338 0.68848 0.0
Mg347 Mg 0.25384 0.84666 0.67919 0.0
O348 O 0.3047 0.79857 0.66898 0.0
Mg349 Mg 0.297 0.87661 0.72717 0.0
Mg350 Mg 0.33604 0.87552 0.61313 0.0
C351 C 0.25494 0.98108 0.57379 0.0
C352 C 0.37498 0.75065 0.64808 0.0
O353 O 0.13067 0.80537 0.62198 0.0
O354 O 0.11472 0.9286 0.61926 0.0
O355 O 0.22335 0.72866 0.62833 0.0
O356 O 0.21184 0.81607 0.56957 0.0
O357 O 0.21477 0.99788 0.57739 0.0
O358 O 0.27119 0.92993 0.60421 0.0
C359 C 0.13846 0.91143 0.73212 0.0
O360 O 0.17631 0.92435 0.70714 0.0
O361 O 0.13006 0.84144 0.74322 0.0
O362 O 0.36931 0.94895 0.67847 0.0
O363 O 0.36325 0.89158 0.75189 0.0
O364 O 0.33372 1.00301 0.65115 0.0
C365 C 0.37962 0.94446 0.72546 0.0
O366 O 0.27818 0.99126 0.70487 0.0
O367 O 0.25348 0.85194 0.79024 0.0
C368 C 0.3025 1.0336 0.67773 0.0
O369 O 0.23389 0.75467 0.74642 0.0
O370 O 0.33299 0.76183 0.66359 0.0
O371 O 0.39497 0.80582 0.62615 0.0
C372 C 0.08539 0.14614 0.50119 0.0
C373 C 0.99003 0.12569 0.43726 0.0
C374 C 0.01988 0.21299 0.32287 0.0
Mg375 Mg 1.00848 0.2434 0.51679 0.0
O376 O 0.04091 0.30787 0.46972 0.0
Mg377 Mg 0.08181 0.25303 0.41728 0.0
Mg378 Mg 0.99974 0.3576 0.42093 0.0
O379 O 0.95655 0.28483 0.42525 0.0
Mg380 Mg 0.94152 0.27481 0.35356 0.0
Mg381 Mg 0.92153 0.39513 0.4311 0.0
C382 C 0.97027 0.40472 0.54233 0.0
C383 C 0.88805 0.25629 0.46518 0.0
O384 O 0.06639 0.14433 0.45853 0.0
O385 O 0.06714 0.18399 0.53738 0.0
O386 O 0.02871 0.14544 0.42058 0.0
O387 O 0.9744 0.15618 0.47719 0.0
O388 O 0.9672 0.33257 0.55304 0.0
O389 O 0.97074 0.42633 0.49542 0.0
C390 C 0.1045 0.44044 0.40573 0.0
O391 O 0.06225 0.45017 0.41032 0.0
O392 O 0.11981 0.37128 0.40438 0.0
O393 O 0.88068 0.36925 0.35938 0.0
O394 O 0.87322 0.24325 0.35629 0.0
O395 O 0.96514 0.46413 0.37623 0.0
C396 C 0.88608 0.30522 0.33563 0.0
O397 O 0.96409 0.37701 0.31424 0.0
O398 O 0.9799 0.1941 0.31936 0.0
C399 C 0.97249 0.44485 0.33024 0.0
O400 O 0.03176 0.26949 0.35366 0.0
O401 O 0.92787 0.25729 0.44309 0.0
O402 O 0.87314 0.32225 0.4783 0.0
C403 C 0.63986 0.63347 0.49853 0.0
C404 C 0.73752 0.77788 0.44493 0.0
C405 C 0.75844 0.73718 0.32763 0.0
Mg406 Mg 0.72888 0.6182 0.49138 0.0
O407 O 0.71154 0.555 0.42438 0.0
Mg408 Mg 0.67309 0.64359 0.38368 0.0
Mg409 Mg 0.76409 0.59528 0.42751 0.0
O410 O 0.81457 0.64509 0.4291 0.0
Mg411 Mg 0.83028 0.65639 0.35864 0.0
Mg412 Mg 0.84162 0.52801 0.42748 0.0
C413 C 0.78982 0.51554 0.53135 0.0
C414 C 0.87915 0.65488 0.47742 0.0
O415 O 0.65441 0.67802 0.46438 0.0
O416 O 0.66691 0.60278 0.52858 0.0
O417 O 0.71412 0.74927 0.40915 0.0
O418 O 0.74699 0.73834 0.4832 0.0
O419 O 0.78515 0.5869 0.53672 0.0
O420 O 0.78943 0.49462 0.48537 0.0
C421 C 0.64669 0.49515 0.3928 0.0
O422 O 0.6876 0.50881 0.41026 0.0
O423 O 0.6251 0.55131 0.37509 0.0
O424 O 0.88505 0.55676 0.35874 0.0
O425 O 0.8997 0.67989 0.3642 0.0
O426 O 0.79438 0.47385 0.37078 0.0
C427 C 0.88199 0.62445 0.33986 0.0
O428 O 0.80366 0.56118 0.31187 0.0
O429 O 0.79934 0.74635 0.32641 0.0
C430 C 0.79127 0.49423 0.32491 0.0
O431 O 0.74106 0.69191 0.36197 0.0
O432 O 0.84053 0.66764 0.45458 0.0
O433 O 0.8912 0.58481 0.48195 0.0
C434 C 0.12748 0.66018 0.12778 0.0
C435 C 0.02865 0.79007 0.19633 0.0
C436 C 0.00981 0.72976 0.30922 0.0
Mg437 Mg 0.03683 0.63607 0.13755 0.0
O438 O 0.05231 0.56401 0.19891 0.0
Mg439 Mg 0.09184 0.64886 0.24409 0.0
Mg440 Mg 1.00104 0.60966 0.19728 0.0
O441 O 0.95186 0.66484 0.19834 0.0
Mg442 Mg 0.93562 0.67139 0.26939 0.0
Mg443 Mg 0.9227 0.54971 0.18977 0.0
C444 C 0.97721 0.54137 0.08564 0.0
C445 C 0.88868 0.68522 0.1494 0.0
O446 O 0.11724 0.69651 0.16825 0.0
O447 O 0.09876 0.62203 0.10385 0.0
O448 O 0.0521 0.75878 0.2301 0.0
O449 O 0.02059 0.75499 0.15514 0.0
O450 O 0.98702 0.61138 0.08078 0.0
O451 O 0.97519 0.52018 0.13143 0.0
C452 C 0.11648 0.50096 0.22847 0.0
O453 O 0.07571 0.51614 0.21107 0.0
O454 O 0.13858 0.55576 0.2479 0.0
O455 O 0.87686 0.57143 0.25686 0.0
O456 O 0.86679 0.69542 0.26736 0.0
O457 O 0.96623 0.48602 0.24624 0.0
C458 C 0.88236 0.63233 0.28385 0.0
O459 O 0.96204 0.57206 0.30812 0.0
O460 O 0.97008 0.74959 0.31121 0.0
C461 C 0.97241 0.50539 0.29228 0.0
O462 O 0.02405 0.68964 0.27046 0.0
O463 O 0.92657 0.69288 0.17488 0.0
O464 O 0.87697 0.6166 0.13748 0.0
C465 C 0.65002 0.25173 0.11999 0.0
C466 C 0.73452 0.13634 0.17225 0.0
C467 C 0.75614 0.19044 0.29353 0.0
Mg468 Mg 0.72966 0.28468 0.11096 0.0
O469 O 0.70361 0.34624 0.17407 0.0
Mg470 Mg 0.67182 0.26553 0.23226 0.0
Mg471 Mg 0.76596 0.32303 0.18997 0.0
O472 O 0.81796 0.27469 0.19426 0.0
Mg473 Mg 0.83229 0.266 0.26438 0.0
Mg474 Mg 0.84698 0.38686 0.18543 0.0
C475 C 0.79205 0.3962 0.07654 0.0
C476 C 0.88401 0.24768 0.14976 0.0
O477 O 0.66563 0.30137 0.15122 0.0
O478 O 0.66856 0.24643 0.07706 0.0
O479 O 0.70144 0.15462 0.19951 0.0
O480 O 0.75305 0.18168 0.14145 0.0
O481 O 0.78395 0.32652 0.06508 0.0
O482 O 0.79341 0.41055 0.12423 0.0
C483 C 0.66001 0.43017 0.23262 0.0
O484 O 0.69507 0.41523 0.20406 0.0
O485 O 0.64691 0.37832 0.26278 0.0
O486 O 0.89007 0.36783 0.25597 0.0
O487 O 0.90178 0.2432 0.25977 0.0
O488 O 0.80142 0.45187 0.24056 0.0
C489 C 0.88613 0.30417 0.27979 0.0
O490 O 0.80495 0.36675 0.30251 0.0
O491 O 0.79699 0.17797 0.29492 0.0
C492 C 0.79417 0.43307 0.28636 0.0
O493 O 0.74083 0.24496 0.26374 0.0
O494 O 0.84428 0.2415 0.1718 0.0
O495 O 0.89575 0.31569 0.13715 0.0
C496 C 0.63088 0.37987 0.53374 0.0
C497 C 0.5451 0.23972 0.54695 0.0
C498 C 0.53598 0.27114 0.34034 0.0
Mg499 Mg 0.5769 0.4073 0.51887 0.0
O500 O 0.55832 0.39858 0.44904 0.0
Mg501 Mg 0.59076 0.28623 0.44386 0.0
Mg502 Mg 0.50938 0.34668 0.44921 0.0
O503 O 0.45865 0.30046 0.45261 0.0
Mg504 Mg 0.47108 0.36261 0.38625 0.0
Mg505 Mg 0.41908 0.38871 0.49322 0.0
C506 C 0.50265 0.48626 0.55086 0.0
C507 C 0.39247 0.2425 0.48106 0.0
O508 O 0.63543 0.31418 0.51169 0.0
O509 O 0.64533 0.43898 0.51117 0.0
O510 O 0.54853 0.22121 0.50043 0.0
O511 O 0.55473 0.30752 0.56192 0.0
O512 O 0.54362 0.49165 0.55509 0.0
O513 O 0.48542 0.4428 0.51488 0.0
C514 C 0.62202 0.42264 0.40264 0.0
O515 O 0.58278 0.42734 0.4252 0.0
O516 O 0.63671 0.35553 0.39209 0.0
O517 O 0.396 0.43303 0.4151 0.0
O518 O 0.40723 0.3437 0.35702 0.0
O519 O 0.45823 0.4948 0.46969 0.0
C520 C 0.38246 0.39369 0.37717 0.0
O521 O 0.48397 0.48478 0.39191 0.0
O522 O 0.52552 0.34051 0.33478 0.0
C523 C 0.47713 0.52427 0.43139 0.0
O524 O 0.53698 0.25135 0.38656 0.0
O525 O 0.43375 0.25555 0.4645 0.0
O526 O 0.37034 0.29919 0.49772 0.0
C527 C 0.64026 1.04197 0.53399 0.0
C528 C 0.72448 0.18585 0.54178 0.0
C529 C 0.7304 0.13797 0.328 0.0
Mg530 Mg 0.69716 1.01309 0.51734 0.0
O531 O 0.71357 1.01836 0.44565 0.0
Mg532 Mg 0.67834 0.12861 0.43876 0.0
Mg533 Mg 0.75634 0.09209 0.45061 0.0
O534 O 0.80158 1.03915 0.40466 0.0
Mg535 Mg 0.77255 0.9729 0.35725 0.0
Mg536 Mg 0.84298 0.98952 0.45817 0.0
C537 C 0.77581 0.95287 0.55031 0.0
C538 C 0.85833 0.18317 0.46702 0.0
O539 O 0.63566 0.10483 0.50949 0.0
O540 O 0.62927 0.97853 0.51305 0.0
O541 O 0.71939 0.20246 0.49517 0.0
O542 O 0.71687 0.11804 0.55739 0.0
O543 O 0.73558 0.93595 0.55386 0.0
O544 O 0.78855 1.00639 0.51843 0.0
C545 C 0.64467 0.9878 0.40569 0.0
O546 O 0.68455 0.9884 0.42802 0.0
O547 O 0.63113 1.0535 0.39108 0.0
O548 O 0.83906 0.87394 0.41584 0.0
O549 O 0.82947 0.90266 0.33544 0.0
O550 O 0.79687 0.87053 0.45273 0.0
C551 C 0.85264 0.87208 0.36996 0.0
O552 O 0.73976 0.89146 0.40093 0.0
O553 O 0.73472 1.06545 0.31665 0.0
C554 C 0.75768 0.85328 0.436 0.0
O555 O 0.72915 0.15931 0.37528 0.0
O556 O 0.81603 0.18864 0.46205 0.0
O557 O 0.8756 0.11545 0.46952 0.0
C558 C 0.63913 1.043 0.5897 0.0
C559 C 0.54945 0.17832 0.58427 0.0
C560 C 0.54724 0.15352 0.79503 0.0
Mg561 Mg 0.58515 1.01147 0.60617 0.0
O562 O 0.57038 1.02275 0.67662 0.0
Mg563 Mg 0.60232 0.13169 0.68497 0.0
Mg564 Mg 0.51995 1.07553 0.6817 0.0
O565 O 0.45927 0.10742 0.69631 0.0
Mg566 Mg 0.48213 1.04614 0.76064 0.0
Mg567 Mg 0.42534 1.02775 0.638 0.0
C568 C 0.50741 0.94 0.58023 0.0
C569 C 0.41445 0.19218 0.64197 0.0
O570 O 0.64371 0.10744 0.61344 0.0
O571 O 0.65403 0.98235 0.60998 0.0
O572 O 0.55729 0.19723 0.63025 0.0
O573 O 0.55974 0.11183 0.5671 0.0
O574 O 0.54783 0.92407 0.57858 0.0
O575 O 0.49353 0.99859 0.60816 0.0
C576 C 0.63706 0.98874 0.71703 0.0
O577 O 0.59678 0.98616 0.696 0.0
O578 O 0.6499 1.05578 0.73169 0.0
O579 O 0.41852 1.06124 0.7185 0.0
O580 O 0.41997 1.00916 0.79246 0.0
O581 O 0.45576 0.91667 0.66944 0.0
C582 C 0.40365 1.0104 0.74825 0.0
O583 O 0.50363 0.9391 0.73272 0.0
O584 O 0.53768 0.08508 0.80694 0.0
C585 C 0.48583 0.89508 0.69996 0.0
O586 O 0.54995 0.16397 0.74709 0.0
O587 O 0.44956 0.17407 0.66991 0.0
O588 O 0.40082 0.1421 0.61007 0.0
C589 C 0.63302 0.38388 0.58975 0.0
C590 C 0.72149 0.24788 0.57984 0.0
C591 C 0.72533 0.28588 0.78824 0.0
Mg592 Mg 0.6861 0.41486 0.60549 0.0
O593 O 0.70313 0.41091 0.67682 0.0
Mg594 Mg 0.67189 0.29708 0.68244 0.0
Mg595 Mg 0.75044 0.35169 0.67616 0.0
O596 O 0.79971 0.3002 0.67133 0.0
Mg597 Mg 0.78996 0.37277 0.73432 0.0
Mg598 Mg 0.84201 0.37818 0.62489 0.0
C599 C 0.76101 0.47219 0.56567 0.0
C600 C 0.86478 0.23407 0.64752 0.0
O601 O 0.62805 0.32105 0.61419 0.0
O602 O 0.6177 0.44557 0.60929 0.0
O603 O 0.71566 0.23008 0.62601 0.0
O604 O 0.71034 0.31385 0.56416 0.0
O605 O 0.72117 0.49186 0.56505 0.0
O606 O 0.77572 0.43159 0.60361 0.0
C607 C 0.63805 0.43571 0.72231 0.0
O608 O 0.67686 0.4413 0.69847 0.0
O609 O 0.62558 0.36753 0.73356 0.0
O610 O 0.86813 0.42715 0.70062 0.0
O611 O 0.85331 0.34904 0.76322 0.0
O612 O 0.80962 0.49531 0.64089 0.0
C613 C 0.88065 0.38883 0.7389 0.0
O614 O 0.78182 0.49526 0.71797 0.0
O615 O 0.73904 0.3544 0.79204 0.0
C616 C 0.79073 0.53038 0.67724 0.0
O617 O 0.72262 0.26321 0.74238 0.0
O618 O 0.8242 0.25363 0.66408 0.0
O619 O 0.8876 0.28417 0.6249 0.0
C620 C 0.59351 0.61382 0.49906 0.0
C621 C 0.49629 0.60049 0.43827 0.0
C622 C 0.51971 0.69297 0.32951 0.0
Mg623 Mg 0.51755 0.71756 0.51747 0.0
O624 O 0.54989 0.78219 0.47145 0.0
Mg625 Mg 0.58855 0.7273 0.41604 0.0
Mg626 Mg 0.50604 0.83855 0.42597 0.0
O627 O 0.46055 0.77 0.43244 0.0
Mg628 Mg 0.44479 0.75936 0.36181 0.0
Mg629 Mg 0.42783 0.88304 0.43709 0.0
C630 C 0.48039 0.88887 0.54645 0.0
C631 C 0.39039 0.74772 0.47077 0.0
O632 O 0.57476 0.6167 0.45605 0.0
O633 O 0.57166 0.63737 0.5373 0.0
O634 O 0.53611 0.61457 0.42211 0.0
O635 O 0.47987 0.63974 0.47425 0.0
O636 O 0.48297 0.8162 0.55747 0.0
O637 O 0.4798 0.9099 0.49966 0.0
C638 C 0.61238 0.91734 0.40618 0.0
O639 O 0.57034 0.92754 0.41291 0.0
O640 O 0.62707 0.84764 0.40319 0.0
O641 O 0.38437 0.86411 0.3651 0.0
O642 O 0.37806 0.73773 0.36284 0.0
O643 O 0.47221 0.94718 0.38197 0.0
C644 C 0.37392 0.80201 0.34147 0.0
O645 O 0.46465 0.85954 0.32078 0.0
O646 O 0.4794 0.67643 0.32812 0.0
C647 C 0.47555 0.927 0.33563 0.0
O648 O 0.53421 0.74932 0.35843 0.0
O649 O 0.43064 0.74442 0.44956 0.0
O650 O 0.37782 0.81499 0.48433 0.0
C651 C 0.13227 0.15225 0.49639 0.0
C652 C 0.22125 0.28136 0.43545 0.0
C653 C 0.24843 0.22835 0.32051 0.0
Mg654 Mg 0.21962 0.11994 0.48468 0.0
O655 O 0.20354 1.05014 0.42121 0.0
Mg656 Mg 0.16301 0.13578 0.38015 0.0
Mg657 Mg 0.25389 0.0958 0.42587 0.0
O658 O 0.30327 0.1481 0.42598 0.0
Mg659 Mg 0.32296 0.15705 0.35665 0.0
Mg660 Mg 0.33413 1.03434 0.43168 0.0
C661 C 0.27997 1.0269 0.5361 0.0
C662 C 0.36775 0.16985 0.47139 0.0
O663 O 0.14668 0.18902 0.45845 0.0
O664 O 0.15676 0.10342 0.51727 0.0
O665 O 0.20019 0.24954 0.39889 0.0
O666 O 0.23201 0.2427 0.47386 0.0
O667 O 0.2711 0.09739 0.53971 0.0
O668 O 0.28045 1.00301 0.49032 0.0
C669 C 0.13503 0.99132 0.40144 0.0
O670 O 0.17717 1.00616 0.41421 0.0
O671 O 0.11198 1.04634 0.38457 0.0
O672 O 0.38057 1.05612 0.36493 0.0
O673 O 0.39172 0.1812 0.363 0.0
O674 O 0.2905 0.97329 0.37329 0.0
C675 C 0.37881 0.11973 0.34098 0.0
O676 O 0.2991 1.06014 0.31338 0.0
O677 O 0.28946 0.2392 0.32011 0.0
C678 C 0.28735 0.99341 0.32716 0.0
O679 O 0.23062 0.186 0.35628 0.0
O680 O 0.3284 0.17485 0.44905 0.0
O681 O 0.3814 0.10291 0.48342 0.0
C682 C 0.62387 0.18845 0.14112 0.0
C683 C 0.53715 0.26755 0.19142 0.0
C684 C 0.5101 0.22142 0.30589 0.0
Mg685 Mg 0.54309 0.10966 0.14156 0.0
O686 O 0.55758 1.04015 0.20395 0.0
Mg687 Mg 0.5915 0.12201 0.25625 0.0
Mg688 Mg 0.50557 0.08555 0.2012 0.0
O689 O 0.45584 0.13735 0.20131 0.0
Mg690 Mg 0.43586 0.14985 0.27056 0.0
Mg691 Mg 0.42355 1.02571 0.19525 0.0
C692 C 0.4809 1.00633 0.09148 0.0
C693 C 0.39187 0.16133 0.15577 0.0
O694 O 0.61714 0.19015 0.18863 0.0
O695 O 0.60726 0.13541 0.11391 0.0
O696 O 0.56069 0.23731 0.22613 0.0
O697 O 0.52152 0.22628 0.156 0.0
O698 O 0.49459 1.07429 0.0838 0.0
O699 O 0.47773 0.99046 0.13827 0.0
C700 C 0.62458 0.98585 0.23217 0.0
O701 O 0.58322 0.99787 0.2151 0.0
O702 O 0.64504 1.04114 0.25352 0.0
O703 O 0.37836 1.0528 0.26259 0.0
O704 O 0.36706 0.17745 0.26338 0.0
O705 O 0.46735 0.96566 0.25184 0.0
C706 C 0.38194 0.1181 0.28535 0.0
O707 O 0.46028 1.05281 0.31306 0.0
O708 O 0.46937 0.23485 0.30627 0.0
C709 C 0.47275 0.98673 0.29767 0.0
O710 O 0.52659 0.17559 0.27127 0.0
O711 O 0.43141 0.1649 0.17789 0.0
O712 O 0.37701 0.09474 0.14368 0.0
C713 C 0.17359 0.64687 0.11815 0.0
C714 C 0.27289 0.6059 0.17821 0.0
C715 C 0.25136 0.70203 0.29672 0.0
Mg716 Mg 0.25492 0.73283 0.10214 0.0
O717 O 0.22639 0.79456 0.15352 0.0
Mg718 Mg 0.1866 0.73986 0.20694 0.0
Mg719 Mg 0.26921 0.84517 0.19938 0.0
O720 O 0.31166 0.77153 0.19248 0.0
Mg721 Mg 0.3267 0.76624 0.26444 0.0
Mg722 Mg 0.34495 0.88473 0.18919 0.0
C723 C 0.29495 0.89695 0.07584 0.0
C724 C 0.38195 0.74482 0.15619 0.0
O725 O 0.19562 0.63524 0.15805 0.0
O726 O 0.19149 0.6861 0.08298 0.0
O727 O 0.23533 0.62585 0.19803 0.0
O728 O 0.28865 0.64207 0.14052 0.0
O729 O 0.29189 0.82537 0.06203 0.0
O730 O 0.2961 0.91484 0.12381 0.0
C731 C 0.16456 0.92904 0.2185 0.0
O732 O 0.20678 0.93808 0.21244 0.0
O733 O 0.14898 0.85992 0.22056 0.0
O734 O 0.38437 0.86399 0.26245 0.0
O735 O 0.39604 0.73997 0.26692 0.0
O736 O 0.29984 0.95392 0.24326 0.0
C737 C 0.37853 0.80039 0.28569 0.0
O738 O 0.29919 0.86633 0.30373 0.0
O739 O 0.29128 0.68263 0.29753 0.0
C740 C 0.29038 0.93366 0.28828 0.0
O741 O 0.23852 0.75879 0.26769 0.0
O742 O 0.34123 0.74356 0.17625 0.0
O743 O 0.39586 0.81175 0.14413 0.0
C744 C 0.63415 0.86381 0.03829 0.0
C745 C 0.54833 0.72147 0.04763 0.0
C746 C 0.54518 0.7602 0.84306 0.0
Mg747 Mg 0.58027 0.8876 0.02153 0.0
O748 O 0.556 0.881 -0.04605 0.0
Mg749 Mg 0.5953 0.77185 -0.05209 0.0
Mg750 Mg 0.51871 0.80289 -0.03601 0.0
O751 O 0.47256 0.84729 0.92214 0.0
Mg752 Mg 0.48062 0.89327 0.85767 0.0
Mg753 Mg 0.43458 0.89786 -0.0238 0.0
C754 C 0.50526 0.94964 0.05968 0.0
C755 C 0.4213 0.71406 -0.01226 0.0
O756 O 0.6392 0.79904 0.01555 0.0
O757 O 0.64788 0.924 0.01613 0.0
O758 O 0.55613 0.6991 0.00264 0.0
O759 O 0.55786 0.78925 0.0625 0.0
O760 O 0.54545 0.96685 0.05659 0.0
O761 O 0.48943 0.88947 0.03484 0.0
C762 C 0.62004 0.91173 0.90959 0.0
O763 O 0.5806 0.90857 0.93216 0.0
O764 O 0.63885 0.84805 0.89905 0.0
O765 O 0.39001 0.90474 0.91363 0.0
O766 O 0.41207 0.87888 0.83457 0.0
O767 O 0.45985 1.00925 -0.0447 0.0
C768 C 0.38215 0.89683 0.86676 0.0
O769 O 0.49167 1.01046 0.87899 0.0
O770 O 0.54209 0.83317 0.83652 0.0
C771 C 0.4793 1.04365 0.91971 0.0
O772 O 0.54576 0.73478 0.88854 0.0
O773 O 0.46281 0.70513 -0.02085 0.0
O774 O 0.4051 0.78136 -0.00707 0.0
C775 C 0.63917 0.54297 0.03623 0.0
C776 C 0.72688 0.67727 0.04159 0.0
C777 C 0.72145 0.65057 0.83107 0.0
Mg778 Mg 0.68898 0.51239 0.01441 0.0
O779 O 0.70446 0.52102 -0.0572 0.0
Mg780 Mg 0.67231 0.63551 -0.05738 0.0
Mg781 Mg 0.74696 0.59391 -0.04811 0.0
O782 O 0.78959 0.54341 0.90552 0.0
Mg783 Mg 0.75828 0.48384 0.85482 0.0
Mg784 Mg 0.82852 0.48473 -0.04172 0.0
C785 C 0.76338 0.44882 0.04748 0.0
C786 C 0.85036 0.6716 -0.0262 0.0
O787 O 0.6327 0.608 0.0147 0.0
O788 O 0.61939 0.48447 0.01763 0.0
O789 O 0.71779 0.69981 -0.00287 0.0
O790 O 0.71765 0.60953 0.0556 0.0
O791 O 0.72336 0.42979 0.04816 0.0
O792 O 0.77657 0.50447 0.01797 0.0
C793 C 0.63401 0.50238 0.90576 0.0
O794 O 0.67457 0.49798 0.92573 0.0
O795 O 0.62071 0.57002 0.89518 0.0
O796 O 0.81782 0.38485 0.90515 0.0
O797 O 0.81988 0.43681 0.8302 0.0
O798 O 0.78036 0.37248 -0.05076 0.0
C799 C 0.8388 0.39771 0.86476 0.0
O800 O 0.7255 0.39151 0.89423 0.0
O801 O 0.72141 0.57881 0.81721 0.0
C802 C 0.74212 0.35411 0.93093 0.0
O803 O 0.72124 0.6684 0.87881 0.0
O804 O 0.80863 0.68323 -0.03248 0.0
O805 O 0.86531 0.60221 -0.02574 0.0
C806 C 0.64478 0.54288 0.09206 0.0
C807 C 0.54485 0.66469 0.08643 0.0
C808 C 0.54665 0.64234 0.29691 0.0
Mg809 Mg 0.57384 0.49715 0.11568 0.0
O810 O 0.56031 0.51556 0.18604 0.0
Mg811 Mg 0.59413 0.62954 0.18699 0.0
Mg812 Mg 0.51769 0.58924 0.17686 0.0
O813 O 0.47509 0.54055 0.2234 0.0
Mg814 Mg 0.50598 0.47753 0.27187 0.0
Mg815 Mg 0.43522 0.4846 0.17 0.0
C816 C 0.4988 0.43902 0.08105 0.0
C817 C 0.41366 0.67386 0.15619 0.0
O818 O 0.63594 0.60543 0.1158 0.0
O819 O 0.64026 0.47853 0.11349 0.0
O820 O 0.54979 0.68902 0.13162 0.0
O821 O 0.55433 0.59589 0.07329 0.0
O822 O 0.53754 0.4136 0.08381 0.0
O823 O 0.48696 0.49928 0.10842 0.0
C824 C 0.63053 0.50014 0.22445 0.0
O825 O 0.58998 0.49444 0.20418 0.0
O826 O 0.64425 0.56775 0.2351 0.0
O827 O 0.44669 0.37855 0.21405 0.0
O828 O 0.44355 0.42606 0.29104 0.0
O829 O 0.4849 0.36865 0.17978 0.0
C830 C 0.42577 0.3863 0.25525 0.0
O831 O 0.54053 0.38574 0.23427 0.0
O832 O 0.54485 0.57062 0.30973 0.0
C833 C 0.52283 0.34738 0.19839 0.0
O834 O 0.54503 0.66131 0.24979 0.0
O835 O 0.45587 0.68266 0.16219 0.0
O836 O 0.39804 0.60466 0.15472 0.0
C837 C 0.63718 0.86491 0.09416 0.0
C838 C 0.72799 0.7351 0.08109 0.0
C839 C 0.73442 0.78577 0.29122 0.0
Mg840 Mg 0.69039 0.89842 0.10857 0.0
O841 O 0.71471 0.89621 0.176 0.0
Mg842 Mg 0.68266 0.78112 0.18432 0.0
Mg843 Mg 0.75644 0.82435 0.1674 0.0
O844 O 0.80057 0.88267 0.20862 0.0
Mg845 Mg 0.77845 0.9477 0.26054 0.0
Mg846 Mg 0.83207 0.93802 0.15164 0.0
C847 C 0.76304 0.96218 0.06727 0.0
C848 C 0.85665 0.75119 0.14628 0.0
O849 O 0.63551 0.80033 0.11735 0.0
O850 O 0.62123 0.92421 0.11604 0.0
O851 O 0.72406 0.71365 0.1268 0.0
O852 O 0.71553 0.80129 0.06741 0.0
O853 O 0.72278 0.97849 0.07153 0.0
O854 O 0.78044 0.9061 0.09377 0.0
C855 C 0.64958 0.91396 0.22183 0.0
O856 O 0.68832 0.91768 0.19799 0.0
O857 O 0.63566 0.84785 0.23474 0.0
O858 O 0.87476 0.9785 0.21284 0.0
O859 O 0.8389 1.01328 0.28296 0.0
O860 O 0.79181 1.04813 0.16063 0.0
C861 C 0.87413 1.00808 0.25691 0.0
O862 O 0.74212 1.02824 0.22126 0.0
O863 O 0.73851 0.85874 0.30085 0.0
C864 C 0.75649 1.06569 0.18392 0.0
O865 O 0.73566 0.76002 0.24505 0.0
O866 O 0.81534 0.73755 0.15185 0.0
O867 O 0.87103 0.82107 0.14433 0.0
C868 C 0.58812 0.13499 0.00175 0.0
C869 C 0.49505 0.11872 0.93247 0.0
C870 C 0.51813 0.20918 0.8225 0.0
Mg871 Mg 0.51035 0.23288 0.01602 0.0
O872 O 0.54247 0.29839 -0.02982 0.0
Mg873 Mg 0.58393 0.24553 0.91628 0.0
Mg874 Mg 0.49867 0.34831 0.92338 0.0
O875 O 0.45531 0.2752 0.92813 0.0
Mg876 Mg 0.43927 0.2673 0.85644 0.0
Mg877 Mg 0.42129 0.3865 0.93475 0.0
C878 C 0.47019 0.39372 0.04585 0.0
C879 C 0.38576 0.24809 -0.03355 0.0
O880 O 0.57092 0.1345 -0.04198 0.0
O881 O 0.56805 0.17084 0.03744 0.0
O882 O 0.53465 0.13609 0.91834 0.0
O883 O 0.47813 0.14956 -0.02835 0.0
O884 O 0.4697 0.3209 0.05573 0.0
O885 O 0.47078 0.41624 -0.00087 0.0
C886 C 0.60243 0.43286 0.9046 0.0
O887 O 0.56036 0.44143 0.91142 0.0
O888 O 0.61864 0.36457 0.90241 0.0
O889 O 0.37963 0.36304 0.86337 0.0
O890 O 0.37073 0.23744 0.85709 0.0
O891 O 0.46556 0.45448 0.88037 0.0
C892 C 0.38434 0.3002 0.83808 0.0
O893 O 0.46378 0.367 0.81875 0.0
O894 O 0.47782 0.19222 0.8186 0.0
C895 C 0.47373 0.43376 0.83486 0.0
O896 O 0.53064 0.26173 0.85573 0.0
O897 O 0.42584 0.24779 -0.05513 0.0
O898 O 0.37214 0.31427 -0.01899 0.0
C899 C 0.15272 0.66086 -0.01947 0.0
C900 C 0.22532 0.77874 0.93135 0.0
C901 C 0.26899 0.73505 0.82612 0.0
Mg902 Mg 0.24114 0.61761 -0.027 0.0
O903 O 0.22423 0.54155 0.9145 0.0
Mg904 Mg 0.19185 0.62614 0.86399 0.0
Mg905 Mg 0.27364 0.5911 0.92672 0.0
O906 O 0.32293 0.64683 0.93326 0.0
Mg907 Mg 0.33901 0.66066 0.86225 0.0
Mg908 Mg 0.34798 0.52773 0.93192 0.0
C909 C 0.29321 0.52469 0.03548 0.0
C910 C 0.38886 0.64969 -0.02052 0.0
O911 O 0.16184 0.68539 0.93606 0.0
O912 O 0.1778 0.61447 0.00285 0.0
O913 O 0.19131 0.74798 0.90965 0.0
O914 O 0.25286 0.73612 -0.0464 0.0
O915 O 0.28551 0.59606 0.0362 0.0
O916 O 0.29586 0.49685 -0.00899 0.0
C917 C 0.15201 0.50081 0.89397 0.0
O918 O 0.1943 0.50767 0.90944 0.0
O919 O 0.13271 0.55927 0.87525 0.0
O920 O 0.39189 0.55628 0.8639 0.0
O921 O 0.40891 0.6789 0.86596 0.0
O922 O 0.30079 0.47625 0.87453 0.0
C923 C 0.38947 0.62314 0.8436 0.0
O924 O 0.31002 0.56598 0.81685 0.0
O925 O 0.30905 0.75253 0.82871 0.0
C926 C 0.29667 0.4993 0.82936 0.0
O927 O 0.25476 0.6804 0.85513 0.0
O928 O 0.35037 0.66431 -0.04354 0.0
O929 O 0.39902 0.5792 -0.01404 0.0
C930 C 0.62161 0.75229 0.61397 0.0
C931 C 0.50602 0.8217 0.68997 0.0
C932 C 0.51754 0.71484 0.80888 0.0
Mg933 Mg 0.52575 0.69767 0.61325 0.0
O934 O 0.54809 0.63518 0.66602 0.0
Mg935 Mg 0.58037 0.69169 0.72275 0.0
Mg936 Mg 0.50504 0.57872 0.70833 0.0
O937 O 0.46423 0.65274 0.70226 0.0
Mg938 Mg 0.44335 0.65875 0.77099 0.0
Mg939 Mg 0.4295 0.54082 0.69427 0.0
C940 C 0.47848 0.53696 0.5861 0.0
C941 C 0.39922 0.67718 0.65767 0.0
O942 O 0.61944 0.73171 0.65992 0.0
O943 O 0.58758 0.75249 0.58573 0.0
O944 O 0.53945 0.80137 0.71565 0.0
O945 O 0.49246 0.78465 0.65156 0.0
O946 O 0.48248 0.60932 0.57572 0.0
O947 O 0.48016 0.5139 0.63235 0.0
C948 C 0.60599 0.50303 0.72525 0.0
O949 O 0.56435 0.48972 0.72086 0.0
O950 O 0.62037 0.57327 0.72732 0.0
O951 O 0.38503 0.5636 0.76249 0.0
O952 O 0.37488 0.68831 0.76821 0.0
O953 O 0.47068 0.47205 0.75063 0.0
C954 C 0.38999 0.62671 0.7874 0.0
O955 O 0.46743 0.56016 0.81171 0.0
O956 O 0.47882 0.73992 0.8046 0.0
C957 C 0.47649 0.49254 0.79663 0.0
O958 O 0.53168 0.65665 0.78166 0.0
O959 O 0.43831 0.678 0.68099 0.0
O960 O 0.3834 0.61162 0.64537 0.0
C961 C 0.18981 0.14033 0.6186 0.0
C962 C 0.29002 0.11398 0.67056 0.0
C963 C 0.25332 0.20452 0.79547 0.0
Mg964 Mg 0.26297 0.23898 0.59863 0.0
O965 O 0.23216 0.30124 0.64984 0.0
Mg966 Mg 0.19407 0.2405 0.70044 0.0
Mg967 Mg 0.27176 0.35178 0.69949 0.0
O968 O 0.31552 0.28103 0.69169 0.0
Mg969 Mg 0.33003 0.27018 0.7635 0.0
Mg970 Mg 0.34796 0.39545 0.68931 0.0
C971 C 0.29743 0.40797 0.57789 0.0
C972 C 0.38545 0.26326 0.65234 0.0
O973 O 0.21546 0.14178 0.65587 0.0
O974 O 0.19983 0.18253 0.58081 0.0
O975 O 0.25216 0.13532 0.69003 0.0
O976 O 0.30448 0.14929 0.63196 0.0
O977 O 0.29718 0.33695 0.56257 0.0
O978 O 0.29796 0.42507 0.62594 0.0
C979 C 0.16615 0.42506 0.71984 0.0
O980 O 0.20796 0.43856 0.71439 0.0
O981 O 0.15247 0.35457 0.71884 0.0
O982 O 0.38888 0.36829 0.76061 0.0
O983 O 0.39899 0.24279 0.76033 0.0
O984 O 0.30332 0.46153 0.74437 0.0
C985 C 0.38442 0.30294 0.7824 0.0
O986 O 0.30585 0.37232 0.80371 0.0
O987 O 0.29341 0.18632 0.79781 0.0
C988 C 0.29643 0.44038 0.78964 0.0
O989 O 0.24137 0.26058 0.76541 0.0
O990 O 0.34522 0.25853 0.67337 0.0
O991 O 0.39845 0.33066 0.64088 0.0
loop_
_geom_bond_atom_site_label_1
_geom_bond_atom_site_label_2
_geom_bond_distance
_geom_bond_site_symmetry_2
_ccdc_geom_bond_type
C0 O12 1.241 . S
C0 O13 1.280 . S
C1 O14 1.277 . S
C1 O15 1.245 . S
C2 O26 1.247 . S
C2 O28 1.289 . S
Mg3 O4 1.926 . S
Mg3 O13 1.984 . S
Mg3 O15 1.988 . S
Mg3 O16 2.061 . S
O4 Mg3 1.926 . S
O4 Mg5 1.986 . S
O4 Mg6 1.917 . S
Mg5 O4 1.986 . S
Mg5 O12 2.042 . S
Mg5 O14 2.041 . S
Mg5 O20 2.038 1_554 S
Mg5 O28 2.238 1_554 S
Mg6 O4 1.917 . S
Mg6 O7 1.917 1_454 S
Mg6 O17 2.106 1_455 S
Mg6 O19 2.079 1_554 S
Mg6 O28 2.106 1_554 S
Mg6 O29 2.079 1_455 S
O7 Mg6 1.917 1_656 S
O7 Mg8 1.926 . S
O7 Mg9 1.986 1_556 S
Mg8 O7 1.926 . S
Mg8 O22 1.984 . S
Mg8 O25 1.988 . S
Mg8 O26 2.061 1_655 S
Mg9 O7 1.986 1_554 S
Mg9 O17 2.238 . S
Mg9 O21 2.042 1_554 S
Mg9 O23 2.041 1_554 S
Mg9 O30 2.038 . S
C10 O16 1.247 . S
C10 O17 1.289 1_455 S
C11 O29 1.245 . S
C11 O30 1.274 . S
O12 C0 1.241 . S
O12 Mg5 2.042 . S
O13 C0 1.280 . S
O13 Mg3 1.984 . S
O14 C1 1.277 . S
O14 Mg5 2.041 . S
O15 C1 1.245 . S
O15 Mg3 1.988 . S
O16 Mg3 2.061 . S
O16 C10 1.247 . S
O17 Mg6 2.106 1_655 S
O17 Mg9 2.238 . S
O17 C10 1.289 1_655 S
C18 O19 1.245 . S
C18 O20 1.274 . S
O19 Mg6 2.079 1_556 S
O19 C18 1.245 . S
O20 Mg5 2.038 1_556 S
O20 C18 1.274 . S
O21 Mg9 2.042 1_556 S
O21 C24 1.241 . S
O22 Mg8 1.984 . S
O22 C24 1.280 . S
O23 Mg9 2.041 1_556 S
O23 C27 1.277 . S
C24 O21 1.241 . S
C24 O22 1.280 . S
O25 Mg8 1.988 . S
O25 C27 1.245 . S
O26 C2 1.247 . S
O26 Mg8 2.061 1_455 S
C27 O23 1.277 . S
C27 O25 1.245 . S
O28 C2 1.289 . S
O28 Mg5 2.238 1_556 S
O28 Mg6 2.106 1_556 S
O29 Mg6 2.079 1_655 S
O29 C11 1.245 . S
O30 Mg9 2.038 . S
O30 C11 1.274 . S
C31 O43 1.241 . S
C31 O44 1.280 . S
C32 O45 1.277 . S
C32 O46 1.245 . S
C33 O57 1.247 1_545 S
C33 O59 1.289 . S
Mg34 O35 1.926 . S
Mg34 O44 1.984 . S
Mg34 O46 1.988 . S
Mg34 O47 2.061 1_545 S
O35 Mg34 1.926 . S
O35 Mg36 1.986 . S
O35 Mg37 1.917 1_545 S
Mg36 O35 1.986 . S
Mg36 O43 2.042 . S
Mg36 O45 2.041 . S
Mg36 O51 2.038 1_544 S
Mg36 O59 2.238 1_554 S
Mg37 O35 1.917 1_565 S
Mg37 O38 1.917 1_554 S
Mg37 O48 2.106 . S
Mg37 O50 2.079 1_554 S
Mg37 O59 2.106 1_564 S
Mg37 O60 2.079 1_565 S
O38 Mg37 1.917 1_556 S
O38 Mg39 1.926 . S
O38 Mg40 1.986 1_556 S
Mg39 O38 1.926 . S
Mg39 O53 1.984 . S
Mg39 O56 1.988 . S
Mg39 O57 2.061 . S
Mg40 O38 1.986 1_554 S
Mg40 O48 2.238 . S
Mg40 O52 2.042 1_554 S
Mg40 O54 2.041 1_554 S
Mg40 O61 2.038 . S
C41 O47 1.247 . S
C41 O48 1.289 . S
C42 O60 1.245 . S
C42 O61 1.274 1_545 S
O43 C31 1.241 . S
O43 Mg36 2.042 . S
O44 C31 1.280 . S
O44 Mg34 1.984 . S
O45 C32 1.277 . S
O45 Mg36 2.041 . S
O46 C32 1.245 . S
O46 Mg34 1.988 . S
O47 Mg34 2.061 1_565 S
O47 C41 1.247 . S
O48 Mg37 2.106 . S
O48 Mg40 2.238 . S
O48 C41 1.289 . S
C49 O50 1.245 . S
C49 O51 1.274 . S
O50 Mg37 2.079 1_556 S
O50 C49 1.245 . S
O51 Mg36 2.038 1_566 S
O51 C49 1.274 . S
O52 Mg40 2.042 1_556 S
O52 C55 1.241 . S
O53 Mg39 1.984 . S
O53 C55 1.280 . S
O54 Mg40 2.041 1_556 S
O54 C58 1.277 . S
C55 O52 1.241 . S
C55 O53 1.280 . S
O56 Mg39 1.988 . S
O56 C58 1.245 . S
O57 C33 1.247 1_565 S
O57 Mg39 2.061 . S
C58 O54 1.277 . S
C58 O56 1.245 . S
O59 C33 1.289 . S
O59 Mg36 2.238 1_556 S
O59 Mg37 2.106 1_546 S
O60 Mg37 2.079 1_545 S
O60 C42 1.245 . S
O61 Mg40 2.038 . S
O61 C42 1.274 1_565 S
C62 O74 1.241 . S
C62 O75 1.280 . S
C63 O76 1.277 . S
C63 O77 1.245 . S
C64 O88 1.247 1_545 S
C64 O90 1.289 . S
Mg65 O66 1.926 . S
Mg65 O75 1.984 . S
Mg65 O77 1.988 . S
Mg65 O78 2.061 1_545 S
O66 Mg65 1.926 . S
O66 Mg67 1.986 . S
O66 Mg68 1.917 1_545 S
Mg67 O66 1.986 . S
Mg67 O74 2.042 . S
Mg67 O76 2.041 . S
Mg67 O82 2.038 1_545 S
Mg67 O90 2.238 . S
Mg68 O66 1.917 1_565 S
Mg68 O69 1.917 1_455 S
Mg68 O79 2.106 1_455 S
Mg68 O81 2.079 . S
Mg68 O90 2.106 1_565 S
Mg68 O91 2.079 1_465 S
O69 Mg68 1.917 1_655 S
O69 Mg70 1.926 . S
O69 Mg71 1.986 . S
Mg70 O69 1.926 . S
Mg70 O84 1.984 . S
Mg70 O87 1.988 . S
Mg70 O88 2.061 1_655 S
Mg71 O69 1.986 . S
Mg71 O79 2.238 . S
Mg71 O83 2.042 . S
Mg71 O85 2.041 . S
Mg71 O92 2.038 . S
C72 O78 1.247 . S
C72 O79 1.289 1_455 S
C73 O91 1.245 . S
C73 O92 1.274 1_545 S
O74 C62 1.241 . S
O74 Mg67 2.042 . S
O75 C62 1.280 . S
O75 Mg65 1.984 . S
O76 C63 1.277 . S
O76 Mg67 2.041 . S
O77 C63 1.245 . S
O77 Mg65 1.988 . S
O78 Mg65 2.061 1_565 S
O78 C72 1.247 . S
O79 Mg68 2.106 1_655 S
O79 Mg71 2.238 . S
O79 C72 1.289 1_655 S
C80 O81 1.245 . S
C80 O82 1.274 . S
O81 Mg68 2.079 . S
O81 C80 1.245 . S
O82 Mg67 2.038 1_565 S
O82 C80 1.274 . S
O83 Mg71 2.042 . S
O83 C86 1.241 . S
O84 Mg70 1.984 . S
O84 C86 1.280 . S
O85 Mg71 2.041 . S
O85 C89 1.277 . S
C86 O83 1.241 . S
C86 O84 1.280 . S
O87 Mg70 1.988 . S
O87 C89 1.245 . S
O88 C64 1.247 1_565 S
O88 Mg70 2.061 1_455 S
C89 O85 1.277 . S
C89 O87 1.245 . S
O90 C64 1.289 . S
O90 Mg67 2.238 . S
O90 Mg68 2.106 1_545 S
O91 Mg68 2.079 1_645 S
O91 C73 1.245 . S
O92 Mg71 2.038 . S
O92 C73 1.274 1_565 S
C93 O105 1.241 . S
C93 O106 1.280 . S
C94 O107 1.277 . S
C94 O108 1.245 . S
C95 O119 1.247 . S
C95 O121 1.289 . S
Mg96 O97 1.926 . S
Mg96 O106 1.984 . S
Mg96 O108 1.988 . S
Mg96 O109 2.061 . S
O97 Mg96 1.926 . S
O97 Mg98 1.986 . S
O97 Mg99 1.917 . S
Mg98 O97 1.986 . S
Mg98 O105 2.042 . S
Mg98 O107 2.041 . S
Mg98 O113 2.038 . S
Mg98 O121 2.238 . S
Mg99 O97 1.917 . S
Mg99 O100 1.917 . S
Mg99 O110 2.106 . S
Mg99 O112 2.079 . S
Mg99 O121 2.106 . S
Mg99 O122 2.079 . S
O100 Mg99 1.917 . S
O100 Mg101 1.926 . S
O100 Mg102 1.986 . S
Mg101 O100 1.926 . S
Mg101 O115 1.984 . S
Mg101 O118 1.988 . S
Mg101 O119 2.061 . S
Mg102 O100 1.986 . S
Mg102 O110 2.238 . S
Mg102 O114 2.042 . S
Mg102 O116 2.041 . S
Mg102 O123 2.038 . S
C103 O109 1.247 . S
C103 O110 1.289 . S
C104 O122 1.245 . S
C104 O123 1.274 . S
O105 C93 1.241 . S
O105 Mg98 2.042 . S
O106 C93 1.280 . S
O106 Mg96 1.984 . S
O107 C94 1.277 . S
O107 Mg98 2.041 . S
O108 C94 1.245 . S
O108 Mg96 1.988 . S
O109 Mg96 2.061 . S
O109 C103 1.247 . S
O110 Mg99 2.106 . S
O110 Mg102 2.238 . S
O110 C103 1.289 . S
C111 O112 1.245 . S
C111 O113 1.274 . S
O112 Mg99 2.079 . S
O112 C111 1.245 . S
O113 Mg98 2.038 . S
O113 C111 1.274 . S
O114 Mg102 2.042 . S
O114 C117 1.241 . S
O115 Mg101 1.984 . S
O115 C117 1.280 . S
O116 Mg102 2.041 . S
O116 C120 1.277 . S
C117 O114 1.241 . S
C117 O115 1.280 . S
O118 Mg101 1.988 . S
O118 C120 1.245 . S
O119 C95 1.247 . S
O119 Mg101 2.061 . S
C120 O116 1.277 . S
C120 O118 1.245 . S
O121 C95 1.289 . S
O121 Mg98 2.238 . S
O121 Mg99 2.106 . S
O122 Mg99 2.079 . S
O122 C104 1.245 . S
O123 Mg102 2.038 . S
O123 C104 1.274 . S
C124 O136 1.241 . S
C124 O137 1.280 . S
C125 O138 1.277 . S
C125 O139 1.245 . S
C126 O150 1.247 . S
C126 O152 1.289 1_655 S
Mg127 O128 1.926 . S
Mg127 O137 1.984 . S
Mg127 O139 1.988 . S
Mg127 O140 2.061 1_455 S
O128 Mg127 1.926 . S
O128 Mg129 1.986 1_554 S
O128 Mg130 1.917 1_454 S
Mg129 O128 1.986 1_556 S
Mg129 O136 2.042 1_556 S
Mg129 O138 2.041 1_556 S
Mg129 O144 2.038 . S
Mg129 O152 2.238 . S
Mg130 O128 1.917 1_656 S
Mg130 O131 1.917 . S
Mg130 O141 2.106 1_556 S
Mg130 O143 2.079 1_655 S
Mg130 O152 2.106 1_655 S
Mg130 O153 2.079 1_556 S
O131 Mg130 1.917 . S
O131 Mg132 1.926 . S
O131 Mg133 1.986 . S
Mg132 O131 1.926 . S
Mg132 O146 1.984 . S
Mg132 O149 1.988 . S
Mg132 O150 2.061 . S
Mg133 O131 1.986 . S
Mg133 O141 2.238 1_556 S
Mg133 O145 2.042 . S
Mg133 O147 2.041 . S
Mg133 O154 2.038 1_556 S
C134 O140 1.247 . S
C134 O141 1.289 . S
C135 O153 1.245 . S
C135 O154 1.274 . S
O136 C124 1.241 . S
O136 Mg129 2.042 1_554 S
O137 C124 1.280 . S
O137 Mg127 1.984 . S
O138 C125 1.277 . S
O138 Mg129 2.041 1_554 S
O139 C125 1.245 . S
O139 Mg127 1.988 . S
O140 Mg127 2.061 1_655 S
O140 C134 1.247 . S
O141 Mg130 2.106 1_554 S
O141 Mg133 2.238 1_554 S
O141 C134 1.289 . S
C142 O143 1.245 . S
C142 O144 1.274 . S
O143 Mg130 2.079 1_455 S
O143 C142 1.245 . S
O144 Mg129 2.038 . S
O144 C142 1.274 . S
O145 Mg133 2.042 . S
O145 C148 1.241 . S
O146 Mg132 1.984 . S
O146 C148 1.280 . S
O147 Mg133 2.041 . S
O147 C151 1.277 . S
C148 O145 1.241 . S
C148 O146 1.280 . S
O149 Mg132 1.988 . S
O149 C151 1.245 . S
O150 C126 1.247 . S
O150 Mg132 2.061 . S
C151 O147 1.277 . S
C151 O149 1.245 . S
O152 C126 1.289 1_455 S
O152 Mg129 2.238 . S
O152 Mg130 2.106 1_455 S
O153 Mg130 2.079 1_554 S
O153 C135 1.245 . S
O154 Mg133 2.038 1_554 S
O154 C135 1.274 . S
C155 O167 1.241 . S
C155 O168 1.280 . S
C156 O169 1.277 . S
C156 O170 1.245 . S
C157 O181 1.247 . S
C157 O183 1.289 . S
Mg158 O159 1.926 . S
Mg158 O168 1.984 . S
Mg158 O170 1.988 . S
Mg158 O171 2.061 . S
O159 Mg158 1.926 . S
O159 Mg160 1.986 1_554 S
O159 Mg161 1.917 1_554 S
Mg160 O159 1.986 1_556 S
Mg160 O167 2.042 1_556 S
Mg160 O169 2.041 1_556 S
Mg160 O175 2.038 . S
Mg160 O183 2.238 . S
Mg161 O159 1.917 1_556 S
Mg161 O162 1.917 1_545 S
Mg161 O172 2.106 1_546 S
Mg161 O174 2.079 1_545 S
Mg161 O183 2.106 . S
Mg161 O184 2.079 1_556 S
O162 Mg161 1.917 1_565 S
O162 Mg163 1.926 . S
O162 Mg164 1.986 . S
Mg163 O162 1.926 . S
Mg163 O177 1.984 . S
Mg163 O180 1.988 . S
Mg163 O181 2.061 1_565 S
Mg164 O162 1.986 . S
Mg164 O172 2.238 1_556 S
Mg164 O176 2.042 . S
Mg164 O178 2.041 . S
Mg164 O185 2.038 1_566 S
C165 O171 1.247 1_565 S
C165 O172 1.289 . S
C166 O184 1.245 . S
C166 O185 1.274 . S
O167 C155 1.241 . S
O167 Mg160 2.042 1_554 S
O168 C155 1.280 . S
O168 Mg158 1.984 . S
O169 C156 1.277 . S
O169 Mg160 2.041 1_554 S
O170 C156 1.245 . S
O170 Mg158 1.988 . S
O171 Mg158 2.061 . S
O171 C165 1.247 1_545 S
O172 Mg161 2.106 1_564 S
O172 Mg164 2.238 1_554 S
O172 C165 1.289 . S
C173 O174 1.245 . S
C173 O175 1.274 1_565 S
O174 Mg161 2.079 1_565 S
O174 C173 1.245 . S
O175 Mg160 2.038 . S
O175 C173 1.274 1_545 S
O176 Mg164 2.042 . S
O176 C179 1.241 . S
O177 Mg163 1.984 . S
O177 C179 1.280 . S
O178 Mg164 2.041 . S
O178 C182 1.277 . S
C179 O176 1.241 . S
C179 O177 1.280 . S
O180 Mg163 1.988 . S
O180 C182 1.245 . S
O181 C157 1.247 . S
O181 Mg163 2.061 1_545 S
C182 O178 1.277 . S
C182 O180 1.245 . S
O183 C157 1.289 . S
O183 Mg160 2.238 . S
O183 Mg161 2.106 . S
O184 Mg161 2.079 1_554 S
O184 C166 1.245 . S
O185 Mg164 2.038 1_544 S
O185 C166 1.274 . S
C186 O198 1.241 . S
C186 O199 1.280 . S
C187 O200 1.277 . S
C187 O201 1.245 . S
C188 O212 1.247 . S
C188 O214 1.289 1_655 S
Mg189 O190 1.926 . S
Mg189 O199 1.984 . S
Mg189 O201 1.988 . S
Mg189 O202 2.061 1_455 S
O190 Mg189 1.926 . S
O190 Mg191 1.986 . S
O190 Mg192 1.917 1_455 S
Mg191 O190 1.986 . S
Mg191 O198 2.042 . S
Mg191 O200 2.041 . S
Mg191 O206 2.038 . S
Mg191 O214 2.238 . S
Mg192 O190 1.917 1_655 S
Mg192 O193 1.917 1_545 S
Mg192 O203 2.106 1_545 S
Mg192 O205 2.079 1_645 S
Mg192 O214 2.106 1_655 S
Mg192 O215 2.079 . S
O193 Mg192 1.917 1_565 S
O193 Mg194 1.926 . S
O193 Mg195 1.986 . S
Mg194 O193 1.926 . S
Mg194 O208 1.984 . S
Mg194 O211 1.988 . S
Mg194 O212 2.061 1_565 S
Mg195 O193 1.986 . S
Mg195 O203 2.238 . S
Mg195 O207 2.042 . S
Mg195 O209 2.041 . S
Mg195 O216 2.038 1_565 S
C196 O202 1.247 1_565 S
C196 O203 1.289 . S
C197 O215 1.245 . S
C197 O216 1.274 . S
O198 C186 1.241 . S
O198 Mg191 2.042 . S
O199 C186 1.280 . S
O199 Mg189 1.984 . S
O200 C187 1.277 . S
O200 Mg191 2.041 . S
O201 C187 1.245 . S
O201 Mg189 1.988 . S
O202 Mg189 2.061 1_655 S
O202 C196 1.247 1_545 S
O203 Mg192 2.106 1_565 S
O203 Mg195 2.238 . S
O203 C196 1.289 . S
C204 O205 1.245 . S
C204 O206 1.274 1_565 S
O205 Mg192 2.079 1_465 S
O205 C204 1.245 . S
O206 Mg191 2.038 . S
O206 C204 1.274 1_545 S
O207 Mg195 2.042 . S
O207 C210 1.241 . S
O208 Mg194 1.984 . S
O208 C210 1.280 . S
O209 Mg195 2.041 . S
O209 C213 1.277 . S
C210 O207 1.241 . S
C210 O208 1.280 . S
O211 Mg194 1.988 . S
O211 C213 1.245 . S
O212 C188 1.247 . S
O212 Mg194 2.061 1_545 S
C213 O209 1.277 . S
C213 O211 1.245 . S
O214 C188 1.289 1_455 S
O214 Mg191 2.238 . S
O214 Mg192 2.106 1_455 S
O215 Mg192 2.079 . S
O215 C197 1.245 . S
O216 Mg195 2.038 1_545 S
O216 C197 1.274 . S
C217 O229 1.241 . S
C217 O230 1.280 . S
C218 O231 1.277 . S
C218 O232 1.245 . S
C219 O243 1.247 . S
C219 O245 1.289 . S
Mg220 O221 1.926 . S
Mg220 O230 1.984 . S
Mg220 O232 1.988 . S
Mg220 O233 2.061 . S
O221 Mg220 1.926 . S
O221 Mg222 1.986 . S
O221 Mg223 1.917 . S
Mg222 O221 1.986 . S
Mg222 O229 2.042 . S
Mg222 O231 2.041 . S
Mg222 O237 2.038 . S
Mg222 O245 2.238 . S
Mg223 O221 1.917 . S
Mg223 O224 1.917 . S
Mg223 O234 2.106 . S
Mg223 O236 2.079 . S
Mg223 O245 2.106 . S
Mg223 O246 2.079 . S
O224 Mg223 1.917 . S
O224 Mg225 1.926 . S
O224 Mg226 1.986 . S
Mg225 O224 1.926 . S
Mg225 O239 1.984 . S
Mg225 O242 1.988 . S
Mg225 O243 2.061 . S
Mg226 O224 1.986 . S
Mg226 O234 2.238 . S
Mg226 O238 2.042 . S
Mg226 O240 2.041 . S
Mg226 O247 2.038 . S
C227 O233 1.247 . S
C227 O234 1.289 . S
C228 O246 1.245 . S
C228 O247 1.274 . S
O229 C217 1.241 . S
O229 Mg222 2.042 . S
O230 C217 1.280 . S
O230 Mg220 1.984 . S
O231 C218 1.277 . S
O231 Mg222 2.041 . S
O232 C218 1.245 . S
O232 Mg220 1.988 . S
O233 Mg220 2.061 . S
O233 C227 1.247 . S
O234 Mg223 2.106 . S
O234 Mg226 2.238 . S
O234 C227 1.289 . S
C235 O236 1.245 . S
C235 O237 1.274 . S
O236 Mg223 2.079 . S
O236 C235 1.245 . S
O237 Mg222 2.038 . S
O237 C235 1.274 . S
O238 Mg226 2.042 . S
O238 C241 1.241 . S
O239 Mg225 1.984 . S
O239 C241 1.280 . S
O240 Mg226 2.041 . S
O240 C244 1.277 . S
C241 O238 1.241 . S
C241 O239 1.280 . S
O242 Mg225 1.988 . S
O242 C244 1.245 . S
O243 C219 1.247 . S
O243 Mg225 2.061 . S
C244 O240 1.277 . S
C244 O242 1.245 . S
O245 C219 1.289 . S
O245 Mg222 2.238 . S
O245 Mg223 2.106 . S
O246 Mg223 2.079 . S
O246 C228 1.245 . S
O247 Mg226 2.038 . S
O247 C228 1.274 . S
C248 O260 1.241 . S
C248 O261 1.280 . S
C249 O262 1.277 . S
C249 O263 1.245 . S
C250 O274 1.247 . S
C250 O276 1.289 . S
Mg251 O252 1.926 . S
Mg251 O261 1.984 . S
Mg251 O263 1.988 . S
Mg251 O264 2.061 . S
O252 Mg251 1.926 . S
O252 Mg253 1.986 . S
O252 Mg254 1.917 . S
Mg253 O252 1.986 . S
Mg253 O260 2.042 . S
Mg253 O262 2.041 . S
Mg253 O268 2.038 . S
Mg253 O276 2.238 . S
Mg254 O252 1.917 . S
Mg254 O255 1.917 1_455 S
Mg254 O265 2.106 1_455 S
Mg254 O267 2.079 . S
Mg254 O276 2.106 . S
Mg254 O277 2.079 1_455 S
O255 Mg254 1.917 1_655 S
O255 Mg256 1.926 . S
O255 Mg257 1.986 . S
Mg256 O255 1.926 . S
Mg256 O270 1.984 . S
Mg256 O273 1.988 . S
Mg256 O274 2.061 1_655 S
Mg257 O255 1.986 . S
Mg257 O265 2.238 . S
Mg257 O269 2.042 . S
Mg257 O271 2.041 . S
Mg257 O278 2.038 . S
C258 O264 1.247 . S
C258 O265 1.289 1_455 S
C259 O277 1.245 . S
C259 O278 1.274 . S
O260 C248 1.241 . S
O260 Mg253 2.042 . S
O261 C248 1.280 . S
O261 Mg251 1.984 . S
O262 C249 1.277 . S
O262 Mg253 2.041 . S
O263 C249 1.245 . S
O263 Mg251 1.988 . S
O264 Mg251 2.061 . S
O264 C258 1.247 . S
O265 Mg254 2.106 1_655 S
O265 Mg257 2.238 . S
O265 C258 1.289 1_655 S
C266 O267 1.245 . S
C266 O268 1.274 . S
O267 Mg254 2.079 . S
O267 C266 1.245 . S
O268 Mg253 2.038 . S
O268 C266 1.274 . S
O269 Mg257 2.042 . S
O269 C272 1.241 . S
O270 Mg256 1.984 . S
O270 C272 1.280 . S
O271 Mg257 2.041 . S
O271 C275 1.277 . S
C272 O269 1.241 . S
C272 O270 1.280 . S
O273 Mg256 1.988 . S
O273 C275 1.245 . S
O274 C250 1.247 . S
O274 Mg256 2.061 1_455 S
C275 O271 1.277 . S
C275 O273 1.245 . S
O276 C250 1.289 . S
O276 Mg253 2.238 . S
O276 Mg254 2.106 . S
O277 Mg254 2.079 1_655 S
O277 C259 1.245 . S
O278 Mg257 2.038 . S
O278 C259 1.274 . S
C279 O291 1.241 . S
C279 O292 1.280 . S
C280 O293 1.277 . S
C280 O294 1.245 . S
C281 O305 1.247 . S
C281 O307 1.289 . S
Mg282 O283 1.926 . S
Mg282 O292 1.984 . S
Mg282 O294 1.988 . S
Mg282 O295 2.061 . S
O283 Mg282 1.926 . S
O283 Mg284 1.986 . S
O283 Mg285 1.917 . S
Mg284 O283 1.986 . S
Mg284 O291 2.042 . S
Mg284 O293 2.041 . S
Mg284 O299 2.038 . S
Mg284 O307 2.238 . S
Mg285 O283 1.917 . S
Mg285 O286 1.917 . S
Mg285 O296 2.106 . S
Mg285 O298 2.079 . S
Mg285 O307 2.106 . S
Mg285 O308 2.079 . S
O286 Mg285 1.917 . S
O286 Mg287 1.926 . S
O286 Mg288 1.986 . S
Mg287 O286 1.926 . S
Mg287 O301 1.984 . S
Mg287 O304 1.988 . S
Mg287 O305 2.061 . S
Mg288 O286 1.986 . S
Mg288 O296 2.238 . S
Mg288 O300 2.042 . S
Mg288 O302 2.041 . S
Mg288 O309 2.038 . S
C289 O295 1.247 . S
C289 O296 1.289 . S
C290 O308 1.245 . S
C290 O309 1.274 . S
O291 C279 1.241 . S
O291 Mg284 2.042 . S
O292 C279 1.280 . S
O292 Mg282 1.984 . S
O293 C280 1.277 . S
O293 Mg284 2.041 . S
O294 C280 1.245 . S
O294 Mg282 1.988 . S
O295 Mg282 2.061 . S
O295 C289 1.247 . S
O296 Mg285 2.106 . S
O296 Mg288 2.238 . S
O296 C289 1.289 . S
C297 O298 1.245 . S
C297 O299 1.274 . S
O298 Mg285 2.079 . S
O298 C297 1.245 . S
O299 Mg284 2.038 . S
O299 C297 1.274 . S
O300 Mg288 2.042 . S
O300 C303 1.241 . S
O301 Mg287 1.984 . S
O301 C303 1.280 . S
O302 Mg288 2.041 . S
O302 C306 1.277 . S
C303 O300 1.241 . S
C303 O301 1.280 . S
O304 Mg287 1.988 . S
O304 C306 1.245 . S
O305 C281 1.247 . S
O305 Mg287 2.061 . S
C306 O302 1.277 . S
C306 O304 1.245 . S
O307 C281 1.289 . S
O307 Mg284 2.238 . S
O307 Mg285 2.106 . S
O308 Mg285 2.079 . S
O308 C290 1.245 . S
O309 Mg288 2.038 . S
O309 C290 1.274 . S
C310 O322 1.241 . S
C310 O323 1.280 . S
C311 O324 1.277 . S
C311 O325 1.245 . S
C312 O336 1.247 . S
C312 O338 1.289 . S
Mg313 O314 1.926 . S
Mg313 O323 1.984 . S
Mg313 O325 1.988 . S
Mg313 O326 2.061 . S
O314 Mg313 1.926 . S
O314 Mg315 1.986 . S
O314 Mg316 1.917 . S
Mg315 O314 1.986 . S
Mg315 O322 2.042 . S
Mg315 O324 2.041 . S
Mg315 O330 2.038 . S
Mg315 O338 2.238 . S
Mg316 O314 1.917 . S
Mg316 O317 1.917 1_455 S
Mg316 O327 2.106 1_455 S
Mg316 O329 2.079 . S
Mg316 O338 2.106 . S
Mg316 O339 2.079 1_455 S
O317 Mg316 1.917 1_655 S
O317 Mg318 1.926 . S
O317 Mg319 1.986 . S
Mg318 O317 1.926 . S
Mg318 O332 1.984 . S
Mg318 O335 1.988 . S
Mg318 O336 2.061 1_655 S
Mg319 O317 1.986 . S
Mg319 O327 2.238 . S
Mg319 O331 2.042 . S
Mg319 O333 2.041 . S
Mg319 O340 2.038 . S
C320 O326 1.247 . S
C320 O327 1.289 1_455 S
C321 O339 1.245 . S
C321 O340 1.274 . S
O322 C310 1.241 . S
O322 Mg315 2.042 . S
O323 C310 1.280 . S
O323 Mg313 1.984 . S
O324 C311 1.277 . S
O324 Mg315 2.041 . S
O325 C311 1.245 . S
O325 Mg313 1.988 . S
O326 Mg313 2.061 . S
O326 C320 1.247 . S
O327 Mg316 2.106 1_655 S
O327 Mg319 2.238 . S
O327 C320 1.289 1_655 S
C328 O329 1.245 . S
C328 O330 1.274 . S
O329 Mg316 2.079 . S
O329 C328 1.245 . S
O330 Mg315 2.038 . S
O330 C328 1.274 . S
O331 Mg319 2.042 . S
O331 C334 1.241 . S
O332 Mg318 1.984 . S
O332 C334 1.280 . S
O333 Mg319 2.041 . S
O333 C337 1.277 . S
C334 O331 1.241 . S
C334 O332 1.280 . S
O335 Mg318 1.988 . S
O335 C337 1.245 . S
O336 C312 1.247 . S
O336 Mg318 2.061 1_455 S
C337 O333 1.277 . S
C337 O335 1.245 . S
O338 C312 1.289 . S
O338 Mg315 2.238 . S
O338 Mg316 2.106 . S
O339 Mg316 2.079 1_655 S
O339 C321 1.245 . S
O340 Mg319 2.038 . S
O340 C321 1.274 . S
C341 O353 1.241 . S
C341 O354 1.280 . S
C342 O355 1.277 . S
C342 O356 1.245 . S
C343 O367 1.247 . S
C343 O369 1.289 . S
Mg344 O345 1.926 . S
Mg344 O354 1.984 . S
Mg344 O356 1.988 . S
Mg344 O357 2.061 . S
O345 Mg344 1.926 . S
O345 Mg346 1.986 . S
O345 Mg347 1.917 . S
Mg346 O345 1.986 . S
Mg346 O353 2.042 . S
Mg346 O355 2.041 . S
Mg346 O361 2.038 . S
Mg346 O369 2.238 . S
Mg347 O345 1.917 . S
Mg347 O348 1.917 . S
Mg347 O358 2.106 . S
Mg347 O360 2.079 . S
Mg347 O369 2.106 . S
Mg347 O370 2.079 . S
O348 Mg347 1.917 . S
O348 Mg349 1.926 . S
O348 Mg350 1.986 . S
Mg349 O348 1.926 . S
Mg349 O363 1.984 . S
Mg349 O366 1.988 . S
Mg349 O367 2.061 . S
Mg350 O348 1.986 . S
Mg350 O358 2.238 . S
Mg350 O362 2.042 . S
Mg350 O364 2.041 . S
Mg350 O371 2.038 . S
C351 O357 1.247 . S
C351 O358 1.289 . S
C352 O370 1.245 . S
C352 O371 1.274 . S
O353 C341 1.241 . S
O353 Mg346 2.042 . S
O354 C341 1.280 . S
O354 Mg344 1.984 . S
O355 C342 1.277 . S
O355 Mg346 2.041 . S
O356 C342 1.245 . S
O356 Mg344 1.988 . S
O357 Mg344 2.061 . S
O357 C351 1.247 . S
O358 Mg347 2.106 . S
O358 Mg350 2.238 . S
O358 C351 1.289 . S
C359 O360 1.245 . S
C359 O361 1.274 . S
O360 Mg347 2.079 . S
O360 C359 1.245 . S
O361 Mg346 2.038 . S
O361 C359 1.274 . S
O362 Mg350 2.042 . S
O362 C365 1.241 . S
O363 Mg349 1.984 . S
O363 C365 1.280 . S
O364 Mg350 2.041 . S
O364 C368 1.277 . S
C365 O362 1.241 . S
C365 O363 1.280 . S
O366 Mg349 1.988 . S
O366 C368 1.245 . S
O367 C343 1.247 . S
O367 Mg349 2.061 . S
C368 O364 1.277 . S
C368 O366 1.245 . S
O369 C343 1.289 . S
O369 Mg346 2.238 . S
O369 Mg347 2.106 . S
O370 Mg347 2.079 . S
O370 C352 1.245 . S
O371 Mg350 2.038 . S
O371 C352 1.274 . S
C372 O384 1.241 . S
C372 O385 1.280 . S
C373 O386 1.277 . S
C373 O387 1.245 . S
C374 O398 1.247 . S
C374 O400 1.289 1_655 S
Mg375 O376 1.926 . S
Mg375 O385 1.984 . S
Mg375 O387 1.988 . S
Mg375 O388 2.061 1_455 S
O376 Mg375 1.926 . S
O376 Mg377 1.986 . S
O376 Mg378 1.917 1_455 S
Mg377 O376 1.986 . S
Mg377 O384 2.042 . S
Mg377 O386 2.041 . S
Mg377 O392 2.038 . S
Mg377 O400 2.238 . S
Mg378 O376 1.917 1_655 S
Mg378 O379 1.917 . S
Mg378 O389 2.106 . S
Mg378 O391 2.079 1_655 S
Mg378 O400 2.106 1_655 S
Mg378 O401 2.079 . S
O379 Mg378 1.917 . S
O379 Mg380 1.926 . S
O379 Mg381 1.986 . S
Mg380 O379 1.926 . S
Mg380 O394 1.984 . S
Mg380 O397 1.988 . S
Mg380 O398 2.061 . S
Mg381 O379 1.986 . S
Mg381 O389 2.238 . S
Mg381 O393 2.042 . S
Mg381 O395 2.041 . S
Mg381 O402 2.038 . S
C382 O388 1.247 . S
C382 O389 1.289 . S
C383 O401 1.245 . S
C383 O402 1.274 . S
O384 C372 1.241 . S
O384 Mg377 2.042 . S
O385 C372 1.280 . S
O385 Mg375 1.984 . S
O386 C373 1.277 . S
O386 Mg377 2.041 . S
O387 C373 1.245 . S
O387 Mg375 1.988 . S
O388 Mg375 2.061 1_655 S
O388 C382 1.247 . S
O389 Mg378 2.106 . S
O389 Mg381 2.238 . S
O389 C382 1.289 . S
C390 O391 1.245 . S
C390 O392 1.274 . S
O391 Mg378 2.079 1_455 S
O391 C390 1.245 . S
O392 Mg377 2.038 . S
O392 C390 1.274 . S
O393 Mg381 2.042 . S
O393 C396 1.241 . S
O394 Mg380 1.984 . S
O394 C396 1.280 . S
O395 Mg381 2.041 . S
O395 C399 1.277 . S
C396 O393 1.241 . S
C396 O394 1.280 . S
O397 Mg380 1.988 . S
O397 C399 1.245 . S
O398 C374 1.247 . S
O398 Mg380 2.061 . S
C399 O395 1.277 . S
C399 O397 1.245 . S
O400 C374 1.289 1_455 S
O400 Mg377 2.238 . S
O400 Mg378 2.106 1_455 S
O401 Mg378 2.079 . S
O401 C383 1.245 . S
O402 Mg381 2.038 . S
O402 C383 1.274 . S
C403 O415 1.241 . S
C403 O416 1.280 . S
C404 O417 1.277 . S
C404 O418 1.245 . S
C405 O429 1.247 . S
C405 O431 1.289 . S
Mg406 O407 1.926 . S
Mg406 O416 1.984 . S
Mg406 O418 1.988 . S
Mg406 O419 2.061 . S
O407 Mg406 1.926 . S
O407 Mg408 1.986 . S
O407 Mg409 1.917 . S
Mg408 O407 1.986 . S
Mg408 O415 2.042 . S
Mg408 O417 2.041 . S
Mg408 O423 2.038 . S
Mg408 O431 2.238 . S
Mg409 O407 1.917 . S
Mg409 O410 1.917 . S
Mg409 O420 2.106 . S
Mg409 O422 2.079 . S
Mg409 O431 2.106 . S
Mg409 O432 2.079 . S
O410 Mg409 1.917 . S
O410 Mg411 1.926 . S
O410 Mg412 1.986 . S
Mg411 O410 1.926 . S
Mg411 O425 1.984 . S
Mg411 O428 1.988 . S
Mg411 O429 2.061 . S
Mg412 O410 1.986 . S
Mg412 O420 2.238 . S
Mg412 O424 2.042 . S
Mg412 O426 2.041 . S
Mg412 O433 2.038 . S
C413 O419 1.247 . S
C413 O420 1.289 . S
C414 O432 1.245 . S
C414 O433 1.274 . S
O415 C403 1.241 . S
O415 Mg408 2.042 . S
O416 C403 1.280 . S
O416 Mg406 1.984 . S
O417 C404 1.277 . S
O417 Mg408 2.041 . S
O418 C404 1.245 . S
O418 Mg406 1.988 . S
O419 Mg406 2.061 . S
O419 C413 1.247 . S
O420 Mg409 2.106 . S
O420 Mg412 2.238 . S
O420 C413 1.289 . S
C421 O422 1.245 . S
C421 O423 1.274 . S
O422 Mg409 2.079 . S
O422 C421 1.245 . S
O423 Mg408 2.038 . S
O423 C421 1.274 . S
O424 Mg412 2.042 . S
O424 C427 1.241 . S
O425 Mg411 1.984 . S
O425 C427 1.280 . S
O426 Mg412 2.041 . S
O426 C430 1.277 . S
C427 O424 1.241 . S
C427 O425 1.280 . S
O428 Mg411 1.988 . S
O428 C430 1.245 . S
O429 C405 1.247 . S
O429 Mg411 2.061 . S
C430 O426 1.277 . S
C430 O428 1.245 . S
O431 C405 1.289 . S
O431 Mg408 2.238 . S
O431 Mg409 2.106 . S
O432 Mg409 2.079 . S
O432 C414 1.245 . S
O433 Mg412 2.038 . S
O433 C414 1.274 . S
C434 O446 1.241 . S
C434 O447 1.280 . S
C435 O448 1.277 . S
C435 O449 1.245 . S
C436 O460 1.247 . S
C436 O462 1.289 1_655 S
Mg437 O438 1.926 . S
Mg437 O447 1.984 . S
Mg437 O449 1.988 . S
Mg437 O450 2.061 1_455 S
O438 Mg437 1.926 . S
O438 Mg439 1.986 . S
O438 Mg440 1.917 1_455 S
Mg439 O438 1.986 . S
Mg439 O446 2.042 . S
Mg439 O448 2.041 . S
Mg439 O454 2.038 . S
Mg439 O462 2.238 . S
Mg440 O438 1.917 1_655 S
Mg440 O441 1.917 . S
Mg440 O451 2.106 . S
Mg440 O453 2.079 1_655 S
Mg440 O462 2.106 1_655 S
Mg440 O463 2.079 . S
O441 Mg440 1.917 . S
O441 Mg442 1.926 . S
O441 Mg443 1.986 . S
Mg442 O441 1.926 . S
Mg442 O456 1.984 . S
Mg442 O459 1.988 . S
Mg442 O460 2.061 . S
Mg443 O441 1.986 . S
Mg443 O451 2.238 . S
Mg443 O455 2.042 . S
Mg443 O457 2.041 . S
Mg443 O464 2.038 . S
C444 O450 1.247 . S
C444 O451 1.289 . S
C445 O463 1.245 . S
C445 O464 1.274 . S
O446 C434 1.241 . S
O446 Mg439 2.042 . S
O447 C434 1.280 . S
O447 Mg437 1.984 . S
O448 C435 1.277 . S
O448 Mg439 2.041 . S
O449 C435 1.245 . S
O449 Mg437 1.988 . S
O450 Mg437 2.061 1_655 S
O450 C444 1.247 . S
O451 Mg440 2.106 . S
O451 Mg443 2.238 . S
O451 C444 1.289 . S
C452 O453 1.245 . S
C452 O454 1.274 . S
O453 Mg440 2.079 1_455 S
O453 C452 1.245 . S
O454 Mg439 2.038 . S
O454 C452 1.274 . S
O455 Mg443 2.042 . S
O455 C458 1.241 . S
O456 Mg442 1.984 . S
O456 C458 1.280 . S
O457 Mg443 2.041 . S
O457 C461 1.277 . S
C458 O455 1.241 . S
C458 O456 1.280 . S
O459 Mg442 1.988 . S
O459 C461 1.245 . S
O460 C436 1.247 . S
O460 Mg442 2.061 . S
C461 O457 1.277 . S
C461 O459 1.245 . S
O462 C436 1.289 1_455 S
O462 Mg439 2.238 . S
O462 Mg440 2.106 1_455 S
O463 Mg440 2.079 . S
O463 C445 1.245 . S
O464 Mg443 2.038 . S
O464 C445 1.274 . S
C465 O477 1.241 . S
C465 O478 1.280 . S
C466 O479 1.277 . S
C466 O480 1.245 . S
C467 O491 1.247 . S
C467 O493 1.289 . S
Mg468 O469 1.926 . S
Mg468 O478 1.984 . S
Mg468 O480 1.988 . S
Mg468 O481 2.061 . S
O469 Mg468 1.926 . S
O469 Mg470 1.986 . S
O469 Mg471 1.917 . S
Mg470 O469 1.986 . S
Mg470 O477 2.042 . S
Mg470 O479 2.041 . S
Mg470 O485 2.038 . S
Mg470 O493 2.238 . S
Mg471 O469 1.917 . S
Mg471 O472 1.917 . S
Mg471 O482 2.106 . S
Mg471 O484 2.079 . S
Mg471 O493 2.106 . S
Mg471 O494 2.079 . S
O472 Mg471 1.917 . S
O472 Mg473 1.926 . S
O472 Mg474 1.986 . S
Mg473 O472 1.926 . S
Mg473 O487 1.984 . S
Mg473 O490 1.988 . S
Mg473 O491 2.061 . S
Mg474 O472 1.986 . S
Mg474 O482 2.238 . S
Mg474 O486 2.042 . S
Mg474 O488 2.041 . S
Mg474 O495 2.038 . S
C475 O481 1.247 . S
C475 O482 1.289 . S
C476 O494 1.245 . S
C476 O495 1.274 . S
O477 C465 1.241 . S
O477 Mg470 2.042 . S
O478 C465 1.280 . S
O478 Mg468 1.984 . S
O479 C466 1.277 . S
O479 Mg470 2.041 . S
O480 C466 1.245 . S
O480 Mg468 1.988 . S
O481 Mg468 2.061 . S
O481 C475 1.247 . S
O482 Mg471 2.106 . S
O482 Mg474 2.238 . S
O482 C475 1.289 . S
C483 O484 1.245 . S
C483 O485 1.274 . S
O484 Mg471 2.079 . S
O484 C483 1.245 . S
O485 Mg470 2.038 . S
O485 C483 1.274 . S
O486 Mg474 2.042 . S
O486 C489 1.241 . S
O487 Mg473 1.984 . S
O487 C489 1.280 . S
O488 Mg474 2.041 . S
O488 C492 1.277 . S
C489 O486 1.241 . S
C489 O487 1.280 . S
O490 Mg473 1.988 . S
O490 C492 1.245 . S
O491 C467 1.247 . S
O491 Mg473 2.061 . S
C492 O488 1.277 . S
C492 O490 1.245 . S
O493 C467 1.289 . S
O493 Mg470 2.238 . S
O493 Mg471 2.106 . S
O494 Mg471 2.079 . S
O494 C476 1.245 . S
O495 Mg474 2.038 . S
O495 C476 1.274 . S
C496 O508 1.241 . S
C496 O509 1.280 . S
C497 O510 1.277 . S
C497 O511 1.245 . S
C498 O522 1.247 . S
C498 O524 1.289 . S
Mg499 O500 1.926 . S
Mg499 O509 1.984 . S
Mg499 O511 1.988 . S
Mg499 O512 2.061 . S
O500 Mg499 1.926 . S
O500 Mg501 1.986 . S
O500 Mg502 1.917 . S
Mg501 O500 1.986 . S
Mg501 O508 2.042 . S
Mg501 O510 2.041 . S
Mg501 O516 2.038 . S
Mg501 O524 2.238 . S
Mg502 O500 1.917 . S
Mg502 O503 1.917 . S
Mg502 O513 2.106 . S
Mg502 O515 2.079 . S
Mg502 O524 2.106 . S
Mg502 O525 2.079 . S
O503 Mg502 1.917 . S
O503 Mg504 1.926 . S
O503 Mg505 1.986 . S
Mg504 O503 1.926 . S
Mg504 O518 1.984 . S
Mg504 O521 1.988 . S
Mg504 O522 2.061 . S
Mg505 O503 1.986 . S
Mg505 O513 2.238 . S
Mg505 O517 2.042 . S
Mg505 O519 2.041 . S
Mg505 O526 2.038 . S
C506 O512 1.247 . S
C506 O513 1.289 . S
C507 O525 1.245 . S
C507 O526 1.274 . S
O508 C496 1.241 . S
O508 Mg501 2.042 . S
O509 C496 1.280 . S
O509 Mg499 1.984 . S
O510 C497 1.277 . S
O510 Mg501 2.041 . S
O511 C497 1.245 . S
O511 Mg499 1.988 . S
O512 Mg499 2.061 . S
O512 C506 1.247 . S
O513 Mg502 2.106 . S
O513 Mg505 2.238 . S
O513 C506 1.289 . S
C514 O515 1.245 . S
C514 O516 1.274 . S
O515 Mg502 2.079 . S
O515 C514 1.245 . S
O516 Mg501 2.038 . S
O516 C514 1.274 . S
O517 Mg505 2.042 . S
O517 C520 1.241 . S
O518 Mg504 1.984 . S
O518 C520 1.280 . S
O519 Mg505 2.041 . S
O519 C523 1.277 . S
C520 O517 1.241 . S
C520 O518 1.280 . S
O521 Mg504 1.988 . S
O521 C523 1.245 . S
O522 C498 1.247 . S
O522 Mg504 2.061 . S
C523 O519 1.277 . S
C523 O521 1.245 . S
O524 C498 1.289 . S
O524 Mg501 2.238 . S
O524 Mg502 2.106 . S
O525 Mg502 2.079 . S
O525 C507 1.245 . S
O526 Mg505 2.038 . S
O526 C507 1.274 . S
C527 O539 1.241 . S
C527 O540 1.280 . S
C528 O541 1.277 . S
C528 O542 1.245 . S
C529 O553 1.247 1_545 S
C529 O555 1.289 . S
Mg530 O531 1.926 . S
Mg530 O540 1.984 . S
Mg530 O542 1.988 . S
Mg530 O543 2.061 1_545 S
O531 Mg530 1.926 . S
O531 Mg532 1.986 . S
O531 Mg533 1.917 1_545 S
Mg532 O531 1.986 . S
Mg532 O539 2.042 . S
Mg532 O541 2.041 . S
Mg532 O547 2.038 1_545 S
Mg532 O555 2.238 . S
Mg533 O531 1.917 1_565 S
Mg533 O534 1.917 . S
Mg533 O544 2.106 . S
Mg533 O546 2.079 . S
Mg533 O555 2.106 1_565 S
Mg533 O556 2.079 1_565 S
O534 Mg533 1.917 . S
O534 Mg535 1.926 . S
O534 Mg536 1.986 . S
Mg535 O534 1.926 . S
Mg535 O549 1.984 . S
Mg535 O552 1.988 . S
Mg535 O553 2.061 . S
Mg536 O534 1.986 . S
Mg536 O544 2.238 . S
Mg536 O548 2.042 . S
Mg536 O550 2.041 . S
Mg536 O557 2.038 . S
C537 O543 1.247 . S
C537 O544 1.289 . S
C538 O556 1.245 . S
C538 O557 1.274 1_545 S
O539 C527 1.241 . S
O539 Mg532 2.042 . S
O540 C527 1.280 . S
O540 Mg530 1.984 . S
O541 C528 1.277 . S
O541 Mg532 2.041 . S
O542 C528 1.245 . S
O542 Mg530 1.988 . S
O543 Mg530 2.061 1_565 S
O543 C537 1.247 . S
O544 Mg533 2.106 . S
O544 Mg536 2.238 . S
O544 C537 1.289 . S
C545 O546 1.245 . S
C545 O547 1.274 . S
O546 Mg533 2.079 . S
O546 C545 1.245 . S
O547 Mg532 2.038 1_565 S
O547 C545 1.274 . S
O548 Mg536 2.042 . S
O548 C551 1.241 . S
O549 Mg535 1.984 . S
O549 C551 1.280 . S
O550 Mg536 2.041 . S
O550 C554 1.277 . S
C551 O548 1.241 . S
C551 O549 1.280 . S
O552 Mg535 1.988 . S
O552 C554 1.245 . S
O553 C529 1.247 1_565 S
O553 Mg535 2.061 . S
C554 O550 1.277 . S
C554 O552 1.245 . S
O555 C529 1.289 . S
O555 Mg532 2.238 . S
O555 Mg533 2.106 1_545 S
O556 Mg533 2.079 1_545 S
O556 C538 1.245 . S
O557 Mg536 2.038 . S
O557 C538 1.274 1_565 S
C558 O570 1.241 . S
C558 O571 1.280 . S
C559 O572 1.277 . S
C559 O573 1.245 . S
C560 O584 1.247 1_545 S
C560 O586 1.289 . S
Mg561 O562 1.926 . S
Mg561 O571 1.984 . S
Mg561 O573 1.988 . S
Mg561 O574 2.061 1_545 S
O562 Mg561 1.926 . S
O562 Mg563 1.986 . S
O562 Mg564 1.917 1_545 S
Mg563 O562 1.986 . S
Mg563 O570 2.042 . S
Mg563 O572 2.041 . S
Mg563 O578 2.038 1_545 S
Mg563 O586 2.238 . S
Mg564 O562 1.917 1_565 S
Mg564 O565 1.917 . S
Mg564 O575 2.106 . S
Mg564 O577 2.079 . S
Mg564 O586 2.106 1_565 S
Mg564 O587 2.079 1_565 S
O565 Mg564 1.917 . S
O565 Mg566 1.926 . S
O565 Mg567 1.986 . S
Mg566 O565 1.926 . S
Mg566 O580 1.984 . S
Mg566 O583 1.988 . S
Mg566 O584 2.061 . S
Mg567 O565 1.986 . S
Mg567 O575 2.238 . S
Mg567 O579 2.042 . S
Mg567 O581 2.041 . S
Mg567 O588 2.038 . S
C568 O574 1.247 . S
C568 O575 1.289 . S
C569 O587 1.245 . S
C569 O588 1.274 1_545 S
O570 C558 1.241 . S
O570 Mg563 2.042 . S
O571 C558 1.280 . S
O571 Mg561 1.984 . S
O572 C559 1.277 . S
O572 Mg563 2.041 . S
O573 C559 1.245 . S
O573 Mg561 1.988 . S
O574 Mg561 2.061 1_565 S
O574 C568 1.247 . S
O575 Mg564 2.106 . S
O575 Mg567 2.238 . S
O575 C568 1.289 . S
C576 O577 1.245 . S
C576 O578 1.274 . S
O577 Mg564 2.079 . S
O577 C576 1.245 . S
O578 Mg563 2.038 1_565 S
O578 C576 1.274 . S
O579 Mg567 2.042 . S
O579 C582 1.241 . S
O580 Mg566 1.984 . S
O580 C582 1.280 . S
O581 Mg567 2.041 . S
O581 C585 1.277 . S
C582 O579 1.241 . S
C582 O580 1.280 . S
O583 Mg566 1.988 . S
O583 C585 1.245 . S
O584 C560 1.247 1_565 S
O584 Mg566 2.061 . S
C585 O581 1.277 . S
C585 O583 1.245 . S
O586 C560 1.289 . S
O586 Mg563 2.238 . S
O586 Mg564 2.106 1_545 S
O587 Mg564 2.079 1_545 S
O587 C569 1.245 . S
O588 Mg567 2.038 . S
O588 C569 1.274 1_565 S
C589 O601 1.241 . S
C589 O602 1.280 . S
C590 O603 1.277 . S
C590 O604 1.245 . S
C591 O615 1.247 . S
C591 O617 1.289 . S
Mg592 O593 1.926 . S
Mg592 O602 1.984 . S
Mg592 O604 1.988 . S
Mg592 O605 2.061 . S
O593 Mg592 1.926 . S
O593 Mg594 1.986 . S
O593 Mg595 1.917 . S
Mg594 O593 1.986 . S
Mg594 O601 2.042 . S
Mg594 O603 2.041 . S
Mg594 O609 2.038 . S
Mg594 O617 2.238 . S
Mg595 O593 1.917 . S
Mg595 O596 1.917 . S
Mg595 O606 2.106 . S
Mg595 O608 2.079 . S
Mg595 O617 2.106 . S
Mg595 O618 2.079 . S
O596 Mg595 1.917 . S
O596 Mg597 1.926 . S
O596 Mg598 1.986 . S
Mg597 O596 1.926 . S
Mg597 O611 1.984 . S
Mg597 O614 1.988 . S
Mg597 O615 2.061 . S
Mg598 O596 1.986 . S
Mg598 O606 2.238 . S
Mg598 O610 2.042 . S
Mg598 O612 2.041 . S
Mg598 O619 2.038 . S
C599 O605 1.247 . S
C599 O606 1.289 . S
C600 O618 1.245 . S
C600 O619 1.274 . S
O601 C589 1.241 . S
O601 Mg594 2.042 . S
O602 C589 1.280 . S
O602 Mg592 1.984 . S
O603 C590 1.277 . S
O603 Mg594 2.041 . S
O604 C590 1.245 . S
O604 Mg592 1.988 . S
O605 Mg592 2.061 . S
O605 C599 1.247 . S
O606 Mg595 2.106 . S
O606 Mg598 2.238 . S
O606 C599 1.289 . S
C607 O608 1.245 . S
C607 O609 1.274 . S
O608 Mg595 2.079 . S
O608 C607 1.245 . S
O609 Mg594 2.038 . S
O609 C607 1.274 . S
O610 Mg598 2.042 . S
O610 C613 1.241 . S
O611 Mg597 1.984 . S
O611 C613 1.280 . S
O612 Mg598 2.041 . S
O612 C616 1.277 . S
C613 O610 1.241 . S
C613 O611 1.280 . S
O614 Mg597 1.988 . S
O614 C616 1.245 . S
O615 C591 1.247 . S
O615 Mg597 2.061 . S
C616 O612 1.277 . S
C616 O614 1.245 . S
O617 C591 1.289 . S
O617 Mg594 2.238 . S
O617 Mg595 2.106 . S
O618 Mg595 2.079 . S
O618 C600 1.245 . S
O619 Mg598 2.038 . S
O619 C600 1.274 . S
C620 O632 1.241 . S
C620 O633 1.280 . S
C621 O634 1.277 . S
C621 O635 1.245 . S
C622 O646 1.247 . S
C622 O648 1.289 . S
Mg623 O624 1.926 . S
Mg623 O633 1.984 . S
Mg623 O635 1.988 . S
Mg623 O636 2.061 . S
O624 Mg623 1.926 . S
O624 Mg625 1.986 . S
O624 Mg626 1.917 . S
Mg625 O624 1.986 . S
Mg625 O632 2.042 . S
Mg625 O634 2.041 . S
Mg625 O640 2.038 . S
Mg625 O648 2.238 . S
Mg626 O624 1.917 . S
Mg626 O627 1.917 . S
Mg626 O637 2.106 . S
Mg626 O639 2.079 . S
Mg626 O648 2.106 . S
Mg626 O649 2.079 . S
O627 Mg626 1.917 . S
O627 Mg628 1.926 . S
O627 Mg629 1.986 . S
Mg628 O627 1.926 . S
Mg628 O642 1.984 . S
Mg628 O645 1.988 . S
Mg628 O646 2.061 . S
Mg629 O627 1.986 . S
Mg629 O637 2.238 . S
Mg629 O641 2.042 . S
Mg629 O643 2.041 . S
Mg629 O650 2.038 . S
C630 O636 1.247 . S
C630 O637 1.289 . S
C631 O649 1.245 . S
C631 O650 1.274 . S
O632 C620 1.241 . S
O632 Mg625 2.042 . S
O633 C620 1.280 . S
O633 Mg623 1.984 . S
O634 C621 1.277 . S
O634 Mg625 2.041 . S
O635 C621 1.245 . S
O635 Mg623 1.988 . S
O636 Mg623 2.061 . S
O636 C630 1.247 . S
O637 Mg626 2.106 . S
O637 Mg629 2.238 . S
O637 C630 1.289 . S
C638 O639 1.245 . S
C638 O640 1.274 . S
O639 Mg626 2.079 . S
O639 C638 1.245 . S
O640 Mg625 2.038 . S
O640 C638 1.274 . S
O641 Mg629 2.042 . S
O641 C644 1.241 . S
O642 Mg628 1.984 . S
O642 C644 1.280 . S
O643 Mg629 2.041 . S
O643 C647 1.277 . S
C644 O641 1.241 . S
C644 O642 1.280 . S
O645 Mg628 1.988 . S
O645 C647 1.245 . S
O646 C622 1.247 . S
O646 Mg628 2.061 . S
C647 O643 1.277 . S
C647 O645 1.245 . S
O648 C622 1.289 . S
O648 Mg625 2.238 . S
O648 Mg626 2.106 . S
O649 Mg626 2.079 . S
O649 C631 1.245 . S
O650 Mg629 2.038 . S
O650 C631 1.274 . S
C651 O663 1.241 . S
C651 O664 1.280 . S
C652 O665 1.277 . S
C652 O666 1.245 . S
C653 O677 1.247 . S
C653 O679 1.289 . S
Mg654 O655 1.926 . S
Mg654 O664 1.984 . S
Mg654 O666 1.988 . S
Mg654 O667 2.061 . S
O655 Mg654 1.926 . S
O655 Mg656 1.986 . S
O655 Mg657 1.917 . S
Mg656 O655 1.986 . S
Mg656 O663 2.042 . S
Mg656 O665 2.041 . S
Mg656 O671 2.038 . S
Mg656 O679 2.238 . S
Mg657 O655 1.917 . S
Mg657 O658 1.917 1_545 S
Mg657 O668 2.106 1_545 S
Mg657 O670 2.079 1_545 S
Mg657 O679 2.106 . S
Mg657 O680 2.079 . S
O658 Mg657 1.917 1_565 S
O658 Mg659 1.926 . S
O658 Mg660 1.986 . S
Mg659 O658 1.926 . S
Mg659 O673 1.984 . S
Mg659 O676 1.988 . S
Mg659 O677 2.061 1_565 S
Mg660 O658 1.986 . S
Mg660 O668 2.238 . S
Mg660 O672 2.042 . S
Mg660 O674 2.041 . S
Mg660 O681 2.038 1_565 S
C661 O667 1.247 1_565 S
C661 O668 1.289 . S
C662 O680 1.245 . S
C662 O681 1.274 . S
O663 C651 1.241 . S
O663 Mg656 2.042 . S
O664 C651 1.280 . S
O664 Mg654 1.984 . S
O665 C652 1.277 . S
O665 Mg656 2.041 . S
O666 C652 1.245 . S
O666 Mg654 1.988 . S
O667 Mg654 2.061 . S
O667 C661 1.247 1_545 S
O668 Mg657 2.106 1_565 S
O668 Mg660 2.238 . S
O668 C661 1.289 . S
C669 O670 1.245 . S
C669 O671 1.274 1_565 S
O670 Mg657 2.079 1_565 S
O670 C669 1.245 . S
O671 Mg656 2.038 . S
O671 C669 1.274 1_545 S
O672 Mg660 2.042 . S
O672 C675 1.241 . S
O673 Mg659 1.984 . S
O673 C675 1.280 . S
O674 Mg660 2.041 . S
O674 C678 1.277 . S
C675 O672 1.241 . S
C675 O673 1.280 . S
O676 Mg659 1.988 . S
O676 C678 1.245 . S
O677 C653 1.247 . S
O677 Mg659 2.061 1_545 S
C678 O674 1.277 . S
C678 O676 1.245 . S
O679 C653 1.289 . S
O679 Mg656 2.238 . S
O679 Mg657 2.106 . S
O680 Mg657 2.079 . S
O680 C662 1.245 . S
O681 Mg660 2.038 1_545 S
O681 C662 1.274 . S
C682 O694 1.241 . S
C682 O695 1.280 . S
C683 O696 1.277 . S
C683 O697 1.245 . S
C684 O708 1.247 . S
C684 O710 1.289 . S
Mg685 O686 1.926 . S
Mg685 O695 1.984 . S
Mg685 O697 1.988 . S
Mg685 O698 2.061 . S
O686 Mg685 1.926 . S
O686 Mg687 1.986 . S
O686 Mg688 1.917 . S
Mg687 O686 1.986 . S
Mg687 O694 2.042 . S
Mg687 O696 2.041 . S
Mg687 O702 2.038 . S
Mg687 O710 2.238 . S
Mg688 O686 1.917 . S
Mg688 O689 1.917 1_545 S
Mg688 O699 2.106 1_545 S
Mg688 O701 2.079 1_545 S
Mg688 O710 2.106 . S
Mg688 O711 2.079 . S
O689 Mg688 1.917 1_565 S
O689 Mg690 1.926 . S
O689 Mg691 1.986 . S
Mg690 O689 1.926 . S
Mg690 O704 1.984 . S
Mg690 O707 1.988 . S
Mg690 O708 2.061 1_565 S
Mg691 O689 1.986 . S
Mg691 O699 2.238 . S
Mg691 O703 2.042 . S
Mg691 O705 2.041 . S
Mg691 O712 2.038 1_565 S
C692 O698 1.247 1_565 S
C692 O699 1.289 . S
C693 O711 1.245 . S
C693 O712 1.274 . S
O694 C682 1.241 . S
O694 Mg687 2.042 . S
O695 C682 1.280 . S
O695 Mg685 1.984 . S
O696 C683 1.277 . S
O696 Mg687 2.041 . S
O697 C683 1.245 . S
O697 Mg685 1.988 . S
O698 Mg685 2.061 . S
O698 C692 1.247 1_545 S
O699 Mg688 2.106 1_565 S
O699 Mg691 2.238 . S
O699 C692 1.289 . S
C700 O701 1.245 . S
C700 O702 1.274 1_565 S
O701 Mg688 2.079 1_565 S
O701 C700 1.245 . S
O702 Mg687 2.038 . S
O702 C700 1.274 1_545 S
O703 Mg691 2.042 . S
O703 C706 1.241 . S
O704 Mg690 1.984 . S
O704 C706 1.280 . S
O705 Mg691 2.041 . S
O705 C709 1.277 . S
C706 O703 1.241 . S
C706 O704 1.280 . S
O707 Mg690 1.988 . S
O707 C709 1.245 . S
O708 C684 1.247 . S
O708 Mg690 2.061 1_545 S
C709 O705 1.277 . S
C709 O707 1.245 . S
O710 C684 1.289 . S
O710 Mg687 2.238 . S
O710 Mg688 2.106 . S
O711 Mg688 2.079 . S
O711 C693 1.245 . S
O712 Mg691 2.038 1_545 S
O712 C693 1.274 . S
C713 O725 1.241 . S
C713 O726 1.280 . S
C714 O727 1.277 . S
C714 O728 1.245 . S
C715 O739 1.247 . S
C715 O741 1.289 . S
Mg716 O717 1.926 . S
Mg716 O726 1.984 . S
Mg716 O728 1.988 . S
Mg716 O729 2.061 . S
O717 Mg716 1.926 . S
O717 Mg718 1.986 . S
O717 Mg719 1.917 . S
Mg718 O717 1.986 . S
Mg718 O725 2.042 . S
Mg718 O727 2.041 . S
Mg718 O733 2.038 . S
Mg718 O741 2.238 . S
Mg719 O717 1.917 . S
Mg719 O720 1.917 . S
Mg719 O730 2.106 . S
Mg719 O732 2.079 . S
Mg719 O741 2.106 . S
Mg719 O742 2.079 . S
O720 Mg719 1.917 . S
O720 Mg721 1.926 . S
O720 Mg722 1.986 . S
Mg721 O720 1.926 . S
Mg721 O735 1.984 . S
Mg721 O738 1.988 . S
Mg721 O739 2.061 . S
Mg722 O720 1.986 . S
Mg722 O730 2.238 . S
Mg722 O734 2.042 . S
Mg722 O736 2.041 . S
Mg722 O743 2.038 . S
C723 O729 1.247 . S
C723 O730 1.289 . S
C724 O742 1.245 . S
C724 O743 1.274 . S
O725 C713 1.241 . S
O725 Mg718 2.042 . S
O726 C713 1.280 . S
O726 Mg716 1.984 . S
O727 C714 1.277 . S
O727 Mg718 2.041 . S
O728 C714 1.245 . S
O728 Mg716 1.988 . S
O729 Mg716 2.061 . S
O729 C723 1.247 . S
O730 Mg719 2.106 . S
O730 Mg722 2.238 . S
O730 C723 1.289 . S
C731 O732 1.245 . S
C731 O733 1.274 . S
O732 Mg719 2.079 . S
O732 C731 1.245 . S
O733 Mg718 2.038 . S
O733 C731 1.274 . S
O734 Mg722 2.042 . S
O734 C737 1.241 . S
O735 Mg721 1.984 . S
O735 C737 1.280 . S
O736 Mg722 2.041 . S
O736 C740 1.277 . S
C737 O734 1.241 . S
C737 O735 1.280 . S
O738 Mg721 1.988 . S
O738 C740 1.245 . S
O739 C715 1.247 . S
O739 Mg721 2.061 . S
C740 O736 1.277 . S
C740 O738 1.245 . S
O741 C715 1.289 . S
O741 Mg718 2.238 . S
O741 Mg719 2.106 . S
O742 Mg719 2.079 . S
O742 C724 1.245 . S
O743 Mg722 2.038 . S
O743 C724 1.274 . S
C744 O756 1.241 . S
C744 O757 1.280 . S
C745 O758 1.277 . S
C745 O759 1.245 . S
C746 O770 1.247 . S
C746 O772 1.289 . S
Mg747 O748 1.926 . S
Mg747 O757 1.984 . S
Mg747 O759 1.988 . S
Mg747 O760 2.061 . S
O748 Mg747 1.926 . S
O748 Mg749 1.986 . S
O748 Mg750 1.917 . S
Mg749 O748 1.986 . S
Mg749 O756 2.042 . S
Mg749 O758 2.041 . S
Mg749 O764 2.038 1_554 S
Mg749 O772 2.238 1_554 S
Mg750 O748 1.917 . S
Mg750 O751 1.917 1_554 S
Mg750 O761 2.106 . S
Mg750 O763 2.079 1_554 S
Mg750 O772 2.106 1_554 S
Mg750 O773 2.079 . S
O751 Mg750 1.917 1_556 S
O751 Mg752 1.926 . S
O751 Mg753 1.986 1_556 S
Mg752 O751 1.926 . S
Mg752 O766 1.984 . S
Mg752 O769 1.988 . S
Mg752 O770 2.061 . S
Mg753 O751 1.986 1_554 S
Mg753 O761 2.238 . S
Mg753 O765 2.042 1_554 S
Mg753 O767 2.041 1_554 S
Mg753 O774 2.038 . S
C754 O760 1.247 . S
C754 O761 1.289 . S
C755 O773 1.245 . S
C755 O774 1.274 . S
O756 C744 1.241 . S
O756 Mg749 2.042 . S
O757 C744 1.280 . S
O757 Mg747 1.984 . S
O758 C745 1.277 . S
O758 Mg749 2.041 . S
O759 C745 1.245 . S
O759 Mg747 1.988 . S
O760 Mg747 2.061 . S
O760 C754 1.247 . S
O761 Mg750 2.106 . S
O761 Mg753 2.238 . S
O761 C754 1.289 . S
C762 O763 1.245 . S
C762 O764 1.274 . S
O763 Mg750 2.079 1_556 S
O763 C762 1.245 . S
O764 Mg749 2.038 1_556 S
O764 C762 1.274 . S
O765 Mg753 2.042 1_556 S
O765 C768 1.241 . S
O766 Mg752 1.984 . S
O766 C768 1.280 . S
O767 Mg753 2.041 1_556 S
O767 C771 1.277 . S
C768 O765 1.241 . S
C768 O766 1.280 . S
O769 Mg752 1.988 . S
O769 C771 1.245 . S
O770 C746 1.247 . S
O770 Mg752 2.061 . S
C771 O767 1.277 . S
C771 O769 1.245 . S
O772 C746 1.289 . S
O772 Mg749 2.238 1_556 S
O772 Mg750 2.106 1_556 S
O773 Mg750 2.079 . S
O773 C755 1.245 . S
O774 Mg753 2.038 . S
O774 C755 1.274 . S
C775 O787 1.241 . S
C775 O788 1.280 . S
C776 O789 1.277 . S
C776 O790 1.245 . S
C777 O801 1.247 . S
C777 O803 1.289 . S
Mg778 O779 1.926 . S
Mg778 O788 1.984 . S
Mg778 O790 1.988 . S
Mg778 O791 2.061 . S
O779 Mg778 1.926 . S
O779 Mg780 1.986 . S
O779 Mg781 1.917 . S
Mg780 O779 1.986 . S
Mg780 O787 2.042 . S
Mg780 O789 2.041 . S
Mg780 O795 2.038 1_554 S
Mg780 O803 2.238 1_554 S
Mg781 O779 1.917 . S
Mg781 O782 1.917 1_554 S
Mg781 O792 2.106 . S
Mg781 O794 2.079 1_554 S
Mg781 O803 2.106 1_554 S
Mg781 O804 2.079 . S
O782 Mg781 1.917 1_556 S
O782 Mg783 1.926 . S
O782 Mg784 1.986 1_556 S
Mg783 O782 1.926 . S
Mg783 O797 1.984 . S
Mg783 O800 1.988 . S
Mg783 O801 2.061 . S
Mg784 O782 1.986 1_554 S
Mg784 O792 2.238 . S
Mg784 O796 2.042 1_554 S
Mg784 O798 2.041 1_554 S
Mg784 O805 2.038 . S
C785 O791 1.247 . S
C785 O792 1.289 . S
C786 O804 1.245 . S
C786 O805 1.274 . S
O787 C775 1.241 . S
O787 Mg780 2.042 . S
O788 C775 1.280 . S
O788 Mg778 1.984 . S
O789 C776 1.277 . S
O789 Mg780 2.041 . S
O790 C776 1.245 . S
O790 Mg778 1.988 . S
O791 Mg778 2.061 . S
O791 C785 1.247 . S
O792 Mg781 2.106 . S
O792 Mg784 2.238 . S
O792 C785 1.289 . S
C793 O794 1.245 . S
C793 O795 1.274 . S
O794 Mg781 2.079 1_556 S
O794 C793 1.245 . S
O795 Mg780 2.038 1_556 S
O795 C793 1.274 . S
O796 Mg784 2.042 1_556 S
O796 C799 1.241 . S
O797 Mg783 1.984 . S
O797 C799 1.280 . S
O798 Mg784 2.041 1_556 S
O798 C802 1.277 . S
C799 O796 1.241 . S
C799 O797 1.280 . S
O800 Mg783 1.988 . S
O800 C802 1.245 . S
O801 C777 1.247 . S
O801 Mg783 2.061 . S
C802 O798 1.277 . S
C802 O800 1.245 . S
O803 C777 1.289 . S
O803 Mg780 2.238 1_556 S
O803 Mg781 2.106 1_556 S
O804 Mg781 2.079 . S
O804 C786 1.245 . S
O805 Mg784 2.038 . S
O805 C786 1.274 . S
C806 O818 1.241 . S
C806 O819 1.280 . S
C807 O820 1.277 . S
C807 O821 1.245 . S
C808 O832 1.247 . S
C808 O834 1.289 . S
Mg809 O810 1.926 . S
Mg809 O819 1.984 . S
Mg809 O821 1.988 . S
Mg809 O822 2.061 . S
O810 Mg809 1.926 . S
O810 Mg811 1.986 . S
O810 Mg812 1.917 . S
Mg811 O810 1.986 . S
Mg811 O818 2.042 . S
Mg811 O820 2.041 . S
Mg811 O826 2.038 . S
Mg811 O834 2.238 . S
Mg812 O810 1.917 . S
Mg812 O813 1.917 . S
Mg812 O823 2.106 . S
Mg812 O825 2.079 . S
Mg812 O834 2.106 . S
Mg812 O835 2.079 . S
O813 Mg812 1.917 . S
O813 Mg814 1.926 . S
O813 Mg815 1.986 . S
Mg814 O813 1.926 . S
Mg814 O828 1.984 . S
Mg814 O831 1.988 . S
Mg814 O832 2.061 . S
Mg815 O813 1.986 . S
Mg815 O823 2.238 . S
Mg815 O827 2.042 . S
Mg815 O829 2.041 . S
Mg815 O836 2.038 . S
C816 O822 1.247 . S
C816 O823 1.289 . S
C817 O835 1.245 . S
C817 O836 1.274 . S
O818 C806 1.241 . S
O818 Mg811 2.042 . S
O819 C806 1.280 . S
O819 Mg809 1.984 . S
O820 C807 1.277 . S
O820 Mg811 2.041 . S
O821 C807 1.245 . S
O821 Mg809 1.988 . S
O822 Mg809 2.061 . S
O822 C816 1.247 . S
O823 Mg812 2.106 . S
O823 Mg815 2.238 . S
O823 C816 1.289 . S
C824 O825 1.245 . S
C824 O826 1.274 . S
O825 Mg812 2.079 . S
O825 C824 1.245 . S
O826 Mg811 2.038 . S
O826 C824 1.274 . S
O827 Mg815 2.042 . S
O827 C830 1.241 . S
O828 Mg814 1.984 . S
O828 C830 1.280 . S
O829 Mg815 2.041 . S
O829 C833 1.277 . S
C830 O827 1.241 . S
C830 O828 1.280 . S
O831 Mg814 1.988 . S
O831 C833 1.245 . S
O832 C808 1.247 . S
O832 Mg814 2.061 . S
C833 O829 1.277 . S
C833 O831 1.245 . S
O834 C808 1.289 . S
O834 Mg811 2.238 . S
O834 Mg812 2.106 . S
O835 Mg812 2.079 . S
O835 C817 1.245 . S
O836 Mg815 2.038 . S
O836 C817 1.274 . S
C837 O849 1.241 . S
C837 O850 1.280 . S
C838 O851 1.277 . S
C838 O852 1.245 . S
C839 O863 1.247 . S
C839 O865 1.289 . S
Mg840 O841 1.926 . S
Mg840 O850 1.984 . S
Mg840 O852 1.988 . S
Mg840 O853 2.061 . S
O841 Mg840 1.926 . S
O841 Mg842 1.986 . S
O841 Mg843 1.917 . S
Mg842 O841 1.986 . S
Mg842 O849 2.042 . S
Mg842 O851 2.041 . S
Mg842 O857 2.038 . S
Mg842 O865 2.238 . S
Mg843 O841 1.917 . S
Mg843 O844 1.917 . S
Mg843 O854 2.106 . S
Mg843 O856 2.079 . S
Mg843 O865 2.106 . S
Mg843 O866 2.079 . S
O844 Mg843 1.917 . S
O844 Mg845 1.926 . S
O844 Mg846 1.986 . S
Mg845 O844 1.926 . S
Mg845 O859 1.984 . S
Mg845 O862 1.988 . S
Mg845 O863 2.061 . S
Mg846 O844 1.986 . S
Mg846 O854 2.238 . S
Mg846 O858 2.042 . S
Mg846 O860 2.041 . S
Mg846 O867 2.038 . S
C847 O853 1.247 . S
C847 O854 1.289 . S
C848 O866 1.245 . S
C848 O867 1.274 . S
O849 C837 1.241 . S
O849 Mg842 2.042 . S
O850 C837 1.280 . S
O850 Mg840 1.984 . S
O851 C838 1.277 . S
O851 Mg842 2.041 . S
O852 C838 1.245 . S
O852 Mg840 1.988 . S
O853 Mg840 2.061 . S
O853 C847 1.247 . S
O854 Mg843 2.106 . S
O854 Mg846 2.238 . S
O854 C847 1.289 . S
C855 O856 1.245 . S
C855 O857 1.274 . S
O856 Mg843 2.079 . S
O856 C855 1.245 . S
O857 Mg842 2.038 . S
O857 C855 1.274 . S
O858 Mg846 2.042 . S
O858 C861 1.241 . S
O859 Mg845 1.984 . S
O859 C861 1.280 . S
O860 Mg846 2.041 . S
O860 C864 1.277 . S
C861 O858 1.241 . S
C861 O859 1.280 . S
O862 Mg845 1.988 . S
O862 C864 1.245 . S
O863 C839 1.247 . S
O863 Mg845 2.061 . S
C864 O860 1.277 . S
C864 O862 1.245 . S
O865 C839 1.289 . S
O865 Mg842 2.238 . S
O865 Mg843 2.106 . S
O866 Mg843 2.079 . S
O866 C848 1.245 . S
O867 Mg846 2.038 . S
O867 C848 1.274 . S
C868 O880 1.241 . S
C868 O881 1.280 . S
C869 O882 1.277 . S
C869 O883 1.245 . S
C870 O894 1.247 . S
C870 O896 1.289 . S
Mg871 O872 1.926 . S
Mg871 O881 1.984 . S
Mg871 O883 1.988 . S
Mg871 O884 2.061 . S
O872 Mg871 1.926 . S
O872 Mg873 1.986 1_554 S
O872 Mg874 1.917 1_554 S
Mg873 O872 1.986 1_556 S
Mg873 O880 2.042 1_556 S
Mg873 O882 2.041 1_556 S
Mg873 O888 2.038 . S
Mg873 O896 2.238 . S
Mg874 O872 1.917 1_556 S
Mg874 O875 1.917 . S
Mg874 O885 2.106 1_556 S
Mg874 O887 2.079 . S
Mg874 O896 2.106 . S
Mg874 O897 2.079 1_556 S
O875 Mg874 1.917 . S
O875 Mg876 1.926 . S
O875 Mg877 1.986 . S
Mg876 O875 1.926 . S
Mg876 O890 1.984 . S
Mg876 O893 1.988 . S
Mg876 O894 2.061 . S
Mg877 O875 1.986 . S
Mg877 O885 2.238 1_556 S
Mg877 O889 2.042 . S
Mg877 O891 2.041 . S
Mg877 O898 2.038 1_556 S
C878 O884 1.247 . S
C878 O885 1.289 . S
C879 O897 1.245 . S
C879 O898 1.274 . S
O880 C868 1.241 . S
O880 Mg873 2.042 1_554 S
O881 C868 1.280 . S
O881 Mg871 1.984 . S
O882 C869 1.277 . S
O882 Mg873 2.041 1_554 S
O883 C869 1.245 . S
O883 Mg871 1.988 . S
O884 Mg871 2.061 . S
O884 C878 1.247 . S
O885 Mg874 2.106 1_554 S
O885 Mg877 2.238 1_554 S
O885 C878 1.289 . S
C886 O887 1.245 . S
C886 O888 1.274 . S
O887 Mg874 2.079 . S
O887 C886 1.245 . S
O888 Mg873 2.038 . S
O888 C886 1.274 . S
O889 Mg877 2.042 . S
O889 C892 1.241 . S
O890 Mg876 1.984 . S
O890 C892 1.280 . S
O891 Mg877 2.041 . S
O891 C895 1.277 . S
C892 O889 1.241 . S
C892 O890 1.280 . S
O893 Mg876 1.988 . S
O893 C895 1.245 . S
O894 C870 1.247 . S
O894 Mg876 2.061 . S
C895 O891 1.277 . S
C895 O893 1.245 . S
O896 C870 1.289 . S
O896 Mg873 2.238 . S
O896 Mg874 2.106 . S
O897 Mg874 2.079 1_554 S
O897 C879 1.245 . S
O898 Mg877 2.038 1_554 S
O898 C879 1.274 . S
C899 O911 1.241 . S
C899 O912 1.280 . S
C900 O913 1.277 . S
C900 O914 1.245 . S
C901 O925 1.247 . S
C901 O927 1.289 . S
Mg902 O903 1.926 . S
Mg902 O912 1.984 . S
Mg902 O914 1.988 . S
Mg902 O915 2.061 . S
O903 Mg902 1.926 . S
O903 Mg904 1.986 1_554 S
O903 Mg905 1.917 1_554 S
Mg904 O903 1.986 1_556 S
Mg904 O911 2.042 1_556 S
Mg904 O913 2.041 1_556 S
Mg904 O919 2.038 . S
Mg904 O927 2.238 . S
Mg905 O903 1.917 1_556 S
Mg905 O906 1.917 . S
Mg905 O916 2.106 1_556 S
Mg905 O918 2.079 . S
Mg905 O927 2.106 . S
Mg905 O928 2.079 1_556 S
O906 Mg905 1.917 . S
O906 Mg907 1.926 . S
O906 Mg908 1.986 . S
Mg907 O906 1.926 . S
Mg907 O921 1.984 . S
Mg907 O924 1.988 . S
Mg907 O925 2.061 . S
Mg908 O906 1.986 . S
Mg908 O916 2.238 1_556 S
Mg908 O920 2.042 . S
Mg908 O922 2.041 . S
Mg908 O929 2.038 1_556 S
C909 O915 1.247 . S
C909 O916 1.289 . S
C910 O928 1.245 . S
C910 O929 1.274 . S
O911 C899 1.241 . S
O911 Mg904 2.042 1_554 S
O912 C899 1.280 . S
O912 Mg902 1.984 . S
O913 C900 1.277 . S
O913 Mg904 2.041 1_554 S
O914 C900 1.245 . S
O914 Mg902 1.988 . S
O915 Mg902 2.061 . S
O915 C909 1.247 . S
O916 Mg905 2.106 1_554 S
O916 Mg908 2.238 1_554 S
O916 C909 1.289 . S
C917 O918 1.245 . S
C917 O919 1.274 . S
O918 Mg905 2.079 . S
O918 C917 1.245 . S
O919 Mg904 2.038 . S
O919 C917 1.274 . S
O920 Mg908 2.042 . S
O920 C923 1.241 . S
O921 Mg907 1.984 . S
O921 C923 1.280 . S
O922 Mg908 2.041 . S
O922 C926 1.277 . S
C923 O920 1.241 . S
C923 O921 1.280 . S
O924 Mg907 1.988 . S
O924 C926 1.245 . S
O925 C901 1.247 . S
O925 Mg907 2.061 . S
C926 O922 1.277 . S
C926 O924 1.245 . S
O927 C901 1.289 . S
O927 Mg904 2.238 . S
O927 Mg905 2.106 . S
O928 Mg905 2.079 1_554 S
O928 C910 1.245 . S
O929 Mg908 2.038 1_554 S
O929 C910 1.274 . S
C930 O942 1.241 . S
C930 O943 1.280 . S
C931 O944 1.277 . S
C931 O945 1.245 . S
C932 O956 1.247 . S
C932 O958 1.289 . S
Mg933 O934 1.926 . S
Mg933 O943 1.984 . S
Mg933 O945 1.988 . S
Mg933 O946 2.061 . S
O934 Mg933 1.926 . S
O934 Mg935 1.986 . S
O934 Mg936 1.917 . S
Mg935 O934 1.986 . S
Mg935 O942 2.042 . S
Mg935 O944 2.041 . S
Mg935 O950 2.038 . S
Mg935 O958 2.238 . S
Mg936 O934 1.917 . S
Mg936 O937 1.917 . S
Mg936 O947 2.106 . S
Mg936 O949 2.079 . S
Mg936 O958 2.106 . S
Mg936 O959 2.079 . S
O937 Mg936 1.917 . S
O937 Mg938 1.926 . S
O937 Mg939 1.986 . S
Mg938 O937 1.926 . S
Mg938 O952 1.984 . S
Mg938 O955 1.988 . S
Mg938 O956 2.061 . S
Mg939 O937 1.986 . S
Mg939 O947 2.238 . S
Mg939 O951 2.042 . S
Mg939 O953 2.041 . S
Mg939 O960 2.038 . S
C940 O946 1.247 . S
C940 O947 1.289 . S
C941 O959 1.245 . S
C941 O960 1.274 . S
O942 C930 1.241 . S
O942 Mg935 2.042 . S
O943 C930 1.280 . S
O943 Mg933 1.984 . S
O944 C931 1.277 . S
O944 Mg935 2.041 . S
O945 C931 1.245 . S
O945 Mg933 1.988 . S
O946 Mg933 2.061 . S
O946 C940 1.247 . S
O947 Mg936 2.106 . S
O947 Mg939 2.238 . S
O947 C940 1.289 . S
C948 O949 1.245 . S
C948 O950 1.274 . S
O949 Mg936 2.079 . S
O949 C948 1.245 . S
O950 Mg935 2.038 . S
O950 C948 1.274 . S
O951 Mg939 2.042 . S
O951 C954 1.241 . S
O952 Mg938 1.984 . S
O952 C954 1.280 . S
O953 Mg939 2.041 . S
O953 C957 1.277 . S
C954 O951 1.241 . S
C954 O952 1.280 . S
O955 Mg938 1.988 . S
O955 C957 1.245 . S
O956 C932 1.247 . S
O956 Mg938 2.061 . S
C957 O953 1.277 . S
C957 O955 1.245 . S
O958 C932 1.289 . S
O958 Mg935 2.238 . S
O958 Mg936 2.106 . S
O959 Mg936 2.079 . S
O959 C941 1.245 . S
O960 Mg939 2.038 . S
O960 C941 1.274 . S
C961 O973 1.241 . S
C961 O974 1.280 . S
C962 O975 1.277 . S
C962 O976 1.245 . S
C963 O987 1.247 . S
C963 O989 1.289 . S
Mg964 O965 1.926 . S
Mg964 O974 1.984 . S
Mg964 O976 1.988 . S
Mg964 O977 2.061 . S
O965 Mg964 1.926 . S
O965 Mg966 1.986 . S
O965 Mg967 1.917 . S
Mg966 O965 1.986 . S
Mg966 O973 2.042 . S
Mg966 O975 2.041 . S
Mg966 O981 2.038 . S
Mg966 O989 2.238 . S
Mg967 O965 1.917 . S
Mg967 O968 1.917 . S
Mg967 O978 2.106 . S
Mg967 O980 2.079 . S
Mg967 O989 2.106 . S
Mg967 O990 2.079 . S
O968 Mg967 1.917 . S
O968 Mg969 1.926 . S
O968 Mg970 1.986 . S
Mg969 O968 1.926 . S
Mg969 O983 1.984 . S
Mg969 O986 1.988 . S
Mg969 O987 2.061 . S
Mg970 O968 1.986 . S
Mg970 O978 2.238 . S
Mg970 O982 2.042 . S
Mg970 O984 2.041 . S
Mg970 O991 2.038 . S
C971 O977 1.247 . S
C971 O978 1.289 . S
C972 O990 1.245 . S
C972 O991 1.274 . S
O973 C961 1.241 . S
O973 Mg966 2.042 . S
O974 C961 1.280 . S
O974 Mg964 1.984 . S
O975 C962 1.277 . S
O975 Mg966 2.041 . S
O976 C962 1.245 . S
O976 Mg964 1.988 . S
O977 Mg964 2.061 . S
O977 C971 1.247 . S
O978 Mg967 2.106 . S
O978 Mg970 2.238 . S
O978 C971 1.289 . S
C979 O980 1.245 . S
C979 O981 1.274 . S
O980 Mg967 2.079 . S
O980 C979 1.245 . S
O981 Mg966 2.038 . S
O981 C979 1.274 . S
O982 Mg970 2.042 . S
O982 C985 1.241 . S
O983 Mg969 1.984 . S
O983 C985 1.280 . S
O984 Mg970 2.041 . S
O984 C988 1.277 . S
C985 O982 1.241 . S
C985 O983 1.280 . S
O986 Mg969 1.988 . S
O986 C988 1.245 . S
O987 C963 1.247 . S
O987 Mg969 2.061 . S
C988 O984 1.277 . S
C988 O986 1.245 . S
O989 C963 1.289 . S
O989 Mg966 2.238 . S
O989 Mg967 2.106 . S
O990 Mg967 2.079 . S
O990 C972 1.245 . S
O991 Mg970 2.038 . S
O991 C972 1.274 . S
C799 C24 0.869 . S
C55 C768 0.869 . S
C861 C86 0.869 . S
C117 C830 0.869 . S
C899 C124 0.869 . S
C155 C868 0.869 . S
C961 C186 0.869 . S
C217 C930 0.869 . S
C272 C551 0.869 . S
C303 C520 0.869 . S
C613 C334 0.869 . S
C365 C582 0.869 . S
C372 C651 0.869 . S
C620 C403 0.869 . S
C713 C434 0.869 . S
C682 C465 0.869 . S
C917 C18 3.682 . S
C49 C142 3.682 . S
C80 C731 3.682 . S
C111 C452 3.682 . S
C786 C135 3.682 . S
C11 C166 3.682 . S
C600 C197 3.682 . S
C228 C321 3.682 . S
C669 C266 3.682 . S
C390 C297 3.682 . S
C328 C979 3.682 . S
C204 C359 3.682 . S
C538 C383 3.682 . S
C414 C259 3.682 . S
C445 C848 3.682 . S
C476 C73 3.682 . S
C514 C421 3.682 . S
C638 C545 3.682 . S
C235 C576 3.682 . S
C948 C607 3.682 . S
C631 C290 3.682 . S
C662 C507 3.682 . S
C693 C104 3.682 . S
C724 C817 3.682 . S
C173 C762 3.682 . S
C886 C793 3.682 . S
C483 C824 3.682 . S
C855 C700 3.682 . S
C879 C42 3.682 . S
C910 C755 3.682 . S
C941 C352 3.682 . S
C972 C569 3.682 . S
C188 C2 2.356 1_655 S
C33 C963 2.356 . S
C374 C64 2.356 1_655 S
C653 C95 2.356 . S
C72 C134 2.356 1_455 S
C165 C847 2.356 . S
C258 C196 2.356 1_455 S
C227 C537 2.356 . S
C250 C436 2.356 1_455 S
C715 C281 2.356 . S
C312 C126 2.356 1_455 S
C901 C343 2.356 . S
C382 C320 2.356 1_655 S
C599 C413 2.356 . S
C444 C10 2.356 1_655 S
C785 C475 2.356 . S
C498 C684 2.356 . S
C529 C467 2.356 . S
C870 C560 2.356 . S
C591 C157 2.356 . S
C568 C630 2.356 . S
C661 C351 2.356 . S
C754 C692 2.356 . S
C723 C41 2.356 . S
C932 C746 2.356 . S
C777 C219 2.356 . S
C808 C622 2.356 . S
C839 C405 2.356 . S
C816 C878 2.356 . S
C909 C103 2.356 . S
C506 C940 2.356 . S
C971 C289 2.356 . S
C93 C0 1.222 . S
C62 C31 1.222 . S
C148 C241 1.222 . S
C210 C179 1.222 . S
C341 C248 1.222 . S
C279 C310 1.222 . S
C489 C396 1.222 . S
C458 C427 1.222 . S
C496 C589 1.222 . S
C558 C527 1.222 . S
C644 C737 1.222 . S
C706 C675 1.222 . S
C837 C744 1.222 . S
C775 C806 1.222 . S
C892 C985 1.222 . S
C923 C954 1.222 . S
C27 C125 2.862 1_656 S
C900 C58 2.862 1_554 S
C435 C89 2.862 1_455 S
C714 C120 2.862 . S
C802 C156 2.862 1_556 S
C337 C187 2.862 1_655 S
C218 C616 2.862 . S
C373 C275 2.862 1_445 S
C306 C652 2.862 . S
C368 C962 2.862 1_565 S
C404 C554 2.862 . S
C864 C466 2.862 1_565 S
C621 C523 2.862 . S
C931 C585 2.862 . S
C683 C833 2.862 . S
C869 C771 2.862 1_544 S
C63 C1 2.817 . S
C94 C32 2.817 . S
C151 C213 2.817 . S
C182 C244 2.817 . S
C311 C249 2.817 . S
C342 C280 2.817 . S
C399 C461 2.817 . S
C492 C430 2.817 . S
C559 C497 2.817 . S
C528 C590 2.817 . S
C709 C647 2.817 . S
C678 C740 2.817 . S
C745 C807 2.817 . S
C776 C838 2.817 . S
C957 C895 2.817 . S
C988 C926 2.817 . S
