# Generated by pormake.
# Topology unb, (4)-cn, num edge types: 1
# Building blocks:
#     Node 0, Type 0, BuildingBlock: NAHDIM_clean_sbu_0, # of connection points: 4
#     Node 1, Type 0, BuildingBlock: NAHDIM_clean_sbu_0, # of connection points: 4
#     Node 2, Type 0, BuildingBlock: NAHDIM_clean_sbu_0, # of connection points: 4
#     Node 3, Type 0, BuildingBlock: NAHDIM_clean_sbu_0, # of connection points: 4
#     Node 4, Type 0, BuildingBlock: NAHDIM_clean_sbu_0, # of connection points: 4
#     Node 5, Type 0, BuildingBlock: NAHDIM_clean_sbu_0, # of connection points: 4
#     Node 6, Type 0, BuildingBlock: NAHDIM_clean_sbu_0, # of connection points: 4
#     Node 7, Type 0, BuildingBlock: NAHDIM_clean_sbu_0, # of connection points: 4
#     Node 8, Type 0, BuildingBlock: NAHDIM_clean_sbu_0, # of connection points: 4
#     Node 9, Type 0, BuildingBlock: NAHDIM_clean_sbu_0, # of connection points: 4
#     Node 10, Type 0, BuildingBlock: NAHDIM_clean_sbu_0, # of connection points: 4
#     Node 11, Type 0, BuildingBlock: NAHDIM_clean_sbu_0, # of connection points: 4
#     Node 12, Type 0, BuildingBlock: NAHDIM_clean_sbu_0, # of connection points: 4
#     Node 13, Type 0, BuildingBlock: NAHDIM_clean_sbu_0, # of connection points: 4
#     Node 14, Type 0, BuildingBlock: NAHDIM_clean_sbu_0, # of connection points: 4
#     Node 15, Type 0, BuildingBlock: NAHDIM_clean_sbu_0, # of connection points: 4
#     Node 16, Type 0, BuildingBlock: NAHDIM_clean_sbu_0, # of connection points: 4
#     Node 17, Type 0, BuildingBlock: NAHDIM_clean_sbu_0, # of connection points: 4
#     Edge 18, Type (0, 0), BuildingBlock: TEMPAE_clean_linker_10, # of connection points: 2
#     Edge 19, Type (0, 0), BuildingBlock: TEMPAE_clean_linker_10, # of connection points: 2
#     Edge 20, Type (0, 0), BuildingBlock: TEMPAE_clean_linker_10, # of connection points: 2
#     Edge 21, Type (0, 0), BuildingBlock: TEMPAE_clean_linker_10, # of connection points: 2
#     Edge 22, Type (0, 0), BuildingBlock: TEMPAE_clean_linker_10, # of connection points: 2
#     Edge 23, Type (0, 0), BuildingBlock: TEMPAE_clean_linker_10, # of connection points: 2
#     Edge 24, Type (0, 0), BuildingBlock: TEMPAE_clean_linker_10, # of connection points: 2
#     Edge 25, Type (0, 0), BuildingBlock: TEMPAE_clean_linker_10, # of connection points: 2
#     Edge 26, Type (0, 0), BuildingBlock: TEMPAE_clean_linker_10, # of connection points: 2
#     Edge 27, Type (0, 0), BuildingBlock: TEMPAE_clean_linker_10, # of connection points: 2
#     Edge 28, Type (0, 0), BuildingBlock: TEMPAE_clean_linker_10, # of connection points: 2
#     Edge 29, Type (0, 0), BuildingBlock: TEMPAE_clean_linker_10, # of connection points: 2
#     Edge 30, Type (0, 0), BuildingBlock: TEMPAE_clean_linker_10, # of connection points: 2
#     Edge 31, Type (0, 0), BuildingBlock: TEMPAE_clean_linker_10, # of connection points: 2
#     Edge 32, Type (0, 0), BuildingBlock: TEMPAE_clean_linker_10, # of connection points: 2
#     Edge 33, Type (0, 0), BuildingBlock: TEMPAE_clean_linker_10, # of connection points: 2
#     Edge 34, Type (0, 0), BuildingBlock: TEMPAE_clean_linker_10, # of connection points: 2
#     Edge 35, Type (0, 0), BuildingBlock: TEMPAE_clean_linker_10, # of connection points: 2
#     Edge 36, Type (0, 0), BuildingBlock: TEMPAE_clean_linker_10, # of connection points: 2
#     Edge 37, Type (0, 0), BuildingBlock: TEMPAE_clean_linker_10, # of connection points: 2
#     Edge 38, Type (0, 0), BuildingBlock: TEMPAE_clean_linker_10, # of connection points: 2
#     Edge 39, Type (0, 0), BuildingBlock: TEMPAE_clean_linker_10, # of connection points: 2
#     Edge 40, Type (0, 0), BuildingBlock: TEMPAE_clean_linker_10, # of connection points: 2
#     Edge 41, Type (0, 0), BuildingBlock: TEMPAE_clean_linker_10, # of connection points: 2
#     Edge 42, Type (0, 0), BuildingBlock: TEMPAE_clean_linker_10, # of connection points: 2
#     Edge 43, Type (0, 0), BuildingBlock: TEMPAE_clean_linker_10, # of connection points: 2
#     Edge 44, Type (0, 0), BuildingBlock: TEMPAE_clean_linker_10, # of connection points: 2
#     Edge 45, Type (0, 0), BuildingBlock: TEMPAE_clean_linker_10, # of connection points: 2
#     Edge 46, Type (0, 0), BuildingBlock: TEMPAE_clean_linker_10, # of connection points: 2
#     Edge 47, Type (0, 0), BuildingBlock: TEMPAE_clean_linker_10, # of connection points: 2
#     Edge 48, Type (0, 0), BuildingBlock: TEMPAE_clean_linker_10, # of connection points: 2
#     Edge 49, Type (0, 0), BuildingBlock: TEMPAE_clean_linker_10, # of connection points: 2
#     Edge 50, Type (0, 0), BuildingBlock: TEMPAE_clean_linker_10, # of connection points: 2
#     Edge 51, Type (0, 0), BuildingBlock: TEMPAE_clean_linker_10, # of connection points: 2
#     Edge 52, Type (0, 0), BuildingBlock: TEMPAE_clean_linker_10, # of connection points: 2
#     Edge 53, Type (0, 0), BuildingBlock: TEMPAE_clean_linker_10, # of connection points: 2
# Relax obj value: 0.066
# Max RMSD: 0.063
# Mean RMSD: 0.063
data_MOF--net-unb--node1-NAHDIM_clean_sbu_0--edge1-TEMPAE_clean_linker_10
_symmetry_space_group_name_H-M    P1
_symmetry_Int_Tables_number       1
_symmetry_cell_setting            triclinic
loop_
_symmetry_equiv_pos_as_xyz
'x, y, z'
_cell_length_a     65.286297
_cell_length_b     65.306698
_cell_length_c     26.007465
_cell_angle_alpha  89.981628
_cell_angle_beta   90.00665
_cell_angle_gamma 119.97985
loop_
_atom_site_label
_atom_site_type_symbol
_atom_site_fract_x
_atom_site_fract_y
_atom_site_fract_z
_atom_type_partial_charge
C0 C 0.13279 0.27361 0.17346 0.0
O1 O 0.1162 0.25142 0.17935 0.0
O2 O 0.14023 0.23637 0.06809 0.0
Zn3 Zn 0.12958 0.26051 0.06543 0.0
O4 O 0.09391 0.24443 0.05723 0.0
C5 C 0.1469 0.27194 0.96168 0.0
O6 O 0.13784 0.24893 0.959 0.0
O7 O 0.14076 0.28115 0.12866 0.0
C8 C 0.08471 0.25061 0.02168 0.0
O9 O 0.09855 0.26838 0.99166 0.0
C10 C 0.12779 0.21566 0.04982 0.0
O11 O 0.10648 0.20906 0.03245 0.0
O12 O 0.1455 0.2811 0.00372 0.0
C13 C 0.70678 0.86374 0.17002 0.0
O14 O 0.70286 0.8767 0.13721 0.0
O15 O 0.76397 0.89967 0.0851 0.0
Zn16 Zn 0.73765 0.86562 0.08881 0.0
O17 O 0.75106 0.84425 0.07251 0.0
C18 C 0.71338 0.87811 0.01182 0.0
O19 O 0.72838 0.89987 0.02603 0.0
O20 O 0.72165 0.85731 0.15831 0.0
C21 C 0.74754 0.83421 0.02885 0.0
O22 O 0.73461 0.83743 0.99466 0.0
C23 C 0.77715 0.9058 0.04545 0.0
O24 O 0.77406 0.88954 0.0117 0.0
O25 O 0.71352 0.86094 0.03457 0.0
C26 C 0.14823 0.86702 0.19389 0.0
O27 O 0.16554 0.88209 0.16431 0.0
O28 O 0.08701 0.85753 0.09632 0.0
Zn29 Zn 0.12137 0.86852 0.10899 0.0
O30 O 0.14004 0.9039 0.09873 0.0
C31 C 0.11779 0.83475 0.03134 0.0
O32 O 0.09525 0.82335 0.04347 0.0
O33 O 0.12702 0.8589 0.17892 0.0
C34 C 0.15915 0.91321 0.07291 0.0
O35 O 0.16736 0.89974 0.05601 0.0
C36 C 0.08225 0.86404 0.05404 0.0
O37 O 0.09976 0.87803 0.02352 0.0
O38 O 0.1318 0.85361 0.05521 0.0
C39 C 0.27728 0.15273 0.8166 0.0
O40 O 0.2793 0.16995 0.84619 0.0
O41 O 0.22764 0.13677 0.91283 0.0
Zn42 Zn 0.25111 0.12545 0.90362 0.0
O43 O 0.23545 0.09056 0.92126 0.0
C44 C 0.28175 0.161 0.97894 0.0
O45 O 0.26843 0.17053 0.97121 0.0
O46 O 0.26495 0.13153 0.83225 0.0
C47 C 0.23929 0.08435 0.965 0.0
O48 O 0.25347 0.10071 0.99749 0.0
C49 C 0.21523 0.13066 0.95366 0.0
O50 O 0.21758 0.11667 0.98644 0.0
O51 O 0.27799 0.14295 0.95308 0.0
C52 C 0.86 0.13224 0.82117 0.0
O53 O 0.87768 0.12825 0.81494 0.0
O54 O 0.85191 0.08602 0.92852 0.0
Zn55 Zn 0.86341 0.12104 0.92803 0.0
O56 O 0.89905 0.14008 0.93241 0.0
C57 C 0.85384 0.12133 0.03504 0.0
O58 O 0.86668 0.11101 0.03748 0.0
O59 O 0.85122 0.13015 0.86578 0.0
C60 C 0.90883 0.16031 0.9537 0.0
O61 O 0.89548 0.1688 0.96989 0.0
C62 C 0.8645 0.07776 0.94606 0.0
O63 O 0.88637 0.09247 0.96019 0.0
O64 O 0.84999 0.12756 0.99145 0.0
C65 C 0.86488 0.7246 0.8072 0.0
O66 O 0.87483 0.74754 0.80022 0.0
O67 O 0.90463 0.76039 0.91763 0.0
Zn68 Zn 0.86961 0.73733 0.91523 0.0
O69 O 0.851 0.75429 0.91898 0.0
C70 C 0.8656 0.72672 0.02209 0.0
O71 O 0.87384 0.74961 0.02485 0.0
O72 O 0.86095 0.71647 0.85274 0.0
C73 C 0.8299 0.74332 0.93583 0.0
O74 O 0.82031 0.72076 0.94712 0.0
C75 C 0.91288 0.78117 0.93543 0.0
O76 O 0.89818 0.78849 0.94865 0.0
O77 O 0.86206 0.71702 0.97814 0.0
C78 C 0.82047 0.6161 0.49973 0.0
O79 O 0.83655 0.61326 0.47556 0.0
O80 O 0.80614 0.5704 0.40023 0.0
Zn81 Zn 0.79147 0.59084 0.41179 0.0
O82 O 0.7561 0.57183 0.40343 0.0
C83 C 0.82427 0.62515 0.33941 0.0
O84 O 0.83921 0.61952 0.35983 0.0
O85 O 0.7999 0.60734 0.48042 0.0
C86 C 0.74398 0.54938 0.40379 0.0
O87 O 0.75451 0.53709 0.41299 0.0
C88 C 0.80272 0.56061 0.35636 0.0
O89 O 0.78968 0.56391 0.32255 0.0
O90 O 0.80322 0.61543 0.35632 0.0
C91 C 0.38318 0.19279 0.50555 0.0
O92 O 0.40534 0.19842 0.51217 0.0
O93 O 0.41649 0.23664 0.39015 0.0
Zn94 Zn 0.39665 0.2014 0.3977 0.0
O95 O 0.41656 0.18561 0.3976 0.0
C96 C 0.38523 0.20118 0.29243 0.0
O97 O 0.40769 0.21751 0.29149 0.0
O98 O 0.37581 0.19286 0.46037 0.0
C99 C 0.43627 0.19481 0.37408 0.0
O100 O 0.44424 0.21542 0.35159 0.0
C101 C 0.43539 0.25156 0.41259 0.0
O102 O 0.44421 0.24453 0.44947 0.0
O103 O 0.37607 0.19078 0.33464 0.0
C104 C 0.79537 0.17328 0.50914 0.0
O105 O 0.77985 0.15602 0.48012 0.0
O106 O 0.76215 0.18806 0.40961 0.0
Zn107 Zn 0.7971 0.20046 0.42073 0.0
O108 O 0.81506 0.23556 0.40387 0.0
C109 C 0.79436 0.16383 0.35133 0.0
O110 O 0.77211 0.15166 0.36565 0.0
O111 O 0.80464 0.1944 0.49265 0.0
C112 C 0.82483 0.24235 0.35999 0.0
O113 O 0.82364 0.22652 0.32717 0.0
C114 C 0.75611 0.19058 0.36456 0.0
O115 O 0.7726 0.20112 0.32949 0.0
O116 O 0.80772 0.18401 0.37111 0.0
C117 C 0.95204 0.48811 0.14814 0.0
O118 O 0.95617 0.50451 0.1824 0.0
O119 O 0.89738 0.4738 0.22886 0.0
Zn120 Zn 0.91801 0.45908 0.22403 0.0
O121 O 0.89883 0.4238 0.23439 0.0
C122 C 0.94668 0.49053 0.30688 0.0
O123 O 0.93743 0.50353 0.29309 0.0
O124 O 0.93586 0.46697 0.15696 0.0
C125 C 0.90982 0.41356 0.25057 0.0
O126 O 0.93289 0.42606 0.25614 0.0
C127 C 0.8813 0.46632 0.26301 0.0
O128 O 0.87766 0.44823 0.29167 0.0
O129 O 0.94126 0.4717 0.28226 0.0
C130 C 0.53727 0.48443 0.14182 0.0
O131 O 0.55951 0.49747 0.15562 0.0
O132 O 0.51463 0.42881 0.26325 0.0
Zn133 Zn 0.53234 0.46298 0.24234 0.0
O134 O 0.56719 0.47531 0.25122 0.0
C135 C 0.50216 0.47156 0.30734 0.0
O136 O 0.48583 0.45191 0.28589 0.0
O137 O 0.52296 0.46818 0.1718 0.0
C138 C 0.57295 0.47384 0.29723 0.0
O139 O 0.55623 0.46435 0.33223 0.0
C140 C 0.52244 0.41467 0.25661 0.0
O141 O 0.5423 0.42188 0.23128 0.0
O142 O 0.52352 0.48021 0.29326 0.0
C143 C 0.53555 0.04666 0.17371 0.0
O144 O 0.55397 0.04849 0.19834 0.0
O145 O 0.57242 0.09589 0.25774 0.0
Zn146 Zn 0.53672 0.07576 0.25751 0.0
O147 O 0.52094 0.09526 0.26892 0.0
C148 C 0.54139 0.05527 0.35223 0.0
O149 O 0.56271 0.07389 0.35187 0.0
O150 O 0.5253 0.05738 0.19132 0.0
C151 C 0.52098 0.10323 0.31358 0.0
O152 O 0.53193 0.09913 0.35112 0.0
C153 C 0.58389 0.11784 0.26817 0.0
O154 O 0.57236 0.12931 0.27512 0.0
O155 O 0.52722 0.05232 0.31569 0.0
C156 C 0.47136 0.93885 0.86489 0.0
O157 O 0.45867 0.91583 0.87099 0.0
O158 O 0.47892 0.90529 0.75406 0.0
Zn159 Zn 0.46546 0.92726 0.75572 0.0
O160 O 0.42987 0.90932 0.74986 0.0
C161 C 0.48738 0.9447 0.65626 0.0
O162 O 0.48894 0.92541 0.65622 0.0
O163 O 0.47609 0.94733 0.81966 0.0
C164 C 0.42074 0.89925 0.70736 0.0
O165 O 0.43472 0.90046 0.6697 0.0
C166 C 0.46672 0.88291 0.75023 0.0
O167 O 0.44354 0.87249 0.75119 0.0
O168 O 0.4782 0.94912 0.69474 0.0
C169 C 0.05423 0.52546 0.83132 0.0
O170 O 0.07307 0.5231 0.83214 0.0
O171 O 0.08925 0.56844 0.70736 0.0
Zn172 Zn 0.06519 0.53459 0.72232 0.0
O173 O 0.08 0.51402 0.71847 0.0
C174 C 0.05084 0.52978 0.6195 0.0
O175 O 0.07393 0.54019 0.61432 0.0
O176 O 0.04804 0.53068 0.78923 0.0
C177 C 0.10212 0.52209 0.72263 0.0
O178 O 0.11603 0.54461 0.73295 0.0
C179 C 0.10137 0.58522 0.73835 0.0
O180 O 0.09905 0.58122 0.7881 0.0
O181 O 0.042 0.52478 0.66439 0.0
C182 C 0.47639 0.53589 0.8403 0.0
O183 O 0.47441 0.55484 0.84551 0.0
O184 O 0.42502 0.52275 0.73634 0.0
Zn185 Zn 0.4604 0.53654 0.73666 0.0
O186 O 0.47768 0.57214 0.73399 0.0
C187 C 0.4664 0.53336 0.62914 0.0
O188 O 0.45985 0.54937 0.62846 0.0
O189 O 0.47105 0.52507 0.79748 0.0
C190 C 0.4993 0.58272 0.72055 0.0
O191 O 0.50958 0.57016 0.71177 0.0
C192 C 0.41553 0.53378 0.71641 0.0
O193 O 0.42913 0.55552 0.70001 0.0
O194 O 0.46821 0.52509 0.67207 0.0
C195 C 0.60757 0.80204 0.49209 0.0
O196 O 0.58819 0.78127 0.49166 0.0
O197 O 0.57002 0.80928 0.60749 0.0
Zn198 Zn 0.59656 0.80202 0.60102 0.0
O199 O 0.58304 0.76668 0.60957 0.0
C200 C 0.62025 0.83604 0.68338 0.0
O201 O 0.60627 0.84416 0.66972 0.0
O202 O 0.61401 0.81375 0.53376 0.0
C203 C 0.58534 0.7584 0.65213 0.0
O204 O 0.5973 0.77308 0.68947 0.0
C205 C 0.55759 0.80223 0.64823 0.0
O206 O 0.56174 0.78958 0.68148 0.0
O207 O 0.6197 0.81902 0.65849 0.0
C208 C 0.18933 0.80361 0.5075 0.0
O209 O 0.195 0.78707 0.50177 0.0
O210 O 0.18361 0.76423 0.61292 0.0
Zn211 Zn 0.19876 0.7997 0.61476 0.0
O212 O 0.23429 0.81586 0.62143 0.0
C213 C 0.17971 0.7938 0.7165 0.0
O214 O 0.18185 0.77486 0.71495 0.0
O215 O 0.18978 0.81165 0.55222 0.0
C216 C 0.24387 0.81019 0.65704 0.0
O217 O 0.2304 0.79306 0.6888 0.0
C218 C 0.19379 0.75216 0.60643 0.0
O219 O 0.21638 0.76296 0.59478 0.0
O220 O 0.18592 0.80745 0.67764 0.0
C221 C 0.20029 0.3776 0.48704 0.0
O222 O 0.21528 0.37502 0.51624 0.0
O223 O 0.23618 0.42872 0.5806 0.0
Zn224 Zn 0.20114 0.40579 0.57293 0.0
O225 O 0.1833 0.4231 0.58822 0.0
C226 C 0.20614 0.37501 0.64701 0.0
O227 O 0.22849 0.38637 0.63321 0.0
O228 O 0.19239 0.3908 0.50255 0.0
C229 C 0.17339 0.42078 0.63169 0.0
O230 O 0.17429 0.40649 0.66599 0.0
C231 C 0.24267 0.44024 0.6226 0.0
O232 O 0.22647 0.43706 0.65663 0.0
O233 O 0.19168 0.37991 0.62529 0.0
C234 C 0.20054 0.34976 0.42116 0.0
C235 C 0.19135 0.36385 0.43873 0.0
C236 C 0.19136 0.33557 0.37717 0.0
C237 C 0.17243 0.33538 0.35015 0.0
C238 C 0.16331 0.34984 0.36716 0.0
C239 C 0.17291 0.36395 0.41115 0.0
C240 C 0.20168 0.32052 0.36004 0.0
C241 C 0.14311 0.35009 0.33942 0.0
C242 C 0.1611 0.3129 0.21235 0.0
C243 C 0.14256 0.28956 0.21855 0.0
C244 C 0.1709 0.32805 0.25477 0.0
C245 C 0.16191 0.3197 0.30463 0.0
C246 C 0.14306 0.29624 0.31113 0.0
C247 C 0.13363 0.28145 0.26804 0.0
C248 C 0.19101 0.35293 0.24627 0.0
C249 C 0.13295 0.2867 0.36368 0.0
H250 H 0.21482 0.3496 0.4421 0.0
H251 H 0.16565 0.37474 0.42444 0.0
H252 H 0.18789 0.30156 0.36155 0.0
H253 H 0.20774 0.32466 0.31957 0.0
H254 H 0.21682 0.32322 0.38434 0.0
H255 H 0.13842 0.36274 0.35681 0.0
H256 H 0.14779 0.35489 0.29846 0.0
H257 H 0.12727 0.33216 0.34024 0.0
H258 H 0.16814 0.31936 0.17429 0.0
H259 H 0.1193 0.26347 0.27325 0.0
H260 H 0.20686 0.35568 0.26782 0.0
H261 H 0.18618 0.36585 0.26126 0.0
H262 H 0.19577 0.35681 0.205 0.0
H263 H 0.14692 0.28729 0.38897 0.0
H264 H 0.11802 0.2682 0.36212 0.0
H265 H 0.12662 0.29792 0.38176 0.0
C266 C 0.64367 0.83301 0.44655 0.0
C267 C 0.62218 0.81153 0.44498 0.0
C268 C 0.65792 0.84203 0.40258 0.0
C269 C 0.65048 0.82931 0.35579 0.0
C270 C 0.62876 0.80769 0.35384 0.0
C271 C 0.61489 0.79904 0.39845 0.0
C272 C 0.68097 0.86512 0.40624 0.0
C273 C 0.62019 0.79367 0.3046 0.0
C274 C 0.67607 0.86211 0.23027 0.0
C275 C 0.69306 0.85564 0.21857 0.0
C276 C 0.66221 0.8538 0.27494 0.0
C277 C 0.66541 0.83865 0.30882 0.0
C278 C 0.68271 0.83228 0.29761 0.0
C279 C 0.69633 0.84085 0.25264 0.0
C280 C 0.64397 0.86104 0.2856 0.0
C281 C 0.68668 0.81622 0.33287 0.0
H282 H 0.6495 0.84279 0.48231 0.0
H283 H 0.59832 0.78245 0.39682 0.0
H284 H 0.69589 0.86239 0.39557 0.0
H285 H 0.68097 0.87809 0.37868 0.0
H286 H 0.68422 0.87285 0.44548 0.0
H287 H 0.60286 0.77724 0.3094 0.0
H288 H 0.61845 0.8046 0.27414 0.0
H289 H 0.63331 0.78882 0.29091 0.0
H290 H 0.67341 0.87354 0.20425 0.0
H291 H 0.7094 0.83574 0.24396 0.0
H292 H 0.64738 0.86989 0.32356 0.0
H293 H 0.6261 0.84513 0.28728 0.0
H294 H 0.64392 0.8732 0.2558 0.0
H295 H 0.69116 0.82389 0.37209 0.0
H296 H 0.70111 0.81326 0.31913 0.0
H297 H 0.6702 0.79885 0.33601 0.0
C298 C 0.17669 0.83068 0.46869 0.0
C299 C 0.18259 0.81289 0.46246 0.0
C300 C 0.1705 0.8398 0.42633 0.0
C301 C 0.17019 0.83092 0.37653 0.0
C302 C 0.17596 0.81286 0.37 0.0
C303 C 0.18209 0.80407 0.41302 0.0
C304 C 0.16449 0.85907 0.43481 0.0
C305 C 0.17581 0.80293 0.31746 0.0
C306 C 0.13549 0.83973 0.26986 0.0
C307 C 0.15354 0.85856 0.24222 0.0
C308 C 0.14061 0.8307 0.314 0.0
C309 C 0.16431 0.84083 0.33104 0.0
C310 C 0.18252 0.86016 0.30395 0.0
C311 C 0.17693 0.86875 0.25983 0.0
C312 C 0.12072 0.81003 0.34184 0.0
C313 C 0.20799 0.87156 0.32113 0.0
H314 H 0.17699 0.83759 0.50673 0.0
H315 H 0.18659 0.79032 0.40781 0.0
H316 H 0.17703 0.87517 0.41318 0.0
H317 H 0.14651 0.85339 0.4199 0.0
H318 H 0.16517 0.86377 0.47607 0.0
H319 H 0.18027 0.78861 0.31903 0.0
H320 H 0.15812 0.79584 0.29952 0.0
H321 H 0.18874 0.8172 0.29205 0.0
H322 H 0.11738 0.83172 0.25649 0.0
H323 H 0.19098 0.88336 0.23885 0.0
H324 H 0.12039 0.8146 0.3828 0.0
H325 H 0.12366 0.79471 0.34103 0.0
H326 H 0.10318 0.8046 0.32452 0.0
H327 H 0.20964 0.87759 0.36158 0.0
H328 H 0.21995 0.88693 0.2968 0.0
H329 H 0.21404 0.85843 0.31973 0.0
C330 C 0.37495 0.18634 0.60006 0.0
C331 C 0.36695 0.18656 0.55012 0.0
C332 C 0.35978 0.18058 0.64258 0.0
C333 C 0.33604 0.17492 0.63502 0.0
C334 C 0.32783 0.17506 0.58473 0.0
C335 C 0.34337 0.18086 0.5429 0.0
C336 C 0.36919 0.1806 0.69565 0.0
C337 C 0.30265 0.16917 0.57513 0.0
C338 C 0.29193 0.14013 0.74061 0.0
C339 C 0.29095 0.15812 0.76807 0.0
C340 C 0.30627 0.1453 0.69681 0.0
C341 C 0.31986 0.169 0.67987 0.0
C342 C 0.31847 0.18715 0.70659 0.0
C343 C 0.30408 0.1815 0.75041 0.0
C344 C 0.30731 0.12546 0.66936 0.0
C345 C 0.33255 0.21262 0.68948 0.0
H346 H 0.39312 0.1907 0.60605 0.0
H347 H 0.337 0.18098 0.50447 0.0
H348 H 0.36752 0.19348 0.72055 0.0
H349 H 0.35858 0.16292 0.71359 0.0
H350 H 0.38803 0.1852 0.69497 0.0
H351 H 0.299 0.16998 0.53368 0.0
H352 H 0.2902 0.15116 0.58964 0.0
H353 H 0.29893 0.18166 0.59646 0.0
H354 H 0.28188 0.12201 0.75397 0.0
H355 H 0.30338 0.19551 0.77125 0.0
H356 H 0.32556 0.12839 0.67111 0.0
H357 H 0.3028 0.12522 0.62815 0.0
H358 H 0.29505 0.10789 0.68635 0.0
H359 H 0.35173 0.21878 0.69195 0.0
H360 H 0.32877 0.22449 0.71319 0.0
H361 H 0.32857 0.21424 0.6487 0.0
C362 C 0.79372 0.14446 0.57486 0.0
C363 C 0.80346 0.16793 0.55807 0.0
C364 C 0.80235 0.13885 0.61892 0.0
C365 C 0.8212 0.15712 0.64698 0.0
C366 C 0.83072 0.18091 0.63104 0.0
C367 C 0.82174 0.18604 0.5868 0.0
C368 C 0.79165 0.11327 0.63476 0.0
C369 C 0.85078 0.2009 0.66003 0.0
C370 C 0.83176 0.14374 0.78369 0.0
C371 C 0.85029 0.13894 0.77676 0.0
C372 C 0.82226 0.14988 0.74192 0.0
C373 C 0.83145 0.15123 0.69196 0.0
C374 C 0.85023 0.14655 0.68474 0.0
C375 C 0.85942 0.14048 0.72719 0.0
C376 C 0.80227 0.15478 0.7512 0.0
C377 C 0.8605 0.14776 0.63204 0.0
H378 H 0.77956 0.13035 0.55305 0.0
H379 H 0.82938 0.20422 0.57419 0.0
H380 H 0.80524 0.10784 0.63258 0.0
H381 H 0.78554 0.11097 0.67525 0.0
H382 H 0.77647 0.10125 0.61006 0.0
H383 H 0.85551 0.21849 0.64402 0.0
H384 H 0.84597 0.20038 0.70111 0.0
H385 H 0.86665 0.19885 0.65859 0.0
H386 H 0.8246 0.14265 0.82183 0.0
H387 H 0.87373 0.13683 0.7214 0.0
H388 H 0.78644 0.14209 0.72907 0.0
H389 H 0.80731 0.17277 0.73738 0.0
H390 H 0.7974 0.15341 0.79249 0.0
H391 H 0.84655 0.13487 0.606 0.0
H392 H 0.87527 0.14394 0.633 0.0
H393 H 0.86709 0.16559 0.61523 0.0
C394 C 0.84851 0.68391 0.77053 0.0
C395 C 0.85841 0.70832 0.7627 0.0
C396 C 0.8423 0.66826 0.72884 0.0
C397 C 0.84603 0.67722 0.67807 0.0
C398 C 0.85604 0.70182 0.66986 0.0
C399 C 0.86213 0.71709 0.71227 0.0
C400 C 0.83171 0.64214 0.73914 0.0
C401 C 0.86022 0.71202 0.61624 0.0
C402 C 0.84933 0.64046 0.56846 0.0
C403 C 0.82666 0.63077 0.5469 0.0
C404 C 0.85579 0.65538 0.61154 0.0
C405 C 0.83922 0.66082 0.63346 0.0
C406 C 0.81622 0.65083 0.61235 0.0
C407 C 0.8102 0.63589 0.56942 0.0
C408 C 0.88044 0.66558 0.6332 0.0
C409 C 0.79806 0.65622 0.63462 0.0
H410 H 0.84559 0.67696 0.80934 0.0
H411 H 0.86977 0.7359 0.70582 0.0
H412 H 0.81385 0.63224 0.7217 0.0
H413 H 0.84272 0.63558 0.72099 0.0
H414 H 0.83021 0.63805 0.7809 0.0
H415 H 0.86827 0.73156 0.61639 0.0
H416 H 0.87206 0.70742 0.59481 0.0
H417 H 0.84324 0.70424 0.59492 0.0
H418 H 0.86215 0.63658 0.5514 0.0
H419 H 0.79265 0.62852 0.55303 0.0
H420 H 0.87957 0.66092 0.67448 0.0
H421 H 0.88982 0.68515 0.63066 0.0
H422 H 0.89102 0.65912 0.61256 0.0
H423 H 0.79516 0.65127 0.67589 0.0
H424 H 0.78082 0.64669 0.6143 0.0
H425 H 0.80464 0.67549 0.63227 0.0
C426 C 0.96301 0.47641 0.06533 0.0
C427 C 0.9667 0.49404 0.101 0.0
C428 C 0.97727 0.48171 0.02136 0.0
C429 C 0.99565 0.50522 0.0128 0.0
C430 C 0.99935 0.52314 0.04841 0.0
C431 C 0.98484 0.51734 0.09206 0.0
C432 C 0.97276 0.46213 0.9842 0.0
C433 C 0.01874 0.54841 0.04056 0.0
C434 C 0.04606 0.51466 0.92453 0.0
C435 C 0.03971 0.52106 0.87826 0.0
C436 C 0.03198 0.50963 0.96874 0.0
C437 C 0.01104 0.51104 0.96661 0.0
C438 C 0.00467 0.51775 0.92022 0.0
C439 C 0.01908 0.52269 0.87663 0.0
C440 C 0.03939 0.5026 0.01759 0.0
C441 C 0.9825 0.51948 0.91646 0.0
H442 H 0.94906 0.45836 0.07191 0.0
H443 H 0.98784 0.53109 0.11937 0.0
H444 H 0.96904 0.46648 0.94532 0.0
H445 H 0.98876 0.46037 0.98104 0.0
H446 H 0.95764 0.44482 0.99619 0.0
H447 H 0.01917 0.5603 0.07161 0.0
H448 H 0.03616 0.54933 0.03916 0.0
H449 H 0.01629 0.55511 0.0032 0.0
H450 H 0.06197 0.51337 0.9262 0.0
H451 H 0.01402 0.52764 0.84109 0.0
H452 H 0.02553 0.4846 0.02939 0.0
H453 H 0.04129 0.51483 0.0492 0.0
H454 H 0.05637 0.50273 0.01314 0.0
H455 H 0.96678 0.50203 0.92493 0.0
H456 H 0.98024 0.52532 0.8778 0.0
H457 H 0.98294 0.53212 0.94552 0.0
C458 C 0.54428 0.50676 0.05926 0.0
C459 C 0.52844 0.49008 0.09445 0.0
C460 C 0.53607 0.51356 0.01624 0.0
C461 C 0.51143 0.50361 0.00853 0.0
C462 C 0.49535 0.48638 0.04328 0.0
C463 C 0.50405 0.47974 0.08566 0.0
C464 C 0.55376 0.53177 0.97968 0.0
C465 C 0.46895 0.47545 0.03653 0.0
C466 C 0.49033 0.53895 0.93119 0.0
C467 C 0.48518 0.52749 0.88339 0.0
C468 C 0.49888 0.53135 0.97218 0.0
C469 C 0.50245 0.51185 0.96521 0.0
C470 C 0.49732 0.5002 0.91708 0.0
C471 C 0.4887 0.50813 0.87679 0.0
C472 C 0.50406 0.54417 0.02302 0.0
C473 C 0.50097 0.4794 0.90814 0.0
H474 H 0.56315 0.51475 0.06561 0.0
H475 H 0.49166 0.46688 0.11269 0.0
H476 H 0.55006 0.52489 0.93974 0.0
H477 H 0.55213 0.54789 0.98045 0.0
H478 H 0.57226 0.53684 0.98951 0.0
H479 H 0.45882 0.46166 0.06584 0.0
H480 H 0.46398 0.48936 0.03937 0.0
H481 H 0.46359 0.4674 0.99778 0.0
H482 H 0.48767 0.55391 0.93669 0.0
H483 H 0.48482 0.49917 0.83998 0.0
H484 H 0.52291 0.55136 0.03337 0.0
H485 H 0.49329 0.53165 0.05386 0.0
H486 H 0.50025 0.55895 0.02223 0.0
H487 H 0.51971 0.48466 0.91544 0.0
H488 H 0.49631 0.4724 0.86834 0.0
H489 H 0.49003 0.46497 0.93546 0.0
C490 C 0.53882 0.02138 0.10552 0.0
C491 C 0.5263 0.0315 0.12737 0.0
C492 C 0.52999 0.00646 0.06252 0.0
C493 C 0.50803 0.0014 0.04103 0.0
C494 C 0.49534 0.01163 0.06272 0.0
C495 C 0.50467 0.02663 0.10551 0.0
C496 C 0.54414 0.99605 0.0402 0.0
C497 C 0.47181 0.00657 0.041 0.0
C498 C 0.4948 0.97932 0.90314 0.0
C499 C 0.48043 0.95483 0.91004 0.0
C500 C 0.50383 0.99467 0.9454 0.0
C501 C 0.49832 0.98535 0.99585 0.0
C502 C 0.48371 0.96067 0.00314 0.0
C503 C 0.47497 0.94571 0.96016 0.0
C504 C 0.51939 0.02087 0.93604 0.0
C505 C 0.47739 0.95008 0.05638 0.0
H506 H 0.55557 0.0251 0.12204 0.0
H507 H 0.49483 0.03431 0.12222 0.0
H508 H 0.53364 0.97647 0.04177 0.0
H509 H 0.54813 0.00111 0.99915 0.0
H510 H 0.56106 0.00199 0.06098 0.0
H511 H 0.4642 0.01598 0.06222 0.0
H512 H 0.47385 0.01193 0.0 0.0
H513 H 0.45906 0.98731 0.04255 0.0
H514 H 0.49914 0.98656 0.86459 0.0
H515 H 0.46387 0.92683 0.9659 0.0
H516 H 0.537 0.02719 0.95381 0.0
H517 H 0.51155 0.03069 0.95445 0.0
H518 H 0.52189 0.02532 0.89444 0.0
H519 H 0.4937 0.95415 0.07776 0.0
H520 H 0.46557 0.93059 0.05551 0.0
H521 H 0.46849 0.95802 0.07818 0.0
C522 C 0.15879 0.27651 0.86917 0.0
C523 C 0.15745 0.28678 0.91551 0.0
C524 C 0.16768 0.29013 0.82442 0.0
C525 C 0.17539 0.31458 0.82609 0.0
C526 C 0.17461 0.32516 0.87298 0.0
C527 C 0.16564 0.31113 0.91717 0.0
C528 C 0.16832 0.27827 0.77508 0.0
C529 C 0.18271 0.35121 0.87621 0.0
C530 C 0.21455 0.35536 0.72013 0.0
C531 C 0.19816 0.3582 0.69057 0.0
C532 C 0.20735 0.34087 0.76395 0.0
C533 C 0.18321 0.32892 0.7783 0.0
C534 C 0.16651 0.33121 0.74784 0.0
C535 C 0.17419 0.34585 0.70438 0.0
C536 C 0.22564 0.33882 0.79559 0.0
C537 C 0.14058 0.31862 0.76181 0.0
H538 H 0.15259 0.25772 0.86761 0.0
H539 H 0.16473 0.31921 0.95285 0.0
H540 H 0.15635 0.27939 0.74637 0.0
H541 H 0.1864 0.2875 0.75854 0.0
H542 H 0.16284 0.25936 0.78086 0.0
H543 H 0.18197 0.35691 0.91608 0.0
H544 H 0.20111 0.36181 0.86185 0.0
H545 H 0.17141 0.3553 0.85133 0.0
H546 H 0.2331 0.36487 0.70975 0.0
H547 H 0.16139 0.34788 0.68167 0.0
H548 H 0.22049 0.31997 0.80036 0.0
H549 H 0.2266 0.34613 0.83459 0.0
H550 H 0.24351 0.34838 0.77791 0.0
H551 H 0.13371 0.29934 0.76522 0.0
H552 H 0.12975 0.32157 0.73298 0.0
H553 H 0.13821 0.32491 0.79977 0.0
C554 C 0.65397 0.84138 0.738 0.0
C555 C 0.63467 0.84485 0.73046 0.0
C556 C 0.66685 0.84822 0.78404 0.0
C557 C 0.6599 0.85826 0.82382 0.0
C558 C 0.6406 0.86208 0.81618 0.0
C559 C 0.62835 0.85555 0.76929 0.0
C560 C 0.68765 0.84433 0.79041 0.0
C561 C 0.63243 0.87234 0.85811 0.0
C562 C 0.67866 0.8513 0.95761 0.0
C563 C 0.69839 0.87369 0.96604 0.0
C564 C 0.66541 0.84632 0.91222 0.0
C565 C 0.67242 0.86402 0.87398 0.0
C566 C 0.69203 0.8868 0.88275 0.0
C567 C 0.70466 0.89144 0.92898 0.0
C568 C 0.64427 0.82195 0.90465 0.0
C569 C 0.70026 0.90599 0.8425 0.0
H570 H 0.65895 0.83322 0.70793 0.0
H571 H 0.61329 0.85805 0.76376 0.0
H572 H 0.70362 0.86108 0.80177 0.0
H573 H 0.68396 0.83133 0.82159 0.0
H574 H 0.69164 0.83769 0.75464 0.0
H575 H 0.61755 0.87482 0.84547 0.0
H576 H 0.62661 0.86043 0.89202 0.0
H577 H 0.64724 0.88964 0.87083 0.0
H578 H 0.67369 0.83758 0.98635 0.0
H579 H 0.72001 0.90873 0.93519 0.0
H580 H 0.64773 0.8129 0.87254 0.0
H581 H 0.62851 0.82327 0.89405 0.0
H582 H 0.6401 0.81081 0.93967 0.0
H583 H 0.70603 0.90047 0.8076 0.0
H584 H 0.71519 0.92306 0.85622 0.0
H585 H 0.6855 0.90881 0.83093 0.0
C586 C 0.11074 0.80962 0.95349 0.0
C587 C 0.12661 0.82701 0.98741 0.0
C588 C 0.11889 0.80344 0.90953 0.0
C589 C 0.14348 0.81478 0.89964 0.0
C590 C 0.15961 0.83191 0.93442 0.0
C591 C 0.15097 0.83788 0.9778 0.0
C592 C 0.10118 0.78517 0.87308 0.0
C593 C 0.18598 0.8442 0.92539 0.0
C594 C 0.1666 0.78585 0.8081 0.0
C595 C 0.17025 0.7991 0.7631 0.0
C596 C 0.15782 0.79071 0.85282 0.0
C597 C 0.15237 0.80913 0.85235 0.0
C598 C 0.15581 0.82244 0.80696 0.0
C599 C 0.16482 0.81734 0.76289 0.0
C600 C 0.15457 0.77629 0.90069 0.0
C601 C 0.15003 0.84212 0.80501 0.0
H602 H 0.09189 0.80122 0.96058 0.0
H603 H 0.16335 0.85128 0.00397 0.0
H604 H 0.10262 0.79328 0.83478 0.0
H605 H 0.10505 0.77059 0.86777 0.0
H606 H 0.0827 0.77759 0.88697 0.0
H607 H 0.19617 0.85645 0.95716 0.0
H608 H 0.19178 0.83095 0.92122 0.0
H609 H 0.19044 0.85442 0.88902 0.0
H610 H 0.17082 0.77177 0.8086 0.0
H611 H 0.16751 0.82758 0.72819 0.0
H612 H 0.13589 0.76764 0.91357 0.0
H613 H 0.16559 0.78804 0.93232 0.0
H614 H 0.15947 0.76245 0.89453 0.0
H615 H 0.13123 0.83521 0.81552 0.0
H616 H 0.1532 0.85041 0.76636 0.0
H617 H 0.16095 0.85598 0.83346 0.0
C618 C 0.34685 0.17816 0.2455 0.0
C619 C 0.37074 0.19585 0.24536 0.0
C620 C 0.33291 0.17333 0.20122 0.0
C621 C 0.3431 0.18655 0.15586 0.0
C622 C 0.36717 0.20444 0.15548 0.0
C623 C 0.38071 0.20885 0.20023 0.0
C624 C 0.30728 0.15404 0.20291 0.0
C625 C 0.37861 0.21889 0.1078 0.0
C626 C 0.31258 0.15829 0.03043 0.0
C627 C 0.29904 0.16919 0.02157 0.0
C628 C 0.32736 0.16413 0.07348 0.0
C629 C 0.32864 0.1813 0.10851 0.0
C630 C 0.31561 0.1929 0.09903 0.0
C631 C 0.30095 0.18672 0.05558 0.0
C632 C 0.34109 0.15146 0.08222 0.0
C633 C 0.31665 0.21138 0.13554 0.0
H634 H 0.33902 0.16807 0.28023 0.0
H635 H 0.39914 0.22262 0.19983 0.0
H636 H 0.29573 0.16141 0.19287 0.0
H637 H 0.30403 0.14025 0.174 0.0
H638 H 0.30201 0.14555 0.24135 0.0
H639 H 0.39747 0.23238 0.1141 0.0
H640 H 0.3776 0.20712 0.07595 0.0
H641 H 0.36897 0.22798 0.09514 0.0
H642 H 0.31127 0.14477 0.00427 0.0
H643 H 0.29055 0.19521 0.04902 0.0
H644 H 0.33511 0.14109 0.11838 0.0
H645 H 0.36019 0.16445 0.08664 0.0
H646 H 0.33889 0.13927 0.05019 0.0
H647 H 0.3096 0.20325 0.17364 0.0
H648 H 0.3063 0.21953 0.1214 0.0
H649 H 0.33525 0.22553 0.14135 0.0
C650 C 0.83224 0.13862 0.08052 0.0
C651 C 0.84434 0.12593 0.08253 0.0
C652 C 0.82365 0.14358 0.12544 0.0
C653 C 0.82718 0.13559 0.17345 0.0
C654 C 0.83904 0.12247 0.17569 0.0
C655 C 0.84753 0.11783 0.13018 0.0
C656 C 0.81115 0.15771 0.12161 0.0
C657 C 0.84305 0.11361 0.22622 0.0
C658 C 0.82645 0.16971 0.29052 0.0
C659 C 0.80327 0.15548 0.3086 0.0
C660 C 0.8346 0.16317 0.24721 0.0
C661 C 0.81924 0.14182 0.22146 0.0
C662 C 0.79608 0.12697 0.24042 0.0
C663 C 0.78834 0.134 0.2838 0.0
C664 C 0.85943 0.17946 0.22812 0.0
C665 C 0.77928 0.104 0.21407 0.0
H666 H 0.82969 0.14492 0.04386 0.0
H667 H 0.85677 0.10793 0.13205 0.0
H668 H 0.7933 0.14772 0.13909 0.0
H669 H 0.82113 0.17446 0.14343 0.0
H670 H 0.80925 0.16204 0.0812 0.0
H671 H 0.85173 0.10282 0.22113 0.0
H672 H 0.85431 0.12881 0.25156 0.0
H673 H 0.82596 0.10276 0.24636 0.0
H674 H 0.83813 0.18632 0.30947 0.0
H675 H 0.77043 0.12288 0.29759 0.0
H676 H 0.85878 0.186 0.18911 0.0
H677 H 0.86925 0.16972 0.22496 0.0
H678 H 0.86946 0.19493 0.25378 0.0
H679 H 0.7753 0.10764 0.17477 0.0
H680 H 0.76237 0.09382 0.23538 0.0
H681 H 0.78759 0.09285 0.20998 0.0
C682 C 0.85118 0.68795 0.06656 0.0
C683 C 0.86041 0.71245 0.06949 0.0
C684 C 0.84596 0.67419 0.11123 0.0
C685 C 0.85008 0.68523 0.15994 0.0
C686 C 0.85956 0.70997 0.1632 0.0
C687 C 0.86461 0.7233 0.1179 0.0
C688 C 0.83583 0.64782 0.10631 0.0
C689 C 0.86418 0.72232 0.21452 0.0
C690 C 0.81493 0.64656 0.27211 0.0
C691 C 0.83134 0.6415 0.29512 0.0
C692 C 0.82092 0.66104 0.2285 0.0
C693 C 0.8439 0.67074 0.20745 0.0
C694 C 0.86071 0.6661 0.231 0.0
C695 C 0.85422 0.65151 0.2746 0.0
C696 C 0.80253 0.66563 0.20443 0.0
C697 C 0.8854 0.67622 0.20962 0.0
H698 H 0.84791 0.67944 0.02931 0.0
H699 H 0.87177 0.74223 0.12049 0.0
H700 H 0.84725 0.64239 0.12681 0.0
H701 H 0.81811 0.63836 0.12457 0.0
H702 H 0.83411 0.64205 0.06559 0.0
H703 H 0.87214 0.74176 0.21041 0.0
H704 H 0.84739 0.71536 0.23629 0.0
H705 H 0.87626 0.7187 0.23783 0.0
H706 H 0.79722 0.63893 0.28775 0.0
H707 H 0.86702 0.64772 0.29219 0.0
H708 H 0.79878 0.65863 0.16459 0.0
H709 H 0.8093 0.68493 0.20203 0.0
H710 H 0.78569 0.65731 0.22641 0.0
H711 H 0.88458 0.66951 0.17005 0.0
H712 H 0.89662 0.67159 0.23348 0.0
H713 H 0.89405 0.69576 0.2071 0.0
C714 C 0.97046 0.48187 0.36917 0.0
C715 C 0.96247 0.49705 0.35205 0.0
C716 C 0.98484 0.48734 0.41281 0.0
C717 C 0.99148 0.50854 0.43985 0.0
C718 C 0.98366 0.52405 0.4226 0.0
C719 C 0.96919 0.51809 0.37889 0.0
C720 C 0.9928 0.47034 0.43017 0.0
C721 C 0.99053 0.54688 0.45042 0.0
C722 C 0.01088 0.51196 0.57859 0.0
C723 C 0.03557 0.52445 0.57374 0.0
C724 C 0.99628 0.50682 0.53532 0.0
C725 C 0.00666 0.51445 0.48618 0.0
C726 C 0.03156 0.52723 0.48108 0.0
C727 C 0.04573 0.53202 0.52493 0.0
C728 C 0.96976 0.49304 0.5421 0.0
C729 C 0.04324 0.5357 0.42926 0.0
H730 H 0.96531 0.46554 0.34873 0.0
H731 H 0.96309 0.5299 0.36588 0.0
H732 H 0.0124 0.47937 0.43068 0.0
H733 H 0.98661 0.46432 0.46998 0.0
H734 H 0.98604 0.45457 0.40487 0.0
H735 H 0.98314 0.5571 0.43178 0.0
H736 H 0.98417 0.54311 0.49075 0.0
H737 H 0.01007 0.55806 0.45175 0.0
H738 H 0.00291 0.50606 0.61619 0.0
H739 H 0.0648 0.54178 0.52088 0.0
H740 H 0.96221 0.47631 0.51994 0.0
H741 H 0.96179 0.50331 0.52672 0.0
H742 H 0.9645 0.48872 0.58304 0.0
H743 H 0.03815 0.52037 0.40348 0.0
H744 H 0.06284 0.54593 0.43207 0.0
H745 H 0.03708 0.54702 0.41095 0.0
C746 C 0.47822 0.50771 0.58122 0.0
C747 C 0.4714 0.52494 0.58055 0.0
C748 C 0.48286 0.49948 0.53539 0.0
C749 C 0.48063 0.50872 0.48782 0.0
C750 C 0.47376 0.52611 0.48683 0.0
C751 C 0.46922 0.53402 0.53326 0.0
C752 C 0.49018 0.48091 0.53789 0.0
C753 C 0.47123 0.53635 0.43675 0.0
C754 C 0.514 0.50241 0.37545 0.0
C755 C 0.4962 0.48222 0.35082 0.0
C756 C 0.50904 0.51158 0.41941 0.0
C757 C 0.48574 0.50027 0.43916 0.0
C758 C 0.46754 0.48033 0.41363 0.0
C759 C 0.47299 0.47153 0.36969 0.0
C760 C 0.52888 0.53294 0.44558 0.0
C761 C 0.44246 0.46787 0.43358 0.0
H762 H 0.47993 0.5006 0.6176 0.0
H763 H 0.46394 0.54734 0.53241 0.0
H764 H 0.47754 0.46505 0.5158 0.0
H765 H 0.50784 0.48776 0.51996 0.0
H766 H 0.49097 0.47547 0.57798 0.0
H767 H 0.46559 0.54966 0.44262 0.0
H768 H 0.48832 0.54486 0.41578 0.0
H769 H 0.45807 0.52204 0.4118 0.0
H770 H 0.53197 0.51082 0.36104 0.0
H771 H 0.45914 0.45595 0.35083 0.0
H772 H 0.53176 0.52804 0.48466 0.0
H773 H 0.52412 0.54693 0.45015 0.0
H774 H 0.54576 0.54037 0.42385 0.0
H775 H 0.44188 0.46033 0.47214 0.0
H776 H 0.43014 0.45337 0.40776 0.0
H777 H 0.43606 0.48064 0.43804 0.0
C778 C 0.5058 0.95594 0.56898 0.0
C779 C 0.49564 0.96079 0.61141 0.0
C780 C 0.51344 0.97089 0.52594 0.0
C781 C 0.51083 0.99113 0.52535 0.0
C782 C 0.50062 0.99615 0.56804 0.0
C783 C 0.49316 0.98092 0.61059 0.0
C784 C 0.52429 0.96502 0.48109 0.0
C785 C 0.49755 0.01759 0.56873 0.0
C786 C 0.54936 0.04197 0.43617 0.0
C787 C 0.53372 0.03843 0.3957 0.0
C788 C 0.54221 0.02656 0.47838 0.0
C789 C 0.51885 0.00716 0.48014 0.0
C790 C 0.50304 0.00331 0.4392 0.0
C791 C 0.51068 0.019 0.39742 0.0
C792 C 0.55956 0.03118 0.52135 0.0
C793 C 0.478 0.98278 0.4398 0.0
H794 H 0.50778 0.94043 0.5693 0.0
H795 H 0.4853 0.98478 0.64317 0.0
H796 H 0.5139 0.96278 0.44568 0.0
H797 H 0.54249 0.9798 0.47403 0.0
H798 H 0.52507 0.94861 0.48761 0.0
H799 H 0.48926 0.01896 0.60489 0.0
H800 H 0.51498 0.03389 0.56424 0.0
H801 H 0.48639 0.01688 0.53585 0.0
H802 H 0.56722 0.05691 0.43512 0.0
H803 H 0.49849 0.01613 0.36628 0.0
H804 H 0.56167 0.0155 0.52716 0.0
H805 H 0.55271 0.03423 0.55785 0.0
H806 H 0.57723 0.04676 0.51357 0.0
H807 H 0.47808 0.9659 0.44359 0.0
H808 H 0.46807 0.98199 0.40446 0.0
H809 H 0.46842 0.98421 0.47359 0.0
C810 C 0.16193 0.20847 0.05634 0.0
C811 C 0.13862 0.20074 0.04064 0.0
C812 C 0.17335 0.19587 0.04301 0.0
C813 C 0.16119 0.17502 0.01325 0.0
C814 C 0.13741 0.16666 0.99873 0.0
C815 C 0.1264 0.17961 0.01266 0.0
C816 C 0.19868 0.20525 0.05953 0.0
C817 C 0.12385 0.14445 0.96716 0.0
C818 C 0.19953 0.15794 0.93516 0.0
C819 C 0.20001 0.14076 0.9667 0.0
C820 C 0.18651 0.16885 0.94932 0.0
C821 C 0.17367 0.16241 0.99608 0.0
C822 C 0.17356 0.14463 0.02736 0.0
C823 C 0.18673 0.13403 0.01231 0.0
C824 C 0.18701 0.18772 0.9149 0.0
C825 C 0.16001 0.13724 0.07739 0.0
H826 H 0.1715 0.22473 0.07808 0.0
H827 H 0.10839 0.17348 0.00036 0.0
H828 H 0.20034 0.19143 0.08083 0.0
H829 H 0.21022 0.20993 0.02514 0.0
H830 H 0.20529 0.22115 0.08438 0.0
H831 H 0.10511 0.13964 0.96136 0.0
H832 H 0.13233 0.14693 0.92894 0.0
H833 H 0.12428 0.12944 0.98612 0.0
H834 H 0.20972 0.16323 0.89987 0.0
H835 H 0.18692 0.12072 0.03686 0.0
H836 H 0.19533 0.20488 0.93554 0.0
H837 H 0.16872 0.18328 0.9049 0.0
H838 H 0.19699 0.18995 0.87877 0.0
H839 H 0.16742 0.15239 0.10446 0.0
H840 H 0.16072 0.12228 0.09592 0.0
H841 H 0.14123 0.13198 0.07077 0.0
C842 C 0.82999 0.03652 0.94383 0.0
C843 C 0.85366 0.05213 0.95694 0.0
C844 C 0.81882 0.01262 0.95815 0.0
C845 C 0.8316 0.00411 0.98634 0.0
C846 C 0.85565 0.0196 0.99853 0.0
C847 C 0.86641 0.04343 0.9836 0.0
C848 C 0.79317 0.99659 0.9441 0.0
C849 C 0.86985 0.01115 0.02845 0.0
C850 C 0.79438 0.94884 0.06575 0.0
C851 C 0.79314 0.93111 0.0333 0.0
C852 C 0.80745 0.97277 0.05163 0.0
C853 C 0.81953 0.97909 0.00392 0.0
C854 C 0.81906 0.96136 0.9719 0.0
C855 C 0.8059 0.93759 0.987 0.0
C856 C 0.80766 0.99122 0.08696 0.0
C857 C 0.83174 0.9674 0.9208 0.0
H858 H 0.82 0.04306 0.92316 0.0
H859 H 0.88469 0.05535 0.99396 0.0
H860 H 0.7911 0.98108 0.92227 0.0
H861 H 0.78239 0.9898 0.97957 0.0
H862 H 0.78598 0.00576 0.92059 0.0
H863 H 0.88863 0.02517 0.03299 0.0
H864 H 0.86201 0.00517 0.06721 0.0
H865 H 0.86925 0.99576 0.00891 0.0
H866 H 0.78461 0.944 0.10161 0.0
H867 H 0.80512 0.92403 0.9617 0.0
H868 H 0.79869 -0.00018 0.06795 0.0
H869 H 0.82611 0.00521 0.09503 0.0
H870 H 0.79861 0.98357 0.12407 0.0
H871 H 0.82367 0.97482 0.89462 0.0
H872 H 0.83093 0.95173 0.902 0.0
H873 H 0.85056 0.98112 0.9259 0.0
C874 C 0.95385 0.7872 0.93647 0.0
C875 C 0.93839 0.79568 0.94754 0.0
C876 C 0.97753 0.79956 0.95248 0.0
C877 C 0.98596 0.82093 0.98022 0.0
C878 C 0.97069 0.83002 0.99 0.0
C879 C 0.94708 0.81729 0.97349 0.0
C880 C 0.99334 0.78938 0.94105 0.0
C881 C 0.97908 0.8528 0.01929 0.0
C882 C 0.0387 0.83782 0.06735 0.0
C883 C 0.05746 0.85431 0.03697 0.0
C884 C 0.01527 0.8272 0.04976 0.0
C885 C 0.01051 0.83323 0.00064 0.0
C886 C 0.02929 0.85031 0.97036 0.0
C887 C 0.05254 0.86065 0.98889 0.0
C888 C 0.99566 0.80909 0.08322 0.0
C889 C 0.02489 0.85723 0.91784 0.0
H890 H 0.94733 0.77056 0.9163 0.0
H891 H 0.93528 0.82401 0.98217 0.0
H892 H 0.00956 0.80265 0.92086 0.0
H893 H 0.99899 0.78492 0.97758 0.0
H894 H 0.98439 0.77318 0.91699 0.0
H895 H 0.96541 0.85817 0.02114 0.0
H896 H 0.98389 0.85074 0.0591 0.0
H897 H 0.99521 0.86726 0.00106 0.0
H898 H 0.04233 0.83284 0.10455 0.0
H899 H 0.06692 0.87342 0.96518 0.0
H900 H 0.98699 0.79166 0.06366 0.0
H901 H 0.98196 0.81414 0.08937 0.0
H902 H 0.0022 0.80711 0.12129 0.0
H903 H 0.01756 0.84168 0.89186 0.0
H904 H 0.04127 0.87167 0.90026 0.0
H905 H 0.0116 0.86304 0.92043 0.0
C906 C 0.82778 0.78057 0.93765 0.0
C907 C 0.81704 0.75617 0.94676 0.0
C908 C 0.81629 0.79317 0.95057 0.0
C909 C 0.79353 0.7811 0.97317 0.0
C910 C 0.78246 0.75644 0.98182 0.0
C911 C 0.79434 0.74427 0.96848 0.0
C912 C 0.82862 0.81945 0.9406 0.0
C913 C 0.75817 0.74295 0.00575 0.0
C914 C 0.77335 0.81712 0.05081 0.0
C915 C 0.7588 0.82006 0.01542 0.0
C916 C 0.78466 0.80435 0.03767 0.0
C917 C 0.78134 0.79431 0.98798 0.0
C918 C 0.76652 0.79703 0.95228 0.0
C919 C 0.75542 0.80985 0.96643 0.0
C920 C 0.8003 0.80176 0.07681 0.0
C921 C 0.76254 0.78656 0.89894 0.0
H922 H 0.84533 0.78992 0.92094 0.0
H923 H 0.7859 0.72544 0.97571 0.0
H924 H 0.81752 0.82372 0.91549 0.0
H925 H 0.83116 0.82906 0.97734 0.0
H926 H 0.84615 0.82613 0.92202 0.0
H927 H 0.75187 0.72375 0.00922 0.0
H928 H 0.75843 0.75008 0.04462 0.0
H929 H 0.74526 0.74526 0.98235 0.0
H930 H 0.77606 0.82494 0.08873 0.0
H931 H 0.74421 0.81201 0.9388 0.0
H932 H 0.8186 0.80972 0.06173 0.0
H933 H 0.79394 0.78277 0.08395 0.0
H934 H 0.80078 0.81036 0.114 0.0
H935 H 0.77964 0.79403 0.8782 0.0
H936 H 0.75025 0.79003 0.87594 0.0
H937 H 0.75519 0.76717 0.90141 0.0
C938 C 0.19247 0.94868 0.03119 0.0
C939 C 0.17118 0.93854 0.05887 0.0
C940 C 0.2036 0.97236 0.01541 0.0
C941 C 0.19316 0.98624 0.02751 0.0
C942 C 0.17177 0.9762 0.05573 0.0
C943 C 0.16104 0.95246 0.07118 0.0
C944 C 0.22649 0.98252 0.98564 0.0
C945 C 0.16015 0.9905 0.06935 0.0
C946 C 0.23264 0.05286 0.02819 0.0
C947 C 0.22752 0.05917 0.98032 0.0
C948 C 0.22154 0.0292 0.04403 0.0
C949 C 0.20486 0.01139 0.01125 0.0
C950 C 0.19957 0.01759 0.96287 0.0
C951 C 0.211 0.04144 0.94792 0.0
C952 C 0.2277 0.02326 0.09583 0.0
C953 C 0.18184 0.99903 0.92696 0.0
H954 H 0.20043 0.93806 0.02152 0.0
H955 H 0.14456 0.94474 0.09239 0.0
H956 H 0.22441 0.98902 0.94767 0.0
H957 H 0.24066 0.99788 0.00653 0.0
H958 H 0.23229 0.96936 0.97936 0.0
H959 H 0.14349 0.98003 0.09131 0.0
H960 H 0.17241 0.00609 0.09266 0.0
H961 H 0.15615 0.99723 0.0338 0.0
H962 H 0.24539 0.06643 0.05351 0.0
H963 H 0.20691 0.04619 0.91094 0.0
H964 H 0.23479 0.01108 0.09091 0.0
H965 H 0.21157 0.01399 0.11991 0.0
H966 H 0.24101 0.03922 0.11681 0.0
H967 H 0.18757 0.98614 0.91695 0.0
H968 H 0.17958 0.00679 0.89086 0.0
H969 H 0.16442 0.98905 0.94631 0.0
C970 C 0.945 0.195 0.99008 0.0
C971 C 0.9347 0.17361 0.96275 0.0
C972 C 0.96935 0.20749 0.00045 0.0
C973 C 0.98381 0.19847 0.98289 0.0
C974 C 0.97357 0.17696 0.95505 0.0
C975 C 0.94913 0.16477 0.94539 0.0
C976 C 0.9796 0.23034 0.03035 0.0
C977 C 0.98845 0.16686 0.93543 0.0
C978 C 0.04948 0.24183 0.96803 0.0
C979 C 0.05886 0.23738 0.01244 0.0
C980 C 0.02514 0.22916 0.95778 0.0
C981 C 0.00971 0.21175 0.99302 0.0
C982 C 0.01901 0.20723 0.03806 0.0
C983 C 0.04349 0.22003 0.04713 0.0
C984 C 0.01593 0.23437 0.90914 0.0
C985 C 0.00307 0.18892 0.07673 0.0
H986 H 0.93401 0.20195 0.00379 0.0
H987 H 0.94133 0.14825 0.92431 0.0
H988 H 0.98854 0.22908 0.0655 0.0
H989 H 0.99316 0.24507 0.00686 0.0
H990 H 0.96591 0.23481 0.04184 0.0
H991 H 0.97778 0.14995 0.91445 0.0
H992 H 0.00237 0.1797 0.90926 0.0
H993 H 0.99752 0.16373 0.96801 0.0
H994 H 0.06122 0.2551 0.94082 0.0
H995 H 0.05059 0.21649 0.08153 0.0
H996 H 0.00315 0.24028 0.91883 0.0
H997 H 0.00633 0.21807 0.88572 0.0
H998 H 0.03031 0.24825 0.88536 0.0
H999 H 0.98983 0.19341 0.09143 0.0
H1000 H 0.01306 0.18756 0.10987 0.0
H1001 H 0.99316 0.17136 0.058 0.0
C1002 C 0.80594 0.53174 0.29878 0.0
C1003 C 0.81338 0.54594 0.34299 0.0
C1004 C 0.81615 0.51808 0.28478 0.0
C1005 C 0.83444 0.51885 0.31539 0.0
C1006 C 0.84199 0.53309 0.36017 0.0
C1007 C 0.83126 0.54636 0.37362 0.0
C1008 C 0.80742 0.50289 0.23711 0.0
C1009 C 0.86161 0.53453 0.39349 0.0
C1010 C 0.84865 0.46922 0.30627 0.0
C1011 C 0.86846 0.47917 0.27384 0.0
C1012 C 0.83715 0.48179 0.31945 0.0
C1013 C 0.84587 0.50497 0.30024 0.0
C1014 C 0.86571 0.51501 0.26702 0.0
C1015 C 0.87668 0.50193 0.25394 0.0
C1016 C 0.81584 0.47037 0.35439 0.0
C1017 C 0.87563 0.53977 0.24611 0.0
H1018 H 0.79203 0.53123 0.27506 0.0
H1019 H 0.83715 0.55737 0.40771 0.0
H1020 H 0.82207 0.50861 0.20903 0.0
H1021 H 0.80139 0.4842 0.24704 0.0
H1022 H 0.79261 0.50377 0.21827 0.0
H1023 H 0.8654 0.54642 0.42706 0.0
H1024 H 0.85684 0.51668 0.40775 0.0
H1025 H 0.87802 0.54111 0.37045 0.0
H1026 H 0.84216 0.45161 0.32163 0.0
H1027 H 0.89207 0.5098 0.22912 0.0
H1028 H 0.80054 0.47029 0.33561 0.0
H1029 H 0.81957 0.48075 0.39039 0.0
H1030 H 0.81077 0.4519 0.36453 0.0
H1031 H 0.8618 0.54124 0.22442 0.0
H1032 H 0.89102 0.54491 0.22033 0.0
H1033 H 0.88127 0.55258 0.27835 0.0
C1034 C 0.51621 0.37385 0.26769 0.0
C1035 C 0.51012 0.39097 0.28065 0.0
C1036 C 0.50476 0.35143 0.29084 0.0
C1037 C 0.48704 0.34614 0.32826 0.0
C1038 C 0.48109 0.36348 0.34207 0.0
C1039 C 0.49259 0.38562 0.31786 0.0
C1040 C 0.51134 0.33325 0.27465 0.0
C1041 C 0.46242 0.35857 0.3821 0.0
C1042 C 0.44025 0.28205 0.34839 0.0
C1043 C 0.44836 0.27611 0.39284 0.0
C1044 C 0.45273 0.30473 0.32703 0.0
C1045 C 0.47377 0.32206 0.35089 0.0
C1046 C 0.48194 0.31636 0.39615 0.0
C1047 C 0.46917 0.29337 0.41653 0.0
C1048 C 0.44349 0.31007 0.27856 0.0
C1049 C 0.50421 0.3345 0.42286 0.0
H1050 H 0.52975 0.37788 0.23902 0.0
H1051 H 0.48794 0.39884 0.3285 0.0
H1052 H 0.51677 0.32685 0.30865 0.0
H1053 H 0.49573 0.31774 0.25754 0.0
H1054 H 0.52595 0.34037 0.24611 0.0
H1055 H 0.46074 0.37435 0.39038 0.0
H1056 H 0.44503 0.34409 0.36876 0.0
H1057 H 0.46669 0.35259 0.41842 0.0
H1058 H 0.42423 0.26885 0.3296 0.0
H1059 H 0.47555 0.28892 0.45083 0.0
H1060 H 0.45701 0.3159 0.24773 0.0
H1061 H 0.43993 0.32476 0.28559 0.0
H1062 H 0.42696 0.29452 0.26448 0.0
H1063 H 0.51951 0.34075 0.39639 0.0
H1064 H 0.50798 0.32738 0.45817 0.0
H1065 H 0.50264 0.35012 0.43345 0.0
C1066 C 0.62198 0.15305 0.29588 0.0
C1067 C 0.60963 0.12957 0.27857 0.0
C1068 C 0.64592 0.16373 0.30987 0.0
C1069 C 0.6578 0.15064 0.30634 0.0
C1070 C 0.64558 0.1271 0.28793 0.0
C1071 C 0.62165 0.11685 0.27428 0.0
C1072 C 0.6584 0.1889 0.32919 0.0
C1073 C 0.65768 0.11261 0.28334 0.0
C1074 C 0.72484 0.18334 0.30005 0.0
C1075 C 0.73093 0.18096 0.35058 0.0
C1076 C 0.70113 0.17376 0.2853 0.0
C1077 C 0.68303 0.16151 0.32195 0.0
C1078 C 0.68902 0.15926 0.37318 0.0
C1079 C 0.71293 0.169 0.3869 0.0
C1080 C 0.69546 0.17651 0.23029 0.0
C1081 C 0.67017 0.14634 0.41334 0.0
H1082 H 0.61285 0.16301 0.29942 0.0
H1083 H 0.61227 0.0987 0.26098 0.0
H1084 H 0.66469 0.1895 0.3691 0.0
H1085 H 0.6742 0.19998 0.30519 0.0
H1086 H 0.64678 0.1968 0.32877 0.0
H1087 H 0.6458 0.0947 0.26745 0.0
H1088 H 0.67343 0.12178 0.25811 0.0
H1089 H 0.66398 0.11069 0.32168 0.0
H1090 H 0.73862 0.19256 0.27168 0.0
H1091 H 0.71748 0.16709 0.426 0.0
H1092 H 0.6847 0.18533 0.22916 0.0
H1093 H 0.68477 0.15885 0.21235 0.0
H1094 H 0.71162 0.18697 0.20676 0.0
H1095 H 0.65879 0.15443 0.41675 0.0
H1096 H 0.67777 0.14662 0.45173 0.0
H1097 H 0.65862 0.12767 0.40154 0.0
C1098 C 0.51207 0.12869 0.37041 0.0
C1099 C 0.50894 0.11698 0.32336 0.0
C1100 C 0.50066 0.14165 0.38053 0.0
C1101 C 0.48558 0.14273 0.34287 0.0
C1102 C 0.48229 0.13089 0.29535 0.0
C1103 C 0.49411 0.11826 0.28606 0.0
C1104 C 0.50479 0.15423 0.43144 0.0
C1105 C 0.4662 0.1315 0.25439 0.0
C1106 C 0.43904 0.1581 0.38427 0.0
C1107 C 0.44936 0.1818 0.36885 0.0
C1108 C 0.45071 0.14521 0.37643 0.0
C1109 C 0.47332 0.15635 0.35302 0.0
C1110 C 0.48405 0.18041 0.33845 0.0
C1111 C 0.47192 0.19282 0.34637 0.0
C1112 C 0.43866 0.11954 0.39227 0.0
C1113 C 0.50824 0.19297 0.31385 0.0
H1114 H 0.52357 0.12787 0.39939 0.0
H1115 H 0.49153 0.10918 0.24969 0.0
H1116 H 0.5121 0.17344 0.42493 0.0
H1117 H 0.48778 0.1476 0.45214 0.0
H1118 H 0.51719 0.15178 0.45648 0.0
H1119 H 0.46534 0.12115 0.21975 0.0
H1120 H 0.44806 0.1243 0.26996 0.0
H1121 H 0.47247 0.15003 0.24261 0.0
H1122 H 0.4216 0.14943 0.40155 0.0
H1123 H 0.48007 0.21115 0.33453 0.0
H1124 H 0.45005 0.11658 0.41937 0.0
H1125 H 0.43589 0.1083 0.35805 0.0
H1126 H 0.42127 0.11362 0.4109 0.0
H1127 H 0.52128 0.19167 0.33897 0.0
H1128 H 0.51448 0.21194 0.30642 0.0
H1129 H 0.50784 0.18434 0.27682 0.0
C1130 C 0.84573 0.27422 0.29479 0.0
C1131 C 0.83681 0.26759 0.34486 0.0
C1132 C 0.85703 0.29793 0.2792 0.0
C1133 C 0.8596 0.31551 0.31457 0.0
C1134 C 0.85058 0.30898 0.36514 0.0
C1135 C 0.83923 0.28506 0.37968 0.0
C1136 C 0.86636 0.30418 0.22491 0.0
C1137 C 0.85311 0.32729 0.40395 0.0
C1138 C 0.9091 0.37803 0.28835 0.0
C1139 C 0.89685 0.38837 0.26612 0.0
C1140 C 0.89714 0.35444 0.30487 0.0
C1141 C 0.87232 0.34078 0.29882 0.0
C1142 C 0.85981 0.35106 0.27636 0.0
C1143 C 0.87223 0.37477 0.26035 0.0
C1144 C 0.91109 0.34411 0.3287 0.0
C1145 C 0.83335 0.33697 0.26903 0.0
H1146 H 0.84387 0.26086 0.2675 0.0
H1147 H 0.83237 0.28008 0.4184 0.0
H1148 H 0.85851 0.31374 0.20537 0.0
H1149 H 0.8858 0.31618 0.22561 0.0
H1150 H 0.86242 0.28833 0.20176 0.0
H1151 H 0.84476 0.31928 0.4414 0.0
H1152 H 0.87211 0.3401 0.41055 0.0
H1153 H 0.8449 0.33741 0.3889 0.0
H1154 H 0.92811 0.38842 0.29319 0.0
H1155 H 0.86263 0.38264 0.24333 0.0
H1156 H 0.90899 0.32897 0.30533 0.0
H1157 H 0.9042 0.33725 0.36771 0.0
H1158 H 0.93024 0.35726 0.33175 0.0
H1159 H 0.82868 0.32155 0.24382 0.0
H1160 H 0.82621 0.34767 0.25167 0.0
H1161 H 0.82449 0.32999 0.30655 0.0
C1162 C 0.61601 0.49277 0.27516 0.0
C1163 C 0.59798 0.48344 0.31215 0.0
C1164 C 0.63984 0.50266 0.2896 0.0
C1165 C 0.6457 0.50335 0.34225 0.0
C1166 C 0.62756 0.49365 0.37963 0.0
C1167 C 0.60392 0.48374 0.36412 0.0
C1168 C 0.65875 0.51271 0.24864 0.0
C1169 C 0.63312 0.49417 0.43616 0.0
C1170 C 0.70621 0.51303 0.37934 0.0
C1171 C 0.7186 0.53734 0.38997 0.0
C1172 C 0.68249 0.50172 0.36346 0.0
C1173 C 0.67087 0.51502 0.35857 0.0
C1174 C 0.68318 0.53948 0.36991 0.0
C1175 C 0.70692 0.55036 0.38528 0.0
C1176 C 0.66993 0.47562 0.35146 0.0
C1177 C 0.6713 0.55419 0.36568 0.0
H1178 H 0.61155 0.49251 0.23494 0.0
H1179 H 0.59011 0.47657 0.393 0.0
H1180 H 0.67036 0.53198 0.25478 0.0
H1181 H 0.67005 0.5045 0.25128 0.0
H1182 H 0.6512 0.50983 0.20927 0.0
H1183 H 0.61691 0.48523 0.4602 0.0
H1184 H 0.64375 0.48545 0.44279 0.0
H1185 H 0.64389 0.51276 0.44928 0.0
H1186 H 0.71515 0.50288 0.38259 0.0
H1187 H 0.71635 0.56915 0.39353 0.0
H1188 H 0.66357 0.4726 0.3111 0.0
H1189 H 0.65417 0.46605 0.3765 0.0
H1190 H 0.68151 0.46784 0.35693 0.0
H1191 H 0.66501 0.55353 0.32576 0.0
H1192 H 0.68331 0.57298 0.37627 0.0
H1193 H 0.65557 0.54686 0.39114 0.0
C1194 C 0.53168 0.80728 0.71152 0.0
C1195 C 0.54129 0.81098 0.66184 0.0
C1196 C 0.51825 0.81752 0.72708 0.0
C1197 C 0.51412 0.83162 0.69196 0.0
C1198 C 0.52296 0.83464 0.64112 0.0
C1199 C 0.53654 0.82437 0.62671 0.0
C1200 C 0.50925 0.814 0.7817 0.0
C1201 C 0.51867 0.84934 0.6024 0.0
C1202 C 0.46551 0.8459 0.72034 0.0
C1203 C 0.47857 0.86913 0.73887 0.0
C1204 C 0.47681 0.83337 0.70518 0.0
C1205 C 0.50171 0.84427 0.70922 0.0
C1206 C 0.5149 0.86747 0.72922 0.0
C1207 C 0.50319 0.87967 0.74354 0.0
C1208 C 0.46219 0.80872 0.6837 0.0
C1209 C 0.54146 0.87956 0.73478 0.0
H1210 H 0.53527 0.79698 0.73897 0.0
H1211 H 0.54382 0.82722 0.58821 0.0
H1212 H 0.51787 0.83121 0.80217 0.0
H1213 H 0.48993 0.80731 0.78207 0.0
H1214 H 0.5128 0.80143 0.80334 0.0
H1215 H 0.52529 0.84858 0.5635 0.0
H1216 H 0.4995 0.84319 0.59974 0.0
H1217 H 0.52766 0.86805 0.61514 0.0
H1218 H 0.44649 0.83768 0.71634 0.0
H1219 H 0.51338 0.89758 0.75798 0.0
H1220 H 0.46536 0.79611 0.70608 0.0
H1221 H 0.46759 0.80827 0.64345 0.0
H1222 H 0.44295 0.80254 0.68427 0.0
H1223 H 0.54638 0.86858 0.7586 0.0
H1224 H 0.549 0.89732 0.75271 0.0
H1225 H 0.54972 0.88157 0.69645 0.0
C1226 C 0.19296 0.71403 0.62442 0.0
C1227 C 0.18092 0.7267 0.61971 0.0
C1228 C 0.18132 0.69062 0.64256 0.0
C1229 C 0.15711 0.67969 0.65608 0.0
C1230 C 0.14472 0.69216 0.64993 0.0
C1231 C 0.15676 0.71549 0.63185 0.0
C1232 C 0.19506 0.67781 0.64848 0.0
C1233 C 0.11882 0.68104 0.66351 0.0
C1234 C 0.11897 0.61303 0.66428 0.0
C1235 C 0.11711 0.60925 0.71766 0.0
C1236 C 0.13254 0.63579 0.64367 0.0
C1237 C 0.1446 0.65527 0.67719 0.0
C1238 C 0.14344 0.65153 0.73104 0.0
C1239 C 0.12968 0.62854 0.75067 0.0
C1240 C 0.13332 0.63904 0.58605 0.0
C1241 C 0.15616 0.67192 0.76796 0.0
H1242 H 0.21164 0.72258 0.6153 0.0
H1243 H 0.14728 0.72511 0.62821 0.0
H1244 H 0.1955 0.67348 0.68958 0.0
H1245 H 0.1862 0.66085 0.62709 0.0
H1246 H 0.21354 0.68845 0.63438 0.0
H1247 H 0.11163 0.69292 0.65519 0.0
H1248 H 0.10838 0.66437 0.64169 0.0
H1249 H 0.11626 0.67647 0.705 0.0
H1250 H 0.10943 0.59823 0.63836 0.0
H1251 H 0.12843 0.62577 0.79191 0.0
H1252 H 0.1519 0.64915 0.57258 0.0
H1253 H 0.12471 0.64945 0.57564 0.0
H1254 H 0.12422 0.62192 0.56517 0.0
H1255 H 0.17515 0.68249 0.75758 0.0
H1256 H 0.15473 0.66591 0.80844 0.0
H1257 H 0.14863 0.68381 0.76528 0.0
C1258 C 0.37544 0.49754 0.72023 0.0
C1259 C 0.38975 0.52131 0.7061 0.0
C1260 C 0.35141 0.48493 0.70681 0.0
C1261 C 0.34144 0.49636 0.67862 0.0
C1262 C 0.35563 0.52049 0.66524 0.0
C1263 C 0.37962 0.53268 0.67918 0.0
C1264 C 0.33679 0.45924 0.72201 0.0
C1265 C 0.34559 0.5333 0.63539 0.0
C1266 C 0.28569 0.45713 0.60207 0.0
C1267 C 0.26803 0.45564 0.63514 0.0
C1268 C 0.3097 0.47064 0.61538 0.0
C1269 C 0.31617 0.48295 0.6628 0.0
C1270 C 0.29846 0.48191 0.6958 0.0
C1271 C 0.27462 0.46827 0.68159 0.0
C1272 C 0.32813 0.47136 0.57916 0.0
C1273 C 0.30465 0.49484 0.7466 0.0
H1274 H 0.38309 0.4886 0.74103 0.0
H1275 H 0.39052 0.55104 0.66806 0.0
H1276 H 0.32126 0.45641 0.74495 0.0
H1277 H 0.32995 0.44808 0.68707 0.0
H1278 H 0.34708 0.4531 0.74487 0.0
H1279 H 0.35881 0.55224 0.62924 0.0
H1280 H 0.3392 0.52477 0.59735 0.0
H1281 H 0.33016 0.53212 0.65601 0.0
H1282 H 0.28075 0.44743 0.56614 0.0
H1283 H 0.26111 0.4673 0.70735 0.0
H1284 H 0.33793 0.46366 0.59825 0.0
H1285 H 0.34119 0.48994 0.56931 0.0
H1286 H 0.32025 0.46147 0.54301 0.0
H1287 H 0.31355 0.48795 0.77182 0.0
H1288 H 0.28883 0.49293 0.76697 0.0
H1289 H 0.31724 0.51393 0.74048 0.0
C1290 C 0.16012 0.44956 0.60817 0.0
C1291 C 0.16216 0.43496 0.64493 0.0
C1292 C 0.15008 0.46353 0.62099 0.0
C1293 C 0.14203 0.46297 0.67181 0.0
C1294 C 0.14392 0.44819 0.70898 0.0
C1295 C 0.15389 0.43431 0.69506 0.0
C1296 C 0.14819 0.47898 0.58024 0.0
C1297 C 0.13562 0.44719 0.76361 0.0
C1298 C 0.13656 0.51532 0.71708 0.0
C1299 C 0.11221 0.50664 0.71198 0.0
C1300 C 0.14649 0.50123 0.70452 0.0
C1301 C 0.13171 0.47795 0.68621 0.0
C1302 C 0.10708 0.46898 0.68152 0.0
C1303 C 0.09761 0.4834 0.69459 0.0
C1304 C 0.17282 0.51133 0.71039 0.0
C1305 C 0.09077 0.44424 0.66206 0.0
H1306 H 0.16643 0.45013 0.56936 0.0
H1307 H 0.15544 0.42313 0.72377 0.0
H1308 H 0.12948 0.47442 0.57571 0.0
H1309 H 0.15836 0.49779 0.59216 0.0
H1310 H 0.15493 0.47712 0.54233 0.0
H1311 H 0.13824 0.43467 0.78783 0.0
H1312 H 0.14535 0.46501 0.7813 0.0
H1313 H 0.11657 0.44173 0.76396 0.0
H1314 H 0.14796 0.53323 0.73054 0.0
H1315 H 0.07877 0.47655 0.69041 0.0
H1316 H 0.18078 0.51155 0.67256 0.0
H1317 H 0.17637 0.49998 0.73639 0.0
H1318 H 0.1818 0.52959 0.72605 0.0
H1319 H 0.0961 0.44226 0.6227 0.0
H1320 H 0.072 0.43986 0.66109 0.0
H1321 H 0.09216 0.43117 0.68689 0.0
C1322 C 0.50129 0.62204 0.72002 0.0
C1323 C 0.51229 0.60858 0.71159 0.0
C1324 C 0.51321 0.64642 0.70992 0.0
C1325 C 0.53665 0.65758 0.69083 0.0
C1326 C 0.54788 0.64412 0.68244 0.0
C1327 C 0.53558 0.61979 0.69299 0.0
C1328 C 0.5007 0.66024 0.71958 0.0
C1329 C 0.57286 0.6554 0.66212 0.0
C1330 C 0.56014 0.71653 0.62216 0.0
C1331 C 0.57351 0.73256 0.66105 0.0
C1332 C 0.54815 0.69205 0.63119 0.0
C1333 C 0.54955 0.68342 0.68027 0.0
C1334 C 0.56319 0.69949 0.71949 0.0
C1335 C 0.57502 0.72384 0.70939 0.0
C1336 C 0.53384 0.67541 0.58836 0.0
C1337 C 0.5651 0.69097 0.77233 0.0
H1338 H 0.4833 0.61352 0.73432 0.0
H1339 H 0.54421 0.60953 0.68623 0.0
H1340 H 0.51083 0.67455 0.74777 0.0
H1341 H 0.49976 0.66877 0.68344 0.0
H1342 H 0.48246 0.64892 0.73447 0.0
H1343 H 0.57901 0.64242 0.65743 0.0
H1344 H 0.57401 0.66381 0.62435 0.0
H1345 H 0.58509 0.66954 0.68867 0.0
H1346 H 0.55888 0.72311 0.58471 0.0
H1347 H 0.5853 0.73606 0.73972 0.0
H1348 H 0.51503 0.66483 0.6001 0.0
H1349 H 0.5402 0.66281 0.5806 0.0
H1350 H 0.53486 0.68492 0.55218 0.0
H1351 H 0.54729 0.68084 0.78993 0.0
H1352 H 0.57662 0.70576 0.79845 0.0
H1353 H 0.57234 0.67884 0.76936 0.0
C1354 C 0.28067 0.81348 0.6943 0.0
C1355 C 0.26986 0.82299 0.66339 0.0
C1356 C 0.30525 0.82557 0.70152 0.0
C1357 C 0.31931 0.84787 0.67791 0.0
C1358 C 0.3085 0.85758 0.64672 0.0
C1359 C 0.28391 0.84492 0.63949 0.0
C1360 C 0.31619 0.81448 0.73436 0.0
C1361 C 0.32289 0.88144 0.6214 0.0
C1362 C 0.37991 0.88874 0.73507 0.0
C1363 C 0.39479 0.88599 0.70036 0.0
C1364 C 0.3553 0.87656 0.72804 0.0
C1365 C 0.34535 0.861 0.68574 0.0
C1366 C 0.36026 0.85796 0.6509 0.0
C1367 C 0.38482 0.87062 0.65843 0.0
C1368 C 0.33995 0.88046 0.76563 0.0
C1369 C 0.35028 0.84127 0.60577 0.0
H1370 H 0.26992 0.79647 0.71264 0.0
H1371 H 0.27563 0.85242 0.61579 0.0
H1372 H 0.32954 0.81255 0.71172 0.0
H1373 H 0.32552 0.8261 0.76754 0.0
H1374 H 0.30283 0.79681 0.74917 0.0
H1375 H 0.31175 0.88662 0.59881 0.0
H1376 H 0.33262 0.89514 0.65104 0.0
H1377 H 0.33626 0.88125 0.59537 0.0
H1378 H 0.38753 0.90068 0.76741 0.0
H1379 H 0.3962 0.8683 0.6316 0.0
H1380 H 0.32723 0.86349 0.78417 0.0
H1381 H 0.32946 0.88699 0.74495 0.0
H1382 H 0.35047 0.89339 0.79612 0.0
H1383 H 0.33767 0.82317 0.61955 0.0
H1384 H 0.36427 0.84061 0.58274 0.0
H1385 H 0.3403 0.84681 0.58026 0.0
loop_
_geom_bond_atom_site_label_1
_geom_bond_atom_site_label_2
_geom_bond_distance
_geom_bond_site_symmetry_2
_ccdc_geom_bond_type
C0 O1 1.160 . S
C0 O7 1.185 . S
O1 C0 1.160 . S
O2 Zn3 1.899 . S
O2 C10 1.284 . S
Zn3 O2 1.899 . S
Zn3 O4 2.032 . S
Zn3 O7 2.086 . S
Zn3 O12 1.977 . S
O4 Zn3 2.032 . S
O4 C8 1.278 . S
C5 O6 1.203 . S
C5 O12 1.267 1_556 S
O6 C5 1.203 . S
O7 C0 1.185 . S
O7 Zn3 2.086 . S
C8 O4 1.278 . S
C8 O9 1.211 1_554 S
O9 C8 1.211 1_556 S
C10 O2 1.284 . S
C10 O11 1.273 . S
O11 C10 1.273 . S
O12 Zn3 1.977 . S
O12 C5 1.267 1_554 S
C13 O14 1.160 . S
C13 O20 1.185 . S
O14 C13 1.160 . S
O15 Zn16 1.899 . S
O15 C23 1.284 . S
Zn16 O15 1.899 . S
Zn16 O17 2.032 . S
Zn16 O20 2.086 . S
Zn16 O25 1.977 . S
O17 Zn16 2.032 . S
O17 C21 1.278 . S
C18 O19 1.203 . S
C18 O25 1.267 1_556 S
O19 C18 1.203 . S
O20 C13 1.185 . S
O20 Zn16 2.086 . S
C21 O17 1.278 . S
C21 O22 1.211 1_554 S
O22 C21 1.211 1_556 S
C23 O15 1.284 . S
C23 O24 1.273 . S
O24 C23 1.273 . S
O25 Zn16 1.977 . S
O25 C18 1.267 1_554 S
C26 O27 1.160 . S
C26 O33 1.185 . S
O27 C26 1.160 . S
O28 Zn29 1.899 . S
O28 C36 1.284 . S
Zn29 O28 1.899 . S
Zn29 O30 2.032 . S
Zn29 O33 2.086 . S
Zn29 O38 1.977 . S
O30 Zn29 2.032 . S
O30 C34 1.278 . S
C31 O32 1.203 . S
C31 O38 1.267 1_556 S
O32 C31 1.203 . S
O33 C26 1.185 . S
O33 Zn29 2.086 . S
C34 O30 1.278 . S
C34 O35 1.211 1_554 S
O35 C34 1.211 1_556 S
C36 O28 1.284 . S
C36 O37 1.273 . S
O37 C36 1.273 . S
O38 Zn29 1.977 . S
O38 C31 1.267 1_554 S
C39 O40 1.160 . S
C39 O46 1.185 . S
O40 C39 1.160 . S
O41 Zn42 1.899 . S
O41 C49 1.284 . S
Zn42 O41 1.899 . S
Zn42 O43 2.032 . S
Zn42 O46 2.086 . S
Zn42 O51 1.977 . S
O43 Zn42 2.032 . S
O43 C47 1.278 . S
C44 O45 1.203 . S
C44 O51 1.267 1_554 S
O45 C44 1.203 . S
O46 C39 1.185 . S
O46 Zn42 2.086 . S
C47 O43 1.278 . S
C47 O48 1.211 1_556 S
O48 C47 1.211 1_554 S
C49 O41 1.284 . S
C49 O50 1.273 . S
O50 C49 1.273 . S
O51 Zn42 1.977 . S
O51 C44 1.267 1_556 S
C52 O53 1.160 . S
C52 O59 1.185 . S
O53 C52 1.160 . S
O54 Zn55 1.899 . S
O54 C62 1.284 . S
Zn55 O54 1.899 . S
Zn55 O56 2.032 . S
Zn55 O59 2.086 . S
Zn55 O64 1.977 . S
O56 Zn55 2.032 . S
O56 C60 1.278 . S
C57 O58 1.203 . S
C57 O64 1.267 1_554 S
O58 C57 1.203 . S
O59 C52 1.185 . S
O59 Zn55 2.086 . S
C60 O56 1.278 . S
C60 O61 1.211 1_556 S
O61 C60 1.211 1_554 S
C62 O54 1.284 . S
C62 O63 1.273 . S
O63 C62 1.273 . S
O64 Zn55 1.977 . S
O64 C57 1.267 1_556 S
C65 O66 1.160 . S
C65 O72 1.185 . S
O66 C65 1.160 . S
O67 Zn68 1.899 . S
O67 C75 1.284 . S
Zn68 O67 1.899 . S
Zn68 O69 2.032 . S
Zn68 O72 2.086 . S
Zn68 O77 1.977 . S
O69 Zn68 2.032 . S
O69 C73 1.278 . S
C70 O71 1.203 . S
C70 O77 1.267 1_554 S
O71 C70 1.203 . S
O72 C65 1.185 . S
O72 Zn68 2.086 . S
C73 O69 1.278 . S
C73 O74 1.211 1_556 S
O74 C73 1.211 1_554 S
C75 O67 1.284 . S
C75 O76 1.273 . S
O76 C75 1.273 . S
O77 Zn68 1.977 . S
O77 C70 1.267 1_556 S
C78 O79 1.160 . S
C78 O85 1.185 . S
O79 C78 1.160 . S
O80 Zn81 1.899 . S
O80 C88 1.284 . S
Zn81 O80 1.899 . S
Zn81 O82 2.032 . S
Zn81 O85 2.086 . S
Zn81 O90 1.977 . S
O82 Zn81 2.032 . S
O82 C86 1.278 . S
C83 O84 1.203 . S
C83 O90 1.267 . S
O84 C83 1.203 . S
O85 C78 1.185 . S
O85 Zn81 2.086 . S
C86 O82 1.278 . S
C86 O87 1.211 . S
O87 C86 1.211 . S
C88 O80 1.284 . S
C88 O89 1.273 . S
O89 C88 1.273 . S
O90 Zn81 1.977 . S
O90 C83 1.267 . S
C91 O92 1.160 . S
C91 O98 1.185 . S
O92 C91 1.160 . S
O93 Zn94 1.899 . S
O93 C101 1.284 . S
Zn94 O93 1.899 . S
Zn94 O95 2.032 . S
Zn94 O98 2.086 . S
Zn94 O103 1.977 . S
O95 Zn94 2.032 . S
O95 C99 1.278 . S
C96 O97 1.203 . S
C96 O103 1.267 . S
O97 C96 1.203 . S
O98 C91 1.185 . S
O98 Zn94 2.086 . S
C99 O95 1.278 . S
C99 O100 1.211 . S
O100 C99 1.211 . S
C101 O93 1.284 . S
C101 O102 1.273 . S
O102 C101 1.273 . S
O103 Zn94 1.977 . S
O103 C96 1.267 . S
C104 O105 1.160 . S
C104 O111 1.185 . S
O105 C104 1.160 . S
O106 Zn107 1.899 . S
O106 C114 1.284 . S
Zn107 O106 1.899 . S
Zn107 O108 2.032 . S
Zn107 O111 2.086 . S
Zn107 O116 1.977 . S
O108 Zn107 2.032 . S
O108 C112 1.278 . S
C109 O110 1.203 . S
C109 O116 1.267 . S
O110 C109 1.203 . S
O111 C104 1.185 . S
O111 Zn107 2.086 . S
C112 O108 1.278 . S
C112 O113 1.211 . S
O113 C112 1.211 . S
C114 O106 1.284 . S
C114 O115 1.273 . S
O115 C114 1.273 . S
O116 Zn107 1.977 . S
O116 C109 1.267 . S
C117 O118 1.160 . S
C117 O124 1.185 . S
O118 C117 1.160 . S
O119 Zn120 1.899 . S
O119 C127 1.284 . S
Zn120 O119 1.899 . S
Zn120 O121 2.032 . S
Zn120 O124 2.086 . S
Zn120 O129 1.977 . S
O121 Zn120 2.032 . S
O121 C125 1.278 . S
C122 O123 1.203 . S
C122 O129 1.267 . S
O123 C122 1.203 . S
O124 C117 1.185 . S
O124 Zn120 2.086 . S
C125 O121 1.278 . S
C125 O126 1.211 . S
O126 C125 1.211 . S
C127 O119 1.284 . S
C127 O128 1.273 . S
O128 C127 1.273 . S
O129 Zn120 1.977 . S
O129 C122 1.267 . S
C130 O131 1.160 . S
C130 O137 1.185 . S
O131 C130 1.160 . S
O132 Zn133 1.899 . S
O132 C140 1.284 . S
Zn133 O132 1.899 . S
Zn133 O134 2.032 . S
Zn133 O137 2.086 . S
Zn133 O142 1.977 . S
O134 Zn133 2.032 . S
O134 C138 1.278 . S
C135 O136 1.203 . S
C135 O142 1.267 . S
O136 C135 1.203 . S
O137 C130 1.185 . S
O137 Zn133 2.086 . S
C138 O134 1.278 . S
C138 O139 1.211 . S
O139 C138 1.211 . S
C140 O132 1.284 . S
C140 O141 1.273 . S
O141 C140 1.273 . S
O142 Zn133 1.977 . S
O142 C135 1.267 . S
C143 O144 1.160 . S
C143 O150 1.185 . S
O144 C143 1.160 . S
O145 Zn146 1.899 . S
O145 C153 1.284 . S
Zn146 O145 1.899 . S
Zn146 O147 2.032 . S
Zn146 O150 2.086 . S
Zn146 O155 1.977 . S
O147 Zn146 2.032 . S
O147 C151 1.278 . S
C148 O149 1.203 . S
C148 O155 1.267 . S
O149 C148 1.203 . S
O150 C143 1.185 . S
O150 Zn146 2.086 . S
C151 O147 1.278 . S
C151 O152 1.211 . S
O152 C151 1.211 . S
C153 O145 1.284 . S
C153 O154 1.273 . S
O154 C153 1.273 . S
O155 Zn146 1.977 . S
O155 C148 1.267 . S
C156 O157 1.160 . S
C156 O163 1.185 . S
O157 C156 1.160 . S
O158 Zn159 1.899 . S
O158 C166 1.284 . S
Zn159 O158 1.899 . S
Zn159 O160 2.032 . S
Zn159 O163 2.086 . S
Zn159 O168 1.977 . S
O160 Zn159 2.032 . S
O160 C164 1.278 . S
C161 O162 1.203 . S
C161 O168 1.267 . S
O162 C161 1.203 . S
O163 C156 1.185 . S
O163 Zn159 2.086 . S
C164 O160 1.278 . S
C164 O165 1.211 . S
O165 C164 1.211 . S
C166 O158 1.284 . S
C166 O167 1.273 . S
O167 C166 1.273 . S
O168 Zn159 1.977 . S
O168 C161 1.267 . S
C169 O170 1.160 . S
C169 O176 1.185 . S
O170 C169 1.160 . S
O171 Zn172 1.899 . S
O171 C179 1.284 . S
Zn172 O171 1.899 . S
Zn172 O173 2.032 . S
Zn172 O176 2.086 . S
Zn172 O181 1.977 . S
O173 Zn172 2.032 . S
O173 C177 1.278 . S
C174 O175 1.203 . S
C174 O181 1.267 . S
O175 C174 1.203 . S
O176 C169 1.185 . S
O176 Zn172 2.086 . S
C177 O173 1.278 . S
C177 O178 1.211 . S
O178 C177 1.211 . S
C179 O171 1.284 . S
C179 O180 1.273 . S
O180 C179 1.273 . S
O181 Zn172 1.977 . S
O181 C174 1.267 . S
C182 O183 1.160 . S
C182 O189 1.185 . S
O183 C182 1.160 . S
O184 Zn185 1.899 . S
O184 C192 1.284 . S
Zn185 O184 1.899 . S
Zn185 O186 2.032 . S
Zn185 O189 2.086 . S
Zn185 O194 1.977 . S
O186 Zn185 2.032 . S
O186 C190 1.278 . S
C187 O188 1.203 . S
C187 O194 1.267 . S
O188 C187 1.203 . S
O189 C182 1.185 . S
O189 Zn185 2.086 . S
C190 O186 1.278 . S
C190 O191 1.211 . S
O191 C190 1.211 . S
C192 O184 1.284 . S
C192 O193 1.273 . S
O193 C192 1.273 . S
O194 Zn185 1.977 . S
O194 C187 1.267 . S
C195 O196 1.160 . S
C195 O202 1.185 . S
O196 C195 1.160 . S
O197 Zn198 1.899 . S
O197 C205 1.284 . S
Zn198 O197 1.899 . S
Zn198 O199 2.032 . S
Zn198 O202 2.086 . S
Zn198 O207 1.977 . S
O199 Zn198 2.032 . S
O199 C203 1.278 . S
C200 O201 1.203 . S
C200 O207 1.267 . S
O201 C200 1.203 . S
O202 C195 1.185 . S
O202 Zn198 2.086 . S
C203 O199 1.278 . S
C203 O204 1.211 . S
O204 C203 1.211 . S
C205 O197 1.284 . S
C205 O206 1.273 . S
O206 C205 1.273 . S
O207 Zn198 1.977 . S
O207 C200 1.267 . S
C208 O209 1.160 . S
C208 O215 1.185 . S
O209 C208 1.160 . S
O210 Zn211 1.899 . S
O210 C218 1.284 . S
Zn211 O210 1.899 . S
Zn211 O212 2.032 . S
Zn211 O215 2.086 . S
Zn211 O220 1.977 . S
O212 Zn211 2.032 . S
O212 C216 1.278 . S
C213 O214 1.203 . S
C213 O220 1.267 . S
O214 C213 1.203 . S
O215 C208 1.185 . S
O215 Zn211 2.086 . S
C216 O212 1.278 . S
C216 O217 1.211 . S
O217 C216 1.211 . S
C218 O210 1.284 . S
C218 O219 1.273 . S
O219 C218 1.273 . S
O220 Zn211 1.977 . S
O220 C213 1.267 . S
C221 O222 1.160 . S
C221 O228 1.185 . S
O222 C221 1.160 . S
O223 Zn224 1.899 . S
O223 C231 1.284 . S
Zn224 O223 1.899 . S
Zn224 O225 2.032 . S
Zn224 O228 2.086 . S
Zn224 O233 1.977 . S
O225 Zn224 2.032 . S
O225 C229 1.278 . S
C226 O227 1.203 . S
C226 O233 1.267 . S
O227 C226 1.203 . S
O228 C221 1.185 . S
O228 Zn224 2.086 . S
C229 O225 1.278 . S
C229 O230 1.211 . S
O230 C229 1.211 . S
C231 O223 1.284 . S
C231 O232 1.273 . S
O232 C231 1.273 . S
O233 Zn224 1.977 . S
O233 C226 1.267 . S
C234 C235 1.391 . S
C234 C236 1.394 . S
C234 H250 0.931 . S
C235 C234 1.391 . S
C235 C239 1.376 . S
C236 C234 1.394 . S
C236 C237 1.369 . S
C236 C240 1.531 . S
C237 C236 1.369 . S
C237 C238 1.410 . S
C237 C245 1.503 . S
C238 C237 1.410 . S
C238 C239 1.392 . S
C238 C241 1.511 . S
C239 C235 1.376 . S
C239 C238 1.392 . S
C239 H251 0.929 . S
C240 C236 1.531 . S
C240 H252 0.960 . S
C240 H253 0.962 . S
C240 H254 0.960 . S
C241 C238 1.511 . S
C241 H255 0.961 . S
C241 H256 0.961 . S
C241 H257 0.961 . S
C242 C243 1.370 . S
C242 C244 1.363 . S
C242 H258 0.931 . S
C243 C242 1.370 . S
C243 C247 1.408 . S
C244 C242 1.363 . S
C244 C245 1.370 . S
C244 C248 1.524 . S
C245 C237 1.503 . S
C245 C244 1.370 . S
C245 C246 1.403 . S
C246 C245 1.403 . S
C246 C247 1.404 . S
C246 C249 1.539 . S
C247 C243 1.408 . S
C247 C246 1.404 . S
C247 H259 0.930 . S
C248 C244 1.524 . S
C248 H260 0.956 . S
C248 H261 0.961 . S
C248 H262 0.961 . S
C249 C246 1.539 . S
C249 H263 0.958 . S
C249 H264 0.961 . S
C249 H265 0.960 . S
H250 C234 0.931 . S
H251 C239 0.929 . S
H252 C240 0.960 . S
H253 C240 0.962 . S
H254 C240 0.960 . S
H255 C241 0.961 . S
H256 C241 0.961 . S
H257 C241 0.961 . S
H258 C242 0.931 . S
H259 C247 0.930 . S
H260 C248 0.956 . S
H261 C248 0.961 . S
H262 C248 0.961 . S
H263 C249 0.958 . S
H264 C249 0.961 . S
H265 C249 0.960 . S
C266 C267 1.391 . S
C266 C268 1.394 . S
C266 H282 0.931 . S
C267 C266 1.391 . S
C267 C271 1.376 . S
C268 C266 1.394 . S
C268 C269 1.369 . S
C268 C272 1.531 . S
C269 C268 1.369 . S
C269 C270 1.410 . S
C269 C277 1.503 . S
C270 C269 1.410 . S
C270 C271 1.392 . S
C270 C273 1.511 . S
C271 C267 1.376 . S
C271 C270 1.392 . S
C271 H283 0.929 . S
C272 C268 1.531 . S
C272 H284 0.960 . S
C272 H285 0.962 . S
C272 H286 0.960 . S
C273 C270 1.511 . S
C273 H287 0.961 . S
C273 H288 0.961 . S
C273 H289 0.961 . S
C274 C275 1.370 . S
C274 C276 1.363 . S
C274 H290 0.931 . S
C275 C274 1.370 . S
C275 C279 1.408 . S
C276 C274 1.363 . S
C276 C277 1.370 . S
C276 C280 1.524 . S
C277 C269 1.503 . S
C277 C276 1.370 . S
C277 C278 1.403 . S
C278 C277 1.403 . S
C278 C279 1.404 . S
C278 C281 1.539 . S
C279 C275 1.408 . S
C279 C278 1.404 . S
C279 H291 0.930 . S
C280 C276 1.524 . S
C280 H292 0.956 . S
C280 H293 0.961 . S
C280 H294 0.961 . S
C281 C278 1.539 . S
C281 H295 0.958 . S
C281 H296 0.961 . S
C281 H297 0.960 . S
H282 C266 0.931 . S
H283 C271 0.929 . S
H284 C272 0.960 . S
H285 C272 0.962 . S
H286 C272 0.960 . S
H287 C273 0.961 . S
H288 C273 0.961 . S
H289 C273 0.961 . S
H290 C274 0.931 . S
H291 C279 0.930 . S
H292 C280 0.956 . S
H293 C280 0.961 . S
H294 C280 0.961 . S
H295 C281 0.958 . S
H296 C281 0.961 . S
H297 C281 0.960 . S
C298 C299 1.391 . S
C298 C300 1.394 . S
C298 H314 0.931 . S
C299 C298 1.391 . S
C299 C303 1.376 . S
C300 C298 1.394 . S
C300 C301 1.369 . S
C300 C304 1.531 . S
C301 C300 1.369 . S
C301 C302 1.410 . S
C301 C309 1.503 . S
C302 C301 1.410 . S
C302 C303 1.392 . S
C302 C305 1.511 . S
C303 C299 1.376 . S
C303 C302 1.392 . S
C303 H315 0.929 . S
C304 C300 1.531 . S
C304 H316 0.960 . S
C304 H317 0.962 . S
C304 H318 0.960 . S
C305 C302 1.511 . S
C305 H319 0.961 . S
C305 H320 0.961 . S
C305 H321 0.961 . S
C306 C307 1.370 . S
C306 C308 1.363 . S
C306 H322 0.931 . S
C307 C306 1.370 . S
C307 C311 1.408 . S
C308 C306 1.363 . S
C308 C309 1.370 . S
C308 C312 1.524 . S
C309 C301 1.503 . S
C309 C308 1.370 . S
C309 C310 1.403 . S
C310 C309 1.403 . S
C310 C311 1.404 . S
C310 C313 1.539 . S
C311 C307 1.408 . S
C311 C310 1.404 . S
C311 H323 0.930 . S
C312 C308 1.524 . S
C312 H324 0.956 . S
C312 H325 0.961 . S
C312 H326 0.961 . S
C313 C310 1.539 . S
C313 H327 0.958 . S
C313 H328 0.961 . S
C313 H329 0.960 . S
H314 C298 0.931 . S
H315 C303 0.929 . S
H316 C304 0.960 . S
H317 C304 0.962 . S
H318 C304 0.960 . S
H319 C305 0.961 . S
H320 C305 0.961 . S
H321 C305 0.961 . S
H322 C306 0.931 . S
H323 C311 0.930 . S
H324 C312 0.956 . S
H325 C312 0.961 . S
H326 C312 0.961 . S
H327 C313 0.958 . S
H328 C313 0.961 . S
H329 C313 0.960 . S
C330 C331 1.391 . S
C330 C332 1.394 . S
C330 H346 0.931 . S
C331 C330 1.391 . S
C331 C335 1.376 . S
C332 C330 1.394 . S
C332 C333 1.369 . S
C332 C336 1.531 . S
C333 C332 1.369 . S
C333 C334 1.410 . S
C333 C341 1.503 . S
C334 C333 1.410 . S
C334 C335 1.392 . S
C334 C337 1.511 . S
C335 C331 1.376 . S
C335 C334 1.392 . S
C335 H347 0.929 . S
C336 C332 1.531 . S
C336 H348 0.960 . S
C336 H349 0.962 . S
C336 H350 0.960 . S
C337 C334 1.511 . S
C337 H351 0.961 . S
C337 H352 0.961 . S
C337 H353 0.961 . S
C338 C339 1.370 . S
C338 C340 1.363 . S
C338 H354 0.931 . S
C339 C338 1.370 . S
C339 C343 1.408 . S
C340 C338 1.363 . S
C340 C341 1.370 . S
C340 C344 1.524 . S
C341 C333 1.503 . S
C341 C340 1.370 . S
C341 C342 1.403 . S
C342 C341 1.403 . S
C342 C343 1.404 . S
C342 C345 1.539 . S
C343 C339 1.408 . S
C343 C342 1.404 . S
C343 H355 0.930 . S
C344 C340 1.524 . S
C344 H356 0.956 . S
C344 H357 0.961 . S
C344 H358 0.961 . S
C345 C342 1.539 . S
C345 H359 0.958 . S
C345 H360 0.961 . S
C345 H361 0.960 . S
H346 C330 0.931 . S
H347 C335 0.929 . S
H348 C336 0.960 . S
H349 C336 0.962 . S
H350 C336 0.960 . S
H351 C337 0.961 . S
H352 C337 0.961 . S
H353 C337 0.961 . S
H354 C338 0.931 . S
H355 C343 0.930 . S
H356 C344 0.956 . S
H357 C344 0.961 . S
H358 C344 0.961 . S
H359 C345 0.958 . S
H360 C345 0.961 . S
H361 C345 0.960 . S
C362 C363 1.391 . S
C362 C364 1.394 . S
C362 H378 0.931 . S
C363 C362 1.391 . S
C363 C367 1.376 . S
C364 C362 1.394 . S
C364 C365 1.369 . S
C364 C368 1.531 . S
C365 C364 1.369 . S
C365 C366 1.410 . S
C365 C373 1.503 . S
C366 C365 1.410 . S
C366 C367 1.392 . S
C366 C369 1.511 . S
C367 C363 1.376 . S
C367 C366 1.392 . S
C367 H379 0.929 . S
C368 C364 1.531 . S
C368 H380 0.960 . S
C368 H381 0.962 . S
C368 H382 0.960 . S
C369 C366 1.511 . S
C369 H383 0.961 . S
C369 H384 0.961 . S
C369 H385 0.961 . S
C370 C371 1.370 . S
C370 C372 1.363 . S
C370 H386 0.931 . S
C371 C370 1.370 . S
C371 C375 1.408 . S
C372 C370 1.363 . S
C372 C373 1.370 . S
C372 C376 1.524 . S
C373 C365 1.503 . S
C373 C372 1.370 . S
C373 C374 1.403 . S
C374 C373 1.403 . S
C374 C375 1.404 . S
C374 C377 1.539 . S
C375 C371 1.408 . S
C375 C374 1.404 . S
C375 H387 0.930 . S
C376 C372 1.524 . S
C376 H388 0.956 . S
C376 H389 0.961 . S
C376 H390 0.961 . S
C377 C374 1.539 . S
C377 H391 0.958 . S
C377 H392 0.961 . S
C377 H393 0.960 . S
H378 C362 0.931 . S
H379 C367 0.929 . S
H380 C368 0.960 . S
H381 C368 0.962 . S
H382 C368 0.960 . S
H383 C369 0.961 . S
H384 C369 0.961 . S
H385 C369 0.961 . S
H386 C370 0.931 . S
H387 C375 0.930 . S
H388 C376 0.956 . S
H389 C376 0.961 . S
H390 C376 0.961 . S
H391 C377 0.958 . S
H392 C377 0.961 . S
H393 C377 0.960 . S
C394 C395 1.391 . S
C394 C396 1.394 . S
C394 H410 0.931 . S
C395 C394 1.391 . S
C395 C399 1.376 . S
C396 C394 1.394 . S
C396 C397 1.369 . S
C396 C400 1.531 . S
C397 C396 1.369 . S
C397 C398 1.410 . S
C397 C405 1.503 . S
C398 C397 1.410 . S
C398 C399 1.392 . S
C398 C401 1.511 . S
C399 C395 1.376 . S
C399 C398 1.392 . S
C399 H411 0.929 . S
C400 C396 1.531 . S
C400 H412 0.960 . S
C400 H413 0.962 . S
C400 H414 0.960 . S
C401 C398 1.511 . S
C401 H415 0.961 . S
C401 H416 0.961 . S
C401 H417 0.961 . S
C402 C403 1.370 . S
C402 C404 1.363 . S
C402 H418 0.931 . S
C403 C402 1.370 . S
C403 C407 1.408 . S
C404 C402 1.363 . S
C404 C405 1.370 . S
C404 C408 1.524 . S
C405 C397 1.503 . S
C405 C404 1.370 . S
C405 C406 1.403 . S
C406 C405 1.403 . S
C406 C407 1.404 . S
C406 C409 1.539 . S
C407 C403 1.408 . S
C407 C406 1.404 . S
C407 H419 0.930 . S
C408 C404 1.524 . S
C408 H420 0.956 . S
C408 H421 0.961 . S
C408 H422 0.961 . S
C409 C406 1.539 . S
C409 H423 0.958 . S
C409 H424 0.961 . S
C409 H425 0.960 . S
H410 C394 0.931 . S
H411 C399 0.929 . S
H412 C400 0.960 . S
H413 C400 0.962 . S
H414 C400 0.960 . S
H415 C401 0.961 . S
H416 C401 0.961 . S
H417 C401 0.961 . S
H418 C402 0.931 . S
H419 C407 0.930 . S
H420 C408 0.956 . S
H421 C408 0.961 . S
H422 C408 0.961 . S
H423 C409 0.958 . S
H424 C409 0.961 . S
H425 C409 0.960 . S
C426 C427 1.391 . S
C426 C428 1.394 . S
C426 H442 0.931 . S
C427 C426 1.391 . S
C427 C431 1.376 . S
C428 C426 1.394 . S
C428 C429 1.369 . S
C428 C432 1.531 1_655 S
C429 C428 1.369 . S
C429 C430 1.410 . S
C429 C437 1.503 1_654 S
C430 C429 1.410 . S
C430 C431 1.392 . S
C430 C433 1.511 1_554 S
C431 C427 1.376 . S
C431 C430 1.392 . S
C431 H443 0.929 . S
C432 C428 1.531 1_455 S
C432 H444 0.960 . S
C432 H445 0.962 . S
C432 H446 0.959 . S
C433 C430 1.511 1_556 S
C433 H447 0.961 1_556 S
C433 H448 0.961 . S
C433 H449 0.961 . S
C434 C435 1.370 . S
C434 C436 1.363 . S
C434 H450 0.931 . S
C435 C434 1.370 . S
C435 C439 1.408 . S
C436 C434 1.363 . S
C436 C437 1.370 . S
C436 C440 1.524 1_556 S
C437 C429 1.503 1_456 S
C437 C436 1.370 . S
C437 C438 1.403 1_455 S
C438 C437 1.403 1_655 S
C438 C439 1.404 1_655 S
C438 C441 1.539 . S
C439 C435 1.408 . S
C439 C438 1.404 1_455 S
C439 H451 0.930 . S
C440 C436 1.524 1_554 S
C440 H452 0.956 . S
C440 H453 0.961 . S
C440 H454 0.961 . S
C441 C438 1.539 . S
C441 H455 0.958 . S
C441 H456 0.961 . S
C441 H457 0.960 . S
H442 C426 0.931 . S
H443 C431 0.929 . S
H444 C432 0.960 . S
H445 C432 0.962 . S
H446 C432 0.959 . S
H447 C433 0.961 1_554 S
H448 C433 0.961 . S
H449 C433 0.961 . S
H450 C434 0.931 . S
H451 C439 0.930 . S
H452 C440 0.956 . S
H453 C440 0.961 . S
H454 C440 0.961 . S
H455 C441 0.958 . S
H456 C441 0.961 . S
H457 C441 0.960 . S
C458 C459 1.391 . S
C458 C460 1.394 . S
C458 H474 0.931 . S
C459 C458 1.391 . S
C459 C463 1.376 . S
C460 C458 1.394 . S
C460 C461 1.369 . S
C460 C464 1.531 1_554 S
C461 C460 1.369 . S
C461 C462 1.410 . S
C461 C469 1.503 1_554 S
C462 C461 1.410 . S
C462 C463 1.392 . S
C462 C465 1.511 . S
C463 C459 1.376 . S
C463 C462 1.392 . S
C463 H475 0.929 . S
C464 C460 1.531 1_556 S
C464 H476 0.960 . S
C464 H477 0.962 . S
C464 H478 0.960 . S
C465 C462 1.511 . S
C465 H479 0.961 . S
C465 H480 0.961 . S
C465 H481 0.961 . S
C466 C467 1.370 . S
C466 C468 1.363 . S
C466 H482 0.931 . S
C467 C466 1.370 . S
C467 C471 1.408 . S
C468 C466 1.363 . S
C468 C469 1.370 . S
C468 C472 1.524 . S
C469 C461 1.503 1_556 S
C469 C468 1.370 . S
C469 C470 1.403 . S
C470 C469 1.403 . S
C470 C471 1.404 . S
C470 C473 1.539 . S
C471 C467 1.408 . S
C471 C470 1.404 . S
C471 H483 0.930 . S
C472 C468 1.524 . S
C472 H484 0.956 . S
C472 H485 0.961 1_556 S
C472 H486 0.961 . S
C473 C470 1.539 . S
C473 H487 0.958 . S
C473 H488 0.961 . S
C473 H489 0.960 . S
H474 C458 0.931 . S
H475 C463 0.929 . S
H476 C464 0.960 . S
H477 C464 0.962 . S
H478 C464 0.960 . S
H479 C465 0.961 . S
H480 C465 0.961 . S
H481 C465 0.961 . S
H482 C466 0.931 . S
H483 C471 0.930 . S
H484 C472 0.956 . S
H485 C472 0.961 1_554 S
H486 C472 0.961 . S
H487 C473 0.958 . S
H488 C473 0.961 . S
H489 C473 0.960 . S
C490 C491 1.391 . S
C490 C492 1.394 . S
C490 H506 0.931 . S
C491 C490 1.391 . S
C491 C495 1.376 . S
C492 C490 1.394 . S
C492 C493 1.369 . S
C492 C496 1.531 1_554 S
C493 C492 1.369 . S
C493 C494 1.397 . S
C493 C501 1.503 1_544 S
C494 C493 1.397 . S
C494 C495 1.424 . S
C494 C497 1.497 1_545 S
C495 C491 1.376 . S
C495 C494 1.424 . S
C495 H507 0.929 . S
C496 C492 1.531 1_556 S
C496 H508 0.960 . S
C496 H509 0.962 . S
C496 H510 0.960 1_556 S
C497 C494 1.497 1_565 S
C497 H511 0.961 . S
C497 H512 0.961 . S
C497 H513 0.961 . S
C498 C499 1.370 . S
C498 C500 1.363 . S
C498 H514 0.931 . S
C499 C498 1.370 . S
C499 C503 1.408 . S
C500 C498 1.363 . S
C500 C501 1.370 . S
C500 C504 1.524 1_565 S
C501 C493 1.503 1_566 S
C501 C500 1.370 . S
C501 C502 1.403 . S
C502 C501 1.403 . S
C502 C503 1.404 . S
C502 C505 1.539 1_556 S
C503 C499 1.408 . S
C503 C502 1.404 . S
C503 H515 0.930 . S
C504 C500 1.524 1_545 S
C504 H516 0.956 . S
C504 H517 0.961 . S
C504 H518 0.961 . S
C505 C502 1.539 1_554 S
C505 H519 0.958 . S
C505 H520 0.961 . S
C505 H521 0.960 . S
H506 C490 0.931 . S
H507 C495 0.929 . S
H508 C496 0.960 . S
H509 C496 0.962 . S
H510 C496 0.960 1_554 S
H511 C497 0.961 . S
H512 C497 0.961 . S
H513 C497 0.961 . S
H514 C498 0.931 . S
H515 C503 0.930 . S
H516 C504 0.956 . S
H517 C504 0.961 . S
H518 C504 0.961 . S
H519 C505 0.958 . S
H520 C505 0.961 . S
H521 C505 0.960 . S
C522 C523 1.391 . S
C522 C524 1.394 . S
C522 H538 0.931 . S
C523 C522 1.391 . S
C523 C527 1.376 . S
C524 C522 1.394 . S
C524 C525 1.369 . S
C524 C528 1.531 . S
C525 C524 1.369 . S
C525 C526 1.410 . S
C525 C533 1.503 . S
C526 C525 1.410 . S
C526 C527 1.392 . S
C526 C529 1.511 . S
C527 C523 1.376 . S
C527 C526 1.392 . S
C527 H539 0.929 . S
C528 C524 1.531 . S
C528 H540 0.960 . S
C528 H541 0.962 . S
C528 H542 0.960 . S
C529 C526 1.511 . S
C529 H543 0.961 . S
C529 H544 0.961 . S
C529 H545 0.961 . S
C530 C531 1.370 . S
C530 C532 1.363 . S
C530 H546 0.931 . S
C531 C530 1.370 . S
C531 C535 1.408 . S
C532 C530 1.363 . S
C532 C533 1.370 . S
C532 C536 1.524 . S
C533 C525 1.503 . S
C533 C532 1.370 . S
C533 C534 1.403 . S
C534 C533 1.403 . S
C534 C535 1.404 . S
C534 C537 1.539 . S
C535 C531 1.408 . S
C535 C534 1.404 . S
C535 H547 0.930 . S
C536 C532 1.524 . S
C536 H548 0.956 . S
C536 H549 0.961 . S
C536 H550 0.961 . S
C537 C534 1.539 . S
C537 H551 0.958 . S
C537 H552 0.961 . S
C537 H553 0.960 . S
H538 C522 0.931 . S
H539 C527 0.929 . S
H540 C528 0.960 . S
H541 C528 0.962 . S
H542 C528 0.960 . S
H543 C529 0.961 . S
H544 C529 0.961 . S
H545 C529 0.961 . S
H546 C530 0.931 . S
H547 C535 0.930 . S
H548 C536 0.956 . S
H549 C536 0.961 . S
H550 C536 0.961 . S
H551 C537 0.958 . S
H552 C537 0.961 . S
H553 C537 0.960 . S
C554 C555 1.391 . S
C554 C556 1.394 . S
C554 H570 0.931 . S
C555 C554 1.391 . S
C555 C559 1.376 . S
C556 C554 1.394 . S
C556 C557 1.369 . S
C556 C560 1.531 . S
C557 C556 1.369 . S
C557 C558 1.410 . S
C557 C565 1.503 . S
C558 C557 1.410 . S
C558 C559 1.392 . S
C558 C561 1.511 . S
C559 C555 1.376 . S
C559 C558 1.392 . S
C559 H571 0.929 . S
C560 C556 1.531 . S
C560 H572 0.960 . S
C560 H573 0.962 . S
C560 H574 0.960 . S
C561 C558 1.511 . S
C561 H575 0.961 . S
C561 H576 0.961 . S
C561 H577 0.961 . S
C562 C563 1.370 . S
C562 C564 1.363 . S
C562 H578 0.931 . S
C563 C562 1.370 . S
C563 C567 1.408 . S
C564 C562 1.363 . S
C564 C565 1.370 . S
C564 C568 1.524 . S
C565 C557 1.503 . S
C565 C564 1.370 . S
C565 C566 1.403 . S
C566 C565 1.403 . S
C566 C567 1.404 . S
C566 C569 1.539 . S
C567 C563 1.408 . S
C567 C566 1.404 . S
C567 H579 0.930 . S
C568 C564 1.524 . S
C568 H580 0.956 . S
C568 H581 0.961 . S
C568 H582 0.961 . S
C569 C566 1.539 . S
C569 H583 0.958 . S
C569 H584 0.961 . S
C569 H585 0.960 . S
H570 C554 0.931 . S
H571 C559 0.929 . S
H572 C560 0.960 . S
H573 C560 0.962 . S
H574 C560 0.960 . S
H575 C561 0.961 . S
H576 C561 0.961 . S
H577 C561 0.961 . S
H578 C562 0.931 . S
H579 C567 0.930 . S
H580 C568 0.956 . S
H581 C568 0.961 . S
H582 C568 0.961 . S
H583 C569 0.958 . S
H584 C569 0.961 . S
H585 C569 0.960 . S
C586 C587 1.391 . S
C586 C588 1.394 . S
C586 H602 0.931 . S
C587 C586 1.391 . S
C587 C591 1.376 . S
C588 C586 1.394 . S
C588 C589 1.369 . S
C588 C592 1.531 . S
C589 C588 1.369 . S
C589 C590 1.410 . S
C589 C597 1.503 . S
C590 C589 1.410 . S
C590 C591 1.392 . S
C590 C593 1.511 . S
C591 C587 1.376 . S
C591 C590 1.392 . S
C591 H603 0.929 . S
C592 C588 1.531 . S
C592 H604 0.960 . S
C592 H605 0.962 . S
C592 H606 0.960 . S
C593 C590 1.511 . S
C593 H607 0.961 . S
C593 H608 0.961 . S
C593 H609 0.961 . S
C594 C595 1.370 . S
C594 C596 1.363 . S
C594 H610 0.931 . S
C595 C594 1.370 . S
C595 C599 1.408 . S
C596 C594 1.363 . S
C596 C597 1.370 . S
C596 C600 1.524 . S
C597 C589 1.503 . S
C597 C596 1.370 . S
C597 C598 1.403 . S
C598 C597 1.403 . S
C598 C599 1.404 . S
C598 C601 1.539 . S
C599 C595 1.408 . S
C599 C598 1.404 . S
C599 H611 0.930 . S
C600 C596 1.524 . S
C600 H612 0.956 . S
C600 H613 0.961 . S
C600 H614 0.961 . S
C601 C598 1.539 . S
C601 H615 0.958 . S
C601 H616 0.961 . S
C601 H617 0.960 . S
H602 C586 0.931 . S
H603 C591 0.929 . S
H604 C592 0.960 . S
H605 C592 0.962 . S
H606 C592 0.960 . S
H607 C593 0.961 . S
H608 C593 0.961 . S
H609 C593 0.961 . S
H610 C594 0.931 . S
H611 C599 0.930 . S
H612 C600 0.956 . S
H613 C600 0.961 . S
H614 C600 0.961 . S
H615 C601 0.958 . S
H616 C601 0.961 . S
H617 C601 0.960 . S
C618 C619 1.391 . S
C618 C620 1.394 . S
C618 H634 0.931 . S
C619 C618 1.391 . S
C619 C623 1.376 . S
C620 C618 1.394 . S
C620 C621 1.369 . S
C620 C624 1.531 . S
C621 C620 1.369 . S
C621 C622 1.410 . S
C621 C629 1.503 . S
C622 C621 1.410 . S
C622 C623 1.392 . S
C622 C625 1.511 . S
C623 C619 1.376 . S
C623 C622 1.392 . S
C623 H635 0.929 . S
C624 C620 1.531 . S
C624 H636 0.960 . S
C624 H637 0.962 . S
C624 H638 0.960 . S
C625 C622 1.511 . S
C625 H639 0.961 . S
C625 H640 0.961 . S
C625 H641 0.961 . S
C626 C627 1.370 . S
C626 C628 1.363 . S
C626 H642 0.931 . S
C627 C626 1.370 . S
C627 C631 1.408 . S
C628 C626 1.363 . S
C628 C629 1.370 . S
C628 C632 1.524 . S
C629 C621 1.503 . S
C629 C628 1.370 . S
C629 C630 1.403 . S
C630 C629 1.403 . S
C630 C631 1.404 . S
C630 C633 1.539 . S
C631 C627 1.408 . S
C631 C630 1.404 . S
C631 H643 0.930 . S
C632 C628 1.524 . S
C632 H644 0.956 . S
C632 H645 0.961 . S
C632 H646 0.961 . S
C633 C630 1.539 . S
C633 H647 0.958 . S
C633 H648 0.961 . S
C633 H649 0.960 . S
H634 C618 0.931 . S
H635 C623 0.929 . S
H636 C624 0.960 . S
H637 C624 0.962 . S
H638 C624 0.960 . S
H639 C625 0.961 . S
H640 C625 0.961 . S
H641 C625 0.961 . S
H642 C626 0.931 . S
H643 C631 0.930 . S
H644 C632 0.956 . S
H645 C632 0.961 . S
H646 C632 0.961 . S
H647 C633 0.958 . S
H648 C633 0.961 . S
H649 C633 0.960 . S
C650 C651 1.391 . S
C650 C652 1.394 . S
C650 H666 0.931 . S
C651 C650 1.391 . S
C651 C655 1.376 . S
C652 C650 1.394 . S
C652 C653 1.369 . S
C652 C656 1.531 . S
C653 C652 1.369 . S
C653 C654 1.410 . S
C653 C661 1.503 . S
C654 C653 1.410 . S
C654 C655 1.392 . S
C654 C657 1.511 . S
C655 C651 1.376 . S
C655 C654 1.392 . S
C655 H667 0.929 . S
C656 C652 1.531 . S
C656 H668 0.960 . S
C656 H669 0.962 . S
C656 H670 0.960 . S
C657 C654 1.511 . S
C657 H671 0.961 . S
C657 H672 0.961 . S
C657 H673 0.961 . S
C658 C659 1.370 . S
C658 C660 1.363 . S
C658 H674 0.931 . S
C659 C658 1.370 . S
C659 C663 1.408 . S
C660 C658 1.363 . S
C660 C661 1.370 . S
C660 C664 1.524 . S
C661 C653 1.503 . S
C661 C660 1.370 . S
C661 C662 1.403 . S
C662 C661 1.403 . S
C662 C663 1.404 . S
C662 C665 1.539 . S
C663 C659 1.408 . S
C663 C662 1.404 . S
C663 H675 0.930 . S
C664 C660 1.524 . S
C664 H676 0.956 . S
C664 H677 0.961 . S
C664 H678 0.961 . S
C665 C662 1.539 . S
C665 H679 0.958 . S
C665 H680 0.961 . S
C665 H681 0.960 . S
H666 C650 0.931 . S
H667 C655 0.929 . S
H668 C656 0.960 . S
H669 C656 0.962 . S
H670 C656 0.960 . S
H671 C657 0.961 . S
H672 C657 0.961 . S
H673 C657 0.961 . S
H674 C658 0.931 . S
H675 C663 0.930 . S
H676 C664 0.956 . S
H677 C664 0.961 . S
H678 C664 0.961 . S
H679 C665 0.958 . S
H680 C665 0.961 . S
H681 C665 0.960 . S
C682 C683 1.391 . S
C682 C684 1.394 . S
C682 H698 0.931 . S
C683 C682 1.391 . S
C683 C687 1.376 . S
C684 C682 1.394 . S
C684 C685 1.369 . S
C684 C688 1.531 . S
C685 C684 1.369 . S
C685 C686 1.410 . S
C685 C693 1.503 . S
C686 C685 1.410 . S
C686 C687 1.392 . S
C686 C689 1.511 . S
C687 C683 1.376 . S
C687 C686 1.392 . S
C687 H699 0.929 . S
C688 C684 1.531 . S
C688 H700 0.960 . S
C688 H701 0.962 . S
C688 H702 0.960 . S
C689 C686 1.511 . S
C689 H703 0.961 . S
C689 H704 0.961 . S
C689 H705 0.961 . S
C690 C691 1.370 . S
C690 C692 1.363 . S
C690 H706 0.931 . S
C691 C690 1.370 . S
C691 C695 1.408 . S
C692 C690 1.363 . S
C692 C693 1.370 . S
C692 C696 1.524 . S
C693 C685 1.503 . S
C693 C692 1.370 . S
C693 C694 1.403 . S
C694 C693 1.403 . S
C694 C695 1.404 . S
C694 C697 1.539 . S
C695 C691 1.408 . S
C695 C694 1.404 . S
C695 H707 0.930 . S
C696 C692 1.524 . S
C696 H708 0.956 . S
C696 H709 0.961 . S
C696 H710 0.961 . S
C697 C694 1.539 . S
C697 H711 0.958 . S
C697 H712 0.961 . S
C697 H713 0.960 . S
H698 C682 0.931 . S
H699 C687 0.929 . S
H700 C688 0.960 . S
H701 C688 0.962 . S
H702 C688 0.960 . S
H703 C689 0.961 . S
H704 C689 0.961 . S
H705 C689 0.961 . S
H706 C690 0.931 . S
H707 C695 0.930 . S
H708 C696 0.956 . S
H709 C696 0.961 . S
H710 C696 0.961 . S
H711 C697 0.958 . S
H712 C697 0.961 . S
H713 C697 0.960 . S
C714 C715 1.391 . S
C714 C716 1.394 . S
C714 H730 0.931 . S
C715 C714 1.391 . S
C715 C719 1.376 . S
C716 C714 1.394 . S
C716 C717 1.369 . S
C716 C720 1.531 1_655 S
C717 C716 1.369 . S
C717 C718 1.410 . S
C717 C725 1.503 1_655 S
C718 C717 1.410 . S
C718 C719 1.392 . S
C718 C721 1.511 . S
C719 C715 1.376 . S
C719 C718 1.392 . S
C719 H731 0.929 . S
C720 C716 1.531 1_455 S
C720 H732 0.960 . S
C720 H733 0.962 . S
C720 H734 0.960 . S
C721 C718 1.511 . S
C721 H735 0.961 . S
C721 H736 0.961 . S
C721 H737 0.961 . S
C722 C723 1.370 . S
C722 C724 1.363 . S
C722 H738 0.931 . S
C723 C722 1.370 . S
C723 C727 1.408 . S
C724 C722 1.363 . S
C724 C725 1.370 . S
C724 C728 1.524 1_455 S
C725 C717 1.503 1_455 S
C725 C724 1.370 . S
C725 C726 1.403 . S
C726 C725 1.403 . S
C726 C727 1.404 . S
C726 C729 1.539 . S
C727 C723 1.408 . S
C727 C726 1.404 . S
C727 H739 0.930 . S
C728 C724 1.524 1_655 S
C728 H740 0.956 . S
C728 H741 0.961 . S
C728 H742 0.961 . S
C729 C726 1.539 . S
C729 H743 0.958 . S
C729 H744 0.961 . S
C729 H745 0.960 . S
H730 C714 0.931 . S
H731 C719 0.929 . S
H732 C720 0.960 . S
H733 C720 0.962 . S
H734 C720 0.960 . S
H735 C721 0.961 . S
H736 C721 0.961 . S
H737 C721 0.961 . S
H738 C722 0.931 . S
H739 C727 0.930 . S
H740 C728 0.956 . S
H741 C728 0.961 . S
H742 C728 0.961 . S
H743 C729 0.958 . S
H744 C729 0.961 . S
H745 C729 0.960 . S
C746 C747 1.391 . S
C746 C748 1.394 . S
C746 H762 0.931 . S
C747 C746 1.391 . S
C747 C751 1.376 . S
C748 C746 1.394 . S
C748 C749 1.369 . S
C748 C752 1.531 . S
C749 C748 1.369 . S
C749 C750 1.410 . S
C749 C757 1.503 . S
C750 C749 1.410 . S
C750 C751 1.392 . S
C750 C753 1.511 . S
C751 C747 1.376 . S
C751 C750 1.392 . S
C751 H763 0.929 . S
C752 C748 1.531 . S
C752 H764 0.960 . S
C752 H765 0.962 . S
C752 H766 0.960 . S
C753 C750 1.511 . S
C753 H767 0.961 . S
C753 H768 0.961 . S
C753 H769 0.961 . S
C754 C755 1.370 . S
C754 C756 1.363 . S
C754 H770 0.931 . S
C755 C754 1.370 . S
C755 C759 1.408 . S
C756 C754 1.363 . S
C756 C757 1.370 . S
C756 C760 1.524 . S
C757 C749 1.503 . S
C757 C756 1.370 . S
C757 C758 1.403 . S
C758 C757 1.403 . S
C758 C759 1.404 . S
C758 C761 1.539 . S
C759 C755 1.408 . S
C759 C758 1.404 . S
C759 H771 0.930 . S
C760 C756 1.524 . S
C760 H772 0.956 . S
C760 H773 0.961 . S
C760 H774 0.961 . S
C761 C758 1.539 . S
C761 H775 0.958 . S
C761 H776 0.961 . S
C761 H777 0.960 . S
H762 C746 0.931 . S
H763 C751 0.929 . S
H764 C752 0.960 . S
H765 C752 0.962 . S
H766 C752 0.960 . S
H767 C753 0.961 . S
H768 C753 0.961 . S
H769 C753 0.961 . S
H770 C754 0.931 . S
H771 C759 0.930 . S
H772 C760 0.956 . S
H773 C760 0.961 . S
H774 C760 0.961 . S
H775 C761 0.958 . S
H776 C761 0.961 . S
H777 C761 0.960 . S
C778 C779 1.391 . S
C778 C780 1.394 . S
C778 H794 0.931 . S
C779 C778 1.391 . S
C779 C783 1.376 . S
C780 C778 1.394 . S
C780 C781 1.369 . S
C780 C784 1.531 . S
C781 C780 1.369 . S
C781 C782 1.410 . S
C781 C789 1.503 1_565 S
C782 C781 1.410 . S
C782 C783 1.392 . S
C782 C785 1.511 . S
C783 C779 1.376 . S
C783 C782 1.392 . S
C783 H795 0.929 . S
C784 C780 1.531 . S
C784 H796 0.960 . S
C784 H797 0.962 . S
C784 H798 0.960 . S
C785 C782 1.511 . S
C785 H799 0.947 1_565 S
C785 H800 0.961 1_565 S
C785 H801 0.961 . S
C786 C787 1.370 . S
C786 C788 1.363 . S
C786 H802 0.931 . S
C787 C786 1.370 . S
C787 C791 1.408 . S
C788 C786 1.363 . S
C788 C789 1.370 . S
C788 C792 1.524 . S
C789 C781 1.503 1_545 S
C789 C788 1.370 . S
C789 C790 1.403 1_545 S
C790 C789 1.403 1_565 S
C790 C791 1.404 1_565 S
C790 C793 1.539 . S
C791 C787 1.408 . S
C791 C790 1.404 1_545 S
C791 H803 0.930 . S
C792 C788 1.524 . S
C792 H804 0.956 . S
C792 H805 0.961 . S
C792 H806 0.961 . S
C793 C790 1.539 . S
C793 H807 0.958 . S
C793 H808 0.961 . S
C793 H809 0.960 . S
H794 C778 0.931 . S
H795 C783 0.929 . S
H796 C784 0.960 . S
H797 C784 0.962 . S
H798 C784 0.960 . S
H799 C785 0.947 1_545 S
H800 C785 0.961 1_545 S
H801 C785 0.961 . S
H802 C786 0.931 . S
H803 C791 0.930 . S
H804 C792 0.956 . S
H805 C792 0.961 . S
H806 C792 0.961 . S
H807 C793 0.958 . S
H808 C793 0.961 . S
H809 C793 0.960 . S
C810 C811 1.391 . S
C810 C812 1.394 . S
C810 H826 0.931 . S
C811 C810 1.391 . S
C811 C815 1.376 . S
C812 C810 1.394 . S
C812 C813 1.369 . S
C812 C816 1.531 . S
C813 C812 1.369 . S
C813 C814 1.410 . S
C813 C821 1.511 . S
C814 C813 1.410 . S
C814 C815 1.392 . S
C814 C817 1.511 . S
C815 C811 1.376 . S
C815 C814 1.392 . S
C815 H827 0.929 . S
C816 C812 1.531 . S
C816 H828 0.960 . S
C816 H829 0.962 1_554 S
C816 H830 0.960 . S
C817 C814 1.511 . S
C817 H831 0.957 1_554 S
C817 H832 0.961 1_554 S
C817 H833 0.961 . S
C818 C819 1.370 . S
C818 C820 1.363 . S
C818 H834 0.931 . S
C819 C818 1.370 . S
C819 C823 1.408 1_556 S
C820 C818 1.363 . S
C820 C821 1.348 1_556 S
C820 C824 1.524 . S
C821 C813 1.511 . S
C821 C820 1.348 1_554 S
C821 C822 1.418 . S
C822 C821 1.418 . S
C822 C823 1.404 . S
C822 C825 1.539 . S
C823 C819 1.408 1_554 S
C823 C822 1.404 . S
C823 H835 0.930 . S
C824 C820 1.524 . S
C824 H836 0.956 . S
C824 H837 0.961 . S
C824 H838 0.961 . S
C825 C822 1.539 . S
C825 H839 0.958 . S
C825 H840 0.961 . S
C825 H841 0.960 . S
H826 C810 0.931 . S
H827 C815 0.929 . S
H828 C816 0.960 . S
H829 C816 0.962 1_556 S
H830 C816 0.960 . S
H831 C817 0.957 1_556 S
H832 C817 0.961 1_556 S
H833 C817 0.961 . S
H834 C818 0.931 . S
H835 C823 0.930 . S
H836 C824 0.956 . S
H837 C824 0.961 . S
H838 C824 0.961 . S
H839 C825 0.958 . S
H840 C825 0.961 . S
H841 C825 0.960 . S
C842 C843 1.391 . S
C842 C844 1.394 . S
C842 H858 0.931 . S
C843 C842 1.391 . S
C843 C847 1.376 . S
C844 C842 1.394 . S
C844 C845 1.369 . S
C844 C848 1.531 . S
C845 C844 1.369 . S
C845 C846 1.410 . S
C845 C853 1.511 1_545 S
C846 C845 1.410 . S
C846 C847 1.392 . S
C846 C849 1.511 . S
C847 C843 1.376 . S
C847 C846 1.392 . S
C847 H859 0.929 . S
C848 C844 1.531 . S
C848 H860 0.960 1_545 S
C848 H861 0.946 1_556 S
C848 H862 0.960 . S
C849 C846 1.511 . S
C849 H863 0.961 1_556 S
C849 H864 0.943 1_546 S
C849 H865 0.961 . S
C850 C851 1.370 . S
C850 C852 1.363 . S
C850 H866 0.931 . S
C851 C850 1.370 . S
C851 C855 1.408 1_554 S
C852 C850 1.363 . S
C852 C853 1.349 1_554 S
C852 C856 1.524 1_565 S
C853 C845 1.511 1_565 S
C853 C852 1.349 1_556 S
C853 C854 1.417 . S
C854 C853 1.417 . S
C854 C855 1.404 . S
C854 C857 1.539 . S
C855 C851 1.408 1_556 S
C855 C854 1.404 . S
C855 H867 0.930 . S
C856 C852 1.524 1_545 S
C856 H868 0.956 . S
C856 H869 0.961 . S
C856 H870 0.961 1_545 S
C857 C854 1.539 . S
C857 H871 0.958 . S
C857 H872 0.961 . S
C857 H873 0.960 . S
H858 C842 0.931 . S
H859 C847 0.929 . S
H860 C848 0.960 1_565 S
H861 C848 0.946 1_554 S
H862 C848 0.960 . S
H863 C849 0.961 1_554 S
H864 C849 0.943 1_564 S
H865 C849 0.961 . S
H866 C850 0.931 . S
H867 C855 0.930 . S
H868 C856 0.956 . S
H869 C856 0.961 . S
H870 C856 0.961 1_565 S
H871 C857 0.958 . S
H872 C857 0.961 . S
H873 C857 0.960 . S
C874 C875 1.391 . S
C874 C876 1.394 . S
C874 H890 0.931 . S
C875 C874 1.391 . S
C875 C879 1.376 . S
C876 C874 1.394 . S
C876 C877 1.369 . S
C876 C880 1.531 . S
C877 C876 1.369 . S
C877 C878 1.410 . S
C877 C885 1.504 1_655 S
C878 C877 1.410 . S
C878 C879 1.392 . S
C878 C881 1.511 1_556 S
C879 C875 1.376 . S
C879 C878 1.392 . S
C879 H891 0.929 . S
C880 C876 1.531 . S
C880 H892 0.960 1_655 S
C880 H893 0.962 . S
C880 H894 0.960 . S
C881 C878 1.511 1_554 S
C881 H895 0.961 . S
C881 H896 0.961 . S
C881 H897 0.952 1_554 S
C882 C883 1.370 . S
C882 C884 1.363 . S
C882 H898 0.931 . S
C883 C882 1.370 . S
C883 C887 1.408 1_554 S
C884 C882 1.363 . S
C884 C885 1.369 1_554 S
C884 C888 1.526 1_455 S
C885 C877 1.504 1_455 S
C885 C884 1.369 1_556 S
C885 C886 1.404 . S
C886 C885 1.404 . S
C886 C887 1.404 . S
C886 C889 1.539 . S
C887 C883 1.408 1_556 S
C887 C886 1.404 . S
C887 H899 0.930 . S
C888 C884 1.526 1_655 S
C888 H900 0.956 . S
C888 H901 0.956 . S
C888 H902 0.963 1_655 S
C889 C886 1.539 . S
C889 H903 0.958 . S
C889 H904 0.961 . S
C889 H905 0.960 . S
H890 C874 0.931 . S
H891 C879 0.929 . S
H892 C880 0.960 1_455 S
H893 C880 0.962 . S
H894 C880 0.960 . S
H895 C881 0.961 . S
H896 C881 0.961 . S
H897 C881 0.952 1_556 S
H898 C882 0.931 . S
H899 C887 0.930 . S
H900 C888 0.956 . S
H901 C888 0.956 . S
H902 C888 0.963 1_455 S
H903 C889 0.958 . S
H904 C889 0.961 . S
H905 C889 0.960 . S
C906 C907 1.391 . S
C906 C908 1.394 . S
C906 H922 0.931 . S
C907 C906 1.391 . S
C907 C911 1.376 . S
C908 C906 1.394 . S
C908 C909 1.369 . S
C908 C912 1.531 . S
C909 C908 1.369 . S
C909 C910 1.410 1_556 S
C909 C917 1.503 1_556 S
C910 C909 1.410 1_554 S
C910 C911 1.392 1_554 S
C910 C913 1.511 . S
C911 C907 1.376 . S
C911 C910 1.392 1_556 S
C911 H923 0.929 . S
C912 C908 1.531 . S
C912 H924 0.960 . S
C912 H925 0.962 . S
C912 H926 0.960 . S
C913 C910 1.511 . S
C913 H927 0.961 . S
C913 H928 0.961 . S
C913 H929 0.961 . S
C914 C915 1.370 . S
C914 C916 1.363 . S
C914 H930 0.931 . S
C915 C914 1.370 . S
C915 C919 1.408 1_554 S
C916 C914 1.363 . S
C916 C917 1.370 . S
C916 C920 1.524 . S
C917 C909 1.503 1_554 S
C917 C916 1.370 . S
C917 C918 1.403 1_554 S
C918 C917 1.403 1_556 S
C918 C919 1.404 . S
C918 C921 1.539 . S
C919 C915 1.408 1_556 S
C919 C918 1.404 . S
C919 H931 0.930 . S
C920 C916 1.524 . S
C920 H932 0.956 . S
C920 H933 0.961 . S
C920 H934 0.961 . S
C921 C918 1.539 . S
C921 H935 0.958 . S
C921 H936 0.961 . S
C921 H937 0.960 . S
H922 C906 0.931 . S
H923 C911 0.929 . S
H924 C912 0.960 . S
H925 C912 0.962 . S
H926 C912 0.960 . S
H927 C913 0.961 . S
H928 C913 0.961 . S
H929 C913 0.961 . S
H930 C914 0.931 . S
H931 C919 0.930 . S
H932 C920 0.956 . S
H933 C920 0.961 . S
H934 C920 0.961 . S
H935 C921 0.958 . S
H936 C921 0.961 . S
H937 C921 0.960 . S
C938 C939 1.391 . S
C938 C940 1.394 1_554 S
C938 H954 0.931 1_554 S
C939 C938 1.391 . S
C939 C943 1.376 . S
C940 C938 1.394 1_556 S
C940 C941 1.369 . S
C940 C944 1.531 . S
C941 C940 1.369 . S
C941 C942 1.410 1_556 S
C941 C949 1.503 1_565 S
C942 C941 1.410 1_554 S
C942 C943 1.392 . S
C942 C945 1.511 . S
C943 C939 1.376 . S
C943 C942 1.392 . S
C943 H955 0.929 . S
C944 C940 1.531 . S
C944 H956 0.960 . S
C944 H957 0.962 . S
C944 H958 0.960 . S
C945 C942 1.511 . S
C945 H959 0.961 . S
C945 H960 0.961 1_565 S
C945 H961 0.961 . S
C946 C947 1.370 1_554 S
C946 C948 1.363 . S
C946 H962 0.931 . S
C947 C946 1.370 1_556 S
C947 C951 1.408 . S
C948 C946 1.363 . S
C948 C949 1.370 1_554 S
C948 C952 1.524 . S
C949 C941 1.503 1_545 S
C949 C948 1.370 1_556 S
C949 C950 1.403 . S
C950 C949 1.403 . S
C950 C951 1.404 . S
C950 C953 1.539 . S
C951 C947 1.408 . S
C951 C950 1.404 . S
C951 H963 0.930 . S
C952 C948 1.524 . S
C952 H964 0.956 . S
C952 H965 0.961 . S
C952 H966 0.961 . S
C953 C950 1.539 . S
C953 H967 0.958 1_545 S
C953 H968 0.961 . S
C953 H969 0.960 1_545 S
H954 C938 0.931 1_556 S
H955 C943 0.929 . S
H956 C944 0.960 . S
H957 C944 0.962 . S
H958 C944 0.960 . S
H959 C945 0.961 . S
H960 C945 0.961 1_545 S
H961 C945 0.961 . S
H962 C946 0.931 . S
H963 C951 0.930 . S
H964 C952 0.956 . S
H965 C952 0.961 . S
H966 C952 0.961 . S
H967 C953 0.958 1_565 S
H968 C953 0.961 . S
H969 C953 0.960 1_565 S
C970 C971 1.391 . S
C970 C972 1.394 1_556 S
C970 H986 0.931 . S
C971 C970 1.391 . S
C971 C975 1.376 . S
C972 C970 1.394 1_554 S
C972 C973 1.369 . S
C972 C976 1.531 . S
C973 C972 1.369 . S
C973 C974 1.410 1_554 S
C973 C981 1.503 1_655 S
C974 C973 1.410 1_556 S
C974 C975 1.392 . S
C974 C977 1.511 . S
C975 C971 1.376 . S
C975 C974 1.392 . S
C975 H987 0.929 . S
C976 C972 1.531 . S
C976 H988 0.960 . S
C976 H989 0.962 . S
C976 H990 0.960 . S
C977 C974 1.511 . S
C977 H991 0.961 . S
C977 H992 0.961 1_655 S
C977 H993 0.961 . S
C978 C979 1.370 1_556 S
C978 C980 1.363 . S
C978 H994 0.931 . S
C979 C978 1.370 1_554 S
C979 C983 1.408 . S
C980 C978 1.363 . S
C980 C981 1.370 1_556 S
C980 C984 1.524 . S
C981 C973 1.503 1_455 S
C981 C980 1.370 1_554 S
C981 C982 1.403 . S
C982 C981 1.403 . S
C982 C983 1.404 . S
C982 C985 1.539 . S
C983 C979 1.408 . S
C983 C982 1.404 . S
C983 H995 0.930 . S
C984 C980 1.524 . S
C984 H996 0.956 . S
C984 H997 0.961 . S
C984 H998 0.961 . S
C985 C982 1.539 . S
C985 H999 0.958 1_455 S
C985 H1000 0.961 . S
C985 H1001 0.960 1_455 S
H986 C970 0.931 . S
H987 C975 0.929 . S
H988 C976 0.960 . S
H989 C976 0.962 . S
H990 C976 0.960 . S
H991 C977 0.961 . S
H992 C977 0.961 1_455 S
H993 C977 0.961 . S
H994 C978 0.931 . S
H995 C983 0.930 . S
H996 C984 0.956 . S
H997 C984 0.961 . S
H998 C984 0.961 . S
H999 C985 0.958 1_655 S
H1000 C985 0.961 . S
H1001 C985 0.960 1_655 S
C1002 C1003 1.391 . S
C1002 C1004 1.394 . S
C1002 H1018 0.931 . S
C1003 C1002 1.391 . S
C1003 C1007 1.376 . S
C1004 C1002 1.394 . S
C1004 C1005 1.369 . S
C1004 C1008 1.531 . S
C1005 C1004 1.369 . S
C1005 C1006 1.410 . S
C1005 C1013 1.503 . S
C1006 C1005 1.410 . S
C1006 C1007 1.392 . S
C1006 C1009 1.511 . S
C1007 C1003 1.376 . S
C1007 C1006 1.392 . S
C1007 H1019 0.929 . S
C1008 C1004 1.531 . S
C1008 H1020 0.960 . S
C1008 H1021 0.962 . S
C1008 H1022 0.960 . S
C1009 C1006 1.511 . S
C1009 H1023 0.961 . S
C1009 H1024 0.961 . S
C1009 H1025 0.961 . S
C1010 C1011 1.370 . S
C1010 C1012 1.363 . S
C1010 H1026 0.931 . S
C1011 C1010 1.370 . S
C1011 C1015 1.408 . S
C1012 C1010 1.363 . S
C1012 C1013 1.370 . S
C1012 C1016 1.524 . S
C1013 C1005 1.503 . S
C1013 C1012 1.370 . S
C1013 C1014 1.403 . S
C1014 C1013 1.403 . S
C1014 C1015 1.404 . S
C1014 C1017 1.539 . S
C1015 C1011 1.408 . S
C1015 C1014 1.404 . S
C1015 H1027 0.930 . S
C1016 C1012 1.524 . S
C1016 H1028 0.956 . S
C1016 H1029 0.961 . S
C1016 H1030 0.961 . S
C1017 C1014 1.539 . S
C1017 H1031 0.958 . S
C1017 H1032 0.961 . S
C1017 H1033 0.960 . S
H1018 C1002 0.931 . S
H1019 C1007 0.929 . S
H1020 C1008 0.960 . S
H1021 C1008 0.962 . S
H1022 C1008 0.960 . S
H1023 C1009 0.961 . S
H1024 C1009 0.961 . S
H1025 C1009 0.961 . S
H1026 C1010 0.931 . S
H1027 C1015 0.930 . S
H1028 C1016 0.956 . S
H1029 C1016 0.961 . S
H1030 C1016 0.961 . S
H1031 C1017 0.958 . S
H1032 C1017 0.961 . S
H1033 C1017 0.960 . S
C1034 C1035 1.391 . S
C1034 C1036 1.394 . S
C1034 H1050 0.931 . S
C1035 C1034 1.391 . S
C1035 C1039 1.376 . S
C1036 C1034 1.394 . S
C1036 C1037 1.369 . S
C1036 C1040 1.531 . S
C1037 C1036 1.369 . S
C1037 C1038 1.410 . S
C1037 C1045 1.503 . S
C1038 C1037 1.410 . S
C1038 C1039 1.392 . S
C1038 C1041 1.511 . S
C1039 C1035 1.376 . S
C1039 C1038 1.392 . S
C1039 H1051 0.929 . S
C1040 C1036 1.531 . S
C1040 H1052 0.960 . S
C1040 H1053 0.962 . S
C1040 H1054 0.960 . S
C1041 C1038 1.511 . S
C1041 H1055 0.961 . S
C1041 H1056 0.961 . S
C1041 H1057 0.961 . S
C1042 C1043 1.370 . S
C1042 C1044 1.363 . S
C1042 H1058 0.931 . S
C1043 C1042 1.370 . S
C1043 C1047 1.408 . S
C1044 C1042 1.363 . S
C1044 C1045 1.370 . S
C1044 C1048 1.524 . S
C1045 C1037 1.503 . S
C1045 C1044 1.370 . S
C1045 C1046 1.403 . S
C1046 C1045 1.403 . S
C1046 C1047 1.404 . S
C1046 C1049 1.539 . S
C1047 C1043 1.408 . S
C1047 C1046 1.404 . S
C1047 H1059 0.930 . S
C1048 C1044 1.524 . S
C1048 H1060 0.956 . S
C1048 H1061 0.961 . S
C1048 H1062 0.961 . S
C1049 C1046 1.539 . S
C1049 H1063 0.958 . S
C1049 H1064 0.961 . S
C1049 H1065 0.960 . S
H1050 C1034 0.931 . S
H1051 C1039 0.929 . S
H1052 C1040 0.960 . S
H1053 C1040 0.962 . S
H1054 C1040 0.960 . S
H1055 C1041 0.961 . S
H1056 C1041 0.961 . S
H1057 C1041 0.961 . S
H1058 C1042 0.931 . S
H1059 C1047 0.930 . S
H1060 C1048 0.956 . S
H1061 C1048 0.961 . S
H1062 C1048 0.961 . S
H1063 C1049 0.958 . S
H1064 C1049 0.961 . S
H1065 C1049 0.960 . S
C1066 C1067 1.391 . S
C1066 C1068 1.394 . S
C1066 H1082 0.931 . S
C1067 C1066 1.391 . S
C1067 C1071 1.376 . S
C1068 C1066 1.394 . S
C1068 C1069 1.369 . S
C1068 C1072 1.531 . S
C1069 C1068 1.369 . S
C1069 C1070 1.410 . S
C1069 C1077 1.503 . S
C1070 C1069 1.410 . S
C1070 C1071 1.392 . S
C1070 C1073 1.511 . S
C1071 C1067 1.376 . S
C1071 C1070 1.392 . S
C1071 H1083 0.929 . S
C1072 C1068 1.531 . S
C1072 H1084 0.960 . S
C1072 H1085 0.962 . S
C1072 H1086 0.960 . S
C1073 C1070 1.511 . S
C1073 H1087 0.961 . S
C1073 H1088 0.961 . S
C1073 H1089 0.961 . S
C1074 C1075 1.370 . S
C1074 C1076 1.363 . S
C1074 H1090 0.931 . S
C1075 C1074 1.370 . S
C1075 C1079 1.408 . S
C1076 C1074 1.363 . S
C1076 C1077 1.370 . S
C1076 C1080 1.524 . S
C1077 C1069 1.503 . S
C1077 C1076 1.370 . S
C1077 C1078 1.403 . S
C1078 C1077 1.403 . S
C1078 C1079 1.404 . S
C1078 C1081 1.539 . S
C1079 C1075 1.408 . S
C1079 C1078 1.404 . S
C1079 H1091 0.930 . S
C1080 C1076 1.524 . S
C1080 H1092 0.956 . S
C1080 H1093 0.961 . S
C1080 H1094 0.961 . S
C1081 C1078 1.539 . S
C1081 H1095 0.958 . S
C1081 H1096 0.961 . S
C1081 H1097 0.960 . S
H1082 C1066 0.931 . S
H1083 C1071 0.929 . S
H1084 C1072 0.960 . S
H1085 C1072 0.962 . S
H1086 C1072 0.960 . S
H1087 C1073 0.961 . S
H1088 C1073 0.961 . S
H1089 C1073 0.961 . S
H1090 C1074 0.931 . S
H1091 C1079 0.930 . S
H1092 C1080 0.956 . S
H1093 C1080 0.961 . S
H1094 C1080 0.961 . S
H1095 C1081 0.958 . S
H1096 C1081 0.961 . S
H1097 C1081 0.960 . S
C1098 C1099 1.391 . S
C1098 C1100 1.394 . S
C1098 H1114 0.931 . S
C1099 C1098 1.391 . S
C1099 C1103 1.376 . S
C1100 C1098 1.394 . S
C1100 C1101 1.369 . S
C1100 C1104 1.531 . S
C1101 C1100 1.369 . S
C1101 C1102 1.410 . S
C1101 C1109 1.503 . S
C1102 C1101 1.410 . S
C1102 C1103 1.392 . S
C1102 C1105 1.511 . S
C1103 C1099 1.376 . S
C1103 C1102 1.392 . S
C1103 H1115 0.929 . S
C1104 C1100 1.531 . S
C1104 H1116 0.960 . S
C1104 H1117 0.962 . S
C1104 H1118 0.960 . S
C1105 C1102 1.511 . S
C1105 H1119 0.961 . S
C1105 H1120 0.961 . S
C1105 H1121 0.961 . S
C1106 C1107 1.370 . S
C1106 C1108 1.363 . S
C1106 H1122 0.931 . S
C1107 C1106 1.370 . S
C1107 C1111 1.408 . S
C1108 C1106 1.363 . S
C1108 C1109 1.370 . S
C1108 C1112 1.524 . S
C1109 C1101 1.503 . S
C1109 C1108 1.370 . S
C1109 C1110 1.403 . S
C1110 C1109 1.403 . S
C1110 C1111 1.404 . S
C1110 C1113 1.539 . S
C1111 C1107 1.408 . S
C1111 C1110 1.404 . S
C1111 H1123 0.930 . S
C1112 C1108 1.524 . S
C1112 H1124 0.956 . S
C1112 H1125 0.961 . S
C1112 H1126 0.961 . S
C1113 C1110 1.539 . S
C1113 H1127 0.958 . S
C1113 H1128 0.961 . S
C1113 H1129 0.960 . S
H1114 C1098 0.931 . S
H1115 C1103 0.929 . S
H1116 C1104 0.960 . S
H1117 C1104 0.962 . S
H1118 C1104 0.960 . S
H1119 C1105 0.961 . S
H1120 C1105 0.961 . S
H1121 C1105 0.961 . S
H1122 C1106 0.931 . S
H1123 C1111 0.930 . S
H1124 C1112 0.956 . S
H1125 C1112 0.961 . S
H1126 C1112 0.961 . S
H1127 C1113 0.958 . S
H1128 C1113 0.961 . S
H1129 C1113 0.960 . S
C1130 C1131 1.391 . S
C1130 C1132 1.394 . S
C1130 H1146 0.931 . S
C1131 C1130 1.391 . S
C1131 C1135 1.376 . S
C1132 C1130 1.394 . S
C1132 C1133 1.369 . S
C1132 C1136 1.531 . S
C1133 C1132 1.369 . S
C1133 C1134 1.410 . S
C1133 C1141 1.503 . S
C1134 C1133 1.410 . S
C1134 C1135 1.392 . S
C1134 C1137 1.511 . S
C1135 C1131 1.376 . S
C1135 C1134 1.392 . S
C1135 H1147 0.929 . S
C1136 C1132 1.531 . S
C1136 H1148 0.960 . S
C1136 H1149 0.962 . S
C1136 H1150 0.960 . S
C1137 C1134 1.511 . S
C1137 H1151 0.961 . S
C1137 H1152 0.961 . S
C1137 H1153 0.961 . S
C1138 C1139 1.370 . S
C1138 C1140 1.363 . S
C1138 H1154 0.931 . S
C1139 C1138 1.370 . S
C1139 C1143 1.408 . S
C1140 C1138 1.363 . S
C1140 C1141 1.370 . S
C1140 C1144 1.524 . S
C1141 C1133 1.503 . S
C1141 C1140 1.370 . S
C1141 C1142 1.403 . S
C1142 C1141 1.403 . S
C1142 C1143 1.404 . S
C1142 C1145 1.539 . S
C1143 C1139 1.408 . S
C1143 C1142 1.404 . S
C1143 H1155 0.930 . S
C1144 C1140 1.524 . S
C1144 H1156 0.956 . S
C1144 H1157 0.961 . S
C1144 H1158 0.961 . S
C1145 C1142 1.539 . S
C1145 H1159 0.958 . S
C1145 H1160 0.961 . S
C1145 H1161 0.960 . S
H1146 C1130 0.931 . S
H1147 C1135 0.929 . S
H1148 C1136 0.960 . S
H1149 C1136 0.962 . S
H1150 C1136 0.960 . S
H1151 C1137 0.961 . S
H1152 C1137 0.961 . S
H1153 C1137 0.961 . S
H1154 C1138 0.931 . S
H1155 C1143 0.930 . S
H1156 C1144 0.956 . S
H1157 C1144 0.961 . S
H1158 C1144 0.961 . S
H1159 C1145 0.958 . S
H1160 C1145 0.961 . S
H1161 C1145 0.960 . S
C1162 C1163 1.391 . S
C1162 C1164 1.394 . S
C1162 H1178 0.931 . S
C1163 C1162 1.391 . S
C1163 C1167 1.376 . S
C1164 C1162 1.394 . S
C1164 C1165 1.369 . S
C1164 C1168 1.531 . S
C1165 C1164 1.369 . S
C1165 C1166 1.410 . S
C1165 C1173 1.503 . S
C1166 C1165 1.410 . S
C1166 C1167 1.392 . S
C1166 C1169 1.511 . S
C1167 C1163 1.376 . S
C1167 C1166 1.392 . S
C1167 H1179 0.929 . S
C1168 C1164 1.531 . S
C1168 H1180 0.960 . S
C1168 H1181 0.962 . S
C1168 H1182 0.960 . S
C1169 C1166 1.511 . S
C1169 H1183 0.961 . S
C1169 H1184 0.961 . S
C1169 H1185 0.961 . S
C1170 C1171 1.370 . S
C1170 C1172 1.363 . S
C1170 H1186 0.931 . S
C1171 C1170 1.370 . S
C1171 C1175 1.408 . S
C1172 C1170 1.363 . S
C1172 C1173 1.370 . S
C1172 C1176 1.524 . S
C1173 C1165 1.503 . S
C1173 C1172 1.370 . S
C1173 C1174 1.403 . S
C1174 C1173 1.403 . S
C1174 C1175 1.404 . S
C1174 C1177 1.539 . S
C1175 C1171 1.408 . S
C1175 C1174 1.404 . S
C1175 H1187 0.930 . S
C1176 C1172 1.524 . S
C1176 H1188 0.956 . S
C1176 H1189 0.961 . S
C1176 H1190 0.961 . S
C1177 C1174 1.539 . S
C1177 H1191 0.958 . S
C1177 H1192 0.961 . S
C1177 H1193 0.960 . S
H1178 C1162 0.931 . S
H1179 C1167 0.929 . S
H1180 C1168 0.960 . S
H1181 C1168 0.962 . S
H1182 C1168 0.960 . S
H1183 C1169 0.961 . S
H1184 C1169 0.961 . S
H1185 C1169 0.961 . S
H1186 C1170 0.931 . S
H1187 C1175 0.930 . S
H1188 C1176 0.956 . S
H1189 C1176 0.961 . S
H1190 C1176 0.961 . S
H1191 C1177 0.958 . S
H1192 C1177 0.961 . S
H1193 C1177 0.960 . S
C1194 C1195 1.391 . S
C1194 C1196 1.394 . S
C1194 H1210 0.931 . S
C1195 C1194 1.391 . S
C1195 C1199 1.376 . S
C1196 C1194 1.394 . S
C1196 C1197 1.369 . S
C1196 C1200 1.531 . S
C1197 C1196 1.369 . S
C1197 C1198 1.410 . S
C1197 C1205 1.503 . S
C1198 C1197 1.410 . S
C1198 C1199 1.392 . S
C1198 C1201 1.511 . S
C1199 C1195 1.376 . S
C1199 C1198 1.392 . S
C1199 H1211 0.929 . S
C1200 C1196 1.531 . S
C1200 H1212 0.960 . S
C1200 H1213 0.962 . S
C1200 H1214 0.960 . S
C1201 C1198 1.511 . S
C1201 H1215 0.961 . S
C1201 H1216 0.961 . S
C1201 H1217 0.961 . S
C1202 C1203 1.370 . S
C1202 C1204 1.363 . S
C1202 H1218 0.931 . S
C1203 C1202 1.370 . S
C1203 C1207 1.408 . S
C1204 C1202 1.363 . S
C1204 C1205 1.370 . S
C1204 C1208 1.524 . S
C1205 C1197 1.503 . S
C1205 C1204 1.370 . S
C1205 C1206 1.403 . S
C1206 C1205 1.403 . S
C1206 C1207 1.404 . S
C1206 C1209 1.539 . S
C1207 C1203 1.408 . S
C1207 C1206 1.404 . S
C1207 H1219 0.930 . S
C1208 C1204 1.524 . S
C1208 H1220 0.956 . S
C1208 H1221 0.961 . S
C1208 H1222 0.961 . S
C1209 C1206 1.539 . S
C1209 H1223 0.958 . S
C1209 H1224 0.961 . S
C1209 H1225 0.960 . S
H1210 C1194 0.931 . S
H1211 C1199 0.929 . S
H1212 C1200 0.960 . S
H1213 C1200 0.962 . S
H1214 C1200 0.960 . S
H1215 C1201 0.961 . S
H1216 C1201 0.961 . S
H1217 C1201 0.961 . S
H1218 C1202 0.931 . S
H1219 C1207 0.930 . S
H1220 C1208 0.956 . S
H1221 C1208 0.961 . S
H1222 C1208 0.961 . S
H1223 C1209 0.958 . S
H1224 C1209 0.961 . S
H1225 C1209 0.960 . S
C1226 C1227 1.391 . S
C1226 C1228 1.394 . S
C1226 H1242 0.931 . S
C1227 C1226 1.391 . S
C1227 C1231 1.376 . S
C1228 C1226 1.394 . S
C1228 C1229 1.369 . S
C1228 C1232 1.531 . S
C1229 C1228 1.369 . S
C1229 C1230 1.410 . S
C1229 C1237 1.503 . S
C1230 C1229 1.410 . S
C1230 C1231 1.392 . S
C1230 C1233 1.511 . S
C1231 C1227 1.376 . S
C1231 C1230 1.392 . S
C1231 H1243 0.929 . S
C1232 C1228 1.531 . S
C1232 H1244 0.960 . S
C1232 H1245 0.962 . S
C1232 H1246 0.960 . S
C1233 C1230 1.511 . S
C1233 H1247 0.961 . S
C1233 H1248 0.961 . S
C1233 H1249 0.961 . S
C1234 C1235 1.370 . S
C1234 C1236 1.363 . S
C1234 H1250 0.931 . S
C1235 C1234 1.370 . S
C1235 C1239 1.408 . S
C1236 C1234 1.363 . S
C1236 C1237 1.370 . S
C1236 C1240 1.524 . S
C1237 C1229 1.503 . S
C1237 C1236 1.370 . S
C1237 C1238 1.403 . S
C1238 C1237 1.403 . S
C1238 C1239 1.404 . S
C1238 C1241 1.539 . S
C1239 C1235 1.408 . S
C1239 C1238 1.404 . S
C1239 H1251 0.930 . S
C1240 C1236 1.524 . S
C1240 H1252 0.956 . S
C1240 H1253 0.961 . S
C1240 H1254 0.961 . S
C1241 C1238 1.539 . S
C1241 H1255 0.958 . S
C1241 H1256 0.961 . S
C1241 H1257 0.960 . S
H1242 C1226 0.931 . S
H1243 C1231 0.929 . S
H1244 C1232 0.960 . S
H1245 C1232 0.962 . S
H1246 C1232 0.960 . S
H1247 C1233 0.961 . S
H1248 C1233 0.961 . S
H1249 C1233 0.961 . S
H1250 C1234 0.931 . S
H1251 C1239 0.930 . S
H1252 C1240 0.956 . S
H1253 C1240 0.961 . S
H1254 C1240 0.961 . S
H1255 C1241 0.958 . S
H1256 C1241 0.961 . S
H1257 C1241 0.960 . S
C1258 C1259 1.391 . S
C1258 C1260 1.394 . S
C1258 H1274 0.931 . S
C1259 C1258 1.391 . S
C1259 C1263 1.376 . S
C1260 C1258 1.394 . S
C1260 C1261 1.369 . S
C1260 C1264 1.531 . S
C1261 C1260 1.369 . S
C1261 C1262 1.410 . S
C1261 C1269 1.503 . S
C1262 C1261 1.410 . S
C1262 C1263 1.392 . S
C1262 C1265 1.511 . S
C1263 C1259 1.376 . S
C1263 C1262 1.392 . S
C1263 H1275 0.929 . S
C1264 C1260 1.531 . S
C1264 H1276 0.960 . S
C1264 H1277 0.962 . S
C1264 H1278 0.960 . S
C1265 C1262 1.511 . S
C1265 H1279 0.961 . S
C1265 H1280 0.961 . S
C1265 H1281 0.961 . S
C1266 C1267 1.370 . S
C1266 C1268 1.363 . S
C1266 H1282 0.931 . S
C1267 C1266 1.370 . S
C1267 C1271 1.408 . S
C1268 C1266 1.363 . S
C1268 C1269 1.370 . S
C1268 C1272 1.524 . S
C1269 C1261 1.503 . S
C1269 C1268 1.370 . S
C1269 C1270 1.403 . S
C1270 C1269 1.403 . S
C1270 C1271 1.404 . S
C1270 C1273 1.539 . S
C1271 C1267 1.408 . S
C1271 C1270 1.404 . S
C1271 H1283 0.930 . S
C1272 C1268 1.524 . S
C1272 H1284 0.956 . S
C1272 H1285 0.961 . S
C1272 H1286 0.961 . S
C1273 C1270 1.539 . S
C1273 H1287 0.958 . S
C1273 H1288 0.961 . S
C1273 H1289 0.960 . S
H1274 C1258 0.931 . S
H1275 C1263 0.929 . S
H1276 C1264 0.960 . S
H1277 C1264 0.962 . S
H1278 C1264 0.960 . S
H1279 C1265 0.961 . S
H1280 C1265 0.961 . S
H1281 C1265 0.961 . S
H1282 C1266 0.931 . S
H1283 C1271 0.930 . S
H1284 C1272 0.956 . S
H1285 C1272 0.961 . S
H1286 C1272 0.961 . S
H1287 C1273 0.958 . S
H1288 C1273 0.961 . S
H1289 C1273 0.960 . S
C1290 C1291 1.391 . S
C1290 C1292 1.394 . S
C1290 H1306 0.931 . S
C1291 C1290 1.391 . S
C1291 C1295 1.376 . S
C1292 C1290 1.394 . S
C1292 C1293 1.369 . S
C1292 C1296 1.531 . S
C1293 C1292 1.369 . S
C1293 C1294 1.410 . S
C1293 C1301 1.503 . S
C1294 C1293 1.410 . S
C1294 C1295 1.392 . S
C1294 C1297 1.511 . S
C1295 C1291 1.376 . S
C1295 C1294 1.392 . S
C1295 H1307 0.929 . S
C1296 C1292 1.531 . S
C1296 H1308 0.960 . S
C1296 H1309 0.962 . S
C1296 H1310 0.960 . S
C1297 C1294 1.511 . S
C1297 H1311 0.961 . S
C1297 H1312 0.961 . S
C1297 H1313 0.961 . S
C1298 C1299 1.370 . S
C1298 C1300 1.363 . S
C1298 H1314 0.931 . S
C1299 C1298 1.370 . S
C1299 C1303 1.408 . S
C1300 C1298 1.363 . S
C1300 C1301 1.370 . S
C1300 C1304 1.524 . S
C1301 C1293 1.503 . S
C1301 C1300 1.370 . S
C1301 C1302 1.403 . S
C1302 C1301 1.403 . S
C1302 C1303 1.404 . S
C1302 C1305 1.539 . S
C1303 C1299 1.408 . S
C1303 C1302 1.404 . S
C1303 H1315 0.930 . S
C1304 C1300 1.524 . S
C1304 H1316 0.956 . S
C1304 H1317 0.961 . S
C1304 H1318 0.961 . S
C1305 C1302 1.539 . S
C1305 H1319 0.958 . S
C1305 H1320 0.961 . S
C1305 H1321 0.960 . S
H1306 C1290 0.931 . S
H1307 C1295 0.929 . S
H1308 C1296 0.960 . S
H1309 C1296 0.962 . S
H1310 C1296 0.960 . S
H1311 C1297 0.961 . S
H1312 C1297 0.961 . S
H1313 C1297 0.961 . S
H1314 C1298 0.931 . S
H1315 C1303 0.930 . S
H1316 C1304 0.956 . S
H1317 C1304 0.961 . S
H1318 C1304 0.961 . S
H1319 C1305 0.958 . S
H1320 C1305 0.961 . S
H1321 C1305 0.960 . S
C1322 C1323 1.391 . S
C1322 C1324 1.394 . S
C1322 H1338 0.931 . S
C1323 C1322 1.391 . S
C1323 C1327 1.376 . S
C1324 C1322 1.394 . S
C1324 C1325 1.369 . S
C1324 C1328 1.531 . S
C1325 C1324 1.369 . S
C1325 C1326 1.410 . S
C1325 C1333 1.503 . S
C1326 C1325 1.410 . S
C1326 C1327 1.392 . S
C1326 C1329 1.511 . S
C1327 C1323 1.376 . S
C1327 C1326 1.392 . S
C1327 H1339 0.929 . S
C1328 C1324 1.531 . S
C1328 H1340 0.960 . S
C1328 H1341 0.962 . S
C1328 H1342 0.960 . S
C1329 C1326 1.511 . S
C1329 H1343 0.961 . S
C1329 H1344 0.961 . S
C1329 H1345 0.961 . S
C1330 C1331 1.370 . S
C1330 C1332 1.363 . S
C1330 H1346 0.931 . S
C1331 C1330 1.370 . S
C1331 C1335 1.408 . S
C1332 C1330 1.363 . S
C1332 C1333 1.370 . S
C1332 C1336 1.524 . S
C1333 C1325 1.503 . S
C1333 C1332 1.370 . S
C1333 C1334 1.403 . S
C1334 C1333 1.403 . S
C1334 C1335 1.404 . S
C1334 C1337 1.539 . S
C1335 C1331 1.408 . S
C1335 C1334 1.404 . S
C1335 H1347 0.930 . S
C1336 C1332 1.524 . S
C1336 H1348 0.956 . S
C1336 H1349 0.961 . S
C1336 H1350 0.961 . S
C1337 C1334 1.539 . S
C1337 H1351 0.958 . S
C1337 H1352 0.961 . S
C1337 H1353 0.960 . S
H1338 C1322 0.931 . S
H1339 C1327 0.929 . S
H1340 C1328 0.960 . S
H1341 C1328 0.962 . S
H1342 C1328 0.960 . S
H1343 C1329 0.961 . S
H1344 C1329 0.961 . S
H1345 C1329 0.961 . S
H1346 C1330 0.931 . S
H1347 C1335 0.930 . S
H1348 C1336 0.956 . S
H1349 C1336 0.961 . S
H1350 C1336 0.961 . S
H1351 C1337 0.958 . S
H1352 C1337 0.961 . S
H1353 C1337 0.960 . S
C1354 C1355 1.391 . S
C1354 C1356 1.394 . S
C1354 H1370 0.931 . S
C1355 C1354 1.391 . S
C1355 C1359 1.376 . S
C1356 C1354 1.394 . S
C1356 C1357 1.369 . S
C1356 C1360 1.531 . S
C1357 C1356 1.369 . S
C1357 C1358 1.410 . S
C1357 C1365 1.503 . S
C1358 C1357 1.410 . S
C1358 C1359 1.392 . S
C1358 C1361 1.511 . S
C1359 C1355 1.376 . S
C1359 C1358 1.392 . S
C1359 H1371 0.929 . S
C1360 C1356 1.531 . S
C1360 H1372 0.960 . S
C1360 H1373 0.962 . S
C1360 H1374 0.960 . S
C1361 C1358 1.511 . S
C1361 H1375 0.961 . S
C1361 H1376 0.961 . S
C1361 H1377 0.961 . S
C1362 C1363 1.370 . S
C1362 C1364 1.363 . S
C1362 H1378 0.931 . S
C1363 C1362 1.370 . S
C1363 C1367 1.408 . S
C1364 C1362 1.363 . S
C1364 C1365 1.370 . S
C1364 C1368 1.524 . S
C1365 C1357 1.503 . S
C1365 C1364 1.370 . S
C1365 C1366 1.403 . S
C1366 C1365 1.403 . S
C1366 C1367 1.404 . S
C1366 C1369 1.539 . S
C1367 C1363 1.408 . S
C1367 C1366 1.404 . S
C1367 H1379 0.930 . S
C1368 C1364 1.524 . S
C1368 H1380 0.956 . S
C1368 H1381 0.961 . S
C1368 H1382 0.961 . S
C1369 C1366 1.539 . S
C1369 H1383 0.958 . S
C1369 H1384 0.961 . S
C1369 H1385 0.960 . S
H1370 C1354 0.931 . S
H1371 C1359 0.929 . S
H1372 C1360 0.960 . S
H1373 C1360 0.962 . S
H1374 C1360 0.960 . S
H1375 C1361 0.961 . S
H1376 C1361 0.961 . S
H1377 C1361 0.961 . S
H1378 C1362 0.931 . S
H1379 C1367 0.930 . S
H1380 C1368 0.956 . S
H1381 C1368 0.961 . S
H1382 C1368 0.961 . S
H1383 C1369 0.958 . S
H1384 C1369 0.961 . S
H1385 C1369 0.960 . S
C235 C221 1.818 . S
C243 C0 1.826 . S
C267 C195 1.840 . S
C275 C13 1.834 . S
C299 C208 1.838 . S
C307 C26 1.834 . S
C331 C91 1.807 . S
C339 C39 1.821 . S
C363 C104 1.817 . S
C371 C52 1.825 . S
C395 C65 1.837 . S
C403 C78 1.833 . S
C427 C117 1.830 . S
C435 C169 1.830 . S
C459 C130 1.806 . S
C467 C182 1.820 . S
C491 C143 1.813 . S
C499 C156 1.824 . S
C523 C5 0.850 . S
C531 C226 0.865 . S
C555 C200 0.873 . S
C563 C18 0.838 . S
C587 C31 0.815 . S
C595 C213 0.870 . S
C619 C96 0.885 . S
C627 C44 0.837 . S
C651 C57 0.841 . S
C659 C109 0.848 . S
C683 C70 0.824 . S
C691 C83 0.856 . S
C715 C122 0.877 . S
C723 C174 0.837 . S
C747 C187 0.824 . S
C755 C135 0.856 . S
C779 C161 0.821 . S
C787 C148 0.871 . S
C811 C10 1.472 . S
C819 C49 1.459 . S
C843 C62 1.472 . S
C851 C23 1.459 . S
C875 C75 1.467 . S
C883 C36 1.459 . S
C907 C73 1.441 . S
C915 C21 1.409 . S
C939 C34 1.396 . S
C947 C47 1.438 . S
C971 C60 1.394 . S
C979 C8 1.439 . S
C1003 C88 1.470 . S
C1011 C127 1.470 . S
C1035 C140 1.447 . S
C1043 C101 1.464 . S
C1067 C153 1.460 . S
C1075 C114 1.472 . S
C1099 C151 1.457 . S
C1107 C99 1.410 . S
C1131 C112 1.408 . S
C1139 C125 1.436 . S
C1163 C138 1.393 . S
C1171 C86 1.428 . S
C1195 C205 1.459 . S
C1203 C166 1.472 . S
C1227 C218 1.449 . S
C1235 C179 1.471 . S
C1259 C192 1.468 . S
C1267 C231 1.459 . S
C1291 C229 1.396 . S
C1299 C177 1.426 . S
C1323 C190 1.453 . S
C1331 C203 1.408 . S
C1355 C216 1.452 . S
C1363 C164 1.416 . S
