# Generated by pormake.
# Topology cag, (4)-cn, num edge types: 1
# Building blocks:
#     Node 0, Type 0, BuildingBlock: AZAVOO_clean_sbu_0, # of connection points: 4
#     Node 1, Type 0, BuildingBlock: AZAVOO_clean_sbu_0, # of connection points: 4
#     Node 2, Type 0, BuildingBlock: AZAVOO_clean_sbu_0, # of connection points: 4
#     Node 3, Type 0, BuildingBlock: AZAVOO_clean_sbu_0, # of connection points: 4
#     Node 4, Type 0, BuildingBlock: AZAVOO_clean_sbu_0, # of connection points: 4
#     Node 5, Type 0, BuildingBlock: AZAVOO_clean_sbu_0, # of connection points: 4
#     Node 6, Type 0, BuildingBlock: AZAVOO_clean_sbu_0, # of connection points: 4
#     Node 7, Type 0, BuildingBlock: AZAVOO_clean_sbu_0, # of connection points: 4
#     Node 8, Type 0, BuildingBlock: AZAVOO_clean_sbu_0, # of connection points: 4
#     Node 9, Type 0, BuildingBlock: AZAVOO_clean_sbu_0, # of connection points: 4
#     Node 10, Type 0, BuildingBlock: AZAVOO_clean_sbu_0, # of connection points: 4
#     Node 11, Type 0, BuildingBlock: AZAVOO_clean_sbu_0, # of connection points: 4
#     Node 12, Type 0, BuildingBlock: AZAVOO_clean_sbu_0, # of connection points: 4
#     Node 13, Type 0, BuildingBlock: AZAVOO_clean_sbu_0, # of connection points: 4
#     Node 14, Type 0, BuildingBlock: AZAVOO_clean_sbu_0, # of connection points: 4
#     Node 15, Type 0, BuildingBlock: AZAVOO_clean_sbu_0, # of connection points: 4
#     Edge 16, Type (0, 0), BuildingBlock: MIFKUJ_clean_linker_0, # of connection points: 2
#     Edge 17, Type (0, 0), BuildingBlock: MIFKUJ_clean_linker_0, # of connection points: 2
#     Edge 18, Type (0, 0), BuildingBlock: MIFKUJ_clean_linker_0, # of connection points: 2
#     Edge 19, Type (0, 0), BuildingBlock: MIFKUJ_clean_linker_0, # of connection points: 2
#     Edge 20, Type (0, 0), BuildingBlock: MIFKUJ_clean_linker_0, # of connection points: 2
#     Edge 21, Type (0, 0), BuildingBlock: MIFKUJ_clean_linker_0, # of connection points: 2
#     Edge 22, Type (0, 0), BuildingBlock: MIFKUJ_clean_linker_0, # of connection points: 2
#     Edge 23, Type (0, 0), BuildingBlock: MIFKUJ_clean_linker_0, # of connection points: 2
#     Edge 24, Type (0, 0), BuildingBlock: MIFKUJ_clean_linker_0, # of connection points: 2
#     Edge 25, Type (0, 0), BuildingBlock: MIFKUJ_clean_linker_0, # of connection points: 2
#     Edge 26, Type (0, 0), BuildingBlock: MIFKUJ_clean_linker_0, # of connection points: 2
#     Edge 27, Type (0, 0), BuildingBlock: MIFKUJ_clean_linker_0, # of connection points: 2
#     Edge 28, Type (0, 0), BuildingBlock: MIFKUJ_clean_linker_0, # of connection points: 2
#     Edge 29, Type (0, 0), BuildingBlock: MIFKUJ_clean_linker_0, # of connection points: 2
#     Edge 30, Type (0, 0), BuildingBlock: MIFKUJ_clean_linker_0, # of connection points: 2
#     Edge 31, Type (0, 0), BuildingBlock: MIFKUJ_clean_linker_0, # of connection points: 2
#     Edge 32, Type (0, 0), BuildingBlock: MIFKUJ_clean_linker_0, # of connection points: 2
#     Edge 33, Type (0, 0), BuildingBlock: MIFKUJ_clean_linker_0, # of connection points: 2
#     Edge 34, Type (0, 0), BuildingBlock: MIFKUJ_clean_linker_0, # of connection points: 2
#     Edge 35, Type (0, 0), BuildingBlock: MIFKUJ_clean_linker_0, # of connection points: 2
#     Edge 36, Type (0, 0), BuildingBlock: MIFKUJ_clean_linker_0, # of connection points: 2
#     Edge 37, Type (0, 0), BuildingBlock: MIFKUJ_clean_linker_0, # of connection points: 2
#     Edge 38, Type (0, 0), BuildingBlock: MIFKUJ_clean_linker_0, # of connection points: 2
#     Edge 39, Type (0, 0), BuildingBlock: MIFKUJ_clean_linker_0, # of connection points: 2
#     Edge 40, Type (0, 0), BuildingBlock: MIFKUJ_clean_linker_0, # of connection points: 2
#     Edge 41, Type (0, 0), BuildingBlock: MIFKUJ_clean_linker_0, # of connection points: 2
#     Edge 42, Type (0, 0), BuildingBlock: MIFKUJ_clean_linker_0, # of connection points: 2
#     Edge 43, Type (0, 0), BuildingBlock: MIFKUJ_clean_linker_0, # of connection points: 2
#     Edge 44, Type (0, 0), BuildingBlock: MIFKUJ_clean_linker_0, # of connection points: 2
#     Edge 45, Type (0, 0), BuildingBlock: MIFKUJ_clean_linker_0, # of connection points: 2
#     Edge 46, Type (0, 0), BuildingBlock: MIFKUJ_clean_linker_0, # of connection points: 2
#     Edge 47, Type (0, 0), BuildingBlock: MIFKUJ_clean_linker_0, # of connection points: 2
# Relax obj value: 0.058
# Max RMSD: 0.100
# Mean RMSD: 0.096
data_MOF--net-cag--node1-AZAVOO_clean_sbu_0--edge1-MIFKUJ_clean_linker_0
_symmetry_space_group_name_H-M    P1
_symmetry_Int_Tables_number       1
_symmetry_cell_setting            triclinic
loop_
_symmetry_equiv_pos_as_xyz
'x, y, z'
_cell_length_a     57.622926
_cell_length_b     60.173871
_cell_length_c     55.439749
_cell_angle_alpha  90.017736
_cell_angle_beta   90.004059
_cell_angle_gamma 89.995648
loop_
_atom_site_label
_atom_site_type_symbol
_atom_site_fract_x
_atom_site_fract_y
_atom_site_fract_z
_atom_type_partial_charge
Mg0 Mg 0.34367 0.12485 0.1202 0.0
O1 O 0.33594 0.09504 0.09555 0.0
O2 O 0.29791 0.08774 0.09796 0.0
Mg3 Mg 0.28101 0.11395 0.12189 0.0
C4 C 0.31817 0.08346 0.08993 0.0
C5 C 0.39259 0.14411 0.10931 0.0
O6 O 0.38265 0.1612 0.11986 0.0
O7 O 0.32918 0.14854 0.09147 0.0
O8 O 0.29132 0.14123 0.0952 0.0
O9 O 0.34688 0.10239 0.15239 0.0
O10 O 0.31414 0.118 0.14074 0.0
C11 C 0.30802 0.15206 0.08563 0.0
C12 C 0.32473 0.10478 0.15526 0.0
O13 O 0.38063 0.12671 0.10552 0.0
Mg14 Mg 0.15847 0.87544 0.61891 0.0
O15 O 0.16591 0.90481 0.59351 0.0
O16 O 0.20432 0.90985 0.59282 0.0
Mg17 Mg 0.22148 0.88434 0.6174 0.0
C18 C 0.18389 0.91518 0.58607 0.0
C19 C 0.1088 0.85699 0.61079 0.0
O20 O 0.11889 0.84011 0.62157 0.0
O21 O 0.17109 0.85062 0.59015 0.0
O22 O 0.20932 0.85638 0.5926 0.0
O23 O 0.15738 0.89849 0.65081 0.0
O24 O 0.18905 0.8818 0.63784 0.0
C25 C 0.19191 0.84594 0.58395 0.0
C26 C 0.17955 0.89551 0.65264 0.0
O27 O 0.12085 0.8741 0.60592 0.0
Mg28 Mg 0.34288 0.8749 0.87445 0.0
O29 O 0.33508 0.90305 0.9012 0.0
O30 O 0.29739 0.91173 0.89779 0.0
Mg31 Mg 0.28075 0.88841 0.87022 0.0
C32 C 0.31742 0.91467 0.90715 0.0
C33 C 0.39147 0.85452 0.88256 0.0
O34 O 0.38251 0.84074 0.86669 0.0
O35 O 0.3258 0.85013 0.90039 0.0
O36 O 0.28841 0.8588 0.89501 0.0
O37 O 0.3488 0.89939 0.84437 0.0
O38 O 0.31482 0.88474 0.85373 0.0
C39 C 0.30425 0.84685 0.90463 0.0
C40 C 0.3266 0.89855 0.84104 0.0
O41 O 0.37891 0.8702 0.89067 0.0
Mg42 Mg 0.15876 0.12696 0.37452 0.0
O43 O 0.16591 0.1007 0.40365 0.0
O44 O 0.2044 0.09616 0.40558 0.0
Mg45 Mg 0.22183 0.11808 0.37719 0.0
C46 C 0.1839 0.09155 0.41278 0.0
C47 C 0.1076 0.11434 0.38603 0.0
O48 O 0.11573 0.09517 0.37846 0.0
O49 O 0.17175 0.15445 0.39991 0.0
O50 O 0.21009 0.14907 0.39771 0.0
O51 O 0.15724 0.1006 0.34567 0.0
O52 O 0.1892 0.11776 0.35725 0.0
C53 C 0.19255 0.16016 0.40504 0.0
C54 C 0.17955 0.10264 0.34436 0.0
O55 O 0.12129 0.13088 0.3873 0.0
Mg56 Mg 0.69057 0.84932 0.91241 0.0
O57 O 0.69828 0.88105 0.93385 0.0
O58 O 0.73676 0.88355 0.9379 0.0
Mg59 Mg 0.75364 0.85351 0.91966 0.0
C60 C 0.71635 0.89114 0.94146 0.0
C61 C 0.6398 0.84486 0.89835 0.0
O62 O 0.64924 0.82597 0.8916 0.0
O63 O 0.70248 0.86663 0.87783 0.0
O64 O 0.74099 0.8666 0.88304 0.0
O65 O 0.69021 0.82931 0.94641 0.0
O66 O 0.72136 0.83481 0.92402 0.0
C67 C 0.72301 0.87086 0.87034 0.0
C68 C 0.71225 0.82643 0.94312 0.0
O69 O 0.6528 0.85975 0.90742 0.0
Mg70 Mg 0.80941 0.1505 0.41131 0.0
O71 O 0.80252 0.11987 0.43484 0.0
O72 O 0.76414 0.11675 0.43934 0.0
Mg73 Mg 0.74653 0.1457 0.41993 0.0
C74 C 0.78474 0.10976 0.44313 0.0
C75 C 0.86256 0.15405 0.41003 0.0
O76 O 0.85607 0.17419 0.41621 0.0
O77 O 0.79706 0.13136 0.37816 0.0
O78 O 0.75861 0.13114 0.38369 0.0
O79 O 0.81038 0.17254 0.44371 0.0
O80 O 0.77858 0.16526 0.42302 0.0
C81 C 0.77655 0.12653 0.37108 0.0
C82 C 0.78818 0.17494 0.44116 0.0
O83 O 0.84703 0.13947 0.40611 0.0
Mg84 Mg 0.69289 0.14616 0.08649 0.0
O85 O 0.69903 0.11561 0.06234 0.0
O86 O 0.73734 0.11286 0.05684 0.0
Mg87 Mg 0.75553 0.14153 0.07593 0.0
C88 C 0.71672 0.10571 0.05351 0.0
C89 C 0.64172 0.15237 0.09699 0.0
O90 O 0.65081 0.17234 0.09862 0.0
O91 O 0.70605 0.12667 0.11913 0.0
O92 O 0.7443 0.12643 0.11213 0.0
O93 O 0.69099 0.16883 0.05471 0.0
O94 O 0.72339 0.16095 0.07408 0.0
C95 C 0.72679 0.12166 0.12531 0.0
C96 C 0.71324 0.17118 0.05665 0.0
O97 O 0.65511 0.13606 0.09259 0.0
Mg98 Mg 0.80863 0.85309 0.58455 0.0
O99 O 0.80291 0.88455 0.56174 0.0
O100 O 0.76475 0.88753 0.55539 0.0
Mg101 Mg 0.74618 0.85819 0.5728 0.0
C102 C 0.78543 0.89478 0.55292 0.0
C103 C 0.85969 0.84709 0.59724 0.0
O104 O 0.85076 0.82709 0.59935 0.0
O105 O 0.79477 0.87133 0.61781 0.0
O106 O 0.75671 0.87193 0.60981 0.0
O107 O 0.81093 0.83175 0.55159 0.0
O108 O 0.77833 0.83884 0.57094 0.0
C109 C 0.77389 0.87616 0.62366 0.0
C110 C 0.78864 0.82941 0.55308 0.0
O111 O 0.84628 0.8631 0.59178 0.0
Mg112 Mg 0.8412 0.62071 0.11609 0.0
O113 O 0.83457 0.59372 0.08755 0.0
O114 O 0.79618 0.59004 0.08338 0.0
Mg115 Mg 0.77827 0.61483 0.10826 0.0
C116 C 0.8169 0.58453 0.07783 0.0
C117 C 0.89201 0.63574 0.11741 0.0
O118 O 0.88181 0.64954 0.13242 0.0
O119 O 0.83218 0.64799 0.08875 0.0
O120 O 0.79375 0.64293 0.08556 0.0
O121 O 0.83825 0.59524 0.14561 0.0
O122 O 0.809 0.61497 0.13142 0.0
C123 C 0.81241 0.65312 0.07988 0.0
C124 C 0.81627 0.59972 0.14575 0.0
O125 O 0.87966 0.62144 0.10646 0.0
Mg126 Mg 0.65677 0.37876 0.61608 0.0
O127 O 0.66543 0.40702 0.58965 0.0
O128 O 0.70393 0.41182 0.59039 0.0
Mg129 Mg 0.71992 0.38768 0.61749 0.0
C130 C 0.68381 0.41689 0.58242 0.0
C131 C 0.60856 0.35842 0.60261 0.0
O132 O 0.61915 0.34053 0.61058 0.0
O133 O 0.67087 0.35301 0.58912 0.0
O134 O 0.709 0.35868 0.59342 0.0
O135 O 0.654 0.40303 0.6469 0.0
O136 O 0.68638 0.38637 0.63557 0.0
C137 C 0.69196 0.34801 0.58429 0.0
C138 C 0.67621 0.40065 0.64914 0.0
O139 O 0.61978 0.37658 0.60153 0.0
Mg140 Mg 0.84448 0.36772 0.87285 0.0
O141 O 0.83747 0.3982 0.89684 0.0
O142 O 0.79926 0.40453 0.89627 0.0
Mg143 Mg 0.78178 0.37853 0.87259 0.0
C144 C 0.81971 0.40942 0.90335 0.0
C145 C 0.89517 0.38203 0.88458 0.0
O146 O 0.88692 0.4005 0.87529 0.0
O147 O 0.8305 0.34472 0.90256 0.0
O148 O 0.79253 0.35172 0.89951 0.0
O149 O 0.84704 0.38945 0.83999 0.0
O150 O 0.81452 0.37436 0.853 0.0
C151 C 0.80949 0.34122 0.90897 0.0
C152 C 0.82479 0.38722 0.83787 0.0
O153 O 0.88169 0.36543 0.88693 0.0
Mg154 Mg 0.65575 0.62986 0.37279 0.0
O155 O 0.66488 0.60157 0.39884 0.0
O156 O 0.70319 0.59608 0.39699 0.0
Mg157 Mg 0.71868 0.62056 0.36989 0.0
C158 C 0.6832 0.59131 0.40548 0.0
C159 C 0.60584 0.61529 0.38708 0.0
O160 O 0.61407 0.59665 0.37815 0.0
O161 O 0.67052 0.65546 0.3996 0.0
O162 O 0.7085 0.64921 0.39474 0.0
O163 O 0.65295 0.60536 0.342 0.0
O164 O 0.68491 0.6231 0.3523 0.0
C165 C 0.69176 0.66003 0.40425 0.0
C166 C 0.67489 0.60877 0.3387 0.0
O167 O 0.61915 0.6321 0.38842 0.0
Mg168 Mg 0.19398 0.35274 0.91281 0.0
O169 O 0.20015 0.38378 0.93606 0.0
O170 O 0.23837 0.38668 0.94197 0.0
Mg171 Mg 0.25652 0.35724 0.9241 0.0
C172 C 0.21772 0.39394 0.94476 0.0
C173 C 0.14138 0.34832 0.90906 0.0
O174 O 0.14848 0.32829 0.91495 0.0
O175 O 0.20775 0.37128 0.87978 0.0
O176 O 0.24592 0.37139 0.88724 0.0
O177 O 0.1917 0.33091 0.94533 0.0
O178 O 0.22425 0.33795 0.92589 0.0
C179 C 0.2286 0.37593 0.87368 0.0
C180 C 0.21392 0.32821 0.94353 0.0
O181 O 0.15647 0.36349 0.90605 0.0
Mg182 Mg 0.30742 0.64839 0.41081 0.0
O183 O 0.30121 0.61711 0.43338 0.0
O184 O 0.26304 0.61342 0.43921 0.0
Mg185 Mg 0.24477 0.64231 0.42024 0.0
C186 C 0.28386 0.60668 0.44212 0.0
C187 C 0.36049 0.65276 0.40895 0.0
O188 O 0.35373 0.67285 0.41506 0.0
O189 O 0.29507 0.62987 0.37733 0.0
O190 O 0.2567 0.62877 0.38338 0.0
O191 O 0.30832 0.66973 0.44375 0.0
O192 O 0.27645 0.66246 0.42316 0.0
C193 C 0.27458 0.62483 0.37039 0.0
C194 C 0.28608 0.67196 0.44139 0.0
O195 O 0.34516 0.63797 0.40515 0.0
Mg196 Mg 0.19018 0.6502 0.08499 0.0
O197 O 0.19722 0.61978 0.06105 0.0
O198 O 0.23541 0.61845 0.05427 0.0
Mg199 Mg 0.2526 0.64816 0.07266 0.0
C200 C 0.21501 0.61049 0.05171 0.0
C201 C 0.14047 0.65055 0.10485 0.0
O202 O 0.14934 0.66891 0.1138 0.0
O203 O 0.20516 0.63175 0.1174 0.0
O204 O 0.2432 0.63294 0.10946 0.0
O205 O 0.18628 0.67217 0.05286 0.0
O206 O 0.21952 0.66626 0.07154 0.0
C207 C 0.22621 0.62765 0.12314 0.0
C208 C 0.20843 0.67561 0.05413 0.0
O209 O 0.15341 0.63792 0.09233 0.0
Mg210 Mg 0.30805 0.35116 0.58469 0.0
O211 O 0.3019 0.38297 0.56284 0.0
O212 O 0.26365 0.3867 0.55744 0.0
Mg213 Mg 0.24532 0.35767 0.57601 0.0
C214 C 0.28444 0.39351 0.55445 0.0
C215 C 0.35995 0.34409 0.59084 0.0
O216 O 0.35126 0.32393 0.58953 0.0
O217 O 0.29619 0.36921 0.61874 0.0
O218 O 0.2578 0.37061 0.61288 0.0
O219 O 0.30847 0.33061 0.55116 0.0
O220 O 0.2769 0.33763 0.57234 0.0
C221 C 0.27576 0.37426 0.62585 0.0
C222 C 0.28623 0.32861 0.55367 0.0
O223 O 0.34612 0.36054 0.59011 0.0
H224 H 0.33712 0.18216 0.06329 0.0
H225 H 0.32578 0.21322 0.03709 0.0
H226 H 0.25398 0.19373 0.04351 0.0
H227 H 0.26504 0.16269 0.06884 0.0
H228 H 0.26261 0.20465 -0.00094 0.0
H229 H 0.27851 0.23665 0.07752 0.0
H230 H 0.30282 0.24539 0.1129 0.0
H231 H 0.3514 0.27957 0.06737 0.0
H232 H 0.32749 0.27078 0.03167 0.0
H233 H 0.19573 0.29976 0.9768 0.0
H234 H 0.21632 0.27116 -0.00033 0.0
H235 H 0.28144 0.29382 0.97037 0.0
H236 H 0.26099 0.32222 0.94705 0.0
H237 H 0.28139 0.28222 0.02241 0.0
H238 H 0.26182 0.25269 0.94434 0.0
H239 H 0.23554 0.24467 0.91033 0.0
H240 H 0.19189 0.20601 0.957 0.0
H241 H 0.21773 0.21411 0.99139 0.0
C242 C 0.31896 0.18439 0.05888 0.0
C243 C 0.30201 0.16996 0.06831 0.0
C244 C 0.31249 0.20222 0.04404 0.0
C245 C 0.28898 0.20597 0.03857 0.0
C246 C 0.27222 0.1912 0.04743 0.0
C247 C 0.27862 0.17344 0.06205 0.0
C248 C 0.28132 0.2254 0.0241 0.0
C249 C 0.26669 0.22159 0.00427 0.0
C250 C 0.28701 0.24755 0.0305 0.0
C251 C 0.30138 0.25282 0.05191 0.0
C252 C 0.29447 0.24587 0.07504 0.0
C253 C 0.30816 0.25086 0.09515 0.0
C254 C 0.32868 0.26296 0.09237 0.0
C255 C 0.33553 0.27015 0.06949 0.0
C256 C 0.32192 0.26518 0.04931 0.0
C257 C 0.21446 0.29894 0.97551 0.0
C258 C 0.22669 0.31324 0.96002 0.0
C259 C 0.22618 0.28256 0.98854 0.0
C260 C 0.25034 0.28033 0.9865 0.0
C261 C 0.26278 0.29533 0.97215 0.0
C262 C 0.25103 0.31154 0.95883 0.0
C263 C 0.26223 0.26131 0.99802 0.0
C264 C 0.27764 0.26524 0.01711 0.0
C265 C 0.25708 0.23923 0.99116 0.0
C266 C 0.24161 0.23417 0.97048 0.0
C267 C 0.24651 0.24264 0.9474 0.0
C268 C 0.23172 0.23805 0.92804 0.0
C269 C 0.21203 0.22488 0.93152 0.0
C270 C 0.20713 0.21623 0.95434 0.0
C271 C 0.22186 0.22079 0.97377 0.0
H272 H 0.20059 0.22134 0.91651 0.0
H273 H 0.33925 0.26681 0.10796 0.0
H274 H 0.23887 0.67754 0.44286 0.0
H275 H 0.2169 0.70307 0.46832 0.0
H276 H 0.2804 0.72407 0.50273 0.0
H277 H 0.30235 0.69791 0.47802 0.0
H278 H 0.24764 0.72167 0.53489 0.0
H279 H 0.25398 0.75356 0.45501 0.0
H280 H 0.24882 0.75431 0.41085 0.0
H281 H 0.17505 0.74825 0.41966 0.0
H282 H 0.17982 0.7472 0.4639 0.0
H283 H 0.23417 0.83178 0.56835 0.0
H284 H 0.24324 0.79876 0.54511 0.0
H285 H 0.1704 0.78358 0.53874 0.0
H286 H 0.16088 0.8169 0.56258 0.0
H287 H 0.19999 0.77921 0.49409 0.0
H288 H 0.19539 0.75396 0.57594 0.0
H289 H 0.20301 0.75596 0.61965 0.0
H290 H 0.27632 0.75197 0.60647 0.0
H291 H 0.26916 0.7503 0.56265 0.0
C292 C 0.24814 0.68728 0.45612 0.0
C293 C 0.2724 0.6857 0.45836 0.0
C294 C 0.23554 0.70204 0.47055 0.0
C295 C 0.24701 0.71583 0.48714 0.0
C296 C 0.27113 0.71364 0.49003 0.0
C297 C 0.28369 0.69869 0.47585 0.0
C298 C 0.23427 0.7332 0.50083 0.0
C299 C 0.23724 0.73423 0.52593 0.0
C300 C 0.22017 0.74933 0.48927 0.0
C301 C 0.21728 0.75002 0.46272 0.0
C302 C 0.23668 0.75222 0.44751 0.0
C303 C 0.23382 0.75273 0.42248 0.0
C304 C 0.21162 0.75125 0.41245 0.0
C305 C 0.19223 0.74934 0.42745 0.0
C306 C 0.195 0.7488 0.4525 0.0
C307 C 0.21991 0.82163 0.56198 0.0
C308 C 0.19674 0.82697 0.56759 0.0
C309 C 0.22521 0.80269 0.5487 0.0
C310 C 0.20752 0.78863 0.54055 0.0
C311 C 0.18427 0.79425 0.54506 0.0
C312 C 0.17889 0.81325 0.55864 0.0
C313 C 0.21395 0.76788 0.5279 0.0
C314 C 0.20988 0.76627 0.50305 0.0
C315 C 0.22733 0.75138 0.5396 0.0
C316 C 0.23172 0.75212 0.56598 0.0
C317 C 0.21314 0.75366 0.58235 0.0
C318 C 0.21738 0.75471 0.60715 0.0
C319 C 0.24014 0.75412 0.61583 0.0
C320 C 0.2587 0.75242 0.59972 0.0
C321 C 0.25456 0.75139 0.5749 0.0
H322 H 0.24338 0.75494 0.63504 0.0
H323 H 0.20944 0.75165 0.39307 0.0
H324 H 0.26011 0.83281 0.91331 0.0
H325 H 0.24735 0.80274 0.93925 0.0
H326 H 0.31835 0.78885 0.95874 0.0
H327 H 0.33153 0.81897 0.93215 0.0
H328 H 0.29438 0.75087 0.95027 0.0
H329 H 0.28319 0.81547 -0.0018 0.0
H330 H 0.27027 0.85356 0.00763 0.0
H331 H 0.19939 0.8344 0.99585 0.0
H332 H 0.2119 0.79626 0.98599 0.0
H333 H 0.25498 0.68445 0.05088 0.0
H334 H 0.27398 0.71193 0.02516 0.0
H335 H 0.20796 0.7287 0.99339 0.0
H336 H 0.18881 0.70103 0.01883 0.0
H337 H 0.23297 0.76538 0.01103 0.0
H338 H 0.24559 0.70082 0.961 0.0
H339 H 0.25938 0.66282 0.95255 0.0
H340 H 0.329 0.68222 0.97041 0.0
H341 H 0.31556 0.72029 0.97931 0.0
C342 C 0.27314 0.8235 0.92311 0.0
C343 C 0.29689 0.82848 0.92075 0.0
C344 C 0.26575 0.80629 0.93803 0.0
C345 C 0.28185 0.7938 0.95128 0.0
C346 C 0.30563 0.79839 0.94876 0.0
C347 C 0.31311 0.81564 0.93363 0.0
C348 C 0.27348 0.77595 0.96755 0.0
C349 C 0.28128 0.7541 0.96388 0.0
C350 C 0.25617 0.78012 0.98512 0.0
C351 C 0.24852 0.80303 0.99119 0.0
C352 C 0.26486 0.81941 0.99745 0.0
C353 C 0.2576 0.84101 0.0029 0.0
C354 C 0.23403 0.84641 0.00229 0.0
C355 C 0.21765 0.8302 0.9963 0.0
C356 C 0.22481 0.80858 0.99081 0.0
C357 C 0.24453 0.69366 0.03813 0.0
C358 C 0.22036 0.69049 0.03688 0.0
C359 C 0.25544 0.70939 0.02346 0.0
C360 C 0.24236 0.72232 0.0074 0.0
C361 C 0.21834 0.71887 0.00571 0.0
C362 C 0.20745 0.703 0.02019 0.0
C363 C 0.25346 0.74032 0.99332 0.0
C364 C 0.24621 0.76222 0.99754 0.0
C365 C 0.27142 0.73619 0.97651 0.0
C366 C 0.27952 0.71334 0.97109 0.0
C367 C 0.2638 0.69694 0.96335 0.0
C368 C 0.27156 0.67539 0.95843 0.0
C369 C 0.29504 0.67009 0.96102 0.0
C370 C 0.31082 0.68634 0.96846 0.0
C371 C 0.30314 0.7079 0.97342 0.0
H372 H 0.30101 0.6534 0.9572 0.0
H373 H 0.22845 0.86314 0.00651 0.0
H374 H 0.23959 0.32016 0.55539 0.0
H375 H 0.2171 0.29632 0.52848 0.0
H376 H 0.27844 0.28384 0.48598 0.0
H377 H 0.30095 0.3081 0.51247 0.0
H378 H 0.24101 0.28868 0.45755 0.0
H379 H 0.2605 0.24759 0.52997 0.0
H380 H 0.26105 0.24082 0.57385 0.0
H381 H 0.18654 0.24082 0.57525 0.0
H382 H 0.18557 0.24788 0.5314 0.0
H383 H 0.23334 0.18249 0.40879 0.0
H384 H 0.24173 0.2156 0.43226 0.0
H385 H 0.17088 0.21758 0.45719 0.0
H386 H 0.16212 0.18408 0.43338 0.0
H387 H 0.20463 0.22197 0.49416 0.0
H388 H 0.18634 0.25598 0.41925 0.0
H389 H 0.18723 0.26119 0.37516 0.0
H390 H 0.2606 0.27332 0.37802 0.0
H391 H 0.26024 0.26785 0.4221 0.0
C392 C 0.24824 0.31267 0.54008 0.0
C393 C 0.2721 0.31598 0.53611 0.0
C394 C 0.23535 0.29893 0.5248 0.0
C395 C 0.24615 0.28805 0.50543 0.0
C396 C 0.26975 0.29206 0.50084 0.0
C397 C 0.28262 0.30587 0.51605 0.0
C398 C 0.23337 0.27152 0.49068 0.0
C399 C 0.23308 0.27408 0.46553 0.0
C400 C 0.22238 0.2528 0.50117 0.0
C401 C 0.22296 0.24854 0.52749 0.0
C402 C 0.24424 0.24633 0.53968 0.0
C403 C 0.24463 0.24241 0.56453 0.0
C404 C 0.22385 0.24047 0.57734 0.0
C405 C 0.20263 0.24238 0.56532 0.0
C406 C 0.20214 0.24634 0.54047 0.0
C407 C 0.21942 0.18989 0.41918 0.0
C408 C 0.19703 0.18056 0.41925 0.0
C409 C 0.22425 0.20896 0.43246 0.0
C410 C 0.20687 0.21918 0.44621 0.0
C411 C 0.18447 0.20997 0.44652 0.0
C412 C 0.17951 0.19089 0.43292 0.0
C413 C 0.21289 0.23883 0.46102 0.0
C414 C 0.21199 0.23685 0.48619 0.0
C415 C 0.22293 0.25799 0.45054 0.0
C416 C 0.22326 0.2614 0.42401 0.0
C417 C 0.2027 0.2596 0.41047 0.0
C418 C 0.2031 0.26263 0.38547 0.0
C419 C 0.22396 0.26756 0.37379 0.0
C420 C 0.24445 0.26951 0.3871 0.0
C421 C 0.24415 0.26648 0.4121 0.0
H422 H 0.22424 0.2699 0.35444 0.0
H423 H 0.22418 0.23743 0.59658 0.0
H424 H 0.83023 0.69479 0.08589 0.0
H425 H 0.8175 0.72847 0.06457 0.0
H426 H 0.77666 0.68812 0.01616 0.0
H427 H 0.78838 0.65479 0.03812 0.0
H428 H 0.81686 0.74709 0.02133 0.0
H429 H 0.72466 0.70933 0.00772 0.0
H430 H 0.69911 0.68192 0.02745 0.0
H431 H 0.73434 0.69236 0.09475 0.0
H432 H 0.75986 0.72007 0.07553 0.0
H433 H 0.75347 0.80628 0.93404 0.0
H434 H 0.77481 0.78101 0.96016 0.0
H435 H 0.72513 0.79248 0.01716 0.0
H436 H 0.70289 0.81682 0.99036 0.0
H437 H 0.73113 0.75193 0.01468 0.0
H438 H 0.78477 0.8111 0.01884 0.0
H439 H 0.8101 0.84123 0.0042 0.0
H440 H 0.85138 0.79388 0.96526 0.0
H441 H 0.8261 0.76348 0.97937 0.0
C442 C 0.81903 0.69318 0.07029 0.0
C443 C 0.81007 0.67235 0.06369 0.0
C444 C 0.81172 0.71238 0.05818 0.0
C445 C 0.79559 0.71085 0.03923 0.0
C446 C 0.78857 0.68977 0.03118 0.0
C447 C 0.79541 0.67072 0.04358 0.0
C448 C 0.78435 0.73106 0.02922 0.0
C449 C 0.79813 0.74824 0.01988 0.0
C450 C 0.75987 0.73303 0.0283 0.0
C451 C 0.74429 0.71665 0.04011 0.0
C452 C 0.72686 0.70587 0.02676 0.0
C453 C 0.7124 0.69026 0.03785 0.0
C454 C 0.71514 0.68536 0.06232 0.0
C455 C 0.73228 0.69612 0.07578 0.0
C456 C 0.74676 0.71177 0.06479 0.0
C457 C 0.74728 0.80367 0.95226 0.0
C458 C 0.72648 0.81343 0.96016 0.0
C459 C 0.75963 0.78933 0.96731 0.0
C460 C 0.75184 0.78497 0.99085 0.0
C461 C 0.73151 0.79549 -0.00092 0.0
C462 C 0.71882 0.80943 0.98379 0.0
C463 C 0.76359 0.76781 0.00587 0.0
C464 C 0.74987 0.75109 0.01625 0.0
C465 C 0.78806 0.7668 0.00853 0.0
C466 C 0.80343 0.78501 7e-05 0.0
C467 C 0.79916 0.80712 0.00703 0.0
C468 C 0.81352 0.82425 -0.00116 0.0
C469 C 0.83231 0.81948 0.98378 0.0
C470 C 0.83681 0.79755 0.97693 0.0
C471 C 0.82249 0.78035 0.98505 0.0
H472 H 0.8434 0.83276 0.97745 0.0
H473 H 0.70395 0.67324 0.07086 0.0
H474 H 0.74099 0.18082 0.44233 0.0
H475 H 0.71898 0.20612 0.46801 0.0
H476 H 0.78243 0.22683 0.50273 0.0
H477 H 0.80442 0.20087 0.47782 0.0
H478 H 0.74963 0.22373 0.53488 0.0
H479 H 0.7557 0.25691 0.45546 0.0
H480 H 0.75032 0.25824 0.41134 0.0
H481 H 0.67663 0.2517 0.42042 0.0
H482 H 0.68162 0.25007 0.46461 0.0
H483 H 0.73481 0.33265 0.57213 0.0
H484 H 0.74461 0.29977 0.54899 0.0
H485 H 0.67199 0.28618 0.5375 0.0
H486 H 0.66174 0.31944 0.56106 0.0
H487 H 0.70172 0.28173 0.49522 0.0
H488 H 0.69694 0.25522 0.57631 0.0
H489 H 0.70421 0.25623 0.62012 0.0
H490 H 0.7776 0.25218 0.60751 0.0
H491 H 0.77081 0.25148 0.5636 0.0
C492 C 0.75024 0.19047 0.45569 0.0
C493 C 0.7745 0.18882 0.458 0.0
C494 C 0.73762 0.20509 0.47024 0.0
C495 C 0.74907 0.2187 0.48702 0.0
C496 C 0.77318 0.21653 0.4899 0.0
C497 C 0.78576 0.2017 0.47559 0.0
C498 C 0.73626 0.23582 0.50105 0.0
C499 C 0.73921 0.23641 0.52617 0.0
C500 C 0.72206 0.25205 0.48982 0.0
C501 C 0.71905 0.2531 0.46329 0.0
C502 C 0.73837 0.2556 0.44803 0.0
C503 C 0.73539 0.25643 0.42302 0.0
C504 C 0.71315 0.25498 0.41308 0.0
C505 C 0.69384 0.25277 0.42814 0.0
C506 C 0.69673 0.2519 0.45316 0.0
C507 C 0.72077 0.32284 0.5647 0.0
C508 C 0.69741 0.32869 0.56865 0.0
C509 C 0.72647 0.30395 0.55151 0.0
C510 C 0.70904 0.29039 0.54189 0.0
C511 C 0.68568 0.29642 0.54497 0.0
C512 C 0.67988 0.31539 0.55841 0.0
C513 C 0.71576 0.26993 0.52882 0.0
C514 C 0.7117 0.26871 0.50393 0.0
C515 C 0.72918 0.25326 0.54019 0.0
C516 C 0.73335 0.2534 0.56663 0.0
C517 C 0.71464 0.25468 0.58286 0.0
C518 C 0.71867 0.25518 0.60772 0.0
C519 C 0.74135 0.25429 0.61659 0.0
C520 C 0.76004 0.25285 0.60061 0.0
C521 C 0.7561 0.25237 0.57573 0.0
H522 H 0.74444 0.2547 0.63584 0.0
H523 H 0.71088 0.25562 0.39371 0.0
H524 H 0.76727 0.33232 0.92862 0.0
H525 H 0.75686 0.30275 0.95616 0.0
H526 H 0.82822 0.2812 0.95885 0.0
H527 H 0.83893 0.31087 0.93047 0.0
H528 H 0.79924 0.24639 0.95297 0.0
H529 H 0.80427 0.30636 0.00762 0.0
H530 H 0.79854 0.34432 0.02324 0.0
H531 H 0.72479 0.33425 0.02406 0.0
H532 H 0.73002 0.29634 0.00808 0.0
H533 H 0.76047 0.1752 0.05185 0.0
H534 H 0.78165 0.20274 0.02804 0.0
H535 H 0.71691 0.22924 0.00178 0.0
H536 H 0.69555 0.20144 0.02507 0.0
H537 H 0.74936 0.2609 0.02423 0.0
H538 H 0.74611 0.20185 0.9644 0.0
H539 H 0.75327 0.16375 0.94983 0.0
H540 H 0.82642 0.17219 0.96144 0.0
H541 H 0.81963 0.21028 0.97643 0.0
C542 C 0.78092 0.32147 0.93509 0.0
C543 C 0.804 0.32402 0.92726 0.0
C544 C 0.77491 0.30459 0.95103 0.0
C545 C 0.79179 0.28994 0.95986 0.0
C546 C 0.81493 0.29242 0.95233 0.0
C547 C 0.82103 0.30942 0.93621 0.0
C548 C 0.7846 0.27158 0.97608 0.0
C549 C 0.7888 0.24956 0.96889 0.0
C550 C 0.77086 0.2757 0.99678 0.0
C551 C 0.76755 0.2985 0.00652 0.0
C552 C 0.78681 0.31228 0.01097 0.0
C553 C 0.78366 0.33379 0.01991 0.0
C554 C 0.76131 0.3417 0.02461 0.0
C555 C 0.74208 0.3281 0.02041 0.0
C556 C 0.74514 0.30657 0.01145 0.0
C557 C 0.75071 0.18659 0.0407 0.0
C558 C 0.7263 0.18608 0.04033 0.0
C559 C 0.76287 0.20234 0.02715 0.0
C560 C 0.7508 0.218 0.01329 0.0
C561 C 0.72649 0.21726 0.01245 0.0
C562 C 0.71434 0.20131 0.02567 0.0
C563 C 0.76333 0.23593 0.00056 0.0
C564 C 0.76016 0.25781 0.00855 0.0
C565 C 0.77827 0.23165 0.98088 0.0
C566 C 0.78233 0.2088 0.97183 0.0
C567 C 0.76369 0.1955 0.96409 0.0
C568 C 0.76769 0.17393 0.9557 0.0
C569 C 0.79027 0.16552 0.95479 0.0
C570 C 0.80892 0.17871 0.9622 0.0
C571 C 0.80502 0.20029 0.97063 0.0
H572 H 0.79333 0.14882 0.94828 0.0
H573 H 0.75891 0.35836 0.03153 0.0
H574 H 0.74158 0.82344 0.55029 0.0
H575 H 0.72039 0.79852 0.52354 0.0
H576 H 0.78479 0.77856 0.49025 0.0
H577 H 0.80604 0.8042 0.51631 0.0
H578 H 0.75246 0.78208 0.45726 0.0
H579 H 0.75753 0.74749 0.53574 0.0
H580 H 0.75185 0.74519 0.57977 0.0
H581 H 0.67821 0.75178 0.57031 0.0
H582 H 0.68349 0.7544 0.52622 0.0
H583 H 0.73506 0.67443 0.41607 0.0
H584 H 0.74581 0.70651 0.44006 0.0
H585 H 0.67363 0.72109 0.45302 0.0
H586 H 0.66242 0.68863 0.42864 0.0
H587 H 0.70338 0.72381 0.49485 0.0
H588 H 0.69961 0.75253 0.41455 0.0
H589 H 0.70715 0.75262 0.37077 0.0
H590 H 0.78053 0.75503 0.38402 0.0
H591 H 0.77345 0.75462 0.42789 0.0
C592 C 0.75124 0.81408 0.53702 0.0
C593 C 0.77554 0.81584 0.53546 0.0
C594 C 0.73908 0.79966 0.52185 0.0
C595 C 0.75101 0.78633 0.50518 0.0
C596 C 0.77519 0.78863 0.50301 0.0
C597 C 0.78734 0.80328 0.51796 0.0
C598 C 0.73857 0.7694 0.49059 0.0
C599 C 0.74181 0.76931 0.46551 0.0
C600 C 0.72412 0.75305 0.50126 0.0
C601 C 0.72092 0.75141 0.52773 0.0
C602 C 0.74014 0.74861 0.54307 0.0
C603 C 0.73699 0.74722 0.56803 0.0
C604 C 0.71469 0.74841 0.57784 0.0
C605 C 0.69548 0.75092 0.5627 0.0
C606 C 0.69853 0.75234 0.53772 0.0
C607 C 0.72131 0.68431 0.42398 0.0
C608 C 0.69779 0.67897 0.42023 0.0
C609 C 0.72756 0.70274 0.43766 0.0
C610 C 0.71053 0.71635 0.44795 0.0
C611 C 0.68702 0.71082 0.44501 0.0
C612 C 0.68066 0.69231 0.43111 0.0
C613 C 0.7178 0.73625 0.46171 0.0
C614 C 0.71363 0.73689 0.48659 0.0
C615 C 0.73164 0.75295 0.45093 0.0
C616 C 0.73598 0.75344 0.42453 0.0
C617 C 0.71736 0.75294 0.40813 0.0
C618 C 0.72155 0.75306 0.3833 0.0
C619 C 0.7443 0.7538 0.37462 0.0
C620 C 0.76291 0.75446 0.39077 0.0
C621 C 0.75881 0.75432 0.41562 0.0
H622 H 0.74752 0.75389 0.35538 0.0
H623 H 0.71229 0.74733 0.59716 0.0
H624 H 0.2956 0.04388 0.09133 0.0
H625 H 0.29865 0.01317 0.06269 0.0
H626 H 0.34838 0.05077 0.02105 0.0
H627 H 0.34654 0.08081 0.05071 0.0
H628 H 0.28681 0.00949 0.02043 0.0
H629 H 0.38226 0.01888 0.98675 0.0
H630 H 0.42059 0.0292 0.00311 0.0
H631 H 0.39832 0.01085 0.07427 0.0
H632 H 0.35997 0.00014 0.05831 0.0
H633 H 0.29446 0.95402 0.9104 0.0
H634 H 0.29734 0.98176 0.94242 0.0
H635 H 0.34803 0.94108 0.97907 0.0
H636 H 0.34622 0.91397 0.94619 0.0
H637 H 0.35997 0.98088 0.98501 0.0
H638 H 0.2884 0.94328 0.99616 0.0
H639 H 0.25021 0.92784 0.98512 0.0
H640 H 0.22516 0.9934 0.96906 0.0
H641 H 0.26332 0.00921 0.9797 0.0
C642 C 0.30742 0.04539 0.07622 0.0
C643 C 0.3209 0.06461 0.07321 0.0
C644 C 0.30911 0.02788 0.0598 0.0
C645 C 0.32389 0.02945 0.03969 0.0
C646 C 0.33734 0.04877 0.03669 0.0
C647 C 0.33617 0.06602 0.05355 0.0
C648 C 0.32418 0.01143 0.02128 0.0
C649 C 0.30286 0.00319 0.01284 0.0
C650 C 0.34505 0.00271 0.01162 0.0
C651 C 0.36816 0.00891 0.02134 0.0
C652 C 0.38557 0.01696 0.00587 0.0
C653 C 0.4073 0.0229 0.01508 0.0
C654 C 0.41186 0.02075 0.03972 0.0
C655 C 0.39474 0.01259 0.0552 0.0
C656 C 0.37299 0.00661 0.04609 0.0
C657 C 0.30631 0.9511 0.92524 0.0
C658 C 0.31999 0.93182 0.92596 0.0
C659 C 0.30785 0.96688 0.94362 0.0
C660 C 0.32245 0.96328 0.96356 0.0
C661 C 0.33658 0.94425 0.96396 0.0
C662 C 0.33551 0.92874 0.94521 0.0
C663 C 0.32262 0.97919 0.9841 0.0
C664 C 0.34398 0.98708 0.99282 0.0
C665 C 0.30181 0.98681 0.9949 0.0
C666 C 0.27879 0.97741 0.98854 0.0
C667 C 0.27479 0.95439 0.99013 0.0
C668 C 0.25315 0.94557 0.98396 0.0
C669 C 0.23529 0.95962 0.97634 0.0
C670 C 0.23902 0.98253 0.97494 0.0
C671 C 0.26065 0.99144 0.98106 0.0
H672 H 0.21854 0.95276 0.97157 0.0
H673 H 0.42868 0.02537 0.04682 0.0
H674 H 0.14361 0.9318 0.56654 0.0
H675 H 0.13958 0.96321 0.53878 0.0
H676 H 0.21378 0.97266 0.53961 0.0
H677 H 0.21799 0.94162 0.56743 0.0
H678 H 0.19134 0.01158 0.54421 0.0
H679 H 0.18686 0.94696 0.49255 0.0
H680 H 0.1708 0.91115 0.47877 0.0
H681 H 0.1043 0.9417 0.46769 0.0
H682 H 0.11991 0.97765 0.48171 0.0
H683 H 0.21792 0.07154 0.43935 0.0
H684 H 0.21346 0.04337 0.47053 0.0
H685 H 0.13914 0.04521 0.46154 0.0
H686 H 0.14339 0.07345 0.43002 0.0
H687 H 0.15613 0.00256 0.46312 0.0
H688 H 0.16239 0.06843 0.51045 0.0
H689 H 0.17917 0.10415 0.52349 0.0
H690 H 0.24277 0.07132 0.54244 0.0
H691 H 0.2265 0.03543 0.52918 0.0
C692 C 0.15907 0.94056 0.56082 0.0
C693 C 0.18113 0.93412 0.5692 0.0
C694 C 0.15673 0.95848 0.54491 0.0
C695 C 0.1764 0.97018 0.53703 0.0
C696 C 0.19837 0.96389 0.54551 0.0
C697 C 0.20073 0.94605 0.56137 0.0
C698 C 0.17437 0.98894 0.51982 0.0
C699 C 0.18377 0.00958 0.52643 0.0
C700 C 0.16385 0.9865 0.4969 0.0
C701 C 0.15447 0.96491 0.48846 0.0
C702 C 0.16876 0.94599 0.48738 0.0
C703 C 0.15975 0.92568 0.47948 0.0
C704 C 0.13653 0.92413 0.47244 0.0
C705 C 0.12228 0.94291 0.4732 0.0
C706 C 0.13119 0.96326 0.48111 0.0
C707 C 0.20058 0.06607 0.44399 0.0
C708 C 0.181 0.07482 0.43216 0.0
C709 C 0.19807 0.05001 0.46193 0.0
C710 C 0.17596 0.04239 0.46853 0.0
C711 C 0.15635 0.05096 0.45675 0.0
C712 C 0.15883 0.06713 0.43881 0.0
C713 C 0.17361 0.02502 0.48731 0.0
C714 C 0.16338 0.00467 0.48104 0.0
C715 C 0.18342 0.0277 0.51053 0.0
C716 C 0.19326 0.04925 0.51865 0.0
C717 C 0.18002 0.06884 0.51723 0.0
C718 C 0.18943 0.08912 0.52469 0.0
C719 C 0.21204 0.09001 0.53375 0.0
C720 C 0.22527 0.07061 0.53541 0.0
C721 C 0.21594 0.05029 0.52796 0.0
H722 H 0.2193 0.10573 0.53951 0.0
H723 H 0.12959 0.90839 0.46632 0.0
H724 H 0.676 0.91319 0.95266 0.0
H725 H 0.67204 0.9493 0.97252 0.0
H726 H 0.74651 0.95411 0.97848 0.0
H727 H 0.75067 0.91799 0.95909 0.0
H728 H 0.7261 0.96644 0.01948 0.0
H729 H 0.716 0.98205 0.93452 0.0
H730 H 0.69752 0.97787 0.89464 0.0
H731 H 0.63214 0.99841 0.92439 0.0
H732 H 0.65019 0.00243 0.96454 0.0
H733 H 0.75047 0.07889 0.03488 0.0
H734 H 0.74588 0.0424 0.01657 0.0
H735 H 0.67158 0.0474 0.0239 0.0
H736 H 0.67593 0.0842 0.04241 0.0
H737 H 0.68652 0.02944 0.97888 0.0
H738 H 0.69794 0.01729 0.06316 0.0
H739 H 0.71701 0.02212 0.10262 0.0
H740 H 0.78027 0.99523 0.07393 0.0
H741 H 0.76168 0.99055 0.03416 0.0
C742 C 0.69155 0.92188 0.95828 0.0
C743 C 0.71367 0.91267 0.95419 0.0
C744 C 0.68924 0.94257 0.96953 0.0
C745 C 0.70899 0.95451 0.97675 0.0
C746 C 0.73103 0.94519 0.97307 0.0
C747 C 0.73336 0.92453 0.9619 0.0
C748 C 0.70696 0.97678 0.98805 0.0
C749 C 0.71757 0.98023 0.01052 0.0
C750 C 0.6952 0.99462 0.9767 0.0
C751 C 0.68437 0.99229 0.95257 0.0
C752 C 0.69764 0.9855 0.93259 0.0
C753 C 0.68726 0.98319 0.90994 0.0
C754 C 0.66366 0.9878 0.907 0.0
C755 C 0.65041 0.9948 0.92671 0.0
C756 C 0.66071 0.99711 0.94941 0.0
C757 C 0.73309 0.07242 0.03247 0.0
C758 C 0.71357 0.08447 0.04034 0.0
C759 C 0.73052 0.05149 0.02204 0.0
C760 C 0.70843 0.0421 0.01923 0.0
C761 C 0.68879 0.05437 0.02605 0.0
C762 C 0.69133 0.07536 0.03665 0.0
C763 C 0.70621 0.01913 0.00993 0.0
C764 C 0.69477 0.01555 0.98794 0.0
C765 C 0.71724 0.00113 0.02167 0.0
C766 C 0.72845 0.00373 0.04562 0.0
C767 C 0.71597 0.01256 0.06521 0.0
C768 C 0.72669 0.01525 0.08764 0.0
C769 C 0.74985 0.00902 0.09077 0.0
C770 C 0.76233 5e-05 0.07148 0.0
C771 C 0.7517 0.99735 0.04899 0.0
H772 H 0.75812 0.01112 0.10815 0.0
H773 H 0.65565 0.986 0.88945 0.0
H774 H 0.82565 0.08915 0.45535 0.0
H775 H 0.83049 0.05346 0.47591 0.0
H776 H 0.75614 0.04694 0.4816 0.0
H777 H 0.75112 0.08262 0.46157 0.0
H778 H 0.77653 0.03497 0.5226 0.0
H779 H 0.78787 0.01989 0.43746 0.0
H780 H 0.80687 0.02471 0.39794 0.0
H781 H 0.87226 0.00551 0.42869 0.0
H782 H 0.85368 0.00084 0.46849 0.0
H783 H 0.75212 0.92234 0.53475 0.0
H784 H 0.75717 0.95933 0.51782 0.0
H785 H 0.83131 0.95385 0.52646 0.0
H786 H 0.82649 0.91654 0.54358 0.0
H787 H 0.81728 0.97282 0.48169 0.0
H788 H 0.80441 0.98348 0.56589 0.0
H789 H 0.78475 0.9779 0.60491 0.0
H790 H 0.72187 0.00518 0.57575 0.0
H791 H 0.74105 0.01061 0.53642 0.0
C792 C 0.81032 0.08019 0.46111 0.0
C793 C 0.78797 0.08874 0.45669 0.0
C794 C 0.81313 0.05974 0.47277 0.0
C795 C 0.79367 0.04741 0.48004 0.0
C796 C 0.77141 0.05617 0.47616 0.0
C797 C 0.76858 0.07658 0.46462 0.0
C798 C 0.79617 0.02517 0.4913 0.0
C799 C 0.78535 0.02137 0.51359 0.0
C800 C 0.80832 0.00758 0.47991 0.0
C801 C 0.81945 0.01027 0.45599 0.0
C802 C 0.80633 0.01686 0.43582 0.0
C803 C 0.81702 0.01954 0.41337 0.0
C804 C 0.84077 0.01549 0.41082 0.0
C805 C 0.85387 0.00868 0.43071 0.0
C806 C 0.84328 0.00601 0.45321 0.0
C807 C 0.76956 0.92882 0.53294 0.0
C808 C 0.78889 0.91647 0.54073 0.0
C809 C 0.77239 0.95004 0.52331 0.0
C810 C 0.79457 0.95942 0.52124 0.0
C811 C 0.81403 0.9469 0.52805 0.0
C812 C 0.81122 0.92561 0.53785 0.0
C813 C 0.79702 0.98256 0.51255 0.0
C814 C 0.80879 0.98653 0.49085 0.0
C815 C 0.78571 0.00034 0.52443 0.0
C816 C 0.77415 0.99732 0.54814 0.0
C817 C 0.78635 0.98815 0.56774 0.0
C818 C 0.77529 0.98503 0.58993 0.0
C819 C 0.75207 0.99115 0.5928 0.0
C820 C 0.73986 0.00045 0.5735 0.0
C821 C 0.75083 0.00357 0.55126 0.0
H822 H 0.74354 0.98872 0.60999 0.0
H823 H 0.84901 0.01758 0.39343 0.0
H824 H 0.85985 0.42437 0.92472 0.0
H825 H 0.86401 0.45543 0.95296 0.0
H826 H 0.79057 0.46849 0.94787 0.0
H827 H 0.78625 0.43784 0.91959 0.0
H828 H 0.81514 0.50633 0.94568 0.0
H829 H 0.81324 0.44052 0.9957 0.0
H830 H 0.82664 0.40371 0.00943 0.0
H831 H 0.89378 0.43085 0.02562 0.0
H832 H 0.88085 0.46779 0.01168 0.0
H833 H 0.78384 0.56457 0.04997 0.0
H834 H 0.78933 0.5363 0.01906 0.0
H835 H 0.86307 0.53659 0.03234 0.0
H836 H 0.85778 0.56499 0.06357 0.0
H837 H 0.84456 0.49392 0.02873 0.0
H838 H 0.84391 0.56123 0.98321 0.0
H839 H 0.82921 0.59785 0.97043 0.0
H840 H 0.76577 0.56776 0.94625 0.0
H841 H 0.77995 0.53098 0.95922 0.0
C842 C 0.8446 0.43391 0.92954 0.0
C843 C 0.82269 0.42852 0.91994 0.0
C844 C 0.84701 0.45161 0.94574 0.0
C845 C 0.82756 0.46415 0.95265 0.0
C846 C 0.80581 0.45905 0.94276 0.0
C847 C 0.80337 0.44143 0.92664 0.0
C848 C 0.82952 0.48244 0.97045 0.0
C849 C 0.82148 0.5036 0.96387 0.0
C850 C 0.8384 0.47901 0.99396 0.0
C851 C 0.84617 0.45683 0.00236 0.0
C852 C 0.83092 0.43859 0.00199 0.0
C853 C 0.83842 0.41772 0.00985 0.0
C854 C 0.86107 0.41492 0.01831 0.0
C855 C 0.87626 0.43302 0.019 0.0
C856 C 0.86885 0.45393 0.01114 0.0
C857 C 0.80126 0.55868 0.04641 0.0
C858 C 0.82038 0.56714 0.05925 0.0
C859 C 0.80437 0.54257 0.02862 0.0
C860 C 0.82663 0.53458 0.02322 0.0
C861 C 0.84576 0.54265 0.0362 0.0
C862 C 0.84269 0.5589 0.05398 0.0
C863 C 0.82962 0.51762 0.00411 0.0
C864 C 0.8386 0.49675 0.01042 0.0
C865 C 0.82149 0.52127 0.98036 0.0
C866 C 0.81295 0.54335 0.97234 0.0
C867 C 0.82676 0.56243 0.97532 0.0
C868 C 0.81853 0.58322 0.96802 0.0
C869 C 0.79656 0.58514 0.95757 0.0
C870 C 0.78279 0.56625 0.95435 0.0
C871 C 0.79093 0.54542 0.96165 0.0
H872 H 0.79021 0.60125 0.95194 0.0
H873 H 0.86684 0.39875 0.0244 0.0
H874 H 0.64419 0.4354 0.56355 0.0
H875 H 0.64143 0.46558 0.53412 0.0
H876 H 0.71614 0.46907 0.53064 0.0
H877 H 0.71909 0.43933 0.56027 0.0
H878 H 0.69809 0.50945 0.53407 0.0
H879 H 0.68364 0.44411 0.48591 0.0
H880 H 0.66345 0.40942 0.47491 0.0
H881 H 0.59938 0.4452 0.46741 0.0
H882 H 0.61915 0.48008 0.47868 0.0
H883 H 0.7185 0.56785 0.42643 0.0
H884 H 0.71559 0.53897 0.45708 0.0
H885 H 0.64105 0.54531 0.457 0.0
H886 H 0.6437 0.57425 0.42608 0.0
H887 H 0.65539 0.50155 0.45681 0.0
H888 H 0.67095 0.56749 0.50219 0.0
H889 H 0.69167 0.60203 0.51259 0.0
H890 H 0.75418 0.56492 0.52502 0.0
H891 H 0.73392 0.53017 0.51434 0.0
C892 C 0.66004 0.44256 0.55649 0.0
C893 C 0.68186 0.4349 0.56429 0.0
C894 C 0.65842 0.45976 0.53961 0.0
C895 C 0.67859 0.46946 0.53004 0.0
C896 C 0.70035 0.46187 0.53782 0.0
C897 C 0.70199 0.44479 0.55474 0.0
C898 C 0.67722 0.4877 0.51209 0.0
C899 C 0.68893 0.50763 0.51708 0.0
C900 C 0.6647 0.48558 0.49024 0.0
C901 C 0.65282 0.46465 0.4834 0.0
C902 C 0.66521 0.44454 0.4821 0.0
C903 C 0.65385 0.42486 0.47579 0.0
C904 C 0.63013 0.42509 0.47054 0.0
C905 C 0.61774 0.44504 0.47152 0.0
C906 C 0.62901 0.46477 0.47786 0.0
C907 C 0.70144 0.56315 0.43285 0.0
C908 C 0.68133 0.57349 0.42383 0.0
C909 C 0.69984 0.54667 0.45046 0.0
C910 C 0.67813 0.54021 0.45951 0.0
C911 C 0.65797 0.55014 0.45029 0.0
C912 C 0.65955 0.56671 0.43268 0.0
C913 C 0.67666 0.52306 0.47862 0.0
C914 C 0.66438 0.5034 0.47389 0.0
C915 C 0.68872 0.52538 0.50071 0.0
C916 C 0.70095 0.54624 0.50727 0.0
C917 C 0.68916 0.56671 0.50696 0.0
C918 C 0.70082 0.58632 0.51293 0.0
C919 C 0.72424 0.58568 0.51941 0.0
C920 C 0.73604 0.5654 0.51998 0.0
C921 C 0.72447 0.54573 0.51399 0.0
H922 H 0.73324 0.60088 0.52403 0.0
H923 H 0.62137 0.40983 0.46565 0.0
H924 H 0.17466 0.58785 0.04189 0.0
H925 H 0.1707 0.55166 0.02216 0.0
H926 H 0.24493 0.54857 0.01256 0.0
H927 H 0.24903 0.58476 0.03171 0.0
H928 H 0.22351 0.53469 0.97311 0.0
H929 H 0.21671 0.52081 0.05889 0.0
H930 H 0.19942 0.52551 0.09927 0.0
H931 H 0.13364 0.5029 0.07237 0.0
H932 H 0.15049 0.49833 0.03173 0.0
H933 H 0.25118 0.42237 0.9611 0.0
H934 H 0.24595 0.4594 0.97799 0.0
H935 H 0.17167 0.45209 0.97315 0.0
H936 H 0.17666 0.41479 0.95608 0.0
H937 H 0.18732 0.47174 0.01704 0.0
H938 H 0.19592 0.48171 0.93205 0.0
H939 H 0.21407 0.47625 0.89222 0.0
H940 H 0.27713 0.50591 0.91804 0.0
H941 H 0.25947 0.51124 0.95816 0.0
C942 C 0.19013 0.57954 0.03542 0.0
C943 C 0.21219 0.58921 0.03852 0.0
C944 C 0.18783 0.5588 0.02425 0.0
C945 C 0.20755 0.54727 0.01616 0.0
C946 C 0.22947 0.55715 0.01866 0.0
C947 C 0.23178 0.57787 0.0297 0.0
C948 C 0.20567 0.52471 0.0055 0.0
C949 C 0.2157 0.52092 0.98279 0.0
C950 C 0.19488 0.50684 0.0178 0.0
C951 C 0.18478 0.50949 0.04223 0.0
C952 C 0.19851 0.51701 0.06155 0.0
C953 C 0.1888 0.51962 0.08449 0.0
C954 C 0.16543 0.51457 0.08836 0.0
C955 C 0.15173 0.50684 0.06932 0.0
C956 C 0.16135 0.50423 0.04634 0.0
C957 C 0.23368 0.42845 0.96377 0.0
C958 C 0.21433 0.4156 0.95704 0.0
C959 C 0.23075 0.44969 0.97336 0.0
C960 C 0.20844 0.45856 0.97648 0.0
C961 C 0.18903 0.44553 0.97076 0.0
C962 C 0.19193 0.42425 0.96098 0.0
C963 C 0.20573 0.48173 0.98505 0.0
C964 C 0.19481 0.48561 0.00726 0.0
C965 C 0.21578 0.4997 0.97236 0.0
C966 C 0.22641 0.49673 0.94818 0.0
C967 C 0.21371 0.48693 0.92929 0.0
C968 C 0.22391 0.48387 0.90665 0.0
C969 C 0.24675 0.49069 0.90261 0.0
C970 C 0.25944 0.50063 0.9212 0.0
C971 C 0.24933 0.50369 0.94389 0.0
H972 H 0.25462 0.48831 0.88507 0.0
H973 H 0.15794 0.5166 0.10613 0.0
H974 H 0.25508 0.58609 0.47428 0.0
H975 H 0.26087 0.55008 0.49392 0.0
H976 H 0.32705 0.54314 0.45844 0.0
H977 H 0.32164 0.57935 0.43903 0.0
H978 H 0.29599 0.50554 0.45389 0.0
H979 H 0.32996 0.55268 0.51386 0.0
H980 H 0.33146 0.58463 0.54166 0.0
H981 H 0.27189 0.55973 0.57951 0.0
H982 H 0.26981 0.52778 0.5517 0.0
H983 H 0.32277 0.42033 0.55612 0.0
H984 H 0.32796 0.45657 0.53667 0.0
H985 H 0.26014 0.4509 0.50439 0.0
H986 H 0.25464 0.41487 0.52395 0.0
H987 H 0.29889 0.49476 0.5426 0.0
H988 H 0.26539 0.47341 0.44698 0.0
H989 H 0.26448 0.44143 0.41915 0.0
H990 H 0.32566 0.41471 0.45253 0.0
H991 H 0.32713 0.44668 0.48032 0.0
C992 C 0.27095 0.57699 0.47079 0.0
C993 C 0.2879 0.58555 0.4551 0.0
C994 C 0.27424 0.55647 0.48207 0.0
C995 C 0.29438 0.54404 0.47761 0.0
C996 C 0.31141 0.55255 0.46209 0.0
C997 C 0.30832 0.57326 0.45112 0.0
C998 C 0.29713 0.52177 0.48849 0.0
C999 C 0.29676 0.50315 0.47327 0.0
C1000 C 0.2984 0.51877 0.51375 0.0
C1001 C 0.29961 0.53793 0.53055 0.0
C1002 C 0.31705 0.55411 0.52797 0.0
C1003 C 0.31803 0.5722 0.54377 0.0
C1004 C 0.30175 0.57423 0.56231 0.0
C1005 C 0.28448 0.55815 0.56513 0.0
C1006 C 0.2834 0.54003 0.54937 0.0
C1007 C 0.30903 0.42672 0.54472 0.0
C1008 C 0.28827 0.41475 0.5416 0.0
C1009 C 0.312 0.44744 0.53374 0.0
C1010 C 0.29446 0.45631 0.51908 0.0
C1011 C 0.27393 0.44424 0.51554 0.0
C1012 C 0.2708 0.42369 0.52679 0.0
C1013 C 0.29717 0.47853 0.50802 0.0
C1014 C 0.29841 0.49714 0.52321 0.0
C1015 C 0.29677 0.48152 0.48272 0.0
C1016 C 0.29623 0.46236 0.46587 0.0
C1017 C 0.2787 0.46077 0.44831 0.0
C1018 C 0.27808 0.44263 0.43255 0.0
C1019 C 0.29496 0.42602 0.43412 0.0
C1020 C 0.31254 0.42754 0.4514 0.0
C1021 C 0.31325 0.44565 0.46718 0.0
H1022 H 0.29444 0.41198 0.42191 0.0
H1023 H 0.30255 0.58825 0.57452 0.0
H1024 H 0.61608 0.11436 0.08991 0.0
H1025 H 0.5737 0.11061 0.09135 0.0
H1026 H 0.56753 0.1801 0.10936 0.0
H1027 H 0.60961 0.18392 0.10823 0.0
H1028 H 0.53953 0.1552 0.137 0.0
H1029 H 0.55754 0.16133 0.05208 0.0
H1030 H 0.57684 0.1503 0.01422 0.0
H1031 H 0.54505 0.08587 0.01832 0.0
H1032 H 0.5258 0.09643 0.0564 0.0
H1033 H 0.42267 0.17891 0.11408 0.0
H1034 H 0.46491 0.17812 0.11084 0.0
H1035 H 0.46238 0.10868 0.09169 0.0
H1036 H 0.41999 0.10943 0.09445 0.0
H1037 H 0.49479 0.1301 0.06552 0.0
H1038 H 0.47523 0.12423 0.14909 0.0
H1039 H 0.45582 0.13486 0.18701 0.0
H1040 H 0.49066 0.19793 0.18595 0.0
H1041 H 0.51004 0.1878 0.14782 0.0
C1042 C 0.60568 0.12879 0.09431 0.0
C1043 C 0.61624 0.14945 0.09889 0.0
C1044 C 0.58147 0.12666 0.09499 0.0
C1045 C 0.56743 0.14514 0.10022 0.0
C1046 C 0.57799 0.16562 0.10528 0.0
C1047 C 0.6021 0.16777 0.10456 0.0
C1048 C 0.5417 0.14343 0.10039 0.0
C1049 C 0.52975 0.1499 0.12129 0.0
C1050 C 0.52894 0.13591 0.08014 0.0
C1051 C 0.54045 0.12958 0.05722 0.0
C1052 C 0.55482 0.14475 0.04501 0.0
C1053 C 0.56572 0.1386 0.02349 0.0
C1054 C 0.56223 0.11738 0.01391 0.0
C1055 C 0.54778 0.10229 0.02579 0.0
C1056 C 0.53686 0.10835 0.04733 0.0
C1057 C 0.43104 0.16351 0.10894 0.0
C1058 C 0.41794 0.14418 0.10476 0.0
C1059 C 0.45522 0.16306 0.10721 0.0
C1060 C 0.46686 0.14322 0.10154 0.0
C1061 C 0.45379 0.12414 0.09624 0.0
C1062 C 0.42955 0.1246 0.09785 0.0
C1063 C 0.49263 0.1423 0.10199 0.0
C1064 C 0.50458 0.13527 0.08127 0.0
C1065 C 0.50544 0.14922 0.12246 0.0
C1066 C 0.49394 0.15532 0.14549 0.0
C1067 C 0.47863 0.14043 0.15685 0.0
C1068 C 0.46765 0.14635 0.1784 0.0
C1069 C 0.47197 0.16708 0.18886 0.0
C1070 C 0.48732 0.18189 0.17782 0.0
C1071 C 0.49833 0.17606 0.15625 0.0
H1072 H 0.46345 0.17164 0.20554 0.0
H1073 H 0.57069 0.11264 0.99725 0.0
H1074 H 0.88511 0.885 0.58892 0.0
H1075 H 0.9274 0.8892 0.59099 0.0
H1076 H 0.93389 0.82066 0.61272 0.0
H1077 H 0.89186 0.8164 0.61094 0.0
H1078 H 0.96149 0.84707 0.63935 0.0
H1079 H 0.94442 0.83675 0.5547 0.0
H1080 H 0.92542 0.84575 0.51606 0.0
H1081 H 0.95647 0.91062 0.51692 0.0
H1082 H 0.97542 0.90209 0.55576 0.0
H1083 H 0.07859 0.82267 0.61803 0.0
H1084 H 0.03635 0.82342 0.61509 0.0
H1085 H 0.03888 0.89188 0.59222 0.0
H1086 H 0.08131 0.89117 0.59471 0.0
H1087 H 0.00668 0.86916 0.56704 0.0
H1088 H 0.02558 0.879 0.65027 0.0
H1089 H 0.04474 0.87029 0.6889 0.0
H1090 H 0.01016 0.80712 0.69109 0.0
H1091 H 0.99103 0.81532 0.65229 0.0
C1092 C 0.89555 0.87088 0.59429 0.0
C1093 C 0.88509 0.85034 0.59968 0.0
C1094 C 0.91972 0.87327 0.59534 0.0
C1095 C 0.93384 0.85516 0.60176 0.0
C1096 C 0.92337 0.83485 0.6077 0.0
C1097 C 0.89929 0.83243 0.60661 0.0
C1098 C 0.95956 0.85709 0.60212 0.0
C1099 C 0.97137 0.85172 0.62347 0.0
C1100 C 0.97245 0.86377 0.58162 0.0
C1101 C 0.96112 0.86888 0.55826 0.0
C1102 C 0.94704 0.853 0.54675 0.0
C1103 C 0.93631 0.858 0.52479 0.0
C1104 C 0.93967 0.87877 0.51408 0.0
C1105 C 0.95384 0.89456 0.52527 0.0
C1106 C 0.96459 0.88964 0.54724 0.0
C1107 C 0.07022 0.83786 0.61218 0.0
C1108 C 0.08335 0.85692 0.60681 0.0
C1109 C 0.04603 0.83829 0.61062 0.0
C1110 C 0.0344 0.85785 0.60391 0.0
C1111 C 0.04747 0.87665 0.59758 0.0
C1112 C 0.07173 0.87621 0.59903 0.0
C1113 C 0.00861 0.85871 0.60414 0.0
C1114 C 0.9968 0.86467 0.58296 0.0
C1115 C 0.99567 0.85265 0.62484 0.0
C1116 C 0.00702 0.84771 0.64827 0.0
C1117 C 0.02218 0.86319 0.65891 0.0
C1118 C 0.03302 0.85835 0.68085 0.0
C1119 C 0.0287 0.83814 0.69242 0.0
C1120 C 0.0135 0.82275 0.6821 0.0
C1121 C 0.00263 0.8275 0.66014 0.0
H1122 H 0.03711 0.83443 0.7094 0.0
H1123 H 0.93135 0.88261 0.49708 0.0
H1124 H 0.42233 0.82216 0.8698 0.0
H1125 H 0.46422 0.82189 0.87626 0.0
H1126 H 0.45939 0.88385 0.91506 0.0
H1127 H 0.41735 0.88434 0.90855 0.0
H1128 H 0.49348 0.88486 0.88103 0.0
H1129 H 0.47094 0.83674 0.94525 0.0
H1130 H 0.45074 0.80521 0.96435 0.0
H1131 H 0.48779 0.75957 0.91894 0.0
H1132 H 0.50798 0.79086 0.8993 0.0
H1133 H 0.61361 0.87965 0.9154 0.0
H1134 H 0.57121 0.8827 0.91565 0.0
H1135 H 0.566 0.81974 0.8788 0.0
H1136 H 0.60816 0.81642 0.87879 0.0
H1137 H 0.53672 0.82125 0.91593 0.0
H1138 H 0.5567 0.86933 0.84953 0.0
H1139 H 0.5766 0.90074 0.82982 0.0
H1140 H 0.5442 0.94628 0.87905 0.0
H1141 H 0.52433 0.91509 0.89926 0.0
C1142 C 0.4301 0.83562 0.87996 0.0
C1143 C 0.41648 0.85329 0.88863 0.0
C1144 C 0.45407 0.8354 0.8837 0.0
C1145 C 0.46493 0.8528 0.89625 0.0
C1146 C 0.45136 0.87027 0.90533 0.0
C1147 C 0.42732 0.87045 0.90169 0.0
C1148 C 0.49058 0.85315 0.8988 0.0
C1149 C 0.50295 0.87115 0.88908 0.0
C1150 C 0.50292 0.83506 0.90887 0.0
C1151 C 0.49084 0.81618 0.92067 0.0
C1152 C 0.47465 0.82 0.9392 0.0
C1153 C 0.46322 0.80216 0.95015 0.0
C1154 C 0.46794 0.78041 0.94283 0.0
C1155 C 0.48414 0.77644 0.92458 0.0
C1156 C 0.4956 0.79421 0.91355 0.0
C1157 C 0.60343 0.86655 0.90718 0.0
C1158 C 0.61428 0.84777 0.8971 0.0
C1159 C 0.57919 0.86833 0.90731 0.0
C1160 C 0.56541 0.85147 0.89718 0.0
C1161 C 0.57626 0.8329 0.88683 0.0
C1162 C 0.60041 0.83108 0.88675 0.0
C1163 C 0.53966 0.85276 0.89774 0.0
C1164 C 0.52727 0.83507 0.90809 0.0
C1165 C 0.52731 0.8711 0.88821 0.0
C1166 C 0.53925 0.88986 0.87608 0.0
C1167 C 0.55398 0.88603 0.85629 0.0
C1168 C 0.56522 0.90379 0.845 0.0
C1169 C 0.56172 0.92548 0.85323 0.0
C1170 C 0.54692 0.92946 0.87272 0.0
C1171 C 0.53566 0.91175 0.88409 0.0
H1172 H 0.57044 0.93922 0.84446 0.0
H1173 H 0.45908 0.76662 0.95134 0.0
H1174 H 0.0735 0.08295 0.38213 0.0
H1175 H 0.03179 0.08796 0.38785 0.0
H1176 H 0.043 0.15663 0.40688 0.0
H1177 H 0.08483 0.15174 0.4014 0.0
H1178 H 0.01118 0.1369 0.43636 0.0
H1179 H 0.02494 0.14306 0.35098 0.0
H1180 H 0.03957 0.13074 0.31137 0.0
H1181 H 0.99627 0.07276 0.31487 0.0
H1182 H 0.98161 0.0846 0.35468 0.0
H1183 H 0.89937 0.18156 0.41813 0.0
H1184 H 0.94059 0.17267 0.41568 0.0
H1185 H 0.92391 0.10527 0.39565 0.0
H1186 H 0.88243 0.11411 0.39781 0.0
H1187 H 0.95814 0.12206 0.36767 0.0
H1188 H 0.94274 0.11687 0.45213 0.0
H1189 H 0.92804 0.12925 0.49168 0.0
H1190 H 0.97426 0.1852 0.49009 0.0
H1191 H 0.98902 0.17332 0.45035 0.0
C1192 C 0.06715 0.0991 0.38769 0.0
C1193 C 0.08251 0.11699 0.39115 0.0
C1194 C 0.04327 0.10194 0.39086 0.0
C1195 C 0.03425 0.12274 0.39746 0.0
C1196 C 0.04959 0.14045 0.40171 0.0
C1197 C 0.07348 0.13763 0.39851 0.0
C1198 C 0.00881 0.12621 0.39938 0.0
C1199 C 0.9996 0.13388 0.42128 0.0
C1200 C 0.99364 0.1217 0.37988 0.0
C1201 C 0.00237 0.11459 0.35592 0.0
C1202 C 0.01869 0.12759 0.34339 0.0
C1203 C 0.02696 0.12071 0.32089 0.0
C1204 C 0.01891 0.10095 0.31065 0.0
C1205 C 0.00252 0.08805 0.32285 0.0
C1206 C 0.99421 0.09484 0.34538 0.0
C1207 C 0.9044 0.16482 0.41321 0.0
C1208 C 0.88757 0.14852 0.40824 0.0
C1209 C 0.92801 0.15974 0.41194 0.0
C1210 C 0.93535 0.13823 0.40582 0.0
C1211 C 0.91862 0.12196 0.40051 0.0
C1212 C 0.89494 0.12703 0.40179 0.0
C1213 C 0.9605 0.13294 0.4046 0.0
C1214 C 0.96968 0.12493 0.38283 0.0
C1215 C 0.97563 0.13712 0.42422 0.0
C1216 C 0.96684 0.1443 0.44816 0.0
C1217 C 0.94964 0.13191 0.46012 0.0
C1218 C 0.94132 0.13882 0.48259 0.0
C1219 C 0.95017 0.15803 0.49337 0.0
C1220 C 0.96741 0.17033 0.48171 0.0
C1221 C 0.97577 0.16351 0.45923 0.0
H1222 H 0.94371 0.16335 0.51076 0.0
H1223 H 0.02533 0.09565 0.29322 0.0
H1224 H 0.11527 0.61664 0.08458 0.0
H1225 H 0.07323 0.61095 0.08672 0.0
H1226 H 0.06685 0.66835 0.13287 0.0
H1227 H 0.10875 0.674 0.13106 0.0
H1228 H 0.0399 0.63463 0.14851 0.0
H1229 H 0.05507 0.67173 0.07285 0.0
H1230 H 0.07343 0.6761 0.03295 0.0
H1231 H 0.0434 0.61442 0.00961 0.0
H1232 H 0.02511 0.60954 0.04951 0.0
H1233 H 0.92269 0.66467 0.13786 0.0
H1234 H 0.96493 0.66405 0.13536 0.0
H1235 H 0.96174 0.60672 0.08876 0.0
H1236 H 0.91926 0.6074 0.09088 0.0
H1237 H 0.99361 0.63632 0.07304 0.0
H1238 H 0.97587 0.60062 0.14772 0.0
H1239 H 0.95726 0.59644 0.1875 0.0
H1240 H 0.99201 0.65512 0.2128 0.0
H1241 H 0.01058 0.65983 0.17304 0.0
C1242 C 0.10494 0.62793 0.09536 0.0
C1243 C 0.11536 0.64586 0.10753 0.0
C1244 C 0.08091 0.62471 0.09647 0.0
C1245 C 0.06687 0.6394 0.1097 0.0
C1246 C 0.07733 0.65684 0.12252 0.0
C1247 C 0.10131 0.66008 0.1214 0.0
C1248 C 0.04121 0.63711 0.10979 0.0
C1249 C 0.02977 0.63516 0.13203 0.0
C1250 C 0.02802 0.6372 0.08824 0.0
C1251 C 0.03895 0.64015 0.06424 0.0
C1252 C 0.05254 0.65901 0.05927 0.0
C1253 C 0.06291 0.66159 0.03664 0.0
C1254 C 0.05964 0.64551 0.01878 0.0
C1255 C 0.04595 0.62684 0.02348 0.0
C1256 C 0.03557 0.62416 0.04609 0.0
C1257 C 0.93091 0.65196 0.12698 0.0
C1258 C 0.91759 0.63599 0.11469 0.0
C1259 C 0.9551 0.65156 0.12568 0.0
C1260 C 0.96652 0.63509 0.11224 0.0
C1261 C 0.95328 0.6195 0.09936 0.0
C1262 C 0.92902 0.61991 0.10061 0.0
C1263 C 0.99227 0.63422 0.1118 0.0
C1264 C 0.00374 0.63554 0.08952 0.0
C1265 C 0.0055 0.63353 0.13332 0.0
C1266 C 0.99448 0.63067 0.15732 0.0
C1267 C 0.97942 0.61273 0.16171 0.0
C1268 C 0.9689 0.61025 0.18426 0.0
C1269 C 0.97341 0.62553 0.20265 0.0
C1270 C 0.98851 0.6433 0.19853 0.0
C1271 C 0.99906 0.64587 0.176 0.0
H1272 H 0.96525 0.62358 0.2201 0.0
H1273 H 0.06768 0.64754 0.00127 0.0
H1274 H 0.57991 0.39365 0.59296 0.0
H1275 H 0.53767 0.39312 0.58852 0.0
H1276 H 0.53772 0.32185 0.5967 0.0
H1277 H 0.57994 0.3222 0.60111 0.0
H1278 H 0.5081 0.33589 0.56068 0.0
H1279 H 0.52457 0.354 0.64377 0.0
H1280 H 0.5425 0.37573 0.67656 0.0
H1281 H 0.50732 0.43444 0.65204 0.0
H1282 H 0.48943 0.41309 0.61887 0.0
H1283 H 0.39323 0.31202 0.59372 0.0
H1284 H 0.43522 0.31673 0.59334 0.0
H1285 H 0.42675 0.38785 0.58924 0.0
H1286 H 0.38445 0.38329 0.58995 0.0
H1287 H 0.46053 0.37677 0.6207 0.0
H1288 H 0.44176 0.3584 0.53936 0.0
H1289 H 0.42378 0.33691 0.50642 0.0
H1290 H 0.46317 0.27935 0.52688 0.0
H1291 H 0.48115 0.30041 0.56018 0.0
C1292 C 0.57098 0.37783 0.59356 0.0
C1293 C 0.5833 0.35797 0.59755 0.0
C1294 C 0.54682 0.37757 0.59113 0.0
C1295 C 0.53453 0.35747 0.59259 0.0
C1296 C 0.54686 0.33755 0.59558 0.0
C1297 C 0.571 0.33779 0.59815 0.0
C1298 C 0.50878 0.35721 0.59185 0.0
C1299 C 0.49768 0.34466 0.57391 0.0
C1300 C 0.4952 0.36918 0.60872 0.0
C1301 C 0.50588 0.38201 0.62868 0.0
C1302 C 0.52082 0.37158 0.64525 0.0
C1303 C 0.53094 0.38382 0.66392 0.0
C1304 C 0.5261 0.40647 0.66634 0.0
C1305 C 0.51108 0.41691 0.65012 0.0
C1306 C 0.50094 0.40474 0.63139 0.0
C1307 C 0.40023 0.3287 0.59279 0.0
C1308 C 0.38545 0.34728 0.59173 0.0
C1309 C 0.42428 0.33135 0.59245 0.0
C1310 C 0.43416 0.35262 0.59081 0.0
C1311 C 0.4195 0.37127 0.59037 0.0
C1312 C 0.39535 0.36864 0.59076 0.0
C1313 C 0.45979 0.35519 0.58971 0.0
C1314 C 0.47089 0.36816 0.6073 0.0
C1315 C 0.47338 0.34367 0.57246 0.0
C1316 C 0.46266 0.33094 0.5524 0.0
C1317 C 0.44646 0.34111 0.53696 0.0
C1318 C 0.43629 0.32901 0.5182 0.0
C1319 C 0.44229 0.30676 0.51459 0.0
C1320 C 0.45852 0.29658 0.52971 0.0
C1321 C 0.46873 0.3086 0.54851 0.0
H1322 H 0.4344 0.29742 0.50006 0.0
H1323 H 0.53395 0.41592 0.68081 0.0
H1324 H 0.1201 0.3877 0.89709 0.0
H1325 H 0.07835 0.39486 0.89373 0.0
H1326 H 0.06413 0.32669 0.91276 0.0
H1327 H 0.10562 0.31934 0.91574 0.0
H1328 H 0.0381 0.339 0.87574 0.0
H1329 H 0.0573 0.36947 0.95353 0.0
H1330 H 0.07869 0.39349 0.98191 0.0
H1331 H 0.05518 0.45144 0.94391 0.0
H1332 H 0.03389 0.42774 0.91509 0.0
H1333 H 0.91852 0.34549 0.90131 0.0
H1334 H 0.96041 0.34129 0.90665 0.0
H1335 H 0.97063 0.40942 0.88498 0.0
H1336 H 0.92874 0.41387 0.87989 0.0
H1337 H 0.99878 0.39843 0.92244 0.0
H1338 H 0.97923 0.36799 0.84503 0.0
H1339 H 0.95777 0.344 0.8167 0.0
H1340 H 0.9821 0.28598 0.85401 0.0
H1341 H 0.00347 0.30965 0.88279 0.0
C1342 C 0.10807 0.37425 0.90053 0.0
C1343 C 0.11621 0.35295 0.9067 0.0
C1344 C 0.08421 0.37839 0.89873 0.0
C1345 C 0.06808 0.36136 0.90324 0.0
C1346 C 0.07622 0.34009 0.90919 0.0
C1347 C 0.09999 0.33593 0.91094 0.0
C1348 C 0.04269 0.36545 0.90151 0.0
C1349 C 0.02949 0.35183 0.88619 0.0
C1350 C 0.03149 0.38255 0.91466 0.0
C1351 C 0.04421 0.39682 0.932 0.0
C1352 C 0.05684 0.38733 0.95111 0.0
C1353 C 0.06892 0.40089 0.96729 0.0
C1354 C 0.06835 0.42397 0.96467 0.0
C1355 C 0.05564 0.43356 0.94589 0.0
C1356 C 0.04355 0.42007 0.92964 0.0
C1357 C 0.92964 0.35965 0.89789 0.0
C1358 C 0.92028 0.37996 0.88995 0.0
C1359 C 0.9536 0.3572 0.90087 0.0
C1360 C 0.96868 0.37494 0.89582 0.0
C1361 C 0.95933 0.39549 0.88888 0.0
C1362 C 0.93537 0.39797 0.88591 0.0
C1363 C 0.99423 0.3718 0.89692 0.0
C1364 C 0.00744 0.38562 0.91201 0.0
C1365 C 0.00549 0.35488 0.88357 0.0
C1366 C 0.99277 0.3406 0.8662 0.0
C1367 C 0.97987 0.35012 0.8473 0.0
C1368 C 0.96774 0.33658 0.83115 0.0
C1369 C 0.96852 0.31348 0.83359 0.0
C1370 C 0.98149 0.30387 0.85216 0.0
C1371 C 0.99363 0.31734 0.86839 0.0
H1372 H 0.95912 0.30302 0.82106 0.0
H1373 H 0.07771 0.43444 0.97722 0.0
H1374 H 0.58243 0.65214 0.40291 0.0
H1375 H 0.54065 0.65612 0.409 0.0
H1376 H 0.53082 0.58706 0.39079 0.0
H1377 H 0.57257 0.58299 0.38434 0.0
H1378 H 0.50106 0.61273 0.3666 0.0
H1379 H 0.52458 0.60521 0.44885 0.0
H1380 H 0.54741 0.61349 0.48538 0.0
H1381 H 0.52183 0.68051 0.48527 0.0
H1382 H 0.49908 0.67272 0.44853 0.0
H1383 H 0.38087 0.61267 0.39841 0.0
H1384 H 0.42242 0.60423 0.39668 0.0
H1385 H 0.4383 0.67245 0.41399 0.0
H1386 H 0.39694 0.68094 0.41607 0.0
H1387 H 0.46467 0.64463 0.43993 0.0
H1388 H 0.44324 0.65275 0.35638 0.0
H1389 H 0.42064 0.64467 0.31963 0.0
H1390 H 0.44254 0.57651 0.32223 0.0
H1391 H 0.46504 0.58412 0.3592 0.0
C1392 C 0.57144 0.63772 0.40047 0.0
C1393 C 0.58086 0.61726 0.39307 0.0
C1394 C 0.54753 0.64 0.40404 0.0
C1395 C 0.53259 0.62185 0.40048 0.0
C1396 C 0.54201 0.60129 0.3936 0.0
C1397 C 0.5659 0.59899 0.39001 0.0
C1398 C 0.50706 0.62462 0.40273 0.0
C1399 C 0.49306 0.61934 0.38281 0.0
C1400 C 0.49666 0.63369 0.42367 0.0
C1401 C 0.51028 0.63842 0.44581 0.0
C1402 C 0.52396 0.62176 0.4565 0.0
C1403 C 0.53686 0.62636 0.47727 0.0
C1404 C 0.53611 0.64753 0.48761 0.0
C1405 C 0.52241 0.66413 0.47723 0.0
C1406 C 0.50949 0.65962 0.45645 0.0
C1407 C 0.39321 0.62588 0.40179 0.0
C1408 C 0.38557 0.6475 0.40731 0.0
C1409 C 0.41695 0.62104 0.40075 0.0
C1410 C 0.43348 0.63775 0.40505 0.0
C1411 C 0.42587 0.65929 0.41066 0.0
C1412 C 0.40219 0.66413 0.41173 0.0
C1413 C 0.45874 0.63293 0.40373 0.0
C1414 C 0.47268 0.63786 0.42382 0.0
C1415 C 0.4691 0.62355 0.38294 0.0
C1416 C 0.4556 0.61895 0.3607 0.0
C1417 C 0.44308 0.636 0.34923 0.0
C1418 C 0.43032 0.63151 0.32834 0.0
C1419 C 0.4301 0.61007 0.31865 0.0
C1420 C 0.4427 0.59309 0.32979 0.0
C1421 C 0.45546 0.59749 0.3507 0.0
H1422 H 0.42021 0.60663 0.30247 0.0
H1423 H 0.54611 0.65105 0.50369 0.0
H1424 H 0.27788 0.1039 0.16253 0.0
H1425 H 0.25692 0.08849 0.19643 0.0
H1426 H 0.32105 0.06455 0.22691 0.0
H1427 H 0.34243 0.07958 0.19223 0.0
H1428 H 0.25244 0.04644 0.21959 0.0
H1429 H 0.31682 0.07969 0.28748 0.0
H1430 H 0.34948 0.10614 0.29045 0.0
H1431 H 0.31811 0.14731 0.23622 0.0
H1432 H 0.28519 0.12124 0.23317 0.0
H1433 H 0.2209 0.08291 0.35435 0.0
H1434 H 0.24837 0.06766 0.32512 0.0
H1435 H 0.19798 0.07743 0.26841 0.0
H1436 H 0.17028 0.09181 0.29787 0.0
H1437 H 0.26679 0.09126 0.29316 0.0
H1438 H 0.20889 0.04964 0.21861 0.0
H1439 H 0.17614 0.02338 0.21631 0.0
H1440 H 0.19383 0.99734 0.28602 0.0
H1441 H 0.22691 0.0232 0.28862 0.0
C1442 C 0.28762 0.09481 0.1759 0.0
C1443 C 0.3119 0.093 0.17454 0.0
C1444 C 0.27551 0.08591 0.19534 0.0
C1445 C 0.28741 0.07537 0.21415 0.0
C1446 C 0.31156 0.07257 0.21247 0.0
C1447 C 0.32372 0.08124 0.19272 0.0
C1448 C 0.27463 0.0705 0.23667 0.0
C1449 C 0.25557 0.056 0.23585 0.0
C1450 C 0.27926 0.08247 0.25805 0.0
C1451 C 0.29878 0.09838 0.25988 0.0
C1452 C 0.31693 0.09441 0.27623 0.0
C1453 C 0.33546 0.10933 0.27793 0.0
C1454 C 0.33592 0.12834 0.26346 0.0
C1455 C 0.31779 0.13253 0.24734 0.0
C1456 C 0.29921 0.11768 0.24561 0.0
C1457 C 0.21556 0.08125 0.33572 0.0
C1458 C 0.1937 0.08881 0.32818 0.0
C1459 C 0.23121 0.07245 0.31905 0.0
C1460 C 0.22539 0.07141 0.29447 0.0
C1461 C 0.20285 0.07756 0.28727 0.0
C1462 C 0.18702 0.08592 0.30408 0.0
C1463 C 0.24376 0.06771 0.27605 0.0
C1464 C 0.26392 0.08079 0.27751 0.0
C1465 C 0.24014 0.05425 0.25542 0.0
C1466 C 0.22037 0.03847 0.25384 0.0
C1467 C 0.20592 0.03821 0.23338 0.0
C1468 C 0.18725 0.02342 0.23205 0.0
C1469 C 0.18288 0.00873 0.25102 0.0
C1470 C 0.19719 0.00877 0.27136 0.0
C1471 C 0.21589 0.02352 0.27279 0.0
H1472 H 0.16842 0.9973 0.24995 0.0
H1473 H 0.35029 0.13986 0.26478 0.0
H1474 H 0.2894 0.92527 0.84856 0.0
H1475 H 0.26352 0.94011 0.81749 0.0
H1476 H 0.31035 0.91654 0.76235 0.0
H1477 H 0.33673 0.90263 0.79353 0.0
H1478 H 0.28724 0.95216 0.74641 0.0
H1479 H 0.26752 0.88272 0.78663 0.0
H1480 H 0.25867 0.86002 0.82253 0.0
H1481 H 0.20043 0.90198 0.83872 0.0
H1482 H 0.20918 0.92513 0.80309 0.0
H1483 H 0.22658 0.89422 0.65823 0.0
H1484 H 0.24955 0.90977 0.69063 0.0
H1485 H 0.18786 0.9376 0.72266 0.0
H1486 H 0.16446 0.92235 0.68952 0.0
H1487 H 0.2131 0.91068 0.75343 0.0
H1488 H 0.22843 0.97281 0.70364 0.0
H1489 H 0.23845 0.9927 0.6662 0.0
H1490 H 0.3056 0.96179 0.66575 0.0
H1491 H 0.29589 0.94143 0.70297 0.0
C1492 C 0.29446 0.92395 0.82981 0.0
C1493 C 0.31474 0.91256 0.82325 0.0
C1494 C 0.27971 0.93242 0.81209 0.0
C1495 C 0.28465 0.92882 0.7876 0.0
C1496 C 0.3061 0.91941 0.78113 0.0
C1497 C 0.32116 0.91143 0.79891 0.0
C1498 C 0.26623 0.93124 0.76908 0.0
C1499 C 0.27097 0.94321 0.74793 0.0
C1500 C 0.24473 0.91996 0.77131 0.0
C1501 C 0.23916 0.90578 0.79241 0.0
C1502 C 0.25288 0.88714 0.79792 0.0
C1503 C 0.2479 0.87421 0.81821 0.0
C1504 C 0.22904 0.8796 0.83294 0.0
C1505 C 0.21507 0.89787 0.82733 0.0
C1506 C 0.22003 0.9109 0.8071 0.0
C1507 C 0.21782 0.90418 0.67162 0.0
C1508 C 0.19363 0.90712 0.67109 0.0
C1509 C 0.23108 0.91316 0.6902 0.0
C1510 C 0.22048 0.92511 0.70888 0.0
C1511 C 0.1964 0.92863 0.70823 0.0
C1512 C 0.18307 0.91987 0.68933 0.0
C1513 C 0.23441 0.93101 0.7304 0.0
C1514 C 0.22892 0.92041 0.75216 0.0
C1515 C 0.25532 0.94321 0.72848 0.0
C1516 C 0.26138 0.95553 0.70613 0.0
C1517 C 0.24529 0.97014 0.69549 0.0
C1518 C 0.25092 0.98151 0.6743 0.0
C1519 C 0.27264 0.9785 0.6636 0.0
C1520 C 0.28879 0.96413 0.67408 0.0
C1521 C 0.28324 0.95269 0.69526 0.0
H1522 H 0.27697 0.98732 0.64719 0.0
H1523 H 0.22523 0.86958 0.84866 0.0
H1524 H 0.69004 0.88516 0.83793 0.0
H1525 H 0.69628 0.89592 0.79582 0.0
H1526 H 0.77002 0.88649 0.80472 0.0
H1527 H 0.7641 0.87655 0.84672 0.0
H1528 H 0.76283 0.92031 0.77581 0.0
H1529 H 0.73346 0.84481 0.78228 0.0
H1530 H 0.705 0.81623 0.79423 0.0
H1531 H 0.65242 0.84884 0.75226 0.0
H1532 H 0.68055 0.87776 0.74029 0.0
H1533 H 0.80315 0.87933 0.66265 0.0
H1534 H 0.79236 0.88832 0.70419 0.0
H1535 H 0.72238 0.9024 0.68117 0.0
H1536 H 0.7329 0.89334 0.63976 0.0
H1537 H 0.72323 0.87199 0.71615 0.0
H1538 H 0.75623 0.94356 0.70349 0.0
H1539 H 0.78598 0.97067 0.69105 0.0
H1540 H 0.83311 0.94443 0.74384 0.0
H1541 H 0.80377 0.91692 0.75637 0.0
C1542 C 0.7076 0.88569 0.831 0.0
C1543 C 0.72652 0.87967 0.84564 0.0
C1544 C 0.71115 0.89181 0.80692 0.0
C1545 C 0.7336 0.89161 0.79698 0.0
C1546 C 0.75255 0.88676 0.81193 0.0
C1547 C 0.74907 0.88093 0.83599 0.0
C1548 C 0.73745 0.89443 0.77068 0.0
C1549 C 0.75421 0.90974 0.76273 0.0
C1550 C 0.72586 0.88098 0.75354 0.0
C1551 C 0.709 0.86357 0.76065 0.0
C1552 C 0.71579 0.84595 0.77574 0.0
C1553 C 0.69973 0.82969 0.78249 0.0
C1554 C 0.6769 0.83076 0.77407 0.0
C1555 C 0.6701 0.84806 0.75881 0.0
C1556 C 0.68608 0.86438 0.75204 0.0
C1557 C 0.78561 0.88483 0.66632 0.0
C1558 C 0.76882 0.88527 0.64792 0.0
C1559 C 0.77948 0.89006 0.69008 0.0
C1560 C 0.75653 0.89599 0.69577 0.0
C1561 C 0.74015 0.89777 0.67719 0.0
C1562 C 0.74622 0.89253 0.65351 0.0
C1563 C 0.74896 0.89756 0.72126 0.0
C1564 C 0.73153 0.88296 0.72908 0.0
C1565 C 0.76012 0.91151 0.73821 0.0
C1566 C 0.77783 0.92806 0.73076 0.0
C1567 C 0.773 0.94344 0.71232 0.0
C1568 C 0.78978 0.95891 0.70527 0.0
C1569 C 0.81143 0.95925 0.71661 0.0
C1570 C 0.81633 0.94414 0.73506 0.0
C1571 C 0.79962 0.92863 0.74217 0.0
H1572 H 0.8244 0.97124 0.71113 0.0
H1573 H 0.66449 0.81816 0.77932 0.0
H1574 H 0.73543 0.1171 0.3488 0.0
H1575 H 0.72937 0.10622 0.30709 0.0
H1576 H 0.80344 0.10258 0.29629 0.0
H1577 H 0.80973 0.11413 0.33809 0.0
H1578 H 0.78489 0.1272 0.26326 0.0
H1579 H 0.76786 0.05541 0.29343 0.0
H1580 H 0.74992 0.02721 0.31972 0.0
H1581 H 0.68231 0.04602 0.29437 0.0
H1582 H 0.6998 0.07458 0.26818 0.0
H1583 H 0.76705 0.10308 0.14162 0.0
H1584 H 0.77687 0.09374 0.18317 0.0
H1585 H 0.70695 0.10903 0.20534 0.0
H1586 H 0.69681 0.11829 0.16365 0.0
H1587 H 0.72739 0.07318 0.23155 0.0
H1588 H 0.74526 0.14894 0.20731 0.0
H1589 H 0.76348 0.17703 0.18102 0.0
H1590 H 0.83068 0.14941 0.19594 0.0
H1591 H 0.81278 0.12094 0.22206 0.0
C1592 C 0.75051 0.11364 0.33776 0.0
C1593 C 0.7731 0.11676 0.34678 0.0
C1594 C 0.74697 0.10719 0.31387 0.0
C1595 C 0.76593 0.10338 0.29854 0.0
C1596 C 0.78853 0.10541 0.3078 0.0
C1597 C 0.7921 0.11203 0.33171 0.0
C1598 C 0.76203 0.10008 0.2723 0.0
C1599 C 0.77278 0.11494 0.25634 0.0
C1600 C 0.74582 0.08445 0.26322 0.0
C1601 C 0.73516 0.06726 0.27893 0.0
C1602 C 0.74915 0.05366 0.29359 0.0
C1603 C 0.73906 0.03758 0.30845 0.0
C1604 C 0.71499 0.03484 0.30874 0.0
C1605 C 0.70096 0.04816 0.29413 0.0
C1606 C 0.71096 0.06427 0.27924 0.0
C1607 C 0.75358 0.10405 0.1552 0.0
C1608 C 0.73125 0.11189 0.14939 0.0
C1609 C 0.75924 0.09863 0.17894 0.0
C1610 C 0.74275 0.10109 0.19734 0.0
C1611 C 0.71993 0.10708 0.19136 0.0
C1612 C 0.71419 0.11245 0.16753 0.0
C1613 C 0.75009 0.10041 0.22292 0.0
C1614 C 0.73989 0.08498 0.23862 0.0
C1615 C 0.76689 0.11544 0.23187 0.0
C1616 C 0.77767 0.13268 0.21639 0.0
C1617 C 0.7639 0.14877 0.20483 0.0
C1618 C 0.77417 0.16476 0.18999 0.0
C1619 C 0.79822 0.16496 0.18676 0.0
C1620 C 0.81205 0.14921 0.19843 0.0
C1621 C 0.80186 0.13315 0.21325 0.0
H1622 H 0.80614 0.17736 0.17526 0.0
H1623 H 0.70721 0.02238 0.32026 0.0
H1624 H 0.71709 0.6204 0.32188 0.0
H1625 H 0.73914 0.60356 0.28964 0.0
H1626 H 0.68644 0.55311 0.28116 0.0
H1627 H 0.66349 0.57079 0.31334 0.0
H1628 H 0.75968 0.56702 0.2816 0.0
H1629 H 0.68659 0.53724 0.22159 0.0
H1630 H 0.6446 0.5427 0.21476 0.0
H1631 H 0.65026 0.61038 0.23868 0.0
H1632 H 0.69228 0.60532 0.24544 0.0
H1633 H 0.82264 0.56141 0.17217 0.0
H1634 H 0.79644 0.54631 0.20303 0.0
H1635 H 0.74767 0.59911 0.18828 0.0
H1636 H 0.77284 0.61323 0.15694 0.0
H1637 H 0.7241 0.56573 0.20022 0.0
H1638 H 0.79421 0.60129 0.23413 0.0
H1639 H 0.83647 0.60395 0.24089 0.0
H1640 H 0.83717 0.53753 0.26924 0.0
H1641 H 0.79491 0.53447 0.26245 0.0
C1642 C 0.71019 0.60558 0.31342 0.0
C1643 C 0.68849 0.59697 0.32011 0.0
C1644 C 0.72295 0.59583 0.29499 0.0
C1645 C 0.71453 0.57702 0.28284 0.0
C1646 C 0.6932 0.56776 0.29006 0.0
C1647 C 0.68012 0.57784 0.30842 0.0
C1648 C 0.72769 0.56884 0.26155 0.0
C1649 C 0.75183 0.56629 0.26381 0.0
C1650 C 0.71756 0.56755 0.23834 0.0
C1651 C 0.6924 0.57079 0.23432 0.0
C1652 C 0.67882 0.55326 0.22538 0.0
C1653 C 0.65505 0.55629 0.22152 0.0
C1654 C 0.64475 0.57684 0.22639 0.0
C1655 C 0.65823 0.59444 0.23502 0.0
C1656 C 0.68201 0.5915 0.23887 0.0
C1657 C 0.80608 0.56943 0.17526 0.0
C1658 C 0.7999 0.58863 0.16234 0.0
C1659 C 0.79115 0.56084 0.19292 0.0
C1660 C 0.7702 0.57178 0.19839 0.0
C1661 C 0.76359 0.5902 0.18446 0.0
C1662 C 0.77816 0.59841 0.16656 0.0
C1663 C 0.75623 0.56627 0.22017 0.0
C1664 C 0.73192 0.56559 0.21802 0.0
C1665 C 0.76625 0.56576 0.24349 0.0
C1666 C 0.79157 0.56754 0.24748 0.0
C1667 C 0.80344 0.58723 0.24168 0.0
C1668 C 0.82736 0.58881 0.24553 0.0
C1669 C 0.83951 0.57088 0.2554 0.0
C1670 C 0.82775 0.55137 0.26152 0.0
C1671 C 0.80383 0.5497 0.25767 0.0
H1672 H 0.85803 0.57214 0.25837 0.0
H1673 H 0.62634 0.57915 0.2234 0.0
H1674 H 0.7163 0.42322 0.64147 0.0
H1675 H 0.74386 0.43525 0.67241 0.0
H1676 H 0.69481 0.41694 0.7278 0.0
H1677 H 0.66688 0.40578 0.69675 0.0
H1678 H 0.72168 0.45019 0.74336 0.0
H1679 H 0.73357 0.37888 0.70412 0.0
H1680 H 0.73973 0.35475 0.66871 0.0
H1681 H 0.80234 0.39011 0.65164 0.0
H1682 H 0.79632 0.41469 0.68678 0.0
H1683 H 0.77778 0.388 0.8318 0.0
H1684 H 0.75585 0.40441 0.79912 0.0
H1685 H 0.81918 0.42828 0.76684 0.0
H1686 H 0.84156 0.41231 0.80036 0.0
H1687 H 0.79122 0.40191 0.73649 0.0
H1688 H 0.78253 0.46609 0.7852 0.0
H1689 H 0.77486 0.48726 0.82242 0.0
H1690 H 0.70511 0.46223 0.82418 0.0
H1691 H 0.71244 0.44062 0.78718 0.0
C1692 C 0.71121 0.4224 0.66025 0.0
C1693 C 0.68977 0.41323 0.6669 0.0
C1694 C 0.72692 0.42929 0.67789 0.0
C1695 C 0.72167 0.42634 0.70241 0.0
C1696 C 0.69929 0.41925 0.70899 0.0
C1697 C 0.68336 0.41285 0.69128 0.0
C1698 C 0.74029 0.4271 0.72087 0.0
C1699 C 0.73695 0.43974 0.74187 0.0
C1700 C 0.76049 0.41378 0.7187 0.0
C1701 C 0.76435 0.39877 0.69786 0.0
C1702 C 0.74858 0.38157 0.69273 0.0
C1703 C 0.75204 0.36782 0.67272 0.0
C1704 C 0.77138 0.37094 0.65789 0.0
C1705 C 0.78734 0.38776 0.66311 0.0
C1706 C 0.78391 0.40161 0.68306 0.0
C1707 C 0.78716 0.39726 0.81829 0.0
C1708 C 0.81148 0.39896 0.81892 0.0
C1709 C 0.7745 0.4067 0.79953 0.0
C1710 C 0.78585 0.41783 0.78075 0.0
C1711 C 0.81011 0.41997 0.78137 0.0
C1712 C 0.82283 0.4108 0.80048 0.0
C1713 C 0.77229 0.42451 0.75928 0.0
C1714 C 0.77646 0.41306 0.73771 0.0
C1715 C 0.75269 0.43857 0.76118 0.0
C1716 C 0.74808 0.45166 0.7834 0.0
C1717 C 0.76559 0.46497 0.79359 0.0
C1718 C 0.7613 0.47708 0.81466 0.0
C1719 C 0.73952 0.47608 0.82567 0.0
C1720 C 0.72197 0.463 0.81562 0.0
C1721 C 0.72617 0.45086 0.79456 0.0
H1722 H 0.73623 0.48546 0.84198 0.0
H1723 H 0.77402 0.36029 0.64239 0.0
H1724 H 0.30893 0.38769 0.65839 0.0
H1725 H 0.30298 0.39762 0.70074 0.0
H1726 H 0.22905 0.38979 0.69179 0.0
H1727 H 0.23471 0.38064 0.64947 0.0
H1728 H 0.23723 0.42262 0.72219 0.0
H1729 H 0.2642 0.3468 0.71245 0.0
H1730 H 0.29148 0.31774 0.69897 0.0
H1731 H 0.34572 0.34724 0.74137 0.0
H1732 H 0.3188 0.37664 0.75488 0.0
H1733 H 0.19847 0.38052 0.8356 0.0
H1734 H 0.20841 0.38987 0.79394 0.0
H1735 H 0.27942 0.40144 0.8151 0.0
H1736 H 0.26977 0.39199 0.85663 0.0
H1737 H 0.27657 0.37175 0.77949 0.0
H1738 H 0.24603 0.44398 0.79487 0.0
H1739 H 0.21733 0.47153 0.8088 0.0
H1740 H 0.16826 0.44761 0.7566 0.0
H1741 H 0.19654 0.41968 0.74259 0.0
C1742 C 0.29138 0.38843 0.66534 0.0
C1743 C 0.27234 0.38302 0.6506 0.0
C1744 C 0.28801 0.39408 0.68957 0.0
C1745 C 0.26559 0.39399 0.69957 0.0
C1746 C 0.2465 0.38992 0.68452 0.0
C1747 C 0.24982 0.38455 0.66029 0.0
C1748 C 0.26198 0.396 0.72599 0.0
C1749 C 0.24578 0.41149 0.73475 0.0
C1750 C 0.27344 0.38175 0.74245 0.0
C1751 C 0.28959 0.36405 0.73443 0.0
C1752 C 0.28199 0.34716 0.71876 0.0
C1753 C 0.29738 0.33063 0.71114 0.0
C1754 C 0.32034 0.33069 0.71925 0.0
C1755 C 0.32794 0.34725 0.73506 0.0
C1756 C 0.31263 0.36384 0.74271 0.0
C1757 C 0.21609 0.38553 0.83151 0.0
C1758 C 0.23338 0.38518 0.84941 0.0
C1759 C 0.22173 0.39097 0.80768 0.0
C1760 C 0.24468 0.39633 0.80142 0.0
C1761 C 0.26163 0.39728 0.81953 0.0
C1762 C 0.25605 0.39182 0.84327 0.0
C1763 C 0.25158 0.39818 0.77574 0.0
C1764 C 0.26834 0.38327 0.76708 0.0
C1765 C 0.24044 0.4128 0.75946 0.0
C1766 C 0.22338 0.42961 0.76779 0.0
C1767 C 0.22906 0.44447 0.78648 0.0
C1768 C 0.21287 0.46018 0.79437 0.0
C1769 C 0.19097 0.46129 0.78362 0.0
C1770 C 0.18523 0.44672 0.76492 0.0
C1771 C 0.20135 0.43096 0.75698 0.0
H1772 H 0.17847 0.47347 0.78975 0.0
H1773 H 0.33223 0.31787 0.71333 0.0
H1774 H 0.30763 0.61128 0.33782 0.0
H1775 H 0.30164 0.60187 0.29535 0.0
H1776 H 0.22774 0.60973 0.30443 0.0
H1777 H 0.23344 0.61842 0.34689 0.0
H1778 H 0.23616 0.57734 0.27309 0.0
H1779 H 0.26267 0.6531 0.2851 0.0
H1780 H 0.28984 0.68184 0.29959 0.0
H1781 H 0.3443 0.65352 0.25655 0.0
H1782 H 0.31748 0.62445 0.24203 0.0
H1783 H 0.19653 0.62139 0.16127 0.0
H1784 H 0.20692 0.61121 0.20253 0.0
H1785 H 0.27816 0.60211 0.18073 0.0
H1786 H 0.26804 0.61253 0.13957 0.0
H1787 H 0.27514 0.62998 0.21744 0.0
H1788 H 0.2452 0.55802 0.1997 0.0
H1789 H 0.21678 0.53061 0.1849 0.0
H1790 H 0.16753 0.55258 0.2379 0.0
H1791 H 0.19552 0.58037 0.25281 0.0
C1792 C 0.29007 0.61062 0.33089 0.0
C1793 C 0.27106 0.61599 0.3457 0.0
C1794 C 0.28668 0.60526 0.3066 0.0
C1795 C 0.26427 0.60557 0.29659 0.0
C1796 C 0.24519 0.60945 0.31171 0.0
C1797 C 0.24852 0.61455 0.33601 0.0
C1798 C 0.26071 0.6042 0.27012 0.0
C1799 C 0.24464 0.58885 0.26087 0.0
C1800 C 0.27209 0.61894 0.25412 0.0
C1801 C 0.28817 0.63648 0.26272 0.0
C1802 C 0.28048 0.65294 0.27886 0.0
C1803 C 0.29581 0.66929 0.28706 0.0
C1804 C 0.3188 0.66946 0.27905 0.0
C1805 C 0.3265 0.65333 0.26277 0.0
C1806 C 0.31124 0.63692 0.25455 0.0
C1807 C 0.21432 0.61678 0.16512 0.0
C1808 C 0.2315 0.61808 0.14715 0.0
C1809 C 0.22022 0.61084 0.18873 0.0
C1810 C 0.24333 0.60587 0.19472 0.0
C1811 C 0.26024 0.60594 0.17653 0.0
C1812 C 0.25439 0.61194 0.15299 0.0
C1813 C 0.25034 0.6033 0.22031 0.0
C1814 C 0.267 0.61807 0.22946 0.0
C1815 C 0.23933 0.58815 0.23613 0.0
C1816 C 0.22244 0.57141 0.22726 0.0
C1817 C 0.22825 0.55714 0.20809 0.0
C1818 C 0.21222 0.5415 0.19969 0.0
C1819 C 0.19035 0.53988 0.21042 0.0
C1820 C 0.18447 0.55386 0.2296 0.0
C1821 C 0.20043 0.56954 0.23805 0.0
H1822 H 0.17796 0.52776 0.2039 0.0
H1823 H 0.33065 0.68213 0.28542 0.0
loop_
_geom_bond_atom_site_label_1
_geom_bond_atom_site_label_2
_geom_bond_distance
_geom_bond_site_symmetry_2
_ccdc_geom_bond_type
Mg0 O1 2.028 . S
Mg0 O7 1.986 . S
Mg0 O9 2.114 . S
Mg0 O10 2.251 . S
Mg0 O13 2.010 . S
O1 Mg0 2.028 . S
O1 C4 1.250 . S
O2 Mg3 2.028 . S
O2 C4 1.248 . S
Mg3 O2 2.028 . S
Mg3 O8 2.032 . S
Mg3 O10 2.079 . S
C4 O1 1.250 . S
C4 O2 1.248 . S
C5 O6 1.264 . S
C5 O13 1.249 . S
O6 C5 1.264 . S
O7 Mg0 1.986 . S
O7 C11 1.246 . S
O8 Mg3 2.032 . S
O8 C11 1.259 . S
O9 Mg0 2.114 . S
O9 C12 1.252 . S
O10 Mg0 2.251 . S
O10 Mg3 2.079 . S
O10 C12 1.273 . S
C11 O7 1.246 . S
C11 O8 1.259 . S
C12 O9 1.252 . S
C12 O10 1.273 . S
O13 Mg0 2.010 . S
O13 C5 1.249 . S
Mg14 O15 2.028 . S
Mg14 O21 1.986 . S
Mg14 O23 2.114 . S
Mg14 O24 2.251 . S
Mg14 O27 2.010 . S
O15 Mg14 2.028 . S
O15 C18 1.250 . S
O16 Mg17 2.028 . S
O16 C18 1.248 . S
Mg17 O16 2.028 . S
Mg17 O22 2.032 . S
Mg17 O24 2.079 . S
C18 O15 1.250 . S
C18 O16 1.248 . S
C19 O20 1.264 . S
C19 O27 1.249 . S
O20 C19 1.264 . S
O21 Mg14 1.986 . S
O21 C25 1.246 . S
O22 Mg17 2.032 . S
O22 C25 1.259 . S
O23 Mg14 2.114 . S
O23 C26 1.252 . S
O24 Mg14 2.251 . S
O24 Mg17 2.079 . S
O24 C26 1.273 . S
C25 O21 1.246 . S
C25 O22 1.259 . S
C26 O23 1.252 . S
C26 O24 1.273 . S
O27 Mg14 2.010 . S
O27 C19 1.249 . S
Mg28 O29 2.028 . S
Mg28 O35 1.986 . S
Mg28 O37 2.114 . S
Mg28 O38 2.251 . S
Mg28 O41 2.010 . S
O29 Mg28 2.028 . S
O29 C32 1.250 . S
O30 Mg31 2.028 . S
O30 C32 1.248 . S
Mg31 O30 2.028 . S
Mg31 O36 2.032 . S
Mg31 O38 2.079 . S
C32 O29 1.250 . S
C32 O30 1.248 . S
C33 O34 1.264 . S
C33 O41 1.249 . S
O34 C33 1.264 . S
O35 Mg28 1.986 . S
O35 C39 1.246 . S
O36 Mg31 2.032 . S
O36 C39 1.259 . S
O37 Mg28 2.114 . S
O37 C40 1.252 . S
O38 Mg28 2.251 . S
O38 Mg31 2.079 . S
O38 C40 1.273 . S
C39 O35 1.246 . S
C39 O36 1.259 . S
C40 O37 1.252 . S
C40 O38 1.273 . S
O41 Mg28 2.010 . S
O41 C33 1.249 . S
Mg42 O43 2.028 . S
Mg42 O49 1.986 . S
Mg42 O51 2.114 . S
Mg42 O52 2.251 . S
Mg42 O55 2.010 . S
O43 Mg42 2.028 . S
O43 C46 1.250 . S
O44 Mg45 2.028 . S
O44 C46 1.248 . S
Mg45 O44 2.028 . S
Mg45 O50 2.032 . S
Mg45 O52 2.079 . S
C46 O43 1.250 . S
C46 O44 1.248 . S
C47 O48 1.264 . S
C47 O55 1.249 . S
O48 C47 1.264 . S
O49 Mg42 1.986 . S
O49 C53 1.246 . S
O50 Mg45 2.032 . S
O50 C53 1.259 . S
O51 Mg42 2.114 . S
O51 C54 1.252 . S
O52 Mg42 2.251 . S
O52 Mg45 2.079 . S
O52 C54 1.273 . S
C53 O49 1.246 . S
C53 O50 1.259 . S
C54 O51 1.252 . S
C54 O52 1.273 . S
O55 Mg42 2.010 . S
O55 C47 1.249 . S
Mg56 O57 2.028 . S
Mg56 O63 1.986 . S
Mg56 O65 2.114 . S
Mg56 O66 2.251 . S
Mg56 O69 2.010 . S
O57 Mg56 2.028 . S
O57 C60 1.250 . S
O58 Mg59 2.028 . S
O58 C60 1.248 . S
Mg59 O58 2.028 . S
Mg59 O64 2.032 . S
Mg59 O66 2.079 . S
C60 O57 1.250 . S
C60 O58 1.248 . S
C61 O62 1.264 . S
C61 O69 1.249 . S
O62 C61 1.264 . S
O63 Mg56 1.986 . S
O63 C67 1.246 . S
O64 Mg59 2.032 . S
O64 C67 1.259 . S
O65 Mg56 2.114 . S
O65 C68 1.252 . S
O66 Mg56 2.251 . S
O66 Mg59 2.079 . S
O66 C68 1.273 . S
C67 O63 1.246 . S
C67 O64 1.259 . S
C68 O65 1.252 . S
C68 O66 1.273 . S
O69 Mg56 2.010 . S
O69 C61 1.249 . S
Mg70 O71 2.028 . S
Mg70 O77 1.986 . S
Mg70 O79 2.114 . S
Mg70 O80 2.251 . S
Mg70 O83 2.010 . S
O71 Mg70 2.028 . S
O71 C74 1.250 . S
O72 Mg73 2.028 . S
O72 C74 1.248 . S
Mg73 O72 2.028 . S
Mg73 O78 2.032 . S
Mg73 O80 2.079 . S
C74 O71 1.250 . S
C74 O72 1.248 . S
C75 O76 1.264 . S
C75 O83 1.249 . S
O76 C75 1.264 . S
O77 Mg70 1.986 . S
O77 C81 1.246 . S
O78 Mg73 2.032 . S
O78 C81 1.259 . S
O79 Mg70 2.114 . S
O79 C82 1.252 . S
O80 Mg70 2.251 . S
O80 Mg73 2.079 . S
O80 C82 1.273 . S
C81 O77 1.246 . S
C81 O78 1.259 . S
C82 O79 1.252 . S
C82 O80 1.273 . S
O83 Mg70 2.010 . S
O83 C75 1.249 . S
Mg84 O85 2.028 . S
Mg84 O91 1.986 . S
Mg84 O93 2.114 . S
Mg84 O94 2.251 . S
Mg84 O97 2.010 . S
O85 Mg84 2.028 . S
O85 C88 1.250 . S
O86 Mg87 2.028 . S
O86 C88 1.248 . S
Mg87 O86 2.028 . S
Mg87 O92 2.032 . S
Mg87 O94 2.079 . S
C88 O85 1.250 . S
C88 O86 1.248 . S
C89 O90 1.264 . S
C89 O97 1.249 . S
O90 C89 1.264 . S
O91 Mg84 1.986 . S
O91 C95 1.246 . S
O92 Mg87 2.032 . S
O92 C95 1.259 . S
O93 Mg84 2.114 . S
O93 C96 1.252 . S
O94 Mg84 2.251 . S
O94 Mg87 2.079 . S
O94 C96 1.273 . S
C95 O91 1.246 . S
C95 O92 1.259 . S
C96 O93 1.252 . S
C96 O94 1.273 . S
O97 Mg84 2.010 . S
O97 C89 1.249 . S
Mg98 O99 2.028 . S
Mg98 O105 1.986 . S
Mg98 O107 2.114 . S
Mg98 O108 2.251 . S
Mg98 O111 2.010 . S
O99 Mg98 2.028 . S
O99 C102 1.250 . S
O100 Mg101 2.028 . S
O100 C102 1.248 . S
Mg101 O100 2.028 . S
Mg101 O106 2.032 . S
Mg101 O108 2.079 . S
C102 O99 1.250 . S
C102 O100 1.248 . S
C103 O104 1.264 . S
C103 O111 1.249 . S
O104 C103 1.264 . S
O105 Mg98 1.986 . S
O105 C109 1.246 . S
O106 Mg101 2.032 . S
O106 C109 1.259 . S
O107 Mg98 2.114 . S
O107 C110 1.252 . S
O108 Mg98 2.251 . S
O108 Mg101 2.079 . S
O108 C110 1.273 . S
C109 O105 1.246 . S
C109 O106 1.259 . S
C110 O107 1.252 . S
C110 O108 1.273 . S
O111 Mg98 2.010 . S
O111 C103 1.249 . S
Mg112 O113 2.028 . S
Mg112 O119 1.986 . S
Mg112 O121 2.114 . S
Mg112 O122 2.251 . S
Mg112 O125 2.010 . S
O113 Mg112 2.028 . S
O113 C116 1.250 . S
O114 Mg115 2.028 . S
O114 C116 1.248 . S
Mg115 O114 2.028 . S
Mg115 O120 2.032 . S
Mg115 O122 2.079 . S
C116 O113 1.250 . S
C116 O114 1.248 . S
C117 O118 1.264 . S
C117 O125 1.249 . S
O118 C117 1.264 . S
O119 Mg112 1.986 . S
O119 C123 1.246 . S
O120 Mg115 2.032 . S
O120 C123 1.259 . S
O121 Mg112 2.114 . S
O121 C124 1.252 . S
O122 Mg112 2.251 . S
O122 Mg115 2.079 . S
O122 C124 1.273 . S
C123 O119 1.246 . S
C123 O120 1.259 . S
C124 O121 1.252 . S
C124 O122 1.273 . S
O125 Mg112 2.010 . S
O125 C117 1.249 . S
Mg126 O127 2.028 . S
Mg126 O133 1.986 . S
Mg126 O135 2.114 . S
Mg126 O136 2.251 . S
Mg126 O139 2.010 . S
O127 Mg126 2.028 . S
O127 C130 1.250 . S
O128 Mg129 2.028 . S
O128 C130 1.248 . S
Mg129 O128 2.028 . S
Mg129 O134 2.032 . S
Mg129 O136 2.079 . S
C130 O127 1.250 . S
C130 O128 1.248 . S
C131 O132 1.264 . S
C131 O139 1.249 . S
O132 C131 1.264 . S
O133 Mg126 1.986 . S
O133 C137 1.246 . S
O134 Mg129 2.032 . S
O134 C137 1.259 . S
O135 Mg126 2.114 . S
O135 C138 1.252 . S
O136 Mg126 2.251 . S
O136 Mg129 2.079 . S
O136 C138 1.273 . S
C137 O133 1.246 . S
C137 O134 1.259 . S
C138 O135 1.252 . S
C138 O136 1.273 . S
O139 Mg126 2.010 . S
O139 C131 1.249 . S
Mg140 O141 2.028 . S
Mg140 O147 1.986 . S
Mg140 O149 2.114 . S
Mg140 O150 2.251 . S
Mg140 O153 2.010 . S
O141 Mg140 2.028 . S
O141 C144 1.250 . S
O142 Mg143 2.028 . S
O142 C144 1.248 . S
Mg143 O142 2.028 . S
Mg143 O148 2.032 . S
Mg143 O150 2.079 . S
C144 O141 1.250 . S
C144 O142 1.248 . S
C145 O146 1.264 . S
C145 O153 1.249 . S
O146 C145 1.264 . S
O147 Mg140 1.986 . S
O147 C151 1.246 . S
O148 Mg143 2.032 . S
O148 C151 1.259 . S
O149 Mg140 2.114 . S
O149 C152 1.252 . S
O150 Mg140 2.251 . S
O150 Mg143 2.079 . S
O150 C152 1.273 . S
C151 O147 1.246 . S
C151 O148 1.259 . S
C152 O149 1.252 . S
C152 O150 1.273 . S
O153 Mg140 2.010 . S
O153 C145 1.249 . S
Mg154 O155 2.028 . S
Mg154 O161 1.986 . S
Mg154 O163 2.114 . S
Mg154 O164 2.251 . S
Mg154 O167 2.010 . S
O155 Mg154 2.028 . S
O155 C158 1.250 . S
O156 Mg157 2.028 . S
O156 C158 1.248 . S
Mg157 O156 2.028 . S
Mg157 O162 2.032 . S
Mg157 O164 2.079 . S
C158 O155 1.250 . S
C158 O156 1.248 . S
C159 O160 1.264 . S
C159 O167 1.249 . S
O160 C159 1.264 . S
O161 Mg154 1.986 . S
O161 C165 1.246 . S
O162 Mg157 2.032 . S
O162 C165 1.259 . S
O163 Mg154 2.114 . S
O163 C166 1.252 . S
O164 Mg154 2.251 . S
O164 Mg157 2.079 . S
O164 C166 1.273 . S
C165 O161 1.246 . S
C165 O162 1.259 . S
C166 O163 1.252 . S
C166 O164 1.273 . S
O167 Mg154 2.010 . S
O167 C159 1.249 . S
Mg168 O169 2.028 . S
Mg168 O175 1.986 . S
Mg168 O177 2.114 . S
Mg168 O178 2.251 . S
Mg168 O181 2.010 . S
O169 Mg168 2.028 . S
O169 C172 1.250 . S
O170 Mg171 2.028 . S
O170 C172 1.248 . S
Mg171 O170 2.028 . S
Mg171 O176 2.032 . S
Mg171 O178 2.079 . S
C172 O169 1.250 . S
C172 O170 1.248 . S
C173 O174 1.264 . S
C173 O181 1.249 . S
O174 C173 1.264 . S
O175 Mg168 1.986 . S
O175 C179 1.246 . S
O176 Mg171 2.032 . S
O176 C179 1.259 . S
O177 Mg168 2.114 . S
O177 C180 1.252 . S
O178 Mg168 2.251 . S
O178 Mg171 2.079 . S
O178 C180 1.273 . S
C179 O175 1.246 . S
C179 O176 1.259 . S
C180 O177 1.252 . S
C180 O178 1.273 . S
O181 Mg168 2.010 . S
O181 C173 1.249 . S
Mg182 O183 2.028 . S
Mg182 O189 1.986 . S
Mg182 O191 2.114 . S
Mg182 O192 2.251 . S
Mg182 O195 2.010 . S
O183 Mg182 2.028 . S
O183 C186 1.250 . S
O184 Mg185 2.028 . S
O184 C186 1.248 . S
Mg185 O184 2.028 . S
Mg185 O190 2.032 . S
Mg185 O192 2.079 . S
C186 O183 1.250 . S
C186 O184 1.248 . S
C187 O188 1.264 . S
C187 O195 1.249 . S
O188 C187 1.264 . S
O189 Mg182 1.986 . S
O189 C193 1.246 . S
O190 Mg185 2.032 . S
O190 C193 1.259 . S
O191 Mg182 2.114 . S
O191 C194 1.252 . S
O192 Mg182 2.251 . S
O192 Mg185 2.079 . S
O192 C194 1.273 . S
C193 O189 1.246 . S
C193 O190 1.259 . S
C194 O191 1.252 . S
C194 O192 1.273 . S
O195 Mg182 2.010 . S
O195 C187 1.249 . S
Mg196 O197 2.028 . S
Mg196 O203 1.986 . S
Mg196 O205 2.114 . S
Mg196 O206 2.251 . S
Mg196 O209 2.010 . S
O197 Mg196 2.028 . S
O197 C200 1.250 . S
O198 Mg199 2.028 . S
O198 C200 1.248 . S
Mg199 O198 2.028 . S
Mg199 O204 2.032 . S
Mg199 O206 2.079 . S
C200 O197 1.250 . S
C200 O198 1.248 . S
C201 O202 1.264 . S
C201 O209 1.249 . S
O202 C201 1.264 . S
O203 Mg196 1.986 . S
O203 C207 1.246 . S
O204 Mg199 2.032 . S
O204 C207 1.259 . S
O205 Mg196 2.114 . S
O205 C208 1.252 . S
O206 Mg196 2.251 . S
O206 Mg199 2.079 . S
O206 C208 1.273 . S
C207 O203 1.246 . S
C207 O204 1.259 . S
C208 O205 1.252 . S
C208 O206 1.273 . S
O209 Mg196 2.010 . S
O209 C201 1.249 . S
Mg210 O211 2.028 . S
Mg210 O217 1.986 . S
Mg210 O219 2.114 . S
Mg210 O220 2.251 . S
Mg210 O223 2.010 . S
O211 Mg210 2.028 . S
O211 C214 1.250 . S
O212 Mg213 2.028 . S
O212 C214 1.248 . S
Mg213 O212 2.028 . S
Mg213 O218 2.032 . S
Mg213 O220 2.079 . S
C214 O211 1.250 . S
C214 O212 1.248 . S
C215 O216 1.264 . S
C215 O223 1.249 . S
O216 C215 1.264 . S
O217 Mg210 1.986 . S
O217 C221 1.246 . S
O218 Mg213 2.032 . S
O218 C221 1.259 . S
O219 Mg210 2.114 . S
O219 C222 1.252 . S
O220 Mg210 2.251 . S
O220 Mg213 2.079 . S
O220 C222 1.273 . S
C221 O217 1.246 . S
C221 O218 1.259 . S
C222 O219 1.252 . S
C222 O220 1.273 . S
O223 Mg210 2.010 . S
O223 C215 1.249 . S
H224 C242 0.951 . S
H225 C244 0.951 . S
H226 C246 0.950 . S
H227 C247 0.950 . S
H228 C249 0.950 . S
H229 C252 0.950 . S
H230 C253 0.950 . S
H231 C255 0.950 . S
H232 C256 0.950 . S
H233 C257 0.951 . S
H234 C259 0.951 . S
H235 C261 0.950 . S
H236 C262 0.950 . S
H237 C264 0.950 . S
H238 C267 0.950 . S
H239 C268 0.950 . S
H240 C270 0.950 . S
H241 C271 0.950 . S
C242 H224 0.951 . S
C242 C243 1.366 . S
C242 C244 1.388 . S
C243 C242 1.366 . S
C243 C247 1.385 . S
C244 H225 0.951 . S
C244 C242 1.388 . S
C244 C245 1.366 . S
C245 C244 1.366 . S
C245 C246 1.414 . S
C245 C248 1.499 . S
C246 H226 0.950 . S
C246 C245 1.414 . S
C246 C247 1.374 . S
C247 H227 0.950 . S
C247 C243 1.385 . S
C247 C246 1.374 . S
C248 C245 1.499 . S
C248 C249 1.373 1_554 S
C248 C250 1.389 . S
C249 H228 0.950 . S
C249 C248 1.373 1_556 S
C249 C265 1.377 . S
C250 C248 1.389 . S
C250 C251 1.524 . S
C250 C264 1.377 . S
C251 C250 1.524 . S
C251 C252 1.397 . S
C251 C256 1.363 . S
C252 H229 0.950 . S
C252 C251 1.397 . S
C252 C253 1.334 . S
C253 H230 0.950 . S
C253 C252 1.334 . S
C253 C254 1.287 . S
C254 C253 1.287 . S
C254 C255 1.524 . S
C254 H273 0.913 . S
C255 H231 0.950 . S
C255 C254 1.524 . S
C255 C256 1.415 . S
C256 H232 0.950 . S
C256 C251 1.363 . S
C256 C255 1.415 . S
C257 H233 0.951 . S
C257 C258 1.366 . S
C257 C259 1.388 . S
C258 C257 1.366 . S
C258 C262 1.385 . S
C259 H234 0.951 . S
C259 C257 1.388 . S
C259 C260 1.366 . S
C260 C259 1.366 . S
C260 C261 1.414 . S
C260 C263 1.499 . S
C261 H235 0.950 . S
C261 C260 1.414 . S
C261 C262 1.374 . S
C262 H236 0.950 . S
C262 C258 1.385 . S
C262 C261 1.374 . S
C263 C260 1.499 . S
C263 C264 1.373 1_556 S
C263 C265 1.389 . S
C264 H237 0.950 . S
C264 C250 1.377 . S
C264 C263 1.373 1_554 S
C265 C249 1.377 . S
C265 C263 1.389 . S
C265 C266 1.524 . S
C266 C265 1.524 . S
C266 C267 1.397 . S
C266 C271 1.363 . S
C267 H238 0.950 . S
C267 C266 1.397 . S
C267 C268 1.334 . S
C268 H239 0.950 . S
C268 C267 1.334 . S
C268 C269 1.287 . S
C269 C268 1.287 . S
C269 C270 1.524 . S
C269 H272 0.999 . S
C270 H240 0.950 . S
C270 C269 1.524 . S
C270 C271 1.415 . S
C271 H241 0.950 . S
C271 C266 1.363 . S
C271 C270 1.415 . S
H272 C269 0.999 . S
H273 C254 0.913 . S
H274 C292 0.951 . S
H275 C294 0.951 . S
H276 C296 0.950 . S
H277 C297 0.950 . S
H278 C299 0.950 . S
H279 C302 0.950 . S
H280 C303 0.950 . S
H281 C305 0.950 . S
H282 C306 0.950 . S
H283 C307 0.951 . S
H284 C309 0.951 . S
H285 C311 0.950 . S
H286 C312 0.950 . S
H287 C314 0.950 . S
H288 C317 0.950 . S
H289 C318 0.950 . S
H290 C320 0.950 . S
H291 C321 0.950 . S
C292 H274 0.951 . S
C292 C293 1.366 . S
C292 C294 1.388 . S
C293 C292 1.366 . S
C293 C297 1.385 . S
C294 H275 0.951 . S
C294 C292 1.388 . S
C294 C295 1.366 . S
C295 C294 1.366 . S
C295 C296 1.414 . S
C295 C298 1.499 . S
C296 H276 0.950 . S
C296 C295 1.414 . S
C296 C297 1.374 . S
C297 H277 0.950 . S
C297 C293 1.385 . S
C297 C296 1.374 . S
C298 C295 1.499 . S
C298 C299 1.373 . S
C298 C300 1.389 . S
C299 H278 0.950 . S
C299 C298 1.373 . S
C299 C315 1.377 . S
C300 C298 1.389 . S
C300 C301 1.524 . S
C300 C314 1.377 . S
C301 C300 1.524 . S
C301 C302 1.397 . S
C301 C306 1.363 . S
C302 H279 0.950 . S
C302 C301 1.397 . S
C302 C303 1.334 . S
C303 H280 0.950 . S
C303 C302 1.334 . S
C303 C304 1.287 . S
C304 C303 1.287 . S
C304 C305 1.524 . S
C304 H323 0.913 . S
C305 H281 0.950 . S
C305 C304 1.524 . S
C305 C306 1.415 . S
C306 H282 0.950 . S
C306 C301 1.363 . S
C306 C305 1.415 . S
C307 H283 0.951 . S
C307 C308 1.366 . S
C307 C309 1.388 . S
C308 C307 1.366 . S
C308 C312 1.385 . S
C309 H284 0.951 . S
C309 C307 1.388 . S
C309 C310 1.366 . S
C310 C309 1.366 . S
C310 C311 1.414 . S
C310 C313 1.499 . S
C311 H285 0.950 . S
C311 C310 1.414 . S
C311 C312 1.374 . S
C312 H286 0.950 . S
C312 C308 1.385 . S
C312 C311 1.374 . S
C313 C310 1.499 . S
C313 C314 1.373 . S
C313 C315 1.389 . S
C314 H287 0.950 . S
C314 C300 1.377 . S
C314 C313 1.373 . S
C315 C299 1.377 . S
C315 C313 1.389 . S
C315 C316 1.524 . S
C316 C315 1.524 . S
C316 C317 1.397 . S
C316 C321 1.363 . S
C317 H288 0.950 . S
C317 C316 1.397 . S
C317 C318 1.334 . S
C318 H289 0.950 . S
C318 C317 1.334 . S
C318 C319 1.287 . S
C319 C318 1.287 . S
C319 C320 1.524 . S
C319 H322 0.999 . S
C320 H290 0.950 . S
C320 C319 1.524 . S
C320 C321 1.415 . S
C321 H291 0.950 . S
C321 C316 1.363 . S
C321 C320 1.415 . S
H322 C319 0.999 . S
H323 C304 0.913 . S
H324 C342 0.951 . S
H325 C344 0.951 . S
H326 C346 0.950 . S
H327 C347 0.950 . S
H328 C349 0.950 . S
H329 C352 0.950 . S
H330 C353 0.950 . S
H331 C355 0.950 . S
H332 C356 0.950 . S
H333 C357 0.951 . S
H334 C359 0.951 . S
H335 C361 0.950 . S
H336 C362 0.950 . S
H337 C364 0.950 . S
H338 C367 0.950 . S
H339 C368 0.950 . S
H340 C370 0.950 . S
H341 C371 0.950 . S
C342 H324 0.951 . S
C342 C343 1.366 . S
C342 C344 1.388 . S
C343 C342 1.366 . S
C343 C347 1.385 . S
C344 H325 0.951 . S
C344 C342 1.388 . S
C344 C345 1.366 . S
C345 C344 1.366 . S
C345 C346 1.414 . S
C345 C348 1.499 . S
C346 H326 0.950 . S
C346 C345 1.414 . S
C346 C347 1.374 . S
C347 H327 0.950 . S
C347 C343 1.385 . S
C347 C346 1.374 . S
C348 C345 1.499 . S
C348 C349 1.373 . S
C348 C350 1.389 1_556 S
C349 H328 0.950 . S
C349 C348 1.373 . S
C349 C365 1.377 . S
C350 C348 1.389 1_554 S
C350 C351 1.524 . S
C350 C364 1.377 . S
C351 C350 1.524 . S
C351 C352 1.397 . S
C351 C356 1.363 . S
C352 H329 0.950 . S
C352 C351 1.397 . S
C352 C353 1.334 . S
C353 H330 0.950 . S
C353 C352 1.334 . S
C353 C354 1.287 . S
C354 C353 1.287 . S
C354 C355 1.524 . S
C354 H373 0.913 . S
C355 H331 0.950 . S
C355 C354 1.524 . S
C355 C356 1.415 . S
C356 H332 0.950 . S
C356 C351 1.363 . S
C356 C355 1.415 . S
C357 H333 0.951 . S
C357 C358 1.366 . S
C357 C359 1.388 . S
C358 C357 1.366 . S
C358 C362 1.385 . S
C359 H334 0.951 . S
C359 C357 1.388 . S
C359 C360 1.366 . S
C360 C359 1.366 . S
C360 C361 1.414 . S
C360 C363 1.499 . S
C361 H335 0.950 . S
C361 C360 1.414 . S
C361 C362 1.374 . S
C362 H336 0.950 . S
C362 C358 1.385 . S
C362 C361 1.374 . S
C363 C360 1.499 . S
C363 C364 1.373 . S
C363 C365 1.389 1_554 S
C364 H337 0.950 . S
C364 C350 1.377 . S
C364 C363 1.373 . S
C365 C349 1.377 . S
C365 C363 1.389 1_556 S
C365 C366 1.524 . S
C366 C365 1.524 . S
C366 C367 1.397 . S
C366 C371 1.363 . S
C367 H338 0.950 . S
C367 C366 1.397 . S
C367 C368 1.334 . S
C368 H339 0.950 . S
C368 C367 1.334 . S
C368 C369 1.287 . S
C369 C368 1.287 . S
C369 C370 1.524 . S
C369 H372 0.999 . S
C370 H340 0.950 . S
C370 C369 1.524 . S
C370 C371 1.415 . S
C371 H341 0.950 . S
C371 C366 1.363 . S
C371 C370 1.415 . S
H372 C369 0.999 . S
H373 C354 0.913 . S
H374 C392 0.951 . S
H375 C394 0.951 . S
H376 C396 0.950 . S
H377 C397 0.950 . S
H378 C399 0.950 . S
H379 C402 0.950 . S
H380 C403 0.950 . S
H381 C405 0.950 . S
H382 C406 0.950 . S
H383 C407 0.951 . S
H384 C409 0.951 . S
H385 C411 0.950 . S
H386 C412 0.950 . S
H387 C414 0.950 . S
H388 C417 0.950 . S
H389 C418 0.950 . S
H390 C420 0.950 . S
H391 C421 0.950 . S
C392 H374 0.951 . S
C392 C393 1.366 . S
C392 C394 1.388 . S
C393 C392 1.366 . S
C393 C397 1.385 . S
C394 H375 0.951 . S
C394 C392 1.388 . S
C394 C395 1.366 . S
C395 C394 1.366 . S
C395 C396 1.414 . S
C395 C398 1.499 . S
C396 H376 0.950 . S
C396 C395 1.414 . S
C396 C397 1.374 . S
C397 H377 0.950 . S
C397 C393 1.385 . S
C397 C396 1.374 . S
C398 C395 1.499 . S
C398 C399 1.373 . S
C398 C400 1.389 . S
C399 H378 0.950 . S
C399 C398 1.373 . S
C399 C415 1.377 . S
C400 C398 1.389 . S
C400 C401 1.524 . S
C400 C414 1.377 . S
C401 C400 1.524 . S
C401 C402 1.397 . S
C401 C406 1.363 . S
C402 H379 0.950 . S
C402 C401 1.397 . S
C402 C403 1.334 . S
C403 H380 0.950 . S
C403 C402 1.334 . S
C403 C404 1.287 . S
C404 C403 1.287 . S
C404 C405 1.524 . S
C404 H423 0.913 . S
C405 H381 0.950 . S
C405 C404 1.524 . S
C405 C406 1.415 . S
C406 H382 0.950 . S
C406 C401 1.363 . S
C406 C405 1.415 . S
C407 H383 0.951 . S
C407 C408 1.366 . S
C407 C409 1.388 . S
C408 C407 1.366 . S
C408 C412 1.385 . S
C409 H384 0.951 . S
C409 C407 1.388 . S
C409 C410 1.366 . S
C410 C409 1.366 . S
C410 C411 1.414 . S
C410 C413 1.499 . S
C411 H385 0.950 . S
C411 C410 1.414 . S
C411 C412 1.374 . S
C412 H386 0.950 . S
C412 C408 1.385 . S
C412 C411 1.374 . S
C413 C410 1.499 . S
C413 C414 1.373 . S
C413 C415 1.389 . S
C414 H387 0.950 . S
C414 C400 1.377 . S
C414 C413 1.373 . S
C415 C399 1.377 . S
C415 C413 1.389 . S
C415 C416 1.524 . S
C416 C415 1.524 . S
C416 C417 1.397 . S
C416 C421 1.363 . S
C417 H388 0.950 . S
C417 C416 1.397 . S
C417 C418 1.334 . S
C418 H389 0.950 . S
C418 C417 1.334 . S
C418 C419 1.287 . S
C419 C418 1.287 . S
C419 C420 1.524 . S
C419 H422 0.999 . S
C420 H390 0.950 . S
C420 C419 1.524 . S
C420 C421 1.415 . S
C421 H391 0.950 . S
C421 C416 1.363 . S
C421 C420 1.415 . S
H422 C419 0.999 . S
H423 C404 0.913 . S
H424 C442 0.951 . S
H425 C444 0.951 . S
H426 C446 0.950 1_556 S
H427 C447 0.950 . S
H428 C449 0.950 . S
H429 C452 0.950 . S
H430 C453 0.950 . S
H431 C455 0.950 . S
H432 C456 0.950 . S
H433 C457 0.951 . S
H434 C459 0.951 . S
H435 C461 0.950 1_554 S
H436 C462 0.950 . S
H437 C464 0.950 . S
H438 C467 0.950 . S
H439 C468 0.950 . S
H440 C470 0.950 . S
H441 C471 0.950 . S
C442 H424 0.951 . S
C442 C443 1.366 . S
C442 C444 1.388 . S
C443 C442 1.366 . S
C443 C447 1.385 . S
C444 H425 0.951 . S
C444 C442 1.388 . S
C444 C445 1.366 . S
C445 C444 1.366 . S
C445 C446 1.414 . S
C445 C448 1.499 . S
C446 H426 0.950 1_554 S
C446 C445 1.414 . S
C446 C447 1.374 . S
C447 H427 0.950 . S
C447 C443 1.385 . S
C447 C446 1.374 . S
C448 C445 1.499 . S
C448 C449 1.373 1_554 S
C448 C450 1.389 . S
C449 H428 0.950 . S
C449 C448 1.373 1_556 S
C449 C465 1.377 . S
C450 C448 1.389 . S
C450 C451 1.524 . S
C450 C464 1.377 . S
C451 C450 1.524 . S
C451 C452 1.397 . S
C451 C456 1.363 . S
C452 H429 0.950 . S
C452 C451 1.397 . S
C452 C453 1.334 . S
C453 H430 0.950 . S
C453 C452 1.334 . S
C453 C454 1.287 . S
C454 C453 1.287 . S
C454 C455 1.524 . S
C454 H473 0.913 . S
C455 H431 0.950 . S
C455 C454 1.524 . S
C455 C456 1.415 . S
C456 H432 0.950 . S
C456 C451 1.363 . S
C456 C455 1.415 . S
C457 H433 0.951 . S
C457 C458 1.366 . S
C457 C459 1.388 . S
C458 C457 1.366 . S
C458 C462 1.385 . S
C459 H434 0.951 . S
C459 C457 1.388 . S
C459 C460 1.366 . S
C460 C459 1.366 . S
C460 C461 1.414 . S
C460 C463 1.499 . S
C461 H435 0.950 1_556 S
C461 C460 1.414 . S
C461 C462 1.374 . S
C462 H436 0.950 . S
C462 C458 1.385 . S
C462 C461 1.374 . S
C463 C460 1.499 . S
C463 C464 1.373 1_556 S
C463 C465 1.389 . S
C464 H437 0.950 . S
C464 C450 1.377 . S
C464 C463 1.373 1_554 S
C465 C449 1.377 . S
C465 C463 1.389 . S
C465 C466 1.524 . S
C466 C465 1.524 . S
C466 C467 1.397 . S
C466 C471 1.363 . S
C467 H438 0.950 . S
C467 C466 1.397 . S
C467 C468 1.334 . S
C468 H439 0.950 . S
C468 C467 1.334 . S
C468 C469 1.287 . S
C469 C468 1.287 . S
C469 C470 1.524 . S
C469 H472 0.999 . S
C470 H440 0.950 . S
C470 C469 1.524 . S
C470 C471 1.415 . S
C471 H441 0.950 . S
C471 C466 1.363 . S
C471 C470 1.415 . S
H472 C469 0.999 . S
H473 C454 0.913 . S
H474 C492 0.951 . S
H475 C494 0.951 . S
H476 C496 0.950 . S
H477 C497 0.950 . S
H478 C499 0.950 . S
H479 C502 0.950 . S
H480 C503 0.950 . S
H481 C505 0.950 . S
H482 C506 0.950 . S
H483 C507 0.951 . S
H484 C509 0.951 . S
H485 C511 0.950 . S
H486 C512 0.950 . S
H487 C514 0.950 . S
H488 C517 0.950 . S
H489 C518 0.950 . S
H490 C520 0.950 . S
H491 C521 0.950 . S
C492 H474 0.951 . S
C492 C493 1.366 . S
C492 C494 1.388 . S
C493 C492 1.366 . S
C493 C497 1.385 . S
C494 H475 0.951 . S
C494 C492 1.388 . S
C494 C495 1.366 . S
C495 C494 1.366 . S
C495 C496 1.414 . S
C495 C498 1.499 . S
C496 H476 0.950 . S
C496 C495 1.414 . S
C496 C497 1.374 . S
C497 H477 0.950 . S
C497 C493 1.385 . S
C497 C496 1.374 . S
C498 C495 1.499 . S
C498 C499 1.373 . S
C498 C500 1.389 . S
C499 H478 0.950 . S
C499 C498 1.373 . S
C499 C515 1.377 . S
C500 C498 1.389 . S
C500 C501 1.524 . S
C500 C514 1.377 . S
C501 C500 1.524 . S
C501 C502 1.397 . S
C501 C506 1.363 . S
C502 H479 0.950 . S
C502 C501 1.397 . S
C502 C503 1.334 . S
C503 H480 0.950 . S
C503 C502 1.334 . S
C503 C504 1.287 . S
C504 C503 1.287 . S
C504 C505 1.524 . S
C504 H523 0.913 . S
C505 H481 0.950 . S
C505 C504 1.524 . S
C505 C506 1.415 . S
C506 H482 0.950 . S
C506 C501 1.363 . S
C506 C505 1.415 . S
C507 H483 0.951 . S
C507 C508 1.366 . S
C507 C509 1.388 . S
C508 C507 1.366 . S
C508 C512 1.385 . S
C509 H484 0.951 . S
C509 C507 1.388 . S
C509 C510 1.366 . S
C510 C509 1.366 . S
C510 C511 1.414 . S
C510 C513 1.499 . S
C511 H485 0.950 . S
C511 C510 1.414 . S
C511 C512 1.374 . S
C512 H486 0.950 . S
C512 C508 1.385 . S
C512 C511 1.374 . S
C513 C510 1.499 . S
C513 C514 1.373 . S
C513 C515 1.389 . S
C514 H487 0.950 . S
C514 C500 1.377 . S
C514 C513 1.373 . S
C515 C499 1.377 . S
C515 C513 1.389 . S
C515 C516 1.524 . S
C516 C515 1.524 . S
C516 C517 1.397 . S
C516 C521 1.363 . S
C517 H488 0.950 . S
C517 C516 1.397 . S
C517 C518 1.334 . S
C518 H489 0.950 . S
C518 C517 1.334 . S
C518 C519 1.287 . S
C519 C518 1.287 . S
C519 C520 1.524 . S
C519 H522 0.999 . S
C520 H490 0.950 . S
C520 C519 1.524 . S
C520 C521 1.415 . S
C521 H491 0.950 . S
C521 C516 1.363 . S
C521 C520 1.415 . S
H522 C519 0.999 . S
H523 C504 0.913 . S
H524 C542 0.951 . S
H525 C544 0.951 . S
H526 C546 0.950 . S
H527 C547 0.950 . S
H528 C549 0.950 . S
H529 C552 0.950 . S
H530 C553 0.950 . S
H531 C555 0.950 . S
H532 C556 0.950 . S
H533 C557 0.951 . S
H534 C559 0.951 . S
H535 C561 0.950 . S
H536 C562 0.950 . S
H537 C564 0.950 . S
H538 C567 0.950 . S
H539 C568 0.950 . S
H540 C570 0.950 . S
H541 C571 0.950 . S
C542 H524 0.951 . S
C542 C543 1.366 . S
C542 C544 1.388 . S
C543 C542 1.366 . S
C543 C547 1.385 . S
C544 H525 0.951 . S
C544 C542 1.388 . S
C544 C545 1.366 . S
C545 C544 1.366 . S
C545 C546 1.414 . S
C545 C548 1.499 . S
C546 H526 0.950 . S
C546 C545 1.414 . S
C546 C547 1.374 . S
C547 H527 0.950 . S
C547 C543 1.385 . S
C547 C546 1.374 . S
C548 C545 1.499 . S
C548 C549 1.373 . S
C548 C550 1.389 1_556 S
C549 H528 0.950 . S
C549 C548 1.373 . S
C549 C565 1.377 . S
C550 C548 1.389 1_554 S
C550 C551 1.524 . S
C550 C564 1.377 . S
C551 C550 1.524 . S
C551 C552 1.397 . S
C551 C556 1.363 . S
C552 H529 0.950 . S
C552 C551 1.397 . S
C552 C553 1.334 . S
C553 H530 0.950 . S
C553 C552 1.334 . S
C553 C554 1.287 . S
C554 C553 1.287 . S
C554 C555 1.524 . S
C554 H573 0.913 . S
C555 H531 0.950 . S
C555 C554 1.524 . S
C555 C556 1.415 . S
C556 H532 0.950 . S
C556 C551 1.363 . S
C556 C555 1.415 . S
C557 H533 0.951 . S
C557 C558 1.366 . S
C557 C559 1.388 . S
C558 C557 1.366 . S
C558 C562 1.385 . S
C559 H534 0.951 . S
C559 C557 1.388 . S
C559 C560 1.366 . S
C560 C559 1.366 . S
C560 C561 1.414 . S
C560 C563 1.499 . S
C561 H535 0.950 . S
C561 C560 1.414 . S
C561 C562 1.374 . S
C562 H536 0.950 . S
C562 C558 1.385 . S
C562 C561 1.374 . S
C563 C560 1.499 . S
C563 C564 1.373 . S
C563 C565 1.389 1_554 S
C564 H537 0.950 . S
C564 C550 1.377 . S
C564 C563 1.373 . S
C565 C549 1.377 . S
C565 C563 1.389 1_556 S
C565 C566 1.524 . S
C566 C565 1.524 . S
C566 C567 1.397 . S
C566 C571 1.363 . S
C567 H538 0.950 . S
C567 C566 1.397 . S
C567 C568 1.334 . S
C568 H539 0.950 . S
C568 C567 1.334 . S
C568 C569 1.287 . S
C569 C568 1.287 . S
C569 C570 1.524 . S
C569 H572 0.999 . S
C570 H540 0.950 . S
C570 C569 1.524 . S
C570 C571 1.415 . S
C571 H541 0.950 . S
C571 C566 1.363 . S
C571 C570 1.415 . S
H572 C569 0.999 . S
H573 C554 0.913 . S
H574 C592 0.951 . S
H575 C594 0.951 . S
H576 C596 0.950 . S
H577 C597 0.950 . S
H578 C599 0.950 . S
H579 C602 0.950 . S
H580 C603 0.950 . S
H581 C605 0.950 . S
H582 C606 0.950 . S
H583 C607 0.951 . S
H584 C609 0.951 . S
H585 C611 0.950 . S
H586 C612 0.950 . S
H587 C614 0.950 . S
H588 C617 0.950 . S
H589 C618 0.950 . S
H590 C620 0.950 . S
H591 C621 0.950 . S
C592 H574 0.951 . S
C592 C593 1.366 . S
C592 C594 1.388 . S
C593 C592 1.366 . S
C593 C597 1.385 . S
C594 H575 0.951 . S
C594 C592 1.388 . S
C594 C595 1.366 . S
C595 C594 1.366 . S
C595 C596 1.414 . S
C595 C598 1.499 . S
C596 H576 0.950 . S
C596 C595 1.414 . S
C596 C597 1.374 . S
C597 H577 0.950 . S
C597 C593 1.385 . S
C597 C596 1.374 . S
C598 C595 1.499 . S
C598 C599 1.373 . S
C598 C600 1.389 . S
C599 H578 0.950 . S
C599 C598 1.373 . S
C599 C615 1.377 . S
C600 C598 1.389 . S
C600 C601 1.524 . S
C600 C614 1.377 . S
C601 C600 1.524 . S
C601 C602 1.397 . S
C601 C606 1.363 . S
C602 H579 0.950 . S
C602 C601 1.397 . S
C602 C603 1.334 . S
C603 H580 0.950 . S
C603 C602 1.334 . S
C603 C604 1.287 . S
C604 C603 1.287 . S
C604 C605 1.524 . S
C604 H623 0.913 . S
C605 H581 0.950 . S
C605 C604 1.524 . S
C605 C606 1.415 . S
C606 H582 0.950 . S
C606 C601 1.363 . S
C606 C605 1.415 . S
C607 H583 0.951 . S
C607 C608 1.366 . S
C607 C609 1.388 . S
C608 C607 1.366 . S
C608 C612 1.385 . S
C609 H584 0.951 . S
C609 C607 1.388 . S
C609 C610 1.366 . S
C610 C609 1.366 . S
C610 C611 1.414 . S
C610 C613 1.499 . S
C611 H585 0.950 . S
C611 C610 1.414 . S
C611 C612 1.374 . S
C612 H586 0.950 . S
C612 C608 1.385 . S
C612 C611 1.374 . S
C613 C610 1.499 . S
C613 C614 1.373 . S
C613 C615 1.389 . S
C614 H587 0.950 . S
C614 C600 1.377 . S
C614 C613 1.373 . S
C615 C599 1.377 . S
C615 C613 1.389 . S
C615 C616 1.524 . S
C616 C615 1.524 . S
C616 C617 1.397 . S
C616 C621 1.363 . S
C617 H588 0.950 . S
C617 C616 1.397 . S
C617 C618 1.334 . S
C618 H589 0.950 . S
C618 C617 1.334 . S
C618 C619 1.287 . S
C619 C618 1.287 . S
C619 C620 1.524 . S
C619 H622 0.999 . S
C620 H590 0.950 . S
C620 C619 1.524 . S
C620 C621 1.415 . S
C621 H591 0.950 . S
C621 C616 1.363 . S
C621 C620 1.415 . S
H622 C619 0.999 . S
H623 C604 0.913 . S
H624 C642 0.951 . S
H625 C644 0.951 . S
H626 C646 0.950 . S
H627 C647 0.950 . S
H628 C649 0.950 . S
H629 C652 0.950 . S
H630 C653 0.950 . S
H631 C655 0.950 . S
H632 C656 0.950 . S
H633 C657 0.951 . S
H634 C659 0.951 . S
H635 C661 0.950 . S
H636 C662 0.950 . S
H637 C664 0.950 . S
H638 C667 0.950 . S
H639 C668 0.950 . S
H640 C670 0.950 . S
H641 C671 0.950 . S
C642 H624 0.951 . S
C642 C643 1.366 . S
C642 C644 1.388 . S
C643 C642 1.366 . S
C643 C647 1.385 . S
C644 H625 0.951 . S
C644 C642 1.388 . S
C644 C645 1.366 . S
C645 C644 1.366 . S
C645 C646 1.414 . S
C645 C648 1.499 . S
C646 H626 0.950 . S
C646 C645 1.414 . S
C646 C647 1.374 . S
C647 H627 0.950 . S
C647 C643 1.385 . S
C647 C646 1.374 . S
C648 C645 1.499 . S
C648 C649 1.373 1_554 S
C648 C650 1.389 . S
C649 H628 0.950 . S
C649 C648 1.373 1_556 S
C649 C665 1.377 1_545 S
C650 C648 1.389 . S
C650 C651 1.524 . S
C650 C664 1.377 1_545 S
C651 C650 1.524 . S
C651 C652 1.397 . S
C651 C656 1.363 1_545 S
C652 H629 0.950 . S
C652 C651 1.397 . S
C652 C653 1.334 . S
C653 H630 0.950 . S
C653 C652 1.334 . S
C653 C654 1.287 . S
C654 C653 1.287 . S
C654 C655 1.524 1_545 S
C654 H673 0.913 . S
C655 H631 0.950 . S
C655 C654 1.524 1_565 S
C655 C656 1.415 . S
C656 H632 0.950 . S
C656 C651 1.363 1_565 S
C656 C655 1.415 . S
C657 H633 0.951 . S
C657 C658 1.366 . S
C657 C659 1.388 . S
C658 C657 1.366 . S
C658 C662 1.385 . S
C659 H634 0.951 . S
C659 C657 1.388 . S
C659 C660 1.366 . S
C660 C659 1.366 . S
C660 C661 1.414 . S
C660 C663 1.499 . S
C661 H635 0.950 . S
C661 C660 1.414 . S
C661 C662 1.374 . S
C662 H636 0.950 . S
C662 C658 1.385 . S
C662 C661 1.374 . S
C663 C660 1.499 . S
C663 C664 1.373 1_556 S
C663 C665 1.389 . S
C664 H637 0.950 . S
C664 C650 1.377 1_565 S
C664 C663 1.373 1_554 S
C665 C649 1.377 1_565 S
C665 C663 1.389 . S
C665 C666 1.524 . S
C666 C665 1.524 . S
C666 C667 1.397 . S
C666 C671 1.363 1_565 S
C667 H638 0.950 . S
C667 C666 1.397 . S
C667 C668 1.334 . S
C668 H639 0.950 . S
C668 C667 1.334 . S
C668 C669 1.287 . S
C669 C668 1.287 . S
C669 C670 1.524 1_565 S
C669 H672 0.999 . S
C670 H640 0.950 . S
C670 C669 1.524 1_545 S
C670 C671 1.415 . S
C671 H641 0.950 . S
C671 C666 1.363 1_545 S
C671 C670 1.415 . S
H672 C669 0.999 . S
H673 C654 0.913 . S
H674 C692 0.951 . S
H675 C694 0.951 . S
H676 C696 0.950 . S
H677 C697 0.950 . S
H678 C699 0.951 . S
H679 C702 0.950 . S
H680 C703 0.950 . S
H681 C705 0.950 . S
H682 C706 0.950 . S
H683 C707 0.951 . S
H684 C709 0.951 . S
H685 C711 0.950 . S
H686 C712 0.950 . S
H687 C714 0.951 . S
H688 C717 0.950 . S
H689 C718 0.950 . S
H690 C720 0.950 . S
H691 C721 0.950 . S
C692 H674 0.951 . S
C692 C693 1.366 . S
C692 C694 1.388 . S
C693 C692 1.366 . S
C693 C697 1.385 . S
C694 H675 0.951 . S
C694 C692 1.388 . S
C694 C695 1.366 . S
C695 C694 1.366 . S
C695 C696 1.414 . S
C695 C698 1.499 . S
C696 H676 0.950 . S
C696 C695 1.414 . S
C696 C697 1.374 . S
C697 H677 0.950 . S
C697 C693 1.385 . S
C697 C696 1.374 . S
C698 C695 1.499 . S
C698 C699 1.354 1_565 S
C698 C700 1.389 . S
C699 H678 0.951 . S
C699 C698 1.354 1_545 S
C699 C715 1.395 . S
C700 C698 1.389 . S
C700 C701 1.524 . S
C700 C714 1.395 . S
C701 C700 1.524 . S
C701 C702 1.397 . S
C701 C706 1.363 . S
C702 H679 0.950 . S
C702 C701 1.397 . S
C702 C703 1.334 . S
C703 H680 0.950 . S
C703 C702 1.334 . S
C703 C704 1.287 . S
C704 C703 1.287 . S
C704 C705 1.524 . S
C704 H723 0.913 . S
C705 H681 0.950 . S
C705 C704 1.524 . S
C705 C706 1.415 . S
C706 H682 0.950 . S
C706 C701 1.363 . S
C706 C705 1.415 . S
C707 H683 0.951 . S
C707 C708 1.366 . S
C707 C709 1.388 . S
C708 C707 1.366 . S
C708 C712 1.385 . S
C709 H684 0.951 . S
C709 C707 1.388 . S
C709 C710 1.366 . S
C710 C709 1.366 . S
C710 C711 1.414 . S
C710 C713 1.499 . S
C711 H685 0.950 . S
C711 C710 1.414 . S
C711 C712 1.374 . S
C712 H686 0.950 . S
C712 C708 1.385 . S
C712 C711 1.374 . S
C713 C710 1.499 . S
C713 C714 1.354 1_545 S
C713 C715 1.389 . S
C714 H687 0.951 . S
C714 C700 1.395 . S
C714 C713 1.354 1_565 S
C715 C699 1.395 . S
C715 C713 1.389 . S
C715 C716 1.524 . S
C716 C715 1.524 . S
C716 C717 1.397 . S
C716 C721 1.363 . S
C717 H688 0.950 . S
C717 C716 1.397 . S
C717 C718 1.334 . S
C718 H689 0.950 . S
C718 C717 1.334 . S
C718 C719 1.287 . S
C719 C718 1.287 . S
C719 C720 1.524 . S
C719 H722 0.999 . S
C720 H690 0.950 . S
C720 C719 1.524 . S
C720 C721 1.415 . S
C721 H691 0.950 . S
C721 C716 1.363 . S
C721 C720 1.415 . S
H722 C719 0.999 . S
H723 C704 0.913 . S
H724 C742 0.951 . S
H725 C744 0.951 . S
H726 C746 0.950 . S
H727 C747 0.950 . S
H728 C749 0.950 . S
H729 C752 0.948 . S
H730 C753 0.950 1_565 S
H731 C755 0.950 . S
H732 C756 0.950 . S
H733 C757 0.951 . S
H734 C759 0.951 . S
H735 C761 0.950 . S
H736 C762 0.950 . S
H737 C764 0.950 . S
H738 C767 0.948 . S
H739 C768 0.950 1_545 S
H740 C770 0.950 . S
H741 C771 0.950 . S
C742 H724 0.951 . S
C742 C743 1.366 . S
C742 C744 1.388 . S
C743 C742 1.366 . S
C743 C747 1.385 . S
C744 H725 0.951 . S
C744 C742 1.388 . S
C744 C745 1.366 . S
C745 C744 1.366 . S
C745 C746 1.414 . S
C745 C748 1.499 . S
C746 H726 0.950 . S
C746 C745 1.414 . S
C746 C747 1.374 . S
C747 H727 0.950 . S
C747 C743 1.385 . S
C747 C746 1.374 . S
C748 C745 1.499 . S
C748 C749 1.373 1_556 S
C748 C750 1.389 1_565 S
C749 H728 0.950 . S
C749 C748 1.373 1_554 S
C749 C765 1.377 . S
C750 C748 1.389 1_545 S
C750 C751 1.524 . S
C750 C764 1.377 . S
C751 C750 1.524 . S
C751 C752 1.398 1_545 S
C751 C756 1.363 . S
C752 H729 0.948 . S
C752 C751 1.398 1_565 S
C752 C753 1.335 1_565 S
C753 H730 0.950 1_545 S
C753 C752 1.335 1_545 S
C753 C754 1.287 . S
C754 C753 1.287 . S
C754 C755 1.524 . S
C754 H773 0.913 . S
C755 H731 0.950 . S
C755 C754 1.524 . S
C755 C756 1.415 . S
C756 H732 0.950 . S
C756 C751 1.363 . S
C756 C755 1.415 . S
C757 H733 0.951 . S
C757 C758 1.366 . S
C757 C759 1.388 . S
C758 C757 1.366 . S
C758 C762 1.385 . S
C759 H734 0.951 . S
C759 C757 1.388 . S
C759 C760 1.366 . S
C760 C759 1.366 . S
C760 C761 1.414 . S
C760 C763 1.499 . S
C761 H735 0.950 . S
C761 C760 1.414 . S
C761 C762 1.374 . S
C762 H736 0.950 . S
C762 C758 1.385 . S
C762 C761 1.374 . S
C763 C760 1.499 . S
C763 C764 1.373 1_554 S
C763 C765 1.389 1_545 S
C764 H737 0.950 . S
C764 C750 1.377 . S
C764 C763 1.373 1_556 S
C765 C749 1.377 . S
C765 C763 1.389 1_565 S
C765 C766 1.524 . S
C766 C765 1.524 . S
C766 C767 1.398 1_565 S
C766 C771 1.363 . S
C767 H738 0.948 . S
C767 C766 1.398 1_545 S
C767 C768 1.335 1_545 S
C768 H739 0.950 1_565 S
C768 C767 1.335 1_565 S
C768 C769 1.287 . S
C769 C768 1.287 . S
C769 C770 1.524 . S
C769 H772 0.999 . S
C770 H740 0.950 . S
C770 C769 1.524 . S
C770 C771 1.415 . S
C771 H741 0.950 . S
C771 C766 1.363 . S
C771 C770 1.415 . S
H772 C769 0.999 . S
H773 C754 0.913 . S
H774 C792 0.951 . S
H775 C794 0.951 . S
H776 C796 0.950 . S
H777 C797 0.950 . S
H778 C799 0.950 . S
H779 C802 0.950 . S
H780 C803 0.950 . S
H781 C805 0.950 . S
H782 C806 0.950 . S
H783 C807 0.951 . S
H784 C809 0.951 . S
H785 C811 0.950 . S
H786 C812 0.950 . S
H787 C814 0.950 . S
H788 C817 0.950 . S
H789 C818 0.950 . S
H790 C820 0.950 . S
H791 C821 0.950 . S
C792 H774 0.951 . S
C792 C793 1.366 . S
C792 C794 1.388 . S
C793 C792 1.366 . S
C793 C797 1.385 . S
C794 H775 0.951 . S
C794 C792 1.388 . S
C794 C795 1.366 . S
C795 C794 1.366 . S
C795 C796 1.414 . S
C795 C798 1.499 . S
C796 H776 0.950 . S
C796 C795 1.414 . S
C796 C797 1.374 . S
C797 H777 0.950 . S
C797 C793 1.385 . S
C797 C796 1.374 . S
C798 C795 1.499 . S
C798 C799 1.373 . S
C798 C800 1.389 . S
C799 H778 0.950 . S
C799 C798 1.373 . S
C799 C815 1.377 1_545 S
C800 C798 1.389 . S
C800 C801 1.524 . S
C800 C814 1.377 1_545 S
C801 C800 1.524 . S
C801 C802 1.397 . S
C801 C806 1.363 . S
C802 H779 0.950 . S
C802 C801 1.397 . S
C802 C803 1.334 . S
C803 H780 0.950 . S
C803 C802 1.334 . S
C803 C804 1.287 . S
C804 C803 1.287 . S
C804 C805 1.524 . S
C804 H823 0.913 . S
C805 H781 0.950 . S
C805 C804 1.524 . S
C805 C806 1.415 . S
C806 H782 0.950 . S
C806 C801 1.363 . S
C806 C805 1.415 . S
C807 H783 0.951 . S
C807 C808 1.366 . S
C807 C809 1.388 . S
C808 C807 1.366 . S
C808 C812 1.385 . S
C809 H784 0.951 . S
C809 C807 1.388 . S
C809 C810 1.366 . S
C810 C809 1.366 . S
C810 C811 1.414 . S
C810 C813 1.499 . S
C811 H785 0.950 . S
C811 C810 1.414 . S
C811 C812 1.374 . S
C812 H786 0.950 . S
C812 C808 1.385 . S
C812 C811 1.374 . S
C813 C810 1.499 . S
C813 C814 1.373 . S
C813 C815 1.389 . S
C814 H787 0.950 . S
C814 C800 1.377 1_565 S
C814 C813 1.373 . S
C815 C799 1.377 1_565 S
C815 C813 1.389 . S
C815 C816 1.524 . S
C816 C815 1.524 . S
C816 C817 1.397 . S
C816 C821 1.363 . S
C817 H788 0.950 . S
C817 C816 1.397 . S
C817 C818 1.334 . S
C818 H789 0.950 . S
C818 C817 1.334 . S
C818 C819 1.287 . S
C819 C818 1.287 . S
C819 C820 1.524 . S
C819 H822 0.999 . S
C820 H790 0.950 . S
C820 C819 1.524 . S
C820 C821 1.415 . S
C821 H791 0.950 . S
C821 C816 1.363 . S
C821 C820 1.415 . S
H822 C819 0.999 . S
H823 C804 0.913 . S
H824 C842 0.951 . S
H825 C844 0.951 . S
H826 C846 0.950 . S
H827 C847 0.950 . S
H828 C849 0.950 . S
H829 C852 0.950 . S
H830 C853 0.950 . S
H831 C855 0.950 . S
H832 C856 0.950 . S
H833 C857 0.951 . S
H834 C859 0.951 . S
H835 C861 0.950 . S
H836 C862 0.950 . S
H837 C864 0.950 . S
H838 C867 0.950 . S
H839 C868 0.950 . S
H840 C870 0.950 . S
H841 C871 0.950 . S
C842 H824 0.951 . S
C842 C843 1.366 . S
C842 C844 1.388 . S
C843 C842 1.366 . S
C843 C847 1.385 . S
C844 H825 0.951 . S
C844 C842 1.388 . S
C844 C845 1.366 . S
C845 C844 1.366 . S
C845 C846 1.414 . S
C845 C848 1.499 . S
C846 H826 0.950 . S
C846 C845 1.414 . S
C846 C847 1.374 . S
C847 H827 0.950 . S
C847 C843 1.385 . S
C847 C846 1.374 . S
C848 C845 1.499 . S
C848 C849 1.373 . S
C848 C850 1.389 1_556 S
C849 H828 0.950 . S
C849 C848 1.373 . S
C849 C865 1.377 . S
C850 C848 1.389 1_554 S
C850 C851 1.524 . S
C850 C864 1.377 . S
C851 C850 1.524 . S
C851 C852 1.397 . S
C851 C856 1.363 . S
C852 H829 0.950 . S
C852 C851 1.397 . S
C852 C853 1.334 . S
C853 H830 0.950 . S
C853 C852 1.334 . S
C853 C854 1.287 . S
C854 C853 1.287 . S
C854 C855 1.524 . S
C854 H873 0.913 . S
C855 H831 0.950 . S
C855 C854 1.524 . S
C855 C856 1.415 . S
C856 H832 0.950 . S
C856 C851 1.363 . S
C856 C855 1.415 . S
C857 H833 0.951 . S
C857 C858 1.366 . S
C857 C859 1.388 . S
C858 C857 1.366 . S
C858 C862 1.385 . S
C859 H834 0.951 . S
C859 C857 1.388 . S
C859 C860 1.366 . S
C860 C859 1.366 . S
C860 C861 1.414 . S
C860 C863 1.499 . S
C861 H835 0.950 . S
C861 C860 1.414 . S
C861 C862 1.374 . S
C862 H836 0.950 . S
C862 C858 1.385 . S
C862 C861 1.374 . S
C863 C860 1.499 . S
C863 C864 1.373 . S
C863 C865 1.389 1_554 S
C864 H837 0.950 . S
C864 C850 1.377 . S
C864 C863 1.373 . S
C865 C849 1.377 . S
C865 C863 1.389 1_556 S
C865 C866 1.524 . S
C866 C865 1.524 . S
C866 C867 1.397 . S
C866 C871 1.363 . S
C867 H838 0.950 . S
C867 C866 1.397 . S
C867 C868 1.334 . S
C868 H839 0.950 . S
C868 C867 1.334 . S
C868 C869 1.287 . S
C869 C868 1.287 . S
C869 C870 1.524 . S
C869 H872 0.999 . S
C870 H840 0.950 . S
C870 C869 1.524 . S
C870 C871 1.415 . S
C871 H841 0.950 . S
C871 C866 1.363 . S
C871 C870 1.415 . S
H872 C869 0.999 . S
H873 C854 0.913 . S
H874 C892 0.951 . S
H875 C894 0.951 . S
H876 C896 0.950 . S
H877 C897 0.950 . S
H878 C899 0.950 . S
H879 C902 0.950 . S
H880 C903 0.950 . S
H881 C905 0.950 . S
H882 C906 0.950 . S
H883 C907 0.951 . S
H884 C909 0.951 . S
H885 C911 0.950 . S
H886 C912 0.950 . S
H887 C914 0.950 . S
H888 C917 0.950 . S
H889 C918 0.950 . S
H890 C920 0.950 . S
H891 C921 0.950 . S
C892 H874 0.951 . S
C892 C893 1.366 . S
C892 C894 1.388 . S
C893 C892 1.366 . S
C893 C897 1.385 . S
C894 H875 0.951 . S
C894 C892 1.388 . S
C894 C895 1.366 . S
C895 C894 1.366 . S
C895 C896 1.414 . S
C895 C898 1.499 . S
C896 H876 0.950 . S
C896 C895 1.414 . S
C896 C897 1.374 . S
C897 H877 0.950 . S
C897 C893 1.385 . S
C897 C896 1.374 . S
C898 C895 1.499 . S
C898 C899 1.373 . S
C898 C900 1.389 . S
C899 H878 0.950 . S
C899 C898 1.373 . S
C899 C915 1.377 . S
C900 C898 1.389 . S
C900 C901 1.524 . S
C900 C914 1.377 . S
C901 C900 1.524 . S
C901 C902 1.397 . S
C901 C906 1.363 . S
C902 H879 0.950 . S
C902 C901 1.397 . S
C902 C903 1.334 . S
C903 H880 0.950 . S
C903 C902 1.334 . S
C903 C904 1.287 . S
C904 C903 1.287 . S
C904 C905 1.524 . S
C904 H923 0.913 . S
C905 H881 0.950 . S
C905 C904 1.524 . S
C905 C906 1.415 . S
C906 H882 0.950 . S
C906 C901 1.363 . S
C906 C905 1.415 . S
C907 H883 0.951 . S
C907 C908 1.366 . S
C907 C909 1.388 . S
C908 C907 1.366 . S
C908 C912 1.385 . S
C909 H884 0.951 . S
C909 C907 1.388 . S
C909 C910 1.366 . S
C910 C909 1.366 . S
C910 C911 1.414 . S
C910 C913 1.499 . S
C911 H885 0.950 . S
C911 C910 1.414 . S
C911 C912 1.374 . S
C912 H886 0.950 . S
C912 C908 1.385 . S
C912 C911 1.374 . S
C913 C910 1.499 . S
C913 C914 1.373 . S
C913 C915 1.389 . S
C914 H887 0.950 . S
C914 C900 1.377 . S
C914 C913 1.373 . S
C915 C899 1.377 . S
C915 C913 1.389 . S
C915 C916 1.524 . S
C916 C915 1.524 . S
C916 C917 1.397 . S
C916 C921 1.363 . S
C917 H888 0.950 . S
C917 C916 1.397 . S
C917 C918 1.334 . S
C918 H889 0.950 . S
C918 C917 1.334 . S
C918 C919 1.287 . S
C919 C918 1.287 . S
C919 C920 1.524 . S
C919 H922 0.999 . S
C920 H890 0.950 . S
C920 C919 1.524 . S
C920 C921 1.415 . S
C921 H891 0.950 . S
C921 C916 1.363 . S
C921 C920 1.415 . S
H922 C919 0.999 . S
H923 C904 0.913 . S
H924 C942 0.951 . S
H925 C944 0.951 . S
H926 C946 0.950 . S
H927 C947 0.950 . S
H928 C949 0.950 . S
H929 C952 0.950 . S
H930 C953 0.950 . S
H931 C955 0.951 . S
H932 C956 0.950 . S
H933 C957 0.951 . S
H934 C959 0.951 . S
H935 C961 0.950 . S
H936 C962 0.950 . S
H937 C964 0.950 . S
H938 C967 0.950 . S
H939 C968 0.950 . S
H940 C970 0.951 . S
H941 C971 0.950 . S
C942 H924 0.951 . S
C942 C943 1.366 . S
C942 C944 1.388 . S
C943 C942 1.366 . S
C943 C947 1.385 . S
C944 H925 0.951 . S
C944 C942 1.388 . S
C944 C945 1.366 . S
C945 C944 1.366 . S
C945 C946 1.414 . S
C945 C948 1.499 . S
C946 H926 0.950 . S
C946 C945 1.414 . S
C946 C947 1.374 . S
C947 H927 0.950 . S
C947 C943 1.385 . S
C947 C946 1.374 . S
C948 C945 1.499 . S
C948 C949 1.373 . S
C948 C950 1.389 . S
C949 H928 0.950 . S
C949 C948 1.373 . S
C949 C965 1.377 1_554 S
C950 C948 1.389 . S
C950 C951 1.524 . S
C950 C964 1.377 1_554 S
C951 C950 1.524 . S
C951 C952 1.397 . S
C951 C956 1.363 1_554 S
C952 H929 0.950 . S
C952 C951 1.397 . S
C952 C953 1.334 . S
C953 H930 0.950 . S
C953 C952 1.334 . S
C953 C954 1.287 . S
C954 C953 1.287 . S
C954 C955 1.521 1_554 S
C954 H973 0.913 . S
C955 H931 0.951 . S
C955 C954 1.521 1_556 S
C955 C956 1.416 . S
C956 H932 0.950 . S
C956 C951 1.363 1_556 S
C956 C955 1.416 . S
C957 H933 0.951 . S
C957 C958 1.366 . S
C957 C959 1.388 . S
C958 C957 1.366 . S
C958 C962 1.385 . S
C959 H934 0.951 . S
C959 C957 1.388 . S
C959 C960 1.366 . S
C960 C959 1.366 . S
C960 C961 1.414 . S
C960 C963 1.499 . S
C961 H935 0.950 . S
C961 C960 1.414 . S
C961 C962 1.374 . S
C962 H936 0.950 . S
C962 C958 1.385 . S
C962 C961 1.374 . S
C963 C960 1.499 . S
C963 C964 1.373 . S
C963 C965 1.389 . S
C964 H937 0.950 . S
C964 C950 1.377 1_556 S
C964 C963 1.373 . S
C965 C949 1.377 1_556 S
C965 C963 1.389 . S
C965 C966 1.524 . S
C966 C965 1.524 . S
C966 C967 1.397 . S
C966 C971 1.363 1_556 S
C967 H938 0.950 . S
C967 C966 1.397 . S
C967 C968 1.334 . S
C968 H939 0.950 . S
C968 C967 1.334 . S
C968 C969 1.287 . S
C969 C968 1.287 . S
C969 C970 1.521 1_556 S
C969 H972 0.999 . S
C970 H940 0.951 . S
C970 C969 1.521 1_554 S
C970 C971 1.415 . S
C971 H941 0.950 . S
C971 C966 1.363 1_554 S
C971 C970 1.415 . S
H972 C969 0.999 . S
H973 C954 0.913 . S
H974 C992 0.951 . S
H975 C994 0.951 . S
H976 C996 0.950 . S
H977 C997 0.950 . S
H978 C999 0.950 . S
H979 C1002 0.950 . S
H980 C1003 0.950 . S
H981 C1005 0.950 . S
H982 C1006 0.950 . S
H983 C1007 0.951 . S
H984 C1009 0.951 . S
H985 C1011 0.950 . S
H986 C1012 0.950 . S
H987 C1014 0.950 . S
H988 C1017 0.950 . S
H989 C1018 0.950 . S
H990 C1020 0.950 . S
H991 C1021 0.950 . S
C992 H974 0.951 . S
C992 C993 1.366 . S
C992 C994 1.388 . S
C993 C992 1.366 . S
C993 C997 1.385 . S
C994 H975 0.951 . S
C994 C992 1.388 . S
C994 C995 1.366 . S
C995 C994 1.366 . S
C995 C996 1.414 . S
C995 C998 1.499 . S
C996 H976 0.950 . S
C996 C995 1.414 . S
C996 C997 1.374 . S
C997 H977 0.950 . S
C997 C993 1.385 . S
C997 C996 1.374 . S
C998 C995 1.499 . S
C998 C999 1.373 . S
C998 C1000 1.389 . S
C999 H978 0.950 . S
C999 C998 1.373 . S
C999 C1015 1.377 . S
C1000 C998 1.389 . S
C1000 C1001 1.524 . S
C1000 C1014 1.377 . S
C1001 C1000 1.524 . S
C1001 C1002 1.397 . S
C1001 C1006 1.363 . S
C1002 H979 0.950 . S
C1002 C1001 1.397 . S
C1002 C1003 1.334 . S
C1003 H980 0.950 . S
C1003 C1002 1.334 . S
C1003 C1004 1.287 . S
C1004 C1003 1.287 . S
C1004 C1005 1.524 . S
C1004 H1023 0.913 . S
C1005 H981 0.950 . S
C1005 C1004 1.524 . S
C1005 C1006 1.415 . S
C1006 H982 0.950 . S
C1006 C1001 1.363 . S
C1006 C1005 1.415 . S
C1007 H983 0.951 . S
C1007 C1008 1.366 . S
C1007 C1009 1.388 . S
C1008 C1007 1.366 . S
C1008 C1012 1.385 . S
C1009 H984 0.951 . S
C1009 C1007 1.388 . S
C1009 C1010 1.366 . S
C1010 C1009 1.366 . S
C1010 C1011 1.414 . S
C1010 C1013 1.499 . S
C1011 H985 0.950 . S
C1011 C1010 1.414 . S
C1011 C1012 1.374 . S
C1012 H986 0.950 . S
C1012 C1008 1.385 . S
C1012 C1011 1.374 . S
C1013 C1010 1.499 . S
C1013 C1014 1.373 . S
C1013 C1015 1.389 . S
C1014 H987 0.950 . S
C1014 C1000 1.377 . S
C1014 C1013 1.373 . S
C1015 C999 1.377 . S
C1015 C1013 1.389 . S
C1015 C1016 1.524 . S
C1016 C1015 1.524 . S
C1016 C1017 1.397 . S
C1016 C1021 1.363 . S
C1017 H988 0.950 . S
C1017 C1016 1.397 . S
C1017 C1018 1.334 . S
C1018 H989 0.950 . S
C1018 C1017 1.334 . S
C1018 C1019 1.287 . S
C1019 C1018 1.287 . S
C1019 C1020 1.524 . S
C1019 H1022 0.999 . S
C1020 H990 0.950 . S
C1020 C1019 1.524 . S
C1020 C1021 1.415 . S
C1021 H991 0.950 . S
C1021 C1016 1.363 . S
C1021 C1020 1.415 . S
H1022 C1019 0.999 . S
H1023 C1004 0.913 . S
H1024 C1042 0.951 . S
H1025 C1044 0.951 . S
H1026 C1046 0.950 . S
H1027 C1047 0.950 . S
H1028 C1049 0.950 . S
H1029 C1052 0.950 . S
H1030 C1053 0.950 . S
H1031 C1055 0.950 . S
H1032 C1056 0.950 . S
H1033 C1057 0.951 . S
H1034 C1059 0.951 . S
H1035 C1061 0.950 . S
H1036 C1062 0.950 . S
H1037 C1064 0.950 . S
H1038 C1067 0.950 . S
H1039 C1068 0.950 . S
H1040 C1070 0.950 . S
H1041 C1071 0.950 . S
C1042 H1024 0.951 . S
C1042 C1043 1.366 . S
C1042 C1044 1.388 . S
C1043 C1042 1.366 . S
C1043 C1047 1.385 . S
C1044 H1025 0.951 . S
C1044 C1042 1.388 . S
C1044 C1045 1.366 . S
C1045 C1044 1.366 . S
C1045 C1046 1.414 . S
C1045 C1048 1.499 . S
C1046 H1026 0.950 . S
C1046 C1045 1.414 . S
C1046 C1047 1.374 . S
C1047 H1027 0.950 . S
C1047 C1043 1.385 . S
C1047 C1046 1.374 . S
C1048 C1045 1.499 . S
C1048 C1049 1.373 . S
C1048 C1050 1.389 . S
C1049 H1028 0.950 . S
C1049 C1048 1.373 . S
C1049 C1065 1.377 . S
C1050 C1048 1.389 . S
C1050 C1051 1.524 . S
C1050 C1064 1.377 . S
C1051 C1050 1.524 . S
C1051 C1052 1.397 . S
C1051 C1056 1.363 . S
C1052 H1029 0.950 . S
C1052 C1051 1.397 . S
C1052 C1053 1.334 . S
C1053 H1030 0.950 . S
C1053 C1052 1.334 . S
C1053 C1054 1.287 . S
C1054 C1053 1.287 . S
C1054 C1055 1.524 . S
C1054 H1073 0.913 . S
C1055 H1031 0.950 . S
C1055 C1054 1.524 . S
C1055 C1056 1.415 . S
C1056 H1032 0.950 . S
C1056 C1051 1.363 . S
C1056 C1055 1.415 . S
C1057 H1033 0.951 . S
C1057 C1058 1.366 . S
C1057 C1059 1.388 . S
C1058 C1057 1.366 . S
C1058 C1062 1.385 . S
C1059 H1034 0.951 . S
C1059 C1057 1.388 . S
C1059 C1060 1.366 . S
C1060 C1059 1.366 . S
C1060 C1061 1.414 . S
C1060 C1063 1.499 . S
C1061 H1035 0.950 . S
C1061 C1060 1.414 . S
C1061 C1062 1.374 . S
C1062 H1036 0.950 . S
C1062 C1058 1.385 . S
C1062 C1061 1.374 . S
C1063 C1060 1.499 . S
C1063 C1064 1.373 . S
C1063 C1065 1.389 . S
C1064 H1037 0.950 . S
C1064 C1050 1.377 . S
C1064 C1063 1.373 . S
C1065 C1049 1.377 . S
C1065 C1063 1.389 . S
C1065 C1066 1.524 . S
C1066 C1065 1.524 . S
C1066 C1067 1.397 . S
C1066 C1071 1.363 . S
C1067 H1038 0.950 . S
C1067 C1066 1.397 . S
C1067 C1068 1.334 . S
C1068 H1039 0.950 . S
C1068 C1067 1.334 . S
C1068 C1069 1.287 . S
C1069 C1068 1.287 . S
C1069 C1070 1.524 . S
C1069 H1072 0.999 . S
C1070 H1040 0.950 . S
C1070 C1069 1.524 . S
C1070 C1071 1.415 . S
C1071 H1041 0.950 . S
C1071 C1066 1.363 . S
C1071 C1070 1.415 . S
H1072 C1069 0.999 . S
H1073 C1054 0.913 . S
H1074 C1092 0.951 . S
H1075 C1094 0.951 . S
H1076 C1096 0.950 . S
H1077 C1097 0.950 . S
H1078 C1099 0.950 . S
H1079 C1102 0.950 . S
H1080 C1103 0.950 . S
H1081 C1105 0.950 . S
H1082 C1106 0.950 . S
H1083 C1107 0.951 . S
H1084 C1109 0.951 . S
H1085 C1111 0.950 . S
H1086 C1112 0.950 . S
H1087 C1114 0.950 . S
H1088 C1117 0.950 . S
H1089 C1118 0.950 . S
H1090 C1120 0.950 . S
H1091 C1121 0.950 . S
C1092 H1074 0.951 . S
C1092 C1093 1.366 . S
C1092 C1094 1.388 . S
C1093 C1092 1.366 . S
C1093 C1097 1.385 . S
C1094 H1075 0.951 . S
C1094 C1092 1.388 . S
C1094 C1095 1.366 . S
C1095 C1094 1.366 . S
C1095 C1096 1.414 . S
C1095 C1098 1.499 . S
C1096 H1076 0.950 . S
C1096 C1095 1.414 . S
C1096 C1097 1.374 . S
C1097 H1077 0.950 . S
C1097 C1093 1.385 . S
C1097 C1096 1.374 . S
C1098 C1095 1.499 . S
C1098 C1099 1.373 . S
C1098 C1100 1.389 . S
C1099 H1078 0.950 . S
C1099 C1098 1.373 . S
C1099 C1115 1.377 1_655 S
C1100 C1098 1.389 . S
C1100 C1101 1.524 . S
C1100 C1114 1.377 1_655 S
C1101 C1100 1.524 . S
C1101 C1102 1.397 . S
C1101 C1106 1.363 . S
C1102 H1079 0.950 . S
C1102 C1101 1.397 . S
C1102 C1103 1.334 . S
C1103 H1080 0.950 . S
C1103 C1102 1.334 . S
C1103 C1104 1.287 . S
C1104 C1103 1.287 . S
C1104 C1105 1.524 . S
C1104 H1123 0.913 . S
C1105 H1081 0.950 . S
C1105 C1104 1.524 . S
C1105 C1106 1.415 . S
C1106 H1082 0.950 . S
C1106 C1101 1.363 . S
C1106 C1105 1.415 . S
C1107 H1083 0.951 . S
C1107 C1108 1.366 . S
C1107 C1109 1.388 . S
C1108 C1107 1.366 . S
C1108 C1112 1.385 . S
C1109 H1084 0.951 . S
C1109 C1107 1.388 . S
C1109 C1110 1.366 . S
C1110 C1109 1.366 . S
C1110 C1111 1.414 . S
C1110 C1113 1.499 . S
C1111 H1085 0.950 . S
C1111 C1110 1.414 . S
C1111 C1112 1.374 . S
C1112 H1086 0.950 . S
C1112 C1108 1.385 . S
C1112 C1111 1.374 . S
C1113 C1110 1.499 . S
C1113 C1114 1.373 . S
C1113 C1115 1.389 . S
C1114 H1087 0.950 . S
C1114 C1100 1.377 1_455 S
C1114 C1113 1.373 . S
C1115 C1099 1.377 1_455 S
C1115 C1113 1.389 . S
C1115 C1116 1.524 . S
C1116 C1115 1.524 . S
C1116 C1117 1.397 . S
C1116 C1121 1.363 . S
C1117 H1088 0.950 . S
C1117 C1116 1.397 . S
C1117 C1118 1.334 . S
C1118 H1089 0.950 . S
C1118 C1117 1.334 . S
C1118 C1119 1.287 . S
C1119 C1118 1.287 . S
C1119 C1120 1.524 . S
C1119 H1122 0.999 . S
C1120 H1090 0.950 . S
C1120 C1119 1.524 . S
C1120 C1121 1.415 . S
C1121 H1091 0.950 . S
C1121 C1116 1.363 . S
C1121 C1120 1.415 . S
H1122 C1119 0.999 . S
H1123 C1104 0.913 . S
H1124 C1142 0.951 . S
H1125 C1144 0.951 . S
H1126 C1146 0.950 . S
H1127 C1147 0.950 . S
H1128 C1149 0.950 . S
H1129 C1152 0.950 . S
H1130 C1153 0.950 . S
H1131 C1155 0.950 . S
H1132 C1156 0.950 . S
H1133 C1157 0.951 . S
H1134 C1159 0.951 . S
H1135 C1161 0.950 . S
H1136 C1162 0.950 . S
H1137 C1164 0.950 . S
H1138 C1167 0.950 . S
H1139 C1168 0.950 . S
H1140 C1170 0.950 . S
H1141 C1171 0.950 . S
C1142 H1124 0.951 . S
C1142 C1143 1.366 . S
C1142 C1144 1.388 . S
C1143 C1142 1.366 . S
C1143 C1147 1.385 . S
C1144 H1125 0.951 . S
C1144 C1142 1.388 . S
C1144 C1145 1.366 . S
C1145 C1144 1.366 . S
C1145 C1146 1.414 . S
C1145 C1148 1.499 . S
C1146 H1126 0.950 . S
C1146 C1145 1.414 . S
C1146 C1147 1.374 . S
C1147 H1127 0.950 . S
C1147 C1143 1.385 . S
C1147 C1146 1.374 . S
C1148 C1145 1.499 . S
C1148 C1149 1.373 . S
C1148 C1150 1.389 . S
C1149 H1128 0.950 . S
C1149 C1148 1.373 . S
C1149 C1165 1.377 . S
C1150 C1148 1.389 . S
C1150 C1151 1.524 . S
C1150 C1164 1.377 . S
C1151 C1150 1.524 . S
C1151 C1152 1.397 . S
C1151 C1156 1.363 . S
C1152 H1129 0.950 . S
C1152 C1151 1.397 . S
C1152 C1153 1.334 . S
C1153 H1130 0.950 . S
C1153 C1152 1.334 . S
C1153 C1154 1.287 . S
C1154 C1153 1.287 . S
C1154 C1155 1.524 . S
C1154 H1173 0.913 . S
C1155 H1131 0.950 . S
C1155 C1154 1.524 . S
C1155 C1156 1.415 . S
C1156 H1132 0.950 . S
C1156 C1151 1.363 . S
C1156 C1155 1.415 . S
C1157 H1133 0.951 . S
C1157 C1158 1.366 . S
C1157 C1159 1.388 . S
C1158 C1157 1.366 . S
C1158 C1162 1.385 . S
C1159 H1134 0.951 . S
C1159 C1157 1.388 . S
C1159 C1160 1.366 . S
C1160 C1159 1.366 . S
C1160 C1161 1.414 . S
C1160 C1163 1.499 . S
C1161 H1135 0.950 . S
C1161 C1160 1.414 . S
C1161 C1162 1.374 . S
C1162 H1136 0.950 . S
C1162 C1158 1.385 . S
C1162 C1161 1.374 . S
C1163 C1160 1.499 . S
C1163 C1164 1.373 . S
C1163 C1165 1.389 . S
C1164 H1137 0.950 . S
C1164 C1150 1.377 . S
C1164 C1163 1.373 . S
C1165 C1149 1.377 . S
C1165 C1163 1.389 . S
C1165 C1166 1.524 . S
C1166 C1165 1.524 . S
C1166 C1167 1.397 . S
C1166 C1171 1.363 . S
C1167 H1138 0.950 . S
C1167 C1166 1.397 . S
C1167 C1168 1.334 . S
C1168 H1139 0.950 . S
C1168 C1167 1.334 . S
C1168 C1169 1.287 . S
C1169 C1168 1.287 . S
C1169 C1170 1.524 . S
C1169 H1172 0.999 . S
C1170 H1140 0.950 . S
C1170 C1169 1.524 . S
C1170 C1171 1.415 . S
C1171 H1141 0.950 . S
C1171 C1166 1.363 . S
C1171 C1170 1.415 . S
H1172 C1169 0.999 . S
H1173 C1154 0.913 . S
H1174 C1192 0.951 . S
H1175 C1194 0.951 . S
H1176 C1196 0.950 . S
H1177 C1197 0.950 . S
H1178 C1199 0.950 . S
H1179 C1202 0.950 . S
H1180 C1203 0.950 . S
H1181 C1205 0.950 . S
H1182 C1206 0.950 . S
H1183 C1207 0.951 . S
H1184 C1209 0.951 . S
H1185 C1211 0.950 . S
H1186 C1212 0.950 . S
H1187 C1214 0.950 . S
H1188 C1217 0.950 . S
H1189 C1218 0.950 . S
H1190 C1220 0.950 . S
H1191 C1221 0.950 . S
C1192 H1174 0.951 . S
C1192 C1193 1.366 . S
C1192 C1194 1.388 . S
C1193 C1192 1.366 . S
C1193 C1197 1.385 . S
C1194 H1175 0.951 . S
C1194 C1192 1.388 . S
C1194 C1195 1.366 . S
C1195 C1194 1.366 . S
C1195 C1196 1.414 . S
C1195 C1198 1.499 . S
C1196 H1176 0.950 . S
C1196 C1195 1.414 . S
C1196 C1197 1.374 . S
C1197 H1177 0.950 . S
C1197 C1193 1.385 . S
C1197 C1196 1.374 . S
C1198 C1195 1.499 . S
C1198 C1199 1.373 . S
C1198 C1200 1.389 . S
C1199 H1178 0.950 . S
C1199 C1198 1.373 . S
C1199 C1215 1.377 1_455 S
C1200 C1198 1.389 . S
C1200 C1201 1.524 . S
C1200 C1214 1.377 1_455 S
C1201 C1200 1.524 . S
C1201 C1202 1.397 . S
C1201 C1206 1.363 . S
C1202 H1179 0.950 . S
C1202 C1201 1.397 . S
C1202 C1203 1.334 . S
C1203 H1180 0.950 . S
C1203 C1202 1.334 . S
C1203 C1204 1.287 . S
C1204 C1203 1.287 . S
C1204 C1205 1.524 . S
C1204 H1223 0.913 . S
C1205 H1181 0.950 . S
C1205 C1204 1.524 . S
C1205 C1206 1.415 . S
C1206 H1182 0.950 . S
C1206 C1201 1.363 . S
C1206 C1205 1.415 . S
C1207 H1183 0.951 . S
C1207 C1208 1.366 . S
C1207 C1209 1.388 . S
C1208 C1207 1.366 . S
C1208 C1212 1.385 . S
C1209 H1184 0.951 . S
C1209 C1207 1.388 . S
C1209 C1210 1.366 . S
C1210 C1209 1.366 . S
C1210 C1211 1.414 . S
C1210 C1213 1.499 . S
C1211 H1185 0.950 . S
C1211 C1210 1.414 . S
C1211 C1212 1.374 . S
C1212 H1186 0.950 . S
C1212 C1208 1.385 . S
C1212 C1211 1.374 . S
C1213 C1210 1.499 . S
C1213 C1214 1.373 . S
C1213 C1215 1.389 . S
C1214 H1187 0.950 . S
C1214 C1200 1.377 1_655 S
C1214 C1213 1.373 . S
C1215 C1199 1.377 1_655 S
C1215 C1213 1.389 . S
C1215 C1216 1.524 . S
C1216 C1215 1.524 . S
C1216 C1217 1.397 . S
C1216 C1221 1.363 . S
C1217 H1188 0.950 . S
C1217 C1216 1.397 . S
C1217 C1218 1.334 . S
C1218 H1189 0.950 . S
C1218 C1217 1.334 . S
C1218 C1219 1.287 . S
C1219 C1218 1.287 . S
C1219 C1220 1.524 . S
C1219 H1222 0.999 . S
C1220 H1190 0.950 . S
C1220 C1219 1.524 . S
C1220 C1221 1.415 . S
C1221 H1191 0.950 . S
C1221 C1216 1.363 . S
C1221 C1220 1.415 . S
H1222 C1219 0.999 . S
H1223 C1204 0.913 . S
H1224 C1242 0.951 . S
H1225 C1244 0.951 . S
H1226 C1246 0.950 . S
H1227 C1247 0.950 . S
H1228 C1249 0.950 . S
H1229 C1252 0.950 . S
H1230 C1253 0.950 . S
H1231 C1255 0.950 1_556 S
H1232 C1256 0.950 . S
H1233 C1257 0.951 . S
H1234 C1259 0.951 . S
H1235 C1261 0.950 . S
H1236 C1262 0.950 . S
H1237 C1264 0.950 . S
H1238 C1267 0.950 . S
H1239 C1268 0.950 . S
H1240 C1270 0.950 . S
H1241 C1271 0.950 . S
C1242 H1224 0.951 . S
C1242 C1243 1.366 . S
C1242 C1244 1.388 . S
C1243 C1242 1.366 . S
C1243 C1247 1.385 . S
C1244 H1225 0.951 . S
C1244 C1242 1.388 . S
C1244 C1245 1.366 . S
C1245 C1244 1.366 . S
C1245 C1246 1.414 . S
C1245 C1248 1.499 . S
C1246 H1226 0.950 . S
C1246 C1245 1.414 . S
C1246 C1247 1.374 . S
C1247 H1227 0.950 . S
C1247 C1243 1.385 . S
C1247 C1246 1.374 . S
C1248 C1245 1.499 . S
C1248 C1249 1.373 . S
C1248 C1250 1.389 . S
C1249 H1228 0.950 . S
C1249 C1248 1.373 . S
C1249 C1265 1.377 1_455 S
C1250 C1248 1.389 . S
C1250 C1251 1.524 . S
C1250 C1264 1.377 1_455 S
C1251 C1250 1.524 . S
C1251 C1252 1.397 . S
C1251 C1256 1.363 . S
C1252 H1229 0.950 . S
C1252 C1251 1.397 . S
C1252 C1253 1.334 . S
C1253 H1230 0.950 . S
C1253 C1252 1.334 . S
C1253 C1254 1.287 . S
C1254 C1253 1.287 . S
C1254 C1255 1.524 . S
C1254 H1273 0.913 1_554 S
C1255 H1231 0.950 1_554 S
C1255 C1254 1.524 . S
C1255 C1256 1.415 . S
C1256 H1232 0.950 . S
C1256 C1251 1.363 . S
C1256 C1255 1.415 . S
C1257 H1233 0.951 . S
C1257 C1258 1.366 . S
C1257 C1259 1.388 . S
C1258 C1257 1.366 . S
C1258 C1262 1.385 . S
C1259 H1234 0.951 . S
C1259 C1257 1.388 . S
C1259 C1260 1.366 . S
C1260 C1259 1.366 . S
C1260 C1261 1.414 . S
C1260 C1263 1.499 . S
C1261 H1235 0.950 . S
C1261 C1260 1.414 . S
C1261 C1262 1.374 . S
C1262 H1236 0.950 . S
C1262 C1258 1.385 . S
C1262 C1261 1.374 . S
C1263 C1260 1.499 . S
C1263 C1264 1.373 . S
C1263 C1265 1.389 . S
C1264 H1237 0.950 . S
C1264 C1250 1.377 1_655 S
C1264 C1263 1.373 . S
C1265 C1249 1.377 1_655 S
C1265 C1263 1.389 . S
C1265 C1266 1.524 . S
C1266 C1265 1.524 . S
C1266 C1267 1.397 . S
C1266 C1271 1.363 . S
C1267 H1238 0.950 . S
C1267 C1266 1.397 . S
C1267 C1268 1.334 . S
C1268 H1239 0.950 . S
C1268 C1267 1.334 . S
C1268 C1269 1.287 . S
C1269 C1268 1.287 . S
C1269 C1270 1.524 . S
C1269 H1272 0.999 . S
C1270 H1240 0.950 . S
C1270 C1269 1.524 . S
C1270 C1271 1.415 . S
C1271 H1241 0.950 . S
C1271 C1266 1.363 . S
C1271 C1270 1.415 . S
H1272 C1269 0.999 . S
H1273 C1254 0.913 1_556 S
H1274 C1292 0.951 . S
H1275 C1294 0.951 . S
H1276 C1296 0.950 . S
H1277 C1297 0.950 . S
H1278 C1299 0.950 . S
H1279 C1302 0.950 . S
H1280 C1303 0.950 . S
H1281 C1305 0.950 . S
H1282 C1306 0.950 . S
H1283 C1307 0.951 . S
H1284 C1309 0.951 . S
H1285 C1311 0.950 . S
H1286 C1312 0.950 . S
H1287 C1314 0.950 . S
H1288 C1317 0.950 . S
H1289 C1318 0.950 . S
H1290 C1320 0.950 . S
H1291 C1321 0.950 . S
C1292 H1274 0.951 . S
C1292 C1293 1.366 . S
C1292 C1294 1.388 . S
C1293 C1292 1.366 . S
C1293 C1297 1.385 . S
C1294 H1275 0.951 . S
C1294 C1292 1.388 . S
C1294 C1295 1.366 . S
C1295 C1294 1.366 . S
C1295 C1296 1.414 . S
C1295 C1298 1.499 . S
C1296 H1276 0.950 . S
C1296 C1295 1.414 . S
C1296 C1297 1.374 . S
C1297 H1277 0.950 . S
C1297 C1293 1.385 . S
C1297 C1296 1.374 . S
C1298 C1295 1.499 . S
C1298 C1299 1.373 . S
C1298 C1300 1.389 . S
C1299 H1278 0.950 . S
C1299 C1298 1.373 . S
C1299 C1315 1.377 . S
C1300 C1298 1.389 . S
C1300 C1301 1.524 . S
C1300 C1314 1.377 . S
C1301 C1300 1.524 . S
C1301 C1302 1.397 . S
C1301 C1306 1.363 . S
C1302 H1279 0.950 . S
C1302 C1301 1.397 . S
C1302 C1303 1.334 . S
C1303 H1280 0.950 . S
C1303 C1302 1.334 . S
C1303 C1304 1.287 . S
C1304 C1303 1.287 . S
C1304 C1305 1.524 . S
C1304 H1323 0.913 . S
C1305 H1281 0.950 . S
C1305 C1304 1.524 . S
C1305 C1306 1.415 . S
C1306 H1282 0.950 . S
C1306 C1301 1.363 . S
C1306 C1305 1.415 . S
C1307 H1283 0.951 . S
C1307 C1308 1.366 . S
C1307 C1309 1.388 . S
C1308 C1307 1.366 . S
C1308 C1312 1.385 . S
C1309 H1284 0.951 . S
C1309 C1307 1.388 . S
C1309 C1310 1.366 . S
C1310 C1309 1.366 . S
C1310 C1311 1.414 . S
C1310 C1313 1.499 . S
C1311 H1285 0.950 . S
C1311 C1310 1.414 . S
C1311 C1312 1.374 . S
C1312 H1286 0.950 . S
C1312 C1308 1.385 . S
C1312 C1311 1.374 . S
C1313 C1310 1.499 . S
C1313 C1314 1.373 . S
C1313 C1315 1.389 . S
C1314 H1287 0.950 . S
C1314 C1300 1.377 . S
C1314 C1313 1.373 . S
C1315 C1299 1.377 . S
C1315 C1313 1.389 . S
C1315 C1316 1.524 . S
C1316 C1315 1.524 . S
C1316 C1317 1.397 . S
C1316 C1321 1.363 . S
C1317 H1288 0.950 . S
C1317 C1316 1.397 . S
C1317 C1318 1.334 . S
C1318 H1289 0.950 . S
C1318 C1317 1.334 . S
C1318 C1319 1.287 . S
C1319 C1318 1.287 . S
C1319 C1320 1.524 . S
C1319 H1322 0.999 . S
C1320 H1290 0.950 . S
C1320 C1319 1.524 . S
C1320 C1321 1.415 . S
C1321 H1291 0.950 . S
C1321 C1316 1.363 . S
C1321 C1320 1.415 . S
H1322 C1319 0.999 . S
H1323 C1304 0.913 . S
H1324 C1342 0.951 . S
H1325 C1344 0.951 . S
H1326 C1346 0.950 . S
H1327 C1347 0.950 . S
H1328 C1349 0.950 . S
H1329 C1352 0.950 . S
H1330 C1353 0.950 . S
H1331 C1355 0.950 . S
H1332 C1356 0.950 . S
H1333 C1357 0.951 . S
H1334 C1359 0.951 . S
H1335 C1361 0.950 . S
H1336 C1362 0.950 . S
H1337 C1364 0.950 . S
H1338 C1367 0.950 . S
H1339 C1368 0.950 . S
H1340 C1370 0.950 . S
H1341 C1371 0.950 . S
C1342 H1324 0.951 . S
C1342 C1343 1.366 . S
C1342 C1344 1.388 . S
C1343 C1342 1.366 . S
C1343 C1347 1.385 . S
C1344 H1325 0.951 . S
C1344 C1342 1.388 . S
C1344 C1345 1.366 . S
C1345 C1344 1.366 . S
C1345 C1346 1.414 . S
C1345 C1348 1.499 . S
C1346 H1326 0.950 . S
C1346 C1345 1.414 . S
C1346 C1347 1.374 . S
C1347 H1327 0.950 . S
C1347 C1343 1.385 . S
C1347 C1346 1.374 . S
C1348 C1345 1.499 . S
C1348 C1349 1.373 . S
C1348 C1350 1.389 . S
C1349 H1328 0.950 . S
C1349 C1348 1.373 . S
C1349 C1365 1.377 1_455 S
C1350 C1348 1.389 . S
C1350 C1351 1.524 . S
C1350 C1364 1.377 1_455 S
C1351 C1350 1.524 . S
C1351 C1352 1.397 . S
C1351 C1356 1.363 . S
C1352 H1329 0.950 . S
C1352 C1351 1.397 . S
C1352 C1353 1.334 . S
C1353 H1330 0.950 . S
C1353 C1352 1.334 . S
C1353 C1354 1.287 . S
C1354 C1353 1.287 . S
C1354 C1355 1.524 . S
C1354 H1373 0.913 . S
C1355 H1331 0.950 . S
C1355 C1354 1.524 . S
C1355 C1356 1.415 . S
C1356 H1332 0.950 . S
C1356 C1351 1.363 . S
C1356 C1355 1.415 . S
C1357 H1333 0.951 . S
C1357 C1358 1.366 . S
C1357 C1359 1.388 . S
C1358 C1357 1.366 . S
C1358 C1362 1.385 . S
C1359 H1334 0.951 . S
C1359 C1357 1.388 . S
C1359 C1360 1.366 . S
C1360 C1359 1.366 . S
C1360 C1361 1.414 . S
C1360 C1363 1.499 . S
C1361 H1335 0.950 . S
C1361 C1360 1.414 . S
C1361 C1362 1.374 . S
C1362 H1336 0.950 . S
C1362 C1358 1.385 . S
C1362 C1361 1.374 . S
C1363 C1360 1.499 . S
C1363 C1364 1.373 . S
C1363 C1365 1.389 . S
C1364 H1337 0.950 . S
C1364 C1350 1.377 1_655 S
C1364 C1363 1.373 . S
C1365 C1349 1.377 1_655 S
C1365 C1363 1.389 . S
C1365 C1366 1.524 . S
C1366 C1365 1.524 . S
C1366 C1367 1.397 . S
C1366 C1371 1.363 . S
C1367 H1338 0.950 . S
C1367 C1366 1.397 . S
C1367 C1368 1.334 . S
C1368 H1339 0.950 . S
C1368 C1367 1.334 . S
C1368 C1369 1.287 . S
C1369 C1368 1.287 . S
C1369 C1370 1.524 . S
C1369 H1372 0.999 . S
C1370 H1340 0.950 . S
C1370 C1369 1.524 . S
C1370 C1371 1.415 . S
C1371 H1341 0.950 . S
C1371 C1366 1.363 . S
C1371 C1370 1.415 . S
H1372 C1369 0.999 . S
H1373 C1354 0.913 . S
H1374 C1392 0.951 . S
H1375 C1394 0.951 . S
H1376 C1396 0.950 . S
H1377 C1397 0.950 . S
H1378 C1399 0.950 . S
H1379 C1402 0.950 . S
H1380 C1403 0.950 . S
H1381 C1405 0.950 . S
H1382 C1406 0.950 . S
H1383 C1407 0.951 . S
H1384 C1409 0.951 . S
H1385 C1411 0.950 . S
H1386 C1412 0.950 . S
H1387 C1414 0.950 . S
H1388 C1417 0.950 . S
H1389 C1418 0.950 . S
H1390 C1420 0.950 . S
H1391 C1421 0.950 . S
C1392 H1374 0.951 . S
C1392 C1393 1.366 . S
C1392 C1394 1.388 . S
C1393 C1392 1.366 . S
C1393 C1397 1.385 . S
C1394 H1375 0.951 . S
C1394 C1392 1.388 . S
C1394 C1395 1.366 . S
C1395 C1394 1.366 . S
C1395 C1396 1.414 . S
C1395 C1398 1.499 . S
C1396 H1376 0.950 . S
C1396 C1395 1.414 . S
C1396 C1397 1.374 . S
C1397 H1377 0.950 . S
C1397 C1393 1.385 . S
C1397 C1396 1.374 . S
C1398 C1395 1.499 . S
C1398 C1399 1.373 . S
C1398 C1400 1.389 . S
C1399 H1378 0.950 . S
C1399 C1398 1.373 . S
C1399 C1415 1.377 . S
C1400 C1398 1.389 . S
C1400 C1401 1.524 . S
C1400 C1414 1.377 . S
C1401 C1400 1.524 . S
C1401 C1402 1.397 . S
C1401 C1406 1.363 . S
C1402 H1379 0.950 . S
C1402 C1401 1.397 . S
C1402 C1403 1.334 . S
C1403 H1380 0.950 . S
C1403 C1402 1.334 . S
C1403 C1404 1.287 . S
C1404 C1403 1.287 . S
C1404 C1405 1.524 . S
C1404 H1423 0.913 . S
C1405 H1381 0.950 . S
C1405 C1404 1.524 . S
C1405 C1406 1.415 . S
C1406 H1382 0.950 . S
C1406 C1401 1.363 . S
C1406 C1405 1.415 . S
C1407 H1383 0.951 . S
C1407 C1408 1.366 . S
C1407 C1409 1.388 . S
C1408 C1407 1.366 . S
C1408 C1412 1.385 . S
C1409 H1384 0.951 . S
C1409 C1407 1.388 . S
C1409 C1410 1.366 . S
C1410 C1409 1.366 . S
C1410 C1411 1.414 . S
C1410 C1413 1.499 . S
C1411 H1385 0.950 . S
C1411 C1410 1.414 . S
C1411 C1412 1.374 . S
C1412 H1386 0.950 . S
C1412 C1408 1.385 . S
C1412 C1411 1.374 . S
C1413 C1410 1.499 . S
C1413 C1414 1.373 . S
C1413 C1415 1.389 . S
C1414 H1387 0.950 . S
C1414 C1400 1.377 . S
C1414 C1413 1.373 . S
C1415 C1399 1.377 . S
C1415 C1413 1.389 . S
C1415 C1416 1.524 . S
C1416 C1415 1.524 . S
C1416 C1417 1.397 . S
C1416 C1421 1.363 . S
C1417 H1388 0.950 . S
C1417 C1416 1.397 . S
C1417 C1418 1.334 . S
C1418 H1389 0.950 . S
C1418 C1417 1.334 . S
C1418 C1419 1.287 . S
C1419 C1418 1.287 . S
C1419 C1420 1.524 . S
C1419 H1422 0.999 . S
C1420 H1390 0.950 . S
C1420 C1419 1.524 . S
C1420 C1421 1.415 . S
C1421 H1391 0.950 . S
C1421 C1416 1.363 . S
C1421 C1420 1.415 . S
H1422 C1419 0.999 . S
H1423 C1404 0.913 . S
H1424 C1442 0.951 . S
H1425 C1444 0.951 . S
H1426 C1446 0.950 . S
H1427 C1447 0.950 . S
H1428 C1449 0.950 . S
H1429 C1452 0.950 . S
H1430 C1453 0.950 . S
H1431 C1455 0.950 . S
H1432 C1456 0.950 . S
H1433 C1457 0.951 . S
H1434 C1459 0.951 . S
H1435 C1461 0.950 . S
H1436 C1462 0.950 . S
H1437 C1464 0.950 . S
H1438 C1467 0.950 . S
H1439 C1468 0.950 . S
H1440 C1470 0.950 . S
H1441 C1471 0.950 . S
C1442 H1424 0.951 . S
C1442 C1443 1.366 . S
C1442 C1444 1.388 . S
C1443 C1442 1.366 . S
C1443 C1447 1.385 . S
C1444 H1425 0.951 . S
C1444 C1442 1.388 . S
C1444 C1445 1.366 . S
C1445 C1444 1.366 . S
C1445 C1446 1.414 . S
C1445 C1448 1.499 . S
C1446 H1426 0.950 . S
C1446 C1445 1.414 . S
C1446 C1447 1.374 . S
C1447 H1427 0.950 . S
C1447 C1443 1.385 . S
C1447 C1446 1.374 . S
C1448 C1445 1.499 . S
C1448 C1449 1.373 . S
C1448 C1450 1.389 . S
C1449 H1428 0.950 . S
C1449 C1448 1.373 . S
C1449 C1465 1.377 . S
C1450 C1448 1.389 . S
C1450 C1451 1.524 . S
C1450 C1464 1.377 . S
C1451 C1450 1.524 . S
C1451 C1452 1.397 . S
C1451 C1456 1.363 . S
C1452 H1429 0.950 . S
C1452 C1451 1.397 . S
C1452 C1453 1.334 . S
C1453 H1430 0.950 . S
C1453 C1452 1.334 . S
C1453 C1454 1.287 . S
C1454 C1453 1.287 . S
C1454 C1455 1.524 . S
C1454 H1473 0.913 . S
C1455 H1431 0.950 . S
C1455 C1454 1.524 . S
C1455 C1456 1.415 . S
C1456 H1432 0.950 . S
C1456 C1451 1.363 . S
C1456 C1455 1.415 . S
C1457 H1433 0.951 . S
C1457 C1458 1.366 . S
C1457 C1459 1.388 . S
C1458 C1457 1.366 . S
C1458 C1462 1.385 . S
C1459 H1434 0.951 . S
C1459 C1457 1.388 . S
C1459 C1460 1.366 . S
C1460 C1459 1.366 . S
C1460 C1461 1.414 . S
C1460 C1463 1.499 . S
C1461 H1435 0.950 . S
C1461 C1460 1.414 . S
C1461 C1462 1.374 . S
C1462 H1436 0.950 . S
C1462 C1458 1.385 . S
C1462 C1461 1.374 . S
C1463 C1460 1.499 . S
C1463 C1464 1.373 . S
C1463 C1465 1.389 . S
C1464 H1437 0.950 . S
C1464 C1450 1.377 . S
C1464 C1463 1.373 . S
C1465 C1449 1.377 . S
C1465 C1463 1.389 . S
C1465 C1466 1.524 . S
C1466 C1465 1.524 . S
C1466 C1467 1.397 . S
C1466 C1471 1.363 . S
C1467 H1438 0.950 . S
C1467 C1466 1.397 . S
C1467 C1468 1.334 . S
C1468 H1439 0.950 . S
C1468 C1467 1.334 . S
C1468 C1469 1.287 . S
C1469 C1468 1.287 . S
C1469 C1470 1.524 . S
C1469 H1472 0.999 . S
C1470 H1440 0.950 . S
C1470 C1469 1.524 . S
C1470 C1471 1.415 . S
C1471 H1441 0.950 . S
C1471 C1466 1.363 . S
C1471 C1470 1.415 . S
H1472 C1469 0.999 . S
H1473 C1454 0.913 . S
H1474 C1492 0.951 . S
H1475 C1494 0.951 . S
H1476 C1496 0.950 . S
H1477 C1497 0.950 . S
H1478 C1499 0.950 . S
H1479 C1502 0.950 . S
H1480 C1503 0.950 . S
H1481 C1505 0.950 . S
H1482 C1506 0.950 . S
H1483 C1507 0.951 . S
H1484 C1509 0.951 . S
H1485 C1511 0.950 . S
H1486 C1512 0.950 . S
H1487 C1514 0.950 . S
H1488 C1517 0.950 . S
H1489 C1518 0.950 . S
H1490 C1520 0.950 . S
H1491 C1521 0.950 . S
C1492 H1474 0.951 . S
C1492 C1493 1.366 . S
C1492 C1494 1.388 . S
C1493 C1492 1.366 . S
C1493 C1497 1.385 . S
C1494 H1475 0.951 . S
C1494 C1492 1.388 . S
C1494 C1495 1.366 . S
C1495 C1494 1.366 . S
C1495 C1496 1.414 . S
C1495 C1498 1.499 . S
C1496 H1476 0.950 . S
C1496 C1495 1.414 . S
C1496 C1497 1.374 . S
C1497 H1477 0.950 . S
C1497 C1493 1.385 . S
C1497 C1496 1.374 . S
C1498 C1495 1.499 . S
C1498 C1499 1.373 . S
C1498 C1500 1.389 . S
C1499 H1478 0.950 . S
C1499 C1498 1.373 . S
C1499 C1515 1.377 . S
C1500 C1498 1.389 . S
C1500 C1501 1.524 . S
C1500 C1514 1.377 . S
C1501 C1500 1.524 . S
C1501 C1502 1.397 . S
C1501 C1506 1.363 . S
C1502 H1479 0.950 . S
C1502 C1501 1.397 . S
C1502 C1503 1.334 . S
C1503 H1480 0.950 . S
C1503 C1502 1.334 . S
C1503 C1504 1.287 . S
C1504 C1503 1.287 . S
C1504 C1505 1.524 . S
C1504 H1523 0.913 . S
C1505 H1481 0.950 . S
C1505 C1504 1.524 . S
C1505 C1506 1.415 . S
C1506 H1482 0.950 . S
C1506 C1501 1.363 . S
C1506 C1505 1.415 . S
C1507 H1483 0.951 . S
C1507 C1508 1.366 . S
C1507 C1509 1.388 . S
C1508 C1507 1.366 . S
C1508 C1512 1.385 . S
C1509 H1484 0.951 . S
C1509 C1507 1.388 . S
C1509 C1510 1.366 . S
C1510 C1509 1.366 . S
C1510 C1511 1.414 . S
C1510 C1513 1.499 . S
C1511 H1485 0.950 . S
C1511 C1510 1.414 . S
C1511 C1512 1.374 . S
C1512 H1486 0.950 . S
C1512 C1508 1.385 . S
C1512 C1511 1.374 . S
C1513 C1510 1.499 . S
C1513 C1514 1.373 . S
C1513 C1515 1.389 . S
C1514 H1487 0.950 . S
C1514 C1500 1.377 . S
C1514 C1513 1.373 . S
C1515 C1499 1.377 . S
C1515 C1513 1.389 . S
C1515 C1516 1.524 . S
C1516 C1515 1.524 . S
C1516 C1517 1.397 . S
C1516 C1521 1.363 . S
C1517 H1488 0.950 . S
C1517 C1516 1.397 . S
C1517 C1518 1.334 . S
C1518 H1489 0.950 . S
C1518 C1517 1.334 . S
C1518 C1519 1.287 . S
C1519 C1518 1.287 . S
C1519 C1520 1.524 . S
C1519 H1522 0.999 . S
C1520 H1490 0.950 . S
C1520 C1519 1.524 . S
C1520 C1521 1.415 . S
C1521 H1491 0.950 . S
C1521 C1516 1.363 . S
C1521 C1520 1.415 . S
H1522 C1519 0.999 . S
H1523 C1504 0.913 . S
H1524 C1542 0.951 . S
H1525 C1544 0.951 . S
H1526 C1546 0.950 . S
H1527 C1547 0.950 . S
H1528 C1549 0.950 . S
H1529 C1552 0.950 . S
H1530 C1553 0.950 . S
H1531 C1555 0.950 . S
H1532 C1556 0.950 . S
H1533 C1557 0.951 . S
H1534 C1559 0.951 . S
H1535 C1561 0.950 . S
H1536 C1562 0.950 . S
H1537 C1564 0.950 . S
H1538 C1567 0.950 . S
H1539 C1568 0.950 . S
H1540 C1570 0.950 . S
H1541 C1571 0.950 . S
C1542 H1524 0.951 . S
C1542 C1543 1.366 . S
C1542 C1544 1.388 . S
C1543 C1542 1.366 . S
C1543 C1547 1.385 . S
C1544 H1525 0.951 . S
C1544 C1542 1.388 . S
C1544 C1545 1.366 . S
C1545 C1544 1.366 . S
C1545 C1546 1.414 . S
C1545 C1548 1.499 . S
C1546 H1526 0.950 . S
C1546 C1545 1.414 . S
C1546 C1547 1.374 . S
C1547 H1527 0.950 . S
C1547 C1543 1.385 . S
C1547 C1546 1.374 . S
C1548 C1545 1.499 . S
C1548 C1549 1.373 . S
C1548 C1550 1.389 . S
C1549 H1528 0.950 . S
C1549 C1548 1.373 . S
C1549 C1565 1.377 . S
C1550 C1548 1.389 . S
C1550 C1551 1.524 . S
C1550 C1564 1.377 . S
C1551 C1550 1.524 . S
C1551 C1552 1.397 . S
C1551 C1556 1.363 . S
C1552 H1529 0.950 . S
C1552 C1551 1.397 . S
C1552 C1553 1.334 . S
C1553 H1530 0.950 . S
C1553 C1552 1.334 . S
C1553 C1554 1.287 . S
C1554 C1553 1.287 . S
C1554 C1555 1.524 . S
C1554 H1573 0.913 . S
C1555 H1531 0.950 . S
C1555 C1554 1.524 . S
C1555 C1556 1.415 . S
C1556 H1532 0.950 . S
C1556 C1551 1.363 . S
C1556 C1555 1.415 . S
C1557 H1533 0.951 . S
C1557 C1558 1.366 . S
C1557 C1559 1.388 . S
C1558 C1557 1.366 . S
C1558 C1562 1.385 . S
C1559 H1534 0.951 . S
C1559 C1557 1.388 . S
C1559 C1560 1.366 . S
C1560 C1559 1.366 . S
C1560 C1561 1.414 . S
C1560 C1563 1.499 . S
C1561 H1535 0.950 . S
C1561 C1560 1.414 . S
C1561 C1562 1.374 . S
C1562 H1536 0.950 . S
C1562 C1558 1.385 . S
C1562 C1561 1.374 . S
C1563 C1560 1.499 . S
C1563 C1564 1.373 . S
C1563 C1565 1.389 . S
C1564 H1537 0.950 . S
C1564 C1550 1.377 . S
C1564 C1563 1.373 . S
C1565 C1549 1.377 . S
C1565 C1563 1.389 . S
C1565 C1566 1.524 . S
C1566 C1565 1.524 . S
C1566 C1567 1.397 . S
C1566 C1571 1.363 . S
C1567 H1538 0.950 . S
C1567 C1566 1.397 . S
C1567 C1568 1.334 . S
C1568 H1539 0.950 . S
C1568 C1567 1.334 . S
C1568 C1569 1.287 . S
C1569 C1568 1.287 . S
C1569 C1570 1.524 . S
C1569 H1572 0.999 . S
C1570 H1540 0.950 . S
C1570 C1569 1.524 . S
C1570 C1571 1.415 . S
C1571 H1541 0.950 . S
C1571 C1566 1.363 . S
C1571 C1570 1.415 . S
H1572 C1569 0.999 . S
H1573 C1554 0.913 . S
H1574 C1592 0.951 . S
H1575 C1594 0.951 . S
H1576 C1596 0.950 . S
H1577 C1597 0.950 . S
H1578 C1599 0.950 . S
H1579 C1602 0.950 . S
H1580 C1603 0.950 . S
H1581 C1605 0.950 . S
H1582 C1606 0.950 . S
H1583 C1607 0.951 . S
H1584 C1609 0.951 . S
H1585 C1611 0.950 . S
H1586 C1612 0.950 . S
H1587 C1614 0.950 . S
H1588 C1617 0.950 . S
H1589 C1618 0.950 . S
H1590 C1620 0.950 . S
H1591 C1621 0.950 . S
C1592 H1574 0.951 . S
C1592 C1593 1.366 . S
C1592 C1594 1.388 . S
C1593 C1592 1.366 . S
C1593 C1597 1.385 . S
C1594 H1575 0.951 . S
C1594 C1592 1.388 . S
C1594 C1595 1.366 . S
C1595 C1594 1.366 . S
C1595 C1596 1.414 . S
C1595 C1598 1.499 . S
C1596 H1576 0.950 . S
C1596 C1595 1.414 . S
C1596 C1597 1.374 . S
C1597 H1577 0.950 . S
C1597 C1593 1.385 . S
C1597 C1596 1.374 . S
C1598 C1595 1.499 . S
C1598 C1599 1.373 . S
C1598 C1600 1.389 . S
C1599 H1578 0.950 . S
C1599 C1598 1.373 . S
C1599 C1615 1.377 . S
C1600 C1598 1.389 . S
C1600 C1601 1.524 . S
C1600 C1614 1.377 . S
C1601 C1600 1.524 . S
C1601 C1602 1.397 . S
C1601 C1606 1.363 . S
C1602 H1579 0.950 . S
C1602 C1601 1.397 . S
C1602 C1603 1.334 . S
C1603 H1580 0.950 . S
C1603 C1602 1.334 . S
C1603 C1604 1.287 . S
C1604 C1603 1.287 . S
C1604 C1605 1.524 . S
C1604 H1623 0.913 . S
C1605 H1581 0.950 . S
C1605 C1604 1.524 . S
C1605 C1606 1.415 . S
C1606 H1582 0.950 . S
C1606 C1601 1.363 . S
C1606 C1605 1.415 . S
C1607 H1583 0.951 . S
C1607 C1608 1.366 . S
C1607 C1609 1.388 . S
C1608 C1607 1.366 . S
C1608 C1612 1.385 . S
C1609 H1584 0.951 . S
C1609 C1607 1.388 . S
C1609 C1610 1.366 . S
C1610 C1609 1.366 . S
C1610 C1611 1.414 . S
C1610 C1613 1.499 . S
C1611 H1585 0.950 . S
C1611 C1610 1.414 . S
C1611 C1612 1.374 . S
C1612 H1586 0.950 . S
C1612 C1608 1.385 . S
C1612 C1611 1.374 . S
C1613 C1610 1.499 . S
C1613 C1614 1.373 . S
C1613 C1615 1.389 . S
C1614 H1587 0.950 . S
C1614 C1600 1.377 . S
C1614 C1613 1.373 . S
C1615 C1599 1.377 . S
C1615 C1613 1.389 . S
C1615 C1616 1.524 . S
C1616 C1615 1.524 . S
C1616 C1617 1.397 . S
C1616 C1621 1.363 . S
C1617 H1588 0.950 . S
C1617 C1616 1.397 . S
C1617 C1618 1.334 . S
C1618 H1589 0.950 . S
C1618 C1617 1.334 . S
C1618 C1619 1.287 . S
C1619 C1618 1.287 . S
C1619 C1620 1.524 . S
C1619 H1622 0.999 . S
C1620 H1590 0.950 . S
C1620 C1619 1.524 . S
C1620 C1621 1.415 . S
C1621 H1591 0.950 . S
C1621 C1616 1.363 . S
C1621 C1620 1.415 . S
H1622 C1619 0.999 . S
H1623 C1604 0.913 . S
H1624 C1642 0.951 . S
H1625 C1644 0.951 . S
H1626 C1646 0.950 . S
H1627 C1647 0.950 . S
H1628 C1649 0.950 . S
H1629 C1652 0.950 . S
H1630 C1653 0.950 . S
H1631 C1655 0.950 . S
H1632 C1656 0.950 . S
H1633 C1657 0.951 . S
H1634 C1659 0.951 . S
H1635 C1661 0.950 . S
H1636 C1662 0.950 . S
H1637 C1664 0.950 . S
H1638 C1667 0.950 . S
H1639 C1668 0.950 . S
H1640 C1670 0.950 . S
H1641 C1671 0.950 . S
C1642 H1624 0.951 . S
C1642 C1643 1.366 . S
C1642 C1644 1.388 . S
C1643 C1642 1.366 . S
C1643 C1647 1.385 . S
C1644 H1625 0.951 . S
C1644 C1642 1.388 . S
C1644 C1645 1.366 . S
C1645 C1644 1.366 . S
C1645 C1646 1.414 . S
C1645 C1648 1.499 . S
C1646 H1626 0.950 . S
C1646 C1645 1.414 . S
C1646 C1647 1.374 . S
C1647 H1627 0.950 . S
C1647 C1643 1.385 . S
C1647 C1646 1.374 . S
C1648 C1645 1.499 . S
C1648 C1649 1.373 . S
C1648 C1650 1.389 . S
C1649 H1628 0.950 . S
C1649 C1648 1.373 . S
C1649 C1665 1.377 . S
C1650 C1648 1.389 . S
C1650 C1651 1.524 . S
C1650 C1664 1.377 . S
C1651 C1650 1.524 . S
C1651 C1652 1.397 . S
C1651 C1656 1.363 . S
C1652 H1629 0.950 . S
C1652 C1651 1.397 . S
C1652 C1653 1.334 . S
C1653 H1630 0.950 . S
C1653 C1652 1.334 . S
C1653 C1654 1.287 . S
C1654 C1653 1.287 . S
C1654 C1655 1.524 . S
C1654 H1673 0.913 . S
C1655 H1631 0.950 . S
C1655 C1654 1.524 . S
C1655 C1656 1.415 . S
C1656 H1632 0.950 . S
C1656 C1651 1.363 . S
C1656 C1655 1.415 . S
C1657 H1633 0.951 . S
C1657 C1658 1.366 . S
C1657 C1659 1.388 . S
C1658 C1657 1.366 . S
C1658 C1662 1.385 . S
C1659 H1634 0.951 . S
C1659 C1657 1.388 . S
C1659 C1660 1.366 . S
C1660 C1659 1.366 . S
C1660 C1661 1.414 . S
C1660 C1663 1.499 . S
C1661 H1635 0.950 . S
C1661 C1660 1.414 . S
C1661 C1662 1.374 . S
C1662 H1636 0.950 . S
C1662 C1658 1.385 . S
C1662 C1661 1.374 . S
C1663 C1660 1.499 . S
C1663 C1664 1.373 . S
C1663 C1665 1.389 . S
C1664 H1637 0.950 . S
C1664 C1650 1.377 . S
C1664 C1663 1.373 . S
C1665 C1649 1.377 . S
C1665 C1663 1.389 . S
C1665 C1666 1.524 . S
C1666 C1665 1.524 . S
C1666 C1667 1.397 . S
C1666 C1671 1.363 . S
C1667 H1638 0.950 . S
C1667 C1666 1.397 . S
C1667 C1668 1.334 . S
C1668 H1639 0.950 . S
C1668 C1667 1.334 . S
C1668 C1669 1.287 . S
C1669 C1668 1.287 . S
C1669 C1670 1.524 . S
C1669 H1672 0.999 . S
C1670 H1640 0.950 . S
C1670 C1669 1.524 . S
C1670 C1671 1.415 . S
C1671 H1641 0.950 . S
C1671 C1666 1.363 . S
C1671 C1670 1.415 . S
H1672 C1669 0.999 . S
H1673 C1654 0.913 . S
H1674 C1692 0.951 . S
H1675 C1694 0.951 . S
H1676 C1696 0.950 . S
H1677 C1697 0.950 . S
H1678 C1699 0.950 . S
H1679 C1702 0.950 . S
H1680 C1703 0.950 . S
H1681 C1705 0.950 . S
H1682 C1706 0.950 . S
H1683 C1707 0.951 . S
H1684 C1709 0.951 . S
H1685 C1711 0.950 . S
H1686 C1712 0.950 . S
H1687 C1714 0.950 . S
H1688 C1717 0.950 . S
H1689 C1718 0.950 . S
H1690 C1720 0.950 . S
H1691 C1721 0.950 . S
C1692 H1674 0.951 . S
C1692 C1693 1.366 . S
C1692 C1694 1.388 . S
C1693 C1692 1.366 . S
C1693 C1697 1.385 . S
C1694 H1675 0.951 . S
C1694 C1692 1.388 . S
C1694 C1695 1.366 . S
C1695 C1694 1.366 . S
C1695 C1696 1.414 . S
C1695 C1698 1.499 . S
C1696 H1676 0.950 . S
C1696 C1695 1.414 . S
C1696 C1697 1.374 . S
C1697 H1677 0.950 . S
C1697 C1693 1.385 . S
C1697 C1696 1.374 . S
C1698 C1695 1.499 . S
C1698 C1699 1.373 . S
C1698 C1700 1.389 . S
C1699 H1678 0.950 . S
C1699 C1698 1.373 . S
C1699 C1715 1.377 . S
C1700 C1698 1.389 . S
C1700 C1701 1.524 . S
C1700 C1714 1.377 . S
C1701 C1700 1.524 . S
C1701 C1702 1.397 . S
C1701 C1706 1.363 . S
C1702 H1679 0.950 . S
C1702 C1701 1.397 . S
C1702 C1703 1.334 . S
C1703 H1680 0.950 . S
C1703 C1702 1.334 . S
C1703 C1704 1.287 . S
C1704 C1703 1.287 . S
C1704 C1705 1.524 . S
C1704 H1723 0.913 . S
C1705 H1681 0.950 . S
C1705 C1704 1.524 . S
C1705 C1706 1.415 . S
C1706 H1682 0.950 . S
C1706 C1701 1.363 . S
C1706 C1705 1.415 . S
C1707 H1683 0.951 . S
C1707 C1708 1.366 . S
C1707 C1709 1.388 . S
C1708 C1707 1.366 . S
C1708 C1712 1.385 . S
C1709 H1684 0.951 . S
C1709 C1707 1.388 . S
C1709 C1710 1.366 . S
C1710 C1709 1.366 . S
C1710 C1711 1.414 . S
C1710 C1713 1.499 . S
C1711 H1685 0.950 . S
C1711 C1710 1.414 . S
C1711 C1712 1.374 . S
C1712 H1686 0.950 . S
C1712 C1708 1.385 . S
C1712 C1711 1.374 . S
C1713 C1710 1.499 . S
C1713 C1714 1.373 . S
C1713 C1715 1.389 . S
C1714 H1687 0.950 . S
C1714 C1700 1.377 . S
C1714 C1713 1.373 . S
C1715 C1699 1.377 . S
C1715 C1713 1.389 . S
C1715 C1716 1.524 . S
C1716 C1715 1.524 . S
C1716 C1717 1.397 . S
C1716 C1721 1.363 . S
C1717 H1688 0.950 . S
C1717 C1716 1.397 . S
C1717 C1718 1.334 . S
C1718 H1689 0.950 . S
C1718 C1717 1.334 . S
C1718 C1719 1.287 . S
C1719 C1718 1.287 . S
C1719 C1720 1.524 . S
C1719 H1722 0.999 . S
C1720 H1690 0.950 . S
C1720 C1719 1.524 . S
C1720 C1721 1.415 . S
C1721 H1691 0.950 . S
C1721 C1716 1.363 . S
C1721 C1720 1.415 . S
H1722 C1719 0.999 . S
H1723 C1704 0.913 . S
H1724 C1742 0.951 . S
H1725 C1744 0.951 . S
H1726 C1746 0.950 . S
H1727 C1747 0.950 . S
H1728 C1749 0.950 . S
H1729 C1752 0.950 . S
H1730 C1753 0.950 . S
H1731 C1755 0.950 . S
H1732 C1756 0.950 . S
H1733 C1757 0.951 . S
H1734 C1759 0.951 . S
H1735 C1761 0.950 . S
H1736 C1762 0.950 . S
H1737 C1764 0.950 . S
H1738 C1767 0.950 . S
H1739 C1768 0.950 . S
H1740 C1770 0.950 . S
H1741 C1771 0.950 . S
C1742 H1724 0.951 . S
C1742 C1743 1.366 . S
C1742 C1744 1.388 . S
C1743 C1742 1.366 . S
C1743 C1747 1.385 . S
C1744 H1725 0.951 . S
C1744 C1742 1.388 . S
C1744 C1745 1.366 . S
C1745 C1744 1.366 . S
C1745 C1746 1.414 . S
C1745 C1748 1.499 . S
C1746 H1726 0.950 . S
C1746 C1745 1.414 . S
C1746 C1747 1.374 . S
C1747 H1727 0.950 . S
C1747 C1743 1.385 . S
C1747 C1746 1.374 . S
C1748 C1745 1.499 . S
C1748 C1749 1.373 . S
C1748 C1750 1.389 . S
C1749 H1728 0.950 . S
C1749 C1748 1.373 . S
C1749 C1765 1.377 . S
C1750 C1748 1.389 . S
C1750 C1751 1.524 . S
C1750 C1764 1.377 . S
C1751 C1750 1.524 . S
C1751 C1752 1.397 . S
C1751 C1756 1.363 . S
C1752 H1729 0.950 . S
C1752 C1751 1.397 . S
C1752 C1753 1.334 . S
C1753 H1730 0.950 . S
C1753 C1752 1.334 . S
C1753 C1754 1.287 . S
C1754 C1753 1.287 . S
C1754 C1755 1.524 . S
C1754 H1773 0.913 . S
C1755 H1731 0.950 . S
C1755 C1754 1.524 . S
C1755 C1756 1.415 . S
C1756 H1732 0.950 . S
C1756 C1751 1.363 . S
C1756 C1755 1.415 . S
C1757 H1733 0.951 . S
C1757 C1758 1.366 . S
C1757 C1759 1.388 . S
C1758 C1757 1.366 . S
C1758 C1762 1.385 . S
C1759 H1734 0.951 . S
C1759 C1757 1.388 . S
C1759 C1760 1.366 . S
C1760 C1759 1.366 . S
C1760 C1761 1.414 . S
C1760 C1763 1.499 . S
C1761 H1735 0.950 . S
C1761 C1760 1.414 . S
C1761 C1762 1.374 . S
C1762 H1736 0.950 . S
C1762 C1758 1.385 . S
C1762 C1761 1.374 . S
C1763 C1760 1.499 . S
C1763 C1764 1.373 . S
C1763 C1765 1.389 . S
C1764 H1737 0.950 . S
C1764 C1750 1.377 . S
C1764 C1763 1.373 . S
C1765 C1749 1.377 . S
C1765 C1763 1.389 . S
C1765 C1766 1.524 . S
C1766 C1765 1.524 . S
C1766 C1767 1.397 . S
C1766 C1771 1.363 . S
C1767 H1738 0.950 . S
C1767 C1766 1.397 . S
C1767 C1768 1.334 . S
C1768 H1739 0.950 . S
C1768 C1767 1.334 . S
C1768 C1769 1.287 . S
C1769 C1768 1.287 . S
C1769 C1770 1.524 . S
C1769 H1772 0.999 . S
C1770 H1740 0.950 . S
C1770 C1769 1.524 . S
C1770 C1771 1.415 . S
C1771 H1741 0.950 . S
C1771 C1766 1.363 . S
C1771 C1770 1.415 . S
H1772 C1769 0.999 . S
H1773 C1754 0.913 . S
H1774 C1792 0.951 . S
H1775 C1794 0.951 . S
H1776 C1796 0.950 . S
H1777 C1797 0.950 . S
H1778 C1799 0.950 . S
H1779 C1802 0.950 . S
H1780 C1803 0.950 . S
H1781 C1805 0.950 . S
H1782 C1806 0.950 . S
H1783 C1807 0.951 . S
H1784 C1809 0.951 . S
H1785 C1811 0.950 . S
H1786 C1812 0.950 . S
H1787 C1814 0.950 . S
H1788 C1817 0.950 . S
H1789 C1818 0.950 . S
H1790 C1820 0.950 . S
H1791 C1821 0.950 . S
C1792 H1774 0.951 . S
C1792 C1793 1.366 . S
C1792 C1794 1.388 . S
C1793 C1792 1.366 . S
C1793 C1797 1.385 . S
C1794 H1775 0.951 . S
C1794 C1792 1.388 . S
C1794 C1795 1.366 . S
C1795 C1794 1.366 . S
C1795 C1796 1.414 . S
C1795 C1798 1.499 . S
C1796 H1776 0.950 . S
C1796 C1795 1.414 . S
C1796 C1797 1.374 . S
C1797 H1777 0.950 . S
C1797 C1793 1.385 . S
C1797 C1796 1.374 . S
C1798 C1795 1.499 . S
C1798 C1799 1.373 . S
C1798 C1800 1.389 . S
C1799 H1778 0.950 . S
C1799 C1798 1.373 . S
C1799 C1815 1.377 . S
C1800 C1798 1.389 . S
C1800 C1801 1.524 . S
C1800 C1814 1.377 . S
C1801 C1800 1.524 . S
C1801 C1802 1.397 . S
C1801 C1806 1.363 . S
C1802 H1779 0.950 . S
C1802 C1801 1.397 . S
C1802 C1803 1.334 . S
C1803 H1780 0.950 . S
C1803 C1802 1.334 . S
C1803 C1804 1.287 . S
C1804 C1803 1.287 . S
C1804 C1805 1.524 . S
C1804 H1823 0.913 . S
C1805 H1781 0.950 . S
C1805 C1804 1.524 . S
C1805 C1806 1.415 . S
C1806 H1782 0.950 . S
C1806 C1801 1.363 . S
C1806 C1805 1.415 . S
C1807 H1783 0.951 . S
C1807 C1808 1.366 . S
C1807 C1809 1.388 . S
C1808 C1807 1.366 . S
C1808 C1812 1.385 . S
C1809 H1784 0.951 . S
C1809 C1807 1.388 . S
C1809 C1810 1.366 . S
C1810 C1809 1.366 . S
C1810 C1811 1.414 . S
C1810 C1813 1.499 . S
C1811 H1785 0.950 . S
C1811 C1810 1.414 . S
C1811 C1812 1.374 . S
C1812 H1786 0.950 . S
C1812 C1808 1.385 . S
C1812 C1811 1.374 . S
C1813 C1810 1.499 . S
C1813 C1814 1.373 . S
C1813 C1815 1.389 . S
C1814 H1787 0.950 . S
C1814 C1800 1.377 . S
C1814 C1813 1.373 . S
C1815 C1799 1.377 . S
C1815 C1813 1.389 . S
C1815 C1816 1.524 . S
C1816 C1815 1.524 . S
C1816 C1817 1.397 . S
C1816 C1821 1.363 . S
C1817 H1788 0.950 . S
C1817 C1816 1.397 . S
C1817 C1818 1.334 . S
C1818 H1789 0.950 . S
C1818 C1817 1.334 . S
C1818 C1819 1.287 . S
C1819 C1818 1.287 . S
C1819 C1820 1.524 . S
C1819 H1822 0.999 . S
C1820 H1790 0.950 . S
C1820 C1819 1.524 . S
C1820 C1821 1.415 . S
C1821 H1791 0.950 . S
C1821 C1816 1.363 . S
C1821 C1820 1.415 . S
H1822 C1819 0.999 . S
H1823 C1804 0.913 . S
C243 C11 1.335 . S
C258 C180 1.352 . S
C293 C194 1.352 . S
C308 C25 1.335 . S
C343 C39 1.335 . S
C358 C208 1.352 . S
C393 C222 1.352 . S
C408 C53 1.334 . S
C443 C123 1.335 . S
C458 C68 1.352 . S
C493 C82 1.352 . S
C508 C137 1.335 . S
C543 C151 1.334 . S
C558 C96 1.352 . S
C593 C110 1.352 . S
C608 C165 1.335 . S
C643 C4 1.434 . S
C658 C32 1.435 . S
C693 C18 1.434 . S
C708 C46 1.434 . S
C743 C60 1.357 . S
C758 C88 1.357 . S
C793 C74 1.357 . S
C808 C102 1.358 . S
C843 C144 1.434 . S
C858 C116 1.434 . S
C893 C130 1.434 . S
C908 C158 1.435 . S
C943 C200 1.357 . S
C958 C172 1.358 . S
C993 C186 1.357 . S
C1008 C214 1.358 . S
C1043 C89 1.305 . S
C1058 C5 1.308 . S
C1093 C103 1.305 . S
C1108 C19 1.308 . S
C1143 C33 1.307 . S
C1158 C61 1.306 . S
C1193 C47 1.308 . S
C1208 C75 1.305 . S
C1243 C201 1.306 . S
C1258 C117 1.307 . S
C1293 C131 1.308 . S
C1308 C215 1.306 . S
C1343 C173 1.305 . S
C1358 C145 1.308 . S
C1393 C159 1.306 . S
C1408 C187 1.307 . S
C1443 C12 1.387 . S
C1458 C54 1.387 . S
C1493 C40 1.387 . S
C1508 C26 1.387 . S
C1543 C67 1.259 . S
C1558 C109 1.259 . S
C1593 C81 1.260 . S
C1608 C95 1.260 . S
C1643 C166 1.387 . S
C1658 C124 1.387 . S
C1693 C138 1.387 . S
C1708 C152 1.387 . S
C1743 C221 1.259 . S
C1758 C179 1.259 . S
C1793 C193 1.259 . S
C1808 C207 1.259 . S
