# Generated by pormake.
# Topology wjq, (5)-cn, num edge types: 1
# Building blocks:
#     Node 0, Type 0, BuildingBlock: BEQFEK_clean_sbu_0, # of connection points: 5
#     Node 1, Type 0, BuildingBlock: BEQFEK_clean_sbu_0, # of connection points: 5
#     Node 2, Type 0, BuildingBlock: BEQFEK_clean_sbu_0, # of connection points: 5
#     Node 3, Type 0, BuildingBlock: BEQFEK_clean_sbu_0, # of connection points: 5
#     Node 4, Type 0, BuildingBlock: BEQFEK_clean_sbu_0, # of connection points: 5
#     Node 5, Type 0, BuildingBlock: BEQFEK_clean_sbu_0, # of connection points: 5
#     Node 6, Type 0, BuildingBlock: BEQFEK_clean_sbu_0, # of connection points: 5
#     Node 7, Type 0, BuildingBlock: BEQFEK_clean_sbu_0, # of connection points: 5
#     Node 8, Type 0, BuildingBlock: BEQFEK_clean_sbu_0, # of connection points: 5
#     Node 9, Type 0, BuildingBlock: BEQFEK_clean_sbu_0, # of connection points: 5
#     Node 10, Type 0, BuildingBlock: BEQFEK_clean_sbu_0, # of connection points: 5
#     Node 11, Type 0, BuildingBlock: BEQFEK_clean_sbu_0, # of connection points: 5
#     Edge 12, Type (0, 0), BuildingBlock: CIFDUS_clean_linker_0, # of connection points: 2
#     Edge 13, Type (0, 0), BuildingBlock: CIFDUS_clean_linker_0, # of connection points: 2
#     Edge 14, Type (0, 0), BuildingBlock: CIFDUS_clean_linker_0, # of connection points: 2
#     Edge 15, Type (0, 0), BuildingBlock: CIFDUS_clean_linker_0, # of connection points: 2
#     Edge 16, Type (0, 0), BuildingBlock: CIFDUS_clean_linker_0, # of connection points: 2
#     Edge 17, Type (0, 0), BuildingBlock: CIFDUS_clean_linker_0, # of connection points: 2
#     Edge 18, Type (0, 0), BuildingBlock: CIFDUS_clean_linker_0, # of connection points: 2
#     Edge 19, Type (0, 0), BuildingBlock: CIFDUS_clean_linker_0, # of connection points: 2
#     Edge 20, Type (0, 0), BuildingBlock: CIFDUS_clean_linker_0, # of connection points: 2
#     Edge 21, Type (0, 0), BuildingBlock: CIFDUS_clean_linker_0, # of connection points: 2
#     Edge 22, Type (0, 0), BuildingBlock: CIFDUS_clean_linker_0, # of connection points: 2
#     Edge 23, Type (0, 0), BuildingBlock: CIFDUS_clean_linker_0, # of connection points: 2
#     Edge 24, Type (0, 0), BuildingBlock: CIFDUS_clean_linker_0, # of connection points: 2
#     Edge 25, Type (0, 0), BuildingBlock: CIFDUS_clean_linker_0, # of connection points: 2
#     Edge 26, Type (0, 0), BuildingBlock: CIFDUS_clean_linker_0, # of connection points: 2
#     Edge 27, Type (0, 0), BuildingBlock: CIFDUS_clean_linker_0, # of connection points: 2
#     Edge 28, Type (0, 0), BuildingBlock: CIFDUS_clean_linker_0, # of connection points: 2
#     Edge 29, Type (0, 0), BuildingBlock: CIFDUS_clean_linker_0, # of connection points: 2
#     Edge 30, Type (0, 0), BuildingBlock: CIFDUS_clean_linker_0, # of connection points: 2
#     Edge 31, Type (0, 0), BuildingBlock: CIFDUS_clean_linker_0, # of connection points: 2
#     Edge 32, Type (0, 0), BuildingBlock: CIFDUS_clean_linker_0, # of connection points: 2
#     Edge 33, Type (0, 0), BuildingBlock: CIFDUS_clean_linker_0, # of connection points: 2
#     Edge 34, Type (0, 0), BuildingBlock: CIFDUS_clean_linker_0, # of connection points: 2
#     Edge 35, Type (0, 0), BuildingBlock: CIFDUS_clean_linker_0, # of connection points: 2
#     Edge 36, Type (0, 0), BuildingBlock: CIFDUS_clean_linker_0, # of connection points: 2
#     Edge 37, Type (0, 0), BuildingBlock: CIFDUS_clean_linker_0, # of connection points: 2
#     Edge 38, Type (0, 0), BuildingBlock: CIFDUS_clean_linker_0, # of connection points: 2
#     Edge 39, Type (0, 0), BuildingBlock: CIFDUS_clean_linker_0, # of connection points: 2
#     Edge 40, Type (0, 0), BuildingBlock: CIFDUS_clean_linker_0, # of connection points: 2
#     Edge 41, Type (0, 0), BuildingBlock: CIFDUS_clean_linker_0, # of connection points: 2
# Relax obj value: 0.379
# Max RMSD: 0.180
# Mean RMSD: 0.180
data_MOF--net-wjq--node1-BEQFEK_clean_sbu_0--edge1-CIFDUS_clean_linker_0
_symmetry_space_group_name_H-M    P1
_symmetry_Int_Tables_number       1
_symmetry_cell_setting            triclinic
loop_
_symmetry_equiv_pos_as_xyz
'x, y, z'
_cell_length_a     31.343684
_cell_length_b     31.589733
_cell_length_c     65.166185
_cell_angle_alpha  90.041231
_cell_angle_beta   89.966674
_cell_angle_gamma 120.14069
loop_
_atom_site_label
_atom_site_type_symbol
_atom_site_fract_x
_atom_site_fract_y
_atom_site_fract_z
_atom_type_partial_charge
Co0 Co 0.21434 0.15601 0.09817 0.0
Co1 Co 0.31051 0.23306 0.07696 0.0
C2 C 0.21172 0.22702 0.06915 0.0
O3 O 0.19043 0.19313 0.08229 0.0
O4 O 0.25764 0.24571 0.06541 0.0
C5 C 0.13195 0.12331 0.12421 0.0
O6 O 0.14372 0.16951 0.12353 0.0
C7 C 0.38674 0.33468 0.07305 0.0
C8 C 0.4445 0.33173 0.05478 0.0
C9 C 0.43284 0.3641 0.0642 0.0
N10 N 0.37199 0.28767 0.06887 0.0
N11 N 0.40659 0.28602 0.05793 0.0
C12 C 0.35785 0.34982 0.08641 0.0
H13 H 0.33178 0.31889 0.09624 0.0
H14 H 0.38287 0.38143 0.0962 0.0
H15 H 0.33587 0.36048 0.07659 0.0
C16 C 0.27625 0.18796 0.13491 0.0
N17 N 0.26831 0.19492 0.11522 0.0
N18 N 0.31052 0.22519 0.10639 0.0
C19 C 0.3471 0.23727 0.12024 0.0
C20 C 0.32644 0.21449 0.1389 0.0
C21 C 0.23773 0.14972 0.1486 0.0
H22 H 0.22136 0.11343 0.14103 0.0
H23 H 0.20822 0.15859 0.15133 0.0
H24 H 0.25292 0.14764 0.16369 0.0
O25 O 0.23167 0.11751 0.0791 0.0
O26 O 0.30066 0.17233 0.06341 0.0
H27 H 0.40675 0.24824 0.10072 0.0
H28 H 0.42349 0.26238 0.12757 0.0
C29 C 0.40074 0.26405 0.11489 0.0
H30 H 0.4126 0.30291 0.11172 0.0
H31 H 0.40434 0.25378 0.05262 0.0
O32 O 0.15831 0.10971 0.11465 0.0
C33 C 0.26633 0.12818 0.06623 0.0
Co34 Co 0.12826 0.22714 0.41582 0.0
Co35 Co 0.09089 0.29805 0.40535 0.0
C36 C 0.02577 0.19407 0.39654 0.0
O37 O 0.06152 0.18928 0.40293 0.0
O38 O 0.02832 0.23559 0.39769 0.0
C39 C 0.10846 0.15704 0.44406 0.0
O40 O 0.07777 0.17228 0.44905 0.0
C41 C 0.04148 0.35774 0.40236 0.0
C42 C 0.10636 0.43237 0.40245 0.0
C43 C 0.05524 0.40714 0.40235 0.0
N44 N 0.08266 0.35429 0.40278 0.0
N45 N 0.12119 0.39911 0.40271 0.0
C46 C 0.99043 0.31446 0.40112 0.0
H47 H 0.98987 0.28704 0.39036 0.0
H48 H 0.97921 0.29726 0.4165 0.0
H49 H 0.96352 0.32497 0.39566 0.0
C50 C 0.16117 0.28336 0.45274 0.0
N51 N 0.13613 0.27298 0.43512 0.0
N52 N 0.11357 0.29804 0.43337 0.0
C53 C 0.11935 0.3219 0.45146 0.0
C54 C 0.14961 0.3128 0.46476 0.0
C55 C 0.20223 0.27246 0.45571 0.0
H56 H 0.21746 0.27045 0.44059 0.0
H57 H 0.18808 0.23641 0.46324 0.0
H58 H 0.23235 0.30115 0.46516 0.0
O59 O 0.1745 0.25952 0.39472 0.0
O60 O 0.14234 0.30405 0.38339 0.0
H61 H 0.12334 0.39101 0.45499 0.0
H62 H 0.07939 0.34346 0.47162 0.0
C63 C 0.09533 0.35151 0.45593 0.0
H64 H 0.06567 0.3433 0.44466 0.0
H65 H 0.15774 0.407 0.40324 0.0
O66 O 0.13845 0.17792 0.42937 0.0
C67 C 0.17306 0.28849 0.38166 0.0
Co68 Co 0.86797 0.07315 0.75652 0.0
Co69 Co 0.7834 0.08887 0.74231 0.0
C70 C 0.79134 0.0007 0.72813 0.0
O71 O 0.82773 0.01309 0.74005 0.0
O72 O 0.77089 0.0269 0.72685 0.0
C73 C 0.89687 0.02843 0.78542 0.0
O74 O 0.84893 0.0014 0.78795 0.0
C75 C 0.67942 0.06247 0.73846 0.0
C76 C 0.68451 0.13458 0.73621 0.0
C77 C 0.65088 0.08479 0.73724 0.0
N78 N 0.72742 0.0974 0.73812 0.0
N79 N 0.73016 0.14041 0.73659 0.0
C80 C 0.66186 0.00959 0.74246 0.0
H81 H 0.69082 0.00556 0.75051 0.0
H82 H 0.62759 0.99277 0.75179 0.0
H83 H 0.65388 0.98991 0.72759 0.0
C84 C 0.85408 0.11131 0.79391 0.0
N85 N 0.83551 0.0893 0.77591 0.0
N86 N 0.7946 0.08914 0.77188 0.0
C87 C 0.78221 0.10556 0.78893 0.0
C88 C 0.81967 0.1198 0.8039 0.0
C89 C 0.90881 0.1374 0.79779 0.0
H90 H 0.9292 0.14617 0.78303 0.0
H91 H 0.91859 0.1137 0.80677 0.0
H92 H 0.92135 0.17226 0.8062 0.0
O93 O 0.90367 0.13002 0.73951 0.0
O94 O 0.84579 0.14712 0.72965 0.0
H95 H 0.74612 0.1477 0.78806 0.0
H96 H 0.71957 0.097 0.80584 0.0
C97 C 0.73657 0.10914 0.79046 0.0
H98 H 0.70931 0.08578 0.77876 0.0
H99 H 0.76318 0.17385 0.73651 0.0
O100 O 0.91411 0.06143 0.77173 0.0
C101 C 0.89096 0.15736 0.73028 0.0
Co102 Co 0.79426 0.85922 0.1 0.0
Co103 Co 0.69382 0.78571 0.08068 0.0
C104 C 0.78928 0.78766 0.06914 0.0
O105 O 0.81387 0.82037 0.08243 0.0
O106 O 0.74326 0.77157 0.06685 0.0
C107 C 0.87977 0.88797 0.12367 0.0
O108 O 0.86718 0.84175 0.12166 0.0
C109 C 0.61605 0.68518 0.07598 0.0
C110 C 0.55631 0.69063 0.06057 0.0
C111 C 0.5688 0.65702 0.06796 0.0
N112 N 0.63067 0.73267 0.07324 0.0
N113 N 0.59488 0.73584 0.06401 0.0
C114 C 0.64642 0.66826 0.08723 0.0
H115 H 0.67368 0.6978 0.09731 0.0
H116 H 0.62255 0.63531 0.09657 0.0
H117 H 0.66712 0.65911 0.07597 0.0
C118 C 0.73661 0.8287 0.13815 0.0
N119 N 0.74155 0.82229 0.11803 0.0
N120 N 0.69809 0.79187 0.11018 0.0
C121 C 0.66381 0.77804 0.12525 0.0
C122 C 0.68722 0.80125 0.14347 0.0
C123 C 0.77811 0.86332 0.15175 0.0
H124 H 0.79496 0.90096 0.14546 0.0
H125 H 0.80662 0.85242 0.15213 0.0
H126 H 0.76586 0.86312 0.16773 0.0
O127 O 0.77746 0.90034 0.08237 0.0
O128 O 0.70455 0.84838 0.06856 0.0
H129 H 0.58835 0.74829 0.13541 0.0
H130 H 0.59942 0.71 0.11816 0.0
C131 C 0.60941 0.74823 0.12172 0.0
H132 H 0.5992 0.76283 0.10829 0.0
H133 H 0.59682 0.76875 0.06001 0.0
O134 O 0.85286 0.90312 0.11577 0.0
C135 C 0.74104 0.89175 0.07085 0.0
Co136 Co 0.93029 0.79666 0.42159 0.0
Co137 Co 0.91807 0.6972 0.40816 0.0
C138 C 1.00219 0.79336 0.392 0.0
O139 O 0.98794 0.81661 0.40328 0.0
O140 O 0.97877 0.74663 0.39198 0.0
C141 C 0.98639 0.87827 0.44432 0.0
O142 O 0.01425 0.85812 0.44398 0.0
C143 C 0.95068 0.62601 0.40374 0.0
C144 C 0.88129 0.55541 0.40076 0.0
C145 C 0.93218 0.57611 0.40116 0.0
N146 N 0.91273 0.63444 0.40454 0.0
N147 N 0.87127 0.59206 0.40278 0.0
C148 C 1.00325 0.66493 0.40707 0.0
H149 H 0.00502 0.69454 0.41687 0.0
H150 H 0.02448 0.64952 0.41438 0.0
H151 H 0.02035 0.68102 0.39205 0.0
C152 C 0.91067 0.75202 0.46186 0.0
N153 N 0.92091 0.75142 0.44192 0.0
N154 N 0.9193 0.71015 0.43741 0.0
C155 C 0.91074 0.68415 0.4551 0.0
C156 C 0.90539 0.71041 0.47126 0.0
C157 C 0.89924 0.78847 0.47139 0.0
H158 H 0.88188 0.80112 0.45998 0.0
H159 H 0.93376 0.8203 0.47714 0.0
H160 H 0.87362 0.77215 0.48458 0.0
O161 O 0.86984 0.76994 0.40569 0.0
O162 O 0.85895 0.6978 0.3953 0.0
H163 H 0.87329 0.60806 0.4478 0.0
H164 H 0.90363 0.62282 0.47255 0.0
C165 C 0.9065 0.63498 0.45638 0.0
H166 H 0.9391 0.63643 0.44899 0.0
H167 H 0.83616 0.58811 0.40309 0.0
O168 O 0.94512 0.85741 0.4351 0.0
C169 C 0.84506 0.72968 0.39607 0.0
Co170 Co 0.11367 0.89863 0.75517 0.0
Co171 Co 0.2152 0.91265 0.7429 0.0
C172 C 0.1851 0.98416 0.72826 0.0
O173 O 0.14432 0.958 0.73749 0.0
O174 O 0.2192 0.9733 0.7293 0.0
C175 C 0.07071 0.93032 0.78341 0.0
O176 O 0.1175 0.96149 0.78708 0.0
C177 C 0.32385 0.94959 0.73903 0.0
C178 C 0.32279 0.87988 0.73431 0.0
C179 C 0.3546 0.92996 0.73591 0.0
N180 N 0.27649 0.91267 0.73932 0.0
N181 N 0.27641 0.87121 0.73654 0.0
C182 C 0.33885 0.00244 0.74112 0.0
H183 H 0.30764 0.00825 0.73769 0.0
H184 H 0.35067 0.01433 0.75716 0.0
H185 H 0.37012 0.02529 0.7307 0.0
C186 C 0.13644 0.87104 0.79336 0.0
N187 N 0.15219 0.89272 0.77511 0.0
N188 N 0.1982 0.90492 0.77213 0.0
C189 C 0.21525 0.89651 0.79002 0.0
C190 C 0.17634 0.8753 0.80448 0.0
C191 C 0.08268 0.83524 0.79717 0.0
H192 H 0.06312 0.82079 0.78238 0.0
H193 H 0.065 0.85347 0.80513 0.0
H194 H 0.0779 0.80395 0.80664 0.0
O195 O 0.08957 0.84257 0.73833 0.0
O196 O 0.16086 0.85207 0.72691 0.0
H197 H 0.26754 0.87217 0.79173 0.0
H198 H 0.28079 0.92311 0.80825 0.0
C199 C 0.26691 0.9069 0.79288 0.0
H200 H 0.29146 0.93253 0.78094 0.0
H201 H 0.24452 0.83683 0.7361 0.0
O202 O 0.05917 0.89866 0.76933 0.0
C203 C 0.11339 0.82835 0.72738 0.0
Co204 Co 0.87342 0.78683 0.63828 0.0
Co205 Co 0.78076 0.68937 0.64903 0.0
C206 C 0.79323 0.78703 0.66328 0.0
O207 O 0.83306 0.80979 0.65309 0.0
O208 O 0.76919 0.74023 0.66366 0.0
C209 C 0.91572 0.86235 0.61017 0.0
O210 O 0.86926 0.84503 0.60515 0.0
C211 C 0.67472 0.61574 0.65126 0.0
C212 C 0.67608 0.54654 0.65081 0.0
C213 C 0.64435 0.56514 0.65105 0.0
N214 N 0.72207 0.62639 0.65123 0.0
N215 N 0.72255 0.5848 0.65111 0.0
C216 C 0.65937 0.65338 0.64924 0.0
H217 H 0.68801 0.68586 0.64087 0.0
H218 H 0.62356 0.63822 0.64109 0.0
H219 H 0.65527 0.66522 0.6648 0.0
C220 C 0.8625 0.73778 0.6 0.0
N221 N 0.84239 0.74107 0.61763 0.0
N222 N 0.79862 0.70271 0.62005 0.0
C223 C 0.78659 0.67651 0.60228 0.0
C224 C 0.82695 0.69855 0.58853 0.0
C225 C 0.91761 0.76157 0.59771 0.0
H226 H 0.93544 0.76933 0.61303 0.0
H227 H 0.93251 0.79682 0.58943 0.0
H228 H 0.92784 0.73749 0.58921 0.0
O229 O 0.90161 0.76004 0.65653 0.0
O230 O 0.83745 0.68692 0.66416 0.0
H231 H 0.74323 0.59853 0.60051 0.0
H232 H 0.72421 0.6307 0.5833 0.0
C233 C 0.73826 0.63076 0.59892 0.0
H234 H 0.71065 0.62792 0.61028 0.0
H235 H 0.75464 0.58256 0.65063 0.0
O236 O 0.92656 0.84375 0.62509 0.0
C237 C 0.88364 0.71868 0.66526 0.0
Co238 Co 0.07035 0.86809 0.97207 0.0
Co239 Co 0.0887 0.78543 0.98595 0.0
C240 C 0.99804 0.78839 0.99962 0.0
O241 O 0.01047 0.82565 0.98848 0.0
O242 O 0.0249 0.76876 1.00038 0.0
C243 C 0.01248 0.88739 0.94719 0.0
O244 O 0.98755 0.8393 0.94717 0.0
C245 C 0.06061 0.68381 0.99102 0.0
C246 C 0.1314 0.68476 0.99287 0.0
C247 C 0.0807 0.6539 0.99321 0.0
N248 N 0.09748 0.73043 0.98975 0.0
N249 N 0.13984 0.73089 0.99085 0.0
C250 C 0.00722 0.668 0.98839 0.0
H251 H 1.00316 0.69272 0.97748 0.0
H252 H 0.98597 0.62979 0.98266 0.0
H253 H 0.99175 0.67001 1.00344 0.0
C254 C 0.10098 0.85021 0.93256 0.0
N255 N 0.08833 0.83764 0.95222 0.0
N256 N 0.09165 0.79897 0.95672 0.0
C257 C 0.10336 0.78355 0.93919 0.0
C258 C 0.10949 0.81583 0.9232 0.0
C259 C 0.10967 0.89722 0.92313 0.0
H260 H 0.12315 0.92659 0.93486 0.0
H261 H 0.07481 0.89189 0.91643 0.0
H262 H 0.13737 0.90895 0.91061 0.0
O263 O 0.12609 0.90394 0.99048 0.0
O264 O 0.1411 0.84544 1.0012 0.0
H265 H 0.14255 0.74641 0.94618 0.0
H266 H 0.11157 0.73011 0.9216 0.0
C267 C 0.10877 0.73928 0.93781 0.0
H268 H 0.07683 0.70786 0.94535 0.0
H269 H 0.17441 0.76254 0.98999 0.0
O270 O 0.05195 0.91002 0.95763 0.0
C271 C 0.15069 0.88998 1.00124 0.0
Co272 Co 0.21332 0.06758 0.28817 0.0
Co273 Co 0.31037 0.09308 0.30966 0.0
C274 C 0.21065 0.00342 0.32169 0.0
O275 O 0.18834 0.00999 0.30686 0.0
O276 O 0.25652 0.03314 0.32461 0.0
C277 C 0.13239 0.01526 0.26218 0.0
O278 O 0.14439 0.98117 0.26432 0.0
C279 C 0.38263 0.06316 0.31201 0.0
C280 C 0.44511 0.12183 0.32912 0.0
C281 C 0.42979 0.07761 0.31912 0.0
N282 N 0.37112 0.09731 0.31723 0.0
N283 N 0.40852 0.13241 0.32749 0.0
C284 C 0.34757 0.0169 0.30101 0.0
H285 H 0.30905 0.00871 0.3029 0.0
H286 H 0.35606 0.0216 0.28435 0.0
H287 H 0.35096 0.98565 0.30675 0.0
C288 C 0.27385 0.08998 0.25101 0.0
N289 N 0.26605 0.07771 0.27106 0.0
N290 N 0.30858 0.09253 0.28015 0.0
C291 C 0.34505 0.11643 0.26622 0.0
C292 C 0.32422 0.11514 0.24717 0.0
C293 C 0.23512 0.08744 0.23674 0.0
H294 H 0.21858 0.10833 0.24329 0.0
H295 H 0.20592 0.04874 0.23476 0.0
H296 H 0.25023 0.10247 0.22134 0.0
O297 O 0.23318 0.12903 0.30417 0.0
O298 O 0.30517 0.15024 0.31901 0.0
H299 H 0.40188 0.16903 0.28582 0.0
H300 H 0.42 0.17256 0.25912 0.0
C301 C 0.39832 0.14751 0.27181 0.0
H302 H 0.4137 0.12343 0.27527 0.0
H303 H 0.40916 0.16352 0.33329 0.0
O304 O 0.15775 0.05606 0.27116 0.0
C305 C 0.2699 0.15841 0.31525 0.0
Co306 Co 0.12737 0.2084 0.62857 0.0
Co307 Co 0.21374 0.30235 0.64734 0.0
C308 C 0.19602 0.20134 0.65909 0.0
O309 O 0.15996 0.1823 0.64663 0.0
O310 O 0.22117 0.24783 0.66107 0.0
C311 C 0.09707 0.13141 0.60145 0.0
O312 O 0.1446 0.14687 0.60152 0.0
C313 C 0.3193 0.37632 0.65254 0.0
C314 C 0.31589 0.44139 0.66241 0.0
C315 C 0.34888 0.42563 0.65772 0.0
N316 N 0.27152 0.36413 0.65389 0.0
N317 N 0.26986 0.40327 0.65984 0.0
C318 C 0.33577 0.34065 0.64714 0.0
H319 H 0.30566 0.30254 0.64934 0.0
H320 H 0.34662 0.34495 0.63075 0.0
H321 H 0.36799 0.34736 0.65662 0.0
C322 C 0.16163 0.26381 0.59057 0.0
N323 N 0.16792 0.25839 0.6106 0.0
N324 N 0.20719 0.29775 0.61749 0.0
C325 C 0.22888 0.32846 0.60129 0.0
C326 C 0.20026 0.30763 0.58373 0.0
C327 C 0.1171 0.2298 0.57817 0.0
H328 H 0.08351 0.21369 0.58784 0.0
H329 H 0.12231 0.20033 0.5716 0.0
H330 H 0.11178 0.24943 0.56519 0.0
O331 O 0.09217 0.23189 0.64474 0.0
O332 O 0.15153 0.29961 0.65954 0.0
H333 H 0.27058 0.39949 0.61479 0.0
H334 H 0.28283 0.39715 0.58775 0.0
C335 C 0.27478 0.37735 0.6026 0.0
H336 H 0.30622 0.37235 0.60679 0.0
H337 H 0.23728 0.40408 0.66197 0.0
O338 O 0.08043 0.15291 0.61251 0.0
C339 C 0.1057 0.26883 0.65631 0.0
Co340 Co 0.91953 0.12887 0.96928 0.0
Co341 Co 0.92388 0.224 0.98342 0.0
C342 C 0.00915 0.20871 0.99115 0.0
O343 O 0.98655 0.16826 0.9816 0.0
O344 O 0.98951 0.23519 0.99335 0.0
C345 C 0.95887 0.09482 0.94107 0.0
O346 O 0.98643 0.14232 0.93837 0.0
C347 C 0.96326 0.32931 0.98511 0.0
C348 C 0.89704 0.3356 0.99039 0.0
C349 C 0.94749 0.36306 0.98704 0.0
N350 N 0.92389 0.28407 0.98693 0.0
N351 N 0.8844 0.28802 0.99014 0.0
C352 C 0.01511 0.33922 0.98303 0.0
H353 H 0.02499 0.32638 0.99711 0.0
H354 H 0.01748 0.31825 0.96984 0.0
H355 H 0.04247 0.37856 0.98125 0.0
C356 C 0.88302 0.14814 0.93166 0.0
N357 N 0.90102 0.16118 0.9507 0.0
N358 N 0.91016 0.20561 0.95465 0.0
C359 C 0.90245 0.22404 0.93706 0.0
C360 C 0.88487 0.18777 0.92181 0.0
C361 C 0.86319 0.09782 0.92284 0.0
H362 H 0.84917 0.06996 0.93521 0.0
H363 H 0.89262 0.09579 0.91424 0.0
H364 H 0.83286 0.08956 0.91188 0.0
O365 O 0.87083 0.10254 0.99078 0.0
O366 O 0.87239 0.17004 1.00216 0.0
H367 H 0.88807 0.28141 0.94461 0.0
H368 H 0.90888 0.28361 0.9185 0.0
C369 C 0.91343 0.27558 0.93468 0.0
H370 H 0.95164 0.30112 0.9399 0.0
H371 H 0.84877 0.25827 0.99185 0.0
O372 O 0.92435 0.0785 0.95427 0.0
C373 C 0.85568 0.12369 1.00293 0.0
Co374 Co 0.78484 0.90602 0.30094 0.0
Co375 Co 0.69774 0.91489 0.31785 0.0
C376 C 0.80181 0.99167 0.32787 0.0
O377 O 0.81702 0.96736 0.31772 0.0
O378 O 0.7559 0.97745 0.32866 0.0
C379 C 0.86349 0.93813 0.27399 0.0
O380 O 0.85486 0.97455 0.27193 0.0
C381 C 0.63427 0.95656 0.32571 0.0
C382 C 0.56032 0.8906 0.32773 0.0
C383 C 0.5848 0.94123 0.32829 0.0
N384 N 0.63908 0.91677 0.32382 0.0
N385 N 0.59478 0.87743 0.32525 0.0
C386 C 0.67578 0.00803 0.32326 0.0
H387 H 0.70062 0.00982 0.31073 0.0
H388 H 0.66195 0.03347 0.31991 0.0
H389 H 0.69746 0.01975 0.33769 0.0
C390 C 0.72932 0.88549 0.26227 0.0
N391 N 0.73684 0.89997 0.28205 0.0
N392 N 0.70027 0.9056 0.28851 0.0
C393 C 0.66929 0.89702 0.27248 0.0
C394 C 0.6866 0.88345 0.25541 0.0
C395 C 0.76106 0.87123 0.2503 0.0
H396 H 0.7742 0.85183 0.26033 0.0
H397 H 0.79311 0.90464 0.24398 0.0
H398 H 0.74114 0.8471 0.23717 0.0
O399 O 0.7554 0.8506 0.31925 0.0
O400 O 0.69547 0.85817 0.33386 0.0
H401 H 0.59492 0.86704 0.28258 0.0
H402 H 0.60767 0.89799 0.25816 0.0
C403 C 0.6227 0.89897 0.27369 0.0
H404 H 0.62975 0.93274 0.28181 0.0
H405 H 0.58793 0.84162 0.32392 0.0
O406 O 0.83736 0.90362 0.28628 0.0
C407 C 0.72031 0.83625 0.33206 0.0
H408 H 0.59664 0.58767 0.06402 0.0
H409 H 0.46859 0.60441 0.06887 0.0
H410 H 0.41496 0.51561 0.0675 0.0
H411 H 0.40468 0.43364 0.06497 0.0
H412 H 0.53298 0.41681 0.06284 0.0
H413 H 0.58649 0.50564 0.06314 0.0
C414 C 0.5572 0.57215 0.06547 0.0
C415 C 0.5369 0.6029 0.06722 0.0
C416 C 0.5266 0.52103 0.06505 0.0
C417 C 0.48531 0.58168 0.06772 0.0
C418 C 0.45458 0.53087 0.06698 0.0
C419 C 0.44424 0.44906 0.06525 0.0
C420 C 0.46463 0.41826 0.06454 0.0
C421 C 0.47485 0.50018 0.0658 0.0
C422 C 0.5162 0.43954 0.06358 0.0
C423 C 0.54688 0.49036 0.0638 0.0
H424 H 0.07421 0.49197 0.3844 0.0
H425 H 0.96839 0.37662 0.42338 0.0
H426 H 0.91986 0.41742 0.42555 0.0
H427 H 0.90888 0.48773 0.4173 0.0
H428 H 0.01671 0.6043 0.37939 0.0
H429 H 0.06332 0.56178 0.37615 0.0
C430 C 0.04035 0.47561 0.39328 0.0
C431 C 0.02422 0.43047 0.40315 0.0
C432 C 0.0133 0.49995 0.3949 0.0
C433 C 0.98065 0.41016 0.41485 0.0
C434 C 0.95319 0.43389 0.41636 0.0
C435 C 0.94254 0.50368 0.40831 0.0
C436 C 0.95987 0.54963 0.39898 0.0
C437 C 0.96924 0.47891 0.4065 0.0
C438 C 1.00337 0.56977 0.38727 0.0
C439 C 0.02982 0.54522 0.38524 0.0
H440 H 0.57983 1.00026 0.71941 0.0
H441 H 0.59978 0.11955 0.75812 0.0
H442 H 0.51035 0.08295 0.76128 0.0
H443 H 0.42659 0.01564 0.75396 0.0
H444 H 0.40664 0.89809 0.71395 0.0
H445 H 0.49578 0.93454 0.71098 0.0
C446 C 0.56458 0.01793 0.72871 0.0
C447 C 0.59644 0.06215 0.73879 0.0
C448 C 0.51305 0.9969 0.7303 0.0
C449 C 0.57605 0.08539 0.75027 0.0
C450 C 0.52489 0.06441 0.75212 0.0
C451 C 0.44137 0.99857 0.7441 0.0
C452 C 0.40938 0.95452 0.73385 0.0
C453 C 0.49296 0.0201 0.74222 0.0
C454 C 0.43009 0.93206 0.72199 0.0
C455 C 0.4812 0.95293 0.72022 0.0
H456 H 0.57602 0.57684 0.67247 0.0
H457 H 0.59066 0.48666 0.62655 0.0
H458 H 0.50093 0.43638 0.62397 0.0
H459 H 0.41874 0.41891 0.63437 0.0
H460 H 0.40315 0.50484 0.68214 0.0
H461 H 0.49273 0.55706 0.68382 0.0
C462 C 0.55944 0.54645 0.66178 0.0
C463 C 0.58984 0.53578 0.64954 0.0
C464 C 0.50771 0.51704 0.66067 0.0
C465 C 0.56797 0.49561 0.6361 0.0
C466 C 0.51669 0.4669 0.63459 0.0
C467 C 0.43452 0.44782 0.64566 0.0
C468 C 0.40374 0.45663 0.65857 0.0
C469 C 0.48617 0.47711 0.64688 0.0
C470 C 0.42572 0.49671 0.67213 0.0
C471 C 0.47705 0.52662 0.67315 0.0
H472 H 0.9414 0.42918 1.01133 0.0
H473 H 0.01696 0.4176 0.95824 0.0
H474 H 0.06791 0.50669 0.95649 0.0
H475 H 0.09035 0.58837 0.96988 0.0
H476 H 0.00985 0.59999 1.02108 0.0
H477 H 0.96139 0.51068 1.02383 0.0
C478 C 0.96909 0.4463 0.99942 0.0
C479 C 0.97691 0.417 0.98547 0.0
C480 C 0.99731 0.49756 0.99819 0.0
C481 C 0.01199 0.43945 0.96977 0.0
C482 C 0.04075 0.49038 0.96862 0.0
C483 C 0.06246 0.5711 0.98171 0.0
C484 C 0.05362 0.60023 0.99534 0.0
C485 C 0.03397 0.51982 0.98283 0.0
C486 C 0.01702 0.57791 1.01044 0.0
C487 C 0.98935 0.52699 1.01199 0.0
H488 H 0.5225 0.94415 0.30079 0.0
H489 H 0.59644 0.00684 0.35789 0.0
H490 H 0.55552 0.05571 0.36006 0.0
H491 H 0.49636 0.07821 0.34602 0.0
H492 H 0.43018 0.02155 0.2869 0.0
H493 H 0.47 0.97265 0.28521 0.0
C494 C 0.52946 0.96857 0.31367 0.0
C495 C 0.56161 0.97172 0.3293 0.0
C496 C 0.50686 0.99722 0.31451 0.0
C497 C 0.57142 0.00392 0.34578 0.0
C498 C 0.5481 0.03174 0.347 0.0
C499 C 0.49084 0.05532 0.33273 0.0
C500 C 0.45808 0.05163 0.31714 0.0
C501 C 0.51543 0.02842 0.3315 0.0
C502 C 0.45247 0.02282 0.29977 0.0
C503 C 0.47596 0.99533 0.2986 0.0
H504 H 0.22135 0.98303 0.99351 0.0
H505 H 0.15534 0.87758 0.04225 0.0
H506 H 0.19112 0.94345 0.06775 0.0
H507 H 0.22803 0.03171 0.07534 0.0
H508 H 0.29579 0.13679 1.02645 0.0
H509 H 0.27318 0.07051 1.00184 0.0
C510 C 0.21649 0.97447 1.00977 0.0
C511 C 0.18571 0.92577 1.01607 0.0
C512 C 0.23665 0.01253 1.02425 0.0
C513 C 0.17936 0.91483 0.0371 0.0
C514 C 0.19923 0.95256 0.05165 0.0
C515 C 0.23882 0.04003 0.05937 0.0
C516 C 0.2627 0.08898 0.05263 0.0
C517 C 0.22588 0.00167 0.0453 0.0
C518 C 0.27722 0.09941 0.03199 0.0
C519 C 0.26406 0.0615 1.01789 0.0
H520 H 0.26598 0.30613 0.37784 0.0
H521 H 0.13688 0.27412 0.34271 0.0
H522 H 0.16069 0.23503 0.31621 0.0
H523 H 0.20641 0.19239 0.30796 0.0
H524 H 0.33205 0.2196 0.34492 0.0
H525 H 0.32139 0.27777 0.36575 0.0
C526 C 0.24448 0.29283 0.36384 0.0
C527 C 0.19943 0.2924 0.36234 0.0
C528 C 0.25668 0.26754 0.34943 0.0
C529 C 0.17183 0.27517 0.34419 0.0
C530 C 0.18486 0.25168 0.32927 0.0
C531 C 0.23207 0.21169 0.32033 0.0
C532 C 0.26916 0.20045 0.3252 0.0
C533 C 0.22524 0.24466 0.33251 0.0
C534 C 0.30267 0.22674 0.341 0.0
C535 C 0.29663 0.26013 0.35294 0.0
H536 H 0.10023 0.28842 0.69674 0.0
H537 H 0.01954 0.25177 0.63984 0.0
H538 H 0.94223 0.22265 0.65839 0.0
H539 H 0.89663 0.18831 0.6907 0.0
H540 H 0.97737 0.22227 0.74752 0.0
H541 H 0.05483 0.27251 0.72937 0.0
C542 C 0.06603 0.27629 0.68843 0.0
C543 C 0.06546 0.27148 0.66701 0.0
C544 C 0.02122 0.25794 0.69927 0.0
C545 C 0.02076 0.25531 0.6564 0.0
C546 C 0.97638 0.2382 0.66701 0.0
C547 C 0.93092 0.20867 0.69914 0.0
C548 C 0.93146 0.20117 0.72033 0.0
C549 C 0.97579 0.23635 0.68847 0.0
C550 C 0.97623 0.22732 0.73112 0.0
C551 C 0.02066 0.25574 0.72073 0.0
H552 H 0.79333 0.98965 0.07898 0.0
H553 H 0.6968 0.88493 0.03403 0.0
H554 H 0.71643 0.95108 1.00976 0.0
H555 H 0.77278 0.03622 0.99935 0.0
H556 H 0.86942 0.14128 0.04395 0.0
H557 H 0.83698 0.0779 0.07055 0.0
C558 C 0.77577 0.98145 0.06403 0.0
C559 C 0.74444 0.93232 0.05816 0.0
C560 C 0.78731 0.01977 0.0501 0.0
C561 C 0.72127 0.92231 0.03889 0.0
C562 C 0.73265 0.96015 1.02496 0.0
C563 C 0.78511 0.04559 1.01511 0.0
C564 C 0.8234 0.09317 1.01974 0.0
C565 C 0.76718 0.00871 0.03011 0.0
C566 C 0.8395 0.10504 0.04012 0.0
C567 C 0.82153 0.06856 0.05523 0.0
H568 H 0.73275 0.75886 0.32503 0.0
H569 H 0.70152 0.83326 0.37308 0.0
H570 H 0.729 0.79587 0.39884 0.0
H571 H 0.78104 0.75981 0.40628 0.0
H572 H 0.81623 0.68904 0.35798 0.0
H573 H 0.76721 0.70624 0.33374 0.0
C574 C 0.73012 0.76528 0.34122 0.0
C575 C 0.71609 0.79948 0.34717 0.0
C576 C 0.74774 0.74511 0.35582 0.0
C577 C 0.71221 0.80715 0.36814 0.0
C578 C 0.72864 0.7863 0.38284 0.0
C579 C 0.77652 0.74669 0.39059 0.0
C580 C 0.80296 0.72412 0.38376 0.0
C581 C 0.74944 0.75791 0.37669 0.0
C582 C 0.79637 0.70661 0.36355 0.0
C583 C 0.76875 0.71692 0.34965 0.0
H584 H 0.02615 0.74785 0.73549 0.0
H585 H 0.13058 0.82125 0.68672 0.0
H586 H 0.06471 0.78021 0.66136 0.0
H587 H 0.976 0.7436 0.65442 0.0
H588 H 0.87089 0.67854 0.70366 0.0
H589 H 0.93805 0.6952 0.72751 0.0
C590 C 0.03479 0.75306 0.71924 0.0
C591 C 0.08294 0.78822 0.71295 0.0
C592 C 0.99615 0.73183 0.70492 0.0
C593 C 0.09396 0.79444 0.69193 0.0
C594 C 0.05601 0.77161 0.67746 0.0
C595 C 0.9677 0.73144 0.67024 0.0
C596 C 0.91877 0.7107 0.67744 0.0
C597 C 0.00666 0.74326 0.68393 0.0
C598 C 0.90819 0.69456 0.69782 0.0
C599 C 0.94672 0.70466 0.71147 0.0
H600 H 0.10397 0.02921 0.13262 0.0
H601 H 0.05367 0.13371 0.13526 0.0
H602 H 0.96897 0.06731 0.14009 0.0
H603 H 0.90893 0.9803 0.13572 0.0
H604 H 0.95904 0.87602 0.13041 0.0
H605 H 0.04427 0.9416 0.13495 0.0
C606 C 0.07457 0.03749 0.1347 0.0
C607 C 0.08455 0.08594 0.13288 0.0
C608 C 0.02596 0.99917 0.13673 0.0
C609 C 0.04663 0.09651 0.13623 0.0
C610 C 0.99819 0.05857 0.13888 0.0
C611 C 0.93846 0.97182 0.136 0.0
C612 C 0.92816 0.92389 0.13205 0.0
C613 C 0.98727 0.00979 0.1379 0.0
C614 C 0.9663 0.91291 0.13307 0.0
C615 C 0.01502 0.9504 0.13555 0.0
H616 H 0.02615 0.08695 0.46223 0.0
H617 H 0.17152 0.12118 0.44255 0.0
H618 H 0.14808 0.0351 0.44582 0.0
H619 H 0.08128 0.94971 0.44652 0.0
H620 H 0.93313 0.91585 0.46097 0.0
H621 H 0.96252 0.00225 0.46781 0.0
C622 C 0.05316 0.07583 0.45924 0.0
C623 C 0.10001 0.1098 0.45169 0.0
C624 C 0.03848 0.02619 0.45987 0.0
C625 C 0.13487 0.09519 0.44803 0.0
C626 C 0.12142 0.04606 0.4498 0.0
C627 C 0.05579 0.96123 0.45174 0.0
C628 C 0.0052 0.9272 0.45291 0.0
C629 C 0.0725 0.01102 0.45448 0.0
C630 C 0.97221 0.94202 0.45965 0.0
C631 C 0.98897 0.99124 0.46354 0.0
H632 H 0.88045 0.93837 0.7938 0.0
H633 H 0.98864 0.09159 0.79937 0.0
H634 H 0.05325 0.07155 0.80566 0.0
H635 H 0.0809 0.01294 0.79986 0.0
H636 H 0.97416 0.86131 0.78841 0.0
H637 H 0.90686 0.87753 0.79464 0.0
C638 C 0.91786 0.96706 0.7972 0.0
C639 C 0.93048 0.01618 0.79576 0.0
C640 C 0.95515 0.95541 0.7993 0.0
C641 C 0.97875 0.05346 0.80013 0.0
C642 C 0.0156 0.04203 0.80361 0.0
C643 C 0.04291 0.98321 0.79941 0.0
C644 C 0.03208 0.93649 0.79309 0.0
C645 C 0.00472 0.99346 0.80171 0.0
C646 C 0.98297 0.89794 0.79275 0.0
C647 C 0.94459 0.9072 0.79627 0.0
H648 H 0.90809 0.93438 0.59162 0.0
H649 H 0.01118 0.88601 0.60585 0.0
H650 H 0.08024 0.96689 0.59759 0.0
H651 H 0.10972 0.05433 0.59562 0.0
H652 H 0.00603 0.10444 0.58661 0.0
H653 H 0.93886 0.02009 0.58272 0.0
C654 C 0.94565 0.94128 0.59225 0.0
C655 C 0.95505 0.90538 0.5999 0.0
C656 C 0.98502 0.98843 0.58861 0.0
C657 C 1.00355 0.91402 0.6005 0.0
C658 C 0.04294 0.96012 0.59579 0.0
C659 C 0.07273 0.04673 0.59201 0.0
C660 C 0.06212 0.08477 0.59197 0.0
C661 C 0.03407 0.99831 0.59123 0.0
C662 C 0.0144 0.07508 0.58714 0.0
C663 C 0.97606 0.02699 0.58504 0.0
H664 H 0.06422 0.97745 0.93104 0.0
H665 H 0.91595 0.85878 0.94123 0.0
H666 H 0.88351 0.91345 0.93462 0.0
H667 H 0.90028 0.998 0.93492 0.0
H668 H 0.04926 0.11719 0.92667 0.0
H669 H 0.07851 0.05919 0.92281 0.0
C670 C 0.02472 0.96346 0.93124 0.0
C671 C 0.99246 0.9151 0.9373 0.0
C672 C 0.00667 0.99525 0.92797 0.0
C673 C 0.94134 0.89638 0.93692 0.0
C674 C 0.92286 0.92762 0.93327 0.0
C675 C 0.93889 0.01106 0.93168 0.0
C676 C 0.97298 0.06139 0.93188 0.0
C677 C 0.95556 0.97768 0.93017 0.0
C678 C 0.02259 0.07837 0.92698 0.0
C679 C 0.03938 0.04529 0.92493 0.0
H680 H 0.05105 0.92624 0.25893 0.0
H681 H 0.10768 0.07915 0.24588 0.0
H682 H 0.02386 0.06499 0.24325 0.0
H683 H 0.93799 0.0143 0.25396 0.0
H684 H 0.88295 0.86351 0.27087 0.0
H685 H 0.96225 0.87128 0.26234 0.0
C686 C 0.04492 0.95602 0.25474 0.0
C687 C 0.08493 0.00381 0.25327 0.0
C688 C 0.9969 0.94816 0.25447 0.0
C689 C 0.07696 0.04217 0.24758 0.0
C690 C 0.02915 0.03417 0.2462 0.0
C691 C 0.94298 0.98282 0.25524 0.0
C692 C 0.90567 0.93909 0.26378 0.0
C693 C 0.98918 0.98811 0.25114 0.0
C694 C 0.91196 0.89813 0.26493 0.0
C695 C 0.95722 0.90248 0.26004 0.0
H696 H 0.03887 0.24645 0.02953 0.0
H697 H 0.08415 0.19744 0.97647 0.0
H698 H 0.15614 0.20679 0.99515 0.0
H699 H 0.20102 0.21974 1.02783 0.0
H700 H 0.14905 0.25752 0.08211 0.0
H701 H 0.08569 0.26245 0.06191 0.0
C702 C 0.06519 0.23896 1.02195 0.0
C703 C 0.05646 0.22178 1.00155 0.0
C704 C 0.10529 0.24214 0.03315 0.0
C705 C 0.09019 0.21097 0.9921 0.0
C706 C 0.13129 0.21615 1.00281 0.0
C707 C 0.17667 0.23043 0.03506 0.0
C708 C 0.18034 0.23934 0.05634 0.0
C709 C 0.13859 0.23051 1.02351 0.0
C710 C 0.14742 0.25136 0.0657 0.0
C711 C 0.11097 0.25379 0.05416 0.0
H712 H 0.9397 0.18498 0.37965 0.0
H713 H 0.01816 0.10627 0.38829 0.0
H714 H 0.95784 0.0393 0.36757 0.0
H715 H 0.88431 0.00279 0.34602 0.0
H716 H 0.80003 0.07539 0.33873 0.0
H717 H 0.86065 0.14437 0.35964 0.0
C718 C 0.9433 0.15299 0.37717 0.0
C719 C 0.98416 0.15147 0.3856 0.0
C720 C 0.90754 0.11336 0.36522 0.0
C721 C 0.98766 0.10922 0.38215 0.0
C722 C 0.95309 0.0706 0.37014 0.0
C723 C 0.87922 0.03381 0.34889 0.0
C724 C 0.83804 0.03418 0.34048 0.0
C725 C 0.91329 0.07244 0.36139 0.0
C726 C 0.83155 0.07423 0.34485 0.0
C727 C 0.86625 0.11369 0.35685 0.0
H728 H 0.78945 0.86992 0.65433 0.0
H729 H 0.76866 0.77074 0.70371 0.0
H730 H 0.7631 0.82644 0.72832 0.0
H731 H 0.77313 0.90798 0.73629 0.0
H732 H 0.78516 0.00317 0.68659 0.0
H733 H 0.78447 0.94461 0.66171 0.0
C734 C 0.78251 0.86001 0.67042 0.0
C735 C 0.77961 0.81613 0.67715 0.0
C736 C 0.77809 0.89182 0.68449 0.0
C737 C 0.7706 0.80391 0.69806 0.0
C738 C 0.76781 0.83603 0.71219 0.0
C739 C 0.77423 0.91522 0.71998 0.0
C740 C 0.77909 0.95999 0.71333 0.0
C741 C 0.7727 0.88069 0.70567 0.0
C742 C 0.78074 0.96886 0.69213 0.0
C743 C 0.78083 0.9355 0.67789 0.0
H744 H 0.86688 0.7724 0.07577 0.0
H745 H 0.77419 0.77689 1.02799 0.0
H746 H 0.82861 0.77388 1.00185 0.0
H747 H 0.90811 0.77975 0.99261 0.0
H748 H 0.9967 0.76729 0.04013 0.0
H749 H 0.93831 0.76283 0.0662 0.0
C750 C 0.85803 0.77153 0.05963 0.0
C751 C 0.81662 0.77515 0.05386 0.0
C752 C 0.88904 0.76869 0.04459 0.0
C753 C 0.80555 0.7738 0.03288 0.0
C754 C 0.83694 0.77247 1.01789 0.0
C755 C 0.91387 0.77475 1.00863 0.0
C756 C 0.95682 0.77403 1.01442 0.0
C757 C 0.87954 0.77126 1.02355 0.0
C758 C 0.96378 0.7675 0.03523 0.0
C759 C 0.93058 0.76542 0.05019 0.0
H760 H 0.13322 0.90997 0.31547 0.0
H761 H 0.2211 0.01088 0.36315 0.0
H762 H 0.16618 0.9541 0.38929 0.0
H763 H 0.08877 0.87853 0.39856 0.0
H764 H 0.00522 0.77368 0.3514 0.0
H765 H 0.06279 0.82843 0.32526 0.0
C766 C 0.14078 0.9191 0.3316 0.0
C767 C 0.18122 0.96491 0.33729 0.0
C768 C 0.1096 0.88547 0.34669 0.0
C769 C 0.19057 0.97593 0.35829 0.0
C770 C 0.15892 0.94351 0.37328 0.0
C771 C 0.08382 0.86723 0.3826 0.0
C772 C 0.04261 0.82198 0.37697 0.0
C773 C 0.11776 0.89857 0.36767 0.0
C774 C 0.0368 0.80795 0.35621 0.0
C775 C 0.06954 0.83953 0.34122 0.0
H776 H 0.25188 0.08456 0.72418 0.0
H777 H 0.12072 0.96427 0.69784 0.0
H778 H 0.11443 0.01951 0.67362 0.0
H779 H 0.14255 0.10177 0.66088 0.0
H780 H 0.27076 0.22499 0.68747 0.0
H781 H 0.2818 0.16941 0.71034 0.0
C782 C 0.2224 0.07057 0.71295 0.0
C783 C 0.18684 0.02005 0.71283 0.0
C784 C 0.21815 0.10323 0.69914 0.0
C785 C 0.1485 0.00278 0.69833 0.0
C786 C 0.1448 0.03443 0.68444 0.0
C787 C 0.17329 0.11681 0.67153 0.0
C788 C 0.20572 0.16793 0.67229 0.0
C789 C 0.17888 0.08475 0.68486 0.0
C790 C 0.24508 0.18602 0.68641 0.0
C791 C 0.25138 0.15411 0.69957 0.0
H792 H 0.34774 0.25701 0.17649 0.0
H793 H 0.35219 0.14478 0.14072 0.0
H794 H 0.36046 0.10668 0.17202 0.0
H795 H 0.34939 0.09665 0.20968 0.0
H796 H 0.34498 0.209 0.24542 0.0
H797 H 0.35474 0.25632 0.21428 0.0
C798 C 0.35292 0.2256 0.17558 0.0
C799 C 0.34988 0.20392 0.15639 0.0
C800 C 0.35678 0.20344 0.19372 0.0
C801 C 0.35535 0.16249 0.15534 0.0
C802 C 0.35937 0.14034 0.17326 0.0
C803 C 0.3528 0.1325 0.21065 0.0
C804 C 0.34685 0.14961 0.22975 0.0
C805 C 0.35777 0.15919 0.19258 0.0
C806 C 0.35022 0.19559 0.23087 0.0
C807 C 0.35522 0.22234 0.21303 0.0
H808 H 0.17127 0.26183 0.4925 0.0
H809 H 0.15623 0.39007 0.48896 0.0
H810 H 0.17449 0.40383 0.52574 0.0
H811 H 0.19145 0.37527 0.55959 0.0
H812 H 0.2282 0.26077 0.55812 0.0
H813 H 0.21087 0.24958 0.52157 0.0
C814 C 0.1754 0.29518 0.49883 0.0
C815 C 0.16318 0.32514 0.48712 0.0
C816 C 0.19136 0.30615 0.51919 0.0
C817 C 0.16426 0.36523 0.49719 0.0
C818 C 0.17575 0.37381 0.51829 0.0
C819 C 0.19812 0.34976 0.551 0.0
C820 C 0.21114 0.31878 0.56158 0.0
C821 C 0.18924 0.34422 0.52954 0.0
C822 C 0.21883 0.28532 0.55031 0.0
C823 C 0.20798 0.27824 0.52948 0.0
H824 H 0.82329 0.20135 0.8948 0.0
H825 H 0.94902 0.18028 0.89756 0.0
H826 H 0.93406 0.15009 0.86258 0.0
H827 H 0.87723 0.11674 0.83438 0.0
H828 H 0.77301 0.16583 0.824 0.0
H829 H 0.78354 0.19334 0.85974 0.0
C830 C 0.84866 0.19231 0.88739 0.0
C831 C 0.88641 0.19159 0.89902 0.0
C832 C 0.84178 0.17749 0.86648 0.0
C833 C 0.91929 0.18036 0.88909 0.0
C834 C 0.91039 0.16243 0.86916 0.0
C835 C 0.85924 0.13681 0.83877 0.0
C836 C 0.82519 0.13959 0.82553 0.0
C837 C 0.87063 0.15907 0.85808 0.0
C838 C 0.79884 0.16149 0.83341 0.0
C839 C 0.80569 0.17848 0.8539 0.0
H840 H 0.64192 0.79414 0.23721 0.0
H841 H 0.69251 0.9463 0.22582 0.0
H842 H 0.68872 0.93191 0.18875 0.0
H843 H 0.68688 0.87949 0.16024 0.0
H844 H 0.64174 0.72857 0.17172 0.0
H845 H 0.62673 0.73832 0.20793 0.0
C846 C 0.65004 0.82356 0.22652 0.0
C847 C 0.66731 0.87119 0.23414 0.0
C848 C 0.64977 0.81527 0.20524 0.0
C849 C 0.67864 0.90933 0.22026 0.0
C850 C 0.67712 0.90117 0.19908 0.0
C851 C 0.67223 0.84844 0.1706 0.0
C852 C 0.66561 0.80343 0.16347 0.0
C853 C 0.66511 0.85485 0.19146 0.0
C854 C 0.64691 0.76342 0.17692 0.0
C855 C 0.63875 0.76918 0.19763 0.0
H856 H 0.83498 0.63361 0.49558 0.0
H857 H 0.96904 0.77406 0.49812 0.0
H858 H 0.95188 0.78478 0.53339 0.0
H859 H 0.8925 0.76101 0.56054 0.0
H860 H 0.77548 0.61068 0.56531 0.0
H861 H 0.78883 0.59838 0.52925 0.0
C862 C 0.86141 0.66545 0.50416 0.0
C863 C 0.90255 0.70387 0.49397 0.0
C864 C 0.85279 0.67055 0.52522 0.0
C865 C 0.93667 0.74455 0.50543 0.0
C866 C 0.92664 0.75103 0.52556 0.0
C867 C 0.87187 0.72407 0.55482 0.0
C868 C 0.83379 0.68694 0.56661 0.0
C869 C 0.88391 0.71516 0.53526 0.0
C870 C 0.80464 0.64099 0.55706 0.0
C871 C 0.81297 0.63346 0.53637 0.0
H872 H 0.11222 0.87188 0.83311 0.0
H873 H 0.23685 0.84991 0.82776 0.0
H874 H 0.22794 0.82758 0.86431 0.0
H875 H 0.18245 0.81493 0.89838 0.0
H876 H 0.04239 0.81024 0.89677 0.0
H877 H 0.0559 0.83618 0.86125 0.0
C878 C 0.1357 0.85881 0.83898 0.0
C879 C 0.17405 0.86128 0.82683 0.0
C880 C 0.12653 0.8398 0.85886 0.0
C881 C 0.20697 0.84914 0.83633 0.0
C882 C 0.20129 0.83531 0.85727 0.0
C883 C 0.1541 0.81762 0.88996 0.0
C884 C 0.11199 0.81209 0.90046 0.0
C885 C 0.16074 0.83018 0.86876 0.0
C886 C 0.07545 0.81522 0.88923 0.0
C887 C 0.08335 0.83061 0.86895 0.0
loop_
_geom_bond_atom_site_label_1
_geom_bond_atom_site_label_2
_geom_bond_distance
_geom_bond_site_symmetry_2
_ccdc_geom_bond_type
Co0 O3 1.970 . S
Co0 N17 1.989 . S
Co0 O25 1.967 . S
Co0 O32 1.920 . S
Co1 O4 1.966 . S
Co1 N10 2.022 . S
Co1 N18 1.993 . S
Co1 O26 1.941 . S
C2 O3 1.258 . S
C2 O4 1.263 . S
O3 Co0 1.970 . S
O3 C2 1.258 . S
O4 Co1 1.966 . S
O4 C2 1.263 . S
C5 O6 1.235 . S
C5 O32 1.289 . S
O6 C5 1.235 . S
C7 C9 1.400 . S
C7 N10 1.351 . S
C7 C12 1.501 . S
C8 C9 1.387 . S
C8 N11 1.341 . S
C9 C7 1.400 . S
C9 C8 1.387 . S
N10 Co1 2.022 . S
N10 C7 1.351 . S
N10 N11 1.365 . S
N11 C8 1.341 . S
N11 N10 1.365 . S
N11 H31 0.862 . S
C12 C7 1.501 . S
C12 H13 0.961 . S
C12 H14 0.961 . S
C12 H15 0.960 . S
H13 C12 0.961 . S
H14 C12 0.961 . S
H15 C12 0.960 . S
C16 N17 1.342 . S
C16 C20 1.401 . S
C16 C21 1.499 . S
N17 Co0 1.989 . S
N17 C16 1.342 . S
N17 N18 1.388 . S
N18 Co1 1.993 . S
N18 N17 1.388 . S
N18 C19 1.346 . S
C19 N18 1.346 . S
C19 C20 1.396 . S
C19 C29 1.510 . S
C20 C16 1.401 . S
C20 C19 1.396 . S
C21 C16 1.499 . S
C21 H22 0.959 . S
C21 H23 0.960 . S
C21 H24 0.961 . S
H22 C21 0.959 . S
H23 C21 0.960 . S
H24 C21 0.961 . S
O25 Co0 1.967 . S
O25 C33 1.258 . S
O26 Co1 1.941 . S
O26 C33 1.266 . S
H27 C29 0.959 . S
H28 C29 0.961 . S
C29 C19 1.510 . S
C29 H27 0.959 . S
C29 H28 0.961 . S
C29 H30 0.960 . S
H30 C29 0.960 . S
H31 N11 0.862 . S
O32 Co0 1.920 . S
O32 C5 1.289 . S
C33 O25 1.258 . S
C33 O26 1.266 . S
Co34 O37 1.970 . S
Co34 N51 1.989 . S
Co34 O59 1.967 . S
Co34 O66 1.920 . S
Co35 O38 1.966 . S
Co35 N44 2.022 . S
Co35 N52 1.993 . S
Co35 O60 1.941 . S
C36 O37 1.258 . S
C36 O38 1.263 . S
O37 Co34 1.970 . S
O37 C36 1.258 . S
O38 Co35 1.966 . S
O38 C36 1.263 . S
C39 O40 1.235 . S
C39 O66 1.289 . S
O40 C39 1.235 . S
C41 C43 1.400 . S
C41 N44 1.351 . S
C41 C46 1.501 . S
C42 C43 1.387 . S
C42 N45 1.341 . S
C43 C41 1.400 . S
C43 C42 1.387 . S
N44 Co35 2.022 . S
N44 C41 1.351 . S
N44 N45 1.365 . S
N45 C42 1.341 . S
N45 N44 1.365 . S
N45 H65 0.862 . S
C46 C41 1.501 . S
C46 H47 0.961 . S
C46 H48 0.961 1_455 S
C46 H49 0.960 . S
H47 C46 0.961 . S
H48 C46 0.961 1_655 S
H49 C46 0.960 . S
C50 N51 1.342 . S
C50 C54 1.401 . S
C50 C55 1.499 . S
N51 Co34 1.989 . S
N51 C50 1.342 . S
N51 N52 1.388 . S
N52 Co35 1.993 . S
N52 N51 1.388 . S
N52 C53 1.346 . S
C53 N52 1.346 . S
C53 C54 1.396 . S
C53 C63 1.510 . S
C54 C50 1.401 . S
C54 C53 1.396 . S
C55 C50 1.499 . S
C55 H56 0.959 . S
C55 H57 0.960 . S
C55 H58 0.961 . S
H56 C55 0.959 . S
H57 C55 0.960 . S
H58 C55 0.961 . S
O59 Co34 1.967 . S
O59 C67 1.258 . S
O60 Co35 1.941 . S
O60 C67 1.266 . S
H61 C63 0.959 . S
H62 C63 0.961 . S
C63 C53 1.510 . S
C63 H61 0.959 . S
C63 H62 0.961 . S
C63 H64 0.960 . S
H64 C63 0.960 . S
H65 N45 0.862 . S
O66 Co34 1.920 . S
O66 C39 1.289 . S
C67 O59 1.258 . S
C67 O60 1.266 . S
Co68 O71 1.970 . S
Co68 N85 1.989 . S
Co68 O93 1.967 . S
Co68 O100 1.920 . S
Co69 O72 1.966 . S
Co69 N78 2.022 . S
Co69 N86 1.993 . S
Co69 O94 1.941 . S
C70 O71 1.258 . S
C70 O72 1.263 . S
O71 Co68 1.970 . S
O71 C70 1.258 . S
O72 Co69 1.966 . S
O72 C70 1.263 . S
C73 O74 1.235 . S
C73 O100 1.289 . S
O74 C73 1.235 . S
C75 C77 1.400 . S
C75 N78 1.351 . S
C75 C80 1.501 . S
C76 C77 1.387 . S
C76 N79 1.341 . S
C77 C75 1.400 . S
C77 C76 1.387 . S
N78 Co69 2.022 . S
N78 C75 1.351 . S
N78 N79 1.365 . S
N79 C76 1.341 . S
N79 N78 1.365 . S
N79 H99 0.862 . S
C80 C75 1.501 . S
C80 H81 0.961 . S
C80 H82 0.961 1_545 S
C80 H83 0.960 . S
H81 C80 0.961 . S
H82 C80 0.961 1_565 S
H83 C80 0.960 . S
C84 N85 1.342 . S
C84 C88 1.401 . S
C84 C89 1.499 . S
N85 Co68 1.989 . S
N85 C84 1.342 . S
N85 N86 1.388 . S
N86 Co69 1.993 . S
N86 N85 1.388 . S
N86 C87 1.346 . S
C87 N86 1.346 . S
C87 C88 1.396 . S
C87 C97 1.510 . S
C88 C84 1.401 . S
C88 C87 1.396 . S
C89 C84 1.499 . S
C89 H90 0.959 . S
C89 H91 0.960 . S
C89 H92 0.961 . S
H90 C89 0.959 . S
H91 C89 0.960 . S
H92 C89 0.961 . S
O93 Co68 1.967 . S
O93 C101 1.258 . S
O94 Co69 1.941 . S
O94 C101 1.266 . S
H95 C97 0.959 . S
H96 C97 0.961 . S
C97 C87 1.510 . S
C97 H95 0.959 . S
C97 H96 0.961 . S
C97 H98 0.960 . S
H98 C97 0.960 . S
H99 N79 0.862 . S
O100 Co68 1.920 . S
O100 C73 1.289 . S
C101 O93 1.258 . S
C101 O94 1.266 . S
Co102 O105 1.970 . S
Co102 N119 1.989 . S
Co102 O127 1.967 . S
Co102 O134 1.920 . S
Co103 O106 1.966 . S
Co103 N112 2.022 . S
Co103 N120 1.993 . S
Co103 O128 1.941 . S
C104 O105 1.258 . S
C104 O106 1.263 . S
O105 Co102 1.970 . S
O105 C104 1.258 . S
O106 Co103 1.966 . S
O106 C104 1.263 . S
C107 O108 1.235 . S
C107 O134 1.289 . S
O108 C107 1.235 . S
C109 C111 1.400 . S
C109 N112 1.351 . S
C109 C114 1.501 . S
C110 C111 1.387 . S
C110 N113 1.341 . S
C111 C109 1.400 . S
C111 C110 1.387 . S
N112 Co103 2.022 . S
N112 C109 1.351 . S
N112 N113 1.365 . S
N113 C110 1.341 . S
N113 N112 1.365 . S
N113 H133 0.862 . S
C114 C109 1.501 . S
C114 H115 0.961 . S
C114 H116 0.961 . S
C114 H117 0.960 . S
H115 C114 0.961 . S
H116 C114 0.961 . S
H117 C114 0.960 . S
C118 N119 1.342 . S
C118 C122 1.401 . S
C118 C123 1.499 . S
N119 Co102 1.989 . S
N119 C118 1.342 . S
N119 N120 1.388 . S
N120 Co103 1.993 . S
N120 N119 1.388 . S
N120 C121 1.346 . S
C121 N120 1.346 . S
C121 C122 1.396 . S
C121 C131 1.510 . S
C122 C118 1.401 . S
C122 C121 1.396 . S
C123 C118 1.499 . S
C123 H124 0.959 . S
C123 H125 0.960 . S
C123 H126 0.961 . S
H124 C123 0.959 . S
H125 C123 0.960 . S
H126 C123 0.961 . S
O127 Co102 1.967 . S
O127 C135 1.258 . S
O128 Co103 1.941 . S
O128 C135 1.266 . S
H129 C131 0.959 . S
H130 C131 0.961 . S
C131 C121 1.510 . S
C131 H129 0.959 . S
C131 H130 0.961 . S
C131 H132 0.960 . S
H132 C131 0.960 . S
H133 N113 0.862 . S
O134 Co102 1.920 . S
O134 C107 1.289 . S
C135 O127 1.258 . S
C135 O128 1.266 . S
Co136 O139 1.970 . S
Co136 N153 1.989 . S
Co136 O161 1.967 . S
Co136 O168 1.920 . S
Co137 O140 1.966 . S
Co137 N146 2.022 . S
Co137 N154 1.993 . S
Co137 O162 1.941 . S
C138 O139 1.258 . S
C138 O140 1.263 . S
O139 Co136 1.970 . S
O139 C138 1.258 . S
O140 Co137 1.966 . S
O140 C138 1.263 . S
C141 O142 1.235 . S
C141 O168 1.289 . S
O142 C141 1.235 . S
C143 C145 1.400 . S
C143 N146 1.351 . S
C143 C148 1.501 . S
C144 C145 1.387 . S
C144 N147 1.341 . S
C145 C143 1.400 . S
C145 C144 1.387 . S
N146 Co137 2.022 . S
N146 C143 1.351 . S
N146 N147 1.365 . S
N147 C144 1.341 . S
N147 N146 1.365 . S
N147 H167 0.862 . S
C148 C143 1.501 . S
C148 H149 0.961 . S
C148 H150 0.961 1_655 S
C148 H151 0.960 . S
H149 C148 0.961 . S
H150 C148 0.961 1_455 S
H151 C148 0.960 . S
C152 N153 1.342 . S
C152 C156 1.401 . S
C152 C157 1.499 . S
N153 Co136 1.989 . S
N153 C152 1.342 . S
N153 N154 1.388 . S
N154 Co137 1.993 . S
N154 N153 1.388 . S
N154 C155 1.346 . S
C155 N154 1.346 . S
C155 C156 1.396 . S
C155 C165 1.510 . S
C156 C152 1.401 . S
C156 C155 1.396 . S
C157 C152 1.499 . S
C157 H158 0.959 . S
C157 H159 0.960 . S
C157 H160 0.961 . S
H158 C157 0.959 . S
H159 C157 0.960 . S
H160 C157 0.961 . S
O161 Co136 1.967 . S
O161 C169 1.258 . S
O162 Co137 1.941 . S
O162 C169 1.266 . S
H163 C165 0.959 . S
H164 C165 0.961 . S
C165 C155 1.510 . S
C165 H163 0.959 . S
C165 H164 0.961 . S
C165 H166 0.960 . S
H166 C165 0.960 . S
H167 N147 0.862 . S
O168 Co136 1.920 . S
O168 C141 1.289 . S
C169 O161 1.258 . S
C169 O162 1.266 . S
Co170 O173 1.970 . S
Co170 N187 1.989 . S
Co170 O195 1.967 . S
Co170 O202 1.920 . S
Co171 O174 1.966 . S
Co171 N180 2.022 . S
Co171 N188 1.993 . S
Co171 O196 1.941 . S
C172 O173 1.258 . S
C172 O174 1.263 . S
O173 Co170 1.970 . S
O173 C172 1.258 . S
O174 Co171 1.966 . S
O174 C172 1.263 . S
C175 O176 1.235 . S
C175 O202 1.289 . S
O176 C175 1.235 . S
C177 C179 1.400 . S
C177 N180 1.351 . S
C177 C182 1.501 . S
C178 C179 1.387 . S
C178 N181 1.341 . S
C179 C177 1.400 . S
C179 C178 1.387 . S
N180 Co171 2.022 . S
N180 C177 1.351 . S
N180 N181 1.365 . S
N181 C178 1.341 . S
N181 N180 1.365 . S
N181 H201 0.862 . S
C182 C177 1.501 . S
C182 H183 0.961 . S
C182 H184 0.961 1_565 S
C182 H185 0.960 . S
H183 C182 0.961 . S
H184 C182 0.961 1_545 S
H185 C182 0.960 . S
C186 N187 1.342 . S
C186 C190 1.401 . S
C186 C191 1.499 . S
N187 Co170 1.989 . S
N187 C186 1.342 . S
N187 N188 1.388 . S
N188 Co171 1.993 . S
N188 N187 1.388 . S
N188 C189 1.346 . S
C189 N188 1.346 . S
C189 C190 1.396 . S
C189 C199 1.510 . S
C190 C186 1.401 . S
C190 C189 1.396 . S
C191 C186 1.499 . S
C191 H192 0.959 . S
C191 H193 0.960 . S
C191 H194 0.961 . S
H192 C191 0.959 . S
H193 C191 0.960 . S
H194 C191 0.961 . S
O195 Co170 1.967 . S
O195 C203 1.258 . S
O196 Co171 1.941 . S
O196 C203 1.266 . S
H197 C199 0.959 . S
H198 C199 0.961 . S
C199 C189 1.510 . S
C199 H197 0.959 . S
C199 H198 0.961 . S
C199 H200 0.960 . S
H200 C199 0.960 . S
H201 N181 0.862 . S
O202 Co170 1.920 . S
O202 C175 1.289 . S
C203 O195 1.258 . S
C203 O196 1.266 . S
Co204 O207 1.970 . S
Co204 N221 1.989 . S
Co204 O229 1.967 . S
Co204 O236 1.920 . S
Co205 O208 1.966 . S
Co205 N214 2.022 . S
Co205 N222 1.993 . S
Co205 O230 1.941 . S
C206 O207 1.258 . S
C206 O208 1.263 . S
O207 Co204 1.970 . S
O207 C206 1.258 . S
O208 Co205 1.966 . S
O208 C206 1.263 . S
C209 O210 1.235 . S
C209 O236 1.289 . S
O210 C209 1.235 . S
C211 C213 1.400 . S
C211 N214 1.351 . S
C211 C216 1.501 . S
C212 C213 1.387 . S
C212 N215 1.341 . S
C213 C211 1.400 . S
C213 C212 1.387 . S
N214 Co205 2.022 . S
N214 C211 1.351 . S
N214 N215 1.365 . S
N215 C212 1.341 . S
N215 N214 1.365 . S
N215 H235 0.862 . S
C216 C211 1.501 . S
C216 H217 0.961 . S
C216 H218 0.961 . S
C216 H219 0.960 . S
H217 C216 0.961 . S
H218 C216 0.961 . S
H219 C216 0.960 . S
C220 N221 1.342 . S
C220 C224 1.401 . S
C220 C225 1.499 . S
N221 Co204 1.989 . S
N221 C220 1.342 . S
N221 N222 1.388 . S
N222 Co205 1.993 . S
N222 N221 1.388 . S
N222 C223 1.346 . S
C223 N222 1.346 . S
C223 C224 1.396 . S
C223 C233 1.510 . S
C224 C220 1.401 . S
C224 C223 1.396 . S
C225 C220 1.499 . S
C225 H226 0.959 . S
C225 H227 0.960 . S
C225 H228 0.961 . S
H226 C225 0.959 . S
H227 C225 0.960 . S
H228 C225 0.961 . S
O229 Co204 1.967 . S
O229 C237 1.258 . S
O230 Co205 1.941 . S
O230 C237 1.266 . S
H231 C233 0.959 . S
H232 C233 0.961 . S
C233 C223 1.510 . S
C233 H231 0.959 . S
C233 H232 0.961 . S
C233 H234 0.960 . S
H234 C233 0.960 . S
H235 N215 0.862 . S
O236 Co204 1.920 . S
O236 C209 1.289 . S
C237 O229 1.258 . S
C237 O230 1.266 . S
Co238 O241 1.970 . S
Co238 N255 1.989 . S
Co238 O263 1.967 . S
Co238 O270 1.920 . S
Co239 O242 1.966 . S
Co239 N248 2.022 . S
Co239 N256 1.993 . S
Co239 O264 1.941 . S
C240 O241 1.258 . S
C240 O242 1.263 . S
O241 Co238 1.970 . S
O241 C240 1.258 . S
O242 Co239 1.966 . S
O242 C240 1.263 . S
C243 O244 1.235 . S
C243 O270 1.289 . S
O244 C243 1.235 . S
C245 C247 1.400 . S
C245 N248 1.351 . S
C245 C250 1.501 . S
C246 C247 1.387 . S
C246 N249 1.341 . S
C247 C245 1.400 . S
C247 C246 1.387 . S
N248 Co239 2.022 . S
N248 C245 1.351 . S
N248 N249 1.365 . S
N249 C246 1.341 . S
N249 N248 1.365 . S
N249 H269 0.862 . S
C250 C245 1.501 . S
C250 H251 0.961 . S
C250 H252 0.961 1_455 S
C250 H253 0.960 . S
H251 C250 0.961 . S
H252 C250 0.961 1_655 S
H253 C250 0.960 . S
C254 N255 1.342 . S
C254 C258 1.401 . S
C254 C259 1.499 . S
N255 Co238 1.989 . S
N255 C254 1.342 . S
N255 N256 1.388 . S
N256 Co239 1.993 . S
N256 N255 1.388 . S
N256 C257 1.346 . S
C257 N256 1.346 . S
C257 C258 1.396 . S
C257 C267 1.510 . S
C258 C254 1.401 . S
C258 C257 1.396 . S
C259 C254 1.499 . S
C259 H260 0.959 . S
C259 H261 0.960 . S
C259 H262 0.961 . S
H260 C259 0.959 . S
H261 C259 0.960 . S
H262 C259 0.961 . S
O263 Co238 1.967 . S
O263 C271 1.258 . S
O264 Co239 1.941 . S
O264 C271 1.266 . S
H265 C267 0.959 . S
H266 C267 0.961 . S
C267 C257 1.510 . S
C267 H265 0.959 . S
C267 H266 0.961 . S
C267 H268 0.960 . S
H268 C267 0.960 . S
H269 N249 0.862 . S
O270 Co238 1.920 . S
O270 C243 1.289 . S
C271 O263 1.258 . S
C271 O264 1.266 . S
Co272 O275 1.970 . S
Co272 N289 1.989 . S
Co272 O297 1.967 . S
Co272 O304 1.920 . S
Co273 O276 1.966 . S
Co273 N282 2.022 . S
Co273 N290 1.993 . S
Co273 O298 1.941 . S
C274 O275 1.258 . S
C274 O276 1.263 . S
O275 Co272 1.970 . S
O275 C274 1.258 . S
O276 Co273 1.966 . S
O276 C274 1.263 . S
C277 O278 1.235 . S
C277 O304 1.289 . S
O278 C277 1.235 . S
C279 C281 1.400 . S
C279 N282 1.351 . S
C279 C284 1.501 . S
C280 C281 1.387 . S
C280 N283 1.341 . S
C281 C279 1.400 . S
C281 C280 1.387 . S
N282 Co273 2.022 . S
N282 C279 1.351 . S
N282 N283 1.365 . S
N283 C280 1.341 . S
N283 N282 1.365 . S
N283 H303 0.862 . S
C284 C279 1.501 . S
C284 H285 0.961 . S
C284 H286 0.961 1_545 S
C284 H287 0.960 . S
H285 C284 0.961 . S
H286 C284 0.961 1_565 S
H287 C284 0.960 . S
C288 N289 1.342 . S
C288 C292 1.401 . S
C288 C293 1.499 . S
N289 Co272 1.989 . S
N289 C288 1.342 . S
N289 N290 1.388 . S
N290 Co273 1.993 . S
N290 N289 1.388 . S
N290 C291 1.346 . S
C291 N290 1.346 . S
C291 C292 1.396 . S
C291 C301 1.510 . S
C292 C288 1.401 . S
C292 C291 1.396 . S
C293 C288 1.499 . S
C293 H294 0.959 . S
C293 H295 0.960 . S
C293 H296 0.961 . S
H294 C293 0.959 . S
H295 C293 0.960 . S
H296 C293 0.961 . S
O297 Co272 1.967 . S
O297 C305 1.258 . S
O298 Co273 1.941 . S
O298 C305 1.266 . S
H299 C301 0.959 . S
H300 C301 0.961 . S
C301 C291 1.510 . S
C301 H299 0.959 . S
C301 H300 0.961 . S
C301 H302 0.960 . S
H302 C301 0.960 . S
H303 N283 0.862 . S
O304 Co272 1.920 . S
O304 C277 1.289 . S
C305 O297 1.258 . S
C305 O298 1.266 . S
Co306 O309 1.970 . S
Co306 N323 1.989 . S
Co306 O331 1.967 . S
Co306 O338 1.920 . S
Co307 O310 1.966 . S
Co307 N316 2.022 . S
Co307 N324 1.993 . S
Co307 O332 1.941 . S
C308 O309 1.258 . S
C308 O310 1.263 . S
O309 Co306 1.970 . S
O309 C308 1.258 . S
O310 Co307 1.966 . S
O310 C308 1.263 . S
C311 O312 1.235 . S
C311 O338 1.289 . S
O312 C311 1.235 . S
C313 C315 1.400 . S
C313 N316 1.351 . S
C313 C318 1.501 . S
C314 C315 1.387 . S
C314 N317 1.341 . S
C315 C313 1.400 . S
C315 C314 1.387 . S
N316 Co307 2.022 . S
N316 C313 1.351 . S
N316 N317 1.365 . S
N317 C314 1.341 . S
N317 N316 1.365 . S
N317 H337 0.862 . S
C318 C313 1.501 . S
C318 H319 0.961 . S
C318 H320 0.961 . S
C318 H321 0.960 . S
H319 C318 0.961 . S
H320 C318 0.961 . S
H321 C318 0.960 . S
C322 N323 1.342 . S
C322 C326 1.401 . S
C322 C327 1.499 . S
N323 Co306 1.989 . S
N323 C322 1.342 . S
N323 N324 1.388 . S
N324 Co307 1.993 . S
N324 N323 1.388 . S
N324 C325 1.346 . S
C325 N324 1.346 . S
C325 C326 1.396 . S
C325 C335 1.510 . S
C326 C322 1.401 . S
C326 C325 1.396 . S
C327 C322 1.499 . S
C327 H328 0.959 . S
C327 H329 0.960 . S
C327 H330 0.961 . S
H328 C327 0.959 . S
H329 C327 0.960 . S
H330 C327 0.961 . S
O331 Co306 1.967 . S
O331 C339 1.258 . S
O332 Co307 1.941 . S
O332 C339 1.266 . S
H333 C335 0.959 . S
H334 C335 0.961 . S
C335 C325 1.510 . S
C335 H333 0.959 . S
C335 H334 0.961 . S
C335 H336 0.960 . S
H336 C335 0.960 . S
H337 N317 0.862 . S
O338 Co306 1.920 . S
O338 C311 1.289 . S
C339 O331 1.258 . S
C339 O332 1.266 . S
Co340 O343 1.970 . S
Co340 N357 1.989 . S
Co340 O365 1.967 . S
Co340 O372 1.920 . S
Co341 O344 1.966 . S
Co341 N350 2.022 . S
Co341 N358 1.993 . S
Co341 O366 1.941 . S
C342 O343 1.258 . S
C342 O344 1.263 . S
O343 Co340 1.970 . S
O343 C342 1.258 . S
O344 Co341 1.966 . S
O344 C342 1.263 . S
C345 O346 1.235 . S
C345 O372 1.289 . S
O346 C345 1.235 . S
C347 C349 1.400 . S
C347 N350 1.351 . S
C347 C352 1.501 . S
C348 C349 1.387 . S
C348 N351 1.341 . S
C349 C347 1.400 . S
C349 C348 1.387 . S
N350 Co341 2.022 . S
N350 C347 1.351 . S
N350 N351 1.365 . S
N351 C348 1.341 . S
N351 N350 1.365 . S
N351 H371 0.862 . S
C352 C347 1.501 . S
C352 H353 0.961 . S
C352 H354 0.961 1_655 S
C352 H355 0.960 . S
H353 C352 0.961 . S
H354 C352 0.961 1_455 S
H355 C352 0.960 . S
C356 N357 1.342 . S
C356 C360 1.401 . S
C356 C361 1.499 . S
N357 Co340 1.989 . S
N357 C356 1.342 . S
N357 N358 1.388 . S
N358 Co341 1.993 . S
N358 N357 1.388 . S
N358 C359 1.346 . S
C359 N358 1.346 . S
C359 C360 1.396 . S
C359 C369 1.510 . S
C360 C356 1.401 . S
C360 C359 1.396 . S
C361 C356 1.499 . S
C361 H362 0.959 . S
C361 H363 0.960 . S
C361 H364 0.961 . S
H362 C361 0.959 . S
H363 C361 0.960 . S
H364 C361 0.961 . S
O365 Co340 1.967 . S
O365 C373 1.258 . S
O366 Co341 1.941 . S
O366 C373 1.266 . S
H367 C369 0.959 . S
H368 C369 0.961 . S
C369 C359 1.510 . S
C369 H367 0.959 . S
C369 H368 0.961 . S
C369 H370 0.960 . S
H370 C369 0.960 . S
H371 N351 0.862 . S
O372 Co340 1.920 . S
O372 C345 1.289 . S
C373 O365 1.258 . S
C373 O366 1.266 . S
Co374 O377 1.970 . S
Co374 N391 1.989 . S
Co374 O399 1.967 . S
Co374 O406 1.920 . S
Co375 O378 1.966 . S
Co375 N384 2.022 . S
Co375 N392 1.993 . S
Co375 O400 1.941 . S
C376 O377 1.258 . S
C376 O378 1.263 . S
O377 Co374 1.970 . S
O377 C376 1.258 . S
O378 Co375 1.966 . S
O378 C376 1.263 . S
C379 O380 1.235 . S
C379 O406 1.289 . S
O380 C379 1.235 . S
C381 C383 1.400 . S
C381 N384 1.351 . S
C381 C386 1.501 . S
C382 C383 1.387 . S
C382 N385 1.341 . S
C383 C381 1.400 . S
C383 C382 1.387 . S
N384 Co375 2.022 . S
N384 C381 1.351 . S
N384 N385 1.365 . S
N385 C382 1.341 . S
N385 N384 1.365 . S
N385 H405 0.862 . S
C386 C381 1.501 . S
C386 H387 0.961 . S
C386 H388 0.961 1_565 S
C386 H389 0.960 . S
H387 C386 0.961 . S
H388 C386 0.961 1_545 S
H389 C386 0.960 . S
C390 N391 1.342 . S
C390 C394 1.401 . S
C390 C395 1.499 . S
N391 Co374 1.989 . S
N391 C390 1.342 . S
N391 N392 1.388 . S
N392 Co375 1.993 . S
N392 N391 1.388 . S
N392 C393 1.346 . S
C393 N392 1.346 . S
C393 C394 1.396 . S
C393 C403 1.510 . S
C394 C390 1.401 . S
C394 C393 1.396 . S
C395 C390 1.499 . S
C395 H396 0.959 . S
C395 H397 0.960 . S
C395 H398 0.961 . S
H396 C395 0.959 . S
H397 C395 0.960 . S
H398 C395 0.961 . S
O399 Co374 1.967 . S
O399 C407 1.258 . S
O400 Co375 1.941 . S
O400 C407 1.266 . S
H401 C403 0.959 . S
H402 C403 0.961 . S
C403 C393 1.510 . S
C403 H401 0.959 . S
C403 H402 0.961 . S
C403 H404 0.960 . S
H404 C403 0.960 . S
H405 N385 0.862 . S
O406 Co374 1.920 . S
O406 C379 1.289 . S
C407 O399 1.258 . S
C407 O400 1.266 . S
H408 C414 0.930 . S
H409 C417 0.930 . S
H410 C418 0.930 . S
H411 C419 0.930 . S
H412 C422 0.930 . S
H413 C423 0.930 . S
C414 H408 0.930 . S
C414 C415 1.355 . S
C414 C416 1.415 . S
C415 C414 1.355 . S
C415 C417 1.419 . S
C416 C414 1.415 . S
C416 C421 1.425 . S
C416 C423 1.409 . S
C417 H409 0.930 . S
C417 C415 1.419 . S
C417 C418 1.362 . S
C418 H410 0.930 . S
C418 C417 1.362 . S
C418 C421 1.409 . S
C419 H411 0.930 . S
C419 C420 1.355 . S
C419 C421 1.415 . S
C420 C419 1.355 . S
C420 C422 1.419 . S
C421 C416 1.425 . S
C421 C418 1.409 . S
C421 C419 1.415 . S
C422 H412 0.930 . S
C422 C420 1.419 . S
C422 C423 1.362 . S
C423 H413 0.930 . S
C423 C416 1.409 . S
C423 C422 1.362 . S
H424 C430 0.930 . S
H425 C433 0.930 . S
H426 C434 0.930 . S
H427 C435 0.930 . S
H428 C438 0.930 . S
H429 C439 0.930 . S
C430 H424 0.930 . S
C430 C431 1.355 . S
C430 C432 1.415 . S
C431 C430 1.355 . S
C431 C433 1.419 . S
C432 C430 1.415 . S
C432 C437 1.425 1_455 S
C432 C439 1.409 . S
C433 H425 0.930 . S
C433 C431 1.419 . S
C433 C434 1.362 1_455 S
C434 H426 0.930 . S
C434 C433 1.362 1_655 S
C434 C437 1.409 . S
C435 H427 0.930 . S
C435 C436 1.355 . S
C435 C437 1.415 . S
C436 C435 1.355 . S
C436 C438 1.419 . S
C437 C432 1.425 1_655 S
C437 C434 1.409 . S
C437 C435 1.415 . S
C438 H428 0.930 . S
C438 C436 1.419 . S
C438 C439 1.362 1_655 S
C439 H429 0.930 . S
C439 C432 1.409 . S
C439 C438 1.362 1_455 S
H440 C446 0.930 1_565 S
H441 C449 0.930 . S
H442 C450 0.930 . S
H443 C451 0.930 1_545 S
H444 C454 0.930 . S
H445 C455 0.930 . S
C446 H440 0.930 1_545 S
C446 C447 1.355 . S
C446 C448 1.415 1_545 S
C447 C446 1.355 . S
C447 C449 1.419 . S
C448 C446 1.415 1_565 S
C448 C453 1.425 1_565 S
C448 C455 1.409 . S
C449 H441 0.930 . S
C449 C447 1.419 . S
C449 C450 1.362 . S
C450 H442 0.930 . S
C450 C449 1.362 . S
C450 C453 1.409 . S
C451 H443 0.930 1_565 S
C451 C452 1.355 . S
C451 C453 1.415 1_565 S
C452 C451 1.355 . S
C452 C454 1.419 . S
C453 C448 1.425 1_545 S
C453 C450 1.409 . S
C453 C451 1.415 1_545 S
C454 H444 0.930 . S
C454 C452 1.419 . S
C454 C455 1.362 . S
C455 H445 0.930 . S
C455 C448 1.409 . S
C455 C454 1.362 . S
H456 C462 0.930 . S
H457 C465 0.930 . S
H458 C466 0.930 . S
H459 C467 0.930 . S
H460 C470 0.930 . S
H461 C471 0.930 . S
C462 H456 0.930 . S
C462 C463 1.355 . S
C462 C464 1.415 . S
C463 C462 1.355 . S
C463 C465 1.419 . S
C464 C462 1.415 . S
C464 C469 1.425 . S
C464 C471 1.409 . S
C465 H457 0.930 . S
C465 C463 1.419 . S
C465 C466 1.362 . S
C466 H458 0.930 . S
C466 C465 1.362 . S
C466 C469 1.409 . S
C467 H459 0.930 . S
C467 C468 1.355 . S
C467 C469 1.415 . S
C468 C467 1.355 . S
C468 C470 1.419 . S
C469 C464 1.425 . S
C469 C466 1.409 . S
C469 C467 1.415 . S
C470 H460 0.930 . S
C470 C468 1.419 . S
C470 C471 1.362 . S
C471 H461 0.930 . S
C471 C464 1.409 . S
C471 C470 1.362 . S
H472 C478 0.930 . S
H473 C481 0.930 . S
H474 C482 0.930 1_455 S
H475 C483 0.930 . S
H476 C486 0.930 . S
H477 C487 0.930 1_655 S
C478 H472 0.930 . S
C478 C479 1.355 . S
C478 C480 1.415 . S
C479 C478 1.355 . S
C479 C481 1.419 . S
C480 C478 1.415 . S
C480 C485 1.425 1_655 S
C480 C487 1.409 1_655 S
C481 H473 0.930 . S
C481 C479 1.419 . S
C481 C482 1.362 . S
C482 H474 0.930 1_655 S
C482 C481 1.362 . S
C482 C485 1.409 1_655 S
C483 H475 0.930 . S
C483 C484 1.355 . S
C483 C485 1.415 . S
C484 C483 1.355 . S
C484 C486 1.419 . S
C485 C480 1.425 1_455 S
C485 C482 1.409 1_455 S
C485 C483 1.415 . S
C486 H476 0.930 . S
C486 C484 1.419 . S
C486 C487 1.362 . S
C487 H477 0.930 1_455 S
C487 C480 1.409 1_455 S
C487 C486 1.362 . S
H488 C494 0.930 . S
H489 C497 0.930 1_545 S
H490 C498 0.930 . S
H491 C499 0.930 . S
H492 C502 0.930 1_565 S
H493 C503 0.930 . S
C494 H488 0.930 . S
C494 C495 1.355 . S
C494 C496 1.415 . S
C495 C494 1.355 . S
C495 C497 1.419 . S
C496 C494 1.415 . S
C496 C501 1.425 1_565 S
C496 C503 1.409 . S
C497 H489 0.930 1_565 S
C497 C495 1.419 . S
C497 C498 1.362 1_565 S
C498 H490 0.930 . S
C498 C497 1.362 1_545 S
C498 C501 1.409 . S
C499 H491 0.930 . S
C499 C500 1.355 . S
C499 C501 1.415 . S
C500 C499 1.355 . S
C500 C502 1.419 . S
C501 C496 1.425 1_545 S
C501 C498 1.409 . S
C501 C499 1.415 . S
C502 H492 0.930 1_545 S
C502 C500 1.419 . S
C502 C503 1.362 1_545 S
C503 H493 0.930 . S
C503 C496 1.409 . S
C503 C502 1.362 1_565 S
H504 C510 0.930 . S
H505 C513 0.930 . S
H506 C514 0.930 . S
H507 C515 0.930 . S
H508 C518 0.930 . S
H509 C519 0.930 . S
C510 H504 0.930 . S
C510 C511 1.355 . S
C510 C512 1.415 . S
C511 C510 1.355 . S
C511 C513 1.419 . S
C512 C510 1.415 . S
C512 C517 1.425 1_566 S
C512 C519 1.409 1_565 S
C513 H505 0.930 . S
C513 C511 1.419 . S
C513 C514 1.362 1_556 S
C514 H506 0.930 . S
C514 C513 1.362 1_554 S
C514 C517 1.409 1_565 S
C515 H507 0.930 . S
C515 C516 1.355 . S
C515 C517 1.415 . S
C516 C515 1.355 . S
C516 C518 1.419 . S
C517 C512 1.425 1_544 S
C517 C514 1.409 1_545 S
C517 C515 1.415 . S
C518 H508 0.930 . S
C518 C516 1.419 . S
C518 C519 1.362 1_554 S
C519 H509 0.930 . S
C519 C512 1.409 1_545 S
C519 C518 1.362 1_556 S
H520 C526 0.930 . S
H521 C529 0.930 . S
H522 C530 0.930 . S
H523 C531 0.930 . S
H524 C534 0.930 . S
H525 C535 0.930 . S
C526 H520 0.930 . S
C526 C527 1.355 . S
C526 C528 1.415 . S
C527 C526 1.355 . S
C527 C529 1.419 . S
C528 C526 1.415 . S
C528 C533 1.425 . S
C528 C535 1.409 . S
C529 H521 0.930 . S
C529 C527 1.419 . S
C529 C530 1.362 . S
C530 H522 0.930 . S
C530 C529 1.362 . S
C530 C533 1.409 . S
C531 H523 0.930 . S
C531 C532 1.355 . S
C531 C533 1.415 . S
C532 C531 1.355 . S
C532 C534 1.419 . S
C533 C528 1.425 . S
C533 C530 1.409 . S
C533 C531 1.415 . S
C534 H524 0.930 . S
C534 C532 1.419 . S
C534 C535 1.362 . S
C535 H525 0.930 . S
C535 C528 1.409 . S
C535 C534 1.362 . S
H536 C542 0.930 . S
H537 C545 0.930 . S
H538 C546 0.910 1_655 S
H539 C547 0.930 . S
H540 C550 0.930 . S
H541 C551 0.910 1_455 S
C542 H536 0.930 . S
C542 C543 1.355 . S
C542 C544 1.415 . S
C543 C542 1.355 . S
C543 C545 1.419 . S
C544 C542 1.415 . S
C544 C549 1.425 1_455 S
C544 C551 1.409 1_455 S
C545 H537 0.930 . S
C545 C543 1.419 . S
C545 C546 1.382 . S
C546 H538 0.910 1_455 S
C546 C545 1.382 . S
C546 C549 1.409 1_455 S
C547 H539 0.930 . S
C547 C548 1.355 . S
C547 C549 1.415 . S
C548 C547 1.355 . S
C548 C550 1.419 . S
C549 C544 1.425 1_655 S
C549 C546 1.409 1_655 S
C549 C547 1.415 . S
C550 H540 0.930 . S
C550 C548 1.419 . S
C550 C551 1.382 . S
C551 H541 0.910 1_655 S
C551 C544 1.409 1_655 S
C551 C550 1.382 . S
H552 C558 0.930 . S
H553 C561 0.922 1_556 S
H554 C562 0.930 . S
H555 C563 0.930 . S
H556 C566 0.922 1_554 S
H557 C567 0.930 . S
C558 H552 0.930 . S
C558 C559 1.355 . S
C558 C560 1.415 1_565 S
C559 C558 1.355 . S
C559 C561 1.460 . S
C560 C558 1.415 1_545 S
C560 C565 1.425 1_544 S
C560 C567 1.409 . S
C561 H553 0.922 1_554 S
C561 C559 1.460 . S
C561 C562 1.331 1_554 S
C562 H554 0.930 . S
C562 C561 1.331 1_556 S
C562 C565 1.409 . S
C563 H555 0.930 . S
C563 C564 1.355 . S
C563 C565 1.415 1_545 S
C564 C563 1.355 . S
C564 C566 1.460 . S
C565 C560 1.425 1_566 S
C565 C562 1.409 . S
C565 C563 1.415 1_565 S
C566 H556 0.922 1_556 S
C566 C564 1.460 . S
C566 C567 1.331 1_556 S
C567 H557 0.930 . S
C567 C560 1.409 . S
C567 C566 1.331 1_554 S
H568 C574 0.930 . S
H569 C577 0.930 . S
H570 C578 0.930 . S
H571 C579 0.930 . S
H572 C582 0.930 . S
H573 C583 0.930 . S
C574 H568 0.930 . S
C574 C575 1.355 . S
C574 C576 1.415 . S
C575 C574 1.355 . S
C575 C577 1.419 . S
C576 C574 1.415 . S
C576 C581 1.425 . S
C576 C583 1.409 . S
C577 H569 0.930 . S
C577 C575 1.419 . S
C577 C578 1.362 . S
C578 H570 0.930 . S
C578 C577 1.362 . S
C578 C581 1.409 . S
C579 H571 0.930 . S
C579 C580 1.355 . S
C579 C581 1.415 . S
C580 C579 1.355 . S
C580 C582 1.419 . S
C581 C576 1.425 . S
C581 C578 1.409 . S
C581 C579 1.415 . S
C582 H572 0.930 . S
C582 C580 1.419 . S
C582 C583 1.362 . S
C583 H573 0.930 . S
C583 C576 1.409 . S
C583 C582 1.362 . S
H584 C590 0.930 . S
H585 C593 0.930 . S
H586 C594 0.930 . S
H587 C595 0.930 . S
H588 C598 0.930 . S
H589 C599 0.930 . S
C590 H584 0.930 . S
C590 C591 1.355 . S
C590 C592 1.404 1_455 S
C591 C590 1.355 . S
C591 C593 1.419 . S
C592 C590 1.404 1_655 S
C592 C597 1.412 1_655 S
C592 C599 1.427 . S
C593 H585 0.930 . S
C593 C591 1.419 . S
C593 C594 1.362 . S
C594 H586 0.930 . S
C594 C593 1.362 . S
C594 C597 1.426 . S
C595 H587 0.930 . S
C595 C596 1.355 . S
C595 C597 1.404 1_655 S
C596 C595 1.355 . S
C596 C598 1.419 . S
C597 C592 1.412 1_455 S
C597 C594 1.426 . S
C597 C595 1.404 1_455 S
C598 H588 0.930 . S
C598 C596 1.419 . S
C598 C599 1.362 . S
C599 H589 0.930 . S
C599 C592 1.427 . S
C599 C598 1.362 . S
H600 C606 0.930 1_565 S
H601 C609 0.930 . S
H602 C610 0.930 . S
H603 C611 0.930 1_545 S
H604 C614 0.930 . S
H605 C615 0.930 . S
C606 H600 0.930 1_545 S
C606 C607 1.355 . S
C606 C608 1.415 1_545 S
C607 C606 1.355 . S
C607 C609 1.419 . S
C608 C606 1.415 1_565 S
C608 C613 1.425 1_465 S
C608 C615 1.409 1_455 S
C609 H601 0.930 . S
C609 C607 1.419 . S
C609 C610 1.362 . S
C610 H602 0.930 . S
C610 C609 1.362 . S
C610 C613 1.409 1_455 S
C611 H603 0.930 1_565 S
C611 C612 1.355 . S
C611 C613 1.415 1_565 S
C612 C611 1.355 . S
C612 C614 1.419 . S
C613 C608 1.425 1_645 S
C613 C610 1.409 1_655 S
C613 C611 1.415 1_545 S
C614 H604 0.930 . S
C614 C612 1.419 . S
C614 C615 1.362 . S
C615 H605 0.930 . S
C615 C608 1.409 1_655 S
C615 C614 1.362 . S
H616 C622 0.930 . S
H617 C625 0.930 . S
H618 C626 0.930 . S
H619 C627 0.930 . S
H620 C630 0.930 . S
H621 C631 0.930 . S
C622 H616 0.930 . S
C622 C623 1.355 . S
C622 C624 1.415 . S
C623 C622 1.355 . S
C623 C625 1.419 . S
C624 C622 1.415 . S
C624 C629 1.425 1_445 S
C624 C631 1.409 1_545 S
C625 H617 0.930 . S
C625 C623 1.419 . S
C625 C626 1.362 1_455 S
C626 H618 0.930 . S
C626 C625 1.362 1_655 S
C626 C629 1.409 1_545 S
C627 H619 0.930 . S
C627 C628 1.355 . S
C627 C629 1.415 . S
C628 C627 1.355 . S
C628 C630 1.419 . S
C629 C624 1.425 1_665 S
C629 C626 1.409 1_565 S
C629 C627 1.415 . S
C630 H620 0.930 . S
C630 C628 1.419 . S
C630 C631 1.362 1_655 S
C631 H621 0.930 . S
C631 C624 1.409 1_565 S
C631 C630 1.362 1_455 S
H632 C638 0.930 . S
H633 C641 0.930 . S
H634 C642 0.930 . S
H635 C643 0.930 . S
H636 C646 0.930 . S
H637 C647 0.930 . S
C638 H632 0.930 . S
C638 C639 1.355 . S
C638 C640 1.415 1_545 S
C639 C638 1.355 . S
C639 C641 1.419 1_655 S
C640 C638 1.415 1_565 S
C640 C645 1.425 1_665 S
C640 C647 1.409 . S
C641 H633 0.930 . S
C641 C639 1.419 1_455 S
C641 C642 1.362 . S
C642 H634 0.930 . S
C642 C641 1.362 . S
C642 C645 1.409 . S
C643 H635 0.930 . S
C643 C644 1.355 . S
C643 C645 1.415 1_565 S
C644 C643 1.355 . S
C644 C646 1.419 1_455 S
C645 C640 1.425 1_445 S
C645 C642 1.409 . S
C645 C643 1.415 1_545 S
C646 H636 0.930 . S
C646 C644 1.419 1_655 S
C646 C647 1.362 . S
C647 H637 0.930 . S
C647 C640 1.409 . S
C647 C646 1.362 . S
H648 C654 0.930 . S
H649 C657 0.930 . S
H650 C658 0.930 . S
H651 C659 0.930 . S
H652 C662 0.930 . S
H653 C663 0.930 . S
C654 H648 0.930 . S
C654 C655 1.355 . S
C654 C656 1.415 . S
C655 C654 1.355 . S
C655 C657 1.419 1_655 S
C656 C654 1.415 . S
C656 C661 1.425 1_665 S
C656 C663 1.409 1_565 S
C657 H649 0.930 . S
C657 C655 1.419 1_455 S
C657 C658 1.362 . S
C658 H650 0.930 . S
C658 C657 1.362 . S
C658 C661 1.409 1_565 S
C659 H651 0.930 . S
C659 C660 1.355 . S
C659 C661 1.415 . S
C660 C659 1.355 . S
C660 C662 1.419 1_455 S
C661 C656 1.425 1_445 S
C661 C658 1.409 1_545 S
C661 C659 1.415 . S
C662 H652 0.930 . S
C662 C660 1.419 1_655 S
C662 C663 1.362 . S
C663 H653 0.930 . S
C663 C656 1.409 1_545 S
C663 C662 1.362 . S
H664 C670 0.930 . S
H665 C673 0.930 . S
H666 C674 0.930 . S
H667 C675 0.930 . S
H668 C678 0.930 . S
H669 C679 0.930 . S
C670 H664 0.930 . S
C670 C671 1.355 1_545 S
C670 C672 1.415 . S
C671 C670 1.355 1_565 S
C671 C673 1.419 1_455 S
C672 C670 1.415 . S
C672 C677 1.425 1_445 S
C672 C679 1.409 . S
C673 H665 0.930 . S
C673 C671 1.419 1_655 S
C673 C674 1.362 . S
C674 H666 0.930 . S
C674 C673 1.362 . S
C674 C677 1.409 . S
C675 H667 0.930 . S
C675 C676 1.355 1_565 S
C675 C677 1.415 . S
C676 C675 1.355 1_545 S
C676 C678 1.419 1_655 S
C677 C672 1.425 1_665 S
C677 C674 1.409 . S
C677 C675 1.415 . S
C678 H668 0.930 . S
C678 C676 1.419 1_455 S
C678 C679 1.362 . S
C679 H669 0.930 . S
C679 C672 1.409 . S
C679 C678 1.362 . S
H680 C686 0.930 1_565 S
H681 C689 0.930 . S
H682 C690 0.930 . S
H683 C691 0.930 1_545 S
H684 C694 0.930 . S
H685 C695 0.930 . S
C686 H680 0.930 1_545 S
C686 C687 1.355 . S
C686 C688 1.415 1_545 S
C687 C686 1.355 . S
C687 C689 1.419 . S
C688 C686 1.415 1_565 S
C688 C693 1.425 1_465 S
C688 C695 1.409 1_455 S
C689 H681 0.930 . S
C689 C687 1.419 . S
C689 C690 1.362 . S
C690 H682 0.930 . S
C690 C689 1.362 . S
C690 C693 1.409 1_455 S
C691 H683 0.930 1_565 S
C691 C692 1.355 . S
C691 C693 1.415 1_565 S
C692 C691 1.355 . S
C692 C694 1.419 . S
C693 C688 1.425 1_645 S
C693 C690 1.409 1_655 S
C693 C691 1.415 1_545 S
C694 H684 0.930 . S
C694 C692 1.419 . S
C694 C695 1.362 . S
C695 H685 0.930 . S
C695 C688 1.409 1_655 S
C695 C694 1.362 . S
H696 C702 0.930 1_554 S
H697 C705 0.930 . S
H698 C706 0.930 . S
H699 C707 0.930 1_556 S
H700 C710 0.930 . S
H701 C711 0.930 . S
C702 H696 0.930 1_556 S
C702 C703 1.355 . S
C702 C704 1.415 1_556 S
C703 C702 1.355 . S
C703 C705 1.419 . S
C704 C702 1.415 1_554 S
C704 C709 1.425 1_554 S
C704 C711 1.409 . S
C705 H697 0.930 . S
C705 C703 1.419 . S
C705 C706 1.362 . S
C706 H698 0.930 . S
C706 C705 1.362 . S
C706 C709 1.409 . S
C707 H699 0.930 1_554 S
C707 C708 1.355 . S
C707 C709 1.415 1_554 S
C708 C707 1.355 . S
C708 C710 1.419 . S
C709 C704 1.425 1_556 S
C709 C706 1.409 . S
C709 C707 1.415 1_556 S
C710 H700 0.930 . S
C710 C708 1.419 . S
C710 C711 1.362 . S
C711 H701 0.930 . S
C711 C704 1.409 . S
C711 C710 1.362 . S
H712 C718 0.930 . S
H713 C721 0.930 . S
H714 C722 0.930 . S
H715 C723 0.930 . S
H716 C726 0.930 . S
H717 C727 0.930 . S
C718 H712 0.930 . S
C718 C719 1.355 . S
C718 C720 1.415 . S
C719 C718 1.355 . S
C719 C721 1.419 . S
C720 C718 1.415 . S
C720 C725 1.425 . S
C720 C727 1.409 . S
C721 H713 0.930 . S
C721 C719 1.419 . S
C721 C722 1.362 . S
C722 H714 0.930 . S
C722 C721 1.362 . S
C722 C725 1.409 . S
C723 H715 0.930 . S
C723 C724 1.355 . S
C723 C725 1.415 . S
C724 C723 1.355 . S
C724 C726 1.419 . S
C725 C720 1.425 . S
C725 C722 1.409 . S
C725 C723 1.415 . S
C726 H716 0.930 . S
C726 C724 1.419 . S
C726 C727 1.362 . S
C727 H717 0.930 . S
C727 C720 1.409 . S
C727 C726 1.362 . S
H728 C734 0.930 . S
H729 C737 0.930 . S
H730 C738 0.930 . S
H731 C739 0.930 . S
H732 C742 0.930 1_545 S
H733 C743 0.930 . S
C734 H728 0.930 . S
C734 C735 1.355 . S
C734 C736 1.415 . S
C735 C734 1.355 . S
C735 C737 1.419 . S
C736 C734 1.415 . S
C736 C741 1.425 . S
C736 C743 1.409 . S
C737 H729 0.930 . S
C737 C735 1.419 . S
C737 C738 1.362 . S
C738 H730 0.930 . S
C738 C737 1.362 . S
C738 C741 1.409 . S
C739 H731 0.930 . S
C739 C740 1.355 . S
C739 C741 1.415 . S
C740 C739 1.355 . S
C740 C742 1.419 . S
C741 C736 1.425 . S
C741 C738 1.409 . S
C741 C739 1.415 . S
C742 H732 0.930 1_565 S
C742 C740 1.419 . S
C742 C743 1.362 . S
C743 H733 0.930 . S
C743 C736 1.409 . S
C743 C742 1.362 . S
H744 C750 0.930 . S
H745 C753 0.930 . S
H746 C754 0.930 . S
H747 C755 0.930 . S
H748 C758 0.930 . S
H749 C759 0.930 . S
C750 H744 0.930 . S
C750 C751 1.355 . S
C750 C752 1.415 . S
C751 C750 1.355 . S
C751 C753 1.419 . S
C752 C750 1.415 . S
C752 C757 1.425 1_554 S
C752 C759 1.409 . S
C753 H745 0.930 . S
C753 C751 1.419 . S
C753 C754 1.362 1_554 S
C754 H746 0.930 . S
C754 C753 1.362 1_556 S
C754 C757 1.409 . S
C755 H747 0.930 . S
C755 C756 1.355 . S
C755 C757 1.415 . S
C756 C755 1.355 . S
C756 C758 1.419 . S
C757 C752 1.425 1_556 S
C757 C754 1.409 . S
C757 C755 1.415 . S
C758 H748 0.930 . S
C758 C756 1.419 . S
C758 C759 1.362 1_556 S
C759 H749 0.930 . S
C759 C752 1.409 . S
C759 C758 1.362 1_554 S
H760 C766 0.930 . S
H761 C769 0.930 . S
H762 C770 0.930 . S
H763 C771 0.930 . S
H764 C774 0.930 1_655 S
H765 C775 0.930 . S
C766 H760 0.930 . S
C766 C767 1.355 . S
C766 C768 1.415 . S
C767 C766 1.355 . S
C767 C769 1.419 . S
C768 C766 1.415 . S
C768 C773 1.425 . S
C768 C775 1.409 . S
C769 H761 0.930 . S
C769 C767 1.419 . S
C769 C770 1.362 . S
C770 H762 0.930 . S
C770 C769 1.362 . S
C770 C773 1.409 . S
C771 H763 0.930 . S
C771 C772 1.355 . S
C771 C773 1.415 . S
C772 C771 1.355 . S
C772 C774 1.419 . S
C773 C768 1.425 . S
C773 C770 1.409 . S
C773 C771 1.415 . S
C774 H764 0.930 1_455 S
C774 C772 1.419 . S
C774 C775 1.362 . S
C775 H765 0.930 . S
C775 C768 1.409 . S
C775 C774 1.362 . S
H776 C782 0.930 . S
H777 C785 0.930 1_565 S
H778 C786 0.930 . S
H779 C787 0.930 . S
H780 C790 0.930 . S
H781 C791 0.930 . S
C782 H776 0.930 . S
C782 C783 1.355 . S
C782 C784 1.415 . S
C783 C782 1.355 . S
C783 C785 1.419 . S
C784 C782 1.415 . S
C784 C789 1.425 . S
C784 C791 1.409 . S
C785 H777 0.930 1_545 S
C785 C783 1.419 . S
C785 C786 1.362 . S
C786 H778 0.930 . S
C786 C785 1.362 . S
C786 C789 1.409 . S
C787 H779 0.930 . S
C787 C788 1.355 . S
C787 C789 1.415 . S
C788 C787 1.355 . S
C788 C790 1.419 . S
C789 C784 1.425 . S
C789 C786 1.409 . S
C789 C787 1.415 . S
C790 H780 0.930 . S
C790 C788 1.419 . S
C790 C791 1.362 . S
C791 H781 0.930 . S
C791 C784 1.409 . S
C791 C790 1.362 . S
H792 C798 0.930 . S
H793 C801 0.930 . S
H794 C802 0.930 . S
H795 C803 0.930 . S
H796 C806 0.930 . S
H797 C807 0.930 . S
C798 H792 0.930 . S
C798 C799 1.355 . S
C798 C800 1.415 . S
C799 C798 1.355 . S
C799 C801 1.419 . S
C800 C798 1.415 . S
C800 C805 1.425 . S
C800 C807 1.409 . S
C801 H793 0.930 . S
C801 C799 1.419 . S
C801 C802 1.362 . S
C802 H794 0.930 . S
C802 C801 1.362 . S
C802 C805 1.409 . S
C803 H795 0.930 . S
C803 C804 1.355 . S
C803 C805 1.415 . S
C804 C803 1.355 . S
C804 C806 1.419 . S
C805 C800 1.425 . S
C805 C802 1.409 . S
C805 C803 1.415 . S
C806 H796 0.930 . S
C806 C804 1.419 . S
C806 C807 1.362 . S
C807 H797 0.930 . S
C807 C800 1.409 . S
C807 C806 1.362 . S
H808 C814 0.930 . S
H809 C817 0.930 . S
H810 C818 0.930 . S
H811 C819 0.930 . S
H812 C822 0.930 . S
H813 C823 0.930 . S
C814 H808 0.930 . S
C814 C815 1.355 . S
C814 C816 1.415 . S
C815 C814 1.355 . S
C815 C817 1.419 . S
C816 C814 1.415 . S
C816 C821 1.425 . S
C816 C823 1.409 . S
C817 H809 0.930 . S
C817 C815 1.419 . S
C817 C818 1.362 . S
C818 H810 0.930 . S
C818 C817 1.362 . S
C818 C821 1.409 . S
C819 H811 0.930 . S
C819 C820 1.355 . S
C819 C821 1.415 . S
C820 C819 1.355 . S
C820 C822 1.419 . S
C821 C816 1.425 . S
C821 C818 1.409 . S
C821 C819 1.415 . S
C822 H812 0.930 . S
C822 C820 1.419 . S
C822 C823 1.362 . S
C823 H813 0.930 . S
C823 C816 1.409 . S
C823 C822 1.362 . S
H824 C830 0.930 . S
H825 C833 0.930 . S
H826 C834 0.930 . S
H827 C835 0.930 . S
H828 C838 0.930 . S
H829 C839 0.930 . S
C830 H824 0.930 . S
C830 C831 1.355 . S
C830 C832 1.415 . S
C831 C830 1.355 . S
C831 C833 1.419 . S
C832 C830 1.415 . S
C832 C837 1.425 . S
C832 C839 1.409 . S
C833 H825 0.930 . S
C833 C831 1.419 . S
C833 C834 1.362 . S
C834 H826 0.930 . S
C834 C833 1.362 . S
C834 C837 1.409 . S
C835 H827 0.930 . S
C835 C836 1.355 . S
C835 C837 1.415 . S
C836 C835 1.355 . S
C836 C838 1.419 . S
C837 C832 1.425 . S
C837 C834 1.409 . S
C837 C835 1.415 . S
C838 H828 0.930 . S
C838 C836 1.419 . S
C838 C839 1.362 . S
C839 H829 0.930 . S
C839 C832 1.409 . S
C839 C838 1.362 . S
H840 C846 0.930 . S
H841 C849 0.930 . S
H842 C850 0.930 . S
H843 C851 0.930 . S
H844 C854 0.930 . S
H845 C855 0.930 . S
C846 H840 0.930 . S
C846 C847 1.355 . S
C846 C848 1.415 . S
C847 C846 1.355 . S
C847 C849 1.419 . S
C848 C846 1.415 . S
C848 C853 1.425 . S
C848 C855 1.409 . S
C849 H841 0.930 . S
C849 C847 1.419 . S
C849 C850 1.362 . S
C850 H842 0.930 . S
C850 C849 1.362 . S
C850 C853 1.409 . S
C851 H843 0.930 . S
C851 C852 1.355 . S
C851 C853 1.415 . S
C852 C851 1.355 . S
C852 C854 1.419 . S
C853 C848 1.425 . S
C853 C850 1.409 . S
C853 C851 1.415 . S
C854 H844 0.930 . S
C854 C852 1.419 . S
C854 C855 1.362 . S
C855 H845 0.930 . S
C855 C848 1.409 . S
C855 C854 1.362 . S
H856 C862 0.930 . S
H857 C865 0.930 . S
H858 C866 0.930 . S
H859 C867 0.930 . S
H860 C870 0.930 . S
H861 C871 0.930 . S
C862 H856 0.930 . S
C862 C863 1.355 . S
C862 C864 1.415 . S
C863 C862 1.355 . S
C863 C865 1.419 . S
C864 C862 1.415 . S
C864 C869 1.425 . S
C864 C871 1.409 . S
C865 H857 0.930 . S
C865 C863 1.419 . S
C865 C866 1.362 . S
C866 H858 0.930 . S
C866 C865 1.362 . S
C866 C869 1.409 . S
C867 H859 0.930 . S
C867 C868 1.355 . S
C867 C869 1.415 . S
C868 C867 1.355 . S
C868 C870 1.419 . S
C869 C864 1.425 . S
C869 C866 1.409 . S
C869 C867 1.415 . S
C870 H860 0.930 . S
C870 C868 1.419 . S
C870 C871 1.362 . S
C871 H861 0.930 . S
C871 C864 1.409 . S
C871 C870 1.362 . S
H872 C878 0.930 . S
H873 C881 0.930 . S
H874 C882 0.930 . S
H875 C883 0.930 . S
H876 C886 0.930 . S
H877 C887 0.930 . S
C878 H872 0.930 . S
C878 C879 1.355 . S
C878 C880 1.415 . S
C879 C878 1.355 . S
C879 C881 1.419 . S
C880 C878 1.415 . S
C880 C885 1.425 . S
C880 C887 1.409 . S
C881 H873 0.930 . S
C881 C879 1.419 . S
C881 C882 1.362 . S
C882 H874 0.930 . S
C882 C881 1.362 . S
C882 C885 1.409 . S
C883 H875 0.930 . S
C883 C884 1.355 . S
C883 C885 1.415 . S
C884 C883 1.355 . S
C884 C886 1.419 . S
C885 C880 1.425 . S
C885 C882 1.409 . S
C885 C883 1.415 . S
C886 H876 0.930 . S
C886 C884 1.419 . S
C886 C887 1.362 . S
C887 H877 0.930 . S
C887 C880 1.409 . S
C887 C886 1.362 . S
C415 C111 1.775 . S
C420 C9 1.768 . S
C431 C43 1.776 . S
C436 C145 1.768 . S
C447 C77 1.770 . S
C452 C179 1.773 . S
C463 C213 1.772 . S
C468 C315 1.771 . S
C479 C349 1.776 . S
C484 C247 1.767 . S
C495 C383 1.770 . S
C500 C281 1.773 . S
C511 C271 1.297 . S
C516 C33 1.218 . S
C527 C67 1.224 . S
C532 C305 1.300 . S
C543 C339 1.263 . S
C548 C101 1.224 . S
C559 C135 1.300 . S
C564 C373 1.234 . S
C575 C407 1.219 . S
C580 C169 1.298 . S
C591 C203 1.300 . S
C596 C237 1.227 . S
C607 C5 0.440 . S
C612 C107 0.480 . S
C623 C39 0.486 . S
C628 C141 0.526 . S
C639 C73 0.607 . S
C644 C175 0.621 . S
C655 C209 0.622 . S
C660 C311 0.610 . S
C671 C243 0.370 . S
C676 C345 0.382 . S
C687 C277 0.593 . S
C692 C379 0.565 . S
C703 C342 1.658 1_455 S
C708 C2 1.617 . S
C719 C36 1.619 1_655 S
C724 C376 1.648 1_545 S
C735 C206 1.674 . S
C740 C70 1.625 1_565 S
C751 C104 1.628 . S
C756 C240 1.674 1_655 S
C767 C274 1.670 1_565 S
C772 C138 1.648 1_455 S
C783 C172 1.617 1_545 S
C788 C308 1.665 . S
C799 C20 1.741 . S
C804 C292 1.722 . S
C815 C54 1.750 . S
C820 C326 1.716 . S
C831 C360 1.716 . S
C836 C88 1.750 . S
C847 C394 1.717 . S
C852 C122 1.750 . S
C863 C156 1.717 . S
C868 C224 1.750 . S
C879 C190 1.750 . S
C884 C258 1.716 . S
