# Generated by pormake.
# Topology wiu, (6)-cn, num edge types: 1
# Building blocks:
#     Node 0, Type 0, BuildingBlock: MIFKUJ_clean_sbu_0, # of connection points: 6
#     Node 1, Type 0, BuildingBlock: MIFKUJ_clean_sbu_0, # of connection points: 6
#     Node 2, Type 0, BuildingBlock: MIFKUJ_clean_sbu_0, # of connection points: 6
#     Node 3, Type 0, BuildingBlock: MIFKUJ_clean_sbu_0, # of connection points: 6
#     Node 4, Type 0, BuildingBlock: MIFKUJ_clean_sbu_0, # of connection points: 6
#     Node 5, Type 0, BuildingBlock: MIFKUJ_clean_sbu_0, # of connection points: 6
#     Node 6, Type 0, BuildingBlock: MIFKUJ_clean_sbu_0, # of connection points: 6
#     Node 7, Type 0, BuildingBlock: MIFKUJ_clean_sbu_0, # of connection points: 6
#     Node 8, Type 0, BuildingBlock: MIFKUJ_clean_sbu_0, # of connection points: 6
#     Node 9, Type 0, BuildingBlock: MIFKUJ_clean_sbu_0, # of connection points: 6
#     Node 10, Type 0, BuildingBlock: MIFKUJ_clean_sbu_0, # of connection points: 6
#     Node 11, Type 0, BuildingBlock: MIFKUJ_clean_sbu_0, # of connection points: 6
#     Node 12, Type 0, BuildingBlock: MIFKUJ_clean_sbu_0, # of connection points: 6
#     Node 13, Type 0, BuildingBlock: MIFKUJ_clean_sbu_0, # of connection points: 6
#     Node 14, Type 0, BuildingBlock: MIFKUJ_clean_sbu_0, # of connection points: 6
#     Node 15, Type 0, BuildingBlock: MIFKUJ_clean_sbu_0, # of connection points: 6
#     Edge 16, Type (0, 0), BuildingBlock: AJUNOK_clean_linker_0, # of connection points: 2
#     Edge 17, Type (0, 0), BuildingBlock: AJUNOK_clean_linker_0, # of connection points: 2
#     Edge 18, Type (0, 0), BuildingBlock: AJUNOK_clean_linker_0, # of connection points: 2
#     Edge 19, Type (0, 0), BuildingBlock: AJUNOK_clean_linker_0, # of connection points: 2
#     Edge 20, Type (0, 0), BuildingBlock: AJUNOK_clean_linker_0, # of connection points: 2
#     Edge 21, Type (0, 0), BuildingBlock: AJUNOK_clean_linker_0, # of connection points: 2
#     Edge 22, Type (0, 0), BuildingBlock: AJUNOK_clean_linker_0, # of connection points: 2
#     Edge 23, Type (0, 0), BuildingBlock: AJUNOK_clean_linker_0, # of connection points: 2
#     Edge 24, Type (0, 0), BuildingBlock: AJUNOK_clean_linker_0, # of connection points: 2
#     Edge 25, Type (0, 0), BuildingBlock: AJUNOK_clean_linker_0, # of connection points: 2
#     Edge 26, Type (0, 0), BuildingBlock: AJUNOK_clean_linker_0, # of connection points: 2
#     Edge 27, Type (0, 0), BuildingBlock: AJUNOK_clean_linker_0, # of connection points: 2
#     Edge 28, Type (0, 0), BuildingBlock: AJUNOK_clean_linker_0, # of connection points: 2
#     Edge 29, Type (0, 0), BuildingBlock: AJUNOK_clean_linker_0, # of connection points: 2
#     Edge 30, Type (0, 0), BuildingBlock: AJUNOK_clean_linker_0, # of connection points: 2
#     Edge 31, Type (0, 0), BuildingBlock: AJUNOK_clean_linker_0, # of connection points: 2
#     Edge 32, Type (0, 0), BuildingBlock: AJUNOK_clean_linker_0, # of connection points: 2
#     Edge 33, Type (0, 0), BuildingBlock: AJUNOK_clean_linker_0, # of connection points: 2
#     Edge 34, Type (0, 0), BuildingBlock: AJUNOK_clean_linker_0, # of connection points: 2
#     Edge 35, Type (0, 0), BuildingBlock: AJUNOK_clean_linker_0, # of connection points: 2
#     Edge 36, Type (0, 0), BuildingBlock: AJUNOK_clean_linker_0, # of connection points: 2
#     Edge 37, Type (0, 0), BuildingBlock: AJUNOK_clean_linker_0, # of connection points: 2
#     Edge 38, Type (0, 0), BuildingBlock: AJUNOK_clean_linker_0, # of connection points: 2
#     Edge 39, Type (0, 0), BuildingBlock: AJUNOK_clean_linker_0, # of connection points: 2
#     Edge 40, Type (0, 0), BuildingBlock: AJUNOK_clean_linker_0, # of connection points: 2
#     Edge 41, Type (0, 0), BuildingBlock: AJUNOK_clean_linker_0, # of connection points: 2
#     Edge 42, Type (0, 0), BuildingBlock: AJUNOK_clean_linker_0, # of connection points: 2
#     Edge 43, Type (0, 0), BuildingBlock: AJUNOK_clean_linker_0, # of connection points: 2
#     Edge 44, Type (0, 0), BuildingBlock: AJUNOK_clean_linker_0, # of connection points: 2
#     Edge 45, Type (0, 0), BuildingBlock: AJUNOK_clean_linker_0, # of connection points: 2
#     Edge 46, Type (0, 0), BuildingBlock: AJUNOK_clean_linker_0, # of connection points: 2
#     Edge 47, Type (0, 0), BuildingBlock: AJUNOK_clean_linker_0, # of connection points: 2
#     Edge 48, Type (0, 0), BuildingBlock: AJUNOK_clean_linker_0, # of connection points: 2
#     Edge 49, Type (0, 0), BuildingBlock: AJUNOK_clean_linker_0, # of connection points: 2
#     Edge 50, Type (0, 0), BuildingBlock: AJUNOK_clean_linker_0, # of connection points: 2
#     Edge 51, Type (0, 0), BuildingBlock: AJUNOK_clean_linker_0, # of connection points: 2
#     Edge 52, Type (0, 0), BuildingBlock: AJUNOK_clean_linker_0, # of connection points: 2
#     Edge 53, Type (0, 0), BuildingBlock: AJUNOK_clean_linker_0, # of connection points: 2
#     Edge 54, Type (0, 0), BuildingBlock: AJUNOK_clean_linker_0, # of connection points: 2
#     Edge 55, Type (0, 0), BuildingBlock: AJUNOK_clean_linker_0, # of connection points: 2
#     Edge 56, Type (0, 0), BuildingBlock: AJUNOK_clean_linker_0, # of connection points: 2
#     Edge 57, Type (0, 0), BuildingBlock: AJUNOK_clean_linker_0, # of connection points: 2
#     Edge 58, Type (0, 0), BuildingBlock: AJUNOK_clean_linker_0, # of connection points: 2
#     Edge 59, Type (0, 0), BuildingBlock: AJUNOK_clean_linker_0, # of connection points: 2
#     Edge 60, Type (0, 0), BuildingBlock: AJUNOK_clean_linker_0, # of connection points: 2
#     Edge 61, Type (0, 0), BuildingBlock: AJUNOK_clean_linker_0, # of connection points: 2
#     Edge 62, Type (0, 0), BuildingBlock: AJUNOK_clean_linker_0, # of connection points: 2
#     Edge 63, Type (0, 0), BuildingBlock: AJUNOK_clean_linker_0, # of connection points: 2
# Relax obj value: 0.175
# Max RMSD: 0.242
# Mean RMSD: 0.242
data_MOF--net-wiu--node1-MIFKUJ_clean_sbu_0--edge1-AJUNOK_clean_linker_0
_symmetry_space_group_name_H-M    P1
_symmetry_Int_Tables_number       1
_symmetry_cell_setting            triclinic
loop_
_symmetry_equiv_pos_as_xyz
'x, y, z'
_cell_length_a     23.353265
_cell_length_b     23.369639
_cell_length_c     52.996258
_cell_angle_alpha  89.96576
_cell_angle_beta   89.981167
_cell_angle_gamma 89.902977
loop_
_atom_site_label
_atom_site_type_symbol
_atom_site_fract_x
_atom_site_fract_y
_atom_site_fract_z
_atom_type_partial_charge
Zn0 Zn 0.3006 0.10936 0.04239 0.0
Zn1 Zn 0.30393 0.16632 0.11997 0.0
C2 C 0.2493 0.09876 0.99752 0.0
O3 O 0.25278 0.0477 0.0078 0.0
C4 C 0.36306 0.11591 0.16513 0.0
O5 O 0.40062 0.15755 0.16354 0.0
O6 O 0.35653 0.0487 0.03224 0.0
O7 O 0.34712 0.15996 0.06591 0.0
O8 O 0.3722 0.19844 0.10214 0.0
C9 C 0.39331 0.06914 0.01703 0.0
O10 O 0.39055 0.12366 0.01107 0.0
O11 O 0.26875 0.14154 0.00972 0.0
C12 C 0.21072 0.24579 0.13399 0.0
O13 O 0.17389 0.20649 0.12708 0.0
O14 O 0.2639 0.23541 0.13288 0.0
O15 O 0.26092 0.12337 0.09352 0.0
O16 O 0.23021 0.07929 0.06008 0.0
O17 O 0.32298 0.11301 0.14891 0.0
C18 C 0.38003 0.19246 0.07852 0.0
C19 C 0.22151 0.09611 0.08245 0.0
Zn20 Zn 0.62715 0.55959 0.28655 0.0
Zn21 Zn 0.56522 0.55138 0.36259 0.0
C22 C 0.64281 0.5035 0.24233 0.0
O23 O 0.69362 0.51637 0.25126 0.0
C24 C 0.59111 0.5917 0.41422 0.0
O25 O 0.53563 0.58809 0.41797 0.0
O26 O 0.68835 0.6161 0.27922 0.0
O27 O 0.56838 0.60548 0.30761 0.0
O28 O 0.52792 0.61678 0.34536 0.0
C29 C 0.67545 0.65308 0.26274 0.0
O30 O 0.62517 0.65127 0.2517 0.0
O31 O 0.59911 0.5236 0.2537 0.0
C32 C 0.49565 0.46452 0.38865 0.0
O33 O 0.53841 0.45819 0.40452 0.0
O34 O 0.50054 0.49892 0.37033 0.0
O35 O 0.61433 0.5221 0.33593 0.0
O36 O 0.66389 0.49274 0.30433 0.0
O37 O 0.61175 0.5778 0.39285 0.0
C38 C 0.53306 0.63097 0.32223 0.0
C39 C 0.6475 0.4852 0.3267 0.0
Zn40 Zn 0.17848 0.87606 0.5376 0.0
Zn41 Zn 0.20621 0.82287 0.61312 0.0
C42 C 0.22902 0.87806 0.49161 0.0
O43 O 0.22689 0.93143 0.4993 0.0
C44 C 0.15181 0.84981 0.65995 0.0
O45 O 0.13597 0.79601 0.65849 0.0
O46 O 0.12158 0.93569 0.52873 0.0
O47 O 0.13318 0.8239 0.56247 0.0
O48 O 0.13584 0.78611 0.60104 0.0
C49 C 0.08185 0.91672 0.51481 0.0
O50 O 0.08302 0.8632 0.50728 0.0
O51 O 0.20645 0.83928 0.50525 0.0
C52 C 0.27487 0.74598 0.64251 0.0
O53 O 0.26049 0.78026 0.66108 0.0
O54 O 0.26139 0.7593 0.62009 0.0
O55 O 0.22471 0.86852 0.58404 0.0
O56 O 0.2507 0.91387 0.55097 0.0
O57 O 0.18414 0.87084 0.64302 0.0
C58 C 0.11117 0.79273 0.5798 0.0
C59 C 0.2617 0.89854 0.57319 0.0
Zn60 Zn 0.84925 0.42487 0.79482 0.0
Zn61 Zn 0.91919 0.43795 0.86562 0.0
C62 C 0.84648 0.47016 0.74551 0.0
O63 O 0.79738 0.44308 0.74652 0.0
C64 C 0.87883 0.38915 0.91089 0.0
O65 O 0.93426 0.38051 0.9128 0.0
O66 O 0.79598 0.36374 0.78424 0.0
O67 O 0.90475 0.38436 0.81694 0.0
O68 O 0.95371 0.36695 0.85092 0.0
C69 C 0.81853 0.32445 0.77103 0.0
O70 O 0.87284 0.32816 0.76475 0.0
O71 O 0.88038 0.46758 0.76429 0.0
C72 C 0.00222 0.52598 0.87887 0.0
O73 O 0.97659 0.55789 0.86185 0.0
O74 O 0.98334 0.47624 0.8835 0.0
O75 O 0.88968 0.48935 0.83748 0.0
O76 O 0.8102 0.48374 0.81607 0.0
O77 O 0.85941 0.4144 0.89139 0.0
C78 C 0.93974 0.35283 0.82871 0.0
C79 C 0.83804 0.50489 0.83441 0.0
Zn80 Zn 0.68748 0.81232 0.885 0.0
Zn81 Zn 0.67243 0.88937 0.95097 0.0
C82 C 0.63775 0.84874 0.83783 0.0
O83 O 0.62841 0.7935 0.83585 0.0
C84 C 0.72032 0.87624 0.00229 0.0
O85 O 0.67229 0.89984 0.00973 0.0
O86 O 0.72146 0.7406 0.87163 0.0
O87 O 0.74562 0.84379 0.90847 0.0
O88 O 0.72205 0.92662 0.92438 0.0
C89 C 0.76686 0.73465 0.85882 0.0
O90 O 0.79442 0.77987 0.85059 0.0
O91 O 0.6636 0.86756 0.85725 0.0
C92 C 0.57493 0.92706 0.97711 0.0
O93 O 0.57392 0.87216 0.98241 0.0
O94 O 0.6162 0.94729 0.9642 0.0
O95 O 0.61883 0.82515 0.94038 0.0
O96 O 0.62005 0.78352 0.90274 0.0
O97 O 0.72864 0.86654 0.97895 0.0
C98 C 0.7532 0.89719 0.90966 0.0
C99 C 0.59929 0.7891 0.92465 0.0
Zn100 Zn 0.41522 0.44654 0.6369 0.0
Zn101 Zn 0.35569 0.42857 0.70469 0.0
C102 C 0.35998 0.39049 0.59437 0.0
O103 O 0.39539 0.34877 0.60015 0.0
C104 C 0.33552 0.49181 0.74845 0.0
O105 O 0.28379 0.47928 0.74049 0.0
O106 O 0.48688 0.47833 0.62325 0.0
O107 O 0.39383 0.50344 0.66252 0.0
O108 O 0.31393 0.48315 0.68126 0.0
C109 C 0.50081 0.48563 0.60038 0.0
O110 O 0.46497 0.47178 0.58231 0.0
O111 O 0.35901 0.43525 0.60812 0.0
C112 C 0.3106 0.34407 0.73601 0.0
O113 O 0.35744 0.3561 0.74863 0.0
O114 O 0.29816 0.37234 0.71631 0.0
O115 O 0.41766 0.37164 0.69309 0.0
O116 O 0.43859 0.37402 0.65215 0.0
O117 O 0.37849 0.47532 0.73555 0.0
C118 C 0.34139 0.51347 0.66562 0.0
C119 C 0.44253 0.35082 0.67372 0.0
Zn120 Zn 0.77737 0.17507 0.38726 0.0
Zn121 Zn 0.805 0.09906 0.45271 0.0
C122 C 0.83389 0.12575 0.34315 0.0
O123 O 0.87078 0.16676 0.34781 0.0
C124 C 0.74674 0.08855 0.49923 0.0
O125 O 0.76817 0.03694 0.49667 0.0
O126 O 0.74348 0.24991 0.37725 0.0
O127 O 0.72868 0.14422 0.41476 0.0
O128 O 0.74942 0.05977 0.42911 0.0
C129 C 0.72293 0.26241 0.35586 0.0
O130 O 0.72248 0.22422 0.33771 0.0
O131 O 0.79004 0.12093 0.3574 0.0
C132 C 0.89286 0.0573 0.48312 0.0
O133 O 0.88206 0.10595 0.49457 0.0
O134 O 0.86168 0.04156 0.46477 0.0
O135 O 0.86118 0.15883 0.43929 0.0
O136 O 0.85158 0.19673 0.40112 0.0
O137 O 0.7572 0.12631 0.48254 0.0
C138 C 0.71883 0.09114 0.41501 0.0
C139 C 0.87897 0.19118 0.42161 0.0
Zn140 Zn 0.0606 0.54292 0.13243 0.0
Zn141 Zn 0.1243 0.55177 0.20843 0.0
C142 C 0.09128 0.59235 0.08324 0.0
O143 O 0.03807 0.6106 0.08264 0.0
C144 C 0.1284 0.49937 0.25364 0.0
O145 O 0.18161 0.50778 0.24657 0.0
O146 O 0.99065 0.49672 0.12515 0.0
O147 O 0.11076 0.50561 0.1584 0.0
O148 O 0.16096 0.48371 0.1915 0.0
C149 C 0.97913 0.4742 0.10402 0.0
O150 O 0.01648 0.47821 0.08556 0.0
O151 O 0.10855 0.56253 0.10184 0.0
C152 C 0.16218 0.65538 0.22646 0.0
O153 O 0.10641 0.6626 0.22636 0.0
O154 O 0.18301 0.60782 0.21948 0.0
O155 O 0.07456 0.59492 0.18318 0.0
O156 O 0.03199 0.61599 0.14757 0.0
O157 O 0.08789 0.51751 0.23965 0.0
C158 C 0.14357 0.4706 0.16961 0.0
C159 C 0.04375 0.62894 0.17025 0.0
Zn160 Zn 0.81225 0.60543 0.54363 0.0
Zn161 Zn 0.79013 0.66067 0.61297 0.0
C162 C 0.75734 0.60377 0.49403 0.0
O163 O 0.7929 0.56123 0.49011 0.0
C164 C 0.83794 0.62211 0.6597 0.0
O165 O 0.85234 0.67638 0.66055 0.0
O166 O 0.86882 0.5479 0.53097 0.0
O167 O 0.86744 0.66832 0.55454 0.0
O168 O 0.85852 0.68644 0.59533 0.0
C169 C 0.90557 0.56535 0.51509 0.0
O170 O 0.90201 0.61758 0.50607 0.0
O171 O 0.75831 0.63025 0.51502 0.0
C172 C 0.70951 0.74546 0.63112 0.0
O173 O 0.67103 0.70944 0.6226 0.0
O174 O 0.76212 0.73214 0.62976 0.0
O175 O 0.72797 0.63483 0.59003 0.0
O176 O 0.76176 0.56216 0.56817 0.0
O177 O 0.81111 0.60363 0.64042 0.0
C178 C 0.88487 0.69222 0.57467 0.0
C179 C 0.72412 0.58359 0.58263 0.0
Zn180 Zn 0.12306 0.05915 0.78821 0.0
Zn181 Zn 0.06099 0.04042 0.86226 0.0
C182 C 0.13543 -0.00312 0.74586 0.0
O183 O 0.18694 0.00235 0.75547 0.0
C184 C 0.11135 0.10002 0.90662 0.0
O185 O 0.07636 0.14266 0.90169 0.0
O186 O 0.18146 0.11747 0.7798 0.0
O187 O 0.06288 0.1053 0.80937 0.0
O188 O 0.02378 0.10929 0.84779 0.0
C189 C 0.17361 0.14696 0.76004 0.0
O190 O 0.13012 0.13551 0.74519 0.0
O191 O 0.09366 0.02315 0.75609 0.0
C192 C 0.9865 0.96483 0.88946 0.0
O193 O 0.02134 0.97505 0.90838 0.0
O194 O -0.00143 0.98455 0.86785 0.0
O195 O 0.10924 0.01929 0.83484 0.0
O196 O 0.16349 -0.00824 0.80494 0.0
O197 O 0.10981 0.05541 0.89291 0.0
C198 C 0.02797 0.12794 0.82518 0.0
C199 C 0.14381 0.98285 0.82659 0.0
Zn200 Zn 0.67211 0.37447 0.0427 0.0
Zn201 Zn 0.69182 0.2959 0.11126 0.0
C202 C 0.73193 0.38696 -0.0016 0.0
O203 O 0.72489 0.43916 0.00704 0.0
C204 C 0.63315 0.35427 0.15429 0.0
O205 O 0.58543 0.33072 0.14633 0.0
O206 O 0.61424 0.4313 0.03319 0.0
O207 O 0.6291 0.31667 0.06251 0.0
O208 O 0.61833 0.26669 0.09707 0.0
C209 C 0.57591 0.41131 0.01886 0.0
O210 O 0.57837 0.35762 0.01162 0.0
O211 O 0.71087 0.3454 0.01079 0.0
C212 C 0.78278 0.22298 0.1292 0.0
O213 O 0.81157 0.27049 0.13293 0.0
O214 O 0.73166 0.22524 0.12134 0.0
O215 O 0.74143 0.33173 0.08414 0.0
O216 O 0.73089 0.41225 0.06416 0.0
O217 O 0.67958 0.3462 0.1421 0.0
C218 C 0.60164 0.27985 0.07509 0.0
C219 C 0.75407 0.38428 0.08193 0.0
Zn220 Zn 0.33936 0.91837 0.29918 0.0
Zn221 Zn 0.42034 0.93205 0.36095 0.0
C222 C 0.3447 0.98531 0.25792 0.0
O223 O 0.29212 0.9871 0.2667 0.0
C224 C 0.37907 0.87711 0.40555 0.0
O225 O 0.43463 0.87116 0.40848 0.0
O226 O 0.28079 0.87213 0.28139 0.0
O227 O 0.37683 0.85838 0.32072 0.0
O228 O 0.4574 0.87279 0.34005 0.0
C229 C 0.30419 0.83086 0.26963 0.0
O230 O 0.3601 0.82478 0.27035 0.0
O231 O 0.38238 0.95748 0.27033 0.0
C232 C 0.49436 0.0182 0.38161 0.0
O233 O 0.45834 0.05364 0.37072 0.0
O234 O 0.48464 0.96492 0.381 0.0
O235 O 0.39044 -0.0077 0.33738 0.0
O236 O 0.30553 0.97955 0.32062 0.0
O237 O 0.36054 0.90065 0.38545 0.0
C238 C 0.42976 0.84818 0.32269 0.0
C239 C 0.33825 0.00642 0.3356 0.0
Zn240 Zn 0.20298 0.31378 0.38541 0.0
Zn241 Zn 0.18066 0.38026 0.45359 0.0
C242 C 0.14848 0.35319 0.34036 0.0
O243 O 0.12548 0.30208 0.34207 0.0
C244 C 0.24438 0.39758 0.49679 0.0
O245 O 0.23973 0.44825 0.48621 0.0
O246 O 0.23761 0.24295 0.37279 0.0
O247 O 0.25645 0.34006 0.41179 0.0
O248 O 0.23867 0.41974 0.43119 0.0
C249 C 0.28206 0.23855 0.35929 0.0
O250 O 0.30739 0.28429 0.35024 0.0
O251 O 0.18476 0.36863 0.35698 0.0
C252 C 0.0893 0.42052 0.48096 0.0
O253 O 0.09451 0.36817 0.4897 0.0
O254 O 0.12449 0.43895 0.46463 0.0
O255 O 0.12463 0.32179 0.43934 0.0
O256 O 0.13061 0.28908 0.40002 0.0
O257 O 0.22199 0.35498 0.48555 0.0
C258 C 0.26658 0.39256 0.4146 0.0
C259 C 0.1056 0.29174 0.42117 0.0
Zn260 Zn 0.92251 0.93627 0.13137 0.0
Zn261 Zn 0.86663 0.92893 0.20839 0.0
C262 C 0.87962 0.87781 0.08541 0.0
O263 O 0.90845 0.83304 0.09339 0.0
C264 C 0.8486 0.98106 0.25385 0.0
O265 O 0.79787 0.97185 0.24396 0.0
O266 O 0.99067 0.98453 0.12556 0.0
O267 O 0.87542 0.96359 0.15899 0.0
O268 O 0.83079 -0.00252 0.19099 0.0
C269 C -0.00479 0.03368 0.11571 0.0
O270 O 0.9489 0.06098 0.10835 0.0
O271 O 0.87899 0.92341 0.09854 0.0
C272 C 0.82785 0.83094 0.23071 0.0
O273 O 0.88137 0.83304 0.23822 0.0
O274 O 0.80767 0.8708 0.21707 0.0
O275 O 0.9234 0.87922 0.18675 0.0
O276 O 0.9563 0.86711 0.14743 0.0
O277 O 0.89279 0.96359 0.24188 0.0
C278 C 0.84634 0.00349 0.16839 0.0
C279 C 0.95582 0.85346 0.17081 0.0
Zn280 Zn 0.28368 0.67575 0.88567 0.0
Zn281 Zn 0.30823 0.59908 0.95507 0.0
C282 C 0.33557 0.62742 0.84016 0.0
O283 O 0.37157 0.6701 0.84293 0.0
C284 C 0.25441 0.59725 0.00217 0.0
O285 O 0.2758 0.54541 0.00072 0.0
O286 O 0.24562 0.7488 0.87599 0.0
O287 O 0.24177 0.64008 0.91524 0.0
O288 O 0.24963 0.55872 0.93472 0.0
C289 C 0.20585 0.75773 0.86023 0.0
O290 O 0.1833 0.71463 0.84787 0.0
O291 O 0.29467 0.6218 0.85592 0.0
C292 C 0.40905 0.56538 0.97809 0.0
O293 O 0.41039 0.62047 0.9829 0.0
O294 O 0.36688 0.54403 0.96645 0.0
O295 O 0.35098 0.65437 0.93332 0.0
O296 O 0.36 0.70254 0.89805 0.0
O297 O 0.26459 0.63285 0.98459 0.0
C298 C 0.2259 0.58837 0.91765 0.0
C299 C 0.37857 0.6894 0.91977 0.0
Zn300 Zn 0.56614 0.03166 0.63334 0.0
Zn301 Zn 0.63196 0.05318 0.70717 0.0
C302 C 0.59596 0.08324 0.58497 0.0
O303 O 0.54482 0.10656 0.58631 0.0
C304 C 0.63332 -0.00115 0.75236 0.0
O305 O 0.68682 0.00059 0.7448 0.0
O306 O 0.49716 0.9847 0.62698 0.0
O307 O 0.61516 0.00436 0.66069 0.0
O308 O 0.66928 0.98244 0.6919 0.0
C309 C 0.48782 0.95969 0.60622 0.0
O310 O 0.52808 0.95876 0.5889 0.0
O311 O 0.61245 0.04937 0.60234 0.0
C312 C 0.67249 0.15055 0.72888 0.0
O313 O 0.61693 0.15424 0.73236 0.0
O314 O 0.69282 0.1078 0.71723 0.0
O315 O 0.57796 0.10096 0.68431 0.0
O316 O 0.53642 0.10429 0.64668 0.0
O317 O 0.59498 0.02288 0.73899 0.0
C318 C 0.64908 0.96903 0.67068 0.0
C319 C 0.54519 0.12578 0.66838 0.0
C320 C 0.44285 0.27423 0.06856 0.0
C321 C 0.43317 0.21493 0.06775 0.0
C322 C 0.49859 0.29619 0.06763 0.0
C323 C 0.54587 0.25913 0.06651 0.0
H324 H 0.40758 0.30336 0.07209 0.0
H325 H 0.50488 0.3417 0.07039 0.0
S326 S 0.54259 0.10147 0.06023 0.0
N327 N 0.47454 0.12036 0.06237 0.0
N328 N 0.57967 0.16159 0.06142 0.0
C329 C 0.53647 0.20038 0.0633 0.0
C330 C 0.47975 0.17817 0.0637 0.0
C331 C 0.44498 0.68909 0.32008 0.0
C332 C 0.50324 0.68291 0.31402 0.0
C333 C 0.41908 0.74302 0.32022 0.0
C334 C 0.45133 0.79221 0.3149 0.0
H335 H 0.42046 0.65257 0.32654 0.0
H336 H 0.37525 0.74661 0.32676 0.0
S337 S 0.60222 0.79818 0.29417 0.0
N338 N 0.59017 0.72949 0.29939 0.0
N339 N 0.54129 0.8314 0.30014 0.0
C340 C 0.50784 0.78614 0.30654 0.0
C341 C 0.534 0.73114 0.30597 0.0
C342 C 0.03067 0.74977 0.55476 0.0
C343 C 0.0518 0.77211 0.57752 0.0
C344 C 0.97554 0.72581 0.55354 0.0
C345 C 0.93965 0.72437 0.57496 0.0
H346 H 0.05762 0.74881 0.53813 0.0
H347 H 0.96176 0.7068 0.53594 0.0
S348 S 0.9725 0.78696 0.63793 0.0
N349 N 0.0308 0.79758 0.62104 0.0
N350 N 0.92762 0.75411 0.61884 0.0
C351 C 0.95936 0.75042 0.59735 0.0
C352 C 0.01534 0.77386 0.59861 0.0
C353 C 0.94613 0.19384 0.83205 0.0
C354 C -0.0028 0.18151 0.81903 0.0
C355 C 0.92404 0.24941 0.83276 0.0
C356 C 0.95214 0.29438 0.82041 0.0
H357 H 0.92532 0.16118 0.8433 0.0
H358 H 0.88731 0.25807 0.84469 0.0
S359 S 0.08072 0.2834 0.77996 0.0
N360 N 0.07044 0.21758 0.79045 0.0
N361 N 0.02852 0.32256 0.79206 0.0
C362 C -0.00045 0.28192 0.80518 0.0
C363 C 0.02214 0.22509 0.80434 0.0
C364 C 0.49719 0.78981 0.93757 0.0
C365 C 0.54585 0.75862 0.93012 0.0
C366 C 0.44249 0.76548 0.93593 0.0
C367 C 0.43539 0.70913 0.92736 0.0
H368 H 0.50084 0.83459 0.9426 0.0
H369 H 0.40541 0.7919 0.93994 0.0
S370 S 0.54976 0.6078 0.90875 0.0
N371 N 0.58404 0.6673 0.91606 0.0
N372 N 0.48112 0.62119 0.91361 0.0
C373 C 0.48394 0.67617 0.92185 0.0
C374 C 0.53939 0.70109 0.92311 0.0
C375 C 0.52932 0.22336 0.65242 0.0
C376 C 0.52484 0.18469 0.67256 0.0
C377 C 0.50511 0.27771 0.65375 0.0
C378 C 0.47442 0.29584 0.6752 0.0
H379 H 0.55087 0.21107 0.63512 0.0
H380 H 0.50915 0.30498 0.63731 0.0
S381 S 0.45411 0.21162 0.734 0.0
N382 N 0.49103 0.16859 0.71531 0.0
N383 N 0.44436 0.27148 0.71793 0.0
C384 C 0.47194 0.25849 0.69611 0.0
C385 C 0.4974 0.20272 0.69476 0.0
C386 C 0.01247 0.26992 0.40149 0.0
C387 C 0.0479 0.26706 0.42284 0.0
C388 C 0.95757 0.24692 0.40178 0.0
C389 C 0.93579 0.21914 0.42334 0.0
H390 H 0.02718 0.29044 0.38433 0.0
H391 H 0.93258 0.25019 0.38462 0.0
S392 S 0.01175 0.20181 0.48447 0.0
N393 N 0.05775 0.2364 0.46637 0.0
N394 N 0.95408 0.19173 0.46699 0.0
C395 C 0.97056 0.2169 0.44507 0.0
C396 C 0.02667 0.24125 0.44481 0.0
C397 C 0.9793 0.70025 0.19046 0.0
C398 C 0.0315 0.68766 0.17849 0.0
C399 C 0.95737 0.75631 0.19047 0.0
C400 C 0.98655 0.80076 0.17804 0.0
H401 H 0.95315 0.66598 0.19797 0.0
H402 H 0.91504 0.76368 0.19809 0.0
S403 S 0.12911 0.79097 0.14762 0.0
N404 N 0.11525 0.72498 0.15699 0.0
N405 N 0.07363 0.82996 0.15656 0.0
C406 C 0.04112 0.78943 0.16808 0.0
C407 C 0.06367 0.73281 0.16838 0.0
C408 C 0.45919 0.98535 0.01981 0.0
C409 C 0.43891 0.033 0.00633 0.0
C410 C 0.50359 0.95149 0.0102 0.0
C411 C 0.52927 0.96433 0.98688 0.0
H412 H 0.44122 0.97461 0.03806 0.0
H413 H 0.51834 0.91534 0.02126 0.0
S414 S 0.48723 0.08054 0.94301 0.0
N415 N 0.4448 0.08885 0.96766 0.0
N416 N 0.52857 0.02516 0.94969 0.0
C417 C 0.50871 0.01116 0.97299 0.0
C418 C 0.46338 0.04554 0.98272 0.0
C419 C 0.73237 0.74031 0.27149 0.0
C420 C 0.71735 0.69578 0.25503 0.0
C421 C 0.76859 0.78433 0.26341 0.0
C422 C 0.79134 0.78396 0.23891 0.0
H423 H 0.71524 0.74162 0.29046 0.0
H424 H 0.77837 0.81908 0.27623 0.0
S425 S 0.77365 0.67051 0.1908 0.0
N426 N 0.733 0.64979 0.21462 0.0
N427 N 0.80232 0.73207 0.19947 0.0
C428 C 0.7793 0.73786 0.22287 0.0
C429 C 0.74194 0.69359 0.231 0.0
C430 C -0.00023 0.98057 0.52446 0.0
C431 C 0.03557 0.9543 0.50661 0.0
C432 C 0.95347 0.01442 0.51669 0.0
C433 C 0.94194 0.02251 0.49092 0.0
H434 H 0.00693 0.97395 0.54446 0.0
H435 H 0.92595 0.03343 0.53087 0.0
S436 S 0.02904 0.96979 0.43724 0.0
N437 N 0.06044 0.94271 0.46249 0.0
N438 N 0.97358 0.00679 0.44774 0.0
C439 C 0.97887 -0.00192 0.47299 0.0
C440 C 0.02577 0.96369 0.48091 0.0
C441 C 0.79492 0.25418 0.73737 0.0
C442 C 0.78301 0.27778 0.76121 0.0
C443 C 0.75921 0.2123 0.72696 0.0
C444 C 0.71064 0.19316 0.7401 0.0
H445 H 0.83114 0.26916 0.72644 0.0
H446 H 0.76889 0.19579 0.70833 0.0
S447 S 0.66587 0.23516 0.80452 0.0
N448 N 0.72288 0.27475 0.79866 0.0
N449 N 0.6555 0.1964 0.77891 0.0
C450 C 0.69949 0.21494 0.76424 0.0
C451 C 0.73584 0.25721 0.77488 0.0
C452 C 0.25691 0.25733 0.72369 0.0
C453 C 0.27644 0.29401 0.74281 0.0
C454 C 0.22426 0.20909 0.72952 0.0
C455 C 0.21047 0.19607 0.75463 0.0
H456 H 0.26727 0.26577 0.7041 0.0
H457 H 0.20984 0.18174 0.7143 0.0
S458 S 0.24796 0.28124 0.81128 0.0
N459 N 0.27808 0.31587 0.78757 0.0
N460 N 0.21644 0.22483 0.79869 0.0
C461 C 0.22983 0.2324 0.77395 0.0
C462 C 0.263 0.28159 0.76798 0.0
C463 C 0.28407 0.72933 0.25971 0.0
C464 C 0.26926 0.78735 0.2572 0.0
C465 C 0.24967 0.68664 0.24921 0.0
C466 C 0.19964 0.70087 0.23588 0.0
H467 H 0.32156 0.71681 0.27045 0.0
H468 H 0.26144 0.64225 0.25216 0.0
S469 S 0.14774 0.84695 0.22081 0.0
N470 N 0.20518 0.85724 0.2384 0.0
N471 N 0.14026 0.77687 0.21853 0.0
C472 C 0.18578 0.75883 0.23239 0.0
C473 C 0.22075 0.80221 0.24311 0.0
C474 C 0.00471 0.48207 0.4726 0.0
C475 C 0.04276 0.45705 0.48991 0.0
C476 C 0.95978 0.51702 0.48096 0.0
C477 C 0.95183 0.52752 0.5068 0.0
H478 H 0.00947 0.47418 0.45256 0.0
H479 H 0.9309 0.53561 0.46719 0.0
S480 S 0.0435 0.47616 0.55919 0.0
N481 N 0.0719 0.44728 0.53363 0.0
N482 N 0.98746 0.51338 0.54943 0.0
C483 C 0.98998 0.50318 0.52422 0.0
C484 C 0.03556 0.46765 0.51571 0.0
C485 C 0.49841 0.48249 0.02428 0.0
C486 C 0.53325 0.44971 0.00825 0.0
C487 C 0.45863 0.52106 0.01427 0.0
C488 C 0.45316 0.52766 0.98808 0.0
H489 H 0.50164 0.47785 0.04458 0.0
H490 H 0.43138 0.54511 0.027 0.0
S491 S 0.53927 0.45611 0.93859 0.0
N492 N 0.56315 0.42893 0.96538 0.0
N493 N 0.48784 0.50145 0.94642 0.0
C494 C 0.48856 0.49593 0.97193 0.0
C495 C 0.52891 0.45675 0.98211 0.0
C496 C 0.2291 0.33632 0.15723 0.0
C497 C 0.19187 0.30301 0.14243 0.0
C498 C 0.21359 0.39114 0.16526 0.0
C499 C 0.1607 0.41532 0.15843 0.0
H500 H 0.27038 0.31965 0.16303 0.0
H501 H 0.24321 0.41465 0.17707 0.0
S502 S 0.04802 0.3462 0.11974 0.0
N503 N 0.09985 0.29819 0.12113 0.0
N504 N 0.07095 0.40187 0.13604 0.0
C505 C 0.12339 0.38298 0.1433 0.0
C506 C 0.13883 0.32658 0.13543 0.0
C507 C 0.42261 0.43199 0.41982 0.0
C508 C 0.43826 0.44167 0.39454 0.0
C509 C 0.36615 0.41809 0.42627 0.0
C510 C 0.32378 0.41271 0.40763 0.0
H511 H 0.45372 0.43684 0.43482 0.0
H512 H 0.35565 0.41082 0.44593 0.0
S513 S 0.3427 0.43005 0.33872 0.0
N514 N 0.40681 0.44263 0.35067 0.0
N515 N 0.30092 0.41559 0.36304 0.0
C516 C 0.33892 0.42059 0.38231 0.0
C517 C 0.39616 0.43533 0.37569 0.0
C518 C 0.27517 0.66052 0.6705 0.0
C519 C 0.29329 0.68691 0.64799 0.0
C520 C 0.28785 0.60306 0.6755 0.0
C521 C 0.32003 0.57038 0.65836 0.0
H522 H 0.25028 0.68417 0.68425 0.0
H523 H 0.27411 0.5848 0.69329 0.0
S524 S 0.37654 0.61855 0.5965 0.0
N525 N 0.3436 0.67541 0.60809 0.0
N526 N 0.36863 0.56762 0.61782 0.0
C527 C 0.33788 0.59595 0.63568 0.0
C528 C 0.32427 0.65419 0.6304 0.0
C529 C 0.09138 0.58489 0.87773 0.0
C530 C 0.05752 0.54353 0.8899 0.0
C531 C 0.14647 0.59785 0.88647 0.0
C532 C 0.16967 0.57019 0.90765 0.0
H533 H 0.07585 0.60657 0.861 0.0
H534 H 0.17133 0.62956 0.87651 0.0
S535 S 0.09629 0.46159 0.94749 0.0
N536 N 0.04965 0.47719 0.92514 0.0
N537 N 0.15314 0.50109 0.9414 0.0
C538 C 0.13581 0.52922 0.92026 0.0
C539 C 0.07968 0.51623 0.91146 0.0
C540 C 0.83383 0.60863 0.82518 0.0
C541 C 0.82267 0.56317 0.84185 0.0
C542 C 0.8173 0.66464 0.83112 0.0
C543 C 0.78834 0.67652 0.85374 0.0
H544 H 0.85485 0.6006 0.80729 0.0
H545 H 0.82562 0.69841 0.8176 0.0
S546 S 0.75444 0.57254 0.90465 0.0
N547 N 0.78537 0.53362 0.88247 0.0
N548 N 0.75321 0.6388 0.89375 0.0
C549 C 0.77871 0.63144 0.87092 0.0
C550 C 0.79621 0.57464 0.86494 0.0
C551 C 0.58591 0.54116 0.61366 0.0
C552 C 0.55777 0.5094 0.59485 0.0
C553 C 0.64053 0.56329 0.60964 0.0
C554 C 0.66945 0.554 0.58679 0.0
H555 H 0.56536 0.54968 0.63161 0.0
H556 H 0.66021 0.5882 0.62453 0.0
S557 S 0.61532 0.47252 0.53173 0.0
N558 N 0.56297 0.4691 0.55263 0.0
N559 N 0.66673 0.51025 0.54516 0.0
C560 C 0.64247 0.52149 0.56793 0.0
C561 C 0.58618 0.49956 0.5719 0.0
C562 C 0.64743 0.3283 0.34008 0.0
C563 C 0.70111 0.32037 0.35145 0.0
C564 C 0.62761 0.38333 0.3343 0.0
C565 C 0.66131 0.43162 0.33944 0.0
H566 H 0.62121 0.29176 0.33517 0.0
H567 H 0.58718 0.38794 0.32446 0.0
S568 S 0.80429 0.43354 0.36943 0.0
N569 N 0.7866 0.36513 0.36858 0.0
N570 N 0.74984 0.46864 0.35684 0.0
C571 C 0.71408 0.42445 0.35154 0.0
C572 C 0.73389 0.3686 0.35782 0.0
C573 C 0.85513 0.40262 0.07061 0.0
C574 C 0.8119 0.40249 0.08903 0.0
C575 C 0.90964 0.42414 0.07593 0.0
C576 C 0.92274 0.44675 0.09984 0.0
H577 H 0.84633 0.38691 0.05177 0.0
H578 H 0.9412 0.42426 0.06095 0.0
S579 S 0.8238 0.45369 0.15481 0.0
N580 N 0.78524 0.42442 0.13212 0.0
N581 N 0.88772 0.46533 0.1425 0.0
C582 C 0.87995 0.44514 0.1187 0.0
C583 C 0.82444 0.42291 0.11319 0.0
C584 C 0.73469 0.8391 0.65104 0.0
C585 C 0.69271 0.80254 0.64083 0.0
C586 C 0.72041 0.89354 0.66013 0.0
C587 C 0.66389 0.91389 0.65893 0.0
H588 H 0.77898 0.82551 0.65226 0.0
H589 H 0.75384 0.91988 0.66822 0.0
S590 S 0.53732 0.83445 0.63566 0.0
N591 N 0.59156 0.79031 0.63106 0.0
N592 N 0.56525 0.89273 0.6482 0.0
C593 C 0.6215 0.87805 0.64891 0.0
C594 C 0.63577 0.82232 0.63988 0.0
C595 C 0.84883 0.92997 0.92377 0.0
C596 C 0.81096 0.91776 0.90394 0.0
C597 C 0.90643 0.94234 0.91897 0.0
C598 C 0.92795 0.94335 0.89416 0.0
H599 H 0.83404 0.92888 0.94315 0.0
H600 H 0.93386 0.9524 0.93484 0.0
S601 S 0.84527 0.91242 0.83581 0.0
N602 N 0.79812 0.906 0.85887 0.0
N603 N 0.9065 0.92903 0.84954 0.0
C604 C 0.89031 0.93015 0.87419 0.0
C605 C 0.83173 0.91747 0.87917 0.0
C606 C 0.85731 0.10861 0.16704 0.0
C607 C 0.83772 0.05817 0.15552 0.0
C608 C 0.84274 0.16236 0.15731 0.0
C609 C 0.80675 0.16701 0.13621 0.0
H610 H 0.88264 0.10645 0.18415 0.0
H611 H 0.85683 0.2003 0.16726 0.0
S612 S 0.74855 0.04723 0.09807 0.0
N613 N 0.78496 0.01561 0.1209 0.0
N614 N 0.75573 0.11672 0.10284 0.0
C615 C 0.78926 0.11669 0.12381 0.0
C616 C 0.80523 0.06207 0.13343 0.0
C617 C 0.63481 0.02475 0.4172 0.0
C618 C 0.66332 0.07037 0.40527 0.0
C619 C 0.57941 0.00883 0.40983 0.0
C620 C 0.5506 0.03823 0.39044 0.0
H621 H 0.6548 0.00202 0.4327 0.0
H622 H 0.55882 0.97351 0.41948 0.0
S623 S 0.60842 0.15665 0.35166 0.0
N624 N 0.65993 0.14187 0.37198 0.0
N625 N 0.55574 0.11234 0.35841 0.0
C626 C 0.57889 0.08314 0.37813 0.0
C627 C 0.63533 0.09899 0.38544 0.0
C628 C 0.31191 0.16437 0.32856 0.0
C629 C 0.30305 0.18113 0.35366 0.0
C630 C 0.3219 0.10684 0.32267 0.0
C631 C 0.32403 0.06528 0.34181 0.0
H632 H 0.30876 0.19535 0.3134 0.0
H633 H 0.32811 0.09474 0.30312 0.0
S634 S 0.31026 0.08875 0.41051 0.0
N635 N 0.30105 0.15277 0.39786 0.0
N636 N 0.32148 0.04469 0.38664 0.0
C637 C 0.31807 0.08193 0.36698 0.0
C638 C 0.30712 0.14007 0.37296 0.0
C639 C 0.10128 0.02025 0.11549 0.0
C640 C 0.05343 0.05518 0.10992 0.0
C641 C 0.15646 0.03528 0.10769 0.0
C642 C 0.16582 0.08588 0.09424 0.0
H643 H 0.09607 0.97976 0.12518 0.0
H644 H 0.19163 0.00613 0.11138 0.0
S645 S 0.05758 0.19468 0.07648 0.0
N646 N 0.02066 0.14496 0.09151 0.0
N647 N 0.12474 0.17236 0.07645 0.0
C648 C 0.11934 0.12228 0.08928 0.0
C649 C 0.06303 0.10728 0.09734 0.0
C650 C 0.1179 0.88334 0.83697 0.0
C651 C 0.15602 0.92927 0.83969 0.0
C652 C 0.13379 0.82793 0.84427 0.0
C653 C 0.18804 0.81709 0.85474 0.0
H654 H 0.07672 0.88981 0.82798 0.0
H655 H 0.1039 0.79325 0.84116 0.0
S656 S 0.30159 0.92486 0.86701 0.0
N657 N 0.24871 0.96183 0.85422 0.0
N658 N 0.27875 0.8581 0.86864 0.0
C659 C 0.22539 0.86364 0.85868 0.0
C660 C 0.20933 0.91974 0.8509 0.0
C661 C 0.42168 0.9009 0.58014 0.0
C662 C 0.42977 0.93872 0.60042 0.0
C663 C 0.36662 0.88644 0.57203 0.0
C664 C 0.31808 0.90881 0.58413 0.0
H665 H 0.45808 0.88364 0.56998 0.0
H666 H 0.36192 0.85859 0.55582 0.0
S667 S 0.31507 0.00834 0.6383 0.0
N668 N 0.38383 -0.00254 0.63274 0.0
N669 N 0.28038 0.96892 0.61747 0.0
C670 C 0.32508 0.94458 0.60501 0.0
C671 C 0.38108 0.95985 0.61321 0.0
C672 C 0.18239 0.14885 0.96775 0.0
C673 C 0.22112 0.10422 0.97272 0.0
C674 C 0.1479 0.14803 0.94599 0.0
C675 C 0.15128 0.10269 0.92846 0.0
H676 H 0.17665 0.18304 0.98133 0.0
H677 H 0.11719 0.18228 0.94334 0.0
S678 S 0.25223 0.97962 0.9316 0.0
N679 N 0.26508 0.01659 0.95749 0.0
N680 N 0.20116 0.01489 0.91669 0.0
C681 C 0.1924 0.05952 0.93271 0.0
C682 C 0.22708 0.06036 0.95481 0.0
C683 C 0.58588 0.42203 0.185 0.0
C684 C 0.63376 0.38911 0.1777 0.0
C685 C 0.58819 0.4585 0.20618 0.0
C686 C 0.63838 0.46292 0.22079 0.0
H687 H 0.547 0.4209 0.17387 0.0
H688 H 0.55101 0.48425 0.21076 0.0
S689 S 0.77093 0.37643 0.2125 0.0
N690 N 0.72949 0.3573 0.18878 0.0
N691 N 0.73407 0.42482 0.2283 0.0
C692 C 0.68509 0.42736 0.21446 0.0
C693 C 0.68273 0.39072 0.19301 0.0
C694 C 0.32567 0.87467 0.47295 0.0
C695 C 0.26681 0.86437 0.4703 0.0
C696 C 0.36202 0.87521 0.45194 0.0
C697 C 0.34053 0.86704 0.42738 0.0
H698 H 0.34334 0.88494 0.49131 0.0
H699 H 0.40674 0.88549 0.4549 0.0
S700 S 0.19 0.83279 0.41091 0.0
N701 N 0.18902 0.841 0.44188 0.0
N702 N 0.25705 0.84327 0.40201 0.0
C703 C 0.282 0.85395 0.42466 0.0
C704 C 0.24516 0.85233 0.44624 0.0
C705 C 0.84799 0.52429 0.67857 0.0
C706 C 0.8489 0.58409 0.68168 0.0
C707 C 0.85152 0.48736 0.69939 0.0
C708 C 0.85687 0.50875 0.72402 0.0
H709 H 0.84263 0.5058 0.65999 0.0
H710 H 0.8478 0.44168 0.69628 0.0
S711 S 0.86168 0.66137 0.74272 0.0
N712 N 0.85645 0.66285 0.71164 0.0
N713 N 0.86352 0.59298 0.75059 0.0
C714 C 0.86035 0.56817 0.72744 0.0
C715 C 0.85633 0.60597 0.70628 0.0
C716 C 0.80772 0.8276 0.05841 0.0
C717 C 0.84479 0.87425 0.06217 0.0
C718 C 0.76898 0.82689 0.03811 0.0
C719 C 0.76763 0.87183 0.02052 0.0
H720 H 0.80656 0.79291 0.07197 0.0
H721 H 0.73871 0.79198 0.03662 0.0
S722 S 0.86049 0.00013 0.02012 0.0
N723 N 0.88043 0.96441 0.04558 0.0
N724 N 0.8092 0.96181 0.00692 0.0
C725 C 0.80673 0.91692 0.0232 0.0
C726 C 0.84504 0.91843 0.04417 0.0
C727 C 0.37527 0.60388 0.79718 0.0
C728 C 0.34045 0.58869 0.81794 0.0
C729 C 0.37618 0.57076 0.77501 0.0
C730 C 0.34208 0.52158 0.77283 0.0
H731 H 0.40051 0.6427 0.79768 0.0
H732 H 0.40156 0.58516 0.75912 0.0
S733 S 0.25152 0.45753 0.8228 0.0
N734 N 0.27704 0.51653 0.83569 0.0
N735 N 0.27809 0.45545 0.79395 0.0
C736 C 0.30986 0.50413 0.79382 0.0
C737 C 0.30924 0.53734 0.8164 0.0
C738 C 0.69348 0.08502 0.56601 0.0
C739 C 0.63429 0.09456 0.56326 0.0
C740 C 0.73042 0.08741 0.54527 0.0
C741 C 0.70976 0.10023 0.52107 0.0
H742 H 0.71125 0.07349 0.58421 0.0
H743 H 0.77519 0.07678 0.54799 0.0
S744 S 0.55949 0.13222 0.50369 0.0
N745 N 0.55724 0.12044 0.53443 0.0
N746 N 0.62739 0.1253 0.49542 0.0
C747 C 0.65147 0.11332 0.51815 0.0
C748 C 0.61351 0.11051 0.5393 0.0
C749 C 0.14915 0.44989 0.3202 0.0
C750 C 0.13382 0.39175 0.31899 0.0
C751 C 0.142 0.48616 0.29939 0.0
C752 C 0.11857 0.46597 0.27671 0.0
H753 H 0.16892 0.46718 0.33703 0.0
H754 H 0.15769 0.52968 0.30062 0.0
S755 S 0.06892 0.31849 0.2637 0.0
N756 N 0.0915 0.31636 0.29323 0.0
N757 N 0.07824 0.38519 0.2542 0.0
C758 C 0.10016 0.40895 0.27551 0.0
C759 C 0.10767 0.37166 0.29667 0.0
C760 C 0.61671 0.58638 0.46004 0.0
C761 C 0.63015 0.60504 0.43547 0.0
C762 C 0.65689 0.59047 0.47968 0.0
C763 C 0.7115 0.61367 0.47544 0.0
H764 H 0.57622 0.56548 0.4638 0.0
H765 H 0.64635 0.57246 0.49791 0.0
S766 S 0.76362 0.67896 0.41611 0.0
N767 N 0.69896 0.65518 0.40906 0.0
N768 N 0.7744 0.66216 0.44603 0.0
C769 C 0.72388 0.6363 0.45157 0.0
C770 C 0.68314 0.63223 0.43156 0.0
C771 C 0.11736 0.93991 0.67997 0.0
C772 C 0.13828 0.88371 0.68249 0.0
C773 C 0.11133 0.97558 0.70111 0.0
C774 C 0.12747 0.95621 0.72514 0.0
H775 H 0.10726 0.95687 0.66146 0.0
H776 H 0.09761 0.01948 0.69843 0.0
S777 S 0.18217 0.81209 0.74179 0.0
N778 N 0.17183 0.80939 0.71097 0.0
N779 N 0.16267 0.87709 0.75055 0.0
C780 C 0.14622 0.89946 0.728 0.0
C781 C 0.15105 0.86288 0.70665 0.0
C782 C 0.86026 0.40541 0.95628 0.0
C783 C 0.84239 0.38133 0.93335 0.0
C784 C 0.82471 0.40461 0.97751 0.0
C785 C 0.77079 0.37816 0.97684 0.0
H786 H 0.90097 0.42741 0.95752 0.0
H787 H 0.83901 0.42612 0.99449 0.0
S788 S 0.7074 0.30204 0.92227 0.0
N789 N 0.76935 0.32624 0.91158 0.0
N790 N 0.70308 0.32275 0.95206 0.0
C791 C 0.75379 0.35057 0.95452 0.0
C792 C 0.78949 0.35276 0.93257 0.0
C793 C 0.40188 0.04829 0.22865 0.0
C794 C 0.35583 0.01086 0.23284 0.0
C795 C 0.40532 0.08069 0.20624 0.0
C796 C 0.36311 0.07628 0.18723 0.0
H797 H 0.4336 0.05488 0.24327 0.0
H798 H 0.44023 0.1108 0.20422 0.0
S799 S 0.23813 0.9778 0.1882 0.0
N800 N 0.27042 0.96699 0.21547 0.0
N801 N 0.27687 0.02651 0.17352 0.0
C802 C 0.31896 0.03598 0.19074 0.0
C803 C 0.31534 0.0037 0.21351 0.0
C804 C 0.31041 0.44136 0.55922 0.0
C805 C 0.32802 0.38942 0.57012 0.0
C806 C 0.2837 0.44292 0.53562 0.0
C807 C 0.27259 0.39259 0.52186 0.0
H808 H 0.31843 0.4816 0.56872 0.0
H809 H 0.27163 0.48437 0.52816 0.0
S810 S 0.30875 0.24486 0.54223 0.0
N811 N 0.33189 0.28581 0.56549 0.0
N812 N 0.2806 0.28877 0.52115 0.0
C813 C 0.28913 0.34001 0.53264 0.0
C814 C 0.31715 0.33845 0.5567 0.0
C815 C 0.80234 0.04285 0.3166 0.0
C816 C 0.84234 0.08657 0.32119 0.0
C817 C 0.80674 0.00742 0.29536 0.0
C818 C 0.85163 0.0135 0.27785 0.0
H819 H 0.76637 0.03657 0.3292 0.0
H820 H 0.77378 0.97555 0.29236 0.0
S821 S 0.96865 0.1202 0.28097 0.0
N822 N 0.92961 0.13307 0.30635 0.0
N823 N 0.93758 0.06585 0.26654 0.0
C824 C 0.89312 0.05564 0.28246 0.0
C825 C 0.88849 0.09232 0.30406 0.0
C826 C 0.1888 0.61409 0.06658 0.0
C827 C 0.13049 0.60322 0.06189 0.0
C828 C 0.22856 0.61682 0.04676 0.0
C829 C 0.21122 0.60894 0.02167 0.0
H830 H 0.20409 0.61859 0.08578 0.0
H831 H 0.2735 0.62241 0.05118 0.0
S832 S 0.06396 0.57924 -0.0007 0.0
N833 N 0.05739 0.58558 0.03022 0.0
N834 N 0.13238 0.59023 0.99302 0.0
C835 C 0.15288 0.60023 0.0166 0.0
C836 C 0.11233 0.59767 0.03674 0.0
C837 C 0.62938 0.8654 0.7915 0.0
C838 C 0.62531 0.88706 0.81621 0.0
C839 C 0.62708 0.90196 0.77057 0.0
C840 C 0.61903 0.9611 0.77357 0.0
H841 H 0.63811 0.82044 0.78831 0.0
H842 H 0.63474 0.88425 0.75197 0.0
S843 S 0.59562 0.03802 0.83368 0.0
N844 N 0.60585 0.97071 0.84222 0.0
N845 N 0.60034 0.03911 0.80256 0.0
C846 C 0.61006 0.98279 0.79788 0.0
C847 C 0.61346 0.94577 0.81931 0.0
loop_
_geom_bond_atom_site_label_1
_geom_bond_atom_site_label_2
_geom_bond_distance
_geom_bond_site_symmetry_2
_ccdc_geom_bond_type
Zn0 O6 1.969 . S
Zn0 O7 1.965 . S
Zn0 O11 2.024 . S
Zn0 O16 1.969 . S
Zn1 O8 1.969 . S
Zn1 O14 1.969 . S
Zn1 O15 1.965 . S
Zn1 O17 2.024 . S
C2 O3 1.229 . S
C2 O11 1.058 . S
O3 C2 1.229 . S
C4 O5 1.229 . S
C4 O17 1.058 . S
O5 C4 1.229 . S
O6 Zn0 1.969 . S
O6 C9 1.267 . S
O7 Zn0 1.965 . S
O7 C18 1.260 . S
O8 Zn1 1.969 . S
O8 C18 1.258 . S
C9 O6 1.267 . S
C9 O10 1.228 . S
O10 C9 1.228 . S
O11 Zn0 2.024 . S
O11 C2 1.058 . S
C12 O13 1.228 . S
C12 O14 1.267 . S
O13 C12 1.228 . S
O14 Zn1 1.969 . S
O14 C12 1.267 . S
O15 Zn1 1.965 . S
O15 C19 1.260 . S
O16 Zn0 1.969 . S
O16 C19 1.258 . S
O17 Zn1 2.024 . S
O17 C4 1.058 . S
C18 O7 1.260 . S
C18 O8 1.258 . S
C19 O15 1.260 . S
C19 O16 1.258 . S
Zn20 O26 1.969 . S
Zn20 O27 1.965 . S
Zn20 O31 2.024 . S
Zn20 O36 1.969 . S
Zn21 O28 1.969 . S
Zn21 O34 1.969 . S
Zn21 O35 1.965 . S
Zn21 O37 2.024 . S
C22 O23 1.229 . S
C22 O31 1.058 . S
O23 C22 1.229 . S
C24 O25 1.229 . S
C24 O37 1.058 . S
O25 C24 1.229 . S
O26 Zn20 1.969 . S
O26 C29 1.267 . S
O27 Zn20 1.965 . S
O27 C38 1.260 . S
O28 Zn21 1.969 . S
O28 C38 1.258 . S
C29 O26 1.267 . S
C29 O30 1.228 . S
O30 C29 1.228 . S
O31 Zn20 2.024 . S
O31 C22 1.058 . S
C32 O33 1.228 . S
C32 O34 1.267 . S
O33 C32 1.228 . S
O34 Zn21 1.969 . S
O34 C32 1.267 . S
O35 Zn21 1.965 . S
O35 C39 1.260 . S
O36 Zn20 1.969 . S
O36 C39 1.258 . S
O37 Zn21 2.024 . S
O37 C24 1.058 . S
C38 O27 1.260 . S
C38 O28 1.258 . S
C39 O35 1.260 . S
C39 O36 1.258 . S
Zn40 O46 1.969 . S
Zn40 O47 1.965 . S
Zn40 O51 2.024 . S
Zn40 O56 1.969 . S
Zn41 O48 1.969 . S
Zn41 O54 1.969 . S
Zn41 O55 1.965 . S
Zn41 O57 2.024 . S
C42 O43 1.229 . S
C42 O51 1.058 . S
O43 C42 1.229 . S
C44 O45 1.229 . S
C44 O57 1.058 . S
O45 C44 1.229 . S
O46 Zn40 1.969 . S
O46 C49 1.267 . S
O47 Zn40 1.965 . S
O47 C58 1.260 . S
O48 Zn41 1.969 . S
O48 C58 1.258 . S
C49 O46 1.267 . S
C49 O50 1.228 . S
O50 C49 1.228 . S
O51 Zn40 2.024 . S
O51 C42 1.058 . S
C52 O53 1.228 . S
C52 O54 1.267 . S
O53 C52 1.228 . S
O54 Zn41 1.969 . S
O54 C52 1.267 . S
O55 Zn41 1.965 . S
O55 C59 1.260 . S
O56 Zn40 1.969 . S
O56 C59 1.258 . S
O57 Zn41 2.024 . S
O57 C44 1.058 . S
C58 O47 1.260 . S
C58 O48 1.258 . S
C59 O55 1.260 . S
C59 O56 1.258 . S
Zn60 O66 1.969 . S
Zn60 O67 1.965 . S
Zn60 O71 2.024 . S
Zn60 O76 1.969 . S
Zn61 O68 1.969 . S
Zn61 O74 1.969 1_655 S
Zn61 O75 1.965 . S
Zn61 O77 2.024 . S
C62 O63 1.229 . S
C62 O71 1.058 . S
O63 C62 1.229 . S
C64 O65 1.229 . S
C64 O77 1.058 . S
O65 C64 1.229 . S
O66 Zn60 1.969 . S
O66 C69 1.267 . S
O67 Zn60 1.965 . S
O67 C78 1.260 . S
O68 Zn61 1.969 . S
O68 C78 1.258 . S
C69 O66 1.267 . S
C69 O70 1.228 . S
O70 C69 1.228 . S
O71 Zn60 2.024 . S
O71 C62 1.058 . S
C72 O73 1.228 1_455 S
C72 O74 1.267 . S
O73 C72 1.228 1_655 S
O74 Zn61 1.969 1_455 S
O74 C72 1.267 . S
O75 Zn61 1.965 . S
O75 C79 1.260 . S
O76 Zn60 1.969 . S
O76 C79 1.258 . S
O77 Zn61 2.024 . S
O77 C64 1.058 . S
C78 O67 1.260 . S
C78 O68 1.258 . S
C79 O75 1.260 . S
C79 O76 1.258 . S
Zn80 O86 1.969 . S
Zn80 O87 1.965 . S
Zn80 O91 2.024 . S
Zn80 O96 1.969 . S
Zn81 O88 1.969 . S
Zn81 O94 1.969 . S
Zn81 O95 1.965 . S
Zn81 O97 2.024 . S
C82 O83 1.229 . S
C82 O91 1.058 . S
O83 C82 1.229 . S
C84 O85 1.229 . S
C84 O97 1.058 . S
O85 C84 1.229 . S
O86 Zn80 1.969 . S
O86 C89 1.267 . S
O87 Zn80 1.965 . S
O87 C98 1.260 . S
O88 Zn81 1.969 . S
O88 C98 1.258 . S
C89 O86 1.267 . S
C89 O90 1.228 . S
O90 C89 1.228 . S
O91 Zn80 2.024 . S
O91 C82 1.058 . S
C92 O93 1.228 . S
C92 O94 1.267 . S
O93 C92 1.228 . S
O94 Zn81 1.969 . S
O94 C92 1.267 . S
O95 Zn81 1.965 . S
O95 C99 1.260 . S
O96 Zn80 1.969 . S
O96 C99 1.258 . S
O97 Zn81 2.024 . S
O97 C84 1.058 . S
C98 O87 1.260 . S
C98 O88 1.258 . S
C99 O95 1.260 . S
C99 O96 1.258 . S
Zn100 O106 1.969 . S
Zn100 O107 1.965 . S
Zn100 O111 2.024 . S
Zn100 O116 1.969 . S
Zn101 O108 1.969 . S
Zn101 O114 1.969 . S
Zn101 O115 1.965 . S
Zn101 O117 2.024 . S
C102 O103 1.229 . S
C102 O111 1.058 . S
O103 C102 1.229 . S
C104 O105 1.229 . S
C104 O117 1.058 . S
O105 C104 1.229 . S
O106 Zn100 1.969 . S
O106 C109 1.267 . S
O107 Zn100 1.965 . S
O107 C118 1.260 . S
O108 Zn101 1.969 . S
O108 C118 1.258 . S
C109 O106 1.267 . S
C109 O110 1.228 . S
O110 C109 1.228 . S
O111 Zn100 2.024 . S
O111 C102 1.058 . S
C112 O113 1.228 . S
C112 O114 1.267 . S
O113 C112 1.228 . S
O114 Zn101 1.969 . S
O114 C112 1.267 . S
O115 Zn101 1.965 . S
O115 C119 1.260 . S
O116 Zn100 1.969 . S
O116 C119 1.258 . S
O117 Zn101 2.024 . S
O117 C104 1.058 . S
C118 O107 1.260 . S
C118 O108 1.258 . S
C119 O115 1.260 . S
C119 O116 1.258 . S
Zn120 O126 1.969 . S
Zn120 O127 1.965 . S
Zn120 O131 2.024 . S
Zn120 O136 1.969 . S
Zn121 O128 1.969 . S
Zn121 O134 1.969 . S
Zn121 O135 1.965 . S
Zn121 O137 2.024 . S
C122 O123 1.229 . S
C122 O131 1.058 . S
O123 C122 1.229 . S
C124 O125 1.229 . S
C124 O137 1.058 . S
O125 C124 1.229 . S
O126 Zn120 1.969 . S
O126 C129 1.267 . S
O127 Zn120 1.965 . S
O127 C138 1.260 . S
O128 Zn121 1.969 . S
O128 C138 1.258 . S
C129 O126 1.267 . S
C129 O130 1.228 . S
O130 C129 1.228 . S
O131 Zn120 2.024 . S
O131 C122 1.058 . S
C132 O133 1.228 . S
C132 O134 1.267 . S
O133 C132 1.228 . S
O134 Zn121 1.969 . S
O134 C132 1.267 . S
O135 Zn121 1.965 . S
O135 C139 1.260 . S
O136 Zn120 1.969 . S
O136 C139 1.258 . S
O137 Zn121 2.024 . S
O137 C124 1.058 . S
C138 O127 1.260 . S
C138 O128 1.258 . S
C139 O135 1.260 . S
C139 O136 1.258 . S
Zn140 O146 1.969 1_455 S
Zn140 O147 1.965 . S
Zn140 O151 2.024 . S
Zn140 O156 1.969 . S
Zn141 O148 1.969 . S
Zn141 O154 1.969 . S
Zn141 O155 1.965 . S
Zn141 O157 2.024 . S
C142 O143 1.229 . S
C142 O151 1.058 . S
O143 C142 1.229 . S
C144 O145 1.229 . S
C144 O157 1.058 . S
O145 C144 1.229 . S
O146 Zn140 1.969 1_655 S
O146 C149 1.267 . S
O147 Zn140 1.965 . S
O147 C158 1.260 . S
O148 Zn141 1.969 . S
O148 C158 1.258 . S
C149 O146 1.267 . S
C149 O150 1.228 1_655 S
O150 C149 1.228 1_455 S
O151 Zn140 2.024 . S
O151 C142 1.058 . S
C152 O153 1.228 . S
C152 O154 1.267 . S
O153 C152 1.228 . S
O154 Zn141 1.969 . S
O154 C152 1.267 . S
O155 Zn141 1.965 . S
O155 C159 1.260 . S
O156 Zn140 1.969 . S
O156 C159 1.258 . S
O157 Zn141 2.024 . S
O157 C144 1.058 . S
C158 O147 1.260 . S
C158 O148 1.258 . S
C159 O155 1.260 . S
C159 O156 1.258 . S
Zn160 O166 1.969 . S
Zn160 O167 1.965 . S
Zn160 O171 2.024 . S
Zn160 O176 1.969 . S
Zn161 O168 1.969 . S
Zn161 O174 1.969 . S
Zn161 O175 1.965 . S
Zn161 O177 2.024 . S
C162 O163 1.229 . S
C162 O171 1.058 . S
O163 C162 1.229 . S
C164 O165 1.229 . S
C164 O177 1.058 . S
O165 C164 1.229 . S
O166 Zn160 1.969 . S
O166 C169 1.267 . S
O167 Zn160 1.965 . S
O167 C178 1.260 . S
O168 Zn161 1.969 . S
O168 C178 1.258 . S
C169 O166 1.267 . S
C169 O170 1.228 . S
O170 C169 1.228 . S
O171 Zn160 2.024 . S
O171 C162 1.058 . S
C172 O173 1.228 . S
C172 O174 1.267 . S
O173 C172 1.228 . S
O174 Zn161 1.969 . S
O174 C172 1.267 . S
O175 Zn161 1.965 . S
O175 C179 1.260 . S
O176 Zn160 1.969 . S
O176 C179 1.258 . S
O177 Zn161 2.024 . S
O177 C164 1.058 . S
C178 O167 1.260 . S
C178 O168 1.258 . S
C179 O175 1.260 . S
C179 O176 1.258 . S
Zn180 O186 1.969 . S
Zn180 O187 1.965 . S
Zn180 O191 2.024 . S
Zn180 O196 1.969 . S
Zn181 O188 1.969 . S
Zn181 O194 1.969 1_455 S
Zn181 O195 1.965 1_545 S
Zn181 O197 2.024 . S
C182 O183 1.229 . S
C182 O191 1.058 . S
O183 C182 1.229 . S
C184 O185 1.229 . S
C184 O197 1.058 . S
O185 C184 1.229 . S
O186 Zn180 1.969 . S
O186 C189 1.267 . S
O187 Zn180 1.965 . S
O187 C198 1.260 . S
O188 Zn181 1.969 . S
O188 C198 1.258 . S
C189 O186 1.267 . S
C189 O190 1.228 . S
O190 C189 1.228 . S
O191 Zn180 2.024 . S
O191 C182 1.058 . S
C192 O193 1.228 1_655 S
C192 O194 1.267 1_565 S
O193 C192 1.228 1_455 S
O194 Zn181 1.969 1_655 S
O194 C192 1.267 1_545 S
O195 Zn181 1.965 1_565 S
O195 C199 1.260 . S
O196 Zn180 1.969 . S
O196 C199 1.258 1_545 S
O197 Zn181 2.024 . S
O197 C184 1.058 . S
C198 O187 1.260 . S
C198 O188 1.258 . S
C199 O195 1.260 . S
C199 O196 1.258 1_565 S
Zn200 O206 1.969 . S
Zn200 O207 1.965 . S
Zn200 O211 2.024 . S
Zn200 O216 1.969 . S
Zn201 O208 1.969 . S
Zn201 O214 1.969 . S
Zn201 O215 1.965 . S
Zn201 O217 2.024 . S
C202 O203 1.229 . S
C202 O211 1.058 . S
O203 C202 1.229 . S
C204 O205 1.229 . S
C204 O217 1.058 . S
O205 C204 1.229 . S
O206 Zn200 1.969 . S
O206 C209 1.267 . S
O207 Zn200 1.965 . S
O207 C218 1.260 . S
O208 Zn201 1.969 . S
O208 C218 1.258 . S
C209 O206 1.267 . S
C209 O210 1.228 . S
O210 C209 1.228 . S
O211 Zn200 2.024 . S
O211 C202 1.058 . S
C212 O213 1.228 . S
C212 O214 1.267 . S
O213 C212 1.228 . S
O214 Zn201 1.969 . S
O214 C212 1.267 . S
O215 Zn201 1.965 . S
O215 C219 1.260 . S
O216 Zn200 1.969 . S
O216 C219 1.258 . S
O217 Zn201 2.024 . S
O217 C204 1.058 . S
C218 O207 1.260 . S
C218 O208 1.258 . S
C219 O215 1.260 . S
C219 O216 1.258 . S
Zn220 O226 1.969 . S
Zn220 O227 1.965 . S
Zn220 O231 2.024 . S
Zn220 O236 1.969 . S
Zn221 O228 1.969 . S
Zn221 O234 1.969 . S
Zn221 O235 1.965 1_565 S
Zn221 O237 2.024 . S
C222 O223 1.229 . S
C222 O231 1.058 . S
O223 C222 1.229 . S
C224 O225 1.229 . S
C224 O237 1.058 . S
O225 C224 1.229 . S
O226 Zn220 1.969 . S
O226 C229 1.267 . S
O227 Zn220 1.965 . S
O227 C238 1.260 . S
O228 Zn221 1.969 . S
O228 C238 1.258 . S
C229 O226 1.267 . S
C229 O230 1.228 . S
O230 C229 1.228 . S
O231 Zn220 2.024 . S
O231 C222 1.058 . S
C232 O233 1.228 . S
C232 O234 1.267 1_545 S
O233 C232 1.228 . S
O234 Zn221 1.969 . S
O234 C232 1.267 1_565 S
O235 Zn221 1.965 1_545 S
O235 C239 1.260 . S
O236 Zn220 1.969 . S
O236 C239 1.258 1_565 S
O237 Zn221 2.024 . S
O237 C224 1.058 . S
C238 O227 1.260 . S
C238 O228 1.258 . S
C239 O235 1.260 . S
C239 O236 1.258 1_545 S
Zn240 O246 1.969 . S
Zn240 O247 1.965 . S
Zn240 O251 2.024 . S
Zn240 O256 1.969 . S
Zn241 O248 1.969 . S
Zn241 O254 1.969 . S
Zn241 O255 1.965 . S
Zn241 O257 2.024 . S
C242 O243 1.229 . S
C242 O251 1.058 . S
O243 C242 1.229 . S
C244 O245 1.229 . S
C244 O257 1.058 . S
O245 C244 1.229 . S
O246 Zn240 1.969 . S
O246 C249 1.267 . S
O247 Zn240 1.965 . S
O247 C258 1.260 . S
O248 Zn241 1.969 . S
O248 C258 1.258 . S
C249 O246 1.267 . S
C249 O250 1.228 . S
O250 C249 1.228 . S
O251 Zn240 2.024 . S
O251 C242 1.058 . S
C252 O253 1.228 . S
C252 O254 1.267 . S
O253 C252 1.228 . S
O254 Zn241 1.969 . S
O254 C252 1.267 . S
O255 Zn241 1.965 . S
O255 C259 1.260 . S
O256 Zn240 1.969 . S
O256 C259 1.258 . S
O257 Zn241 2.024 . S
O257 C244 1.058 . S
C258 O247 1.260 . S
C258 O248 1.258 . S
C259 O255 1.260 . S
C259 O256 1.258 . S
Zn260 O266 1.969 1_655 S
Zn260 O267 1.965 1_565 S
Zn260 O271 2.024 . S
Zn260 O276 1.969 . S
Zn261 O268 1.969 . S
Zn261 O274 1.969 . S
Zn261 O275 1.965 . S
Zn261 O277 2.024 . S
C262 O263 1.229 . S
C262 O271 1.058 . S
O263 C262 1.229 . S
C264 O265 1.229 . S
C264 O277 1.058 . S
O265 C264 1.229 . S
O266 Zn260 1.969 1_455 S
O266 C269 1.267 1_565 S
O267 Zn260 1.965 1_545 S
O267 C278 1.260 . S
O268 Zn261 1.969 . S
O268 C278 1.258 1_565 S
C269 O266 1.267 1_545 S
C269 O270 1.228 1_455 S
O270 C269 1.228 1_655 S
O271 Zn260 2.024 . S
O271 C262 1.058 . S
C272 O273 1.228 . S
C272 O274 1.267 . S
O273 C272 1.228 . S
O274 Zn261 1.969 . S
O274 C272 1.267 . S
O275 Zn261 1.965 . S
O275 C279 1.260 . S
O276 Zn260 1.969 . S
O276 C279 1.258 . S
O277 Zn261 2.024 . S
O277 C264 1.058 . S
C278 O267 1.260 . S
C278 O268 1.258 1_545 S
C279 O275 1.260 . S
C279 O276 1.258 . S
Zn280 O286 1.969 . S
Zn280 O287 1.965 . S
Zn280 O291 2.024 . S
Zn280 O296 1.969 . S
Zn281 O288 1.969 . S
Zn281 O294 1.969 . S
Zn281 O295 1.965 . S
Zn281 O297 2.024 . S
C282 O283 1.229 . S
C282 O291 1.058 . S
O283 C282 1.229 . S
C284 O285 1.229 . S
C284 O297 1.058 . S
O285 C284 1.229 . S
O286 Zn280 1.969 . S
O286 C289 1.267 . S
O287 Zn280 1.965 . S
O287 C298 1.260 . S
O288 Zn281 1.969 . S
O288 C298 1.258 . S
C289 O286 1.267 . S
C289 O290 1.228 . S
O290 C289 1.228 . S
O291 Zn280 2.024 . S
O291 C282 1.058 . S
C292 O293 1.228 . S
C292 O294 1.267 . S
O293 C292 1.228 . S
O294 Zn281 1.969 . S
O294 C292 1.267 . S
O295 Zn281 1.965 . S
O295 C299 1.260 . S
O296 Zn280 1.969 . S
O296 C299 1.258 . S
O297 Zn281 2.024 . S
O297 C284 1.058 . S
C298 O287 1.260 . S
C298 O288 1.258 . S
C299 O295 1.260 . S
C299 O296 1.258 . S
Zn300 O306 1.969 . S
Zn300 O307 1.965 1_545 S
Zn300 O311 2.024 . S
Zn300 O316 1.969 . S
Zn301 O308 1.969 . S
Zn301 O314 1.969 . S
Zn301 O315 1.965 . S
Zn301 O317 2.024 . S
C302 O303 1.229 . S
C302 O311 1.058 . S
O303 C302 1.229 . S
C304 O305 1.229 . S
C304 O317 1.058 . S
O305 C304 1.229 . S
O306 Zn300 1.969 . S
O306 C309 1.267 1_545 S
O307 Zn300 1.965 1_565 S
O307 C318 1.260 . S
O308 Zn301 1.969 . S
O308 C318 1.258 1_545 S
C309 O306 1.267 1_565 S
C309 O310 1.228 . S
O310 C309 1.228 . S
O311 Zn300 2.024 . S
O311 C302 1.058 . S
C312 O313 1.228 . S
C312 O314 1.267 . S
O313 C312 1.228 . S
O314 Zn301 1.969 . S
O314 C312 1.267 . S
O315 Zn301 1.965 . S
O315 C319 1.260 . S
O316 Zn300 1.969 . S
O316 C319 1.258 . S
O317 Zn301 2.024 . S
O317 C304 1.058 . S
C318 O307 1.260 . S
C318 O308 1.258 1_565 S
C319 O315 1.260 . S
C319 O316 1.258 . S
C320 C321 1.369 . S
C320 C322 1.419 . S
C320 H324 0.930 . S
C321 C320 1.369 . S
C321 C330 1.429 . S
C322 C320 1.419 . S
C322 C323 1.363 . S
C322 H325 0.929 . S
C323 C322 1.363 . S
C323 C329 1.428 . S
H324 C320 0.930 . S
H325 C322 0.929 . S
S326 N327 1.613 . S
S326 N328 1.610 . S
N327 S326 1.613 . S
N327 C330 1.350 . S
N328 S326 1.610 . S
N328 C329 1.351 . S
C329 C323 1.428 . S
C329 N328 1.351 . S
C329 C330 1.434 . S
C330 C321 1.429 . S
C330 N327 1.350 . S
C330 C329 1.434 . S
C331 C332 1.369 . S
C331 C333 1.419 . S
C331 H335 0.930 . S
C332 C331 1.369 . S
C332 C341 1.429 . S
C333 C331 1.419 . S
C333 C334 1.363 . S
C333 H336 0.929 . S
C334 C333 1.363 . S
C334 C340 1.428 . S
H335 C331 0.930 . S
H336 C333 0.929 . S
S337 N338 1.613 . S
S337 N339 1.610 . S
N338 S337 1.613 . S
N338 C341 1.350 . S
N339 S337 1.610 . S
N339 C340 1.351 . S
C340 C334 1.428 . S
C340 N339 1.351 . S
C340 C341 1.434 . S
C341 C332 1.429 . S
C341 N338 1.350 . S
C341 C340 1.434 . S
C342 C343 1.369 . S
C342 C344 1.419 1_455 S
C342 H346 0.930 . S
C343 C342 1.369 . S
C343 C352 1.429 . S
C344 C342 1.419 1_655 S
C344 C345 1.363 . S
C344 H347 0.929 . S
C345 C344 1.363 . S
C345 C351 1.428 . S
H346 C342 0.930 . S
H347 C344 0.929 . S
S348 N349 1.613 1_655 S
S348 N350 1.610 . S
N349 S348 1.613 1_455 S
N349 C352 1.350 . S
N350 S348 1.610 . S
N350 C351 1.351 . S
C351 C345 1.428 . S
C351 N350 1.351 . S
C351 C352 1.434 1_655 S
C352 C343 1.429 . S
C352 N349 1.350 . S
C352 C351 1.434 1_455 S
C353 C354 1.369 1_655 S
C353 C355 1.419 . S
C353 H357 0.930 . S
C354 C353 1.369 1_455 S
C354 C363 1.429 . S
C355 C353 1.419 . S
C355 C356 1.363 . S
C355 H358 0.929 . S
C356 C355 1.363 . S
C356 C362 1.428 1_655 S
H357 C353 0.930 . S
H358 C355 0.929 . S
S359 N360 1.613 . S
S359 N361 1.610 . S
N360 S359 1.613 . S
N360 C363 1.350 . S
N361 S359 1.610 . S
N361 C362 1.351 . S
C362 C356 1.428 1_455 S
C362 N361 1.351 . S
C362 C363 1.434 . S
C363 C354 1.429 . S
C363 N360 1.350 . S
C363 C362 1.434 . S
C364 C365 1.369 . S
C364 C366 1.419 . S
C364 H368 0.930 . S
C365 C364 1.369 . S
C365 C374 1.429 . S
C366 C364 1.419 . S
C366 C367 1.363 . S
C366 H369 0.929 . S
C367 C366 1.363 . S
C367 C373 1.428 . S
H368 C364 0.930 . S
H369 C366 0.929 . S
S370 N371 1.613 . S
S370 N372 1.610 . S
N371 S370 1.613 . S
N371 C374 1.350 . S
N372 S370 1.610 . S
N372 C373 1.351 . S
C373 C367 1.428 . S
C373 N372 1.351 . S
C373 C374 1.434 . S
C374 C365 1.429 . S
C374 N371 1.350 . S
C374 C373 1.434 . S
C375 C376 1.369 . S
C375 C377 1.419 . S
C375 H379 0.930 . S
C376 C375 1.369 . S
C376 C385 1.429 . S
C377 C375 1.419 . S
C377 C378 1.363 . S
C377 H380 0.929 . S
C378 C377 1.363 . S
C378 C384 1.428 . S
H379 C375 0.930 . S
H380 C377 0.929 . S
S381 N382 1.613 . S
S381 N383 1.610 . S
N382 S381 1.613 . S
N382 C385 1.350 . S
N383 S381 1.610 . S
N383 C384 1.351 . S
C384 C378 1.428 . S
C384 N383 1.351 . S
C384 C385 1.434 . S
C385 C376 1.429 . S
C385 N382 1.350 . S
C385 C384 1.434 . S
C386 C387 1.369 . S
C386 C388 1.419 1_455 S
C386 H390 0.930 . S
C387 C386 1.369 . S
C387 C396 1.429 . S
C388 C386 1.419 1_655 S
C388 C389 1.363 . S
C388 H391 0.929 . S
C389 C388 1.363 . S
C389 C395 1.428 . S
H390 C386 0.930 . S
H391 C388 0.929 . S
S392 N393 1.613 . S
S392 N394 1.610 1_455 S
N393 S392 1.613 . S
N393 C396 1.350 . S
N394 S392 1.610 1_655 S
N394 C395 1.351 . S
C395 C389 1.428 . S
C395 N394 1.351 . S
C395 C396 1.434 1_655 S
C396 C387 1.429 . S
C396 N393 1.350 . S
C396 C395 1.434 1_455 S
C397 C398 1.369 1_655 S
C397 C399 1.419 . S
C397 H401 0.930 . S
C398 C397 1.369 1_455 S
C398 C407 1.429 . S
C399 C397 1.419 . S
C399 C400 1.363 . S
C399 H402 0.929 . S
C400 C399 1.363 . S
C400 C406 1.428 1_655 S
H401 C397 0.930 . S
H402 C399 0.929 . S
S403 N404 1.613 . S
S403 N405 1.610 . S
N404 S403 1.613 . S
N404 C407 1.350 . S
N405 S403 1.610 . S
N405 C406 1.351 . S
C406 C400 1.428 1_455 S
C406 N405 1.351 . S
C406 C407 1.434 . S
C407 C398 1.429 . S
C407 N404 1.350 . S
C407 C406 1.434 . S
C408 C409 1.369 1_565 S
C408 C410 1.419 . S
C408 H412 0.930 . S
C409 C408 1.369 1_545 S
C409 C418 1.429 1_554 S
C410 C408 1.419 . S
C410 C411 1.363 1_554 S
C410 H413 0.929 . S
C411 C410 1.363 1_556 S
C411 C417 1.428 1_565 S
H412 C408 0.930 . S
H413 C410 0.929 . S
S414 N415 1.613 . S
S414 N416 1.610 . S
N415 S414 1.613 . S
N415 C418 1.350 . S
N416 S414 1.610 . S
N416 C417 1.351 . S
C417 C411 1.428 1_545 S
C417 N416 1.351 . S
C417 C418 1.434 . S
C418 C409 1.429 1_556 S
C418 N415 1.350 . S
C418 C417 1.434 . S
C419 C420 1.369 . S
C419 C421 1.419 . S
C419 H423 0.930 . S
C420 C419 1.369 . S
C420 C429 1.429 . S
C421 C419 1.419 . S
C421 C422 1.363 . S
C421 H424 0.929 . S
C422 C421 1.363 . S
C422 C428 1.428 . S
H423 C419 0.930 . S
H424 C421 0.929 . S
S425 N426 1.613 . S
S425 N427 1.610 . S
N426 S425 1.613 . S
N426 C429 1.350 . S
N427 S425 1.610 . S
N427 C428 1.351 . S
C428 C422 1.428 . S
C428 N427 1.351 . S
C428 C429 1.434 . S
C429 C420 1.429 . S
C429 N426 1.350 . S
C429 C428 1.434 . S
C430 C431 1.369 1_645 S
C430 C432 1.419 . S
C430 H434 0.930 . S
C431 C430 1.369 1_465 S
C431 C440 1.429 . S
C432 C430 1.419 . S
C432 C433 1.363 . S
C432 H435 0.929 . S
C433 C432 1.363 . S
C433 C439 1.428 1_645 S
H434 C430 0.930 . S
H435 C432 0.929 . S
S436 N437 1.613 . S
S436 N438 1.610 . S
N437 S436 1.613 . S
N437 C440 1.350 . S
N438 S436 1.610 . S
N438 C439 1.351 . S
C439 C433 1.428 1_465 S
C439 N438 1.351 . S
C439 C440 1.434 . S
C440 C431 1.429 . S
C440 N437 1.350 . S
C440 C439 1.434 . S
C441 C442 1.369 . S
C441 C443 1.419 . S
C441 H445 0.930 . S
C442 C441 1.369 . S
C442 C451 1.429 . S
C443 C441 1.419 . S
C443 C444 1.363 . S
C443 H446 0.929 . S
C444 C443 1.363 . S
C444 C450 1.428 . S
H445 C441 0.930 . S
H446 C443 0.929 . S
S447 N448 1.613 . S
S447 N449 1.610 . S
N448 S447 1.613 . S
N448 C451 1.350 . S
N449 S447 1.610 . S
N449 C450 1.351 . S
C450 C444 1.428 . S
C450 N449 1.351 . S
C450 C451 1.434 . S
C451 C442 1.429 . S
C451 N448 1.350 . S
C451 C450 1.434 . S
C452 C453 1.369 . S
C452 C454 1.419 . S
C452 H456 0.930 . S
C453 C452 1.369 . S
C453 C462 1.429 . S
C454 C452 1.419 . S
C454 C455 1.363 . S
C454 H457 0.929 . S
C455 C454 1.363 . S
C455 C461 1.428 . S
H456 C452 0.930 . S
H457 C454 0.929 . S
S458 N459 1.613 . S
S458 N460 1.610 . S
N459 S458 1.613 . S
N459 C462 1.350 . S
N460 S458 1.610 . S
N460 C461 1.351 . S
C461 C455 1.428 . S
C461 N460 1.351 . S
C461 C462 1.434 . S
C462 C453 1.429 . S
C462 N459 1.350 . S
C462 C461 1.434 . S
C463 C464 1.369 . S
C463 C465 1.419 . S
C463 H467 0.930 . S
C464 C463 1.369 . S
C464 C473 1.429 . S
C465 C463 1.419 . S
C465 C466 1.363 . S
C465 H468 0.929 . S
C466 C465 1.363 . S
C466 C472 1.428 . S
H467 C463 0.930 . S
H468 C465 0.929 . S
S469 N470 1.613 . S
S469 N471 1.610 . S
N470 S469 1.613 . S
N470 C473 1.350 . S
N471 S469 1.610 . S
N471 C472 1.351 . S
C472 C466 1.428 . S
C472 N471 1.351 . S
C472 C473 1.434 . S
C473 C464 1.429 . S
C473 N470 1.350 . S
C473 C472 1.434 . S
C474 C475 1.369 1_655 S
C474 C476 1.419 . S
C474 H478 0.930 . S
C475 C474 1.369 1_455 S
C475 C484 1.429 . S
C476 C474 1.419 . S
C476 C477 1.363 . S
C476 H479 0.929 . S
C477 C476 1.363 . S
C477 C483 1.428 1_655 S
H478 C474 0.930 . S
H479 C476 0.929 . S
S480 N481 1.613 . S
S480 N482 1.610 . S
N481 S480 1.613 . S
N481 C484 1.350 . S
N482 S480 1.610 . S
N482 C483 1.351 . S
C483 C477 1.428 1_455 S
C483 N482 1.351 . S
C483 C484 1.434 . S
C484 C475 1.429 . S
C484 N481 1.350 . S
C484 C483 1.434 . S
C485 C486 1.369 . S
C485 C487 1.419 . S
C485 H489 0.930 . S
C486 C485 1.369 . S
C486 C495 1.429 1_554 S
C487 C485 1.419 . S
C487 C488 1.363 1_554 S
C487 H490 0.929 . S
C488 C487 1.363 1_556 S
C488 C494 1.428 . S
H489 C485 0.930 . S
H490 C487 0.929 . S
S491 N492 1.613 . S
S491 N493 1.610 . S
N492 S491 1.613 . S
N492 C495 1.350 . S
N493 S491 1.610 . S
N493 C494 1.351 . S
C494 C488 1.428 . S
C494 N493 1.351 . S
C494 C495 1.434 . S
C495 C486 1.429 1_556 S
C495 N492 1.350 . S
C495 C494 1.434 . S
C496 C497 1.369 . S
C496 C498 1.419 . S
C496 H500 0.930 . S
C497 C496 1.369 . S
C497 C506 1.429 . S
C498 C496 1.419 . S
C498 C499 1.363 . S
C498 H501 0.929 . S
C499 C498 1.363 . S
C499 C505 1.428 . S
H500 C496 0.930 . S
H501 C498 0.929 . S
S502 N503 1.613 . S
S502 N504 1.610 . S
N503 S502 1.613 . S
N503 C506 1.350 . S
N504 S502 1.610 . S
N504 C505 1.351 . S
C505 C499 1.428 . S
C505 N504 1.351 . S
C505 C506 1.434 . S
C506 C497 1.429 . S
C506 N503 1.350 . S
C506 C505 1.434 . S
C507 C508 1.369 . S
C507 C509 1.419 . S
C507 H511 0.930 . S
C508 C507 1.369 . S
C508 C517 1.429 . S
C509 C507 1.419 . S
C509 C510 1.363 . S
C509 H512 0.929 . S
C510 C509 1.363 . S
C510 C516 1.428 . S
H511 C507 0.930 . S
H512 C509 0.929 . S
S513 N514 1.613 . S
S513 N515 1.610 . S
N514 S513 1.613 . S
N514 C517 1.350 . S
N515 S513 1.610 . S
N515 C516 1.351 . S
C516 C510 1.428 . S
C516 N515 1.351 . S
C516 C517 1.434 . S
C517 C508 1.429 . S
C517 N514 1.350 . S
C517 C516 1.434 . S
C518 C519 1.369 . S
C518 C520 1.419 . S
C518 H522 0.930 . S
C519 C518 1.369 . S
C519 C528 1.429 . S
C520 C518 1.419 . S
C520 C521 1.363 . S
C520 H523 0.929 . S
C521 C520 1.363 . S
C521 C527 1.428 . S
H522 C518 0.930 . S
H523 C520 0.929 . S
S524 N525 1.613 . S
S524 N526 1.610 . S
N525 S524 1.613 . S
N525 C528 1.350 . S
N526 S524 1.610 . S
N526 C527 1.351 . S
C527 C521 1.428 . S
C527 N526 1.351 . S
C527 C528 1.434 . S
C528 C519 1.429 . S
C528 N525 1.350 . S
C528 C527 1.434 . S
C529 C530 1.369 . S
C529 C531 1.419 . S
C529 H533 0.930 . S
C530 C529 1.369 . S
C530 C539 1.429 . S
C531 C529 1.419 . S
C531 C532 1.363 . S
C531 H534 0.929 . S
C532 C531 1.363 . S
C532 C538 1.428 . S
H533 C529 0.930 . S
H534 C531 0.929 . S
S535 N536 1.613 . S
S535 N537 1.610 . S
N536 S535 1.613 . S
N536 C539 1.350 . S
N537 S535 1.610 . S
N537 C538 1.351 . S
C538 C532 1.428 . S
C538 N537 1.351 . S
C538 C539 1.434 . S
C539 C530 1.429 . S
C539 N536 1.350 . S
C539 C538 1.434 . S
C540 C541 1.369 . S
C540 C542 1.419 . S
C540 H544 0.930 . S
C541 C540 1.369 . S
C541 C550 1.429 . S
C542 C540 1.419 . S
C542 C543 1.363 . S
C542 H545 0.929 . S
C543 C542 1.363 . S
C543 C549 1.428 . S
H544 C540 0.930 . S
H545 C542 0.929 . S
S546 N547 1.613 . S
S546 N548 1.610 . S
N547 S546 1.613 . S
N547 C550 1.350 . S
N548 S546 1.610 . S
N548 C549 1.351 . S
C549 C543 1.428 . S
C549 N548 1.351 . S
C549 C550 1.434 . S
C550 C541 1.429 . S
C550 N547 1.350 . S
C550 C549 1.434 . S
C551 C552 1.369 . S
C551 C553 1.419 . S
C551 H555 0.930 . S
C552 C551 1.369 . S
C552 C561 1.429 . S
C553 C551 1.419 . S
C553 C554 1.363 . S
C553 H556 0.929 . S
C554 C553 1.363 . S
C554 C560 1.428 . S
H555 C551 0.930 . S
H556 C553 0.929 . S
S557 N558 1.613 . S
S557 N559 1.610 . S
N558 S557 1.613 . S
N558 C561 1.350 . S
N559 S557 1.610 . S
N559 C560 1.351 . S
C560 C554 1.428 . S
C560 N559 1.351 . S
C560 C561 1.434 . S
C561 C552 1.429 . S
C561 N558 1.350 . S
C561 C560 1.434 . S
C562 C563 1.369 . S
C562 C564 1.419 . S
C562 H566 0.930 . S
C563 C562 1.369 . S
C563 C572 1.429 . S
C564 C562 1.419 . S
C564 C565 1.363 . S
C564 H567 0.929 . S
C565 C564 1.363 . S
C565 C571 1.428 . S
H566 C562 0.930 . S
H567 C564 0.929 . S
S568 N569 1.613 . S
S568 N570 1.610 . S
N569 S568 1.613 . S
N569 C572 1.350 . S
N570 S568 1.610 . S
N570 C571 1.351 . S
C571 C565 1.428 . S
C571 N570 1.351 . S
C571 C572 1.434 . S
C572 C563 1.429 . S
C572 N569 1.350 . S
C572 C571 1.434 . S
C573 C574 1.369 . S
C573 C575 1.419 . S
C573 H577 0.930 . S
C574 C573 1.369 . S
C574 C583 1.429 . S
C575 C573 1.419 . S
C575 C576 1.363 . S
C575 H578 0.929 . S
C576 C575 1.363 . S
C576 C582 1.428 . S
H577 C573 0.930 . S
H578 C575 0.929 . S
S579 N580 1.613 . S
S579 N581 1.610 . S
N580 S579 1.613 . S
N580 C583 1.350 . S
N581 S579 1.610 . S
N581 C582 1.351 . S
C582 C576 1.428 . S
C582 N581 1.351 . S
C582 C583 1.434 . S
C583 C574 1.429 . S
C583 N580 1.350 . S
C583 C582 1.434 . S
C584 C585 1.369 . S
C584 C586 1.419 . S
C584 H588 0.930 . S
C585 C584 1.369 . S
C585 C594 1.429 . S
C586 C584 1.419 . S
C586 C587 1.363 . S
C586 H589 0.929 . S
C587 C586 1.363 . S
C587 C593 1.428 . S
H588 C584 0.930 . S
H589 C586 0.929 . S
S590 N591 1.613 . S
S590 N592 1.610 . S
N591 S590 1.613 . S
N591 C594 1.350 . S
N592 S590 1.610 . S
N592 C593 1.351 . S
C593 C587 1.428 . S
C593 N592 1.351 . S
C593 C594 1.434 . S
C594 C585 1.429 . S
C594 N591 1.350 . S
C594 C593 1.434 . S
C595 C596 1.369 . S
C595 C597 1.419 . S
C595 H599 0.930 . S
C596 C595 1.369 . S
C596 C605 1.429 . S
C597 C595 1.419 . S
C597 C598 1.363 . S
C597 H600 0.929 . S
C598 C597 1.363 . S
C598 C604 1.428 . S
H599 C595 0.930 . S
H600 C597 0.929 . S
S601 N602 1.613 . S
S601 N603 1.610 . S
N602 S601 1.613 . S
N602 C605 1.350 . S
N603 S601 1.610 . S
N603 C604 1.351 . S
C604 C598 1.428 . S
C604 N603 1.351 . S
C604 C605 1.434 . S
C605 C596 1.429 . S
C605 N602 1.350 . S
C605 C604 1.434 . S
C606 C607 1.369 . S
C606 C608 1.419 . S
C606 H610 0.930 . S
C607 C606 1.369 . S
C607 C616 1.429 . S
C608 C606 1.419 . S
C608 C609 1.363 . S
C608 H611 0.929 . S
C609 C608 1.363 . S
C609 C615 1.428 . S
H610 C606 0.930 . S
H611 C608 0.929 . S
S612 N613 1.613 . S
S612 N614 1.610 . S
N613 S612 1.613 . S
N613 C616 1.350 . S
N614 S612 1.610 . S
N614 C615 1.351 . S
C615 C609 1.428 . S
C615 N614 1.351 . S
C615 C616 1.434 . S
C616 C607 1.429 . S
C616 N613 1.350 . S
C616 C615 1.434 . S
C617 C618 1.369 . S
C617 C619 1.419 . S
C617 H621 0.930 . S
C618 C617 1.369 . S
C618 C627 1.429 . S
C619 C617 1.419 . S
C619 C620 1.363 . S
C619 H622 0.939 . S
C620 C619 1.363 . S
C620 C626 1.428 . S
H621 C617 0.930 . S
H622 C619 0.939 . S
S623 N624 1.613 . S
S623 N625 1.610 . S
N624 S623 1.613 . S
N624 C627 1.350 . S
N625 S623 1.610 . S
N625 C626 1.351 . S
C626 C620 1.428 . S
C626 N625 1.351 . S
C626 C627 1.434 . S
C627 C618 1.429 . S
C627 N624 1.350 . S
C627 C626 1.434 . S
C628 C629 1.369 . S
C628 C630 1.419 . S
C628 H632 0.930 . S
C629 C628 1.369 . S
C629 C638 1.429 . S
C630 C628 1.419 . S
C630 C631 1.363 . S
C630 H633 0.929 . S
C631 C630 1.363 . S
C631 C637 1.428 . S
H632 C628 0.930 . S
H633 C630 0.929 . S
S634 N635 1.613 . S
S634 N636 1.610 . S
N635 S634 1.613 . S
N635 C638 1.350 . S
N636 S634 1.610 . S
N636 C637 1.351 . S
C637 C631 1.428 . S
C637 N636 1.351 . S
C637 C638 1.434 . S
C638 C629 1.429 . S
C638 N635 1.350 . S
C638 C637 1.434 . S
C639 C640 1.369 . S
C639 C641 1.419 . S
C639 H643 0.930 1_545 S
C640 C639 1.369 . S
C640 C649 1.429 . S
C641 C639 1.419 . S
C641 C642 1.363 . S
C641 H644 0.929 . S
C642 C641 1.363 . S
C642 C648 1.428 . S
H643 C639 0.930 1_565 S
H644 C641 0.929 . S
S645 N646 1.613 . S
S645 N647 1.610 . S
N646 S645 1.613 . S
N646 C649 1.350 . S
N647 S645 1.610 . S
N647 C648 1.351 . S
C648 C642 1.428 . S
C648 N647 1.351 . S
C648 C649 1.434 . S
C649 C640 1.429 . S
C649 N646 1.350 . S
C649 C648 1.434 . S
C650 C651 1.369 . S
C650 C652 1.419 . S
C650 H654 0.930 . S
C651 C650 1.369 . S
C651 C660 1.429 . S
C652 C650 1.419 . S
C652 C653 1.363 . S
C652 H655 0.929 . S
C653 C652 1.363 . S
C653 C659 1.428 . S
H654 C650 0.930 . S
H655 C652 0.929 . S
S656 N657 1.613 . S
S656 N658 1.610 . S
N657 S656 1.613 . S
N657 C660 1.350 . S
N658 S656 1.610 . S
N658 C659 1.351 . S
C659 C653 1.428 . S
C659 N658 1.351 . S
C659 C660 1.434 . S
C660 C651 1.429 . S
C660 N657 1.350 . S
C660 C659 1.434 . S
C661 C662 1.369 . S
C661 C663 1.419 . S
C661 H665 0.930 . S
C662 C661 1.369 . S
C662 C671 1.429 . S
C663 C661 1.419 . S
C663 C664 1.363 . S
C663 H666 0.929 . S
C664 C663 1.363 . S
C664 C670 1.428 . S
H665 C661 0.930 . S
H666 C663 0.929 . S
S667 N668 1.613 . S
S667 N669 1.610 1_545 S
N668 S667 1.613 . S
N668 C671 1.350 1_545 S
N669 S667 1.610 1_565 S
N669 C670 1.351 . S
C670 C664 1.428 . S
C670 N669 1.351 . S
C670 C671 1.434 . S
C671 C662 1.429 . S
C671 N668 1.350 1_565 S
C671 C670 1.434 . S
C672 C673 1.369 . S
C672 C674 1.419 . S
C672 H676 0.930 . S
C673 C672 1.369 . S
C673 C682 1.429 . S
C674 C672 1.419 . S
C674 C675 1.363 . S
C674 H677 0.929 . S
C675 C674 1.363 . S
C675 C681 1.428 . S
H676 C672 0.930 . S
H677 C674 0.929 . S
S678 N679 1.613 1_565 S
S678 N680 1.610 1_565 S
N679 S678 1.613 1_545 S
N679 C682 1.350 . S
N680 S678 1.610 1_545 S
N680 C681 1.351 . S
C681 C675 1.428 . S
C681 N680 1.351 . S
C681 C682 1.434 . S
C682 C673 1.429 . S
C682 N679 1.350 . S
C682 C681 1.434 . S
C683 C684 1.369 . S
C683 C685 1.419 . S
C683 H687 0.930 . S
C684 C683 1.369 . S
C684 C693 1.429 . S
C685 C683 1.419 . S
C685 C686 1.363 . S
C685 H688 0.929 . S
C686 C685 1.363 . S
C686 C692 1.428 . S
H687 C683 0.930 . S
H688 C685 0.929 . S
S689 N690 1.613 . S
S689 N691 1.610 . S
N690 S689 1.613 . S
N690 C693 1.350 . S
N691 S689 1.610 . S
N691 C692 1.351 . S
C692 C686 1.428 . S
C692 N691 1.351 . S
C692 C693 1.434 . S
C693 C684 1.429 . S
C693 N690 1.350 . S
C693 C692 1.434 . S
C694 C695 1.369 . S
C694 C696 1.419 . S
C694 H698 0.930 . S
C695 C694 1.369 . S
C695 C704 1.429 . S
C696 C694 1.419 . S
C696 C697 1.363 . S
C696 H699 0.929 . S
C697 C696 1.363 . S
C697 C703 1.428 . S
H698 C694 0.930 . S
H699 C696 0.929 . S
S700 N701 1.613 . S
S700 N702 1.610 . S
N701 S700 1.613 . S
N701 C704 1.350 . S
N702 S700 1.610 . S
N702 C703 1.351 . S
C703 C697 1.428 . S
C703 N702 1.351 . S
C703 C704 1.434 . S
C704 C695 1.429 . S
C704 N701 1.350 . S
C704 C703 1.434 . S
C705 C706 1.369 . S
C705 C707 1.419 . S
C705 H709 0.930 . S
C706 C705 1.369 . S
C706 C715 1.429 . S
C707 C705 1.419 . S
C707 C708 1.363 . S
C707 H710 0.929 . S
C708 C707 1.363 . S
C708 C714 1.428 . S
H709 C705 0.930 . S
H710 C707 0.929 . S
S711 N712 1.613 . S
S711 N713 1.610 . S
N712 S711 1.613 . S
N712 C715 1.350 . S
N713 S711 1.610 . S
N713 C714 1.351 . S
C714 C708 1.428 . S
C714 N713 1.351 . S
C714 C715 1.434 . S
C715 C706 1.429 . S
C715 N712 1.350 . S
C715 C714 1.434 . S
C716 C717 1.369 . S
C716 C718 1.419 . S
C716 H720 0.930 . S
C717 C716 1.369 . S
C717 C726 1.429 . S
C718 C716 1.419 . S
C718 C719 1.363 . S
C718 H721 0.929 . S
C719 C718 1.363 . S
C719 C725 1.428 . S
H720 C716 0.930 . S
H721 C718 0.929 . S
S722 N723 1.617 . S
S722 N724 1.617 . S
N723 S722 1.617 . S
N723 C726 1.350 . S
N724 S722 1.617 . S
N724 C725 1.351 . S
C725 C719 1.428 . S
C725 N724 1.351 . S
C725 C726 1.434 . S
C726 C717 1.429 . S
C726 N723 1.350 . S
C726 C725 1.434 . S
C727 C728 1.369 . S
C727 C729 1.419 . S
C727 H731 0.930 . S
C728 C727 1.369 . S
C728 C737 1.429 . S
C729 C727 1.419 . S
C729 C730 1.363 . S
C729 H732 0.929 . S
C730 C729 1.363 . S
C730 C736 1.428 . S
H731 C727 0.930 . S
H732 C729 0.929 . S
S733 N734 1.613 . S
S733 N735 1.610 . S
N734 S733 1.613 . S
N734 C737 1.350 . S
N735 S733 1.610 . S
N735 C736 1.351 . S
C736 C730 1.428 . S
C736 N735 1.351 . S
C736 C737 1.434 . S
C737 C728 1.429 . S
C737 N734 1.350 . S
C737 C736 1.434 . S
C738 C739 1.369 . S
C738 C740 1.419 . S
C738 H742 0.930 . S
C739 C738 1.369 . S
C739 C748 1.429 . S
C740 C738 1.419 . S
C740 C741 1.363 . S
C740 H743 0.929 . S
C741 C740 1.363 . S
C741 C747 1.428 . S
H742 C738 0.930 . S
H743 C740 0.929 . S
S744 N745 1.613 . S
S744 N746 1.610 . S
N745 S744 1.613 . S
N745 C748 1.350 . S
N746 S744 1.610 . S
N746 C747 1.351 . S
C747 C741 1.428 . S
C747 N746 1.351 . S
C747 C748 1.434 . S
C748 C739 1.429 . S
C748 N745 1.350 . S
C748 C747 1.434 . S
C749 C750 1.369 . S
C749 C751 1.419 . S
C749 H753 0.930 . S
C750 C749 1.369 . S
C750 C759 1.429 . S
C751 C749 1.419 . S
C751 C752 1.363 . S
C751 H754 0.929 . S
C752 C751 1.363 . S
C752 C758 1.428 . S
H753 C749 0.930 . S
H754 C751 0.929 . S
S755 N756 1.613 . S
S755 N757 1.610 . S
N756 S755 1.613 . S
N756 C759 1.350 . S
N757 S755 1.610 . S
N757 C758 1.351 . S
C758 C752 1.428 . S
C758 N757 1.351 . S
C758 C759 1.434 . S
C759 C750 1.429 . S
C759 N756 1.350 . S
C759 C758 1.434 . S
C760 C761 1.369 . S
C760 C762 1.419 . S
C760 H764 0.930 . S
C761 C760 1.369 . S
C761 C770 1.429 . S
C762 C760 1.419 . S
C762 C763 1.363 . S
C762 H765 0.929 . S
C763 C762 1.363 . S
C763 C769 1.428 . S
H764 C760 0.930 . S
H765 C762 0.929 . S
S766 N767 1.613 . S
S766 N768 1.610 . S
N767 S766 1.613 . S
N767 C770 1.350 . S
N768 S766 1.610 . S
N768 C769 1.351 . S
C769 C763 1.428 . S
C769 N768 1.351 . S
C769 C770 1.434 . S
C770 C761 1.429 . S
C770 N767 1.350 . S
C770 C769 1.434 . S
C771 C772 1.369 . S
C771 C773 1.419 . S
C771 H775 0.930 . S
C772 C771 1.369 . S
C772 C781 1.429 . S
C773 C771 1.419 . S
C773 C774 1.363 . S
C773 H776 0.929 1_565 S
C774 C773 1.363 . S
C774 C780 1.428 . S
H775 C771 0.930 . S
H776 C773 0.929 1_545 S
S777 N778 1.613 . S
S777 N779 1.610 . S
N778 S777 1.613 . S
N778 C781 1.350 . S
N779 S777 1.610 . S
N779 C780 1.351 . S
C780 C774 1.428 . S
C780 N779 1.351 . S
C780 C781 1.434 . S
C781 C772 1.429 . S
C781 N778 1.350 . S
C781 C780 1.434 . S
C782 C783 1.369 . S
C782 C784 1.419 . S
C782 H786 0.930 . S
C783 C782 1.369 . S
C783 C792 1.429 . S
C784 C782 1.419 . S
C784 C785 1.363 . S
C784 H787 0.929 . S
C785 C784 1.363 . S
C785 C791 1.428 . S
H786 C782 0.930 . S
H787 C784 0.929 . S
S788 N789 1.613 . S
S788 N790 1.610 . S
N789 S788 1.613 . S
N789 C792 1.350 . S
N790 S788 1.610 . S
N790 C791 1.351 . S
C791 C785 1.428 . S
C791 N790 1.351 . S
C791 C792 1.434 . S
C792 C783 1.429 . S
C792 N789 1.350 . S
C792 C791 1.434 . S
C793 C794 1.369 . S
C793 C795 1.419 . S
C793 H797 0.930 . S
C794 C793 1.369 . S
C794 C803 1.429 . S
C795 C793 1.419 . S
C795 C796 1.363 . S
C795 H798 0.929 . S
C796 C795 1.363 . S
C796 C802 1.428 . S
H797 C793 0.930 . S
H798 C795 0.929 . S
S799 N800 1.613 . S
S799 N801 1.610 1_565 S
N800 S799 1.613 . S
N800 C803 1.350 1_565 S
N801 S799 1.610 1_545 S
N801 C802 1.351 . S
C802 C796 1.428 . S
C802 N801 1.351 . S
C802 C803 1.434 . S
C803 C794 1.429 . S
C803 N800 1.350 1_545 S
C803 C802 1.434 . S
C804 C805 1.369 . S
C804 C806 1.419 . S
C804 H808 0.930 . S
C805 C804 1.369 . S
C805 C814 1.429 . S
C806 C804 1.419 . S
C806 C807 1.363 . S
C806 H809 0.929 . S
C807 C806 1.363 . S
C807 C813 1.428 . S
H808 C804 0.930 . S
H809 C806 0.929 . S
S810 N811 1.613 . S
S810 N812 1.610 . S
N811 S810 1.613 . S
N811 C814 1.350 . S
N812 S810 1.610 . S
N812 C813 1.351 . S
C813 C807 1.428 . S
C813 N812 1.351 . S
C813 C814 1.434 . S
C814 C805 1.429 . S
C814 N811 1.350 . S
C814 C813 1.434 . S
C815 C816 1.369 . S
C815 C817 1.419 . S
C815 H819 0.930 . S
C816 C815 1.369 . S
C816 C825 1.429 . S
C817 C815 1.419 . S
C817 C818 1.363 . S
C817 H820 0.929 1_545 S
C818 C817 1.363 . S
C818 C824 1.428 . S
H819 C815 0.930 . S
H820 C817 0.929 1_565 S
S821 N822 1.613 1_455 S
S821 N823 1.610 1_455 S
N822 S821 1.613 1_655 S
N822 C825 1.350 . S
N823 S821 1.610 1_655 S
N823 C824 1.351 . S
C824 C818 1.428 . S
C824 N823 1.351 . S
C824 C825 1.434 . S
C825 C816 1.429 . S
C825 N822 1.350 . S
C825 C824 1.434 . S
C826 C827 1.369 . S
C826 C828 1.419 . S
C826 H830 0.930 . S
C827 C826 1.369 . S
C827 C836 1.429 . S
C828 C826 1.419 . S
C828 C829 1.363 . S
C828 H831 0.929 . S
C829 C828 1.363 . S
C829 C835 1.428 . S
H830 C826 0.930 . S
H831 C828 0.929 . S
S832 N833 1.598 1_556 S
S832 N834 1.613 . S
N833 S832 1.598 1_554 S
N833 C836 1.350 . S
N834 S832 1.613 . S
N834 C835 1.351 1_556 S
C835 C829 1.428 . S
C835 N834 1.351 1_554 S
C835 C836 1.434 . S
C836 C827 1.429 . S
C836 N833 1.350 . S
C836 C835 1.434 . S
C837 C838 1.369 . S
C837 C839 1.419 . S
C837 H841 0.930 . S
C838 C837 1.369 . S
C838 C847 1.429 . S
C839 C837 1.419 . S
C839 C840 1.363 . S
C839 H842 0.929 . S
C840 C839 1.363 . S
C840 C846 1.428 . S
H841 C837 0.930 . S
H842 C839 0.929 . S
S843 N844 1.613 1_545 S
S843 N845 1.610 . S
N844 S843 1.613 1_565 S
N844 C847 1.350 . S
N845 S843 1.610 . S
N845 C846 1.351 1_545 S
C846 C840 1.428 . S
C846 N845 1.351 1_565 S
C846 C847 1.434 . S
C847 C838 1.429 . S
C847 N844 1.350 . S
C847 C846 1.434 . S
C321 C18 1.401 . S
C323 C218 1.404 . S
C332 C38 1.403 . S
C334 C238 1.405 . S
C343 C58 1.399 . S
C345 C178 1.400 . S
C354 C198 1.404 . S
C356 C78 1.406 . S
C365 C99 1.402 . S
C367 C299 1.401 . S
C376 C319 1.408 . S
C378 C119 1.406 . S
C387 C259 1.408 . S
C389 C139 1.406 . S
C398 C159 1.402 . S
C400 C279 1.404 . S
C409 C9 1.441 . S
C411 C92 1.450 . S
C420 C29 1.450 . S
C422 C272 1.442 . S
C431 C49 1.446 . S
C433 C132 1.446 . S
C442 C69 1.450 . S
C444 C312 1.442 . S
C453 C112 1.443 . S
C455 C189 1.448 . S
C464 C229 1.451 . S
C466 C152 1.442 . S
C475 C252 1.440 . S
C477 C169 1.450 . S
C486 C209 1.445 . S
C488 C292 1.446 . S
C497 C12 1.246 . S
C499 C158 1.235 . S
C508 C32 1.244 . S
C510 C258 1.237 . S
C519 C52 1.246 . S
C521 C118 1.236 . S
C530 C72 1.242 . S
C532 C298 1.233 . S
C541 C79 1.238 . S
C543 C89 1.244 . S
C552 C109 1.242 . S
C554 C179 1.235 . S
C563 C129 1.243 . S
C565 C39 1.238 . S
C574 C219 1.238 . S
C576 C149 1.244 . S
C585 C172 1.246 . S
C587 C318 1.235 . S
C596 C98 1.235 . S
C598 C192 1.246 . S
C607 C278 1.238 . S
C609 C212 1.244 . S
C618 C138 1.234 . S
C620 C232 1.246 . S
C629 C249 1.246 . S
C631 C239 1.236 . S
C640 C269 1.245 . S
C642 C19 1.232 . S
C651 C199 1.237 . S
C653 C289 1.242 . S
C662 C309 1.244 . S
C664 C59 1.237 . S
C673 C2 1.980 1_556 S
C675 C184 2.165 . S
C684 C204 2.165 . S
C686 C22 1.979 . S
C695 C42 1.987 . S
C697 C224 2.166 . S
C706 C164 2.166 . S
C708 C62 1.983 . S
C717 C262 2.164 . S
C719 C84 1.979 1_554 S
C728 C282 2.165 . S
C730 C104 1.982 . S
C739 C302 2.165 . S
C741 C124 1.981 . S
C750 C242 2.166 . S
C752 C144 1.982 . S
C761 C24 2.166 . S
C763 C162 1.985 . S
C772 C44 2.166 . S
C774 C182 1.981 1_565 S
C783 C64 2.166 . S
C785 C202 1.985 1_556 S
C794 C222 1.980 1_545 S
C796 C4 2.165 . S
C805 C102 2.167 . S
C807 C244 1.987 . S
C816 C122 2.166 . S
C818 C264 1.985 1_545 S
C827 C142 2.165 . S
C829 C284 1.979 1_554 S
C838 C82 2.167 . S
C840 C304 1.986 1_565 S
