# Generated by pormake.
# Topology whd, (6)-cn, num edge types: 1
# Building blocks:
#     Node 0, Type 0, BuildingBlock: OJICUG_clean_sbu_0, # of connection points: 6
#     Node 1, Type 0, BuildingBlock: OJICUG_clean_sbu_0, # of connection points: 6
#     Node 2, Type 0, BuildingBlock: OJICUG_clean_sbu_0, # of connection points: 6
#     Node 3, Type 0, BuildingBlock: OJICUG_clean_sbu_0, # of connection points: 6
#     Node 4, Type 0, BuildingBlock: OJICUG_clean_sbu_0, # of connection points: 6
#     Node 5, Type 0, BuildingBlock: OJICUG_clean_sbu_0, # of connection points: 6
#     Node 6, Type 0, BuildingBlock: OJICUG_clean_sbu_0, # of connection points: 6
#     Node 7, Type 0, BuildingBlock: OJICUG_clean_sbu_0, # of connection points: 6
#     Node 8, Type 0, BuildingBlock: OJICUG_clean_sbu_0, # of connection points: 6
#     Node 9, Type 0, BuildingBlock: OJICUG_clean_sbu_0, # of connection points: 6
#     Node 10, Type 0, BuildingBlock: OJICUG_clean_sbu_0, # of connection points: 6
#     Node 11, Type 0, BuildingBlock: OJICUG_clean_sbu_0, # of connection points: 6
#     Node 12, Type 0, BuildingBlock: OJICUG_clean_sbu_0, # of connection points: 6
#     Node 13, Type 0, BuildingBlock: OJICUG_clean_sbu_0, # of connection points: 6
#     Node 14, Type 0, BuildingBlock: OJICUG_clean_sbu_0, # of connection points: 6
#     Node 15, Type 0, BuildingBlock: OJICUG_clean_sbu_0, # of connection points: 6
#     Edge 16, Type (0, 0), BuildingBlock: KIFKEQ_clean_linker_1, # of connection points: 2
#     Edge 17, Type (0, 0), BuildingBlock: KIFKEQ_clean_linker_1, # of connection points: 2
#     Edge 18, Type (0, 0), BuildingBlock: KIFKEQ_clean_linker_1, # of connection points: 2
#     Edge 19, Type (0, 0), BuildingBlock: KIFKEQ_clean_linker_1, # of connection points: 2
#     Edge 20, Type (0, 0), BuildingBlock: KIFKEQ_clean_linker_1, # of connection points: 2
#     Edge 21, Type (0, 0), BuildingBlock: KIFKEQ_clean_linker_1, # of connection points: 2
#     Edge 22, Type (0, 0), BuildingBlock: KIFKEQ_clean_linker_1, # of connection points: 2
#     Edge 23, Type (0, 0), BuildingBlock: KIFKEQ_clean_linker_1, # of connection points: 2
#     Edge 24, Type (0, 0), BuildingBlock: KIFKEQ_clean_linker_1, # of connection points: 2
#     Edge 25, Type (0, 0), BuildingBlock: KIFKEQ_clean_linker_1, # of connection points: 2
#     Edge 26, Type (0, 0), BuildingBlock: KIFKEQ_clean_linker_1, # of connection points: 2
#     Edge 27, Type (0, 0), BuildingBlock: KIFKEQ_clean_linker_1, # of connection points: 2
#     Edge 28, Type (0, 0), BuildingBlock: KIFKEQ_clean_linker_1, # of connection points: 2
#     Edge 29, Type (0, 0), BuildingBlock: KIFKEQ_clean_linker_1, # of connection points: 2
#     Edge 30, Type (0, 0), BuildingBlock: KIFKEQ_clean_linker_1, # of connection points: 2
#     Edge 31, Type (0, 0), BuildingBlock: KIFKEQ_clean_linker_1, # of connection points: 2
#     Edge 32, Type (0, 0), BuildingBlock: KIFKEQ_clean_linker_1, # of connection points: 2
#     Edge 33, Type (0, 0), BuildingBlock: KIFKEQ_clean_linker_1, # of connection points: 2
#     Edge 34, Type (0, 0), BuildingBlock: KIFKEQ_clean_linker_1, # of connection points: 2
#     Edge 35, Type (0, 0), BuildingBlock: KIFKEQ_clean_linker_1, # of connection points: 2
#     Edge 36, Type (0, 0), BuildingBlock: KIFKEQ_clean_linker_1, # of connection points: 2
#     Edge 37, Type (0, 0), BuildingBlock: KIFKEQ_clean_linker_1, # of connection points: 2
#     Edge 38, Type (0, 0), BuildingBlock: KIFKEQ_clean_linker_1, # of connection points: 2
#     Edge 39, Type (0, 0), BuildingBlock: KIFKEQ_clean_linker_1, # of connection points: 2
#     Edge 40, Type (0, 0), BuildingBlock: KIFKEQ_clean_linker_1, # of connection points: 2
#     Edge 41, Type (0, 0), BuildingBlock: KIFKEQ_clean_linker_1, # of connection points: 2
#     Edge 42, Type (0, 0), BuildingBlock: KIFKEQ_clean_linker_1, # of connection points: 2
#     Edge 43, Type (0, 0), BuildingBlock: KIFKEQ_clean_linker_1, # of connection points: 2
#     Edge 44, Type (0, 0), BuildingBlock: KIFKEQ_clean_linker_1, # of connection points: 2
#     Edge 45, Type (0, 0), BuildingBlock: KIFKEQ_clean_linker_1, # of connection points: 2
#     Edge 46, Type (0, 0), BuildingBlock: KIFKEQ_clean_linker_1, # of connection points: 2
#     Edge 47, Type (0, 0), BuildingBlock: KIFKEQ_clean_linker_1, # of connection points: 2
#     Edge 48, Type (0, 0), BuildingBlock: KIFKEQ_clean_linker_1, # of connection points: 2
#     Edge 49, Type (0, 0), BuildingBlock: KIFKEQ_clean_linker_1, # of connection points: 2
#     Edge 50, Type (0, 0), BuildingBlock: KIFKEQ_clean_linker_1, # of connection points: 2
#     Edge 51, Type (0, 0), BuildingBlock: KIFKEQ_clean_linker_1, # of connection points: 2
#     Edge 52, Type (0, 0), BuildingBlock: KIFKEQ_clean_linker_1, # of connection points: 2
#     Edge 53, Type (0, 0), BuildingBlock: KIFKEQ_clean_linker_1, # of connection points: 2
#     Edge 54, Type (0, 0), BuildingBlock: KIFKEQ_clean_linker_1, # of connection points: 2
#     Edge 55, Type (0, 0), BuildingBlock: KIFKEQ_clean_linker_1, # of connection points: 2
#     Edge 56, Type (0, 0), BuildingBlock: KIFKEQ_clean_linker_1, # of connection points: 2
#     Edge 57, Type (0, 0), BuildingBlock: KIFKEQ_clean_linker_1, # of connection points: 2
#     Edge 58, Type (0, 0), BuildingBlock: KIFKEQ_clean_linker_1, # of connection points: 2
#     Edge 59, Type (0, 0), BuildingBlock: KIFKEQ_clean_linker_1, # of connection points: 2
#     Edge 60, Type (0, 0), BuildingBlock: KIFKEQ_clean_linker_1, # of connection points: 2
#     Edge 61, Type (0, 0), BuildingBlock: KIFKEQ_clean_linker_1, # of connection points: 2
#     Edge 62, Type (0, 0), BuildingBlock: KIFKEQ_clean_linker_1, # of connection points: 2
#     Edge 63, Type (0, 0), BuildingBlock: KIFKEQ_clean_linker_1, # of connection points: 2
# Relax obj value: 0.256
# Max RMSD: 0.229
# Mean RMSD: 0.229
data_MOF--net-whd--node1-OJICUG_clean_sbu_0--edge1-KIFKEQ_clean_linker_1
_symmetry_space_group_name_H-M    P1
_symmetry_Int_Tables_number       1
_symmetry_cell_setting            triclinic
loop_
_symmetry_equiv_pos_as_xyz
'x, y, z'
_cell_length_a     53.027473
_cell_length_b     53.061198
_cell_length_c     31.128081
_cell_angle_alpha  89.964831
_cell_angle_beta   89.966645
_cell_angle_gamma 90.016303
loop_
_atom_site_label
_atom_site_type_symbol
_atom_site_fract_x
_atom_site_fract_y
_atom_site_fract_z
_atom_type_partial_charge
Sc0 Sc 0.15664 0.34524 0.33055 0.0
Sc1 Sc 0.19213 0.39646 0.29219 0.0
Sc2 Sc 0.14809 0.40496 0.37466 0.0
O3 O 0.16561 0.38218 0.33244 0.0
C4 C 0.10289 0.37159 0.34262 0.0
C5 C 0.16357 0.35694 0.23214 0.0
C6 C 0.15205 0.43951 0.29035 0.0
C7 C 0.2168 0.34555 0.32124 0.0
C8 C 0.15478 0.35455 0.43022 0.0
C9 C 0.20327 0.42554 0.37963 0.0
O10 O 0.11691 0.35244 0.33682 0.0
O11 O 0.1806 0.37337 0.23852 0.0
O12 O 0.1459 0.4357 0.32935 0.0
O13 O 0.19559 0.33447 0.32457 0.0
O14 O 0.14829 0.37745 0.42561 0.0
O15 O 0.2074 0.42195 0.33989 0.0
O16 O 0.16045 0.34046 0.39874 0.0
O17 O 0.21901 0.36883 0.31243 0.0
O18 O 0.1835 0.41804 0.39872 0.0
O19 O 0.15138 0.34645 0.26231 0.0
O20 O 0.11143 0.39309 0.35326 0.0
O21 O 0.16682 0.42506 0.26968 0.0
Sc22 Sc 0.34625 0.82141 0.66451 0.0
Sc23 Sc 0.39899 0.78479 0.69505 0.0
Sc24 Sc 0.40602 0.83491 0.62165 0.0
O25 O 0.38376 0.81372 0.66048 0.0
C26 C 0.3563 0.82887 0.5646 0.0
C27 C 0.34686 0.76135 0.6649 0.0
C28 C 0.42693 0.77932 0.60516 0.0
C29 C 0.36067 0.8098 0.76204 0.0
C30 C 0.36995 0.87669 0.66096 0.0
C31 C 0.44167 0.82666 0.70296 0.0
O32 O 0.3417 0.82387 0.59585 0.0
O33 O 0.36943 0.75911 0.67783 0.0
O34 O 0.42304 0.80207 0.5943 0.0
O35 O 0.34663 0.81983 0.73369 0.0
O36 O 0.39086 0.86994 0.6447 0.0
O37 O 0.43032 0.80704 0.71599 0.0
O38 O 0.35223 0.86131 0.66922 0.0
O39 O 0.37989 0.79651 0.75285 0.0
O40 O 0.43522 0.83856 0.66928 0.0
O41 O 0.33618 0.78253 0.65956 0.0
O42 O 0.3796 0.83364 0.56945 0.0
O43 O 0.42019 0.77022 0.64116 0.0
Sc44 Sc 0.81651 0.63267 0.33258 0.0
Sc45 Sc 0.78195 0.58053 0.29416 0.0
Sc46 Sc 0.83368 0.5716 0.36419 0.0
O47 O 0.81071 0.5949 0.3303 0.0
C48 C 0.87285 0.612 0.32801 0.0
C49 C 0.80403 0.62328 0.23337 0.0
C50 C 0.82546 0.53997 0.2785 0.0
C51 C 0.75674 0.62941 0.33418 0.0
C52 C 0.82711 0.61736 0.42973 0.0
C53 C 0.77892 0.54769 0.37886 0.0
O54 O 0.85634 0.62904 0.32247 0.0
O55 O 0.79279 0.60238 0.23904 0.0
O56 O 0.83829 0.54595 0.31137 0.0
O57 O 0.77741 0.64003 0.34376 0.0
O58 O 0.83183 0.5944 0.42141 0.0
O59 O 0.76847 0.55735 0.34607 0.0
O60 O 0.82143 0.6333 0.40091 0.0
O61 O 0.75536 0.60863 0.31426 0.0
O62 O 0.802 0.55076 0.38857 0.0
O63 O 0.81265 0.63646 0.26411 0.0
O64 O 0.8676 0.59028 0.34287 0.0
O65 O 0.80467 0.55046 0.2691 0.0
Sc66 Sc 0.63511 0.15791 0.65789 0.0
Sc67 Sc 0.58443 0.19369 0.69802 0.0
Sc68 Sc 0.57419 0.1472 0.61979 0.0
O69 O 0.59788 0.16627 0.65869 0.0
C70 C 0.6226 0.15479 0.55969 0.0
C71 C 0.63511 0.21796 0.66575 0.0
C72 C 0.55371 0.20281 0.61146 0.0
C73 C 0.62505 0.1653 0.7569 0.0
C74 C 0.6098 0.10342 0.65007 0.0
C75 C 0.54122 0.15341 0.70526 0.0
O76 O 0.63745 0.16128 0.58963 0.0
O77 O 0.61217 0.22018 0.67665 0.0
O78 O 0.55926 0.18166 0.59491 0.0
O79 O 0.6359 0.15382 0.72626 0.0
O80 O 0.58766 0.11128 0.64216 0.0
O81 O 0.55531 0.16978 0.72275 0.0
O82 O 0.6288 0.11792 0.65319 0.0
O83 O 0.60767 0.1815 0.75105 0.0
O84 O 0.54487 0.14505 0.66752 0.0
O85 O 0.64597 0.19677 0.66147 0.0
O86 O 0.60017 0.14732 0.56652 0.0
O87 O 0.55932 0.20903 0.64972 0.0
Sc88 Sc 0.14508 0.57259 0.60485 0.0
Sc89 Sc 0.19474 0.57643 0.67986 0.0
Sc90 Sc 0.16263 0.63147 0.64677 0.0
O91 O 0.1675 0.59349 0.64382 0.0
C92 C 0.15336 0.62164 0.54719 0.0
C93 C 0.19913 0.54768 0.59071 0.0
C94 C 0.22231 0.62599 0.64709 0.0
C95 C 0.15007 0.53666 0.68651 0.0
C96 C 0.106 0.6114 0.64581 0.0
C97 C 0.17335 0.61728 0.745 0.0
O98 O 0.14791 0.59855 0.55227 0.0
O99 O 0.20803 0.554 0.62698 0.0
O100 O 0.20214 0.63801 0.63918 0.0
O101 O 0.13943 0.54366 0.65202 0.0
O102 O 0.12256 0.62807 0.65383 0.0
O103 O 0.18418 0.59655 0.73657 0.0
O104 O 0.11116 0.5903 0.62849 0.0
O105 O 0.16995 0.54692 0.70099 0.0
O106 O 0.1652 0.63211 0.71607 0.0
O107 O 0.17698 0.5531 0.57815 0.0
O108 O 0.15913 0.63602 0.57823 0.0
O109 O 0.22277 0.60405 0.66334 0.0
Sc110 Sc 0.57475 0.83864 0.39464 0.0
Sc111 Sc 0.58072 0.79137 0.31577 0.0
Sc112 Sc 0.63421 0.82531 0.35067 0.0
O113 O 0.59653 0.81846 0.35358 0.0
C114 C 0.61178 0.88091 0.36044 0.0
C115 C 0.53852 0.83377 0.31319 0.0
C116 C 0.61964 0.81848 0.2521 0.0
C117 C 0.55298 0.783 0.40544 0.0
C118 C 0.62442 0.82925 0.45075 0.0
C119 C 0.63227 0.76548 0.34259 0.0
O120 O 0.59013 0.87424 0.37385 0.0
O121 O 0.55017 0.81528 0.29666 0.0
O122 O 0.63363 0.82741 0.28155 0.0
O123 O 0.55788 0.80496 0.41938 0.0
O124 O 0.63874 0.82396 0.41932 0.0
O125 O 0.60946 0.76413 0.33051 0.0
O126 O 0.60155 0.83581 0.44606 0.0
O127 O 0.55883 0.77553 0.36791 0.0
O128 O 0.64343 0.78621 0.34955 0.0
O129 O 0.54477 0.84365 0.34879 0.0
O130 O 0.62931 0.86534 0.35227 0.0
O131 O 0.60048 0.80472 0.25965 0.0
Sc132 Sc 0.83746 0.41078 0.61558 0.0
Sc133 Sc 0.78718 0.40101 0.68824 0.0
Sc134 Sc 0.81931 0.34922 0.64322 0.0
O135 O 0.81464 0.38702 0.64899 0.0
C136 C 0.82646 0.36759 0.54659 0.0
C137 C 0.7833 0.43707 0.60777 0.0
C138 C 0.75958 0.35357 0.64822 0.0
C139 C 0.83241 0.43976 0.70427 0.0
C140 C 0.8764 0.36795 0.64221 0.0
C141 C 0.8106 0.35649 0.74421 0.0
O142 O 0.83302 0.38986 0.55678 0.0
O143 O 0.77302 0.42596 0.63938 0.0
O144 O 0.77976 0.34256 0.63712 0.0
O145 O 0.84456 0.43423 0.67041 0.0
O146 O 0.85954 0.35129 0.64773 0.0
O147 O 0.79885 0.37727 0.74051 0.0
O148 O 0.87134 0.39042 0.63108 0.0
O149 O 0.81136 0.42979 0.71378 0.0
O150 O 0.81869 0.34401 0.7121 0.0
O151 O 0.80615 0.43393 0.59666 0.0
O152 O 0.82071 0.35087 0.57417 0.0
O153 O 0.7592 0.37433 0.66826 0.0
Sc154 Sc 0.41082 0.14582 0.38427 0.0
Sc155 Sc 0.40383 0.19546 0.30975 0.0
Sc156 Sc 0.35046 0.16281 0.34776 0.0
O157 O 0.38839 0.16805 0.34734 0.0
C158 C 0.36997 0.10622 0.35096 0.0
C159 C 0.44367 0.1506 0.29953 0.0
C160 C 0.36243 0.17161 0.24808 0.0
C161 C 0.43605 0.2004 0.3945 0.0
C162 C 0.3643 0.15604 0.44694 0.0
C163 C 0.35423 0.22241 0.34364 0.0
O164 O 0.39136 0.11159 0.36695 0.0
O165 O 0.43418 0.17169 0.28908 0.0
O166 O 0.34797 0.16452 0.27842 0.0
O167 O 0.43301 0.17746 0.40511 0.0
O168 O 0.34876 0.16023 0.41668 0.0
O169 O 0.3755 0.22296 0.32503 0.0
O170 O 0.38743 0.151 0.4403 0.0
O171 O 0.42605 0.21044 0.36164 0.0
O172 O 0.34328 0.20216 0.35461 0.0
O173 O 0.43662 0.1383 0.33245 0.0
O174 O 0.35359 0.12279 0.34179 0.0
O175 O 0.38338 0.18261 0.2545 0.0
Sc176 Sc 0.66209 0.85126 0.85152 0.0
Sc177 Sc 0.69932 0.90126 0.81228 0.0
Sc178 Sc 0.64483 0.91375 0.87381 0.0
O179 O 0.66878 0.88876 0.84594 0.0
C180 C 0.60632 0.87231 0.84005 0.0
C181 C 0.67833 0.85721 0.75297 0.0
C182 C 0.65694 0.94135 0.78614 0.0
C183 C 0.72177 0.8525 0.85793 0.0
C184 C 0.64939 0.87119 0.94582 0.0
C185 C 0.69927 0.93802 0.89139 0.0
O186 O 0.62272 0.85498 0.83771 0.0
O187 O 0.68995 0.87797 0.75815 0.0
O188 O 0.6419 0.93581 0.81641 0.0
O189 O 0.70046 0.84279 0.86599 0.0
O190 O 0.64492 0.89377 0.93425 0.0
O191 O 0.71131 0.92531 0.86366 0.0
O192 O 0.65564 0.85389 0.91964 0.0
O193 O 0.72429 0.87308 0.83765 0.0
O194 O 0.67555 0.93655 0.89697 0.0
O195 O 0.66798 0.84521 0.78374 0.0
O196 O 0.61141 0.8944 0.853 0.0
O197 O 0.67869 0.93158 0.7822 0.0
Sc198 Sc 0.85019 0.31865 0.14568 0.0
Sc199 Sc 0.90265 0.28611 0.18734 0.0
Sc200 Sc 0.91142 0.33577 0.11338 0.0
O201 O 0.8881 0.3135 0.14872 0.0
C202 C 0.86638 0.32605 0.04759 0.0
C203 C 0.85445 0.25904 0.14839 0.0
C204 C 0.93686 0.28129 0.10475 0.0
C205 C 0.85943 0.3093 0.24597 0.0
C206 C 0.86999 0.37522 0.14509 0.0
C207 C 0.94168 0.33124 0.201 0.0
O208 O 0.85019 0.32176 0.07681 0.0
O209 O 0.8751 0.25858 0.16888 0.0
O210 O 0.93382 0.3041 0.0934 0.0
O211 O 0.84576 0.3165 0.2147 0.0
O212 O 0.89163 0.36984 0.13009 0.0
O213 O 0.93192 0.31021 0.21107 0.0
O214 O 0.85328 0.35868 0.1529 0.0
O215 O 0.88055 0.29842 0.2409 0.0
O216 O 0.93592 0.34311 0.16695 0.0
O217 O 0.84347 0.27923 0.13717 0.0
O218 O 0.88937 0.33096 0.05573 0.0
O219 O 0.92635 0.27141 0.13726 0.0
Sc220 Sc 0.31811 0.13403 0.84931 0.0
Sc221 Sc 0.28616 0.08173 0.80609 0.0
Sc222 Sc 0.33825 0.07279 0.87504 0.0
O223 O 0.31415 0.09615 0.84357 0.0
C224 C 0.37517 0.11614 0.84283 0.0
C225 C 0.30636 0.12709 0.74905 0.0
C226 C 0.3317 0.04393 0.78656 0.0
C227 C 0.25867 0.128 0.85069 0.0
C228 C 0.32927 0.11559 0.94513 0.0
C229 C 0.2849 0.04529 0.88612 0.0
O230 O 0.3579 0.13243 0.83776 0.0
O231 O 0.29625 0.10549 0.753 0.0
O232 O 0.34461 0.04985 0.81936 0.0
O233 O 0.27876 0.13925 0.86168 0.0
O234 O 0.33486 0.09314 0.93458 0.0
O235 O 0.27359 0.05659 0.85582 0.0
O236 O 0.32316 0.13238 0.91792 0.0
O237 O 0.25844 0.10802 0.82839 0.0
O238 O 0.30799 0.04868 0.89548 0.0
O239 O 0.314 0.13997 0.78097 0.0
O240 O 0.37108 0.0941 0.85716 0.0
O241 O 0.31013 0.05329 0.77882 0.0
Sc242 Sc 0.13375 0.66182 0.14654 0.0
Sc243 Sc 0.08115 0.69765 0.17964 0.0
Sc244 Sc 0.07321 0.64431 0.11305 0.0
O245 O 0.096 0.66792 0.14655 0.0
C246 C 0.12056 0.64808 0.05006 0.0
C247 C 0.13109 0.72154 0.14011 0.0
C248 C 0.05119 0.69875 0.09111 0.0
C249 C 0.1231 0.67708 0.24418 0.0
C250 C 0.11143 0.6061 0.1561 0.0
C251 C 0.03939 0.65569 0.1959 0.0
O252 O 0.13575 0.65642 0.07814 0.0
O253 O 0.10927 0.72351 0.15656 0.0
O254 O 0.05547 0.67576 0.08212 0.0
O255 O 0.13612 0.66669 0.21484 0.0
O256 O 0.08971 0.61112 0.14107 0.0
O257 O 0.05101 0.67564 0.20661 0.0
O258 O 0.12908 0.62225 0.15855 0.0
O259 O 0.10279 0.68904 0.23656 0.0
O260 O 0.0451 0.643 0.16274 0.0
O261 O 0.14212 0.70056 0.13488 0.0
O262 O 0.09795 0.64212 0.05862 0.0
O263 O 0.05806 0.70914 0.12601 0.0
Sc264 Sc 0.64995 0.06892 0.13182 0.0
Sc265 Sc 0.70083 0.08234 0.20144 0.0
Sc266 Sc 0.66369 0.13158 0.15885 0.0
O267 O 0.67151 0.09426 0.16406 0.0
C268 C 0.65503 0.11305 0.06284 0.0
C269 C 0.70532 0.04628 0.12083 0.0
C270 C 0.72375 0.13092 0.15636 0.0
C271 C 0.65838 0.04154 0.2219 0.0
C272 C 0.60853 0.10794 0.16397 0.0
C273 C 0.67728 0.12653 0.25798 0.0
O274 O 0.65086 0.0902 0.07288 0.0
O275 O 0.71487 0.05676 0.15357 0.0
O276 O 0.70244 0.14095 0.1491 0.0
O277 O 0.64654 0.045 0.18694 0.0
O278 O 0.62398 0.12609 0.16778 0.0
O279 O 0.69043 0.1067 0.25356 0.0
O280 O 0.61506 0.08612 0.15143 0.0
O281 O 0.67841 0.05343 0.23153 0.0
O282 O 0.66644 0.13748 0.22677 0.0
O283 O 0.68253 0.04902 0.10926 0.0
O284 O 0.65994 0.12992 0.09046 0.0
O285 O 0.72628 0.10988 0.17534 0.0
Sc286 Sc 0.06969 0.33103 0.85627 0.0
Sc287 Sc 0.08141 0.27754 0.79255 0.0
Sc288 Sc 0.13156 0.31546 0.82842 0.0
O289 O 0.09419 0.30794 0.82573 0.0
C290 C 0.10951 0.37001 0.8174 0.0
C291 C 0.04112 0.32046 0.76925 0.0
C292 C 0.12467 0.2974 0.73106 0.0
C293 C 0.0454 0.2766 0.87256 0.0
C294 C 0.1135 0.32811 0.92408 0.0
C295 C 0.13048 0.25635 0.83968 0.0
O296 O 0.0894 0.3651 0.83803 0.0
O297 O 0.05052 0.29853 0.76458 0.0
O298 O 0.13754 0.30666 0.76165 0.0
O299 O 0.04653 0.30029 0.87793 0.0
O300 O 0.13048 0.32581 0.89549 0.0
O301 O 0.11064 0.25336 0.81731 0.0
O302 O 0.09008 0.32827 0.91561 0.0
O303 O 0.05838 0.26476 0.84499 0.0
O304 O 0.13979 0.27784 0.84806 0.0
O305 O 0.0474 0.33521 0.79955 0.0
O306 O 0.12601 0.35351 0.8086 0.0
O307 O 0.10326 0.28719 0.73676 0.0
Sc308 Sc 0.33457 0.91009 0.13289 0.0
Sc309 Sc 0.28137 0.90128 0.19997 0.0
Sc310 Sc 0.31656 0.84909 0.1636 0.0
O311 O 0.31083 0.88686 0.1655 0.0
C312 C 0.33086 0.86411 0.06739 0.0
C313 C 0.28023 0.93362 0.11436 0.0
C314 C 0.25709 0.85299 0.15596 0.0
C315 C 0.32429 0.94186 0.2182 0.0
C316 C 0.37233 0.87058 0.17488 0.0
C317 C 0.30083 0.85791 0.26185 0.0
O318 O 0.33548 0.887 0.07615 0.0
O319 O 0.26949 0.92498 0.1477 0.0
O320 O 0.2779 0.84212 0.14804 0.0
O321 O 0.33718 0.93633 0.18516 0.0
O322 O 0.35587 0.85329 0.17886 0.0
O323 O 0.29027 0.87907 0.2556 0.0
O324 O 0.36768 0.89196 0.15817 0.0
O325 O 0.30372 0.93091 0.22752 0.0
O326 O 0.31014 0.84481 0.23157 0.0
O327 O 0.30328 0.92991 0.10503 0.0
O328 O 0.32381 0.84829 0.09552 0.0
O329 O 0.25531 0.87351 0.17664 0.0
Sc330 Sc 0.90897 0.64805 0.86905 0.0
Sc331 Sc 0.89939 0.69768 0.79511 0.0
Sc332 Sc 0.84792 0.66156 0.83286 0.0
O333 O 0.88546 0.66907 0.83222 0.0
C334 C 0.87174 0.60633 0.8327 0.0
C335 C 0.94172 0.65579 0.78373 0.0
C336 C 0.85808 0.67303 0.73368 0.0
C337 C 0.93013 0.70376 0.8821 0.0
C338 C 0.86137 0.65345 0.93118 0.0
C339 C 0.84933 0.72152 0.83315 0.0
O340 O 0.89307 0.61303 0.84738 0.0
O341 O 0.92973 0.67509 0.77096 0.0
O342 O 0.84533 0.66346 0.76413 0.0
O343 O 0.92644 0.68121 0.89425 0.0
O344 O 0.84592 0.65846 0.90132 0.0
O345 O 0.87073 0.7236 0.81528 0.0
O346 O 0.88455 0.64899 0.9243 0.0
O347 O 0.92266 0.71242 0.84623 0.0
O348 O 0.83877 0.70055 0.84099 0.0
O349 O 0.9366 0.64445 0.81864 0.0
O350 O 0.85373 0.62169 0.82625 0.0
O351 O 0.87788 0.68604 0.73988 0.0
H352 H 0.1344 0.48201 0.32885 0.0
H353 H 0.1491 0.44926 0.20411 0.0
H354 H 0.12283 0.52166 0.29455 0.0
H355 H 0.13711 0.4891 0.1699 0.0
H356 H 0.08782 0.56183 0.1352 0.0
H357 H 0.09559 0.52006 0.1665 0.0
H358 H 0.15296 0.5519 0.24842 0.0
H359 H 0.14567 0.59332 0.21705 0.0
C360 C 0.13479 0.48313 0.29411 0.0
C361 C 0.14284 0.46259 0.26915 0.0
C362 C 0.12826 0.50583 0.27459 0.0
C363 C 0.12923 0.50827 0.22977 0.0
C364 C 0.13616 0.4875 0.20456 0.0
C365 C 0.14314 0.46485 0.22414 0.0
C366 C 0.10213 0.55983 0.15979 0.0
C367 C 0.11619 0.58076 0.17364 0.0
C368 C 0.10658 0.53601 0.17749 0.0
C369 C 0.12473 0.53301 0.20987 0.0
C370 C 0.13874 0.55389 0.22367 0.0
C371 C 0.13466 0.57751 0.2055 0.0
H372 H 0.47214 0.86719 0.68573 0.0
H373 H 0.46129 0.80616 0.7762 0.0
H374 H 0.51047 0.8795 0.72357 0.0
H375 H 0.49936 0.81874 0.814 0.0
H376 H 0.58604 0.82614 0.82333 0.0
H377 H 0.54462 0.81683 0.794 0.0
H378 H 0.52648 0.89619 0.79401 0.0
H379 H 0.56819 0.9057 0.8231 0.0
C380 C 0.47774 0.85656 0.71387 0.0
C381 C 0.46381 0.83548 0.72757 0.0
C382 C 0.49959 0.86374 0.73568 0.0
C383 C 0.50791 0.84995 0.77149 0.0
C384 C 0.49352 0.82947 0.7861 0.0
C385 C 0.47169 0.82233 0.76444 0.0
C386 C 0.57321 0.84164 0.81741 0.0
C387 C 0.58046 0.86667 0.82539 0.0
C388 C 0.54941 0.83627 0.80088 0.0
C389 C 0.53239 0.85581 0.79178 0.0
C390 C 0.53937 0.88081 0.80048 0.0
C391 C 0.56316 0.8862 0.81735 0.0
H392 H 0.82406 0.3955 0.16389 0.0
H393 H 0.90299 0.4148 0.15139 0.0
H394 H 0.81507 0.43783 0.18925 0.0
H395 H 0.89379 0.45744 0.17648 0.0
H396 H 0.86864 0.51215 0.28756 0.0
H397 H 0.88055 0.47451 0.24775 0.0
H398 H 0.81464 0.4827 0.16751 0.0
H399 H 0.80243 0.52017 0.2075 0.0
C400 C 0.83946 0.40886 0.16602 0.0
C401 C 0.86428 0.4017 0.15599 0.0
C402 C 0.83425 0.4332 0.18022 0.0
C403 C 0.85375 0.45089 0.18488 0.0
C404 C 0.87845 0.44407 0.17347 0.0
C405 C 0.88367 0.41972 0.15893 0.0
C406 C 0.85682 0.50614 0.26111 0.0
C407 C 0.83435 0.51897 0.2512 0.0
C408 C 0.86377 0.48468 0.23809 0.0
C409 C 0.8484 0.47561 0.2048 0.0
C410 C 0.82664 0.48912 0.19345 0.0
C411 C 0.81971 0.51061 0.21635 0.0
H412 H 0.41972 0.09441 0.86724 0.0
H413 H 0.38826 0.15165 0.78402 0.0
H414 H 0.4616 0.10232 0.83653 0.0
H415 H 0.42988 0.15905 0.75321 0.0
H416 H 0.49822 0.13419 0.67089 0.0
H417 H 0.45879 0.12506 0.70813 0.0
H418 H 0.49312 0.14483 0.82913 0.0
H419 H 0.53274 0.15449 0.79192 0.0
C420 C 0.42179 0.10878 0.84275 0.0
C421 C 0.40077 0.1224 0.82795 0.0
C422 C 0.44566 0.11328 0.82537 0.0
C423 C 0.44864 0.13108 0.79246 0.0
C424 C 0.42783 0.14511 0.77843 0.0
C425 C 0.40412 0.14097 0.79627 0.0
C426 C 0.49753 0.13628 0.70549 0.0
C427 C 0.51848 0.1452 0.72852 0.0
C428 C 0.47496 0.13119 0.72665 0.0
C429 C 0.47312 0.13448 0.77121 0.0
C430 C 0.49429 0.14221 0.79467 0.0
C431 C 0.51681 0.14778 0.77339 0.0
H432 H 0.1198 0.50002 0.65364 0.0
H433 H 0.15744 0.52315 0.77041 0.0
H434 H 0.10729 0.46067 0.68817 0.0
H435 H 0.1444 0.48374 0.80499 0.0
H436 H 0.0919 0.41446 0.85067 0.0
H437 H 0.09872 0.45701 0.8215 0.0
H438 H 0.14197 0.42545 0.71714 0.0
H439 H 0.13581 0.38329 0.74636 0.0
C440 C 0.12496 0.49696 0.68691 0.0
C441 C 0.13984 0.51452 0.70921 0.0
C442 C 0.11781 0.47447 0.70653 0.0
C443 C 0.12499 0.4694 0.74898 0.0
C444 C 0.13859 0.48747 0.77223 0.0
C445 C 0.14616 0.50983 0.75236 0.0
C446 C 0.10288 0.41671 0.82156 0.0
C447 C 0.11344 0.39568 0.80083 0.0
C448 C 0.10677 0.44092 0.80505 0.0
C449 C 0.12068 0.4442 0.76712 0.0
C450 C 0.13102 0.42321 0.7463 0.0
C451 C 0.12763 0.39918 0.7632 0.0
H452 H 0.528 0.83185 0.22751 0.0
H453 H 0.49749 0.85608 0.34951 0.0
H454 H 0.48819 0.84291 0.1924 0.0
H455 H 0.45761 0.86658 0.31435 0.0
H456 H 0.38454 0.83956 0.2411 0.0
H457 H 0.42593 0.83366 0.27391 0.0
H458 H 0.4586 0.88545 0.18257 0.0
H459 H 0.41697 0.89191 0.15 0.0
C460 C 0.51289 0.83976 0.24668 0.0
C461 C 0.51573 0.84301 0.29124 0.0
C462 C 0.49025 0.84615 0.22658 0.0
C463 C 0.47001 0.85539 0.2509 0.0
C464 C 0.47305 0.85936 0.29514 0.0
C465 C 0.49584 0.85347 0.31511 0.0
C466 C 0.40056 0.84959 0.22782 0.0
C467 C 0.39761 0.86613 0.19293 0.0
C468 C 0.42412 0.84637 0.24682 0.0
C469 C 0.44521 0.85925 0.23077 0.0
C470 C 0.44248 0.8754 0.19539 0.0
C471 C 0.41875 0.87906 0.17689 0.0
H472 H 0.82701 0.58295 0.81649 0.0
H473 H 0.90729 0.56919 0.82399 0.0
H474 H 0.82034 0.53979 0.79334 0.0
H475 H 0.90043 0.52568 0.80101 0.0
H476 H 0.87473 0.46856 0.69242 0.0
H477 H 0.88629 0.50665 0.73128 0.0
H478 H 0.82367 0.49535 0.81794 0.0
H479 H 0.81181 0.45741 0.77898 0.0
C480 C 0.84322 0.57065 0.8136 0.0
C481 C 0.8677 0.57957 0.82173 0.0
C482 C 0.83936 0.54583 0.80076 0.0
C483 C 0.85988 0.5294 0.79554 0.0
C484 C 0.88432 0.53804 0.80466 0.0
C485 C 0.8882 0.56289 0.8179 0.0
C486 C 0.86367 0.4739 0.72021 0.0
C487 C 0.84202 0.46022 0.73201 0.0
C488 C 0.87041 0.49565 0.74263 0.0
C489 C 0.85565 0.50408 0.77721 0.0
C490 C 0.83511 0.48945 0.7909 0.0
C491 C 0.82837 0.4677 0.76858 0.0
H492 H 0.58522 0.15311 0.17586 0.0
H493 H 0.57202 0.07272 0.18102 0.0
H494 H 0.54297 0.16064 0.20302 0.0
H495 H 0.52938 0.08041 0.20799 0.0
H496 H 0.47434 0.11017 0.31649 0.0
H497 H 0.51214 0.09767 0.27722 0.0
H498 H 0.49804 0.15598 0.18341 0.0
H499 H 0.46051 0.16874 0.22264 0.0
C500 C 0.5732 0.13703 0.18233 0.0
C501 C 0.58204 0.11231 0.17653 0.0
C502 C 0.54891 0.14137 0.19757 0.0
C503 C 0.53291 0.1211 0.20755 0.0
C504 C 0.54142 0.09636 0.20075 0.0
C505 C 0.56575 0.09199 0.18512 0.0
C506 C 0.47909 0.1201 0.28717 0.0
C507 C 0.46466 0.14076 0.27318 0.0
C508 C 0.50065 0.11282 0.26455 0.0
C509 C 0.50813 0.12607 0.22758 0.0
C510 C 0.49291 0.14574 0.21225 0.0
C511 C 0.47141 0.15301 0.23477 0.0
H512 H 0.68704 0.97604 0.7476 0.0
H513 H 0.60957 0.95176 0.75744 0.0
H514 H 0.67393 0.01273 0.70688 0.0
H515 H 0.59633 0.98758 0.71393 0.0
H516 H 0.57996 0.07227 0.69703 0.0
H517 H 0.59046 0.03023 0.72249 0.0
H518 H 0.65867 0.03156 0.64594 0.0
H519 H 0.64886 0.07441 0.62342 0.0
C520 C 0.66724 0.97823 0.73988 0.0
C521 C 0.64929 0.9613 0.756 0.0
C522 C 0.65965 -0.00079 0.71619 0.0
C523 C 0.63394 0.0034 0.70718 0.0
C524 C 0.61618 0.98544 0.72113 0.0
C525 C 0.62375 0.96479 0.74578 0.0
C526 C 0.59696 0.0633 0.68524 0.0
C527 C 0.61378 0.07652 0.65881 0.0
C528 C 0.60299 0.0391 0.69958 0.0
C529 C 0.62568 0.02744 0.68685 0.0
C530 C 0.64147 0.04014 0.6576 0.0
C531 C 0.63578 0.06459 0.64432 0.0
H532 H 0.06883 0.40856 0.32245 0.0
H533 H 0.07587 0.32813 0.34124 0.0
H534 H 0.0258 0.40254 0.29601 0.0
H535 H 0.03335 0.32217 0.31452 0.0
H536 H 0.953 0.31638 0.28264 0.0
H537 H 0.98841 0.32996 0.32655 0.0
H538 H 0.0101 0.38322 0.22822 0.0
H539 H 0.97438 0.37002 0.18446 0.0
C540 C 0.06103 0.3897 0.32178 0.0
C541 C 0.07578 0.36878 0.3334 0.0
C542 C 0.0365 0.38626 0.30643 0.0
C543 C 0.02631 0.3619 0.30301 0.0
C544 C 0.04056 0.34121 0.3172 0.0
C545 C 0.06504 0.34461 0.33215 0.0
C546 C 0.96513 0.33121 0.27054 0.0
C547 C 0.96122 0.34174 0.22962 0.0
C548 C 0.98536 0.339 0.29578 0.0
C549 C 0.00216 0.35741 0.28056 0.0
C550 C -0.00267 0.36913 0.24092 0.0
C551 C 0.977 0.3614 0.21569 0.0
H552 H 0.32551 0.89989 0.67974 0.0
H553 H 0.40539 0.91424 0.66545 0.0
H554 H 0.31901 0.94332 0.70138 0.0
H555 H 0.39869 0.95806 0.68691 0.0
H556 H 0.375 0.01629 0.79535 0.0
H557 H 0.38621 0.97807 0.75664 0.0
H558 H 0.32112 0.98736 0.67483 0.0
H559 H 0.30959 0.02542 0.71374 0.0
C560 C 0.34167 0.91237 0.68084 0.0
C561 C 0.36601 0.90355 0.67127 0.0
C562 C 0.33789 0.93735 0.69278 0.0
C563 C 0.35834 0.95406 0.69562 0.0
C564 C 0.38262 0.9455 0.68507 0.0
C565 C 0.38641 0.92047 0.67274 0.0
C566 C 0.36331 0.01049 0.76861 0.0
C567 C 0.34107 0.02361 0.7583 0.0
C568 C 0.36986 0.98867 0.74625 0.0
C569 C 0.35431 0.97961 0.7132 0.0
C570 C 0.33318 -0.00625 0.70072 0.0
C571 C 0.32663 0.01556 0.72301 0.0
H572 H 0.01788 0.67989 0.26447 0.0
H573 H 0.01132 0.61278 0.1864 0.0
H574 H 0.97956 0.66814 0.30282 0.0
H575 H 0.97289 0.60134 0.22443 0.0
H576 H 0.91258 0.57915 0.32067 0.0
H577 H 0.95512 0.58853 0.29502 0.0
H578 H 0.93486 0.66692 0.28065 0.0
H579 H 0.89265 0.65778 0.30661 0.0
C580 C 0.00844 0.66254 0.2557 0.0
C581 C 0.01754 0.64745 0.22196 0.0
C582 C 0.98644 0.65587 0.27761 0.0
C583 C 0.97316 0.63393 0.26639 0.0
C584 C 0.98284 0.61826 0.23402 0.0
C585 C 0.00478 0.62495 0.21201 0.0
C586 C 0.9173 0.59843 0.3125 0.0
C587 C 0.89915 0.61768 0.31541 0.0
C588 C 0.94161 0.60375 0.29766 0.0
C589 C 0.94827 0.62844 0.28582 0.0
C590 C 0.93038 0.64777 0.29004 0.0
C591 C 0.9061 0.64246 0.30458 0.0
H592 H 0.61552 0.01341 0.21372 0.0
H593 H 0.67912 0.02592 0.29809 0.0
H594 H 0.60225 0.97813 0.25784 0.0
H595 H 0.66537 -0.00923 0.34285 0.0
H596 H 0.5777 0.91944 0.35077 0.0
H597 H 0.58676 0.96254 0.32742 0.0
H598 H 0.66649 0.9457 0.32743 0.0
H599 H 0.65761 0.90317 0.35131 0.0
C600 C 0.62648 0.00891 0.24206 0.0
C601 C 0.64873 0.02216 0.25181 0.0
C602 C 0.61865 0.98884 0.26768 0.0
C603 C 0.63287 0.98159 0.30363 0.0
C604 C 0.65424 -0.00422 0.31496 0.0
C605 C 0.6621 0.01589 0.2893 0.0
C606 C 0.59716 0.92515 0.34661 0.0
C607 C 0.61691 0.90781 0.35212 0.0
C608 C 0.60233 0.94976 0.33313 0.0
C609 C 0.62731 0.95741 0.32534 0.0
C610 C 0.64707 0.94049 0.33356 0.0
C611 C 0.64193 0.91598 0.34676 0.0
H612 H 0.91837 0.39807 0.63742 0.0
H613 H 0.89454 0.32188 0.66597 0.0
H614 H 0.96142 0.38708 0.65763 0.0
H615 H 0.93724 0.31121 0.68692 0.0
H616 H 0.0181 0.29333 0.70533 0.0
H617 H 0.98084 0.3054 0.66427 0.0
H618 H 0.98062 0.37805 0.72692 0.0
H619 H 0.01799 0.36639 0.76702 0.0
C620 C 0.92231 0.37896 0.64762 0.0
C621 C 0.90292 0.36096 0.65062 0.0
C622 C 0.94695 0.37269 0.65923 0.0
C623 C 0.95267 0.34833 0.67403 0.0
C624 C 0.93353 0.33006 0.67511 0.0
C625 C 0.90895 0.33628 0.66351 0.0
C626 C 0.01036 0.31204 0.70977 0.0
C627 C 0.02077 0.32871 0.74004 0.0
C628 C 0.98899 0.31891 0.68635 0.0
C629 C 0.97767 0.34256 0.69272 0.0
C630 C 0.989 0.35977 0.72098 0.0
C631 C 0.01033 0.35295 0.74432 0.0
H632 H 0.32394 0.0863 0.33226 0.0
H633 H 0.40253 0.06615 0.34638 0.0
H634 H 0.31451 0.04393 0.30778 0.0
H635 H 0.39288 0.02339 0.32221 0.0
H636 H 0.36795 0.96901 0.21075 0.0
H637 H 0.38007 0.00632 0.25109 0.0
H638 H 0.31308 -0.00083 0.32917 0.0
H639 H 0.30062 0.96199 0.28847 0.0
C640 C 0.33917 0.07273 0.33068 0.0
C641 C 0.36405 0.07968 0.3408 0.0
C642 C 0.3337 0.04836 0.31704 0.0
C643 C 0.35298 0.03039 0.31303 0.0
C644 C 0.37771 0.03698 0.32472 0.0
C645 C 0.38319 0.0614 0.3387 0.0
C646 C 0.3559 0.97518 0.23681 0.0
C647 C 0.33308 0.96274 0.24587 0.0
C648 C 0.363 -0.00356 0.26019 0.0
C649 C 0.34742 0.00572 0.29306 0.0
C650 C 0.32527 -0.00742 0.3036 0.0
C651 C 0.31818 0.97127 0.2803 0.0
H652 H 0.08523 0.65714 0.66328 0.0
H653 H 0.06756 0.57762 0.65839 0.0
H654 H 0.04337 0.66587 0.69129 0.0
H655 H 0.02536 0.58653 0.68641 0.0
H656 H 0.97159 0.61444 0.79785 0.0
H657 H 0.00932 0.60216 0.75825 0.0
H658 H -0.002 0.66417 0.67049 0.0
H659 H 0.96046 0.6767 0.71003 0.0
C660 C 0.07232 0.64154 0.66777 0.0
C661 C 0.07976 0.61667 0.65887 0.0
C662 C 0.04826 0.64658 0.68351 0.0
C663 C 0.03116 0.62686 0.69099 0.0
C664 C 0.03828 0.60204 0.68112 0.0
C665 C 0.06235 0.59699 0.66489 0.0
C666 C 0.97698 0.62533 0.76987 0.0
C667 C 0.96318 0.64678 0.75753 0.0
C668 C -0.00152 0.61815 0.74702 0.0
C669 C 0.00662 0.63234 0.71152 0.0
C670 C -0.00773 0.6531 0.69808 0.0
C671 C 0.97075 0.66022 0.72075 0.0
H672 H 0.22569 0.55982 0.51897 0.0
H673 H 0.2048 0.49794 0.60124 0.0
H674 H 0.24243 0.53017 0.46598 0.0
H675 H 0.21946 0.46819 0.54796 0.0
H676 H 0.23104 0.41516 0.45063 0.0
H677 H 0.24517 0.44625 0.50308 0.0
H678 H 0.22204 0.5059 0.41655 0.0
H679 H 0.21035 0.47475 0.36346 0.0
C680 C 0.22523 0.5398 0.52587 0.0
C681 C 0.21395 0.53087 0.56357 0.0
C682 C 0.23458 0.52278 0.49552 0.0
C683 C 0.23183 0.49661 0.50185 0.0
C684 C 0.22234 0.48803 0.54161 0.0
C685 C 0.21362 0.50505 0.57223 0.0
C686 C 0.23032 0.43499 0.44234 0.0
C687 C 0.21949 0.44279 0.40356 0.0
C688 C 0.23804 0.45285 0.4725 0.0
C689 C 0.23372 0.4787 0.46511 0.0
C690 C 0.22571 0.48632 0.4239 0.0
C691 C 0.21886 0.46844 0.39324 0.0
H692 H 0.46428 0.74557 0.6238 0.0
H693 H 0.42287 0.77873 0.51872 0.0
H694 H 0.49649 0.73085 0.57322 0.0
H695 H 0.45464 0.76416 0.46849 0.0
H696 H 0.51527 0.75043 0.38298 0.0
H697 H 0.48298 0.73383 0.43168 0.0
H698 H 0.52495 0.76256 0.5401 0.0
H699 H 0.55684 0.77898 0.49174 0.0
C700 C 0.46153 0.74873 0.58973 0.0
C701 C 0.44155 0.76377 0.57505 0.0
C702 C 0.47993 0.74034 0.56082 0.0
C703 C 0.47833 0.74672 0.517 0.0
C704 C 0.45647 0.75881 0.50193 0.0
C705 C 0.43836 0.76744 0.53077 0.0
C706 C 0.51802 0.7522 0.41733 0.0
C707 C 0.53809 0.7665 0.43374 0.0
C708 C 0.49957 0.74272 0.44517 0.0
C709 C 0.5012 0.74726 0.48964 0.0
C710 C 0.5231 0.75862 0.5061 0.0
C711 C 0.54127 0.76833 0.47836 0.0
H712 H 0.78831 0.48735 0.60691 0.0
H713 H 0.74644 0.42618 0.55031 0.0
H714 H 0.77326 0.51572 0.55121 0.0
H715 H 0.73121 0.45461 0.49372 0.0
H716 H 0.77241 0.49735 0.37609 0.0
H717 H 0.75986 0.47095 0.43655 0.0
H718 H 0.74034 0.53757 0.5092 0.0
H719 H 0.75335 0.56389 0.44846 0.0
C720 C 0.77498 0.48035 0.58337 0.0
C721 C 0.76848 0.45482 0.58242 0.0
C722 C 0.76619 0.49657 0.5516 0.0
C723 C 0.75115 0.48733 0.51788 0.0
C724 C 0.74282 0.46217 0.51926 0.0
C725 C 0.75143 0.44597 0.55154 0.0
C726 C 0.76432 0.50616 0.40431 0.0
C727 C 0.76382 0.53242 0.40815 0.0
C728 C 0.75698 0.49111 0.43888 0.0
C729 C 0.74941 0.50225 0.47782 0.0
C730 C 0.74629 0.52854 0.47968 0.0
C731 C 0.75364 0.54357 0.44505 0.0
H732 H 0.4863 0.19769 0.38993 0.0
H733 H 0.42567 0.23463 0.45719 0.0
H734 H 0.5161 0.2124 0.44325 0.0
H735 H 0.45568 0.2502 0.51103 0.0
H736 H 0.5678 0.22795 0.53988 0.0
H737 H 0.53918 0.2422 0.48345 0.0
H738 H 0.47567 0.22623 0.56642 0.0
H739 H 0.5045 0.21354 0.6232 0.0
C740 C 0.47964 0.20991 0.41543 0.0
C741 C 0.45394 0.21505 0.4199 0.0
C742 C 0.49671 0.21858 0.44594 0.0
C743 C 0.48831 0.23241 0.48182 0.0
C744 C 0.46271 0.23939 0.48407 0.0
C745 C 0.44558 0.23065 0.45329 0.0
C746 C 0.54776 0.22885 0.54655 0.0
C747 C 0.53814 0.21959 0.58538 0.0
C748 C 0.53135 0.23678 0.51424 0.0
C749 C 0.5051 0.23455 0.51984 0.0
C750 C 0.49572 0.22826 0.56083 0.0
C751 C 0.5122 0.22088 0.59346 0.0
H752 H 0.71202 -0.00405 0.12458 0.0
H753 H 0.73261 0.06257 0.05345 0.0
H754 H 0.72472 0.96967 0.06399 0.0
H755 H 0.74536 0.03638 0.99252 0.0
H756 H 0.69084 0.98763 0.9 0.0
H757 H 0.70744 0.01512 0.95574 0.0
H758 H 0.75457 0.95452 0.00224 0.0
H759 H 0.73825 0.92708 0.94496 0.0
C760 C 0.72059 0.00477 0.09676 0.0
C761 C 0.72133 0.03104 0.09309 0.0
C762 C 0.72799 0.9898 0.06218 0.0
C763 C 0.7357 0.0011 0.02347 0.0
C764 C 0.73942 0.0273 0.02204 0.0
C765 C 0.73214 0.04224 0.05673 0.0
C766 C 0.70541 0.98055 0.92122 0.0
C767 C 0.71321 0.95542 0.91884 0.0
C768 C 0.71514 -0.00372 0.95281 0.0
C769 C 0.73235 0.9869 0.98319 0.0
C770 C 0.74147 0.96217 0.97894 0.0
C771 C 0.73213 0.94655 0.94645 0.0
H772 H 0.98761 0.2801 0.10484 0.0
H773 H 0.922 0.24917 0.04247 0.0
H774 H 0.01417 0.26487 0.04638 0.0
H775 H 0.94851 0.23391 0.98338 0.0
H776 H -0.00515 0.27944 0.87439 0.0
H777 H 0.96775 0.26656 0.93361 0.0
H778 H 0.0314 0.23112 0.99582 0.0
H779 H 0.05847 0.24381 0.93554 0.0
C780 C 0.97915 0.269 0.07943 0.0
C781 C 0.953 0.26573 0.07764 0.0
C782 C -0.0057 0.26013 0.0461 0.0
C783 C 0.98332 0.24836 0.01021 0.0
C784 C 0.95737 0.24294 0.01069 0.0
C785 C 0.94226 0.25161 0.04433 0.0
C786 C 0.00269 0.26791 0.89983 0.0
C787 C 0.02852 0.26259 0.90089 0.0
C788 C 0.98722 0.26036 0.93361 0.0
C789 C -0.00246 0.24793 0.96941 0.0
C790 C 0.02303 0.24065 0.96853 0.0
C791 C 0.03845 0.24784 0.9342 0.0
H792 H 0.29475 -0.00412 0.89013 0.0
H793 H 0.24521 0.05334 0.93975 0.0
H794 H 0.2797 0.9665 0.9442 0.0
H795 H 0.23007 0.02387 0.99503 0.0
H796 H 0.26975 0.98337 0.11763 0.0
H797 H 0.25748 0.00935 0.05638 0.0
H798 H 0.24597 0.94214 0.98045 0.0
H799 H 0.25885 0.91632 0.04177 0.0
C800 C 0.27993 0.00181 0.91188 0.0
C801 C 0.27116 0.02665 0.91138 0.0
C802 C 0.2711 0.98499 0.94263 0.0
C803 C 0.25372 -0.00706 0.97396 0.0
C804 C 0.24345 0.01732 0.97122 0.0
C805 C 0.25204 0.0341 0.93976 0.0
C806 C 0.26349 0.97427 0.08836 0.0
C807 C 0.26536 0.94811 0.08375 0.0
C808 C 0.25629 0.98905 0.05338 0.0
C809 C 0.25113 0.97772 0.01348 0.0
C810 C 0.25009 0.95131 0.01074 0.0
C811 C 0.25743 0.93657 0.04565 0.0
H812 H 0.92329 0.70943 0.96724 0.0
H813 H 0.97059 0.73318 0.86194 0.0
H814 H 0.95496 0.72338 0.0182 0.0
H815 H 0.00278 0.74709 0.91322 0.0
H816 H 0.05477 0.69544 0.0048 0.0
H817 H 0.02562 0.71247 0.95229 0.0
H818 H 0.98633 0.75254 0.05293 0.0
H819 H 0.016 0.73545 0.10588 0.0
C820 C 0.9401 0.71868 0.95519 0.0
C821 C 0.94491 0.7198 0.91096 0.0
C822 C 0.95817 0.72692 0.98436 0.0
C823 C 0.98155 0.73589 0.96963 0.0
C824 C 0.98497 0.74004 0.92533 0.0
C825 C 0.96662 0.7321 0.89604 0.0
C826 C 0.04035 0.70847 0.01552 0.0
C827 C 0.03711 0.71364 0.05934 0.0
C828 C 0.02387 0.71858 0.98535 0.0
C829 C 0.00355 0.73369 -0.00143 0.0
C830 C 0.00182 0.74088 0.04197 0.0
C831 C 0.01867 0.73104 0.07221 0.0
H832 H 0.11691 0.34723 0.20065 0.0
H833 H 0.1951 0.35282 0.16345 0.0
H834 H 0.10508 0.3399 0.12634 0.0
H835 H 0.18376 0.34347 0.08935 0.0
H836 H 0.15392 0.35401 0.95432 0.0
H837 H 0.16612 0.36024 0.02883 0.0
H838 H 0.10398 0.31286 0.06944 0.0
H839 H 0.09083 0.30848 0.99492 0.0
C840 C 0.13161 0.34634 0.1765 0.0
C841 C 0.15687 0.35064 0.18757 0.0
C842 C 0.1249 0.34195 0.13383 0.0
C843 C 0.1434 0.34105 0.10137 0.0
C844 C 0.16884 0.34464 0.113 0.0
C845 C 0.17544 0.34977 0.15553 0.0
C846 C 0.14293 0.345 0.97936 0.0
C847 C 0.12139 0.33093 0.9691 0.0
C848 C 0.15002 0.34834 0.02215 0.0
C849 C 0.13611 0.33706 0.05562 0.0
C850 C 0.11485 0.32241 0.04492 0.0
C851 C 0.10737 0.3197 0.00217 0.0
H852 H 0.30688 0.82523 0.02673 0.0
H853 H 0.36286 0.88334 0.00721 0.0
H854 H 0.3133 0.81069 0.95274 0.0
H855 H 0.36961 0.86835 0.93382 0.0
H856 H 0.39421 0.81069 0.8283 0.0
H857 H 0.38632 0.82324 0.90266 0.0
H858 H 0.30747 0.83367 0.87371 0.0
H859 H 0.31533 0.82168 0.79883 0.0
C860 C 0.32059 0.83481 0.00672 0.0
C861 C 0.33438 0.85541 0.0227 0.0
C862 C 0.32416 0.82655 0.96447 0.0
C863 C 0.34201 0.83838 0.93794 0.0
C864 C 0.35585 0.85887 0.95389 0.0
C865 C 0.35188 0.86749 0.99573 0.0
C866 C 0.37513 0.81539 0.83785 0.0
C867 C 0.35538 0.81522 0.80775 0.0
C868 C 0.37069 0.8227 0.88027 0.0
C869 C 0.34633 0.82943 0.89362 0.0
C870 C 0.32639 0.82846 0.86405 0.0
C871 C 0.33092 0.82168 0.82131 0.0
H872 H 0.8122 0.65335 0.95766 0.0
H873 H 0.88875 0.65082 0.0055 0.0
H874 H 0.79633 0.64936 0.03085 0.0
H875 H 0.87273 0.6467 0.07857 0.0
H876 H 0.83567 0.66098 0.2072 0.0
H877 H 0.84815 0.67119 0.13389 0.0
H878 H 0.79718 0.6144 0.08563 0.0
H879 H 0.78449 0.60417 0.15885 0.0
C880 C 0.82565 0.6521 0.98374 0.0
C881 C 0.85177 0.65223 0.97571 0.0
C882 C 0.81652 0.64974 0.02559 0.0
C883 C 0.83331 0.64771 0.06024 0.0
C884 C 0.85939 0.64849 0.05241 0.0
C885 C 0.86854 0.65064 0.01054 0.0
C886 C 0.82679 0.65091 0.18099 0.0
C887 C 0.8092 0.63161 0.18891 0.0
C888 C 0.83409 0.65668 0.13906 0.0
C889 C 0.82377 0.64344 0.10425 0.0
C890 C 0.80532 0.62499 0.11194 0.0
C891 C 0.79816 0.61906 0.15388 0.0
H892 H 0.64618 0.083 0.99282 0.0
H893 H 0.66033 0.16039 0.02946 0.0
H894 H 0.64109 0.09626 0.91831 0.0
H895 H 0.65551 0.17341 0.95503 0.0
H896 H 0.60999 0.18838 0.83112 0.0
H897 H 0.61939 0.17568 0.90452 0.0
H898 H 0.66545 0.1146 0.8571 0.0
H899 H 0.65591 0.12704 0.78351 0.0
C900 C 0.64839 0.10277 0.98502 0.0
C901 C 0.65344 0.12064 0.01722 0.0
C902 C 0.64563 0.11032 0.94231 0.0
C903 C 0.64778 0.13587 0.93104 0.0
C904 C 0.65342 0.15364 0.96298 0.0
C905 C 0.65627 0.14611 0.00559 0.0
C906 C 0.62225 0.17234 0.83625 0.0
C907 C 0.63213 0.1587 0.80141 0.0
C908 C 0.62774 0.16516 0.87831 0.0
C909 C 0.64311 0.14414 0.88641 0.0
C910 C 0.65334 0.13073 0.85169 0.0
C911 C 0.64799 0.13799 0.80959 0.0
H912 H 0.16205 0.66329 0.78048 0.0
H913 H 0.17329 0.58476 0.81257 0.0
H914 H 0.15083 0.67197 0.85554 0.0
H915 H 0.16173 0.59351 0.88678 0.0
H916 H 0.10197 0.6159 0.99003 0.0
H917 H 0.11678 0.60975 0.91659 0.0
H918 H 0.1737 0.66682 0.93531 0.0
H919 H 0.15922 0.67279 0.00954 0.0
C920 C 0.16231 0.64798 0.80351 0.0
C921 C 0.1685 0.62335 0.79059 0.0
C922 C 0.15602 0.65298 0.84632 0.0
C923 C 0.15536 0.63334 0.87652 0.0
C924 C 0.16203 0.60889 0.86387 0.0
C925 C 0.16874 0.60397 0.82144 0.0
C926 C 0.11762 0.62719 0.97856 0.0
C927 C 0.12951 0.64476 0.00553 0.0
C928 C 0.12612 0.62359 0.93665 0.0
C929 C 0.14635 0.6378 0.92065 0.0
C930 C 0.15801 0.65572 0.94714 0.0
C931 C 0.14982 0.659 0.9895 0.0
H932 H 0.58614 0.82218 0.18613 0.0
H933 H 0.66513 0.8312 0.21671 0.0
H934 H 0.59444 0.83603 0.11256 0.0
H935 H 0.6734 0.84451 0.14256 0.0
H936 H 0.67361 0.8338 0.98958 0.0
H937 H 0.66742 0.82132 0.0646 0.0
H938 H 0.61217 0.8803 0.08002 0.0
H939 H 0.61869 0.89326 0.00532 0.0
C940 C 0.60531 0.82685 0.17701 0.0
C941 C 0.62502 0.82554 0.2071 0.0
C942 C 0.60997 0.83494 0.13507 0.0
C943 C 0.6345 0.84137 0.1222 0.0
C944 C 0.65434 0.8396 0.15189 0.0
C945 C 0.64959 0.83204 0.19418 0.0
C946 C 0.66027 0.84421 0.00908 0.0
C947 C 0.64658 0.86447 0.99163 0.0
C948 C 0.65684 0.83713 0.05193 0.0
C949 C 0.63928 0.84983 0.07775 0.0
C950 C 0.62574 0.87019 0.06052 0.0
C951 C 0.62956 0.87764 0.01795 0.0
H952 H 0.78886 0.37123 0.81959 0.0
H953 H 0.84621 0.32179 0.76816 0.0
H954 H 0.80186 0.36032 0.89219 0.0
H955 H 0.8591 0.31077 0.84118 0.0
H956 H 0.89506 0.33122 0.97471 0.0
H957 H 0.88026 0.33475 0.90077 0.0
H958 H 0.80351 0.32457 0.94379 0.0
H959 H 0.81811 0.32122 0.01769 0.0
C960 C 0.80403 0.35778 0.82375 0.0
C961 C 0.81657 0.34747 0.78805 0.0
C962 C 0.81138 0.35142 0.86539 0.0
C963 C 0.83155 0.33476 0.87233 0.0
C964 C 0.84363 0.32383 0.83672 0.0
C965 C 0.83611 0.33001 0.79496 0.0
C966 C 0.87505 0.32953 0.96843 0.0
C967 C 0.85777 0.32622 0.00229 0.0
C968 C 0.8666 0.33137 0.92601 0.0
C969 C 0.84072 0.33006 0.91658 0.0
C970 C 0.82354 0.32594 0.95019 0.0
C971 C 0.83196 0.32395 0.99253 0.0
H972 H 0.35788 0.09333 0.00716 0.0
H973 H 0.3055 0.15453 0.98619 0.0
H974 H 0.36427 0.10757 0.08095 0.0
H975 H 0.31165 0.16839 0.06058 0.0
H976 H 0.3155 0.16146 0.2151 0.0
H977 H 0.3054 0.14765 0.14181 0.0
H978 H 0.38416 0.15201 0.10785 0.0
H979 H 0.39431 0.16624 0.18024 0.0
C980 C 0.34746 0.10958 0.01847 0.0
C981 C 0.3313 0.1229 0.99081 0.0
C982 C 0.35121 0.11775 0.06058 0.0
C983 C 0.33851 0.13909 0.07611 0.0
C984 C 0.32158 0.15185 0.04919 0.0
C985 C 0.31818 0.14398 0.00671 0.0
C986 C 0.33059 0.15969 0.19183 0.0
C987 C 0.35568 0.16499 0.2034 0.0
C988 C 0.3248 0.15185 0.15004 0.0
C989 C 0.34407 0.14864 0.1196 0.0
C990 C 0.36904 0.15419 0.13098 0.0
C991 C 0.37477 0.1625 0.17232 0.0
H992 H 0.67402 0.82831 0.47568 0.0
H993 H 0.5979 0.82791 0.52563 0.0
H994 H 0.69042 0.83007 0.54907 0.0
H995 H 0.61427 0.82986 0.59839 0.0
H996 H 0.64911 0.81763 0.72638 0.0
H997 H 0.63888 0.80599 0.65274 0.0
H998 H 0.68925 0.86369 0.60561 0.0
H999 H 0.69979 0.87524 0.67908 0.0
C1000 C 0.66082 0.82832 0.50224 0.0
C1001 C 0.63466 0.82826 0.49484 0.0
C1002 C 0.67021 0.8294 0.54417 0.0
C1003 C 0.65362 0.8301 0.57936 0.0
C1004 C 0.62753 0.82902 0.57194 0.0
C1005 C 0.61815 0.82818 0.53018 0.0
C1006 C 0.65839 0.82755 0.70039 0.0
C1007 C 0.67499 0.84764 0.70869 0.0
C1008 C 0.65244 0.82092 0.65822 0.0
C1009 C 0.66307 0.83411 0.62353 0.0
C1010 C 0.68089 0.85309 0.63173 0.0
C1011 C 0.68676 0.85982 0.67388 0.0
H1012 H 0.85288 0.39029 0.48222 0.0
H1013 H 0.80208 0.32825 0.50755 0.0
H1014 H 0.85826 0.37548 0.40857 0.0
H1015 H 0.80724 0.31383 0.4332 0.0
H1016 H 0.81209 0.3212 0.27586 0.0
H1017 H 0.80098 0.33579 0.34839 0.0
H1018 H 0.87864 0.32816 0.38732 0.0
H1019 H 0.88978 0.31316 0.31592 0.0
C1020 C 0.8425 0.37379 0.47189 0.0
C1021 C 0.82723 0.36031 0.50079 0.0
C1022 C 0.84564 0.36534 0.42983 0.0
C1023 C 0.83321 0.34355 0.41565 0.0
C1024 C 0.81692 0.33074 0.44363 0.0
C1025 C 0.81411 0.33893 0.48607 0.0
C1026 C 0.82669 0.32236 0.3001 0.0
C1027 C 0.85179 0.31598 0.29019 0.0
C1028 C 0.82032 0.33066 0.3414 0.0
C1029 C 0.83906 0.33321 0.37291 0.0
C1030 C 0.86396 0.32646 0.36328 0.0
C1031 C 0.87024 0.31772 0.32249 0.0
H1032 H 0.28519 0.11113 0.67387 0.0
H1033 H 0.33986 0.16369 0.72472 0.0
H1034 H 0.29818 0.12194 0.60112 0.0
H1035 H 0.35272 0.17458 0.65168 0.0
H1036 H 0.39169 0.15306 0.52142 0.0
H1037 H 0.37567 0.15024 0.59468 0.0
H1038 H 0.29942 0.1568 0.54738 0.0
H1039 H 0.31529 0.15946 0.47404 0.0
C1040 C 0.29968 0.1253 0.66953 0.0
C1041 C 0.31157 0.13644 0.70513 0.0
C1042 C 0.30703 0.13158 0.62781 0.0
C1043 C 0.32657 0.14899 0.62076 0.0
C1044 C 0.33778 0.16091 0.65624 0.0
C1045 C 0.33025 0.15481 0.69802 0.0
C1046 C 0.37152 0.1541 0.52659 0.0
C1047 C 0.35479 0.15623 0.49173 0.0
C1048 C 0.36236 0.15269 0.56862 0.0
C1049 C 0.33629 0.15323 0.57669 0.0
C1050 C 0.3196 0.1561 0.54204 0.0
C1051 C 0.32874 0.15769 0.50004 0.0
H1052 H 0.15446 0.59564 0.47186 0.0
H1053 H 0.14966 0.67123 0.52302 0.0
H1054 H 0.14996 0.6122 0.39945 0.0
H1055 H 0.14517 0.68783 0.44997 0.0
H1056 H 0.1009 0.69542 0.31759 0.0
H1057 H 0.11127 0.68443 0.39173 0.0
H1058 H 0.17367 0.63924 0.34708 0.0
H1059 H 0.16344 0.64996 0.27322 0.0
C1060 C 0.1526 0.61583 0.46765 0.0
C1061 C 0.15231 0.63212 0.50321 0.0
C1062 C 0.15022 0.62532 0.42611 0.0
C1063 C 0.14727 0.6513 0.41915 0.0
C1064 C 0.14731 0.66771 0.45455 0.0
C1065 C 0.15001 0.65821 0.49625 0.0
C1066 C 0.11706 0.68344 0.32358 0.0
C1067 C 0.13112 0.67334 0.28933 0.0
C1068 C 0.12305 0.67727 0.36606 0.0
C1069 C 0.1431 0.66079 0.37501 0.0
C1070 C 0.1579 0.65171 0.34099 0.0
C1071 C 0.15204 0.65796 0.29866 0.0
H1072 H 0.59505 0.15024 0.4861 0.0
H1073 H 0.67126 0.16082 0.53234 0.0
H1074 H 0.61075 0.14829 0.41275 0.0
H1075 H 0.68685 0.15902 0.45864 0.0
H1076 H 0.70053 0.11195 0.33228 0.0
H1077 H 0.68881 0.12343 0.4053 0.0
H1078 H 0.6322 0.1743 0.35604 0.0
H1079 H 0.64366 0.16275 0.28286 0.0
C1080 C 0.61512 0.15236 0.48062 0.0
C1081 C 0.63194 0.15539 0.51508 0.0
C1082 C 0.62406 0.1515 0.43857 0.0
C1083 C 0.65 0.15351 0.43018 0.0
C1084 C 0.66678 0.15727 0.4644 0.0
C1085 C 0.65782 0.15834 0.5065 0.0
C1086 C 0.68584 0.12586 0.33693 0.0
C1087 C 0.67279 0.13617 0.30177 0.0
C1088 C 0.67927 0.13256 0.37875 0.0
C1089 C 0.65948 0.14958 0.38615 0.0
C1090 C 0.64734 0.16091 0.35107 0.0
C1091 C 0.654 0.15435 0.30923 0.0
H1092 H 0.10487 0.27809 0.65668 0.0
H1093 H 0.16532 0.32508 0.70454 0.0
H1094 H 0.11625 0.28948 0.58327 0.0
H1095 H 0.17661 0.33626 0.63116 0.0
H1096 H 0.15382 0.30475 0.45357 0.0
H1097 H 0.15062 0.28751 0.52631 0.0
H1098 H 0.15264 0.36292 0.57828 0.0
H1099 H 0.15584 0.38015 0.50605 0.0
C1100 C 0.12085 0.29046 0.6516 0.0
C1101 C 0.13396 0.30091 0.68659 0.0
C1102 C 0.12744 0.29685 0.60952 0.0
C1103 C 0.14714 0.31394 0.60165 0.0
C1104 C 0.16114 0.32328 0.63642 0.0
C1105 C 0.1547 0.31676 0.67844 0.0
C1106 C 0.15389 0.31761 0.48057 0.0
C1107 C 0.1549 0.34383 0.47406 0.0
C1108 C 0.15196 0.30774 0.52211 0.0
C1109 C 0.15142 0.32389 0.55783 0.0
C1110 C 0.15332 0.35001 0.55135 0.0
C1111 C 0.15493 0.35988 0.50994 0.0
H1112 H 0.30665 0.83135 0.54018 0.0
H1113 H 0.38245 0.82763 0.48924 0.0
H1114 H 0.29005 0.83454 0.46706 0.0
H1115 H 0.36587 0.83095 0.4167 0.0
H1116 H 0.28125 0.87835 0.33548 0.0
H1117 H 0.29236 0.86778 0.40929 0.0
H1118 H 0.33979 0.80732 0.36364 0.0
H1119 H 0.32896 0.8179 0.28979 0.0
C1120 C 0.31974 0.83101 0.51346 0.0
C1121 C 0.34589 0.82944 0.52054 0.0
C1122 C 0.31023 0.83292 0.47168 0.0
C1123 C 0.32667 0.83294 0.43627 0.0
C1124 C 0.35272 0.83066 0.44335 0.0
C1125 C 0.36223 0.82901 0.48498 0.0
C1126 C 0.29375 0.86255 0.34113 0.0
C1127 C 0.30445 0.84919 0.30663 0.0
C1128 C 0.29997 0.85641 0.38346 0.0
C1129 C 0.31712 0.8369 0.3921 0.0
C1130 C 0.32677 0.82268 0.3578 0.0
C1131 C 0.32045 0.82869 0.31551 0.0
H1132 H 0.87665 0.69339 0.65917 0.0
H1133 H 0.82264 0.63904 0.70701 0.0
H1134 H 0.86699 0.68057 0.58578 0.0
H1135 H 0.81302 0.62643 0.63362 0.0
H1136 H 0.8322 0.58885 0.5026 0.0
H1137 H 0.83742 0.60377 0.57615 0.0
H1138 H 0.83151 0.68075 0.53226 0.0
H1139 H 0.82642 0.666 0.45867 0.0
C1140 C 0.86253 0.67893 0.65408 0.0
C1141 C 0.85051 0.66719 0.68903 0.0
C1142 C 0.85694 0.67168 0.61204 0.0
C1143 C 0.83937 0.65241 0.60412 0.0
C1144 C 0.82686 0.64114 0.6389 0.0
C1145 C 0.83227 0.64852 0.6809 0.0
C1146 C 0.8319 0.60895 0.5086 0.0
C1147 C 0.82902 0.62621 0.47468 0.0
C1148 C 0.83473 0.61748 0.55075 0.0
C1149 C 0.83491 0.64342 0.5598 0.0
C1150 C 0.83167 0.66066 0.52607 0.0
C1151 C 0.82863 0.65216 0.48398 0.0
H1152 H 0.32192 0.23342 0.40827 0.0
H1153 H 0.35523 0.26431 0.29301 0.0
H1154 H 0.29179 0.26803 0.41007 0.0
H1155 H 0.32446 0.29855 0.29391 0.0
H1156 H 0.26618 0.36081 0.31489 0.0
H1157 H 0.30385 0.33552 0.32899 0.0
H1158 H 0.25663 0.2716 0.35963 0.0
H1159 H 0.21935 0.29655 0.3464 0.0
C1160 C 0.32305 0.24792 0.3838 0.0
C1161 C 0.34039 0.24601 0.34995 0.0
C1162 C 0.30583 0.26765 0.38479 0.0
C1163 C 0.30542 0.28551 0.35149 0.0
C1164 C 0.32438 0.285 0.31996 0.0
C1165 C 0.3419 0.26539 0.31934 0.0
C1166 C 0.2639 0.34138 0.32486 0.0
C1167 C 0.23976 0.33065 0.32934 0.0
C1168 C 0.28544 0.32699 0.33296 0.0
C1169 C 0.28312 0.30177 0.34596 0.0
C1170 C 0.25901 0.29119 0.35069 0.0
C1171 C 0.2376 0.30544 0.34253 0.0
H1172 H 0.26456 0.62497 0.69653 0.0
H1173 H 0.23338 0.65665 0.58034 0.0
H1174 H 0.29949 0.65489 0.693 0.0
H1175 H 0.26882 0.68574 0.57551 0.0
H1176 H 0.29886 0.75892 0.6346 0.0
H1177 H 0.27374 0.72182 0.62152 0.0
H1178 H 0.33634 0.67439 0.65859 0.0
H1179 H 0.36169 0.71195 0.67285 0.0
C1180 C 0.26576 0.63772 0.6694 0.0
C1181 C 0.24615 0.63911 0.63929 0.0
C1182 C 0.28578 0.65474 0.66722 0.0
C1183 C 0.28649 0.67303 0.63453 0.0
C1184 C 0.26833 0.6723 0.60171 0.0
C1185 C 0.24813 0.65568 0.60439 0.0
C1186 C 0.30745 0.74065 0.63977 0.0
C1187 C 0.33222 0.73844 0.6552 0.0
C1188 C 0.29311 0.71931 0.63168 0.0
C1189 C 0.30318 0.69516 0.63857 0.0
C1190 C 0.32813 0.6928 0.65309 0.0
C1191 C 0.34258 0.71428 0.66126 0.0
H1192 H 0.68034 0.76148 0.37177 0.0
H1193 H 0.61721 0.71659 0.32811 0.0
H1194 H 0.7057 0.72404 0.37803 0.0
H1195 H 0.64284 0.6785 0.33563 0.0
H1196 H 0.71367 0.63158 0.28691 0.0
H1197 H 0.67893 0.66113 0.29701 0.0
H1198 H 0.71211 0.68575 0.41674 0.0
H1199 H 0.74742 0.65716 0.40532 0.0
C1200 C 0.67171 0.74355 0.36401 0.0
C1201 C 0.64681 0.74209 0.34891 0.0
C1202 C 0.68622 0.72195 0.36821 0.0
C1203 C 0.6762 0.69825 0.3577 0.0
C1204 C 0.65105 0.69656 0.34381 0.0
C1205 C 0.63642 0.71834 0.33952 0.0
C1206 C 0.71314 0.64293 0.31581 0.0
C1207 C 0.73338 0.64274 0.3448 0.0
C1208 C 0.69319 0.65971 0.32179 0.0
C1209 C 0.69314 0.67615 0.35719 0.0
C1210 C 0.71206 0.67381 0.38853 0.0
C1211 C 0.73221 0.65748 0.38208 0.0
H1212 H 0.71721 0.35441 0.6976 0.0
H1213 H 0.74854 0.32285 0.58134 0.0
H1214 H 0.6824 0.32443 0.69409 0.0
H1215 H 0.71326 0.29356 0.57681 0.0
H1216 H 0.68352 0.22038 0.63728 0.0
H1217 H 0.70862 0.25753 0.6241 0.0
H1218 H 0.64554 0.30492 0.65886 0.0
H1219 H 0.62016 0.26733 0.67307 0.0
C1220 C 0.71611 0.34167 0.67048 0.0
C1221 C 0.73577 0.34035 0.64037 0.0
C1222 C 0.69613 0.3246 0.66833 0.0
C1223 C 0.69552 0.30631 0.63573 0.0
C1224 C 0.71369 0.30706 0.60291 0.0
C1225 C 0.73381 0.32379 0.60545 0.0
C1226 C 0.67483 0.23865 0.64198 0.0
C1227 C 0.64989 0.24087 0.65665 0.0
C1228 C 0.68916 0.26001 0.63381 0.0
C1229 C 0.67892 0.28413 0.63995 0.0
C1230 C 0.65385 0.2865 0.65389 0.0
C1231 C 0.6394 0.26501 0.66207 0.0
H1232 H 0.77136 0.86504 0.8441 0.0
H1233 H 0.72354 0.80646 0.89632 0.0
H1234 H 0.80761 0.83695 0.84952 0.0
H1235 H 0.75908 0.77835 0.89975 0.0
H1236 H 0.8464 0.76591 0.78983 0.0
H1237 H 0.81972 0.8018 0.80757 0.0
H1238 H 0.79788 0.76519 0.92624 0.0
H1239 H 0.82326 0.7287 0.90672 0.0
C1240 C 0.76863 0.84635 0.8573 0.0
C1241 C 0.74446 0.83776 0.86876 0.0
C1242 C 0.78937 0.83023 0.8602 0.0
C1243 C 0.78621 0.80524 0.87429 0.0
C1244 C 0.7624 0.79749 0.88909 0.0
C1245 C 0.74182 0.81361 0.88665 0.0
C1246 C 0.83606 0.7658 0.81986 0.0
C1247 C 0.83617 0.74447 0.84638 0.0
C1248 C 0.82101 0.78645 0.83038 0.0
C1249 C 0.80632 0.78622 0.86809 0.0
C1250 C 0.80837 0.76567 0.89638 0.0
C1251 C 0.82285 0.7448 0.88527 0.0
H1252 H 0.77334 0.11746 0.16739 0.0
H1253 H 0.72561 0.17634 0.116 0.0
H1254 H 0.81038 0.14356 0.15362 0.0
H1255 H 0.76209 0.20243 0.1039 0.0
H1256 H 0.85386 0.21667 0.19742 0.0
H1257 H 0.82605 0.18056 0.18857 0.0
H1258 H 0.80011 0.21091 0.06735 0.0
H1259 H 0.82692 0.24772 0.07769 0.0
C1260 C 0.77075 0.13581 0.1528 0.0
C1261 C 0.74649 0.14504 0.14362 0.0
C1262 C 0.79195 0.15074 0.14496 0.0
C1263 C 0.7892 0.17512 0.12795 0.0
C1264 C 0.76504 0.18362 0.1164 0.0
C1265 C 0.74398 0.16872 0.12396 0.0
C1266 C 0.84257 0.21528 0.16851 0.0
C1267 C 0.84186 0.23514 0.13881 0.0
C1268 C 0.8268 0.1945 0.16318 0.0
C1269 C 0.81047 0.19315 0.12766 0.0
C1270 C 0.81194 0.2118 0.09567 0.0
C1271 C 0.82724 0.23282 0.10152 0.0
H1272 H 0.17538 0.25523 0.88186 0.0
H1273 H 0.11656 0.2067 0.83254 0.0
H1274 H 0.20118 0.21895 0.89688 0.0
H1275 H 0.14229 0.1699 0.84936 0.0
H1276 H 0.24784 0.15544 0.92199 0.0
H1277 H 0.2106 0.18148 0.93368 0.0
H1278 H 0.17877 0.15385 0.81469 0.0
H1279 H 0.21525 0.12688 0.8046 0.0
C1280 C 0.16768 0.23674 0.8751 0.0
C1281 C 0.1442 0.2339 0.85487 0.0
C1282 C 0.1824 0.21579 0.88435 0.0
C1283 C 0.1739 0.19145 0.874 0.0
C1284 C 0.14954 0.18845 0.85698 0.0
C1285 C 0.13483 0.20952 0.84733 0.0
C1286 C 0.23252 0.15455 0.89902 0.0
C1287 C 0.23455 0.13977 0.86186 0.0
C1288 C 0.21124 0.16942 0.90565 0.0
C1289 C 0.19205 0.17028 0.87453 0.0
C1290 C 0.19311 0.15362 0.83945 0.0
C1291 C 0.21414 0.13831 0.83337 0.0
H1292 H 0.17773 0.72459 0.1041 0.0
H1293 H 0.11609 0.77075 0.14995 0.0
H1294 H 0.2037 0.76153 0.09656 0.0
H1295 H 0.1421 0.80831 0.14064 0.0
H1296 H 0.21214 0.85134 0.19773 0.0
H1297 H 0.17683 0.82368 0.18147 0.0
H1298 H 0.21402 0.80018 0.06437 0.0
H1299 H 0.24999 0.82677 0.08229 0.0
C1300 C 0.16949 0.74273 0.11169 0.0
C1301 C 0.14505 0.74463 0.12874 0.0
C1302 C 0.18434 0.76409 0.10674 0.0
C1303 C 0.17506 0.78794 0.11833 0.0
C1304 C 0.14991 0.79013 0.13215 0.0
C1305 C 0.13502 0.76863 0.13741 0.0
C1306 C 0.21245 0.84061 0.16813 0.0
C1307 C 0.23392 0.84048 0.14185 0.0
C1308 C 0.19213 0.82494 0.15851 0.0
C1309 C 0.19286 0.8093 0.12203 0.0
C1310 C 0.21324 0.81143 0.09337 0.0
C1311 C 0.2338 0.82661 0.10355 0.0
loop_
_geom_bond_atom_site_label_1
_geom_bond_atom_site_label_2
_geom_bond_distance
_geom_bond_site_symmetry_2
_ccdc_geom_bond_type
Sc0 O3 2.025 . S
Sc0 O10 2.105 . S
Sc0 O13 2.105 . S
Sc0 O16 2.105 . S
Sc0 O19 2.105 . S
Sc1 O3 2.025 . S
Sc1 O11 2.105 . S
Sc1 O15 2.105 . S
Sc1 O17 2.105 . S
Sc1 O21 2.105 . S
Sc2 O3 2.025 . S
Sc2 O12 2.105 . S
Sc2 O14 2.105 . S
Sc2 O18 2.105 . S
Sc2 O20 2.105 . S
O3 Sc0 2.025 . S
O3 Sc1 2.025 . S
O3 Sc2 2.025 . S
C4 O10 1.268 . S
C4 O20 1.268 . S
C5 O11 1.268 . S
C5 O19 1.268 . S
C6 O12 1.268 . S
C6 O21 1.268 . S
C7 O13 1.268 . S
C7 O17 1.268 . S
C8 O14 1.268 . S
C8 O16 1.268 . S
C9 O15 1.268 . S
C9 O18 1.268 . S
O10 Sc0 2.105 . S
O10 C4 1.268 . S
O11 Sc1 2.105 . S
O11 C5 1.268 . S
O12 Sc2 2.105 . S
O12 C6 1.268 . S
O13 Sc0 2.105 . S
O13 C7 1.268 . S
O14 Sc2 2.105 . S
O14 C8 1.268 . S
O15 Sc1 2.105 . S
O15 C9 1.268 . S
O16 Sc0 2.105 . S
O16 C8 1.268 . S
O17 Sc1 2.105 . S
O17 C7 1.268 . S
O18 Sc2 2.105 . S
O18 C9 1.268 . S
O19 Sc0 2.105 . S
O19 C5 1.268 . S
O20 Sc2 2.105 . S
O20 C4 1.268 . S
O21 Sc1 2.105 . S
O21 C6 1.268 . S
Sc22 O25 2.025 . S
Sc22 O32 2.105 . S
Sc22 O35 2.105 . S
Sc22 O38 2.105 . S
Sc22 O41 2.105 . S
Sc23 O25 2.025 . S
Sc23 O33 2.105 . S
Sc23 O37 2.105 . S
Sc23 O39 2.105 . S
Sc23 O43 2.105 . S
Sc24 O25 2.025 . S
Sc24 O34 2.105 . S
Sc24 O36 2.105 . S
Sc24 O40 2.105 . S
Sc24 O42 2.105 . S
O25 Sc22 2.025 . S
O25 Sc23 2.025 . S
O25 Sc24 2.025 . S
C26 O32 1.268 . S
C26 O42 1.268 . S
C27 O33 1.268 . S
C27 O41 1.268 . S
C28 O34 1.268 . S
C28 O43 1.268 . S
C29 O35 1.268 . S
C29 O39 1.268 . S
C30 O36 1.268 . S
C30 O38 1.268 . S
C31 O37 1.268 . S
C31 O40 1.268 . S
O32 Sc22 2.105 . S
O32 C26 1.268 . S
O33 Sc23 2.105 . S
O33 C27 1.268 . S
O34 Sc24 2.105 . S
O34 C28 1.268 . S
O35 Sc22 2.105 . S
O35 C29 1.268 . S
O36 Sc24 2.105 . S
O36 C30 1.268 . S
O37 Sc23 2.105 . S
O37 C31 1.268 . S
O38 Sc22 2.105 . S
O38 C30 1.268 . S
O39 Sc23 2.105 . S
O39 C29 1.268 . S
O40 Sc24 2.105 . S
O40 C31 1.268 . S
O41 Sc22 2.105 . S
O41 C27 1.268 . S
O42 Sc24 2.105 . S
O42 C26 1.268 . S
O43 Sc23 2.105 . S
O43 C28 1.268 . S
Sc44 O47 2.025 . S
Sc44 O54 2.105 . S
Sc44 O57 2.105 . S
Sc44 O60 2.105 . S
Sc44 O63 2.105 . S
Sc45 O47 2.025 . S
Sc45 O55 2.105 . S
Sc45 O59 2.105 . S
Sc45 O61 2.105 . S
Sc45 O65 2.105 . S
Sc46 O47 2.025 . S
Sc46 O56 2.105 . S
Sc46 O58 2.105 . S
Sc46 O62 2.105 . S
Sc46 O64 2.105 . S
O47 Sc44 2.025 . S
O47 Sc45 2.025 . S
O47 Sc46 2.025 . S
C48 O54 1.268 . S
C48 O64 1.268 . S
C49 O55 1.268 . S
C49 O63 1.268 . S
C50 O56 1.268 . S
C50 O65 1.268 . S
C51 O57 1.268 . S
C51 O61 1.268 . S
C52 O58 1.268 . S
C52 O60 1.268 . S
C53 O59 1.268 . S
C53 O62 1.268 . S
O54 Sc44 2.105 . S
O54 C48 1.268 . S
O55 Sc45 2.105 . S
O55 C49 1.268 . S
O56 Sc46 2.105 . S
O56 C50 1.268 . S
O57 Sc44 2.105 . S
O57 C51 1.268 . S
O58 Sc46 2.105 . S
O58 C52 1.268 . S
O59 Sc45 2.105 . S
O59 C53 1.268 . S
O60 Sc44 2.105 . S
O60 C52 1.268 . S
O61 Sc45 2.105 . S
O61 C51 1.268 . S
O62 Sc46 2.105 . S
O62 C53 1.268 . S
O63 Sc44 2.105 . S
O63 C49 1.268 . S
O64 Sc46 2.105 . S
O64 C48 1.268 . S
O65 Sc45 2.105 . S
O65 C50 1.268 . S
Sc66 O69 2.025 . S
Sc66 O76 2.105 . S
Sc66 O79 2.105 . S
Sc66 O82 2.105 . S
Sc66 O85 2.105 . S
Sc67 O69 2.025 . S
Sc67 O77 2.105 . S
Sc67 O81 2.105 . S
Sc67 O83 2.105 . S
Sc67 O87 2.105 . S
Sc68 O69 2.025 . S
Sc68 O78 2.105 . S
Sc68 O80 2.105 . S
Sc68 O84 2.105 . S
Sc68 O86 2.105 . S
O69 Sc66 2.025 . S
O69 Sc67 2.025 . S
O69 Sc68 2.025 . S
C70 O76 1.268 . S
C70 O86 1.268 . S
C71 O77 1.268 . S
C71 O85 1.268 . S
C72 O78 1.268 . S
C72 O87 1.268 . S
C73 O79 1.268 . S
C73 O83 1.268 . S
C74 O80 1.268 . S
C74 O82 1.268 . S
C75 O81 1.268 . S
C75 O84 1.268 . S
O76 Sc66 2.105 . S
O76 C70 1.268 . S
O77 Sc67 2.105 . S
O77 C71 1.268 . S
O78 Sc68 2.105 . S
O78 C72 1.268 . S
O79 Sc66 2.105 . S
O79 C73 1.268 . S
O80 Sc68 2.105 . S
O80 C74 1.268 . S
O81 Sc67 2.105 . S
O81 C75 1.268 . S
O82 Sc66 2.105 . S
O82 C74 1.268 . S
O83 Sc67 2.105 . S
O83 C73 1.268 . S
O84 Sc68 2.105 . S
O84 C75 1.268 . S
O85 Sc66 2.105 . S
O85 C71 1.268 . S
O86 Sc68 2.105 . S
O86 C70 1.268 . S
O87 Sc67 2.105 . S
O87 C72 1.268 . S
Sc88 O91 2.025 . S
Sc88 O98 2.105 . S
Sc88 O101 2.105 . S
Sc88 O104 2.105 . S
Sc88 O107 2.105 . S
Sc89 O91 2.025 . S
Sc89 O99 2.105 . S
Sc89 O103 2.105 . S
Sc89 O105 2.105 . S
Sc89 O109 2.105 . S
Sc90 O91 2.025 . S
Sc90 O100 2.105 . S
Sc90 O102 2.105 . S
Sc90 O106 2.105 . S
Sc90 O108 2.105 . S
O91 Sc88 2.025 . S
O91 Sc89 2.025 . S
O91 Sc90 2.025 . S
C92 O98 1.268 . S
C92 O108 1.268 . S
C93 O99 1.268 . S
C93 O107 1.268 . S
C94 O100 1.268 . S
C94 O109 1.268 . S
C95 O101 1.268 . S
C95 O105 1.268 . S
C96 O102 1.268 . S
C96 O104 1.268 . S
C97 O103 1.268 . S
C97 O106 1.268 . S
O98 Sc88 2.105 . S
O98 C92 1.268 . S
O99 Sc89 2.105 . S
O99 C93 1.268 . S
O100 Sc90 2.105 . S
O100 C94 1.268 . S
O101 Sc88 2.105 . S
O101 C95 1.268 . S
O102 Sc90 2.105 . S
O102 C96 1.268 . S
O103 Sc89 2.105 . S
O103 C97 1.268 . S
O104 Sc88 2.105 . S
O104 C96 1.268 . S
O105 Sc89 2.105 . S
O105 C95 1.268 . S
O106 Sc90 2.105 . S
O106 C97 1.268 . S
O107 Sc88 2.105 . S
O107 C93 1.268 . S
O108 Sc90 2.105 . S
O108 C92 1.268 . S
O109 Sc89 2.105 . S
O109 C94 1.268 . S
Sc110 O113 2.025 . S
Sc110 O120 2.105 . S
Sc110 O123 2.105 . S
Sc110 O126 2.105 . S
Sc110 O129 2.105 . S
Sc111 O113 2.025 . S
Sc111 O121 2.105 . S
Sc111 O125 2.105 . S
Sc111 O127 2.105 . S
Sc111 O131 2.105 . S
Sc112 O113 2.025 . S
Sc112 O122 2.105 . S
Sc112 O124 2.105 . S
Sc112 O128 2.105 . S
Sc112 O130 2.105 . S
O113 Sc110 2.025 . S
O113 Sc111 2.025 . S
O113 Sc112 2.025 . S
C114 O120 1.268 . S
C114 O130 1.268 . S
C115 O121 1.268 . S
C115 O129 1.268 . S
C116 O122 1.268 . S
C116 O131 1.268 . S
C117 O123 1.268 . S
C117 O127 1.268 . S
C118 O124 1.268 . S
C118 O126 1.268 . S
C119 O125 1.268 . S
C119 O128 1.268 . S
O120 Sc110 2.105 . S
O120 C114 1.268 . S
O121 Sc111 2.105 . S
O121 C115 1.268 . S
O122 Sc112 2.105 . S
O122 C116 1.268 . S
O123 Sc110 2.105 . S
O123 C117 1.268 . S
O124 Sc112 2.105 . S
O124 C118 1.268 . S
O125 Sc111 2.105 . S
O125 C119 1.268 . S
O126 Sc110 2.105 . S
O126 C118 1.268 . S
O127 Sc111 2.105 . S
O127 C117 1.268 . S
O128 Sc112 2.105 . S
O128 C119 1.268 . S
O129 Sc110 2.105 . S
O129 C115 1.268 . S
O130 Sc112 2.105 . S
O130 C114 1.268 . S
O131 Sc111 2.105 . S
O131 C116 1.268 . S
Sc132 O135 2.025 . S
Sc132 O142 2.105 . S
Sc132 O145 2.105 . S
Sc132 O148 2.105 . S
Sc132 O151 2.105 . S
Sc133 O135 2.025 . S
Sc133 O143 2.105 . S
Sc133 O147 2.105 . S
Sc133 O149 2.105 . S
Sc133 O153 2.105 . S
Sc134 O135 2.025 . S
Sc134 O144 2.105 . S
Sc134 O146 2.105 . S
Sc134 O150 2.105 . S
Sc134 O152 2.105 . S
O135 Sc132 2.025 . S
O135 Sc133 2.025 . S
O135 Sc134 2.025 . S
C136 O142 1.268 . S
C136 O152 1.268 . S
C137 O143 1.268 . S
C137 O151 1.268 . S
C138 O144 1.268 . S
C138 O153 1.268 . S
C139 O145 1.268 . S
C139 O149 1.268 . S
C140 O146 1.268 . S
C140 O148 1.268 . S
C141 O147 1.268 . S
C141 O150 1.268 . S
O142 Sc132 2.105 . S
O142 C136 1.268 . S
O143 Sc133 2.105 . S
O143 C137 1.268 . S
O144 Sc134 2.105 . S
O144 C138 1.268 . S
O145 Sc132 2.105 . S
O145 C139 1.268 . S
O146 Sc134 2.105 . S
O146 C140 1.268 . S
O147 Sc133 2.105 . S
O147 C141 1.268 . S
O148 Sc132 2.105 . S
O148 C140 1.268 . S
O149 Sc133 2.105 . S
O149 C139 1.268 . S
O150 Sc134 2.105 . S
O150 C141 1.268 . S
O151 Sc132 2.105 . S
O151 C137 1.268 . S
O152 Sc134 2.105 . S
O152 C136 1.268 . S
O153 Sc133 2.105 . S
O153 C138 1.268 . S
Sc154 O157 2.025 . S
Sc154 O164 2.105 . S
Sc154 O167 2.105 . S
Sc154 O170 2.105 . S
Sc154 O173 2.105 . S
Sc155 O157 2.025 . S
Sc155 O165 2.105 . S
Sc155 O169 2.105 . S
Sc155 O171 2.105 . S
Sc155 O175 2.105 . S
Sc156 O157 2.025 . S
Sc156 O166 2.105 . S
Sc156 O168 2.105 . S
Sc156 O172 2.105 . S
Sc156 O174 2.105 . S
O157 Sc154 2.025 . S
O157 Sc155 2.025 . S
O157 Sc156 2.025 . S
C158 O164 1.268 . S
C158 O174 1.268 . S
C159 O165 1.268 . S
C159 O173 1.268 . S
C160 O166 1.268 . S
C160 O175 1.268 . S
C161 O167 1.268 . S
C161 O171 1.268 . S
C162 O168 1.268 . S
C162 O170 1.268 . S
C163 O169 1.268 . S
C163 O172 1.268 . S
O164 Sc154 2.105 . S
O164 C158 1.268 . S
O165 Sc155 2.105 . S
O165 C159 1.268 . S
O166 Sc156 2.105 . S
O166 C160 1.268 . S
O167 Sc154 2.105 . S
O167 C161 1.268 . S
O168 Sc156 2.105 . S
O168 C162 1.268 . S
O169 Sc155 2.105 . S
O169 C163 1.268 . S
O170 Sc154 2.105 . S
O170 C162 1.268 . S
O171 Sc155 2.105 . S
O171 C161 1.268 . S
O172 Sc156 2.105 . S
O172 C163 1.268 . S
O173 Sc154 2.105 . S
O173 C159 1.268 . S
O174 Sc156 2.105 . S
O174 C158 1.268 . S
O175 Sc155 2.105 . S
O175 C160 1.268 . S
Sc176 O179 2.025 . S
Sc176 O186 2.105 . S
Sc176 O189 2.105 . S
Sc176 O192 2.105 . S
Sc176 O195 2.105 . S
Sc177 O179 2.025 . S
Sc177 O187 2.105 . S
Sc177 O191 2.105 . S
Sc177 O193 2.105 . S
Sc177 O197 2.105 . S
Sc178 O179 2.025 . S
Sc178 O188 2.105 . S
Sc178 O190 2.105 . S
Sc178 O194 2.105 . S
Sc178 O196 2.105 . S
O179 Sc176 2.025 . S
O179 Sc177 2.025 . S
O179 Sc178 2.025 . S
C180 O186 1.268 . S
C180 O196 1.268 . S
C181 O187 1.268 . S
C181 O195 1.268 . S
C182 O188 1.268 . S
C182 O197 1.268 . S
C183 O189 1.268 . S
C183 O193 1.268 . S
C184 O190 1.268 . S
C184 O192 1.268 . S
C185 O191 1.268 . S
C185 O194 1.268 . S
O186 Sc176 2.105 . S
O186 C180 1.268 . S
O187 Sc177 2.105 . S
O187 C181 1.268 . S
O188 Sc178 2.105 . S
O188 C182 1.268 . S
O189 Sc176 2.105 . S
O189 C183 1.268 . S
O190 Sc178 2.105 . S
O190 C184 1.268 . S
O191 Sc177 2.105 . S
O191 C185 1.268 . S
O192 Sc176 2.105 . S
O192 C184 1.268 . S
O193 Sc177 2.105 . S
O193 C183 1.268 . S
O194 Sc178 2.105 . S
O194 C185 1.268 . S
O195 Sc176 2.105 . S
O195 C181 1.268 . S
O196 Sc178 2.105 . S
O196 C180 1.268 . S
O197 Sc177 2.105 . S
O197 C182 1.268 . S
Sc198 O201 2.025 . S
Sc198 O208 2.105 . S
Sc198 O211 2.105 . S
Sc198 O214 2.105 . S
Sc198 O217 2.105 . S
Sc199 O201 2.025 . S
Sc199 O209 2.105 . S
Sc199 O213 2.105 . S
Sc199 O215 2.105 . S
Sc199 O219 2.105 . S
Sc200 O201 2.025 . S
Sc200 O210 2.105 . S
Sc200 O212 2.105 . S
Sc200 O216 2.105 . S
Sc200 O218 2.105 . S
O201 Sc198 2.025 . S
O201 Sc199 2.025 . S
O201 Sc200 2.025 . S
C202 O208 1.268 . S
C202 O218 1.268 . S
C203 O209 1.268 . S
C203 O217 1.268 . S
C204 O210 1.268 . S
C204 O219 1.268 . S
C205 O211 1.268 . S
C205 O215 1.268 . S
C206 O212 1.268 . S
C206 O214 1.268 . S
C207 O213 1.268 . S
C207 O216 1.268 . S
O208 Sc198 2.105 . S
O208 C202 1.268 . S
O209 Sc199 2.105 . S
O209 C203 1.268 . S
O210 Sc200 2.105 . S
O210 C204 1.268 . S
O211 Sc198 2.105 . S
O211 C205 1.268 . S
O212 Sc200 2.105 . S
O212 C206 1.268 . S
O213 Sc199 2.105 . S
O213 C207 1.268 . S
O214 Sc198 2.105 . S
O214 C206 1.268 . S
O215 Sc199 2.105 . S
O215 C205 1.268 . S
O216 Sc200 2.105 . S
O216 C207 1.268 . S
O217 Sc198 2.105 . S
O217 C203 1.268 . S
O218 Sc200 2.105 . S
O218 C202 1.268 . S
O219 Sc199 2.105 . S
O219 C204 1.268 . S
Sc220 O223 2.025 . S
Sc220 O230 2.105 . S
Sc220 O233 2.105 . S
Sc220 O236 2.105 . S
Sc220 O239 2.105 . S
Sc221 O223 2.025 . S
Sc221 O231 2.105 . S
Sc221 O235 2.105 . S
Sc221 O237 2.105 . S
Sc221 O241 2.105 . S
Sc222 O223 2.025 . S
Sc222 O232 2.105 . S
Sc222 O234 2.105 . S
Sc222 O238 2.105 . S
Sc222 O240 2.105 . S
O223 Sc220 2.025 . S
O223 Sc221 2.025 . S
O223 Sc222 2.025 . S
C224 O230 1.268 . S
C224 O240 1.268 . S
C225 O231 1.268 . S
C225 O239 1.268 . S
C226 O232 1.268 . S
C226 O241 1.268 . S
C227 O233 1.268 . S
C227 O237 1.268 . S
C228 O234 1.268 . S
C228 O236 1.268 . S
C229 O235 1.268 . S
C229 O238 1.268 . S
O230 Sc220 2.105 . S
O230 C224 1.268 . S
O231 Sc221 2.105 . S
O231 C225 1.268 . S
O232 Sc222 2.105 . S
O232 C226 1.268 . S
O233 Sc220 2.105 . S
O233 C227 1.268 . S
O234 Sc222 2.105 . S
O234 C228 1.268 . S
O235 Sc221 2.105 . S
O235 C229 1.268 . S
O236 Sc220 2.105 . S
O236 C228 1.268 . S
O237 Sc221 2.105 . S
O237 C227 1.268 . S
O238 Sc222 2.105 . S
O238 C229 1.268 . S
O239 Sc220 2.105 . S
O239 C225 1.268 . S
O240 Sc222 2.105 . S
O240 C224 1.268 . S
O241 Sc221 2.105 . S
O241 C226 1.268 . S
Sc242 O245 2.025 . S
Sc242 O252 2.105 . S
Sc242 O255 2.105 . S
Sc242 O258 2.105 . S
Sc242 O261 2.105 . S
Sc243 O245 2.025 . S
Sc243 O253 2.105 . S
Sc243 O257 2.105 . S
Sc243 O259 2.105 . S
Sc243 O263 2.105 . S
Sc244 O245 2.025 . S
Sc244 O254 2.105 . S
Sc244 O256 2.105 . S
Sc244 O260 2.105 . S
Sc244 O262 2.105 . S
O245 Sc242 2.025 . S
O245 Sc243 2.025 . S
O245 Sc244 2.025 . S
C246 O252 1.268 . S
C246 O262 1.268 . S
C247 O253 1.268 . S
C247 O261 1.268 . S
C248 O254 1.268 . S
C248 O263 1.268 . S
C249 O255 1.268 . S
C249 O259 1.268 . S
C250 O256 1.268 . S
C250 O258 1.268 . S
C251 O257 1.268 . S
C251 O260 1.268 . S
O252 Sc242 2.105 . S
O252 C246 1.268 . S
O253 Sc243 2.105 . S
O253 C247 1.268 . S
O254 Sc244 2.105 . S
O254 C248 1.268 . S
O255 Sc242 2.105 . S
O255 C249 1.268 . S
O256 Sc244 2.105 . S
O256 C250 1.268 . S
O257 Sc243 2.105 . S
O257 C251 1.268 . S
O258 Sc242 2.105 . S
O258 C250 1.268 . S
O259 Sc243 2.105 . S
O259 C249 1.268 . S
O260 Sc244 2.105 . S
O260 C251 1.268 . S
O261 Sc242 2.105 . S
O261 C247 1.268 . S
O262 Sc244 2.105 . S
O262 C246 1.268 . S
O263 Sc243 2.105 . S
O263 C248 1.268 . S
Sc264 O267 2.025 . S
Sc264 O274 2.105 . S
Sc264 O277 2.105 . S
Sc264 O280 2.105 . S
Sc264 O283 2.105 . S
Sc265 O267 2.025 . S
Sc265 O275 2.105 . S
Sc265 O279 2.105 . S
Sc265 O281 2.105 . S
Sc265 O285 2.105 . S
Sc266 O267 2.025 . S
Sc266 O276 2.105 . S
Sc266 O278 2.105 . S
Sc266 O282 2.105 . S
Sc266 O284 2.105 . S
O267 Sc264 2.025 . S
O267 Sc265 2.025 . S
O267 Sc266 2.025 . S
C268 O274 1.268 . S
C268 O284 1.268 . S
C269 O275 1.268 . S
C269 O283 1.268 . S
C270 O276 1.268 . S
C270 O285 1.268 . S
C271 O277 1.268 . S
C271 O281 1.268 . S
C272 O278 1.268 . S
C272 O280 1.268 . S
C273 O279 1.268 . S
C273 O282 1.268 . S
O274 Sc264 2.105 . S
O274 C268 1.268 . S
O275 Sc265 2.105 . S
O275 C269 1.268 . S
O276 Sc266 2.105 . S
O276 C270 1.268 . S
O277 Sc264 2.105 . S
O277 C271 1.268 . S
O278 Sc266 2.105 . S
O278 C272 1.268 . S
O279 Sc265 2.105 . S
O279 C273 1.268 . S
O280 Sc264 2.105 . S
O280 C272 1.268 . S
O281 Sc265 2.105 . S
O281 C271 1.268 . S
O282 Sc266 2.105 . S
O282 C273 1.268 . S
O283 Sc264 2.105 . S
O283 C269 1.268 . S
O284 Sc266 2.105 . S
O284 C268 1.268 . S
O285 Sc265 2.105 . S
O285 C270 1.268 . S
Sc286 O289 2.025 . S
Sc286 O296 2.105 . S
Sc286 O299 2.105 . S
Sc286 O302 2.105 . S
Sc286 O305 2.105 . S
Sc287 O289 2.025 . S
Sc287 O297 2.105 . S
Sc287 O301 2.105 . S
Sc287 O303 2.105 . S
Sc287 O307 2.105 . S
Sc288 O289 2.025 . S
Sc288 O298 2.105 . S
Sc288 O300 2.105 . S
Sc288 O304 2.105 . S
Sc288 O306 2.105 . S
O289 Sc286 2.025 . S
O289 Sc287 2.025 . S
O289 Sc288 2.025 . S
C290 O296 1.268 . S
C290 O306 1.268 . S
C291 O297 1.268 . S
C291 O305 1.268 . S
C292 O298 1.268 . S
C292 O307 1.268 . S
C293 O299 1.268 . S
C293 O303 1.268 . S
C294 O300 1.268 . S
C294 O302 1.268 . S
C295 O301 1.268 . S
C295 O304 1.268 . S
O296 Sc286 2.105 . S
O296 C290 1.268 . S
O297 Sc287 2.105 . S
O297 C291 1.268 . S
O298 Sc288 2.105 . S
O298 C292 1.268 . S
O299 Sc286 2.105 . S
O299 C293 1.268 . S
O300 Sc288 2.105 . S
O300 C294 1.268 . S
O301 Sc287 2.105 . S
O301 C295 1.268 . S
O302 Sc286 2.105 . S
O302 C294 1.268 . S
O303 Sc287 2.105 . S
O303 C293 1.268 . S
O304 Sc288 2.105 . S
O304 C295 1.268 . S
O305 Sc286 2.105 . S
O305 C291 1.268 . S
O306 Sc288 2.105 . S
O306 C290 1.268 . S
O307 Sc287 2.105 . S
O307 C292 1.268 . S
Sc308 O311 2.025 . S
Sc308 O318 2.105 . S
Sc308 O321 2.105 . S
Sc308 O324 2.105 . S
Sc308 O327 2.105 . S
Sc309 O311 2.025 . S
Sc309 O319 2.105 . S
Sc309 O323 2.105 . S
Sc309 O325 2.105 . S
Sc309 O329 2.105 . S
Sc310 O311 2.025 . S
Sc310 O320 2.105 . S
Sc310 O322 2.105 . S
Sc310 O326 2.105 . S
Sc310 O328 2.105 . S
O311 Sc308 2.025 . S
O311 Sc309 2.025 . S
O311 Sc310 2.025 . S
C312 O318 1.268 . S
C312 O328 1.268 . S
C313 O319 1.268 . S
C313 O327 1.268 . S
C314 O320 1.268 . S
C314 O329 1.268 . S
C315 O321 1.268 . S
C315 O325 1.268 . S
C316 O322 1.268 . S
C316 O324 1.268 . S
C317 O323 1.268 . S
C317 O326 1.268 . S
O318 Sc308 2.105 . S
O318 C312 1.268 . S
O319 Sc309 2.105 . S
O319 C313 1.268 . S
O320 Sc310 2.105 . S
O320 C314 1.268 . S
O321 Sc308 2.105 . S
O321 C315 1.268 . S
O322 Sc310 2.105 . S
O322 C316 1.268 . S
O323 Sc309 2.105 . S
O323 C317 1.268 . S
O324 Sc308 2.105 . S
O324 C316 1.268 . S
O325 Sc309 2.105 . S
O325 C315 1.268 . S
O326 Sc310 2.105 . S
O326 C317 1.268 . S
O327 Sc308 2.105 . S
O327 C313 1.268 . S
O328 Sc310 2.105 . S
O328 C312 1.268 . S
O329 Sc309 2.105 . S
O329 C314 1.268 . S
Sc330 O333 2.025 . S
Sc330 O340 2.105 . S
Sc330 O343 2.105 . S
Sc330 O346 2.105 . S
Sc330 O349 2.105 . S
Sc331 O333 2.025 . S
Sc331 O341 2.105 . S
Sc331 O345 2.105 . S
Sc331 O347 2.105 . S
Sc331 O351 2.105 . S
Sc332 O333 2.025 . S
Sc332 O342 2.105 . S
Sc332 O344 2.105 . S
Sc332 O348 2.105 . S
Sc332 O350 2.105 . S
O333 Sc330 2.025 . S
O333 Sc331 2.025 . S
O333 Sc332 2.025 . S
C334 O340 1.268 . S
C334 O350 1.268 . S
C335 O341 1.268 . S
C335 O349 1.268 . S
C336 O342 1.268 . S
C336 O351 1.268 . S
C337 O343 1.268 . S
C337 O347 1.268 . S
C338 O344 1.268 . S
C338 O346 1.268 . S
C339 O345 1.268 . S
C339 O348 1.268 . S
O340 Sc330 2.105 . S
O340 C334 1.268 . S
O341 Sc331 2.105 . S
O341 C335 1.268 . S
O342 Sc332 2.105 . S
O342 C336 1.268 . S
O343 Sc330 2.105 . S
O343 C337 1.268 . S
O344 Sc332 2.105 . S
O344 C338 1.268 . S
O345 Sc331 2.105 . S
O345 C339 1.268 . S
O346 Sc330 2.105 . S
O346 C338 1.268 . S
O347 Sc331 2.105 . S
O347 C337 1.268 . S
O348 Sc332 2.105 . S
O348 C339 1.268 . S
O349 Sc330 2.105 . S
O349 C335 1.268 . S
O350 Sc332 2.105 . S
O350 C334 1.268 . S
O351 Sc331 2.105 . S
O351 C336 1.268 . S
H352 C360 0.950 . S
H353 C365 0.950 . S
H354 C362 0.950 . S
H355 C364 0.950 . S
H356 C366 0.950 . S
H357 C368 0.950 . S
H358 C370 0.950 . S
H359 C371 0.950 . S
C360 H352 0.950 . S
C360 C361 1.386 . S
C360 C362 1.391 . S
C361 C360 1.386 . S
C361 C365 1.393 . S
C362 H354 0.950 . S
C362 C360 1.391 . S
C362 C363 1.400 . S
C363 C362 1.400 . S
C363 C364 1.398 . S
C363 C369 1.491 . S
C364 H355 0.950 . S
C364 C363 1.398 . S
C364 C365 1.391 . S
C365 H353 0.950 . S
C365 C361 1.393 . S
C365 C364 1.391 . S
C366 H356 0.950 . S
C366 C367 1.386 . S
C366 C368 1.391 . S
C367 C366 1.386 . S
C367 C371 1.393 . S
C368 H357 0.950 . S
C368 C366 1.391 . S
C368 C369 1.400 . S
C369 C363 1.491 . S
C369 C368 1.400 . S
C369 C370 1.398 . S
C370 H358 0.950 . S
C370 C369 1.398 . S
C370 C371 1.391 . S
C371 H359 0.950 . S
C371 C367 1.393 . S
C371 C370 1.391 . S
H372 C380 0.950 . S
H373 C385 0.950 . S
H374 C382 0.950 . S
H375 C384 0.950 . S
H376 C386 0.950 . S
H377 C388 0.950 . S
H378 C390 0.950 . S
H379 C391 0.950 . S
C380 H372 0.950 . S
C380 C381 1.386 . S
C380 C382 1.391 . S
C381 C380 1.386 . S
C381 C385 1.393 . S
C382 H374 0.950 . S
C382 C380 1.391 . S
C382 C383 1.400 . S
C383 C382 1.400 . S
C383 C384 1.398 . S
C383 C389 1.491 . S
C384 H375 0.950 . S
C384 C383 1.398 . S
C384 C385 1.391 . S
C385 H373 0.950 . S
C385 C381 1.393 . S
C385 C384 1.391 . S
C386 H376 0.950 . S
C386 C387 1.386 . S
C386 C388 1.391 . S
C387 C386 1.386 . S
C387 C391 1.393 . S
C388 H377 0.950 . S
C388 C386 1.391 . S
C388 C389 1.400 . S
C389 C383 1.491 . S
C389 C388 1.400 . S
C389 C390 1.398 . S
C390 H378 0.950 . S
C390 C389 1.398 . S
C390 C391 1.391 . S
C391 H379 0.950 . S
C391 C387 1.393 . S
C391 C390 1.391 . S
H392 C400 0.950 . S
H393 C405 0.950 . S
H394 C402 0.950 . S
H395 C404 0.950 . S
H396 C406 0.950 . S
H397 C408 0.950 . S
H398 C410 0.950 . S
H399 C411 0.950 . S
C400 H392 0.950 . S
C400 C401 1.386 . S
C400 C402 1.391 . S
C401 C400 1.386 . S
C401 C405 1.393 . S
C402 H394 0.950 . S
C402 C400 1.391 . S
C402 C403 1.400 . S
C403 C402 1.400 . S
C403 C404 1.398 . S
C403 C409 1.491 . S
C404 H395 0.950 . S
C404 C403 1.398 . S
C404 C405 1.391 . S
C405 H393 0.950 . S
C405 C401 1.393 . S
C405 C404 1.391 . S
C406 H396 0.950 . S
C406 C407 1.386 . S
C406 C408 1.391 . S
C407 C406 1.386 . S
C407 C411 1.393 . S
C408 H397 0.950 . S
C408 C406 1.391 . S
C408 C409 1.400 . S
C409 C403 1.491 . S
C409 C408 1.400 . S
C409 C410 1.398 . S
C410 H398 0.950 . S
C410 C409 1.398 . S
C410 C411 1.391 . S
C411 H399 0.950 . S
C411 C407 1.393 . S
C411 C410 1.391 . S
H412 C420 0.950 . S
H413 C425 0.950 . S
H414 C422 0.950 . S
H415 C424 0.950 . S
H416 C426 0.950 . S
H417 C428 0.950 . S
H418 C430 0.950 . S
H419 C431 0.950 . S
C420 H412 0.950 . S
C420 C421 1.386 . S
C420 C422 1.391 . S
C421 C420 1.386 . S
C421 C425 1.393 . S
C422 H414 0.950 . S
C422 C420 1.391 . S
C422 C423 1.400 . S
C423 C422 1.400 . S
C423 C424 1.398 . S
C423 C429 1.491 . S
C424 H415 0.950 . S
C424 C423 1.398 . S
C424 C425 1.391 . S
C425 H413 0.950 . S
C425 C421 1.393 . S
C425 C424 1.391 . S
C426 H416 0.950 . S
C426 C427 1.386 . S
C426 C428 1.391 . S
C427 C426 1.386 . S
C427 C431 1.393 . S
C428 H417 0.950 . S
C428 C426 1.391 . S
C428 C429 1.400 . S
C429 C423 1.491 . S
C429 C428 1.400 . S
C429 C430 1.398 . S
C430 H418 0.950 . S
C430 C429 1.398 . S
C430 C431 1.391 . S
C431 H419 0.950 . S
C431 C427 1.393 . S
C431 C430 1.391 . S
H432 C440 0.950 . S
H433 C445 0.950 . S
H434 C442 0.950 . S
H435 C444 0.950 . S
H436 C446 0.950 . S
H437 C448 0.950 . S
H438 C450 0.950 . S
H439 C451 0.950 . S
C440 H432 0.950 . S
C440 C441 1.386 . S
C440 C442 1.391 . S
C441 C440 1.386 . S
C441 C445 1.393 . S
C442 H434 0.950 . S
C442 C440 1.391 . S
C442 C443 1.400 . S
C443 C442 1.400 . S
C443 C444 1.398 . S
C443 C449 1.491 . S
C444 H435 0.950 . S
C444 C443 1.398 . S
C444 C445 1.391 . S
C445 H433 0.950 . S
C445 C441 1.393 . S
C445 C444 1.391 . S
C446 H436 0.950 . S
C446 C447 1.386 . S
C446 C448 1.391 . S
C447 C446 1.386 . S
C447 C451 1.393 . S
C448 H437 0.950 . S
C448 C446 1.391 . S
C448 C449 1.400 . S
C449 C443 1.491 . S
C449 C448 1.400 . S
C449 C450 1.398 . S
C450 H438 0.950 . S
C450 C449 1.398 . S
C450 C451 1.391 . S
C451 H439 0.950 . S
C451 C447 1.393 . S
C451 C450 1.391 . S
H452 C460 0.950 . S
H453 C465 0.950 . S
H454 C462 0.950 . S
H455 C464 0.950 . S
H456 C466 0.950 . S
H457 C468 0.950 . S
H458 C470 0.950 . S
H459 C471 0.950 . S
C460 H452 0.950 . S
C460 C461 1.386 . S
C460 C462 1.391 . S
C461 C460 1.386 . S
C461 C465 1.393 . S
C462 H454 0.950 . S
C462 C460 1.391 . S
C462 C463 1.400 . S
C463 C462 1.400 . S
C463 C464 1.398 . S
C463 C469 1.491 . S
C464 H455 0.950 . S
C464 C463 1.398 . S
C464 C465 1.391 . S
C465 H453 0.950 . S
C465 C461 1.393 . S
C465 C464 1.391 . S
C466 H456 0.950 . S
C466 C467 1.386 . S
C466 C468 1.391 . S
C467 C466 1.386 . S
C467 C471 1.393 . S
C468 H457 0.950 . S
C468 C466 1.391 . S
C468 C469 1.400 . S
C469 C463 1.491 . S
C469 C468 1.400 . S
C469 C470 1.398 . S
C470 H458 0.950 . S
C470 C469 1.398 . S
C470 C471 1.391 . S
C471 H459 0.950 . S
C471 C467 1.393 . S
C471 C470 1.391 . S
H472 C480 0.950 . S
H473 C485 0.950 . S
H474 C482 0.950 . S
H475 C484 0.950 . S
H476 C486 0.950 . S
H477 C488 0.950 . S
H478 C490 0.950 . S
H479 C491 0.950 . S
C480 H472 0.950 . S
C480 C481 1.386 . S
C480 C482 1.391 . S
C481 C480 1.386 . S
C481 C485 1.393 . S
C482 H474 0.950 . S
C482 C480 1.391 . S
C482 C483 1.400 . S
C483 C482 1.400 . S
C483 C484 1.398 . S
C483 C489 1.491 . S
C484 H475 0.950 . S
C484 C483 1.398 . S
C484 C485 1.391 . S
C485 H473 0.950 . S
C485 C481 1.393 . S
C485 C484 1.391 . S
C486 H476 0.950 . S
C486 C487 1.386 . S
C486 C488 1.391 . S
C487 C486 1.386 . S
C487 C491 1.393 . S
C488 H477 0.950 . S
C488 C486 1.391 . S
C488 C489 1.400 . S
C489 C483 1.491 . S
C489 C488 1.400 . S
C489 C490 1.398 . S
C490 H478 0.950 . S
C490 C489 1.398 . S
C490 C491 1.391 . S
C491 H479 0.950 . S
C491 C487 1.393 . S
C491 C490 1.391 . S
H492 C500 0.950 . S
H493 C505 0.950 . S
H494 C502 0.950 . S
H495 C504 0.950 . S
H496 C506 0.950 . S
H497 C508 0.950 . S
H498 C510 0.950 . S
H499 C511 0.950 . S
C500 H492 0.950 . S
C500 C501 1.386 . S
C500 C502 1.391 . S
C501 C500 1.386 . S
C501 C505 1.393 . S
C502 H494 0.950 . S
C502 C500 1.391 . S
C502 C503 1.400 . S
C503 C502 1.400 . S
C503 C504 1.398 . S
C503 C509 1.491 . S
C504 H495 0.950 . S
C504 C503 1.398 . S
C504 C505 1.391 . S
C505 H493 0.950 . S
C505 C501 1.393 . S
C505 C504 1.391 . S
C506 H496 0.950 . S
C506 C507 1.386 . S
C506 C508 1.391 . S
C507 C506 1.386 . S
C507 C511 1.393 . S
C508 H497 0.950 . S
C508 C506 1.391 . S
C508 C509 1.400 . S
C509 C503 1.491 . S
C509 C508 1.400 . S
C509 C510 1.398 . S
C510 H498 0.950 . S
C510 C509 1.398 . S
C510 C511 1.391 . S
C511 H499 0.950 . S
C511 C507 1.393 . S
C511 C510 1.391 . S
H512 C520 0.950 . S
H513 C525 0.950 . S
H514 C522 0.950 . S
H515 C524 0.950 . S
H516 C526 0.950 . S
H517 C528 0.950 . S
H518 C530 0.950 . S
H519 C531 0.950 . S
C520 H512 0.950 . S
C520 C521 1.386 . S
C520 C522 1.391 1_565 S
C521 C520 1.386 . S
C521 C525 1.393 . S
C522 H514 0.950 . S
C522 C520 1.391 1_545 S
C522 C523 1.400 . S
C523 C522 1.400 . S
C523 C524 1.398 . S
C523 C529 1.491 . S
C524 H515 0.950 . S
C524 C523 1.398 . S
C524 C525 1.391 1_545 S
C525 H513 0.950 . S
C525 C521 1.393 . S
C525 C524 1.391 1_565 S
C526 H516 0.950 . S
C526 C527 1.386 . S
C526 C528 1.391 . S
C527 C526 1.386 . S
C527 C531 1.393 . S
C528 H517 0.950 . S
C528 C526 1.391 . S
C528 C529 1.400 . S
C529 C523 1.491 . S
C529 C528 1.400 . S
C529 C530 1.398 . S
C530 H518 0.950 . S
C530 C529 1.398 . S
C530 C531 1.391 . S
C531 H519 0.950 . S
C531 C527 1.393 . S
C531 C530 1.391 . S
H532 C540 0.950 . S
H533 C545 0.950 . S
H534 C542 0.950 . S
H535 C544 0.950 . S
H536 C546 0.950 . S
H537 C548 0.950 . S
H538 C550 0.950 . S
H539 C551 0.950 . S
C540 H532 0.950 . S
C540 C541 1.386 . S
C540 C542 1.391 . S
C541 C540 1.386 . S
C541 C545 1.393 . S
C542 H534 0.950 . S
C542 C540 1.391 . S
C542 C543 1.400 . S
C543 C542 1.400 . S
C543 C544 1.398 . S
C543 C549 1.491 . S
C544 H535 0.950 . S
C544 C543 1.398 . S
C544 C545 1.391 . S
C545 H533 0.950 . S
C545 C541 1.393 . S
C545 C544 1.391 . S
C546 H536 0.950 . S
C546 C547 1.386 . S
C546 C548 1.391 1_655 S
C547 C546 1.386 . S
C547 C551 1.393 . S
C548 H537 0.950 . S
C548 C546 1.391 1_455 S
C548 C549 1.400 . S
C549 C543 1.491 . S
C549 C548 1.400 . S
C549 C550 1.398 . S
C550 H538 0.950 . S
C550 C549 1.398 . S
C550 C551 1.391 1_455 S
C551 H539 0.950 . S
C551 C547 1.393 . S
C551 C550 1.391 1_655 S
H552 C560 0.950 . S
H553 C565 0.950 . S
H554 C562 0.950 . S
H555 C564 0.950 . S
H556 C566 0.950 . S
H557 C568 0.950 . S
H558 C570 0.950 . S
H559 C571 0.950 . S
C560 H552 0.950 . S
C560 C561 1.386 . S
C560 C562 1.391 . S
C561 C560 1.386 . S
C561 C565 1.393 . S
C562 H554 0.950 . S
C562 C560 1.391 . S
C562 C563 1.400 . S
C563 C562 1.400 . S
C563 C564 1.398 . S
C563 C569 1.491 . S
C564 H555 0.950 . S
C564 C563 1.398 . S
C564 C565 1.391 . S
C565 H553 0.950 . S
C565 C561 1.393 . S
C565 C564 1.391 . S
C566 H556 0.950 . S
C566 C567 1.386 . S
C566 C568 1.391 1_545 S
C567 C566 1.386 . S
C567 C571 1.393 . S
C568 H557 0.950 . S
C568 C566 1.391 1_565 S
C568 C569 1.400 . S
C569 C563 1.491 . S
C569 C568 1.400 . S
C569 C570 1.398 . S
C570 H558 0.950 . S
C570 C569 1.398 . S
C570 C571 1.391 1_565 S
C571 H559 0.950 . S
C571 C567 1.393 . S
C571 C570 1.391 1_545 S
H572 C580 0.950 . S
H573 C585 0.950 . S
H574 C582 0.950 . S
H575 C584 0.950 . S
H576 C586 0.950 . S
H577 C588 0.950 . S
H578 C590 0.950 . S
H579 C591 0.950 . S
C580 H572 0.950 . S
C580 C581 1.386 . S
C580 C582 1.391 1_455 S
C581 C580 1.386 . S
C581 C585 1.393 . S
C582 H574 0.950 . S
C582 C580 1.391 1_655 S
C582 C583 1.400 . S
C583 C582 1.400 . S
C583 C584 1.398 . S
C583 C589 1.491 . S
C584 H575 0.950 . S
C584 C583 1.398 . S
C584 C585 1.391 1_655 S
C585 H573 0.950 . S
C585 C581 1.393 . S
C585 C584 1.391 1_455 S
C586 H576 0.950 . S
C586 C587 1.386 . S
C586 C588 1.391 . S
C587 C586 1.386 . S
C587 C591 1.393 . S
C588 H577 0.950 . S
C588 C586 1.391 . S
C588 C589 1.400 . S
C589 C583 1.491 . S
C589 C588 1.400 . S
C589 C590 1.398 . S
C590 H578 0.950 . S
C590 C589 1.398 . S
C590 C591 1.391 . S
C591 H579 0.950 . S
C591 C587 1.393 . S
C591 C590 1.391 . S
H592 C600 0.950 . S
H593 C605 0.950 . S
H594 C602 0.950 . S
H595 C604 0.950 . S
H596 C606 0.950 . S
H597 C608 0.950 . S
H598 C610 0.950 . S
H599 C611 0.950 . S
C600 H592 0.950 . S
C600 C601 1.386 . S
C600 C602 1.391 1_545 S
C601 C600 1.386 . S
C601 C605 1.393 . S
C602 H594 0.950 . S
C602 C600 1.391 1_565 S
C602 C603 1.400 . S
C603 C602 1.400 . S
C603 C604 1.398 . S
C603 C609 1.491 . S
C604 H595 0.950 . S
C604 C603 1.398 . S
C604 C605 1.391 1_565 S
C605 H593 0.950 . S
C605 C601 1.393 . S
C605 C604 1.391 1_545 S
C606 H596 0.950 . S
C606 C607 1.386 . S
C606 C608 1.391 . S
C607 C606 1.386 . S
C607 C611 1.393 . S
C608 H597 0.950 . S
C608 C606 1.391 . S
C608 C609 1.400 . S
C609 C603 1.491 . S
C609 C608 1.400 . S
C609 C610 1.398 . S
C610 H598 0.950 . S
C610 C609 1.398 . S
C610 C611 1.391 . S
C611 H599 0.950 . S
C611 C607 1.393 . S
C611 C610 1.391 . S
H612 C620 0.950 . S
H613 C625 0.950 . S
H614 C622 0.950 . S
H615 C624 0.950 . S
H616 C626 0.950 . S
H617 C628 0.950 . S
H618 C630 0.950 . S
H619 C631 0.950 . S
C620 H612 0.950 . S
C620 C621 1.386 . S
C620 C622 1.391 . S
C621 C620 1.386 . S
C621 C625 1.393 . S
C622 H614 0.950 . S
C622 C620 1.391 . S
C622 C623 1.400 . S
C623 C622 1.400 . S
C623 C624 1.398 . S
C623 C629 1.491 . S
C624 H615 0.950 . S
C624 C623 1.398 . S
C624 C625 1.391 . S
C625 H613 0.950 . S
C625 C621 1.393 . S
C625 C624 1.391 . S
C626 H616 0.950 . S
C626 C627 1.386 . S
C626 C628 1.391 1_455 S
C627 C626 1.386 . S
C627 C631 1.393 . S
C628 H617 0.950 . S
C628 C626 1.391 1_655 S
C628 C629 1.400 . S
C629 C623 1.491 . S
C629 C628 1.400 . S
C629 C630 1.398 . S
C630 H618 0.950 . S
C630 C629 1.398 . S
C630 C631 1.391 1_655 S
C631 H619 0.950 . S
C631 C627 1.393 . S
C631 C630 1.391 1_455 S
H632 C640 0.950 . S
H633 C645 0.950 . S
H634 C642 0.950 . S
H635 C644 0.950 . S
H636 C646 0.950 . S
H637 C648 0.950 . S
H638 C650 0.950 . S
H639 C651 0.950 . S
C640 H632 0.950 . S
C640 C641 1.386 . S
C640 C642 1.391 . S
C641 C640 1.386 . S
C641 C645 1.393 . S
C642 H634 0.950 . S
C642 C640 1.391 . S
C642 C643 1.400 . S
C643 C642 1.400 . S
C643 C644 1.398 . S
C643 C649 1.491 . S
C644 H635 0.950 . S
C644 C643 1.398 . S
C644 C645 1.391 . S
C645 H633 0.950 . S
C645 C641 1.393 . S
C645 C644 1.391 . S
C646 H636 0.950 . S
C646 C647 1.386 . S
C646 C648 1.391 1_565 S
C647 C646 1.386 . S
C647 C651 1.393 . S
C648 H637 0.950 . S
C648 C646 1.391 1_545 S
C648 C649 1.400 . S
C649 C643 1.491 . S
C649 C648 1.400 . S
C649 C650 1.398 . S
C650 H638 0.950 . S
C650 C649 1.398 . S
C650 C651 1.391 1_545 S
C651 H639 0.950 . S
C651 C647 1.393 . S
C651 C650 1.391 1_565 S
H652 C660 0.950 . S
H653 C665 0.950 . S
H654 C662 0.950 . S
H655 C664 0.950 . S
H656 C666 0.950 . S
H657 C668 0.950 . S
H658 C670 0.950 . S
H659 C671 0.950 . S
C660 H652 0.950 . S
C660 C661 1.386 . S
C660 C662 1.391 . S
C661 C660 1.386 . S
C661 C665 1.393 . S
C662 H654 0.950 . S
C662 C660 1.391 . S
C662 C663 1.400 . S
C663 C662 1.400 . S
C663 C664 1.398 . S
C663 C669 1.491 . S
C664 H655 0.950 . S
C664 C663 1.398 . S
C664 C665 1.391 . S
C665 H653 0.950 . S
C665 C661 1.393 . S
C665 C664 1.391 . S
C666 H656 0.950 . S
C666 C667 1.386 . S
C666 C668 1.391 1_655 S
C667 C666 1.386 . S
C667 C671 1.393 . S
C668 H657 0.950 . S
C668 C666 1.391 1_455 S
C668 C669 1.400 . S
C669 C663 1.491 . S
C669 C668 1.400 . S
C669 C670 1.398 . S
C670 H658 0.950 . S
C670 C669 1.398 . S
C670 C671 1.391 1_455 S
C671 H659 0.950 . S
C671 C667 1.393 . S
C671 C670 1.391 1_655 S
H672 C680 0.950 . S
H673 C685 0.950 . S
H674 C682 0.950 . S
H675 C684 0.950 . S
H676 C686 0.950 . S
H677 C688 0.950 . S
H678 C690 0.950 . S
H679 C691 0.950 . S
C680 H672 0.950 . S
C680 C681 1.386 . S
C680 C682 1.391 . S
C681 C680 1.386 . S
C681 C685 1.393 . S
C682 H674 0.950 . S
C682 C680 1.391 . S
C682 C683 1.400 . S
C683 C682 1.400 . S
C683 C684 1.398 . S
C683 C689 1.491 . S
C684 H675 0.950 . S
C684 C683 1.398 . S
C684 C685 1.391 . S
C685 H673 0.950 . S
C685 C681 1.393 . S
C685 C684 1.391 . S
C686 H676 0.950 . S
C686 C687 1.386 . S
C686 C688 1.391 . S
C687 C686 1.386 . S
C687 C691 1.393 . S
C688 H677 0.950 . S
C688 C686 1.391 . S
C688 C689 1.400 . S
C689 C683 1.491 . S
C689 C688 1.400 . S
C689 C690 1.398 . S
C690 H678 0.950 . S
C690 C689 1.398 . S
C690 C691 1.391 . S
C691 H679 0.950 . S
C691 C687 1.393 . S
C691 C690 1.391 . S
H692 C700 0.950 . S
H693 C705 0.950 . S
H694 C702 0.950 . S
H695 C704 0.950 . S
H696 C706 0.950 . S
H697 C708 0.950 . S
H698 C710 0.950 . S
H699 C711 0.950 . S
C700 H692 0.950 . S
C700 C701 1.386 . S
C700 C702 1.391 . S
C701 C700 1.386 . S
C701 C705 1.393 . S
C702 H694 0.950 . S
C702 C700 1.391 . S
C702 C703 1.400 . S
C703 C702 1.400 . S
C703 C704 1.398 . S
C703 C709 1.491 . S
C704 H695 0.950 . S
C704 C703 1.398 . S
C704 C705 1.391 . S
C705 H693 0.950 . S
C705 C701 1.393 . S
C705 C704 1.391 . S
C706 H696 0.950 . S
C706 C707 1.386 . S
C706 C708 1.391 . S
C707 C706 1.386 . S
C707 C711 1.393 . S
C708 H697 0.950 . S
C708 C706 1.391 . S
C708 C709 1.400 . S
C709 C703 1.491 . S
C709 C708 1.400 . S
C709 C710 1.398 . S
C710 H698 0.950 . S
C710 C709 1.398 . S
C710 C711 1.391 . S
C711 H699 0.950 . S
C711 C707 1.393 . S
C711 C710 1.391 . S
H712 C720 0.950 . S
H713 C725 0.950 . S
H714 C722 0.950 . S
H715 C724 0.950 . S
H716 C726 0.950 . S
H717 C728 0.950 . S
H718 C730 0.950 . S
H719 C731 0.950 . S
C720 H712 0.950 . S
C720 C721 1.386 . S
C720 C722 1.391 . S
C721 C720 1.386 . S
C721 C725 1.393 . S
C722 H714 0.950 . S
C722 C720 1.391 . S
C722 C723 1.400 . S
C723 C722 1.400 . S
C723 C724 1.398 . S
C723 C729 1.491 . S
C724 H715 0.950 . S
C724 C723 1.398 . S
C724 C725 1.391 . S
C725 H713 0.950 . S
C725 C721 1.393 . S
C725 C724 1.391 . S
C726 H716 0.950 . S
C726 C727 1.386 . S
C726 C728 1.391 . S
C727 C726 1.386 . S
C727 C731 1.393 . S
C728 H717 0.950 . S
C728 C726 1.391 . S
C728 C729 1.400 . S
C729 C723 1.491 . S
C729 C728 1.400 . S
C729 C730 1.398 . S
C730 H718 0.950 . S
C730 C729 1.398 . S
C730 C731 1.391 . S
C731 H719 0.950 . S
C731 C727 1.393 . S
C731 C730 1.391 . S
H732 C740 0.950 . S
H733 C745 0.950 . S
H734 C742 0.950 . S
H735 C744 0.950 . S
H736 C746 0.950 . S
H737 C748 0.950 . S
H738 C750 0.950 . S
H739 C751 0.950 . S
C740 H732 0.950 . S
C740 C741 1.386 . S
C740 C742 1.391 . S
C741 C740 1.386 . S
C741 C745 1.393 . S
C742 H734 0.950 . S
C742 C740 1.391 . S
C742 C743 1.400 . S
C743 C742 1.400 . S
C743 C744 1.398 . S
C743 C749 1.491 . S
C744 H735 0.950 . S
C744 C743 1.398 . S
C744 C745 1.391 . S
C745 H733 0.950 . S
C745 C741 1.393 . S
C745 C744 1.391 . S
C746 H736 0.950 . S
C746 C747 1.386 . S
C746 C748 1.391 . S
C747 C746 1.386 . S
C747 C751 1.393 . S
C748 H737 0.950 . S
C748 C746 1.391 . S
C748 C749 1.400 . S
C749 C743 1.491 . S
C749 C748 1.400 . S
C749 C750 1.398 . S
C750 H738 0.950 . S
C750 C749 1.398 . S
C750 C751 1.391 . S
C751 H739 0.950 . S
C751 C747 1.393 . S
C751 C750 1.391 . S
H752 C760 0.950 . S
H753 C765 0.950 . S
H754 C762 0.954 . S
H755 C764 0.950 1_556 S
H756 C766 0.950 . S
H757 C768 0.954 . S
H758 C770 0.950 1_554 S
H759 C771 0.950 . S
C760 H752 0.950 . S
C760 C761 1.386 . S
C760 C762 1.391 . S
C761 C760 1.386 . S
C761 C765 1.393 . S
C762 H754 0.954 . S
C762 C760 1.391 . S
C762 C763 1.400 . S
C763 C762 1.400 . S
C763 C764 1.398 . S
C763 C769 1.491 1_544 S
C764 H755 0.950 1_554 S
C764 C763 1.398 . S
C764 C765 1.391 . S
C765 H753 0.950 . S
C765 C761 1.393 . S
C765 C764 1.391 . S
C766 H756 0.950 . S
C766 C767 1.386 . S
C766 C768 1.391 . S
C767 C766 1.386 . S
C767 C771 1.393 . S
C768 H757 0.954 . S
C768 C766 1.391 . S
C768 C769 1.400 . S
C769 C763 1.491 1_566 S
C769 C768 1.400 . S
C769 C770 1.398 . S
C770 H758 0.950 1_556 S
C770 C769 1.398 . S
C770 C771 1.391 . S
C771 H759 0.950 . S
C771 C767 1.393 . S
C771 C770 1.391 . S
H772 C780 0.950 . S
H773 C785 0.950 . S
H774 C782 0.950 . S
H775 C784 0.950 . S
H776 C786 0.950 . S
H777 C788 0.950 . S
H778 C790 0.950 . S
H779 C791 0.950 . S
C780 H772 0.950 . S
C780 C781 1.386 . S
C780 C782 1.391 . S
C781 C780 1.386 . S
C781 C785 1.393 . S
C782 H774 0.950 . S
C782 C780 1.391 . S
C782 C783 1.400 . S
C783 C782 1.400 . S
C783 C784 1.398 . S
C783 C789 1.491 1_654 S
C784 H775 0.950 . S
C784 C783 1.398 . S
C784 C785 1.391 . S
C785 H773 0.950 . S
C785 C781 1.393 . S
C785 C784 1.391 . S
C786 H776 0.950 . S
C786 C787 1.386 . S
C786 C788 1.391 . S
C787 C786 1.386 . S
C787 C791 1.393 . S
C788 H777 0.950 . S
C788 C786 1.391 . S
C788 C789 1.400 . S
C789 C783 1.491 1_456 S
C789 C788 1.400 . S
C789 C790 1.398 . S
C790 H778 0.950 . S
C790 C789 1.398 . S
C790 C791 1.391 . S
C791 H779 0.950 . S
C791 C787 1.393 . S
C791 C790 1.391 . S
H792 C800 0.950 . S
H793 C805 0.950 . S
H794 C802 0.950 . S
H795 C804 0.950 . S
H796 C806 0.950 . S
H797 C808 0.950 . S
H798 C810 0.950 . S
H799 C811 0.950 . S
C800 H792 0.950 . S
C800 C801 1.386 . S
C800 C802 1.391 . S
C801 C800 1.386 . S
C801 C805 1.393 . S
C802 H794 0.950 . S
C802 C800 1.391 . S
C802 C803 1.400 . S
C803 C802 1.400 . S
C803 C804 1.398 . S
C803 C809 1.491 1_546 S
C804 H795 0.950 . S
C804 C803 1.398 . S
C804 C805 1.391 . S
C805 H793 0.950 . S
C805 C801 1.393 . S
C805 C804 1.391 . S
C806 H796 0.950 . S
C806 C807 1.386 . S
C806 C808 1.391 . S
C807 C806 1.386 . S
C807 C811 1.393 . S
C808 H797 0.950 . S
C808 C806 1.391 . S
C808 C809 1.400 . S
C809 C803 1.491 1_564 S
C809 C808 1.400 . S
C809 C810 1.398 . S
C810 H798 0.950 . S
C810 C809 1.398 . S
C810 C811 1.391 . S
C811 H799 0.950 . S
C811 C807 1.393 . S
C811 C810 1.391 . S
H812 C820 0.950 . S
H813 C825 0.950 . S
H814 C822 0.950 1_554 S
H815 C824 0.950 1_455 S
H816 C826 0.950 . S
H817 C828 0.950 1_556 S
H818 C830 0.950 1_655 S
H819 C831 0.950 . S
C820 H812 0.950 . S
C820 C821 1.386 . S
C820 C822 1.391 . S
C821 C820 1.386 . S
C821 C825 1.393 . S
C822 H814 0.950 1_556 S
C822 C820 1.391 . S
C822 C823 1.400 . S
C823 C822 1.400 . S
C823 C824 1.398 . S
C823 C829 1.491 1_656 S
C824 H815 0.950 1_655 S
C824 C823 1.398 . S
C824 C825 1.391 . S
C825 H813 0.950 . S
C825 C821 1.393 . S
C825 C824 1.391 . S
C826 H816 0.950 . S
C826 C827 1.386 . S
C826 C828 1.391 . S
C827 C826 1.386 . S
C827 C831 1.393 . S
C828 H817 0.950 1_554 S
C828 C826 1.391 . S
C828 C829 1.400 . S
C829 C823 1.491 1_454 S
C829 C828 1.400 . S
C829 C830 1.398 . S
C830 H818 0.950 1_455 S
C830 C829 1.398 . S
C830 C831 1.391 . S
C831 H819 0.950 . S
C831 C827 1.393 . S
C831 C830 1.391 . S
H832 C840 0.950 . S
H833 C845 0.950 . S
H834 C842 0.950 . S
H835 C844 0.950 . S
H836 C846 0.950 . S
H837 C848 0.950 . S
H838 C850 0.950 . S
H839 C851 0.950 1_556 S
C840 H832 0.950 . S
C840 C841 1.386 . S
C840 C842 1.391 . S
C841 C840 1.386 . S
C841 C845 1.393 . S
C842 H834 0.950 . S
C842 C840 1.391 . S
C842 C843 1.400 . S
C843 C842 1.400 . S
C843 C844 1.398 . S
C843 C849 1.491 . S
C844 H835 0.950 . S
C844 C843 1.398 . S
C844 C845 1.391 . S
C845 H833 0.950 . S
C845 C841 1.393 . S
C845 C844 1.391 . S
C846 H836 0.950 . S
C846 C847 1.386 . S
C846 C848 1.391 1_556 S
C847 C846 1.386 . S
C847 C851 1.393 1_556 S
C848 H837 0.950 . S
C848 C846 1.391 1_554 S
C848 C849 1.400 . S
C849 C843 1.491 . S
C849 C848 1.400 . S
C849 C850 1.398 . S
C850 H838 0.950 . S
C850 C849 1.398 . S
C850 C851 1.391 . S
C851 H839 0.950 1_554 S
C851 C847 1.393 1_554 S
C851 C850 1.391 . S
H852 C860 0.950 1_554 S
H853 C865 0.950 . S
H854 C862 0.950 . S
H855 C864 0.950 . S
H856 C866 0.950 . S
H857 C868 0.950 . S
H858 C870 0.950 . S
H859 C871 0.950 . S
C860 H852 0.950 1_556 S
C860 C861 1.386 1_556 S
C860 C862 1.391 . S
C861 C860 1.386 1_554 S
C861 C865 1.393 . S
C862 H854 0.950 . S
C862 C860 1.391 . S
C862 C863 1.400 . S
C863 C862 1.400 . S
C863 C864 1.398 . S
C863 C869 1.491 . S
C864 H855 0.950 . S
C864 C863 1.398 . S
C864 C865 1.391 1_556 S
C865 H853 0.950 . S
C865 C861 1.393 . S
C865 C864 1.391 1_554 S
C866 H856 0.950 . S
C866 C867 1.386 . S
C866 C868 1.391 . S
C867 C866 1.386 . S
C867 C871 1.393 . S
C868 H857 0.950 . S
C868 C866 1.391 . S
C868 C869 1.400 . S
C869 C863 1.491 . S
C869 C868 1.400 . S
C869 C870 1.398 . S
C870 H858 0.950 . S
C870 C869 1.398 . S
C870 C871 1.391 . S
C871 H859 0.950 . S
C871 C867 1.393 . S
C871 C870 1.391 . S
H872 C880 0.950 . S
H873 C885 0.950 . S
H874 C882 0.950 . S
H875 C884 0.950 . S
H876 C886 0.950 . S
H877 C888 0.950 . S
H878 C890 0.950 . S
H879 C891 0.950 . S
C880 H872 0.950 . S
C880 C881 1.386 . S
C880 C882 1.391 1_556 S
C881 C880 1.386 . S
C881 C885 1.393 1_556 S
C882 H874 0.950 . S
C882 C880 1.391 1_554 S
C882 C883 1.400 . S
C883 C882 1.400 . S
C883 C884 1.398 . S
C883 C889 1.491 . S
C884 H875 0.950 . S
C884 C883 1.398 . S
C884 C885 1.391 . S
C885 H873 0.950 . S
C885 C881 1.393 1_554 S
C885 C884 1.391 . S
C886 H876 0.950 . S
C886 C887 1.386 . S
C886 C888 1.391 . S
C887 C886 1.386 . S
C887 C891 1.393 . S
C888 H877 0.950 . S
C888 C886 1.391 . S
C888 C889 1.400 . S
C889 C883 1.491 . S
C889 C888 1.400 . S
C889 C890 1.398 . S
C890 H878 0.950 . S
C890 C889 1.398 . S
C890 C891 1.391 . S
C891 H879 0.950 . S
C891 C887 1.393 . S
C891 C890 1.391 . S
H892 C900 0.950 . S
H893 C905 0.950 . S
H894 C902 0.950 . S
H895 C904 0.950 . S
H896 C906 0.950 . S
H897 C908 0.950 . S
H898 C910 0.950 . S
H899 C911 0.950 . S
C900 H892 0.950 . S
C900 C901 1.386 1_556 S
C900 C902 1.391 . S
C901 C900 1.386 1_554 S
C901 C905 1.393 . S
C902 H894 0.950 . S
C902 C900 1.391 . S
C902 C903 1.400 . S
C903 C902 1.400 . S
C903 C904 1.398 . S
C903 C909 1.491 . S
C904 H895 0.950 . S
C904 C903 1.398 . S
C904 C905 1.391 1_556 S
C905 H893 0.950 . S
C905 C901 1.393 . S
C905 C904 1.391 1_554 S
C906 H896 0.950 . S
C906 C907 1.386 . S
C906 C908 1.391 . S
C907 C906 1.386 . S
C907 C911 1.393 . S
C908 H897 0.950 . S
C908 C906 1.391 . S
C908 C909 1.400 . S
C909 C903 1.491 . S
C909 C908 1.400 . S
C909 C910 1.398 . S
C910 H898 0.950 . S
C910 C909 1.398 . S
C910 C911 1.391 . S
C911 H899 0.950 . S
C911 C907 1.393 . S
C911 C910 1.391 . S
H912 C920 0.950 . S
H913 C925 0.950 . S
H914 C922 0.950 . S
H915 C924 0.950 . S
H916 C926 0.950 . S
H917 C928 0.950 . S
H918 C930 0.950 . S
H919 C931 0.943 1_554 S
C920 H912 0.950 . S
C920 C921 1.386 . S
C920 C922 1.391 . S
C921 C920 1.386 . S
C921 C925 1.393 . S
C922 H914 0.950 . S
C922 C920 1.391 . S
C922 C923 1.400 . S
C923 C922 1.400 . S
C923 C924 1.398 . S
C923 C929 1.491 . S
C924 H915 0.950 . S
C924 C923 1.398 . S
C924 C925 1.391 . S
C925 H913 0.950 . S
C925 C921 1.393 . S
C925 C924 1.391 . S
C926 H916 0.950 . S
C926 C927 1.386 . S
C926 C928 1.391 1_554 S
C927 C926 1.386 . S
C927 C931 1.379 1_554 S
C928 H917 0.950 . S
C928 C926 1.391 1_556 S
C928 C929 1.400 . S
C929 C923 1.491 . S
C929 C928 1.400 . S
C929 C930 1.398 . S
C930 H918 0.950 . S
C930 C929 1.398 . S
C930 C931 1.412 . S
C931 H919 0.943 1_556 S
C931 C927 1.379 1_556 S
C931 C930 1.412 . S
H932 C940 0.950 . S
H933 C945 0.950 . S
H934 C942 0.950 . S
H935 C944 0.950 . S
H936 C946 0.955 . S
H937 C948 0.950 . S
H938 C950 0.950 . S
H939 C951 0.950 . S
C940 H932 0.950 . S
C940 C941 1.386 . S
C940 C942 1.391 . S
C941 C940 1.386 . S
C941 C945 1.393 . S
C942 H934 0.950 . S
C942 C940 1.391 . S
C942 C943 1.400 . S
C943 C942 1.400 . S
C943 C944 1.398 . S
C943 C949 1.491 . S
C944 H935 0.950 . S
C944 C943 1.398 . S
C944 C945 1.391 . S
C945 H933 0.950 . S
C945 C941 1.393 . S
C945 C944 1.391 . S
C946 H936 0.955 . S
C946 C947 1.395 . S
C946 C948 1.377 1_556 S
C947 C946 1.395 . S
C947 C951 1.393 . S
C948 H937 0.950 . S
C948 C946 1.377 1_554 S
C948 C949 1.400 . S
C949 C943 1.491 . S
C949 C948 1.400 . S
C949 C950 1.398 . S
C950 H938 0.950 . S
C950 C949 1.398 . S
C950 C951 1.391 1_554 S
C951 H939 0.950 . S
C951 C947 1.393 . S
C951 C950 1.391 1_556 S
H952 C960 0.950 . S
H953 C965 0.950 . S
H954 C962 0.950 . S
H955 C964 0.950 . S
H956 C966 0.950 1_554 S
H957 C968 0.950 . S
H958 C970 0.950 . S
H959 C971 0.950 . S
C960 H952 0.950 . S
C960 C961 1.386 . S
C960 C962 1.391 . S
C961 C960 1.386 . S
C961 C965 1.393 . S
C962 H954 0.950 . S
C962 C960 1.391 . S
C962 C963 1.400 . S
C963 C962 1.400 . S
C963 C964 1.398 . S
C963 C969 1.491 . S
C964 H955 0.950 . S
C964 C963 1.398 . S
C964 C965 1.391 . S
C965 H953 0.950 . S
C965 C961 1.393 . S
C965 C964 1.391 . S
C966 H956 0.950 1_556 S
C966 C967 1.386 1_556 S
C966 C968 1.391 . S
C967 C966 1.386 1_554 S
C967 C971 1.393 . S
C968 H957 0.950 . S
C968 C966 1.391 . S
C968 C969 1.400 . S
C969 C963 1.491 . S
C969 C968 1.400 . S
C969 C970 1.398 . S
C970 H958 0.950 . S
C970 C969 1.398 . S
C970 C971 1.391 1_556 S
C971 H959 0.950 . S
C971 C967 1.393 . S
C971 C970 1.391 1_554 S
H972 C980 0.950 . S
H973 C985 0.957 . S
H974 C982 0.950 . S
H975 C984 0.950 . S
H976 C986 0.950 . S
H977 C988 0.950 . S
H978 C990 0.950 . S
H979 C991 0.950 . S
C980 H972 0.950 . S
C980 C981 1.386 . S
C980 C982 1.391 1_556 S
C981 C980 1.386 . S
C981 C985 1.405 . S
C982 H974 0.950 . S
C982 C980 1.391 1_554 S
C982 C983 1.400 . S
C983 C982 1.400 . S
C983 C984 1.398 . S
C983 C989 1.491 . S
C984 H975 0.950 . S
C984 C983 1.398 . S
C984 C985 1.372 1_554 S
C985 H973 0.957 . S
C985 C981 1.405 . S
C985 C984 1.372 1_556 S
C986 H976 0.950 . S
C986 C987 1.386 . S
C986 C988 1.391 . S
C987 C986 1.386 . S
C987 C991 1.393 . S
C988 H977 0.950 . S
C988 C986 1.391 . S
C988 C989 1.400 . S
C989 C983 1.491 . S
C989 C988 1.400 . S
C989 C990 1.398 . S
C990 H978 0.950 . S
C990 C989 1.398 . S
C990 C991 1.391 . S
C991 H979 0.950 . S
C991 C987 1.393 . S
C991 C990 1.391 . S
H992 C1000 0.950 . S
H993 C1005 0.950 . S
H994 C1002 0.950 . S
H995 C1004 0.950 . S
H996 C1006 0.950 . S
H997 C1008 0.950 . S
H998 C1010 0.950 . S
H999 C1011 0.950 . S
C1000 H992 0.950 . S
C1000 C1001 1.386 . S
C1000 C1002 1.391 . S
C1001 C1000 1.386 . S
C1001 C1005 1.393 . S
C1002 H994 0.950 . S
C1002 C1000 1.391 . S
C1002 C1003 1.400 . S
C1003 C1002 1.400 . S
C1003 C1004 1.398 . S
C1003 C1009 1.491 . S
C1004 H995 0.950 . S
C1004 C1003 1.398 . S
C1004 C1005 1.391 . S
C1005 H993 0.950 . S
C1005 C1001 1.393 . S
C1005 C1004 1.391 . S
C1006 H996 0.950 . S
C1006 C1007 1.386 . S
C1006 C1008 1.391 . S
C1007 C1006 1.386 . S
C1007 C1011 1.393 . S
C1008 H997 0.950 . S
C1008 C1006 1.391 . S
C1008 C1009 1.400 . S
C1009 C1003 1.491 . S
C1009 C1008 1.400 . S
C1009 C1010 1.398 . S
C1010 H998 0.950 . S
C1010 C1009 1.398 . S
C1010 C1011 1.391 . S
C1011 H999 0.950 . S
C1011 C1007 1.393 . S
C1011 C1010 1.391 . S
H1012 C1020 0.950 . S
H1013 C1025 0.950 . S
H1014 C1022 0.950 . S
H1015 C1024 0.950 . S
H1016 C1026 0.950 . S
H1017 C1028 0.950 . S
H1018 C1030 0.950 . S
H1019 C1031 0.950 . S
C1020 H1012 0.950 . S
C1020 C1021 1.386 . S
C1020 C1022 1.391 . S
C1021 C1020 1.386 . S
C1021 C1025 1.393 . S
C1022 H1014 0.950 . S
C1022 C1020 1.391 . S
C1022 C1023 1.400 . S
C1023 C1022 1.400 . S
C1023 C1024 1.398 . S
C1023 C1029 1.491 . S
C1024 H1015 0.950 . S
C1024 C1023 1.398 . S
C1024 C1025 1.391 . S
C1025 H1013 0.950 . S
C1025 C1021 1.393 . S
C1025 C1024 1.391 . S
C1026 H1016 0.950 . S
C1026 C1027 1.386 . S
C1026 C1028 1.391 . S
C1027 C1026 1.386 . S
C1027 C1031 1.393 . S
C1028 H1017 0.950 . S
C1028 C1026 1.391 . S
C1028 C1029 1.400 . S
C1029 C1023 1.491 . S
C1029 C1028 1.400 . S
C1029 C1030 1.398 . S
C1030 H1018 0.950 . S
C1030 C1029 1.398 . S
C1030 C1031 1.391 . S
C1031 H1019 0.950 . S
C1031 C1027 1.393 . S
C1031 C1030 1.391 . S
H1032 C1040 0.950 . S
H1033 C1045 0.950 . S
H1034 C1042 0.950 . S
H1035 C1044 0.950 . S
H1036 C1046 0.950 . S
H1037 C1048 0.950 . S
H1038 C1050 0.950 . S
H1039 C1051 0.950 . S
C1040 H1032 0.950 . S
C1040 C1041 1.386 . S
C1040 C1042 1.391 . S
C1041 C1040 1.386 . S
C1041 C1045 1.393 . S
C1042 H1034 0.950 . S
C1042 C1040 1.391 . S
C1042 C1043 1.400 . S
C1043 C1042 1.400 . S
C1043 C1044 1.398 . S
C1043 C1049 1.491 . S
C1044 H1035 0.950 . S
C1044 C1043 1.398 . S
C1044 C1045 1.391 . S
C1045 H1033 0.950 . S
C1045 C1041 1.393 . S
C1045 C1044 1.391 . S
C1046 H1036 0.950 . S
C1046 C1047 1.386 . S
C1046 C1048 1.391 . S
C1047 C1046 1.386 . S
C1047 C1051 1.393 . S
C1048 H1037 0.950 . S
C1048 C1046 1.391 . S
C1048 C1049 1.400 . S
C1049 C1043 1.491 . S
C1049 C1048 1.400 . S
C1049 C1050 1.398 . S
C1050 H1038 0.950 . S
C1050 C1049 1.398 . S
C1050 C1051 1.391 . S
C1051 H1039 0.950 . S
C1051 C1047 1.393 . S
C1051 C1050 1.391 . S
H1052 C1060 0.950 . S
H1053 C1065 0.950 . S
H1054 C1062 0.950 . S
H1055 C1064 0.950 . S
H1056 C1066 0.950 . S
H1057 C1068 0.950 . S
H1058 C1070 0.950 . S
H1059 C1071 0.950 . S
C1060 H1052 0.950 . S
C1060 C1061 1.386 . S
C1060 C1062 1.391 . S
C1061 C1060 1.386 . S
C1061 C1065 1.393 . S
C1062 H1054 0.950 . S
C1062 C1060 1.391 . S
C1062 C1063 1.400 . S
C1063 C1062 1.400 . S
C1063 C1064 1.398 . S
C1063 C1069 1.491 . S
C1064 H1055 0.950 . S
C1064 C1063 1.398 . S
C1064 C1065 1.391 . S
C1065 H1053 0.950 . S
C1065 C1061 1.393 . S
C1065 C1064 1.391 . S
C1066 H1056 0.950 . S
C1066 C1067 1.386 . S
C1066 C1068 1.391 . S
C1067 C1066 1.386 . S
C1067 C1071 1.393 . S
C1068 H1057 0.950 . S
C1068 C1066 1.391 . S
C1068 C1069 1.400 . S
C1069 C1063 1.491 . S
C1069 C1068 1.400 . S
C1069 C1070 1.398 . S
C1070 H1058 0.950 . S
C1070 C1069 1.398 . S
C1070 C1071 1.391 . S
C1071 H1059 0.950 . S
C1071 C1067 1.393 . S
C1071 C1070 1.391 . S
H1072 C1080 0.950 . S
H1073 C1085 0.950 . S
H1074 C1082 0.950 . S
H1075 C1084 0.950 . S
H1076 C1086 0.950 . S
H1077 C1088 0.950 . S
H1078 C1090 0.950 . S
H1079 C1091 0.950 . S
C1080 H1072 0.950 . S
C1080 C1081 1.386 . S
C1080 C1082 1.391 . S
C1081 C1080 1.386 . S
C1081 C1085 1.393 . S
C1082 H1074 0.950 . S
C1082 C1080 1.391 . S
C1082 C1083 1.400 . S
C1083 C1082 1.400 . S
C1083 C1084 1.398 . S
C1083 C1089 1.491 . S
C1084 H1075 0.950 . S
C1084 C1083 1.398 . S
C1084 C1085 1.391 . S
C1085 H1073 0.950 . S
C1085 C1081 1.393 . S
C1085 C1084 1.391 . S
C1086 H1076 0.950 . S
C1086 C1087 1.386 . S
C1086 C1088 1.391 . S
C1087 C1086 1.386 . S
C1087 C1091 1.393 . S
C1088 H1077 0.950 . S
C1088 C1086 1.391 . S
C1088 C1089 1.400 . S
C1089 C1083 1.491 . S
C1089 C1088 1.400 . S
C1089 C1090 1.398 . S
C1090 H1078 0.950 . S
C1090 C1089 1.398 . S
C1090 C1091 1.391 . S
C1091 H1079 0.950 . S
C1091 C1087 1.393 . S
C1091 C1090 1.391 . S
H1092 C1100 0.950 . S
H1093 C1105 0.950 . S
H1094 C1102 0.950 . S
H1095 C1104 0.950 . S
H1096 C1106 0.950 . S
H1097 C1108 0.950 . S
H1098 C1110 0.950 . S
H1099 C1111 0.950 . S
C1100 H1092 0.950 . S
C1100 C1101 1.386 . S
C1100 C1102 1.391 . S
C1101 C1100 1.386 . S
C1101 C1105 1.393 . S
C1102 H1094 0.950 . S
C1102 C1100 1.391 . S
C1102 C1103 1.400 . S
C1103 C1102 1.400 . S
C1103 C1104 1.398 . S
C1103 C1109 1.491 . S
C1104 H1095 0.950 . S
C1104 C1103 1.398 . S
C1104 C1105 1.391 . S
C1105 H1093 0.950 . S
C1105 C1101 1.393 . S
C1105 C1104 1.391 . S
C1106 H1096 0.950 . S
C1106 C1107 1.386 . S
C1106 C1108 1.391 . S
C1107 C1106 1.386 . S
C1107 C1111 1.393 . S
C1108 H1097 0.950 . S
C1108 C1106 1.391 . S
C1108 C1109 1.400 . S
C1109 C1103 1.491 . S
C1109 C1108 1.400 . S
C1109 C1110 1.398 . S
C1110 H1098 0.950 . S
C1110 C1109 1.398 . S
C1110 C1111 1.391 . S
C1111 H1099 0.950 . S
C1111 C1107 1.393 . S
C1111 C1110 1.391 . S
H1112 C1120 0.950 . S
H1113 C1125 0.950 . S
H1114 C1122 0.950 . S
H1115 C1124 0.950 . S
H1116 C1126 0.950 . S
H1117 C1128 0.950 . S
H1118 C1130 0.950 . S
H1119 C1131 0.950 . S
C1120 H1112 0.950 . S
C1120 C1121 1.386 . S
C1120 C1122 1.391 . S
C1121 C1120 1.386 . S
C1121 C1125 1.393 . S
C1122 H1114 0.950 . S
C1122 C1120 1.391 . S
C1122 C1123 1.400 . S
C1123 C1122 1.400 . S
C1123 C1124 1.398 . S
C1123 C1129 1.491 . S
C1124 H1115 0.950 . S
C1124 C1123 1.398 . S
C1124 C1125 1.391 . S
C1125 H1113 0.950 . S
C1125 C1121 1.393 . S
C1125 C1124 1.391 . S
C1126 H1116 0.950 . S
C1126 C1127 1.386 . S
C1126 C1128 1.391 . S
C1127 C1126 1.386 . S
C1127 C1131 1.393 . S
C1128 H1117 0.950 . S
C1128 C1126 1.391 . S
C1128 C1129 1.400 . S
C1129 C1123 1.491 . S
C1129 C1128 1.400 . S
C1129 C1130 1.398 . S
C1130 H1118 0.950 . S
C1130 C1129 1.398 . S
C1130 C1131 1.391 . S
C1131 H1119 0.950 . S
C1131 C1127 1.393 . S
C1131 C1130 1.391 . S
H1132 C1140 0.950 . S
H1133 C1145 0.950 . S
H1134 C1142 0.950 . S
H1135 C1144 0.950 . S
H1136 C1146 0.950 . S
H1137 C1148 0.950 . S
H1138 C1150 0.950 . S
H1139 C1151 0.950 . S
C1140 H1132 0.950 . S
C1140 C1141 1.386 . S
C1140 C1142 1.391 . S
C1141 C1140 1.386 . S
C1141 C1145 1.393 . S
C1142 H1134 0.950 . S
C1142 C1140 1.391 . S
C1142 C1143 1.400 . S
C1143 C1142 1.400 . S
C1143 C1144 1.398 . S
C1143 C1149 1.491 . S
C1144 H1135 0.950 . S
C1144 C1143 1.398 . S
C1144 C1145 1.391 . S
C1145 H1133 0.950 . S
C1145 C1141 1.393 . S
C1145 C1144 1.391 . S
C1146 H1136 0.950 . S
C1146 C1147 1.386 . S
C1146 C1148 1.391 . S
C1147 C1146 1.386 . S
C1147 C1151 1.393 . S
C1148 H1137 0.950 . S
C1148 C1146 1.391 . S
C1148 C1149 1.400 . S
C1149 C1143 1.491 . S
C1149 C1148 1.400 . S
C1149 C1150 1.398 . S
C1150 H1138 0.950 . S
C1150 C1149 1.398 . S
C1150 C1151 1.391 . S
C1151 H1139 0.950 . S
C1151 C1147 1.393 . S
C1151 C1150 1.391 . S
H1152 C1160 0.950 . S
H1153 C1165 0.950 . S
H1154 C1162 0.950 . S
H1155 C1164 0.950 . S
H1156 C1166 0.950 . S
H1157 C1168 0.950 . S
H1158 C1170 0.950 . S
H1159 C1171 0.950 . S
C1160 H1152 0.950 . S
C1160 C1161 1.386 . S
C1160 C1162 1.391 . S
C1161 C1160 1.386 . S
C1161 C1165 1.393 . S
C1162 H1154 0.950 . S
C1162 C1160 1.391 . S
C1162 C1163 1.400 . S
C1163 C1162 1.400 . S
C1163 C1164 1.398 . S
C1163 C1169 1.491 . S
C1164 H1155 0.950 . S
C1164 C1163 1.398 . S
C1164 C1165 1.391 . S
C1165 H1153 0.950 . S
C1165 C1161 1.393 . S
C1165 C1164 1.391 . S
C1166 H1156 0.950 . S
C1166 C1167 1.386 . S
C1166 C1168 1.391 . S
C1167 C1166 1.386 . S
C1167 C1171 1.393 . S
C1168 H1157 0.950 . S
C1168 C1166 1.391 . S
C1168 C1169 1.400 . S
C1169 C1163 1.491 . S
C1169 C1168 1.400 . S
C1169 C1170 1.398 . S
C1170 H1158 0.950 . S
C1170 C1169 1.398 . S
C1170 C1171 1.391 . S
C1171 H1159 0.950 . S
C1171 C1167 1.393 . S
C1171 C1170 1.391 . S
H1172 C1180 0.950 . S
H1173 C1185 0.950 . S
H1174 C1182 0.950 . S
H1175 C1184 0.950 . S
H1176 C1186 0.950 . S
H1177 C1188 0.950 . S
H1178 C1190 0.950 . S
H1179 C1191 0.950 . S
C1180 H1172 0.950 . S
C1180 C1181 1.386 . S
C1180 C1182 1.391 . S
C1181 C1180 1.386 . S
C1181 C1185 1.393 . S
C1182 H1174 0.950 . S
C1182 C1180 1.391 . S
C1182 C1183 1.400 . S
C1183 C1182 1.400 . S
C1183 C1184 1.398 . S
C1183 C1189 1.491 . S
C1184 H1175 0.950 . S
C1184 C1183 1.398 . S
C1184 C1185 1.391 . S
C1185 H1173 0.950 . S
C1185 C1181 1.393 . S
C1185 C1184 1.391 . S
C1186 H1176 0.950 . S
C1186 C1187 1.386 . S
C1186 C1188 1.391 . S
C1187 C1186 1.386 . S
C1187 C1191 1.393 . S
C1188 H1177 0.950 . S
C1188 C1186 1.391 . S
C1188 C1189 1.400 . S
C1189 C1183 1.491 . S
C1189 C1188 1.400 . S
C1189 C1190 1.398 . S
C1190 H1178 0.950 . S
C1190 C1189 1.398 . S
C1190 C1191 1.391 . S
C1191 H1179 0.950 . S
C1191 C1187 1.393 . S
C1191 C1190 1.391 . S
H1192 C1200 0.950 . S
H1193 C1205 0.950 . S
H1194 C1202 0.950 . S
H1195 C1204 0.950 . S
H1196 C1206 0.950 . S
H1197 C1208 0.950 . S
H1198 C1210 0.950 . S
H1199 C1211 0.950 . S
C1200 H1192 0.950 . S
C1200 C1201 1.386 . S
C1200 C1202 1.391 . S
C1201 C1200 1.386 . S
C1201 C1205 1.393 . S
C1202 H1194 0.950 . S
C1202 C1200 1.391 . S
C1202 C1203 1.400 . S
C1203 C1202 1.400 . S
C1203 C1204 1.398 . S
C1203 C1209 1.491 . S
C1204 H1195 0.950 . S
C1204 C1203 1.398 . S
C1204 C1205 1.391 . S
C1205 H1193 0.950 . S
C1205 C1201 1.393 . S
C1205 C1204 1.391 . S
C1206 H1196 0.950 . S
C1206 C1207 1.386 . S
C1206 C1208 1.391 . S
C1207 C1206 1.386 . S
C1207 C1211 1.393 . S
C1208 H1197 0.950 . S
C1208 C1206 1.391 . S
C1208 C1209 1.400 . S
C1209 C1203 1.491 . S
C1209 C1208 1.400 . S
C1209 C1210 1.398 . S
C1210 H1198 0.950 . S
C1210 C1209 1.398 . S
C1210 C1211 1.391 . S
C1211 H1199 0.950 . S
C1211 C1207 1.393 . S
C1211 C1210 1.391 . S
H1212 C1220 0.950 . S
H1213 C1225 0.950 . S
H1214 C1222 0.950 . S
H1215 C1224 0.950 . S
H1216 C1226 0.950 . S
H1217 C1228 0.950 . S
H1218 C1230 0.950 . S
H1219 C1231 0.950 . S
C1220 H1212 0.950 . S
C1220 C1221 1.386 . S
C1220 C1222 1.391 . S
C1221 C1220 1.386 . S
C1221 C1225 1.393 . S
C1222 H1214 0.950 . S
C1222 C1220 1.391 . S
C1222 C1223 1.400 . S
C1223 C1222 1.400 . S
C1223 C1224 1.398 . S
C1223 C1229 1.491 . S
C1224 H1215 0.950 . S
C1224 C1223 1.398 . S
C1224 C1225 1.391 . S
C1225 H1213 0.950 . S
C1225 C1221 1.393 . S
C1225 C1224 1.391 . S
C1226 H1216 0.950 . S
C1226 C1227 1.386 . S
C1226 C1228 1.391 . S
C1227 C1226 1.386 . S
C1227 C1231 1.393 . S
C1228 H1217 0.950 . S
C1228 C1226 1.391 . S
C1228 C1229 1.400 . S
C1229 C1223 1.491 . S
C1229 C1228 1.400 . S
C1229 C1230 1.398 . S
C1230 H1218 0.950 . S
C1230 C1229 1.398 . S
C1230 C1231 1.391 . S
C1231 H1219 0.950 . S
C1231 C1227 1.393 . S
C1231 C1230 1.391 . S
H1232 C1240 0.950 . S
H1233 C1245 0.950 . S
H1234 C1242 0.950 . S
H1235 C1244 0.950 . S
H1236 C1246 0.950 . S
H1237 C1248 0.950 . S
H1238 C1250 0.950 . S
H1239 C1251 0.950 . S
C1240 H1232 0.950 . S
C1240 C1241 1.386 . S
C1240 C1242 1.391 . S
C1241 C1240 1.386 . S
C1241 C1245 1.393 . S
C1242 H1234 0.950 . S
C1242 C1240 1.391 . S
C1242 C1243 1.400 . S
C1243 C1242 1.400 . S
C1243 C1244 1.398 . S
C1243 C1249 1.491 . S
C1244 H1235 0.950 . S
C1244 C1243 1.398 . S
C1244 C1245 1.391 . S
C1245 H1233 0.950 . S
C1245 C1241 1.393 . S
C1245 C1244 1.391 . S
C1246 H1236 0.950 . S
C1246 C1247 1.386 . S
C1246 C1248 1.391 . S
C1247 C1246 1.386 . S
C1247 C1251 1.393 . S
C1248 H1237 0.950 . S
C1248 C1246 1.391 . S
C1248 C1249 1.400 . S
C1249 C1243 1.491 . S
C1249 C1248 1.400 . S
C1249 C1250 1.398 . S
C1250 H1238 0.950 . S
C1250 C1249 1.398 . S
C1250 C1251 1.391 . S
C1251 H1239 0.950 . S
C1251 C1247 1.393 . S
C1251 C1250 1.391 . S
H1252 C1260 0.950 . S
H1253 C1265 0.950 . S
H1254 C1262 0.950 . S
H1255 C1264 0.950 . S
H1256 C1266 0.950 . S
H1257 C1268 0.950 . S
H1258 C1270 0.950 . S
H1259 C1271 0.950 . S
C1260 H1252 0.950 . S
C1260 C1261 1.386 . S
C1260 C1262 1.391 . S
C1261 C1260 1.386 . S
C1261 C1265 1.393 . S
C1262 H1254 0.950 . S
C1262 C1260 1.391 . S
C1262 C1263 1.400 . S
C1263 C1262 1.400 . S
C1263 C1264 1.398 . S
C1263 C1269 1.491 . S
C1264 H1255 0.950 . S
C1264 C1263 1.398 . S
C1264 C1265 1.391 . S
C1265 H1253 0.950 . S
C1265 C1261 1.393 . S
C1265 C1264 1.391 . S
C1266 H1256 0.950 . S
C1266 C1267 1.386 . S
C1266 C1268 1.391 . S
C1267 C1266 1.386 . S
C1267 C1271 1.393 . S
C1268 H1257 0.950 . S
C1268 C1266 1.391 . S
C1268 C1269 1.400 . S
C1269 C1263 1.491 . S
C1269 C1268 1.400 . S
C1269 C1270 1.398 . S
C1270 H1258 0.950 . S
C1270 C1269 1.398 . S
C1270 C1271 1.391 . S
C1271 H1259 0.950 . S
C1271 C1267 1.393 . S
C1271 C1270 1.391 . S
H1272 C1280 0.950 . S
H1273 C1285 0.950 . S
H1274 C1282 0.950 . S
H1275 C1284 0.950 . S
H1276 C1286 0.950 . S
H1277 C1288 0.950 . S
H1278 C1290 0.950 . S
H1279 C1291 0.950 . S
C1280 H1272 0.950 . S
C1280 C1281 1.386 . S
C1280 C1282 1.391 . S
C1281 C1280 1.386 . S
C1281 C1285 1.393 . S
C1282 H1274 0.950 . S
C1282 C1280 1.391 . S
C1282 C1283 1.400 . S
C1283 C1282 1.400 . S
C1283 C1284 1.398 . S
C1283 C1289 1.491 . S
C1284 H1275 0.950 . S
C1284 C1283 1.398 . S
C1284 C1285 1.391 . S
C1285 H1273 0.950 . S
C1285 C1281 1.393 . S
C1285 C1284 1.391 . S
C1286 H1276 0.950 . S
C1286 C1287 1.386 . S
C1286 C1288 1.391 . S
C1287 C1286 1.386 . S
C1287 C1291 1.393 . S
C1288 H1277 0.950 . S
C1288 C1286 1.391 . S
C1288 C1289 1.400 . S
C1289 C1283 1.491 . S
C1289 C1288 1.400 . S
C1289 C1290 1.398 . S
C1290 H1278 0.950 . S
C1290 C1289 1.398 . S
C1290 C1291 1.391 . S
C1291 H1279 0.950 . S
C1291 C1287 1.393 . S
C1291 C1290 1.391 . S
H1292 C1300 0.950 . S
H1293 C1305 0.950 . S
H1294 C1302 0.950 . S
H1295 C1304 0.950 . S
H1296 C1306 0.950 . S
H1297 C1308 0.950 . S
H1298 C1310 0.950 . S
H1299 C1311 0.950 . S
C1300 H1292 0.950 . S
C1300 C1301 1.386 . S
C1300 C1302 1.391 . S
C1301 C1300 1.386 . S
C1301 C1305 1.393 . S
C1302 H1294 0.950 . S
C1302 C1300 1.391 . S
C1302 C1303 1.400 . S
C1303 C1302 1.400 . S
C1303 C1304 1.398 . S
C1303 C1309 1.491 . S
C1304 H1295 0.950 . S
C1304 C1303 1.398 . S
C1304 C1305 1.391 . S
C1305 H1293 0.950 . S
C1305 C1301 1.393 . S
C1305 C1304 1.391 . S
C1306 H1296 0.950 . S
C1306 C1307 1.386 . S
C1306 C1308 1.391 . S
C1307 C1306 1.386 . S
C1307 C1311 1.393 . S
C1308 H1297 0.950 . S
C1308 C1306 1.391 . S
C1308 C1309 1.400 . S
C1309 C1303 1.491 . S
C1309 C1308 1.400 . S
C1309 C1310 1.398 . S
C1310 H1298 0.950 . S
C1310 C1309 1.398 . S
C1310 C1311 1.391 . S
C1311 H1299 0.950 . S
C1311 C1307 1.393 . S
C1311 C1310 1.391 . S
C361 C6 1.297 . S
C367 C250 1.326 . S
C381 C31 1.301 . S
C387 C180 1.328 . S
C401 C206 1.327 . S
C407 C50 1.314 . S
C421 C224 1.329 . S
C427 C75 1.307 . S
C441 C95 1.303 . S
C447 C290 1.329 . S
C461 C115 1.300 . S
C467 C316 1.328 . S
C481 C334 1.327 . S
C487 C139 1.314 . S
C501 C272 1.318 . S
C507 C159 1.291 . S
C521 C182 1.313 . S
C527 C74 1.319 . S
C541 C4 1.328 . S
C547 C207 1.313 . S
C561 C30 1.322 . S
C567 C226 1.315 . S
C581 C251 1.302 . S
C587 C48 1.313 . S
C601 C271 1.297 . S
C607 C114 1.326 . S
C621 C140 1.326 . S
C627 C291 1.315 . S
C641 C158 1.324 . S
C647 C315 1.315 . S
C661 C96 1.315 . S
C667 C335 1.293 . S
C681 C93 0.936 . S
C687 C9 0.902 . S
C701 C28 0.937 . S
C707 C117 0.898 . S
C721 C137 0.917 . S
C727 C53 0.930 . S
C741 C161 0.900 . S
C747 C72 0.894 . S
C761 C269 0.914 . S
C767 C185 0.933 . S
C781 C204 0.913 . S
C787 C293 0.887 . S
C801 C229 0.921 . S
C807 C313 0.928 . S
C821 C337 0.885 . S
C827 C248 0.921 . S
C841 C5 1.674 . S
C847 C294 1.660 . S
C861 C312 1.653 . S
C867 C29 1.673 . S
C881 C338 1.649 . S
C887 C49 1.671 . S
C901 C268 1.646 . S
C907 C73 1.667 . S
C921 C97 1.665 . S
C927 C246 1.655 . S
C941 C116 1.664 . S
C947 C184 1.652 . S
C961 C141 1.664 . S
C967 C202 1.648 . S
C981 C228 1.654 . S
C987 C160 1.664 . S
C1001 C118 1.646 . S
C1007 C181 1.666 . S
C1021 C136 1.651 . S
C1027 C205 1.664 . S
C1041 C225 1.664 . S
C1047 C162 1.649 . S
C1061 C92 1.647 . S
C1067 C249 1.669 . S
C1081 C70 1.662 . S
C1087 C273 1.671 . S
C1101 C292 1.664 . S
C1107 C8 1.652 . S
C1121 C26 1.646 . S
C1127 C317 1.665 . S
C1141 C336 1.668 . S
C1147 C52 1.660 . S
C1161 C163 1.233 . S
C1167 C7 1.202 . S
C1181 C94 1.225 . S
C1187 C27 1.210 . S
C1201 C119 1.229 . S
C1207 C51 1.206 . S
C1221 C138 1.223 . S
C1227 C71 1.212 . S
C1241 C183 1.220 . S
C1247 C339 1.215 . S
C1261 C270 1.221 . S
C1267 C203 1.214 . S
C1281 C295 1.218 . S
C1287 C227 1.217 . S
C1301 C247 1.226 . S
C1307 C314 1.209 . S
