# Generated by pormake.
# Topology wjf, (4)-cn, num edge types: 1
# Building blocks:
#     Node 0, Type 0, BuildingBlock: GALJAG_clean_sbu_0, # of connection points: 4
#     Node 1, Type 0, BuildingBlock: GALJAG_clean_sbu_0, # of connection points: 4
#     Node 2, Type 0, BuildingBlock: GALJAG_clean_sbu_0, # of connection points: 4
#     Node 3, Type 0, BuildingBlock: GALJAG_clean_sbu_0, # of connection points: 4
#     Node 4, Type 0, BuildingBlock: GALJAG_clean_sbu_0, # of connection points: 4
#     Node 5, Type 0, BuildingBlock: GALJAG_clean_sbu_0, # of connection points: 4
#     Node 6, Type 0, BuildingBlock: GALJAG_clean_sbu_0, # of connection points: 4
#     Node 7, Type 0, BuildingBlock: GALJAG_clean_sbu_0, # of connection points: 4
#     Node 8, Type 0, BuildingBlock: GALJAG_clean_sbu_0, # of connection points: 4
#     Node 9, Type 0, BuildingBlock: GALJAG_clean_sbu_0, # of connection points: 4
#     Node 10, Type 0, BuildingBlock: GALJAG_clean_sbu_0, # of connection points: 4
#     Node 11, Type 0, BuildingBlock: GALJAG_clean_sbu_0, # of connection points: 4
#     Edge 12, Type (0, 0), BuildingBlock: TEMPAE_clean_linker_10, # of connection points: 2
#     Edge 13, Type (0, 0), BuildingBlock: TEMPAE_clean_linker_10, # of connection points: 2
#     Edge 14, Type (0, 0), BuildingBlock: TEMPAE_clean_linker_10, # of connection points: 2
#     Edge 15, Type (0, 0), BuildingBlock: TEMPAE_clean_linker_10, # of connection points: 2
#     Edge 16, Type (0, 0), BuildingBlock: TEMPAE_clean_linker_10, # of connection points: 2
#     Edge 17, Type (0, 0), BuildingBlock: TEMPAE_clean_linker_10, # of connection points: 2
#     Edge 18, Type (0, 0), BuildingBlock: TEMPAE_clean_linker_10, # of connection points: 2
#     Edge 19, Type (0, 0), BuildingBlock: TEMPAE_clean_linker_10, # of connection points: 2
#     Edge 20, Type (0, 0), BuildingBlock: TEMPAE_clean_linker_10, # of connection points: 2
#     Edge 21, Type (0, 0), BuildingBlock: TEMPAE_clean_linker_10, # of connection points: 2
#     Edge 22, Type (0, 0), BuildingBlock: TEMPAE_clean_linker_10, # of connection points: 2
#     Edge 23, Type (0, 0), BuildingBlock: TEMPAE_clean_linker_10, # of connection points: 2
#     Edge 24, Type (0, 0), BuildingBlock: TEMPAE_clean_linker_10, # of connection points: 2
#     Edge 25, Type (0, 0), BuildingBlock: TEMPAE_clean_linker_10, # of connection points: 2
#     Edge 26, Type (0, 0), BuildingBlock: TEMPAE_clean_linker_10, # of connection points: 2
#     Edge 27, Type (0, 0), BuildingBlock: TEMPAE_clean_linker_10, # of connection points: 2
#     Edge 28, Type (0, 0), BuildingBlock: TEMPAE_clean_linker_10, # of connection points: 2
#     Edge 29, Type (0, 0), BuildingBlock: TEMPAE_clean_linker_10, # of connection points: 2
#     Edge 30, Type (0, 0), BuildingBlock: TEMPAE_clean_linker_10, # of connection points: 2
#     Edge 31, Type (0, 0), BuildingBlock: TEMPAE_clean_linker_10, # of connection points: 2
#     Edge 32, Type (0, 0), BuildingBlock: TEMPAE_clean_linker_10, # of connection points: 2
#     Edge 33, Type (0, 0), BuildingBlock: TEMPAE_clean_linker_10, # of connection points: 2
#     Edge 34, Type (0, 0), BuildingBlock: TEMPAE_clean_linker_10, # of connection points: 2
#     Edge 35, Type (0, 0), BuildingBlock: TEMPAE_clean_linker_10, # of connection points: 2
# Relax obj value: 0.086
# Max RMSD: 0.104
# Mean RMSD: 0.104
data_MOF--net-wjf--node1-GALJAG_clean_sbu_0--edge1-TEMPAE_clean_linker_10
_symmetry_space_group_name_H-M    P1
_symmetry_Int_Tables_number       1
_symmetry_cell_setting            triclinic
loop_
_symmetry_equiv_pos_as_xyz
'x, y, z'
_cell_length_a     50.266332
_cell_length_b     50.225211
_cell_length_c     28.602711
_cell_angle_alpha  89.912679
_cell_angle_beta   90.019334
_cell_angle_gamma 120.01373
loop_
_atom_site_label
_atom_site_type_symbol
_atom_site_fract_x
_atom_site_fract_y
_atom_site_fract_z
_atom_type_partial_charge
In0 In 0.32515 0.37574 0.0555 0.0
O1 O 0.30725 0.40865 0.04344 0.0
O2 O 0.27459 0.36128 0.05405 0.0
C3 C 0.3853 0.41717 0.06254 0.0
C4 C 0.32134 0.354 0.96823 0.0
C5 C 0.31675 0.34993 0.14095 0.0
O6 O 0.36461 0.42359 0.07191 0.0
O7 O 0.37565 0.38978 0.0499 0.0
O8 O 0.3169 0.3358 0.10442 0.0
O9 O 0.32017 0.37622 0.13373 0.0
C10 C 0.27934 0.38801 0.04573 0.0
O11 O 0.31388 0.33641 0.00353 0.0
O12 O 0.33064 0.3818 0.97756 0.0
In13 In 0.94316 0.32409 0.4154 0.0
O14 O 0.95376 0.29575 0.3636 0.0
O15 O 0.97856 0.34404 0.35641 0.0
C16 C 0.95359 0.3124 0.50349 0.0
C17 C 0.88414 0.28392 0.39507 0.0
C18 C 0.95514 0.38255 0.42203 0.0
O19 O 0.97189 0.31639 0.47036 0.0
O20 O 0.93027 0.31405 0.4918 0.0
O21 O 0.93266 0.36227 0.3991 0.0
O22 O 0.97151 0.37331 0.44179 0.0
C23 C 0.97292 0.31849 0.34011 0.0
O24 O 0.89652 0.31209 0.38484 0.0
O25 O 0.90134 0.27638 0.41646 0.0
In26 In 0.63492 0.96028 0.7553 0.0
O27 O 0.59661 0.91604 0.72277 0.0
O28 O 0.63236 0.91407 0.75948 0.0
C29 C 0.58735 0.97073 0.76374 0.0
C30 C 0.6721 0.98633 0.68028 0.0
C31 C 0.66507 0.97766 0.83795 0.0
O32 O 0.59693 0.96171 0.79757 0.0
O33 O 0.6015 0.97408 0.7259 0.0
O34 O 0.66817 0.99706 0.8071 0.0
O35 O 0.64783 0.95009 0.82621 0.0
C36 C 0.6079 0.89984 0.73616 0.0
O37 O 0.66012 -0.00068 0.70255 0.0
O38 O 0.66748 0.96146 0.69824 0.0
In39 In 0.66855 0.62109 0.08952 0.0
O40 O 0.66832 0.6583 0.04245 0.0
O41 O 0.68662 0.63144 0.01544 0.0
C42 C 0.67155 0.64435 0.1758 0.0
C43 C 0.71104 0.60361 0.08791 0.0
C44 C 0.60933 0.57704 0.08026 0.0
O45 O 0.68673 0.66143 0.14197 0.0
O46 O 0.65517 0.61638 0.1656 0.0
O47 O 0.62905 0.57231 0.09992 0.0
O48 O 0.61947 0.60399 0.06493 0.0
C49 C 0.68018 0.65228 0.00797 0.0
O50 O 0.68371 0.58633 0.07464 0.0
O51 O 0.71668 0.62948 0.10335 0.0
In52 In 0.02882 0.66526 0.41287 0.0
O53 O 0.06841 0.6756 0.36368 0.0
O54 O 0.07619 0.70781 0.41759 0.0
C55 C 0.01292 0.60555 0.41925 0.0
C56 C -0.00071 0.67578 0.34236 0.0
C57 C 0.02226 0.67831 0.50215 0.0
O58 O 0.03881 0.62605 0.40447 0.0
O59 O 0.99497 0.61513 0.43095 0.0
O60 O 0.00518 0.67832 0.4697 0.0
O61 O 0.04259 0.67221 0.4892 0.0
C62 C 0.08679 0.70097 0.38251 0.0
O63 O 0.01946 0.69711 0.36699 0.0
O64 O 0.9924 0.64917 0.35573 0.0
In65 In 0.38148 0.04618 0.75212 0.0
O66 O 0.33991 0.02088 0.70258 0.0
O67 O 0.38413 0.03136 0.67882 0.0
C68 C 0.35533 0.03412 0.83757 0.0
C69 C 0.39739 0.10374 0.72624 0.0
C70 C 0.4228 0.02842 0.7701 0.0
O71 O 0.3424 0.01665 0.80302 0.0
O72 O 0.38071 0.05778 0.82838 0.0
O73 O 0.42976 0.05633 0.77001 0.0
O74 O 0.39489 0.00951 0.76171 0.0
C75 C 0.35609 0.02011 0.66931 0.0
O76 O 0.41567 0.09348 0.72356 0.0
O77 O 0.3715 0.08538 0.74367 0.0
In78 In 0.61459 0.67224 0.58925 0.0
O79 O 0.57929 0.6863 0.60891 0.0
O80 O 0.625 0.7214 0.59323 0.0
C81 C 0.57433 0.61259 0.57317 0.0
C82 C 0.63789 0.67459 0.67512 0.0
C83 C 0.64366 0.68536 0.50602 0.0
O84 O 0.56776 0.63343 0.56564 0.0
O85 O 0.60113 0.6219 0.58835 0.0
O86 O 0.65409 0.67845 0.54142 0.0
O87 O 0.61929 0.68604 0.51326 0.0
C88 C 0.59824 0.71473 0.60537 0.0
O89 O 0.65483 0.69046 0.64156 0.0
O90 O 0.60998 0.65763 0.66481 0.0
In91 In 0.95282 0.63051 0.92983 0.0
O92 O 0.91079 0.59799 0.97261 0.0
O93 O 0.90653 0.62778 0.92404 0.0
C94 C 0.96785 0.58616 0.93427 0.0
C95 C 0.97664 0.66946 0.00285 0.0
C96 C 0.96701 0.65107 0.84059 0.0
O97 O 0.94189 0.5811 0.92051 0.0
O98 O 0.98631 0.61362 0.94574 0.0
O99 O 0.98082 0.66822 0.87494 0.0
O100 O 0.94633 0.62443 0.85161 0.0
C101 C 0.89388 0.60736 0.95517 0.0
O102 O 0.98846 0.65427 0.98711 0.0
O103 O 0.95431 0.66697 0.97926 0.0
In104 In 0.32096 0.93699 0.25241 0.0
O105 O 0.30134 0.88541 0.25907 0.0
O106 O 0.27056 0.90168 0.24298 0.0
C107 C 0.38104 0.95528 0.26037 0.0
C108 C 0.31055 0.95225 0.33802 0.0
C109 C 0.3192 0.95779 0.1661 0.0
O110 O 0.36147 0.92874 0.24638 0.0
O111 O 0.37029 0.97252 0.27028 0.0
O112 O 0.30962 0.96557 0.20153 0.0
O113 O 0.3292 0.93976 0.17464 0.0
C114 C 0.27396 0.87889 0.25169 0.0
O115 O 0.31469 0.9692 0.30277 0.0
O116 O 0.31146 0.92812 0.32951 0.0
In117 In 0.38587 0.325 0.55358 0.0
O118 O 0.42055 0.31016 0.57167 0.0
O119 O 0.37526 0.27543 0.55315 0.0
C120 C 0.42361 0.38626 0.54905 0.0
C121 C 0.36106 0.31852 0.63921 0.0
C122 C 0.36152 0.31504 0.46709 0.0
O123 O 0.43215 0.36741 0.53766 0.0
O124 O 0.39606 0.37423 0.56238 0.0
O125 O 0.34526 0.31069 0.50319 0.0
O126 O 0.38934 0.32372 0.47515 0.0
C127 C 0.4017 0.28184 0.56683 0.0
O128 O 0.34509 0.31379 0.60259 0.0
O129 O 0.38879 0.32654 0.63193 0.0
In130 In 0.03363 0.37227 0.92605 0.0
O131 O 0.99557 0.34573 0.97955 0.0
O132 O 0.03473 0.34023 0.98154 0.0
C133 C 0.0145 0.35025 0.83865 0.0
C134 C 0.09363 0.39311 0.94055 0.0
C135 C 0.02233 0.419 0.93549 0.0
O136 O 0.00794 0.33248 0.87333 0.0
O137 O 0.03022 0.37831 0.84845 0.0
O138 O 0.04666 0.42236 0.91727 0.0
O139 O 0.00376 0.39212 0.94944 0.0
C140 C 0.00968 0.33427 1.00034 0.0
O141 O 0.0786 0.40245 0.96389 0.0
O142 O 0.0785 0.37377 0.90908 0.0
In143 In 0.66602 0.04121 0.26264 0.0
O144 O 0.67676 0.08646 0.29657 0.0
O145 O 0.70529 0.08803 0.24064 0.0
C146 C 0.60697 0.02671 0.27054 0.0
C147 C 0.68174 0.01971 0.3386 0.0
C148 C 0.67159 0.02065 0.17743 0.0
O149 O 0.62658 0.04997 0.24808 0.0
O150 O 0.61728 0.01101 0.28965 0.0
O151 O 0.69114 0.02676 0.20931 0.0
O152 O 0.64934 0.02392 0.18924 0.0
C153 C 0.6999 0.10274 0.27133 0.0
O154 O 0.69886 0.04597 0.32144 0.0
O155 O 0.65742 0.0034 0.31572 0.0
C156 C 0.31963 0.35763 0.22702 0.0
C157 C 0.31552 0.33836 0.18897 0.0
C158 C 0.32275 0.34935 0.27258 0.0
C159 C 0.32127 0.32082 0.28052 0.0
C160 C 0.31504 0.30031 0.24272 0.0
C161 C 0.31249 0.30945 0.19717 0.0
C162 C 0.3297 0.3721 0.3117 0.0
C163 C 0.31258 0.2694 0.25003 0.0
C164 C 0.37106 0.32367 0.38167 0.0
C165 C 0.35002 0.31269 0.41879 0.0
C166 C 0.36166 0.32504 0.33609 0.0
C167 C 0.33028 0.31467 0.32711 0.0
C168 C 0.30858 0.30183 0.3639 0.0
C169 C 0.31876 0.30128 0.40955 0.0
C170 C 0.38568 0.33931 0.2981 0.0
C171 C 0.27484 0.28988 0.35543 0.0
H172 H 0.32179 0.37995 0.22103 0.0
H173 H 0.30905 0.29436 0.16792 0.0
H174 H 0.31379 0.36089 0.34145 0.0
H175 H 0.35338 0.38046 0.32474 0.0
H176 H 0.32785 0.39227 0.30032 0.0
H177 H 0.30267 0.25424 0.21906 0.0
H178 H 0.33575 0.27262 0.25669 0.0
H179 H 0.29815 0.25766 0.28105 0.0
H180 H 0.39525 0.33244 0.3885 0.0
H181 H 0.30237 0.29252 0.43809 0.0
H182 H 0.38713 0.361 0.2859 0.0
H183 H 0.37918 0.3237 0.26758 0.0
H184 H 0.4088 0.34459 0.31026 0.0
H185 H 0.27093 0.30948 0.34942 0.0
H186 H 0.26052 0.2763 0.38558 0.0
H187 H 0.26703 0.27528 0.32366 0.0
C188 C 0.9882 0.31178 0.56595 0.0
C189 C 0.96007 0.30904 0.55287 0.0
C190 C 0.99626 0.31335 0.61332 0.0
C191 C 0.97572 0.3123 0.64815 0.0
C192 C 0.94641 0.30729 0.63512 0.0
C193 C 0.93893 0.30568 0.58763 0.0
C194 C 0.0276 0.31834 0.62587 0.0
C195 C 0.92384 0.30606 0.6711 0.0
C196 C 0.99063 0.30862 0.77799 0.0
C197 C 0.00475 0.33979 0.79017 0.0
C198 C 0.9816 0.29917 0.73155 0.0
C199 C 0.98655 0.32143 0.69698 0.0
C200 C 0.00094 0.3529 0.70926 0.0
C201 C 0.00995 0.36166 0.75556 0.0
C202 C 0.9666 0.26547 0.71952 0.0
C203 C 0.0064 0.37738 0.6736 0.0
H204 H 0.00452 0.31412 0.5392 0.0
H205 H 0.91699 0.30322 0.57774 0.0
H206 H 0.04265 0.34259 0.63676 0.0
H207 H 0.02602 0.30351 0.65575 0.0
H208 H 0.03864 0.31355 0.59593 0.0
H209 H 0.90069 0.29794 0.65593 0.0
H210 H 0.92169 0.29067 0.70048 0.0
H211 H 0.93234 0.32938 0.68579 0.0
H212 H 0.98674 0.29169 0.80465 0.0
H213 H 0.02084 0.3858 0.76475 0.0
H214 H 0.97931 0.26202 0.69067 0.0
H215 H 0.94283 0.25709 0.70697 0.0
H216 H 0.96571 0.25125 0.74991 0.0
H217 H 0.02053 0.37674 0.64433 0.0
H218 H 0.01826 0.40087 0.68882 0.0
H219 H 0.98416 0.37293 0.65869 0.0
C220 C 0.68793 0.01605 0.90277 0.0
C221 C 0.67652 0.986 0.8864 0.0
C222 C 0.69247 0.02257 0.95083 0.0
C223 C 0.68541 -0.00157 0.98302 0.0
C224 C 0.67654 0.96866 0.96619 0.0
C225 C 0.67219 0.9628 0.91807 0.0
C226 C 0.70229 0.05471 0.96735 0.0
C227 C 0.66898 0.9423 0.99918 0.0
C228 C 0.70316 0.01676 0.11253 0.0
C229 C 0.67507 0.0127 0.12893 0.0
C230 C 0.70702 0.01205 0.06507 0.0
C231 C 0.68215 0.00296 0.03366 0.0
C232 C 0.65356 -0.00191 0.05048 0.0
C233 C 0.65043 0.00308 0.09778 0.0
C234 C 0.73781 0.01747 0.04834 0.0
C235 C 0.62631 0.98805 0.01834 0.0
H236 H 0.69147 0.0341 0.87841 0.0
H237 H 0.66369 0.93956 0.90556 0.0
H238 H 0.68222 0.05515 0.9826 0.0
H239 H 0.71999 0.0619 0.99509 0.0
H240 H 0.71158 0.07169 0.93833 0.0
H241 H 0.66735 0.9221 0.9807 0.0
H242 H 0.68655 0.94943 0.02711 0.0
H243 H 0.64659 0.93511 0.01635 0.0
H244 H 0.72232 0.0244 0.13648 0.0
H245 H 0.62863 -0.00017 0.11027 0.0
H246 H 0.74781 0.03695 0.02325 0.0
H247 H 0.73504 0.99695 0.0295 0.0
H248 H 0.75427 0.02279 0.07757 0.0
H249 H 0.632 0.00549 0.99048 0.0
H250 H 0.60556 0.98479 0.03718 0.0
H251 H 0.62067 0.96611 0.00099 0.0
C252 C 0.69388 0.68561 0.23728 0.0
C253 C 0.67252 0.65546 0.22393 0.0
C254 C 0.69464 0.69556 0.28351 0.0
C255 C 0.67332 0.67493 0.31666 0.0
C256 C 0.65184 0.64448 0.3032 0.0
C257 C 0.65181 0.63513 0.25717 0.0
C258 C 0.71801 0.7281 0.29683 0.0
C259 C 0.62847 0.62177 0.33726 0.0
C260 C 0.67894 0.68103 0.44857 0.0
C261 C 0.65656 0.68907 0.45846 0.0
C262 C 0.68685 0.67898 0.40211 0.0
C263 C 0.6719 0.68501 0.365 0.0
C264 C 0.65127 0.69567 0.37508 0.0
C265 C 0.64388 0.69759 0.42169 0.0
C266 C 0.70928 0.66794 0.39277 0.0
C267 C 0.63484 0.7024 0.33666 0.0
H268 H 0.71005 0.70132 0.21172 0.0
H269 H 0.63522 0.61179 0.2471 0.0
H270 H 0.70615 0.74075 0.30737 0.0
H271 H 0.73158 0.72801 0.32738 0.0
H272 H 0.73402 0.74076 0.26767 0.0
H273 H 0.61369 0.59881 0.32132 0.0
H274 H 0.64026 0.61896 0.36805 0.0
H275 H 0.61349 0.63058 0.35012 0.0
H276 H 0.689 0.67467 0.4769 0.0
H277 H 0.62685 0.70423 0.42916 0.0
H278 H 0.72521 0.68132 0.364 0.0
H279 H 0.69648 0.6435 0.38172 0.0
H280 H 0.72295 0.66971 0.42435 0.0
H281 H 0.65109 0.71638 0.3086 0.0
H282 H 0.62321 0.71476 0.34993 0.0
H283 H 0.61722 0.68044 0.32075 0.0
C284 C 0.96196 0.63771 0.75628 0.0
C285 C 0.97509 0.6602 0.79118 0.0
C286 C 0.9705 0.64481 0.70938 0.0
C287 C 0.99244 0.67532 0.69678 0.0
C288 C 0.00498 0.69847 0.73155 0.0
C289 C 0.99633 0.69057 0.77858 0.0
C290 C 0.95683 0.61931 0.67355 0.0
C291 C 0.02801 0.73134 0.71922 0.0
C292 C 0.03504 0.67828 0.58626 0.0
C293 C 0.01745 0.68241 0.55202 0.0
C294 C 0.02831 0.67786 0.63388 0.0
C295 C 0.00357 0.68198 0.64765 0.0
C296 C 0.98707 0.68827 0.61343 0.0
C297 C 0.99408 0.68822 0.56587 0.0
C298 C 0.04634 0.67083 0.66915 0.0
C299 C 0.96087 0.6933 0.62684 0.0
H300 H 0.94551 0.61418 0.76576 0.0
H301 H 0.00639 0.70805 0.80545 0.0
H302 H 0.94589 0.62537 0.64496 0.0
H303 H 0.97528 0.61628 0.65766 0.0
H304 H 0.93936 0.597 0.68893 0.0
H305 H 0.03312 0.74711 0.74935 0.0
H306 H 0.04976 0.73286 0.70748 0.0
H307 H 0.01935 0.73933 0.68982 0.0
H308 H 0.05327 0.67398 0.5758 0.0
H309 H 0.9806 0.6917 0.53954 0.0
H310 H 0.03135 0.64765 0.6843 0.0
H311 H 0.05412 0.68757 0.69833 0.0
H312 H 0.06675 0.67129 0.65331 0.0
H313 H 0.94084 0.67111 0.63782 0.0
H314 H 0.95367 0.70267 0.59733 0.0
H315 H 0.96741 0.70929 0.65691 0.0
C316 C 0.33492 0.96273 0.08276 0.0
C317 C 0.31979 0.96924 0.11822 0.0
C318 C 0.33711 0.97406 0.03736 0.0
C319 C 0.32349 0.99212 0.0268 0.0
C320 C 0.30745 -0.00183 0.06208 0.0
C321 C 0.30596 0.98681 0.10762 0.0
C322 C 0.35472 0.9673 0.00096 0.0
C323 C 0.29229 0.01698 0.05187 0.0
C324 C 0.362 0.04422 0.92323 0.0
C325 C 0.34384 0.02598 0.88609 0.0
C326 C 0.35442 0.03443 0.9697 0.0
C327 C 0.32783 0.00583 0.9793 0.0
C328 C 0.30809 0.98848 0.9422 0.0
C329 C 0.31645 -0.00133 0.89589 0.0
C330 C 0.37623 0.05356 0.00812 0.0
C331 C 0.27924 0.95816 0.9511 0.0
H332 H 0.34568 0.94916 0.09068 0.0
H333 H 0.29409 0.99176 0.13489 0.0
H334 H 0.33982 0.95572 0.97037 0.0
H335 H 0.37454 0.98913 0.98831 0.0
H336 H 0.3635 0.95244 0.01471 0.0
H337 H 0.27867 0.01756 0.08203 0.0
H338 H 0.31003 0.04091 0.04307 0.0
H339 H 0.27693 0.00749 0.02109 0.0
H340 H 0.38311 0.06547 0.91594 0.0
H341 H 0.30218 0.98461 0.86733 0.0
H342 H 0.38825 0.0417 0.0218 0.0
H343 H 0.36348 0.05623 0.03767 0.0
H344 H 0.39378 0.07676 0.99565 0.0
H345 H 0.28549 0.94045 0.9599 0.0
H346 H 0.2639 0.95018 0.92007 0.0
H347 H 0.26637 0.95997 0.98127 0.0
C348 C 0.13751 0.41491 0.99634 0.0
C349 C 0.12502 0.40073 0.95339 0.0
C350 C 0.16487 0.41731 0.01291 0.0
C351 C 0.18007 0.40553 0.98556 0.0
C352 C 0.16871 0.39325 0.94067 0.0
C353 C 0.14116 0.39085 0.9252 0.0
C354 C 0.1763 0.43051 0.06097 0.0
C355 C 0.1846 0.38089 0.9102 0.0
C356 C 0.26045 0.42187 0.01427 0.0
C357 C 0.25419 0.3941 0.03534 0.0
C358 C 0.2365 0.42644 0.99909 0.0
C359 C 0.20574 0.40277 0.00566 0.0
C360 C 0.19935 0.37531 0.02898 0.0
C361 C 0.2237 0.37123 0.04332 0.0
C362 C 0.24411 0.45594 0.97417 0.0
C363 C 0.16677 0.34971 0.03721 0.0
H364 H 0.12507 0.42261 0.01821 0.0
H365 H 0.13165 0.38012 0.89179 0.0
H366 H 0.1724 0.41169 0.08536 0.0
H367 H 0.20136 0.44704 0.06029 0.0
H368 H 0.16432 0.44233 0.07501 0.0
H369 H 0.17481 0.37536 0.87435 0.0
H370 H 0.20951 0.39778 0.90767 0.0
H371 H 0.18221 0.35964 0.92614 0.0
H372 H 0.28406 0.43958 0.008 0.0
H373 H 0.21884 0.34983 0.05988 0.0
H374 H 0.23094 0.46613 0.98945 0.0
H375 H 0.23735 0.45098 0.93688 0.0
H376 H 0.269 0.47319 0.97589 0.0
H377 H 0.1533 0.35876 0.05494 0.0
H378 H 0.16576 0.33082 0.05881 0.0
H379 H 0.15548 0.34 0.00319 0.0
C380 C 0.84141 0.22989 0.39051 0.0
C381 C 0.85303 0.26094 0.37949 0.0
C382 C 0.81368 0.20711 0.37144 0.0
C383 C 0.79709 0.21565 0.34076 0.0
C384 C 0.80788 0.24708 0.33133 0.0
C385 C 0.83588 0.26945 0.35077 0.0
C386 C 0.80286 0.17379 0.38254 0.0
C387 C 0.79059 0.25699 0.2992 0.0
C388 C 0.74969 0.15073 0.25781 0.0
C389 C 0.72184 0.13519 0.2822 0.0
C390 C 0.77379 0.17863 0.27447 0.0
C391 C 0.76976 0.19121 0.31633 0.0
C392 C 0.74068 0.17717 0.33843 0.0
C393 C 0.717 0.14919 0.32111 0.0
C394 C 0.80442 0.19304 0.24967 0.0
C395 C 0.73536 0.19019 0.38267 0.0
H396 H 0.85452 0.22323 0.41289 0.0
H397 H 0.84479 0.29348 0.34228 0.0
H398 H 0.77898 0.16227 0.39607 0.0
H399 H 0.8028 0.1616 0.35017 0.0
H400 H 0.81769 0.17118 0.40881 0.0
H401 H 0.7997 0.28219 0.30064 0.0
H402 H 0.79247 0.25068 0.2627 0.0
H403 H 0.76582 0.24493 0.30833 0.0
H404 H 0.75342 0.14013 0.22742 0.0
H405 H 0.69535 0.13739 0.3398 0.0
H406 H 0.82088 0.18942 0.27077 0.0
H407 H 0.81412 0.2182 0.24585 0.0
H408 H 0.80261 0.18295 0.21447 0.0
H409 H 0.74619 0.18505 0.41252 0.0
H410 H 0.71049 0.18013 0.39036 0.0
H411 H 0.74607 0.21555 0.38022 0.0
C412 C 0.57601 0.85593 0.68286 0.0
C413 C 0.59588 0.8678 0.72126 0.0
C414 C 0.56944 0.82779 0.66278 0.0
C415 C 0.58297 0.81136 0.6819 0.0
C416 C 0.60077 0.822 0.72319 0.0
C417 C 0.60713 0.85021 0.74225 0.0
C418 C 0.55014 0.81702 0.61902 0.0
C419 C 0.61526 0.80491 0.74509 0.0
C420 C 0.56513 0.73153 0.64599 0.0
C421 C 0.59087 0.73865 0.61833 0.0
C422 C 0.56094 0.755 0.66479 0.0
C423 C 0.58296 0.78605 0.65531 0.0
C424 C 0.60767 0.79313 0.62449 0.0
C425 C 0.61138 0.76931 0.60654 0.0
C426 C 0.53422 0.74661 0.69725 0.0
C427 C 0.63144 0.82597 0.61295 0.0
H428 H 0.56716 0.86946 0.6667 0.0
H429 H 0.62215 0.85918 0.77238 0.0
H430 H 0.56537 0.82206 0.58824 0.0
H431 H 0.5342 0.79181 0.62 0.0
H432 H 0.53657 0.82876 0.614 0.0
H433 H 0.62513 0.81415 0.78009 0.0
H434 H 0.59812 0.78012 0.7487 0.0
H435 H 0.63396 0.80686 0.72214 0.0
H436 H 0.54917 0.70778 0.65501 0.0
H437 H 0.63108 0.77482 0.58463 0.0
H438 H 0.52357 0.76092 0.69004 0.0
H439 H 0.54258 0.75107 0.73388 0.0
H440 H 0.51636 0.72197 0.69418 0.0
H441 H 0.62014 0.83907 0.6018 0.0
H442 H 0.64734 0.82741 0.58481 0.0
H443 H 0.64522 0.83736 0.64462 0.0
C444 C 0.76586 0.6172 0.09132 0.0
C445 C 0.73548 0.59625 0.07879 0.0
C446 C 0.79018 0.61386 0.07447 0.0
C447 C 0.78383 0.58903 0.04433 0.0
C448 C 0.75307 0.56643 0.03476 0.0
C449 C 0.72917 0.57029 0.05222 0.0
C450 C 0.82274 0.63824 0.08596 0.0
C451 C 0.74543 0.53949 0.00315 0.0
C452 C 0.84591 0.61014 0.95385 0.0
C453 C 0.8632 0.59825 0.97391 0.0
C454 C 0.81906 0.60589 0.97537 0.0
C455 C 0.80936 0.58934 0.01797 0.0
C456 C 0.82567 0.57566 0.03691 0.0
C457 C 0.85251 0.5803 0.01458 0.0
C458 C 0.80207 0.6206 0.95383 0.0
C459 C 0.81581 0.55766 0.08204 0.0
H460 H 0.77079 0.63713 0.11225 0.0
H461 H 0.70566 0.55391 0.0427 0.0
H462 H 0.83639 0.62752 0.09701 0.0
H463 H 0.83385 0.65219 0.05426 0.0
H464 H 0.82366 0.65389 0.11411 0.0
H465 H 0.72083 0.52144 0.00565 0.0
H466 H 0.75042 0.54759 0.96637 0.0
H467 H 0.75981 0.52911 0.01172 0.0
H468 H 0.85401 0.62386 0.92223 0.0
H469 H 0.86581 0.571 0.03014 0.0
H470 H 0.80392 0.63912 0.97706 0.0
H471 H 0.77731 0.60343 0.95016 0.0
H472 H 0.8113 0.63069 0.91889 0.0
H473 H 0.82074 0.57369 0.11169 0.0
H474 H 0.82806 0.5447 0.08825 0.0
H475 H 0.79071 0.54125 0.08199 0.0
C476 C 0.12507 0.71691 0.31777 0.0
C477 C 0.11701 0.72249 0.36213 0.0
C478 C 0.15181 0.73922 0.29525 0.0
C479 C 0.17083 0.76759 0.31783 0.0
C480 C 0.16361 0.77263 0.36364 0.0
C481 C 0.13671 0.75001 0.3852 0.0
C482 C 0.15883 0.73305 0.24647 0.0
C483 C 0.18351 0.80251 0.38906 0.0
C484 C 0.25198 0.82509 0.28073 0.0
C485 C 0.24756 0.84787 0.25989 0.0
C486 C 0.22693 0.79771 0.29729 0.0
C487 C 0.1969 0.79314 0.29264 0.0
C488 C 0.1922 0.81503 0.26837 0.0
C489 C 0.21764 0.84221 0.25234 0.0
C490 C 0.23279 0.77477 0.32268 0.0
C491 C 0.16046 0.81078 0.26221 0.0
H492 H 0.10986 0.69563 0.29981 0.0
H493 H 0.13062 0.75431 0.4196 0.0
H494 H 0.15516 0.74767 0.22117 0.0
H495 H 0.18324 0.73912 0.24361 0.0
H496 H 0.144 0.70861 0.23619 0.0
H497 H 0.1759 0.80188 0.42571 0.0
H498 H 0.20776 0.80788 0.38941 0.0
H499 H 0.18282 0.82157 0.37047 0.0
H500 H 0.2751 0.82934 0.28648 0.0
H501 H 0.21413 0.85968 0.2359 0.0
H502 H 0.21647 0.75101 0.31098 0.0
H503 H 0.22912 0.77588 0.36072 0.0
H504 H 0.25662 0.77941 0.31726 0.0
H505 H 0.14441 0.78751 0.24842 0.0
H506 H 0.16042 0.82814 0.23812 0.0
H507 H 0.15148 0.81284 0.29664 0.0
C508 C 0.4266 0.14684 0.67043 0.0
C509 C 0.40431 0.1334 0.70562 0.0
C510 C 0.43034 0.17262 0.64566 0.0
C511 C 0.41178 0.18549 0.65717 0.0
C512 C 0.39045 0.17299 0.69447 0.0
C513 C 0.38672 0.14683 0.71791 0.0
C514 C 0.45295 0.18504 0.60566 0.0
C515 C 0.37075 0.18655 0.70849 0.0
C516 C 0.43075 0.26509 0.61771 0.0
C517 C 0.40825 0.25795 0.58341 0.0
C518 C 0.43315 0.24175 0.64085 0.0
C519 C 0.41299 0.21071 0.62853 0.0
C520 C 0.3918 0.20361 0.59146 0.0
C521 C 0.38942 0.22735 0.56969 0.0
C522 C 0.45569 0.25018 0.68065 0.0
C523 C 0.37045 0.17082 0.57653 0.0
H524 H 0.44007 0.1363 0.66067 0.0
H525 H 0.3696 0.13651 0.74529 0.0
H526 H 0.44027 0.18075 0.5722 0.0
H527 H 0.46811 0.21027 0.60897 0.0
H528 H 0.46748 0.17416 0.60381 0.0
H529 H 0.35736 0.17585 0.74083 0.0
H530 H 0.38526 0.21168 0.71423 0.0
H531 H 0.35442 0.18317 0.67991 0.0
H532 H 0.44518 0.28877 0.6286 0.0
H533 H 0.37212 0.22186 0.54299 0.0
H534 H 0.46893 0.23804 0.67736 0.0
H535 H 0.44293 0.24283 0.71421 0.0
H536 H 0.47206 0.27532 0.68228 0.0
H537 H 0.38346 0.15856 0.57134 0.0
H538 H 0.35806 0.1695 0.54367 0.0
H539 H 0.35322 0.1585 0.6044 0.0
C540 C 0.31973 0.31137 0.69596 0.0
C541 C 0.34936 0.31644 0.68732 0.0
C542 C 0.3102 0.31258 0.74182 0.0
C543 C 0.33091 0.31923 0.77951 0.0
C544 C 0.36021 0.32272 0.77104 0.0
C545 C 0.369 0.32119 0.72516 0.0
C546 C 0.2786 0.30828 0.74963 0.0
C547 C 0.38311 0.32999 0.81007 0.0
C548 C 0.33114 0.36567 0.88346 0.0
C549 C 0.32057 0.34378 0.91951 0.0
C550 C 0.3331 0.35755 0.83734 0.0
C551 C 0.32401 0.32665 0.82672 0.0
C552 C 0.31184 0.30407 0.86248 0.0
C553 C 0.31042 0.31294 0.90867 0.0
C554 C 0.34647 0.38246 0.80046 0.0
C555 C 0.3015 0.27083 0.8523 0.0
H556 H 0.30437 0.30743 0.66687 0.0
H557 H 0.39183 0.32477 0.71885 0.0
H558 H 0.26728 0.29284 0.7799 0.0
H559 H 0.28061 0.33079 0.75784 0.0
H560 H 0.2637 0.29859 0.71836 0.0
H561 H 0.40388 0.32945 0.79821 0.0
H562 H 0.39043 0.35323 0.82412 0.0
H563 H 0.37244 0.31338 0.83922 0.0
H564 H 0.33882 0.38953 0.89146 0.0
H565 H 0.30198 0.29589 0.93635 0.0
H566 H 0.33094 0.37584 0.7698 0.0
H567 H 0.36873 0.38546 0.78809 0.0
H568 H 0.35043 0.40493 0.81376 0.0
H569 H 0.28677 0.26301 0.82065 0.0
H570 H 0.28858 0.25554 0.88203 0.0
H571 H 0.32183 0.26833 0.84514 0.0
C572 C 0.97026 0.28659 0.2713 0.0
C573 C 0.98322 0.31545 0.29302 0.0
C574 C 0.9747 0.2841 0.22335 0.0
C575 C 0.99245 0.31112 0.19673 0.0
C576 C 0.00741 0.34009 0.2193 0.0
C577 C 0.00262 0.34189 0.26719 0.0
C578 C 0.95874 0.25278 0.20071 0.0
C579 C 0.02682 0.36946 0.1923 0.0
C580 C 0.02108 0.31437 0.07318 0.0
C581 C 0.00108 0.32082 0.04774 0.0
C582 C 0.01732 0.30886 0.12153 0.0
C583 C 0.993 0.30986 0.1448 0.0
C584 C 0.97123 0.31369 0.11854 0.0
C585 C 0.97553 0.31911 0.07027 0.0
C586 C 0.04076 0.30442 0.14811 0.0
C587 C 0.94474 0.31455 0.14195 0.0
H588 H 0.95526 0.26604 0.29112 0.0
H589 H 0.01282 0.36423 0.28386 0.0
H590 H 0.9388 0.25008 0.18023 0.0
H591 H 0.97439 0.25026 0.1761 0.0
H592 H 0.95029 0.23398 0.22699 0.0
H593 H 0.03891 0.38975 0.2156 0.0
H594 H 0.04417 0.36753 0.17088 0.0
H595 H 0.01201 0.37355 0.16799 0.0
H596 H 0.04083 0.31551 0.05592 0.0
H597 H 0.9599 0.32391 0.05075 0.0
H598 H 0.02944 0.28588 0.17454 0.0
H599 H 0.05648 0.32592 0.16704 0.0
H600 H 0.05475 0.29874 0.12448 0.0
H601 H 0.93243 0.29465 0.16589 0.0
H602 H 0.92806 0.31431 0.11622 0.0
H603 H 0.95368 0.33575 0.1633 0.0
C604 C 0.68024 0.01786 0.60871 0.0
C605 C 0.68425 0.99562 0.63223 0.0
C606 C 0.68451 0.02185 0.56019 0.0
C607 C 0.69354 0.00351 0.53466 0.0
C608 C 0.70016 0.98288 0.55881 0.0
C609 C 0.69518 0.97898 0.60733 0.0
C610 C 0.67712 0.04409 0.53586 0.0
C611 C 0.71064 0.96353 0.53309 0.0
C612 C 0.66259 0.98768 0.41078 0.0
C613 C 0.68701 0.01136 0.38595 0.0
C614 C 0.66502 0.98383 0.45891 0.0
C615 C 0.69275 0.0038 0.48258 0.0
C616 C 0.71831 0.02607 0.45686 0.0
C617 C 0.71504 0.0298 0.40889 0.0
C618 C 0.63713 0.95985 0.485 0.0
C619 C 0.74851 0.04722 0.48047 0.0
H620 H 0.67178 0.0308 0.62769 0.0
H621 H 0.69844 0.96181 0.62533 0.0
H622 H 0.69638 0.0598 0.51281 0.0
H623 H 0.65655 0.03113 0.51342 0.0
H624 H 0.67246 0.05812 0.56097 0.0
H625 H 0.7199 0.95284 0.55732 0.0
H626 H 0.69094 0.94491 0.51392 0.0
H627 H 0.72855 0.97757 0.50694 0.0
H628 H 0.64085 0.9734 0.39328 0.0
H629 H 0.73407 0.04805 0.38978 0.0
H630 H 0.62871 0.97138 0.50899 0.0
H631 H 0.64319 0.94534 0.5067 0.0
H632 H 0.61812 0.94471 0.46107 0.0
H633 H 0.74631 0.06466 0.50121 0.0
H634 H 0.7674 0.05941 0.45477 0.0
H635 H 0.75488 0.03418 0.50498 0.0
C636 C 0.63093 0.65195 0.75444 0.0
C637 C 0.64906 0.67576 0.72327 0.0
C638 C 0.63995 0.65269 0.80094 0.0
C639 C 0.66761 0.67816 0.81706 0.0
C640 C 0.68606 0.70241 0.78583 0.0
C641 C 0.67668 0.70079 0.73901 0.0
C642 C 0.61983 0.62605 0.83277 0.0
C643 C 0.71544 0.73011 0.80201 0.0
C644 C 0.66813 0.68194 0.9494 0.0
C645 C 0.6827 0.66518 0.96058 0.0
C646 C 0.66528 0.68876 0.90259 0.0
C647 C 0.67716 0.67843 0.8664 0.0
C648 C 0.6941 0.66377 0.87794 0.0
C649 C 0.6967 0.65738 0.92488 0.0
C650 C 0.64746 0.70487 0.89173 0.0
C651 C 0.70718 0.65237 0.84058 0.0
H652 H 0.60961 0.6325 0.74235 0.0
H653 H 0.69057 0.71937 0.71505 0.0
H654 H 0.63311 0.61561 0.8468 0.0
H655 H 0.61217 0.63432 0.86302 0.0
H656 H 0.59918 0.60788 0.81459 0.0
H657 H 0.72719 0.74699 0.77341 0.0
H658 H 0.71042 0.74168 0.83086 0.0
H659 H 0.73141 0.72284 0.81605 0.0
H660 H 0.65743 0.68819 0.97687 0.0
H661 H 0.70833 0.64472 0.93335 0.0
H662 H 0.62441 0.6879 0.87821 0.0
H663 H 0.65921 0.72257 0.86423 0.0
H664 H 0.64437 0.71599 0.9232 0.0
H665 H 0.68815 0.63206 0.82305 0.0
H666 H 0.72339 0.64556 0.85523 0.0
H667 H 0.71932 0.67025 0.81347 0.0
C668 C 0.00504 0.71094 0.27631 0.0
C669 C 0.98991 0.68138 0.29605 0.0
C670 C 0.00239 0.71531 0.22836 0.0
C671 C 0.98429 0.68949 0.19973 0.0
C672 C 0.96675 0.66004 0.2204 0.0
C673 C 0.96974 0.65636 0.26836 0.0
C674 C 0.02093 0.74715 0.20787 0.0
C675 C 0.94683 0.6319 0.19125 0.0
C676 C 0.96359 0.69066 0.07256 0.0
C677 C 0.98361 0.68278 0.05039 0.0
C678 C 0.96497 0.69537 0.12113 0.0
C679 C 0.98683 0.69206 0.14788 0.0
C680 C 0.00887 0.68695 0.12498 0.0
C681 C 0.007 0.6824 0.07647 0.0
C682 C 0.94142 0.70134 0.14405 0.0
C683 C 0.03284 0.68361 0.15211 0.0
H684 H 0.02059 0.73043 0.29759 0.0
H685 H 0.95779 0.6335 0.28349 0.0
H686 H 0.04164 0.74935 0.19041 0.0
H687 H 0.00747 0.75137 0.1811 0.0
H688 H 0.02854 0.76521 0.23519 0.0
H689 H 0.93229 0.61136 0.21315 0.0
H690 H 0.93168 0.63612 0.16795 0.0
H691 H 0.96163 0.62671 0.16871 0.0
H692 H 0.94547 0.69108 0.05257 0.0
H693 H 0.02266 0.67654 0.05947 0.0
H694 H 0.95192 0.71847 0.17255 0.0
H695 H 0.92309 0.67968 0.15978 0.0
H696 H 0.93059 0.70968 0.11848 0.0
H697 H 0.04493 0.70296 0.17696 0.0
H698 H 0.05014 0.68285 0.12885 0.0
H699 H 0.02148 0.66205 0.1729 0.0
C700 C 0.31547 0.99094 0.3978 0.0
C701 C 0.3079 0.96083 0.3865 0.0
C702 C 0.31831 0.0003 0.44474 0.0
C703 C 0.31345 0.97898 0.48089 0.0
C704 C 0.30337 0.94796 0.46954 0.0
C705 C 0.30075 0.93929 0.4225 0.0
C706 C 0.32883 0.03352 0.45545 0.0
C707 C 0.29784 0.92445 0.5069 0.0
C708 C 0.36427 0.00861 0.58791 0.0
C709 C 0.3442 0.00871 0.62185 0.0
C710 C 0.35452 -0.00061 0.54197 0.0
C711 C 0.32382 0.98993 0.52939 0.0
C712 C 0.30332 0.9899 0.5634 0.0
C713 C 0.31376 -0.00069 0.60941 0.0
C714 C 0.37715 -0.00036 0.50691 0.0
C715 C 0.27045 0.97996 0.55116 0.0
H716 H 0.32084 0.00762 0.37008 0.0
H717 H 0.29447 0.91583 0.41397 0.0
H718 H 0.31546 0.03531 0.4849 0.0
H719 H 0.35332 0.04537 0.46619 0.0
H720 H 0.32659 0.04576 0.42465 0.0
H721 H 0.28584 0.90063 0.49293 0.0
H722 H 0.3202 0.92919 0.52171 0.0
H723 H 0.28401 0.9259 0.53594 0.0
H724 H 0.38785 0.01592 0.5972 0.0
H725 H 0.29823 -0.00047 0.63547 0.0
H726 H 0.37929 0.01444 0.47666 0.0
H727 H 0.36873 0.97607 0.49336 0.0
H728 H 0.40034 0.00818 0.52219 0.0
H729 H 0.26981 0.99423 0.52201 0.0
H730 H 0.25759 0.98186 0.58133 0.0
H731 H 0.25848 0.95576 0.53893 0.0
C732 C 0.43977 0.4356 0.04081 0.0
C733 C 0.41824 0.44011 0.06536 0.0
C734 C 0.47111 0.4577 0.04208 0.0
C735 C 0.48109 0.4845 0.06945 0.0
C736 C 0.45945 0.4889 0.09491 0.0
C737 C 0.42818 0.46678 0.0921 0.0
C738 C 0.49348 0.45255 0.01374 0.0
C739 C 0.46935 0.51688 0.12527 0.0
C740 C 0.5646 0.52776 0.10694 0.0
C741 C 0.57676 0.55311 0.07668 0.0
C742 C 0.5334 0.5053 0.10514 0.0
C743 C 0.5142 0.50797 0.07151 0.0
C744 C 0.52654 0.53324 0.04025 0.0
C745 C 0.55767 0.55576 0.04361 0.0
C746 C 0.5209 0.47901 0.13969 0.0
C747 C 0.50687 0.53647 0.00328 0.0
H748 H 0.43203 0.41506 0.01986 0.0
H749 H 0.41152 0.47017 0.1113 0.0
H750 H 0.5061 0.47192 0.98898 0.0
H751 H 0.51078 0.45193 0.03711 0.0
H752 H 0.48189 0.43076 0.99355 0.0
H753 H 0.44971 0.51638 0.1439 0.0
H754 H 0.48635 0.51848 0.15153 0.0
H755 H 0.48078 0.53803 0.1036 0.0
H756 H 0.57935 0.52583 0.13276 0.0
H757 H 0.56715 0.5753 0.02003 0.0
H758 H 0.5108 0.45677 0.12086 0.0
H759 H 0.50223 0.47885 0.16061 0.0
H760 H 0.53886 0.48049 0.16395 0.0
H761 H 0.49593 0.51557 0.98107 0.0
H762 H 0.5203 0.55683 0.9805 0.0
H763 H 0.48814 0.5386 0.02005 0.0
C764 C 0.02126 0.56226 0.39741 0.0
C765 C 0.0042 0.57283 0.42184 0.0
C766 C 0.01287 0.53111 0.39844 0.0
C767 C 0.98714 0.51019 0.42528 0.0
C768 C 0.97015 0.52085 0.45071 0.0
C769 C 0.97871 0.55205 0.4483 0.0
C770 C 0.03126 0.52051 0.37027 0.0
C771 C 0.94294 0.4993 0.48039 0.0
C772 C 0.94864 0.42574 0.39272 0.0
C773 C 0.9623 0.41482 0.4243 0.0
C774 C 0.95635 0.45672 0.39291 0.0
C775 C 0.97781 0.47706 0.42603 0.0
C776 C 0.99106 0.46595 0.4588 0.0
C777 C 0.98336 0.43498 0.45726 0.0
C778 C 0.94208 0.46783 0.35696 0.0
C779 C 0.01363 0.48685 0.49515 0.0
H780 H 0.0409 0.57827 0.37676 0.0
H781 H 0.9656 0.56023 0.46745 0.0
H782 H 0.04084 0.50973 0.39361 0.0
H783 H 0.0161 0.50279 0.34469 0.0
H784 H 0.05051 0.53969 0.35098 0.0
H785 H 0.93284 0.51145 0.49933 0.0
H786 H 0.92489 0.48123 0.45813 0.0
H787 H 0.94996 0.48754 0.50634 0.0
H788 H 0.93243 0.41022 0.36708 0.0
H789 H 0.99381 0.42653 0.48191 0.0
H790 H 0.96033 0.48582 0.33474 0.0
H791 H 0.93 0.47844 0.37452 0.0
H792 H 0.92547 0.44897 0.33404 0.0
H793 H 0.03455 0.50517 0.47777 0.0
H794 H 0.02055 0.47424 0.51971 0.0
H795 H 0.00345 0.49833 0.51555 0.0
C796 C 0.54833 0.97568 0.8114 0.0
C797 C 0.56206 0.9775 0.76797 0.0
C798 C 0.52494 0.98308 0.81578 0.0
C799 C 0.51513 0.99241 0.77574 0.0
C800 C 0.5287 0.99392 0.73174 0.0
C801 C 0.55204 0.98649 0.72841 0.0
C802 C 0.51099 0.98125 0.86324 0.0
C803 C 0.51877 0.00366 0.68818 0.0
C804 C 0.43756 0.98779 0.77094 0.0
C805 C 0.4459 0.01874 0.77634 0.0
C806 C 0.45975 0.97867 0.77238 0.0
C807 C 0.49096 0.00105 0.77955 0.0
C808 C 0.49932 0.03215 0.78693 0.0
C809 C 0.47667 0.04064 0.78514 0.0
C810 C 0.44997 0.9453 0.76432 0.0
C811 C 0.53236 0.05664 0.79493 0.0
H812 H 0.55606 0.96876 0.84208 0.0
H813 H 0.56256 0.98789 0.69474 0.0
H814 H 0.51489 0.00425 0.87341 0.0
H815 H 0.48578 0.9655 0.86193 0.0
H816 H 0.5208 0.97304 0.89074 0.0
H817 H 0.53127 0.0031 0.65652 0.0
H818 H 0.49378 0.98835 0.68238 0.0
H819 H 0.52282 0.02735 0.69257 0.0
H820 H 0.41377 0.97076 0.76422 0.0
H821 H 0.48319 0.06458 0.78955 0.0
H822 H 0.45898 0.93677 0.79249 0.0
H823 H 0.45976 0.94296 0.73084 0.0
H824 H 0.42459 0.93042 0.7629 0.0
H825 H 0.54247 0.04971 0.82366 0.0
H826 H 0.53471 0.07926 0.80374 0.0
H827 H 0.54601 0.0594 0.76296 0.0
C828 C 0.55564 0.55763 0.59141 0.0
C829 C 0.55212 0.57968 0.56647 0.0
C830 C 0.53422 0.52624 0.58699 0.0
C831 C 0.50917 0.5167 0.55587 0.0
C832 C 0.5059 0.53887 0.52975 0.0
C833 C 0.52723 0.57022 0.53589 0.0
C834 C 0.53808 0.50335 0.61631 0.0
C835 C 0.47993 0.52946 0.49536 0.0
C836 C 0.4706 0.43285 0.51988 0.0
C837 C 0.44455 0.41977 0.54865 0.0
C838 C 0.49124 0.46464 0.52048 0.0
C839 C 0.48611 0.4835 0.55163 0.0
C840 C 0.45968 0.47036 0.5805 0.0
C841 C 0.43896 0.43866 0.57816 0.0
C842 C 0.51875 0.47798 0.4883 0.0
C843 C 0.45382 0.4896 0.61501 0.0
H844 H 0.57479 0.56498 0.61533 0.0
H845 H 0.52465 0.58731 0.51638 0.0
H846 H 0.51741 0.48995 0.63842 0.0
H847 H 0.54031 0.48677 0.5934 0.0
H848 H 0.55858 0.51462 0.63936 0.0
H849 H 0.48153 0.54944 0.47609 0.0
H850 H 0.47996 0.51294 0.46968 0.0
H851 H 0.45758 0.5176 0.51396 0.0
H852 H 0.47476 0.41823 0.49677 0.0
H853 H 0.41889 0.42848 0.60062 0.0
H854 H 0.54015 0.48726 0.50918 0.0
H855 H 0.51996 0.49738 0.46794 0.0
H856 H 0.51805 0.46062 0.46353 0.0
H857 H 0.47291 0.50005 0.64067 0.0
H858 H 0.4319 0.47591 0.63435 0.0
H859 H 0.45313 0.50871 0.59668 0.0
C860 C 0.95947 0.53492 0.91022 0.0
C861 C 0.976 0.56182 0.93653 0.0
C862 C 0.96736 0.51182 0.91114 0.0
C863 C 0.99187 0.51547 0.93994 0.0
C864 C 0.00824 0.54234 0.96732 0.0
C865 C 0.00034 0.56542 0.96482 0.0
C866 C 0.94979 0.48375 0.88072 0.0
C867 C 0.03406 0.54668 0.99921 0.0
C868 C 0.99315 0.44247 0.96943 0.0
C869 C 0.01555 0.44428 0.9384 0.0
C870 C 0.98581 0.46596 0.9713 0.0
C871 C 0.00073 0.49138 0.94057 0.0
C872 C 0.02348 0.49335 0.90932 0.0
C873 C 0.03089 0.46991 0.90902 0.0
C874 C 0.96193 0.46346 0.00581 0.0
C875 C 0.03942 0.51981 0.87537 0.0
H876 H 0.94073 0.53221 0.88816 0.0
H877 H 0.01297 0.58615 0.98546 0.0
H878 H 0.9658 0.48165 0.8563 0.0
H879 H 0.939 0.4627 0.90264 0.0
H880 H 0.93155 0.48462 0.85997 0.0
H881 H 0.04358 0.56831 0.0197 0.0
H882 H 0.02576 0.52703 0.02387 0.0
H883 H 0.05288 0.54713 0.97837 0.0
H884 H 0.98143 0.42271 0.99236 0.0
H885 H 0.04809 0.47122 0.88481 0.0
H886 H 0.94184 0.46162 0.9868 0.0
H887 H 0.97146 0.48451 0.02762 0.0
H888 H 0.95386 0.44317 0.02917 0.0
H889 H 0.0222 0.52054 0.8519 0.0
H890 H 0.05672 0.51798 0.85358 0.0
H891 H 0.05106 0.54193 0.89458 0.0
C892 C 0.56228 0.02994 0.23988 0.0
C893 C 0.57418 0.01759 0.27213 0.0
C894 C 0.53079 0.02003 0.23885 0.0
C895 C 0.51091 0.9977 0.27147 0.0
C896 C 0.52296 0.98577 0.30497 0.0
C897 C 0.55447 0.99565 0.30459 0.0
C898 C 0.5187 0.03292 0.20214 0.0
C899 C 0.50252 0.96236 0.34086 0.0
C900 C 0.43337 0.99155 0.29096 0.0
C901 C 0.41404 0.9656 0.26421 0.0
C902 C 0.4649 0.00191 0.29444 0.0
C903 C 0.47739 0.98629 0.26975 0.0
C904 C 0.45794 0.96008 0.24264 0.0
C905 C 0.42639 0.94984 0.2406 0.0
C906 C 0.48484 0.0296 0.32438 0.0
C907 C 0.47054 0.94316 0.21517 0.0
H908 H 0.57747 0.04678 0.21455 0.0
H909 H 0.56368 0.98618 0.3297 0.0
H910 H 0.50174 0.01403 0.17968 0.0
H911 H 0.50659 0.04374 0.21902 0.0
H912 H 0.53726 0.05031 0.17955 0.0
H913 H 0.51574 0.95656 0.36596 0.0
H914 H 0.48959 0.9712 0.3607 0.0
H915 H 0.48539 0.94095 0.32312 0.0
H916 H 0.42379 0.00365 0.30949 0.0
H917 H 0.41147 0.92986 0.21971 0.0
H918 H 0.50242 0.04836 0.30239 0.0
H919 H 0.49725 0.02366 0.35073 0.0
H920 H 0.47133 0.03836 0.34286 0.0
H921 H 0.48802 0.95906 0.18985 0.0
H922 H 0.45233 0.92325 0.19568 0.0
H923 H 0.48214 0.93473 0.23902 0.0
loop_
_geom_bond_atom_site_label_1
_geom_bond_atom_site_label_2
_geom_bond_distance
_geom_bond_site_symmetry_2
_ccdc_geom_bond_type
In0 O1 2.294 . S
In0 O2 2.326 . S
In0 O6 2.266 . S
In0 O7 2.326 . S
In0 O8 2.266 . S
In0 O9 2.326 . S
In0 O11 2.294 . S
In0 O12 2.326 1_554 S
O1 In0 2.294 . S
O1 C10 1.240 . S
O2 In0 2.326 . S
O2 C10 1.252 . S
C3 O6 1.252 . S
C3 O7 1.260 . S
C4 O11 1.240 1_556 S
C4 O12 1.252 . S
C5 O8 1.252 . S
C5 O9 1.260 . S
O6 In0 2.266 . S
O6 C3 1.252 . S
O7 In0 2.326 . S
O7 C3 1.260 . S
O8 In0 2.266 . S
O8 C5 1.252 . S
O9 In0 2.326 . S
O9 C5 1.260 . S
C10 O1 1.240 . S
C10 O2 1.252 . S
O11 In0 2.294 . S
O11 C4 1.240 1_554 S
O12 In0 2.326 1_556 S
O12 C4 1.252 . S
In13 O14 2.294 . S
In13 O15 2.326 . S
In13 O19 2.263 1_655 S
In13 O20 2.326 . S
In13 O21 2.266 . S
In13 O22 2.319 1_655 S
In13 O24 2.294 . S
In13 O25 2.326 . S
O14 In13 2.294 . S
O14 C23 1.240 . S
O15 In13 2.326 . S
O15 C23 1.252 . S
C16 O19 1.249 1_655 S
C16 O20 1.260 . S
C17 O24 1.240 . S
C17 O25 1.252 . S
C18 O21 1.252 . S
C18 O22 1.225 1_655 S
O19 In13 2.263 1_455 S
O19 C16 1.249 1_455 S
O20 In13 2.326 . S
O20 C16 1.260 . S
O21 In13 2.266 . S
O21 C18 1.252 . S
O22 In13 2.319 1_455 S
O22 C18 1.225 1_455 S
C23 O14 1.240 . S
C23 O15 1.252 . S
O24 In13 2.294 . S
O24 C17 1.240 . S
O25 In13 2.326 . S
O25 C17 1.252 . S
In26 O27 2.294 . S
In26 O28 2.326 . S
In26 O32 2.266 . S
In26 O33 2.292 1_565 S
In26 O34 2.264 1_565 S
In26 O35 2.326 . S
In26 O37 2.294 . S
In26 O38 2.326 . S
O27 In26 2.294 . S
O27 C36 1.240 . S
O28 In26 2.326 . S
O28 C36 1.252 . S
C29 O32 1.252 . S
C29 O33 1.248 1_565 S
C30 O37 1.240 . S
C30 O38 1.252 . S
C31 O34 1.250 1_565 S
C31 O35 1.260 . S
O32 In26 2.266 . S
O32 C29 1.252 . S
O33 In26 2.292 1_545 S
O33 C29 1.248 1_545 S
O34 In26 2.264 1_545 S
O34 C31 1.250 1_545 S
O35 In26 2.326 . S
O35 C31 1.260 . S
C36 O27 1.240 . S
C36 O28 1.252 . S
O37 In26 2.294 . S
O37 C30 1.240 . S
O38 In26 2.326 . S
O38 C30 1.252 . S
In39 O40 2.294 . S
In39 O41 2.326 1_554 S
In39 O45 2.266 . S
In39 O46 2.326 . S
In39 O47 2.266 . S
In39 O48 2.326 . S
In39 O50 2.294 . S
In39 O51 2.326 . S
O40 In39 2.294 . S
O40 C49 1.240 1_554 S
O41 In39 2.326 1_556 S
O41 C49 1.252 . S
C42 O45 1.252 . S
C42 O46 1.260 . S
C43 O50 1.240 . S
C43 O51 1.252 . S
C44 O47 1.252 . S
C44 O48 1.260 . S
O45 In39 2.266 . S
O45 C42 1.252 . S
O46 In39 2.326 . S
O46 C42 1.260 . S
O47 In39 2.266 . S
O47 C44 1.252 . S
O48 In39 2.326 . S
O48 C44 1.260 . S
C49 O40 1.240 1_556 S
C49 O41 1.252 . S
O50 In39 2.294 . S
O50 C43 1.240 . S
O51 In39 2.326 . S
O51 C43 1.252 . S
In52 O53 2.294 . S
In52 O54 2.326 . S
In52 O58 2.266 . S
In52 O59 2.319 1_455 S
In52 O60 2.263 1_455 S
In52 O61 2.326 . S
In52 O63 2.294 . S
In52 O64 2.326 . S
O53 In52 2.294 . S
O53 C62 1.240 . S
O54 In52 2.326 . S
O54 C62 1.252 . S
C55 O58 1.252 . S
C55 O59 1.225 1_455 S
C56 O63 1.240 . S
C56 O64 1.252 . S
C57 O60 1.249 1_455 S
C57 O61 1.260 . S
O58 In52 2.266 . S
O58 C55 1.252 . S
O59 In52 2.319 1_655 S
O59 C55 1.225 1_655 S
O60 In52 2.263 1_655 S
O60 C57 1.249 1_655 S
O61 In52 2.326 . S
O61 C57 1.260 . S
C62 O53 1.240 . S
C62 O54 1.252 . S
O63 In52 2.294 . S
O63 C56 1.240 . S
O64 In52 2.326 . S
O64 C56 1.252 . S
In65 O66 2.294 . S
In65 O67 2.326 . S
In65 O71 2.264 1_545 S
In65 O72 2.326 . S
In65 O73 2.266 . S
In65 O74 2.292 1_545 S
In65 O76 2.294 . S
In65 O77 2.326 . S
O66 In65 2.294 . S
O66 C75 1.240 . S
O67 In65 2.326 . S
O67 C75 1.252 . S
C68 O71 1.250 1_545 S
C68 O72 1.260 . S
C69 O76 1.240 . S
C69 O77 1.252 . S
C70 O73 1.252 . S
C70 O74 1.248 1_545 S
O71 In65 2.264 1_565 S
O71 C68 1.250 1_565 S
O72 In65 2.326 . S
O72 C68 1.260 . S
O73 In65 2.266 . S
O73 C70 1.252 . S
O74 In65 2.292 1_565 S
O74 C70 1.248 1_565 S
C75 O66 1.240 . S
C75 O67 1.252 . S
O76 In65 2.294 . S
O76 C69 1.240 . S
O77 In65 2.326 . S
O77 C69 1.252 . S
In78 O79 2.294 . S
In78 O80 2.326 . S
In78 O84 2.266 . S
In78 O85 2.326 . S
In78 O86 2.266 . S
In78 O87 2.326 . S
In78 O89 2.294 . S
In78 O90 2.326 . S
O79 In78 2.294 . S
O79 C88 1.240 . S
O80 In78 2.326 . S
O80 C88 1.252 . S
C81 O84 1.252 . S
C81 O85 1.260 . S
C82 O89 1.240 . S
C82 O90 1.252 . S
C83 O86 1.252 . S
C83 O87 1.260 . S
O84 In78 2.266 . S
O84 C81 1.252 . S
O85 In78 2.326 . S
O85 C81 1.260 . S
O86 In78 2.266 . S
O86 C83 1.252 . S
O87 In78 2.326 . S
O87 C83 1.260 . S
C88 O79 1.240 . S
C88 O80 1.252 . S
O89 In78 2.294 . S
O89 C82 1.240 . S
O90 In78 2.326 . S
O90 C82 1.252 . S
In91 O92 2.294 . S
In91 O93 2.326 . S
In91 O97 2.266 . S
In91 O98 2.292 1_655 S
In91 O99 2.264 1_655 S
In91 O100 2.326 . S
In91 O102 2.294 . S
In91 O103 2.326 1_556 S
O92 In91 2.294 . S
O92 C101 1.240 . S
O93 In91 2.326 . S
O93 C101 1.252 . S
C94 O97 1.252 . S
C94 O98 1.248 1_655 S
C95 O102 1.240 1_554 S
C95 O103 1.252 . S
C96 O99 1.250 1_655 S
C96 O100 1.260 . S
O97 In91 2.266 . S
O97 C94 1.252 . S
O98 In91 2.292 1_455 S
O98 C94 1.248 1_455 S
O99 In91 2.264 1_455 S
O99 C96 1.250 1_455 S
O100 In91 2.326 . S
O100 C96 1.260 . S
C101 O92 1.240 . S
C101 O93 1.252 . S
O102 In91 2.294 . S
O102 C95 1.240 1_556 S
O103 In91 2.326 1_554 S
O103 C95 1.252 . S
In104 O105 2.294 . S
In104 O106 2.326 . S
In104 O110 2.266 . S
In104 O111 2.319 1_565 S
In104 O112 2.263 1_565 S
In104 O113 2.326 . S
In104 O115 2.294 . S
In104 O116 2.326 . S
O105 In104 2.294 . S
O105 C114 1.240 . S
O106 In104 2.326 . S
O106 C114 1.252 . S
C107 O110 1.252 . S
C107 O111 1.225 1_565 S
C108 O115 1.240 . S
C108 O116 1.252 . S
C109 O112 1.249 1_565 S
C109 O113 1.260 . S
O110 In104 2.266 . S
O110 C107 1.252 . S
O111 In104 2.319 1_545 S
O111 C107 1.225 1_545 S
O112 In104 2.263 1_545 S
O112 C109 1.249 1_545 S
O113 In104 2.326 . S
O113 C109 1.260 . S
C114 O105 1.240 . S
C114 O106 1.252 . S
O115 In104 2.294 . S
O115 C108 1.240 . S
O116 In104 2.326 . S
O116 C108 1.252 . S
In117 O118 2.294 . S
In117 O119 2.326 . S
In117 O123 2.266 . S
In117 O124 2.326 . S
In117 O125 2.266 . S
In117 O126 2.326 . S
In117 O128 2.294 . S
In117 O129 2.326 . S
O118 In117 2.294 . S
O118 C127 1.240 . S
O119 In117 2.326 . S
O119 C127 1.252 . S
C120 O123 1.252 . S
C120 O124 1.260 . S
C121 O128 1.240 . S
C121 O129 1.252 . S
C122 O125 1.252 . S
C122 O126 1.260 . S
O123 In117 2.266 . S
O123 C120 1.252 . S
O124 In117 2.326 . S
O124 C120 1.260 . S
O125 In117 2.266 . S
O125 C122 1.252 . S
O126 In117 2.326 . S
O126 C122 1.260 . S
C127 O118 1.240 . S
C127 O119 1.252 . S
O128 In117 2.294 . S
O128 C121 1.240 . S
O129 In117 2.326 . S
O129 C121 1.252 . S
In130 O131 2.294 . S
In130 O132 2.326 1_556 S
In130 O136 2.264 1_455 S
In130 O137 2.326 . S
In130 O138 2.266 . S
In130 O139 2.292 1_455 S
In130 O141 2.294 . S
In130 O142 2.326 . S
O131 In130 2.294 . S
O131 C140 1.240 1_556 S
O132 In130 2.326 1_554 S
O132 C140 1.252 . S
C133 O136 1.250 1_455 S
C133 O137 1.260 . S
C134 O141 1.240 . S
C134 O142 1.252 . S
C135 O138 1.252 . S
C135 O139 1.248 1_455 S
O136 In130 2.264 1_655 S
O136 C133 1.250 1_655 S
O137 In130 2.326 . S
O137 C133 1.260 . S
O138 In130 2.266 . S
O138 C135 1.252 . S
O139 In130 2.292 1_655 S
O139 C135 1.248 1_655 S
C140 O131 1.240 1_554 S
C140 O132 1.252 . S
O141 In130 2.294 . S
O141 C134 1.240 . S
O142 In130 2.326 . S
O142 C134 1.252 . S
In143 O144 2.294 . S
In143 O145 2.326 . S
In143 O149 2.266 . S
In143 O150 2.319 1_545 S
In143 O151 2.263 1_545 S
In143 O152 2.326 . S
In143 O154 2.294 . S
In143 O155 2.326 . S
O144 In143 2.294 . S
O144 C153 1.240 . S
O145 In143 2.326 . S
O145 C153 1.252 . S
C146 O149 1.252 . S
C146 O150 1.225 1_545 S
C147 O154 1.240 . S
C147 O155 1.252 . S
C148 O151 1.249 1_545 S
C148 O152 1.260 . S
O149 In143 2.266 . S
O149 C146 1.252 . S
O150 In143 2.319 1_565 S
O150 C146 1.225 1_565 S
O151 In143 2.263 1_565 S
O151 C148 1.249 1_565 S
O152 In143 2.326 . S
O152 C148 1.260 . S
C153 O144 1.240 . S
C153 O145 1.252 . S
O154 In143 2.294 . S
O154 C147 1.240 . S
O155 In143 2.326 . S
O155 C147 1.252 . S
C156 C157 1.391 . S
C156 C158 1.394 . S
C156 H172 0.931 . S
C157 C156 1.391 . S
C157 C161 1.376 . S
C158 C156 1.394 . S
C158 C159 1.369 . S
C158 C162 1.531 . S
C159 C158 1.369 . S
C159 C160 1.410 . S
C159 C167 1.503 . S
C160 C159 1.410 . S
C160 C161 1.392 . S
C160 C163 1.511 . S
C161 C157 1.376 . S
C161 C160 1.392 . S
C161 H173 0.929 . S
C162 C158 1.531 . S
C162 H174 0.960 . S
C162 H175 0.962 . S
C162 H176 0.960 . S
C163 C160 1.511 . S
C163 H177 0.961 . S
C163 H178 0.961 . S
C163 H179 0.961 . S
C164 C165 1.370 . S
C164 C166 1.363 . S
C164 H180 0.931 . S
C165 C164 1.370 . S
C165 C169 1.408 . S
C166 C164 1.363 . S
C166 C167 1.370 . S
C166 C170 1.524 . S
C167 C159 1.503 . S
C167 C166 1.370 . S
C167 C168 1.403 . S
C168 C167 1.403 . S
C168 C169 1.404 . S
C168 C171 1.539 . S
C169 C165 1.408 . S
C169 C168 1.404 . S
C169 H181 0.930 . S
C170 C166 1.524 . S
C170 H182 0.956 . S
C170 H183 0.961 . S
C170 H184 0.961 . S
C171 C168 1.539 . S
C171 H185 0.958 . S
C171 H186 0.961 . S
C171 H187 0.960 . S
H172 C156 0.931 . S
H173 C161 0.929 . S
H174 C162 0.960 . S
H175 C162 0.962 . S
H176 C162 0.960 . S
H177 C163 0.961 . S
H178 C163 0.961 . S
H179 C163 0.961 . S
H180 C164 0.931 . S
H181 C169 0.930 . S
H182 C170 0.956 . S
H183 C170 0.961 . S
H184 C170 0.961 . S
H185 C171 0.958 . S
H186 C171 0.961 . S
H187 C171 0.960 . S
C188 C189 1.391 1_455 S
C188 C190 1.394 . S
C188 H204 0.931 . S
C189 C188 1.391 1_655 S
C189 C193 1.376 . S
C190 C188 1.394 . S
C190 C191 1.369 . S
C190 C194 1.531 . S
C191 C190 1.369 . S
C191 C192 1.410 1_455 S
C191 C199 1.503 . S
C192 C191 1.410 1_655 S
C192 C193 1.392 . S
C192 C195 1.511 . S
C193 C189 1.376 . S
C193 C192 1.392 . S
C193 H205 0.929 . S
C194 C190 1.531 . S
C194 H206 0.960 . S
C194 H207 0.962 . S
C194 H208 0.960 . S
C195 C192 1.511 . S
C195 H209 0.961 . S
C195 H210 0.961 . S
C195 H211 0.961 . S
C196 C197 1.370 1_655 S
C196 C198 1.363 . S
C196 H212 0.931 . S
C197 C196 1.370 1_455 S
C197 C201 1.408 . S
C198 C196 1.363 . S
C198 C199 1.370 1_655 S
C198 C202 1.524 . S
C199 C191 1.503 . S
C199 C198 1.370 1_455 S
C199 C200 1.403 . S
C200 C199 1.403 . S
C200 C201 1.404 . S
C200 C203 1.539 . S
C201 C197 1.408 . S
C201 C200 1.404 . S
C201 H213 0.930 . S
C202 C198 1.524 . S
C202 H214 0.956 . S
C202 H215 0.961 . S
C202 H216 0.961 . S
C203 C200 1.539 . S
C203 H217 0.958 . S
C203 H218 0.961 . S
C203 H219 0.960 . S
H204 C188 0.931 . S
H205 C193 0.929 . S
H206 C194 0.960 . S
H207 C194 0.962 . S
H208 C194 0.960 . S
H209 C195 0.961 . S
H210 C195 0.961 . S
H211 C195 0.961 . S
H212 C196 0.931 . S
H213 C201 0.930 . S
H214 C202 0.956 . S
H215 C202 0.961 . S
H216 C202 0.961 . S
H217 C203 0.958 . S
H218 C203 0.961 . S
H219 C203 0.960 . S
C220 C221 1.391 1_545 S
C220 C222 1.394 . S
C220 H236 0.931 . S
C221 C220 1.391 1_565 S
C221 C225 1.376 . S
C222 C220 1.394 . S
C222 C223 1.369 1_545 S
C222 C226 1.531 . S
C223 C222 1.369 1_565 S
C223 C224 1.410 . S
C223 C231 1.503 1_566 S
C224 C223 1.410 . S
C224 C225 1.392 . S
C224 C227 1.511 . S
C225 C221 1.376 . S
C225 C224 1.392 . S
C225 H237 0.929 . S
C226 C222 1.531 . S
C226 H238 0.960 . S
C226 H239 0.962 . S
C226 H240 0.960 . S
C227 C224 1.511 . S
C227 H241 0.961 . S
C227 H242 0.961 1_556 S
C227 H243 0.961 . S
C228 C229 1.370 . S
C228 C230 1.363 . S
C228 H244 0.931 . S
C229 C228 1.370 . S
C229 C233 1.408 . S
C230 C228 1.363 . S
C230 C231 1.370 . S
C230 C234 1.524 . S
C231 C223 1.503 1_544 S
C231 C230 1.370 . S
C231 C232 1.403 . S
C232 C231 1.403 . S
C232 C233 1.404 . S
C232 C235 1.539 1_545 S
C233 C229 1.408 . S
C233 C232 1.404 . S
C233 H245 0.930 . S
C234 C230 1.524 . S
C234 H246 0.956 1_554 S
C234 H247 0.958 1_544 S
C234 H248 0.961 . S
C235 C232 1.539 1_565 S
C235 H249 0.958 1_565 S
C235 H250 0.961 . S
C235 H251 0.960 . S
H236 C220 0.931 . S
H237 C225 0.929 . S
H238 C226 0.960 . S
H239 C226 0.962 . S
H240 C226 0.960 . S
H241 C227 0.961 . S
H242 C227 0.961 1_554 S
H243 C227 0.961 . S
H244 C228 0.931 . S
H245 C233 0.930 . S
H246 C234 0.956 1_556 S
H247 C234 0.958 1_566 S
H248 C234 0.961 . S
H249 C235 0.958 1_545 S
H250 C235 0.961 . S
H251 C235 0.960 . S
C252 C253 1.391 . S
C252 C254 1.394 . S
C252 H268 0.931 . S
C253 C252 1.391 . S
C253 C257 1.376 . S
C254 C252 1.394 . S
C254 C255 1.369 . S
C254 C258 1.531 . S
C255 C254 1.369 . S
C255 C256 1.410 . S
C255 C263 1.503 . S
C256 C255 1.410 . S
C256 C257 1.392 . S
C256 C259 1.511 . S
C257 C253 1.376 . S
C257 C256 1.392 . S
C257 H269 0.929 . S
C258 C254 1.531 . S
C258 H270 0.960 . S
C258 H271 0.962 . S
C258 H272 0.960 . S
C259 C256 1.511 . S
C259 H273 0.961 . S
C259 H274 0.961 . S
C259 H275 0.961 . S
C260 C261 1.370 . S
C260 C262 1.363 . S
C260 H276 0.931 . S
C261 C260 1.370 . S
C261 C265 1.408 . S
C262 C260 1.363 . S
C262 C263 1.370 . S
C262 C266 1.524 . S
C263 C255 1.503 . S
C263 C262 1.370 . S
C263 C264 1.403 . S
C264 C263 1.403 . S
C264 C265 1.404 . S
C264 C267 1.539 . S
C265 C261 1.408 . S
C265 C264 1.404 . S
C265 H277 0.930 . S
C266 C262 1.524 . S
C266 H278 0.956 . S
C266 H279 0.961 . S
C266 H280 0.961 . S
C267 C264 1.539 . S
C267 H281 0.958 . S
C267 H282 0.961 . S
C267 H283 0.960 . S
H268 C252 0.931 . S
H269 C257 0.929 . S
H270 C258 0.960 . S
H271 C258 0.962 . S
H272 C258 0.960 . S
H273 C259 0.961 . S
H274 C259 0.961 . S
H275 C259 0.961 . S
H276 C260 0.931 . S
H277 C265 0.930 . S
H278 C266 0.956 . S
H279 C266 0.961 . S
H280 C266 0.961 . S
H281 C267 0.958 . S
H282 C267 0.961 . S
H283 C267 0.960 . S
C284 C285 1.391 . S
C284 C286 1.394 . S
C284 H300 0.931 . S
C285 C284 1.391 . S
C285 C289 1.372 . S
C286 C284 1.394 . S
C286 C287 1.369 . S
C286 C290 1.531 . S
C287 C286 1.369 . S
C287 C288 1.414 1_655 S
C287 C295 1.503 . S
C288 C287 1.414 1_455 S
C288 C289 1.393 1_455 S
C288 C291 1.508 . S
C289 C285 1.372 . S
C289 C288 1.393 1_655 S
C289 H301 0.936 1_655 S
C290 C286 1.531 . S
C290 H302 0.960 . S
C290 H303 0.962 . S
C290 H304 0.960 . S
C291 C288 1.508 . S
C291 H305 0.961 . S
C291 H306 0.961 . S
C291 H307 0.961 1_455 S
C292 C293 1.370 . S
C292 C294 1.363 . S
C292 H308 0.931 . S
C293 C292 1.370 . S
C293 C297 1.408 1_455 S
C294 C292 1.363 . S
C294 C295 1.370 1_455 S
C294 C298 1.524 . S
C295 C287 1.503 . S
C295 C294 1.370 1_655 S
C295 C296 1.403 . S
C296 C295 1.403 . S
C296 C297 1.404 . S
C296 C299 1.539 . S
C297 C293 1.408 1_655 S
C297 C296 1.404 . S
C297 H309 0.930 . S
C298 C294 1.524 . S
C298 H310 0.956 . S
C298 H311 0.961 . S
C298 H312 0.961 . S
C299 C296 1.539 . S
C299 H313 0.958 . S
C299 H314 0.961 . S
C299 H315 0.960 . S
H300 C284 0.931 . S
H301 C289 0.936 1_455 S
H302 C290 0.960 . S
H303 C290 0.962 . S
H304 C290 0.960 . S
H305 C291 0.961 . S
H306 C291 0.961 . S
H307 C291 0.961 1_655 S
H308 C292 0.931 . S
H309 C297 0.930 . S
H310 C298 0.956 . S
H311 C298 0.961 . S
H312 C298 0.961 . S
H313 C299 0.958 . S
H314 C299 0.961 . S
H315 C299 0.960 . S
C316 C317 1.391 . S
C316 C318 1.394 . S
C316 H332 0.931 . S
C317 C316 1.391 . S
C317 C321 1.376 . S
C318 C316 1.394 . S
C318 C319 1.369 . S
C318 C322 1.531 . S
C319 C318 1.369 . S
C319 C320 1.410 . S
C319 C327 1.503 1_554 S
C320 C319 1.410 . S
C320 C321 1.392 . S
C320 C323 1.511 . S
C321 C317 1.376 . S
C321 C320 1.392 . S
C321 H333 0.929 . S
C322 C318 1.531 . S
C322 H334 0.960 1_554 S
C322 H335 0.962 1_565 S
C322 H336 0.960 . S
C323 C320 1.511 . S
C323 H337 0.961 . S
C323 H338 0.976 1_554 S
C323 H339 0.961 . S
C324 C325 1.370 . S
C324 C326 1.363 . S
C324 H340 0.931 . S
C325 C324 1.370 . S
C325 C329 1.408 1_545 S
C326 C324 1.363 . S
C326 C327 1.370 1_545 S
C326 C330 1.524 . S
C327 C319 1.503 1_556 S
C327 C326 1.370 1_565 S
C327 C328 1.403 . S
C328 C327 1.403 . S
C328 C329 1.404 . S
C328 C331 1.539 . S
C329 C325 1.408 1_565 S
C329 C328 1.404 . S
C329 H341 0.930 . S
C330 C326 1.524 . S
C330 H342 0.956 1_556 S
C330 H343 0.961 1_556 S
C330 H344 0.961 . S
C331 C328 1.539 . S
C331 H345 0.958 . S
C331 H346 0.961 . S
C331 H347 0.960 . S
H332 C316 0.931 . S
H333 C321 0.929 . S
H334 C322 0.960 1_556 S
H335 C322 0.962 1_545 S
H336 C322 0.960 . S
H337 C323 0.961 . S
H338 C323 0.976 1_556 S
H339 C323 0.961 . S
H340 C324 0.931 . S
H341 C329 0.930 . S
H342 C330 0.956 1_554 S
H343 C330 0.961 1_554 S
H344 C330 0.961 . S
H345 C331 0.958 . S
H346 C331 0.961 . S
H347 C331 0.960 . S
C348 C349 1.391 1_554 S
C348 C350 1.394 . S
C348 H364 0.931 . S
C349 C348 1.391 1_556 S
C349 C353 1.376 . S
C350 C348 1.394 . S
C350 C351 1.369 1_554 S
C350 C354 1.531 . S
C351 C350 1.369 1_556 S
C351 C352 1.410 . S
C351 C359 1.503 1_556 S
C352 C351 1.410 . S
C352 C353 1.392 . S
C352 C355 1.511 . S
C353 C349 1.376 . S
C353 C352 1.392 . S
C353 H365 0.929 . S
C354 C350 1.531 . S
C354 H366 0.960 . S
C354 H367 0.962 . S
C354 H368 0.960 . S
C355 C352 1.511 . S
C355 H369 0.961 . S
C355 H370 0.961 . S
C355 H371 0.961 . S
C356 C357 1.370 . S
C356 C358 1.363 . S
C356 H372 0.931 . S
C357 C356 1.370 . S
C357 C361 1.408 . S
C358 C356 1.363 . S
C358 C359 1.370 . S
C358 C362 1.524 . S
C359 C351 1.503 1_554 S
C359 C358 1.370 . S
C359 C360 1.403 . S
C360 C359 1.403 . S
C360 C361 1.404 . S
C360 C363 1.539 . S
C361 C357 1.408 . S
C361 C360 1.404 . S
C361 H373 0.930 . S
C362 C358 1.524 . S
C362 H374 0.956 . S
C362 H375 0.961 1_554 S
C362 H376 0.961 . S
C363 C360 1.539 . S
C363 H377 0.958 . S
C363 H378 0.961 1_554 S
C363 H379 0.960 1_554 S
H364 C348 0.931 . S
H365 C353 0.929 . S
H366 C354 0.960 . S
H367 C354 0.962 . S
H368 C354 0.960 . S
H369 C355 0.961 . S
H370 C355 0.961 . S
H371 C355 0.961 . S
H372 C356 0.931 . S
H373 C361 0.930 . S
H374 C362 0.956 . S
H375 C362 0.961 1_556 S
H376 C362 0.961 . S
H377 C363 0.958 . S
H378 C363 0.961 1_556 S
H379 C363 0.960 1_556 S
C380 C381 1.391 . S
C380 C382 1.394 . S
C380 H396 0.931 . S
C381 C380 1.391 . S
C381 C385 1.376 . S
C382 C380 1.394 . S
C382 C383 1.369 . S
C382 C386 1.531 . S
C383 C382 1.369 . S
C383 C384 1.410 . S
C383 C391 1.503 . S
C384 C383 1.410 . S
C384 C385 1.392 . S
C384 C387 1.511 . S
C385 C381 1.376 . S
C385 C384 1.392 . S
C385 H397 0.929 . S
C386 C382 1.531 . S
C386 H398 0.960 . S
C386 H399 0.962 . S
C386 H400 0.960 . S
C387 C384 1.511 . S
C387 H401 0.961 . S
C387 H402 0.961 . S
C387 H403 0.961 . S
C388 C389 1.370 . S
C388 C390 1.363 . S
C388 H404 0.931 . S
C389 C388 1.370 . S
C389 C393 1.408 . S
C390 C388 1.363 . S
C390 C391 1.370 . S
C390 C394 1.524 . S
C391 C383 1.503 . S
C391 C390 1.370 . S
C391 C392 1.403 . S
C392 C391 1.403 . S
C392 C393 1.404 . S
C392 C395 1.539 . S
C393 C389 1.408 . S
C393 C392 1.404 . S
C393 H405 0.930 . S
C394 C390 1.524 . S
C394 H406 0.956 . S
C394 H407 0.961 . S
C394 H408 0.961 . S
C395 C392 1.539 . S
C395 H409 0.958 . S
C395 H410 0.961 . S
C395 H411 0.960 . S
H396 C380 0.931 . S
H397 C385 0.929 . S
H398 C386 0.960 . S
H399 C386 0.962 . S
H400 C386 0.960 . S
H401 C387 0.961 . S
H402 C387 0.961 . S
H403 C387 0.961 . S
H404 C388 0.931 . S
H405 C393 0.930 . S
H406 C394 0.956 . S
H407 C394 0.961 . S
H408 C394 0.961 . S
H409 C395 0.958 . S
H410 C395 0.961 . S
H411 C395 0.960 . S
C412 C413 1.391 . S
C412 C414 1.394 . S
C412 H428 0.931 . S
C413 C412 1.391 . S
C413 C417 1.376 . S
C414 C412 1.394 . S
C414 C415 1.369 . S
C414 C418 1.531 . S
C415 C414 1.369 . S
C415 C416 1.410 . S
C415 C423 1.503 . S
C416 C415 1.410 . S
C416 C417 1.392 . S
C416 C419 1.511 . S
C417 C413 1.376 . S
C417 C416 1.392 . S
C417 H429 0.929 . S
C418 C414 1.531 . S
C418 H430 0.960 . S
C418 H431 0.962 . S
C418 H432 0.960 . S
C419 C416 1.511 . S
C419 H433 0.961 . S
C419 H434 0.961 . S
C419 H435 0.961 . S
C420 C421 1.370 . S
C420 C422 1.363 . S
C420 H436 0.931 . S
C421 C420 1.370 . S
C421 C425 1.408 . S
C422 C420 1.363 . S
C422 C423 1.370 . S
C422 C426 1.524 . S
C423 C415 1.503 . S
C423 C422 1.370 . S
C423 C424 1.403 . S
C424 C423 1.403 . S
C424 C425 1.404 . S
C424 C427 1.539 . S
C425 C421 1.408 . S
C425 C424 1.404 . S
C425 H437 0.930 . S
C426 C422 1.524 . S
C426 H438 0.956 . S
C426 H439 0.961 . S
C426 H440 0.961 . S
C427 C424 1.539 . S
C427 H441 0.958 . S
C427 H442 0.961 . S
C427 H443 0.960 . S
H428 C412 0.931 . S
H429 C417 0.929 . S
H430 C418 0.960 . S
H431 C418 0.962 . S
H432 C418 0.960 . S
H433 C419 0.961 . S
H434 C419 0.961 . S
H435 C419 0.961 . S
H436 C420 0.931 . S
H437 C425 0.930 . S
H438 C426 0.956 . S
H439 C426 0.961 . S
H440 C426 0.961 . S
H441 C427 0.958 . S
H442 C427 0.961 . S
H443 C427 0.960 . S
C444 C445 1.391 . S
C444 C446 1.394 . S
C444 H460 0.931 . S
C445 C444 1.391 . S
C445 C449 1.376 1_554 S
C446 C444 1.394 . S
C446 C447 1.369 . S
C446 C450 1.531 . S
C447 C446 1.369 . S
C447 C448 1.410 1_554 S
C447 C455 1.503 1_554 S
C448 C447 1.410 1_556 S
C448 C449 1.392 . S
C448 C451 1.511 . S
C449 C445 1.376 1_556 S
C449 C448 1.392 . S
C449 H461 0.929 . S
C450 C446 1.531 . S
C450 H462 0.960 . S
C450 H463 0.962 . S
C450 H464 0.960 . S
C451 C448 1.511 . S
C451 H465 0.961 . S
C451 H466 0.961 . S
C451 H467 0.961 . S
C452 C453 1.370 . S
C452 C454 1.363 . S
C452 H468 0.931 . S
C453 C452 1.370 . S
C453 C457 1.408 . S
C454 C452 1.363 . S
C454 C455 1.370 . S
C454 C458 1.524 . S
C455 C447 1.503 1_556 S
C455 C454 1.370 . S
C455 C456 1.403 . S
C456 C455 1.403 . S
C456 C457 1.404 . S
C456 C459 1.539 . S
C457 C453 1.408 . S
C457 C456 1.404 . S
C457 H469 0.930 . S
C458 C454 1.524 . S
C458 H470 0.956 1_556 S
C458 H471 0.961 . S
C458 H472 0.961 . S
C459 C456 1.539 . S
C459 H473 0.958 1_556 S
C459 H474 0.961 . S
C459 H475 0.960 . S
H460 C444 0.931 . S
H461 C449 0.929 . S
H462 C450 0.960 . S
H463 C450 0.962 . S
H464 C450 0.960 . S
H465 C451 0.961 . S
H466 C451 0.961 . S
H467 C451 0.961 . S
H468 C452 0.931 . S
H469 C457 0.930 . S
H470 C458 0.956 1_554 S
H471 C458 0.961 . S
H472 C458 0.961 . S
H473 C459 0.958 1_554 S
H474 C459 0.961 . S
H475 C459 0.960 . S
C476 C477 1.391 . S
C476 C478 1.394 . S
C476 H492 0.931 . S
C477 C476 1.391 . S
C477 C481 1.376 . S
C478 C476 1.394 . S
C478 C479 1.369 . S
C478 C482 1.531 . S
C479 C478 1.369 . S
C479 C480 1.410 . S
C479 C487 1.503 . S
C480 C479 1.410 . S
C480 C481 1.392 . S
C480 C483 1.511 . S
C481 C477 1.376 . S
C481 C480 1.392 . S
C481 H493 0.929 . S
C482 C478 1.531 . S
C482 H494 0.960 . S
C482 H495 0.962 . S
C482 H496 0.960 . S
C483 C480 1.511 . S
C483 H497 0.961 . S
C483 H498 0.961 . S
C483 H499 0.961 . S
C484 C485 1.370 . S
C484 C486 1.363 . S
C484 H500 0.931 . S
C485 C484 1.370 . S
C485 C489 1.408 . S
C486 C484 1.363 . S
C486 C487 1.370 . S
C486 C490 1.524 . S
C487 C479 1.503 . S
C487 C486 1.370 . S
C487 C488 1.403 . S
C488 C487 1.403 . S
C488 C489 1.404 . S
C488 C491 1.539 . S
C489 C485 1.408 . S
C489 C488 1.404 . S
C489 H501 0.930 . S
C490 C486 1.524 . S
C490 H502 0.956 . S
C490 H503 0.961 . S
C490 H504 0.961 . S
C491 C488 1.539 . S
C491 H505 0.958 . S
C491 H506 0.961 . S
C491 H507 0.960 . S
H492 C476 0.931 . S
H493 C481 0.929 . S
H494 C482 0.960 . S
H495 C482 0.962 . S
H496 C482 0.960 . S
H497 C483 0.961 . S
H498 C483 0.961 . S
H499 C483 0.961 . S
H500 C484 0.931 . S
H501 C489 0.930 . S
H502 C490 0.956 . S
H503 C490 0.961 . S
H504 C490 0.961 . S
H505 C491 0.958 . S
H506 C491 0.961 . S
H507 C491 0.960 . S
C508 C509 1.391 . S
C508 C510 1.394 . S
C508 H524 0.931 . S
C509 C508 1.391 . S
C509 C513 1.376 . S
C510 C508 1.394 . S
C510 C511 1.369 . S
C510 C514 1.531 . S
C511 C510 1.369 . S
C511 C512 1.410 . S
C511 C519 1.503 . S
C512 C511 1.410 . S
C512 C513 1.392 . S
C512 C515 1.511 . S
C513 C509 1.376 . S
C513 C512 1.392 . S
C513 H525 0.929 . S
C514 C510 1.531 . S
C514 H526 0.960 . S
C514 H527 0.962 . S
C514 H528 0.960 . S
C515 C512 1.511 . S
C515 H529 0.961 . S
C515 H530 0.961 . S
C515 H531 0.961 . S
C516 C517 1.370 . S
C516 C518 1.363 . S
C516 H532 0.931 . S
C517 C516 1.370 . S
C517 C521 1.408 . S
C518 C516 1.363 . S
C518 C519 1.370 . S
C518 C522 1.524 . S
C519 C511 1.503 . S
C519 C518 1.370 . S
C519 C520 1.403 . S
C520 C519 1.403 . S
C520 C521 1.404 . S
C520 C523 1.539 . S
C521 C517 1.408 . S
C521 C520 1.404 . S
C521 H533 0.930 . S
C522 C518 1.524 . S
C522 H534 0.956 . S
C522 H535 0.961 . S
C522 H536 0.961 . S
C523 C520 1.539 . S
C523 H537 0.958 . S
C523 H538 0.961 . S
C523 H539 0.960 . S
H524 C508 0.931 . S
H525 C513 0.929 . S
H526 C514 0.960 . S
H527 C514 0.962 . S
H528 C514 0.960 . S
H529 C515 0.961 . S
H530 C515 0.961 . S
H531 C515 0.961 . S
H532 C516 0.931 . S
H533 C521 0.930 . S
H534 C522 0.956 . S
H535 C522 0.961 . S
H536 C522 0.961 . S
H537 C523 0.958 . S
H538 C523 0.961 . S
H539 C523 0.960 . S
C540 C541 1.391 . S
C540 C542 1.394 . S
C540 H556 0.931 . S
C541 C540 1.391 . S
C541 C545 1.376 . S
C542 C540 1.394 . S
C542 C543 1.369 . S
C542 C546 1.531 . S
C543 C542 1.369 . S
C543 C544 1.410 . S
C543 C551 1.503 . S
C544 C543 1.410 . S
C544 C545 1.392 . S
C544 C547 1.511 . S
C545 C541 1.376 . S
C545 C544 1.392 . S
C545 H557 0.929 . S
C546 C542 1.531 . S
C546 H558 0.960 . S
C546 H559 0.962 . S
C546 H560 0.960 . S
C547 C544 1.511 . S
C547 H561 0.961 . S
C547 H562 0.961 . S
C547 H563 0.961 . S
C548 C549 1.370 . S
C548 C550 1.363 . S
C548 H564 0.931 . S
C549 C548 1.370 . S
C549 C553 1.408 . S
C550 C548 1.363 . S
C550 C551 1.370 . S
C550 C554 1.524 . S
C551 C543 1.503 . S
C551 C550 1.370 . S
C551 C552 1.403 . S
C552 C551 1.403 . S
C552 C553 1.404 . S
C552 C555 1.539 . S
C553 C549 1.408 . S
C553 C552 1.404 . S
C553 H565 0.930 . S
C554 C550 1.524 . S
C554 H566 0.956 . S
C554 H567 0.961 . S
C554 H568 0.961 . S
C555 C552 1.539 . S
C555 H569 0.958 . S
C555 H570 0.961 . S
C555 H571 0.960 . S
H556 C540 0.931 . S
H557 C545 0.929 . S
H558 C546 0.960 . S
H559 C546 0.962 . S
H560 C546 0.960 . S
H561 C547 0.961 . S
H562 C547 0.961 . S
H563 C547 0.961 . S
H564 C548 0.931 . S
H565 C553 0.930 . S
H566 C554 0.956 . S
H567 C554 0.961 . S
H568 C554 0.961 . S
H569 C555 0.958 . S
H570 C555 0.961 . S
H571 C555 0.960 . S
C572 C573 1.391 1_455 S
C572 C574 1.394 . S
C572 H588 0.931 . S
C573 C572 1.391 1_655 S
C573 C577 1.376 . S
C574 C572 1.394 . S
C574 C575 1.369 1_455 S
C574 C578 1.531 . S
C575 C574 1.369 1_655 S
C575 C576 1.410 . S
C575 C583 1.503 . S
C576 C575 1.410 . S
C576 C577 1.392 . S
C576 C579 1.511 . S
C577 C573 1.376 . S
C577 C576 1.392 . S
C577 H589 0.929 . S
C578 C574 1.531 . S
C578 H590 0.960 . S
C578 H591 0.962 . S
C578 H592 0.960 . S
C579 C576 1.511 . S
C579 H593 0.961 . S
C579 H594 0.961 . S
C579 H595 0.961 . S
C580 C581 1.370 . S
C580 C582 1.363 . S
C580 H596 0.931 . S
C581 C580 1.370 . S
C581 C585 1.408 1_455 S
C582 C580 1.363 . S
C582 C583 1.370 1_455 S
C582 C586 1.524 . S
C583 C575 1.503 . S
C583 C582 1.370 1_655 S
C583 C584 1.403 . S
C584 C583 1.403 . S
C584 C585 1.404 . S
C584 C587 1.539 . S
C585 C581 1.408 1_655 S
C585 C584 1.404 . S
C585 H597 0.930 . S
C586 C582 1.524 . S
C586 H598 0.956 . S
C586 H599 0.961 . S
C586 H600 0.961 . S
C587 C584 1.539 . S
C587 H601 0.958 . S
C587 H602 0.961 . S
C587 H603 0.960 . S
H588 C572 0.931 . S
H589 C577 0.929 . S
H590 C578 0.960 . S
H591 C578 0.962 . S
H592 C578 0.960 . S
H593 C579 0.961 . S
H594 C579 0.961 . S
H595 C579 0.961 . S
H596 C580 0.931 . S
H597 C585 0.930 . S
H598 C586 0.956 . S
H599 C586 0.961 . S
H600 C586 0.961 . S
H601 C587 0.958 . S
H602 C587 0.961 . S
H603 C587 0.960 . S
C604 C605 1.391 1_545 S
C604 C606 1.394 . S
C604 H620 0.931 . S
C605 C604 1.391 1_565 S
C605 C609 1.376 . S
C606 C604 1.394 . S
C606 C607 1.369 . S
C606 C610 1.531 . S
C607 C606 1.369 . S
C607 C608 1.410 1_545 S
C607 C615 1.503 . S
C608 C607 1.410 1_565 S
C608 C609 1.392 . S
C608 C611 1.511 . S
C609 C605 1.376 . S
C609 C608 1.392 . S
C609 H621 0.929 . S
C610 C606 1.531 . S
C610 H622 0.960 . S
C610 H623 0.962 . S
C610 H624 0.960 . S
C611 C608 1.511 . S
C611 H625 0.961 . S
C611 H626 0.961 . S
C611 H627 0.961 . S
C612 C613 1.370 1_565 S
C612 C614 1.363 . S
C612 H628 0.931 . S
C613 C612 1.370 1_545 S
C613 C617 1.408 . S
C614 C612 1.363 . S
C614 C615 1.370 1_565 S
C614 C618 1.524 . S
C615 C607 1.503 . S
C615 C614 1.370 1_545 S
C615 C616 1.403 . S
C616 C615 1.403 . S
C616 C617 1.404 . S
C616 C619 1.539 . S
C617 C613 1.408 . S
C617 C616 1.404 . S
C617 H629 0.930 . S
C618 C614 1.524 . S
C618 H630 0.956 . S
C618 H631 0.961 . S
C618 H632 0.961 . S
C619 C616 1.539 . S
C619 H633 0.958 . S
C619 H634 0.961 . S
C619 H635 0.960 . S
H620 C604 0.931 . S
H621 C609 0.929 . S
H622 C610 0.960 . S
H623 C610 0.962 . S
H624 C610 0.960 . S
H625 C611 0.961 . S
H626 C611 0.961 . S
H627 C611 0.961 . S
H628 C612 0.931 . S
H629 C617 0.930 . S
H630 C618 0.956 . S
H631 C618 0.961 . S
H632 C618 0.961 . S
H633 C619 0.958 . S
H634 C619 0.961 . S
H635 C619 0.960 . S
C636 C637 1.391 . S
C636 C638 1.394 . S
C636 H652 0.931 . S
C637 C636 1.391 . S
C637 C641 1.376 . S
C638 C636 1.394 . S
C638 C639 1.369 . S
C638 C642 1.531 . S
C639 C638 1.369 . S
C639 C640 1.410 . S
C639 C647 1.503 . S
C640 C639 1.410 . S
C640 C641 1.392 . S
C640 C643 1.511 . S
C641 C637 1.376 . S
C641 C640 1.392 . S
C641 H653 0.929 . S
C642 C638 1.531 . S
C642 H654 0.960 . S
C642 H655 0.962 . S
C642 H656 0.960 . S
C643 C640 1.511 . S
C643 H657 0.961 . S
C643 H658 0.961 . S
C643 H659 0.961 . S
C644 C645 1.370 . S
C644 C646 1.363 . S
C644 H660 0.931 . S
C645 C644 1.370 . S
C645 C649 1.408 . S
C646 C644 1.363 . S
C646 C647 1.370 . S
C646 C650 1.524 . S
C647 C639 1.503 . S
C647 C646 1.370 . S
C647 C648 1.403 . S
C648 C647 1.403 . S
C648 C649 1.404 . S
C648 C651 1.539 . S
C649 C645 1.408 . S
C649 C648 1.404 . S
C649 H661 0.930 . S
C650 C646 1.524 . S
C650 H662 0.956 . S
C650 H663 0.961 . S
C650 H664 0.961 . S
C651 C648 1.539 . S
C651 H665 0.958 . S
C651 H666 0.961 . S
C651 H667 0.960 . S
H652 C636 0.931 . S
H653 C641 0.929 . S
H654 C642 0.960 . S
H655 C642 0.962 . S
H656 C642 0.960 . S
H657 C643 0.961 . S
H658 C643 0.961 . S
H659 C643 0.961 . S
H660 C644 0.931 . S
H661 C649 0.930 . S
H662 C650 0.956 . S
H663 C650 0.961 . S
H664 C650 0.961 . S
H665 C651 0.958 . S
H666 C651 0.961 . S
H667 C651 0.960 . S
C668 C669 1.377 1_655 S
C668 C670 1.394 . S
C668 H684 0.944 . S
C669 C668 1.377 1_455 S
C669 C673 1.376 . S
C670 C668 1.394 . S
C670 C671 1.369 1_655 S
C670 C674 1.531 . S
C671 C670 1.369 1_455 S
C671 C672 1.410 . S
C671 C679 1.503 . S
C672 C671 1.410 . S
C672 C673 1.392 . S
C672 C675 1.511 . S
C673 C669 1.376 . S
C673 C672 1.392 . S
C673 H685 0.929 . S
C674 C670 1.531 . S
C674 H686 0.960 . S
C674 H687 0.962 . S
C674 H688 0.960 . S
C675 C672 1.511 . S
C675 H689 0.961 . S
C675 H690 0.961 . S
C675 H691 0.961 . S
C676 C677 1.370 . S
C676 C678 1.363 . S
C676 H692 0.931 . S
C677 C676 1.370 . S
C677 C681 1.408 1_655 S
C678 C676 1.363 . S
C678 C679 1.370 1_655 S
C678 C682 1.524 . S
C679 C671 1.503 . S
C679 C678 1.370 1_455 S
C679 C680 1.403 . S
C680 C679 1.403 . S
C680 C681 1.404 . S
C680 C683 1.539 . S
C681 C677 1.408 1_455 S
C681 C680 1.404 . S
C681 H693 0.930 . S
C682 C678 1.524 . S
C682 H694 0.956 . S
C682 H695 0.961 . S
C682 H696 0.961 . S
C683 C680 1.539 . S
C683 H697 0.958 . S
C683 H698 0.961 . S
C683 H699 0.960 . S
H684 C668 0.944 . S
H685 C673 0.929 . S
H686 C674 0.960 . S
H687 C674 0.962 . S
H688 C674 0.960 . S
H689 C675 0.961 . S
H690 C675 0.961 . S
H691 C675 0.961 . S
H692 C676 0.931 . S
H693 C681 0.930 . S
H694 C682 0.956 . S
H695 C682 0.961 . S
H696 C682 0.961 . S
H697 C683 0.958 . S
H698 C683 0.961 . S
H699 C683 0.960 . S
C700 C701 1.391 . S
C700 C702 1.394 . S
C700 H716 0.931 . S
C701 C700 1.391 . S
C701 C705 1.376 . S
C702 C700 1.394 . S
C702 C703 1.369 . S
C702 C706 1.531 . S
C703 C702 1.369 . S
C703 C704 1.410 . S
C703 C711 1.503 . S
C704 C703 1.410 . S
C704 C705 1.392 . S
C704 C707 1.511 1_565 S
C705 C701 1.376 . S
C705 C704 1.392 . S
C705 H717 0.929 1_565 S
C706 C702 1.531 . S
C706 H718 0.960 . S
C706 H719 0.962 . S
C706 H720 0.960 . S
C707 C704 1.511 1_545 S
C707 H721 0.961 . S
C707 H722 0.961 . S
C707 H723 0.961 1_545 S
C708 C709 1.370 . S
C708 C710 1.363 . S
C708 H724 0.931 . S
C709 C708 1.370 . S
C709 C713 1.408 1_545 S
C710 C708 1.363 . S
C710 C711 1.370 1_545 S
C710 C714 1.524 . S
C711 C703 1.503 . S
C711 C710 1.370 1_565 S
C711 C712 1.403 . S
C712 C711 1.403 . S
C712 C713 1.404 . S
C712 C715 1.539 . S
C713 C709 1.408 1_565 S
C713 C712 1.404 . S
C713 H725 0.930 . S
C714 C710 1.524 . S
C714 H726 0.956 . S
C714 H727 0.961 . S
C714 H728 0.961 . S
C715 C712 1.539 . S
C715 H729 0.958 . S
C715 H730 0.961 . S
C715 H731 0.960 . S
H716 C700 0.931 . S
H717 C705 0.929 1_545 S
H718 C706 0.960 . S
H719 C706 0.962 . S
H720 C706 0.960 . S
H721 C707 0.961 . S
H722 C707 0.961 . S
H723 C707 0.961 1_565 S
H724 C708 0.931 . S
H725 C713 0.930 . S
H726 C714 0.956 . S
H727 C714 0.961 . S
H728 C714 0.961 . S
H729 C715 0.958 . S
H730 C715 0.961 . S
H731 C715 0.960 . S
C732 C733 1.391 . S
C732 C734 1.394 . S
C732 H748 0.931 . S
C733 C732 1.391 . S
C733 C737 1.376 . S
C734 C732 1.394 . S
C734 C735 1.369 . S
C734 C738 1.531 . S
C735 C734 1.369 . S
C735 C736 1.410 . S
C735 C743 1.503 . S
C736 C735 1.410 . S
C736 C737 1.392 . S
C736 C739 1.511 . S
C737 C733 1.376 . S
C737 C736 1.392 . S
C737 H749 0.929 . S
C738 C734 1.531 . S
C738 H750 0.960 . S
C738 H751 0.962 . S
C738 H752 0.960 1_554 S
C739 C736 1.511 . S
C739 H753 0.961 . S
C739 H754 0.961 . S
C739 H755 0.961 . S
C740 C741 1.370 . S
C740 C742 1.363 . S
C740 H756 0.931 . S
C741 C740 1.370 . S
C741 C745 1.408 . S
C742 C740 1.363 . S
C742 C743 1.370 . S
C742 C746 1.524 . S
C743 C735 1.503 . S
C743 C742 1.370 . S
C743 C744 1.403 . S
C744 C743 1.403 . S
C744 C745 1.404 . S
C744 C747 1.539 . S
C745 C741 1.408 . S
C745 C744 1.404 . S
C745 H757 0.930 . S
C746 C742 1.524 . S
C746 H758 0.956 . S
C746 H759 0.961 . S
C746 H760 0.961 . S
C747 C744 1.539 . S
C747 H761 0.958 . S
C747 H762 0.961 . S
C747 H763 0.960 . S
H748 C732 0.931 . S
H749 C737 0.929 . S
H750 C738 0.960 . S
H751 C738 0.962 . S
H752 C738 0.960 1_556 S
H753 C739 0.961 . S
H754 C739 0.961 . S
H755 C739 0.961 . S
H756 C740 0.931 . S
H757 C745 0.930 . S
H758 C746 0.956 . S
H759 C746 0.961 . S
H760 C746 0.961 . S
H761 C747 0.958 . S
H762 C747 0.961 . S
H763 C747 0.960 . S
C764 C765 1.391 . S
C764 C766 1.394 . S
C764 H780 0.931 . S
C765 C764 1.391 . S
C765 C769 1.376 . S
C766 C764 1.394 . S
C766 C767 1.369 . S
C766 C770 1.531 . S
C767 C766 1.369 . S
C767 C768 1.410 . S
C767 C775 1.503 . S
C768 C767 1.410 . S
C768 C769 1.392 . S
C768 C771 1.511 1_455 S
C769 C765 1.376 . S
C769 C768 1.392 . S
C769 H781 0.929 . S
C770 C766 1.531 . S
C770 H782 0.960 . S
C770 H783 0.962 . S
C770 H784 0.960 . S
C771 C768 1.511 1_655 S
C771 H785 0.961 . S
C771 H786 0.961 . S
C771 H787 0.961 1_655 S
C772 C773 1.370 . S
C772 C774 1.363 . S
C772 H788 0.931 . S
C773 C772 1.370 . S
C773 C777 1.408 1_655 S
C774 C772 1.363 . S
C774 C775 1.370 1_655 S
C774 C778 1.524 . S
C775 C767 1.503 . S
C775 C774 1.370 1_455 S
C775 C776 1.403 . S
C776 C775 1.403 . S
C776 C777 1.404 . S
C776 C779 1.539 . S
C777 C773 1.408 1_455 S
C777 C776 1.404 . S
C777 H789 0.930 . S
C778 C774 1.524 . S
C778 H790 0.956 . S
C778 H791 0.961 . S
C778 H792 0.961 . S
C779 C776 1.539 . S
C779 H793 0.958 . S
C779 H794 0.961 . S
C779 H795 0.960 . S
H780 C764 0.931 . S
H781 C769 0.929 . S
H782 C770 0.960 . S
H783 C770 0.962 . S
H784 C770 0.960 . S
H785 C771 0.961 . S
H786 C771 0.961 . S
H787 C771 0.961 1_455 S
H788 C772 0.931 . S
H789 C777 0.930 . S
H790 C778 0.956 . S
H791 C778 0.961 . S
H792 C778 0.961 . S
H793 C779 0.958 . S
H794 C779 0.961 . S
H795 C779 0.960 . S
C796 C797 1.391 . S
C796 C798 1.394 . S
C796 H812 0.931 . S
C797 C796 1.391 . S
C797 C801 1.399 . S
C798 C796 1.394 . S
C798 C799 1.369 1_565 S
C798 C802 1.531 . S
C799 C798 1.369 1_545 S
C799 C800 1.410 . S
C799 C807 1.503 . S
C800 C799 1.410 . S
C800 C801 1.362 1_545 S
C800 C803 1.511 . S
C801 C797 1.399 . S
C801 C800 1.362 1_565 S
C801 H813 0.937 1_565 S
C802 C798 1.531 . S
C802 H814 0.960 1_565 S
C802 H815 0.962 . S
C802 H816 0.960 . S
C803 C800 1.511 . S
C803 H817 0.961 . S
C803 H818 0.961 . S
C803 H819 0.961 . S
C804 C805 1.370 1_565 S
C804 C806 1.363 . S
C804 H820 0.931 . S
C805 C804 1.370 1_545 S
C805 C809 1.408 . S
C806 C804 1.363 . S
C806 C807 1.370 1_565 S
C806 C810 1.524 . S
C807 C799 1.503 . S
C807 C806 1.370 1_545 S
C807 C808 1.403 . S
C808 C807 1.403 . S
C808 C809 1.404 . S
C808 C811 1.539 . S
C809 C805 1.408 . S
C809 C808 1.404 . S
C809 H821 0.930 . S
C810 C806 1.524 . S
C810 H822 0.956 . S
C810 H823 0.961 . S
C810 H824 0.961 . S
C811 C808 1.539 . S
C811 H825 0.958 . S
C811 H826 0.961 . S
C811 H827 0.960 . S
H812 C796 0.931 . S
H813 C801 0.937 1_545 S
H814 C802 0.960 1_545 S
H815 C802 0.962 . S
H816 C802 0.960 . S
H817 C803 0.961 . S
H818 C803 0.961 . S
H819 C803 0.961 . S
H820 C804 0.931 . S
H821 C809 0.930 . S
H822 C810 0.956 . S
H823 C810 0.961 . S
H824 C810 0.961 . S
H825 C811 0.958 . S
H826 C811 0.961 . S
H827 C811 0.960 . S
C828 C829 1.391 . S
C828 C830 1.394 . S
C828 H844 0.931 . S
C829 C828 1.391 . S
C829 C833 1.376 . S
C830 C828 1.394 . S
C830 C831 1.369 . S
C830 C834 1.531 . S
C831 C830 1.369 . S
C831 C832 1.410 . S
C831 C839 1.503 . S
C832 C831 1.410 . S
C832 C833 1.392 . S
C832 C835 1.511 . S
C833 C829 1.376 . S
C833 C832 1.392 . S
C833 H845 0.929 . S
C834 C830 1.531 . S
C834 H846 0.960 . S
C834 H847 0.962 . S
C834 H848 0.960 . S
C835 C832 1.511 . S
C835 H849 0.961 . S
C835 H850 0.961 . S
C835 H851 0.961 . S
C836 C837 1.370 . S
C836 C838 1.363 . S
C836 H852 0.931 . S
C837 C836 1.370 . S
C837 C841 1.408 . S
C838 C836 1.363 . S
C838 C839 1.370 . S
C838 C842 1.524 . S
C839 C831 1.503 . S
C839 C838 1.370 . S
C839 C840 1.403 . S
C840 C839 1.403 . S
C840 C841 1.404 . S
C840 C843 1.539 . S
C841 C837 1.408 . S
C841 C840 1.404 . S
C841 H853 0.930 . S
C842 C838 1.524 . S
C842 H854 0.956 . S
C842 H855 0.961 . S
C842 H856 0.961 . S
C843 C840 1.539 . S
C843 H857 0.958 . S
C843 H858 0.961 . S
C843 H859 0.960 . S
H844 C828 0.931 . S
H845 C833 0.929 . S
H846 C834 0.960 . S
H847 C834 0.962 . S
H848 C834 0.960 . S
H849 C835 0.961 . S
H850 C835 0.961 . S
H851 C835 0.961 . S
H852 C836 0.931 . S
H853 C841 0.930 . S
H854 C842 0.956 . S
H855 C842 0.961 . S
H856 C842 0.961 . S
H857 C843 0.958 . S
H858 C843 0.961 . S
H859 C843 0.960 . S
C860 C861 1.391 . S
C860 C862 1.394 . S
C860 H876 0.931 . S
C861 C860 1.391 . S
C861 C865 1.376 1_655 S
C862 C860 1.394 . S
C862 C863 1.368 1_655 S
C862 C866 1.531 . S
C863 C862 1.368 1_455 S
C863 C864 1.410 . S
C863 C871 1.504 . S
C864 C863 1.410 . S
C864 C865 1.392 . S
C864 C867 1.511 . S
C865 C861 1.376 1_455 S
C865 C864 1.392 . S
C865 H877 0.929 . S
C866 C862 1.531 . S
C866 H878 0.960 . S
C866 H879 0.962 . S
C866 H880 0.960 . S
C867 C864 1.511 . S
C867 H881 0.961 . S
C867 H882 0.961 . S
C867 H883 0.961 . S
C868 C869 1.370 1_655 S
C868 C870 1.363 . S
C868 H884 0.931 . S
C869 C868 1.370 1_455 S
C869 C873 1.408 . S
C870 C868 1.363 . S
C870 C871 1.370 1_655 S
C870 C874 1.524 . S
C871 C863 1.504 . S
C871 C870 1.370 1_455 S
C871 C872 1.403 . S
C872 C871 1.403 . S
C872 C873 1.404 . S
C872 C875 1.539 . S
C873 C869 1.408 . S
C873 C872 1.404 . S
C873 H885 0.930 . S
C874 C870 1.524 . S
C874 H886 0.956 . S
C874 H887 0.961 . S
C874 H888 0.961 . S
C875 C872 1.539 . S
C875 H889 0.958 . S
C875 H890 0.961 . S
C875 H891 0.960 . S
H876 C860 0.931 . S
H877 C865 0.929 . S
H878 C866 0.960 . S
H879 C866 0.962 . S
H880 C866 0.960 . S
H881 C867 0.961 . S
H882 C867 0.961 . S
H883 C867 0.961 . S
H884 C868 0.931 . S
H885 C873 0.930 . S
H886 C874 0.956 . S
H887 C874 0.961 . S
H888 C874 0.961 . S
H889 C875 0.958 . S
H890 C875 0.961 . S
H891 C875 0.960 . S
C892 C893 1.391 . S
C892 C894 1.394 . S
C892 H908 0.931 . S
C893 C892 1.391 . S
C893 C897 1.376 1_545 S
C894 C892 1.394 . S
C894 C895 1.369 1_545 S
C894 C898 1.531 . S
C895 C894 1.369 1_565 S
C895 C896 1.410 . S
C895 C903 1.503 . S
C896 C895 1.410 . S
C896 C897 1.392 . S
C896 C899 1.511 . S
C897 C893 1.376 1_565 S
C897 C896 1.392 . S
C897 H909 0.929 . S
C898 C894 1.531 . S
C898 H910 0.960 . S
C898 H911 0.962 . S
C898 H912 0.960 . S
C899 C896 1.511 . S
C899 H913 0.961 . S
C899 H914 0.961 . S
C899 H915 0.961 . S
C900 C901 1.370 1_545 S
C900 C902 1.363 . S
C900 H916 0.931 . S
C901 C900 1.370 1_565 S
C901 C905 1.408 . S
C902 C900 1.363 . S
C902 C903 1.370 1_545 S
C902 C906 1.524 . S
C903 C895 1.503 . S
C903 C902 1.370 1_565 S
C903 C904 1.403 . S
C904 C903 1.403 . S
C904 C905 1.404 . S
C904 C907 1.539 . S
C905 C901 1.408 . S
C905 C904 1.404 . S
C905 H917 0.930 . S
C906 C902 1.524 . S
C906 H918 0.956 . S
C906 H919 0.961 . S
C906 H920 0.961 . S
C907 C904 1.539 . S
C907 H921 0.958 . S
C907 H922 0.961 . S
C907 H923 0.960 . S
H908 C892 0.931 . S
H909 C897 0.929 . S
H910 C898 0.960 . S
H911 C898 0.962 . S
H912 C898 0.960 . S
H913 C899 0.961 . S
H914 C899 0.961 . S
H915 C899 0.961 . S
H916 C900 0.931 . S
H917 C905 0.930 . S
H918 C906 0.956 . S
H919 C906 0.961 . S
H920 C906 0.961 . S
H921 C907 0.958 . S
H922 C907 0.961 . S
H923 C907 0.960 . S
C157 C5 1.416 . S
C165 C122 1.411 . S
C189 C16 1.397 . S
C197 C133 1.400 . S
C221 C31 1.390 . S
C229 C148 1.403 . S
C253 C42 1.418 . S
C261 C83 1.402 . S
C285 C96 1.396 . S
C293 C57 1.414 . S
C317 C109 1.390 . S
C325 C68 1.413 . S
C349 C134 1.616 . S
C357 C10 1.616 . S
C381 C17 1.623 . S
C389 C153 1.611 . S
C413 C36 1.615 . S
C421 C88 1.616 . S
C445 C43 1.608 . S
C453 C101 1.616 . S
C477 C62 1.613 . S
C485 C114 1.617 . S
C509 C69 1.603 . S
C517 C127 1.621 . S
C541 C121 1.086 . S
C549 C4 1.108 . S
C573 C23 1.077 . S
C581 C140 1.108 . S
C605 C30 1.119 . S
C613 C147 1.100 . S
C637 C82 1.119 . S
C645 C49 1.087 . S
C669 C56 1.076 . S
C677 C95 1.107 . S
C701 C108 1.064 . S
C709 C75 1.102 . S
C733 C3 1.603 . S
C741 C44 1.608 . S
C765 C55 1.609 . S
C773 C18 1.610 . S
C797 C29 1.606 . S
C805 C70 1.611 . S
C829 C81 1.604 . S
C837 C120 1.608 . S
C861 C94 1.611 . S
C869 C135 1.612 . S
C893 C146 1.607 . S
C901 C107 1.611 . S
