# Generated by pormake.
# Topology uno, (4)-cn, num edge types: 1
# Building blocks:
#     Node 0, Type 0, BuildingBlock: NAWXER_clean_sbu_0, # of connection points: 4
#     Node 1, Type 0, BuildingBlock: NAWXER_clean_sbu_0, # of connection points: 4
#     Node 2, Type 0, BuildingBlock: NAWXER_clean_sbu_0, # of connection points: 4
#     Node 3, Type 0, BuildingBlock: NAWXER_clean_sbu_0, # of connection points: 4
#     Node 4, Type 0, BuildingBlock: NAWXER_clean_sbu_0, # of connection points: 4
#     Node 5, Type 0, BuildingBlock: NAWXER_clean_sbu_0, # of connection points: 4
#     Node 6, Type 0, BuildingBlock: NAWXER_clean_sbu_0, # of connection points: 4
#     Node 7, Type 0, BuildingBlock: NAWXER_clean_sbu_0, # of connection points: 4
#     Node 8, Type 0, BuildingBlock: NAWXER_clean_sbu_0, # of connection points: 4
#     Node 9, Type 0, BuildingBlock: NAWXER_clean_sbu_0, # of connection points: 4
#     Node 10, Type 0, BuildingBlock: NAWXER_clean_sbu_0, # of connection points: 4
#     Node 11, Type 0, BuildingBlock: NAWXER_clean_sbu_0, # of connection points: 4
#     Node 12, Type 0, BuildingBlock: NAWXER_clean_sbu_0, # of connection points: 4
#     Node 13, Type 0, BuildingBlock: NAWXER_clean_sbu_0, # of connection points: 4
#     Node 14, Type 0, BuildingBlock: NAWXER_clean_sbu_0, # of connection points: 4
#     Node 15, Type 0, BuildingBlock: NAWXER_clean_sbu_0, # of connection points: 4
#     Node 16, Type 0, BuildingBlock: NAWXER_clean_sbu_0, # of connection points: 4
#     Node 17, Type 0, BuildingBlock: NAWXER_clean_sbu_0, # of connection points: 4
#     Node 18, Type 0, BuildingBlock: NAWXER_clean_sbu_0, # of connection points: 4
#     Node 19, Type 0, BuildingBlock: NAWXER_clean_sbu_0, # of connection points: 4
#     Node 20, Type 0, BuildingBlock: NAWXER_clean_sbu_0, # of connection points: 4
#     Node 21, Type 0, BuildingBlock: NAWXER_clean_sbu_0, # of connection points: 4
#     Node 22, Type 0, BuildingBlock: NAWXER_clean_sbu_0, # of connection points: 4
#     Node 23, Type 0, BuildingBlock: NAWXER_clean_sbu_0, # of connection points: 4
#     Edge 24, Type (0, 0), BuildingBlock: XIVTED_clean_linker_0, # of connection points: 2
#     Edge 25, Type (0, 0), BuildingBlock: XIVTED_clean_linker_0, # of connection points: 2
#     Edge 26, Type (0, 0), BuildingBlock: XIVTED_clean_linker_0, # of connection points: 2
#     Edge 27, Type (0, 0), BuildingBlock: XIVTED_clean_linker_0, # of connection points: 2
#     Edge 28, Type (0, 0), BuildingBlock: XIVTED_clean_linker_0, # of connection points: 2
#     Edge 29, Type (0, 0), BuildingBlock: XIVTED_clean_linker_0, # of connection points: 2
#     Edge 30, Type (0, 0), BuildingBlock: XIVTED_clean_linker_0, # of connection points: 2
#     Edge 31, Type (0, 0), BuildingBlock: XIVTED_clean_linker_0, # of connection points: 2
#     Edge 32, Type (0, 0), BuildingBlock: XIVTED_clean_linker_0, # of connection points: 2
#     Edge 33, Type (0, 0), BuildingBlock: XIVTED_clean_linker_0, # of connection points: 2
#     Edge 34, Type (0, 0), BuildingBlock: XIVTED_clean_linker_0, # of connection points: 2
#     Edge 35, Type (0, 0), BuildingBlock: XIVTED_clean_linker_0, # of connection points: 2
#     Edge 36, Type (0, 0), BuildingBlock: XIVTED_clean_linker_0, # of connection points: 2
#     Edge 37, Type (0, 0), BuildingBlock: XIVTED_clean_linker_0, # of connection points: 2
#     Edge 38, Type (0, 0), BuildingBlock: XIVTED_clean_linker_0, # of connection points: 2
#     Edge 39, Type (0, 0), BuildingBlock: XIVTED_clean_linker_0, # of connection points: 2
#     Edge 40, Type (0, 0), BuildingBlock: XIVTED_clean_linker_0, # of connection points: 2
#     Edge 41, Type (0, 0), BuildingBlock: XIVTED_clean_linker_0, # of connection points: 2
#     Edge 42, Type (0, 0), BuildingBlock: XIVTED_clean_linker_0, # of connection points: 2
#     Edge 43, Type (0, 0), BuildingBlock: XIVTED_clean_linker_0, # of connection points: 2
#     Edge 44, Type (0, 0), BuildingBlock: XIVTED_clean_linker_0, # of connection points: 2
#     Edge 45, Type (0, 0), BuildingBlock: XIVTED_clean_linker_0, # of connection points: 2
#     Edge 46, Type (0, 0), BuildingBlock: XIVTED_clean_linker_0, # of connection points: 2
#     Edge 47, Type (0, 0), BuildingBlock: XIVTED_clean_linker_0, # of connection points: 2
#     Edge 48, Type (0, 0), BuildingBlock: XIVTED_clean_linker_0, # of connection points: 2
#     Edge 49, Type (0, 0), BuildingBlock: XIVTED_clean_linker_0, # of connection points: 2
#     Edge 50, Type (0, 0), BuildingBlock: XIVTED_clean_linker_0, # of connection points: 2
#     Edge 51, Type (0, 0), BuildingBlock: XIVTED_clean_linker_0, # of connection points: 2
#     Edge 52, Type (0, 0), BuildingBlock: XIVTED_clean_linker_0, # of connection points: 2
#     Edge 53, Type (0, 0), BuildingBlock: XIVTED_clean_linker_0, # of connection points: 2
#     Edge 54, Type (0, 0), BuildingBlock: XIVTED_clean_linker_0, # of connection points: 2
#     Edge 55, Type (0, 0), BuildingBlock: XIVTED_clean_linker_0, # of connection points: 2
#     Edge 56, Type (0, 0), BuildingBlock: XIVTED_clean_linker_0, # of connection points: 2
#     Edge 57, Type (0, 0), BuildingBlock: XIVTED_clean_linker_0, # of connection points: 2
#     Edge 58, Type (0, 0), BuildingBlock: XIVTED_clean_linker_0, # of connection points: 2
#     Edge 59, Type (0, 0), BuildingBlock: XIVTED_clean_linker_0, # of connection points: 2
#     Edge 60, Type (0, 0), BuildingBlock: XIVTED_clean_linker_0, # of connection points: 2
#     Edge 61, Type (0, 0), BuildingBlock: XIVTED_clean_linker_0, # of connection points: 2
#     Edge 62, Type (0, 0), BuildingBlock: XIVTED_clean_linker_0, # of connection points: 2
#     Edge 63, Type (0, 0), BuildingBlock: XIVTED_clean_linker_0, # of connection points: 2
#     Edge 64, Type (0, 0), BuildingBlock: XIVTED_clean_linker_0, # of connection points: 2
#     Edge 65, Type (0, 0), BuildingBlock: XIVTED_clean_linker_0, # of connection points: 2
#     Edge 66, Type (0, 0), BuildingBlock: XIVTED_clean_linker_0, # of connection points: 2
#     Edge 67, Type (0, 0), BuildingBlock: XIVTED_clean_linker_0, # of connection points: 2
#     Edge 68, Type (0, 0), BuildingBlock: XIVTED_clean_linker_0, # of connection points: 2
#     Edge 69, Type (0, 0), BuildingBlock: XIVTED_clean_linker_0, # of connection points: 2
#     Edge 70, Type (0, 0), BuildingBlock: XIVTED_clean_linker_0, # of connection points: 2
#     Edge 71, Type (0, 0), BuildingBlock: XIVTED_clean_linker_0, # of connection points: 2
# Relax obj value: 0.556
# Max RMSD: 0.288
# Mean RMSD: 0.258
data_MOF--net-uno--node1-NAWXER_clean_sbu_0--edge1-XIVTED_clean_linker_0
_symmetry_space_group_name_H-M    P1
_symmetry_Int_Tables_number       1
_symmetry_cell_setting            triclinic
loop_
_symmetry_equiv_pos_as_xyz
'x, y, z'
_cell_length_a     53.297907
_cell_length_b     53.275889
_cell_length_c     53.292503
_cell_angle_alpha  89.770338
_cell_angle_beta   89.809481
_cell_angle_gamma 89.759923
loop_
_atom_site_label
_atom_site_type_symbol
_atom_site_fract_x
_atom_site_fract_y
_atom_site_fract_z
_atom_type_partial_charge
C0 C 0.02654 0.24527 0.26156 0.0
C1 C 0.09817 0.27468 0.21511 0.0
O2 O 0.0292 0.24854 0.23816 0.0
Zn3 Zn 0.06119 0.26436 0.23844 0.0
O4 O 0.04216 0.25566 0.27657 0.0
Zn5 Zn 0.07606 0.27799 0.27173 0.0
O6 O 0.06941 0.31307 0.28046 0.0
O7 O 0.05578 0.30371 0.24282 0.0
O8 O 0.09999 0.28093 0.23831 0.0
O9 O 0.07832 0.26422 0.20729 0.0
O10 O 0.0851 0.23857 0.2595 0.0
O11 O 0.09882 0.25905 0.29276 0.0
C12 C 0.0602 0.32014 0.25967 0.0
C13 C 0.09828 0.23914 0.27963 0.0
C14 C 0.00731 0.76909 0.50652 0.0
C15 C 0.97039 0.83847 0.46118 0.0
O16 O 0.00232 0.77102 0.48335 0.0
Zn17 Zn 0.9842 0.8019 0.48453 0.0
O18 O 0.99751 0.78487 0.52197 0.0
Zn19 Zn 0.97422 0.81868 0.51838 0.0
O20 O 0.94117 0.81234 0.53219 0.0
O21 O 0.94682 0.79285 0.4963 0.0
O22 O 0.96719 0.84112 0.48492 0.0
O23 O 0.97916 0.81795 0.4528 0.0
O24 O 0.01175 0.82705 0.50132 0.0
O25 O 0.99495 0.84216 0.53618 0.0
C26 C 0.93265 0.79857 0.5149 0.0
C27 C 0.01326 0.84106 0.52083 0.0
C28 C 0.46211 0.7575 0.7603 0.0
C29 C 0.39431 0.70703 0.72892 0.0
O30 O 0.45736 0.75068 0.73808 0.0
Zn31 Zn 0.43067 0.72801 0.74546 0.0
O32 O 0.45063 0.74679 0.77867 0.0
Zn33 Zn 0.42084 0.71898 0.78206 0.0
O34 O 0.43405 0.68847 0.79684 0.0
O35 O 0.44775 0.69385 0.75826 0.0
O36 O 0.39473 0.70637 0.75303 0.0
O37 O 0.41239 0.71687 0.71695 0.0
O38 O 0.40282 0.75248 0.76396 0.0
O39 O 0.39824 0.73784 0.80271 0.0
C40 C 0.44686 0.68067 0.77839 0.0
C41 C 0.39259 0.75377 0.78582 0.0
C42 C 0.56919 0.20253 0.00482 0.0
C43 C 0.49006 0.15751 0.01004 0.0
O44 O 0.56107 0.18766 0.02153 0.0
Zn45 Zn 0.52843 0.18082 0.00749 0.0
O46 O 0.55497 0.20849 0.98637 0.0
Zn47 Zn 0.51801 0.19851 0.97433 0.0
O48 O 0.49912 0.22889 0.97388 0.0
O49 O 0.5042 0.21388 0.0121 0.0
O50 O 0.49102 0.17209 0.99077 0.0
O51 O 0.50855 0.15641 0.02504 0.0
O52 O 0.53594 0.15962 0.97335 0.0
O53 O 0.52357 0.18392 0.94216 0.0
C54 C 0.49403 0.22991 0.9971 0.0
C55 C 0.53271 0.16323 0.94973 0.0
C56 C 0.98225 0.99462 0.35805 0.0
C57 C 0.98401 0.07404 0.31269 0.0
O58 O 0.96796 0.01361 0.3608 0.0
Zn59 Zn 0.98327 0.03333 0.33486 0.0
O60 O 7e-05 0.99528 0.34173 0.0
Zn61 Zn 0.01427 0.02228 0.31378 0.0
O62 O 0.04784 0.02719 0.32517 0.0
O63 O 0.01935 0.04009 0.35233 0.0
O64 O 0.00162 0.05952 0.30497 0.0
O65 O 0.96884 0.06618 0.32924 0.0
O66 O 0.97511 0.00912 0.30294 0.0
O67 O 0.01118 0.00358 0.28335 0.0
C68 C 0.04246 0.03647 0.34641 0.0
C69 C 0.988 0.99867 0.28538 0.0
C70 C 0.25347 0.73379 0.54259 0.0
C71 C 0.20476 0.76862 0.61048 0.0
O72 O 0.24736 0.75636 0.54696 0.0
Zn73 Zn 0.22504 0.75048 0.5744 0.0
O74 O 0.24257 0.71608 0.55486 0.0
Zn75 Zn 0.21532 0.71435 0.58543 0.0
O76 O 0.18417 0.70026 0.57332 0.0
O77 O 0.19026 0.73842 0.55875 0.0
O78 O 0.20356 0.74453 0.61076 0.0
O79 O 0.21479 0.77983 0.59198 0.0
O80 O 0.24932 0.73221 0.60236 0.0
O81 O 0.23415 0.69397 0.60847 0.0
C82 C 0.17657 0.71878 0.56042 0.0
C83 C 0.25034 0.7107 0.61336 0.0
C84 C 0.50939 0.93283 0.7976 0.0
C85 C 0.51818 0.01236 0.84126 0.0
O86 O 0.52668 0.94053 0.81183 0.0
Zn87 Zn 0.51395 0.97384 0.81837 0.0
O88 O 0.4915 0.94784 0.79164 0.0
Zn89 Zn 0.48133 0.9858 0.80082 0.0
O90 O 0.48182 0.00418 0.77009 0.0
O91 O 0.51972 0.9973 0.785 0.0
O92 O 0.49888 0.01226 0.82683 0.0
O93 O 0.53227 0.99307 0.84246 0.0
O94 O 0.47939 0.96791 0.83965 0.0
O95 O 0.44891 0.98213 0.81554 0.0
C96 C 0.50525 0.00799 0.76888 0.0
C97 C 0.45595 0.97234 0.83609 0.0
C98 C 0.32233 0.2727 0.04971 0.0
C99 C 0.24689 0.27317 0.10136 0.0
O100 O 0.31463 0.28882 0.06537 0.0
Zn101 Zn 0.28323 0.27342 0.07486 0.0
O102 O 0.30838 0.25391 0.04446 0.0
Zn103 Zn 0.27276 0.2403 0.05698 0.0
O104 O 0.25043 0.24066 0.02889 0.0
O105 O 0.25545 0.27825 0.04515 0.0
O106 O 0.24778 0.25453 0.08617 0.0
O107 O 0.26465 0.28908 0.10167 0.0
O108 O 0.29354 0.23903 0.09433 0.0
O109 O 0.28055 0.2079 0.07059 0.0
C110 C 0.24387 0.26355 0.03006 0.0
C111 C 0.29083 0.21539 0.09066 0.0
C112 C 0.27732 0.10723 0.24254 0.0
C113 C 0.27504 0.05859 0.32015 0.0
O114 O 0.29169 0.10908 0.26145 0.0
Zn115 Zn 0.27599 0.08277 0.28053 0.0
O116 O 0.25915 0.09141 0.24294 0.0
Zn117 Zn 0.24447 0.06294 0.26891 0.0
O118 O 0.21117 0.0752 0.27498 0.0
O119 O 0.24036 0.10079 0.28879 0.0
O120 O 0.25724 0.05203 0.30549 0.0
O121 O 0.29045 0.07515 0.31291 0.0
O122 O 0.28347 0.05165 0.25497 0.0
O123 O 0.24706 0.03329 0.24869 0.0
C124 C 0.21709 0.09573 0.28536 0.0
C125 C 0.27031 0.03493 0.24378 0.0
C126 C 0.16333 0.95228 0.52448 0.0
C127 C 0.23313 0.99788 0.48944 0.0
O128 O 0.18287 0.94428 0.51334 0.0
Zn129 Zn 0.19976 0.97542 0.51158 0.0
O130 O 0.16166 0.97565 0.53036 0.0
Zn131 Zn 0.18559 0.00899 0.52508 0.0
O132 O 0.16219 0.03005 0.50745 0.0
O133 O 0.17441 0.99623 0.48668 0.0
O134 O 0.2181 0.01317 0.50053 0.0
O135 O 0.2307 0.97455 0.49328 0.0
O136 O 0.20791 0.98139 0.55047 0.0
O137 O 0.19475 0.01964 0.55863 0.0
C138 C 0.16154 0.01667 0.48775 0.0
C139 C 0.20483 0.99938 0.56608 0.0
C140 C 0.21139 0.8856 0.75304 0.0
C141 C 0.2174 0.94096 0.82489 0.0
O142 O 0.195 0.88954 0.76999 0.0
Zn143 Zn 0.21403 0.91455 0.78698 0.0
O144 O 0.23195 0.8982 0.75271 0.0
Zn145 Zn 0.2488 0.92814 0.7757 0.0
O146 O 0.27981 0.91256 0.7849 0.0
O147 O 0.24641 0.89173 0.79793 0.0
O148 O 0.23663 0.94352 0.81067 0.0
O149 O 0.1997 0.92682 0.81803 0.0
O150 O 0.21247 0.94335 0.75806 0.0
O151 O 0.25143 0.95582 0.75257 0.0
C152 C 0.27035 0.89346 0.79558 0.0
C153 C 0.22851 0.95708 0.74642 0.0
C154 C 0.33991 0.04677 0.02268 0.0
C155 C 0.269 0.00173 0.99016 0.0
O156 O 0.31961 0.05502 0.01329 0.0
Zn157 Zn 0.30316 0.02369 0.0111 0.0
O158 O 0.34224 0.02316 0.02744 0.0
Zn159 Zn 0.31866 0.9897 0.02222 0.0
O160 O 0.34149 0.97012 0.00216 0.0
O161 O 0.32753 0.0048 0.98386 0.0
O162 O 0.28485 0.9862 0.99968 0.0
O163 O 0.27137 0.02493 0.99462 0.0
O164 O 0.29694 0.01539 0.05 0.0
O165 O 0.31145 0.97713 0.05575 0.0
C166 C 0.34089 0.98466 0.98317 0.0
C167 C 0.30113 0.99666 0.06458 0.0
C168 C 0.74375 0.24947 0.96594 0.0
C169 C 0.78524 0.29214 0.89771 0.0
O170 O 0.74869 0.27253 0.96311 0.0
Zn171 Zn 0.7686 0.26998 0.93336 0.0
O172 O 0.75493 0.23334 0.95191 0.0
Zn173 Zn 0.78126 0.23563 0.9205 0.0
O174 O 0.81362 0.22302 0.93175 0.0
O175 O 0.80632 0.26159 0.94435 0.0
O176 O 0.78974 0.2684 0.89638 0.0
O177 O 0.77332 0.30076 0.91645 0.0
O178 O 0.74401 0.25023 0.90718 0.0
O179 O 0.76373 0.21512 0.89692 0.0
C180 C 0.82123 0.24278 0.94241 0.0
C181 C 0.74467 0.22944 0.89501 0.0
C182 C 0.9702 0.47375 0.18157 0.0
C183 C 0.9898 0.55905 0.21017 0.0
O184 O 0.98883 0.48427 0.17075 0.0
Zn185 Zn 0.01011 0.51787 0.17151 0.0
O186 O 0.95822 0.48504 0.19899 0.0
Zn187 Zn 0.97942 0.51531 0.19801 0.0
O188 O 0.96985 0.52849 0.1613 0.0
O189 O 0.00366 0.52913 0.13722 0.0
O190 O 0.97354 0.54427 0.21947 0.0
O191 O 0.00431 0.55123 0.19262 0.0
O192 O 0.04229 0.50348 0.18156 0.0
O193 O 0.01331 0.49878 0.21077 0.0
C194 C 0.9801 0.53246 0.13986 0.0
C195 C 0.03555 0.49454 0.20272 0.0
C196 C 0.75754 0.75816 0.47169 0.0
C197 C 0.71904 0.71603 0.40218 0.0
O198 O 0.75281 0.73512 0.46858 0.0
Zn199 Zn 0.7338 0.73772 0.43847 0.0
O200 O 0.74637 0.77444 0.45773 0.0
Zn201 Zn 0.7202 0.77201 0.42616 0.0
O202 O 0.68678 0.78252 0.43698 0.0
O203 O 0.69543 0.74372 0.44811 0.0
O204 O 0.71357 0.73958 0.40132 0.0
O205 O 0.73097 0.70727 0.42086 0.0
O206 O 0.75785 0.75896 0.41279 0.0
O207 O 0.73702 0.79354 0.4025 0.0
C208 C 0.67964 0.76177 0.44619 0.0
C209 C 0.75651 0.7798 0.40059 0.0
C210 C 0.90397 0.79029 0.28967 0.0
C211 C 0.96787 0.73988 0.25072 0.0
O212 O 0.92121 0.77696 0.29941 0.0
Zn213 Zn 0.93857 0.77011 0.26948 0.0
O214 O 0.90422 0.79467 0.26586 0.0
Zn215 Zn 0.9293 0.78327 0.23433 0.0
O216 O 0.90493 0.76893 0.21245 0.0
O217 O 0.90917 0.7497 0.24924 0.0
O218 O 0.95623 0.75249 0.23377 0.0
O219 O 0.96527 0.74622 0.27344 0.0
O220 O 0.95327 0.80664 0.26197 0.0
O221 O 0.94487 0.814 0.22233 0.0
C222 C 0.89854 0.75166 0.2277 0.0
C223 C 0.95404 0.82133 0.24291 0.0
C224 C 0.59972 0.20927 0.7812 0.0
C225 C 0.54312 0.25618 0.72833 0.0
O226 O 0.57936 0.22014 0.78734 0.0
Zn227 Zn 0.56778 0.22714 0.75398 0.0
O228 O 0.60481 0.20588 0.75789 0.0
Zn229 Zn 0.58787 0.21568 0.72223 0.0
O230 O 0.61582 0.23356 0.70782 0.0
O231 O 0.59807 0.25147 0.74093 0.0
O232 O 0.55926 0.24406 0.71508 0.0
O233 O 0.5396 0.24978 0.75103 0.0
O234 O 0.55634 0.19113 0.74071 0.0
O235 O 0.57895 0.18418 0.70685 0.0
C236 C 0.61441 0.25179 0.72317 0.0
C237 C 0.56258 0.17679 0.72245 0.0
C238 C 0.50141 0.52088 0.66441 0.0
C239 C 0.52046 0.4407 0.7028 0.0
O240 O 0.48975 0.50016 0.66342 0.0
Zn241 Zn 0.51124 0.48309 0.68585 0.0
O242 O 0.52113 0.52279 0.67824 0.0
Zn243 Zn 0.54243 0.49625 0.70322 0.0
O244 O 0.57485 0.49867 0.68878 0.0
O245 O 0.5461 0.48447 0.66277 0.0
O246 O 0.53804 0.45607 0.70836 0.0
O247 O 0.50142 0.44888 0.69134 0.0
O248 O 0.50311 0.50495 0.71951 0.0
O249 O 0.54035 0.51197 0.73539 0.0
C250 C 0.56877 0.49175 0.66691 0.0
C251 C 0.51684 0.51527 0.73628 0.0
C252 C 0.99197 0.27953 0.00123 0.0
C253 C 0.00908 0.33945 0.06581 0.0
O254 O 0.99258 0.27598 0.02476 0.0
Zn255 Zn 0.00763 0.30736 0.03339 0.0
O256 O 0.00318 0.29874 0.99185 0.0
Zn257 Zn 0.02184 0.33176 0.00723 0.0
O258 O 0.05692 0.33093 0.99969 0.0
O259 O 0.0476 0.30178 0.02727 0.0
O260 O 0.01647 0.34781 0.0444 0.0
O261 O 0.0041 0.31633 0.06825 0.0
O262 O 0.98082 0.33426 0.01477 0.0
O263 O 0.00442 0.35622 0.98845 0.0
C264 C 0.06395 0.31299 0.01354 0.0
C265 C 0.98298 0.35147 0.99779 0.0
C266 C 0.42614 0.69177 0.4869 0.0
C267 C 0.49921 0.6383 0.47694 0.0
O268 O 0.4319 0.67629 0.46989 0.0
Zn269 Zn 0.46522 0.66734 0.48097 0.0
O270 O 0.44262 0.69753 0.50333 0.0
Zn271 Zn 0.48067 0.68624 0.51055 0.0
O272 O 0.50102 0.71518 0.50546 0.0
O273 O 0.49205 0.69628 0.47005 0.0
O274 O 0.50255 0.65404 0.49494 0.0
O275 O 0.47962 0.63977 0.46349 0.0
O276 O 0.46039 0.65006 0.51848 0.0
O277 O 0.47863 0.67642 0.54452 0.0
C278 C 0.50422 0.71317 0.48205 0.0
C279 C 0.46711 0.65599 0.54088 0.0
C280 C 0.63051 0.50818 0.45998 0.0
C281 C 0.70206 0.46487 0.49789 0.0
O282 O 0.64993 0.52203 0.46251 0.0
Zn283 Zn 0.68794 0.51874 0.47536 0.0
O284 O 0.63182 0.48474 0.46467 0.0
Zn285 Zn 0.6669 0.48432 0.47431 0.0
O286 O 0.66257 0.50638 0.50706 0.0
O287 O 0.68553 0.54087 0.50493 0.0
O288 O 0.68232 0.45462 0.48939 0.0
O289 O 0.70631 0.48797 0.49292 0.0
O290 O 0.70806 0.52693 0.44592 0.0
O291 O 0.68602 0.49252 0.44 0.0
C292 C 0.67007 0.52688 0.51673 0.0
C293 C 0.70109 0.50927 0.43159 0.0
C294 C 0.78509 0.40604 0.75113 0.0
C295 C 0.76361 0.44583 0.67149 0.0
O296 O 0.79829 0.40636 0.73117 0.0
Zn297 Zn 0.77644 0.42929 0.71322 0.0
O298 O 0.76452 0.41867 0.7522 0.0
Zn299 Zn 0.7425 0.44263 0.72728 0.0
O300 O 0.71213 0.42438 0.72722 0.0
O301 O 0.74409 0.40416 0.70994 0.0
O302 O 0.74656 0.44912 0.68812 0.0
O303 O 0.78484 0.43737 0.67824 0.0
O304 O 0.77983 0.46247 0.73706 0.0
O305 O 0.74084 0.47404 0.74418 0.0
C306 C 0.72084 0.40499 0.71641 0.0
C307 C 0.76405 0.47719 0.74794 0.0
C308 C 0.84114 0.46662 0.96229 0.0
C309 C 0.78436 0.52722 0.99767 0.0
O310 O 0.81989 0.46325 0.97253 0.0
Zn311 Zn 0.81079 0.49785 0.9747 0.0
O312 O 0.84808 0.48899 0.95648 0.0
Zn313 Zn 0.83278 0.52675 0.96112 0.0
O314 O 0.86084 0.5413 0.97785 0.0
O315 O 0.84112 0.5117 0.99944 0.0
O316 O 0.80259 0.53849 0.98654 0.0
O317 O 0.7809 0.5041 0.99359 0.0
O318 O 0.80231 0.50738 0.93641 0.0
O319 O 0.82687 0.53922 0.92755 0.0
C320 C 0.85871 0.52814 0.9977 0.0
C321 C 0.81033 0.52376 0.92066 0.0
C322 C 0.72354 0.60732 0.25244 0.0
C323 C 0.73937 0.5624 0.17451 0.0
O324 O 0.70876 0.60547 0.2338 0.0
Zn325 Zn 0.73001 0.58237 0.21554 0.0
O326 O 0.7447 0.59566 0.25236 0.0
Zn327 Zn 0.76552 0.57076 0.22728 0.0
O328 O 0.79526 0.58972 0.22228 0.0
O329 O 0.7609 0.60832 0.20798 0.0
O330 O 0.75793 0.56077 0.18958 0.0
O331 O 0.71876 0.57139 0.18243 0.0
O332 O 0.72963 0.55114 0.24217 0.0
O333 O 0.76934 0.541 0.24719 0.0
C334 C 0.78471 0.6084 0.21176 0.0
C335 C 0.74653 0.53789 0.25322 0.0
H336 H 0.2013 0.25215 0.09446 0.0
H337 H 0.14398 0.29576 0.22512 0.0
H338 H 0.24156 0.30111 0.14444 0.0
H339 H 0.10087 0.26216 0.16564 0.0
H340 H 0.18006 0.29839 0.19662 0.0
H341 H 0.16453 0.25566 0.12118 0.0
C342 C 0.20241 0.26364 0.11115 0.0
C343 C 0.22458 0.27617 0.11742 0.0
C344 C 0.1626 0.29068 0.18981 0.0
C345 C 0.18237 0.2803 0.14818 0.0
C346 C 0.14203 0.28914 0.20604 0.0
C347 C 0.11947 0.27848 0.1978 0.0
C348 C 0.16055 0.28134 0.16532 0.0
C349 C 0.11793 0.27032 0.17289 0.0
C350 C 0.18131 0.26577 0.12634 0.0
C351 C 0.22481 0.2911 0.13904 0.0
N352 N 0.13825 0.27173 0.15762 0.0
N353 N 0.20401 0.29258 0.15386 0.0
H354 H 0.98189 0.84145 0.41118 0.0
H355 H 0.95294 0.98856 0.40007 0.0
H356 H 0.9516 0.88513 0.47237 0.0
H357 H 0.00133 0.94785 0.34926 0.0
H358 H 0.94621 0.94972 0.42392 0.0
H359 H 0.98215 0.87913 0.38501 0.0
C360 C 0.97494 0.85887 0.41903 0.0
C361 C 0.96693 0.86016 0.44411 0.0
C362 C 0.95825 0.94934 0.40752 0.0
C363 C 0.9674 0.90343 0.41425 0.0
C364 C 0.96211 0.97147 0.39392 0.0
C365 C 0.97791 0.97148 0.37279 0.0
C366 C 0.97002 0.92705 0.39974 0.0
C367 C 0.98923 0.94878 0.3656 0.0
C368 C 0.97526 0.88042 0.4041 0.0
C369 C 0.9581 0.8833 0.45319 0.0
N370 N 0.98505 0.9275 0.37903 0.0
N371 N 0.95873 0.90408 0.43832 0.0
H372 H 0.27997 0.66902 0.61876 0.0
H373 H 0.34601 0.71448 0.74365 0.0
H374 H 0.2647 0.74172 0.65077 0.0
H375 H 0.39077 0.68555 0.68261 0.0
H376 H 0.30862 0.71177 0.71698 0.0
H377 H 0.31411 0.66304 0.64943 0.0
C378 C 0.28364 0.68351 0.63245 0.0
C379 C 0.26982 0.70596 0.63227 0.0
C380 C 0.32658 0.70547 0.70974 0.0
C381 C 0.30777 0.69892 0.66747 0.0
C382 C 0.34781 0.70679 0.72493 0.0
C383 C 0.37141 0.70024 0.71521 0.0
C384 C 0.32898 0.69693 0.685 0.0
C385 C 0.37285 0.69082 0.69069 0.0
C386 C 0.303 0.68011 0.64979 0.0
C387 C 0.27519 0.72427 0.65025 0.0
N388 N 0.35186 0.68946 0.67633 0.0
N389 N 0.29369 0.72029 0.66728 0.0
H390 H 0.52227 0.16298 0.89954 0.0
H391 H 0.54968 0.01641 0.88168 0.0
H392 H 0.55112 0.11585 0.95902 0.0
H393 H 0.49988 0.0598 0.83459 0.0
H394 H 0.55761 0.05407 0.90673 0.0
H395 H 0.52207 0.12674 0.87173 0.0
C396 C 0.52893 0.1451 0.90668 0.0
C397 C 0.53646 0.14241 0.93177 0.0
C398 C 0.54504 0.0553 0.89083 0.0
C399 C 0.5361 0.10079 0.89998 0.0
C400 C 0.54053 0.03386 0.87653 0.0
C401 C 0.52391 0.03494 0.85616 0.0
C402 C 0.53313 0.078 0.88447 0.0
C403 C 0.51261 0.05805 0.8503 0.0
C404 C 0.52867 0.12438 0.8908 0.0
C405 C 0.54498 0.11876 0.93988 0.0
N406 N 0.51742 0.07864 0.86437 0.0
N407 N 0.5444 0.09878 0.92407 0.0
H408 H 0.16658 0.09266 0.27684 0.0
H409 H 0.13946 0.23661 0.31052 0.0
H410 H 0.22298 0.14229 0.30642 0.0
H411 H 0.09181 0.191 0.26407 0.0
H412 H 0.16691 0.20006 0.31725 0.0
H413 H 0.13564 0.12632 0.28056 0.0
C414 C 0.17242 0.11052 0.28444 0.0
C415 C 0.19753 0.11473 0.29101 0.0
C416 C 0.15028 0.19806 0.3058 0.0
C417 C 0.16214 0.15346 0.29517 0.0
C418 C 0.13459 0.21885 0.30205 0.0
C419 C 0.11351 0.21689 0.28648 0.0
C420 C 0.14465 0.17516 0.29413 0.0
C421 C 0.10806 0.19345 0.27594 0.0
C422 C 0.15474 0.12978 0.28647 0.0
C423 C 0.2039 0.13827 0.30089 0.0
N424 N 0.12357 0.17356 0.27986 0.0
N425 N 0.18636 0.15684 0.30246 0.0
H426 H 0.05932 0.8333 0.50014 0.0
H427 H 0.11731 0.9625 0.54588 0.0
H428 H 0.01944 0.88265 0.55058 0.0
H429 H 0.16079 0.90261 0.51261 0.0
H430 H 0.08116 0.93421 0.54835 0.0
H431 H 0.09657 0.85914 0.5046 0.0
C432 C 0.05843 0.84957 0.51224 0.0
C433 C 0.0362 0.85593 0.52488 0.0
C434 C 0.09873 0.92725 0.54078 0.0
C435 C 0.07887 0.8858 0.52998 0.0
C436 C 0.11936 0.94337 0.53936 0.0
C437 C 0.14206 0.935 0.5288 0.0
C438 C 0.10083 0.90273 0.53137 0.0
C439 C 0.14365 0.91 0.52071 0.0
C440 C 0.07976 0.86429 0.51487 0.0
C441 C 0.03622 0.8771 0.5405 0.0
N442 N 0.12327 0.89488 0.52194 0.0
N443 N 0.05719 0.89149 0.54241 0.0
H444 H 0.25841 0.84428 0.79064 0.0
H445 H 0.38898 0.78408 0.82688 0.0
H446 H 0.3191 0.89316 0.81165 0.0
H447 H 0.35356 0.76751 0.75627 0.0
H448 H 0.35778 0.81774 0.83391 0.0
H449 H 0.28764 0.80858 0.79134 0.0
C450 C 0.2777 0.84736 0.79616 0.0
C451 C 0.28645 0.87163 0.8011 0.0
C452 C 0.35686 0.80651 0.81704 0.0
C453 C 0.3196 0.83107 0.80213 0.0
C454 C 0.37448 0.78742 0.81305 0.0
C455 C 0.37376 0.77331 0.79091 0.0
C456 C 0.33803 0.81068 0.79918 0.0
C457 C 0.35477 0.77823 0.77345 0.0
C458 C 0.29431 0.82708 0.79633 0.0
C459 C 0.31172 0.8747 0.80769 0.0
N460 N 0.33745 0.79642 0.77805 0.0
N461 N 0.32752 0.85457 0.80803 0.0
H462 H 0.38694 0.03626 0.04126 0.0
H463 H 0.44366 0.16426 0.98981 0.0
H464 H 0.34194 0.09652 0.01058 0.0
H465 H 0.48482 0.11618 0.04059 0.0
H466 H 0.40655 0.13846 0.9963 0.0
H467 H 0.42337 0.06424 0.04098 0.0
C468 C 0.38463 0.05542 0.03476 0.0
C469 C 0.36138 0.06398 0.02573 0.0
C470 C 0.42364 0.13359 0.00616 0.0
C471 C 0.40295 0.09586 0.02508 0.0
C472 C 0.44489 0.14825 0.00235 0.0
C473 C 0.4674 0.14228 0.01458 0.0
C474 C 0.42493 0.11254 0.02205 0.0
C475 C 0.46782 0.12143 0.0308 0.0
C476 C 0.40542 0.07135 0.0346 0.0
C477 C 0.35948 0.08901 0.01757 0.0
N478 N 0.44693 0.10713 0.03389 0.0
N479 N 0.38003 0.10394 0.01719 0.0
H480 H 0.09232 0.02486 0.34215 0.0
H481 H 0.12266 0.05062 0.48666 0.0
H482 H 0.03798 0.05574 0.39392 0.0
H483 H 0.16493 0.9999 0.43959 0.0
H484 H 0.09547 0.06052 0.45087 0.0
H485 H 0.12336 0.02424 0.37569 0.0
C486 C 0.087 0.03189 0.36045 0.0
C487 C 0.06238 0.04005 0.3653 0.0
C488 C 0.11082 0.04737 0.44841 0.0
C489 C 0.09785 0.03923 0.40382 0.0
C490 C 0.12635 0.04175 0.46877 0.0
C491 C 0.1459 0.0242 0.46614 0.0
C492 C 0.11512 0.03561 0.42524 0.0
C493 C 0.14988 0.0133 0.44254 0.0
C494 C 0.10471 0.0314 0.37963 0.0
C495 C 0.05666 0.04905 0.3894 0.0
N496 N 0.1346 0.01914 0.42303 0.0
N497 N 0.07421 0.0482 0.40785 0.0
H498 H 0.1832 0.81511 0.61298 0.0
H499 H 0.24407 0.84958 0.73799 0.0
H500 H 0.21343 0.75548 0.65892 0.0
H501 H 0.16935 0.87803 0.72505 0.0
H502 H 0.23743 0.81804 0.70518 0.0
H503 H 0.18075 0.842 0.65034 0.0
C504 C 0.18878 0.80756 0.63104 0.0
C505 C 0.19839 0.78311 0.63305 0.0
C506 C 0.22246 0.83107 0.70974 0.0
C507 C 0.19657 0.8138 0.67517 0.0
C508 C 0.22628 0.84909 0.72821 0.0
C509 C 0.2072 0.86625 0.73402 0.0
C510 C 0.19975 0.83089 0.69653 0.0
C511 C 0.18441 0.86493 0.72103 0.0
C512 C 0.18738 0.82284 0.65222 0.0
C513 C 0.20565 0.77418 0.65674 0.0
N514 N 0.18144 0.84779 0.70243 0.0
N515 N 0.20518 0.78976 0.67685 0.0
H516 H 0.33455 0.00385 0.93616 0.0
H517 H 0.46386 0.9519 0.88287 0.0
H518 H 0.38123 0.95273 0.97849 0.0
H519 H 0.40613 0.98463 0.83626 0.0
H520 H 0.43421 0.95121 0.91809 0.0
H521 H 0.36089 0.99675 0.89937 0.0
C522 C 0.35031 0.99103 0.93768 0.0
C523 C 0.35582 0.97899 0.96047 0.0
C524 C 0.42798 0.95823 0.90005 0.0
C525 C 0.38621 0.97089 0.91838 0.0
C526 C 0.44488 0.95863 0.87993 0.0
C527 C 0.43755 0.96855 0.85662 0.0
C528 C 0.40371 0.96809 0.89687 0.0
C529 C 0.4127 0.97696 0.85391 0.0
C530 C 0.36529 0.98689 0.91662 0.0
C531 C 0.37635 0.9624 0.96128 0.0
N532 N 0.3968 0.97681 0.87385 0.0
N533 N 0.39101 0.95905 0.94059 0.0
H534 H 0.25862 0.09909 0.19577 0.0
H535 H 0.31248 0.22475 0.13628 0.0
H536 H 0.30731 0.14872 0.23675 0.0
H537 H 0.2796 0.16534 0.09258 0.0
H538 H 0.31245 0.19702 0.17295 0.0
H539 H 0.26665 0.1233 0.15773 0.0
C540 C 0.27094 0.11517 0.19679 0.0
C541 C 0.2821 0.12206 0.21954 0.0
C542 C 0.30561 0.18994 0.15523 0.0
C543 C 0.2915 0.14986 0.17591 0.0
C544 C 0.30569 0.20574 0.13425 0.0
C545 C 0.29576 0.19746 0.11136 0.0
C546 C 0.29527 0.16583 0.15337 0.0
C547 C 0.28728 0.17261 0.10986 0.0
C548 C 0.27569 0.12887 0.17499 0.0
C549 C 0.29821 0.14284 0.21963 0.0
N550 N 0.28689 0.15781 0.13066 0.0
N551 N 0.30226 0.15617 0.19817 0.0
H552 H 0.81125 0.3614 0.752 0.0
H553 H 0.78539 0.34316 0.89889 0.0
H554 H 0.77485 0.4156 0.79994 0.0
H555 H 0.80132 0.2808 0.84978 0.0
H556 H 0.79158 0.37188 0.8639 0.0
H557 H 0.8172 0.33374 0.78869 0.0
C558 C 0.80497 0.36765 0.7703 0.0
C559 C 0.79234 0.39065 0.773 0.0
C560 C 0.79392 0.35193 0.86074 0.0
C561 C 0.79912 0.35941 0.81471 0.0
C562 C 0.7904 0.33548 0.88075 0.0
C563 C 0.7924 0.30947 0.87717 0.0
C564 C 0.79938 0.34244 0.83682 0.0
C565 C 0.79938 0.30071 0.8533 0.0
C566 C 0.80823 0.35184 0.79113 0.0
C567 C 0.78442 0.39786 0.79702 0.0
N568 N 0.80232 0.31717 0.83388 0.0
N569 N 0.78786 0.38228 0.81688 0.0
H570 H 0.99245 0.53664 0.08952 0.0
H571 H 0.85181 0.51604 0.04699 0.0
H572 H 0.92949 0.53916 0.14071 0.0
H573 H 0.90623 0.54762 0.99585 0.0
H574 H 0.88179 0.52073 0.08122 0.0
H575 H 0.96283 0.53823 0.0542 0.0
C576 C 0.97252 0.53793 0.09336 0.0
C577 C 0.96349 0.53755 0.11815 0.0
C578 C 0.88714 0.52678 0.06252 0.0
C579 C 0.92971 0.5388 0.07803 0.0
C580 C 0.87008 0.52397 0.04298 0.0
C581 C 0.87656 0.53146 0.01858 0.0
C582 C 0.91105 0.5367 0.05761 0.0
C583 C 0.90048 0.54173 0.01446 0.0
C584 C 0.95566 0.53876 0.07323 0.0
C585 C 0.93742 0.53918 0.12198 0.0
N586 N 0.91701 0.54383 0.03375 0.0
N587 N 0.92151 0.53937 0.1022 0.0
H588 H 0.72178 0.66507 0.40172 0.0
H589 H 0.69497 0.65045 0.25496 0.0
H590 H 0.70239 0.72845 0.35479 0.0
H591 H 0.73692 0.59792 0.30036 0.0
H592 H 0.68821 0.67664 0.29247 0.0
H593 H 0.71716 0.63752 0.36583 0.0
C594 C 0.71635 0.6732 0.38388 0.0
C595 C 0.71293 0.69918 0.38114 0.0
C596 C 0.69866 0.65924 0.29414 0.0
C597 C 0.70774 0.66762 0.33981 0.0
C598 C 0.70241 0.6443 0.27286 0.0
C599 C 0.71676 0.62223 0.27464 0.0
C600 C 0.70894 0.65163 0.31721 0.0
C601 C 0.72606 0.61502 0.29814 0.0
C602 C 0.71372 0.65743 0.36336 0.0
C603 C 0.70545 0.70855 0.35763 0.0
N604 N 0.72203 0.62969 0.31846 0.0
N605 N 0.70339 0.69277 0.3377 0.0
H606 H 0.83334 0.61151 0.19602 0.0
H607 H 0.85738 0.73945 0.25482 0.0
H608 H 0.76946 0.65678 0.21718 0.0
H609 H 0.89603 0.72301 0.1856 0.0
H610 H 0.8267 0.70665 0.24513 0.0
H611 H 0.8592 0.64959 0.19472 0.0
C612 C 0.82472 0.62954 0.19993 0.0
C613 C 0.79935 0.63117 0.20674 0.0
C614 C 0.84169 0.71053 0.23192 0.0
C615 C 0.82871 0.67421 0.20601 0.0
C616 C 0.85917 0.72902 0.23748 0.0
C617 C 0.87902 0.73373 0.2209 0.0
C618 C 0.84474 0.69616 0.21012 0.0
C619 C 0.88077 0.71985 0.19868 0.0
C620 C 0.83939 0.65115 0.1991 0.0
C621 C 0.78896 0.65486 0.21172 0.0
N622 N 0.86408 0.70119 0.19413 0.0
N623 N 0.80386 0.67547 0.21187 0.0
H624 H 0.6052 0.29793 0.74222 0.0
H625 H 0.73356 0.35892 0.69705 0.0
H626 H 0.65835 0.25731 0.69628 0.0
H627 H 0.67121 0.40074 0.72802 0.0
H628 H 0.7071 0.32144 0.6959 0.0
H629 H 0.63014 0.33556 0.73722 0.0
C630 C 0.62227 0.29689 0.73116 0.0
C631 C 0.62991 0.27438 0.71989 0.0
C632 C 0.69921 0.33891 0.70268 0.0
C633 C 0.6586 0.31765 0.71394 0.0
C634 C 0.71426 0.3603 0.70335 0.0
C635 C 0.70464 0.38292 0.71291 0.0
C636 C 0.6745 0.34023 0.7118 0.0
C637 C 0.67951 0.38367 0.72073 0.0
C638 C 0.63642 0.31849 0.72814 0.0
C639 C 0.65192 0.2743 0.70537 0.0
N640 N 0.66542 0.36259 0.7202 0.0
N641 N 0.66569 0.29564 0.70297 0.0
H642 H 0.44806 0.60817 0.5398 0.0
H643 H 0.51696 0.56985 0.66604 0.0
H644 H 0.48212 0.66205 0.5894 0.0
H645 H 0.4658 0.52056 0.62769 0.0
H646 H 0.50358 0.60422 0.63855 0.0
H647 H 0.45263 0.57609 0.57246 0.0
C648 C 0.45605 0.61338 0.5577 0.0
C649 C 0.46501 0.63775 0.56173 0.0
C650 C 0.49511 0.58593 0.63633 0.0
C651 C 0.47071 0.6011 0.59894 0.0
C652 C 0.50284 0.56629 0.65194 0.0
C653 C 0.49264 0.54227 0.64902 0.0
C654 C 0.47731 0.58141 0.61748 0.0
C655 C 0.47425 0.53876 0.63055 0.0
C656 C 0.45874 0.59505 0.57631 0.0
C657 C 0.47519 0.64344 0.58532 0.0
N658 N 0.46737 0.55804 0.6153 0.0
N659 N 0.47811 0.62516 0.60288 0.0
H660 H 0.74077 0.18913 0.8633 0.0
H661 H 0.6446 0.18488 0.77494 0.0
H662 H 0.69898 0.25262 0.89165 0.0
H663 H 0.59999 0.22361 0.8305 0.0
H664 H 0.68011 0.18529 0.80356 0.0
H665 H 0.70472 0.17778 0.83755 0.0
C666 C 0.72407 0.20077 0.864 0.0
C667 C 0.72305 0.22209 0.87937 0.0
C668 C 0.66239 0.19301 0.80988 0.0
C669 C 0.68181 0.20941 0.84971 0.0
C670 C 0.64207 0.19288 0.79344 0.0
C671 C 0.6193 0.20439 0.80024 0.0
C672 C 0.65997 0.20487 0.83328 0.0
C673 C 0.61717 0.21455 0.82441 0.0
C674 C 0.70352 0.19435 0.84916 0.0
C675 C 0.70078 0.23624 0.87982 0.0
N676 N 0.63738 0.21495 0.83987 0.0
N677 N 0.68108 0.22965 0.8652 0.0
H678 H 0.94143 0.46371 0.14159 0.0
H679 H 0.00558 0.33051 0.11664 0.0
H680 H 0.98747 0.42863 0.19804 0.0
H681 H 0.99526 0.38834 0.06066 0.0
H682 H 0.98924 0.35958 0.14873 0.0
H683 H 0.94851 0.42759 0.1142 0.0
C684 C 0.9518 0.44769 0.14877 0.0
C685 C 0.96349 0.44886 0.17223 0.0
C686 C 0.99062 0.36576 0.12939 0.0
C687 C 0.97268 0.40814 0.14066 0.0
C688 C 8e-05 0.34933 0.11116 0.0
C689 C 0.00213 0.35717 0.08602 0.0
C690 C 0.98242 0.3898 0.1222 0.0
C691 C 0.99445 0.38164 0.07986 0.0
C692 C 0.95633 0.42738 0.13294 0.0
C693 C 0.97767 0.42808 0.18027 0.0
N694 N 0.98475 0.39697 0.09776 0.0
N695 N 0.98223 0.40865 0.16434 0.0
H696 H 0.75653 0.81292 0.3608 0.0
H697 H 0.85705 0.80625 0.27497 0.0
H698 H 0.8049 0.76423 0.40407 0.0
H699 H 0.90188 0.7909 0.34062 0.0
H700 H 0.81986 0.80969 0.30193 0.0
H701 H 0.79216 0.82286 0.33315 0.0
C702 C 0.77465 0.80442 0.36451 0.0
C703 C 0.77774 0.78744 0.3845 0.0
C704 C 0.83795 0.80635 0.3105 0.0
C705 C 0.81829 0.79857 0.35309 0.0
C706 C 0.85919 0.80433 0.2951 0.0
C707 C 0.88252 0.79794 0.30554 0.0
C708 C 0.84024 0.80186 0.33642 0.0
C709 C 0.88421 0.79547 0.3317 0.0
C710 C 0.79488 0.80994 0.34863 0.0
C711 C 0.80158 0.77708 0.38863 0.0
N712 N 0.86331 0.79699 0.34615 0.0
N713 N 0.8209 0.78284 0.37309 0.0
H714 H 0.61906 0.50141 0.66985 0.0
H715 H 0.6928 0.52064 0.56182 0.0
H716 H 0.55889 0.49379 0.61646 0.0
H717 H 0.62309 0.54209 0.52715 0.0
H718 H 0.67026 0.51203 0.60094 0.0
H719 H 0.64658 0.51581 0.63617 0.0
C720 C 0.61177 0.50225 0.65092 0.0
C721 C 0.58663 0.49612 0.64597 0.0
C722 C 0.65994 0.5197 0.58523 0.0
C723 C 0.61815 0.51278 0.60715 0.0
C724 C 0.67295 0.52498 0.56297 0.0
C725 C 0.65985 0.53284 0.54157 0.0
C726 C 0.6336 0.52203 0.58582 0.0
C727 C 0.63391 0.53677 0.54353 0.0
C728 C 0.62756 0.51051 0.63163 0.0
C729 C 0.57818 0.49795 0.62113 0.0
N730 N 0.62158 0.53094 0.5651 0.0
N731 N 0.59384 0.50631 0.60273 0.0
H732 H 0.98186 0.38856 0.96239 0.0
H733 H 0.83624 0.41899 0.98126 0.0
H734 H 0.93369 0.34671 0.0125 0.0
H735 H 0.88787 0.46673 0.94089 0.0
H736 H 0.8697 0.38792 0.98646 0.0
H737 H 0.94581 0.41312 0.94872 0.0
C738 C 0.96367 0.38446 0.97051 0.0
C739 C 0.96086 0.36573 0.98889 0.0
C740 C 0.87359 0.40505 0.97618 0.0
C741 C 0.91937 0.39387 0.97316 0.0
C742 C 0.85445 0.42274 0.97304 0.0
C743 C 0.85935 0.44568 0.9609 0.0
C744 C 0.89774 0.41031 0.96706 0.0
C745 C 0.8833 0.44945 0.95061 0.0
C746 C 0.94306 0.3985 0.96262 0.0
C747 C 0.93675 0.36114 0.99849 0.0
N748 N 0.90166 0.43208 0.95415 0.0
N749 N 0.91693 0.37525 0.99062 0.0
H750 H 0.58993 0.50427 0.49043 0.0
H751 H 0.51321 0.6183 0.43198 0.0
H752 H 0.61748 0.5431 0.42489 0.0
H753 H 0.52574 0.61139 0.51161 0.0
H754 H 0.54225 0.583 0.42491 0.0
H755 H 0.55566 0.53512 0.49365 0.0
C756 C 0.58809 0.51863 0.47609 0.0
C757 C 0.60623 0.52104 0.45714 0.0
C758 C 0.53851 0.58924 0.44389 0.0
C759 C 0.56756 0.5563 0.4609 0.0
C760 C 0.52207 0.60931 0.44794 0.0
C761 C 0.51736 0.61784 0.47239 0.0
C762 C 0.54958 0.57715 0.4645 0.0
C763 C 0.52919 0.60555 0.49247 0.0
C764 C 0.56885 0.53641 0.4782 0.0
C765 C 0.60359 0.54051 0.43954 0.0
N766 N 0.54462 0.58562 0.4881 0.0
N767 N 0.58459 0.55747 0.44183 0.0
H768 H 0.99755 0.09278 0.26691 0.0
H769 H 0.01789 0.22944 0.31012 0.0
H770 H 0.96884 0.11523 0.33921 0.0
H771 H 0.99848 0.21333 0.23326 0.0
H772 H 0.00088 0.18848 0.32254 0.0
H773 H 0.00016 0.13709 0.25466 0.0
C774 C 0.99153 0.10706 0.28007 0.0
C775 C 0.98295 0.10041 0.30406 0.0
C776 C 0.99983 0.19427 0.30306 0.0
C777 C 0.98644 0.151 0.29045 0.0
C778 C 0.00943 0.21768 0.29596 0.0
C779 C 0.00998 0.22475 0.27054 0.0
C780 C 0.99129 0.17772 0.28454 0.0
C781 C 0.99876 0.20864 0.25304 0.0
C782 C 0.99291 0.13228 0.27306 0.0
C783 C 0.97541 0.11962 0.32046 0.0
N784 N 0.9905 0.18563 0.26026 0.0
N785 N 0.97781 0.14413 0.31355 0.0
H786 H 0.1609 0.74035 0.51666 0.0
H787 H 0.02197 0.7564 0.55451 0.0
H788 H 0.13397 0.69922 0.58111 0.0
H789 H 0.04178 0.74568 0.47665 0.0
H790 H 0.06256 0.73796 0.56655 0.0
H791 H 0.11741 0.74594 0.50266 0.0
C792 C 0.14583 0.73219 0.52763 0.0
C793 C 0.15095 0.71918 0.54995 0.0
C794 C 0.05766 0.73918 0.54687 0.0
C795 C 0.10133 0.72621 0.53456 0.0
C796 C 0.03452 0.74964 0.53998 0.0
C797 C 0.02847 0.75275 0.51452 0.0
C798 C 0.07504 0.7325 0.52816 0.0
C799 C 0.04558 0.74374 0.4965 0.0
C800 C 0.12109 0.73533 0.51965 0.0
C801 C 0.13075 0.70914 0.56363 0.0
N802 N 0.06831 0.73461 0.50364 0.0
N803 N 0.10672 0.71331 0.55601 0.0
H804 H 0.5295 0.89231 0.82205 0.0
H805 H 0.47745 0.79166 0.72518 0.0
H806 H 0.48657 0.91257 0.75649 0.0
H807 H 0.47954 0.77679 0.80486 0.0
H808 H 0.49356 0.83378 0.73286 0.0
H809 H 0.52325 0.84779 0.81211 0.0
C810 C 0.51917 0.8874 0.80531 0.0
C811 C 0.50845 0.90614 0.79008 0.0
C812 C 0.49086 0.82111 0.74858 0.0
C813 C 0.50158 0.85544 0.77856 0.0
C814 C 0.48185 0.79697 0.74426 0.0
C815 C 0.47689 0.78065 0.76446 0.0
C816 C 0.49541 0.82892 0.77322 0.0
C817 C 0.48293 0.78876 0.78875 0.0
C818 C 0.51552 0.86205 0.79978 0.0
C819 C 0.49504 0.89872 0.76877 0.0
N820 N 0.49177 0.8124 0.79249 0.0
N821 N 0.49203 0.87394 0.76361 0.0
H822 H 0.33983 0.25625 0.00442 0.0
H823 H 0.47788 0.23922 0.04537 0.0
H824 H 0.36391 0.29039 0.07346 0.0
H825 H 0.46011 0.25491 0.96787 0.0
H826 H 0.43662 0.25601 0.05753 0.0
H827 H 0.38384 0.25278 0.99122 0.0
C828 C 0.35438 0.26334 0.01661 0.0
C829 C 0.34829 0.2737 0.03998 0.0
C830 C 0.44209 0.25624 0.03794 0.0
C831 C 0.39852 0.26912 0.0254 0.0
C832 C 0.46563 0.24673 0.03099 0.0
C833 C 0.47245 0.24544 0.00555 0.0
C834 C 0.42512 0.26385 0.01926 0.0
C835 C 0.4557 0.25539 0.98771 0.0
C836 C 0.37943 0.26142 0.00908 0.0
C837 C 0.36786 0.28248 0.05518 0.0
N838 N 0.4326 0.26359 0.99484 0.0
N839 N 0.39219 0.27952 0.04787 0.0
H840 H 0.31088 0.04905 0.21596 0.0
H841 H 0.2903 0.95963 0.09912 0.0
H842 H 0.25158 0.99413 0.21848 0.0
H843 H 0.3031 0.03926 0.09223 0.0
H844 H 0.28577 0.96479 0.14495 0.0
H845 H 0.31979 0.03704 0.17266 0.0
C846 C 0.30027 0.03387 0.20776 0.0
C847 C 0.28031 0.02269 0.22088 0.0
C848 C 0.28957 0.98102 0.13326 0.0
C849 C 0.29044 0.00903 0.17124 0.0
C850 C 0.29208 0.97814 0.10723 0.0
C851 C 0.2968 0.99911 0.09189 0.0
C852 C 0.29271 0.00485 0.14391 0.0
C853 C 0.29913 0.02266 0.10331 0.0
C854 C 0.3052 0.02727 0.18293 0.0
C855 C 0.26705 0.0033 0.20902 0.0
N856 N 0.29733 0.02485 0.12863 0.0
N857 N 0.27224 0.99717 0.18474 0.0
H858 H 0.25712 0.96919 0.4543 0.0
H859 H 0.29186 0.08224 0.36228 0.0
H860 H 0.24407 0.04641 0.47515 0.0
H861 H 0.25986 0.01258 0.33702 0.0
H862 H 0.28819 0.06735 0.40588 0.0
H863 H 0.27302 0.9834 0.41367 0.0
C864 C 0.25824 0.98918 0.4507 0.0
C865 C 0.24889 0.00663 0.46814 0.0
C866 C 0.28237 0.05525 0.3907 0.0
C867 C 0.26719 0.02287 0.42157 0.0
C868 C 0.28456 0.06362 0.36588 0.0
C869 C 0.27604 0.04861 0.34606 0.0
C870 C 0.27224 0.03148 0.39561 0.0
C871 C 0.2665 0.02477 0.35177 0.0
C872 C 0.26715 0.9972 0.42738 0.0
C873 C 0.25088 0.03229 0.46224 0.0
N874 N 0.2649 0.01691 0.37602 0.0
N875 N 0.25963 0.03965 0.43932 0.0
H876 H 0.25223 0.9961 0.72226 0.0
H877 H 0.20377 0.95496 0.5912 0.0
H878 H 0.19003 0.94503 0.71537 0.0
H879 H 0.21581 0.03415 0.60255 0.0
H880 H 0.20703 0.94822 0.63649 0.0
H881 H 0.24592 0.00907 0.67831 0.0
C882 C 0.23691 0.98808 0.71172 0.0
C883 C 0.22158 0.96951 0.72252 0.0
C884 C 0.20906 0.96705 0.62901 0.0
C885 C 0.21505 0.98345 0.6723 0.0
C886 C 0.20751 0.97089 0.60318 0.0
C887 C 0.20962 0.99515 0.5931 0.0
C888 C 0.21339 0.98748 0.64488 0.0
C889 C 0.21409 0.01515 0.60961 0.0
C890 C 0.23341 0.99541 0.6867 0.0
C891 C 0.20215 0.95954 0.70793 0.0
N892 N 0.21609 0.01086 0.63477 0.0
N893 N 0.19981 0.96621 0.68342 0.0
H894 H 0.19814 0.92078 0.86795 0.0
H895 H 0.24498 0.03137 0.95585 0.0
H896 H 0.23754 0.98556 0.83962 0.0
H897 H 0.25534 0.95372 0.97709 0.0
H898 H 0.22649 0.01778 0.91632 0.0
H899 H 0.20429 0.93619 0.91095 0.0
C900 C 0.20752 0.93854 0.87076 0.0
C901 C 0.21741 0.95196 0.85028 0.0
C902 C 0.23232 0.00378 0.92993 0.0
C903 C 0.22405 0.96969 0.89907 0.0
C904 C 0.2427 0.01145 0.95261 0.0
C905 C 0.25203 0.99363 0.96977 0.0
C906 C 0.2307 0.97814 0.92456 0.0
C907 C 0.24859 0.96809 0.96435 0.0
C908 C 0.21113 0.94717 0.89522 0.0
C909 C 0.22971 0.97466 0.85492 0.0
N910 N 0.23834 0.96106 0.94209 0.0
N911 N 0.23265 0.98287 0.87886 0.0
H912 H 0.10391 0.34211 0.00074 0.0
H913 H 0.20618 0.23334 0.01319 0.0
H914 H 0.08537 0.26759 0.02657 0.0
H915 H 0.22433 0.31122 0.02545 0.0
H916 H 0.16222 0.24518 0.00742 0.0
H917 H 0.14834 0.33041 0.00041 0.0
C918 C 0.10917 0.32323 0.00627 0.0
C919 C 0.09087 0.3058 0.01378 0.0
C920 C 0.17592 0.25968 0.01099 0.0
C921 C 0.14173 0.29222 0.01295 0.0
C922 C 0.20113 0.25303 0.01395 0.0
C923 C 0.2191 0.27132 0.01989 0.0
C924 C 0.16862 0.28486 0.0135 0.0
C925 C 0.21119 0.29649 0.02091 0.0
C926 C 0.13454 0.31662 0.00609 0.0
C927 C 0.09884 0.28165 0.02082 0.0
N928 N 0.18652 0.30251 0.01785 0.0
N929 N 0.1237 0.2755 0.02007 0.0
H930 H 0.72687 0.20198 0.97756 0.0
H931 H 0.58817 0.24637 0.98623 0.0
H932 H 0.7087 0.28043 0.98708 0.0
H933 H 0.61005 0.17792 0.02385 0.0
H934 H 0.63246 0.25833 0.98342 0.0
H935 H 0.68468 0.1912 0.99271 0.0
C936 C 0.71431 0.21689 0.9834 0.0
C937 C 0.72133 0.24216 0.98082 0.0
C938 C 0.62751 0.24086 0.9926 0.0
C939 C 0.67297 0.22997 0.99734 0.0
C940 C 0.6023 0.23401 0.99412 0.0
C941 C 0.59549 0.21118 0.00533 0.0
C942 C 0.64609 0.22441 0.00165 0.0
C943 C 0.61455 0.19578 0.01522 0.0
C944 C 0.69023 0.21072 0.99196 0.0
C945 C 0.70416 0.2607 0.98861 0.0
N946 N 0.63907 0.20244 0.01274 0.0
N947 N 0.68061 0.25426 0.99593 0.0
H948 H 0.05504 0.34044 0.21304 0.0
H949 H 0.03523 0.48065 0.25213 0.0
H950 H 0.06194 0.36151 0.29086 0.0
H951 H 0.06532 0.45955 0.18 0.0
H952 H 0.0445 0.43836 0.26794 0.0
H953 H 0.05592 0.38457 0.2012 0.0
C954 C 0.05647 0.35435 0.22773 0.0
C955 C 0.05822 0.34717 0.25306 0.0
C956 C 0.04972 0.44322 0.24888 0.0
C957 C 0.05953 0.39802 0.23942 0.0
C958 C 0.04467 0.46741 0.2399 0.0
C959 C 0.04947 0.47363 0.21467 0.0
C960 C 0.05906 0.42501 0.23233 0.0
C961 C 0.06144 0.45566 0.19959 0.0
C962 C 0.05733 0.37958 0.22087 0.0
C963 C 0.06039 0.36618 0.27113 0.0
N964 N 0.06523 0.43198 0.20846 0.0
N965 N 0.06075 0.3908 0.26399 0.0
H966 H 0.91234 0.75555 0.49638 0.0
H967 H 0.77617 0.8054 0.48154 0.0
H968 H 0.89227 0.82523 0.53229 0.0
H969 H 0.79039 0.72671 0.49547 0.0
H970 H 0.81826 0.81491 0.49761 0.0
H971 H 0.86765 0.74569 0.49222 0.0
C972 C 0.8985 0.76862 0.50363 0.0
C973 C 0.90595 0.79114 0.5148 0.0
C974 C 0.81183 0.79565 0.49759 0.0
C975 C 0.85493 0.78036 0.50948 0.0
C976 C 0.78781 0.7902 0.48852 0.0
C977 C 0.77973 0.76519 0.4869 0.0
C978 C 0.82798 0.77591 0.50447 0.0
C979 C 0.79576 0.74627 0.49615 0.0
C980 C 0.87306 0.76298 0.50133 0.0
C981 C 0.88726 0.80753 0.52377 0.0
N982 N 0.81929 0.75195 0.50395 0.0
N983 N 0.86254 0.80206 0.5205 0.0
H984 H 0.27038 0.68827 0.52482 0.0
H985 H 0.40912 0.73404 0.51072 0.0
H986 H 0.28863 0.76713 0.52602 0.0
H987 H 0.38352 0.66939 0.46974 0.0
H988 H 0.3653 0.74563 0.51899 0.0
H989 H 0.31179 0.67956 0.50638 0.0
C990 C 0.28285 0.70378 0.52078 0.0
C991 C 0.27602 0.72845 0.52708 0.0
C992 C 0.36931 0.72911 0.50789 0.0
C993 C 0.32352 0.71854 0.50671 0.0
C994 C 0.39428 0.72247 0.50322 0.0
C995 C 0.39995 0.70075 0.48951 0.0
C996 C 0.34992 0.71354 0.49939 0.0
C997 C 0.37997 0.68637 0.48027 0.0
C998 C 0.30646 0.6988 0.5103 0.0
C999 C 0.29303 0.74782 0.5215 0.0
N1000 N 0.35583 0.69277 0.48574 0.0
N1001 N 0.31614 0.7424 0.5121 0.0
H1002 H 0.94722 0.97086 0.29866 0.0
H1003 H 0.96884 0.85579 0.20707 0.0
H1004 H 0.00693 0.97449 0.24382 0.0
H1005 H 0.95371 0.8478 0.28632 0.0
H1006 H 0.97456 0.90129 0.2133 0.0
H1007 H 0.93872 0.92784 0.28574 0.0
C1008 C 0.95801 0.96297 0.28332 0.0
C1009 C 0.978 0.97628 0.27246 0.0
C1010 C 0.97012 0.8894 0.22922 0.0
C1011 C 0.96841 0.92693 0.25783 0.0
C1012 C 0.96701 0.86353 0.22575 0.0
C1013 C 0.96103 0.84796 0.24626 0.0
C1014 C 0.96637 0.89969 0.25314 0.0
C1015 C 0.95861 0.85898 0.27003 0.0
C1016 C 0.95334 0.93829 0.27621 0.0
C1017 C 0.99146 0.96485 0.25279 0.0
N1018 N 0.96096 0.88417 0.27274 0.0
N1019 N 0.98656 0.94068 0.2462 0.0
H1020 H 0.55425 0.02079 0.75862 0.0
H1021 H 0.58553 0.13558 0.70205 0.0
H1022 H 0.47781 0.04343 0.74386 0.0
H1023 H 0.51851 0.15858 0.7415 0.0
H1024 H 0.57265 0.0916 0.70673 0.0
H1025 H 0.56866 0.06074 0.74078 0.0
C1026 C 0.54055 0.0338 0.75101 0.0
C1027 C 0.51477 0.02872 0.75285 0.0
C1028 C 0.56072 0.10634 0.71413 0.0
C1029 C 0.53109 0.07455 0.7329 0.0
C1030 C 0.56788 0.13142 0.71127 0.0
C1031 C 0.55312 0.15073 0.72158 0.0
C1032 C 0.53844 0.10065 0.72699 0.0
C1033 C 0.53052 0.14425 0.73346 0.0
C1034 C 0.54879 0.05658 0.74081 0.0
C1035 C 0.49786 0.04645 0.74287 0.0
N1036 N 0.52385 0.11975 0.73581 0.0
N1037 N 0.50628 0.06881 0.73394 0.0
H1038 H 0.56554 0.28589 0.69318 0.0
H1039 H 0.48264 0.40797 0.71341 0.0
H1040 H 0.50387 0.28514 0.7459 0.0
H1041 H 0.56284 0.41136 0.70313 0.0
H1042 H 0.48572 0.36215 0.71784 0.0
H1043 H 0.55953 0.33102 0.68749 0.0
C1044 C 0.55018 0.295 0.70297 0.0
C1045 C 0.53506 0.28157 0.71998 0.0
C1046 C 0.50261 0.37298 0.71475 0.0
C1047 C 0.52838 0.33342 0.71365 0.0
C1048 C 0.50091 0.39906 0.71226 0.0
C1049 C 0.52257 0.41346 0.70806 0.0
C1050 C 0.52601 0.36114 0.71222 0.0
C1051 C 0.54575 0.40098 0.70662 0.0
C1052 C 0.54708 0.32087 0.69998 0.0
C1053 C 0.51585 0.29469 0.73251 0.0
N1054 N 0.54683 0.37548 0.70837 0.0
N1055 N 0.51303 0.31992 0.72909 0.0
H1056 H 0.84831 0.28572 0.94449 0.0
H1057 H 0.96687 0.23589 0.01265 0.0
H1058 H 0.85482 0.20578 0.95626 0.0
H1059 H 0.97141 0.29469 0.95686 0.0
H1060 H 0.92604 0.22364 0.99546 0.0
H1061 H 0.89285 0.29013 0.95394 0.0
C1062 C 0.85907 0.2691 0.94931 0.0
C1063 C 0.84782 0.24536 0.94976 0.0
C1064 C 0.93637 0.23877 0.98664 0.0
C1065 C 0.89887 0.25032 0.96055 0.0
C1066 C 0.95972 0.24569 0.99631 0.0
C1067 C 0.97252 0.26654 0.98636 0.0
C1068 C 0.9256 0.25319 0.96738 0.0
C1069 C 0.96227 0.27858 0.96523 0.0
C1070 C 0.88455 0.2716 0.95437 0.0
C1071 C 0.86281 0.22442 0.95578 0.0
N1072 N 0.93912 0.27217 0.95689 0.0
N1073 N 0.88759 0.22741 0.96129 0.0
H1074 H 0.97879 0.7199 0.20435 0.0
H1075 H 0.97249 0.58065 0.25375 0.0
H1076 H 0.98109 0.70258 0.28352 0.0
H1077 H 0.00923 0.59839 0.18366 0.0
H1078 H 0.97244 0.62548 0.26429 0.0
H1079 H 0.98801 0.67569 0.19524 0.0
C1080 C 0.98178 0.70698 0.2198 0.0
C1081 C 0.97908 0.71504 0.24473 0.0
C1082 C 0.98074 0.61947 0.24672 0.0
C1083 C 0.98877 0.66436 0.23442 0.0
C1084 C 0.98067 0.59393 0.24068 0.0
C1085 C 0.9909 0.58576 0.21783 0.0
C1086 C 0.99053 0.637 0.22953 0.0
C1087 C 0.00126 0.60383 0.20155 0.0
C1088 C 0.98692 0.68174 0.21459 0.0
C1089 C 0.98299 0.69732 0.264 0.0
N1090 N 0.00051 0.62861 0.20755 0.0
N1091 N 0.98714 0.67277 0.25844 0.0
H1092 H 0.52492 0.758 0.49569 0.0
H1093 H 0.6563 0.71662 0.4461 0.0
H1094 H 0.53356 0.69703 0.44332 0.0
H1095 H 0.64153 0.7957 0.45595 0.0
H1096 H 0.61152 0.70834 0.44995 0.0
H1097 H 0.56713 0.77267 0.48451 0.0
C1098 C 0.53541 0.74814 0.48131 0.0
C1099 C 0.52577 0.72623 0.47044 0.0
C1100 C 0.61806 0.72751 0.45124 0.0
C1101 C 0.57418 0.74232 0.45839 0.0
C1102 C 0.64366 0.73225 0.4494 0.0
C1103 C 0.65271 0.7569 0.45092 0.0
C1104 C 0.60129 0.74745 0.45518 0.0
C1105 C 0.63533 0.77642 0.45479 0.0
C1106 C 0.55949 0.75646 0.47505 0.0
C1107 C 0.54019 0.71406 0.45206 0.0
N1108 N 0.61038 0.77126 0.45709 0.0
N1109 N 0.56393 0.72192 0.44705 0.0
H1110 H 0.67565 0.48889 0.39232 0.0
H1111 H 0.77916 0.52169 0.28936 0.0
H1112 H 0.74361 0.52878 0.40983 0.0
H1113 H 0.70007 0.52558 0.27239 0.0
H1114 H 0.76878 0.51122 0.33282 0.0
H1115 H 0.68699 0.49043 0.34767 0.0
C1116 C 0.69312 0.49769 0.38681 0.0
C1117 C 0.70871 0.5088 0.40482 0.0
C1118 C 0.75375 0.51392 0.31943 0.0
C1119 C 0.72189 0.51015 0.3539 0.0
C1120 C 0.75959 0.51962 0.2945 0.0
C1121 C 0.74043 0.52473 0.2771 0.0
C1122 C 0.72858 0.51277 0.32699 0.0
C1123 C 0.71545 0.52188 0.28512 0.0
C1124 C 0.69947 0.49861 0.36135 0.0
C1125 C 0.731 0.52011 0.39658 0.0
N1126 N 0.71022 0.51622 0.30954 0.0
N1127 N 0.737 0.52039 0.37171 0.0
H1128 H 0.7506 0.47395 0.51164 0.0
H1129 H 0.71669 0.44754 0.65176 0.0
H1130 H 0.68508 0.43164 0.53307 0.0
H1131 H 0.79473 0.44759 0.62978 0.0
H1132 H 0.70479 0.44628 0.60775 0.0
H1133 H 0.76815 0.46671 0.55358 0.0
C1134 C 0.74031 0.46238 0.52486 0.0
C1135 C 0.7163 0.4534 0.51883 0.0
C1136 C 0.72453 0.44652 0.61253 0.0
C1137 C 0.7358 0.44605 0.56702 0.0
C1138 C 0.73139 0.4476 0.63768 0.0
C1139 C 0.75681 0.44784 0.64456 0.0
C1140 C 0.74311 0.44615 0.59387 0.0
C1141 C 0.77493 0.44754 0.62532 0.0
C1142 C 0.75026 0.45845 0.54883 0.0
C1143 C 0.70368 0.43878 0.53679 0.0
N1144 N 0.76773 0.44696 0.60077 0.0
N1145 N 0.71329 0.43611 0.56026 0.0
H1146 H 0.76563 0.50728 0.90192 0.0
H1147 H 0.81194 0.48691 0.76479 0.0
H1148 H 0.837 0.5378 0.87905 0.0
H1149 H 0.73399 0.50275 0.78077 0.0
H1150 H 0.82295 0.50366 0.80617 0.0
H1151 H 0.75438 0.50243 0.85761 0.0
C1152 C 0.7788 0.51318 0.88757 0.0
C1153 C 0.80222 0.52301 0.89414 0.0
C1154 C 0.80352 0.50392 0.80029 0.0
C1155 C 0.78976 0.51698 0.84354 0.0
C1156 C 0.79722 0.49448 0.77664 0.0
C1157 C 0.77196 0.49316 0.76928 0.0
C1158 C 0.78438 0.5115 0.81684 0.0
C1159 C 0.7537 0.50317 0.78559 0.0
C1160 C 0.77236 0.51051 0.86233 0.0
C1161 C 0.81866 0.53031 0.87476 0.0
N1162 N 0.7602 0.51134 0.80878 0.0
N1163 N 0.81231 0.52673 0.85031 0.0
H1164 H 0.78395 0.56178 0.14981 0.0
H1165 H 0.73942 0.51413 0.01925 0.0
H1166 H 0.70446 0.55325 0.13733 0.0
H1167 H 0.80138 0.56537 0.02693 0.0
H1168 H 0.72559 0.52497 0.06189 0.0
H1169 H 0.79124 0.55798 0.10487 0.0
C1170 C 0.768 0.55878 0.13765 0.0
C1171 C 0.74353 0.55765 0.14742 0.0
C1172 C 0.74183 0.53425 0.05393 0.0
C1173 C 0.75188 0.55343 0.09571 0.0
C1174 C 0.74968 0.5282 0.0296 0.0
C1175 C 0.77166 0.53881 0.01953 0.0
C1176 C 0.75646 0.55047 0.06843 0.0
C1177 C 0.7843 0.5568 0.03384 0.0
C1178 C 0.77219 0.55696 0.11193 0.0
C1179 C 0.72361 0.55413 0.13058 0.0
N1180 N 0.77687 0.5616 0.05777 0.0
N1181 N 0.72824 0.55185 0.10548 0.0
H1182 H 0.42795 0.63799 0.79947 0.0
H1183 H 0.54298 0.55099 0.76164 0.0
H1184 H 0.49156 0.666 0.75791 0.0
H1185 H 0.46732 0.52724 0.7458 0.0
H1186 H 0.5265 0.59089 0.77712 0.0
H1187 H 0.4449 0.5951 0.79541 0.0
C1188 C 0.44575 0.63515 0.79001 0.0
C1189 C 0.45845 0.65547 0.77899 0.0
C1190 C 0.51354 0.57664 0.7708 0.0
C1191 C 0.47795 0.6069 0.77483 0.0
C1192 C 0.52284 0.55375 0.76214 0.0
C1193 C 0.50651 0.53575 0.75209 0.0
C1194 C 0.48771 0.58138 0.77004 0.0
C1195 C 0.48059 0.54061 0.75321 0.0
C1196 C 0.45525 0.61076 0.7876 0.0
C1197 C 0.48122 0.65081 0.76661 0.0
N1198 N 0.47195 0.56309 0.76185 0.0
N1199 N 0.49035 0.62699 0.76497 0.0
loop_
_geom_bond_atom_site_label_1
_geom_bond_atom_site_label_2
_geom_bond_distance
_geom_bond_site_symmetry_2
_ccdc_geom_bond_type
C0 O2 1.247 . S
C0 O4 1.258 . S
C1 O8 1.247 . S
C1 O9 1.258 . S
O2 C0 1.247 . S
O2 Zn3 2.028 . S
Zn3 O2 2.028 . S
Zn3 O7 2.035 . S
Zn3 O9 2.035 . S
Zn3 O10 2.028 . S
O4 C0 1.258 . S
O4 Zn5 2.035 . S
Zn5 O4 2.035 . S
Zn5 O6 2.028 . S
Zn5 O8 2.028 . S
Zn5 O11 2.035 . S
O6 Zn5 2.028 . S
O6 C12 1.247 . S
O7 Zn3 2.035 . S
O7 C12 1.258 . S
O8 C1 1.247 . S
O8 Zn5 2.028 . S
O9 C1 1.258 . S
O9 Zn3 2.035 . S
O10 Zn3 2.028 . S
O10 C13 1.247 . S
O11 Zn5 2.035 . S
O11 C13 1.258 . S
C12 O6 1.247 . S
C12 O7 1.258 . S
C13 O10 1.247 . S
C13 O11 1.258 . S
C14 O16 1.247 . S
C14 O18 1.258 . S
C15 O22 1.247 . S
C15 O23 1.258 . S
O16 C14 1.247 . S
O16 Zn17 2.028 . S
Zn17 O16 2.028 . S
Zn17 O21 2.035 . S
Zn17 O23 2.035 . S
Zn17 O24 2.028 . S
O18 C14 1.258 . S
O18 Zn19 2.035 . S
Zn19 O18 2.035 . S
Zn19 O20 2.028 . S
Zn19 O22 2.028 . S
Zn19 O25 2.035 . S
O20 Zn19 2.028 . S
O20 C26 1.246 1_455 S
O21 Zn17 2.035 . S
O21 C26 1.257 1_455 S
O22 C15 1.247 . S
O22 Zn19 2.028 . S
O23 C15 1.258 . S
O23 Zn17 2.035 . S
O24 Zn17 2.028 . S
O24 C27 1.247 . S
O25 Zn19 2.035 . S
O25 C27 1.258 . S
C26 O20 1.246 1_655 S
C26 O21 1.257 1_655 S
C27 O24 1.247 . S
C27 O25 1.258 . S
C28 O30 1.247 . S
C28 O32 1.258 . S
C29 O36 1.247 . S
C29 O37 1.258 . S
O30 C28 1.247 . S
O30 Zn31 2.028 . S
Zn31 O30 2.028 . S
Zn31 O35 2.035 . S
Zn31 O37 2.035 . S
Zn31 O38 2.028 . S
O32 C28 1.258 . S
O32 Zn33 2.035 . S
Zn33 O32 2.035 . S
Zn33 O34 2.028 . S
Zn33 O36 2.028 . S
Zn33 O39 2.035 . S
O34 Zn33 2.028 . S
O34 C40 1.247 . S
O35 Zn31 2.035 . S
O35 C40 1.258 . S
O36 C29 1.247 . S
O36 Zn33 2.028 . S
O37 C29 1.258 . S
O37 Zn31 2.035 . S
O38 Zn31 2.028 . S
O38 C41 1.247 . S
O39 Zn33 2.035 . S
O39 C41 1.258 . S
C40 O34 1.247 . S
C40 O35 1.258 . S
C41 O38 1.247 . S
C41 O39 1.258 . S
C42 O44 1.247 . S
C42 O46 1.258 . S
C43 O50 1.247 . S
C43 O51 1.258 . S
O44 C42 1.247 . S
O44 Zn45 2.028 . S
Zn45 O44 2.028 . S
Zn45 O49 2.035 . S
Zn45 O51 2.035 . S
Zn45 O52 2.028 . S
O46 C42 1.258 . S
O46 Zn47 2.035 . S
Zn47 O46 2.035 . S
Zn47 O48 2.028 . S
Zn47 O50 2.028 . S
Zn47 O53 2.035 . S
O48 Zn47 2.028 . S
O48 C54 1.247 . S
O49 Zn45 2.035 . S
O49 C54 1.258 . S
O50 C43 1.247 . S
O50 Zn47 2.028 . S
O51 C43 1.258 . S
O51 Zn45 2.035 . S
O52 Zn45 2.028 . S
O52 C55 1.247 . S
O53 Zn47 2.035 . S
O53 C55 1.258 . S
C54 O48 1.247 . S
C54 O49 1.258 . S
C55 O52 1.247 . S
C55 O53 1.258 . S
C56 O58 1.247 . S
C56 O60 1.258 . S
C57 O64 1.247 . S
C57 O65 1.258 . S
O58 C56 1.247 . S
O58 Zn59 2.028 . S
Zn59 O58 2.028 . S
Zn59 O63 2.035 . S
Zn59 O65 2.035 . S
Zn59 O66 2.028 1_455 S
O60 C56 1.258 . S
O60 Zn61 2.035 . S
Zn61 O60 2.035 . S
Zn61 O62 2.028 . S
Zn61 O64 2.028 . S
Zn61 O67 2.035 . S
O62 Zn61 2.028 . S
O62 C68 1.247 . S
O63 Zn59 2.035 . S
O63 C68 1.258 . S
O64 C57 1.247 . S
O64 Zn61 2.028 . S
O65 C57 1.258 . S
O65 Zn59 2.035 . S
O66 Zn59 2.028 1_655 S
O66 C69 1.247 . S
O67 Zn61 2.035 . S
O67 C69 1.258 1_455 S
C68 O62 1.247 . S
C68 O63 1.258 . S
C69 O66 1.247 . S
C69 O67 1.258 1_655 S
C70 O72 1.247 . S
C70 O74 1.258 . S
C71 O78 1.247 . S
C71 O79 1.258 . S
O72 C70 1.247 . S
O72 Zn73 2.028 . S
Zn73 O72 2.028 . S
Zn73 O77 2.035 . S
Zn73 O79 2.035 . S
Zn73 O80 2.028 . S
O74 C70 1.258 . S
O74 Zn75 2.035 . S
Zn75 O74 2.035 . S
Zn75 O76 2.028 . S
Zn75 O78 2.028 . S
Zn75 O81 2.035 . S
O76 Zn75 2.028 . S
O76 C82 1.247 . S
O77 Zn73 2.035 . S
O77 C82 1.258 . S
O78 C71 1.247 . S
O78 Zn75 2.028 . S
O79 C71 1.258 . S
O79 Zn73 2.035 . S
O80 Zn73 2.028 . S
O80 C83 1.247 . S
O81 Zn75 2.035 . S
O81 C83 1.258 . S
C82 O76 1.247 . S
C82 O77 1.258 . S
C83 O80 1.247 . S
C83 O81 1.258 . S
C84 O86 1.247 1_565 S
C84 O88 1.258 1_565 S
C85 O92 1.247 . S
C85 O93 1.258 . S
O86 C84 1.247 1_545 S
O86 Zn87 2.028 . S
Zn87 O86 2.028 . S
Zn87 O91 2.035 . S
Zn87 O93 2.035 . S
Zn87 O94 2.028 . S
O88 C84 1.258 1_545 S
O88 Zn89 2.035 . S
Zn89 O88 2.035 . S
Zn89 O90 2.028 . S
Zn89 O92 2.028 . S
Zn89 O95 2.035 . S
O90 Zn89 2.028 . S
O90 C96 1.247 . S
O91 Zn87 2.035 . S
O91 C96 1.258 . S
O92 C85 1.247 . S
O92 Zn89 2.028 . S
O93 C85 1.258 . S
O93 Zn87 2.035 . S
O94 Zn87 2.028 . S
O94 C97 1.247 . S
O95 Zn89 2.035 . S
O95 C97 1.258 . S
C96 O90 1.247 . S
C96 O91 1.258 . S
C97 O94 1.247 . S
C97 O95 1.258 . S
C98 O100 1.247 . S
C98 O102 1.258 . S
C99 O106 1.247 . S
C99 O107 1.258 . S
O100 C98 1.247 . S
O100 Zn101 2.028 . S
Zn101 O100 2.028 . S
Zn101 O105 2.035 . S
Zn101 O107 2.035 . S
Zn101 O108 2.028 . S
O102 C98 1.258 . S
O102 Zn103 2.035 . S
Zn103 O102 2.035 . S
Zn103 O104 2.028 . S
Zn103 O106 2.028 . S
Zn103 O109 2.035 . S
O104 Zn103 2.028 . S
O104 C110 1.247 . S
O105 Zn101 2.035 . S
O105 C110 1.258 . S
O106 C99 1.247 . S
O106 Zn103 2.028 . S
O107 C99 1.258 . S
O107 Zn101 2.035 . S
O108 Zn101 2.028 . S
O108 C111 1.247 . S
O109 Zn103 2.035 . S
O109 C111 1.258 . S
C110 O104 1.247 . S
C110 O105 1.258 . S
C111 O108 1.247 . S
C111 O109 1.258 . S
C112 O114 1.247 . S
C112 O116 1.258 . S
C113 O120 1.247 . S
C113 O121 1.258 . S
O114 C112 1.247 . S
O114 Zn115 2.028 . S
Zn115 O114 2.028 . S
Zn115 O119 2.035 . S
Zn115 O121 2.035 . S
Zn115 O122 2.028 . S
O116 C112 1.258 . S
O116 Zn117 2.035 . S
Zn117 O116 2.035 . S
Zn117 O118 2.028 . S
Zn117 O120 2.028 . S
Zn117 O123 2.035 . S
O118 Zn117 2.028 . S
O118 C124 1.247 . S
O119 Zn115 2.035 . S
O119 C124 1.258 . S
O120 C113 1.247 . S
O120 Zn117 2.028 . S
O121 C113 1.258 . S
O121 Zn115 2.035 . S
O122 Zn115 2.028 . S
O122 C125 1.247 . S
O123 Zn117 2.035 . S
O123 C125 1.258 . S
C124 O118 1.247 . S
C124 O119 1.258 . S
C125 O122 1.247 . S
C125 O123 1.258 . S
C126 O128 1.247 . S
C126 O130 1.258 . S
C127 O134 1.247 . S
C127 O135 1.258 . S
O128 C126 1.247 . S
O128 Zn129 2.028 . S
Zn129 O128 2.028 . S
Zn129 O133 2.035 . S
Zn129 O135 2.035 . S
Zn129 O136 2.028 . S
O130 C126 1.258 . S
O130 Zn131 2.035 . S
Zn131 O130 2.035 . S
Zn131 O132 2.028 . S
Zn131 O134 2.028 . S
Zn131 O137 2.035 . S
O132 Zn131 2.028 . S
O132 C138 1.247 . S
O133 Zn129 2.035 . S
O133 C138 1.258 . S
O134 C127 1.247 . S
O134 Zn131 2.028 . S
O135 C127 1.258 . S
O135 Zn129 2.035 . S
O136 Zn129 2.028 . S
O136 C139 1.247 . S
O137 Zn131 2.035 . S
O137 C139 1.258 . S
C138 O132 1.247 . S
C138 O133 1.258 . S
C139 O136 1.247 . S
C139 O137 1.258 . S
C140 O142 1.247 . S
C140 O144 1.258 . S
C141 O148 1.247 . S
C141 O149 1.258 . S
O142 C140 1.247 . S
O142 Zn143 2.028 . S
Zn143 O142 2.028 . S
Zn143 O147 2.035 . S
Zn143 O149 2.035 . S
Zn143 O150 2.028 . S
O144 C140 1.258 . S
O144 Zn145 2.035 . S
Zn145 O144 2.035 . S
Zn145 O146 2.028 . S
Zn145 O148 2.028 . S
Zn145 O151 2.035 . S
O146 Zn145 2.028 . S
O146 C152 1.247 . S
O147 Zn143 2.035 . S
O147 C152 1.258 . S
O148 C141 1.247 . S
O148 Zn145 2.028 . S
O149 C141 1.258 . S
O149 Zn143 2.035 . S
O150 Zn143 2.028 . S
O150 C153 1.247 . S
O151 Zn145 2.035 . S
O151 C153 1.258 . S
C152 O146 1.247 . S
C152 O147 1.258 . S
C153 O150 1.247 . S
C153 O151 1.258 . S
C154 O156 1.247 . S
C154 O158 1.258 . S
C155 O162 1.247 . S
C155 O163 1.258 1_565 S
O156 C154 1.247 . S
O156 Zn157 2.028 . S
Zn157 O156 2.028 . S
Zn157 O161 2.035 . S
Zn157 O163 2.035 . S
Zn157 O164 2.028 . S
O158 C154 1.258 . S
O158 Zn159 2.035 . S
Zn159 O158 2.035 . S
Zn159 O160 2.028 . S
Zn159 O162 2.028 1_545 S
Zn159 O165 2.035 . S
O160 Zn159 2.028 . S
O160 C166 1.247 . S
O161 Zn157 2.035 . S
O161 C166 1.258 . S
O162 C155 1.247 . S
O162 Zn159 2.028 1_565 S
O163 C155 1.258 1_545 S
O163 Zn157 2.035 . S
O164 Zn157 2.028 . S
O164 C167 1.247 . S
O165 Zn159 2.035 . S
O165 C167 1.258 . S
C166 O160 1.247 . S
C166 O161 1.258 . S
C167 O164 1.247 . S
C167 O165 1.258 . S
C168 O170 1.247 . S
C168 O172 1.258 . S
C169 O176 1.247 . S
C169 O177 1.258 . S
O170 C168 1.247 . S
O170 Zn171 2.028 . S
Zn171 O170 2.028 . S
Zn171 O175 2.035 . S
Zn171 O177 2.035 . S
Zn171 O178 2.028 . S
O172 C168 1.258 . S
O172 Zn173 2.035 . S
Zn173 O172 2.035 . S
Zn173 O174 2.028 . S
Zn173 O176 2.028 . S
Zn173 O179 2.035 . S
O174 Zn173 2.028 . S
O174 C180 1.247 . S
O175 Zn171 2.035 . S
O175 C180 1.258 . S
O176 C169 1.247 . S
O176 Zn173 2.028 . S
O177 C169 1.258 . S
O177 Zn171 2.035 . S
O178 Zn171 2.028 . S
O178 C181 1.247 . S
O179 Zn173 2.035 . S
O179 C181 1.258 . S
C180 O174 1.247 . S
C180 O175 1.258 . S
C181 O178 1.247 . S
C181 O179 1.258 . S
C182 O184 1.247 . S
C182 O186 1.258 . S
C183 O190 1.247 . S
C183 O191 1.258 . S
O184 C182 1.247 . S
O184 Zn185 2.028 . S
Zn185 O184 2.028 . S
Zn185 O189 2.035 . S
Zn185 O191 2.035 . S
Zn185 O192 2.028 . S
O186 C182 1.258 . S
O186 Zn187 2.035 . S
Zn187 O186 2.035 . S
Zn187 O188 2.028 . S
Zn187 O190 2.028 . S
Zn187 O193 2.035 . S
O188 Zn187 2.028 . S
O188 C194 1.247 . S
O189 Zn185 2.035 . S
O189 C194 1.258 . S
O190 C183 1.247 . S
O190 Zn187 2.028 . S
O191 C183 1.258 . S
O191 Zn185 2.035 . S
O192 Zn185 2.028 . S
O192 C195 1.247 . S
O193 Zn187 2.035 . S
O193 C195 1.258 . S
C194 O188 1.247 . S
C194 O189 1.258 . S
C195 O192 1.247 . S
C195 O193 1.258 . S
C196 O198 1.247 . S
C196 O200 1.258 . S
C197 O204 1.247 . S
C197 O205 1.258 . S
O198 C196 1.247 . S
O198 Zn199 2.028 . S
Zn199 O198 2.028 . S
Zn199 O203 2.035 . S
Zn199 O205 2.035 . S
Zn199 O206 2.028 . S
O200 C196 1.258 . S
O200 Zn201 2.035 . S
Zn201 O200 2.035 . S
Zn201 O202 2.028 . S
Zn201 O204 2.028 . S
Zn201 O207 2.035 . S
O202 Zn201 2.028 . S
O202 C208 1.247 . S
O203 Zn199 2.035 . S
O203 C208 1.258 . S
O204 C197 1.247 . S
O204 Zn201 2.028 . S
O205 C197 1.258 . S
O205 Zn199 2.035 . S
O206 Zn199 2.028 . S
O206 C209 1.247 . S
O207 Zn201 2.035 . S
O207 C209 1.258 . S
C208 O202 1.247 . S
C208 O203 1.258 . S
C209 O206 1.247 . S
C209 O207 1.258 . S
C210 O212 1.247 . S
C210 O214 1.258 . S
C211 O218 1.247 . S
C211 O219 1.258 . S
O212 C210 1.247 . S
O212 Zn213 2.028 . S
Zn213 O212 2.028 . S
Zn213 O217 2.035 . S
Zn213 O219 2.035 . S
Zn213 O220 2.028 . S
O214 C210 1.258 . S
O214 Zn215 2.035 . S
Zn215 O214 2.035 . S
Zn215 O216 2.028 . S
Zn215 O218 2.028 . S
Zn215 O221 2.035 . S
O216 Zn215 2.028 . S
O216 C222 1.247 . S
O217 Zn213 2.035 . S
O217 C222 1.258 . S
O218 C211 1.247 . S
O218 Zn215 2.028 . S
O219 C211 1.258 . S
O219 Zn213 2.035 . S
O220 Zn213 2.028 . S
O220 C223 1.247 . S
O221 Zn215 2.035 . S
O221 C223 1.258 . S
C222 O216 1.247 . S
C222 O217 1.258 . S
C223 O220 1.247 . S
C223 O221 1.258 . S
C224 O226 1.247 . S
C224 O228 1.258 . S
C225 O232 1.247 . S
C225 O233 1.258 . S
O226 C224 1.247 . S
O226 Zn227 2.028 . S
Zn227 O226 2.028 . S
Zn227 O231 2.035 . S
Zn227 O233 2.035 . S
Zn227 O234 2.028 . S
O228 C224 1.258 . S
O228 Zn229 2.035 . S
Zn229 O228 2.035 . S
Zn229 O230 2.028 . S
Zn229 O232 2.028 . S
Zn229 O235 2.035 . S
O230 Zn229 2.028 . S
O230 C236 1.247 . S
O231 Zn227 2.035 . S
O231 C236 1.258 . S
O232 C225 1.247 . S
O232 Zn229 2.028 . S
O233 C225 1.258 . S
O233 Zn227 2.035 . S
O234 Zn227 2.028 . S
O234 C237 1.247 . S
O235 Zn229 2.035 . S
O235 C237 1.258 . S
C236 O230 1.247 . S
C236 O231 1.258 . S
C237 O234 1.247 . S
C237 O235 1.258 . S
C238 O240 1.247 . S
C238 O242 1.258 . S
C239 O246 1.247 . S
C239 O247 1.258 . S
O240 C238 1.247 . S
O240 Zn241 2.028 . S
Zn241 O240 2.028 . S
Zn241 O245 2.035 . S
Zn241 O247 2.035 . S
Zn241 O248 2.028 . S
O242 C238 1.258 . S
O242 Zn243 2.035 . S
Zn243 O242 2.035 . S
Zn243 O244 2.028 . S
Zn243 O246 2.028 . S
Zn243 O249 2.035 . S
O244 Zn243 2.028 . S
O244 C250 1.247 . S
O245 Zn241 2.035 . S
O245 C250 1.258 . S
O246 C239 1.247 . S
O246 Zn243 2.028 . S
O247 C239 1.258 . S
O247 Zn241 2.035 . S
O248 Zn241 2.028 . S
O248 C251 1.247 . S
O249 Zn243 2.035 . S
O249 C251 1.258 . S
C250 O244 1.247 . S
C250 O245 1.258 . S
C251 O248 1.247 . S
C251 O249 1.258 . S
C252 O254 1.247 1_556 S
C252 O256 1.258 . S
C253 O260 1.247 . S
C253 O261 1.258 . S
O254 C252 1.247 1_554 S
O254 Zn255 2.028 . S
Zn255 O254 2.028 . S
Zn255 O259 2.035 . S
Zn255 O261 2.035 . S
Zn255 O262 2.028 . S
O256 C252 1.258 . S
O256 Zn257 2.035 1_556 S
Zn257 O256 2.035 1_554 S
Zn257 O258 2.028 . S
Zn257 O260 2.028 . S
Zn257 O263 2.035 . S
O258 Zn257 2.028 . S
O258 C264 1.247 . S
O259 Zn255 2.035 . S
O259 C264 1.258 . S
O260 C253 1.247 . S
O260 Zn257 2.028 . S
O261 C253 1.258 . S
O261 Zn255 2.035 . S
O262 Zn255 2.028 . S
O262 C265 1.247 . S
O263 Zn257 2.035 . S
O263 C265 1.258 . S
C264 O258 1.247 . S
C264 O259 1.258 . S
C265 O262 1.247 . S
C265 O263 1.258 . S
C266 O268 1.247 . S
C266 O270 1.258 . S
C267 O274 1.247 . S
C267 O275 1.258 . S
O268 C266 1.247 . S
O268 Zn269 2.028 . S
Zn269 O268 2.028 . S
Zn269 O273 2.035 . S
Zn269 O275 2.035 . S
Zn269 O276 2.028 . S
O270 C266 1.258 . S
O270 Zn271 2.035 . S
Zn271 O270 2.035 . S
Zn271 O272 2.028 . S
Zn271 O274 2.028 . S
Zn271 O277 2.035 . S
O272 Zn271 2.028 . S
O272 C278 1.247 . S
O273 Zn269 2.035 . S
O273 C278 1.258 . S
O274 C267 1.247 . S
O274 Zn271 2.028 . S
O275 C267 1.258 . S
O275 Zn269 2.035 . S
O276 Zn269 2.028 . S
O276 C279 1.247 . S
O277 Zn271 2.035 . S
O277 C279 1.258 . S
C278 O272 1.247 . S
C278 O273 1.258 . S
C279 O276 1.247 . S
C279 O277 1.258 . S
C280 O282 1.247 . S
C280 O284 1.258 . S
C281 O288 1.247 . S
C281 O289 1.258 . S
O282 C280 1.247 . S
O282 Zn283 2.028 . S
Zn283 O282 2.028 . S
Zn283 O287 2.035 . S
Zn283 O289 2.035 . S
Zn283 O290 2.028 . S
O284 C280 1.258 . S
O284 Zn285 2.035 . S
Zn285 O284 2.035 . S
Zn285 O286 2.028 . S
Zn285 O288 2.028 . S
Zn285 O291 2.035 . S
O286 Zn285 2.028 . S
O286 C292 1.247 . S
O287 Zn283 2.035 . S
O287 C292 1.258 . S
O288 C281 1.247 . S
O288 Zn285 2.028 . S
O289 C281 1.258 . S
O289 Zn283 2.035 . S
O290 Zn283 2.028 . S
O290 C293 1.247 . S
O291 Zn285 2.035 . S
O291 C293 1.258 . S
C292 O286 1.247 . S
C292 O287 1.258 . S
C293 O290 1.247 . S
C293 O291 1.258 . S
C294 O296 1.247 . S
C294 O298 1.258 . S
C295 O302 1.247 . S
C295 O303 1.258 . S
O296 C294 1.247 . S
O296 Zn297 2.028 . S
Zn297 O296 2.028 . S
Zn297 O301 2.035 . S
Zn297 O303 2.035 . S
Zn297 O304 2.028 . S
O298 C294 1.258 . S
O298 Zn299 2.035 . S
Zn299 O298 2.035 . S
Zn299 O300 2.028 . S
Zn299 O302 2.028 . S
Zn299 O305 2.035 . S
O300 Zn299 2.028 . S
O300 C306 1.247 . S
O301 Zn297 2.035 . S
O301 C306 1.258 . S
O302 C295 1.247 . S
O302 Zn299 2.028 . S
O303 C295 1.258 . S
O303 Zn297 2.035 . S
O304 Zn297 2.028 . S
O304 C307 1.247 . S
O305 Zn299 2.035 . S
O305 C307 1.258 . S
C306 O300 1.247 . S
C306 O301 1.258 . S
C307 O304 1.247 . S
C307 O305 1.258 . S
C308 O310 1.247 . S
C308 O312 1.258 . S
C309 O316 1.247 . S
C309 O317 1.258 . S
O310 C308 1.247 . S
O310 Zn311 2.028 . S
Zn311 O310 2.028 . S
Zn311 O315 2.035 . S
Zn311 O317 2.035 . S
Zn311 O318 2.028 . S
O312 C308 1.258 . S
O312 Zn313 2.035 . S
Zn313 O312 2.035 . S
Zn313 O314 2.028 . S
Zn313 O316 2.028 . S
Zn313 O319 2.035 . S
O314 Zn313 2.028 . S
O314 C320 1.247 . S
O315 Zn311 2.035 . S
O315 C320 1.258 . S
O316 C309 1.247 . S
O316 Zn313 2.028 . S
O317 C309 1.258 . S
O317 Zn311 2.035 . S
O318 Zn311 2.028 . S
O318 C321 1.247 1_554 S
O319 Zn313 2.035 . S
O319 C321 1.258 1_554 S
C320 O314 1.247 . S
C320 O315 1.258 . S
C321 O318 1.247 1_556 S
C321 O319 1.258 1_556 S
C322 O324 1.247 . S
C322 O326 1.258 . S
C323 O330 1.247 . S
C323 O331 1.258 . S
O324 C322 1.247 . S
O324 Zn325 2.028 . S
Zn325 O324 2.028 . S
Zn325 O329 2.035 . S
Zn325 O331 2.035 . S
Zn325 O332 2.028 . S
O326 C322 1.258 . S
O326 Zn327 2.035 . S
Zn327 O326 2.035 . S
Zn327 O328 2.028 . S
Zn327 O330 2.028 . S
Zn327 O333 2.035 . S
O328 Zn327 2.028 . S
O328 C334 1.247 . S
O329 Zn325 2.035 . S
O329 C334 1.258 . S
O330 C323 1.247 . S
O330 Zn327 2.028 . S
O331 C323 1.258 . S
O331 Zn325 2.035 . S
O332 Zn325 2.028 . S
O332 C335 1.247 . S
O333 Zn327 2.035 . S
O333 C335 1.258 . S
C334 O328 1.247 . S
C334 O329 1.258 . S
C335 O332 1.247 . S
C335 O333 1.258 . S
H336 C342 0.930 . S
H337 C346 0.930 . S
H338 C351 0.929 . S
H339 C349 0.929 . S
H340 C344 0.929 . S
H341 C350 0.929 . S
C342 H336 0.930 . S
C342 C343 1.367 . S
C342 C350 1.378 . S
C343 C342 1.367 . S
C343 C351 1.433 . S
C344 H340 0.929 . S
C344 C346 1.378 . S
C344 C348 1.350 . S
C345 C348 1.463 . S
C345 C350 1.350 . S
C345 N353 1.427 . S
C346 H337 0.930 . S
C346 C344 1.378 . S
C346 C347 1.367 . S
C347 C346 1.367 . S
C347 C349 1.433 . S
C348 C344 1.350 . S
C348 C345 1.463 . S
C348 N352 1.427 . S
C349 H339 0.929 . S
C349 C347 1.433 . S
C349 N352 1.384 . S
C350 H341 0.929 . S
C350 C342 1.378 . S
C350 C345 1.350 . S
C351 H338 0.929 . S
C351 C343 1.433 . S
C351 N353 1.384 . S
N352 C348 1.427 . S
N352 C349 1.384 . S
N353 C345 1.427 . S
N353 C351 1.384 . S
H354 C360 0.930 . S
H355 C364 0.930 . S
H356 C369 0.929 . S
H357 C367 0.929 . S
H358 C362 0.929 . S
H359 C368 0.929 . S
C360 H354 0.930 . S
C360 C361 1.367 . S
C360 C368 1.378 . S
C361 C360 1.367 . S
C361 C369 1.433 . S
C362 H358 0.929 . S
C362 C364 1.378 . S
C362 C366 1.350 . S
C363 C366 1.463 . S
C363 C368 1.350 . S
C363 N371 1.427 . S
C364 H355 0.930 . S
C364 C362 1.378 . S
C364 C365 1.367 . S
C365 C364 1.367 . S
C365 C367 1.433 . S
C366 C362 1.350 . S
C366 C363 1.463 . S
C366 N370 1.427 . S
C367 H357 0.929 . S
C367 C365 1.433 . S
C367 N370 1.384 . S
C368 H359 0.929 . S
C368 C360 1.378 . S
C368 C363 1.350 . S
C369 H356 0.929 . S
C369 C361 1.433 . S
C369 N371 1.384 . S
N370 C366 1.427 . S
N370 C367 1.384 . S
N371 C363 1.427 . S
N371 C369 1.384 . S
H372 C378 0.930 . S
H373 C382 0.930 . S
H374 C387 0.929 . S
H375 C385 0.929 . S
H376 C380 0.929 . S
H377 C386 0.929 . S
C378 H372 0.930 . S
C378 C379 1.367 . S
C378 C386 1.378 . S
C379 C378 1.367 . S
C379 C387 1.433 . S
C380 H376 0.929 . S
C380 C382 1.378 . S
C380 C384 1.350 . S
C381 C384 1.463 . S
C381 C386 1.350 . S
C381 N389 1.427 . S
C382 H373 0.930 . S
C382 C380 1.378 . S
C382 C383 1.367 . S
C383 C382 1.367 . S
C383 C385 1.433 . S
C384 C380 1.350 . S
C384 C381 1.463 . S
C384 N388 1.427 . S
C385 H375 0.929 . S
C385 C383 1.433 . S
C385 N388 1.384 . S
C386 H377 0.929 . S
C386 C378 1.378 . S
C386 C381 1.350 . S
C387 H374 0.929 . S
C387 C379 1.433 . S
C387 N389 1.384 . S
N388 C384 1.427 . S
N388 C385 1.384 . S
N389 C381 1.427 . S
N389 C387 1.384 . S
H390 C396 0.930 . S
H391 C400 0.930 . S
H392 C405 0.929 . S
H393 C403 0.929 . S
H394 C398 0.929 . S
H395 C404 0.929 . S
C396 H390 0.930 . S
C396 C397 1.367 . S
C396 C404 1.378 . S
C397 C396 1.367 . S
C397 C405 1.433 . S
C398 H394 0.929 . S
C398 C400 1.378 . S
C398 C402 1.350 . S
C399 C402 1.463 . S
C399 C404 1.350 . S
C399 N407 1.427 . S
C400 H391 0.930 . S
C400 C398 1.378 . S
C400 C401 1.367 . S
C401 C400 1.367 . S
C401 C403 1.433 . S
C402 C398 1.350 . S
C402 C399 1.463 . S
C402 N406 1.427 . S
C403 H393 0.929 . S
C403 C401 1.433 . S
C403 N406 1.384 . S
C404 H395 0.929 . S
C404 C396 1.378 . S
C404 C399 1.350 . S
C405 H392 0.929 . S
C405 C397 1.433 . S
C405 N407 1.384 . S
N406 C402 1.427 . S
N406 C403 1.384 . S
N407 C399 1.427 . S
N407 C405 1.384 . S
H408 C414 0.930 . S
H409 C418 0.930 . S
H410 C423 0.929 . S
H411 C421 0.929 . S
H412 C416 0.929 . S
H413 C422 0.929 . S
C414 H408 0.930 . S
C414 C415 1.367 . S
C414 C422 1.378 . S
C415 C414 1.367 . S
C415 C423 1.433 . S
C416 H412 0.929 . S
C416 C418 1.378 . S
C416 C420 1.350 . S
C417 C420 1.463 . S
C417 C422 1.350 . S
C417 N425 1.427 . S
C418 H409 0.930 . S
C418 C416 1.378 . S
C418 C419 1.367 . S
C419 C418 1.367 . S
C419 C421 1.433 . S
C420 C416 1.350 . S
C420 C417 1.463 . S
C420 N424 1.427 . S
C421 H411 0.929 . S
C421 C419 1.433 . S
C421 N424 1.384 . S
C422 H413 0.929 . S
C422 C414 1.378 . S
C422 C417 1.350 . S
C423 H410 0.929 . S
C423 C415 1.433 . S
C423 N425 1.384 . S
N424 C420 1.427 . S
N424 C421 1.384 . S
N425 C417 1.427 . S
N425 C423 1.384 . S
H426 C432 0.930 . S
H427 C436 0.930 . S
H428 C441 0.929 . S
H429 C439 0.929 . S
H430 C434 0.929 . S
H431 C440 0.929 . S
C432 H426 0.930 . S
C432 C433 1.367 . S
C432 C440 1.378 . S
C433 C432 1.367 . S
C433 C441 1.433 . S
C434 H430 0.929 . S
C434 C436 1.378 . S
C434 C438 1.350 . S
C435 C438 1.463 . S
C435 C440 1.350 . S
C435 N443 1.427 . S
C436 H427 0.930 . S
C436 C434 1.378 . S
C436 C437 1.367 . S
C437 C436 1.367 . S
C437 C439 1.433 . S
C438 C434 1.350 . S
C438 C435 1.463 . S
C438 N442 1.427 . S
C439 H429 0.929 . S
C439 C437 1.433 . S
C439 N442 1.384 . S
C440 H431 0.929 . S
C440 C432 1.378 . S
C440 C435 1.350 . S
C441 H428 0.929 . S
C441 C433 1.433 . S
C441 N443 1.384 . S
N442 C438 1.427 . S
N442 C439 1.384 . S
N443 C435 1.427 . S
N443 C441 1.384 . S
H444 C450 0.930 . S
H445 C454 0.930 . S
H446 C459 0.929 . S
H447 C457 0.929 . S
H448 C452 0.929 . S
H449 C458 0.929 . S
C450 H444 0.930 . S
C450 C451 1.367 . S
C450 C458 1.378 . S
C451 C450 1.367 . S
C451 C459 1.433 . S
C452 H448 0.929 . S
C452 C454 1.378 . S
C452 C456 1.350 . S
C453 C456 1.463 . S
C453 C458 1.350 . S
C453 N461 1.427 . S
C454 H445 0.930 . S
C454 C452 1.378 . S
C454 C455 1.367 . S
C455 C454 1.367 . S
C455 C457 1.433 . S
C456 C452 1.350 . S
C456 C453 1.463 . S
C456 N460 1.427 . S
C457 H447 0.929 . S
C457 C455 1.433 . S
C457 N460 1.384 . S
C458 H449 0.929 . S
C458 C450 1.378 . S
C458 C453 1.350 . S
C459 H446 0.929 . S
C459 C451 1.433 . S
C459 N461 1.384 . S
N460 C456 1.427 . S
N460 C457 1.384 . S
N461 C453 1.427 . S
N461 C459 1.384 . S
H462 C468 0.930 . S
H463 C472 0.930 . S
H464 C477 0.929 . S
H465 C475 0.929 . S
H466 C470 0.929 . S
H467 C476 0.929 . S
C468 H462 0.930 . S
C468 C469 1.367 . S
C468 C476 1.378 . S
C469 C468 1.367 . S
C469 C477 1.433 . S
C470 H466 0.929 . S
C470 C472 1.378 . S
C470 C474 1.350 . S
C471 C474 1.463 . S
C471 C476 1.350 . S
C471 N479 1.427 . S
C472 H463 0.930 . S
C472 C470 1.378 . S
C472 C473 1.367 . S
C473 C472 1.367 . S
C473 C475 1.433 . S
C474 C470 1.350 . S
C474 C471 1.463 . S
C474 N478 1.427 . S
C475 H465 0.929 . S
C475 C473 1.433 . S
C475 N478 1.384 . S
C476 H467 0.929 . S
C476 C468 1.378 . S
C476 C471 1.350 . S
C477 H464 0.929 . S
C477 C469 1.433 . S
C477 N479 1.384 . S
N478 C474 1.427 . S
N478 C475 1.384 . S
N479 C471 1.427 . S
N479 C477 1.384 . S
H480 C486 0.930 . S
H481 C490 0.930 . S
H482 C495 0.929 . S
H483 C493 0.929 . S
H484 C488 0.929 . S
H485 C494 0.929 . S
C486 H480 0.930 . S
C486 C487 1.367 . S
C486 C494 1.378 . S
C487 C486 1.367 . S
C487 C495 1.433 . S
C488 H484 0.929 . S
C488 C490 1.378 . S
C488 C492 1.350 . S
C489 C492 1.463 . S
C489 C494 1.350 . S
C489 N497 1.427 . S
C490 H481 0.930 . S
C490 C488 1.378 . S
C490 C491 1.367 . S
C491 C490 1.367 . S
C491 C493 1.433 . S
C492 C488 1.350 . S
C492 C489 1.463 . S
C492 N496 1.427 . S
C493 H483 0.929 . S
C493 C491 1.433 . S
C493 N496 1.384 . S
C494 H485 0.929 . S
C494 C486 1.378 . S
C494 C489 1.350 . S
C495 H482 0.929 . S
C495 C487 1.433 . S
C495 N497 1.384 . S
N496 C492 1.427 . S
N496 C493 1.384 . S
N497 C489 1.427 . S
N497 C495 1.384 . S
H498 C504 0.930 . S
H499 C508 0.930 . S
H500 C513 0.929 . S
H501 C511 0.929 . S
H502 C506 0.929 . S
H503 C512 0.929 . S
C504 H498 0.930 . S
C504 C505 1.367 . S
C504 C512 1.378 . S
C505 C504 1.367 . S
C505 C513 1.433 . S
C506 H502 0.929 . S
C506 C508 1.378 . S
C506 C510 1.350 . S
C507 C510 1.463 . S
C507 C512 1.350 . S
C507 N515 1.427 . S
C508 H499 0.930 . S
C508 C506 1.378 . S
C508 C509 1.367 . S
C509 C508 1.367 . S
C509 C511 1.433 . S
C510 C506 1.350 . S
C510 C507 1.463 . S
C510 N514 1.427 . S
C511 H501 0.929 . S
C511 C509 1.433 . S
C511 N514 1.384 . S
C512 H503 0.929 . S
C512 C504 1.378 . S
C512 C507 1.350 . S
C513 H500 0.929 . S
C513 C505 1.433 . S
C513 N515 1.384 . S
N514 C510 1.427 . S
N514 C511 1.384 . S
N515 C507 1.427 . S
N515 C513 1.384 . S
H516 C522 0.930 . S
H517 C526 0.930 . S
H518 C531 0.929 . S
H519 C529 0.917 1_565 S
H520 C524 0.929 . S
H521 C530 0.929 . S
C522 H516 0.930 . S
C522 C523 1.367 . S
C522 C530 1.378 . S
C523 C522 1.367 . S
C523 C531 1.433 . S
C524 H520 0.929 . S
C524 C526 1.378 . S
C524 C528 1.350 . S
C525 C528 1.463 . S
C525 C530 1.350 . S
C525 N533 1.427 . S
C526 H517 0.930 . S
C526 C524 1.378 . S
C526 C527 1.367 . S
C527 C526 1.367 . S
C527 C529 1.433 . S
C528 C524 1.350 . S
C528 C525 1.463 . S
C528 N532 1.427 . S
C529 H519 0.917 1_545 S
C529 C527 1.433 . S
C529 N532 1.384 . S
C530 H521 0.929 . S
C530 C522 1.378 . S
C530 C525 1.350 . S
C531 H518 0.929 . S
C531 C523 1.433 . S
C531 N533 1.384 . S
N532 C528 1.427 . S
N532 C529 1.384 . S
N533 C525 1.427 . S
N533 C531 1.384 . S
H534 C540 0.930 . S
H535 C544 0.930 . S
H536 C549 0.929 . S
H537 C547 0.929 . S
H538 C542 0.929 . S
H539 C548 0.929 . S
C540 H534 0.930 . S
C540 C541 1.367 . S
C540 C548 1.378 . S
C541 C540 1.367 . S
C541 C549 1.433 . S
C542 H538 0.929 . S
C542 C544 1.378 . S
C542 C546 1.350 . S
C543 C546 1.463 . S
C543 C548 1.350 . S
C543 N551 1.427 . S
C544 H535 0.930 . S
C544 C542 1.378 . S
C544 C545 1.367 . S
C545 C544 1.367 . S
C545 C547 1.433 . S
C546 C542 1.350 . S
C546 C543 1.463 . S
C546 N550 1.427 . S
C547 H537 0.929 . S
C547 C545 1.433 . S
C547 N550 1.384 . S
C548 H539 0.929 . S
C548 C540 1.378 . S
C548 C543 1.350 . S
C549 H536 0.929 . S
C549 C541 1.433 . S
C549 N551 1.384 . S
N550 C546 1.427 . S
N550 C547 1.384 . S
N551 C543 1.427 . S
N551 C549 1.384 . S
H552 C558 0.930 . S
H553 C562 0.930 . S
H554 C567 0.929 . S
H555 C565 0.929 . S
H556 C560 0.929 . S
H557 C566 0.929 . S
C558 H552 0.930 . S
C558 C559 1.367 . S
C558 C566 1.378 . S
C559 C558 1.367 . S
C559 C567 1.433 . S
C560 H556 0.929 . S
C560 C562 1.378 . S
C560 C564 1.350 . S
C561 C564 1.463 . S
C561 C566 1.350 . S
C561 N569 1.427 . S
C562 H553 0.930 . S
C562 C560 1.378 . S
C562 C563 1.367 . S
C563 C562 1.367 . S
C563 C565 1.433 . S
C564 C560 1.350 . S
C564 C561 1.463 . S
C564 N568 1.427 . S
C565 H555 0.929 . S
C565 C563 1.433 . S
C565 N568 1.384 . S
C566 H557 0.929 . S
C566 C558 1.378 . S
C566 C561 1.350 . S
C567 H554 0.929 . S
C567 C559 1.433 . S
C567 N569 1.384 . S
N568 C564 1.427 . S
N568 C565 1.384 . S
N569 C561 1.427 . S
N569 C567 1.384 . S
H570 C576 0.930 . S
H571 C580 0.930 . S
H572 C585 0.929 . S
H573 C583 0.929 . S
H574 C578 0.929 . S
H575 C584 0.929 . S
C576 H570 0.930 . S
C576 C577 1.367 . S
C576 C584 1.378 . S
C577 C576 1.367 . S
C577 C585 1.433 . S
C578 H574 0.929 . S
C578 C580 1.378 . S
C578 C582 1.350 . S
C579 C582 1.463 . S
C579 C584 1.350 . S
C579 N587 1.427 . S
C580 H571 0.930 . S
C580 C578 1.378 . S
C580 C581 1.367 . S
C581 C580 1.367 . S
C581 C583 1.433 . S
C582 C578 1.350 . S
C582 C579 1.463 . S
C582 N586 1.427 . S
C583 H573 0.929 . S
C583 C581 1.433 . S
C583 N586 1.384 . S
C584 H575 0.929 . S
C584 C576 1.378 . S
C584 C579 1.350 . S
C585 H572 0.929 . S
C585 C577 1.433 . S
C585 N587 1.384 . S
N586 C582 1.427 . S
N586 C583 1.384 . S
N587 C579 1.427 . S
N587 C585 1.384 . S
H588 C594 0.930 . S
H589 C598 0.930 . S
H590 C603 0.929 . S
H591 C601 0.929 . S
H592 C596 0.929 . S
H593 C602 0.929 . S
C594 H588 0.930 . S
C594 C595 1.367 . S
C594 C602 1.378 . S
C595 C594 1.367 . S
C595 C603 1.433 . S
C596 H592 0.929 . S
C596 C598 1.378 . S
C596 C600 1.350 . S
C597 C600 1.463 . S
C597 C602 1.350 . S
C597 N605 1.427 . S
C598 H589 0.930 . S
C598 C596 1.378 . S
C598 C599 1.367 . S
C599 C598 1.367 . S
C599 C601 1.433 . S
C600 C596 1.350 . S
C600 C597 1.463 . S
C600 N604 1.427 . S
C601 H591 0.929 . S
C601 C599 1.433 . S
C601 N604 1.384 . S
C602 H593 0.929 . S
C602 C594 1.378 . S
C602 C597 1.350 . S
C603 H590 0.929 . S
C603 C595 1.433 . S
C603 N605 1.384 . S
N604 C600 1.427 . S
N604 C601 1.384 . S
N605 C597 1.427 . S
N605 C603 1.384 . S
H606 C612 0.930 . S
H607 C616 0.930 . S
H608 C621 0.929 . S
H609 C619 0.929 . S
H610 C614 0.929 . S
H611 C620 0.929 . S
C612 H606 0.930 . S
C612 C613 1.367 . S
C612 C620 1.378 . S
C613 C612 1.367 . S
C613 C621 1.433 . S
C614 H610 0.929 . S
C614 C616 1.378 . S
C614 C618 1.350 . S
C615 C618 1.463 . S
C615 C620 1.350 . S
C615 N623 1.427 . S
C616 H607 0.930 . S
C616 C614 1.378 . S
C616 C617 1.367 . S
C617 C616 1.367 . S
C617 C619 1.433 . S
C618 C614 1.350 . S
C618 C615 1.463 . S
C618 N622 1.427 . S
C619 H609 0.929 . S
C619 C617 1.433 . S
C619 N622 1.384 . S
C620 H611 0.929 . S
C620 C612 1.378 . S
C620 C615 1.350 . S
C621 H608 0.929 . S
C621 C613 1.433 . S
C621 N623 1.384 . S
N622 C618 1.427 . S
N622 C619 1.384 . S
N623 C615 1.427 . S
N623 C621 1.384 . S
H624 C630 0.930 . S
H625 C634 0.930 . S
H626 C639 0.929 . S
H627 C637 0.929 . S
H628 C632 0.929 . S
H629 C638 0.929 . S
C630 H624 0.930 . S
C630 C631 1.367 . S
C630 C638 1.378 . S
C631 C630 1.367 . S
C631 C639 1.433 . S
C632 H628 0.929 . S
C632 C634 1.378 . S
C632 C636 1.350 . S
C633 C636 1.463 . S
C633 C638 1.350 . S
C633 N641 1.427 . S
C634 H625 0.930 . S
C634 C632 1.378 . S
C634 C635 1.367 . S
C635 C634 1.367 . S
C635 C637 1.433 . S
C636 C632 1.350 . S
C636 C633 1.463 . S
C636 N640 1.427 . S
C637 H627 0.929 . S
C637 C635 1.433 . S
C637 N640 1.384 . S
C638 H629 0.929 . S
C638 C630 1.378 . S
C638 C633 1.350 . S
C639 H626 0.929 . S
C639 C631 1.433 . S
C639 N641 1.384 . S
N640 C636 1.427 . S
N640 C637 1.384 . S
N641 C633 1.427 . S
N641 C639 1.384 . S
H642 C648 0.930 . S
H643 C652 0.930 . S
H644 C657 0.929 . S
H645 C655 0.929 . S
H646 C650 0.929 . S
H647 C656 0.929 . S
C648 H642 0.930 . S
C648 C649 1.367 . S
C648 C656 1.378 . S
C649 C648 1.367 . S
C649 C657 1.433 . S
C650 H646 0.929 . S
C650 C652 1.378 . S
C650 C654 1.350 . S
C651 C654 1.463 . S
C651 C656 1.350 . S
C651 N659 1.427 . S
C652 H643 0.930 . S
C652 C650 1.378 . S
C652 C653 1.367 . S
C653 C652 1.367 . S
C653 C655 1.433 . S
C654 C650 1.350 . S
C654 C651 1.463 . S
C654 N658 1.427 . S
C655 H645 0.929 . S
C655 C653 1.433 . S
C655 N658 1.384 . S
C656 H647 0.929 . S
C656 C648 1.378 . S
C656 C651 1.350 . S
C657 H644 0.929 . S
C657 C649 1.433 . S
C657 N659 1.384 . S
N658 C654 1.427 . S
N658 C655 1.384 . S
N659 C651 1.427 . S
N659 C657 1.384 . S
H660 C666 0.930 . S
H661 C670 0.930 . S
H662 C675 0.929 . S
H663 C673 0.929 . S
H664 C668 0.929 . S
H665 C674 0.929 . S
C666 H660 0.930 . S
C666 C667 1.367 . S
C666 C674 1.378 . S
C667 C666 1.367 . S
C667 C675 1.433 . S
C668 H664 0.929 . S
C668 C670 1.378 . S
C668 C672 1.350 . S
C669 C672 1.463 . S
C669 C674 1.350 . S
C669 N677 1.427 . S
C670 H661 0.930 . S
C670 C668 1.378 . S
C670 C671 1.367 . S
C671 C670 1.367 . S
C671 C673 1.433 . S
C672 C668 1.350 . S
C672 C669 1.463 . S
C672 N676 1.427 . S
C673 H663 0.929 . S
C673 C671 1.433 . S
C673 N676 1.384 . S
C674 H665 0.929 . S
C674 C666 1.378 . S
C674 C669 1.350 . S
C675 H662 0.929 . S
C675 C667 1.433 . S
C675 N677 1.384 . S
N676 C672 1.427 . S
N676 C673 1.384 . S
N677 C669 1.427 . S
N677 C675 1.384 . S
H678 C684 0.930 . S
H679 C688 0.930 . S
H680 C693 0.929 . S
H681 C691 0.929 . S
H682 C686 0.929 . S
H683 C692 0.929 . S
C684 H678 0.930 . S
C684 C685 1.367 . S
C684 C692 1.378 . S
C685 C684 1.367 . S
C685 C693 1.433 . S
C686 H682 0.929 . S
C686 C688 1.378 . S
C686 C690 1.350 . S
C687 C690 1.463 . S
C687 C692 1.350 . S
C687 N695 1.427 . S
C688 H679 0.930 . S
C688 C686 1.378 . S
C688 C689 1.367 . S
C689 C688 1.367 . S
C689 C691 1.433 . S
C690 C686 1.350 . S
C690 C687 1.463 . S
C690 N694 1.427 . S
C691 H681 0.929 . S
C691 C689 1.433 . S
C691 N694 1.384 . S
C692 H683 0.929 . S
C692 C684 1.378 . S
C692 C687 1.350 . S
C693 H680 0.929 . S
C693 C685 1.433 . S
C693 N695 1.384 . S
N694 C690 1.427 . S
N694 C691 1.384 . S
N695 C687 1.427 . S
N695 C693 1.384 . S
H696 C702 0.930 . S
H697 C706 0.930 . S
H698 C711 0.929 . S
H699 C709 0.929 . S
H700 C704 0.929 . S
H701 C710 0.929 . S
C702 H696 0.930 . S
C702 C703 1.367 . S
C702 C710 1.378 . S
C703 C702 1.367 . S
C703 C711 1.433 . S
C704 H700 0.929 . S
C704 C706 1.378 . S
C704 C708 1.350 . S
C705 C708 1.463 . S
C705 C710 1.350 . S
C705 N713 1.427 . S
C706 H697 0.930 . S
C706 C704 1.378 . S
C706 C707 1.367 . S
C707 C706 1.367 . S
C707 C709 1.433 . S
C708 C704 1.350 . S
C708 C705 1.463 . S
C708 N712 1.427 . S
C709 H699 0.929 . S
C709 C707 1.433 . S
C709 N712 1.384 . S
C710 H701 0.929 . S
C710 C702 1.378 . S
C710 C705 1.350 . S
C711 H698 0.929 . S
C711 C703 1.433 . S
C711 N713 1.384 . S
N712 C708 1.427 . S
N712 C709 1.384 . S
N713 C705 1.427 . S
N713 C711 1.384 . S
H714 C720 0.930 . S
H715 C724 0.930 . S
H716 C729 0.929 . S
H717 C727 0.929 . S
H718 C722 0.929 . S
H719 C728 0.929 . S
C720 H714 0.930 . S
C720 C721 1.367 . S
C720 C728 1.378 . S
C721 C720 1.367 . S
C721 C729 1.433 . S
C722 H718 0.929 . S
C722 C724 1.378 . S
C722 C726 1.350 . S
C723 C726 1.463 . S
C723 C728 1.350 . S
C723 N731 1.427 . S
C724 H715 0.930 . S
C724 C722 1.378 . S
C724 C725 1.367 . S
C725 C724 1.367 . S
C725 C727 1.433 . S
C726 C722 1.350 . S
C726 C723 1.463 . S
C726 N730 1.427 . S
C727 H717 0.929 . S
C727 C725 1.433 . S
C727 N730 1.384 . S
C728 H719 0.929 . S
C728 C720 1.378 . S
C728 C723 1.350 . S
C729 H716 0.929 . S
C729 C721 1.433 . S
C729 N731 1.384 . S
N730 C726 1.427 . S
N730 C727 1.384 . S
N731 C723 1.427 . S
N731 C729 1.384 . S
H732 C738 0.930 1_556 S
H733 C742 0.930 . S
H734 C747 0.929 . S
H735 C745 0.929 . S
H736 C740 0.929 . S
H737 C746 0.929 1_556 S
C738 H732 0.930 1_554 S
C738 C739 1.367 . S
C738 C746 1.378 . S
C739 C738 1.367 . S
C739 C747 1.433 . S
C740 H736 0.929 . S
C740 C742 1.378 . S
C740 C744 1.350 . S
C741 C744 1.463 . S
C741 C746 1.350 . S
C741 N749 1.427 . S
C742 H733 0.930 . S
C742 C740 1.378 . S
C742 C743 1.367 . S
C743 C742 1.367 . S
C743 C745 1.433 1_554 S
C744 C740 1.350 . S
C744 C741 1.463 . S
C744 N748 1.427 1_554 S
C745 H735 0.929 . S
C745 C743 1.433 1_556 S
C745 N748 1.384 . S
C746 H737 0.929 1_554 S
C746 C738 1.378 . S
C746 C741 1.350 . S
C747 H734 0.929 . S
C747 C739 1.433 . S
C747 N749 1.384 . S
N748 C744 1.427 1_556 S
N748 C745 1.384 . S
N749 C741 1.427 . S
N749 C747 1.384 . S
H750 C756 0.930 . S
H751 C760 0.930 . S
H752 C765 0.929 . S
H753 C763 0.929 . S
H754 C758 0.929 . S
H755 C764 0.929 . S
C756 H750 0.930 . S
C756 C757 1.367 . S
C756 C764 1.378 . S
C757 C756 1.367 . S
C757 C765 1.433 . S
C758 H754 0.929 . S
C758 C760 1.378 . S
C758 C762 1.350 . S
C759 C762 1.463 . S
C759 C764 1.350 . S
C759 N767 1.427 . S
C760 H751 0.930 . S
C760 C758 1.378 . S
C760 C761 1.367 . S
C761 C760 1.367 . S
C761 C763 1.433 . S
C762 C758 1.350 . S
C762 C759 1.463 . S
C762 N766 1.427 . S
C763 H753 0.929 . S
C763 C761 1.433 . S
C763 N766 1.384 . S
C764 H755 0.929 . S
C764 C756 1.378 . S
C764 C759 1.350 . S
C765 H752 0.929 . S
C765 C757 1.433 . S
C765 N767 1.384 . S
N766 C762 1.427 . S
N766 C763 1.384 . S
N767 C759 1.427 . S
N767 C765 1.384 . S
H768 C774 0.930 . S
H769 C778 0.930 . S
H770 C783 0.929 . S
H771 C781 0.929 . S
H772 C776 0.929 . S
H773 C782 0.929 . S
C774 H768 0.930 . S
C774 C775 1.367 . S
C774 C782 1.378 . S
C775 C774 1.367 . S
C775 C783 1.433 . S
C776 H772 0.929 . S
C776 C778 1.378 . S
C776 C780 1.350 . S
C777 C780 1.463 . S
C777 C782 1.350 . S
C777 N785 1.427 . S
C778 H769 0.930 . S
C778 C776 1.378 . S
C778 C779 1.367 . S
C779 C778 1.367 . S
C779 C781 1.433 . S
C780 C776 1.350 . S
C780 C777 1.463 . S
C780 N784 1.427 . S
C781 H771 0.929 . S
C781 C779 1.433 . S
C781 N784 1.384 . S
C782 H773 0.929 . S
C782 C774 1.378 . S
C782 C777 1.350 . S
C783 H770 0.929 . S
C783 C775 1.433 . S
C783 N785 1.384 . S
N784 C780 1.427 . S
N784 C781 1.384 . S
N785 C777 1.427 . S
N785 C783 1.384 . S
H786 C792 0.930 . S
H787 C796 0.930 . S
H788 C801 0.929 . S
H789 C799 0.929 . S
H790 C794 0.929 . S
H791 C800 0.929 . S
C792 H786 0.930 . S
C792 C793 1.367 . S
C792 C800 1.378 . S
C793 C792 1.367 . S
C793 C801 1.433 . S
C794 H790 0.929 . S
C794 C796 1.378 . S
C794 C798 1.350 . S
C795 C798 1.463 . S
C795 C800 1.350 . S
C795 N803 1.427 . S
C796 H787 0.930 . S
C796 C794 1.378 . S
C796 C797 1.367 . S
C797 C796 1.367 . S
C797 C799 1.433 . S
C798 C794 1.350 . S
C798 C795 1.463 . S
C798 N802 1.427 . S
C799 H789 0.929 . S
C799 C797 1.433 . S
C799 N802 1.384 . S
C800 H791 0.929 . S
C800 C792 1.378 . S
C800 C795 1.350 . S
C801 H788 0.929 . S
C801 C793 1.433 . S
C801 N803 1.384 . S
N802 C798 1.427 . S
N802 C799 1.384 . S
N803 C795 1.427 . S
N803 C801 1.384 . S
H804 C810 0.930 . S
H805 C814 0.930 . S
H806 C819 0.929 . S
H807 C817 0.929 . S
H808 C812 0.929 . S
H809 C818 0.929 . S
C810 H804 0.930 . S
C810 C811 1.367 . S
C810 C818 1.378 . S
C811 C810 1.367 . S
C811 C819 1.433 . S
C812 H808 0.929 . S
C812 C814 1.378 . S
C812 C816 1.350 . S
C813 C816 1.463 . S
C813 C818 1.350 . S
C813 N821 1.427 . S
C814 H805 0.930 . S
C814 C812 1.378 . S
C814 C815 1.367 . S
C815 C814 1.367 . S
C815 C817 1.433 . S
C816 C812 1.350 . S
C816 C813 1.463 . S
C816 N820 1.427 . S
C817 H807 0.929 . S
C817 C815 1.433 . S
C817 N820 1.384 . S
C818 H809 0.929 . S
C818 C810 1.378 . S
C818 C813 1.350 . S
C819 H806 0.929 . S
C819 C811 1.433 . S
C819 N821 1.384 . S
N820 C816 1.427 . S
N820 C817 1.384 . S
N821 C813 1.427 . S
N821 C819 1.384 . S
H822 C828 0.930 . S
H823 C832 0.930 . S
H824 C837 0.929 . S
H825 C835 0.929 . S
H826 C830 0.944 . S
H827 C836 0.929 . S
C828 H822 0.930 . S
C828 C829 1.367 . S
C828 C836 1.378 1_554 S
C829 C828 1.367 . S
C829 C837 1.433 . S
C830 H826 0.944 . S
C830 C832 1.369 1_554 S
C830 C834 1.343 1_554 S
C831 C834 1.463 1_554 S
C831 C836 1.350 1_554 S
C831 N839 1.427 . S
C832 H823 0.930 . S
C832 C830 1.369 1_556 S
C832 C833 1.367 . S
C833 C832 1.367 . S
C833 C835 1.433 . S
C834 C830 1.343 1_556 S
C834 C831 1.463 1_556 S
C834 N838 1.427 . S
C835 H825 0.929 . S
C835 C833 1.433 . S
C835 N838 1.384 . S
C836 H827 0.929 . S
C836 C828 1.378 1_556 S
C836 C831 1.350 1_556 S
C837 H824 0.929 . S
C837 C829 1.433 . S
C837 N839 1.384 . S
N838 C834 1.427 . S
N838 C835 1.384 . S
N839 C831 1.427 . S
N839 C837 1.384 . S
H840 C846 0.930 . S
H841 C850 0.930 . S
H842 C855 0.929 . S
H843 C853 0.929 . S
H844 C848 0.929 . S
H845 C854 0.929 . S
C846 H840 0.930 . S
C846 C847 1.367 . S
C846 C854 1.378 . S
C847 C846 1.367 . S
C847 C855 1.433 . S
C848 H844 0.929 . S
C848 C850 1.378 . S
C848 C852 1.350 . S
C849 C852 1.463 . S
C849 C854 1.350 . S
C849 N857 1.427 . S
C850 H841 0.930 . S
C850 C848 1.378 . S
C850 C851 1.367 . S
C851 C850 1.367 . S
C851 C853 1.433 . S
C852 C848 1.350 . S
C852 C849 1.463 . S
C852 N856 1.427 . S
C853 H843 0.929 . S
C853 C851 1.433 . S
C853 N856 1.384 . S
C854 H845 0.929 . S
C854 C846 1.378 . S
C854 C849 1.350 . S
C855 H842 0.929 . S
C855 C847 1.433 . S
C855 N857 1.384 . S
N856 C852 1.427 . S
N856 C853 1.384 . S
N857 C849 1.427 . S
N857 C855 1.384 . S
H858 C864 0.930 . S
H859 C868 0.930 . S
H860 C873 0.929 . S
H861 C871 0.929 1_565 S
H862 C866 0.929 . S
H863 C872 0.929 . S
C864 H858 0.930 . S
C864 C865 1.367 . S
C864 C872 1.378 . S
C865 C864 1.367 . S
C865 C873 1.433 . S
C866 H862 0.929 . S
C866 C868 1.378 . S
C866 C870 1.350 . S
C867 C870 1.463 1_565 S
C867 C872 1.350 . S
C867 N875 1.427 1_565 S
C868 H859 0.930 . S
C868 C866 1.378 . S
C868 C869 1.367 . S
C869 C868 1.367 . S
C869 C871 1.433 . S
C870 C866 1.350 . S
C870 C867 1.463 1_545 S
C870 N874 1.427 1_545 S
C871 H861 0.929 1_545 S
C871 C869 1.433 . S
C871 N874 1.384 1_545 S
C872 H863 0.929 . S
C872 C864 1.378 . S
C872 C867 1.350 . S
C873 H860 0.929 . S
C873 C865 1.433 . S
C873 N875 1.384 1_565 S
N874 C870 1.427 1_565 S
N874 C871 1.384 1_565 S
N875 C867 1.427 1_545 S
N875 C873 1.384 1_545 S
H876 C882 0.930 . S
H877 C886 0.930 . S
H878 C891 0.929 . S
H879 C889 0.929 . S
H880 C884 0.929 . S
H881 C890 0.929 . S
C882 H876 0.930 . S
C882 C883 1.367 . S
C882 C890 1.378 . S
C883 C882 1.367 . S
C883 C891 1.433 . S
C884 H880 0.929 . S
C884 C886 1.378 . S
C884 C888 1.350 . S
C885 C888 1.463 . S
C885 C890 1.350 . S
C885 N893 1.427 . S
C886 H877 0.930 . S
C886 C884 1.378 . S
C886 C887 1.367 . S
C887 C886 1.367 . S
C887 C889 1.433 . S
C888 C884 1.350 . S
C888 C885 1.463 . S
C888 N892 1.427 . S
C889 H879 0.929 . S
C889 C887 1.433 . S
C889 N892 1.384 . S
C890 H881 0.929 . S
C890 C882 1.378 . S
C890 C885 1.350 . S
C891 H878 0.929 . S
C891 C883 1.433 . S
C891 N893 1.384 . S
N892 C888 1.427 . S
N892 C889 1.384 . S
N893 C885 1.427 . S
N893 C891 1.384 . S
H894 C900 0.930 . S
H895 C904 0.930 1_545 S
H896 C909 0.929 . S
H897 C907 0.929 . S
H898 C902 0.929 . S
H899 C908 0.929 . S
C900 H894 0.930 . S
C900 C901 1.367 . S
C900 C908 1.378 . S
C901 C900 1.367 . S
C901 C909 1.433 . S
C902 H898 0.929 . S
C902 C904 1.378 . S
C902 C906 1.350 . S
C903 C906 1.463 . S
C903 C908 1.350 . S
C903 N911 1.427 . S
C904 H895 0.930 1_565 S
C904 C902 1.378 . S
C904 C905 1.367 . S
C905 C904 1.367 . S
C905 C907 1.433 . S
C906 C902 1.350 . S
C906 C903 1.463 . S
C906 N910 1.427 . S
C907 H897 0.929 . S
C907 C905 1.433 . S
C907 N910 1.384 . S
C908 H899 0.929 . S
C908 C900 1.378 . S
C908 C903 1.350 . S
C909 H896 0.929 . S
C909 C901 1.433 . S
C909 N911 1.384 . S
N910 C906 1.427 . S
N910 C907 1.384 . S
N911 C903 1.427 . S
N911 C909 1.384 . S
H912 C918 0.930 . S
H913 C922 0.930 . S
H914 C927 0.929 . S
H915 C925 0.929 . S
H916 C920 0.929 . S
H917 C926 0.929 . S
C918 H912 0.930 . S
C918 C919 1.367 . S
C918 C926 1.378 . S
C919 C918 1.367 . S
C919 C927 1.433 . S
C920 H916 0.929 . S
C920 C922 1.378 . S
C920 C924 1.350 . S
C921 C924 1.463 . S
C921 C926 1.350 . S
C921 N929 1.427 . S
C922 H913 0.930 . S
C922 C920 1.378 . S
C922 C923 1.367 . S
C923 C922 1.367 . S
C923 C925 1.433 . S
C924 C920 1.350 . S
C924 C921 1.463 . S
C924 N928 1.427 . S
C925 H915 0.929 . S
C925 C923 1.433 . S
C925 N928 1.384 . S
C926 H917 0.929 . S
C926 C918 1.378 . S
C926 C921 1.350 . S
C927 H914 0.929 . S
C927 C919 1.433 . S
C927 N929 1.384 . S
N928 C924 1.427 . S
N928 C925 1.384 . S
N929 C921 1.427 . S
N929 C927 1.384 . S
H930 C936 0.930 . S
H931 C940 0.930 . S
H932 C945 0.929 . S
H933 C943 0.929 . S
H934 C938 0.929 . S
H935 C944 0.929 . S
C936 H930 0.930 . S
C936 C937 1.367 . S
C936 C944 1.378 . S
C937 C936 1.367 . S
C937 C945 1.433 . S
C938 H934 0.929 . S
C938 C940 1.378 . S
C938 C942 1.350 . S
C939 C942 1.463 . S
C939 C944 1.350 . S
C939 N947 1.427 . S
C940 H931 0.930 . S
C940 C938 1.378 . S
C940 C941 1.367 . S
C941 C940 1.367 . S
C941 C943 1.433 . S
C942 C938 1.350 . S
C942 C939 1.463 . S
C942 N946 1.427 . S
C943 H933 0.929 . S
C943 C941 1.433 . S
C943 N946 1.384 . S
C944 H935 0.929 . S
C944 C936 1.378 . S
C944 C939 1.350 . S
C945 H932 0.929 . S
C945 C937 1.433 . S
C945 N947 1.384 . S
N946 C942 1.427 . S
N946 C943 1.384 . S
N947 C939 1.427 . S
N947 C945 1.384 . S
H948 C954 0.930 . S
H949 C958 0.930 . S
H950 C963 0.929 1_655 S
H951 C961 0.929 . S
H952 C956 0.929 . S
H953 C962 0.929 . S
C954 H948 0.930 . S
C954 C955 1.367 . S
C954 C962 1.378 . S
C955 C954 1.367 . S
C955 C963 1.433 . S
C956 H952 0.929 . S
C956 C958 1.378 . S
C956 C960 1.350 . S
C957 C960 1.463 1_455 S
C957 C962 1.350 . S
C957 N965 1.427 1_455 S
C958 H949 0.930 . S
C958 C956 1.378 . S
C958 C959 1.367 . S
C959 C958 1.367 . S
C959 C961 1.433 . S
C960 C956 1.350 . S
C960 C957 1.463 1_655 S
C960 N964 1.427 1_655 S
C961 H951 0.929 . S
C961 C959 1.433 . S
C961 N964 1.384 1_655 S
C962 H953 0.929 . S
C962 C954 1.378 . S
C962 C957 1.350 . S
C963 H950 0.929 1_455 S
C963 C955 1.433 . S
C963 N965 1.384 1_455 S
N964 C960 1.427 1_455 S
N964 C961 1.384 1_455 S
N965 C957 1.427 1_655 S
N965 C963 1.384 1_655 S
H966 C972 0.930 . S
H967 C976 0.930 . S
H968 C981 0.929 . S
H969 C979 0.929 . S
H970 C974 0.929 . S
H971 C980 0.929 . S
C972 H966 0.930 . S
C972 C973 1.367 . S
C972 C980 1.378 . S
C973 C972 1.367 . S
C973 C981 1.433 . S
C974 H970 0.929 . S
C974 C976 1.378 . S
C974 C978 1.350 . S
C975 C978 1.463 . S
C975 C980 1.350 . S
C975 N983 1.427 . S
C976 H967 0.930 . S
C976 C974 1.378 . S
C976 C977 1.367 . S
C977 C976 1.367 . S
C977 C979 1.433 . S
C978 C974 1.350 . S
C978 C975 1.463 . S
C978 N982 1.427 . S
C979 H969 0.929 . S
C979 C977 1.433 . S
C979 N982 1.384 . S
C980 H971 0.929 . S
C980 C972 1.378 . S
C980 C975 1.350 . S
C981 H968 0.929 . S
C981 C973 1.433 . S
C981 N983 1.384 . S
N982 C978 1.427 . S
N982 C979 1.384 . S
N983 C975 1.427 . S
N983 C981 1.384 . S
H984 C990 0.930 . S
H985 C994 0.930 . S
H986 C999 0.929 . S
H987 C997 0.929 . S
H988 C992 0.929 . S
H989 C998 0.929 . S
C990 H984 0.930 . S
C990 C991 1.367 . S
C990 C998 1.378 . S
C991 C990 1.367 . S
C991 C999 1.433 . S
C992 H988 0.929 . S
C992 C994 1.378 . S
C992 C996 1.350 . S
C993 C996 1.463 . S
C993 C998 1.350 . S
C993 N1001 1.427 . S
C994 H985 0.930 . S
C994 C992 1.378 . S
C994 C995 1.367 . S
C995 C994 1.367 . S
C995 C997 1.433 . S
C996 C992 1.350 . S
C996 C993 1.463 . S
C996 N1000 1.427 . S
C997 H987 0.929 . S
C997 C995 1.433 . S
C997 N1000 1.384 . S
C998 H989 0.929 . S
C998 C990 1.378 . S
C998 C993 1.350 . S
C999 H986 0.929 . S
C999 C991 1.433 . S
C999 N1001 1.384 . S
N1000 C996 1.427 . S
N1000 C997 1.384 . S
N1001 C993 1.427 . S
N1001 C999 1.384 . S
H1002 C1008 0.930 . S
H1003 C1012 0.930 . S
H1004 C1017 0.929 . S
H1005 C1015 0.929 . S
H1006 C1010 0.929 . S
H1007 C1016 0.929 . S
C1008 H1002 0.930 . S
C1008 C1009 1.367 . S
C1008 C1016 1.378 . S
C1009 C1008 1.367 . S
C1009 C1017 1.433 . S
C1010 H1006 0.929 . S
C1010 C1012 1.378 . S
C1010 C1014 1.350 . S
C1011 C1014 1.463 . S
C1011 C1016 1.350 . S
C1011 N1019 1.427 . S
C1012 H1003 0.930 . S
C1012 C1010 1.378 . S
C1012 C1013 1.367 . S
C1013 C1012 1.367 . S
C1013 C1015 1.433 . S
C1014 C1010 1.350 . S
C1014 C1011 1.463 . S
C1014 N1018 1.427 . S
C1015 H1005 0.929 . S
C1015 C1013 1.433 . S
C1015 N1018 1.384 . S
C1016 H1007 0.929 . S
C1016 C1008 1.378 . S
C1016 C1011 1.350 . S
C1017 H1004 0.929 . S
C1017 C1009 1.433 . S
C1017 N1019 1.384 . S
N1018 C1014 1.427 . S
N1018 C1015 1.384 . S
N1019 C1011 1.427 . S
N1019 C1017 1.384 . S
H1020 C1026 0.930 . S
H1021 C1030 0.930 . S
H1022 C1035 0.929 . S
H1023 C1033 0.929 . S
H1024 C1028 0.929 . S
H1025 C1034 0.929 . S
C1026 H1020 0.930 . S
C1026 C1027 1.367 . S
C1026 C1034 1.378 . S
C1027 C1026 1.367 . S
C1027 C1035 1.433 . S
C1028 H1024 0.929 . S
C1028 C1030 1.378 . S
C1028 C1032 1.350 . S
C1029 C1032 1.463 . S
C1029 C1034 1.350 . S
C1029 N1037 1.427 . S
C1030 H1021 0.930 . S
C1030 C1028 1.378 . S
C1030 C1031 1.367 . S
C1031 C1030 1.367 . S
C1031 C1033 1.433 . S
C1032 C1028 1.350 . S
C1032 C1029 1.463 . S
C1032 N1036 1.427 . S
C1033 H1023 0.929 . S
C1033 C1031 1.433 . S
C1033 N1036 1.384 . S
C1034 H1025 0.929 . S
C1034 C1026 1.378 . S
C1034 C1029 1.350 . S
C1035 H1022 0.929 . S
C1035 C1027 1.433 . S
C1035 N1037 1.384 . S
N1036 C1032 1.427 . S
N1036 C1033 1.384 . S
N1037 C1029 1.427 . S
N1037 C1035 1.384 . S
H1038 C1044 0.930 . S
H1039 C1048 0.930 . S
H1040 C1053 0.929 . S
H1041 C1051 0.929 . S
H1042 C1046 0.929 . S
H1043 C1052 0.929 . S
C1044 H1038 0.930 . S
C1044 C1045 1.367 . S
C1044 C1052 1.378 . S
C1045 C1044 1.367 . S
C1045 C1053 1.433 . S
C1046 H1042 0.929 . S
C1046 C1048 1.378 . S
C1046 C1050 1.350 . S
C1047 C1050 1.463 . S
C1047 C1052 1.350 . S
C1047 N1055 1.427 . S
C1048 H1039 0.930 . S
C1048 C1046 1.378 . S
C1048 C1049 1.367 . S
C1049 C1048 1.367 . S
C1049 C1051 1.433 . S
C1050 C1046 1.350 . S
C1050 C1047 1.463 . S
C1050 N1054 1.427 . S
C1051 H1041 0.929 . S
C1051 C1049 1.433 . S
C1051 N1054 1.384 . S
C1052 H1043 0.929 . S
C1052 C1044 1.378 . S
C1052 C1047 1.350 . S
C1053 H1040 0.929 . S
C1053 C1045 1.433 . S
C1053 N1055 1.384 . S
N1054 C1050 1.427 . S
N1054 C1051 1.384 . S
N1055 C1047 1.427 . S
N1055 C1053 1.384 . S
H1056 C1062 0.930 . S
H1057 C1066 0.930 1_554 S
H1058 C1071 0.929 . S
H1059 C1069 0.929 . S
H1060 C1064 0.929 . S
H1061 C1070 0.929 . S
C1062 H1056 0.930 . S
C1062 C1063 1.367 . S
C1062 C1070 1.378 . S
C1063 C1062 1.367 . S
C1063 C1071 1.433 . S
C1064 H1060 0.929 . S
C1064 C1066 1.378 . S
C1064 C1068 1.350 . S
C1065 C1068 1.463 . S
C1065 C1070 1.350 . S
C1065 N1073 1.427 . S
C1066 H1057 0.930 1_556 S
C1066 C1064 1.378 . S
C1066 C1067 1.367 . S
C1067 C1066 1.367 . S
C1067 C1069 1.433 . S
C1068 C1064 1.350 . S
C1068 C1065 1.463 . S
C1068 N1072 1.427 . S
C1069 H1059 0.929 . S
C1069 C1067 1.433 . S
C1069 N1072 1.384 . S
C1070 H1061 0.929 . S
C1070 C1062 1.378 . S
C1070 C1065 1.350 . S
C1071 H1058 0.929 . S
C1071 C1063 1.433 . S
C1071 N1073 1.384 . S
N1072 C1068 1.427 . S
N1072 C1069 1.384 . S
N1073 C1065 1.427 . S
N1073 C1071 1.384 . S
H1074 C1080 0.930 . S
H1075 C1084 0.930 . S
H1076 C1089 0.929 . S
H1077 C1087 0.929 . S
H1078 C1082 0.929 . S
H1079 C1088 0.929 . S
C1080 H1074 0.930 . S
C1080 C1081 1.367 . S
C1080 C1088 1.378 . S
C1081 C1080 1.367 . S
C1081 C1089 1.433 . S
C1082 H1078 0.929 . S
C1082 C1084 1.378 . S
C1082 C1086 1.350 . S
C1083 C1086 1.463 . S
C1083 C1088 1.350 . S
C1083 N1091 1.427 . S
C1084 H1075 0.930 . S
C1084 C1082 1.378 . S
C1084 C1085 1.367 . S
C1085 C1084 1.367 . S
C1085 C1087 1.433 . S
C1086 C1082 1.350 . S
C1086 C1083 1.463 . S
C1086 N1090 1.427 . S
C1087 H1077 0.929 . S
C1087 C1085 1.433 . S
C1087 N1090 1.384 . S
C1088 H1079 0.929 . S
C1088 C1080 1.378 . S
C1088 C1083 1.350 . S
C1089 H1076 0.929 . S
C1089 C1081 1.433 . S
C1089 N1091 1.384 . S
N1090 C1086 1.427 . S
N1090 C1087 1.384 . S
N1091 C1083 1.427 . S
N1091 C1089 1.384 . S
H1092 C1098 0.930 . S
H1093 C1102 0.930 . S
H1094 C1107 0.929 . S
H1095 C1105 0.929 . S
H1096 C1100 0.929 . S
H1097 C1106 0.929 . S
C1098 H1092 0.930 . S
C1098 C1099 1.367 . S
C1098 C1106 1.378 . S
C1099 C1098 1.367 . S
C1099 C1107 1.433 . S
C1100 H1096 0.929 . S
C1100 C1102 1.378 . S
C1100 C1104 1.350 . S
C1101 C1104 1.463 . S
C1101 C1106 1.350 . S
C1101 N1109 1.427 . S
C1102 H1093 0.930 . S
C1102 C1100 1.378 . S
C1102 C1103 1.367 . S
C1103 C1102 1.367 . S
C1103 C1105 1.433 . S
C1104 C1100 1.350 . S
C1104 C1101 1.463 . S
C1104 N1108 1.427 . S
C1105 H1095 0.929 . S
C1105 C1103 1.433 . S
C1105 N1108 1.384 . S
C1106 H1097 0.929 . S
C1106 C1098 1.378 . S
C1106 C1101 1.350 . S
C1107 H1094 0.929 . S
C1107 C1099 1.433 . S
C1107 N1109 1.384 . S
N1108 C1104 1.427 . S
N1108 C1105 1.384 . S
N1109 C1101 1.427 . S
N1109 C1107 1.384 . S
H1110 C1116 0.930 . S
H1111 C1120 0.930 . S
H1112 C1125 0.929 . S
H1113 C1123 0.929 . S
H1114 C1118 0.929 . S
H1115 C1124 0.929 . S
C1116 H1110 0.930 . S
C1116 C1117 1.367 . S
C1116 C1124 1.378 . S
C1117 C1116 1.367 . S
C1117 C1125 1.433 . S
C1118 H1114 0.929 . S
C1118 C1120 1.378 . S
C1118 C1122 1.350 . S
C1119 C1122 1.463 . S
C1119 C1124 1.350 . S
C1119 N1127 1.427 . S
C1120 H1111 0.930 . S
C1120 C1118 1.378 . S
C1120 C1121 1.367 . S
C1121 C1120 1.367 . S
C1121 C1123 1.433 . S
C1122 C1118 1.350 . S
C1122 C1119 1.463 . S
C1122 N1126 1.427 . S
C1123 H1113 0.929 . S
C1123 C1121 1.433 . S
C1123 N1126 1.384 . S
C1124 H1115 0.929 . S
C1124 C1116 1.378 . S
C1124 C1119 1.350 . S
C1125 H1112 0.929 . S
C1125 C1117 1.433 . S
C1125 N1127 1.384 . S
N1126 C1122 1.427 . S
N1126 C1123 1.384 . S
N1127 C1119 1.427 . S
N1127 C1125 1.384 . S
H1128 C1134 0.930 . S
H1129 C1138 0.930 . S
H1130 C1143 0.929 . S
H1131 C1141 0.929 . S
H1132 C1136 0.929 . S
H1133 C1142 0.929 . S
C1134 H1128 0.930 . S
C1134 C1135 1.367 . S
C1134 C1142 1.378 . S
C1135 C1134 1.367 . S
C1135 C1143 1.433 . S
C1136 H1132 0.929 . S
C1136 C1138 1.378 . S
C1136 C1140 1.350 . S
C1137 C1140 1.463 . S
C1137 C1142 1.350 . S
C1137 N1145 1.427 . S
C1138 H1129 0.930 . S
C1138 C1136 1.378 . S
C1138 C1139 1.367 . S
C1139 C1138 1.367 . S
C1139 C1141 1.433 . S
C1140 C1136 1.350 . S
C1140 C1137 1.463 . S
C1140 N1144 1.427 . S
C1141 H1131 0.929 . S
C1141 C1139 1.433 . S
C1141 N1144 1.384 . S
C1142 H1133 0.929 . S
C1142 C1134 1.378 . S
C1142 C1137 1.350 . S
C1143 H1130 0.929 . S
C1143 C1135 1.433 . S
C1143 N1145 1.384 . S
N1144 C1140 1.427 . S
N1144 C1141 1.384 . S
N1145 C1137 1.427 . S
N1145 C1143 1.384 . S
H1146 C1152 0.930 . S
H1147 C1156 0.930 . S
H1148 C1161 0.929 . S
H1149 C1159 0.929 . S
H1150 C1154 0.929 . S
H1151 C1160 0.929 . S
C1152 H1146 0.930 . S
C1152 C1153 1.367 . S
C1152 C1160 1.378 . S
C1153 C1152 1.367 . S
C1153 C1161 1.433 . S
C1154 H1150 0.929 . S
C1154 C1156 1.378 . S
C1154 C1158 1.350 . S
C1155 C1158 1.463 . S
C1155 C1160 1.350 . S
C1155 N1163 1.427 . S
C1156 H1147 0.930 . S
C1156 C1154 1.378 . S
C1156 C1157 1.367 . S
C1157 C1156 1.367 . S
C1157 C1159 1.433 . S
C1158 C1154 1.350 . S
C1158 C1155 1.463 . S
C1158 N1162 1.427 . S
C1159 H1149 0.929 . S
C1159 C1157 1.433 . S
C1159 N1162 1.384 . S
C1160 H1151 0.929 . S
C1160 C1152 1.378 . S
C1160 C1155 1.350 . S
C1161 H1148 0.929 . S
C1161 C1153 1.433 . S
C1161 N1163 1.384 . S
N1162 C1158 1.427 . S
N1162 C1159 1.384 . S
N1163 C1155 1.427 . S
N1163 C1161 1.384 . S
H1164 C1170 0.930 . S
H1165 C1174 0.930 . S
H1166 C1179 0.929 . S
H1167 C1177 0.929 . S
H1168 C1172 0.929 . S
H1169 C1178 0.929 . S
C1170 H1164 0.930 . S
C1170 C1171 1.367 . S
C1170 C1178 1.378 . S
C1171 C1170 1.367 . S
C1171 C1179 1.433 . S
C1172 H1168 0.929 . S
C1172 C1174 1.378 . S
C1172 C1176 1.350 . S
C1173 C1176 1.463 . S
C1173 C1178 1.350 . S
C1173 N1181 1.427 . S
C1174 H1165 0.930 . S
C1174 C1172 1.378 . S
C1174 C1175 1.367 . S
C1175 C1174 1.367 . S
C1175 C1177 1.433 . S
C1176 C1172 1.350 . S
C1176 C1173 1.463 . S
C1176 N1180 1.427 . S
C1177 H1167 0.929 . S
C1177 C1175 1.433 . S
C1177 N1180 1.384 . S
C1178 H1169 0.929 . S
C1178 C1170 1.378 . S
C1178 C1173 1.350 . S
C1179 H1166 0.929 . S
C1179 C1171 1.433 . S
C1179 N1181 1.384 . S
N1180 C1176 1.427 . S
N1180 C1177 1.384 . S
N1181 C1173 1.427 . S
N1181 C1179 1.384 . S
H1182 C1188 0.930 . S
H1183 C1192 0.930 . S
H1184 C1197 0.929 . S
H1185 C1195 0.929 . S
H1186 C1190 0.929 . S
H1187 C1196 0.929 . S
C1188 H1182 0.930 . S
C1188 C1189 1.367 . S
C1188 C1196 1.378 . S
C1189 C1188 1.367 . S
C1189 C1197 1.433 . S
C1190 H1186 0.929 . S
C1190 C1192 1.378 . S
C1190 C1194 1.350 . S
C1191 C1194 1.463 . S
C1191 C1196 1.350 . S
C1191 N1199 1.427 . S
C1192 H1183 0.930 . S
C1192 C1190 1.378 . S
C1192 C1193 1.367 . S
C1193 C1192 1.367 . S
C1193 C1195 1.433 . S
C1194 C1190 1.350 . S
C1194 C1191 1.463 . S
C1194 N1198 1.427 . S
C1195 H1185 0.929 . S
C1195 C1193 1.433 . S
C1195 N1198 1.384 . S
C1196 H1187 0.929 . S
C1196 C1188 1.378 . S
C1196 C1191 1.350 . S
C1197 H1184 0.929 . S
C1197 C1189 1.433 . S
C1197 N1199 1.384 . S
N1198 C1194 1.427 . S
N1198 C1195 1.384 . S
N1199 C1191 1.427 . S
N1199 C1197 1.384 . S
C343 C99 1.388 . S
C347 C1 1.304 . S
C361 C15 1.067 . S
C365 C56 1.037 . S
C379 C83 1.342 . S
C383 C29 1.241 . S
C397 C55 0.750 . S
C401 C85 0.755 . S
C415 C124 1.267 . S
C419 C13 1.331 . S
C433 C27 0.668 . S
C437 C126 0.689 . S
C451 C152 1.153 . S
C455 C41 1.204 . S
C469 C154 0.967 . S
C473 C43 0.960 . S
C487 C68 1.038 . S
C491 C138 1.037 . S
C505 C71 0.788 . S
C509 C140 0.786 . S
C523 C166 1.110 . S
C527 C97 1.109 . S
C541 C112 1.240 . S
C545 C111 1.192 . S
C559 C294 1.114 . S
C563 C169 1.075 . S
C577 C194 0.816 . S
C581 C320 0.813 . S
C595 C197 1.124 . S
C599 C322 1.205 . S
C613 C334 0.870 . S
C617 C222 0.884 . S
C631 C236 1.286 . S
C635 C306 1.229 . S
C649 C279 1.005 . S
C653 C238 0.994 . S
C667 C181 0.933 . S
C671 C224 0.874 . S
C685 C182 0.980 . S
C689 C253 0.995 . S
C703 C209 1.234 . S
C707 C210 1.171 . S
C721 C250 1.062 . S
C725 C292 1.074 . S
C739 C265 0.988 . S
C743 C308 0.989 . S
C757 C280 0.944 . S
C761 C267 0.960 . S
C775 C57 2.749 1_545 S
C779 C0 2.681 . S
C793 C82 2.068 . S
C797 C14 2.011 . S
C811 C84 2.844 . S
C815 C28 2.820 . S
C829 C98 2.362 . S
C833 C54 2.317 . S
C847 C125 2.495 . S
C851 C167 2.557 1_554 S
C865 C127 2.548 . S
C869 C113 2.600 . S
C883 C153 2.363 . S
C887 C139 2.396 . S
C901 C141 1.948 . S
C905 C155 1.931 . S
C919 C264 2.784 1_455 S
C923 C110 2.719 . S
C937 C168 2.594 . S
C941 C42 2.629 . S
C955 C12 2.388 . S
C959 C195 2.343 . S
C973 C26 2.883 . S
C977 C196 2.860 . S
C991 C70 2.500 . S
C995 C266 2.588 . S
C1009 C69 1.740 . S
C1013 C223 1.752 . S
C1027 C96 2.054 . S
C1031 C237 2.120 . S
C1045 C225 2.460 . S
C1049 C239 2.552 . S
C1063 C180 1.716 . S
C1067 C252 1.709 . S
C1081 C211 2.567 . S
C1085 C183 2.602 . S
C1099 C278 1.882 . S
C1103 C208 1.969 . S
C1117 C293 2.380 . S
C1121 C335 2.291 . S
C1135 C281 2.112 . S
C1139 C295 2.205 . S
C1153 C321 2.693 . S
C1157 C307 2.677 . S
C1171 C323 2.283 . S
C1175 C309 2.225 . S
C1189 C40 2.020 . S
C1193 C251 1.930 . S
