# Generated by pormake.
# Topology umd, (4)-cn, num edge types: 1
# Building blocks:
#     Node 0, Type 0, BuildingBlock: NAWXER_clean_sbu_0, # of connection points: 4
#     Node 1, Type 0, BuildingBlock: NAWXER_clean_sbu_0, # of connection points: 4
#     Node 2, Type 0, BuildingBlock: NAWXER_clean_sbu_0, # of connection points: 4
#     Node 3, Type 0, BuildingBlock: NAWXER_clean_sbu_0, # of connection points: 4
#     Node 4, Type 0, BuildingBlock: NAWXER_clean_sbu_0, # of connection points: 4
#     Node 5, Type 0, BuildingBlock: NAWXER_clean_sbu_0, # of connection points: 4
#     Node 6, Type 0, BuildingBlock: NAWXER_clean_sbu_0, # of connection points: 4
#     Node 7, Type 0, BuildingBlock: NAWXER_clean_sbu_0, # of connection points: 4
#     Node 8, Type 0, BuildingBlock: NAWXER_clean_sbu_0, # of connection points: 4
#     Node 9, Type 0, BuildingBlock: NAWXER_clean_sbu_0, # of connection points: 4
#     Node 10, Type 0, BuildingBlock: NAWXER_clean_sbu_0, # of connection points: 4
#     Node 11, Type 0, BuildingBlock: NAWXER_clean_sbu_0, # of connection points: 4
#     Node 12, Type 0, BuildingBlock: NAWXER_clean_sbu_0, # of connection points: 4
#     Node 13, Type 0, BuildingBlock: NAWXER_clean_sbu_0, # of connection points: 4
#     Node 14, Type 0, BuildingBlock: NAWXER_clean_sbu_0, # of connection points: 4
#     Node 15, Type 0, BuildingBlock: NAWXER_clean_sbu_0, # of connection points: 4
#     Edge 16, Type (0, 0), BuildingBlock: CIFDUS_clean_linker_0, # of connection points: 2
#     Edge 17, Type (0, 0), BuildingBlock: CIFDUS_clean_linker_0, # of connection points: 2
#     Edge 18, Type (0, 0), BuildingBlock: CIFDUS_clean_linker_0, # of connection points: 2
#     Edge 19, Type (0, 0), BuildingBlock: CIFDUS_clean_linker_0, # of connection points: 2
#     Edge 20, Type (0, 0), BuildingBlock: CIFDUS_clean_linker_0, # of connection points: 2
#     Edge 21, Type (0, 0), BuildingBlock: CIFDUS_clean_linker_0, # of connection points: 2
#     Edge 22, Type (0, 0), BuildingBlock: CIFDUS_clean_linker_0, # of connection points: 2
#     Edge 23, Type (0, 0), BuildingBlock: CIFDUS_clean_linker_0, # of connection points: 2
#     Edge 24, Type (0, 0), BuildingBlock: CIFDUS_clean_linker_0, # of connection points: 2
#     Edge 25, Type (0, 0), BuildingBlock: CIFDUS_clean_linker_0, # of connection points: 2
#     Edge 26, Type (0, 0), BuildingBlock: CIFDUS_clean_linker_0, # of connection points: 2
#     Edge 27, Type (0, 0), BuildingBlock: CIFDUS_clean_linker_0, # of connection points: 2
#     Edge 28, Type (0, 0), BuildingBlock: CIFDUS_clean_linker_0, # of connection points: 2
#     Edge 29, Type (0, 0), BuildingBlock: CIFDUS_clean_linker_0, # of connection points: 2
#     Edge 30, Type (0, 0), BuildingBlock: CIFDUS_clean_linker_0, # of connection points: 2
#     Edge 31, Type (0, 0), BuildingBlock: CIFDUS_clean_linker_0, # of connection points: 2
#     Edge 32, Type (0, 0), BuildingBlock: CIFDUS_clean_linker_0, # of connection points: 2
#     Edge 33, Type (0, 0), BuildingBlock: CIFDUS_clean_linker_0, # of connection points: 2
#     Edge 34, Type (0, 0), BuildingBlock: CIFDUS_clean_linker_0, # of connection points: 2
#     Edge 35, Type (0, 0), BuildingBlock: CIFDUS_clean_linker_0, # of connection points: 2
#     Edge 36, Type (0, 0), BuildingBlock: CIFDUS_clean_linker_0, # of connection points: 2
#     Edge 37, Type (0, 0), BuildingBlock: CIFDUS_clean_linker_0, # of connection points: 2
#     Edge 38, Type (0, 0), BuildingBlock: CIFDUS_clean_linker_0, # of connection points: 2
#     Edge 39, Type (0, 0), BuildingBlock: CIFDUS_clean_linker_0, # of connection points: 2
#     Edge 40, Type (0, 0), BuildingBlock: CIFDUS_clean_linker_0, # of connection points: 2
#     Edge 41, Type (0, 0), BuildingBlock: CIFDUS_clean_linker_0, # of connection points: 2
#     Edge 42, Type (0, 0), BuildingBlock: CIFDUS_clean_linker_0, # of connection points: 2
#     Edge 43, Type (0, 0), BuildingBlock: CIFDUS_clean_linker_0, # of connection points: 2
#     Edge 44, Type (0, 0), BuildingBlock: CIFDUS_clean_linker_0, # of connection points: 2
#     Edge 45, Type (0, 0), BuildingBlock: CIFDUS_clean_linker_0, # of connection points: 2
#     Edge 46, Type (0, 0), BuildingBlock: CIFDUS_clean_linker_0, # of connection points: 2
#     Edge 47, Type (0, 0), BuildingBlock: CIFDUS_clean_linker_0, # of connection points: 2
# Relax obj value: 0.021
# Max RMSD: 0.190
# Mean RMSD: 0.190
data_MOF--net-umd--node1-NAWXER_clean_sbu_0--edge1-CIFDUS_clean_linker_0
_symmetry_space_group_name_H-M    P1
_symmetry_Int_Tables_number       1
_symmetry_cell_setting            triclinic
loop_
_symmetry_equiv_pos_as_xyz
'x, y, z'
_cell_length_a     35.333588
_cell_length_b     35.242745
_cell_length_c     50.525356
_cell_angle_alpha  90.162722
_cell_angle_beta   90.036423
_cell_angle_gamma 89.730471
loop_
_atom_site_label
_atom_site_type_symbol
_atom_site_fract_x
_atom_site_fract_y
_atom_site_fract_z
_atom_type_partial_charge
C0 C 0.10429 0.45813 0.14231 0.0
C1 C 0.21272 0.3731 0.14874 0.0
O2 O 0.10492 0.42287 0.14737 0.0
Zn3 Zn 0.15887 0.41634 0.14575 0.0
O4 O 0.13555 0.4756 0.13823 0.0
Zn5 Zn 0.19528 0.46148 0.13728 0.0
O6 O 0.20881 0.47414 0.10143 0.0
O7 O 0.1701 0.42544 0.10414 0.0
O8 O 0.22313 0.40712 0.14339 0.0
O9 O 0.17782 0.36617 0.15188 0.0
O10 O 0.17789 0.44808 0.17997 0.0
O11 O 0.21476 0.49355 0.16496 0.0
C12 C 0.18948 0.44856 0.09003 0.0
C13 C 0.1988 0.47715 0.18427 0.0
C14 C 0.53653 0.20782 0.59027 0.0
C15 C 0.53172 0.20961 0.68632 0.0
O16 O 0.51287 0.22502 0.605 0.0
Zn17 Zn 0.53422 0.20939 0.63833 0.0
O18 O 0.56349 0.18861 0.60083 0.0
Zn19 Zn 0.58299 0.17449 0.63984 0.0
O20 O 0.5789 0.11993 0.64014 0.0
O21 O 0.52371 0.14928 0.63826 0.0
O22 O 0.56006 0.19052 0.67757 0.0
O23 O 0.50887 0.2252 0.67022 0.0
O24 O 0.58741 0.23945 0.63983 0.0
O25 O 0.63259 0.19606 0.64105 0.0
C26 C 0.54302 0.11838 0.63902 0.0
C27 C 0.62271 0.23075 0.64085 0.0
C28 C 0.80519 0.53679 0.19178 0.0
C29 C 0.80078 0.54162 0.09546 0.0
O30 O 0.78683 0.51592 0.17584 0.0
Zn31 Zn 0.80264 0.54031 0.14372 0.0
O32 O 0.8256 0.56386 0.18275 0.0
Zn33 Zn 0.84032 0.58582 0.14408 0.0
O34 O 0.82348 0.63727 0.14576 0.0
O35 O 0.77644 0.59641 0.14574 0.0
O36 O 0.82248 0.56734 0.1051 0.0
O37 O 0.78344 0.51958 0.11108 0.0
O38 O 0.86212 0.52485 0.14239 0.0
O39 O 0.89401 0.57843 0.14286 0.0
C40 C 0.78821 0.63088 0.14636 0.0
C41 C 0.89386 0.54244 0.14223 0.0
C42 C 0.46519 0.81468 0.58808 0.0
C43 C 0.47193 0.81486 0.68417 0.0
O44 O 0.488 0.79684 0.60301 0.0
Zn45 Zn 0.46794 0.81467 0.63621 0.0
O46 O 0.43955 0.83589 0.59846 0.0
Zn47 Zn 0.42198 0.85216 0.63778 0.0
O48 O 0.42863 0.90589 0.63783 0.0
O49 O 0.48258 0.87439 0.63595 0.0
O50 O 0.44448 0.8355 0.67575 0.0
O51 O 0.49311 0.79757 0.66779 0.0
O52 O 0.4123 0.78803 0.63812 0.0
O53 O 0.37108 0.83518 0.63933 0.0
C54 C 0.46449 0.90606 0.63673 0.0
C55 C 0.37782 0.79981 0.63917 0.0
C56 C 0.19264 0.5321 0.33746 0.0
C57 C 0.18534 0.56349 0.43125 0.0
O58 O 0.2067 0.51481 0.35716 0.0
Zn59 Zn 0.18932 0.54923 0.38416 0.0
O60 O 0.17373 0.56284 0.34118 0.0
Zn61 Zn 0.15647 0.59642 0.37516 0.0
O62 O 0.17728 0.64445 0.36821 0.0
O63 O 0.22095 0.60154 0.37724 0.0
O64 O 0.16744 0.58791 0.41707 0.0
O65 O 0.20246 0.5362 0.41994 0.0
O66 O 0.12834 0.54009 0.38358 0.0
O67 O 0.10279 0.59535 0.37344 0.0
C68 C 0.21184 0.63584 0.37124 0.0
C69 C 0.09886 0.56063 0.37918 0.0
C70 C 0.46574 0.19635 0.93233 0.0
C71 C 0.46625 0.19852 0.83652 0.0
O72 O 0.49029 0.21015 0.91683 0.0
Zn73 Zn 0.46572 0.19641 0.88442 0.0
O74 O 0.43647 0.17985 0.92267 0.0
Zn75 Zn 0.41418 0.16743 0.88377 0.0
O76 O 0.41215 0.11302 0.88299 0.0
O77 O 0.47035 0.13517 0.88391 0.0
O78 O 0.43651 0.18207 0.84535 0.0
O79 O 0.49101 0.21065 0.8526 0.0
O80 O 0.4155 0.23221 0.88437 0.0
O81 O 0.36676 0.19332 0.88399 0.0
C82 C 0.44755 0.1069 0.88336 0.0
C83 C 0.37955 0.22692 0.88418 0.0
C84 C 0.81829 0.45021 0.43612 0.0
C85 C 0.81544 0.45991 0.33996 0.0
O86 O 0.80193 0.47463 0.42162 0.0
Zn87 Zn 0.817 0.45415 0.38787 0.0
O88 O 0.83691 0.42303 0.42517 0.0
Zn89 Zn 0.84995 0.40531 0.38513 0.0
O90 O 0.90368 0.40612 0.38442 0.0
O91 O 0.87793 0.46306 0.38745 0.0
O92 O 0.8339 0.43039 0.34752 0.0
O93 O 0.80108 0.48205 0.35711 0.0
O94 O 0.7854 0.40103 0.38495 0.0
O95 O 0.82914 0.35629 0.3829 0.0
C96 C 0.9075 0.44177 0.38605 0.0
C97 C 0.79451 0.36574 0.38312 0.0
C98 C 0.54521 0.81995 0.83316 0.0
C99 C 0.54837 0.81725 0.92905 0.0
O100 O 0.52217 0.8052 0.84932 0.0
Zn101 Zn 0.54797 0.81942 0.88104 0.0
O102 O 0.57431 0.83768 0.84195 0.0
Zn103 Zn 0.59698 0.8514 0.88078 0.0
O104 O 0.64604 0.82981 0.87962 0.0
O105 O 0.60095 0.78681 0.87928 0.0
O106 O 0.57645 0.83608 0.91981 0.0
O107 O 0.52486 0.80251 0.91314 0.0
O108 O 0.53929 0.88081 0.88214 0.0
O109 O 0.5965 0.90529 0.88147 0.0
C110 C 0.63633 0.79527 0.87882 0.0
C111 C 0.56095 0.91001 0.88215 0.0
C112 C 0.80575 0.54403 0.93697 0.0
C113 C 0.79733 0.51412 0.84237 0.0
O114 O 0.82287 0.56803 0.92224 0.0
Zn115 Zn 0.83279 0.57749 0.88086 0.0
O116 O 0.78832 0.51647 0.92627 0.0
Zn117 Zn 0.7999 0.52913 0.88974 0.0
O118 O 0.86021 0.52008 0.88827 0.0
O119 O 0.8872 0.57474 0.87887 0.0
O120 O 0.78299 0.49582 0.86153 0.0
O121 O 0.81575 0.54468 0.84703 0.0
O122 O 0.80921 0.62567 0.87503 0.0
O123 O 0.76783 0.58078 0.88381 0.0
C124 C 0.89016 0.53956 0.88393 0.0
C125 C 0.77512 0.61559 0.87847 0.0
C126 C 0.47979 0.80842 0.336 0.0
C127 C 0.45374 0.82189 0.43016 0.0
O128 O 0.44802 0.82512 0.3402 0.0
Zn129 Zn 0.41568 0.84311 0.37417 0.0
O130 O 0.50013 0.79828 0.35548 0.0
Zn131 Zn 0.46666 0.81545 0.38308 0.0
O132 O 0.41782 0.77855 0.37911 0.0
O133 O 0.36969 0.81627 0.36976 0.0
O134 O 0.48223 0.80655 0.41907 0.0
O135 O 0.42741 0.83632 0.41581 0.0
O136 O 0.41255 0.89703 0.37038 0.0
O137 O 0.47009 0.87672 0.37982 0.0
C138 C 0.38249 0.78313 0.37393 0.0
C139 C 0.44709 0.90418 0.37495 0.0
C140 C 0.19475 0.46495 0.93208 0.0
C141 C 0.19619 0.47135 0.83556 0.0
O142 O 0.17394 0.43938 0.92141 0.0
Zn143 Zn 0.1581 0.42221 0.8819 0.0
O144 O 0.21213 0.48825 0.91736 0.0
Zn145 Zn 0.1949 0.46838 0.8838 0.0
O146 O 0.13518 0.48308 0.88376 0.0
O147 O 0.10463 0.4288 0.8817 0.0
O148 O 0.21263 0.49294 0.85207 0.0
O149 O 0.17552 0.4441 0.84398 0.0
O150 O 0.17514 0.37119 0.88053 0.0
O151 O 0.22183 0.41248 0.88234 0.0
C152 C 0.10389 0.46473 0.88288 0.0
C153 C 0.21035 0.37793 0.88121 0.0
C154 C 0.5455 0.18797 0.43303 0.0
C155 C 0.52188 0.20142 0.33899 0.0
O156 O 0.57191 0.17281 0.41909 0.0
Zn157 Zn 0.58428 0.16515 0.37763 0.0
O158 O 0.51738 0.20331 0.42156 0.0
Zn159 Zn 0.53379 0.19372 0.38594 0.0
O160 O 0.52901 0.13241 0.38233 0.0
O161 O 0.58654 0.11137 0.37374 0.0
O162 O 0.50132 0.21181 0.3583 0.0
O163 O 0.55322 0.18403 0.34337 0.0
O164 O 0.63104 0.1905 0.37402 0.0
O165 O 0.58375 0.2296 0.38284 0.0
C166 C 0.55179 0.10467 0.37767 0.0
C167 C 0.61912 0.22397 0.37827 0.0
C168 C 0.81712 0.46876 0.68832 0.0
C169 C 0.83217 0.4416 0.5942 0.0
O170 O 0.83662 0.43839 0.68461 0.0
Zn171 Zn 0.85772 0.40714 0.65068 0.0
O172 O 0.80531 0.48739 0.66849 0.0
Zn173 Zn 0.8255 0.45489 0.64126 0.0
O174 O 0.79391 0.40214 0.64541 0.0
O175 O 0.83626 0.35823 0.65527 0.0
O176 O 0.81458 0.46887 0.60524 0.0
O177 O 0.84929 0.41699 0.60867 0.0
O178 O 0.91144 0.40953 0.65438 0.0
O179 O 0.88606 0.46468 0.64395 0.0
C180 C 0.80213 0.36738 0.65068 0.0
C181 C 0.91545 0.44443 0.64911 0.0
C182 C 0.61851 0.78207 0.14489 0.0
C183 C 0.54195 0.8982 0.14387 0.0
O184 O 0.58361 0.77597 0.13934 0.0
Zn185 Zn 0.5324 0.80846 0.13421 0.0
O186 O 0.62953 0.81584 0.14916 0.0
Zn187 Zn 0.58119 0.84069 0.14422 0.0
O188 O 0.54896 0.82025 0.17716 0.0
O189 O 0.49972 0.78884 0.1616 0.0
O190 O 0.57726 0.89531 0.14839 0.0
O191 O 0.52288 0.86832 0.13843 0.0
O192 O 0.52 0.79949 0.09733 0.0
O193 O 0.57171 0.83341 0.10273 0.0
C194 C 0.51866 0.80123 0.18118 0.0
C195 C 0.54772 0.81733 0.08737 0.0
C196 C 0.19542 0.54839 0.58919 0.0
C197 C 0.19976 0.54145 0.68567 0.0
O198 O 0.17908 0.57693 0.60022 0.0
Zn199 Zn 0.16772 0.59652 0.63993 0.0
O200 O 0.20994 0.5227 0.60362 0.0
Zn201 Zn 0.19745 0.5448 0.63753 0.0
O202 O 0.13664 0.53985 0.63904 0.0
O203 O 0.11322 0.59784 0.64123 0.0
O204 O 0.21236 0.51756 0.66895 0.0
O205 O 0.18308 0.57168 0.67754 0.0
O206 O 0.19347 0.64411 0.64097 0.0
O207 O 0.2325 0.59517 0.63871 0.0
C208 C 0.10796 0.56224 0.64047 0.0
C209 C 0.22706 0.6312 0.63997 0.0
C210 C 0.46536 0.11226 0.14573 0.0
C211 C 0.3868 0.22696 0.1468 0.0
O212 O 0.48423 0.14243 0.14085 0.0
Zn213 Zn 0.47377 0.20228 0.1372 0.0
O214 O 0.42996 0.11474 0.14993 0.0
Zn215 Zn 0.4254 0.16925 0.14629 0.0
O216 O 0.4359 0.17732 0.10498 0.0
O217 O 0.48739 0.21196 0.10089 0.0
O218 O 0.37652 0.19296 0.1509 0.0
O219 O 0.42167 0.23386 0.14166 0.0
O220 O 0.50547 0.22235 0.16491 0.0
O221 O 0.4565 0.18995 0.17974 0.0
C222 C 0.46023 0.19394 0.09027 0.0
C223 C 0.48636 0.20951 0.18417 0.0
H224 H 0.03298 0.42925 0.14517 0.0
H225 H 0.09392 0.53452 0.13715 0.0
H226 H 0.03434 0.56968 0.13613 0.0
H227 H 0.96506 0.57079 0.13805 0.0
H228 H 0.90386 0.46563 0.1456 0.0
H229 H 0.96344 0.43027 0.14618 0.0
C230 C 0.03325 0.45988 0.14319 0.0
C231 C 0.06793 0.47917 0.14132 0.0
C232 C 0.99884 0.48 0.14252 0.0
C233 C 0.06769 0.51888 0.13863 0.0
C234 C 0.03361 0.53907 0.13806 0.0
C235 C 0.96469 0.54013 0.13979 0.0
C236 C 0.92999 0.52095 0.14185 0.0
C237 C 0.99904 0.51994 0.14007 0.0
C238 C 0.93012 0.48117 0.14397 0.0
C239 C 0.96421 0.46089 0.14435 0.0
H240 H 0.43439 0.97703 0.63727 0.0
H241 H 0.54119 0.91705 0.63619 0.0
H242 H 0.57506 0.97737 0.63684 0.0
H243 H 0.57425 0.04728 0.63797 0.0
H244 H 0.46693 0.1065 0.63891 0.0
H245 H 0.43351 0.04629 0.63808 0.0
C246 C 0.46508 0.97705 0.63715 0.0
C247 C 0.48517 0.94252 0.6367 0.0
C248 C 0.48435 0.01175 0.63754 0.0
C249 C 0.52497 0.9432 0.63652 0.0
C250 C 0.54438 0.97769 0.63692 0.0
C251 C 0.54356 0.04701 0.63801 0.0
C252 C 0.52321 0.08144 0.63853 0.0
C253 C 0.52435 0.01216 0.63748 0.0
C254 C 0.48341 0.08051 0.63851 0.0
C255 C 0.46419 0.04606 0.63804 0.0
H256 H 0.08016 0.48639 0.38524 0.0
H257 H 0.0313 0.5982 0.37655 0.0
H258 H 0.96787 0.57147 0.37857 0.0
H259 H 0.92616 0.51631 0.38213 0.0
H260 H 0.97502 0.40436 0.38987 0.0
H261 H 0.03844 0.43126 0.38894 0.0
C262 C 0.05565 0.50492 0.38386 0.0
C263 C 0.06052 0.5442 0.38073 0.0
C264 C 0.01919 0.48937 0.38484 0.0
C265 C 0.02841 0.56781 0.37888 0.0
C266 C 0.99207 0.55258 0.38006 0.0
C267 C 0.95067 0.49781 0.38372 0.0
C268 C 0.94581 0.45842 0.38605 0.0
C269 C 0.98712 0.5134 0.38294 0.0
C270 C 0.97791 0.43482 0.38797 0.0
C271 C 0.01424 0.45015 0.38746 0.0
H272 H 0.48649 0.9315 0.88199 0.0
H273 H 0.60001 0.97641 0.88369 0.0
H274 H 0.57495 0.04082 0.88427 0.0
H275 H 0.5212 0.08464 0.88408 0.0
H276 H 0.40742 0.04059 0.88228 0.0
H277 H 0.43226 0.97578 0.88195 0.0
C278 C 0.50573 0.95537 0.88252 0.0
C279 C 0.54507 0.94899 0.88278 0.0
C280 C 0.49114 0.99258 0.88281 0.0
C281 C 0.56959 0.98034 0.88345 0.0
C282 C 0.55531 0.01729 0.88379 0.0
C283 C 0.50176 0.06091 0.88362 0.0
C284 C 0.46251 0.06755 0.88319 0.0
C285 C 0.51619 0.02375 0.88342 0.0
C286 C 0.4378 0.03637 0.88261 0.0
C287 C 0.45197 0.99925 0.88243 0.0
H288 H 0.96006 0.57218 0.88058 0.0
H289 H 0.90434 0.46397 0.88863 0.0
H290 H 0.96534 0.4317 0.88911 0.0
H291 H 0.03418 0.43374 0.88691 0.0
H292 H 0.09098 0.54135 0.87948 0.0
H293 H 0.02984 0.57424 0.87916 0.0
C294 C 0.96128 0.54155 0.88244 0.0
C295 C 0.9276 0.52058 0.88452 0.0
C296 C 0.99661 0.52301 0.88282 0.0
C297 C 0.92974 0.4809 0.88703 0.0
C298 C 0.96464 0.46233 0.88728 0.0
C299 C 0.03329 0.46441 0.88521 0.0
C300 C 0.06712 0.48501 0.88313 0.0
C301 C 0.9982 0.48307 0.88513 0.0
C302 C 0.06536 0.52477 0.88111 0.0
C303 C 0.03041 0.5436 0.88089 0.0
H304 H 0.47866 0.08051 0.37637 0.0
H305 H 0.59408 0.03979 0.37765 0.0
H306 H 0.57192 0.97439 0.37704 0.0
H307 H 0.51992 0.92861 0.37627 0.0
H308 H 0.40446 0.96904 0.37378 0.0
H309 H 0.42654 0.03456 0.37468 0.0
C310 C 0.49896 0.05732 0.37655 0.0
C311 C 0.53796 0.06509 0.37712 0.0
C312 C 0.48605 0.01967 0.37595 0.0
C313 C 0.56389 0.03468 0.37716 0.0
C314 C 0.55126 0.99721 0.37685 0.0
C315 C 0.49956 0.95174 0.37594 0.0
C316 C 0.46061 0.94388 0.37503 0.0
C317 C 0.51243 0.98937 0.37626 0.0
C318 C 0.43464 0.97424 0.37443 0.0
C319 C 0.44722 0.01176 0.375 0.0
H320 H 0.93441 0.51894 0.64287 0.0
H321 H 0.983 0.40737 0.65367 0.0
H322 H 0.04642 0.43395 0.65169 0.0
H323 H 0.08826 0.48851 0.64674 0.0
H324 H 0.04047 0.6005 0.63679 0.0
H325 H 0.97666 0.57406 0.63858 0.0
C326 C 0.95887 0.50045 0.6448 0.0
C327 C 0.95384 0.46118 0.64838 0.0
C328 C 0.99546 0.51595 0.64377 0.0
C329 C 0.98592 0.43768 0.65095 0.0
C330 C 0.02228 0.45284 0.64978 0.0
C331 C 0.06393 0.5072 0.6449 0.0
C332 C 0.0692 0.54642 0.64154 0.0
C333 C 0.02739 0.49188 0.64615 0.0
C334 C 0.03727 0.57019 0.63939 0.0
C335 C 1.00075 0.55509 0.6404 0.0
H336 H 0.43401 0.04168 0.14612 0.0
H337 H 0.54151 0.09936 0.14646 0.0
H338 H 0.57475 0.03856 0.14657 0.0
H339 H 0.57351 0.96877 0.14589 0.0
H340 H 0.46592 0.91127 0.14419 0.0
H341 H 0.43276 0.97202 0.14532 0.0
C342 C 0.4647 0.04096 0.14633 0.0
C343 C 0.48515 0.07508 0.14629 0.0
C344 C 0.48375 0.00583 0.14609 0.0
C345 C 0.52496 0.07356 0.14639 0.0
C346 C 0.54407 0.03877 0.14649 0.0
C347 C 0.54283 0.96954 0.14586 0.0
C348 C 0.52233 0.93546 0.14494 0.0
C349 C 0.52378 0.00469 0.14623 0.0
C350 C 0.48251 0.93703 0.14477 0.0
C351 C 0.46344 0.9718 0.14546 0.0
H352 H 0.20001 0.5703 0.29118 0.0
H353 H 0.19369 0.45755 0.3237 0.0
H354 H 0.19548 0.43029 0.27913 0.0
H355 H 0.19631 0.43873 0.23073 0.0
H356 H 0.20795 0.55112 0.19833 0.0
H357 H 0.20699 0.57833 0.24292 0.0
C358 C 0.1992 0.53977 0.28843 0.0
C359 C 0.19637 0.51594 0.31058 0.0
C360 C 0.20123 0.52427 0.26278 0.0
C361 C 0.19591 0.47642 0.30689 0.0
C362 C 0.19682 0.46084 0.28143 0.0
C363 C 0.1989 0.46914 0.2335 0.0
C364 C 0.20191 0.49292 0.21133 0.0
C365 C 0.19911 0.4845 0.25921 0.0
C366 C 0.20573 0.53223 0.21513 0.0
C367 C 0.20498 0.54782 0.2406 0.0
H368 H 0.46442 0.21064 0.71196 0.0
H369 H 0.58507 0.21253 0.72477 0.0
H370 H 0.57532 0.21154 0.77266 0.0
H371 H 0.53267 0.20704 0.8107 0.0
H372 H 0.41219 0.19953 0.798 0.0
H373 H 0.42158 0.2057 0.75024 0.0
C374 C 0.48846 0.21131 0.72532 0.0
C375 C 0.52535 0.21191 0.71503 0.0
C376 C 0.48267 0.20938 0.75277 0.0
C377 C 0.55641 0.21206 0.73238 0.0
C378 C 0.55086 0.21145 0.7597 0.0
C379 C 0.50847 0.20702 0.79747 0.0
C380 C 0.47183 0.20292 0.80778 0.0
C381 C 0.51415 0.20961 0.77009 0.0
C382 C 0.44072 0.20247 0.79045 0.0
C383 C 0.44605 0.20609 0.76318 0.0
H384 H 0.80131 0.46813 0.2155 0.0
H385 H 0.80897 0.58787 0.23218 0.0
H386 H 0.81052 0.57481 0.27976 0.0
H387 H 0.81167 0.52904 0.31657 0.0
H388 H 0.81059 0.40911 0.29951 0.0
H389 H 0.80451 0.42237 0.25217 0.0
C390 C 0.80296 0.49132 0.22962 0.0
C391 C 0.80464 0.5289 0.22047 0.0
C392 C 0.80523 0.48349 0.25683 0.0
C393 C 0.80758 0.55871 0.23884 0.0
C394 C 0.80847 0.55125 0.26601 0.0
C395 C 0.80986 0.50588 0.30245 0.0
C396 C 0.81132 0.46818 0.31145 0.0
C397 C 0.80759 0.51373 0.27523 0.0
C398 C 0.80959 0.43836 0.29299 0.0
C399 C 0.80605 0.44593 0.26596 0.0
H400 H 0.47733 0.81464 0.80876 0.0
H401 H 0.59721 0.81982 0.79331 0.0
H402 H 0.58522 0.81572 0.74565 0.0
H403 H 0.54032 0.81245 0.70832 0.0
H404 H 0.42038 0.81361 0.72392 0.0
H405 H 0.43257 0.81316 0.7716 0.0
C406 C 0.50081 0.81464 0.79493 0.0
C407 C 0.53808 0.8173 0.80444 0.0
C408 C 0.49363 0.81338 0.76763 0.0
C409 C 0.56826 0.81789 0.78638 0.0
C410 C 0.56142 0.81545 0.75917 0.0
C411 C 0.51695 0.81222 0.72224 0.0
C412 C 0.47955 0.81269 0.71279 0.0
C413 C 0.5242 0.81338 0.74957 0.0
C414 C 0.4494 0.81318 0.73086 0.0
C415 C 0.45635 0.81295 0.75807 0.0
H416 H 0.79799 0.55492 0.79708 0.0
H417 H 0.79328 0.4402 0.82627 0.0
H418 H 0.79873 0.41572 0.781 0.0
H419 H 0.80868 0.42716 0.73324 0.0
H420 H 0.80912 0.54208 0.70413 0.0
H421 H 0.80147 0.5663 0.74919 0.0
C422 C 0.79778 0.52456 0.79348 0.0
C423 C 0.79553 0.49938 0.81496 0.0
C424 C 0.80045 0.51076 0.76743 0.0
C425 C 0.79483 0.46014 0.81003 0.0
C426 C 0.7982 0.44614 0.78418 0.0
C427 C 0.80692 0.45748 0.73682 0.0
C428 C 0.80987 0.48284 0.71546 0.0
C429 C 0.80168 0.47119 0.76276 0.0
C430 C 0.80694 0.52202 0.72026 0.0
C431 C 0.80266 0.53588 0.74601 0.0
H432 H 0.4368 0.80036 0.29184 0.0
H433 H 0.55262 0.80294 0.31884 0.0
H434 H 0.57492 0.79871 0.27314 0.0
H435 H 0.56139 0.79861 0.22548 0.0
H436 H 0.44583 0.79305 0.19828 0.0
H437 H 0.42343 0.79357 0.24415 0.0
C438 C 0.46691 0.79976 0.28768 0.0
C439 C 0.49306 0.80243 0.3086 0.0
C440 C 0.47951 0.79678 0.26138 0.0
C441 C 0.53198 0.80098 0.30304 0.0
C442 C 0.54473 0.79868 0.27693 0.0
C443 C 0.53131 0.79713 0.22963 0.0
C444 C 0.50524 0.79619 0.2086 0.0
C445 C 0.51874 0.79719 0.25595 0.0
C446 C 0.46641 0.79373 0.21417 0.0
C447 C 0.4536 0.79427 0.24037 0.0
H448 H 0.20628 0.53862 0.81053 0.0
H449 H 0.19329 0.41873 0.79615 0.0
H450 H 0.19622 0.42945 0.74839 0.0
H451 H 0.19965 0.47331 0.71061 0.0
H452 H 0.20649 0.59372 0.72504 0.0
H453 H 0.20895 0.58254 0.77277 0.0
C454 C 0.20447 0.51486 0.7969 0.0
C455 C 0.19978 0.47794 0.80679 0.0
C456 C 0.20493 0.52139 0.76946 0.0
C457 C 0.19684 0.44743 0.78896 0.0
C458 C 0.19853 0.45354 0.76167 0.0
C459 C 0.20206 0.49701 0.72424 0.0
C460 C 0.20311 0.53425 0.71438 0.0
C461 C 0.20218 0.49043 0.75168 0.0
C462 C 0.20558 0.5648 0.73221 0.0
C463 C 0.20701 0.55842 0.75948 0.0
H464 H 0.56586 0.20987 0.29552 0.0
H465 H 0.44947 0.20751 0.32121 0.0
H466 H 0.42812 0.21224 0.27532 0.0
H467 H 0.44266 0.2124 0.22786 0.0
H468 H 0.5588 0.21769 0.20198 0.0
H469 H 0.58026 0.21702 0.24808 0.0
C470 C 0.53584 0.21065 0.29102 0.0
C471 C 0.50923 0.20785 0.31158 0.0
C472 C 0.5238 0.2139 0.26465 0.0
C473 C 0.47043 0.20955 0.30565 0.0
C474 C 0.45823 0.21214 0.27944 0.0
C475 C 0.47265 0.21381 0.23237 0.0
C476 C 0.49918 0.21467 0.21168 0.0
C477 C 0.48467 0.21365 0.25879 0.0
C478 C 0.5379 0.21707 0.21765 0.0
C479 C 0.55016 0.21644 0.24396 0.0
H480 H 0.16333 0.41774 0.96827 0.0
H481 H 0.2344 0.51657 0.96172 0.0
H482 H 0.23976 0.5198 1.00992 0.0
H483 H 0.22353 0.49499 0.05401 0.0
H484 H 0.15224 0.39618 0.06006 0.0
H485 H 0.14791 0.39256 0.01199 0.0
C486 C 0.18003 0.44003 0.97732 0.0
C487 C 0.19834 0.46693 0.96132 0.0
C488 C 0.18301 0.44172 1.00501 0.0
C489 C 0.21994 0.49551 0.9735 0.0
C490 C 0.22304 0.49737 1.00109 0.0
C491 C 0.20715 0.47257 0.04483 0.0
C492 C 0.18822 0.44593 0.06073 0.0
C493 C 0.20461 0.47068 0.01706 0.0
C494 C 0.1671 0.41711 0.04841 0.0
C495 C 0.16455 0.415 0.02087 0.0
H496 H 0.49856 0.22281 0.46852 0.0
H497 H 0.59939 0.15339 0.46314 0.0
H498 H 0.60551 0.15402 0.51113 0.0
H499 H 0.5826 0.17401 0.55445 0.0
H500 H 0.48202 0.24354 0.56057 0.0
H501 H 0.47561 0.24322 0.51236 0.0
C502 C 0.52181 0.20774 0.47785 0.0
C503 C 0.54843 0.18805 0.46222 0.0
C504 C 0.52532 0.20832 0.50554 0.0
C505 C 0.57848 0.1688 0.47464 0.0
C506 C 0.58206 0.16913 0.50211 0.0
C507 C 0.55926 0.1892 0.54532 0.0
C508 C 0.53284 0.20877 0.56112 0.0
C509 C 0.5557 0.18882 0.51772 0.0
C510 C 0.50281 0.22827 0.54887 0.0
C511 C 0.49908 0.22805 0.52131 0.0
H512 H 0.83176 0.58569 0.05719 0.0
H513 H 0.76066 0.48775 0.0682 0.0
H514 H 0.75547 0.47986 0.02026 0.0
H515 H 0.772 0.5003 0.975 0.0
H516 H 0.84304 0.59858 0.96473 0.0
H517 H 0.84724 0.60664 0.01245 0.0
C518 C 0.81505 0.56262 0.04916 0.0
C519 C 0.79672 0.53734 0.06635 0.0
C520 C 0.81218 0.55821 0.0216 0.0
C521 C 0.77511 0.50768 0.05549 0.0
C522 C 0.77214 0.5031 0.02803 0.0
C523 C 0.78834 0.5235 0.9832 0.0
C524 C 0.80721 0.54869 0.96617 0.0
C525 C 0.79069 0.52811 1.01087 0.0
C526 C 0.8282 0.57867 0.97724 0.0
C527 C 0.83067 0.58336 1.0046 0.0
H528 H 0.41813 0.84537 0.5514 0.0
H529 H 0.5192 0.777 0.55916 0.0
H530 H 0.52466 0.77314 0.51101 0.0
H531 H 0.50096 0.78971 0.46665 0.0
H532 H 0.39946 0.85768 0.4594 0.0
H533 H 0.39407 0.86109 0.5074 0.0
C534 C 0.44138 0.82958 0.54261 0.0
C535 C 0.46824 0.81158 0.55891 0.0
C536 C 0.44432 0.82742 0.51496 0.0
C537 C 0.49809 0.79113 0.54711 0.0
C538 C 0.50127 0.78894 0.51956 0.0
C539 C 0.47767 0.80528 0.47557 0.0
C540 C 0.45072 0.82346 0.45938 0.0
C541 C 0.4746 0.80707 0.50328 0.0
C542 C 0.42063 0.84338 0.47131 0.0
C543 C 0.41749 0.8454 0.4988 0.0
H544 H 0.21565 0.51409 0.46704 0.0
H545 H 0.15426 0.62001 0.46143 0.0
H546 H 0.15224 0.62466 0.5096 0.0
H547 H 0.16711 0.59847 0.5533 0.0
H548 H 0.22805 0.49234 0.55911 0.0
H549 H 0.23095 0.48805 0.51089 0.0
C550 C 0.20193 0.53828 0.47632 0.0
C551 C 0.18514 0.56665 0.46055 0.0
C552 C 0.20067 0.54072 0.50409 0.0
C553 C 0.16741 0.59772 0.47301 0.0
C554 C 0.1662 0.60042 0.50059 0.0
C555 C 0.18107 0.57436 0.54407 0.0
C556 C 0.1973 0.54575 0.5599 0.0
C557 C 0.1826 0.57203 0.51632 0.0
C558 C 0.21527 0.51477 0.54749 0.0
C559 C 0.21696 0.51229 0.51988 0.0
H560 H 0.41906 0.16905 0.97022 0.0
H561 H 0.52341 0.23041 0.95964 0.0
H562 H 0.53094 0.23538 1.0076 0.0
H563 H 0.50779 0.22218 0.05261 0.0
H564 H 0.4034 0.16048 0.0625 0.0
H565 H 0.39612 0.15589 0.01474 0.0
C566 C 0.44349 0.18353 0.97834 0.0
C567 C 0.47059 0.19932 0.96134 0.0
C568 C 0.44767 0.18627 1.00586 0.0
C569 C 0.50208 0.21796 0.97227 0.0
C570 C 0.50642 0.22084 0.99971 0.0
C571 C 0.48344 0.20778 0.04431 0.0
C572 C 0.45623 0.19172 0.06117 0.0
C573 C 0.47937 0.2051 0.0167 0.0
C574 C 0.42486 0.17309 0.05005 0.0
C575 C 0.4206 0.17042 0.0227 0.0
H576 H 0.8514 0.40388 0.47256 0.0
H577 H 0.78127 0.50402 0.46559 0.0
H578 H 0.77933 0.51016 0.51371 0.0
H579 H 0.79791 0.48747 0.55783 0.0
H580 H 0.86811 0.38734 0.56466 0.0
H581 H 0.86959 0.38097 0.5166 0.0
C582 C 0.83561 0.42703 0.48153 0.0
C583 C 0.81653 0.45343 0.4654 0.0
C584 C 0.83465 0.43048 0.50924 0.0
C585 C 0.79624 0.48325 0.47746 0.0
C586 C 0.79512 0.48683 0.50501 0.0
C587 C 0.81355 0.46424 0.54883 0.0
C588 C 0.8329 0.43797 0.56493 0.0
C589 C 0.8143 0.46067 0.52111 0.0
C590 C 0.85296 0.40802 0.55284 0.0
C591 C 0.85384 0.40432 0.52531 0.0
H592 H 0.50318 0.78735 0.0483 0.0
H593 H 0.60415 0.85358 0.06107 0.0
H594 H 0.61334 0.85902 0.01353 0.0
H595 H 0.59283 0.8456 0.96825 0.0
H596 H 0.49197 0.77955 0.95496 0.0
H597 H 0.4828 0.77346 1.00265 0.0
C598 C 0.52719 0.80294 0.04068 0.0
C599 C 0.55285 0.82003 0.05832 0.0
C600 C 0.53243 0.80605 0.01317 0.0
C601 C 0.58386 0.84012 0.04804 0.0
C602 C 0.58921 0.84329 0.0208 0.0
C603 C 0.56885 0.82981 0.97575 0.0
C604 C 0.54316 0.81311 0.958 0.0
C605 C 0.56367 0.82645 1.00318 0.0
C606 C 0.51224 0.79275 0.96814 0.0
C607 C 0.50693 0.78924 0.99544 0.0
H608 H 0.2891 0.37745 0.14188 0.0
H609 H 0.19974 0.29835 0.15958 0.0
H610 H 0.24557 0.24643 0.16105 0.0
H611 H 0.31086 0.22304 0.15635 0.0
H612 H 0.4001 0.30222 0.13846 0.0
H613 H 0.3545 0.35432 0.1381 0.0
C614 C 0.27963 0.3489 0.14616 0.0
C615 C 0.24096 0.34192 0.15055 0.0
C616 C 0.30613 0.31904 0.1469 0.0
C617 C 0.22929 0.30465 0.15608 0.0
C618 C 0.25549 0.27485 0.15691 0.0
C619 C 0.32038 0.25169 0.15245 0.0
C620 C 0.3589 0.25856 0.14738 0.0
C621 C 0.29396 0.28166 0.15219 0.0
C622 C 0.37066 0.29596 0.14239 0.0
C623 C 0.34458 0.32587 0.14216 0.0
H624 H 0.72624 0.37655 0.64253 0.0
H625 H 0.81155 0.2914 0.65836 0.0
H626 H 0.76376 0.24192 0.65656 0.0
H627 H 0.69806 0.22245 0.64998 0.0
H628 H 0.61222 0.30717 0.63471 0.0
H629 H 0.65992 0.35704 0.63678 0.0
C630 C 0.73436 0.34719 0.64566 0.0
C631 C 0.77249 0.3378 0.65052 0.0
C632 C 0.70667 0.3187 0.64462 0.0
C633 C 0.78245 0.29955 0.65459 0.0
C634 C 0.75514 0.27114 0.65352 0.0
C635 C 0.68974 0.2518 0.64705 0.0
C636 C 0.65163 0.26098 0.6421 0.0
C637 C 0.71722 0.28035 0.64843 0.0
C638 C 0.64136 0.29925 0.63855 0.0
C639 C 0.66863 0.32782 0.63972 0.0
H640 H 0.71118 0.62825 0.14352 0.0
H641 H 0.80438 0.70622 0.15164 0.0
H642 H 0.76031 0.75964 0.1526 0.0
H643 H 0.69534 0.78457 0.15031 0.0
H644 H 0.60225 0.70662 0.14142 0.0
H645 H 0.6462 0.65311 0.14165 0.0
C646 C 0.72187 0.6569 0.14558 0.0
C647 C 0.76108 0.66309 0.14747 0.0
C648 C 0.69637 0.68764 0.14596 0.0
C649 C 0.77437 0.70051 0.15008 0.0
C650 C 0.74917 0.73116 0.15065 0.0
C651 C 0.68464 0.75588 0.14853 0.0
C652 C 0.64551 0.74975 0.14582 0.0
C653 C 0.71012 0.72511 0.14848 0.0
C654 C 0.63221 0.7123 0.14346 0.0
C655 C 0.65734 0.68159 0.14359 0.0
H656 H 0.22497 0.70819 0.64228 0.0
H657 H 0.30254 0.61339 0.63777 0.0
H658 H 0.35612 0.65699 0.63737 0.0
H659 H 0.38095 0.72226 0.63791 0.0
H660 H 0.30261 0.81654 0.64229 0.0
H661 H 0.24952 0.77285 0.64314 0.0
C662 C 0.25357 0.69697 0.64124 0.0
C663 C 0.25964 0.65754 0.64003 0.0
C664 C 0.28422 0.72214 0.64097 0.0
C665 C 0.29697 0.64361 0.6387 0.0
C666 C 0.32767 0.66853 0.63847 0.0
C667 C 0.35227 0.73324 0.63909 0.0
C668 C 0.3459 0.77269 0.64 0.0
C669 C 0.32164 0.70789 0.63953 0.0
C670 C 0.30848 0.78636 0.64153 0.0
C671 C 0.278 0.76139 0.64202 0.0
H672 H 0.30924 0.78341 0.35865 0.0
H673 H 0.39732 0.70921 0.38774 0.0
H674 H 0.35274 0.65622 0.38849 0.0
H675 H 0.28768 0.63179 0.3825 0.0
H676 H 0.20064 0.70764 0.35359 0.0
H677 H 0.24601 0.75899 0.35112 0.0
C678 C 0.31884 0.75566 0.36512 0.0
C679 C 0.35648 0.75038 0.37329 0.0
C680 C 0.29318 0.72554 0.36558 0.0
C681 C 0.36843 0.71409 0.38138 0.0
C682 C 0.34294 0.68379 0.38186 0.0
C683 C 0.27877 0.65948 0.3755 0.0
C684 C 0.24072 0.66581 0.36843 0.0
C685 C 0.30509 0.68928 0.37423 0.0
C686 C 0.22964 0.70191 0.35936 0.0
C687 C 0.25557 0.73141 0.35791 0.0
H688 H 0.30299 0.22479 0.88143 0.0
H689 H 0.39677 0.3026 0.88616 0.0
H690 H 0.35279 0.35635 0.88543 0.0
H691 H 0.28751 0.38118 0.88358 0.0
H692 H 0.19434 0.30251 0.87872 0.0
H693 H 0.2384 0.24928 0.87932 0.0
C694 C 0.3139 0.25348 0.88233 0.0
C695 C 0.35312 0.25961 0.88388 0.0
C696 C 0.28856 0.28417 0.88184 0.0
C697 C 0.36669 0.29703 0.88496 0.0
C698 C 0.34157 0.32781 0.88454 0.0
C699 C 0.27686 0.3524 0.88261 0.0
C700 C 0.23764 0.34595 0.88112 0.0
C701 C 0.30241 0.32171 0.88298 0.0
C702 C 0.22435 0.30842 0.87988 0.0
C703 C 0.24953 0.27787 0.88024 0.0
H704 H 0.69486 0.21931 0.37214 0.0
H705 H 0.60463 0.29998 0.38577 0.0
H706 H 0.65082 0.35152 0.38806 0.0
H707 H 0.71741 0.37323 0.38705 0.0
H708 H 0.80643 0.29072 0.37412 0.0
H709 H 0.75999 0.24045 0.37075 0.0
C710 C 0.68512 0.24815 0.37552 0.0
C711 C 0.64634 0.25573 0.37878 0.0
C712 C 0.71168 0.27738 0.37704 0.0
C713 C 0.63436 0.29334 0.38319 0.0
C714 C 0.66076 0.32281 0.38454 0.0
C715 C 0.72657 0.34426 0.38345 0.0
C716 C 0.76541 0.33585 0.38093 0.0
C717 C 0.69958 0.31512 0.38164 0.0
C718 C 0.7768 0.29812 0.37628 0.0
C719 C 0.75025 0.26924 0.3743 0.0
H720 H 0.7819 0.69171 0.87265 0.0
H721 H 0.69875 0.60351 0.88228 0.0
H722 H 0.64815 0.65108 0.88265 0.0
H723 H 0.6277 0.71818 0.88141 0.0
H724 H 0.71199 0.80565 0.87266 0.0
H725 H 0.76175 0.75788 0.8708 0.0
C726 C 0.75272 0.68277 0.87469 0.0
C727 C 0.7442 0.64408 0.87745 0.0
C728 C 0.72386 0.71021 0.87516 0.0
C729 C 0.70616 0.63312 0.88015 0.0
C730 C 0.67718 0.66032 0.88039 0.0
C731 C 0.65694 0.72674 0.87902 0.0
C732 C 0.66599 0.7655 0.87727 0.0
C733 C 0.68572 0.69902 0.87811 0.0
C734 C 0.70409 0.77608 0.87419 0.0
C735 C 0.73268 0.74876 0.87308 0.0
loop_
_geom_bond_atom_site_label_1
_geom_bond_atom_site_label_2
_geom_bond_distance
_geom_bond_site_symmetry_2
_ccdc_geom_bond_type
C0 O2 1.247 . S
C0 O4 1.258 . S
C1 O8 1.247 . S
C1 O9 1.258 . S
O2 C0 1.247 . S
O2 Zn3 2.028 . S
Zn3 O2 2.028 . S
Zn3 O7 2.035 . S
Zn3 O9 2.035 . S
Zn3 O10 2.028 . S
O4 C0 1.258 . S
O4 Zn5 2.035 . S
Zn5 O4 2.035 . S
Zn5 O6 2.028 . S
Zn5 O8 2.028 . S
Zn5 O11 2.035 . S
O6 Zn5 2.028 . S
O6 C12 1.247 . S
O7 Zn3 2.035 . S
O7 C12 1.258 . S
O8 C1 1.247 . S
O8 Zn5 2.028 . S
O9 C1 1.258 . S
O9 Zn3 2.035 . S
O10 Zn3 2.028 . S
O10 C13 1.247 . S
O11 Zn5 2.035 . S
O11 C13 1.258 . S
C12 O6 1.247 . S
C12 O7 1.258 . S
C13 O10 1.247 . S
C13 O11 1.258 . S
C14 O16 1.247 . S
C14 O18 1.258 . S
C15 O22 1.247 . S
C15 O23 1.258 . S
O16 C14 1.247 . S
O16 Zn17 2.028 . S
Zn17 O16 2.028 . S
Zn17 O21 2.035 . S
Zn17 O23 2.035 . S
Zn17 O24 2.028 . S
O18 C14 1.258 . S
O18 Zn19 2.035 . S
Zn19 O18 2.035 . S
Zn19 O20 2.028 . S
Zn19 O22 2.028 . S
Zn19 O25 2.035 . S
O20 Zn19 2.028 . S
O20 C26 1.247 . S
O21 Zn17 2.035 . S
O21 C26 1.258 . S
O22 C15 1.247 . S
O22 Zn19 2.028 . S
O23 C15 1.258 . S
O23 Zn17 2.035 . S
O24 Zn17 2.028 . S
O24 C27 1.247 . S
O25 Zn19 2.035 . S
O25 C27 1.258 . S
C26 O20 1.247 . S
C26 O21 1.258 . S
C27 O24 1.247 . S
C27 O25 1.258 . S
C28 O30 1.247 . S
C28 O32 1.258 . S
C29 O36 1.247 . S
C29 O37 1.258 . S
O30 C28 1.247 . S
O30 Zn31 2.028 . S
Zn31 O30 2.028 . S
Zn31 O35 2.035 . S
Zn31 O37 2.035 . S
Zn31 O38 2.028 . S
O32 C28 1.258 . S
O32 Zn33 2.035 . S
Zn33 O32 2.035 . S
Zn33 O34 2.028 . S
Zn33 O36 2.028 . S
Zn33 O39 2.035 . S
O34 Zn33 2.028 . S
O34 C40 1.247 . S
O35 Zn31 2.035 . S
O35 C40 1.258 . S
O36 C29 1.247 . S
O36 Zn33 2.028 . S
O37 C29 1.258 . S
O37 Zn31 2.035 . S
O38 Zn31 2.028 . S
O38 C41 1.247 . S
O39 Zn33 2.035 . S
O39 C41 1.258 . S
C40 O34 1.247 . S
C40 O35 1.258 . S
C41 O38 1.247 . S
C41 O39 1.258 . S
C42 O44 1.247 . S
C42 O46 1.258 . S
C43 O50 1.247 . S
C43 O51 1.258 . S
O44 C42 1.247 . S
O44 Zn45 2.028 . S
Zn45 O44 2.028 . S
Zn45 O49 2.035 . S
Zn45 O51 2.035 . S
Zn45 O52 2.028 . S
O46 C42 1.258 . S
O46 Zn47 2.035 . S
Zn47 O46 2.035 . S
Zn47 O48 2.028 . S
Zn47 O50 2.028 . S
Zn47 O53 2.035 . S
O48 Zn47 2.028 . S
O48 C54 1.247 . S
O49 Zn45 2.035 . S
O49 C54 1.258 . S
O50 C43 1.247 . S
O50 Zn47 2.028 . S
O51 C43 1.258 . S
O51 Zn45 2.035 . S
O52 Zn45 2.028 . S
O52 C55 1.247 . S
O53 Zn47 2.035 . S
O53 C55 1.258 . S
C54 O48 1.247 . S
C54 O49 1.258 . S
C55 O52 1.247 . S
C55 O53 1.258 . S
C56 O58 1.247 . S
C56 O60 1.258 . S
C57 O64 1.247 . S
C57 O65 1.258 . S
O58 C56 1.247 . S
O58 Zn59 2.028 . S
Zn59 O58 2.028 . S
Zn59 O63 2.035 . S
Zn59 O65 2.035 . S
Zn59 O66 2.028 . S
O60 C56 1.258 . S
O60 Zn61 2.035 . S
Zn61 O60 2.035 . S
Zn61 O62 2.028 . S
Zn61 O64 2.028 . S
Zn61 O67 2.035 . S
O62 Zn61 2.028 . S
O62 C68 1.247 . S
O63 Zn59 2.035 . S
O63 C68 1.258 . S
O64 C57 1.247 . S
O64 Zn61 2.028 . S
O65 C57 1.258 . S
O65 Zn59 2.035 . S
O66 Zn59 2.028 . S
O66 C69 1.247 . S
O67 Zn61 2.035 . S
O67 C69 1.258 . S
C68 O62 1.247 . S
C68 O63 1.258 . S
C69 O66 1.247 . S
C69 O67 1.258 . S
C70 O72 1.247 . S
C70 O74 1.258 . S
C71 O78 1.247 . S
C71 O79 1.258 . S
O72 C70 1.247 . S
O72 Zn73 2.028 . S
Zn73 O72 2.028 . S
Zn73 O77 2.035 . S
Zn73 O79 2.035 . S
Zn73 O80 2.028 . S
O74 C70 1.258 . S
O74 Zn75 2.035 . S
Zn75 O74 2.035 . S
Zn75 O76 2.028 . S
Zn75 O78 2.028 . S
Zn75 O81 2.035 . S
O76 Zn75 2.028 . S
O76 C82 1.247 . S
O77 Zn73 2.035 . S
O77 C82 1.258 . S
O78 C71 1.247 . S
O78 Zn75 2.028 . S
O79 C71 1.258 . S
O79 Zn73 2.035 . S
O80 Zn73 2.028 . S
O80 C83 1.247 . S
O81 Zn75 2.035 . S
O81 C83 1.258 . S
C82 O76 1.247 . S
C82 O77 1.258 . S
C83 O80 1.247 . S
C83 O81 1.258 . S
C84 O86 1.247 . S
C84 O88 1.258 . S
C85 O92 1.247 . S
C85 O93 1.258 . S
O86 C84 1.247 . S
O86 Zn87 2.028 . S
Zn87 O86 2.028 . S
Zn87 O91 2.035 . S
Zn87 O93 2.035 . S
Zn87 O94 2.028 . S
O88 C84 1.258 . S
O88 Zn89 2.035 . S
Zn89 O88 2.035 . S
Zn89 O90 2.028 . S
Zn89 O92 2.028 . S
Zn89 O95 2.035 . S
O90 Zn89 2.028 . S
O90 C96 1.247 . S
O91 Zn87 2.035 . S
O91 C96 1.258 . S
O92 C85 1.247 . S
O92 Zn89 2.028 . S
O93 C85 1.258 . S
O93 Zn87 2.035 . S
O94 Zn87 2.028 . S
O94 C97 1.247 . S
O95 Zn89 2.035 . S
O95 C97 1.258 . S
C96 O90 1.247 . S
C96 O91 1.258 . S
C97 O94 1.247 . S
C97 O95 1.258 . S
C98 O100 1.247 . S
C98 O102 1.258 . S
C99 O106 1.247 . S
C99 O107 1.258 . S
O100 C98 1.247 . S
O100 Zn101 2.028 . S
Zn101 O100 2.028 . S
Zn101 O105 2.035 . S
Zn101 O107 2.035 . S
Zn101 O108 2.028 . S
O102 C98 1.258 . S
O102 Zn103 2.035 . S
Zn103 O102 2.035 . S
Zn103 O104 2.028 . S
Zn103 O106 2.028 . S
Zn103 O109 2.035 . S
O104 Zn103 2.028 . S
O104 C110 1.247 . S
O105 Zn101 2.035 . S
O105 C110 1.258 . S
O106 C99 1.247 . S
O106 Zn103 2.028 . S
O107 C99 1.258 . S
O107 Zn101 2.035 . S
O108 Zn101 2.028 . S
O108 C111 1.247 . S
O109 Zn103 2.035 . S
O109 C111 1.258 . S
C110 O104 1.247 . S
C110 O105 1.258 . S
C111 O108 1.247 . S
C111 O109 1.258 . S
C112 O114 1.247 . S
C112 O116 1.258 . S
C113 O120 1.247 . S
C113 O121 1.258 . S
O114 C112 1.247 . S
O114 Zn115 2.028 . S
Zn115 O114 2.028 . S
Zn115 O119 2.035 . S
Zn115 O121 2.035 . S
Zn115 O122 2.028 . S
O116 C112 1.258 . S
O116 Zn117 2.035 . S
Zn117 O116 2.035 . S
Zn117 O118 2.028 . S
Zn117 O120 2.028 . S
Zn117 O123 2.035 . S
O118 Zn117 2.028 . S
O118 C124 1.247 . S
O119 Zn115 2.035 . S
O119 C124 1.258 . S
O120 C113 1.247 . S
O120 Zn117 2.028 . S
O121 C113 1.258 . S
O121 Zn115 2.035 . S
O122 Zn115 2.028 . S
O122 C125 1.247 . S
O123 Zn117 2.035 . S
O123 C125 1.258 . S
C124 O118 1.247 . S
C124 O119 1.258 . S
C125 O122 1.247 . S
C125 O123 1.258 . S
C126 O128 1.247 . S
C126 O130 1.258 . S
C127 O134 1.247 . S
C127 O135 1.258 . S
O128 C126 1.247 . S
O128 Zn129 2.028 . S
Zn129 O128 2.028 . S
Zn129 O133 2.035 . S
Zn129 O135 2.035 . S
Zn129 O136 2.028 . S
O130 C126 1.258 . S
O130 Zn131 2.035 . S
Zn131 O130 2.035 . S
Zn131 O132 2.028 . S
Zn131 O134 2.028 . S
Zn131 O137 2.035 . S
O132 Zn131 2.028 . S
O132 C138 1.247 . S
O133 Zn129 2.035 . S
O133 C138 1.258 . S
O134 C127 1.247 . S
O134 Zn131 2.028 . S
O135 C127 1.258 . S
O135 Zn129 2.035 . S
O136 Zn129 2.028 . S
O136 C139 1.247 . S
O137 Zn131 2.035 . S
O137 C139 1.258 . S
C138 O132 1.247 . S
C138 O133 1.258 . S
C139 O136 1.247 . S
C139 O137 1.258 . S
C140 O142 1.247 . S
C140 O144 1.258 . S
C141 O148 1.247 . S
C141 O149 1.258 . S
O142 C140 1.247 . S
O142 Zn143 2.028 . S
Zn143 O142 2.028 . S
Zn143 O147 2.035 . S
Zn143 O149 2.035 . S
Zn143 O150 2.028 . S
O144 C140 1.258 . S
O144 Zn145 2.035 . S
Zn145 O144 2.035 . S
Zn145 O146 2.028 . S
Zn145 O148 2.028 . S
Zn145 O151 2.035 . S
O146 Zn145 2.028 . S
O146 C152 1.247 . S
O147 Zn143 2.035 . S
O147 C152 1.258 . S
O148 C141 1.247 . S
O148 Zn145 2.028 . S
O149 C141 1.258 . S
O149 Zn143 2.035 . S
O150 Zn143 2.028 . S
O150 C153 1.247 . S
O151 Zn145 2.035 . S
O151 C153 1.258 . S
C152 O146 1.247 . S
C152 O147 1.258 . S
C153 O150 1.247 . S
C153 O151 1.258 . S
C154 O156 1.247 . S
C154 O158 1.258 . S
C155 O162 1.247 . S
C155 O163 1.258 . S
O156 C154 1.247 . S
O156 Zn157 2.028 . S
Zn157 O156 2.028 . S
Zn157 O161 2.035 . S
Zn157 O163 2.035 . S
Zn157 O164 2.028 . S
O158 C154 1.258 . S
O158 Zn159 2.035 . S
Zn159 O158 2.035 . S
Zn159 O160 2.028 . S
Zn159 O162 2.028 . S
Zn159 O165 2.035 . S
O160 Zn159 2.028 . S
O160 C166 1.247 . S
O161 Zn157 2.035 . S
O161 C166 1.258 . S
O162 C155 1.247 . S
O162 Zn159 2.028 . S
O163 C155 1.258 . S
O163 Zn157 2.035 . S
O164 Zn157 2.028 . S
O164 C167 1.247 . S
O165 Zn159 2.035 . S
O165 C167 1.258 . S
C166 O160 1.247 . S
C166 O161 1.258 . S
C167 O164 1.247 . S
C167 O165 1.258 . S
C168 O170 1.247 . S
C168 O172 1.258 . S
C169 O176 1.247 . S
C169 O177 1.258 . S
O170 C168 1.247 . S
O170 Zn171 2.028 . S
Zn171 O170 2.028 . S
Zn171 O175 2.035 . S
Zn171 O177 2.035 . S
Zn171 O178 2.028 . S
O172 C168 1.258 . S
O172 Zn173 2.035 . S
Zn173 O172 2.035 . S
Zn173 O174 2.028 . S
Zn173 O176 2.028 . S
Zn173 O179 2.035 . S
O174 Zn173 2.028 . S
O174 C180 1.247 . S
O175 Zn171 2.035 . S
O175 C180 1.258 . S
O176 C169 1.247 . S
O176 Zn173 2.028 . S
O177 C169 1.258 . S
O177 Zn171 2.035 . S
O178 Zn171 2.028 . S
O178 C181 1.247 . S
O179 Zn173 2.035 . S
O179 C181 1.258 . S
C180 O174 1.247 . S
C180 O175 1.258 . S
C181 O178 1.247 . S
C181 O179 1.258 . S
C182 O184 1.247 . S
C182 O186 1.258 . S
C183 O190 1.247 . S
C183 O191 1.258 . S
O184 C182 1.247 . S
O184 Zn185 2.028 . S
Zn185 O184 2.028 . S
Zn185 O189 2.035 . S
Zn185 O191 2.035 . S
Zn185 O192 2.028 . S
O186 C182 1.258 . S
O186 Zn187 2.035 . S
Zn187 O186 2.035 . S
Zn187 O188 2.028 . S
Zn187 O190 2.028 . S
Zn187 O193 2.035 . S
O188 Zn187 2.028 . S
O188 C194 1.247 . S
O189 Zn185 2.035 . S
O189 C194 1.258 . S
O190 C183 1.247 . S
O190 Zn187 2.028 . S
O191 C183 1.258 . S
O191 Zn185 2.035 . S
O192 Zn185 2.028 . S
O192 C195 1.247 . S
O193 Zn187 2.035 . S
O193 C195 1.258 . S
C194 O188 1.247 . S
C194 O189 1.258 . S
C195 O192 1.247 . S
C195 O193 1.258 . S
C196 O198 1.247 . S
C196 O200 1.258 . S
C197 O204 1.247 . S
C197 O205 1.258 . S
O198 C196 1.247 . S
O198 Zn199 2.028 . S
Zn199 O198 2.028 . S
Zn199 O203 2.035 . S
Zn199 O205 2.035 . S
Zn199 O206 2.028 . S
O200 C196 1.258 . S
O200 Zn201 2.035 . S
Zn201 O200 2.035 . S
Zn201 O202 2.028 . S
Zn201 O204 2.028 . S
Zn201 O207 2.035 . S
O202 Zn201 2.028 . S
O202 C208 1.247 . S
O203 Zn199 2.035 . S
O203 C208 1.258 . S
O204 C197 1.247 . S
O204 Zn201 2.028 . S
O205 C197 1.258 . S
O205 Zn199 2.035 . S
O206 Zn199 2.028 . S
O206 C209 1.247 . S
O207 Zn201 2.035 . S
O207 C209 1.258 . S
C208 O202 1.247 . S
C208 O203 1.258 . S
C209 O206 1.247 . S
C209 O207 1.258 . S
C210 O212 1.247 . S
C210 O214 1.258 . S
C211 O218 1.247 . S
C211 O219 1.258 . S
O212 C210 1.247 . S
O212 Zn213 2.028 . S
Zn213 O212 2.028 . S
Zn213 O217 2.035 . S
Zn213 O219 2.035 . S
Zn213 O220 2.028 . S
O214 C210 1.258 . S
O214 Zn215 2.035 . S
Zn215 O214 2.035 . S
Zn215 O216 2.028 . S
Zn215 O218 2.028 . S
Zn215 O221 2.035 . S
O216 Zn215 2.028 . S
O216 C222 1.247 . S
O217 Zn213 2.035 . S
O217 C222 1.258 . S
O218 C211 1.247 . S
O218 Zn215 2.028 . S
O219 C211 1.258 . S
O219 Zn213 2.035 . S
O220 Zn213 2.028 . S
O220 C223 1.247 . S
O221 Zn215 2.035 . S
O221 C223 1.258 . S
C222 O216 1.247 . S
C222 O217 1.258 . S
C223 O220 1.247 . S
C223 O221 1.258 . S
H224 C230 0.930 . S
H225 C233 0.930 . S
H226 C234 0.930 . S
H227 C235 0.930 . S
H228 C238 0.930 . S
H229 C239 0.930 . S
C230 H224 0.930 . S
C230 C231 1.355 . S
C230 C232 1.415 . S
C231 C230 1.355 . S
C231 C233 1.419 . S
C232 C230 1.415 . S
C232 C237 1.425 1_455 S
C232 C239 1.409 1_455 S
C233 H225 0.930 . S
C233 C231 1.419 . S
C233 C234 1.362 . S
C234 H226 0.930 . S
C234 C233 1.362 . S
C234 C237 1.409 1_455 S
C235 H227 0.930 . S
C235 C236 1.355 . S
C235 C237 1.415 . S
C236 C235 1.355 . S
C236 C238 1.419 . S
C237 C232 1.425 1_655 S
C237 C234 1.409 1_655 S
C237 C235 1.415 . S
C238 H228 0.930 . S
C238 C236 1.419 . S
C238 C239 1.362 . S
C239 H229 0.930 . S
C239 C232 1.409 1_655 S
C239 C238 1.362 . S
H240 C246 0.930 . S
H241 C249 0.930 . S
H242 C250 0.930 . S
H243 C251 0.930 . S
H244 C254 0.930 . S
H245 C255 0.930 . S
C246 H240 0.930 . S
C246 C247 1.355 . S
C246 C248 1.415 . S
C247 C246 1.355 . S
C247 C249 1.419 . S
C248 C246 1.415 . S
C248 C253 1.425 1_565 S
C248 C255 1.409 1_565 S
C249 H241 0.930 . S
C249 C247 1.419 . S
C249 C250 1.362 . S
C250 H242 0.930 . S
C250 C249 1.362 . S
C250 C253 1.409 1_565 S
C251 H243 0.930 . S
C251 C252 1.355 . S
C251 C253 1.415 . S
C252 C251 1.355 . S
C252 C254 1.419 . S
C253 C248 1.425 1_545 S
C253 C250 1.409 1_545 S
C253 C251 1.415 . S
C254 H244 0.930 . S
C254 C252 1.419 . S
C254 C255 1.362 . S
C255 H245 0.930 . S
C255 C248 1.409 1_545 S
C255 C254 1.362 . S
H256 C262 0.930 . S
H257 C265 0.930 . S
H258 C266 0.930 . S
H259 C267 0.930 . S
H260 C270 0.930 . S
H261 C271 0.930 . S
C262 H256 0.930 . S
C262 C263 1.355 . S
C262 C264 1.415 . S
C263 C262 1.355 . S
C263 C265 1.419 . S
C264 C262 1.415 . S
C264 C269 1.425 1_455 S
C264 C271 1.409 1_455 S
C265 H257 0.930 . S
C265 C263 1.419 . S
C265 C266 1.362 . S
C266 H258 0.930 . S
C266 C265 1.362 . S
C266 C269 1.409 1_455 S
C267 H259 0.930 . S
C267 C268 1.355 . S
C267 C269 1.415 . S
C268 C267 1.355 . S
C268 C270 1.419 . S
C269 C264 1.425 1_655 S
C269 C266 1.409 1_655 S
C269 C267 1.415 . S
C270 H260 0.930 . S
C270 C268 1.419 . S
C270 C271 1.362 . S
C271 H261 0.930 . S
C271 C264 1.409 1_655 S
C271 C270 1.362 . S
H272 C278 0.930 . S
H273 C281 0.930 . S
H274 C282 0.930 . S
H275 C283 0.930 . S
H276 C286 0.930 . S
H277 C287 0.930 . S
C278 H272 0.930 . S
C278 C279 1.355 . S
C278 C280 1.415 . S
C279 C278 1.355 . S
C279 C281 1.419 . S
C280 C278 1.415 . S
C280 C285 1.425 1_565 S
C280 C287 1.409 1_565 S
C281 H273 0.930 . S
C281 C279 1.419 . S
C281 C282 1.362 . S
C282 H274 0.930 . S
C282 C281 1.362 . S
C282 C285 1.409 1_565 S
C283 H275 0.930 . S
C283 C284 1.355 . S
C283 C285 1.415 . S
C284 C283 1.355 . S
C284 C286 1.419 . S
C285 C280 1.425 1_545 S
C285 C282 1.409 1_545 S
C285 C283 1.415 . S
C286 H276 0.930 . S
C286 C284 1.419 . S
C286 C287 1.362 . S
C287 H277 0.930 . S
C287 C280 1.409 1_545 S
C287 C286 1.362 . S
H288 C294 0.930 . S
H289 C297 0.930 . S
H290 C298 0.930 . S
H291 C299 0.930 . S
H292 C302 0.930 . S
H293 C303 0.930 . S
C294 H288 0.930 . S
C294 C295 1.355 . S
C294 C296 1.415 . S
C295 C294 1.355 . S
C295 C297 1.419 . S
C296 C294 1.415 . S
C296 C301 1.425 1_655 S
C296 C303 1.409 1_655 S
C297 H289 0.930 . S
C297 C295 1.419 . S
C297 C298 1.362 . S
C298 H290 0.930 . S
C298 C297 1.362 . S
C298 C301 1.409 1_655 S
C299 H291 0.930 . S
C299 C300 1.355 . S
C299 C301 1.415 . S
C300 C299 1.355 . S
C300 C302 1.419 . S
C301 C296 1.425 1_455 S
C301 C298 1.409 1_455 S
C301 C299 1.415 . S
C302 H292 0.930 . S
C302 C300 1.419 . S
C302 C303 1.362 . S
C303 H293 0.930 . S
C303 C296 1.409 1_455 S
C303 C302 1.362 . S
H304 C310 0.930 . S
H305 C313 0.930 . S
H306 C314 0.930 . S
H307 C315 0.930 . S
H308 C318 0.930 . S
H309 C319 0.930 . S
C310 H304 0.930 . S
C310 C311 1.355 . S
C310 C312 1.415 . S
C311 C310 1.355 . S
C311 C313 1.419 . S
C312 C310 1.415 . S
C312 C317 1.425 1_545 S
C312 C319 1.409 1_545 S
C313 H305 0.930 . S
C313 C311 1.419 . S
C313 C314 1.362 . S
C314 H306 0.930 . S
C314 C313 1.362 . S
C314 C317 1.409 1_545 S
C315 H307 0.930 . S
C315 C316 1.355 . S
C315 C317 1.415 . S
C316 C315 1.355 . S
C316 C318 1.419 . S
C317 C312 1.425 1_565 S
C317 C314 1.409 1_565 S
C317 C315 1.415 . S
C318 H308 0.930 . S
C318 C316 1.419 . S
C318 C319 1.362 . S
C319 H309 0.930 . S
C319 C312 1.409 1_565 S
C319 C318 1.362 . S
H320 C326 0.930 . S
H321 C329 0.930 . S
H322 C330 0.930 . S
H323 C331 0.930 . S
H324 C334 0.930 . S
H325 C335 0.930 . S
C326 H320 0.930 . S
C326 C327 1.355 . S
C326 C328 1.415 . S
C327 C326 1.355 . S
C327 C329 1.419 . S
C328 C326 1.415 . S
C328 C333 1.425 1_655 S
C328 C335 1.409 1_655 S
C329 H321 0.930 . S
C329 C327 1.419 . S
C329 C330 1.362 . S
C330 H322 0.930 . S
C330 C329 1.362 . S
C330 C333 1.409 1_655 S
C331 H323 0.930 . S
C331 C332 1.355 . S
C331 C333 1.415 . S
C332 C331 1.355 . S
C332 C334 1.419 . S
C333 C328 1.425 1_455 S
C333 C330 1.409 1_455 S
C333 C331 1.415 . S
C334 H324 0.930 . S
C334 C332 1.419 . S
C334 C335 1.362 . S
C335 H325 0.930 . S
C335 C328 1.409 1_455 S
C335 C334 1.362 . S
H336 C342 0.930 . S
H337 C345 0.930 . S
H338 C346 0.930 . S
H339 C347 0.930 . S
H340 C350 0.930 . S
H341 C351 0.930 . S
C342 H336 0.930 . S
C342 C343 1.355 . S
C342 C344 1.415 . S
C343 C342 1.355 . S
C343 C345 1.419 . S
C344 C342 1.415 . S
C344 C349 1.425 1_545 S
C344 C351 1.409 1_545 S
C345 H337 0.930 . S
C345 C343 1.419 . S
C345 C346 1.362 . S
C346 H338 0.930 . S
C346 C345 1.362 . S
C346 C349 1.409 1_545 S
C347 H339 0.930 . S
C347 C348 1.355 . S
C347 C349 1.415 . S
C348 C347 1.355 . S
C348 C350 1.419 . S
C349 C344 1.425 1_565 S
C349 C346 1.409 1_565 S
C349 C347 1.415 . S
C350 H340 0.930 . S
C350 C348 1.419 . S
C350 C351 1.362 . S
C351 H341 0.930 . S
C351 C344 1.409 1_565 S
C351 C350 1.362 . S
H352 C358 0.930 . S
H353 C361 0.930 . S
H354 C362 0.930 . S
H355 C363 0.930 . S
H356 C366 0.930 . S
H357 C367 0.930 . S
C358 H352 0.930 . S
C358 C359 1.355 . S
C358 C360 1.415 . S
C359 C358 1.355 . S
C359 C361 1.419 . S
C360 C358 1.415 . S
C360 C365 1.425 . S
C360 C367 1.409 . S
C361 H353 0.930 . S
C361 C359 1.419 . S
C361 C362 1.362 . S
C362 H354 0.930 . S
C362 C361 1.362 . S
C362 C365 1.409 . S
C363 H355 0.930 . S
C363 C364 1.355 . S
C363 C365 1.415 . S
C364 C363 1.355 . S
C364 C366 1.419 . S
C365 C360 1.425 . S
C365 C362 1.409 . S
C365 C363 1.415 . S
C366 H356 0.930 . S
C366 C364 1.419 . S
C366 C367 1.362 . S
C367 H357 0.930 . S
C367 C360 1.409 . S
C367 C366 1.362 . S
H368 C374 0.930 . S
H369 C377 0.930 . S
H370 C378 0.930 . S
H371 C379 0.930 . S
H372 C382 0.930 . S
H373 C383 0.930 . S
C374 H368 0.930 . S
C374 C375 1.355 . S
C374 C376 1.415 . S
C375 C374 1.355 . S
C375 C377 1.419 . S
C376 C374 1.415 . S
C376 C381 1.425 . S
C376 C383 1.409 . S
C377 H369 0.930 . S
C377 C375 1.419 . S
C377 C378 1.362 . S
C378 H370 0.930 . S
C378 C377 1.362 . S
C378 C381 1.409 . S
C379 H371 0.930 . S
C379 C380 1.355 . S
C379 C381 1.415 . S
C380 C379 1.355 . S
C380 C382 1.419 . S
C381 C376 1.425 . S
C381 C378 1.409 . S
C381 C379 1.415 . S
C382 H372 0.930 . S
C382 C380 1.419 . S
C382 C383 1.362 . S
C383 H373 0.930 . S
C383 C376 1.409 . S
C383 C382 1.362 . S
H384 C390 0.930 . S
H385 C393 0.930 . S
H386 C394 0.930 . S
H387 C395 0.930 . S
H388 C398 0.930 . S
H389 C399 0.930 . S
C390 H384 0.930 . S
C390 C391 1.355 . S
C390 C392 1.415 . S
C391 C390 1.355 . S
C391 C393 1.419 . S
C392 C390 1.415 . S
C392 C397 1.425 . S
C392 C399 1.409 . S
C393 H385 0.930 . S
C393 C391 1.419 . S
C393 C394 1.362 . S
C394 H386 0.930 . S
C394 C393 1.362 . S
C394 C397 1.409 . S
C395 H387 0.930 . S
C395 C396 1.355 . S
C395 C397 1.415 . S
C396 C395 1.355 . S
C396 C398 1.419 . S
C397 C392 1.425 . S
C397 C394 1.409 . S
C397 C395 1.415 . S
C398 H388 0.930 . S
C398 C396 1.419 . S
C398 C399 1.362 . S
C399 H389 0.930 . S
C399 C392 1.409 . S
C399 C398 1.362 . S
H400 C406 0.930 . S
H401 C409 0.930 . S
H402 C410 0.930 . S
H403 C411 0.930 . S
H404 C414 0.930 . S
H405 C415 0.930 . S
C406 H400 0.930 . S
C406 C407 1.355 . S
C406 C408 1.415 . S
C407 C406 1.355 . S
C407 C409 1.419 . S
C408 C406 1.415 . S
C408 C413 1.425 . S
C408 C415 1.409 . S
C409 H401 0.930 . S
C409 C407 1.419 . S
C409 C410 1.362 . S
C410 H402 0.930 . S
C410 C409 1.362 . S
C410 C413 1.409 . S
C411 H403 0.930 . S
C411 C412 1.355 . S
C411 C413 1.415 . S
C412 C411 1.355 . S
C412 C414 1.419 . S
C413 C408 1.425 . S
C413 C410 1.409 . S
C413 C411 1.415 . S
C414 H404 0.930 . S
C414 C412 1.419 . S
C414 C415 1.362 . S
C415 H405 0.930 . S
C415 C408 1.409 . S
C415 C414 1.362 . S
H416 C422 0.930 . S
H417 C425 0.930 . S
H418 C426 0.930 . S
H419 C427 0.930 . S
H420 C430 0.930 . S
H421 C431 0.930 . S
C422 H416 0.930 . S
C422 C423 1.355 . S
C422 C424 1.415 . S
C423 C422 1.355 . S
C423 C425 1.419 . S
C424 C422 1.415 . S
C424 C429 1.425 . S
C424 C431 1.409 . S
C425 H417 0.930 . S
C425 C423 1.419 . S
C425 C426 1.362 . S
C426 H418 0.930 . S
C426 C425 1.362 . S
C426 C429 1.409 . S
C427 H419 0.930 . S
C427 C428 1.355 . S
C427 C429 1.415 . S
C428 C427 1.355 . S
C428 C430 1.419 . S
C429 C424 1.425 . S
C429 C426 1.409 . S
C429 C427 1.415 . S
C430 H420 0.930 . S
C430 C428 1.419 . S
C430 C431 1.362 . S
C431 H421 0.930 . S
C431 C424 1.409 . S
C431 C430 1.362 . S
H432 C438 0.930 . S
H433 C441 0.930 . S
H434 C442 0.930 . S
H435 C443 0.930 . S
H436 C446 0.930 . S
H437 C447 0.930 . S
C438 H432 0.930 . S
C438 C439 1.355 . S
C438 C440 1.415 . S
C439 C438 1.355 . S
C439 C441 1.419 . S
C440 C438 1.415 . S
C440 C445 1.425 . S
C440 C447 1.409 . S
C441 H433 0.930 . S
C441 C439 1.419 . S
C441 C442 1.362 . S
C442 H434 0.930 . S
C442 C441 1.362 . S
C442 C445 1.409 . S
C443 H435 0.930 . S
C443 C444 1.355 . S
C443 C445 1.415 . S
C444 C443 1.355 . S
C444 C446 1.419 . S
C445 C440 1.425 . S
C445 C442 1.409 . S
C445 C443 1.415 . S
C446 H436 0.930 . S
C446 C444 1.419 . S
C446 C447 1.362 . S
C447 H437 0.930 . S
C447 C440 1.409 . S
C447 C446 1.362 . S
H448 C454 0.930 . S
H449 C457 0.930 . S
H450 C458 0.930 . S
H451 C459 0.930 . S
H452 C462 0.930 . S
H453 C463 0.930 . S
C454 H448 0.930 . S
C454 C455 1.355 . S
C454 C456 1.415 . S
C455 C454 1.355 . S
C455 C457 1.419 . S
C456 C454 1.415 . S
C456 C461 1.425 . S
C456 C463 1.409 . S
C457 H449 0.930 . S
C457 C455 1.419 . S
C457 C458 1.362 . S
C458 H450 0.930 . S
C458 C457 1.362 . S
C458 C461 1.409 . S
C459 H451 0.930 . S
C459 C460 1.355 . S
C459 C461 1.415 . S
C460 C459 1.355 . S
C460 C462 1.419 . S
C461 C456 1.425 . S
C461 C458 1.409 . S
C461 C459 1.415 . S
C462 H452 0.930 . S
C462 C460 1.419 . S
C462 C463 1.362 . S
C463 H453 0.930 . S
C463 C456 1.409 . S
C463 C462 1.362 . S
H464 C470 0.930 . S
H465 C473 0.930 . S
H466 C474 0.930 . S
H467 C475 0.930 . S
H468 C478 0.930 . S
H469 C479 0.930 . S
C470 H464 0.930 . S
C470 C471 1.355 . S
C470 C472 1.415 . S
C471 C470 1.355 . S
C471 C473 1.419 . S
C472 C470 1.415 . S
C472 C477 1.425 . S
C472 C479 1.409 . S
C473 H465 0.930 . S
C473 C471 1.419 . S
C473 C474 1.362 . S
C474 H466 0.930 . S
C474 C473 1.362 . S
C474 C477 1.409 . S
C475 H467 0.930 . S
C475 C476 1.355 . S
C475 C477 1.415 . S
C476 C475 1.355 . S
C476 C478 1.419 . S
C477 C472 1.425 . S
C477 C474 1.409 . S
C477 C475 1.415 . S
C478 H468 0.930 . S
C478 C476 1.419 . S
C478 C479 1.362 . S
C479 H469 0.930 . S
C479 C472 1.409 . S
C479 C478 1.362 . S
H480 C486 0.930 . S
H481 C489 0.930 . S
H482 C490 0.930 . S
H483 C491 0.930 . S
H484 C494 0.930 . S
H485 C495 0.930 . S
C486 H480 0.930 . S
C486 C487 1.355 . S
C486 C488 1.415 . S
C487 C486 1.355 . S
C487 C489 1.419 . S
C488 C486 1.415 . S
C488 C493 1.425 1_556 S
C488 C495 1.409 1_556 S
C489 H481 0.930 . S
C489 C487 1.419 . S
C489 C490 1.362 . S
C490 H482 0.930 . S
C490 C489 1.362 . S
C490 C493 1.409 1_556 S
C491 H483 0.930 . S
C491 C492 1.355 . S
C491 C493 1.415 . S
C492 C491 1.355 . S
C492 C494 1.419 . S
C493 C488 1.425 1_554 S
C493 C490 1.409 1_554 S
C493 C491 1.415 . S
C494 H484 0.930 . S
C494 C492 1.419 . S
C494 C495 1.362 . S
C495 H485 0.930 . S
C495 C488 1.409 1_554 S
C495 C494 1.362 . S
H496 C502 0.930 . S
H497 C505 0.930 . S
H498 C506 0.930 . S
H499 C507 0.930 . S
H500 C510 0.930 . S
H501 C511 0.930 . S
C502 H496 0.930 . S
C502 C503 1.355 . S
C502 C504 1.415 . S
C503 C502 1.355 . S
C503 C505 1.419 . S
C504 C502 1.415 . S
C504 C509 1.425 . S
C504 C511 1.409 . S
C505 H497 0.930 . S
C505 C503 1.419 . S
C505 C506 1.362 . S
C506 H498 0.930 . S
C506 C505 1.362 . S
C506 C509 1.409 . S
C507 H499 0.930 . S
C507 C508 1.355 . S
C507 C509 1.415 . S
C508 C507 1.355 . S
C508 C510 1.419 . S
C509 C504 1.425 . S
C509 C506 1.409 . S
C509 C507 1.415 . S
C510 H500 0.930 . S
C510 C508 1.419 . S
C510 C511 1.362 . S
C511 H501 0.930 . S
C511 C504 1.409 . S
C511 C510 1.362 . S
H512 C518 0.930 . S
H513 C521 0.930 . S
H514 C522 0.930 . S
H515 C523 0.930 . S
H516 C526 0.930 . S
H517 C527 0.930 . S
C518 H512 0.930 . S
C518 C519 1.355 . S
C518 C520 1.415 . S
C519 C518 1.355 . S
C519 C521 1.419 . S
C520 C518 1.415 . S
C520 C525 1.425 1_554 S
C520 C527 1.409 1_554 S
C521 H513 0.930 . S
C521 C519 1.419 . S
C521 C522 1.362 . S
C522 H514 0.930 . S
C522 C521 1.362 . S
C522 C525 1.409 1_554 S
C523 H515 0.930 . S
C523 C524 1.355 . S
C523 C525 1.415 . S
C524 C523 1.355 . S
C524 C526 1.419 . S
C525 C520 1.425 1_556 S
C525 C522 1.409 1_556 S
C525 C523 1.415 . S
C526 H516 0.930 . S
C526 C524 1.419 . S
C526 C527 1.362 . S
C527 H517 0.930 . S
C527 C520 1.409 1_556 S
C527 C526 1.362 . S
H528 C534 0.930 . S
H529 C537 0.930 . S
H530 C538 0.930 . S
H531 C539 0.930 . S
H532 C542 0.930 . S
H533 C543 0.930 . S
C534 H528 0.930 . S
C534 C535 1.355 . S
C534 C536 1.415 . S
C535 C534 1.355 . S
C535 C537 1.419 . S
C536 C534 1.415 . S
C536 C541 1.425 . S
C536 C543 1.409 . S
C537 H529 0.930 . S
C537 C535 1.419 . S
C537 C538 1.362 . S
C538 H530 0.930 . S
C538 C537 1.362 . S
C538 C541 1.409 . S
C539 H531 0.930 . S
C539 C540 1.355 . S
C539 C541 1.415 . S
C540 C539 1.355 . S
C540 C542 1.419 . S
C541 C536 1.425 . S
C541 C538 1.409 . S
C541 C539 1.415 . S
C542 H532 0.930 . S
C542 C540 1.419 . S
C542 C543 1.362 . S
C543 H533 0.930 . S
C543 C536 1.409 . S
C543 C542 1.362 . S
H544 C550 0.930 . S
H545 C553 0.930 . S
H546 C554 0.930 . S
H547 C555 0.930 . S
H548 C558 0.930 . S
H549 C559 0.930 . S
C550 H544 0.930 . S
C550 C551 1.355 . S
C550 C552 1.415 . S
C551 C550 1.355 . S
C551 C553 1.419 . S
C552 C550 1.415 . S
C552 C557 1.425 . S
C552 C559 1.409 . S
C553 H545 0.930 . S
C553 C551 1.419 . S
C553 C554 1.362 . S
C554 H546 0.930 . S
C554 C553 1.362 . S
C554 C557 1.409 . S
C555 H547 0.930 . S
C555 C556 1.355 . S
C555 C557 1.415 . S
C556 C555 1.355 . S
C556 C558 1.419 . S
C557 C552 1.425 . S
C557 C554 1.409 . S
C557 C555 1.415 . S
C558 H548 0.930 . S
C558 C556 1.419 . S
C558 C559 1.362 . S
C559 H549 0.930 . S
C559 C552 1.409 . S
C559 C558 1.362 . S
H560 C566 0.930 . S
H561 C569 0.930 . S
H562 C570 0.930 . S
H563 C571 0.930 . S
H564 C574 0.930 . S
H565 C575 0.930 . S
C566 H560 0.930 . S
C566 C567 1.355 . S
C566 C568 1.415 . S
C567 C566 1.355 . S
C567 C569 1.419 . S
C568 C566 1.415 . S
C568 C573 1.425 1_556 S
C568 C575 1.409 1_556 S
C569 H561 0.930 . S
C569 C567 1.419 . S
C569 C570 1.362 . S
C570 H562 0.930 . S
C570 C569 1.362 . S
C570 C573 1.409 1_556 S
C571 H563 0.930 . S
C571 C572 1.355 . S
C571 C573 1.415 . S
C572 C571 1.355 . S
C572 C574 1.419 . S
C573 C568 1.425 1_554 S
C573 C570 1.409 1_554 S
C573 C571 1.415 . S
C574 H564 0.930 . S
C574 C572 1.419 . S
C574 C575 1.362 . S
C575 H565 0.930 . S
C575 C568 1.409 1_554 S
C575 C574 1.362 . S
H576 C582 0.930 . S
H577 C585 0.930 . S
H578 C586 0.930 . S
H579 C587 0.930 . S
H580 C590 0.930 . S
H581 C591 0.930 . S
C582 H576 0.930 . S
C582 C583 1.355 . S
C582 C584 1.415 . S
C583 C582 1.355 . S
C583 C585 1.419 . S
C584 C582 1.415 . S
C584 C589 1.425 . S
C584 C591 1.409 . S
C585 H577 0.930 . S
C585 C583 1.419 . S
C585 C586 1.362 . S
C586 H578 0.930 . S
C586 C585 1.362 . S
C586 C589 1.409 . S
C587 H579 0.930 . S
C587 C588 1.355 . S
C587 C589 1.415 . S
C588 C587 1.355 . S
C588 C590 1.419 . S
C589 C584 1.425 . S
C589 C586 1.409 . S
C589 C587 1.415 . S
C590 H580 0.930 . S
C590 C588 1.419 . S
C590 C591 1.362 . S
C591 H581 0.930 . S
C591 C584 1.409 . S
C591 C590 1.362 . S
H592 C598 0.930 . S
H593 C601 0.930 . S
H594 C602 0.930 . S
H595 C603 0.930 . S
H596 C606 0.930 . S
H597 C607 0.930 . S
C598 H592 0.930 . S
C598 C599 1.355 . S
C598 C600 1.415 . S
C599 C598 1.355 . S
C599 C601 1.419 . S
C600 C598 1.415 . S
C600 C605 1.425 1_554 S
C600 C607 1.409 1_554 S
C601 H593 0.930 . S
C601 C599 1.419 . S
C601 C602 1.362 . S
C602 H594 0.930 . S
C602 C601 1.362 . S
C602 C605 1.409 1_554 S
C603 H595 0.930 . S
C603 C604 1.355 . S
C603 C605 1.415 . S
C604 C603 1.355 . S
C604 C606 1.419 . S
C605 C600 1.425 1_556 S
C605 C602 1.409 1_556 S
C605 C603 1.415 . S
C606 H596 0.930 . S
C606 C604 1.419 . S
C606 C607 1.362 . S
C607 H597 0.930 . S
C607 C600 1.409 1_556 S
C607 C606 1.362 . S
H608 C614 0.930 . S
H609 C617 0.930 . S
H610 C618 0.930 . S
H611 C619 0.930 . S
H612 C622 0.930 . S
H613 C623 0.930 . S
C614 H608 0.930 . S
C614 C615 1.355 . S
C614 C616 1.415 . S
C615 C614 1.355 . S
C615 C617 1.419 . S
C616 C614 1.415 . S
C616 C621 1.425 . S
C616 C623 1.409 . S
C617 H609 0.930 . S
C617 C615 1.419 . S
C617 C618 1.362 . S
C618 H610 0.930 . S
C618 C617 1.362 . S
C618 C621 1.409 . S
C619 H611 0.930 . S
C619 C620 1.355 . S
C619 C621 1.415 . S
C620 C619 1.355 . S
C620 C622 1.419 . S
C621 C616 1.425 . S
C621 C618 1.409 . S
C621 C619 1.415 . S
C622 H612 0.930 . S
C622 C620 1.419 . S
C622 C623 1.362 . S
C623 H613 0.930 . S
C623 C616 1.409 . S
C623 C622 1.362 . S
H624 C630 0.930 . S
H625 C633 0.930 . S
H626 C634 0.930 . S
H627 C635 0.930 . S
H628 C638 0.930 . S
H629 C639 0.930 . S
C630 H624 0.930 . S
C630 C631 1.355 . S
C630 C632 1.415 . S
C631 C630 1.355 . S
C631 C633 1.419 . S
C632 C630 1.415 . S
C632 C637 1.425 . S
C632 C639 1.409 . S
C633 H625 0.930 . S
C633 C631 1.419 . S
C633 C634 1.362 . S
C634 H626 0.930 . S
C634 C633 1.362 . S
C634 C637 1.409 . S
C635 H627 0.930 . S
C635 C636 1.355 . S
C635 C637 1.415 . S
C636 C635 1.355 . S
C636 C638 1.419 . S
C637 C632 1.425 . S
C637 C634 1.409 . S
C637 C635 1.415 . S
C638 H628 0.930 . S
C638 C636 1.419 . S
C638 C639 1.362 . S
C639 H629 0.930 . S
C639 C632 1.409 . S
C639 C638 1.362 . S
H640 C646 0.930 . S
H641 C649 0.930 . S
H642 C650 0.930 . S
H643 C651 0.930 . S
H644 C654 0.930 . S
H645 C655 0.930 . S
C646 H640 0.930 . S
C646 C647 1.355 . S
C646 C648 1.415 . S
C647 C646 1.355 . S
C647 C649 1.419 . S
C648 C646 1.415 . S
C648 C653 1.425 . S
C648 C655 1.409 . S
C649 H641 0.930 . S
C649 C647 1.419 . S
C649 C650 1.362 . S
C650 H642 0.930 . S
C650 C649 1.362 . S
C650 C653 1.409 . S
C651 H643 0.930 . S
C651 C652 1.355 . S
C651 C653 1.415 . S
C652 C651 1.355 . S
C652 C654 1.419 . S
C653 C648 1.425 . S
C653 C650 1.409 . S
C653 C651 1.415 . S
C654 H644 0.930 . S
C654 C652 1.419 . S
C654 C655 1.362 . S
C655 H645 0.930 . S
C655 C648 1.409 . S
C655 C654 1.362 . S
H656 C662 0.930 . S
H657 C665 0.930 . S
H658 C666 0.930 . S
H659 C667 0.930 . S
H660 C670 0.930 . S
H661 C671 0.930 . S
C662 H656 0.930 . S
C662 C663 1.355 . S
C662 C664 1.415 . S
C663 C662 1.355 . S
C663 C665 1.419 . S
C664 C662 1.415 . S
C664 C669 1.425 . S
C664 C671 1.409 . S
C665 H657 0.930 . S
C665 C663 1.419 . S
C665 C666 1.362 . S
C666 H658 0.930 . S
C666 C665 1.362 . S
C666 C669 1.409 . S
C667 H659 0.930 . S
C667 C668 1.355 . S
C667 C669 1.415 . S
C668 C667 1.355 . S
C668 C670 1.419 . S
C669 C664 1.425 . S
C669 C666 1.409 . S
C669 C667 1.415 . S
C670 H660 0.930 . S
C670 C668 1.419 . S
C670 C671 1.362 . S
C671 H661 0.930 . S
C671 C664 1.409 . S
C671 C670 1.362 . S
H672 C678 0.930 . S
H673 C681 0.930 . S
H674 C682 0.930 . S
H675 C683 0.930 . S
H676 C686 0.930 . S
H677 C687 0.930 . S
C678 H672 0.930 . S
C678 C679 1.355 . S
C678 C680 1.415 . S
C679 C678 1.355 . S
C679 C681 1.419 . S
C680 C678 1.415 . S
C680 C685 1.425 . S
C680 C687 1.409 . S
C681 H673 0.930 . S
C681 C679 1.419 . S
C681 C682 1.362 . S
C682 H674 0.930 . S
C682 C681 1.362 . S
C682 C685 1.409 . S
C683 H675 0.930 . S
C683 C684 1.355 . S
C683 C685 1.415 . S
C684 C683 1.355 . S
C684 C686 1.419 . S
C685 C680 1.425 . S
C685 C682 1.409 . S
C685 C683 1.415 . S
C686 H676 0.930 . S
C686 C684 1.419 . S
C686 C687 1.362 . S
C687 H677 0.930 . S
C687 C680 1.409 . S
C687 C686 1.362 . S
H688 C694 0.930 . S
H689 C697 0.930 . S
H690 C698 0.930 . S
H691 C699 0.930 . S
H692 C702 0.930 . S
H693 C703 0.930 . S
C694 H688 0.930 . S
C694 C695 1.355 . S
C694 C696 1.415 . S
C695 C694 1.355 . S
C695 C697 1.419 . S
C696 C694 1.415 . S
C696 C701 1.425 . S
C696 C703 1.409 . S
C697 H689 0.930 . S
C697 C695 1.419 . S
C697 C698 1.362 . S
C698 H690 0.930 . S
C698 C697 1.362 . S
C698 C701 1.409 . S
C699 H691 0.930 . S
C699 C700 1.355 . S
C699 C701 1.415 . S
C700 C699 1.355 . S
C700 C702 1.419 . S
C701 C696 1.425 . S
C701 C698 1.409 . S
C701 C699 1.415 . S
C702 H692 0.930 . S
C702 C700 1.419 . S
C702 C703 1.362 . S
C703 H693 0.930 . S
C703 C696 1.409 . S
C703 C702 1.362 . S
H704 C710 0.930 . S
H705 C713 0.930 . S
H706 C714 0.930 . S
H707 C715 0.930 . S
H708 C718 0.930 . S
H709 C719 0.930 . S
C710 H704 0.930 . S
C710 C711 1.355 . S
C710 C712 1.415 . S
C711 C710 1.355 . S
C711 C713 1.419 . S
C712 C710 1.415 . S
C712 C717 1.425 . S
C712 C719 1.409 . S
C713 H705 0.930 . S
C713 C711 1.419 . S
C713 C714 1.362 . S
C714 H706 0.930 . S
C714 C713 1.362 . S
C714 C717 1.409 . S
C715 H707 0.930 . S
C715 C716 1.355 . S
C715 C717 1.415 . S
C716 C715 1.355 . S
C716 C718 1.419 . S
C717 C712 1.425 . S
C717 C714 1.409 . S
C717 C715 1.415 . S
C718 H708 0.930 . S
C718 C716 1.419 . S
C718 C719 1.362 . S
C719 H709 0.930 . S
C719 C712 1.409 . S
C719 C718 1.362 . S
H720 C726 0.930 . S
H721 C729 0.930 . S
H722 C730 0.930 . S
H723 C731 0.930 . S
H724 C734 0.930 . S
H725 C735 0.930 . S
C726 H720 0.930 . S
C726 C727 1.355 . S
C726 C728 1.415 . S
C727 C726 1.355 . S
C727 C729 1.419 . S
C728 C726 1.415 . S
C728 C733 1.425 . S
C728 C735 1.409 . S
C729 H721 0.930 . S
C729 C727 1.419 . S
C729 C730 1.362 . S
C730 H722 0.930 . S
C730 C729 1.362 . S
C730 C733 1.409 . S
C731 H723 0.930 . S
C731 C732 1.355 . S
C731 C733 1.415 . S
C732 C731 1.355 . S
C732 C734 1.419 . S
C733 C728 1.425 . S
C733 C730 1.409 . S
C733 C731 1.415 . S
C734 H724 0.930 . S
C734 C732 1.419 . S
C734 C735 1.362 . S
C735 H725 0.930 . S
C735 C728 1.409 . S
C735 C734 1.362 . S
C231 C0 1.745 . S
C236 C41 1.756 . S
C247 C54 1.756 . S
C252 C26 1.756 . S
C263 C69 1.713 . S
C268 C96 1.702 . S
C279 C111 1.706 . S
C284 C82 1.701 . S
C295 C124 1.758 . S
C300 C152 1.753 . S
C311 C166 1.723 . S
C316 C139 1.708 . S
C327 C181 1.701 . S
C332 C208 1.709 . S
C343 C210 1.747 . S
C348 C183 1.731 . S
C359 C56 1.610 . S
C364 C13 1.599 . S
C375 C15 1.603 . S
C380 C71 1.613 . S
C391 C28 1.607 . S
C396 C85 1.614 . S
C407 C98 1.614 . S
C412 C43 1.609 . S
C423 C113 1.582 . S
C428 C168 1.591 . S
C439 C126 1.584 . S
C444 C194 1.586 . S
C455 C141 1.614 . S
C460 C197 1.608 . S
C471 C155 1.596 . S
C476 C223 1.584 . S
C487 C140 1.585 . S
C492 C12 1.567 . S
C503 C154 1.574 . S
C508 C14 1.577 . S
C519 C29 1.571 . S
C524 C112 1.581 . S
C535 C42 1.560 . S
C540 C127 1.591 . S
C551 C57 1.565 . S
C556 C196 1.588 . S
C567 C70 1.587 . S
C572 C222 1.564 . S
C583 C84 1.566 . S
C588 C169 1.586 . S
C599 C195 1.580 . S
C604 C99 1.572 . S
C615 C1 1.670 . S
C620 C211 1.687 . S
C631 C180 1.664 . S
C636 C27 1.693 . S
C647 C40 1.673 . S
C652 C182 1.683 . S
C663 C209 1.692 . S
C668 C55 1.664 . S
C679 C138 1.691 . S
C684 C68 1.664 . S
C695 C83 1.686 . S
C700 C153 1.670 . S
C711 C167 1.693 . S
C716 C97 1.663 . S
C727 C125 1.687 . S
C732 C110 1.667 . S
