# Generated by pormake.
# Topology wjx, (5)-cn, num edge types: 1
# Building blocks:
#     Node 0, Type 0, BuildingBlock: XOMCOT_clean_sbu_1, # of connection points: 5
#     Node 1, Type 0, BuildingBlock: XOMCOT_clean_sbu_1, # of connection points: 5
#     Node 2, Type 0, BuildingBlock: XOMCOT_clean_sbu_1, # of connection points: 5
#     Node 3, Type 0, BuildingBlock: XOMCOT_clean_sbu_1, # of connection points: 5
#     Node 4, Type 0, BuildingBlock: XOMCOT_clean_sbu_1, # of connection points: 5
#     Node 5, Type 0, BuildingBlock: XOMCOT_clean_sbu_1, # of connection points: 5
#     Node 6, Type 0, BuildingBlock: XOMCOT_clean_sbu_1, # of connection points: 5
#     Node 7, Type 0, BuildingBlock: XOMCOT_clean_sbu_1, # of connection points: 5
#     Node 8, Type 0, BuildingBlock: XOMCOT_clean_sbu_1, # of connection points: 5
#     Node 9, Type 0, BuildingBlock: XOMCOT_clean_sbu_1, # of connection points: 5
#     Node 10, Type 0, BuildingBlock: XOMCOT_clean_sbu_1, # of connection points: 5
#     Node 11, Type 0, BuildingBlock: XOMCOT_clean_sbu_1, # of connection points: 5
#     Edge 12, Type (0, 0), BuildingBlock: CIFDUS_clean_linker_0, # of connection points: 2
#     Edge 13, Type (0, 0), BuildingBlock: CIFDUS_clean_linker_0, # of connection points: 2
#     Edge 14, Type (0, 0), BuildingBlock: CIFDUS_clean_linker_0, # of connection points: 2
#     Edge 15, Type (0, 0), BuildingBlock: CIFDUS_clean_linker_0, # of connection points: 2
#     Edge 16, Type (0, 0), BuildingBlock: CIFDUS_clean_linker_0, # of connection points: 2
#     Edge 17, Type (0, 0), BuildingBlock: CIFDUS_clean_linker_0, # of connection points: 2
#     Edge 18, Type (0, 0), BuildingBlock: CIFDUS_clean_linker_0, # of connection points: 2
#     Edge 19, Type (0, 0), BuildingBlock: CIFDUS_clean_linker_0, # of connection points: 2
#     Edge 20, Type (0, 0), BuildingBlock: CIFDUS_clean_linker_0, # of connection points: 2
#     Edge 21, Type (0, 0), BuildingBlock: CIFDUS_clean_linker_0, # of connection points: 2
#     Edge 22, Type (0, 0), BuildingBlock: CIFDUS_clean_linker_0, # of connection points: 2
#     Edge 23, Type (0, 0), BuildingBlock: CIFDUS_clean_linker_0, # of connection points: 2
#     Edge 24, Type (0, 0), BuildingBlock: CIFDUS_clean_linker_0, # of connection points: 2
#     Edge 25, Type (0, 0), BuildingBlock: CIFDUS_clean_linker_0, # of connection points: 2
#     Edge 26, Type (0, 0), BuildingBlock: CIFDUS_clean_linker_0, # of connection points: 2
#     Edge 27, Type (0, 0), BuildingBlock: CIFDUS_clean_linker_0, # of connection points: 2
#     Edge 28, Type (0, 0), BuildingBlock: CIFDUS_clean_linker_0, # of connection points: 2
#     Edge 29, Type (0, 0), BuildingBlock: CIFDUS_clean_linker_0, # of connection points: 2
#     Edge 30, Type (0, 0), BuildingBlock: CIFDUS_clean_linker_0, # of connection points: 2
#     Edge 31, Type (0, 0), BuildingBlock: CIFDUS_clean_linker_0, # of connection points: 2
#     Edge 32, Type (0, 0), BuildingBlock: CIFDUS_clean_linker_0, # of connection points: 2
#     Edge 33, Type (0, 0), BuildingBlock: CIFDUS_clean_linker_0, # of connection points: 2
#     Edge 34, Type (0, 0), BuildingBlock: CIFDUS_clean_linker_0, # of connection points: 2
#     Edge 35, Type (0, 0), BuildingBlock: CIFDUS_clean_linker_0, # of connection points: 2
#     Edge 36, Type (0, 0), BuildingBlock: CIFDUS_clean_linker_0, # of connection points: 2
#     Edge 37, Type (0, 0), BuildingBlock: CIFDUS_clean_linker_0, # of connection points: 2
#     Edge 38, Type (0, 0), BuildingBlock: CIFDUS_clean_linker_0, # of connection points: 2
#     Edge 39, Type (0, 0), BuildingBlock: CIFDUS_clean_linker_0, # of connection points: 2
#     Edge 40, Type (0, 0), BuildingBlock: CIFDUS_clean_linker_0, # of connection points: 2
#     Edge 41, Type (0, 0), BuildingBlock: CIFDUS_clean_linker_0, # of connection points: 2
# Relax obj value: 0.117
# Max RMSD: 0.104
# Mean RMSD: 0.104
data_MOF--net-wjx--node1-XOMCOT_clean_sbu_1--edge1-CIFDUS_clean_linker_0
_symmetry_space_group_name_H-M    P1
_symmetry_Int_Tables_number       1
_symmetry_cell_setting            triclinic
loop_
_symmetry_equiv_pos_as_xyz
'x, y, z'
_cell_length_a     64.2075
_cell_length_b     64.173263
_cell_length_c     15.74945
_cell_angle_alpha  89.971597
_cell_angle_beta   90.048349
_cell_angle_gamma 120.00226
loop_
_atom_site_label
_atom_site_type_symbol
_atom_site_fract_x
_atom_site_fract_y
_atom_site_fract_z
_atom_type_partial_charge
C0 C 0.15564 0.45327 0.22375 0.0
C1 C 0.15965 0.45468 0.30995 0.0
N2 N 0.13887 0.43951 0.34989 0.0
N3 N 0.13243 0.43728 0.20764 0.0
C4 C 0.12261 0.42916 0.28584 0.0
H5 H 0.16874 0.46381 0.1757 0.0
Co6 Co 0.11938 0.43193 0.09631 0.0
C7 C 0.07409 0.38539 0.10947 0.0
O8 O 0.07876 0.37809 0.0378 0.0
N9 N 0.10636 0.4271 0.9828 0.0
C10 C 0.08101 0.42321 0.87891 0.0
C11 C 0.08478 0.42492 0.96511 0.0
C12 C 0.11542 0.42684 0.90464 0.0
N13 N 0.10026 0.42436 0.83994 0.0
O14 O 0.13096 0.40989 0.07632 0.0
H15 H 0.07254 0.42494 1.0122 0.0
H16 H 0.13283 0.42853 0.89485 0.0
O17 O 0.08891 0.40611 0.1391 0.0
C18 C 0.15157 0.41954 0.04088 0.0
O19 O 0.16173 0.44218 0.01738 0.0
N20 N 0.1101 0.4549 0.11644 0.0
C21 C 0.10381 0.49413 0.14964 0.0
C22 C 0.09059 0.47246 0.19444 0.0
C23 C 0.09398 0.45299 0.17686 0.0
C24 C 0.12286 0.47567 0.0716 0.0
C25 C 0.11985 0.49544 0.08658 0.0
H26 H 0.0842 0.43675 0.21389 0.0
H27 H 0.13595 0.47706 0.02536 0.0
H28 H 0.10382 0.41621 0.29568 0.0
H29 H 0.17656 0.46672 0.34055 0.0
H30 H 0.06541 0.42192 0.84764 0.0
H31 H 0.078 0.47069 0.24352 0.0
H32 H 0.13071 0.51192 0.05148 0.0
C33 C 0.71305 0.1573 0.53978 0.0
C34 C 0.71483 0.16129 0.62601 0.0
N35 N 0.70337 0.13993 0.66672 0.0
N36 N 0.70071 0.13349 0.52427 0.0
C37 C 0.69498 0.12336 0.60309 0.0
H38 H 0.72031 0.17107 0.49138 0.0
Co39 Co 0.69398 0.12004 0.41279 0.0
C40 C 0.6951 0.07425 0.4391 0.0
O41 O 0.70757 0.07696 0.36978 0.0
N42 N 0.68688 0.10666 0.29969 0.0
C43 C 0.66799 0.08042 0.19481 0.0
C44 C 0.66945 0.08398 0.28126 0.0
C45 C 0.6953 0.11668 0.22176 0.0
N46 N 0.68423 0.101 0.15682 0.0
O47 O 0.72789 0.13193 0.39677 0.0
H48 H 0.65806 0.07082 0.32787 0.0
H49 H 0.70918 0.13511 0.21195 0.0
O50 O 0.68942 0.09001 0.45962 0.0
C51 C 0.73885 0.15233 0.35974 0.0
O52 O 0.72634 0.16221 0.33367 0.0
N53 N 0.66145 0.11034 0.42795 0.0
C54 C 0.6148 0.10241 0.44692 0.0
C55 C 0.62223 0.0882 0.49085 0.0
C56 C 0.64566 0.0924 0.48037 0.0
C57 C 0.65453 0.1242 0.38442 0.0
C58 C 0.63125 0.12046 0.39249 0.0
H59 H 0.65105 0.08147 0.51573 0.0
H60 H 0.66736 0.13852 0.34406 0.0
H61 H 0.68435 0.10424 0.61367 0.0
H62 H 0.72415 0.17879 0.65593 0.0
H63 H 0.65537 0.06405 0.16227 0.0
H64 H 0.61005 0.074 0.53315 0.0
H65 H 0.62642 0.13209 0.35832 0.0
C66 C 0.55542 0.70666 0.88606 0.0
C67 C 0.55524 0.71046 0.97186 0.0
N68 N 0.57215 0.70705 1.00974 0.0
N69 N 0.57238 0.70086 0.86804 0.0
C70 C 0.58252 0.70148 0.94484 0.0
H71 H 0.54312 0.70701 0.83994 0.0
Co72 Co 0.57539 0.69124 0.75625 0.0
C73 C 0.60354 0.66696 0.81504 0.0
O74 O 0.58466 0.64534 0.81743 0.0
N75 N 0.57861 0.68195 0.64179 0.0
C76 C 0.58104 0.66019 0.53571 0.0
C77 C 0.57881 0.66159 0.62185 0.0
C78 C 0.58068 0.69259 0.56462 0.0
N79 N 0.58235 0.67975 0.49876 0.0
O80 O 0.59881 0.72423 0.73105 0.0
H81 H 0.57656 0.64791 0.66647 0.0
H82 H 0.58098 0.70943 0.55637 0.0
O83 O 0.60164 0.68517 0.79269 0.0
C84 C 0.58798 0.73471 0.70082 0.0
O85 O 0.56464 0.72201 0.68858 0.0
N86 N 0.54968 0.65948 0.78033 0.0
C87 C 0.50645 0.61687 0.81383 0.0
C88 C 0.52482 0.62672 0.87457 0.0
C89 C 0.54594 0.64833 0.85756 0.0
C90 C 0.53152 0.65044 0.72178 0.0
C91 C 0.50998 0.62905 0.73664 0.0
H92 H 0.55929 0.65591 0.90702 0.0
H93 H 0.53329 0.66024 0.66388 0.0
H94 H 0.59645 0.69687 0.95345 0.0
H95 H 0.54259 0.71419 1.00422 0.0
H96 H 0.58092 0.64533 0.50288 0.0
H97 H 0.52254 0.6183 0.9361 0.0
H98 H 0.49605 0.62232 0.68854 0.0
C99 C 0.86952 0.55876 0.22277 0.0
C100 C 0.8683 0.55927 0.30977 0.0
N101 N 0.88696 0.58015 0.33766 0.0
N102 N 0.88879 0.57923 0.19563 0.0
C103 C 0.89889 0.59202 0.26689 0.0
H104 H 0.85804 0.54373 0.18223 0.0
Co105 Co 0.90035 0.58396 0.08515 0.0
C106 C 0.94545 0.6313 0.09221 0.0
O107 O 0.93968 0.6384 0.02228 0.0
N108 N 0.91146 0.58785 0.97414 0.0
C109 C 0.93297 0.59256 0.8581 0.0
C110 C 0.93314 0.59242 0.94545 0.0
C111 C 0.8983 0.58466 0.90366 0.0
N112 N 0.91099 0.58769 0.83192 0.0
O113 O 0.88804 0.60559 0.06328 0.0
H114 H 0.94798 0.59507 0.98546 0.0
H115 H 0.87962 0.57982 0.90521 0.0
O116 O 0.93134 0.61044 0.12258 0.0
C117 C 0.86528 0.5944 0.05254 0.0
O118 O 0.85343 0.57084 0.05835 0.0
N119 N 0.91033 0.56153 0.1044 0.0
C120 C 0.91706 0.52245 0.13514 0.0
C121 C 0.93132 0.54453 0.17667 0.0
C122 C 0.92755 0.5639 0.16084 0.0
C123 C 0.89672 0.54044 0.06228 0.0
C124 C 0.89987 0.52075 0.07622 0.0
H125 H 0.93783 0.58038 0.19625 0.0
H126 H 0.88286 0.53875 0.01901 0.0
H127 H 0.91527 0.60922 0.26729 0.0
H128 H 0.85567 0.54461 0.34947 0.0
H129 H 0.94768 0.59531 0.81725 0.0
H130 H 0.94455 0.54651 0.22348 0.0
H131 H 0.88865 0.50419 0.04201 0.0
C132 C 0.3208 0.86542 0.54735 0.0
C133 C 0.31885 0.86425 0.63435 0.0
N134 N 0.31713 0.88327 0.66156 0.0
N135 N 0.32035 0.88507 0.52003 0.0
C136 C 0.31777 0.89539 0.59069 0.0
H137 H 0.32358 0.85343 0.50682 0.0
Co138 Co 0.32586 0.89593 0.40947 0.0
C139 C 0.32261 0.94009 0.41359 0.0
O140 O 0.30785 0.93211 0.34849 0.0
N141 N 0.33162 0.90652 0.2973 0.0
C142 C 0.34841 0.92802 0.18107 0.0
C143 C 0.34923 0.92794 0.26822 0.0
C144 C 0.32056 0.89384 0.22693 0.0
N145 N 0.33036 0.90649 0.15524 0.0
O146 O 0.29168 0.88307 0.39544 0.0
H147 H 0.36223 0.94236 0.30787 0.0
H148 H 0.30582 0.87553 0.22796 0.0
O149 O 0.33076 0.92725 0.44502 0.0
C150 C 0.28096 0.86073 0.37693 0.0
O151 O 0.29386 0.85023 0.36649 0.0
N152 N 0.35863 0.90635 0.42393 0.0
C153 C 0.40498 0.91415 0.45076 0.0
C154 C 0.3962 0.92649 0.4991 0.0
C155 C 0.37293 0.92239 0.48449 0.0
C156 C 0.36688 0.89427 0.37632 0.0
C157 C 0.3901 0.89813 0.3879 0.0
H158 H 0.36612 0.9314 0.52412 0.0
H159 H 0.35509 0.88105 0.33053 0.0
H160 H 0.31718 0.91193 0.59055 0.0
H161 H 0.32008 0.85123 0.67452 0.0
H162 H 0.36076 0.94246 0.14002 0.0
H163 H 0.40712 0.93895 0.54842 0.0
H164 H 0.39599 0.88791 0.35028 0.0
C165 C 0.46294 0.30629 0.88451 0.0
C166 C 0.46473 0.30393 0.9707 0.0
N167 N 0.44693 0.30553 1.01029 0.0
N168 N 0.44411 0.30941 0.86814 0.0
C169 C 0.43462 0.30878 0.94612 0.0
H170 H 0.47507 0.30642 0.83662 0.0
Co171 Co 0.4371 0.31558 0.75675 0.0
C172 C 0.39146 0.31683 0.78231 0.0
O173 O 0.38107 0.3035 0.71511 0.0
N174 N 0.43058 0.32217 0.64327 0.0
C175 C 0.425 0.3421 0.53789 0.0
C176 C 0.42719 0.34077 0.62419 0.0
C177 C 0.43071 0.31267 0.56579 0.0
N178 N 0.42717 0.32442 0.50024 0.0
O179 O 0.41429 0.28184 0.74419 0.0
H180 H 0.42704 0.35319 0.67024 0.0
H181 H 0.43364 0.29764 0.55712 0.0
O182 O 0.41273 0.32193 0.8029 0.0
C183 C 0.4239 0.27057 0.71086 0.0
O184 O 0.44641 0.2829 0.68602 0.0
N185 N 0.46085 0.348 0.76933 0.0
C186 C 0.50053 0.3942 0.78791 0.0
C187 C 0.48032 0.38621 0.84065 0.0
C188 C 0.46064 0.36298 0.83049 0.0
C189 C 0.48029 0.35539 0.71769 0.0
C190 C 0.50023 0.37847 0.72536 0.0
H191 H 0.4456 0.35691 0.87341 0.0
H192 H 0.48049 0.34307 0.67124 0.0
H193 H 0.41911 0.31082 0.9558 0.0
H194 H 0.47874 0.30204 1.0017 0.0
H195 H 0.42285 0.35577 0.50538 0.0
H196 H 0.47976 0.39773 0.88972 0.0
H197 H 0.51559 0.38364 0.68437 0.0
C198 C 0.55752 0.85733 0.49773 0.0
C199 C 0.55663 0.85672 0.41034 0.0
N200 N 0.57193 0.87904 0.38134 0.0
N201 N 0.5733 0.87988 0.52301 0.0
C202 C 0.58164 0.89267 0.45097 0.0
H203 H 0.5476 0.84229 0.54019 0.0
Co204 Co 0.5815 0.88988 0.63323 0.0
C205 C 0.61663 0.94219 0.6265 0.0
O206 O 0.60557 0.94465 0.69267 0.0
N207 N 0.59001 0.8992 0.74628 0.0
C208 C 0.61269 0.90955 0.86237 0.0
C209 C 0.61273 0.90856 0.77565 0.0
C210 C 0.57641 0.89421 0.81689 0.0
N211 N 0.58979 0.9004 0.88834 0.0
O212 O 0.6013 0.87499 0.63588 0.0
H213 H 0.62829 0.91321 0.73647 0.0
H214 H 0.55705 0.88509 0.81682 0.0
O215 O 0.60906 0.92116 0.59498 0.0
C216 C 0.59079 0.85531 0.67756 0.0
O217 O 0.56956 0.84849 0.71062 0.0
N218 N 0.55981 0.90183 0.62995 0.0
C219 C 0.5209 0.90976 0.61071 0.0
C220 C 0.54294 0.92477 0.57068 0.0
C221 C 0.56203 0.92029 0.57994 0.0
C222 C 0.53819 0.88658 0.66657 0.0
C223 C 0.51873 0.89052 0.65962 0.0
H224 H 0.57795 0.93096 0.54263 0.0
H225 H 0.53559 0.87044 0.69773 0.0
H226 H 0.59442 0.9117 0.4493 0.0
H227 H 0.54604 0.84098 0.37142 0.0
H228 H 0.62814 0.91502 0.90313 0.0
H229 H 0.54522 0.93947 0.5305 0.0
H230 H 0.50174 0.87783 0.68856 0.0
C231 C 0.69389 0.54956 0.79161 0.0
C232 C 0.69941 0.55082 0.70704 0.0
N233 N 0.71347 0.57411 0.68597 0.0
N234 N 0.70385 0.57197 0.82434 0.0
C235 C 0.71666 0.58648 0.75905 0.0
H236 H 0.6828 0.53318 0.82665 0.0
Co237 Co 0.70036 0.57766 0.93974 0.0
C238 C 0.69014 0.61552 0.85412 0.0
O239 O 0.69169 0.61004 0.7752 0.0
N240 N 0.69722 0.58233 0.05481 0.0
C241 C 0.68441 0.58874 0.17771 0.0
C242 C 0.68085 0.58677 0.09137 0.0
C243 C 0.71003 0.58086 0.12033 0.0
N244 N 0.70279 0.58503 0.19579 0.0
O245 O 0.73454 0.60037 0.94835 0.0
H246 H 0.66642 0.58723 0.05791 0.0
H247 H 0.72408 0.57637 0.11296 0.0
O248 O 0.69315 0.60397 0.91502 0.0
C249 C 0.74825 0.5914 0.93984 0.0
O250 O 0.73864 0.56856 0.91993 0.0
N251 N 0.66734 0.55421 0.93475 0.0
C252 C 0.62082 0.51453 0.92322 0.0
C253 C 0.62772 0.53517 0.8737 0.0
C254 C 0.65108 0.55481 0.88026 0.0
C255 C 0.66086 0.53445 0.98419 0.0
C256 C 0.63768 0.51451 0.97993 0.0
H257 H 0.65626 0.5699 0.83857 0.0
H258 H 0.67405 0.53383 0.02528 0.0
H259 H 0.72772 0.60583 0.76438 0.0
H260 H 0.69238 0.53579 0.66334 0.0
H261 H 0.67354 0.59143 0.22408 0.0
H262 H 0.6153 0.53599 0.82912 0.0
H263 H 0.63336 0.49884 0.01825 0.0
C264 C 0.16429 0.71713 0.116 0.0
C265 C 0.16837 0.71917 0.02997 0.0
N266 N 0.14709 0.70959 0.98871 0.0
N267 N 0.14054 0.70656 0.13104 0.0
C268 C 0.13046 0.70219 0.05212 0.0
H269 H 0.17794 0.72278 0.16463 0.0
Co270 Co 0.12742 0.69944 0.2425 0.0
C271 C 0.08358 0.70342 0.2272 0.0
O272 O 0.08878 0.71592 0.29784 0.0
N273 N 0.1143 0.69187 0.35586 0.0
C274 C 0.08807 0.6728 0.46052 0.0
C275 C 0.09174 0.67416 0.37415 0.0
C276 C 0.12413 0.70062 0.43374 0.0
N277 N 0.10846 0.68942 0.49849 0.0
O278 O 0.14075 0.73348 0.26252 0.0
H279 H 0.07866 0.66271 0.32739 0.0
H280 H 0.14236 0.71494 0.44362 0.0
O281 O 0.0977 0.69645 0.19906 0.0
C282 C 0.16128 0.74339 0.29878 0.0
O283 O 0.1703 0.72987 0.32201 0.0
N284 N 0.11644 0.66676 0.2231 0.0
C285 C 0.10743 0.62011 0.19261 0.0
C286 C 0.09382 0.6288 0.15189 0.0
C287 C 0.09856 0.6522 0.16812 0.0
C288 C 0.12955 0.65851 0.2643 0.0
C289 C 0.12524 0.63519 0.25052 0.0
H290 H 0.08824 0.65866 0.13454 0.0
H291 H 0.14387 0.6704 0.30669 0.0
H292 H 0.11128 0.69327 0.04147 0.0
H293 H 0.18593 0.72718 1.00081 0.0
H294 H 0.07174 0.66008 0.49299 0.0
H295 H 0.07981 0.61769 0.10708 0.0
H296 H 0.13639 0.62935 0.28245 0.0
C297 C 0.45831 0.14603 0.49089 0.0
C298 C 0.45756 0.14719 0.40383 0.0
N299 N 0.4367 0.12836 0.37659 0.0
N300 N 0.43806 0.12655 0.51813 0.0
C301 C 0.42511 0.11634 0.44741 0.0
H302 H 0.47309 0.15795 0.53156 0.0
Co303 Co 0.43222 0.11574 0.62869 0.0
C304 C 0.38516 0.07109 0.62164 0.0
O305 O 0.37766 0.07879 0.68548 0.0
N306 N 0.42684 0.10513 0.74093 0.0
C307 C 0.42199 0.08364 0.85735 0.0
C308 C 0.42302 0.08372 0.77026 0.0
C309 C 0.42834 0.11781 0.81117 0.0
N310 N 0.42542 0.10516 0.88295 0.0
O311 O 0.41058 0.12827 0.63967 0.0
H312 H 0.42179 0.06935 0.73086 0.0
H313 H 0.43198 0.13614 0.81004 0.0
O314 O 0.4063 0.08428 0.59205 0.0
C315 C 0.422 0.15055 0.65923 0.0
O316 O 0.44527 0.161 0.67268 0.0
N317 N 0.45489 0.10567 0.61723 0.0
C318 C 0.49377 0.09813 0.59606 0.0
C319 C 0.47291 0.08545 0.5466 0.0
C320 C 0.45357 0.08946 0.55824 0.0
C321 C 0.47496 0.11809 0.66588 0.0
C322 C 0.49449 0.1144 0.65706 0.0
H323 H 0.43798 0.0802 0.51767 0.0
H324 H 0.47603 0.13143 0.71038 0.0
H325 H 0.40781 0.10003 0.44751 0.0
H326 H 0.47188 0.16012 0.36367 0.0
H327 H 0.41996 0.06924 0.89855 0.0
H328 H 0.47167 0.07279 0.49863 0.0
H329 H 0.51041 0.12492 0.69536 0.0
C330 C 0.30621 0.45014 0.82165 0.0
C331 C 0.3073 0.45138 0.73442 0.0
N332 N 0.31553 0.43695 0.70661 0.0
N333 N 0.31368 0.435 0.84803 0.0
C334 C 0.31936 0.42738 0.77687 0.0
H335 H 0.2999 0.45922 0.86325 0.0
Co336 Co 0.31427 0.42658 0.95854 0.0
C337 C 0.3332 0.39285 0.95839 0.0
O338 O 0.3454 0.404 0.02689 0.0
N339 N 0.314 0.41791 0.07193 0.0
C340 C 0.30193 0.39538 0.18833 0.0
C341 C 0.30056 0.39522 0.10157 0.0
C342 C 0.32305 0.43159 0.14214 0.0
N343 N 0.31601 0.4183 0.21375 0.0
O344 O 0.27972 0.40588 0.95373 0.0
H345 H 0.28971 0.37961 0.06247 0.0
H346 H 0.33379 0.45094 0.14159 0.0
O347 O 0.31975 0.39987 0.92286 0.0
C348 C 0.26817 0.41346 0.99793 0.0
O349 O 0.2803 0.43263 0.0456 0.0
N350 N 0.34754 0.4493 0.96091 0.0
C351 C 0.39297 0.49023 0.94229 0.0
C352 C 0.38825 0.46801 0.90938 0.0
C353 C 0.36523 0.44793 0.91711 0.0
C354 C 0.35187 0.47091 0.99231 0.0
C355 C 0.37447 0.49152 0.98459 0.0
H356 H 0.36153 0.43199 0.88243 0.0
H357 H 0.33724 0.47245 0.01959 0.0
H358 H 0.32619 0.41504 0.77635 0.0
H359 H 0.30166 0.46143 0.6947 0.0
H360 H 0.29217 0.37999 0.22958 0.0
H361 H 0.40177 0.46653 0.87307 0.0
H362 H 0.37723 0.50847 1.00925 0.0
C363 C 0.86013 0.31323 0.13235 0.0
C364 C 0.85891 0.31156 0.04514 0.0
N365 N 0.87725 0.30877 0.0175 0.0
N366 N 0.87917 0.31158 0.1593 0.0
C367 C 0.88894 0.30843 0.08821 0.0
H368 H 0.84864 0.31664 0.17326 0.0
Co369 Co 0.89056 0.31643 0.26966 0.0
C370 C 0.93671 0.31649 0.25492 0.0
O371 O 0.93149 0.30243 0.32159 0.0
N372 N 0.90164 0.32155 0.38141 0.0
C373 C 0.92297 0.33844 0.49797 0.0
C374 C 0.92298 0.33923 0.41076 0.0
C375 C 0.8889 0.31051 0.45175 0.0
N376 N 0.90143 0.32039 0.52364 0.0
O377 O 0.87925 0.28248 0.27883 0.0
H378 H 0.93729 0.35246 0.37137 0.0
H379 H 0.87052 0.29593 0.45058 0.0
O380 O 0.92201 0.32302 0.22907 0.0
C381 C 0.85704 0.2711 0.29896 0.0
O382 O 0.84604 0.28339 0.31271 0.0
N383 N 0.89938 0.34888 0.26061 0.0
C384 C 0.90276 0.39363 0.23902 0.0
C385 C 0.91782 0.38765 0.19325 0.0
C386 C 0.91573 0.365 0.20452 0.0
C387 C 0.88528 0.35473 0.30771 0.0
C388 C 0.88679 0.37703 0.29838 0.0
H389 H 0.92634 0.36005 0.16512 0.0
H390 H 0.87208 0.34156 0.35045 0.0
H391 H 0.90473 0.30656 0.08794 0.0
H392 H 0.84639 0.3137 1.00516 0.0
H393 H 0.93726 0.35096 0.53919 0.0
H394 H 0.93016 0.3998 0.14597 0.0
H395 H 0.87499 0.38097 0.33561 0.0
H396 H 0.03089 0.36205 0.03076 0.0
H397 H 0.06393 0.37796 0.27827 0.0
H398 H 0.02423 0.35632 0.34541 0.0
H399 H 0.9799 0.33417 0.3335 0.0
H400 H 0.94713 0.32262 0.08632 0.0
H401 H 0.98671 0.34111 0.01903 0.0
C402 C 0.02933 0.36048 0.09935 0.0
C403 C 0.05022 0.37123 0.14965 0.0
C404 C 1.00645 0.34887 0.13739 0.0
C405 C 0.04805 0.36969 0.23844 0.0
C406 C 0.02537 0.35734 0.27674 0.0
C407 C 0.9815 0.33551 0.26489 0.0
C408 C 0.96066 0.32682 0.21473 0.0
C409 C 1.00442 0.34703 0.22689 0.0
C410 C 0.96291 0.32914 0.12609 0.0
C411 C 0.98555 0.3397 0.08764 0.0
H412 H 0.68234 0.02899 0.38269 0.0
H413 H 0.68432 0.06852 0.60684 0.0
H414 H 0.66204 0.03118 0.68596 0.0
H415 H 0.63907 0.98742 0.68874 0.0
H416 H 0.63567 0.94678 0.46585 0.0
H417 H 0.66172 0.9843 0.38952 0.0
C418 C 0.67824 0.02939 0.44923 0.0
C419 C 0.6847 0.05156 0.48851 0.0
C420 C 0.66502 0.00762 0.49443 0.0
C421 C 0.67916 0.05177 0.57463 0.0
C422 C 0.66647 0.03038 0.62008 0.0
C423 C 0.64416 0.98666 0.62363 0.0
C424 C 0.6351 0.96427 0.58282 0.0
C425 C 0.65879 0.00821 0.58008 0.0
C426 C 0.64222 0.96373 0.4988 0.0
C427 C 0.65707 0.98522 0.455 0.0
H428 H 0.68614 0.64602 0.74341 0.0
H429 H 0.67063 0.62095 1.00217 0.0
H430 H 0.64456 0.63814 0.01743 0.0
H431 H 0.62085 0.65414 0.94873 0.0
H432 H 0.63762 0.68102 0.69273 0.0
H433 H 0.66895 0.66989 0.68527 0.0
C434 C 0.67743 0.64469 0.80377 0.0
C435 C 0.67953 0.63115 0.87046 0.0
C436 C 0.66267 0.655 0.81241 0.0
C437 C 0.6687 0.63036 0.94881 0.0
C438 C 0.65381 0.64033 0.9577 0.0
C439 C 0.63208 0.65842 0.89268 0.0
C440 C 0.62712 0.66844 0.82149 0.0
C441 C 0.64985 0.65175 0.88874 0.0
C442 C 0.64147 0.67369 0.74869 0.0
C443 C 0.65912 0.66699 0.74408 0.0
H444 H 0.04092 0.68478 0.30884 0.0
H445 H 0.07239 0.69881 0.05904 0.0
H446 H 0.03224 0.67952 0.99465 0.0
H447 H 0.98802 0.65672 1.00991 0.0
H448 H 0.95689 0.63844 0.26016 0.0
H449 H 0.99685 0.66125 0.32409 0.0
C450 C 0.03892 0.68393 0.24031 0.0
C451 C 0.05949 0.69354 0.18854 0.0
C452 C 0.01579 0.67187 0.20401 0.0
C453 C 0.05675 0.69171 0.09993 0.0
C454 C 0.03382 0.68064 0.06322 0.0
C455 C 0.99004 0.65803 0.07841 0.0
C456 C 0.96955 0.64617 0.13037 0.0
C457 C 0.01319 0.6704 0.11464 0.0
C458 C 0.97238 0.64746 0.21896 0.0
C459 C 0.99524 0.66051 0.2555 0.0
H460 H 0.37718 0.05295 0.46136 0.0
H461 H 0.3623 0.03218 0.7243 0.0
H462 H 0.34197 0.98963 0.68414 0.0
H463 H 0.32938 0.95818 0.57375 0.0
H464 H 0.34038 0.97893 0.31017 0.0
H465 H 0.36113 0.02149 0.3504 0.0
C466 C 0.36927 0.03905 0.50954 0.0
C467 C 0.3712 0.04559 0.59554 0.0
C468 C 0.35695 0.01462 0.48576 0.0
C469 C 0.36081 0.0275 0.65761 0.0
C470 C 0.3493 1.00319 0.63472 0.0
C471 C 0.33617 0.97209 0.52541 0.0
C472 C 0.33345 0.96556 0.43927 0.0
C473 C 0.34739 0.99651 0.54901 0.0
C474 C 0.34215 0.98362 0.37691 0.0
C475 C 0.3541 0.00793 0.39987 0.0
H476 H 0.36165 0.37641 0.01918 0.0
H477 H 0.31707 0.36976 0.80401 0.0
H478 H 0.32966 0.34386 0.73263 0.0
H479 H 0.35575 0.32541 0.72807 0.0
H480 H 0.40181 0.33512 0.94213 0.0
H481 H 0.38613 0.35739 0.01704 0.0
C482 C 0.35446 0.36922 0.95685 0.0
C483 C 0.33849 0.37518 0.91699 0.0
C484 C 0.36216 0.35489 0.91575 0.0
C485 C 0.32938 0.3655 0.83632 0.0
C486 C 0.33665 0.35075 0.79536 0.0
C487 C 0.36209 0.33213 0.79156 0.0
C488 C 0.37994 0.32845 0.82939 0.0
C489 C 0.35337 0.34563 0.83394 0.0
C490 C 0.38814 0.33757 0.91131 0.0
C491 C 0.37919 0.35041 0.95431 0.0
H492 H 0.14228 0.43995 0.75198 0.0
H493 H 0.0655 0.4071 0.71785 0.0
H494 H 0.07047 0.40864 0.5648 0.0
H495 H 0.09654 0.42049 0.43816 0.0
H496 H 0.17311 0.4513 0.47205 0.0
H497 H 0.1681 0.4492 0.62519 0.0
C498 C 0.12656 0.43288 0.71149 0.0
C499 C 0.10355 0.42382 0.7483 0.0
C500 C 0.12945 0.43354 0.62203 0.0
C501 C 0.08355 0.4148 0.69305 0.0
C502 C 0.08633 0.4155 0.60463 0.0
C503 C 0.11217 0.42654 0.47859 0.0
C504 C 0.13526 0.43644 0.44168 0.0
C505 C 0.1092 0.42506 0.56805 0.0
C506 C 0.15513 0.44414 0.4969 0.0
C507 C 0.15229 0.4428 0.58538 0.0
H508 H 0.69176 0.09895 0.75643 0.0
H509 H 0.70856 0.17261 0.78757 0.0
H510 H 0.70558 0.1676 0.94058 0.0
H511 H 0.69748 0.14226 0.06842 0.0
H512 H 0.67927 0.06831 0.03809 0.0
H513 H 0.68327 0.07348 0.88419 0.0
C514 C 0.69463 0.11391 0.79628 0.0
C515 C 0.70066 0.13625 0.75857 0.0
C516 C 0.69259 0.11088 0.88575 0.0
C517 C 0.70439 0.1553 0.813 0.0
C518 C 0.70254 0.15244 0.90142 0.0
C519 C 0.69462 0.12735 0.02826 0.0
C520 C 0.68803 0.10489 0.06565 0.0
C521 C 0.6967 0.13036 0.93886 0.0
C522 C 0.6841 0.08573 1.0117 0.0
C523 C 0.68646 0.08869 0.92328 0.0
H524 H 0.57041 0.70917 0.41113 0.0
H525 H 0.5995 0.66189 0.37807 0.0
H526 H 0.59979 0.66672 0.22508 0.0
H527 H 0.58986 0.68259 0.0978 0.0
H528 H 0.56251 0.73128 0.13035 0.0
H529 H 0.56374 0.7278 0.28403 0.0
C530 C 0.57708 0.70012 0.37083 0.0
C531 C 0.58441 0.68473 0.4077 0.0
C532 C 0.57745 0.70312 0.28144 0.0
C533 C 0.59303 0.6733 0.35292 0.0
C534 C 0.5934 0.67618 0.26463 0.0
C535 C 0.58452 0.69275 0.13826 0.0
C536 C 0.57575 0.70691 0.10117 0.0
C537 C 0.58533 0.69076 0.22775 0.0
C538 C 0.56884 0.71979 0.15595 0.0
C539 C 0.56963 0.71791 0.24447 0.0
H540 H 0.93785 0.60855 0.69275 0.0
H541 H 0.86491 0.56159 0.77613 0.0
H542 H 0.85077 0.55679 0.63004 0.0
H543 H 0.85929 0.56435 0.47793 0.0
H544 H 0.93257 0.60949 0.39422 0.0
H545 H 0.94626 0.61677 0.54087 0.0
C546 C 0.91889 0.59713 0.67903 0.0
C547 C 0.90256 0.58535 0.74563 0.0
C548 C 0.91087 0.59418 0.59463 0.0
C549 C 0.87793 0.57106 0.72658 0.0
C550 C 0.86981 0.56818 0.64282 0.0
C551 C 0.87826 0.57574 0.49163 0.0
C552 C 0.89479 0.58622 0.42461 0.0
C553 C 0.88615 0.57944 0.57628 0.0
C554 C 0.91929 0.60136 0.44396 0.0
C555 C 0.92723 0.60538 0.52808 0.0
H556 H 0.33735 0.93365 1.01642 0.0
H557 H 0.30922 0.86031 0.09973 0.0
H558 H 0.30063 0.84639 0.9533 0.0
H559 H 0.30333 0.85527 0.80108 0.0
H560 H 0.3339 0.92895 0.71781 0.0
H561 H 0.33906 0.94241 0.86448 0.0
C562 C 0.32945 0.91464 1.00257 0.0
C563 C 0.32411 0.89813 0.06912 0.0
C564 C 0.32495 0.90678 0.91808 0.0
C565 C 0.31334 0.87346 0.05008 0.0
C566 C 0.30856 0.86547 0.96617 0.0
C567 C 0.31116 0.87427 0.81495 0.0
C568 C 0.31828 0.89099 0.74817 0.0
C569 C 0.31463 0.88201 0.89963 0.0
C570 C 0.32795 0.91554 0.76747 0.0
C571 C 0.33114 0.92334 0.85158 0.0
H572 H 0.42262 0.32338 0.0987 0.0
H573 H 0.46281 0.28653 0.13174 0.0
H574 H 0.45987 0.28847 0.28518 0.0
H575 H 0.44738 0.30212 0.41255 0.0
H576 H 0.40575 0.33744 0.37892 0.0
H577 H 0.40769 0.33441 0.2256 0.0
C578 C 0.43051 0.3155 0.13907 0.0
C579 C 0.44327 0.30514 0.10198 0.0
C580 C 0.42864 0.3165 0.22856 0.0
C581 C 0.45336 0.29515 0.15697 0.0
C582 C 0.45156 0.29611 0.24551 0.0
C583 C 0.43847 0.30891 0.37198 0.0
C584 C 0.42678 0.32039 0.40882 0.0
C585 C 0.4395 0.307 0.28242 0.0
C586 C 0.41543 0.32905 0.35375 0.0
C587 C 0.41639 0.3272 0.26532 0.0
H588 H 0.61435 0.92393 0.02707 0.0
H589 H 0.54643 0.86462 0.94399 0.0
H590 H 0.53422 0.85343 0.09122 0.0
H591 H 0.54399 0.85907 0.24349 0.0
H592 H 0.61348 0.91664 0.32366 0.0
H593 H 0.62394 0.92979 0.1777 0.0
C594 C 0.59692 0.9085 0.04108 0.0
C595 C 0.58147 0.89507 0.97459 0.0
C596 C 0.59033 0.90174 0.12547 0.0
C597 C 0.55864 0.87546 0.99383 0.0
C598 C 0.55172 0.86888 0.07808 0.0
C599 C 0.56146 0.87438 0.22895 0.0
C600 C 0.57784 0.88682 0.29469 0.0
C601 C 0.56763 0.88164 0.14435 0.0
C602 C 0.60029 0.90691 0.27481 0.0
C603 C 0.60641 0.9144 0.19113 0.0
H604 H 0.72184 0.55391 0.54999 0.0
H605 H 0.71534 0.61478 0.62824 0.0
H606 H 0.71363 0.62498 0.48019 0.0
H607 H 0.70837 0.61327 0.32923 0.0
H608 H 0.71491 0.55257 0.25018 0.0
H609 H 0.7223 0.5456 0.3973 0.0
C610 C 0.72044 0.56963 0.53445 0.0
C611 C 0.71826 0.58328 0.60025 0.0
C612 C 0.71915 0.5752 0.44898 0.0
C613 C 0.71699 0.60391 0.57921 0.0
C614 C 0.71579 0.60963 0.49437 0.0
C615 C 0.71172 0.59873 0.34442 0.0
C616 C 0.71076 0.58323 0.27953 0.0
C617 C 0.71593 0.59487 0.42896 0.0
C618 C 0.71557 0.5647 0.29922 0.0
C619 C 0.71966 0.56066 0.38332 0.0
H620 H 0.14973 0.70362 0.58721 0.0
H621 H 0.07548 0.68421 0.61636 0.0
H622 H 0.08059 0.68875 0.77027 0.0
H623 H 0.10609 0.69781 0.89824 0.0
H624 H 0.18006 0.71555 0.86733 0.0
H625 H 0.17508 0.71241 0.71492 0.0
C626 C 0.13474 0.70064 0.62712 0.0
C627 C 0.11223 0.69354 0.5895 0.0
C628 C 0.13771 0.70299 0.7164 0.0
C629 C 0.09295 0.68944 0.64303 0.0
C630 C 0.09588 0.6921 0.73142 0.0
C631 C 0.12116 0.70091 0.8587 0.0
C632 C 0.14353 0.7072 0.89667 0.0
C633 C 0.11816 0.6987 0.76923 0.0
C634 C 0.16268 0.71115 0.84226 0.0
C635 C 0.15986 0.70921 0.75393 0.0
H636 H 0.45087 0.1564 0.23715 0.0
H637 H 0.40742 0.08277 0.32045 0.0
H638 H 0.39862 0.06936 0.17384 0.0
H639 H 0.4053 0.07811 0.02188 0.0
H640 H 0.45077 0.15135 0.93825 0.0
H641 H 0.45662 0.16528 0.08476 0.0
C642 C 0.43952 0.13743 0.22326 0.0
C643 C 0.42996 0.1207 0.29002 0.0
C644 C 0.43493 0.12971 0.13857 0.0
C645 C 0.41485 0.09618 0.27078 0.0
C646 C 0.40994 0.08841 0.18671 0.0
C647 C 0.41656 0.0971 0.03567 0.0
C648 C 0.42768 0.11357 0.96904 0.0
C649 C 0.42023 0.10496 0.12018 0.0
C650 C 0.44179 0.13823 0.98799 0.0
C651 C 0.4453 0.14623 0.07194 0.0
H652 H 0.3231 0.46479 0.56909 0.0
H653 H 0.31299 0.39596 0.64921 0.0
H654 H 0.31485 0.38526 0.5027 0.0
H655 H 0.31662 0.3942 0.35153 0.0
H656 H 0.32382 0.46165 0.26959 0.0
H657 H 0.32613 0.47426 0.41699 0.0
C658 C 0.32122 0.44744 0.55444 0.0
C659 C 0.31783 0.43123 0.62016 0.0
C660 C 0.32181 0.44114 0.4697 0.0
C661 C 0.31591 0.40896 0.60023 0.0
C662 C 0.3168 0.40271 0.51627 0.0
C663 C 0.31865 0.41164 0.36596 0.0
C664 C 0.31982 0.42682 0.29981 0.0
C665 C 0.31934 0.41849 0.45056 0.0
C666 C 0.32306 0.44965 0.31927 0.0
C667 C 0.32417 0.4568 0.40359 0.0
H668 H 0.9281 0.3274 0.66379 0.0
H669 H 0.85521 0.30033 0.57776 0.0
H670 H 0.84098 0.29269 0.72403 0.0
H671 H 0.84951 0.29575 0.8771 0.0
H672 H 0.92278 0.32485 0.96233 0.0
H673 H 0.93648 0.32946 0.81614 0.0
C674 C 0.90912 0.31991 0.67702 0.0
C675 C 0.89284 0.31459 0.60973 0.0
C676 C 0.90108 0.31589 0.76137 0.0
C677 C 0.86819 0.3044 0.628 0.0
C678 C 0.86001 0.30018 0.71183 0.0
C679 C 0.86846 0.30311 0.86365 0.0
C680 C 0.88501 0.30989 0.93093 0.0
C681 C 0.87635 0.30617 0.77907 0.0
C682 C 0.90951 0.31908 0.91227 0.0
C683 C 0.91744 0.32196 0.82843 0.0
H684 H 0.10052 0.52557 0.04165 0.0
H685 H 0.10353 0.51137 0.30778 0.0
H686 H 0.10383 0.54848 0.34494 0.0
H687 H 0.10528 0.58605 0.30156 0.0
H688 H 0.1024 0.6003 0.03539 0.0
H689 H 0.09989 0.56213 0.99861 0.0
C690 C 0.1012 0.5306 0.10776 0.0
C691 C 0.10209 0.51576 0.17178 0.0
C692 C 0.10143 0.55202 0.1287 0.0
C693 C 0.10261 0.52234 0.25725 0.0
C694 C 0.10295 0.54365 0.27856 0.0
C695 C 0.10406 0.58076 0.23554 0.0
C696 C 0.10411 0.59605 0.17135 0.0
C697 C 0.10267 0.55878 0.21479 0.0
C698 C 0.10218 0.58878 0.0861 0.0
C699 C 0.1009 0.56702 0.06496 0.0
H700 H 0.59111 0.09605 0.59648 0.0
H701 H 0.58384 0.10186 0.32649 0.0
H702 H 0.54503 0.09949 0.34831 0.0
H703 H 0.51418 0.09801 0.44482 0.0
H704 H 0.52193 0.09311 0.71496 0.0
H705 H 0.55937 0.09266 0.6924 0.0
C706 C 0.58085 0.09642 0.54232 0.0
C707 C 0.5904 0.09918 0.45999 0.0
C708 C 0.55866 0.09531 0.55543 0.0
C709 C 0.57703 0.1 0.39059 0.0
C710 C 0.5548 0.09858 0.403 0.0
C711 C 0.52386 0.09643 0.4986 0.0
C712 C 0.51529 0.09561 0.58145 0.0
C713 C 0.54557 0.09654 0.48521 0.0
C714 C 0.52826 0.09397 0.65062 0.0
C715 C 0.54964 0.09368 0.63775 0.0
H716 H 0.49954 0.5749 0.88256 0.0
H717 H 0.46127 0.60948 0.78839 0.0
H718 H 0.42292 0.57367 0.822 0.0
H719 H 0.40019 0.53247 0.87773 0.0
H720 H 0.43809 0.49713 0.96763 0.0
H721 H 0.47666 0.53326 0.93656 0.0
C722 C 0.48278 0.57457 0.86974 0.0
C723 C 0.48324 0.59479 0.83294 0.0
C724 C 0.46076 0.55382 0.88868 0.0
C725 C 0.46139 0.59405 0.81577 0.0
C726 C 0.43946 0.57364 0.83543 0.0
C727 C 0.41692 0.5328 0.8913 0.0
C728 C 0.41636 0.5123 0.92573 0.0
C729 C 0.43893 0.55344 0.87194 0.0
C730 C 0.43812 0.51274 0.94122 0.0
C731 C 0.46014 0.53337 0.92352 0.0
H732 H 0.94061 0.43949 0.21675 0.0
H733 H 0.86305 0.39783 0.21798 0.0
H734 H 0.86079 0.43384 0.18763 0.0
H735 H 0.88052 0.47699 0.16065 0.0
H736 H 0.95794 0.51943 0.15757 0.0
H737 H 0.96059 0.48342 0.18943 0.0
C738 C 0.92325 0.43835 0.21003 0.0
C739 C 0.90203 0.41599 0.22036 0.0
C740 C 0.92204 0.45926 0.19247 0.0
C741 C 0.87966 0.41483 0.21192 0.0
C742 C 0.87833 0.4354 0.19404 0.0
C743 C 0.898 0.47837 0.16606 0.0
C744 C 0.91899 0.50084 0.1559 0.0
C745 C 0.89936 0.45768 0.18419 0.0
C746 C 0.9415 0.50236 0.16537 0.0
C747 C 0.94301 0.48175 0.18319 0.0
H748 H 0.50516 0.91792 0.46064 0.0
H749 H 0.48869 0.90792 0.72809 0.0
H750 H 0.45219 0.91005 0.7031 0.0
H751 H 0.42379 0.91257 0.60395 0.0
H752 H 0.43969 0.92115 0.33603 0.0
H753 H 0.47765 0.922 0.36244 0.0
C754 C 0.49379 0.91661 0.51364 0.0
C755 C 0.49968 0.91282 0.59617 0.0
C756 C 0.47266 0.91749 0.49859 0.0
C757 C 0.48448 0.91068 0.66392 0.0
C758 C 0.46364 0.91195 0.64967 0.0
C759 C 0.43577 0.91502 0.5516 0.0
C760 C 0.42896 0.91682 0.46815 0.0
C761 C 0.45738 0.91505 0.56713 0.0
C762 C 0.44447 0.91957 0.40074 0.0
C763 C 0.46617 0.92008 0.41582 0.0
H764 H 0.59688 0.4947 0.7756 0.0
H765 H 0.59074 0.48486 0.04728 0.0
H766 H 0.55259 0.44735 0.02971 0.0
H767 H 0.52187 0.41638 0.9368 0.0
H768 H 0.52812 0.42632 0.66514 0.0
H769 H 0.56521 0.46477 0.68317 0.0
C770 C 0.58702 0.48458 0.83108 0.0
C771 C 0.59673 0.49262 0.91267 0.0
C772 C 0.56515 0.46293 0.8205 0.0
C773 C 0.58385 0.47898 0.98372 0.0
C774 C 0.56198 0.45756 0.97374 0.0
C775 C 0.53114 0.42713 0.88159 0.0
C776 C 0.52222 0.41838 0.79969 0.0
C777 C 0.55258 0.44921 0.89238 0.0
C778 C 0.53471 0.43243 0.72884 0.0
C779 C 0.5559 0.45448 0.7391 0.0
H780 H 0.23376 0.39804 0.11841 0.0
H781 H 0.24566 0.41137 0.84995 0.0
H782 H 0.20745 0.41098 0.83627 0.0
H783 H 0.17501 0.4147 0.90669 0.0
H784 H 0.16227 0.39981 0.17416 0.0
H785 H 0.19615 0.39243 0.18254 0.0
C786 C 0.22742 0.39983 0.05645 0.0
C787 C 0.24235 0.40468 0.9852 0.0
C788 C 0.20549 0.39966 0.04936 0.0
C789 C 0.23424 0.40726 0.90529 0.0
C790 C 0.21255 0.40736 0.89776 0.0
C791 C 0.17915 0.40894 0.96598 0.0
C792 C 0.16631 0.40782 0.03979 0.0
C793 C 0.19863 0.4047 0.97008 0.0
C794 C 0.17179 0.4005 0.11649 0.0
C795 C 0.19132 0.39655 0.12139 0.0
H796 H 0.83958 0.23994 0.43053 0.0
H797 H 0.8395 0.2442 0.15778 0.0
H798 H 0.80358 0.20424 0.15087 0.0
H799 H 0.76792 0.17239 0.22473 0.0
H800 H 0.76815 0.16758 0.49733 0.0
H801 H 0.80849 0.2031 0.50264 0.0
C802 C 0.8323 0.23153 0.36961 0.0
C803 C 0.84219 0.24473 0.29464 0.0
C804 C 0.81145 0.20865 0.36643 0.0
C805 C 0.83239 0.23408 0.21601 0.0
C806 C 0.81167 0.21138 0.21221 0.0
C807 C 0.77731 0.17857 0.28486 0.0
C808 C 0.76526 0.16747 0.36051 0.0
C809 C 0.80041 0.19906 0.2872 0.0
C810 C 0.7773 0.17569 0.43832 0.0
C811 C 0.80023 0.19617 0.44134 0.0
H812 H 0.60083 0.8305 0.56058 0.0
H813 H 0.6024 0.84434 0.82857 0.0
H814 H 0.60756 0.80987 0.86 0.0
H815 H 0.60296 0.77126 0.81233 0.0
H816 H 0.59717 0.75518 0.5453 0.0
H817 H 0.60288 0.79494 0.51179 0.0
C818 C 0.60337 0.82649 0.62543 0.0
C819 C 0.60152 0.83998 0.69224 0.0
C820 C 0.60523 0.80592 0.6431 0.0
C821 C 0.60405 0.83428 0.77629 0.0
C822 C 0.60678 0.81445 0.79426 0.0
C823 C 0.60414 0.77701 0.74683 0.0
C824 C 0.60013 0.76061 0.68125 0.0
C825 C 0.60622 0.79946 0.72845 0.0
C826 C 0.60073 0.76777 0.59662 0.0
C827 C 0.60368 0.7904 0.57755 0.0
H828 H 0.83855 0.60922 0.13917 0.0
H829 H 0.86116 0.60316 0.88751 0.0
H830 H 0.82761 0.60572 0.82612 0.0
H831 H 0.78726 0.60068 0.84715 0.0
H832 H 0.76538 0.60887 0.09738 0.0
H833 H 0.80335 0.61505 0.15637 0.0
C834 C 0.83677 0.60969 0.0708 0.0
C835 C 0.85227 0.60601 0.01788 0.0
C836 C 0.81727 0.61109 0.03588 0.0
C837 C 0.84956 0.60614 0.92947 0.0
C838 C 0.8302 0.60736 0.89433 0.0
C839 C 0.79133 0.6049 0.91395 0.0
C840 C 0.77356 0.60414 0.96802 0.0
C841 C 0.81324 0.60853 0.94721 0.0
C842 C 0.77883 0.60944 0.05454 0.0
C843 C 0.80047 0.61274 0.0884 0.0
H844 H 0.2498 0.8452 0.24443 0.0
H845 H 0.25417 0.84001 0.51569 0.0
H846 H 0.21427 0.80397 0.51772 0.0
H847 H 0.18213 0.76994 0.43846 0.0
H848 H 0.17711 0.77505 0.16749 0.0
H849 H 0.21291 0.81529 0.16866 0.0
C850 C 0.24145 0.83675 0.30419 0.0
C851 C 0.25463 0.8453 0.38002 0.0
C852 C 0.21857 0.81581 0.30452 0.0
C853 C 0.24406 0.83394 0.45696 0.0
C854 C 0.22139 0.81317 0.45792 0.0
C855 C 0.18836 0.78034 0.3803 0.0
C856 C 0.17707 0.76973 0.30307 0.0
C857 C 0.209 0.80335 0.38165 0.0
C858 C 0.18536 0.78309 0.22776 0.0
C859 C 0.206 0.80597 0.22839 0.0
H860 H 0.41476 0.24081 0.5777 0.0
H861 H 0.40956 0.24187 0.84996 0.0
H862 H 0.4041 0.20129 0.85825 0.0
H863 H 0.40909 0.16937 0.7889 0.0
H864 H 0.41347 0.16812 0.5164 0.0
H865 H 0.41039 0.20456 0.50649 0.0
C866 C 0.41139 0.23167 0.6384 0.0
C867 C 0.41243 0.24413 0.71311 0.0
C868 C 0.4084 0.20842 0.64244 0.0
C869 C 0.40842 0.2324 0.79165 0.0
C870 C 0.40561 0.20932 0.79637 0.0
C871 C 0.40821 0.17651 0.72738 0.0
C872 C 0.41121 0.16605 0.65335 0.0
C873 C 0.40668 0.19763 0.72245 0.0
C874 C 0.41068 0.17567 0.57393 0.0
C875 C 0.40925 0.19668 0.56841 0.0
loop_
_geom_bond_atom_site_label_1
_geom_bond_atom_site_label_2
_geom_bond_distance
_geom_bond_site_symmetry_2
_ccdc_geom_bond_type
C0 C1 1.351 . S
C0 N3 1.368 . S
C0 H5 0.931 . S
C1 C0 1.351 . S
C1 N2 1.373 . S
C1 H29 0.930 . S
N2 C1 1.373 . S
N2 C4 1.340 . S
N3 C0 1.368 . S
N3 C4 1.321 . S
N3 Co6 2.135 . S
C4 N2 1.340 . S
C4 N3 1.321 . S
C4 H28 0.930 . S
H5 C0 0.931 . S
Co6 N3 2.135 . S
Co6 N9 2.121 1_554 S
Co6 O14 2.055 . S
Co6 O17 2.039 . S
Co6 N20 2.140 . S
C7 O8 1.227 . S
C7 O17 1.265 . S
O8 C7 1.227 . S
N9 Co6 2.121 1_556 S
N9 C11 1.375 . S
N9 C12 1.313 . S
C10 C11 1.338 . S
C10 N13 1.377 . S
C10 H30 0.930 . S
C11 N9 1.375 . S
C11 C10 1.338 . S
C11 H15 0.931 . S
C12 N9 1.313 . S
C12 N13 1.344 . S
C12 H16 0.930 . S
N13 C10 1.377 . S
N13 C12 1.344 . S
O14 Co6 2.055 . S
O14 C18 1.253 . S
H15 C11 0.931 . S
H16 C12 0.930 . S
O17 Co6 2.039 . S
O17 C7 1.265 . S
C18 O14 1.253 . S
C18 O19 1.227 . S
O19 C18 1.227 . S
N20 Co6 2.140 . S
N20 C23 1.346 . S
N20 C24 1.345 . S
C21 C22 1.387 . S
C21 C25 1.391 . S
C22 C21 1.387 . S
C22 C23 1.369 . S
C22 H31 0.929 . S
C23 N20 1.346 . S
C23 C22 1.369 . S
C23 H26 0.928 . S
C24 N20 1.345 . S
C24 C25 1.371 . S
C24 H27 0.931 . S
C25 C21 1.391 . S
C25 C24 1.371 . S
C25 H32 0.930 . S
H26 C23 0.928 . S
H27 C24 0.931 . S
H28 C4 0.930 . S
H29 C1 0.930 . S
H30 C10 0.930 . S
H31 C22 0.929 . S
H32 C25 0.930 . S
C33 C34 1.351 . S
C33 N36 1.368 . S
C33 H38 0.931 . S
C34 C33 1.351 . S
C34 N35 1.373 . S
C34 H62 0.930 . S
N35 C34 1.373 . S
N35 C37 1.340 . S
N36 C33 1.368 . S
N36 C37 1.321 . S
N36 Co39 2.135 . S
C37 N35 1.340 . S
C37 N36 1.321 . S
C37 H61 0.930 . S
H38 C33 0.931 . S
Co39 N36 2.135 . S
Co39 N42 2.121 . S
Co39 O47 2.055 . S
Co39 O50 2.039 . S
Co39 N53 2.140 . S
C40 O41 1.227 . S
C40 O50 1.265 . S
O41 C40 1.227 . S
N42 Co39 2.121 . S
N42 C44 1.375 . S
N42 C45 1.313 . S
C43 C44 1.338 . S
C43 N46 1.377 . S
C43 H63 0.930 . S
C44 N42 1.375 . S
C44 C43 1.338 . S
C44 H48 0.931 . S
C45 N42 1.313 . S
C45 N46 1.344 . S
C45 H49 0.930 . S
N46 C43 1.377 . S
N46 C45 1.344 . S
O47 Co39 2.055 . S
O47 C51 1.253 . S
H48 C44 0.931 . S
H49 C45 0.930 . S
O50 Co39 2.039 . S
O50 C40 1.265 . S
C51 O47 1.253 . S
C51 O52 1.227 . S
O52 C51 1.227 . S
N53 Co39 2.140 . S
N53 C56 1.346 . S
N53 C57 1.345 . S
C54 C55 1.387 . S
C54 C58 1.391 . S
C55 C54 1.387 . S
C55 C56 1.369 . S
C55 H64 0.929 . S
C56 N53 1.346 . S
C56 C55 1.369 . S
C56 H59 0.928 . S
C57 N53 1.345 . S
C57 C58 1.371 . S
C57 H60 0.931 . S
C58 C54 1.391 . S
C58 C57 1.371 . S
C58 H65 0.930 . S
H59 C56 0.928 . S
H60 C57 0.931 . S
H61 C37 0.930 . S
H62 C34 0.930 . S
H63 C43 0.930 . S
H64 C55 0.929 . S
H65 C58 0.930 . S
C66 C67 1.351 1_556 S
C66 N69 1.368 . S
C66 H71 0.931 . S
C67 C66 1.351 1_554 S
C67 N68 1.373 . S
C67 H95 0.930 . S
N68 C67 1.373 . S
N68 C70 1.340 1_554 S
N69 C66 1.368 . S
N69 C70 1.321 . S
N69 Co72 2.135 . S
C70 N68 1.340 1_556 S
C70 N69 1.321 . S
C70 H94 0.930 . S
H71 C66 0.931 . S
Co72 N69 2.135 . S
Co72 N75 2.121 . S
Co72 O80 2.055 . S
Co72 O83 2.039 . S
Co72 N86 2.140 . S
C73 O74 1.227 . S
C73 O83 1.265 . S
O74 C73 1.227 . S
N75 Co72 2.121 . S
N75 C77 1.375 . S
N75 C78 1.313 . S
C76 C77 1.338 . S
C76 N79 1.377 . S
C76 H96 0.930 . S
C77 N75 1.375 . S
C77 C76 1.338 . S
C77 H81 0.931 . S
C78 N75 1.313 . S
C78 N79 1.344 . S
C78 H82 0.930 . S
N79 C76 1.377 . S
N79 C78 1.344 . S
O80 Co72 2.055 . S
O80 C84 1.253 . S
H81 C77 0.931 . S
H82 C78 0.930 . S
O83 Co72 2.039 . S
O83 C73 1.265 . S
C84 O80 1.253 . S
C84 O85 1.227 . S
O85 C84 1.227 . S
N86 Co72 2.140 . S
N86 C89 1.346 . S
N86 C90 1.345 . S
C87 C88 1.387 . S
C87 C91 1.391 . S
C88 C87 1.387 . S
C88 C89 1.369 . S
C88 H97 0.929 . S
C89 N86 1.346 . S
C89 C88 1.369 . S
C89 H92 0.928 . S
C90 N86 1.345 . S
C90 C91 1.371 . S
C90 H93 0.931 . S
C91 C87 1.391 . S
C91 C90 1.371 . S
C91 H98 0.930 . S
H92 C89 0.928 . S
H93 C90 0.931 . S
H94 C70 0.930 . S
H95 C67 0.930 . S
H96 C76 0.930 . S
H97 C88 0.929 . S
H98 C91 0.930 . S
C99 C100 1.351 . S
C99 N102 1.368 . S
C99 H104 0.931 . S
C100 C99 1.351 . S
C100 N101 1.373 . S
C100 H128 0.930 . S
N101 C100 1.373 . S
N101 C103 1.340 . S
N102 C99 1.368 . S
N102 C103 1.321 . S
N102 Co105 2.135 . S
C103 N101 1.340 . S
C103 N102 1.321 . S
C103 H127 0.930 . S
H104 C99 0.931 . S
Co105 N102 2.135 . S
Co105 N108 2.121 1_554 S
Co105 O113 2.055 . S
Co105 O116 2.039 . S
Co105 N119 2.140 . S
C106 O107 1.227 . S
C106 O116 1.265 . S
O107 C106 1.227 . S
N108 Co105 2.121 1_556 S
N108 C110 1.375 . S
N108 C111 1.313 . S
C109 C110 1.338 . S
C109 N112 1.377 . S
C109 H129 0.930 . S
C110 N108 1.375 . S
C110 C109 1.338 . S
C110 H114 0.931 . S
C111 N108 1.313 . S
C111 N112 1.344 . S
C111 H115 0.930 . S
N112 C109 1.377 . S
N112 C111 1.344 . S
O113 Co105 2.055 . S
O113 C117 1.253 . S
H114 C110 0.931 . S
H115 C111 0.930 . S
O116 Co105 2.039 . S
O116 C106 1.265 . S
C117 O113 1.253 . S
C117 O118 1.227 . S
O118 C117 1.227 . S
N119 Co105 2.140 . S
N119 C122 1.346 . S
N119 C123 1.345 . S
C120 C121 1.387 . S
C120 C124 1.391 . S
C121 C120 1.387 . S
C121 C122 1.369 . S
C121 H130 0.929 . S
C122 N119 1.346 . S
C122 C121 1.369 . S
C122 H125 0.928 . S
C123 N119 1.345 . S
C123 C124 1.371 . S
C123 H126 0.931 . S
C124 C120 1.391 . S
C124 C123 1.371 . S
C124 H131 0.930 . S
H125 C122 0.928 . S
H126 C123 0.931 . S
H127 C103 0.930 . S
H128 C100 0.930 . S
H129 C109 0.930 . S
H130 C121 0.929 . S
H131 C124 0.930 . S
C132 C133 1.351 . S
C132 N135 1.368 . S
C132 H137 0.931 . S
C133 C132 1.351 . S
C133 N134 1.373 . S
C133 H161 0.930 . S
N134 C133 1.373 . S
N134 C136 1.340 . S
N135 C132 1.368 . S
N135 C136 1.321 . S
N135 Co138 2.135 . S
C136 N134 1.340 . S
C136 N135 1.321 . S
C136 H160 0.930 . S
H137 C132 0.931 . S
Co138 N135 2.135 . S
Co138 N141 2.121 . S
Co138 O146 2.055 . S
Co138 O149 2.039 . S
Co138 N152 2.140 . S
C139 O140 1.227 . S
C139 O149 1.265 . S
O140 C139 1.227 . S
N141 Co138 2.121 . S
N141 C143 1.375 . S
N141 C144 1.313 . S
C142 C143 1.338 . S
C142 N145 1.377 . S
C142 H162 0.930 . S
C143 N141 1.375 . S
C143 C142 1.338 . S
C143 H147 0.931 . S
C144 N141 1.313 . S
C144 N145 1.344 . S
C144 H148 0.930 . S
N145 C142 1.377 . S
N145 C144 1.344 . S
O146 Co138 2.055 . S
O146 C150 1.253 . S
H147 C143 0.931 . S
H148 C144 0.930 . S
O149 Co138 2.039 . S
O149 C139 1.265 . S
C150 O146 1.253 . S
C150 O151 1.227 . S
O151 C150 1.227 . S
N152 Co138 2.140 . S
N152 C155 1.346 . S
N152 C156 1.345 . S
C153 C154 1.387 . S
C153 C157 1.391 . S
C154 C153 1.387 . S
C154 C155 1.369 . S
C154 H163 0.929 . S
C155 N152 1.346 . S
C155 C154 1.369 . S
C155 H158 0.928 . S
C156 N152 1.345 . S
C156 C157 1.371 . S
C156 H159 0.931 . S
C157 C153 1.391 . S
C157 C156 1.371 . S
C157 H164 0.930 . S
H158 C155 0.928 . S
H159 C156 0.931 . S
H160 C136 0.930 . S
H161 C133 0.930 . S
H162 C142 0.930 . S
H163 C154 0.929 . S
H164 C157 0.930 . S
C165 C166 1.351 1_556 S
C165 N168 1.368 . S
C165 H170 0.931 . S
C166 C165 1.351 1_554 S
C166 N167 1.373 . S
C166 H194 0.930 . S
N167 C166 1.373 . S
N167 C169 1.340 1_554 S
N168 C165 1.368 . S
N168 C169 1.321 . S
N168 Co171 2.135 . S
C169 N167 1.340 1_556 S
C169 N168 1.321 . S
C169 H193 0.930 . S
H170 C165 0.931 . S
Co171 N168 2.135 . S
Co171 N174 2.121 . S
Co171 O179 2.055 . S
Co171 O182 2.039 . S
Co171 N185 2.140 . S
C172 O173 1.227 . S
C172 O182 1.265 . S
O173 C172 1.227 . S
N174 Co171 2.121 . S
N174 C176 1.375 . S
N174 C177 1.313 . S
C175 C176 1.338 . S
C175 N178 1.377 . S
C175 H195 0.930 . S
C176 N174 1.375 . S
C176 C175 1.338 . S
C176 H180 0.931 . S
C177 N174 1.313 . S
C177 N178 1.344 . S
C177 H181 0.930 . S
N178 C175 1.377 . S
N178 C177 1.344 . S
O179 Co171 2.055 . S
O179 C183 1.253 . S
H180 C176 0.931 . S
H181 C177 0.930 . S
O182 Co171 2.039 . S
O182 C172 1.265 . S
C183 O179 1.253 . S
C183 O184 1.227 . S
O184 C183 1.227 . S
N185 Co171 2.140 . S
N185 C188 1.346 . S
N185 C189 1.345 . S
C186 C187 1.387 . S
C186 C190 1.391 . S
C187 C186 1.387 . S
C187 C188 1.369 . S
C187 H196 0.929 . S
C188 N185 1.346 . S
C188 C187 1.369 . S
C188 H191 0.928 . S
C189 N185 1.345 . S
C189 C190 1.371 . S
C189 H192 0.931 . S
C190 C186 1.391 . S
C190 C189 1.371 . S
C190 H197 0.930 . S
H191 C188 0.928 . S
H192 C189 0.931 . S
H193 C169 0.930 . S
H194 C166 0.930 . S
H195 C175 0.930 . S
H196 C187 0.929 . S
H197 C190 0.930 . S
C198 C199 1.351 . S
C198 N201 1.368 . S
C198 H203 0.931 . S
C199 C198 1.351 . S
C199 N200 1.373 . S
C199 H227 0.930 . S
N200 C199 1.373 . S
N200 C202 1.340 . S
N201 C198 1.368 . S
N201 C202 1.321 . S
N201 Co204 2.135 . S
C202 N200 1.340 . S
C202 N201 1.321 . S
C202 H226 0.930 . S
H203 C198 0.931 . S
Co204 N201 2.135 . S
Co204 N207 2.121 . S
Co204 O212 2.055 . S
Co204 O215 2.039 . S
Co204 N218 2.140 . S
C205 O206 1.227 . S
C205 O215 1.265 . S
O206 C205 1.227 . S
N207 Co204 2.121 . S
N207 C209 1.375 . S
N207 C210 1.313 . S
C208 C209 1.338 . S
C208 N211 1.377 . S
C208 H228 0.930 . S
C209 N207 1.375 . S
C209 C208 1.338 . S
C209 H213 0.931 . S
C210 N207 1.313 . S
C210 N211 1.344 . S
C210 H214 0.930 . S
N211 C208 1.377 . S
N211 C210 1.344 . S
O212 Co204 2.055 . S
O212 C216 1.253 . S
H213 C209 0.931 . S
H214 C210 0.930 . S
O215 Co204 2.039 . S
O215 C205 1.265 . S
C216 O212 1.253 . S
C216 O217 1.227 . S
O217 C216 1.227 . S
N218 Co204 2.140 . S
N218 C221 1.346 . S
N218 C222 1.345 . S
C219 C220 1.387 . S
C219 C223 1.391 . S
C220 C219 1.387 . S
C220 C221 1.369 . S
C220 H229 0.929 . S
C221 N218 1.346 . S
C221 C220 1.369 . S
C221 H224 0.928 . S
C222 N218 1.345 . S
C222 C223 1.371 . S
C222 H225 0.931 . S
C223 C219 1.391 . S
C223 C222 1.371 . S
C223 H230 0.930 . S
H224 C221 0.928 . S
H225 C222 0.931 . S
H226 C202 0.930 . S
H227 C199 0.930 . S
H228 C208 0.930 . S
H229 C220 0.929 . S
H230 C223 0.930 . S
C231 C232 1.351 . S
C231 N234 1.368 . S
C231 H236 0.931 . S
C232 C231 1.351 . S
C232 N233 1.373 . S
C232 H260 0.930 . S
N233 C232 1.373 . S
N233 C235 1.340 . S
N234 C231 1.368 . S
N234 C235 1.321 . S
N234 Co237 2.135 . S
C235 N233 1.340 . S
C235 N234 1.321 . S
C235 H259 0.930 . S
H236 C231 0.931 . S
Co237 N234 2.135 . S
Co237 N240 2.121 1_556 S
Co237 O245 2.055 . S
Co237 O248 2.039 . S
Co237 N251 2.140 . S
C238 O239 1.227 . S
C238 O248 1.265 . S
O239 C238 1.227 . S
N240 Co237 2.121 1_554 S
N240 C242 1.375 . S
N240 C243 1.313 . S
C241 C242 1.338 . S
C241 N244 1.377 . S
C241 H261 0.930 . S
C242 N240 1.375 . S
C242 C241 1.338 . S
C242 H246 0.931 . S
C243 N240 1.313 . S
C243 N244 1.344 . S
C243 H247 0.930 . S
N244 C241 1.377 . S
N244 C243 1.344 . S
O245 Co237 2.055 . S
O245 C249 1.253 . S
H246 C242 0.931 . S
H247 C243 0.930 . S
O248 Co237 2.039 . S
O248 C238 1.265 . S
C249 O245 1.253 . S
C249 O250 1.227 . S
O250 C249 1.227 . S
N251 Co237 2.140 . S
N251 C254 1.346 . S
N251 C255 1.345 . S
C252 C253 1.387 . S
C252 C256 1.391 . S
C253 C252 1.387 . S
C253 C254 1.369 . S
C253 H262 0.929 . S
C254 N251 1.346 . S
C254 C253 1.369 . S
C254 H257 0.928 . S
C255 N251 1.345 . S
C255 C256 1.371 . S
C255 H258 0.931 . S
C256 C252 1.391 . S
C256 C255 1.371 . S
C256 H263 0.930 . S
H257 C254 0.928 . S
H258 C255 0.931 . S
H259 C235 0.930 . S
H260 C232 0.930 . S
H261 C241 0.930 . S
H262 C253 0.929 . S
H263 C256 0.930 . S
C264 C265 1.351 1_554 S
C264 N267 1.368 . S
C264 H269 0.931 . S
C265 C264 1.351 1_556 S
C265 N266 1.373 . S
C265 H293 0.930 . S
N266 C265 1.373 . S
N266 C268 1.340 1_556 S
N267 C264 1.368 . S
N267 C268 1.321 . S
N267 Co270 2.135 . S
C268 N266 1.340 1_554 S
C268 N267 1.321 . S
C268 H292 0.930 . S
H269 C264 0.931 . S
Co270 N267 2.135 . S
Co270 N273 2.121 . S
Co270 O278 2.055 . S
Co270 O281 2.039 . S
Co270 N284 2.140 . S
C271 O272 1.227 . S
C271 O281 1.265 . S
O272 C271 1.227 . S
N273 Co270 2.121 . S
N273 C275 1.375 . S
N273 C276 1.313 . S
C274 C275 1.338 . S
C274 N277 1.377 . S
C274 H294 0.930 . S
C275 N273 1.375 . S
C275 C274 1.338 . S
C275 H279 0.931 . S
C276 N273 1.313 . S
C276 N277 1.344 . S
C276 H280 0.930 . S
N277 C274 1.377 . S
N277 C276 1.344 . S
O278 Co270 2.055 . S
O278 C282 1.253 . S
H279 C275 0.931 . S
H280 C276 0.930 . S
O281 Co270 2.039 . S
O281 C271 1.265 . S
C282 O278 1.253 . S
C282 O283 1.227 . S
O283 C282 1.227 . S
N284 Co270 2.140 . S
N284 C287 1.346 . S
N284 C288 1.345 . S
C285 C286 1.387 . S
C285 C289 1.391 . S
C286 C285 1.387 . S
C286 C287 1.369 . S
C286 H295 0.929 . S
C287 N284 1.346 . S
C287 C286 1.369 . S
C287 H290 0.928 . S
C288 N284 1.345 . S
C288 C289 1.371 . S
C288 H291 0.931 . S
C289 C285 1.391 . S
C289 C288 1.371 . S
C289 H296 0.930 . S
H290 C287 0.928 . S
H291 C288 0.931 . S
H292 C268 0.930 . S
H293 C265 0.930 . S
H294 C274 0.930 . S
H295 C286 0.929 . S
H296 C289 0.930 . S
C297 C298 1.351 . S
C297 N300 1.368 . S
C297 H302 0.931 . S
C298 C297 1.351 . S
C298 N299 1.373 . S
C298 H326 0.930 . S
N299 C298 1.373 . S
N299 C301 1.340 . S
N300 C297 1.368 . S
N300 C301 1.321 . S
N300 Co303 2.135 . S
C301 N299 1.340 . S
C301 N300 1.321 . S
C301 H325 0.930 . S
H302 C297 0.931 . S
Co303 N300 2.135 . S
Co303 N306 2.121 . S
Co303 O311 2.055 . S
Co303 O314 2.039 . S
Co303 N317 2.140 . S
C304 O305 1.227 . S
C304 O314 1.265 . S
O305 C304 1.227 . S
N306 Co303 2.121 . S
N306 C308 1.375 . S
N306 C309 1.313 . S
C307 C308 1.338 . S
C307 N310 1.377 . S
C307 H327 0.930 . S
C308 N306 1.375 . S
C308 C307 1.338 . S
C308 H312 0.931 . S
C309 N306 1.313 . S
C309 N310 1.344 . S
C309 H313 0.930 . S
N310 C307 1.377 . S
N310 C309 1.344 . S
O311 Co303 2.055 . S
O311 C315 1.253 . S
H312 C308 0.931 . S
H313 C309 0.930 . S
O314 Co303 2.039 . S
O314 C304 1.265 . S
C315 O311 1.253 . S
C315 O316 1.227 . S
O316 C315 1.227 . S
N317 Co303 2.140 . S
N317 C320 1.346 . S
N317 C321 1.345 . S
C318 C319 1.387 . S
C318 C322 1.391 . S
C319 C318 1.387 . S
C319 C320 1.369 . S
C319 H328 0.929 . S
C320 N317 1.346 . S
C320 C319 1.369 . S
C320 H323 0.928 . S
C321 N317 1.345 . S
C321 C322 1.371 . S
C321 H324 0.931 . S
C322 C318 1.391 . S
C322 C321 1.371 . S
C322 H329 0.930 . S
H323 C320 0.928 . S
H324 C321 0.931 . S
H325 C301 0.930 . S
H326 C298 0.930 . S
H327 C307 0.930 . S
H328 C319 0.929 . S
H329 C322 0.930 . S
C330 C331 1.351 . S
C330 N333 1.368 . S
C330 H335 0.931 . S
C331 C330 1.351 . S
C331 N332 1.373 . S
C331 H359 0.930 . S
N332 C331 1.373 . S
N332 C334 1.340 . S
N333 C330 1.368 . S
N333 C334 1.321 . S
N333 Co336 2.135 . S
C334 N332 1.340 . S
C334 N333 1.321 . S
C334 H358 0.930 . S
H335 C330 0.931 . S
Co336 N333 2.135 . S
Co336 N339 2.121 1_556 S
Co336 O344 2.055 . S
Co336 O347 2.039 . S
Co336 N350 2.140 . S
C337 O338 1.227 . S
C337 O347 1.265 . S
O338 C337 1.227 . S
N339 Co336 2.121 1_554 S
N339 C341 1.375 . S
N339 C342 1.313 . S
C340 C341 1.338 . S
C340 N343 1.377 . S
C340 H360 0.930 . S
C341 N339 1.375 . S
C341 C340 1.338 . S
C341 H345 0.931 . S
C342 N339 1.313 . S
C342 N343 1.344 . S
C342 H346 0.930 . S
N343 C340 1.377 . S
N343 C342 1.344 . S
O344 Co336 2.055 . S
O344 C348 1.253 . S
H345 C341 0.931 . S
H346 C342 0.930 . S
O347 Co336 2.039 . S
O347 C337 1.265 . S
C348 O344 1.253 . S
C348 O349 1.227 . S
O349 C348 1.227 . S
N350 Co336 2.140 . S
N350 C353 1.346 . S
N350 C354 1.345 . S
C351 C352 1.387 . S
C351 C355 1.391 . S
C352 C351 1.387 . S
C352 C353 1.369 . S
C352 H361 0.929 . S
C353 N350 1.346 . S
C353 C352 1.369 . S
C353 H356 0.928 . S
C354 N350 1.345 . S
C354 C355 1.371 . S
C354 H357 0.931 . S
C355 C351 1.391 . S
C355 C354 1.371 . S
C355 H362 0.930 . S
H356 C353 0.928 . S
H357 C354 0.931 . S
H358 C334 0.930 . S
H359 C331 0.930 . S
H360 C340 0.930 . S
H361 C352 0.929 . S
H362 C355 0.930 . S
C363 C364 1.351 1_554 S
C363 N366 1.368 . S
C363 H368 0.931 . S
C364 C363 1.351 1_556 S
C364 N365 1.373 . S
C364 H392 0.930 . S
N365 C364 1.373 . S
N365 C367 1.340 1_556 S
N366 C363 1.368 . S
N366 C367 1.321 . S
N366 Co369 2.135 . S
C367 N365 1.340 1_554 S
C367 N366 1.321 . S
C367 H391 0.930 . S
H368 C363 0.931 . S
Co369 N366 2.135 . S
Co369 N372 2.121 . S
Co369 O377 2.055 . S
Co369 O380 2.039 . S
Co369 N383 2.140 . S
C370 O371 1.227 . S
C370 O380 1.265 . S
O371 C370 1.227 . S
N372 Co369 2.121 . S
N372 C374 1.375 . S
N372 C375 1.313 . S
C373 C374 1.338 . S
C373 N376 1.377 . S
C373 H393 0.930 . S
C374 N372 1.375 . S
C374 C373 1.338 . S
C374 H378 0.931 . S
C375 N372 1.313 . S
C375 N376 1.344 . S
C375 H379 0.930 . S
N376 C373 1.377 . S
N376 C375 1.344 . S
O377 Co369 2.055 . S
O377 C381 1.253 . S
H378 C374 0.931 . S
H379 C375 0.930 . S
O380 Co369 2.039 . S
O380 C370 1.265 . S
C381 O377 1.253 . S
C381 O382 1.227 . S
O382 C381 1.227 . S
N383 Co369 2.140 . S
N383 C386 1.346 . S
N383 C387 1.345 . S
C384 C385 1.387 . S
C384 C388 1.391 . S
C385 C384 1.387 . S
C385 C386 1.369 . S
C385 H394 0.929 . S
C386 N383 1.346 . S
C386 C385 1.369 . S
C386 H389 0.928 . S
C387 N383 1.345 . S
C387 C388 1.371 . S
C387 H390 0.931 . S
C388 C384 1.391 . S
C388 C387 1.371 . S
C388 H395 0.930 . S
H389 C386 0.928 . S
H390 C387 0.931 . S
H391 C367 0.930 . S
H392 C364 0.930 . S
H393 C373 0.930 . S
H394 C385 0.929 . S
H395 C388 0.930 . S
H396 C402 0.930 . S
H397 C405 0.930 . S
H398 C406 0.930 . S
H399 C407 0.930 . S
H400 C410 0.930 . S
H401 C411 0.930 . S
C402 H396 0.930 . S
C402 C403 1.355 . S
C402 C404 1.415 . S
C403 C402 1.355 . S
C403 C405 1.419 . S
C404 C402 1.415 . S
C404 C409 1.425 1_455 S
C404 C411 1.409 1_455 S
C405 H397 0.930 . S
C405 C403 1.419 . S
C405 C406 1.362 . S
C406 H398 0.930 . S
C406 C405 1.362 . S
C406 C409 1.409 1_455 S
C407 H399 0.930 . S
C407 C408 1.355 . S
C407 C409 1.415 . S
C408 C407 1.355 . S
C408 C410 1.419 . S
C409 C404 1.425 1_655 S
C409 C406 1.409 1_655 S
C409 C407 1.415 . S
C410 H400 0.930 . S
C410 C408 1.419 . S
C410 C411 1.362 . S
C411 H401 0.930 . S
C411 C404 1.409 1_655 S
C411 C410 1.362 . S
H412 C418 0.930 . S
H413 C421 0.930 . S
H414 C422 0.930 . S
H415 C423 0.930 . S
H416 C426 0.930 . S
H417 C427 0.930 . S
C418 H412 0.930 . S
C418 C419 1.355 . S
C418 C420 1.415 . S
C419 C418 1.355 . S
C419 C421 1.419 . S
C420 C418 1.415 . S
C420 C425 1.425 1_545 S
C420 C427 1.409 1_545 S
C421 H413 0.930 . S
C421 C419 1.419 . S
C421 C422 1.362 . S
C422 H414 0.930 . S
C422 C421 1.362 . S
C422 C425 1.409 1_545 S
C423 H415 0.930 . S
C423 C424 1.355 . S
C423 C425 1.415 . S
C424 C423 1.355 . S
C424 C426 1.419 . S
C425 C420 1.425 1_565 S
C425 C422 1.409 1_565 S
C425 C423 1.415 . S
C426 H416 0.930 . S
C426 C424 1.419 . S
C426 C427 1.362 . S
C427 H417 0.930 . S
C427 C420 1.409 1_565 S
C427 C426 1.362 . S
H428 C434 0.930 . S
H429 C437 0.930 . S
H430 C438 0.930 . S
H431 C439 0.930 . S
H432 C442 0.930 . S
H433 C443 0.930 . S
C434 H428 0.930 . S
C434 C435 1.355 . S
C434 C436 1.415 . S
C435 C434 1.355 . S
C435 C437 1.419 . S
C436 C434 1.415 . S
C436 C441 1.425 . S
C436 C443 1.409 . S
C437 H429 0.930 . S
C437 C435 1.419 . S
C437 C438 1.362 . S
C438 H430 0.930 . S
C438 C437 1.362 . S
C438 C441 1.409 . S
C439 H431 0.930 . S
C439 C440 1.355 . S
C439 C441 1.415 . S
C440 C439 1.355 . S
C440 C442 1.419 . S
C441 C436 1.425 . S
C441 C438 1.409 . S
C441 C439 1.415 . S
C442 H432 0.930 . S
C442 C440 1.419 . S
C442 C443 1.362 . S
C443 H433 0.930 . S
C443 C436 1.409 . S
C443 C442 1.362 . S
H444 C450 0.930 . S
H445 C453 0.930 . S
H446 C454 0.930 . S
H447 C455 0.930 . S
H448 C458 0.930 . S
H449 C459 0.930 . S
C450 H444 0.930 . S
C450 C451 1.355 . S
C450 C452 1.415 . S
C451 C450 1.355 . S
C451 C453 1.419 . S
C452 C450 1.415 . S
C452 C457 1.425 1_455 S
C452 C459 1.409 1_455 S
C453 H445 0.930 . S
C453 C451 1.419 . S
C453 C454 1.362 . S
C454 H446 0.930 . S
C454 C453 1.362 . S
C454 C457 1.409 1_455 S
C455 H447 0.930 . S
C455 C456 1.355 . S
C455 C457 1.415 . S
C456 C455 1.355 . S
C456 C458 1.419 . S
C457 C452 1.425 1_655 S
C457 C454 1.409 1_655 S
C457 C455 1.415 . S
C458 H448 0.930 . S
C458 C456 1.419 . S
C458 C459 1.362 . S
C459 H449 0.930 . S
C459 C452 1.409 1_655 S
C459 C458 1.362 . S
H460 C466 0.930 . S
H461 C469 0.930 . S
H462 C470 0.930 . S
H463 C471 0.930 . S
H464 C474 0.930 . S
H465 C475 0.930 . S
C466 H460 0.930 . S
C466 C467 1.355 . S
C466 C468 1.415 . S
C467 C466 1.355 . S
C467 C469 1.419 . S
C468 C466 1.415 . S
C468 C473 1.425 1_545 S
C468 C475 1.409 1_545 S
C469 H461 0.930 . S
C469 C467 1.419 . S
C469 C470 1.362 . S
C470 H462 0.930 . S
C470 C469 1.362 . S
C470 C473 1.409 1_545 S
C471 H463 0.930 . S
C471 C472 1.355 . S
C471 C473 1.415 . S
C472 C471 1.355 . S
C472 C474 1.419 . S
C473 C468 1.425 1_565 S
C473 C470 1.409 1_565 S
C473 C471 1.415 . S
C474 H464 0.930 . S
C474 C472 1.419 . S
C474 C475 1.362 . S
C475 H465 0.930 . S
C475 C468 1.409 1_565 S
C475 C474 1.362 . S
H476 C482 0.930 . S
H477 C485 0.930 . S
H478 C486 0.930 . S
H479 C487 0.930 . S
H480 C490 0.930 . S
H481 C491 0.930 . S
C482 H476 0.930 . S
C482 C483 1.355 . S
C482 C484 1.415 . S
C483 C482 1.355 . S
C483 C485 1.419 . S
C484 C482 1.415 . S
C484 C489 1.425 . S
C484 C491 1.409 . S
C485 H477 0.930 . S
C485 C483 1.419 . S
C485 C486 1.362 . S
C486 H478 0.930 . S
C486 C485 1.362 . S
C486 C489 1.409 . S
C487 H479 0.930 . S
C487 C488 1.355 . S
C487 C489 1.415 . S
C488 C487 1.355 . S
C488 C490 1.419 . S
C489 C484 1.425 . S
C489 C486 1.409 . S
C489 C487 1.415 . S
C490 H480 0.930 . S
C490 C488 1.419 . S
C490 C491 1.362 . S
C491 H481 0.930 . S
C491 C484 1.409 . S
C491 C490 1.362 . S
H492 C498 0.930 . S
H493 C501 0.930 . S
H494 C502 0.930 . S
H495 C503 0.930 . S
H496 C506 0.930 . S
H497 C507 0.930 . S
C498 H492 0.930 . S
C498 C499 1.355 . S
C498 C500 1.415 . S
C499 C498 1.355 . S
C499 C501 1.419 . S
C500 C498 1.415 . S
C500 C505 1.425 . S
C500 C507 1.409 . S
C501 H493 0.930 . S
C501 C499 1.419 . S
C501 C502 1.362 . S
C502 H494 0.930 . S
C502 C501 1.362 . S
C502 C505 1.409 . S
C503 H495 0.930 . S
C503 C504 1.355 . S
C503 C505 1.415 . S
C504 C503 1.355 . S
C504 C506 1.419 . S
C505 C500 1.425 . S
C505 C502 1.409 . S
C505 C503 1.415 . S
C506 H496 0.930 . S
C506 C504 1.419 . S
C506 C507 1.362 . S
C507 H497 0.930 . S
C507 C500 1.409 . S
C507 C506 1.362 . S
H508 C514 0.930 . S
H509 C517 0.930 . S
H510 C518 0.930 . S
H511 C519 0.930 . S
H512 C522 0.930 . S
H513 C523 0.930 . S
C514 H508 0.930 . S
C514 C515 1.355 . S
C514 C516 1.415 . S
C515 C514 1.355 . S
C515 C517 1.419 . S
C516 C514 1.415 . S
C516 C521 1.425 . S
C516 C523 1.409 . S
C517 H509 0.930 . S
C517 C515 1.419 . S
C517 C518 1.362 . S
C518 H510 0.930 . S
C518 C517 1.362 . S
C518 C521 1.409 . S
C519 H511 0.930 . S
C519 C520 1.355 . S
C519 C521 1.415 1_554 S
C520 C519 1.355 . S
C520 C522 1.419 . S
C521 C516 1.425 . S
C521 C518 1.409 . S
C521 C519 1.415 1_556 S
C522 H512 0.930 . S
C522 C520 1.419 . S
C522 C523 1.362 1_554 S
C523 H513 0.930 . S
C523 C516 1.409 . S
C523 C522 1.362 1_556 S
H524 C530 0.930 . S
H525 C533 0.930 . S
H526 C534 0.930 . S
H527 C535 0.930 . S
H528 C538 0.930 . S
H529 C539 0.930 . S
C530 H524 0.930 . S
C530 C531 1.355 . S
C530 C532 1.415 . S
C531 C530 1.355 . S
C531 C533 1.419 . S
C532 C530 1.415 . S
C532 C537 1.425 . S
C532 C539 1.409 . S
C533 H525 0.930 . S
C533 C531 1.419 . S
C533 C534 1.362 . S
C534 H526 0.930 . S
C534 C533 1.362 . S
C534 C537 1.409 . S
C535 H527 0.930 . S
C535 C536 1.355 . S
C535 C537 1.415 . S
C536 C535 1.355 . S
C536 C538 1.419 . S
C537 C532 1.425 . S
C537 C534 1.409 . S
C537 C535 1.415 . S
C538 H528 0.930 . S
C538 C536 1.419 . S
C538 C539 1.362 . S
C539 H529 0.930 . S
C539 C532 1.409 . S
C539 C538 1.362 . S
H540 C546 0.930 . S
H541 C549 0.930 . S
H542 C550 0.930 . S
H543 C551 0.930 . S
H544 C554 0.930 . S
H545 C555 0.930 . S
C546 H540 0.930 . S
C546 C547 1.355 . S
C546 C548 1.415 . S
C547 C546 1.355 . S
C547 C549 1.419 . S
C548 C546 1.415 . S
C548 C553 1.425 . S
C548 C555 1.409 . S
C549 H541 0.930 . S
C549 C547 1.419 . S
C549 C550 1.362 . S
C550 H542 0.930 . S
C550 C549 1.362 . S
C550 C553 1.409 . S
C551 H543 0.930 . S
C551 C552 1.355 . S
C551 C553 1.415 . S
C552 C551 1.355 . S
C552 C554 1.419 . S
C553 C548 1.425 . S
C553 C550 1.409 . S
C553 C551 1.415 . S
C554 H544 0.930 . S
C554 C552 1.419 . S
C554 C555 1.362 . S
C555 H545 0.930 . S
C555 C548 1.409 . S
C555 C554 1.362 . S
H556 C562 0.930 . S
H557 C565 0.930 . S
H558 C566 0.931 . S
H559 C567 0.930 . S
H560 C570 0.930 . S
H561 C571 0.930 . S
C562 H556 0.930 . S
C562 C563 1.355 . S
C562 C564 1.415 1_554 S
C563 C562 1.355 . S
C563 C565 1.419 . S
C564 C562 1.415 1_556 S
C564 C569 1.425 . S
C564 C571 1.409 . S
C565 H557 0.930 . S
C565 C563 1.419 . S
C565 C566 1.359 1_554 S
C566 H558 0.931 . S
C566 C565 1.359 1_556 S
C566 C569 1.411 . S
C567 H559 0.930 . S
C567 C568 1.355 . S
C567 C569 1.415 . S
C568 C567 1.355 . S
C568 C570 1.419 . S
C569 C564 1.425 . S
C569 C566 1.411 . S
C569 C567 1.415 . S
C570 H560 0.930 . S
C570 C568 1.419 . S
C570 C571 1.362 . S
C571 H561 0.930 . S
C571 C564 1.409 . S
C571 C570 1.362 . S
H572 C578 0.930 . S
H573 C581 0.930 . S
H574 C582 0.930 . S
H575 C583 0.930 . S
H576 C586 0.930 . S
H577 C587 0.930 . S
C578 H572 0.930 . S
C578 C579 1.355 . S
C578 C580 1.415 . S
C579 C578 1.355 . S
C579 C581 1.419 . S
C580 C578 1.415 . S
C580 C585 1.425 . S
C580 C587 1.409 . S
C581 H573 0.930 . S
C581 C579 1.419 . S
C581 C582 1.362 . S
C582 H574 0.930 . S
C582 C581 1.362 . S
C582 C585 1.409 . S
C583 H575 0.930 . S
C583 C584 1.355 . S
C583 C585 1.415 . S
C584 C583 1.355 . S
C584 C586 1.419 . S
C585 C580 1.425 . S
C585 C582 1.409 . S
C585 C583 1.415 . S
C586 H576 0.930 . S
C586 C584 1.419 . S
C586 C587 1.362 . S
C587 H577 0.930 . S
C587 C580 1.409 . S
C587 C586 1.362 . S
H588 C594 0.930 . S
H589 C597 0.930 . S
H590 C598 0.930 . S
H591 C599 0.930 . S
H592 C602 0.930 . S
H593 C603 0.930 . S
C594 H588 0.930 . S
C594 C595 1.355 . S
C594 C596 1.415 1_556 S
C595 C594 1.355 . S
C595 C597 1.419 . S
C596 C594 1.415 1_554 S
C596 C601 1.425 . S
C596 C603 1.409 . S
C597 H589 0.930 . S
C597 C595 1.419 . S
C597 C598 1.362 1_556 S
C598 H590 0.930 . S
C598 C597 1.362 1_554 S
C598 C601 1.409 . S
C599 H591 0.930 . S
C599 C600 1.355 . S
C599 C601 1.415 . S
C600 C599 1.355 . S
C600 C602 1.419 . S
C601 C596 1.425 . S
C601 C598 1.409 . S
C601 C599 1.415 . S
C602 H592 0.930 . S
C602 C600 1.419 . S
C602 C603 1.362 . S
C603 H593 0.930 . S
C603 C596 1.409 . S
C603 C602 1.362 . S
H604 C610 0.930 . S
H605 C613 0.930 . S
H606 C614 0.930 . S
H607 C615 0.930 . S
H608 C618 0.930 . S
H609 C619 0.930 . S
C610 H604 0.930 . S
C610 C611 1.355 . S
C610 C612 1.415 . S
C611 C610 1.355 . S
C611 C613 1.419 . S
C612 C610 1.415 . S
C612 C617 1.425 . S
C612 C619 1.409 . S
C613 H605 0.930 . S
C613 C611 1.419 . S
C613 C614 1.362 . S
C614 H606 0.930 . S
C614 C613 1.362 . S
C614 C617 1.409 . S
C615 H607 0.930 . S
C615 C616 1.355 . S
C615 C617 1.415 . S
C616 C615 1.355 . S
C616 C618 1.419 . S
C617 C612 1.425 . S
C617 C614 1.409 . S
C617 C615 1.415 . S
C618 H608 0.930 . S
C618 C616 1.419 . S
C618 C619 1.362 . S
C619 H609 0.930 . S
C619 C612 1.409 . S
C619 C618 1.362 . S
H620 C626 0.930 . S
H621 C629 0.930 . S
H622 C630 0.930 . S
H623 C631 0.930 . S
H624 C634 0.930 . S
H625 C635 0.930 . S
C626 H620 0.930 . S
C626 C627 1.355 . S
C626 C628 1.415 . S
C627 C626 1.355 . S
C627 C629 1.419 . S
C628 C626 1.415 . S
C628 C633 1.425 . S
C628 C635 1.409 . S
C629 H621 0.930 . S
C629 C627 1.419 . S
C629 C630 1.362 . S
C630 H622 0.930 . S
C630 C629 1.362 . S
C630 C633 1.409 . S
C631 H623 0.930 . S
C631 C632 1.355 . S
C631 C633 1.415 . S
C632 C631 1.355 . S
C632 C634 1.419 . S
C633 C628 1.425 . S
C633 C630 1.409 . S
C633 C631 1.415 . S
C634 H624 0.930 . S
C634 C632 1.419 . S
C634 C635 1.362 . S
C635 H625 0.930 . S
C635 C628 1.409 . S
C635 C634 1.362 . S
H636 C642 0.930 . S
H637 C645 0.930 . S
H638 C646 0.930 . S
H639 C647 0.930 . S
H640 C650 0.930 . S
H641 C651 0.934 . S
C642 H636 0.930 . S
C642 C643 1.355 . S
C642 C644 1.415 . S
C643 C642 1.355 . S
C643 C645 1.419 . S
C644 C642 1.415 . S
C644 C649 1.425 . S
C644 C651 1.417 . S
C645 H637 0.930 . S
C645 C643 1.419 . S
C645 C646 1.362 . S
C646 H638 0.930 . S
C646 C645 1.362 . S
C646 C649 1.409 . S
C647 H639 0.930 . S
C647 C648 1.355 . S
C647 C649 1.415 1_556 S
C648 C647 1.355 . S
C648 C650 1.419 . S
C649 C644 1.425 . S
C649 C646 1.409 . S
C649 C647 1.415 1_554 S
C650 H640 0.930 . S
C650 C648 1.419 . S
C650 C651 1.351 1_556 S
C651 H641 0.934 . S
C651 C644 1.417 . S
C651 C650 1.351 1_554 S
H652 C658 0.930 . S
H653 C661 0.930 . S
H654 C662 0.930 . S
H655 C663 0.930 . S
H656 C666 0.930 . S
H657 C667 0.930 . S
C658 H652 0.930 . S
C658 C659 1.355 . S
C658 C660 1.415 . S
C659 C658 1.355 . S
C659 C661 1.419 . S
C660 C658 1.415 . S
C660 C665 1.425 . S
C660 C667 1.409 . S
C661 H653 0.930 . S
C661 C659 1.419 . S
C661 C662 1.362 . S
C662 H654 0.930 . S
C662 C661 1.362 . S
C662 C665 1.409 . S
C663 H655 0.930 . S
C663 C664 1.355 . S
C663 C665 1.415 . S
C664 C663 1.355 . S
C664 C666 1.419 . S
C665 C660 1.425 . S
C665 C662 1.409 . S
C665 C663 1.415 . S
C666 H656 0.930 . S
C666 C664 1.419 . S
C666 C667 1.362 . S
C667 H657 0.930 . S
C667 C660 1.409 . S
C667 C666 1.362 . S
H668 C674 0.930 . S
H669 C677 0.930 . S
H670 C678 0.930 . S
H671 C679 0.930 . S
H672 C682 0.930 . S
H673 C683 0.930 . S
C674 H668 0.930 . S
C674 C675 1.355 . S
C674 C676 1.415 . S
C675 C674 1.355 . S
C675 C677 1.419 . S
C676 C674 1.415 . S
C676 C681 1.425 . S
C676 C683 1.409 . S
C677 H669 0.930 . S
C677 C675 1.419 . S
C677 C678 1.362 . S
C678 H670 0.930 . S
C678 C677 1.362 . S
C678 C681 1.409 . S
C679 H671 0.930 . S
C679 C680 1.355 . S
C679 C681 1.415 . S
C680 C679 1.355 . S
C680 C682 1.419 . S
C681 C676 1.425 . S
C681 C678 1.409 . S
C681 C679 1.415 . S
C682 H672 0.930 . S
C682 C680 1.419 . S
C682 C683 1.362 . S
C683 H673 0.930 . S
C683 C676 1.409 . S
C683 C682 1.362 . S
H684 C690 0.930 . S
H685 C693 0.930 . S
H686 C694 0.930 . S
H687 C695 0.930 . S
H688 C698 0.930 . S
H689 C699 0.930 . S
C690 H684 0.930 . S
C690 C691 1.355 . S
C690 C692 1.415 . S
C691 C690 1.355 . S
C691 C693 1.419 . S
C692 C690 1.415 . S
C692 C697 1.425 . S
C692 C699 1.409 . S
C693 H685 0.930 . S
C693 C691 1.419 . S
C693 C694 1.362 . S
C694 H686 0.930 . S
C694 C693 1.362 . S
C694 C697 1.409 . S
C695 H687 0.930 . S
C695 C696 1.355 . S
C695 C697 1.415 . S
C696 C695 1.355 . S
C696 C698 1.419 . S
C697 C692 1.425 . S
C697 C694 1.409 . S
C697 C695 1.415 . S
C698 H688 0.930 . S
C698 C696 1.419 . S
C698 C699 1.362 . S
C699 H689 0.930 . S
C699 C692 1.409 . S
C699 C698 1.362 . S
H700 C706 0.930 . S
H701 C709 0.930 . S
H702 C710 0.930 . S
H703 C711 0.930 . S
H704 C714 0.930 . S
H705 C715 0.930 . S
C706 H700 0.930 . S
C706 C707 1.355 . S
C706 C708 1.415 . S
C707 C706 1.355 . S
C707 C709 1.419 . S
C708 C706 1.415 . S
C708 C713 1.425 . S
C708 C715 1.409 . S
C709 H701 0.930 . S
C709 C707 1.419 . S
C709 C710 1.362 . S
C710 H702 0.930 . S
C710 C709 1.362 . S
C710 C713 1.409 . S
C711 H703 0.930 . S
C711 C712 1.355 . S
C711 C713 1.415 . S
C712 C711 1.355 . S
C712 C714 1.419 . S
C713 C708 1.425 . S
C713 C710 1.409 . S
C713 C711 1.415 . S
C714 H704 0.930 . S
C714 C712 1.419 . S
C714 C715 1.362 . S
C715 H705 0.930 . S
C715 C708 1.409 . S
C715 C714 1.362 . S
H716 C722 0.930 . S
H717 C725 0.930 . S
H718 C726 0.930 . S
H719 C727 0.930 . S
H720 C730 0.930 . S
H721 C731 0.930 . S
C722 H716 0.930 . S
C722 C723 1.355 . S
C722 C724 1.415 . S
C723 C722 1.355 . S
C723 C725 1.419 . S
C724 C722 1.415 . S
C724 C729 1.425 . S
C724 C731 1.409 . S
C725 H717 0.930 . S
C725 C723 1.419 . S
C725 C726 1.362 . S
C726 H718 0.930 . S
C726 C725 1.362 . S
C726 C729 1.409 . S
C727 H719 0.930 . S
C727 C728 1.355 . S
C727 C729 1.415 . S
C728 C727 1.355 . S
C728 C730 1.419 . S
C729 C724 1.425 . S
C729 C726 1.409 . S
C729 C727 1.415 . S
C730 H720 0.930 . S
C730 C728 1.419 . S
C730 C731 1.362 . S
C731 H721 0.930 . S
C731 C724 1.409 . S
C731 C730 1.362 . S
H732 C738 0.930 . S
H733 C741 0.930 . S
H734 C742 0.930 . S
H735 C743 0.930 . S
H736 C746 0.930 . S
H737 C747 0.930 . S
C738 H732 0.930 . S
C738 C739 1.355 . S
C738 C740 1.415 . S
C739 C738 1.355 . S
C739 C741 1.419 . S
C740 C738 1.415 . S
C740 C745 1.425 . S
C740 C747 1.409 . S
C741 H733 0.930 . S
C741 C739 1.419 . S
C741 C742 1.362 . S
C742 H734 0.930 . S
C742 C741 1.362 . S
C742 C745 1.409 . S
C743 H735 0.930 . S
C743 C744 1.355 . S
C743 C745 1.415 . S
C744 C743 1.355 . S
C744 C746 1.419 . S
C745 C740 1.425 . S
C745 C742 1.409 . S
C745 C743 1.415 . S
C746 H736 0.930 . S
C746 C744 1.419 . S
C746 C747 1.362 . S
C747 H737 0.930 . S
C747 C740 1.409 . S
C747 C746 1.362 . S
H748 C754 0.930 . S
H749 C757 0.930 . S
H750 C758 0.930 . S
H751 C759 0.930 . S
H752 C762 0.930 . S
H753 C763 0.930 . S
C754 H748 0.930 . S
C754 C755 1.355 . S
C754 C756 1.415 . S
C755 C754 1.355 . S
C755 C757 1.419 . S
C756 C754 1.415 . S
C756 C761 1.425 . S
C756 C763 1.409 . S
C757 H749 0.930 . S
C757 C755 1.419 . S
C757 C758 1.362 . S
C758 H750 0.930 . S
C758 C757 1.362 . S
C758 C761 1.409 . S
C759 H751 0.930 . S
C759 C760 1.355 . S
C759 C761 1.415 . S
C760 C759 1.355 . S
C760 C762 1.419 . S
C761 C756 1.425 . S
C761 C758 1.409 . S
C761 C759 1.415 . S
C762 H752 0.930 . S
C762 C760 1.419 . S
C762 C763 1.362 . S
C763 H753 0.930 . S
C763 C756 1.409 . S
C763 C762 1.362 . S
H764 C770 0.930 . S
H765 C773 0.930 . S
H766 C774 0.930 . S
H767 C775 0.930 . S
H768 C778 0.930 . S
H769 C779 0.930 . S
C770 H764 0.930 . S
C770 C771 1.355 . S
C770 C772 1.415 . S
C771 C770 1.355 . S
C771 C773 1.419 . S
C772 C770 1.415 . S
C772 C777 1.425 . S
C772 C779 1.409 . S
C773 H765 0.930 . S
C773 C771 1.419 . S
C773 C774 1.362 . S
C774 H766 0.930 . S
C774 C773 1.362 . S
C774 C777 1.409 . S
C775 H767 0.930 . S
C775 C776 1.355 . S
C775 C777 1.415 . S
C776 C775 1.355 . S
C776 C778 1.419 . S
C777 C772 1.425 . S
C777 C774 1.409 . S
C777 C775 1.415 . S
C778 H768 0.930 . S
C778 C776 1.419 . S
C778 C779 1.362 . S
C779 H769 0.930 . S
C779 C772 1.409 . S
C779 C778 1.362 . S
H780 C786 0.930 . S
H781 C789 0.930 . S
H782 C790 0.930 . S
H783 C791 0.930 . S
H784 C794 0.930 . S
H785 C795 0.930 . S
C786 H780 0.930 . S
C786 C787 1.355 1_554 S
C786 C788 1.415 . S
C787 C786 1.355 1_556 S
C787 C789 1.419 . S
C788 C786 1.415 . S
C788 C793 1.425 1_554 S
C788 C795 1.409 . S
C789 H781 0.930 . S
C789 C787 1.419 . S
C789 C790 1.362 . S
C790 H782 0.930 . S
C790 C789 1.362 . S
C790 C793 1.409 . S
C791 H783 0.930 . S
C791 C792 1.355 1_556 S
C791 C793 1.415 . S
C792 C791 1.355 1_554 S
C792 C794 1.419 . S
C793 C788 1.425 1_556 S
C793 C790 1.409 . S
C793 C791 1.415 . S
C794 H784 0.930 . S
C794 C792 1.419 . S
C794 C795 1.362 . S
C795 H785 0.930 . S
C795 C788 1.409 . S
C795 C794 1.362 . S
H796 C802 0.930 . S
H797 C805 0.930 . S
H798 C806 0.930 . S
H799 C807 0.930 . S
H800 C810 0.930 . S
H801 C811 0.930 . S
C802 H796 0.930 . S
C802 C803 1.355 . S
C802 C804 1.415 . S
C803 C802 1.355 . S
C803 C805 1.419 . S
C804 C802 1.415 . S
C804 C809 1.425 . S
C804 C811 1.409 . S
C805 H797 0.930 . S
C805 C803 1.419 . S
C805 C806 1.362 . S
C806 H798 0.930 . S
C806 C805 1.362 . S
C806 C809 1.409 . S
C807 H799 0.930 . S
C807 C808 1.355 . S
C807 C809 1.415 . S
C808 C807 1.355 . S
C808 C810 1.419 . S
C809 C804 1.425 . S
C809 C806 1.409 . S
C809 C807 1.415 . S
C810 H800 0.930 . S
C810 C808 1.419 . S
C810 C811 1.362 . S
C811 H801 0.930 . S
C811 C804 1.409 . S
C811 C810 1.362 . S
H812 C818 0.930 . S
H813 C821 0.930 . S
H814 C822 0.930 . S
H815 C823 0.930 . S
H816 C826 0.930 . S
H817 C827 0.930 . S
C818 H812 0.930 . S
C818 C819 1.355 . S
C818 C820 1.415 . S
C819 C818 1.355 . S
C819 C821 1.419 . S
C820 C818 1.415 . S
C820 C825 1.425 . S
C820 C827 1.409 . S
C821 H813 0.930 . S
C821 C819 1.419 . S
C821 C822 1.362 . S
C822 H814 0.930 . S
C822 C821 1.362 . S
C822 C825 1.409 . S
C823 H815 0.930 . S
C823 C824 1.355 . S
C823 C825 1.415 . S
C824 C823 1.355 . S
C824 C826 1.419 . S
C825 C820 1.425 . S
C825 C822 1.409 . S
C825 C823 1.415 . S
C826 H816 0.930 . S
C826 C824 1.419 . S
C826 C827 1.362 . S
C827 H817 0.930 . S
C827 C820 1.409 . S
C827 C826 1.362 . S
H828 C834 0.930 . S
H829 C837 0.930 . S
H830 C838 0.930 . S
H831 C839 0.930 . S
H832 C842 0.930 . S
H833 C843 0.930 . S
C834 H828 0.930 . S
C834 C835 1.355 . S
C834 C836 1.415 . S
C835 C834 1.355 . S
C835 C837 1.419 1_554 S
C836 C834 1.415 . S
C836 C841 1.425 1_554 S
C836 C843 1.409 . S
C837 H829 0.930 . S
C837 C835 1.419 1_556 S
C837 C838 1.362 . S
C838 H830 0.930 . S
C838 C837 1.362 . S
C838 C841 1.409 . S
C839 H831 0.930 . S
C839 C840 1.355 . S
C839 C841 1.415 . S
C840 C839 1.355 . S
C840 C842 1.419 1_556 S
C841 C836 1.425 1_556 S
C841 C838 1.409 . S
C841 C839 1.415 . S
C842 H832 0.930 . S
C842 C840 1.419 1_554 S
C842 C843 1.362 . S
C843 H833 0.930 . S
C843 C836 1.409 . S
C843 C842 1.362 . S
H844 C850 0.930 . S
H845 C853 0.930 . S
H846 C854 0.930 . S
H847 C855 0.930 . S
H848 C858 0.930 . S
H849 C859 0.930 . S
C850 H844 0.930 . S
C850 C851 1.355 . S
C850 C852 1.415 . S
C851 C850 1.355 . S
C851 C853 1.419 . S
C852 C850 1.415 . S
C852 C857 1.425 . S
C852 C859 1.409 . S
C853 H845 0.930 . S
C853 C851 1.419 . S
C853 C854 1.362 . S
C854 H846 0.930 . S
C854 C853 1.362 . S
C854 C857 1.409 . S
C855 H847 0.930 . S
C855 C856 1.355 . S
C855 C857 1.415 . S
C856 C855 1.355 . S
C856 C858 1.419 . S
C857 C852 1.425 . S
C857 C854 1.409 . S
C857 C855 1.415 . S
C858 H848 0.930 . S
C858 C856 1.419 . S
C858 C859 1.362 . S
C859 H849 0.930 . S
C859 C852 1.409 . S
C859 C858 1.362 . S
H860 C866 0.930 . S
H861 C869 0.930 . S
H862 C870 0.930 . S
H863 C871 0.930 . S
H864 C874 0.930 . S
H865 C875 0.930 . S
C866 H860 0.930 . S
C866 C867 1.355 . S
C866 C868 1.415 . S
C867 C866 1.355 . S
C867 C869 1.419 . S
C868 C866 1.415 . S
C868 C873 1.425 . S
C868 C875 1.409 . S
C869 H861 0.930 . S
C869 C867 1.419 . S
C869 C870 1.362 . S
C870 H862 0.930 . S
C870 C869 1.362 . S
C870 C873 1.409 . S
C871 H863 0.930 . S
C871 C872 1.355 . S
C871 C873 1.415 . S
C872 C871 1.355 . S
C872 C874 1.419 . S
C873 C868 1.425 . S
C873 C870 1.409 . S
C873 C871 1.415 . S
C874 H864 0.930 . S
C874 C872 1.419 . S
C874 C875 1.362 . S
C875 H865 0.930 . S
C875 C868 1.409 . S
C875 C874 1.362 . S
C403 C7 1.272 . S
C408 C370 1.306 . S
C419 C40 1.275 . S
C424 C205 1.327 . S
C435 C238 1.293 . S
C440 C73 1.316 . S
C451 C271 1.266 . S
C456 C106 1.326 . S
C467 C304 1.318 . S
C472 C139 1.290 . S
C483 C337 1.323 . S
C488 C172 1.265 . S
C499 N13 1.381 . S
C504 N2 1.378 . S
C515 N35 1.388 . S
C520 N46 1.390 . S
C531 N79 1.375 . S
C536 N68 1.373 . S
C547 N112 1.394 . S
C552 N101 1.393 . S
C563 N145 1.392 . S
C568 N134 1.391 . S
C579 N167 1.372 . S
C584 N178 1.375 . S
C595 N211 1.408 . S
C600 N200 1.405 . S
C611 N233 1.387 . S
C616 N244 1.390 . S
C627 N277 1.375 . S
C632 N266 1.372 . S
C643 N299 1.403 . S
C648 N310 1.404 . S
C659 N332 1.397 . S
C664 N343 1.400 . S
C675 N376 1.391 . S
C680 N365 1.390 . S
C691 C21 1.569 . S
C696 C285 1.560 . S
C707 C54 1.566 . S
C712 C318 1.577 . S
C723 C87 1.578 . S
C728 C351 1.564 . S
C739 C384 1.575 . S
C744 C120 1.558 . S
C755 C219 1.572 . S
C760 C153 1.573 . S
C771 C252 1.574 . S
C776 C186 1.571 . S
C787 C348 1.275 . S
C792 C18 1.255 . S
C803 C381 1.261 . S
C808 C51 1.235 . S
C819 C216 1.229 . S
C824 C84 1.239 . S
C835 C117 1.231 . S
C840 C249 1.233 . S
C851 C150 1.263 . S
C856 C282 1.236 . S
C867 C183 1.263 . S
C872 C315 1.276 . S
