# Generated by pormake.
# Topology uop, (4)-cn, num edge types: 1
# Building blocks:
#     Node 0, Type 0, BuildingBlock: CEKHIL_clean_sbu_0, # of connection points: 4
#     Node 1, Type 0, BuildingBlock: CEKHIL_clean_sbu_0, # of connection points: 4
#     Node 2, Type 0, BuildingBlock: CEKHIL_clean_sbu_0, # of connection points: 4
#     Node 3, Type 0, BuildingBlock: CEKHIL_clean_sbu_0, # of connection points: 4
#     Node 4, Type 0, BuildingBlock: CEKHIL_clean_sbu_0, # of connection points: 4
#     Node 5, Type 0, BuildingBlock: CEKHIL_clean_sbu_0, # of connection points: 4
#     Node 6, Type 0, BuildingBlock: CEKHIL_clean_sbu_0, # of connection points: 4
#     Node 7, Type 0, BuildingBlock: CEKHIL_clean_sbu_0, # of connection points: 4
#     Node 8, Type 0, BuildingBlock: CEKHIL_clean_sbu_0, # of connection points: 4
#     Node 9, Type 0, BuildingBlock: CEKHIL_clean_sbu_0, # of connection points: 4
#     Node 10, Type 0, BuildingBlock: CEKHIL_clean_sbu_0, # of connection points: 4
#     Node 11, Type 0, BuildingBlock: CEKHIL_clean_sbu_0, # of connection points: 4
#     Edge 12, Type (0, 0), BuildingBlock: TEMPAE_clean_linker_10, # of connection points: 2
#     Edge 13, Type (0, 0), BuildingBlock: TEMPAE_clean_linker_10, # of connection points: 2
#     Edge 14, Type (0, 0), BuildingBlock: TEMPAE_clean_linker_10, # of connection points: 2
#     Edge 15, Type (0, 0), BuildingBlock: TEMPAE_clean_linker_10, # of connection points: 2
#     Edge 16, Type (0, 0), BuildingBlock: TEMPAE_clean_linker_10, # of connection points: 2
#     Edge 17, Type (0, 0), BuildingBlock: TEMPAE_clean_linker_10, # of connection points: 2
#     Edge 18, Type (0, 0), BuildingBlock: TEMPAE_clean_linker_10, # of connection points: 2
#     Edge 19, Type (0, 0), BuildingBlock: TEMPAE_clean_linker_10, # of connection points: 2
#     Edge 20, Type (0, 0), BuildingBlock: TEMPAE_clean_linker_10, # of connection points: 2
#     Edge 21, Type (0, 0), BuildingBlock: TEMPAE_clean_linker_10, # of connection points: 2
#     Edge 22, Type (0, 0), BuildingBlock: TEMPAE_clean_linker_10, # of connection points: 2
#     Edge 23, Type (0, 0), BuildingBlock: TEMPAE_clean_linker_10, # of connection points: 2
#     Edge 24, Type (0, 0), BuildingBlock: TEMPAE_clean_linker_10, # of connection points: 2
#     Edge 25, Type (0, 0), BuildingBlock: TEMPAE_clean_linker_10, # of connection points: 2
#     Edge 26, Type (0, 0), BuildingBlock: TEMPAE_clean_linker_10, # of connection points: 2
#     Edge 27, Type (0, 0), BuildingBlock: TEMPAE_clean_linker_10, # of connection points: 2
#     Edge 28, Type (0, 0), BuildingBlock: TEMPAE_clean_linker_10, # of connection points: 2
#     Edge 29, Type (0, 0), BuildingBlock: TEMPAE_clean_linker_10, # of connection points: 2
#     Edge 30, Type (0, 0), BuildingBlock: TEMPAE_clean_linker_10, # of connection points: 2
#     Edge 31, Type (0, 0), BuildingBlock: TEMPAE_clean_linker_10, # of connection points: 2
#     Edge 32, Type (0, 0), BuildingBlock: TEMPAE_clean_linker_10, # of connection points: 2
#     Edge 33, Type (0, 0), BuildingBlock: TEMPAE_clean_linker_10, # of connection points: 2
#     Edge 34, Type (0, 0), BuildingBlock: TEMPAE_clean_linker_10, # of connection points: 2
#     Edge 35, Type (0, 0), BuildingBlock: TEMPAE_clean_linker_10, # of connection points: 2
# Relax obj value: 0.152
# Max RMSD: 0.165
# Mean RMSD: 0.161
data_MOF--net-uop--node1-CEKHIL_clean_sbu_0--edge1-TEMPAE_clean_linker_10
_symmetry_space_group_name_H-M    P1
_symmetry_Int_Tables_number       1
_symmetry_cell_setting            triclinic
loop_
_symmetry_equiv_pos_as_xyz
'x, y, z'
_cell_length_a     33.234395
_cell_length_b     32.319743
_cell_length_c     44.742769
_cell_angle_alpha  89.999951
_cell_angle_beta   90.001377
_cell_angle_gamma 120.98771
loop_
_atom_site_label
_atom_site_type_symbol
_atom_site_fract_x
_atom_site_fract_y
_atom_site_fract_z
_atom_type_partial_charge
Co0 Co 0.23558 0.38502 0.22344 0.0
O1 O 0.17349 0.3535 0.23973 0.0
O2 O 0.19097 0.34474 0.19322 0.0
C3 C 0.2702 0.37092 0.2618 0.0
O4 O 0.29637 0.41121 0.19966 0.0
Co5 Co 0.31457 0.47557 0.25702 0.0
O6 O 0.3544 0.46209 0.23076 0.0
C7 C 0.24601 0.48428 0.22034 0.0
C8 C 0.15908 0.33416 0.21358 0.0
C9 C 0.34003 0.43742 0.20675 0.0
O10 O 0.22892 0.44091 0.21075 0.0
O11 O 0.27794 0.50352 0.24038 0.0
O12 O 0.24744 0.33751 0.24188 0.0
O13 O 0.26621 0.40842 0.25974 0.0
Co14 Co 0.84901 0.25066 0.53535 0.0
O15 O 0.90649 0.27064 0.55619 0.0
O16 O 0.85209 0.28685 0.57039 0.0
C17 C 0.82834 0.17368 0.52811 0.0
O18 O 0.78493 0.23435 0.52073 0.0
Co19 Co 0.83583 0.21794 0.46937 0.0
O20 O 0.7684 0.19385 0.47738 0.0
C21 C 0.89229 0.3214 0.48336 0.0
C22 C 0.89204 0.28997 0.57565 0.0
C23 C 0.75618 0.20918 0.4998 0.0
O24 O 0.88011 0.31131 0.51088 0.0
O25 O 0.8815 0.28909 0.46328 0.0
O26 O 0.8205 0.18751 0.55358 0.0
O27 O 0.85311 0.20766 0.50904 0.0
Co28 Co 0.59805 0.82594 0.87391 0.0
O29 O 0.63246 0.79644 0.88621 0.0
O30 O 0.62682 0.81553 0.83935 0.0
C31 C 0.62515 0.88201 0.90984 0.0
O32 O 0.56735 0.85976 0.85401 0.0
Co33 Co 0.52272 0.82065 0.9178 0.0
O34 O 0.52269 0.86726 0.88916 0.0
C35 C 0.50185 0.73521 0.88273 0.0
C36 C 0.64381 0.79793 0.85838 0.0
C37 C 0.54119 0.87581 0.86324 0.0
O38 O 0.54023 0.76058 0.86811 0.0
O39 O 0.4899 0.75146 0.90496 0.0
O40 O 0.64983 0.88872 0.88586 0.0
O41 O 0.58786 0.83986 0.91264 0.0
Co42 Co 0.73848 0.60986 0.20822 0.0
O43 O 0.79766 0.64147 0.22845 0.0
O44 O 0.78749 0.65102 0.18048 0.0
C45 C 0.69804 0.62304 0.24328 0.0
O46 O 0.68195 0.58371 0.18043 0.0
Co47 Co 0.6562 0.5181 0.2386 0.0
O48 O 0.62088 0.52063 0.20376 0.0
C49 C 0.73254 0.51279 0.20991 0.0
C50 C 0.81601 0.66129 0.20297 0.0
C51 C 0.63874 0.5494 0.18167 0.0
O52 O 0.74775 0.55461 0.19822 0.0
O53 O 0.69937 0.49407 0.22916 0.0
O54 O 0.72324 0.65656 0.22392 0.0
O55 O 0.70255 0.58577 0.24274 0.0
Co56 Co 0.14566 0.75033 0.52312 0.0
O57 O 0.08791 0.73424 0.54219 0.0
O58 O 0.13894 0.71498 0.55922 0.0
C59 C 0.17008 0.82749 0.51405 0.0
O60 O 0.20928 0.76271 0.51063 0.0
Co61 Co 0.16292 0.77924 0.45669 0.0
O62 O 0.22953 0.80168 0.46669 0.0
C63 C 0.10215 0.67727 0.47239 0.0
C64 C 0.09981 0.71437 0.56287 0.0
C65 C 0.23959 0.78643 0.49014 0.0
O66 O 0.11353 0.68866 0.49985 0.0
O67 O 0.11472 0.70843 0.45138 0.0
O68 O 0.1761 0.81416 0.5402 0.0
O69 O 0.145 0.79339 0.49511 0.0
Co70 Co 0.38723 0.15254 0.87533 0.0
O71 O 0.34946 0.1812 0.87786 0.0
O72 O 0.36116 0.1509 0.83635 0.0
C73 C 0.35842 0.10662 0.91616 0.0
O74 O 0.42312 0.11855 0.8654 0.0
Co75 Co 0.45889 0.17322 0.92649 0.0
O76 O 0.4595 0.11795 0.90777 0.0
C77 C 0.47953 0.24802 0.88164 0.0
C78 C 0.34142 0.17177 0.84964 0.0
C79 C 0.44602 0.10393 0.88104 0.0
O80 O 0.44366 0.21741 0.8664 0.0
O81 O 0.48986 0.23859 0.90733 0.0
O82 O 0.33602 0.09207 0.89094 0.0
O83 O 0.39417 0.15008 0.91645 0.0
Co84 Co 0.59217 0.74395 0.47027 0.0
O85 O 0.63037 0.7249 0.4493 0.0
O86 O 0.55876 0.70647 0.43577 0.0
C87 C 0.64758 0.82143 0.47666 0.0
O88 O 0.54325 0.75856 0.48466 0.0
Co89 Co 0.61115 0.77908 0.53562 0.0
O90 O 0.56668 0.80158 0.52706 0.0
C91 C 0.56767 0.67538 0.52305 0.0
C92 C 0.59602 0.7043 0.43026 0.0
C93 C 0.53891 0.78424 0.50482 0.0
O94 O 0.56467 0.6841 0.49538 0.0
O95 O 0.58836 0.70869 0.54268 0.0
O96 O 0.62514 0.8068 0.45148 0.0
O97 O 0.63926 0.78827 0.49613 0.0
Co98 Co 0.84291 0.59059 0.78008 0.0
O99 O 0.82184 0.6346 0.77249 0.0
O100 O 0.83844 0.61776 0.81744 0.0
C101 C 0.89563 0.61539 0.74321 0.0
O102 O 0.86782 0.54876 0.79567 0.0
Co103 Co 0.82483 0.51373 0.73158 0.0
O104 O 0.87009 0.50637 0.75646 0.0
C105 C 0.74716 0.49996 0.76947 0.0
C106 C 0.82405 0.64103 0.80117 0.0
C107 C 0.88035 0.52108 0.78339 0.0
O108 O 0.77621 0.53661 0.78512 0.0
O109 O 0.7588 0.48644 0.7458 0.0
O110 O 0.90657 0.63919 0.76826 0.0
O111 O 0.85224 0.58172 0.74025 0.0
Co112 Co 0.22479 0.83382 0.13112 0.0
O113 O 0.15909 0.80353 0.12363 0.0
O114 O 0.19243 0.8291 0.16816 0.0
C115 C 0.24855 0.88524 0.09269 0.0
O116 O 0.29259 0.86812 0.146 0.0
Co117 Co 0.28397 0.81929 0.0827 0.0
O118 O 0.33654 0.86264 0.10941 0.0
C119 C 0.21998 0.73862 0.12086 0.0
C120 C 0.15446 0.80832 0.15194 0.0
C121 C 0.33222 0.87722 0.13504 0.0
O122 O 0.21661 0.76849 0.13813 0.0
O123 O 0.2411 0.75091 0.09565 0.0
O124 O 0.23507 0.89568 0.11736 0.0
O125 O 0.24178 0.84226 0.09105 0.0
Co126 Co 0.40871 0.26126 0.47554 0.0
O127 O 0.37177 0.28516 0.45881 0.0
O128 O 0.4415 0.30222 0.44192 0.0
C129 C 0.35116 0.18404 0.479 0.0
O130 O 0.45548 0.2415 0.48643 0.0
Co131 Co 0.38873 0.21991 0.53961 0.0
O132 O 0.43077 0.19571 0.52784 0.0
C133 C 0.43655 0.32454 0.53112 0.0
C134 C 0.40495 0.30672 0.43915 0.0
C135 C 0.45822 0.21324 0.50543 0.0
O136 O 0.43981 0.31787 0.50318 0.0
O137 O 0.41345 0.28999 0.54963 0.0
O138 O 0.37276 0.20152 0.45384 0.0
O139 O 0.36127 0.21502 0.50037 0.0
Co140 Co 0.13602 0.37783 0.79206 0.0
O141 O 0.1551 0.33687 0.77425 0.0
O142 O 0.14159 0.33878 0.82262 0.0
C143 C 0.08065 0.36514 0.75858 0.0
O144 O 0.11374 0.41451 0.81745 0.0
Co145 Co 0.15463 0.46794 0.75512 0.0
O146 O 0.12132 0.47606 0.78923 0.0
C147 C 0.23316 0.46722 0.78361 0.0
C148 C 0.15429 0.32096 0.80097 0.0
C149 C 0.10901 0.4512 0.81325 0.0
O150 O 0.20382 0.42938 0.79835 0.0
O151 O 0.22067 0.48495 0.76253 0.0
O152 O 0.071 0.33401 0.77988 0.0
O153 O 0.1242 0.39851 0.75618 0.0
Co154 Co 0.76418 0.16967 0.11657 0.0
O155 O 0.83101 0.20198 0.11433 0.0
O156 O 0.78938 0.17121 0.15587 0.0
C157 C 0.74897 0.12215 0.07671 0.0
O158 O 0.69397 0.13262 0.12621 0.0
Co159 Co 0.71181 0.18536 0.06398 0.0
O160 O 0.65646 0.1312 0.0839 0.0
C161 C 0.7643 0.26297 0.10737 0.0
C162 C 0.83017 0.19414 0.14277 0.0
C163 C 0.6562 0.11739 0.11066 0.0
O164 O 0.76907 0.23338 0.12404 0.0
O165 O 0.74595 0.25203 0.08128 0.0
O166 O 0.75827 0.10993 0.1023 0.0
O167 O 0.75482 0.1648 0.07544 0.0
C168 C 0.18427 0.6758 0.16086 0.0
C169 C 0.20387 0.68953 0.13219 0.0
C170 C 0.1789 0.63424 0.1745 0.0
C171 C 0.19375 0.60621 0.1591 0.0
C172 C 0.20814 0.61665 0.12891 0.0
C173 C 0.21291 0.65822 0.11575 0.0
C174 C 0.16228 0.6235 0.2065 0.0
C175 C 0.2239 0.58736 0.1116 0.0
C176 C 0.26186 0.56474 0.20465 0.0
C177 C 0.23065 0.51486 0.2061 0.0
C178 C 0.2498 0.59464 0.1896 0.0
C179 C 0.20493 0.57423 0.1762 0.0
C180 C 0.1726 0.52401 0.17827 0.0
C181 C 0.1861 0.49466 0.19298 0.0
C182 C 0.28573 0.64799 0.18741 0.0
C183 C 0.12409 0.50141 0.1649 0.0
H184 H 0.17597 0.69909 0.17349 0.0
H185 H 0.22697 0.66783 0.0933 0.0
H186 H 0.13972 0.58408 0.21025 0.0
H187 H 0.19311 0.63711 0.22153 0.0
H188 H 0.14244 0.64125 0.21288 0.0
H189 H 0.22522 0.59417 0.08718 0.0
H190 H 0.2596 0.59726 0.11912 0.0
H191 H 0.20027 0.5482 0.1157 0.0
H192 H 0.29651 0.58036 0.21448 0.0
H193 H 0.16183 0.45604 0.19432 0.0
H194 H 0.27152 0.66931 0.19735 0.0
H195 H 0.29374 0.65875 0.16359 0.0
H196 H 0.31907 0.65786 0.19899 0.0
H197 H 0.1048 0.5173 0.17532 0.0
H198 H 0.10341 0.46166 0.16811 0.0
H199 H 0.12644 0.50932 0.14063 0.0
C200 C 0.67364 0.16978 0.48046 0.0
C201 C 0.70782 0.20012 0.50126 0.0
C202 C 0.62884 0.16412 0.48053 0.0
C203 C 0.61837 0.18983 0.50164 0.0
C204 C 0.652 0.21882 0.52344 0.0
C205 C 0.69619 0.22341 0.52307 0.0
C206 C 0.59342 0.13219 0.45731 0.0
C207 C 0.64218 0.24697 0.54629 0.0
C208 C 0.53475 0.23247 0.48332 0.0
C209 C 0.49664 0.20323 0.50204 0.0
C210 C 0.57373 0.22685 0.48194 0.0
C211 C 0.57432 0.19067 0.49938 0.0
C212 C 0.53485 0.15912 0.51696 0.0
C213 C 0.49652 0.16603 0.51829 0.0
C214 C 0.61535 0.26147 0.46308 0.0
C215 C 0.53395 0.1195 0.53536 0.0
H216 H 0.68211 0.15112 0.46377 0.0
H217 H 0.72217 0.24666 0.53939 0.0
H218 H 0.55875 0.10812 0.46782 0.0
H219 H 0.58872 0.15488 0.44072 0.0
H220 H 0.60457 0.10969 0.44526 0.0
H221 H 0.67106 0.26551 0.56281 0.0
H222 H 0.63736 0.27455 0.5348 0.0
H223 H 0.60922 0.22266 0.5585 0.0
H224 H 0.5351 0.2612 0.4706 0.0
H225 H 0.46684 0.14281 0.53245 0.0
H226 H 0.62588 0.24134 0.44809 0.0
H227 H 0.64572 0.28446 0.4778 0.0
H228 H 0.60795 0.28532 0.44922 0.0
H229 H 0.54607 0.09916 0.52188 0.0
H230 H 0.49831 0.09381 0.54416 0.0
H231 H 0.55831 0.13559 0.55456 0.0
C232 C 0.41979 0.66755 0.87605 0.0
C233 C 0.46784 0.6866 0.87141 0.0
C234 C 0.38642 0.62536 0.86152 0.0
C235 C 0.40154 0.60097 0.84248 0.0
C236 C 0.44997 0.61787 0.83958 0.0
C237 C 0.4827 0.66108 0.85373 0.0
C238 C 0.33504 0.60887 0.86496 0.0
C239 C 0.46738 0.59194 0.82034 0.0
C240 C 0.29655 0.48189 0.81998 0.0
C241 C 0.28226 0.49581 0.79426 0.0
C242 C 0.33869 0.51439 0.83445 0.0
C243 C 0.36648 0.56177 0.82309 0.0
C244 C 0.35491 0.57401 0.79535 0.0
C245 C 0.31309 0.54068 0.78113 0.0
C246 C 0.35111 0.49941 0.8633 0.0
C247 C 0.38385 0.62408 0.78228 0.0
H248 H 0.40814 0.6872 0.88962 0.0
H249 H 0.51991 0.67544 0.85038 0.0
H250 H 0.32068 0.61156 0.84313 0.0
H251 H 0.31483 0.57053 0.87201 0.0
H252 H 0.32915 0.63075 0.88158 0.0
H253 H 0.50372 0.602 0.82646 0.0
H254 H 0.44414 0.55221 0.82228 0.0
H255 H 0.46749 0.6018 0.79659 0.0
H256 H 0.27355 0.44682 0.82993 0.0
H257 H 0.303 0.55141 0.76086 0.0
H258 H 0.3404 0.51341 0.88244 0.0
H259 H 0.38955 0.51469 0.86496 0.0
H260 H 0.33291 0.4595 0.86536 0.0
H261 H 0.37935 0.64991 0.79615 0.0
H262 H 0.37333 0.62596 0.75898 0.0
H263 H 0.42166 0.63605 0.78243 0.0
C264 C 0.79202 0.50302 0.1814 0.0
C265 C 0.75066 0.48269 0.1984 0.0
C266 C 0.80574 0.47355 0.16714 0.0
C267 C 0.77673 0.42282 0.16945 0.0
C268 C 0.73642 0.40233 0.18792 0.0
C269 C 0.72417 0.43256 0.2024 0.0
C270 C 0.8498 0.49665 0.14842 0.0
C271 C 0.70432 0.34829 0.19083 0.0
C272 C 0.75828 0.33668 0.10727 0.0
C273 C 0.77646 0.31015 0.12012 0.0
C274 C 0.76176 0.37652 0.12206 0.0
C275 C 0.78456 0.39045 0.15014 0.0
C276 C 0.80722 0.36698 0.16171 0.0
C277 C 0.80256 0.32671 0.14666 0.0
C278 C 0.73711 0.40068 0.10897 0.0
C279 C 0.83318 0.38193 0.1911 0.0
H280 H 0.81303 0.54185 0.1786 0.0
H281 H 0.69225 0.41654 0.21556 0.0
H282 H 0.86934 0.47756 0.1513 0.0
H283 H 0.84028 0.4943 0.12447 0.0
H284 H 0.87336 0.53534 0.15418 0.0
H285 H 0.67568 0.33834 0.20725 0.0
H286 H 0.68826 0.33271 0.16882 0.0
H287 H 0.72456 0.33136 0.19787 0.0
H288 H 0.73855 0.3245 0.08659 0.0
H289 H 0.81769 0.30702 0.15638 0.0
H290 H 0.76036 0.44047 0.10946 0.0
H291 H 0.70564 0.39133 0.12261 0.0
H292 H 0.72568 0.38925 0.08555 0.0
H293 H 0.85399 0.42182 0.19318 0.0
H294 H 0.85702 0.36758 0.19368 0.0
H295 H 0.80751 0.3678 0.20974 0.0
C296 C 0.49651 0.82667 0.51978 0.0
C297 C 0.49889 0.79196 0.5023 0.0
C298 C 0.45764 0.83269 0.51787 0.0
C299 C 0.42022 0.80281 0.49836 0.0
C300 C 0.42301 0.76861 0.48016 0.0
C301 C 0.46237 0.76381 0.48224 0.0
C302 C 0.45602 0.87005 0.53723 0.0
C303 C 0.38358 0.73571 0.45929 0.0
C304 C 0.29567 0.76859 0.51558 0.0
C305 C 0.28727 0.79426 0.49364 0.0
C306 C 0.33956 0.77282 0.5182 0.0
C307 C 0.37618 0.80388 0.49861 0.0
C308 C 0.36875 0.83172 0.47736 0.0
C309 C 0.32418 0.82634 0.47497 0.0
C310 C 0.34598 0.74213 0.54097 0.0
C311 C 0.40732 0.86576 0.45642 0.0
H312 H 0.52487 0.84896 0.53505 0.0
H313 H 0.46385 0.73691 0.46859 0.0
H314 H 0.44704 0.89283 0.52357 0.0
H315 H 0.42816 0.85183 0.55437 0.0
H316 H 0.48992 0.89375 0.54878 0.0
H317 H 0.39225 0.71261 0.44565 0.0
H318 H 0.35143 0.71196 0.47242 0.0
H319 H 0.37523 0.75725 0.44398 0.0
H320 H 0.26746 0.74384 0.53021 0.0
H321 H 0.31814 0.84682 0.45825 0.0
H322 H 0.37739 0.76483 0.55493 0.0
H323 H 0.35178 0.71534 0.5293 0.0
H324 H 0.31505 0.72241 0.55589 0.0
H325 H 0.44025 0.88892 0.469 0.0
H326 H 0.39781 0.88926 0.44395 0.0
H327 H 0.4146 0.84468 0.44003 0.0
C328 C 0.55949 0.32072 0.87711 0.0
C329 C 0.51273 0.2946 0.86748 0.0
C330 C 0.59347 0.35998 0.86059 0.0
C331 C 0.58009 0.37384 0.83414 0.0
C332 C 0.53225 0.35059 0.8259 0.0
C333 C 0.49907 0.31078 0.84252 0.0
C334 C 0.64424 0.38398 0.87015 0.0
C335 C 0.51655 0.36572 0.79849 0.0
C336 C 0.68038 0.48822 0.80121 0.0
C337 C 0.69946 0.46914 0.78144 0.0
C338 C 0.63884 0.45779 0.81685 0.0
C339 C 0.61698 0.40727 0.81314 0.0
C340 C 0.63446 0.38814 0.79174 0.0
C341 C 0.67526 0.41945 0.77585 0.0
C342 C 0.62037 0.47967 0.83867 0.0
C343 C 0.61239 0.33436 0.78736 0.0
H344 H 0.57023 0.30866 0.8965 0.0
H345 H 0.46272 0.29129 0.83533 0.0
H346 H 0.66417 0.37597 0.85357 0.0
H347 H 0.66036 0.42371 0.87091 0.0
H348 H 0.64827 0.37142 0.89245 0.0
H349 H 0.478 0.35052 0.79841 0.0
H350 H 0.53462 0.40564 0.79706 0.0
H351 H 0.52591 0.35281 0.77818 0.0
H352 H 0.69875 0.5268 0.80524 0.0
H353 H 0.68996 0.40461 0.76061 0.0
H354 H 0.63273 0.47843 0.86149 0.0
H355 H 0.58142 0.45927 0.83902 0.0
H356 H 0.63309 0.51801 0.83317 0.0
H357 H 0.6167 0.31802 0.80803 0.0
H358 H 0.62844 0.32558 0.76848 0.0
H359 H 0.57422 0.31723 0.78311 0.0
C360 C 0.58179 0.50164 0.14236 0.0
C361 C 0.60548 0.54484 0.15857 0.0
C362 C 0.53442 0.48187 0.13464 0.0
C363 C 0.51064 0.50491 0.14491 0.0
C364 C 0.5372 0.55323 0.15519 0.0
C365 C 0.58486 0.57287 0.16189 0.0
C366 C 0.50811 0.43252 0.12057 0.0
C367 C 0.51375 0.58059 0.16456 0.0
C368 C 0.38055 0.45521 0.15714 0.0
C369 C 0.37665 0.44038 0.18696 0.0
C370 C 0.42298 0.47212 0.14145 0.0
C371 C 0.46186 0.47463 0.15633 0.0
C372 C 0.45577 0.45451 0.18539 0.0
C373 C 0.41316 0.43751 0.20017 0.0
C374 C 0.4266 0.49025 0.10995 0.0
C375 C 0.4955 0.45523 0.20239 0.0
H376 H 0.59816 0.48031 0.13925 0.0
H377 H 0.60356 0.60666 0.17408 0.0
H378 H 0.4948 0.40458 0.13833 0.0
H379 H 0.47762 0.42776 0.10748 0.0
H380 H 0.53149 0.42659 0.10574 0.0
H381 H 0.53957 0.61967 0.1676 0.0
H382 H 0.48748 0.57634 0.14767 0.0
H383 H 0.49512 0.56587 0.18608 0.0
H384 H 0.35199 0.45709 0.14686 0.0
H385 H 0.40951 0.42525 0.22314 0.0
H386 H 0.45712 0.4934 0.09774 0.0
H387 H 0.4299 0.52619 0.11053 0.0
H388 H 0.39406 0.46568 0.09735 0.0
H389 H 0.51039 0.43715 0.1893 0.0
H390 H 0.48407 0.43678 0.22438 0.0
H391 H 0.52388 0.49307 0.20643 0.0
C392 C 0.08443 0.59386 0.4806 0.0
C393 C 0.07428 0.62534 0.46546 0.0
C394 C 0.05506 0.54382 0.47811 0.0
C395 C 0.01387 0.52474 0.46055 0.0
C396 C 0.00472 0.55634 0.44388 0.0
C397 C 0.03546 0.60655 0.44632 0.0
C398 C 0.06665 0.5115 0.49584 0.0
C399 C 0.9609 0.53734 0.4252 0.0
C400 C 0.94971 0.38869 0.45007 0.0
C401 C 0.91985 0.37304 0.475 0.0
C402 C 0.97911 0.43821 0.44402 0.0
C403 C 0.97799 0.47255 0.46313 0.0
C404 C 0.9459 0.45673 0.48726 0.0
C405 C 0.91753 0.40728 0.493 0.0
C406 C 0.01314 0.45374 0.41824 0.0
C407 C 0.94312 0.4921 0.50799 0.0
H408 H 0.11485 0.60851 0.49514 0.0
H409 H 0.0276 0.631 0.4347 0.0
H410 H 0.04138 0.49479 0.51456 0.0
H411 H 0.06344 0.48184 0.48161 0.0
H412 H 0.10268 0.53162 0.50532 0.0
H413 H 0.96242 0.56552 0.41021 0.0
H414 H 0.9552 0.50619 0.41147 0.0
H415 H 0.93006 0.52441 0.44015 0.0
H416 H 0.95156 0.36237 0.43605 0.0
H417 H 0.89394 0.39543 0.51202 0.0
H418 H 0.04931 0.46922 0.42704 0.0
H419 H 0.0124 0.48233 0.40497 0.0
H420 H 0.00538 0.42313 0.40323 0.0
H421 H 0.97584 0.51154 0.52135 0.0
H422 H 0.91293 0.474 0.52363 0.0
H423 H 0.93992 0.51947 0.49495 0.0
C424 C 0.46787 0.06961 0.83771 0.0
C425 C 0.45771 0.06929 0.86818 0.0
C426 C 0.48328 0.03929 0.82656 0.0
C427 C 0.48811 0.00791 0.8464 0.0
C428 C 0.47608 0.00639 0.87695 0.0
C429 C 0.46129 0.03715 0.88738 0.0
C430 C 0.49607 0.0424 0.79396 0.0
C431 C 0.47972 0.97293 0.89897 0.0
C432 C 0.4885 0.89387 0.83493 0.0
C433 C 0.53399 0.90883 0.84468 0.0
C434 C 0.47454 0.9276 0.83024 0.0
C435 C 0.50662 0.97692 0.8364 0.0
C436 C 0.55442 0.9926 0.84173 0.0
C437 C 0.56761 0.95811 0.84587 0.0
C438 C 0.42375 0.90957 0.82324 0.0
C439 C 0.59006 0.04497 0.8477 0.0
H440 H 0.4654 0.09469 0.82283 0.0
H441 H 0.4528 0.03631 0.91087 0.0
H442 H 0.53467 0.06589 0.79155 0.0
H443 H 0.48583 0.00641 0.78475 0.0
H444 H 0.47928 0.05822 0.78041 0.0
H445 H 0.46798 0.97557 0.92176 0.0
H446 H 0.458 0.93497 0.89134 0.0
H447 H 0.51661 0.98162 0.9004 0.0
H448 H 0.46251 0.85561 0.8341 0.0
H449 H 0.60275 0.96955 0.85366 0.0
H450 H 0.42035 0.93534 0.80863 0.0
H451 H 0.40467 0.90595 0.84435 0.0
H452 H 0.40667 0.8737 0.81215 0.0
H453 H 0.58478 0.06876 0.83239 0.0
H454 H 0.62653 0.05262 0.84514 0.0
H455 H 0.58572 0.05407 0.87094 0.0
C456 C 0.56079 0.61099 0.5579 0.0
C457 C 0.54611 0.6242 0.53208 0.0
C458 C 0.54339 0.56211 0.56464 0.0
C459 C 0.51036 0.52592 0.54522 0.0
C460 C 0.49352 0.53914 0.52011 0.0
C461 C 0.51173 0.58801 0.5138 0.0
C462 C 0.56222 0.54939 0.59155 0.0
C463 C 0.45795 0.50172 0.49894 0.0
C464 C 0.50355 0.40846 0.52847 0.0
C465 C 0.46033 0.37506 0.54128 0.0
C466 C 0.52258 0.4581 0.53209 0.0
C467 C 0.49727 0.47472 0.54854 0.0
C468 C 0.45553 0.44112 0.56366 0.0
C469 C 0.43757 0.39137 0.55998 0.0
C470 C 0.56758 0.49258 0.51598 0.0
C471 C 0.42765 0.45746 0.58146 0.0
H472 H 0.58726 0.63878 0.57218 0.0
H473 H 0.49958 0.59787 0.49409 0.0
H474 H 0.53335 0.51894 0.60408 0.0
H475 H 0.58658 0.53759 0.58406 0.0
H476 H 0.58154 0.58057 0.60692 0.0
H477 H 0.44528 0.51772 0.48213 0.0
H478 H 0.47395 0.48369 0.48689 0.0
H479 H 0.42729 0.47351 0.51153 0.0
H480 H 0.52141 0.39572 0.51427 0.0
H481 H 0.40405 0.36547 0.56983 0.0
H482 H 0.59146 0.52293 0.53079 0.0
H483 H 0.55949 0.5081 0.49638 0.0
H484 H 0.58627 0.47443 0.50794 0.0
H485 H 0.45115 0.48964 0.59515 0.0
H486 H 0.40175 0.42846 0.59638 0.0
H487 H 0.40832 0.46781 0.56588 0.0
C488 C 0.91582 0.51319 0.83137 0.0
C489 C 0.91011 0.50739 0.80025 0.0
C490 C 0.94652 0.50257 0.84662 0.0
C491 C 0.97224 0.48633 0.83022 0.0
C492 C 0.96549 0.47928 0.79889 0.0
C493 C 0.93443 0.48957 0.78449 0.0
C494 C 0.95065 0.50812 0.88016 0.0
C495 C 0.99223 0.46237 0.78009 0.0
C496 C 0.09206 0.50933 0.83708 0.0
C497 C 0.08143 0.46154 0.83444 0.0
C498 C 0.05631 0.51931 0.84203 0.0
C499 C 0.00946 0.48034 0.84424 0.0
C500 C 0.00084 0.43313 0.84886 0.0
C501 C 0.03722 0.42396 0.84355 0.0
C502 C 0.06761 0.57067 0.83886 0.0
C503 C 0.9518 0.39129 0.85397 0.0
H504 H 0.89647 0.52615 0.84378 0.0
H505 H 0.93036 0.48497 0.76046 0.0
H506 H 0.92701 0.47243 0.89057 0.0
H507 H 0.98681 0.52071 0.88804 0.0
H508 H 0.94 0.53361 0.88822 0.0
H509 H 0.98313 0.4595 0.75598 0.0
H510 H 0.03055 0.48783 0.78234 0.0
H511 H 0.98453 0.42639 0.78777 0.0
H512 H 0.12683 0.53857 0.83103 0.0
H513 H 0.02917 0.38694 0.84235 0.0
H514 H 0.04521 0.57783 0.85377 0.0
H515 H 0.0608 0.57684 0.81547 0.0
H516 H 0.10506 0.59686 0.84406 0.0
H517 H 0.93127 0.40245 0.86781 0.0
H518 H 0.95231 0.36083 0.86511 0.0
H519 H 0.93373 0.37829 0.83213 0.0
C520 C 0.38947 0.95741 0.15619 0.0
C521 C 0.37627 0.90936 0.15094 0.0
C522 C 0.43713 0.99312 0.15936 0.0
C523 C 0.47167 0.97996 0.15722 0.0
C524 C 0.45755 0.9305 0.1568 0.0
C525 C 0.4099 0.89574 0.15325 0.0
C526 C 0.45065 0.04533 0.16066 0.0
C527 C 0.49301 0.91464 0.15557 0.0
C528 C 0.57167 0.05588 0.10427 0.0
C529 C 0.60984 0.082 0.12359 0.0
C530 C 0.5269 0.02315 0.11517 0.0
C531 C 0.51959 0.01601 0.1464 0.0
C532 C 0.5579 0.04185 0.16621 0.0
C533 C 0.60275 0.07463 0.15455 0.0
C534 C 0.48739 0.99597 0.09301 0.0
C535 C 0.55149 0.03572 0.19962 0.0
H536 H 0.36338 0.96791 0.15439 0.0
H537 H 0.39946 0.85836 0.14943 0.0
H538 H 0.48146 0.06628 0.17544 0.0
H539 H 0.46043 0.06119 0.13792 0.0
H540 H 0.42118 0.04923 0.16879 0.0
H541 H 0.47712 0.87614 0.16203 0.0
H542 H 0.5066 0.919 0.13241 0.0
H543 H 0.52324 0.93709 0.17048 0.0
H544 H 0.57676 0.06078 0.08031 0.0
H545 H 0.632 0.09493 0.16964 0.0
H546 H 0.45869 0.00314 0.09745 0.0
H547 H 0.47262 0.95656 0.09541 0.0
H548 H 0.49903 0.00615 0.06948 0.0
H549 H 0.53424 0.05526 0.2077 0.0
H550 H 0.58556 0.05042 0.21145 0.0
H551 H 0.52851 -0.00283 0.20574 0.0
C552 C 0.33478 0.40969 0.2991 0.0
C553 C 0.30117 0.36799 0.28406 0.0
C554 C 0.36188 0.40703 0.3221 0.0
C555 C 0.35396 0.36141 0.33078 0.0
C556 C 0.32203 0.31955 0.31452 0.0
C557 C 0.29626 0.32345 0.29107 0.0
C558 C 0.39675 0.45263 0.33829 0.0
C559 C 0.31255 0.27018 0.32326 0.0
C560 C 0.42669 0.34147 0.38769 0.0
C561 C 0.39811 0.3301 0.41305 0.0
C562 C 0.41443 0.35474 0.36086 0.0
C563 C 0.37259 0.35611 0.35962 0.0
C564 C 0.34563 0.34809 0.38578 0.0
C565 C 0.35891 0.33544 0.41222 0.0
C566 C 0.44464 0.36437 0.33353 0.0
C567 C 0.30093 0.34965 0.38543 0.0
H568 H 0.33929 0.44439 0.29342 0.0
H569 H 0.27059 0.29128 0.27924 0.0
H570 H 0.38181 0.45437 0.3601 0.0
H571 H 0.42969 0.4529 0.34291 0.0
H572 H 0.40537 0.48548 0.32529 0.0
H573 H 0.29037 0.24213 0.30658 0.0
H574 H 0.34597 0.27065 0.32586 0.0
H575 H 0.29428 0.25979 0.34517 0.0
H576 H 0.45722 0.33763 0.38832 0.0
H577 H 0.3371 0.32735 0.43192 0.0
H578 H 0.44874 0.39587 0.32089 0.0
H579 H 0.42749 0.33263 0.31845 0.0
H580 H 0.47999 0.3711 0.33944 0.0
H581 H 0.30772 0.38448 0.37614 0.0
H582 H 0.28547 0.34502 0.40808 0.0
H583 H 0.27463 0.3205 0.3708 0.0
C584 C 0.96058 0.31218 0.60829 0.0
C585 C 0.91829 0.31086 0.60359 0.0
C586 C 0.98347 0.32607 0.63587 0.0
C587 C 0.96375 0.33936 0.65932 0.0
C588 C 0.9223 0.34052 0.65434 0.0
C589 C 0.89982 0.32596 0.62645 0.0
C590 C 0.02786 0.32465 0.64022 0.0
C591 C 0.90069 0.35516 0.6787 0.0
C592 C 0.00373 0.31679 0.73294 0.0
C593 C 0.0451 0.3612 0.73734 0.0
C594 C 0.974 0.31019 0.70889 0.0
C595 C 0.98586 0.34922 0.68925 0.0
C596 C 0.02474 0.39548 0.6957 0.0
C597 C 0.05433 0.40082 0.71956 0.0
C598 C 0.93256 0.26036 0.70288 0.0
C599 C 0.0375 0.43835 0.67593 0.0
H600 H 0.97519 0.30087 0.59065 0.0
H601 H 0.86713 0.32509 0.62289 0.0
H602 H 0.05681 0.36039 0.64779 0.0
H603 H 0.02226 0.29801 0.65784 0.0
H604 H 0.03915 0.31467 0.61944 0.0
H605 H 0.87421 0.36309 0.66971 0.0
H606 H 0.88307 0.3254 0.69515 0.0
H607 H 0.92799 0.38739 0.69087 0.0
H608 H -0.00374 0.28629 0.74698 0.0
H609 H 0.08574 0.43558 0.72346 0.0
H610 H 0.94058 0.24435 0.68351 0.0
H611 H 0.90105 0.26215 0.69708 0.0
H612 H 0.92416 0.23597 0.72238 0.0
H613 H 0.05465 0.43577 0.65532 0.0
H614 H 0.06211 0.47296 0.68724 0.0
H615 H 0.00568 0.4389 0.6691 0.0
C616 C 0.68534 0.96014 0.93188 0.0
C617 C 0.64002 0.91945 0.93286 0.0
C618 C 0.70162 0.99438 0.95482 0.0
C619 C 0.6715 0.98794 0.97898 0.0
C620 C 0.62501 0.94797 0.97947 0.0
C621 C 0.60987 0.91386 0.95642 0.0
C622 C 0.75157 0.03645 0.95375 0.0
C623 C 0.59177 0.9406 0.00471 0.0
C624 C 0.72985 0.04509 0.05238 0.0
C625 C 0.72884 0.08784 0.0518 0.0
C626 C 0.71084 0.01197 0.02886 0.0
C627 C 0.68973 0.02167 0.00453 0.0
C628 C 0.68779 0.06435 0.00409 0.0
C629 C 0.70788 0.09728 0.02767 0.0
C630 C 0.71402 0.96701 0.0298 0.0
C631 C 0.66479 0.0753 0.97867 0.0
H632 H 0.70868 0.96451 0.91364 0.0
H633 H 0.57464 0.88257 0.95703 0.0
H634 H 0.75222 0.071 0.95575 0.0
H635 H 0.77161 0.03437 0.97295 0.0
H636 H 0.76979 0.03718 0.93276 0.0
H637 H 0.55566 0.90994 0.00043 0.0
H638 H 0.60474 0.93341 0.02577 0.0
H639 H 0.59028 0.97377 0.00823 0.0
H640 H 0.7461 0.03781 0.07105 0.0
H641 H 0.7068 0.1302 0.02727 0.0
H642 H 0.73434 0.96643 0.01029 0.0
H643 H 0.67843 0.93441 0.02831 0.0
H644 H 0.73114 0.96467 0.05054 0.0
H645 H 0.68399 0.07937 0.95756 0.0
H646 H 0.664 0.10882 0.98256 0.0
H647 H 0.62827 0.04487 0.97549 0.0
C648 C 0.64151 0.68099 0.39756 0.0
C649 C 0.60091 0.68295 0.40241 0.0
C650 C 0.64977 0.66643 0.36997 0.0
C651 C 0.61653 0.65342 0.34669 0.0
C652 C 0.57436 0.65306 0.35184 0.0
C653 C 0.56703 0.66794 0.37975 0.0
C654 C 0.69504 0.66684 0.36539 0.0
C655 C 0.53799 0.63892 0.32758 0.0
C656 C 0.67536 0.67416 0.27164 0.0
C657 C 0.66958 0.62876 0.26623 0.0
C658 C 0.65497 0.68193 0.29677 0.0
C659 C 0.62796 0.64318 0.31663 0.0
C660 C 0.61844 0.5963 0.30969 0.0
C661 C 0.63968 0.58968 0.28459 0.0
C662 C 0.66562 0.73242 0.30336 0.0
C663 C 0.58889 0.55389 0.32996 0.0
H664 H 0.66763 0.69222 0.41508 0.0
H665 H 0.53551 0.66931 0.38344 0.0
H666 H 0.6875 0.63106 0.35738 0.0
H667 H 0.71651 0.69376 0.34801 0.0
H668 H 0.71619 0.67589 0.38619 0.0
H669 H 0.50468 0.63446 0.33631 0.0
H670 H 0.55175 0.66719 0.31003 0.0
H671 H 0.53035 0.60473 0.31677 0.0
H672 H 0.69808 0.70431 0.25727 0.0
H673 H 0.63445 0.55427 0.28011 0.0
H674 H 0.69031 0.74741 0.3225 0.0
H675 H 0.6332 0.73201 0.30979 0.0
H676 H 0.68177 0.75692 0.28391 0.0
H677 H 0.60947 0.55663 0.35017 0.0
H678 H 0.57787 0.51892 0.31879 0.0
H679 H 0.5571 0.55391 0.33748 0.0
C680 C 0.08361 0.6727 0.6123 0.0
C681 C 0.07129 0.69477 0.59009 0.0
C682 C 0.05795 0.65669 0.63901 0.0
C683 C 0.01956 0.66343 0.64346 0.0
C684 C 0.00673 0.68519 0.62093 0.0
C685 C 0.03263 0.70038 0.59446 0.0
C686 C 0.07206 0.63305 0.66252 0.0
C687 C 0.96597 0.69306 0.62493 0.0
C688 C 0.91983 0.59164 0.69691 0.0
C689 C 0.93042 0.62532 0.71978 0.0
C690 C 0.95054 0.6022 0.67288 0.0
C691 C 0.99223 0.6479 0.67153 0.0
C692 C 0.00431 0.68107 0.69536 0.0
C693 C 0.97327 0.66917 0.71942 0.0
C694 C 0.93695 0.5656 0.64811 0.0
C695 C 0.0484 0.73032 0.69451 0.0
H696 H 0.11351 0.66831 0.60895 0.0
H697 H 0.02302 0.71751 0.57738 0.0
H698 H 0.08224 0.65471 0.68336 0.0
H699 H 0.04188 0.59678 0.66806 0.0
H700 H 0.1019 0.62918 0.65519 0.0
H701 H 0.96092 0.71091 0.60528 0.0
H702 H 0.93311 0.65799 0.62865 0.0
H703 H 0.97177 0.71573 0.64496 0.0
H704 H 0.88699 0.55737 0.69737 0.0
H705 H 0.98155 0.69511 0.73723 0.0
H706 H 0.96718 0.56187 0.6417 0.0
H707 H 0.92651 0.57804 0.62805 0.0
H708 H 0.90716 0.52954 0.65459 0.0
H709 H 0.07917 0.7273 0.68854 0.0
H710 H 0.0554 0.7495 0.71623 0.0
H711 H 0.04484 0.75259 0.67702 0.0
C712 C 0.29436 0.91265 0.04548 0.0
C713 C 0.26949 0.91991 0.06808 0.0
C714 C 0.31254 0.94425 0.02113 0.0
C715 C 0.30464 0.98319 0.01925 0.0
C716 C 0.28036 0.99121 0.04234 0.0
C717 C 0.26342 0.95961 0.06671 0.0
C718 C 0.33921 0.93537 0.99715 0.0
C719 C 0.27086 0.03211 0.0408 0.0
C720 C 0.37587 0.08754 0.96667 0.0
C721 C 0.34535 0.07466 0.94223 0.0
C722 C 0.36359 0.05744 0.99171 0.0
C723 C 0.31948 0.01408 0.99236 0.0
C724 C 0.28866 0.00078 0.96766 0.0
C725 C 0.30218 0.03116 0.94273 0.0
C726 C 0.39756 0.07216 0.01753 0.0
C727 C 0.24109 0.95494 0.9678 0.0
H728 H 0.29947 0.88217 0.04673 0.0
H729 H 0.24412 0.96514 0.08422 0.0
H730 H 0.31918 0.92564 0.9759 0.0
H731 H 0.37352 0.96871 0.99295 0.0
H732 H 0.34556 0.90587 0.00322 0.0
H733 H 0.25279 0.03424 0.06112 0.0
H734 H 0.30421 0.06702 0.03797 0.0
H735 H 0.24862 0.02726 0.02106 0.0
H736 H 0.40943 0.12106 0.96623 0.0
H737 H 0.27856 0.02122 0.92382 0.0
H738 H 0.40458 0.04289 0.02275 0.0
H739 H 0.38193 0.07803 0.0378 0.0
H740 H 0.43148 0.10575 0.01278 0.0
H741 H 0.24511 0.92327 0.97127 0.0
H742 H 0.22152 0.94972 0.94664 0.0
H743 H 0.21975 0.95574 0.98661 0.0
C744 C 0.88154 0.18083 0.17706 0.0
C745 C 0.87445 0.21168 0.15884 0.0
C746 C 0.92645 0.19565 0.18836 0.0
C747 C 0.96426 0.24269 0.18181 0.0
C748 C 0.95636 0.27462 0.16463 0.0
C749 C 0.91164 0.25837 0.15295 0.0
C750 C 0.9339 0.1604 0.20608 0.0
C751 C -0.00461 0.32555 0.15789 0.0
C752 C 0.07613 0.30521 0.22706 0.0
C753 C 0.10842 0.30491 0.207 0.0
C754 C 0.02842 0.2828 0.21983 0.0
C755 C 0.01258 0.25884 0.19209 0.0
C756 C 0.0445 0.25572 0.17258 0.0
C757 C 0.09228 0.27929 0.18014 0.0
C758 C -0.00433 0.28763 0.241 0.0
C759 C 0.02862 0.22958 0.14305 0.0
H760 H 0.85266 0.14444 0.18113 0.0
H761 H 0.90578 0.28205 0.13881 0.0
H762 H 0.95703 0.1514 0.19332 0.0
H763 H 0.95183 0.1768 0.2275 0.0
H764 H 0.90037 0.12643 0.21092 0.0
H765 H 0.98252 0.34673 0.14604 0.0
H766 H 0.01281 0.34463 0.17891 0.0
H767 H 0.0224 0.32471 0.14378 0.0
H768 H 0.0884 0.32494 0.2479 0.0
H769 H 0.11708 0.27859 0.16472 0.0
H770 H 0.96329 0.25215 0.24466 0.0
H771 H 0.98498 0.31196 0.23102 0.0
H772 H 0.01231 0.30264 0.26301 0.0
H773 H -0.00342 0.19356 0.14612 0.0
H774 H 0.0562 0.22484 0.13242 0.0
H775 H 0.01957 0.25036 0.12754 0.0
C776 C 0.81977 0.10679 0.49553 0.0
C777 C 0.80561 0.12209 0.52057 0.0
C778 C 0.79718 0.05765 0.48802 0.0
C779 C 0.75905 0.02351 0.50565 0.0
C780 C 0.74486 0.03887 0.53103 0.0
C781 C 0.76863 0.08795 0.53834 0.0
C782 C 0.81371 0.04232 0.4611 0.0
C783 C 0.70373 0.00364 0.55002 0.0
C784 C 0.66718 0.90601 0.47023 0.0
C785 C 0.6772 0.87307 0.48346 0.0
C786 C 0.69389 0.95525 0.47708 0.0
C787 C 0.73235 0.97192 0.49692 0.0
C788 C 0.74344 0.93889 0.50967 0.0
C789 C 0.71512 0.88955 0.50316 0.0
C790 C 0.68011 0.98917 0.46378 0.0
C791 C 0.78487 0.95563 0.53037 0.0
H792 H 0.84851 0.13318 0.48186 0.0
H793 H 0.75742 0.0997 0.55765 0.0
H794 H 0.82104 0.01364 0.46745 0.0
H795 H 0.7857 0.02689 0.44388 0.0
H796 H 0.84586 0.07287 0.45101 0.0
H797 H 0.69755 0.02148 0.56922 0.0
H798 H 0.67142 0.9855 0.53619 0.0
H799 H 0.70971 0.97514 0.55878 0.0
H800 H 0.63751 0.89305 0.45518 0.0
H801 H 0.72295 0.86393 0.51316 0.0
H802 H 0.71004 0.0185 0.45128 0.0
H803 H 0.67101 0.00635 0.48192 0.0
H804 H 0.64961 0.97043 0.44842 0.0
H805 H 0.81713 0.98503 0.51968 0.0
H806 H 0.7909 0.92593 0.53648 0.0
H807 H 0.77905 0.97053 0.55115 0.0
C808 C 0.76475 0.64541 0.83182 0.0
C809 C 0.80526 0.66896 0.81429 0.0
C810 C 0.74006 0.66839 0.83925 0.0
C811 C 0.75744 0.71646 0.82963 0.0
C812 C 0.79994 0.7412 0.81333 0.0
C813 C 0.82285 0.71664 0.80523 0.0
C814 C 0.6942 0.64041 0.85596 0.0
C815 C 0.8204 0.79301 0.80368 0.0
C816 C 0.67037 0.75861 0.82181 0.0
C817 C 0.6751 0.78052 0.84957 0.0
C818 C 0.69728 0.73774 0.81488 0.0
C819 C 0.73037 0.74029 0.83595 0.0
C820 C 0.73655 0.76428 0.86348 0.0
C821 C 0.70833 0.78353 0.87012 0.0
C822 C 0.68918 0.71156 0.78553 0.0
C823 C 0.77238 0.7689 0.88611 0.0
H824 H 0.75083 0.60802 0.83809 0.0
H825 H 0.85402 0.73433 0.79134 0.0
H826 H 0.69487 0.66024 0.87637 0.0
H827 H 0.66511 0.63647 0.84169 0.0
H828 H 0.68639 0.60386 0.86257 0.0
H829 H 0.85593 0.80833 0.79376 0.0
H830 H 0.79712 0.79536 0.78688 0.0
H831 H 0.8227 0.81561 0.82304 0.0
H832 H 0.64438 0.75607 0.80608 0.0
H833 H 0.71221 0.80095 0.89152 0.0
H834 H 0.67753 0.67315 0.78977 0.0
H835 H 0.7224 0.72742 0.77268 0.0
H836 H 0.66232 0.71307 0.77157 0.0
H837 H 0.76273 0.73267 0.89455 0.0
H838 H 0.77513 0.79176 0.90546 0.0
H839 H 0.80742 0.78473 0.87546 0.0
C840 C 0.88774 0.72251 0.17555 0.0
C841 C 0.86734 0.69046 0.1995 0.0
C842 C 0.93645 0.74703 0.17094 0.0
C843 C 0.96488 0.73794 0.19021 0.0
C844 C 0.94454 0.70687 0.21503 0.0
C845 C 0.89603 0.68397 0.21957 0.0
C846 C 0.95718 0.78089 0.14466 0.0
C847 C 0.97338 0.69515 0.23558 0.0
C848 C 0.0706 0.74556 0.15321 0.0
C849 C 0.10735 0.78913 0.16445 0.0
C850 C 0.02428 0.72799 0.16214 0.0
C851 C 0.0144 0.75553 0.18214 0.0
C852 C 0.05153 0.79937 0.19395 0.0
C853 C 0.09796 0.81543 0.18523 0.0
C854 C 0.98588 0.68032 0.14974 0.0
C855 C 0.04203 0.83004 0.21483 0.0
H856 H 0.86559 0.72789 0.1602 0.0
H857 H 0.88028 0.65899 0.23807 0.0
H858 H 0.98895 0.81509 0.15161 0.0
H859 H 0.96807 0.76416 0.12726 0.0
H860 H 0.93174 0.78939 0.13454 0.0
H861 H 0.95319 0.67424 0.25549 0.0
H862 H 0.98525 0.67355 0.22322 0.0
H863 H 0.00523 0.72864 0.24322 0.0
H864 H 0.07816 0.72523 0.13722 0.0
H865 H 0.12657 0.84945 0.19357 0.0
H866 H 0.96171 0.68616 0.13573 0.0
H867 H 0.96486 0.65579 0.16824 0.0
H868 H -3e-05 0.66206 0.13592 0.0
H869 H 0.02065 0.84242 0.20313 0.0
H870 H 0.07488 0.86217 0.22292 0.0
H871 H 0.02141 0.80851 0.2344 0.0
C872 C 0.24054 0.90894 0.51569 0.0
C873 C 0.19423 0.8787 0.50621 0.0
C874 C 0.26395 0.95858 0.51027 0.0
C875 C 0.23974 0.97843 0.49593 0.0
C876 C 0.19281 0.94791 0.48629 0.0
C877 C 0.17073 0.89797 0.49112 0.0
C878 C 0.31454 0.98974 0.51992 0.0
C879 C 0.16575 0.96813 0.47151 0.0
C880 C 0.29393 0.11261 0.50921 0.0
C881 C 0.31991 0.13164 0.48294 0.0
C882 C 0.26575 0.06251 0.51322 0.0
C883 C 0.26433 0.03112 0.49059 0.0
C884 C 0.2897 0.05025 0.46377 0.0
C885 C 0.31696 0.10031 0.4602 0.0
C886 C 0.23855 0.04316 0.54195 0.0
C887 C 0.28969 0.01792 0.43936 0.0
H888 H 0.25857 0.89357 0.52719 0.0
H889 H 0.13467 0.87425 0.48415 0.0
H890 H 0.33669 0.01005 0.50048 0.0
H891 H 0.31781 0.01663 0.53664 0.0
H892 H 0.32865 0.96824 0.52983 0.0
H893 H 0.12936 0.93954 0.46565 0.0
H894 H 0.16416 0.99443 0.48667 0.0
H895 H 0.18396 0.98789 0.45085 0.0
H896 H 0.29596 0.1368 0.52672 0.0
H897 H 0.33697 0.11486 0.4398 0.0
H898 H 0.25327 0.02485 0.55505 0.0
H899 H 0.20134 0.0159 0.53706 0.0
H900 H 0.23976 0.07214 0.55597 0.0
H901 H 0.30608 -0.00227 0.4478 0.0
H902 H 0.30919 0.03854 0.41919 0.0
H903 H 0.25321 0.99092 0.43274 0.0
C904 C 0.18195 0.27961 0.83521 0.0
C905 C 0.17152 0.28768 0.80626 0.0
C906 C 0.20544 0.25442 0.83982 0.0
C907 C 0.21857 0.23696 0.81486 0.0
C908 C 0.20528 0.24221 0.78577 0.0
C909 C 0.18194 0.26759 0.78181 0.0
C910 C 0.2187 0.24908 0.87125 0.0
C911 C 0.21824 0.22368 0.75866 0.0
C912 C 0.32959 0.23396 0.82702 0.0
C913 C 0.31145 0.18543 0.83405 0.0
C914 C 0.29966 0.25074 0.81926 0.0
C915 C 0.25049 0.21808 0.81902 0.0
C916 C 0.23224 0.16843 0.82468 0.0
C917 C 0.26315 0.15265 0.83228 0.0
C918 C 0.32051 0.30389 0.8131 0.0
C919 C 0.18009 0.13261 0.82461 0.0
H920 H 0.1738 0.29491 0.85416 0.0
H921 H 0.17348 0.27326 0.75935 0.0
H922 H 0.20852 0.21111 0.87559 0.0
H923 H 0.25734 0.27167 0.87397 0.0
H924 H 0.20186 0.26023 0.88832 0.0
H925 H 0.2002 0.22515 0.73814 0.0
H926 H 0.25669 0.24586 0.75496 0.0
H927 H 0.20933 0.18591 0.76223 0.0
H928 H 0.36703 0.2592 0.82909 0.0
H929 H 0.2494 0.11529 0.8385 0.0
H930 H 0.31002 0.32018 0.83104 0.0
H931 H 0.30688 0.30915 0.79169 0.0
H932 H 0.35946 0.32366 0.81199 0.0
H933 H 0.1638 0.1392 0.84427 0.0
H934 H 0.17204 0.09474 0.82556 0.0
H935 H 0.16352 0.13716 0.80434 0.0
loop_
_geom_bond_atom_site_label_1
_geom_bond_atom_site_label_2
_geom_bond_distance
_geom_bond_site_symmetry_2
_ccdc_geom_bond_type
Co0 O1 2.216 . S
Co0 O2 2.091 . S
Co0 O4 2.004 . S
Co0 O10 2.021 . S
Co0 O12 2.137 . S
Co0 O13 2.244 . S
O1 Co0 2.216 . S
O1 C8 1.247 . S
O2 Co0 2.091 . S
O2 C8 1.261 . S
C3 O12 1.247 . S
C3 O13 1.272 . S
O4 Co0 2.004 . S
O4 C9 1.259 . S
Co5 O6 2.061 . S
Co5 O11 2.052 . S
Co5 O13 2.135 . S
O6 Co5 2.061 . S
O6 C9 1.235 . S
C7 O10 1.238 . S
C7 O11 1.241 . S
C8 O1 1.247 . S
C8 O2 1.261 . S
C9 O4 1.259 . S
C9 O6 1.235 . S
O10 Co0 2.021 . S
O10 C7 1.238 . S
O11 Co5 2.052 . S
O11 C7 1.241 . S
O12 Co0 2.137 . S
O12 C3 1.247 . S
O13 Co0 2.244 . S
O13 C3 1.272 . S
O13 Co5 2.135 . S
Co14 O15 2.216 . S
Co14 O16 2.091 . S
Co14 O18 2.004 . S
Co14 O24 2.021 . S
Co14 O26 2.137 . S
Co14 O27 2.244 . S
O15 Co14 2.216 . S
O15 C22 1.247 . S
O16 Co14 2.091 . S
O16 C22 1.261 . S
C17 O26 1.247 . S
C17 O27 1.272 . S
O18 Co14 2.004 . S
O18 C23 1.259 . S
Co19 O20 2.061 . S
Co19 O25 2.052 . S
Co19 O27 2.135 . S
O20 Co19 2.061 . S
O20 C23 1.235 . S
C21 O24 1.238 . S
C21 O25 1.241 . S
C22 O15 1.247 . S
C22 O16 1.261 . S
C23 O18 1.259 . S
C23 O20 1.235 . S
O24 Co14 2.021 . S
O24 C21 1.238 . S
O25 Co19 2.052 . S
O25 C21 1.241 . S
O26 Co14 2.137 . S
O26 C17 1.247 . S
O27 Co14 2.244 . S
O27 C17 1.272 . S
O27 Co19 2.135 . S
Co28 O29 2.216 . S
Co28 O30 2.091 . S
Co28 O32 2.004 . S
Co28 O38 2.021 . S
Co28 O40 2.137 . S
Co28 O41 2.244 . S
O29 Co28 2.216 . S
O29 C36 1.247 . S
O30 Co28 2.091 . S
O30 C36 1.261 . S
C31 O40 1.247 . S
C31 O41 1.272 . S
O32 Co28 2.004 . S
O32 C37 1.259 . S
Co33 O34 2.061 . S
Co33 O39 2.052 . S
Co33 O41 2.135 . S
O34 Co33 2.061 . S
O34 C37 1.235 . S
C35 O38 1.238 . S
C35 O39 1.241 . S
C36 O29 1.247 . S
C36 O30 1.261 . S
C37 O32 1.259 . S
C37 O34 1.235 . S
O38 Co28 2.021 . S
O38 C35 1.238 . S
O39 Co33 2.052 . S
O39 C35 1.241 . S
O40 Co28 2.137 . S
O40 C31 1.247 . S
O41 Co28 2.244 . S
O41 C31 1.272 . S
O41 Co33 2.135 . S
Co42 O43 2.216 . S
Co42 O44 2.091 . S
Co42 O46 2.004 . S
Co42 O52 2.021 . S
Co42 O54 2.137 . S
Co42 O55 2.244 . S
O43 Co42 2.216 . S
O43 C50 1.247 . S
O44 Co42 2.091 . S
O44 C50 1.261 . S
C45 O54 1.247 . S
C45 O55 1.272 . S
O46 Co42 2.004 . S
O46 C51 1.259 . S
Co47 O48 2.061 . S
Co47 O53 2.052 . S
Co47 O55 2.135 . S
O48 Co47 2.061 . S
O48 C51 1.235 . S
C49 O52 1.238 . S
C49 O53 1.241 . S
C50 O43 1.247 . S
C50 O44 1.261 . S
C51 O46 1.259 . S
C51 O48 1.235 . S
O52 Co42 2.021 . S
O52 C49 1.238 . S
O53 Co47 2.052 . S
O53 C49 1.241 . S
O54 Co42 2.137 . S
O54 C45 1.247 . S
O55 Co42 2.244 . S
O55 C45 1.272 . S
O55 Co47 2.135 . S
Co56 O57 2.216 . S
Co56 O58 2.091 . S
Co56 O60 2.004 . S
Co56 O66 2.021 . S
Co56 O68 2.137 . S
Co56 O69 2.244 . S
O57 Co56 2.216 . S
O57 C64 1.247 . S
O58 Co56 2.091 . S
O58 C64 1.261 . S
C59 O68 1.247 . S
C59 O69 1.272 . S
O60 Co56 2.004 . S
O60 C65 1.259 . S
Co61 O62 2.061 . S
Co61 O67 2.052 . S
Co61 O69 2.135 . S
O62 Co61 2.061 . S
O62 C65 1.235 . S
C63 O66 1.238 . S
C63 O67 1.241 . S
C64 O57 1.247 . S
C64 O58 1.261 . S
C65 O60 1.259 . S
C65 O62 1.235 . S
O66 Co56 2.021 . S
O66 C63 1.238 . S
O67 Co61 2.052 . S
O67 C63 1.241 . S
O68 Co56 2.137 . S
O68 C59 1.247 . S
O69 Co56 2.244 . S
O69 C59 1.272 . S
O69 Co61 2.135 . S
Co70 O71 2.216 . S
Co70 O72 2.091 . S
Co70 O74 2.004 . S
Co70 O80 2.021 . S
Co70 O82 2.137 . S
Co70 O83 2.244 . S
O71 Co70 2.216 . S
O71 C78 1.247 . S
O72 Co70 2.091 . S
O72 C78 1.261 . S
C73 O82 1.247 . S
C73 O83 1.272 . S
O74 Co70 2.004 . S
O74 C79 1.259 . S
Co75 O76 2.061 . S
Co75 O81 2.052 . S
Co75 O83 2.135 . S
O76 Co75 2.061 . S
O76 C79 1.235 . S
C77 O80 1.238 . S
C77 O81 1.241 . S
C78 O71 1.247 . S
C78 O72 1.261 . S
C79 O74 1.259 . S
C79 O76 1.235 . S
O80 Co70 2.021 . S
O80 C77 1.238 . S
O81 Co75 2.052 . S
O81 C77 1.241 . S
O82 Co70 2.137 . S
O82 C73 1.247 . S
O83 Co70 2.244 . S
O83 C73 1.272 . S
O83 Co75 2.135 . S
Co84 O85 2.216 . S
Co84 O86 2.091 . S
Co84 O88 2.004 . S
Co84 O94 2.021 . S
Co84 O96 2.137 . S
Co84 O97 2.244 . S
O85 Co84 2.216 . S
O85 C92 1.247 . S
O86 Co84 2.091 . S
O86 C92 1.261 . S
C87 O96 1.247 . S
C87 O97 1.272 . S
O88 Co84 2.004 . S
O88 C93 1.259 . S
Co89 O90 2.061 . S
Co89 O95 2.052 . S
Co89 O97 2.135 . S
O90 Co89 2.061 . S
O90 C93 1.235 . S
C91 O94 1.238 . S
C91 O95 1.241 . S
C92 O85 1.247 . S
C92 O86 1.261 . S
C93 O88 1.259 . S
C93 O90 1.235 . S
O94 Co84 2.021 . S
O94 C91 1.238 . S
O95 Co89 2.052 . S
O95 C91 1.241 . S
O96 Co84 2.137 . S
O96 C87 1.247 . S
O97 Co84 2.244 . S
O97 C87 1.272 . S
O97 Co89 2.135 . S
Co98 O99 2.216 . S
Co98 O100 2.091 . S
Co98 O102 2.004 . S
Co98 O108 2.021 . S
Co98 O110 2.137 . S
Co98 O111 2.244 . S
O99 Co98 2.216 . S
O99 C106 1.247 . S
O100 Co98 2.091 . S
O100 C106 1.261 . S
C101 O110 1.247 . S
C101 O111 1.272 . S
O102 Co98 2.004 . S
O102 C107 1.259 . S
Co103 O104 2.061 . S
Co103 O109 2.052 . S
Co103 O111 2.135 . S
O104 Co103 2.061 . S
O104 C107 1.235 . S
C105 O108 1.238 . S
C105 O109 1.241 . S
C106 O99 1.247 . S
C106 O100 1.261 . S
C107 O102 1.259 . S
C107 O104 1.235 . S
O108 Co98 2.021 . S
O108 C105 1.238 . S
O109 Co103 2.052 . S
O109 C105 1.241 . S
O110 Co98 2.137 . S
O110 C101 1.247 . S
O111 Co98 2.244 . S
O111 C101 1.272 . S
O111 Co103 2.135 . S
Co112 O113 2.216 . S
Co112 O114 2.091 . S
Co112 O116 2.004 . S
Co112 O122 2.021 . S
Co112 O124 2.137 . S
Co112 O125 2.244 . S
O113 Co112 2.216 . S
O113 C120 1.247 . S
O114 Co112 2.091 . S
O114 C120 1.261 . S
C115 O124 1.247 . S
C115 O125 1.272 . S
O116 Co112 2.004 . S
O116 C121 1.259 . S
Co117 O118 2.061 . S
Co117 O123 2.052 . S
Co117 O125 2.135 . S
O118 Co117 2.061 . S
O118 C121 1.235 . S
C119 O122 1.238 . S
C119 O123 1.241 . S
C120 O113 1.247 . S
C120 O114 1.261 . S
C121 O116 1.259 . S
C121 O118 1.235 . S
O122 Co112 2.021 . S
O122 C119 1.238 . S
O123 Co117 2.052 . S
O123 C119 1.241 . S
O124 Co112 2.137 . S
O124 C115 1.247 . S
O125 Co112 2.244 . S
O125 C115 1.272 . S
O125 Co117 2.135 . S
Co126 O127 2.216 . S
Co126 O128 2.091 . S
Co126 O130 2.004 . S
Co126 O136 2.021 . S
Co126 O138 2.137 . S
Co126 O139 2.244 . S
O127 Co126 2.216 . S
O127 C134 1.247 . S
O128 Co126 2.091 . S
O128 C134 1.261 . S
C129 O138 1.247 . S
C129 O139 1.272 . S
O130 Co126 2.004 . S
O130 C135 1.259 . S
Co131 O132 2.061 . S
Co131 O137 2.052 . S
Co131 O139 2.135 . S
O132 Co131 2.061 . S
O132 C135 1.235 . S
C133 O136 1.238 . S
C133 O137 1.241 . S
C134 O127 1.247 . S
C134 O128 1.261 . S
C135 O130 1.259 . S
C135 O132 1.235 . S
O136 Co126 2.021 . S
O136 C133 1.238 . S
O137 Co131 2.052 . S
O137 C133 1.241 . S
O138 Co126 2.137 . S
O138 C129 1.247 . S
O139 Co126 2.244 . S
O139 C129 1.272 . S
O139 Co131 2.135 . S
Co140 O141 2.216 . S
Co140 O142 2.091 . S
Co140 O144 2.004 . S
Co140 O150 2.021 . S
Co140 O152 2.137 . S
Co140 O153 2.244 . S
O141 Co140 2.216 . S
O141 C148 1.247 . S
O142 Co140 2.091 . S
O142 C148 1.261 . S
C143 O152 1.247 . S
C143 O153 1.272 . S
O144 Co140 2.004 . S
O144 C149 1.259 . S
Co145 O146 2.061 . S
Co145 O151 2.052 . S
Co145 O153 2.135 . S
O146 Co145 2.061 . S
O146 C149 1.235 . S
C147 O150 1.238 . S
C147 O151 1.241 . S
C148 O141 1.247 . S
C148 O142 1.261 . S
C149 O144 1.259 . S
C149 O146 1.235 . S
O150 Co140 2.021 . S
O150 C147 1.238 . S
O151 Co145 2.052 . S
O151 C147 1.241 . S
O152 Co140 2.137 . S
O152 C143 1.247 . S
O153 Co140 2.244 . S
O153 C143 1.272 . S
O153 Co145 2.135 . S
Co154 O155 2.216 . S
Co154 O156 2.091 . S
Co154 O158 2.004 . S
Co154 O164 2.021 . S
Co154 O166 2.137 . S
Co154 O167 2.244 . S
O155 Co154 2.216 . S
O155 C162 1.247 . S
O156 Co154 2.091 . S
O156 C162 1.261 . S
C157 O166 1.247 . S
C157 O167 1.272 . S
O158 Co154 2.004 . S
O158 C163 1.259 . S
Co159 O160 2.061 . S
Co159 O165 2.052 . S
Co159 O167 2.135 . S
O160 Co159 2.061 . S
O160 C163 1.235 . S
C161 O164 1.238 . S
C161 O165 1.241 . S
C162 O155 1.247 . S
C162 O156 1.261 . S
C163 O158 1.259 . S
C163 O160 1.235 . S
O164 Co154 2.021 . S
O164 C161 1.238 . S
O165 Co159 2.052 . S
O165 C161 1.241 . S
O166 Co154 2.137 . S
O166 C157 1.247 . S
O167 Co154 2.244 . S
O167 C157 1.272 . S
O167 Co159 2.135 . S
C168 C169 1.391 . S
C168 C170 1.394 . S
C168 H184 0.931 . S
C169 C168 1.391 . S
C169 C173 1.376 . S
C170 C168 1.394 . S
C170 C171 1.369 . S
C170 C174 1.531 . S
C171 C170 1.369 . S
C171 C172 1.410 . S
C171 C179 1.503 . S
C172 C171 1.410 . S
C172 C173 1.392 . S
C172 C175 1.511 . S
C173 C169 1.376 . S
C173 C172 1.392 . S
C173 H185 0.929 . S
C174 C170 1.531 . S
C174 H186 0.960 . S
C174 H187 0.962 . S
C174 H188 0.960 . S
C175 C172 1.511 . S
C175 H189 0.961 . S
C175 H190 0.961 . S
C175 H191 0.961 . S
C176 C177 1.370 . S
C176 C178 1.363 . S
C176 H192 0.931 . S
C177 C176 1.370 . S
C177 C181 1.408 . S
C178 C176 1.363 . S
C178 C179 1.370 . S
C178 C182 1.524 . S
C179 C171 1.503 . S
C179 C178 1.370 . S
C179 C180 1.403 . S
C180 C179 1.403 . S
C180 C181 1.404 . S
C180 C183 1.539 . S
C181 C177 1.408 . S
C181 C180 1.404 . S
C181 H193 0.930 . S
C182 C178 1.524 . S
C182 H194 0.956 . S
C182 H195 0.961 . S
C182 H196 0.961 . S
C183 C180 1.539 . S
C183 H197 0.958 . S
C183 H198 0.961 . S
C183 H199 0.960 . S
H184 C168 0.931 . S
H185 C173 0.929 . S
H186 C174 0.960 . S
H187 C174 0.962 . S
H188 C174 0.960 . S
H189 C175 0.961 . S
H190 C175 0.961 . S
H191 C175 0.961 . S
H192 C176 0.931 . S
H193 C181 0.930 . S
H194 C182 0.956 . S
H195 C182 0.961 . S
H196 C182 0.961 . S
H197 C183 0.958 . S
H198 C183 0.961 . S
H199 C183 0.960 . S
C200 C201 1.391 . S
C200 C202 1.394 . S
C200 H216 0.931 . S
C201 C200 1.391 . S
C201 C205 1.376 . S
C202 C200 1.394 . S
C202 C203 1.369 . S
C202 C206 1.531 . S
C203 C202 1.369 . S
C203 C204 1.410 . S
C203 C211 1.503 . S
C204 C203 1.410 . S
C204 C205 1.392 . S
C204 C207 1.511 . S
C205 C201 1.376 . S
C205 C204 1.392 . S
C205 H217 0.929 . S
C206 C202 1.531 . S
C206 H218 0.960 . S
C206 H219 0.962 . S
C206 H220 0.960 . S
C207 C204 1.511 . S
C207 H221 0.961 . S
C207 H222 0.961 . S
C207 H223 0.961 . S
C208 C209 1.370 . S
C208 C210 1.363 . S
C208 H224 0.931 . S
C209 C208 1.370 . S
C209 C213 1.408 . S
C210 C208 1.363 . S
C210 C211 1.370 . S
C210 C214 1.524 . S
C211 C203 1.503 . S
C211 C210 1.370 . S
C211 C212 1.403 . S
C212 C211 1.403 . S
C212 C213 1.404 . S
C212 C215 1.539 . S
C213 C209 1.408 . S
C213 C212 1.404 . S
C213 H225 0.930 . S
C214 C210 1.524 . S
C214 H226 0.956 . S
C214 H227 0.961 . S
C214 H228 0.961 . S
C215 C212 1.539 . S
C215 H229 0.958 . S
C215 H230 0.961 . S
C215 H231 0.960 . S
H216 C200 0.931 . S
H217 C205 0.929 . S
H218 C206 0.960 . S
H219 C206 0.962 . S
H220 C206 0.960 . S
H221 C207 0.961 . S
H222 C207 0.961 . S
H223 C207 0.961 . S
H224 C208 0.931 . S
H225 C213 0.930 . S
H226 C214 0.956 . S
H227 C214 0.961 . S
H228 C214 0.961 . S
H229 C215 0.958 . S
H230 C215 0.961 . S
H231 C215 0.960 . S
C232 C233 1.391 . S
C232 C234 1.394 . S
C232 H248 0.931 . S
C233 C232 1.391 . S
C233 C237 1.376 . S
C234 C232 1.394 . S
C234 C235 1.369 . S
C234 C238 1.531 . S
C235 C234 1.369 . S
C235 C236 1.410 . S
C235 C243 1.503 . S
C236 C235 1.410 . S
C236 C237 1.392 . S
C236 C239 1.511 . S
C237 C233 1.376 . S
C237 C236 1.392 . S
C237 H249 0.929 . S
C238 C234 1.531 . S
C238 H250 0.960 . S
C238 H251 0.962 . S
C238 H252 0.960 . S
C239 C236 1.511 . S
C239 H253 0.961 . S
C239 H254 0.961 . S
C239 H255 0.961 . S
C240 C241 1.370 . S
C240 C242 1.363 . S
C240 H256 0.931 . S
C241 C240 1.370 . S
C241 C245 1.408 . S
C242 C240 1.363 . S
C242 C243 1.370 . S
C242 C246 1.524 . S
C243 C235 1.503 . S
C243 C242 1.370 . S
C243 C244 1.403 . S
C244 C243 1.403 . S
C244 C245 1.404 . S
C244 C247 1.539 . S
C245 C241 1.408 . S
C245 C244 1.404 . S
C245 H257 0.930 . S
C246 C242 1.524 . S
C246 H258 0.956 . S
C246 H259 0.961 . S
C246 H260 0.961 . S
C247 C244 1.539 . S
C247 H261 0.958 . S
C247 H262 0.961 . S
C247 H263 0.960 . S
H248 C232 0.931 . S
H249 C237 0.929 . S
H250 C238 0.960 . S
H251 C238 0.962 . S
H252 C238 0.960 . S
H253 C239 0.961 . S
H254 C239 0.961 . S
H255 C239 0.961 . S
H256 C240 0.931 . S
H257 C245 0.930 . S
H258 C246 0.956 . S
H259 C246 0.961 . S
H260 C246 0.961 . S
H261 C247 0.958 . S
H262 C247 0.961 . S
H263 C247 0.960 . S
C264 C265 1.391 . S
C264 C266 1.394 . S
C264 H280 0.931 . S
C265 C264 1.391 . S
C265 C269 1.376 . S
C266 C264 1.394 . S
C266 C267 1.369 . S
C266 C270 1.531 . S
C267 C266 1.369 . S
C267 C268 1.410 . S
C267 C275 1.503 . S
C268 C267 1.410 . S
C268 C269 1.392 . S
C268 C271 1.511 . S
C269 C265 1.376 . S
C269 C268 1.392 . S
C269 H281 0.929 . S
C270 C266 1.531 . S
C270 H282 0.960 . S
C270 H283 0.962 . S
C270 H284 0.960 . S
C271 C268 1.511 . S
C271 H285 0.961 . S
C271 H286 0.961 . S
C271 H287 0.961 . S
C272 C273 1.370 . S
C272 C274 1.363 . S
C272 H288 0.931 . S
C273 C272 1.370 . S
C273 C277 1.408 . S
C274 C272 1.363 . S
C274 C275 1.370 . S
C274 C278 1.524 . S
C275 C267 1.503 . S
C275 C274 1.370 . S
C275 C276 1.403 . S
C276 C275 1.403 . S
C276 C277 1.404 . S
C276 C279 1.539 . S
C277 C273 1.408 . S
C277 C276 1.404 . S
C277 H289 0.930 . S
C278 C274 1.524 . S
C278 H290 0.956 . S
C278 H291 0.961 . S
C278 H292 0.961 . S
C279 C276 1.539 . S
C279 H293 0.958 . S
C279 H294 0.961 . S
C279 H295 0.960 . S
H280 C264 0.931 . S
H281 C269 0.929 . S
H282 C270 0.960 . S
H283 C270 0.962 . S
H284 C270 0.960 . S
H285 C271 0.961 . S
H286 C271 0.961 . S
H287 C271 0.961 . S
H288 C272 0.931 . S
H289 C277 0.930 . S
H290 C278 0.956 . S
H291 C278 0.961 . S
H292 C278 0.961 . S
H293 C279 0.958 . S
H294 C279 0.961 . S
H295 C279 0.960 . S
C296 C297 1.391 . S
C296 C298 1.394 . S
C296 H312 0.931 . S
C297 C296 1.391 . S
C297 C301 1.376 . S
C298 C296 1.394 . S
C298 C299 1.369 . S
C298 C302 1.531 . S
C299 C298 1.369 . S
C299 C300 1.410 . S
C299 C307 1.503 . S
C300 C299 1.410 . S
C300 C301 1.392 . S
C300 C303 1.511 . S
C301 C297 1.376 . S
C301 C300 1.392 . S
C301 H313 0.929 . S
C302 C298 1.531 . S
C302 H314 0.960 . S
C302 H315 0.962 . S
C302 H316 0.960 . S
C303 C300 1.511 . S
C303 H317 0.961 . S
C303 H318 0.961 . S
C303 H319 0.961 . S
C304 C305 1.370 . S
C304 C306 1.363 . S
C304 H320 0.931 . S
C305 C304 1.370 . S
C305 C309 1.408 . S
C306 C304 1.363 . S
C306 C307 1.370 . S
C306 C310 1.524 . S
C307 C299 1.503 . S
C307 C306 1.370 . S
C307 C308 1.403 . S
C308 C307 1.403 . S
C308 C309 1.404 . S
C308 C311 1.539 . S
C309 C305 1.408 . S
C309 C308 1.404 . S
C309 H321 0.930 . S
C310 C306 1.524 . S
C310 H322 0.956 . S
C310 H323 0.961 . S
C310 H324 0.961 . S
C311 C308 1.539 . S
C311 H325 0.958 . S
C311 H326 0.961 . S
C311 H327 0.960 . S
H312 C296 0.931 . S
H313 C301 0.929 . S
H314 C302 0.960 . S
H315 C302 0.962 . S
H316 C302 0.960 . S
H317 C303 0.961 . S
H318 C303 0.961 . S
H319 C303 0.961 . S
H320 C304 0.931 . S
H321 C309 0.930 . S
H322 C310 0.956 . S
H323 C310 0.961 . S
H324 C310 0.961 . S
H325 C311 0.958 . S
H326 C311 0.961 . S
H327 C311 0.960 . S
C328 C329 1.391 . S
C328 C330 1.394 . S
C328 H344 0.931 . S
C329 C328 1.391 . S
C329 C333 1.376 . S
C330 C328 1.394 . S
C330 C331 1.369 . S
C330 C334 1.531 . S
C331 C330 1.369 . S
C331 C332 1.410 . S
C331 C339 1.503 . S
C332 C331 1.410 . S
C332 C333 1.392 . S
C332 C335 1.511 . S
C333 C329 1.376 . S
C333 C332 1.392 . S
C333 H345 0.929 . S
C334 C330 1.531 . S
C334 H346 0.960 . S
C334 H347 0.962 . S
C334 H348 0.960 . S
C335 C332 1.511 . S
C335 H349 0.961 . S
C335 H350 0.961 . S
C335 H351 0.961 . S
C336 C337 1.370 . S
C336 C338 1.363 . S
C336 H352 0.931 . S
C337 C336 1.370 . S
C337 C341 1.408 . S
C338 C336 1.363 . S
C338 C339 1.370 . S
C338 C342 1.524 . S
C339 C331 1.503 . S
C339 C338 1.370 . S
C339 C340 1.403 . S
C340 C339 1.403 . S
C340 C341 1.404 . S
C340 C343 1.539 . S
C341 C337 1.408 . S
C341 C340 1.404 . S
C341 H353 0.930 . S
C342 C338 1.524 . S
C342 H354 0.956 . S
C342 H355 0.961 . S
C342 H356 0.961 . S
C343 C340 1.539 . S
C343 H357 0.958 . S
C343 H358 0.961 . S
C343 H359 0.960 . S
H344 C328 0.931 . S
H345 C333 0.929 . S
H346 C334 0.960 . S
H347 C334 0.962 . S
H348 C334 0.960 . S
H349 C335 0.961 . S
H350 C335 0.961 . S
H351 C335 0.961 . S
H352 C336 0.931 . S
H353 C341 0.930 . S
H354 C342 0.956 . S
H355 C342 0.961 . S
H356 C342 0.961 . S
H357 C343 0.958 . S
H358 C343 0.961 . S
H359 C343 0.960 . S
C360 C361 1.391 . S
C360 C362 1.394 . S
C360 H376 0.931 . S
C361 C360 1.391 . S
C361 C365 1.376 . S
C362 C360 1.394 . S
C362 C363 1.369 . S
C362 C366 1.531 . S
C363 C362 1.369 . S
C363 C364 1.410 . S
C363 C371 1.503 . S
C364 C363 1.410 . S
C364 C365 1.392 . S
C364 C367 1.511 . S
C365 C361 1.376 . S
C365 C364 1.392 . S
C365 H377 0.929 . S
C366 C362 1.531 . S
C366 H378 0.960 . S
C366 H379 0.962 . S
C366 H380 0.960 . S
C367 C364 1.511 . S
C367 H381 0.961 . S
C367 H382 0.961 . S
C367 H383 0.961 . S
C368 C369 1.370 . S
C368 C370 1.363 . S
C368 H384 0.931 . S
C369 C368 1.370 . S
C369 C373 1.408 . S
C370 C368 1.363 . S
C370 C371 1.370 . S
C370 C374 1.524 . S
C371 C363 1.503 . S
C371 C370 1.370 . S
C371 C372 1.403 . S
C372 C371 1.403 . S
C372 C373 1.404 . S
C372 C375 1.539 . S
C373 C369 1.408 . S
C373 C372 1.404 . S
C373 H385 0.930 . S
C374 C370 1.524 . S
C374 H386 0.956 . S
C374 H387 0.961 . S
C374 H388 0.961 . S
C375 C372 1.539 . S
C375 H389 0.958 . S
C375 H390 0.961 . S
C375 H391 0.960 . S
H376 C360 0.931 . S
H377 C365 0.929 . S
H378 C366 0.960 . S
H379 C366 0.962 . S
H380 C366 0.960 . S
H381 C367 0.961 . S
H382 C367 0.961 . S
H383 C367 0.961 . S
H384 C368 0.931 . S
H385 C373 0.930 . S
H386 C374 0.956 . S
H387 C374 0.961 . S
H388 C374 0.961 . S
H389 C375 0.958 . S
H390 C375 0.961 . S
H391 C375 0.960 . S
C392 C393 1.391 . S
C392 C394 1.394 . S
C392 H408 0.931 . S
C393 C392 1.391 . S
C393 C397 1.376 . S
C394 C392 1.394 . S
C394 C395 1.369 . S
C394 C398 1.531 . S
C395 C394 1.369 . S
C395 C396 1.410 1_455 S
C395 C403 1.503 1_455 S
C396 C395 1.410 1_655 S
C396 C397 1.392 1_655 S
C396 C399 1.511 . S
C397 C393 1.376 . S
C397 C396 1.392 1_455 S
C397 H409 0.929 1_455 S
C398 C394 1.531 . S
C398 H410 0.960 . S
C398 H411 0.962 . S
C398 H412 0.960 . S
C399 C396 1.511 . S
C399 H413 0.961 . S
C399 H414 0.961 . S
C399 H415 0.961 . S
C400 C401 1.370 . S
C400 C402 1.363 . S
C400 H416 0.931 . S
C401 C400 1.370 . S
C401 C405 1.408 . S
C402 C400 1.363 . S
C402 C403 1.370 . S
C402 C406 1.524 1_655 S
C403 C395 1.503 1_655 S
C403 C402 1.370 . S
C403 C404 1.403 . S
C404 C403 1.403 . S
C404 C405 1.404 . S
C404 C407 1.539 . S
C405 C401 1.408 . S
C405 C404 1.404 . S
C405 H417 0.930 . S
C406 C402 1.524 1_455 S
C406 H418 0.956 . S
C406 H419 0.961 1_455 S
C406 H420 0.962 1_455 S
C407 C404 1.539 . S
C407 H421 0.958 . S
C407 H422 0.961 . S
C407 H423 0.960 . S
H408 C392 0.931 . S
H409 C397 0.929 1_655 S
H410 C398 0.960 . S
H411 C398 0.962 . S
H412 C398 0.960 . S
H413 C399 0.961 . S
H414 C399 0.961 . S
H415 C399 0.961 . S
H416 C400 0.931 . S
H417 C405 0.930 . S
H418 C406 0.956 . S
H419 C406 0.961 1_655 S
H420 C406 0.962 1_655 S
H421 C407 0.958 . S
H422 C407 0.961 . S
H423 C407 0.960 . S
C424 C425 1.391 . S
C424 C426 1.394 . S
C424 H440 0.931 . S
C425 C424 1.391 . S
C425 C429 1.376 1_545 S
C426 C424 1.394 . S
C426 C427 1.369 . S
C426 C430 1.531 . S
C427 C426 1.369 . S
C427 C428 1.410 1_545 S
C427 C435 1.503 1_545 S
C428 C427 1.410 1_565 S
C428 C429 1.392 . S
C428 C431 1.511 . S
C429 C425 1.376 1_565 S
C429 C428 1.392 . S
C429 H441 0.929 . S
C430 C426 1.531 . S
C430 H442 0.960 . S
C430 H443 0.962 . S
C430 H444 0.960 . S
C431 C428 1.511 . S
C431 H445 0.961 . S
C431 H446 0.961 . S
C431 H447 0.961 . S
C432 C433 1.370 . S
C432 C434 1.363 . S
C432 H448 0.931 . S
C433 C432 1.370 . S
C433 C437 1.408 . S
C434 C432 1.363 . S
C434 C435 1.370 . S
C434 C438 1.517 1_565 S
C435 C427 1.503 1_565 S
C435 C434 1.370 . S
C435 C436 1.403 . S
C436 C435 1.403 . S
C436 C437 1.404 . S
C436 C439 1.539 . S
C437 C433 1.408 . S
C437 C436 1.404 . S
C437 H449 0.930 . S
C438 C434 1.517 1_545 S
C438 H450 0.970 . S
C438 H451 0.962 1_545 S
C438 H452 0.953 1_545 S
C439 C436 1.539 . S
C439 H453 0.958 1_565 S
C439 H454 0.961 . S
C439 H455 0.960 . S
H440 C424 0.931 . S
H441 C429 0.929 . S
H442 C430 0.960 . S
H443 C430 0.962 . S
H444 C430 0.960 . S
H445 C431 0.961 . S
H446 C431 0.961 . S
H447 C431 0.961 . S
H448 C432 0.931 . S
H449 C437 0.930 . S
H450 C438 0.970 . S
H451 C438 0.962 1_565 S
H452 C438 0.953 1_565 S
H453 C439 0.958 1_545 S
H454 C439 0.961 . S
H455 C439 0.960 . S
C456 C457 1.391 . S
C456 C458 1.394 . S
C456 H472 0.931 . S
C457 C456 1.391 . S
C457 C461 1.376 . S
C458 C456 1.394 . S
C458 C459 1.369 . S
C458 C462 1.531 . S
C459 C458 1.369 . S
C459 C460 1.410 . S
C459 C467 1.503 . S
C460 C459 1.410 . S
C460 C461 1.392 . S
C460 C463 1.511 . S
C461 C457 1.376 . S
C461 C460 1.392 . S
C461 H473 0.929 . S
C462 C458 1.531 . S
C462 H474 0.960 . S
C462 H475 0.962 . S
C462 H476 0.960 . S
C463 C460 1.511 . S
C463 H477 0.961 . S
C463 H478 0.961 . S
C463 H479 0.961 . S
C464 C465 1.370 . S
C464 C466 1.363 . S
C464 H480 0.931 . S
C465 C464 1.370 . S
C465 C469 1.408 . S
C466 C464 1.363 . S
C466 C467 1.370 . S
C466 C470 1.524 . S
C467 C459 1.503 . S
C467 C466 1.370 . S
C467 C468 1.403 . S
C468 C467 1.403 . S
C468 C469 1.404 . S
C468 C471 1.539 . S
C469 C465 1.408 . S
C469 C468 1.404 . S
C469 H481 0.930 . S
C470 C466 1.524 . S
C470 H482 0.956 . S
C470 H483 0.961 . S
C470 H484 0.961 . S
C471 C468 1.539 . S
C471 H485 0.958 . S
C471 H486 0.961 . S
C471 H487 0.960 . S
H472 C456 0.931 . S
H473 C461 0.929 . S
H474 C462 0.960 . S
H475 C462 0.962 . S
H476 C462 0.960 . S
H477 C463 0.961 . S
H478 C463 0.961 . S
H479 C463 0.961 . S
H480 C464 0.931 . S
H481 C469 0.930 . S
H482 C470 0.956 . S
H483 C470 0.961 . S
H484 C470 0.961 . S
H485 C471 0.958 . S
H486 C471 0.961 . S
H487 C471 0.960 . S
C488 C489 1.391 . S
C488 C490 1.394 . S
C488 H504 0.931 . S
C489 C488 1.391 . S
C489 C493 1.376 . S
C490 C488 1.394 . S
C490 C491 1.369 . S
C490 C494 1.531 1_655 S
C491 C490 1.369 . S
C491 C492 1.410 . S
C491 C499 1.503 1_655 S
C492 C491 1.410 . S
C492 C493 1.392 . S
C492 C495 1.511 . S
C493 C489 1.376 . S
C493 C492 1.392 . S
C493 H505 0.929 . S
C494 C490 1.531 1_455 S
C494 H506 0.960 1_455 S
C494 H507 0.962 . S
C494 H508 0.960 1_455 S
C495 C492 1.511 . S
C495 H509 0.961 . S
C495 H510 0.961 . S
C495 H511 0.961 . S
C496 C497 1.370 . S
C496 C498 1.363 . S
C496 H512 0.931 . S
C497 C496 1.370 . S
C497 C501 1.408 1_455 S
C498 C496 1.363 . S
C498 C499 1.370 . S
C498 C502 1.524 . S
C499 C491 1.503 1_455 S
C499 C498 1.370 . S
C499 C500 1.403 1_455 S
C500 C499 1.403 1_655 S
C500 C501 1.404 . S
C500 C503 1.539 . S
C501 C497 1.408 1_655 S
C501 C500 1.404 . S
C501 H513 0.930 . S
C502 C498 1.524 . S
C502 H514 0.956 . S
C502 H515 0.961 . S
C502 H516 0.961 . S
C503 C500 1.539 . S
C503 H517 0.958 . S
C503 H518 0.961 . S
C503 H519 0.960 . S
H504 C488 0.931 . S
H505 C493 0.929 . S
H506 C494 0.960 1_655 S
H507 C494 0.962 . S
H508 C494 0.960 1_655 S
H509 C495 0.961 . S
H510 C495 0.961 . S
H511 C495 0.961 . S
H512 C496 0.931 . S
H513 C501 0.930 . S
H514 C502 0.956 . S
H515 C502 0.961 . S
H516 C502 0.961 . S
H517 C503 0.958 . S
H518 C503 0.961 . S
H519 C503 0.960 . S
C520 C521 1.391 . S
C520 C522 1.394 1_565 S
C520 H536 0.931 1_565 S
C521 C520 1.391 . S
C521 C525 1.376 . S
C522 C520 1.394 1_545 S
C522 C523 1.369 1_545 S
C522 C526 1.531 . S
C523 C522 1.369 1_565 S
C523 C524 1.410 . S
C523 C531 1.503 1_565 S
C524 C523 1.410 . S
C524 C525 1.392 . S
C524 C527 1.511 . S
C525 C521 1.376 . S
C525 C524 1.392 . S
C525 H537 0.929 . S
C526 C522 1.531 . S
C526 H538 0.960 . S
C526 H539 0.962 . S
C526 H540 0.960 . S
C527 C524 1.511 . S
C527 H541 0.961 . S
C527 H542 0.961 . S
C527 H543 0.961 . S
C528 C529 1.370 . S
C528 C530 1.363 . S
C528 H544 0.931 . S
C529 C528 1.370 . S
C529 C533 1.408 . S
C530 C528 1.363 . S
C530 C531 1.370 . S
C530 C534 1.524 . S
C531 C523 1.503 1_545 S
C531 C530 1.370 . S
C531 C532 1.403 . S
C532 C531 1.403 . S
C532 C533 1.404 . S
C532 C535 1.539 1_545 S
C533 C529 1.408 . S
C533 C532 1.404 . S
C533 H545 0.930 . S
C534 C530 1.524 . S
C534 H546 0.956 . S
C534 H547 0.966 . S
C534 H548 0.961 . S
C535 C532 1.539 1_565 S
C535 H549 0.958 1_565 S
C535 H550 0.961 . S
C535 H551 0.960 . S
H536 C520 0.931 1_545 S
H537 C525 0.929 . S
H538 C526 0.960 . S
H539 C526 0.962 . S
H540 C526 0.960 . S
H541 C527 0.961 . S
H542 C527 0.961 . S
H543 C527 0.961 . S
H544 C528 0.931 . S
H545 C533 0.930 . S
H546 C534 0.956 . S
H547 C534 0.966 . S
H548 C534 0.961 . S
H549 C535 0.958 1_545 S
H550 C535 0.961 . S
H551 C535 0.960 . S
C552 C553 1.391 . S
C552 C554 1.394 . S
C552 H568 0.931 . S
C553 C552 1.391 . S
C553 C557 1.376 . S
C554 C552 1.394 . S
C554 C555 1.369 . S
C554 C558 1.531 . S
C555 C554 1.369 . S
C555 C556 1.410 . S
C555 C563 1.503 . S
C556 C555 1.410 . S
C556 C557 1.392 . S
C556 C559 1.511 . S
C557 C553 1.376 . S
C557 C556 1.392 . S
C557 H569 0.929 . S
C558 C554 1.531 . S
C558 H570 0.960 . S
C558 H571 0.962 . S
C558 H572 0.960 . S
C559 C556 1.511 . S
C559 H573 0.961 . S
C559 H574 0.961 . S
C559 H575 0.961 . S
C560 C561 1.370 . S
C560 C562 1.363 . S
C560 H576 0.931 . S
C561 C560 1.370 . S
C561 C565 1.408 . S
C562 C560 1.363 . S
C562 C563 1.370 . S
C562 C566 1.524 . S
C563 C555 1.503 . S
C563 C562 1.370 . S
C563 C564 1.403 . S
C564 C563 1.403 . S
C564 C565 1.404 . S
C564 C567 1.539 . S
C565 C561 1.408 . S
C565 C564 1.404 . S
C565 H577 0.930 . S
C566 C562 1.524 . S
C566 H578 0.956 . S
C566 H579 0.961 . S
C566 H580 0.961 . S
C567 C564 1.539 . S
C567 H581 0.958 . S
C567 H582 0.961 . S
C567 H583 0.960 . S
H568 C552 0.931 . S
H569 C557 0.929 . S
H570 C558 0.960 . S
H571 C558 0.962 . S
H572 C558 0.960 . S
H573 C559 0.961 . S
H574 C559 0.961 . S
H575 C559 0.961 . S
H576 C560 0.931 . S
H577 C565 0.930 . S
H578 C566 0.956 . S
H579 C566 0.961 . S
H580 C566 0.961 . S
H581 C567 0.958 . S
H582 C567 0.961 . S
H583 C567 0.960 . S
C584 C585 1.391 . S
C584 C586 1.394 1_655 S
C584 H600 0.931 1_655 S
C585 C584 1.391 . S
C585 C589 1.376 . S
C586 C584 1.394 1_455 S
C586 C587 1.369 1_455 S
C586 C590 1.531 . S
C587 C586 1.369 1_655 S
C587 C588 1.410 . S
C587 C595 1.503 1_655 S
C588 C587 1.410 . S
C588 C589 1.392 . S
C588 C591 1.511 . S
C589 C585 1.376 . S
C589 C588 1.392 . S
C589 H601 0.929 . S
C590 C586 1.531 . S
C590 H602 0.960 . S
C590 H603 0.962 . S
C590 H604 0.960 . S
C591 C588 1.511 . S
C591 H605 0.961 . S
C591 H606 0.961 . S
C591 H607 0.961 . S
C592 C593 1.370 . S
C592 C594 1.363 . S
C592 H608 0.931 . S
C593 C592 1.370 . S
C593 C597 1.408 . S
C594 C592 1.363 . S
C594 C595 1.370 . S
C594 C598 1.524 . S
C595 C587 1.503 1_455 S
C595 C594 1.370 . S
C595 C596 1.403 . S
C596 C595 1.403 . S
C596 C597 1.404 . S
C596 C599 1.539 . S
C597 C593 1.408 . S
C597 C596 1.404 . S
C597 H609 0.930 . S
C598 C594 1.524 . S
C598 H610 0.956 . S
C598 H611 0.961 1_455 S
C598 H612 0.961 . S
C599 C596 1.539 . S
C599 H613 0.958 . S
C599 H614 0.970 . S
C599 H615 0.960 1_455 S
H600 C584 0.931 1_455 S
H601 C589 0.929 . S
H602 C590 0.960 . S
H603 C590 0.962 . S
H604 C590 0.960 . S
H605 C591 0.961 . S
H606 C591 0.961 . S
H607 C591 0.961 . S
H608 C592 0.931 . S
H609 C597 0.930 . S
H610 C598 0.956 . S
H611 C598 0.961 1_655 S
H612 C598 0.961 . S
H613 C599 0.958 . S
H614 C599 0.970 . S
H615 C599 0.960 1_655 S
C616 C617 1.391 . S
C616 C618 1.394 1_565 S
C616 H632 0.931 1_565 S
C617 C616 1.391 . S
C617 C621 1.376 . S
C618 C616 1.394 1_545 S
C618 C619 1.369 1_545 S
C618 C622 1.531 . S
C619 C618 1.369 1_565 S
C619 C620 1.410 . S
C619 C627 1.503 1_566 S
C620 C619 1.410 . S
C620 C621 1.392 . S
C620 C623 1.511 1_556 S
C621 C617 1.376 . S
C621 C620 1.392 . S
C621 H633 0.929 . S
C622 C618 1.531 . S
C622 H634 0.960 . S
C622 H635 0.962 . S
C622 H636 0.960 . S
C623 C620 1.511 1_554 S
C623 H637 0.961 . S
C623 H638 0.961 . S
C623 H639 0.961 . S
C624 C625 1.370 . S
C624 C626 1.363 . S
C624 H640 0.931 . S
C625 C624 1.370 . S
C625 C629 1.408 . S
C626 C624 1.363 . S
C626 C627 1.370 . S
C626 C630 1.524 . S
C627 C619 1.503 1_544 S
C627 C626 1.370 . S
C627 C628 1.403 . S
C628 C627 1.403 . S
C628 C629 1.404 . S
C628 C631 1.539 1_545 S
C629 C625 1.408 . S
C629 C628 1.404 . S
C629 H641 0.930 . S
C630 C626 1.524 . S
C630 H642 0.956 1_554 S
C630 H643 0.966 1_545 S
C630 H644 0.961 . S
C631 C628 1.539 1_565 S
C631 H645 0.958 1_565 S
C631 H646 0.961 . S
C631 H647 0.960 . S
H632 C616 0.931 1_545 S
H633 C621 0.929 . S
H634 C622 0.960 . S
H635 C622 0.962 . S
H636 C622 0.960 . S
H637 C623 0.961 . S
H638 C623 0.961 . S
H639 C623 0.961 . S
H640 C624 0.931 . S
H641 C629 0.930 . S
H642 C630 0.956 1_556 S
H643 C630 0.966 1_565 S
H644 C630 0.961 . S
H645 C631 0.958 1_545 S
H646 C631 0.961 . S
H647 C631 0.960 . S
C648 C649 1.391 . S
C648 C650 1.394 . S
C648 H664 0.931 . S
C649 C648 1.391 . S
C649 C653 1.376 . S
C650 C648 1.394 . S
C650 C651 1.369 . S
C650 C654 1.531 . S
C651 C650 1.369 . S
C651 C652 1.410 . S
C651 C659 1.503 . S
C652 C651 1.410 . S
C652 C653 1.392 . S
C652 C655 1.511 . S
C653 C649 1.376 . S
C653 C652 1.392 . S
C653 H665 0.929 . S
C654 C650 1.531 . S
C654 H666 0.960 . S
C654 H667 0.962 . S
C654 H668 0.960 . S
C655 C652 1.511 . S
C655 H669 0.961 . S
C655 H670 0.961 . S
C655 H671 0.961 . S
C656 C657 1.370 . S
C656 C658 1.363 . S
C656 H672 0.931 . S
C657 C656 1.370 . S
C657 C661 1.408 . S
C658 C656 1.363 . S
C658 C659 1.370 . S
C658 C662 1.524 . S
C659 C651 1.503 . S
C659 C658 1.370 . S
C659 C660 1.403 . S
C660 C659 1.403 . S
C660 C661 1.404 . S
C660 C663 1.539 . S
C661 C657 1.408 . S
C661 C660 1.404 . S
C661 H673 0.930 . S
C662 C658 1.524 . S
C662 H674 0.956 . S
C662 H675 0.961 . S
C662 H676 0.961 . S
C663 C660 1.539 . S
C663 H677 0.958 . S
C663 H678 0.961 . S
C663 H679 0.960 . S
H664 C648 0.931 . S
H665 C653 0.929 . S
H666 C654 0.960 . S
H667 C654 0.962 . S
H668 C654 0.960 . S
H669 C655 0.961 . S
H670 C655 0.961 . S
H671 C655 0.961 . S
H672 C656 0.931 . S
H673 C661 0.930 . S
H674 C662 0.956 . S
H675 C662 0.961 . S
H676 C662 0.961 . S
H677 C663 0.958 . S
H678 C663 0.961 . S
H679 C663 0.960 . S
C680 C681 1.391 . S
C680 C682 1.394 . S
C680 H696 0.931 . S
C681 C680 1.391 . S
C681 C685 1.376 . S
C682 C680 1.394 . S
C682 C683 1.369 . S
C682 C686 1.531 . S
C683 C682 1.369 . S
C683 C684 1.410 1_455 S
C683 C691 1.503 1_455 S
C684 C683 1.410 1_655 S
C684 C685 1.392 1_655 S
C684 C687 1.511 . S
C685 C681 1.376 . S
C685 C684 1.392 1_455 S
C685 H697 0.929 1_455 S
C686 C682 1.531 . S
C686 H698 0.960 . S
C686 H699 0.962 . S
C686 H700 0.960 . S
C687 C684 1.511 . S
C687 H701 0.961 . S
C687 H702 0.961 . S
C687 H703 0.961 . S
C688 C689 1.370 . S
C688 C690 1.363 . S
C688 H704 0.931 . S
C689 C688 1.370 . S
C689 C693 1.408 . S
C690 C688 1.363 . S
C690 C691 1.370 . S
C690 C694 1.524 . S
C691 C683 1.503 1_655 S
C691 C690 1.370 . S
C691 C692 1.403 . S
C692 C691 1.403 . S
C692 C693 1.404 . S
C692 C695 1.539 1_655 S
C693 C689 1.408 . S
C693 C692 1.404 . S
C693 H705 0.930 . S
C694 C690 1.524 . S
C694 H706 0.968 . S
C694 H707 0.961 . S
C694 H708 0.961 . S
C695 C692 1.539 1_455 S
C695 H709 0.958 . S
C695 H710 0.961 1_455 S
C695 H711 0.960 . S
H696 C680 0.931 . S
H697 C685 0.929 1_655 S
H698 C686 0.960 . S
H699 C686 0.962 . S
H700 C686 0.960 . S
H701 C687 0.961 . S
H702 C687 0.961 . S
H703 C687 0.961 . S
H704 C688 0.931 . S
H705 C693 0.930 . S
H706 C694 0.968 . S
H707 C694 0.961 . S
H708 C694 0.961 . S
H709 C695 0.958 . S
H710 C695 0.961 1_655 S
H711 C695 0.960 . S
C712 C713 1.391 . S
C712 C714 1.394 . S
C712 H728 0.931 . S
C713 C712 1.391 . S
C713 C717 1.376 . S
C714 C712 1.394 . S
C714 C715 1.369 . S
C714 C718 1.530 . S
C715 C714 1.369 . S
C715 C716 1.410 . S
C715 C723 1.503 1_564 S
C716 C715 1.410 . S
C716 C717 1.392 . S
C716 C719 1.511 . S
C717 C713 1.376 . S
C717 C716 1.392 . S
C717 H729 0.929 . S
C718 C714 1.530 . S
C718 H730 0.961 1_554 S
C718 H731 0.954 1_565 S
C718 H732 0.968 . S
C719 C716 1.511 . S
C719 H733 0.961 . S
C719 H734 0.961 1_554 S
C719 H735 0.961 1_554 S
C720 C721 1.370 . S
C720 C722 1.363 . S
C720 H736 0.931 . S
C721 C720 1.370 . S
C721 C725 1.408 . S
C722 C720 1.363 . S
C722 C723 1.370 . S
C722 C726 1.524 1_556 S
C723 C715 1.503 1_546 S
C723 C722 1.370 . S
C723 C724 1.403 1_545 S
C724 C723 1.403 1_565 S
C724 C725 1.404 1_565 S
C724 C727 1.539 . S
C725 C721 1.408 . S
C725 C724 1.404 1_545 S
C725 H737 0.930 1_545 S
C726 C722 1.524 1_554 S
C726 H738 0.956 . S
C726 H739 0.961 . S
C726 H740 0.961 . S
C727 C724 1.539 . S
C727 H741 0.958 . S
C727 H742 0.961 . S
C727 H743 0.960 . S
H728 C712 0.931 . S
H729 C717 0.929 . S
H730 C718 0.961 1_556 S
H731 C718 0.954 1_545 S
H732 C718 0.968 . S
H733 C719 0.961 . S
H734 C719 0.961 1_556 S
H735 C719 0.961 1_556 S
H736 C720 0.931 . S
H737 C725 0.930 1_565 S
H738 C726 0.956 . S
H739 C726 0.961 . S
H740 C726 0.961 . S
H741 C727 0.958 . S
H742 C727 0.961 . S
H743 C727 0.960 . S
C744 C745 1.391 . S
C744 C746 1.394 . S
C744 H760 0.931 . S
C745 C744 1.391 . S
C745 C749 1.376 . S
C746 C744 1.394 . S
C746 C747 1.369 . S
C746 C750 1.531 . S
C747 C746 1.369 . S
C747 C748 1.410 . S
C747 C755 1.503 1_655 S
C748 C747 1.410 . S
C748 C749 1.392 . S
C748 C751 1.511 . S
C749 C745 1.376 . S
C749 C748 1.392 . S
C749 H761 0.929 . S
C750 C746 1.531 . S
C750 H762 0.960 . S
C750 H763 0.962 . S
C750 H764 0.960 . S
C751 C748 1.511 . S
C751 H765 0.961 . S
C751 H766 0.961 1_655 S
C751 H767 0.961 . S
C752 C753 1.370 . S
C752 C754 1.363 . S
C752 H768 0.931 . S
C753 C752 1.370 . S
C753 C757 1.408 . S
C754 C752 1.363 . S
C754 C755 1.370 . S
C754 C758 1.524 . S
C755 C747 1.503 1_455 S
C755 C754 1.370 . S
C755 C756 1.403 . S
C756 C755 1.403 . S
C756 C757 1.404 . S
C756 C759 1.539 . S
C757 C753 1.408 . S
C757 C756 1.404 . S
C757 H769 0.930 . S
C758 C754 1.524 . S
C758 H770 0.956 . S
C758 H771 0.961 . S
C758 H772 0.961 . S
C759 C756 1.539 . S
C759 H773 0.958 . S
C759 H774 0.961 . S
C759 H775 0.960 1_455 S
H760 C744 0.931 . S
H761 C749 0.929 . S
H762 C750 0.960 . S
H763 C750 0.962 . S
H764 C750 0.960 . S
H765 C751 0.961 . S
H766 C751 0.961 1_455 S
H767 C751 0.961 . S
H768 C752 0.931 . S
H769 C757 0.930 . S
H770 C758 0.956 . S
H771 C758 0.961 . S
H772 C758 0.961 . S
H773 C759 0.958 . S
H774 C759 0.961 . S
H775 C759 0.960 1_655 S
C776 C777 1.391 . S
C776 C778 1.394 . S
C776 H792 0.931 . S
C777 C776 1.391 . S
C777 C781 1.376 . S
C778 C776 1.394 . S
C778 C779 1.369 . S
C778 C782 1.531 . S
C779 C778 1.369 . S
C779 C780 1.410 . S
C779 C787 1.503 1_545 S
C780 C779 1.410 . S
C780 C781 1.392 . S
C780 C783 1.511 . S
C781 C777 1.376 . S
C781 C780 1.392 . S
C781 H793 0.929 . S
C782 C778 1.531 . S
C782 H794 0.960 1_545 S
C782 H795 0.962 . S
C782 H796 0.960 . S
C783 C780 1.511 . S
C783 H797 0.961 . S
C783 H798 0.961 1_545 S
C783 H799 0.961 . S
C784 C785 1.370 . S
C784 C786 1.363 . S
C784 H800 0.931 . S
C785 C784 1.370 . S
C785 C789 1.408 . S
C786 C784 1.363 . S
C786 C787 1.370 . S
C786 C790 1.524 . S
C787 C779 1.503 1_565 S
C787 C786 1.370 . S
C787 C788 1.403 . S
C788 C787 1.403 . S
C788 C789 1.404 . S
C788 C791 1.539 . S
C789 C785 1.408 . S
C789 C788 1.404 . S
C789 H801 0.930 . S
C790 C786 1.524 . S
C790 H802 0.956 . S
C790 H803 0.961 1_565 S
C790 H804 0.961 . S
C791 C788 1.539 . S
C791 H805 0.958 . S
C791 H806 0.961 . S
C791 H807 0.960 . S
H792 C776 0.931 . S
H793 C781 0.929 . S
H794 C782 0.960 1_565 S
H795 C782 0.962 . S
H796 C782 0.960 . S
H797 C783 0.961 . S
H798 C783 0.961 1_565 S
H799 C783 0.961 . S
H800 C784 0.931 . S
H801 C789 0.930 . S
H802 C790 0.956 . S
H803 C790 0.961 1_545 S
H804 C790 0.961 . S
H805 C791 0.958 . S
H806 C791 0.961 . S
H807 C791 0.960 . S
C808 C809 1.391 . S
C808 C810 1.394 . S
C808 H824 0.931 . S
C809 C808 1.391 . S
C809 C813 1.376 . S
C810 C808 1.394 . S
C810 C811 1.369 . S
C810 C814 1.531 . S
C811 C810 1.369 . S
C811 C812 1.410 . S
C811 C819 1.503 . S
C812 C811 1.410 . S
C812 C813 1.392 . S
C812 C815 1.511 . S
C813 C809 1.376 . S
C813 C812 1.392 . S
C813 H825 0.929 . S
C814 C810 1.531 . S
C814 H826 0.960 . S
C814 H827 0.962 . S
C814 H828 0.960 . S
C815 C812 1.511 . S
C815 H829 0.961 . S
C815 H830 0.961 . S
C815 H831 0.961 . S
C816 C817 1.370 . S
C816 C818 1.363 . S
C816 H832 0.931 . S
C817 C816 1.370 . S
C817 C821 1.408 . S
C818 C816 1.363 . S
C818 C819 1.370 . S
C818 C822 1.524 . S
C819 C811 1.503 . S
C819 C818 1.370 . S
C819 C820 1.403 . S
C820 C819 1.403 . S
C820 C821 1.404 . S
C820 C823 1.539 . S
C821 C817 1.408 . S
C821 C820 1.404 . S
C821 H833 0.930 . S
C822 C818 1.524 . S
C822 H834 0.956 . S
C822 H835 0.961 . S
C822 H836 0.961 . S
C823 C820 1.539 . S
C823 H837 0.958 . S
C823 H838 0.961 . S
C823 H839 0.960 . S
H824 C808 0.931 . S
H825 C813 0.929 . S
H826 C814 0.960 . S
H827 C814 0.962 . S
H828 C814 0.960 . S
H829 C815 0.961 . S
H830 C815 0.961 . S
H831 C815 0.961 . S
H832 C816 0.931 . S
H833 C821 0.930 . S
H834 C822 0.956 . S
H835 C822 0.961 . S
H836 C822 0.961 . S
H837 C823 0.958 . S
H838 C823 0.961 . S
H839 C823 0.960 . S
C840 C841 1.391 . S
C840 C842 1.394 . S
C840 H856 0.931 . S
C841 C840 1.391 . S
C841 C845 1.376 . S
C842 C840 1.394 . S
C842 C843 1.369 . S
C842 C846 1.531 . S
C843 C842 1.369 . S
C843 C844 1.410 . S
C843 C851 1.503 1_655 S
C844 C843 1.410 . S
C844 C845 1.392 . S
C844 C847 1.511 . S
C845 C841 1.376 . S
C845 C844 1.392 . S
C845 H857 0.929 . S
C846 C842 1.531 . S
C846 H858 0.960 1_655 S
C846 H859 0.962 . S
C846 H860 0.960 . S
C847 C844 1.511 . S
C847 H861 0.961 . S
C847 H862 0.977 . S
C847 H863 0.961 . S
C848 C849 1.370 . S
C848 C850 1.363 . S
C848 H864 0.931 . S
C849 C848 1.370 . S
C849 C853 1.408 . S
C850 C848 1.363 . S
C850 C851 1.370 . S
C850 C854 1.524 . S
C851 C843 1.503 1_455 S
C851 C850 1.370 . S
C851 C852 1.403 . S
C852 C851 1.403 . S
C852 C853 1.404 . S
C852 C855 1.539 . S
C853 C849 1.408 . S
C853 C852 1.404 . S
C853 H865 0.930 . S
C854 C850 1.524 . S
C854 H866 0.956 . S
C854 H867 0.966 . S
C854 H868 0.961 . S
C855 C852 1.539 . S
C855 H869 0.958 . S
C855 H870 0.961 . S
C855 H871 0.960 1_455 S
H856 C840 0.931 . S
H857 C845 0.929 . S
H858 C846 0.960 1_455 S
H859 C846 0.962 . S
H860 C846 0.960 . S
H861 C847 0.961 . S
H862 C847 0.977 . S
H863 C847 0.961 . S
H864 C848 0.931 . S
H865 C853 0.930 . S
H866 C854 0.956 . S
H867 C854 0.966 . S
H868 C854 0.961 . S
H869 C855 0.958 . S
H870 C855 0.961 . S
H871 C855 0.960 1_655 S
C872 C873 1.391 . S
C872 C874 1.394 . S
C872 H888 0.931 . S
C873 C872 1.391 . S
C873 C877 1.376 . S
C874 C872 1.394 . S
C874 C875 1.369 . S
C874 C878 1.531 . S
C875 C874 1.369 . S
C875 C876 1.410 . S
C875 C883 1.503 1_565 S
C876 C875 1.410 . S
C876 C877 1.392 . S
C876 C879 1.511 . S
C877 C873 1.376 . S
C877 C876 1.392 . S
C877 H889 0.929 . S
C878 C874 1.531 . S
C878 H890 0.960 1_565 S
C878 H891 0.962 . S
C878 H892 0.960 . S
C879 C876 1.511 . S
C879 H893 0.961 . S
C879 H894 0.961 1_565 S
C879 H895 0.961 . S
C880 C881 1.370 . S
C880 C882 1.363 . S
C880 H896 0.931 . S
C881 C880 1.370 . S
C881 C885 1.408 . S
C882 C880 1.363 . S
C882 C883 1.370 . S
C882 C886 1.524 . S
C883 C875 1.503 1_545 S
C883 C882 1.370 . S
C883 C884 1.403 . S
C884 C883 1.403 . S
C884 C885 1.404 . S
C884 C887 1.539 . S
C885 C881 1.408 . S
C885 C884 1.404 . S
C885 H897 0.930 . S
C886 C882 1.524 . S
C886 H898 0.956 1_545 S
C886 H899 0.961 1_545 S
C886 H900 0.961 . S
C887 C884 1.539 . S
C887 H901 0.958 . S
C887 H902 0.961 . S
C887 H903 0.960 . S
H888 C872 0.931 . S
H889 C877 0.929 . S
H890 C878 0.960 1_545 S
H891 C878 0.962 . S
H892 C878 0.960 . S
H893 C879 0.961 . S
H894 C879 0.961 1_545 S
H895 C879 0.961 . S
H896 C880 0.931 . S
H897 C885 0.930 . S
H898 C886 0.956 1_565 S
H899 C886 0.961 1_565 S
H900 C886 0.961 . S
H901 C887 0.958 . S
H902 C887 0.961 . S
H903 C887 0.960 . S
C904 C905 1.391 . S
C904 C906 1.394 . S
C904 H920 0.931 . S
C905 C904 1.391 . S
C905 C909 1.376 . S
C906 C904 1.394 . S
C906 C907 1.369 . S
C906 C910 1.531 . S
C907 C906 1.369 . S
C907 C908 1.410 . S
C907 C915 1.503 . S
C908 C907 1.410 . S
C908 C909 1.392 . S
C908 C911 1.511 . S
C909 C905 1.376 . S
C909 C908 1.392 . S
C909 H921 0.929 . S
C910 C906 1.531 . S
C910 H922 0.960 . S
C910 H923 0.962 . S
C910 H924 0.960 . S
C911 C908 1.511 . S
C911 H925 0.961 . S
C911 H926 0.961 . S
C911 H927 0.961 . S
C912 C913 1.370 . S
C912 C914 1.363 . S
C912 H928 0.931 . S
C913 C912 1.370 . S
C913 C917 1.408 . S
C914 C912 1.363 . S
C914 C915 1.370 . S
C914 C918 1.524 . S
C915 C907 1.503 . S
C915 C914 1.370 . S
C915 C916 1.403 . S
C916 C915 1.403 . S
C916 C917 1.404 . S
C916 C919 1.539 . S
C917 C913 1.408 . S
C917 C916 1.404 . S
C917 H929 0.930 . S
C918 C914 1.524 . S
C918 H930 0.956 . S
C918 H931 0.961 . S
C918 H932 0.961 . S
C919 C916 1.539 . S
C919 H933 0.958 . S
C919 H934 0.961 . S
C919 H935 0.960 . S
H920 C904 0.931 . S
H921 C909 0.929 . S
H922 C910 0.960 . S
H923 C910 0.962 . S
H924 C910 0.960 . S
H925 C911 0.961 . S
H926 C911 0.961 . S
H927 C911 0.961 . S
H928 C912 0.931 . S
H929 C917 0.930 . S
H930 C918 0.956 . S
H931 C918 0.961 . S
H932 C918 0.961 . S
H933 C919 0.958 . S
H934 C919 0.961 . S
H935 C919 0.960 . S
C169 C119 1.759 . S
C177 C7 1.749 . S
C201 C23 1.825 . S
C209 C135 1.830 . S
C233 C35 1.756 . S
C241 C147 1.743 . S
C265 C49 1.721 . S
C273 C161 1.742 . S
C297 C93 1.830 . S
C305 C65 1.828 . S
C329 C77 1.713 . S
C337 C105 1.740 . S
C361 C51 0.965 . S
C369 C9 0.975 . S
C393 C63 1.075 . S
C401 C21 1.065 . S
C425 C79 0.829 . S
C433 C37 0.854 . S
C457 C91 1.042 . S
C465 C133 1.084 . S
C489 C107 0.980 . S
C497 C149 1.017 . S
C521 C121 0.923 . S
C529 C163 0.912 . S
C553 C3 1.565 . S
C561 C134 1.563 . S
C585 C22 1.548 . S
C593 C143 1.565 . S
C617 C31 1.546 . S
C625 C157 1.552 . S
C649 C92 1.548 . S
C657 C45 1.565 . S
C681 C64 1.568 . S
C689 C101 1.570 . S
C713 C115 1.554 . S
C721 C73 1.552 . S
C745 C162 1.191 . S
C753 C8 1.227 . S
C777 C17 1.301 . S
C785 C87 1.283 . S
C809 C106 1.240 . S
C817 C36 1.208 . S
C841 C50 1.201 . S
C849 C120 1.230 . S
C873 C59 1.312 . S
C881 C129 1.269 . S
C905 C148 1.231 . S
C913 C78 1.222 . S
