# Generated by pormake.
# Topology whb, (6)-cn, num edge types: 1
# Building blocks:
#     Node 0, Type 0, BuildingBlock: KUMBUR_clean_sbu_1, # of connection points: 6
#     Node 1, Type 0, BuildingBlock: KUMBUR_clean_sbu_1, # of connection points: 6
#     Node 2, Type 0, BuildingBlock: KUMBUR_clean_sbu_1, # of connection points: 6
#     Node 3, Type 0, BuildingBlock: KUMBUR_clean_sbu_1, # of connection points: 6
#     Node 4, Type 0, BuildingBlock: KUMBUR_clean_sbu_1, # of connection points: 6
#     Node 5, Type 0, BuildingBlock: KUMBUR_clean_sbu_1, # of connection points: 6
#     Node 6, Type 0, BuildingBlock: KUMBUR_clean_sbu_1, # of connection points: 6
#     Node 7, Type 0, BuildingBlock: KUMBUR_clean_sbu_1, # of connection points: 6
#     Edge 8, Type (0, 0), BuildingBlock: XUDNAN_clean_linker_2, # of connection points: 2
#     Edge 9, Type (0, 0), BuildingBlock: XUDNAN_clean_linker_2, # of connection points: 2
#     Edge 10, Type (0, 0), BuildingBlock: XUDNAN_clean_linker_2, # of connection points: 2
#     Edge 11, Type (0, 0), BuildingBlock: XUDNAN_clean_linker_2, # of connection points: 2
#     Edge 12, Type (0, 0), BuildingBlock: XUDNAN_clean_linker_2, # of connection points: 2
#     Edge 13, Type (0, 0), BuildingBlock: XUDNAN_clean_linker_2, # of connection points: 2
#     Edge 14, Type (0, 0), BuildingBlock: XUDNAN_clean_linker_2, # of connection points: 2
#     Edge 15, Type (0, 0), BuildingBlock: XUDNAN_clean_linker_2, # of connection points: 2
#     Edge 16, Type (0, 0), BuildingBlock: XUDNAN_clean_linker_2, # of connection points: 2
#     Edge 17, Type (0, 0), BuildingBlock: XUDNAN_clean_linker_2, # of connection points: 2
#     Edge 18, Type (0, 0), BuildingBlock: XUDNAN_clean_linker_2, # of connection points: 2
#     Edge 19, Type (0, 0), BuildingBlock: XUDNAN_clean_linker_2, # of connection points: 2
#     Edge 20, Type (0, 0), BuildingBlock: XUDNAN_clean_linker_2, # of connection points: 2
#     Edge 21, Type (0, 0), BuildingBlock: XUDNAN_clean_linker_2, # of connection points: 2
#     Edge 22, Type (0, 0), BuildingBlock: XUDNAN_clean_linker_2, # of connection points: 2
#     Edge 23, Type (0, 0), BuildingBlock: XUDNAN_clean_linker_2, # of connection points: 2
#     Edge 24, Type (0, 0), BuildingBlock: XUDNAN_clean_linker_2, # of connection points: 2
#     Edge 25, Type (0, 0), BuildingBlock: XUDNAN_clean_linker_2, # of connection points: 2
#     Edge 26, Type (0, 0), BuildingBlock: XUDNAN_clean_linker_2, # of connection points: 2
#     Edge 27, Type (0, 0), BuildingBlock: XUDNAN_clean_linker_2, # of connection points: 2
#     Edge 28, Type (0, 0), BuildingBlock: XUDNAN_clean_linker_2, # of connection points: 2
#     Edge 29, Type (0, 0), BuildingBlock: XUDNAN_clean_linker_2, # of connection points: 2
#     Edge 30, Type (0, 0), BuildingBlock: XUDNAN_clean_linker_2, # of connection points: 2
#     Edge 31, Type (0, 0), BuildingBlock: XUDNAN_clean_linker_2, # of connection points: 2
# Relax obj value: 0.587
# Max RMSD: 0.323
# Mean RMSD: 0.270
data_MOF--net-whb--node1-KUMBUR_clean_sbu_1--edge1-XUDNAN_clean_linker_2
_symmetry_space_group_name_H-M    P1
_symmetry_Int_Tables_number       1
_symmetry_cell_setting            triclinic
loop_
_symmetry_equiv_pos_as_xyz
'x, y, z'
_cell_length_a     30.875381
_cell_length_b     31.087303
_cell_length_c     45.034454
_cell_angle_alpha  105.34376
_cell_angle_beta   90.008422
_cell_angle_gamma 102.68884
loop_
_atom_site_label
_atom_site_type_symbol
_atom_site_fract_x
_atom_site_fract_y
_atom_site_fract_z
_atom_type_partial_charge
Tb0 Tb 0.1703 0.39911 0.0855 0.0
C1 C 0.14187 0.36559 0.20927 0.0
N2 N 0.1696 0.34716 0.189 0.0
C3 C 0.22719 0.36881 0.22947 0.0
C4 C 0.15623 0.38844 0.24026 0.0
C5 C 0.21131 0.34684 0.19888 0.0
C6 C 0.19974 0.39032 0.25017 0.0
C7 C 1.06782 0.37688 0.21931 0.0
C8 C 0.09863 0.35994 0.19892 0.0
C9 C 0.08241 0.40249 0.2497 0.0
C10 C 0.12658 0.40807 0.26023 0.0
Tb11 Tb 0.14228 0.31326 0.13902 0.0
N12 N 0.08598 0.3341 0.16962 0.0
C13 C 1.02297 0.36536 0.20903 0.0
C14 C 1.04155 0.3174 0.16139 0.0
C15 C 1.0096 0.33425 0.18024 0.0
H16 H 0.23245 0.3301 0.18304 0.0
H17 H 0.97465 0.32246 0.17281 0.0
H18 H 1.07445 0.42733 0.07107 0.0
H19 H 0.28595 0.33998 0.00344 0.0
H20 H 1.03042 0.2907 0.14034 0.0
H21 H 0.9982 0.37786 0.22384 0.0
H22 H 0.26345 0.38099 0.0538 0.0
H23 H 0.26058 0.3692 0.23703 0.0
H24 H 1.05943 0.41647 0.26557 0.0
H25 H 0.13716 0.4266 0.28398 0.0
H26 H 1.01553 0.40198 0.02933 0.0
H27 H 0.21214 0.40752 0.2738 0.0
H28 H 0.22981 0.30382 0.9596 0.0
N29 N 0.11518 0.38363 0.04708 0.0
C30 C 0.12279 0.35768 0.01908 0.0
C31 C 1.04521 0.38853 0.02628 0.0
C32 C 0.09084 0.34383 -0.00598 0.0
C33 C 1.07848 0.40212 0.05016 0.0
C34 C 1.05092 0.35829 -0.0017 0.0
N35 N 0.1951 0.36625 0.03897 0.0
C36 C 0.23876 0.36512 0.03487 0.0
C37 C 0.17583 0.32593 0.9855 0.0
C38 C 0.16458 0.34915 0.01475 0.0
C39 C 0.21981 0.32158 0.98168 0.0
C40 C 0.25159 0.342 0.00636 0.0
H41 H 1.02545 0.34839 0.97967 0.0
H42 H 1.0765 0.30679 0.94572 0.0
H43 H 0.1511 0.29098 0.9383 0.0
O44 O 0.21963 0.45924 0.10356 0.0
O45 O 0.18086 0.32989 0.073 0.0
O46 O 0.12444 0.2835 0.08933 0.0
O47 O 0.17697 0.4531 0.06443 0.0
O48 O 0.23283 0.38751 0.10606 0.0
O49 O 0.21357 0.32338 0.12591 0.0
O50 O 0.10489 0.25759 0.15254 0.0
O51 O 0.17994 0.38461 0.15543 0.0
O52 O 0.14383 0.42133 0.12995 0.0
O53 O 0.17106 0.25719 0.13862 0.0
O54 O 0.0869 0.31633 0.10817 0.0
O55 O 0.10186 0.39046 0.10443 0.0
C56 C 0.1494 0.29268 0.06726 0.0
C57 C 0.19975 0.52686 0.09883 0.0
C58 C 0.19257 0.60103 0.09284 0.0
C59 C 0.18873 0.61616 0.12483 0.0
C60 C 0.19546 0.54268 0.13072 0.0
C61 C 0.19005 0.58709 0.14355 0.0
C62 C 0.19787 0.55611 0.07996 0.0
C63 C 0.2441 0.35536 0.11752 0.0
C64 C 0.20708 0.48048 0.08497 0.0
C65 C 0.10081 0.31829 0.96516 0.0
C66 C 0.14331 0.30936 0.96091 0.0
C67 C 0.1629 0.41946 0.15521 0.0
C68 C 0.146 0.22068 0.178 0.0
C69 C 0.12448 0.2061 0.22745 0.0
C70 C 0.15752 0.1811 0.22601 0.0
C71 C 0.17903 0.19584 0.17722 0.0
C72 C 0.11923 0.22632 0.20357 0.0
C73 C 0.18489 0.17647 0.2012 0.0
C74 C 1.07266 0.35236 0.10526 0.0
C75 C 0.13726 0.23694 0.15096 0.0
H76 H 0.18435 0.65043 0.13534 0.0
H77 H 0.19663 0.52098 0.1458 0.0
H78 H 0.18717 0.59913 0.16814 0.0
H79 H 0.20146 0.54421 0.05538 0.0
H80 H 0.16229 0.16538 0.24418 0.0
H81 H 0.19981 0.19073 0.15779 0.0
H82 H 0.09326 0.24503 0.20452 0.0
H83 H 0.21033 0.1572 0.20031 0.0
Tb84 Tb 0.45838 0.22998 0.61389 0.0
C85 C 0.32157 0.09567 0.49882 0.0
N86 N 0.36611 0.10755 0.50492 0.0
C87 C 0.37109 1.03099 0.47797 0.0
C88 C 0.29954 1.05066 0.48279 0.0
C89 C 0.39131 0.07632 0.49354 0.0
C90 C 0.32486 1.01788 0.47298 0.0
C91 C 0.25298 0.1206 0.49822 0.0
C92 C 0.29886 0.12986 0.50636 0.0
C93 C 0.23007 0.07543 0.48382 0.0
C94 C 0.25337 1.04045 0.47605 0.0
Tb95 Tb 0.39689 0.18187 0.53261 0.0
N96 N 0.32267 0.17298 0.51942 0.0
C97 C 0.23197 0.15719 0.50376 0.0
C98 C 0.30281 0.20917 0.5228 0.0
C99 C 0.2572 0.20178 0.51573 0.0
H100 H 0.42719 0.08639 0.49701 0.0
H101 H 0.24163 0.23059 0.51944 0.0
H102 H 0.4053 0.17501 0.66238 0.0
H103 H 0.55124 0.4048 0.63499 0.0
H104 H 0.32164 0.24395 0.53154 0.0
H105 H 0.19673 0.15149 0.49799 0.0
H106 H 0.52982 0.32245 0.60699 0.0
H107 H 0.39119 1.00629 0.46972 0.0
H108 H 0.1947 0.06749 0.47781 0.0
H109 H 0.23568 1.00601 0.46401 0.0
H110 H 0.37181 0.19536 0.71243 0.0
H111 H 0.30927 0.98288 0.46066 0.0
H112 H 0.51659 0.43399 0.68359 0.0
N113 N 0.42993 0.24426 0.66158 0.0
C114 C 0.43709 0.28889 0.67784 0.0
C115 C 0.38977 0.22207 0.70284 0.0
C116 C 0.41959 0.30218 0.70687 0.0
C117 C 0.40856 0.21068 0.67435 0.0
C118 C 0.3947 0.26809 0.71897 0.0
N119 N 0.48272 0.30584 0.63898 0.0
C120 C 0.51465 0.33498 0.62819 0.0
C121 C 0.47625 0.36732 0.68314 0.0
C122 C 0.46492 0.32087 0.66625 0.0
C123 C 0.50706 0.39794 0.67137 0.0
C124 C 0.52675 0.38157 0.64396 0.0
H125 H 0.38051 0.27682 0.74117 0.0
H126 H 0.41542 0.3598 0.7455 0.0
H127 H 0.46508 0.41696 0.72464 0.0
O128 O 0.50663 0.1902 0.60412 0.0
O129 O 0.43374 0.28507 0.60069 0.0
O130 O 0.39542 0.2568 0.55258 0.0
O131 O 0.50941 0.24094 0.64751 0.0
O132 O 0.48968 0.24403 0.57261 0.0
O133 O 0.464 0.17415 0.54135 0.0
O134 O 0.40651 0.16574 0.48554 0.0
O135 O 0.41279 0.12636 0.55191 0.0
O136 O 0.42281 0.15601 0.60489 0.0
O137 O 0.43147 0.23438 0.51355 0.0
O138 O 0.35233 0.19964 0.57009 0.0
O139 O 0.38966 0.19413 0.61285 0.0
C140 C 0.41057 0.29105 0.57785 0.0
C141 C 0.52408 0.17135 0.64984 0.0
C142 C 0.52848 0.15639 0.70006 0.0
C143 C 0.51072 0.10963 0.68644 0.0
C144 C 0.50758 0.12418 0.6363 0.0
C145 C 0.50102 0.09356 0.65458 0.0
C146 C 0.53575 0.18686 0.68163 0.0
C147 C 0.49627 0.21066 0.54964 0.0
C148 C 0.52364 0.20543 0.63246 0.0
C149 C 0.4289 0.34877 0.72327 0.0
C150 C 0.45723 0.38131 0.71142 0.0
C151 C 0.41483 0.12019 0.57995 0.0
C152 C 0.4008 0.224 0.463 0.0
C153 C 0.33824 0.21036 0.42597 0.0
C154 C 0.35678 0.25184 0.41916 0.0
C155 C 0.41956 0.26503 0.45573 0.0
C156 C 0.36007 0.19739 0.44819 0.0
C157 C 0.39744 0.27894 0.43396 0.0
C158 C 0.35419 0.19799 0.59895 0.0
C159 C 0.42306 0.20782 0.48553 0.0
H160 H 0.50505 0.08557 0.70035 0.0
H161 H 0.49857 0.11104 0.61182 0.0
H162 H 0.48771 0.0574 0.64409 0.0
H163 H 0.5487 0.22312 0.69237 0.0
H164 H 0.33994 0.26315 0.40255 0.0
H165 H 0.45101 0.28623 0.46689 0.0
H166 H 0.34446 0.16642 0.45437 0.0
H167 H 0.41181 0.31083 0.42859 0.0
Tb168 Tb 0.64706 0.31479 0.14307 0.0
C169 C 0.7586 0.41926 0.06211 0.0
N170 N 0.74296 0.43779 0.08955 0.0
C171 C 0.81319 0.49157 0.10476 0.0
C172 C 0.80299 0.43454 0.05544 0.0
C173 C 0.76884 0.47512 0.11029 0.0
C174 C 0.83056 0.47067 0.07743 0.0
C175 C 0.74223 0.37071 0.0099 0.0
C176 C 0.72871 0.38792 0.03977 0.0
C177 C 0.78726 0.38283 0.00377 0.0
C178 C 0.81762 0.41483 0.02652 0.0
Tb179 Tb 0.67069 0.40655 0.09696 0.0
N180 N 0.68537 0.37867 0.04636 0.0
C181 C 0.70967 0.34427 0.9867 0.0
C182 C 0.6532 0.35766 0.02299 0.0
C183 C 0.66483 0.33875 -0.00689 0.0
H184 H 0.75583 0.49051 0.13176 0.0
H185 H 0.63921 0.32045 0.97499 0.0
H186 H 0.59917 0.36709 0.2037 0.0
H187 H 0.73797 0.18212 0.12975 0.0
H188 H 0.61846 0.35479 0.02757 0.0
H189 H 0.71862 0.33024 0.96345 0.0
H190 H 0.69276 0.22813 0.11201 0.0
H191 H 0.834 0.52013 0.12163 0.0
H192 H 0.79847 0.36943 0.9811 0.0
H193 H 0.85182 0.42551 0.02109 0.0
H194 H 0.60453 0.37953 0.26027 0.0
H195 H 0.8648 0.48369 0.07309 0.0
H196 H 0.75572 0.19599 0.1856 0.0
N197 N 0.64778 0.32691 0.19545 0.0
C198 C 0.6742 0.30575 0.2078 0.0
C199 C 0.62449 0.35887 0.24577 0.0
C200 C 0.6779 0.31124 0.23983 0.0
C201 C 0.62154 0.35177 0.21375 0.0
C202 C 0.65313 0.33887 0.25891 0.0
N203 N 0.68689 0.26893 0.15722 0.0
C204 C 0.70097 0.23492 0.13637 0.0
C205 C 0.71981 0.24998 0.19917 0.0
C206 C 0.6947 0.27566 0.18787 0.0
C207 C 0.7365 0.21673 0.1779 0.0
C208 C 0.72642 0.2087 0.14635 0.0
H209 H 0.65499 0.34402 0.28367 0.0
H210 H 0.70837 0.2916 0.27609 0.0
H211 H 0.74501 0.2377 0.2404 0.0
O212 O 0.60439 0.259 0.15331 0.0
O213 O 0.67881 0.38173 0.17394 0.0
O214 O 0.68356 0.43759 0.14738 0.0
O215 O 0.58837 0.28159 0.11439 0.0
O216 O 0.71381 0.32056 0.12336 0.0
O217 O 0.73227 0.39395 0.11745 0.0
O218 O 0.64178 0.4627 0.11481 0.0
O219 O 0.63343 0.3351 0.07599 0.0
O220 O 0.66996 0.2937 0.09675 0.0
O221 O 0.66333 0.44929 0.06875 0.0
O222 O 0.59885 0.37466 0.0992 0.0
O223 O 0.60281 0.36406 0.14706 0.0
C224 C 0.68826 0.42466 0.1728 0.0
C225 C 0.57122 0.20137 0.10857 0.0
C226 C 0.57857 0.12259 0.10173 0.0
C227 C 0.55884 0.11037 0.07172 0.0
C228 C 0.5508 0.18846 0.07868 0.0
C229 C 0.54496 0.14326 0.06033 0.0
C230 C 0.58484 0.16813 0.11974 0.0
C231 C 0.74404 0.35627 0.11976 0.0
C232 C 0.57905 0.24918 0.1282 0.0
C233 C 0.70473 0.28756 0.25151 0.0
C234 C 0.72565 0.25692 0.23119 0.0
C235 C 0.64997 0.29864 0.07277 0.0
C236 C 0.66554 0.52651 0.09437 0.0
C237 C 0.66812 0.5959 0.07771 0.0
C238 C 0.69834 0.62088 0.10296 0.0
C239 C 0.69519 0.55242 0.1196 0.0
C240 C 0.65231 0.54837 0.07333 0.0
C241 C 0.71177 0.59921 0.12364 0.0
C242 C 0.57882 0.36938 0.12437 0.0
C243 C 0.64704 0.47711 0.09012 0.0
H244 H 0.5542 0.07562 0.0572 0.0
H245 H 0.53976 0.21332 0.06943 0.0
H246 H 0.52978 0.13374 0.03715 0.0
H247 H 0.60159 0.17797 0.14248 0.0
H248 H 0.7116 0.65731 0.10674 0.0
H249 H 0.7052 0.53666 0.13637 0.0
H250 H 0.62875 0.52865 0.05413 0.0
H251 H 0.73477 0.6189 0.1431 0.0
Tb252 Tb 0.36984 0.68338 0.54372 0.0
C253 C 0.32797 0.76471 0.68131 0.0
N254 N 0.33186 0.72209 0.66573 0.0
C255 C 0.36187 0.71196 0.71185 0.0
C256 C 0.34255 0.78348 0.71266 0.0
C257 C 0.34687 0.69487 0.68076 0.0
C258 C 0.36064 0.75684 0.72771 0.0
C259 C 0.29441 0.82873 0.68305 0.0
C260 C 0.30439 0.78704 0.66672 0.0
C261 C 0.31181 0.84942 0.71361 0.0
C262 C 0.3359 0.82682 0.72841 0.0
Tb263 Tb 0.30662 0.69743 0.61513 0.0
N264 N 0.28701 0.76515 0.63755 0.0
C265 C 0.26532 0.84696 0.66874 0.0
C266 C 0.25533 0.78057 0.62463 0.0
C267 C 0.24505 0.82232 0.63963 0.0
H268 H 0.34735 0.65996 0.66875 0.0
H269 H 0.22123 0.83527 0.62885 0.0
H270 H 0.40546 0.76814 0.51157 0.0
H271 H 0.22038 0.5427 0.51398 0.0
H272 H 0.23931 0.76128 0.60227 0.0
H273 H 0.25681 0.87895 0.68048 0.0
H274 H 0.2796 0.59618 0.54899 0.0
H275 H 0.37394 0.69034 0.72362 0.0
H276 H 0.30508 0.8818 0.72645 0.0
H277 H 0.34736 0.84212 0.75242 0.0
H278 H 0.38998 0.78627 0.46296 0.0
H279 H 0.37184 0.7698 0.75189 0.0
H280 H 0.20958 0.5489 0.4612 0.0
N281 N 0.35912 0.70359 0.49965 0.0
C282 C 0.3269 0.67383 0.47895 0.0
C283 C 0.37223 0.75448 0.4671 0.0
C284 C 0.3173 0.68285 0.45085 0.0
C285 C 0.3806 0.74436 0.49468 0.0
C286 C 0.34088 0.72334 0.44492 0.0
N287 N 0.30831 0.63073 0.51573 0.0
C288 C 0.2784 0.59838 0.5256 0.0
C289 C 0.26551 0.60677 0.46663 0.0
C290 C 0.30112 0.6361 0.48702 0.0
C291 C 0.23733 0.57189 0.47615 0.0
C292 C 0.24339 0.56822 0.5059 0.0
H293 H 0.33429 0.73145 0.42364 0.0
H294 H 0.2758 0.65848 0.4083 0.0
H295 H 0.23064 0.59191 0.42203 0.0
O296 O 0.42282 0.65096 0.54468 0.0
O297 O 0.3113 0.71214 0.54004 0.0
O298 O 0.26535 0.68153 0.57213 0.0
O299 O 0.41422 0.68001 0.50785 0.0
O300 O 0.35594 0.61803 0.55816 0.0
O301 O 0.34031 0.63807 0.60939 0.0
O302 O 0.25435 0.69143 0.64409 0.0
O303 O 0.37537 0.69376 0.62225 0.0
O304 O 0.40971 0.72747 0.58682 0.0
O305 O 0.25768 0.6352 0.60472 0.0
O306 O 0.32945 0.76393 0.6008 0.0
O307 O 0.38335 0.75933 0.56476 0.0
C308 C 0.27126 0.70059 0.54937 0.0
C309 C 0.42869 0.60578 0.4949 0.0
C310 C 0.44782 0.53092 0.4831 0.0
C311 C 0.41266 0.5135 0.46026 0.0
C312 C 0.39514 0.588 0.47095 0.0
C313 C 0.38688 0.5421 0.45405 0.0
C314 C 0.45532 0.57731 0.50041 0.0
C315 C 0.35077 0.6078 0.58489 0.0
C316 C 0.43251 0.65156 0.51672 0.0
C317 C 0.28336 0.65229 0.4301 0.0
C318 C 0.25765 0.61434 0.43793 0.0
C319 C 0.40913 0.72148 0.61485 0.0
C320 C 0.22402 0.61941 0.64982 0.0
C321 C 0.18319 0.61044 0.69482 0.0
C322 C 0.20747 0.57887 0.69867 0.0
C323 C 0.24795 0.58744 0.65346 0.0
C324 C 0.19082 0.62938 0.66986 0.0
C325 C 0.23903 0.56666 0.67758 0.0
C326 C 0.35917 0.78385 0.58391 0.0
C327 C 0.23691 0.64921 0.62942 0.0
H328 H 0.40542 0.47798 0.44687 0.0
H329 H 0.37485 0.6092 0.46542 0.0
H330 H 0.36036 0.52865 0.43606 0.0
H331 H 0.48225 0.59195 0.51808 0.0
H332 H 0.2027 0.56457 0.71823 0.0
H333 H 0.27432 0.57982 0.63851 0.0
H334 H 0.17354 0.6554 0.66767 0.0
H335 H 0.25793 0.54252 0.68069 0.0
Tb336 Tb 0.60192 0.91082 0.88537 0.0
C337 C 0.62752 0.99064 0.76033 0.0
N338 N 0.64932 0.97299 0.77861 0.0
C339 C 0.68473 0.93627 0.73458 0.0
C340 C 0.63237 0.98096 0.72828 0.0
C341 C 0.67883 0.94711 0.7663 0.0
C342 C 0.66107 0.95291 0.7154 0.0
C343 C 0.5778 1.03929 0.75653 0.0
C344 C 0.60082 1.01909 0.7741 0.0
C345 C 0.58164 1.02929 0.72446 0.0
C346 C 0.60888 1.00008 0.71033 0.0
Tb347 Tb 0.63604 0.9905 0.83018 0.0
N348 N 0.59805 1.02749 0.805 0.0
C349 C 0.55199 0.06908 0.77177 0.0
C350 C 0.57433 0.05808 0.82018 0.0
C351 C 0.55054 0.07882 0.8038 0.0
H352 H 0.69788 0.93435 0.78069 0.0
H353 H 0.53093 0.10207 0.81588 0.0
H354 H 0.51383 0.82775 0.85803 0.0
H355 H 0.65525 1.00152 0.00425 0.0
H356 H 0.57325 0.06626 0.84496 0.0
H357 H 0.53342 0.08488 0.75906 0.0
H358 H 0.66586 0.96759 0.94926 0.0
H359 H 0.70767 0.91521 0.72496 0.0
H360 H 0.56412 1.0443 0.71048 0.0
H361 H 0.61197 0.99294 0.68563 0.0
H362 H 0.43845 0.80048 0.87434 0.0
H363 H 0.66576 0.94455 0.69087 0.0
H364 H 0.57961 0.99152 0.02352 0.0
N365 N 0.53323 0.88109 0.89948 0.0
C366 C 0.52252 0.90047 0.9283 0.0
C367 C 0.46171 0.82888 0.88969 0.0
C368 C 0.48023 0.88611 0.93876 0.0
C369 C 0.5043 0.84439 0.8805 0.0
C370 C 0.44932 0.85037 0.91877 0.0
N371 N 0.59668 0.94053 0.93731 0.0
C372 C 0.63265 0.96339 0.95744 0.0
C373 C 0.54787 0.94993 0.97919 0.0
C374 C 0.55562 0.93176 0.94803 0.0
C375 C 0.58402 0.9769 -0.00064 0.0
C376 C 0.62678 0.98265 0.98857 0.0
H377 H 0.4164 0.83822 0.92589 0.0
H378 H 0.43857 0.89647 0.97761 0.0
H379 H 0.49804 0.95248 0.01316 0.0
O380 O 0.62684 0.85315 0.86278 0.0
O381 O 0.63218 0.98477 0.90347 0.0
O382 O 0.60212 1.01665 0.87127 0.0
O383 O 0.61565 0.8683 0.91138 0.0
O384 O 0.67395 0.94247 0.88413 0.0
O385 O 0.68209 0.9459 0.83426 0.0
O386 O 0.6827 1.04741 0.82405 0.0
O387 O 0.628 0.91661 0.81252 0.0
O388 O 0.5725 0.88227 0.83711 0.0
O389 O 0.68501 1.02724 0.86598 0.0
O390 O 0.56155 0.97518 0.8359 0.0
O391 O 0.54087 0.92772 0.86888 0.0
C392 C 0.61278 1.01657 0.89936 0.0
C393 C 0.60887 0.79059 0.88621 0.0
C394 C 0.59864 0.72944 0.9124 0.0
C395 C 0.57613 0.6984 0.88541 0.0
C396 C 0.58595 0.75911 0.85961 0.0
C397 C 0.56985 0.71323 0.85928 0.0
C398 C 0.61526 0.7754 0.91235 0.0
C399 C 0.69858 0.94087 0.85994 0.0
C400 C 0.62692 0.83939 0.88784 0.0
C401 C 0.47108 0.90648 0.96918 0.0
C402 C 0.50492 0.93842 0.9894 0.0
C403 C 0.59005 0.88727 0.81124 0.0
C404 C 0.70289 0.10603 0.87088 0.0
C405 C 0.67634 0.17635 0.88091 0.0
C406 C 0.70634 0.19608 0.90672 0.0
C407 C 0.7327 0.12568 0.89693 0.0
C408 C 0.67489 0.13165 0.86318 0.0
C409 C 0.73455 0.17064 0.91463 0.0
C410 C 0.5307 0.95182 0.85047 0.0
C411 C 0.70015 0.05867 0.85222 0.0
H412 H 0.56262 0.66288 0.88468 0.0
H413 H 0.58044 0.76985 0.8392 0.0
H414 H 0.55214 0.68909 0.83871 0.0
H415 H 0.63353 0.79961 0.93275 0.0
H416 H 0.70841 0.231 0.92026 0.0
H417 H 0.75462 0.10641 0.90345 0.0
H418 H 0.65246 0.1174 0.84277 0.0
H419 H 0.75827 0.18592 0.93429 0.0
Tb420 Tb 0.94198 0.66021 0.36637 0.0
C421 C 0.93307 0.66267 0.50181 0.0
N422 N 0.90797 0.63079 0.47776 0.0
C423 C 0.9104 0.57163 0.50241 0.0
C424 C 0.94683 0.65024 0.52759 0.0
C425 C 0.89741 0.58548 0.47734 0.0
C426 C 0.93467 0.60422 0.52783 0.0
C427 C 0.97836 0.73952 0.52224 0.0
C428 C 0.94867 0.70687 0.499 0.0
C429 C 0.98962 0.72811 0.54894 0.0
C430 C 0.9738 0.68362 0.55165 0.0
Tb431 Tb 0.88387 0.65894 0.4404 0.0
N432 N 0.93845 0.71618 0.47216 0.0
C433 C 0.99747 0.78203 0.51745 0.0
C434 C 0.95933 0.75704 0.46693 0.0
C435 C 0.98851 0.79045 0.48948 0.0
H436 H 0.87746 0.56029 0.45822 0.0
H437 H 1.00458 0.8226 0.48507 0.0
H438 H 0.8781 0.6716 0.31084 0.0
H439 H 1.06143 0.55473 0.35898 0.0
H440 H 0.95552 0.76431 0.44521 0.0
H441 H 1.02053 0.80789 0.53469 0.0
H442 H 1.02893 0.62125 0.38166 0.0
H443 H 0.90138 0.53589 0.50222 0.0
H444 H 1.01196 0.75296 0.56713 0.0
H445 H 0.98421 0.67487 0.57185 0.0
H446 H 0.8461 0.6253 0.25887 0.0
H447 H 0.94482 0.59332 0.54717 0.0
H448 H 1.02699 0.49783 0.31066 0.0
N449 N 0.91226 0.62216 0.31761 0.0
C450 C 0.92494 0.58255 0.30456 0.0
C451 C 0.86797 0.61271 0.27158 0.0
C452 C 0.90856 0.55566 0.27466 0.0
C453 C 0.88576 0.63859 0.30111 0.0
C454 C 0.87886 0.57072 0.25846 0.0
N455 N 0.97496 0.60022 0.34781 0.0
C456 C 1.01323 0.59604 0.361 0.0
C457 C 0.97533 0.53324 0.30606 0.0
C458 C 0.95775 0.57139 0.32006 0.0
C459 C 1.01225 0.52652 0.3208 0.0
C460 C 1.03181 0.55859 0.34808 0.0
H461 H 0.86534 0.55096 0.23548 0.0
H462 H 0.9111 0.49429 0.23865 0.0
H463 H 0.96947 0.47454 0.26625 0.0
O464 O 0.97685 0.68014 0.33018 0.0
O465 O 0.87179 0.66001 0.36374 0.0
O466 O 0.84099 0.61988 0.39714 0.0
O467 O 0.9958 0.71734 0.37755 0.0
O468 O 0.93274 0.59395 0.38227 0.0
O469 O 0.87056 0.58779 0.41061 0.0
O470 O 0.83859 0.6988 0.46025 0.0
O471 O 0.95142 0.64431 0.44076 0.0
O472 O 0.98012 0.68871 0.41053 0.0
O473 O 0.83927 0.63591 0.4708 0.0
O474 O 0.88435 0.72325 0.42618 0.0
O475 O 0.90728 0.71937 0.37671 0.0
C476 C 0.84026 0.62885 0.37 0.0
C477 C 1.05366 0.71245 0.34409 0.0
C478 C 0.11224 0.67453 0.32204 0.0
C479 C 0.14424 0.71429 0.33702 0.0
C480 C 0.08608 0.75171 0.35881 0.0
C481 C 0.13113 0.75253 0.35531 0.0
C482 C 1.06691 0.67401 0.32577 0.0
C483 C 0.90032 0.56847 0.39446 0.0
C484 C 1.00644 0.7119 0.34909 0.0
C485 C 0.92371 0.51576 0.26145 0.0
C486 C 0.95695 0.50449 0.27718 0.0
C487 C 0.98654 0.6658 0.42991 0.0
C488 C 0.77259 0.66124 0.47859 0.0
C489 C 0.70541 0.61262 0.49016 0.0
C490 C 0.68375 0.64889 0.49405 0.0
C491 C 0.75057 0.69721 0.48251 0.0
C492 C 0.74953 0.61869 0.48206 0.0
C493 C 0.70621 0.69086 0.48999 0.0
C494 C 0.89224 0.74207 0.40271 0.0
C495 C 0.82088 0.6704 0.4758 0.0
H496 H 0.17938 0.71625 0.33421 0.0
H497 H 1.07652 0.78164 0.3732 0.0
H498 H 0.15597 0.78298 0.36671 0.0
H499 H 1.04194 0.64349 0.31471 0.0
H500 H 0.64929 0.64451 0.49987 0.0
H501 H 0.76799 0.73056 0.48058 0.0
H502 H 0.76608 0.59067 0.47954 0.0
H503 H 0.6894 0.7187 0.49307 0.0
Tb504 Tb 0.11083 0.96826 0.8207 0.0
C505 C 0.15356 1.01666 0.95777 0.0
N506 N 0.17055 0.98849 0.93473 0.0
C507 C 0.24459 1.02586 0.95674 0.0
C508 C 0.18155 1.05073 0.98126 0.0
C509 C 0.21551 0.99202 0.93433 0.0
C510 C 0.22758 1.05553 0.98025 0.0
C511 C 0.08883 1.03721 0.98275 0.0
C512 C 0.10788 1.0107 0.95802 0.0
C513 C 0.11654 0.07124 0.00618 0.0
C514 C 0.16278 0.07843 0.0052 0.0
Tb515 Tb 0.11993 0.93436 0.89917 0.0
N516 N 0.08217 0.9771 0.93511 0.0
C517 C 1.04256 1.02753 0.98385 0.0
C518 C 1.03727 0.96531 0.93773 0.0
C519 C 1.01671 0.99109 0.9614 0.0
H520 H 0.22938 0.96855 0.91715 0.0
H521 H 0.98104 0.98178 0.96289 0.0
H522 H 1.02474 1.0104 0.8085 0.0
H523 H 0.1838 0.83879 0.74594 0.0
H524 H 1.01705 0.93469 0.92275 0.0
H525 H 1.0266 1.04675 0.00258 0.0
H526 H 0.18346 0.9044 0.79046 0.0
H527 H 0.28012 1.02862 0.95606 0.0
H528 H 0.10256 0.09176 0.02544 0.0
H529 H 0.18371 0.10483 0.02341 0.0
H530 H 0.95983 0.98775 0.77083 0.0
H531 H 0.25016 0.08146 -0.00225 0.0
H532 H 0.11823 0.80622 0.70888 0.0
N533 N 1.05056 0.95245 0.78725 0.0
C534 C 1.04721 0.91494 0.7628 0.0
C535 C 0.98366 0.96649 0.76874 0.0
C536 C 1.01089 0.90084 0.74081 0.0
C537 C 1.02024 0.97909 0.79005 0.0
C538 C 0.9785 0.92676 0.74435 0.0
N539 N 0.11739 0.90843 0.77979 0.0
C540 C 0.15445 0.89077 0.77476 0.0
C541 C 0.081 0.85517 0.7327 0.0
C542 C 0.08201 0.89257 0.75868 0.0
C543 C 0.11776 0.83514 0.72849 0.0
C544 C 0.15485 0.85344 0.74938 0.0
H545 H 0.95022 0.91727 0.72782 0.0
H546 H 0.98104 0.85082 0.69851 0.0
H547 H 1.04227 0.81067 0.69152 0.0
O548 O 0.1632 1.02551 0.82151 0.0
O549 O 0.0873 0.89566 0.82041 0.0
O550 O 0.12868 0.88287 0.85834 0.0
O551 O 0.11441 0.99738 0.78349 0.0
O552 O 0.179 0.96487 0.83575 0.0
O553 O 0.18074 0.92598 0.87342 0.0
O554 O 0.08012 0.88165 0.91484 0.0
O555 O 0.14742 1.00063 0.89103 0.0
O556 O 0.09888 1.01931 0.86216 0.0
O557 O 0.14917 0.90577 0.92948 0.0
O558 O 1.05125 0.92147 0.87561 0.0
O559 O 1.05111 0.97457 0.84772 0.0
C560 C 0.10513 0.86862 0.83215 0.0
C561 C 0.14782 0.07499 0.79241 0.0
C562 C 0.16708 0.13295 0.76362 0.0
C563 C 0.13645 0.15596 0.78054 0.0
C564 C 0.11829 0.099 0.80912 0.0
C565 C 0.11288 0.13943 0.80327 0.0
C566 C 0.1726 0.09231 0.77013 0.0
C567 C 0.20077 0.94656 0.85299 0.0
C568 C 0.14934 1.02921 0.79513 0.0
C569 C 1.00891 0.86245 0.71551 0.0
C570 C 1.04384 0.83963 0.71149 0.0
C571 C 0.12326 1.02885 0.88787 0.0
C572 C 0.11792 0.82744 0.92374 0.0
C573 C 0.13711 0.76645 0.94263 0.0
C574 C 0.12746 0.73687 0.9126 0.0
C575 C 0.10774 0.7969 0.89423 0.0
C576 C 0.13236 0.81203 0.94789 0.0
C577 C 0.11265 0.752 0.88873 0.0
C578 C 1.02955 0.94546 0.86254 0.0
C579 C 0.11317 0.87518 0.9297 0.0
H580 H 0.12963 0.18632 0.77592 0.0
H581 H 0.0986 0.08582 0.82605 0.0
H582 H 0.08947 0.15752 0.8159 0.0
H583 H 0.19567 0.07349 0.75773 0.0
H584 H 0.13158 0.70201 0.90742 0.0
H585 H 0.09564 0.8076 0.87547 0.0
H586 H 0.13908 0.83541 0.97082 0.0
H587 H 0.10478 0.72878 0.86585 0.0
Tb588 Tb 0.87891 0.16987 0.45291 0.0
C589 C 0.76674 1.03262 0.334 0.0
N590 N 0.8046 0.06509 0.33612 0.0
C591 C 0.82693 1.02163 0.28872 0.0
C592 C 0.75652 0.99368 0.30843 0.0
C593 C 0.83559 0.05945 0.3147 0.0
C594 C 0.78683 0.98893 0.2853 0.0
C595 C 0.70307 1.00135 0.35902 0.0
C596 C 0.74032 1.03698 0.3588 0.0
C597 C 0.69066 0.96397 0.33271 0.0
C598 C 0.71739 0.96013 0.30742 0.0
Tb599 Tb 0.81332 0.12937 0.37596 0.0
N600 N 0.7546 0.07299 0.38414 0.0
C601 C 0.6815 1.00261 0.38637 0.0
C602 C 0.73779 0.06969 0.41186 0.0
C603 C 0.69997 1.03606 0.41319 0.0
H604 H 0.86635 0.08506 0.31723 0.0
H605 H 0.68603 1.03509 0.43512 0.0
H606 H 0.80955 0.09911 0.48582 0.0
H607 H 0.98789 0.33462 0.50233 0.0
H608 H 0.75385 0.09121 0.43339 0.0
H609 H 0.65285 0.97596 0.38759 0.0
H610 H 0.96079 0.26082 0.46262 0.0
H611 H 0.85104 1.01787 0.27133 0.0
H612 H 0.66177 0.93671 0.33232 0.0
H613 H 0.70854 0.93019 0.28781 0.0
H614 H 0.77442 0.10455 0.53523 0.0
H615 H 0.78022 0.95953 0.26524 0.0
H616 H 0.9517 0.35015 0.55194 0.0
N617 N 0.84667 0.16847 0.49865 0.0
C618 C 0.85764 0.20814 0.52154 0.0
C619 C 0.79775 0.13401 0.53166 0.0
C620 C 0.83836 0.21278 0.55024 0.0
C621 C 0.81805 0.131 0.50363 0.0
C622 C 0.80758 0.1752 0.55496 0.0
N623 N 0.9089 0.23643 0.48907 0.0
C624 C 0.94458 0.26782 0.48408 0.0
C625 C 0.90439 0.28456 0.53998 0.0
C626 C 0.88987 0.2435 0.51649 0.0
C627 C 0.93951 0.31807 0.5345 0.0
C628 C 0.96007 0.3094 0.50654 0.0
H629 H 0.79189 0.17735 0.57666 0.0
H630 H 0.83651 0.25875 0.59555 0.0
H631 H 0.89456 0.32163 0.5866 0.0
O632 O 0.92256 0.12868 0.43373 0.0
O633 O 0.87811 0.23062 0.43516 0.0
O634 O 0.82277 0.20701 0.39553 0.0
O635 O 0.92978 0.16539 0.48259 0.0
O636 O 0.91296 0.19504 0.41598 0.0
O637 O 0.88408 0.1311 0.37833 0.0
O638 O 0.77273 0.12682 0.33735 0.0
O639 O 0.84752 0.07685 0.38543 0.0
O640 O 0.84056 0.09661 0.43689 0.0
O641 O 0.83917 0.16933 0.34658 0.0
O642 O 0.77036 0.15902 0.41162 0.0
O643 O 0.80964 0.17465 0.45895 0.0
C644 C 0.85234 0.24047 0.41522 0.0
C645 C 0.97017 0.10633 0.4648 0.0
C646 C 1.03898 0.08065 0.45517 0.0
C647 C 1.02781 1.05342 0.47573 0.0
C648 C 0.95907 0.07973 0.48554 0.0
C649 C 0.98762 1.05251 0.49047 0.0
C650 C 1.00855 0.10479 0.44879 0.0
C651 C 0.9136 0.1696 0.38779 0.0
C652 C 0.94571 0.1391 0.45973 0.0
C653 C 0.85119 0.25434 0.5734 0.0
C654 C 0.88421 0.29017 0.5683 0.0
C655 C 0.84638 0.06514 0.41168 0.0
C656 C 0.81369 0.13952 0.29404 0.0
C657 C 0.7875 0.10243 0.24002 0.0
C658 C 0.83071 0.1178 0.23122 0.0
C659 C 0.85643 0.15445 0.28444 0.0
C660 C 0.77957 0.113 0.27172 0.0
C661 C 0.8648 0.14326 0.25329 0.0
C662 C 0.77435 0.17394 0.4422 0.0
C663 C 0.80452 0.15337 0.32711 0.0
H664 H 1.05057 1.03424 0.48122 0.0
H665 H 0.92904 0.08036 0.49793 0.0
H666 H 0.97935 1.0319 0.50651 0.0
H667 H 1.01578 0.12464 0.43212 0.0
H668 H 0.83808 0.11187 0.20718 0.0
H669 H 0.88346 0.17512 0.30095 0.0
H670 H 0.74677 0.10121 0.27911 0.0
H671 H 0.89761 0.15547 0.24611 0.0
H672 H 0.94876 0.11488 0.34018 0.0
H673 H 0.95553 0.2567 0.38866 0.0
H674 H 1.00916 0.28179 0.35263 0.0
H675 H 1.06693 0.13239 0.32739 0.0
H676 H 1.05879 0.09087 0.29018 0.0
H677 H 1.01975 0.08421 0.31926 0.0
H678 H 0.95483 0.08148 0.28155 0.0
H679 H 0.99389 0.08737 0.25236 0.0
H680 H 0.95863 0.1273 0.26346 0.0
H681 H 1.05889 0.29126 0.30922 0.0
H682 H 0.10767 0.28444 0.26531 0.0
H683 H 1.07393 0.13663 0.2478 0.0
C684 C 0.96154 0.15119 0.34314 0.0
C685 C 0.9476 0.18402 0.36704 0.0
C686 C 0.96562 0.23113 0.37052 0.0
C687 C 0.99603 0.24565 0.35006 0.0
C688 C 1.0089 0.21251 0.3266 0.0
C689 C 0.99288 0.16624 0.32338 0.0
C690 C 1.01375 0.13768 0.29713 0.0
C691 C 1.04145 0.10964 0.30922 0.0
C692 C 0.97814 0.10661 0.27216 0.0
C693 C 1.04323 0.17509 0.28566 0.0
C694 C 1.03964 0.21803 0.30281 0.0
C695 C 1.06239 0.25785 0.29585 0.0
C696 C 0.08985 0.2537 0.27087 0.0
C697 C 0.09482 0.21011 0.25348 0.0
C698 C 1.07117 0.1704 0.26105 0.0
H699 H 0.60976 0.20102 0.72714 0.0
H700 H 0.47452 0.14885 0.74746 0.0
H701 H 0.49727 0.17232 0.80326 0.0
H702 H 0.65733 0.15566 0.77484 0.0
H703 H 0.70642 0.20149 0.78605 0.0
H704 H 0.67677 0.19163 0.74982 0.0
H705 H 0.66883 0.27611 0.76556 0.0
H706 H 0.6978 0.28573 0.80234 0.0
H707 H 0.64329 0.29737 0.80079 0.0
H708 H 0.537 0.18504 0.85377 0.0
H709 H 0.59017 0.17739 0.89194 0.0
H710 H 0.69966 0.22442 0.84018 0.0
C711 C 0.5848 0.19611 0.74358 0.0
C712 C 0.54052 0.17366 0.73342 0.0
C713 C 0.50866 0.16627 0.75512 0.0
C714 C 0.52121 0.18 0.78678 0.0
C715 C 0.56567 0.2011 0.79617 0.0
C716 C 0.59696 0.20906 0.77509 0.0
C717 C 0.64361 0.22439 0.78999 0.0
C718 C 0.67268 0.19132 0.77427 0.0
C719 C 0.66461 0.27386 0.78965 0.0
C720 C 0.63411 0.22138 0.82241 0.0
C721 C 0.58883 0.20914 0.82583 0.0
C722 C 0.57238 0.1963 0.85186 0.0
C723 C 0.60274 0.19255 0.87368 0.0
C724 C 0.64877 0.20192 0.86928 0.0
C725 C 0.66466 0.21942 0.84458 0.0
H726 H 0.81249 0.53448 0.34378 0.0
H727 H 0.79277 0.66523 0.3367 0.0
H728 H 0.74981 0.62698 0.28695 0.0
H729 H 0.82673 0.48578 0.26419 0.0
H730 H 0.79692 0.4292 0.26396 0.0
H731 H 0.82394 0.46827 0.2994 0.0
H732 H 0.74677 0.4548 0.32409 0.0
H733 H 0.72206 0.41739 0.28753 0.0
H734 H 0.69954 0.46582 0.30622 0.0
H735 H 0.7177 0.57681 0.2347 0.0
H736 H 0.68994 0.51657 0.18656 0.0
H737 H 0.72594 0.41576 0.22667 0.0
C738 C 0.79754 0.55466 0.33232 0.0
C739 C 0.80528 0.603 0.34465 0.0
C740 C 0.78656 0.62826 0.32819 0.0
C741 C 0.76237 0.60679 0.29969 0.0
C742 C 0.75668 0.55958 0.28757 0.0
C743 C 0.77289 0.5335 0.30357 0.0
C744 C 0.76239 0.48328 0.28477 0.0
C745 C 0.80508 0.46566 0.27773 0.0
C746 C 0.73077 0.45359 0.30167 0.0
C747 C 0.73939 0.48571 0.25537 0.0
C748 C 0.73662 0.53017 0.25758 0.0
C749 C 0.71908 0.54175 0.23293 0.0
C750 C 0.70359 0.50718 0.20545 0.0
C751 C 0.70526 0.46103 0.20245 0.0
C752 C 0.72345 0.45043 0.22807 0.0
H753 H 0.21135 0.66158 0.75277 0.0
H754 H 0.09533 0.60988 0.68886 0.0
H755 H 1.05715 0.66507 0.72222 0.0
H756 H 0.15177 0.69348 0.82605 0.0
H757 H 0.1938 0.74537 0.8414 0.0
H758 H 0.20881 0.69543 0.8169 0.0
H759 H 0.24433 0.74178 0.77985 0.0
H760 H 0.23035 0.79239 0.8038 0.0
H761 H 0.21181 0.77247 0.76353 0.0
H762 H 1.03903 0.73628 0.75545 0.0
H763 H 1.03924 0.81335 0.78938 0.0
H764 H 0.1669 0.81836 0.8319 0.0
C765 C 0.17691 0.66008 0.74692 0.0
C766 C 0.1556 0.63077 0.71888 0.0
C767 C 0.1115 0.63134 0.71078 0.0
C768 C 0.08977 0.66275 0.72948 0.0
C769 C 0.11266 0.69319 0.75617 0.0
C770 C 0.15502 0.69158 0.76519 0.0
C771 C 0.17474 0.73185 0.7924 0.0
C772 C 0.18273 0.71558 0.82089 0.0
C773 C 0.21781 0.76133 0.78439 0.0
C774 C 0.13753 0.75708 0.7966 0.0
C775 C 0.10192 0.73425 0.77559 0.0
C776 C 1.06604 0.75375 0.77268 0.0
C777 C 1.06654 0.79759 0.79185 0.0
C778 C 0.10268 0.82127 0.81354 0.0
C779 C 0.13822 0.8004 0.81611 0.0
H780 H 0.30581 0.1219 0.61183 0.0
H781 H 0.31852 0.26798 0.6295 0.0
H782 H 0.26931 0.26702 0.67291 0.0
H783 H 0.1869 0.09333 0.63306 0.0
H784 H 0.19764 1.05013 0.65016 0.0
H785 H 0.22844 0.06196 0.61813 0.0
H786 H 0.30188 0.07643 0.65064 0.0
H787 H 0.2716 0.06612 0.68315 0.0
H788 H 0.31171 0.11939 0.68723 0.0
H789 H 0.22948 0.2518 0.71921 0.0
H790 H 0.19274 0.22281 0.76059 0.0
H791 H 0.19992 0.08446 0.71032 0.0
C792 C 0.29608 0.15311 0.62382 0.0
C793 C 0.31421 0.19474 0.61664 0.0
C794 C 0.30323 0.23555 0.63388 0.0
C795 C 0.27587 0.23534 0.65881 0.0
C796 C 0.2596 0.19392 0.66598 0.0
C797 C 0.26839 0.15332 0.64851 0.0
C798 C 0.24896 0.11398 0.6621 0.0
C799 C 0.21335 0.07771 0.63952 0.0
C800 C 0.28573 0.09276 0.67132 0.0
C801 C 0.2285 0.13888 0.69028 0.0
C802 C 0.2354 0.18499 0.69221 0.0
C803 C 0.2226 0.2155 0.71739 0.0
C804 C 0.20128 0.1984 0.74081 0.0
C805 C 0.19191 0.15082 0.73892 0.0
C806 C 0.2062 0.12095 0.71308 0.0
H807 H 0.56931 0.11155 0.1592 0.0
H808 H 0.62976 0.06322 0.07373 0.0
H809 H 0.679 1.03154 0.10098 0.0
H810 H 0.66132 0.16128 0.19759 0.0
H811 H 0.64837 0.15185 0.2347 0.0
H812 H 0.60464 0.15133 0.20843 0.0
H813 H 0.564 0.06982 0.20941 0.0
H814 H 0.60669 0.06993 0.2368 0.0
H815 H 0.59345 1.02435 0.20155 0.0
H816 H 0.7337 1.02384 0.13879 0.0
H817 H 0.78998 1.04458 0.18192 0.0
H818 H 0.7006 0.11023 0.24299 0.0
C819 C 0.59153 0.09231 0.14602 0.0
C820 C 0.596 0.08998 0.1145 0.0
C821 C 0.62547 0.06497 0.09785 0.0
C822 C 0.65364 1.04691 0.11324 0.0
C823 C 0.65166 1.05408 0.14515 0.0
C824 C 0.62085 0.0759 0.16131 0.0
C825 C 0.63192 0.08961 0.19578 0.0
C826 C 0.63691 0.14155 0.20993 0.0
C827 C 0.59694 0.06174 0.21183 0.0
C828 C 0.67584 0.07585 0.19638 0.0
C829 C 0.68551 1.05326 0.16721 0.0
C830 C 0.72613 1.04096 0.16175 0.0
C831 C 0.75822 1.05357 0.18641 0.0
C832 C 0.75028 0.07989 0.21598 0.0
C833 C 0.70777 0.08941 0.22105 0.0
H834 H 0.55791 0.79611 0.7766 0.0
H835 H 0.55713 0.93561 0.77853 0.0
H836 H 0.51732 0.90934 0.72739 0.0
H837 H 0.56859 0.75475 0.69267 0.0
H838 H 0.53155 0.69978 0.68907 0.0
H839 H 0.56376 0.72999 0.72481 0.0
H840 H 0.49231 0.72378 0.75331 0.0
H841 H 0.45785 0.69619 0.71823 0.0
H842 H 0.44875 0.74865 0.74375 0.0
H843 H 0.47972 0.86799 0.67454 0.0
H844 H 0.43702 0.81446 0.62786 0.0
H845 H 0.45185 0.69959 0.66127 0.0
C846 C 0.54938 0.82099 0.76613 0.0
C847 C 0.56254 0.86858 0.7812 0.0
C848 C 0.54977 0.89964 0.7669 0.0
C849 C 0.52656 0.88478 0.73785 0.0
C850 C 0.51515 0.83804 0.72314 0.0
C851 C 0.5255 0.8064 0.73692 0.0
C852 C 0.507 0.75792 0.71655 0.0
C853 C 0.54499 0.73421 0.7051 0.0
C854 C 0.47447 0.72993 0.73394 0.0
C855 C 0.48353 0.76734 0.68981 0.0
C856 C 0.49007 0.81394 0.6937 0.0
C857 C 0.47409 0.83141 0.67139 0.0
C858 C 0.45014 0.80069 0.64471 0.0
C859 C 0.44113 0.75277 0.64062 0.0
C860 C 0.45828 0.73605 0.66361 0.0
H861 H 1.07063 0.61703 0.26752 0.0
H862 H 0.18484 0.64033 0.33088 0.0
H863 H 0.20965 0.57607 0.29561 0.0
H864 H 1.05113 0.49171 0.2455 0.0
H865 H 1.03438 0.48608 0.20607 0.0
H866 H 1.02409 0.53296 0.23646 0.0
H867 H 1.06573 0.59092 0.20914 0.0
H868 H 1.07736 0.54554 0.17825 0.0
H869 H 0.1223 0.59084 0.19947 0.0
H870 H 0.22442 0.51235 0.25165 0.0
H871 H 0.2258 0.45183 0.20332 0.0
H872 H 0.10016 0.46892 0.17078 0.0
C873 C 0.10034 0.60816 0.27447 0.0
C874 C 0.12591 0.63408 0.30196 0.0
C875 C 0.1651 0.62163 0.30967 0.0
C876 C 0.17927 0.58491 0.28994 0.0
C877 C 0.15356 0.56064 0.26282 0.0
C878 C 0.11463 0.57141 0.2553 0.0
C879 C 0.09351 0.54072 0.22449 0.0
C880 C 1.04809 0.51108 0.22838 0.0
C881 C 0.08952 0.56867 0.20147 0.0
C882 C 0.12743 0.51201 0.21539 0.0
C883 C 0.16167 0.52366 0.23786 0.0
C884 C 0.19751 0.50257 0.23407 0.0
C885 C 0.19805 0.46836 0.20667 0.0
C886 C 0.16291 0.45571 0.18371 0.0
C887 C 0.12741 0.47802 0.18809 0.0
H888 H 1.0667 0.08415 0.9151 0.0
H889 H 0.20556 0.07812 0.90866 0.0
H890 H 0.22645 0.14754 0.95184 0.0
H891 H 0.09553 0.21456 0.93682 0.0
H892 H 1.0511 0.22068 0.96249 0.0
H893 H 1.04383 0.17226 0.92887 0.0
H894 H 1.02647 0.11253 0.9616 0.0
H895 H 1.02638 0.1625 -0.00712 0.0
H896 H 1.06066 0.12466 -0.00335 0.0
H897 H 0.23212 0.20786 -0.00031 0.0
H898 H 0.2236 0.26544 0.04738 0.0
H899 H 0.08198 0.23802 0.02427 0.0
C900 C 0.10151 0.09855 0.92227 0.0
C901 C 0.13461 0.07579 0.90869 0.0
C902 C 0.1798 0.09505 0.91877 0.0
C903 C 0.192 0.13445 0.94333 0.0
C904 C 0.15871 0.15482 0.95736 0.0
C905 C 0.11446 0.13854 0.94694 0.0
C906 C 0.08601 0.16816 0.96662 0.0
C907 C 1.06807 0.1956 0.9476 0.0
C908 C 1.04765 0.14012 0.98013 0.0
C909 C 0.12055 0.1995 -0.00832 0.0
C910 C 0.16238 0.19182 0.98512 0.0
C911 C 0.19972 0.2148 0.00492 0.0
C912 C 0.1945 0.24707 0.03207 0.0
C913 C 0.15218 0.25566 0.03953 0.0
C914 C 0.11459 0.2315 0.01916 0.0
H915 H 0.52042 0.15597 0.49506 0.0
H916 H 0.57522 0.26856 0.57511 0.0
H917 H 0.65007 0.27194 0.55552 0.0
H918 H 0.61353 0.10075 0.488 0.0
H919 H 0.61106 0.08532 0.44644 0.0
H920 H 0.5613 0.09091 0.4666 0.0
H921 H 0.5486 0.14974 0.43815 0.0
H922 H 0.59836 0.14433 0.41794 0.0
H923 H 0.59212 0.19988 0.44009 0.0
H924 H 0.72004 0.26141 0.52891 0.0
H925 H 0.7798 0.24046 0.49582 0.0
H926 H 0.68207 0.13773 0.4301 0.0
C927 C 0.54822 0.1813 0.50846 0.0
C928 C 0.5415 0.21201 0.53687 0.0
C929 C 0.57898 0.24477 0.55339 0.0
C930 C 0.62187 0.2469 0.54242 0.0
C931 C 0.62736 0.2164 0.5145 0.0
C932 C 0.59159 0.18438 0.49753 0.0
C933 C 0.60711 0.15621 0.46792 0.0
C934 C 0.59768 0.10527 0.4672 0.0
C935 C 0.58524 0.16295 0.43933 0.0
C936 C 0.6571 0.17723 0.47105 0.0
C937 C 0.66785 0.21164 0.49833 0.0
C938 C 0.71183 0.23487 0.50736 0.0
C939 C 0.7457 0.22265 0.48831 0.0
C940 C 0.73606 0.18776 0.46004 0.0
C941 C 0.69078 0.16509 0.45121 0.0
H942 H 0.62069 0.64985 0.9174 0.0
H943 H 0.58887 0.77544 0.97194 0.0
H944 H 0.60052 0.7533 0.01947 0.0
H945 H 0.56728 0.57704 0.96523 0.0
H946 H 0.60948 0.54429 0.96063 0.0
H947 H 0.59721 0.56904 0.93056 0.0
H948 H 0.68006 0.61081 0.9329 0.0
H949 H 0.69256 0.58624 0.96296 0.0
H950 H 0.70676 0.64751 0.96918 0.0
H951 H 0.6181 0.71952 0.0612 0.0
H952 H 0.64049 0.67597 0.0947 0.0
H953 H 0.66024 0.57118 0.01387 0.0
C954 C 0.61561 0.6724 0.93932 0.0
C955 C 0.6041 0.71461 0.94086 0.0
C956 C 0.59836 0.74334 0.9701 0.0
C957 C 0.60459 0.7309 -0.00274 0.0
C958 C 0.61637 0.68944 -0.00505 0.0
C959 C 0.62171 0.66048 0.96678 0.0
C960 C 0.63566 0.6184 0.97097 0.0
C961 C 0.60029 0.5746 0.95595 0.0
C962 C 0.68148 0.6156 0.95825 0.0
C963 C 0.63775 0.62855 0.0059 0.0
C964 C 0.62633 0.66968 0.01919 0.0
C965 C 0.62696 0.6872 0.05106 0.0
C966 C 0.63996 0.66231 0.06991 0.0
C967 C 0.65226 0.62024 0.05696 0.0
C968 C 0.65059 0.60297 0.02445 0.0
H969 H 0.18236 0.6531 0.5466 0.0
H970 H 0.27124 0.74833 0.50642 0.0
H971 H 0.20915 0.74819 0.472 0.0
H972 H 0.11885 0.58758 0.47426 0.0
H973 H 1.06633 0.57749 0.49168 0.0
H974 H 0.11745 0.58484 0.51374 0.0
H975 H 0.09815 0.65203 0.55591 0.0
H976 H 1.04645 0.64228 0.53409 0.0
H977 H 0.08318 0.69852 0.54448 0.0
H978 H 0.13778 0.73882 0.44193 0.0
H979 H 1.06235 0.72114 0.41807 0.0
H980 H 1.01618 0.63093 0.47616 0.0
C981 C 0.18864 0.67431 0.53078 0.0
C982 C 0.2321 0.70111 0.5296 0.0
C983 C 0.23865 0.7276 0.50804 0.0
C984 C 0.20341 0.72774 0.48829 0.0
C985 C 0.16124 0.70107 0.48999 0.0
C986 C 0.15357 0.67467 0.51058 0.0
C987 C 0.10494 0.64839 0.50695 0.0
C988 C 0.1017 0.59649 0.49601 0.0
C989 C 0.08183 0.66115 0.53718 0.0
C990 C 0.08621 0.66532 0.48185 0.0
C991 C 0.11967 0.69535 0.47231 0.0
C992 C 0.11138 0.71544 0.44932 0.0
C993 C 1.06801 0.70504 0.43582 0.0
C994 C 1.0325 0.67475 0.44509 0.0
C995 C 1.04212 0.65445 0.4685 0.0
H996 H 0.66642 0.05811 0.95408 0.0
H997 H 0.55415 0.07028 0.90144 0.0
H998 H 0.55058 0.14191 0.94012 0.0
H999 H 0.62739 0.1009 0.02902 0.0
H1000 H 0.67992 0.13495 0.04805 0.0
H1001 H 0.67832 0.08438 0.0169 0.0
H1002 H 0.72919 0.12762 0.98344 0.0
H1003 H 0.73661 0.177 0.01639 0.0
H1004 H 0.71847 0.18063 0.97937 0.0
H1005 H 0.55932 0.21328 0.98385 0.0
H1006 H 0.58062 0.27974 0.02953 0.0
H1007 H 0.68808 0.22401 0.05442 0.0
C1008 C 0.64058 0.07539 0.95105 0.0
C1009 C 0.61018 0.05801 0.92472 0.0
C1010 C 0.57774 0.08262 0.9213 0.0
C1011 C 0.57537 0.12344 0.94323 0.0
C1012 C 0.60577 0.13982 0.96873 0.0
C1013 C 0.63787 0.11673 0.97283 0.0
C1014 C 0.66702 0.14282 0.00215 0.0
C1015 C 0.66289 0.11407 0.02543 0.0
C1016 C 0.71573 0.15783 -0.00513 0.0
C1017 C 0.64646 0.18406 0.01357 0.0
C1018 C 0.6111 0.18149 -0.00607 0.0
C1019 C 0.58719 0.21576 -0.00073 0.0
C1020 C 0.59988 0.25379 0.02516 0.0
C1021 C 0.63664 0.25791 0.04538 0.0
C1022 C 0.65987 0.22211 0.03947 0.0
H1023 H 0.49209 0.53306 0.53608 0.0
H1024 H 0.47621 0.46558 0.43832 0.0
H1025 H 0.54704 0.44445 0.44082 0.0
H1026 H 0.57419 0.59802 0.53829 0.0
H1027 H 0.60745 0.59895 0.57156 0.0
H1028 H 0.5488 0.57843 0.56993 0.0
H1029 H 0.55891 0.50207 0.57779 0.0
H1030 H 0.61847 0.52293 0.57964 0.0
H1031 H 0.59241 0.46922 0.55269 0.0
H1032 H 0.62527 0.46769 0.44403 0.0
H1033 H 0.689 0.53154 0.4461 0.0
H1034 H 0.66508 0.59519 0.54005 0.0
C1035 C 0.50336 0.51257 0.51553 0.0
C1036 C 0.47972 0.50291 0.4869 0.0
C1037 C 0.49365 0.47401 0.46068 0.0
C1038 C 0.5343 0.4616 0.46198 0.0
C1039 C 0.56116 0.47915 0.48939 0.0
C1040 C 0.54535 0.50272 0.51635 0.0
C1041 C 0.58339 0.53022 0.53967 0.0
C1042 C 0.57812 0.57929 0.55564 0.0
C1043 C 0.58861 0.50455 0.56385 0.0
C1044 C 0.62161 0.52936 0.51861 0.0
C1045 C 0.60925 0.49524 0.49107 0.0
C1046 C 0.63553 0.49358 0.46567 0.0
C1047 C 0.67167 0.53019 0.46687 0.0
C1048 C 0.68071 0.56797 0.49318 0.0
C1049 C 0.65807 0.56587 0.52 0.0
H1050 H 0.10907 0.68087 0.95237 0.0
H1051 H 0.19877 0.81346 0.991 0.0
H1052 H 0.22269 0.78553 0.0333 0.0
H1053 H 1.07637 0.65738 0.0235 0.0
H1054 H 1.07542 0.59715 0.01013 0.0
H1055 H 1.0648 0.62778 0.98313 0.0
H1056 H 0.12832 0.6018 0.9506 0.0
H1057 H 0.13914 0.57108 0.97752 0.0
H1058 H 0.1833 0.61361 0.96873 0.0
H1059 H 0.23609 0.74344 0.07197 0.0
H1060 H 0.23906 0.6898 0.10342 0.0
H1061 H 0.14358 0.58356 0.0382 0.0
C1062 C 0.13415 0.70403 0.96945 0.0
C1063 C 0.15183 0.74959 0.96823 0.0
C1064 C 0.18401 0.77874 -0.00844 0.0
C1065 C 0.19812 0.76306 0.0156 0.0
C1066 C 0.18005 0.71799 0.01597 0.0
C1067 C 0.14892 0.68882 -0.00657 0.0
C1068 C 0.13488 0.64186 -0.00096 0.0
C1069 C 0.08491 0.63039 0.00427 0.0
C1070 C 0.14715 0.60491 0.97239 0.0
C1071 C 0.16287 0.64919 0.02836 0.0
C1072 C 0.18856 0.69342 0.03781 0.0
C1073 C 0.21626 0.7087 0.06471 0.0
C1074 C 0.21761 0.67806 0.08248 0.0
C1075 C 0.19166 0.63253 0.07321 0.0
C1076 C 0.1642 0.61797 0.04564 0.0
H1077 H 0.26081 0.23769 0.42371 0.0
H1078 H 0.31678 0.11775 0.40153 0.0
H1079 H 0.24208 0.06822 0.39952 0.0
H1080 H 0.19209 0.21269 0.47334 0.0
H1081 H 0.14502 0.23126 0.46202 0.0
H1082 H 0.19968 0.2558 0.45266 0.0
H1083 H 0.17337 0.23215 0.3948 0.0
H1084 H 0.11829 0.2079 0.40432 0.0
H1085 H 0.14692 0.17332 0.37612 0.0
H1086 H 0.16591 1.03451 0.41292 0.0
H1087 H 0.09164 1.0186 0.43396 0.0
H1088 H 0.0877 0.16136 0.44829 0.0
C1089 C 0.25684 0.20087 0.41646 0.0
C1090 C 0.29425 0.18146 0.41287 0.0
C1091 C 0.28825 0.13314 0.40432 0.0
C1092 C 0.24597 0.10472 0.40313 0.0
C1093 C 0.20995 0.12511 0.40939 0.0
C1094 C 0.21466 0.172 0.41474 0.0
C1095 C 0.1716 0.18579 0.4241 0.0
C1096 C 0.17753 0.22356 0.45484 0.0
C1097 C 0.15135 0.20065 0.39829 0.0
C1098 C 0.14415 0.14057 0.42697 0.0
C1099 C 0.16591 0.10552 0.4172 0.0
C1100 C 0.1479 0.06139 0.41978 0.0
C1101 C 0.10611 1.0528 0.43221 0.0
C1102 C 0.08336 0.08842 0.44224 0.0
C1103 C 0.10322 0.1328 0.43976 0.0
H1104 H 1.02015 0.41905 0.12619 0.0
H1105 H 1.00852 0.27578 0.0787 0.0
H1106 H 0.92685 0.26305 0.07742 0.0
H1107 H 0.92557 0.40035 0.17324 0.0
H1108 H 0.90615 0.45021 0.17129 0.0
H1109 H 0.96426 0.44993 0.16791 0.0
H1110 H 0.96306 0.46879 0.11527 0.0
H1111 H 0.90555 0.47099 0.11964 0.0
H1112 H 0.92144 0.43383 0.08542 0.0
H1113 H 0.84502 0.26329 0.0834 0.0
H1114 H 0.77025 0.27745 0.09293 0.0
H1115 H 0.82854 0.42129 0.13517 0.0
C1116 C 1.00044 0.38516 0.11502 0.0
C1117 C 1.02205 0.34837 0.10241 0.0
C1118 C 0.99395 0.30468 0.08858 0.0
C1119 C 0.94702 0.29701 0.0878 0.0
C1120 C 0.92694 0.33328 0.10083 0.0
C1121 C 0.95263 0.37672 0.11402 0.0
C1122 C 0.92165 0.40923 0.1267 0.0
C1123 C 0.9299 0.42859 0.16187 0.0
C1124 C 0.92832 0.44801 0.11079 0.0
C1125 C 0.87481 0.37746 0.11821 0.0
C1126 C 0.87916 0.33365 0.10362 0.0
C1127 C 0.84152 0.29763 0.09457 0.0
C1128 C 0.79868 0.3061 0.10026 0.0
C1129 C 0.79208 0.35055 0.11465 0.0
C1130 C 0.83143 0.38688 0.12365 0.0
H1131 H 0.41529 1.03177 0.53827 0.0
H1132 H 0.39136 0.09505 0.63295 0.0
H1133 H 0.37553 1.01958 0.64343 0.0
H1134 H 0.32873 0.9255 0.52885 0.0
H1135 H 0.36102 0.88853 0.50603 0.0
H1136 H 0.37024 0.94749 0.50518 0.0
H1137 H 0.45335 0.95991 0.52082 0.0
H1138 H 0.44448 0.90098 0.52172 0.0
H1139 H 0.46906 0.94638 0.55525 0.0
H1140 H 0.36094 0.93459 0.64449 0.0
H1141 H 0.3515 0.85128 0.63606 0.0
H1142 H 0.38484 0.83787 0.54117 0.0
C1143 C 0.40638 1.02994 0.56118 0.0
C1144 C 0.40477 0.07121 0.58467 0.0
C1145 C 0.39337 0.06553 0.61428 0.0
C1146 C 0.38406 1.0221 0.62055 0.0
C1147 C 0.38609 0.98267 0.5972 0.0
C1148 C 0.39711 0.98609 0.56801 0.0
C1149 C 0.39734 0.93781 0.54728 0.0
C1150 C 0.36225 0.92402 0.52022 0.0
C1151 C 0.44383 0.93618 0.53556 0.0
C1152 C 0.38496 0.90697 0.56928 0.0
C1153 C 0.37834 0.93386 0.59794 0.0
C1154 C 0.36607 0.91365 0.622 0.0
C1155 C 0.36032 0.86556 0.6169 0.0
C1156 C 0.36676 0.83624 0.58795 0.0
C1157 C 0.37972 0.85819 0.56383 0.0
H1158 H 0.45549 0.91887 0.88103 0.0
H1159 H 0.49297 0.9883 0.80996 0.0
H1160 H 0.41522 0.99351 0.80315 0.0
H1161 H 0.34625 0.85192 0.84261 0.0
H1162 H 0.31886 0.8554 0.87824 0.0
H1163 H 0.37746 0.8567 0.87758 0.0
H1164 H 0.39373 0.93319 0.9205 0.0
H1165 H 0.33517 0.93228 0.92108 0.0
H1166 H 0.37402 0.98105 0.91475 0.0
H1167 H 0.33177 0.99245 0.8042 0.0
H1168 H 0.25207 0.98508 0.81256 0.0
H1169 H 0.26425 0.91344 0.88175 0.0
C1170 C 0.44749 0.93488 0.86383 0.0
C1171 C 0.48179 0.95351 0.84624 0.0
C1172 C 0.46865 0.97429 0.82421 0.0
C1173 C 0.424 0.9772 0.82001 0.0
C1174 C 0.39144 0.95884 0.83773 0.0
C1175 C 0.40252 0.93773 0.8591 0.0
C1176 C 0.36067 0.9205 0.87495 0.0
C1177 C 0.3502 0.86802 0.86794 0.0
C1178 C 0.36624 0.9431 0.9099 0.0
C1179 C 0.32459 0.93604 0.85968 0.0
C1180 C 0.34328 0.95786 0.83814 0.0
C1181 C 0.3171 0.97533 0.82104 0.0
C1182 C 0.27127 0.97085 0.82603 0.0
C1183 C 0.25044 0.94884 0.84802 0.0
C1184 C 0.27818 0.93084 0.86487 0.0
H1185 H 0.801 0.29621 0.39323 0.0
H1186 H 0.93159 0.30293 0.43218 0.0
H1187 H 0.9574 0.38081 0.42744 0.0
H1188 H 0.8362 0.36884 0.34072 0.0
H1189 H 0.79273 0.39987 0.34882 0.0
H1190 H 0.78358 0.34226 0.35255 0.0
H1191 H 0.7632 0.37013 0.40894 0.0
H1192 H 0.77192 0.42771 0.40522 0.0
H1193 H 0.80159 0.41626 0.43568 0.0
H1194 H 0.97283 0.45957 0.41571 0.0
H1195 H 0.9714 0.53498 0.40758 0.0
H1196 H 0.82971 0.48833 0.38396 0.0
C1197 C 0.83512 0.31383 0.40064 0.0
C1198 C 0.8642 0.29079 0.41246 0.0
C1199 C 0.9081 0.3174 0.4225 0.0
C1200 C 0.92348 0.36256 0.41985 0.0
C1201 C 0.89471 0.38374 0.40798 0.0
C1202 C 0.85093 0.36079 0.39931 0.0
C1203 C 0.8264 0.39403 0.3899 0.0
C1204 C 0.80865 0.37511 0.35598 0.0
C1205 C 0.78851 0.40253 0.4112 0.0
C1206 C 0.86317 0.43843 0.39438 0.0
C1207 C 0.9026 0.43099 0.40411 0.0
C1208 C 0.94181 0.46558 0.40844 0.0
C1209 C 0.94083 0.50871 0.40347 0.0
C1210 C 0.90078 0.51894 0.39495 0.0
C1211 C 0.86127 0.48252 0.39041 0.0
H1212 H 0.32354 0.40149 0.09463 0.0
H1213 H 0.27984 0.30292 0.14717 0.0
H1214 H 0.35713 0.29871 0.15535 0.0
H1215 H 0.40864 0.343 0.05582 0.0
H1216 H 0.448 0.39507 0.05541 0.0
H1217 H 0.38921 0.39325 0.05484 0.0
H1218 H 0.40226 0.46236 0.10321 0.0
H1219 H 0.46105 0.46425 0.10398 0.0
H1220 H 0.43039 0.45946 0.13747 0.0
H1221 H 0.44174 0.30711 0.1607 0.0
H1222 H 0.5231 0.32018 0.15729 0.0
H1223 H 0.51687 0.4056 0.09603 0.0
C1224 C 0.33001 0.37902 0.10794 0.0
C1225 C 0.29375 0.35346 0.12088 0.0
C1226 C 0.3054 0.32412 0.13755 0.0
C1227 C 0.34994 0.32119 0.14226 0.0
C1228 C 0.38437 0.34678 0.1296 0.0
C1229 C 0.37498 0.37454 0.11219 0.0
C1230 C 0.41868 0.39624 0.09979 0.0
C1231 C 0.41597 0.381 0.06435 0.0
C1232 C 0.42868 0.4487 0.11182 0.0
C1233 C 0.45383 0.37682 0.1132 0.0
C1234 C 0.43298 0.34886 0.13073 0.0
C1235 C 0.45799 0.32852 0.14665 0.0
C1236 C 0.5048 0.33631 0.14461 0.0
C1237 C 0.52784 0.36357 0.12616 0.0
C1238 C 0.50117 0.38402 0.11013 0.0
H1239 H 0.38327 0.33776 0.53496 0.0
H1240 H 0.4131 0.35738 0.63234 0.0
H1241 H 0.40135 0.4354 0.64361 0.0
H1242 H 0.43577 0.45217 0.53293 0.0
H1243 H 0.39456 0.45951 0.5073 0.0
H1244 H 0.40242 0.4031 0.50532 0.0
H1245 H 0.32023 0.3753 0.51404 0.0
H1246 H 0.31108 0.431 0.51504 0.0
H1247 H 0.29579 0.40664 0.54673 0.0
H1248 H 0.3847 0.51424 0.64581 0.0
H1249 H 0.36918 0.5852 0.63812 0.0
H1250 H 0.35216 0.52251 0.53939 0.0
C1251 C 0.38714 0.35823 0.55873 0.0
C1252 C 0.4002 0.33955 0.58263 0.0
C1253 C 0.40444 0.36924 0.61316 0.0
C1254 C 0.3973 0.41436 0.61998 0.0
C1255 C 0.38525 0.43166 0.59626 0.0
C1256 C 0.38001 0.40446 0.56613 0.0
C1257 C 0.36742 0.43264 0.54514 0.0
C1258 C 0.40214 0.43715 0.5212 0.0
C1259 C 0.32087 0.41003 0.52928 0.0
C1260 C 0.36758 0.47991 0.56793 0.0
C1261 C 0.3771 0.47782 0.59743 0.0
C1262 C 0.37755 0.51589 0.62266 0.0
C1263 C 0.36846 0.5567 0.61802 0.0
C1264 C 0.35937 0.56141 0.5882 0.0
C1265 C 0.35917 0.52151 0.56272 0.0
H1266 H 0.77813 0.98865 0.84076 0.0
H1267 H 0.72949 0.88145 0.88542 0.0
H1268 H 0.8059 0.86992 0.8895 0.0
H1269 H 0.86618 0.94169 0.79822 0.0
H1270 H 0.90416 0.99703 0.8059 0.0
H1271 H 0.84515 0.99295 0.80465 0.0
H1272 H 0.85631 1.05004 0.8594 0.0
H1273 H 0.91501 1.05156 0.8604 0.0
H1274 H 0.88185 1.03579 0.89042 0.0
H1275 H 0.88941 0.86706 0.88634 0.0
H1276 H 0.97053 0.87877 0.88197 0.0
H1277 H 0.96991 0.99434 0.84529 0.0
C1278 C 0.78349 0.96251 0.85124 0.0
C1279 C 0.74662 0.9354 0.86232 0.0
C1280 C 0.75621 0.90254 0.87651 0.0
C1281 C 0.79991 0.89567 0.87888 0.0
C1282 C 0.83526 0.92266 0.86775 0.0
C1283 C 0.82766 0.95616 0.85475 0.0
C1284 C 0.87221 0.98245 0.84648 0.0
C1285 C 0.87187 0.97821 0.81172 0.0
C1286 C 0.88191 1.03297 0.86529 0.0
C1287 C 0.90585 0.95783 0.85597 0.0
C1288 C 0.88355 0.92317 0.86798 0.0
C1289 C 0.90692 0.89471 0.87742 0.0
C1290 C 0.95365 0.90188 0.87496 0.0
C1291 C 0.9784 0.93807 0.86377 0.0
C1292 C 0.95321 0.96623 0.854 0.0
H1293 H 0.89302 0.79989 0.36057 0.0
H1294 H 0.87115 0.79931 0.45569 0.0
H1295 H 0.85832 0.87694 0.46681 0.0
H1296 H 0.94909 0.92235 0.37714 0.0
H1297 H 0.92339 0.93219 0.34435 0.0
H1298 H 0.9314 0.8759 0.34275 0.0
H1299 H 0.84754 0.84192 0.32887 0.0
H1300 H 0.83934 0.89816 0.33047 0.0
H1301 H 0.80763 0.86499 0.35374 0.0
H1302 H 0.84901 0.9582 0.46958 0.0
H1303 H 0.84105 1.03208 0.46285 0.0
H1304 H 0.86513 0.98664 0.3659 0.0
C1305 C 0.88539 0.81585 0.38377 0.0
C1306 C 0.8833 0.79119 0.4071 0.0
C1307 C 0.87309 0.81527 0.43693 0.0
C1308 C 0.86571 0.86031 0.44369 0.0
C1309 C 0.868 0.88322 0.4206 0.0
C1310 C 0.87731 0.86177 0.39105 0.0
C1311 C 0.87705 0.89501 0.3707 0.0
C1312 C 0.92297 0.90706 0.35796 0.0
C1313 C 0.84074 0.87374 0.34436 0.0
C1314 C 0.86631 0.93802 0.39332 0.0
C1315 C 0.86154 0.93006 0.42205 0.0
C1316 C 0.85243 0.96418 0.447 0.0
C1317 C 0.84782 1.00679 0.44286 0.0
C1318 C 0.85179 1.01706 0.41384 0.0
C1319 C 0.86137 0.98117 0.38861 0.0
loop_
_geom_bond_atom_site_label_1
_geom_bond_atom_site_label_2
_geom_bond_distance
_geom_bond_site_symmetry_2
_ccdc_geom_bond_type
Tb0 N29 2.617 1_455 S
Tb0 N35 2.572 . S
Tb0 O44 2.465 . S
Tb0 O45 2.387 . S
Tb0 O47 2.428 . S
Tb0 O48 2.308 . S
Tb0 O52 2.349 . S
Tb0 O55 2.393 1_455 S
Tb0 C64 2.802 . S
C1 N2 1.379 . S
C1 C4 1.416 . S
C1 C8 1.424 . S
N2 C1 1.379 . S
N2 C5 1.334 . S
N2 Tb11 2.617 . S
C3 C5 1.390 . S
C3 C6 1.339 . S
C3 H23 0.930 . S
C4 C1 1.416 . S
C4 C6 1.416 . S
C4 C10 1.448 . S
C5 N2 1.334 . S
C5 C3 1.390 . S
C5 H16 0.930 . S
C6 C3 1.339 . S
C6 C4 1.416 . S
C6 H27 0.930 . S
C7 C8 1.413 . S
C7 C9 1.427 . S
C7 C13 1.416 1_455 S
C8 C1 1.424 . S
C8 C7 1.413 . S
C8 N12 1.361 . S
C9 C7 1.427 . S
C9 C10 1.328 . S
C9 H24 0.929 . S
C10 C4 1.448 . S
C10 C9 1.328 . S
C10 H25 0.930 . S
Tb11 N2 2.617 . S
Tb11 N12 2.572 . S
Tb11 O46 2.349 . S
Tb11 O49 2.393 . S
Tb11 O50 2.465 1_455 S
Tb11 O51 2.387 . S
Tb11 O53 2.428 . S
Tb11 O54 2.308 1_455 S
Tb11 C75 2.802 . S
N12 C8 1.361 . S
N12 Tb11 2.572 . S
N12 C14 1.340 1_455 S
C13 C7 1.416 1_655 S
C13 C15 1.332 . S
C13 H21 0.931 . S
C14 N12 1.340 1_655 S
C14 C15 1.407 . S
C14 H20 0.930 . S
C15 C13 1.332 . S
C15 C14 1.407 . S
C15 H17 0.929 . S
H16 C5 0.930 . S
H17 C15 0.929 . S
H18 C33 0.930 . S
H19 C40 0.929 . S
H20 C14 0.930 . S
H21 C13 0.931 . S
H22 C36 0.930 . S
H23 C3 0.930 . S
H24 C9 0.929 . S
H25 C10 0.930 . S
H26 C31 0.930 . S
H27 C6 0.930 . S
H28 C39 0.931 . S
N29 Tb0 2.617 1_655 S
N29 C30 1.379 1_654 S
N29 C33 1.334 . S
C30 N29 1.379 1_456 S
C30 C32 1.416 1_455 S
C30 C38 1.424 . S
C31 H26 0.930 . S
C31 C33 1.390 1_556 S
C31 C34 1.339 . S
C32 C30 1.416 1_655 S
C32 C34 1.416 . S
C32 C65 1.449 . S
C33 H18 0.930 . S
C33 N29 1.334 . S
C33 C31 1.390 1_554 S
C34 C31 1.339 . S
C34 C32 1.416 . S
C34 H41 0.930 . S
N35 Tb0 2.572 . S
N35 C36 1.340 . S
N35 C38 1.361 1_554 S
C36 H22 0.930 . S
C36 N35 1.340 . S
C36 C40 1.407 1_554 S
C37 C38 1.413 . S
C37 C39 1.416 . S
C37 C66 1.427 . S
C38 C30 1.424 . S
C38 N35 1.361 1_556 S
C38 C37 1.413 . S
C39 H28 0.931 . S
C39 C37 1.416 . S
C39 C40 1.332 . S
C40 H19 0.929 . S
C40 C36 1.407 1_556 S
C40 C39 1.332 . S
H41 C34 0.930 . S
H42 C65 0.930 . S
H43 C66 0.929 . S
O44 Tb0 2.465 . S
O44 C64 1.264 . S
O45 Tb0 2.387 . S
O45 C56 1.264 . S
O46 Tb11 2.349 . S
O46 C56 1.243 . S
O47 Tb0 2.428 . S
O47 C64 1.256 . S
O48 Tb0 2.308 . S
O48 C63 1.266 . S
O49 Tb11 2.393 . S
O49 C63 1.248 . S
O50 Tb11 2.465 1_655 S
O50 C75 1.264 1_655 S
O51 Tb11 2.387 . S
O51 C67 1.264 . S
O52 Tb0 2.349 . S
O52 C67 1.243 . S
O53 Tb11 2.428 . S
O53 C75 1.256 . S
O54 Tb11 2.308 1_655 S
O54 C74 1.266 . S
O55 Tb0 2.393 1_655 S
O55 C74 1.248 . S
C56 O45 1.264 . S
C56 O46 1.243 . S
C57 C60 1.399 . S
C57 C62 1.383 . S
C57 C64 1.496 . S
C58 C59 1.399 . S
C58 C62 1.389 . S
C59 C58 1.399 . S
C59 C61 1.380 . S
C59 H76 0.929 . S
C60 C57 1.399 . S
C60 C61 1.392 . S
C60 H77 0.929 . S
C61 C59 1.380 . S
C61 C60 1.392 . S
C61 H78 0.929 . S
C62 C57 1.383 . S
C62 C58 1.389 . S
C62 H79 0.931 . S
C63 O48 1.266 . S
C63 O49 1.248 . S
C64 Tb0 2.802 . S
C64 O44 1.264 . S
C64 O47 1.256 . S
C64 C57 1.496 . S
C65 C32 1.449 . S
C65 H42 0.930 . S
C65 C66 1.328 1_655 S
C66 C37 1.427 . S
C66 H43 0.929 . S
C66 C65 1.328 1_455 S
C67 O51 1.264 . S
C67 O52 1.243 . S
C68 C71 1.399 . S
C68 C72 1.383 1_455 S
C68 C75 1.496 . S
C69 C70 1.399 . S
C69 C72 1.389 . S
C70 C69 1.399 . S
C70 C73 1.380 1_655 S
C70 H80 0.929 . S
C71 C68 1.399 . S
C71 C73 1.392 . S
C71 H81 0.929 . S
C72 C68 1.383 1_655 S
C72 C69 1.389 . S
C72 H82 0.931 . S
C73 C70 1.380 1_455 S
C73 C71 1.392 . S
C73 H83 0.929 . S
C74 O54 1.266 . S
C74 O55 1.248 . S
C75 Tb11 2.802 . S
C75 O50 1.264 1_455 S
C75 O53 1.256 . S
C75 C68 1.496 . S
H76 C59 0.929 . S
H77 C60 0.929 . S
H78 C61 0.929 . S
H79 C62 0.931 . S
H80 C70 0.929 . S
H81 C71 0.929 . S
H82 C72 0.931 . S
H83 C73 0.929 . S
Tb84 N113 2.617 . S
Tb84 N119 2.572 . S
Tb84 O128 2.465 . S
Tb84 O129 2.387 . S
Tb84 O131 2.428 . S
Tb84 O132 2.308 . S
Tb84 O136 2.349 . S
Tb84 O139 2.393 . S
Tb84 C148 2.802 . S
C85 N86 1.379 . S
C85 C88 1.416 . S
C85 C92 1.424 . S
N86 C85 1.379 . S
N86 C89 1.334 . S
N86 Tb95 2.617 . S
C87 C89 1.390 . S
C87 C90 1.339 . S
C87 H107 0.930 . S
C88 C85 1.416 . S
C88 C90 1.416 . S
C88 C94 1.448 1_545 S
C89 N86 1.334 . S
C89 C87 1.390 . S
C89 H100 0.930 . S
C90 C87 1.339 . S
C90 C88 1.416 . S
C90 H111 0.930 . S
C91 C92 1.413 1_565 S
C91 C93 1.427 . S
C91 C97 1.416 . S
C92 C85 1.424 . S
C92 C91 1.413 1_545 S
C92 N96 1.361 . S
C93 C91 1.427 . S
C93 C94 1.328 . S
C93 H108 0.929 . S
C94 C88 1.448 1_565 S
C94 C93 1.328 . S
C94 H109 0.930 . S
Tb95 N86 2.617 . S
Tb95 N96 2.572 . S
Tb95 O130 2.349 . S
Tb95 O133 2.393 . S
Tb95 O134 2.465 . S
Tb95 O135 2.387 . S
Tb95 O137 2.428 . S
Tb95 O138 2.308 . S
Tb95 C159 2.802 . S
N96 C92 1.361 . S
N96 Tb95 2.572 . S
N96 C98 1.340 . S
C97 C91 1.416 . S
C97 C99 1.332 1_565 S
C97 H105 0.931 . S
C98 N96 1.340 . S
C98 C99 1.407 . S
C98 H104 0.930 . S
C99 C97 1.332 1_545 S
C99 C98 1.407 . S
C99 H101 0.929 . S
H100 C89 0.930 . S
H101 C99 0.929 . S
H102 C117 0.930 . S
H103 C124 0.929 . S
H104 C98 0.930 . S
H105 C97 0.931 . S
H106 C120 0.930 . S
H107 C87 0.930 . S
H108 C93 0.929 . S
H109 C94 0.930 . S
H110 C115 0.930 . S
H111 C90 0.930 . S
H112 C123 0.931 . S
N113 Tb84 2.617 . S
N113 C114 1.379 . S
N113 C117 1.334 . S
C114 N113 1.379 . S
C114 C116 1.416 . S
C114 C122 1.424 . S
C115 H110 0.930 . S
C115 C117 1.390 . S
C115 C118 1.339 . S
C116 C114 1.416 . S
C116 C118 1.416 . S
C116 C149 1.448 . S
C117 H102 0.930 . S
C117 N113 1.334 . S
C117 C115 1.390 . S
C118 C115 1.339 . S
C118 C116 1.416 . S
C118 H125 0.930 . S
N119 Tb84 2.572 . S
N119 C120 1.340 . S
N119 C122 1.361 . S
C120 H106 0.930 . S
C120 N119 1.340 . S
C120 C124 1.407 . S
C121 C122 1.413 . S
C121 C123 1.416 . S
C121 C150 1.427 . S
C122 C114 1.424 . S
C122 N119 1.361 . S
C122 C121 1.413 . S
C123 H112 0.931 . S
C123 C121 1.416 . S
C123 C124 1.332 . S
C124 H103 0.929 . S
C124 C120 1.407 . S
C124 C123 1.332 . S
H125 C118 0.930 . S
H126 C149 0.930 . S
H127 C150 0.929 . S
O128 Tb84 2.465 . S
O128 C148 1.264 . S
O129 Tb84 2.387 . S
O129 C140 1.264 . S
O130 Tb95 2.349 . S
O130 C140 1.243 . S
O131 Tb84 2.428 . S
O131 C148 1.256 . S
O132 Tb84 2.308 . S
O132 C147 1.266 . S
O133 Tb95 2.393 . S
O133 C147 1.248 . S
O134 Tb95 2.465 . S
O134 C159 1.264 . S
O135 Tb95 2.387 . S
O135 C151 1.264 . S
O136 Tb84 2.349 . S
O136 C151 1.243 . S
O137 Tb95 2.428 . S
O137 C159 1.256 . S
O138 Tb95 2.308 . S
O138 C158 1.266 . S
O139 Tb84 2.393 . S
O139 C158 1.248 . S
C140 O129 1.264 . S
C140 O130 1.243 . S
C141 C144 1.399 . S
C141 C146 1.383 . S
C141 C148 1.496 . S
C142 C143 1.399 . S
C142 C146 1.389 . S
C143 C142 1.399 . S
C143 C145 1.380 . S
C143 H160 0.929 . S
C144 C141 1.399 . S
C144 C145 1.392 . S
C144 H161 0.929 . S
C145 C143 1.380 . S
C145 C144 1.392 . S
C145 H162 0.929 . S
C146 C141 1.383 . S
C146 C142 1.389 . S
C146 H163 0.931 . S
C147 O132 1.266 . S
C147 O133 1.248 . S
C148 Tb84 2.802 . S
C148 O128 1.264 . S
C148 O131 1.256 . S
C148 C141 1.496 . S
C149 C116 1.448 . S
C149 H126 0.930 . S
C149 C150 1.328 . S
C150 C121 1.427 . S
C150 H127 0.929 . S
C150 C149 1.328 . S
C151 O135 1.264 . S
C151 O136 1.243 . S
C152 C155 1.399 . S
C152 C156 1.383 . S
C152 C159 1.496 . S
C153 C154 1.399 . S
C153 C156 1.389 . S
C154 C153 1.399 . S
C154 C157 1.380 . S
C154 H164 0.929 . S
C155 C152 1.399 . S
C155 C157 1.392 . S
C155 H165 0.929 . S
C156 C152 1.383 . S
C156 C153 1.389 . S
C156 H166 0.931 . S
C157 C154 1.380 . S
C157 C155 1.392 . S
C157 H167 0.929 . S
C158 O138 1.266 . S
C158 O139 1.248 . S
C159 Tb95 2.802 . S
C159 O134 1.264 . S
C159 O137 1.256 . S
C159 C152 1.496 . S
H160 C143 0.929 . S
H161 C144 0.929 . S
H162 C145 0.929 . S
H163 C146 0.931 . S
H164 C154 0.929 . S
H165 C155 0.929 . S
H166 C156 0.931 . S
H167 C157 0.929 . S
Tb168 N197 2.617 . S
Tb168 N203 2.572 . S
Tb168 O212 2.465 . S
Tb168 O213 2.387 . S
Tb168 O215 2.428 . S
Tb168 O216 2.308 . S
Tb168 O220 2.349 . S
Tb168 O223 2.393 . S
Tb168 C232 2.802 . S
C169 N170 1.399 . S
C169 C172 1.397 1_554 S
C169 C176 1.423 1_554 S
N170 C169 1.399 . S
N170 C173 1.334 . S
N170 Tb179 2.617 . S
C171 C173 1.390 . S
C171 C174 1.339 1_554 S
C171 H191 0.930 . S
C172 C169 1.397 1_556 S
C172 C174 1.416 . S
C172 C178 1.448 . S
C173 N170 1.334 . S
C173 C171 1.390 . S
C173 H184 0.930 . S
C174 C171 1.339 1_556 S
C174 C172 1.416 . S
C174 H195 0.930 . S
C175 C176 1.435 . S
C175 C177 1.427 . S
C175 C181 1.416 . S
C176 C169 1.423 1_556 S
C176 C175 1.435 . S
C176 N180 1.340 1_556 S
C177 C175 1.427 . S
C177 C178 1.328 . S
C177 H192 0.929 . S
C178 C172 1.448 . S
C178 C177 1.328 . S
C178 H193 0.930 . S
Tb179 N170 2.617 . S
Tb179 N180 2.572 . S
Tb179 O214 2.349 . S
Tb179 O217 2.393 . S
Tb179 O218 2.465 . S
Tb179 O219 2.387 . S
Tb179 O221 2.428 . S
Tb179 O222 2.308 . S
Tb179 C243 2.802 . S
N180 C176 1.340 1_554 S
N180 Tb179 2.572 . S
N180 C182 1.340 . S
C181 C175 1.416 . S
C181 C183 1.332 . S
C181 H189 0.931 . S
C182 N180 1.340 . S
C182 C183 1.407 1_554 S
C182 H188 0.930 . S
C183 C181 1.332 . S
C183 C182 1.407 1_556 S
C183 H185 0.929 . S
H184 C173 0.930 . S
H185 C183 0.929 . S
H186 C201 0.930 . S
H187 C208 0.929 . S
H188 C182 0.930 . S
H189 C181 0.931 . S
H190 C204 0.930 . S
H191 C171 0.930 . S
H192 C177 0.929 . S
H193 C178 0.930 . S
H194 C199 0.930 . S
H195 C174 0.930 . S
H196 C207 0.931 . S
N197 Tb168 2.617 . S
N197 C198 1.379 . S
N197 C201 1.334 . S
C198 N197 1.379 . S
C198 C200 1.416 . S
C198 C206 1.424 . S
C199 H194 0.930 . S
C199 C201 1.390 . S
C199 C202 1.339 . S
C200 C198 1.416 . S
C200 C202 1.416 . S
C200 C233 1.448 . S
C201 H186 0.930 . S
C201 N197 1.334 . S
C201 C199 1.390 . S
C202 C199 1.339 . S
C202 C200 1.416 . S
C202 H209 0.930 . S
N203 Tb168 2.572 . S
N203 C204 1.340 . S
N203 C206 1.361 . S
C204 H190 0.930 . S
C204 N203 1.340 . S
C204 C208 1.407 . S
C205 C206 1.413 . S
C205 C207 1.416 . S
C205 C234 1.427 . S
C206 C198 1.424 . S
C206 N203 1.361 . S
C206 C205 1.413 . S
C207 H196 0.931 . S
C207 C205 1.416 . S
C207 C208 1.332 . S
C208 H187 0.929 . S
C208 C204 1.407 . S
C208 C207 1.332 . S
H209 C202 0.930 . S
H210 C233 0.930 . S
H211 C234 0.929 . S
O212 Tb168 2.465 . S
O212 C232 1.264 . S
O213 Tb168 2.387 . S
O213 C224 1.264 . S
O214 Tb179 2.349 . S
O214 C224 1.243 . S
O215 Tb168 2.428 . S
O215 C232 1.256 . S
O216 Tb168 2.308 . S
O216 C231 1.266 . S
O217 Tb179 2.393 . S
O217 C231 1.248 . S
O218 Tb179 2.465 . S
O218 C243 1.264 . S
O219 Tb179 2.387 . S
O219 C235 1.264 . S
O220 Tb168 2.349 . S
O220 C235 1.243 . S
O221 Tb179 2.428 . S
O221 C243 1.256 . S
O222 Tb179 2.308 . S
O222 C242 1.266 . S
O223 Tb168 2.393 . S
O223 C242 1.248 . S
C224 O213 1.264 . S
C224 O214 1.243 . S
C225 C228 1.399 . S
C225 C230 1.383 . S
C225 C232 1.496 . S
C226 C227 1.399 . S
C226 C230 1.389 . S
C227 C226 1.399 . S
C227 C229 1.380 . S
C227 H244 0.929 . S
C228 C225 1.399 . S
C228 C229 1.392 . S
C228 H245 0.929 . S
C229 C227 1.380 . S
C229 C228 1.392 . S
C229 H246 0.929 . S
C230 C225 1.383 . S
C230 C226 1.389 . S
C230 H247 0.931 . S
C231 O216 1.266 . S
C231 O217 1.248 . S
C232 Tb168 2.802 . S
C232 O212 1.264 . S
C232 O215 1.256 . S
C232 C225 1.496 . S
C233 C200 1.448 . S
C233 H210 0.930 . S
C233 C234 1.328 . S
C234 C205 1.427 . S
C234 H211 0.929 . S
C234 C233 1.328 . S
C235 O219 1.264 . S
C235 O220 1.243 . S
C236 C239 1.399 . S
C236 C240 1.383 . S
C236 C243 1.496 . S
C237 C238 1.399 . S
C237 C240 1.389 . S
C238 C237 1.399 . S
C238 C241 1.380 . S
C238 H248 0.929 . S
C239 C236 1.399 . S
C239 C241 1.392 . S
C239 H249 0.929 . S
C240 C236 1.383 . S
C240 C237 1.389 . S
C240 H250 0.931 . S
C241 C238 1.380 . S
C241 C239 1.392 . S
C241 H251 0.929 . S
C242 O222 1.266 . S
C242 O223 1.248 . S
C243 Tb179 2.802 . S
C243 O218 1.264 . S
C243 O221 1.256 . S
C243 C236 1.496 . S
H244 C227 0.929 . S
H245 C228 0.929 . S
H246 C229 0.929 . S
H247 C230 0.931 . S
H248 C238 0.929 . S
H249 C239 0.929 . S
H250 C240 0.931 . S
H251 C241 0.929 . S
Tb252 N281 2.617 . S
Tb252 N287 2.572 . S
Tb252 O296 2.465 . S
Tb252 O297 2.387 . S
Tb252 O299 2.428 . S
Tb252 O300 2.308 . S
Tb252 O304 2.349 . S
Tb252 O307 2.393 . S
Tb252 C316 2.802 . S
C253 N254 1.379 . S
C253 C256 1.416 . S
C253 C260 1.424 . S
N254 C253 1.379 . S
N254 C257 1.334 . S
N254 Tb263 2.617 . S
C255 C257 1.390 . S
C255 C258 1.339 . S
C255 H275 0.930 . S
C256 C253 1.416 . S
C256 C258 1.416 . S
C256 C262 1.448 . S
C257 N254 1.334 . S
C257 C255 1.390 . S
C257 H268 0.930 . S
C258 C255 1.339 . S
C258 C256 1.416 . S
C258 H279 0.930 . S
C259 C260 1.413 . S
C259 C261 1.427 . S
C259 C265 1.416 . S
C260 C253 1.424 . S
C260 C259 1.413 . S
C260 N264 1.361 . S
C261 C259 1.427 . S
C261 C262 1.328 . S
C261 H276 0.929 . S
C262 C256 1.448 . S
C262 C261 1.328 . S
C262 H277 0.930 . S
Tb263 N254 2.617 . S
Tb263 N264 2.572 . S
Tb263 O298 2.349 . S
Tb263 O301 2.393 . S
Tb263 O302 2.465 . S
Tb263 O303 2.387 . S
Tb263 O305 2.428 . S
Tb263 O306 2.308 . S
Tb263 C327 2.802 . S
N264 C260 1.361 . S
N264 Tb263 2.572 . S
N264 C266 1.340 . S
C265 C259 1.416 . S
C265 C267 1.332 . S
C265 H273 0.931 . S
C266 N264 1.340 . S
C266 C267 1.407 . S
C266 H272 0.930 . S
C267 C265 1.332 . S
C267 C266 1.407 . S
C267 H269 0.929 . S
H268 C257 0.930 . S
H269 C267 0.929 . S
H270 C285 0.930 . S
H271 C292 0.929 . S
H272 C266 0.930 . S
H273 C265 0.931 . S
H274 C288 0.930 . S
H275 C255 0.930 . S
H276 C261 0.929 . S
H277 C262 0.930 . S
H278 C283 0.930 . S
H279 C258 0.930 . S
H280 C291 0.931 . S
N281 Tb252 2.617 . S
N281 C282 1.379 . S
N281 C285 1.334 . S
C282 N281 1.379 . S
C282 C284 1.416 . S
C282 C290 1.424 . S
C283 H278 0.930 . S
C283 C285 1.390 . S
C283 C286 1.339 . S
C284 C282 1.416 . S
C284 C286 1.416 . S
C284 C317 1.448 . S
C285 H270 0.930 . S
C285 N281 1.334 . S
C285 C283 1.390 . S
C286 C283 1.339 . S
C286 C284 1.416 . S
C286 H293 0.930 . S
N287 Tb252 2.572 . S
N287 C288 1.340 . S
N287 C290 1.361 . S
C288 H274 0.930 . S
C288 N287 1.340 . S
C288 C292 1.407 . S
C289 C290 1.413 . S
C289 C291 1.416 . S
C289 C318 1.427 . S
C290 C282 1.424 . S
C290 N287 1.361 . S
C290 C289 1.413 . S
C291 H280 0.931 . S
C291 C289 1.416 . S
C291 C292 1.332 . S
C292 H271 0.929 . S
C292 C288 1.407 . S
C292 C291 1.332 . S
H293 C286 0.930 . S
H294 C317 0.930 . S
H295 C318 0.929 . S
O296 Tb252 2.465 . S
O296 C316 1.264 . S
O297 Tb252 2.387 . S
O297 C308 1.264 . S
O298 Tb263 2.349 . S
O298 C308 1.243 . S
O299 Tb252 2.428 . S
O299 C316 1.256 . S
O300 Tb252 2.308 . S
O300 C315 1.266 . S
O301 Tb263 2.393 . S
O301 C315 1.248 . S
O302 Tb263 2.465 . S
O302 C327 1.264 . S
O303 Tb263 2.387 . S
O303 C319 1.264 . S
O304 Tb252 2.349 . S
O304 C319 1.243 . S
O305 Tb263 2.428 . S
O305 C327 1.256 . S
O306 Tb263 2.308 . S
O306 C326 1.266 . S
O307 Tb252 2.393 . S
O307 C326 1.248 . S
C308 O297 1.264 . S
C308 O298 1.243 . S
C309 C312 1.399 . S
C309 C314 1.383 . S
C309 C316 1.496 . S
C310 C311 1.399 . S
C310 C314 1.389 . S
C311 C310 1.399 . S
C311 C313 1.380 . S
C311 H328 0.929 . S
C312 C309 1.399 . S
C312 C313 1.392 . S
C312 H329 0.929 . S
C313 C311 1.380 . S
C313 C312 1.392 . S
C313 H330 0.929 . S
C314 C309 1.383 . S
C314 C310 1.389 . S
C314 H331 0.931 . S
C315 O300 1.266 . S
C315 O301 1.248 . S
C316 Tb252 2.802 . S
C316 O296 1.264 . S
C316 O299 1.256 . S
C316 C309 1.496 . S
C317 C284 1.448 . S
C317 H294 0.930 . S
C317 C318 1.328 . S
C318 C289 1.427 . S
C318 H295 0.929 . S
C318 C317 1.328 . S
C319 O303 1.264 . S
C319 O304 1.243 . S
C320 C323 1.399 . S
C320 C324 1.383 . S
C320 C327 1.496 . S
C321 C322 1.399 . S
C321 C324 1.389 . S
C322 C321 1.399 . S
C322 C325 1.380 . S
C322 H332 0.929 . S
C323 C320 1.399 . S
C323 C325 1.392 . S
C323 H333 0.929 . S
C324 C320 1.383 . S
C324 C321 1.389 . S
C324 H334 0.931 . S
C325 C322 1.380 . S
C325 C323 1.392 . S
C325 H335 0.929 . S
C326 O306 1.266 . S
C326 O307 1.248 . S
C327 Tb263 2.802 . S
C327 O302 1.264 . S
C327 O305 1.256 . S
C327 C320 1.496 . S
H328 C311 0.929 . S
H329 C312 0.929 . S
H330 C313 0.929 . S
H331 C314 0.931 . S
H332 C322 0.929 . S
H333 C323 0.929 . S
H334 C324 0.931 . S
H335 C325 0.929 . S
Tb336 N365 2.617 . S
Tb336 N371 2.572 . S
Tb336 O380 2.465 . S
Tb336 O381 2.387 . S
Tb336 O383 2.428 . S
Tb336 O384 2.308 . S
Tb336 O388 2.349 . S
Tb336 O391 2.393 . S
Tb336 C400 2.802 . S
C337 N338 1.379 . S
C337 C340 1.416 . S
C337 C344 1.424 . S
N338 C337 1.379 . S
N338 C341 1.334 . S
N338 Tb347 2.617 . S
C339 C341 1.390 . S
C339 C342 1.339 . S
C339 H359 0.930 . S
C340 C337 1.416 . S
C340 C342 1.416 . S
C340 C346 1.448 . S
C341 N338 1.334 . S
C341 C339 1.390 . S
C341 H352 0.930 . S
C342 C339 1.339 . S
C342 C340 1.416 . S
C342 H363 0.930 . S
C343 C344 1.413 . S
C343 C345 1.427 . S
C343 C349 1.416 . S
C344 C337 1.424 . S
C344 C343 1.413 . S
C344 N348 1.361 . S
C345 C343 1.427 . S
C345 C346 1.328 . S
C345 H360 0.929 . S
C346 C340 1.448 . S
C346 C345 1.328 . S
C346 H361 0.930 . S
Tb347 N338 2.617 . S
Tb347 N348 2.572 . S
Tb347 O382 2.349 . S
Tb347 O385 2.393 . S
Tb347 O386 2.465 . S
Tb347 O387 2.387 . S
Tb347 O389 2.428 . S
Tb347 O390 2.308 . S
Tb347 C411 2.802 . S
N348 C344 1.361 . S
N348 Tb347 2.572 . S
N348 C350 1.340 . S
C349 C343 1.416 . S
C349 C351 1.332 . S
C349 H357 0.931 . S
C350 N348 1.340 . S
C350 C351 1.407 . S
C350 H356 0.930 . S
C351 C349 1.332 . S
C351 C350 1.407 . S
C351 H353 0.929 . S
H352 C341 0.930 . S
H353 C351 0.929 . S
H354 C369 0.930 . S
H355 C376 0.929 . S
H356 C350 0.930 . S
H357 C349 0.931 . S
H358 C372 0.930 . S
H359 C339 0.930 . S
H360 C345 0.929 . S
H361 C346 0.930 . S
H362 C367 0.930 . S
H363 C342 0.930 . S
H364 C375 0.931 . S
N365 Tb336 2.617 . S
N365 C366 1.399 . S
N365 C369 1.334 . S
C366 N365 1.399 . S
C366 C368 1.397 1_556 S
C366 C374 1.423 1_556 S
C367 H362 0.930 . S
C367 C369 1.390 . S
C367 C370 1.339 1_556 S
C368 C366 1.397 1_554 S
C368 C370 1.416 . S
C368 C401 1.448 . S
C369 H354 0.930 . S
C369 N365 1.334 . S
C369 C367 1.390 . S
C370 C367 1.339 1_554 S
C370 C368 1.416 . S
C370 H377 0.930 . S
N371 Tb336 2.572 . S
N371 C372 1.340 . S
N371 C374 1.340 1_556 S
C372 H358 0.930 . S
C372 N371 1.340 . S
C372 C376 1.407 1_556 S
C373 C374 1.435 . S
C373 C375 1.416 . S
C373 C402 1.427 . S
C374 C366 1.423 1_554 S
C374 N371 1.340 1_554 S
C374 C373 1.435 . S
C375 H364 0.931 . S
C375 C373 1.416 . S
C375 C376 1.332 . S
C376 H355 0.929 . S
C376 C372 1.407 1_554 S
C376 C375 1.332 . S
H377 C370 0.930 . S
H378 C401 0.930 . S
H379 C402 0.929 . S
O380 Tb336 2.465 . S
O380 C400 1.264 . S
O381 Tb336 2.387 . S
O381 C392 1.264 . S
O382 Tb347 2.349 . S
O382 C392 1.243 . S
O383 Tb336 2.428 . S
O383 C400 1.256 . S
O384 Tb336 2.308 . S
O384 C399 1.266 . S
O385 Tb347 2.393 . S
O385 C399 1.248 . S
O386 Tb347 2.465 . S
O386 C411 1.264 . S
O387 Tb347 2.387 . S
O387 C403 1.264 . S
O388 Tb336 2.349 . S
O388 C403 1.243 . S
O389 Tb347 2.428 . S
O389 C411 1.256 . S
O390 Tb347 2.308 . S
O390 C410 1.266 . S
O391 Tb336 2.393 . S
O391 C410 1.248 . S
C392 O381 1.264 . S
C392 O382 1.243 . S
C393 C396 1.399 . S
C393 C398 1.383 . S
C393 C400 1.496 . S
C394 C395 1.399 . S
C394 C398 1.389 . S
C395 C394 1.399 . S
C395 C397 1.380 . S
C395 H412 0.929 . S
C396 C393 1.399 . S
C396 C397 1.392 . S
C396 H413 0.929 . S
C397 C395 1.380 . S
C397 C396 1.392 . S
C397 H414 0.929 . S
C398 C393 1.383 . S
C398 C394 1.389 . S
C398 H415 0.931 . S
C399 O384 1.266 . S
C399 O385 1.248 . S
C400 Tb336 2.802 . S
C400 O380 1.264 . S
C400 O383 1.256 . S
C400 C393 1.496 . S
C401 C368 1.448 . S
C401 H378 0.930 . S
C401 C402 1.328 . S
C402 C373 1.427 . S
C402 H379 0.929 . S
C402 C401 1.328 . S
C403 O387 1.264 . S
C403 O388 1.243 . S
C404 C407 1.399 . S
C404 C408 1.383 . S
C404 C411 1.496 1_545 S
C405 C406 1.399 . S
C405 C408 1.389 . S
C406 C405 1.399 . S
C406 C409 1.380 . S
C406 H416 0.929 . S
C407 C404 1.399 . S
C407 C409 1.392 . S
C407 H417 0.929 . S
C408 C404 1.383 . S
C408 C405 1.389 . S
C408 H418 0.931 . S
C409 C406 1.380 . S
C409 C407 1.392 . S
C409 H419 0.929 . S
C410 O390 1.266 . S
C410 O391 1.248 . S
C411 Tb347 2.802 . S
C411 O386 1.264 . S
C411 O389 1.256 . S
C411 C404 1.496 1_565 S
H412 C395 0.929 . S
H413 C396 0.929 . S
H414 C397 0.929 . S
H415 C398 0.931 . S
H416 C406 0.929 . S
H417 C407 0.929 . S
H418 C408 0.931 . S
H419 C409 0.929 . S
Tb420 N449 2.617 . S
Tb420 N455 2.572 . S
Tb420 O464 2.465 . S
Tb420 O465 2.387 . S
Tb420 O467 2.428 . S
Tb420 O468 2.308 . S
Tb420 O472 2.349 . S
Tb420 O475 2.393 . S
Tb420 C484 2.802 . S
C421 N422 1.379 . S
C421 C424 1.416 . S
C421 C428 1.424 . S
N422 C421 1.379 . S
N422 C425 1.334 . S
N422 Tb431 2.617 . S
C423 C425 1.390 . S
C423 C426 1.339 . S
C423 H443 0.930 . S
C424 C421 1.416 . S
C424 C426 1.416 . S
C424 C430 1.448 . S
C425 N422 1.334 . S
C425 C423 1.390 . S
C425 H436 0.930 . S
C426 C423 1.339 . S
C426 C424 1.416 . S
C426 H447 0.930 . S
C427 C428 1.413 . S
C427 C429 1.427 . S
C427 C433 1.416 . S
C428 C421 1.424 . S
C428 C427 1.413 . S
C428 N432 1.361 . S
C429 C427 1.427 . S
C429 C430 1.328 . S
C429 H444 0.929 . S
C430 C424 1.448 . S
C430 C429 1.328 . S
C430 H445 0.930 . S
Tb431 N422 2.617 . S
Tb431 N432 2.572 . S
Tb431 O466 2.349 . S
Tb431 O469 2.393 . S
Tb431 O470 2.465 . S
Tb431 O471 2.387 . S
Tb431 O473 2.428 . S
Tb431 O474 2.308 . S
Tb431 C495 2.802 . S
N432 C428 1.361 . S
N432 Tb431 2.572 . S
N432 C434 1.340 . S
C433 C427 1.416 . S
C433 C435 1.332 . S
C433 H441 0.931 . S
C434 N432 1.340 . S
C434 C435 1.407 . S
C434 H440 0.930 . S
C435 C433 1.332 . S
C435 C434 1.407 . S
C435 H437 0.929 . S
H436 C425 0.930 . S
H437 C435 0.929 . S
H438 C453 0.930 . S
H439 C460 0.929 . S
H440 C434 0.930 . S
H441 C433 0.931 . S
H442 C456 0.930 . S
H443 C423 0.930 . S
H444 C429 0.929 . S
H445 C430 0.930 . S
H446 C451 0.930 . S
H447 C426 0.930 . S
H448 C459 0.931 . S
N449 Tb420 2.617 . S
N449 C450 1.379 . S
N449 C453 1.334 . S
C450 N449 1.379 . S
C450 C452 1.416 . S
C450 C458 1.424 . S
C451 H446 0.930 . S
C451 C453 1.390 . S
C451 C454 1.339 . S
C452 C450 1.416 . S
C452 C454 1.416 . S
C452 C485 1.448 . S
C453 H438 0.930 . S
C453 N449 1.334 . S
C453 C451 1.390 . S
C454 C451 1.339 . S
C454 C452 1.416 . S
C454 H461 0.930 . S
N455 Tb420 2.572 . S
N455 C456 1.340 . S
N455 C458 1.361 . S
C456 H442 0.930 . S
C456 N455 1.340 . S
C456 C460 1.407 . S
C457 C458 1.413 . S
C457 C459 1.416 . S
C457 C486 1.427 . S
C458 C450 1.424 . S
C458 N455 1.361 . S
C458 C457 1.413 . S
C459 H448 0.931 . S
C459 C457 1.416 . S
C459 C460 1.332 . S
C460 H439 0.929 . S
C460 C456 1.407 . S
C460 C459 1.332 . S
H461 C454 0.930 . S
H462 C485 0.930 . S
H463 C486 0.929 . S
O464 Tb420 2.465 . S
O464 C484 1.264 . S
O465 Tb420 2.387 . S
O465 C476 1.264 . S
O466 Tb431 2.349 . S
O466 C476 1.243 . S
O467 Tb420 2.428 . S
O467 C484 1.256 . S
O468 Tb420 2.308 . S
O468 C483 1.266 . S
O469 Tb431 2.393 . S
O469 C483 1.248 . S
O470 Tb431 2.465 . S
O470 C495 1.264 . S
O471 Tb431 2.387 . S
O471 C487 1.264 . S
O472 Tb420 2.349 . S
O472 C487 1.243 . S
O473 Tb431 2.428 . S
O473 C495 1.256 . S
O474 Tb431 2.308 . S
O474 C494 1.266 . S
O475 Tb420 2.393 . S
O475 C494 1.248 . S
C476 O465 1.264 . S
C476 O466 1.243 . S
C477 C480 1.399 1_655 S
C477 C482 1.398 . S
C477 C484 1.496 . S
C478 C479 1.399 . S
C478 C482 1.364 1_455 S
C479 C478 1.399 . S
C479 C481 1.380 . S
C479 H496 0.929 . S
C480 C477 1.399 1_455 S
C480 C481 1.392 . S
C480 H497 0.929 . S
C481 C479 1.380 . S
C481 C480 1.392 . S
C481 H498 0.929 . S
C482 C477 1.398 . S
C482 C478 1.364 1_655 S
C482 H499 0.942 . S
C483 O468 1.266 . S
C483 O469 1.248 . S
C484 Tb420 2.802 . S
C484 O464 1.264 . S
C484 O467 1.256 . S
C484 C477 1.496 . S
C485 C452 1.448 . S
C485 H462 0.930 . S
C485 C486 1.328 . S
C486 C457 1.427 . S
C486 H463 0.929 . S
C486 C485 1.328 . S
C487 O471 1.264 . S
C487 O472 1.243 . S
C488 C491 1.399 . S
C488 C492 1.383 . S
C488 C495 1.496 . S
C489 C490 1.399 . S
C489 C492 1.389 . S
C490 C489 1.399 . S
C490 C493 1.380 . S
C490 H500 0.929 . S
C491 C488 1.399 . S
C491 C493 1.392 . S
C491 H501 0.929 . S
C492 C488 1.383 . S
C492 C489 1.389 . S
C492 H502 0.931 . S
C493 C490 1.380 . S
C493 C491 1.392 . S
C493 H503 0.929 . S
C494 O474 1.266 . S
C494 O475 1.248 . S
C495 Tb431 2.802 . S
C495 O470 1.264 . S
C495 O473 1.256 . S
C495 C488 1.496 . S
H496 C479 0.929 . S
H497 C480 0.929 . S
H498 C481 0.929 . S
H499 C482 0.942 . S
H500 C490 0.929 . S
H501 C491 0.929 . S
H502 C492 0.931 . S
H503 C493 0.929 . S
Tb504 N533 2.617 . S
Tb504 N539 2.572 . S
Tb504 O548 2.465 1_565 S
Tb504 O549 2.387 . S
Tb504 O551 2.428 . S
Tb504 O552 2.308 . S
Tb504 O556 2.349 . S
Tb504 O559 2.366 1_455 S
Tb504 C568 2.802 1_565 S
C505 N506 1.379 1_554 S
C505 C508 1.416 . S
C505 C512 1.424 . S
N506 C505 1.379 1_556 S
N506 C509 1.334 . S
N506 Tb515 2.617 . S
C507 C509 1.390 1_554 S
C507 C510 1.339 . S
C507 H527 0.930 . S
C508 C505 1.416 . S
C508 C510 1.416 . S
C508 C514 1.448 . S
C509 N506 1.334 . S
C509 C507 1.390 1_556 S
C509 H520 0.930 . S
C510 C507 1.339 . S
C510 C508 1.416 . S
C510 H531 0.930 . S
C511 C512 1.413 . S
C511 C513 1.427 . S
C511 C517 1.415 . S
C512 C505 1.424 . S
C512 C511 1.413 . S
C512 N516 1.361 1_554 S
C513 C511 1.427 . S
C513 C514 1.328 . S
C513 H528 0.929 . S
C514 C508 1.448 . S
C514 C513 1.328 . S
C514 H529 0.930 1_565 S
Tb515 N506 2.617 . S
Tb515 N516 2.572 . S
Tb515 O550 2.349 . S
Tb515 O553 2.393 . S
Tb515 O554 2.465 . S
Tb515 O555 2.387 . S
Tb515 O557 2.428 . S
Tb515 O558 2.308 . S
Tb515 C579 2.802 . S
N516 C512 1.361 1_556 S
N516 Tb515 2.572 . S
N516 C518 1.340 1_455 S
C517 C511 1.415 . S
C517 C519 1.333 1_455 S
C517 H525 0.932 1_455 S
C518 N516 1.340 1_655 S
C518 C519 1.407 1_556 S
C518 H524 0.930 . S
C519 C517 1.333 1_655 S
C519 C518 1.407 1_554 S
C519 H521 0.929 . S
H520 C509 0.930 . S
H521 C519 0.929 . S
H522 C537 0.930 . S
H523 C544 0.929 . S
H524 C518 0.930 . S
H525 C517 0.932 1_655 S
H526 C540 0.930 . S
H527 C507 0.930 . S
H528 C513 0.929 . S
H529 C514 0.930 1_545 S
H530 C535 0.930 . S
H531 C510 0.930 . S
H532 C543 0.931 . S
N533 Tb504 2.617 . S
N533 C534 1.379 . S
N533 C537 1.334 1_455 S
C534 N533 1.379 . S
C534 C536 1.416 . S
C534 C542 1.424 . S
C535 H530 0.930 . S
C535 C537 1.390 . S
C535 C538 1.339 . S
C536 C534 1.416 . S
C536 C538 1.416 1_455 S
C536 C569 1.448 . S
C537 H522 0.930 . S
C537 N533 1.334 1_655 S
C537 C535 1.390 . S
C538 C535 1.339 . S
C538 C536 1.416 1_655 S
C538 H545 0.930 . S
N539 Tb504 2.572 . S
N539 C540 1.340 . S
N539 C542 1.361 . S
C540 H526 0.930 . S
C540 N539 1.340 . S
C540 C544 1.407 . S
C541 C542 1.413 . S
C541 C543 1.416 . S
C541 C570 1.427 . S
C542 C534 1.424 . S
C542 N539 1.361 . S
C542 C541 1.413 . S
C543 H532 0.931 . S
C543 C541 1.416 . S
C543 C544 1.332 . S
C544 H523 0.929 . S
C544 C540 1.407 . S
C544 C543 1.332 . S
H545 C538 0.930 . S
H546 C569 0.930 . S
H547 C570 0.929 . S
O548 Tb504 2.465 1_545 S
O548 C568 1.264 . S
O549 Tb504 2.387 . S
O549 C560 1.264 . S
O550 Tb515 2.349 . S
O550 C560 1.243 . S
O551 Tb504 2.428 . S
O551 C568 1.256 1_565 S
O552 Tb504 2.308 . S
O552 C567 1.266 . S
O553 Tb515 2.393 . S
O553 C567 1.248 . S
O554 Tb515 2.465 . S
O554 C579 1.264 . S
O555 Tb515 2.387 . S
O555 C571 1.264 . S
O556 Tb504 2.349 . S
O556 C571 1.243 . S
O557 Tb515 2.428 . S
O557 C579 1.256 . S
O558 Tb515 2.308 . S
O558 C578 1.266 1_455 S
O559 Tb504 2.366 1_655 S
O559 C578 1.250 . S
C560 O549 1.264 . S
C560 O550 1.243 . S
C561 C564 1.399 . S
C561 C566 1.383 . S
C561 C568 1.496 . S
C562 C563 1.399 . S
C562 C566 1.389 . S
C563 C562 1.399 . S
C563 C565 1.380 . S
C563 H580 0.929 . S
C564 C561 1.399 . S
C564 C565 1.392 . S
C564 H581 0.929 . S
C565 C563 1.380 . S
C565 C564 1.392 . S
C565 H582 0.929 . S
C566 C561 1.383 . S
C566 C562 1.389 . S
C566 H583 0.931 . S
C567 O552 1.266 . S
C567 O553 1.248 . S
C568 Tb504 2.802 1_545 S
C568 O548 1.264 . S
C568 O551 1.256 1_545 S
C568 C561 1.496 . S
C569 C536 1.448 . S
C569 H546 0.930 . S
C569 C570 1.328 . S
C570 C541 1.427 . S
C570 H547 0.929 . S
C570 C569 1.328 . S
C571 O555 1.264 . S
C571 O556 1.243 . S
C572 C575 1.399 . S
C572 C576 1.383 1_455 S
C572 C579 1.496 . S
C573 C574 1.399 1_655 S
C573 C576 1.389 . S
C574 C573 1.399 1_455 S
C574 C577 1.380 . S
C574 H584 0.929 . S
C575 C572 1.399 . S
C575 C577 1.392 . S
C575 H585 0.929 . S
C576 C572 1.383 1_655 S
C576 C573 1.389 . S
C576 H586 0.931 . S
C577 C574 1.380 . S
C577 C575 1.392 . S
C577 H587 0.929 . S
C578 O558 1.266 1_655 S
C578 O559 1.250 . S
C579 Tb515 2.802 . S
C579 O554 1.264 . S
C579 O557 1.256 . S
C579 C572 1.496 . S
H580 C563 0.929 . S
H581 C564 0.929 . S
H582 C565 0.929 . S
H583 C566 0.931 . S
H584 C574 0.929 . S
H585 C575 0.929 . S
H586 C576 0.931 . S
H587 C577 0.929 . S
Tb588 N617 2.617 . S
Tb588 N623 2.572 . S
Tb588 O632 2.465 . S
Tb588 O633 2.387 . S
Tb588 O635 2.428 . S
Tb588 O636 2.308 . S
Tb588 O640 2.349 1_545 S
Tb588 O643 2.393 . S
Tb588 C652 2.802 . S
C589 N590 1.379 . S
C589 C592 1.416 . S
C589 C596 1.424 . S
N590 C589 1.379 . S
N590 C593 1.334 . S
N590 Tb599 2.617 1_565 S
C591 C593 1.390 . S
C591 C594 1.339 . S
C591 H611 0.930 . S
C592 C589 1.416 . S
C592 C594 1.416 . S
C592 C598 1.448 . S
C593 N590 1.334 . S
C593 C591 1.390 . S
C593 H604 0.930 1_565 S
C594 C591 1.339 . S
C594 C592 1.416 . S
C594 H615 0.930 . S
C595 C596 1.413 . S
C595 C597 1.427 . S
C595 C601 1.416 . S
C596 C589 1.424 . S
C596 C595 1.413 . S
C596 N600 1.361 . S
C597 C595 1.427 . S
C597 C598 1.328 . S
C597 H612 0.929 . S
C598 C592 1.448 . S
C598 C597 1.328 . S
C598 H613 0.930 . S
Tb599 N590 2.617 1_545 S
Tb599 N600 2.572 1_545 S
Tb599 O634 2.349 . S
Tb599 O637 2.393 . S
Tb599 O638 2.465 . S
Tb599 O639 2.387 1_545 S
Tb599 O641 2.428 . S
Tb599 O642 2.308 . S
Tb599 C663 2.802 . S
N600 C596 1.361 . S
N600 Tb599 2.572 1_565 S
N600 C602 1.340 . S
C601 C595 1.416 . S
C601 C603 1.332 . S
C601 H609 0.931 . S
C602 N600 1.340 . S
C602 C603 1.407 . S
C602 H608 0.930 . S
C603 C601 1.332 . S
C603 C602 1.407 . S
C603 H605 0.929 . S
H604 C593 0.930 1_545 S
H605 C603 0.929 . S
H606 C621 0.930 . S
H607 C628 0.929 . S
H608 C602 0.930 . S
H609 C601 0.931 . S
H610 C624 0.930 . S
H611 C591 0.930 . S
H612 C597 0.929 . S
H613 C598 0.930 . S
H614 C619 0.930 . S
H615 C594 0.930 . S
H616 C627 0.931 . S
N617 Tb588 2.617 . S
N617 C618 1.379 . S
N617 C621 1.334 . S
C618 N617 1.379 . S
C618 C620 1.416 . S
C618 C626 1.424 . S
C619 H614 0.930 . S
C619 C621 1.390 . S
C619 C622 1.339 . S
C620 C618 1.416 . S
C620 C622 1.416 . S
C620 C653 1.448 . S
C621 H606 0.930 . S
C621 N617 1.334 . S
C621 C619 1.390 . S
C622 C619 1.339 . S
C622 C620 1.416 . S
C622 H629 0.930 . S
N623 Tb588 2.572 . S
N623 C624 1.340 . S
N623 C626 1.361 . S
C624 H610 0.930 . S
C624 N623 1.340 . S
C624 C628 1.407 . S
C625 C626 1.413 . S
C625 C627 1.416 . S
C625 C654 1.427 . S
C626 C618 1.424 . S
C626 N623 1.361 . S
C626 C625 1.413 . S
C627 H616 0.931 . S
C627 C625 1.416 . S
C627 C628 1.332 . S
C628 H607 0.929 . S
C628 C624 1.407 . S
C628 C627 1.332 . S
H629 C622 0.930 . S
H630 C653 0.930 . S
H631 C654 0.929 . S
O632 Tb588 2.465 . S
O632 C652 1.264 . S
O633 Tb588 2.387 . S
O633 C644 1.264 . S
O634 Tb599 2.349 . S
O634 C644 1.243 . S
O635 Tb588 2.428 . S
O635 C652 1.256 . S
O636 Tb588 2.308 . S
O636 C651 1.266 . S
O637 Tb599 2.393 . S
O637 C651 1.248 . S
O638 Tb599 2.465 . S
O638 C663 1.264 . S
O639 Tb599 2.387 1_565 S
O639 C655 1.264 . S
O640 Tb588 2.349 1_565 S
O640 C655 1.243 . S
O641 Tb599 2.428 . S
O641 C663 1.256 . S
O642 Tb599 2.308 . S
O642 C662 1.266 . S
O643 Tb588 2.393 . S
O643 C662 1.248 . S
C644 O633 1.264 . S
C644 O634 1.243 . S
C645 C648 1.399 . S
C645 C650 1.383 . S
C645 C652 1.496 . S
C646 C647 1.399 . S
C646 C650 1.389 . S
C647 C646 1.399 . S
C647 C649 1.380 . S
C647 H664 0.929 . S
C648 C645 1.399 . S
C648 C649 1.392 . S
C648 H665 0.929 . S
C649 C647 1.380 . S
C649 C648 1.392 . S
C649 H666 0.929 . S
C650 C645 1.383 . S
C650 C646 1.389 . S
C650 H667 0.931 . S
C651 O636 1.266 . S
C651 O637 1.248 . S
C652 Tb588 2.802 . S
C652 O632 1.264 . S
C652 O635 1.256 . S
C652 C645 1.496 . S
C653 C620 1.448 . S
C653 H630 0.930 . S
C653 C654 1.328 . S
C654 C625 1.427 . S
C654 H631 0.929 . S
C654 C653 1.328 . S
C655 O639 1.264 . S
C655 O640 1.243 . S
C656 C659 1.399 . S
C656 C660 1.383 . S
C656 C663 1.496 . S
C657 C658 1.399 . S
C657 C660 1.389 . S
C658 C657 1.399 . S
C658 C661 1.380 . S
C658 H668 0.929 . S
C659 C656 1.399 . S
C659 C661 1.392 . S
C659 H669 0.929 . S
C660 C656 1.383 . S
C660 C657 1.389 . S
C660 H670 0.931 . S
C661 C658 1.380 . S
C661 C659 1.392 . S
C661 H671 0.929 . S
C662 O642 1.266 . S
C662 O643 1.248 . S
C663 Tb599 2.802 . S
C663 O638 1.264 . S
C663 O641 1.256 . S
C663 C656 1.496 . S
H664 C647 0.929 . S
H665 C648 0.929 . S
H666 C649 0.929 . S
H667 C650 0.931 . S
H668 C658 0.929 . S
H669 C659 0.929 . S
H670 C660 0.931 . S
H671 C661 0.929 . S
H672 C684 0.930 . S
H673 C686 0.930 . S
H674 C687 0.930 . S
H675 C691 0.959 . S
H676 C691 0.959 1_565 S
H677 C691 0.961 1_565 S
H678 C692 0.960 . S
H679 C692 0.961 . S
H680 C692 0.959 . S
H681 C695 0.929 . S
H682 C696 0.931 . S
H683 C698 0.930 . S
C684 H672 0.930 . S
C684 C685 1.399 . S
C684 C689 1.399 . S
C685 C684 1.399 . S
C685 C686 1.376 . S
C686 H673 0.930 . S
C686 C685 1.376 . S
C686 C687 1.388 . S
C687 H674 0.930 . S
C687 C686 1.388 . S
C687 C688 1.390 . S
C688 C687 1.390 . S
C688 C689 1.394 . S
C688 C694 1.465 . S
C689 C684 1.399 . S
C689 C688 1.394 . S
C689 C690 1.516 . S
C690 C689 1.516 . S
C690 C691 1.502 . S
C690 C692 1.561 1_545 S
C690 C693 1.526 . S
C691 H675 0.959 . S
C691 H676 0.959 1_545 S
C691 H677 0.961 1_545 S
C691 C690 1.502 . S
C692 H678 0.960 . S
C692 H679 0.961 . S
C692 H680 0.959 . S
C692 C690 1.561 1_565 S
C693 C690 1.526 . S
C693 C694 1.396 . S
C693 C698 1.390 . S
C694 C688 1.465 . S
C694 C693 1.396 . S
C694 C695 1.399 . S
C695 H681 0.929 . S
C695 C694 1.399 . S
C695 C696 1.385 . S
C696 H682 0.931 . S
C696 C695 1.385 . S
C696 C697 1.389 . S
C697 C696 1.389 . S
C697 C698 1.387 . S
C698 H683 0.930 . S
C698 C693 1.390 . S
C698 C697 1.387 . S
H699 C711 0.930 . S
H700 C713 0.930 . S
H701 C714 0.930 . S
H702 C718 0.959 . S
H703 C718 0.959 . S
H704 C718 0.961 . S
H705 C719 0.960 . S
H706 C719 0.961 . S
H707 C719 0.959 . S
H708 C722 0.929 . S
H709 C723 0.931 . S
H710 C725 0.930 . S
C711 H699 0.930 . S
C711 C712 1.399 . S
C711 C716 1.399 . S
C712 C711 1.399 . S
C712 C713 1.376 . S
C713 H700 0.930 . S
C713 C712 1.376 . S
C713 C714 1.388 . S
C714 H701 0.930 . S
C714 C713 1.388 . S
C714 C715 1.390 . S
C715 C714 1.390 . S
C715 C716 1.394 . S
C715 C721 1.465 . S
C716 C711 1.399 . S
C716 C715 1.394 . S
C716 C717 1.516 . S
C717 C716 1.516 . S
C717 C718 1.502 . S
C717 C719 1.561 . S
C717 C720 1.526 . S
C718 H702 0.959 . S
C718 H703 0.959 . S
C718 H704 0.961 . S
C718 C717 1.502 . S
C719 H705 0.960 . S
C719 H706 0.961 . S
C719 H707 0.959 . S
C719 C717 1.561 . S
C720 C717 1.526 . S
C720 C721 1.396 . S
C720 C725 1.390 . S
C721 C715 1.465 . S
C721 C720 1.396 . S
C721 C722 1.399 . S
C722 H708 0.929 . S
C722 C721 1.399 . S
C722 C723 1.385 . S
C723 H709 0.931 . S
C723 C722 1.385 . S
C723 C724 1.389 . S
C724 C723 1.389 . S
C724 C725 1.387 . S
C725 H710 0.930 . S
C725 C720 1.390 . S
C725 C724 1.387 . S
H726 C738 0.930 . S
H727 C740 0.930 . S
H728 C741 0.930 . S
H729 C745 0.959 . S
H730 C745 0.959 . S
H731 C745 0.961 . S
H732 C746 0.960 . S
H733 C746 0.961 . S
H734 C746 0.959 . S
H735 C749 0.929 . S
H736 C750 0.931 . S
H737 C752 0.930 . S
C738 H726 0.930 . S
C738 C739 1.399 . S
C738 C743 1.399 . S
C739 C738 1.399 . S
C739 C740 1.376 . S
C740 H727 0.930 . S
C740 C739 1.376 . S
C740 C741 1.388 . S
C741 H728 0.930 . S
C741 C740 1.388 . S
C741 C742 1.390 . S
C742 C741 1.390 . S
C742 C743 1.394 . S
C742 C748 1.465 . S
C743 C738 1.399 . S
C743 C742 1.394 . S
C743 C744 1.516 . S
C744 C743 1.516 . S
C744 C745 1.502 . S
C744 C746 1.561 . S
C744 C747 1.526 . S
C745 H729 0.959 . S
C745 H730 0.959 . S
C745 H731 0.961 . S
C745 C744 1.502 . S
C746 H732 0.960 . S
C746 H733 0.961 . S
C746 H734 0.959 . S
C746 C744 1.561 . S
C747 C744 1.526 . S
C747 C748 1.396 . S
C747 C752 1.390 . S
C748 C742 1.465 . S
C748 C747 1.396 . S
C748 C749 1.399 . S
C749 H735 0.929 . S
C749 C748 1.399 . S
C749 C750 1.385 . S
C750 H736 0.931 . S
C750 C749 1.385 . S
C750 C751 1.389 . S
C751 C750 1.389 . S
C751 C752 1.387 . S
C752 H737 0.930 . S
C752 C747 1.390 . S
C752 C751 1.387 . S
H753 C765 0.930 . S
H754 C767 0.930 . S
H755 C768 0.930 . S
H756 C772 0.959 . S
H757 C772 0.959 . S
H758 C772 0.961 . S
H759 C773 0.960 . S
H760 C773 0.961 . S
H761 C773 0.959 . S
H762 C776 0.929 . S
H763 C777 0.931 . S
H764 C779 0.930 . S
C765 H753 0.930 . S
C765 C766 1.399 . S
C765 C770 1.399 . S
C766 C765 1.399 . S
C766 C767 1.376 . S
C767 H754 0.930 . S
C767 C766 1.376 . S
C767 C768 1.388 . S
C768 H755 0.930 . S
C768 C767 1.388 . S
C768 C769 1.390 . S
C769 C768 1.390 . S
C769 C770 1.394 . S
C769 C775 1.465 . S
C770 C765 1.399 . S
C770 C769 1.394 . S
C770 C771 1.516 . S
C771 C770 1.516 . S
C771 C772 1.502 . S
C771 C773 1.561 . S
C771 C774 1.526 . S
C772 H756 0.959 . S
C772 H757 0.959 . S
C772 H758 0.961 . S
C772 C771 1.502 . S
C773 H759 0.960 . S
C773 H760 0.961 . S
C773 H761 0.959 . S
C773 C771 1.561 . S
C774 C771 1.526 . S
C774 C775 1.396 . S
C774 C779 1.390 . S
C775 C769 1.465 . S
C775 C774 1.396 . S
C775 C776 1.399 . S
C776 H762 0.929 . S
C776 C775 1.399 . S
C776 C777 1.385 . S
C777 H763 0.931 . S
C777 C776 1.385 . S
C777 C778 1.389 . S
C778 C777 1.389 . S
C778 C779 1.387 . S
C779 H764 0.930 . S
C779 C774 1.390 . S
C779 C778 1.387 . S
H780 C792 0.930 . S
H781 C794 0.930 . S
H782 C795 0.930 . S
H783 C799 0.959 . S
H784 C799 0.959 . S
H785 C799 0.961 . S
H786 C800 0.960 . S
H787 C800 0.961 . S
H788 C800 0.959 . S
H789 C803 0.929 . S
H790 C804 0.931 . S
H791 C806 0.930 . S
C792 H780 0.930 . S
C792 C793 1.399 . S
C792 C797 1.399 . S
C793 C792 1.399 . S
C793 C794 1.376 . S
C794 H781 0.930 . S
C794 C793 1.376 . S
C794 C795 1.388 . S
C795 H782 0.930 . S
C795 C794 1.388 . S
C795 C796 1.390 . S
C796 C795 1.390 . S
C796 C797 1.394 . S
C796 C802 1.465 . S
C797 C792 1.399 . S
C797 C796 1.394 . S
C797 C798 1.516 . S
C798 C797 1.516 . S
C798 C799 1.502 . S
C798 C800 1.561 . S
C798 C801 1.526 . S
C799 H783 0.959 . S
C799 H784 0.959 . S
C799 H785 0.961 . S
C799 C798 1.502 . S
C800 H786 0.960 . S
C800 H787 0.961 . S
C800 H788 0.959 . S
C800 C798 1.561 . S
C801 C798 1.526 . S
C801 C802 1.396 . S
C801 C806 1.390 . S
C802 C796 1.465 . S
C802 C801 1.396 . S
C802 C803 1.399 . S
C803 H789 0.929 . S
C803 C802 1.399 . S
C803 C804 1.385 . S
C804 H790 0.931 . S
C804 C803 1.385 . S
C804 C805 1.389 . S
C805 C804 1.389 . S
C805 C806 1.387 . S
C806 H791 0.930 . S
C806 C801 1.390 . S
C806 C805 1.387 . S
H807 C819 0.930 . S
H808 C821 0.930 . S
H809 C822 0.930 . S
H810 C826 0.959 . S
H811 C826 0.959 . S
H812 C826 0.961 . S
H813 C827 0.960 . S
H814 C827 0.961 . S
H815 C827 0.959 . S
H816 C830 0.929 . S
H817 C831 0.931 . S
H818 C833 0.930 . S
C819 H807 0.930 . S
C819 C820 1.399 . S
C819 C824 1.399 . S
C820 C819 1.399 . S
C820 C821 1.376 . S
C821 H808 0.930 . S
C821 C820 1.376 . S
C821 C822 1.388 . S
C822 H809 0.930 . S
C822 C821 1.388 . S
C822 C823 1.390 . S
C823 C822 1.390 . S
C823 C824 1.394 . S
C823 C829 1.465 . S
C824 C819 1.399 . S
C824 C823 1.394 . S
C824 C825 1.516 . S
C825 C824 1.516 . S
C825 C826 1.502 . S
C825 C827 1.561 . S
C825 C828 1.526 . S
C826 H810 0.959 . S
C826 H811 0.959 . S
C826 H812 0.961 . S
C826 C825 1.502 . S
C827 H813 0.960 . S
C827 H814 0.961 . S
C827 H815 0.959 . S
C827 C825 1.561 . S
C828 C825 1.526 . S
C828 C829 1.396 . S
C828 C833 1.390 . S
C829 C823 1.465 . S
C829 C828 1.396 . S
C829 C830 1.399 . S
C830 H816 0.929 . S
C830 C829 1.399 . S
C830 C831 1.385 . S
C831 H817 0.931 . S
C831 C830 1.385 . S
C831 C832 1.389 . S
C832 C831 1.389 . S
C832 C833 1.387 . S
C833 H818 0.930 . S
C833 C828 1.390 . S
C833 C832 1.387 . S
H834 C846 0.930 . S
H835 C848 0.930 . S
H836 C849 0.930 . S
H837 C853 0.959 . S
H838 C853 0.959 . S
H839 C853 0.961 . S
H840 C854 0.960 . S
H841 C854 0.961 . S
H842 C854 0.959 . S
H843 C857 0.929 . S
H844 C858 0.931 . S
H845 C860 0.930 . S
C846 H834 0.930 . S
C846 C847 1.399 . S
C846 C851 1.399 . S
C847 C846 1.399 . S
C847 C848 1.376 . S
C848 H835 0.930 . S
C848 C847 1.376 . S
C848 C849 1.388 . S
C849 H836 0.930 . S
C849 C848 1.388 . S
C849 C850 1.390 . S
C850 C849 1.390 . S
C850 C851 1.394 . S
C850 C856 1.465 . S
C851 C846 1.399 . S
C851 C850 1.394 . S
C851 C852 1.516 . S
C852 C851 1.516 . S
C852 C853 1.502 . S
C852 C854 1.561 . S
C852 C855 1.526 . S
C853 H837 0.959 . S
C853 H838 0.959 . S
C853 H839 0.961 . S
C853 C852 1.502 . S
C854 H840 0.960 . S
C854 H841 0.961 . S
C854 H842 0.959 . S
C854 C852 1.561 . S
C855 C852 1.526 . S
C855 C856 1.396 . S
C855 C860 1.390 . S
C856 C850 1.465 . S
C856 C855 1.396 . S
C856 C857 1.399 . S
C857 H843 0.929 . S
C857 C856 1.399 . S
C857 C858 1.385 . S
C858 H844 0.931 . S
C858 C857 1.385 . S
C858 C859 1.389 . S
C859 C858 1.389 . S
C859 C860 1.387 . S
C860 H845 0.930 . S
C860 C855 1.390 . S
C860 C859 1.387 . S
H861 C873 0.930 . S
H862 C875 0.930 . S
H863 C876 0.930 . S
H864 C880 0.959 . S
H865 C880 0.959 . S
H866 C880 0.961 . S
H867 C881 0.960 . S
H868 C881 0.961 . S
H869 C881 0.959 1_655 S
H870 C884 0.929 . S
H871 C885 0.931 . S
H872 C887 0.930 . S
C873 H861 0.930 . S
C873 C874 1.399 . S
C873 C878 1.399 . S
C874 C873 1.399 . S
C874 C875 1.376 . S
C875 H862 0.930 . S
C875 C874 1.376 . S
C875 C876 1.388 . S
C876 H863 0.930 . S
C876 C875 1.388 . S
C876 C877 1.390 . S
C877 C876 1.390 . S
C877 C878 1.394 . S
C877 C883 1.465 . S
C878 C873 1.399 . S
C878 C877 1.394 . S
C878 C879 1.516 . S
C879 C878 1.516 . S
C879 C880 1.502 . S
C879 C881 1.561 . S
C879 C882 1.526 . S
C880 H864 0.959 . S
C880 H865 0.959 . S
C880 H866 0.961 . S
C880 C879 1.502 . S
C881 H867 0.960 . S
C881 H868 0.961 . S
C881 H869 0.959 1_455 S
C881 C879 1.561 . S
C882 C879 1.526 . S
C882 C883 1.396 . S
C882 C887 1.390 . S
C883 C877 1.465 . S
C883 C882 1.396 . S
C883 C884 1.399 . S
C884 H870 0.929 . S
C884 C883 1.399 . S
C884 C885 1.385 . S
C885 H871 0.931 . S
C885 C884 1.385 . S
C885 C886 1.389 . S
C886 C885 1.389 . S
C886 C887 1.387 . S
C887 H872 0.930 . S
C887 C882 1.390 . S
C887 C886 1.387 . S
H888 C900 0.930 . S
H889 C902 0.914 1_565 S
H890 C903 0.958 . S
H891 C907 0.959 . S
H892 C907 0.959 . S
H893 C907 0.961 . S
H894 C908 0.960 . S
H895 C908 0.961 . S
H896 C908 0.959 . S
H897 C911 0.929 . S
H898 C912 0.931 . S
H899 C914 0.930 . S
C900 H888 0.930 . S
C900 C901 1.399 . S
C900 C905 1.399 . S
C901 C900 1.399 . S
C901 C902 1.376 . S
C902 H889 0.914 1_545 S
C902 C901 1.376 . S
C902 C903 1.369 1_556 S
C903 H890 0.958 . S
C903 C902 1.369 1_554 S
C903 C904 1.377 1_554 S
C904 C903 1.377 1_556 S
C904 C905 1.413 . S
C904 C910 1.455 1_556 S
C905 C900 1.399 . S
C905 C904 1.413 . S
C905 C906 1.516 . S
C906 C905 1.516 . S
C906 C907 1.502 . S
C906 C908 1.561 1_455 S
C906 C909 1.526 1_556 S
C907 H891 0.959 . S
C907 H892 0.959 . S
C907 H893 0.961 . S
C907 C906 1.502 . S
C908 H894 0.960 . S
C908 H895 0.961 . S
C908 H896 0.959 . S
C908 C906 1.561 1_655 S
C909 C906 1.526 1_554 S
C909 C910 1.396 . S
C909 C914 1.390 . S
C910 C904 1.455 1_554 S
C910 C909 1.396 . S
C910 C911 1.399 . S
C911 H897 0.929 . S
C911 C910 1.399 . S
C911 C912 1.385 . S
C912 H898 0.931 . S
C912 C911 1.385 . S
C912 C913 1.389 . S
C913 C912 1.389 . S
C913 C914 1.387 . S
C914 H899 0.930 . S
C914 C909 1.390 . S
C914 C913 1.387 . S
H915 C927 0.930 . S
H916 C929 0.930 . S
H917 C930 0.930 . S
H918 C934 0.959 . S
H919 C934 0.959 . S
H920 C934 0.961 . S
H921 C935 0.960 . S
H922 C935 0.961 . S
H923 C935 0.959 . S
H924 C938 0.929 . S
H925 C939 0.931 . S
H926 C941 0.930 . S
C927 H915 0.930 . S
C927 C928 1.399 . S
C927 C932 1.399 . S
C928 C927 1.399 . S
C928 C929 1.376 . S
C929 H916 0.930 . S
C929 C928 1.376 . S
C929 C930 1.388 . S
C930 H917 0.930 . S
C930 C929 1.388 . S
C930 C931 1.390 . S
C931 C930 1.390 . S
C931 C932 1.394 . S
C931 C937 1.465 . S
C932 C927 1.399 . S
C932 C931 1.394 . S
C932 C933 1.516 . S
C933 C932 1.516 . S
C933 C934 1.502 . S
C933 C935 1.561 . S
C933 C936 1.526 . S
C934 H918 0.959 . S
C934 H919 0.959 . S
C934 H920 0.961 . S
C934 C933 1.502 . S
C935 H921 0.960 . S
C935 H922 0.961 . S
C935 H923 0.959 . S
C935 C933 1.561 . S
C936 C933 1.526 . S
C936 C937 1.396 . S
C936 C941 1.390 . S
C937 C931 1.465 . S
C937 C936 1.396 . S
C937 C938 1.399 . S
C938 H924 0.929 . S
C938 C937 1.399 . S
C938 C939 1.385 . S
C939 H925 0.931 . S
C939 C938 1.385 . S
C939 C940 1.389 . S
C940 C939 1.389 . S
C940 C941 1.387 . S
C941 H926 0.930 . S
C941 C936 1.390 . S
C941 C940 1.387 . S
H942 C954 0.930 . S
H943 C956 0.930 1_554 S
H944 C957 0.930 . S
H945 C961 0.959 . S
H946 C961 0.959 . S
H947 C961 0.961 . S
H948 C962 0.960 . S
H949 C962 0.961 . S
H950 C962 0.959 . S
H951 C965 0.929 . S
H952 C966 0.931 . S
H953 C968 0.930 1_556 S
C954 H942 0.930 . S
C954 C955 1.399 . S
C954 C959 1.399 . S
C955 C954 1.399 . S
C955 C956 1.376 . S
C956 H943 0.930 1_556 S
C956 C955 1.376 . S
C956 C957 1.388 1_556 S
C957 H944 0.930 . S
C957 C956 1.388 1_554 S
C957 C958 1.390 . S
C958 C957 1.390 . S
C958 C959 1.394 1_554 S
C958 C964 1.465 . S
C959 C954 1.399 . S
C959 C958 1.394 1_556 S
C959 C960 1.516 . S
C960 C959 1.516 . S
C960 C961 1.502 . S
C960 C962 1.561 . S
C960 C963 1.506 1_556 S
C961 H945 0.959 . S
C961 H946 0.959 . S
C961 H947 0.961 . S
C961 C960 1.502 . S
C962 H948 0.960 . S
C962 H949 0.961 . S
C962 H950 0.959 . S
C962 C960 1.561 . S
C963 C960 1.506 1_554 S
C963 C964 1.405 . S
C963 C968 1.401 . S
C964 C958 1.465 . S
C964 C963 1.405 . S
C964 C965 1.399 . S
C965 H951 0.929 . S
C965 C964 1.399 . S
C965 C966 1.385 . S
C966 H952 0.931 . S
C966 C965 1.385 . S
C966 C967 1.389 . S
C967 C966 1.389 . S
C967 C968 1.387 . S
C968 H953 0.930 1_554 S
C968 C963 1.401 . S
C968 C967 1.387 . S
H969 C981 0.930 . S
H970 C983 0.930 . S
H971 C984 0.930 . S
H972 C988 0.959 1_455 S
H973 C988 0.959 . S
H974 C988 0.961 . S
H975 C989 0.965 . S
H976 C989 0.945 1_655 S
H977 C989 0.962 . S
H978 C992 0.929 . S
H979 C993 0.931 . S
H980 C995 0.930 . S
C981 H969 0.930 . S
C981 C982 1.399 . S
C981 C986 1.399 . S
C982 C981 1.399 . S
C982 C983 1.376 . S
C983 H970 0.930 . S
C983 C982 1.376 . S
C983 C984 1.388 . S
C984 H971 0.930 . S
C984 C983 1.388 . S
C984 C985 1.390 . S
C985 C984 1.390 . S
C985 C986 1.394 . S
C985 C991 1.465 . S
C986 C981 1.399 . S
C986 C985 1.394 . S
C986 C987 1.516 . S
C987 C986 1.516 . S
C987 C988 1.502 1_455 S
C987 C989 1.570 . S
C987 C990 1.526 . S
C988 H972 0.959 1_655 S
C988 H973 0.959 . S
C988 H974 0.961 . S
C988 C987 1.502 1_655 S
C989 H975 0.965 . S
C989 H976 0.945 1_455 S
C989 H977 0.962 . S
C989 C987 1.570 . S
C990 C987 1.526 . S
C990 C991 1.396 . S
C990 C995 1.390 1_455 S
C991 C985 1.465 . S
C991 C990 1.396 . S
C991 C992 1.399 . S
C992 H978 0.929 . S
C992 C991 1.399 . S
C992 C993 1.385 . S
C993 H979 0.931 . S
C993 C992 1.385 . S
C993 C994 1.389 1_455 S
C994 C993 1.389 1_655 S
C994 C995 1.387 . S
C995 H980 0.930 . S
C995 C990 1.390 1_655 S
C995 C994 1.387 . S
H996 C1008 0.930 . S
H997 C1010 0.930 . S
H998 C1011 0.930 . S
H999 C1015 0.959 . S
H1000 C1015 0.959 . S
H1001 C1015 0.961 . S
H1002 C1016 0.960 . S
H1003 C1016 0.961 . S
H1004 C1016 0.959 . S
H1005 C1019 0.929 . S
H1006 C1020 0.931 . S
H1007 C1022 0.930 . S
C1008 H996 0.930 . S
C1008 C1009 1.399 . S
C1008 C1013 1.399 . S
C1009 C1008 1.399 . S
C1009 C1010 1.376 . S
C1010 H997 0.930 . S
C1010 C1009 1.376 . S
C1010 C1011 1.388 . S
C1011 H998 0.930 . S
C1011 C1010 1.388 . S
C1011 C1012 1.390 . S
C1012 C1011 1.390 . S
C1012 C1013 1.394 . S
C1012 C1018 1.466 . S
C1013 C1008 1.399 . S
C1013 C1012 1.394 . S
C1013 C1014 1.516 1_556 S
C1014 C1013 1.516 1_554 S
C1014 C1015 1.502 . S
C1014 C1016 1.561 . S
C1014 C1017 1.526 . S
C1015 H999 0.959 . S
C1015 H1000 0.959 . S
C1015 H1001 0.961 . S
C1015 C1014 1.502 . S
C1016 H1002 0.960 . S
C1016 H1003 0.961 . S
C1016 H1004 0.959 . S
C1016 C1014 1.561 . S
C1017 C1014 1.526 . S
C1017 C1018 1.393 1_554 S
C1017 C1022 1.390 . S
C1018 C1012 1.466 . S
C1018 C1017 1.393 1_556 S
C1018 C1019 1.400 . S
C1019 H1005 0.929 . S
C1019 C1018 1.400 . S
C1019 C1020 1.385 1_556 S
C1020 H1006 0.931 . S
C1020 C1019 1.385 1_554 S
C1020 C1021 1.389 . S
C1021 C1020 1.389 . S
C1021 C1022 1.387 . S
C1022 H1007 0.930 . S
C1022 C1017 1.390 . S
C1022 C1021 1.387 . S
H1023 C1035 0.930 . S
H1024 C1037 0.930 . S
H1025 C1038 0.930 . S
H1026 C1042 0.959 . S
H1027 C1042 0.959 . S
H1028 C1042 0.961 . S
H1029 C1043 0.960 . S
H1030 C1043 0.961 . S
H1031 C1043 0.959 . S
H1032 C1046 0.929 . S
H1033 C1047 0.931 . S
H1034 C1049 0.930 . S
C1035 H1023 0.930 . S
C1035 C1036 1.399 . S
C1035 C1040 1.399 . S
C1036 C1035 1.399 . S
C1036 C1037 1.376 . S
C1037 H1024 0.930 . S
C1037 C1036 1.376 . S
C1037 C1038 1.388 . S
C1038 H1025 0.930 . S
C1038 C1037 1.388 . S
C1038 C1039 1.390 . S
C1039 C1038 1.390 . S
C1039 C1040 1.394 . S
C1039 C1045 1.465 . S
C1040 C1035 1.399 . S
C1040 C1039 1.394 . S
C1040 C1041 1.516 . S
C1041 C1040 1.516 . S
C1041 C1042 1.502 . S
C1041 C1043 1.561 . S
C1041 C1044 1.526 . S
C1042 H1026 0.959 . S
C1042 H1027 0.959 . S
C1042 H1028 0.961 . S
C1042 C1041 1.502 . S
C1043 H1029 0.960 . S
C1043 H1030 0.961 . S
C1043 H1031 0.959 . S
C1043 C1041 1.561 . S
C1044 C1041 1.526 . S
C1044 C1045 1.396 . S
C1044 C1049 1.390 . S
C1045 C1039 1.465 . S
C1045 C1044 1.396 . S
C1045 C1046 1.399 . S
C1046 H1032 0.929 . S
C1046 C1045 1.399 . S
C1046 C1047 1.385 . S
C1047 H1033 0.931 . S
C1047 C1046 1.385 . S
C1047 C1048 1.389 . S
C1048 C1047 1.389 . S
C1048 C1049 1.387 . S
C1049 H1034 0.930 . S
C1049 C1044 1.390 . S
C1049 C1048 1.387 . S
H1050 C1062 0.930 1_655 S
H1051 C1064 0.930 1_554 S
H1052 C1065 0.930 . S
H1053 C1069 0.959 . S
H1054 C1069 0.959 . S
H1055 C1069 0.961 . S
H1056 C1070 0.960 . S
H1057 C1070 0.961 . S
H1058 C1070 0.959 . S
H1059 C1073 0.929 . S
H1060 C1074 0.931 . S
H1061 C1076 0.930 1_556 S
C1062 H1050 0.930 1_455 S
C1062 C1063 1.399 . S
C1062 C1067 1.399 . S
C1063 C1062 1.399 . S
C1063 C1064 1.385 . S
C1064 H1051 0.930 1_556 S
C1064 C1063 1.385 . S
C1064 C1065 1.380 1_556 S
C1065 H1052 0.930 . S
C1065 C1064 1.380 1_554 S
C1065 C1066 1.390 . S
C1066 C1065 1.390 . S
C1066 C1067 1.394 1_554 S
C1066 C1072 1.465 . S
C1067 C1062 1.399 . S
C1067 C1066 1.394 1_556 S
C1067 C1068 1.516 . S
C1068 C1067 1.516 . S
C1068 C1069 1.502 1_455 S
C1068 C1070 1.561 . S
C1068 C1071 1.526 . S
C1069 H1053 0.959 . S
C1069 H1054 0.959 . S
C1069 H1055 0.961 . S
C1069 C1068 1.502 1_655 S
C1070 H1056 0.960 . S
C1070 H1057 0.961 . S
C1070 H1058 0.959 . S
C1070 C1068 1.561 . S
C1071 C1068 1.526 . S
C1071 C1072 1.396 1_556 S
C1071 C1076 1.390 1_556 S
C1072 C1066 1.465 . S
C1072 C1071 1.396 1_554 S
C1072 C1073 1.399 . S
C1073 H1059 0.929 . S
C1073 C1072 1.399 . S
C1073 C1074 1.385 . S
C1074 H1060 0.931 . S
C1074 C1073 1.385 . S
C1074 C1075 1.389 . S
C1075 C1074 1.389 . S
C1075 C1076 1.387 . S
C1076 H1061 0.930 1_554 S
C1076 C1071 1.390 1_554 S
C1076 C1075 1.387 . S
H1077 C1089 0.930 . S
H1078 C1091 0.930 . S
H1079 C1092 0.930 . S
H1080 C1096 0.959 . S
H1081 C1096 0.959 . S
H1082 C1096 0.961 . S
H1083 C1097 0.960 . S
H1084 C1097 0.961 . S
H1085 C1097 0.959 . S
H1086 C1100 0.929 . S
H1087 C1101 0.931 1_565 S
H1088 C1103 0.930 . S
C1089 H1077 0.930 . S
C1089 C1090 1.399 . S
C1089 C1094 1.399 . S
C1090 C1089 1.399 . S
C1090 C1091 1.376 . S
C1091 H1078 0.930 . S
C1091 C1090 1.376 . S
C1091 C1092 1.388 . S
C1092 H1079 0.930 . S
C1092 C1091 1.388 . S
C1092 C1093 1.390 . S
C1093 C1092 1.390 . S
C1093 C1094 1.394 . S
C1093 C1099 1.465 . S
C1094 C1089 1.399 . S
C1094 C1093 1.394 . S
C1094 C1095 1.516 . S
C1095 C1094 1.516 . S
C1095 C1096 1.502 . S
C1095 C1097 1.561 . S
C1095 C1098 1.526 . S
C1096 H1080 0.959 . S
C1096 H1081 0.959 . S
C1096 H1082 0.961 . S
C1096 C1095 1.502 . S
C1097 H1083 0.960 . S
C1097 H1084 0.961 . S
C1097 H1085 0.959 . S
C1097 C1095 1.561 . S
C1098 C1095 1.526 . S
C1098 C1099 1.396 . S
C1098 C1103 1.390 1_455 S
C1099 C1093 1.465 . S
C1099 C1098 1.396 . S
C1099 C1100 1.399 . S
C1100 H1086 0.929 . S
C1100 C1099 1.399 . S
C1100 C1101 1.385 1_455 S
C1101 H1087 0.931 1_545 S
C1101 C1100 1.385 1_655 S
C1101 C1102 1.389 . S
C1102 C1101 1.389 . S
C1102 C1103 1.387 . S
C1103 H1088 0.930 . S
C1103 C1098 1.390 1_655 S
C1103 C1102 1.387 . S
H1104 C1116 0.930 . S
H1105 C1118 0.930 . S
H1106 C1119 0.930 . S
H1107 C1123 0.959 . S
H1108 C1123 0.959 . S
H1109 C1123 0.961 . S
H1110 C1124 0.960 . S
H1111 C1124 0.961 . S
H1112 C1124 0.959 . S
H1113 C1127 0.929 . S
H1114 C1128 0.931 . S
H1115 C1130 0.930 . S
C1116 H1104 0.930 . S
C1116 C1117 1.399 . S
C1116 C1121 1.399 . S
C1117 C1116 1.399 . S
C1117 C1118 1.376 . S
C1118 H1105 0.930 . S
C1118 C1117 1.376 . S
C1118 C1119 1.388 . S
C1119 H1106 0.930 . S
C1119 C1118 1.388 . S
C1119 C1120 1.390 . S
C1120 C1119 1.390 . S
C1120 C1121 1.394 . S
C1120 C1126 1.465 . S
C1121 C1116 1.399 . S
C1121 C1120 1.394 . S
C1121 C1122 1.516 . S
C1122 C1121 1.516 . S
C1122 C1123 1.502 . S
C1122 C1124 1.561 . S
C1122 C1125 1.526 . S
C1123 H1107 0.959 . S
C1123 H1108 0.959 . S
C1123 H1109 0.961 . S
C1123 C1122 1.502 . S
C1124 H1110 0.960 . S
C1124 H1111 0.961 . S
C1124 H1112 0.959 . S
C1124 C1122 1.561 . S
C1125 C1122 1.526 . S
C1125 C1126 1.396 . S
C1125 C1130 1.390 . S
C1126 C1120 1.465 . S
C1126 C1125 1.396 . S
C1126 C1127 1.399 . S
C1127 H1113 0.929 . S
C1127 C1126 1.399 . S
C1127 C1128 1.385 . S
C1128 H1114 0.931 . S
C1128 C1127 1.385 . S
C1128 C1129 1.389 . S
C1129 C1128 1.389 . S
C1129 C1130 1.387 . S
C1130 H1115 0.930 . S
C1130 C1125 1.390 . S
C1130 C1129 1.387 . S
H1131 C1143 0.930 . S
H1132 C1145 0.930 1_545 S
H1133 C1146 0.930 . S
H1134 C1150 0.959 . S
H1135 C1150 0.959 . S
H1136 C1150 0.961 . S
H1137 C1151 0.960 . S
H1138 C1151 0.961 . S
H1139 C1151 0.959 . S
H1140 C1154 0.929 . S
H1141 C1155 0.931 . S
H1142 C1157 0.930 . S
C1143 H1131 0.930 . S
C1143 C1144 1.399 . S
C1143 C1148 1.399 . S
C1144 C1143 1.399 . S
C1144 C1145 1.376 . S
C1145 H1132 0.930 1_565 S
C1145 C1144 1.376 . S
C1145 C1146 1.388 . S
C1146 H1133 0.930 . S
C1146 C1145 1.388 . S
C1146 C1147 1.390 . S
C1147 C1146 1.390 . S
C1147 C1148 1.394 . S
C1147 C1153 1.465 . S
C1148 C1143 1.399 . S
C1148 C1147 1.394 . S
C1148 C1149 1.516 . S
C1149 C1148 1.516 . S
C1149 C1150 1.502 . S
C1149 C1151 1.561 . S
C1149 C1152 1.526 . S
C1150 H1134 0.959 . S
C1150 H1135 0.959 . S
C1150 H1136 0.961 . S
C1150 C1149 1.502 . S
C1151 H1137 0.960 . S
C1151 H1138 0.961 . S
C1151 H1139 0.959 . S
C1151 C1149 1.561 . S
C1152 C1149 1.526 . S
C1152 C1153 1.396 . S
C1152 C1157 1.390 . S
C1153 C1147 1.465 . S
C1153 C1152 1.396 . S
C1153 C1154 1.399 . S
C1154 H1140 0.929 . S
C1154 C1153 1.399 . S
C1154 C1155 1.385 . S
C1155 H1141 0.931 . S
C1155 C1154 1.385 . S
C1155 C1156 1.389 . S
C1156 C1155 1.389 . S
C1156 C1157 1.387 . S
C1157 H1142 0.930 . S
C1157 C1152 1.390 . S
C1157 C1156 1.387 . S
H1158 C1170 0.930 . S
H1159 C1172 0.930 . S
H1160 C1173 0.930 . S
H1161 C1177 0.959 . S
H1162 C1177 0.959 . S
H1163 C1177 0.961 . S
H1164 C1178 0.960 . S
H1165 C1178 0.961 . S
H1166 C1178 0.959 . S
H1167 C1181 0.929 . S
H1168 C1182 0.931 . S
H1169 C1184 0.930 . S
C1170 H1158 0.930 . S
C1170 C1171 1.399 . S
C1170 C1175 1.399 . S
C1171 C1170 1.399 . S
C1171 C1172 1.376 . S
C1172 H1159 0.930 . S
C1172 C1171 1.376 . S
C1172 C1173 1.388 . S
C1173 H1160 0.930 . S
C1173 C1172 1.388 . S
C1173 C1174 1.390 . S
C1174 C1173 1.390 . S
C1174 C1175 1.394 . S
C1174 C1180 1.465 . S
C1175 C1170 1.399 . S
C1175 C1174 1.394 . S
C1175 C1176 1.516 . S
C1176 C1175 1.516 . S
C1176 C1177 1.502 . S
C1176 C1178 1.561 . S
C1176 C1179 1.526 . S
C1177 H1161 0.959 . S
C1177 H1162 0.959 . S
C1177 H1163 0.961 . S
C1177 C1176 1.502 . S
C1178 H1164 0.960 . S
C1178 H1165 0.961 . S
C1178 H1166 0.959 . S
C1178 C1176 1.561 . S
C1179 C1176 1.526 . S
C1179 C1180 1.396 . S
C1179 C1184 1.390 . S
C1180 C1174 1.465 . S
C1180 C1179 1.396 . S
C1180 C1181 1.399 . S
C1181 H1167 0.929 . S
C1181 C1180 1.399 . S
C1181 C1182 1.385 . S
C1182 H1168 0.931 . S
C1182 C1181 1.385 . S
C1182 C1183 1.389 . S
C1183 C1182 1.389 . S
C1183 C1184 1.387 . S
C1184 H1169 0.930 . S
C1184 C1179 1.390 . S
C1184 C1183 1.387 . S
H1185 C1197 0.930 . S
H1186 C1199 0.930 . S
H1187 C1200 0.930 . S
H1188 C1204 0.959 . S
H1189 C1204 0.959 . S
H1190 C1204 0.961 . S
H1191 C1205 0.960 . S
H1192 C1205 0.961 . S
H1193 C1205 0.959 . S
H1194 C1208 0.929 . S
H1195 C1209 0.931 . S
H1196 C1211 0.930 . S
C1197 H1185 0.930 . S
C1197 C1198 1.399 . S
C1197 C1202 1.399 . S
C1198 C1197 1.399 . S
C1198 C1199 1.376 . S
C1199 H1186 0.930 . S
C1199 C1198 1.376 . S
C1199 C1200 1.388 . S
C1200 H1187 0.930 . S
C1200 C1199 1.388 . S
C1200 C1201 1.390 . S
C1201 C1200 1.390 . S
C1201 C1202 1.394 . S
C1201 C1207 1.465 . S
C1202 C1197 1.399 . S
C1202 C1201 1.394 . S
C1202 C1203 1.516 . S
C1203 C1202 1.516 . S
C1203 C1204 1.502 . S
C1203 C1205 1.561 . S
C1203 C1206 1.526 . S
C1204 H1188 0.959 . S
C1204 H1189 0.959 . S
C1204 H1190 0.961 . S
C1204 C1203 1.502 . S
C1205 H1191 0.960 . S
C1205 H1192 0.961 . S
C1205 H1193 0.959 . S
C1205 C1203 1.561 . S
C1206 C1203 1.526 . S
C1206 C1207 1.396 . S
C1206 C1211 1.390 . S
C1207 C1201 1.465 . S
C1207 C1206 1.396 . S
C1207 C1208 1.399 . S
C1208 H1194 0.929 . S
C1208 C1207 1.399 . S
C1208 C1209 1.385 . S
C1209 H1195 0.931 . S
C1209 C1208 1.385 . S
C1209 C1210 1.389 . S
C1210 C1209 1.389 . S
C1210 C1211 1.387 . S
C1211 H1196 0.930 . S
C1211 C1206 1.390 . S
C1211 C1210 1.387 . S
H1212 C1224 0.930 . S
H1213 C1226 0.930 . S
H1214 C1227 0.930 . S
H1215 C1231 0.959 . S
H1216 C1231 0.959 . S
H1217 C1231 0.961 . S
H1218 C1232 0.960 . S
H1219 C1232 0.961 . S
H1220 C1232 0.959 . S
H1221 C1235 0.929 . S
H1222 C1236 0.931 . S
H1223 C1238 0.930 . S
C1224 H1212 0.930 . S
C1224 C1225 1.399 . S
C1224 C1229 1.399 . S
C1225 C1224 1.399 . S
C1225 C1226 1.376 . S
C1226 H1213 0.930 . S
C1226 C1225 1.376 . S
C1226 C1227 1.388 . S
C1227 H1214 0.930 . S
C1227 C1226 1.388 . S
C1227 C1228 1.390 . S
C1228 C1227 1.390 . S
C1228 C1229 1.394 . S
C1228 C1234 1.465 . S
C1229 C1224 1.399 . S
C1229 C1228 1.394 . S
C1229 C1230 1.516 . S
C1230 C1229 1.516 . S
C1230 C1231 1.502 . S
C1230 C1232 1.561 . S
C1230 C1233 1.526 . S
C1231 H1215 0.959 . S
C1231 H1216 0.959 . S
C1231 H1217 0.961 . S
C1231 C1230 1.502 . S
C1232 H1218 0.960 . S
C1232 H1219 0.961 . S
C1232 H1220 0.959 . S
C1232 C1230 1.561 . S
C1233 C1230 1.526 . S
C1233 C1234 1.396 . S
C1233 C1238 1.390 . S
C1234 C1228 1.465 . S
C1234 C1233 1.396 . S
C1234 C1235 1.399 . S
C1235 H1221 0.929 . S
C1235 C1234 1.399 . S
C1235 C1236 1.385 . S
C1236 H1222 0.931 . S
C1236 C1235 1.385 . S
C1236 C1237 1.389 . S
C1237 C1236 1.389 . S
C1237 C1238 1.387 . S
C1238 H1223 0.930 . S
C1238 C1233 1.390 . S
C1238 C1237 1.387 . S
H1239 C1251 0.930 . S
H1240 C1253 0.930 . S
H1241 C1254 0.930 . S
H1242 C1258 0.959 . S
H1243 C1258 0.959 . S
H1244 C1258 0.961 . S
H1245 C1259 0.960 . S
H1246 C1259 0.961 . S
H1247 C1259 0.959 . S
H1248 C1262 0.929 . S
H1249 C1263 0.931 . S
H1250 C1265 0.930 . S
C1251 H1239 0.930 . S
C1251 C1252 1.399 . S
C1251 C1256 1.399 . S
C1252 C1251 1.399 . S
C1252 C1253 1.376 . S
C1253 H1240 0.930 . S
C1253 C1252 1.376 . S
C1253 C1254 1.388 . S
C1254 H1241 0.930 . S
C1254 C1253 1.388 . S
C1254 C1255 1.390 . S
C1255 C1254 1.390 . S
C1255 C1256 1.394 . S
C1255 C1261 1.465 . S
C1256 C1251 1.399 . S
C1256 C1255 1.394 . S
C1256 C1257 1.516 . S
C1257 C1256 1.516 . S
C1257 C1258 1.502 . S
C1257 C1259 1.561 . S
C1257 C1260 1.526 . S
C1258 H1242 0.959 . S
C1258 H1243 0.959 . S
C1258 H1244 0.961 . S
C1258 C1257 1.502 . S
C1259 H1245 0.960 . S
C1259 H1246 0.961 . S
C1259 H1247 0.959 . S
C1259 C1257 1.561 . S
C1260 C1257 1.526 . S
C1260 C1261 1.396 . S
C1260 C1265 1.390 . S
C1261 C1255 1.465 . S
C1261 C1260 1.396 . S
C1261 C1262 1.399 . S
C1262 H1248 0.929 . S
C1262 C1261 1.399 . S
C1262 C1263 1.385 . S
C1263 H1249 0.931 . S
C1263 C1262 1.385 . S
C1263 C1264 1.389 . S
C1264 C1263 1.389 . S
C1264 C1265 1.387 . S
C1265 H1250 0.930 . S
C1265 C1260 1.390 . S
C1265 C1264 1.387 . S
H1266 C1278 0.930 . S
H1267 C1280 0.930 . S
H1268 C1281 0.930 . S
H1269 C1285 0.959 . S
H1270 C1285 0.959 . S
H1271 C1285 0.961 . S
H1272 C1286 0.960 . S
H1273 C1286 0.961 . S
H1274 C1286 0.959 . S
H1275 C1289 0.929 . S
H1276 C1290 0.931 . S
H1277 C1292 0.930 . S
C1278 H1266 0.930 . S
C1278 C1279 1.399 . S
C1278 C1283 1.399 . S
C1279 C1278 1.399 . S
C1279 C1280 1.376 . S
C1280 H1267 0.930 . S
C1280 C1279 1.376 . S
C1280 C1281 1.388 . S
C1281 H1268 0.930 . S
C1281 C1280 1.388 . S
C1281 C1282 1.390 . S
C1282 C1281 1.390 . S
C1282 C1283 1.394 . S
C1282 C1288 1.465 . S
C1283 C1278 1.399 . S
C1283 C1282 1.394 . S
C1283 C1284 1.516 . S
C1284 C1283 1.516 . S
C1284 C1285 1.502 . S
C1284 C1286 1.561 . S
C1284 C1287 1.526 . S
C1285 H1269 0.959 . S
C1285 H1270 0.959 . S
C1285 H1271 0.961 . S
C1285 C1284 1.502 . S
C1286 H1272 0.960 . S
C1286 H1273 0.961 . S
C1286 H1274 0.959 . S
C1286 C1284 1.561 . S
C1287 C1284 1.526 . S
C1287 C1288 1.396 . S
C1287 C1292 1.390 . S
C1288 C1282 1.465 . S
C1288 C1287 1.396 . S
C1288 C1289 1.399 . S
C1289 H1275 0.929 . S
C1289 C1288 1.399 . S
C1289 C1290 1.385 . S
C1290 H1276 0.931 . S
C1290 C1289 1.385 . S
C1290 C1291 1.389 . S
C1291 C1290 1.389 . S
C1291 C1292 1.387 . S
C1292 H1277 0.930 . S
C1292 C1287 1.390 . S
C1292 C1291 1.387 . S
H1293 C1305 0.930 . S
H1294 C1307 0.930 . S
H1295 C1308 0.930 . S
H1296 C1312 0.959 . S
H1297 C1312 0.959 . S
H1298 C1312 0.961 . S
H1299 C1313 0.960 . S
H1300 C1313 0.961 . S
H1301 C1313 0.959 . S
H1302 C1316 0.929 . S
H1303 C1317 0.931 . S
H1304 C1319 0.930 . S
C1305 H1293 0.930 . S
C1305 C1306 1.399 . S
C1305 C1310 1.399 . S
C1306 C1305 1.399 . S
C1306 C1307 1.376 . S
C1307 H1294 0.930 . S
C1307 C1306 1.376 . S
C1307 C1308 1.388 . S
C1308 H1295 0.930 . S
C1308 C1307 1.388 . S
C1308 C1309 1.390 . S
C1309 C1308 1.390 . S
C1309 C1310 1.394 . S
C1309 C1315 1.465 . S
C1310 C1305 1.399 . S
C1310 C1309 1.394 . S
C1310 C1311 1.516 . S
C1311 C1310 1.516 . S
C1311 C1312 1.502 . S
C1311 C1313 1.561 . S
C1311 C1314 1.526 . S
C1312 H1296 0.959 . S
C1312 H1297 0.959 . S
C1312 H1298 0.961 . S
C1312 C1311 1.502 . S
C1313 H1299 0.960 . S
C1313 H1300 0.961 . S
C1313 H1301 0.959 . S
C1313 C1311 1.561 . S
C1314 C1311 1.526 . S
C1314 C1315 1.396 . S
C1314 C1319 1.390 . S
C1315 C1309 1.465 . S
C1315 C1314 1.396 . S
C1315 C1316 1.399 . S
C1316 H1302 0.929 . S
C1316 C1315 1.399 . S
C1316 C1317 1.385 . S
C1317 H1303 0.931 . S
C1317 C1316 1.385 . S
C1317 C1318 1.389 . S
C1318 C1317 1.389 . S
C1318 C1319 1.387 . S
C1319 H1304 0.930 . S
C1319 C1314 1.390 . S
C1319 C1318 1.387 . S
C685 C651 1.038 . S
C697 C69 1.046 . S
C712 C142 1.342 . S
C724 C405 1.047 . S
C739 C476 1.737 . S
C751 C224 1.691 . S
C766 C321 0.653 . S
C778 C560 0.402 . S
C793 C158 1.058 . S
C805 C562 1.123 . S
C820 C226 0.993 . S
C832 C657 1.335 . S
C847 C403 1.622 . S
C859 C319 1.728 . S
C874 C478 0.567 . S
C886 C67 0.446 . S
C901 C571 0.995 1_545 S
C913 C56 1.020 . S
C928 C147 3.147 . S
C940 C662 3.144 . S
C955 C394 1.438 . S
C967 C237 1.408 . S
C982 C308 3.458 . S
C994 C487 3.487 . S
C1009 C392 1.986 1_545 S
C1021 C235 1.956 . S
C1036 C310 1.025 . S
C1048 C489 0.790 . S
C1063 C573 2.578 1_455 S
C1075 C58 2.648 . S
C1090 C153 1.111 . S
C1102 C646 1.167 . S
C1117 C74 2.895 . S
C1129 C231 3.011 . S
C1144 C151 3.127 1_565 S
C1156 C326 3.015 . S
C1171 C410 3.012 . S
C1183 C567 2.894 . S
C1198 C644 3.129 . S
C1210 C483 3.001 . S
C1225 C63 2.535 . S
C1237 C242 2.601 . S
C1252 C140 2.774 . S
C1264 C315 2.823 . S
C1279 C399 2.604 . S
C1291 C578 2.545 . S
C1306 C494 2.828 . S
C1318 C655 2.802 . S
