# Generated by pormake.
# Topology pts-e, (5)-cn, num edge types: 1
# Building blocks:
#     Node 0, Type 0, BuildingBlock: XOMCOT_clean_sbu_1, # of connection points: 5
#     Node 1, Type 0, BuildingBlock: XOMCOT_clean_sbu_1, # of connection points: 5
#     Node 2, Type 0, BuildingBlock: XOMCOT_clean_sbu_1, # of connection points: 5
#     Node 3, Type 0, BuildingBlock: XOMCOT_clean_sbu_1, # of connection points: 5
#     Node 4, Type 0, BuildingBlock: XOMCOT_clean_sbu_1, # of connection points: 5
#     Node 5, Type 0, BuildingBlock: XOMCOT_clean_sbu_1, # of connection points: 5
#     Node 6, Type 0, BuildingBlock: XOMCOT_clean_sbu_1, # of connection points: 5
#     Node 7, Type 0, BuildingBlock: XOMCOT_clean_sbu_1, # of connection points: 5
#     Edge 8, Type (0, 0), BuildingBlock: AJUNOK_clean_linker_0, # of connection points: 2
#     Edge 9, Type (0, 0), BuildingBlock: AJUNOK_clean_linker_0, # of connection points: 2
#     Edge 10, Type (0, 0), BuildingBlock: AJUNOK_clean_linker_0, # of connection points: 2
#     Edge 11, Type (0, 0), BuildingBlock: AJUNOK_clean_linker_0, # of connection points: 2
#     Edge 12, Type (0, 0), BuildingBlock: AJUNOK_clean_linker_0, # of connection points: 2
#     Edge 13, Type (0, 0), BuildingBlock: AJUNOK_clean_linker_0, # of connection points: 2
#     Edge 14, Type (0, 0), BuildingBlock: AJUNOK_clean_linker_0, # of connection points: 2
#     Edge 15, Type (0, 0), BuildingBlock: AJUNOK_clean_linker_0, # of connection points: 2
#     Edge 16, Type (0, 0), BuildingBlock: AJUNOK_clean_linker_0, # of connection points: 2
#     Edge 17, Type (0, 0), BuildingBlock: AJUNOK_clean_linker_0, # of connection points: 2
#     Edge 18, Type (0, 0), BuildingBlock: AJUNOK_clean_linker_0, # of connection points: 2
#     Edge 19, Type (0, 0), BuildingBlock: AJUNOK_clean_linker_0, # of connection points: 2
#     Edge 20, Type (0, 0), BuildingBlock: AJUNOK_clean_linker_0, # of connection points: 2
#     Edge 21, Type (0, 0), BuildingBlock: AJUNOK_clean_linker_0, # of connection points: 2
#     Edge 22, Type (0, 0), BuildingBlock: AJUNOK_clean_linker_0, # of connection points: 2
#     Edge 23, Type (0, 0), BuildingBlock: AJUNOK_clean_linker_0, # of connection points: 2
#     Edge 24, Type (0, 0), BuildingBlock: AJUNOK_clean_linker_0, # of connection points: 2
#     Edge 25, Type (0, 0), BuildingBlock: AJUNOK_clean_linker_0, # of connection points: 2
#     Edge 26, Type (0, 0), BuildingBlock: AJUNOK_clean_linker_0, # of connection points: 2
#     Edge 27, Type (0, 0), BuildingBlock: AJUNOK_clean_linker_0, # of connection points: 2
# Relax obj value: 0.523
# Max RMSD: 0.254
# Mean RMSD: 0.254
data_MOF--net-pts-e--node1-XOMCOT_clean_sbu_1--edge1-AJUNOK_clean_linker_0
_symmetry_space_group_name_H-M    P1
_symmetry_Int_Tables_number       1
_symmetry_cell_setting            triclinic
loop_
_symmetry_equiv_pos_as_xyz
'x, y, z'
_cell_length_a     26.636218
_cell_length_b     26.669521
_cell_length_c     35.352016
_cell_angle_alpha  89.878028
_cell_angle_beta   89.970529
_cell_angle_gamma 89.99769
loop_
_atom_site_label
_atom_site_type_symbol
_atom_site_fract_x
_atom_site_fract_y
_atom_site_fract_z
_atom_type_partial_charge
C0 C 0.17885 0.05999 0.17564 0.0
C1 C 0.12756 0.06572 0.17488 0.0
N2 N 0.10672 0.01976 0.17429 0.0
N3 N 0.19007 0.01068 0.17628 0.0
C4 C 0.14534 0.98712 0.17515 0.0
H5 H 0.2064 0.08968 0.17547 0.0
Co6 Co 0.2543 0.98294 0.17695 0.0
C7 C 0.23342 0.90277 0.2363 0.0
O8 O 0.26999 0.92037 0.25741 0.0
N9 N 0.31983 0.95596 0.17591 0.0
C10 C 0.39308 0.91868 0.18683 0.0
C11 C 0.34187 0.91545 0.19171 0.0
C12 C 0.35811 0.98051 0.15895 0.0
N13 N 0.40346 0.96057 0.16691 0.0
O14 O 0.24268 0.95715 0.12689 0.0
H15 H 0.3229 0.88568 0.20655 0.0
H16 H 0.35251 0.01381 0.14212 0.0
O17 O 0.22593 0.92189 0.20327 0.0
C18 C 0.24876 0.99567 0.10554 0.0
O19 O 0.26296 0.03788 0.12136 0.0
N20 N 0.26689 0.01647 0.22294 0.0
C21 C 0.25753 0.10413 0.2641 0.0
C22 C 0.22688 0.06292 0.27244 0.0
C23 C 0.2315 0.01946 0.25092 0.0
C24 C 0.30167 0.05382 0.21904 0.0
C25 C 0.29777 0.09805 0.23948 0.0
H26 H 0.20132 0.99255 0.25258 0.0
H27 H 0.32718 0.05427 0.19567 0.0
H28 H 0.1411 0.94681 0.17527 0.0
H29 H 0.10717 0.10083 0.17414 0.0
H30 H 0.42057 0.8934 0.19887 0.0
H31 H 0.19446 0.06709 0.29072 0.0
H32 H 0.32127 0.12969 0.23186 0.0
C33 C 0.94028 0.18124 0.67876 0.0
C34 C 0.93378 0.13011 0.67987 0.0
N35 N 0.97949 0.1087 0.68124 0.0
N36 N 0.98976 0.19183 0.67991 0.0
C37 C 0.01274 0.14679 0.68078 0.0
H38 H 0.91104 0.20912 0.67695 0.0
Co39 Co 0.01788 0.25585 0.68008 0.0
C40 C 0.09746 0.23487 0.73976 0.0
O41 O 0.07926 0.27097 0.76099 0.0
N42 N 0.04542 0.32113 0.67858 0.0
C43 C 0.08311 0.3941 0.68936 0.0
C44 C 0.08568 0.34302 0.6948 0.0
C45 C 0.0217 0.35934 0.6609 0.0
N46 N 0.04187 0.40456 0.66872 0.0
O47 O 0.04376 0.2436 0.63009 0.0
H48 H 0.1148 0.32408 0.71036 0.0
H49 H 0.98868 0.35384 0.64378 0.0
O50 O 0.0788 0.22756 0.70659 0.0
C51 C 0.00566 0.25111 0.60853 0.0
O52 O 0.96339 0.26524 0.62446 0.0
N53 N 0.98401 0.26924 0.72596 0.0
C54 C 0.89452 0.26019 0.76524 0.0
C55 C 0.93528 0.22929 0.77441 0.0
C56 C 0.97977 0.23388 0.75389 0.0
C57 C 0.94716 0.30448 0.7216 0.0
C58 C 0.90199 0.30069 0.74106 0.0
H59 H 0.00654 0.20362 0.75607 0.0
H60 H 0.94786 0.33034 0.69845 0.0
H61 H 0.05304 0.14183 0.68121 0.0
H62 H 0.89837 0.11024 0.67876 0.0
H63 H 0.10828 0.4215 0.70156 0.0
H64 H 0.93014 0.19676 0.79244 0.0
H65 H 0.87083 0.3245 0.7329 0.0
C66 C 0.82282 0.93825 0.17132 0.0
C67 C 0.87381 0.93072 0.17027 0.0
N68 N 0.89641 0.97582 0.17232 0.0
N69 N 0.81336 0.98765 0.17471 0.0
C70 C 0.85892 0.00965 0.17499 0.0
H71 H 0.7942 0.90978 0.16964 0.0
Co72 Co 0.74977 0.01665 0.17679 0.0
C73 C 0.77112 0.09177 0.23876 0.0
O74 O 0.73332 0.07323 0.25818 0.0
N75 N 0.68492 0.0453 0.17696 0.0
C76 C 0.61436 0.08791 0.18697 0.0
C77 C 0.66563 0.08771 0.19185 0.0
C78 C 0.64503 0.02284 0.16052 0.0
N79 N 0.60129 0.0466 0.1674 0.0
O80 O 0.76148 0.04503 0.12746 0.0
H81 H 0.68659 0.11674 0.20592 0.0
H82 H 0.64777 0.98823 0.14481 0.0
O83 O 0.77954 0.07556 0.20502 0.0
C84 C 0.75319 0.00762 0.10552 0.0
O85 O 0.7367 0.96572 0.12069 0.0
N86 N 0.73699 0.98041 0.22191 0.0
C87 C 0.74567 0.89008 0.26029 0.0
C88 C 0.77781 0.93002 0.26893 0.0
C89 C 0.77332 0.97487 0.24897 0.0
C90 C 0.70092 0.9443 0.21795 0.0
C91 C 0.70442 0.89879 0.23706 0.0
H92 H 0.80408 0.00108 0.2509 0.0
H93 H 0.67396 0.94609 0.19558 0.0
H94 H 0.86458 0.04978 0.17652 0.0
H95 H 0.89262 0.89482 0.16874 0.0
H96 H 0.58884 0.1151 0.19896 0.0
H97 H 0.81076 0.92416 0.28638 0.0
H98 H 0.67929 0.86845 0.22957 0.0
C99 C 0.06325 0.82678 0.66942 0.0
C100 C 0.0696 0.87789 0.67087 0.0
N101 N 0.02421 0.89905 0.67607 0.0
N102 N 0.01422 0.81584 0.67385 0.0
C103 C 0.99126 0.86069 0.67714 0.0
H104 H 0.0923 0.79914 0.66546 0.0
Co105 Co 0.98639 0.75171 0.67572 0.0
C106 C 0.91007 0.77221 0.73709 0.0
O107 O 0.92862 0.73472 0.75682 0.0
N108 N 0.95864 0.68645 0.67592 0.0
C109 C 0.91541 0.61619 0.68565 0.0
C110 C 0.91559 0.66742 0.69014 0.0
C111 C 0.98165 0.64634 0.66025 0.0
N112 N 0.95742 0.6028 0.66696 0.0
O113 O 0.95875 0.76274 0.62614 0.0
H114 H 0.88599 0.68858 0.70338 0.0
H115 H 0.01676 0.64877 0.64502 0.0
O116 O 0.92653 0.7804 0.70337 0.0
C117 C 0.99668 0.75388 0.60472 0.0
O118 O 0.03813 0.73756 0.62067 0.0
N119 N 0.02216 0.73972 0.72113 0.0
C120 C 0.11221 0.7504 0.7595 0.0
C121 C 0.07153 0.78166 0.76807 0.0
C122 C 0.02679 0.77614 0.74813 0.0
C123 C 0.05908 0.70446 0.71728 0.0
C124 C 0.10446 0.70896 0.7364 0.0
H125 H -0.0001 0.80631 0.75002 0.0
H126 H 0.05799 0.67752 0.69493 0.0
H127 H 0.95106 0.86523 0.67961 0.0
H128 H 0.10484 0.89791 0.66863 0.0
H129 H 0.88762 0.59095 0.69727 0.0
H130 H 0.07664 0.81473 0.78543 0.0
H131 H 0.13542 0.68452 0.72895 0.0
C132 C 0.17847 0.93696 0.86859 0.0
C133 C 0.12696 0.93264 0.86909 0.0
N134 N 0.10732 0.97912 0.87055 0.0
N135 N 0.191 0.98593 0.86896 0.0
C136 C 0.14688 0.01066 0.87041 0.0
H137 H 0.20521 0.90653 0.86824 0.0
Co138 Co 0.25555 0.01286 0.86943 0.0
C139 C 0.23928 0.09508 0.81205 0.0
O140 O 0.27855 0.07891 0.79315 0.0
N141 N 0.32107 0.03965 0.87209 0.0
C142 C 0.3914 0.08513 0.87109 0.0
C143 C 0.34039 0.08541 0.86413 0.0
C144 C 0.36047 0.01389 0.88637 0.0
N145 N 0.40368 0.03976 0.8848 0.0
O146 O 0.24329 0.03678 0.91976 0.0
H147 H 0.31936 0.11723 0.8539 0.0
H148 H 0.35802 0.97618 0.8975 0.0
O149 O 0.2285 0.07503 0.84419 0.0
C150 C 0.25137 -0.00157 0.94088 0.0
O151 O 0.26612 0.95676 0.92448 0.0
N152 N 0.26854 0.98129 0.82237 0.0
C153 C 0.25853 0.8962 0.77823 0.0
C154 C 0.22773 0.93785 0.77163 0.0
C155 C 0.23294 0.98013 0.79445 0.0
C156 C 0.3036 0.94393 0.82431 0.0
C157 C 0.29948 0.90111 0.80227 0.0
H158 H 0.20301 0.0074 0.79377 0.0
H159 H 0.32988 0.94196 0.84699 0.0
H160 H 0.14377 0.05108 0.87105 0.0
H161 H 0.10561 0.89809 0.86907 0.0
H162 H 0.41767 0.11507 0.86504 0.0
H163 H 0.19492 0.93473 0.75366 0.0
H164 H 0.32335 0.86918 0.80838 0.0
C165 C 0.06705 0.17551 0.37848 0.0
C166 C 0.07224 0.12413 0.37951 0.0
N167 N 0.02608 0.10372 0.37762 0.0
N168 N 0.01802 0.18718 0.37515 0.0
C169 C 0.99403 0.14266 0.37502 0.0
H170 H 0.09679 0.20278 0.38044 0.0
Co171 Co 0.99009 0.25128 0.37277 0.0
C172 C 0.90945 0.23152 0.31453 0.0
O173 O 0.92558 0.27026 0.29494 0.0
N174 N 0.96174 0.31634 0.37231 0.0
C175 C 0.91088 0.38261 0.36962 0.0
C176 C 0.91409 0.33135 0.36568 0.0
C177 C 0.9854 0.35888 0.38306 0.0
N178 N 0.95632 0.40003 0.37987 0.0
O179 O 0.96427 0.24147 0.42296 0.0
H180 H 0.88293 0.30691 0.35935 0.0
H181 H 0.02335 0.35991 0.39369 0.0
O182 O 0.92945 0.222 0.34692 0.0
C183 C 0.00246 0.25138 0.44376 0.0
O184 O 0.0432 0.26838 0.42713 0.0
N185 N 0.02372 0.26183 0.32623 0.0
C186 C 0.11078 0.24939 0.28429 0.0
C187 C 0.06917 0.21848 0.27772 0.0
C188 C 0.02582 0.22508 0.2993 0.0
C189 C 0.06158 0.2963 0.32843 0.0
C190 C 0.10513 0.29132 0.30717 0.0
H191 H -0.00176 0.19546 0.29867 0.0
H192 H 0.06323 0.32264 0.351 0.0
H193 H 0.9538 0.1387 0.37264 0.0
H194 H 0.10704 0.10343 0.38207 0.0
H195 H 0.87735 0.40496 0.36589 0.0
H196 H 0.07269 0.18504 0.26055 0.0
H197 H 0.1369 0.31542 0.31317 0.0
C198 C 0.826 0.07044 0.87286 0.0
C199 C 0.8773 0.07646 0.87352 0.0
N200 N 0.89852 0.03064 0.87211 0.0
N201 N 0.81508 0.02126 0.87043 0.0
C202 C 0.86002 -0.00205 0.87035 0.0
H203 H 0.79825 0.09975 0.87433 0.0
Co204 Co 0.75111 0.99297 0.86939 0.0
C205 C 0.77096 0.91209 0.81174 0.0
O206 O 0.73231 0.92811 0.79203 0.0
N207 N 0.68626 0.96449 0.87062 0.0
C208 C 0.6187 0.91538 0.86981 0.0
C209 C 0.66959 0.91775 0.86308 0.0
C210 C 0.64536 0.98835 0.88439 0.0
N211 N 0.60334 0.96019 0.88299 0.0
O212 O 0.7623 0.96835 0.91974 0.0
H213 H 0.69255 0.88673 0.85394 0.0
H214 H 0.64639 0.02636 0.89469 0.0
O215 O 0.78025 0.93209 0.84411 0.0
C216 C 0.75218 0.00599 0.94098 0.0
O217 O 0.73594 0.04724 0.92465 0.0
N218 N 0.73905 0.02522 0.82226 0.0
C219 C 0.74987 0.11259 0.78055 0.0
C220 C 0.78238 0.07209 0.77441 0.0
C221 C 0.77642 0.02847 0.79577 0.0
C222 C 0.70247 0.06119 0.82316 0.0
C223 C 0.70697 0.10515 0.80226 0.0
H224 H 0.80688 0.00176 0.79554 0.0
H225 H 0.67385 0.06098 0.84423 0.0
H226 H 0.86461 0.95769 0.86981 0.0
H227 H 0.89729 0.11176 0.87451 0.0
H228 H 0.59486 0.88311 0.86518 0.0
H229 H 0.81638 0.07681 0.75791 0.0
H230 H 0.6812 0.13581 0.80753 0.0
C231 C 0.93374 0.82352 0.3683 0.0
C232 C 0.92849 0.87477 0.36977 0.0
N233 N 0.97467 0.89525 0.3717 0.0
N234 N 0.98296 0.81186 0.36859 0.0
C235 C 0.00696 0.85629 0.37087 0.0
H236 H 0.90374 0.79633 0.3672 0.0
Co237 Co 0.01032 0.74759 0.36847 0.0
C238 C 0.09067 0.76476 0.30961 0.0
O239 O 0.07364 0.72596 0.29069 0.0
N240 N 0.03752 0.68214 0.37041 0.0
C241 C 0.08192 0.61139 0.3662 0.0
C242 C 0.08249 0.66261 0.3604 0.0
C243 C 0.01227 0.64257 0.38495 0.0
N244 N 0.03731 0.59912 0.3813 0.0
O245 O 0.03584 0.75956 0.41841 0.0
H246 H 0.11383 0.68352 0.34922 0.0
H247 H 0.9752 0.64496 0.39729 0.0
O248 O 0.07164 0.77519 0.34215 0.0
C249 C 0.9979 0.75157 0.44 0.0
O250 O 0.95578 0.73688 0.42415 0.0
N251 N 0.97702 0.73477 0.32209 0.0
C252 C 0.89066 0.74362 0.27888 0.0
C253 C 0.9321 0.77441 0.2714 0.0
C254 C 0.97497 0.76987 0.29381 0.0
C255 C 0.93947 0.70009 0.32529 0.0
C256 C 0.8962 0.7034 0.30358 0.0
H257 H 0.00211 0.79988 0.29245 0.0
H258 H 0.9377 0.67512 0.34883 0.0
H259 H 0.04734 0.86001 0.37278 0.0
H260 H 0.89343 0.89526 0.36903 0.0
H261 H 0.11092 0.585 0.35823 0.0
H262 H 0.92844 0.80678 0.25301 0.0
H263 H 0.86439 0.67975 0.31053 0.0
C264 C 0.25238 0.95178 0.04287 0.0
C265 C 0.24223 0.9951 0.06384 0.0
C266 C 0.25408 0.95342 1.00318 0.0
C267 C 0.24542 -0.00164 0.98279 0.0
H268 H 0.26124 0.91693 0.05718 0.0
H269 H 0.26349 0.91909 0.98849 0.0
S270 S 0.21049 0.12075 0.0246 0.0
N271 N 0.21844 0.08331 0.06137 0.0
N272 N 0.22177 0.08606 0.98692 0.0
C273 C 0.23256 0.04129 1.00344 0.0
C274 C 0.23095 0.03971 0.04387 0.0
C275 C 0.95899 0.24867 0.50674 0.0
C276 C 0.00321 0.24484 0.48552 0.0
C277 C 0.96053 0.24918 0.54643 0.0
C278 C 0.00631 0.24553 0.56662 0.0
H279 H 0.92315 0.25331 0.49268 0.0
H280 H 0.92528 0.25361 0.56132 0.0
S281 S 0.13217 0.22805 0.52408 0.0
N282 N 0.09388 0.23238 0.4875 0.0
N283 N 0.09637 0.23348 0.56199 0.0
C284 C 0.0505 0.23893 0.54571 0.0
C285 C 0.04902 0.23861 0.50524 0.0
C286 C 0.7504 0.05215 0.04295 0.0
C287 C 0.76057 0.00875 0.06393 0.0
C288 C 0.74896 0.05071 1.00325 0.0
C289 C 0.75795 0.0059 0.98289 0.0
H290 H 0.74121 0.08685 0.05725 0.0
H291 H 0.7395 0.08507 0.98851 0.0
S292 S 0.79293 0.8834 0.02489 0.0
N293 N 0.78463 0.92066 0.06161 0.0
N294 N 0.78186 0.91824 0.98714 0.0
C295 C 0.77087 0.96292 1.00359 0.0
C296 C 0.77218 0.96431 0.04402 0.0
C297 C 0.95321 0.75353 0.5024 0.0
C298 C -0.00131 0.75773 0.48186 0.0
C299 C 0.95209 0.75491 0.54211 0.0
C300 C 0.99646 0.76023 0.56295 0.0
H301 H 0.91793 0.74799 0.48778 0.0
H302 H 0.91656 0.74969 0.55651 0.0
S303 S 0.12465 0.77874 0.52323 0.0
N304 N 0.08854 0.77171 0.48568 0.0
N305 N 0.08684 0.77457 0.56012 0.0
C306 C 0.0419 0.76703 0.5428 0.0
C307 C 0.04295 0.76575 0.50236 0.0
C308 C 0.17554 0.21287 0.24204 0.0
C309 C 0.16117 0.22828 0.27829 0.0
C310 C 0.21329 0.17704 0.23749 0.0
C311 C 0.23601 0.15427 0.26913 0.0
H312 H 0.15469 0.22535 0.21745 0.0
H313 H 0.22081 0.16328 0.20929 0.0
S314 S 0.21826 0.18858 0.36935 0.0
N315 N 0.17918 0.22526 0.34585 0.0
N316 N 0.24721 0.15449 0.33706 0.0
C317 C 0.22575 0.17303 0.3051 0.0
C318 C 0.18889 0.21103 0.30971 0.0
C319 C 0.78686 0.1787 0.73968 0.0
C320 C 0.76975 0.16364 0.77538 0.0
C321 C 0.82268 0.21671 0.73638 0.0
C322 C 0.84396 0.23881 0.76877 0.0
H323 H 0.77586 0.15812 0.71462 0.0
H324 H 0.83762 0.2249 0.70861 0.0
S325 S 0.80383 0.22013 0.86775 0.0
N326 N 0.76856 0.18124 0.843 0.0
N327 N 0.83987 0.24929 0.83669 0.0
C328 C 0.82322 0.22811 0.8041 0.0
C329 C 0.78497 0.19119 0.80739 0.0
C330 C 0.77967 0.82269 0.30121 0.0
C331 C 0.76509 0.83882 0.26514 0.0
C332 C 0.81622 0.78555 0.30532 0.0
C333 C 0.84039 0.76501 0.27346 0.0
H334 H 0.76636 0.84216 0.32616 0.0
H335 H 0.82945 0.77696 0.33354 0.0
S336 S 0.80789 0.78692 0.17327 0.0
N337 N 0.76983 0.82406 0.19724 0.0
N338 N 0.84192 0.75716 0.20526 0.0
C339 C 0.82223 0.77665 0.23749 0.0
C340 C 0.78349 0.8129 0.23329 0.0
C341 C 0.21643 0.82166 0.80441 0.0
C342 C 0.23679 0.84622 0.77259 0.0
C343 C 0.17931 0.78511 0.80029 0.0
C344 C 0.16308 0.77088 0.76422 0.0
H345 H 0.22529 0.83446 0.83266 0.0
H346 H 0.1601 0.77132 0.82526 0.0
S347 S 0.21398 0.81531 0.67232 0.0
N348 N 0.244 0.84887 0.70436 0.0
N349 N 0.17711 0.77685 0.69626 0.0
C350 C 0.18859 0.78994 0.73233 0.0
C351 C 0.22481 0.82866 0.73657 0.0
C352 C 0.83793 0.83393 0.73598 0.0
C353 C 0.87513 0.80802 0.75631 0.0
C354 C 0.80414 0.86657 0.75432 0.0
C355 C 0.80658 0.87561 0.79372 0.0
H356 H 0.8344 0.82841 0.70575 0.0
H357 H 0.77615 0.88536 0.73719 0.0
S358 S 0.90006 0.82022 0.85942 0.0
N359 N 0.91409 0.79568 0.8179 0.0
N360 N 0.85126 0.85707 0.85194 0.0
C361 C 0.84446 0.8508 0.81416 0.0
C362 C 0.87844 0.81709 0.79561 0.0
C363 C 0.1974 0.85853 0.29342 0.0
C364 C 0.19721 0.86624 0.25377 0.0
C365 C 0.16274 0.82638 0.31139 0.0
C366 C 0.12688 0.79954 0.29051 0.0
H367 H 0.22419 0.87811 0.31106 0.0
H368 H 0.16446 0.82208 0.34184 0.0
S369 S 0.10825 0.80752 0.18636 0.0
N370 N 0.15624 0.84512 0.19456 0.0
N371 N 0.09192 0.78437 0.22795 0.0
C372 C 0.12601 0.80694 0.25089 0.0
C373 C 0.16083 0.84028 0.23267 0.0
C374 C 0.14174 0.19857 0.79669 0.0
C375 C 0.13491 0.19945 0.75698 0.0
C376 C 0.175 0.16473 0.81436 0.0
C377 C 0.20392 0.13089 0.79312 0.0
H378 H 0.12056 0.22379 0.81459 0.0
H379 H 0.17842 0.16544 0.84489 0.0
S380 S 0.19922 0.11597 0.68855 0.0
N381 N 0.15918 0.16178 0.69725 0.0
N382 N 0.22216 0.09913 0.73007 0.0
C383 C 0.19749 0.1312 0.75341 0.0
C384 C 0.16296 0.16511 0.73549 0.0
C385 C 0.83283 0.16401 0.23809 0.0
C386 C 0.80653 0.12691 0.25826 0.0
C387 C 0.86501 0.198 0.25669 0.0
C388 C 0.87321 0.19587 0.29623 0.0
H389 H 0.828 0.1673 0.20777 0.0
H390 H 0.88417 0.22585 0.23965 0.0
S391 S 0.81595 0.10332 0.36182 0.0
N392 N 0.79252 0.08879 0.32003 0.0
N393 N 0.85306 0.15195 0.35451 0.0
C394 C 0.84783 0.15826 0.31657 0.0
C395 C 0.81457 0.12409 0.29775 0.0
C396 C 0.02004 0.03633 0.19496 0.0
C397 C 0.05409 0.00812 0.17334 0.0
C398 C 0.96862 0.02547 0.19454 0.0
C399 C 0.94943 0.98615 0.17237 0.0
H400 H 0.03343 0.06653 0.21273 0.0
H401 H 0.94375 0.04759 0.21209 0.0
S402 S 0.02264 0.90424 0.10801 0.0
N403 N 0.06499 0.94119 0.12757 0.0
N404 N 0.96822 0.921 0.12645 0.0
C405 C 0.98306 0.95817 0.15015 0.0
C406 C 0.03544 0.96912 0.15072 0.0
C407 C 0.02975 0.03768 0.65823 0.0
C408 C 0.99084 0.05609 0.68117 0.0
C409 C 0.04064 0.98638 0.65694 0.0
C410 C 0.01318 0.95173 0.67871 0.0
H411 H 0.05116 0.06308 0.64055 0.0
H412 H 0.0701 0.97362 0.63818 0.0
S413 S 0.91173 0.98198 0.74702 0.0
N414 N 0.92735 0.03661 0.72831 0.0
N415 N 0.9483 0.94008 0.72647 0.0
C416 C 0.97516 0.96991 0.70271 0.0
C417 C 0.96387 0.02215 0.7038 0.0
C418 C 0.96901 0.97832 0.85005 0.0
C419 C 0.95115 0.0184 0.87213 0.0
C420 C 0.02004 0.96555 0.84978 0.0
C421 C 0.05498 0.99235 0.87162 0.0
H422 H 0.94341 0.95707 0.83252 0.0
H423 H 0.0324 0.93498 0.83194 0.0
S424 S 0.02657 0.09666 0.93745 0.0
N425 N 0.97182 0.08236 0.91843 0.0
N426 N 0.06772 0.05825 0.91799 0.0
C427 C 0.03748 0.0318 0.8944 0.0
C428 C 0.98556 0.04485 0.89463 0.0
C429 C 0.03026 0.96613 0.35538 0.0
C430 C 0.98738 0.94764 0.37405 0.0
C431 C 0.04309 0.01706 0.35704 0.0
C432 C 0.01343 0.05128 0.37738 0.0
H433 H 0.05355 0.94117 0.3388 0.0
H434 H 0.07582 0.03 0.34168 0.0
S435 S 0.90065 0.02106 0.43458 0.0
N436 N 0.91754 0.96697 0.41585 0.0
N437 N 0.94154 0.06266 0.4188 0.0
C438 C 0.97115 0.03313 0.39686 0.0
C439 C 0.95813 0.98132 0.39523 0.0
C440 C 0.49571 0.95292 0.16178 0.0
C441 C 0.4525 0.98325 0.16185 0.0
C442 C 0.54397 0.97382 0.16213 0.0
C443 C 0.55142 0.02616 0.16214 0.0
H444 H 0.49229 0.9125 0.16251 0.0
H445 H 0.57553 0.94843 0.16405 0.0
S446 S 0.45147 0.12291 0.15835 0.0
N447 N 0.42091 0.06919 0.16016 0.0
N448 N 0.51152 0.10787 0.15827 0.0
C449 C 0.50876 0.05704 0.15996 0.0
C450 C 0.45941 0.03582 0.16032 0.0
C451 C 0.02996 0.54496 0.66293 0.0
C452 C 0.97763 0.55282 0.66214 0.0
C453 C 0.05047 0.49658 0.66312 0.0
C454 C 0.01974 0.45368 0.66298 0.0
H455 H 0.05556 0.57629 0.66507 0.0
H456 H 0.09088 0.49284 0.66445 0.0
S457 S 0.88003 0.4538 0.65733 0.0
N458 N 0.89562 0.51364 0.65716 0.0
N459 N 0.93349 0.42285 0.66015 0.0
C460 C 0.96723 0.46101 0.66061 0.0
C461 C 0.94642 0.51046 0.65967 0.0
C462 C 0.46521 0.97658 0.86497 0.0
C463 C 0.45306 0.01844 0.88718 0.0
C464 C 0.51384 0.95667 0.86487 0.0
C465 C 0.55215 0.97745 0.8874 0.0
H466 H 0.4372 0.96025 0.84653 0.0
H467 H 0.5218 0.92599 0.84582 0.0
S468 S 0.53641 0.08304 0.95494 0.0
N469 N 0.48097 0.07774 0.9344 0.0
N470 N 0.57213 0.03907 0.93605 0.0
C471 C 0.53943 0.01788 0.91134 0.0
C472 C 0.48997 0.03871 0.91074 0.0
C473 C 0.01371 0.46422 0.40643 0.0
C474 C 0.97319 0.45147 0.38253 0.0
C475 C 0.0346 0.51262 0.40618 0.0
C476 C 0.01517 0.55007 0.38249 0.0
H477 H 0.0298 0.43646 0.4252 0.0
H478 H 0.06607 0.5209 0.4245 0.0
S479 S 0.91154 0.53677 0.31347 0.0
N480 N 0.91614 0.48095 0.33344 0.0
N481 N 0.95454 0.57182 0.33412 0.0
C482 C 0.97453 0.53834 0.35891 0.0
C483 C 0.95363 0.48912 0.35872 0.0
loop_
_geom_bond_atom_site_label_1
_geom_bond_atom_site_label_2
_geom_bond_distance
_geom_bond_site_symmetry_2
_ccdc_geom_bond_type
C0 C1 1.351 . S
C0 N3 1.368 1_545 S
C0 H5 0.931 . S
C1 C0 1.351 . S
C1 N2 1.373 1_545 S
C1 H29 0.930 . S
N2 C1 1.373 1_565 S
N2 C4 1.340 . S
N3 C0 1.368 1_565 S
N3 C4 1.321 . S
N3 Co6 2.135 . S
C4 N2 1.340 . S
C4 N3 1.321 . S
C4 H28 0.930 . S
H5 C0 0.931 . S
Co6 N3 2.135 . S
Co6 N9 2.121 . S
Co6 O14 2.055 . S
Co6 O17 2.039 . S
Co6 N20 2.140 1_565 S
C7 O8 1.227 . S
C7 O17 1.265 . S
O8 C7 1.227 . S
N9 Co6 2.121 . S
N9 C11 1.375 . S
N9 C12 1.313 . S
C10 C11 1.338 . S
C10 N13 1.377 . S
C10 H30 0.930 . S
C11 N9 1.375 . S
C11 C10 1.338 . S
C11 H15 0.931 . S
C12 N9 1.313 . S
C12 N13 1.344 . S
C12 H16 0.930 . S
N13 C10 1.377 . S
N13 C12 1.344 . S
O14 Co6 2.055 . S
O14 C18 1.253 1_565 S
H15 C11 0.931 . S
H16 C12 0.930 . S
O17 Co6 2.039 . S
O17 C7 1.265 . S
C18 O14 1.253 1_545 S
C18 O19 1.227 . S
O19 C18 1.227 . S
N20 Co6 2.140 1_545 S
N20 C23 1.346 . S
N20 C24 1.345 . S
C21 C22 1.387 . S
C21 C25 1.391 . S
C22 C21 1.387 . S
C22 C23 1.369 . S
C22 H31 0.929 . S
C23 N20 1.346 . S
C23 C22 1.369 . S
C23 H26 0.928 . S
C24 N20 1.345 . S
C24 C25 1.371 . S
C24 H27 0.931 . S
C25 C21 1.391 . S
C25 C24 1.371 . S
C25 H32 0.930 . S
H26 C23 0.928 . S
H27 C24 0.931 . S
H28 C4 0.930 . S
H29 C1 0.930 . S
H30 C10 0.930 . S
H31 C22 0.929 . S
H32 C25 0.930 . S
C33 C34 1.351 . S
C33 N36 1.368 1_655 S
C33 H38 0.931 . S
C34 C33 1.351 . S
C34 N35 1.373 1_655 S
C34 H62 0.930 . S
N35 C34 1.373 1_455 S
N35 C37 1.340 . S
N36 C33 1.368 1_455 S
N36 C37 1.321 . S
N36 Co39 2.135 . S
C37 N35 1.340 . S
C37 N36 1.321 . S
C37 H61 0.930 . S
H38 C33 0.931 . S
Co39 N36 2.135 . S
Co39 N42 2.121 . S
Co39 O47 2.055 . S
Co39 O50 2.039 . S
Co39 N53 2.140 1_455 S
C40 O41 1.227 . S
C40 O50 1.265 . S
O41 C40 1.227 . S
N42 Co39 2.121 . S
N42 C44 1.375 . S
N42 C45 1.313 . S
C43 C44 1.338 . S
C43 N46 1.377 . S
C43 H63 0.930 . S
C44 N42 1.375 . S
C44 C43 1.338 . S
C44 H48 0.931 . S
C45 N42 1.313 . S
C45 N46 1.344 . S
C45 H49 0.930 . S
N46 C43 1.377 . S
N46 C45 1.344 . S
O47 Co39 2.055 . S
O47 C51 1.253 . S
H48 C44 0.931 . S
H49 C45 0.930 . S
O50 Co39 2.039 . S
O50 C40 1.265 . S
C51 O47 1.253 . S
C51 O52 1.227 1_455 S
O52 C51 1.227 1_655 S
N53 Co39 2.140 1_655 S
N53 C56 1.346 . S
N53 C57 1.345 . S
C54 C55 1.387 . S
C54 C58 1.391 . S
C55 C54 1.387 . S
C55 C56 1.369 . S
C55 H64 0.929 . S
C56 N53 1.346 . S
C56 C55 1.369 . S
C56 H59 0.928 . S
C57 N53 1.345 . S
C57 C58 1.371 . S
C57 H60 0.931 . S
C58 C54 1.391 . S
C58 C57 1.371 . S
C58 H65 0.930 . S
H59 C56 0.928 . S
H60 C57 0.931 . S
H61 C37 0.930 . S
H62 C34 0.930 . S
H63 C43 0.930 . S
H64 C55 0.929 . S
H65 C58 0.930 . S
C66 C67 1.351 . S
C66 N69 1.368 1_565 S
C66 H71 0.931 . S
C67 C66 1.351 . S
C67 N68 1.373 1_565 S
C67 H95 0.930 . S
N68 C67 1.373 1_545 S
N68 C70 1.340 . S
N69 C66 1.368 1_545 S
N69 C70 1.321 . S
N69 Co72 2.135 . S
C70 N68 1.340 . S
C70 N69 1.321 . S
C70 H94 0.930 . S
H71 C66 0.931 . S
Co72 N69 2.135 . S
Co72 N75 2.121 . S
Co72 O80 2.055 . S
Co72 O83 2.039 . S
Co72 N86 2.140 1_545 S
C73 O74 1.227 . S
C73 O83 1.265 . S
O74 C73 1.227 . S
N75 Co72 2.121 . S
N75 C77 1.375 . S
N75 C78 1.313 . S
C76 C77 1.338 . S
C76 N79 1.377 . S
C76 H96 0.930 . S
C77 N75 1.375 . S
C77 C76 1.338 . S
C77 H81 0.931 . S
C78 N75 1.313 . S
C78 N79 1.344 . S
C78 H82 0.930 . S
N79 C76 1.377 . S
N79 C78 1.344 . S
O80 Co72 2.055 . S
O80 C84 1.253 . S
H81 C77 0.931 . S
H82 C78 0.930 . S
O83 Co72 2.039 . S
O83 C73 1.265 . S
C84 O80 1.253 . S
C84 O85 1.227 1_545 S
O85 C84 1.227 1_565 S
N86 Co72 2.140 1_565 S
N86 C89 1.346 . S
N86 C90 1.345 . S
C87 C88 1.387 . S
C87 C91 1.391 . S
C88 C87 1.387 . S
C88 C89 1.369 . S
C88 H97 0.929 . S
C89 N86 1.346 . S
C89 C88 1.369 . S
C89 H92 0.928 . S
C90 N86 1.345 . S
C90 C91 1.371 . S
C90 H93 0.931 . S
C91 C87 1.391 . S
C91 C90 1.371 . S
C91 H98 0.930 . S
H92 C89 0.928 . S
H93 C90 0.931 . S
H94 C70 0.930 . S
H95 C67 0.930 . S
H96 C76 0.930 . S
H97 C88 0.929 . S
H98 C91 0.930 . S
C99 C100 1.351 . S
C99 N102 1.368 1_455 S
C99 H104 0.931 . S
C100 C99 1.351 . S
C100 N101 1.373 1_455 S
C100 H128 0.930 . S
N101 C100 1.373 1_655 S
N101 C103 1.340 . S
N102 C99 1.368 1_655 S
N102 C103 1.321 . S
N102 Co105 2.135 . S
C103 N101 1.340 . S
C103 N102 1.321 . S
C103 H127 0.930 . S
H104 C99 0.931 . S
Co105 N102 2.135 . S
Co105 N108 2.121 . S
Co105 O113 2.055 . S
Co105 O116 2.039 . S
Co105 N119 2.140 1_655 S
C106 O107 1.227 . S
C106 O116 1.265 . S
O107 C106 1.227 . S
N108 Co105 2.121 . S
N108 C110 1.375 . S
N108 C111 1.313 . S
C109 C110 1.338 . S
C109 N112 1.377 . S
C109 H129 0.930 . S
C110 N108 1.375 . S
C110 C109 1.338 . S
C110 H114 0.931 . S
C111 N108 1.313 . S
C111 N112 1.344 . S
C111 H115 0.930 . S
N112 C109 1.377 . S
N112 C111 1.344 . S
O113 Co105 2.055 . S
O113 C117 1.253 1_655 S
H114 C110 0.931 . S
H115 C111 0.930 . S
O116 Co105 2.039 . S
O116 C106 1.265 . S
C117 O113 1.253 1_455 S
C117 O118 1.227 . S
O118 C117 1.227 . S
N119 Co105 2.140 1_455 S
N119 C122 1.346 . S
N119 C123 1.345 . S
C120 C121 1.387 . S
C120 C124 1.391 . S
C121 C120 1.387 . S
C121 C122 1.369 . S
C121 H130 0.929 . S
C122 N119 1.346 . S
C122 C121 1.369 . S
C122 H125 0.928 . S
C123 N119 1.345 . S
C123 C124 1.371 . S
C123 H126 0.931 . S
C124 C120 1.391 . S
C124 C123 1.371 . S
C124 H131 0.930 . S
H125 C122 0.928 . S
H126 C123 0.931 . S
H127 C103 0.930 . S
H128 C100 0.930 . S
H129 C109 0.930 . S
H130 C121 0.929 . S
H131 C124 0.930 . S
C132 C133 1.351 . S
C132 N135 1.368 1_565 S
C132 H137 0.931 . S
C133 C132 1.351 . S
C133 N134 1.373 1_565 S
C133 H161 0.930 . S
N134 C133 1.373 1_545 S
N134 C136 1.340 . S
N135 C132 1.368 1_545 S
N135 C136 1.321 . S
N135 Co138 2.135 . S
C136 N134 1.340 . S
C136 N135 1.321 . S
C136 H160 0.930 . S
H137 C132 0.931 . S
Co138 N135 2.135 . S
Co138 N141 2.121 . S
Co138 O146 2.055 . S
Co138 O149 2.039 . S
Co138 N152 2.140 1_545 S
C139 O140 1.227 . S
C139 O149 1.265 . S
O140 C139 1.227 . S
N141 Co138 2.121 . S
N141 C143 1.375 . S
N141 C144 1.313 . S
C142 C143 1.338 . S
C142 N145 1.377 . S
C142 H162 0.930 . S
C143 N141 1.375 . S
C143 C142 1.338 . S
C143 H147 0.931 . S
C144 N141 1.313 . S
C144 N145 1.344 . S
C144 H148 0.930 . S
N145 C142 1.377 . S
N145 C144 1.344 . S
O146 Co138 2.055 . S
O146 C150 1.253 . S
H147 C143 0.931 . S
H148 C144 0.930 . S
O149 Co138 2.039 . S
O149 C139 1.265 . S
C150 O146 1.253 . S
C150 O151 1.227 1_545 S
O151 C150 1.227 1_565 S
N152 Co138 2.140 1_565 S
N152 C155 1.346 . S
N152 C156 1.345 . S
C153 C154 1.387 . S
C153 C157 1.391 . S
C154 C153 1.387 . S
C154 C155 1.369 . S
C154 H163 0.929 . S
C155 N152 1.346 . S
C155 C154 1.369 . S
C155 H158 0.928 . S
C156 N152 1.345 . S
C156 C157 1.371 . S
C156 H159 0.931 . S
C157 C153 1.391 . S
C157 C156 1.371 . S
C157 H164 0.930 . S
H158 C155 0.928 . S
H159 C156 0.931 . S
H160 C136 0.930 . S
H161 C133 0.930 . S
H162 C142 0.930 . S
H163 C154 0.929 . S
H164 C157 0.930 . S
C165 C166 1.351 . S
C165 N168 1.368 1_455 S
C165 H170 0.931 . S
C166 C165 1.351 . S
C166 N167 1.373 1_455 S
C166 H194 0.930 . S
N167 C166 1.373 1_655 S
N167 C169 1.340 . S
N168 C165 1.368 1_655 S
N168 C169 1.321 . S
N168 Co171 2.135 . S
C169 N167 1.340 . S
C169 N168 1.321 . S
C169 H193 0.930 . S
H170 C165 0.931 . S
Co171 N168 2.135 . S
Co171 N174 2.121 . S
Co171 O179 2.055 . S
Co171 O182 2.039 . S
Co171 N185 2.140 1_655 S
C172 O173 1.227 . S
C172 O182 1.265 . S
O173 C172 1.227 . S
N174 Co171 2.121 . S
N174 C176 1.375 . S
N174 C177 1.313 . S
C175 C176 1.338 . S
C175 N178 1.377 . S
C175 H195 0.930 . S
C176 N174 1.375 . S
C176 C175 1.338 . S
C176 H180 0.931 . S
C177 N174 1.313 . S
C177 N178 1.344 . S
C177 H181 0.930 . S
N178 C175 1.377 . S
N178 C177 1.344 . S
O179 Co171 2.055 . S
O179 C183 1.253 1_655 S
H180 C176 0.931 . S
H181 C177 0.930 . S
O182 Co171 2.039 . S
O182 C172 1.265 . S
C183 O179 1.253 1_455 S
C183 O184 1.227 . S
O184 C183 1.227 . S
N185 Co171 2.140 1_455 S
N185 C188 1.346 . S
N185 C189 1.345 . S
C186 C187 1.387 . S
C186 C190 1.391 . S
C187 C186 1.387 . S
C187 C188 1.369 . S
C187 H196 0.929 . S
C188 N185 1.346 . S
C188 C187 1.369 . S
C188 H191 0.928 . S
C189 N185 1.345 . S
C189 C190 1.371 . S
C189 H192 0.931 . S
C190 C186 1.391 . S
C190 C189 1.371 . S
C190 H197 0.930 . S
H191 C188 0.928 . S
H192 C189 0.931 . S
H193 C169 0.930 . S
H194 C166 0.930 . S
H195 C175 0.930 . S
H196 C187 0.929 . S
H197 C190 0.930 . S
C198 C199 1.351 . S
C198 N201 1.368 1_545 S
C198 H203 0.931 . S
C199 C198 1.351 . S
C199 N200 1.373 1_545 S
C199 H227 0.930 . S
N200 C199 1.373 1_565 S
N200 C202 1.340 . S
N201 C198 1.368 1_565 S
N201 C202 1.321 . S
N201 Co204 2.135 . S
C202 N200 1.340 . S
C202 N201 1.321 . S
C202 H226 0.930 . S
H203 C198 0.931 . S
Co204 N201 2.135 . S
Co204 N207 2.121 . S
Co204 O212 2.055 . S
Co204 O215 2.039 . S
Co204 N218 2.140 1_565 S
C205 O206 1.227 . S
C205 O215 1.265 . S
O206 C205 1.227 . S
N207 Co204 2.121 . S
N207 C209 1.375 . S
N207 C210 1.313 . S
C208 C209 1.338 . S
C208 N211 1.377 . S
C208 H228 0.930 . S
C209 N207 1.375 . S
C209 C208 1.338 . S
C209 H213 0.931 . S
C210 N207 1.313 . S
C210 N211 1.344 . S
C210 H214 0.930 . S
N211 C208 1.377 . S
N211 C210 1.344 . S
O212 Co204 2.055 . S
O212 C216 1.253 1_565 S
H213 C209 0.931 . S
H214 C210 0.930 . S
O215 Co204 2.039 . S
O215 C205 1.265 . S
C216 O212 1.253 1_545 S
C216 O217 1.227 . S
O217 C216 1.227 . S
N218 Co204 2.140 1_545 S
N218 C221 1.346 . S
N218 C222 1.345 . S
C219 C220 1.387 . S
C219 C223 1.391 . S
C220 C219 1.387 . S
C220 C221 1.369 . S
C220 H229 0.929 . S
C221 N218 1.346 . S
C221 C220 1.369 . S
C221 H224 0.928 . S
C222 N218 1.345 . S
C222 C223 1.371 . S
C222 H225 0.931 . S
C223 C219 1.391 . S
C223 C222 1.371 . S
C223 H230 0.930 . S
H224 C221 0.928 . S
H225 C222 0.931 . S
H226 C202 0.930 . S
H227 C199 0.930 . S
H228 C208 0.930 . S
H229 C220 0.929 . S
H230 C223 0.930 . S
C231 C232 1.351 . S
C231 N234 1.368 1_655 S
C231 H236 0.931 . S
C232 C231 1.351 . S
C232 N233 1.373 1_655 S
C232 H260 0.930 . S
N233 C232 1.373 1_455 S
N233 C235 1.340 . S
N234 C231 1.368 1_455 S
N234 C235 1.321 . S
N234 Co237 2.135 . S
C235 N233 1.340 . S
C235 N234 1.321 . S
C235 H259 0.930 . S
H236 C231 0.931 . S
Co237 N234 2.135 . S
Co237 N240 2.121 . S
Co237 O245 2.055 . S
Co237 O248 2.039 . S
Co237 N251 2.140 1_455 S
C238 O239 1.227 . S
C238 O248 1.265 . S
O239 C238 1.227 . S
N240 Co237 2.121 . S
N240 C242 1.375 . S
N240 C243 1.313 . S
C241 C242 1.338 . S
C241 N244 1.377 . S
C241 H261 0.930 . S
C242 N240 1.375 . S
C242 C241 1.338 . S
C242 H246 0.931 . S
C243 N240 1.313 . S
C243 N244 1.344 . S
C243 H247 0.930 . S
N244 C241 1.377 . S
N244 C243 1.344 . S
O245 Co237 2.055 . S
O245 C249 1.253 . S
H246 C242 0.931 . S
H247 C243 0.930 . S
O248 Co237 2.039 . S
O248 C238 1.265 . S
C249 O245 1.253 . S
C249 O250 1.227 1_455 S
O250 C249 1.227 1_655 S
N251 Co237 2.140 1_655 S
N251 C254 1.346 . S
N251 C255 1.345 . S
C252 C253 1.387 . S
C252 C256 1.391 . S
C253 C252 1.387 . S
C253 C254 1.369 . S
C253 H262 0.929 . S
C254 N251 1.346 . S
C254 C253 1.369 . S
C254 H257 0.928 . S
C255 N251 1.345 . S
C255 C256 1.371 . S
C255 H258 0.931 . S
C256 C252 1.391 . S
C256 C255 1.371 . S
C256 H263 0.930 . S
H257 C254 0.928 . S
H258 C255 0.931 . S
H259 C235 0.930 . S
H260 C232 0.930 . S
H261 C241 0.930 . S
H262 C253 0.929 . S
H263 C256 0.930 . S
C264 C265 1.369 1_565 S
C264 C266 1.419 1_554 S
C264 H268 0.930 . S
C265 C264 1.369 1_545 S
C265 C274 1.429 . S
C266 C264 1.419 1_556 S
C266 C267 1.363 1_565 S
C266 H269 0.929 . S
C267 C266 1.363 1_545 S
C267 C273 1.428 . S
H268 C264 0.930 . S
H269 C266 0.929 . S
S270 N271 1.613 . S
S270 N272 1.610 1_554 S
N271 S270 1.613 . S
N271 C274 1.350 . S
N272 S270 1.610 1_556 S
N272 C273 1.351 . S
C273 C267 1.428 . S
C273 N272 1.351 . S
C273 C274 1.434 1_556 S
C274 C265 1.429 . S
C274 N271 1.350 . S
C274 C273 1.434 1_554 S
C275 C276 1.369 1_655 S
C275 C277 1.419 . S
C275 H279 0.930 . S
C276 C275 1.369 1_455 S
C276 C285 1.429 . S
C277 C275 1.419 . S
C277 C278 1.363 1_655 S
C277 H280 0.929 . S
C278 C277 1.363 1_455 S
C278 C284 1.428 . S
H279 C275 0.930 . S
H280 C277 0.929 . S
S281 N282 1.613 . S
S281 N283 1.610 . S
N282 S281 1.613 . S
N282 C285 1.350 . S
N283 S281 1.610 . S
N283 C284 1.351 . S
C284 C278 1.428 . S
C284 N283 1.351 . S
C284 C285 1.434 . S
C285 C276 1.429 . S
C285 N282 1.350 . S
C285 C284 1.434 . S
C286 C287 1.369 . S
C286 C288 1.419 1_554 S
C286 H290 0.930 . S
C287 C286 1.369 . S
C287 C296 1.429 1_545 S
C288 C286 1.419 1_556 S
C288 C289 1.363 . S
C288 H291 0.929 . S
C289 C288 1.363 . S
C289 C295 1.428 1_545 S
H290 C286 0.930 . S
H291 C288 0.929 . S
S292 N293 1.613 . S
S292 N294 1.610 1_554 S
N293 S292 1.613 . S
N293 C296 1.350 . S
N294 S292 1.610 1_556 S
N294 C295 1.351 . S
C295 C289 1.428 1_565 S
C295 N294 1.351 . S
C295 C296 1.434 1_556 S
C296 C287 1.429 1_565 S
C296 N293 1.350 . S
C296 C295 1.434 1_554 S
C297 C298 1.369 1_655 S
C297 C299 1.419 . S
C297 H301 0.930 . S
C298 C297 1.369 1_455 S
C298 C307 1.429 . S
C299 C297 1.419 . S
C299 C300 1.363 1_655 S
C299 H302 0.929 . S
C300 C299 1.363 1_455 S
C300 C306 1.428 . S
H301 C297 0.930 . S
H302 C299 0.929 . S
S303 N304 1.613 . S
S303 N305 1.610 . S
N304 S303 1.613 . S
N304 C307 1.350 . S
N305 S303 1.610 . S
N305 C306 1.351 . S
C306 C300 1.428 . S
C306 N305 1.351 . S
C306 C307 1.434 . S
C307 C298 1.429 . S
C307 N304 1.350 . S
C307 C306 1.434 . S
C308 C309 1.369 . S
C308 C310 1.419 . S
C308 H312 0.930 . S
C309 C308 1.369 . S
C309 C318 1.429 . S
C310 C308 1.419 . S
C310 C311 1.363 . S
C310 H313 0.929 . S
C311 C310 1.363 . S
C311 C317 1.428 . S
H312 C308 0.930 . S
H313 C310 0.929 . S
S314 N315 1.613 . S
S314 N316 1.610 . S
N315 S314 1.613 . S
N315 C318 1.350 . S
N316 S314 1.610 . S
N316 C317 1.351 . S
C317 C311 1.428 . S
C317 N316 1.351 . S
C317 C318 1.434 . S
C318 C309 1.429 . S
C318 N315 1.350 . S
C318 C317 1.434 . S
C319 C320 1.369 . S
C319 C321 1.419 . S
C319 H323 0.930 . S
C320 C319 1.369 . S
C320 C329 1.429 . S
C321 C319 1.419 . S
C321 C322 1.363 . S
C321 H324 0.929 . S
C322 C321 1.363 . S
C322 C328 1.428 . S
H323 C319 0.930 . S
H324 C321 0.929 . S
S325 N326 1.613 . S
S325 N327 1.610 . S
N326 S325 1.613 . S
N326 C329 1.350 . S
N327 S325 1.610 . S
N327 C328 1.351 . S
C328 C322 1.428 . S
C328 N327 1.351 . S
C328 C329 1.434 . S
C329 C320 1.429 . S
C329 N326 1.350 . S
C329 C328 1.434 . S
C330 C331 1.369 . S
C330 C332 1.419 . S
C330 H334 0.930 . S
C331 C330 1.369 . S
C331 C340 1.429 . S
C332 C330 1.419 . S
C332 C333 1.363 . S
C332 H335 0.929 . S
C333 C332 1.363 . S
C333 C339 1.428 . S
H334 C330 0.930 . S
H335 C332 0.929 . S
S336 N337 1.613 . S
S336 N338 1.610 . S
N337 S336 1.613 . S
N337 C340 1.350 . S
N338 S336 1.610 . S
N338 C339 1.351 . S
C339 C333 1.428 . S
C339 N338 1.351 . S
C339 C340 1.434 . S
C340 C331 1.429 . S
C340 N337 1.350 . S
C340 C339 1.434 . S
C341 C342 1.369 . S
C341 C343 1.419 . S
C341 H345 0.930 . S
C342 C341 1.369 . S
C342 C351 1.429 . S
C343 C341 1.419 . S
C343 C344 1.363 . S
C343 H346 0.929 . S
C344 C343 1.363 . S
C344 C350 1.428 . S
H345 C341 0.930 . S
H346 C343 0.929 . S
S347 N348 1.613 . S
S347 N349 1.610 . S
N348 S347 1.613 . S
N348 C351 1.350 . S
N349 S347 1.610 . S
N349 C350 1.351 . S
C350 C344 1.428 . S
C350 N349 1.351 . S
C350 C351 1.434 . S
C351 C342 1.429 . S
C351 N348 1.350 . S
C351 C350 1.434 . S
C352 C353 1.369 . S
C352 C354 1.419 . S
C352 H356 0.930 . S
C353 C352 1.369 . S
C353 C362 1.429 . S
C354 C352 1.419 . S
C354 C355 1.363 . S
C354 H357 0.929 . S
C355 C354 1.363 . S
C355 C361 1.428 . S
H356 C352 0.930 . S
H357 C354 0.929 . S
S358 N359 1.613 . S
S358 N360 1.610 . S
N359 S358 1.613 . S
N359 C362 1.350 . S
N360 S358 1.610 . S
N360 C361 1.351 . S
C361 C355 1.428 . S
C361 N360 1.351 . S
C361 C362 1.434 . S
C362 C353 1.429 . S
C362 N359 1.350 . S
C362 C361 1.434 . S
C363 C364 1.369 . S
C363 C365 1.419 . S
C363 H367 0.930 . S
C364 C363 1.369 . S
C364 C373 1.429 . S
C365 C363 1.419 . S
C365 C366 1.363 . S
C365 H368 0.929 . S
C366 C365 1.363 . S
C366 C372 1.428 . S
H367 C363 0.930 . S
H368 C365 0.929 . S
S369 N370 1.613 . S
S369 N371 1.610 . S
N370 S369 1.613 . S
N370 C373 1.350 . S
N371 S369 1.610 . S
N371 C372 1.351 . S
C372 C366 1.428 . S
C372 N371 1.351 . S
C372 C373 1.434 . S
C373 C364 1.429 . S
C373 N370 1.350 . S
C373 C372 1.434 . S
C374 C375 1.369 . S
C374 C376 1.419 . S
C374 H378 0.930 . S
C375 C374 1.369 . S
C375 C384 1.429 . S
C376 C374 1.419 . S
C376 C377 1.363 . S
C376 H379 0.929 . S
C377 C376 1.363 . S
C377 C383 1.428 . S
H378 C374 0.930 . S
H379 C376 0.929 . S
S380 N381 1.613 . S
S380 N382 1.610 . S
N381 S380 1.613 . S
N381 C384 1.350 . S
N382 S380 1.610 . S
N382 C383 1.351 . S
C383 C377 1.428 . S
C383 N382 1.351 . S
C383 C384 1.434 . S
C384 C375 1.429 . S
C384 N381 1.350 . S
C384 C383 1.434 . S
C385 C386 1.369 . S
C385 C387 1.419 . S
C385 H389 0.930 . S
C386 C385 1.369 . S
C386 C395 1.429 . S
C387 C385 1.419 . S
C387 C388 1.363 . S
C387 H390 0.929 . S
C388 C387 1.363 . S
C388 C394 1.428 . S
H389 C385 0.930 . S
H390 C387 0.929 . S
S391 N392 1.613 . S
S391 N393 1.610 . S
N392 S391 1.613 . S
N392 C395 1.350 . S
N393 S391 1.610 . S
N393 C394 1.351 . S
C394 C388 1.428 . S
C394 N393 1.351 . S
C394 C395 1.434 . S
C395 C386 1.429 . S
C395 N392 1.350 . S
C395 C394 1.434 . S
C396 C397 1.369 . S
C396 C398 1.419 1_465 S
C396 H400 0.930 . S
C397 C396 1.369 . S
C397 C406 1.429 . S
C398 C396 1.419 1_645 S
C398 C399 1.363 . S
C398 H401 0.929 . S
C399 C398 1.363 . S
C399 C405 1.428 . S
H400 C396 0.930 . S
H401 C398 0.929 . S
S402 N403 1.613 1_545 S
S402 N404 1.610 1_455 S
N403 S402 1.613 1_565 S
N403 C406 1.350 . S
N404 S402 1.610 1_655 S
N404 C405 1.351 . S
C405 C399 1.428 . S
C405 N404 1.351 . S
C405 C406 1.434 1_645 S
C406 C397 1.429 . S
C406 N403 1.350 . S
C406 C405 1.434 1_465 S
C407 C408 1.369 . S
C407 C409 1.419 1_545 S
C407 H411 0.930 . S
C408 C407 1.369 . S
C408 C417 1.429 1_455 S
C409 C407 1.419 1_565 S
C409 C410 1.363 1_455 S
C409 H412 0.929 . S
C410 C409 1.363 1_655 S
C410 C416 1.428 . S
H411 C407 0.930 . S
H412 C409 0.929 . S
S413 N414 1.613 . S
S413 N415 1.610 1_545 S
N414 S413 1.613 . S
N414 C417 1.350 . S
N415 S413 1.610 1_565 S
N415 C416 1.351 . S
C416 C410 1.428 . S
C416 N415 1.351 . S
C416 C417 1.434 1_565 S
C417 C408 1.429 1_655 S
C417 N414 1.350 . S
C417 C416 1.434 1_545 S
C418 C419 1.369 . S
C418 C420 1.419 1_655 S
C418 H422 0.930 . S
C419 C418 1.369 . S
C419 C428 1.429 1_565 S
C420 C418 1.419 1_455 S
C420 C421 1.363 1_565 S
C420 H423 0.929 . S
C421 C420 1.363 1_545 S
C421 C427 1.428 . S
H422 C418 0.930 . S
H423 C420 0.929 . S
S424 N425 1.613 . S
S424 N426 1.610 1_655 S
N425 S424 1.613 . S
N425 C428 1.350 . S
N426 S424 1.610 1_455 S
N426 C427 1.351 . S
C427 C421 1.428 . S
C427 N426 1.351 . S
C427 C428 1.434 1_455 S
C428 C419 1.429 1_545 S
C428 N425 1.350 . S
C428 C427 1.434 1_655 S
C429 C430 1.369 . S
C429 C431 1.419 1_465 S
C429 H433 0.930 . S
C430 C429 1.369 . S
C430 C439 1.429 . S
C431 C429 1.419 1_645 S
C431 C432 1.363 . S
C431 H434 0.929 . S
C432 C431 1.363 . S
C432 C438 1.428 . S
H433 C429 0.930 . S
H434 C431 0.929 . S
S435 N436 1.613 1_655 S
S435 N437 1.610 1_565 S
N436 S435 1.613 1_455 S
N436 C439 1.350 . S
N437 S435 1.610 1_545 S
N437 C438 1.351 . S
C438 C432 1.428 . S
C438 N437 1.351 . S
C438 C439 1.434 1_645 S
C439 C430 1.429 . S
C439 N436 1.350 . S
C439 C438 1.434 1_465 S
C440 C441 1.369 . S
C440 C442 1.419 . S
C440 H444 0.930 . S
C441 C440 1.369 . S
C441 C450 1.429 1_565 S
C442 C440 1.419 . S
C442 C443 1.363 1_565 S
C442 H445 0.929 . S
C443 C442 1.363 1_545 S
C443 C449 1.428 . S
H444 C440 0.930 . S
H445 C442 0.929 . S
S446 N447 1.613 . S
S446 N448 1.610 . S
N447 S446 1.613 . S
N447 C450 1.350 . S
N448 S446 1.610 . S
N448 C449 1.351 . S
C449 C443 1.428 . S
C449 N448 1.351 . S
C449 C450 1.434 . S
C450 C441 1.429 1_545 S
C450 N447 1.350 . S
C450 C449 1.434 . S
C451 C452 1.369 1_455 S
C451 C453 1.419 . S
C451 H455 0.930 . S
C452 C451 1.369 1_655 S
C452 C461 1.429 . S
C453 C451 1.419 . S
C453 C454 1.363 . S
C453 H456 0.929 . S
C454 C453 1.363 . S
C454 C460 1.428 1_455 S
H455 C451 0.930 . S
H456 C453 0.929 . S
S457 N458 1.613 . S
S457 N459 1.610 . S
N458 S457 1.613 . S
N458 C461 1.350 . S
N459 S457 1.610 . S
N459 C460 1.351 . S
C460 C454 1.428 1_655 S
C460 N459 1.351 . S
C460 C461 1.434 . S
C461 C452 1.429 . S
C461 N458 1.350 . S
C461 C460 1.434 . S
C462 C463 1.369 1_565 S
C462 C464 1.419 . S
C462 H466 0.930 . S
C463 C462 1.369 1_545 S
C463 C472 1.429 . S
C464 C462 1.419 . S
C464 C465 1.363 . S
C464 H467 0.929 . S
C465 C464 1.363 . S
C465 C471 1.428 1_565 S
H466 C462 0.930 . S
H467 C464 0.929 . S
S468 N469 1.613 . S
S468 N470 1.610 . S
N469 S468 1.613 . S
N469 C472 1.350 . S
N470 S468 1.610 . S
N470 C471 1.351 . S
C471 C465 1.428 1_545 S
C471 N470 1.351 . S
C471 C472 1.434 . S
C472 C463 1.429 . S
C472 N469 1.350 . S
C472 C471 1.434 . S
C473 C474 1.369 1_455 S
C473 C475 1.419 . S
C473 H477 0.930 . S
C474 C473 1.369 1_655 S
C474 C483 1.429 . S
C475 C473 1.419 . S
C475 C476 1.363 . S
C475 H478 0.929 . S
C476 C475 1.363 . S
C476 C482 1.428 . S
H477 C473 0.930 . S
H478 C475 0.929 . S
S479 N480 1.613 . S
S479 N481 1.610 1_655 S
N480 S479 1.613 . S
N480 C483 1.350 . S
N481 S479 1.610 1_455 S
N481 C482 1.351 . S
C482 C476 1.428 . S
C482 N481 1.351 . S
C482 C483 1.434 1_455 S
C483 C474 1.429 . S
C483 N480 1.350 . S
C483 C482 1.434 1_655 S
C265 C18 1.690 . S
C267 C150 1.690 . S
C276 C183 1.688 . S
C278 C51 1.689 . S
C287 C84 1.690 . S
C289 C216 1.690 . S
C298 C249 1.692 . S
C300 C117 1.691 . S
C309 C186 0.669 . S
C311 C21 0.674 . S
C320 C219 0.677 . S
C322 C54 0.682 . S
C331 C87 0.675 . S
C333 C252 0.680 . S
C342 C153 0.669 . S
C344 C120 0.673 . S
C353 C106 1.426 . S
C355 C205 1.424 . S
C364 C7 1.415 . S
C366 C238 1.417 . S
C375 C40 1.415 . S
C377 C139 1.416 . S
C386 C73 1.426 . S
C388 C172 1.425 . S
C397 N2 0.904 . S
C399 N68 0.910 . S
C408 N35 0.914 . S
C410 N101 0.917 . S
C419 N200 0.902 . S
C421 N134 0.914 . S
C430 N233 0.904 . S
C432 N167 0.911 . S
C441 N13 1.253 . S
C443 N79 1.253 . S
C452 N112 1.248 . S
C454 N46 1.249 . S
C463 N145 1.254 . S
C465 N211 1.253 . S
C474 N178 1.248 . S
C476 N244 1.249 . S
