# Generated by pormake.
# Topology umc, (4)-cn, num edge types: 1
# Building blocks:
#     Node 0, Type 0, BuildingBlock: KOZSID_clean_sbu_0, # of connection points: 4
#     Node 1, Type 0, BuildingBlock: KOZSID_clean_sbu_0, # of connection points: 4
#     Node 2, Type 0, BuildingBlock: KOZSID_clean_sbu_0, # of connection points: 4
#     Node 3, Type 0, BuildingBlock: KOZSID_clean_sbu_0, # of connection points: 4
#     Node 4, Type 0, BuildingBlock: KOZSID_clean_sbu_0, # of connection points: 4
#     Node 5, Type 0, BuildingBlock: KOZSID_clean_sbu_0, # of connection points: 4
#     Node 6, Type 0, BuildingBlock: KOZSID_clean_sbu_0, # of connection points: 4
#     Node 7, Type 0, BuildingBlock: KOZSID_clean_sbu_0, # of connection points: 4
#     Node 8, Type 0, BuildingBlock: KOZSID_clean_sbu_0, # of connection points: 4
#     Node 9, Type 0, BuildingBlock: KOZSID_clean_sbu_0, # of connection points: 4
#     Node 10, Type 0, BuildingBlock: KOZSID_clean_sbu_0, # of connection points: 4
#     Node 11, Type 0, BuildingBlock: KOZSID_clean_sbu_0, # of connection points: 4
#     Node 12, Type 0, BuildingBlock: KOZSID_clean_sbu_0, # of connection points: 4
#     Node 13, Type 0, BuildingBlock: KOZSID_clean_sbu_0, # of connection points: 4
#     Node 14, Type 0, BuildingBlock: KOZSID_clean_sbu_0, # of connection points: 4
#     Node 15, Type 0, BuildingBlock: KOZSID_clean_sbu_0, # of connection points: 4
#     Edge 16, Type (0, 0), BuildingBlock: MIFKUJ_clean_linker_0, # of connection points: 2
#     Edge 17, Type (0, 0), BuildingBlock: MIFKUJ_clean_linker_0, # of connection points: 2
#     Edge 18, Type (0, 0), BuildingBlock: MIFKUJ_clean_linker_0, # of connection points: 2
#     Edge 19, Type (0, 0), BuildingBlock: MIFKUJ_clean_linker_0, # of connection points: 2
#     Edge 20, Type (0, 0), BuildingBlock: MIFKUJ_clean_linker_0, # of connection points: 2
#     Edge 21, Type (0, 0), BuildingBlock: MIFKUJ_clean_linker_0, # of connection points: 2
#     Edge 22, Type (0, 0), BuildingBlock: MIFKUJ_clean_linker_0, # of connection points: 2
#     Edge 23, Type (0, 0), BuildingBlock: MIFKUJ_clean_linker_0, # of connection points: 2
#     Edge 24, Type (0, 0), BuildingBlock: MIFKUJ_clean_linker_0, # of connection points: 2
#     Edge 25, Type (0, 0), BuildingBlock: MIFKUJ_clean_linker_0, # of connection points: 2
#     Edge 26, Type (0, 0), BuildingBlock: MIFKUJ_clean_linker_0, # of connection points: 2
#     Edge 27, Type (0, 0), BuildingBlock: MIFKUJ_clean_linker_0, # of connection points: 2
#     Edge 28, Type (0, 0), BuildingBlock: MIFKUJ_clean_linker_0, # of connection points: 2
#     Edge 29, Type (0, 0), BuildingBlock: MIFKUJ_clean_linker_0, # of connection points: 2
#     Edge 30, Type (0, 0), BuildingBlock: MIFKUJ_clean_linker_0, # of connection points: 2
#     Edge 31, Type (0, 0), BuildingBlock: MIFKUJ_clean_linker_0, # of connection points: 2
#     Edge 32, Type (0, 0), BuildingBlock: MIFKUJ_clean_linker_0, # of connection points: 2
#     Edge 33, Type (0, 0), BuildingBlock: MIFKUJ_clean_linker_0, # of connection points: 2
#     Edge 34, Type (0, 0), BuildingBlock: MIFKUJ_clean_linker_0, # of connection points: 2
#     Edge 35, Type (0, 0), BuildingBlock: MIFKUJ_clean_linker_0, # of connection points: 2
#     Edge 36, Type (0, 0), BuildingBlock: MIFKUJ_clean_linker_0, # of connection points: 2
#     Edge 37, Type (0, 0), BuildingBlock: MIFKUJ_clean_linker_0, # of connection points: 2
#     Edge 38, Type (0, 0), BuildingBlock: MIFKUJ_clean_linker_0, # of connection points: 2
#     Edge 39, Type (0, 0), BuildingBlock: MIFKUJ_clean_linker_0, # of connection points: 2
#     Edge 40, Type (0, 0), BuildingBlock: MIFKUJ_clean_linker_0, # of connection points: 2
#     Edge 41, Type (0, 0), BuildingBlock: MIFKUJ_clean_linker_0, # of connection points: 2
#     Edge 42, Type (0, 0), BuildingBlock: MIFKUJ_clean_linker_0, # of connection points: 2
#     Edge 43, Type (0, 0), BuildingBlock: MIFKUJ_clean_linker_0, # of connection points: 2
#     Edge 44, Type (0, 0), BuildingBlock: MIFKUJ_clean_linker_0, # of connection points: 2
#     Edge 45, Type (0, 0), BuildingBlock: MIFKUJ_clean_linker_0, # of connection points: 2
#     Edge 46, Type (0, 0), BuildingBlock: MIFKUJ_clean_linker_0, # of connection points: 2
#     Edge 47, Type (0, 0), BuildingBlock: MIFKUJ_clean_linker_0, # of connection points: 2
# Relax obj value: 0.055
# Max RMSD: 0.169
# Mean RMSD: 0.169
data_MOF--net-umc--node1-KOZSID_clean_sbu_0--edge1-MIFKUJ_clean_linker_0
_symmetry_space_group_name_H-M    P1
_symmetry_Int_Tables_number       1
_symmetry_cell_setting            triclinic
loop_
_symmetry_equiv_pos_as_xyz
'x, y, z'
_cell_length_a     82.557072
_cell_length_b     49.365942
_cell_length_c     79.669719
_cell_angle_alpha  89.996537
_cell_angle_beta   90.029933
_cell_angle_gamma 90.066471
loop_
_atom_site_label
_atom_site_type_symbol
_atom_site_fract_x
_atom_site_fract_y
_atom_site_fract_z
_atom_type_partial_charge
C0 C 0.37208 0.06278 0.34297 0.0
C1 C 0.36304 0.04016 0.3385 0.0
C2 C 0.35443 0.03272 0.35246 0.0
C3 C 0.35862 0.0512 0.3646 0.0
N4 N 0.36929 0.06983 0.35914 0.0
Co5 Co 0.37825 0.1003 0.37247 0.0
N6 N 0.37242 0.08248 0.39401 0.0
C7 C 0.36221 0.06134 0.39577 0.0
C8 C 0.36148 0.05178 0.4119 0.0
C9 C 0.37163 0.06817 0.42092 0.0
C10 C 0.37775 0.08739 0.40983 0.0
N11 N 0.38706 0.13096 0.38581 0.0
C12 C 0.3902 0.13294 0.40252 0.0
C13 C 0.39518 0.15903 0.40658 0.0
C14 C 0.39508 0.17372 0.39196 0.0
C15 C 0.38999 0.15598 0.37978 0.0
N16 N 0.38411 0.11765 0.35078 0.0
C17 C 0.38747 0.14405 0.34852 0.0
C18 C 0.39154 0.14997 0.33219 0.0
C19 C 0.39061 0.12577 0.3237 0.0
C20 C 0.38595 0.10638 0.33533 0.0
N21 N 0.35697 0.1188 0.37197 0.0
C22 C 0.32923 0.15271 0.37087 0.0
C23 C 0.33525 0.14001 0.35631 0.0
C24 C 0.34892 0.123 0.35717 0.0
C25 C 0.33704 0.14657 0.38609 0.0
C26 C 0.3508 0.12993 0.38635 0.0
N27 N 0.39966 0.08268 0.37301 0.0
C28 C 0.42866 0.08631 0.3698 0.0
C29 C 0.43087 0.05917 0.37457 0.0
C30 C 0.41685 0.04397 0.37825 0.0
C31 C 0.40143 0.056 0.37728 0.0
C32 C 0.41314 0.09761 0.36928 0.0
H33 H 0.39095 0.04379 0.38016 0.0
H34 H 0.41213 0.11863 0.36586 0.0
H35 H 0.35331 0.11403 0.34569 0.0
H36 H 0.3567 0.12681 0.39825 0.0
C37 C 0.35558 0.04842 0.38174 0.0
C38 C 0.38254 0.07779 0.33136 0.0
C39 C 0.38696 0.11161 0.41508 0.0
C40 C 0.38959 0.16109 0.36244 0.0
H41 H 0.36277 0.03002 0.32646 0.0
H42 H 0.34671 0.01512 0.35382 0.0
H43 H 0.35484 0.03435 0.41646 0.0
H44 H 0.37402 0.06629 0.43422 0.0
H45 H 0.39821 0.16687 0.41887 0.0
H46 H 0.39853 0.19473 0.39039 0.0
H47 H 0.39547 0.16928 0.3272 0.0
H48 H 0.39314 0.12277 0.31051 0.0
H49 H 0.32986 0.1438 0.34416 0.0
H50 H 0.33275 0.15477 0.39787 0.0
H51 H 0.43882 0.09897 0.36633 0.0
H52 H 0.41771 0.02303 0.38215 0.0
C53 C 0.65335 0.93503 0.3431 0.0
C54 C 0.6617 0.9591 0.34057 0.0
C55 C 0.66775 0.96666 0.35579 0.0
C56 C 0.66279 0.94684 0.36669 0.0
N57 N 0.65424 0.92672 0.35933 0.0
Co58 Co 0.64375 0.89506 0.37081 0.0
N59 N 0.6503 0.90869 0.39355 0.0
C60 C 0.65982 0.93036 0.39683 0.0
C61 C 0.66265 0.93451 0.41358 0.0
C62 C 0.65442 0.91431 0.42153 0.0
C63 C 0.64694 0.89899 0.4091 0.0
N64 N 0.63269 0.86396 0.38238 0.0
C65 C 0.6306 0.85879 0.39902 0.0
C66 C 0.62159 0.83541 0.40155 0.0
C67 C 0.61784 0.82548 0.386 0.0
C68 C 0.62468 0.84333 0.37487 0.0
N69 N 0.63756 0.88134 0.34793 0.0
C70 C 0.63014 0.85756 0.3444 0.0
C71 C 0.62678 0.85428 0.32765 0.0
C72 C 0.63214 0.87748 0.32008 0.0
C73 C 0.6385 0.89369 0.33268 0.0
N74 N 0.66449 0.87349 0.36966 0.0
C75 C 0.69309 0.84096 0.37047 0.0
C76 C 0.6779 0.82979 0.36705 0.0
C77 C 0.66405 0.84612 0.36662 0.0
C78 C 0.69377 0.86909 0.37292 0.0
C79 C 0.67948 0.8848 0.37252 0.0
N80 N 0.62306 0.91587 0.37208 0.0
C81 C 0.59415 0.91792 0.36697 0.0
C82 C 0.59286 0.94313 0.37486 0.0
C83 C 0.60726 0.95485 0.38093 0.0
C84 C 0.62214 0.94102 0.37933 0.0
C85 C 0.60906 0.90477 0.36586 0.0
H86 H 0.63277 0.95083 0.38416 0.0
H87 H 0.6089 0.88548 0.35995 0.0
H88 H 0.65312 0.83579 0.3639 0.0
H89 H 0.68087 0.90597 0.37473 0.0
C90 C 0.66506 0.94741 0.38401 0.0
C91 C 0.64437 0.92131 0.32978 0.0
C92 C 0.63676 0.87551 0.41279 0.0
C93 C 0.6241 0.84109 0.35732 0.0
H94 H 0.66299 0.97033 0.32897 0.0
H95 H 0.67451 0.98486 0.35868 0.0
H96 H 0.66965 0.95057 0.41933 0.0
H97 H 0.65391 0.91132 0.43497 0.0
H98 H 0.61807 0.82653 0.41342 0.0
H99 H 0.61093 0.80741 0.38316 0.0
H100 H 0.62032 0.8377 0.32178 0.0
H101 H 0.63094 0.88235 0.3069 0.0
H102 H 0.67661 0.80832 0.36458 0.0
H103 H 0.70523 0.87893 0.37555 0.0
H104 H 0.58367 0.90813 0.36148 0.0
H105 H 0.60708 0.97433 0.38714 0.0
C106 C 0.37235 0.93887 0.16461 0.0
C107 C 0.36261 0.96089 0.16855 0.0
C108 C 0.35375 0.96668 0.15444 0.0
C109 C 0.35849 0.94789 0.14273 0.0
N110 N 0.3698 0.9307 0.1486 0.0
Co111 Co 0.37952 0.90019 0.13599 0.0
N112 N 0.37329 0.91638 0.11413 0.0
C113 C 0.36188 0.93549 0.11183 0.0
C114 C 0.35983 0.94239 0.09528 0.0
C115 C 0.37052 0.92645 0.08661 0.0
C116 C 0.37855 0.91065 0.09841 0.0
N117 N 0.38896 0.86943 0.1233 0.0
C118 C 0.39269 0.8673 0.10675 0.0
C119 C 0.39891 0.84183 0.1032 0.0
C120 C 0.39878 0.82751 0.11798 0.0
C121 C 0.39257 0.84497 0.12976 0.0
N122 N 0.38581 0.88448 0.15799 0.0
C123 C 0.38992 0.85852 0.16077 0.0
C124 C 0.39423 0.85383 0.17718 0.0
C125 C 0.39264 0.87836 0.18518 0.0
C126 C 0.38734 0.89672 0.1732 0.0
N127 N 0.35865 0.88036 0.13688 0.0
C128 C 0.33091 0.84676 0.13851 0.0
C129 C 0.33698 0.85969 0.1529 0.0
C130 C 0.35065 0.87668 0.15178 0.0
C131 C 0.33877 0.85175 0.12323 0.0
C132 C 0.35261 0.86826 0.1227 0.0
N133 N 0.4005 0.91922 0.1351 0.0
C134 C 0.42964 0.91728 0.13731 0.0
C135 C 0.43101 0.94492 0.13364 0.0
C136 C 0.41665 0.95957 0.13091 0.0
C137 C 0.40154 0.94631 0.13155 0.0
C138 C 0.41441 0.90497 0.13809 0.0
H139 H 0.39071 0.9579 0.12913 0.0
H140 H 0.41395 0.88375 0.14113 0.0
H141 H 0.35496 0.88635 0.16308 0.0
H142 H 0.35865 0.87057 0.11081 0.0
C143 C 0.35496 0.94881 0.12557 0.0
C144 C 0.38304 0.92519 0.17664 0.0
C145 C 0.38957 0.88837 0.09405 0.0
C146 C 0.39241 0.84083 0.14721 0.0
H147 H 0.36193 0.97159 0.18038 0.0
H148 H 0.34536 0.98329 0.15273 0.0
H149 H 0.35178 0.95757 0.09014 0.0
H150 H 0.37193 0.92603 0.07312 0.0
H151 H 0.40306 0.83432 0.09119 0.0
H152 H 0.40322 0.80715 0.12 0.0
H153 H 0.39872 0.83514 0.18254 0.0
H154 H 0.39517 0.88223 0.19829 0.0
H155 H 0.3312 0.85672 0.16496 0.0
H156 H 0.33459 0.84215 0.11179 0.0
H157 H 0.44032 0.90517 0.1398 0.0
H158 H 0.4171 0.98098 0.12798 0.0
C159 C 0.65292 0.06468 0.1642 0.0
C160 C 0.66233 0.04212 0.16778 0.0
C161 C 0.67081 0.03622 0.15345 0.0
C162 C 0.66612 0.05541 0.14196 0.0
N163 N 0.65521 0.07297 0.14817 0.0
Co164 Co 0.64533 0.10371 0.13586 0.0
N165 N 0.65094 0.08756 0.11381 0.0
C166 C 0.66204 0.06805 0.11118 0.0
C167 C 0.6635 0.061 0.09459 0.0
C168 C 0.65275 0.07727 0.08624 0.0
C169 C 0.64533 0.09347 0.09824 0.0
N170 N 0.63573 0.13469 0.1235 0.0
C171 C 0.63179 0.13714 0.10702 0.0
C172 C 0.62591 0.16289 0.10363 0.0
C173 C 0.62639 0.17702 0.11848 0.0
C174 C 0.63251 0.1592 0.13011 0.0
N175 N 0.63965 0.11937 0.15803 0.0
C176 C 0.6359 0.14541 0.16102 0.0
C177 C 0.63235 0.15015 0.17762 0.0
C178 C 0.63403 0.12551 0.18552 0.0
C179 C 0.63852 0.10708 0.17325 0.0
N180 N 0.6663 0.12333 0.13625 0.0
C181 C 0.69383 0.15751 0.13733 0.0
C182 C 0.68819 0.14431 0.15181 0.0
C183 C 0.67463 0.12703 0.15096 0.0
C184 C 0.6857 0.15235 0.12221 0.0
C185 C 0.67199 0.13553 0.12196 0.0
N186 N 0.62424 0.08496 0.13547 0.0
C187 C 0.5952 0.0872 0.13877 0.0
C188 C 0.59353 0.05946 0.1353 0.0
C189 C 0.60778 0.04484 0.13177 0.0
C190 C 0.62295 0.05795 0.13186 0.0
C191 C 0.6105 0.09936 0.13892 0.0
H192 H 0.63364 0.04623 0.12907 0.0
H193 H 0.61114 0.12062 0.14184 0.0
H194 H 0.67062 0.11724 0.16234 0.0
H195 H 0.66572 0.13315 0.11019 0.0
C196 C 0.66915 0.05444 0.1247 0.0
C197 C 0.64263 0.07854 0.17648 0.0
C198 C 0.63459 0.11626 0.09414 0.0
C199 C 0.63319 0.16327 0.14757 0.0
H200 H 0.66297 0.03105 0.17949 0.0
H201 H 0.67883 0.01919 0.15143 0.0
H202 H 0.67116 0.04547 0.08923 0.0
H203 H 0.65084 0.07757 0.0728 0.0
H204 H 0.62185 0.17071 0.09166 0.0
H205 H 0.62233 0.19757 0.12061 0.0
H206 H 0.62837 0.16897 0.18323 0.0
H207 H 0.63221 0.12156 0.19875 0.0
H208 H 0.6942 0.14734 0.16375 0.0
H209 H 0.68954 0.1621 0.11069 0.0
H210 H 0.58473 0.09979 0.14117 0.0
H211 H 0.60731 0.02334 0.12916 0.0
C212 C 0.63454 0.89924 0.67235 0.0
C213 C 0.62546 0.88517 0.68414 0.0
C214 C 0.61617 0.86702 0.67545 0.0
C215 C 0.62005 0.87099 0.65889 0.0
N216 N 0.63147 0.89016 0.65651 0.0
Co217 Co 0.63944 0.90323 0.63418 0.0
N218 N 0.62872 0.87272 0.62188 0.0
C219 C 0.61756 0.85571 0.6283 0.0
C220 C 0.61196 0.83706 0.61692 0.0
C221 C 0.61993 0.84278 0.60229 0.0
C222 C 0.63 0.86467 0.60559 0.0
N223 N 0.64727 0.9166 0.61192 0.0
C224 C 0.64699 0.90473 0.59655 0.0
C225 C 0.65391 0.92139 0.58445 0.0
C226 C 0.65846 0.94465 0.59243 0.0
C227 C 0.65416 0.94088 0.60887 0.0
N228 N 0.65026 0.93376 0.64641 0.0
C229 C 0.6572 0.95569 0.63932 0.0
C230 C 0.66393 0.97327 0.65067 0.0
C231 C 0.66084 0.96211 0.666 0.0
C232 C 0.65223 0.93837 0.66311 0.0
N233 N 0.65924 0.88078 0.63659 0.0
C234 C 0.68703 0.84692 0.63832 0.0
C235 C 0.68823 0.8744 0.63372 0.0
C236 C 0.67429 0.89084 0.63291 0.0
C237 C 0.67148 0.83713 0.64221 0.0
C238 C 0.65794 0.85423 0.64137 0.0
N239 N 0.61942 0.92505 0.63173 0.0
C240 C 0.59835 0.95259 0.64416 0.0
C241 C 0.58857 0.9496 0.62991 0.0
C242 C 0.5949 0.93516 0.61628 0.0
C243 C 0.61037 0.92351 0.61733 0.0
C244 C 0.6136 0.9401 0.64485 0.0
H245 H 0.61475 0.91264 0.60656 0.0
H246 H 0.62037 0.94208 0.65627 0.0
H247 H 0.67577 0.91164 0.62917 0.0
H248 H 0.64634 0.84562 0.64438 0.0
C249 C 0.61384 0.85626 0.64538 0.0
C250 C 0.64432 0.92315 0.67663 0.0
C251 C 0.6392 0.87885 0.59251 0.0
C252 C 0.65821 0.95818 0.62198 0.0
H253 H 0.62519 0.88833 0.69758 0.0
H254 H 0.60752 0.85277 0.68058 0.0
H255 H 0.60325 0.82101 0.61905 0.0
H256 H 0.61829 0.83242 0.59043 0.0
H257 H 0.65538 0.91727 0.5712 0.0
H258 H 0.66456 0.96195 0.58696 0.0
H259 H 0.67036 0.99193 0.6481 0.0
H260 H 0.66406 0.97092 0.678 0.0
H261 H 0.69986 0.88337 0.63084 0.0
H262 H 0.6696 0.81612 0.64556 0.0
H263 H 0.59401 0.96364 0.65501 0.0
H264 H 0.58791 0.93275 0.60486 0.0
C265 C 0.38263 0.11084 0.67481 0.0
C266 C 0.38807 0.1286 0.68708 0.0
C267 C 0.39007 0.15333 0.67941 0.0
C268 C 0.38583 0.14935 0.6629 0.0
N269 N 0.38135 0.12366 0.65977 0.0
Co270 Co 0.37497 0.10892 0.63753 0.0
N271 N 0.38528 0.13933 0.62523 0.0
C272 C 0.38987 0.16307 0.63207 0.0
C273 C 0.39766 0.17958 0.6208 0.0
C274 C 0.39777 0.16548 0.60594 0.0
C275 C 0.38975 0.14117 0.60884 0.0
N276 N 0.36833 0.09392 0.6155 0.0
C277 C 0.37338 0.10024 0.59979 0.0
C278 C 0.36418 0.0865 0.58787 0.0
C279 C 0.3532 0.071 0.59646 0.0
C280 C 0.3561 0.07624 0.61308 0.0
N281 N 0.36469 0.0785 0.64975 0.0
C282 C 0.35297 0.06223 0.64375 0.0
C283 C 0.348 0.04312 0.65518 0.0
C284 C 0.35718 0.04775 0.66926 0.0
C285 C 0.36728 0.06945 0.66557 0.0
N286 N 0.35452 0.12985 0.63854 0.0
C287 C 0.32687 0.16361 0.64015 0.0
C288 C 0.33248 0.14969 0.6544 0.0
C289 C 0.34614 0.13269 0.65328 0.0
C290 C 0.33526 0.15976 0.62506 0.0
C291 C 0.34903 0.14317 0.62456 0.0
N292 N 0.39558 0.08881 0.63645 0.0
C293 C 0.4114 0.04928 0.62921 0.0
C294 C 0.42589 0.06235 0.63398 0.0
C295 C 0.42457 0.08875 0.64037 0.0
C296 C 0.40954 0.10157 0.64127 0.0
C297 C 0.39641 0.06276 0.63065 0.0
H298 H 0.40932 0.12206 0.64583 0.0
H299 H 0.38551 0.05226 0.62689 0.0
H300 H 0.35008 0.1222 0.66445 0.0
H301 H 0.35543 0.14163 0.61282 0.0
C302 C 0.38928 0.16696 0.64953 0.0
C303 C 0.37822 0.08228 0.67773 0.0
C304 C 0.38554 0.12112 0.5957 0.0
C305 C 0.34905 0.06263 0.62666 0.0
H306 H 0.39054 0.12415 0.70013 0.0
H307 H 0.39495 0.17158 0.68501 0.0
H308 H 0.40329 0.19899 0.62325 0.0
H309 H 0.40327 0.1724 0.5944 0.0
H310 H 0.36496 0.08798 0.57435 0.0
H311 H 0.34431 0.05728 0.59119 0.0
H312 H 0.33922 0.02711 0.65332 0.0
H313 H 0.35642 0.0366 0.68094 0.0
H314 H 0.32631 0.15181 0.66632 0.0
H315 H 0.33151 0.17019 0.61375 0.0
H316 H 0.41158 0.02897 0.6241 0.0
H317 H 0.43508 0.09973 0.6448 0.0
C318 C 0.63772 0.10547 0.83475 0.0
C319 C 0.63288 0.12398 0.82265 0.0
C320 C 0.63144 0.14858 0.83061 0.0
C321 C 0.63538 0.14376 0.84711 0.0
N322 N 0.63912 0.11767 0.84999 0.0
Co323 Co 0.64497 0.10186 0.8721 0.0
N324 N 0.63584 0.13311 0.88461 0.0
C325 C 0.63269 0.15767 0.87805 0.0
C326 C 0.62692 0.17566 0.88976 0.0
C327 C 0.62659 0.16158 0.90463 0.0
C328 C 0.63221 0.1357 0.90116 0.0
N329 N 0.65077 0.08561 0.89409 0.0
C330 C 0.64554 0.09176 0.90976 0.0
C331 C 0.653 0.07538 0.92165 0.0
C332 C 0.66341 0.05877 0.91312 0.0
C333 C 0.66172 0.0658 0.89656 0.0
N334 N 0.65438 0.07084 0.85968 0.0
C335 C 0.66529 0.05312 0.86574 0.0
C336 C 0.66992 0.03409 0.85415 0.0
C337 C 0.66141 0.04026 0.83988 0.0
C338 C 0.65198 0.06274 0.84363 0.0
N339 N 0.66612 0.12087 0.87133 0.0
C340 C 0.69417 0.15388 0.86959 0.0
C341 C 0.68599 0.14973 0.88481 0.0
C342 C 0.67207 0.1334 0.8854 0.0
C343 C 0.68825 0.14026 0.85535 0.0
C344 C 0.6744 0.1237 0.85653 0.0
N345 N 0.62368 0.08366 0.87279 0.0
C346 C 0.60688 0.04385 0.87625 0.0
C347 C 0.5927 0.05888 0.873 0.0
C348 C 0.59461 0.08669 0.86985 0.0
C349 C 0.61002 0.09847 0.86965 0.0
C350 C 0.62217 0.0566 0.87618 0.0
H351 H 0.61081 0.11977 0.86689 0.0
H352 H 0.63279 0.04454 0.87874 0.0
H353 H 0.66587 0.13162 0.89724 0.0
H354 H 0.67016 0.11369 0.84531 0.0
C355 C 0.63304 0.16166 0.86059 0.0
C356 C 0.64176 0.07689 0.83137 0.0
C357 C 0.63509 0.11484 0.91402 0.0
C358 C 0.66854 0.05207 0.88294 0.0
H359 H 0.63059 0.12017 0.80949 0.0
H360 H 0.62733 0.16742 0.82514 0.0
H361 H 0.62297 0.19629 0.88768 0.0
H362 H 0.62283 0.16952 0.91667 0.0
H363 H 0.65138 0.0758 0.93513 0.0
H364 H 0.67103 0.04306 0.91835 0.0
H365 H 0.678 0.01711 0.85602 0.0
H366 H 0.66213 0.02951 0.82807 0.0
H367 H 0.68996 0.15984 0.89616 0.0
H368 H 0.69425 0.14238 0.84335 0.0
H369 H 0.60627 0.02228 0.87861 0.0
H370 H 0.58425 0.09964 0.8677 0.0
C371 C 0.38471 0.89774 0.83471 0.0
C372 C 0.38957 0.87938 0.82253 0.0
C373 C 0.39135 0.85481 0.83045 0.0
C374 C 0.38759 0.85949 0.847 0.0
N375 N 0.38362 0.88547 0.84994 0.0
Co376 Co 0.37791 0.90105 0.87213 0.0
N377 N 0.3877 0.87022 0.88451 0.0
C378 C 0.39121 0.84584 0.8779 0.0
C379 C 0.39776 0.82836 0.88947 0.0
C380 C 0.39823 0.84258 0.90429 0.0
C381 C 0.39184 0.86802 0.90096 0.0
N382 N 0.37209 0.91697 0.89417 0.0
C383 C 0.37757 0.91102 0.90977 0.0
C384 C 0.36966 0.92657 0.92178 0.0
C385 C 0.35883 0.94259 0.91336 0.0
C386 C 0.36067 0.93597 0.89675 0.0
N387 N 0.36799 0.93177 0.85984 0.0
C388 C 0.35687 0.94899 0.866 0.0
C389 C 0.35199 0.96801 0.85449 0.0
C390 C 0.36056 0.96233 0.84019 0.0
C391 C 0.37026 0.94012 0.84382 0.0
N392 N 0.357 0.88124 0.87164 0.0
C393 C 0.32927 0.84741 0.87029 0.0
C394 C 0.33826 0.85041 0.88513 0.0
C395 C 0.35188 0.86742 0.88558 0.0
C396 C 0.33418 0.86271 0.85629 0.0
C397 C 0.34805 0.87935 0.8572 0.0
N398 N 0.39895 0.92003 0.87263 0.0
C399 C 0.41534 0.96003 0.8772 0.0
C400 C 0.42962 0.9454 0.87394 0.0
C401 C 0.42805 0.91796 0.86977 0.0
C402 C 0.41276 0.90582 0.86908 0.0
C403 C 0.40016 0.94694 0.8766 0.0
H404 H 0.41217 0.88474 0.86571 0.0
H405 H 0.38942 0.95851 0.87944 0.0
H406 H 0.35849 0.86878 0.8972 0.0
H407 H 0.35175 0.89016 0.84606 0.0
C408 C 0.39051 0.84176 0.86046 0.0
C409 C 0.3805 0.9263 0.83145 0.0
C410 C 0.38881 0.88888 0.91383 0.0
C411 C 0.35358 0.94959 0.88321 0.0
H412 H 0.3917 0.88329 0.80936 0.0
H413 H 0.39565 0.83613 0.82493 0.0
H414 H 0.40218 0.80803 0.8873 0.0
H415 H 0.40266 0.83501 0.91618 0.0
H416 H 0.37126 0.926 0.93526 0.0
H417 H 0.35083 0.95765 0.9187 0.0
H418 H 0.34368 0.98466 0.85644 0.0
H419 H 0.35968 0.97316 0.82841 0.0
H420 H 0.33484 0.83959 0.89641 0.0
H421 H 0.32769 0.86119 0.84451 0.0
H422 H 0.41591 0.98128 0.88052 0.0
H423 H 0.43862 0.90586 0.86684 0.0
C424 C 0.87175 0.56362 0.34649 0.0
C425 C 0.86421 0.53864 0.34441 0.0
C426 C 0.8584 0.53121 0.35973 0.0
C427 C 0.86287 0.55173 0.37031 0.0
N428 N 0.87097 0.57211 0.3627 0.0
Co429 Co 0.88147 0.60394 0.37406 0.0
N430 N 0.87488 0.59073 0.39686 0.0
C431 C 0.865 0.56959 0.4002 0.0
C432 C 0.86203 0.5658 0.41694 0.0
C433 C 0.87055 0.58573 0.42483 0.0
C434 C 0.87836 0.60048 0.41237 0.0
N435 N 0.89285 0.63482 0.38554 0.0
C436 C 0.89535 0.63976 0.40215 0.0
C437 C 0.90475 0.66274 0.40457 0.0
C438 C 0.90832 0.67266 0.38897 0.0
C439 C 0.90103 0.65514 0.37793 0.0
N440 N 0.88741 0.61756 0.35114 0.0
C441 C 0.89441 0.64165 0.34757 0.0
C442 C 0.89713 0.64543 0.33074 0.0
C443 C 0.89167 0.62229 0.32315 0.0
C444 C 0.88601 0.60553 0.33583 0.0
N445 N 0.86076 0.62561 0.37283 0.0
C446 C 0.83193 0.65769 0.37149 0.0
C447 C 0.84734 0.66941 0.37106 0.0
C448 C 0.86128 0.65335 0.37162 0.0
C449 C 0.83127 0.6293 0.37272 0.0
C450 C 0.84566 0.61383 0.37336 0.0
N451 N 0.90214 0.58311 0.37532 0.0
C452 C 0.93094 0.58086 0.36969 0.0
C453 C 0.9325 0.55652 0.37851 0.0
C454 C 0.91827 0.54519 0.38525 0.0
C455 C 0.9033 0.55868 0.38346 0.0
C456 C 0.91595 0.59368 0.36836 0.0
H457 H 0.8928 0.54929 0.38889 0.0
H458 H 0.91591 0.6124 0.36173 0.0
H459 H 0.87234 0.66425 0.37114 0.0
H460 H 0.84423 0.59238 0.37428 0.0
C461 C 0.86012 0.55203 0.38753 0.0
C462 C 0.87976 0.57815 0.33276 0.0
C463 C 0.8891 0.62327 0.41599 0.0
C464 C 0.90087 0.65782 0.3604 0.0
H465 H 0.86324 0.52662 0.33312 0.0
H466 H 0.85206 0.51269 0.36288 0.0
H467 H 0.85487 0.54999 0.42275 0.0
H468 H 0.87109 0.58883 0.43827 0.0
H469 H 0.90859 0.67143 0.41639 0.0
H470 H 0.91534 0.69057 0.38603 0.0
H471 H 0.90315 0.66236 0.32477 0.0
H472 H 0.8922 0.61791 0.30985 0.0
H473 H 0.84881 0.69119 0.37054 0.0
H474 H 0.81973 0.61891 0.37298 0.0
H475 H 0.9413 0.59023 0.36369 0.0
H476 H 0.91869 0.52633 0.39216 0.0
C477 C 0.15407 0.43968 0.34628 0.0
C478 C 0.16377 0.46202 0.34288 0.0
C479 C 0.17248 0.46719 0.35718 0.0
C480 C 0.16769 0.44775 0.36846 0.0
N481 N 0.15651 0.43072 0.36215 0.0
Co482 Co 0.14683 0.3994 0.37404 0.0
N483 N 0.15283 0.41449 0.39627 0.0
C484 C 0.16427 0.43344 0.39904 0.0
C485 C 0.16624 0.43943 0.41572 0.0
C486 C 0.15547 0.42304 0.42399 0.0
C487 C 0.14747 0.40792 0.41182 0.0
N488 N 0.13725 0.368 0.38602 0.0
C489 C 0.13323 0.36512 0.40246 0.0
C490 C 0.12689 0.33952 0.40544 0.0
C491 C 0.12726 0.32589 0.39041 0.0
C492 C 0.13371 0.34386 0.37906 0.0
N493 N 0.14098 0.38464 0.35164 0.0
C494 C 0.13707 0.35873 0.34834 0.0
C495 C 0.13294 0.35477 0.33181 0.0
C496 C 0.13444 0.37971 0.32429 0.0
C497 C 0.13954 0.3976 0.33665 0.0
N498 N 0.16777 0.3799 0.37305 0.0
C499 C 0.19564 0.34663 0.3711 0.0
C500 C 0.19004 0.36116 0.35706 0.0
C501 C 0.17625 0.3778 0.35834 0.0
C502 C 0.18717 0.34992 0.38623 0.0
C503 C 0.17337 0.36642 0.38692 0.0
N504 N 0.12576 0.41801 0.37506 0.0
C505 C 0.09675 0.41592 0.37145 0.0
C506 C 0.09487 0.44239 0.37756 0.0
C507 C 0.10904 0.4566 0.38204 0.0
C508 C 0.12433 0.44412 0.38062 0.0
C509 C 0.1121 0.40416 0.37047 0.0
H510 H 0.13497 0.45544 0.38422 0.0
H511 H 0.11283 0.38362 0.36605 0.0
H512 H 0.17224 0.3885 0.34728 0.0
H513 H 0.16697 0.36759 0.39868 0.0
C514 C 0.1712 0.44765 0.38564 0.0
C515 C 0.14363 0.42637 0.33382 0.0
C516 C 0.1363 0.38553 0.41562 0.0
C517 C 0.13429 0.34047 0.36156 0.0
H518 H 0.16456 0.47327 0.33125 0.0
H519 H 0.18083 0.48376 0.35928 0.0
H520 H 0.17427 0.45434 0.42122 0.0
H521 H 0.15399 0.42195 0.43747 0.0
H522 H 0.12253 0.33147 0.41723 0.0
H523 H 0.12283 0.30563 0.38796 0.0
H524 H 0.12852 0.3363 0.32608 0.0
H525 H 0.13189 0.38415 0.31126 0.0
H526 H 0.19627 0.3597 0.34514 0.0
H527 H 0.19083 0.33906 0.39741 0.0
H528 H 0.08644 0.40412 0.36733 0.0
H529 H 0.10838 0.47703 0.38691 0.0
C530 C 0.86969 0.43805 0.16565 0.0
C531 C 0.86155 0.46216 0.16879 0.0
C532 C 0.85554 0.47087 0.15382 0.0
C533 C 0.8604 0.45185 0.1424 0.0
N534 N 0.86905 0.43131 0.14912 0.0
Co535 Co 0.87885 0.40005 0.13659 0.0
N536 N 0.87249 0.41573 0.11429 0.0
C537 C 0.86484 0.43958 0.11175 0.0
C538 C 0.86382 0.44708 0.09527 0.0
C539 C 0.87126 0.42682 0.08666 0.0
C540 C 0.8761 0.40763 0.09843 0.0
N541 N 0.88816 0.36839 0.12401 0.0
C542 C 0.88897 0.36329 0.10723 0.0
C543 C 0.89552 0.3379 0.1041 0.0
C544 C 0.89929 0.32687 0.11934 0.0
C545 C 0.89468 0.34586 0.13093 0.0
N546 N 0.88594 0.38524 0.15892 0.0
C547 C 0.89395 0.36175 0.16157 0.0
C548 C 0.89825 0.35772 0.17802 0.0
C549 C 0.89292 0.38022 0.18635 0.0
C550 C 0.88565 0.39677 0.17447 0.0
N551 N 0.85766 0.37988 0.13805 0.0
C552 C 0.82876 0.34824 0.13737 0.0
C553 C 0.84315 0.33805 0.14399 0.0
C554 C 0.85714 0.35406 0.14444 0.0
C555 C 0.82889 0.37512 0.13167 0.0
C556 C 0.84338 0.3904 0.132 0.0
N557 N 0.90004 0.41949 0.13507 0.0
C558 C 0.92938 0.41778 0.13551 0.0
C559 C 0.93059 0.44574 0.1332 0.0
C560 C 0.9161 0.46047 0.13196 0.0
C561 C 0.90105 0.44701 0.1328 0.0
C562 C 0.91423 0.40527 0.13647 0.0
H563 H 0.89037 0.45915 0.13158 0.0
H564 H 0.91436 0.38397 0.13844 0.0
H565 H 0.86742 0.34475 0.14992 0.0
H566 H 0.84281 0.41052 0.12709 0.0
C567 C 0.85917 0.45493 0.12512 0.0
C568 C 0.8786 0.42319 0.1786 0.0
C569 C 0.88376 0.38185 0.09385 0.0
C570 C 0.89741 0.34411 0.14826 0.0
H571 H 0.86052 0.47304 0.18051 0.0
H572 H 0.84917 0.48963 0.15141 0.0
H573 H 0.85858 0.4654 0.09014 0.0
H574 H 0.873 0.42653 0.07322 0.0
H575 H 0.89748 0.32832 0.09207 0.0
H576 H 0.90495 0.30746 0.12167 0.0
H577 H 0.90469 0.34063 0.18329 0.0
H578 H 0.89433 0.38414 0.19963 0.0
H579 H 0.84364 0.31761 0.14893 0.0
H580 H 0.81799 0.38407 0.12652 0.0
H581 H 0.94015 0.40544 0.13688 0.0
H582 H 0.91636 0.48219 0.13011 0.0
C583 C 0.15239 0.56998 0.16875 0.0
C584 C 0.16099 0.54664 0.17262 0.0
C585 C 0.16773 0.53777 0.158 0.0
C586 C 0.16296 0.55618 0.14612 0.0
N587 N 0.15381 0.57656 0.15228 0.0
Co588 Co 0.14412 0.60731 0.13923 0.0
N589 N 0.15115 0.59115 0.11732 0.0
C590 C 0.15995 0.56833 0.11519 0.0
C591 C 0.16274 0.56188 0.09873 0.0
C592 C 0.15511 0.58159 0.08974 0.0
C593 C 0.14801 0.59896 0.10131 0.0
N594 N 0.13462 0.63824 0.12612 0.0
C595 C 0.13322 0.6419 0.10925 0.0
C596 C 0.12556 0.66616 0.10551 0.0
C597 C 0.12196 0.6782 0.1205 0.0
C598 C 0.12757 0.66071 0.13254 0.0
N599 N 0.13663 0.62281 0.16123 0.0
C600 C 0.12873 0.64652 0.16351 0.0
C601 C 0.124 0.65077 0.1798 0.0
C602 C 0.12887 0.62821 0.18838 0.0
C603 C 0.13639 0.61144 0.17681 0.0
N604 N 0.16517 0.62808 0.14088 0.0
C605 C 0.19405 0.65993 0.1406 0.0
C606 C 0.17924 0.67077 0.14566 0.0
C607 C 0.16526 0.65468 0.14592 0.0
C608 C 0.19428 0.63242 0.13625 0.0
C609 C 0.17983 0.61707 0.13636 0.0
N610 N 0.12317 0.5873 0.13757 0.0
C611 C 0.09387 0.58798 0.1389 0.0
C612 C 0.0929 0.55992 0.13676 0.0
C613 C 0.10755 0.54584 0.13457 0.0
C614 C 0.12245 0.55984 0.13496 0.0
C615 C 0.10886 0.601 0.13938 0.0
H616 H 0.1333 0.5482 0.13328 0.0
H617 H 0.10853 0.6223 0.14132 0.0
H618 H 0.15467 0.66457 0.15018 0.0
H619 H 0.18086 0.59645 0.13257 0.0
C620 C 0.16518 0.55311 0.12889 0.0
C621 C 0.14249 0.58442 0.181 0.0
C622 C 0.13843 0.62256 0.0964 0.0
C623 C 0.12493 0.66333 0.14986 0.0
H624 H 0.16189 0.53662 0.18467 0.0
H625 H 0.17467 0.51943 0.15613 0.0
H626 H 0.16941 0.54474 0.09384 0.0
H627 H 0.15476 0.58294 0.07619 0.0
H628 H 0.12257 0.67406 0.09322 0.0
H629 H 0.1155 0.69703 0.12239 0.0
H630 H 0.11727 0.66781 0.18475 0.0
H631 H 0.12679 0.62422 0.20156 0.0
H632 H 0.17841 0.69175 0.14957 0.0
H633 H 0.20547 0.62293 0.13232 0.0
H634 H 0.08304 0.60018 0.14013 0.0
H635 H 0.10758 0.52408 0.13286 0.0
C636 C 0.13176 0.39859 0.67615 0.0
C637 C 0.1238 0.38253 0.68782 0.0
C638 C 0.11866 0.3599 0.67946 0.0
C639 C 0.12363 0.36346 0.66319 0.0
N640 N 0.13194 0.38674 0.6607 0.0
Co641 Co 0.1395 0.40139 0.6385 0.0
N642 N 0.13011 0.36993 0.62579 0.0
C643 C 0.12331 0.34751 0.63254 0.0
C644 C 0.1179 0.32935 0.62077 0.0
C645 C 0.12144 0.34086 0.60561 0.0
C646 C 0.12885 0.36551 0.60898 0.0
N647 N 0.14634 0.41699 0.61635 0.0
C648 C 0.14322 0.4086 0.60044 0.0
C649 C 0.1502 0.42577 0.58865 0.0
C650 C 0.15769 0.44595 0.59738 0.0
C651 C 0.15494 0.43997 0.61392 0.0
N652 N 0.14942 0.43236 0.65116 0.0
C653 C 0.15881 0.45223 0.64472 0.0
C654 C 0.16411 0.47057 0.65642 0.0
C655 C 0.15752 0.46214 0.67121 0.0
C656 C 0.14842 0.43918 0.66763 0.0
N657 N 0.16051 0.38066 0.64032 0.0
C658 C 0.1892 0.34839 0.64038 0.0
C659 C 0.1893 0.37505 0.63432 0.0
C660 C 0.17496 0.39062 0.63431 0.0
C661 C 0.17463 0.33871 0.64696 0.0
C662 C 0.16074 0.355 0.64699 0.0
N663 N 0.11854 0.42138 0.63673 0.0
C664 C 0.10291 0.46303 0.63528 0.0
C665 C 0.0882 0.44871 0.63646 0.0
C666 C 0.08919 0.42044 0.6372 0.0
C667 C 0.10419 0.40744 0.63749 0.0
C668 C 0.11783 0.44906 0.6353 0.0
H669 H 0.10381 0.38596 0.63849 0.0
H670 H 0.12869 0.46093 0.63434 0.0
H671 H 0.17587 0.41051 0.62921 0.0
H672 H 0.15031 0.34604 0.65242 0.0
C673 C 0.12025 0.34588 0.64982 0.0
C674 C 0.13844 0.42539 0.68013 0.0
C675 C 0.13393 0.38448 0.59584 0.0
C676 C 0.16061 0.45515 0.62745 0.0
H677 H 0.12163 0.38695 0.70092 0.0
H678 H 0.11173 0.34319 0.68456 0.0
H679 H 0.11153 0.31049 0.62295 0.0
H680 H 0.11853 0.33238 0.59345 0.0
H681 H 0.14999 0.42388 0.57512 0.0
H682 H 0.16438 0.46292 0.59228 0.0
H683 H 0.17131 0.48859 0.65431 0.0
H684 H 0.15888 0.47221 0.6832 0.0
H685 H 0.20029 0.38367 0.62915 0.0
H686 H 0.17392 0.3185 0.65222 0.0
H687 H 0.10302 0.48492 0.63464 0.0
H688 H 0.07838 0.40801 0.63751 0.0
C689 C 0.88013 0.6094 0.67406 0.0
C690 C 0.88412 0.62709 0.68694 0.0
C691 C 0.88596 0.65224 0.67977 0.0
C692 C 0.88295 0.64859 0.66295 0.0
N693 N 0.87938 0.62272 0.65915 0.0
Co694 Co 0.87429 0.60875 0.6364 0.0
N695 N 0.88427 0.64061 0.62522 0.0
C696 C 0.88743 0.66455 0.63263 0.0
C697 C 0.89425 0.68297 0.62181 0.0
C698 C 0.89526 0.66987 0.60663 0.0
C699 C 0.8889 0.64411 0.60901 0.0
N700 N 0.86919 0.59443 0.61372 0.0
C701 C 0.87508 0.60166 0.59849 0.0
C702 C 0.86758 0.58696 0.58578 0.0
C703 C 0.85664 0.57007 0.59338 0.0
C704 C 0.858 0.57539 0.61022 0.0
N705 N 0.86418 0.577 0.64756 0.0
C706 C 0.85374 0.55951 0.64039 0.0
C707 C 0.84951 0.53856 0.65081 0.0
C708 C 0.85771 0.54322 0.66547 0.0
C709 C 0.86636 0.56715 0.66331 0.0
N710 N 0.8533 0.62824 0.63677 0.0
C711 C 0.82536 0.66167 0.63789 0.0
C712 C 0.83031 0.64642 0.65193 0.0
C713 C 0.84418 0.62982 0.65109 0.0
C714 C 0.83448 0.65868 0.62312 0.0
C715 C 0.84827 0.64214 0.62283 0.0
N716 N 0.89537 0.59008 0.63599 0.0
C717 C 0.91194 0.5507 0.63052 0.0
C718 C 0.92608 0.56505 0.63483 0.0
C719 C 0.92435 0.59204 0.63996 0.0
C720 C 0.90902 0.60404 0.6405 0.0
C721 C 0.89675 0.56361 0.63109 0.0
H722 H 0.90828 0.6248 0.64456 0.0
H723 H 0.88613 0.55225 0.62747 0.0
H724 H 0.84777 0.61883 0.6622 0.0
H725 H 0.85507 0.64119 0.61132 0.0
C726 C 0.88613 0.66736 0.65013 0.0
C727 C 0.87588 0.58067 0.67656 0.0
C728 C 0.88635 0.62422 0.59545 0.0
C729 C 0.85089 0.56031 0.6231 0.0
H730 H 0.88547 0.62234 0.70013 0.0
H731 H 0.88968 0.67071 0.686 0.0
H732 H 0.89848 0.7032 0.6247 0.0
H733 H 0.90003 0.67839 0.59514 0.0
H734 H 0.86955 0.58858 0.5724 0.0
H735 H 0.84894 0.5552 0.58736 0.0
H736 H 0.84211 0.52111 0.6478 0.0
H737 H 0.85745 0.53013 0.67634 0.0
H738 H 0.82384 0.64783 0.66371 0.0
H739 H 0.83108 0.66918 0.61172 0.0
H740 H 0.91263 0.52982 0.62642 0.0
H741 H 0.93478 0.60389 0.64372 0.0
C742 C 0.13544 0.61034 0.83678 0.0
C743 C 0.13046 0.6288 0.82472 0.0
C744 C 0.12906 0.65341 0.83269 0.0
C745 C 0.13319 0.64863 0.84915 0.0
N746 N 0.13705 0.62258 0.85196 0.0
Co747 Co 0.14313 0.60671 0.87397 0.0
N748 N 0.13381 0.63763 0.88663 0.0
C749 C 0.13036 0.66214 0.88014 0.0
C750 C 0.12431 0.67978 0.8919 0.0
C751 C 0.12414 0.66556 0.90672 0.0
C752 C 0.13018 0.63996 0.9032 0.0
N753 N 0.1492 0.59037 0.89584 0.0
C754 C 0.14409 0.59634 0.91158 0.0
C755 C 0.15202 0.58034 0.92336 0.0
C756 C 0.16249 0.56406 0.91467 0.0
C757 C 0.16044 0.57096 0.89813 0.0
N758 N 0.15268 0.57604 0.86137 0.0
C759 C 0.16382 0.55857 0.86722 0.0
C760 C 0.16832 0.53957 0.85552 0.0
C761 C 0.15944 0.54551 0.84144 0.0
C762 C 0.14996 0.56783 0.8454 0.0
N763 N 0.16413 0.62622 0.8732 0.0
C764 C 0.19194 0.66001 0.87165 0.0
C765 C 0.18364 0.65557 0.8868 0.0
C766 C 0.1699 0.63885 0.8873 0.0
C767 C 0.18628 0.64598 0.85741 0.0
C768 C 0.17249 0.62918 0.85846 0.0
N769 N 0.122 0.58801 0.87472 0.0
C770 C 0.10559 0.54776 0.8782 0.0
C771 C 0.09128 0.56241 0.87495 0.0
C772 C 0.09291 0.59026 0.8718 0.0
C773 C 0.1082 0.60247 0.8716 0.0
C774 C 0.12076 0.56091 0.8781 0.0
H775 H 0.10879 0.62379 0.86886 0.0
H776 H 0.13149 0.54914 0.88064 0.0
H777 H 0.16373 0.63678 0.89913 0.0
H778 H 0.16834 0.61919 0.8472 0.0
C779 C 0.13069 0.66633 0.8627 0.0
C780 C 0.13928 0.58169 0.83346 0.0
C781 C 0.13342 0.61908 0.916 0.0
C782 C 0.16729 0.5575 0.88439 0.0
H783 H 0.128 0.62492 0.8116 0.0
H784 H 0.12478 0.67219 0.82728 0.0
H785 H 0.12006 0.70025 0.88987 0.0
H786 H 0.12016 0.67326 0.91874 0.0
H787 H 0.15071 0.58088 0.93686 0.0
H788 H 0.17044 0.54872 0.9198 0.0
H789 H 0.1765 0.52268 0.85723 0.0
H790 H 0.15988 0.53468 0.82964 0.0
H791 H 0.18762 0.66508 0.89833 0.0
H792 H 0.19211 0.64854 0.84535 0.0
H793 H 0.10519 0.52618 0.88056 0.0
H794 H 0.08241 0.60291 0.86964 0.0
C795 C 0.88547 0.39752 0.83381 0.0
C796 C 0.89047 0.37971 0.8214 0.0
C797 C 0.89266 0.35503 0.82904 0.0
C798 C 0.88885 0.35909 0.84565 0.0
N799 N 0.88445 0.38477 0.84889 0.0
Co800 Co 0.87812 0.39928 0.87121 0.0
N801 N 0.8882 0.36843 0.88338 0.0
C802 C 0.89263 0.34473 0.87638 0.0
C803 C 0.90003 0.32764 0.88758 0.0
C804 C 0.90002 0.34125 0.9026 0.0
C805 C 0.89232 0.36586 0.89984 0.0
N806 N 0.87171 0.41417 0.8934 0.0
C807 C 0.8765 0.40724 0.90913 0.0
C808 C 0.86755 0.42133 0.92108 0.0
C809 C 0.857 0.43764 0.91255 0.0
C810 C 0.85989 0.43253 0.89593 0.0
N811 N 0.8679 0.42997 0.85906 0.0
C812 C 0.85667 0.44689 0.86535 0.0
C813 C 0.85203 0.4666 0.8542 0.0
C814 C 0.86083 0.4617 0.83995 0.0
C815 C 0.87031 0.43904 0.84319 0.0
N816 N 0.85753 0.37857 0.87017 0.0
C817 C 0.82998 0.3441 0.86853 0.0
C818 C 0.83543 0.35861 0.85437 0.0
C819 C 0.84907 0.37578 0.85548 0.0
C820 C 0.83845 0.34831 0.88362 0.0
C821 C 0.85209 0.3652 0.88413 0.0
N822 N 0.89885 0.41914 0.8723 0.0
C823 C 0.9146 0.45963 0.87766 0.0
C824 C 0.92912 0.44567 0.87445 0.0
C825 C 0.92802 0.41834 0.86988 0.0
C826 C 0.91292 0.40564 0.86877 0.0
C827 C 0.89962 0.44595 0.87666 0.0
H828 H 0.91271 0.3847 0.86507 0.0
H829 H 0.88867 0.45697 0.87949 0.0
H830 H 0.85299 0.38629 0.84431 0.0
H831 H 0.8584 0.3669 0.8959 0.0
C832 C 0.89213 0.34121 0.8589 0.0
C833 C 0.88071 0.42581 0.83069 0.0
C834 C 0.88796 0.38531 0.91324 0.0
C835 C 0.85305 0.44657 0.88246 0.0
H836 H 0.89231 0.38412 0.80823 0.0
H837 H 0.89718 0.33666 0.8233 0.0
H838 H 0.9054 0.30809 0.88502 0.0
H839 H 0.90513 0.33375 0.9142 0.0
H840 H 0.86812 0.41951 0.93459 0.0
H841 H 0.84836 0.45171 0.91785 0.0
H842 H 0.8438 0.48328 0.85639 0.0
H843 H 0.86031 0.47354 0.82855 0.0
H844 H 0.82953 0.35626 0.84232 0.0
H845 H 0.83467 0.33854 0.89513 0.0
H846 H 0.91483 0.48078 0.88125 0.0
H847 H 0.9388 0.40678 0.86697 0.0
H848 H 0.36308 0.11515 0.43874 0.0
H849 H 0.36591 0.11992 0.46894 0.0
H850 H 0.41753 0.13102 0.46311 0.0
H851 H 0.41479 0.12254 0.43286 0.0
H852 H 0.41521 0.10594 0.48885 0.0
H853 H 0.38737 0.18503 0.47373 0.0
H854 H 0.36694 0.21418 0.4602 0.0
H855 H 0.32927 0.1754 0.48855 0.0
H856 H 0.34943 0.14573 0.50208 0.0
H857 H 0.38109 0.16606 0.57559 0.0
H858 H 0.38615 0.1704 0.54563 0.0
H859 H 0.4012 0.08661 0.54402 0.0
H860 H 0.39873 0.08394 0.57443 0.0
H861 H 0.37345 0.15484 0.52156 0.0
H862 H 0.41944 0.06655 0.50967 0.0
H863 H 0.44371 0.04704 0.52306 0.0
H864 H 0.45258 0.12219 0.54862 0.0
H865 H 0.42848 0.14227 0.53522 0.0
C866 C 0.37508 0.11823 0.44393 0.0
C867 C 0.38876 0.11775 0.43345 0.0
C868 C 0.37668 0.12158 0.46128 0.0
C869 C 0.39192 0.12651 0.46863 0.0
C870 C 0.40559 0.12712 0.45801 0.0
C871 C 0.40404 0.12254 0.44065 0.0
C872 C 0.39349 0.13002 0.48735 0.0
C873 C 0.40615 0.11691 0.49596 0.0
C874 C 0.38215 0.14518 0.49689 0.0
C875 C 0.36992 0.16302 0.48884 0.0
C876 C 0.37472 0.18261 0.47701 0.0
C877 C 0.36318 0.19923 0.46935 0.0
C878 C 0.34682 0.19661 0.47349 0.0
C879 C 0.34195 0.1774 0.48534 0.0
C880 C 0.35343 0.16069 0.49304 0.0
C881 C 0.38644 0.1491 0.56902 0.0
C882 C 0.39013 0.12499 0.57759 0.0
C883 C 0.38893 0.1513 0.55166 0.0
C884 C 0.39432 0.12897 0.54214 0.0
C885 C 0.39777 0.10471 0.55078 0.0
C886 C 0.39615 0.10302 0.56827 0.0
C887 C 0.39508 0.13047 0.52323 0.0
C888 C 0.38276 0.14436 0.51454 0.0
C889 C 0.4074 0.11767 0.51362 0.0
C890 C 0.42206 0.10584 0.52153 0.0
C891 C 0.42662 0.07897 0.51807 0.0
C892 C 0.44033 0.06779 0.52568 0.0
C893 C 0.44965 0.08334 0.53672 0.0
C894 C 0.44532 0.11014 0.54011 0.0
C895 C 0.43162 0.12142 0.53252 0.0
H896 H 0.46025 0.07463 0.54263 0.0
H897 H 0.33791 0.2095 0.46754 0.0
H898 H 0.61715 0.90072 0.57117 0.0
H899 H 0.61506 0.89439 0.54074 0.0
H900 H 0.65368 0.83561 0.54265 0.0
H901 H 0.656 0.84265 0.57316 0.0
H902 H 0.65898 0.86934 0.5179 0.0
H903 H 0.6128 0.81786 0.53511 0.0
H904 H 0.58722 0.80922 0.55017 0.0
H905 H 0.56435 0.87413 0.52327 0.0
H906 H 0.58986 0.88343 0.50822 0.0
H907 H 0.65138 0.83641 0.43168 0.0
H908 H 0.64992 0.83072 0.4623 0.0
H909 H 0.61434 0.89451 0.46495 0.0
H910 H 0.61576 0.89995 0.43433 0.0
H911 H 0.60739 0.85413 0.48733 0.0
H912 H 0.6538 0.90777 0.472 0.0
H913 H 0.67926 0.9171 0.4569 0.0
H914 H 0.70154 0.84831 0.48043 0.0
H915 H 0.67611 0.83832 0.49549 0.0
C916 C 0.62497 0.8861 0.56507 0.0
C917 C 0.63663 0.87195 0.57444 0.0
C918 C 0.62376 0.88242 0.54769 0.0
C919 C 0.63406 0.86423 0.53928 0.0
C920 C 0.64554 0.84969 0.54877 0.0
C921 C 0.64681 0.85352 0.56619 0.0
C922 C 0.63342 0.86157 0.52054 0.0
C923 C 0.64773 0.86544 0.51128 0.0
C924 C 0.61871 0.85718 0.51172 0.0
C925 C 0.60329 0.85147 0.52063 0.0
C926 C 0.60235 0.83041 0.53248 0.0
C927 C 0.58786 0.82538 0.54101 0.0
C928 C 0.57418 0.84114 0.5377 0.0
C929 C 0.57495 0.86194 0.52582 0.0
C930 C 0.58942 0.86708 0.51728 0.0
C931 C 0.64295 0.84864 0.43881 0.0
C932 C 0.63358 0.86844 0.43072 0.0
C933 C 0.64221 0.84558 0.4563 0.0
C934 C 0.63217 0.86244 0.46603 0.0
C935 C 0.62216 0.88124 0.45778 0.0
C936 C 0.62293 0.88432 0.44031 0.0
C937 C 0.63292 0.8619 0.4848 0.0
C938 C 0.61865 0.85762 0.49402 0.0
C939 C 0.64764 0.86596 0.49361 0.0
C940 C 0.663 0.87213 0.48474 0.0
C941 C 0.66409 0.89453 0.47387 0.0
C942 C 0.67852 0.89995 0.46532 0.0
C943 C 0.692 0.88326 0.46767 0.0
C944 C 0.69108 0.86118 0.4786 0.0
C945 C 0.67667 0.85564 0.48715 0.0
H946 H 0.70316 0.88749 0.46103 0.0
H947 H 0.56297 0.83722 0.54431 0.0
H948 H 0.41028 0.91692 0.07413 0.0
H949 H 0.41321 0.91404 0.0435 0.0
H950 H 0.37911 0.84779 0.0424 0.0
H951 H 0.37634 0.85057 0.07304 0.0
H952 H 0.40314 0.83914 0.02002 0.0
H953 H 0.36714 0.91219 0.03353 0.0
H954 H 0.35884 0.95449 0.04755 0.0
H955 H 0.39806 0.99705 0.02389 0.0
H956 H 0.40669 0.9549 0.00985 0.0
H957 H 0.37618 0.85055 0.93484 0.0
H958 H 0.37933 0.84749 0.96539 0.0
H959 H 0.41267 0.91483 0.96426 0.0
H960 H 0.40936 0.91795 0.93366 0.0
H961 H 0.39048 0.92248 0.98781 0.0
H962 H 0.42528 0.84881 0.97271 0.0
H963 H 0.43268 0.80619 0.95854 0.0
H964 H 0.39487 0.76432 0.98496 0.0
H965 H 0.38709 0.80679 0.99912 0.0
C966 C 0.40373 0.90137 0.06733 0.0
C967 C 0.3933 0.88369 0.07593 0.0
C968 C 0.40528 0.89985 0.04983 0.0
C969 C 0.39623 0.88089 0.04053 0.0
C970 C 0.38626 0.86253 0.04923 0.0
C971 C 0.38473 0.86404 0.06674 0.0
C972 C 0.39644 0.88118 0.02174 0.0
C973 C 0.40024 0.85731 0.01298 0.0
C974 C 0.39289 0.90494 0.01245 0.0
C975 C 0.38766 0.93034 0.02078 0.0
C976 C 0.37406 0.93053 0.0314 0.0
C977 C 0.36928 0.95448 0.03933 0.0
C978 C 0.37795 0.97842 0.03666 0.0
C979 C 0.39137 0.97848 0.02598 0.0
C980 C 0.3962 0.95457 0.01801 0.0
C981 C 0.38454 0.86413 0.94109 0.0
C982 C 0.39283 0.88407 0.93188 0.0
C983 C 0.3863 0.86247 0.95857 0.0
C984 C 0.39639 0.88075 0.96723 0.0
C985 C 0.40488 0.90041 0.95794 0.0
C986 C 0.40311 0.90205 0.94045 0.0
C987 C 0.39727 0.88046 0.98601 0.0
C988 C 0.39356 0.90434 0.9948 0.0
C989 C 0.40079 0.85666 0.99529 0.0
C990 C 0.40552 0.83105 0.98687 0.0
C991 C 0.41847 0.83056 0.97541 0.0
C992 C 0.42274 0.80642 0.96739 0.0
C993 C 0.41423 0.78257 0.97082 0.0
C994 C 0.40145 0.78281 0.98231 0.0
C995 C 0.39711 0.80691 0.99035 0.0
H996 H 0.41756 0.7639 0.96459 0.0
H997 H 0.37424 0.99693 0.04283 0.0
H998 H 0.61053 0.09699 0.93418 0.0
H999 H 0.60837 0.10164 0.96486 0.0
H1000 H 0.65212 0.14949 0.96533 0.0
H1001 H 0.65416 0.14492 0.9347 0.0
H1002 H 0.6533 0.10891 0.98832 0.0
H1003 H 0.61616 0.17877 0.97307 0.0
H1004 H 0.59265 0.19893 0.95868 0.0
H1005 H 0.56085 0.14354 0.98404 0.0
H1006 H 0.58422 0.12275 0.9984 0.0
H1007 H 0.65237 0.14845 0.07347 0.0
H1008 H 0.65042 0.15205 0.0428 0.0
H1009 H 0.60859 0.09964 0.04326 0.0
H1010 H 0.61067 0.0959 0.07402 0.0
H1011 H 0.60582 0.1433 0.01994 0.0
H1012 H 0.64311 0.07235 0.03416 0.0
H1013 H 0.66666 0.05218 0.04852 0.0
H1014 H 0.69813 0.11008 0.02495 0.0
H1015 H 0.67473 0.13077 0.01055 0.0
C1016 C 0.61942 0.10902 0.94086 0.0
C1017 C 0.63236 0.12097 0.93214 0.0
C1018 C 0.61823 0.11163 0.95837 0.0
C1019 C 0.63005 0.12602 0.96747 0.0
C1020 C 0.64283 0.13834 0.95864 0.0
C1021 C 0.64394 0.13593 0.94116 0.0
C1022 C 0.62964 0.12695 0.98623 0.0
C1023 C 0.643 0.11683 0.99519 0.0
C1024 C 0.61606 0.1366 0.99531 0.0
C1025 C 0.60197 0.149 0.98667 0.0
C1026 C 0.60418 0.1707 0.97546 0.0
C1027 C 0.59087 0.18229 0.96733 0.0
C1028 C 0.57527 0.17247 0.97041 0.0
C1029 C 0.57295 0.15109 0.98165 0.0
C1030 C 0.58622 0.13941 0.9898 0.0
C1031 C 0.64253 0.13829 0.06702 0.0
C1032 C 0.63153 0.1222 0.07605 0.0
C1033 C 0.64148 0.14017 0.04951 0.0
C1034 C 0.62942 0.12597 0.04067 0.0
C1035 C 0.61796 0.11086 0.04978 0.0
C1036 C 0.61911 0.10877 0.06732 0.0
C1037 C 0.62951 0.12544 0.02192 0.0
C1038 C 0.61611 0.13549 0.01301 0.0
C1039 C 0.64305 0.11571 0.01283 0.0
C1040 C 0.65715 0.10328 0.02141 0.0
C1041 C 0.65504 0.08091 0.03214 0.0
C1042 C 0.66836 0.06935 0.04025 0.0
C1043 C 0.68387 0.07991 0.0377 0.0
C1044 C 0.6861 0.10197 0.02694 0.0
C1045 C 0.67282 0.11359 0.01878 0.0
H1046 H 0.69417 0.07095 0.04401 0.0
H1047 H 0.56498 0.18148 0.96411 0.0
H1048 H 0.87436 0.66456 0.57555 0.0
H1049 H 0.87776 0.66982 0.54515 0.0
H1050 H 0.91034 0.60157 0.54456 0.0
H1051 H 0.90721 0.59679 0.57509 0.0
H1052 H 0.92024 0.6398 0.52231 0.0
H1053 H 0.87059 0.59389 0.53526 0.0
H1054 H 0.84416 0.58818 0.54921 0.0
H1055 H 0.82644 0.65999 0.52498 0.0
H1056 H 0.85289 0.66639 0.5111 0.0
H1057 H 0.90931 0.59645 0.43727 0.0
H1058 H 0.91151 0.60182 0.4678 0.0
H1059 H 0.87842 0.66932 0.46573 0.0
H1060 H 0.87613 0.66365 0.43515 0.0
H1061 H 0.86934 0.63411 0.48936 0.0
H1062 H 0.91918 0.678 0.47492 0.0
H1063 H 0.94576 0.68247 0.4611 0.0
H1064 H 0.96317 0.61283 0.48786 0.0
H1065 H 0.93661 0.60769 0.50166 0.0
C1066 C 0.88265 0.65128 0.56898 0.0
C1067 C 0.89074 0.63056 0.57768 0.0
C1068 C 0.88445 0.65407 0.55158 0.0
C1069 C 0.89414 0.63586 0.54244 0.0
C1070 C 0.90282 0.61591 0.55126 0.0
C1071 C 0.90107 0.6132 0.5687 0.0
C1072 C 0.89428 0.63634 0.52365 0.0
C1073 C 0.90912 0.63834 0.5151 0.0
C1074 C 0.87977 0.63482 0.51416 0.0
C1075 C 0.86377 0.63078 0.52227 0.0
C1076 C 0.86109 0.60856 0.53299 0.0
C1077 C 0.84611 0.60519 0.54088 0.0
C1078 C 0.83364 0.62375 0.53802 0.0
C1079 C 0.83612 0.64566 0.52721 0.0
C1080 C 0.85111 0.64917 0.51932 0.0
C1081 C 0.90288 0.61287 0.44333 0.0
C1082 C 0.89275 0.62991 0.43389 0.0
C1083 C 0.9041 0.61593 0.46078 0.0
C1084 C 0.89522 0.63613 0.46917 0.0
C1085 C 0.88543 0.65364 0.45961 0.0
C1086 C 0.88423 0.65059 0.44214 0.0
C1087 C 0.8953 0.63773 0.48794 0.0
C1088 C 0.88047 0.6359 0.49652 0.0
C1089 C 0.90982 0.6392 0.49742 0.0
C1090 C 0.92585 0.64233 0.48922 0.0
C1091 C 0.92863 0.66351 0.47777 0.0
C1092 C 0.94371 0.66619 0.46995 0.0
C1093 C 0.95614 0.64791 0.47357 0.0
C1094 C 0.95353 0.62696 0.48505 0.0
C1095 C 0.93847 0.62417 0.49289 0.0
H1096 H 0.9678 0.65001 0.46751 0.0
H1097 H 0.82205 0.62111 0.54414 0.0
H1098 H 0.14709 0.34505 0.57596 0.0
H1099 H 0.14483 0.34054 0.54535 0.0
H1100 H 0.11201 0.40846 0.54412 0.0
H1101 H 0.11397 0.41241 0.57477 0.0
H1102 H 0.10284 0.37192 0.52135 0.0
H1103 H 0.15252 0.41589 0.53609 0.0
H1104 H 0.17866 0.42083 0.55074 0.0
H1105 H 0.19647 0.34924 0.52635 0.0
H1106 H 0.1703 0.34359 0.51178 0.0
H1107 H 0.11611 0.41388 0.4362 0.0
H1108 H 0.11331 0.40966 0.46677 0.0
H1109 H 0.14597 0.34149 0.46633 0.0
H1110 H 0.149 0.34618 0.43582 0.0
H1111 H 0.15463 0.37636 0.48992 0.0
H1112 H 0.10426 0.33449 0.47398 0.0
H1113 H 0.07802 0.33192 0.45925 0.0
H1114 H 0.06156 0.40267 0.48551 0.0
H1115 H 0.08778 0.40586 0.50025 0.0
C1116 C 0.1391 0.35853 0.56915 0.0
C1117 C 0.13065 0.37899 0.57768 0.0
C1118 C 0.13792 0.35615 0.55164 0.0
C1119 C 0.12846 0.37446 0.54229 0.0
C1120 C 0.11939 0.39409 0.55096 0.0
C1121 C 0.12051 0.39635 0.56847 0.0
C1122 C 0.12881 0.37432 0.52349 0.0
C1123 C 0.11417 0.37309 0.51449 0.0
C1124 C 0.14356 0.37561 0.51441 0.0
C1125 C 0.15939 0.37916 0.52297 0.0
C1126 C 0.16197 0.40109 0.53393 0.0
C1127 C 0.1768 0.40403 0.54222 0.0
C1128 C 0.18921 0.38532 0.5395 0.0
C1129 C 0.18683 0.36369 0.52846 0.0
C1130 C 0.172 0.3606 0.52018 0.0
C1131 C 0.12234 0.3976 0.44263 0.0
C1132 C 0.13246 0.37995 0.43363 0.0
C1133 C 0.12077 0.39518 0.46011 0.0
C1134 C 0.12928 0.37503 0.46896 0.0
C1135 C 0.13919 0.35711 0.45986 0.0
C1136 C 0.14079 0.35957 0.4424 0.0
C1137 C 0.12867 0.37367 0.48773 0.0
C1138 C 0.1433 0.37486 0.49675 0.0
C1139 C 0.1139 0.37265 0.49679 0.0
C1140 C 0.09804 0.37053 0.48812 0.0
C1141 C 0.09508 0.34959 0.47655 0.0
C1142 C 0.0802 0.34801 0.4682 0.0
C1143 C 0.06814 0.36716 0.47142 0.0
C1144 C 0.07091 0.38786 0.48303 0.0
C1145 C 0.08577 0.38954 0.4914 0.0
H1146 H 0.05664 0.36592 0.46493 0.0
H1147 H 0.20068 0.38763 0.54592 0.0
H1148 H 0.90126 0.4194 0.93646 0.0
H1149 H 0.90219 0.41382 0.96683 0.0
H1150 H 0.88448 0.33184 0.96151 0.0
H1151 H 0.88106 0.33926 0.93151 0.0
H1152 H 0.87146 0.34602 0.98569 0.0
H1153 H 0.92719 0.35492 0.97466 0.0
H1154 H 0.95254 0.37372 0.96312 0.0
H1155 H 0.94525 0.44718 0.99094 0.0
H1156 H 0.91975 0.42898 1.00248 0.0
H1157 H 0.91155 0.36945 0.07641 0.0
H1158 H 0.91454 0.3618 0.04619 0.0
H1159 H 0.86314 0.37479 0.03979 0.0
H1160 H 0.86 0.37837 0.07003 0.0
H1161 H 0.91342 0.3883 0.02161 0.0
H1162 H 0.84708 0.35483 0.00475 0.0
H1163 H 0.82577 0.32518 0.0163 0.0
H1164 H 0.86151 0.28073 0.04411 0.0
H1165 H 0.88307 0.30986 0.03255 0.0
C1166 C 0.89774 0.40009 0.94181 0.0
C1167 C 0.89145 0.37959 0.93144 0.0
C1168 C 0.89846 0.39671 0.95928 0.0
C1169 C 0.89383 0.37207 0.96687 0.0
C1170 C 0.88814 0.35117 0.95632 0.0
C1171 C 0.88656 0.35514 0.93896 0.0
C1172 C 0.89382 0.36873 0.98572 0.0
C1173 C 0.88082 0.35504 0.99343 0.0
C1174 C 0.90615 0.37952 0.99623 0.0
C1175 C 0.92149 0.39064 0.98934 0.0
C1176 C 0.93094 0.37515 0.97824 0.0
C1177 C 0.94534 0.38569 0.9717 0.0
C1178 C 0.95048 0.41165 0.97626 0.0
C1179 C 0.94125 0.42709 0.98741 0.0
C1180 C 0.92683 0.41665 0.99397 0.0
C1181 C 0.90085 0.36963 0.06854 0.0
C1182 C 0.88554 0.37451 0.07562 0.0
C1183 C 0.90256 0.36569 0.05115 0.0
C1184 C 0.88907 0.36739 0.04031 0.0
C1185 C 0.87377 0.3722 0.04756 0.0
C1186 C 0.87197 0.37474 0.06495 0.0
C1187 C 0.89104 0.36572 0.02151 0.0
C1188 C 0.9043 0.37871 0.01383 0.0
C1189 C 0.87961 0.35247 0.01099 0.0
C1190 C 0.86669 0.33469 0.01787 0.0
C1191 C 0.85041 0.33864 0.01325 0.0
C1192 C 0.83828 0.32194 0.01982 0.0
C1193 C 0.84227 0.30113 0.03096 0.0
C1194 C 0.85842 0.29691 0.03552 0.0
C1195 C 0.8706 0.31353 0.02898 0.0
H1196 H 0.83286 0.28825 0.03605 0.0
H1197 H 0.96163 0.41977 0.97119 0.0
H1198 H 0.15152 0.66005 0.07502 0.0
H1199 H 0.14817 0.66271 0.04441 0.0
H1200 H 0.11412 0.59639 0.04624 0.0
H1201 H 0.11765 0.59364 0.0768 0.0
H1202 H 0.13591 0.58772 0.02246 0.0
H1203 H 0.10216 0.66259 0.03796 0.0
H1204 H 0.09553 0.70565 0.05203 0.0
H1205 H 0.13309 0.746 0.02435 0.0
H1206 H 0.14012 0.70307 0.01029 0.0
H1207 H 0.11301 0.59192 0.93701 0.0
H1208 H 0.11126 0.59572 0.9677 0.0
H1209 H 0.1462 0.66075 0.96674 0.0
H1210 H 0.14781 0.65703 0.93605 0.0
H1211 H 0.12306 0.67076 0.99004 0.0
H1212 H 0.15784 0.59637 0.97585 0.0
H1213 H 0.16525 0.55352 0.96193 0.0
H1214 H 0.12641 0.51265 0.98733 0.0
H1215 H 0.11867 0.55535 1.00128 0.0
C1216 C 0.14307 0.6465 0.06887 0.0
C1217 C 0.13468 0.62687 0.07823 0.0
C1218 C 0.14115 0.64797 0.05138 0.0
C1219 C 0.13079 0.62987 0.04292 0.0
C1220 C 0.12217 0.61061 0.0524 0.0
C1221 C 0.12409 0.60915 0.06986 0.0
C1222 C 0.12959 0.62995 0.02416 0.0
C1223 C 0.13282 0.60581 0.01543 0.0
C1224 C 0.12602 0.65367 0.01482 0.0
C1225 C 0.12176 0.67954 0.02319 0.0
C1226 C 0.10909 0.68059 0.03497 0.0
C1227 C 0.10525 0.70499 0.04292 0.0
C1228 C 0.11391 0.72853 0.03912 0.0
C1229 C 0.12641 0.72774 0.02731 0.0
C1230 C 0.13032 0.70338 0.01933 0.0
C1231 C 0.12 0.60743 0.94337 0.0
C1232 C 0.13034 0.62446 0.93419 0.0
C1233 C 0.11912 0.60946 0.96091 0.0
C1234 C 0.12875 0.62833 0.96964 0.0
C1235 C 0.13861 0.64609 0.96036 0.0
C1236 C 0.13948 0.64405 0.94282 0.0
C1237 C 0.12926 0.62849 0.98842 0.0
C1238 C 0.12602 0.65266 0.99712 0.0
C1239 C 0.13289 0.60484 0.99778 0.0
C1240 C 0.13758 0.57911 0.98948 0.0
C1241 C 0.15081 0.57829 0.97838 0.0
C1242 C 0.15509 0.55402 0.97051 0.0
C1243 C 0.14627 0.5304 0.9737 0.0
C1244 C 0.13321 0.53098 0.98484 0.0
C1245 C 0.12888 0.55519 0.99276 0.0
H1246 H 0.14959 0.51165 0.96757 0.0
H1247 H 0.11091 0.7474 0.04529 0.0
H1248 H 0.56316 0.91887 0.37973 0.0
H1249 H 0.53646 0.93971 0.37995 0.0
H1250 H 0.55822 0.01867 0.3753 0.0
H1251 H 0.5852 0.99788 0.3742 0.0
H1252 H 0.53178 0.01329 0.40054 0.0
H1253 H 0.5429 0.99549 0.34212 0.0
H1254 H 0.55101 0.9668 0.31824 0.0
H1255 H 0.51139 0.91277 0.32831 0.0
H1256 H 0.5032 0.94093 0.35244 0.0
H1257 H 0.4596 0.08479 0.3828 0.0
H1258 H 0.48682 0.06637 0.38304 0.0
H1259 H 0.46793 0.98737 0.37065 0.0
H1260 H 0.44066 0.00621 0.36889 0.0
H1261 H 0.49365 0.99328 0.354 0.0
H1262 H 0.48229 0.00774 0.41204 0.0
H1263 H 0.47395 0.03311 0.43725 0.0
H1264 H 0.51316 0.08909 0.42994 0.0
H1265 H 0.52162 0.06425 0.40455 0.0
C1266 C 0.56242 0.94066 0.3785 0.0
C1267 C 0.57655 0.95652 0.37659 0.0
C1268 C 0.54704 0.95257 0.37879 0.0
C1269 C 0.54527 0.98074 0.37748 0.0
C1270 C 0.55928 0.99686 0.37631 0.0
C1271 C 0.57474 0.9849 0.37577 0.0
C1272 C 0.52872 0.993 0.37689 0.0
C1273 C 0.5235 0.00931 0.39025 0.0
C1274 C 0.5177 0.98701 0.36377 0.0
C1275 C 0.52253 0.97019 0.34919 0.0
C1276 C 0.536 0.97737 0.33934 0.0
C1277 C 0.5406 0.96123 0.32574 0.0
C1278 C 0.53175 0.93794 0.32178 0.0
C1279 C 0.51825 0.9308 0.3314 0.0
C1280 C 0.51362 0.94685 0.34503 0.0
C1281 C 0.46111 0.06356 0.37983 0.0
C1282 C 0.44764 0.04721 0.3757 0.0
C1283 C 0.47682 0.05286 0.3803 0.0
C1284 C 0.47963 0.02522 0.3772 0.0
C1285 C 0.46624 0.00874 0.37318 0.0
C1286 C 0.45051 0.01956 0.37239 0.0
C1287 C 0.49649 0.01373 0.37774 0.0
C1288 C 0.50183 0.99744 0.36434 0.0
C1289 C 0.50751 0.01933 0.39102 0.0
C1290 C 0.50249 0.03428 0.4063 0.0
C1291 C 0.48907 0.02557 0.41574 0.0
C1292 C 0.48433 0.03984 0.43008 0.0
C1293 C 0.49299 0.06274 0.43517 0.0
C1294 C 0.50644 0.07138 0.42597 0.0
C1295 C 0.51123 0.05719 0.41162 0.0
H1296 H 0.4893 0.07376 0.44627 0.0
H1297 H 0.53532 0.92547 0.31125 0.0
H1298 H 0.45813 0.92595 0.1178 0.0
H1299 H 0.48536 0.94533 0.11764 0.0
H1300 H 0.46856 0.01237 0.14766 0.0
H1301 H 0.44109 0.99331 0.14739 0.0
H1302 H 0.48896 0.03104 0.12601 0.0
H1303 H 0.49108 0.95683 0.16427 0.0
H1304 H 0.48756 0.90974 0.17394 0.0
H1305 H 0.52048 0.8821 0.13592 0.0
H1306 H 0.52403 0.92901 0.12587 0.0
H1307 H 0.56709 0.07172 0.15512 0.0
H1308 H 0.53985 0.05279 0.15392 0.0
H1309 H 0.55491 0.99738 0.11522 0.0
H1310 H 0.58217 0.01704 0.11571 0.0
H1311 H 0.53574 0.973 0.14126 0.0
H1312 H 0.53356 0.04963 0.10394 0.0
H1313 H 0.53721 0.09758 0.09614 0.0
H1314 H 0.50438 0.12153 0.1352 0.0
H1315 H 0.50072 0.07371 0.1434 0.0
C1316 C 0.46022 0.94484 0.12437 0.0
C1317 C 0.4474 0.95793 0.13273 0.0
C1318 C 0.47587 0.95589 0.12435 0.0
C1319 C 0.47929 0.98009 0.13299 0.0
C1320 C 0.46639 0.99364 0.14094 0.0
C1321 C 0.45063 0.98275 0.14077 0.0
C1322 C 0.49628 0.99106 0.13377 0.0
C1323 C 0.49911 0.01834 0.12958 0.0
C1324 C 0.50975 0.97464 0.13818 0.0
C1325 C 0.50769 0.9464 0.14421 0.0
C1326 C 0.49748 0.94069 0.15789 0.0
C1327 C 0.49549 0.91403 0.16345 0.0
C1328 C 0.50376 0.89293 0.15552 0.0
C1329 C 0.51407 0.89846 0.14204 0.0
C1330 C 0.51608 0.92508 0.13641 0.0
C1331 C 0.56469 0.0558 0.14612 0.0
C1332 C 0.57702 0.04634 0.13533 0.0
C1333 C 0.54903 0.04482 0.14556 0.0
C1334 C 0.54521 0.02381 0.13437 0.0
C1335 C 0.55753 0.01361 0.12397 0.0
C1336 C 0.5732 0.02483 0.12435 0.0
C1337 C 0.52832 0.01279 0.13347 0.0
C1338 C 0.52554 0.98557 0.13768 0.0
C1339 C 0.51488 0.02936 0.12936 0.0
C1340 C 0.51699 0.0581 0.12439 0.0
C1341 C 0.52722 0.06513 0.11096 0.0
C1342 C 0.52928 0.09229 0.10645 0.0
C1343 C 0.52107 0.11259 0.1152 0.0
C1344 C 0.51075 0.10578 0.12845 0.0
C1345 C 0.50868 0.07865 0.13302 0.0
H1346 H 0.52267 0.13361 0.11168 0.0
H1347 H 0.50221 0.87231 0.15985 0.0
H1348 H 0.57843 1.00089 0.63793 0.0
H1349 H 0.5508 0.01873 0.63783 0.0
H1350 H 0.5328 0.94078 0.62182 0.0
H1351 H 0.56058 0.92345 0.62102 0.0
H1352 H 0.51605 0.97523 0.60671 0.0
H1353 H 0.53001 0.96738 0.66456 0.0
H1354 H 0.5463 0.97388 0.6902 0.0
H1355 H 0.54041 0.06005 0.68621 0.0
H1356 H 0.52426 0.05409 0.66041 0.0
H1357 H 0.434 0.00775 0.63615 0.0
H1358 H 0.46099 0.98724 0.63449 0.0
H1359 H 0.48225 0.06606 0.62743 0.0
H1360 H 0.4555 0.08662 0.62786 0.0
H1361 H 0.49621 0.02919 0.65501 0.0
H1362 H 0.48225 0.034 0.59574 0.0
H1363 H 0.46474 0.02448 0.57136 0.0
H1364 H 0.46914 0.93904 0.58041 0.0
H1365 H 0.4865 0.9481 0.60501 0.0
C1366 C 0.56857 0.9876 0.63436 0.0
C1367 C 0.57172 0.96073 0.62953 0.0
C1368 C 0.55269 0.99775 0.63443 0.0
C1369 C 0.53943 0.98104 0.63023 0.0
C1370 C 0.54265 0.95424 0.62516 0.0
C1371 C 0.55858 0.94429 0.62471 0.0
C1372 C 0.52231 0.99147 0.63103 0.0
C1373 C 0.51175 0.98666 0.61744 0.0
C1374 C 0.5164 0.00661 0.64491 0.0
C1375 C 0.52605 0.01029 0.66046 0.0
C1376 C 0.53228 0.98773 0.66909 0.0
C1377 C 0.54148 0.99131 0.68366 0.0
C1378 C 0.54442 0.01736 0.68981 0.0
C1379 C 0.53814 0.03988 0.68142 0.0
C1380 C 0.52895 0.03641 0.66683 0.0
C1381 C 0.44431 0.02081 0.63393 0.0
C1382 C 0.4423 0.0491 0.63239 0.0
C1383 C 0.4598 0.00898 0.63313 0.0
C1384 C 0.47368 0.02514 0.631 0.0
C1385 C 0.47176 0.0532 0.62929 0.0
C1386 C 0.45633 0.06495 0.62971 0.0
C1387 C 0.49027 0.01306 0.63072 0.0
C1388 C 0.50064 0.01758 0.6444 0.0
C1389 C 0.49587 0.99718 0.61714 0.0
C1390 C 0.4855 0.99174 0.60233 0.0
C1391 C 0.47934 0.0132 0.59264 0.0
C1392 C 0.46948 0.00788 0.57875 0.0
C1393 C 0.46578 0.98118 0.57437 0.0
C1394 C 0.47198 0.95972 0.58384 0.0
C1395 C 0.48185 0.96494 0.59774 0.0
H1396 H 0.45814 0.9771 0.56361 0.0
H1397 H 0.55155 0.0201 0.70109 0.0
H1398 H 0.58121 0.01538 0.89165 0.0
H1399 H 0.5539 0.99599 0.8918 0.0
H1400 H 0.53869 0.05443 0.85491 0.0
H1401 H 0.56601 0.07305 0.85394 0.0
H1402 H 0.51702 0.04983 0.88262 0.0
H1403 H 0.54413 0.99274 0.84253 0.0
H1404 H 0.56569 0.96204 0.83275 0.0
H1405 H 0.55381 0.90555 0.87185 0.0
H1406 H 0.53232 0.93613 0.88202 0.0
H1407 H 0.43959 0.99474 0.86142 0.0
H1408 H 0.46699 0.01391 0.86144 0.0
H1409 H 0.48437 0.94431 0.88877 0.0
H1410 H 0.45715 0.92485 0.88834 0.0
H1411 H 0.50531 0.95488 0.86628 0.0
H1412 H 0.47862 0.01039 0.90689 0.0
H1413 H 0.45751 0.04079 0.918 0.0
H1414 H 0.46891 0.09972 0.88015 0.0
H1415 H 0.48996 0.06951 0.86867 0.0
C1416 C 0.5722 0.02393 0.88333 0.0
C1417 C 0.57606 0.04612 0.87289 0.0
C1418 C 0.55648 0.01287 0.88353 0.0
C1419 C 0.54413 0.02381 0.87343 0.0
C1420 C 0.54791 0.04578 0.86297 0.0
C1421 C 0.56363 0.05656 0.86255 0.0
C1422 C 0.52728 0.01247 0.87373 0.0
C1423 C 0.51442 0.02915 0.87887 0.0
C1424 C 0.52386 0.98529 0.86927 0.0
C1425 C 0.53674 0.96686 0.86315 0.0
C1426 C 0.54621 0.97389 0.84914 0.0
C1427 C 0.5584 0.95649 0.8435 0.0
C1428 C 0.56115 0.9319 0.8517 0.0
C1429 C 0.55168 0.92463 0.86553 0.0
C1430 C 0.53949 0.94197 0.87123 0.0
C1431 C 0.44922 0.98367 0.86759 0.0
C1432 C 0.4461 0.95821 0.87486 0.0
C1433 C 0.46495 0.99468 0.86763 0.0
C1434 C 0.47794 0.98081 0.87528 0.0
C1435 C 0.47474 0.95551 0.8827 0.0
C1436 C 0.45909 0.94437 0.88247 0.0
C1437 C 0.49488 0.9922 0.87525 0.0
C1438 C 0.50781 0.97555 0.87012 0.0
C1439 C 0.49839 0.01934 0.87994 0.0
C1440 C 0.48575 0.03757 0.88681 0.0
C1441 C 0.47654 0.02975 0.90086 0.0
C1442 C 0.4646 0.04696 0.90724 0.0
C1443 C 0.46184 0.07214 0.89976 0.0
C1444 C 0.47105 0.08019 0.88591 0.0
C1445 C 0.48299 0.06304 0.87947 0.0
H1446 H 0.45259 0.08543 0.90472 0.0
H1447 H 0.57058 0.91844 0.84732 0.0
H1448 H 0.96192 0.58184 0.38272 0.0
H1449 H 0.98885 0.56178 0.3833 0.0
H1450 H 0.96785 0.48201 0.38039 0.0
H1451 H 0.94065 0.50199 0.37911 0.0
H1452 H 0.99407 0.48739 0.4045 0.0
H1453 H 0.98314 0.50647 0.34632 0.0
H1454 H 0.97498 0.53531 0.32251 0.0
H1455 H 0.01424 0.58986 0.33307 0.0
H1456 H 0.02248 0.56155 0.35712 0.0
H1457 H 0.06613 0.41663 0.38525 0.0
H1458 H 0.03898 0.43531 0.38602 0.0
H1459 H 0.05814 0.51491 0.37578 0.0
H1460 H 0.08541 0.49591 0.37366 0.0
H1461 H 0.03235 0.50948 0.35849 0.0
H1462 H 0.04362 0.49262 0.41634 0.0
H1463 H 0.05204 0.46594 0.44101 0.0
H1464 H 0.01286 0.41028 0.43263 0.0
H1465 H 1.00432 0.43643 0.40776 0.0
C1466 C 0.9629 0.56001 0.38199 0.0
C1467 C 0.94892 0.54367 0.38051 0.0
C1468 C 0.9784 0.54855 0.38246 0.0
C1469 C 0.98046 0.52038 0.38167 0.0
C1470 C 0.96659 0.50382 0.38097 0.0
C1471 C 0.951 0.51532 0.38031 0.0
C1472 C 0.99714 0.50854 0.38113 0.0
C1473 C 1.00238 0.49186 0.39432 0.0
C1474 C 1.0082 0.51507 0.36815 0.0
C1475 C 1.00333 0.53202 0.35362 0.0
C1476 C 0.98995 0.52474 0.34365 0.0
C1477 C 0.98533 0.54097 0.3301 0.0
C1478 C 0.99406 0.56444 0.3263 0.0
C1479 C 1.00747 0.57169 0.33603 0.0
C1480 C 0.01213 0.55555 0.34962 0.0
C1481 C 0.06469 0.43808 0.3829 0.0
C1482 C 0.07821 0.45457 0.37922 0.0
C1483 C 0.04903 0.44889 0.38366 0.0
C1484 C 0.04632 0.47673 0.38126 0.0
C1485 C 0.05977 0.49337 0.37775 0.0
C1486 C 0.07548 0.48247 0.37673 0.0
C1487 C 0.02947 0.48823 0.38193 0.0
C1488 C 0.02413 0.50491 0.36872 0.0
C1489 C 0.01841 0.482 0.39505 0.0
C1490 C 0.02342 0.46636 0.41009 0.0
C1491 C 0.03686 0.47459 0.41969 0.0
C1492 C 0.04165 0.45958 0.43372 0.0
C1493 C 0.03302 0.43639 0.43835 0.0
C1494 C 0.01954 0.42823 0.42901 0.0
C1495 C 0.01471 0.44316 0.41496 0.0
H1496 H 0.03676 0.42478 0.44921 0.0
H1497 H 0.99046 0.57698 0.3158 0.0
H1498 H 0.06616 0.57259 0.15575 0.0
H1499 H 0.03914 0.55328 0.1544 0.0
H1500 H 0.05543 0.49521 0.11769 0.0
H1501 H 0.08248 0.51578 0.11813 0.0
H1502 H 0.02729 0.51289 0.10845 0.0
H1503 H 0.04714 0.47868 0.16056 0.0
H1504 H 0.05964 0.4807 0.18865 0.0
H1505 H 0.02118 0.53207 0.20593 0.0
H1506 H 1.00855 0.53066 0.17787 0.0
H1507 H 0.95748 0.42808 0.1163 0.0
H1508 H 0.98481 0.44712 0.11667 0.0
H1509 H 0.96834 0.51225 0.14838 0.0
H1510 H 0.94089 0.49299 0.14826 0.0
H1511 H 0.99661 0.48989 0.16005 0.0
H1512 H 0.97699 0.52325 0.10712 0.0
H1513 H 0.96469 0.51937 0.07901 0.0
H1514 H 1.00318 0.46668 0.0634 0.0
H1515 H 0.01561 0.46995 0.0915 0.0
C1516 C 0.06407 0.55589 0.14721 0.0
C1517 C 0.07666 0.54606 0.13691 0.0
C1518 C 0.04855 0.54451 0.14666 0.0
C1519 C 0.04511 0.5224 0.13613 0.0
C1520 C 0.05768 0.51219 0.12598 0.0
C1521 C 0.07324 0.52382 0.12638 0.0
C1522 C 0.02834 0.51062 0.13543 0.0
C1523 C 0.02073 0.50746 0.11975 0.0
C1524 C 0.01946 0.50397 0.15014 0.0
C1525 C 0.02697 0.50475 0.16706 0.0
C1526 C 0.0414 0.49056 0.17031 0.0
C1527 C 0.0485 0.49157 0.18623 0.0
C1528 C 0.04123 0.50655 0.19905 0.0
C1529 C 0.02681 0.5205 0.19598 0.0
C1530 C 0.01966 0.51957 0.18008 0.0
C1531 C 0.95963 0.44651 0.12334 0.0
C1532 C 0.94693 0.45893 0.1323 0.0
C1533 C 0.97529 0.4575 0.12345 0.0
C1534 C 0.97872 0.48126 0.13248 0.0
C1535 C 0.96604 0.49392 0.14129 0.0
C1536 C 0.9503 0.48302 0.1411 0.0
C1537 C 0.99562 0.49233 0.13311 0.0
C1538 C 1.00323 0.49531 0.14877 0.0
C1539 C 1.00455 0.49851 0.1184 0.0
C1540 C 0.99715 0.49665 0.10147 0.0
C1541 C 0.98277 0.51067 0.09773 0.0
C1542 C 0.97578 0.50861 0.08179 0.0
C1543 C 0.98313 0.49273 0.06944 0.0
C1544 C 0.9975 0.47894 0.07299 0.0
C1545 C 1.00452 0.48092 0.08891 0.0
H1546 H 0.9777 0.49116 0.05711 0.0
H1547 H 0.04675 0.50732 0.21137 0.0
H1548 H 0.93538 0.51386 0.64481 0.0
H1549 H 0.96272 0.49444 0.64477 0.0
H1550 H 0.98154 0.56815 0.62324 0.0
H1551 H 0.95427 0.58747 0.623 0.0
H1552 H 0.99492 0.52338 0.60842 0.0
H1553 H 0.98583 0.55519 0.66513 0.0
H1554 H 0.97041 0.55761 0.69159 0.0
H1555 H 0.97566 0.47176 0.69827 0.0
H1556 H 0.991 0.4688 0.67174 0.0
H1557 H 0.07858 0.49688 0.62138 0.0
H1558 H 0.05173 0.51762 0.62148 0.0
H1559 H 0.03356 0.45189 0.65179 0.0
H1560 H 0.06049 0.43244 0.65302 0.0
H1561 H 0.01951 0.49313 0.66203 0.0
H1562 H 0.02757 0.45913 0.6063 0.0
H1563 H 0.04141 0.45372 0.57908 0.0
H1564 H 0.03654 0.53894 0.56956 0.0
H1565 H 0.02284 0.54491 0.59683 0.0
C1566 C 0.9453 0.52583 0.63989 0.0
C1567 C 0.94257 0.55235 0.63403 0.0
C1568 C 0.96099 0.51477 0.64 0.0
C1569 C 0.97433 0.52991 0.63419 0.0
C1570 C 0.97153 0.55604 0.62786 0.0
C1571 C 0.95591 0.56716 0.62785 0.0
C1572 C 0.99122 0.51886 0.635 0.0
C1573 C 1.00037 0.51704 0.62017 0.0
C1574 C 0.99828 0.50988 0.65023 0.0
C1575 C 0.98946 0.51175 0.6664 0.0
C1576 C 0.98365 0.53682 0.67221 0.0
C1577 C 0.97493 0.53829 0.68723 0.0
C1578 C 0.97203 0.51485 0.69659 0.0
C1579 C 0.97792 0.4899 0.691 0.0
C1580 C 0.98665 0.48832 0.67599 0.0
C1581 C 0.06898 0.48699 0.62832 0.0
C1582 C 0.0719 0.46252 0.63693 0.0
C1583 C 0.05345 0.49872 0.62814 0.0
C1584 C 0.04027 0.48606 0.63624 0.0
C1585 C 0.0433 0.46213 0.64526 0.0
C1586 C 0.05883 0.45071 0.64572 0.0
C1587 C 0.02336 0.49741 0.63537 0.0
C1588 C 0.01415 0.49937 0.65022 0.0
C1589 C 0.01614 0.50604 0.62009 0.0
C1590 C 0.02434 0.50251 0.60368 0.0
C1591 C 0.02955 0.47674 0.59845 0.0
C1592 C 0.03735 0.47357 0.583 0.0
C1593 C 0.03989 0.49598 0.57262 0.0
C1594 C 0.03459 0.5216 0.57763 0.0
C1595 C 0.02679 0.52489 0.59307 0.0
H1596 H 0.04594 0.49348 0.56067 0.0
H1597 H 0.96525 0.51602 0.70819 0.0
H1598 H 0.06457 0.57555 0.85566 0.0
H1599 H 0.0374 0.55632 0.85668 0.0
H1600 H 0.05297 0.49888 0.89401 0.0
H1601 H 0.08015 0.51884 0.89376 0.0
H1602 H 0.03369 0.47582 0.86743 0.0
H1603 H 0.03142 0.54983 0.90667 0.0
H1604 H 0.03493 0.59725 0.91568 0.0
H1605 H 1.00175 0.62343 0.87748 0.0
H1606 H 0.99823 0.57617 0.86806 0.0
H1607 H 0.95639 0.42607 0.88974 0.0
H1608 H 0.98351 0.44585 0.89042 0.0
H1609 H 0.96624 0.51486 0.86246 0.0
H1610 H 0.93885 0.49537 0.86223 0.0
H1611 H 0.98675 0.53222 0.88436 0.0
H1612 H 0.98899 0.46065 0.84423 0.0
H1613 H 0.98565 0.4142 0.83336 0.0
H1614 H 0.01887 0.38447 0.87051 0.0
H1615 H 0.02225 0.4307 0.88176 0.0
C1616 C 0.0623 0.55913 0.86435 0.0
C1617 C 0.07477 0.54919 0.87482 0.0
C1618 C 0.04667 0.54798 0.86479 0.0
C1619 C 0.04301 0.52628 0.87553 0.0
C1620 C 0.05546 0.51563 0.88561 0.0
C1621 C 0.07109 0.52704 0.88536 0.0
C1622 C 0.02616 0.51497 0.87626 0.0
C1623 C 0.02346 0.48802 0.87138 0.0
C1624 C 0.01267 0.53108 0.88086 0.0
C1625 C 0.01469 0.55949 0.88655 0.0
C1626 C 0.02498 0.56572 0.90009 0.0
C1627 C 0.02695 0.59257 0.90529 0.0
C1628 C 0.0186 0.61335 0.89713 0.0
C1629 C 1.00823 0.60732 0.88377 0.0
C1630 C 1.00623 0.5805 0.87851 0.0
C1631 C 0.95834 0.44549 0.88374 0.0
C1632 C 0.94542 0.45898 0.87579 0.0
C1633 C 0.97394 0.45678 0.88406 0.0
C1634 C 0.97721 0.48165 0.87611 0.0
C1635 C 0.96419 0.4956 0.86862 0.0
C1636 C 0.94848 0.48446 0.86851 0.0
C1637 C 0.99417 0.49288 0.87556 0.0
C1638 C 0.99693 0.51989 0.88043 0.0
C1639 C 1.0077 0.47693 0.87068 0.0
C1640 C 1.00574 0.4491 0.86394 0.0
C1641 C 0.99549 0.44417 0.85016 0.0
C1642 C 0.99361 0.41789 0.84392 0.0
C1643 C 1.00201 0.39639 0.85127 0.0
C1644 C 0.01235 0.40114 0.86485 0.0
C1645 C 0.01427 0.42738 0.87115 0.0
H1646 H 1.00054 0.37605 0.84642 0.0
H1647 H 0.02013 0.63413 0.90118 0.0
H1648 H 0.20339 0.31072 0.34584 0.0
H1649 H 0.22591 0.27841 0.34481 0.0
H1650 H 0.24263 0.30681 0.39296 0.0
H1651 H 0.22026 0.33928 0.39399 0.0
H1652 H 0.2679 0.30001 0.37099 0.0
H1653 H 0.22201 0.24739 0.38949 0.0
H1654 H 0.19428 0.22906 0.38743 0.0
H1655 H 0.20619 0.19096 0.3406 0.0
H1656 H 0.23394 0.20939 0.34226 0.0
H1657 H 0.32341 0.19675 0.39155 0.0
H1658 H 0.30099 0.22844 0.39097 0.0
H1659 H 0.28136 0.18814 0.34747 0.0
H1660 H 0.30311 0.15475 0.34879 0.0
H1661 H 0.25744 0.20143 0.36574 0.0
H1662 H 0.30295 0.25261 0.34659 0.0
H1663 H 0.33061 0.27147 0.34736 0.0
H1664 H 0.31961 0.31309 0.39328 0.0
H1665 H 0.29193 0.29419 0.3929 0.0
C1666 C 0.21194 0.31032 0.35614 0.0
C1667 C 0.20988 0.32769 0.37003 0.0
C1668 C 0.22478 0.29161 0.35561 0.0
C1669 C 0.23599 0.28982 0.36889 0.0
C1670 C 0.23419 0.30759 0.38256 0.0
C1671 C 0.22128 0.32611 0.38318 0.0
C1672 C 0.24949 0.26939 0.36866 0.0
C1673 C 0.26559 0.27843 0.37003 0.0
C1674 C 0.24665 0.24119 0.36689 0.0
C1675 C 0.23 0.23 0.36592 0.0
C1676 C 0.21868 0.23529 0.37869 0.0
C1677 C 0.20296 0.22485 0.3776 0.0
C1678 C 0.19846 0.20892 0.36387 0.0
C1679 C 0.20968 0.20333 0.35121 0.0
C1680 C 0.22541 0.21375 0.35223 0.0
C1681 C 0.31424 0.19406 0.38198 0.0
C1682 C 0.31533 0.17269 0.37025 0.0
C1683 C 0.30145 0.21277 0.38147 0.0
C1684 C 0.28948 0.2114 0.36893 0.0
C1685 C 0.2904 0.19002 0.35726 0.0
C1686 C 0.30307 0.17097 0.35792 0.0
C1687 C 0.27597 0.23197 0.36815 0.0
C1688 C 0.25984 0.22299 0.36661 0.0
C1689 C 0.2788 0.2603 0.36954 0.0
C1690 C 0.29541 0.27178 0.36978 0.0
C1691 C 0.30646 0.26564 0.35691 0.0
C1692 C 0.32214 0.27636 0.35727 0.0
C1693 C 0.32687 0.29342 0.37038 0.0
C1694 C 0.31593 0.29985 0.38314 0.0
C1695 C 0.30024 0.28917 0.38285 0.0
H1696 H 0.33902 0.30169 0.37064 0.0
H1697 H 0.18629 0.20085 0.36306 0.0
H1698 H 0.72397 0.85037 0.35826 0.0
H1699 H 0.74732 0.81962 0.35864 0.0
H1700 H 0.71895 0.76001 0.38509 0.0
H1701 H 0.69574 0.79069 0.38499 0.0
H1702 H 0.74909 0.76261 0.39808 0.0
H1703 H 0.72618 0.75457 0.34272 0.0
H1704 H 0.7166 0.77154 0.31535 0.0
H1705 H 0.76401 0.803 0.30471 0.0
H1706 H 0.77382 0.78652 0.33213 0.0
H1707 H 0.8021 0.65006 0.38692 0.0
H1708 H 0.77855 0.6801 0.38662 0.0
H1709 H 0.80436 0.7361 0.35483 0.0
H1710 H 0.82743 0.70554 0.35417 0.0
H1711 H 0.77526 0.73547 0.34467 0.0
H1712 H 0.79845 0.74484 0.39961 0.0
H1713 H 0.80847 0.72934 0.42715 0.0
H1714 H 0.76143 0.69739 0.43892 0.0
H1715 H 0.75118 0.71241 0.41135 0.0
C1716 C 0.72273 0.83084 0.36431 0.0
C1717 C 0.70782 0.82306 0.37145 0.0
C1718 C 0.73609 0.81311 0.3644 0.0
C1719 C 0.73495 0.78716 0.37169 0.0
C1720 C 0.72023 0.77975 0.37929 0.0
C1721 C 0.70688 0.79733 0.37911 0.0
C1722 C 0.74889 0.76753 0.37125 0.0
C1723 C 0.75468 0.75647 0.38637 0.0
C1724 C 0.75654 0.75977 0.35606 0.0
C1725 C 0.75069 0.76955 0.33954 0.0
C1726 C 0.73453 0.76528 0.3346 0.0
C1727 C 0.72906 0.77479 0.31907 0.0
C1728 C 0.73967 0.78841 0.30832 0.0
C1729 C 0.75579 0.79248 0.31306 0.0
C1730 C 0.76132 0.78305 0.32859 0.0
C1731 C 0.80274 0.66855 0.37964 0.0
C1732 C 0.81696 0.67528 0.37077 0.0
C1733 C 0.78925 0.68603 0.37968 0.0
C1734 C 0.78963 0.71096 0.37103 0.0
C1735 C 0.80362 0.71727 0.36176 0.0
C1736 C 0.817 0.69974 0.36158 0.0
C1737 C 0.7756 0.73054 0.37155 0.0
C1738 C 0.76974 0.7416 0.35642 0.0
C1739 C 0.76799 0.7385 0.38676 0.0
C1740 C 0.7741 0.7295 0.40335 0.0
C1741 C 0.79028 0.73434 0.40802 0.0
C1742 C 0.79599 0.72566 0.42364 0.0
C1743 C 0.78561 0.71232 0.43476 0.0
C1744 C 0.76947 0.70769 0.43029 0.0
C1745 C 0.7637 0.71629 0.41467 0.0
H1746 H 0.79005 0.70562 0.44684 0.0
H1747 H 0.73542 0.79575 0.2963 0.0
H1748 H 0.19694 0.7104 0.12667 0.0
H1749 H 0.2206 0.74041 0.12636 0.0
H1750 H 0.24838 0.68008 0.15276 0.0
H1751 H 0.22471 0.64967 0.15287 0.0
H1752 H 0.25075 0.73503 0.16641 0.0
H1753 H 0.25635 0.68816 0.11362 0.0
H1754 H 0.24686 0.67181 0.08607 0.0
H1755 H 0.23826 0.75371 0.07027 0.0
H1756 H 0.24748 0.77054 0.09783 0.0
H1757 H 0.32654 0.80352 0.15967 0.0
H1758 H 0.3043 0.7707 0.15998 0.0
H1759 H 0.28073 0.81448 0.11995 0.0
H1760 H 0.3035 0.84627 0.11899 0.0
H1761 H 0.27632 0.76605 0.11347 0.0
H1762 H 0.26852 0.8143 0.16486 0.0
H1763 H 0.27583 0.83338 0.19246 0.0
H1764 H 0.28582 0.75352 0.21113 0.0
H1765 H 0.27876 0.73399 0.18356 0.0
C1766 C 0.20809 0.70344 0.13238 0.0
C1767 C 0.20888 0.67755 0.1398 0.0
C1768 C 0.22165 0.72063 0.13215 0.0
C1769 C 0.23635 0.71262 0.13953 0.0
C1770 C 0.2372 0.6868 0.14699 0.0
C1771 C 0.22369 0.66934 0.14694 0.0
C1772 C 0.25069 0.73136 0.13953 0.0
C1773 C 0.25653 0.74151 0.15485 0.0
C1774 C 0.2579 0.74067 0.12446 0.0
C1775 C 0.25247 0.73059 0.10785 0.0
C1776 C 0.25231 0.70267 0.10432 0.0
C1777 C 0.247 0.69332 0.08869 0.0
C1778 C 0.24192 0.7117 0.07644 0.0
C1779 C 0.24218 0.73949 0.07978 0.0
C1780 C 0.24746 0.74895 0.0954 0.0
C1781 C 0.31654 0.80623 0.15102 0.0
C1782 C 0.31678 0.82766 0.13938 0.0
C1783 C 0.3037 0.78747 0.15126 0.0
C1784 C 0.29042 0.79008 0.14022 0.0
C1785 C 0.29068 0.81167 0.12863 0.0
C1786 C 0.30372 0.83002 0.12812 0.0
C1787 C 0.2765 0.77015 0.14043 0.0
C1788 C 0.27067 0.7597 0.12511 0.0
C1789 C 0.26904 0.76106 0.15551 0.0
C1790 C 0.27328 0.77272 0.1721 0.0
C1791 C 0.27239 0.80083 0.17482 0.0
C1792 C 0.27647 0.81172 0.19046 0.0
C1793 C 0.28133 0.79468 0.20352 0.0
C1794 C 0.28208 0.7667 0.20099 0.0
C1795 C 0.27803 0.75571 0.18536 0.0
H1796 H 0.28448 0.80315 0.21562 0.0
H1797 H 0.23781 0.70442 0.06435 0.0
H1798 H 0.72048 0.15981 0.11671 0.0
H1799 H 0.74281 0.19275 0.11715 0.0
H1800 H 0.72078 0.23328 0.15922 0.0
H1801 H 0.69862 0.19993 0.15912 0.0
H1802 H 0.73191 0.2685 0.1302 0.0
H1803 H 0.75068 0.19958 0.1687 0.0
H1804 H 0.7572 0.1527 0.17694 0.0
H1805 H 0.79149 0.14717 0.13657 0.0
H1806 H 0.78498 0.19391 0.12794 0.0
H1807 H 0.79785 0.3582 0.14891 0.0
H1808 H 0.77471 0.32696 0.14941 0.0
H1809 H 0.80325 0.26688 0.12351 0.0
H1810 H 0.82652 0.29751 0.12389 0.0
H1811 H 0.78795 0.24148 0.14502 0.0
H1812 H 0.76996 0.30725 0.10514 0.0
H1813 H 0.76334 0.35266 0.09423 0.0
H1814 H 0.72787 0.36297 0.1331 0.0
H1815 H 0.73442 0.31773 0.14438 0.0
C1816 C 0.72041 0.17567 0.1261 0.0
C1817 C 0.70776 0.1771 0.13793 0.0
C1818 C 0.7332 0.19452 0.12634 0.0
C1819 C 0.73351 0.21563 0.13819 0.0
C1820 C 0.72083 0.21726 0.14993 0.0
C1821 C 0.70822 0.19805 0.14993 0.0
C1822 C 0.74715 0.23578 0.13837 0.0
C1823 C 0.74415 0.26274 0.13365 0.0
C1824 C 0.76322 0.22817 0.14234 0.0
C1825 C 0.76721 0.20014 0.14757 0.0
C1826 C 0.75949 0.18828 0.16149 0.0
C1827 C 0.76321 0.16175 0.16625 0.0
C1828 C 0.77472 0.14693 0.15726 0.0
C1829 C 0.78256 0.15865 0.14351 0.0
C1830 C 0.77887 0.18517 0.13869 0.0
C1831 C 0.79909 0.33841 0.14318 0.0
C1832 C 0.81405 0.33042 0.13634 0.0
C1833 C 0.7858 0.32048 0.14339 0.0
C1834 C 0.78693 0.29432 0.1363 0.0
C1835 C 0.80186 0.28667 0.12919 0.0
C1836 C 0.81521 0.30432 0.12932 0.0
C1837 C 0.77291 0.27459 0.13668 0.0
C1838 C 0.77579 0.24754 0.14152 0.0
C1839 C 0.75677 0.28202 0.13244 0.0
C1840 C 0.75281 0.30923 0.12571 0.0
C1841 C 0.76083 0.31928 0.11144 0.0
C1842 C 0.75708 0.34497 0.10517 0.0
C1843 C 0.74523 0.36072 0.11299 0.0
C1844 C 0.73707 0.35077 0.12707 0.0
C1845 C 0.74079 0.3251 0.1334 0.0
H1846 H 0.74234 0.3806 0.10812 0.0
H1847 H 0.77758 0.1264 0.16097 0.0
H1848 H 0.69292 0.80325 0.65932 0.0
H1849 H 0.71581 0.77225 0.6593 0.0
H1850 H 0.73808 0.81791 0.61936 0.0
H1851 H 0.71467 0.84809 0.61853 0.0
H1852 H 0.74259 0.76758 0.61296 0.0
H1853 H 0.75097 0.81998 0.66269 0.0
H1854 H 0.74398 0.84046 0.68997 0.0
H1855 H 0.73642 0.76137 0.711 0.0
H1856 H 0.74317 0.74042 0.68378 0.0
H1857 H 0.82143 0.7105 0.62142 0.0
H1858 H 0.79827 0.74105 0.62179 0.0
H1859 H 0.77372 0.68843 0.65664 0.0
H1860 H 0.79676 0.65719 0.65605 0.0
H1861 H 0.77049 0.74181 0.66573 0.0
H1862 H 0.76281 0.69001 0.6153 0.0
H1863 H 0.77078 0.67069 0.588 0.0
H1864 H 0.77819 0.75069 0.56826 0.0
H1865 H 0.77047 0.77049 0.59554 0.0
C1866 C 0.70253 0.8067 0.65034 0.0
C1867 C 0.70167 0.82849 0.63889 0.0
C1868 C 0.71587 0.78901 0.65054 0.0
C1869 C 0.72902 0.79271 0.63953 0.0
C1870 C 0.72824 0.81443 0.62808 0.0
C1871 C 0.71482 0.83201 0.62776 0.0
C1872 C 0.74337 0.77374 0.63972 0.0
C1873 C 0.74879 0.76236 0.62452 0.0
C1874 C 0.75146 0.76613 0.65475 0.0
C1875 C 0.74742 0.77865 0.67114 0.0
C1876 C 0.7477 0.80696 0.6731 0.0
C1877 C 0.7438 0.81865 0.68855 0.0
C1878 C 0.73971 0.80223 0.7022 0.0
C1879 C 0.73956 0.77407 0.70042 0.0
C1880 C 0.74344 0.76227 0.68498 0.0
C1881 C 0.81107 0.705 0.62901 0.0
C1882 C 0.81111 0.68088 0.63855 0.0
C1883 C 0.79777 0.72273 0.62926 0.0
C1884 C 0.78403 0.71707 0.63907 0.0
C1885 C 0.78411 0.69339 0.64892 0.0
C1886 C 0.7974 0.67551 0.64861 0.0
C1887 C 0.76965 0.73584 0.639 0.0
C1888 C 0.76425 0.74712 0.65421 0.0
C1889 C 0.76168 0.74358 0.62396 0.0
C1890 C 0.7662 0.73172 0.60752 0.0
C1891 C 0.76625 0.70348 0.60518 0.0
C1892 C 0.77071 0.69244 0.5897 0.0
C1893 C 0.77503 0.70945 0.57641 0.0
C1894 C 0.77486 0.73754 0.57857 0.0
C1895 C 0.77043 0.74868 0.59403 0.0
H1896 H 0.77848 0.70087 0.56444 0.0
H1897 H 0.7367 0.81131 0.71415 0.0
H1898 H 0.22072 0.36056 0.64924 0.0
H1899 H 0.2442 0.33023 0.64973 0.0
H1900 H 0.21457 0.26539 0.63025 0.0
H1901 H 0.19104 0.29534 0.63043 0.0
H1902 H 0.2322 0.24416 0.65196 0.0
H1903 H 0.24497 0.30303 0.60638 0.0
H1904 H 0.24959 0.34636 0.59173 0.0
H1905 H 0.28848 0.36519 0.6256 0.0
H1906 H 0.28395 0.32211 0.6406 0.0
H1907 H 0.30065 0.16603 0.61896 0.0
H1908 H 0.27778 0.19783 0.61967 0.0
H1909 H 0.29817 0.23648 0.6633 0.0
H1910 H 0.32087 0.20421 0.66296 0.0
H1911 H 0.28605 0.27071 0.62979 0.0
H1912 H 0.27118 0.20875 0.67525 0.0
H1913 H 0.2664 0.16303 0.68671 0.0
H1914 H 0.23087 0.14792 0.64844 0.0
H1915 H 0.23564 0.19345 0.6366 0.0
C1916 C 0.21926 0.3399 0.64494 0.0
C1917 C 0.20392 0.33048 0.63981 0.0
C1918 C 0.23276 0.32247 0.64515 0.0
C1919 C 0.23143 0.29528 0.63983 0.0
C1920 C 0.21611 0.28605 0.63454 0.0
C1921 C 0.20259 0.3033 0.6346 0.0
C1922 C 0.24577 0.27626 0.64007 0.0
C1923 C 0.24388 0.25013 0.64694 0.0
C1924 C 0.26126 0.28354 0.63368 0.0
C1925 C 0.264 0.30949 0.62473 0.0
C1926 C 0.25442 0.31652 0.61079 0.0
C1927 C 0.25704 0.34101 0.6024 0.0
C1928 C 0.26929 0.35855 0.60776 0.0
C1929 C 0.27898 0.3516 0.62148 0.0
C1930 C 0.2764 0.32714 0.62993 0.0
C1931 C 0.30025 0.18123 0.62875 0.0
C1932 C 0.31261 0.18246 0.64094 0.0
C1933 C 0.28716 0.19942 0.62914 0.0
C1934 C 0.28624 0.21965 0.6415 0.0
C1935 C 0.2986 0.22109 0.65362 0.0
C1936 C 0.31152 0.20251 0.65348 0.0
C1937 C 0.27233 0.23914 0.64174 0.0
C1938 C 0.27432 0.26513 0.63487 0.0
C1939 C 0.25686 0.23159 0.64777 0.0
C1940 C 0.25391 0.20434 0.65493 0.0
C1941 C 0.26248 0.19557 0.66917 0.0
C1942 C 0.25974 0.16972 0.67577 0.0
C1943 C 0.24837 0.15255 0.66828 0.0
C1944 C 0.23969 0.16122 0.65421 0.0
C1945 C 0.2424 0.18705 0.64756 0.0
H1946 H 0.24626 0.13254 0.6734 0.0
H1947 H 0.2713 0.3775 0.60125 0.0
H1948 H 0.71971 0.15888 0.89162 0.0
H1949 H 0.74238 0.1907 0.8906 0.0
H1950 H 0.72362 0.22438 0.84458 0.0
H1951 H 0.70117 0.1919 0.8453 0.0
H1952 H 0.75439 0.22329 0.84171 0.0
H1953 H 0.72006 0.25641 0.88519 0.0
H1954 H 0.70383 0.25463 0.91114 0.0
H1955 H 0.74639 0.23467 0.93955 0.0
H1956 H 0.76284 0.23597 0.91372 0.0
H1957 H 0.80264 0.34545 0.84807 0.0
H1958 H 0.77995 0.31348 0.84721 0.0
H1959 H 0.80202 0.26651 0.88658 0.0
H1960 H 0.82504 0.29735 0.88705 0.0
H1961 H 0.76905 0.27621 0.8924 0.0
H1962 H 0.803 0.24359 0.84752 0.0
H1963 H 0.81843 0.2477 0.82114 0.0
H1964 H 0.77506 0.27032 0.79491 0.0
H1965 H 0.7594 0.26671 0.8212 0.0
C1966 C 0.72037 0.17308 0.88128 0.0
C1967 C 0.70847 0.17279 0.8686 0.0
C1968 C 0.73337 0.19147 0.88074 0.0
C1969 C 0.73471 0.21067 0.86771 0.0
C1970 C 0.72301 0.21001 0.85483 0.0
C1971 C 0.71012 0.19132 0.85524 0.0
C1972 C 0.74824 0.23129 0.86753 0.0
C1973 C 0.75737 0.23509 0.85277 0.0
C1974 C 0.75249 0.24678 0.88192 0.0
C1975 C 0.74265 0.24604 0.89749 0.0
C1976 C 0.72594 0.25146 0.89695 0.0
C1977 C 0.7167 0.25056 0.91164 0.0
C1978 C 0.72407 0.24447 0.92698 0.0
C1979 C 0.7407 0.23934 0.92766 0.0
C1980 C 0.74999 0.24018 0.913 0.0
C1981 C 0.80288 0.32816 0.85642 0.0
C1982 C 0.81588 0.32447 0.86773 0.0
C1983 C 0.78976 0.30989 0.85596 0.0
C1984 C 0.78916 0.28746 0.86686 0.0
C1985 C 0.80204 0.2837 0.87813 0.0
C1986 C 0.81524 0.30168 0.87845 0.0
C1987 C 0.77515 0.26795 0.86667 0.0
C1988 C 0.76596 0.26442 0.88136 0.0
C1989 C 0.77069 0.25307 0.85217 0.0
C1990 C 0.78007 0.25517 0.83636 0.0
C1991 C 0.79678 0.24967 0.83615 0.0
C1992 C 0.80556 0.25187 0.82122 0.0
C1993 C 0.79774 0.25935 0.80637 0.0
C1994 C 0.78111 0.26457 0.80642 0.0
C1995 C 0.77227 0.26244 0.82134 0.0
H1996 H 0.80455 0.26103 0.79481 0.0
H1997 H 0.71689 0.24379 0.93834 0.0
H1998 H 0.1966 0.70738 0.88948 0.0
H1999 H 0.21947 0.73859 0.88861 0.0
H2000 H 0.24231 0.68938 0.85077 0.0
H2001 H 0.21957 0.65755 0.85181 0.0
H2002 H 0.25061 0.73361 0.8958 0.0
H2003 H 0.26489 0.73086 0.82462 0.0
H2004 H 0.25057 0.72397 0.79776 0.0
H2005 H 0.20608 0.75051 0.82026 0.0
H2006 H 0.22017 0.75791 0.84717 0.0
H2007 H 0.32707 0.79613 0.88353 0.0
H2008 H 0.30414 0.76486 0.88291 0.0
H2009 H 0.2763 0.82319 0.85481 0.0
H2010 H 0.29946 0.85437 0.85505 0.0
H2011 H 0.26962 0.77587 0.84288 0.0
H2012 H 0.27114 0.8109 0.89899 0.0
H2013 H 0.28351 0.82178 0.92637 0.0
H2014 H 0.29287 0.73738 0.935 0.0
H2015 H 0.28074 0.72603 0.90758 0.0
C2016 C 0.20653 0.7028 0.88109 0.0
C2017 C 0.20607 0.67952 0.8708 0.0
C2018 C 0.21966 0.72092 0.88055 0.0
C2019 C 0.23273 0.71665 0.86958 0.0
C2020 C 0.23235 0.69352 0.85922 0.0
C2021 C 0.21923 0.67527 0.8598 0.0
C2022 C 0.24672 0.73629 0.86914 0.0
C2023 C 0.25477 0.74272 0.88419 0.0
C2024 C 0.25212 0.74883 0.85412 0.0
C2025 C 0.24356 0.74462 0.83796 0.0
C2026 C 0.25206 0.73529 0.82382 0.0
C2027 C 0.24398 0.73129 0.80858 0.0
C2028 C 0.22742 0.73671 0.80732 0.0
C2029 C 0.2189 0.74622 0.82127 0.0
C2030 C 0.22692 0.75028 0.83653 0.0
C2031 C 0.31605 0.80245 0.87728 0.0
C2032 C 0.31516 0.82805 0.8695 0.0
C2033 C 0.30285 0.78446 0.87695 0.0
C2034 C 0.28817 0.79163 0.86912 0.0
C2035 C 0.28737 0.81697 0.861 0.0
C2036 C 0.30067 0.83488 0.86115 0.0
C2037 C 0.27372 0.77286 0.86952 0.0
C2038 C 0.26555 0.76662 0.85448 0.0
C2039 C 0.26799 0.7609 0.88462 0.0
C2040 C 0.27516 0.76765 0.90117 0.0
C2041 C 0.27592 0.79468 0.90669 0.0
C2042 C 0.28288 0.80093 0.92222 0.0
C2043 C 0.28901 0.78029 0.9324 0.0
C2044 C 0.28814 0.75335 0.9271 0.0
C2045 C 0.28121 0.74699 0.91157 0.0
H2046 H 0.2944 0.78517 0.94442 0.0
H2047 H 0.22119 0.73359 0.79552 0.0
H2048 H 0.36953 0.09093 0.30073 0.0
H2049 H 0.37191 0.06543 0.27439 0.0
H2050 H 0.40477 0.00965 0.29838 0.0
H2051 H 0.40259 0.03552 0.32461 0.0
H2052 H 0.41418 0.01806 0.26659 0.0
H2053 H 0.36482 0.99489 0.29443 0.0
H2054 H 0.33859 0.00395 0.30809 0.0
H2055 H 0.32038 0.03848 0.26236 0.0
H2056 H 0.34662 0.03002 0.24849 0.0
H2057 H 0.37089 0.91103 0.20752 0.0
H2058 H 0.37316 0.9363 0.23395 0.0
H2059 H 0.40263 0.99638 0.20914 0.0
H2060 H 0.40077 0.97058 0.18289 0.0
H2061 H 0.36272 0.98379 0.24236 0.0
H2062 H 0.42764 0.02795 0.23676 0.0
H2063 H 0.45416 0.01514 0.22493 0.0
H2064 H 0.44168 0.93097 0.22925 0.0
H2065 H 0.41518 0.94326 0.24131 0.0
C2066 C 0.37766 0.07374 0.30019 0.0
C2067 C 0.38615 0.06551 0.3146 0.0
C2068 C 0.37886 0.05893 0.28519 0.0
C2069 C 0.3884 0.03532 0.28435 0.0
C2070 C 0.39738 0.02776 0.2986 0.0
C2071 C 0.39618 0.04258 0.31358 0.0
C2072 C 0.38821 0.01762 0.26904 0.0
C2073 C 0.40292 0.01069 0.26125 0.0
C2074 C 0.37359 0.00725 0.26224 0.0
C2075 C 0.35773 0.01204 0.27047 0.0
C2076 C 0.35526 0.00457 0.28731 0.0
C2077 C 0.34039 0.00959 0.29509 0.0
C2078 C 0.32784 0.02184 0.28611 0.0
C2079 C 0.33012 0.02903 0.26931 0.0
C2080 C 0.34499 0.02412 0.26148 0.0
C2081 C 0.37828 0.92917 0.20788 0.0
C2082 C 0.38608 0.93841 0.19328 0.0
C2083 C 0.37939 0.94385 0.22294 0.0
C2084 C 0.38822 0.96825 0.22374 0.0
C2085 C 0.39604 0.9774 0.20909 0.0
C2086 C 0.39499 0.96265 0.19407 0.0
C2087 C 0.38868 0.98461 0.23964 0.0
C2088 C 0.374 0.99126 0.24759 0.0
C2089 C 0.40336 0.99419 0.24679 0.0
C2090 C 0.41936 0.98657 0.23979 0.0
C2091 C 0.43058 0.00671 0.23525 0.0
C2092 C 0.44561 0.99954 0.22849 0.0
C2093 C 0.44958 0.97227 0.22629 0.0
C2094 C 0.43856 0.9521 0.23091 0.0
C2095 C 0.42353 0.95916 0.23769 0.0
H2096 H 0.46121 0.96676 0.22104 0.0
H2097 H 0.31633 0.02572 0.29215 0.0
H2098 H 0.61875 0.04355 0.18591 0.0
H2099 H 0.61667 0.0178 0.21223 0.0
H2100 H 0.66003 0.05696 0.23042 0.0
H2101 H 0.66167 0.08327 0.20435 0.0
H2102 H 0.63455 0.98128 0.22531 0.0
H2103 H 0.66153 0.05867 0.27263 0.0
H2104 H 0.66236 0.10812 0.27702 0.0
H2105 H 0.61812 0.117 0.2492 0.0
H2106 H 0.6169 0.06759 0.24485 0.0
H2107 H 0.65999 0.91332 0.29985 0.0
H2108 H 0.65772 0.94046 0.27411 0.0
H2109 H 0.62078 0.98937 0.29749 0.0
H2110 H 0.62341 0.96257 0.32332 0.0
H2111 H 0.6404 0.02136 0.28206 0.0
H2112 H 0.61232 0.94119 0.26593 0.0
H2113 H 0.60821 0.89216 0.26184 0.0
H2114 H 0.64846 0.88972 0.22777 0.0
H2115 H 0.65298 0.93869 0.23185 0.0
C2116 C 0.62755 0.04708 0.19576 0.0
C2117 C 0.64015 0.06579 0.19331 0.0
C2118 C 0.62649 0.03216 0.21074 0.0
C2119 C 0.63809 0.03545 0.22356 0.0
C2120 C 0.65067 0.05435 0.22104 0.0
C2121 C 0.65162 0.06945 0.20614 0.0
C2122 C 0.63741 0.01843 0.2392 0.0
C2123 C 0.63581 0.99014 0.2377 0.0
C2124 C 0.63873 0.02972 0.25553 0.0
C2125 C 0.63922 0.05944 0.25828 0.0
C2126 C 0.65195 0.07116 0.26752 0.0
C2127 C 0.65249 0.09919 0.26999 0.0
C2128 C 0.64033 0.1157 0.26335 0.0
C2129 C 0.62756 0.1042 0.25429 0.0
C2130 C 0.62695 0.07619 0.2518 0.0
C2131 C 0.65121 0.92959 0.29932 0.0
C2132 C 0.64168 0.93561 0.31343 0.0
C2133 C 0.6499 0.94514 0.28461 0.0
C2134 C 0.63893 0.96696 0.28364 0.0
C2135 C 0.62933 0.97275 0.29779 0.0
C2136 C 0.63071 0.9573 0.31251 0.0
C2137 C 0.63782 0.98421 0.26813 0.0
C2138 C 0.63911 0.01252 0.26967 0.0
C2139 C 0.63579 0.973 0.25187 0.0
C2140 C 0.63308 0.94357 0.24932 0.0
C2141 C 0.62037 0.93017 0.25766 0.0
C2142 C 0.61796 0.90239 0.25533 0.0
C2143 C 0.62809 0.88782 0.24458 0.0
C2144 C 0.64063 0.90103 0.23611 0.0
C2145 C 0.64312 0.9288 0.23841 0.0
H2146 H 0.6262 0.86631 0.24279 0.0
H2147 H 0.64078 0.13739 0.26526 0.0
H2148 H 0.65549 0.0905 0.80117 0.0
H2149 H 0.6542 0.06508 0.77471 0.0
H2150 H 0.6224 0.00671 0.79797 0.0
H2151 H 0.62337 0.03261 0.82422 0.0
H2152 H 0.66428 0.01663 0.76726 0.0
H2153 H 0.59822 0.9766 0.76895 0.0
H2154 H 0.57134 0.99123 0.77897 0.0
H2155 H 0.58593 0.07451 0.77504 0.0
H2156 H 0.61281 0.0604 0.7648 0.0
H2157 H 0.65786 0.91044 0.70716 0.0
H2158 H 0.65579 0.9361 0.73357 0.0
H2159 H 0.62392 0.99333 0.7094 0.0
H2160 H 0.62572 0.96736 0.68328 0.0
H2161 H 0.61359 0.98542 0.73994 0.0
H2162 H 0.66504 0.00582 0.71524 0.0
H2163 H 0.69184 0.99529 0.70328 0.0
H2164 H 0.70647 0.95926 0.74995 0.0
H2165 H 0.67963 0.96919 0.76211 0.0
C2166 C 0.64782 0.07273 0.80042 0.0
C2167 C 0.63913 0.06396 0.81459 0.0
C2168 C 0.64726 0.05795 0.78537 0.0
C2169 C 0.63809 0.03396 0.78416 0.0
C2170 C 0.62931 0.02535 0.79834 0.0
C2171 C 0.62983 0.04019 0.81336 0.0
C2172 C 0.63821 0.01744 0.76834 0.0
C2173 C 0.65317 0.00982 0.76134 0.0
C2174 C 0.62378 0.0087 0.76032 0.0
C2175 C 0.60758 0.01741 0.76627 0.0
C2176 C 0.59567 0.99803 0.77016 0.0
C2177 C 0.58043 0.00624 0.77589 0.0
C2178 C 0.57695 0.03377 0.77769 0.0
C2179 C 0.58866 0.05318 0.77371 0.0
C2180 C 0.60391 0.04509 0.76796 0.0
C2181 C 0.65026 0.92829 0.70763 0.0
C2182 C 0.64198 0.93697 0.69321 0.0
C2183 C 0.64915 0.94309 0.72267 0.0
C2184 C 0.63988 0.96703 0.72352 0.0
C2185 C 0.63116 0.97505 0.70919 0.0
C2186 C 0.63221 0.96022 0.69423 0.0
C2187 C 0.63966 0.98431 0.73902 0.0
C2188 C 0.6247 0.99209 0.74594 0.0
C2189 C 0.65408 0.99374 0.74675 0.0
C2190 C 0.67028 0.98801 0.73953 0.0
C2191 C 0.67394 0.99549 0.72292 0.0
C2192 C 0.68914 0.98965 0.71611 0.0
C2193 C 0.70084 0.97656 0.72584 0.0
C2194 C 0.69738 0.96936 0.74242 0.0
C2195 C 0.68218 0.9751 0.74928 0.0
H2196 H 0.7126 0.97205 0.72054 0.0
H2197 H 0.56515 0.04008 0.78214 0.0
H2198 H 0.36677 0.91289 0.80119 0.0
H2199 H 0.36836 0.93811 0.77467 0.0
H2200 H 0.40016 0.99636 0.79806 0.0
H2201 H 0.39884 0.97071 0.82441 0.0
H2202 H 0.3586 0.98681 0.76693 0.0
H2203 H 0.42498 0.0254 0.76904 0.0
H2204 H 0.45165 0.01028 0.77941 0.0
H2205 H 0.43637 0.9273 0.77582 0.0
H2206 H 0.40971 0.9419 0.76522 0.0
H2207 H 0.36617 0.09457 0.70892 0.0
H2208 H 0.3686 0.06782 0.73477 0.0
H2209 H 0.3986 0.00999 0.70874 0.0
H2210 H 0.39644 0.03716 0.68299 0.0
H2211 H 0.40974 0.01686 0.74002 0.0
H2212 H 0.35838 0.99862 0.71476 0.0
H2213 H 0.33184 0.01032 0.70258 0.0
H2214 H 0.31705 0.04529 0.74948 0.0
H2215 H 0.34364 0.03423 0.76186 0.0
C2216 C 0.37447 0.93063 0.80048 0.0
C2217 C 0.38307 0.93942 0.81471 0.0
C2218 C 0.37521 0.94527 0.78538 0.0
C2219 C 0.38452 0.96912 0.78417 0.0
C2220 C 0.39316 0.97781 0.79843 0.0
C2221 C 0.39243 0.96313 0.81351 0.0
C2222 C 0.38465 0.98545 0.76826 0.0
C2223 C 0.36981 0.99336 0.7611 0.0
C2224 C 0.39922 0.99379 0.76034 0.0
C2225 C 0.41529 0.98479 0.76649 0.0
C2226 C 0.42734 0.00393 0.7704 0.0
C2227 C 0.44245 0.99545 0.77633 0.0
C2228 C 0.44568 0.96785 0.77832 0.0
C2229 C 0.43383 0.94867 0.77433 0.0
C2230 C 0.41871 0.95704 0.76838 0.0
C2231 C 0.37365 0.07655 0.70888 0.0
C2232 C 0.3814 0.06822 0.69405 0.0
C2233 C 0.37488 0.06106 0.7236 0.0
C2234 C 0.38367 0.03662 0.72376 0.0
C2235 C 0.3918 0.02874 0.70904 0.0
C2236 C 0.39058 0.04427 0.69433 0.0
C2237 C 0.3837 0.01865 0.73895 0.0
C2238 C 0.39855 0.0104 0.74593 0.0
C2239 C 0.36914 0.0095 0.74652 0.0
C2240 C 0.35306 0.0158 0.7392 0.0
C2241 C 0.34951 0.00895 0.72245 0.0
C2242 C 0.33446 0.01547 0.71551 0.0
C2243 C 0.32278 0.02858 0.72524 0.0
C2244 C 0.32612 0.03515 0.74195 0.0
C2245 C 0.34118 0.02876 0.74894 0.0
H2246 H 0.31113 0.03361 0.71984 0.0
H2247 H 0.45738 0.96133 0.78293 0.0
H2248 H 0.90588 0.44315 0.19382 0.0
H2249 H 0.90757 0.46901 0.22022 0.0
H2250 H 0.85636 0.45747 0.22798 0.0
H2251 H 0.85477 0.43102 0.20191 0.0
H2252 H 0.86726 0.51317 0.22975 0.0
H2253 H 0.88058 0.42497 0.25215 0.0
H2254 H 0.8964 0.38272 0.25366 0.0
H2255 H 0.93963 0.42843 0.26364 0.0
H2256 H 0.92409 0.47102 0.26193 0.0
H2257 H 0.85498 0.56594 0.31126 0.0
H2258 H 0.8562 0.53968 0.28526 0.0
H2259 H 0.90828 0.53579 0.28948 0.0
H2260 H 0.90687 0.56094 0.31609 0.0
H2261 H 0.89862 0.48892 0.28068 0.0
H2262 H 0.88708 0.57641 0.25907 0.0
H2263 H 0.87298 0.62018 0.25632 0.0
H2264 H 0.82899 0.57887 0.24308 0.0
H2265 H 0.84277 0.5348 0.24598 0.0
C2266 C 0.89509 0.44564 0.2014 0.0
C2267 C 0.88018 0.43519 0.19582 0.0
C2268 C 0.89604 0.46052 0.21642 0.0
C2269 C 0.88206 0.46543 0.22605 0.0
C2270 C 0.86728 0.45414 0.22075 0.0
C2271 C 0.8664 0.4389 0.20592 0.0
C2272 C 0.88262 0.48327 0.24122 0.0
C2273 C 0.87396 0.50774 0.24098 0.0
C2274 C 0.89188 0.47678 0.25562 0.0
C2275 C 0.9012 0.4512 0.25672 0.0
C2276 C 0.89348 0.42603 0.25451 0.0
C2277 C 0.9024 0.40202 0.25543 0.0
C2278 C 0.91902 0.40289 0.25869 0.0
C2279 C 0.92676 0.42779 0.26108 0.0
C2280 C 0.9179 0.45187 0.26015 0.0
C2281 C 0.86669 0.55968 0.30651 0.0
C2282 C 0.88082 0.56536 0.31571 0.0
C2283 C 0.86742 0.54476 0.29156 0.0
C2284 C 0.88237 0.5358 0.2851 0.0
C2285 C 0.89657 0.54227 0.29409 0.0
C2286 C 0.8958 0.55687 0.30922 0.0
C2287 C 0.88305 0.51891 0.2694 0.0
C2288 C 0.89196 0.49458 0.26948 0.0
C2289 C 0.87428 0.52582 0.25467 0.0
C2290 C 0.86593 0.55228 0.25289 0.0
C2291 C 0.87437 0.57664 0.25569 0.0
C2292 C 0.86644 0.60151 0.25408 0.0
C2293 C 0.85009 0.6023 0.24956 0.0
C2294 C 0.84165 0.57822 0.2466 0.0
C2295 C 0.84952 0.55329 0.2482 0.0
H2296 H 0.84397 0.62158 0.24832 0.0
H2297 H 0.9259 0.38428 0.25941 0.0
H2298 H 0.12655 0.47274 0.32864 0.0
H2299 H 0.12456 0.4997 0.30289 0.0
H2300 H 0.15249 0.43947 0.27644 0.0
H2301 H 0.15513 0.41328 0.30245 0.0
H2302 H 0.16326 0.48573 0.26782 0.0
H2303 H 0.10965 0.44938 0.27083 0.0
H2304 H 0.08329 0.43893 0.28388 0.0
H2305 H 0.07365 0.52388 0.28964 0.0
H2306 H 0.10006 0.53484 0.27682 0.0
H2307 H 0.12189 0.54276 0.18788 0.0
H2308 H 0.12003 0.51615 0.21387 0.0
H2309 H 0.15486 0.56925 0.23731 0.0
H2310 H 0.15674 0.59573 0.21123 0.0
H2311 H 0.11192 0.52472 0.24633 0.0
H2312 H 0.18057 0.53054 0.26123 0.0
H2313 H 0.20639 0.53691 0.24612 0.0
H2314 H 0.18492 0.50522 0.2011 0.0
H2315 H 0.15909 0.49825 0.21599 0.0
C2316 C 0.13199 0.46506 0.31722 0.0
C2317 C 0.14057 0.44048 0.31745 0.0
C2318 C 0.13083 0.48046 0.30246 0.0
C2319 C 0.13813 0.47157 0.28746 0.0
C2320 C 0.14664 0.44686 0.28771 0.0
C2321 C 0.14794 0.43161 0.30253 0.0
C2322 C 0.13748 0.48849 0.27177 0.0
C2323 C 0.15199 0.49421 0.2632 0.0
C2324 C 0.12282 0.49944 0.26538 0.0
C2325 C 0.10689 0.49292 0.273 0.0
C2326 C 0.10195 0.46583 0.27498 0.0
C2327 C 0.087 0.45981 0.28232 0.0
C2328 C 0.07682 0.48072 0.28762 0.0
C2329 C 0.08156 0.5077 0.28555 0.0
C2330 C 0.09651 0.51383 0.27823 0.0
C2331 C 0.12884 0.54905 0.19875 0.0
C2332 C 0.13932 0.57144 0.19766 0.0
C2333 C 0.1278 0.53383 0.21359 0.0
C2334 C 0.13742 0.54042 0.22759 0.0
C2335 C 0.14743 0.56351 0.22668 0.0
C2336 C 0.1484 0.5788 0.21185 0.0
C2337 C 0.1377 0.52227 0.24268 0.0
C2338 C 0.12316 0.51631 0.25108 0.0
C2339 C 0.15226 0.51054 0.24869 0.0
C2340 C 0.16785 0.51417 0.2397 0.0
C2341 C 0.18139 0.52482 0.24813 0.0
C2342 C 0.19602 0.52854 0.2396 0.0
C2343 C 0.19728 0.52156 0.22265 0.0
C2344 C 0.18392 0.51071 0.21421 0.0
C2345 C 0.16928 0.50689 0.22269 0.0
H2346 H 0.20861 0.5245 0.21606 0.0
H2347 H 0.06525 0.47602 0.29331 0.0
H2348 H 0.11943 0.53875 0.82748 0.0
H2349 H 0.11726 0.51171 0.80167 0.0
H2350 H 0.15017 0.56651 0.77682 0.0
H2351 H 0.15245 0.59327 0.80271 0.0
H2352 H 0.1078 0.51964 0.76955 0.0
H2353 H 0.17555 0.52952 0.75176 0.0
H2354 H 0.20178 0.53787 0.76571 0.0
H2355 H 0.18301 0.50522 0.81173 0.0
H2356 H 0.15678 0.49626 0.798 0.0
H2357 H 0.12139 0.47154 0.68622 0.0
H2358 H 0.11966 0.49736 0.71244 0.0
H2359 H 0.14791 0.43605 0.73758 0.0
H2360 H 0.14994 0.4106 0.71114 0.0
H2361 H 0.15905 0.48363 0.74598 0.0
H2362 H 0.10618 0.44446 0.74456 0.0
H2363 H 0.07966 0.43276 0.73227 0.0
H2364 H 0.06809 0.5172 0.72761 0.0
H2365 H 0.09465 0.52942 0.73966 0.0
C2366 C 0.12587 0.54531 0.81635 0.0
C2367 C 0.13586 0.56836 0.81697 0.0
C2368 C 0.12467 0.52984 0.80162 0.0
C2369 C 0.13365 0.53684 0.78725 0.0
C2370 C 0.14321 0.56048 0.78772 0.0
C2371 C 0.14438 0.57597 0.80245 0.0
C2372 C 0.13374 0.51863 0.77219 0.0
C2373 C 0.11901 0.51187 0.76436 0.0
C2374 C 0.1483 0.50777 0.76559 0.0
C2375 C 0.16415 0.51249 0.77387 0.0
C2376 C 0.17706 0.524 0.76483 0.0
C2377 C 0.19192 0.52885 0.77271 0.0
C2378 C 0.19405 0.52216 0.78961 0.0
C2379 C 0.18134 0.51047 0.79865 0.0
C2380 C 0.16647 0.50552 0.79083 0.0
C2381 C 0.12696 0.46339 0.69745 0.0
C2382 C 0.13557 0.43887 0.69673 0.0
C2383 C 0.12598 0.47814 0.71246 0.0
C2384 C 0.13351 0.46866 0.72718 0.0
C2385 C 0.14195 0.44389 0.72649 0.0
C2386 C 0.14298 0.42918 0.71143 0.0
C2387 C 0.13312 0.48506 0.74305 0.0
C2388 C 0.14781 0.49146 0.75108 0.0
C2389 C 0.11849 0.49512 0.75002 0.0
C2390 C 0.10246 0.48785 0.74289 0.0
C2391 C 0.09803 0.46053 0.74081 0.0
C2392 C 0.08298 0.45381 0.7339 0.0
C2393 C 0.07222 0.47422 0.72912 0.0
C2394 C 0.07645 0.50141 0.7313 0.0
C2395 C 0.09149 0.50825 0.73819 0.0
H2396 H 0.06058 0.46897 0.72377 0.0
H2397 H 0.20555 0.52599 0.79569 0.0
H2398 H 0.90416 0.56772 0.69274 0.0
H2399 H 0.90749 0.54327 0.71937 0.0
H2400 H 0.8555 0.53856 0.7245 0.0
H2401 H 0.85234 0.56499 0.6988 0.0
H2402 H 0.86593 0.54409 0.75318 0.0
H2403 H 0.88336 0.48378 0.70884 0.0
H2404 H 0.90009 0.4703 0.68459 0.0
H2405 H 0.94312 0.47761 0.71455 0.0
H2406 H 0.92667 0.49152 0.73892 0.0
H2407 H 0.85801 0.42979 0.80591 0.0
H2408 H 0.85958 0.45638 0.77992 0.0
H2409 H 0.90918 0.47693 0.79113 0.0
H2410 H 0.90748 0.45063 0.8174 0.0
H2411 H 0.90238 0.46435 0.75545 0.0
H2412 H 0.88362 0.52167 0.80029 0.0
H2413 H 0.866 0.53276 0.8243 0.0
H2414 H 0.82412 0.52826 0.79243 0.0
H2415 H 0.84149 0.5167 0.76827 0.0
C2416 C 0.89349 0.56166 0.69971 0.0
C2417 C 0.87798 0.5675 0.69342 0.0
C2418 C 0.89537 0.54733 0.71486 0.0
C2419 C 0.88176 0.53791 0.72386 0.0
C2420 C 0.86628 0.54508 0.7179 0.0
C2421 C 0.86444 0.56002 0.70306 0.0
C2422 C 0.8834 0.52052 0.73933 0.0
C2423 C 0.8738 0.52652 0.75346 0.0
C2424 C 0.89393 0.49776 0.7402 0.0
C2425 C 0.9038 0.48895 0.72565 0.0
C2426 C 0.8964 0.48263 0.71023 0.0
C2427 C 0.90583 0.47493 0.69646 0.0
C2428 C 0.92266 0.47321 0.69801 0.0
C2429 C 0.93009 0.47905 0.71335 0.0
C2430 C 0.92072 0.48682 0.72715 0.0
C2431 C 0.86932 0.43964 0.80267 0.0
C2432 C 0.88259 0.43835 0.81368 0.0
C2433 C 0.8702 0.45488 0.78785 0.0
C2434 C 0.88445 0.46892 0.78359 0.0
C2435 C 0.89806 0.46632 0.79411 0.0
C2436 C 0.8971 0.4513 0.8091 0.0
C2437 C 0.88463 0.48772 0.76884 0.0
C2438 C 0.89458 0.482 0.755 0.0
C2439 C 0.87427 0.51051 0.76809 0.0
C2440 C 0.86384 0.51811 0.7825 0.0
C2441 C 0.87065 0.5229 0.79842 0.0
C2442 C 0.86071 0.5293 0.81206 0.0
C2443 C 0.84395 0.53116 0.8099 0.0
C2444 C 0.83711 0.52677 0.79409 0.0
C2445 C 0.84699 0.52033 0.78041 0.0
H2446 H 0.83627 0.53606 0.82048 0.0
H2447 H 0.92995 0.46729 0.68733 0.0
loop_
_geom_bond_atom_site_label_1
_geom_bond_atom_site_label_2
_geom_bond_distance
_geom_bond_site_symmetry_2
_ccdc_geom_bond_type
C0 C1 1.443 . S
C0 N4 1.376 . S
C0 C38 1.389 . S
C1 C0 1.443 . S
C1 C2 1.340 . S
C1 H41 0.951 . S
C2 C1 1.340 . S
C2 C3 1.439 . S
C2 H42 0.950 . S
C3 C2 1.439 . S
C3 N4 1.374 . S
C3 C37 1.395 . S
N4 C0 1.376 . S
N4 C3 1.374 . S
N4 Co5 2.008 . S
Co5 N4 2.008 . S
Co5 N6 1.995 . S
Co5 N11 2.008 . S
Co5 N16 1.995 . S
Co5 N21 2.282 . S
Co5 N27 2.282 . S
N6 Co5 1.995 . S
N6 C7 1.376 . S
N6 C10 1.383 . S
C7 N6 1.376 . S
C7 C8 1.446 . S
C7 C37 1.391 . S
C8 C7 1.446 . S
C8 C9 1.339 . S
C8 H43 0.949 . S
C9 C8 1.339 . S
C9 C10 1.439 . S
C9 H44 0.950 . S
C10 N6 1.383 . S
C10 C9 1.439 . S
C10 C39 1.392 . S
N11 Co5 2.008 . S
N11 C12 1.376 . S
N11 C15 1.374 . S
C12 N11 1.376 . S
C12 C13 1.443 . S
C12 C39 1.389 . S
C13 C12 1.443 . S
C13 C14 1.340 . S
C13 H45 0.951 . S
C14 C13 1.340 . S
C14 C15 1.439 . S
C14 H46 0.950 . S
C15 N11 1.374 . S
C15 C14 1.439 . S
C15 C40 1.395 . S
N16 Co5 1.995 . S
N16 C17 1.376 . S
N16 C20 1.383 . S
C17 N16 1.376 . S
C17 C18 1.446 . S
C17 C40 1.391 . S
C18 C17 1.446 . S
C18 C19 1.339 . S
C18 H47 0.949 . S
C19 C18 1.339 . S
C19 C20 1.439 . S
C19 H48 0.950 . S
C20 N16 1.383 . S
C20 C19 1.439 . S
C20 C38 1.392 . S
N21 Co5 2.282 . S
N21 C24 1.332 . S
N21 C26 1.332 . S
C22 C23 1.386 . S
C22 C25 1.388 . S
C23 C22 1.386 . S
C23 C24 1.382 . S
C23 H49 0.950 . S
C24 N21 1.332 . S
C24 C23 1.382 . S
C24 H35 0.952 . S
C25 C22 1.388 . S
C25 C26 1.382 . S
C25 H50 0.950 . S
C26 N21 1.332 . S
C26 C25 1.382 . S
C26 H36 0.948 . S
N27 Co5 2.282 . S
N27 C31 1.332 . S
N27 C32 1.332 . S
C28 C29 1.388 . S
C28 C32 1.382 . S
C28 H51 0.950 . S
C29 C28 1.388 . S
C29 C30 1.386 . S
C30 C29 1.386 . S
C30 C31 1.382 . S
C30 H52 0.950 . S
C31 N27 1.332 . S
C31 C30 1.382 . S
C31 H33 0.952 . S
C32 N27 1.332 . S
C32 C28 1.382 . S
C32 H34 0.948 . S
H33 C31 0.952 . S
H34 C32 0.948 . S
H35 C24 0.952 . S
H36 C26 0.948 . S
C37 C3 1.395 . S
C37 C7 1.391 . S
C38 C0 1.389 . S
C38 C20 1.392 . S
C39 C10 1.392 . S
C39 C12 1.389 . S
C40 C15 1.395 . S
C40 C17 1.391 . S
H41 C1 0.951 . S
H42 C2 0.950 . S
H43 C8 0.949 . S
H44 C9 0.950 . S
H45 C13 0.951 . S
H46 C14 0.950 . S
H47 C18 0.949 . S
H48 C19 0.950 . S
H49 C23 0.950 . S
H50 C25 0.950 . S
H51 C28 0.950 . S
H52 C30 0.950 . S
C53 C54 1.443 . S
C53 N57 1.376 . S
C53 C91 1.389 . S
C54 C53 1.443 . S
C54 C55 1.340 . S
C54 H94 0.951 . S
C55 C54 1.340 . S
C55 C56 1.439 . S
C55 H95 0.950 . S
C56 C55 1.439 . S
C56 N57 1.374 . S
C56 C90 1.395 . S
N57 C53 1.376 . S
N57 C56 1.374 . S
N57 Co58 2.008 . S
Co58 N57 2.008 . S
Co58 N59 1.995 . S
Co58 N64 2.008 . S
Co58 N69 1.995 . S
Co58 N74 2.282 . S
Co58 N80 2.282 . S
N59 Co58 1.995 . S
N59 C60 1.376 . S
N59 C63 1.383 . S
C60 N59 1.376 . S
C60 C61 1.446 . S
C60 C90 1.391 . S
C61 C60 1.446 . S
C61 C62 1.339 . S
C61 H96 0.949 . S
C62 C61 1.339 . S
C62 C63 1.439 . S
C62 H97 0.950 . S
C63 N59 1.383 . S
C63 C62 1.439 . S
C63 C92 1.392 . S
N64 Co58 2.008 . S
N64 C65 1.376 . S
N64 C68 1.374 . S
C65 N64 1.376 . S
C65 C66 1.443 . S
C65 C92 1.389 . S
C66 C65 1.443 . S
C66 C67 1.340 . S
C66 H98 0.951 . S
C67 C66 1.340 . S
C67 C68 1.439 . S
C67 H99 0.950 . S
C68 N64 1.374 . S
C68 C67 1.439 . S
C68 C93 1.395 . S
N69 Co58 1.995 . S
N69 C70 1.376 . S
N69 C73 1.383 . S
C70 N69 1.376 . S
C70 C71 1.446 . S
C70 C93 1.391 . S
C71 C70 1.446 . S
C71 C72 1.339 . S
C71 H100 0.949 . S
C72 C71 1.339 . S
C72 C73 1.439 . S
C72 H101 0.950 . S
C73 N69 1.383 . S
C73 C72 1.439 . S
C73 C91 1.392 . S
N74 Co58 2.282 . S
N74 C77 1.332 . S
N74 C79 1.332 . S
C75 C76 1.386 . S
C75 C78 1.388 . S
C76 C75 1.386 . S
C76 C77 1.382 . S
C76 H102 0.950 . S
C77 N74 1.332 . S
C77 C76 1.382 . S
C77 H88 0.952 . S
C78 C75 1.388 . S
C78 C79 1.382 . S
C78 H103 0.950 . S
C79 N74 1.332 . S
C79 C78 1.382 . S
C79 H89 0.948 . S
N80 Co58 2.282 . S
N80 C84 1.332 . S
N80 C85 1.332 . S
C81 C82 1.388 . S
C81 C85 1.382 . S
C81 H104 0.950 . S
C82 C81 1.388 . S
C82 C83 1.386 . S
C83 C82 1.386 . S
C83 C84 1.382 . S
C83 H105 0.950 . S
C84 N80 1.332 . S
C84 C83 1.382 . S
C84 H86 0.952 . S
C85 N80 1.332 . S
C85 C81 1.382 . S
C85 H87 0.948 . S
H86 C84 0.952 . S
H87 C85 0.948 . S
H88 C77 0.952 . S
H89 C79 0.948 . S
C90 C56 1.395 . S
C90 C60 1.391 . S
C91 C53 1.389 . S
C91 C73 1.392 . S
C92 C63 1.392 . S
C92 C65 1.389 . S
C93 C68 1.395 . S
C93 C70 1.391 . S
H94 C54 0.951 . S
H95 C55 0.950 . S
H96 C61 0.949 . S
H97 C62 0.950 . S
H98 C66 0.951 . S
H99 C67 0.950 . S
H100 C71 0.949 . S
H101 C72 0.950 . S
H102 C76 0.950 . S
H103 C78 0.950 . S
H104 C81 0.950 . S
H105 C83 0.950 . S
C106 C107 1.443 . S
C106 N110 1.376 . S
C106 C144 1.389 . S
C107 C106 1.443 . S
C107 C108 1.340 . S
C107 H147 0.951 . S
C108 C107 1.340 . S
C108 C109 1.439 . S
C108 H148 0.950 . S
C109 C108 1.439 . S
C109 N110 1.374 . S
C109 C143 1.395 . S
N110 C106 1.376 . S
N110 C109 1.374 . S
N110 Co111 2.008 . S
Co111 N110 2.008 . S
Co111 N112 1.995 . S
Co111 N117 2.008 . S
Co111 N122 1.995 . S
Co111 N127 2.282 . S
Co111 N133 2.282 . S
N112 Co111 1.995 . S
N112 C113 1.376 . S
N112 C116 1.383 . S
C113 N112 1.376 . S
C113 C114 1.446 . S
C113 C143 1.391 . S
C114 C113 1.446 . S
C114 C115 1.339 . S
C114 H149 0.949 . S
C115 C114 1.339 . S
C115 C116 1.439 . S
C115 H150 0.950 . S
C116 N112 1.383 . S
C116 C115 1.439 . S
C116 C145 1.392 . S
N117 Co111 2.008 . S
N117 C118 1.376 . S
N117 C121 1.374 . S
C118 N117 1.376 . S
C118 C119 1.443 . S
C118 C145 1.389 . S
C119 C118 1.443 . S
C119 C120 1.340 . S
C119 H151 0.951 . S
C120 C119 1.340 . S
C120 C121 1.439 . S
C120 H152 0.950 . S
C121 N117 1.374 . S
C121 C120 1.439 . S
C121 C146 1.395 . S
N122 Co111 1.995 . S
N122 C123 1.376 . S
N122 C126 1.383 . S
C123 N122 1.376 . S
C123 C124 1.446 . S
C123 C146 1.391 . S
C124 C123 1.446 . S
C124 C125 1.339 . S
C124 H153 0.949 . S
C125 C124 1.339 . S
C125 C126 1.439 . S
C125 H154 0.950 . S
C126 N122 1.383 . S
C126 C125 1.439 . S
C126 C144 1.392 . S
N127 Co111 2.282 . S
N127 C130 1.332 . S
N127 C132 1.332 . S
C128 C129 1.386 . S
C128 C131 1.388 . S
C129 C128 1.386 . S
C129 C130 1.382 . S
C129 H155 0.950 . S
C130 N127 1.332 . S
C130 C129 1.382 . S
C130 H141 0.952 . S
C131 C128 1.388 . S
C131 C132 1.382 . S
C131 H156 0.950 . S
C132 N127 1.332 . S
C132 C131 1.382 . S
C132 H142 0.948 . S
N133 Co111 2.282 . S
N133 C137 1.332 . S
N133 C138 1.332 . S
C134 C135 1.388 . S
C134 C138 1.382 . S
C134 H157 0.950 . S
C135 C134 1.388 . S
C135 C136 1.386 . S
C136 C135 1.386 . S
C136 C137 1.382 . S
C136 H158 0.950 . S
C137 N133 1.332 . S
C137 C136 1.382 . S
C137 H139 0.952 . S
C138 N133 1.332 . S
C138 C134 1.382 . S
C138 H140 0.948 . S
H139 C137 0.952 . S
H140 C138 0.948 . S
H141 C130 0.952 . S
H142 C132 0.948 . S
C143 C109 1.395 . S
C143 C113 1.391 . S
C144 C106 1.389 . S
C144 C126 1.392 . S
C145 C116 1.392 . S
C145 C118 1.389 . S
C146 C121 1.395 . S
C146 C123 1.391 . S
H147 C107 0.951 . S
H148 C108 0.950 . S
H149 C114 0.949 . S
H150 C115 0.950 . S
H151 C119 0.951 . S
H152 C120 0.950 . S
H153 C124 0.949 . S
H154 C125 0.950 . S
H155 C129 0.950 . S
H156 C131 0.950 . S
H157 C134 0.950 . S
H158 C136 0.950 . S
C159 C160 1.443 . S
C159 N163 1.376 . S
C159 C197 1.389 . S
C160 C159 1.443 . S
C160 C161 1.340 . S
C160 H200 0.951 . S
C161 C160 1.340 . S
C161 C162 1.439 . S
C161 H201 0.950 . S
C162 C161 1.439 . S
C162 N163 1.374 . S
C162 C196 1.395 . S
N163 C159 1.376 . S
N163 C162 1.374 . S
N163 Co164 2.008 . S
Co164 N163 2.008 . S
Co164 N165 1.995 . S
Co164 N170 2.008 . S
Co164 N175 1.995 . S
Co164 N180 2.282 . S
Co164 N186 2.282 . S
N165 Co164 1.995 . S
N165 C166 1.376 . S
N165 C169 1.383 . S
C166 N165 1.376 . S
C166 C167 1.446 . S
C166 C196 1.391 . S
C167 C166 1.446 . S
C167 C168 1.339 . S
C167 H202 0.949 . S
C168 C167 1.339 . S
C168 C169 1.439 . S
C168 H203 0.950 . S
C169 N165 1.383 . S
C169 C168 1.439 . S
C169 C198 1.392 . S
N170 Co164 2.008 . S
N170 C171 1.376 . S
N170 C174 1.374 . S
C171 N170 1.376 . S
C171 C172 1.443 . S
C171 C198 1.389 . S
C172 C171 1.443 . S
C172 C173 1.340 . S
C172 H204 0.951 . S
C173 C172 1.340 . S
C173 C174 1.439 . S
C173 H205 0.950 . S
C174 N170 1.374 . S
C174 C173 1.439 . S
C174 C199 1.395 . S
N175 Co164 1.995 . S
N175 C176 1.376 . S
N175 C179 1.383 . S
C176 N175 1.376 . S
C176 C177 1.446 . S
C176 C199 1.391 . S
C177 C176 1.446 . S
C177 C178 1.339 . S
C177 H206 0.949 . S
C178 C177 1.339 . S
C178 C179 1.439 . S
C178 H207 0.950 . S
C179 N175 1.383 . S
C179 C178 1.439 . S
C179 C197 1.392 . S
N180 Co164 2.282 . S
N180 C183 1.332 . S
N180 C185 1.332 . S
C181 C182 1.386 . S
C181 C184 1.388 . S
C182 C181 1.386 . S
C182 C183 1.382 . S
C182 H208 0.950 . S
C183 N180 1.332 . S
C183 C182 1.382 . S
C183 H194 0.952 . S
C184 C181 1.388 . S
C184 C185 1.382 . S
C184 H209 0.950 . S
C185 N180 1.332 . S
C185 C184 1.382 . S
C185 H195 0.948 . S
N186 Co164 2.282 . S
N186 C190 1.332 . S
N186 C191 1.332 . S
C187 C188 1.388 . S
C187 C191 1.382 . S
C187 H210 0.950 . S
C188 C187 1.388 . S
C188 C189 1.386 . S
C189 C188 1.386 . S
C189 C190 1.382 . S
C189 H211 0.950 . S
C190 N186 1.332 . S
C190 C189 1.382 . S
C190 H192 0.952 . S
C191 N186 1.332 . S
C191 C187 1.382 . S
C191 H193 0.948 . S
H192 C190 0.952 . S
H193 C191 0.948 . S
H194 C183 0.952 . S
H195 C185 0.948 . S
C196 C162 1.395 . S
C196 C166 1.391 . S
C197 C159 1.389 . S
C197 C179 1.392 . S
C198 C169 1.392 . S
C198 C171 1.389 . S
C199 C174 1.395 . S
C199 C176 1.391 . S
H200 C160 0.951 . S
H201 C161 0.950 . S
H202 C167 0.949 . S
H203 C168 0.950 . S
H204 C172 0.951 . S
H205 C173 0.950 . S
H206 C177 0.949 . S
H207 C178 0.950 . S
H208 C182 0.950 . S
H209 C184 0.950 . S
H210 C187 0.950 . S
H211 C189 0.950 . S
C212 C213 1.443 . S
C212 N216 1.376 . S
C212 C250 1.389 . S
C213 C212 1.443 . S
C213 C214 1.340 . S
C213 H253 0.951 . S
C214 C213 1.340 . S
C214 C215 1.439 . S
C214 H254 0.950 . S
C215 C214 1.439 . S
C215 N216 1.374 . S
C215 C249 1.395 . S
N216 C212 1.376 . S
N216 C215 1.374 . S
N216 Co217 2.008 . S
Co217 N216 2.008 . S
Co217 N218 1.995 . S
Co217 N223 2.008 . S
Co217 N228 1.995 . S
Co217 N233 2.282 . S
Co217 N239 2.282 . S
N218 Co217 1.995 . S
N218 C219 1.376 . S
N218 C222 1.383 . S
C219 N218 1.376 . S
C219 C220 1.446 . S
C219 C249 1.391 . S
C220 C219 1.446 . S
C220 C221 1.339 . S
C220 H255 0.949 . S
C221 C220 1.339 . S
C221 C222 1.439 . S
C221 H256 0.950 . S
C222 N218 1.383 . S
C222 C221 1.439 . S
C222 C251 1.392 . S
N223 Co217 2.008 . S
N223 C224 1.376 . S
N223 C227 1.374 . S
C224 N223 1.376 . S
C224 C225 1.443 . S
C224 C251 1.389 . S
C225 C224 1.443 . S
C225 C226 1.340 . S
C225 H257 0.951 . S
C226 C225 1.340 . S
C226 C227 1.439 . S
C226 H258 0.950 . S
C227 N223 1.374 . S
C227 C226 1.439 . S
C227 C252 1.395 . S
N228 Co217 1.995 . S
N228 C229 1.376 . S
N228 C232 1.383 . S
C229 N228 1.376 . S
C229 C230 1.446 . S
C229 C252 1.391 . S
C230 C229 1.446 . S
C230 C231 1.339 . S
C230 H259 0.949 . S
C231 C230 1.339 . S
C231 C232 1.439 . S
C231 H260 0.950 . S
C232 N228 1.383 . S
C232 C231 1.439 . S
C232 C250 1.392 . S
N233 Co217 2.282 . S
N233 C236 1.332 . S
N233 C238 1.332 . S
C234 C235 1.386 . S
C234 C237 1.388 . S
C235 C234 1.386 . S
C235 C236 1.382 . S
C235 H261 0.950 . S
C236 N233 1.332 . S
C236 C235 1.382 . S
C236 H247 0.952 . S
C237 C234 1.388 . S
C237 C238 1.382 . S
C237 H262 0.950 . S
C238 N233 1.332 . S
C238 C237 1.382 . S
C238 H248 0.948 . S
N239 Co217 2.282 . S
N239 C243 1.332 . S
N239 C244 1.332 . S
C240 C241 1.388 . S
C240 C244 1.382 . S
C240 H263 0.950 . S
C241 C240 1.388 . S
C241 C242 1.386 . S
C242 C241 1.386 . S
C242 C243 1.382 . S
C242 H264 0.950 . S
C243 N239 1.332 . S
C243 C242 1.382 . S
C243 H245 0.952 . S
C244 N239 1.332 . S
C244 C240 1.382 . S
C244 H246 0.948 . S
H245 C243 0.952 . S
H246 C244 0.948 . S
H247 C236 0.952 . S
H248 C238 0.948 . S
C249 C215 1.395 . S
C249 C219 1.391 . S
C250 C212 1.389 . S
C250 C232 1.392 . S
C251 C222 1.392 . S
C251 C224 1.389 . S
C252 C227 1.395 . S
C252 C229 1.391 . S
H253 C213 0.951 . S
H254 C214 0.950 . S
H255 C220 0.949 . S
H256 C221 0.950 . S
H257 C225 0.951 . S
H258 C226 0.950 . S
H259 C230 0.949 . S
H260 C231 0.950 . S
H261 C235 0.950 . S
H262 C237 0.950 . S
H263 C240 0.950 . S
H264 C242 0.950 . S
C265 C266 1.443 . S
C265 N269 1.376 . S
C265 C303 1.389 . S
C266 C265 1.443 . S
C266 C267 1.340 . S
C266 H306 0.951 . S
C267 C266 1.340 . S
C267 C268 1.439 . S
C267 H307 0.950 . S
C268 C267 1.439 . S
C268 N269 1.374 . S
C268 C302 1.395 . S
N269 C265 1.376 . S
N269 C268 1.374 . S
N269 Co270 2.008 . S
Co270 N269 2.008 . S
Co270 N271 1.995 . S
Co270 N276 2.008 . S
Co270 N281 1.995 . S
Co270 N286 2.282 . S
Co270 N292 2.282 . S
N271 Co270 1.995 . S
N271 C272 1.376 . S
N271 C275 1.383 . S
C272 N271 1.376 . S
C272 C273 1.446 . S
C272 C302 1.391 . S
C273 C272 1.446 . S
C273 C274 1.339 . S
C273 H308 0.949 . S
C274 C273 1.339 . S
C274 C275 1.439 . S
C274 H309 0.950 . S
C275 N271 1.383 . S
C275 C274 1.439 . S
C275 C304 1.392 . S
N276 Co270 2.008 . S
N276 C277 1.376 . S
N276 C280 1.374 . S
C277 N276 1.376 . S
C277 C278 1.443 . S
C277 C304 1.389 . S
C278 C277 1.443 . S
C278 C279 1.340 . S
C278 H310 0.951 . S
C279 C278 1.340 . S
C279 C280 1.439 . S
C279 H311 0.950 . S
C280 N276 1.374 . S
C280 C279 1.439 . S
C280 C305 1.395 . S
N281 Co270 1.995 . S
N281 C282 1.376 . S
N281 C285 1.383 . S
C282 N281 1.376 . S
C282 C283 1.446 . S
C282 C305 1.391 . S
C283 C282 1.446 . S
C283 C284 1.339 . S
C283 H312 0.949 . S
C284 C283 1.339 . S
C284 C285 1.439 . S
C284 H313 0.950 . S
C285 N281 1.383 . S
C285 C284 1.439 . S
C285 C303 1.392 . S
N286 Co270 2.282 . S
N286 C289 1.332 . S
N286 C291 1.332 . S
C287 C288 1.386 . S
C287 C290 1.388 . S
C288 C287 1.386 . S
C288 C289 1.382 . S
C288 H314 0.950 . S
C289 N286 1.332 . S
C289 C288 1.382 . S
C289 H300 0.952 . S
C290 C287 1.388 . S
C290 C291 1.382 . S
C290 H315 0.950 . S
C291 N286 1.332 . S
C291 C290 1.382 . S
C291 H301 0.948 . S
N292 Co270 2.282 . S
N292 C296 1.332 . S
N292 C297 1.332 . S
C293 C294 1.388 . S
C293 C297 1.382 . S
C293 H316 0.950 . S
C294 C293 1.388 . S
C294 C295 1.386 . S
C295 C294 1.386 . S
C295 C296 1.382 . S
C295 H317 0.950 . S
C296 N292 1.332 . S
C296 C295 1.382 . S
C296 H298 0.952 . S
C297 N292 1.332 . S
C297 C293 1.382 . S
C297 H299 0.948 . S
H298 C296 0.952 . S
H299 C297 0.948 . S
H300 C289 0.952 . S
H301 C291 0.948 . S
C302 C268 1.395 . S
C302 C272 1.391 . S
C303 C265 1.389 . S
C303 C285 1.392 . S
C304 C275 1.392 . S
C304 C277 1.389 . S
C305 C280 1.395 . S
C305 C282 1.391 . S
H306 C266 0.951 . S
H307 C267 0.950 . S
H308 C273 0.949 . S
H309 C274 0.950 . S
H310 C278 0.951 . S
H311 C279 0.950 . S
H312 C283 0.949 . S
H313 C284 0.950 . S
H314 C288 0.950 . S
H315 C290 0.950 . S
H316 C293 0.950 . S
H317 C295 0.950 . S
C318 C319 1.443 . S
C318 N322 1.376 . S
C318 C356 1.389 . S
C319 C318 1.443 . S
C319 C320 1.340 . S
C319 H359 0.951 . S
C320 C319 1.340 . S
C320 C321 1.439 . S
C320 H360 0.950 . S
C321 C320 1.439 . S
C321 N322 1.374 . S
C321 C355 1.395 . S
N322 C318 1.376 . S
N322 C321 1.374 . S
N322 Co323 2.008 . S
Co323 N322 2.008 . S
Co323 N324 1.995 . S
Co323 N329 2.008 . S
Co323 N334 1.995 . S
Co323 N339 2.282 . S
Co323 N345 2.282 . S
N324 Co323 1.995 . S
N324 C325 1.376 . S
N324 C328 1.383 . S
C325 N324 1.376 . S
C325 C326 1.446 . S
C325 C355 1.391 . S
C326 C325 1.446 . S
C326 C327 1.339 . S
C326 H361 0.949 . S
C327 C326 1.339 . S
C327 C328 1.439 . S
C327 H362 0.950 . S
C328 N324 1.383 . S
C328 C327 1.439 . S
C328 C357 1.392 . S
N329 Co323 2.008 . S
N329 C330 1.376 . S
N329 C333 1.374 . S
C330 N329 1.376 . S
C330 C331 1.443 . S
C330 C357 1.389 . S
C331 C330 1.443 . S
C331 C332 1.340 . S
C331 H363 0.951 . S
C332 C331 1.340 . S
C332 C333 1.439 . S
C332 H364 0.950 . S
C333 N329 1.374 . S
C333 C332 1.439 . S
C333 C358 1.395 . S
N334 Co323 1.995 . S
N334 C335 1.376 . S
N334 C338 1.383 . S
C335 N334 1.376 . S
C335 C336 1.446 . S
C335 C358 1.391 . S
C336 C335 1.446 . S
C336 C337 1.339 . S
C336 H365 0.949 . S
C337 C336 1.339 . S
C337 C338 1.439 . S
C337 H366 0.950 . S
C338 N334 1.383 . S
C338 C337 1.439 . S
C338 C356 1.392 . S
N339 Co323 2.282 . S
N339 C342 1.332 . S
N339 C344 1.332 . S
C340 C341 1.386 . S
C340 C343 1.388 . S
C341 C340 1.386 . S
C341 C342 1.382 . S
C341 H367 0.950 . S
C342 N339 1.332 . S
C342 C341 1.382 . S
C342 H353 0.952 . S
C343 C340 1.388 . S
C343 C344 1.382 . S
C343 H368 0.950 . S
C344 N339 1.332 . S
C344 C343 1.382 . S
C344 H354 0.948 . S
N345 Co323 2.282 . S
N345 C349 1.332 . S
N345 C350 1.332 . S
C346 C347 1.388 . S
C346 C350 1.382 . S
C346 H369 0.950 . S
C347 C346 1.388 . S
C347 C348 1.386 . S
C348 C347 1.386 . S
C348 C349 1.382 . S
C348 H370 0.950 . S
C349 N345 1.332 . S
C349 C348 1.382 . S
C349 H351 0.952 . S
C350 N345 1.332 . S
C350 C346 1.382 . S
C350 H352 0.948 . S
H351 C349 0.952 . S
H352 C350 0.948 . S
H353 C342 0.952 . S
H354 C344 0.948 . S
C355 C321 1.395 . S
C355 C325 1.391 . S
C356 C318 1.389 . S
C356 C338 1.392 . S
C357 C328 1.392 . S
C357 C330 1.389 . S
C358 C333 1.395 . S
C358 C335 1.391 . S
H359 C319 0.951 . S
H360 C320 0.950 . S
H361 C326 0.949 . S
H362 C327 0.950 . S
H363 C331 0.951 . S
H364 C332 0.950 . S
H365 C336 0.949 . S
H366 C337 0.950 . S
H367 C341 0.950 . S
H368 C343 0.950 . S
H369 C346 0.950 . S
H370 C348 0.950 . S
C371 C372 1.443 . S
C371 N375 1.376 . S
C371 C409 1.389 . S
C372 C371 1.443 . S
C372 C373 1.340 . S
C372 H412 0.951 . S
C373 C372 1.340 . S
C373 C374 1.439 . S
C373 H413 0.950 . S
C374 C373 1.439 . S
C374 N375 1.374 . S
C374 C408 1.395 . S
N375 C371 1.376 . S
N375 C374 1.374 . S
N375 Co376 2.008 . S
Co376 N375 2.008 . S
Co376 N377 1.995 . S
Co376 N382 2.008 . S
Co376 N387 1.995 . S
Co376 N392 2.282 . S
Co376 N398 2.282 . S
N377 Co376 1.995 . S
N377 C378 1.376 . S
N377 C381 1.383 . S
C378 N377 1.376 . S
C378 C379 1.446 . S
C378 C408 1.391 . S
C379 C378 1.446 . S
C379 C380 1.339 . S
C379 H414 0.949 . S
C380 C379 1.339 . S
C380 C381 1.439 . S
C380 H415 0.950 . S
C381 N377 1.383 . S
C381 C380 1.439 . S
C381 C410 1.392 . S
N382 Co376 2.008 . S
N382 C383 1.376 . S
N382 C386 1.374 . S
C383 N382 1.376 . S
C383 C384 1.443 . S
C383 C410 1.389 . S
C384 C383 1.443 . S
C384 C385 1.340 . S
C384 H416 0.951 . S
C385 C384 1.340 . S
C385 C386 1.439 . S
C385 H417 0.950 . S
C386 N382 1.374 . S
C386 C385 1.439 . S
C386 C411 1.395 . S
N387 Co376 1.995 . S
N387 C388 1.376 . S
N387 C391 1.383 . S
C388 N387 1.376 . S
C388 C389 1.446 . S
C388 C411 1.391 . S
C389 C388 1.446 . S
C389 C390 1.339 . S
C389 H418 0.949 . S
C390 C389 1.339 . S
C390 C391 1.439 . S
C390 H419 0.950 . S
C391 N387 1.383 . S
C391 C390 1.439 . S
C391 C409 1.392 . S
N392 Co376 2.282 . S
N392 C395 1.332 . S
N392 C397 1.332 . S
C393 C394 1.386 . S
C393 C396 1.388 . S
C394 C393 1.386 . S
C394 C395 1.382 . S
C394 H420 0.950 . S
C395 N392 1.332 . S
C395 C394 1.382 . S
C395 H406 0.952 . S
C396 C393 1.388 . S
C396 C397 1.382 . S
C396 H421 0.950 . S
C397 N392 1.332 . S
C397 C396 1.382 . S
C397 H407 0.948 . S
N398 Co376 2.282 . S
N398 C402 1.332 . S
N398 C403 1.332 . S
C399 C400 1.388 . S
C399 C403 1.382 . S
C399 H422 0.950 . S
C400 C399 1.388 . S
C400 C401 1.386 . S
C401 C400 1.386 . S
C401 C402 1.382 . S
C401 H423 0.950 . S
C402 N398 1.332 . S
C402 C401 1.382 . S
C402 H404 0.952 . S
C403 N398 1.332 . S
C403 C399 1.382 . S
C403 H405 0.948 . S
H404 C402 0.952 . S
H405 C403 0.948 . S
H406 C395 0.952 . S
H407 C397 0.948 . S
C408 C374 1.395 . S
C408 C378 1.391 . S
C409 C371 1.389 . S
C409 C391 1.392 . S
C410 C381 1.392 . S
C410 C383 1.389 . S
C411 C386 1.395 . S
C411 C388 1.391 . S
H412 C372 0.951 . S
H413 C373 0.950 . S
H414 C379 0.949 . S
H415 C380 0.950 . S
H416 C384 0.951 . S
H417 C385 0.950 . S
H418 C389 0.949 . S
H419 C390 0.950 . S
H420 C394 0.950 . S
H421 C396 0.950 . S
H422 C399 0.950 . S
H423 C401 0.950 . S
C424 C425 1.443 . S
C424 N428 1.376 . S
C424 C462 1.389 . S
C425 C424 1.443 . S
C425 C426 1.340 . S
C425 H465 0.951 . S
C426 C425 1.340 . S
C426 C427 1.439 . S
C426 H466 0.950 . S
C427 C426 1.439 . S
C427 N428 1.374 . S
C427 C461 1.395 . S
N428 C424 1.376 . S
N428 C427 1.374 . S
N428 Co429 2.008 . S
Co429 N428 2.008 . S
Co429 N430 1.995 . S
Co429 N435 2.008 . S
Co429 N440 1.995 . S
Co429 N445 2.282 . S
Co429 N451 2.282 . S
N430 Co429 1.995 . S
N430 C431 1.376 . S
N430 C434 1.383 . S
C431 N430 1.376 . S
C431 C432 1.446 . S
C431 C461 1.391 . S
C432 C431 1.446 . S
C432 C433 1.339 . S
C432 H467 0.949 . S
C433 C432 1.339 . S
C433 C434 1.439 . S
C433 H468 0.950 . S
C434 N430 1.383 . S
C434 C433 1.439 . S
C434 C463 1.392 . S
N435 Co429 2.008 . S
N435 C436 1.376 . S
N435 C439 1.374 . S
C436 N435 1.376 . S
C436 C437 1.443 . S
C436 C463 1.389 . S
C437 C436 1.443 . S
C437 C438 1.340 . S
C437 H469 0.951 . S
C438 C437 1.340 . S
C438 C439 1.439 . S
C438 H470 0.950 . S
C439 N435 1.374 . S
C439 C438 1.439 . S
C439 C464 1.395 . S
N440 Co429 1.995 . S
N440 C441 1.376 . S
N440 C444 1.383 . S
C441 N440 1.376 . S
C441 C442 1.446 . S
C441 C464 1.391 . S
C442 C441 1.446 . S
C442 C443 1.339 . S
C442 H471 0.949 . S
C443 C442 1.339 . S
C443 C444 1.439 . S
C443 H472 0.950 . S
C444 N440 1.383 . S
C444 C443 1.439 . S
C444 C462 1.392 . S
N445 Co429 2.282 . S
N445 C448 1.332 . S
N445 C450 1.332 . S
C446 C447 1.386 . S
C446 C449 1.388 . S
C447 C446 1.386 . S
C447 C448 1.382 . S
C447 H473 0.950 . S
C448 N445 1.332 . S
C448 C447 1.382 . S
C448 H459 0.952 . S
C449 C446 1.388 . S
C449 C450 1.382 . S
C449 H474 0.950 . S
C450 N445 1.332 . S
C450 C449 1.382 . S
C450 H460 0.948 . S
N451 Co429 2.282 . S
N451 C455 1.332 . S
N451 C456 1.332 . S
C452 C453 1.388 . S
C452 C456 1.382 . S
C452 H475 0.950 . S
C453 C452 1.388 . S
C453 C454 1.386 . S
C454 C453 1.386 . S
C454 C455 1.382 . S
C454 H476 0.950 . S
C455 N451 1.332 . S
C455 C454 1.382 . S
C455 H457 0.952 . S
C456 N451 1.332 . S
C456 C452 1.382 . S
C456 H458 0.948 . S
H457 C455 0.952 . S
H458 C456 0.948 . S
H459 C448 0.952 . S
H460 C450 0.948 . S
C461 C427 1.395 . S
C461 C431 1.391 . S
C462 C424 1.389 . S
C462 C444 1.392 . S
C463 C434 1.392 . S
C463 C436 1.389 . S
C464 C439 1.395 . S
C464 C441 1.391 . S
H465 C425 0.951 . S
H466 C426 0.950 . S
H467 C432 0.949 . S
H468 C433 0.950 . S
H469 C437 0.951 . S
H470 C438 0.950 . S
H471 C442 0.949 . S
H472 C443 0.950 . S
H473 C447 0.950 . S
H474 C449 0.950 . S
H475 C452 0.950 . S
H476 C454 0.950 . S
C477 C478 1.443 . S
C477 N481 1.376 . S
C477 C515 1.389 . S
C478 C477 1.443 . S
C478 C479 1.340 . S
C478 H518 0.951 . S
C479 C478 1.340 . S
C479 C480 1.439 . S
C479 H519 0.950 . S
C480 C479 1.439 . S
C480 N481 1.374 . S
C480 C514 1.395 . S
N481 C477 1.376 . S
N481 C480 1.374 . S
N481 Co482 2.008 . S
Co482 N481 2.008 . S
Co482 N483 1.995 . S
Co482 N488 2.008 . S
Co482 N493 1.995 . S
Co482 N498 2.282 . S
Co482 N504 2.282 . S
N483 Co482 1.995 . S
N483 C484 1.376 . S
N483 C487 1.383 . S
C484 N483 1.376 . S
C484 C485 1.446 . S
C484 C514 1.391 . S
C485 C484 1.446 . S
C485 C486 1.339 . S
C485 H520 0.949 . S
C486 C485 1.339 . S
C486 C487 1.439 . S
C486 H521 0.950 . S
C487 N483 1.383 . S
C487 C486 1.439 . S
C487 C516 1.392 . S
N488 Co482 2.008 . S
N488 C489 1.376 . S
N488 C492 1.374 . S
C489 N488 1.376 . S
C489 C490 1.443 . S
C489 C516 1.389 . S
C490 C489 1.443 . S
C490 C491 1.340 . S
C490 H522 0.951 . S
C491 C490 1.340 . S
C491 C492 1.439 . S
C491 H523 0.950 . S
C492 N488 1.374 . S
C492 C491 1.439 . S
C492 C517 1.395 . S
N493 Co482 1.995 . S
N493 C494 1.376 . S
N493 C497 1.383 . S
C494 N493 1.376 . S
C494 C495 1.446 . S
C494 C517 1.391 . S
C495 C494 1.446 . S
C495 C496 1.339 . S
C495 H524 0.949 . S
C496 C495 1.339 . S
C496 C497 1.439 . S
C496 H525 0.950 . S
C497 N493 1.383 . S
C497 C496 1.439 . S
C497 C515 1.392 . S
N498 Co482 2.282 . S
N498 C501 1.332 . S
N498 C503 1.332 . S
C499 C500 1.386 . S
C499 C502 1.388 . S
C500 C499 1.386 . S
C500 C501 1.382 . S
C500 H526 0.950 . S
C501 N498 1.332 . S
C501 C500 1.382 . S
C501 H512 0.952 . S
C502 C499 1.388 . S
C502 C503 1.382 . S
C502 H527 0.950 . S
C503 N498 1.332 . S
C503 C502 1.382 . S
C503 H513 0.948 . S
N504 Co482 2.282 . S
N504 C508 1.332 . S
N504 C509 1.332 . S
C505 C506 1.388 . S
C505 C509 1.382 . S
C505 H528 0.950 . S
C506 C505 1.388 . S
C506 C507 1.386 . S
C507 C506 1.386 . S
C507 C508 1.382 . S
C507 H529 0.950 . S
C508 N504 1.332 . S
C508 C507 1.382 . S
C508 H510 0.952 . S
C509 N504 1.332 . S
C509 C505 1.382 . S
C509 H511 0.948 . S
H510 C508 0.952 . S
H511 C509 0.948 . S
H512 C501 0.952 . S
H513 C503 0.948 . S
C514 C480 1.395 . S
C514 C484 1.391 . S
C515 C477 1.389 . S
C515 C497 1.392 . S
C516 C487 1.392 . S
C516 C489 1.389 . S
C517 C492 1.395 . S
C517 C494 1.391 . S
H518 C478 0.951 . S
H519 C479 0.950 . S
H520 C485 0.949 . S
H521 C486 0.950 . S
H522 C490 0.951 . S
H523 C491 0.950 . S
H524 C495 0.949 . S
H525 C496 0.950 . S
H526 C500 0.950 . S
H527 C502 0.950 . S
H528 C505 0.950 . S
H529 C507 0.950 . S
C530 C531 1.443 . S
C530 N534 1.376 . S
C530 C568 1.389 . S
C531 C530 1.443 . S
C531 C532 1.340 . S
C531 H571 0.951 . S
C532 C531 1.340 . S
C532 C533 1.439 . S
C532 H572 0.950 . S
C533 C532 1.439 . S
C533 N534 1.374 . S
C533 C567 1.395 . S
N534 C530 1.376 . S
N534 C533 1.374 . S
N534 Co535 2.008 . S
Co535 N534 2.008 . S
Co535 N536 1.995 . S
Co535 N541 2.008 . S
Co535 N546 1.995 . S
Co535 N551 2.282 . S
Co535 N557 2.282 . S
N536 Co535 1.995 . S
N536 C537 1.376 . S
N536 C540 1.383 . S
C537 N536 1.376 . S
C537 C538 1.446 . S
C537 C567 1.391 . S
C538 C537 1.446 . S
C538 C539 1.339 . S
C538 H573 0.949 . S
C539 C538 1.339 . S
C539 C540 1.439 . S
C539 H574 0.950 . S
C540 N536 1.383 . S
C540 C539 1.439 . S
C540 C569 1.392 . S
N541 Co535 2.008 . S
N541 C542 1.376 . S
N541 C545 1.374 . S
C542 N541 1.376 . S
C542 C543 1.443 . S
C542 C569 1.389 . S
C543 C542 1.443 . S
C543 C544 1.340 . S
C543 H575 0.951 . S
C544 C543 1.340 . S
C544 C545 1.439 . S
C544 H576 0.950 . S
C545 N541 1.374 . S
C545 C544 1.439 . S
C545 C570 1.395 . S
N546 Co535 1.995 . S
N546 C547 1.376 . S
N546 C550 1.383 . S
C547 N546 1.376 . S
C547 C548 1.446 . S
C547 C570 1.391 . S
C548 C547 1.446 . S
C548 C549 1.339 . S
C548 H577 0.949 . S
C549 C548 1.339 . S
C549 C550 1.439 . S
C549 H578 0.950 . S
C550 N546 1.383 . S
C550 C549 1.439 . S
C550 C568 1.392 . S
N551 Co535 2.282 . S
N551 C554 1.332 . S
N551 C556 1.332 . S
C552 C553 1.386 . S
C552 C555 1.388 . S
C553 C552 1.386 . S
C553 C554 1.382 . S
C553 H579 0.950 . S
C554 N551 1.332 . S
C554 C553 1.382 . S
C554 H565 0.952 . S
C555 C552 1.388 . S
C555 C556 1.382 . S
C555 H580 0.950 . S
C556 N551 1.332 . S
C556 C555 1.382 . S
C556 H566 0.948 . S
N557 Co535 2.282 . S
N557 C561 1.332 . S
N557 C562 1.332 . S
C558 C559 1.388 . S
C558 C562 1.382 . S
C558 H581 0.950 . S
C559 C558 1.388 . S
C559 C560 1.386 . S
C560 C559 1.386 . S
C560 C561 1.382 . S
C560 H582 0.950 . S
C561 N557 1.332 . S
C561 C560 1.382 . S
C561 H563 0.952 . S
C562 N557 1.332 . S
C562 C558 1.382 . S
C562 H564 0.948 . S
H563 C561 0.952 . S
H564 C562 0.948 . S
H565 C554 0.952 . S
H566 C556 0.948 . S
C567 C533 1.395 . S
C567 C537 1.391 . S
C568 C530 1.389 . S
C568 C550 1.392 . S
C569 C540 1.392 . S
C569 C542 1.389 . S
C570 C545 1.395 . S
C570 C547 1.391 . S
H571 C531 0.951 . S
H572 C532 0.950 . S
H573 C538 0.949 . S
H574 C539 0.950 . S
H575 C543 0.951 . S
H576 C544 0.950 . S
H577 C548 0.949 . S
H578 C549 0.950 . S
H579 C553 0.950 . S
H580 C555 0.950 . S
H581 C558 0.950 . S
H582 C560 0.950 . S
C583 C584 1.443 . S
C583 N587 1.376 . S
C583 C621 1.389 . S
C584 C583 1.443 . S
C584 C585 1.340 . S
C584 H624 0.951 . S
C585 C584 1.340 . S
C585 C586 1.439 . S
C585 H625 0.950 . S
C586 C585 1.439 . S
C586 N587 1.374 . S
C586 C620 1.395 . S
N587 C583 1.376 . S
N587 C586 1.374 . S
N587 Co588 2.008 . S
Co588 N587 2.008 . S
Co588 N589 1.995 . S
Co588 N594 2.008 . S
Co588 N599 1.995 . S
Co588 N604 2.282 . S
Co588 N610 2.282 . S
N589 Co588 1.995 . S
N589 C590 1.376 . S
N589 C593 1.383 . S
C590 N589 1.376 . S
C590 C591 1.446 . S
C590 C620 1.391 . S
C591 C590 1.446 . S
C591 C592 1.339 . S
C591 H626 0.949 . S
C592 C591 1.339 . S
C592 C593 1.439 . S
C592 H627 0.950 . S
C593 N589 1.383 . S
C593 C592 1.439 . S
C593 C622 1.392 . S
N594 Co588 2.008 . S
N594 C595 1.376 . S
N594 C598 1.374 . S
C595 N594 1.376 . S
C595 C596 1.443 . S
C595 C622 1.389 . S
C596 C595 1.443 . S
C596 C597 1.340 . S
C596 H628 0.951 . S
C597 C596 1.340 . S
C597 C598 1.439 . S
C597 H629 0.950 . S
C598 N594 1.374 . S
C598 C597 1.439 . S
C598 C623 1.395 . S
N599 Co588 1.995 . S
N599 C600 1.376 . S
N599 C603 1.383 . S
C600 N599 1.376 . S
C600 C601 1.446 . S
C600 C623 1.391 . S
C601 C600 1.446 . S
C601 C602 1.339 . S
C601 H630 0.949 . S
C602 C601 1.339 . S
C602 C603 1.439 . S
C602 H631 0.950 . S
C603 N599 1.383 . S
C603 C602 1.439 . S
C603 C621 1.392 . S
N604 Co588 2.282 . S
N604 C607 1.332 . S
N604 C609 1.332 . S
C605 C606 1.386 . S
C605 C608 1.388 . S
C606 C605 1.386 . S
C606 C607 1.382 . S
C606 H632 0.950 . S
C607 N604 1.332 . S
C607 C606 1.382 . S
C607 H618 0.952 . S
C608 C605 1.388 . S
C608 C609 1.382 . S
C608 H633 0.950 . S
C609 N604 1.332 . S
C609 C608 1.382 . S
C609 H619 0.948 . S
N610 Co588 2.282 . S
N610 C614 1.332 . S
N610 C615 1.332 . S
C611 C612 1.388 . S
C611 C615 1.382 . S
C611 H634 0.950 . S
C612 C611 1.388 . S
C612 C613 1.386 . S
C613 C612 1.386 . S
C613 C614 1.382 . S
C613 H635 0.950 . S
C614 N610 1.332 . S
C614 C613 1.382 . S
C614 H616 0.952 . S
C615 N610 1.332 . S
C615 C611 1.382 . S
C615 H617 0.948 . S
H616 C614 0.952 . S
H617 C615 0.948 . S
H618 C607 0.952 . S
H619 C609 0.948 . S
C620 C586 1.395 . S
C620 C590 1.391 . S
C621 C583 1.389 . S
C621 C603 1.392 . S
C622 C593 1.392 . S
C622 C595 1.389 . S
C623 C598 1.395 . S
C623 C600 1.391 . S
H624 C584 0.951 . S
H625 C585 0.950 . S
H626 C591 0.949 . S
H627 C592 0.950 . S
H628 C596 0.951 . S
H629 C597 0.950 . S
H630 C601 0.949 . S
H631 C602 0.950 . S
H632 C606 0.950 . S
H633 C608 0.950 . S
H634 C611 0.950 . S
H635 C613 0.950 . S
C636 C637 1.443 . S
C636 N640 1.376 . S
C636 C674 1.389 . S
C637 C636 1.443 . S
C637 C638 1.340 . S
C637 H677 0.951 . S
C638 C637 1.340 . S
C638 C639 1.439 . S
C638 H678 0.950 . S
C639 C638 1.439 . S
C639 N640 1.374 . S
C639 C673 1.395 . S
N640 C636 1.376 . S
N640 C639 1.374 . S
N640 Co641 2.008 . S
Co641 N640 2.008 . S
Co641 N642 1.995 . S
Co641 N647 2.008 . S
Co641 N652 1.995 . S
Co641 N657 2.282 . S
Co641 N663 2.282 . S
N642 Co641 1.995 . S
N642 C643 1.376 . S
N642 C646 1.383 . S
C643 N642 1.376 . S
C643 C644 1.446 . S
C643 C673 1.391 . S
C644 C643 1.446 . S
C644 C645 1.339 . S
C644 H679 0.949 . S
C645 C644 1.339 . S
C645 C646 1.439 . S
C645 H680 0.950 . S
C646 N642 1.383 . S
C646 C645 1.439 . S
C646 C675 1.392 . S
N647 Co641 2.008 . S
N647 C648 1.376 . S
N647 C651 1.374 . S
C648 N647 1.376 . S
C648 C649 1.443 . S
C648 C675 1.389 . S
C649 C648 1.443 . S
C649 C650 1.340 . S
C649 H681 0.951 . S
C650 C649 1.340 . S
C650 C651 1.439 . S
C650 H682 0.950 . S
C651 N647 1.374 . S
C651 C650 1.439 . S
C651 C676 1.395 . S
N652 Co641 1.995 . S
N652 C653 1.376 . S
N652 C656 1.383 . S
C653 N652 1.376 . S
C653 C654 1.446 . S
C653 C676 1.391 . S
C654 C653 1.446 . S
C654 C655 1.339 . S
C654 H683 0.949 . S
C655 C654 1.339 . S
C655 C656 1.439 . S
C655 H684 0.950 . S
C656 N652 1.383 . S
C656 C655 1.439 . S
C656 C674 1.392 . S
N657 Co641 2.282 . S
N657 C660 1.332 . S
N657 C662 1.332 . S
C658 C659 1.386 . S
C658 C661 1.388 . S
C659 C658 1.386 . S
C659 C660 1.382 . S
C659 H685 0.950 . S
C660 N657 1.332 . S
C660 C659 1.382 . S
C660 H671 0.952 . S
C661 C658 1.388 . S
C661 C662 1.382 . S
C661 H686 0.950 . S
C662 N657 1.332 . S
C662 C661 1.382 . S
C662 H672 0.948 . S
N663 Co641 2.282 . S
N663 C667 1.332 . S
N663 C668 1.332 . S
C664 C665 1.388 . S
C664 C668 1.382 . S
C664 H687 0.950 . S
C665 C664 1.388 . S
C665 C666 1.386 . S
C666 C665 1.386 . S
C666 C667 1.382 . S
C666 H688 0.950 . S
C667 N663 1.332 . S
C667 C666 1.382 . S
C667 H669 0.952 . S
C668 N663 1.332 . S
C668 C664 1.382 . S
C668 H670 0.948 . S
H669 C667 0.952 . S
H670 C668 0.948 . S
H671 C660 0.952 . S
H672 C662 0.948 . S
C673 C639 1.395 . S
C673 C643 1.391 . S
C674 C636 1.389 . S
C674 C656 1.392 . S
C675 C646 1.392 . S
C675 C648 1.389 . S
C676 C651 1.395 . S
C676 C653 1.391 . S
H677 C637 0.951 . S
H678 C638 0.950 . S
H679 C644 0.949 . S
H680 C645 0.950 . S
H681 C649 0.951 . S
H682 C650 0.950 . S
H683 C654 0.949 . S
H684 C655 0.950 . S
H685 C659 0.950 . S
H686 C661 0.950 . S
H687 C664 0.950 . S
H688 C666 0.950 . S
C689 C690 1.443 . S
C689 N693 1.376 . S
C689 C727 1.389 . S
C690 C689 1.443 . S
C690 C691 1.340 . S
C690 H730 0.951 . S
C691 C690 1.340 . S
C691 C692 1.439 . S
C691 H731 0.950 . S
C692 C691 1.439 . S
C692 N693 1.374 . S
C692 C726 1.395 . S
N693 C689 1.376 . S
N693 C692 1.374 . S
N693 Co694 2.008 . S
Co694 N693 2.008 . S
Co694 N695 1.995 . S
Co694 N700 2.008 . S
Co694 N705 1.995 . S
Co694 N710 2.282 . S
Co694 N716 2.282 . S
N695 Co694 1.995 . S
N695 C696 1.376 . S
N695 C699 1.383 . S
C696 N695 1.376 . S
C696 C697 1.446 . S
C696 C726 1.391 . S
C697 C696 1.446 . S
C697 C698 1.339 . S
C697 H732 0.949 . S
C698 C697 1.339 . S
C698 C699 1.439 . S
C698 H733 0.950 . S
C699 N695 1.383 . S
C699 C698 1.439 . S
C699 C728 1.392 . S
N700 Co694 2.008 . S
N700 C701 1.376 . S
N700 C704 1.374 . S
C701 N700 1.376 . S
C701 C702 1.443 . S
C701 C728 1.389 . S
C702 C701 1.443 . S
C702 C703 1.340 . S
C702 H734 0.951 . S
C703 C702 1.340 . S
C703 C704 1.439 . S
C703 H735 0.950 . S
C704 N700 1.374 . S
C704 C703 1.439 . S
C704 C729 1.395 . S
N705 Co694 1.995 . S
N705 C706 1.376 . S
N705 C709 1.383 . S
C706 N705 1.376 . S
C706 C707 1.446 . S
C706 C729 1.391 . S
C707 C706 1.446 . S
C707 C708 1.339 . S
C707 H736 0.949 . S
C708 C707 1.339 . S
C708 C709 1.439 . S
C708 H737 0.950 . S
C709 N705 1.383 . S
C709 C708 1.439 . S
C709 C727 1.392 . S
N710 Co694 2.282 . S
N710 C713 1.332 . S
N710 C715 1.332 . S
C711 C712 1.386 . S
C711 C714 1.388 . S
C712 C711 1.386 . S
C712 C713 1.382 . S
C712 H738 0.950 . S
C713 N710 1.332 . S
C713 C712 1.382 . S
C713 H724 0.952 . S
C714 C711 1.388 . S
C714 C715 1.382 . S
C714 H739 0.950 . S
C715 N710 1.332 . S
C715 C714 1.382 . S
C715 H725 0.948 . S
N716 Co694 2.282 . S
N716 C720 1.332 . S
N716 C721 1.332 . S
C717 C718 1.388 . S
C717 C721 1.382 . S
C717 H740 0.950 . S
C718 C717 1.388 . S
C718 C719 1.386 . S
C719 C718 1.386 . S
C719 C720 1.382 . S
C719 H741 0.950 . S
C720 N716 1.332 . S
C720 C719 1.382 . S
C720 H722 0.952 . S
C721 N716 1.332 . S
C721 C717 1.382 . S
C721 H723 0.948 . S
H722 C720 0.952 . S
H723 C721 0.948 . S
H724 C713 0.952 . S
H725 C715 0.948 . S
C726 C692 1.395 . S
C726 C696 1.391 . S
C727 C689 1.389 . S
C727 C709 1.392 . S
C728 C699 1.392 . S
C728 C701 1.389 . S
C729 C704 1.395 . S
C729 C706 1.391 . S
H730 C690 0.951 . S
H731 C691 0.950 . S
H732 C697 0.949 . S
H733 C698 0.950 . S
H734 C702 0.951 . S
H735 C703 0.950 . S
H736 C707 0.949 . S
H737 C708 0.950 . S
H738 C712 0.950 . S
H739 C714 0.950 . S
H740 C717 0.950 . S
H741 C719 0.950 . S
C742 C743 1.443 . S
C742 N746 1.376 . S
C742 C780 1.389 . S
C743 C742 1.443 . S
C743 C744 1.340 . S
C743 H783 0.951 . S
C744 C743 1.340 . S
C744 C745 1.439 . S
C744 H784 0.950 . S
C745 C744 1.439 . S
C745 N746 1.374 . S
C745 C779 1.395 . S
N746 C742 1.376 . S
N746 C745 1.374 . S
N746 Co747 2.008 . S
Co747 N746 2.008 . S
Co747 N748 1.995 . S
Co747 N753 2.008 . S
Co747 N758 1.995 . S
Co747 N763 2.282 . S
Co747 N769 2.282 . S
N748 Co747 1.995 . S
N748 C749 1.376 . S
N748 C752 1.383 . S
C749 N748 1.376 . S
C749 C750 1.446 . S
C749 C779 1.391 . S
C750 C749 1.446 . S
C750 C751 1.339 . S
C750 H785 0.949 . S
C751 C750 1.339 . S
C751 C752 1.439 . S
C751 H786 0.950 . S
C752 N748 1.383 . S
C752 C751 1.439 . S
C752 C781 1.392 . S
N753 Co747 2.008 . S
N753 C754 1.376 . S
N753 C757 1.374 . S
C754 N753 1.376 . S
C754 C755 1.443 . S
C754 C781 1.389 . S
C755 C754 1.443 . S
C755 C756 1.340 . S
C755 H787 0.951 . S
C756 C755 1.340 . S
C756 C757 1.439 . S
C756 H788 0.950 . S
C757 N753 1.374 . S
C757 C756 1.439 . S
C757 C782 1.395 . S
N758 Co747 1.995 . S
N758 C759 1.376 . S
N758 C762 1.383 . S
C759 N758 1.376 . S
C759 C760 1.446 . S
C759 C782 1.391 . S
C760 C759 1.446 . S
C760 C761 1.339 . S
C760 H789 0.949 . S
C761 C760 1.339 . S
C761 C762 1.439 . S
C761 H790 0.950 . S
C762 N758 1.383 . S
C762 C761 1.439 . S
C762 C780 1.392 . S
N763 Co747 2.282 . S
N763 C766 1.332 . S
N763 C768 1.332 . S
C764 C765 1.386 . S
C764 C767 1.388 . S
C765 C764 1.386 . S
C765 C766 1.382 . S
C765 H791 0.950 . S
C766 N763 1.332 . S
C766 C765 1.382 . S
C766 H777 0.952 . S
C767 C764 1.388 . S
C767 C768 1.382 . S
C767 H792 0.950 . S
C768 N763 1.332 . S
C768 C767 1.382 . S
C768 H778 0.948 . S
N769 Co747 2.282 . S
N769 C773 1.332 . S
N769 C774 1.332 . S
C770 C771 1.388 . S
C770 C774 1.382 . S
C770 H793 0.950 . S
C771 C770 1.388 . S
C771 C772 1.386 . S
C772 C771 1.386 . S
C772 C773 1.382 . S
C772 H794 0.950 . S
C773 N769 1.332 . S
C773 C772 1.382 . S
C773 H775 0.952 . S
C774 N769 1.332 . S
C774 C770 1.382 . S
C774 H776 0.948 . S
H775 C773 0.952 . S
H776 C774 0.948 . S
H777 C766 0.952 . S
H778 C768 0.948 . S
C779 C745 1.395 . S
C779 C749 1.391 . S
C780 C742 1.389 . S
C780 C762 1.392 . S
C781 C752 1.392 . S
C781 C754 1.389 . S
C782 C757 1.395 . S
C782 C759 1.391 . S
H783 C743 0.951 . S
H784 C744 0.950 . S
H785 C750 0.949 . S
H786 C751 0.950 . S
H787 C755 0.951 . S
H788 C756 0.950 . S
H789 C760 0.949 . S
H790 C761 0.950 . S
H791 C765 0.950 . S
H792 C767 0.950 . S
H793 C770 0.950 . S
H794 C772 0.950 . S
C795 C796 1.443 . S
C795 N799 1.376 . S
C795 C833 1.389 . S
C796 C795 1.443 . S
C796 C797 1.340 . S
C796 H836 0.951 . S
C797 C796 1.340 . S
C797 C798 1.439 . S
C797 H837 0.950 . S
C798 C797 1.439 . S
C798 N799 1.374 . S
C798 C832 1.395 . S
N799 C795 1.376 . S
N799 C798 1.374 . S
N799 Co800 2.008 . S
Co800 N799 2.008 . S
Co800 N801 1.995 . S
Co800 N806 2.008 . S
Co800 N811 1.995 . S
Co800 N816 2.282 . S
Co800 N822 2.282 . S
N801 Co800 1.995 . S
N801 C802 1.376 . S
N801 C805 1.383 . S
C802 N801 1.376 . S
C802 C803 1.446 . S
C802 C832 1.391 . S
C803 C802 1.446 . S
C803 C804 1.339 . S
C803 H838 0.949 . S
C804 C803 1.339 . S
C804 C805 1.439 . S
C804 H839 0.950 . S
C805 N801 1.383 . S
C805 C804 1.439 . S
C805 C834 1.392 . S
N806 Co800 2.008 . S
N806 C807 1.376 . S
N806 C810 1.374 . S
C807 N806 1.376 . S
C807 C808 1.443 . S
C807 C834 1.389 . S
C808 C807 1.443 . S
C808 C809 1.340 . S
C808 H840 0.951 . S
C809 C808 1.340 . S
C809 C810 1.439 . S
C809 H841 0.950 . S
C810 N806 1.374 . S
C810 C809 1.439 . S
C810 C835 1.395 . S
N811 Co800 1.995 . S
N811 C812 1.376 . S
N811 C815 1.383 . S
C812 N811 1.376 . S
C812 C813 1.446 . S
C812 C835 1.391 . S
C813 C812 1.446 . S
C813 C814 1.339 . S
C813 H842 0.949 . S
C814 C813 1.339 . S
C814 C815 1.439 . S
C814 H843 0.950 . S
C815 N811 1.383 . S
C815 C814 1.439 . S
C815 C833 1.392 . S
N816 Co800 2.282 . S
N816 C819 1.332 . S
N816 C821 1.332 . S
C817 C818 1.386 . S
C817 C820 1.388 . S
C818 C817 1.386 . S
C818 C819 1.382 . S
C818 H844 0.950 . S
C819 N816 1.332 . S
C819 C818 1.382 . S
C819 H830 0.952 . S
C820 C817 1.388 . S
C820 C821 1.382 . S
C820 H845 0.950 . S
C821 N816 1.332 . S
C821 C820 1.382 . S
C821 H831 0.948 . S
N822 Co800 2.282 . S
N822 C826 1.332 . S
N822 C827 1.332 . S
C823 C824 1.388 . S
C823 C827 1.382 . S
C823 H846 0.950 . S
C824 C823 1.388 . S
C824 C825 1.386 . S
C825 C824 1.386 . S
C825 C826 1.382 . S
C825 H847 0.950 . S
C826 N822 1.332 . S
C826 C825 1.382 . S
C826 H828 0.952 . S
C827 N822 1.332 . S
C827 C823 1.382 . S
C827 H829 0.948 . S
H828 C826 0.952 . S
H829 C827 0.948 . S
H830 C819 0.952 . S
H831 C821 0.948 . S
C832 C798 1.395 . S
C832 C802 1.391 . S
C833 C795 1.389 . S
C833 C815 1.392 . S
C834 C805 1.392 . S
C834 C807 1.389 . S
C835 C810 1.395 . S
C835 C812 1.391 . S
H836 C796 0.951 . S
H837 C797 0.950 . S
H838 C803 0.949 . S
H839 C804 0.950 . S
H840 C808 0.951 . S
H841 C809 0.950 . S
H842 C813 0.949 . S
H843 C814 0.950 . S
H844 C818 0.950 . S
H845 C820 0.950 . S
H846 C823 0.950 . S
H847 C825 0.950 . S
H848 C866 0.951 . S
H849 C868 0.951 . S
H850 C870 0.950 . S
H851 C871 0.950 . S
H852 C873 0.950 . S
H853 C876 0.950 . S
H854 C877 0.950 . S
H855 C879 0.950 . S
H856 C880 0.950 . S
H857 C881 0.951 . S
H858 C883 0.951 . S
H859 C885 0.950 . S
H860 C886 0.950 . S
H861 C888 0.950 . S
H862 C891 0.950 . S
H863 C892 0.950 . S
H864 C894 0.950 . S
H865 C895 0.950 . S
C866 H848 0.951 . S
C866 C867 1.366 . S
C866 C868 1.388 . S
C867 C866 1.366 . S
C867 C871 1.385 . S
C868 H849 0.951 . S
C868 C866 1.388 . S
C868 C869 1.366 . S
C869 C868 1.366 . S
C869 C870 1.414 . S
C869 C872 1.499 . S
C870 H850 0.950 . S
C870 C869 1.414 . S
C870 C871 1.374 . S
C871 H851 0.950 . S
C871 C867 1.385 . S
C871 C870 1.374 . S
C872 C869 1.499 . S
C872 C873 1.373 . S
C872 C874 1.389 . S
C873 H852 0.950 . S
C873 C872 1.373 . S
C873 C889 1.377 . S
C874 C872 1.389 . S
C874 C875 1.524 . S
C874 C888 1.377 . S
C875 C874 1.524 . S
C875 C876 1.397 . S
C875 C880 1.363 . S
C876 H853 0.950 . S
C876 C875 1.397 . S
C876 C877 1.334 . S
C877 H854 0.950 . S
C877 C876 1.334 . S
C877 C878 1.287 . S
C878 C877 1.287 . S
C878 C879 1.524 . S
C878 H897 0.913 . S
C879 H855 0.950 . S
C879 C878 1.524 . S
C879 C880 1.415 . S
C880 H856 0.950 . S
C880 C875 1.363 . S
C880 C879 1.415 . S
C881 H857 0.951 . S
C881 C882 1.366 . S
C881 C883 1.388 . S
C882 C881 1.366 . S
C882 C886 1.385 . S
C883 H858 0.951 . S
C883 C881 1.388 . S
C883 C884 1.366 . S
C884 C883 1.366 . S
C884 C885 1.414 . S
C884 C887 1.499 . S
C885 H859 0.950 . S
C885 C884 1.414 . S
C885 C886 1.374 . S
C886 H860 0.950 . S
C886 C882 1.385 . S
C886 C885 1.374 . S
C887 C884 1.499 . S
C887 C888 1.373 . S
C887 C889 1.389 . S
C888 H861 0.950 . S
C888 C874 1.377 . S
C888 C887 1.373 . S
C889 C873 1.377 . S
C889 C887 1.389 . S
C889 C890 1.524 . S
C890 C889 1.524 . S
C890 C891 1.397 . S
C890 C895 1.363 . S
C891 H862 0.950 . S
C891 C890 1.397 . S
C891 C892 1.334 . S
C892 H863 0.950 . S
C892 C891 1.334 . S
C892 C893 1.287 . S
C893 C892 1.287 . S
C893 C894 1.524 . S
C893 H896 0.999 . S
C894 H864 0.950 . S
C894 C893 1.524 . S
C894 C895 1.415 . S
C895 H865 0.950 . S
C895 C890 1.363 . S
C895 C894 1.415 . S
H896 C893 0.999 . S
H897 C878 0.913 . S
H898 C916 0.951 . S
H899 C918 0.951 . S
H900 C920 0.950 . S
H901 C921 0.950 . S
H902 C923 0.950 . S
H903 C926 0.950 . S
H904 C927 0.950 . S
H905 C929 0.950 . S
H906 C930 0.950 . S
H907 C931 0.951 . S
H908 C933 0.951 . S
H909 C935 0.950 . S
H910 C936 0.950 . S
H911 C938 0.950 . S
H912 C941 0.950 . S
H913 C942 0.950 . S
H914 C944 0.950 . S
H915 C945 0.950 . S
C916 H898 0.951 . S
C916 C917 1.366 . S
C916 C918 1.388 . S
C917 C916 1.366 . S
C917 C921 1.385 . S
C918 H899 0.951 . S
C918 C916 1.388 . S
C918 C919 1.366 . S
C919 C918 1.366 . S
C919 C920 1.414 . S
C919 C922 1.499 . S
C920 H900 0.950 . S
C920 C919 1.414 . S
C920 C921 1.374 . S
C921 H901 0.950 . S
C921 C917 1.385 . S
C921 C920 1.374 . S
C922 C919 1.499 . S
C922 C923 1.373 . S
C922 C924 1.389 . S
C923 H902 0.950 . S
C923 C922 1.373 . S
C923 C939 1.377 . S
C924 C922 1.389 . S
C924 C925 1.524 . S
C924 C938 1.377 . S
C925 C924 1.524 . S
C925 C926 1.397 . S
C925 C930 1.363 . S
C926 H903 0.950 . S
C926 C925 1.397 . S
C926 C927 1.334 . S
C927 H904 0.950 . S
C927 C926 1.334 . S
C927 C928 1.287 . S
C928 C927 1.287 . S
C928 C929 1.524 . S
C928 H947 0.913 . S
C929 H905 0.950 . S
C929 C928 1.524 . S
C929 C930 1.415 . S
C930 H906 0.950 . S
C930 C925 1.363 . S
C930 C929 1.415 . S
C931 H907 0.951 . S
C931 C932 1.366 . S
C931 C933 1.388 . S
C932 C931 1.366 . S
C932 C936 1.385 . S
C933 H908 0.951 . S
C933 C931 1.388 . S
C933 C934 1.366 . S
C934 C933 1.366 . S
C934 C935 1.414 . S
C934 C937 1.499 . S
C935 H909 0.950 . S
C935 C934 1.414 . S
C935 C936 1.374 . S
C936 H910 0.950 . S
C936 C932 1.385 . S
C936 C935 1.374 . S
C937 C934 1.499 . S
C937 C938 1.373 . S
C937 C939 1.389 . S
C938 H911 0.950 . S
C938 C924 1.377 . S
C938 C937 1.373 . S
C939 C923 1.377 . S
C939 C937 1.389 . S
C939 C940 1.524 . S
C940 C939 1.524 . S
C940 C941 1.397 . S
C940 C945 1.363 . S
C941 H912 0.950 . S
C941 C940 1.397 . S
C941 C942 1.334 . S
C942 H913 0.950 . S
C942 C941 1.334 . S
C942 C943 1.287 . S
C943 C942 1.287 . S
C943 C944 1.524 . S
C943 H946 0.999 . S
C944 H914 0.950 . S
C944 C943 1.524 . S
C944 C945 1.415 . S
C945 H915 0.950 . S
C945 C940 1.363 . S
C945 C944 1.415 . S
H946 C943 0.999 . S
H947 C928 0.913 . S
H948 C966 0.951 . S
H949 C968 0.951 . S
H950 C970 0.950 . S
H951 C971 0.950 . S
H952 C973 0.950 . S
H953 C976 0.950 . S
H954 C977 0.950 . S
H955 C979 0.950 . S
H956 C980 0.950 . S
H957 C981 0.951 . S
H958 C983 0.951 . S
H959 C985 0.950 . S
H960 C986 0.950 . S
H961 C988 0.950 . S
H962 C991 0.950 . S
H963 C992 0.950 . S
H964 C994 0.950 . S
H965 C995 0.950 . S
C966 H948 0.951 . S
C966 C967 1.366 . S
C966 C968 1.388 . S
C967 C966 1.366 . S
C967 C971 1.385 . S
C968 H949 0.951 . S
C968 C966 1.388 . S
C968 C969 1.366 . S
C969 C968 1.366 . S
C969 C970 1.414 . S
C969 C972 1.499 . S
C970 H950 0.950 . S
C970 C969 1.414 . S
C970 C971 1.374 . S
C971 H951 0.950 . S
C971 C967 1.385 . S
C971 C970 1.374 . S
C972 C969 1.499 . S
C972 C973 1.373 . S
C972 C974 1.389 . S
C973 H952 0.950 . S
C973 C972 1.373 . S
C973 C989 1.377 1_554 S
C974 C972 1.389 . S
C974 C975 1.524 . S
C974 C988 1.377 1_554 S
C975 C974 1.524 . S
C975 C976 1.397 . S
C975 C980 1.363 . S
C976 H953 0.950 . S
C976 C975 1.397 . S
C976 C977 1.334 . S
C977 H954 0.950 . S
C977 C976 1.334 . S
C977 C978 1.287 . S
C978 C977 1.287 . S
C978 C979 1.524 . S
C978 H997 0.913 . S
C979 H955 0.950 . S
C979 C978 1.524 . S
C979 C980 1.415 . S
C980 H956 0.950 . S
C980 C975 1.363 . S
C980 C979 1.415 . S
C981 H957 0.951 . S
C981 C982 1.366 . S
C981 C983 1.388 . S
C982 C981 1.366 . S
C982 C986 1.385 . S
C983 H958 0.951 . S
C983 C981 1.388 . S
C983 C984 1.366 . S
C984 C983 1.366 . S
C984 C985 1.414 . S
C984 C987 1.499 . S
C985 H959 0.950 . S
C985 C984 1.414 . S
C985 C986 1.374 . S
C986 H960 0.950 . S
C986 C982 1.385 . S
C986 C985 1.374 . S
C987 C984 1.499 . S
C987 C988 1.373 . S
C987 C989 1.389 . S
C988 H961 0.950 . S
C988 C974 1.377 1_556 S
C988 C987 1.373 . S
C989 C973 1.377 1_556 S
C989 C987 1.389 . S
C989 C990 1.524 . S
C990 C989 1.524 . S
C990 C991 1.397 . S
C990 C995 1.363 . S
C991 H962 0.950 . S
C991 C990 1.397 . S
C991 C992 1.334 . S
C992 H963 0.950 . S
C992 C991 1.334 . S
C992 C993 1.287 . S
C993 C992 1.287 . S
C993 C994 1.524 . S
C993 H996 0.999 . S
C994 H964 0.950 . S
C994 C993 1.524 . S
C994 C995 1.415 . S
C995 H965 0.950 . S
C995 C990 1.363 . S
C995 C994 1.415 . S
H996 C993 0.999 . S
H997 C978 0.913 . S
H998 C1016 0.951 . S
H999 C1018 0.951 . S
H1000 C1020 0.950 . S
H1001 C1021 0.950 . S
H1002 C1023 0.950 . S
H1003 C1026 0.950 . S
H1004 C1027 0.950 . S
H1005 C1029 0.950 . S
H1006 C1030 0.950 . S
H1007 C1031 0.951 . S
H1008 C1033 0.951 . S
H1009 C1035 0.950 . S
H1010 C1036 0.950 . S
H1011 C1038 0.950 . S
H1012 C1041 0.950 . S
H1013 C1042 0.950 . S
H1014 C1044 0.950 . S
H1015 C1045 0.950 . S
C1016 H998 0.951 . S
C1016 C1017 1.366 . S
C1016 C1018 1.388 . S
C1017 C1016 1.366 . S
C1017 C1021 1.385 . S
C1018 H999 0.951 . S
C1018 C1016 1.388 . S
C1018 C1019 1.366 . S
C1019 C1018 1.366 . S
C1019 C1020 1.414 . S
C1019 C1022 1.499 . S
C1020 H1000 0.950 . S
C1020 C1019 1.414 . S
C1020 C1021 1.374 . S
C1021 H1001 0.950 . S
C1021 C1017 1.385 . S
C1021 C1020 1.374 . S
C1022 C1019 1.499 . S
C1022 C1023 1.373 . S
C1022 C1024 1.389 . S
C1023 H1002 0.950 . S
C1023 C1022 1.373 . S
C1023 C1039 1.377 1_556 S
C1024 C1022 1.389 . S
C1024 C1025 1.524 . S
C1024 C1038 1.377 1_556 S
C1025 C1024 1.524 . S
C1025 C1026 1.397 . S
C1025 C1030 1.363 . S
C1026 H1003 0.950 . S
C1026 C1025 1.397 . S
C1026 C1027 1.334 . S
C1027 H1004 0.950 . S
C1027 C1026 1.334 . S
C1027 C1028 1.287 . S
C1028 C1027 1.287 . S
C1028 C1029 1.524 . S
C1028 H1047 0.913 . S
C1029 H1005 0.950 . S
C1029 C1028 1.524 . S
C1029 C1030 1.415 . S
C1030 H1006 0.950 . S
C1030 C1025 1.363 . S
C1030 C1029 1.415 . S
C1031 H1007 0.951 . S
C1031 C1032 1.366 . S
C1031 C1033 1.388 . S
C1032 C1031 1.366 . S
C1032 C1036 1.385 . S
C1033 H1008 0.951 . S
C1033 C1031 1.388 . S
C1033 C1034 1.366 . S
C1034 C1033 1.366 . S
C1034 C1035 1.414 . S
C1034 C1037 1.499 . S
C1035 H1009 0.950 . S
C1035 C1034 1.414 . S
C1035 C1036 1.374 . S
C1036 H1010 0.950 . S
C1036 C1032 1.385 . S
C1036 C1035 1.374 . S
C1037 C1034 1.499 . S
C1037 C1038 1.373 . S
C1037 C1039 1.389 . S
C1038 H1011 0.950 . S
C1038 C1024 1.377 1_554 S
C1038 C1037 1.373 . S
C1039 C1023 1.377 1_554 S
C1039 C1037 1.389 . S
C1039 C1040 1.524 . S
C1040 C1039 1.524 . S
C1040 C1041 1.397 . S
C1040 C1045 1.363 . S
C1041 H1012 0.950 . S
C1041 C1040 1.397 . S
C1041 C1042 1.334 . S
C1042 H1013 0.950 . S
C1042 C1041 1.334 . S
C1042 C1043 1.287 . S
C1043 C1042 1.287 . S
C1043 C1044 1.524 . S
C1043 H1046 0.999 . S
C1044 H1014 0.950 . S
C1044 C1043 1.524 . S
C1044 C1045 1.415 . S
C1045 H1015 0.950 . S
C1045 C1040 1.363 . S
C1045 C1044 1.415 . S
H1046 C1043 0.999 . S
H1047 C1028 0.913 . S
H1048 C1066 0.951 . S
H1049 C1068 0.951 . S
H1050 C1070 0.950 . S
H1051 C1071 0.950 . S
H1052 C1073 0.950 . S
H1053 C1076 0.950 . S
H1054 C1077 0.950 . S
H1055 C1079 0.950 . S
H1056 C1080 0.950 . S
H1057 C1081 0.951 . S
H1058 C1083 0.951 . S
H1059 C1085 0.950 . S
H1060 C1086 0.950 . S
H1061 C1088 0.950 . S
H1062 C1091 0.950 . S
H1063 C1092 0.950 . S
H1064 C1094 0.950 . S
H1065 C1095 0.950 . S
C1066 H1048 0.951 . S
C1066 C1067 1.366 . S
C1066 C1068 1.388 . S
C1067 C1066 1.366 . S
C1067 C1071 1.385 . S
C1068 H1049 0.951 . S
C1068 C1066 1.388 . S
C1068 C1069 1.366 . S
C1069 C1068 1.366 . S
C1069 C1070 1.414 . S
C1069 C1072 1.499 . S
C1070 H1050 0.950 . S
C1070 C1069 1.414 . S
C1070 C1071 1.374 . S
C1071 H1051 0.950 . S
C1071 C1067 1.385 . S
C1071 C1070 1.374 . S
C1072 C1069 1.499 . S
C1072 C1073 1.373 . S
C1072 C1074 1.389 . S
C1073 H1052 0.950 . S
C1073 C1072 1.373 . S
C1073 C1089 1.377 . S
C1074 C1072 1.389 . S
C1074 C1075 1.524 . S
C1074 C1088 1.377 . S
C1075 C1074 1.524 . S
C1075 C1076 1.397 . S
C1075 C1080 1.363 . S
C1076 H1053 0.950 . S
C1076 C1075 1.397 . S
C1076 C1077 1.334 . S
C1077 H1054 0.950 . S
C1077 C1076 1.334 . S
C1077 C1078 1.287 . S
C1078 C1077 1.287 . S
C1078 C1079 1.524 . S
C1078 H1097 0.913 . S
C1079 H1055 0.950 . S
C1079 C1078 1.524 . S
C1079 C1080 1.415 . S
C1080 H1056 0.950 . S
C1080 C1075 1.363 . S
C1080 C1079 1.415 . S
C1081 H1057 0.951 . S
C1081 C1082 1.366 . S
C1081 C1083 1.388 . S
C1082 C1081 1.366 . S
C1082 C1086 1.385 . S
C1083 H1058 0.951 . S
C1083 C1081 1.388 . S
C1083 C1084 1.366 . S
C1084 C1083 1.366 . S
C1084 C1085 1.414 . S
C1084 C1087 1.499 . S
C1085 H1059 0.950 . S
C1085 C1084 1.414 . S
C1085 C1086 1.374 . S
C1086 H1060 0.950 . S
C1086 C1082 1.385 . S
C1086 C1085 1.374 . S
C1087 C1084 1.499 . S
C1087 C1088 1.373 . S
C1087 C1089 1.389 . S
C1088 H1061 0.950 . S
C1088 C1074 1.377 . S
C1088 C1087 1.373 . S
C1089 C1073 1.377 . S
C1089 C1087 1.389 . S
C1089 C1090 1.524 . S
C1090 C1089 1.524 . S
C1090 C1091 1.397 . S
C1090 C1095 1.363 . S
C1091 H1062 0.950 . S
C1091 C1090 1.397 . S
C1091 C1092 1.334 . S
C1092 H1063 0.950 . S
C1092 C1091 1.334 . S
C1092 C1093 1.287 . S
C1093 C1092 1.287 . S
C1093 C1094 1.524 . S
C1093 H1096 0.999 . S
C1094 H1064 0.950 . S
C1094 C1093 1.524 . S
C1094 C1095 1.415 . S
C1095 H1065 0.950 . S
C1095 C1090 1.363 . S
C1095 C1094 1.415 . S
H1096 C1093 0.999 . S
H1097 C1078 0.913 . S
H1098 C1116 0.951 . S
H1099 C1118 0.951 . S
H1100 C1120 0.950 . S
H1101 C1121 0.950 . S
H1102 C1123 0.950 . S
H1103 C1126 0.950 . S
H1104 C1127 0.950 . S
H1105 C1129 0.950 . S
H1106 C1130 0.950 . S
H1107 C1131 0.951 . S
H1108 C1133 0.951 . S
H1109 C1135 0.950 . S
H1110 C1136 0.950 . S
H1111 C1138 0.950 . S
H1112 C1141 0.950 . S
H1113 C1142 0.950 . S
H1114 C1144 0.950 . S
H1115 C1145 0.950 . S
C1116 H1098 0.951 . S
C1116 C1117 1.366 . S
C1116 C1118 1.388 . S
C1117 C1116 1.366 . S
C1117 C1121 1.385 . S
C1118 H1099 0.951 . S
C1118 C1116 1.388 . S
C1118 C1119 1.366 . S
C1119 C1118 1.366 . S
C1119 C1120 1.414 . S
C1119 C1122 1.499 . S
C1120 H1100 0.950 . S
C1120 C1119 1.414 . S
C1120 C1121 1.374 . S
C1121 H1101 0.950 . S
C1121 C1117 1.385 . S
C1121 C1120 1.374 . S
C1122 C1119 1.499 . S
C1122 C1123 1.373 . S
C1122 C1124 1.389 . S
C1123 H1102 0.950 . S
C1123 C1122 1.373 . S
C1123 C1139 1.377 . S
C1124 C1122 1.389 . S
C1124 C1125 1.524 . S
C1124 C1138 1.377 . S
C1125 C1124 1.524 . S
C1125 C1126 1.397 . S
C1125 C1130 1.363 . S
C1126 H1103 0.950 . S
C1126 C1125 1.397 . S
C1126 C1127 1.334 . S
C1127 H1104 0.950 . S
C1127 C1126 1.334 . S
C1127 C1128 1.287 . S
C1128 C1127 1.287 . S
C1128 C1129 1.524 . S
C1128 H1147 0.913 . S
C1129 H1105 0.950 . S
C1129 C1128 1.524 . S
C1129 C1130 1.415 . S
C1130 H1106 0.950 . S
C1130 C1125 1.363 . S
C1130 C1129 1.415 . S
C1131 H1107 0.951 . S
C1131 C1132 1.366 . S
C1131 C1133 1.388 . S
C1132 C1131 1.366 . S
C1132 C1136 1.385 . S
C1133 H1108 0.951 . S
C1133 C1131 1.388 . S
C1133 C1134 1.366 . S
C1134 C1133 1.366 . S
C1134 C1135 1.414 . S
C1134 C1137 1.499 . S
C1135 H1109 0.950 . S
C1135 C1134 1.414 . S
C1135 C1136 1.374 . S
C1136 H1110 0.950 . S
C1136 C1132 1.385 . S
C1136 C1135 1.374 . S
C1137 C1134 1.499 . S
C1137 C1138 1.373 . S
C1137 C1139 1.389 . S
C1138 H1111 0.950 . S
C1138 C1124 1.377 . S
C1138 C1137 1.373 . S
C1139 C1123 1.377 . S
C1139 C1137 1.389 . S
C1139 C1140 1.524 . S
C1140 C1139 1.524 . S
C1140 C1141 1.397 . S
C1140 C1145 1.363 . S
C1141 H1112 0.950 . S
C1141 C1140 1.397 . S
C1141 C1142 1.334 . S
C1142 H1113 0.950 . S
C1142 C1141 1.334 . S
C1142 C1143 1.287 . S
C1143 C1142 1.287 . S
C1143 C1144 1.524 . S
C1143 H1146 0.999 . S
C1144 H1114 0.950 . S
C1144 C1143 1.524 . S
C1144 C1145 1.415 . S
C1145 H1115 0.950 . S
C1145 C1140 1.363 . S
C1145 C1144 1.415 . S
H1146 C1143 0.999 . S
H1147 C1128 0.913 . S
H1148 C1166 0.951 . S
H1149 C1168 0.951 . S
H1150 C1170 0.950 . S
H1151 C1171 0.950 . S
H1152 C1173 0.950 . S
H1153 C1176 0.950 . S
H1154 C1177 0.950 . S
H1155 C1179 0.950 . S
H1156 C1180 0.950 . S
H1157 C1181 0.951 . S
H1158 C1183 0.951 . S
H1159 C1185 0.950 . S
H1160 C1186 0.950 . S
H1161 C1188 0.950 . S
H1162 C1191 0.950 . S
H1163 C1192 0.950 . S
H1164 C1194 0.950 . S
H1165 C1195 0.950 . S
C1166 H1148 0.951 . S
C1166 C1167 1.366 . S
C1166 C1168 1.388 . S
C1167 C1166 1.366 . S
C1167 C1171 1.385 . S
C1168 H1149 0.951 . S
C1168 C1166 1.388 . S
C1168 C1169 1.366 . S
C1169 C1168 1.366 . S
C1169 C1170 1.414 . S
C1169 C1172 1.499 . S
C1170 H1150 0.950 . S
C1170 C1169 1.414 . S
C1170 C1171 1.374 . S
C1171 H1151 0.950 . S
C1171 C1167 1.385 . S
C1171 C1170 1.374 . S
C1172 C1169 1.499 . S
C1172 C1173 1.373 . S
C1172 C1174 1.389 . S
C1173 H1152 0.950 . S
C1173 C1172 1.373 . S
C1173 C1189 1.377 1_556 S
C1174 C1172 1.389 . S
C1174 C1175 1.524 . S
C1174 C1188 1.377 1_556 S
C1175 C1174 1.524 . S
C1175 C1176 1.397 . S
C1175 C1180 1.363 . S
C1176 H1153 0.950 . S
C1176 C1175 1.397 . S
C1176 C1177 1.334 . S
C1177 H1154 0.950 . S
C1177 C1176 1.334 . S
C1177 C1178 1.287 . S
C1178 C1177 1.287 . S
C1178 C1179 1.524 . S
C1178 H1197 0.913 . S
C1179 H1155 0.950 . S
C1179 C1178 1.524 . S
C1179 C1180 1.415 . S
C1180 H1156 0.950 . S
C1180 C1175 1.363 . S
C1180 C1179 1.415 . S
C1181 H1157 0.951 . S
C1181 C1182 1.366 . S
C1181 C1183 1.388 . S
C1182 C1181 1.366 . S
C1182 C1186 1.385 . S
C1183 H1158 0.951 . S
C1183 C1181 1.388 . S
C1183 C1184 1.366 . S
C1184 C1183 1.366 . S
C1184 C1185 1.414 . S
C1184 C1187 1.499 . S
C1185 H1159 0.950 . S
C1185 C1184 1.414 . S
C1185 C1186 1.374 . S
C1186 H1160 0.950 . S
C1186 C1182 1.385 . S
C1186 C1185 1.374 . S
C1187 C1184 1.499 . S
C1187 C1188 1.373 . S
C1187 C1189 1.389 . S
C1188 H1161 0.950 . S
C1188 C1174 1.377 1_554 S
C1188 C1187 1.373 . S
C1189 C1173 1.377 1_554 S
C1189 C1187 1.389 . S
C1189 C1190 1.524 . S
C1190 C1189 1.524 . S
C1190 C1191 1.397 . S
C1190 C1195 1.363 . S
C1191 H1162 0.950 . S
C1191 C1190 1.397 . S
C1191 C1192 1.334 . S
C1192 H1163 0.950 . S
C1192 C1191 1.334 . S
C1192 C1193 1.287 . S
C1193 C1192 1.287 . S
C1193 C1194 1.524 . S
C1193 H1196 0.999 . S
C1194 H1164 0.950 . S
C1194 C1193 1.524 . S
C1194 C1195 1.415 . S
C1195 H1165 0.950 . S
C1195 C1190 1.363 . S
C1195 C1194 1.415 . S
H1196 C1193 0.999 . S
H1197 C1178 0.913 . S
H1198 C1216 0.951 . S
H1199 C1218 0.951 . S
H1200 C1220 0.950 . S
H1201 C1221 0.950 . S
H1202 C1223 0.950 . S
H1203 C1226 0.950 . S
H1204 C1227 0.950 . S
H1205 C1229 0.950 . S
H1206 C1230 0.950 . S
H1207 C1231 0.951 . S
H1208 C1233 0.951 . S
H1209 C1235 0.950 . S
H1210 C1236 0.950 . S
H1211 C1238 0.950 . S
H1212 C1241 0.950 . S
H1213 C1242 0.950 . S
H1214 C1244 0.950 . S
H1215 C1245 0.950 . S
C1216 H1198 0.951 . S
C1216 C1217 1.366 . S
C1216 C1218 1.388 . S
C1217 C1216 1.366 . S
C1217 C1221 1.385 . S
C1218 H1199 0.951 . S
C1218 C1216 1.388 . S
C1218 C1219 1.366 . S
C1219 C1218 1.366 . S
C1219 C1220 1.414 . S
C1219 C1222 1.499 . S
C1220 H1200 0.950 . S
C1220 C1219 1.414 . S
C1220 C1221 1.374 . S
C1221 H1201 0.950 . S
C1221 C1217 1.385 . S
C1221 C1220 1.374 . S
C1222 C1219 1.499 . S
C1222 C1223 1.373 . S
C1222 C1224 1.389 . S
C1223 H1202 0.950 . S
C1223 C1222 1.373 . S
C1223 C1239 1.377 1_554 S
C1224 C1222 1.389 . S
C1224 C1225 1.524 . S
C1224 C1238 1.377 1_554 S
C1225 C1224 1.524 . S
C1225 C1226 1.397 . S
C1225 C1230 1.363 . S
C1226 H1203 0.950 . S
C1226 C1225 1.397 . S
C1226 C1227 1.334 . S
C1227 H1204 0.950 . S
C1227 C1226 1.334 . S
C1227 C1228 1.287 . S
C1228 C1227 1.287 . S
C1228 C1229 1.524 . S
C1228 H1247 0.913 . S
C1229 H1205 0.950 . S
C1229 C1228 1.524 . S
C1229 C1230 1.415 . S
C1230 H1206 0.950 . S
C1230 C1225 1.363 . S
C1230 C1229 1.415 . S
C1231 H1207 0.951 . S
C1231 C1232 1.366 . S
C1231 C1233 1.388 . S
C1232 C1231 1.366 . S
C1232 C1236 1.385 . S
C1233 H1208 0.951 . S
C1233 C1231 1.388 . S
C1233 C1234 1.366 . S
C1234 C1233 1.366 . S
C1234 C1235 1.414 . S
C1234 C1237 1.499 . S
C1235 H1209 0.950 . S
C1235 C1234 1.414 . S
C1235 C1236 1.374 . S
C1236 H1210 0.950 . S
C1236 C1232 1.385 . S
C1236 C1235 1.374 . S
C1237 C1234 1.499 . S
C1237 C1238 1.373 . S
C1237 C1239 1.389 . S
C1238 H1211 0.950 . S
C1238 C1224 1.377 1_556 S
C1238 C1237 1.373 . S
C1239 C1223 1.377 1_556 S
C1239 C1237 1.389 . S
C1239 C1240 1.524 . S
C1240 C1239 1.524 . S
C1240 C1241 1.397 . S
C1240 C1245 1.363 . S
C1241 H1212 0.950 . S
C1241 C1240 1.397 . S
C1241 C1242 1.334 . S
C1242 H1213 0.950 . S
C1242 C1241 1.334 . S
C1242 C1243 1.287 . S
C1243 C1242 1.287 . S
C1243 C1244 1.524 . S
C1243 H1246 0.999 . S
C1244 H1214 0.950 . S
C1244 C1243 1.524 . S
C1244 C1245 1.415 . S
C1245 H1215 0.950 . S
C1245 C1240 1.363 . S
C1245 C1244 1.415 . S
H1246 C1243 0.999 . S
H1247 C1228 0.913 . S
H1248 C1266 0.951 . S
H1249 C1268 0.951 . S
H1250 C1270 0.950 1_545 S
H1251 C1271 0.950 . S
H1252 C1273 0.950 . S
H1253 C1276 0.950 . S
H1254 C1277 0.950 . S
H1255 C1279 0.950 . S
H1256 C1280 0.950 . S
H1257 C1281 0.951 . S
H1258 C1283 0.951 . S
H1259 C1285 0.950 1_565 S
H1260 C1286 0.950 . S
H1261 C1288 0.950 . S
H1262 C1291 0.950 . S
H1263 C1292 0.950 . S
H1264 C1294 0.950 . S
H1265 C1295 0.950 . S
C1266 H1248 0.951 . S
C1266 C1267 1.366 . S
C1266 C1268 1.388 . S
C1267 C1266 1.366 . S
C1267 C1271 1.385 . S
C1268 H1249 0.951 . S
C1268 C1266 1.388 . S
C1268 C1269 1.366 . S
C1269 C1268 1.366 . S
C1269 C1270 1.414 . S
C1269 C1272 1.499 . S
C1270 H1250 0.950 1_565 S
C1270 C1269 1.414 . S
C1270 C1271 1.374 . S
C1271 H1251 0.950 . S
C1271 C1267 1.385 . S
C1271 C1270 1.374 . S
C1272 C1269 1.499 . S
C1272 C1273 1.373 1_565 S
C1272 C1274 1.389 . S
C1273 H1252 0.950 . S
C1273 C1272 1.373 1_545 S
C1273 C1289 1.377 . S
C1274 C1272 1.389 . S
C1274 C1275 1.524 . S
C1274 C1288 1.377 . S
C1275 C1274 1.524 . S
C1275 C1276 1.397 . S
C1275 C1280 1.363 . S
C1276 H1253 0.950 . S
C1276 C1275 1.397 . S
C1276 C1277 1.334 . S
C1277 H1254 0.950 . S
C1277 C1276 1.334 . S
C1277 C1278 1.287 . S
C1278 C1277 1.287 . S
C1278 C1279 1.524 . S
C1278 H1297 0.913 . S
C1279 H1255 0.950 . S
C1279 C1278 1.524 . S
C1279 C1280 1.415 . S
C1280 H1256 0.950 . S
C1280 C1275 1.363 . S
C1280 C1279 1.415 . S
C1281 H1257 0.951 . S
C1281 C1282 1.366 . S
C1281 C1283 1.388 . S
C1282 C1281 1.366 . S
C1282 C1286 1.385 . S
C1283 H1258 0.951 . S
C1283 C1281 1.388 . S
C1283 C1284 1.366 . S
C1284 C1283 1.366 . S
C1284 C1285 1.414 . S
C1284 C1287 1.499 . S
C1285 H1259 0.950 1_545 S
C1285 C1284 1.414 . S
C1285 C1286 1.374 . S
C1286 H1260 0.950 . S
C1286 C1282 1.385 . S
C1286 C1285 1.374 . S
C1287 C1284 1.499 . S
C1287 C1288 1.373 1_545 S
C1287 C1289 1.389 . S
C1288 H1261 0.950 . S
C1288 C1274 1.377 . S
C1288 C1287 1.373 1_565 S
C1289 C1273 1.377 . S
C1289 C1287 1.389 . S
C1289 C1290 1.524 . S
C1290 C1289 1.524 . S
C1290 C1291 1.397 . S
C1290 C1295 1.363 . S
C1291 H1262 0.950 . S
C1291 C1290 1.397 . S
C1291 C1292 1.334 . S
C1292 H1263 0.950 . S
C1292 C1291 1.334 . S
C1292 C1293 1.287 . S
C1293 C1292 1.287 . S
C1293 C1294 1.524 . S
C1293 H1296 0.999 . S
C1294 H1264 0.950 . S
C1294 C1293 1.524 . S
C1294 C1295 1.415 . S
C1295 H1265 0.950 . S
C1295 C1290 1.363 . S
C1295 C1294 1.415 . S
H1296 C1293 0.999 . S
H1297 C1278 0.913 . S
H1298 C1316 0.951 . S
H1299 C1318 0.951 . S
H1300 C1320 0.950 1_545 S
H1301 C1321 0.950 . S
H1302 C1323 0.950 . S
H1303 C1326 0.950 . S
H1304 C1327 0.950 . S
H1305 C1329 0.950 . S
H1306 C1330 0.950 . S
H1307 C1331 0.951 . S
H1308 C1333 0.951 . S
H1309 C1335 0.950 1_565 S
H1310 C1336 0.950 . S
H1311 C1338 0.950 . S
H1312 C1341 0.950 . S
H1313 C1342 0.950 . S
H1314 C1344 0.950 . S
H1315 C1345 0.950 . S
C1316 H1298 0.951 . S
C1316 C1317 1.366 . S
C1316 C1318 1.388 . S
C1317 C1316 1.366 . S
C1317 C1321 1.385 . S
C1318 H1299 0.951 . S
C1318 C1316 1.388 . S
C1318 C1319 1.366 . S
C1319 C1318 1.366 . S
C1319 C1320 1.414 . S
C1319 C1322 1.499 . S
C1320 H1300 0.950 1_565 S
C1320 C1319 1.414 . S
C1320 C1321 1.374 . S
C1321 H1301 0.950 . S
C1321 C1317 1.385 . S
C1321 C1320 1.374 . S
C1322 C1319 1.499 . S
C1322 C1323 1.373 1_565 S
C1322 C1324 1.389 . S
C1323 H1302 0.950 . S
C1323 C1322 1.373 1_545 S
C1323 C1339 1.377 . S
C1324 C1322 1.389 . S
C1324 C1325 1.524 . S
C1324 C1338 1.377 . S
C1325 C1324 1.524 . S
C1325 C1326 1.397 . S
C1325 C1330 1.363 . S
C1326 H1303 0.950 . S
C1326 C1325 1.397 . S
C1326 C1327 1.334 . S
C1327 H1304 0.950 . S
C1327 C1326 1.334 . S
C1327 C1328 1.287 . S
C1328 C1327 1.287 . S
C1328 C1329 1.524 . S
C1328 H1347 0.913 . S
C1329 H1305 0.950 . S
C1329 C1328 1.524 . S
C1329 C1330 1.415 . S
C1330 H1306 0.950 . S
C1330 C1325 1.363 . S
C1330 C1329 1.415 . S
C1331 H1307 0.951 . S
C1331 C1332 1.366 . S
C1331 C1333 1.388 . S
C1332 C1331 1.366 . S
C1332 C1336 1.385 . S
C1333 H1308 0.951 . S
C1333 C1331 1.388 . S
C1333 C1334 1.366 . S
C1334 C1333 1.366 . S
C1334 C1335 1.414 . S
C1334 C1337 1.499 . S
C1335 H1309 0.950 1_545 S
C1335 C1334 1.414 . S
C1335 C1336 1.374 . S
C1336 H1310 0.950 . S
C1336 C1332 1.385 . S
C1336 C1335 1.374 . S
C1337 C1334 1.499 . S
C1337 C1338 1.373 1_545 S
C1337 C1339 1.389 . S
C1338 H1311 0.950 . S
C1338 C1324 1.377 . S
C1338 C1337 1.373 1_565 S
C1339 C1323 1.377 . S
C1339 C1337 1.389 . S
C1339 C1340 1.524 . S
C1340 C1339 1.524 . S
C1340 C1341 1.397 . S
C1340 C1345 1.363 . S
C1341 H1312 0.950 . S
C1341 C1340 1.397 . S
C1341 C1342 1.334 . S
C1342 H1313 0.950 . S
C1342 C1341 1.334 . S
C1342 C1343 1.287 . S
C1343 C1342 1.287 . S
C1343 C1344 1.524 . S
C1343 H1346 0.999 . S
C1344 H1314 0.950 . S
C1344 C1343 1.524 . S
C1344 C1345 1.415 . S
C1345 H1315 0.950 . S
C1345 C1340 1.363 . S
C1345 C1344 1.415 . S
H1346 C1343 0.999 . S
H1347 C1328 0.913 . S
H1348 C1366 0.951 . S
H1349 C1368 0.951 1_545 S
H1350 C1370 0.950 . S
H1351 C1371 0.950 . S
H1352 C1373 0.950 . S
H1353 C1376 0.950 1_565 S
H1354 C1377 0.950 . S
H1355 C1379 0.950 . S
H1356 C1380 0.950 . S
H1357 C1381 0.951 . S
H1358 C1383 0.951 1_565 S
H1359 C1385 0.950 . S
H1360 C1386 0.950 . S
H1361 C1388 0.950 . S
H1362 C1391 0.950 1_545 S
H1363 C1392 0.950 . S
H1364 C1394 0.950 . S
H1365 C1395 0.950 . S
C1366 H1348 0.951 . S
C1366 C1367 1.366 . S
C1366 C1368 1.388 . S
C1367 C1366 1.366 . S
C1367 C1371 1.385 . S
C1368 H1349 0.951 1_565 S
C1368 C1366 1.388 . S
C1368 C1369 1.366 . S
C1369 C1368 1.366 . S
C1369 C1370 1.414 . S
C1369 C1372 1.499 . S
C1370 H1350 0.950 . S
C1370 C1369 1.414 . S
C1370 C1371 1.374 . S
C1371 H1351 0.950 . S
C1371 C1367 1.385 . S
C1371 C1370 1.374 . S
C1372 C1369 1.499 . S
C1372 C1373 1.373 . S
C1372 C1374 1.389 1_565 S
C1373 H1352 0.950 . S
C1373 C1372 1.373 . S
C1373 C1389 1.377 . S
C1374 C1372 1.389 1_545 S
C1374 C1375 1.524 . S
C1374 C1388 1.377 . S
C1375 C1374 1.524 . S
C1375 C1376 1.397 . S
C1375 C1380 1.363 . S
C1376 H1353 0.950 1_545 S
C1376 C1375 1.397 . S
C1376 C1377 1.334 . S
C1377 H1354 0.950 . S
C1377 C1376 1.334 . S
C1377 C1378 1.287 . S
C1378 C1377 1.287 . S
C1378 C1379 1.524 . S
C1378 H1397 0.913 . S
C1379 H1355 0.950 . S
C1379 C1378 1.524 . S
C1379 C1380 1.415 . S
C1380 H1356 0.950 . S
C1380 C1375 1.363 . S
C1380 C1379 1.415 . S
C1381 H1357 0.951 . S
C1381 C1382 1.366 . S
C1381 C1383 1.388 . S
C1382 C1381 1.366 . S
C1382 C1386 1.385 . S
C1383 H1358 0.951 1_545 S
C1383 C1381 1.388 . S
C1383 C1384 1.366 . S
C1384 C1383 1.366 . S
C1384 C1385 1.414 . S
C1384 C1387 1.499 . S
C1385 H1359 0.950 . S
C1385 C1384 1.414 . S
C1385 C1386 1.374 . S
C1386 H1360 0.950 . S
C1386 C1382 1.385 . S
C1386 C1385 1.374 . S
C1387 C1384 1.499 . S
C1387 C1388 1.373 . S
C1387 C1389 1.389 1_545 S
C1388 H1361 0.950 . S
C1388 C1374 1.377 . S
C1388 C1387 1.373 . S
C1389 C1373 1.377 . S
C1389 C1387 1.389 1_565 S
C1389 C1390 1.524 . S
C1390 C1389 1.524 . S
C1390 C1391 1.397 . S
C1390 C1395 1.363 . S
C1391 H1362 0.950 1_565 S
C1391 C1390 1.397 . S
C1391 C1392 1.334 . S
C1392 H1363 0.950 . S
C1392 C1391 1.334 . S
C1392 C1393 1.287 . S
C1393 C1392 1.287 . S
C1393 C1394 1.524 . S
C1393 H1396 0.999 . S
C1394 H1364 0.950 . S
C1394 C1393 1.524 . S
C1394 C1395 1.415 . S
C1395 H1365 0.950 . S
C1395 C1390 1.363 . S
C1395 C1394 1.415 . S
H1396 C1393 0.999 . S
H1397 C1378 0.913 . S
H1398 C1416 0.951 . S
H1399 C1418 0.951 1_565 S
H1400 C1420 0.950 . S
H1401 C1421 0.950 . S
H1402 C1423 0.950 . S
H1403 C1426 0.950 1_545 S
H1404 C1427 0.950 1_545 S
H1405 C1429 0.950 . S
H1406 C1430 0.950 . S
H1407 C1431 0.951 . S
H1408 C1433 0.951 1_545 S
H1409 C1435 0.950 . S
H1410 C1436 0.950 . S
H1411 C1438 0.950 . S
H1412 C1441 0.950 1_565 S
H1413 C1442 0.950 1_565 S
H1414 C1444 0.950 . S
H1415 C1445 0.950 . S
C1416 H1398 0.951 . S
C1416 C1417 1.366 . S
C1416 C1418 1.388 . S
C1417 C1416 1.366 . S
C1417 C1421 1.385 . S
C1418 H1399 0.951 1_545 S
C1418 C1416 1.388 . S
C1418 C1419 1.366 . S
C1419 C1418 1.366 . S
C1419 C1420 1.414 . S
C1419 C1422 1.499 . S
C1420 H1400 0.950 . S
C1420 C1419 1.414 . S
C1420 C1421 1.374 . S
C1421 H1401 0.950 . S
C1421 C1417 1.385 . S
C1421 C1420 1.374 . S
C1422 C1419 1.499 . S
C1422 C1423 1.373 . S
C1422 C1424 1.389 1_545 S
C1423 H1402 0.950 . S
C1423 C1422 1.373 . S
C1423 C1439 1.377 . S
C1424 C1422 1.389 1_565 S
C1424 C1425 1.524 . S
C1424 C1438 1.377 . S
C1425 C1424 1.524 . S
C1425 C1426 1.397 . S
C1425 C1430 1.363 . S
C1426 H1403 0.950 1_565 S
C1426 C1425 1.397 . S
C1426 C1427 1.334 . S
C1427 H1404 0.950 1_565 S
C1427 C1426 1.334 . S
C1427 C1428 1.287 . S
C1428 C1427 1.287 . S
C1428 C1429 1.524 . S
C1428 H1447 0.913 . S
C1429 H1405 0.950 . S
C1429 C1428 1.524 . S
C1429 C1430 1.415 . S
C1430 H1406 0.950 . S
C1430 C1425 1.363 . S
C1430 C1429 1.415 . S
C1431 H1407 0.951 . S
C1431 C1432 1.366 . S
C1431 C1433 1.388 . S
C1432 C1431 1.366 . S
C1432 C1436 1.385 . S
C1433 H1408 0.951 1_565 S
C1433 C1431 1.388 . S
C1433 C1434 1.366 . S
C1434 C1433 1.366 . S
C1434 C1435 1.414 . S
C1434 C1437 1.499 . S
C1435 H1409 0.950 . S
C1435 C1434 1.414 . S
C1435 C1436 1.374 . S
C1436 H1410 0.950 . S
C1436 C1432 1.385 . S
C1436 C1435 1.374 . S
C1437 C1434 1.499 . S
C1437 C1438 1.373 . S
C1437 C1439 1.389 1_565 S
C1438 H1411 0.950 . S
C1438 C1424 1.377 . S
C1438 C1437 1.373 . S
C1439 C1423 1.377 . S
C1439 C1437 1.389 1_545 S
C1439 C1440 1.524 . S
C1440 C1439 1.524 . S
C1440 C1441 1.397 . S
C1440 C1445 1.363 . S
C1441 H1412 0.950 1_545 S
C1441 C1440 1.397 . S
C1441 C1442 1.334 . S
C1442 H1413 0.950 1_545 S
C1442 C1441 1.334 . S
C1442 C1443 1.287 . S
C1443 C1442 1.287 . S
C1443 C1444 1.524 . S
C1443 H1446 0.999 . S
C1444 H1414 0.950 . S
C1444 C1443 1.524 . S
C1444 C1445 1.415 . S
C1445 H1415 0.950 . S
C1445 C1440 1.363 . S
C1445 C1444 1.415 . S
H1446 C1443 0.999 . S
H1447 C1428 0.913 . S
H1448 C1466 0.951 . S
H1449 C1468 0.951 . S
H1450 C1470 0.950 . S
H1451 C1471 0.950 . S
H1452 C1473 0.950 . S
H1453 C1476 0.950 . S
H1454 C1477 0.950 . S
H1455 C1479 0.953 1_455 S
H1456 C1480 0.950 . S
H1457 C1481 0.951 . S
H1458 C1483 0.951 . S
H1459 C1485 0.950 . S
H1460 C1486 0.950 . S
H1461 C1488 0.950 . S
H1462 C1491 0.950 . S
H1463 C1492 0.950 . S
H1464 C1494 0.953 1_655 S
H1465 C1495 0.950 . S
C1466 H1448 0.951 . S
C1466 C1467 1.366 . S
C1466 C1468 1.388 . S
C1467 C1466 1.366 . S
C1467 C1471 1.385 . S
C1468 H1449 0.951 . S
C1468 C1466 1.388 . S
C1468 C1469 1.366 . S
C1469 C1468 1.366 . S
C1469 C1470 1.414 . S
C1469 C1472 1.499 . S
C1470 H1450 0.950 . S
C1470 C1469 1.414 . S
C1470 C1471 1.374 . S
C1471 H1451 0.950 . S
C1471 C1467 1.385 . S
C1471 C1470 1.374 . S
C1472 C1469 1.499 . S
C1472 C1473 1.373 . S
C1472 C1474 1.389 . S
C1473 H1452 0.950 . S
C1473 C1472 1.373 . S
C1473 C1489 1.377 1_655 S
C1474 C1472 1.389 . S
C1474 C1475 1.524 . S
C1474 C1488 1.377 1_655 S
C1475 C1474 1.524 . S
C1475 C1476 1.397 . S
C1475 C1480 1.363 1_655 S
C1476 H1453 0.950 . S
C1476 C1475 1.397 . S
C1476 C1477 1.334 . S
C1477 H1454 0.950 . S
C1477 C1476 1.334 . S
C1477 C1478 1.287 . S
C1478 C1477 1.287 . S
C1478 C1479 1.519 . S
C1478 H1497 0.913 . S
C1479 H1455 0.953 1_655 S
C1479 C1478 1.519 . S
C1479 C1480 1.416 1_655 S
C1480 H1456 0.950 . S
C1480 C1475 1.363 1_455 S
C1480 C1479 1.416 1_455 S
C1481 H1457 0.951 . S
C1481 C1482 1.366 . S
C1481 C1483 1.388 . S
C1482 C1481 1.366 . S
C1482 C1486 1.385 . S
C1483 H1458 0.951 . S
C1483 C1481 1.388 . S
C1483 C1484 1.366 . S
C1484 C1483 1.366 . S
C1484 C1485 1.414 . S
C1484 C1487 1.499 . S
C1485 H1459 0.950 . S
C1485 C1484 1.414 . S
C1485 C1486 1.374 . S
C1486 H1460 0.950 . S
C1486 C1482 1.385 . S
C1486 C1485 1.374 . S
C1487 C1484 1.499 . S
C1487 C1488 1.373 . S
C1487 C1489 1.389 . S
C1488 H1461 0.950 . S
C1488 C1474 1.377 1_455 S
C1488 C1487 1.373 . S
C1489 C1473 1.377 1_455 S
C1489 C1487 1.389 . S
C1489 C1490 1.524 . S
C1490 C1489 1.524 . S
C1490 C1491 1.397 . S
C1490 C1495 1.363 1_455 S
C1491 H1462 0.950 . S
C1491 C1490 1.397 . S
C1491 C1492 1.334 . S
C1492 H1463 0.950 . S
C1492 C1491 1.334 . S
C1492 C1493 1.287 . S
C1493 C1492 1.287 . S
C1493 C1494 1.518 . S
C1493 H1496 0.999 . S
C1494 H1464 0.953 1_455 S
C1494 C1493 1.518 . S
C1494 C1495 1.416 1_455 S
C1495 H1465 0.950 . S
C1495 C1490 1.363 1_655 S
C1495 C1494 1.416 1_655 S
H1496 C1493 0.999 . S
H1497 C1478 0.913 . S
H1498 C1516 0.951 . S
H1499 C1518 0.951 . S
H1500 C1520 0.950 . S
H1501 C1521 0.950 . S
H1502 C1523 0.950 . S
H1503 C1526 0.950 . S
H1504 C1527 0.950 . S
H1505 C1529 0.950 . S
H1506 C1530 0.950 1_655 S
H1507 C1531 0.951 . S
H1508 C1533 0.951 . S
H1509 C1535 0.950 . S
H1510 C1536 0.950 . S
H1511 C1538 0.950 . S
H1512 C1541 0.950 . S
H1513 C1542 0.950 . S
H1514 C1544 0.950 . S
H1515 C1545 0.950 1_455 S
C1516 H1498 0.951 . S
C1516 C1517 1.366 . S
C1516 C1518 1.388 . S
C1517 C1516 1.366 . S
C1517 C1521 1.385 . S
C1518 H1499 0.951 . S
C1518 C1516 1.388 . S
C1518 C1519 1.366 . S
C1519 C1518 1.366 . S
C1519 C1520 1.414 . S
C1519 C1522 1.499 . S
C1520 H1500 0.950 . S
C1520 C1519 1.414 . S
C1520 C1521 1.374 . S
C1521 H1501 0.950 . S
C1521 C1517 1.385 . S
C1521 C1520 1.374 . S
C1522 C1519 1.499 . S
C1522 C1523 1.373 . S
C1522 C1524 1.389 . S
C1523 H1502 0.950 . S
C1523 C1522 1.373 . S
C1523 C1539 1.377 1_455 S
C1524 C1522 1.389 . S
C1524 C1525 1.524 . S
C1524 C1538 1.377 1_455 S
C1525 C1524 1.524 . S
C1525 C1526 1.397 . S
C1525 C1530 1.363 . S
C1526 H1503 0.950 . S
C1526 C1525 1.397 . S
C1526 C1527 1.334 . S
C1527 H1504 0.950 . S
C1527 C1526 1.334 . S
C1527 C1528 1.287 . S
C1528 C1527 1.287 . S
C1528 C1529 1.524 . S
C1528 H1547 0.913 . S
C1529 H1505 0.950 . S
C1529 C1528 1.524 . S
C1529 C1530 1.415 . S
C1530 H1506 0.950 1_455 S
C1530 C1525 1.363 . S
C1530 C1529 1.415 . S
C1531 H1507 0.951 . S
C1531 C1532 1.366 . S
C1531 C1533 1.388 . S
C1532 C1531 1.366 . S
C1532 C1536 1.385 . S
C1533 H1508 0.951 . S
C1533 C1531 1.388 . S
C1533 C1534 1.366 . S
C1534 C1533 1.366 . S
C1534 C1535 1.414 . S
C1534 C1537 1.499 . S
C1535 H1509 0.950 . S
C1535 C1534 1.414 . S
C1535 C1536 1.374 . S
C1536 H1510 0.950 . S
C1536 C1532 1.385 . S
C1536 C1535 1.374 . S
C1537 C1534 1.499 . S
C1537 C1538 1.373 . S
C1537 C1539 1.389 . S
C1538 H1511 0.950 . S
C1538 C1524 1.377 1_655 S
C1538 C1537 1.373 . S
C1539 C1523 1.377 1_655 S
C1539 C1537 1.389 . S
C1539 C1540 1.524 . S
C1540 C1539 1.524 . S
C1540 C1541 1.397 . S
C1540 C1545 1.363 . S
C1541 H1512 0.950 . S
C1541 C1540 1.397 . S
C1541 C1542 1.334 . S
C1542 H1513 0.950 . S
C1542 C1541 1.334 . S
C1542 C1543 1.287 . S
C1543 C1542 1.287 . S
C1543 C1544 1.524 . S
C1543 H1546 0.999 . S
C1544 H1514 0.950 . S
C1544 C1543 1.524 . S
C1544 C1545 1.415 . S
C1545 H1515 0.950 1_655 S
C1545 C1540 1.363 . S
C1545 C1544 1.415 . S
H1546 C1543 0.999 . S
H1547 C1528 0.913 . S
H1548 C1566 0.951 . S
H1549 C1568 0.951 . S
H1550 C1570 0.950 . S
H1551 C1571 0.950 . S
H1552 C1573 0.950 . S
H1553 C1576 0.950 . S
H1554 C1577 0.950 . S
H1555 C1579 0.950 . S
H1556 C1580 0.950 . S
H1557 C1581 0.951 . S
H1558 C1583 0.951 . S
H1559 C1585 0.950 . S
H1560 C1586 0.950 . S
H1561 C1588 0.950 . S
H1562 C1591 0.950 . S
H1563 C1592 0.950 . S
H1564 C1594 0.950 . S
H1565 C1595 0.950 . S
C1566 H1548 0.951 . S
C1566 C1567 1.366 . S
C1566 C1568 1.388 . S
C1567 C1566 1.366 . S
C1567 C1571 1.385 . S
C1568 H1549 0.951 . S
C1568 C1566 1.388 . S
C1568 C1569 1.366 . S
C1569 C1568 1.366 . S
C1569 C1570 1.414 . S
C1569 C1572 1.499 . S
C1570 H1550 0.950 . S
C1570 C1569 1.414 . S
C1570 C1571 1.374 . S
C1571 H1551 0.950 . S
C1571 C1567 1.385 . S
C1571 C1570 1.374 . S
C1572 C1569 1.499 . S
C1572 C1573 1.373 . S
C1572 C1574 1.389 . S
C1573 H1552 0.950 . S
C1573 C1572 1.373 . S
C1573 C1589 1.377 1_655 S
C1574 C1572 1.389 . S
C1574 C1575 1.524 . S
C1574 C1588 1.377 1_655 S
C1575 C1574 1.524 . S
C1575 C1576 1.397 . S
C1575 C1580 1.363 . S
C1576 H1553 0.950 . S
C1576 C1575 1.397 . S
C1576 C1577 1.334 . S
C1577 H1554 0.950 . S
C1577 C1576 1.334 . S
C1577 C1578 1.287 . S
C1578 C1577 1.287 . S
C1578 C1579 1.524 . S
C1578 H1597 0.913 . S
C1579 H1555 0.950 . S
C1579 C1578 1.524 . S
C1579 C1580 1.415 . S
C1580 H1556 0.950 . S
C1580 C1575 1.363 . S
C1580 C1579 1.415 . S
C1581 H1557 0.951 . S
C1581 C1582 1.366 . S
C1581 C1583 1.388 . S
C1582 C1581 1.366 . S
C1582 C1586 1.385 . S
C1583 H1558 0.951 . S
C1583 C1581 1.388 . S
C1583 C1584 1.366 . S
C1584 C1583 1.366 . S
C1584 C1585 1.414 . S
C1584 C1587 1.499 . S
C1585 H1559 0.950 . S
C1585 C1584 1.414 . S
C1585 C1586 1.374 . S
C1586 H1560 0.950 . S
C1586 C1582 1.385 . S
C1586 C1585 1.374 . S
C1587 C1584 1.499 . S
C1587 C1588 1.373 . S
C1587 C1589 1.389 . S
C1588 H1561 0.950 . S
C1588 C1574 1.377 1_455 S
C1588 C1587 1.373 . S
C1589 C1573 1.377 1_455 S
C1589 C1587 1.389 . S
C1589 C1590 1.524 . S
C1590 C1589 1.524 . S
C1590 C1591 1.397 . S
C1590 C1595 1.363 . S
C1591 H1562 0.950 . S
C1591 C1590 1.397 . S
C1591 C1592 1.334 . S
C1592 H1563 0.950 . S
C1592 C1591 1.334 . S
C1592 C1593 1.287 . S
C1593 C1592 1.287 . S
C1593 C1594 1.524 . S
C1593 H1596 0.999 . S
C1594 H1564 0.950 . S
C1594 C1593 1.524 . S
C1594 C1595 1.415 . S
C1595 H1565 0.950 . S
C1595 C1590 1.363 . S
C1595 C1594 1.415 . S
H1596 C1593 0.999 . S
H1597 C1578 0.913 . S
H1598 C1616 0.951 . S
H1599 C1618 0.951 . S
H1600 C1620 0.950 . S
H1601 C1621 0.950 . S
H1602 C1623 0.950 . S
H1603 C1626 0.950 . S
H1604 C1627 0.950 . S
H1605 C1629 0.950 . S
H1606 C1630 0.950 . S
H1607 C1631 0.951 . S
H1608 C1633 0.951 . S
H1609 C1635 0.950 . S
H1610 C1636 0.950 . S
H1611 C1638 0.950 . S
H1612 C1641 0.950 . S
H1613 C1642 0.950 . S
H1614 C1644 0.950 . S
H1615 C1645 0.950 . S
C1616 H1598 0.951 . S
C1616 C1617 1.366 . S
C1616 C1618 1.388 . S
C1617 C1616 1.366 . S
C1617 C1621 1.385 . S
C1618 H1599 0.951 . S
C1618 C1616 1.388 . S
C1618 C1619 1.366 . S
C1619 C1618 1.366 . S
C1619 C1620 1.414 . S
C1619 C1622 1.499 . S
C1620 H1600 0.950 . S
C1620 C1619 1.414 . S
C1620 C1621 1.374 . S
C1621 H1601 0.950 . S
C1621 C1617 1.385 . S
C1621 C1620 1.374 . S
C1622 C1619 1.499 . S
C1622 C1623 1.373 . S
C1622 C1624 1.389 . S
C1623 H1602 0.950 . S
C1623 C1622 1.373 . S
C1623 C1639 1.377 1_455 S
C1624 C1622 1.389 . S
C1624 C1625 1.524 . S
C1624 C1638 1.377 1_455 S
C1625 C1624 1.524 . S
C1625 C1626 1.397 . S
C1625 C1630 1.363 1_455 S
C1626 H1603 0.950 . S
C1626 C1625 1.397 . S
C1626 C1627 1.334 . S
C1627 H1604 0.950 . S
C1627 C1626 1.334 . S
C1627 C1628 1.287 . S
C1628 C1627 1.287 . S
C1628 C1629 1.524 1_455 S
C1628 H1647 0.913 . S
C1629 H1605 0.950 . S
C1629 C1628 1.524 1_655 S
C1629 C1630 1.415 . S
C1630 H1606 0.950 . S
C1630 C1625 1.363 1_655 S
C1630 C1629 1.415 . S
C1631 H1607 0.951 . S
C1631 C1632 1.366 . S
C1631 C1633 1.388 . S
C1632 C1631 1.366 . S
C1632 C1636 1.385 . S
C1633 H1608 0.951 . S
C1633 C1631 1.388 . S
C1633 C1634 1.366 . S
C1634 C1633 1.366 . S
C1634 C1635 1.414 . S
C1634 C1637 1.499 . S
C1635 H1609 0.950 . S
C1635 C1634 1.414 . S
C1635 C1636 1.374 . S
C1636 H1610 0.950 . S
C1636 C1632 1.385 . S
C1636 C1635 1.374 . S
C1637 C1634 1.499 . S
C1637 C1638 1.373 . S
C1637 C1639 1.389 . S
C1638 H1611 0.950 . S
C1638 C1624 1.377 1_655 S
C1638 C1637 1.373 . S
C1639 C1623 1.377 1_655 S
C1639 C1637 1.389 . S
C1639 C1640 1.524 . S
C1640 C1639 1.524 . S
C1640 C1641 1.397 . S
C1640 C1645 1.363 1_655 S
C1641 H1612 0.950 . S
C1641 C1640 1.397 . S
C1641 C1642 1.334 . S
C1642 H1613 0.950 . S
C1642 C1641 1.334 . S
C1642 C1643 1.287 . S
C1643 C1642 1.287 . S
C1643 C1644 1.524 1_655 S
C1643 H1646 0.999 . S
C1644 H1614 0.950 . S
C1644 C1643 1.524 1_455 S
C1644 C1645 1.415 . S
C1645 H1615 0.950 . S
C1645 C1640 1.363 1_455 S
C1645 C1644 1.415 . S
H1646 C1643 0.999 . S
H1647 C1628 0.913 . S
H1648 C1666 0.951 . S
H1649 C1668 0.951 . S
H1650 C1670 0.950 . S
H1651 C1671 0.950 . S
H1652 C1673 0.950 . S
H1653 C1676 0.950 . S
H1654 C1677 0.950 . S
H1655 C1679 0.950 . S
H1656 C1680 0.950 . S
H1657 C1681 0.951 . S
H1658 C1683 0.951 . S
H1659 C1685 0.950 . S
H1660 C1686 0.950 . S
H1661 C1688 0.950 . S
H1662 C1691 0.950 . S
H1663 C1692 0.950 . S
H1664 C1694 0.950 . S
H1665 C1695 0.950 . S
C1666 H1648 0.951 . S
C1666 C1667 1.366 . S
C1666 C1668 1.388 . S
C1667 C1666 1.366 . S
C1667 C1671 1.385 . S
C1668 H1649 0.951 . S
C1668 C1666 1.388 . S
C1668 C1669 1.366 . S
C1669 C1668 1.366 . S
C1669 C1670 1.414 . S
C1669 C1672 1.499 . S
C1670 H1650 0.950 . S
C1670 C1669 1.414 . S
C1670 C1671 1.374 . S
C1671 H1651 0.950 . S
C1671 C1667 1.385 . S
C1671 C1670 1.374 . S
C1672 C1669 1.499 . S
C1672 C1673 1.373 . S
C1672 C1674 1.389 . S
C1673 H1652 0.950 . S
C1673 C1672 1.373 . S
C1673 C1689 1.377 . S
C1674 C1672 1.389 . S
C1674 C1675 1.524 . S
C1674 C1688 1.377 . S
C1675 C1674 1.524 . S
C1675 C1676 1.397 . S
C1675 C1680 1.363 . S
C1676 H1653 0.950 . S
C1676 C1675 1.397 . S
C1676 C1677 1.334 . S
C1677 H1654 0.950 . S
C1677 C1676 1.334 . S
C1677 C1678 1.287 . S
C1678 C1677 1.287 . S
C1678 C1679 1.524 . S
C1678 H1697 0.913 . S
C1679 H1655 0.950 . S
C1679 C1678 1.524 . S
C1679 C1680 1.415 . S
C1680 H1656 0.950 . S
C1680 C1675 1.363 . S
C1680 C1679 1.415 . S
C1681 H1657 0.951 . S
C1681 C1682 1.366 . S
C1681 C1683 1.388 . S
C1682 C1681 1.366 . S
C1682 C1686 1.385 . S
C1683 H1658 0.951 . S
C1683 C1681 1.388 . S
C1683 C1684 1.366 . S
C1684 C1683 1.366 . S
C1684 C1685 1.414 . S
C1684 C1687 1.499 . S
C1685 H1659 0.950 . S
C1685 C1684 1.414 . S
C1685 C1686 1.374 . S
C1686 H1660 0.950 . S
C1686 C1682 1.385 . S
C1686 C1685 1.374 . S
C1687 C1684 1.499 . S
C1687 C1688 1.373 . S
C1687 C1689 1.389 . S
C1688 H1661 0.950 . S
C1688 C1674 1.377 . S
C1688 C1687 1.373 . S
C1689 C1673 1.377 . S
C1689 C1687 1.389 . S
C1689 C1690 1.524 . S
C1690 C1689 1.524 . S
C1690 C1691 1.397 . S
C1690 C1695 1.363 . S
C1691 H1662 0.950 . S
C1691 C1690 1.397 . S
C1691 C1692 1.334 . S
C1692 H1663 0.950 . S
C1692 C1691 1.334 . S
C1692 C1693 1.287 . S
C1693 C1692 1.287 . S
C1693 C1694 1.524 . S
C1693 H1696 0.999 . S
C1694 H1664 0.950 . S
C1694 C1693 1.524 . S
C1694 C1695 1.415 . S
C1695 H1665 0.950 . S
C1695 C1690 1.363 . S
C1695 C1694 1.415 . S
H1696 C1693 0.999 . S
H1697 C1678 0.913 . S
H1698 C1716 0.951 . S
H1699 C1718 0.951 . S
H1700 C1720 0.950 . S
H1701 C1721 0.950 . S
H1702 C1723 0.950 . S
H1703 C1726 0.950 . S
H1704 C1727 0.950 . S
H1705 C1729 0.950 . S
H1706 C1730 0.950 . S
H1707 C1731 0.951 . S
H1708 C1733 0.951 . S
H1709 C1735 0.950 . S
H1710 C1736 0.950 . S
H1711 C1738 0.950 . S
H1712 C1741 0.950 . S
H1713 C1742 0.950 . S
H1714 C1744 0.950 . S
H1715 C1745 0.950 . S
C1716 H1698 0.951 . S
C1716 C1717 1.366 . S
C1716 C1718 1.388 . S
C1717 C1716 1.366 . S
C1717 C1721 1.385 . S
C1718 H1699 0.951 . S
C1718 C1716 1.388 . S
C1718 C1719 1.366 . S
C1719 C1718 1.366 . S
C1719 C1720 1.414 . S
C1719 C1722 1.499 . S
C1720 H1700 0.950 . S
C1720 C1719 1.414 . S
C1720 C1721 1.374 . S
C1721 H1701 0.950 . S
C1721 C1717 1.385 . S
C1721 C1720 1.374 . S
C1722 C1719 1.499 . S
C1722 C1723 1.373 . S
C1722 C1724 1.389 . S
C1723 H1702 0.950 . S
C1723 C1722 1.373 . S
C1723 C1739 1.377 . S
C1724 C1722 1.389 . S
C1724 C1725 1.524 . S
C1724 C1738 1.377 . S
C1725 C1724 1.524 . S
C1725 C1726 1.397 . S
C1725 C1730 1.363 . S
C1726 H1703 0.950 . S
C1726 C1725 1.397 . S
C1726 C1727 1.334 . S
C1727 H1704 0.950 . S
C1727 C1726 1.334 . S
C1727 C1728 1.287 . S
C1728 C1727 1.287 . S
C1728 C1729 1.524 . S
C1728 H1747 0.913 . S
C1729 H1705 0.950 . S
C1729 C1728 1.524 . S
C1729 C1730 1.415 . S
C1730 H1706 0.950 . S
C1730 C1725 1.363 . S
C1730 C1729 1.415 . S
C1731 H1707 0.951 . S
C1731 C1732 1.366 . S
C1731 C1733 1.388 . S
C1732 C1731 1.366 . S
C1732 C1736 1.385 . S
C1733 H1708 0.951 . S
C1733 C1731 1.388 . S
C1733 C1734 1.366 . S
C1734 C1733 1.366 . S
C1734 C1735 1.414 . S
C1734 C1737 1.499 . S
C1735 H1709 0.950 . S
C1735 C1734 1.414 . S
C1735 C1736 1.374 . S
C1736 H1710 0.950 . S
C1736 C1732 1.385 . S
C1736 C1735 1.374 . S
C1737 C1734 1.499 . S
C1737 C1738 1.373 . S
C1737 C1739 1.389 . S
C1738 H1711 0.950 . S
C1738 C1724 1.377 . S
C1738 C1737 1.373 . S
C1739 C1723 1.377 . S
C1739 C1737 1.389 . S
C1739 C1740 1.524 . S
C1740 C1739 1.524 . S
C1740 C1741 1.397 . S
C1740 C1745 1.363 . S
C1741 H1712 0.950 . S
C1741 C1740 1.397 . S
C1741 C1742 1.334 . S
C1742 H1713 0.950 . S
C1742 C1741 1.334 . S
C1742 C1743 1.287 . S
C1743 C1742 1.287 . S
C1743 C1744 1.524 . S
C1743 H1746 0.999 . S
C1744 H1714 0.950 . S
C1744 C1743 1.524 . S
C1744 C1745 1.415 . S
C1745 H1715 0.950 . S
C1745 C1740 1.363 . S
C1745 C1744 1.415 . S
H1746 C1743 0.999 . S
H1747 C1728 0.913 . S
H1748 C1766 0.951 . S
H1749 C1768 0.951 . S
H1750 C1770 0.950 . S
H1751 C1771 0.950 . S
H1752 C1773 0.950 . S
H1753 C1776 0.950 . S
H1754 C1777 0.950 . S
H1755 C1779 0.950 . S
H1756 C1780 0.950 . S
H1757 C1781 0.951 . S
H1758 C1783 0.951 . S
H1759 C1785 0.950 . S
H1760 C1786 0.950 . S
H1761 C1788 0.950 . S
H1762 C1791 0.950 . S
H1763 C1792 0.950 . S
H1764 C1794 0.950 . S
H1765 C1795 0.950 . S
C1766 H1748 0.951 . S
C1766 C1767 1.366 . S
C1766 C1768 1.388 . S
C1767 C1766 1.366 . S
C1767 C1771 1.385 . S
C1768 H1749 0.951 . S
C1768 C1766 1.388 . S
C1768 C1769 1.366 . S
C1769 C1768 1.366 . S
C1769 C1770 1.414 . S
C1769 C1772 1.499 . S
C1770 H1750 0.950 . S
C1770 C1769 1.414 . S
C1770 C1771 1.374 . S
C1771 H1751 0.950 . S
C1771 C1767 1.385 . S
C1771 C1770 1.374 . S
C1772 C1769 1.499 . S
C1772 C1773 1.373 . S
C1772 C1774 1.389 . S
C1773 H1752 0.950 . S
C1773 C1772 1.373 . S
C1773 C1789 1.377 . S
C1774 C1772 1.389 . S
C1774 C1775 1.524 . S
C1774 C1788 1.377 . S
C1775 C1774 1.524 . S
C1775 C1776 1.397 . S
C1775 C1780 1.363 . S
C1776 H1753 0.950 . S
C1776 C1775 1.397 . S
C1776 C1777 1.334 . S
C1777 H1754 0.950 . S
C1777 C1776 1.334 . S
C1777 C1778 1.287 . S
C1778 C1777 1.287 . S
C1778 C1779 1.524 . S
C1778 H1797 0.913 . S
C1779 H1755 0.950 . S
C1779 C1778 1.524 . S
C1779 C1780 1.415 . S
C1780 H1756 0.950 . S
C1780 C1775 1.363 . S
C1780 C1779 1.415 . S
C1781 H1757 0.951 . S
C1781 C1782 1.366 . S
C1781 C1783 1.388 . S
C1782 C1781 1.366 . S
C1782 C1786 1.385 . S
C1783 H1758 0.951 . S
C1783 C1781 1.388 . S
C1783 C1784 1.366 . S
C1784 C1783 1.366 . S
C1784 C1785 1.414 . S
C1784 C1787 1.499 . S
C1785 H1759 0.950 . S
C1785 C1784 1.414 . S
C1785 C1786 1.374 . S
C1786 H1760 0.950 . S
C1786 C1782 1.385 . S
C1786 C1785 1.374 . S
C1787 C1784 1.499 . S
C1787 C1788 1.373 . S
C1787 C1789 1.389 . S
C1788 H1761 0.950 . S
C1788 C1774 1.377 . S
C1788 C1787 1.373 . S
C1789 C1773 1.377 . S
C1789 C1787 1.389 . S
C1789 C1790 1.524 . S
C1790 C1789 1.524 . S
C1790 C1791 1.397 . S
C1790 C1795 1.363 . S
C1791 H1762 0.950 . S
C1791 C1790 1.397 . S
C1791 C1792 1.334 . S
C1792 H1763 0.950 . S
C1792 C1791 1.334 . S
C1792 C1793 1.287 . S
C1793 C1792 1.287 . S
C1793 C1794 1.524 . S
C1793 H1796 0.999 . S
C1794 H1764 0.950 . S
C1794 C1793 1.524 . S
C1794 C1795 1.415 . S
C1795 H1765 0.950 . S
C1795 C1790 1.363 . S
C1795 C1794 1.415 . S
H1796 C1793 0.999 . S
H1797 C1778 0.913 . S
H1798 C1816 0.951 . S
H1799 C1818 0.951 . S
H1800 C1820 0.950 . S
H1801 C1821 0.950 . S
H1802 C1823 0.950 . S
H1803 C1826 0.950 . S
H1804 C1827 0.950 . S
H1805 C1829 0.950 . S
H1806 C1830 0.950 . S
H1807 C1831 0.951 . S
H1808 C1833 0.951 . S
H1809 C1835 0.950 . S
H1810 C1836 0.950 . S
H1811 C1838 0.950 . S
H1812 C1841 0.950 . S
H1813 C1842 0.950 . S
H1814 C1844 0.950 . S
H1815 C1845 0.950 . S
C1816 H1798 0.951 . S
C1816 C1817 1.366 . S
C1816 C1818 1.388 . S
C1817 C1816 1.366 . S
C1817 C1821 1.385 . S
C1818 H1799 0.951 . S
C1818 C1816 1.388 . S
C1818 C1819 1.366 . S
C1819 C1818 1.366 . S
C1819 C1820 1.414 . S
C1819 C1822 1.499 . S
C1820 H1800 0.950 . S
C1820 C1819 1.414 . S
C1820 C1821 1.374 . S
C1821 H1801 0.950 . S
C1821 C1817 1.385 . S
C1821 C1820 1.374 . S
C1822 C1819 1.499 . S
C1822 C1823 1.373 . S
C1822 C1824 1.389 . S
C1823 H1802 0.950 . S
C1823 C1822 1.373 . S
C1823 C1839 1.377 . S
C1824 C1822 1.389 . S
C1824 C1825 1.524 . S
C1824 C1838 1.377 . S
C1825 C1824 1.524 . S
C1825 C1826 1.397 . S
C1825 C1830 1.363 . S
C1826 H1803 0.950 . S
C1826 C1825 1.397 . S
C1826 C1827 1.334 . S
C1827 H1804 0.950 . S
C1827 C1826 1.334 . S
C1827 C1828 1.287 . S
C1828 C1827 1.287 . S
C1828 C1829 1.524 . S
C1828 H1847 0.913 . S
C1829 H1805 0.950 . S
C1829 C1828 1.524 . S
C1829 C1830 1.415 . S
C1830 H1806 0.950 . S
C1830 C1825 1.363 . S
C1830 C1829 1.415 . S
C1831 H1807 0.951 . S
C1831 C1832 1.366 . S
C1831 C1833 1.388 . S
C1832 C1831 1.366 . S
C1832 C1836 1.385 . S
C1833 H1808 0.951 . S
C1833 C1831 1.388 . S
C1833 C1834 1.366 . S
C1834 C1833 1.366 . S
C1834 C1835 1.414 . S
C1834 C1837 1.499 . S
C1835 H1809 0.950 . S
C1835 C1834 1.414 . S
C1835 C1836 1.374 . S
C1836 H1810 0.950 . S
C1836 C1832 1.385 . S
C1836 C1835 1.374 . S
C1837 C1834 1.499 . S
C1837 C1838 1.373 . S
C1837 C1839 1.389 . S
C1838 H1811 0.950 . S
C1838 C1824 1.377 . S
C1838 C1837 1.373 . S
C1839 C1823 1.377 . S
C1839 C1837 1.389 . S
C1839 C1840 1.524 . S
C1840 C1839 1.524 . S
C1840 C1841 1.397 . S
C1840 C1845 1.363 . S
C1841 H1812 0.950 . S
C1841 C1840 1.397 . S
C1841 C1842 1.334 . S
C1842 H1813 0.950 . S
C1842 C1841 1.334 . S
C1842 C1843 1.287 . S
C1843 C1842 1.287 . S
C1843 C1844 1.524 . S
C1843 H1846 0.999 . S
C1844 H1814 0.950 . S
C1844 C1843 1.524 . S
C1844 C1845 1.415 . S
C1845 H1815 0.950 . S
C1845 C1840 1.363 . S
C1845 C1844 1.415 . S
H1846 C1843 0.999 . S
H1847 C1828 0.913 . S
H1848 C1866 0.951 . S
H1849 C1868 0.951 . S
H1850 C1870 0.950 . S
H1851 C1871 0.950 . S
H1852 C1873 0.950 . S
H1853 C1876 0.950 . S
H1854 C1877 0.950 . S
H1855 C1879 0.950 . S
H1856 C1880 0.950 . S
H1857 C1881 0.951 . S
H1858 C1883 0.951 . S
H1859 C1885 0.950 . S
H1860 C1886 0.950 . S
H1861 C1888 0.950 . S
H1862 C1891 0.950 . S
H1863 C1892 0.950 . S
H1864 C1894 0.950 . S
H1865 C1895 0.950 . S
C1866 H1848 0.951 . S
C1866 C1867 1.366 . S
C1866 C1868 1.388 . S
C1867 C1866 1.366 . S
C1867 C1871 1.385 . S
C1868 H1849 0.951 . S
C1868 C1866 1.388 . S
C1868 C1869 1.366 . S
C1869 C1868 1.366 . S
C1869 C1870 1.414 . S
C1869 C1872 1.499 . S
C1870 H1850 0.950 . S
C1870 C1869 1.414 . S
C1870 C1871 1.374 . S
C1871 H1851 0.950 . S
C1871 C1867 1.385 . S
C1871 C1870 1.374 . S
C1872 C1869 1.499 . S
C1872 C1873 1.373 . S
C1872 C1874 1.389 . S
C1873 H1852 0.950 . S
C1873 C1872 1.373 . S
C1873 C1889 1.377 . S
C1874 C1872 1.389 . S
C1874 C1875 1.524 . S
C1874 C1888 1.377 . S
C1875 C1874 1.524 . S
C1875 C1876 1.397 . S
C1875 C1880 1.363 . S
C1876 H1853 0.950 . S
C1876 C1875 1.397 . S
C1876 C1877 1.334 . S
C1877 H1854 0.950 . S
C1877 C1876 1.334 . S
C1877 C1878 1.287 . S
C1878 C1877 1.287 . S
C1878 C1879 1.524 . S
C1878 H1897 0.913 . S
C1879 H1855 0.950 . S
C1879 C1878 1.524 . S
C1879 C1880 1.415 . S
C1880 H1856 0.950 . S
C1880 C1875 1.363 . S
C1880 C1879 1.415 . S
C1881 H1857 0.951 . S
C1881 C1882 1.366 . S
C1881 C1883 1.388 . S
C1882 C1881 1.366 . S
C1882 C1886 1.385 . S
C1883 H1858 0.951 . S
C1883 C1881 1.388 . S
C1883 C1884 1.366 . S
C1884 C1883 1.366 . S
C1884 C1885 1.414 . S
C1884 C1887 1.499 . S
C1885 H1859 0.950 . S
C1885 C1884 1.414 . S
C1885 C1886 1.374 . S
C1886 H1860 0.950 . S
C1886 C1882 1.385 . S
C1886 C1885 1.374 . S
C1887 C1884 1.499 . S
C1887 C1888 1.373 . S
C1887 C1889 1.389 . S
C1888 H1861 0.950 . S
C1888 C1874 1.377 . S
C1888 C1887 1.373 . S
C1889 C1873 1.377 . S
C1889 C1887 1.389 . S
C1889 C1890 1.524 . S
C1890 C1889 1.524 . S
C1890 C1891 1.397 . S
C1890 C1895 1.363 . S
C1891 H1862 0.950 . S
C1891 C1890 1.397 . S
C1891 C1892 1.334 . S
C1892 H1863 0.950 . S
C1892 C1891 1.334 . S
C1892 C1893 1.287 . S
C1893 C1892 1.287 . S
C1893 C1894 1.524 . S
C1893 H1896 0.999 . S
C1894 H1864 0.950 . S
C1894 C1893 1.524 . S
C1894 C1895 1.415 . S
C1895 H1865 0.950 . S
C1895 C1890 1.363 . S
C1895 C1894 1.415 . S
H1896 C1893 0.999 . S
H1897 C1878 0.913 . S
H1898 C1916 0.951 . S
H1899 C1918 0.951 . S
H1900 C1920 0.950 . S
H1901 C1921 0.950 . S
H1902 C1923 0.950 . S
H1903 C1926 0.950 . S
H1904 C1927 0.950 . S
H1905 C1929 0.950 . S
H1906 C1930 0.950 . S
H1907 C1931 0.951 . S
H1908 C1933 0.951 . S
H1909 C1935 0.950 . S
H1910 C1936 0.950 . S
H1911 C1938 0.950 . S
H1912 C1941 0.950 . S
H1913 C1942 0.950 . S
H1914 C1944 0.950 . S
H1915 C1945 0.950 . S
C1916 H1898 0.951 . S
C1916 C1917 1.366 . S
C1916 C1918 1.388 . S
C1917 C1916 1.366 . S
C1917 C1921 1.385 . S
C1918 H1899 0.951 . S
C1918 C1916 1.388 . S
C1918 C1919 1.366 . S
C1919 C1918 1.366 . S
C1919 C1920 1.414 . S
C1919 C1922 1.499 . S
C1920 H1900 0.950 . S
C1920 C1919 1.414 . S
C1920 C1921 1.374 . S
C1921 H1901 0.950 . S
C1921 C1917 1.385 . S
C1921 C1920 1.374 . S
C1922 C1919 1.499 . S
C1922 C1923 1.373 . S
C1922 C1924 1.389 . S
C1923 H1902 0.950 . S
C1923 C1922 1.373 . S
C1923 C1939 1.377 . S
C1924 C1922 1.389 . S
C1924 C1925 1.524 . S
C1924 C1938 1.377 . S
C1925 C1924 1.524 . S
C1925 C1926 1.397 . S
C1925 C1930 1.363 . S
C1926 H1903 0.950 . S
C1926 C1925 1.397 . S
C1926 C1927 1.334 . S
C1927 H1904 0.950 . S
C1927 C1926 1.334 . S
C1927 C1928 1.287 . S
C1928 C1927 1.287 . S
C1928 C1929 1.524 . S
C1928 H1947 0.913 . S
C1929 H1905 0.950 . S
C1929 C1928 1.524 . S
C1929 C1930 1.415 . S
C1930 H1906 0.950 . S
C1930 C1925 1.363 . S
C1930 C1929 1.415 . S
C1931 H1907 0.951 . S
C1931 C1932 1.366 . S
C1931 C1933 1.388 . S
C1932 C1931 1.366 . S
C1932 C1936 1.385 . S
C1933 H1908 0.951 . S
C1933 C1931 1.388 . S
C1933 C1934 1.366 . S
C1934 C1933 1.366 . S
C1934 C1935 1.414 . S
C1934 C1937 1.499 . S
C1935 H1909 0.950 . S
C1935 C1934 1.414 . S
C1935 C1936 1.374 . S
C1936 H1910 0.950 . S
C1936 C1932 1.385 . S
C1936 C1935 1.374 . S
C1937 C1934 1.499 . S
C1937 C1938 1.373 . S
C1937 C1939 1.389 . S
C1938 H1911 0.950 . S
C1938 C1924 1.377 . S
C1938 C1937 1.373 . S
C1939 C1923 1.377 . S
C1939 C1937 1.389 . S
C1939 C1940 1.524 . S
C1940 C1939 1.524 . S
C1940 C1941 1.397 . S
C1940 C1945 1.363 . S
C1941 H1912 0.950 . S
C1941 C1940 1.397 . S
C1941 C1942 1.334 . S
C1942 H1913 0.950 . S
C1942 C1941 1.334 . S
C1942 C1943 1.287 . S
C1943 C1942 1.287 . S
C1943 C1944 1.524 . S
C1943 H1946 0.999 . S
C1944 H1914 0.950 . S
C1944 C1943 1.524 . S
C1944 C1945 1.415 . S
C1945 H1915 0.950 . S
C1945 C1940 1.363 . S
C1945 C1944 1.415 . S
H1946 C1943 0.999 . S
H1947 C1928 0.913 . S
H1948 C1966 0.951 . S
H1949 C1968 0.951 . S
H1950 C1970 0.950 . S
H1951 C1971 0.950 . S
H1952 C1973 0.950 . S
H1953 C1976 0.950 . S
H1954 C1977 0.950 . S
H1955 C1979 0.950 . S
H1956 C1980 0.950 . S
H1957 C1981 0.951 . S
H1958 C1983 0.951 . S
H1959 C1985 0.950 . S
H1960 C1986 0.950 . S
H1961 C1988 0.950 . S
H1962 C1991 0.950 . S
H1963 C1992 0.950 . S
H1964 C1994 0.950 . S
H1965 C1995 0.950 . S
C1966 H1948 0.951 . S
C1966 C1967 1.366 . S
C1966 C1968 1.388 . S
C1967 C1966 1.366 . S
C1967 C1971 1.385 . S
C1968 H1949 0.951 . S
C1968 C1966 1.388 . S
C1968 C1969 1.366 . S
C1969 C1968 1.366 . S
C1969 C1970 1.414 . S
C1969 C1972 1.499 . S
C1970 H1950 0.950 . S
C1970 C1969 1.414 . S
C1970 C1971 1.374 . S
C1971 H1951 0.950 . S
C1971 C1967 1.385 . S
C1971 C1970 1.374 . S
C1972 C1969 1.499 . S
C1972 C1973 1.373 . S
C1972 C1974 1.389 . S
C1973 H1952 0.950 . S
C1973 C1972 1.373 . S
C1973 C1989 1.377 . S
C1974 C1972 1.389 . S
C1974 C1975 1.524 . S
C1974 C1988 1.377 . S
C1975 C1974 1.524 . S
C1975 C1976 1.397 . S
C1975 C1980 1.363 . S
C1976 H1953 0.950 . S
C1976 C1975 1.397 . S
C1976 C1977 1.334 . S
C1977 H1954 0.950 . S
C1977 C1976 1.334 . S
C1977 C1978 1.287 . S
C1978 C1977 1.287 . S
C1978 C1979 1.524 . S
C1978 H1997 0.913 . S
C1979 H1955 0.950 . S
C1979 C1978 1.524 . S
C1979 C1980 1.415 . S
C1980 H1956 0.950 . S
C1980 C1975 1.363 . S
C1980 C1979 1.415 . S
C1981 H1957 0.951 . S
C1981 C1982 1.366 . S
C1981 C1983 1.388 . S
C1982 C1981 1.366 . S
C1982 C1986 1.385 . S
C1983 H1958 0.951 . S
C1983 C1981 1.388 . S
C1983 C1984 1.366 . S
C1984 C1983 1.366 . S
C1984 C1985 1.414 . S
C1984 C1987 1.499 . S
C1985 H1959 0.950 . S
C1985 C1984 1.414 . S
C1985 C1986 1.374 . S
C1986 H1960 0.950 . S
C1986 C1982 1.385 . S
C1986 C1985 1.374 . S
C1987 C1984 1.499 . S
C1987 C1988 1.373 . S
C1987 C1989 1.389 . S
C1988 H1961 0.950 . S
C1988 C1974 1.377 . S
C1988 C1987 1.373 . S
C1989 C1973 1.377 . S
C1989 C1987 1.389 . S
C1989 C1990 1.524 . S
C1990 C1989 1.524 . S
C1990 C1991 1.397 . S
C1990 C1995 1.363 . S
C1991 H1962 0.950 . S
C1991 C1990 1.397 . S
C1991 C1992 1.334 . S
C1992 H1963 0.950 . S
C1992 C1991 1.334 . S
C1992 C1993 1.287 . S
C1993 C1992 1.287 . S
C1993 C1994 1.524 . S
C1993 H1996 0.999 . S
C1994 H1964 0.950 . S
C1994 C1993 1.524 . S
C1994 C1995 1.415 . S
C1995 H1965 0.950 . S
C1995 C1990 1.363 . S
C1995 C1994 1.415 . S
H1996 C1993 0.999 . S
H1997 C1978 0.913 . S
H1998 C2016 0.951 . S
H1999 C2018 0.951 . S
H2000 C2020 0.950 . S
H2001 C2021 0.950 . S
H2002 C2023 0.950 . S
H2003 C2026 0.950 . S
H2004 C2027 0.950 . S
H2005 C2029 0.950 . S
H2006 C2030 0.950 . S
H2007 C2031 0.951 . S
H2008 C2033 0.951 . S
H2009 C2035 0.950 . S
H2010 C2036 0.950 . S
H2011 C2038 0.950 . S
H2012 C2041 0.950 . S
H2013 C2042 0.950 . S
H2014 C2044 0.950 . S
H2015 C2045 0.950 . S
C2016 H1998 0.951 . S
C2016 C2017 1.366 . S
C2016 C2018 1.388 . S
C2017 C2016 1.366 . S
C2017 C2021 1.385 . S
C2018 H1999 0.951 . S
C2018 C2016 1.388 . S
C2018 C2019 1.366 . S
C2019 C2018 1.366 . S
C2019 C2020 1.414 . S
C2019 C2022 1.499 . S
C2020 H2000 0.950 . S
C2020 C2019 1.414 . S
C2020 C2021 1.374 . S
C2021 H2001 0.950 . S
C2021 C2017 1.385 . S
C2021 C2020 1.374 . S
C2022 C2019 1.499 . S
C2022 C2023 1.373 . S
C2022 C2024 1.389 . S
C2023 H2002 0.950 . S
C2023 C2022 1.373 . S
C2023 C2039 1.377 . S
C2024 C2022 1.389 . S
C2024 C2025 1.524 . S
C2024 C2038 1.377 . S
C2025 C2024 1.524 . S
C2025 C2026 1.397 . S
C2025 C2030 1.363 . S
C2026 H2003 0.950 . S
C2026 C2025 1.397 . S
C2026 C2027 1.334 . S
C2027 H2004 0.950 . S
C2027 C2026 1.334 . S
C2027 C2028 1.287 . S
C2028 C2027 1.287 . S
C2028 C2029 1.524 . S
C2028 H2047 0.913 . S
C2029 H2005 0.950 . S
C2029 C2028 1.524 . S
C2029 C2030 1.415 . S
C2030 H2006 0.950 . S
C2030 C2025 1.363 . S
C2030 C2029 1.415 . S
C2031 H2007 0.951 . S
C2031 C2032 1.366 . S
C2031 C2033 1.388 . S
C2032 C2031 1.366 . S
C2032 C2036 1.385 . S
C2033 H2008 0.951 . S
C2033 C2031 1.388 . S
C2033 C2034 1.366 . S
C2034 C2033 1.366 . S
C2034 C2035 1.414 . S
C2034 C2037 1.499 . S
C2035 H2009 0.950 . S
C2035 C2034 1.414 . S
C2035 C2036 1.374 . S
C2036 H2010 0.950 . S
C2036 C2032 1.385 . S
C2036 C2035 1.374 . S
C2037 C2034 1.499 . S
C2037 C2038 1.373 . S
C2037 C2039 1.389 . S
C2038 H2011 0.950 . S
C2038 C2024 1.377 . S
C2038 C2037 1.373 . S
C2039 C2023 1.377 . S
C2039 C2037 1.389 . S
C2039 C2040 1.524 . S
C2040 C2039 1.524 . S
C2040 C2041 1.397 . S
C2040 C2045 1.363 . S
C2041 H2012 0.950 . S
C2041 C2040 1.397 . S
C2041 C2042 1.334 . S
C2042 H2013 0.950 . S
C2042 C2041 1.334 . S
C2042 C2043 1.287 . S
C2043 C2042 1.287 . S
C2043 C2044 1.524 . S
C2043 H2046 0.999 . S
C2044 H2014 0.950 . S
C2044 C2043 1.524 . S
C2044 C2045 1.415 . S
C2045 H2015 0.950 . S
C2045 C2040 1.363 . S
C2045 C2044 1.415 . S
H2046 C2043 0.999 . S
H2047 C2028 0.913 . S
H2048 C2066 0.951 . S
H2049 C2068 0.951 . S
H2050 C2070 0.950 . S
H2051 C2071 0.950 . S
H2052 C2073 0.950 . S
H2053 C2076 0.950 . S
H2054 C2077 0.950 . S
H2055 C2079 0.950 . S
H2056 C2080 0.950 . S
H2057 C2081 0.951 . S
H2058 C2083 0.951 . S
H2059 C2085 0.950 . S
H2060 C2086 0.950 . S
H2061 C2088 0.950 . S
H2062 C2091 0.950 . S
H2063 C2092 0.950 . S
H2064 C2094 0.950 . S
H2065 C2095 0.950 . S
C2066 H2048 0.951 . S
C2066 C2067 1.366 . S
C2066 C2068 1.388 . S
C2067 C2066 1.366 . S
C2067 C2071 1.385 . S
C2068 H2049 0.951 . S
C2068 C2066 1.388 . S
C2068 C2069 1.366 . S
C2069 C2068 1.366 . S
C2069 C2070 1.414 . S
C2069 C2072 1.499 . S
C2070 H2050 0.950 . S
C2070 C2069 1.414 . S
C2070 C2071 1.374 . S
C2071 H2051 0.950 . S
C2071 C2067 1.385 . S
C2071 C2070 1.374 . S
C2072 C2069 1.499 . S
C2072 C2073 1.373 1_545 S
C2072 C2074 1.389 . S
C2073 H2052 0.950 . S
C2073 C2072 1.373 1_565 S
C2073 C2089 1.377 . S
C2074 C2072 1.389 . S
C2074 C2075 1.524 . S
C2074 C2088 1.377 . S
C2075 C2074 1.524 . S
C2075 C2076 1.397 . S
C2075 C2080 1.363 . S
C2076 H2053 0.950 . S
C2076 C2075 1.397 . S
C2076 C2077 1.334 . S
C2077 H2054 0.950 . S
C2077 C2076 1.334 . S
C2077 C2078 1.287 . S
C2078 C2077 1.287 . S
C2078 C2079 1.524 . S
C2078 H2097 0.913 . S
C2079 H2055 0.950 . S
C2079 C2078 1.524 . S
C2079 C2080 1.415 . S
C2080 H2056 0.950 . S
C2080 C2075 1.363 . S
C2080 C2079 1.415 . S
C2081 H2057 0.951 . S
C2081 C2082 1.366 . S
C2081 C2083 1.388 . S
C2082 C2081 1.366 . S
C2082 C2086 1.385 . S
C2083 H2058 0.951 . S
C2083 C2081 1.388 . S
C2083 C2084 1.366 . S
C2084 C2083 1.366 . S
C2084 C2085 1.414 . S
C2084 C2087 1.499 . S
C2085 H2059 0.950 . S
C2085 C2084 1.414 . S
C2085 C2086 1.374 . S
C2086 H2060 0.950 . S
C2086 C2082 1.385 . S
C2086 C2085 1.374 . S
C2087 C2084 1.499 . S
C2087 C2088 1.373 1_565 S
C2087 C2089 1.389 . S
C2088 H2061 0.950 . S
C2088 C2074 1.377 . S
C2088 C2087 1.373 1_545 S
C2089 C2073 1.377 . S
C2089 C2087 1.389 . S
C2089 C2090 1.524 . S
C2090 C2089 1.524 . S
C2090 C2091 1.397 . S
C2090 C2095 1.363 . S
C2091 H2062 0.950 . S
C2091 C2090 1.397 . S
C2091 C2092 1.334 . S
C2092 H2063 0.950 . S
C2092 C2091 1.334 . S
C2092 C2093 1.287 . S
C2093 C2092 1.287 . S
C2093 C2094 1.524 . S
C2093 H2096 0.999 . S
C2094 H2064 0.950 . S
C2094 C2093 1.524 . S
C2094 C2095 1.415 . S
C2095 H2065 0.950 . S
C2095 C2090 1.363 . S
C2095 C2094 1.415 . S
H2096 C2093 0.999 . S
H2097 C2078 0.913 . S
H2098 C2116 0.951 . S
H2099 C2118 0.951 . S
H2100 C2120 0.950 . S
H2101 C2121 0.950 . S
H2102 C2123 0.950 . S
H2103 C2126 0.950 . S
H2104 C2127 0.950 . S
H2105 C2129 0.950 . S
H2106 C2130 0.950 . S
H2107 C2131 0.951 . S
H2108 C2133 0.951 . S
H2109 C2135 0.950 . S
H2110 C2136 0.950 . S
H2111 C2138 0.950 . S
H2112 C2141 0.950 . S
H2113 C2142 0.950 . S
H2114 C2144 0.950 . S
H2115 C2145 0.950 . S
C2116 H2098 0.951 . S
C2116 C2117 1.366 . S
C2116 C2118 1.388 . S
C2117 C2116 1.366 . S
C2117 C2121 1.385 . S
C2118 H2099 0.951 . S
C2118 C2116 1.388 . S
C2118 C2119 1.366 . S
C2119 C2118 1.366 . S
C2119 C2120 1.414 . S
C2119 C2122 1.499 . S
C2120 H2100 0.950 . S
C2120 C2119 1.414 . S
C2120 C2121 1.374 . S
C2121 H2101 0.950 . S
C2121 C2117 1.385 . S
C2121 C2120 1.374 . S
C2122 C2119 1.499 . S
C2122 C2123 1.373 1_545 S
C2122 C2124 1.389 . S
C2123 H2102 0.950 . S
C2123 C2122 1.373 1_565 S
C2123 C2139 1.377 . S
C2124 C2122 1.389 . S
C2124 C2125 1.524 . S
C2124 C2138 1.377 . S
C2125 C2124 1.524 . S
C2125 C2126 1.397 . S
C2125 C2130 1.363 . S
C2126 H2103 0.950 . S
C2126 C2125 1.397 . S
C2126 C2127 1.334 . S
C2127 H2104 0.950 . S
C2127 C2126 1.334 . S
C2127 C2128 1.287 . S
C2128 C2127 1.287 . S
C2128 C2129 1.524 . S
C2128 H2147 0.913 . S
C2129 H2105 0.950 . S
C2129 C2128 1.524 . S
C2129 C2130 1.415 . S
C2130 H2106 0.950 . S
C2130 C2125 1.363 . S
C2130 C2129 1.415 . S
C2131 H2107 0.951 . S
C2131 C2132 1.366 . S
C2131 C2133 1.388 . S
C2132 C2131 1.366 . S
C2132 C2136 1.385 . S
C2133 H2108 0.951 . S
C2133 C2131 1.388 . S
C2133 C2134 1.366 . S
C2134 C2133 1.366 . S
C2134 C2135 1.414 . S
C2134 C2137 1.499 . S
C2135 H2109 0.950 . S
C2135 C2134 1.414 . S
C2135 C2136 1.374 . S
C2136 H2110 0.950 . S
C2136 C2132 1.385 . S
C2136 C2135 1.374 . S
C2137 C2134 1.499 . S
C2137 C2138 1.373 1_565 S
C2137 C2139 1.389 . S
C2138 H2111 0.950 . S
C2138 C2124 1.377 . S
C2138 C2137 1.373 1_545 S
C2139 C2123 1.377 . S
C2139 C2137 1.389 . S
C2139 C2140 1.524 . S
C2140 C2139 1.524 . S
C2140 C2141 1.397 . S
C2140 C2145 1.363 . S
C2141 H2112 0.950 . S
C2141 C2140 1.397 . S
C2141 C2142 1.334 . S
C2142 H2113 0.950 . S
C2142 C2141 1.334 . S
C2142 C2143 1.287 . S
C2143 C2142 1.287 . S
C2143 C2144 1.524 . S
C2143 H2146 0.999 . S
C2144 H2114 0.950 . S
C2144 C2143 1.524 . S
C2144 C2145 1.415 . S
C2145 H2115 0.950 . S
C2145 C2140 1.363 . S
C2145 C2144 1.415 . S
H2146 C2143 0.999 . S
H2147 C2128 0.913 . S
H2148 C2166 0.951 . S
H2149 C2168 0.951 . S
H2150 C2170 0.950 . S
H2151 C2171 0.950 . S
H2152 C2173 0.950 . S
H2153 C2176 0.950 . S
H2154 C2177 0.950 . S
H2155 C2179 0.950 . S
H2156 C2180 0.950 . S
H2157 C2181 0.951 . S
H2158 C2183 0.951 . S
H2159 C2185 0.950 . S
H2160 C2186 0.950 . S
H2161 C2188 0.950 . S
H2162 C2191 0.950 . S
H2163 C2192 0.950 . S
H2164 C2194 0.950 . S
H2165 C2195 0.950 . S
C2166 H2148 0.951 . S
C2166 C2167 1.366 . S
C2166 C2168 1.388 . S
C2167 C2166 1.366 . S
C2167 C2171 1.385 . S
C2168 H2149 0.951 . S
C2168 C2166 1.388 . S
C2168 C2169 1.366 . S
C2169 C2168 1.366 . S
C2169 C2170 1.414 . S
C2169 C2172 1.499 . S
C2170 H2150 0.950 . S
C2170 C2169 1.414 . S
C2170 C2171 1.374 . S
C2171 H2151 0.950 . S
C2171 C2167 1.385 . S
C2171 C2170 1.374 . S
C2172 C2169 1.499 . S
C2172 C2173 1.373 1_545 S
C2172 C2174 1.389 . S
C2173 H2152 0.950 . S
C2173 C2172 1.373 1_565 S
C2173 C2189 1.377 . S
C2174 C2172 1.389 . S
C2174 C2175 1.524 . S
C2174 C2188 1.377 . S
C2175 C2174 1.524 . S
C2175 C2176 1.397 . S
C2175 C2180 1.363 . S
C2176 H2153 0.950 . S
C2176 C2175 1.397 . S
C2176 C2177 1.334 . S
C2177 H2154 0.950 . S
C2177 C2176 1.334 . S
C2177 C2178 1.287 . S
C2178 C2177 1.287 . S
C2178 C2179 1.524 . S
C2178 H2197 0.913 . S
C2179 H2155 0.950 . S
C2179 C2178 1.524 . S
C2179 C2180 1.415 . S
C2180 H2156 0.950 . S
C2180 C2175 1.363 . S
C2180 C2179 1.415 . S
C2181 H2157 0.951 . S
C2181 C2182 1.366 . S
C2181 C2183 1.388 . S
C2182 C2181 1.366 . S
C2182 C2186 1.385 . S
C2183 H2158 0.951 . S
C2183 C2181 1.388 . S
C2183 C2184 1.366 . S
C2184 C2183 1.366 . S
C2184 C2185 1.414 . S
C2184 C2187 1.499 . S
C2185 H2159 0.950 . S
C2185 C2184 1.414 . S
C2185 C2186 1.374 . S
C2186 H2160 0.950 . S
C2186 C2182 1.385 . S
C2186 C2185 1.374 . S
C2187 C2184 1.499 . S
C2187 C2188 1.373 1_565 S
C2187 C2189 1.389 . S
C2188 H2161 0.950 . S
C2188 C2174 1.377 . S
C2188 C2187 1.373 1_545 S
C2189 C2173 1.377 . S
C2189 C2187 1.389 . S
C2189 C2190 1.524 . S
C2190 C2189 1.524 . S
C2190 C2191 1.397 . S
C2190 C2195 1.363 . S
C2191 H2162 0.950 . S
C2191 C2190 1.397 . S
C2191 C2192 1.334 . S
C2192 H2163 0.950 . S
C2192 C2191 1.334 . S
C2192 C2193 1.287 . S
C2193 C2192 1.287 . S
C2193 C2194 1.524 . S
C2193 H2196 0.999 . S
C2194 H2164 0.950 . S
C2194 C2193 1.524 . S
C2194 C2195 1.415 . S
C2195 H2165 0.950 . S
C2195 C2190 1.363 . S
C2195 C2194 1.415 . S
H2196 C2193 0.999 . S
H2197 C2178 0.913 . S
H2198 C2216 0.951 . S
H2199 C2218 0.951 . S
H2200 C2220 0.950 . S
H2201 C2221 0.950 . S
H2202 C2223 0.950 . S
H2203 C2226 0.950 . S
H2204 C2227 0.950 . S
H2205 C2229 0.950 . S
H2206 C2230 0.950 . S
H2207 C2231 0.951 . S
H2208 C2233 0.951 . S
H2209 C2235 0.950 . S
H2210 C2236 0.950 . S
H2211 C2238 0.950 . S
H2212 C2241 0.950 . S
H2213 C2242 0.950 . S
H2214 C2244 0.950 . S
H2215 C2245 0.950 . S
C2216 H2198 0.951 . S
C2216 C2217 1.366 . S
C2216 C2218 1.388 . S
C2217 C2216 1.366 . S
C2217 C2221 1.385 . S
C2218 H2199 0.951 . S
C2218 C2216 1.388 . S
C2218 C2219 1.366 . S
C2219 C2218 1.366 . S
C2219 C2220 1.414 . S
C2219 C2222 1.499 . S
C2220 H2200 0.950 . S
C2220 C2219 1.414 . S
C2220 C2221 1.374 . S
C2221 H2201 0.950 . S
C2221 C2217 1.385 . S
C2221 C2220 1.374 . S
C2222 C2219 1.499 . S
C2222 C2223 1.373 1_565 S
C2222 C2224 1.389 . S
C2223 H2202 0.950 . S
C2223 C2222 1.373 1_545 S
C2223 C2239 1.377 . S
C2224 C2222 1.389 . S
C2224 C2225 1.524 . S
C2224 C2238 1.377 . S
C2225 C2224 1.524 . S
C2225 C2226 1.397 . S
C2225 C2230 1.363 . S
C2226 H2203 0.950 . S
C2226 C2225 1.397 . S
C2226 C2227 1.334 . S
C2227 H2204 0.950 . S
C2227 C2226 1.334 . S
C2227 C2228 1.287 . S
C2228 C2227 1.287 . S
C2228 C2229 1.524 . S
C2228 H2247 0.913 . S
C2229 H2205 0.950 . S
C2229 C2228 1.524 . S
C2229 C2230 1.415 . S
C2230 H2206 0.950 . S
C2230 C2225 1.363 . S
C2230 C2229 1.415 . S
C2231 H2207 0.951 . S
C2231 C2232 1.366 . S
C2231 C2233 1.388 . S
C2232 C2231 1.366 . S
C2232 C2236 1.385 . S
C2233 H2208 0.951 . S
C2233 C2231 1.388 . S
C2233 C2234 1.366 . S
C2234 C2233 1.366 . S
C2234 C2235 1.414 . S
C2234 C2237 1.499 . S
C2235 H2209 0.950 . S
C2235 C2234 1.414 . S
C2235 C2236 1.374 . S
C2236 H2210 0.950 . S
C2236 C2232 1.385 . S
C2236 C2235 1.374 . S
C2237 C2234 1.499 . S
C2237 C2238 1.373 1_545 S
C2237 C2239 1.389 . S
C2238 H2211 0.950 . S
C2238 C2224 1.377 . S
C2238 C2237 1.373 1_565 S
C2239 C2223 1.377 . S
C2239 C2237 1.389 . S
C2239 C2240 1.524 . S
C2240 C2239 1.524 . S
C2240 C2241 1.397 . S
C2240 C2245 1.363 . S
C2241 H2212 0.950 . S
C2241 C2240 1.397 . S
C2241 C2242 1.334 . S
C2242 H2213 0.950 . S
C2242 C2241 1.334 . S
C2242 C2243 1.287 . S
C2243 C2242 1.287 . S
C2243 C2244 1.524 . S
C2243 H2246 0.999 . S
C2244 H2214 0.950 . S
C2244 C2243 1.524 . S
C2244 C2245 1.415 . S
C2245 H2215 0.950 . S
C2245 C2240 1.363 . S
C2245 C2244 1.415 . S
H2246 C2243 0.999 . S
H2247 C2228 0.913 . S
H2248 C2266 0.951 . S
H2249 C2268 0.951 . S
H2250 C2270 0.950 . S
H2251 C2271 0.950 . S
H2252 C2273 0.950 . S
H2253 C2276 0.950 . S
H2254 C2277 0.950 . S
H2255 C2279 0.950 . S
H2256 C2280 0.950 . S
H2257 C2281 0.951 . S
H2258 C2283 0.951 . S
H2259 C2285 0.950 . S
H2260 C2286 0.950 . S
H2261 C2288 0.950 . S
H2262 C2291 0.950 . S
H2263 C2292 0.950 . S
H2264 C2294 0.950 . S
H2265 C2295 0.950 . S
C2266 H2248 0.951 . S
C2266 C2267 1.366 . S
C2266 C2268 1.388 . S
C2267 C2266 1.366 . S
C2267 C2271 1.385 . S
C2268 H2249 0.951 . S
C2268 C2266 1.388 . S
C2268 C2269 1.366 . S
C2269 C2268 1.366 . S
C2269 C2270 1.414 . S
C2269 C2272 1.499 . S
C2270 H2250 0.950 . S
C2270 C2269 1.414 . S
C2270 C2271 1.374 . S
C2271 H2251 0.950 . S
C2271 C2267 1.385 . S
C2271 C2270 1.374 . S
C2272 C2269 1.499 . S
C2272 C2273 1.373 . S
C2272 C2274 1.389 . S
C2273 H2252 0.950 . S
C2273 C2272 1.373 . S
C2273 C2289 1.377 . S
C2274 C2272 1.389 . S
C2274 C2275 1.524 . S
C2274 C2288 1.377 . S
C2275 C2274 1.524 . S
C2275 C2276 1.397 . S
C2275 C2280 1.363 . S
C2276 H2253 0.950 . S
C2276 C2275 1.397 . S
C2276 C2277 1.334 . S
C2277 H2254 0.950 . S
C2277 C2276 1.334 . S
C2277 C2278 1.287 . S
C2278 C2277 1.287 . S
C2278 C2279 1.524 . S
C2278 H2297 0.913 . S
C2279 H2255 0.950 . S
C2279 C2278 1.524 . S
C2279 C2280 1.415 . S
C2280 H2256 0.950 . S
C2280 C2275 1.363 . S
C2280 C2279 1.415 . S
C2281 H2257 0.951 . S
C2281 C2282 1.366 . S
C2281 C2283 1.388 . S
C2282 C2281 1.366 . S
C2282 C2286 1.385 . S
C2283 H2258 0.951 . S
C2283 C2281 1.388 . S
C2283 C2284 1.366 . S
C2284 C2283 1.366 . S
C2284 C2285 1.414 . S
C2284 C2287 1.499 . S
C2285 H2259 0.950 . S
C2285 C2284 1.414 . S
C2285 C2286 1.374 . S
C2286 H2260 0.950 . S
C2286 C2282 1.385 . S
C2286 C2285 1.374 . S
C2287 C2284 1.499 . S
C2287 C2288 1.373 . S
C2287 C2289 1.389 . S
C2288 H2261 0.950 . S
C2288 C2274 1.377 . S
C2288 C2287 1.373 . S
C2289 C2273 1.377 . S
C2289 C2287 1.389 . S
C2289 C2290 1.524 . S
C2290 C2289 1.524 . S
C2290 C2291 1.397 . S
C2290 C2295 1.363 . S
C2291 H2262 0.950 . S
C2291 C2290 1.397 . S
C2291 C2292 1.334 . S
C2292 H2263 0.950 . S
C2292 C2291 1.334 . S
C2292 C2293 1.287 . S
C2293 C2292 1.287 . S
C2293 C2294 1.524 . S
C2293 H2296 0.999 . S
C2294 H2264 0.950 . S
C2294 C2293 1.524 . S
C2294 C2295 1.415 . S
C2295 H2265 0.950 . S
C2295 C2290 1.363 . S
C2295 C2294 1.415 . S
H2296 C2293 0.999 . S
H2297 C2278 0.913 . S
H2298 C2316 0.951 . S
H2299 C2318 0.951 . S
H2300 C2320 0.950 . S
H2301 C2321 0.950 . S
H2302 C2323 0.950 . S
H2303 C2326 0.950 . S
H2304 C2327 0.950 . S
H2305 C2329 0.950 . S
H2306 C2330 0.950 . S
H2307 C2331 0.951 . S
H2308 C2333 0.951 . S
H2309 C2335 0.950 . S
H2310 C2336 0.950 . S
H2311 C2338 0.950 . S
H2312 C2341 0.950 . S
H2313 C2342 0.950 . S
H2314 C2344 0.950 . S
H2315 C2345 0.950 . S
C2316 H2298 0.951 . S
C2316 C2317 1.366 . S
C2316 C2318 1.388 . S
C2317 C2316 1.366 . S
C2317 C2321 1.385 . S
C2318 H2299 0.951 . S
C2318 C2316 1.388 . S
C2318 C2319 1.366 . S
C2319 C2318 1.366 . S
C2319 C2320 1.414 . S
C2319 C2322 1.499 . S
C2320 H2300 0.950 . S
C2320 C2319 1.414 . S
C2320 C2321 1.374 . S
C2321 H2301 0.950 . S
C2321 C2317 1.385 . S
C2321 C2320 1.374 . S
C2322 C2319 1.499 . S
C2322 C2323 1.373 . S
C2322 C2324 1.389 . S
C2323 H2302 0.950 . S
C2323 C2322 1.373 . S
C2323 C2339 1.377 . S
C2324 C2322 1.389 . S
C2324 C2325 1.524 . S
C2324 C2338 1.377 . S
C2325 C2324 1.524 . S
C2325 C2326 1.397 . S
C2325 C2330 1.363 . S
C2326 H2303 0.950 . S
C2326 C2325 1.397 . S
C2326 C2327 1.334 . S
C2327 H2304 0.950 . S
C2327 C2326 1.334 . S
C2327 C2328 1.287 . S
C2328 C2327 1.287 . S
C2328 C2329 1.524 . S
C2328 H2347 0.913 . S
C2329 H2305 0.950 . S
C2329 C2328 1.524 . S
C2329 C2330 1.415 . S
C2330 H2306 0.950 . S
C2330 C2325 1.363 . S
C2330 C2329 1.415 . S
C2331 H2307 0.951 . S
C2331 C2332 1.366 . S
C2331 C2333 1.388 . S
C2332 C2331 1.366 . S
C2332 C2336 1.385 . S
C2333 H2308 0.951 . S
C2333 C2331 1.388 . S
C2333 C2334 1.366 . S
C2334 C2333 1.366 . S
C2334 C2335 1.414 . S
C2334 C2337 1.499 . S
C2335 H2309 0.950 . S
C2335 C2334 1.414 . S
C2335 C2336 1.374 . S
C2336 H2310 0.950 . S
C2336 C2332 1.385 . S
C2336 C2335 1.374 . S
C2337 C2334 1.499 . S
C2337 C2338 1.373 . S
C2337 C2339 1.389 . S
C2338 H2311 0.950 . S
C2338 C2324 1.377 . S
C2338 C2337 1.373 . S
C2339 C2323 1.377 . S
C2339 C2337 1.389 . S
C2339 C2340 1.524 . S
C2340 C2339 1.524 . S
C2340 C2341 1.397 . S
C2340 C2345 1.363 . S
C2341 H2312 0.950 . S
C2341 C2340 1.397 . S
C2341 C2342 1.334 . S
C2342 H2313 0.950 . S
C2342 C2341 1.334 . S
C2342 C2343 1.287 . S
C2343 C2342 1.287 . S
C2343 C2344 1.524 . S
C2343 H2346 0.999 . S
C2344 H2314 0.950 . S
C2344 C2343 1.524 . S
C2344 C2345 1.415 . S
C2345 H2315 0.950 . S
C2345 C2340 1.363 . S
C2345 C2344 1.415 . S
H2346 C2343 0.999 . S
H2347 C2328 0.913 . S
H2348 C2366 0.951 . S
H2349 C2368 0.951 . S
H2350 C2370 0.950 . S
H2351 C2371 0.950 . S
H2352 C2373 0.950 . S
H2353 C2376 0.950 . S
H2354 C2377 0.950 . S
H2355 C2379 0.950 . S
H2356 C2380 0.950 . S
H2357 C2381 0.951 . S
H2358 C2383 0.951 . S
H2359 C2385 0.950 . S
H2360 C2386 0.950 . S
H2361 C2388 0.950 . S
H2362 C2391 0.950 . S
H2363 C2392 0.950 . S
H2364 C2394 0.950 . S
H2365 C2395 0.950 . S
C2366 H2348 0.951 . S
C2366 C2367 1.366 . S
C2366 C2368 1.388 . S
C2367 C2366 1.366 . S
C2367 C2371 1.385 . S
C2368 H2349 0.951 . S
C2368 C2366 1.388 . S
C2368 C2369 1.366 . S
C2369 C2368 1.366 . S
C2369 C2370 1.414 . S
C2369 C2372 1.499 . S
C2370 H2350 0.950 . S
C2370 C2369 1.414 . S
C2370 C2371 1.374 . S
C2371 H2351 0.950 . S
C2371 C2367 1.385 . S
C2371 C2370 1.374 . S
C2372 C2369 1.499 . S
C2372 C2373 1.373 . S
C2372 C2374 1.389 . S
C2373 H2352 0.950 . S
C2373 C2372 1.373 . S
C2373 C2389 1.377 . S
C2374 C2372 1.389 . S
C2374 C2375 1.524 . S
C2374 C2388 1.377 . S
C2375 C2374 1.524 . S
C2375 C2376 1.397 . S
C2375 C2380 1.363 . S
C2376 H2353 0.950 . S
C2376 C2375 1.397 . S
C2376 C2377 1.334 . S
C2377 H2354 0.950 . S
C2377 C2376 1.334 . S
C2377 C2378 1.287 . S
C2378 C2377 1.287 . S
C2378 C2379 1.524 . S
C2378 H2397 0.913 . S
C2379 H2355 0.950 . S
C2379 C2378 1.524 . S
C2379 C2380 1.415 . S
C2380 H2356 0.950 . S
C2380 C2375 1.363 . S
C2380 C2379 1.415 . S
C2381 H2357 0.951 . S
C2381 C2382 1.366 . S
C2381 C2383 1.388 . S
C2382 C2381 1.366 . S
C2382 C2386 1.385 . S
C2383 H2358 0.951 . S
C2383 C2381 1.388 . S
C2383 C2384 1.366 . S
C2384 C2383 1.366 . S
C2384 C2385 1.414 . S
C2384 C2387 1.499 . S
C2385 H2359 0.950 . S
C2385 C2384 1.414 . S
C2385 C2386 1.374 . S
C2386 H2360 0.950 . S
C2386 C2382 1.385 . S
C2386 C2385 1.374 . S
C2387 C2384 1.499 . S
C2387 C2388 1.373 . S
C2387 C2389 1.389 . S
C2388 H2361 0.950 . S
C2388 C2374 1.377 . S
C2388 C2387 1.373 . S
C2389 C2373 1.377 . S
C2389 C2387 1.389 . S
C2389 C2390 1.524 . S
C2390 C2389 1.524 . S
C2390 C2391 1.397 . S
C2390 C2395 1.363 . S
C2391 H2362 0.950 . S
C2391 C2390 1.397 . S
C2391 C2392 1.334 . S
C2392 H2363 0.950 . S
C2392 C2391 1.334 . S
C2392 C2393 1.287 . S
C2393 C2392 1.287 . S
C2393 C2394 1.524 . S
C2393 H2396 0.999 . S
C2394 H2364 0.950 . S
C2394 C2393 1.524 . S
C2394 C2395 1.415 . S
C2395 H2365 0.950 . S
C2395 C2390 1.363 . S
C2395 C2394 1.415 . S
H2396 C2393 0.999 . S
H2397 C2378 0.913 . S
H2398 C2416 0.951 . S
H2399 C2418 0.951 . S
H2400 C2420 0.950 . S
H2401 C2421 0.950 . S
H2402 C2423 0.950 . S
H2403 C2426 0.950 . S
H2404 C2427 0.950 . S
H2405 C2429 0.950 . S
H2406 C2430 0.950 . S
H2407 C2431 0.951 . S
H2408 C2433 0.951 . S
H2409 C2435 0.950 . S
H2410 C2436 0.950 . S
H2411 C2438 0.950 . S
H2412 C2441 0.950 . S
H2413 C2442 0.950 . S
H2414 C2444 0.950 . S
H2415 C2445 0.950 . S
C2416 H2398 0.951 . S
C2416 C2417 1.366 . S
C2416 C2418 1.388 . S
C2417 C2416 1.366 . S
C2417 C2421 1.385 . S
C2418 H2399 0.951 . S
C2418 C2416 1.388 . S
C2418 C2419 1.366 . S
C2419 C2418 1.366 . S
C2419 C2420 1.414 . S
C2419 C2422 1.499 . S
C2420 H2400 0.950 . S
C2420 C2419 1.414 . S
C2420 C2421 1.374 . S
C2421 H2401 0.950 . S
C2421 C2417 1.385 . S
C2421 C2420 1.374 . S
C2422 C2419 1.499 . S
C2422 C2423 1.373 . S
C2422 C2424 1.389 . S
C2423 H2402 0.950 . S
C2423 C2422 1.373 . S
C2423 C2439 1.377 . S
C2424 C2422 1.389 . S
C2424 C2425 1.524 . S
C2424 C2438 1.377 . S
C2425 C2424 1.524 . S
C2425 C2426 1.397 . S
C2425 C2430 1.363 . S
C2426 H2403 0.950 . S
C2426 C2425 1.397 . S
C2426 C2427 1.334 . S
C2427 H2404 0.950 . S
C2427 C2426 1.334 . S
C2427 C2428 1.287 . S
C2428 C2427 1.287 . S
C2428 C2429 1.524 . S
C2428 H2447 0.913 . S
C2429 H2405 0.950 . S
C2429 C2428 1.524 . S
C2429 C2430 1.415 . S
C2430 H2406 0.950 . S
C2430 C2425 1.363 . S
C2430 C2429 1.415 . S
C2431 H2407 0.951 . S
C2431 C2432 1.366 . S
C2431 C2433 1.388 . S
C2432 C2431 1.366 . S
C2432 C2436 1.385 . S
C2433 H2408 0.951 . S
C2433 C2431 1.388 . S
C2433 C2434 1.366 . S
C2434 C2433 1.366 . S
C2434 C2435 1.414 . S
C2434 C2437 1.499 . S
C2435 H2409 0.950 . S
C2435 C2434 1.414 . S
C2435 C2436 1.374 . S
C2436 H2410 0.950 . S
C2436 C2432 1.385 . S
C2436 C2435 1.374 . S
C2437 C2434 1.499 . S
C2437 C2438 1.373 . S
C2437 C2439 1.389 . S
C2438 H2411 0.950 . S
C2438 C2424 1.377 . S
C2438 C2437 1.373 . S
C2439 C2423 1.377 . S
C2439 C2437 1.389 . S
C2439 C2440 1.524 . S
C2440 C2439 1.524 . S
C2440 C2441 1.397 . S
C2440 C2445 1.363 . S
C2441 H2412 0.950 . S
C2441 C2440 1.397 . S
C2441 C2442 1.334 . S
C2442 H2413 0.950 . S
C2442 C2441 1.334 . S
C2442 C2443 1.287 . S
C2443 C2442 1.287 . S
C2443 C2444 1.524 . S
C2443 H2446 0.999 . S
C2444 H2414 0.950 . S
C2444 C2443 1.524 . S
C2444 C2445 1.415 . S
C2445 H2415 0.950 . S
C2445 C2440 1.363 . S
C2445 C2444 1.415 . S
H2446 C2443 0.999 . S
H2447 C2428 0.913 . S
C867 C39 1.911 . S
C882 C304 1.907 . S
C917 C251 1.907 . S
C932 C92 1.911 . S
C967 C145 1.911 . S
C982 C410 1.906 . S
C1017 C357 1.906 . S
C1032 C198 1.911 . S
C1067 C728 1.906 . S
C1082 C463 1.911 . S
C1117 C675 1.906 . S
C1132 C516 1.911 . S
C1167 C834 1.907 . S
C1182 C569 1.911 . S
C1217 C622 1.911 . S
C1232 C781 1.906 . S
C1267 C82 1.545 . S
C1282 C29 1.546 . S
C1317 C135 1.546 . S
C1332 C188 1.546 . S
C1367 C241 1.547 . S
C1382 C294 1.547 . S
C1417 C347 1.547 . S
C1432 C400 1.547 . S
C1467 C453 1.546 . S
C1482 C506 1.546 . S
C1517 C612 1.545 . S
C1532 C559 1.546 . S
C1567 C718 1.547 . S
C1582 C665 1.547 . S
C1617 C771 1.547 . S
C1632 C824 1.547 . S
C1667 C499 1.537 . S
C1682 C22 1.537 . S
C1717 C75 1.537 . S
C1732 C446 1.537 . S
C1767 C605 1.537 . S
C1782 C128 1.537 . S
C1817 C181 1.537 . S
C1832 C552 1.537 . S
C1867 C234 1.536 . S
C1882 C711 1.536 . S
C1917 C658 1.536 . S
C1932 C287 1.536 . S
C1967 C340 1.536 . S
C1982 C817 1.536 . S
C2017 C764 1.536 . S
C2032 C393 1.536 . S
C2067 C38 1.961 . S
C2082 C144 1.961 . S
C2117 C197 1.961 . S
C2132 C91 1.960 . S
C2167 C356 1.968 . S
C2182 C250 1.968 . S
C2217 C409 1.968 . S
C2232 C303 1.968 . S
C2267 C568 1.960 . S
C2282 C462 1.960 . S
C2317 C515 1.961 . S
C2332 C621 1.961 . S
C2367 C780 1.968 . S
C2382 C674 1.968 . S
C2417 C727 1.968 . S
C2432 C833 1.968 . S
